# Generated by pormake.
# Topology uki, (4)-cn, num edge types: 1
# Building blocks:
#     Node 0, Type 0, BuildingBlock: KOZSID_clean_sbu_0, # of connection points: 4
#     Node 1, Type 0, BuildingBlock: KOZSID_clean_sbu_0, # of connection points: 4
#     Node 2, Type 0, BuildingBlock: KOZSID_clean_sbu_0, # of connection points: 4
#     Node 3, Type 0, BuildingBlock: KOZSID_clean_sbu_0, # of connection points: 4
#     Node 4, Type 0, BuildingBlock: KOZSID_clean_sbu_0, # of connection points: 4
#     Node 5, Type 0, BuildingBlock: KOZSID_clean_sbu_0, # of connection points: 4
#     Node 6, Type 0, BuildingBlock: KOZSID_clean_sbu_0, # of connection points: 4
#     Node 7, Type 0, BuildingBlock: KOZSID_clean_sbu_0, # of connection points: 4
#     Node 8, Type 0, BuildingBlock: KOZSID_clean_sbu_0, # of connection points: 4
#     Node 9, Type 0, BuildingBlock: KOZSID_clean_sbu_0, # of connection points: 4
#     Node 10, Type 0, BuildingBlock: KOZSID_clean_sbu_0, # of connection points: 4
#     Node 11, Type 0, BuildingBlock: KOZSID_clean_sbu_0, # of connection points: 4
#     Node 12, Type 0, BuildingBlock: KOZSID_clean_sbu_0, # of connection points: 4
#     Node 13, Type 0, BuildingBlock: KOZSID_clean_sbu_0, # of connection points: 4
#     Node 14, Type 0, BuildingBlock: KOZSID_clean_sbu_0, # of connection points: 4
#     Node 15, Type 0, BuildingBlock: KOZSID_clean_sbu_0, # of connection points: 4
#     Edge 16, Type (0, 0), BuildingBlock: MIFKUJ_clean_linker_0, # of connection points: 2
#     Edge 17, Type (0, 0), BuildingBlock: MIFKUJ_clean_linker_0, # of connection points: 2
#     Edge 18, Type (0, 0), BuildingBlock: MIFKUJ_clean_linker_0, # of connection points: 2
#     Edge 19, Type (0, 0), BuildingBlock: MIFKUJ_clean_linker_0, # of connection points: 2
#     Edge 20, Type (0, 0), BuildingBlock: MIFKUJ_clean_linker_0, # of connection points: 2
#     Edge 21, Type (0, 0), BuildingBlock: MIFKUJ_clean_linker_0, # of connection points: 2
#     Edge 22, Type (0, 0), BuildingBlock: MIFKUJ_clean_linker_0, # of connection points: 2
#     Edge 23, Type (0, 0), BuildingBlock: MIFKUJ_clean_linker_0, # of connection points: 2
#     Edge 24, Type (0, 0), BuildingBlock: MIFKUJ_clean_linker_0, # of connection points: 2
#     Edge 25, Type (0, 0), BuildingBlock: MIFKUJ_clean_linker_0, # of connection points: 2
#     Edge 26, Type (0, 0), BuildingBlock: MIFKUJ_clean_linker_0, # of connection points: 2
#     Edge 27, Type (0, 0), BuildingBlock: MIFKUJ_clean_linker_0, # of connection points: 2
#     Edge 28, Type (0, 0), BuildingBlock: MIFKUJ_clean_linker_0, # of connection points: 2
#     Edge 29, Type (0, 0), BuildingBlock: MIFKUJ_clean_linker_0, # of connection points: 2
#     Edge 30, Type (0, 0), BuildingBlock: MIFKUJ_clean_linker_0, # of connection points: 2
#     Edge 31, Type (0, 0), BuildingBlock: MIFKUJ_clean_linker_0, # of connection points: 2
#     Edge 32, Type (0, 0), BuildingBlock: MIFKUJ_clean_linker_0, # of connection points: 2
#     Edge 33, Type (0, 0), BuildingBlock: MIFKUJ_clean_linker_0, # of connection points: 2
#     Edge 34, Type (0, 0), BuildingBlock: MIFKUJ_clean_linker_0, # of connection points: 2
#     Edge 35, Type (0, 0), BuildingBlock: MIFKUJ_clean_linker_0, # of connection points: 2
#     Edge 36, Type (0, 0), BuildingBlock: MIFKUJ_clean_linker_0, # of connection points: 2
#     Edge 37, Type (0, 0), BuildingBlock: MIFKUJ_clean_linker_0, # of connection points: 2
#     Edge 38, Type (0, 0), BuildingBlock: MIFKUJ_clean_linker_0, # of connection points: 2
#     Edge 39, Type (0, 0), BuildingBlock: MIFKUJ_clean_linker_0, # of connection points: 2
#     Edge 40, Type (0, 0), BuildingBlock: MIFKUJ_clean_linker_0, # of connection points: 2
#     Edge 41, Type (0, 0), BuildingBlock: MIFKUJ_clean_linker_0, # of connection points: 2
#     Edge 42, Type (0, 0), BuildingBlock: MIFKUJ_clean_linker_0, # of connection points: 2
#     Edge 43, Type (0, 0), BuildingBlock: MIFKUJ_clean_linker_0, # of connection points: 2
#     Edge 44, Type (0, 0), BuildingBlock: MIFKUJ_clean_linker_0, # of connection points: 2
#     Edge 45, Type (0, 0), BuildingBlock: MIFKUJ_clean_linker_0, # of connection points: 2
#     Edge 46, Type (0, 0), BuildingBlock: MIFKUJ_clean_linker_0, # of connection points: 2
#     Edge 47, Type (0, 0), BuildingBlock: MIFKUJ_clean_linker_0, # of connection points: 2
# Relax obj value: 0.118
# Max RMSD: 0.241
# Mean RMSD: 0.241
data_MOF--net-uki--node1-KOZSID_clean_sbu_0--edge1-MIFKUJ_clean_linker_0
_symmetry_space_group_name_H-M    P1
_symmetry_Int_Tables_number       1
_symmetry_cell_setting            triclinic
loop_
_symmetry_equiv_pos_as_xyz
'x, y, z'
_cell_length_a     47.002228
_cell_length_b     47.059872
_cell_length_c     113.0985
_cell_angle_alpha  90.069089
_cell_angle_beta   90.037386
_cell_angle_gamma 90.056324
loop_
_atom_site_label
_atom_site_type_symbol
_atom_site_fract_x
_atom_site_fract_y
_atom_site_fract_z
_atom_type_partial_charge
C0 C 0.16325 0.23174 0.3242 0.0
C1 C 0.18661 0.21434 0.32225 0.0
C2 C 0.182 0.20075 0.31167 0.0
C3 C 0.15614 0.21051 0.30774 0.0
N4 N 0.14435 0.22959 0.31513 0.0
Co5 Co 0.1066 0.24787 0.3129 0.0
N6 N 0.10552 0.23817 0.29581 0.0
C7 C 0.1216 0.21835 0.29045 0.0
C8 C 0.11644 0.21662 0.27851 0.0
C9 C 0.09572 0.23648 0.27627 0.0
C10 C 0.08926 0.24919 0.28701 0.0
N11 N 0.06881 0.26593 0.31078 0.0
C12 C 0.05556 0.27455 0.30077 0.0
C13 C 0.02893 0.28578 0.30331 0.0
C14 C 0.02556 0.28415 0.31532 0.0
C15 C 0.05016 0.27198 0.31944 0.0
N16 N 0.10752 0.25767 0.33 0.0
C17 C 0.08491 0.26533 0.33658 0.0
C18 C 0.09181 0.27107 0.34813 0.0
C19 C 0.12051 0.26645 0.34892 0.0
C20 C 0.12954 0.25784 0.33778 0.0
N21 N 0.12532 0.284 0.30889 0.0
C22 C 0.14749 0.33533 0.29994 0.0
C23 C 0.12542 0.33532 0.30833 0.0
C24 C 0.11483 0.30948 0.31276 0.0
C25 C 0.15883 0.30902 0.29655 0.0
C26 C 0.14756 0.28383 0.3011 0.0
N27 N 0.08784 0.2113 0.31652 0.0
C28 C 0.08668 0.1664 0.32691 0.0
C29 C 0.06537 0.15599 0.31933 0.0
C30 C 0.05473 0.17453 0.31069 0.0
C31 C 0.06606 0.2019 0.30947 0.0
C32 C 0.09758 0.19401 0.32537 0.0
H33 H 0.05765 0.21516 0.30255 0.0
H34 H 0.1145 0.201 0.33113 0.0
H35 H 0.09756 0.31008 0.31904 0.0
H36 H 0.15619 0.26411 0.29788 0.0
C37 C 0.14427 0.20557 0.29652 0.0
C38 C 0.15852 0.2478 0.33521 0.0
C39 C 0.06658 0.27038 0.28875 0.0
C40 C 0.05857 0.27071 0.33128 0.0
H41 H 0.20484 0.21145 0.32798 0.0
H42 H 0.19617 0.18608 0.30725 0.0
H43 H 0.12725 0.20336 0.27211 0.0
H44 H 0.08647 0.24104 0.26771 0.0
H45 H 0.01347 0.29413 0.29713 0.0
H46 H 1.00779 0.29196 0.32046 0.0
H47 H 0.07784 0.27857 0.35506 0.0
H48 H 0.13321 0.26888 0.35684 0.0
H49 H 0.1162 0.35509 0.31138 0.0
H50 H 0.1756 0.3077 0.29001 0.0
H51 H 0.09567 0.153 0.33373 0.0
H52 H 0.03783 0.1679 0.30479 0.0
C53 C 0.2671 0.9629 0.7149 0.0
C54 C 0.28037 0.98834 0.71195 0.0
C55 C 0.28053 0.98984 0.69986 0.0
C56 C 0.26734 0.96543 0.69611 0.0
N57 N 0.25895 0.94857 0.70506 0.0
Co58 Co 0.23828 0.91187 0.70339 0.0
N59 N 0.24953 0.90803 0.6865 0.0
C60 C 0.25987 0.92902 0.67965 0.0
C61 C 0.26616 0.92031 0.66838 0.0
C62 C 0.25906 0.89211 0.66803 0.0
C63 C 0.24847 0.88522 0.67913 0.0
N64 N 0.21726 0.87535 0.70157 0.0
C65 C 0.21844 0.85536 0.69288 0.0
C66 C 0.19903 0.83372 0.69499 0.0
C67 C 0.18517 0.84052 0.70529 0.0
C68 C 0.19675 0.8659 0.70889 0.0
N69 N 0.22725 0.9158 0.72029 0.0
C70 C 0.20602 0.90161 0.72564 0.0
C71 C 0.20334 0.90856 0.73739 0.0
C72 C 0.22406 0.92852 0.73952 0.0
C73 C 0.2382 0.93277 0.7289 0.0
N74 N 0.2035 0.93265 0.69877 0.0
C75 C 0.14974 0.95771 0.69479 0.0
C76 C 0.16844 0.96854 0.70336 0.0
C77 C 0.19503 0.95585 0.70518 0.0
C78 C 0.15928 0.93478 0.68788 0.0
C79 C 0.18617 0.92274 0.68994 0.0
N80 N 0.27256 0.89106 0.7084 0.0
C81 C 0.29334 0.85548 0.72108 0.0
C82 C 0.32095 0.86527 0.71865 0.0
C83 C 0.32365 0.8875 0.71038 0.0
C84 C 0.29928 0.89979 0.70526 0.0
C85 C 0.26971 0.86879 0.71607 0.0
H86 H 0.30206 0.917 0.69908 0.0
H87 H 0.24903 0.86144 0.71874 0.0
H88 H 0.20827 0.9643 0.71212 0.0
H89 H 0.19253 0.90484 0.68461 0.0
C90 C 0.26676 0.95547 0.68448 0.0
C91 C 0.26053 0.95436 0.72708 0.0
C92 C 0.23548 0.85758 0.68199 0.0
C93 C 0.19204 0.87929 0.71981 0.0
H94 H 0.28883 1.00428 0.71789 0.0
H95 H 0.29004 1.0063 0.69448 0.0
H96 H 0.27554 0.93274 0.66134 0.0
H97 H 0.26116 0.87836 0.66041 0.0
H98 H 0.19498 0.81521 0.68956 0.0
H99 H 0.16907 0.82806 0.70976 0.0
H100 H 0.1887 0.89955 0.74375 0.0
H101 H 0.22814 0.93886 0.7479 0.0
H102 H 0.16221 0.98607 0.709 0.0
H103 H 0.14597 0.92595 0.68097 0.0
H104 H 0.28968 0.83779 0.72698 0.0
H105 H 0.34429 0.89608 0.70811 0.0
C106 C 0.85924 0.79329 0.32133 0.0
C107 C 0.83663 0.81105 0.31858 0.0
C108 C 0.84349 0.82442 0.30819 0.0
C109 C 0.86974 0.81401 0.30509 0.0
N110 N 0.87967 0.79468 0.31283 0.0
Co111 Co 0.9168 0.77454 0.31153 0.0
N112 N 0.92088 0.78407 0.2945 0.0
C113 C 0.90642 0.8045 0.28876 0.0
C114 C 0.914 0.80671 0.27707 0.0
C115 C 0.93467 0.78652 0.27538 0.0
C116 C 0.93854 0.77301 0.28616 0.0
N117 N 0.95406 0.75472 0.3104 0.0
C118 C 0.96864 0.7456 0.30077 0.0
C119 C 0.99331 0.73145 0.30413 0.0
C120 C 0.99458 0.73261 0.3162 0.0
C121 C 0.97056 0.74698 0.31958 0.0
N122 N 0.91277 0.76485 0.32856 0.0
C123 C 0.93397 0.75647 0.33576 0.0
C124 C 0.92532 0.75209 0.34719 0.0
C125 C 0.89687 0.75827 0.34724 0.0
C126 C 0.8897 0.76601 0.33577 0.0
N127 N 0.89699 0.73929 0.30697 0.0
C128 C 0.87363 0.68929 0.29705 0.0
C129 C 0.89514 0.68803 0.30571 0.0
C130 C 0.90624 0.71318 0.31065 0.0
C131 C 0.86305 0.71627 0.29413 0.0
C132 C 0.87514 0.74072 0.29901 0.0
N133 N 0.93661 0.81026 0.31569 0.0
C134 C 0.93752 0.85547 0.3259 0.0
C135 C 0.96022 0.865 0.31885 0.0
C136 C 0.97171 0.84578 0.31065 0.0
C137 C 0.95978 0.8187 0.30926 0.0
C138 C 0.9261 0.82813 0.3242 0.0
H139 H 0.96886 0.80495 0.30264 0.0
H140 H 0.90811 0.82186 0.32951 0.0
H141 H 0.92305 0.71152 0.31711 0.0
H142 H 0.86731 0.76088 0.29596 0.0
C143 C 0.88344 0.81823 0.29422 0.0
C144 C 0.86154 0.77687 0.33239 0.0
C145 C 0.96098 0.75186 0.28842 0.0
C146 C 0.96051 0.74914 0.33116 0.0
H147 H 0.81722 0.81414 0.32356 0.0
H148 H 0.83041 0.83917 0.30327 0.0
H149 H 0.90509 0.82079 0.27048 0.0
H150 H 0.94592 0.7825 0.2672 0.0
H151 H 1.00888 0.72135 0.29848 0.0
H152 H 0.01049 0.72302 0.32185 0.0
H153 H 0.93798 0.74462 0.35455 0.0
H154 H 0.88314 0.75762 0.35491 0.0
H155 H 0.90418 0.6679 0.30839 0.0
H156 H 0.84576 0.71878 0.28789 0.0
H157 H 0.92785 0.86939 0.33238 0.0
H158 H 0.98969 0.85169 0.3052 0.0
C159 C 0.75853 0.04814 0.7109 0.0
C160 C 0.74749 0.02214 0.70727 0.0
C161 C 0.73644 0.02616 0.69623 0.0
C162 C 0.74162 0.05415 0.69367 0.0
N163 N 0.75574 0.06806 0.70229 0.0
Co164 Co 0.76858 0.10855 0.70176 0.0
N165 N 0.75992 0.11169 0.6845 0.0
C166 C 0.74426 0.09321 0.67811 0.0
C167 C 0.74118 0.10091 0.6665 0.0
C168 C 0.75563 0.12597 0.66544 0.0
C169 C 0.76681 0.13215 0.67652 0.0
N170 N 0.78153 0.14902 0.70109 0.0
C171 C 0.78667 0.16627 0.69167 0.0
C172 C 0.79494 0.19319 0.69534 0.0
C173 C 0.79451 0.19297 0.70744 0.0
C174 C 0.78615 0.16601 0.71049 0.0
N175 N 0.77688 0.10551 0.71906 0.0
C176 C 0.78203 0.12755 0.72637 0.0
C177 C 0.78559 0.11962 0.73794 0.0
C178 C 0.78201 0.09077 0.73801 0.0
C179 C 0.77649 0.08266 0.72643 0.0
N180 N 0.80763 0.09573 0.69819 0.0
C181 C 0.86323 0.07419 0.69492 0.0
C182 C 0.85777 0.09633 0.70293 0.0
C183 C 0.83009 0.10675 0.70439 0.0
C184 C 0.84011 0.06366 0.68835 0.0
C185 C 0.81265 0.07473 0.69007 0.0
N186 N 0.72967 0.1214 0.70565 0.0
C187 C 0.69267 0.15704 0.7048 0.0
C188 C 0.67765 0.14364 0.71397 0.0
C189 C 0.68872 0.11823 0.71846 0.0
C190 C 0.71448 0.10757 0.71421 0.0
C191 C 0.71839 0.14544 0.70069 0.0
H192 H 0.72244 0.08857 0.71825 0.0
H193 H 0.72946 0.15642 0.69372 0.0
H194 H 0.82688 0.12337 0.71078 0.0
H195 H 0.79546 0.06592 0.68495 0.0
C196 C 0.73609 0.06719 0.68287 0.0
C197 C 0.76743 0.0538 0.72313 0.0
C198 C 0.78177 0.15875 0.67921 0.0
C199 C 0.78542 0.15503 0.72194 0.0
H200 H 0.74664 1.00253 0.71225 0.0
H201 H 0.72614 0.01046 0.69068 0.0
H202 H 0.73035 0.08932 0.65955 0.0
H203 H 0.75744 0.13842 0.65743 0.0
H204 H 0.80032 0.21122 0.68985 0.0
H205 H 0.80017 0.21025 0.71332 0.0
H206 H 0.79024 0.13318 0.74544 0.0
H207 H 0.78253 0.0774 0.74578 0.0
H208 H 0.87463 0.10514 0.70834 0.0
H209 H 0.84313 0.04694 0.68188 0.0
H210 H 0.68474 0.17646 0.70088 0.0
H211 H 0.67817 0.10709 0.7256 0.0
C212 C 0.16045 0.28902 0.94158 0.0
C213 C 0.18298 0.3073 0.94388 0.0
C214 C 0.17703 0.32055 0.95441 0.0
C215 C 0.15127 0.30974 0.95796 0.0
N216 N 0.14076 0.29029 0.95038 0.0
Co217 Co 0.10349 0.27057 0.95203 0.0
N218 N 0.10049 0.28038 0.96909 0.0
C219 C 0.11548 0.30075 0.97467 0.0
C220 C 0.10888 0.30282 0.98647 0.0
C221 C 0.0883 0.28262 0.9884 0.0
C222 C 0.08339 0.26938 0.97762 0.0
N223 N 0.06618 0.251 0.95358 0.0
C224 C 0.05203 0.24236 0.96338 0.0
C225 C 0.02619 0.2299 0.96038 0.0
C226 C 0.02418 0.23086 0.94831 0.0
C227 C 0.04875 0.24385 0.94461 0.0
N228 N 0.10631 0.26076 0.93495 0.0
C229 C 0.08466 0.252 0.92804 0.0
C230 C 0.09274 0.24663 0.9166 0.0
C231 C 0.12122 0.25266 0.91623 0.0
C232 C 0.12892 0.26166 0.92749 0.0
N233 N 0.12319 0.23522 0.95636 0.0
C234 C 0.14753 0.1848 0.96522 0.0
C235 C 0.12604 0.18395 0.95657 0.0
C236 C 0.11432 0.20936 0.9522 0.0
C237 C 0.15704 0.21155 0.969 0.0
C238 C 0.1447 0.23627 0.9645 0.0
N239 N 0.08376 0.30636 0.94807 0.0
C240 C 0.08241 0.35142 0.93781 0.0
C241 C 0.06008 0.361 0.94505 0.0
C242 C 0.049 0.34191 0.95337 0.0
C243 C 0.06097 0.31489 0.95471 0.0
C244 C 0.09388 0.32411 0.93945 0.0
H245 H 0.05223 0.30125 0.96143 0.0
H246 H 0.11155 0.31777 0.93398 0.0
H247 H 0.09761 0.20807 0.94568 0.0
H248 H 0.15204 0.25629 0.96795 0.0
C249 C 0.13826 0.31425 0.96896 0.0
C250 C 0.1572 0.27303 0.93046 0.0
C251 C 0.0611 0.24789 0.97559 0.0
C252 C 0.0582 0.24538 0.93293 0.0
H253 H 0.20151 0.31102 0.93842 0.0
H254 H 0.19026 0.33576 0.95905 0.0
H255 H 0.11853 0.31667 0.99299 0.0
H256 H 0.078 0.27828 0.99676 0.0
H257 H 0.01029 0.22128 0.9663 0.0
H258 H 1.00728 0.22224 0.94288 0.0
H259 H 0.0797 0.2385 0.90947 0.0
H260 H 0.13465 0.25089 0.9085 0.0
H261 H 0.1182 0.16384 0.95324 0.0
H262 H 0.17325 0.21352 0.97576 0.0
H263 H 0.09174 0.36526 0.93123 0.0
H264 H 0.03129 0.34787 0.95897 0.0
C265 C 0.25084 0.96473 0.04951 0.0
C266 C 0.23911 0.99076 0.05263 0.0
C267 C 0.23517 0.99018 0.06456 0.0
C268 C 0.24477 0.96402 0.06805 0.0
N269 N 0.25483 0.94787 0.05909 0.0
Co270 Co 0.27096 0.90849 0.06039 0.0
N271 N 0.26174 0.90632 0.07771 0.0
C272 C 0.24854 0.92652 0.0842 0.0
C273 C 0.24344 0.91874 0.09567 0.0
C274 C 0.25391 0.89186 0.0966 0.0
C275 C 0.26515 0.88482 0.08562 0.0
N276 N 0.28796 0.86942 0.06186 0.0
C277 C 0.28995 0.8517 0.07134 0.0
C278 C 0.30431 0.82688 0.06847 0.0
C279 C 0.31134 0.82878 0.05678 0.0
C280 C 0.30114 0.85465 0.05317 0.0
N281 N 0.279 0.91024 0.04295 0.0
C282 C 0.29123 0.88968 0.03632 0.0
C283 C 0.29237 0.89605 0.0245 0.0
C284 C 0.27971 0.92207 0.02348 0.0
C285 C 0.27164 0.93015 0.03478 0.0
N286 N 0.30926 0.92532 0.06398 0.0
C287 C 0.3638 0.94963 0.06821 0.0
C288 C 0.35953 0.92942 0.05933 0.0
C289 C 0.33257 0.91774 0.05741 0.0
C290 C 0.34007 0.95746 0.07499 0.0
C291 C 0.31327 0.94505 0.07278 0.0
N292 N 0.23299 0.89182 0.05653 0.0
C293 C 0.20531 0.85762 0.04535 0.0
C294 C 0.1799 0.87153 0.04808 0.0
C295 C 0.18149 0.89532 0.05553 0.0
C296 C 0.20804 0.90486 0.05974 0.0
C297 C 0.2312 0.86792 0.04963 0.0
H298 H 0.20799 0.92309 0.06541 0.0
H299 H 0.24958 0.85649 0.04692 0.0
H300 H 0.33128 0.90271 0.05044 0.0
H301 H 0.29612 0.95176 0.0783 0.0
C302 C 0.24172 0.95283 0.07936 0.0
C303 C 0.2566 0.95668 0.03728 0.0
C304 C 0.27872 0.85741 0.0832 0.0
C305 C 0.30145 0.86466 0.04151 0.0
H306 H 0.23334 1.00812 0.04683 0.0
H307 H 0.2255 1.00647 0.06999 0.0
H308 H 0.23325 0.93114 0.10253 0.0
H309 H 0.25319 0.87891 0.10449 0.0
H310 H 0.30904 0.80912 0.07421 0.0
H311 H 0.32213 0.81295 0.05148 0.0
H312 H 0.30107 0.88317 0.01744 0.0
H313 H 0.27651 0.9337 0.01533 0.0
H314 H 0.37687 0.92286 0.05365 0.0
H315 H 0.34217 0.97285 0.08206 0.0
H316 H 0.2055 0.83929 0.03955 0.0
H317 H 0.16238 0.90659 0.05809 0.0
C318 C 0.85048 0.72216 0.94288 0.0
C319 C 0.82748 0.70484 0.94562 0.0
C320 C 0.83374 0.69187 0.95616 0.0
C321 C 0.86002 0.70207 0.95934 0.0
N322 N 0.87054 0.72095 0.95154 0.0
Co323 Co 0.90799 0.74045 0.95289 0.0
N324 N 0.91159 0.73111 0.96996 0.0
C325 C 0.89669 0.71106 0.97574 0.0
C326 C 0.90332 0.70981 0.98756 0.0
C327 C 0.92378 0.73025 0.98928 0.0
C328 C 0.92865 0.74278 0.97836 0.0
N329 N 0.94545 0.75975 0.95414 0.0
C330 C 0.95979 0.76889 0.96382 0.0
C331 C 0.98582 0.78067 0.96066 0.0
C332 C 0.98766 0.77885 0.94859 0.0
C333 C 0.96283 0.76602 0.94506 0.0
N334 N 0.90463 0.74982 0.93581 0.0
C335 C 0.92633 0.75741 0.9287 0.0
C336 C 0.91822 0.76133 0.91717 0.0
C337 C 0.88967 0.7556 0.91695 0.0
C338 C 0.88186 0.74853 0.92843 0.0
N339 N 0.88883 0.77611 0.95724 0.0
C340 C 0.86806 0.82697 0.9671 0.0
C341 C 0.88756 0.82745 0.95769 0.0
C342 C 0.89772 0.80176 0.9529 0.0
C343 C 0.85793 0.80052 0.97089 0.0
C344 C 0.86834 0.77554 0.96582 0.0
N345 N 0.9273 0.70443 0.94893 0.0
C346 C 0.92844 0.65946 0.93856 0.0
C347 C 0.95099 0.64987 0.94567 0.0
C348 C 0.96219 0.66884 0.95404 0.0
C349 C 0.95023 0.69585 0.95548 0.0
C350 C 0.91694 0.6867 0.94033 0.0
H351 H 0.95914 0.70949 0.96219 0.0
H352 H 0.89908 0.69304 0.93496 0.0
H353 H 0.91361 0.80264 0.94603 0.0
H354 H 0.86064 0.75568 0.96927 0.0
C355 C 0.87347 0.69773 0.97027 0.0
C356 C 0.85352 0.7377 0.93162 0.0
C357 C 0.95058 0.76448 0.97609 0.0
C358 C 0.95311 0.76381 0.93341 0.0
H359 H 0.80827 0.70168 0.94051 0.0
H360 H 0.82031 0.67741 0.96107 0.0
H361 H 0.89356 0.69655 0.99424 0.0
H362 H 0.93385 0.73534 0.99762 0.0
H363 H 1.00193 0.7894 0.96646 0.0
H364 H 1.00465 0.78681 0.94305 0.0
H365 H 0.93138 0.76798 0.90982 0.0
H366 H 0.87632 0.75587 0.90915 0.0
H367 H 0.89587 0.84741 0.95442 0.0
H368 H 0.84239 0.79906 0.97793 0.0
H369 H 0.91899 0.64567 0.93197 0.0
H370 H 0.97999 0.6628 0.95957 0.0
C371 C 0.76863 0.05201 0.05005 0.0
C372 C 0.77936 0.02564 0.0533 0.0
C373 C 0.77772 0.02421 0.06538 0.0
C374 C 0.766 0.0496 0.06883 0.0
N375 N 0.76026 0.06695 0.05968 0.0
Co376 Co 0.74216 0.10495 0.06083 0.0
N377 N 0.75179 0.10836 0.07789 0.0
C378 C 0.75896 0.08671 0.08507 0.0
C379 C 0.76374 0.0951 0.09652 0.0
C380 C 0.75902 0.12382 0.09661 0.0
C381 C 0.75157 0.13137 0.08515 0.0
N382 N 0.72374 0.14289 0.06209 0.0
C383 C 0.72555 0.16295 0.07072 0.0
C384 C 0.70835 0.18606 0.06811 0.0
C385 C 0.69507 0.18002 0.05759 0.0
C386 C 0.70488 0.15367 0.05434 0.0
N387 N 0.73267 0.1014 0.04376 0.0
C388 C 0.71311 0.11686 0.03794 0.0
C389 C 0.71164 0.11017 0.02613 0.0
C390 C 0.73137 0.08904 0.02445 0.0
C391 C 0.7437 0.08383 0.03539 0.0
N392 N 0.70555 0.08678 0.06486 0.0
C393 C 0.65061 0.06414 0.06867 0.0
C394 C 0.66893 0.0525 0.06015 0.0
C395 C 0.69612 0.06398 0.05842 0.0
C396 C 0.66096 0.08688 0.07551 0.0
C397 C 0.68838 0.09776 0.0735 0.0
N398 N 0.77839 0.12309 0.05647 0.0
C399 C 0.80368 0.15571 0.04383 0.0
C400 C 0.82996 0.14523 0.04772 0.0
C401 C 0.82979 0.12388 0.0564 0.0
C402 C 0.80381 0.11331 0.06073 0.0
C403 C 0.77836 0.14441 0.04827 0.0
H404 H 0.80429 0.09673 0.06732 0.0
H405 H 0.75869 0.15241 0.04472 0.0
H406 H 0.7092 0.05479 0.0516 0.0
H407 H 0.6954 0.11547 0.07881 0.0
C408 C 0.76437 0.05966 0.08045 0.0
C409 C 0.76447 0.06105 0.03773 0.0
C410 C 0.74156 0.15986 0.08184 0.0
C411 C 0.70027 0.14034 0.0434 0.0
H412 H 0.78726 0.00901 0.04756 0.0
H413 H 0.78505 1.00708 0.07098 0.0
H414 H 0.7704 0.08203 0.10389 0.0
H415 H 0.7603 0.13751 0.10429 0.0
H416 H 0.70548 0.20514 0.07332 0.0
H417 H 0.68063 0.1936 0.05274 0.0
H418 H 0.69865 0.12022 0.01943 0.0
H419 H 0.73607 0.07873 0.01613 0.0
H420 H 0.66207 0.03514 0.05454 0.0
H421 H 0.64797 0.09635 0.08236 0.0
H422 H 0.80256 0.17189 0.03705 0.0
H423 H 0.84955 0.11532 0.05979 0.0
C424 C 0.66318 0.72568 0.82009 0.0
C425 C 0.68943 0.71618 0.81613 0.0
C426 C 0.68821 0.71602 0.80404 0.0
C427 C 0.66139 0.72543 0.80129 0.0
N428 N 0.64537 0.73122 0.81086 0.0
Co429 Co 0.60561 0.74654 0.81057 0.0
N430 N 0.60097 0.73841 0.79333 0.0
C431 C 0.62212 0.73157 0.78581 0.0
C432 C 0.61303 0.72749 0.77441 0.0
C433 C 0.58439 0.73255 0.77466 0.0
C434 C 0.57761 0.73974 0.78623 0.0
N435 N 0.56578 0.76163 0.81042 0.0
C436 C 0.54525 0.76054 0.80194 0.0
C437 C 0.52088 0.77485 0.80558 0.0
C438 C 0.52631 0.78533 0.8166 0.0
C439 C 0.55356 0.77705 0.81908 0.0
N440 N 0.61037 0.75514 0.82778 0.0
C441 C 0.59277 0.77115 0.83442 0.0
C442 C 0.60083 0.77316 0.84604 0.0
C443 C 0.6253 0.75774 0.84683 0.0
C444 C 0.63101 0.74741 0.83556 0.0
N445 N 0.62057 0.78457 0.80642 0.0
C446 C 0.64656 0.83337 0.79652 0.0
C447 C 0.61871 0.82531 0.79348 0.0
C448 C 0.60648 0.80089 0.79831 0.0
C449 C 0.66006 0.81751 0.80546 0.0
C450 C 0.64651 0.7937 0.81044 0.0
N451 N 0.59083 0.70826 0.81431 0.0
C452 C 0.55812 0.67707 0.82456 0.0
C453 C 0.56773 0.65343 0.81807 0.0
C454 C 0.58947 0.65805 0.8098 0.0
C455 C 0.60064 0.6853 0.8081 0.0
C456 C 0.56997 0.70416 0.82259 0.0
H457 H 0.61697 0.68772 0.80154 0.0
H458 H 0.56198 0.72179 0.82767 0.0
H459 H 0.58595 0.79483 0.79503 0.0
H460 H 0.65771 0.78205 0.81717 0.0
C461 C 0.64966 0.72658 0.78996 0.0
C462 C 0.65735 0.73232 0.83256 0.0
C463 C 0.54933 0.7501 0.78979 0.0
C464 C 0.56729 0.78121 0.82983 0.0
H465 H 0.7078 0.71065 0.82142 0.0
H466 H 0.70482 0.70957 0.79798 0.0
H467 H 0.62565 0.72123 0.76684 0.0
H468 H 0.57021 0.73163 0.76713 0.0
H469 H 0.50145 0.77836 0.80068 0.0
H470 H 0.51203 0.79746 0.82215 0.0
H471 H 0.58984 0.78396 0.85315 0.0
H472 H 0.6377 0.75473 0.8548 0.0
H473 H 0.60633 0.83727 0.78715 0.0
H474 H 0.68141 0.82255 0.80836 0.0
H475 H 0.54164 0.67473 0.83117 0.0
H476 H 0.59747 0.64083 0.80439 0.0
C477 C 0.77062 0.46602 0.21314 0.0
C478 C 0.7834 0.49134 0.20968 0.0
C479 C 0.78651 0.49008 0.19772 0.0
C480 C 0.77573 0.46415 0.19455 0.0
N481 N 0.76578 0.44869 0.20373 0.0
Co482 Co 0.7495 0.40923 0.20291 0.0
N483 N 0.75735 0.40624 0.18548 0.0
C484 C 0.76988 0.42619 0.17865 0.0
C485 C 0.77398 0.41794 0.16716 0.0
C486 C 0.76354 0.39098 0.16657 0.0
C487 C 0.75336 0.38436 0.17777 0.0
N488 N 0.73254 0.36998 0.20194 0.0
C489 C 0.73012 0.35169 0.19265 0.0
C490 C 0.71636 0.32681 0.1959 0.0
C491 C 0.71012 0.32925 0.20765 0.0
C492 C 0.72021 0.35546 0.21091 0.0
N493 N 0.74262 0.41184 0.22042 0.0
C494 C 0.73065 0.39164 0.22731 0.0
C495 C 0.72982 0.39876 0.23907 0.0
C496 C 0.74235 0.42491 0.23976 0.0
C497 C 0.75021 0.43229 0.22835 0.0
N498 N 0.71096 0.42588 0.19969 0.0
C499 C 0.65653 0.45132 0.19655 0.0
C500 C 0.66108 0.4301 0.20497 0.0
C501 C 0.68797 0.4179 0.20637 0.0
C502 C 0.67973 0.45895 0.18942 0.0
C503 C 0.70652 0.44607 0.19112 0.0
N504 N 0.78776 0.3928 0.20642 0.0
C505 C 0.81635 0.35968 0.21771 0.0
C506 C 0.8415 0.37339 0.21444 0.0
C507 C 0.83931 0.3964 0.20663 0.0
C508 C 0.81244 0.40547 0.20263 0.0
C509 C 0.79012 0.36955 0.21364 0.0
H510 H 0.81205 0.42308 0.19666 0.0
H511 H 0.77199 0.35838 0.21679 0.0
H512 H 0.68949 0.40215 0.21302 0.0
H513 H 0.72338 0.45299 0.18549 0.0
C514 C 0.77755 0.45252 0.18326 0.0
C515 C 0.7647 0.45902 0.22551 0.0
C516 C 0.74042 0.35689 0.18061 0.0
C517 C 0.72043 0.3662 0.22247 0.0
H518 H 0.79057 0.50869 0.21521 0.0
H519 H 0.7965 0.50573 0.19208 0.0
H520 H 0.78362 0.43003 0.16008 0.0
H521 H 0.76366 0.37766 0.15876 0.0
H522 H 0.71151 0.30866 0.19036 0.0
H523 H 0.69991 0.31356 0.21321 0.0
H524 H 0.72129 0.38633 0.24629 0.0
H525 H 0.74547 0.43714 0.24777 0.0
H526 H 0.64385 0.42266 0.21052 0.0
H527 H 0.67748 0.47523 0.18273 0.0
H528 H 0.81668 0.34191 0.22379 0.0
H529 H 0.8582 0.40745 0.20364 0.0
C530 C 0.35282 0.29224 0.82129 0.0
C531 C 0.32977 0.31002 0.8193 0.0
C532 C 0.33482 0.32367 0.8088 0.0
C533 C 0.36062 0.31359 0.80496 0.0
N534 N 0.372 0.2942 0.81232 0.0
Co535 Co 0.40974 0.27569 0.81023 0.0
N536 N 0.4117 0.28635 0.79324 0.0
C537 C 0.39598 0.30653 0.78795 0.0
C538 C 0.40206 0.30934 0.77612 0.0
C539 C 0.42306 0.2898 0.77387 0.0
C540 C 0.42867 0.27618 0.78449 0.0
N541 N 0.44751 0.25734 0.80822 0.0
C542 C 0.46135 0.24948 0.79823 0.0
C543 C 0.48759 0.2375 0.80088 0.0
C544 C 0.49018 0.23791 0.81293 0.0
C545 C 0.46552 0.25013 0.81697 0.0
N546 N 0.40795 0.26502 0.82724 0.0
C547 C 0.43005 0.25612 0.83386 0.0
C548 C 0.42253 0.24947 0.84524 0.0
C549 C 0.39398 0.25483 0.8459 0.0
C550 C 0.38566 0.2649 0.83488 0.0
N551 N 0.39088 0.23987 0.80573 0.0
C552 C 0.36782 0.18889 0.79665 0.0
C553 C 0.38966 0.18852 0.80515 0.0
C554 C 0.40072 0.21416 0.80963 0.0
C555 C 0.35729 0.21545 0.79313 0.0
C556 C 0.36902 0.24046 0.79774 0.0
N557 N 0.42868 0.31191 0.81437 0.0
C558 C 0.42964 0.35631 0.82517 0.0
C559 C 0.452 0.36661 0.81813 0.0
C560 C 0.46297 0.34834 0.80944 0.0
C561 C 0.45115 0.32131 0.80773 0.0
C562 C 0.41845 0.32897 0.82321 0.0
H563 H 0.45977 0.30836 0.80074 0.0
H564 H 0.40108 0.32193 0.8287 0.0
H565 H 0.41771 0.21318 0.81603 0.0
H566 H 0.36092 0.26036 0.79449 0.0
C567 C 0.37305 0.31902 0.79392 0.0
C568 C 0.35711 0.27628 0.83236 0.0
C569 C 0.45136 0.25507 0.78617 0.0
C570 C 0.45647 0.25054 0.82872 0.0
H571 H 0.31151 0.31325 0.82496 0.0
H572 H 0.32106 0.33875 0.80439 0.0
H573 H 0.39181 0.32321 0.7698 0.0
H574 H 0.43317 0.28611 0.76542 0.0
H575 H 0.5033 0.22949 0.79473 0.0
H576 H 0.50748 0.22931 0.81813 0.0
H577 H 0.436 0.24088 0.85212 0.0
H578 H 0.38092 0.25185 0.85367 0.0
H579 H 0.39827 0.16859 0.8083 0.0
H580 H 0.34072 0.21706 0.78652 0.0
H581 H 0.4207 0.36928 0.83215 0.0
H582 H 0.48003 0.35516 0.80367 0.0
C583 C 0.2487 0.55182 0.2134 0.0
C584 C 0.23673 0.52587 0.21028 0.0
C585 C 0.23818 0.52402 0.19821 0.0
C586 C 0.25096 0.54879 0.19463 0.0
N587 N 0.25752 0.56617 0.20369 0.0
Co588 Co 0.27663 0.6037 0.20236 0.0
N589 N 0.26686 0.60687 0.18531 0.0
C590 C 0.25881 0.58525 0.17825 0.0
C591 C 0.25401 0.59347 0.16678 0.0
C592 C 0.25963 0.62203 0.16657 0.0
C593 C 0.26761 0.62967 0.17797 0.0
N594 N 0.29616 0.64107 0.20089 0.0
C595 C 0.29482 0.66093 0.19218 0.0
C596 C 0.3127 0.68365 0.19467 0.0
C597 C 0.32594 0.67754 0.20519 0.0
C598 C 0.31544 0.65155 0.20856 0.0
N599 N 0.28616 0.60043 0.21942 0.0
C600 C 0.30625 0.61549 0.22514 0.0
C601 C 0.30795 0.60878 0.23694 0.0
C602 C 0.28777 0.58809 0.23872 0.0
C603 C 0.2749 0.58323 0.22786 0.0
N604 N 0.31274 0.58451 0.19836 0.0
C605 C 0.36787 0.56179 0.19527 0.0
C606 C 0.34892 0.55032 0.20359 0.0
C607 C 0.32165 0.56183 0.20496 0.0
C608 C 0.35788 0.58399 0.18809 0.0
C609 C 0.33034 0.59495 0.18974 0.0
N610 N 0.24095 0.6229 0.20675 0.0
C611 C 0.21714 0.65702 0.21921 0.0
C612 C 0.19035 0.64572 0.21633 0.0
C613 C 0.1896 0.62363 0.20792 0.0
C614 C 0.21503 0.61283 0.20314 0.0
C615 C 0.2419 0.64518 0.21451 0.0
H616 H 0.21375 0.59562 0.19685 0.0
H617 H 0.26192 0.6536 0.21751 0.0
H618 H 0.30812 0.55284 0.21166 0.0
H619 H 0.32371 0.61254 0.1843 0.0
C620 C 0.25262 0.55852 0.18298 0.0
C621 C 0.25341 0.56102 0.22566 0.0
C622 C 0.27855 0.65795 0.18111 0.0
C623 C 0.31975 0.63843 0.21955 0.0
H624 H 0.22806 0.50984 0.21612 0.0
H625 H 0.22994 0.5071 0.19269 0.0
H626 H 0.24672 0.58041 0.1595 0.0
H627 H 0.25856 0.63555 0.15885 0.0
H628 H 0.31602 0.70253 0.1894 0.0
H629 H 0.3408 0.69089 0.20996 0.0
H630 H 0.32151 0.61845 0.24356 0.0
H631 H 0.28315 0.57773 0.24704 0.0
H632 H 0.35517 0.53268 0.20915 0.0
H633 H 0.37155 0.59363 0.18151 0.0
H634 H 0.21928 0.67475 0.22524 0.0
H635 H 0.16967 0.61397 0.2053 0.0
C636 C 0.66745 0.7912 0.4422 0.0
C637 C 0.69133 0.80748 0.44478 0.0
C638 C 0.68621 0.82061 0.4554 0.0
C639 C 0.65971 0.81149 0.45881 0.0
N640 N 0.64797 0.79317 0.45106 0.0
Co641 Co 0.61001 0.77482 0.4528 0.0
N642 N 0.60804 0.7839 0.46995 0.0
C643 C 0.62399 0.80339 0.47561 0.0
C644 C 0.61777 0.80525 0.48745 0.0
C645 C 0.59643 0.78583 0.48933 0.0
C646 C 0.59078 0.77321 0.47849 0.0
N647 N 0.57201 0.75668 0.45443 0.0
C648 C 0.55797 0.748 0.46425 0.0
C649 C 0.53162 0.73655 0.46133 0.0
C650 C 0.52912 0.73835 0.44929 0.0
C651 C 0.55395 0.75074 0.44552 0.0
N652 N 0.61182 0.76572 0.43565 0.0
C653 C 0.58944 0.75883 0.42878 0.0
C654 C 0.59665 0.75473 0.41715 0.0
C655 C 0.62536 0.75955 0.41663 0.0
C656 C 0.63414 0.76626 0.42803 0.0
N657 N 0.62839 0.7385 0.45671 0.0
C658 C 0.65049 0.68676 0.46516 0.0
C659 C 0.62844 0.68716 0.45677 0.0
C660 C 0.61794 0.71322 0.45256 0.0
C661 C 0.66179 0.71284 0.46886 0.0
C662 C 0.65045 0.73827 0.4646 0.0
N663 N 0.59158 0.81149 0.44926 0.0
C664 C 0.59137 0.85689 0.43927 0.0
C665 C 0.56946 0.86687 0.44663 0.0
C666 C 0.55803 0.84787 0.45492 0.0
C667 C 0.56924 0.82049 0.45606 0.0
C668 C 0.60205 0.82922 0.44071 0.0
H669 H 0.56026 0.8069 0.46274 0.0
H670 H 0.6194 0.82252 0.43513 0.0
H671 H 0.60082 0.71294 0.4462 0.0
H672 H 0.65898 0.7578 0.46807 0.0
C673 C 0.64723 0.81605 0.46991 0.0
C674 C 0.66312 0.7758 0.43097 0.0
C675 C 0.56774 0.75262 0.47643 0.0
C676 C 0.56291 0.75291 0.43378 0.0
H677 H 0.71043 0.80978 0.43954 0.0
H678 H 0.70056 0.83435 0.46025 0.0
H679 H 0.62814 0.81841 0.49402 0.0
H680 H 0.5861 0.78157 0.49769 0.0
H681 H 0.51573 0.7281 0.4673 0.0
H682 H 0.51167 0.73067 0.44391 0.0
H683 H 0.58283 0.74843 0.40995 0.0
H684 H 0.63819 0.75878 0.40869 0.0
H685 H 0.61925 0.66752 0.45354 0.0
H686 H 0.6786 0.71371 0.47541 0.0
H687 H 0.60098 0.87066 0.43273 0.0
H688 H 0.54063 0.85417 0.46062 0.0
C689 C 0.75067 0.46604 0.54955 0.0
C690 C 0.73938 0.49223 0.55273 0.0
C691 C 0.74116 0.494 0.5648 0.0
C692 C 0.75346 0.46896 0.56831 0.0
N693 N 0.75944 0.45148 0.55922 0.0
Co694 Co 0.77778 0.41359 0.56045 0.0
N695 N 0.76863 0.41065 0.57758 0.0
C696 C 0.76108 0.4324 0.58466 0.0
C697 C 0.7563 0.42429 0.59614 0.0
C698 C 0.76146 0.39567 0.59636 0.0
C699 C 0.76931 0.38791 0.58496 0.0
N700 N 0.79634 0.37572 0.5618 0.0
C701 C 0.7949 0.35592 0.57052 0.0
C702 C 0.81222 0.33285 0.56796 0.0
C703 C 0.82509 0.33859 0.55734 0.0
C704 C 0.815 0.36476 0.554 0.0
N705 N 0.78686 0.41669 0.54335 0.0
C706 C 0.80639 0.40118 0.53752 0.0
C707 C 0.80783 0.40778 0.52571 0.0
C708 C 0.78809 0.4289 0.52403 0.0
C709 C 0.77576 0.43412 0.53497 0.0
N710 N 0.81444 0.43208 0.56427 0.0
C711 C 0.86925 0.45547 0.56775 0.0
C712 C 0.85045 0.4668 0.55935 0.0
C713 C 0.82337 0.45494 0.55777 0.0
C714 C 0.85949 0.43257 0.57462 0.0
C715 C 0.8321 0.42134 0.5728 0.0
N716 N 0.74147 0.39521 0.55629 0.0
C717 C 0.71589 0.36261 0.54366 0.0
C718 C 0.68968 0.37338 0.5475 0.0
C719 C 0.69005 0.39476 0.55619 0.0
C720 C 0.7161 0.40515 0.56055 0.0
C721 C 0.74133 0.37376 0.54811 0.0
H722 H 0.71573 0.42178 0.56712 0.0
H723 H 0.76093 0.3656 0.54457 0.0
H724 H 0.80994 0.46392 0.55102 0.0
H725 H 0.82548 0.40359 0.57815 0.0
C726 C 0.75524 0.4592 0.57995 0.0
C727 C 0.75493 0.45683 0.53727 0.0
C728 C 0.77967 0.35943 0.5818 0.0
C729 C 0.81938 0.37785 0.54302 0.0
H730 H 0.73097 0.50848 0.54695 0.0
H731 H 0.73346 0.51107 0.57036 0.0
H732 H 0.74924 0.43746 0.60342 0.0
H733 H 0.76003 0.38217 0.60407 0.0
H734 H 0.81554 0.31407 0.5733 0.0
H735 H 0.83956 0.32498 0.55251 0.0
H736 H 0.82085 0.39773 0.51902 0.0
H737 H 0.78339 0.43926 0.51572 0.0
H738 H 0.85685 0.48425 0.55371 0.0
H739 H 0.87291 0.4233 0.58138 0.0
H740 H 0.71689 0.34635 0.53689 0.0
H741 H 0.67036 0.40351 0.55957 0.0
C742 C 0.36021 0.22141 0.44242 0.0
C743 C 0.34366 0.19694 0.4433 0.0
C744 C 0.35004 0.18441 0.45393 0.0
C745 C 0.37117 0.20083 0.45873 0.0
N746 N 0.37853 0.22275 0.45175 0.0
Co747 Co 0.41429 0.24479 0.45372 0.0
N748 N 0.41666 0.23609 0.47083 0.0
C749 C 0.40327 0.21443 0.47622 0.0
C750 C 0.40912 0.21315 0.48811 0.0
C751 C 0.42764 0.23519 0.49026 0.0
C752 C 0.4323 0.24862 0.4795 0.0
N753 N 0.4502 0.26646 0.45551 0.0
C754 C 0.4632 0.27654 0.46536 0.0
C755 C 0.48897 0.28937 0.46249 0.0
C756 C 0.49218 0.28684 0.45049 0.0
C757 C 0.46833 0.27271 0.44669 0.0
N758 N 0.41227 0.25328 0.43658 0.0
C759 C 0.43508 0.25884 0.42977 0.0
C760 C 0.42933 0.25723 0.41792 0.0
C761 C 0.40108 0.25021 0.41722 0.0
C762 C 0.39076 0.2491 0.42874 0.0
N763 N 0.39221 0.27897 0.45754 0.0
C764 C 0.36506 0.32789 0.46643 0.0
C765 C 0.3869 0.32999 0.45796 0.0
C766 C 0.40004 0.30527 0.45356 0.0
C767 C 0.35652 0.3006 0.46991 0.0
C768 C 0.3702 0.27664 0.46538 0.0
N769 N 0.43635 0.20997 0.45027 0.0
C770 C 0.44101 0.16509 0.44003 0.0
C771 C 0.463 0.15659 0.44764 0.0
C772 C 0.47222 0.17611 0.45622 0.0
C773 C 0.45883 0.20258 0.45733 0.0
C774 C 0.42807 0.19171 0.44147 0.0
H775 H 0.46621 0.21672 0.46418 0.0
H776 H 0.41067 0.19699 0.43569 0.0
H777 H 0.41713 0.30741 0.44724 0.0
H778 H 0.3637 0.25615 0.46866 0.0
C779 C 0.38345 0.19776 0.47 0.0
C780 C 0.36145 0.24065 0.43199 0.0
C781 C 0.45376 0.27109 0.47756 0.0
C782 C 0.46081 0.26745 0.4349 0.0
H783 H 0.33003 0.18752 0.43668 0.0
H784 H 0.34091 0.16517 0.45755 0.0
H785 H 0.40064 0.19828 0.4945 0.0
H786 H 0.43713 0.24034 0.49871 0.0
H787 H 0.50432 0.29876 0.46847 0.0
H788 H 0.50968 0.29463 0.44519 0.0
H789 H 0.44393 0.26046 0.41065 0.0
H790 H 0.38973 0.24554 0.40913 0.0
H791 H 0.394 0.35054 0.45483 0.0
H792 H 0.34012 0.29764 0.47651 0.0
H793 H 0.43301 0.15085 0.43327 0.0
H794 H 0.48955 0.1709 0.46214 0.0
C795 C 0.26182 0.54669 0.55233 0.0
C796 C 0.27459 0.52138 0.55576 0.0
C797 C 0.28582 0.5259 0.56675 0.0
C798 C 0.27922 0.55353 0.56944 0.0
N799 N 0.2641 0.56674 0.56094 0.0
Co800 Co 0.25052 0.60698 0.56147 0.0
N801 N 0.25936 0.61054 0.57869 0.0
C802 C 0.27586 0.59268 0.58498 0.0
C803 C 0.27948 0.60082 0.59652 0.0
C804 C 0.26448 0.62551 0.59764 0.0
C805 C 0.25235 0.63103 0.58667 0.0
N806 N 0.23686 0.6472 0.56213 0.0
C807 C 0.23119 0.66436 0.57155 0.0
C808 C 0.2218 0.69085 0.56784 0.0
C809 C 0.2223 0.69054 0.55574 0.0
C810 C 0.23169 0.66392 0.55271 0.0
N811 N 0.2421 0.60355 0.5442 0.0
C812 C 0.23648 0.62535 0.53685 0.0
C813 C 0.2327 0.6171 0.52532 0.0
C814 C 0.23665 0.58829 0.52532 0.0
C815 C 0.24265 0.58057 0.53689 0.0
N816 N 0.21174 0.59347 0.56513 0.0
C817 C 0.1564 0.57127 0.56852 0.0
C818 C 0.16152 0.59348 0.56054 0.0
C819 C 0.18906 0.6042 0.55901 0.0
C820 C 0.17975 0.56088 0.57498 0.0
C821 C 0.2071 0.57231 0.5732 0.0
N822 N 0.28916 0.62053 0.55747 0.0
C823 C 0.3257 0.65674 0.55814 0.0
C824 C 0.34092 0.64321 0.54905 0.0
C825 C 0.33014 0.61755 0.54466 0.0
C826 C 0.30449 0.6067 0.54894 0.0
C827 C 0.30011 0.64491 0.56231 0.0
H828 H 0.29676 0.58751 0.54496 0.0
H829 H 0.28887 0.65595 0.56923 0.0
H830 H 0.19197 0.62086 0.55262 0.0
H831 H 0.22453 0.56368 0.57823 0.0
C832 C 0.28475 0.56692 0.58018 0.0
C833 C 0.25181 0.55184 0.54023 0.0
C834 C 0.23646 0.65714 0.58403 0.0
C835 C 0.23254 0.65281 0.54126 0.0
H836 H 0.27649 0.50199 0.55067 0.0
H837 H 0.29731 0.51079 0.57215 0.0
H838 H 0.29119 0.58983 0.60337 0.0
H839 H 0.2631 0.63822 0.6056 0.0
H840 H 0.21551 0.70866 0.57329 0.0
H841 H 0.21587 0.70749 0.54985 0.0
H842 H 0.22753 0.63039 0.51782 0.0
H843 H 0.23593 0.57459 0.51763 0.0
H844 H 0.1445 0.60213 0.55519 0.0
H845 H 0.17699 0.54405 0.5814 0.0
H846 H 0.33339 0.67642 0.56196 0.0
H847 H 0.34085 0.60633 0.53758 0.0
H848 H 0.11635 0.38172 0.29269 0.0
H849 H 0.13313 0.42349 0.28184 0.0
H850 H 0.21887 0.39113 0.28301 0.0
H851 H 0.20244 0.34988 0.29419 0.0
H852 H 0.21928 0.44721 0.28641 0.0
H853 H 0.17586 0.38343 0.25827 0.0
H854 H 0.13684 0.35401 0.25029 0.0
H855 H 0.08383 0.42794 0.24739 0.0
H856 H 0.12243 0.45775 0.25551 0.0
H857 H 0.28287 0.52173 0.23848 0.0
H858 H 0.26382 0.48688 0.2525 0.0
H859 H 0.17998 0.52278 0.24828 0.0
H860 H 0.19913 0.55727 0.23403 0.0
H861 H 0.1764 0.46738 0.24722 0.0
H862 H 0.22086 0.53188 0.27417 0.0
H863 H 0.25978 0.56125 0.28223 0.0
H864 H 0.31057 0.48655 0.28752 0.0
H865 H 0.27211 0.45674 0.27933 0.0
C866 C 0.13887 0.38371 0.29084 0.0
C867 C 0.15795 0.36218 0.29427 0.0
C868 C 0.14842 0.40753 0.2845 0.0
C869 C 0.17726 0.41036 0.28138 0.0
C870 C 0.19651 0.38948 0.28521 0.0
C871 C 0.187 0.36571 0.29154 0.0
C872 C 0.18737 0.43445 0.27381 0.0
C873 C 0.21005 0.45145 0.2778 0.0
C874 C 0.17499 0.44058 0.26266 0.0
C875 C 0.15193 0.42276 0.25761 0.0
C876 C 0.15582 0.39338 0.25599 0.0
C877 C 0.13379 0.37664 0.25144 0.0
C878 C 0.10784 0.38908 0.24837 0.0
C879 C 0.10392 0.41832 0.24979 0.0
C880 C 0.12587 0.43515 0.25436 0.0
C881 C 0.26052 0.52255 0.24079 0.0
C882 C 0.24256 0.54258 0.23542 0.0
C883 C 0.24958 0.50259 0.24879 0.0
C884 C 0.22042 0.50229 0.25165 0.0
C885 C 0.20252 0.52253 0.24631 0.0
C886 C 0.21347 0.5424 0.23825 0.0
C887 C 0.20849 0.48011 0.25978 0.0
C888 C 0.1855 0.46338 0.25588 0.0
C889 C 0.22057 0.47427 0.27101 0.0
C890 C 0.24367 0.4921 0.27604 0.0
C891 C 0.2404 0.52173 0.27698 0.0
C892 C 0.26237 0.53845 0.28158 0.0
C893 C 0.28765 0.52578 0.28537 0.0
C894 C 0.29098 0.49634 0.28458 0.0
C895 C 0.26909 0.47951 0.27997 0.0
H896 H 0.30464 0.53877 0.28893 0.0
H897 H 0.0908 0.37608 0.24486 0.0
H898 H 0.49455 0.73108 0.78726 0.0
H899 H 0.45773 0.7494 0.77398 0.0
H900 H 0.51935 0.80563 0.75803 0.0
H901 H 0.55548 0.78873 0.77194 0.0
H902 H 0.47553 0.83421 0.76051 0.0
H903 H 0.48889 0.74232 0.74391 0.0
H904 H 0.49313 0.69011 0.74354 0.0
H905 H 0.4072 0.6821 0.75597 0.0
H906 H 0.40256 0.73429 0.75657 0.0
H907 H 0.37695 0.86017 0.71097 0.0
H908 H 0.41755 0.84009 0.72169 0.0
H909 H 0.36319 0.82051 0.75118 0.0
H910 H 0.32308 0.84223 0.74109 0.0
H911 H 0.40494 0.77329 0.73994 0.0
H912 H 0.39639 0.86812 0.75782 0.0
H913 H 0.39417 0.92038 0.75645 0.0
H914 H 0.47507 0.9216 0.73883 0.0
H915 H 0.47752 0.86926 0.73994 0.0
C916 C 0.50021 0.74708 0.78079 0.0
C917 C 0.52792 0.75826 0.78055 0.0
C918 C 0.4792 0.75749 0.77313 0.0
C919 C 0.48559 0.77873 0.76475 0.0
C920 C 0.5136 0.78932 0.76434 0.0
C921 C 0.53441 0.77939 0.7722 0.0
C922 C 0.46288 0.79092 0.75689 0.0
C923 C 0.46051 0.82067 0.75589 0.0
C924 C 0.44285 0.77365 0.75078 0.0
C925 C 0.44547 0.74224 0.75038 0.0
C926 C 0.47095 0.72944 0.74664 0.0
C927 C 0.47342 0.69984 0.74638 0.0
C928 C 0.45047 0.6828 0.74975 0.0
C929 C 0.42497 0.69533 0.75337 0.0
C930 C 0.4224 0.72492 0.75366 0.0
C931 C 0.37352 0.85203 0.71979 0.0
C932 C 0.34623 0.85278 0.725 0.0
C933 C 0.39682 0.84028 0.72587 0.0
C934 C 0.39332 0.82857 0.73719 0.0
C935 C 0.36631 0.82911 0.74239 0.0
C936 C 0.34322 0.84139 0.73649 0.0
C937 C 0.41779 0.81615 0.74378 0.0
C938 C 0.42034 0.7865 0.74451 0.0
C939 C 0.43835 0.8334 0.74941 0.0
C940 C 0.43694 0.8648 0.74881 0.0
C941 C 0.41354 0.87952 0.75353 0.0
C942 C 0.41228 0.90915 0.75283 0.0
C943 C 0.43442 0.92429 0.74752 0.0
C944 C 0.45791 0.90984 0.74292 0.0
C945 C 0.45924 0.8802 0.74358 0.0
H946 H 0.43341 0.94723 0.74699 0.0
H947 H 0.45242 0.65989 0.74955 0.0
H948 H 0.80595 0.45199 0.24238 0.0
H949 H 0.82443 0.48791 0.25631 0.0
H950 H 0.76281 0.54818 0.24346 0.0
H951 H 0.74374 0.51212 0.22985 0.0
H952 H 0.83577 0.55664 0.24428 0.0
H953 H 0.74358 0.54225 0.26514 0.0
H954 H 0.70908 0.51053 0.27494 0.0
H955 H 0.7743 0.48143 0.2986 0.0
H956 H 0.80928 0.5127 0.2888 0.0
H957 H 0.85413 0.68495 0.27413 0.0
H958 H 0.83552 0.64376 0.26391 0.0
H959 H 0.85244 0.59179 0.29449 0.0
H960 H 0.86887 0.63381 0.30529 0.0
H961 H 0.80556 0.5744 0.28566 0.0
H962 H 0.89566 0.59156 0.26831 0.0
H963 H 0.93433 0.61902 0.259 0.0
H964 H 0.8805 0.6372 0.22928 0.0
H965 H 0.84136 0.61019 0.23848 0.0
C966 C 0.79598 0.47271 0.24276 0.0
C967 C 0.77347 0.47935 0.23505 0.0
C968 C 0.80659 0.49321 0.25066 0.0
C969 C 0.79497 0.52071 0.25092 0.0
C970 C 0.77198 0.52707 0.24345 0.0
C971 C 0.76109 0.50649 0.23571 0.0
C972 C 0.808 0.54346 0.25833 0.0
C973 C 0.82903 0.56078 0.25329 0.0
C974 C 0.80011 0.54801 0.27023 0.0
C975 C 0.77907 0.52948 0.27615 0.0
C976 C 0.75061 0.52884 0.27234 0.0
C977 C 0.73096 0.51102 0.27792 0.0
C978 C 0.73952 0.49389 0.28736 0.0
C979 C 0.76772 0.49465 0.29127 0.0
C980 C 0.78745 0.51242 0.28572 0.0
C981 C 0.85344 0.66504 0.27889 0.0
C982 C 0.86296 0.66319 0.2907 0.0
C983 C 0.84323 0.64114 0.27287 0.0
C984 C 0.84308 0.61424 0.27825 0.0
C985 C 0.85244 0.61216 0.29004 0.0
C986 C 0.86219 0.6363 0.29619 0.0
C987 C 0.83288 0.58863 0.27151 0.0
C988 C 0.81253 0.57049 0.27667 0.0
C989 C 0.84193 0.58291 0.25976 0.0
C990 C 0.86549 0.59901 0.25413 0.0
C991 C 0.89201 0.60156 0.25982 0.0
C992 C 0.91402 0.61703 0.25456 0.0
C993 C 0.90985 0.62989 0.24357 0.0
C994 C 0.88369 0.62724 0.23779 0.0
C995 C 0.86159 0.61182 0.24302 0.0
H996 H 0.92692 0.64187 0.23951 0.0
H997 H 0.72427 0.48011 0.29167 0.0
H998 H 0.45348 0.20244 0.77619 0.0
H999 H 0.4888 0.18441 0.76206 0.0
H1000 H 0.5271 0.26768 0.76028 0.0
H1001 H 0.49126 0.28574 0.77418 0.0
H1002 H 0.52877 0.2435 0.73901 0.0
H1003 H 0.55401 0.21481 0.77835 0.0
H1004 H 0.54616 0.19255 0.79781 0.0
H1005 H 0.53195 0.11187 0.78103 0.0
H1006 H 0.53943 0.13373 0.76145 0.0
H1007 H 0.66701 0.19972 0.71921 0.0
H1008 H 0.62602 0.21959 0.72969 0.0
H1009 H 0.58797 0.13628 0.73143 0.0
H1010 H 0.62887 0.11631 0.72101 0.0
H1011 H 0.58552 0.16071 0.75236 0.0
H1012 H 0.56233 0.19007 0.71281 0.0
H1013 H 0.57101 0.21318 0.69358 0.0
H1014 H 0.58261 0.29349 0.711 0.0
H1015 H 0.57436 0.27079 0.73035 0.0
C1016 C 0.46903 0.21696 0.77251 0.0
C1017 C 0.4695 0.2455 0.77611 0.0
C1018 C 0.48939 0.20664 0.76455 0.0
C1019 C 0.51104 0.22453 0.76022 0.0
C1020 C 0.51071 0.2534 0.76345 0.0
C1021 C 0.4902 0.26376 0.77135 0.0
C1022 C 0.53488 0.21286 0.75291 0.0
C1023 C 0.54134 0.22556 0.74199 0.0
C1024 C 0.55121 0.18921 0.75666 0.0
C1025 C 0.54702 0.17596 0.76843 0.0
C1026 C 0.54906 0.19236 0.77881 0.0
C1027 C 0.5447 0.17981 0.78986 0.0
C1028 C 0.53847 0.15084 0.79065 0.0
C1029 C 0.53673 0.13432 0.7804 0.0
C1030 C 0.54106 0.14677 0.76932 0.0
C1031 C 0.64967 0.18569 0.72162 0.0
C1032 C 0.65137 0.15635 0.71927 0.0
C1033 C 0.6262 0.1971 0.72764 0.0
C1034 C 0.60367 0.17952 0.73134 0.0
C1035 C 0.60505 0.15034 0.72875 0.0
C1036 C 0.62852 0.13892 0.72279 0.0
C1037 C 0.57932 0.19114 0.73838 0.0
C1038 C 0.57286 0.17852 0.74932 0.0
C1039 C 0.56317 0.21496 0.73466 0.0
C1040 C 0.56798 0.22867 0.72303 0.0
C1041 C 0.56693 0.21262 0.71254 0.0
C1042 C 0.57174 0.22565 0.70162 0.0
C1043 C 0.57743 0.25477 0.70107 0.0
C1044 C 0.57823 0.27093 0.71144 0.0
C1045 C 0.57346 0.258 0.72238 0.0
H1046 H 0.58115 0.26482 0.69261 0.0
H1047 H 0.53507 0.14117 0.79921 0.0
H1048 H 0.20428 0.95934 0.02698 0.0
H1049 H 0.18649 0.99552 0.01319 0.0
H1050 H 0.26953 0.03466 0.01257 0.0
H1051 H 0.28715 0.99847 0.02643 0.0
H1052 H 0.22878 0.07358 0.01635 0.0
H1053 H 0.24333 0.99794 0.98857 0.0
H1054 H 0.23823 0.94935 0.98067 0.0
H1055 H 0.14762 0.96 0.97877 0.0
H1056 H 0.15214 1.00854 0.98683 0.0
H1057 H 0.20301 0.17356 0.97125 0.0
H1058 H 0.22169 0.13268 0.98201 0.0
H1059 H 0.13813 0.09488 0.98243 0.0
H1060 H 0.11915 0.13594 0.97168 0.0
H1061 H 0.17874 0.05473 0.97851 0.0
H1062 H 0.16334 0.12896 1.00666 0.0
H1063 H 0.16729 0.17732 0.01493 0.0
H1064 H 0.25816 0.16886 0.01661 0.0
H1065 H 0.25478 0.12057 0.0082 0.0
C1066 C 0.2188 0.97533 0.02365 0.0
C1067 C 0.24714 0.97597 0.02758 0.0
C1068 C 0.20866 0.99603 0.01579 0.0
C1069 C 0.22668 0.01784 0.01173 0.0
C1070 C 0.2552 0.0181 0.01553 0.0
C1071 C 0.26534 0.99733 0.02336 0.0
C1072 C 0.21543 0.04121 1.00407 0.0
C1073 C 0.21828 0.06942 0.00798 0.0
C1074 C 0.20083 0.03591 0.99331 0.0
C1075 C 0.19806 1.00679 0.98841 0.0
C1076 C 0.2223 0.98985 0.98656 0.0
C1077 C 0.21951 0.96232 0.98204 0.0
C1078 C 0.19261 0.95157 0.97925 0.0
C1079 C 0.16844 0.96835 0.98095 0.0
C1080 C 0.17111 0.99588 0.98548 0.0
C1081 C 0.18852 0.15659 0.97362 0.0
C1082 C 0.15944 0.15833 0.97068 0.0
C1083 C 0.19929 0.13314 0.97978 0.0
C1084 C 0.18128 0.1108 0.98325 0.0
C1085 C 0.15249 0.11182 0.97989 0.0
C1086 C 0.14167 0.13532 0.9737 0.0
C1087 C 0.19238 0.08706 0.99075 0.0
C1088 C 0.18938 0.05884 0.98685 0.0
C1089 C 0.2067 0.09228 1.00157 0.0
C1090 C 0.20883 0.12126 1.00669 0.0
C1091 C 0.18419 0.1375 0.00871 0.0
C1092 C 0.18632 0.16488 0.01343 0.0
C1093 C 0.21297 0.17619 0.01626 0.0
C1094 C 0.23754 0.16009 0.0144 0.0
C1095 C 0.23552 0.13271 0.00966 0.0
H1096 H 0.21458 0.19739 0.01992 0.0
H1097 H 0.1905 0.93025 0.97575 0.0
H1098 H 0.13585 0.90354 0.03908 0.0
H1099 H 0.0937 0.88665 0.02838 0.0
H1100 H 0.12001 0.79997 0.03402 0.0
H1101 H 0.16185 0.81661 0.04479 0.0
H1102 H 0.107 0.80871 0.01122 0.0
H1103 H 0.06292 0.82898 0.04874 0.0
H1104 H 0.05006 0.8589 0.06582 0.0
H1105 H 1.00704 0.91724 0.04278 0.0
H1106 H 0.01997 0.88784 0.02553 0.0
H1107 H 0.9876 0.73502 0.99007 0.0
H1108 H 0.02291 0.75439 1.00386 0.0
H1109 H 0.99221 0.83911 0.99692 0.0
H1110 H 0.95634 0.81952 0.9833 0.0
H1111 H 1.00667 0.83337 0.02014 0.0
H1112 H 0.04983 0.81421 0.9828 0.0
H1113 H 0.06217 0.78519 0.96539 0.0
H1114 H 0.10745 0.72667 0.98759 0.0
H1115 H 0.09493 0.75508 1.00518 0.0
C1116 C 0.13237 0.88087 0.03826 0.0
C1117 C 0.15246 0.86149 0.04275 0.0
C1118 C 0.10825 0.87122 0.03209 0.0
C1119 C 0.10358 0.84197 0.03034 0.0
C1120 C 0.12317 0.82263 0.03514 0.0
C1121 C 0.14717 0.83222 0.04129 0.0
C1122 C 0.07918 0.83135 0.02306 0.0
C1123 C 0.08506 0.81382 0.0133 0.0
C1124 C 0.05052 0.83871 0.02547 0.0
C1125 C 0.04267 0.85636 0.03583 0.0
C1126 C 0.05092 0.84831 0.0473 0.0
C1127 C 0.04358 0.86515 0.05702 0.0
C1128 C 0.02781 0.89 0.05539 0.0
C1129 C 0.01928 0.89801 0.04403 0.0
C1130 C 0.0266 0.88125 0.03428 0.0
C1131 C 0.98788 0.75768 0.99177 0.0
C1132 C 0.96896 0.77576 0.9858 0.0
C1133 C 1.00825 0.7688 0.99955 0.0
C1134 C 0.01054 0.7983 1.00135 0.0
C1135 C 0.9909 0.81631 0.99572 0.0
C1136 C 0.97041 0.80514 0.98796 0.0
C1137 C 0.03454 0.81033 0.00847 0.0
C1138 C 0.02863 0.82824 0.01811 0.0
C1139 C 0.06326 0.80356 1.00591 0.0
C1140 C 0.07122 0.78665 0.99533 0.0
C1141 C 0.06226 0.79505 0.98398 0.0
C1142 C 0.06929 0.77872 0.97408 0.0
C1143 C 0.08554 0.75407 0.97538 0.0
C1144 C 0.09484 0.74575 0.98659 0.0
C1145 C 0.08779 0.76197 0.99654 0.0
H1146 H 0.09096 0.74145 0.96771 0.0
H1147 H 0.02214 0.90301 0.06292 0.0
H1148 H 0.85034 0.87803 0.95767 0.0
H1149 H 0.83339 0.92017 0.96838 0.0
H1150 H 0.84961 0.87795 1.00155 0.0
H1151 H 0.86564 0.83579 0.99091 0.0
H1152 H 0.80205 0.90212 1.00348 0.0
H1153 H 0.89287 0.93379 0.98976 0.0
H1154 H 0.93044 0.94391 0.97515 0.0
H1155 H 0.87504 1.00232 0.95728 0.0
H1156 H 0.837 0.99226 0.97171 0.0
H1157 H 0.81955 0.05207 0.03118 0.0
H1158 H 0.83793 0.01505 0.0179 0.0
H1159 H 0.75196 0.98967 0.00963 0.0
H1160 H 0.73374 0.02594 0.02322 0.0
H1161 H 0.83523 1.0002 0.99526 0.0
H1162 H 0.74806 0.91806 0.00759 0.0
H1163 H 0.71568 0.90778 0.02422 0.0
H1164 H 0.77325 0.94903 0.04824 0.0
H1165 H 0.80617 0.95908 0.03181 0.0
C1166 C 0.85044 0.87788 0.96725 0.0
C1167 C 0.85915 0.85345 0.97342 0.0
C1168 C 0.84081 0.90204 0.97339 0.0
C1169 C 0.84026 0.90254 0.98585 0.0
C1170 C 0.84948 0.87824 0.99198 0.0
C1171 C 0.85869 0.85407 0.98586 0.0
C1172 C 0.82951 0.92785 0.9926 0.0
C1173 C 0.80932 0.92352 1.0016 0.0
C1174 C 0.83918 0.95594 0.99043 0.0
C1175 C 0.86199 0.96204 0.98174 0.0
C1176 C 0.88863 0.94863 0.98266 0.0
C1177 C 0.91002 0.95438 0.97442 0.0
C1178 C 0.9051 0.97368 0.96527 0.0
C1179 C 0.8788 0.98733 0.96436 0.0
C1180 C 0.85732 0.98163 0.97257 0.0
C1181 C 0.80465 0.03893 0.02631 0.0
C1182 C 0.77524 0.04214 0.02808 0.0
C1183 C 0.81514 0.01777 0.01872 0.0
C1184 C 0.79641 0.99923 0.01282 0.0
C1185 C 0.76694 1.00339 0.01417 0.0
C1186 C 0.75648 0.02436 0.02182 0.0
C1187 C 0.80764 0.97436 1.00598 0.0
C1188 C 0.82786 0.97877 0.99701 0.0
C1189 C 0.79875 0.94618 0.00844 0.0
C1190 C 0.77941 0.93958 0.01843 0.0
C1191 C 0.75386 0.92479 0.01643 0.0
C1192 C 0.73542 0.91901 0.02582 0.0
C1193 C 0.74236 0.92782 0.03727 0.0
C1194 C 0.76785 0.94228 0.03937 0.0
C1195 C 0.78641 0.94802 0.03002 0.0
H1196 H 0.72802 0.92339 0.04452 0.0
H1197 H 0.92169 0.97811 0.9589 0.0
H1198 H 0.84406 0.20024 0.04225 0.0
H1199 H 0.88584 0.21738 0.03158 0.0
H1200 H 0.91904 0.13207 0.03013 0.0
H1201 H 0.87718 0.11474 0.04089 0.0
H1202 H 0.96159 0.16942 0.03394 0.0
H1203 H 0.88503 0.16134 1.0063 0.0
H1204 H 0.8366 0.16907 0.99856 0.0
H1205 H 0.85101 0.25918 0.99816 0.0
H1206 H 0.89941 0.25201 1.00607 0.0
H1207 H 0.05614 0.19461 0.98486 0.0
H1208 H 0.01976 0.17723 0.9987 0.0
H1209 H 0.98554 0.262 1.0015 0.0
H1210 H 0.02178 0.2792 0.98761 0.0
H1211 H 0.9442 0.22398 0.99714 0.0
H1212 H 0.02203 0.23109 0.0245 0.0
H1213 H 0.07067 0.22213 0.03175 0.0
H1214 H 0.05428 0.13236 0.032 0.0
H1215 H 1.00564 0.14075 0.02459 0.0
C1216 C 0.86025 0.18507 0.03969 0.0
C1217 C 0.85701 0.15602 0.04234 0.0
C1218 C 0.8842 0.19493 0.03358 0.0
C1219 C 0.90547 0.17599 0.0298 0.0
C1220 C 0.90296 0.14715 0.03289 0.0
C1221 C 0.879 0.13726 0.03908 0.0
C1222 C 0.92957 0.1862 0.02226 0.0
C1223 C 0.95777 0.18106 0.02582 0.0
C1224 C 0.92479 0.20176 0.01171 0.0
C1225 C 0.89575 0.20615 1.00689 0.0
C1226 C 0.8778 0.18282 1.00465 0.0
C1227 C 0.85036 0.18709 1.00022 0.0
C1228 C 0.84071 0.2146 0.9979 0.0
C1229 C 0.85851 0.23788 0.99998 0.0
C1230 C 0.88595 0.23373 1.00443 0.0
C1231 C 0.04125 0.20956 0.98869 0.0
C1232 C 0.04208 0.23831 0.9854 0.0
C1233 C 0.02043 0.19965 0.99657 0.0
C1234 C 0.99992 0.21831 1.00125 0.0
C1235 C 1.00111 0.24717 0.99807 0.0
C1236 C 0.02197 0.25707 0.99023 0.0
C1237 C 0.97625 0.20754 0.00889 0.0
C1238 C 0.94807 0.21246 1.00529 0.0
C1239 C 0.98111 0.19163 0.01933 0.0
C1240 C 0.01027 0.18654 0.02388 0.0
C1241 C 0.02886 0.20942 0.02601 0.0
C1242 C 0.05643 0.20445 0.03017 0.0
C1243 C 0.06559 0.17669 0.03231 0.0
C1244 C 0.04717 0.15385 0.03033 0.0
C1245 C 0.01959 0.1587 0.02616 0.0
H1246 H 0.08694 0.17288 0.03552 0.0
H1247 H 0.81947 0.21787 0.99447 0.0
H1248 H 0.69105 0.86828 0.80409 0.0
H1249 H 0.71588 0.90493 0.79298 0.0
H1250 H 0.65936 0.89148 0.76343 0.0
H1251 H 0.63692 0.85269 0.77377 0.0
H1252 H 0.70543 0.89988 0.75452 0.0
H1253 H 0.65692 0.95157 0.78512 0.0
H1254 H 0.64356 0.96436 0.80553 0.0
H1255 H 0.73077 0.98377 0.81353 0.0
H1256 H 0.74468 0.97078 0.79319 0.0
H1257 H 0.7131 0.03932 0.72885 0.0
H1258 H 0.69698 1.00289 0.74282 0.0
H1259 H 0.78388 0.98686 0.75296 0.0
H1260 H 0.80024 0.02282 0.73861 0.0
H1261 H 0.72772 0.99386 0.77216 0.0
H1262 H 0.77264 0.94078 0.73929 0.0
H1263 H 0.77923 0.93359 0.71785 0.0
H1264 H 0.68919 0.922 0.71353 0.0
H1265 H 0.68206 0.92964 0.73492 0.0
C1266 C 0.68405 0.87263 0.79516 0.0
C1267 C 0.66139 0.8572 0.79004 0.0
C1268 C 0.69808 0.8942 0.78885 0.0
C1269 C 0.6893 0.90176 0.77736 0.0
C1270 C 0.66676 0.88642 0.77226 0.0
C1271 C 0.65337 0.86434 0.77838 0.0
C1272 C 0.70359 0.9251 0.77049 0.0
C1273 C 0.7101 0.92035 0.75849 0.0
C1274 C 0.71018 0.95209 0.77546 0.0
C1275 C 0.70187 0.95989 0.78768 0.0
C1276 C 0.67326 0.95837 0.79126 0.0
C1277 C 0.66559 0.96569 0.80281 0.0
C1278 C 0.68632 0.97478 0.81083 0.0
C1279 C 0.71475 0.97667 0.80731 0.0
C1280 C 0.72254 0.96935 0.79577 0.0
C1281 C 0.72875 0.02812 0.73411 0.0
C1282 C 0.75793 0.0336 0.73257 0.0
C1283 C 0.71951 1.00744 0.74211 0.0
C1284 C 0.73921 0.99217 0.74891 0.0
C1285 C 0.76834 0.99848 0.74781 0.0
C1286 C 0.77766 0.01892 0.73963 0.0
C1287 C 0.72917 0.96826 0.75643 0.0
C1288 C 0.72333 0.97307 0.76842 0.0
C1289 C 0.7224 0.94161 0.75142 0.0
C1290 C 0.72682 0.936 0.73866 0.0
C1291 C 0.75425 0.93688 0.73374 0.0
C1292 C 0.75808 0.93271 0.72161 0.0
C1293 C 0.73464 0.92741 0.71432 0.0
C1294 C 0.70733 0.92614 0.71918 0.0
C1295 C 0.70339 0.93035 0.7313 0.0
H1296 H 0.73764 0.92424 0.70493 0.0
H1297 H 0.68034 0.98044 0.81977 0.0
H1298 H 0.03088 0.2411 0.27407 0.0
H1299 H 0.99745 0.26066 0.25957 0.0
H1300 H 0.02902 0.34505 0.26679 0.0
H1301 H 0.0623 0.32533 0.28142 0.0
H1302 H 0.97276 0.34498 0.2671 0.0
H1303 H 0.04285 0.31064 0.24019 0.0
H1304 H 0.07576 0.27568 0.23146 0.0
H1305 H 1.00537 0.22128 0.22277 0.0
H1306 H 0.97204 0.25573 0.23162 0.0
H1307 H 0.8855 0.40674 0.22259 0.0
H1308 H 0.92838 0.39142 0.23314 0.0
H1309 H 0.90288 0.30392 0.22904 0.0
H1310 H 0.86052 0.31901 0.21822 0.0
H1311 H 0.95928 0.30876 0.22627 0.0
H1312 H 0.8901 0.34113 0.25476 0.0
H1313 H 0.85704 0.37582 0.2636 0.0
H1314 H 0.92622 0.4339 0.26935 0.0
H1315 H 0.95964 0.39968 0.26038 0.0
C1316 C 0.0312 0.26371 0.27229 0.0
C1317 C 0.04961 0.28166 0.27863 0.0
C1318 C 0.01202 0.27494 0.26403 0.0
C1319 C 0.0108 0.30439 0.26193 0.0
C1320 C 0.02954 0.32228 0.26818 0.0
C1321 C 0.04871 0.31103 0.27645 0.0
C1322 C 0.98889 0.31654 0.25376 0.0
C1323 C 0.97023 0.33742 0.2581 0.0
C1324 C 0.98502 0.30638 0.24206 0.0
C1325 C 1.00496 0.28568 0.23666 0.0
C1326 C 0.0344 0.29113 0.2365 0.0
C1327 C 0.05313 0.27142 0.23151 0.0
C1328 C 0.04266 0.24625 0.22658 0.0
C1329 C 0.01344 0.24078 0.2266 0.0
C1330 C 0.99462 0.26041 0.23159 0.0
C1331 C 0.8893 0.38421 0.22372 0.0
C1332 C 0.86932 0.36416 0.21963 0.0
C1333 C 0.91373 0.37547 0.22987 0.0
C1334 C 0.91873 0.34648 0.2321 0.0
C1335 C 0.89953 0.3264 0.22752 0.0
C1336 C 0.87514 0.3351 0.2214 0.0
C1337 C 0.94309 0.33698 0.23966 0.0
C1338 C 0.9621 0.31654 0.23523 0.0
C1339 C 0.94731 0.34753 0.25128 0.0
C1340 C 0.9273 0.36799 0.25678 0.0
C1341 C 0.89822 0.36138 0.25783 0.0
C1342 C 0.87943 0.38094 0.26288 0.0
C1343 C 0.88951 0.40708 0.267 0.0
C1344 C 0.91843 0.41367 0.26613 0.0
C1345 C 0.93731 0.39419 0.26107 0.0
H1346 H 0.87492 0.42221 0.2709 0.0
H1347 H 0.0572 0.23101 0.22273 0.0
H1348 H 0.22961 0.99354 0.73945 0.0
H1349 H 0.24763 0.03043 0.75285 0.0
H1350 H 0.33242 0.99644 0.7494 0.0
H1351 H 0.31418 0.95922 0.73612 0.0
H1352 H 0.32285 0.01488 0.77202 0.0
H1353 H 0.31178 0.05209 0.73292 0.0
H1354 H 0.28591 0.06241 0.71445 0.0
H1355 H 0.22579 0.11316 0.7337 0.0
H1356 H 0.25105 0.10275 0.75233 0.0
H1357 H 0.3975 0.14119 0.78973 0.0
H1358 H 0.37936 0.09907 0.77947 0.0
H1359 H 0.29451 0.1337 0.78062 0.0
H1360 H 0.31248 0.1758 0.79085 0.0
H1361 H 0.30478 0.11407 0.75927 0.0
H1362 H 0.31661 0.0768 0.79852 0.0
H1363 H 0.34273 0.06582 0.81686 0.0
H1364 H 0.4022 0.01521 0.7972 0.0
H1365 H 0.37664 0.02621 0.7787 0.0
C1366 C 0.25192 0.99345 0.74186 0.0
C1367 C 0.27044 0.97325 0.73692 0.0
C1368 C 0.2623 0.01474 0.74941 0.0
C1369 C 0.29152 0.01656 0.75206 0.0
C1370 C 0.30982 0.99555 0.74754 0.0
C1371 C 0.29941 0.97424 0.73998 0.0
C1372 C 0.30316 0.04135 0.75885 0.0
C1373 C 0.31915 0.03656 0.76916 0.0
C1374 C 0.29814 0.06977 0.75525 0.0
C1375 C 0.28316 0.07643 0.74404 0.0
C1376 C 0.29294 0.06531 0.73323 0.0
C1377 C 0.2784 0.07118 0.72273 0.0
C1378 C 0.25419 0.08837 0.72291 0.0
C1379 C 0.24453 0.09981 0.73358 0.0
C1380 C 0.25896 0.09394 0.74411 0.0
C1381 C 0.3749 0.13967 0.78799 0.0
C1382 C 0.35653 0.16208 0.79115 0.0
C1383 C 0.36451 0.1155 0.78208 0.0
C1384 C 0.33543 0.11292 0.77928 0.0
C1385 C 0.31703 0.13508 0.78258 0.0
C1386 C 0.32739 0.15926 0.78844 0.0
C1387 C 0.32422 0.08772 0.77257 0.0
C1388 C 0.30842 0.09243 0.7622 0.0
C1389 C 0.32953 0.05927 0.7761 0.0
C1390 C 0.34487 0.05257 0.78721 0.0
C1391 C 0.33538 0.06351 0.79809 0.0
C1392 C 0.35007 0.05725 0.80852 0.0
C1393 C 0.37416 0.03989 0.80819 0.0
C1394 C 0.38356 0.02869 0.79744 0.0
C1395 C 0.36897 0.03491 0.78698 0.0
H1396 H 0.38549 0.03507 0.81628 0.0
H1397 H 0.24294 0.09289 0.71477 0.0
H1398 H 0.01552 0.7698 0.28521 0.0
H1399 H 0.05056 0.75212 0.27111 0.0
H1400 H 0.98648 0.69845 0.25521 0.0
H1401 H 0.95178 0.71497 0.27 0.0
H1402 H 0.03114 0.66907 0.25647 0.0
H1403 H 0.01606 0.76156 0.24143 0.0
H1404 H 0.01083 0.81368 0.24169 0.0
H1405 H 0.09724 0.82261 0.25347 0.0
H1406 H 0.10289 0.77052 0.25346 0.0
H1407 H 0.13476 0.64799 0.20787 0.0
H1408 H 0.09229 0.66555 0.2181 0.0
H1409 H 0.14312 0.68678 0.24852 0.0
H1410 H 0.18513 0.6676 0.23889 0.0
H1411 H 0.1012 0.73238 0.23693 0.0
H1412 H 0.11095 0.63656 0.25372 0.0
H1413 H 0.11403 0.58446 0.25175 0.0
H1414 H 0.03353 0.58308 0.23377 0.0
H1415 H 0.03023 0.63528 0.23548 0.0
C1416 C 1.00892 0.75434 0.27865 0.0
C1417 C 0.98107 0.7435 0.27876 0.0
C1418 C 0.02891 0.74439 0.27048 0.0
C1419 C 0.02133 0.72413 0.26186 0.0
C1420 C 0.99309 0.714 0.26173 0.0
C1421 C 0.97317 0.72358 0.27011 0.0
C1422 C 0.04331 0.71272 0.25346 0.0
C1423 C 0.04602 0.6831 0.25204 0.0
C1424 C 0.06302 0.73069 0.24756 0.0
C1425 C 0.05983 0.76208 0.24751 0.0
C1426 C 0.03391 0.77462 0.24415 0.0
C1427 C 0.03087 0.80417 0.24425 0.0
C1428 C 0.05368 0.82144 0.24761 0.0
C1429 C 0.07959 0.8092 0.25087 0.0
C1430 C 0.08274 0.77966 0.2508 0.0
C1431 C 0.13702 0.65594 0.2168 0.0
C1432 C 0.16389 0.65649 0.22239 0.0
C1433 C 0.11263 0.66621 0.2226 0.0
C1434 C 0.11459 0.67767 0.23404 0.0
C1435 C 0.14116 0.67832 0.23964 0.0
C1436 C 0.16534 0.66752 0.234 0.0
C1437 C 0.08914 0.6891 0.24029 0.0
C1438 C 0.0859 0.71863 0.24127 0.0
C1439 C 0.06859 0.67115 0.24553 0.0
C1440 C 0.07055 0.63982 0.24457 0.0
C1441 C 0.09408 0.62518 0.24922 0.0
C1442 C 0.09583 0.59563 0.24818 0.0
C1443 C 0.07404 0.58048 0.2426 0.0
C1444 C 0.05042 0.59485 0.23807 0.0
C1445 C 0.0486 0.62441 0.23907 0.0
H1446 H 0.07543 0.5576 0.2418 0.0
H1447 H 0.05128 0.84431 0.24769 0.0
H1448 H 0.70043 0.4637 0.5295 0.0
H1449 H 0.68236 0.49984 0.51575 0.0
H1450 H 0.76801 0.52996 0.51013 0.0
H1451 H 0.78589 0.49412 0.52401 0.0
H1452 H 0.73321 0.57315 0.51475 0.0
H1453 H 0.73065 0.49262 0.48856 0.0
H1454 H 0.71747 0.44404 0.48245 0.0
H1455 H 0.62893 0.46564 0.48487 0.0
H1456 H 0.64158 0.51427 0.49115 0.0
H1457 H 0.70571 0.67104 0.46929 0.0
H1458 H 0.72296 0.62929 0.47993 0.0
H1459 H 0.6367 0.59961 0.48407 0.0
H1460 H 0.61934 0.64127 0.47323 0.0
H1461 H 0.67087 0.55554 0.48009 0.0
H1462 H 0.67222 0.6347 0.50663 0.0
H1463 H 0.68402 0.68322 0.51329 0.0
H1464 H 0.77314 0.66399 0.51104 0.0
H1465 H 0.76187 0.61545 0.5042 0.0
C1466 C 0.71537 0.47765 0.52509 0.0
C1467 C 0.74458 0.47576 0.52758 0.0
C1468 C 0.70507 0.49832 0.51725 0.0
C1469 C 0.72381 0.51758 0.51177 0.0
C1470 C 0.7531 0.51535 0.51417 0.0
C1471 C 0.76336 0.4947 0.522 0.0
C1472 C 0.71286 0.54107 0.50411 0.0
C1473 C 0.71997 0.5692 0.50706 0.0
C1474 C 0.69471 0.53618 0.49429 0.0
C1475 C 0.68707 0.50702 0.49043 0.0
C1476 C 0.70837 0.48696 0.48787 0.0
C1477 C 0.70099 0.45942 0.48437 0.0
C1478 C 0.67238 0.45174 0.4833 0.0
C1479 C 0.65108 0.47161 0.48571 0.0
C1480 C 0.65834 0.49917 0.48923 0.0
C1481 C 0.69039 0.65556 0.47241 0.0
C1482 C 0.6611 0.65969 0.47049 0.0
C1483 C 0.70029 0.63167 0.47852 0.0
C1484 C 0.68115 0.61147 0.48307 0.0
C1485 C 0.65196 0.61487 0.48071 0.0
C1486 C 0.64204 0.63869 0.47448 0.0
C1487 C 0.69157 0.58757 0.49066 0.0
C1488 C 0.68423 0.55944 0.48775 0.0
C1489 C 0.70934 0.59242 0.50061 0.0
C1490 C 0.71619 0.62153 0.5048 0.0
C1491 C 0.69434 0.64088 0.50748 0.0
C1492 C 0.70093 0.66838 0.51129 0.0
C1493 C 0.72931 0.6767 0.51256 0.0
C1494 C 0.75116 0.65752 0.51004 0.0
C1495 C 0.74469 0.63001 0.5062 0.0
H1496 H 0.73437 0.698 0.51551 0.0
H1497 H 0.66672 0.43041 0.48059 0.0
H1498 H 0.64294 0.40446 0.5406 0.0
H1499 H 0.60038 0.38761 0.53023 0.0
H1500 H 0.6323 0.30179 0.5316 0.0
H1501 H 0.67492 0.31854 0.54185 0.0
H1502 H 0.61364 0.31209 0.51031 0.0
H1503 H 0.57519 0.32655 0.54926 0.0
H1504 H 0.56439 0.3537 0.56737 0.0
H1505 H 0.51677 0.41417 0.547 0.0
H1506 H 0.5276 0.38757 0.52874 0.0
H1507 H 0.49174 0.23989 0.49038 0.0
H1508 H 0.52857 0.25752 0.50389 0.0
H1509 H 0.49705 0.34291 0.49952 0.0
H1510 H 0.45975 0.32506 0.48616 0.0
H1511 H 0.51455 0.33393 0.52233 0.0
H1512 H 0.55272 0.31986 0.48352 0.0
H1513 H 0.56268 0.2927 0.46534 0.0
H1514 H 0.6109 0.23203 0.48536 0.0
H1515 H 0.60081 0.25858 0.50371 0.0
C1516 C 0.64069 0.38193 0.53888 0.0
C1517 C 0.66249 0.3629 0.54208 0.0
C1518 C 0.61627 0.37228 0.53292 0.0
C1519 C 0.61282 0.3433 0.53015 0.0
C1520 C 0.63435 0.32425 0.53354 0.0
C1521 C 0.6588 0.33389 0.53942 0.0
C1522 C 0.58745 0.33285 0.52334 0.0
C1523 C 0.59201 0.31656 0.51308 0.0
C1524 C 0.55905 0.33926 0.52665 0.0
C1525 C 0.55244 0.35522 0.53762 0.0
C1526 C 0.56259 0.34575 0.54863 0.0
C1527 C 0.55644 0.36102 0.55893 0.0
C1528 C 0.53997 0.38569 0.55833 0.0
C1529 C 0.52955 0.39509 0.54745 0.0
C1530 C 0.53567 0.37991 0.53712 0.0
C1531 C 0.49214 0.26228 0.49261 0.0
C1532 C 0.47259 0.28106 0.48741 0.0
C1533 C 0.5134 0.27242 0.50022 0.0
C1534 C 0.51594 0.30166 0.50263 0.0
C1535 C 0.4956 0.32029 0.49784 0.0
C1536 C 0.47424 0.31011 0.49024 0.0
C1537 C 0.54086 0.31288 0.50946 0.0
C1538 C 0.53623 0.32941 0.51963 0.0
C1539 C 0.56924 0.30679 0.50607 0.0
C1540 C 0.5758 0.29107 0.49501 0.0
C1541 C 0.56531 0.30063 0.48406 0.0
C1542 C 0.57098 0.28536 0.47372 0.0
C1543 C 0.58736 0.26063 0.4742 0.0
C1544 C 0.59818 0.25118 0.48501 0.0
C1545 C 0.59251 0.26634 0.49538 0.0
H1546 H 0.59172 0.24882 0.46618 0.0
H1547 H 0.53523 0.39748 0.56631 0.0
H1548 H 0.22214 0.50676 0.53104 0.0
H1549 H 0.23943 0.47071 0.51701 0.0
H1550 H 0.31997 0.51453 0.51482 0.0
H1551 H 0.3023 0.5508 0.52855 0.0
H1552 H 0.30671 0.49529 0.49376 0.0
H1553 H 0.30957 0.45517 0.53258 0.0
H1554 H 0.29015 0.44104 0.55194 0.0
H1555 H 0.23088 0.385 0.5348 0.0
H1556 H 0.24963 0.39919 0.5153 0.0
H1557 H 0.39118 0.37782 0.47321 0.0
H1558 H 0.37048 0.41759 0.48422 0.0
H1559 H 0.28884 0.37577 0.48393 0.0
H1560 H 0.30918 0.33625 0.47278 0.0
H1561 H 0.3021 0.39415 0.50589 0.0
H1562 H 0.30171 0.43436 0.4668 0.0
H1563 H 0.32292 0.44892 0.44781 0.0
H1564 H 0.38045 0.50468 0.46609 0.0
H1565 H 0.35983 0.49017 0.48521 0.0
C1566 C 0.24333 0.5088 0.52739 0.0
C1567 C 0.26089 0.53149 0.53081 0.0
C1568 C 0.25334 0.48813 0.51945 0.0
C1569 C 0.28127 0.48952 0.51495 0.0
C1570 C 0.2984 0.51283 0.51811 0.0
C1571 C 0.28833 0.53355 0.52597 0.0
C1572 C 0.29309 0.46625 0.50734 0.0
C1573 C 0.30592 0.47321 0.49649 0.0
C1574 C 0.29192 0.43728 0.51075 0.0
C1575 C 0.28082 0.42846 0.52247 0.0
C1576 C 0.29227 0.43997 0.53293 0.0
C1577 C 0.28139 0.43194 0.54393 0.0
C1578 C 0.25925 0.41218 0.5446 0.0
C1579 C 0.248 0.40034 0.53426 0.0
C1580 C 0.25875 0.40837 0.52323 0.0
C1581 C 0.36868 0.3773 0.47526 0.0
C1582 C 0.35197 0.3536 0.4721 0.0
C1583 C 0.35687 0.40007 0.48162 0.0
C1584 C 0.32801 0.3998 0.48494 0.0
C1585 C 0.31117 0.37649 0.48157 0.0
C1586 C 0.32291 0.35381 0.4752 0.0
C1587 C 0.31556 0.42317 0.49229 0.0
C1588 C 0.30273 0.41621 0.50313 0.0
C1589 C 0.31706 0.45213 0.48893 0.0
C1590 C 0.3294 0.46097 0.47744 0.0
C1591 C 0.31903 0.44956 0.46677 0.0
C1592 C 0.33092 0.45784 0.45598 0.0
C1593 C 0.35307 0.47766 0.45574 0.0
C1594 C 0.36332 0.48931 0.46629 0.0
C1595 C 0.35152 0.48108 0.4771 0.0
H1596 H 0.36224 0.48404 0.44738 0.0
H1597 H 0.25086 0.40598 0.55312 0.0
H1598 H 0.56548 0.70036 0.48675 0.0
H1599 H 0.52995 0.68282 0.5009 0.0
H1600 H 0.49074 0.76569 0.50163 0.0
H1601 H 0.52682 0.78329 0.48774 0.0
H1602 H 0.48886 0.74331 0.52309 0.0
H1603 H 0.4651 0.71085 0.4841 0.0
H1604 H 0.47394 0.68704 0.46502 0.0
H1605 H 0.48806 0.60797 0.48299 0.0
H1606 H 0.47972 0.63141 0.50221 0.0
H1607 H 0.35095 0.69906 0.54324 0.0
H1608 H 0.39179 0.71875 0.53259 0.0
H1609 H 0.43095 0.63591 0.53195 0.0
H1610 H 0.39015 0.61614 0.54252 0.0
H1611 H 0.43341 0.65857 0.51077 0.0
H1612 H 0.45554 0.69187 0.54996 0.0
H1613 H 0.44611 0.7166 0.56879 0.0
H1614 H 0.43365 0.79502 0.55013 0.0
H1615 H 0.44264 0.77067 0.53117 0.0
C1616 C 0.54962 0.71489 0.49017 0.0
C1617 C 0.54897 0.74319 0.4863 0.0
C1618 C 0.52916 0.70485 0.49816 0.0
C1619 C 0.50723 0.72277 0.50222 0.0
C1620 C 0.50733 0.7514 0.49867 0.0
C1621 C 0.52795 0.76149 0.49076 0.0
C1622 C 0.48342 0.71137 0.50963 0.0
C1623 C 0.47658 0.72494 0.52034 0.0
C1624 C 0.46745 0.68718 0.50616 0.0
C1625 C 0.47204 0.67294 0.4946 0.0
C1626 C 0.47025 0.68841 0.48399 0.0
C1627 C 0.47516 0.67499 0.47315 0.0
C1628 C 0.48162 0.64603 0.4728 0.0
C1629 C 0.48309 0.63041 0.48328 0.0
C1630 C 0.47826 0.64375 0.49415 0.0
C1631 C 0.3685 0.68514 0.54104 0.0
C1632 C 0.36715 0.65596 0.54373 0.0
C1633 C 0.39189 0.69643 0.53491 0.0
C1634 C 0.41469 0.6789 0.53147 0.0
C1635 C 0.41366 0.64992 0.53442 0.0
C1636 C 0.39026 0.63862 0.54048 0.0
C1637 C 0.43897 0.69031 0.52432 0.0
C1638 C 0.44579 0.67683 0.51359 0.0
C1639 C 0.45474 0.71468 0.52774 0.0
C1640 C 0.44951 0.72938 0.53914 0.0
C1641 C 0.4506 0.71434 0.54987 0.0
C1642 C 0.44536 0.7283 0.56057 0.0
C1643 C 0.43922 0.75734 0.56066 0.0
C1644 C 0.43838 0.77251 0.55005 0.0
C1645 C 0.44357 0.75865 0.53932 0.0
H1646 H 0.43517 0.76811 0.56895 0.0
H1647 H 0.48544 0.63567 0.4644 0.0
H1648 H 0.3032 0.22248 0.43257 0.0
H1649 H 0.26942 0.22399 0.41647 0.0
H1650 H 0.32271 0.28364 0.39811 0.0
H1651 H 0.35705 0.28164 0.41411 0.0
H1652 H 0.26731 0.29617 0.3951 0.0
H1653 H 0.3249 0.21226 0.39082 0.0
H1654 H 0.34628 0.16724 0.39751 0.0
H1655 H 0.26305 0.13157 0.40254 0.0
H1656 H 0.24115 0.17657 0.39605 0.0
H1657 H 0.20681 0.27997 0.33765 0.0
H1658 H 0.24022 0.28084 0.3544 0.0
H1659 H 0.19158 0.21502 0.37162 0.0
H1660 H 0.15883 0.21368 0.35472 0.0
H1661 H 0.24513 0.20488 0.37512 0.0
H1662 H 0.18703 0.28775 0.37935 0.0
H1663 H 0.16485 0.33274 0.37307 0.0
H1664 H 0.24743 0.37034 0.36864 0.0
H1665 H 0.27012 0.32541 0.37472 0.0
C1666 C 0.30932 0.23413 0.42482 0.0
C1667 C 0.33625 0.24737 0.42381 0.0
C1668 C 0.28908 0.23586 0.41569 0.0
C1669 C 0.29432 0.2523 0.40557 0.0
C1670 C 0.31873 0.26944 0.40546 0.0
C1671 C 0.33896 0.26751 0.41457 0.0
C1672 C 0.27487 0.25108 0.39504 0.0
C1673 C 0.26271 0.27624 0.39066 0.0
C1674 C 0.26828 0.22507 0.38931 0.0
C1675 C 0.28139 0.19787 0.39306 0.0
C1676 C 0.31116 0.19488 0.39343 0.0
C1677 C 0.32337 0.16936 0.39718 0.0
C1678 C 0.30603 0.14658 0.40048 0.0
C1679 C 0.27645 0.14925 0.4 0.0
C1680 C 0.26412 0.17475 0.39628 0.0
C1681 C 0.2035 0.26557 0.34499 0.0
C1682 C 0.18013 0.24697 0.34496 0.0
C1683 C 0.22244 0.2662 0.35462 0.0
C1684 C 0.21826 0.24841 0.36449 0.0
C1685 C 0.19538 0.2291 0.36422 0.0
C1686 C 0.1766 0.22836 0.35457 0.0
C1687 C 0.2374 0.24999 0.37515 0.0
C1688 C 0.2496 0.22485 0.37955 0.0
C1689 C 0.24385 0.27601 0.38094 0.0
C1690 C 0.23028 0.30313 0.37738 0.0
C1691 C 0.20046 0.30555 0.37696 0.0
C1692 C 0.1878 0.33105 0.37345 0.0
C1693 C 0.20472 0.35436 0.37043 0.0
C1694 C 0.23435 0.35225 0.37096 0.0
C1695 C 0.24713 0.32678 0.37445 0.0
H1696 H 0.19488 0.37409 0.36771 0.0
H1697 H 0.31553 0.12684 0.40338 0.0
H1698 H 0.26332 0.70854 0.58662 0.0
H1699 H 0.26068 0.74161 0.60335 0.0
H1700 H 0.2002 0.6864 0.62053 0.0
H1701 H 0.20208 0.65388 0.60353 0.0
H1702 H 0.18527 0.73842 0.62485 0.0
H1703 H 0.27264 0.68804 0.62798 0.0
H1704 H 0.31886 0.66943 0.6212 0.0
H1705 H 0.34992 0.75456 0.61665 0.0
H1706 H 0.30369 0.7737 0.62321 0.0
H1707 H 0.26097 0.8052 0.68119 0.0
H1708 H 0.25881 0.76969 0.66522 0.0
H1709 H 0.20318 0.82483 0.64539 0.0
H1710 H 0.20463 0.85964 0.6615 0.0
H1711 H 0.27569 0.76929 0.64354 0.0
H1712 H 0.15986 0.78817 0.62717 0.0
H1713 H 0.11321 0.80167 0.63542 0.0
H1714 H 0.13856 0.77052 0.66951 0.0
H1715 H 0.18517 0.75644 0.66142 0.0
C1716 C 0.24899 0.70382 0.59386 0.0
C1717 C 0.23259 0.67881 0.59369 0.0
C1718 C 0.24774 0.72256 0.60351 0.0
C1719 C 0.23058 0.71647 0.6134 0.0
C1720 C 0.21362 0.69178 0.61308 0.0
C1721 C 0.21468 0.67316 0.60336 0.0
C1722 C 0.23094 0.73533 0.62417 0.0
C1723 C 0.20508 0.74519 0.62889 0.0
C1724 C 0.25664 0.7437 0.62979 0.0
C1725 C 0.28461 0.7323 0.62599 0.0
C1726 C 0.28927 0.7028 0.62547 0.0
C1727 C 0.31547 0.69215 0.62167 0.0
C1728 C 0.3373 0.7108 0.61848 0.0
C1729 C 0.33298 0.74014 0.61911 0.0
C1730 C 0.30679 0.7509 0.62288 0.0
C1731 C 0.24807 0.80948 0.67346 0.0
C1732 C 0.23308 0.83519 0.67256 0.0
C1733 C 0.24695 0.78927 0.66428 0.0
C1734 C 0.23067 0.79425 0.65401 0.0
C1735 C 0.21551 0.81998 0.65322 0.0
C1736 C 0.21646 0.84001 0.66241 0.0
C1737 C 0.23003 0.77299 0.64404 0.0
C1738 C 0.25586 0.76261 0.63948 0.0
C1739 C 0.20426 0.76349 0.63879 0.0
C1740 C 0.17611 0.77151 0.6437 0.0
C1741 C 0.15543 0.78408 0.63641 0.0
C1742 C 0.129 0.79185 0.64106 0.0
C1743 C 0.12296 0.78704 0.65299 0.0
C1744 C 0.14329 0.77433 0.66028 0.0
C1745 C 0.16973 0.76647 0.65567 0.0
H1746 H 0.1025 0.7931 0.65658 0.0
H1747 H 0.35757 0.70252 0.61553 0.0
H1748 H 0.68842 0.73026 0.42028 0.0
H1749 H 0.72114 0.73014 0.40339 0.0
H1750 H 0.71995 0.82183 0.40296 0.0
H1751 H 0.68613 0.82174 0.41946 0.0
H1752 H 0.71715 0.80479 0.38153 0.0
H1753 H 0.77878 0.77991 0.41356 0.0
H1754 H 0.79493 0.75259 0.4309 0.0
H1755 H 0.79884 0.67677 0.4098 0.0
H1756 H 0.78234 0.70357 0.39236 0.0
H1757 H 0.83988 0.82255 0.34451 0.0
H1758 H 0.80567 0.82221 0.3609 0.0
H1759 H 0.79854 0.73111 0.35798 0.0
H1760 H 0.83261 0.73155 0.34149 0.0
H1761 H 0.80569 0.7476 0.38091 0.0
H1762 H 0.74484 0.77446 0.34866 0.0
H1763 H 0.73023 0.80335 0.33153 0.0
H1764 H 0.72681 0.8777 0.35353 0.0
H1765 H 0.74182 0.84933 0.37076 0.0
C1766 C 0.69549 0.75035 0.41666 0.0
C1767 C 0.68531 0.77601 0.42141 0.0
C1768 C 0.7143 0.75033 0.407 0.0
C1769 C 0.72371 0.77601 0.40193 0.0
C1770 C 0.71334 0.80167 0.40667 0.0
C1771 C 0.69427 0.80166 0.41623 0.0
C1772 C 0.74365 0.77618 0.39151 0.0
C1773 C 0.73669 0.79257 0.38151 0.0
C1774 C 0.76903 0.75985 0.39123 0.0
C1775 C 0.77905 0.74369 0.40169 0.0
C1776 C 0.78289 0.75737 0.41264 0.0
C1777 C 0.79214 0.74198 0.42248 0.0
C1778 C 0.79784 0.71295 0.42146 0.0
C1779 C 0.79438 0.69925 0.41058 0.0
C1780 C 0.7851 0.71453 0.40072 0.0
C1781 C 0.83042 0.80256 0.34717 0.0
C1782 C 0.83832 0.77715 0.34151 0.0
C1783 C 0.81098 0.80234 0.3566 0.0
C1784 C 0.79917 0.77665 0.36067 0.0
C1785 C 0.80717 0.75123 0.35502 0.0
C1786 C 0.82646 0.75149 0.34554 0.0
C1787 C 0.77915 0.77623 0.37101 0.0
C1788 C 0.78612 0.7598 0.38097 0.0
C1789 C 0.75397 0.79276 0.37131 0.0
C1790 C 0.74471 0.80981 0.36098 0.0
C1791 C 0.74118 0.79701 0.34983 0.0
C1792 C 0.7328 0.81329 0.3401 0.0
C1793 C 0.72766 0.84235 0.34144 0.0
C1794 C 0.73082 0.85519 0.35251 0.0
C1795 C 0.73925 0.83901 0.36226 0.0
H1796 H 0.72117 0.85492 0.33389 0.0
H1797 H 0.805 0.70107 0.42909 0.0
H1798 H 0.8209 0.16112 0.66132 0.0
H1799 H 0.82302 0.19506 0.64482 0.0
H1800 H 0.74928 0.23826 0.65869 0.0
H1801 H 0.7477 0.20472 0.67527 0.0
H1802 H 0.78874 0.2065 0.62731 0.0
H1803 H 0.75006 0.308 0.65148 0.0
H1804 H 0.75175 0.32915 0.67144 0.0
H1805 H 0.82801 0.28248 0.67912 0.0
H1806 H 0.82702 0.2614 0.65915 0.0
H1807 H 0.74614 0.31259 0.58544 0.0
H1808 H 0.74863 0.27833 0.60183 0.0
H1809 H 0.82148 0.32277 0.61594 0.0
H1810 H 0.81873 0.35702 0.5996 0.0
H1811 H 0.786 0.31087 0.63332 0.0
H1812 H 0.82798 0.25827 0.60177 0.0
H1813 H 0.83094 0.23725 0.58183 0.0
H1814 H 0.75704 0.18638 0.58895 0.0
H1815 H 0.75336 0.20744 0.60888 0.0
C1816 C 0.8055 0.1782 0.66091 0.0
C1817 C 0.78451 0.18071 0.66968 0.0
C1818 C 0.80653 0.19746 0.65143 0.0
C1819 C 0.78653 0.21962 0.65049 0.0
C1820 C 0.76539 0.22188 0.65926 0.0
C1821 C 0.76447 0.20273 0.66876 0.0
C1822 C 0.78747 0.24003 0.64028 0.0
C1823 C 0.78811 0.22931 0.62866 0.0
C1824 C 0.78716 0.26994 0.6419 0.0
C1825 C 0.78829 0.28293 0.65385 0.0
C1826 C 0.76727 0.30237 0.65741 0.0
C1827 C 0.76809 0.31432 0.66873 0.0
C1828 C 0.78993 0.3071 0.67655 0.0
C1829 C 0.81106 0.28799 0.67306 0.0
C1830 C 0.81036 0.27602 0.66174 0.0
C1831 C 0.76279 0.31478 0.592 0.0
C1832 C 0.78227 0.33734 0.59127 0.0
C1833 C 0.76426 0.29521 0.60137 0.0
C1834 C 0.78535 0.29774 0.61018 0.0
C1835 C 0.80495 0.32027 0.60934 0.0
C1836 C 0.8035 0.33974 0.59997 0.0
C1837 C 0.78674 0.27732 0.62036 0.0
C1838 C 0.78655 0.28805 0.63198 0.0
C1839 C 0.78803 0.24746 0.61873 0.0
C1840 C 0.79024 0.23464 0.60678 0.0
C1841 C 0.81222 0.24277 0.59905 0.0
C1842 C 0.81405 0.23082 0.58776 0.0
C1843 C 0.79415 0.21054 0.58412 0.0
C1844 C 0.77241 0.20212 0.59178 0.0
C1845 C 0.77046 0.21404 0.60308 0.0
H1846 H 0.7956 0.20131 0.57537 0.0
H1847 H 0.7905 0.31634 0.68532 0.0
H1848 H 0.20711 0.24338 0.92838 0.0
H1849 H 0.24191 0.24532 0.91214 0.0
H1850 H 0.19094 0.30901 0.89472 0.0
H1851 H 0.15684 0.30758 0.9111 0.0
H1852 H 0.23944 0.23269 0.88984 0.0
H1853 H 0.23111 0.35265 0.87796 0.0
H1854 H 0.22248 0.3984 0.88801 0.0
H1855 H 0.25237 0.36314 0.92073 0.0
H1856 H 0.26158 0.31735 0.91085 0.0
H1857 H 0.30448 0.25115 0.83361 0.0
H1858 H 0.27057 0.25222 0.85015 0.0
H1859 H 0.3279 0.30631 0.86977 0.0
H1860 H 0.3609 0.30632 0.85302 0.0
H1861 H 0.27836 0.32329 0.87436 0.0
H1862 H 0.32044 0.23091 0.87452 0.0
H1863 H 0.33457 0.18453 0.86623 0.0
H1864 H 0.24684 0.16347 0.86018 0.0
H1865 H 0.23221 0.20992 0.86828 0.0
C1866 C 0.20364 0.25798 0.92112 0.0
C1867 C 0.17934 0.27531 0.92097 0.0
C1868 C 0.2234 0.25898 0.91179 0.0
C1869 C 0.21935 0.27744 0.90213 0.0
C1870 C 0.19503 0.2949 0.90208 0.0
C1871 C 0.17544 0.29403 0.91143 0.0
C1872 C 0.24016 0.27815 0.89204 0.0
C1873 C 0.2479 0.25255 0.88647 0.0
C1874 C 0.25188 0.30389 0.88768 0.0
C1875 C 0.24675 0.33148 0.89367 0.0
C1876 C 0.23595 0.3547 0.88728 0.0
C1877 C 0.23094 0.38063 0.89296 0.0
C1878 C 0.23678 0.38364 0.90501 0.0
C1879 C 0.24775 0.36076 0.91141 0.0
C1880 C 0.25284 0.3348 0.90578 0.0
C1881 C 0.30963 0.2634 0.84144 0.0
C1882 C 0.33555 0.27818 0.84213 0.0
C1883 C 0.29037 0.26385 0.85095 0.0
C1884 C 0.29679 0.27876 0.86145 0.0
C1885 C 0.32229 0.29444 0.86189 0.0
C1886 C 0.34128 0.29432 0.85233 0.0
C1887 C 0.27733 0.27785 0.87202 0.0
C1888 C 0.26983 0.30342 0.87769 0.0
C1889 C 0.26655 0.25201 0.8767 0.0
C1890 C 0.27526 0.22399 0.87191 0.0
C1891 C 0.30418 0.21645 0.87136 0.0
C1892 C 0.31227 0.19015 0.8667 0.0
C1893 C 0.29162 0.17109 0.86266 0.0
C1894 C 0.26282 0.17827 0.8633 0.0
C1895 C 0.25461 0.20457 0.86793 0.0
H1896 H 0.29792 0.15074 0.85905 0.0
H1897 H 0.23286 0.40373 0.90939 0.0
H1898 H 0.32376 0.67094 0.16695 0.0
H1899 H 0.32552 0.70492 0.15046 0.0
H1900 H 0.23821 0.72799 0.15718 0.0
H1901 H 0.2366 0.69399 0.17368 0.0
H1902 H 0.29612 0.70741 0.13002 0.0
H1903 H 0.22909 0.7986 0.15001 0.0
H1904 H 0.21801 0.8191 0.16956 0.0
H1905 H 0.29739 0.78811 0.1832 0.0
H1906 H 0.30913 0.7678 0.1637 0.0
H1907 H 0.25233 0.80563 0.08501 0.0
H1908 H 0.25402 0.77195 0.10161 0.0
H1909 H 0.31234 0.82733 0.12001 0.0
H1910 H 0.31064 0.86089 0.1034 0.0
H1911 H 0.27156 0.80925 0.13482 0.0
H1912 H 0.33509 0.76585 0.10712 0.0
H1913 H 0.34954 0.74631 0.0878 0.0
H1914 H 0.2838 0.68313 0.0901 0.0
H1915 H 0.26865 0.7026 0.10935 0.0
C1916 C 0.30513 0.68361 0.16497 0.0
C1917 C 0.28021 0.68029 0.1717 0.0
C1918 C 0.30603 0.70284 0.15549 0.0
C1919 C 0.28208 0.71931 0.15256 0.0
C1920 C 0.25714 0.71592 0.15931 0.0
C1921 C 0.2562 0.69655 0.16875 0.0
C1922 C 0.28314 0.73974 0.14238 0.0
C1923 C 0.29066 0.72965 0.13109 0.0
C1924 C 0.27648 0.76895 0.1437 0.0
C1925 C 0.26982 0.78143 0.15542 0.0
C1926 C 0.24422 0.79626 0.15717 0.0
C1927 C 0.23782 0.80783 0.16824 0.0
C1928 C 0.25694 0.80482 0.17763 0.0
C1929 C 0.28255 0.79033 0.17594 0.0
C1930 C 0.28907 0.77876 0.16488 0.0
C1931 C 0.26574 0.81037 0.09256 0.0
C1932 C 0.2814 0.83582 0.09292 0.0
C1933 C 0.2667 0.79115 0.10205 0.0
C1934 C 0.28338 0.79693 0.11213 0.0
C1935 C 0.29922 0.82231 0.11241 0.0
C1936 C 0.29838 0.84142 0.1029 0.0
C1937 C 0.28404 0.77682 0.12242 0.0
C1938 C 0.27686 0.78698 0.13374 0.0
C1939 C 0.29136 0.74775 0.12115 0.0
C1940 C 0.30057 0.73585 0.10963 0.0
C1941 C 0.32357 0.74792 0.10346 0.0
C1942 C 0.33191 0.73684 0.09253 0.0
C1943 C 0.31756 0.71353 0.08771 0.0
C1944 C 0.29488 0.70121 0.09383 0.0
C1945 C 0.28642 0.71225 0.10476 0.0
H1946 H 0.32405 0.70498 0.07924 0.0
H1947 H 0.25193 0.81378 0.18619 0.0
H1948 H 0.8339 0.69033 0.92005 0.0
H1949 H 0.80063 0.68798 0.90337 0.0
H1950 H 0.7914 0.77915 0.90444 0.0
H1951 H 0.82395 0.78127 0.92144 0.0
H1952 H 0.74167 0.75672 0.89984 0.0
H1953 H 0.83485 0.74408 0.88401 0.0
H1954 H 0.88238 0.72243 0.88219 0.0
H1955 H 0.84428 0.64232 0.87316 0.0
H1956 H 0.79645 0.66338 0.87512 0.0
H1957 H 0.6874 0.77657 0.84189 0.0
H1958 H 0.72098 0.77584 0.85851 0.0
H1959 H 0.7137 0.68462 0.8603 0.0
H1960 H 0.67957 0.68544 0.84372 0.0
H1961 H 0.77114 0.70595 0.86336 0.0
H1962 H 0.67716 0.72106 0.87904 0.0
H1963 H 0.63069 0.74516 0.88008 0.0
H1964 H 0.67223 0.82387 0.88859 0.0
H1965 H 0.71903 0.80033 0.8874 0.0
C1966 C 0.82424 0.70977 0.91688 0.0
C1967 C 0.8311 0.73594 0.92219 0.0
C1968 C 0.80549 0.70849 0.90723 0.0
C1969 C 0.79363 0.73343 0.90244 0.0
C1970 C 0.8001 0.75955 0.90791 0.0
C1971 C 0.81869 0.76079 0.91763 0.0
C1972 C 0.77506 0.73238 0.89161 0.0
C1973 C 0.74836 0.74585 0.89185 0.0
C1974 C 0.78333 0.71792 0.88113 0.0
C1975 C 0.81205 0.70524 0.87983 0.0
C1976 C 0.83659 0.72179 0.88172 0.0
C1977 C 0.86359 0.70963 0.88065 0.0
C1978 C 0.86635 0.681 0.87759 0.0
C1979 C 0.84211 0.66448 0.87555 0.0
C1980 C 0.81504 0.67652 0.87664 0.0
C1981 C 0.69324 0.75634 0.84576 0.0
C1982 C 0.68072 0.73107 0.8416 0.0
C1983 C 0.71236 0.75594 0.85527 0.0
C1984 C 0.71968 0.73021 0.86079 0.0
C1985 C 0.70836 0.70474 0.85623 0.0
C1986 C 0.68891 0.70519 0.84677 0.0
C1987 C 0.73795 0.73024 0.87165 0.0
C1988 C 0.76453 0.71666 0.8714 0.0
C1989 C 0.72976 0.7449 0.88207 0.0
C1990 C 0.70162 0.75898 0.88303 0.0
C1991 C 0.67641 0.74355 0.88106 0.0
C1992 C 0.65 0.7571 0.88169 0.0
C1993 C 0.64851 0.78604 0.88437 0.0
C1994 C 0.67342 0.80146 0.88649 0.0
C1995 C 0.6999 0.78802 0.88585 0.0
H1996 H 0.62804 0.79651 0.88484 0.0
H1997 H 0.88727 0.67162 0.87676 0.0
H1998 H 0.78386 0.19597 0.089 0.0
H1999 H 0.78311 0.2295 0.10573 0.0
H2000 H 0.69584 0.20682 0.11279 0.0
H2001 H 0.69669 0.17341 0.09608 0.0
H2002 H 0.75126 0.27664 0.11142 0.0
H2003 H 0.687 0.2046 0.14312 0.0
H2004 H 0.67782 0.15351 0.14621 0.0
H2005 H 0.75813 0.13305 0.13027 0.0
H2006 H 0.76803 0.18399 0.12729 0.0
H2007 H 0.70642 0.35786 0.16097 0.0
H2008 H 0.70576 0.32419 0.14436 0.0
H2009 H 0.768 0.27233 0.16219 0.0
H2010 H 0.76862 0.30613 0.17881 0.0
H2011 H 0.7279 0.23927 0.15128 0.0
H2012 H 0.78821 0.31726 0.14073 0.0
H2013 H 0.80007 0.36784 0.1379 0.0
H2014 H 0.73399 0.3752 0.11185 0.0
H2015 H 0.72139 0.32475 0.11469 0.0
C2016 C 0.76444 0.19857 0.09403 0.0
C2017 C 0.74024 0.18241 0.09119 0.0
C2018 C 0.76399 0.21769 0.10359 0.0
C2019 C 0.73948 0.22066 0.11063 0.0
C2020 C 0.7151 0.20485 0.1076 0.0
C2021 C 0.7155 0.1859 0.09801 0.0
C2022 C 0.73971 0.23941 0.12137 0.0
C2023 C 0.74603 0.26844 0.12012 0.0
C2024 C 0.73346 0.2288 0.13282 0.0
C2025 C 0.7281 0.19812 0.13488 0.0
C2026 C 0.70277 0.1892 0.14034 0.0
C2027 C 0.69744 0.16027 0.14207 0.0
C2028 C 0.71734 0.14005 0.13841 0.0
C2029 C 0.7427 0.14873 0.13307 0.0
C2030 C 0.74817 0.17763 0.13136 0.0
C2031 C 0.71968 0.33908 0.16138 0.0
C2032 C 0.73766 0.33464 0.17114 0.0
C2033 C 0.71942 0.31989 0.15187 0.0
C2034 C 0.73713 0.29579 0.15189 0.0
C2035 C 0.75417 0.29071 0.1619 0.0
C2036 C 0.75453 0.31 0.1714 0.0
C2037 C 0.73873 0.27665 0.14129 0.0
C2038 C 0.73289 0.24751 0.14257 0.0
C2039 C 0.74581 0.28709 0.12989 0.0
C2040 C 0.7537 0.31728 0.128 0.0
C2041 C 0.7761 0.32971 0.13445 0.0
C2042 C 0.78296 0.35835 0.13284 0.0
C2043 C 0.76776 0.37474 0.12472 0.0
C2044 C 0.74572 0.36248 0.11815 0.0
C2045 C 0.73872 0.33386 0.11975 0.0
H2046 H 0.77308 0.39692 0.12349 0.0
H2047 H 0.71314 0.11766 0.13973 0.0
H2048 H 0.96853 0.89816 0.33876 0.0
H2049 H 0.98671 0.94691 0.33983 0.0
H2050 H 0.9948 0.94868 0.30186 0.0
H2051 H 0.97689 0.90007 0.30074 0.0
H2052 H 0.04 0.97167 0.31102 0.0
H2053 H 0.93971 0.98366 0.3175 0.0
H2054 H 0.89362 0.97546 0.32733 0.0
H2055 H 0.92819 1.00602 0.36013 0.0
H2056 H 0.97463 0.01406 0.35052 0.0
H2057 H 0.05266 0.11963 0.30107 0.0
H2058 H 0.03543 0.07076 0.30206 0.0
H2059 H 0.03756 0.07431 0.34013 0.0
H2060 H 0.05435 0.12369 0.33921 0.0
H2061 H 0.98876 0.04849 0.33218 0.0
H2062 H 0.08865 0.03865 0.32507 0.0
H2063 H 0.13411 0.04746 0.31484 0.0
H2064 H 0.0994 0.01318 0.28272 0.0
H2065 H 0.05357 1.00454 0.29271 0.0
C2066 C 0.97399 0.90897 0.33062 0.0
C2067 C 0.97126 0.89494 0.31966 0.0
C2068 C 0.9844 0.93697 0.33124 0.0
C2069 C 0.99199 0.95187 0.32092 0.0
C2070 C 0.9893 0.93783 0.30999 0.0
C2071 C 0.97909 0.90986 0.30937 0.0
C2072 C 1.00297 0.98186 0.3214 0.0
C2073 C 0.02853 0.98846 0.31554 0.0
C2074 C 0.98862 1.00393 0.32754 0.0
C2075 C 0.96073 0.99916 0.33333 0.0
C2076 C 0.93755 0.98842 0.32683 0.0
C2077 C 0.91135 0.98384 0.33236 0.0
C2078 C 0.908 0.99013 0.34436 0.0
C2079 C 0.93083 1.00111 0.35084 0.0
C2080 C 0.95709 1.0057 0.34536 0.0
C2081 C 0.04925 0.11022 0.30968 0.0
C2082 C 0.0549 0.12585 0.32006 0.0
C2083 C 0.03961 0.08205 0.31023 0.0
C2084 C 0.03539 0.06854 0.32117 0.0
C2085 C 0.04068 0.08412 0.33157 0.0
C2086 C 0.05051 0.11234 0.33103 0.0
C2087 C 0.02551 0.03823 0.32167 0.0
C2088 C 1.00022 0.03161 0.32771 0.0
C2089 C 0.04001 0.01614 0.31564 0.0
C2090 C 0.06759 0.02118 0.30962 0.0
C2091 C 0.09064 0.03319 0.3158 0.0
C2092 C 0.11649 0.03812 0.31005 0.0
C2093 C 0.11962 0.03095 0.29813 0.0
C2094 C 0.09693 0.01876 0.29195 0.0
C2095 C 0.07102 0.01381 0.29765 0.0
H2096 H 0.13965 0.03478 0.29369 0.0
H2097 H 0.8877 0.98658 0.34862 0.0
H2098 H 0.91481 0.10212 0.69579 0.0
H2099 H 0.96254 0.08186 0.69493 0.0
H2100 H 0.92667 0.99829 0.6901 0.0
H2101 H 0.87874 0.01827 0.69144 0.0
H2102 H 0.96872 0.99551 0.70548 0.0
H2103 H 0.9586 0.03627 0.66698 0.0
H2104 H 0.94837 0.0739 0.65244 0.0
H2105 H 0.01622 0.12469 0.66666 0.0
H2106 H 0.02661 0.08751 0.6814 0.0
H2107 H 0.09977 0.92888 0.69044 0.0
H2108 H 0.05147 0.94799 0.68933 0.0
H2109 H 0.08402 0.03242 0.69542 0.0
H2110 H 0.13248 0.0136 0.69617 0.0
H2111 H 0.04329 0.03371 0.67885 0.0
H2112 H 0.05235 0.99339 0.71768 0.0
H2113 H 0.06258 0.95565 0.73217 0.0
H2114 H 0.99655 0.90381 0.71715 0.0
H2115 H 0.98619 0.94111 0.70245 0.0
C2116 C 0.91694 0.07939 0.69461 0.0
C2117 C 0.89263 0.06194 0.6937 0.0
C2118 C 0.94441 0.06782 0.69398 0.0
C2119 C 0.94847 0.03848 0.6923 0.0
C2120 C 0.92428 0.02099 0.69136 0.0
C2121 C 0.89677 0.03254 0.69201 0.0
C2122 C 0.97786 0.02602 0.69182 0.0
C2123 C 0.98484 1.00361 0.6995 0.0
C2124 C 0.99934 0.03684 0.68424 0.0
C2125 C 0.9932 0.05921 0.67537 0.0
C2126 C 0.9712 0.05555 0.66707 0.0
C2127 C 0.9654 0.07678 0.65878 0.0
C2128 C 0.98159 0.1017 0.65864 0.0
C2129 C 1.00367 0.1054 0.66678 0.0
C2130 C 0.00954 0.08424 0.6751 0.0
C2131 C 0.09679 0.95159 0.69137 0.0
C2132 C 0.12024 0.9696 0.69345 0.0
C2133 C 0.06901 0.96248 0.69086 0.0
C2134 C 0.06384 0.99168 0.69247 0.0
C2135 C 0.08727 0.00982 0.69421 0.0
C2136 C 0.11504 0.99894 0.69474 0.0
C2137 C 0.03411 1.00328 0.69252 0.0
C2138 C 0.0271 0.02555 0.68478 0.0
C2139 C 0.01259 0.99231 0.70003 0.0
C2140 C 0.0187 0.96992 0.70889 0.0
C2141 C 0.04016 0.97385 0.71741 0.0
C2142 C 0.04596 0.95256 0.72567 0.0
C2143 C 0.03028 0.92731 0.72556 0.0
C2144 C 1.00871 0.92335 0.71721 0.0
C2145 C 1.00285 0.94457 0.70891 0.0
H2146 H 0.0348 0.91085 0.73197 0.0
H2147 H 0.97707 0.11811 0.65222 0.0
H2148 H 0.05063 0.3938 0.92517 0.0
H2149 H 0.03198 0.44236 0.9242 0.0
H2150 H 0.02596 0.44459 0.96223 0.0
H2151 H 0.04438 0.39623 0.96325 0.0
H2152 H 0.97976 0.46642 0.95335 0.0
H2153 H 0.07959 0.48005 0.9462 0.0
H2154 H 0.12542 0.47259 0.93607 0.0
H2155 H 0.08917 0.50253 0.90353 0.0
H2156 H 0.04299 0.50982 0.91344 0.0
H2157 H 0.96619 0.61406 0.9637 0.0
H2158 H 0.98423 0.56552 0.96242 0.0
H2159 H 0.97873 0.56887 0.9244 0.0
H2160 H 0.96098 0.61787 0.92561 0.0
H2161 H 0.02906 0.54406 0.93192 0.0
H2162 H 0.92963 0.53264 0.93971 0.0
H2163 H 0.8845 0.54084 0.95027 0.0
H2164 H 0.92097 0.50715 0.98212 0.0
H2165 H 0.96648 0.49913 0.97178 0.0
C2166 C 0.04554 0.40469 0.93333 0.0
C2167 C 0.04896 0.39086 0.94429 0.0
C2168 C 0.03486 0.43256 0.93277 0.0
C2169 C 0.02766 0.44748 0.94315 0.0
C2170 C 0.03112 0.43368 0.95407 0.0
C2171 C 0.04162 0.40585 0.95464 0.0
C2172 C 0.01622 0.47724 0.94273 0.0
C2173 C 0.99079 0.4834 0.94876 0.0
C2174 C 0.03002 0.49951 0.93651 0.0
C2175 C 0.05775 0.49517 0.93053 0.0
C2176 C 0.08133 0.48482 0.93686 0.0
C2177 C 0.10738 0.48066 0.93116 0.0
C2178 C 0.11018 0.487 0.91915 0.0
C2179 C 0.08695 0.49758 0.91283 0.0
C2180 C 0.06084 0.50175 0.91848 0.0
C2181 C 0.96903 0.60466 0.95504 0.0
C2182 C 0.96212 0.62007 0.94476 0.0
C2183 C 0.97916 0.57671 0.95433 0.0
C2184 C 0.98266 0.56328 0.94332 0.0
C2185 C 0.97617 0.57866 0.93301 0.0
C2186 C 0.96582 0.60664 0.93372 0.0
C2187 C 0.9929 0.53317 0.94267 0.0
C2188 C 0.01802 0.52699 0.93644 0.0
C2189 C 0.97893 0.51087 0.94876 0.0
C2190 C 0.95154 0.51551 0.95499 0.0
C2191 C 0.9281 0.52718 0.94898 0.0
C2192 C 0.90243 0.53176 0.95493 0.0
C2193 C 0.89989 0.52458 0.96686 0.0
C2194 C 0.92298 0.51273 0.97287 0.0
C2195 C 0.94871 0.50813 0.96697 0.0
H2196 H 0.88 0.52814 0.97145 0.0
H2197 H 0.13037 0.48377 0.91476 0.0
H2198 H 0.41566 0.92287 0.06718 0.0
H2199 H 0.46297 0.9438 0.06863 0.0
H2200 H 0.42574 0.02594 0.07535 0.0
H2201 H 0.37802 1.0052 0.07348 0.0
H2202 H 0.46773 0.03089 0.05969 0.0
H2203 H 0.45899 0.98677 0.09753 0.0
H2204 H 0.44923 0.94791 0.11157 0.0
H2205 H 0.51667 0.89854 0.09631 0.0
H2206 H 0.52659 0.93695 0.08206 0.0
H2207 H 0.60162 0.09428 0.07343 0.0
H2208 H 0.55291 0.0764 0.07499 0.0
H2209 H 0.58273 0.99128 0.06831 0.0
H2210 H 0.6316 1.0088 0.06721 0.0
H2211 H 0.54348 0.99013 0.08506 0.0
H2212 H 0.5502 0.03282 0.04653 0.0
H2213 H 0.55991 0.07138 0.03234 0.0
H2214 H 0.49618 0.12321 0.0489 0.0
H2215 H 0.48635 0.08507 0.06329 0.0
C2216 C 0.41739 0.94543 0.06894 0.0
C2217 C 0.39279 0.9623 0.07015 0.0
C2218 C 0.44462 0.95737 0.06989 0.0
C2219 C 0.44818 0.9865 0.07222 0.0
C2220 C 0.4237 1.0034 0.07358 0.0
C2221 C 0.39636 0.99144 0.07262 0.0
C2222 C 0.47742 0.99928 0.07284 0.0
C2223 C 0.48412 0.02227 0.06541 0.0
C2224 C 0.4992 0.98777 0.08008 0.0
C2225 C 0.49337 0.96467 0.08866 0.0
C2226 C 0.47161 0.96755 0.09711 0.0
C2227 C 0.46607 0.94561 0.10511 0.0
C2228 C 0.48228 0.92075 0.10481 0.0
C2229 C 0.50411 0.9178 0.09652 0.0
C2230 C 0.50973 0.93967 0.08849 0.0
C2231 C 0.59797 0.07168 0.07246 0.0
C2232 C 0.62079 0.05309 0.07012 0.0
C2233 C 0.56993 0.06149 0.07322 0.0
C2234 C 0.56386 0.03247 0.07158 0.0
C2235 C 0.58666 0.01377 0.06955 0.0
C2236 C 0.61468 0.02392 0.06881 0.0
C2237 C 0.53385 0.02155 0.07184 0.0
C2238 C 0.52702 0.99888 0.07942 0.0
C2239 C 0.51196 0.03332 0.06473 0.0
C2240 C 0.51776 0.05622 0.05606 0.0
C2241 C 0.53841 0.05253 0.0472 0.0
C2242 C 0.54391 0.07429 0.03911 0.0
C2243 C 0.52873 0.09976 0.03974 0.0
C2244 C 0.50796 0.10349 0.04843 0.0
C2245 C 0.5024 0.0818 0.05655 0.0
H2246 H 0.53302 0.11659 0.03347 0.0
H2247 H 0.47796 0.90379 0.11101 0.0
H2248 H 0.50751 0.38512 0.81637 0.0
H2249 H 0.52558 0.43373 0.81747 0.0
H2250 H 0.4408 0.46448 0.8243 0.0
H2251 H 0.42238 0.41589 0.82286 0.0
H2252 H 0.46648 0.49776 0.80842 0.0
H2253 H 0.49192 0.4608 0.8464 0.0
H2254 H 0.51334 0.42684 0.8604 0.0
H2255 H 0.59572 0.44178 0.84522 0.0
H2256 H 0.57472 0.47556 0.83102 0.0
H2257 H 0.51174 0.63864 0.82236 0.0
H2258 H 0.49115 0.59098 0.82379 0.0
H2259 H 0.57405 0.55419 0.81824 0.0
H2260 H 0.59493 0.60162 0.81733 0.0
H2261 H 0.54743 0.52452 0.8343 0.0
H2262 H 0.52216 0.55927 0.79575 0.0
H2263 H 0.50121 0.59289 0.78148 0.0
H2264 H 0.41909 0.5817 0.79743 0.0
H2265 H 0.43963 0.54828 0.8119 0.0
C2266 C 0.4926 0.40216 0.81807 0.0
C2267 C 0.46338 0.39633 0.81952 0.0
C2268 C 0.50306 0.43006 0.81881 0.0
C2269 C 0.48469 0.453 0.82109 0.0
C2270 C 0.45552 0.44728 0.82257 0.0
C2271 C 0.44503 0.41934 0.82186 0.0
C2272 C 0.49583 0.48291 0.82166 0.0
C2273 C 0.48388 0.50367 0.81424 0.0
C2274 C 0.51899 0.49076 0.82903 0.0
C2275 C 0.5317 0.47053 0.83758 0.0
C2276 C 0.51457 0.45669 0.84599 0.0
C2277 C 0.52664 0.43749 0.85397 0.0
C2278 C 0.55586 0.4321 0.85368 0.0
C2279 C 0.57308 0.44595 0.84543 0.0
C2280 C 0.56111 0.46515 0.83742 0.0
C2281 C 0.52572 0.62046 0.82162 0.0
C2282 C 0.55508 0.62427 0.81962 0.0
C2283 C 0.51381 0.59309 0.82229 0.0
C2284 C 0.53086 0.56871 0.8209 0.0
C2285 C 0.56027 0.57247 0.81927 0.0
C2286 C 0.57219 0.59977 0.81863 0.0
C2287 C 0.51823 0.53934 0.821 0.0
C2288 C 0.52992 0.51866 0.82854 0.0
C2289 C 0.49491 0.53154 0.8137 0.0
C2290 C 0.48249 0.55152 0.80499 0.0
C2291 C 0.49967 0.56415 0.79627 0.0
C2292 C 0.48787 0.58314 0.78814 0.0
C2293 C 0.45885 0.58949 0.78857 0.0
C2294 C 0.44157 0.5768 0.79712 0.0
C2295 C 0.45328 0.55782 0.80528 0.0
H2296 H 0.44975 0.6042 0.78227 0.0
H2297 H 0.56517 0.41723 0.85986 0.0
H2298 H 0.62792 0.46834 0.17635 0.0
H2299 H 0.57972 0.48805 0.17487 0.0
H2300 H 0.57173 0.48511 0.21282 0.0
H2301 H 0.61969 0.46585 0.21437 0.0
H2302 H 0.52543 0.4633 0.20276 0.0
H2303 H 0.58146 0.54818 0.19754 0.0
H2304 H 0.61782 0.57837 0.1881 0.0
H2305 H 0.57293 0.57326 0.15508 0.0
H2306 H 0.53648 0.54271 0.1643 0.0
H2307 H 0.40332 0.54604 0.21341 0.0
H2308 H 0.45189 0.52816 0.21231 0.0
H2309 H 0.45016 0.53601 0.17435 0.0
H2310 H 0.40124 0.554 0.17537 0.0
H2311 H 0.50064 0.55363 0.18272 0.0
H2312 H 0.44363 0.47064 0.18793 0.0
H2313 H 0.40709 0.44035 0.19719 0.0
H2314 H 0.45381 0.44111 0.22983 0.0
H2315 H 0.49045 0.47174 0.22081 0.0
C2316 C 0.61608 0.47225 0.18439 0.0
C2317 C 0.62781 0.46515 0.19547 0.0
C2318 C 0.5884 0.4835 0.18353 0.0
C2319 C 0.57186 0.48813 0.19374 0.0
C2320 C 0.58379 0.48156 0.20479 0.0
C2321 C 0.61132 0.47039 0.20565 0.0
C2322 C 0.54189 0.499 0.19303 0.0
C2323 C 0.52014 0.48322 0.19848 0.0
C2324 C 0.53455 0.52454 0.18713 0.0
C2325 C 0.55643 0.5429 0.18158 0.0
C2326 C 0.57947 0.55329 0.18824 0.0
C2327 C 0.60007 0.57051 0.18293 0.0
C2328 C 0.59773 0.57765 0.17099 0.0
C2329 C 0.57474 0.56766 0.16433 0.0
C2330 C 0.5541 0.55041 0.16959 0.0
C2331 C 0.41302 0.5437 0.20478 0.0
C2332 C 0.39797 0.55119 0.19447 0.0
C2333 C 0.44098 0.53349 0.20417 0.0
C2334 C 0.45476 0.53018 0.19323 0.0
C2335 C 0.4401 0.53824 0.18291 0.0
C2336 C 0.41206 0.54859 0.18352 0.0
C2337 C 0.48431 0.51817 0.19265 0.0
C2338 C 0.50593 0.53364 0.18694 0.0
C2339 C 0.49158 0.49225 0.19827 0.0
C2340 C 0.46967 0.47369 0.20372 0.0
C2341 C 0.44601 0.46451 0.19711 0.0
C2342 C 0.4253 0.44726 0.20231 0.0
C2343 C 0.42809 0.43886 0.2141 0.0
C2344 C 0.45166 0.44765 0.2207 0.0
C2345 C 0.47243 0.46493 0.21554 0.0
H2346 H 0.41203 0.42551 0.21811 0.0
H2347 H 0.6137 0.59099 0.16689 0.0
H2348 H 0.47611 0.12517 0.42778 0.0
H2349 H 0.49514 0.07683 0.42681 0.0
H2350 H 0.49669 0.07298 0.4649 0.0
H2351 H 0.47795 0.12132 0.46593 0.0
H2352 H 0.54339 0.05041 0.45674 0.0
H2353 H 0.44423 0.0391 0.44749 0.0
H2354 H 0.39975 0.04816 0.43656 0.0
H2355 H 0.43906 0.01967 0.40441 0.0
H2356 H 0.48393 0.01079 0.41513 0.0
H2357 H 0.5549 0.90193 0.46506 0.0
H2358 H 0.5379 0.95084 0.46431 0.0
H2359 H 0.54441 0.94995 0.42629 0.0
H2360 H 0.56077 0.90048 0.42695 0.0
H2361 H 0.49521 0.97517 0.43337 0.0
H2362 H 0.59394 0.98442 0.44316 0.0
H2363 H 0.63778 0.97476 0.45444 0.0
H2364 H 0.59842 1.00668 0.48602 0.0
H2365 H 0.55419 0.01617 0.47496 0.0
C2366 C 0.48038 0.11401 0.43596 0.0
C2367 C 0.47542 0.12729 0.44694 0.0
C2368 C 0.49126 0.08626 0.43539 0.0
C2369 C 0.49708 0.07087 0.44578 0.0
C2370 C 0.49249 0.08425 0.45673 0.0
C2371 C 0.48182 0.11203 0.45731 0.0
C2372 C 0.50798 0.04094 0.4453 0.0
C2373 C 0.5326 0.03394 0.45173 0.0
C2374 C 0.49449 0.01935 0.43854 0.0
C2375 C 0.46752 0.02458 0.43209 0.0
C2376 C 0.44346 0.03497 0.43807 0.0
C2377 C 0.41817 0.04004 0.43192 0.0
C2378 C 0.41661 0.03457 0.41979 0.0
C2379 C 0.44032 0.02394 0.4138 0.0
C2380 C 0.46567 0.01887 0.41991 0.0
C2381 C 0.55248 0.91193 0.4565 0.0
C2382 C 0.5592 0.89702 0.44606 0.0
C2383 C 0.543 0.94012 0.4561 0.0
C2384 C 0.54013 0.95438 0.44525 0.0
C2385 C 0.54652 0.93954 0.43478 0.0
C2386 C 0.5561 0.91127 0.43518 0.0
C2387 C 0.53039 0.98467 0.44492 0.0
C2388 C 0.50604 0.99171 0.43833 0.0
C2389 C 0.54403 1.00628 0.45158 0.0
C2390 C 0.57067 1.00078 0.45825 0.0
C2391 C 0.59457 0.9892 0.45253 0.0
C2392 C 0.61949 0.98378 0.45888 0.0
C2393 C 0.62086 0.99004 0.47095 0.0
C2394 C 0.59732 1.00181 0.47668 0.0
C2395 C 0.57232 1.00724 0.47037 0.0
H2396 H 0.64018 0.98583 0.47585 0.0
H2397 H 0.39701 0.0385 0.41504 0.0
H2398 H 0.9191 0.42618 0.57184 0.0
H2399 H 0.96759 0.44496 0.57292 0.0
H2400 H 0.93556 0.52977 0.56751 0.0
H2401 H 0.88707 0.51118 0.56646 0.0
H2402 H 0.98029 0.52167 0.55394 0.0
H2403 H 0.96026 0.50568 0.59499 0.0
H2404 H 0.94572 0.47788 0.61244 0.0
H2405 H 0.01471 0.4198 0.60659 0.0
H2406 H 0.02944 0.44706 0.589 0.0
H2407 H 0.10488 0.59911 0.5681 0.0
H2408 H 0.05714 0.57873 0.56871 0.0
H2409 H 0.0929 0.49497 0.57259 0.0
H2410 H 0.14093 0.51519 0.57186 0.0
H2411 H 0.04699 0.50134 0.58686 0.0
H2412 H 0.06713 0.5175 0.54593 0.0
H2413 H 0.08178 0.54533 0.5285 0.0
H2414 H 0.01235 0.60301 0.53414 0.0
H2415 H 0.99753 0.57574 0.55171 0.0
C2416 C 0.92225 0.44889 0.57106 0.0
C2417 C 0.89892 0.46707 0.56905 0.0
C2418 C 0.95013 0.45965 0.57166 0.0
C2419 C 0.95548 0.48892 0.57038 0.0
C2420 C 0.93221 0.50712 0.56847 0.0
C2421 C 0.90437 0.49639 0.56785 0.0
C2422 C 0.98525 0.50057 0.5707 0.0
C2423 C 0.99466 0.51751 0.56124 0.0
C2424 C 1.00455 0.49464 0.58003 0.0
C2425 C 0.99578 0.47825 0.59061 0.0
C2426 C 0.9722 0.48685 0.59737 0.0
C2427 C 0.96394 0.47122 0.6073 0.0
C2428 C 0.97923 0.44705 0.6106 0.0
C2429 C 1.00286 0.43851 0.60401 0.0
C2430 C 0.01119 0.45405 0.59406 0.0
C2431 C 0.10274 0.57631 0.56901 0.0
C2432 C 0.12704 0.55887 0.5698 0.0
C2433 C 0.07528 0.56465 0.56939 0.0
C2434 C 0.07121 0.53517 0.5705 0.0
C2435 C 0.09534 0.51775 0.5717 0.0
C2436 C 0.12289 0.52942 0.57132 0.0
C2437 C 0.04184 0.52263 0.57016 0.0
C2438 C 0.03255 0.50548 0.57958 0.0
C2439 C 0.02261 0.52835 0.56079 0.0
C2440 C 0.03139 0.54473 0.5502 0.0
C2441 C 0.05512 0.53624 0.5435 0.0
C2442 C 0.06343 0.55189 0.53359 0.0
C2443 C 0.04805 0.57596 0.53023 0.0
C2444 C 0.02427 0.58438 0.53676 0.0
C2445 C 0.01589 0.56882 0.54669 0.0
H2446 H 0.05452 0.58805 0.52255 0.0
H2447 H 0.97281 0.43497 0.61829 0.0
loop_
_geom_bond_atom_site_label_1
_geom_bond_atom_site_label_2
_geom_bond_distance
_geom_bond_site_symmetry_2
_ccdc_geom_bond_type
C0 C1 1.443 . S
C0 N4 1.376 . S
C0 C38 1.389 . S
C1 C0 1.443 . S
C1 C2 1.340 . S
C1 H41 0.951 . S
C2 C1 1.340 . S
C2 C3 1.439 . S
C2 H42 0.950 . S
C3 C2 1.439 . S
C3 N4 1.374 . S
C3 C37 1.395 . S
N4 C0 1.376 . S
N4 C3 1.374 . S
N4 Co5 2.008 . S
Co5 N4 2.008 . S
Co5 N6 1.995 . S
Co5 N11 2.008 . S
Co5 N16 1.995 . S
Co5 N21 2.282 . S
Co5 N27 2.282 . S
N6 Co5 1.995 . S
N6 C7 1.376 . S
N6 C10 1.383 . S
C7 N6 1.376 . S
C7 C8 1.446 . S
C7 C37 1.391 . S
C8 C7 1.446 . S
C8 C9 1.339 . S
C8 H43 0.949 . S
C9 C8 1.339 . S
C9 C10 1.439 . S
C9 H44 0.950 . S
C10 N6 1.383 . S
C10 C9 1.439 . S
C10 C39 1.392 . S
N11 Co5 2.008 . S
N11 C12 1.376 . S
N11 C15 1.374 . S
C12 N11 1.376 . S
C12 C13 1.450 . S
C12 C39 1.389 . S
C13 C12 1.450 . S
C13 C14 1.342 . S
C13 H45 0.944 1_455 S
C14 C13 1.342 . S
C14 C15 1.439 . S
C14 H46 0.950 1_455 S
C15 N11 1.374 . S
C15 C14 1.439 . S
C15 C40 1.395 . S
N16 Co5 1.995 . S
N16 C17 1.376 . S
N16 C20 1.383 . S
C17 N16 1.376 . S
C17 C18 1.446 . S
C17 C40 1.391 . S
C18 C17 1.446 . S
C18 C19 1.339 . S
C18 H47 0.949 . S
C19 C18 1.339 . S
C19 C20 1.439 . S
C19 H48 0.950 . S
C20 N16 1.383 . S
C20 C19 1.439 . S
C20 C38 1.392 . S
N21 Co5 2.282 . S
N21 C24 1.332 . S
N21 C26 1.332 . S
C22 C23 1.386 . S
C22 C25 1.388 . S
C23 C22 1.386 . S
C23 C24 1.382 . S
C23 H49 0.950 . S
C24 N21 1.332 . S
C24 C23 1.382 . S
C24 H35 0.952 . S
C25 C22 1.388 . S
C25 C26 1.382 . S
C25 H50 0.950 . S
C26 N21 1.332 . S
C26 C25 1.382 . S
C26 H36 0.948 . S
N27 Co5 2.282 . S
N27 C31 1.332 . S
N27 C32 1.332 . S
C28 C29 1.388 . S
C28 C32 1.382 . S
C28 H51 0.950 . S
C29 C28 1.388 . S
C29 C30 1.386 . S
C30 C29 1.386 . S
C30 C31 1.382 . S
C30 H52 0.950 . S
C31 N27 1.332 . S
C31 C30 1.382 . S
C31 H33 0.952 . S
C32 N27 1.332 . S
C32 C28 1.382 . S
C32 H34 0.948 . S
H33 C31 0.952 . S
H34 C32 0.948 . S
H35 C24 0.952 . S
H36 C26 0.948 . S
C37 C3 1.395 . S
C37 C7 1.391 . S
C38 C0 1.389 . S
C38 C20 1.392 . S
C39 C10 1.392 . S
C39 C12 1.389 . S
C40 C15 1.395 . S
C40 C17 1.391 . S
H41 C1 0.951 . S
H42 C2 0.950 . S
H43 C8 0.949 . S
H44 C9 0.950 . S
H45 C13 0.944 1_655 S
H46 C14 0.950 1_655 S
H47 C18 0.949 . S
H48 C19 0.950 . S
H49 C23 0.950 . S
H50 C25 0.950 . S
H51 C28 0.950 . S
H52 C30 0.950 . S
C53 C54 1.450 . S
C53 N57 1.376 . S
C53 C91 1.389 . S
C54 C53 1.450 . S
C54 C55 1.342 . S
C54 H94 0.944 1_565 S
C55 C54 1.342 . S
C55 C56 1.439 . S
C55 H95 0.950 1_565 S
C56 C55 1.439 . S
C56 N57 1.374 . S
C56 C90 1.395 . S
N57 C53 1.376 . S
N57 C56 1.374 . S
N57 Co58 2.008 . S
Co58 N57 2.008 . S
Co58 N59 1.995 . S
Co58 N64 2.008 . S
Co58 N69 1.995 . S
Co58 N74 2.282 . S
Co58 N80 2.282 . S
N59 Co58 1.995 . S
N59 C60 1.376 . S
N59 C63 1.383 . S
C60 N59 1.376 . S
C60 C61 1.446 . S
C60 C90 1.391 . S
C61 C60 1.446 . S
C61 C62 1.339 . S
C61 H96 0.949 . S
C62 C61 1.339 . S
C62 C63 1.439 . S
C62 H97 0.950 . S
C63 N59 1.383 . S
C63 C62 1.439 . S
C63 C92 1.392 . S
N64 Co58 2.008 . S
N64 C65 1.376 . S
N64 C68 1.374 . S
C65 N64 1.376 . S
C65 C66 1.443 . S
C65 C92 1.389 . S
C66 C65 1.443 . S
C66 C67 1.340 . S
C66 H98 0.951 . S
C67 C66 1.340 . S
C67 C68 1.439 . S
C67 H99 0.950 . S
C68 N64 1.374 . S
C68 C67 1.439 . S
C68 C93 1.395 . S
N69 Co58 1.995 . S
N69 C70 1.376 . S
N69 C73 1.383 . S
C70 N69 1.376 . S
C70 C71 1.446 . S
C70 C93 1.391 . S
C71 C70 1.446 . S
C71 C72 1.339 . S
C71 H100 0.949 . S
C72 C71 1.339 . S
C72 C73 1.439 . S
C72 H101 0.950 . S
C73 N69 1.383 . S
C73 C72 1.439 . S
C73 C91 1.392 . S
N74 Co58 2.282 . S
N74 C77 1.332 . S
N74 C79 1.332 . S
C75 C76 1.386 . S
C75 C78 1.388 . S
C76 C75 1.386 . S
C76 C77 1.382 . S
C76 H102 0.950 . S
C77 N74 1.332 . S
C77 C76 1.382 . S
C77 H88 0.952 . S
C78 C75 1.388 . S
C78 C79 1.382 . S
C78 H103 0.950 . S
C79 N74 1.332 . S
C79 C78 1.382 . S
C79 H89 0.948 . S
N80 Co58 2.282 . S
N80 C84 1.332 . S
N80 C85 1.332 . S
C81 C82 1.388 . S
C81 C85 1.382 . S
C81 H104 0.950 . S
C82 C81 1.388 . S
C82 C83 1.386 . S
C83 C82 1.386 . S
C83 C84 1.382 . S
C83 H105 0.950 . S
C84 N80 1.332 . S
C84 C83 1.382 . S
C84 H86 0.952 . S
C85 N80 1.332 . S
C85 C81 1.382 . S
C85 H87 0.948 . S
H86 C84 0.952 . S
H87 C85 0.948 . S
H88 C77 0.952 . S
H89 C79 0.948 . S
C90 C56 1.395 . S
C90 C60 1.391 . S
C91 C53 1.389 . S
C91 C73 1.392 . S
C92 C63 1.392 . S
C92 C65 1.389 . S
C93 C68 1.395 . S
C93 C70 1.391 . S
H94 C54 0.944 1_545 S
H95 C55 0.950 1_545 S
H96 C61 0.949 . S
H97 C62 0.950 . S
H98 C66 0.951 . S
H99 C67 0.950 . S
H100 C71 0.949 . S
H101 C72 0.950 . S
H102 C76 0.950 . S
H103 C78 0.950 . S
H104 C81 0.950 . S
H105 C83 0.950 . S
C106 C107 1.443 . S
C106 N110 1.376 . S
C106 C144 1.389 . S
C107 C106 1.443 . S
C107 C108 1.340 . S
C107 H147 0.951 . S
C108 C107 1.340 . S
C108 C109 1.439 . S
C108 H148 0.950 . S
C109 C108 1.439 . S
C109 N110 1.374 . S
C109 C143 1.395 . S
N110 C106 1.376 . S
N110 C109 1.374 . S
N110 Co111 2.008 . S
Co111 N110 2.008 . S
Co111 N112 1.995 . S
Co111 N117 2.008 . S
Co111 N122 1.995 . S
Co111 N127 2.282 . S
Co111 N133 2.282 . S
N112 Co111 1.995 . S
N112 C113 1.376 . S
N112 C116 1.383 . S
C113 N112 1.376 . S
C113 C114 1.446 . S
C113 C143 1.391 . S
C114 C113 1.446 . S
C114 C115 1.339 . S
C114 H149 0.949 . S
C115 C114 1.339 . S
C115 C116 1.439 . S
C115 H150 0.950 . S
C116 N112 1.383 . S
C116 C115 1.439 . S
C116 C145 1.392 . S
N117 Co111 2.008 . S
N117 C118 1.376 . S
N117 C121 1.374 . S
C118 N117 1.376 . S
C118 C119 1.450 . S
C118 C145 1.389 . S
C119 C118 1.450 . S
C119 C120 1.342 . S
C119 H151 0.944 1_655 S
C120 C119 1.342 . S
C120 C121 1.439 . S
C120 H152 0.950 1_655 S
C121 N117 1.374 . S
C121 C120 1.439 . S
C121 C146 1.395 . S
N122 Co111 1.995 . S
N122 C123 1.376 . S
N122 C126 1.383 . S
C123 N122 1.376 . S
C123 C124 1.446 . S
C123 C146 1.391 . S
C124 C123 1.446 . S
C124 C125 1.339 . S
C124 H153 0.949 . S
C125 C124 1.339 . S
C125 C126 1.439 . S
C125 H154 0.950 . S
C126 N122 1.383 . S
C126 C125 1.439 . S
C126 C144 1.392 . S
N127 Co111 2.282 . S
N127 C130 1.332 . S
N127 C132 1.332 . S
C128 C129 1.386 . S
C128 C131 1.388 . S
C129 C128 1.386 . S
C129 C130 1.382 . S
C129 H155 0.950 . S
C130 N127 1.332 . S
C130 C129 1.382 . S
C130 H141 0.952 . S
C131 C128 1.388 . S
C131 C132 1.382 . S
C131 H156 0.950 . S
C132 N127 1.332 . S
C132 C131 1.382 . S
C132 H142 0.948 . S
N133 Co111 2.282 . S
N133 C137 1.332 . S
N133 C138 1.332 . S
C134 C135 1.388 . S
C134 C138 1.382 . S
C134 H157 0.950 . S
C135 C134 1.388 . S
C135 C136 1.386 . S
C136 C135 1.386 . S
C136 C137 1.382 . S
C136 H158 0.950 . S
C137 N133 1.332 . S
C137 C136 1.382 . S
C137 H139 0.952 . S
C138 N133 1.332 . S
C138 C134 1.382 . S
C138 H140 0.948 . S
H139 C137 0.952 . S
H140 C138 0.948 . S
H141 C130 0.952 . S
H142 C132 0.948 . S
C143 C109 1.395 . S
C143 C113 1.391 . S
C144 C106 1.389 . S
C144 C126 1.392 . S
C145 C116 1.392 . S
C145 C118 1.389 . S
C146 C121 1.395 . S
C146 C123 1.391 . S
H147 C107 0.951 . S
H148 C108 0.950 . S
H149 C114 0.949 . S
H150 C115 0.950 . S
H151 C119 0.944 1_455 S
H152 C120 0.950 1_455 S
H153 C124 0.949 . S
H154 C125 0.950 . S
H155 C129 0.950 . S
H156 C131 0.950 . S
H157 C134 0.950 . S
H158 C136 0.950 . S
C159 C160 1.450 . S
C159 N163 1.376 . S
C159 C197 1.389 . S
C160 C159 1.450 . S
C160 C161 1.342 . S
C160 H200 0.944 1_545 S
C161 C160 1.342 . S
C161 C162 1.439 . S
C161 H201 0.950 1_545 S
C162 C161 1.439 . S
C162 N163 1.374 . S
C162 C196 1.395 . S
N163 C159 1.376 . S
N163 C162 1.374 . S
N163 Co164 2.008 . S
Co164 N163 2.008 . S
Co164 N165 1.995 . S
Co164 N170 2.008 . S
Co164 N175 1.995 . S
Co164 N180 2.282 . S
Co164 N186 2.282 . S
N165 Co164 1.995 . S
N165 C166 1.376 . S
N165 C169 1.383 . S
C166 N165 1.376 . S
C166 C167 1.446 . S
C166 C196 1.391 . S
C167 C166 1.446 . S
C167 C168 1.339 . S
C167 H202 0.949 . S
C168 C167 1.339 . S
C168 C169 1.439 . S
C168 H203 0.950 . S
C169 N165 1.383 . S
C169 C168 1.439 . S
C169 C198 1.392 . S
N170 Co164 2.008 . S
N170 C171 1.376 . S
N170 C174 1.374 . S
C171 N170 1.376 . S
C171 C172 1.443 . S
C171 C198 1.389 . S
C172 C171 1.443 . S
C172 C173 1.340 . S
C172 H204 0.951 . S
C173 C172 1.340 . S
C173 C174 1.439 . S
C173 H205 0.950 . S
C174 N170 1.374 . S
C174 C173 1.439 . S
C174 C199 1.395 . S
N175 Co164 1.995 . S
N175 C176 1.376 . S
N175 C179 1.383 . S
C176 N175 1.376 . S
C176 C177 1.446 . S
C176 C199 1.391 . S
C177 C176 1.446 . S
C177 C178 1.339 . S
C177 H206 0.949 . S
C178 C177 1.339 . S
C178 C179 1.439 . S
C178 H207 0.950 . S
C179 N175 1.383 . S
C179 C178 1.439 . S
C179 C197 1.392 . S
N180 Co164 2.282 . S
N180 C183 1.332 . S
N180 C185 1.332 . S
C181 C182 1.386 . S
C181 C184 1.388 . S
C182 C181 1.386 . S
C182 C183 1.382 . S
C182 H208 0.950 . S
C183 N180 1.332 . S
C183 C182 1.382 . S
C183 H194 0.952 . S
C184 C181 1.388 . S
C184 C185 1.382 . S
C184 H209 0.950 . S
C185 N180 1.332 . S
C185 C184 1.382 . S
C185 H195 0.948 . S
N186 Co164 2.282 . S
N186 C190 1.332 . S
N186 C191 1.332 . S
C187 C188 1.388 . S
C187 C191 1.382 . S
C187 H210 0.950 . S
C188 C187 1.388 . S
C188 C189 1.386 . S
C189 C188 1.386 . S
C189 C190 1.382 . S
C189 H211 0.950 . S
C190 N186 1.332 . S
C190 C189 1.382 . S
C190 H192 0.952 . S
C191 N186 1.332 . S
C191 C187 1.382 . S
C191 H193 0.948 . S
H192 C190 0.952 . S
H193 C191 0.948 . S
H194 C183 0.952 . S
H195 C185 0.948 . S
C196 C162 1.395 . S
C196 C166 1.391 . S
C197 C159 1.389 . S
C197 C179 1.392 . S
C198 C169 1.392 . S
C198 C171 1.389 . S
C199 C174 1.395 . S
C199 C176 1.391 . S
H200 C160 0.944 1_565 S
H201 C161 0.950 1_565 S
H202 C167 0.949 . S
H203 C168 0.950 . S
H204 C172 0.951 . S
H205 C173 0.950 . S
H206 C177 0.949 . S
H207 C178 0.950 . S
H208 C182 0.950 . S
H209 C184 0.950 . S
H210 C187 0.950 . S
H211 C189 0.950 . S
C212 C213 1.443 . S
C212 N216 1.376 . S
C212 C250 1.389 . S
C213 C212 1.443 . S
C213 C214 1.340 . S
C213 H253 0.951 . S
C214 C213 1.340 . S
C214 C215 1.439 . S
C214 H254 0.950 . S
C215 C214 1.439 . S
C215 N216 1.374 . S
C215 C249 1.395 . S
N216 C212 1.376 . S
N216 C215 1.374 . S
N216 Co217 2.008 . S
Co217 N216 2.008 . S
Co217 N218 1.995 . S
Co217 N223 2.008 . S
Co217 N228 1.995 . S
Co217 N233 2.282 . S
Co217 N239 2.282 . S
N218 Co217 1.995 . S
N218 C219 1.376 . S
N218 C222 1.383 . S
C219 N218 1.376 . S
C219 C220 1.446 . S
C219 C249 1.391 . S
C220 C219 1.446 . S
C220 C221 1.339 . S
C220 H255 0.949 . S
C221 C220 1.339 . S
C221 C222 1.439 . S
C221 H256 0.950 . S
C222 N218 1.383 . S
C222 C221 1.439 . S
C222 C251 1.392 . S
N223 Co217 2.008 . S
N223 C224 1.376 . S
N223 C227 1.374 . S
C224 N223 1.376 . S
C224 C225 1.450 . S
C224 C251 1.389 . S
C225 C224 1.450 . S
C225 C226 1.342 . S
C225 H257 0.944 1_455 S
C226 C225 1.342 . S
C226 C227 1.439 . S
C226 H258 0.950 1_455 S
C227 N223 1.374 . S
C227 C226 1.439 . S
C227 C252 1.395 . S
N228 Co217 1.995 . S
N228 C229 1.376 . S
N228 C232 1.383 . S
C229 N228 1.376 . S
C229 C230 1.446 . S
C229 C252 1.391 . S
C230 C229 1.446 . S
C230 C231 1.339 . S
C230 H259 0.949 . S
C231 C230 1.339 . S
C231 C232 1.439 . S
C231 H260 0.950 . S
C232 N228 1.383 . S
C232 C231 1.439 . S
C232 C250 1.392 . S
N233 Co217 2.282 . S
N233 C236 1.332 . S
N233 C238 1.332 . S
C234 C235 1.386 . S
C234 C237 1.388 . S
C235 C234 1.386 . S
C235 C236 1.382 . S
C235 H261 0.950 . S
C236 N233 1.332 . S
C236 C235 1.382 . S
C236 H247 0.952 . S
C237 C234 1.388 . S
C237 C238 1.382 . S
C237 H262 0.950 . S
C238 N233 1.332 . S
C238 C237 1.382 . S
C238 H248 0.948 . S
N239 Co217 2.282 . S
N239 C243 1.332 . S
N239 C244 1.332 . S
C240 C241 1.388 . S
C240 C244 1.382 . S
C240 H263 0.950 . S
C241 C240 1.388 . S
C241 C242 1.386 . S
C242 C241 1.386 . S
C242 C243 1.382 . S
C242 H264 0.950 . S
C243 N239 1.332 . S
C243 C242 1.382 . S
C243 H245 0.952 . S
C244 N239 1.332 . S
C244 C240 1.382 . S
C244 H246 0.948 . S
H245 C243 0.952 . S
H246 C244 0.948 . S
H247 C236 0.952 . S
H248 C238 0.948 . S
C249 C215 1.395 . S
C249 C219 1.391 . S
C250 C212 1.389 . S
C250 C232 1.392 . S
C251 C222 1.392 . S
C251 C224 1.389 . S
C252 C227 1.395 . S
C252 C229 1.391 . S
H253 C213 0.951 . S
H254 C214 0.950 . S
H255 C220 0.949 . S
H256 C221 0.950 . S
H257 C225 0.944 1_655 S
H258 C226 0.950 1_655 S
H259 C230 0.949 . S
H260 C231 0.950 . S
H261 C235 0.950 . S
H262 C237 0.950 . S
H263 C240 0.950 . S
H264 C242 0.950 . S
C265 C266 1.450 . S
C265 N269 1.376 . S
C265 C303 1.389 . S
C266 C265 1.450 . S
C266 C267 1.342 . S
C266 H306 0.944 1_565 S
C267 C266 1.342 . S
C267 C268 1.439 . S
C267 H307 0.950 1_565 S
C268 C267 1.439 . S
C268 N269 1.374 . S
C268 C302 1.395 . S
N269 C265 1.376 . S
N269 C268 1.374 . S
N269 Co270 2.008 . S
Co270 N269 2.008 . S
Co270 N271 1.995 . S
Co270 N276 2.008 . S
Co270 N281 1.995 . S
Co270 N286 2.282 . S
Co270 N292 2.282 . S
N271 Co270 1.995 . S
N271 C272 1.376 . S
N271 C275 1.383 . S
C272 N271 1.376 . S
C272 C273 1.446 . S
C272 C302 1.391 . S
C273 C272 1.446 . S
C273 C274 1.339 . S
C273 H308 0.949 . S
C274 C273 1.339 . S
C274 C275 1.439 . S
C274 H309 0.950 . S
C275 N271 1.383 . S
C275 C274 1.439 . S
C275 C304 1.392 . S
N276 Co270 2.008 . S
N276 C277 1.376 . S
N276 C280 1.374 . S
C277 N276 1.376 . S
C277 C278 1.443 . S
C277 C304 1.389 . S
C278 C277 1.443 . S
C278 C279 1.340 . S
C278 H310 0.951 . S
C279 C278 1.340 . S
C279 C280 1.439 . S
C279 H311 0.950 . S
C280 N276 1.374 . S
C280 C279 1.439 . S
C280 C305 1.395 . S
N281 Co270 1.995 . S
N281 C282 1.376 . S
N281 C285 1.383 . S
C282 N281 1.376 . S
C282 C283 1.446 . S
C282 C305 1.391 . S
C283 C282 1.446 . S
C283 C284 1.339 . S
C283 H312 0.949 . S
C284 C283 1.339 . S
C284 C285 1.439 . S
C284 H313 0.950 . S
C285 N281 1.383 . S
C285 C284 1.439 . S
C285 C303 1.392 . S
N286 Co270 2.282 . S
N286 C289 1.332 . S
N286 C291 1.332 . S
C287 C288 1.386 . S
C287 C290 1.388 . S
C288 C287 1.386 . S
C288 C289 1.382 . S
C288 H314 0.950 . S
C289 N286 1.332 . S
C289 C288 1.382 . S
C289 H300 0.952 . S
C290 C287 1.388 . S
C290 C291 1.382 . S
C290 H315 0.950 . S
C291 N286 1.332 . S
C291 C290 1.382 . S
C291 H301 0.948 . S
N292 Co270 2.282 . S
N292 C296 1.332 . S
N292 C297 1.332 . S
C293 C294 1.388 . S
C293 C297 1.382 . S
C293 H316 0.950 . S
C294 C293 1.388 . S
C294 C295 1.386 . S
C295 C294 1.386 . S
C295 C296 1.382 . S
C295 H317 0.950 . S
C296 N292 1.332 . S
C296 C295 1.382 . S
C296 H298 0.952 . S
C297 N292 1.332 . S
C297 C293 1.382 . S
C297 H299 0.948 . S
H298 C296 0.952 . S
H299 C297 0.948 . S
H300 C289 0.952 . S
H301 C291 0.948 . S
C302 C268 1.395 . S
C302 C272 1.391 . S
C303 C265 1.389 . S
C303 C285 1.392 . S
C304 C275 1.392 . S
C304 C277 1.389 . S
C305 C280 1.395 . S
C305 C282 1.391 . S
H306 C266 0.944 1_545 S
H307 C267 0.950 1_545 S
H308 C273 0.949 . S
H309 C274 0.950 . S
H310 C278 0.951 . S
H311 C279 0.950 . S
H312 C283 0.949 . S
H313 C284 0.950 . S
H314 C288 0.950 . S
H315 C290 0.950 . S
H316 C293 0.950 . S
H317 C295 0.950 . S
C318 C319 1.443 . S
C318 N322 1.376 . S
C318 C356 1.389 . S
C319 C318 1.443 . S
C319 C320 1.340 . S
C319 H359 0.951 . S
C320 C319 1.340 . S
C320 C321 1.439 . S
C320 H360 0.950 . S
C321 C320 1.439 . S
C321 N322 1.374 . S
C321 C355 1.395 . S
N322 C318 1.376 . S
N322 C321 1.374 . S
N322 Co323 2.008 . S
Co323 N322 2.008 . S
Co323 N324 1.995 . S
Co323 N329 2.008 . S
Co323 N334 1.995 . S
Co323 N339 2.282 . S
Co323 N345 2.282 . S
N324 Co323 1.995 . S
N324 C325 1.376 . S
N324 C328 1.383 . S
C325 N324 1.376 . S
C325 C326 1.446 . S
C325 C355 1.391 . S
C326 C325 1.446 . S
C326 C327 1.339 . S
C326 H361 0.949 . S
C327 C326 1.339 . S
C327 C328 1.439 . S
C327 H362 0.950 . S
C328 N324 1.383 . S
C328 C327 1.439 . S
C328 C357 1.392 . S
N329 Co323 2.008 . S
N329 C330 1.376 . S
N329 C333 1.374 . S
C330 N329 1.376 . S
C330 C331 1.450 . S
C330 C357 1.389 . S
C331 C330 1.450 . S
C331 C332 1.342 . S
C331 H363 0.944 1_655 S
C332 C331 1.342 . S
C332 C333 1.439 . S
C332 H364 0.950 1_655 S
C333 N329 1.374 . S
C333 C332 1.439 . S
C333 C358 1.395 . S
N334 Co323 1.995 . S
N334 C335 1.376 . S
N334 C338 1.383 . S
C335 N334 1.376 . S
C335 C336 1.446 . S
C335 C358 1.391 . S
C336 C335 1.446 . S
C336 C337 1.339 . S
C336 H365 0.949 . S
C337 C336 1.339 . S
C337 C338 1.439 . S
C337 H366 0.950 . S
C338 N334 1.383 . S
C338 C337 1.439 . S
C338 C356 1.392 . S
N339 Co323 2.282 . S
N339 C342 1.332 . S
N339 C344 1.332 . S
C340 C341 1.386 . S
C340 C343 1.388 . S
C341 C340 1.386 . S
C341 C342 1.382 . S
C341 H367 0.950 . S
C342 N339 1.332 . S
C342 C341 1.382 . S
C342 H353 0.952 . S
C343 C340 1.388 . S
C343 C344 1.382 . S
C343 H368 0.950 . S
C344 N339 1.332 . S
C344 C343 1.382 . S
C344 H354 0.948 . S
N345 Co323 2.282 . S
N345 C349 1.332 . S
N345 C350 1.332 . S
C346 C347 1.388 . S
C346 C350 1.382 . S
C346 H369 0.950 . S
C347 C346 1.388 . S
C347 C348 1.386 . S
C348 C347 1.386 . S
C348 C349 1.382 . S
C348 H370 0.950 . S
C349 N345 1.332 . S
C349 C348 1.382 . S
C349 H351 0.952 . S
C350 N345 1.332 . S
C350 C346 1.382 . S
C350 H352 0.948 . S
H351 C349 0.952 . S
H352 C350 0.948 . S
H353 C342 0.952 . S
H354 C344 0.948 . S
C355 C321 1.395 . S
C355 C325 1.391 . S
C356 C318 1.389 . S
C356 C338 1.392 . S
C357 C328 1.392 . S
C357 C330 1.389 . S
C358 C333 1.395 . S
C358 C335 1.391 . S
H359 C319 0.951 . S
H360 C320 0.950 . S
H361 C326 0.949 . S
H362 C327 0.950 . S
H363 C331 0.944 1_455 S
H364 C332 0.950 1_455 S
H365 C336 0.949 . S
H366 C337 0.950 . S
H367 C341 0.950 . S
H368 C343 0.950 . S
H369 C346 0.950 . S
H370 C348 0.950 . S
C371 C372 1.450 . S
C371 N375 1.376 . S
C371 C409 1.389 . S
C372 C371 1.450 . S
C372 C373 1.342 . S
C372 H412 0.944 1_545 S
C373 C372 1.342 . S
C373 C374 1.439 . S
C373 H413 0.950 1_545 S
C374 C373 1.439 . S
C374 N375 1.374 . S
C374 C408 1.395 . S
N375 C371 1.376 . S
N375 C374 1.374 . S
N375 Co376 2.008 . S
Co376 N375 2.008 . S
Co376 N377 1.995 . S
Co376 N382 2.008 . S
Co376 N387 1.995 . S
Co376 N392 2.282 . S
Co376 N398 2.282 . S
N377 Co376 1.995 . S
N377 C378 1.376 . S
N377 C381 1.383 . S
C378 N377 1.376 . S
C378 C379 1.446 . S
C378 C408 1.391 . S
C379 C378 1.446 . S
C379 C380 1.339 . S
C379 H414 0.949 . S
C380 C379 1.339 . S
C380 C381 1.439 . S
C380 H415 0.950 . S
C381 N377 1.383 . S
C381 C380 1.439 . S
C381 C410 1.392 . S
N382 Co376 2.008 . S
N382 C383 1.376 . S
N382 C386 1.374 . S
C383 N382 1.376 . S
C383 C384 1.443 . S
C383 C410 1.389 . S
C384 C383 1.443 . S
C384 C385 1.340 . S
C384 H416 0.951 . S
C385 C384 1.340 . S
C385 C386 1.439 . S
C385 H417 0.950 . S
C386 N382 1.374 . S
C386 C385 1.439 . S
C386 C411 1.395 . S
N387 Co376 1.995 . S
N387 C388 1.376 . S
N387 C391 1.383 . S
C388 N387 1.376 . S
C388 C389 1.446 . S
C388 C411 1.391 . S
C389 C388 1.446 . S
C389 C390 1.339 . S
C389 H418 0.949 . S
C390 C389 1.339 . S
C390 C391 1.439 . S
C390 H419 0.950 . S
C391 N387 1.383 . S
C391 C390 1.439 . S
C391 C409 1.392 . S
N392 Co376 2.282 . S
N392 C395 1.332 . S
N392 C397 1.332 . S
C393 C394 1.386 . S
C393 C396 1.388 . S
C394 C393 1.386 . S
C394 C395 1.382 . S
C394 H420 0.950 . S
C395 N392 1.332 . S
C395 C394 1.382 . S
C395 H406 0.952 . S
C396 C393 1.388 . S
C396 C397 1.382 . S
C396 H421 0.950 . S
C397 N392 1.332 . S
C397 C396 1.382 . S
C397 H407 0.948 . S
N398 Co376 2.282 . S
N398 C402 1.332 . S
N398 C403 1.332 . S
C399 C400 1.388 . S
C399 C403 1.382 . S
C399 H422 0.950 . S
C400 C399 1.388 . S
C400 C401 1.386 . S
C401 C400 1.386 . S
C401 C402 1.382 . S
C401 H423 0.950 . S
C402 N398 1.332 . S
C402 C401 1.382 . S
C402 H404 0.952 . S
C403 N398 1.332 . S
C403 C399 1.382 . S
C403 H405 0.948 . S
H404 C402 0.952 . S
H405 C403 0.948 . S
H406 C395 0.952 . S
H407 C397 0.948 . S
C408 C374 1.395 . S
C408 C378 1.391 . S
C409 C371 1.389 . S
C409 C391 1.392 . S
C410 C381 1.392 . S
C410 C383 1.389 . S
C411 C386 1.395 . S
C411 C388 1.391 . S
H412 C372 0.944 1_565 S
H413 C373 0.950 1_565 S
H414 C379 0.949 . S
H415 C380 0.950 . S
H416 C384 0.951 . S
H417 C385 0.950 . S
H418 C389 0.949 . S
H419 C390 0.950 . S
H420 C394 0.950 . S
H421 C396 0.950 . S
H422 C399 0.950 . S
H423 C401 0.950 . S
C424 C425 1.443 . S
C424 N428 1.376 . S
C424 C462 1.389 . S
C425 C424 1.443 . S
C425 C426 1.340 . S
C425 H465 0.951 . S
C426 C425 1.340 . S
C426 C427 1.439 . S
C426 H466 0.950 . S
C427 C426 1.439 . S
C427 N428 1.374 . S
C427 C461 1.395 . S
N428 C424 1.376 . S
N428 C427 1.374 . S
N428 Co429 2.008 . S
Co429 N428 2.008 . S
Co429 N430 1.995 . S
Co429 N435 2.008 . S
Co429 N440 1.995 . S
Co429 N445 2.282 . S
Co429 N451 2.282 . S
N430 Co429 1.995 . S
N430 C431 1.376 . S
N430 C434 1.383 . S
C431 N430 1.376 . S
C431 C432 1.446 . S
C431 C461 1.391 . S
C432 C431 1.446 . S
C432 C433 1.339 . S
C432 H467 0.949 . S
C433 C432 1.339 . S
C433 C434 1.439 . S
C433 H468 0.950 . S
C434 N430 1.383 . S
C434 C433 1.439 . S
C434 C463 1.392 . S
N435 Co429 2.008 . S
N435 C436 1.376 . S
N435 C439 1.374 . S
C436 N435 1.376 . S
C436 C437 1.443 . S
C436 C463 1.389 . S
C437 C436 1.443 . S
C437 C438 1.340 . S
C437 H469 0.951 . S
C438 C437 1.340 . S
C438 C439 1.439 . S
C438 H470 0.950 . S
C439 N435 1.374 . S
C439 C438 1.439 . S
C439 C464 1.395 . S
N440 Co429 1.995 . S
N440 C441 1.376 . S
N440 C444 1.383 . S
C441 N440 1.376 . S
C441 C442 1.446 . S
C441 C464 1.391 . S
C442 C441 1.446 . S
C442 C443 1.339 . S
C442 H471 0.949 . S
C443 C442 1.339 . S
C443 C444 1.439 . S
C443 H472 0.950 . S
C444 N440 1.383 . S
C444 C443 1.439 . S
C444 C462 1.392 . S
N445 Co429 2.282 . S
N445 C448 1.332 . S
N445 C450 1.332 . S
C446 C447 1.386 . S
C446 C449 1.388 . S
C447 C446 1.386 . S
C447 C448 1.382 . S
C447 H473 0.950 . S
C448 N445 1.332 . S
C448 C447 1.382 . S
C448 H459 0.952 . S
C449 C446 1.388 . S
C449 C450 1.382 . S
C449 H474 0.950 . S
C450 N445 1.332 . S
C450 C449 1.382 . S
C450 H460 0.948 . S
N451 Co429 2.282 . S
N451 C455 1.332 . S
N451 C456 1.332 . S
C452 C453 1.388 . S
C452 C456 1.382 . S
C452 H475 0.950 . S
C453 C452 1.388 . S
C453 C454 1.386 . S
C454 C453 1.386 . S
C454 C455 1.382 . S
C454 H476 0.950 . S
C455 N451 1.332 . S
C455 C454 1.382 . S
C455 H457 0.952 . S
C456 N451 1.332 . S
C456 C452 1.382 . S
C456 H458 0.948 . S
H457 C455 0.952 . S
H458 C456 0.948 . S
H459 C448 0.952 . S
H460 C450 0.948 . S
C461 C427 1.395 . S
C461 C431 1.391 . S
C462 C424 1.389 . S
C462 C444 1.392 . S
C463 C434 1.392 . S
C463 C436 1.389 . S
C464 C439 1.395 . S
C464 C441 1.391 . S
H465 C425 0.951 . S
H466 C426 0.950 . S
H467 C432 0.949 . S
H468 C433 0.950 . S
H469 C437 0.951 . S
H470 C438 0.950 . S
H471 C442 0.949 . S
H472 C443 0.950 . S
H473 C447 0.950 . S
H474 C449 0.950 . S
H475 C452 0.950 . S
H476 C454 0.950 . S
C477 C478 1.443 . S
C477 N481 1.376 . S
C477 C515 1.389 . S
C478 C477 1.443 . S
C478 C479 1.340 . S
C478 H518 0.951 . S
C479 C478 1.340 . S
C479 C480 1.439 . S
C479 H519 0.950 . S
C480 C479 1.439 . S
C480 N481 1.374 . S
C480 C514 1.395 . S
N481 C477 1.376 . S
N481 C480 1.374 . S
N481 Co482 2.008 . S
Co482 N481 2.008 . S
Co482 N483 1.995 . S
Co482 N488 2.008 . S
Co482 N493 1.995 . S
Co482 N498 2.282 . S
Co482 N504 2.282 . S
N483 Co482 1.995 . S
N483 C484 1.376 . S
N483 C487 1.383 . S
C484 N483 1.376 . S
C484 C485 1.446 . S
C484 C514 1.391 . S
C485 C484 1.446 . S
C485 C486 1.339 . S
C485 H520 0.949 . S
C486 C485 1.339 . S
C486 C487 1.439 . S
C486 H521 0.950 . S
C487 N483 1.383 . S
C487 C486 1.439 . S
C487 C516 1.392 . S
N488 Co482 2.008 . S
N488 C489 1.376 . S
N488 C492 1.374 . S
C489 N488 1.376 . S
C489 C490 1.443 . S
C489 C516 1.389 . S
C490 C489 1.443 . S
C490 C491 1.340 . S
C490 H522 0.951 . S
C491 C490 1.340 . S
C491 C492 1.439 . S
C491 H523 0.950 . S
C492 N488 1.374 . S
C492 C491 1.439 . S
C492 C517 1.395 . S
N493 Co482 1.995 . S
N493 C494 1.376 . S
N493 C497 1.383 . S
C494 N493 1.376 . S
C494 C495 1.446 . S
C494 C517 1.391 . S
C495 C494 1.446 . S
C495 C496 1.339 . S
C495 H524 0.949 . S
C496 C495 1.339 . S
C496 C497 1.439 . S
C496 H525 0.950 . S
C497 N493 1.383 . S
C497 C496 1.439 . S
C497 C515 1.392 . S
N498 Co482 2.282 . S
N498 C501 1.332 . S
N498 C503 1.332 . S
C499 C500 1.386 . S
C499 C502 1.388 . S
C500 C499 1.386 . S
C500 C501 1.382 . S
C500 H526 0.950 . S
C501 N498 1.332 . S
C501 C500 1.382 . S
C501 H512 0.952 . S
C502 C499 1.388 . S
C502 C503 1.382 . S
C502 H527 0.950 . S
C503 N498 1.332 . S
C503 C502 1.382 . S
C503 H513 0.948 . S
N504 Co482 2.282 . S
N504 C508 1.332 . S
N504 C509 1.332 . S
C505 C506 1.388 . S
C505 C509 1.382 . S
C505 H528 0.950 . S
C506 C505 1.388 . S
C506 C507 1.386 . S
C507 C506 1.386 . S
C507 C508 1.382 . S
C507 H529 0.950 . S
C508 N504 1.332 . S
C508 C507 1.382 . S
C508 H510 0.952 . S
C509 N504 1.332 . S
C509 C505 1.382 . S
C509 H511 0.948 . S
H510 C508 0.952 . S
H511 C509 0.948 . S
H512 C501 0.952 . S
H513 C503 0.948 . S
C514 C480 1.395 . S
C514 C484 1.391 . S
C515 C477 1.389 . S
C515 C497 1.392 . S
C516 C487 1.392 . S
C516 C489 1.389 . S
C517 C492 1.395 . S
C517 C494 1.391 . S
H518 C478 0.951 . S
H519 C479 0.950 . S
H520 C485 0.949 . S
H521 C486 0.950 . S
H522 C490 0.951 . S
H523 C491 0.950 . S
H524 C495 0.949 . S
H525 C496 0.950 . S
H526 C500 0.950 . S
H527 C502 0.950 . S
H528 C505 0.950 . S
H529 C507 0.950 . S
C530 C531 1.443 . S
C530 N534 1.376 . S
C530 C568 1.389 . S
C531 C530 1.443 . S
C531 C532 1.340 . S
C531 H571 0.951 . S
C532 C531 1.340 . S
C532 C533 1.439 . S
C532 H572 0.950 . S
C533 C532 1.439 . S
C533 N534 1.374 . S
C533 C567 1.395 . S
N534 C530 1.376 . S
N534 C533 1.374 . S
N534 Co535 2.008 . S
Co535 N534 2.008 . S
Co535 N536 1.995 . S
Co535 N541 2.008 . S
Co535 N546 1.995 . S
Co535 N551 2.282 . S
Co535 N557 2.282 . S
N536 Co535 1.995 . S
N536 C537 1.376 . S
N536 C540 1.383 . S
C537 N536 1.376 . S
C537 C538 1.446 . S
C537 C567 1.391 . S
C538 C537 1.446 . S
C538 C539 1.339 . S
C538 H573 0.949 . S
C539 C538 1.339 . S
C539 C540 1.439 . S
C539 H574 0.950 . S
C540 N536 1.383 . S
C540 C539 1.439 . S
C540 C569 1.392 . S
N541 Co535 2.008 . S
N541 C542 1.376 . S
N541 C545 1.374 . S
C542 N541 1.376 . S
C542 C543 1.443 . S
C542 C569 1.389 . S
C543 C542 1.443 . S
C543 C544 1.340 . S
C543 H575 0.951 . S
C544 C543 1.340 . S
C544 C545 1.439 . S
C544 H576 0.950 . S
C545 N541 1.374 . S
C545 C544 1.439 . S
C545 C570 1.395 . S
N546 Co535 1.995 . S
N546 C547 1.376 . S
N546 C550 1.383 . S
C547 N546 1.376 . S
C547 C548 1.446 . S
C547 C570 1.391 . S
C548 C547 1.446 . S
C548 C549 1.339 . S
C548 H577 0.949 . S
C549 C548 1.339 . S
C549 C550 1.439 . S
C549 H578 0.950 . S
C550 N546 1.383 . S
C550 C549 1.439 . S
C550 C568 1.392 . S
N551 Co535 2.282 . S
N551 C554 1.332 . S
N551 C556 1.332 . S
C552 C553 1.386 . S
C552 C555 1.388 . S
C553 C552 1.386 . S
C553 C554 1.382 . S
C553 H579 0.950 . S
C554 N551 1.332 . S
C554 C553 1.382 . S
C554 H565 0.952 . S
C555 C552 1.388 . S
C555 C556 1.382 . S
C555 H580 0.950 . S
C556 N551 1.332 . S
C556 C555 1.382 . S
C556 H566 0.948 . S
N557 Co535 2.282 . S
N557 C561 1.332 . S
N557 C562 1.332 . S
C558 C559 1.388 . S
C558 C562 1.382 . S
C558 H581 0.950 . S
C559 C558 1.388 . S
C559 C560 1.386 . S
C560 C559 1.386 . S
C560 C561 1.382 . S
C560 H582 0.950 . S
C561 N557 1.332 . S
C561 C560 1.382 . S
C561 H563 0.952 . S
C562 N557 1.332 . S
C562 C558 1.382 . S
C562 H564 0.948 . S
H563 C561 0.952 . S
H564 C562 0.948 . S
H565 C554 0.952 . S
H566 C556 0.948 . S
C567 C533 1.395 . S
C567 C537 1.391 . S
C568 C530 1.389 . S
C568 C550 1.392 . S
C569 C540 1.392 . S
C569 C542 1.389 . S
C570 C545 1.395 . S
C570 C547 1.391 . S
H571 C531 0.951 . S
H572 C532 0.950 . S
H573 C538 0.949 . S
H574 C539 0.950 . S
H575 C543 0.951 . S
H576 C544 0.950 . S
H577 C548 0.949 . S
H578 C549 0.950 . S
H579 C553 0.950 . S
H580 C555 0.950 . S
H581 C558 0.950 . S
H582 C560 0.950 . S
C583 C584 1.443 . S
C583 N587 1.376 . S
C583 C621 1.389 . S
C584 C583 1.443 . S
C584 C585 1.340 . S
C584 H624 0.951 . S
C585 C584 1.340 . S
C585 C586 1.439 . S
C585 H625 0.950 . S
C586 C585 1.439 . S
C586 N587 1.374 . S
C586 C620 1.395 . S
N587 C583 1.376 . S
N587 C586 1.374 . S
N587 Co588 2.008 . S
Co588 N587 2.008 . S
Co588 N589 1.995 . S
Co588 N594 2.008 . S
Co588 N599 1.995 . S
Co588 N604 2.282 . S
Co588 N610 2.282 . S
N589 Co588 1.995 . S
N589 C590 1.376 . S
N589 C593 1.383 . S
C590 N589 1.376 . S
C590 C591 1.446 . S
C590 C620 1.391 . S
C591 C590 1.446 . S
C591 C592 1.339 . S
C591 H626 0.949 . S
C592 C591 1.339 . S
C592 C593 1.439 . S
C592 H627 0.950 . S
C593 N589 1.383 . S
C593 C592 1.439 . S
C593 C622 1.392 . S
N594 Co588 2.008 . S
N594 C595 1.376 . S
N594 C598 1.374 . S
C595 N594 1.376 . S
C595 C596 1.443 . S
C595 C622 1.389 . S
C596 C595 1.443 . S
C596 C597 1.340 . S
C596 H628 0.951 . S
C597 C596 1.340 . S
C597 C598 1.439 . S
C597 H629 0.950 . S
C598 N594 1.374 . S
C598 C597 1.439 . S
C598 C623 1.395 . S
N599 Co588 1.995 . S
N599 C600 1.376 . S
N599 C603 1.383 . S
C600 N599 1.376 . S
C600 C601 1.446 . S
C600 C623 1.391 . S
C601 C600 1.446 . S
C601 C602 1.339 . S
C601 H630 0.949 . S
C602 C601 1.339 . S
C602 C603 1.439 . S
C602 H631 0.950 . S
C603 N599 1.383 . S
C603 C602 1.439 . S
C603 C621 1.392 . S
N604 Co588 2.282 . S
N604 C607 1.332 . S
N604 C609 1.332 . S
C605 C606 1.386 . S
C605 C608 1.388 . S
C606 C605 1.386 . S
C606 C607 1.382 . S
C606 H632 0.950 . S
C607 N604 1.332 . S
C607 C606 1.382 . S
C607 H618 0.952 . S
C608 C605 1.388 . S
C608 C609 1.382 . S
C608 H633 0.950 . S
C609 N604 1.332 . S
C609 C608 1.382 . S
C609 H619 0.948 . S
N610 Co588 2.282 . S
N610 C614 1.332 . S
N610 C615 1.332 . S
C611 C612 1.388 . S
C611 C615 1.382 . S
C611 H634 0.950 . S
C612 C611 1.388 . S
C612 C613 1.386 . S
C613 C612 1.386 . S
C613 C614 1.382 . S
C613 H635 0.950 . S
C614 N610 1.332 . S
C614 C613 1.382 . S
C614 H616 0.952 . S
C615 N610 1.332 . S
C615 C611 1.382 . S
C615 H617 0.948 . S
H616 C614 0.952 . S
H617 C615 0.948 . S
H618 C607 0.952 . S
H619 C609 0.948 . S
C620 C586 1.395 . S
C620 C590 1.391 . S
C621 C583 1.389 . S
C621 C603 1.392 . S
C622 C593 1.392 . S
C622 C595 1.389 . S
C623 C598 1.395 . S
C623 C600 1.391 . S
H624 C584 0.951 . S
H625 C585 0.950 . S
H626 C591 0.949 . S
H627 C592 0.950 . S
H628 C596 0.951 . S
H629 C597 0.950 . S
H630 C601 0.949 . S
H631 C602 0.950 . S
H632 C606 0.950 . S
H633 C608 0.950 . S
H634 C611 0.950 . S
H635 C613 0.950 . S
C636 C637 1.443 . S
C636 N640 1.376 . S
C636 C674 1.389 . S
C637 C636 1.443 . S
C637 C638 1.340 . S
C637 H677 0.951 . S
C638 C637 1.340 . S
C638 C639 1.439 . S
C638 H678 0.950 . S
C639 C638 1.439 . S
C639 N640 1.374 . S
C639 C673 1.395 . S
N640 C636 1.376 . S
N640 C639 1.374 . S
N640 Co641 2.008 . S
Co641 N640 2.008 . S
Co641 N642 1.995 . S
Co641 N647 2.008 . S
Co641 N652 1.995 . S
Co641 N657 2.282 . S
Co641 N663 2.282 . S
N642 Co641 1.995 . S
N642 C643 1.376 . S
N642 C646 1.383 . S
C643 N642 1.376 . S
C643 C644 1.446 . S
C643 C673 1.391 . S
C644 C643 1.446 . S
C644 C645 1.339 . S
C644 H679 0.949 . S
C645 C644 1.339 . S
C645 C646 1.439 . S
C645 H680 0.950 . S
C646 N642 1.383 . S
C646 C645 1.439 . S
C646 C675 1.392 . S
N647 Co641 2.008 . S
N647 C648 1.376 . S
N647 C651 1.374 . S
C648 N647 1.376 . S
C648 C649 1.443 . S
C648 C675 1.389 . S
C649 C648 1.443 . S
C649 C650 1.340 . S
C649 H681 0.951 . S
C650 C649 1.340 . S
C650 C651 1.439 . S
C650 H682 0.950 . S
C651 N647 1.374 . S
C651 C650 1.439 . S
C651 C676 1.395 . S
N652 Co641 1.995 . S
N652 C653 1.376 . S
N652 C656 1.383 . S
C653 N652 1.376 . S
C653 C654 1.446 . S
C653 C676 1.391 . S
C654 C653 1.446 . S
C654 C655 1.339 . S
C654 H683 0.949 . S
C655 C654 1.339 . S
C655 C656 1.439 . S
C655 H684 0.950 . S
C656 N652 1.383 . S
C656 C655 1.439 . S
C656 C674 1.392 . S
N657 Co641 2.282 . S
N657 C660 1.332 . S
N657 C662 1.332 . S
C658 C659 1.386 . S
C658 C661 1.388 . S
C659 C658 1.386 . S
C659 C660 1.382 . S
C659 H685 0.950 . S
C660 N657 1.332 . S
C660 C659 1.382 . S
C660 H671 0.952 . S
C661 C658 1.388 . S
C661 C662 1.382 . S
C661 H686 0.950 . S
C662 N657 1.332 . S
C662 C661 1.382 . S
C662 H672 0.948 . S
N663 Co641 2.282 . S
N663 C667 1.332 . S
N663 C668 1.332 . S
C664 C665 1.388 . S
C664 C668 1.382 . S
C664 H687 0.950 . S
C665 C664 1.388 . S
C665 C666 1.386 . S
C666 C665 1.386 . S
C666 C667 1.382 . S
C666 H688 0.950 . S
C667 N663 1.332 . S
C667 C666 1.382 . S
C667 H669 0.952 . S
C668 N663 1.332 . S
C668 C664 1.382 . S
C668 H670 0.948 . S
H669 C667 0.952 . S
H670 C668 0.948 . S
H671 C660 0.952 . S
H672 C662 0.948 . S
C673 C639 1.395 . S
C673 C643 1.391 . S
C674 C636 1.389 . S
C674 C656 1.392 . S
C675 C646 1.392 . S
C675 C648 1.389 . S
C676 C651 1.395 . S
C676 C653 1.391 . S
H677 C637 0.951 . S
H678 C638 0.950 . S
H679 C644 0.949 . S
H680 C645 0.950 . S
H681 C649 0.951 . S
H682 C650 0.950 . S
H683 C654 0.949 . S
H684 C655 0.950 . S
H685 C659 0.950 . S
H686 C661 0.950 . S
H687 C664 0.950 . S
H688 C666 0.950 . S
C689 C690 1.443 . S
C689 N693 1.376 . S
C689 C727 1.389 . S
C690 C689 1.443 . S
C690 C691 1.340 . S
C690 H730 0.951 . S
C691 C690 1.340 . S
C691 C692 1.439 . S
C691 H731 0.950 . S
C692 C691 1.439 . S
C692 N693 1.374 . S
C692 C726 1.395 . S
N693 C689 1.376 . S
N693 C692 1.374 . S
N693 Co694 2.008 . S
Co694 N693 2.008 . S
Co694 N695 1.995 . S
Co694 N700 2.008 . S
Co694 N705 1.995 . S
Co694 N710 2.282 . S
Co694 N716 2.282 . S
N695 Co694 1.995 . S
N695 C696 1.376 . S
N695 C699 1.383 . S
C696 N695 1.376 . S
C696 C697 1.446 . S
C696 C726 1.391 . S
C697 C696 1.446 . S
C697 C698 1.339 . S
C697 H732 0.949 . S
C698 C697 1.339 . S
C698 C699 1.439 . S
C698 H733 0.950 . S
C699 N695 1.383 . S
C699 C698 1.439 . S
C699 C728 1.392 . S
N700 Co694 2.008 . S
N700 C701 1.376 . S
N700 C704 1.374 . S
C701 N700 1.376 . S
C701 C702 1.443 . S
C701 C728 1.389 . S
C702 C701 1.443 . S
C702 C703 1.340 . S
C702 H734 0.951 . S
C703 C702 1.340 . S
C703 C704 1.439 . S
C703 H735 0.950 . S
C704 N700 1.374 . S
C704 C703 1.439 . S
C704 C729 1.395 . S
N705 Co694 1.995 . S
N705 C706 1.376 . S
N705 C709 1.383 . S
C706 N705 1.376 . S
C706 C707 1.446 . S
C706 C729 1.391 . S
C707 C706 1.446 . S
C707 C708 1.339 . S
C707 H736 0.949 . S
C708 C707 1.339 . S
C708 C709 1.439 . S
C708 H737 0.950 . S
C709 N705 1.383 . S
C709 C708 1.439 . S
C709 C727 1.392 . S
N710 Co694 2.282 . S
N710 C713 1.332 . S
N710 C715 1.332 . S
C711 C712 1.386 . S
C711 C714 1.388 . S
C712 C711 1.386 . S
C712 C713 1.382 . S
C712 H738 0.950 . S
C713 N710 1.332 . S
C713 C712 1.382 . S
C713 H724 0.952 . S
C714 C711 1.388 . S
C714 C715 1.382 . S
C714 H739 0.950 . S
C715 N710 1.332 . S
C715 C714 1.382 . S
C715 H725 0.948 . S
N716 Co694 2.282 . S
N716 C720 1.332 . S
N716 C721 1.332 . S
C717 C718 1.388 . S
C717 C721 1.382 . S
C717 H740 0.950 . S
C718 C717 1.388 . S
C718 C719 1.386 . S
C719 C718 1.386 . S
C719 C720 1.382 . S
C719 H741 0.950 . S
C720 N716 1.332 . S
C720 C719 1.382 . S
C720 H722 0.952 . S
C721 N716 1.332 . S
C721 C717 1.382 . S
C721 H723 0.948 . S
H722 C720 0.952 . S
H723 C721 0.948 . S
H724 C713 0.952 . S
H725 C715 0.948 . S
C726 C692 1.395 . S
C726 C696 1.391 . S
C727 C689 1.389 . S
C727 C709 1.392 . S
C728 C699 1.392 . S
C728 C701 1.389 . S
C729 C704 1.395 . S
C729 C706 1.391 . S
H730 C690 0.951 . S
H731 C691 0.950 . S
H732 C697 0.949 . S
H733 C698 0.950 . S
H734 C702 0.951 . S
H735 C703 0.950 . S
H736 C707 0.949 . S
H737 C708 0.950 . S
H738 C712 0.950 . S
H739 C714 0.950 . S
H740 C717 0.950 . S
H741 C719 0.950 . S
C742 C743 1.443 . S
C742 N746 1.376 . S
C742 C780 1.389 . S
C743 C742 1.443 . S
C743 C744 1.340 . S
C743 H783 0.951 . S
C744 C743 1.340 . S
C744 C745 1.439 . S
C744 H784 0.950 . S
C745 C744 1.439 . S
C745 N746 1.374 . S
C745 C779 1.395 . S
N746 C742 1.376 . S
N746 C745 1.374 . S
N746 Co747 2.008 . S
Co747 N746 2.008 . S
Co747 N748 1.995 . S
Co747 N753 2.008 . S
Co747 N758 1.995 . S
Co747 N763 2.282 . S
Co747 N769 2.282 . S
N748 Co747 1.995 . S
N748 C749 1.376 . S
N748 C752 1.383 . S
C749 N748 1.376 . S
C749 C750 1.446 . S
C749 C779 1.391 . S
C750 C749 1.446 . S
C750 C751 1.339 . S
C750 H785 0.949 . S
C751 C750 1.339 . S
C751 C752 1.439 . S
C751 H786 0.950 . S
C752 N748 1.383 . S
C752 C751 1.439 . S
C752 C781 1.392 . S
N753 Co747 2.008 . S
N753 C754 1.376 . S
N753 C757 1.374 . S
C754 N753 1.376 . S
C754 C755 1.443 . S
C754 C781 1.389 . S
C755 C754 1.443 . S
C755 C756 1.340 . S
C755 H787 0.951 . S
C756 C755 1.340 . S
C756 C757 1.439 . S
C756 H788 0.950 . S
C757 N753 1.374 . S
C757 C756 1.439 . S
C757 C782 1.395 . S
N758 Co747 1.995 . S
N758 C759 1.376 . S
N758 C762 1.383 . S
C759 N758 1.376 . S
C759 C760 1.446 . S
C759 C782 1.391 . S
C760 C759 1.446 . S
C760 C761 1.339 . S
C760 H789 0.949 . S
C761 C760 1.339 . S
C761 C762 1.439 . S
C761 H790 0.950 . S
C762 N758 1.383 . S
C762 C761 1.439 . S
C762 C780 1.392 . S
N763 Co747 2.282 . S
N763 C766 1.332 . S
N763 C768 1.332 . S
C764 C765 1.386 . S
C764 C767 1.388 . S
C765 C764 1.386 . S
C765 C766 1.382 . S
C765 H791 0.950 . S
C766 N763 1.332 . S
C766 C765 1.382 . S
C766 H777 0.952 . S
C767 C764 1.388 . S
C767 C768 1.382 . S
C767 H792 0.950 . S
C768 N763 1.332 . S
C768 C767 1.382 . S
C768 H778 0.948 . S
N769 Co747 2.282 . S
N769 C773 1.332 . S
N769 C774 1.332 . S
C770 C771 1.388 . S
C770 C774 1.382 . S
C770 H793 0.950 . S
C771 C770 1.388 . S
C771 C772 1.386 . S
C772 C771 1.386 . S
C772 C773 1.382 . S
C772 H794 0.950 . S
C773 N769 1.332 . S
C773 C772 1.382 . S
C773 H775 0.952 . S
C774 N769 1.332 . S
C774 C770 1.382 . S
C774 H776 0.948 . S
H775 C773 0.952 . S
H776 C774 0.948 . S
H777 C766 0.952 . S
H778 C768 0.948 . S
C779 C745 1.395 . S
C779 C749 1.391 . S
C780 C742 1.389 . S
C780 C762 1.392 . S
C781 C752 1.392 . S
C781 C754 1.389 . S
C782 C757 1.395 . S
C782 C759 1.391 . S
H783 C743 0.951 . S
H784 C744 0.950 . S
H785 C750 0.949 . S
H786 C751 0.950 . S
H787 C755 0.951 . S
H788 C756 0.950 . S
H789 C760 0.949 . S
H790 C761 0.950 . S
H791 C765 0.950 . S
H792 C767 0.950 . S
H793 C770 0.950 . S
H794 C772 0.950 . S
C795 C796 1.443 . S
C795 N799 1.376 . S
C795 C833 1.389 . S
C796 C795 1.443 . S
C796 C797 1.340 . S
C796 H836 0.951 . S
C797 C796 1.340 . S
C797 C798 1.439 . S
C797 H837 0.950 . S
C798 C797 1.439 . S
C798 N799 1.374 . S
C798 C832 1.395 . S
N799 C795 1.376 . S
N799 C798 1.374 . S
N799 Co800 2.008 . S
Co800 N799 2.008 . S
Co800 N801 1.995 . S
Co800 N806 2.008 . S
Co800 N811 1.995 . S
Co800 N816 2.282 . S
Co800 N822 2.282 . S
N801 Co800 1.995 . S
N801 C802 1.376 . S
N801 C805 1.383 . S
C802 N801 1.376 . S
C802 C803 1.446 . S
C802 C832 1.391 . S
C803 C802 1.446 . S
C803 C804 1.339 . S
C803 H838 0.949 . S
C804 C803 1.339 . S
C804 C805 1.439 . S
C804 H839 0.950 . S
C805 N801 1.383 . S
C805 C804 1.439 . S
C805 C834 1.392 . S
N806 Co800 2.008 . S
N806 C807 1.376 . S
N806 C810 1.374 . S
C807 N806 1.376 . S
C807 C808 1.443 . S
C807 C834 1.389 . S
C808 C807 1.443 . S
C808 C809 1.340 . S
C808 H840 0.951 . S
C809 C808 1.340 . S
C809 C810 1.439 . S
C809 H841 0.950 . S
C810 N806 1.374 . S
C810 C809 1.439 . S
C810 C835 1.395 . S
N811 Co800 1.995 . S
N811 C812 1.376 . S
N811 C815 1.383 . S
C812 N811 1.376 . S
C812 C813 1.446 . S
C812 C835 1.391 . S
C813 C812 1.446 . S
C813 C814 1.339 . S
C813 H842 0.949 . S
C814 C813 1.339 . S
C814 C815 1.439 . S
C814 H843 0.950 . S
C815 N811 1.383 . S
C815 C814 1.439 . S
C815 C833 1.392 . S
N816 Co800 2.282 . S
N816 C819 1.332 . S
N816 C821 1.332 . S
C817 C818 1.386 . S
C817 C820 1.388 . S
C818 C817 1.386 . S
C818 C819 1.382 . S
C818 H844 0.950 . S
C819 N816 1.332 . S
C819 C818 1.382 . S
C819 H830 0.952 . S
C820 C817 1.388 . S
C820 C821 1.382 . S
C820 H845 0.950 . S
C821 N816 1.332 . S
C821 C820 1.382 . S
C821 H831 0.948 . S
N822 Co800 2.282 . S
N822 C826 1.332 . S
N822 C827 1.332 . S
C823 C824 1.388 . S
C823 C827 1.382 . S
C823 H846 0.950 . S
C824 C823 1.388 . S
C824 C825 1.386 . S
C825 C824 1.386 . S
C825 C826 1.382 . S
C825 H847 0.950 . S
C826 N822 1.332 . S
C826 C825 1.382 . S
C826 H828 0.952 . S
C827 N822 1.332 . S
C827 C823 1.382 . S
C827 H829 0.948 . S
H828 C826 0.952 . S
H829 C827 0.948 . S
H830 C819 0.952 . S
H831 C821 0.948 . S
C832 C798 1.395 . S
C832 C802 1.391 . S
C833 C795 1.389 . S
C833 C815 1.392 . S
C834 C805 1.392 . S
C834 C807 1.389 . S
C835 C810 1.395 . S
C835 C812 1.391 . S
H836 C796 0.951 . S
H837 C797 0.950 . S
H838 C803 0.949 . S
H839 C804 0.950 . S
H840 C808 0.951 . S
H841 C809 0.950 . S
H842 C813 0.949 . S
H843 C814 0.950 . S
H844 C818 0.950 . S
H845 C820 0.950 . S
H846 C823 0.950 . S
H847 C825 0.950 . S
H848 C866 0.951 . S
H849 C868 0.951 . S
H850 C870 0.950 . S
H851 C871 0.950 . S
H852 C873 0.950 . S
H853 C876 0.950 . S
H854 C877 0.950 . S
H855 C879 0.950 . S
H856 C880 0.950 . S
H857 C881 0.951 . S
H858 C883 0.951 . S
H859 C885 0.950 . S
H860 C886 0.950 . S
H861 C888 0.950 . S
H862 C891 0.950 . S
H863 C892 0.950 . S
H864 C894 0.950 . S
H865 C895 0.950 . S
C866 H848 0.951 . S
C866 C867 1.366 . S
C866 C868 1.388 . S
C867 C866 1.366 . S
C867 C871 1.385 . S
C868 H849 0.951 . S
C868 C866 1.388 . S
C868 C869 1.366 . S
C869 C868 1.366 . S
C869 C870 1.414 . S
C869 C872 1.499 . S
C870 H850 0.950 . S
C870 C869 1.414 . S
C870 C871 1.374 . S
C871 H851 0.950 . S
C871 C867 1.385 . S
C871 C870 1.374 . S
C872 C869 1.499 . S
C872 C873 1.373 . S
C872 C874 1.389 . S
C873 H852 0.950 . S
C873 C872 1.373 . S
C873 C889 1.377 . S
C874 C872 1.389 . S
C874 C875 1.524 . S
C874 C888 1.377 . S
C875 C874 1.524 . S
C875 C876 1.397 . S
C875 C880 1.363 . S
C876 H853 0.950 . S
C876 C875 1.397 . S
C876 C877 1.334 . S
C877 H854 0.950 . S
C877 C876 1.334 . S
C877 C878 1.287 . S
C878 C877 1.287 . S
C878 C879 1.524 . S
C878 H897 0.913 . S
C879 H855 0.950 . S
C879 C878 1.524 . S
C879 C880 1.415 . S
C880 H856 0.950 . S
C880 C875 1.363 . S
C880 C879 1.415 . S
C881 H857 0.951 . S
C881 C882 1.366 . S
C881 C883 1.388 . S
C882 C881 1.366 . S
C882 C886 1.385 . S
C883 H858 0.951 . S
C883 C881 1.388 . S
C883 C884 1.366 . S
C884 C883 1.366 . S
C884 C885 1.414 . S
C884 C887 1.499 . S
C885 H859 0.950 . S
C885 C884 1.414 . S
C885 C886 1.374 . S
C886 H860 0.950 . S
C886 C882 1.385 . S
C886 C885 1.374 . S
C887 C884 1.499 . S
C887 C888 1.373 . S
C887 C889 1.389 . S
C888 H861 0.950 . S
C888 C874 1.377 . S
C888 C887 1.373 . S
C889 C873 1.377 . S
C889 C887 1.389 . S
C889 C890 1.524 . S
C890 C889 1.524 . S
C890 C891 1.397 . S
C890 C895 1.363 . S
C891 H862 0.950 . S
C891 C890 1.397 . S
C891 C892 1.334 . S
C892 H863 0.950 . S
C892 C891 1.334 . S
C892 C893 1.287 . S
C893 C892 1.287 . S
C893 C894 1.524 . S
C893 H896 0.999 . S
C894 H864 0.950 . S
C894 C893 1.524 . S
C894 C895 1.415 . S
C895 H865 0.950 . S
C895 C890 1.363 . S
C895 C894 1.415 . S
H896 C893 0.999 . S
H897 C878 0.913 . S
H898 C916 0.951 . S
H899 C918 0.951 . S
H900 C920 0.950 . S
H901 C921 0.950 . S
H902 C923 0.950 . S
H903 C926 0.950 . S
H904 C927 0.950 . S
H905 C929 0.950 . S
H906 C930 0.950 . S
H907 C931 0.951 . S
H908 C933 0.951 . S
H909 C935 0.950 . S
H910 C936 0.950 . S
H911 C938 0.950 . S
H912 C941 0.950 . S
H913 C942 0.950 . S
H914 C944 0.950 . S
H915 C945 0.950 . S
C916 H898 0.951 . S
C916 C917 1.366 . S
C916 C918 1.388 . S
C917 C916 1.366 . S
C917 C921 1.385 . S
C918 H899 0.951 . S
C918 C916 1.388 . S
C918 C919 1.366 . S
C919 C918 1.366 . S
C919 C920 1.414 . S
C919 C922 1.499 . S
C920 H900 0.950 . S
C920 C919 1.414 . S
C920 C921 1.374 . S
C921 H901 0.950 . S
C921 C917 1.385 . S
C921 C920 1.374 . S
C922 C919 1.499 . S
C922 C923 1.373 . S
C922 C924 1.389 . S
C923 H902 0.950 . S
C923 C922 1.373 . S
C923 C939 1.377 . S
C924 C922 1.389 . S
C924 C925 1.524 . S
C924 C938 1.377 . S
C925 C924 1.524 . S
C925 C926 1.397 . S
C925 C930 1.363 . S
C926 H903 0.950 . S
C926 C925 1.397 . S
C926 C927 1.334 . S
C927 H904 0.950 . S
C927 C926 1.334 . S
C927 C928 1.287 . S
C928 C927 1.287 . S
C928 C929 1.524 . S
C928 H947 0.913 . S
C929 H905 0.950 . S
C929 C928 1.524 . S
C929 C930 1.415 . S
C930 H906 0.950 . S
C930 C925 1.363 . S
C930 C929 1.415 . S
C931 H907 0.951 . S
C931 C932 1.366 . S
C931 C933 1.388 . S
C932 C931 1.366 . S
C932 C936 1.385 . S
C933 H908 0.951 . S
C933 C931 1.388 . S
C933 C934 1.366 . S
C934 C933 1.366 . S
C934 C935 1.414 . S
C934 C937 1.499 . S
C935 H909 0.950 . S
C935 C934 1.414 . S
C935 C936 1.374 . S
C936 H910 0.950 . S
C936 C932 1.385 . S
C936 C935 1.374 . S
C937 C934 1.499 . S
C937 C938 1.373 . S
C937 C939 1.389 . S
C938 H911 0.950 . S
C938 C924 1.377 . S
C938 C937 1.373 . S
C939 C923 1.377 . S
C939 C937 1.389 . S
C939 C940 1.524 . S
C940 C939 1.524 . S
C940 C941 1.397 . S
C940 C945 1.363 . S
C941 H912 0.950 . S
C941 C940 1.397 . S
C941 C942 1.334 . S
C942 H913 0.950 . S
C942 C941 1.334 . S
C942 C943 1.287 . S
C943 C942 1.287 . S
C943 C944 1.524 . S
C943 H946 0.999 . S
C944 H914 0.950 . S
C944 C943 1.524 . S
C944 C945 1.415 . S
C945 H915 0.950 . S
C945 C940 1.363 . S
C945 C944 1.415 . S
H946 C943 0.999 . S
H947 C928 0.913 . S
H948 C966 0.951 . S
H949 C968 0.951 . S
H950 C970 0.950 . S
H951 C971 0.950 . S
H952 C973 0.950 . S
H953 C976 0.950 . S
H954 C977 0.950 . S
H955 C979 0.950 . S
H956 C980 0.950 . S
H957 C981 0.951 . S
H958 C983 0.951 . S
H959 C985 0.950 . S
H960 C986 0.950 . S
H961 C988 0.950 . S
H962 C991 0.950 . S
H963 C992 0.950 . S
H964 C994 0.950 . S
H965 C995 0.950 . S
C966 H948 0.951 . S
C966 C967 1.366 . S
C966 C968 1.388 . S
C967 C966 1.366 . S
C967 C971 1.385 . S
C968 H949 0.951 . S
C968 C966 1.388 . S
C968 C969 1.366 . S
C969 C968 1.366 . S
C969 C970 1.414 . S
C969 C972 1.499 . S
C970 H950 0.950 . S
C970 C969 1.414 . S
C970 C971 1.374 . S
C971 H951 0.950 . S
C971 C967 1.385 . S
C971 C970 1.374 . S
C972 C969 1.499 . S
C972 C973 1.373 . S
C972 C974 1.389 . S
C973 H952 0.950 . S
C973 C972 1.373 . S
C973 C989 1.377 . S
C974 C972 1.389 . S
C974 C975 1.524 . S
C974 C988 1.377 . S
C975 C974 1.524 . S
C975 C976 1.397 . S
C975 C980 1.363 . S
C976 H953 0.950 . S
C976 C975 1.397 . S
C976 C977 1.334 . S
C977 H954 0.950 . S
C977 C976 1.334 . S
C977 C978 1.287 . S
C978 C977 1.287 . S
C978 C979 1.524 . S
C978 H997 0.913 . S
C979 H955 0.950 . S
C979 C978 1.524 . S
C979 C980 1.415 . S
C980 H956 0.950 . S
C980 C975 1.363 . S
C980 C979 1.415 . S
C981 H957 0.951 . S
C981 C982 1.366 . S
C981 C983 1.388 . S
C982 C981 1.366 . S
C982 C986 1.385 . S
C983 H958 0.951 . S
C983 C981 1.388 . S
C983 C984 1.366 . S
C984 C983 1.366 . S
C984 C985 1.414 . S
C984 C987 1.499 . S
C985 H959 0.950 . S
C985 C984 1.414 . S
C985 C986 1.374 . S
C986 H960 0.950 . S
C986 C982 1.385 . S
C986 C985 1.374 . S
C987 C984 1.499 . S
C987 C988 1.373 . S
C987 C989 1.389 . S
C988 H961 0.950 . S
C988 C974 1.377 . S
C988 C987 1.373 . S
C989 C973 1.377 . S
C989 C987 1.389 . S
C989 C990 1.524 . S
C990 C989 1.524 . S
C990 C991 1.397 . S
C990 C995 1.363 . S
C991 H962 0.950 . S
C991 C990 1.397 . S
C991 C992 1.334 . S
C992 H963 0.950 . S
C992 C991 1.334 . S
C992 C993 1.287 . S
C993 C992 1.287 . S
C993 C994 1.524 . S
C993 H996 0.999 . S
C994 H964 0.950 . S
C994 C993 1.524 . S
C994 C995 1.415 . S
C995 H965 0.950 . S
C995 C990 1.363 . S
C995 C994 1.415 . S
H996 C993 0.999 . S
H997 C978 0.913 . S
H998 C1016 0.951 . S
H999 C1018 0.951 . S
H1000 C1020 0.950 . S
H1001 C1021 0.950 . S
H1002 C1023 0.950 . S
H1003 C1026 0.950 . S
H1004 C1027 0.950 . S
H1005 C1029 0.950 . S
H1006 C1030 0.950 . S
H1007 C1031 0.951 . S
H1008 C1033 0.951 . S
H1009 C1035 0.950 . S
H1010 C1036 0.950 . S
H1011 C1038 0.950 . S
H1012 C1041 0.950 . S
H1013 C1042 0.950 . S
H1014 C1044 0.950 . S
H1015 C1045 0.950 . S
C1016 H998 0.951 . S
C1016 C1017 1.366 . S
C1016 C1018 1.388 . S
C1017 C1016 1.366 . S
C1017 C1021 1.385 . S
C1018 H999 0.951 . S
C1018 C1016 1.388 . S
C1018 C1019 1.366 . S
C1019 C1018 1.366 . S
C1019 C1020 1.414 . S
C1019 C1022 1.499 . S
C1020 H1000 0.950 . S
C1020 C1019 1.414 . S
C1020 C1021 1.374 . S
C1021 H1001 0.950 . S
C1021 C1017 1.385 . S
C1021 C1020 1.374 . S
C1022 C1019 1.499 . S
C1022 C1023 1.373 . S
C1022 C1024 1.389 . S
C1023 H1002 0.950 . S
C1023 C1022 1.373 . S
C1023 C1039 1.377 . S
C1024 C1022 1.389 . S
C1024 C1025 1.524 . S
C1024 C1038 1.377 . S
C1025 C1024 1.524 . S
C1025 C1026 1.397 . S
C1025 C1030 1.363 . S
C1026 H1003 0.950 . S
C1026 C1025 1.397 . S
C1026 C1027 1.334 . S
C1027 H1004 0.950 . S
C1027 C1026 1.334 . S
C1027 C1028 1.287 . S
C1028 C1027 1.287 . S
C1028 C1029 1.524 . S
C1028 H1047 0.913 . S
C1029 H1005 0.950 . S
C1029 C1028 1.524 . S
C1029 C1030 1.415 . S
C1030 H1006 0.950 . S
C1030 C1025 1.363 . S
C1030 C1029 1.415 . S
C1031 H1007 0.951 . S
C1031 C1032 1.366 . S
C1031 C1033 1.388 . S
C1032 C1031 1.366 . S
C1032 C1036 1.385 . S
C1033 H1008 0.951 . S
C1033 C1031 1.388 . S
C1033 C1034 1.366 . S
C1034 C1033 1.366 . S
C1034 C1035 1.414 . S
C1034 C1037 1.499 . S
C1035 H1009 0.950 . S
C1035 C1034 1.414 . S
C1035 C1036 1.374 . S
C1036 H1010 0.950 . S
C1036 C1032 1.385 . S
C1036 C1035 1.374 . S
C1037 C1034 1.499 . S
C1037 C1038 1.373 . S
C1037 C1039 1.389 . S
C1038 H1011 0.950 . S
C1038 C1024 1.377 . S
C1038 C1037 1.373 . S
C1039 C1023 1.377 . S
C1039 C1037 1.389 . S
C1039 C1040 1.524 . S
C1040 C1039 1.524 . S
C1040 C1041 1.397 . S
C1040 C1045 1.363 . S
C1041 H1012 0.950 . S
C1041 C1040 1.397 . S
C1041 C1042 1.334 . S
C1042 H1013 0.950 . S
C1042 C1041 1.334 . S
C1042 C1043 1.287 . S
C1043 C1042 1.287 . S
C1043 C1044 1.524 . S
C1043 H1046 0.999 . S
C1044 H1014 0.950 . S
C1044 C1043 1.524 . S
C1044 C1045 1.415 . S
C1045 H1015 0.950 . S
C1045 C1040 1.363 . S
C1045 C1044 1.415 . S
H1046 C1043 0.999 . S
H1047 C1028 0.913 . S
H1048 C1066 0.951 . S
H1049 C1068 0.951 . S
H1050 C1070 0.950 . S
H1051 C1071 0.950 . S
H1052 C1073 0.950 . S
H1053 C1076 0.950 1_545 S
H1054 C1077 0.950 . S
H1055 C1079 0.950 . S
H1056 C1080 0.950 1_545 S
H1057 C1081 0.951 . S
H1058 C1083 0.951 . S
H1059 C1085 0.950 . S
H1060 C1086 0.950 . S
H1061 C1088 0.950 . S
H1062 C1091 0.950 . S
H1063 C1092 0.950 . S
H1064 C1094 0.950 . S
H1065 C1095 0.950 . S
C1066 H1048 0.951 . S
C1066 C1067 1.366 . S
C1066 C1068 1.388 1_565 S
C1067 C1066 1.366 . S
C1067 C1071 1.385 1_565 S
C1068 H1049 0.951 . S
C1068 C1066 1.388 1_545 S
C1068 C1069 1.366 . S
C1069 C1068 1.366 . S
C1069 C1070 1.414 . S
C1069 C1072 1.499 . S
C1070 H1050 0.950 . S
C1070 C1069 1.414 . S
C1070 C1071 1.374 . S
C1071 H1051 0.950 . S
C1071 C1067 1.385 1_545 S
C1071 C1070 1.374 . S
C1072 C1069 1.499 . S
C1072 C1073 1.373 . S
C1072 C1074 1.389 1_554 S
C1073 H1052 0.950 . S
C1073 C1072 1.373 . S
C1073 C1089 1.376 1_554 S
C1074 C1072 1.389 1_556 S
C1074 C1075 1.524 . S
C1074 C1088 1.377 . S
C1075 C1074 1.524 . S
C1075 C1076 1.397 1_545 S
C1075 C1080 1.363 1_545 S
C1076 H1053 0.950 1_565 S
C1076 C1075 1.397 1_565 S
C1076 C1077 1.334 . S
C1077 H1054 0.950 . S
C1077 C1076 1.334 . S
C1077 C1078 1.287 . S
C1078 C1077 1.287 . S
C1078 C1079 1.524 . S
C1078 H1097 0.913 . S
C1079 H1055 0.950 . S
C1079 C1078 1.524 . S
C1079 C1080 1.415 . S
C1080 H1056 0.950 1_565 S
C1080 C1075 1.363 1_565 S
C1080 C1079 1.415 . S
C1081 H1057 0.951 . S
C1081 C1082 1.366 . S
C1081 C1083 1.388 . S
C1082 C1081 1.366 . S
C1082 C1086 1.385 . S
C1083 H1058 0.951 . S
C1083 C1081 1.388 . S
C1083 C1084 1.366 . S
C1084 C1083 1.366 . S
C1084 C1085 1.414 . S
C1084 C1087 1.499 . S
C1085 H1059 0.950 . S
C1085 C1084 1.414 . S
C1085 C1086 1.374 . S
C1086 H1060 0.950 . S
C1086 C1082 1.385 . S
C1086 C1085 1.374 . S
C1087 C1084 1.499 . S
C1087 C1088 1.373 . S
C1087 C1089 1.390 . S
C1088 H1061 0.950 . S
C1088 C1074 1.377 . S
C1088 C1087 1.373 . S
C1089 C1073 1.376 1_556 S
C1089 C1087 1.390 . S
C1089 C1090 1.524 1_556 S
C1090 C1089 1.524 1_554 S
C1090 C1091 1.397 . S
C1090 C1095 1.363 . S
C1091 H1062 0.950 . S
C1091 C1090 1.397 . S
C1091 C1092 1.334 . S
C1092 H1063 0.950 . S
C1092 C1091 1.334 . S
C1092 C1093 1.287 . S
C1093 C1092 1.287 . S
C1093 C1094 1.524 . S
C1093 H1096 0.999 . S
C1094 H1064 0.950 . S
C1094 C1093 1.524 . S
C1094 C1095 1.415 . S
C1095 H1065 0.950 . S
C1095 C1090 1.363 . S
C1095 C1094 1.415 . S
H1096 C1093 0.999 . S
H1097 C1078 0.913 . S
H1098 C1116 0.951 . S
H1099 C1118 0.951 . S
H1100 C1120 0.950 . S
H1101 C1121 0.950 . S
H1102 C1123 0.952 . S
H1103 C1126 0.950 . S
H1104 C1127 0.950 . S
H1105 C1129 0.945 1_655 S
H1106 C1130 0.950 . S
H1107 C1131 0.951 . S
H1108 C1133 0.951 . S
H1109 C1135 0.950 . S
H1110 C1136 0.950 . S
H1111 C1138 0.950 . S
H1112 C1141 0.950 . S
H1113 C1142 0.950 . S
H1114 C1144 0.950 . S
H1115 C1145 0.950 . S
C1116 H1098 0.951 . S
C1116 C1117 1.366 . S
C1116 C1118 1.388 . S
C1117 C1116 1.366 . S
C1117 C1121 1.385 . S
C1118 H1099 0.951 . S
C1118 C1116 1.388 . S
C1118 C1119 1.366 . S
C1119 C1118 1.366 . S
C1119 C1120 1.414 . S
C1119 C1122 1.499 . S
C1120 H1100 0.950 . S
C1120 C1119 1.414 . S
C1120 C1121 1.374 . S
C1121 H1101 0.950 . S
C1121 C1117 1.385 . S
C1121 C1120 1.374 . S
C1122 C1119 1.499 . S
C1122 C1123 1.373 . S
C1122 C1124 1.389 . S
C1123 H1102 0.952 . S
C1123 C1122 1.373 . S
C1123 C1139 1.377 1_554 S
C1124 C1122 1.389 . S
C1124 C1125 1.524 . S
C1124 C1138 1.377 . S
C1125 C1124 1.524 . S
C1125 C1126 1.397 . S
C1125 C1130 1.363 . S
C1126 H1103 0.950 . S
C1126 C1125 1.397 . S
C1126 C1127 1.334 . S
C1127 H1104 0.950 . S
C1127 C1126 1.334 . S
C1127 C1128 1.287 . S
C1128 C1127 1.287 . S
C1128 C1129 1.526 . S
C1128 H1147 0.913 . S
C1129 H1105 0.945 1_455 S
C1129 C1128 1.526 . S
C1129 C1130 1.418 . S
C1130 H1106 0.950 . S
C1130 C1125 1.363 . S
C1130 C1129 1.418 . S
C1131 H1107 0.951 . S
C1131 C1132 1.366 1_455 S
C1131 C1133 1.388 . S
C1132 C1131 1.366 1_655 S
C1132 C1136 1.385 . S
C1133 H1108 0.951 . S
C1133 C1131 1.388 . S
C1133 C1134 1.366 . S
C1134 C1133 1.366 . S
C1134 C1135 1.414 . S
C1134 C1137 1.499 . S
C1135 H1109 0.950 . S
C1135 C1134 1.414 . S
C1135 C1136 1.374 1_455 S
C1136 H1110 0.950 . S
C1136 C1132 1.385 . S
C1136 C1135 1.374 1_655 S
C1137 C1134 1.499 . S
C1137 C1138 1.373 1_556 S
C1137 C1139 1.389 . S
C1138 H1111 0.950 . S
C1138 C1124 1.377 . S
C1138 C1137 1.373 1_554 S
C1139 C1123 1.377 1_556 S
C1139 C1137 1.389 . S
C1139 C1140 1.524 . S
C1140 C1139 1.524 . S
C1140 C1141 1.397 . S
C1140 C1145 1.363 . S
C1141 H1112 0.950 . S
C1141 C1140 1.397 . S
C1141 C1142 1.334 . S
C1142 H1113 0.950 . S
C1142 C1141 1.334 . S
C1142 C1143 1.287 . S
C1143 C1142 1.287 . S
C1143 C1144 1.524 . S
C1143 H1146 0.999 . S
C1144 H1114 0.950 . S
C1144 C1143 1.524 . S
C1144 C1145 1.415 . S
C1145 H1115 0.950 . S
C1145 C1140 1.363 . S
C1145 C1144 1.415 . S
H1146 C1143 0.999 . S
H1147 C1128 0.913 . S
H1148 C1166 0.951 . S
H1149 C1168 0.951 . S
H1150 C1170 0.950 . S
H1151 C1171 0.950 . S
H1152 C1173 0.947 1_554 S
H1153 C1176 0.950 . S
H1154 C1177 0.950 . S
H1155 C1179 0.950 1_545 S
H1156 C1180 0.950 . S
H1157 C1181 0.951 . S
H1158 C1183 0.951 . S
H1159 C1185 0.950 . S
H1160 C1186 0.950 . S
H1161 C1188 0.950 . S
H1162 C1191 0.950 . S
H1163 C1192 0.950 . S
H1164 C1194 0.950 . S
H1165 C1195 0.950 . S
C1166 H1148 0.951 . S
C1166 C1167 1.366 . S
C1166 C1168 1.388 . S
C1167 C1166 1.366 . S
C1167 C1171 1.385 . S
C1168 H1149 0.951 . S
C1168 C1166 1.388 . S
C1168 C1169 1.366 . S
C1169 C1168 1.366 . S
C1169 C1170 1.414 . S
C1169 C1172 1.499 . S
C1170 H1150 0.950 . S
C1170 C1169 1.414 . S
C1170 C1171 1.374 . S
C1171 H1151 0.950 . S
C1171 C1167 1.385 . S
C1171 C1170 1.374 . S
C1172 C1169 1.499 . S
C1172 C1173 1.392 . S
C1172 C1174 1.389 . S
C1173 H1152 0.947 1_556 S
C1173 C1172 1.392 . S
C1173 C1189 1.362 1_556 S
C1174 C1172 1.389 . S
C1174 C1175 1.524 . S
C1174 C1188 1.377 . S
C1175 C1174 1.524 . S
C1175 C1176 1.397 . S
C1175 C1180 1.363 . S
C1176 H1153 0.950 . S
C1176 C1175 1.397 . S
C1176 C1177 1.334 . S
C1177 H1154 0.950 . S
C1177 C1176 1.334 . S
C1177 C1178 1.287 . S
C1178 C1177 1.287 . S
C1178 C1179 1.524 . S
C1178 H1197 0.913 . S
C1179 H1155 0.950 1_565 S
C1179 C1178 1.524 . S
C1179 C1180 1.415 . S
C1180 H1156 0.950 . S
C1180 C1175 1.363 . S
C1180 C1179 1.415 . S
C1181 H1157 0.951 . S
C1181 C1182 1.366 1_565 S
C1181 C1183 1.388 . S
C1182 C1181 1.366 1_545 S
C1182 C1186 1.385 . S
C1183 H1158 0.951 . S
C1183 C1181 1.388 . S
C1183 C1184 1.366 . S
C1184 C1183 1.366 . S
C1184 C1185 1.414 . S
C1184 C1187 1.499 . S
C1185 H1159 0.950 . S
C1185 C1184 1.414 . S
C1185 C1186 1.374 1_565 S
C1186 H1160 0.950 . S
C1186 C1182 1.385 . S
C1186 C1185 1.374 1_545 S
C1187 C1184 1.499 . S
C1187 C1188 1.373 1_554 S
C1187 C1189 1.389 . S
C1188 H1161 0.950 . S
C1188 C1174 1.377 . S
C1188 C1187 1.373 1_556 S
C1189 C1173 1.362 1_554 S
C1189 C1187 1.389 . S
C1189 C1190 1.524 . S
C1190 C1189 1.524 . S
C1190 C1191 1.397 . S
C1190 C1195 1.363 . S
C1191 H1162 0.950 . S
C1191 C1190 1.397 . S
C1191 C1192 1.334 . S
C1192 H1163 0.950 . S
C1192 C1191 1.334 . S
C1192 C1193 1.287 . S
C1193 C1192 1.287 . S
C1193 C1194 1.524 . S
C1193 H1196 0.999 . S
C1194 H1164 0.950 . S
C1194 C1193 1.524 . S
C1194 C1195 1.415 . S
C1195 H1165 0.950 . S
C1195 C1190 1.363 . S
C1195 C1194 1.415 . S
H1196 C1193 0.999 . S
H1197 C1178 0.913 . S
H1198 C1216 0.951 . S
H1199 C1218 0.951 . S
H1200 C1220 0.950 . S
H1201 C1221 0.950 . S
H1202 C1223 0.950 . S
H1203 C1226 0.950 . S
H1204 C1227 0.950 . S
H1205 C1229 0.950 . S
H1206 C1230 0.950 . S
H1207 C1231 0.951 . S
H1208 C1233 0.951 1_455 S
H1209 C1235 0.950 . S
H1210 C1236 0.950 . S
H1211 C1238 0.950 . S
H1212 C1241 0.950 . S
H1213 C1242 0.950 . S
H1214 C1244 0.950 . S
H1215 C1245 0.957 . S
C1216 H1198 0.951 . S
C1216 C1217 1.366 . S
C1216 C1218 1.388 . S
C1217 C1216 1.366 . S
C1217 C1221 1.385 . S
C1218 H1199 0.951 . S
C1218 C1216 1.388 . S
C1218 C1219 1.366 . S
C1219 C1218 1.366 . S
C1219 C1220 1.414 . S
C1219 C1222 1.499 . S
C1220 H1200 0.950 . S
C1220 C1219 1.414 . S
C1220 C1221 1.374 . S
C1221 H1201 0.950 . S
C1221 C1217 1.385 . S
C1221 C1220 1.374 . S
C1222 C1219 1.499 . S
C1222 C1223 1.373 . S
C1222 C1224 1.314 1_554 S
C1223 H1202 0.950 . S
C1223 C1222 1.373 . S
C1223 C1239 1.377 . S
C1224 C1222 1.314 1_556 S
C1224 C1225 1.554 . S
C1224 C1238 1.433 . S
C1225 C1224 1.554 . S
C1225 C1226 1.397 . S
C1225 C1230 1.363 . S
C1226 H1203 0.950 . S
C1226 C1225 1.397 . S
C1226 C1227 1.334 . S
C1227 H1204 0.950 . S
C1227 C1226 1.334 . S
C1227 C1228 1.287 . S
C1228 C1227 1.287 . S
C1228 C1229 1.524 . S
C1228 H1247 0.913 . S
C1229 H1205 0.950 . S
C1229 C1228 1.524 . S
C1229 C1230 1.415 . S
C1230 H1206 0.950 . S
C1230 C1225 1.363 . S
C1230 C1229 1.415 . S
C1231 H1207 0.951 . S
C1231 C1232 1.366 . S
C1231 C1233 1.388 1_455 S
C1232 C1231 1.366 . S
C1232 C1236 1.385 1_455 S
C1233 H1208 0.951 1_655 S
C1233 C1231 1.388 1_655 S
C1233 C1234 1.366 . S
C1234 C1233 1.366 . S
C1234 C1235 1.414 . S
C1234 C1237 1.499 . S
C1235 H1209 0.950 . S
C1235 C1234 1.414 . S
C1235 C1236 1.374 . S
C1236 H1210 0.950 . S
C1236 C1232 1.385 1_655 S
C1236 C1235 1.374 . S
C1237 C1234 1.499 . S
C1237 C1238 1.373 . S
C1237 C1239 1.389 1_556 S
C1238 H1211 0.950 . S
C1238 C1224 1.433 . S
C1238 C1237 1.373 . S
C1239 C1223 1.377 . S
C1239 C1237 1.389 1_554 S
C1239 C1240 1.524 . S
C1240 C1239 1.524 . S
C1240 C1241 1.397 . S
C1240 C1245 1.363 1_655 S
C1241 H1212 0.950 . S
C1241 C1240 1.397 . S
C1241 C1242 1.334 1_655 S
C1242 H1213 0.950 . S
C1242 C1241 1.334 1_455 S
C1242 C1243 1.287 . S
C1243 C1242 1.287 . S
C1243 C1244 1.524 . S
C1243 H1246 0.999 . S
C1244 H1214 0.950 . S
C1244 C1243 1.524 . S
C1244 C1245 1.415 . S
C1245 H1215 0.957 . S
C1245 C1240 1.363 1_455 S
C1245 C1244 1.415 . S
H1246 C1243 0.999 . S
H1247 C1228 0.913 . S
H1248 C1266 0.951 . S
H1249 C1268 0.951 . S
H1250 C1270 0.950 . S
H1251 C1271 0.950 . S
H1252 C1273 0.950 . S
H1253 C1276 0.950 . S
H1254 C1277 0.950 . S
H1255 C1279 0.950 . S
H1256 C1280 0.950 . S
H1257 C1281 0.951 1_545 S
H1258 C1283 0.951 . S
H1259 C1285 0.950 . S
H1260 C1286 0.950 . S
H1261 C1288 0.950 . S
H1262 C1291 0.950 . S
H1263 C1292 0.950 . S
H1264 C1294 0.950 . S
H1265 C1295 0.950 . S
C1266 H1248 0.951 . S
C1266 C1267 1.366 . S
C1266 C1268 1.388 . S
C1267 C1266 1.366 . S
C1267 C1271 1.385 . S
C1268 H1249 0.951 . S
C1268 C1266 1.388 . S
C1268 C1269 1.366 . S
C1269 C1268 1.366 . S
C1269 C1270 1.414 . S
C1269 C1272 1.499 . S
C1270 H1250 0.950 . S
C1270 C1269 1.414 . S
C1270 C1271 1.374 . S
C1271 H1251 0.950 . S
C1271 C1267 1.385 . S
C1271 C1270 1.374 . S
C1272 C1269 1.499 . S
C1272 C1273 1.373 . S
C1272 C1274 1.389 . S
C1273 H1252 0.950 . S
C1273 C1272 1.373 . S
C1273 C1289 1.377 . S
C1274 C1272 1.389 . S
C1274 C1275 1.524 . S
C1274 C1288 1.377 . S
C1275 C1274 1.524 . S
C1275 C1276 1.397 . S
C1275 C1280 1.363 . S
C1276 H1253 0.950 . S
C1276 C1275 1.397 . S
C1276 C1277 1.334 . S
C1277 H1254 0.950 . S
C1277 C1276 1.334 . S
C1277 C1278 1.287 . S
C1278 C1277 1.287 . S
C1278 C1279 1.524 . S
C1278 H1297 0.913 . S
C1279 H1255 0.950 . S
C1279 C1278 1.524 . S
C1279 C1280 1.415 . S
C1280 H1256 0.950 . S
C1280 C1275 1.363 . S
C1280 C1279 1.415 . S
C1281 H1257 0.951 1_565 S
C1281 C1282 1.366 1_565 S
C1281 C1283 1.388 . S
C1282 C1281 1.366 1_545 S
C1282 C1286 1.385 1_545 S
C1283 H1258 0.951 . S
C1283 C1281 1.388 . S
C1283 C1284 1.366 . S
C1284 C1283 1.366 . S
C1284 C1285 1.414 . S
C1284 C1287 1.499 . S
C1285 H1259 0.950 . S
C1285 C1284 1.414 . S
C1285 C1286 1.374 . S
C1286 H1260 0.950 . S
C1286 C1282 1.385 1_565 S
C1286 C1285 1.374 . S
C1287 C1284 1.499 . S
C1287 C1288 1.373 . S
C1287 C1289 1.389 . S
C1288 H1261 0.950 . S
C1288 C1274 1.377 . S
C1288 C1287 1.373 . S
C1289 C1273 1.377 . S
C1289 C1287 1.389 . S
C1289 C1290 1.524 . S
C1290 C1289 1.524 . S
C1290 C1291 1.397 . S
C1290 C1295 1.363 . S
C1291 H1262 0.950 . S
C1291 C1290 1.397 . S
C1291 C1292 1.334 . S
C1292 H1263 0.950 . S
C1292 C1291 1.334 . S
C1292 C1293 1.287 . S
C1293 C1292 1.287 . S
C1293 C1294 1.524 . S
C1293 H1296 0.999 . S
C1294 H1264 0.950 . S
C1294 C1293 1.524 . S
C1294 C1295 1.415 . S
C1295 H1265 0.950 . S
C1295 C1290 1.363 . S
C1295 C1294 1.415 . S
H1296 C1293 0.999 . S
H1297 C1278 0.913 . S
H1298 C1316 0.951 . S
H1299 C1318 0.951 . S
H1300 C1320 0.950 . S
H1301 C1321 0.950 . S
H1302 C1323 0.950 . S
H1303 C1326 0.933 1_455 S
H1304 C1327 0.950 . S
H1305 C1329 0.950 . S
H1306 C1330 0.950 . S
H1307 C1331 0.951 . S
H1308 C1333 0.951 . S
H1309 C1335 0.950 . S
H1310 C1336 0.950 . S
H1311 C1338 0.950 . S
H1312 C1341 0.950 . S
H1313 C1342 0.950 . S
H1314 C1344 0.950 . S
H1315 C1345 0.950 . S
C1316 H1298 0.951 . S
C1316 C1317 1.366 1_655 S
C1316 C1318 1.388 . S
C1317 C1316 1.366 1_455 S
C1317 C1321 1.385 . S
C1318 H1299 0.951 . S
C1318 C1316 1.388 . S
C1318 C1319 1.366 . S
C1319 C1318 1.366 . S
C1319 C1320 1.414 . S
C1319 C1322 1.499 . S
C1320 H1300 0.950 . S
C1320 C1319 1.414 . S
C1320 C1321 1.374 1_655 S
C1321 H1301 0.950 . S
C1321 C1317 1.385 . S
C1321 C1320 1.374 1_455 S
C1322 C1319 1.499 . S
C1322 C1323 1.373 . S
C1322 C1324 1.389 . S
C1323 H1302 0.950 . S
C1323 C1322 1.373 . S
C1323 C1339 1.377 . S
C1324 C1322 1.389 . S
C1324 C1325 1.524 . S
C1324 C1338 1.377 . S
C1325 C1324 1.524 . S
C1325 C1326 1.397 . S
C1325 C1330 1.363 . S
C1326 H1303 0.933 1_655 S
C1326 C1325 1.397 . S
C1326 C1327 1.334 1_655 S
C1327 H1304 0.950 . S
C1327 C1326 1.334 1_455 S
C1327 C1328 1.287 1_455 S
C1328 C1327 1.287 1_655 S
C1328 C1329 1.524 . S
C1328 H1347 0.913 1_655 S
C1329 H1305 0.950 . S
C1329 C1328 1.524 . S
C1329 C1330 1.415 . S
C1330 H1306 0.950 . S
C1330 C1325 1.363 . S
C1330 C1329 1.415 . S
C1331 H1307 0.951 . S
C1331 C1332 1.366 . S
C1331 C1333 1.388 . S
C1332 C1331 1.366 . S
C1332 C1336 1.385 . S
C1333 H1308 0.951 . S
C1333 C1331 1.388 . S
C1333 C1334 1.366 . S
C1334 C1333 1.366 . S
C1334 C1335 1.414 . S
C1334 C1337 1.499 . S
C1335 H1309 0.950 . S
C1335 C1334 1.414 . S
C1335 C1336 1.374 . S
C1336 H1310 0.950 . S
C1336 C1332 1.385 . S
C1336 C1335 1.374 . S
C1337 C1334 1.499 . S
C1337 C1338 1.373 . S
C1337 C1339 1.389 . S
C1338 H1311 0.950 . S
C1338 C1324 1.377 . S
C1338 C1337 1.373 . S
C1339 C1323 1.377 . S
C1339 C1337 1.389 . S
C1339 C1340 1.524 . S
C1340 C1339 1.524 . S
C1340 C1341 1.397 . S
C1340 C1345 1.363 . S
C1341 H1312 0.950 . S
C1341 C1340 1.397 . S
C1341 C1342 1.334 . S
C1342 H1313 0.950 . S
C1342 C1341 1.334 . S
C1342 C1343 1.287 . S
C1343 C1342 1.287 . S
C1343 C1344 1.524 . S
C1343 H1346 0.999 . S
C1344 H1314 0.950 . S
C1344 C1343 1.524 . S
C1344 C1345 1.415 . S
C1345 H1315 0.950 . S
C1345 C1340 1.363 . S
C1345 C1344 1.415 . S
H1346 C1343 0.999 . S
H1347 C1328 0.913 1_455 S
H1348 C1366 0.951 . S
H1349 C1368 0.951 . S
H1350 C1370 0.950 . S
H1351 C1371 0.949 1_565 S
H1352 C1373 0.950 . S
H1353 C1376 0.950 . S
H1354 C1377 0.950 . S
H1355 C1379 0.950 . S
H1356 C1380 0.950 . S
H1357 C1381 0.951 . S
H1358 C1383 0.951 . S
H1359 C1385 0.950 . S
H1360 C1386 0.950 . S
H1361 C1388 0.950 . S
H1362 C1391 0.950 . S
H1363 C1392 0.950 . S
H1364 C1394 0.950 1_565 S
H1365 C1395 0.950 . S
C1366 H1348 0.951 . S
C1366 C1367 1.366 1_545 S
C1366 C1368 1.388 . S
C1367 C1366 1.366 1_565 S
C1367 C1371 1.384 1_565 S
C1368 H1349 0.951 . S
C1368 C1366 1.388 . S
C1368 C1369 1.366 . S
C1369 C1368 1.366 . S
C1369 C1370 1.414 . S
C1369 C1372 1.499 . S
C1370 H1350 0.950 . S
C1370 C1369 1.414 . S
C1370 C1371 1.374 . S
C1371 H1351 0.949 1_545 S
C1371 C1367 1.384 1_545 S
C1371 C1370 1.374 . S
C1372 C1369 1.499 . S
C1372 C1373 1.373 . S
C1372 C1374 1.389 . S
C1373 H1352 0.950 . S
C1373 C1372 1.373 . S
C1373 C1389 1.377 . S
C1374 C1372 1.389 . S
C1374 C1375 1.524 . S
C1374 C1388 1.377 . S
C1375 C1374 1.524 . S
C1375 C1376 1.397 . S
C1375 C1380 1.363 . S
C1376 H1353 0.950 . S
C1376 C1375 1.397 . S
C1376 C1377 1.334 . S
C1377 H1354 0.950 . S
C1377 C1376 1.334 . S
C1377 C1378 1.287 . S
C1378 C1377 1.287 . S
C1378 C1379 1.524 . S
C1378 H1397 0.913 . S
C1379 H1355 0.950 . S
C1379 C1378 1.524 . S
C1379 C1380 1.415 . S
C1380 H1356 0.950 . S
C1380 C1375 1.363 . S
C1380 C1379 1.415 . S
C1381 H1357 0.951 . S
C1381 C1382 1.366 . S
C1381 C1383 1.388 . S
C1382 C1381 1.366 . S
C1382 C1386 1.385 . S
C1383 H1358 0.951 . S
C1383 C1381 1.388 . S
C1383 C1384 1.366 . S
C1384 C1383 1.366 . S
C1384 C1385 1.414 . S
C1384 C1387 1.499 . S
C1385 H1359 0.950 . S
C1385 C1384 1.414 . S
C1385 C1386 1.374 . S
C1386 H1360 0.950 . S
C1386 C1382 1.385 . S
C1386 C1385 1.374 . S
C1387 C1384 1.499 . S
C1387 C1388 1.373 . S
C1387 C1389 1.389 . S
C1388 H1361 0.950 . S
C1388 C1374 1.377 . S
C1388 C1387 1.373 . S
C1389 C1373 1.377 . S
C1389 C1387 1.389 . S
C1389 C1390 1.524 . S
C1390 C1389 1.524 . S
C1390 C1391 1.397 . S
C1390 C1395 1.363 . S
C1391 H1362 0.950 . S
C1391 C1390 1.397 . S
C1391 C1392 1.334 . S
C1392 H1363 0.950 . S
C1392 C1391 1.334 . S
C1392 C1393 1.287 . S
C1393 C1392 1.287 . S
C1393 C1394 1.524 . S
C1393 H1396 1.000 . S
C1394 H1364 0.950 1_545 S
C1394 C1393 1.524 . S
C1394 C1395 1.415 . S
C1395 H1365 0.950 . S
C1395 C1390 1.363 . S
C1395 C1394 1.415 . S
H1396 C1393 1.000 . S
H1397 C1378 0.913 . S
H1398 C1416 0.951 . S
H1399 C1418 0.951 . S
H1400 C1420 0.950 1_655 S
H1401 C1421 0.950 . S
H1402 C1423 0.950 . S
H1403 C1426 0.950 . S
H1404 C1427 0.950 . S
H1405 C1429 0.950 . S
H1406 C1430 0.950 . S
H1407 C1431 0.951 . S
H1408 C1433 0.951 . S
H1409 C1435 0.950 . S
H1410 C1436 0.950 . S
H1411 C1438 0.950 . S
H1412 C1441 0.950 . S
H1413 C1442 0.950 . S
H1414 C1444 0.950 . S
H1415 C1445 0.950 . S
C1416 H1398 0.951 . S
C1416 C1417 1.366 1_455 S
C1416 C1418 1.388 . S
C1417 C1416 1.366 1_655 S
C1417 C1421 1.385 . S
C1418 H1399 0.951 . S
C1418 C1416 1.388 . S
C1418 C1419 1.366 . S
C1419 C1418 1.366 . S
C1419 C1420 1.414 . S
C1419 C1422 1.499 . S
C1420 H1400 0.950 1_455 S
C1420 C1419 1.414 . S
C1420 C1421 1.374 1_455 S
C1421 H1401 0.950 . S
C1421 C1417 1.385 . S
C1421 C1420 1.374 1_655 S
C1422 C1419 1.499 . S
C1422 C1423 1.373 . S
C1422 C1424 1.389 . S
C1423 H1402 0.950 . S
C1423 C1422 1.373 . S
C1423 C1439 1.377 . S
C1424 C1422 1.389 . S
C1424 C1425 1.524 . S
C1424 C1438 1.377 . S
C1425 C1424 1.524 . S
C1425 C1426 1.397 . S
C1425 C1430 1.363 . S
C1426 H1403 0.950 . S
C1426 C1425 1.397 . S
C1426 C1427 1.334 . S
C1427 H1404 0.950 . S
C1427 C1426 1.334 . S
C1427 C1428 1.287 . S
C1428 C1427 1.287 . S
C1428 C1429 1.524 . S
C1428 H1447 0.913 . S
C1429 H1405 0.950 . S
C1429 C1428 1.524 . S
C1429 C1430 1.415 . S
C1430 H1406 0.950 . S
C1430 C1425 1.363 . S
C1430 C1429 1.415 . S
C1431 H1407 0.951 . S
C1431 C1432 1.366 . S
C1431 C1433 1.388 . S
C1432 C1431 1.366 . S
C1432 C1436 1.385 . S
C1433 H1408 0.951 . S
C1433 C1431 1.388 . S
C1433 C1434 1.366 . S
C1434 C1433 1.366 . S
C1434 C1435 1.414 . S
C1434 C1437 1.499 . S
C1435 H1409 0.950 . S
C1435 C1434 1.414 . S
C1435 C1436 1.374 . S
C1436 H1410 0.950 . S
C1436 C1432 1.385 . S
C1436 C1435 1.374 . S
C1437 C1434 1.499 . S
C1437 C1438 1.373 . S
C1437 C1439 1.389 . S
C1438 H1411 0.950 . S
C1438 C1424 1.377 . S
C1438 C1437 1.373 . S
C1439 C1423 1.377 . S
C1439 C1437 1.389 . S
C1439 C1440 1.524 . S
C1440 C1439 1.524 . S
C1440 C1441 1.397 . S
C1440 C1445 1.363 . S
C1441 H1412 0.950 . S
C1441 C1440 1.397 . S
C1441 C1442 1.334 . S
C1442 H1413 0.950 . S
C1442 C1441 1.334 . S
C1442 C1443 1.287 . S
C1443 C1442 1.287 . S
C1443 C1444 1.524 . S
C1443 H1446 0.999 . S
C1444 H1414 0.950 . S
C1444 C1443 1.524 . S
C1444 C1445 1.415 . S
C1445 H1415 0.950 . S
C1445 C1440 1.363 . S
C1445 C1444 1.415 . S
H1446 C1443 0.999 . S
H1447 C1428 0.913 . S
H1448 C1466 0.951 . S
H1449 C1468 0.951 . S
H1450 C1470 0.950 . S
H1451 C1471 0.950 . S
H1452 C1473 0.950 . S
H1453 C1476 0.950 . S
H1454 C1477 0.950 . S
H1455 C1479 0.950 . S
H1456 C1480 0.950 . S
H1457 C1481 0.951 . S
H1458 C1483 0.951 . S
H1459 C1485 0.950 . S
H1460 C1486 0.950 . S
H1461 C1488 0.950 . S
H1462 C1491 0.950 . S
H1463 C1492 0.950 . S
H1464 C1494 0.950 . S
H1465 C1495 0.950 . S
C1466 H1448 0.951 . S
C1466 C1467 1.366 . S
C1466 C1468 1.388 . S
C1467 C1466 1.366 . S
C1467 C1471 1.385 . S
C1468 H1449 0.951 . S
C1468 C1466 1.388 . S
C1468 C1469 1.366 . S
C1469 C1468 1.366 . S
C1469 C1470 1.414 . S
C1469 C1472 1.499 . S
C1470 H1450 0.950 . S
C1470 C1469 1.414 . S
C1470 C1471 1.374 . S
C1471 H1451 0.950 . S
C1471 C1467 1.385 . S
C1471 C1470 1.374 . S
C1472 C1469 1.499 . S
C1472 C1473 1.373 . S
C1472 C1474 1.389 . S
C1473 H1452 0.950 . S
C1473 C1472 1.373 . S
C1473 C1489 1.377 . S
C1474 C1472 1.389 . S
C1474 C1475 1.524 . S
C1474 C1488 1.377 . S
C1475 C1474 1.524 . S
C1475 C1476 1.397 . S
C1475 C1480 1.363 . S
C1476 H1453 0.950 . S
C1476 C1475 1.397 . S
C1476 C1477 1.334 . S
C1477 H1454 0.950 . S
C1477 C1476 1.334 . S
C1477 C1478 1.287 . S
C1478 C1477 1.287 . S
C1478 C1479 1.524 . S
C1478 H1497 0.913 . S
C1479 H1455 0.950 . S
C1479 C1478 1.524 . S
C1479 C1480 1.415 . S
C1480 H1456 0.950 . S
C1480 C1475 1.363 . S
C1480 C1479 1.415 . S
C1481 H1457 0.951 . S
C1481 C1482 1.366 . S
C1481 C1483 1.388 . S
C1482 C1481 1.366 . S
C1482 C1486 1.385 . S
C1483 H1458 0.951 . S
C1483 C1481 1.388 . S
C1483 C1484 1.366 . S
C1484 C1483 1.366 . S
C1484 C1485 1.414 . S
C1484 C1487 1.499 . S
C1485 H1459 0.950 . S
C1485 C1484 1.414 . S
C1485 C1486 1.374 . S
C1486 H1460 0.950 . S
C1486 C1482 1.385 . S
C1486 C1485 1.374 . S
C1487 C1484 1.499 . S
C1487 C1488 1.373 . S
C1487 C1489 1.389 . S
C1488 H1461 0.950 . S
C1488 C1474 1.377 . S
C1488 C1487 1.373 . S
C1489 C1473 1.377 . S
C1489 C1487 1.389 . S
C1489 C1490 1.524 . S
C1490 C1489 1.524 . S
C1490 C1491 1.397 . S
C1490 C1495 1.363 . S
C1491 H1462 0.950 . S
C1491 C1490 1.397 . S
C1491 C1492 1.334 . S
C1492 H1463 0.950 . S
C1492 C1491 1.334 . S
C1492 C1493 1.287 . S
C1493 C1492 1.287 . S
C1493 C1494 1.524 . S
C1493 H1496 0.999 . S
C1494 H1464 0.950 . S
C1494 C1493 1.524 . S
C1494 C1495 1.415 . S
C1495 H1465 0.950 . S
C1495 C1490 1.363 . S
C1495 C1494 1.415 . S
H1496 C1493 0.999 . S
H1497 C1478 0.913 . S
H1498 C1516 0.951 . S
H1499 C1518 0.951 . S
H1500 C1520 0.950 . S
H1501 C1521 0.950 . S
H1502 C1523 0.950 . S
H1503 C1526 0.950 . S
H1504 C1527 0.950 . S
H1505 C1529 0.950 . S
H1506 C1530 0.950 . S
H1507 C1531 0.951 . S
H1508 C1533 0.951 . S
H1509 C1535 0.950 . S
H1510 C1536 0.950 . S
H1511 C1538 0.950 . S
H1512 C1541 0.950 . S
H1513 C1542 0.950 . S
H1514 C1544 0.950 . S
H1515 C1545 0.950 . S
C1516 H1498 0.951 . S
C1516 C1517 1.366 . S
C1516 C1518 1.388 . S
C1517 C1516 1.366 . S
C1517 C1521 1.385 . S
C1518 H1499 0.951 . S
C1518 C1516 1.388 . S
C1518 C1519 1.366 . S
C1519 C1518 1.366 . S
C1519 C1520 1.414 . S
C1519 C1522 1.499 . S
C1520 H1500 0.950 . S
C1520 C1519 1.414 . S
C1520 C1521 1.374 . S
C1521 H1501 0.950 . S
C1521 C1517 1.385 . S
C1521 C1520 1.374 . S
C1522 C1519 1.499 . S
C1522 C1523 1.373 . S
C1522 C1524 1.389 . S
C1523 H1502 0.950 . S
C1523 C1522 1.373 . S
C1523 C1539 1.377 . S
C1524 C1522 1.389 . S
C1524 C1525 1.524 . S
C1524 C1538 1.377 . S
C1525 C1524 1.524 . S
C1525 C1526 1.397 . S
C1525 C1530 1.363 . S
C1526 H1503 0.950 . S
C1526 C1525 1.397 . S
C1526 C1527 1.334 . S
C1527 H1504 0.950 . S
C1527 C1526 1.334 . S
C1527 C1528 1.287 . S
C1528 C1527 1.287 . S
C1528 C1529 1.524 . S
C1528 H1547 0.913 . S
C1529 H1505 0.950 . S
C1529 C1528 1.524 . S
C1529 C1530 1.415 . S
C1530 H1506 0.950 . S
C1530 C1525 1.363 . S
C1530 C1529 1.415 . S
C1531 H1507 0.951 . S
C1531 C1532 1.366 . S
C1531 C1533 1.388 . S
C1532 C1531 1.366 . S
C1532 C1536 1.385 . S
C1533 H1508 0.951 . S
C1533 C1531 1.388 . S
C1533 C1534 1.366 . S
C1534 C1533 1.366 . S
C1534 C1535 1.414 . S
C1534 C1537 1.499 . S
C1535 H1509 0.950 . S
C1535 C1534 1.414 . S
C1535 C1536 1.374 . S
C1536 H1510 0.950 . S
C1536 C1532 1.385 . S
C1536 C1535 1.374 . S
C1537 C1534 1.499 . S
C1537 C1538 1.373 . S
C1537 C1539 1.389 . S
C1538 H1511 0.950 . S
C1538 C1524 1.377 . S
C1538 C1537 1.373 . S
C1539 C1523 1.377 . S
C1539 C1537 1.389 . S
C1539 C1540 1.524 . S
C1540 C1539 1.524 . S
C1540 C1541 1.397 . S
C1540 C1545 1.363 . S
C1541 H1512 0.950 . S
C1541 C1540 1.397 . S
C1541 C1542 1.334 . S
C1542 H1513 0.950 . S
C1542 C1541 1.334 . S
C1542 C1543 1.287 . S
C1543 C1542 1.287 . S
C1543 C1544 1.524 . S
C1543 H1546 0.999 . S
C1544 H1514 0.950 . S
C1544 C1543 1.524 . S
C1544 C1545 1.415 . S
C1545 H1515 0.950 . S
C1545 C1540 1.363 . S
C1545 C1544 1.415 . S
H1546 C1543 0.999 . S
H1547 C1528 0.913 . S
H1548 C1566 0.951 . S
H1549 C1568 0.951 . S
H1550 C1570 0.950 . S
H1551 C1571 0.950 . S
H1552 C1573 0.950 . S
H1553 C1576 0.950 . S
H1554 C1577 0.950 . S
H1555 C1579 0.950 . S
H1556 C1580 0.950 . S
H1557 C1581 0.951 . S
H1558 C1583 0.951 . S
H1559 C1585 0.950 . S
H1560 C1586 0.950 . S
H1561 C1588 0.950 . S
H1562 C1591 0.950 . S
H1563 C1592 0.950 . S
H1564 C1594 0.950 . S
H1565 C1595 0.950 . S
C1566 H1548 0.951 . S
C1566 C1567 1.366 . S
C1566 C1568 1.388 . S
C1567 C1566 1.366 . S
C1567 C1571 1.385 . S
C1568 H1549 0.951 . S
C1568 C1566 1.388 . S
C1568 C1569 1.366 . S
C1569 C1568 1.366 . S
C1569 C1570 1.414 . S
C1569 C1572 1.499 . S
C1570 H1550 0.950 . S
C1570 C1569 1.414 . S
C1570 C1571 1.374 . S
C1571 H1551 0.950 . S
C1571 C1567 1.385 . S
C1571 C1570 1.374 . S
C1572 C1569 1.499 . S
C1572 C1573 1.373 . S
C1572 C1574 1.389 . S
C1573 H1552 0.950 . S
C1573 C1572 1.373 . S
C1573 C1589 1.377 . S
C1574 C1572 1.389 . S
C1574 C1575 1.524 . S
C1574 C1588 1.377 . S
C1575 C1574 1.524 . S
C1575 C1576 1.397 . S
C1575 C1580 1.363 . S
C1576 H1553 0.950 . S
C1576 C1575 1.397 . S
C1576 C1577 1.334 . S
C1577 H1554 0.950 . S
C1577 C1576 1.334 . S
C1577 C1578 1.287 . S
C1578 C1577 1.287 . S
C1578 C1579 1.524 . S
C1578 H1597 0.913 . S
C1579 H1555 0.950 . S
C1579 C1578 1.524 . S
C1579 C1580 1.415 . S
C1580 H1556 0.950 . S
C1580 C1575 1.363 . S
C1580 C1579 1.415 . S
C1581 H1557 0.951 . S
C1581 C1582 1.366 . S
C1581 C1583 1.388 . S
C1582 C1581 1.366 . S
C1582 C1586 1.385 . S
C1583 H1558 0.951 . S
C1583 C1581 1.388 . S
C1583 C1584 1.366 . S
C1584 C1583 1.366 . S
C1584 C1585 1.414 . S
C1584 C1587 1.499 . S
C1585 H1559 0.950 . S
C1585 C1584 1.414 . S
C1585 C1586 1.374 . S
C1586 H1560 0.950 . S
C1586 C1582 1.385 . S
C1586 C1585 1.374 . S
C1587 C1584 1.499 . S
C1587 C1588 1.373 . S
C1587 C1589 1.389 . S
C1588 H1561 0.950 . S
C1588 C1574 1.377 . S
C1588 C1587 1.373 . S
C1589 C1573 1.377 . S
C1589 C1587 1.389 . S
C1589 C1590 1.524 . S
C1590 C1589 1.524 . S
C1590 C1591 1.397 . S
C1590 C1595 1.363 . S
C1591 H1562 0.950 . S
C1591 C1590 1.397 . S
C1591 C1592 1.334 . S
C1592 H1563 0.950 . S
C1592 C1591 1.334 . S
C1592 C1593 1.287 . S
C1593 C1592 1.287 . S
C1593 C1594 1.524 . S
C1593 H1596 0.999 . S
C1594 H1564 0.950 . S
C1594 C1593 1.524 . S
C1594 C1595 1.415 . S
C1595 H1565 0.950 . S
C1595 C1590 1.363 . S
C1595 C1594 1.415 . S
H1596 C1593 0.999 . S
H1597 C1578 0.913 . S
H1598 C1616 0.951 . S
H1599 C1618 0.951 . S
H1600 C1620 0.950 . S
H1601 C1621 0.950 . S
H1602 C1623 0.950 . S
H1603 C1626 0.950 . S
H1604 C1627 0.950 . S
H1605 C1629 0.950 . S
H1606 C1630 0.950 . S
H1607 C1631 0.951 . S
H1608 C1633 0.951 . S
H1609 C1635 0.950 . S
H1610 C1636 0.950 . S
H1611 C1638 0.950 . S
H1612 C1641 0.950 . S
H1613 C1642 0.950 . S
H1614 C1644 0.950 . S
H1615 C1645 0.950 . S
C1616 H1598 0.951 . S
C1616 C1617 1.366 . S
C1616 C1618 1.388 . S
C1617 C1616 1.366 . S
C1617 C1621 1.385 . S
C1618 H1599 0.951 . S
C1618 C1616 1.388 . S
C1618 C1619 1.366 . S
C1619 C1618 1.366 . S
C1619 C1620 1.414 . S
C1619 C1622 1.499 . S
C1620 H1600 0.950 . S
C1620 C1619 1.414 . S
C1620 C1621 1.374 . S
C1621 H1601 0.950 . S
C1621 C1617 1.385 . S
C1621 C1620 1.374 . S
C1622 C1619 1.499 . S
C1622 C1623 1.373 . S
C1622 C1624 1.389 . S
C1623 H1602 0.950 . S
C1623 C1622 1.373 . S
C1623 C1639 1.377 . S
C1624 C1622 1.389 . S
C1624 C1625 1.524 . S
C1624 C1638 1.377 . S
C1625 C1624 1.524 . S
C1625 C1626 1.397 . S
C1625 C1630 1.363 . S
C1626 H1603 0.950 . S
C1626 C1625 1.397 . S
C1626 C1627 1.334 . S
C1627 H1604 0.950 . S
C1627 C1626 1.334 . S
C1627 C1628 1.287 . S
C1628 C1627 1.287 . S
C1628 C1629 1.524 . S
C1628 H1647 0.913 . S
C1629 H1605 0.950 . S
C1629 C1628 1.524 . S
C1629 C1630 1.415 . S
C1630 H1606 0.950 . S
C1630 C1625 1.363 . S
C1630 C1629 1.415 . S
C1631 H1607 0.951 . S
C1631 C1632 1.366 . S
C1631 C1633 1.388 . S
C1632 C1631 1.366 . S
C1632 C1636 1.385 . S
C1633 H1608 0.951 . S
C1633 C1631 1.388 . S
C1633 C1634 1.366 . S
C1634 C1633 1.366 . S
C1634 C1635 1.414 . S
C1634 C1637 1.499 . S
C1635 H1609 0.950 . S
C1635 C1634 1.414 . S
C1635 C1636 1.374 . S
C1636 H1610 0.950 . S
C1636 C1632 1.385 . S
C1636 C1635 1.374 . S
C1637 C1634 1.499 . S
C1637 C1638 1.373 . S
C1637 C1639 1.389 . S
C1638 H1611 0.950 . S
C1638 C1624 1.377 . S
C1638 C1637 1.373 . S
C1639 C1623 1.377 . S
C1639 C1637 1.389 . S
C1639 C1640 1.524 . S
C1640 C1639 1.524 . S
C1640 C1641 1.397 . S
C1640 C1645 1.363 . S
C1641 H1612 0.950 . S
C1641 C1640 1.397 . S
C1641 C1642 1.334 . S
C1642 H1613 0.950 . S
C1642 C1641 1.334 . S
C1642 C1643 1.287 . S
C1643 C1642 1.287 . S
C1643 C1644 1.524 . S
C1643 H1646 0.999 . S
C1644 H1614 0.950 . S
C1644 C1643 1.524 . S
C1644 C1645 1.415 . S
C1645 H1615 0.950 . S
C1645 C1640 1.363 . S
C1645 C1644 1.415 . S
H1646 C1643 0.999 . S
H1647 C1628 0.913 . S
H1648 C1666 0.951 . S
H1649 C1668 0.951 . S
H1650 C1670 0.950 . S
H1651 C1671 0.950 . S
H1652 C1673 0.950 . S
H1653 C1676 0.950 . S
H1654 C1677 0.950 . S
H1655 C1679 0.950 . S
H1656 C1680 0.950 . S
H1657 C1681 0.951 . S
H1658 C1683 0.951 . S
H1659 C1685 0.950 . S
H1660 C1686 0.950 . S
H1661 C1688 0.950 . S
H1662 C1691 0.950 . S
H1663 C1692 0.950 . S
H1664 C1694 0.950 . S
H1665 C1695 0.950 . S
C1666 H1648 0.951 . S
C1666 C1667 1.366 . S
C1666 C1668 1.388 . S
C1667 C1666 1.366 . S
C1667 C1671 1.385 . S
C1668 H1649 0.951 . S
C1668 C1666 1.388 . S
C1668 C1669 1.366 . S
C1669 C1668 1.366 . S
C1669 C1670 1.414 . S
C1669 C1672 1.499 . S
C1670 H1650 0.950 . S
C1670 C1669 1.414 . S
C1670 C1671 1.374 . S
C1671 H1651 0.950 . S
C1671 C1667 1.385 . S
C1671 C1670 1.374 . S
C1672 C1669 1.499 . S
C1672 C1673 1.373 . S
C1672 C1674 1.389 . S
C1673 H1652 0.950 . S
C1673 C1672 1.373 . S
C1673 C1689 1.377 . S
C1674 C1672 1.389 . S
C1674 C1675 1.524 . S
C1674 C1688 1.377 . S
C1675 C1674 1.524 . S
C1675 C1676 1.397 . S
C1675 C1680 1.363 . S
C1676 H1653 0.950 . S
C1676 C1675 1.397 . S
C1676 C1677 1.334 . S
C1677 H1654 0.950 . S
C1677 C1676 1.334 . S
C1677 C1678 1.287 . S
C1678 C1677 1.287 . S
C1678 C1679 1.524 . S
C1678 H1697 0.913 . S
C1679 H1655 0.950 . S
C1679 C1678 1.524 . S
C1679 C1680 1.415 . S
C1680 H1656 0.950 . S
C1680 C1675 1.363 . S
C1680 C1679 1.415 . S
C1681 H1657 0.951 . S
C1681 C1682 1.366 . S
C1681 C1683 1.388 . S
C1682 C1681 1.366 . S
C1682 C1686 1.385 . S
C1683 H1658 0.951 . S
C1683 C1681 1.388 . S
C1683 C1684 1.366 . S
C1684 C1683 1.366 . S
C1684 C1685 1.414 . S
C1684 C1687 1.499 . S
C1685 H1659 0.950 . S
C1685 C1684 1.414 . S
C1685 C1686 1.374 . S
C1686 H1660 0.950 . S
C1686 C1682 1.385 . S
C1686 C1685 1.374 . S
C1687 C1684 1.499 . S
C1687 C1688 1.373 . S
C1687 C1689 1.389 . S
C1688 H1661 0.950 . S
C1688 C1674 1.377 . S
C1688 C1687 1.373 . S
C1689 C1673 1.377 . S
C1689 C1687 1.389 . S
C1689 C1690 1.524 . S
C1690 C1689 1.524 . S
C1690 C1691 1.397 . S
C1690 C1695 1.363 . S
C1691 H1662 0.950 . S
C1691 C1690 1.397 . S
C1691 C1692 1.334 . S
C1692 H1663 0.950 . S
C1692 C1691 1.334 . S
C1692 C1693 1.287 . S
C1693 C1692 1.287 . S
C1693 C1694 1.524 . S
C1693 H1696 0.999 . S
C1694 H1664 0.950 . S
C1694 C1693 1.524 . S
C1694 C1695 1.415 . S
C1695 H1665 0.950 . S
C1695 C1690 1.363 . S
C1695 C1694 1.415 . S
H1696 C1693 0.999 . S
H1697 C1678 0.913 . S
H1698 C1716 0.951 . S
H1699 C1718 0.951 . S
H1700 C1720 0.950 . S
H1701 C1721 0.950 . S
H1702 C1723 0.950 . S
H1703 C1726 0.950 . S
H1704 C1727 0.950 . S
H1705 C1729 0.950 . S
H1706 C1730 0.950 . S
H1707 C1731 0.951 . S
H1708 C1733 0.951 . S
H1709 C1735 0.950 . S
H1710 C1736 0.950 . S
H1711 C1738 0.950 . S
H1712 C1741 0.950 . S
H1713 C1742 0.950 . S
H1714 C1744 0.950 . S
H1715 C1745 0.950 . S
C1716 H1698 0.951 . S
C1716 C1717 1.366 . S
C1716 C1718 1.388 . S
C1717 C1716 1.366 . S
C1717 C1721 1.385 . S
C1718 H1699 0.951 . S
C1718 C1716 1.388 . S
C1718 C1719 1.366 . S
C1719 C1718 1.366 . S
C1719 C1720 1.414 . S
C1719 C1722 1.499 . S
C1720 H1700 0.950 . S
C1720 C1719 1.414 . S
C1720 C1721 1.374 . S
C1721 H1701 0.950 . S
C1721 C1717 1.385 . S
C1721 C1720 1.374 . S
C1722 C1719 1.499 . S
C1722 C1723 1.373 . S
C1722 C1724 1.389 . S
C1723 H1702 0.950 . S
C1723 C1722 1.373 . S
C1723 C1739 1.377 . S
C1724 C1722 1.389 . S
C1724 C1725 1.524 . S
C1724 C1738 1.377 . S
C1725 C1724 1.524 . S
C1725 C1726 1.397 . S
C1725 C1730 1.363 . S
C1726 H1703 0.950 . S
C1726 C1725 1.397 . S
C1726 C1727 1.334 . S
C1727 H1704 0.950 . S
C1727 C1726 1.334 . S
C1727 C1728 1.287 . S
C1728 C1727 1.287 . S
C1728 C1729 1.524 . S
C1728 H1747 0.913 . S
C1729 H1705 0.950 . S
C1729 C1728 1.524 . S
C1729 C1730 1.415 . S
C1730 H1706 0.950 . S
C1730 C1725 1.363 . S
C1730 C1729 1.415 . S
C1731 H1707 0.951 . S
C1731 C1732 1.366 . S
C1731 C1733 1.388 . S
C1732 C1731 1.366 . S
C1732 C1736 1.385 . S
C1733 H1708 0.951 . S
C1733 C1731 1.388 . S
C1733 C1734 1.366 . S
C1734 C1733 1.366 . S
C1734 C1735 1.414 . S
C1734 C1737 1.499 . S
C1735 H1709 0.950 . S
C1735 C1734 1.414 . S
C1735 C1736 1.374 . S
C1736 H1710 0.950 . S
C1736 C1732 1.385 . S
C1736 C1735 1.374 . S
C1737 C1734 1.499 . S
C1737 C1738 1.373 . S
C1737 C1739 1.389 . S
C1738 H1711 0.950 . S
C1738 C1724 1.377 . S
C1738 C1737 1.373 . S
C1739 C1723 1.377 . S
C1739 C1737 1.389 . S
C1739 C1740 1.524 . S
C1740 C1739 1.524 . S
C1740 C1741 1.397 . S
C1740 C1745 1.363 . S
C1741 H1712 0.950 . S
C1741 C1740 1.397 . S
C1741 C1742 1.334 . S
C1742 H1713 0.950 . S
C1742 C1741 1.334 . S
C1742 C1743 1.287 . S
C1743 C1742 1.287 . S
C1743 C1744 1.524 . S
C1743 H1746 0.999 . S
C1744 H1714 0.950 . S
C1744 C1743 1.524 . S
C1744 C1745 1.415 . S
C1745 H1715 0.950 . S
C1745 C1740 1.363 . S
C1745 C1744 1.415 . S
H1746 C1743 0.999 . S
H1747 C1728 0.913 . S
H1748 C1766 0.951 . S
H1749 C1768 0.951 . S
H1750 C1770 0.950 . S
H1751 C1771 0.950 . S
H1752 C1773 0.950 . S
H1753 C1776 0.950 . S
H1754 C1777 0.950 . S
H1755 C1779 0.950 . S
H1756 C1780 0.950 . S
H1757 C1781 0.951 . S
H1758 C1783 0.951 . S
H1759 C1785 0.950 . S
H1760 C1786 0.950 . S
H1761 C1788 0.950 . S
H1762 C1791 0.950 . S
H1763 C1792 0.950 . S
H1764 C1794 0.950 . S
H1765 C1795 0.950 . S
C1766 H1748 0.951 . S
C1766 C1767 1.366 . S
C1766 C1768 1.388 . S
C1767 C1766 1.366 . S
C1767 C1771 1.385 . S
C1768 H1749 0.951 . S
C1768 C1766 1.388 . S
C1768 C1769 1.366 . S
C1769 C1768 1.366 . S
C1769 C1770 1.414 . S
C1769 C1772 1.499 . S
C1770 H1750 0.950 . S
C1770 C1769 1.414 . S
C1770 C1771 1.374 . S
C1771 H1751 0.950 . S
C1771 C1767 1.385 . S
C1771 C1770 1.374 . S
C1772 C1769 1.499 . S
C1772 C1773 1.373 . S
C1772 C1774 1.389 . S
C1773 H1752 0.950 . S
C1773 C1772 1.373 . S
C1773 C1789 1.377 . S
C1774 C1772 1.389 . S
C1774 C1775 1.524 . S
C1774 C1788 1.377 . S
C1775 C1774 1.524 . S
C1775 C1776 1.397 . S
C1775 C1780 1.363 . S
C1776 H1753 0.950 . S
C1776 C1775 1.397 . S
C1776 C1777 1.334 . S
C1777 H1754 0.950 . S
C1777 C1776 1.334 . S
C1777 C1778 1.287 . S
C1778 C1777 1.287 . S
C1778 C1779 1.524 . S
C1778 H1797 0.913 . S
C1779 H1755 0.950 . S
C1779 C1778 1.524 . S
C1779 C1780 1.415 . S
C1780 H1756 0.950 . S
C1780 C1775 1.363 . S
C1780 C1779 1.415 . S
C1781 H1757 0.951 . S
C1781 C1782 1.366 . S
C1781 C1783 1.388 . S
C1782 C1781 1.366 . S
C1782 C1786 1.385 . S
C1783 H1758 0.951 . S
C1783 C1781 1.388 . S
C1783 C1784 1.366 . S
C1784 C1783 1.366 . S
C1784 C1785 1.414 . S
C1784 C1787 1.499 . S
C1785 H1759 0.950 . S
C1785 C1784 1.414 . S
C1785 C1786 1.374 . S
C1786 H1760 0.950 . S
C1786 C1782 1.385 . S
C1786 C1785 1.374 . S
C1787 C1784 1.499 . S
C1787 C1788 1.373 . S
C1787 C1789 1.389 . S
C1788 H1761 0.950 . S
C1788 C1774 1.377 . S
C1788 C1787 1.373 . S
C1789 C1773 1.377 . S
C1789 C1787 1.389 . S
C1789 C1790 1.524 . S
C1790 C1789 1.524 . S
C1790 C1791 1.397 . S
C1790 C1795 1.363 . S
C1791 H1762 0.950 . S
C1791 C1790 1.397 . S
C1791 C1792 1.334 . S
C1792 H1763 0.950 . S
C1792 C1791 1.334 . S
C1792 C1793 1.287 . S
C1793 C1792 1.287 . S
C1793 C1794 1.524 . S
C1793 H1796 0.999 . S
C1794 H1764 0.950 . S
C1794 C1793 1.524 . S
C1794 C1795 1.415 . S
C1795 H1765 0.950 . S
C1795 C1790 1.363 . S
C1795 C1794 1.415 . S
H1796 C1793 0.999 . S
H1797 C1778 0.913 . S
H1798 C1816 0.951 . S
H1799 C1818 0.951 . S
H1800 C1820 0.950 . S
H1801 C1821 0.950 . S
H1802 C1823 0.950 . S
H1803 C1826 0.950 . S
H1804 C1827 0.950 . S
H1805 C1829 0.950 . S
H1806 C1830 0.950 . S
H1807 C1831 0.951 . S
H1808 C1833 0.951 . S
H1809 C1835 0.950 . S
H1810 C1836 0.950 . S
H1811 C1838 0.950 . S
H1812 C1841 0.950 . S
H1813 C1842 0.950 . S
H1814 C1844 0.950 . S
H1815 C1845 0.950 . S
C1816 H1798 0.951 . S
C1816 C1817 1.366 . S
C1816 C1818 1.388 . S
C1817 C1816 1.366 . S
C1817 C1821 1.385 . S
C1818 H1799 0.951 . S
C1818 C1816 1.388 . S
C1818 C1819 1.366 . S
C1819 C1818 1.366 . S
C1819 C1820 1.414 . S
C1819 C1822 1.499 . S
C1820 H1800 0.950 . S
C1820 C1819 1.414 . S
C1820 C1821 1.374 . S
C1821 H1801 0.950 . S
C1821 C1817 1.385 . S
C1821 C1820 1.374 . S
C1822 C1819 1.499 . S
C1822 C1823 1.373 . S
C1822 C1824 1.389 . S
C1823 H1802 0.950 . S
C1823 C1822 1.373 . S
C1823 C1839 1.377 . S
C1824 C1822 1.389 . S
C1824 C1825 1.524 . S
C1824 C1838 1.377 . S
C1825 C1824 1.524 . S
C1825 C1826 1.397 . S
C1825 C1830 1.363 . S
C1826 H1803 0.950 . S
C1826 C1825 1.397 . S
C1826 C1827 1.334 . S
C1827 H1804 0.950 . S
C1827 C1826 1.334 . S
C1827 C1828 1.287 . S
C1828 C1827 1.287 . S
C1828 C1829 1.524 . S
C1828 H1847 0.913 . S
C1829 H1805 0.950 . S
C1829 C1828 1.524 . S
C1829 C1830 1.415 . S
C1830 H1806 0.950 . S
C1830 C1825 1.363 . S
C1830 C1829 1.415 . S
C1831 H1807 0.951 . S
C1831 C1832 1.366 . S
C1831 C1833 1.388 . S
C1832 C1831 1.366 . S
C1832 C1836 1.385 . S
C1833 H1808 0.951 . S
C1833 C1831 1.388 . S
C1833 C1834 1.366 . S
C1834 C1833 1.366 . S
C1834 C1835 1.414 . S
C1834 C1837 1.499 . S
C1835 H1809 0.950 . S
C1835 C1834 1.414 . S
C1835 C1836 1.374 . S
C1836 H1810 0.950 . S
C1836 C1832 1.385 . S
C1836 C1835 1.374 . S
C1837 C1834 1.499 . S
C1837 C1838 1.373 . S
C1837 C1839 1.389 . S
C1838 H1811 0.950 . S
C1838 C1824 1.377 . S
C1838 C1837 1.373 . S
C1839 C1823 1.377 . S
C1839 C1837 1.389 . S
C1839 C1840 1.524 . S
C1840 C1839 1.524 . S
C1840 C1841 1.397 . S
C1840 C1845 1.363 . S
C1841 H1812 0.950 . S
C1841 C1840 1.397 . S
C1841 C1842 1.334 . S
C1842 H1813 0.950 . S
C1842 C1841 1.334 . S
C1842 C1843 1.287 . S
C1843 C1842 1.287 . S
C1843 C1844 1.524 . S
C1843 H1846 0.999 . S
C1844 H1814 0.950 . S
C1844 C1843 1.524 . S
C1844 C1845 1.415 . S
C1845 H1815 0.950 . S
C1845 C1840 1.363 . S
C1845 C1844 1.415 . S
H1846 C1843 0.999 . S
H1847 C1828 0.913 . S
H1848 C1866 0.951 . S
H1849 C1868 0.951 . S
H1850 C1870 0.950 . S
H1851 C1871 0.950 . S
H1852 C1873 0.950 . S
H1853 C1876 0.950 . S
H1854 C1877 0.950 . S
H1855 C1879 0.950 . S
H1856 C1880 0.950 . S
H1857 C1881 0.951 . S
H1858 C1883 0.951 . S
H1859 C1885 0.950 . S
H1860 C1886 0.950 . S
H1861 C1888 0.950 . S
H1862 C1891 0.950 . S
H1863 C1892 0.950 . S
H1864 C1894 0.950 . S
H1865 C1895 0.950 . S
C1866 H1848 0.951 . S
C1866 C1867 1.366 . S
C1866 C1868 1.388 . S
C1867 C1866 1.366 . S
C1867 C1871 1.385 . S
C1868 H1849 0.951 . S
C1868 C1866 1.388 . S
C1868 C1869 1.366 . S
C1869 C1868 1.366 . S
C1869 C1870 1.414 . S
C1869 C1872 1.499 . S
C1870 H1850 0.950 . S
C1870 C1869 1.414 . S
C1870 C1871 1.374 . S
C1871 H1851 0.950 . S
C1871 C1867 1.385 . S
C1871 C1870 1.374 . S
C1872 C1869 1.499 . S
C1872 C1873 1.373 . S
C1872 C1874 1.389 . S
C1873 H1852 0.950 . S
C1873 C1872 1.373 . S
C1873 C1889 1.377 . S
C1874 C1872 1.389 . S
C1874 C1875 1.524 . S
C1874 C1888 1.377 . S
C1875 C1874 1.524 . S
C1875 C1876 1.397 . S
C1875 C1880 1.363 . S
C1876 H1853 0.950 . S
C1876 C1875 1.397 . S
C1876 C1877 1.334 . S
C1877 H1854 0.950 . S
C1877 C1876 1.334 . S
C1877 C1878 1.287 . S
C1878 C1877 1.287 . S
C1878 C1879 1.524 . S
C1878 H1897 0.913 . S
C1879 H1855 0.950 . S
C1879 C1878 1.524 . S
C1879 C1880 1.415 . S
C1880 H1856 0.950 . S
C1880 C1875 1.363 . S
C1880 C1879 1.415 . S
C1881 H1857 0.951 . S
C1881 C1882 1.366 . S
C1881 C1883 1.388 . S
C1882 C1881 1.366 . S
C1882 C1886 1.385 . S
C1883 H1858 0.951 . S
C1883 C1881 1.388 . S
C1883 C1884 1.366 . S
C1884 C1883 1.366 . S
C1884 C1885 1.414 . S
C1884 C1887 1.499 . S
C1885 H1859 0.950 . S
C1885 C1884 1.414 . S
C1885 C1886 1.374 . S
C1886 H1860 0.950 . S
C1886 C1882 1.385 . S
C1886 C1885 1.374 . S
C1887 C1884 1.499 . S
C1887 C1888 1.373 . S
C1887 C1889 1.389 . S
C1888 H1861 0.950 . S
C1888 C1874 1.377 . S
C1888 C1887 1.373 . S
C1889 C1873 1.377 . S
C1889 C1887 1.389 . S
C1889 C1890 1.524 . S
C1890 C1889 1.524 . S
C1890 C1891 1.397 . S
C1890 C1895 1.363 . S
C1891 H1862 0.950 . S
C1891 C1890 1.397 . S
C1891 C1892 1.334 . S
C1892 H1863 0.950 . S
C1892 C1891 1.334 . S
C1892 C1893 1.287 . S
C1893 C1892 1.287 . S
C1893 C1894 1.524 . S
C1893 H1896 0.999 . S
C1894 H1864 0.950 . S
C1894 C1893 1.524 . S
C1894 C1895 1.415 . S
C1895 H1865 0.950 . S
C1895 C1890 1.363 . S
C1895 C1894 1.415 . S
H1896 C1893 0.999 . S
H1897 C1878 0.913 . S
H1898 C1916 0.951 . S
H1899 C1918 0.951 . S
H1900 C1920 0.950 . S
H1901 C1921 0.950 . S
H1902 C1923 0.950 . S
H1903 C1926 0.950 . S
H1904 C1927 0.950 . S
H1905 C1929 0.950 . S
H1906 C1930 0.950 . S
H1907 C1931 0.951 . S
H1908 C1933 0.951 . S
H1909 C1935 0.950 . S
H1910 C1936 0.950 . S
H1911 C1938 0.950 . S
H1912 C1941 0.950 . S
H1913 C1942 0.950 . S
H1914 C1944 0.950 . S
H1915 C1945 0.950 . S
C1916 H1898 0.951 . S
C1916 C1917 1.366 . S
C1916 C1918 1.388 . S
C1917 C1916 1.366 . S
C1917 C1921 1.385 . S
C1918 H1899 0.951 . S
C1918 C1916 1.388 . S
C1918 C1919 1.366 . S
C1919 C1918 1.366 . S
C1919 C1920 1.414 . S
C1919 C1922 1.499 . S
C1920 H1900 0.950 . S
C1920 C1919 1.414 . S
C1920 C1921 1.374 . S
C1921 H1901 0.950 . S
C1921 C1917 1.385 . S
C1921 C1920 1.374 . S
C1922 C1919 1.499 . S
C1922 C1923 1.373 . S
C1922 C1924 1.389 . S
C1923 H1902 0.950 . S
C1923 C1922 1.373 . S
C1923 C1939 1.377 . S
C1924 C1922 1.389 . S
C1924 C1925 1.524 . S
C1924 C1938 1.377 . S
C1925 C1924 1.524 . S
C1925 C1926 1.397 . S
C1925 C1930 1.363 . S
C1926 H1903 0.950 . S
C1926 C1925 1.397 . S
C1926 C1927 1.334 . S
C1927 H1904 0.950 . S
C1927 C1926 1.334 . S
C1927 C1928 1.287 . S
C1928 C1927 1.287 . S
C1928 C1929 1.524 . S
C1928 H1947 0.913 . S
C1929 H1905 0.950 . S
C1929 C1928 1.524 . S
C1929 C1930 1.415 . S
C1930 H1906 0.950 . S
C1930 C1925 1.363 . S
C1930 C1929 1.415 . S
C1931 H1907 0.951 . S
C1931 C1932 1.366 . S
C1931 C1933 1.388 . S
C1932 C1931 1.366 . S
C1932 C1936 1.385 . S
C1933 H1908 0.951 . S
C1933 C1931 1.388 . S
C1933 C1934 1.366 . S
C1934 C1933 1.366 . S
C1934 C1935 1.414 . S
C1934 C1937 1.499 . S
C1935 H1909 0.950 . S
C1935 C1934 1.414 . S
C1935 C1936 1.374 . S
C1936 H1910 0.950 . S
C1936 C1932 1.385 . S
C1936 C1935 1.374 . S
C1937 C1934 1.499 . S
C1937 C1938 1.373 . S
C1937 C1939 1.389 . S
C1938 H1911 0.950 . S
C1938 C1924 1.377 . S
C1938 C1937 1.373 . S
C1939 C1923 1.377 . S
C1939 C1937 1.389 . S
C1939 C1940 1.524 . S
C1940 C1939 1.524 . S
C1940 C1941 1.397 . S
C1940 C1945 1.363 . S
C1941 H1912 0.950 . S
C1941 C1940 1.397 . S
C1941 C1942 1.334 . S
C1942 H1913 0.950 . S
C1942 C1941 1.334 . S
C1942 C1943 1.287 . S
C1943 C1942 1.287 . S
C1943 C1944 1.524 . S
C1943 H1946 0.999 . S
C1944 H1914 0.950 . S
C1944 C1943 1.524 . S
C1944 C1945 1.415 . S
C1945 H1915 0.950 . S
C1945 C1940 1.363 . S
C1945 C1944 1.415 . S
H1946 C1943 0.999 . S
H1947 C1928 0.913 . S
H1948 C1966 0.951 . S
H1949 C1968 0.951 . S
H1950 C1970 0.950 . S
H1951 C1971 0.950 . S
H1952 C1973 0.950 . S
H1953 C1976 0.950 . S
H1954 C1977 0.950 . S
H1955 C1979 0.950 . S
H1956 C1980 0.950 . S
H1957 C1981 0.951 . S
H1958 C1983 0.951 . S
H1959 C1985 0.950 . S
H1960 C1986 0.950 . S
H1961 C1988 0.950 . S
H1962 C1991 0.950 . S
H1963 C1992 0.950 . S
H1964 C1994 0.950 . S
H1965 C1995 0.950 . S
C1966 H1948 0.951 . S
C1966 C1967 1.366 . S
C1966 C1968 1.388 . S
C1967 C1966 1.366 . S
C1967 C1971 1.385 . S
C1968 H1949 0.951 . S
C1968 C1966 1.388 . S
C1968 C1969 1.366 . S
C1969 C1968 1.366 . S
C1969 C1970 1.414 . S
C1969 C1972 1.499 . S
C1970 H1950 0.950 . S
C1970 C1969 1.414 . S
C1970 C1971 1.374 . S
C1971 H1951 0.950 . S
C1971 C1967 1.385 . S
C1971 C1970 1.374 . S
C1972 C1969 1.499 . S
C1972 C1973 1.373 . S
C1972 C1974 1.389 . S
C1973 H1952 0.950 . S
C1973 C1972 1.373 . S
C1973 C1989 1.377 . S
C1974 C1972 1.389 . S
C1974 C1975 1.524 . S
C1974 C1988 1.377 . S
C1975 C1974 1.524 . S
C1975 C1976 1.397 . S
C1975 C1980 1.363 . S
C1976 H1953 0.950 . S
C1976 C1975 1.397 . S
C1976 C1977 1.334 . S
C1977 H1954 0.950 . S
C1977 C1976 1.334 . S
C1977 C1978 1.287 . S
C1978 C1977 1.287 . S
C1978 C1979 1.524 . S
C1978 H1997 0.913 . S
C1979 H1955 0.950 . S
C1979 C1978 1.524 . S
C1979 C1980 1.415 . S
C1980 H1956 0.950 . S
C1980 C1975 1.363 . S
C1980 C1979 1.415 . S
C1981 H1957 0.951 . S
C1981 C1982 1.366 . S
C1981 C1983 1.388 . S
C1982 C1981 1.366 . S
C1982 C1986 1.385 . S
C1983 H1958 0.951 . S
C1983 C1981 1.388 . S
C1983 C1984 1.366 . S
C1984 C1983 1.366 . S
C1984 C1985 1.414 . S
C1984 C1987 1.499 . S
C1985 H1959 0.950 . S
C1985 C1984 1.414 . S
C1985 C1986 1.374 . S
C1986 H1960 0.950 . S
C1986 C1982 1.385 . S
C1986 C1985 1.374 . S
C1987 C1984 1.499 . S
C1987 C1988 1.373 . S
C1987 C1989 1.389 . S
C1988 H1961 0.950 . S
C1988 C1974 1.377 . S
C1988 C1987 1.373 . S
C1989 C1973 1.377 . S
C1989 C1987 1.389 . S
C1989 C1990 1.524 . S
C1990 C1989 1.524 . S
C1990 C1991 1.397 . S
C1990 C1995 1.363 . S
C1991 H1962 0.950 . S
C1991 C1990 1.397 . S
C1991 C1992 1.334 . S
C1992 H1963 0.950 . S
C1992 C1991 1.334 . S
C1992 C1993 1.287 . S
C1993 C1992 1.287 . S
C1993 C1994 1.524 . S
C1993 H1996 0.999 . S
C1994 H1964 0.950 . S
C1994 C1993 1.524 . S
C1994 C1995 1.415 . S
C1995 H1965 0.950 . S
C1995 C1990 1.363 . S
C1995 C1994 1.415 . S
H1996 C1993 0.999 . S
H1997 C1978 0.913 . S
H1998 C2016 0.951 . S
H1999 C2018 0.951 . S
H2000 C2020 0.950 . S
H2001 C2021 0.950 . S
H2002 C2023 0.950 . S
H2003 C2026 0.950 . S
H2004 C2027 0.950 . S
H2005 C2029 0.950 . S
H2006 C2030 0.950 . S
H2007 C2031 0.951 . S
H2008 C2033 0.951 . S
H2009 C2035 0.950 . S
H2010 C2036 0.950 . S
H2011 C2038 0.950 . S
H2012 C2041 0.950 . S
H2013 C2042 0.950 . S
H2014 C2044 0.950 . S
H2015 C2045 0.950 . S
C2016 H1998 0.951 . S
C2016 C2017 1.366 . S
C2016 C2018 1.388 . S
C2017 C2016 1.366 . S
C2017 C2021 1.385 . S
C2018 H1999 0.951 . S
C2018 C2016 1.388 . S
C2018 C2019 1.366 . S
C2019 C2018 1.366 . S
C2019 C2020 1.414 . S
C2019 C2022 1.499 . S
C2020 H2000 0.950 . S
C2020 C2019 1.414 . S
C2020 C2021 1.374 . S
C2021 H2001 0.950 . S
C2021 C2017 1.385 . S
C2021 C2020 1.374 . S
C2022 C2019 1.499 . S
C2022 C2023 1.373 . S
C2022 C2024 1.389 . S
C2023 H2002 0.950 . S
C2023 C2022 1.373 . S
C2023 C2039 1.377 . S
C2024 C2022 1.389 . S
C2024 C2025 1.524 . S
C2024 C2038 1.377 . S
C2025 C2024 1.524 . S
C2025 C2026 1.397 . S
C2025 C2030 1.363 . S
C2026 H2003 0.950 . S
C2026 C2025 1.397 . S
C2026 C2027 1.334 . S
C2027 H2004 0.950 . S
C2027 C2026 1.334 . S
C2027 C2028 1.287 . S
C2028 C2027 1.287 . S
C2028 C2029 1.524 . S
C2028 H2047 0.913 . S
C2029 H2005 0.950 . S
C2029 C2028 1.524 . S
C2029 C2030 1.415 . S
C2030 H2006 0.950 . S
C2030 C2025 1.363 . S
C2030 C2029 1.415 . S
C2031 H2007 0.951 . S
C2031 C2032 1.366 . S
C2031 C2033 1.388 . S
C2032 C2031 1.366 . S
C2032 C2036 1.385 . S
C2033 H2008 0.951 . S
C2033 C2031 1.388 . S
C2033 C2034 1.366 . S
C2034 C2033 1.366 . S
C2034 C2035 1.414 . S
C2034 C2037 1.499 . S
C2035 H2009 0.950 . S
C2035 C2034 1.414 . S
C2035 C2036 1.374 . S
C2036 H2010 0.950 . S
C2036 C2032 1.385 . S
C2036 C2035 1.374 . S
C2037 C2034 1.499 . S
C2037 C2038 1.373 . S
C2037 C2039 1.389 . S
C2038 H2011 0.950 . S
C2038 C2024 1.377 . S
C2038 C2037 1.373 . S
C2039 C2023 1.377 . S
C2039 C2037 1.389 . S
C2039 C2040 1.524 . S
C2040 C2039 1.524 . S
C2040 C2041 1.397 . S
C2040 C2045 1.363 . S
C2041 H2012 0.950 . S
C2041 C2040 1.397 . S
C2041 C2042 1.334 . S
C2042 H2013 0.950 . S
C2042 C2041 1.334 . S
C2042 C2043 1.287 . S
C2043 C2042 1.287 . S
C2043 C2044 1.524 . S
C2043 H2046 0.999 . S
C2044 H2014 0.950 . S
C2044 C2043 1.524 . S
C2044 C2045 1.415 . S
C2045 H2015 0.950 . S
C2045 C2040 1.363 . S
C2045 C2044 1.415 . S
H2046 C2043 0.999 . S
H2047 C2028 0.913 . S
H2048 C2066 0.951 . S
H2049 C2068 0.951 . S
H2050 C2070 0.950 . S
H2051 C2071 0.950 . S
H2052 C2073 0.950 . S
H2053 C2076 0.950 . S
H2054 C2077 0.950 . S
H2055 C2079 0.945 1_545 S
H2056 C2080 0.950 1_545 S
H2057 C2081 0.951 . S
H2058 C2083 0.951 . S
H2059 C2085 0.950 . S
H2060 C2086 0.950 . S
H2061 C2088 0.950 . S
H2062 C2091 0.950 . S
H2063 C2092 0.950 . S
H2064 C2094 0.945 1_565 S
H2065 C2095 0.950 1_565 S
C2066 H2048 0.951 . S
C2066 C2067 1.366 . S
C2066 C2068 1.388 . S
C2067 C2066 1.366 . S
C2067 C2071 1.385 . S
C2068 H2049 0.951 . S
C2068 C2066 1.388 . S
C2068 C2069 1.366 . S
C2069 C2068 1.366 . S
C2069 C2070 1.414 . S
C2069 C2072 1.499 . S
C2070 H2050 0.950 . S
C2070 C2069 1.414 . S
C2070 C2071 1.374 . S
C2071 H2051 0.950 . S
C2071 C2067 1.385 . S
C2071 C2070 1.374 . S
C2072 C2069 1.499 . S
C2072 C2073 1.373 1_655 S
C2072 C2074 1.389 . S
C2073 H2052 0.950 . S
C2073 C2072 1.373 1_455 S
C2073 C2089 1.377 1_565 S
C2074 C2072 1.389 . S
C2074 C2075 1.524 . S
C2074 C2088 1.377 1_565 S
C2075 C2074 1.524 . S
C2075 C2076 1.397 . S
C2075 C2080 1.363 . S
C2076 H2053 0.950 . S
C2076 C2075 1.397 . S
C2076 C2077 1.334 . S
C2077 H2054 0.950 . S
C2077 C2076 1.334 . S
C2077 C2078 1.287 . S
C2078 C2077 1.287 . S
C2078 C2079 1.524 . S
C2078 H2097 0.913 . S
C2079 H2055 0.945 1_565 S
C2079 C2078 1.524 . S
C2079 C2080 1.415 . S
C2080 H2056 0.950 1_565 S
C2080 C2075 1.363 . S
C2080 C2079 1.415 . S
C2081 H2057 0.951 . S
C2081 C2082 1.366 . S
C2081 C2083 1.388 . S
C2082 C2081 1.366 . S
C2082 C2086 1.385 . S
C2083 H2058 0.951 . S
C2083 C2081 1.388 . S
C2083 C2084 1.366 . S
C2084 C2083 1.366 . S
C2084 C2085 1.414 . S
C2084 C2087 1.499 . S
C2085 H2059 0.950 . S
C2085 C2084 1.414 . S
C2085 C2086 1.374 . S
C2086 H2060 0.950 . S
C2086 C2082 1.385 . S
C2086 C2085 1.374 . S
C2087 C2084 1.499 . S
C2087 C2088 1.373 1_455 S
C2087 C2089 1.389 . S
C2088 H2061 0.950 . S
C2088 C2074 1.377 1_545 S
C2088 C2087 1.373 1_655 S
C2089 C2073 1.377 1_545 S
C2089 C2087 1.389 . S
C2089 C2090 1.524 . S
C2090 C2089 1.524 . S
C2090 C2091 1.397 . S
C2090 C2095 1.363 . S
C2091 H2062 0.950 . S
C2091 C2090 1.397 . S
C2091 C2092 1.334 . S
C2092 H2063 0.950 . S
C2092 C2091 1.334 . S
C2092 C2093 1.287 . S
C2093 C2092 1.287 . S
C2093 C2094 1.524 . S
C2093 H2096 0.999 . S
C2094 H2064 0.945 1_545 S
C2094 C2093 1.524 . S
C2094 C2095 1.415 . S
C2095 H2065 0.950 1_545 S
C2095 C2090 1.363 . S
C2095 C2094 1.415 . S
H2096 C2093 0.999 . S
H2097 C2078 0.913 . S
H2098 C2116 0.951 . S
H2099 C2118 0.951 . S
H2100 C2120 0.950 . S
H2101 C2121 0.950 1_565 S
H2102 C2123 0.950 . S
H2103 C2126 0.950 . S
H2104 C2127 0.950 . S
H2105 C2129 0.950 . S
H2106 C2130 0.950 1_455 S
H2107 C2131 0.951 . S
H2108 C2133 0.951 . S
H2109 C2135 0.950 . S
H2110 C2136 0.950 1_545 S
H2111 C2138 0.950 . S
H2112 C2141 0.950 . S
H2113 C2142 0.950 . S
H2114 C2144 0.950 . S
H2115 C2145 0.950 1_655 S
C2116 H2098 0.951 . S
C2116 C2117 1.366 . S
C2116 C2118 1.388 . S
C2117 C2116 1.366 . S
C2117 C2121 1.385 . S
C2118 H2099 0.951 . S
C2118 C2116 1.388 . S
C2118 C2119 1.366 . S
C2119 C2118 1.366 . S
C2119 C2120 1.414 1_545 S
C2119 C2122 1.499 . S
C2120 H2100 0.950 . S
C2120 C2119 1.414 1_565 S
C2120 C2121 1.374 1_565 S
C2121 H2101 0.950 1_545 S
C2121 C2117 1.385 . S
C2121 C2120 1.374 1_545 S
C2122 C2119 1.499 . S
C2122 C2123 1.373 1_545 S
C2122 C2124 1.389 . S
C2123 H2102 0.950 . S
C2123 C2122 1.373 1_565 S
C2123 C2139 1.377 1_655 S
C2124 C2122 1.389 . S
C2124 C2125 1.524 . S
C2124 C2138 1.377 1_655 S
C2125 C2124 1.524 . S
C2125 C2126 1.397 . S
C2125 C2130 1.363 . S
C2126 H2103 0.950 . S
C2126 C2125 1.397 . S
C2126 C2127 1.334 . S
C2127 H2104 0.950 . S
C2127 C2126 1.334 . S
C2127 C2128 1.287 . S
C2128 C2127 1.287 . S
C2128 C2129 1.524 . S
C2128 H2147 0.913 . S
C2129 H2105 0.950 . S
C2129 C2128 1.524 . S
C2129 C2130 1.415 . S
C2130 H2106 0.950 1_655 S
C2130 C2125 1.363 . S
C2130 C2129 1.415 . S
C2131 H2107 0.951 . S
C2131 C2132 1.366 . S
C2131 C2133 1.388 . S
C2132 C2131 1.366 . S
C2132 C2136 1.385 . S
C2133 H2108 0.951 . S
C2133 C2131 1.388 . S
C2133 C2134 1.366 . S
C2134 C2133 1.366 . S
C2134 C2135 1.414 1_565 S
C2134 C2137 1.499 . S
C2135 H2109 0.950 . S
C2135 C2134 1.414 1_545 S
C2135 C2136 1.374 1_545 S
C2136 H2110 0.950 1_565 S
C2136 C2132 1.385 . S
C2136 C2135 1.374 1_565 S
C2137 C2134 1.499 . S
C2137 C2138 1.373 1_565 S
C2137 C2139 1.389 . S
C2138 H2111 0.950 . S
C2138 C2124 1.377 1_455 S
C2138 C2137 1.373 1_545 S
C2139 C2123 1.377 1_455 S
C2139 C2137 1.389 . S
C2139 C2140 1.524 . S
C2140 C2139 1.524 . S
C2140 C2141 1.397 . S
C2140 C2145 1.363 . S
C2141 H2112 0.950 . S
C2141 C2140 1.397 . S
C2141 C2142 1.334 . S
C2142 H2113 0.950 . S
C2142 C2141 1.334 . S
C2142 C2143 1.287 . S
C2143 C2142 1.287 . S
C2143 C2144 1.524 . S
C2143 H2146 0.999 . S
C2144 H2114 0.950 . S
C2144 C2143 1.524 . S
C2144 C2145 1.415 . S
C2145 H2115 0.950 1_455 S
C2145 C2140 1.363 . S
C2145 C2144 1.415 . S
H2146 C2143 0.999 . S
H2147 C2128 0.913 . S
H2148 C2166 0.951 . S
H2149 C2168 0.951 . S
H2150 C2170 0.950 1_655 S
H2151 C2171 0.950 . S
H2152 C2173 0.950 . S
H2153 C2176 0.950 . S
H2154 C2177 0.950 . S
H2155 C2179 0.950 . S
H2156 C2180 0.950 . S
H2157 C2181 0.951 . S
H2158 C2183 0.951 . S
H2159 C2185 0.950 1_455 S
H2160 C2186 0.950 . S
H2161 C2188 0.950 . S
H2162 C2191 0.950 . S
H2163 C2192 0.950 . S
H2164 C2194 0.950 . S
H2165 C2195 0.950 . S
C2166 H2148 0.951 . S
C2166 C2167 1.366 . S
C2166 C2168 1.388 . S
C2167 C2166 1.366 . S
C2167 C2171 1.385 . S
C2168 H2149 0.951 . S
C2168 C2166 1.388 . S
C2168 C2169 1.366 . S
C2169 C2168 1.366 . S
C2169 C2170 1.414 . S
C2169 C2172 1.499 . S
C2170 H2150 0.950 1_455 S
C2170 C2169 1.414 . S
C2170 C2171 1.374 . S
C2171 H2151 0.950 . S
C2171 C2167 1.385 . S
C2171 C2170 1.374 . S
C2172 C2169 1.499 . S
C2172 C2173 1.373 1_455 S
C2172 C2174 1.389 . S
C2173 H2152 0.950 . S
C2173 C2172 1.373 1_655 S
C2173 C2189 1.377 . S
C2174 C2172 1.389 . S
C2174 C2175 1.524 . S
C2174 C2188 1.377 . S
C2175 C2174 1.524 . S
C2175 C2176 1.397 . S
C2175 C2180 1.363 . S
C2176 H2153 0.950 . S
C2176 C2175 1.397 . S
C2176 C2177 1.334 . S
C2177 H2154 0.950 . S
C2177 C2176 1.334 . S
C2177 C2178 1.287 . S
C2178 C2177 1.287 . S
C2178 C2179 1.524 . S
C2178 H2197 0.913 . S
C2179 H2155 0.950 . S
C2179 C2178 1.524 . S
C2179 C2180 1.415 . S
C2180 H2156 0.950 . S
C2180 C2175 1.363 . S
C2180 C2179 1.415 . S
C2181 H2157 0.951 . S
C2181 C2182 1.366 . S
C2181 C2183 1.388 . S
C2182 C2181 1.366 . S
C2182 C2186 1.385 . S
C2183 H2158 0.951 . S
C2183 C2181 1.388 . S
C2183 C2184 1.366 . S
C2184 C2183 1.366 . S
C2184 C2185 1.414 . S
C2184 C2187 1.499 . S
C2185 H2159 0.950 1_655 S
C2185 C2184 1.414 . S
C2185 C2186 1.374 . S
C2186 H2160 0.950 . S
C2186 C2182 1.385 . S
C2186 C2185 1.374 . S
C2187 C2184 1.499 . S
C2187 C2188 1.373 1_655 S
C2187 C2189 1.389 . S
C2188 H2161 0.950 . S
C2188 C2174 1.377 . S
C2188 C2187 1.373 1_455 S
C2189 C2173 1.377 . S
C2189 C2187 1.389 . S
C2189 C2190 1.524 . S
C2190 C2189 1.524 . S
C2190 C2191 1.397 . S
C2190 C2195 1.363 . S
C2191 H2162 0.950 . S
C2191 C2190 1.397 . S
C2191 C2192 1.334 . S
C2192 H2163 0.950 . S
C2192 C2191 1.334 . S
C2192 C2193 1.287 . S
C2193 C2192 1.287 . S
C2193 C2194 1.524 . S
C2193 H2196 0.999 . S
C2194 H2164 0.950 . S
C2194 C2193 1.524 . S
C2194 C2195 1.415 . S
C2195 H2165 0.950 . S
C2195 C2190 1.363 . S
C2195 C2194 1.415 . S
H2196 C2193 0.999 . S
H2197 C2178 0.913 . S
H2198 C2216 0.951 . S
H2199 C2218 0.951 . S
H2200 C2220 0.950 . S
H2201 C2221 0.950 1_545 S
H2202 C2223 0.950 . S
H2203 C2226 0.950 . S
H2204 C2227 0.950 . S
H2205 C2229 0.950 . S
H2206 C2230 0.950 . S
H2207 C2231 0.951 . S
H2208 C2233 0.951 . S
H2209 C2235 0.950 . S
H2210 C2236 0.950 1_565 S
H2211 C2238 0.950 . S
H2212 C2241 0.950 . S
H2213 C2242 0.950 . S
H2214 C2244 0.950 . S
H2215 C2245 0.950 . S
C2216 H2198 0.951 . S
C2216 C2217 1.366 . S
C2216 C2218 1.388 . S
C2217 C2216 1.366 . S
C2217 C2221 1.385 . S
C2218 H2199 0.951 . S
C2218 C2216 1.388 . S
C2218 C2219 1.366 . S
C2219 C2218 1.366 . S
C2219 C2220 1.414 1_565 S
C2219 C2222 1.499 . S
C2220 H2200 0.950 . S
C2220 C2219 1.414 1_545 S
C2220 C2221 1.374 1_545 S
C2221 H2201 0.950 1_565 S
C2221 C2217 1.385 . S
C2221 C2220 1.374 1_565 S
C2222 C2219 1.499 . S
C2222 C2223 1.373 1_565 S
C2222 C2224 1.389 . S
C2223 H2202 0.950 . S
C2223 C2222 1.373 1_545 S
C2223 C2239 1.377 . S
C2224 C2222 1.389 . S
C2224 C2225 1.524 . S
C2224 C2238 1.377 . S
C2225 C2224 1.524 . S
C2225 C2226 1.397 . S
C2225 C2230 1.363 . S
C2226 H2203 0.950 . S
C2226 C2225 1.397 . S
C2226 C2227 1.334 . S
C2227 H2204 0.950 . S
C2227 C2226 1.334 . S
C2227 C2228 1.287 . S
C2228 C2227 1.287 . S
C2228 C2229 1.524 . S
C2228 H2247 0.913 . S
C2229 H2205 0.950 . S
C2229 C2228 1.524 . S
C2229 C2230 1.415 . S
C2230 H2206 0.950 . S
C2230 C2225 1.363 . S
C2230 C2229 1.415 . S
C2231 H2207 0.951 . S
C2231 C2232 1.366 . S
C2231 C2233 1.388 . S
C2232 C2231 1.366 . S
C2232 C2236 1.385 . S
C2233 H2208 0.951 . S
C2233 C2231 1.388 . S
C2233 C2234 1.366 . S
C2234 C2233 1.366 . S
C2234 C2235 1.414 1_545 S
C2234 C2237 1.499 . S
C2235 H2209 0.950 . S
C2235 C2234 1.414 1_565 S
C2235 C2236 1.374 1_565 S
C2236 H2210 0.950 1_545 S
C2236 C2232 1.385 . S
C2236 C2235 1.374 1_545 S
C2237 C2234 1.499 . S
C2237 C2238 1.373 1_545 S
C2237 C2239 1.389 . S
C2238 H2211 0.950 . S
C2238 C2224 1.377 . S
C2238 C2237 1.373 1_565 S
C2239 C2223 1.377 . S
C2239 C2237 1.389 . S
C2239 C2240 1.524 . S
C2240 C2239 1.524 . S
C2240 C2241 1.397 . S
C2240 C2245 1.363 . S
C2241 H2212 0.950 . S
C2241 C2240 1.397 . S
C2241 C2242 1.334 . S
C2242 H2213 0.950 . S
C2242 C2241 1.334 . S
C2242 C2243 1.287 . S
C2243 C2242 1.287 . S
C2243 C2244 1.524 . S
C2243 H2246 0.999 . S
C2244 H2214 0.950 . S
C2244 C2243 1.524 . S
C2244 C2245 1.415 . S
C2245 H2215 0.950 . S
C2245 C2240 1.363 . S
C2245 C2244 1.415 . S
H2246 C2243 0.999 . S
H2247 C2228 0.913 . S
H2248 C2266 0.951 . S
H2249 C2268 0.951 . S
H2250 C2270 0.950 . S
H2251 C2271 0.950 . S
H2252 C2273 0.950 . S
H2253 C2276 0.950 . S
H2254 C2277 0.950 . S
H2255 C2279 0.950 . S
H2256 C2280 0.950 . S
H2257 C2281 0.951 . S
H2258 C2283 0.951 . S
H2259 C2285 0.950 . S
H2260 C2286 0.950 . S
H2261 C2288 0.950 . S
H2262 C2291 0.950 . S
H2263 C2292 0.950 . S
H2264 C2294 0.950 . S
H2265 C2295 0.950 . S
C2266 H2248 0.951 . S
C2266 C2267 1.366 . S
C2266 C2268 1.388 . S
C2267 C2266 1.366 . S
C2267 C2271 1.385 . S
C2268 H2249 0.951 . S
C2268 C2266 1.388 . S
C2268 C2269 1.366 . S
C2269 C2268 1.366 . S
C2269 C2270 1.414 . S
C2269 C2272 1.499 . S
C2270 H2250 0.950 . S
C2270 C2269 1.414 . S
C2270 C2271 1.374 . S
C2271 H2251 0.950 . S
C2271 C2267 1.385 . S
C2271 C2270 1.374 . S
C2272 C2269 1.499 . S
C2272 C2273 1.373 . S
C2272 C2274 1.389 . S
C2273 H2252 0.950 . S
C2273 C2272 1.373 . S
C2273 C2289 1.377 . S
C2274 C2272 1.389 . S
C2274 C2275 1.524 . S
C2274 C2288 1.377 . S
C2275 C2274 1.524 . S
C2275 C2276 1.397 . S
C2275 C2280 1.363 . S
C2276 H2253 0.950 . S
C2276 C2275 1.397 . S
C2276 C2277 1.334 . S
C2277 H2254 0.950 . S
C2277 C2276 1.334 . S
C2277 C2278 1.287 . S
C2278 C2277 1.287 . S
C2278 C2279 1.524 . S
C2278 H2297 0.913 . S
C2279 H2255 0.950 . S
C2279 C2278 1.524 . S
C2279 C2280 1.415 . S
C2280 H2256 0.950 . S
C2280 C2275 1.363 . S
C2280 C2279 1.415 . S
C2281 H2257 0.951 . S
C2281 C2282 1.366 . S
C2281 C2283 1.388 . S
C2282 C2281 1.366 . S
C2282 C2286 1.385 . S
C2283 H2258 0.951 . S
C2283 C2281 1.388 . S
C2283 C2284 1.366 . S
C2284 C2283 1.366 . S
C2284 C2285 1.414 . S
C2284 C2287 1.499 . S
C2285 H2259 0.950 . S
C2285 C2284 1.414 . S
C2285 C2286 1.374 . S
C2286 H2260 0.950 . S
C2286 C2282 1.385 . S
C2286 C2285 1.374 . S
C2287 C2284 1.499 . S
C2287 C2288 1.373 . S
C2287 C2289 1.389 . S
C2288 H2261 0.950 . S
C2288 C2274 1.377 . S
C2288 C2287 1.373 . S
C2289 C2273 1.377 . S
C2289 C2287 1.389 . S
C2289 C2290 1.524 . S
C2290 C2289 1.524 . S
C2290 C2291 1.397 . S
C2290 C2295 1.363 . S
C2291 H2262 0.950 . S
C2291 C2290 1.397 . S
C2291 C2292 1.334 . S
C2292 H2263 0.950 . S
C2292 C2291 1.334 . S
C2292 C2293 1.287 . S
C2293 C2292 1.287 . S
C2293 C2294 1.524 . S
C2293 H2296 0.999 . S
C2294 H2264 0.950 . S
C2294 C2293 1.524 . S
C2294 C2295 1.415 . S
C2295 H2265 0.950 . S
C2295 C2290 1.363 . S
C2295 C2294 1.415 . S
H2296 C2293 0.999 . S
H2297 C2278 0.913 . S
H2298 C2316 0.951 . S
H2299 C2318 0.951 . S
H2300 C2320 0.950 . S
H2301 C2321 0.950 . S
H2302 C2323 0.950 . S
H2303 C2326 0.950 . S
H2304 C2327 0.950 . S
H2305 C2329 0.950 . S
H2306 C2330 0.950 . S
H2307 C2331 0.951 . S
H2308 C2333 0.951 . S
H2309 C2335 0.950 . S
H2310 C2336 0.950 . S
H2311 C2338 0.950 . S
H2312 C2341 0.950 . S
H2313 C2342 0.950 . S
H2314 C2344 0.950 . S
H2315 C2345 0.950 . S
C2316 H2298 0.951 . S
C2316 C2317 1.366 . S
C2316 C2318 1.388 . S
C2317 C2316 1.366 . S
C2317 C2321 1.385 . S
C2318 H2299 0.951 . S
C2318 C2316 1.388 . S
C2318 C2319 1.366 . S
C2319 C2318 1.366 . S
C2319 C2320 1.414 . S
C2319 C2322 1.499 . S
C2320 H2300 0.950 . S
C2320 C2319 1.414 . S
C2320 C2321 1.374 . S
C2321 H2301 0.950 . S
C2321 C2317 1.385 . S
C2321 C2320 1.374 . S
C2322 C2319 1.499 . S
C2322 C2323 1.373 . S
C2322 C2324 1.389 . S
C2323 H2302 0.950 . S
C2323 C2322 1.373 . S
C2323 C2339 1.377 . S
C2324 C2322 1.389 . S
C2324 C2325 1.524 . S
C2324 C2338 1.377 . S
C2325 C2324 1.524 . S
C2325 C2326 1.397 . S
C2325 C2330 1.363 . S
C2326 H2303 0.950 . S
C2326 C2325 1.397 . S
C2326 C2327 1.334 . S
C2327 H2304 0.950 . S
C2327 C2326 1.334 . S
C2327 C2328 1.287 . S
C2328 C2327 1.287 . S
C2328 C2329 1.524 . S
C2328 H2347 0.913 . S
C2329 H2305 0.950 . S
C2329 C2328 1.524 . S
C2329 C2330 1.415 . S
C2330 H2306 0.950 . S
C2330 C2325 1.363 . S
C2330 C2329 1.415 . S
C2331 H2307 0.951 . S
C2331 C2332 1.366 . S
C2331 C2333 1.388 . S
C2332 C2331 1.366 . S
C2332 C2336 1.385 . S
C2333 H2308 0.951 . S
C2333 C2331 1.388 . S
C2333 C2334 1.366 . S
C2334 C2333 1.366 . S
C2334 C2335 1.414 . S
C2334 C2337 1.499 . S
C2335 H2309 0.950 . S
C2335 C2334 1.414 . S
C2335 C2336 1.374 . S
C2336 H2310 0.950 . S
C2336 C2332 1.385 . S
C2336 C2335 1.374 . S
C2337 C2334 1.499 . S
C2337 C2338 1.373 . S
C2337 C2339 1.389 . S
C2338 H2311 0.950 . S
C2338 C2324 1.377 . S
C2338 C2337 1.373 . S
C2339 C2323 1.377 . S
C2339 C2337 1.389 . S
C2339 C2340 1.524 . S
C2340 C2339 1.524 . S
C2340 C2341 1.397 . S
C2340 C2345 1.363 . S
C2341 H2312 0.950 . S
C2341 C2340 1.397 . S
C2341 C2342 1.334 . S
C2342 H2313 0.950 . S
C2342 C2341 1.334 . S
C2342 C2343 1.287 . S
C2343 C2342 1.287 . S
C2343 C2344 1.524 . S
C2343 H2346 0.999 . S
C2344 H2314 0.950 . S
C2344 C2343 1.524 . S
C2344 C2345 1.415 . S
C2345 H2315 0.950 . S
C2345 C2340 1.363 . S
C2345 C2344 1.415 . S
H2346 C2343 0.999 . S
H2347 C2328 0.913 . S
H2348 C2366 0.951 . S
H2349 C2368 0.951 . S
H2350 C2370 0.950 . S
H2351 C2371 0.950 . S
H2352 C2373 0.950 . S
H2353 C2376 0.950 . S
H2354 C2377 0.950 . S
H2355 C2379 0.950 . S
H2356 C2380 0.950 . S
H2357 C2381 0.951 . S
H2358 C2383 0.951 . S
H2359 C2385 0.950 . S
H2360 C2386 0.950 . S
H2361 C2388 0.950 . S
H2362 C2391 0.950 . S
H2363 C2392 0.950 . S
H2364 C2394 0.950 . S
H2365 C2395 0.950 . S
C2366 H2348 0.951 . S
C2366 C2367 1.366 . S
C2366 C2368 1.388 . S
C2367 C2366 1.366 . S
C2367 C2371 1.385 . S
C2368 H2349 0.951 . S
C2368 C2366 1.388 . S
C2368 C2369 1.366 . S
C2369 C2368 1.366 . S
C2369 C2370 1.414 . S
C2369 C2372 1.499 . S
C2370 H2350 0.950 . S
C2370 C2369 1.414 . S
C2370 C2371 1.374 . S
C2371 H2351 0.950 . S
C2371 C2367 1.385 . S
C2371 C2370 1.374 . S
C2372 C2369 1.499 . S
C2372 C2373 1.373 . S
C2372 C2374 1.389 . S
C2373 H2352 0.950 . S
C2373 C2372 1.373 . S
C2373 C2389 1.377 1_545 S
C2374 C2372 1.389 . S
C2374 C2375 1.524 . S
C2374 C2388 1.377 1_545 S
C2375 C2374 1.524 . S
C2375 C2376 1.397 . S
C2375 C2380 1.363 . S
C2376 H2353 0.950 . S
C2376 C2375 1.397 . S
C2376 C2377 1.334 . S
C2377 H2354 0.950 . S
C2377 C2376 1.334 . S
C2377 C2378 1.287 . S
C2378 C2377 1.287 . S
C2378 C2379 1.524 . S
C2378 H2397 0.913 . S
C2379 H2355 0.950 . S
C2379 C2378 1.524 . S
C2379 C2380 1.415 . S
C2380 H2356 0.950 . S
C2380 C2375 1.363 . S
C2380 C2379 1.415 . S
C2381 H2357 0.951 . S
C2381 C2382 1.366 . S
C2381 C2383 1.388 . S
C2382 C2381 1.366 . S
C2382 C2386 1.385 . S
C2383 H2358 0.951 . S
C2383 C2381 1.388 . S
C2383 C2384 1.366 . S
C2384 C2383 1.366 . S
C2384 C2385 1.414 . S
C2384 C2387 1.499 . S
C2385 H2359 0.950 . S
C2385 C2384 1.414 . S
C2385 C2386 1.374 . S
C2386 H2360 0.950 . S
C2386 C2382 1.385 . S
C2386 C2385 1.374 . S
C2387 C2384 1.499 . S
C2387 C2388 1.373 . S
C2387 C2389 1.389 . S
C2388 H2361 0.950 . S
C2388 C2374 1.377 1_565 S
C2388 C2387 1.373 . S
C2389 C2373 1.377 1_565 S
C2389 C2387 1.389 . S
C2389 C2390 1.524 . S
C2390 C2389 1.524 . S
C2390 C2391 1.397 . S
C2390 C2395 1.363 . S
C2391 H2362 0.950 . S
C2391 C2390 1.397 . S
C2391 C2392 1.334 . S
C2392 H2363 0.950 . S
C2392 C2391 1.334 . S
C2392 C2393 1.287 . S
C2393 C2392 1.287 . S
C2393 C2394 1.524 . S
C2393 H2396 0.999 . S
C2394 H2364 0.950 . S
C2394 C2393 1.524 . S
C2394 C2395 1.415 . S
C2395 H2365 0.950 . S
C2395 C2390 1.363 . S
C2395 C2394 1.415 . S
H2396 C2393 0.999 . S
H2397 C2378 0.913 . S
H2398 C2416 0.951 . S
H2399 C2418 0.951 . S
H2400 C2420 0.950 . S
H2401 C2421 0.950 . S
H2402 C2423 0.950 . S
H2403 C2426 0.950 . S
H2404 C2427 0.950 . S
H2405 C2429 0.950 . S
H2406 C2430 0.950 1_455 S
H2407 C2431 0.951 . S
H2408 C2433 0.951 . S
H2409 C2435 0.950 . S
H2410 C2436 0.950 . S
H2411 C2438 0.950 . S
H2412 C2441 0.950 . S
H2413 C2442 0.950 . S
H2414 C2444 0.950 . S
H2415 C2445 0.950 1_655 S
C2416 H2398 0.951 . S
C2416 C2417 1.366 . S
C2416 C2418 1.388 . S
C2417 C2416 1.366 . S
C2417 C2421 1.385 . S
C2418 H2399 0.951 . S
C2418 C2416 1.388 . S
C2418 C2419 1.366 . S
C2419 C2418 1.366 . S
C2419 C2420 1.414 . S
C2419 C2422 1.499 . S
C2420 H2400 0.950 . S
C2420 C2419 1.414 . S
C2420 C2421 1.374 . S
C2421 H2401 0.950 . S
C2421 C2417 1.385 . S
C2421 C2420 1.374 . S
C2422 C2419 1.499 . S
C2422 C2423 1.373 . S
C2422 C2424 1.389 . S
C2423 H2402 0.950 . S
C2423 C2422 1.373 . S
C2423 C2439 1.377 1_655 S
C2424 C2422 1.389 . S
C2424 C2425 1.524 . S
C2424 C2438 1.377 1_655 S
C2425 C2424 1.524 . S
C2425 C2426 1.397 . S
C2425 C2430 1.363 . S
C2426 H2403 0.950 . S
C2426 C2425 1.397 . S
C2426 C2427 1.334 . S
C2427 H2404 0.950 . S
C2427 C2426 1.334 . S
C2427 C2428 1.287 . S
C2428 C2427 1.287 . S
C2428 C2429 1.524 . S
C2428 H2447 0.913 . S
C2429 H2405 0.950 . S
C2429 C2428 1.524 . S
C2429 C2430 1.415 . S
C2430 H2406 0.950 1_655 S
C2430 C2425 1.363 . S
C2430 C2429 1.415 . S
C2431 H2407 0.951 . S
C2431 C2432 1.366 . S
C2431 C2433 1.388 . S
C2432 C2431 1.366 . S
C2432 C2436 1.385 . S
C2433 H2408 0.951 . S
C2433 C2431 1.388 . S
C2433 C2434 1.366 . S
C2434 C2433 1.366 . S
C2434 C2435 1.414 . S
C2434 C2437 1.499 . S
C2435 H2409 0.950 . S
C2435 C2434 1.414 . S
C2435 C2436 1.374 . S
C2436 H2410 0.950 . S
C2436 C2432 1.385 . S
C2436 C2435 1.374 . S
C2437 C2434 1.499 . S
C2437 C2438 1.373 . S
C2437 C2439 1.389 . S
C2438 H2411 0.950 . S
C2438 C2424 1.377 1_455 S
C2438 C2437 1.373 . S
C2439 C2423 1.377 1_455 S
C2439 C2437 1.389 . S
C2439 C2440 1.524 . S
C2440 C2439 1.524 . S
C2440 C2441 1.397 . S
C2440 C2445 1.363 . S
C2441 H2412 0.950 . S
C2441 C2440 1.397 . S
C2441 C2442 1.334 . S
C2442 H2413 0.950 . S
C2442 C2441 1.334 . S
C2442 C2443 1.287 . S
C2443 C2442 1.287 . S
C2443 C2444 1.524 . S
C2443 H2446 0.999 . S
C2444 H2414 0.950 . S
C2444 C2443 1.524 . S
C2444 C2445 1.415 . S
C2445 H2415 0.950 1_455 S
C2445 C2440 1.363 . S
C2445 C2444 1.415 . S
H2446 C2443 0.999 . S
H2447 C2428 0.913 . S
C867 C22 1.674 . S
C882 C621 1.717 . S
C917 C463 1.717 . S
C932 C82 1.674 . S
C967 C515 1.717 . S
C982 C128 1.674 . S
C1017 C569 1.717 . S
C1032 C188 1.674 . S
C1067 C303 1.717 . S
C1082 C234 1.674 . S
C1117 C294 1.674 . S
C1132 C357 1.717 . S
C1167 C340 1.674 . S
C1182 C409 1.717 . S
C1217 C400 1.674 . S
C1232 C251 1.717 . S
C1267 C446 1.674 . S
C1282 C197 1.717 . S
C1317 C39 1.717 . S
C1332 C506 1.674 . S
C1367 C91 1.717 . S
C1382 C552 1.674 . S
C1417 C145 1.717 . S
C1432 C612 1.674 . S
C1467 C727 1.717 . S
C1482 C658 1.674 . S
C1517 C718 1.674 . S
C1532 C781 1.717 . S
C1567 C833 1.717 . S
C1582 C764 1.674 . S
C1617 C675 1.717 . S
C1632 C824 1.674 . S
C1667 C780 2.182 . S
C1682 C38 2.182 . S
C1717 C834 2.183 . S
C1732 C92 2.182 . S
C1767 C674 2.183 . S
C1782 C144 2.182 . S
C1817 C198 2.183 . S
C1832 C728 2.182 . S
C1867 C250 2.182 . S
C1882 C568 2.183 . S
C1917 C622 2.183 . S
C1932 C304 2.182 . S
C1967 C356 2.182 . S
C1982 C462 2.182 . S
C2017 C410 2.182 . S
C2032 C516 2.182 . S
C2067 C135 2.050 . S
C2082 C29 2.050 . S
C2117 C181 2.049 . S
C2132 C75 2.050 . S
C2167 C241 2.050 . S
C2182 C347 2.050 . S
C2217 C287 2.049 . S
C2232 C393 2.050 . S
C2267 C559 2.049 . S
C2282 C453 2.050 . S
C2317 C499 2.050 . S
C2332 C605 2.050 . S
C2367 C771 2.049 . S
C2382 C665 2.050 . S
C2417 C711 2.049 . S
C2432 C817 2.050 . S
