# Generated by pormake.
# Topology rob, (6)-cn, num edge types: 1
# Building blocks:
#     Node 0, Type 0, BuildingBlock: CUWYAW_clean_sbu_0, # of connection points: 6
#     Node 1, Type 0, BuildingBlock: CUWYAW_clean_sbu_0, # of connection points: 6
#     Node 2, Type 0, BuildingBlock: CUWYAW_clean_sbu_0, # of connection points: 6
#     Node 3, Type 0, BuildingBlock: CUWYAW_clean_sbu_0, # of connection points: 6
#     Edge 4, Type (0, 0), BuildingBlock: MIFKUJ_clean_linker_0, # of connection points: 2
#     Edge 5, Type (0, 0), BuildingBlock: MIFKUJ_clean_linker_0, # of connection points: 2
#     Edge 6, Type (0, 0), BuildingBlock: MIFKUJ_clean_linker_0, # of connection points: 2
#     Edge 7, Type (0, 0), BuildingBlock: MIFKUJ_clean_linker_0, # of connection points: 2
#     Edge 8, Type (0, 0), BuildingBlock: MIFKUJ_clean_linker_0, # of connection points: 2
#     Edge 9, Type (0, 0), BuildingBlock: MIFKUJ_clean_linker_0, # of connection points: 2
#     Edge 10, Type (0, 0), BuildingBlock: MIFKUJ_clean_linker_0, # of connection points: 2
#     Edge 11, Type (0, 0), BuildingBlock: MIFKUJ_clean_linker_0, # of connection points: 2
#     Edge 12, Type (0, 0), BuildingBlock: MIFKUJ_clean_linker_0, # of connection points: 2
#     Edge 13, Type (0, 0), BuildingBlock: MIFKUJ_clean_linker_0, # of connection points: 2
#     Edge 14, Type (0, 0), BuildingBlock: MIFKUJ_clean_linker_0, # of connection points: 2
#     Edge 15, Type (0, 0), BuildingBlock: MIFKUJ_clean_linker_0, # of connection points: 2
# Relax obj value: 0.035
# Max RMSD: 0.131
# Mean RMSD: 0.131
data_MOF--net-rob--node1-CUWYAW_clean_sbu_0--edge1-MIFKUJ_clean_linker_0
_symmetry_space_group_name_H-M    P1
_symmetry_Int_Tables_number       1
_symmetry_cell_setting            triclinic
loop_
_symmetry_equiv_pos_as_xyz
'x, y, z'
_cell_length_a     19.692627
_cell_length_b     32.328453
_cell_length_c     45.088761
_cell_angle_alpha  94.445183
_cell_angle_beta   89.838615
_cell_angle_gamma 89.819242
loop_
_atom_site_label
_atom_site_type_symbol
_atom_site_fract_x
_atom_site_fract_y
_atom_site_fract_z
_atom_type_partial_charge
C0 C 0.42225 0.23992 0.96979 0.0
Eu1 Eu 0.31371 0.25107 1.00281 0.0
C2 C 0.43956 0.2379 0.93766 0.0
C3 C 0.44908 0.19927 0.92162 0.0
C4 C 0.46575 0.19695 0.89136 0.0
C5 C 0.47396 0.23325 0.87646 0.0
C6 C 0.46515 0.27192 0.89263 0.0
C7 C 0.44811 0.27423 0.92284 0.0
C8 C 0.2246 0.19049 0.0142 0.0
C9 C 0.18769 0.27975 0.96153 0.0
C10 C 0.07421 0.29028 0.06437 0.0
Eu11 Eu 0.18241 0.28166 0.03115 0.0
C12 C 0.05971 0.2894 0.09649 0.0
C13 C 0.02491 0.32265 0.11154 0.0
C14 C 0.01051 0.32234 0.14191 0.0
C15 C 0.03008 0.2885 0.15788 0.0
C16 C 0.0656 0.25538 0.14273 0.0
C17 C 0.08055 0.25591 0.11243 0.0
C18 C 0.27119 0.34233 0.01963 0.0
C19 C 0.30875 0.2549 0.073 0.0
O20 O 0.40397 0.276 0.98258 0.0
O21 O 0.38584 0.20951 0.97876 0.0
O22 O 0.28967 0.18746 0.01786 0.0
O23 O 0.20987 0.22448 1.00383 0.0
O24 O 0.25424 0.27607 0.96451 0.0
O25 O 0.14578 0.27691 0.98409 0.0
O26 O 0.09227 0.25515 0.05009 0.0
O27 O 0.10977 0.32173 0.05645 0.0
O28 O 0.20589 0.34548 0.01632 0.0
O29 O 0.28614 0.30833 0.02998 0.0
O30 O 0.24253 0.25994 0.07001 0.0
O31 O 0.35058 0.25476 0.05008 0.0
H32 H 0.44379 0.17071 0.93249 0.0
H33 H 0.47323 0.16668 0.87976 0.0
H34 H 0.47057 0.30054 0.88188 0.0
H35 H 0.44163 0.30455 0.93452 0.0
H36 H 0.00887 0.34897 0.09978 0.0
H37 H 0.98428 0.34878 0.15288 0.0
H38 H 0.08077 0.22855 0.15409 0.0
H39 H 0.10798 0.2299 0.1015 0.0
C40 C 0.92669 0.74204 0.9693 0.0
Eu41 Eu 0.8173 0.74965 1.00198 0.0
C42 C 0.94244 0.74202 0.93729 0.0
C43 C 0.99449 0.71641 0.92501 0.0
C44 C 0.01 0.71578 0.89468 0.0
C45 C 0.97357 0.74076 0.87598 0.0
C46 C 0.92097 0.76619 0.88837 0.0
C47 C 0.90565 0.76688 0.91872 0.0
C48 C 0.72906 0.68876 0.01333 0.0
C49 C 0.6912 0.77541 0.95928 0.0
C50 C 0.5739 0.78694 0.06184 0.0
Eu51 Eu 0.68376 0.77999 0.02946 0.0
C52 C 0.55672 0.78993 0.09387 0.0
C53 C 0.58878 0.81861 0.11423 0.0
C54 C 0.57171 0.82057 0.14448 0.0
C55 C 0.52265 0.79368 0.15507 0.0
C56 C 0.49128 0.76476 0.13456 0.0
C57 C 0.50795 0.76307 0.10433 0.0
C58 C 0.77202 0.84084 0.01795 0.0
C59 C 0.81115 0.75532 0.07229 0.0
O60 O 0.90606 0.77729 0.98263 0.0
O61 O 0.89213 0.71033 0.97743 0.0
O62 O 0.79436 0.68573 0.01665 0.0
O63 O 0.71384 0.72269 1.00292 0.0
O64 O 0.75726 0.77015 0.96271 0.0
O65 O 0.64859 0.77585 0.98195 0.0
O66 O 0.59851 0.75128 0.05095 0.0
O67 O 0.60476 0.81861 0.05144 0.0
O68 O 0.7067 0.84397 0.01477 0.0
O69 O 0.78697 0.807 0.02851 0.0
O70 O 0.74507 0.76153 0.06925 0.0
O71 O 0.85291 0.75355 0.04928 0.0
H72 H 0.02317 0.69682 0.93891 0.0
H73 H 0.0501 0.69537 0.88583 0.0
H74 H 0.89234 0.78611 0.87472 0.0
H75 H 0.86526 0.78699 0.92766 0.0
H76 H 0.62701 0.83955 0.10683 0.0
H77 H 0.59647 0.84353 0.15947 0.0
H78 H 0.45439 0.74293 0.14187 0.0
H79 H 0.48298 0.74047 0.08908 0.0
C80 C 0.44119 0.75881 0.56086 0.0
Eu81 Eu 0.32905 0.7662 0.53164 0.0
C82 C 0.46416 0.76857 0.59164 0.0
C83 C 0.44213 0.80442 0.60857 0.0
C84 C 0.45934 0.8107 0.63871 0.0
C85 C 0.49813 0.78099 0.65254 0.0
C86 C 0.52024 0.74529 0.63528 0.0
C87 C 0.50365 0.73929 0.60518 0.0
C88 C 0.2417 0.83206 0.53087 0.0
C89 C 0.19396 0.74783 0.57191 0.0
C90 C 0.07842 0.7376 0.46757 0.0
Eu91 Eu 0.18583 0.73993 0.50099 0.0
C92 C 0.06509 0.74048 0.43551 0.0
C93 C 0.09146 0.71095 0.41392 0.0
C94 C 0.07789 0.71394 0.38376 0.0
C95 C 0.03798 0.74665 0.37439 0.0
C96 C 0.01245 0.77648 0.39604 0.0
C97 C 0.02565 0.77331 0.42625 0.0
C98 C 0.27112 0.67772 0.51374 0.0
C99 C 0.31744 0.76441 0.45995 0.0
O100 O 0.39507 0.72967 0.55786 0.0
O101 O 0.42923 0.78996 0.54447 0.0
O102 O 0.30172 0.83523 0.54275 0.0
O103 O 0.2339 0.7951 0.52114 0.0
O104 O 0.26114 0.7482 0.56933 0.0
O105 O 0.15274 0.74946 0.54884 0.0
O106 O 0.09945 0.77155 0.48247 0.0
O107 O 0.11006 0.70429 0.47513 0.0
O108 O 0.20521 0.67483 0.5148 0.0
O109 O 0.28806 0.71203 0.50438 0.0
O110 O 0.25155 0.75671 0.46237 0.0
O111 O 0.35922 0.76703 0.48312 0.0
H112 H 0.41069 0.82718 0.59868 0.0
H113 H 0.44204 0.83877 0.65115 0.0
H114 H 0.54882 0.72124 0.64516 0.0
H115 H 0.52009 0.71107 0.59261 0.0
H116 H 0.12231 0.68531 0.42027 0.0
H117 H 0.09764 0.69007 0.36784 0.0
H118 H 0.98251 0.80249 0.38968 0.0
H119 H 0.00509 0.79662 0.44241 0.0
C120 C 0.92475 0.27072 0.5645 0.0
Eu121 Eu 0.81623 0.26576 0.53137 0.0
C122 C 0.9398 0.27547 0.59653 0.0
C123 C 0.88896 0.2871 0.61743 0.0
C124 C 0.90337 0.28968 0.64791 0.0
C125 C 0.96898 0.28063 0.658 0.0
C126 C 0.01976 0.26928 0.63683 0.0
C127 C 0.00521 0.2667 0.60641 0.0
C128 C 0.72874 0.32768 0.52045 0.0
C129 C 0.68567 0.23997 0.57212 0.0
C130 C 0.58023 0.22518 0.46773 0.0
Eu131 Eu 0.68616 0.23593 0.50195 0.0
C132 C 0.56384 0.22941 0.43608 0.0
C133 C 0.55172 0.19369 0.4171 0.0
C134 C 0.5363 0.19686 0.38714 0.0
C135 C 0.53191 0.23589 0.37554 0.0
C136 C 0.5437 0.2717 0.39453 0.0
C137 C 0.55971 0.26852 0.42449 0.0
C138 C 0.77481 0.17516 0.5141 0.0
C139 C 0.8127 0.26501 0.46162 0.0
O140 O 0.89652 0.23561 0.555 0.0
O141 O 0.8973 0.30267 0.55293 0.0
O142 O 0.79438 0.33083 0.51862 0.0
O143 O 0.71256 0.29308 0.52958 0.0
O144 O 0.75137 0.24801 0.57025 0.0
O145 O 0.64603 0.23682 0.54855 0.0
O146 O 0.59141 0.25924 0.48463 0.0
O147 O 0.62228 0.19532 0.47312 0.0
O148 O 0.7096 0.17243 0.5176 0.0
O149 O 0.78979 0.209 0.50361 0.0
O150 O 0.74606 0.26299 0.46482 0.0
O151 O 0.85389 0.26053 0.48416 0.0
H152 H 0.83811 0.29389 0.61014 0.0
H153 H 0.86286 0.298 0.66357 0.0
H154 H 0.07102 0.26266 0.64374 0.0
H155 H 0.04504 0.25769 0.59057 0.0
H156 H 0.55403 0.1632 0.42548 0.0
H157 H 0.52655 0.16875 0.37315 0.0
H158 H 0.54113 0.30217 0.38615 0.0
H159 H 0.56881 0.29671 0.43848 0.0
H160 H 0.75761 0.61067 0.02875 0.0
H161 H 0.67976 0.55189 0.02983 0.0
H162 H 0.51478 0.62903 1.00356 0.0
H163 H 0.59256 0.68797 1.00242 0.0
H164 H 0.47681 0.58054 0.04787 0.0
H165 H 0.58865 0.56151 0.95322 0.0
H166 H 0.68657 0.55488 0.91897 0.0
H167 H 0.75574 0.4476 0.96079 0.0
H168 H 0.6587 0.45396 0.99561 0.0
H169 H 0.24298 0.4206 1.00454 0.0
H170 H 0.32113 0.47925 1.00367 0.0
H171 H 0.48581 0.40154 0.02948 0.0
H172 H 0.40774 0.34269 0.03035 0.0
H173 H 0.52412 0.45024 0.98556 0.0
H174 H 0.41226 0.46906 0.08012 0.0
H175 H 0.31434 0.47556 0.11438 0.0
H176 H 0.24532 0.58312 0.07286 0.0
H177 H 0.34235 0.57689 0.03803 0.0
C178 C 0.70472 0.61513 0.02331 0.0
C179 C 0.68122 0.65386 0.0154 0.0
C180 C 0.6603 0.58148 0.02382 0.0
C181 C 0.59153 0.58588 0.01643 0.0
C182 C 0.56761 0.62486 0.00928 0.0
C183 C 0.61211 0.65848 0.00862 0.0
C184 C 0.54481 0.5497 0.0158 0.0
C185 C 0.48668 0.55226 0.03395 0.0
C186 C 0.55841 0.51241 0.99814 0.0
C187 C 0.61679 0.50848 0.97723 0.0
C188 C 0.62506 0.53672 0.95529 0.0
C189 C 0.68035 0.53297 0.93574 0.0
C190 C 0.72746 0.50091 0.93776 0.0
C191 C 0.71927 0.47247 0.95929 0.0
C192 C 0.66411 0.47611 0.97892 0.0
C193 C 0.29588 0.41599 0.00993 0.0
C194 C 0.31921 0.37714 0.01765 0.0
C195 C 0.34046 0.44956 0.00953 0.0
C196 C 0.40922 0.44497 0.01688 0.0
C197 C 0.43298 0.40586 0.02381 0.0
C198 C 0.38832 0.37229 0.02433 0.0
C199 C 0.4561 0.48108 0.01762 0.0
C200 C 0.51426 0.47852 0.9995 0.0
C201 C 0.44254 0.51835 0.03532 0.0
C202 C 0.3842 0.52224 0.05626 0.0
C203 C 0.37589 0.49389 0.07812 0.0
C204 C 0.3206 0.49756 0.09768 0.0
C205 C 0.27353 0.52966 0.09575 0.0
C206 C 0.28176 0.55822 0.0743 0.0
C207 C 0.33692 0.55466 0.05466 0.0
H208 H 0.23078 0.53246 0.11091 0.0
H209 H 0.77021 0.49805 0.92259 0.0
H210 H 0.40998 0.67888 0.51268 0.0
H211 H 0.48795 0.62156 0.51894 0.0
H212 H 0.31788 0.5386 0.52473 0.0
H213 H 0.23972 0.59728 0.5224 0.0
H214 H 0.4105 0.51498 0.55927 0.0
H215 H 0.42054 0.55396 0.45619 0.0
H216 H 0.4363 0.60934 0.42204 0.0
H217 H 0.63785 0.63131 0.45562 0.0
H218 H 0.62304 0.57645 0.49016 0.0
H219 H 0.58999 0.32708 0.52368 0.0
H220 H 0.51236 0.38623 0.523 0.0
H221 H 0.68333 0.4683 0.51638 0.0
H222 H 0.7606 0.40886 0.51526 0.0
H223 H 0.59132 0.49272 0.48282 0.0
H224 H 0.5891 0.45653 0.5838 0.0
H225 H 0.57609 0.41028 0.62444 0.0
H226 H 0.36808 0.38825 0.59985 0.0
H227 H 0.38012 0.43394 0.55879 0.0
C228 C 0.38917 0.64873 0.51626 0.0
C229 C 0.31864 0.64283 0.51753 0.0
C230 C 0.43392 0.61559 0.51917 0.0
C231 C 0.40927 0.57509 0.52127 0.0
C232 C 0.33862 0.56931 0.52295 0.0
C233 C 0.29385 0.60288 0.52142 0.0
C234 C 0.45657 0.53861 0.52066 0.0
C235 C 0.44936 0.50983 0.54227 0.0
C236 C 0.50898 0.53218 0.49909 0.0
C237 C 0.52048 0.56139 0.47586 0.0
C238 C 0.46843 0.57034 0.45603 0.0
C239 C 0.47709 0.60175 0.43674 0.0
C240 C 0.53781 0.624 0.43691 0.0
C241 C 0.59077 0.61413 0.45566 0.0
C242 C 0.58235 0.58283 0.47503 0.0
C243 C 0.61089 0.3577 0.52176 0.0
C244 C 0.68139 0.36329 0.51947 0.0
C245 C 0.56648 0.39165 0.52172 0.0
C246 C 0.59171 0.43214 0.52026 0.0
C247 C 0.66225 0.43756 0.51759 0.0
C248 C 0.70652 0.40352 0.51703 0.0
C249 C 0.54497 0.46882 0.52133 0.0
C250 C 0.55221 0.4976 0.49974 0.0
C251 C 0.4933 0.47551 0.54319 0.0
C252 C 0.48572 0.44834 0.56804 0.0
C253 C 0.54071 0.44162 0.58695 0.0
C254 C 0.5335 0.41552 0.61007 0.0
C255 C 0.47135 0.39625 0.61467 0.0
C256 C 0.41622 0.40315 0.59623 0.0
C257 C 0.42319 0.42917 0.57304 0.0
H258 H 0.46588 0.37604 0.63257 0.0
H259 H 0.54367 0.64919 0.42277 0.0
H260 H 0.2487 0.11605 0.03671 0.0
H261 H 0.17168 0.05691 0.03756 0.0
H262 H 0.01609 0.12648 0.99587 0.0
H263 H 0.09251 0.18617 0.99577 0.0
H264 H 0.96173 0.08472 0.03782 0.0
H265 H 0.11471 0.05043 0.95622 0.0
H266 H 0.22659 0.0395 0.93211 0.0
H267 H 0.27298 0.9442 0.99022 0.0
H268 H 0.1617 0.95494 0.01495 0.0
H269 H 0.74761 0.91501 0.99509 0.0
H270 H 0.82461 0.97411 0.99378 0.0
H271 H 0.98078 0.90488 0.03538 0.0
H272 H 0.9044 0.84525 0.03593 0.0
H273 H 0.03475 0.9465 0.99331 0.0
H274 H 0.88224 0.9809 0.07505 0.0
H275 H 0.77049 0.99177 0.09929 0.0
H276 H 0.72338 0.08683 0.04108 0.0
H277 H 0.83454 0.07613 0.01622 0.0
C278 C 0.19798 0.11876 0.02785 0.0
C279 C 0.17676 0.15557 0.01599 0.0
C280 C 0.15406 0.08485 0.02817 0.0
C281 C 0.08838 0.08682 0.01622 0.0
C282 C 0.06655 0.12406 1.00509 0.0
C283 C 0.1103 0.15812 1.005 0.0
C284 C 0.04261 0.05007 0.01517 0.0
C285 C 0.97742 0.05465 0.02772 0.0
C286 C 0.0634 1.01047 1.00261 0.0
C287 C 0.13012 1.00376 0.98761 0.0
C288 C 0.14895 0.02733 0.96398 0.0
C289 C 0.21223 0.02114 0.95019 0.0
C290 C 0.25693 0.99125 0.95967 0.0
C291 C 0.23835 0.96738 0.98292 0.0
C292 C 0.17515 0.97348 0.99681 0.0
C293 C 0.79846 0.91237 1.00382 0.0
C294 C 0.81984 0.87569 0.01582 0.0
C295 C 0.84237 0.94625 1.00323 0.0
C296 C 0.9082 0.94437 0.01505 0.0
C297 C 0.93021 0.90724 0.02627 0.0
C298 C 0.88648 0.87321 0.02661 0.0
C299 C 0.95388 0.98116 0.01597 0.0
C300 C 0.01905 0.97658 1.0034 0.0
C301 C 0.93309 0.02075 0.02853 0.0
C302 C 0.86645 0.02744 0.0436 0.0
C303 C 0.84786 1.00393 0.06729 0.0
C304 C 0.78466 1.01009 0.08116 0.0
C305 C 0.7398 0.0399 0.07168 0.0
C306 C 0.75814 0.06371 0.04837 0.0
C307 C 0.82126 0.05764 0.0344 0.0
H308 H 0.69089 0.04461 0.08244 0.0
H309 H 0.3059 0.98651 0.94897 0.0
H310 H 0.75097 0.10261 0.53921 0.0
H311 H 0.82953 0.04458 0.54354 0.0
H312 H 0.98498 0.11072 0.49909 0.0
H313 H 0.90718 0.16939 0.49571 0.0
H314 H 0.88879 0.99302 0.50566 0.0
H315 H 0.14155 0.08457 0.52219 0.0
H316 H 0.18088 0.15242 0.54436 0.0
H317 H 0.00725 0.16073 0.60235 0.0
H318 H 0.96753 0.09257 0.58093 0.0
H319 H 0.15851 0.84813 0.48494 0.0
H320 H 0.08057 0.90686 0.48226 0.0
H321 H 0.13313 0.95022 0.57231 0.0
H322 H 0.215 0.8933 0.57385 0.0
H323 H 0.12204 0.01289 0.54528 0.0
H324 H 0.97394 0.89569 0.54896 0.0
H325 H 0.93136 0.82587 0.53283 0.0
H326 H 0.88541 0.86615 0.44658 0.0
H327 H 0.92834 0.93612 0.46211 0.0
C328 C 0.80207 0.10483 0.53055 0.0
C329 C 0.82304 0.14056 0.51723 0.0
C330 C 0.84689 0.07155 0.5329 0.0
C331 C 0.9136 0.07318 0.52188 0.0
C332 C 0.93434 0.10885 0.50831 0.0
C333 C 0.88974 0.14235 0.50628 0.0
C334 C 0.96112 0.03751 0.52441 0.0
C335 C 0.93974 0.99739 0.5144 0.0
C336 C 0.02727 0.04281 0.53635 0.0
C337 C 0.05126 0.0836 0.54971 0.0
C338 C 0.11193 0.10076 0.53976 0.0
C339 C 0.13428 0.13929 0.5522 0.0
C340 C 0.09651 0.16089 0.5747 0.0
C341 C 0.03637 0.14399 0.58487 0.0
C342 C 0.01391 0.10541 0.57258 0.0
C343 C 0.15275 0.8701 0.50417 0.0
C344 C 0.19185 0.86605 0.52974 0.0
C345 C 0.10796 0.90365 0.50274 0.0
C346 C 0.09916 0.93284 0.52736 0.0
C347 C 0.13854 0.92844 0.55294 0.0
C348 C 0.18505 0.89575 0.55394 0.0
C349 C 0.04994 0.96818 0.52645 0.0
C350 C 0.07102 1.00835 0.53666 0.0
C351 C 0.9826 0.96269 0.51574 0.0
C352 C 0.95476 0.92104 0.50665 0.0
C353 C 0.95482 0.88963 0.52655 0.0
C354 C 0.93066 0.85003 0.51751 0.0
C355 C 0.90576 0.84158 0.48869 0.0
C356 C 0.90466 0.87276 0.4689 0.0
C357 C 0.92879 0.91241 0.47782 0.0
H358 H 0.88733 0.81086 0.4817 0.0
H359 H 0.114 0.19066 0.58431 0.0
H360 H 0.44042 0.28871 0.35286 0.0
H361 H 0.40673 0.29178 0.30085 0.0
H362 H 0.54774 0.19313 0.27478 0.0
H363 H 0.58229 0.19027 0.32674 0.0
H364 H 0.55115 0.25692 0.23733 0.0
H365 H 0.3813 0.17315 0.28201 0.0
H366 H 0.29314 0.15903 0.31881 0.0
H367 H 0.17567 0.26231 0.29285 0.0
H368 H 0.26361 0.27745 0.25623 0.0
H369 H 0.42388 0.2151 0.08995 0.0
H370 H 0.46592 0.21055 0.14073 0.0
H371 H 0.29875 0.28735 0.17463 0.0
H372 H 0.25456 0.28939 0.12443 0.0
H373 H 0.31111 0.2319 0.20859 0.0
H374 H 0.47575 0.32021 0.16677 0.0
H375 H 0.56369 0.34097 0.13187 0.0
H376 H 0.68965 0.23911 0.1538 0.0
H377 H 0.60186 0.21727 0.1884 0.0
C378 C 0.46473 0.26798 0.336 0.0
C379 C 0.51369 0.23908 0.34388 0.0
C380 C 0.44508 0.26955 0.30635 0.0
C381 C 0.47404 0.24227 0.28403 0.0
C382 C 0.52442 0.21425 0.29169 0.0
C383 C 0.54379 0.21248 0.32137 0.0
C384 C 0.45117 0.24256 0.25274 0.0
C385 C 0.49886 0.25098 0.23086 0.0
C386 C 0.38251 0.236 0.2446 0.0
C387 C 0.32948 0.22669 0.26658 0.0
C388 C 0.33698 0.19307 0.28432 0.0
C389 C 0.28697 0.18485 0.30513 0.0
C390 C 0.22894 0.20983 0.30824 0.0
C391 C 0.22069 0.24302 0.29047 0.0
C392 C 0.27059 0.25142 0.26968 0.0
C393 C 0.39632 0.23092 0.10834 0.0
C394 C 0.33595 0.25248 0.1033 0.0
C395 C 0.42061 0.22863 0.13735 0.0
C396 C 0.38626 0.24916 0.1617 0.0
C397 C 0.32625 0.27102 0.15642 0.0
C398 C 0.30101 0.27227 0.12765 0.0
C399 C 0.41086 0.24711 0.19282 0.0
C400 C 0.36352 0.23803 0.21479 0.0
C401 C 0.47957 0.25409 0.20113 0.0
C402 C 0.53184 0.26679 0.1799 0.0
C403 C 0.52187 0.30197 0.16391 0.0
C404 C 0.57174 0.31397 0.1442 0.0
C405 C 0.63211 0.29129 0.14053 0.0
C406 C 0.64278 0.25657 0.15658 0.0
C407 C 0.59297 0.24436 0.17622 0.0
H408 H 0.6707 0.30068 0.12531 0.0
H409 H 0.19029 0.20341 0.32435 0.0
H410 H 0.39725 0.78275 0.18012 0.0
H411 H 0.36865 0.78202 0.23265 0.0
H412 H 0.5766 0.81023 0.25605 0.0
H413 H 0.60665 0.80837 0.20338 0.0
H414 H 0.53318 0.75167 0.2872 0.0
H415 H 0.44139 0.88362 0.26545 0.0
H416 H 0.37223 0.93195 0.23834 0.0
H417 H 0.19122 0.86656 0.25966 0.0
H418 H 0.25936 0.81746 0.28652 0.0
H419 H 0.44829 0.78243 0.44292 0.0
H420 H 0.48982 0.79059 0.39235 0.0
H421 H 0.28954 0.76351 0.35766 0.0
H422 H 0.24765 0.7561 0.40761 0.0
H423 H 0.33662 0.82792 0.3338 0.0
H424 H 0.42482 0.6911 0.34743 0.0
H425 H 0.49145 0.63583 0.36861 0.0
H426 H 0.67387 0.70661 0.36061 0.0
H427 H 0.60828 0.76216 0.33914 0.0
C428 C 0.4372 0.78847 0.19635 0.0
C429 C 0.50443 0.79549 0.18732 0.0
C430 C 0.42044 0.78872 0.22651 0.0
C431 C 0.47013 0.79683 0.24847 0.0
C432 C 0.53717 0.80419 0.23958 0.0
C433 C 0.55417 0.80349 0.20939 0.0
C434 C 0.4529 0.79535 0.28057 0.0
C435 C 0.49105 0.76909 0.29755 0.0
C436 C 0.39672 0.81708 0.29396 0.0
C437 C 0.35563 0.84667 0.27782 0.0
C438 C 0.38691 0.87936 0.26418 0.0
C439 C 0.34786 0.90692 0.24887 0.0
C440 C 0.27741 0.90228 0.24723 0.0
C441 C 0.24581 0.87011 0.26093 0.0
C442 C 0.28462 0.84243 0.27622 0.0
C443 C 0.41316 0.77815 0.4245 0.0
C444 C 0.3445 0.76882 0.42951 0.0
C445 C 0.4371 0.78257 0.39555 0.0
C446 C 0.39292 0.77749 0.37107 0.0
C447 C 0.32466 0.7678 0.37609 0.0
C448 C 0.30076 0.76352 0.40485 0.0
C449 C 0.41624 0.78367 0.34025 0.0
C450 C 0.37933 0.81096 0.32355 0.0
C451 C 0.47309 0.7626 0.327 0.0
C452 C 0.51157 0.73095 0.34208 0.0
C453 C 0.47898 0.69511 0.35059 0.0
C454 C 0.51664 0.66359 0.36239 0.0
C455 C 0.58687 0.66771 0.36594 0.0
C456 C 0.61951 0.70346 0.35784 0.0
C457 C 0.58216 0.73491 0.34579 0.0
H458 H 0.616 0.64319 0.37497 0.0
H459 H 0.24729 0.92366 0.23537 0.0
H460 H 0.7533 0.74931 0.90727 0.0
H461 H 0.71339 0.75601 0.85689 0.0
H462 H 0.53151 0.81728 0.89148 0.0
H463 H 0.57048 0.80921 0.94242 0.0
H464 H 0.50094 0.76513 0.84588 0.0
H465 H 0.66626 0.87293 0.86169 0.0
H466 H 0.77752 0.90192 0.87717 0.0
H467 H 0.87666 0.82016 0.81101 0.0
H468 H 0.76627 0.79055 0.79515 0.0
H469 H 0.41821 0.8151 0.69848 0.0
H470 H 0.44457 0.82166 0.75154 0.0
H471 H 0.63912 0.76323 0.73324 0.0
H472 H 0.61539 0.7594 0.68022 0.0
H473 H 0.65528 0.82342 0.77275 0.0
H474 H 0.48898 0.71216 0.75969 0.0
H475 H 0.37747 0.6815 0.7463 0.0
H476 H 0.27913 0.76963 0.80853 0.0
H477 H 0.38987 0.80118 0.82197 0.0
C478 C 0.70492 0.76441 0.90425 0.0
C479 C 0.66539 0.77922 0.92884 0.0
C480 C 0.68221 0.76836 0.87536 0.0
C481 C 0.62021 0.78815 0.8703 0.0
C482 C 0.57978 0.8022 0.89482 0.0
C483 C 0.60208 0.79763 0.92388 0.0
C484 C 0.59796 0.79364 0.83935 0.0
C485 C 0.53414 0.77856 0.82998 0.0
C486 C 0.6415 0.81078 0.8185 0.0
C487 C 0.70793 0.82944 0.82731 0.0
C488 C 0.71183 0.86113 0.85045 0.0
C489 C 0.77478 0.87768 0.85927 0.0
C490 C 0.83417 0.86291 0.84504 0.0
C491 C 0.83066 0.83166 0.82191 0.0
C492 C 0.76791 0.81508 0.81293 0.0
C493 C 0.46714 0.80431 0.70566 0.0
C494 C 0.51444 0.78641 0.68491 0.0
C495 C 0.48172 0.80752 0.73613 0.0
C496 C 0.5433 0.79215 0.74657 0.0
C497 C 0.59103 0.77509 0.72586 0.0
C498 C 0.577 0.77247 0.69545 0.0
C499 C 0.55898 0.79369 0.77892 0.0
C500 C 0.62161 0.81036 0.78864 0.0
C501 C 0.51417 0.77808 0.80004 0.0
C502 C 0.44764 0.75932 0.79158 0.0
C503 C 0.44351 0.72523 0.77031 0.0
C504 C 0.38046 0.70766 0.76275 0.0
C505 C 0.3213 0.72369 0.77653 0.0
C506 C 0.32501 0.75732 0.79785 0.0
C507 C 0.38786 0.77504 0.80544 0.0
H508 H 0.27257 0.70998 0.77084 0.0
H509 H 0.8829 0.87564 0.85193 0.0
H510 H 0.71985 0.2855 0.62259 0.0
H511 H 0.67562 0.27984 0.67257 0.0
H512 H 0.54122 0.18182 0.63923 0.0
H513 H 0.58362 0.189 0.5885 0.0
H514 H 0.47846 0.22901 0.68076 0.0
H515 H 0.69154 0.15821 0.67703 0.0
H516 H 0.81326 0.14931 0.66487 0.0
H517 H 0.86034 0.25673 0.72303 0.0
H518 H 0.73897 0.26704 0.73472 0.0
H519 H 0.42545 0.17865 0.83187 0.0
H520 H 0.45436 0.17491 0.77897 0.0
H521 H 0.58886 0.27928 0.79487 0.0
H522 H 0.56211 0.28231 0.84789 0.0
H523 H 0.64852 0.2179 0.7608 0.0
H524 H 0.42647 0.29305 0.75446 0.0
H525 H 0.3025 0.30067 0.76153 0.0
H526 H 0.27249 0.1766 0.72296 0.0
H527 H 0.39597 0.16899 0.71426 0.0
C528 C 0.68105 0.26266 0.62592 0.0
C529 C 0.65604 0.23711 0.60189 0.0
C530 C 0.65582 0.25936 0.65451 0.0
C531 C 0.60662 0.22946 0.65987 0.0
C532 C 0.57967 0.20483 0.63568 0.0
C533 C 0.60393 0.20885 0.60679 0.0
C534 C 0.5849 0.22387 0.69088 0.0
C535 C 0.51561 0.22588 0.69818 0.0
C536 C 0.63309 0.21957 0.71368 0.0
C537 C 0.70632 0.2132 0.70695 0.0
C538 C 0.72796 0.17999 0.68714 0.0
C539 C 0.79688 0.17482 0.68021 0.0
C540 C 0.84464 0.20251 0.69311 0.0
C541 C 0.82348 0.23545 0.71289 0.0
C542 C 0.75465 0.24092 0.71974 0.0
C543 C 0.46163 0.20062 0.82416 0.0
C544 C 0.49143 0.23082 0.8442 0.0
C545 C 0.47729 0.19882 0.7938 0.0
C546 C 0.523 0.22721 0.78284 0.0
C547 C 0.5531 0.2572 0.80278 0.0
C548 C 0.53748 0.25903 0.8331 0.0
C549 C 0.54226 0.22473 0.75087 0.0
C550 C 0.61133 0.22076 0.74337 0.0
C551 C 0.49374 0.22625 0.72787 0.0
C552 C 0.42019 0.2303 0.73407 0.0
C553 C 0.39337 0.26735 0.74769 0.0
C554 C 0.32325 0.2717 0.75192 0.0
C555 C 0.27977 0.23892 0.74325 0.0
C556 C 0.30622 0.2019 0.72984 0.0
C557 C 0.37615 0.19767 0.72499 0.0
H558 H 0.22557 0.24231 0.74668 0.0
H559 H 0.89798 0.19843 0.68779 0.0
H560 H 0.93946 0.7321 0.08784 0.0
H561 H 0.98597 0.73045 0.13806 0.0
H562 H 0.79322 0.77169 0.17535 0.0
H563 H 0.74618 0.77329 0.12539 0.0
H564 H 0.90419 0.81615 0.19996 0.0
H565 H 0.8369 0.67334 0.17705 0.0
H566 H 0.83659 0.60627 0.14701 0.0
H567 H 0.05233 0.59563 0.15792 0.0
H568 H 0.05404 0.66297 0.18771 0.0
H569 H 0.91805 0.77046 0.35002 0.0
H570 H 0.89047 0.77321 0.29752 0.0
H571 H 0.09146 0.7293 0.27317 0.0
H572 H 0.12057 0.72772 0.32583 0.0
H573 H 0.98915 0.68724 0.24035 0.0
H574 H 0.05955 0.82575 0.2645 0.0
H575 H 0.06553 0.89329 0.29371 0.0
H576 H 0.85283 0.91318 0.2793 0.0
H577 H 0.84538 0.84545 0.25026 0.0
C578 C 0.90687 0.74067 0.10672 0.0
C579 C 0.83907 0.75276 0.10257 0.0
C580 C 0.93351 0.73962 0.13539 0.0
C581 C 0.89297 0.75086 0.1604 0.0
C582 C 0.82537 0.76296 0.15633 0.0
C583 C 0.79851 0.76364 0.12773 0.0
C584 C 0.92092 0.75052 0.19089 0.0
C585 C 0.92214 0.7879 0.2089 0.0
C586 C 0.94675 0.71395 0.20211 0.0
C587 C 0.9457 0.6734 0.18431 0.0
C588 C 0.88436 0.65687 0.17282 0.0
C589 C 0.88391 0.61877 0.15589 0.0
C590 C 0.94443 0.59676 0.15048 0.0
C591 C 0.00551 0.61275 0.16208 0.0
C592 C 0.00624 0.65086 0.17901 0.0
C593 C 0.95697 0.76206 0.33362 0.0
C594 C 0.02168 0.749 0.34229 0.0
C595 C 0.94092 0.76343 0.30357 0.0
C596 C 0.98903 0.75164 0.28147 0.0
C597 C 0.05355 0.73839 0.2899 0.0
C598 C 0.06993 0.73735 0.32002 0.0
C599 C 0.97095 0.7527 0.24963 0.0
C600 C 0.97171 0.71555 0.23134 0.0
C601 C 0.94775 0.78957 0.23798 0.0
C602 C 0.95177 0.83034 0.25543 0.0
C603 C 0.0139 0.84435 0.26777 0.0
C604 C 0.0176 0.88271 0.28425 0.0
C605 C 0.95955 0.90747 0.28843 0.0
C606 C 0.89773 0.89395 0.27606 0.0
C607 C 0.89376 0.85559 0.25955 0.0
H608 H 0.9625 0.93717 0.3012 0.0
H609 H 0.94398 0.56726 0.13737 0.0
H610 H 0.93879 0.24286 0.44008 0.0
H611 H 0.98103 0.2466 0.38929 0.0
H612 H 0.79298 0.30413 0.36521 0.0
H613 H 0.74949 0.29854 0.41546 0.0
H614 H 0.82328 0.24786 0.32472 0.0
H615 H 0.95425 0.35766 0.3763 0.0
H616 H 0.03375 0.38774 0.41422 0.0
H617 H 0.18886 0.30215 0.38156 0.0
H618 H 0.10994 0.27119 0.34374 0.0
H619 H 0.91339 0.31665 0.18619 0.0
H620 H 0.88293 0.31372 0.23832 0.0
H621 H 0.07263 0.25226 0.25433 0.0
H622 H 0.10569 0.25761 0.20251 0.0
H623 H 0.04617 0.30649 0.29879 0.0
H624 H 0.9179 0.19892 0.24606 0.0
H625 H 0.83974 0.16868 0.20769 0.0
H626 H 0.67987 0.24917 0.24249 0.0
H627 H 0.75733 0.28034 0.28084 0.0
C628 C 0.90682 0.25669 0.424 0.0
C629 C 0.84087 0.27044 0.43174 0.0
C630 C 0.93112 0.259 0.39496 0.0
C631 C 0.89063 0.27614 0.37335 0.0
C632 C 0.82526 0.29067 0.38136 0.0
C633 C 0.80047 0.28758 0.41015 0.0
C634 C 0.91449 0.27734 0.34203 0.0
C635 C 0.87161 0.2613 0.31911 0.0
C636 C 0.97871 0.29334 0.33455 0.0
C637 C 0.02601 0.31189 0.35737 0.0
C638 C 0.00515 0.34507 0.37736 0.0
C639 C 0.05013 0.3623 0.39882 0.0
C640 C 0.11626 0.34681 0.40035 0.0
C641 C 0.1376 0.3141 0.38038 0.0
C642 C 0.0928 0.29673 0.35892 0.0
C643 C 0.94934 0.30314 0.20081 0.0
C644 C 0.01201 0.28723 0.18994 0.0
C645 C 0.93131 0.30092 0.23061 0.0
C646 C 0.97476 0.28193 0.25018 0.0
C647 C 0.03795 0.26675 0.23963 0.0
C648 C 0.05646 0.26944 0.20986 0.0
C649 C 0.95414 0.27802 0.2816 0.0
C650 C 0.99778 0.29318 0.30448 0.0
C651 C 0.8906 0.26117 0.28909 0.0
C652 C 0.84368 0.24223 0.26617 0.0
C653 C 0.86622 0.21038 0.24542 0.0
C654 C 0.82201 0.19305 0.22368 0.0
C655 C 0.75493 0.20707 0.22261 0.0
C656 C 0.73185 0.23838 0.24333 0.0
C657 C 0.77588 0.25586 0.26509 0.0
H658 H 0.72084 0.19359 0.20576 0.0
H659 H 0.151 0.3602 0.41697 0.0
H660 H 0.04651 0.2268 0.68749 0.0
H661 H 0.07591 0.2312 0.74021 0.0
H662 H 0.9547 0.34221 0.75504 0.0
H663 H 0.92655 0.33879 0.70196 0.0
H664 H 0.14441 0.29532 0.77099 0.0
H665 H 0.88992 0.34307 0.82294 0.0
H666 H 0.76672 0.32995 0.81833 0.0
H667 H 0.80711 0.20769 0.77788 0.0
H668 H 0.93047 0.22057 0.78155 0.0
H669 H 0.22472 0.33671 0.92331 0.0
H670 H 0.1787 0.34498 0.87371 0.0
H671 H 0.04567 0.24066 0.88289 0.0
H672 H 0.08721 0.23525 0.93354 0.0
H673 H 0.98099 0.29059 0.85453 0.0
H674 H 0.21375 0.23589 0.83959 0.0
H675 H 0.33726 0.23927 0.84794 0.0
H676 H 0.34267 0.36091 0.81586 0.0
H677 H 0.2188 0.35823 0.80751 0.0
C678 C 0.02648 0.25239 0.70185 0.0
C679 C 0.9846 0.28263 0.69039 0.0
C680 C 0.04286 0.25464 0.73205 0.0
C681 C 0.0172 0.28689 0.75157 0.0
C682 C 0.97441 0.31679 0.74042 0.0
C683 C 0.95846 0.3148 0.71007 0.0
C684 C 0.03907 0.29042 0.78313 0.0
C685 C 0.10865 0.29425 0.78926 0.0
C686 C 0.99265 0.28943 0.80701 0.0
C687 C 0.9191 0.28296 0.80222 0.0
C688 C 0.87235 0.31362 0.81271 0.0
C689 C 0.80259 0.30623 0.81026 0.0
C690 C 0.77913 0.26804 0.79778 0.0
C691 C 0.82538 0.23732 0.78744 0.0
C692 C 0.89518 0.2448 0.78939 0.0
C693 C 0.18525 0.31588 0.91466 0.0
C694 C 0.15959 0.28522 0.93193 0.0
C695 C 0.15938 0.32028 0.88621 0.0
C696 C 0.10999 0.29264 0.87393 0.0
C697 C 0.0837 0.26242 0.89163 0.0
C698 C 0.10762 0.25914 0.92051 0.0
C699 C 0.08684 0.29405 0.84253 0.0
C700 C 0.01695 0.29175 0.83635 0.0
C701 C 0.1331 0.29559 0.8185 0.0
C702 C 0.20739 0.29685 0.82296 0.0
C703 C 0.24143 0.26328 0.83429 0.0
C704 C 0.31148 0.26509 0.83899 0.0
C705 C 0.34794 0.30022 0.83227 0.0
C706 C 0.31435 0.33373 0.82104 0.0
C707 C 0.2443 0.33204 0.81622 0.0
H708 H 0.40218 0.30159 0.8357 0.0
H709 H 0.72513 0.26224 0.79617 0.0
H710 H 0.26246 0.74177 0.62401 0.0
H711 H 0.2156 0.7386 0.67375 0.0
H712 H 0.01266 0.74576 0.63877 0.0
H713 H 0.05927 0.74941 0.58854 0.0
H714 H 0.02878 0.79652 0.68978 0.0
H715 H 0.07034 0.65449 0.65886 0.0
H716 H 0.13658 0.59456 0.63738 0.0
H717 H 0.2846 0.6141 0.70677 0.0
H718 H 0.21962 0.67446 0.7284 0.0
H719 H 0.88666 0.74191 0.82855 0.0
H720 H 0.91599 0.74254 0.77577 0.0
H721 H 0.12884 0.73868 0.79773 0.0
H722 H 0.10005 0.73909 0.85049 0.0
H723 H 0.0962 0.6825 0.75133 0.0
H724 H 0.05977 0.82845 0.7788 0.0
H725 H 0.99628 0.89048 0.79868 0.0
H726 H 0.83711 0.86273 0.73542 0.0
H727 H 0.89964 0.80044 0.71521 0.0
C728 C 0.20778 0.74257 0.6267 0.0
C729 C 0.16465 0.74558 0.60212 0.0
C730 C 0.18106 0.74061 0.65525 0.0
C731 C 0.11059 0.74135 0.65995 0.0
C732 C 0.06721 0.74495 0.63561 0.0
C733 C 0.09397 0.74688 0.60691 0.0
C734 C 0.08299 0.73863 0.69044 0.0
C735 C 0.04232 0.77116 0.70306 0.0
C736 C 0.10153 0.70587 0.70791 0.0
C737 C 0.14033 0.6692 0.69517 0.0
C738 C 0.11722 0.64616 0.66944 0.0
C739 C 0.1545 0.61207 0.65724 0.0
C740 C 0.21482 0.60056 0.67067 0.0
C741 C 0.23787 0.62304 0.69638 0.0
C742 C 0.20077 0.65716 0.70865 0.0
C743 C 0.93973 0.74168 0.82218 0.0
C744 C 0.99099 0.74059 0.8438 0.0
C745 C 0.9564 0.74191 0.79199 0.0
C746 C 0.02462 0.74088 0.78282 0.0
C747 C 0.07584 0.73937 0.80429 0.0
C748 C 0.05926 0.73941 0.83445 0.0
C749 C 0.04301 0.74076 0.75085 0.0
C750 C 0.0819 0.70759 0.73794 0.0
C751 C 0.0225 0.77281 0.7331 0.0
C752 C 0.98409 0.80963 0.74567 0.0
C753 C 0.011 0.83542 0.76928 0.0
C754 C 0.9754 0.87076 0.78048 0.0
C755 C 0.91285 0.88064 0.76823 0.0
C756 C 0.88569 0.85513 0.7448 0.0
C757 C 0.92123 0.81986 0.73344 0.0
H758 H 0.88525 0.90791 0.77701 0.0
H759 H 0.24364 0.57418 0.66118 0.0
loop_
_geom_bond_atom_site_label_1
_geom_bond_atom_site_label_2
_geom_bond_distance
_geom_bond_site_symmetry_2
_ccdc_geom_bond_type
C0 Eu1 2.835 . S
C0 C2 1.500 . S
C0 O20 1.257 . S
C0 O21 1.260 . S
Eu1 C0 2.835 . S
Eu1 O20 2.473 . S
Eu1 O21 2.480 . S
Eu1 O22 2.430 . S
Eu1 O23 2.670 1_556 S
Eu1 O24 2.394 . S
Eu1 O29 2.352 1_556 S
Eu1 O31 2.374 1_556 S
C2 C0 1.500 . S
C2 C3 1.377 . S
C2 C7 1.377 . S
C3 C2 1.377 . S
C3 C4 1.395 . S
C3 H32 0.931 . S
C4 C3 1.395 . S
C4 C5 1.383 . S
C4 H33 0.931 . S
C5 C4 1.383 . S
C5 C6 1.394 . S
C6 C5 1.394 . S
C6 C7 1.378 . S
C6 H34 0.931 . S
C7 C2 1.377 . S
C7 C6 1.378 . S
C7 H35 0.931 . S
C8 O22 1.259 1_554 S
C8 O23 1.270 . S
C9 O24 1.251 . S
C9 O25 1.251 . S
C10 Eu11 2.835 . S
C10 C12 1.500 . S
C10 O26 1.257 . S
C10 O27 1.260 . S
Eu11 C10 2.835 . S
Eu11 O23 2.355 . S
Eu11 O25 2.374 1_554 S
Eu11 O26 2.473 . S
Eu11 O27 2.480 . S
Eu11 O28 2.430 . S
Eu11 O29 2.679 . S
Eu11 O30 2.394 . S
C12 C10 1.500 . S
C12 C13 1.377 . S
C12 C17 1.377 . S
C13 C12 1.377 . S
C13 C14 1.395 . S
C13 H36 0.931 . S
C14 C13 1.395 . S
C14 C15 1.383 . S
C14 H37 0.931 . S
C15 C14 1.383 . S
C15 C16 1.394 . S
C16 C15 1.394 . S
C16 C17 1.378 . S
C16 H38 0.931 . S
C17 C12 1.377 . S
C17 C16 1.378 . S
C17 H39 0.931 . S
C18 O28 1.259 . S
C18 O29 1.275 . S
C19 O30 1.251 . S
C19 O31 1.251 . S
O20 C0 1.257 . S
O20 Eu1 2.473 . S
O21 C0 1.260 . S
O21 Eu1 2.480 . S
O22 Eu1 2.430 . S
O22 C8 1.259 1_556 S
O23 Eu1 2.670 1_554 S
O23 C8 1.270 . S
O23 Eu11 2.355 . S
O24 Eu1 2.394 . S
O24 C9 1.251 . S
O25 C9 1.251 . S
O25 Eu11 2.374 1_556 S
O26 C10 1.257 . S
O26 Eu11 2.473 . S
O27 C10 1.260 . S
O27 Eu11 2.480 . S
O28 Eu11 2.430 . S
O28 C18 1.259 . S
O29 Eu1 2.352 1_554 S
O29 Eu11 2.679 . S
O29 C18 1.275 . S
O30 Eu11 2.394 . S
O30 C19 1.251 . S
O31 Eu1 2.374 1_554 S
O31 C19 1.251 . S
H32 C3 0.931 . S
H33 C4 0.931 . S
H34 C6 0.931 . S
H35 C7 0.931 . S
H36 C13 0.931 . S
H37 C14 0.931 . S
H38 C16 0.931 . S
H39 C17 0.931 . S
C40 Eu41 2.835 . S
C40 C42 1.500 . S
C40 O60 1.257 . S
C40 O61 1.260 . S
Eu41 C40 2.835 . S
Eu41 O60 2.473 . S
Eu41 O61 2.480 . S
Eu41 O62 2.430 . S
Eu41 O63 2.670 1_556 S
Eu41 O64 2.394 . S
Eu41 O69 2.352 1_556 S
Eu41 O71 2.374 1_556 S
C42 C40 1.500 . S
C42 C43 1.377 . S
C42 C47 1.377 . S
C43 C42 1.377 . S
C43 C44 1.395 . S
C43 H72 0.931 . S
C44 C43 1.395 . S
C44 C45 1.383 . S
C44 H73 0.931 . S
C45 C44 1.383 . S
C45 C46 1.394 . S
C46 C45 1.394 . S
C46 C47 1.378 . S
C46 H74 0.931 . S
C47 C42 1.377 . S
C47 C46 1.378 . S
C47 H75 0.931 . S
C48 O62 1.259 1_554 S
C48 O63 1.270 . S
C49 O64 1.251 . S
C49 O65 1.251 . S
C50 Eu51 2.835 . S
C50 C52 1.500 . S
C50 O66 1.257 . S
C50 O67 1.260 . S
Eu51 C50 2.835 . S
Eu51 O63 2.355 . S
Eu51 O65 2.374 1_554 S
Eu51 O66 2.473 . S
Eu51 O67 2.480 . S
Eu51 O68 2.430 . S
Eu51 O69 2.679 . S
Eu51 O70 2.394 . S
C52 C50 1.500 . S
C52 C53 1.377 . S
C52 C57 1.377 . S
C53 C52 1.377 . S
C53 C54 1.395 . S
C53 H76 0.931 . S
C54 C53 1.395 . S
C54 C55 1.383 . S
C54 H77 0.931 . S
C55 C54 1.383 . S
C55 C56 1.394 . S
C56 C55 1.394 . S
C56 C57 1.378 . S
C56 H78 0.931 . S
C57 C52 1.377 . S
C57 C56 1.378 . S
C57 H79 0.931 . S
C58 O68 1.259 . S
C58 O69 1.275 . S
C59 O70 1.251 . S
C59 O71 1.251 . S
O60 C40 1.257 . S
O60 Eu41 2.473 . S
O61 C40 1.260 . S
O61 Eu41 2.480 . S
O62 Eu41 2.430 . S
O62 C48 1.259 1_556 S
O63 Eu41 2.670 1_554 S
O63 C48 1.270 . S
O63 Eu51 2.355 . S
O64 Eu41 2.394 . S
O64 C49 1.251 . S
O65 C49 1.251 . S
O65 Eu51 2.374 1_556 S
O66 C50 1.257 . S
O66 Eu51 2.473 . S
O67 C50 1.260 . S
O67 Eu51 2.480 . S
O68 Eu51 2.430 . S
O68 C58 1.259 . S
O69 Eu41 2.352 1_554 S
O69 Eu51 2.679 . S
O69 C58 1.275 . S
O70 Eu51 2.394 . S
O70 C59 1.251 . S
O71 Eu41 2.374 1_554 S
O71 C59 1.251 . S
H72 C43 0.931 . S
H73 C44 0.931 . S
H74 C46 0.931 . S
H75 C47 0.931 . S
H76 C53 0.931 . S
H77 C54 0.931 . S
H78 C56 0.931 . S
H79 C57 0.931 . S
C80 Eu81 2.835 . S
C80 C82 1.500 . S
C80 O100 1.257 . S
C80 O101 1.260 . S
Eu81 C80 2.835 . S
Eu81 O100 2.473 . S
Eu81 O101 2.480 . S
Eu81 O102 2.430 . S
Eu81 O103 2.670 . S
Eu81 O104 2.394 . S
Eu81 O109 2.355 . S
Eu81 O111 2.374 . S
C82 C80 1.500 . S
C82 C83 1.377 . S
C82 C87 1.377 . S
C83 C82 1.377 . S
C83 C84 1.395 . S
C83 H112 0.931 . S
C84 C83 1.395 . S
C84 C85 1.383 . S
C84 H113 0.931 . S
C85 C84 1.383 . S
C85 C86 1.394 . S
C86 C85 1.394 . S
C86 C87 1.378 . S
C86 H114 0.931 . S
C87 C82 1.377 . S
C87 C86 1.378 . S
C87 H115 0.931 . S
C88 O102 1.259 . S
C88 O103 1.270 . S
C89 O104 1.251 . S
C89 O105 1.251 . S
C90 Eu91 2.835 . S
C90 C92 1.500 . S
C90 O106 1.257 . S
C90 O107 1.260 . S
Eu91 C90 2.835 . S
Eu91 O103 2.355 . S
Eu91 O105 2.374 . S
Eu91 O106 2.473 . S
Eu91 O107 2.480 . S
Eu91 O108 2.430 . S
Eu91 O109 2.670 . S
Eu91 O110 2.394 . S
C92 C90 1.500 . S
C92 C93 1.377 . S
C92 C97 1.377 . S
C93 C92 1.377 . S
C93 C94 1.395 . S
C93 H116 0.931 . S
C94 C93 1.395 . S
C94 C95 1.383 . S
C94 H117 0.931 . S
C95 C94 1.383 . S
C95 C96 1.394 . S
C96 C95 1.394 . S
C96 C97 1.378 . S
C96 H118 0.931 . S
C97 C92 1.377 . S
C97 C96 1.378 . S
C97 H119 0.931 . S
C98 O108 1.259 . S
C98 O109 1.270 . S
C99 O110 1.251 . S
C99 O111 1.251 . S
O100 C80 1.257 . S
O100 Eu81 2.473 . S
O101 C80 1.260 . S
O101 Eu81 2.480 . S
O102 Eu81 2.430 . S
O102 C88 1.259 . S
O103 Eu81 2.670 . S
O103 C88 1.270 . S
O103 Eu91 2.355 . S
O104 Eu81 2.394 . S
O104 C89 1.251 . S
O105 C89 1.251 . S
O105 Eu91 2.374 . S
O106 C90 1.257 . S
O106 Eu91 2.473 . S
O107 C90 1.260 . S
O107 Eu91 2.480 . S
O108 Eu91 2.430 . S
O108 C98 1.259 . S
O109 Eu81 2.355 . S
O109 Eu91 2.670 . S
O109 C98 1.270 . S
O110 Eu91 2.394 . S
O110 C99 1.251 . S
O111 Eu81 2.374 . S
O111 C99 1.251 . S
H112 C83 0.931 . S
H113 C84 0.931 . S
H114 C86 0.931 . S
H115 C87 0.931 . S
H116 C93 0.931 . S
H117 C94 0.931 . S
H118 C96 0.931 . S
H119 C97 0.931 . S
C120 Eu121 2.835 . S
C120 C122 1.500 . S
C120 O140 1.257 . S
C120 O141 1.260 . S
Eu121 C120 2.835 . S
Eu121 O140 2.473 . S
Eu121 O141 2.480 . S
Eu121 O142 2.430 . S
Eu121 O143 2.670 . S
Eu121 O144 2.394 . S
Eu121 O149 2.355 . S
Eu121 O151 2.374 . S
C122 C120 1.500 . S
C122 C123 1.377 . S
C122 C127 1.377 . S
C123 C122 1.377 . S
C123 C124 1.395 . S
C123 H152 0.931 . S
C124 C123 1.395 . S
C124 C125 1.383 . S
C124 H153 0.931 . S
C125 C124 1.383 . S
C125 C126 1.394 . S
C126 C125 1.394 . S
C126 C127 1.378 . S
C126 H154 0.931 . S
C127 C122 1.377 . S
C127 C126 1.378 . S
C127 H155 0.931 . S
C128 O142 1.259 . S
C128 O143 1.270 . S
C129 O144 1.251 . S
C129 O145 1.251 . S
C130 Eu131 2.835 . S
C130 C132 1.500 . S
C130 O146 1.257 . S
C130 O147 1.260 . S
Eu131 C130 2.835 . S
Eu131 O143 2.355 . S
Eu131 O145 2.374 . S
Eu131 O146 2.473 . S
Eu131 O147 2.480 . S
Eu131 O148 2.430 . S
Eu131 O149 2.670 . S
Eu131 O150 2.394 . S
C132 C130 1.500 . S
C132 C133 1.377 . S
C132 C137 1.377 . S
C133 C132 1.377 . S
C133 C134 1.395 . S
C133 H156 0.931 . S
C134 C133 1.395 . S
C134 C135 1.383 . S
C134 H157 0.931 . S
C135 C134 1.383 . S
C135 C136 1.394 . S
C136 C135 1.394 . S
C136 C137 1.378 . S
C136 H158 0.931 . S
C137 C132 1.377 . S
C137 C136 1.378 . S
C137 H159 0.931 . S
C138 O148 1.259 . S
C138 O149 1.270 . S
C139 O150 1.251 . S
C139 O151 1.251 . S
O140 C120 1.257 . S
O140 Eu121 2.473 . S
O141 C120 1.260 . S
O141 Eu121 2.480 . S
O142 Eu121 2.430 . S
O142 C128 1.259 . S
O143 Eu121 2.670 . S
O143 C128 1.270 . S
O143 Eu131 2.355 . S
O144 Eu121 2.394 . S
O144 C129 1.251 . S
O145 C129 1.251 . S
O145 Eu131 2.374 . S
O146 C130 1.257 . S
O146 Eu131 2.473 . S
O147 C130 1.260 . S
O147 Eu131 2.480 . S
O148 Eu131 2.430 . S
O148 C138 1.259 . S
O149 Eu121 2.355 . S
O149 Eu131 2.670 . S
O149 C138 1.270 . S
O150 Eu131 2.394 . S
O150 C139 1.251 . S
O151 Eu121 2.374 . S
O151 C139 1.251 . S
H152 C123 0.931 . S
H153 C124 0.931 . S
H154 C126 0.931 . S
H155 C127 0.931 . S
H156 C133 0.931 . S
H157 C134 0.931 . S
H158 C136 0.931 . S
H159 C137 0.931 . S
H160 C178 0.951 . S
H161 C180 0.951 . S
H162 C182 0.950 . S
H163 C183 0.950 . S
H164 C185 0.950 . S
H165 C188 0.950 . S
H166 C189 0.950 . S
H167 C191 0.950 . S
H168 C192 0.950 . S
H169 C193 0.951 . S
H170 C195 0.951 . S
H171 C197 0.950 . S
H172 C198 0.950 . S
H173 C200 0.950 . S
H174 C203 0.950 . S
H175 C204 0.950 . S
H176 C206 0.950 . S
H177 C207 0.950 . S
C178 H160 0.951 . S
C178 C179 1.366 . S
C178 C180 1.388 . S
C179 C178 1.366 . S
C179 C183 1.385 . S
C180 H161 0.951 . S
C180 C178 1.388 . S
C180 C181 1.366 . S
C181 C180 1.366 . S
C181 C182 1.414 . S
C181 C184 1.499 . S
C182 H162 0.950 . S
C182 C181 1.414 . S
C182 C183 1.374 . S
C183 H163 0.950 . S
C183 C179 1.385 . S
C183 C182 1.374 . S
C184 C181 1.499 . S
C184 C185 1.373 . S
C184 C186 1.389 1_554 S
C185 H164 0.950 . S
C185 C184 1.373 . S
C185 C201 1.377 . S
C186 C184 1.389 1_556 S
C186 C187 1.524 . S
C186 C200 1.377 . S
C187 C186 1.524 . S
C187 C188 1.397 . S
C187 C192 1.363 . S
C188 H165 0.950 . S
C188 C187 1.397 . S
C188 C189 1.334 . S
C189 H166 0.950 . S
C189 C188 1.334 . S
C189 C190 1.287 . S
C190 C189 1.287 . S
C190 C191 1.524 . S
C190 H209 0.913 . S
C191 H167 0.950 . S
C191 C190 1.524 . S
C191 C192 1.415 . S
C192 H168 0.950 . S
C192 C187 1.363 . S
C192 C191 1.415 . S
C193 H169 0.951 . S
C193 C194 1.366 . S
C193 C195 1.388 . S
C194 C193 1.366 . S
C194 C198 1.385 . S
C195 H170 0.951 . S
C195 C193 1.388 . S
C195 C196 1.366 . S
C196 C195 1.366 . S
C196 C197 1.414 . S
C196 C199 1.499 . S
C197 H171 0.950 . S
C197 C196 1.414 . S
C197 C198 1.374 . S
C198 H172 0.950 . S
C198 C194 1.385 . S
C198 C197 1.374 . S
C199 C196 1.499 . S
C199 C200 1.373 1_554 S
C199 C201 1.389 . S
C200 H173 0.950 . S
C200 C186 1.377 . S
C200 C199 1.373 1_556 S
C201 C185 1.377 . S
C201 C199 1.389 . S
C201 C202 1.524 . S
C202 C201 1.524 . S
C202 C203 1.397 . S
C202 C207 1.363 . S
C203 H174 0.950 . S
C203 C202 1.397 . S
C203 C204 1.334 . S
C204 H175 0.950 . S
C204 C203 1.334 . S
C204 C205 1.287 . S
C205 C204 1.287 . S
C205 C206 1.524 . S
C205 H208 0.999 . S
C206 H176 0.950 . S
C206 C205 1.524 . S
C206 C207 1.415 . S
C207 H177 0.950 . S
C207 C202 1.363 . S
C207 C206 1.415 . S
H208 C205 0.999 . S
H209 C190 0.913 . S
H210 C228 0.951 . S
H211 C230 0.951 . S
H212 C232 0.950 . S
H213 C233 0.950 . S
H214 C235 0.950 . S
H215 C238 0.950 . S
H216 C239 0.950 . S
H217 C241 0.950 . S
H218 C242 0.950 . S
H219 C243 0.951 . S
H220 C245 0.951 . S
H221 C247 0.950 . S
H222 C248 0.950 . S
H223 C250 0.950 . S
H224 C253 0.950 . S
H225 C254 0.950 . S
H226 C256 0.950 . S
H227 C257 0.950 . S
C228 H210 0.951 . S
C228 C229 1.366 . S
C228 C230 1.388 . S
C229 C228 1.366 . S
C229 C233 1.385 . S
C230 H211 0.951 . S
C230 C228 1.388 . S
C230 C231 1.366 . S
C231 C230 1.366 . S
C231 C232 1.414 . S
C231 C234 1.499 . S
C232 H212 0.950 . S
C232 C231 1.414 . S
C232 C233 1.374 . S
C233 H213 0.950 . S
C233 C229 1.385 . S
C233 C232 1.374 . S
C234 C231 1.499 . S
C234 C235 1.373 . S
C234 C236 1.389 . S
C235 H214 0.950 . S
C235 C234 1.373 . S
C235 C251 1.377 . S
C236 C234 1.389 . S
C236 C237 1.524 . S
C236 C250 1.377 . S
C237 C236 1.524 . S
C237 C238 1.397 . S
C237 C242 1.363 . S
C238 H215 0.950 . S
C238 C237 1.397 . S
C238 C239 1.334 . S
C239 H216 0.950 . S
C239 C238 1.334 . S
C239 C240 1.287 . S
C240 C239 1.287 . S
C240 C241 1.524 . S
C240 H259 0.913 . S
C241 H217 0.950 . S
C241 C240 1.524 . S
C241 C242 1.415 . S
C242 H218 0.950 . S
C242 C237 1.363 . S
C242 C241 1.415 . S
C243 H219 0.951 . S
C243 C244 1.366 . S
C243 C245 1.388 . S
C244 C243 1.366 . S
C244 C248 1.385 . S
C245 H220 0.951 . S
C245 C243 1.388 . S
C245 C246 1.366 . S
C246 C245 1.366 . S
C246 C247 1.414 . S
C246 C249 1.499 . S
C247 H221 0.950 . S
C247 C246 1.414 . S
C247 C248 1.374 . S
C248 H222 0.950 . S
C248 C244 1.385 . S
C248 C247 1.374 . S
C249 C246 1.499 . S
C249 C250 1.373 . S
C249 C251 1.389 . S
C250 H223 0.950 . S
C250 C236 1.377 . S
C250 C249 1.373 . S
C251 C235 1.377 . S
C251 C249 1.389 . S
C251 C252 1.524 . S
C252 C251 1.524 . S
C252 C253 1.397 . S
C252 C257 1.363 . S
C253 H224 0.950 . S
C253 C252 1.397 . S
C253 C254 1.334 . S
C254 H225 0.950 . S
C254 C253 1.334 . S
C254 C255 1.287 . S
C255 C254 1.287 . S
C255 C256 1.524 . S
C255 H258 0.999 . S
C256 H226 0.950 . S
C256 C255 1.524 . S
C256 C257 1.415 . S
C257 H227 0.950 . S
C257 C252 1.363 . S
C257 C256 1.415 . S
H258 C255 0.999 . S
H259 C240 0.913 . S
H260 C278 0.951 . S
H261 C280 0.951 . S
H262 C282 0.950 . S
H263 C283 0.950 . S
H264 C285 0.950 . S
H265 C288 0.955 1_556 S
H266 C289 0.950 1_545 S
H267 C291 0.950 . S
H268 C292 0.950 . S
H269 C293 0.951 . S
H270 C295 0.951 . S
H271 C297 0.950 . S
H272 C298 0.950 . S
H273 C300 0.950 . S
H274 C303 0.955 . S
H275 C304 0.950 1_565 S
H276 C306 0.950 . S
H277 C307 0.950 . S
C278 H260 0.951 . S
C278 C279 1.366 . S
C278 C280 1.388 . S
C279 C278 1.366 . S
C279 C283 1.385 1_554 S
C280 H261 0.951 . S
C280 C278 1.388 . S
C280 C281 1.366 . S
C281 C280 1.366 . S
C281 C282 1.414 1_554 S
C281 C284 1.499 . S
C282 H262 0.950 . S
C282 C281 1.414 1_556 S
C282 C283 1.374 . S
C283 H263 0.950 . S
C283 C279 1.385 1_556 S
C283 C282 1.374 . S
C284 C281 1.499 . S
C284 C285 1.373 1_454 S
C284 C286 1.389 1_545 S
C285 H264 0.950 . S
C285 C284 1.373 1_656 S
C285 C301 1.381 . S
C286 C284 1.389 1_565 S
C286 C287 1.524 . S
C286 C300 1.377 . S
C287 C286 1.524 . S
C287 C288 1.394 1_565 S
C287 C292 1.363 . S
C288 H265 0.955 1_554 S
C288 C287 1.394 1_545 S
C288 C289 1.332 1_545 S
C289 H266 0.950 1_565 S
C289 C288 1.332 1_565 S
C289 C290 1.287 . S
C290 C289 1.287 . S
C290 C291 1.524 . S
C290 H309 0.913 . S
C291 H267 0.950 . S
C291 C290 1.524 . S
C291 C292 1.415 . S
C292 H268 0.950 . S
C292 C287 1.363 . S
C292 C291 1.415 . S
C293 H269 0.951 . S
C293 C294 1.366 1_556 S
C293 C295 1.388 . S
C294 C293 1.366 1_554 S
C294 C298 1.385 . S
C295 H270 0.951 . S
C295 C293 1.388 . S
C295 C296 1.366 1_556 S
C296 C295 1.366 1_554 S
C296 C297 1.414 . S
C296 C299 1.499 . S
C297 H271 0.950 . S
C297 C296 1.414 . S
C297 C298 1.374 . S
C298 H272 0.950 . S
C298 C294 1.385 . S
C298 C297 1.374 . S
C299 C296 1.499 . S
C299 C300 1.373 1_655 S
C299 C301 1.374 1_564 S
C300 H273 0.950 . S
C300 C286 1.377 . S
C300 C299 1.373 1_455 S
C301 C285 1.381 . S
C301 C299 1.374 1_546 S
C301 C302 1.536 . S
C302 C301 1.536 . S
C302 C303 1.394 1_546 S
C302 C307 1.363 . S
C303 H274 0.955 . S
C303 C302 1.394 1_564 S
C303 C304 1.332 1_565 S
C304 H275 0.950 1_545 S
C304 C303 1.332 1_545 S
C304 C305 1.287 1_554 S
C305 C304 1.287 1_556 S
C305 C306 1.524 . S
C305 H308 0.999 . S
C306 H276 0.950 . S
C306 C305 1.524 . S
C306 C307 1.415 . S
C307 H277 0.950 . S
C307 C302 1.363 . S
C307 C306 1.415 . S
H308 C305 0.999 . S
H309 C290 0.913 . S
H310 C328 0.951 . S
H311 C330 0.951 . S
H312 C332 0.950 . S
H313 C333 0.950 . S
H314 C335 0.950 . S
H315 C338 0.950 . S
H316 C339 0.950 . S
H317 C341 0.950 . S
H318 C342 0.950 . S
H319 C343 0.951 . S
H320 C345 0.951 . S
H321 C347 0.950 . S
H322 C348 0.950 . S
H323 C350 0.950 . S
H324 C353 0.950 . S
H325 C354 0.950 . S
H326 C356 0.950 . S
H327 C357 0.950 . S
C328 H310 0.951 . S
C328 C329 1.366 . S
C328 C330 1.388 . S
C329 C328 1.366 . S
C329 C333 1.385 . S
C330 H311 0.951 . S
C330 C328 1.388 . S
C330 C331 1.366 . S
C331 C330 1.366 . S
C331 C332 1.414 . S
C331 C334 1.499 . S
C332 H312 0.950 . S
C332 C331 1.414 . S
C332 C333 1.374 . S
C333 H313 0.950 . S
C333 C329 1.385 . S
C333 C332 1.374 . S
C334 C331 1.499 . S
C334 C335 1.390 . S
C334 C336 1.389 1_655 S
C335 H314 0.950 . S
C335 C334 1.390 . S
C335 C351 1.359 1_545 S
C336 C334 1.389 1_455 S
C336 C337 1.524 . S
C336 C350 1.359 1_545 S
C337 C336 1.524 . S
C337 C338 1.397 . S
C337 C342 1.363 . S
C338 H315 0.950 . S
C338 C337 1.397 . S
C338 C339 1.334 . S
C339 H316 0.950 . S
C339 C338 1.334 . S
C339 C340 1.287 . S
C340 C339 1.287 . S
C340 C341 1.524 . S
C340 H359 0.913 . S
C341 H317 0.950 . S
C341 C340 1.524 . S
C341 C342 1.415 . S
C342 H318 0.950 . S
C342 C337 1.363 . S
C342 C341 1.415 . S
C343 H319 0.951 . S
C343 C344 1.366 . S
C343 C345 1.388 . S
C344 C343 1.366 . S
C344 C348 1.385 . S
C345 H320 0.951 . S
C345 C343 1.388 . S
C345 C346 1.366 . S
C346 C345 1.366 . S
C346 C347 1.414 . S
C346 C349 1.499 . S
C347 H321 0.950 . S
C347 C346 1.414 . S
C347 C348 1.374 . S
C348 H322 0.950 . S
C348 C344 1.385 . S
C348 C347 1.374 . S
C349 C346 1.499 . S
C349 C350 1.390 . S
C349 C351 1.389 1_455 S
C350 H323 0.950 . S
C350 C336 1.359 1_565 S
C350 C349 1.390 . S
C351 C335 1.359 1_565 S
C351 C349 1.389 1_655 S
C351 C352 1.524 . S
C352 C351 1.524 . S
C352 C353 1.397 . S
C352 C357 1.363 . S
C353 H324 0.950 . S
C353 C352 1.397 . S
C353 C354 1.334 . S
C354 H325 0.950 . S
C354 C353 1.334 . S
C354 C355 1.287 . S
C355 C354 1.287 . S
C355 C356 1.524 . S
C355 H358 0.999 . S
C356 H326 0.950 . S
C356 C355 1.524 . S
C356 C357 1.415 . S
C357 H327 0.950 . S
C357 C352 1.363 . S
C357 C356 1.415 . S
H358 C355 0.999 . S
H359 C340 0.913 . S
H360 C378 0.951 . S
H361 C380 0.951 . S
H362 C382 0.950 . S
H363 C383 0.950 . S
H364 C385 0.950 . S
H365 C388 0.950 . S
H366 C389 0.950 . S
H367 C391 0.950 . S
H368 C392 0.950 . S
H369 C393 0.951 . S
H370 C395 0.951 . S
H371 C397 0.950 . S
H372 C398 0.950 . S
H373 C400 0.950 . S
H374 C403 0.950 . S
H375 C404 0.950 . S
H376 C406 0.950 . S
H377 C407 0.950 . S
C378 H360 0.951 . S
C378 C379 1.366 . S
C378 C380 1.388 . S
C379 C378 1.366 . S
C379 C383 1.385 . S
C380 H361 0.951 . S
C380 C378 1.388 . S
C380 C381 1.366 . S
C381 C380 1.366 . S
C381 C382 1.414 . S
C381 C384 1.499 . S
C382 H362 0.950 . S
C382 C381 1.414 . S
C382 C383 1.374 . S
C383 H363 0.950 . S
C383 C379 1.385 . S
C383 C382 1.374 . S
C384 C381 1.499 . S
C384 C385 1.373 . S
C384 C386 1.389 . S
C385 H364 0.950 . S
C385 C384 1.373 . S
C385 C401 1.377 . S
C386 C384 1.389 . S
C386 C387 1.524 . S
C386 C400 1.377 . S
C387 C386 1.524 . S
C387 C388 1.397 . S
C387 C392 1.363 . S
C388 H365 0.950 . S
C388 C387 1.397 . S
C388 C389 1.334 . S
C389 H366 0.950 . S
C389 C388 1.334 . S
C389 C390 1.287 . S
C390 C389 1.287 . S
C390 C391 1.524 . S
C390 H409 0.913 . S
C391 H367 0.950 . S
C391 C390 1.524 . S
C391 C392 1.415 . S
C392 H368 0.950 . S
C392 C387 1.363 . S
C392 C391 1.415 . S
C393 H369 0.951 . S
C393 C394 1.366 . S
C393 C395 1.388 . S
C394 C393 1.366 . S
C394 C398 1.385 . S
C395 H370 0.951 . S
C395 C393 1.388 . S
C395 C396 1.366 . S
C396 C395 1.366 . S
C396 C397 1.414 . S
C396 C399 1.499 . S
C397 H371 0.950 . S
C397 C396 1.414 . S
C397 C398 1.374 . S
C398 H372 0.950 . S
C398 C394 1.385 . S
C398 C397 1.374 . S
C399 C396 1.499 . S
C399 C400 1.373 . S
C399 C401 1.389 . S
C400 H373 0.950 . S
C400 C386 1.377 . S
C400 C399 1.373 . S
C401 C385 1.377 . S
C401 C399 1.389 . S
C401 C402 1.524 . S
C402 C401 1.524 . S
C402 C403 1.397 . S
C402 C407 1.363 . S
C403 H374 0.950 . S
C403 C402 1.397 . S
C403 C404 1.334 . S
C404 H375 0.950 . S
C404 C403 1.334 . S
C404 C405 1.287 . S
C405 C404 1.287 . S
C405 C406 1.524 . S
C405 H408 0.999 . S
C406 H376 0.950 . S
C406 C405 1.524 . S
C406 C407 1.415 . S
C407 H377 0.950 . S
C407 C402 1.363 . S
C407 C406 1.415 . S
H408 C405 0.999 . S
H409 C390 0.913 . S
H410 C428 0.951 . S
H411 C430 0.951 . S
H412 C432 0.950 . S
H413 C433 0.950 . S
H414 C435 0.950 . S
H415 C438 0.950 . S
H416 C439 0.950 . S
H417 C441 0.950 . S
H418 C442 0.950 . S
H419 C443 0.951 . S
H420 C445 0.951 . S
H421 C447 0.950 . S
H422 C448 0.950 . S
H423 C450 0.950 . S
H424 C453 0.950 . S
H425 C454 0.950 . S
H426 C456 0.950 . S
H427 C457 0.950 . S
C428 H410 0.951 . S
C428 C429 1.366 . S
C428 C430 1.388 . S
C429 C428 1.366 . S
C429 C433 1.385 . S
C430 H411 0.951 . S
C430 C428 1.388 . S
C430 C431 1.366 . S
C431 C430 1.366 . S
C431 C432 1.414 . S
C431 C434 1.499 . S
C432 H412 0.950 . S
C432 C431 1.414 . S
C432 C433 1.374 . S
C433 H413 0.950 . S
C433 C429 1.385 . S
C433 C432 1.374 . S
C434 C431 1.499 . S
C434 C435 1.373 . S
C434 C436 1.389 . S
C435 H414 0.950 . S
C435 C434 1.373 . S
C435 C451 1.377 . S
C436 C434 1.389 . S
C436 C437 1.524 . S
C436 C450 1.377 . S
C437 C436 1.524 . S
C437 C438 1.397 . S
C437 C442 1.363 . S
C438 H415 0.950 . S
C438 C437 1.397 . S
C438 C439 1.334 . S
C439 H416 0.950 . S
C439 C438 1.334 . S
C439 C440 1.287 . S
C440 C439 1.287 . S
C440 C441 1.524 . S
C440 H459 0.913 . S
C441 H417 0.950 . S
C441 C440 1.524 . S
C441 C442 1.415 . S
C442 H418 0.950 . S
C442 C437 1.363 . S
C442 C441 1.415 . S
C443 H419 0.951 . S
C443 C444 1.366 . S
C443 C445 1.388 . S
C444 C443 1.366 . S
C444 C448 1.385 . S
C445 H420 0.951 . S
C445 C443 1.388 . S
C445 C446 1.366 . S
C446 C445 1.366 . S
C446 C447 1.414 . S
C446 C449 1.499 . S
C447 H421 0.950 . S
C447 C446 1.414 . S
C447 C448 1.374 . S
C448 H422 0.950 . S
C448 C444 1.385 . S
C448 C447 1.374 . S
C449 C446 1.499 . S
C449 C450 1.373 . S
C449 C451 1.389 . S
C450 H423 0.950 . S
C450 C436 1.377 . S
C450 C449 1.373 . S
C451 C435 1.377 . S
C451 C449 1.389 . S
C451 C452 1.524 . S
C452 C451 1.524 . S
C452 C453 1.397 . S
C452 C457 1.363 . S
C453 H424 0.950 . S
C453 C452 1.397 . S
C453 C454 1.334 . S
C454 H425 0.950 . S
C454 C453 1.334 . S
C454 C455 1.287 . S
C455 C454 1.287 . S
C455 C456 1.524 . S
C455 H458 0.999 . S
C456 H426 0.950 . S
C456 C455 1.524 . S
C456 C457 1.415 . S
C457 H427 0.950 . S
C457 C452 1.363 . S
C457 C456 1.415 . S
H458 C455 0.999 . S
H459 C440 0.913 . S
H460 C478 0.951 . S
H461 C480 0.951 . S
H462 C482 0.950 . S
H463 C483 0.950 . S
H464 C485 0.950 . S
H465 C488 0.950 . S
H466 C489 0.950 . S
H467 C491 0.950 . S
H468 C492 0.950 . S
H469 C493 0.951 . S
H470 C495 0.951 . S
H471 C497 0.950 . S
H472 C498 0.950 . S
H473 C500 0.950 . S
H474 C503 0.950 . S
H475 C504 0.950 . S
H476 C506 0.950 . S
H477 C507 0.950 . S
C478 H460 0.951 . S
C478 C479 1.366 . S
C478 C480 1.388 . S
C479 C478 1.366 . S
C479 C483 1.385 . S
C480 H461 0.951 . S
C480 C478 1.388 . S
C480 C481 1.366 . S
C481 C480 1.366 . S
C481 C482 1.414 . S
C481 C484 1.499 . S
C482 H462 0.950 . S
C482 C481 1.414 . S
C482 C483 1.374 . S
C483 H463 0.950 . S
C483 C479 1.385 . S
C483 C482 1.374 . S
C484 C481 1.499 . S
C484 C485 1.373 . S
C484 C486 1.389 . S
C485 H464 0.950 . S
C485 C484 1.373 . S
C485 C501 1.377 . S
C486 C484 1.389 . S
C486 C487 1.524 . S
C486 C500 1.377 . S
C487 C486 1.524 . S
C487 C488 1.397 . S
C487 C492 1.363 . S
C488 H465 0.950 . S
C488 C487 1.397 . S
C488 C489 1.334 . S
C489 H466 0.950 . S
C489 C488 1.334 . S
C489 C490 1.287 . S
C490 C489 1.287 . S
C490 C491 1.524 . S
C490 H509 0.913 . S
C491 H467 0.950 . S
C491 C490 1.524 . S
C491 C492 1.415 . S
C492 H468 0.950 . S
C492 C487 1.363 . S
C492 C491 1.415 . S
C493 H469 0.951 . S
C493 C494 1.366 . S
C493 C495 1.388 . S
C494 C493 1.366 . S
C494 C498 1.385 . S
C495 H470 0.951 . S
C495 C493 1.388 . S
C495 C496 1.366 . S
C496 C495 1.366 . S
C496 C497 1.414 . S
C496 C499 1.499 . S
C497 H471 0.950 . S
C497 C496 1.414 . S
C497 C498 1.374 . S
C498 H472 0.950 . S
C498 C494 1.385 . S
C498 C497 1.374 . S
C499 C496 1.499 . S
C499 C500 1.373 . S
C499 C501 1.389 . S
C500 H473 0.950 . S
C500 C486 1.377 . S
C500 C499 1.373 . S
C501 C485 1.377 . S
C501 C499 1.389 . S
C501 C502 1.524 . S
C502 C501 1.524 . S
C502 C503 1.397 . S
C502 C507 1.363 . S
C503 H474 0.950 . S
C503 C502 1.397 . S
C503 C504 1.334 . S
C504 H475 0.950 . S
C504 C503 1.334 . S
C504 C505 1.287 . S
C505 C504 1.287 . S
C505 C506 1.524 . S
C505 H508 0.999 . S
C506 H476 0.950 . S
C506 C505 1.524 . S
C506 C507 1.415 . S
C507 H477 0.950 . S
C507 C502 1.363 . S
C507 C506 1.415 . S
H508 C505 0.999 . S
H509 C490 0.913 . S
H510 C528 0.951 . S
H511 C530 0.951 . S
H512 C532 0.950 . S
H513 C533 0.950 . S
H514 C535 0.950 . S
H515 C538 0.950 . S
H516 C539 0.950 . S
H517 C541 0.950 . S
H518 C542 0.950 . S
H519 C543 0.951 . S
H520 C545 0.951 . S
H521 C547 0.950 . S
H522 C548 0.950 . S
H523 C550 0.950 . S
H524 C553 0.950 . S
H525 C554 0.950 . S
H526 C556 0.950 . S
H527 C557 0.950 . S
C528 H510 0.951 . S
C528 C529 1.366 . S
C528 C530 1.388 . S
C529 C528 1.366 . S
C529 C533 1.385 . S
C530 H511 0.951 . S
C530 C528 1.388 . S
C530 C531 1.366 . S
C531 C530 1.366 . S
C531 C532 1.414 . S
C531 C534 1.499 . S
C532 H512 0.950 . S
C532 C531 1.414 . S
C532 C533 1.374 . S
C533 H513 0.950 . S
C533 C529 1.385 . S
C533 C532 1.374 . S
C534 C531 1.499 . S
C534 C535 1.373 . S
C534 C536 1.389 . S
C535 H514 0.950 . S
C535 C534 1.373 . S
C535 C551 1.377 . S
C536 C534 1.389 . S
C536 C537 1.524 . S
C536 C550 1.377 . S
C537 C536 1.524 . S
C537 C538 1.397 . S
C537 C542 1.363 . S
C538 H515 0.950 . S
C538 C537 1.397 . S
C538 C539 1.334 . S
C539 H516 0.950 . S
C539 C538 1.334 . S
C539 C540 1.287 . S
C540 C539 1.287 . S
C540 C541 1.524 . S
C540 H559 0.913 . S
C541 H517 0.950 . S
C541 C540 1.524 . S
C541 C542 1.415 . S
C542 H518 0.950 . S
C542 C537 1.363 . S
C542 C541 1.415 . S
C543 H519 0.951 . S
C543 C544 1.366 . S
C543 C545 1.388 . S
C544 C543 1.366 . S
C544 C548 1.385 . S
C545 H520 0.951 . S
C545 C543 1.388 . S
C545 C546 1.366 . S
C546 C545 1.366 . S
C546 C547 1.414 . S
C546 C549 1.499 . S
C547 H521 0.950 . S
C547 C546 1.414 . S
C547 C548 1.374 . S
C548 H522 0.950 . S
C548 C544 1.385 . S
C548 C547 1.374 . S
C549 C546 1.499 . S
C549 C550 1.373 . S
C549 C551 1.389 . S
C550 H523 0.950 . S
C550 C536 1.377 . S
C550 C549 1.373 . S
C551 C535 1.377 . S
C551 C549 1.389 . S
C551 C552 1.524 . S
C552 C551 1.524 . S
C552 C553 1.397 . S
C552 C557 1.363 . S
C553 H524 0.950 . S
C553 C552 1.397 . S
C553 C554 1.334 . S
C554 H525 0.950 . S
C554 C553 1.334 . S
C554 C555 1.287 . S
C555 C554 1.287 . S
C555 C556 1.524 . S
C555 H558 0.999 . S
C556 H526 0.950 . S
C556 C555 1.524 . S
C556 C557 1.415 . S
C557 H527 0.950 . S
C557 C552 1.363 . S
C557 C556 1.415 . S
H558 C555 0.999 . S
H559 C540 0.913 . S
H560 C578 0.951 . S
H561 C580 0.951 . S
H562 C582 0.950 . S
H563 C583 0.950 . S
H564 C585 0.950 . S
H565 C588 0.950 . S
H566 C589 0.950 . S
H567 C591 0.950 . S
H568 C592 0.950 1_455 S
H569 C593 0.951 . S
H570 C595 0.951 . S
H571 C597 0.950 . S
H572 C598 0.950 . S
H573 C600 0.950 . S
H574 C603 0.950 . S
H575 C604 0.950 . S
H576 C606 0.950 . S
H577 C607 0.950 . S
C578 H560 0.951 . S
C578 C579 1.366 . S
C578 C580 1.388 . S
C579 C578 1.366 . S
C579 C583 1.385 . S
C580 H561 0.951 . S
C580 C578 1.388 . S
C580 C581 1.366 . S
C581 C580 1.366 . S
C581 C582 1.414 . S
C581 C584 1.499 . S
C582 H562 0.950 . S
C582 C581 1.414 . S
C582 C583 1.374 . S
C583 H563 0.950 . S
C583 C579 1.385 . S
C583 C582 1.374 . S
C584 C581 1.499 . S
C584 C585 1.373 . S
C584 C586 1.389 . S
C585 H564 0.950 . S
C585 C584 1.373 . S
C585 C601 1.377 . S
C586 C584 1.389 . S
C586 C587 1.524 . S
C586 C600 1.377 . S
C587 C586 1.524 . S
C587 C588 1.397 . S
C587 C592 1.363 . S
C588 H565 0.950 . S
C588 C587 1.397 . S
C588 C589 1.334 . S
C589 H566 0.950 . S
C589 C588 1.334 . S
C589 C590 1.287 . S
C590 C589 1.287 . S
C590 C591 1.524 . S
C590 H609 0.913 . S
C591 H567 0.950 . S
C591 C590 1.524 . S
C591 C592 1.415 . S
C592 H568 0.950 1_655 S
C592 C587 1.363 . S
C592 C591 1.415 . S
C593 H569 0.951 . S
C593 C594 1.366 1_655 S
C593 C595 1.388 . S
C594 C593 1.366 1_455 S
C594 C598 1.385 . S
C595 H570 0.951 . S
C595 C593 1.388 . S
C595 C596 1.366 . S
C596 C595 1.366 . S
C596 C597 1.414 1_655 S
C596 C599 1.499 . S
C597 H571 0.950 . S
C597 C596 1.414 1_455 S
C597 C598 1.374 . S
C598 H572 0.950 . S
C598 C594 1.385 . S
C598 C597 1.374 . S
C599 C596 1.499 . S
C599 C600 1.373 . S
C599 C601 1.389 . S
C600 H573 0.950 . S
C600 C586 1.377 . S
C600 C599 1.373 . S
C601 C585 1.377 . S
C601 C599 1.389 . S
C601 C602 1.524 . S
C602 C601 1.524 . S
C602 C603 1.397 1_655 S
C602 C607 1.363 . S
C603 H574 0.950 . S
C603 C602 1.397 1_455 S
C603 C604 1.334 . S
C604 H575 0.950 . S
C604 C603 1.334 . S
C604 C605 1.287 1_455 S
C605 C604 1.287 1_655 S
C605 C606 1.524 . S
C605 H608 0.999 . S
C606 H576 0.950 . S
C606 C605 1.524 . S
C606 C607 1.415 . S
C607 H577 0.950 . S
C607 C602 1.363 . S
C607 C606 1.415 . S
H608 C605 0.999 . S
H609 C590 0.913 . S
H610 C628 0.951 . S
H611 C630 0.951 . S
H612 C632 0.950 . S
H613 C633 0.950 . S
H614 C635 0.950 . S
H615 C638 0.950 1_655 S
H616 C639 0.950 . S
H617 C641 0.950 . S
H618 C642 0.950 . S
H619 C643 0.951 . S
H620 C645 0.951 . S
H621 C647 0.950 . S
H622 C648 0.950 . S
H623 C650 0.950 1_455 S
H624 C653 0.950 . S
H625 C654 0.950 . S
H626 C656 0.950 . S
H627 C657 0.950 . S
C628 H610 0.951 . S
C628 C629 1.366 . S
C628 C630 1.388 . S
C629 C628 1.366 . S
C629 C633 1.385 . S
C630 H611 0.951 . S
C630 C628 1.388 . S
C630 C631 1.366 . S
C631 C630 1.366 . S
C631 C632 1.414 . S
C631 C634 1.499 . S
C632 H612 0.950 . S
C632 C631 1.414 . S
C632 C633 1.374 . S
C633 H613 0.950 . S
C633 C629 1.385 . S
C633 C632 1.374 . S
C634 C631 1.499 . S
C634 C635 1.373 . S
C634 C636 1.389 . S
C635 H614 0.950 . S
C635 C634 1.373 . S
C635 C651 1.377 . S
C636 C634 1.389 . S
C636 C637 1.524 1_655 S
C636 C650 1.377 . S
C637 C636 1.524 1_455 S
C637 C638 1.397 . S
C637 C642 1.363 . S
C638 H615 0.950 1_455 S
C638 C637 1.397 . S
C638 C639 1.334 . S
C639 H616 0.950 . S
C639 C638 1.334 . S
C639 C640 1.287 . S
C640 C639 1.287 . S
C640 C641 1.524 . S
C640 H659 0.913 . S
C641 H617 0.950 . S
C641 C640 1.524 . S
C641 C642 1.415 . S
C642 H618 0.950 . S
C642 C637 1.363 . S
C642 C641 1.415 . S
C643 H619 0.951 . S
C643 C644 1.366 1_655 S
C643 C645 1.388 . S
C644 C643 1.366 1_455 S
C644 C648 1.385 . S
C645 H620 0.951 . S
C645 C643 1.388 . S
C645 C646 1.366 . S
C646 C645 1.366 . S
C646 C647 1.414 1_655 S
C646 C649 1.499 . S
C647 H621 0.950 . S
C647 C646 1.414 1_455 S
C647 C648 1.374 . S
C648 H622 0.950 . S
C648 C644 1.385 . S
C648 C647 1.374 . S
C649 C646 1.499 . S
C649 C650 1.373 . S
C649 C651 1.389 . S
C650 H623 0.950 1_655 S
C650 C636 1.377 . S
C650 C649 1.373 . S
C651 C635 1.377 . S
C651 C649 1.389 . S
C651 C652 1.524 . S
C652 C651 1.524 . S
C652 C653 1.397 . S
C652 C657 1.363 . S
C653 H624 0.950 . S
C653 C652 1.397 . S
C653 C654 1.334 . S
C654 H625 0.950 . S
C654 C653 1.334 . S
C654 C655 1.287 . S
C655 C654 1.287 . S
C655 C656 1.524 . S
C655 H658 0.999 . S
C656 H626 0.950 . S
C656 C655 1.524 . S
C656 C657 1.415 . S
C657 H627 0.950 . S
C657 C652 1.363 . S
C657 C656 1.415 . S
H658 C655 0.999 . S
H659 C640 0.913 . S
H660 C678 0.951 . S
H661 C680 0.951 . S
H662 C682 0.950 . S
H663 C683 0.950 . S
H664 C685 0.950 . S
H665 C688 0.950 . S
H666 C689 0.950 . S
H667 C691 0.950 . S
H668 C692 0.950 . S
H669 C693 0.951 . S
H670 C695 0.951 . S
H671 C697 0.950 . S
H672 C698 0.950 . S
H673 C700 0.950 1_655 S
H674 C703 0.950 . S
H675 C704 0.950 . S
H676 C706 0.950 . S
H677 C707 0.950 . S
C678 H660 0.951 . S
C678 C679 1.366 . S
C678 C680 1.388 . S
C679 C678 1.366 . S
C679 C683 1.385 1_655 S
C680 H661 0.951 . S
C680 C678 1.388 . S
C680 C681 1.366 1_655 S
C681 C680 1.366 1_455 S
C681 C682 1.414 . S
C681 C684 1.499 . S
C682 H662 0.950 . S
C682 C681 1.414 . S
C682 C683 1.374 . S
C683 H663 0.950 . S
C683 C679 1.385 1_455 S
C683 C682 1.374 . S
C684 C681 1.499 . S
C684 C685 1.373 . S
C684 C686 1.400 . S
C685 H664 0.950 . S
C685 C684 1.373 . S
C685 C701 1.377 . S
C686 C684 1.400 . S
C686 C687 1.507 1_455 S
C686 C700 1.383 . S
C687 C686 1.507 1_655 S
C687 C688 1.397 . S
C687 C692 1.363 . S
C688 H665 0.950 . S
C688 C687 1.397 . S
C688 C689 1.334 . S
C689 H666 0.950 . S
C689 C688 1.334 . S
C689 C690 1.287 . S
C690 C689 1.287 . S
C690 C691 1.524 . S
C690 H709 0.913 . S
C691 H667 0.950 . S
C691 C690 1.524 . S
C691 C692 1.415 . S
C692 H668 0.950 . S
C692 C687 1.363 . S
C692 C691 1.415 . S
C693 H669 0.951 . S
C693 C694 1.366 . S
C693 C695 1.388 . S
C694 C693 1.366 . S
C694 C698 1.385 . S
C695 H670 0.951 . S
C695 C693 1.388 . S
C695 C696 1.366 . S
C696 C695 1.366 . S
C696 C697 1.414 . S
C696 C699 1.499 . S
C697 H671 0.950 . S
C697 C696 1.414 . S
C697 C698 1.374 . S
C698 H672 0.950 . S
C698 C694 1.385 . S
C698 C697 1.374 . S
C699 C696 1.499 . S
C699 C700 1.373 . S
C699 C701 1.389 . S
C700 H673 0.950 1_455 S
C700 C686 1.383 . S
C700 C699 1.373 . S
C701 C685 1.377 . S
C701 C699 1.389 . S
C701 C702 1.524 . S
C702 C701 1.524 . S
C702 C703 1.397 . S
C702 C707 1.363 . S
C703 H674 0.950 . S
C703 C702 1.397 . S
C703 C704 1.334 . S
C704 H675 0.950 . S
C704 C703 1.334 . S
C704 C705 1.287 . S
C705 C704 1.287 . S
C705 C706 1.524 . S
C705 H708 0.999 . S
C706 H676 0.950 . S
C706 C705 1.524 . S
C706 C707 1.415 . S
C707 H677 0.950 . S
C707 C702 1.363 . S
C707 C706 1.415 . S
H708 C705 0.999 . S
H709 C690 0.913 . S
H710 C728 0.951 . S
H711 C730 0.951 . S
H712 C732 0.950 . S
H713 C733 0.950 . S
H714 C735 0.950 . S
H715 C738 0.950 . S
H716 C739 0.950 . S
H717 C741 0.950 . S
H718 C742 0.950 . S
H719 C743 0.951 . S
H720 C745 0.951 . S
H721 C747 0.950 . S
H722 C748 0.950 . S
H723 C750 0.950 . S
H724 C753 0.950 . S
H725 C754 0.950 . S
H726 C756 0.943 1_655 S
H727 C757 0.945 1_655 S
C728 H710 0.951 . S
C728 C729 1.366 . S
C728 C730 1.388 . S
C729 C728 1.366 . S
C729 C733 1.385 . S
C730 H711 0.951 . S
C730 C728 1.388 . S
C730 C731 1.366 . S
C731 C730 1.366 . S
C731 C732 1.414 . S
C731 C734 1.499 . S
C732 H712 0.950 . S
C732 C731 1.414 . S
C732 C733 1.374 . S
C733 H713 0.950 . S
C733 C729 1.385 . S
C733 C732 1.374 . S
C734 C731 1.499 . S
C734 C735 1.373 . S
C734 C736 1.389 . S
C735 H714 0.950 . S
C735 C734 1.373 . S
C735 C751 1.377 . S
C736 C734 1.389 . S
C736 C737 1.524 . S
C736 C750 1.377 . S
C737 C736 1.524 . S
C737 C738 1.397 . S
C737 C742 1.363 . S
C738 H715 0.950 . S
C738 C737 1.397 . S
C738 C739 1.334 . S
C739 H716 0.950 . S
C739 C738 1.334 . S
C739 C740 1.287 . S
C740 C739 1.287 . S
C740 C741 1.524 . S
C740 H759 0.913 . S
C741 H717 0.950 . S
C741 C740 1.524 . S
C741 C742 1.415 . S
C742 H718 0.950 . S
C742 C737 1.363 . S
C742 C741 1.415 . S
C743 H719 0.951 . S
C743 C744 1.366 . S
C743 C745 1.388 . S
C744 C743 1.366 . S
C744 C748 1.385 1_655 S
C745 H720 0.951 . S
C745 C743 1.388 . S
C745 C746 1.366 1_655 S
C746 C745 1.366 1_455 S
C746 C747 1.414 . S
C746 C749 1.499 . S
C747 H721 0.950 . S
C747 C746 1.414 . S
C747 C748 1.374 . S
C748 H722 0.950 . S
C748 C744 1.385 1_455 S
C748 C747 1.374 . S
C749 C746 1.499 . S
C749 C750 1.373 . S
C749 C751 1.389 . S
C750 H723 0.950 . S
C750 C736 1.377 . S
C750 C749 1.373 . S
C751 C735 1.377 . S
C751 C749 1.389 . S
C751 C752 1.524 . S
C752 C751 1.524 . S
C752 C753 1.397 . S
C752 C757 1.363 . S
C753 H724 0.950 . S
C753 C752 1.397 . S
C753 C754 1.334 . S
C754 H725 0.950 . S
C754 C753 1.334 . S
C754 C755 1.287 . S
C755 C754 1.287 . S
C755 C756 1.524 . S
C755 H758 0.999 . S
C756 H726 0.943 1_455 S
C756 C755 1.524 . S
C756 C757 1.415 . S
C757 H727 0.945 1_455 S
C757 C752 1.363 . S
C757 C756 1.415 . S
H758 C755 0.999 . S
H759 C740 0.913 . S
C179 C48 1.499 . S
C194 C18 1.499 . S
C229 C98 1.499 . S
C244 C128 1.499 . S
C279 C8 1.499 . S
C294 C58 1.499 . S
C329 C138 1.499 . S
C344 C88 1.499 . S
C379 C135 1.201 . S
C394 C19 1.198 . S
C429 C55 1.201 . S
C444 C99 1.199 . S
C479 C49 1.198 . S
C494 C85 1.201 . S
C529 C129 1.198 . S
C544 C5 1.201 . S
C579 C59 1.198 . S
C594 C95 1.201 . S
C629 C139 1.198 . S
C644 C15 1.201 . S
C679 C125 1.201 . S
C694 C9 1.198 . S
C729 C89 1.198 . S
C744 C45 1.201 . S
