# Generated by pormake.
# Topology est, (5)-cn, num edge types: 1
# Building blocks:
#     Node 0, Type 0, BuildingBlock: XOMCOT_clean_sbu_0, # of connection points: 5
#     Node 1, Type 0, BuildingBlock: XOMCOT_clean_sbu_0, # of connection points: 5
#     Node 2, Type 0, BuildingBlock: XOMCOT_clean_sbu_0, # of connection points: 5
#     Node 3, Type 0, BuildingBlock: XOMCOT_clean_sbu_0, # of connection points: 5
#     Edge 4, Type (0, 0), BuildingBlock: XIVTED_clean_linker_0, # of connection points: 2
#     Edge 5, Type (0, 0), BuildingBlock: XIVTED_clean_linker_0, # of connection points: 2
#     Edge 6, Type (0, 0), BuildingBlock: XIVTED_clean_linker_0, # of connection points: 2
#     Edge 7, Type (0, 0), BuildingBlock: XIVTED_clean_linker_0, # of connection points: 2
#     Edge 8, Type (0, 0), BuildingBlock: XIVTED_clean_linker_0, # of connection points: 2
#     Edge 9, Type (0, 0), BuildingBlock: XIVTED_clean_linker_0, # of connection points: 2
#     Edge 10, Type (0, 0), BuildingBlock: XIVTED_clean_linker_0, # of connection points: 2
#     Edge 11, Type (0, 0), BuildingBlock: XIVTED_clean_linker_0, # of connection points: 2
#     Edge 12, Type (0, 0), BuildingBlock: XIVTED_clean_linker_0, # of connection points: 2
#     Edge 13, Type (0, 0), BuildingBlock: XIVTED_clean_linker_0, # of connection points: 2
# Relax obj value: 0.176
# Max RMSD: 0.239
# Mean RMSD: 0.239
data_MOF--net-est--node1-XOMCOT_clean_sbu_0--edge1-XIVTED_clean_linker_0
_symmetry_space_group_name_H-M    P1
_symmetry_Int_Tables_number       1
_symmetry_cell_setting            triclinic
loop_
_symmetry_equiv_pos_as_xyz
'x, y, z'
_cell_length_a     17.254476
_cell_length_b     17.141041
_cell_length_c     54.032938
_cell_angle_alpha  89.61346
_cell_angle_beta   91.836969
_cell_angle_gamma 90.113427
loop_
_atom_site_label
_atom_site_type_symbol
_atom_site_fract_x
_atom_site_fract_y
_atom_site_fract_z
_atom_type_partial_charge
Co0 Co 0.29032 0.1814 0.57261 0.0
C1 C 0.1269 0.22231 0.57884 0.0
C2 C 0.17555 0.28414 0.54857 0.0
C3 C 0.0961 0.28972 0.54647 0.0
N4 N 0.19527 0.24175 0.56894 0.0
N5 N 0.06531 0.2494 0.5653 0.0
H6 H 0.12198 0.18183 0.59398 0.0
H7 H 0.21539 0.3014 0.53448 0.0
C8 C 0.34522 0.34764 0.56467 0.0
O9 O 0.28854 0.3762 0.5775 0.0
N10 N 0.3839 0.12043 0.57561 0.0
C11 C 0.39955 0.06181 0.59167 0.0
C12 C 0.47763 0.04498 0.59104 0.0
C13 C 0.45169 0.13737 0.56516 0.0
N14 N 0.51061 0.09335 0.57451 0.0
C15 C 0.2538 0.16211 0.62345 0.0
C16 C 0.36708 0.25882 0.6436 0.0
C17 C 0.31936 0.21697 0.65951 0.0
C18 C 0.26197 0.16855 0.64906 0.0
C19 C 0.35733 0.25018 0.61788 0.0
N20 N 0.29986 0.20358 0.60801 0.0
H21 H 0.21197 0.12084 0.61623 0.0
H22 H 0.3984 0.27852 0.60619 0.0
H23 H 0.35818 0.03624 0.60399 0.0
H24 H 0.45845 0.18434 0.55206 0.0
O25 O 0.22797 0.08768 0.5737 0.0
O26 O 0.27052 0.1428 0.53956 0.0
O27 O 0.35432 0.27416 0.5628 0.0
C28 C 0.22723 0.08999 0.54963 0.0
H29 H 0.06394 0.31405 0.53074 0.0
H30 H 0.50791 0.00273 0.60271 0.0
H31 H 0.41348 0.29539 0.65096 0.0
H32 H 0.224 0.13481 0.66062 0.0
Co33 Co 0.77661 0.7507 0.07566 0.0
C34 C 0.73271 0.58499 0.07793 0.0
C35 C 0.67603 0.64311 0.04728 0.0
C36 C 0.66623 0.56385 0.04443 0.0
N37 N 0.71721 0.65663 0.06849 0.0
N38 N 0.70269 0.52739 0.06366 0.0
H39 H 0.77347 0.57427 0.09306 0.0
H40 H 0.66069 0.68722 0.03359 0.0
C41 C 0.61282 0.81126 0.06528 0.0
O42 O 0.57989 0.74873 0.07444 0.0
N43 N 0.83646 0.84377 0.08218 0.0
C44 C 0.88664 0.85703 0.10129 0.0
C45 C 0.90205 0.93601 0.10226 0.0
C46 C 0.82367 0.91389 0.07146 0.0
N47 N 0.86167 0.97168 0.08358 0.0
C48 C 0.78943 0.69421 0.12555 0.0
C49 C 0.68763 0.79716 0.14631 0.0
C50 C 0.72645 0.74269 0.16171 0.0
C51 C 0.77748 0.69053 0.15089 0.0
C52 C 0.70117 0.79873 0.12085 0.0
N53 N 0.75028 0.7463 0.11059 0.0
H54 H 0.8327 0.65638 0.11823 0.0
H55 H 0.6744 0.84446 0.10984 0.0
H56 H 0.90647 0.81336 0.11456 0.0
H57 H 0.78267 0.9232 0.0562 0.0
O58 O 0.86981 0.68815 0.07676 0.0
O59 O 0.81821 0.74423 0.04308 0.0
O60 O 0.68625 0.81915 0.066 0.0
C61 C 0.87046 0.69793 0.05286 0.0
H62 H 0.6393 0.53539 0.02853 0.0
H63 H 0.93705 0.9652 0.11637 0.0
H64 H 0.64955 0.84026 0.15398 0.0
H65 H 0.8092 0.64765 0.16197 0.0
Co66 Co 0.6952 0.82281 0.43264 0.0
C67 C 0.8602 0.78427 0.42911 0.0
C68 C 0.80825 0.72268 0.45883 0.0
C69 C 0.88757 0.71735 0.46189 0.0
N70 N 0.79076 0.76451 0.43814 0.0
N71 N 0.92008 0.75752 0.44339 0.0
H72 H 0.8673 0.82475 0.41407 0.0
H73 H 0.76678 0.7054 0.47243 0.0
C74 C 0.6418 0.65676 0.44132 0.0
O75 O 0.69936 0.62832 0.42886 0.0
N76 N 0.60087 0.88132 0.42807 0.0
C77 C 0.58013 0.92915 0.40919 0.0
C78 C 0.50189 0.9443 0.41048 0.0
C79 C 0.53629 0.86964 0.44086 0.0
N80 N 0.47404 0.90592 0.43029 0.0
C81 C 0.74034 0.83335 0.38235 0.0
C82 C 0.63095 0.73291 0.36192 0.0
C83 C 0.68551 0.76735 0.34651 0.0
C84 C 0.73988 0.81889 0.35706 0.0
C85 C 0.63406 0.74841 0.38742 0.0
N86 N 0.69036 0.79594 0.39753 0.0
H87 H 0.7799 0.87692 0.38947 0.0
H88 H 0.58979 0.72369 0.39874 0.0
H89 H 0.61775 0.94723 0.39458 0.0
H90 H 0.53476 0.83172 0.45686 0.0
O91 O 0.75573 0.91757 0.43104 0.0
O92 O 0.71077 0.86558 0.46534 0.0
O93 O 0.63166 0.73021 0.44276 0.0
C94 C 0.75403 0.91809 0.45509 0.0
H95 H 0.91847 0.69345 0.47795 0.0
H96 H 0.46762 0.9764 0.39676 0.0
H97 H 0.58658 0.69427 0.35437 0.0
H98 H 0.78079 0.84964 0.34571 0.0
Co99 Co 0.20713 0.2429 0.92695 0.0
C100 C 0.2527 0.4082 0.92554 0.0
C101 C 0.29789 0.35124 0.95821 0.0
C102 C 0.30689 0.4306 0.96106 0.0
N103 N 0.2644 0.33694 0.93577 0.0
N104 N 0.27767 0.46629 0.94052 0.0
H105 H 0.21749 0.41846 0.90904 0.0
H106 H 0.30801 0.30768 0.97252 0.0
C107 C 0.36656 0.18299 0.94318 0.0
O108 O 0.40191 0.24439 0.93418 0.0
N109 N 0.14914 0.14995 0.91874 0.0
C110 C 0.10636 0.13598 0.89795 0.0
C111 C 0.09125 0.05697 0.89673 0.0
C112 C 0.15763 0.08029 0.93014 0.0
N113 N 0.12427 0.02208 0.91692 0.0
C114 C 0.21442 0.29686 0.87672 0.0
C115 C 0.32031 0.18899 0.86091 0.0
C116 C 0.29002 0.24387 0.84383 0.0
C117 C 0.23633 0.29821 0.85209 0.0
C118 C 0.29702 0.18989 0.88549 0.0
N119 N 0.24624 0.24489 0.89339 0.0
H120 H 0.16909 0.33588 0.88199 0.0
H121 H 0.3178 0.14405 0.89768 0.0
H122 H 0.09194 0.17907 0.88385 0.0
H123 H 0.19282 0.0715 0.94682 0.0
O124 O 0.11492 0.30636 0.92218 0.0
O125 O 0.15426 0.25092 0.95754 0.0
O126 O 0.29346 0.17465 0.94031 0.0
C127 C 0.10596 0.29734 0.94588 0.0
H128 H 0.32795 0.45971 0.97767 0.0
H129 H 0.06192 0.02717 0.88151 0.0
H130 H 0.36085 0.14486 0.85528 0.0
H131 H 0.20869 0.3395 0.83939 0.0
H132 H 0.0089 0.12279 0.59032 0.0
H133 H 0.57707 0.17385 0.53685 0.0
H134 H 0.93731 0.31722 0.54365 0.0
H135 H 0.63312 0.04401 0.6039 0.0
H136 H 0.71288 0.21076 0.53433 0.0
H137 H 0.87506 0.07955 0.5912 0.0
C138 C 0.96552 0.15731 0.58046 0.0
C139 C 0.98538 0.22467 0.56699 0.0
C140 C 0.69522 0.17402 0.54954 0.0
C141 C 0.83113 0.17315 0.56749 0.0
C142 C 0.61742 0.15287 0.55108 0.0
C143 C 0.59235 0.10672 0.57094 0.0
C144 C 0.74899 0.14801 0.56774 0.0
C145 C 0.64882 0.0796 0.58827 0.0
C146 C 0.88878 0.13182 0.58084 0.0
C147 C 0.92545 0.26481 0.55411 0.0
N148 N 0.72433 0.10089 0.5863 0.0
N149 N 0.85118 0.23832 0.55461 0.0
H150 H 0.71339 0.42084 0.02667 0.0
H151 H 0.86937 0.08429 0.1188 0.0
H152 H 0.73779 0.44715 0.10592 0.0
H153 H 0.81925 0.04749 0.04099 0.0
H154 H 0.83063 0.22036 0.11371 0.0
H155 H 0.75658 0.28568 0.03105 0.0
C156 C 0.72679 0.39808 0.04503 0.0
C157 C 0.72182 0.44568 0.06598 0.0
C158 C 0.82841 0.18263 0.0977 0.0
C159 C 0.77303 0.29118 0.07106 0.0
C160 C 0.85141 0.10498 0.10055 0.0
C161 C 0.84746 0.05408 0.0803 0.0
C162 C 0.80138 0.20993 0.07442 0.0
C163 C 0.82235 0.08431 0.05717 0.0
C164 C 0.75221 0.32098 0.04749 0.0
C165 C 0.74155 0.413 0.08924 0.0
N166 N 0.80006 0.16012 0.05488 0.0
N167 N 0.76645 0.33801 0.09114 0.0
H168 H 0.41442 0.79599 0.46153 0.0
H169 H 0.975 0.89321 0.4239 0.0
H170 H 0.3469 0.98545 0.41224 0.0
H171 H 0.04751 0.68163 0.46169 0.0
H172 H 0.10931 0.93571 0.42335 0.0
H173 H 0.2794 0.76405 0.46638 0.0
C174 C 0.37192 0.83152 0.45173 0.0
C175 C 0.39353 0.89271 0.43585 0.0
C176 C 0.09592 0.87987 0.4317 0.0
C177 C 0.23687 0.85548 0.44151 0.0
C178 C 0.01904 0.855 0.43183 0.0
C179 C -0.0003 0.78282 0.44254 0.0
C180 C 0.15422 0.83248 0.44237 0.0
C181 C 0.05968 0.73753 0.45325 0.0
C182 C 0.29416 0.8127 0.45452 0.0
C183 C 0.33394 0.93657 0.42415 0.0
N184 N 0.13428 0.76298 0.45281 0.0
N185 N 0.25844 0.91673 0.42707 0.0
H186 H 0.14831 0.9476 0.96095 0.0
H187 H 0.26034 0.54503 0.89711 0.0
H188 H 0.13325 0.9089 0.88213 0.0
H189 H 0.25138 0.57381 0.97623 0.0
H190 H 0.21717 0.67967 0.8914 0.0
H191 H 0.18729 0.81159 0.96714 0.0
C192 C 0.15265 0.91036 0.94496 0.0
C193 C 0.13761 0.93989 0.92098 0.0
C194 C 0.2248 0.65665 0.91003 0.0
C195 C 0.18267 0.78417 0.9279 0.0
C196 C 0.24951 0.57976 0.91329 0.0
C197 C 0.25948 0.54786 0.93717 0.0
C198 C 0.20999 0.70243 0.9308 0.0
C199 C 0.24552 0.59601 0.95749 0.0
C200 C 0.17489 0.83271 0.9485 0.0
C201 C 0.14338 0.88869 0.90095 0.0
N202 N 0.2213 0.67079 0.95383 0.0
N203 N 0.16598 0.81358 0.90486 0.0
H204 H 0.31593 0.36675 0.81218 0.0
H205 H 0.32285 0.0956 0.69246 0.0
H206 H 0.30686 0.11517 0.81456 0.0
H207 H 0.34024 0.34643 0.68883 0.0
H208 H 0.32742 0.10214 0.73754 0.0
H209 H 0.3347 0.36115 0.76752 0.0
C210 C 0.31827 0.3103 0.80335 0.0
C211 C 0.30927 0.24132 0.81718 0.0
C212 C 0.33074 0.15586 0.72697 0.0
C213 C 0.33103 0.23454 0.76603 0.0
C214 C 0.32782 0.15217 0.7012 0.0
C215 C 0.33008 0.22069 0.68687 0.0
C216 C 0.33546 0.22871 0.73866 0.0
C217 C 0.33825 0.29222 0.69918 0.0
C218 C 0.32933 0.30718 0.77786 0.0
C219 C 0.31412 0.16987 0.80478 0.0
N220 N 0.3398 0.29447 0.72439 0.0
N221 N 0.324 0.16841 0.77993 0.0
H222 H 0.84049 0.72427 0.19753 0.0
H223 H 0.56238 0.76593 0.3127 0.0
H224 H 0.59394 0.76188 0.18836 0.0
H225 H 0.81039 0.73591 0.31875 0.0
H226 H 0.56911 0.75569 0.26743 0.0
H227 H 0.82732 0.72129 0.24214 0.0
C228 C 0.78328 0.73126 0.20488 0.0
C229 C 0.71811 0.74266 0.18906 0.0
C230 C 0.6219 0.75089 0.27872 0.0
C231 C 0.70265 0.74049 0.24057 0.0
C232 C 0.618 0.75611 0.30453 0.0
C233 C 0.68604 0.75244 0.31947 0.0
C234 C 0.69431 0.74152 0.26788 0.0
C235 C 0.75665 0.74026 0.30792 0.0
C236 C 0.77584 0.72998 0.23046 0.0
C237 C 0.64582 0.75337 0.19984 0.0
N238 N 0.75893 0.73561 0.2829 0.0
N239 N 0.63998 0.75194 0.22494 0.0
H240 H 0.31191 0.49545 0.54763 0.0
H241 H 0.67388 0.5079 0.45789 0.0
H242 H 0.48623 0.31572 0.54559 0.0
H243 H 0.50321 0.69056 0.46136 0.0
H244 H 0.60361 0.43433 0.48913 0.0
H245 H 0.38229 0.56922 0.51648 0.0
C246 C 0.36552 0.47202 0.54092 0.0
C247 C 0.39277 0.39892 0.54905 0.0
C248 C 0.58132 0.4904 0.48295 0.0
C249 C 0.47283 0.48209 0.5131 0.0
C250 C 0.62102 0.53201 0.46493 0.0
C251 C 0.59457 0.60575 0.45712 0.0
C252 C 0.51467 0.52276 0.49316 0.0
C253 C 0.52608 0.63441 0.46705 0.0
C254 C 0.4053 0.51373 0.52295 0.0
C255 C 0.4623 0.37112 0.53955 0.0
N256 N 0.48875 0.59315 0.4846 0.0
N257 N 0.49962 0.41244 0.52201 0.0
H258 H 0.50295 0.20406 0.96989 0.0
H259 H 0.47408 0.79074 0.03985 0.0
H260 H 0.32404 0.03369 0.95408 0.0
H261 H 0.64999 0.96328 0.05669 0.0
H262 H 0.41484 0.88104 0.0094 0.0
H263 H 0.55911 0.11568 1.00144 0.0
C264 C 0.47613 0.1477 0.97281 0.0
C265 C 0.40837 0.12651 0.95949 0.0
C266 C 0.46615 0.89931 0.0199 0.0
C267 C 0.47118 0.02576 0.99581 0.0
C268 C 0.49937 0.84809 0.03747 0.0
C269 C 0.56749 0.86923 0.05059 0.0
C270 C 0.50139 0.97203 0.0155 0.0
C271 C 0.59829 0.94405 0.04663 0.0
C272 C 0.50764 0.09758 0.991 0.0
C273 C 0.3756 0.05298 0.96419 0.0
N274 N 0.56542 0.99246 0.02932 0.0
N275 N 0.40707 0.00547 0.982 0.0
H276 H 0.77368 0.92101 0.50549 0.0
H277 H 0.2063 0.08776 0.49926 0.0
H278 H 0.87574 0.00315 0.43821 0.0
H279 H 0.10237 0.01067 0.56682 0.0
H280 H 0.08697 0.05299 0.47632 0.0
H281 H 0.89194 0.95809 0.52857 0.0
C282 C 0.82027 0.94849 0.49565 0.0
C283 C 0.8149 0.95876 0.46987 0.0
C284 C 0.0905 0.04308 0.49614 0.0
C285 C 0.9514 -0.00114 0.49602 0.0
C286 C 0.159 0.06196 0.50919 0.0
C287 C 0.16439 0.05195 0.53498 0.0
C288 C 0.02674 0.0146 0.509 0.0
C289 C 0.10103 0.01888 0.54693 0.0
C290 C 0.8882 0.96872 0.50879 0.0
C291 C 0.87725 0.99426 0.45807 0.0
N292 N 0.03457 0.00212 0.53388 0.0
N293 N 0.94329 0.01215 0.47119 0.0
H294 H 0.95703 0.57172 0.0674 0.0
H295 H 0.03228 0.43024 0.92946 0.0
H296 H 0.88149 0.70237 0.00248 0.0
H297 H 0.07371 0.2882 0.99479 0.0
H298 H 0.97824 0.53192 0.9554 0.0
H299 H 0.0081 0.47123 0.0407 0.0
C300 C 0.95265 0.5801 0.04752 0.0
C301 C 0.91513 0.6456 0.03714 0.0
C302 C -0.00178 0.47804 0.964 0.0
C303 C 0.97189 0.52986 0.00642 0.0
C304 C 0.02819 0.41961 0.94916 0.0
C305 C 0.05737 0.35063 0.96 0.0
C306 C -0.00214 0.46734 0.9898 0.0
C307 C 0.05187 0.34049 0.98567 0.0
C308 C 0.98094 0.52217 0.03226 0.0
C309 C 0.9102 0.65283 0.01124 0.0
N310 N 0.0234 0.39847 0.99971 0.0
N311 N 0.93794 0.59543 0.99674 0.0
loop_
_geom_bond_atom_site_label_1
_geom_bond_atom_site_label_2
_geom_bond_distance
_geom_bond_site_symmetry_2
_ccdc_geom_bond_type
Co0 N4 2.148 . S
Co0 N10 2.128 . S
Co0 N20 2.194 . S
Co0 O25 2.351 . S
Co0 O26 2.155 . S
Co0 O27 2.096 . S
C1 N4 1.301 . S
C1 N5 1.328 . S
C1 H6 0.930 . S
C2 C3 1.333 . S
C2 N4 1.317 . S
C2 H7 0.930 . S
C3 C2 1.333 . S
C3 N5 1.350 . S
C3 H29 0.931 . S
N4 Co0 2.148 . S
N4 C1 1.301 . S
N4 C2 1.317 . S
N5 C1 1.328 . S
N5 C3 1.350 . S
H6 C1 0.930 . S
H7 C2 0.930 . S
C8 O9 1.224 . S
C8 O27 1.247 . S
O9 C8 1.224 . S
N10 Co0 2.128 . S
N10 C11 1.355 . S
N10 C13 1.311 . S
C11 N10 1.355 . S
C11 C12 1.363 . S
C11 H23 0.929 . S
C12 C11 1.363 . S
C12 N14 1.375 . S
C12 H30 0.931 . S
C13 N10 1.311 . S
C13 N14 1.347 . S
C13 H24 0.929 . S
N14 C12 1.375 . S
N14 C13 1.347 . S
C15 C18 1.365 . S
C15 N20 1.328 . S
C15 H21 0.929 . S
C16 C17 1.362 . S
C16 C19 1.378 . S
C16 H31 0.929 . S
C17 C16 1.362 . S
C17 C18 1.366 . S
C18 C15 1.365 . S
C18 C17 1.366 . S
C18 H32 0.930 . S
C19 C16 1.378 . S
C19 N20 1.315 . S
C19 H22 0.930 . S
N20 Co0 2.194 . S
N20 C15 1.328 . S
N20 C19 1.315 . S
H21 C15 0.929 . S
H22 C19 0.930 . S
H23 C11 0.929 . S
H24 C13 0.929 . S
O25 Co0 2.351 . S
O25 C28 1.244 . S
O26 Co0 2.155 . S
O26 C28 1.240 . S
O27 Co0 2.096 . S
O27 C8 1.247 . S
C28 O25 1.244 . S
C28 O26 1.240 . S
H29 C3 0.931 . S
H30 C12 0.931 . S
H31 C16 0.929 . S
H32 C18 0.930 . S
Co33 N37 2.148 . S
Co33 N43 2.128 . S
Co33 N53 2.194 . S
Co33 O58 2.351 . S
Co33 O59 2.155 . S
Co33 O60 2.096 . S
C34 N37 1.301 . S
C34 N38 1.328 . S
C34 H39 0.930 . S
C35 C36 1.333 . S
C35 N37 1.317 . S
C35 H40 0.930 . S
C36 C35 1.333 . S
C36 N38 1.350 . S
C36 H62 0.931 . S
N37 Co33 2.148 . S
N37 C34 1.301 . S
N37 C35 1.317 . S
N38 C34 1.328 . S
N38 C36 1.350 . S
H39 C34 0.930 . S
H40 C35 0.930 . S
C41 O42 1.224 . S
C41 O60 1.247 . S
O42 C41 1.224 . S
N43 Co33 2.128 . S
N43 C44 1.355 . S
N43 C46 1.311 . S
C44 N43 1.355 . S
C44 C45 1.363 . S
C44 H56 0.929 . S
C45 C44 1.363 . S
C45 N47 1.375 . S
C45 H63 0.931 . S
C46 N43 1.311 . S
C46 N47 1.347 . S
C46 H57 0.929 . S
N47 C45 1.375 . S
N47 C46 1.347 . S
C48 C51 1.365 . S
C48 N53 1.328 . S
C48 H54 0.929 . S
C49 C50 1.362 . S
C49 C52 1.378 . S
C49 H64 0.929 . S
C50 C49 1.362 . S
C50 C51 1.366 . S
C51 C48 1.365 . S
C51 C50 1.366 . S
C51 H65 0.930 . S
C52 C49 1.378 . S
C52 N53 1.315 . S
C52 H55 0.930 . S
N53 Co33 2.194 . S
N53 C48 1.328 . S
N53 C52 1.315 . S
H54 C48 0.929 . S
H55 C52 0.930 . S
H56 C44 0.929 . S
H57 C46 0.929 . S
O58 Co33 2.351 . S
O58 C61 1.244 . S
O59 Co33 2.155 . S
O59 C61 1.240 . S
O60 Co33 2.096 . S
O60 C41 1.247 . S
C61 O58 1.244 . S
C61 O59 1.240 . S
H62 C36 0.931 . S
H63 C45 0.931 . S
H64 C49 0.929 . S
H65 C51 0.930 . S
Co66 N70 2.148 . S
Co66 N76 2.128 . S
Co66 N86 2.194 . S
Co66 O91 2.351 . S
Co66 O92 2.155 . S
Co66 O93 2.096 . S
C67 N70 1.301 . S
C67 N71 1.328 . S
C67 H72 0.930 . S
C68 C69 1.333 . S
C68 N70 1.317 . S
C68 H73 0.930 . S
C69 C68 1.333 . S
C69 N71 1.350 . S
C69 H95 0.931 . S
N70 Co66 2.148 . S
N70 C67 1.301 . S
N70 C68 1.317 . S
N71 C67 1.328 . S
N71 C69 1.350 . S
H72 C67 0.930 . S
H73 C68 0.930 . S
C74 O75 1.224 . S
C74 O93 1.247 . S
O75 C74 1.224 . S
N76 Co66 2.128 . S
N76 C77 1.355 . S
N76 C79 1.311 . S
C77 N76 1.355 . S
C77 C78 1.363 . S
C77 H89 0.929 . S
C78 C77 1.363 . S
C78 N80 1.375 . S
C78 H96 0.931 . S
C79 N76 1.311 . S
C79 N80 1.347 . S
C79 H90 0.929 . S
N80 C78 1.375 . S
N80 C79 1.347 . S
C81 C84 1.365 . S
C81 N86 1.328 . S
C81 H87 0.929 . S
C82 C83 1.362 . S
C82 C85 1.378 . S
C82 H97 0.929 . S
C83 C82 1.362 . S
C83 C84 1.366 . S
C84 C81 1.365 . S
C84 C83 1.366 . S
C84 H98 0.930 . S
C85 C82 1.378 . S
C85 N86 1.315 . S
C85 H88 0.930 . S
N86 Co66 2.194 . S
N86 C81 1.328 . S
N86 C85 1.315 . S
H87 C81 0.929 . S
H88 C85 0.930 . S
H89 C77 0.929 . S
H90 C79 0.929 . S
O91 Co66 2.351 . S
O91 C94 1.244 . S
O92 Co66 2.155 . S
O92 C94 1.240 . S
O93 Co66 2.096 . S
O93 C74 1.247 . S
C94 O91 1.244 . S
C94 O92 1.240 . S
H95 C69 0.931 . S
H96 C78 0.931 . S
H97 C82 0.929 . S
H98 C84 0.930 . S
Co99 N103 2.148 . S
Co99 N109 2.128 . S
Co99 N119 2.194 . S
Co99 O124 2.351 . S
Co99 O125 2.155 . S
Co99 O126 2.096 . S
C100 N103 1.301 . S
C100 N104 1.328 . S
C100 H105 0.930 . S
C101 C102 1.333 . S
C101 N103 1.317 . S
C101 H106 0.930 . S
C102 C101 1.333 . S
C102 N104 1.350 . S
C102 H128 0.931 . S
N103 Co99 2.148 . S
N103 C100 1.301 . S
N103 C101 1.317 . S
N104 C100 1.328 . S
N104 C102 1.350 . S
H105 C100 0.930 . S
H106 C101 0.930 . S
C107 O108 1.224 . S
C107 O126 1.247 . S
O108 C107 1.224 . S
N109 Co99 2.128 . S
N109 C110 1.355 . S
N109 C112 1.311 . S
C110 N109 1.355 . S
C110 C111 1.363 . S
C110 H122 0.929 . S
C111 C110 1.363 . S
C111 N113 1.375 . S
C111 H129 0.931 . S
C112 N109 1.311 . S
C112 N113 1.347 . S
C112 H123 0.929 . S
N113 C111 1.375 . S
N113 C112 1.347 . S
C114 C117 1.365 . S
C114 N119 1.328 . S
C114 H120 0.929 . S
C115 C116 1.362 . S
C115 C118 1.378 . S
C115 H130 0.929 . S
C116 C115 1.362 . S
C116 C117 1.366 . S
C117 C114 1.365 . S
C117 C116 1.366 . S
C117 H131 0.930 . S
C118 C115 1.378 . S
C118 N119 1.315 . S
C118 H121 0.930 . S
N119 Co99 2.194 . S
N119 C114 1.328 . S
N119 C118 1.315 . S
H120 C114 0.929 . S
H121 C118 0.930 . S
H122 C110 0.929 . S
H123 C112 0.929 . S
O124 Co99 2.351 . S
O124 C127 1.244 . S
O125 Co99 2.155 . S
O125 C127 1.240 . S
O126 Co99 2.096 . S
O126 C107 1.247 . S
C127 O124 1.244 . S
C127 O125 1.240 . S
H128 C102 0.931 . S
H129 C111 0.931 . S
H130 C115 0.929 . S
H131 C117 0.930 . S
H132 C138 0.930 . S
H133 C142 0.930 . S
H134 C147 0.929 . S
H135 C145 0.929 . S
H136 C140 0.929 . S
H137 C146 0.929 . S
C138 H132 0.930 . S
C138 C139 1.367 . S
C138 C146 1.378 . S
C139 C138 1.367 . S
C139 C147 1.433 . S
C140 H136 0.929 . S
C140 C142 1.378 . S
C140 C144 1.350 . S
C141 C144 1.463 . S
C141 C146 1.350 . S
C141 N149 1.427 . S
C142 H133 0.930 . S
C142 C140 1.378 . S
C142 C143 1.367 . S
C143 C142 1.367 . S
C143 C145 1.433 . S
C144 C140 1.350 . S
C144 C141 1.463 . S
C144 N148 1.427 . S
C145 H135 0.929 . S
C145 C143 1.433 . S
C145 N148 1.384 . S
C146 H137 0.929 . S
C146 C138 1.378 . S
C146 C141 1.350 . S
C147 H134 0.929 . S
C147 C139 1.433 . S
C147 N149 1.384 . S
N148 C144 1.427 . S
N148 C145 1.384 . S
N149 C141 1.427 . S
N149 C147 1.384 . S
H150 C156 0.930 . S
H151 C160 0.930 . S
H152 C165 0.929 . S
H153 C163 0.929 . S
H154 C158 0.929 . S
H155 C164 0.929 . S
C156 H150 0.930 . S
C156 C157 1.367 . S
C156 C164 1.378 . S
C157 C156 1.367 . S
C157 C165 1.433 . S
C158 H154 0.929 . S
C158 C160 1.378 . S
C158 C162 1.350 . S
C159 C162 1.463 . S
C159 C164 1.350 . S
C159 N167 1.427 . S
C160 H151 0.930 . S
C160 C158 1.378 . S
C160 C161 1.367 . S
C161 C160 1.367 . S
C161 C163 1.433 . S
C162 C158 1.350 . S
C162 C159 1.463 . S
C162 N166 1.427 . S
C163 H153 0.929 . S
C163 C161 1.433 . S
C163 N166 1.384 . S
C164 H155 0.929 . S
C164 C156 1.378 . S
C164 C159 1.350 . S
C165 H152 0.929 . S
C165 C157 1.433 . S
C165 N167 1.384 . S
N166 C162 1.427 . S
N166 C163 1.384 . S
N167 C159 1.427 . S
N167 C165 1.384 . S
H168 C174 0.930 . S
H169 C178 0.930 . S
H170 C183 0.929 . S
H171 C181 0.929 . S
H172 C176 0.929 . S
H173 C182 0.929 . S
C174 H168 0.930 . S
C174 C175 1.367 . S
C174 C182 1.378 . S
C175 C174 1.367 . S
C175 C183 1.433 . S
C176 H172 0.929 . S
C176 C178 1.378 . S
C176 C180 1.350 . S
C177 C180 1.463 . S
C177 C182 1.350 . S
C177 N185 1.427 . S
C178 H169 0.930 . S
C178 C176 1.378 . S
C178 C179 1.367 . S
C179 C178 1.367 . S
C179 C181 1.433 . S
C180 C176 1.350 . S
C180 C177 1.463 . S
C180 N184 1.427 . S
C181 H171 0.929 . S
C181 C179 1.433 . S
C181 N184 1.384 . S
C182 H173 0.929 . S
C182 C174 1.378 . S
C182 C177 1.350 . S
C183 H170 0.929 . S
C183 C175 1.433 . S
C183 N185 1.384 . S
N184 C180 1.427 . S
N184 C181 1.384 . S
N185 C177 1.427 . S
N185 C183 1.384 . S
H186 C192 0.930 . S
H187 C196 0.930 . S
H188 C201 0.929 . S
H189 C199 0.929 . S
H190 C194 0.929 . S
H191 C200 0.929 . S
C192 H186 0.930 . S
C192 C193 1.367 . S
C192 C200 1.378 . S
C193 C192 1.367 . S
C193 C201 1.433 . S
C194 H190 0.929 . S
C194 C196 1.378 . S
C194 C198 1.350 . S
C195 C198 1.463 . S
C195 C200 1.350 . S
C195 N203 1.427 . S
C196 H187 0.930 . S
C196 C194 1.378 . S
C196 C197 1.367 . S
C197 C196 1.367 . S
C197 C199 1.433 . S
C198 C194 1.350 . S
C198 C195 1.463 . S
C198 N202 1.427 . S
C199 H189 0.929 . S
C199 C197 1.433 . S
C199 N202 1.384 . S
C200 H191 0.929 . S
C200 C192 1.378 . S
C200 C195 1.350 . S
C201 H188 0.929 . S
C201 C193 1.433 . S
C201 N203 1.384 . S
N202 C198 1.427 . S
N202 C199 1.384 . S
N203 C195 1.427 . S
N203 C201 1.384 . S
H204 C210 0.930 . S
H205 C214 0.930 . S
H206 C219 0.929 . S
H207 C217 0.929 . S
H208 C212 0.929 . S
H209 C218 0.929 . S
C210 H204 0.930 . S
C210 C211 1.367 . S
C210 C218 1.378 . S
C211 C210 1.367 . S
C211 C219 1.433 . S
C212 H208 0.929 . S
C212 C214 1.378 . S
C212 C216 1.350 . S
C213 C216 1.463 . S
C213 C218 1.350 . S
C213 N221 1.427 . S
C214 H205 0.930 . S
C214 C212 1.378 . S
C214 C215 1.367 . S
C215 C214 1.367 . S
C215 C217 1.433 . S
C216 C212 1.350 . S
C216 C213 1.463 . S
C216 N220 1.427 . S
C217 H207 0.929 . S
C217 C215 1.433 . S
C217 N220 1.384 . S
C218 H209 0.929 . S
C218 C210 1.378 . S
C218 C213 1.350 . S
C219 H206 0.929 . S
C219 C211 1.433 . S
C219 N221 1.384 . S
N220 C216 1.427 . S
N220 C217 1.384 . S
N221 C213 1.427 . S
N221 C219 1.384 . S
H222 C228 0.930 . S
H223 C232 0.930 . S
H224 C237 0.929 . S
H225 C235 0.929 . S
H226 C230 0.929 . S
H227 C236 0.929 . S
C228 H222 0.930 . S
C228 C229 1.367 . S
C228 C236 1.378 . S
C229 C228 1.367 . S
C229 C237 1.433 . S
C230 H226 0.929 . S
C230 C232 1.378 . S
C230 C234 1.350 . S
C231 C234 1.463 . S
C231 C236 1.350 . S
C231 N239 1.427 . S
C232 H223 0.930 . S
C232 C230 1.378 . S
C232 C233 1.367 . S
C233 C232 1.367 . S
C233 C235 1.433 . S
C234 C230 1.350 . S
C234 C231 1.463 . S
C234 N238 1.427 . S
C235 H225 0.929 . S
C235 C233 1.433 . S
C235 N238 1.384 . S
C236 H227 0.929 . S
C236 C228 1.378 . S
C236 C231 1.350 . S
C237 H224 0.929 . S
C237 C229 1.433 . S
C237 N239 1.384 . S
N238 C234 1.427 . S
N238 C235 1.384 . S
N239 C231 1.427 . S
N239 C237 1.384 . S
H240 C246 0.930 . S
H241 C250 0.930 . S
H242 C255 0.929 . S
H243 C253 0.929 . S
H244 C248 0.929 . S
H245 C254 0.929 . S
C246 H240 0.930 . S
C246 C247 1.367 . S
C246 C254 1.378 . S
C247 C246 1.367 . S
C247 C255 1.433 . S
C248 H244 0.929 . S
C248 C250 1.378 . S
C248 C252 1.350 . S
C249 C252 1.463 . S
C249 C254 1.350 . S
C249 N257 1.427 . S
C250 H241 0.930 . S
C250 C248 1.378 . S
C250 C251 1.367 . S
C251 C250 1.367 . S
C251 C253 1.433 . S
C252 C248 1.350 . S
C252 C249 1.463 . S
C252 N256 1.427 . S
C253 H243 0.929 . S
C253 C251 1.433 . S
C253 N256 1.384 . S
C254 H245 0.929 . S
C254 C246 1.378 . S
C254 C249 1.350 . S
C255 H242 0.929 . S
C255 C247 1.433 . S
C255 N257 1.384 . S
N256 C252 1.427 . S
N256 C253 1.384 . S
N257 C249 1.427 . S
N257 C255 1.384 . S
H258 C264 0.930 . S
H259 C268 0.930 . S
H260 C273 0.929 . S
H261 C271 0.929 . S
H262 C266 0.929 . S
H263 C272 0.929 . S
C264 H258 0.930 . S
C264 C265 1.367 . S
C264 C272 1.378 . S
C265 C264 1.367 . S
C265 C273 1.433 . S
C266 H262 0.929 . S
C266 C268 1.378 . S
C266 C270 1.350 . S
C267 C270 1.463 1_546 S
C267 C272 1.350 . S
C267 N275 1.427 . S
C268 H259 0.930 . S
C268 C266 1.378 . S
C268 C269 1.367 . S
C269 C268 1.367 . S
C269 C271 1.433 . S
C270 C266 1.350 . S
C270 C267 1.463 1_564 S
C270 N274 1.427 . S
C271 H261 0.929 . S
C271 C269 1.433 . S
C271 N274 1.384 . S
C272 H263 0.929 . S
C272 C264 1.378 . S
C272 C267 1.350 . S
C273 H260 0.929 . S
C273 C265 1.433 . S
C273 N275 1.384 . S
N274 C270 1.427 . S
N274 C271 1.384 . S
N275 C267 1.427 . S
N275 C273 1.384 . S
H276 C282 0.930 . S
H277 C286 0.930 . S
H278 C291 0.929 1_545 S
H279 C289 0.929 1_565 S
H280 C284 0.929 1_655 S
H281 C290 0.929 1_455 S
C282 H276 0.930 . S
C282 C283 1.367 . S
C282 C290 1.378 . S
C283 C282 1.367 . S
C283 C291 1.433 . S
C284 H280 0.929 1_455 S
C284 C286 1.378 . S
C284 C288 1.350 . S
C285 C288 1.463 1_665 S
C285 C290 1.350 . S
C285 N293 1.427 1_565 S
C286 H277 0.930 . S
C286 C284 1.378 . S
C286 C287 1.367 . S
C287 C286 1.367 . S
C287 C289 1.433 . S
C288 C284 1.350 . S
C288 C285 1.463 1_445 S
C288 N292 1.427 1_545 S
C289 H279 0.929 1_545 S
C289 C287 1.433 . S
C289 N292 1.384 1_545 S
C290 H281 0.929 1_655 S
C290 C282 1.378 . S
C290 C285 1.350 . S
C291 H278 0.929 1_565 S
C291 C283 1.433 . S
C291 N293 1.384 1_565 S
N292 C288 1.427 1_565 S
N292 C289 1.384 1_565 S
N293 C285 1.427 1_545 S
N293 C291 1.384 1_545 S
H294 C300 0.930 . S
H295 C304 0.930 . S
H296 C309 0.929 . S
H297 C307 0.929 . S
H298 C302 0.929 . S
H299 C308 0.929 . S
C300 H294 0.930 . S
C300 C301 1.367 . S
C300 C308 1.378 . S
C301 C300 1.367 . S
C301 C309 1.433 . S
C302 H298 0.929 . S
C302 C304 1.378 . S
C302 C306 1.350 . S
C303 C306 1.463 1_654 S
C303 C308 1.350 . S
C303 N311 1.427 . S
C304 H295 0.930 . S
C304 C302 1.378 . S
C304 C305 1.367 . S
C305 C304 1.367 . S
C305 C307 1.433 . S
C306 C302 1.350 . S
C306 C303 1.463 1_456 S
C306 N310 1.427 . S
C307 H297 0.929 . S
C307 C305 1.433 . S
C307 N310 1.384 . S
C308 H299 0.929 . S
C308 C300 1.378 . S
C308 C303 1.350 . S
C309 H296 0.929 . S
C309 C301 1.433 . S
C309 N311 1.384 . S
N310 C306 1.427 . S
N310 C307 1.384 . S
N311 C303 1.427 . S
N311 C309 1.384 . S
C139 N5 1.159 1_655 S
C143 N14 1.157 . S
C157 N38 1.158 . S
C161 N47 1.155 1_545 S
C175 N80 1.155 . S
C179 N71 1.158 1_455 S
C193 N113 1.160 1_565 S
C197 N104 1.161 . S
C211 C116 1.455 . S
C215 C17 1.456 . S
C229 C50 1.456 . S
C233 C83 1.458 . S
C247 C8 1.300 . S
C251 C74 1.300 . S
C265 C107 1.297 . S
C269 C41 1.297 . S
C283 C94 1.241 . S
C287 C28 1.241 . S
C301 C61 1.251 . S
C305 C127 1.251 . S
