# Generated by pormake.
# Topology sod, (4)-cn, num edge types: 1
# Building blocks:
#     Node 0, Type 0, BuildingBlock: GALJAG_clean_sbu_0, # of connection points: 4
#     Node 1, Type 0, BuildingBlock: GALJAG_clean_sbu_0, # of connection points: 4
#     Node 2, Type 0, BuildingBlock: GALJAG_clean_sbu_0, # of connection points: 4
#     Node 3, Type 0, BuildingBlock: GALJAG_clean_sbu_0, # of connection points: 4
#     Node 4, Type 0, BuildingBlock: GALJAG_clean_sbu_0, # of connection points: 4
#     Node 5, Type 0, BuildingBlock: GALJAG_clean_sbu_0, # of connection points: 4
#     Node 6, Type 0, BuildingBlock: GALJAG_clean_sbu_0, # of connection points: 4
#     Node 7, Type 0, BuildingBlock: GALJAG_clean_sbu_0, # of connection points: 4
#     Node 8, Type 0, BuildingBlock: GALJAG_clean_sbu_0, # of connection points: 4
#     Node 9, Type 0, BuildingBlock: GALJAG_clean_sbu_0, # of connection points: 4
#     Node 10, Type 0, BuildingBlock: GALJAG_clean_sbu_0, # of connection points: 4
#     Node 11, Type 0, BuildingBlock: GALJAG_clean_sbu_0, # of connection points: 4
#     Edge 12, Type (0, 0), BuildingBlock: ZUJKAS_clean_linker_0, # of connection points: 2
#     Edge 13, Type (0, 0), BuildingBlock: ZUJKAS_clean_linker_0, # of connection points: 2
#     Edge 14, Type (0, 0), BuildingBlock: ZUJKAS_clean_linker_0, # of connection points: 2
#     Edge 15, Type (0, 0), BuildingBlock: ZUJKAS_clean_linker_0, # of connection points: 2
#     Edge 16, Type (0, 0), BuildingBlock: ZUJKAS_clean_linker_0, # of connection points: 2
#     Edge 17, Type (0, 0), BuildingBlock: ZUJKAS_clean_linker_0, # of connection points: 2
#     Edge 18, Type (0, 0), BuildingBlock: ZUJKAS_clean_linker_0, # of connection points: 2
#     Edge 19, Type (0, 0), BuildingBlock: ZUJKAS_clean_linker_0, # of connection points: 2
#     Edge 20, Type (0, 0), BuildingBlock: ZUJKAS_clean_linker_0, # of connection points: 2
#     Edge 21, Type (0, 0), BuildingBlock: ZUJKAS_clean_linker_0, # of connection points: 2
#     Edge 22, Type (0, 0), BuildingBlock: ZUJKAS_clean_linker_0, # of connection points: 2
#     Edge 23, Type (0, 0), BuildingBlock: ZUJKAS_clean_linker_0, # of connection points: 2
#     Edge 24, Type (0, 0), BuildingBlock: ZUJKAS_clean_linker_0, # of connection points: 2
#     Edge 25, Type (0, 0), BuildingBlock: ZUJKAS_clean_linker_0, # of connection points: 2
#     Edge 26, Type (0, 0), BuildingBlock: ZUJKAS_clean_linker_0, # of connection points: 2
#     Edge 27, Type (0, 0), BuildingBlock: ZUJKAS_clean_linker_0, # of connection points: 2
#     Edge 28, Type (0, 0), BuildingBlock: ZUJKAS_clean_linker_0, # of connection points: 2
#     Edge 29, Type (0, 0), BuildingBlock: ZUJKAS_clean_linker_0, # of connection points: 2
#     Edge 30, Type (0, 0), BuildingBlock: ZUJKAS_clean_linker_0, # of connection points: 2
#     Edge 31, Type (0, 0), BuildingBlock: ZUJKAS_clean_linker_0, # of connection points: 2
#     Edge 32, Type (0, 0), BuildingBlock: ZUJKAS_clean_linker_0, # of connection points: 2
#     Edge 33, Type (0, 0), BuildingBlock: ZUJKAS_clean_linker_0, # of connection points: 2
#     Edge 34, Type (0, 0), BuildingBlock: ZUJKAS_clean_linker_0, # of connection points: 2
#     Edge 35, Type (0, 0), BuildingBlock: ZUJKAS_clean_linker_0, # of connection points: 2
# Relax obj value: 0.078
# Max RMSD: 0.153
# Mean RMSD: 0.153
data_MOF--net-sod--node1-GALJAG_clean_sbu_0--edge1-ZUJKAS_clean_linker_0
_symmetry_space_group_name_H-M    P1
_symmetry_Int_Tables_number       1
_symmetry_cell_setting            triclinic
loop_
_symmetry_equiv_pos_as_xyz
'x, y, z'
_cell_length_a     55.827821
_cell_length_b     55.766018
_cell_length_c     55.785865
_cell_angle_alpha  90.005716
_cell_angle_beta   90.025383
_cell_angle_gamma 90.012467
loop_
_atom_site_label
_atom_site_type_symbol
_atom_site_fract_x
_atom_site_fract_y
_atom_site_fract_z
_atom_type_partial_charge
In0 In 0.00534 0.25463 0.50044 0.0
O1 O 0.98137 0.22686 0.51866 0.0
O2 O 0.97411 0.23531 0.48228 0.0
C3 C 0.006 0.28466 0.53852 0.0
C4 C 0.04296 0.22405 0.49895 0.0
C5 C 0.0038 0.2868 0.46416 0.0
O6 O 0.98827 0.2715 0.53364 0.0
O7 O 0.02339 0.28264 0.52424 0.0
O8 O 0.02214 0.27445 0.4688 0.0
O9 O 0.98618 0.28287 0.47774 0.0
C10 C 0.9685 0.22309 0.50046 0.0
O11 O 0.02886 0.22693 0.48154 0.0
O12 O 0.03816 0.23662 0.5171 0.0
In13 In 0.7541 0.00483 0.50084 0.0
O14 O 0.72933 0.98464 0.52635 0.0
O15 O 0.7314 0.02246 0.53004 0.0
C16 C 0.78635 0.96866 0.50134 0.0
C17 C 0.72231 0.00487 0.46424 0.0
C18 C 0.78517 0.04207 0.50069 0.0
O19 O 0.77746 0.97738 0.52019 0.0
O20 O 0.77894 0.97813 0.48218 0.0
O21 O 0.77634 0.03346 0.48174 0.0
O22 O 0.77819 0.03205 0.51971 0.0
C23 C 0.72232 0.00308 0.53736 0.0
O24 O 0.72862 0.02377 0.47494 0.0
O25 O 0.73218 0.986 0.47185 0.0
In26 In 0.0051 0.75492 0.50082 0.0
O27 O 0.01457 0.7451 0.53943 0.0
O28 O 0.98937 0.72311 0.52133 0.0
C29 C 0.04433 0.78329 0.49819 0.0
C30 C 0.00692 0.72389 0.46349 0.0
C31 C 0.96838 0.78652 0.50199 0.0
O32 O 0.04423 0.76359 0.50928 0.0
O33 O 0.0248 0.78849 0.48812 0.0
O34 O 0.97716 0.77857 0.48276 0.0
O35 O 0.97803 0.77845 0.52079 0.0
C36 C 0.00112 0.72696 0.54026 0.0
O37 O 0.9876 0.73233 0.47152 0.0
O38 O 0.02544 0.73112 0.47421 0.0
In39 In 0.25378 0.004 0.50324 0.0
O40 O 0.24611 0.96386 0.49861 0.0
O41 O 0.21885 0.98543 0.51378 0.0
C42 C 0.28037 0.00809 0.46305 0.0
C43 C 0.22565 0.04315 0.49912 0.0
C44 C 0.2839 0.0014 0.54136 0.0
O45 O 0.26727 0.99012 0.46724 0.0
O46 O 0.27965 0.02424 0.47889 0.0
O47 O 0.26224 0.00738 0.54342 0.0
O48 O 0.29019 0.99647 0.52028 0.0
C49 C 0.22518 0.96486 0.50699 0.0
O50 O 0.24096 0.0408 0.51561 0.0
O51 O 0.22482 0.02593 0.48445 0.0
In52 In 0.5013 0.00417 0.25252 0.0
O53 O 0.52772 0.98507 0.27734 0.0
O54 O 0.52972 0.02301 0.27515 0.0
C55 C 0.50043 0.96702 0.22139 0.0
C56 C 0.46447 0.00579 0.28392 0.0
C57 C 0.50206 0.04009 0.21999 0.0
O58 O 0.51958 0.97505 0.2303 0.0
O59 O 0.48169 0.97755 0.22835 0.0
O60 O 0.48297 0.03251 0.22937 0.0
O61 O 0.5208 0.02967 0.22711 0.0
C62 C 0.53793 0.00403 0.28427 0.0
O63 O 0.47547 0.02428 0.27699 0.0
O64 O 0.47204 0.98642 0.27502 0.0
In65 In 0.00177 0.50527 0.24972 0.0
O66 O 0.97011 0.48685 0.2313 0.0
O67 O 0.97687 0.52324 0.2226 0.0
C68 C 0.00143 0.46892 0.28177 0.0
C69 C 0.03785 0.50444 0.2174 0.0
C70 C 0.00426 0.54232 0.28093 0.0
O71 O 0.98335 0.48185 0.2777 0.0
O72 O 0.0197 0.47419 0.26954 0.0
O73 O 0.02223 0.52987 0.27527 0.0
O74 O 0.98504 0.53622 0.27072 0.0
C75 C 0.96402 0.50496 0.21923 0.0
O76 O 0.03043 0.52351 0.227 0.0
O77 O 0.02718 0.48568 0.2242 0.0
In78 In 0.50458 0.00319 0.7518 0.0
O79 O 0.53388 0.02012 0.72901 0.0
O80 O 0.52981 0.98234 0.727 0.0
C81 C 0.5023 0.04061 0.78271 0.0
C82 C 0.46592 0.0063 0.72277 0.0
C83 C 0.50809 0.96459 0.78099 0.0
O84 O 0.52176 0.03206 0.77517 0.0
O85 O 0.48386 0.03041 0.77459 0.0
O86 O 0.49282 0.96603 0.76441 0.0
O87 O 0.5219 0.98241 0.78261 0.0
C88 C 0.541 0.00069 0.71994 0.0
O89 O 0.46616 0.99363 0.7415 0.0
O90 O 0.48505 0.01769 0.71887 0.0
In91 In 0.00304 0.50596 0.74916 0.0
O92 O 0.0434 0.50395 0.75729 0.0
O93 O 0.01948 0.50772 0.7865 0.0
C94 C 0.00587 0.46801 0.71889 0.0
C95 C 0.96216 0.50557 0.77513 0.0
C96 C 0.00086 0.54613 0.72225 0.0
O97 O 0.00516 0.46552 0.74135 0.0
O98 O 0.00538 0.48945 0.71186 0.0
O99 O 0.98439 0.53063 0.72258 0.0
O100 O 0.01843 0.54154 0.73576 0.0
C101 C 0.04088 0.5058 0.77968 0.0
O102 O 0.97432 0.52431 0.77166 0.0
O103 O 0.9704 0.48701 0.76516 0.0
In104 In 0.25277 0.50403 0.99953 0.0
O105 O 0.22922 0.48548 0.02733 0.0
O106 O 0.2267 0.52337 0.02453 0.0
C107 C 0.28456 0.46739 1.00012 0.0
C108 C 0.22288 0.50412 0.96136 0.0
C109 C 0.28423 0.54085 0.00171 0.0
O110 O 0.27728 0.47757 0.01892 0.0
O111 O 0.27567 0.47551 0.98101 0.0
O112 O 0.27813 0.53107 0.98226 0.0
O113 O 0.27432 0.5322 0.0201 0.0
C114 C 0.21957 0.50451 0.0348 0.0
O115 O 0.23422 0.52251 0.96805 0.0
O116 O 0.22663 0.48567 0.97388 0.0
In117 In 0.50394 0.25417 0.0014 0.0
O118 O 0.52257 0.22835 0.02708 0.0
O119 O 0.48479 0.23171 0.02977 0.0
C120 C 0.54159 0.28465 0.00245 0.0
C121 C 0.5025 0.22302 0.96431 0.0
C122 C 0.46812 0.28677 0.00136 0.0
O123 O 0.53222 0.27617 0.02119 0.0
O124 O 0.53198 0.27776 0.98318 0.0
O125 O 0.47698 0.27835 0.98235 0.0
O126 O 0.4773 0.27874 0.0204 0.0
C127 C 0.50361 0.22185 0.03749 0.0
O128 O 0.48388 0.23051 0.97468 0.0
O129 O 0.52183 0.23131 0.97256 0.0
In130 In 0.75391 0.50316 0.99718 0.0
O131 O 0.7313 0.47358 0.98033 0.0
O132 O 0.73502 0.47334 0.01816 0.0
C133 C 0.7819 0.50384 0.95774 0.0
C134 C 0.72358 0.54109 0.9956 0.0
C135 C 0.78469 0.50224 0.03469 0.0
O136 O 0.77572 0.4847 0.96809 0.0
O137 O 0.77392 0.52278 0.96726 0.0
O138 O 0.76267 0.50666 0.03718 0.0
O139 O 0.79109 0.49821 0.01341 0.0
C140 C 0.72596 0.4636 0.99988 0.0
O141 O 0.74365 0.54209 0.00593 0.0
O142 O 0.71905 0.5212 0.98594 0.0
In143 In 0.50394 0.75361 0.00203 0.0
O144 O 0.47663 0.73057 0.02213 0.0
O145 O 0.47621 0.72944 0.98411 0.0
C146 C 0.50224 0.78601 0.03803 0.0
C147 C 0.54097 0.72231 0.00147 0.0
C148 C 0.50537 0.78465 0.96483 0.0
O149 O 0.48384 0.77961 0.02654 0.0
O150 O 0.52139 0.776 0.03144 0.0
O151 O 0.52344 0.78001 0.97759 0.0
O152 O 0.48657 0.77363 0.97081 0.0
C153 C 0.46718 0.72201 0.00345 0.0
O154 O 0.5316 0.7305 0.98261 0.0
O155 O 0.53169 0.72989 0.02062 0.0
H156 H 0.96651 0.31574 0.45123 0.0
H157 H 0.96575 0.34574 0.41917 0.0
H158 H 0.0389 0.32857 0.40123 0.0
H159 H 0.03972 0.29836 0.43305 0.0
H160 H 0.99533 0.38594 0.41425 0.0
H161 H 0.00478 0.32477 0.33631 0.0
H162 H 0.99668 0.31424 0.36582 0.0
H163 H 0.02738 0.32106 0.35893 0.0
C164 C 0.98238 0.31825 0.44035 0.0
C165 C 0.00315 0.30464 0.44458 0.0
C166 C 0.98192 0.33539 0.42207 0.0
C167 C 0.00215 0.33912 0.40761 0.0
C168 C 0.02293 0.32562 0.41186 0.0
H169 H 0.03815 0.43877 0.29364 0.0
H170 H 0.03812 0.40734 0.32435 0.0
C171 C 0.02341 0.30848 0.43013 0.0
C172 C 0.00178 0.35777 0.38868 0.0
H173 H 0.00811 0.36649 0.32841 0.0
C174 C 0.99798 0.3817 0.39546 0.0
C175 C 0.00534 0.35215 0.36421 0.0
C176 C 0.00856 0.32664 0.35578 0.0
C177 C 0.99804 0.40025 0.37847 0.0
C178 C 0.00161 0.39464 0.354 0.0
C179 C 0.00541 0.37072 0.3472 0.0
C180 C 0.00141 0.41339 0.33518 0.0
C181 C 0.99483 0.42576 0.38691 0.0
C182 C 0.98066 0.42691 0.33086 0.0
C183 C 0.98062 0.44484 0.31337 0.0
C184 C 0.00132 0.44949 0.2998 0.0
C185 C 0.02196 0.43564 0.30387 0.0
C186 C 0.02197 0.41768 0.32137 0.0
H187 H 0.99831 0.4276 0.40643 0.0
H188 H 0.00696 0.43811 0.37707 0.0
H189 H 0.97611 0.43148 0.38344 0.0
H190 H 0.96447 0.42356 0.34102 0.0
H191 H 0.96441 0.45513 0.31055 0.0
H192 H 0.69967 0.04333 0.44408 0.0
H193 H 0.66892 0.04284 0.41271 0.0
H194 H 0.67371 0.96575 0.40902 0.0
H195 H 0.70437 0.96607 0.44042 0.0
H196 H 0.67182 0.02302 0.36492 0.0
H197 H 0.60153 0.97949 0.42047 0.0
H198 H 0.62779 0.99335 0.43335 0.0
H199 H 0.62989 0.96426 0.4197 0.0
C200 C 0.69419 0.02628 0.43657 0.0
C201 C 0.70433 0.00472 0.44478 0.0
C202 C 0.67666 0.02604 0.41865 0.0
C203 C 0.66885 0.00424 0.40881 0.0
C204 C 0.67923 0.98273 0.41668 0.0
H205 H 0.55975 0.96532 0.30483 0.0
H206 H 0.59235 0.96549 0.33422 0.0
C207 C 0.69681 0.98296 0.43453 0.0
C208 C 0.64985 0.00401 0.39028 0.0
H209 H 0.59269 0.98518 0.3794 0.0
C210 C 0.65448 0.01482 0.36806 0.0
C211 C 0.62732 0.99323 0.39448 0.0
C212 C 0.62115 0.98208 0.41834 0.0
C213 C 0.63725 0.0148 0.3497 0.0
C214 C 0.61463 0.00413 0.35394 0.0
C215 C 0.61005 0.9933 0.37619 0.0
C216 C 0.59536 0.00415 0.33563 0.0
C217 C 0.64362 0.02573 0.3258 0.0
C218 C 0.58609 0.02584 0.32685 0.0
C219 C 0.56755 0.02579 0.31 0.0
C220 C 0.55777 0.00405 0.30182 0.0
C221 C 0.56695 0.98236 0.31077 0.0
C222 C 0.58556 0.98242 0.32756 0.0
H223 H 0.66333 0.02692 0.32329 0.0
H224 H 0.63591 0.01516 0.31079 0.0
H225 H 0.63624 0.04418 0.32486 0.0
H226 H 0.59299 0.04282 0.33325 0.0
H227 H 0.56073 0.04279 0.30356 0.0
H228 H 0.0439 0.55933 0.30401 0.0
H229 H 0.04577 0.59134 0.33397 0.0
H230 H 0.96945 0.60167 0.32788 0.0
H231 H 0.96749 0.56994 0.29759 0.0
H232 H 0.99524 0.64447 0.32802 0.0
H233 H 0.02314 0.58559 0.40333 0.0
H234 H 0.04218 0.584 0.37744 0.0
H235 H 0.01168 0.57387 0.37543 0.0
C236 C 0.02752 0.56844 0.30904 0.0
C237 C 0.00552 0.56206 0.29856 0.0
C238 C 0.0286 0.58662 0.32626 0.0
C239 C 0.00768 0.59858 0.33344 0.0
C240 C 0.98577 0.59256 0.32267 0.0
H241 H 0.96927 0.70694 0.43736 0.0
H242 H 0.97026 0.67738 0.40498 0.0
C243 C 0.98468 0.57443 0.3054 0.0
C244 C 0.00861 0.61745 0.35213 0.0
H245 H 0.02257 0.62736 0.41092 0.0
C246 C 0.00118 0.64074 0.34616 0.0
C247 C 0.01639 0.61251 0.37577 0.0
C248 C 0.02361 0.58761 0.38351 0.0
C249 C 0.00151 0.6593 0.36316 0.0
C250 C 0.00916 0.65432 0.3868 0.0
C251 C 0.01679 0.6311 0.39273 0.0
C252 C 0.00873 0.67278 0.40589 0.0
C253 C 0.99395 0.68416 0.3556 0.0
C254 C 0.03 0.67968 0.41739 0.0
C255 C 0.02949 0.69652 0.43596 0.0
C256 C 0.00765 0.70657 0.44345 0.0
C257 C 0.98638 0.69959 0.43191 0.0
C258 C 0.98692 0.68281 0.41332 0.0
H259 H 0.9946 0.68638 0.33582 0.0
H260 H 0.97525 0.68737 0.36152 0.0
H261 H 0.00554 0.698 0.36399 0.0
H262 H 0.04699 0.672 0.412 0.0
H263 H 0.04616 0.70151 0.44458 0.0
H264 H 0.30767 0.04605 0.44869 0.0
H265 H 0.33681 0.04704 0.41592 0.0
H266 H 0.31963 0.97368 0.39833 0.0
H267 H 0.29004 0.9728 0.43061 0.0
H268 H 0.37639 0.01972 0.41195 0.0
H269 H 0.31824 0.00429 0.33291 0.0
H270 H 0.30634 0.01217 0.36194 0.0
H271 H 0.31483 0.9817 0.35554 0.0
C272 C 0.30984 0.03026 0.43758 0.0
C273 C 0.29654 0.00937 0.44214 0.0
C274 C 0.32651 0.03084 0.4189 0.0
C275 C 0.33018 0.01055 0.40446 0.0
C276 C 0.31669 0.98975 0.40882 0.0
H277 H 0.43667 0.96868 0.29965 0.0
H278 H 0.40383 0.97039 0.32876 0.0
C279 C 0.29988 0.98922 0.42738 0.0
C280 C 0.3493 0.0106 0.38599 0.0
H281 H 0.36039 0.0002 0.32667 0.0
C282 C 0.37284 0.01568 0.39326 0.0
C283 C 0.34465 0.00523 0.36163 0.0
C284 C 0.31961 0.00077 0.35247 0.0
C285 C 0.39194 0.01508 0.37694 0.0
C286 C 0.38732 0.00944 0.35268 0.0
C287 C 0.36381 0.00444 0.34533 0.0
C288 C 0.40676 0.0086 0.3347 0.0
C289 C 0.417 0.01997 0.38584 0.0
C290 C 0.41901 0.02959 0.32824 0.0
C291 C 0.4377 0.02869 0.31162 0.0
C292 C 0.44444 0.00676 0.30118 0.0
C293 C 0.43193 0.98581 0.30747 0.0
C294 C 0.41316 0.98675 0.32403 0.0
H295 H 0.41817 0.01914 0.40571 0.0
H296 H 0.42986 0.00689 0.37812 0.0
H297 H 0.42257 0.03818 0.38007 0.0
H298 H 0.4141 0.04667 0.33609 0.0
H299 H 0.44695 0.04514 0.30705 0.0
H300 H 0.03313 0.58294 0.71949 0.0
H301 H 0.03242 0.61704 0.69178 0.0
H302 H 0.96654 0.59072 0.66105 0.0
H303 H 0.96684 0.55701 0.68898 0.0
H304 H 0.03416 0.61566 0.64335 0.0
H305 H 0.95028 0.66039 0.67159 0.0
H306 H 0.96468 0.63762 0.68952 0.0
H307 H 0.94583 0.62929 0.66468 0.0
C308 C 0.01834 0.58462 0.70702 0.0
C309 C 0.99999 0.56738 0.70646 0.0
C310 C 0.01797 0.60408 0.69121 0.0
C311 C 0.99921 0.60666 0.67462 0.0
C312 C 0.98085 0.58948 0.67411 0.0
H313 H 0.97173 0.68842 0.54697 0.0
H314 H 0.97157 0.66051 0.5809 0.0
C315 C 0.98114 0.57012 0.68998 0.0
C316 C 0.99961 0.62637 0.65677 0.0
H317 H 0.966 0.67186 0.63324 0.0
C318 C 0.0194 0.62815 0.64135 0.0
C319 C 0.98033 0.64266 0.65418 0.0
C320 C 0.9592 0.64258 0.67104 0.0
C321 C 0.02007 0.64524 0.6229 0.0
C322 C 0.00051 0.66103 0.61993 0.0
C323 C 0.9809 0.6596 0.63556 0.0
C324 C 0.99985 0.6787 0.60018 0.0
C325 C 0.04134 0.64584 0.60622 0.0
C326 C 0.01553 0.69835 0.60009 0.0
C327 C 0.01559 0.71437 0.58081 0.0
C328 C 1.00001 0.71092 0.5613 0.0
C329 C 0.98397 0.69149 0.56172 0.0
C330 C 0.98383 0.67557 0.58107 0.0
H331 H 0.0531 0.62993 0.60851 0.0
H332 H 0.03531 0.64668 0.58727 0.0
H333 H 0.05211 0.66216 0.6099 0.0
H334 H 0.02786 0.70115 0.61483 0.0
H335 H 0.02812 0.7292 0.581 0.0
H336 H 0.423 0.9833 0.72757 0.0
H337 H 0.38971 0.98265 0.69896 0.0
H338 H 0.42906 0.02966 0.65188 0.0
H339 H 0.46227 0.03067 0.68052 0.0
H340 H 0.38059 0.04225 0.65715 0.0
H341 H 0.39165 0.94562 0.63531 0.0
H342 H 0.38783 0.95218 0.66661 0.0
H343 H 0.41414 0.96256 0.65124 0.0
C344 C 0.4245 0.99359 0.71117 0.0
C345 C 0.44529 0.00692 0.7062 0.0
C346 C 0.40553 0.9931 0.69481 0.0
C347 C 0.40711 0.0058 0.67315 0.0
C348 C 0.42755 0.01966 0.66846 0.0
H349 H 0.33107 0.98911 0.54038 0.0
H350 H 0.35974 0.99022 0.5735 0.0
C351 C 0.44651 0.02019 0.68482 0.0
C352 C 0.38768 0.00436 0.65512 0.0
H353 H 0.35896 0.96566 0.61736 0.0
C354 C 0.37576 0.02551 0.6485 0.0
C355 C 0.38165 0.98252 0.64372 0.0
C356 C 0.39458 0.95943 0.64937 0.0
C357 C 0.35797 0.02541 0.63069 0.0
C358 C 0.35177 0.00351 0.61949 0.0
C359 C 0.36363 0.98236 0.62617 0.0
C360 C 0.33399 0.00237 0.59981 0.0
C361 C 0.34649 0.04882 0.6235 0.0
C362 C 0.30991 0.00847 0.60373 0.0
C363 C 0.29346 0.00787 0.58481 0.0
C364 C 0.30085 0.00105 0.5617 0.0
C365 C 0.32486 0.99448 0.55798 0.0
C366 C 0.34125 0.99509 0.57687 0.0
H367 H 0.35683 0.06453 0.63008 0.0
H368 H 0.34486 0.0501 0.6037 0.0
H369 H 0.32822 0.04979 0.63124 0.0
H370 H 0.30387 0.01374 0.62141 0.0
H371 H 0.27505 0.01293 0.58822 0.0
H372 H 0.04089 0.31677 0.55054 0.0
H373 H 0.04067 0.34537 0.58377 0.0
H374 H 0.97172 0.31878 0.60636 0.0
H375 H 0.9716 0.29042 0.57284 0.0
H376 H 0.97285 0.3673 0.60437 0.0
H377 H 0.05172 0.33429 0.65475 0.0
H378 H 0.05836 0.34053 0.62391 0.0
H379 H 0.03757 0.31701 0.63132 0.0
C380 C 0.02576 0.31689 0.5627 0.0
C381 C 0.00627 0.30134 0.55912 0.0
C382 C 0.02575 0.33312 0.58179 0.0
C383 C 0.00638 0.33392 0.59781 0.0
C384 C 0.98692 0.31835 0.59431 0.0
H385 H 0.00506 0.42001 0.72936 0.0
H386 H 0.0044 0.38648 0.70084 0.0
C387 C 0.98688 0.30217 0.57515 0.0
C388 C 0.00579 0.35196 0.61736 0.0
H389 H 0.03734 0.37337 0.66529 0.0
C390 C 0.98684 0.36848 0.61782 0.0
C391 C 0.02387 0.35328 0.63511 0.0
C392 C 0.0439 0.33518 0.63645 0.0
C393 C 0.98588 0.38679 0.63504 0.0
C394 C 0.00463 0.3889 0.65198 0.0
C395 C 0.02315 0.37189 0.65209 0.0
C396 C 0.00559 0.40903 0.6693 0.0
C397 C 0.96475 0.40366 0.63498 0.0
C398 C 0.00699 0.43274 0.661 0.0
C399 C 0.00733 0.45184 0.67717 0.0
C400 C 0.00647 0.44759 0.70199 0.0
C401 C 0.00566 0.42382 0.71033 0.0
C402 C 0.00529 0.40467 0.69409 0.0
H403 H 0.94902 0.39565 0.62576 0.0
H404 H 0.95946 0.40861 0.65352 0.0
H405 H 0.96969 0.42031 0.62527 0.0
H406 H 0.00777 0.43647 0.64196 0.0
H407 H 0.00812 0.46995 0.6702 0.0
H408 H 0.5672 0.03805 0.70255 0.0
H409 H 0.5987 0.03679 0.67212 0.0
H410 H 0.59065 0.96007 0.66671 0.0
H411 H 0.55887 0.9612 0.69701 0.0
H412 H 0.64238 0.01146 0.67251 0.0
H413 H 0.58389 0.98312 0.59698 0.0
H414 H 0.57205 0.99468 0.62478 0.0
H415 H 0.58259 0.96429 0.62308 0.0
C416 C 0.57212 0.0209 0.69488 0.0
C417 C 0.56049 0.99973 0.70206 0.0
C418 C 0.59013 0.02022 0.67753 0.0
C419 C 0.59676 0.99839 0.66694 0.0
C420 C 0.58548 0.97715 0.67436 0.0
H421 H 0.69962 0.96352 0.55505 0.0
H422 H 0.66995 0.9619 0.58732 0.0
C423 C 0.56744 0.97781 0.69174 0.0
C424 C 0.61558 0.99798 0.64824 0.0
H425 H 0.62544 0.9855 0.58914 0.0
C426 C 0.63871 0.0058 0.65427 0.0
C427 C 0.61068 0.99056 0.62449 0.0
C428 C 0.58593 0.98287 0.61679 0.0
C429 C 0.65717 0.00623 0.6372 0.0
C430 C 0.65221 0.99903 0.6134 0.0
C431 C 0.62915 0.99099 0.60742 0.0
C432 C 0.67061 6e-05 0.59431 0.0
C433 C 0.68188 0.01407 0.64485 0.0
C434 C 0.68064 0.02209 0.58742 0.0
C435 C 0.69757 0.02308 0.569 0.0
C436 C 0.70468 0.00205 0.55707 0.0
C437 C 0.69455 0.98002 0.56396 0.0
C438 C 0.67759 0.97905 0.58236 0.0
H439 H 0.6842 0.01295 0.6646 0.0
H440 H 0.69589 0.00295 0.63613 0.0
H441 H 0.68472 0.033 0.63941 0.0
H442 H 0.67514 0.03856 0.5961 0.0
H443 H 0.70498 0.04032 0.564 0.0
H444 H 0.44695 0.30801 0.04002 0.0
H445 H 0.41473 0.33781 0.03983 0.0
H446 H 0.41327 0.33598 0.96256 0.0
H447 H 0.44532 0.30603 0.96259 0.0
H448 H 0.41515 0.38343 0.01788 0.0
H449 H 0.3427 0.3258 0.98124 0.0
H450 H 0.37011 0.31366 0.99342 0.0
H451 H 0.36971 0.32617 0.96374 0.0
C452 C 0.43968 0.31387 0.02299 0.0
C453 C 0.44858 0.30463 0.00131 0.0
C454 C 0.4213 0.33089 0.02292 0.0
C455 C 0.41141 0.33882 0.0012 0.0
C456 C 0.42035 0.32973 0.97953 0.0
H457 H 0.30383 0.44379 0.96182 0.0
H458 H 0.33471 0.4126 0.96243 0.0
C459 C 0.43874 0.31273 0.97958 0.0
C460 C 0.39226 0.3572 0.00121 0.0
H461 H 0.33428 0.36738 0.98459 0.0
C462 C 0.39741 0.37991 0.01073 0.0
C463 C 0.36921 0.35253 0.99179 0.0
C464 C 0.36244 0.32817 0.98214 0.0
C465 C 0.38023 0.39827 0.01069 0.0
C466 C 0.35715 0.3936 0.00128 0.0
C467 C 0.35199 0.37088 0.99178 0.0
C468 C 0.33815 0.41213 0.00106 0.0
C469 C 0.3871 0.42266 0.02018 0.0
C470 C 0.32957 0.42188 0.02261 0.0
C471 C 0.31199 0.4397 0.02231 0.0
C472 C 0.30255 0.44797 0.00046 0.0
C473 C 0.31081 0.43782 0.97893 0.0
C474 C 0.32842 0.42 0.97924 0.0
H475 H 0.40686 0.425 0.02094 0.0
H476 H 0.3794 0.43715 0.0089 0.0
H477 H 0.37999 0.42474 0.03864 0.0
H478 H 0.33649 0.41569 0.03966 0.0
H479 H 0.30587 0.44708 0.03919 0.0
H480 H 0.3069 0.56277 0.96435 0.0
H481 H 0.33712 0.59453 0.96629 0.0
H482 H 0.33171 0.59525 0.04339 0.0
H483 H 0.30158 0.56334 0.04164 0.0
H484 H 0.33329 0.64117 0.98704 0.0
H485 H 0.40407 0.58613 0.03055 0.0
H486 H 0.37813 0.573 0.01633 0.0
H487 H 0.37556 0.58636 0.04551 0.0
C488 C 0.31214 0.56969 0.98172 0.0
C489 C 0.30197 0.5605 0.00286 0.0
C490 C 0.32937 0.58784 0.98279 0.0
C491 C 0.33685 0.59699 0.00499 0.0
C492 C 0.32646 0.58813 0.02611 0.0
H493 H 0.44529 0.70299 0.04292 0.0
H494 H 0.41268 0.67358 0.04384 0.0
C495 C 0.30918 0.57 0.02506 0.0
C496 C 0.35547 0.61589 0.00594 0.0
H497 H 0.41254 0.62724 0.02483 0.0
C498 C 0.35063 0.63816 0.99529 0.0
C499 C 0.37802 0.61188 0.01679 0.0
C500 C 0.38444 0.58801 0.0278 0.0
C501 C 0.36772 0.65663 0.99531 0.0
C502 C 0.39039 0.65252 0.00587 0.0
C503 C 0.39513 0.63033 0.01677 0.0
C504 C 0.40969 0.67077 0.00527 0.0
C505 C 0.36123 0.68049 0.98433 0.0
C506 C 0.41895 0.67874 0.98328 0.0
C507 C 0.43754 0.69551 0.98271 0.0
C508 C 0.4473 0.70451 0.00412 0.0
C509 C 0.43808 0.69643 0.02613 0.0
C510 C 0.41948 0.67963 0.02669 0.0
H511 H 0.34151 0.68291 0.98315 0.0
H512 H 0.3689 0.69555 0.99485 0.0
H513 H 0.3686 0.68141 0.96588 0.0
H514 H 0.41201 0.67174 0.96655 0.0
H515 H 0.44436 0.7013 0.96548 0.0
H516 H 0.56397 0.30579 0.96445 0.0
H517 H 0.59737 0.33418 0.96553 0.0
H518 H 0.59896 0.3297 0.0427 0.0
H519 H 0.56532 0.30151 0.04179 0.0
H520 H 0.59976 0.37645 0.02544 0.0
H521 H 0.668 0.32076 0.97942 0.0
H522 H 0.64046 0.32365 0.96305 0.0
H523 H 0.64064 0.30834 0.99142 0.0
C524 C 0.57152 0.31074 0.98164 0.0
C525 C 0.56208 0.3014 0.00304 0.0
C526 C 0.5907 0.32683 0.98221 0.0
C527 C 0.60089 0.33372 0.00417 0.0
C528 C 0.59145 0.32447 0.02556 0.0
H529 H 0.71095 0.43972 0.03995 0.0
H530 H 0.68152 0.40718 0.04213 0.0
C531 C 0.57225 0.30838 0.02501 0.0
C532 C 0.62067 0.35142 0.00484 0.0
H533 H 0.67735 0.36216 0.98453 0.0
C534 C 0.61683 0.37326 0.01672 0.0
C535 C 0.64288 0.34717 0.99341 0.0
C536 C 0.6484 0.32362 0.98129 0.0
C537 C 0.63434 0.39132 0.01683 0.0
C538 C 0.65641 0.38721 0.00509 0.0
C539 C 0.66039 0.36523 0.9935 0.0
C540 C 0.67524 0.40588 0.00386 0.0
C541 C 0.62874 0.41494 0.0288 0.0
C542 C 0.68202 0.41533 0.98157 0.0
C543 C 0.69891 0.43377 0.98027 0.0
C544 C 0.70937 0.44301 0.00124 0.0
C545 C 0.70308 0.43304 0.0235 0.0
C546 C 0.68619 0.41456 0.02479 0.0
H547 H 0.60925 0.41714 0.03214 0.0
H548 H 0.63812 0.41579 0.04632 0.0
H549 H 0.63506 0.4302 0.01768 0.0
H550 H 0.67385 0.40879 0.96521 0.0
H551 H 0.70344 0.44105 0.96285 0.0
H552 H 0.67952 0.54202 0.97475 0.0
H553 H 0.65012 0.57447 0.97568 0.0
H554 H 0.69881 0.61773 0.01736 0.0
H555 H 0.72851 0.58534 0.01629 0.0
H556 H 0.62936 0.59461 0.0165 0.0
H557 H 0.67801 0.663 0.96285 0.0
H558 H 0.68637 0.63172 0.96297 0.0
H559 H 0.69452 0.65075 0.98765 0.0
C560 C 0.68407 0.55852 0.98395 0.0
C561 C 0.70634 0.56118 0.99541 0.0
C562 C 0.66724 0.57701 0.98449 0.0
C563 C 0.67238 0.59857 0.99638 0.0
C564 C 0.69465 0.60138 0.00773 0.0
H565 H 0.56443 0.70297 0.03982 0.0
H566 H 0.59698 0.67355 0.03918 0.0
C567 C 0.71154 0.58284 0.0072 0.0
C568 C 0.65393 0.61762 0.99765 0.0
H569 H 0.64168 0.67526 0.98106 0.0
C570 C 0.63204 0.61226 0.00879 0.0
C571 C 0.65744 0.64052 0.98736 0.0
C572 C 0.68026 0.64688 0.97434 0.0
C573 C 0.61352 0.62923 0.00995 0.0
C574 C 0.61717 0.65228 1.00004 0.0
C575 C 0.63904 0.65763 0.98882 0.0
C576 C 0.59819 0.67083 0.0005 0.0
C577 C 0.59002 0.62212 0.02127 0.0
C578 C 0.58856 0.67953 0.97896 0.0
C579 C 0.57008 0.69642 0.97926 0.0
C580 C 0.56097 0.70496 0.00114 0.0
C581 C 0.57097 0.69658 0.02269 0.0
C582 C 0.58949 0.67972 0.02237 0.0
H583 H 0.58816 0.60234 0.02274 0.0
H584 H 0.58902 0.62977 0.03961 0.0
H585 H 0.57466 0.6292 0.01077 0.0
H586 H 0.5951 0.67295 0.9619 0.0
H587 H 0.56277 0.70261 0.96237 0.0
H588 H 0.46998 0.79436 0.93249 0.0
H589 H 0.47124 0.82294 0.8992 0.0
H590 H 0.54337 0.84266 0.91879 0.0
H591 H 0.54244 0.8137 0.95169 0.0
H592 H 0.47704 0.87098 0.90072 0.0
H593 H 0.55074 0.83061 0.84783 0.0
H594 H 0.53614 0.81489 0.87203 0.0
H595 H 0.55907 0.8367 0.87829 0.0
C596 C 0.48616 0.80466 0.92957 0.0
C597 C 0.50615 0.80173 0.9446 0.0
C598 C 0.48686 0.82097 0.91056 0.0
C599 C 0.50754 0.83463 0.90623 0.0
C600 C 0.52745 0.83186 0.92137 0.0
H601 H 0.54098 0.95635 0.81629 0.0
H602 H 0.54079 0.92391 0.84595 0.0
C603 C 0.52683 0.81543 0.94028 0.0
C604 C 0.50787 0.85256 0.88659 0.0
H605 H 0.53873 0.8702 0.83671 0.0
C606 C 0.4904 0.87068 0.88661 0.0
C607 C 0.52532 0.85213 0.86817 0.0
C608 C 0.54373 0.8324 0.86638 0.0
C609 C 0.49023 0.88866 0.86903 0.0
C610 C 0.5079 0.88844 0.85092 0.0
C611 C 0.52528 0.8703 0.85074 0.0
C612 C 0.50869 0.90714 0.83217 0.0
C613 C 0.47147 0.9081 0.87018 0.0
C614 C 0.49094 0.90808 0.81439 0.0
C615 C 0.49107 0.92646 0.79737 0.0
C616 C 0.50892 0.94424 0.79793 0.0
C617 C 0.52698 0.94293 0.81545 0.0
C618 C 0.52692 0.92443 0.83237 0.0
H619 H 0.46156 0.90794 0.88744 0.0
H620 H 0.47982 0.92601 0.86774 0.0
H621 H 0.45838 0.90546 0.85543 0.0
H622 H 0.47685 0.89473 0.81388 0.0
H623 H 0.47694 0.927 0.78407 0.0
H624 H 0.19157 0.46903 0.94792 0.0
H625 H 0.16311 0.46995 0.9146 0.0
H626 H 0.18861 0.54018 0.89456 0.0
H627 H 0.2166 0.53968 0.92834 0.0
H628 H 0.14117 0.53899 0.89507 0.0
H629 H 0.1739 0.46048 0.84409 0.0
H630 H 0.16687 0.45294 0.87453 0.0
H631 H 0.1908 0.47369 0.86831 0.0
C632 C 0.19123 0.48459 0.93629 0.0
C633 C 0.20632 0.50427 0.94069 0.0
C634 C 0.17508 0.48501 0.91713 0.0
C635 C 0.17403 0.50493 0.90176 0.0
C636 C 0.1892 0.52456 0.90609 0.0
H637 H 0.08889 0.50524 0.76951 0.0
H638 H 0.12223 0.50625 0.7982 0.0
C639 C 0.20517 0.52425 0.92539 0.0
C640 C 0.15618 0.50587 0.88204 0.0
H641 H 0.13474 0.47489 0.83374 0.0
C642 C 0.13994 0.52509 0.88153 0.0
C643 C 0.15478 0.48796 0.8641 0.0
C644 C 0.17269 0.46775 0.86259 0.0
C645 C 0.12188 0.52647 0.86409 0.0
C646 C 0.11958 0.5078 0.84706 0.0
C647 C 0.13632 0.48902 0.84702 0.0
C648 C 0.09952 0.50712 0.82963 0.0
C649 C 0.10552 0.54801 0.86403 0.0
C650 C 0.07575 0.50684 0.83779 0.0
C651 C 0.05677 0.50641 0.82151 0.0
C652 C 0.06117 0.50592 0.79671 0.0
C653 C 0.08497 0.50569 0.78852 0.0
C654 C 0.10401 0.50625 0.80487 0.0
H655 H 0.11407 0.5637 0.87285 0.0
H656 H 0.10039 0.55315 0.8455 0.0
H657 H 0.08897 0.54367 0.87415 0.0
H658 H 0.07186 0.50687 0.85681 0.0
H659 H 0.03862 0.50638 0.82838 0.0
H660 H 0.53986 0.064 0.8034 0.0
H661 H 0.5383 0.09611 0.83325 0.0
H662 H 0.46109 0.09467 0.83091 0.0
H663 H 0.4625 0.06229 0.80126 0.0
H664 H 0.51718 0.14177 0.83021 0.0
H665 H 0.47607 0.08695 0.90253 0.0
H666 H 0.48919 0.07375 0.87606 0.0
H667 H 0.45991 0.08706 0.87468 0.0
C668 C 0.52255 0.07052 0.80924 0.0
C669 C 0.50129 0.06055 0.80012 0.0
C670 C 0.52169 0.08887 0.82626 0.0
C671 C 0.49959 0.0975 0.83453 0.0
C672 C 0.47833 0.08793 0.8251 0.0
H673 H 0.46296 0.20346 0.94315 0.0
H674 H 0.46181 0.17406 0.91055 0.0
C675 C 0.47916 0.06953 0.80808 0.0
C676 C 0.49891 0.11656 0.85301 0.0
H677 H 0.48125 0.12826 0.91041 0.0
C678 C 0.50934 0.13885 0.84775 0.0
C679 C 0.48863 0.11266 0.87585 0.0
C680 C 0.47799 0.08876 0.88279 0.0
C681 C 0.50961 0.15745 0.8647 0.0
C682 C 0.49955 0.15347 0.88763 0.0
C683 C 0.48891 0.13126 0.89279 0.0
C684 C 0.50032 0.1719 0.90674 0.0
C685 C 0.52035 0.1813 0.85779 0.0
C686 C 0.52236 0.18027 0.91551 0.0
C687 C 0.52307 0.19708 0.93407 0.0
C688 C 0.50174 0.20566 0.94432 0.0
C689 C 0.47969 0.1972 0.93556 0.0
C690 C 0.479 0.18041 0.91697 0.0
H691 H 0.52108 0.18357 0.83802 0.0
H692 H 0.50996 0.19639 0.86558 0.0
H693 H 0.53894 0.18234 0.86476 0.0
H694 H 0.53904 0.17352 0.90824 0.0
H695 H 0.54032 0.20316 0.94055 0.0
H696 H 0.94089 0.54355 0.79738 0.0
H697 H 0.90779 0.54249 0.82614 0.0
H698 H 0.9024 0.46585 0.81736 0.0
H699 H 0.93558 0.46672 0.78863 0.0
H700 H 0.85931 0.52362 0.82131 0.0
H701 H 0.91363 0.47661 0.89047 0.0
H702 H 0.92695 0.49144 0.86498 0.0
H703 H 0.91284 0.46272 0.8614 0.0
C704 C 0.93253 0.52649 0.80143 0.0
C705 C 0.94091 0.50518 0.79089 0.0
C706 C 0.91362 0.52593 0.81782 0.0
C707 C 0.90291 0.50407 0.82407 0.0
C708 C 0.91069 0.48286 0.81299 0.0
H709 H 0.79971 0.46524 0.93368 0.0
H710 H 0.82756 0.46531 0.89986 0.0
C711 C 0.92955 0.4834 0.79652 0.0
C712 C 0.88416 0.5034 0.84279 0.0
H713 H 0.87301 0.48366 0.89959 0.0
C714 C 0.86223 0.51489 0.83844 0.0
C715 C 0.88813 0.492 0.86507 0.0
C716 C 0.9117 0.48013 0.87096 0.0
C717 C 0.84396 0.51501 0.85575 0.0
C718 C 0.84801 0.50378 0.87814 0.0
C719 C 0.86993 0.49221 0.88239 0.0
C720 C 0.82994 0.50398 0.89759 0.0
C721 C 0.82038 0.52679 0.84976 0.0
C722 C 0.82206 0.5257 0.90757 0.0
C723 C 0.80606 0.52572 0.92686 0.0
C724 C 0.79788 0.50399 0.93664 0.0
C725 C 0.80569 0.48227 0.92652 0.0
C726 C 0.8216 0.48228 0.90721 0.0
H727 H 0.81778 0.52844 0.83009 0.0
H728 H 0.80513 0.51653 0.85738 0.0
H729 H 0.82007 0.5451 0.85753 0.0
H730 H 0.82869 0.54265 0.9008 0.0
H731 H 0.80047 0.54272 0.93439 0.0
H732 H 0.46395 0.06502 0.20215 0.0
H733 H 0.46448 0.0963 0.17133 0.0
H734 H 0.54132 0.09018 0.16628 0.0
H735 H 0.54093 0.05873 0.1969 0.0
H736 H 0.48899 0.14073 0.17149 0.0
H737 H 0.51862 0.08226 0.09653 0.0
H738 H 0.5071 0.0704 0.12435 0.0
H739 H 0.53739 0.08119 0.12267 0.0
C740 C 0.48096 0.07032 0.19445 0.0
C741 C 0.50239 0.05935 0.20182 0.0
C742 C 0.48122 0.08819 0.17689 0.0
C743 C 0.50289 0.09527 0.16631 0.0
C744 C 0.52436 0.08463 0.17391 0.0
H745 H 0.54186 0.19808 0.0565 0.0
H746 H 0.54152 0.16801 0.08847 0.0
C747 C 0.52412 0.06677 0.19148 0.0
C748 C 0.50304 0.11398 0.14749 0.0
H749 H 0.51707 0.12401 0.08878 0.0
C750 C 0.49503 0.1371 0.15337 0.0
C751 C 0.51095 0.10912 0.1239 0.0
C752 C 0.51881 0.08436 0.11634 0.0
C753 C 0.49513 0.15565 0.13636 0.0
C754 C 0.50306 0.15079 0.11278 0.0
C755 C 0.51105 0.12766 0.10691 0.0
C756 C 0.50317 0.16941 0.09387 0.0
C757 C 0.48722 0.1804 0.1439 0.0
C758 C 0.48168 0.17998 0.0862 0.0
C759 C 0.48182 0.19717 0.06796 0.0
C760 C 0.50345 0.20395 0.057 0.0
C761 C 0.52493 0.19326 0.06465 0.0
C762 C 0.52477 0.17608 0.08288 0.0
H763 H 0.48753 0.18255 0.1637 0.0
H764 H 0.49883 0.19438 0.13577 0.0
H765 H 0.4686 0.18347 0.13767 0.0
H766 H 0.46477 0.17473 0.09413 0.0
H767 H 0.46498 0.20501 0.06234 0.0
H768 H 0.95219 0.53912 0.18632 0.0
H769 H 0.91958 0.53793 0.15709 0.0
H770 H 0.89719 0.46922 0.18469 0.0
H771 H 0.93031 0.46996 0.21347 0.0
H772 H 0.89847 0.46861 0.13727 0.0
H773 H 0.84932 0.5497 0.1662 0.0
H774 H 0.88004 0.55617 0.15943 0.0
H775 H 0.87286 0.53647 0.18399 0.0
C776 C 0.94021 0.52385 0.18627 0.0
C777 C 0.94374 0.50466 0.20221 0.0
C778 C 0.92145 0.52327 0.16967 0.0
C779 C 0.90561 0.50371 0.169 0.0
C780 C 0.90909 0.48456 0.18498 0.0
H781 H 0.77464 0.50546 0.08257 0.0
H782 H 0.80314 0.50441 0.116 0.0
C783 C 0.928 0.48501 0.20141 0.0
C784 C 0.88621 0.50265 0.15079 0.0
H785 H 0.83929 0.53419 0.12738 0.0
C786 C 0.88539 0.48285 0.13527 0.0
C787 C 0.86886 0.52101 0.14841 0.0
C788 C 0.86762 0.5419 0.16557 0.0
C789 C 0.8682 0.48126 0.11698 0.0
C790 C 0.85179 0.50032 0.11368 0.0
C791 C 0.85209 0.51975 0.12969 0.0
C792 C 0.83448 0.50066 0.09348 0.0
C793 C 0.86769 0.45904 0.10154 0.0
C794 C 0.84265 0.49923 0.06972 0.0
C795 C 0.82642 0.49961 0.05066 0.0
C796 C 0.80172 0.50181 0.05497 0.0
C797 C 0.79357 0.50368 0.07872 0.0
C798 C 0.80982 0.5031 0.09782 0.0
H799 H 0.87576 0.44344 0.11094 0.0
H800 H 0.8491 0.45431 0.09624 0.0
H801 H 0.87828 0.4623 0.08503 0.0
H802 H 0.86162 0.49802 0.06588 0.0
H803 H 0.83326 0.49838 0.03254 0.0
H804 H 0.46307 0.80928 0.05599 0.0
H805 H 0.46226 0.83978 0.08764 0.0
H806 H 0.53884 0.8337 0.09565 0.0
H807 H 0.53984 0.80337 0.06397 0.0
H808 H 0.47857 0.8361 0.13608 0.0
H809 H 0.52766 0.90611 0.08511 0.0
H810 H 0.51439 0.88025 0.07087 0.0
H811 H 0.54246 0.87753 0.0864 0.0
C812 C 0.47973 0.81447 0.06449 0.0
C813 C 0.50154 0.80404 0.05743 0.0
C814 C 0.47923 0.83186 0.08256 0.0
C815 C 0.50053 0.83921 0.09371 0.0
C816 C 0.52227 0.82857 0.08695 0.0
H817 H 0.53854 0.94218 0.20346 0.0
H818 H 0.53794 0.9104 0.17319 0.0
C819 C 0.52278 0.81117 0.06894 0.0
C820 C 0.50005 0.85788 0.11258 0.0
H821 H 0.5207 0.91383 0.12632 0.0
C822 C 0.48766 0.85316 0.13395 0.0
C823 C 0.51195 0.88007 0.10969 0.0
C824 C 0.5247 0.88647 0.08671 0.0
C825 C 0.48731 0.86988 0.15277 0.0
C826 C 0.49932 0.89204 0.14992 0.0
C827 C 0.51158 0.89679 0.12848 0.0
C828 C 0.49941 0.91061 0.16891 0.0
C829 C 0.47459 0.86346 0.17575 0.0
C830 C 0.47796 0.92134 0.17644 0.0
C831 C 0.47824 0.93946 0.19375 0.0
C832 C 0.50002 0.94728 0.20371 0.0
C833 C 0.52148 0.93649 0.19616 0.0
C834 C 0.52117 0.91836 0.17886 0.0
H835 H 0.47168 0.84382 0.17735 0.0
H836 H 0.4849 0.86971 0.1916 0.0
H837 H 0.45681 0.87235 0.17606 0.0
H838 H 0.46102 0.91596 0.16864 0.0
H839 H 0.46144 0.94755 0.19911 0.0
H840 H 0.2 0.46593 0.05764 0.0
H841 H 0.16915 0.4661 0.0888 0.0
H842 H 0.16731 0.54339 0.08671 0.0
H843 H 0.19784 0.54335 0.05522 0.0
H844 H 0.16983 0.4865 0.13384 0.0
H845 H 0.09699 0.52592 0.07878 0.0
H846 H 0.12427 0.5144 0.0658 0.0
H847 H 0.12383 0.54364 0.07939 0.0
C848 C 0.19296 0.48296 0.06377 0.0
C849 C 0.20122 0.50463 0.05389 0.0
C850 C 0.17536 0.48302 0.08158 0.0
C851 C 0.16565 0.50473 0.08979 0.0
C852 C 0.17416 0.52641 0.08025 0.0
H853 H 0.06113 0.5429 0.19818 0.0
H854 H 0.09272 0.5426 0.16774 0.0
C855 C 0.1917 0.52637 0.06236 0.0
C856 C 0.14691 0.50465 0.10863 0.0
H857 H 0.0895 0.52214 0.12051 0.0
C858 C 0.15222 0.49418 0.1309 0.0
C859 C 0.12395 0.51467 0.10473 0.0
C860 C 0.11678 0.5251 0.08082 0.0
C861 C 0.13532 0.49384 0.14953 0.0
C862 C 0.11244 0.504 0.14565 0.0
C863 C 0.10711 0.51444 0.12341 0.0
C864 C 0.09373 0.50396 0.16446 0.0
C865 C 0.14218 0.48305 0.17336 0.0
C866 C 0.08376 0.48233 0.17254 0.0
C867 C 0.06567 0.48244 0.18988 0.0
C868 C 0.05725 0.5042 0.19938 0.0
C869 C 0.0673 0.52584 0.19124 0.0
C870 C 0.08531 0.52571 0.17385 0.0
H871 H 0.16189 0.4809 0.17514 0.0
H872 H 0.13559 0.49433 0.18838 0.0
H873 H 0.13383 0.46507 0.17505 0.0
H874 H 0.08977 0.46537 0.16523 0.0
H875 H 0.0582 0.46549 0.19574 0.0
H876 H 0.80796 0.94718 0.46305 0.0
H877 H 0.83794 0.91512 0.4638 0.0
H878 H 0.83536 0.91431 0.54106 0.0
H879 H 0.80519 0.94613 0.54046 0.0
H880 H 0.88301 0.91619 0.48554 0.0
H881 H 0.82674 0.84348 0.52368 0.0
H882 H 0.81415 0.87065 0.51138 0.0
H883 H 0.82696 0.87066 0.54095 0.0
C884 C 0.81367 0.94006 0.48019 0.0
C885 C 0.80418 0.94909 0.5017 0.0
C886 C 0.83079 0.92177 0.48059 0.0
C887 C 0.8386 0.91212 0.50247 0.0
C888 C 0.82921 0.92117 0.52397 0.0
H889 H 0.94654 0.80643 0.5411 0.0
H890 H 0.91502 0.83706 0.54134 0.0
C891 C 0.81209 0.93944 0.5236 0.0
C892 C 0.85725 0.89322 0.50279 0.0
H893 H 0.86839 0.83558 0.52022 0.0
C894 C 0.87979 0.89853 0.49301 0.0
C895 C 0.853 0.87024 0.51266 0.0
C896 C 0.82885 0.86326 0.52258 0.0
C897 C 0.89833 0.88155 0.4931 0.0
C898 C 0.89407 0.85855 0.50288 0.0
C899 C 0.87157 0.85325 0.51276 0.0
C900 C 0.91269 0.83965 0.50271 0.0
C901 C 0.92248 0.88851 0.48311 0.0
C902 C 0.92146 0.8307 0.48092 0.0
C903 C 0.93941 0.81325 0.48072 0.0
C904 C 0.94882 0.80437 0.50234 0.0
C905 C 0.93967 0.81301 0.52417 0.0
C906 C 0.92168 0.83046 0.52434 0.0
H907 H 0.92457 0.90829 0.48193 0.0
H908 H 0.93719 0.88119 0.49434 0.0
H909 H 0.92437 0.88102 0.46478 0.0
H910 H 0.91443 0.83724 0.46404 0.0
H911 H 0.946 0.80685 0.46363 0.0
H912 H 0.95195 0.19638 0.53798 0.0
H913 H 0.91978 0.16648 0.53742 0.0
H914 H 0.90817 0.18015 0.46224 0.0
H915 H 0.94034 0.21002 0.46261 0.0
H916 H 0.8702 0.173 0.5231 0.0
H917 H 0.91851 0.10637 0.46687 0.0
H918 H 0.93368 0.13054 0.48218 0.0
H919 H 0.91726 0.13636 0.45511 0.0
C920 C 0.94254 0.19302 0.52133 0.0
C921 C 0.94873 0.20545 0.50031 0.0
C922 C 0.92417 0.17597 0.52106 0.0
C923 C 0.91184 0.17093 0.49973 0.0
C924 C 0.91774 0.18355 0.47879 0.0
H925 H 0.80156 0.06737 0.46212 0.0
H926 H 0.83131 0.09966 0.46198 0.0
C927 C 0.93604 0.20066 0.47906 0.0
C928 C 0.89273 0.15251 0.49944 0.0
H929 H 0.87821 0.09769 0.47641 0.0
C930 C 0.87191 0.1565 0.51294 0.0
C931 C 0.89506 0.13109 0.48609 0.0
C932 C 0.91738 0.12562 0.47186 0.0
C933 C 0.85316 0.13971 0.51321 0.0
C934 C 0.85558 0.11814 0.50005 0.0
C935 C 0.87638 0.11424 0.48646 0.0
C936 C 0.83692 0.09919 0.50036 0.0
C937 C 0.83075 0.14545 0.5272 0.0
C938 C 0.83032 0.0881 0.52197 0.0
C939 C 0.81327 0.06975 0.52211 0.0
C940 C 0.80268 0.06197 0.50061 0.0
C941 C 0.80937 0.07303 0.47898 0.0
C942 C 0.82637 0.09145 0.47887 0.0
H943 H 0.82889 0.16503 0.53036 0.0
H944 H 0.81451 0.13894 0.51772 0.0
H945 H 0.83164 0.13647 0.54493 0.0
H946 H 0.83864 0.09339 0.5387 0.0
H947 H 0.80861 0.06144 0.53903 0.0
H948 H 0.04803 0.82688 0.47636 0.0
H949 H 0.08185 0.85471 0.4778 0.0
H950 H 0.12169 0.80432 0.52082 0.0
H951 H 0.08777 0.77645 0.5197 0.0
H952 H 0.12184 0.85041 0.5394 0.0
H953 H 0.14624 0.85138 0.44312 0.0
H954 H 0.11512 0.85752 0.44838 0.0
H955 H 0.12719 0.82861 0.45603 0.0
C956 C 0.06408 0.82162 0.48592 0.0
C957 C 0.06529 0.79947 0.49787 0.0
C958 C 0.08344 0.83748 0.48662 0.0
C959 C 0.1044 0.83143 0.49912 0.0
C960 C 0.10572 0.80925 0.51094 0.0
H961 H 0.23418 0.9192 0.4916 0.0
H962 H 0.20635 0.88519 0.49109 0.0
C963 C 0.08636 0.79336 0.51026 0.0
C964 C 0.12439 0.84882 0.50091 0.0
H965 H 0.16266 0.88273 0.46733 0.0
C966 C 0.13095 0.85731 0.52367 0.0
C967 C 0.13645 0.85755 0.4804 0.0
C968 C 0.13108 0.84814 0.45561 0.0
C969 C 0.14866 0.87497 0.5264 0.0
C970 C 0.15982 0.8846 0.50579 0.0
C971 C 0.1539 0.87547 0.4831 0.0
C972 C 0.17706 0.90476 0.50727 0.0
C973 C 0.15524 0.88316 0.55133 0.0
C974 C 0.16976 0.92701 0.51647 0.0
C975 C 0.18559 0.9464 0.51681 0.0
C976 C 0.20896 0.94394 0.5078 0.0
C977 C 0.2163 0.9216 0.49874 0.0
C978 C 0.20044 0.90219 0.4984 0.0
H979 H 0.15043 0.86951 0.56502 0.0
H980 H 0.17471 0.88702 0.55272 0.0
H981 H 0.14528 0.89984 0.55557 0.0
H982 H 0.15164 0.92952 0.52294 0.0
H983 H 0.17937 0.96344 0.52376 0.0
H984 H 0.07684 0.21649 0.53343 0.0
H985 H 0.11004 0.18783 0.53247 0.0
H986 H 0.08773 0.16419 0.46229 0.0
H987 H 0.05481 0.19312 0.46294 0.0
H988 H 0.10747 0.13901 0.52894 0.0
H989 H 0.15877 0.17582 0.45221 0.0
H990 H 0.13533 0.19248 0.46701 0.0
H991 H 0.12796 0.16983 0.44526 0.0
C992 C 0.07914 0.20532 0.51772 0.0
C993 C 0.06329 0.2071 0.49822 0.0
C994 C 0.0981 0.18896 0.51719 0.0
C995 C 0.10159 0.17415 0.49715 0.0
C996 C 0.08573 0.17585 0.47769 0.0
H997 H 0.19186 0.05236 0.46493 0.0
H998 H 0.16252 0.08504 0.46454 0.0
C999 C 0.06683 0.19227 0.47816 0.0
C1000 C 0.12109 0.1561 0.49713 0.0
H1001 H 0.1702 0.13698 0.46599 0.0
C1002 C 0.12131 0.13869 0.5153 0.0
C1003 C 0.1391 0.1557 0.47927 0.0
C1004 C 0.14048 0.17459 0.45996 0.0
C1005 C 0.13873 0.12057 0.51582 0.0
C1006 C 0.15655 0.12003 0.49783 0.0
C1007 C 0.15645 0.13747 0.47972 0.0
C1008 C 0.17522 0.10121 0.49742 0.0
C1009 C 0.13761 0.10179 0.53526 0.0
C1010 C 0.19236 0.09987 0.51576 0.0
C1011 C 0.20916 0.08129 0.51601 0.0
C1012 C 0.20908 0.06377 0.49789 0.0
C1013 C 0.19231 0.06557 0.47917 0.0
C1014 C 0.17557 0.08421 0.4789 0.0
H1015 H 0.12007 0.10184 0.54468 0.0
H1016 H 0.14076 0.08363 0.52771 0.0
H1017 H 0.15184 0.1054 0.54868 0.0
H1018 H 0.19256 0.11304 0.53003 0.0
H1019 H 0.22192 0.08042 0.53062 0.0
loop_
_geom_bond_atom_site_label_1
_geom_bond_atom_site_label_2
_geom_bond_distance
_geom_bond_site_symmetry_2
_ccdc_geom_bond_type
In0 O1 2.294 1_455 S
In0 O2 2.326 1_455 S
In0 O6 2.266 1_455 S
In0 O7 2.326 . S
In0 O8 2.266 . S
In0 O9 2.326 1_455 S
In0 O11 2.294 . S
In0 O12 2.326 . S
O1 In0 2.294 1_655 S
O1 C10 1.240 . S
O2 In0 2.326 1_655 S
O2 C10 1.252 . S
C3 O6 1.252 1_455 S
C3 O7 1.260 . S
C4 O11 1.240 . S
C4 O12 1.252 . S
C5 O8 1.252 1_655 S
C5 O9 1.260 . S
O6 In0 2.266 1_655 S
O6 C3 1.252 1_655 S
O7 In0 2.326 . S
O7 C3 1.260 . S
O8 In0 2.266 . S
O8 C5 1.252 1_455 S
O9 In0 2.326 1_655 S
O9 C5 1.260 . S
C10 O1 1.240 . S
C10 O2 1.252 . S
O11 In0 2.294 . S
O11 C4 1.240 . S
O12 In0 2.326 . S
O12 C4 1.252 . S
In13 O14 2.294 1_545 S
In13 O15 2.326 . S
In13 O19 2.266 1_545 S
In13 O20 2.326 1_545 S
In13 O21 2.266 . S
In13 O22 2.326 . S
In13 O24 2.294 . S
In13 O25 2.326 1_545 S
O14 In13 2.294 1_565 S
O14 C23 1.240 1_565 S
O15 In13 2.326 . S
O15 C23 1.252 . S
C16 O19 1.252 . S
C16 O20 1.260 . S
C17 O24 1.240 1_565 S
C17 O25 1.252 . S
C18 O21 1.252 . S
C18 O22 1.260 . S
O19 In13 2.266 1_565 S
O19 C16 1.252 . S
O20 In13 2.326 1_565 S
O20 C16 1.260 . S
O21 In13 2.266 . S
O21 C18 1.252 . S
O22 In13 2.326 . S
O22 C18 1.260 . S
C23 O14 1.240 1_545 S
C23 O15 1.252 . S
O24 In13 2.294 . S
O24 C17 1.240 1_545 S
O25 In13 2.326 1_565 S
O25 C17 1.252 . S
In26 O27 2.294 . S
In26 O28 2.326 1_455 S
In26 O32 2.266 . S
In26 O33 2.326 . S
In26 O34 2.266 1_455 S
In26 O35 2.326 1_455 S
In26 O37 2.294 1_455 S
In26 O38 2.326 . S
O27 In26 2.294 . S
O27 C36 1.240 1_455 S
O28 In26 2.326 1_655 S
O28 C36 1.252 . S
C29 O32 1.252 . S
C29 O33 1.260 . S
C30 O37 1.240 1_455 S
C30 O38 1.252 . S
C31 O34 1.252 . S
C31 O35 1.260 . S
O32 In26 2.266 . S
O32 C29 1.252 . S
O33 In26 2.326 . S
O33 C29 1.260 . S
O34 In26 2.266 1_655 S
O34 C31 1.252 . S
O35 In26 2.326 1_655 S
O35 C31 1.260 . S
C36 O27 1.240 1_655 S
C36 O28 1.252 . S
O37 In26 2.294 1_655 S
O37 C30 1.240 1_655 S
O38 In26 2.326 . S
O38 C30 1.252 . S
In39 O40 2.294 1_545 S
In39 O41 2.326 1_545 S
In39 O45 2.266 1_545 S
In39 O46 2.326 . S
In39 O47 2.266 . S
In39 O48 2.326 1_545 S
In39 O50 2.294 . S
In39 O51 2.326 . S
O40 In39 2.294 1_565 S
O40 C49 1.240 . S
O41 In39 2.326 1_565 S
O41 C49 1.252 . S
C42 O45 1.252 1_545 S
C42 O46 1.260 . S
C43 O50 1.240 . S
C43 O51 1.252 . S
C44 O47 1.252 1_565 S
C44 O48 1.260 . S
O45 In39 2.266 1_565 S
O45 C42 1.252 1_565 S
O46 In39 2.326 . S
O46 C42 1.260 . S
O47 In39 2.266 . S
O47 C44 1.252 1_545 S
O48 In39 2.326 1_565 S
O48 C44 1.260 . S
C49 O40 1.240 . S
C49 O41 1.252 . S
O50 In39 2.294 . S
O50 C43 1.240 . S
O51 In39 2.326 . S
O51 C43 1.252 . S
In52 O53 2.294 1_545 S
In52 O54 2.326 . S
In52 O58 2.266 1_545 S
In52 O59 2.326 1_545 S
In52 O60 2.266 . S
In52 O61 2.326 . S
In52 O63 2.294 . S
In52 O64 2.326 1_545 S
O53 In52 2.294 1_565 S
O53 C62 1.240 1_565 S
O54 In52 2.326 . S
O54 C62 1.252 . S
C55 O58 1.252 . S
C55 O59 1.260 . S
C56 O63 1.240 1_565 S
C56 O64 1.252 . S
C57 O60 1.252 . S
C57 O61 1.260 . S
O58 In52 2.266 1_565 S
O58 C55 1.252 . S
O59 In52 2.326 1_565 S
O59 C55 1.260 . S
O60 In52 2.266 . S
O60 C57 1.252 . S
O61 In52 2.326 . S
O61 C57 1.260 . S
C62 O53 1.240 1_545 S
C62 O54 1.252 . S
O63 In52 2.294 . S
O63 C56 1.240 1_545 S
O64 In52 2.326 1_565 S
O64 C56 1.252 . S
In65 O66 2.294 1_455 S
In65 O67 2.326 1_455 S
In65 O71 2.266 1_455 S
In65 O72 2.326 . S
In65 O73 2.266 . S
In65 O74 2.326 1_455 S
In65 O76 2.294 . S
In65 O77 2.326 . S
O66 In65 2.294 1_655 S
O66 C75 1.240 . S
O67 In65 2.326 1_655 S
O67 C75 1.252 . S
C68 O71 1.252 1_455 S
C68 O72 1.260 . S
C69 O76 1.240 . S
C69 O77 1.252 . S
C70 O73 1.252 1_655 S
C70 O74 1.260 . S
O71 In65 2.266 1_655 S
O71 C68 1.252 1_655 S
O72 In65 2.326 . S
O72 C68 1.260 . S
O73 In65 2.266 . S
O73 C70 1.252 1_455 S
O74 In65 2.326 1_655 S
O74 C70 1.260 . S
C75 O66 1.240 . S
C75 O67 1.252 . S
O76 In65 2.294 . S
O76 C69 1.240 . S
O77 In65 2.326 . S
O77 C69 1.252 . S
In78 O79 2.294 . S
In78 O80 2.326 1_545 S
In78 O84 2.266 . S
In78 O85 2.326 . S
In78 O86 2.266 1_545 S
In78 O87 2.326 1_545 S
In78 O89 2.294 1_545 S
In78 O90 2.326 . S
O79 In78 2.294 . S
O79 C88 1.240 1_545 S
O80 In78 2.326 1_565 S
O80 C88 1.252 . S
C81 O84 1.252 . S
C81 O85 1.260 . S
C82 O89 1.240 1_545 S
C82 O90 1.252 . S
C83 O86 1.252 . S
C83 O87 1.260 . S
O84 In78 2.266 . S
O84 C81 1.252 . S
O85 In78 2.326 . S
O85 C81 1.260 . S
O86 In78 2.266 1_565 S
O86 C83 1.252 . S
O87 In78 2.326 1_565 S
O87 C83 1.260 . S
C88 O79 1.240 1_565 S
C88 O80 1.252 . S
O89 In78 2.294 1_565 S
O89 C82 1.240 1_565 S
O90 In78 2.326 . S
O90 C82 1.252 . S
In91 O92 2.294 . S
In91 O93 2.326 . S
In91 O97 2.266 . S
In91 O98 2.326 1_455 S
In91 O99 2.266 1_455 S
In91 O100 2.326 . S
In91 O102 2.294 1_455 S
In91 O103 2.326 1_455 S
O92 In91 2.294 . S
O92 C101 1.240 . S
O93 In91 2.326 . S
O93 C101 1.252 . S
C94 O97 1.252 1_655 S
C94 O98 1.260 . S
C95 O102 1.240 . S
C95 O103 1.252 . S
C96 O99 1.252 1_455 S
C96 O100 1.260 . S
O97 In91 2.266 . S
O97 C94 1.252 1_455 S
O98 In91 2.326 1_655 S
O98 C94 1.260 . S
O99 In91 2.266 1_655 S
O99 C96 1.252 1_655 S
O100 In91 2.326 . S
O100 C96 1.260 . S
C101 O92 1.240 . S
C101 O93 1.252 . S
O102 In91 2.294 1_655 S
O102 C95 1.240 . S
O103 In91 2.326 1_655 S
O103 C95 1.252 . S
In104 O105 2.299 . S
In104 O106 2.329 . S
In104 O110 2.268 . S
In104 O111 2.322 1_554 S
In104 O112 2.264 1_554 S
In104 O113 2.329 . S
In104 O115 2.289 1_554 S
In104 O116 2.324 1_554 S
O105 In104 2.299 . S
O105 C114 1.240 . S
O106 In104 2.329 . S
O106 C114 1.252 . S
C107 O110 1.252 1_556 S
C107 O111 1.260 . S
C108 O115 1.240 . S
C108 O116 1.252 . S
C109 O112 1.252 1_554 S
C109 O113 1.260 . S
O110 In104 2.268 . S
O110 C107 1.252 1_554 S
O111 In104 2.322 1_556 S
O111 C107 1.260 . S
O112 In104 2.264 1_556 S
O112 C109 1.252 1_556 S
O113 In104 2.329 . S
O113 C109 1.260 . S
C114 O105 1.240 . S
C114 O106 1.252 . S
O115 In104 2.289 1_556 S
O115 C108 1.240 . S
O116 In104 2.324 1_556 S
O116 C108 1.252 . S
In117 O118 2.301 . S
In117 O119 2.330 . S
In117 O123 2.269 . S
In117 O124 2.320 1_554 S
In117 O125 2.264 1_554 S
In117 O126 2.331 . S
In117 O128 2.286 1_554 S
In117 O129 2.323 1_554 S
O118 In117 2.301 . S
O118 C127 1.240 . S
O119 In117 2.330 . S
O119 C127 1.252 . S
C120 O123 1.252 1_556 S
C120 O124 1.260 . S
C121 O128 1.240 . S
C121 O129 1.252 . S
C122 O125 1.252 1_554 S
C122 O126 1.260 . S
O123 In117 2.269 . S
O123 C120 1.252 1_554 S
O124 In117 2.320 1_556 S
O124 C120 1.260 . S
O125 In117 2.264 1_556 S
O125 C122 1.252 1_556 S
O126 In117 2.331 . S
O126 C122 1.260 . S
C127 O118 1.240 . S
C127 O119 1.252 . S
O128 In117 2.286 1_556 S
O128 C121 1.240 . S
O129 In117 2.323 1_556 S
O129 C121 1.252 . S
In130 O131 2.291 1_554 S
In130 O132 2.331 . S
In130 O136 2.259 1_554 S
In130 O137 2.322 1_554 S
In130 O138 2.274 . S
In130 O139 2.329 . S
In130 O141 2.297 . S
In130 O142 2.321 1_554 S
O131 In130 2.291 1_556 S
O131 C140 1.240 1_556 S
O132 In130 2.331 . S
O132 C140 1.252 . S
C133 O136 1.252 . S
C133 O137 1.260 . S
C134 O141 1.240 1_556 S
C134 O142 1.252 . S
C135 O138 1.252 . S
C135 O139 1.260 . S
O136 In130 2.259 1_556 S
O136 C133 1.252 . S
O137 In130 2.322 1_556 S
O137 C133 1.260 . S
O138 In130 2.274 . S
O138 C135 1.252 . S
O139 In130 2.329 . S
O139 C135 1.260 . S
C140 O131 1.240 1_554 S
C140 O132 1.252 . S
O141 In130 2.297 . S
O141 C134 1.240 1_554 S
O142 In130 2.321 1_556 S
O142 C134 1.252 . S
In143 O144 2.296 . S
In143 O145 2.323 1_554 S
In143 O149 2.272 . S
In143 O150 2.328 . S
In143 O151 2.261 1_554 S
In143 O152 2.323 1_554 S
In143 O154 2.292 1_554 S
In143 O155 2.330 . S
O144 In143 2.296 . S
O144 C153 1.240 1_554 S
O145 In143 2.323 1_556 S
O145 C153 1.252 . S
C146 O149 1.252 . S
C146 O150 1.260 . S
C147 O154 1.240 1_554 S
C147 O155 1.252 . S
C148 O151 1.252 . S
C148 O152 1.260 . S
O149 In143 2.272 . S
O149 C146 1.252 . S
O150 In143 2.328 . S
O150 C146 1.260 . S
O151 In143 2.261 1_556 S
O151 C148 1.252 . S
O152 In143 2.323 1_556 S
O152 C148 1.260 . S
C153 O144 1.240 1_556 S
C153 O145 1.252 . S
O154 In143 2.292 1_556 S
O154 C147 1.240 1_556 S
O155 In143 2.330 . S
O155 C147 1.252 . S
H156 C164 0.929 . S
H157 C166 0.930 . S
H158 C168 0.930 . S
H159 C171 0.929 . S
H160 C174 0.930 . S
H161 C176 0.960 . S
H162 C176 0.960 . S
H163 C176 0.960 1_455 S
C164 H156 0.929 . S
C164 C165 1.377 . S
C164 C166 1.384 . S
C165 C164 1.377 . S
C165 C171 1.390 1_655 S
C166 H157 0.930 . S
C166 C164 1.384 . S
C166 C167 1.372 . S
C167 C166 1.372 . S
C167 C168 1.400 1_655 S
C167 C172 1.488 1_655 S
C168 H158 0.930 . S
C168 C167 1.400 1_455 S
C168 C171 1.386 . S
H169 C185 0.930 . S
H170 C186 0.931 . S
C171 H159 0.929 . S
C171 C165 1.390 1_455 S
C171 C168 1.386 . S
C172 C167 1.488 1_455 S
C172 C174 1.397 . S
C172 C175 1.402 1_455 S
H173 C179 0.930 . S
C174 H160 0.930 . S
C174 C172 1.397 . S
C174 C177 1.403 . S
C175 C172 1.402 1_655 S
C175 C176 1.528 . S
C175 C179 1.397 1_655 S
C176 H161 0.960 . S
C176 H162 0.960 . S
C176 H163 0.960 1_655 S
C176 C175 1.528 . S
C177 C174 1.403 . S
C177 C178 1.392 . S
C177 C181 1.495 . S
C178 C177 1.392 . S
C178 C179 1.385 . S
C178 C180 1.478 . S
C179 H173 0.930 . S
C179 C175 1.397 1_455 S
C179 C178 1.385 . S
C180 C178 1.478 . S
C180 C182 1.381 1_455 S
C180 C186 1.383 . S
C181 C177 1.495 . S
C181 H187 0.959 . S
C181 H188 0.961 . S
C181 H189 0.960 1_455 S
C182 C180 1.381 1_655 S
C182 C183 1.394 . S
C182 H190 0.930 . S
C183 C182 1.394 . S
C183 C184 1.383 1_655 S
C183 H191 0.929 . S
C184 C183 1.383 1_455 S
C184 C185 1.377 . S
C185 H169 0.930 . S
C185 C184 1.377 . S
C185 C186 1.379 . S
C186 H170 0.931 . S
C186 C180 1.383 . S
C186 C185 1.379 . S
H187 C181 0.959 . S
H188 C181 0.961 . S
H189 C181 0.960 1_655 S
H190 C182 0.930 . S
H191 C183 0.929 . S
H192 C200 0.929 . S
H193 C202 0.930 . S
H194 C204 0.930 . S
H195 C207 0.929 . S
H196 C210 0.930 . S
H197 C212 0.960 . S
H198 C212 0.960 1_545 S
H199 C212 0.960 . S
C200 H192 0.929 . S
C200 C201 1.377 1_545 S
C200 C202 1.384 . S
C201 C200 1.377 1_565 S
C201 C207 1.390 . S
C202 H193 0.930 . S
C202 C200 1.384 . S
C202 C203 1.410 . S
C203 C202 1.410 . S
C203 C204 1.357 1_545 S
C203 C208 1.495 . S
C204 H194 0.930 . S
C204 C203 1.357 1_565 S
C204 C207 1.386 . S
H205 C221 0.930 . S
H206 C222 0.931 . S
C207 H195 0.929 . S
C207 C201 1.390 . S
C207 C204 1.386 . S
C208 C203 1.495 . S
C208 C210 1.395 . S
C208 C211 1.397 1_545 S
H209 C215 0.930 1_565 S
C210 H196 0.930 . S
C210 C208 1.395 . S
C210 C213 1.403 . S
C211 C208 1.397 1_565 S
C211 C212 1.533 . S
C211 C215 1.397 1_565 S
C212 H197 0.960 . S
C212 H198 0.960 1_565 S
C212 H199 0.960 . S
C212 C211 1.533 . S
C213 C210 1.403 . S
C213 C214 1.392 . S
C213 C217 1.495 . S
C214 C213 1.392 . S
C214 C215 1.385 . S
C214 C216 1.478 . S
C215 H209 0.930 1_545 S
C215 C211 1.397 1_545 S
C215 C214 1.385 . S
C216 C214 1.478 . S
C216 C218 1.381 . S
C216 C222 1.383 1_545 S
C217 C213 1.495 . S
C217 H223 0.959 . S
C217 H224 0.961 . S
C217 H225 0.960 . S
C218 C216 1.381 . S
C218 C219 1.394 . S
C218 H226 0.930 . S
C219 C218 1.394 . S
C219 C220 1.383 . S
C219 H227 0.929 . S
C220 C219 1.383 . S
C220 C221 1.377 1_545 S
C221 H205 0.930 . S
C221 C220 1.377 1_565 S
C221 C222 1.379 . S
C222 H206 0.931 . S
C222 C216 1.383 1_565 S
C222 C221 1.379 . S
H223 C217 0.959 . S
H224 C217 0.961 . S
H225 C217 0.960 . S
H226 C218 0.930 . S
H227 C219 0.929 . S
H228 C236 0.929 . S
H229 C238 0.930 . S
H230 C240 0.930 . S
H231 C243 0.929 . S
H232 C246 0.930 . S
H233 C248 0.960 . S
H234 C248 0.960 . S
H235 C248 0.960 . S
C236 H228 0.929 . S
C236 C237 1.377 1_455 S
C236 C238 1.384 . S
C237 C236 1.377 1_655 S
C237 C243 1.390 . S
C238 H229 0.930 . S
C238 C236 1.384 . S
C238 C239 1.384 . S
C239 C238 1.384 . S
C239 C240 1.386 1_455 S
C239 C244 1.492 . S
C240 H230 0.930 . S
C240 C239 1.386 1_655 S
C240 C243 1.386 . S
H241 C257 0.930 . S
H242 C258 0.931 . S
C243 H231 0.929 . S
C243 C237 1.390 . S
C243 C240 1.386 . S
C244 C239 1.492 . S
C244 C246 1.395 1_455 S
C244 C247 1.403 . S
H245 C251 0.930 . S
C246 H232 0.930 . S
C246 C244 1.395 1_655 S
C246 C249 1.403 . S
C247 C244 1.403 . S
C247 C248 1.524 . S
C247 C251 1.400 . S
C248 H233 0.960 . S
C248 H234 0.960 . S
C248 H235 0.960 . S
C248 C247 1.524 . S
C249 C246 1.403 . S
C249 C250 1.392 1_655 S
C249 C253 1.495 . S
C250 C249 1.392 1_455 S
C250 C251 1.385 . S
C250 C252 1.478 . S
C251 H245 0.930 . S
C251 C247 1.400 . S
C251 C250 1.385 . S
C252 C250 1.478 . S
C252 C254 1.381 . S
C252 C258 1.383 1_455 S
C253 C249 1.495 . S
C253 H259 0.959 . S
C253 H260 0.961 . S
C253 H261 0.960 . S
C254 C252 1.381 . S
C254 C255 1.394 . S
C254 H262 0.930 . S
C255 C254 1.394 . S
C255 C256 1.383 . S
C255 H263 0.929 . S
C256 C255 1.383 . S
C256 C257 1.377 1_455 S
C257 H241 0.930 . S
C257 C256 1.377 1_655 S
C257 C258 1.379 . S
C258 H242 0.931 . S
C258 C252 1.383 1_655 S
C258 C257 1.379 . S
H259 C253 0.959 . S
H260 C253 0.961 . S
H261 C253 0.960 . S
H262 C254 0.930 . S
H263 C255 0.929 . S
H264 C272 0.929 . S
H265 C274 0.930 . S
H266 C276 0.930 . S
H267 C279 0.929 . S
H268 C282 0.930 . S
H269 C284 0.960 . S
H270 C284 0.960 . S
H271 C284 0.960 . S
C272 H264 0.929 . S
C272 C273 1.377 . S
C272 C274 1.384 . S
C273 C272 1.377 . S
C273 C279 1.390 1_545 S
C274 H265 0.930 . S
C274 C272 1.384 . S
C274 C275 1.372 . S
C275 C274 1.372 . S
C275 C276 1.400 1_545 S
C275 C280 1.490 . S
C276 H266 0.930 . S
C276 C275 1.400 1_565 S
C276 C279 1.386 . S
H277 C293 0.930 . S
H278 C294 0.931 . S
C279 H267 0.929 . S
C279 C273 1.390 1_565 S
C279 C276 1.386 . S
C280 C275 1.490 . S
C280 C282 1.395 . S
C280 C283 1.403 1_545 S
H281 C287 0.930 . S
C282 H268 0.930 . S
C282 C280 1.395 . S
C282 C285 1.403 . S
C283 C280 1.403 1_565 S
C283 C284 1.524 . S
C283 C287 1.400 . S
C284 H269 0.960 . S
C284 H270 0.960 . S
C284 H271 0.960 . S
C284 C283 1.524 . S
C285 C282 1.403 . S
C285 C286 1.392 . S
C285 C289 1.495 . S
C286 C285 1.392 . S
C286 C287 1.385 1_545 S
C286 C288 1.478 . S
C287 H281 0.930 . S
C287 C283 1.400 . S
C287 C286 1.385 1_565 S
C288 C286 1.478 . S
C288 C290 1.381 . S
C288 C294 1.383 1_545 S
C289 C285 1.495 . S
C289 H295 0.959 . S
C289 H296 0.961 . S
C289 H297 0.960 . S
C290 C288 1.381 . S
C290 C291 1.394 . S
C290 H298 0.930 . S
C291 C290 1.394 . S
C291 C292 1.383 1_545 S
C291 H299 0.929 . S
C292 C291 1.383 1_565 S
C292 C293 1.377 . S
C293 H277 0.930 . S
C293 C292 1.377 . S
C293 C294 1.379 . S
C294 H278 0.931 . S
C294 C288 1.383 1_565 S
C294 C293 1.379 . S
H295 C289 0.959 . S
H296 C289 0.961 . S
H297 C289 0.960 . S
H298 C290 0.930 . S
H299 C291 0.929 . S
H300 C308 0.929 . S
H301 C310 0.930 . S
H302 C312 0.930 . S
H303 C315 0.928 . S
H304 C318 0.930 . S
H305 C320 0.960 . S
H306 C320 0.960 . S
H307 C320 0.960 . S
C308 H300 0.929 . S
C308 C309 1.377 . S
C308 C310 1.384 . S
C309 C308 1.377 . S
C309 C315 1.391 1_455 S
C310 H301 0.930 . S
C310 C308 1.384 . S
C310 C311 1.372 . S
C311 C310 1.372 . S
C311 C312 1.400 1_455 S
C311 C316 1.490 . S
C312 H302 0.930 . S
C312 C311 1.400 1_655 S
C312 C315 1.385 . S
H313 C329 0.930 . S
H314 C330 0.931 . S
C315 H303 0.928 . S
C315 C309 1.391 1_655 S
C315 C312 1.385 . S
C316 C311 1.490 . S
C316 C318 1.395 . S
C316 C319 1.403 1_455 S
H317 C323 0.930 . S
C318 H304 0.930 . S
C318 C316 1.395 . S
C318 C321 1.403 . S
C319 C316 1.403 1_655 S
C319 C320 1.524 . S
C319 C323 1.400 . S
C320 H305 0.960 . S
C320 H306 0.960 . S
C320 H307 0.960 . S
C320 C319 1.524 . S
C321 C318 1.403 . S
C321 C322 1.392 . S
C321 C325 1.495 . S
C322 C321 1.392 . S
C322 C323 1.385 1_455 S
C322 C324 1.478 . S
C323 H317 0.930 . S
C323 C319 1.400 . S
C323 C322 1.385 1_655 S
C324 C322 1.478 . S
C324 C326 1.381 . S
C324 C330 1.383 1_455 S
C325 C321 1.495 . S
C325 H331 0.959 . S
C325 H332 0.961 . S
C325 H333 0.960 . S
C326 C324 1.381 . S
C326 C327 1.394 . S
C326 H334 0.930 . S
C327 C326 1.394 . S
C327 C328 1.383 1_455 S
C327 H335 0.929 . S
C328 C327 1.383 1_655 S
C328 C329 1.377 . S
C329 H313 0.930 . S
C329 C328 1.377 . S
C329 C330 1.379 . S
C330 H314 0.931 . S
C330 C324 1.383 1_655 S
C330 C329 1.379 . S
H331 C325 0.959 . S
H332 C325 0.961 . S
H333 C325 0.960 . S
H334 C326 0.930 . S
H335 C327 0.929 . S
H336 C344 0.929 . S
H337 C346 0.930 . S
H338 C348 0.930 1_565 S
H339 C351 0.918 1_565 S
H340 C354 0.930 . S
H341 C356 0.960 . S
H342 C356 0.960 . S
H343 C356 0.960 . S
C344 H336 0.929 . S
C344 C345 1.377 . S
C344 C346 1.384 . S
C345 C344 1.377 . S
C345 C351 1.390 . S
C346 H337 0.930 . S
C346 C344 1.384 . S
C346 C347 1.372 . S
C347 C346 1.372 . S
C347 C348 1.400 . S
C347 C352 1.490 . S
C348 H338 0.930 1_545 S
C348 C347 1.400 . S
C348 C351 1.386 . S
H349 C365 0.930 . S
H350 C366 0.931 . S
C351 H339 0.918 1_545 S
C351 C345 1.390 . S
C351 C348 1.386 . S
C352 C347 1.490 . S
C352 C354 1.395 . S
C352 C355 1.403 1_545 S
H353 C359 0.930 . S
C354 H340 0.930 . S
C354 C352 1.395 . S
C354 C357 1.403 . S
C355 C352 1.403 1_565 S
C355 C356 1.524 . S
C355 C359 1.400 . S
C356 H341 0.960 . S
C356 H342 0.960 . S
C356 H343 0.960 . S
C356 C355 1.524 . S
C357 C354 1.403 . S
C357 C358 1.392 . S
C357 C361 1.495 . S
C358 C357 1.392 . S
C358 C359 1.385 1_545 S
C358 C360 1.478 . S
C359 H353 0.930 . S
C359 C355 1.400 . S
C359 C358 1.385 1_565 S
C360 C358 1.478 . S
C360 C362 1.381 . S
C360 C366 1.383 1_545 S
C361 C357 1.495 . S
C361 H367 0.959 . S
C361 H368 0.961 . S
C361 H369 0.960 . S
C362 C360 1.381 . S
C362 C363 1.394 . S
C362 H370 0.930 . S
C363 C362 1.394 . S
C363 C364 1.383 1_545 S
C363 H371 0.929 . S
C364 C363 1.383 1_565 S
C364 C365 1.377 . S
C365 H349 0.930 . S
C365 C364 1.377 . S
C365 C366 1.379 . S
C366 H350 0.931 . S
C366 C360 1.383 1_565 S
C366 C365 1.379 . S
H367 C361 0.959 . S
H368 C361 0.961 . S
H369 C361 0.960 . S
H370 C362 0.930 . S
H371 C363 0.929 . S
H372 C380 0.929 . S
H373 C382 0.930 . S
H374 C384 0.930 . S
H375 C387 0.929 . S
H376 C390 0.930 . S
H377 C392 0.960 . S
H378 C392 0.960 . S
H379 C392 0.960 . S
C380 H372 0.929 . S
C380 C381 1.377 . S
C380 C382 1.384 . S
C381 C380 1.377 . S
C381 C387 1.390 . S
C382 H373 0.930 . S
C382 C380 1.384 . S
C382 C383 1.372 . S
C383 C382 1.372 . S
C383 C384 1.400 . S
C383 C388 1.490 . S
C384 H374 0.930 . S
C384 C383 1.400 . S
C384 C387 1.386 . S
H385 C401 0.930 . S
H386 C402 0.931 . S
C387 H375 0.929 . S
C387 C381 1.390 . S
C387 C384 1.386 . S
C388 C383 1.490 . S
C388 C390 1.395 1_455 S
C388 C391 1.403 . S
H389 C395 0.930 . S
C390 H376 0.930 . S
C390 C388 1.395 1_655 S
C390 C393 1.403 . S
C391 C388 1.403 . S
C391 C392 1.524 . S
C391 C395 1.400 . S
C392 H377 0.960 . S
C392 H378 0.960 . S
C392 H379 0.960 . S
C392 C391 1.524 . S
C393 C390 1.403 . S
C393 C394 1.392 . S
C393 C397 1.495 . S
C394 C393 1.392 . S
C394 C395 1.385 1_655 S
C394 C396 1.478 . S
C395 H389 0.930 . S
C395 C391 1.400 . S
C395 C394 1.385 1_455 S
C396 C394 1.478 . S
C396 C398 1.381 . S
C396 C402 1.383 . S
C397 C393 1.495 . S
C397 H403 0.959 . S
C397 H404 0.961 . S
C397 H405 0.960 . S
C398 C396 1.381 . S
C398 C399 1.394 . S
C398 H406 0.930 . S
C399 C398 1.394 . S
C399 C400 1.383 . S
C399 H407 0.929 . S
C400 C399 1.383 . S
C400 C401 1.377 . S
C401 H385 0.930 . S
C401 C400 1.377 . S
C401 C402 1.379 . S
C402 H386 0.931 . S
C402 C396 1.383 . S
C402 C401 1.379 . S
H403 C397 0.959 . S
H404 C397 0.961 . S
H405 C397 0.960 . S
H406 C398 0.930 . S
H407 C399 0.929 . S
H408 C416 0.929 . S
H409 C418 0.930 . S
H410 C420 0.930 . S
H411 C423 0.929 . S
H412 C426 0.927 1_565 S
H413 C428 0.960 . S
H414 C428 0.960 . S
H415 C428 0.960 1_565 S
C416 H408 0.929 . S
C416 C417 1.377 1_545 S
C416 C418 1.384 . S
C417 C416 1.377 1_565 S
C417 C423 1.390 . S
C418 H409 0.930 . S
C418 C416 1.384 . S
C418 C419 1.399 . S
C419 C418 1.399 . S
C419 C420 1.369 1_545 S
C419 C424 1.494 . S
C420 H410 0.930 . S
C420 C419 1.369 1_565 S
C420 C423 1.386 . S
H421 C437 0.930 . S
H422 C438 0.931 . S
C423 H411 0.929 . S
C423 C417 1.390 . S
C423 C420 1.386 . S
C424 C419 1.494 . S
C424 C426 1.397 . S
C424 C427 1.403 . S
H425 C431 0.930 . S
C426 H412 0.927 1_545 S
C426 C424 1.397 . S
C426 C429 1.405 . S
C427 C424 1.403 . S
C427 C428 1.524 . S
C427 C431 1.400 . S
C428 H413 0.960 . S
C428 H414 0.960 . S
C428 H415 0.960 1_545 S
C428 C427 1.524 . S
C429 C426 1.405 . S
C429 C430 1.392 . S
C429 C433 1.495 1_545 S
C430 C429 1.392 . S
C430 C431 1.385 . S
C430 C432 1.478 . S
C431 H425 0.930 . S
C431 C427 1.400 . S
C431 C430 1.385 . S
C432 C430 1.478 . S
C432 C434 1.381 . S
C432 C438 1.383 1_545 S
C433 C429 1.495 1_565 S
C433 H439 0.959 . S
C433 H440 0.961 . S
C433 H441 0.960 1_565 S
C434 C432 1.381 . S
C434 C435 1.394 . S
C434 H442 0.930 . S
C435 C434 1.394 . S
C435 C436 1.383 . S
C435 H443 0.929 . S
C436 C435 1.383 . S
C436 C437 1.377 1_545 S
C437 H421 0.930 . S
C437 C436 1.377 1_565 S
C437 C438 1.379 . S
C438 H422 0.931 . S
C438 C432 1.383 1_565 S
C438 C437 1.379 . S
H439 C433 0.959 . S
H440 C433 0.961 . S
H441 C433 0.960 1_545 S
H442 C434 0.930 . S
H443 C435 0.929 . S
H444 C452 0.929 . S
H445 C454 0.930 . S
H446 C456 0.930 . S
H447 C459 0.929 . S
H448 C462 0.930 . S
H449 C464 0.960 . S
H450 C464 0.960 . S
H451 C464 0.960 . S
C452 H444 0.929 . S
C452 C453 1.377 . S
C452 C454 1.384 . S
C453 C452 1.377 . S
C453 C459 1.390 1_554 S
C454 H445 0.930 . S
C454 C452 1.384 . S
C454 C455 1.372 . S
C455 C454 1.372 . S
C455 C456 1.400 1_554 S
C455 C460 1.490 . S
C456 H446 0.930 . S
C456 C455 1.400 1_556 S
C456 C459 1.386 . S
H457 C473 0.930 . S
H458 C474 0.931 . S
C459 H447 0.929 . S
C459 C453 1.390 1_556 S
C459 C456 1.386 . S
C460 C455 1.490 . S
C460 C462 1.395 . S
C460 C463 1.403 1_554 S
H461 C467 0.930 . S
C462 H448 0.930 . S
C462 C460 1.395 . S
C462 C465 1.403 . S
C463 C460 1.403 1_556 S
C463 C464 1.524 . S
C463 C467 1.400 . S
C464 H449 0.960 . S
C464 H450 0.960 . S
C464 H451 0.960 . S
C464 C463 1.524 . S
C465 C462 1.403 . S
C465 C466 1.392 . S
C465 C469 1.495 . S
C466 C465 1.392 . S
C466 C467 1.385 1_554 S
C466 C468 1.474 1_554 S
C467 H461 0.930 . S
C467 C463 1.400 . S
C467 C466 1.385 1_556 S
C468 C466 1.474 1_556 S
C468 C470 1.345 1_556 S
C468 C474 1.425 . S
C469 C465 1.495 . S
C469 H475 0.959 . S
C469 H476 0.961 . S
C469 H477 0.960 . S
C470 C468 1.345 1_554 S
C470 C471 1.394 . S
C470 H478 0.930 . S
C471 C470 1.394 . S
C471 C472 1.383 1_554 S
C471 H479 0.929 . S
C472 C471 1.383 1_556 S
C472 C473 1.377 . S
C473 H457 0.930 . S
C473 C472 1.377 . S
C473 C474 1.379 . S
C474 H458 0.931 . S
C474 C468 1.425 . S
C474 C473 1.379 . S
H475 C469 0.959 . S
H476 C469 0.961 . S
H477 C469 0.960 . S
H478 C470 0.930 . S
H479 C471 0.929 . S
H480 C488 0.929 . S
H481 C490 0.930 . S
H482 C492 0.930 . S
H483 C495 0.929 . S
H484 C498 0.930 . S
H485 C500 0.960 . S
H486 C500 0.960 1_556 S
H487 C500 0.960 . S
C488 H480 0.929 . S
C488 C489 1.377 1_556 S
C488 C490 1.384 . S
C489 C488 1.377 1_554 S
C489 C495 1.390 . S
C490 H481 0.930 . S
C490 C488 1.384 . S
C490 C491 1.372 1_556 S
C491 C490 1.372 1_554 S
C491 C492 1.400 . S
C491 C496 1.493 . S
C492 H482 0.930 . S
C492 C491 1.400 . S
C492 C495 1.386 . S
H493 C509 0.930 . S
H494 C510 0.931 . S
C495 H483 0.929 . S
C495 C489 1.390 . S
C495 C492 1.386 . S
C496 C491 1.493 . S
C496 C498 1.389 1_554 S
C496 C499 1.407 . S
H497 C503 0.930 . S
C498 H484 0.930 . S
C498 C496 1.389 1_556 S
C498 C501 1.403 . S
C499 C496 1.407 . S
C499 C500 1.524 . S
C499 C503 1.400 . S
C500 H485 0.960 . S
C500 H486 0.960 1_554 S
C500 H487 0.960 . S
C500 C499 1.524 . S
C501 C498 1.403 . S
C501 C502 1.392 . S
C501 C505 1.495 . S
C502 C501 1.392 . S
C502 C503 1.385 1_556 S
C502 C504 1.478 . S
C503 H497 0.930 . S
C503 C499 1.400 . S
C503 C502 1.385 1_554 S
C504 C502 1.478 . S
C504 C506 1.381 . S
C504 C510 1.383 1_556 S
C505 C501 1.495 . S
C505 H511 0.959 . S
C505 H512 0.955 1_556 S
C505 H513 0.960 . S
C506 C504 1.381 . S
C506 C507 1.394 . S
C506 H514 0.930 . S
C507 C506 1.394 . S
C507 C508 1.383 . S
C507 H515 0.929 . S
C508 C507 1.383 . S
C508 C509 1.377 1_556 S
C509 H493 0.930 . S
C509 C508 1.377 1_554 S
C509 C510 1.379 . S
C510 H494 0.931 . S
C510 C504 1.383 1_554 S
C510 C509 1.379 . S
H511 C505 0.959 . S
H512 C505 0.955 1_554 S
H513 C505 0.960 . S
H514 C506 0.930 . S
H515 C507 0.929 . S
H516 C524 0.929 . S
H517 C526 0.930 . S
H518 C528 0.930 1_554 S
H519 C531 0.929 . S
H520 C534 0.930 . S
H521 C536 0.960 . S
H522 C536 0.960 . S
H523 C536 0.960 . S
C524 H516 0.929 . S
C524 C525 1.377 . S
C524 C526 1.384 . S
C525 C524 1.377 . S
C525 C531 1.390 . S
C526 H517 0.930 . S
C526 C524 1.384 . S
C526 C527 1.372 . S
C527 C526 1.372 . S
C527 C528 1.400 . S
C527 C532 1.490 . S
C528 H518 0.930 1_556 S
C528 C527 1.400 . S
C528 C531 1.386 . S
H529 C545 0.930 . S
H530 C546 0.931 . S
C531 H519 0.929 . S
C531 C525 1.390 . S
C531 C528 1.386 . S
C532 C527 1.490 . S
C532 C534 1.395 1_556 S
C532 C535 1.403 . S
H533 C539 0.930 . S
C534 H520 0.930 . S
C534 C532 1.395 1_554 S
C534 C537 1.403 . S
C535 C532 1.403 . S
C535 C536 1.524 . S
C535 C539 1.400 . S
C536 H521 0.960 . S
C536 H522 0.960 . S
C536 H523 0.960 . S
C536 C535 1.524 . S
C537 C534 1.403 . S
C537 C538 1.392 . S
C537 C541 1.495 . S
C538 C537 1.392 . S
C538 C539 1.385 1_554 S
C538 C540 1.478 . S
C539 H533 0.930 . S
C539 C535 1.400 . S
C539 C538 1.385 1_556 S
C540 C538 1.478 . S
C540 C542 1.381 . S
C540 C546 1.383 . S
C541 C537 1.495 . S
C541 H547 0.959 . S
C541 H548 0.961 . S
C541 H549 0.960 . S
C542 C540 1.381 . S
C542 C543 1.394 . S
C542 H550 0.930 1_554 S
C543 C542 1.394 . S
C543 C544 1.383 . S
C543 H551 0.919 1_554 S
C544 C543 1.383 . S
C544 C545 1.377 . S
C545 H529 0.930 . S
C545 C544 1.377 . S
C545 C546 1.379 . S
C546 H530 0.931 . S
C546 C540 1.383 . S
C546 C545 1.379 . S
H547 C541 0.959 . S
H548 C541 0.961 . S
H549 C541 0.960 . S
H550 C542 0.930 1_556 S
H551 C543 0.919 1_556 S
H552 C560 0.929 . S
H553 C562 0.930 . S
H554 C564 0.928 1_554 S
H555 C567 0.929 1_554 S
H556 C570 0.930 . S
H557 C572 0.960 . S
H558 C572 0.960 . S
H559 C572 0.960 . S
C560 H552 0.929 . S
C560 C561 1.377 . S
C560 C562 1.384 . S
C561 C560 1.377 . S
C561 C567 1.390 . S
C562 H553 0.930 . S
C562 C560 1.384 . S
C562 C563 1.372 . S
C563 C562 1.372 . S
C563 C564 1.401 . S
C563 C568 1.490 . S
C564 H554 0.928 1_556 S
C564 C563 1.401 . S
C564 C567 1.386 . S
H565 C581 0.930 . S
H566 C582 0.931 . S
C567 H555 0.929 1_556 S
C567 C561 1.390 . S
C567 C564 1.386 . S
C568 C563 1.490 . S
C568 C570 1.395 1_556 S
C568 C571 1.403 . S
H569 C575 0.930 . S
C570 H556 0.930 . S
C570 C568 1.395 1_554 S
C570 C573 1.403 . S
C571 C568 1.403 . S
C571 C572 1.524 . S
C571 C575 1.400 . S
C572 H557 0.960 . S
C572 H558 0.960 . S
C572 H559 0.960 . S
C572 C571 1.524 . S
C573 C570 1.403 . S
C573 C574 1.392 . S
C573 C577 1.495 . S
C574 C573 1.392 . S
C574 C575 1.385 1_554 S
C574 C576 1.478 . S
C575 H569 0.930 . S
C575 C571 1.400 . S
C575 C574 1.385 1_556 S
C576 C574 1.478 . S
C576 C578 1.394 . S
C576 C582 1.383 . S
C577 C573 1.495 . S
C577 H583 0.959 . S
C577 H584 0.961 . S
C577 H585 0.960 . S
C578 C576 1.394 . S
C578 C579 1.396 . S
C578 H586 0.917 1_554 S
C579 C578 1.396 . S
C579 C580 1.383 . S
C579 H587 0.929 1_554 S
C580 C579 1.383 . S
C580 C581 1.377 . S
C581 H565 0.930 . S
C581 C580 1.377 . S
C581 C582 1.379 . S
C582 H566 0.931 . S
C582 C576 1.383 . S
C582 C581 1.379 . S
H583 C577 0.959 . S
H584 C577 0.961 . S
H585 C577 0.960 . S
H586 C578 0.917 1_556 S
H587 C579 0.929 1_556 S
H588 C596 0.929 . S
H589 C598 0.930 . S
H590 C600 0.930 . S
H591 C603 0.929 . S
H592 C606 0.930 . S
H593 C608 0.960 . S
H594 C608 0.960 . S
H595 C608 0.960 . S
C596 H588 0.929 . S
C596 C597 1.377 . S
C596 C598 1.384 . S
C597 C596 1.377 . S
C597 C603 1.390 . S
C598 H589 0.930 . S
C598 C596 1.384 . S
C598 C599 1.372 . S
C599 C598 1.372 . S
C599 C600 1.400 . S
C599 C604 1.490 . S
C600 H590 0.930 . S
C600 C599 1.400 . S
C600 C603 1.386 . S
H601 C617 0.930 . S
H602 C618 0.931 . S
C603 H591 0.929 . S
C603 C597 1.390 . S
C603 C600 1.386 . S
C604 C599 1.490 . S
C604 C606 1.395 . S
C604 C607 1.403 . S
H605 C611 0.930 . S
C606 H592 0.930 . S
C606 C604 1.395 . S
C606 C609 1.403 . S
C607 C604 1.403 . S
C607 C608 1.524 . S
C607 C611 1.400 . S
C608 H593 0.960 . S
C608 H594 0.960 . S
C608 H595 0.960 . S
C608 C607 1.524 . S
C609 C606 1.403 . S
C609 C610 1.392 . S
C609 C613 1.495 . S
C610 C609 1.392 . S
C610 C611 1.385 . S
C610 C612 1.478 . S
C611 H605 0.930 . S
C611 C607 1.400 . S
C611 C610 1.385 . S
C612 C610 1.478 . S
C612 C614 1.381 . S
C612 C618 1.383 . S
C613 C609 1.495 . S
C613 H619 0.959 . S
C613 H620 0.961 . S
C613 H621 0.960 . S
C614 C612 1.381 . S
C614 C615 1.394 . S
C614 H622 0.930 . S
C615 C614 1.394 . S
C615 C616 1.383 . S
C615 H623 0.929 . S
C616 C615 1.383 . S
C616 C617 1.377 . S
C617 H601 0.930 . S
C617 C616 1.377 . S
C617 C618 1.379 . S
C618 H602 0.931 . S
C618 C612 1.383 . S
C618 C617 1.379 . S
H619 C613 0.959 . S
H620 C613 0.961 . S
H621 C613 0.960 . S
H622 C614 0.930 . S
H623 C615 0.929 . S
H624 C632 0.929 . S
H625 C634 0.930 . S
H626 C636 0.930 . S
H627 C639 0.929 . S
H628 C642 0.930 . S
H629 C644 0.960 . S
H630 C644 0.960 . S
H631 C644 0.960 . S
C632 H624 0.929 . S
C632 C633 1.377 . S
C632 C634 1.384 . S
C633 C632 1.377 . S
C633 C639 1.390 . S
C634 H625 0.930 . S
C634 C632 1.384 . S
C634 C635 1.372 . S
C635 C634 1.372 . S
C635 C636 1.400 . S
C635 C640 1.490 . S
C636 H626 0.930 . S
C636 C635 1.400 . S
C636 C639 1.386 . S
H637 C653 0.930 . S
H638 C654 0.931 . S
C639 H627 0.929 . S
C639 C633 1.390 . S
C639 C636 1.386 . S
C640 C635 1.490 . S
C640 C642 1.395 . S
C640 C643 1.403 . S
H641 C647 0.930 . S
C642 H628 0.930 . S
C642 C640 1.395 . S
C642 C645 1.403 . S
C643 C640 1.403 . S
C643 C644 1.524 . S
C643 C647 1.400 . S
C644 H629 0.960 . S
C644 H630 0.960 . S
C644 H631 0.960 . S
C644 C643 1.524 . S
C645 C642 1.403 . S
C645 C646 1.392 . S
C645 C649 1.495 . S
C646 C645 1.392 . S
C646 C647 1.385 . S
C646 C648 1.478 . S
C647 H641 0.930 . S
C647 C643 1.400 . S
C647 C646 1.385 . S
C648 C646 1.478 . S
C648 C650 1.381 . S
C648 C654 1.383 . S
C649 C645 1.495 . S
C649 H655 0.959 . S
C649 H656 0.961 . S
C649 H657 0.960 . S
C650 C648 1.381 . S
C650 C651 1.394 . S
C650 H658 0.930 . S
C651 C650 1.394 . S
C651 C652 1.383 . S
C651 H659 0.929 . S
C652 C651 1.383 . S
C652 C653 1.377 . S
C653 H637 0.930 . S
C653 C652 1.377 . S
C653 C654 1.379 . S
C654 H638 0.931 . S
C654 C648 1.383 . S
C654 C653 1.379 . S
H655 C649 0.959 . S
H656 C649 0.961 . S
H657 C649 0.960 . S
H658 C650 0.930 . S
H659 C651 0.929 . S
H660 C668 0.929 . S
H661 C670 0.930 . S
H662 C672 0.930 . S
H663 C675 0.929 . S
H664 C678 0.930 . S
H665 C680 0.960 . S
H666 C680 0.960 . S
H667 C680 0.960 . S
C668 H660 0.929 . S
C668 C669 1.377 . S
C668 C670 1.384 . S
C669 C668 1.377 . S
C669 C675 1.390 . S
C670 H661 0.930 . S
C670 C668 1.384 . S
C670 C671 1.372 . S
C671 C670 1.372 . S
C671 C672 1.400 . S
C671 C676 1.490 . S
C672 H662 0.930 . S
C672 C671 1.400 . S
C672 C675 1.386 . S
H673 C689 0.930 . S
H674 C690 0.931 . S
C675 H663 0.929 . S
C675 C669 1.390 . S
C675 C672 1.386 . S
C676 C671 1.490 . S
C676 C678 1.395 . S
C676 C679 1.403 . S
H677 C683 0.930 . S
C678 H664 0.930 . S
C678 C676 1.395 . S
C678 C681 1.403 . S
C679 C676 1.403 . S
C679 C680 1.524 . S
C679 C683 1.400 . S
C680 H665 0.960 . S
C680 H666 0.960 . S
C680 H667 0.960 . S
C680 C679 1.524 . S
C681 C678 1.403 . S
C681 C682 1.392 . S
C681 C685 1.495 . S
C682 C681 1.392 . S
C682 C683 1.385 . S
C682 C684 1.478 . S
C683 H677 0.930 . S
C683 C679 1.400 . S
C683 C682 1.385 . S
C684 C682 1.478 . S
C684 C686 1.381 . S
C684 C690 1.383 . S
C685 C681 1.495 . S
C685 H691 0.959 . S
C685 H692 0.961 . S
C685 H693 0.960 . S
C686 C684 1.381 . S
C686 C687 1.394 . S
C686 H694 0.930 . S
C687 C686 1.394 . S
C687 C688 1.383 . S
C687 H695 0.929 . S
C688 C687 1.383 . S
C688 C689 1.377 . S
C689 H673 0.930 . S
C689 C688 1.377 . S
C689 C690 1.379 . S
C690 H674 0.931 . S
C690 C684 1.383 . S
C690 C689 1.379 . S
H691 C685 0.959 . S
H692 C685 0.961 . S
H693 C685 0.960 . S
H694 C686 0.930 . S
H695 C687 0.929 . S
H696 C704 0.929 . S
H697 C706 0.930 . S
H698 C708 0.930 . S
H699 C711 0.929 . S
H700 C714 0.930 . S
H701 C716 0.960 . S
H702 C716 0.960 . S
H703 C716 0.960 . S
C704 H696 0.929 . S
C704 C705 1.377 . S
C704 C706 1.384 . S
C705 C704 1.377 . S
C705 C711 1.390 . S
C706 H697 0.930 . S
C706 C704 1.384 . S
C706 C707 1.372 . S
C707 C706 1.372 . S
C707 C708 1.400 . S
C707 C712 1.490 . S
C708 H698 0.930 . S
C708 C707 1.400 . S
C708 C711 1.386 . S
H709 C725 0.930 . S
H710 C726 0.931 . S
C711 H699 0.929 . S
C711 C705 1.390 . S
C711 C708 1.386 . S
C712 C707 1.490 . S
C712 C714 1.395 . S
C712 C715 1.403 . S
H713 C719 0.930 . S
C714 H700 0.930 . S
C714 C712 1.395 . S
C714 C717 1.403 . S
C715 C712 1.403 . S
C715 C716 1.524 . S
C715 C719 1.400 . S
C716 H701 0.960 . S
C716 H702 0.960 . S
C716 H703 0.960 . S
C716 C715 1.524 . S
C717 C714 1.403 . S
C717 C718 1.392 . S
C717 C721 1.495 . S
C718 C717 1.392 . S
C718 C719 1.385 . S
C718 C720 1.478 . S
C719 H713 0.930 . S
C719 C715 1.400 . S
C719 C718 1.385 . S
C720 C718 1.478 . S
C720 C722 1.381 . S
C720 C726 1.383 . S
C721 C717 1.495 . S
C721 H727 0.959 . S
C721 H728 0.961 . S
C721 H729 0.960 . S
C722 C720 1.381 . S
C722 C723 1.394 . S
C722 H730 0.930 . S
C723 C722 1.394 . S
C723 C724 1.383 . S
C723 H731 0.929 . S
C724 C723 1.383 . S
C724 C725 1.377 . S
C725 H709 0.930 . S
C725 C724 1.377 . S
C725 C726 1.379 . S
C726 H710 0.931 . S
C726 C720 1.383 . S
C726 C725 1.379 . S
H727 C721 0.959 . S
H728 C721 0.961 . S
H729 C721 0.960 . S
H730 C722 0.930 . S
H731 C723 0.929 . S
H732 C740 0.929 . S
H733 C742 0.930 . S
H734 C744 0.930 . S
H735 C747 0.929 . S
H736 C750 0.930 . S
H737 C752 0.960 . S
H738 C752 0.960 . S
H739 C752 0.960 . S
C740 H732 0.929 . S
C740 C741 1.377 . S
C740 C742 1.384 . S
C741 C740 1.377 . S
C741 C747 1.390 . S
C742 H733 0.930 . S
C742 C740 1.384 . S
C742 C743 1.372 . S
C743 C742 1.372 . S
C743 C744 1.400 . S
C743 C748 1.490 . S
C744 H734 0.930 . S
C744 C743 1.400 . S
C744 C747 1.386 . S
H745 C761 0.930 . S
H746 C762 0.931 . S
C747 H735 0.929 . S
C747 C741 1.390 . S
C747 C744 1.386 . S
C748 C743 1.490 . S
C748 C750 1.395 . S
C748 C751 1.403 . S
H749 C755 0.930 . S
C750 H736 0.930 . S
C750 C748 1.395 . S
C750 C753 1.403 . S
C751 C748 1.403 . S
C751 C752 1.524 . S
C751 C755 1.400 . S
C752 H737 0.960 . S
C752 H738 0.960 . S
C752 H739 0.960 . S
C752 C751 1.524 . S
C753 C750 1.403 . S
C753 C754 1.392 . S
C753 C757 1.495 . S
C754 C753 1.392 . S
C754 C755 1.385 . S
C754 C756 1.478 . S
C755 H749 0.930 . S
C755 C751 1.400 . S
C755 C754 1.385 . S
C756 C754 1.478 . S
C756 C758 1.381 . S
C756 C762 1.383 . S
C757 C753 1.495 . S
C757 H763 0.959 . S
C757 H764 0.961 . S
C757 H765 0.960 . S
C758 C756 1.381 . S
C758 C759 1.394 . S
C758 H766 0.930 . S
C759 C758 1.394 . S
C759 C760 1.383 . S
C759 H767 0.929 . S
C760 C759 1.383 . S
C760 C761 1.377 . S
C761 H745 0.930 . S
C761 C760 1.377 . S
C761 C762 1.379 . S
C762 H746 0.931 . S
C762 C756 1.383 . S
C762 C761 1.379 . S
H763 C757 0.959 . S
H764 C757 0.961 . S
H765 C757 0.960 . S
H766 C758 0.930 . S
H767 C759 0.929 . S
H768 C776 0.929 . S
H769 C778 0.930 . S
H770 C780 0.930 . S
H771 C783 0.929 . S
H772 C786 0.930 . S
H773 C788 0.960 . S
H774 C788 0.960 . S
H775 C788 0.960 . S
C776 H768 0.929 . S
C776 C777 1.377 . S
C776 C778 1.384 . S
C777 C776 1.377 . S
C777 C783 1.390 . S
C778 H769 0.930 . S
C778 C776 1.384 . S
C778 C779 1.372 . S
C779 C778 1.372 . S
C779 C780 1.400 . S
C779 C784 1.490 . S
C780 H770 0.930 . S
C780 C779 1.400 . S
C780 C783 1.386 . S
H781 C797 0.930 . S
H782 C798 0.931 . S
C783 H771 0.929 . S
C783 C777 1.390 . S
C783 C780 1.386 . S
C784 C779 1.490 . S
C784 C786 1.395 . S
C784 C787 1.403 . S
H785 C791 0.930 . S
C786 H772 0.930 . S
C786 C784 1.395 . S
C786 C789 1.403 . S
C787 C784 1.403 . S
C787 C788 1.524 . S
C787 C791 1.400 . S
C788 H773 0.960 . S
C788 H774 0.960 . S
C788 H775 0.960 . S
C788 C787 1.524 . S
C789 C786 1.403 . S
C789 C790 1.392 . S
C789 C793 1.495 . S
C790 C789 1.392 . S
C790 C791 1.385 . S
C790 C792 1.478 . S
C791 H785 0.930 . S
C791 C787 1.400 . S
C791 C790 1.385 . S
C792 C790 1.478 . S
C792 C794 1.381 . S
C792 C798 1.383 . S
C793 C789 1.495 . S
C793 H799 0.959 . S
C793 H800 0.961 . S
C793 H801 0.960 . S
C794 C792 1.381 . S
C794 C795 1.394 . S
C794 H802 0.930 . S
C795 C794 1.394 . S
C795 C796 1.383 . S
C795 H803 0.929 . S
C796 C795 1.383 . S
C796 C797 1.377 . S
C797 H781 0.930 . S
C797 C796 1.377 . S
C797 C798 1.379 . S
C798 H782 0.931 . S
C798 C792 1.383 . S
C798 C797 1.379 . S
H799 C793 0.959 . S
H800 C793 0.961 . S
H801 C793 0.960 . S
H802 C794 0.930 . S
H803 C795 0.929 . S
H804 C812 0.929 . S
H805 C814 0.930 . S
H806 C816 0.930 . S
H807 C819 0.929 . S
H808 C822 0.930 . S
H809 C824 0.960 . S
H810 C824 0.960 . S
H811 C824 0.960 . S
C812 H804 0.929 . S
C812 C813 1.377 . S
C812 C814 1.384 . S
C813 C812 1.377 . S
C813 C819 1.390 . S
C814 H805 0.930 . S
C814 C812 1.384 . S
C814 C815 1.372 . S
C815 C814 1.372 . S
C815 C816 1.400 . S
C815 C820 1.490 . S
C816 H806 0.930 . S
C816 C815 1.400 . S
C816 C819 1.386 . S
H817 C833 0.930 . S
H818 C834 0.931 . S
C819 H807 0.929 . S
C819 C813 1.390 . S
C819 C816 1.386 . S
C820 C815 1.490 . S
C820 C822 1.395 . S
C820 C823 1.403 . S
H821 C827 0.930 . S
C822 H808 0.930 . S
C822 C820 1.395 . S
C822 C825 1.403 . S
C823 C820 1.403 . S
C823 C824 1.524 . S
C823 C827 1.400 . S
C824 H809 0.960 . S
C824 H810 0.960 . S
C824 H811 0.960 . S
C824 C823 1.524 . S
C825 C822 1.403 . S
C825 C826 1.392 . S
C825 C829 1.495 . S
C826 C825 1.392 . S
C826 C827 1.385 . S
C826 C828 1.478 . S
C827 H821 0.930 . S
C827 C823 1.400 . S
C827 C826 1.385 . S
C828 C826 1.478 . S
C828 C830 1.381 . S
C828 C834 1.383 . S
C829 C825 1.495 . S
C829 H835 0.959 . S
C829 H836 0.961 . S
C829 H837 0.960 . S
C830 C828 1.381 . S
C830 C831 1.394 . S
C830 H838 0.930 . S
C831 C830 1.394 . S
C831 C832 1.383 . S
C831 H839 0.929 . S
C832 C831 1.383 . S
C832 C833 1.377 . S
C833 H817 0.930 . S
C833 C832 1.377 . S
C833 C834 1.379 . S
C834 H818 0.931 . S
C834 C828 1.383 . S
C834 C833 1.379 . S
H835 C829 0.959 . S
H836 C829 0.961 . S
H837 C829 0.960 . S
H838 C830 0.930 . S
H839 C831 0.929 . S
H840 C848 0.929 . S
H841 C850 0.930 . S
H842 C852 0.930 . S
H843 C855 0.929 . S
H844 C858 0.930 . S
H845 C860 0.960 . S
H846 C860 0.960 . S
H847 C860 0.960 . S
C848 H840 0.929 . S
C848 C849 1.377 . S
C848 C850 1.384 . S
C849 C848 1.377 . S
C849 C855 1.390 . S
C850 H841 0.930 . S
C850 C848 1.384 . S
C850 C851 1.372 . S
C851 C850 1.372 . S
C851 C852 1.400 . S
C851 C856 1.490 . S
C852 H842 0.930 . S
C852 C851 1.400 . S
C852 C855 1.386 . S
H853 C869 0.930 . S
H854 C870 0.931 . S
C855 H843 0.929 . S
C855 C849 1.390 . S
C855 C852 1.386 . S
C856 C851 1.490 . S
C856 C858 1.395 . S
C856 C859 1.403 . S
H857 C863 0.930 . S
C858 H844 0.930 . S
C858 C856 1.395 . S
C858 C861 1.403 . S
C859 C856 1.403 . S
C859 C860 1.524 . S
C859 C863 1.400 . S
C860 H845 0.960 . S
C860 H846 0.960 . S
C860 H847 0.960 . S
C860 C859 1.524 . S
C861 C858 1.403 . S
C861 C862 1.392 . S
C861 C865 1.495 . S
C862 C861 1.392 . S
C862 C863 1.385 . S
C862 C864 1.478 . S
C863 H857 0.930 . S
C863 C859 1.400 . S
C863 C862 1.385 . S
C864 C862 1.478 . S
C864 C866 1.381 . S
C864 C870 1.383 . S
C865 C861 1.495 . S
C865 H871 0.959 . S
C865 H872 0.961 . S
C865 H873 0.960 . S
C866 C864 1.381 . S
C866 C867 1.394 . S
C866 H874 0.930 . S
C867 C866 1.394 . S
C867 C868 1.383 . S
C867 H875 0.929 . S
C868 C867 1.383 . S
C868 C869 1.377 . S
C869 H853 0.930 . S
C869 C868 1.377 . S
C869 C870 1.379 . S
C870 H854 0.931 . S
C870 C864 1.383 . S
C870 C869 1.379 . S
H871 C865 0.959 . S
H872 C865 0.961 . S
H873 C865 0.960 . S
H874 C866 0.930 . S
H875 C867 0.929 . S
H876 C884 0.929 . S
H877 C886 0.930 . S
H878 C888 0.930 . S
H879 C891 0.929 . S
H880 C894 0.930 . S
H881 C896 0.960 . S
H882 C896 0.960 . S
H883 C896 0.960 . S
C884 H876 0.929 . S
C884 C885 1.377 . S
C884 C886 1.384 . S
C885 C884 1.377 . S
C885 C891 1.390 . S
C886 H877 0.930 . S
C886 C884 1.384 . S
C886 C887 1.372 . S
C887 C886 1.372 . S
C887 C888 1.400 . S
C887 C892 1.490 . S
C888 H878 0.930 . S
C888 C887 1.400 . S
C888 C891 1.386 . S
H889 C905 0.930 . S
H890 C906 0.931 . S
C891 H879 0.929 . S
C891 C885 1.390 . S
C891 C888 1.386 . S
C892 C887 1.490 . S
C892 C894 1.395 . S
C892 C895 1.403 . S
H893 C899 0.930 . S
C894 H880 0.930 . S
C894 C892 1.395 . S
C894 C897 1.403 . S
C895 C892 1.403 . S
C895 C896 1.524 . S
C895 C899 1.400 . S
C896 H881 0.960 . S
C896 H882 0.960 . S
C896 H883 0.960 . S
C896 C895 1.524 . S
C897 C894 1.403 . S
C897 C898 1.392 . S
C897 C901 1.495 . S
C898 C897 1.392 . S
C898 C899 1.385 . S
C898 C900 1.478 . S
C899 H893 0.930 . S
C899 C895 1.400 . S
C899 C898 1.385 . S
C900 C898 1.478 . S
C900 C902 1.381 . S
C900 C906 1.383 . S
C901 C897 1.495 . S
C901 H907 0.959 . S
C901 H908 0.961 . S
C901 H909 0.960 . S
C902 C900 1.381 . S
C902 C903 1.394 . S
C902 H910 0.930 . S
C903 C902 1.394 . S
C903 C904 1.383 . S
C903 H911 0.929 . S
C904 C903 1.383 . S
C904 C905 1.377 . S
C905 H889 0.930 . S
C905 C904 1.377 . S
C905 C906 1.379 . S
C906 H890 0.931 . S
C906 C900 1.383 . S
C906 C905 1.379 . S
H907 C901 0.959 . S
H908 C901 0.961 . S
H909 C901 0.960 . S
H910 C902 0.930 . S
H911 C903 0.929 . S
H912 C920 0.929 . S
H913 C922 0.930 . S
H914 C924 0.930 . S
H915 C927 0.929 . S
H916 C930 0.930 . S
H917 C932 0.960 . S
H918 C932 0.960 . S
H919 C932 0.960 . S
C920 H912 0.929 . S
C920 C921 1.377 . S
C920 C922 1.384 . S
C921 C920 1.377 . S
C921 C927 1.390 . S
C922 H913 0.930 . S
C922 C920 1.384 . S
C922 C923 1.372 . S
C923 C922 1.372 . S
C923 C924 1.400 . S
C923 C928 1.490 . S
C924 H914 0.930 . S
C924 C923 1.400 . S
C924 C927 1.386 . S
H925 C941 0.930 . S
H926 C942 0.931 . S
C927 H915 0.929 . S
C927 C921 1.390 . S
C927 C924 1.386 . S
C928 C923 1.490 . S
C928 C930 1.395 . S
C928 C931 1.403 . S
H929 C935 0.930 . S
C930 H916 0.930 . S
C930 C928 1.395 . S
C930 C933 1.403 . S
C931 C928 1.403 . S
C931 C932 1.524 . S
C931 C935 1.400 . S
C932 H917 0.960 . S
C932 H918 0.960 . S
C932 H919 0.960 . S
C932 C931 1.524 . S
C933 C930 1.403 . S
C933 C934 1.392 . S
C933 C937 1.495 . S
C934 C933 1.392 . S
C934 C935 1.385 . S
C934 C936 1.478 . S
C935 H929 0.930 . S
C935 C931 1.400 . S
C935 C934 1.385 . S
C936 C934 1.478 . S
C936 C938 1.381 . S
C936 C942 1.383 . S
C937 C933 1.495 . S
C937 H943 0.959 . S
C937 H944 0.961 . S
C937 H945 0.960 . S
C938 C936 1.381 . S
C938 C939 1.394 . S
C938 H946 0.930 . S
C939 C938 1.394 . S
C939 C940 1.383 . S
C939 H947 0.929 . S
C940 C939 1.383 . S
C940 C941 1.377 . S
C941 H925 0.930 . S
C941 C940 1.377 . S
C941 C942 1.379 . S
C942 H926 0.931 . S
C942 C936 1.383 . S
C942 C941 1.379 . S
H943 C937 0.959 . S
H944 C937 0.961 . S
H945 C937 0.960 . S
H946 C938 0.930 . S
H947 C939 0.929 . S
H948 C956 0.929 . S
H949 C958 0.930 . S
H950 C960 0.930 . S
H951 C963 0.929 . S
H952 C966 0.930 . S
H953 C968 0.960 . S
H954 C968 0.960 . S
H955 C968 0.960 . S
C956 H948 0.929 . S
C956 C957 1.377 . S
C956 C958 1.384 . S
C957 C956 1.377 . S
C957 C963 1.390 . S
C958 H949 0.930 . S
C958 C956 1.384 . S
C958 C959 1.372 . S
C959 C958 1.372 . S
C959 C960 1.400 . S
C959 C964 1.490 . S
C960 H950 0.930 . S
C960 C959 1.400 . S
C960 C963 1.386 . S
H961 C977 0.930 . S
H962 C978 0.931 . S
C963 H951 0.929 . S
C963 C957 1.390 . S
C963 C960 1.386 . S
C964 C959 1.490 . S
C964 C966 1.395 . S
C964 C967 1.403 . S
H965 C971 0.930 . S
C966 H952 0.930 . S
C966 C964 1.395 . S
C966 C969 1.403 . S
C967 C964 1.403 . S
C967 C968 1.524 . S
C967 C971 1.400 . S
C968 H953 0.960 . S
C968 H954 0.960 . S
C968 H955 0.960 . S
C968 C967 1.524 . S
C969 C966 1.403 . S
C969 C970 1.392 . S
C969 C973 1.495 . S
C970 C969 1.392 . S
C970 C971 1.385 . S
C970 C972 1.478 . S
C971 H965 0.930 . S
C971 C967 1.400 . S
C971 C970 1.385 . S
C972 C970 1.478 . S
C972 C974 1.381 . S
C972 C978 1.383 . S
C973 C969 1.495 . S
C973 H979 0.959 . S
C973 H980 0.961 . S
C973 H981 0.960 . S
C974 C972 1.381 . S
C974 C975 1.394 . S
C974 H982 0.930 . S
C975 C974 1.394 . S
C975 C976 1.383 . S
C975 H983 0.929 . S
C976 C975 1.383 . S
C976 C977 1.377 . S
C977 H961 0.930 . S
C977 C976 1.377 . S
C977 C978 1.379 . S
C978 H962 0.931 . S
C978 C972 1.383 . S
C978 C977 1.379 . S
H979 C973 0.959 . S
H980 C973 0.961 . S
H981 C973 0.960 . S
H982 C974 0.930 . S
H983 C975 0.929 . S
H984 C992 0.929 . S
H985 C994 0.930 . S
H986 C996 0.930 . S
H987 C999 0.929 . S
H988 C1002 0.930 . S
H989 C1004 0.960 . S
H990 C1004 0.960 . S
H991 C1004 0.960 . S
C992 H984 0.929 . S
C992 C993 1.377 . S
C992 C994 1.384 . S
C993 C992 1.377 . S
C993 C999 1.390 . S
C994 H985 0.930 . S
C994 C992 1.384 . S
C994 C995 1.372 . S
C995 C994 1.372 . S
C995 C996 1.400 . S
C995 C1000 1.490 . S
C996 H986 0.930 . S
C996 C995 1.400 . S
C996 C999 1.386 . S
H997 C1013 0.930 . S
H998 C1014 0.931 . S
C999 H987 0.929 . S
C999 C993 1.390 . S
C999 C996 1.386 . S
C1000 C995 1.490 . S
C1000 C1002 1.395 . S
C1000 C1003 1.403 . S
H1001 C1007 0.930 . S
C1002 H988 0.930 . S
C1002 C1000 1.395 . S
C1002 C1005 1.403 . S
C1003 C1000 1.403 . S
C1003 C1004 1.524 . S
C1003 C1007 1.400 . S
C1004 H989 0.960 . S
C1004 H990 0.960 . S
C1004 H991 0.960 . S
C1004 C1003 1.524 . S
C1005 C1002 1.403 . S
C1005 C1006 1.392 . S
C1005 C1009 1.495 . S
C1006 C1005 1.392 . S
C1006 C1007 1.385 . S
C1006 C1008 1.478 . S
C1007 H1001 0.930 . S
C1007 C1003 1.400 . S
C1007 C1006 1.385 . S
C1008 C1006 1.478 . S
C1008 C1010 1.381 . S
C1008 C1014 1.383 . S
C1009 C1005 1.495 . S
C1009 H1015 0.959 . S
C1009 H1016 0.961 . S
C1009 H1017 0.960 . S
C1010 C1008 1.381 . S
C1010 C1011 1.394 . S
C1010 H1018 0.930 . S
C1011 C1010 1.394 . S
C1011 C1012 1.383 . S
C1011 H1019 0.929 . S
C1012 C1011 1.383 . S
C1012 C1013 1.377 . S
C1013 H997 0.930 . S
C1013 C1012 1.377 . S
C1013 C1014 1.379 . S
C1014 H998 0.931 . S
C1014 C1008 1.383 . S
C1014 C1013 1.379 . S
H1015 C1009 0.959 . S
H1016 C1009 0.961 . S
H1017 C1009 0.960 . S
H1018 C1010 0.930 . S
H1019 C1011 0.929 . S
C165 C5 1.597 . S
C184 C68 1.593 . S
C201 C17 1.574 . S
C220 C62 1.576 . S
C237 C70 1.579 . S
C256 C30 1.570 . S
C273 C42 1.594 . S
C292 C56 1.577 . S
C309 C96 1.580 . S
C328 C36 1.562 . S
C345 C82 1.589 . S
C364 C44 1.580 . S
C381 C3 1.596 . S
C400 C94 1.600 . S
C417 C88 1.573 . S
C436 C23 1.571 . S
C453 C122 1.602 . S
C472 C107 1.593 . S
C489 C109 1.585 . S
C508 C153 1.583 . S
C525 C120 1.589 . S
C544 C140 1.589 . S
C561 C134 1.572 . S
C580 C147 1.574 . S
C597 C148 1.594 . S
C616 C83 1.582 . S
C633 C108 1.577 . S
C652 C101 1.582 . S
C669 C81 1.581 . S
C688 C121 1.585 . S
C705 C95 1.588 . S
C724 C133 1.592 . S
C741 C57 1.579 . S
C760 C127 1.573 . S
C777 C75 1.591 . S
C796 C135 1.599 . S
C813 C146 1.593 . S
C832 C55 1.594 . S
C849 C114 1.574 . S
C868 C69 1.575 . S
C885 C16 1.602 . S
C904 C31 1.595 . S
C921 C10 1.582 . S
C940 C18 1.587 . S
C957 C29 1.589 . S
C976 C49 1.590 . S
C993 C4 1.571 . S
C1012 C43 1.558 . S
