# Generated by pormake.
# Topology sod, (4)-cn, num edge types: 1
# Building blocks:
#     Node 0, Type 0, BuildingBlock: QUQFOY_clean_sbu_3, # of connection points: 4
#     Node 1, Type 0, BuildingBlock: QUQFOY_clean_sbu_3, # of connection points: 4
#     Node 2, Type 0, BuildingBlock: QUQFOY_clean_sbu_3, # of connection points: 4
#     Node 3, Type 0, BuildingBlock: QUQFOY_clean_sbu_3, # of connection points: 4
#     Node 4, Type 0, BuildingBlock: QUQFOY_clean_sbu_3, # of connection points: 4
#     Node 5, Type 0, BuildingBlock: QUQFOY_clean_sbu_3, # of connection points: 4
#     Node 6, Type 0, BuildingBlock: QUQFOY_clean_sbu_3, # of connection points: 4
#     Node 7, Type 0, BuildingBlock: QUQFOY_clean_sbu_3, # of connection points: 4
#     Node 8, Type 0, BuildingBlock: QUQFOY_clean_sbu_3, # of connection points: 4
#     Node 9, Type 0, BuildingBlock: QUQFOY_clean_sbu_3, # of connection points: 4
#     Node 10, Type 0, BuildingBlock: QUQFOY_clean_sbu_3, # of connection points: 4
#     Node 11, Type 0, BuildingBlock: QUQFOY_clean_sbu_3, # of connection points: 4
#     Edge 12, Type (0, 0), BuildingBlock: KIFKEQ_clean_linker_1, # of connection points: 2
#     Edge 13, Type (0, 0), BuildingBlock: KIFKEQ_clean_linker_1, # of connection points: 2
#     Edge 14, Type (0, 0), BuildingBlock: KIFKEQ_clean_linker_1, # of connection points: 2
#     Edge 15, Type (0, 0), BuildingBlock: KIFKEQ_clean_linker_1, # of connection points: 2
#     Edge 16, Type (0, 0), BuildingBlock: KIFKEQ_clean_linker_1, # of connection points: 2
#     Edge 17, Type (0, 0), BuildingBlock: KIFKEQ_clean_linker_1, # of connection points: 2
#     Edge 18, Type (0, 0), BuildingBlock: KIFKEQ_clean_linker_1, # of connection points: 2
#     Edge 19, Type (0, 0), BuildingBlock: KIFKEQ_clean_linker_1, # of connection points: 2
#     Edge 20, Type (0, 0), BuildingBlock: KIFKEQ_clean_linker_1, # of connection points: 2
#     Edge 21, Type (0, 0), BuildingBlock: KIFKEQ_clean_linker_1, # of connection points: 2
#     Edge 22, Type (0, 0), BuildingBlock: KIFKEQ_clean_linker_1, # of connection points: 2
#     Edge 23, Type (0, 0), BuildingBlock: KIFKEQ_clean_linker_1, # of connection points: 2
#     Edge 24, Type (0, 0), BuildingBlock: KIFKEQ_clean_linker_1, # of connection points: 2
#     Edge 25, Type (0, 0), BuildingBlock: KIFKEQ_clean_linker_1, # of connection points: 2
#     Edge 26, Type (0, 0), BuildingBlock: KIFKEQ_clean_linker_1, # of connection points: 2
#     Edge 27, Type (0, 0), BuildingBlock: KIFKEQ_clean_linker_1, # of connection points: 2
#     Edge 28, Type (0, 0), BuildingBlock: KIFKEQ_clean_linker_1, # of connection points: 2
#     Edge 29, Type (0, 0), BuildingBlock: KIFKEQ_clean_linker_1, # of connection points: 2
#     Edge 30, Type (0, 0), BuildingBlock: KIFKEQ_clean_linker_1, # of connection points: 2
#     Edge 31, Type (0, 0), BuildingBlock: KIFKEQ_clean_linker_1, # of connection points: 2
#     Edge 32, Type (0, 0), BuildingBlock: KIFKEQ_clean_linker_1, # of connection points: 2
#     Edge 33, Type (0, 0), BuildingBlock: KIFKEQ_clean_linker_1, # of connection points: 2
#     Edge 34, Type (0, 0), BuildingBlock: KIFKEQ_clean_linker_1, # of connection points: 2
#     Edge 35, Type (0, 0), BuildingBlock: KIFKEQ_clean_linker_1, # of connection points: 2
# Relax obj value: 0.139
# Max RMSD: 0.179
# Mean RMSD: 0.168
data_MOF--net-sod--node1-QUQFOY_clean_sbu_3--edge1-KIFKEQ_clean_linker_1
_symmetry_space_group_name_H-M    P1
_symmetry_Int_Tables_number       1
_symmetry_cell_setting            triclinic
loop_
_symmetry_equiv_pos_as_xyz
'x, y, z'
_cell_length_a     43.770805
_cell_length_b     44.499081
_cell_length_c     44.213297
_cell_angle_alpha  93.023673
_cell_angle_beta   89.901602
_cell_angle_gamma 91.521524
loop_
_atom_site_label
_atom_site_type_symbol
_atom_site_fract_x
_atom_site_fract_y
_atom_site_fract_z
_atom_type_partial_charge
C0 C 0.00643 0.20674 0.52341 0.0
O1 O 0.01862 0.21209 0.54927 0.0
Cd2 Cd 0.05708 0.2495 0.56099 0.0
O3 O 0.01536 0.22108 0.50057 0.0
Cd4 Cd 0.05523 0.2609 0.4917 0.0
C5 C 0.11243 0.21823 0.5174 0.0
O6 O 0.03615 0.28986 0.53459 0.0
O7 O 0.0756 0.31032 0.5143 0.0
O8 O 0.02444 0.27536 0.44888 0.0
C9 C 0.05342 0.31279 0.53265 0.0
O10 O 0.10449 0.22604 0.54429 0.0
C11 C 0.04718 0.28002 0.43169 0.0
O12 O 0.0974 0.22668 0.49495 0.0
O13 O 0.07336 0.27463 0.44207 0.0
C14 C 0.707 0.0694 0.46234 0.0
O15 O 0.71215 0.09628 0.47253 0.0
Cd16 Cd 0.74814 0.10829 0.51251 0.0
O17 O 0.7214 0.04769 0.47281 0.0
Cd18 Cd 0.76108 0.03938 0.51076 0.0
C19 C 0.7163 0.06703 0.56763 0.0
O20 O 0.79333 0.08185 0.49653 0.0
O21 O 0.80815 0.05876 0.53537 0.0
O22 O 0.77617 -0.00415 0.47837 0.0
C23 C 0.81384 0.07816 0.51603 0.0
O24 O 0.72259 0.09337 0.55912 0.0
C25 C 0.77944 0.97886 0.50029 0.0
O26 O 0.72636 0.04408 0.55298 0.0
O27 O 0.7735 0.98993 0.5266 0.0
C28 C 0.90298 0.79344 0.47465 0.0
O29 O 0.91578 0.78714 0.44939 0.0
Cd30 Cd 0.95388 0.75004 0.44047 0.0
O31 O 0.91105 0.78079 0.49849 0.0
Cd32 Cd 0.95127 0.74497 0.51006 0.0
C33 C 0.01027 0.78563 0.48103 0.0
O34 O 0.93798 0.70815 0.46926 0.0
O35 O 0.97975 0.70012 0.49274 0.0
O36 O 0.92346 0.72441 0.55288 0.0
C37 C 0.95944 0.69051 0.47398 0.0
O38 O 0.00296 0.7742 0.45498 0.0
C39 C 0.94526 0.72948 0.57157 0.0
O40 O -0.00627 0.78073 0.504 0.0
O41 O 0.96886 0.74308 0.5619 0.0
C42 C 0.30254 0.94012 0.45104 0.0
O43 O 0.29925 0.91344 0.45959 0.0
Cd44 Cd 0.26517 0.89944 0.49873 0.0
O45 O 0.2872 0.96145 0.46347 0.0
Cd46 Cd 0.24699 0.96615 0.50368 0.0
C47 C 0.29302 0.94198 0.55884 0.0
O48 O 0.21807 0.92202 0.48384 0.0
O49 O 0.20143 0.94149 0.52608 0.0
O50 O 0.22892 0.01052 0.47827 0.0
C51 C 0.19729 0.92289 0.50371 0.0
O52 O 0.2903 0.91534 0.54708 0.0
C53 C 0.22529 0.02612 0.50287 0.0
O54 O 0.28053 0.96365 0.54654 0.0
O55 O 0.23167 0.01375 0.52716 0.0
C56 C 0.55837 0.01419 0.29398 0.0
O57 O 0.55835 0.98652 0.28531 0.0
Cd58 Cd 0.52384 0.96217 0.25046 0.0
O59 O 0.53917 0.032 0.28333 0.0
Cd60 Cd 0.49763 0.02769 0.24426 0.0
C61 C 0.4571 0.9797 0.28724 0.0
O62 O 0.52705 -0.00407 0.2103 0.0
O63 O 0.4805 -0.00025 0.19637 0.0
O64 O 0.51129 0.07819 0.22877 0.0
C65 C 0.50701 0.99036 0.19021 0.0
O66 O 0.47598 0.95953 0.27917 0.0
C67 C 0.48401 0.08723 0.22848 0.0
O68 O 0.46033 0.00629 0.27832 0.0
O69 O 0.46325 0.06886 0.23653 0.0
C70 C 0.04875 0.53513 0.21581 0.0
O71 O 0.03309 0.55797 0.22322 0.0
Cd72 Cd 0.98985 0.55809 0.25528 0.0
O73 O 0.04208 0.50938 0.22596 0.0
Cd74 Cd 0.00315 0.48964 0.26238 0.0
C75 C 0.94389 0.50556 0.21705 0.0
O76 O 0.00986 0.53276 0.29707 0.0
O77 O 0.97203 0.50369 0.30825 0.0
O78 O 0.03984 0.4547 0.28179 0.0
C79 C 0.98961 0.52583 0.31599 0.0
O80 O 0.94853 0.5332 0.22508 0.0
C81 C 0.02149 0.43206 0.28018 0.0
O82 O 0.9611 0.48558 0.2266 0.0
O83 O -0.0047 0.43606 0.2691 0.0
C84 C 0.54713 0.03913 0.7186 0.0
O85 O 0.52975 0.0613 0.72331 0.0
Cd86 Cd 0.48781 0.06298 0.75736 0.0
O87 O 0.54234 0.01462 0.73187 0.0
Cd88 Cd 0.50332 -0.00403 0.76841 0.0
C89 C 0.44251 0.00817 0.72304 0.0
O90 O 0.50894 0.04102 0.80091 0.0
O91 O 0.47301 0.01066 0.81435 0.0
O92 O 0.54029 0.96218 0.78944 0.0
C93 C 0.48958 0.03392 0.82066 0.0
O94 O 0.44599 0.03615 0.73001 0.0
C95 C 0.52233 0.93924 0.78787 0.0
O96 O 0.46096 0.98942 0.73291 0.0
O97 O 0.49627 0.9426 0.77623 0.0
C98 C 0.05312 0.50615 0.79064 0.0
O99 O 0.05116 0.47803 0.7841 0.0
Cd100 Cd 0.01966 0.45402 0.74605 0.0
O101 O 0.03698 0.52452 0.77672 0.0
Cd102 Cd -0.00287 0.51976 0.73628 0.0
C103 C 0.95188 0.47382 0.77778 0.0
O104 O 0.02736 0.48613 0.70467 0.0
O105 O 0.98204 0.49197 0.68791 0.0
O106 O 0.01186 0.5698 0.71993 0.0
C107 C 0.00837 0.4814 0.68341 0.0
O108 O 0.96974 0.45249 0.77064 0.0
C109 C 0.98469 0.5791 0.71908 0.0
O110 O 0.95743 0.50019 0.76912 0.0
O111 O 0.9636 0.56107 0.72706 0.0
C112 C 0.20627 0.57002 0.95261 0.0
O113 O 0.20903 0.59697 0.96339 0.0
Cd114 Cd 0.24317 0.61118 0.00429 0.0
O115 O 0.2215 0.54916 0.96361 0.0
Cd116 Cd 0.25893 0.5432 0.00439 0.0
C117 C 0.21095 0.57004 0.05909 0.0
O118 O 0.29052 0.58672 0.99118 0.0
O119 O 0.30424 0.56402 0.03067 0.0
O120 O 0.27694 0.49947 0.97398 0.0
C121 C 0.31023 0.58362 0.01164 0.0
O122 O 0.21592 0.59629 0.04977 0.0
C123 C 0.27942 0.48315 -0.00346 0.0
O124 O 0.22288 0.5473 0.04571 0.0
O125 O 0.27184 0.49467 0.02221 0.0
C126 C 0.4042 0.29773 0.98048 0.0
O127 O 0.41705 0.29045 0.95548 0.0
Cd128 Cd 0.45505 0.25325 0.94789 0.0
O129 O 0.41201 0.28589 0.00487 0.0
Cd130 Cd 0.45175 0.25003 0.01809 0.0
C131 C 0.51084 0.29016 0.98868 0.0
O132 O 0.43867 0.21261 0.97799 0.0
O133 O 0.48059 0.20501 0.00132 0.0
O134 O 0.42318 0.23027 0.06085 0.0
C135 C 0.46023 0.19512 0.98274 0.0
O136 O 0.50361 0.27818 0.96281 0.0
C137 C 0.44466 0.23564 0.07983 0.0
O138 O 0.49428 0.28567 0.01174 0.0
O139 O 0.46847 0.249 0.07031 0.0
C140 C 0.79646 0.44558 0.94281 0.0
O141 O 0.79281 0.41922 0.95214 0.0
Cd142 Cd 0.76063 0.40619 -0.00689 0.0
O143 O 0.78255 0.46774 0.95555 0.0
Cd144 Cd 0.74487 0.47441 -0.00205 0.0
C145 C 0.79188 0.44847 0.05174 0.0
O146 O 0.71406 0.43085 0.98096 0.0
O147 O 0.70003 0.45144 0.02371 0.0
O148 O 0.72063 0.51715 0.975 0.0
C149 C 0.69446 0.43243 0.00193 0.0
O150 O 0.78808 0.42186 0.04016 0.0
C151 C 0.72518 0.53516 -0.00206 0.0
O152 O 0.77954 0.47046 0.03984 0.0
O153 O 0.73887 0.52486 0.02025 0.0
C154 C 0.50139 0.71399 0.02936 0.0
O155 O 0.51214 0.71904 0.05588 0.0
Cd156 Cd 0.55126 0.75499 0.06964 0.0
O157 O 0.51202 0.72817 0.00708 0.0
Cd158 Cd 0.55273 0.76778 0.00015 0.0
C159 C 0.60808 0.72371 0.02717 0.0
O160 O 0.53284 0.79643 0.04301 0.0
O161 O 0.5727 0.81687 0.02339 0.0
O162 O 0.52317 0.78281 0.95681 0.0
C163 C 0.55043 0.81922 0.04165 0.0
O164 O 0.59789 0.7297 0.0537 0.0
C165 C 0.54634 0.78754 0.94021 0.0
O166 O 0.59523 0.73406 0.00433 0.0
O167 O 0.57223 0.78195 0.95115 0.0
H168 H -0.00511 0.2998 0.40672 0.0
H169 H 0.0919 0.29268 0.39073 0.0
H170 H 0.99081 0.33114 0.36357 0.0
H171 H 0.08771 0.32352 0.34699 0.0
H172 H 0.07239 0.41963 0.31235 0.0
H173 H 0.07954 0.37664 0.34311 0.0
H174 H -0.00577 0.3367 0.30966 0.0
H175 H 0.98671 0.38016 0.27942 0.0
C176 C 0.01522 0.3043 0.39352 0.0
C177 C 0.04377 0.29413 0.40239 0.0
C178 C 0.01287 0.32215 0.36862 0.0
C179 C 0.03902 0.33012 0.35198 0.0
C180 C 0.06724 0.31822 0.35966 0.0
C181 C 0.06959 0.30043 0.38462 0.0
C182 C 0.05548 0.40138 0.31105 0.0
C183 C 0.02878 0.4035 0.29382 0.0
C184 C 0.05965 0.37661 0.32858 0.0
C185 C 0.03724 0.35336 0.32915 0.0
C186 C 0.01162 0.35449 0.31017 0.0
C187 C 0.00741 0.37932 0.29271 0.0
H188 H 0.68292 0.01478 0.44303 0.0
H189 H 0.6797 0.10959 0.42674 0.0
H190 H 0.64675 0.00362 0.40222 0.0
H191 H 0.64402 0.09822 0.38498 0.0
H192 H 0.55656 0.06522 0.33164 0.0
H193 H 0.59215 0.08011 0.37276 0.0
H194 H 0.647 0.0032 0.34824 0.0
H195 H 0.61124 0.98794 0.3082 0.0
C196 C 0.67462 0.03325 0.4306 0.0
C197 C 0.68436 0.06304 0.43797 0.0
C198 C 0.65399 0.02683 0.40707 0.0
C199 C 0.64283 0.05 0.39006 0.0
C200 C 0.65207 0.07991 0.39777 0.0
C201 C 0.6726 0.08639 0.42158 0.0
C202 C 0.57637 0.05169 0.33501 0.0
C203 C 0.58091 0.02521 0.31701 0.0
C204 C 0.59677 0.06023 0.35846 0.0
C205 C 0.62212 0.04254 0.36407 0.0
C206 C 0.62725 0.01686 0.34511 0.0
C207 C 0.60681 0.0082 0.32202 0.0
H208 H 0.9394 0.5282 0.35338 0.0
H209 H 0.02979 0.5671 0.34109 0.0
H210 H 0.93121 0.56417 0.39645 0.0
H211 H 0.02162 0.60275 0.38361 0.0
H212 H 0.00722 0.65209 0.47291 0.0
H213 H 0.01382 0.60746 0.43916 0.0
H214 H 0.92505 0.62013 0.39999 0.0
H215 H 0.91831 0.66449 0.43381 0.0
C216 C 0.95762 0.54413 0.36012 0.0
C217 C 0.98511 0.54509 0.34375 0.0
C218 C 0.9529 0.56473 0.38464 0.0
C219 C 0.97578 0.58625 0.39336 0.0
C220 C 0.0037 0.58623 0.37771 0.0
C221 C 0.00827 0.56595 0.35315 0.0
C222 C 0.98898 0.64512 0.45735 0.0
C223 C 0.96244 0.66201 0.4557 0.0
C224 C 0.99276 0.61961 0.43803 0.0
C225 C 0.97 0.61043 0.41685 0.0
C226 C 0.94285 0.62648 0.41626 0.0
C227 C 0.93913 0.65206 0.43544 0.0
H228 H 0.32606 -0.00548 0.43435 0.0
H229 H 0.32716 0.89907 0.41084 0.0
H230 H 0.36233 0.00363 0.39367 0.0
H231 H 0.36222 0.90819 0.36953 0.0
H232 H 0.40727 0.01328 0.30212 0.0
H233 H 0.36857 0.00354 0.34032 0.0
H234 H 0.41361 0.92173 0.36083 0.0
H235 H 0.45143 0.93085 0.32187 0.0
C236 C 0.33383 0.97553 0.42033 0.0
C237 C 0.32394 0.94607 0.42598 0.0
C238 C 0.35446 0.98074 0.39685 0.0
C239 C 0.36534 0.95663 0.37829 0.0
C240 C 0.3549 0.92725 0.3837 0.0
C241 C 0.33464 0.92203 0.40735 0.0
C242 C 0.40871 -0.00694 0.31461 0.0
C243 C 0.43241 0.97281 0.30893 0.0
C244 C 0.38666 0.9876 0.3367 0.0
C245 C 0.38799 0.96192 0.35385 0.0
C246 C 0.4115 0.94149 0.34779 0.0
C247 C 0.43331 0.94677 0.32548 0.0
H248 H 0.92912 0.60548 0.7168 0.0
H249 H 0.02408 0.61837 0.6927 0.0
H250 H 0.91609 0.6492 0.68887 0.0
H251 H 0.01104 0.66131 0.66408 0.0
H252 H 0.98586 0.74119 0.61771 0.0
H253 H -0.00695 0.71122 0.6616 0.0
H254 H 0.91302 0.65684 0.6359 0.0
H255 H 0.90531 0.68743 0.59277 0.0
C256 C 0.94727 0.61791 0.7059 0.0
C257 C 0.97757 0.60826 0.70659 0.0
C258 C 0.93978 0.64288 0.68979 0.0
C259 C 0.96241 0.6586 0.67389 0.0
C260 C -0.00699 0.65003 0.67629 0.0
C261 C 0.00051 0.6252 0.69254 0.0
C262 C 0.96933 0.72335 0.62196 0.0
C263 C 0.94531 0.71632 0.60154 0.0
C264 C 0.97357 0.70605 0.64699 0.0
C265 C 0.95403 0.6812 0.65194 0.0
C266 C 0.92846 0.67587 0.63295 0.0
C267 C 0.92407 0.69336 0.60807 0.0
H268 H 0.40786 0.0417 0.68699 0.0
H269 H 0.42149 0.95025 0.71132 0.0
H270 H 0.37011 0.02385 0.64963 0.0
H271 H 0.38264 0.93236 0.67474 0.0
H272 H 0.34052 0.91006 0.5799 0.0
H273 H 0.37488 0.92511 0.62179 0.0
H274 H 0.32064 0.00341 0.64243 0.0
H275 H 0.28742 0.98908 0.59984 0.0
C276 C 0.40241 0.0178 0.68472 0.0
C277 C 0.41776 -0.00259 0.70207 0.0
C278 C 0.38056 0.00752 0.66338 0.0
C279 C 0.37318 0.97659 0.65911 0.0
C280 C 0.38805 0.95626 0.67703 0.0
C281 C 0.41019 0.96654 0.69815 0.0
C282 C 0.33584 0.93029 0.59365 0.0
C283 C 0.31156 0.94858 0.5864 0.0
C284 C 0.35544 0.9389 0.61776 0.0
C285 C 0.35083 0.96576 0.63533 0.0
C286 C 0.32547 0.98308 0.62893 0.0
C287 C 0.30626 0.97475 0.60462 0.0
H288 H 0.00341 0.32391 0.56711 0.0
H289 H 0.08948 0.3643 0.5403 0.0
H290 H 0.99291 0.36819 0.5993 0.0
H291 H 0.07871 0.40925 0.57278 0.0
H292 H 0.96982 0.4593 0.63833 0.0
H293 H 0.98133 0.42194 0.59765 0.0
H294 H 0.07484 0.4204 0.62848 0.0
H295 H 0.06352 0.45789 0.66874 0.0
C296 C 0.02007 0.34237 0.56796 0.0
C297 C 0.04743 0.34052 0.55134 0.0
C298 C 0.01385 0.36792 0.5862 0.0
C299 C 0.03487 0.39228 0.58843 0.0
C300 C 0.06213 0.39071 0.57154 0.0
C301 C 0.06829 0.36507 0.55297 0.0
C302 C 0.9929 0.45126 0.63614 0.0
C303 C 0.01564 0.46119 0.65695 0.0
C304 C -0.00052 0.42985 0.61293 0.0
C305 C 0.02895 0.41809 0.61004 0.0
C306 C 0.05202 0.4292 0.62994 0.0
C307 C 0.04542 0.45048 0.65318 0.0
H308 H 0.59582 0.00195 0.71016 0.0
H309 H 0.55801 0.08412 0.68031 0.0
H310 H 0.63981 0.00902 0.67696 0.0
H311 H 0.60118 0.09063 0.64668 0.0
H312 H 0.69307 0.11008 0.6072 0.0
H313 H 0.65455 0.10297 0.64625 0.0
H314 H 0.65245 0.00714 0.62418 0.0
H315 H 0.6916 0.01409 0.58603 0.0
C316 C 0.59679 0.02137 0.69639 0.0
C317 C 0.57343 0.04246 0.6979 0.0
C318 C 0.62196 0.02542 0.67735 0.0
C319 C 0.62415 0.05053 0.6593 0.0
C320 C 0.60064 0.07143 0.66075 0.0
C321 C 0.57569 0.06752 0.67987 0.0
C322 C 0.68465 0.08747 0.61096 0.0
C323 C 0.69523 0.06271 0.59332 0.0
C324 C 0.66243 0.0834 0.6332 0.0
C325 C 0.65012 0.05451 0.6381 0.0
C326 C 0.6616 0.02965 0.62124 0.0
C327 C 0.68397 0.03369 0.5992 0.0
H328 H 0.36145 0.30998 0.02435 0.0
H329 H 0.39531 0.33927 0.93862 0.0
H330 H 0.32595 0.35135 0.02696 0.0
H331 H 0.36127 0.38138 0.9419 0.0
H332 H 0.28675 0.4475 0.9449 0.0
H333 H 0.3117 0.39911 0.94003 0.0
H334 H 0.32773 0.40337 0.03673 0.0
H335 H 0.30137 0.45062 0.0416 0.0
C336 C 0.3613 0.32527 0.00609 0.0
C337 C 0.38126 0.32149 0.98139 0.0
C338 C 0.34108 0.34909 0.00763 0.0
C339 C 0.34082 0.36996 0.98476 0.0
C340 C 0.36032 0.36557 0.95969 0.0
C341 C 0.38009 0.34149 0.95791 0.0
C342 C 0.29528 0.43779 0.96509 0.0
C343 C 0.2923 0.45287 -0.00642 0.0
C344 C 0.30975 0.41016 0.96233 0.0
C345 C 0.32206 0.39735 0.98795 0.0
C346 C 0.31817 0.41215 0.01654 0.0
C347 C 0.30324 0.43945 0.01933 0.0
H348 H 0.3258 0.63222 0.97911 0.0
H349 H 0.36013 0.57472 0.04636 0.0
H350 H 0.3734 0.66204 0.98183 0.0
H351 H 0.40804 0.60375 0.0483 0.0
H352 H 0.47066 0.68447 0.07291 0.0
H353 H 0.42547 0.65219 0.06715 0.0
H354 H 0.42741 0.66183 0.97038 0.0
H355 H 0.47247 0.69525 0.97628 0.0
C356 C 0.34363 0.62583 -0.00571 0.0
C357 C 0.33917 0.60136 0.01276 0.0
C358 C 0.37099 0.64274 -0.00435 0.0
C359 C 0.3945 0.63534 0.01535 0.0
C360 C 0.39019 0.6104 0.03329 0.0
C361 C 0.36277 0.59371 0.03213 0.0
C362 C 0.46167 0.67963 0.05032 0.0
C363 C 0.47518 0.69254 0.02504 0.0
C364 C 0.43579 0.66089 0.047 0.0
C365 C 0.42283 0.65434 0.0183 0.0
C366 C 0.43663 0.66675 -0.00713 0.0
C367 C 0.46255 0.68573 -0.00379 0.0
H368 H 0.56198 0.2896 0.95341 0.0
H369 H 0.52142 0.33588 0.03115 0.0
H370 H 0.60676 0.32304 0.95814 0.0
H371 H 0.56524 0.3707 0.03486 0.0
H372 H 0.65984 0.41402 0.04956 0.0
H373 H 0.61639 0.37838 0.04749 0.0
H374 H 0.62341 0.37133 0.94972 0.0
H375 H 0.66775 0.4052 0.95221 0.0
C376 C 0.56257 0.30715 0.97135 0.0
C377 C 0.53823 0.31017 -0.00814 0.0
C378 C 0.58815 0.32655 0.97398 0.0
C379 C 0.58968 0.34996 -0.00328 0.0
C380 C 0.56527 0.35276 0.01735 0.0
C381 C 0.53999 0.3329 0.01513 0.0
C382 C 0.65198 0.40472 0.02771 0.0
C383 C 0.66722 0.41216 0.00108 0.0
C384 C 0.62697 0.38441 0.02644 0.0
C385 C 0.61631 0.37163 -0.00158 0.0
C386 C 0.63131 0.37986 0.9718 0.0
C387 C 0.65664 0.39956 0.97316 0.0
H388 H 0.73863 0.57989 0.04064 0.0
H389 H 0.68605 0.56051 0.95902 0.0
H390 H 0.71639 0.62944 0.04635 0.0
H391 H 0.66299 0.60973 0.96522 0.0
H392 H 0.63475 0.69049 0.06967 0.0
H393 H 0.6675 0.64775 0.06077 0.0
H394 H 0.66965 0.66353 0.96516 0.0
H395 H 0.63603 0.70591 0.97396 0.0
C396 C 0.72241 0.58629 0.02381 0.0
C397 C 0.71385 0.5662 -0.00047 0.0
C398 C 0.70957 0.61466 0.02716 0.0
C399 C 0.68766 0.62351 0.00644 0.0
C400 C 0.68005 0.60384 0.98144 0.0
C401 C 0.6931 0.57552 0.97796 0.0
C402 C 0.64261 0.68523 0.04681 0.0
C403 C 0.63243 0.70143 0.0225 0.0
C404 C 0.66156 0.66073 0.04169 0.0
C405 C 0.67098 0.65195 0.01217 0.0
C406 C 0.66232 0.6693 0.98809 0.0
C407 C 0.64323 0.69375 -0.00681 0.0
H408 H 0.59222 0.8015 0.90094 0.0
H409 H 0.49454 0.80648 0.91364 0.0
H410 H 0.58888 0.8325 0.85723 0.0
H411 H 0.49129 0.83794 0.87051 0.0
H412 H 0.48893 0.88651 0.78607 0.0
H413 H 0.4965 0.84332 0.81666 0.0
H414 H 0.57956 0.88552 0.85311 0.0
H415 H 0.57238 0.92829 0.82199 0.0
C416 C 0.56997 0.80881 0.89412 0.0
C417 C 0.54368 0.80186 0.91095 0.0
C418 C 0.5681 0.8267 0.86917 0.0
C419 C 0.5399 0.83798 0.86057 0.0
C420 C 0.51336 0.8294 0.87629 0.0
C421 C 0.51523 0.8115 0.90118 0.0
C422 C 0.50916 0.88625 0.80013 0.0
C423 C 0.52986 0.91098 0.80196 0.0
C424 C 0.5134 0.86157 0.81777 0.0
C425 C 0.53837 0.86115 0.83766 0.0
C426 C 0.56018 0.88497 0.83787 0.0
C427 C 0.556 0.9096 0.82014 0.0
H428 H 0.15988 0.604 0.93274 0.0
H429 H 0.20409 0.51906 0.91577 0.0
H430 H 0.12233 0.5898 0.89346 0.0
H431 H 0.16745 0.50539 0.87588 0.0
H432 H 0.07835 0.47363 0.83392 0.0
H433 H 0.11514 0.49054 0.87244 0.0
H434 H 0.1143 0.58043 0.83984 0.0
H435 H 0.07631 0.56358 0.80169 0.0
C436 C 0.1618 0.58247 0.92036 0.0
C437 C 0.18472 0.5625 0.92754 0.0
C438 C 0.14038 0.5744 0.89776 0.0
C439 C 0.14167 0.54632 0.88175 0.0
C440 C 0.1653 0.52687 0.88829 0.0
C441 C 0.18643 0.53477 0.91105 0.0
C442 C 0.08595 0.49703 0.83494 0.0
C443 C 0.0746 0.51724 0.81463 0.0
C444 C 0.10723 0.50669 0.85693 0.0
C445 C 0.11806 0.53673 0.85895 0.0
C446 C 0.10629 0.55717 0.839 0.0
C447 C 0.08463 0.54752 0.8171 0.0
H448 H 0.52831 0.0782 0.8428 0.0
H449 H 0.44195 0.03345 0.86113 0.0
H450 H 0.52092 0.11294 0.88631 0.0
H451 H 0.43453 0.06852 0.90505 0.0
H452 H 0.41797 0.16743 0.94498 0.0
H453 H 0.42504 0.12419 0.90977 0.0
H454 H 0.51706 0.1158 0.9428 0.0
H455 H 0.51006 0.15929 0.97808 0.0
C456 C 0.50783 0.07563 0.85632 0.0
C457 C 0.48555 0.0533 0.84842 0.0
C458 C 0.50376 0.09537 0.88143 0.0
C459 C 0.47719 0.0934 0.89909 0.0
C460 C 0.45518 0.07059 0.8917 0.0
C461 C 0.45943 0.05053 0.86666 0.0
C462 C 0.43959 0.15614 0.94501 0.0
C463 C 0.46362 0.16697 0.96398 0.0
C464 C 0.44353 0.13121 0.92502 0.0
C465 C 0.47163 0.11674 0.92346 0.0
C466 C 0.49524 0.12675 0.94337 0.0
C467 C 0.49121 0.15156 0.96358 0.0
H468 H 0.94101 0.4249 0.8113 0.0
H469 H 0.90461 0.51114 0.79192 0.0
H470 H 0.90211 0.41863 0.84977 0.0
H471 H 0.86472 0.50432 0.82969 0.0
H472 H 0.823 0.49832 0.92505 0.0
H473 H 0.8586 0.50474 0.88317 0.0
H474 H 0.84991 0.40953 0.85867 0.0
H475 H 0.8156 0.40302 0.90114 0.0
C476 C 0.92431 0.44227 0.81482 0.0
C477 C 0.92599 0.46856 0.79859 0.0
C478 C 0.90185 0.43863 0.83686 0.0
C479 C 0.88023 0.46101 0.84298 0.0
C480 C 0.88132 0.48688 0.82601 0.0
C481 C 0.90403 0.49067 0.80416 0.0
C482 C 0.8287 0.47883 0.91063 0.0
C483 C 0.81679 0.45014 0.91661 0.0
C484 C 0.84893 0.48251 0.88648 0.0
C485 C 0.85734 0.4576 0.86758 0.0
C486 C 0.84457 0.4291 0.87311 0.0
C487 C 0.82475 0.42539 0.89743 0.0
H488 H 0.52298 0.12763 0.2033 0.0
H489 H 0.42787 0.1125 0.22559 0.0
H490 H 0.50952 0.17033 0.1746 0.0
H491 H 0.41437 0.15604 0.19756 0.0
H492 H 0.48392 0.24881 0.12683 0.0
H493 H 0.49058 0.21964 0.17137 0.0
H494 H 0.41204 0.16357 0.14458 0.0
H495 H 0.4048 0.19341 0.10082 0.0
C496 C 0.49926 0.13394 0.20275 0.0
C497 C 0.47644 0.1164 0.21627 0.0
C498 C 0.49151 0.15865 0.18646 0.0
C499 C 0.46076 0.16651 0.18347 0.0
C500 C 0.43819 0.15027 0.19893 0.0
C501 C 0.44595 0.12541 0.21512 0.0
C502 C 0.46757 0.23078 0.13097 0.0
C503 C 0.44415 0.22304 0.11008 0.0
C504 C 0.47151 0.21394 0.15639 0.0
C505 C 0.4523 0.18881 0.16122 0.0
C506 C 0.42722 0.18282 0.14173 0.0
C507 C 0.42311 0.19988 0.11648 0.0
H508 H 0.91257 0.54164 0.18058 0.0
H509 H 0.9195 0.44912 0.2043 0.0
H510 H 0.87458 0.52646 0.14238 0.0
H511 H 0.88043 0.434 0.16696 0.0
H512 H 0.83773 0.41421 0.07249 0.0
H513 H 0.87301 0.42745 0.11408 0.0
H514 H 0.8241 0.50929 0.13427 0.0
H515 H 0.78998 0.49669 0.09197 0.0
C516 C 0.9056 0.51811 0.17797 0.0
C517 C 0.91913 0.4966 0.19541 0.0
C518 C 0.88364 0.50936 0.15614 0.0
C519 C 0.87431 0.47894 0.1515 0.0
C520 C 0.88738 0.45753 0.16949 0.0
C521 C 0.90966 0.46624 0.19106 0.0
C522 C 0.83445 0.43488 0.08603 0.0
C523 C 0.81133 0.45455 0.07878 0.0
C524 C 0.85457 0.44246 0.10997 0.0
C525 C 0.85167 0.46966 0.12743 0.0
C526 C 0.8276 0.48859 0.12089 0.0
C527 C 0.80787 0.48125 0.09673 0.0
H528 H 0.50214 0.8291 0.07899 0.0
H529 H 0.58474 0.87196 0.04648 0.0
H530 H 0.49146 0.8738 0.11055 0.0
H531 H 0.57373 0.91729 0.07817 0.0
H532 H 0.56222 0.96921 0.17245 0.0
H533 H 0.57271 0.93071 0.133 0.0
H534 H 0.47713 0.92653 0.10844 0.0
H535 H 0.46648 0.96491 0.14844 0.0
C536 C 0.51798 0.84817 0.07845 0.0
C537 C 0.54443 0.84692 0.06039 0.0
C538 C 0.51165 0.87396 0.09633 0.0
C539 C 0.53161 0.89916 0.0967 0.0
C540 C 0.55798 0.89812 0.07842 0.0
C541 C 0.56429 0.87223 0.06032 0.0
C542 C 0.54346 0.96034 0.15842 0.0
C543 C 0.51343 0.96976 0.16382 0.0
C544 C 0.54955 0.93845 0.13563 0.0
C545 C 0.52573 0.92542 0.11777 0.0
C546 C 0.4959 0.9359 0.12217 0.0
C547 C 0.4898 0.95793 0.14496 0.0
H548 H 0.16836 0.6086 0.08219 0.0
H549 H 0.20559 0.52092 0.09336 0.0
H550 H 0.13065 0.59927 0.12121 0.0
H551 H 0.16875 0.51204 0.13348 0.0
H552 H 0.07524 0.4929 0.17749 0.0
H553 H 0.11612 0.50143 0.14098 0.0
H554 H 0.12342 0.59483 0.1732 0.0
H555 H 0.08179 0.58656 0.20834 0.0
C556 C 0.16884 0.58755 0.0934 0.0
C557 C 0.18988 0.56548 0.08466 0.0
C558 C 0.14729 0.5822 0.11592 0.0
C559 C 0.14658 0.55485 0.13058 0.0
C560 C 0.16821 0.53311 0.12232 0.0
C561 C 0.1895 0.5383 0.09949 0.0
C562 C 0.08576 0.51516 0.17677 0.0
C563 C 0.07511 0.53913 0.19544 0.0
C564 C 0.1093 0.52007 0.15599 0.0
C565 C 0.12292 0.54895 0.15387 0.0
C566 C 0.11297 0.57252 0.17355 0.0
C567 C 0.08919 0.56774 0.19385 0.0
H568 H 0.80179 0.94412 0.54341 0.0
H569 H 0.7849 0.94492 0.44725 0.0
H570 H 0.82752 0.89673 0.53601 0.0
H571 H 0.8093 0.89641 0.43984 0.0
H572 H 0.89313 0.83642 0.43445 0.0
H573 H 0.85897 0.87837 0.43989 0.0
H574 H 0.82511 0.845 0.52413 0.0
H575 H 0.86067 0.80378 0.51934 0.0
C576 C 0.80299 0.93378 0.52072 0.0
C577 C 0.79163 0.94836 0.49586 0.0
C578 C 0.81757 0.9064 0.51647 0.0
C579 C 0.82071 0.89267 0.48728 0.0
C580 C 0.80792 0.90661 0.46257 0.0
C581 C 0.79375 0.9343 0.46679 0.0
C582 C 0.87819 0.83787 0.454 0.0
C583 C 0.87983 0.81699 0.47664 0.0
C584 C 0.85835 0.86186 0.45703 0.0
C585 C 0.83929 0.86529 0.48255 0.0
C586 C 0.83992 0.8435 0.5045 0.0
C587 C 0.86018 0.81977 0.50171 0.0
H588 H 0.97495 0.18734 0.47204 0.0
H589 H 0.97863 0.17705 0.56867 0.0
H590 H 0.92976 0.15393 0.46874 0.0
H591 H 0.93323 0.14478 0.56552 0.0
H592 H 0.86515 0.06851 0.54862 0.0
H593 H 0.91361 0.09667 0.54809 0.0
H594 H 0.87675 0.1552 0.48301 0.0
H595 H 0.82868 0.12632 0.48276 0.0
C596 C 0.96622 0.1779 0.49252 0.0
C597 C 0.98037 0.18494 0.5206 0.0
C598 C 0.94022 0.15893 0.49068 0.0
C599 C 0.9278 0.14676 0.51689 0.0
C600 C 0.94241 0.15334 0.54481 0.0
C601 C 0.96841 0.17207 0.54662 0.0
C602 C 0.86745 0.08737 0.53418 0.0
C603 C 0.8431 0.09535 0.51588 0.0
C604 C 0.89518 0.10356 0.53392 0.0
C605 C 0.89905 0.12827 0.51558 0.0
C606 C 0.87473 0.13602 0.49705 0.0
C607 C 0.84708 0.11965 0.49711 0.0
H608 H 0.02077 0.83093 0.52382 0.0
H609 H 0.06207 0.78447 0.44661 0.0
H610 H 0.06548 0.86434 0.52925 0.0
H611 H 0.10781 0.81644 0.45312 0.0
H612 H 0.17317 0.89645 0.45213 0.0
H613 H 0.12791 0.86386 0.44676 0.0
H614 H 0.11582 0.86956 0.54408 0.0
H615 H 0.16004 0.90394 0.54895 0.0
C616 C 0.03968 0.82763 0.50825 0.0
C617 C 0.03793 0.8052 0.48472 0.0
C618 C 0.0655 0.84665 0.51149 0.0
C619 C 0.09053 0.84327 0.49167 0.0
C620 C 0.08884 0.82035 0.46843 0.0
C621 C 0.06269 0.8018 0.46477 0.0
C622 C 0.16074 0.89074 0.47234 0.0
C623 C 0.17004 0.90272 0.50094 0.0
C624 C 0.13487 0.8718 0.46933 0.0
C625 C 0.11805 0.86373 0.49498 0.0
C626 C 0.12768 0.87561 0.5237 0.0
C627 C 0.15318 0.89517 0.52659 0.0
H628 H 0.12143 0.18183 0.46683 0.0
H629 H 0.15685 0.20289 0.55681 0.0
H630 H 0.15296 0.13784 0.4622 0.0
H631 H 0.18987 0.15969 0.5516 0.0
H632 H 0.20379 0.0584 0.5518 0.0
H633 H 0.18196 0.1079 0.5535 0.0
H634 H 0.19989 0.11414 0.45773 0.0
H635 H 0.22042 0.06355 0.45589 0.0
C636 C 0.13669 0.17759 0.4853 0.0
C637 C 0.1363 0.19559 0.51239 0.0
C638 C 0.15496 0.15232 0.48259 0.0
C639 C 0.17366 0.14474 0.50674 0.0
C640 C 0.17507 0.16425 0.53288 0.0
C641 C 0.15636 0.18921 0.5358 0.0
C642 C 0.20322 0.07038 0.53111 0.0
C643 C 0.21359 0.05699 0.50366 0.0
C644 C 0.19097 0.09902 0.53213 0.0
C645 C 0.18921 0.1153 0.50578 0.0
C646 C 0.20043 0.10217 0.47841 0.0
C647 C 0.21229 0.07322 0.47732 0.0
loop_
_geom_bond_atom_site_label_1
_geom_bond_atom_site_label_2
_geom_bond_distance
_geom_bond_site_symmetry_2
_ccdc_geom_bond_type
C0 O1 1.306 . S
C0 O3 1.160 . S
O1 C0 1.306 . S
O1 Cd2 2.228 . S
Cd2 O1 2.228 . S
Cd2 O6 2.273 . S
Cd2 O10 2.277 1_655 S
O3 C0 1.160 . S
O3 Cd4 2.203 1_655 S
Cd4 O3 2.203 1_455 S
Cd4 O6 2.411 1_455 S
Cd4 O7 2.333 . S
Cd4 O8 2.352 1_455 S
Cd4 O12 2.277 . S
Cd4 O13 2.356 . S
C5 O10 1.209 . S
C5 O12 1.226 . S
O6 Cd2 2.273 . S
O6 Cd4 2.411 1_655 S
O6 C9 1.320 1_655 S
O7 Cd4 2.333 . S
O7 C9 1.214 . S
O8 Cd4 2.352 1_655 S
O8 C11 1.258 . S
C9 O6 1.320 1_455 S
C9 O7 1.214 . S
O10 Cd2 2.277 1_455 S
O10 C5 1.209 . S
C11 O8 1.258 . S
C11 O13 1.282 1_655 S
O12 Cd4 2.277 . S
O12 C5 1.226 . S
O13 Cd4 2.356 . S
O13 C11 1.282 1_455 S
C14 O15 1.306 . S
C14 O17 1.160 1_545 S
O15 C14 1.306 . S
O15 Cd16 2.228 . S
Cd16 O15 2.228 . S
Cd16 O20 2.273 . S
Cd16 O24 2.277 . S
O17 C14 1.160 1_565 S
O17 Cd18 2.203 1_565 S
Cd18 O17 2.203 1_545 S
Cd18 O20 2.411 . S
Cd18 O21 2.333 . S
Cd18 O22 2.352 1_545 S
Cd18 O26 2.275 1_545 S
Cd18 O27 2.356 1_545 S
C19 O24 1.209 . S
C19 O26 1.208 1_545 S
O20 Cd16 2.273 . S
O20 Cd18 2.411 . S
O20 C23 1.320 . S
O21 Cd18 2.333 . S
O21 C23 1.214 . S
O22 Cd18 2.352 1_565 S
O22 C25 1.258 . S
C23 O20 1.320 . S
C23 O21 1.214 . S
O24 Cd16 2.277 . S
O24 C19 1.209 . S
C25 O22 1.258 . S
C25 O27 1.282 . S
O26 Cd18 2.275 1_565 S
O26 C19 1.208 1_565 S
O27 Cd18 2.356 1_565 S
O27 C25 1.282 . S
C28 O29 1.306 . S
C28 O31 1.160 . S
O29 C28 1.306 . S
O29 Cd30 2.228 1_655 S
Cd30 O29 2.228 1_455 S
Cd30 O34 2.273 . S
Cd30 O38 2.277 . S
O31 C28 1.160 . S
O31 Cd32 2.203 1_655 S
Cd32 O31 2.203 1_455 S
Cd32 O34 2.411 . S
Cd32 O35 2.333 . S
Cd32 O36 2.352 1_455 S
Cd32 O40 2.277 . S
Cd32 O41 2.356 . S
C33 O38 1.209 . S
C33 O40 1.226 . S
O34 Cd30 2.273 . S
O34 Cd32 2.411 . S
O34 C37 1.320 . S
O35 Cd32 2.333 . S
O35 C37 1.214 . S
O36 Cd32 2.352 1_655 S
O36 C39 1.258 1_655 S
C37 O34 1.320 . S
C37 O35 1.214 . S
O38 Cd30 2.277 . S
O38 C33 1.209 . S
C39 O36 1.258 1_455 S
C39 O41 1.282 . S
O40 Cd32 2.277 . S
O40 C33 1.226 . S
O41 Cd32 2.356 . S
O41 C39 1.282 . S
C42 O43 1.306 1_545 S
C42 O45 1.160 . S
O43 C42 1.306 1_565 S
O43 Cd44 2.228 . S
Cd44 O43 2.228 . S
Cd44 O48 2.273 . S
Cd44 O52 2.277 . S
O45 C42 1.160 . S
O45 Cd46 2.203 . S
Cd46 O45 2.203 . S
Cd46 O48 2.411 1_545 S
Cd46 O49 2.333 1_545 S
Cd46 O50 2.352 . S
Cd46 O54 2.277 . S
Cd46 O55 2.356 . S
C47 O52 1.209 1_545 S
C47 O54 1.226 . S
O48 Cd44 2.273 . S
O48 Cd46 2.411 1_565 S
O48 C51 1.320 . S
O49 Cd46 2.333 1_565 S
O49 C51 1.214 . S
O50 Cd46 2.352 . S
O50 C53 1.258 . S
C51 O48 1.320 . S
C51 O49 1.214 . S
O52 Cd44 2.277 . S
O52 C47 1.209 1_565 S
C53 O50 1.258 . S
C53 O55 1.282 . S
O54 Cd46 2.277 . S
O54 C47 1.226 . S
O55 Cd46 2.356 . S
O55 C53 1.282 . S
C56 O57 1.306 1_545 S
C56 O59 1.160 . S
O57 C56 1.306 1_565 S
O57 Cd58 2.228 . S
Cd58 O57 2.228 . S
Cd58 O62 2.273 . S
Cd58 O66 2.277 . S
O59 C56 1.160 . S
O59 Cd60 2.203 . S
Cd60 O59 2.203 . S
Cd60 O62 2.411 1_545 S
Cd60 O63 2.333 1_545 S
Cd60 O64 2.352 . S
Cd60 O68 2.277 . S
Cd60 O69 2.356 . S
C61 O66 1.209 1_545 S
C61 O68 1.226 . S
O62 Cd58 2.273 . S
O62 Cd60 2.411 1_565 S
O62 C65 1.320 . S
O63 Cd60 2.333 1_565 S
O63 C65 1.214 . S
O64 Cd60 2.352 . S
O64 C67 1.258 . S
C65 O62 1.320 . S
C65 O63 1.214 . S
O66 Cd58 2.277 . S
O66 C61 1.209 1_565 S
C67 O64 1.258 . S
C67 O69 1.282 . S
O68 Cd60 2.277 . S
O68 C61 1.226 . S
O69 Cd60 2.356 . S
O69 C67 1.282 . S
C70 O71 1.306 . S
C70 O73 1.160 . S
O71 C70 1.306 . S
O71 Cd72 2.228 . S
Cd72 O71 2.228 . S
Cd72 O76 2.273 . S
Cd72 O80 2.277 1_455 S
O73 C70 1.160 . S
O73 Cd74 2.203 . S
Cd74 O73 2.203 . S
Cd74 O76 2.411 . S
Cd74 O77 2.333 1_455 S
Cd74 O78 2.352 . S
Cd74 O82 2.277 1_455 S
Cd74 O83 2.356 1_455 S
C75 O80 1.209 . S
C75 O82 1.226 . S
O76 Cd72 2.273 . S
O76 Cd74 2.411 . S
O76 C79 1.343 . S
O77 Cd74 2.333 1_655 S
O77 C79 1.194 1_655 S
O78 Cd74 2.352 . S
O78 C81 1.258 . S
C79 O76 1.343 . S
C79 O77 1.194 1_455 S
O80 Cd72 2.277 1_655 S
O80 C75 1.209 . S
C81 O78 1.258 . S
C81 O83 1.282 1_455 S
O82 Cd74 2.277 1_655 S
O82 C75 1.226 . S
O83 Cd74 2.356 1_655 S
O83 C81 1.282 1_655 S
C84 O85 1.306 . S
C84 O87 1.160 1_545 S
O85 C84 1.306 . S
O85 Cd86 2.228 . S
Cd86 O85 2.228 . S
Cd86 O90 2.273 . S
Cd86 O94 2.277 . S
O87 C84 1.160 1_565 S
O87 Cd88 2.203 1_565 S
Cd88 O87 2.203 1_545 S
Cd88 O90 2.411 . S
Cd88 O91 2.333 . S
Cd88 O92 2.352 1_545 S
Cd88 O96 2.277 . S
Cd88 O97 2.356 1_545 S
C89 O94 1.209 . S
C89 O96 1.226 . S
O90 Cd86 2.273 . S
O90 Cd88 2.411 . S
O90 C93 1.320 . S
O91 Cd88 2.333 . S
O91 C93 1.214 . S
O92 Cd88 2.352 1_565 S
O92 C95 1.258 . S
C93 O90 1.320 . S
C93 O91 1.214 . S
O94 Cd86 2.277 . S
O94 C89 1.209 . S
C95 O92 1.258 . S
C95 O97 1.282 . S
O96 Cd88 2.277 . S
O96 C89 1.226 . S
O97 Cd88 2.356 1_565 S
O97 C95 1.282 . S
C98 O99 1.306 . S
C98 O101 1.160 . S
O99 C98 1.306 . S
O99 Cd100 2.228 . S
Cd100 O99 2.228 . S
Cd100 O104 2.273 . S
Cd100 O108 2.277 1_455 S
O101 C98 1.160 . S
O101 Cd102 2.203 . S
Cd102 O101 2.203 . S
Cd102 O104 2.411 . S
Cd102 O105 2.333 1_455 S
Cd102 O106 2.352 . S
Cd102 O110 2.277 1_455 S
Cd102 O111 2.356 1_455 S
C103 O108 1.209 . S
C103 O110 1.226 . S
O104 Cd100 2.273 . S
O104 Cd102 2.411 . S
O104 C107 1.320 1_455 S
O105 Cd102 2.333 1_655 S
O105 C107 1.214 . S
O106 Cd102 2.352 . S
O106 C109 1.258 . S
C107 O104 1.320 1_655 S
C107 O105 1.214 . S
O108 Cd100 2.277 1_655 S
O108 C103 1.209 . S
C109 O106 1.258 . S
C109 O111 1.282 1_455 S
O110 Cd102 2.277 1_655 S
O110 C103 1.226 . S
O111 Cd102 2.356 1_655 S
O111 C109 1.282 1_655 S
C112 O113 1.306 . S
C112 O115 1.160 . S
O113 C112 1.306 . S
O113 Cd114 2.227 1_556 S
Cd114 O113 2.227 1_554 S
Cd114 O118 2.272 . S
Cd114 O122 2.278 . S
O115 C112 1.160 . S
O115 Cd116 2.203 1_556 S
Cd116 O115 2.203 1_554 S
Cd116 O118 2.421 . S
Cd116 O119 2.333 . S
Cd116 O120 2.352 1_554 S
Cd116 O124 2.277 . S
Cd116 O125 2.356 . S
C117 O122 1.209 . S
C117 O124 1.226 . S
O118 Cd114 2.272 . S
O118 Cd116 2.421 . S
O118 C121 1.343 . S
O119 Cd116 2.333 . S
O119 C121 1.214 . S
O120 Cd116 2.352 1_556 S
O120 C123 1.258 1_556 S
C121 O118 1.343 . S
C121 O119 1.214 . S
O122 Cd114 2.278 . S
O122 C117 1.209 . S
C123 O120 1.258 1_554 S
C123 O125 1.282 . S
O124 Cd116 2.277 . S
O124 C117 1.226 . S
O125 Cd116 2.356 . S
O125 C123 1.282 . S
C126 O127 1.306 1_554 S
C126 O129 1.160 . S
O127 C126 1.306 1_556 S
O127 Cd128 2.228 . S
Cd128 O127 2.228 . S
Cd128 O132 2.273 . S
Cd128 O136 2.277 . S
O129 C126 1.160 . S
O129 Cd130 2.203 . S
Cd130 O129 2.203 . S
Cd130 O132 2.411 1_554 S
Cd130 O133 2.333 1_554 S
Cd130 O134 2.352 . S
Cd130 O138 2.277 . S
Cd130 O139 2.356 . S
C131 O136 1.215 . S
C131 O138 1.219 1_556 S
O132 Cd128 2.273 . S
O132 Cd130 2.411 1_556 S
O132 C135 1.320 . S
O133 Cd130 2.333 1_556 S
O133 C135 1.214 . S
O134 Cd130 2.352 . S
O134 C137 1.258 . S
C135 O132 1.320 . S
C135 O133 1.214 . S
O136 Cd128 2.277 . S
O136 C131 1.215 . S
C137 O134 1.258 . S
C137 O139 1.282 . S
O138 Cd130 2.277 . S
O138 C131 1.219 1_554 S
O139 Cd130 2.356 . S
O139 C137 1.282 . S
C140 O141 1.306 . S
C140 O143 1.160 . S
O141 C140 1.306 . S
O141 Cd142 2.228 . S
Cd142 O141 2.228 . S
Cd142 O146 2.274 . S
Cd142 O150 2.277 1_556 S
O143 C140 1.160 . S
O143 Cd144 2.203 1_556 S
Cd144 O143 2.203 1_554 S
Cd144 O146 2.402 1_554 S
Cd144 O147 2.333 . S
Cd144 O148 2.352 1_554 S
Cd144 O152 2.277 . S
Cd144 O153 2.356 . S
C145 O150 1.209 . S
C145 O152 1.226 . S
O146 Cd142 2.274 . S
O146 Cd144 2.402 1_556 S
O146 C149 1.295 1_556 S
O147 Cd144 2.333 . S
O147 C149 1.214 . S
O148 Cd144 2.352 1_556 S
O148 C151 1.258 1_556 S
C149 O146 1.295 1_554 S
C149 O147 1.214 . S
O150 Cd142 2.277 1_554 S
O150 C145 1.209 . S
C151 O148 1.258 1_554 S
C151 O153 1.282 . S
O152 Cd144 2.277 . S
O152 C145 1.226 . S
O153 Cd144 2.356 . S
O153 C151 1.282 . S
C154 O155 1.306 . S
C154 O157 1.160 1_554 S
O155 C154 1.306 . S
O155 Cd156 2.228 . S
Cd156 O155 2.228 . S
Cd156 O160 2.273 . S
Cd156 O164 2.277 . S
O157 C154 1.160 1_556 S
O157 Cd158 2.203 1_556 S
Cd158 O157 2.203 1_554 S
Cd158 O160 2.411 . S
Cd158 O161 2.333 . S
Cd158 O162 2.352 1_554 S
Cd158 O166 2.277 . S
Cd158 O167 2.356 1_554 S
C159 O164 1.209 . S
C159 O166 1.226 . S
O160 Cd156 2.273 . S
O160 Cd158 2.411 . S
O160 C163 1.320 . S
O161 Cd158 2.333 . S
O161 C163 1.214 . S
O162 Cd158 2.352 1_556 S
O162 C165 1.258 . S
C163 O160 1.320 . S
C163 O161 1.214 . S
O164 Cd156 2.277 . S
O164 C159 1.209 . S
C165 O162 1.258 . S
C165 O167 1.282 . S
O166 Cd158 2.277 . S
O166 C159 1.226 . S
O167 Cd158 2.356 1_556 S
O167 C165 1.282 . S
H168 C176 0.950 . S
H169 C181 0.950 . S
H170 C178 0.950 . S
H171 C180 0.950 . S
H172 C182 0.950 . S
H173 C184 0.950 . S
H174 C186 0.950 . S
H175 C187 0.950 . S
C176 H168 0.950 . S
C176 C177 1.386 . S
C176 C178 1.391 . S
C177 C176 1.386 . S
C177 C181 1.393 1_655 S
C178 H170 0.950 . S
C178 C176 1.391 . S
C178 C179 1.400 1_655 S
C179 C178 1.400 1_455 S
C179 C180 1.398 . S
C179 C185 1.491 . S
C180 H171 0.950 . S
C180 C179 1.398 . S
C180 C181 1.391 . S
C181 H169 0.950 . S
C181 C177 1.393 1_455 S
C181 C180 1.391 . S
C182 H172 0.950 . S
C182 C183 1.386 . S
C182 C184 1.391 . S
C183 C182 1.386 . S
C183 C187 1.393 1_455 S
C184 H173 0.950 . S
C184 C182 1.391 . S
C184 C185 1.400 . S
C185 C179 1.491 . S
C185 C184 1.400 . S
C185 C186 1.398 1_455 S
C186 H174 0.950 . S
C186 C185 1.398 1_655 S
C186 C187 1.391 . S
C187 H175 0.950 . S
C187 C183 1.393 1_655 S
C187 C186 1.391 . S
H188 C196 0.950 . S
H189 C201 0.950 . S
H190 C198 0.950 . S
H191 C200 0.950 . S
H192 C202 0.950 . S
H193 C204 0.950 . S
H194 C206 0.950 . S
H195 C207 0.950 . S
C196 H188 0.950 . S
C196 C197 1.386 1_565 S
C196 C198 1.391 . S
C197 C196 1.386 1_545 S
C197 C201 1.393 . S
C198 H190 0.950 . S
C198 C196 1.391 . S
C198 C199 1.400 1_565 S
C199 C198 1.400 1_545 S
C199 C200 1.398 . S
C199 C205 1.491 . S
C200 H191 0.950 . S
C200 C199 1.398 . S
C200 C201 1.391 . S
C201 H189 0.950 . S
C201 C197 1.393 . S
C201 C200 1.391 . S
C202 H192 0.950 . S
C202 C203 1.386 . S
C202 C204 1.391 . S
C203 C202 1.386 . S
C203 C207 1.393 1_545 S
C204 H193 0.950 . S
C204 C202 1.391 . S
C204 C205 1.400 . S
C205 C199 1.491 . S
C205 C204 1.400 . S
C205 C206 1.398 1_545 S
C206 H194 0.950 . S
C206 C205 1.398 1_565 S
C206 C207 1.391 . S
C207 H195 0.950 . S
C207 C203 1.393 1_565 S
C207 C206 1.391 . S
H208 C216 0.950 . S
H209 C221 0.950 . S
H210 C218 0.950 . S
H211 C220 0.950 . S
H212 C222 0.950 . S
H213 C224 0.950 . S
H214 C226 0.950 . S
H215 C227 0.950 . S
C216 H208 0.950 . S
C216 C217 1.386 1_655 S
C216 C218 1.391 . S
C217 C216 1.386 1_455 S
C217 C221 1.393 . S
C218 H210 0.950 . S
C218 C216 1.391 . S
C218 C219 1.400 1_655 S
C219 C218 1.400 1_455 S
C219 C220 1.398 . S
C219 C225 1.491 . S
C220 H211 0.950 . S
C220 C219 1.398 . S
C220 C221 1.391 . S
C221 H209 0.950 . S
C221 C217 1.393 . S
C221 C220 1.391 . S
C222 H212 0.950 . S
C222 C223 1.386 . S
C222 C224 1.391 . S
C223 C222 1.386 . S
C223 C227 1.393 1_455 S
C224 H213 0.950 . S
C224 C222 1.391 . S
C224 C225 1.400 . S
C225 C219 1.491 . S
C225 C224 1.400 . S
C225 C226 1.398 1_455 S
C226 H214 0.950 . S
C226 C225 1.398 1_655 S
C226 C227 1.391 . S
C227 H215 0.950 . S
C227 C223 1.393 1_655 S
C227 C226 1.391 . S
H228 C236 0.950 . S
H229 C241 0.950 . S
H230 C238 0.950 . S
H231 C240 0.950 . S
H232 C242 0.950 1_565 S
H233 C244 0.950 . S
H234 C246 0.950 . S
H235 C247 0.950 . S
C236 H228 0.950 . S
C236 C237 1.386 . S
C236 C238 1.391 . S
C237 C236 1.386 . S
C237 C241 1.393 . S
C238 H230 0.950 . S
C238 C236 1.391 . S
C238 C239 1.400 . S
C239 C238 1.400 . S
C239 C240 1.398 . S
C239 C245 1.491 . S
C240 H231 0.950 . S
C240 C239 1.398 . S
C240 C241 1.391 . S
C241 H229 0.950 . S
C241 C237 1.393 . S
C241 C240 1.391 . S
C242 H232 0.950 1_545 S
C242 C243 1.386 . S
C242 C244 1.391 . S
C243 C242 1.386 . S
C243 C247 1.393 . S
C244 H233 0.950 . S
C244 C242 1.391 . S
C244 C245 1.400 . S
C245 C239 1.491 . S
C245 C244 1.400 . S
C245 C246 1.398 . S
C246 H234 0.950 . S
C246 C245 1.398 . S
C246 C247 1.391 . S
C247 H235 0.950 . S
C247 C243 1.393 . S
C247 C246 1.391 . S
H248 C256 0.957 . S
H249 C261 0.950 . S
H250 C258 0.950 . S
H251 C260 0.950 . S
H252 C262 0.950 . S
H253 C264 0.950 . S
H254 C266 0.950 . S
H255 C267 0.950 . S
C256 H248 0.957 . S
C256 C257 1.376 1_655 S
C256 C258 1.393 . S
C257 C256 1.376 1_455 S
C257 C261 1.393 . S
C258 H250 0.950 . S
C258 C256 1.393 . S
C258 C259 1.400 1_655 S
C259 C258 1.400 1_455 S
C259 C260 1.398 . S
C259 C265 1.491 . S
C260 H251 0.950 . S
C260 C259 1.398 . S
C260 C261 1.391 . S
C261 H249 0.950 . S
C261 C257 1.393 . S
C261 C260 1.391 . S
C262 H252 0.950 . S
C262 C263 1.386 . S
C262 C264 1.391 . S
C263 C262 1.386 . S
C263 C267 1.393 1_455 S
C264 H253 0.950 . S
C264 C262 1.391 . S
C264 C265 1.400 . S
C265 C259 1.491 . S
C265 C264 1.400 . S
C265 C266 1.398 1_455 S
C266 H254 0.950 . S
C266 C265 1.398 1_655 S
C266 C267 1.391 . S
C267 H255 0.950 . S
C267 C263 1.393 1_655 S
C267 C266 1.391 . S
H268 C276 0.950 . S
H269 C281 0.945 1_565 S
H270 C278 0.950 . S
H271 C280 0.950 1_565 S
H272 C282 0.950 . S
H273 C284 0.950 . S
H274 C286 0.950 . S
H275 C287 0.950 . S
C276 H268 0.950 . S
C276 C277 1.386 . S
C276 C278 1.391 . S
C277 C276 1.386 . S
C277 C281 1.393 . S
C278 H270 0.950 . S
C278 C276 1.391 . S
C278 C279 1.400 . S
C279 C278 1.400 . S
C279 C280 1.398 . S
C279 C285 1.491 . S
C280 H271 0.950 1_545 S
C280 C279 1.398 . S
C280 C281 1.391 . S
C281 H269 0.945 1_545 S
C281 C277 1.393 . S
C281 C280 1.391 . S
C282 H272 0.950 . S
C282 C283 1.386 1_565 S
C282 C284 1.391 . S
C283 C282 1.386 1_545 S
C283 C287 1.393 . S
C284 H273 0.950 . S
C284 C282 1.391 . S
C284 C285 1.400 1_565 S
C285 C279 1.491 . S
C285 C284 1.400 1_545 S
C285 C286 1.398 . S
C286 H274 0.950 . S
C286 C285 1.398 . S
C286 C287 1.391 . S
C287 H275 0.950 . S
C287 C283 1.393 . S
C287 C286 1.391 . S
H288 C296 0.950 . S
H289 C301 0.950 . S
H290 C298 0.950 . S
H291 C300 0.950 . S
H292 C302 0.950 . S
H293 C304 0.950 . S
H294 C306 0.950 . S
H295 C307 0.950 . S
C296 H288 0.950 . S
C296 C297 1.386 . S
C296 C298 1.391 . S
C297 C296 1.386 . S
C297 C301 1.393 . S
C298 H290 0.950 . S
C298 C296 1.391 . S
C298 C299 1.400 . S
C299 C298 1.400 . S
C299 C300 1.398 . S
C299 C305 1.491 . S
C300 H291 0.950 . S
C300 C299 1.398 . S
C300 C301 1.391 . S
C301 H289 0.950 . S
C301 C297 1.393 . S
C301 C300 1.391 . S
C302 H292 0.950 . S
C302 C303 1.383 1_455 S
C302 C304 1.394 . S
C303 C302 1.383 1_655 S
C303 C307 1.393 . S
C304 H293 0.950 . S
C304 C302 1.394 . S
C304 C305 1.400 . S
C305 C299 1.491 . S
C305 C304 1.400 . S
C305 C306 1.398 1_455 S
C306 H294 0.950 . S
C306 C305 1.398 1_655 S
C306 C307 1.391 . S
C307 H295 0.950 . S
C307 C303 1.393 . S
C307 C306 1.391 . S
H308 C316 0.950 . S
H309 C321 0.950 . S
H310 C318 0.950 . S
H311 C320 0.950 . S
H312 C322 0.950 . S
H313 C324 0.950 . S
H314 C326 0.950 1_565 S
H315 C327 0.937 1_565 S
C316 H308 0.950 . S
C316 C317 1.386 1_565 S
C316 C318 1.391 . S
C317 C316 1.386 1_545 S
C317 C321 1.393 . S
C318 H310 0.950 . S
C318 C316 1.391 . S
C318 C319 1.400 1_565 S
C319 C318 1.400 1_545 S
C319 C320 1.398 . S
C319 C325 1.491 . S
C320 H311 0.950 . S
C320 C319 1.398 . S
C320 C321 1.391 . S
C321 H309 0.950 . S
C321 C317 1.393 . S
C321 C320 1.391 . S
C322 H312 0.950 . S
C322 C323 1.386 . S
C322 C324 1.391 . S
C323 C322 1.386 . S
C323 C327 1.393 . S
C324 H313 0.950 . S
C324 C322 1.391 . S
C324 C325 1.400 . S
C325 C319 1.491 . S
C325 C324 1.400 . S
C325 C326 1.398 . S
C326 H314 0.950 1_545 S
C326 C325 1.398 . S
C326 C327 1.391 . S
C327 H315 0.937 1_545 S
C327 C323 1.393 . S
C327 C326 1.391 . S
H328 C336 0.950 . S
H329 C341 0.950 . S
H330 C338 0.950 . S
H331 C340 0.950 . S
H332 C342 0.950 . S
H333 C344 0.950 . S
H334 C346 0.950 . S
H335 C347 0.950 . S
C336 H328 0.950 . S
C336 C337 1.386 . S
C336 C338 1.391 . S
C337 C336 1.386 . S
C337 C341 1.393 1_554 S
C338 H330 0.950 . S
C338 C336 1.391 . S
C338 C339 1.400 . S
C339 C338 1.400 . S
C339 C340 1.398 1_554 S
C339 C345 1.491 . S
C340 H331 0.950 . S
C340 C339 1.398 1_556 S
C340 C341 1.391 . S
C341 H329 0.950 . S
C341 C337 1.393 1_556 S
C341 C340 1.391 . S
C342 H332 0.950 . S
C342 C343 1.408 . S
C342 C344 1.391 . S
C343 C342 1.408 . S
C343 C347 1.366 1_556 S
C344 H333 0.950 . S
C344 C342 1.391 . S
C344 C345 1.400 1_556 S
C345 C339 1.491 . S
C345 C344 1.400 1_554 S
C345 C346 1.398 . S
C346 H334 0.950 . S
C346 C345 1.398 . S
C346 C347 1.391 . S
C347 H335 0.950 . S
C347 C343 1.366 1_554 S
C347 C346 1.391 . S
H348 C356 0.950 1_556 S
H349 C361 0.950 . S
H350 C358 0.950 1_556 S
H351 C360 0.950 . S
H352 C362 0.950 . S
H353 C364 0.950 . S
H354 C366 0.950 . S
H355 C367 0.950 . S
C356 H348 0.950 1_554 S
C356 C357 1.386 . S
C356 C358 1.391 . S
C357 C356 1.386 . S
C357 C361 1.393 . S
C358 H350 0.950 1_554 S
C358 C356 1.391 . S
C358 C359 1.400 . S
C359 C358 1.400 . S
C359 C360 1.398 . S
C359 C365 1.491 . S
C360 H351 0.950 . S
C360 C359 1.398 . S
C360 C361 1.391 . S
C361 H349 0.950 . S
C361 C357 1.393 . S
C361 C360 1.391 . S
C362 H352 0.950 . S
C362 C363 1.386 . S
C362 C364 1.391 . S
C363 C362 1.386 . S
C363 C367 1.393 1_554 S
C364 H353 0.950 . S
C364 C362 1.391 . S
C364 C365 1.400 . S
C365 C359 1.491 . S
C365 C364 1.400 . S
C365 C366 1.398 1_554 S
C366 H354 0.950 . S
C366 C365 1.398 1_556 S
C366 C367 1.391 . S
C367 H355 0.950 . S
C367 C363 1.393 1_556 S
C367 C366 1.391 . S
H368 C376 0.950 . S
H369 C381 0.950 . S
H370 C378 0.950 . S
H371 C380 0.950 . S
H372 C382 0.950 . S
H373 C384 0.950 . S
H374 C386 0.950 . S
H375 C387 0.950 1_556 S
C376 H368 0.950 . S
C376 C377 1.386 . S
C376 C378 1.391 . S
C377 C376 1.386 . S
C377 C381 1.393 1_556 S
C378 H370 0.950 . S
C378 C376 1.391 . S
C378 C379 1.400 1_556 S
C379 C378 1.400 1_554 S
C379 C380 1.398 . S
C379 C385 1.491 . S
C380 H371 0.950 . S
C380 C379 1.398 . S
C380 C381 1.391 . S
C381 H369 0.950 . S
C381 C377 1.393 1_554 S
C381 C380 1.391 . S
C382 H372 0.950 . S
C382 C383 1.386 . S
C382 C384 1.391 . S
C383 C382 1.386 . S
C383 C387 1.393 . S
C384 H373 0.950 . S
C384 C382 1.391 . S
C384 C385 1.400 . S
C385 C379 1.491 . S
C385 C384 1.400 . S
C385 C386 1.398 1_554 S
C386 H374 0.950 . S
C386 C385 1.398 1_556 S
C386 C387 1.391 1_556 S
C387 H375 0.950 1_554 S
C387 C383 1.393 . S
C387 C386 1.391 1_554 S
H388 C396 0.950 1_556 S
H389 C401 0.950 . S
H390 C398 0.950 . S
H391 C400 0.950 . S
H392 C402 0.950 . S
H393 C404 0.950 . S
H394 C406 0.950 . S
H395 C407 0.950 . S
C396 H388 0.950 1_554 S
C396 C397 1.386 . S
C396 C398 1.391 . S
C397 C396 1.386 . S
C397 C401 1.393 . S
C398 H390 0.950 . S
C398 C396 1.391 . S
C398 C399 1.400 . S
C399 C398 1.400 . S
C399 C400 1.398 . S
C399 C405 1.491 . S
C400 H391 0.950 . S
C400 C399 1.398 . S
C400 C401 1.391 . S
C401 H389 0.950 . S
C401 C397 1.393 . S
C401 C400 1.391 . S
C402 H392 0.950 . S
C402 C403 1.386 . S
C402 C404 1.391 . S
C403 C402 1.386 . S
C403 C407 1.393 . S
C404 H393 0.950 . S
C404 C402 1.391 . S
C404 C405 1.400 . S
C405 C399 1.491 . S
C405 C404 1.400 . S
C405 C406 1.398 . S
C406 H394 0.950 . S
C406 C405 1.398 . S
C406 C407 1.391 . S
C407 H395 0.950 . S
C407 C403 1.393 . S
C407 C406 1.391 . S
H408 C416 0.950 . S
H409 C421 0.950 . S
H410 C418 0.950 . S
H411 C420 0.950 . S
H412 C422 0.950 . S
H413 C424 0.950 . S
H414 C426 0.950 . S
H415 C427 0.950 . S
C416 H408 0.950 . S
C416 C417 1.386 . S
C416 C418 1.391 . S
C417 C416 1.386 . S
C417 C421 1.393 . S
C418 H410 0.950 . S
C418 C416 1.391 . S
C418 C419 1.400 . S
C419 C418 1.400 . S
C419 C420 1.398 . S
C419 C425 1.491 . S
C420 H411 0.950 . S
C420 C419 1.398 . S
C420 C421 1.391 . S
C421 H409 0.950 . S
C421 C417 1.393 . S
C421 C420 1.391 . S
C422 H412 0.950 . S
C422 C423 1.386 . S
C422 C424 1.391 . S
C423 C422 1.386 . S
C423 C427 1.393 . S
C424 H413 0.950 . S
C424 C422 1.391 . S
C424 C425 1.400 . S
C425 C419 1.491 . S
C425 C424 1.400 . S
C425 C426 1.398 . S
C426 H414 0.950 . S
C426 C425 1.398 . S
C426 C427 1.391 . S
C427 H415 0.950 . S
C427 C423 1.393 . S
C427 C426 1.391 . S
H428 C436 0.950 . S
H429 C441 0.950 . S
H430 C438 0.950 . S
H431 C440 0.950 . S
H432 C442 0.950 . S
H433 C444 0.950 . S
H434 C446 0.950 . S
H435 C447 0.950 . S
C436 H428 0.950 . S
C436 C437 1.386 . S
C436 C438 1.391 . S
C437 C436 1.386 . S
C437 C441 1.393 . S
C438 H430 0.950 . S
C438 C436 1.391 . S
C438 C439 1.400 . S
C439 C438 1.400 . S
C439 C440 1.398 . S
C439 C445 1.491 . S
C440 H431 0.950 . S
C440 C439 1.398 . S
C440 C441 1.391 . S
C441 H429 0.950 . S
C441 C437 1.393 . S
C441 C440 1.391 . S
C442 H432 0.950 . S
C442 C443 1.386 . S
C442 C444 1.391 . S
C443 C442 1.386 . S
C443 C447 1.393 . S
C444 H433 0.950 . S
C444 C442 1.391 . S
C444 C445 1.400 . S
C445 C439 1.491 . S
C445 C444 1.400 . S
C445 C446 1.398 . S
C446 H434 0.950 . S
C446 C445 1.398 . S
C446 C447 1.391 . S
C447 H435 0.950 . S
C447 C443 1.393 . S
C447 C446 1.391 . S
H448 C456 0.950 . S
H449 C461 0.950 . S
H450 C458 0.950 . S
H451 C460 0.950 . S
H452 C462 0.950 . S
H453 C464 0.950 . S
H454 C466 0.950 . S
H455 C467 0.950 . S
C456 H448 0.950 . S
C456 C457 1.386 . S
C456 C458 1.391 . S
C457 C456 1.386 . S
C457 C461 1.393 . S
C458 H450 0.950 . S
C458 C456 1.391 . S
C458 C459 1.400 . S
C459 C458 1.400 . S
C459 C460 1.398 . S
C459 C465 1.491 . S
C460 H451 0.950 . S
C460 C459 1.398 . S
C460 C461 1.391 . S
C461 H449 0.950 . S
C461 C457 1.393 . S
C461 C460 1.391 . S
C462 H452 0.950 . S
C462 C463 1.386 . S
C462 C464 1.391 . S
C463 C462 1.386 . S
C463 C467 1.393 . S
C464 H453 0.950 . S
C464 C462 1.391 . S
C464 C465 1.400 . S
C465 C459 1.491 . S
C465 C464 1.400 . S
C465 C466 1.398 . S
C466 H454 0.950 . S
C466 C465 1.398 . S
C466 C467 1.391 . S
C467 H455 0.950 . S
C467 C463 1.393 . S
C467 C466 1.391 . S
H468 C476 0.950 . S
H469 C481 0.950 . S
H470 C478 0.950 . S
H471 C480 0.950 . S
H472 C482 0.950 . S
H473 C484 0.950 . S
H474 C486 0.950 . S
H475 C487 0.950 . S
C476 H468 0.950 . S
C476 C477 1.386 . S
C476 C478 1.391 . S
C477 C476 1.386 . S
C477 C481 1.393 . S
C478 H470 0.950 . S
C478 C476 1.391 . S
C478 C479 1.400 . S
C479 C478 1.400 . S
C479 C480 1.398 . S
C479 C485 1.491 . S
C480 H471 0.950 . S
C480 C479 1.398 . S
C480 C481 1.391 . S
C481 H469 0.950 . S
C481 C477 1.393 . S
C481 C480 1.391 . S
C482 H472 0.950 . S
C482 C483 1.386 . S
C482 C484 1.391 . S
C483 C482 1.386 . S
C483 C487 1.393 . S
C484 H473 0.950 . S
C484 C482 1.391 . S
C484 C485 1.400 . S
C485 C479 1.491 . S
C485 C484 1.400 . S
C485 C486 1.398 . S
C486 H474 0.950 . S
C486 C485 1.398 . S
C486 C487 1.391 . S
C487 H475 0.950 . S
C487 C483 1.393 . S
C487 C486 1.391 . S
H488 C496 0.950 . S
H489 C501 0.950 . S
H490 C498 0.950 . S
H491 C500 0.950 . S
H492 C502 0.950 . S
H493 C504 0.950 . S
H494 C506 0.950 . S
H495 C507 0.950 . S
C496 H488 0.950 . S
C496 C497 1.386 . S
C496 C498 1.391 . S
C497 C496 1.386 . S
C497 C501 1.393 . S
C498 H490 0.950 . S
C498 C496 1.391 . S
C498 C499 1.400 . S
C499 C498 1.400 . S
C499 C500 1.398 . S
C499 C505 1.491 . S
C500 H491 0.950 . S
C500 C499 1.398 . S
C500 C501 1.391 . S
C501 H489 0.950 . S
C501 C497 1.393 . S
C501 C500 1.391 . S
C502 H492 0.950 . S
C502 C503 1.386 . S
C502 C504 1.391 . S
C503 C502 1.386 . S
C503 C507 1.393 . S
C504 H493 0.950 . S
C504 C502 1.391 . S
C504 C505 1.400 . S
C505 C499 1.491 . S
C505 C504 1.400 . S
C505 C506 1.398 . S
C506 H494 0.950 . S
C506 C505 1.398 . S
C506 C507 1.391 . S
C507 H495 0.950 . S
C507 C503 1.393 . S
C507 C506 1.391 . S
H508 C516 0.950 . S
H509 C521 0.950 . S
H510 C518 0.950 . S
H511 C520 0.950 . S
H512 C522 0.950 . S
H513 C524 0.950 . S
H514 C526 0.950 . S
H515 C527 0.950 . S
C516 H508 0.950 . S
C516 C517 1.386 . S
C516 C518 1.391 . S
C517 C516 1.386 . S
C517 C521 1.393 . S
C518 H510 0.950 . S
C518 C516 1.391 . S
C518 C519 1.400 . S
C519 C518 1.400 . S
C519 C520 1.398 . S
C519 C525 1.491 . S
C520 H511 0.950 . S
C520 C519 1.398 . S
C520 C521 1.391 . S
C521 H509 0.950 . S
C521 C517 1.393 . S
C521 C520 1.391 . S
C522 H512 0.950 . S
C522 C523 1.386 . S
C522 C524 1.391 . S
C523 C522 1.386 . S
C523 C527 1.393 . S
C524 H513 0.950 . S
C524 C522 1.391 . S
C524 C525 1.400 . S
C525 C519 1.491 . S
C525 C524 1.400 . S
C525 C526 1.398 . S
C526 H514 0.950 . S
C526 C525 1.398 . S
C526 C527 1.391 . S
C527 H515 0.950 . S
C527 C523 1.393 . S
C527 C526 1.391 . S
H528 C536 0.950 . S
H529 C541 0.950 . S
H530 C538 0.950 . S
H531 C540 0.950 . S
H532 C542 0.950 . S
H533 C544 0.950 . S
H534 C546 0.950 . S
H535 C547 0.950 . S
C536 H528 0.950 . S
C536 C537 1.386 . S
C536 C538 1.391 . S
C537 C536 1.386 . S
C537 C541 1.393 . S
C538 H530 0.950 . S
C538 C536 1.391 . S
C538 C539 1.400 . S
C539 C538 1.400 . S
C539 C540 1.398 . S
C539 C545 1.491 . S
C540 H531 0.950 . S
C540 C539 1.398 . S
C540 C541 1.391 . S
C541 H529 0.950 . S
C541 C537 1.393 . S
C541 C540 1.391 . S
C542 H532 0.950 . S
C542 C543 1.386 . S
C542 C544 1.391 . S
C543 C542 1.386 . S
C543 C547 1.393 . S
C544 H533 0.950 . S
C544 C542 1.391 . S
C544 C545 1.400 . S
C545 C539 1.491 . S
C545 C544 1.400 . S
C545 C546 1.398 . S
C546 H534 0.950 . S
C546 C545 1.398 . S
C546 C547 1.391 . S
C547 H535 0.950 . S
C547 C543 1.393 . S
C547 C546 1.391 . S
H548 C556 0.950 . S
H549 C561 0.950 . S
H550 C558 0.950 . S
H551 C560 0.950 . S
H552 C562 0.950 . S
H553 C564 0.950 . S
H554 C566 0.950 . S
H555 C567 0.950 . S
C556 H548 0.950 . S
C556 C557 1.386 . S
C556 C558 1.391 . S
C557 C556 1.386 . S
C557 C561 1.393 . S
C558 H550 0.950 . S
C558 C556 1.391 . S
C558 C559 1.400 . S
C559 C558 1.400 . S
C559 C560 1.398 . S
C559 C565 1.491 . S
C560 H551 0.950 . S
C560 C559 1.398 . S
C560 C561 1.391 . S
C561 H549 0.950 . S
C561 C557 1.393 . S
C561 C560 1.391 . S
C562 H552 0.950 . S
C562 C563 1.386 . S
C562 C564 1.391 . S
C563 C562 1.386 . S
C563 C567 1.393 . S
C564 H553 0.950 . S
C564 C562 1.391 . S
C564 C565 1.400 . S
C565 C559 1.491 . S
C565 C564 1.400 . S
C565 C566 1.398 . S
C566 H554 0.950 . S
C566 C565 1.398 . S
C566 C567 1.391 . S
C567 H555 0.950 . S
C567 C563 1.393 . S
C567 C566 1.391 . S
H568 C576 0.950 . S
H569 C581 0.950 . S
H570 C578 0.950 . S
H571 C580 0.950 . S
H572 C582 0.950 . S
H573 C584 0.950 . S
H574 C586 0.950 . S
H575 C587 0.950 . S
C576 H568 0.950 . S
C576 C577 1.386 . S
C576 C578 1.391 . S
C577 C576 1.386 . S
C577 C581 1.393 . S
C578 H570 0.950 . S
C578 C576 1.391 . S
C578 C579 1.400 . S
C579 C578 1.400 . S
C579 C580 1.398 . S
C579 C585 1.491 . S
C580 H571 0.950 . S
C580 C579 1.398 . S
C580 C581 1.391 . S
C581 H569 0.950 . S
C581 C577 1.393 . S
C581 C580 1.391 . S
C582 H572 0.950 . S
C582 C583 1.386 . S
C582 C584 1.391 . S
C583 C582 1.386 . S
C583 C587 1.393 . S
C584 H573 0.950 . S
C584 C582 1.391 . S
C584 C585 1.400 . S
C585 C579 1.491 . S
C585 C584 1.400 . S
C585 C586 1.398 . S
C586 H574 0.950 . S
C586 C585 1.398 . S
C586 C587 1.391 . S
C587 H575 0.950 . S
C587 C583 1.393 . S
C587 C586 1.391 . S
H588 C596 0.950 . S
H589 C601 0.950 . S
H590 C598 0.950 . S
H591 C600 0.950 . S
H592 C602 0.950 . S
H593 C604 0.950 . S
H594 C606 0.950 . S
H595 C607 0.950 . S
C596 H588 0.950 . S
C596 C597 1.386 . S
C596 C598 1.391 . S
C597 C596 1.386 . S
C597 C601 1.393 . S
C598 H590 0.950 . S
C598 C596 1.391 . S
C598 C599 1.400 . S
C599 C598 1.400 . S
C599 C600 1.398 . S
C599 C605 1.491 . S
C600 H591 0.950 . S
C600 C599 1.398 . S
C600 C601 1.391 . S
C601 H589 0.950 . S
C601 C597 1.393 . S
C601 C600 1.391 . S
C602 H592 0.950 . S
C602 C603 1.386 . S
C602 C604 1.391 . S
C603 C602 1.386 . S
C603 C607 1.393 . S
C604 H593 0.950 . S
C604 C602 1.391 . S
C604 C605 1.400 . S
C605 C599 1.491 . S
C605 C604 1.400 . S
C605 C606 1.398 . S
C606 H594 0.950 . S
C606 C605 1.398 . S
C606 C607 1.391 . S
C607 H595 0.950 . S
C607 C603 1.393 . S
C607 C606 1.391 . S
H608 C616 0.950 . S
H609 C621 0.950 . S
H610 C618 0.950 . S
H611 C620 0.950 . S
H612 C622 0.950 . S
H613 C624 0.950 . S
H614 C626 0.950 . S
H615 C627 0.950 . S
C616 H608 0.950 . S
C616 C617 1.386 . S
C616 C618 1.391 . S
C617 C616 1.386 . S
C617 C621 1.393 . S
C618 H610 0.950 . S
C618 C616 1.391 . S
C618 C619 1.400 . S
C619 C618 1.400 . S
C619 C620 1.398 . S
C619 C625 1.491 . S
C620 H611 0.950 . S
C620 C619 1.398 . S
C620 C621 1.391 . S
C621 H609 0.950 . S
C621 C617 1.393 . S
C621 C620 1.391 . S
C622 H612 0.950 . S
C622 C623 1.386 . S
C622 C624 1.391 . S
C623 C622 1.386 . S
C623 C627 1.393 . S
C624 H613 0.950 . S
C624 C622 1.391 . S
C624 C625 1.400 . S
C625 C619 1.491 . S
C625 C624 1.400 . S
C625 C626 1.398 . S
C626 H614 0.950 . S
C626 C625 1.398 . S
C626 C627 1.391 . S
C627 H615 0.950 . S
C627 C623 1.393 . S
C627 C626 1.391 . S
H628 C636 0.950 . S
H629 C641 0.950 . S
H630 C638 0.950 . S
H631 C640 0.950 . S
H632 C642 0.950 . S
H633 C644 0.950 . S
H634 C646 0.950 . S
H635 C647 0.950 . S
C636 H628 0.950 . S
C636 C637 1.386 . S
C636 C638 1.391 . S
C637 C636 1.386 . S
C637 C641 1.393 . S
C638 H630 0.950 . S
C638 C636 1.391 . S
C638 C639 1.400 . S
C639 C638 1.400 . S
C639 C640 1.398 . S
C639 C645 1.491 . S
C640 H631 0.950 . S
C640 C639 1.398 . S
C640 C641 1.391 . S
C641 H629 0.950 . S
C641 C637 1.393 . S
C641 C640 1.391 . S
C642 H632 0.950 . S
C642 C643 1.386 . S
C642 C644 1.391 . S
C643 C642 1.386 . S
C643 C647 1.393 . S
C644 H633 0.950 . S
C644 C642 1.391 . S
C644 C645 1.400 . S
C645 C639 1.491 . S
C645 C644 1.400 . S
C645 C646 1.398 . S
C646 H634 0.950 . S
C646 C645 1.398 . S
C646 C647 1.391 . S
C647 H635 0.950 . S
C647 C643 1.393 . S
C647 C646 1.391 . S
C177 C11 1.468 . S
C183 C81 1.474 . S
C197 C14 1.416 . S
C203 C56 1.427 . S
C217 C79 1.390 . S
C223 C37 1.400 . S
C237 C42 1.412 . S
C243 C61 1.438 . S
C257 C109 1.463 . S
C263 C39 1.464 . S
C277 C89 1.434 . S
C283 C47 1.438 . S
C297 C9 1.400 . S
C303 C107 1.399 . S
C317 C84 1.429 . S
C323 C19 1.451 . S
C337 C126 1.448 . S
C343 C123 1.457 1_556 S
C357 C121 1.422 . S
C363 C154 1.393 . S
C377 C131 1.419 . S
C383 C149 1.421 . S
C397 C151 1.454 . S
C403 C159 1.465 . S
C417 C165 1.464 . S
C423 C95 1.464 . S
C437 C112 1.422 . S
C443 C98 1.420 . S
C457 C93 1.402 . S
C463 C135 1.389 . S
C477 C103 1.450 . S
C483 C140 1.433 . S
C497 C67 1.457 . S
C503 C137 1.461 . S
C517 C75 1.432 . S
C523 C145 1.437 . S
C537 C163 1.402 . S
C543 C65 1.389 . S
C557 C117 1.450 . S
C563 C70 1.434 . S
C577 C25 1.462 . S
C583 C28 1.458 . S
C597 C0 1.394 . S
C603 C23 1.423 . S
C617 C33 1.422 . S
C623 C51 1.415 . S
C637 C5 1.464 . S
C643 C53 1.450 . S
