# Generated by pormake.
# Topology ums, (4)-cn, num edge types: 1
# Building blocks:
#     Node 0, Type 0, BuildingBlock: GALJAG_clean_sbu_0, # of connection points: 4
#     Node 1, Type 0, BuildingBlock: GALJAG_clean_sbu_0, # of connection points: 4
#     Node 2, Type 0, BuildingBlock: GALJAG_clean_sbu_0, # of connection points: 4
#     Node 3, Type 0, BuildingBlock: GALJAG_clean_sbu_0, # of connection points: 4
#     Node 4, Type 0, BuildingBlock: GALJAG_clean_sbu_0, # of connection points: 4
#     Node 5, Type 0, BuildingBlock: GALJAG_clean_sbu_0, # of connection points: 4
#     Node 6, Type 0, BuildingBlock: GALJAG_clean_sbu_0, # of connection points: 4
#     Node 7, Type 0, BuildingBlock: GALJAG_clean_sbu_0, # of connection points: 4
#     Node 8, Type 0, BuildingBlock: GALJAG_clean_sbu_0, # of connection points: 4
#     Node 9, Type 0, BuildingBlock: GALJAG_clean_sbu_0, # of connection points: 4
#     Node 10, Type 0, BuildingBlock: GALJAG_clean_sbu_0, # of connection points: 4
#     Node 11, Type 0, BuildingBlock: GALJAG_clean_sbu_0, # of connection points: 4
#     Node 12, Type 0, BuildingBlock: GALJAG_clean_sbu_0, # of connection points: 4
#     Node 13, Type 0, BuildingBlock: GALJAG_clean_sbu_0, # of connection points: 4
#     Node 14, Type 0, BuildingBlock: GALJAG_clean_sbu_0, # of connection points: 4
#     Node 15, Type 0, BuildingBlock: GALJAG_clean_sbu_0, # of connection points: 4
#     Node 16, Type 0, BuildingBlock: GALJAG_clean_sbu_0, # of connection points: 4
#     Node 17, Type 0, BuildingBlock: GALJAG_clean_sbu_0, # of connection points: 4
#     Node 18, Type 0, BuildingBlock: GALJAG_clean_sbu_0, # of connection points: 4
#     Node 19, Type 0, BuildingBlock: GALJAG_clean_sbu_0, # of connection points: 4
#     Node 20, Type 0, BuildingBlock: GALJAG_clean_sbu_0, # of connection points: 4
#     Node 21, Type 0, BuildingBlock: GALJAG_clean_sbu_0, # of connection points: 4
#     Node 22, Type 0, BuildingBlock: GALJAG_clean_sbu_0, # of connection points: 4
#     Node 23, Type 0, BuildingBlock: GALJAG_clean_sbu_0, # of connection points: 4
#     Node 24, Type 0, BuildingBlock: GALJAG_clean_sbu_0, # of connection points: 4
#     Node 25, Type 0, BuildingBlock: GALJAG_clean_sbu_0, # of connection points: 4
#     Node 26, Type 0, BuildingBlock: GALJAG_clean_sbu_0, # of connection points: 4
#     Node 27, Type 0, BuildingBlock: GALJAG_clean_sbu_0, # of connection points: 4
#     Node 28, Type 0, BuildingBlock: GALJAG_clean_sbu_0, # of connection points: 4
#     Node 29, Type 0, BuildingBlock: GALJAG_clean_sbu_0, # of connection points: 4
#     Node 30, Type 0, BuildingBlock: GALJAG_clean_sbu_0, # of connection points: 4
#     Node 31, Type 0, BuildingBlock: GALJAG_clean_sbu_0, # of connection points: 4
#     Node 32, Type 0, BuildingBlock: GALJAG_clean_sbu_0, # of connection points: 4
#     Node 33, Type 0, BuildingBlock: GALJAG_clean_sbu_0, # of connection points: 4
#     Node 34, Type 0, BuildingBlock: GALJAG_clean_sbu_0, # of connection points: 4
#     Node 35, Type 0, BuildingBlock: GALJAG_clean_sbu_0, # of connection points: 4
#     Edge 36, Type (0, 0), BuildingBlock: ZUJKAS_clean_linker_0, # of connection points: 2
#     Edge 37, Type (0, 0), BuildingBlock: ZUJKAS_clean_linker_0, # of connection points: 2
#     Edge 38, Type (0, 0), BuildingBlock: ZUJKAS_clean_linker_0, # of connection points: 2
#     Edge 39, Type (0, 0), BuildingBlock: ZUJKAS_clean_linker_0, # of connection points: 2
#     Edge 40, Type (0, 0), BuildingBlock: ZUJKAS_clean_linker_0, # of connection points: 2
#     Edge 41, Type (0, 0), BuildingBlock: ZUJKAS_clean_linker_0, # of connection points: 2
#     Edge 42, Type (0, 0), BuildingBlock: ZUJKAS_clean_linker_0, # of connection points: 2
#     Edge 43, Type (0, 0), BuildingBlock: ZUJKAS_clean_linker_0, # of connection points: 2
#     Edge 44, Type (0, 0), BuildingBlock: ZUJKAS_clean_linker_0, # of connection points: 2
#     Edge 45, Type (0, 0), BuildingBlock: ZUJKAS_clean_linker_0, # of connection points: 2
#     Edge 46, Type (0, 0), BuildingBlock: ZUJKAS_clean_linker_0, # of connection points: 2
#     Edge 47, Type (0, 0), BuildingBlock: ZUJKAS_clean_linker_0, # of connection points: 2
#     Edge 48, Type (0, 0), BuildingBlock: ZUJKAS_clean_linker_0, # of connection points: 2
#     Edge 49, Type (0, 0), BuildingBlock: ZUJKAS_clean_linker_0, # of connection points: 2
#     Edge 50, Type (0, 0), BuildingBlock: ZUJKAS_clean_linker_0, # of connection points: 2
#     Edge 51, Type (0, 0), BuildingBlock: ZUJKAS_clean_linker_0, # of connection points: 2
#     Edge 52, Type (0, 0), BuildingBlock: ZUJKAS_clean_linker_0, # of connection points: 2
#     Edge 53, Type (0, 0), BuildingBlock: ZUJKAS_clean_linker_0, # of connection points: 2
#     Edge 54, Type (0, 0), BuildingBlock: ZUJKAS_clean_linker_0, # of connection points: 2
#     Edge 55, Type (0, 0), BuildingBlock: ZUJKAS_clean_linker_0, # of connection points: 2
#     Edge 56, Type (0, 0), BuildingBlock: ZUJKAS_clean_linker_0, # of connection points: 2
#     Edge 57, Type (0, 0), BuildingBlock: ZUJKAS_clean_linker_0, # of connection points: 2
#     Edge 58, Type (0, 0), BuildingBlock: ZUJKAS_clean_linker_0, # of connection points: 2
#     Edge 59, Type (0, 0), BuildingBlock: ZUJKAS_clean_linker_0, # of connection points: 2
#     Edge 60, Type (0, 0), BuildingBlock: ZUJKAS_clean_linker_0, # of connection points: 2
#     Edge 61, Type (0, 0), BuildingBlock: ZUJKAS_clean_linker_0, # of connection points: 2
#     Edge 62, Type (0, 0), BuildingBlock: ZUJKAS_clean_linker_0, # of connection points: 2
#     Edge 63, Type (0, 0), BuildingBlock: ZUJKAS_clean_linker_0, # of connection points: 2
#     Edge 64, Type (0, 0), BuildingBlock: ZUJKAS_clean_linker_0, # of connection points: 2
#     Edge 65, Type (0, 0), BuildingBlock: ZUJKAS_clean_linker_0, # of connection points: 2
#     Edge 66, Type (0, 0), BuildingBlock: ZUJKAS_clean_linker_0, # of connection points: 2
#     Edge 67, Type (0, 0), BuildingBlock: ZUJKAS_clean_linker_0, # of connection points: 2
#     Edge 68, Type (0, 0), BuildingBlock: ZUJKAS_clean_linker_0, # of connection points: 2
#     Edge 69, Type (0, 0), BuildingBlock: ZUJKAS_clean_linker_0, # of connection points: 2
#     Edge 70, Type (0, 0), BuildingBlock: ZUJKAS_clean_linker_0, # of connection points: 2
#     Edge 71, Type (0, 0), BuildingBlock: ZUJKAS_clean_linker_0, # of connection points: 2
#     Edge 72, Type (0, 0), BuildingBlock: ZUJKAS_clean_linker_0, # of connection points: 2
#     Edge 73, Type (0, 0), BuildingBlock: ZUJKAS_clean_linker_0, # of connection points: 2
#     Edge 74, Type (0, 0), BuildingBlock: ZUJKAS_clean_linker_0, # of connection points: 2
#     Edge 75, Type (0, 0), BuildingBlock: ZUJKAS_clean_linker_0, # of connection points: 2
#     Edge 76, Type (0, 0), BuildingBlock: ZUJKAS_clean_linker_0, # of connection points: 2
#     Edge 77, Type (0, 0), BuildingBlock: ZUJKAS_clean_linker_0, # of connection points: 2
#     Edge 78, Type (0, 0), BuildingBlock: ZUJKAS_clean_linker_0, # of connection points: 2
#     Edge 79, Type (0, 0), BuildingBlock: ZUJKAS_clean_linker_0, # of connection points: 2
#     Edge 80, Type (0, 0), BuildingBlock: ZUJKAS_clean_linker_0, # of connection points: 2
#     Edge 81, Type (0, 0), BuildingBlock: ZUJKAS_clean_linker_0, # of connection points: 2
#     Edge 82, Type (0, 0), BuildingBlock: ZUJKAS_clean_linker_0, # of connection points: 2
#     Edge 83, Type (0, 0), BuildingBlock: ZUJKAS_clean_linker_0, # of connection points: 2
#     Edge 84, Type (0, 0), BuildingBlock: ZUJKAS_clean_linker_0, # of connection points: 2
#     Edge 85, Type (0, 0), BuildingBlock: ZUJKAS_clean_linker_0, # of connection points: 2
#     Edge 86, Type (0, 0), BuildingBlock: ZUJKAS_clean_linker_0, # of connection points: 2
#     Edge 87, Type (0, 0), BuildingBlock: ZUJKAS_clean_linker_0, # of connection points: 2
#     Edge 88, Type (0, 0), BuildingBlock: ZUJKAS_clean_linker_0, # of connection points: 2
#     Edge 89, Type (0, 0), BuildingBlock: ZUJKAS_clean_linker_0, # of connection points: 2
#     Edge 90, Type (0, 0), BuildingBlock: ZUJKAS_clean_linker_0, # of connection points: 2
#     Edge 91, Type (0, 0), BuildingBlock: ZUJKAS_clean_linker_0, # of connection points: 2
#     Edge 92, Type (0, 0), BuildingBlock: ZUJKAS_clean_linker_0, # of connection points: 2
#     Edge 93, Type (0, 0), BuildingBlock: ZUJKAS_clean_linker_0, # of connection points: 2
#     Edge 94, Type (0, 0), BuildingBlock: ZUJKAS_clean_linker_0, # of connection points: 2
#     Edge 95, Type (0, 0), BuildingBlock: ZUJKAS_clean_linker_0, # of connection points: 2
#     Edge 96, Type (0, 0), BuildingBlock: ZUJKAS_clean_linker_0, # of connection points: 2
#     Edge 97, Type (0, 0), BuildingBlock: ZUJKAS_clean_linker_0, # of connection points: 2
#     Edge 98, Type (0, 0), BuildingBlock: ZUJKAS_clean_linker_0, # of connection points: 2
#     Edge 99, Type (0, 0), BuildingBlock: ZUJKAS_clean_linker_0, # of connection points: 2
#     Edge 100, Type (0, 0), BuildingBlock: ZUJKAS_clean_linker_0, # of connection points: 2
#     Edge 101, Type (0, 0), BuildingBlock: ZUJKAS_clean_linker_0, # of connection points: 2
#     Edge 102, Type (0, 0), BuildingBlock: ZUJKAS_clean_linker_0, # of connection points: 2
#     Edge 103, Type (0, 0), BuildingBlock: ZUJKAS_clean_linker_0, # of connection points: 2
#     Edge 104, Type (0, 0), BuildingBlock: ZUJKAS_clean_linker_0, # of connection points: 2
#     Edge 105, Type (0, 0), BuildingBlock: ZUJKAS_clean_linker_0, # of connection points: 2
#     Edge 106, Type (0, 0), BuildingBlock: ZUJKAS_clean_linker_0, # of connection points: 2
#     Edge 107, Type (0, 0), BuildingBlock: ZUJKAS_clean_linker_0, # of connection points: 2
# Relax obj value: 0.176
# Max RMSD: 0.175
# Mean RMSD: 0.174
data_MOF--net-ums--node1-GALJAG_clean_sbu_0--edge1-ZUJKAS_clean_linker_0
_symmetry_space_group_name_H-M    P1
_symmetry_Int_Tables_number       1
_symmetry_cell_setting            triclinic
loop_
_symmetry_equiv_pos_as_xyz
'x, y, z'
_cell_length_a     125.44135
_cell_length_b     125.44808
_cell_length_c     33.846662
_cell_angle_alpha  89.994851
_cell_angle_beta   90.009852
_cell_angle_gamma 119.9804
loop_
_atom_site_label
_atom_site_type_symbol
_atom_site_fract_x
_atom_site_fract_y
_atom_site_fract_z
_atom_type_partial_charge
In0 In 0.15563 0.24274 0.15647 0.0
O1 O 0.1615 0.22822 0.15492 0.0
O2 O 0.17033 0.24287 0.19617 0.0
C3 C 0.1418 0.23551 0.0902 0.0
C4 C 0.14037 0.23713 0.21893 0.0
C5 C 0.17157 0.26631 0.13652 0.0
O6 O 0.14947 0.23212 0.09817 0.0
O7 O 0.14098 0.24234 0.11589 0.0
O8 O 0.16228 0.26322 0.15804 0.0
O9 O 0.1729 0.25749 0.1249 0.0
C10 C 0.16937 0.23312 0.18212 0.0
O11 O 0.14927 0.24777 0.2125 0.0
O12 O 0.13904 0.22917 0.1936 0.0
In13 In 0.75208 0.91349 0.14919 0.0
O14 O 0.75037 0.91127 0.2159 0.0
O15 O 0.7583 0.90215 0.18522 0.0
C16 C 0.72812 0.90591 0.13531 0.0
C17 C 0.76599 0.93787 0.16183 0.0
C18 C 0.75882 0.90567 0.08462 0.0
O19 O 0.73168 0.90227 0.16451 0.0
O20 O 0.73665 0.91344 0.11315 0.0
O21 O 0.76359 0.91691 0.09344 0.0
O22 O 0.75078 0.8984 0.10864 0.0
C23 C 0.75514 0.90451 0.218 0.0
O24 O 0.77031 0.93071 0.16298 0.0
O25 O 0.7547 0.93278 0.15342 0.0
In26 In 0.08587 0.83984 0.1529 0.0
O27 O 0.06574 0.83477 0.14707 0.0
O28 O 0.07019 0.82487 0.18852 0.0
C29 C 0.09356 0.85455 0.08879 0.0
C30 C 0.09618 0.85573 0.21354 0.0
C31 C 0.09221 0.82262 0.13673 0.0
O32 O 0.08245 0.84636 0.09372 0.0
O33 O 0.10068 0.85544 0.1165 0.0
O34 O 0.09309 0.82704 0.17079 0.0
O35 O 0.08799 0.82675 0.11089 0.0
C36 C 0.06195 0.82649 0.17317 0.0
O37 O 0.10127 0.85039 0.1972 0.0
O38 O 0.08596 0.85324 0.19886 0.0
In39 In 0.2435 0.15945 0.3466 0.0
O40 O 0.24823 0.14887 0.30202 0.0
O41 O 0.22992 0.14562 0.30192 0.0
C42 C 0.26706 0.17604 0.36555 0.0
C43 C 0.23444 0.17414 0.32568 0.0
C44 C 0.23471 0.14436 0.4097 0.0
O45 O 0.26388 0.17149 0.33149 0.0
O46 O 0.25835 0.17237 0.38995 0.0
O47 O 0.2305 0.15117 0.399 0.0
O48 O 0.24317 0.14495 0.38802 0.0
C49 C 0.23769 0.14328 0.28652 0.0
O50 O 0.23119 0.16774 0.35674 0.0
O51 O 0.24237 0.17323 0.30533 0.0
In52 In 0.83905 0.08261 0.35195 0.0
O53 O 0.84388 0.0951 0.29828 0.0
O54 O 0.85496 0.08704 0.30988 0.0
C55 C 0.82409 0.09135 0.37257 0.0
C56 C 0.82723 0.05941 0.32389 0.0
C57 C 0.85169 0.08645 0.41999 0.0
O58 O 0.83523 0.09827 0.36327 0.0
O59 O 0.8205 0.07999 0.3717 0.0
O60 O 0.84051 0.07832 0.41663 0.0
O61 O 0.85651 0.09252 0.38897 0.0
C62 C 0.85283 0.09384 0.28772 0.0
O63 O 0.83616 0.06319 0.34757 0.0
O64 O 0.82414 0.06725 0.31506 0.0
In65 In 0.91416 0.75349 0.34218 0.0
O66 O 0.90125 0.74665 0.28946 0.0
O67 O 0.91069 0.76589 0.30098 0.0
C68 C 0.9049 0.72945 0.35943 0.0
C69 C 0.93767 0.76457 0.31683 0.0
C70 C 0.9101 0.76187 0.41081 0.0
O71 O 0.8982 0.73418 0.3539 0.0
O72 O 0.91629 0.73684 0.35617 0.0
O73 O 0.9174 0.75775 0.40803 0.0
O74 O 0.90502 0.762 0.3788 0.0
C75 C 0.90327 0.75716 0.27912 0.0
O76 O 0.93443 0.76831 0.34659 0.0
O77 O 0.92909 0.75523 0.30019 0.0
In78 In 0.83805 0.75157 0.83927 0.0
O79 O 0.83394 0.76734 0.83793 0.0
O80 O 0.82186 0.751 0.80672 0.0
C81 C 0.85149 0.75865 0.9063 0.0
C82 C 0.85429 0.75726 0.77951 0.0
C83 C 0.82151 0.72777 0.85433 0.0
O84 O 0.84275 0.76068 0.90001 0.0
O85 O 0.85358 0.75325 0.87851 0.0
O86 O 0.82663 0.73142 0.82114 0.0
O87 O 0.82457 0.73615 0.87976 0.0
C88 C 0.82455 0.76177 0.81629 0.0
O89 O 0.84855 0.74669 0.79472 0.0
O90 O 0.85204 0.76507 0.79496 0.0
In91 In 0.24528 0.0882 0.84138 0.0
O92 O 0.24958 0.10155 0.79064 0.0
O93 O 0.23078 0.09027 0.80639 0.0
C94 C 0.26897 0.09458 0.85484 0.0
C95 C 0.23567 0.06509 0.81358 0.0
C96 C 0.23855 0.09475 0.90901 0.0
O97 O 0.26589 0.10086 0.83369 0.0
O98 O 0.26007 0.08495 0.86911 0.0
O99 O 0.23268 0.08399 0.89518 0.0
O100 O 0.24762 0.10216 0.88845 0.0
C101 C 0.23853 0.09843 0.78362 0.0
O102 O 0.23411 0.06735 0.84878 0.0
O103 O 0.24221 0.07446 0.79274 0.0
In104 In 0.91065 0.15886 0.84515 0.0
O105 O 0.93124 0.16612 0.85011 0.0
O106 O 0.92491 0.17213 0.80138 0.0
C107 C 0.90404 0.14565 0.91271 0.0
C108 C 0.90083 0.14158 0.78815 0.0
C109 C 0.90341 0.17558 0.85786 0.0
O110 O 0.91507 0.15339 0.90468 0.0
O111 O 0.8964 0.14444 0.88643 0.0
O112 O 0.89951 0.16808 0.82951 0.0
O113 O 0.91117 0.17483 0.8796 0.0
C114 C 0.93395 0.17251 0.81906 0.0
O115 O 0.89602 0.14779 0.79946 0.0
O116 O 0.91056 0.14388 0.80622 0.0
In117 In 0.75099 0.83632 0.65308 0.0
O118 O 0.74604 0.84604 0.70025 0.0
O119 O 0.76445 0.84959 0.69897 0.0
C120 C 0.72697 0.82011 0.6403 0.0
C121 C 0.76171 0.82283 0.67008 0.0
C122 C 0.75741 0.85054 0.58774 0.0
O123 O 0.73117 0.82447 0.67401 0.0
O124 O 0.73491 0.82377 0.61315 0.0
O125 O 0.75846 0.84107 0.59014 0.0
O126 O 0.75336 0.85295 0.61852 0.0
C127 C 0.75662 0.85159 0.71553 0.0
O128 O 0.7673 0.833 0.65223 0.0
O129 O 0.7507 0.8194 0.67879 0.0
In130 In 0.16112 0.91694 0.65092 0.0
O131 O 0.16326 0.93612 0.65307 0.0
O132 O 0.17805 0.93401 0.67415 0.0
C133 C 0.14765 0.9113 0.58416 0.0
C134 C 0.14897 0.90883 0.71989 0.0
C135 C 0.17401 0.90566 0.63261 0.0
O136 O 0.15827 0.92058 0.58696 0.0
O137 O 0.1437 0.905 0.61533 0.0
O138 O 0.1643 0.90057 0.65298 0.0
O139 O 0.17726 0.91646 0.62158 0.0
C140 C 0.17387 0.94115 0.6682 0.0
O141 O 0.15992 0.91124 0.71509 0.0
O142 O 0.14405 0.91051 0.68974 0.0
In143 In 0.08185 0.24305 0.65394 0.0
O144 O 0.06207 0.22709 0.65331 0.0
O145 O 0.06593 0.24316 0.6856 0.0
C146 C 0.08679 0.23493 0.58649 0.0
C147 C 0.09029 0.23782 0.7203 0.0
C148 C 0.09178 0.26705 0.63444 0.0
O149 O 0.07657 0.23426 0.59292 0.0
O150 O 0.09449 0.23959 0.61427 0.0
O151 O 0.09786 0.26279 0.65098 0.0
O152 O 0.08069 0.2592 0.62758 0.0
C153 C 0.05799 0.23247 0.67484 0.0
O154 O 0.08938 0.24732 0.7165 0.0
O155 O 0.08707 0.23092 0.69034 0.0
In156 In 0.82658 0.57951 0.49317 0.0
O157 O 0.8195 0.58449 0.54771 0.0
O158 O 0.80987 0.5658 0.52922 0.0
C159 C 0.84254 0.60323 0.47502 0.0
C160 C 0.83957 0.56915 0.51976 0.0
C161 C 0.81353 0.57284 0.4253 0.0
O162 O 0.8338 0.60007 0.49911 0.0
O163 O 0.84332 0.59441 0.46026 0.0
O164 O 0.82244 0.57106 0.43144 0.0
O165 O 0.81108 0.57777 0.45363 0.0
C166 C 0.81075 0.57374 0.55392 0.0
O167 O 0.83103 0.56398 0.49475 0.0
O168 O 0.84161 0.57956 0.53118 0.0
In169 In 0.41852 0.24608 0.48608 0.0
O170 O 0.43418 0.26604 0.48993 0.0
O171 O 0.41708 0.2616 0.51591 0.0
C172 C 0.42649 0.24045 0.41952 0.0
C173 C 0.42357 0.23523 0.54654 0.0
C174 C 0.39465 0.23806 0.46914 0.0
O175 O 0.42756 0.25088 0.4253 0.0
O176 O 0.42156 0.23292 0.44757 0.0
O177 O 0.39832 0.23755 0.50341 0.0
O178 O 0.40303 0.24272 0.44341 0.0
C179 C 0.42802 0.26977 0.50883 0.0
O180 O 0.41302 0.2308 0.53143 0.0
O181 O 0.4317 0.24505 0.5307 0.0
In182 In 0.7533 0.17109 0.4915 0.0
O183 O 0.76529 0.17885 0.54593 0.0
O184 O 0.75667 0.18855 0.52401 0.0
C185 C 0.75971 0.1538 0.47806 0.0
C186 C 0.72958 0.15773 0.51459 0.0
C187 C 0.76122 0.18488 0.42522 0.0
O188 O 0.76523 0.16245 0.50246 0.0
O189 O 0.7508 0.15374 0.46056 0.0
O190 O 0.75045 0.18069 0.43834 0.0
O191 O 0.76799 0.18228 0.44581 0.0
C192 C 0.76356 0.18787 0.54986 0.0
O193 O 0.73261 0.16195 0.48006 0.0
O194 O 0.73848 0.16015 0.53724 0.0
In195 In 0.91221 0.49343 0.68132 0.0
O196 O 0.90106 0.50289 0.69438 0.0
O197 O 0.90867 0.50494 0.637 0.0
C198 C 0.90602 0.47962 0.74753 0.0
C199 C 0.9052 0.47599 0.6249 0.0
C200 C 0.93598 0.511 0.69141 0.0
O201 O 0.89977 0.48422 0.73462 0.0
O202 O 0.91522 0.4818 0.72666 0.0
O203 O 0.93209 0.50459 0.66049 0.0
O204 O 0.92784 0.50868 0.71716 0.0
C205 C 0.90235 0.5074 0.66024 0.0
O206 O 0.91624 0.48272 0.63538 0.0
O207 O 0.89757 0.47784 0.64355 0.0
In208 In 0.50181 0.4167 0.67964 0.0
O209 O 0.5131 0.43268 0.63773 0.0
O210 O 0.51292 0.41592 0.62729 0.0
C211 C 0.48592 0.42462 0.69734 0.0
C212 C 0.48773 0.39287 0.65919 0.0
C213 C 0.51666 0.42265 0.7435 0.0
O214 O 0.49082 0.4261 0.66379 0.0
O215 O 0.48886 0.41897 0.72186 0.0
O216 O 0.50722 0.41221 0.73925 0.0
O217 O 0.5187 0.43 0.71534 0.0
C218 C 0.51668 0.42684 0.61642 0.0
O219 O 0.49778 0.39689 0.67747 0.0
O220 O 0.48472 0.40085 0.65154 0.0
In221 In 0.58152 0.08814 0.68027 0.0
O222 O 0.56634 0.08284 0.63491 0.0
O223 O 0.58036 0.10163 0.63733 0.0
C224 C 0.57362 0.06416 0.69486 0.0
C225 C 0.60523 0.09831 0.65694 0.0
C226 C 0.57519 0.09505 0.74774 0.0
O227 O 0.57252 0.06801 0.66157 0.0
O228 O 0.57887 0.07241 0.72068 0.0
O229 O 0.58547 0.09569 0.74316 0.0
O230 O 0.56821 0.09119 0.71798 0.0
C231 C 0.57064 0.09351 0.62083 0.0
O232 O 0.60149 0.10388 0.67893 0.0
O233 O 0.59706 0.08762 0.64715 0.0
In234 In 0.50521 0.08657 0.1825 0.0
O235 O 0.50147 0.10255 0.17999 0.0
O236 O 0.48842 0.08566 0.15324 0.0
C237 C 0.5188 0.09434 0.24933 0.0
C238 C 0.52104 0.09192 0.12154 0.0
C239 C 0.48862 0.06266 0.19609 0.0
O240 O 0.51014 0.09642 0.24224 0.0
O241 O 0.52072 0.08854 0.22251 0.0
O242 O 0.49417 0.06647 0.1636 0.0
O243 O 0.49129 0.07094 0.22164 0.0
C244 C 0.49151 0.09666 0.16109 0.0
O245 O 0.51711 0.08227 0.14193 0.0
O246 O 0.51718 0.09901 0.13229 0.0
In247 In 0.9076 0.41765 0.18728 0.0
O248 O 0.91306 0.43352 0.1442 0.0
O249 O 0.89502 0.41819 0.13939 0.0
C250 C 0.93129 0.42471 0.20388 0.0
C251 C 0.8974 0.39401 0.16383 0.0
C252 C 0.89955 0.42328 0.25374 0.0
O253 O 0.92788 0.42657 0.17079 0.0
O254 O 0.92271 0.41911 0.22852 0.0
O255 O 0.89764 0.41261 0.24655 0.0
O256 O 0.90537 0.4311 0.22713 0.0
C257 C 0.90294 0.42854 0.12601 0.0
O258 O 0.89156 0.39802 0.18327 0.0
O259 O 0.90845 0.4019 0.15656 0.0
In260 In 0.57906 0.49108 0.1749 0.0
O261 O 0.59792 0.49242 0.17354 0.0
O262 O 0.59657 0.50765 0.15259 0.0
C263 C 0.57167 0.47815 0.24281 0.0
C264 C 0.57106 0.47751 0.10832 0.0
C265 C 0.56967 0.50597 0.18829 0.0
O266 O 0.58233 0.48728 0.23836 0.0
O267 O 0.56485 0.4754 0.21276 0.0
O268 O 0.56458 0.49678 0.16561 0.0
O269 O 0.57949 0.50766 0.20414 0.0
C270 C 0.60334 0.50305 0.1586 0.0
O271 O 0.5737 0.48861 0.11003 0.0
O272 O 0.57236 0.47316 0.14039 0.0
In273 In 0.4189 0.17106 0.98701 0.0
O274 O 0.41337 0.17582 0.04542 0.0
O275 O 0.43145 0.18793 0.02465 0.0
C276 C 0.39523 0.15566 0.96697 0.0
C277 C 0.42946 0.15809 0.01173 0.0
C278 C 0.42599 0.18417 0.91924 0.0
O279 O 0.39866 0.16548 0.98603 0.0
O280 O 0.40375 0.15352 0.958 0.0
O281 O 0.4282 0.17559 0.92634 0.0
O282 O 0.42047 0.18628 0.94658 0.0
C283 C 0.42354 0.18545 0.05135 0.0
O284 O 0.4351 0.16764 0.99077 0.0
O285 O 0.4185 0.15506 0.01989 0.0
In286 In 0.82424 0.24786 0.98312 0.0
O287 O 0.82613 0.26679 0.99115 0.0
O288 O 0.84083 0.26426 0.01065 0.0
C289 C 0.81168 0.24411 0.91498 0.0
C290 C 0.81171 0.23797 0.0507 0.0
C291 C 0.8382 0.23811 0.96077 0.0
O292 O 0.82182 0.25375 0.92152 0.0
O293 O 0.80778 0.23649 0.9431 0.0
O294 O 0.82727 0.23162 0.97283 0.0
O295 O 0.84208 0.24952 0.95986 0.0
C296 C 0.83659 0.27145 0.00724 0.0
O297 O 0.82206 0.23905 0.04346 0.0
O298 O 0.80751 0.24171 0.02352 0.0
In299 In 0.75058 0.577 0.98758 0.0
O300 O 0.73197 0.55965 0.99577 0.0
O301 O 0.73394 0.57652 0.01643 0.0
C302 C 0.75549 0.5689 0.91998 0.0
C303 C 0.76089 0.57404 0.05348 0.0
C304 C 0.75954 0.60069 0.96614 0.0
O305 O 0.74527 0.5682 0.9265 0.0
O306 O 0.76318 0.57353 0.94777 0.0
O307 O 0.76571 0.59706 0.98557 0.0
O308 O 0.74877 0.59236 0.95747 0.0
C309 C 0.72705 0.56505 0.01275 0.0
O310 O 0.75939 0.58314 0.04805 0.0
O311 O 0.75727 0.56639 0.02543 0.0
In312 In 0.49242 0.91241 0.81555 0.0
O313 O 0.49669 0.89674 0.81512 0.0
O314 O 0.50721 0.91191 0.85316 0.0
C315 C 0.47995 0.9054 0.74663 0.0
C316 C 0.4774 0.90703 0.87835 0.0
C317 C 0.50726 0.93645 0.79813 0.0
O318 O 0.49013 0.90586 0.75163 0.0
O319 O 0.47593 0.90822 0.77665 0.0
O320 O 0.49703 0.93243 0.81519 0.0
O321 O 0.51009 0.92835 0.79012 0.0
C322 C 0.50514 0.90159 0.84057 0.0
O323 O 0.48679 0.91746 0.87306 0.0
O324 O 0.47549 0.89922 0.8517 0.0
In325 In 0.08673 0.58075 0.81475 0.0
O326 O 0.10504 0.59859 0.82295 0.0
O327 O 0.08854 0.59908 0.83195 0.0
C328 C 0.09295 0.57234 0.75059 0.0
C329 C 0.08945 0.57179 0.88398 0.0
C330 C 0.0631 0.5728 0.79495 0.0
O331 O 0.09564 0.58343 0.75387 0.0
O332 O 0.08742 0.56566 0.77991 0.0
O333 O 0.06616 0.56749 0.82045 0.0
O334 O 0.07197 0.58222 0.77957 0.0
C335 C 0.10014 0.60487 0.83256 0.0
O336 O 0.0818 0.57542 0.87912 0.0
O337 O 0.09572 0.57262 0.85379 0.0
In338 In 0.418 0.50793 0.81813 0.0
O339 O 0.43285 0.51834 0.86417 0.0
O340 O 0.41846 0.52252 0.85979 0.0
C341 C 0.4252 0.49128 0.80383 0.0
C342 C 0.3947 0.49451 0.8445 0.0
C343 C 0.42399 0.52085 0.74998 0.0
O344 O 0.42902 0.49853 0.83289 0.0
O345 O 0.41759 0.4923 0.78207 0.0
O346 O 0.41318 0.5125 0.75783 0.0
O347 O 0.43175 0.52282 0.77672 0.0
C348 C 0.42815 0.52447 0.87725 0.0
O349 O 0.39793 0.50303 0.81951 0.0
O350 O 0.40321 0.49264 0.85587 0.0
In351 In 0.57843 0.82615 0.00064 0.0
O352 O 0.56517 0.8334 0.01042 0.0
O353 O 0.57648 0.8394 0.95931 0.0
C354 C 0.5725 0.81144 0.06471 0.0
C355 C 0.57217 0.81041 0.93923 0.0
C356 C 0.60187 0.84309 0.01888 0.0
O357 O 0.56685 0.81706 0.05572 0.0
O358 O 0.58088 0.81301 0.0409 0.0
O359 O 0.5991 0.83559 0.99071 0.0
O360 O 0.59278 0.84223 0.03761 0.0
C361 C 0.56822 0.8398 0.97934 0.0
O362 O 0.58303 0.81887 0.94579 0.0
O363 O 0.56434 0.80972 0.96401 0.0
In364 In 0.17033 0.74991 0.01395 0.0
O365 O 0.17044 0.75341 0.948 0.0
O366 O 0.18772 0.75998 0.97642 0.0
C367 C 0.15399 0.75722 0.03192 0.0
C368 C 0.1602 0.72561 -0.00021 0.0
C369 C 0.18526 0.75867 0.07732 0.0
O370 O 0.16082 0.76102 0.00184 0.0
O371 O 0.15529 0.74962 0.0528 0.0
O372 O 0.1782 0.74731 0.07156 0.0
O373 O 0.1849 0.76556 0.05083 0.0
C374 C 0.18199 0.75888 0.94464 0.0
O375 O 0.17165 0.73266 0.00336 0.0
O376 O 0.15386 0.73075 0.00451 0.0
In377 In 0.24725 0.41719 0.01199 0.0
O378 O 0.24208 0.4134 0.94705 0.0
O379 O 0.23913 0.42678 0.97561 0.0
C380 C 0.23778 0.3931 0.0289 0.0
C381 C 0.27133 0.42958 0.99341 0.0
C382 C 0.24156 0.42462 0.07957 0.0
O383 O 0.23199 0.39712 0.0092 0.0
O384 O 0.24833 0.40123 0.04019 0.0
O385 O 0.25208 0.42598 0.07326 0.0
O386 O 0.23399 0.41964 0.05169 0.0
C387 C 0.23839 0.42105 0.94418 0.0
O388 O 0.26559 0.43496 0.00426 0.0
O389 O 0.26495 0.41801 0.99239 0.0
In390 In 0.17137 0.41808 0.50852 0.0
O391 O 0.16934 0.43513 0.50301 0.0
O392 O 0.15523 0.41836 0.47885 0.0
C393 C 0.18457 0.42434 0.57608 0.0
C394 C 0.18569 0.42262 0.4443 0.0
C395 C 0.15595 0.39421 0.52588 0.0
O396 O 0.1753 0.42565 0.57165 0.0
O397 O 0.18727 0.42014 0.54629 0.0
O398 O 0.16528 0.39776 0.50407 0.0
O399 O 0.15431 0.40272 0.53886 0.0
C400 C 0.15929 0.42968 0.48446 0.0
O401 O 0.17585 0.41257 0.44965 0.0
O402 O 0.18837 0.43045 0.47147 0.0
In403 In 0.57652 0.75054 0.50793 0.0
O404 O 0.58313 0.75936 0.44771 0.0
O405 O 0.56559 0.75604 0.46665 0.0
C406 C 0.59981 0.75986 0.5343 0.0
C407 C 0.56626 0.72693 0.48435 0.0
C408 C 0.56717 0.75542 0.57271 0.0
O409 O 0.59633 0.76609 0.5145 0.0
O410 O 0.59155 0.7489 0.54083 0.0
O411 O 0.56645 0.74515 0.56701 0.0
O412 O 0.57238 0.76315 0.54535 0.0
C413 C 0.57368 0.76006 0.43989 0.0
O414 O 0.56024 0.73102 0.50235 0.0
O415 O 0.57743 0.73471 0.47856 0.0
In416 In 0.24794 0.82716 0.51275 0.0
O417 O 0.24447 0.82655 0.44659 0.0
O418 O 0.24055 0.80986 0.47489 0.0
C419 C 0.23794 0.84138 0.52864 0.0
C420 C 0.2726 0.83995 0.50327 0.0
C421 C 0.23904 0.81188 0.57525 0.0
O422 O 0.23559 0.83512 0.49739 0.0
O423 O 0.24545 0.8406 0.55155 0.0
O424 O 0.25027 0.81992 0.57213 0.0
O425 O 0.23242 0.81138 0.54644 0.0
C426 C 0.2407 0.81521 0.44315 0.0
O427 O 0.26659 0.82837 0.50525 0.0
O428 O 0.26621 0.84508 0.50693 0.0
In429 In 0.08359 0.50099 0.31629 0.0
O430 O 0.08128 0.5018 0.38265 0.0
O431 O 0.09277 0.51864 0.35278 0.0
C432 C 0.05929 0.48578 0.30389 0.0
C433 C 0.09702 0.48993 0.32834 0.0
C434 C 0.0891 0.51515 0.25108 0.0
O435 O 0.0634 0.494 0.33018 0.0
O436 O 0.06745 0.4851 0.28405 0.0
O437 O 0.09234 0.50717 0.25518 0.0
O438 O 0.0833 0.51608 0.28001 0.0
C439 C 0.08819 0.51331 0.38513 0.0
O440 O 0.10185 0.5014 0.32369 0.0
O441 O 0.08544 0.48402 0.32592 0.0
In442 In 0.49223 0.57942 0.31565 0.0
O443 O 0.50258 0.60018 0.30467 0.0
O444 O 0.50374 0.59386 0.36172 0.0
C445 C 0.47704 0.57261 0.25272 0.0
C446 C 0.47588 0.56868 0.37473 0.0
C447 C 0.50874 0.57233 0.29726 0.0
O448 O 0.4824 0.58345 0.26604 0.0
O449 O 0.47914 0.5652 0.27168 0.0
O450 O 0.50284 0.56949 0.32928 0.0
O451 O 0.50654 0.579 0.27472 0.0
C452 C 0.50674 0.60293 0.33933 0.0
O453 O 0.4832 0.56511 0.36387 0.0
O454 O 0.47658 0.57757 0.35515 0.0
In455 In 0.41697 0.91104 0.31259 0.0
O456 O 0.39746 0.89509 0.32118 0.0
O457 O 0.40185 0.91246 0.34531 0.0
C458 C 0.42165 0.90246 0.24536 0.0
C459 C 0.42834 0.90638 0.37226 0.0
C460 C 0.42461 0.93487 0.29635 0.0
O461 O 0.41144 0.9018 0.25192 0.0
O462 O 0.42937 0.90723 0.27293 0.0
O463 O 0.42751 0.93147 0.32763 0.0
O464 O 0.41767 0.92622 0.27343 0.0
C465 C 0.39385 0.90128 0.34062 0.0
O466 O 0.43355 0.91615 0.35216 0.0
O467 O 0.41748 0.89885 0.36178 0.0
H468 H 0.23821 0.18666 0.25645 0.0
H469 H 0.22796 0.19781 0.23398 0.0
H470 H 0.20815 0.1897 0.34423 0.0
H471 H 0.21816 0.1783 0.36655 0.0
H472 H 0.19312 0.18429 0.28068 0.0
H473 H 0.23325 0.23132 0.26559 0.0
H474 H 0.235 0.21992 0.23896 0.0
H475 H 0.23404 0.21924 0.29202 0.0
C476 C 0.23177 0.18738 0.27606 0.0
C477 C 0.22897 0.18162 0.31324 0.0
C478 C 0.22598 0.19381 0.26329 0.0
C479 C 0.21743 0.19472 0.28767 0.0
C480 C 0.21477 0.18914 0.32505 0.0
H481 H 0.18512 0.24087 0.24479 0.0
H482 H 0.19673 0.23151 0.27088 0.0
C483 C 0.2205 0.18265 0.33776 0.0
C484 C 0.21066 0.20081 0.27324 0.0
H485 H 0.21443 0.22781 0.23642 0.0
C486 C 0.19777 0.19383 0.27122 0.0
C487 C 0.21675 0.21329 0.26135 0.0
C488 C 0.23051 0.22142 0.26492 0.0
C489 C 0.1908 0.19893 0.25698 0.0
C490 C 0.19692 0.21125 0.24355 0.0
C491 C 0.20979 0.21831 0.24628 0.0
C492 C 0.19009 0.21702 0.22705 0.0
C493 C 0.17695 0.19111 0.25704 0.0
C494 C 0.18269 0.21209 0.19339 0.0
C495 C 0.17598 0.21736 0.1786 0.0
C496 C 0.1767 0.22774 0.19698 0.0
C497 C 0.18437 0.23285 0.23009 0.0
C498 C 0.19101 0.22753 0.24499 0.0
H499 H 0.1737 0.18329 0.27802 0.0
H500 H 0.17259 0.19665 0.26502 0.0
H501 H 0.17376 0.18725 0.22704 0.0
H502 H 0.18208 0.20415 0.17858 0.0
H503 H 0.17022 0.21329 0.15284 0.0
H504 H 0.83373 0.04179 0.33269 0.0
H505 H 0.82421 0.0215 0.30126 0.0
H506 H 0.79753 0.02866 0.24513 0.0
H507 H 0.80715 0.04903 0.27573 0.0
H508 H 0.80066 0.00225 0.30795 0.0
H509 H 0.8106 0.01807 0.15232 0.0
H510 H 0.81789 0.02828 0.19362 0.0
H511 H 0.80255 0.02426 0.17895 0.0
C512 C 0.82584 0.03903 0.31361 0.0
C513 C 0.8212 0.04698 0.30648 0.0
C514 C 0.82043 0.02747 0.29566 0.0
C515 C 0.81033 0.0237 0.27027 0.0
C516 C 0.80552 0.03153 0.2638 0.0
H517 H 0.75891 0.95518 0.15907 0.0
H518 H 0.77037 0.97638 0.18358 0.0
C519 C 0.81096 0.04311 0.28156 0.0
C520 C 0.80457 0.01141 0.25158 0.0
H521 H 0.79658 0.99668 0.16246 0.0
C522 C 0.79986 0.00103 0.27615 0.0
C523 C 0.80357 0.00988 0.21005 0.0
C524 C 0.80902 0.02071 0.18216 0.0
C525 C 0.79391 0.98912 0.2603 0.0
C526 C 0.79274 0.9876 0.21889 0.0
C527 C 0.79751 0.99794 0.19424 0.0
C528 C 0.78638 0.97526 0.20088 0.0
C529 C 0.78868 0.9782 0.28787 0.0
C530 C 0.79178 0.96781 0.2017 0.0
C531 C 0.7853 0.95576 0.18759 0.0
C532 C 0.77331 0.95098 0.17263 0.0
C533 C 0.76812 0.95862 0.17055 0.0
C534 C 0.77464 0.97071 0.18447 0.0
H535 H 0.78869 0.98092 0.31912 0.0
H536 H 0.77911 0.97138 0.27921 0.0
H537 H 0.79428 0.97362 0.28583 0.0
H538 H 0.80089 0.97126 0.21405 0.0
H539 H 0.78954 0.95007 0.1895 0.0
H540 H 0.94591 0.76016 0.24779 0.0
H541 H 0.96702 0.77048 0.22288 0.0
H542 H 0.97937 0.79288 0.32805 0.0
H543 H 0.95818 0.78283 0.35264 0.0
H544 H 0.98912 0.80638 0.26224 0.0
H545 H 0.99482 0.76534 0.25821 0.0
H546 H 0.9818 0.76334 0.23023 0.0
H547 H 0.98208 0.76533 0.28296 0.0
C548 C 0.95314 0.76725 0.26569 0.0
C549 C 0.95044 0.77066 0.30224 0.0
C550 C 0.9652 0.77308 0.25153 0.0
C551 C 0.97479 0.78227 0.27397 0.0
C552 C 0.9721 0.78575 0.31038 0.0
H553 H 0.0526 0.81092 0.23584 0.0
H554 H 0.03139 0.80037 0.25982 0.0
C555 C 0.96001 0.78 0.3244 0.0
C556 C 0.98759 0.78852 0.25895 0.0
H557 H 0.01031 0.78333 0.22607 0.0
C558 C 0.99379 0.80136 0.25449 0.0
C559 C 0.99369 0.78195 0.24933 0.0
C560 C 0.9878 0.76825 0.25579 0.0
C561 C 0.0059 0.80781 0.24027 0.0
C562 C 0.01183 0.80119 0.22922 0.0
C563 C 0.00568 0.78836 0.23409 0.0
C564 C 0.02458 0.80742 0.21385 0.0
C565 C 0.0123 0.82167 0.23814 0.0
C566 C 0.02774 0.8147 0.17962 0.0
C567 C 0.03989 0.82084 0.16608 0.0
C568 C 0.04902 0.81962 0.1862 0.0
C569 C 0.04576 0.81203 0.21975 0.0
C570 C 0.03365 0.806 0.23347 0.0
H571 H 0.00785 0.82543 0.25769 0.0
H572 H 0.02214 0.82589 0.24661 0.0
H573 H 0.01182 0.82448 0.2074 0.0
H574 H 0.02082 0.81566 0.16344 0.0
H575 H 0.04214 0.82655 0.13995 0.0
H576 H 0.80434 0.75167 0.76848 0.0
H577 H 0.7933 0.76164 0.74242 0.0
H578 H 0.81803 0.79495 0.8049 0.0
H579 H 0.82904 0.785 0.83147 0.0
H580 H 0.79318 0.78806 0.8125 0.0
H581 H 0.8062 0.78813 0.65561 0.0
H582 H 0.79912 0.7733 0.67904 0.0
H583 H 0.81385 0.78529 0.696 0.0
C584 C 0.8074 0.76111 0.77673 0.0
C585 C 0.81757 0.76759 0.80186 0.0
C586 C 0.80114 0.7668 0.76163 0.0
C587 C 0.80499 0.77908 0.77124 0.0
C588 C 0.81498 0.78549 0.79698 0.0
H589 H 0.78575 0.82924 0.65945 0.0
H590 H 0.79608 0.81832 0.68368 0.0
C591 C 0.82124 0.7798 0.81211 0.0
C592 C 0.79855 0.78524 0.75479 0.0
H593 H 0.79157 0.79443 0.6684 0.0
C594 C 0.79282 0.78947 0.78101 0.0
C595 C 0.79826 0.78718 0.71373 0.0
C596 C 0.80478 0.78335 0.6844 0.0
C597 C 0.78667 0.79549 0.76723 0.0
C598 C 0.78609 0.79713 0.72609 0.0
C599 C 0.79194 0.79303 0.69988 0.0
C600 C 0.77967 0.80334 0.70981 0.0
C601 C 0.78107 0.80026 0.79685 0.0
C602 C 0.76699 0.79836 0.7157 0.0
C603 C 0.76109 0.80458 0.70202 0.0
C604 C 0.76777 0.81584 0.68195 0.0
C605 C 0.78039 0.82059 0.67491 0.0
C606 C 0.78629 0.81438 0.6887 0.0
H607 H 0.78492 0.80099 0.82693 0.0
H608 H 0.78261 0.80945 0.78796 0.0
H609 H 0.77099 0.79383 0.79834 0.0
H610 H 0.76169 0.78972 0.73123 0.0
H611 H 0.75134 0.80066 0.70764 0.0
H612 H 0.23475 0.05837 0.73663 0.0
H613 H 0.22424 0.03753 0.70935 0.0
H614 H 0.21339 0.02259 0.8268 0.0
H615 H 0.22357 0.04344 0.85416 0.0
H616 H 0.22772 0.01831 0.72071 0.0
H617 H 0.18082 0.00611 0.76961 0.0
H618 H 0.19362 0.02164 0.77162 0.0
H619 H 0.19157 0.01076 0.80972 0.0
C620 C 0.23012 0.05064 0.75663 0.0
C621 C 0.22988 0.0525 0.79748 0.0
C622 C 0.22413 0.03875 0.74101 0.0
C623 C 0.21783 0.02853 0.76596 0.0
C624 C 0.21791 0.03036 0.80691 0.0
H625 H 0.19508 0.95291 0.71073 0.0
H626 H 0.20591 0.97437 0.7322 0.0
C627 C 0.22379 0.04226 0.82253 0.0
C628 C 0.21131 0.01596 0.7491 0.0
H629 H 0.18335 0.98967 0.74539 0.0
C630 C 0.218 0.01206 0.72589 0.0
C631 C 0.19858 0.00792 0.75526 0.0
C632 C 0.1907 0.01185 0.77756 0.0
C633 C 0.21236 0.00022 0.70943 0.0
C634 C 0.19978 0.99197 0.7173 0.0
C635 C 0.19303 0.99597 0.73973 0.0
C636 C 0.19344 0.97908 0.70312 0.0
C637 C 0.21991 0.99676 0.68333 0.0
C638 C 0.18265 0.97452 0.68048 0.0
C639 C 0.17633 0.9622 0.66872 0.0
C640 C 0.18072 0.95426 0.67935 0.0
C641 C 0.19155 0.95886 0.70179 0.0
C642 C 0.1978 0.97114 0.71385 0.0
H643 H 0.22789 0.00503 0.67031 0.0
H644 H 0.22356 0.99189 0.70129 0.0
H645 H 0.21428 0.99058 0.65896 0.0
H646 H 0.1791 0.98049 0.67208 0.0
H647 H 0.16799 0.95888 0.65148 0.0
H648 H 0.03863 0.21118 0.64694 0.0
H649 H 0.0171 0.20149 0.66798 0.0
H650 H 0.0267 0.23068 0.75241 0.0
H651 H 0.04811 0.24061 0.7306 0.0
H652 H 0.00738 0.19253 0.7384 0.0
H653 H 0.99757 0.22961 0.69919 0.0
H654 H 0.01119 0.22957 0.68236 0.0
H655 H 0.01064 0.23495 0.73122 0.0
C656 C 0.03611 0.21557 0.66973 0.0
C657 C 0.045 0.22667 0.68701 0.0
C658 C 0.02383 0.21004 0.68172 0.0
C659 C 0.02026 0.21548 0.71126 0.0
C660 C 0.02917 0.2265 0.72879 0.0
H661 H 0.95508 0.17723 0.85661 0.0
H662 H 0.97598 0.18784 0.82988 0.0
C663 C 0.04142 0.23212 0.71651 0.0
C664 C 0.00734 0.20931 0.72512 0.0
H665 H 0.98307 0.21384 0.74202 0.0
C666 C 0.00203 0.19716 0.73889 0.0
C667 C 0.00031 0.21529 0.72521 0.0
C668 C 0.00517 0.22803 0.70831 0.0
C669 C 0.98997 0.19091 0.75356 0.0
C670 C 0.98318 0.19712 0.75561 0.0
C671 C 0.98837 0.20917 0.74097 0.0
C672 C 0.97062 0.19123 0.7725 0.0
C673 C 0.98459 0.17765 0.76611 0.0
C674 C 0.96076 0.19011 0.74973 0.0
C675 C 0.94885 0.18426 0.76519 0.0
C676 C 0.94661 0.17939 0.80364 0.0
C677 C 0.95653 0.18079 0.82674 0.0
C678 C 0.96846 0.18676 0.81141 0.0
H679 H 0.9894 0.17327 0.75177 0.0
H680 H 0.98565 0.17727 0.79854 0.0
H681 H 0.97464 0.17219 0.7588 0.0
H682 H 0.96225 0.19358 0.71972 0.0
H683 H 0.94136 0.18331 0.74676 0.0
H684 H 0.857 0.57771 0.57776 0.0
H685 H 0.86819 0.56787 0.60367 0.0
H686 H 0.84909 0.53786 0.52165 0.0
H687 H 0.83769 0.54751 0.49614 0.0
H688 H 0.84945 0.53007 0.59735 0.0
H689 H 0.89629 0.56586 0.55054 0.0
H690 H 0.88833 0.57157 0.58006 0.0
H691 H 0.88252 0.56528 0.53194 0.0
C692 C 0.85524 0.56904 0.56514 0.0
C693 C 0.84652 0.56338 0.53485 0.0
C694 C 0.86168 0.56347 0.57982 0.0
C695 C 0.8596 0.55224 0.56414 0.0
C696 C 0.85086 0.54656 0.534 0.0
H697 H 0.90287 0.51671 0.58715 0.0
H698 H 0.89251 0.52783 0.56565 0.0
C699 C 0.84438 0.55208 0.51944 0.0
C700 C 0.86627 0.5462 0.57977 0.0
H701 H 0.89495 0.5499 0.5915 0.0
C702 C 0.8594 0.53439 0.5961 0.0
C703 C 0.87923 0.55185 0.57771 0.0
C704 C 0.88704 0.56429 0.5588 0.0
C705 C 0.86514 0.52804 0.61048 0.0
C706 C 0.87812 0.53378 0.60918 0.0
C707 C 0.885 0.54559 0.5928 0.0
C708 C 0.8847 0.52745 0.62299 0.0
C709 C 0.85725 0.51511 0.62595 0.0
C710 C 0.88391 0.52375 0.66253 0.0
C711 C 0.88977 0.51734 0.67486 0.0
C712 C 0.8966 0.51463 0.64788 0.0
C713 C 0.89765 0.51864 0.60857 0.0
C714 C 0.89175 0.525 0.59626 0.0
H715 H 0.84753 0.51102 0.61612 0.0
H716 H 0.86083 0.50906 0.61607 0.0
H717 H 0.85736 0.5153 0.65873 0.0
H718 H 0.87871 0.52578 0.68378 0.0
H719 H 0.88888 0.51443 0.70541 0.0
H720 H 0.41653 0.27951 0.55168 0.0
H721 H 0.42544 0.30056 0.5767 0.0
H722 H 0.46024 0.30987 0.52321 0.0
H723 H 0.45137 0.28886 0.49775 0.0
H724 H 0.44562 0.31265 0.62775 0.0
H725 H 0.45392 0.33737 0.48507 0.0
H726 H 0.44385 0.32095 0.48954 0.0
H727 H 0.46024 0.32731 0.48754 0.0
C728 C 0.42605 0.28607 0.54497 0.0
C729 C 0.43326 0.28257 0.52267 0.0
C730 C 0.43112 0.29807 0.55932 0.0
C731 C 0.44344 0.30678 0.55137 0.0
C732 C 0.45064 0.30333 0.52901 0.0
H733 H 0.49266 0.37427 0.67128 0.0
H734 H 0.48104 0.35316 0.64656 0.0
C735 C 0.44559 0.29132 0.51468 0.0
C736 C 0.4489 0.31934 0.56786 0.0
H737 H 0.46334 0.34968 0.54206 0.0
C738 C 0.44942 0.32075 0.60906 0.0
C739 C 0.45369 0.32986 0.54334 0.0
C740 C 0.45282 0.32884 0.4989 0.0
C741 C 0.45495 0.33246 0.62647 0.0
C742 C 0.46022 0.34299 0.60196 0.0
C743 C 0.45938 0.34157 0.56075 0.0
C744 C 0.4669 0.35559 0.61841 0.0
C745 C 0.45506 0.33345 0.67092 0.0
C746 C 0.46288 0.36397 0.61029 0.0
C747 C 0.46952 0.37605 0.62422 0.0
C748 C 0.48035 0.37995 0.64624 0.0
C749 C 0.48431 0.37151 0.65455 0.0
C750 C 0.47766 0.35943 0.64064 0.0
H751 H 0.44786 0.32479 0.68472 0.0
H752 H 0.46414 0.33532 0.68226 0.0
H753 H 0.45362 0.34112 0.68033 0.0
H754 H 0.45463 0.36118 0.59298 0.0
H755 H 0.46627 0.38238 0.61728 0.0
H756 H 0.72117 0.14957 0.58897 0.0
H757 H 0.69981 0.13872 0.6116 0.0
H758 H 0.68745 0.13922 0.49302 0.0
H759 H 0.70885 0.15033 0.47029 0.0
H760 H 0.67644 0.14647 0.54765 0.0
H761 H 0.67382 0.10296 0.59523 0.0
H762 H 0.68634 0.11632 0.61766 0.0
H763 H 0.68622 0.1142 0.56505 0.0
C764 C 0.7139 0.14729 0.56766 0.0
C765 C 0.71666 0.15075 0.52785 0.0
C766 C 0.7017 0.14102 0.58059 0.0
C767 C 0.69205 0.13798 0.55386 0.0
C768 C 0.69478 0.14142 0.51406 0.0
H769 H 0.6146 0.08871 0.6043 0.0
H770 H 0.63559 0.09842 0.57839 0.0
C771 C 0.70699 0.14775 0.50113 0.0
C772 C 0.67914 0.13171 0.56781 0.0
H773 H 0.65746 0.10614 0.6162 0.0
C774 C 0.67225 0.13762 0.56242 0.0
C775 C 0.67366 0.12009 0.58661 0.0
C776 C 0.68034 0.11295 0.59116 0.0
C777 C 0.6601 0.13234 0.57606 0.0
C778 C 0.65481 0.12098 0.59642 0.0
C779 C 0.6616 0.11493 0.60105 0.0
C780 C 0.64217 0.11511 0.61267 0.0
C781 C 0.65299 0.13889 0.56801 0.0
C782 C 0.63898 0.1212 0.64102 0.0
C783 C 0.62697 0.11571 0.6557 0.0
C784 C 0.61802 0.10397 0.64259 0.0
C785 C 0.62131 0.09778 0.61491 0.0
C786 C 0.63329 0.1033 0.60009 0.0
H787 H 0.65702 0.14548 0.54306 0.0
H788 H 0.64321 0.13224 0.56107 0.0
H789 H 0.65326 0.14418 0.59465 0.0
H790 H 0.64577 0.1302 0.65182 0.0
H791 H 0.62471 0.12066 0.67722 0.0
H792 H 0.49679 0.12033 0.17239 0.0
H793 H 0.48524 0.12995 0.14795 0.0
H794 H 0.45839 0.09549 0.09573 0.0
H795 H 0.46998 0.08583 0.11964 0.0
H796 H 0.46676 0.11543 0.04446 0.0
H797 H 0.45247 0.12555 0.18827 0.0
H798 H 0.46872 0.13127 0.18435 0.0
H799 H 0.4582 0.11496 0.18354 0.0
C800 C 0.48837 0.11478 0.15598 0.0
C801 C 0.48426 0.10233 0.14797 0.0
C802 C 0.48176 0.12027 0.14223 0.0
C803 C 0.47089 0.11338 0.12052 0.0
C804 C 0.46674 0.10093 0.11262 0.0
H805 H 0.41907 0.13749 0.05767 0.0
H806 H 0.42881 0.12613 0.08285 0.0
C807 C 0.47335 0.09544 0.12633 0.0
C808 C 0.46414 0.1193 0.10455 0.0
H809 H 0.44956 0.13498 0.13137 0.0
C810 C 0.46293 0.11964 0.06343 0.0
C811 C 0.45905 0.12465 0.12944 0.0
C812 C 0.45955 0.12401 0.17387 0.0
C813 C 0.45698 0.12547 0.04643 0.0
C814 C 0.45231 0.13125 0.07127 0.0
C815 C 0.45327 0.13065 0.11242 0.0
C816 C 0.4464 0.13798 0.05516 0.0
C817 C 0.45564 0.1253 0.00209 0.0
C818 C 0.45312 0.14844 0.03149 0.0
C819 C 0.44758 0.15493 0.01702 0.0
C820 C 0.43526 0.1511 0.02621 0.0
C821 C 0.42857 0.14064 0.05001 0.0
C822 C 0.43411 0.13415 0.06446 0.0
H823 H 0.45677 0.11789 0.9883 0.0
H824 H 0.44651 0.12399 0.99361 0.0
H825 H 0.46284 0.13423 0.98984 0.0
H826 H 0.46269 0.15167 0.02462 0.0
H827 H 0.45298 0.16301 -0.00107 0.0
H828 H 0.8585 0.2828 0.04634 0.0
H829 H 0.86916 0.3037 0.07321 0.0
H830 H 0.84037 0.30975 0.02899 0.0
H831 H 0.82964 0.28884 0.00181 0.0
H832 H 0.86517 0.32921 0.01335 0.0
H833 H 0.85725 0.31496 0.1711 0.0
H834 H 0.8639 0.30788 0.14149 0.0
H835 H 0.84853 0.30469 0.13133 0.0
C836 C 0.85445 0.28859 0.04226 0.0
C837 C 0.84322 0.2842 0.02214 0.0
C838 C 0.86052 0.30048 0.05778 0.0
C839 C 0.85544 0.30816 0.05348 0.0
C840 C 0.84437 0.3039 0.03272 0.0
H841 H 0.87377 0.37564 0.17551 0.0
H842 H 0.86383 0.35477 0.14843 0.0
C843 C 0.83827 0.29198 0.01727 0.0
C844 C 0.86171 0.32065 0.0706 0.0
H845 H 0.87031 0.3362 0.15813 0.0
C846 C 0.8663 0.33077 0.04498 0.0
C847 C 0.86304 0.32257 0.11189 0.0
C848 C 0.85784 0.31197 0.14068 0.0
C849 C 0.87233 0.34285 0.05961 0.0
C850 C 0.87389 0.34478 0.10086 0.0
C851 C 0.86918 0.33465 0.1265 0.0
C852 C 0.88009 0.35727 0.11805 0.0
C853 C 0.87679 0.35343 0.0309 0.0
C854 C 0.89258 0.36546 0.11046 0.0
C855 C 0.89829 0.37738 0.12589 0.0
C856 C 0.89159 0.38125 0.14924 0.0
C857 C 0.87915 0.37292 0.15753 0.0
C858 C 0.87346 0.36101 0.14213 0.0
H859 H 0.87247 0.35036 0.00133 0.0
H860 H 0.8748 0.36057 0.04213 0.0
H861 H 0.8869 0.35772 0.0273 0.0
H862 H 0.89789 0.36265 0.09249 0.0
H863 H 0.9079 0.38359 0.11918 0.0
H864 H 0.61617 0.52512 0.12124 0.0
H865 H 0.63747 0.53512 0.09816 0.0
H866 H 0.64139 0.50544 0.14637 0.0
H867 H 0.62001 0.49532 0.16962 0.0
H868 H 0.6616 0.53096 0.16251 0.0
H869 H 0.64869 0.52097 0.00405 0.0
H870 H 0.64125 0.52781 0.03092 0.0
H871 H 0.63814 0.51263 0.04372 0.0
C872 C 0.62157 0.52075 0.12714 0.0
C873 C 0.61642 0.50941 0.14704 0.0
C874 C 0.63371 0.52645 0.11382 0.0
C875 C 0.64089 0.52091 0.1202 0.0
C876 C 0.63592 0.50979 0.14107 0.0
H877 H 0.71032 0.54061 0.0055 0.0
H878 H 0.68948 0.52952 0.03291 0.0
C879 C 0.62374 0.50403 0.15427 0.0
C880 C 0.65353 0.52671 0.10444 0.0
H881 H 0.66979 0.53446 0.01823 0.0
C882 C 0.66343 0.53169 0.13101 0.0
C883 C 0.6558 0.52749 0.06335 0.0
C884 C 0.64543 0.52187 0.03373 0.0
C885 C 0.67563 0.53776 0.1174 0.0
C886 C 0.67789 0.5389 0.07626 0.0
C887 C 0.66798 0.53363 0.04975 0.0
C888 C 0.69049 0.54562 0.06006 0.0
C889 C 0.686 0.54286 0.14704 0.0
C890 C 0.69784 0.55834 0.06583 0.0
C891 C 0.7097 0.5647 0.05008 0.0
C892 C 0.71439 0.55842 0.02828 0.0
C893 C 0.70695 0.54568 0.02222 0.0
C894 C 0.69507 0.53934 0.03785 0.0
H895 H 0.68279 0.5388 0.17686 0.0
H896 H 0.69345 0.54111 0.13745 0.0
H897 H 0.68993 0.55296 0.14939 0.0
H898 H 0.69436 0.56336 0.08235 0.0
H899 H 0.71522 0.57452 0.05515 0.0
H900 H 0.52131 0.90875 0.90203 0.0
H901 H 0.53237 0.89864 0.92649 0.0
H902 H 0.51567 0.87103 0.83551 0.0
H903 H 0.50431 0.8809 0.8116 0.0
H904 H 0.51482 0.86096 0.90667 0.0
H905 H 0.56212 0.8993 0.87817 0.0
H906 H 0.55325 0.90365 0.90876 0.0
H907 H 0.54865 0.89907 0.85839 0.0
C908 C 0.52005 0.90056 0.88714 0.0
C909 C 0.512 0.89563 0.85482 0.0
C910 C 0.52643 0.89484 0.90099 0.0
C911 C 0.52502 0.88422 0.88236 0.0
C912 C 0.51694 0.87926 0.85018 0.0
H913 H 0.57141 0.85187 0.90961 0.0
H914 H 0.5608 0.86263 0.88697 0.0
C915 C 0.51047 0.88491 0.83653 0.0
C916 C 0.53168 0.87804 0.8971 0.0
H917 H 0.56036 0.88256 0.91628 0.0
C918 C 0.52478 0.86566 0.90866 0.0
C919 C 0.54468 0.88416 0.89923 0.0
C920 C 0.55262 0.89724 0.88511 0.0
C921 C 0.53052 0.85925 0.92258 0.0
C922 C 0.5435 0.8655 0.92595 0.0
C923 C 0.5504 0.87784 0.91409 0.0
C924 C 0.55012 0.85926 0.94045 0.0
C925 C 0.52264 0.84578 0.93261 0.0
C926 C 0.54779 0.854 0.97832 0.0
C927 C 0.55377 0.84775 0.99119 0.0
C928 C 0.56229 0.84683 0.96659 0.0
C929 C 0.56487 0.85242 0.92917 0.0
C930 C 0.55883 0.85857 0.91622 0.0
H931 H 0.51344 0.84166 0.91839 0.0
H932 H 0.52714 0.8405 0.92324 0.0
H933 H 0.52123 0.84476 0.96506 0.0
H934 H 0.54133 0.85469 0.99786 0.0
H935 H 0.55168 0.84362 0.02031 0.0
H936 H 0.12506 0.61876 0.8424 0.0
H937 H 0.13651 0.63921 0.87279 0.0
H938 H 0.1028 0.64018 0.88544 0.0
H939 H 0.0913 0.61978 0.85548 0.0
H940 H 0.13805 0.66204 0.851 0.0
H941 H 0.11696 0.64571 -0.00123 0.0
H942 H 0.11624 0.63537 0.96038 0.0
H943 H 0.10601 0.64151 0.95929 0.0
C944 C 0.12012 0.62339 0.85136 0.0
C945 C 0.10728 0.61766 0.84686 0.0
C946 C 0.12666 0.63503 0.86875 0.0
C947 C 0.12044 0.64104 0.88202 0.0
C948 C 0.10771 0.63555 0.87611 0.0
H949 H 0.13593 0.70901 0.98841 0.0
H950 H 0.12708 0.6882 0.96145 0.0
C951 C 0.10117 0.62394 0.85877 0.0
C952 C 0.12718 0.65302 0.90243 0.0
H953 H 0.12834 0.66742 0.9892 0.0
C954 C 0.13605 0.66323 0.88134 0.0
C955 C 0.12454 0.65446 0.94205 0.0
C956 C 0.1155 0.64366 0.96664 0.0
C957 C 0.14202 0.675 0.89836 0.0
C958 C 0.13914 0.67649 0.93766 0.0
C959 C 0.13049 0.66622 0.95905 0.0
C960 C 0.14454 0.68874 0.95638 0.0
C961 C 0.15099 0.68582 0.87372 0.0
C962 C 0.15724 0.69576 0.96343 0.0
C963 C 0.16232 0.70764 0.97886 0.0
C964 C 0.15475 0.71264 0.98757 0.0
C965 C 0.14198 0.7054 0.9819 0.0
C966 C 0.13692 0.69353 0.9665 0.0
H967 H 0.15029 0.68349 0.84181 0.0
H968 H 0.14942 0.69372 0.87747 0.0
H969 H 0.16051 0.68878 0.88356 0.0
H970 H 0.16322 0.69211 0.95646 0.0
H971 H 0.17219 0.713 0.98308 0.0
H972 H 0.28684 0.45445 0.99156 0.0
H973 H 0.30811 0.46547 0.9675 0.0
H974 H 0.30644 0.43088 0.94408 0.0
H975 H 0.28518 0.4198 0.96776 0.0
H976 H 0.32918 0.46396 0.9933 0.0
H977 H 0.31643 0.44951 0.83709 0.0
H978 H 0.30537 0.44826 0.87358 0.0
H979 H 0.31044 0.43717 0.87244 0.0
C980 C 0.29103 0.44921 0.98143 0.0
C981 C 0.28435 0.43628 0.98124 0.0
C982 C 0.30316 0.4555 0.96777 0.0
C983 C 0.30873 0.44896 0.95354 0.0
C984 C 0.3022 0.43606 0.95436 0.0
H985 H 0.38589 0.47648 0.90063 0.0
H986 H 0.36501 0.46542 0.92784 0.0
C987 C 0.29009 0.42976 0.96803 0.0
C988 C 0.32132 0.45562 0.93726 0.0
H989 H 0.33771 0.46021 0.85235 0.0
C990 C 0.33108 0.46317 0.96251 0.0
C991 C 0.32367 0.45464 0.89697 0.0
C992 C 0.31343 0.44705 0.86827 0.0
C993 C 0.34322 0.46968 0.94855 0.0
C994 C 0.34561 0.46845 0.90848 0.0
C995 C 0.33582 0.46102 0.88314 0.0
C996 C 0.35818 0.475 0.89197 0.0
C997 C 0.35337 0.47796 0.97656 0.0
C998 C 0.36111 0.48381 0.86217 0.0
C999 C 0.37297 0.49008 0.84648 0.0
C1000 C 0.38207 0.48758 0.86019 0.0
C1001 C 0.37906 0.47861 0.88961 0.0
C1002 C 0.36718 0.47235 0.90534 0.0
H1003 H 0.3497 0.48004 0.00354 0.0
H1004 H 0.35853 0.47332 0.98582 0.0
H1005 H 0.35994 0.48675 0.96192 0.0
H1006 H 0.35423 0.48591 0.85137 0.0
H1007 H 0.37504 0.49693 0.82379 0.0
H1008 H 0.08874 0.46538 0.33605 0.0
H1009 H 0.10032 0.4557 0.35999 0.0
H1010 H 0.13302 0.49134 0.36929 0.0
H1011 H 0.12154 0.50112 0.3452 0.0
H1012 H 0.12444 0.45873 0.32885 0.0
H1013 H 0.12562 0.47466 0.48327 0.0
H1014 H 0.11448 0.47368 0.44747 0.0
H1015 H 0.13014 0.48593 0.44448 0.0
C1016 C 0.09843 0.47114 0.34278 0.0
C1017 C 0.10424 0.484 0.33897 0.0
C1018 C 0.10501 0.46561 0.35641 0.0
C1019 C 0.11745 0.47285 0.36673 0.0
C1020 C 0.12338 0.48564 0.36175 0.0
H1021 H 0.16761 0.45437 0.4852 0.0
H1022 H 0.1578 0.46508 0.45533 0.0
C1023 C 0.11683 0.49119 0.34788 0.0
C1024 C 0.12407 0.46703 0.38407 0.0
H1025 H 0.13562 0.46335 0.471 0.0
C1026 C 0.12692 0.45972 0.35989 0.0
C1027 C 0.1273 0.46844 0.42449 0.0
C1028 C 0.12419 0.47603 0.45169 0.0
C1029 C 0.13301 0.45381 0.37513 0.0
C1030 C 0.13602 0.455 0.41583 0.0
C1031 C 0.13328 0.46243 0.43986 0.0
C1032 C 0.14186 0.44848 0.4342 0.0
C1033 C 0.13636 0.44652 0.34738 0.0
C1034 C 0.13601 0.43559 0.43297 0.0
C1035 C 0.14161 0.42947 0.44982 0.0
C1036 C 0.15308 0.43612 0.46865 0.0
C1037 C 0.15877 0.44901 0.47086 0.0
C1038 C 0.15319 0.45513 0.45377 0.0
H1039 H 0.13674 0.44947 0.31621 0.0
H1040 H 0.1454 0.44749 0.35527 0.0
H1041 H 0.12926 0.43664 0.34933 0.0
H1042 H 0.1271 0.43026 0.41895 0.0
H1043 H 0.13698 0.41952 0.44792 0.0
H1044 H 0.51399 0.61077 0.41471 0.0
H1045 H 0.52466 0.63197 0.43886 0.0
H1046 H 0.52673 0.64521 0.31987 0.0
H1047 H 0.51576 0.62398 0.29561 0.0
H1048 H 0.54717 0.65153 0.42244 0.0
H1049 H 0.51038 0.66143 0.37833 0.0
H1050 H 0.50819 0.64608 0.37811 0.0
H1051 H 0.5162 0.65649 0.33812 0.0
C1052 C 0.51675 0.6182 0.39367 0.0
C1053 C 0.51396 0.61575 0.35333 0.0
C1054 C 0.52285 0.6303 0.40751 0.0
C1055 C 0.52627 0.64014 0.38125 0.0
C1056 C 0.5239 0.63773 0.34074 0.0
H1057 H 0.57655 0.71708 0.43645 0.0
H1058 H 0.56703 0.69596 0.4118 0.0
C1059 C 0.51771 0.62562 0.3269 0.0
C1060 C 0.53221 0.65289 0.39651 0.0
H1061 H 0.52899 0.6783 0.40185 0.0
C1062 C 0.5432 0.65739 0.41802 0.0
C1063 C 0.52689 0.66042 0.39125 0.0
C1064 C 0.5147 0.65584 0.37055 0.0
C1065 C 0.54908 0.66929 0.43411 0.0
C1066 C 0.54398 0.67697 0.42766 0.0
C1067 C 0.53294 0.67242 0.40646 0.0
C1068 C 0.54985 0.68971 0.44298 0.0
C1069 C 0.56054 0.67339 0.4586 0.0
C1070 C 0.54322 0.69329 0.46782 0.0
C1071 C 0.54857 0.70539 0.48144 0.0
C1072 C 0.56065 0.7141 0.47051 0.0
C1073 C 0.56727 0.71051 0.44565 0.0
C1074 C 0.56187 0.69844 0.43174 0.0
H1075 H 0.56115 0.66542 0.47016 0.0
H1076 H 0.56876 0.67895 0.43991 0.0
H1077 H 0.56083 0.67915 0.48394 0.0
H1078 H 0.5339 0.6867 0.47667 0.0
H1079 H 0.54326 0.70791 0.50054 0.0
H1080 H 0.37619 0.87704 0.34145 0.0
H1081 H 0.35603 0.8677 0.37368 0.0
H1082 H 0.36347 0.90352 0.41239 0.0
H1083 H 0.38369 0.91296 0.38034 0.0
H1084 H 0.35204 0.87097 0.45972 0.0
H1085 H 0.329 0.88686 0.35333 0.0
H1086 H 0.34238 0.88578 0.34007 0.0
H1087 H 0.34401 0.89808 0.37118 0.0
C1088 C 0.3735 0.88294 0.35659 0.0
C1089 C 0.38148 0.89573 0.35832 0.0
C1090 C 0.36202 0.87759 0.37506 0.0
C1091 C 0.35831 0.88495 0.39516 0.0
C1092 C 0.36618 0.89772 0.3967 0.0
H1093 H 0.28758 0.86486 0.50182 0.0
H1094 H 0.30909 0.87636 0.48052 0.0
C1095 C 0.3777 0.90308 0.37843 0.0
C1096 C 0.34623 0.87919 0.41504 0.0
H1097 H 0.31742 0.87536 0.40806 0.0
C1098 C 0.34446 0.87193 0.44861 0.0
C1099 C 0.33646 0.8806 0.4005 0.0
C1100 C 0.33795 0.88819 0.36416 0.0
C1101 C 0.33307 0.86597 0.46809 0.0
C1102 C 0.32315 0.86707 0.45287 0.0
C1103 C 0.32503 0.87453 0.41968 0.0
C1104 C 0.3106 0.86016 0.46969 0.0
C1105 C 0.33181 0.85867 0.50497 0.0
C1106 C 0.30436 0.84725 0.47099 0.0
C1107 C 0.29212 0.84067 0.48345 0.0
C1108 C 0.28587 0.8469 0.49425 0.0
C1109 C 0.29219 0.85983 0.49368 0.0
C1110 C 0.30446 0.8664 0.48149 0.0
H1111 H 0.34086 0.86196 0.51955 0.0
H1112 H 0.32543 0.85924 0.52649 0.0
H1113 H 0.32811 0.84887 0.49693 0.0
H1114 H 0.30882 0.84223 0.46109 0.0
H1115 H 0.28745 0.83071 0.4833 0.0
H1116 H 0.09589 0.21962 0.73346 0.0
H1117 H 0.10317 0.21522 0.79549 0.0
H1118 H 0.10153 0.24514 0.8522 0.0
H1119 H 0.09442 0.24967 0.79063 0.0
H1120 H 0.1255 0.23427 0.84156 0.0
H1121 H 0.08138 0.21336 0.92421 0.0
H1122 H 0.08211 0.21366 0.87084 0.0
H1123 H 0.08522 0.22725 0.89771 0.0
C1124 C 0.09706 0.22523 0.75923 0.0
C1125 C 0.0946 0.23499 0.75729 0.0
C1126 C 0.1012 0.2227 0.79451 0.0
C1127 C 0.10272 0.22978 0.82834 0.0
C1128 C 0.10025 0.23949 0.82644 0.0
H1129 H 0.12722 0.2443 0.06357 0.0
H1130 H 0.11725 0.24078 -0.0008 0.0
C1131 C 0.09625 0.2421 0.79122 0.0
C1132 C 0.10738 0.22749 0.86555 0.0
H1133 H 0.09963 0.22006 0.96226 0.0
C1134 C 0.11984 0.23094 0.86789 0.0
C1135 C 0.09991 0.22317 0.8996 0.0
C1136 C 0.08637 0.21904 0.89812 0.0
C1137 C 0.12526 0.23093 0.90418 0.0
C1138 C 0.11789 0.22707 0.93869 0.0
C1139 C 0.10527 0.22302 0.93581 0.0
C1140 C 0.1233 0.22834 0.97852 0.0
C1141 C 0.13896 0.23576 0.90559 0.0
C1142 C 0.12979 0.22229 0.98861 0.0
C1143 C 0.13562 0.2244 0.02535 0.0
C1144 C 0.13489 0.23245 0.05268 0.0
C1145 C 0.12796 0.23807 0.0431 0.0
C1146 C 0.12224 0.23605 0.00634 0.0
H1147 H 0.14364 0.24075 0.87811 0.0
H1148 H 0.14321 0.24208 0.93107 0.0
H1149 H 0.14065 0.22794 0.90916 0.0
H1150 H 0.13048 0.21608 0.96792 0.0
H1151 H 0.14082 0.21987 0.03212 0.0
H1152 H 0.74849 0.88214 0.0576 0.0
H1153 H 0.7521 0.87522 0.99417 0.0
H1154 H 0.77949 0.91254 0.96516 0.0
H1155 H 0.77575 0.91958 0.02846 0.0
H1156 H 0.76287 0.90166 0.90651 0.0
H1157 H 0.77993 0.87069 0.9539 0.0
H1158 H 0.76572 0.86694 0.97782 0.0
H1159 H 0.77924 0.88162 0.98699 0.0
C1160 C 0.75541 0.88885 0.03798 0.0
C1161 C 0.76184 0.9014 0.04794 0.0
C1162 C 0.75753 0.88487 0.00186 0.0
C1163 C 0.76621 0.89334 0.97523 0.0
C1164 C 0.77282 0.90585 0.98544 0.0
H1165 H 0.77849 0.8639 0.75516 0.0
H1166 H 0.78265 0.87585 0.81626 0.0
C1167 C 0.77067 0.90985 0.02157 0.0
C1168 C 0.76752 0.88921 0.93546 0.0
H1169 H 0.77141 0.8674 0.88806 0.0
C1170 C 0.76495 0.89431 0.9024 0.0
C1171 C 0.77043 0.87978 0.93005 0.0
C1172 C 0.77412 0.87454 0.96408 0.0
C1173 C 0.76451 0.88973 0.86429 0.0
C1174 C 0.76645 0.87964 0.85931 0.0
C1175 C 0.76975 0.87503 0.89203 0.0
C1176 C 0.76427 0.87318 0.82101 0.0
C1177 C 0.76179 0.89562 0.82982 0.0
C1178 C 0.75256 0.8677 0.80362 0.0
C1179 C 0.75017 0.86091 0.76883 0.0
C1180 C 0.75942 0.85939 0.75098 0.0
C1181 C 0.77119 0.86496 0.76823 0.0
C1182 C 0.77358 0.87177 0.80308 0.0
H1183 H 0.76454 0.90535 0.8363 0.0
H1184 H 0.76664 0.89536 0.8027 0.0
H1185 H 0.75175 0.89056 0.82391 0.0
H1186 H 0.74516 0.86842 0.81748 0.0
H1187 H 0.74099 0.85667 0.75635 0.0
H1188 H 0.1173 0.87103 0.06973 0.0
H1189 H 0.12513 0.88119 0.00609 0.0
H1190 H 0.08809 0.86456 0.96103 0.0
H1191 H 0.08012 0.85424 0.0247 0.0
H1192 H 0.11745 0.86493 0.9302 0.0
H1193 H 0.10768 0.90368 0.93147 0.0
H1194 H 0.11034 0.89766 0.97663 0.0
H1195 H 0.09627 0.88879 0.94993 0.0
C1196 C 0.11079 0.86967 0.04652 0.0
C1197 C 0.0981 0.8618 0.05208 0.0
C1198 C 0.11528 0.87549 0.01025 0.0
C1199 C 0.10716 0.87364 0.97915 0.0
C1200 C 0.09446 0.86616 0.98495 0.0
H1201 H 0.12472 0.9008 0.73599 0.0
H1202 H 0.11379 0.89199 0.79823 0.0
C1203 C 0.08994 0.86027 0.02123 0.0
C1204 C 0.11213 0.87859 0.93967 0.0
H1205 H 0.11772 0.90175 0.8753 0.0
C1206 C 0.11748 0.87295 0.91804 0.0
C1207 C 0.11197 0.88893 0.92396 0.0
C1208 C 0.1063 0.89521 0.94653 0.0
C1209 C 0.12287 0.8775 0.8811 0.0
C1210 C 0.1232 0.88817 0.86598 0.0
C1211 C 0.11752 0.89362 0.88714 0.0
C1212 C 0.12983 0.89403 0.82899 0.0
C1213 C 0.12813 0.87079 0.85855 0.0
C1214 C 0.14249 0.89834 0.82611 0.0
C1215 C 0.14871 0.90327 0.79072 0.0
C1216 C 0.1424 0.90413 0.75767 0.0
C1217 C 0.1298 0.9002 0.76097 0.0
C1218 C 0.12355 0.89519 0.79644 0.0
H1219 H 0.12396 0.86105 0.86821 0.0
H1220 H 0.12664 0.87097 0.82627 0.0
H1221 H 0.13818 0.87534 0.86407 0.0
H1222 H 0.14755 0.89777 0.85119 0.0
H1223 H 0.15845 0.90634 0.7892 0.0
H1224 H 0.25375 0.11732 0.73565 0.0
H1225 H 0.24839 0.12402 0.67489 0.0
H1226 H 0.21012 0.09712 0.69259 0.0
H1227 H 0.21545 0.0903 0.75374 0.0
H1228 H 0.21928 0.09635 0.61717 0.0
H1229 H 0.23085 0.14379 0.65598 0.0
H1230 H 0.24297 0.14071 0.66828 0.0
H1231 H 0.22833 0.13234 0.69284 0.0
C1232 C 0.24417 0.11296 0.727 0.0
C1233 C 0.23501 0.1033 0.74942 0.0
C1234 C 0.24111 0.11684 0.69239 0.0
C1235 C 0.22885 0.11117 0.67956 0.0
C1236 C 0.21963 0.10167 0.70224 0.0
H1237 H 0.21785 0.14299 0.46348 0.0
H1238 H 0.21343 0.13315 0.52858 0.0
C1239 C 0.22268 0.09782 0.73713 0.0
C1240 C 0.22598 0.11456 0.64078 0.0
H1241 H 0.23073 0.13945 0.58651 0.0
C1242 C 0.22153 0.10571 0.61057 0.0
C1243 C 0.22876 0.12672 0.6324 0.0
C1244 C 0.23287 0.1364 0.66421 0.0
C1245 C 0.22059 0.10893 0.57154 0.0
C1246 C 0.22435 0.12133 0.5626 0.0
C1247 C 0.22798 0.12997 0.59332 0.0
C1248 C 0.22567 0.1258 0.52144 0.0
C1249 C 0.21585 0.09909 0.54012 0.0
C1250 C 0.23391 0.12481 0.49574 0.0
C1251 C 0.23645 0.13041 0.45862 0.0
C1252 C 0.23085 0.13717 0.44668 0.0
C1253 C 0.22228 0.13781 0.47189 0.0
C1254 C 0.21975 0.13221 0.50906 0.0
H1255 H 0.20968 0.08985 0.55294 0.0
H1256 H 0.21077 0.10094 0.51674 0.0
H1257 H 0.22375 0.09887 0.52621 0.0
H1258 H 0.2388 0.12015 0.50503 0.0
H1259 H 0.24314 0.12981 0.43991 0.0
H1260 H 0.87613 0.10211 0.43273 0.0
H1261 H 0.8866 0.10886 0.49644 0.0
H1262 H 0.85262 0.08451 0.5565 0.0
H1263 H 0.84219 0.07748 0.49291 0.0
H1264 H 0.88081 0.12083 0.54889 0.0
H1265 H 0.87676 0.07939 0.62086 0.0
H1266 H 0.87412 0.07997 0.56863 0.0
H1267 H 0.86215 0.07689 0.6038 0.0
C1268 C 0.87096 0.098 0.45951 0.0
C1269 C 0.85834 0.08932 0.45794 0.0
C1270 C 0.87696 0.10184 0.49586 0.0
C1271 C 0.87043 0.0971 0.53124 0.0
C1272 C 0.85793 0.08807 0.52962 0.0
H1273 H 0.8796 0.13468 0.74808 0.0
H1274 H 0.87285 0.12299 0.68656 0.0
C1275 C 0.85195 0.08414 0.49325 0.0
C1276 C 0.87622 0.10277 0.56951 0.0
H1277 H 0.88059 0.09628 0.66418 0.0
C1278 C 0.88094 0.11547 0.57387 0.0
C1279 C 0.87647 0.09581 0.60204 0.0
C1280 C 0.87222 0.08228 0.59851 0.0
C1281 C 0.88541 0.12131 0.61025 0.0
C1282 C 0.88492 0.11422 0.64335 0.0
C1283 C 0.88076 0.10163 0.63877 0.0
C1284 C 0.88825 0.11979 0.68309 0.0
C1285 C 0.89045 0.13502 0.61314 0.0
C1286 C 0.89886 0.12138 0.70221 0.0
C1287 C 0.90274 0.12804 0.73754 0.0
C1288 C 0.89601 0.13315 0.75408 0.0
C1289 C 0.88502 0.13094 0.73587 0.0
C1290 C 0.88116 0.12428 0.70073 0.0
H1291 H 0.89308 0.13953 0.5837 0.0
H1292 H 0.88329 0.13675 0.62574 0.0
H1293 H 0.89862 0.13938 0.63284 0.0
H1294 H 0.90441 0.11792 0.68898 0.0
H1295 H 0.91123 0.12959 0.75103 0.0
H1296 H 0.86661 0.77899 0.73914 0.0
H1297 H 0.878 0.78272 0.677 0.0
H1298 H 0.87133 0.74551 0.67894 0.0
H1299 H 0.85989 0.74167 0.74076 0.0
H1300 H 0.89897 0.7797 0.65519 0.0
H1301 H 0.856 0.74887 0.57344 0.0
H1302 H 0.85597 0.75486 0.62191 0.0
H1303 H 0.85852 0.74205 0.61655 0.0
C1304 C 0.86769 0.77165 0.72652 0.0
C1305 C 0.86227 0.76 0.74455 0.0
C1306 C 0.87421 0.77381 0.69112 0.0
C1307 C 0.87533 0.76433 0.67325 0.0
C1308 C 0.8704 0.75288 0.6921 0.0
H1309 H 0.91816 0.76011 0.484 0.0
H1310 H 0.91071 0.76292 0.54765 0.0
C1311 C 0.8639 0.75071 0.72743 0.0
C1312 C 0.88108 0.76614 0.6339 0.0
H1313 H 0.87481 0.75532 0.53944 0.0
C1314 C 0.89371 0.77446 0.62972 0.0
C1315 C 0.8741 0.75946 0.6007 0.0
C1316 C 0.86037 0.75089 0.60311 0.0
C1317 C 0.89967 0.77591 0.59331 0.0
C1318 C 0.8928 0.76873 0.56062 0.0
C1319 C 0.88008 0.76077 0.56458 0.0
C1320 C 0.89859 0.76877 0.52248 0.0
C1321 C 0.91323 0.78509 0.5902 0.0
C1322 C 0.89426 0.77111 0.48716 0.0
C1323 C 0.8984 0.76938 0.45073 0.0
C1324 C 0.90692 0.76522 0.44903 0.0
C1325 C 0.91163 0.76337 0.48441 0.0
C1326 C 0.90745 0.76506 0.52083 0.0
H1327 H 0.9162 0.79237 0.6131 0.0
H1328 H 0.91852 0.78026 0.59476 0.0
H1329 H 0.9156 0.78951 0.56062 0.0
H1330 H 0.88737 0.77392 0.4878 0.0
H1331 H 0.89462 0.7709 0.42393 0.0
H1332 H 0.86877 0.75279 0.929 0.0
H1333 H 0.87801 0.75541 0.99442 0.0
H1334 H 0.85854 0.77359 0.03487 0.0
H1335 H 0.84902 0.77075 0.96962 0.0
H1336 H 0.89241 0.77586 0.04103 0.0
H1337 H 0.84724 0.74486 0.11182 0.0
H1338 H 0.84922 0.7461 0.05892 0.0
H1339 H 0.84824 0.75787 0.0862 0.0
C1340 C 0.86653 0.75744 0.95172 0.0
C1341 C 0.85808 0.76145 0.94438 0.0
C1342 C 0.87184 0.75895 0.98904 0.0
C1343 C 0.86879 0.7645 0.01963 0.0
C1344 C 0.86081 0.76905 0.01187 0.0
H1345 H 0.90659 0.77891 0.24937 0.0
H1346 H 0.89811 0.78195 0.18782 0.0
C1347 C 0.85544 0.76748 0.97456 0.0
C1348 C 0.87358 0.76495 0.05994 0.0
H1349 H 0.86468 0.75344 0.15305 0.0
C1350 C 0.88637 0.77106 0.06567 0.0
C1351 C 0.86564 0.75856 0.09183 0.0
C1352 C 0.85182 0.75138 0.08701 0.0
C1353 C 0.89145 0.77074 0.1023 0.0
C1354 C 0.8835 0.76431 0.13411 0.0
C1355 C 0.87072 0.75844 0.12861 0.0
C1356 C 0.88822 0.76263 0.17228 0.0
C1357 C 0.90526 0.77683 0.10616 0.0
C1358 C 0.88516 0.75074 0.18441 0.0
C1359 C 0.88989 0.74898 0.21952 0.0
C1360 C 0.89776 0.75908 0.24323 0.0
C1361 C 0.90059 0.77096 0.23156 0.0
C1362 C 0.89582 0.77272 0.19636 0.0
H1363 H 0.90991 0.77923 0.07694 0.0
H1364 H 0.90872 0.78543 0.12353 0.0
H1365 H 0.90788 0.77072 0.12198 0.0
H1366 H 0.87928 0.74283 0.16627 0.0
H1367 H 0.88752 0.73971 0.22778 0.0
H1368 H 0.25062 0.11714 0.94467 0.0
H1369 H 0.24681 0.12271 0.01011 0.0
H1370 H 0.21594 0.08606 0.02534 0.0
H1371 H 0.21983 0.08033 0.95983 0.0
H1372 H 0.22612 0.12231 0.04182 0.0
H1373 H 0.2376 0.0906 0.12199 0.0
H1374 H 0.24114 0.09427 0.07038 0.0
H1375 H 0.22565 0.08367 0.08545 0.0
C1376 C 0.24298 0.11027 0.96182 0.0
C1377 C 0.23558 0.09827 0.94728 0.0
C1378 C 0.2408 0.11347 -0.00082 0.0
C1379 C 0.2312 0.10475 0.02275 0.0
C1380 C 0.22353 0.09286 0.00785 0.0
H1381 H 0.21601 0.13107 0.24565 0.0
H1382 H 0.21241 0.11993 0.18306 0.0
C1383 C 0.22572 0.08963 0.9704 0.0
C1384 C 0.22958 0.10818 0.06324 0.0
H1385 H 0.23273 0.10316 0.16059 0.0
C1386 C 0.2274 0.11804 0.06787 0.0
C1387 C 0.23137 0.10262 0.09703 0.0
C1388 C 0.23416 0.09226 0.09372 0.0
C1389 C 0.22737 0.12279 0.10537 0.0
C1390 C 0.22935 0.11735 0.13915 0.0
C1391 C 0.23113 0.10723 0.13461 0.0
C1392 C 0.2309 0.12285 0.17892 0.0
C1393 C 0.22587 0.13397 0.10834 0.0
C1394 C 0.24231 0.12772 0.19804 0.0
C1395 C 0.24436 0.13398 0.2338 0.0
C1396 C 0.23501 0.13547 0.25113 0.0
C1397 C 0.2234 0.13012 0.23284 0.0
C1398 C 0.22135 0.12382 0.19702 0.0
H1399 H 0.22682 0.13842 0.07917 0.0
H1400 H 0.21658 0.13119 0.12012 0.0
H1401 H 0.23278 0.14087 0.12887 0.0
H1402 H 0.24979 0.12704 0.18459 0.0
H1403 H 0.25338 0.13797 0.24725 0.0
H1404 H 0.85 0.10903 0.23677 0.0
H1405 H 0.86086 0.11744 0.17448 0.0
H1406 H 0.88246 0.09989 0.19417 0.0
H1407 H 0.87155 0.09133 0.25653 0.0
H1408 H 0.88656 0.1327 0.16024 0.0
H1409 H 0.86657 0.08742 0.08392 0.0
H1410 H 0.86022 0.08954 0.12912 0.0
H1411 H 0.87406 0.08866 0.13039 0.0
C1412 C 0.85709 0.107 0.22793 0.0
C1413 C 0.85989 0.09948 0.25135 0.0
C1414 C 0.86329 0.11182 0.1924 0.0
C1415 C 0.87233 0.10915 0.17961 0.0
C1416 C 0.87537 0.10189 0.20334 0.0
H1417 H 0.91875 0.14733 0.97471 0.0
H1418 H 0.91216 0.13793 0.04017 0.0
C1419 C 0.86918 0.09707 0.23898 0.0
C1420 C 0.87839 0.11388 0.14105 0.0
H1421 H 0.88036 0.10493 0.04738 0.0
C1422 C 0.88532 0.12666 0.13561 0.0
C1423 C 0.87662 0.10592 0.10905 0.0
C1424 C 0.8689 0.09212 0.11308 0.0
C1425 C 0.89037 0.13172 0.09867 0.0
C1426 C 0.88855 0.12376 0.06659 0.0
C1427 C 0.8818 0.11098 0.07221 0.0
C1428 C 0.89273 0.12855 0.02626 0.0
C1429 C 0.89716 0.14553 0.09387 0.0
C1430 C 0.884 0.126 0.9965 0.0
C1431 C 0.88772 0.13127 0.95914 0.0
C1432 C 0.90025 0.13917 0.95093 0.0
C1433 C 0.90902 0.14133 0.98031 0.0
C1434 C 0.90529 0.13603 0.01772 0.0
H1435 H 0.89566 0.15021 0.11934 0.0
H1436 H 0.90718 0.14893 0.09157 0.0
H1437 H 0.89422 0.1482 0.06644 0.0
H1438 H 0.87426 0.12021 0.00256 0.0
H1439 H 0.88076 0.12941 0.93703 0.0
H1440 H 0.7501 0.90953 0.29163 0.0
H1441 H 0.75251 0.90141 0.35457 0.0
H1442 H 0.76611 0.88048 0.29318 0.0
H1443 H 0.76393 0.88874 0.23 0.0
H1444 H 0.74089 0.87703 0.37651 0.0
H1445 H 0.79165 0.8973 0.38058 0.0
H1446 H 0.78413 0.90269 0.34721 0.0
H1447 H 0.78442 0.88881 0.33641 0.0
C1448 C 0.75369 0.90326 0.29154 0.0
C1449 C 0.75684 0.89976 0.25594 0.0
C1450 C 0.75507 0.89865 0.3275 0.0
C1451 C 0.75965 0.89048 0.32856 0.0
C1452 C 0.76282 0.88698 0.29307 0.0
H1453 H 0.76486 0.84628 0.51656 0.0
H1454 H 0.7662 0.85654 0.45361 0.0
C1455 C 0.76148 0.89163 0.25701 0.0
C1456 C 0.76038 0.88511 0.3667 0.0
H1457 H 0.78015 0.88254 0.43015 0.0
C1458 C 0.74948 0.87828 0.38833 0.0
C1459 C 0.7716 0.88674 0.38189 0.0
C1460 C 0.78365 0.89437 0.36054 0.0
C1461 C 0.74947 0.87292 0.42464 0.0
C1462 C 0.76069 0.87459 0.43994 0.0
C1463 C 0.77159 0.88133 0.41826 0.0
C1464 C 0.76117 0.86931 0.47846 0.0
C1465 C 0.73742 0.86534 0.44609 0.0
C1466 C 0.75829 0.87338 0.51329 0.0
C1467 C 0.75751 0.86756 0.54918 0.0
C1468 C 0.75966 0.85759 0.55079 0.0
C1469 C 0.76312 0.85391 0.51616 0.0
C1470 C 0.7639 0.85976 0.48024 0.0
H1471 H 0.72939 0.86268 0.42641 0.0
H1472 H 0.7368 0.85686 0.45857 0.0
H1473 H 0.73684 0.87081 0.47091 0.0
H1474 H 0.75633 0.88087 0.5125 0.0
H1475 H 0.75489 0.87063 0.57543 0.0
H1476 H 0.08535 0.86524 0.26098 0.0
H1477 H 0.09336 0.87643 0.32317 0.0
H1478 H 0.12684 0.87518 0.30741 0.0
H1479 H 0.1188 0.86377 0.24582 0.0
H1480 H 0.11643 0.86682 0.37944 0.0
H1481 H 0.11968 0.91177 0.34754 0.0
H1482 H 0.10485 0.89862 0.33781 0.0
H1483 H 0.11792 0.90102 0.30915 0.0
C1484 C 0.0945 0.86752 0.27052 0.0
C1485 C 0.10145 0.86361 0.24867 0.0
C1486 C 0.09908 0.87397 0.30591 0.0
C1487 C 0.11074 0.87674 0.31969 0.0
C1488 C 0.11783 0.87316 0.29724 0.0
H1489 H 0.15565 0.9217 0.51159 0.0
H1490 H 0.14561 0.91358 0.44793 0.0
C1491 C 0.11323 0.86665 0.26207 0.0
C1492 C 0.1152 0.88242 0.35898 0.0
H1493 H 0.12294 0.90808 0.41415 0.0
C1494 C 0.11786 0.87585 0.38703 0.0
C1495 C 0.1171 0.89422 0.36867 0.0
C1496 C 0.11485 0.90189 0.33914 0.0
C1497 C 0.12245 0.88075 0.42445 0.0
C1498 C 0.12414 0.89245 0.43446 0.0
C1499 C 0.12147 0.89905 0.40648 0.0
C1500 C 0.12934 0.89819 0.47313 0.0
C1501 C 0.12579 0.87351 0.45249 0.0
C1502 C 0.12331 0.89246 0.50839 0.0
C1503 C 0.12906 0.89702 0.54477 0.0
C1504 C 0.14088 0.90745 0.54641 0.0
C1505 C 0.14656 0.91361 0.5112 0.0
C1506 C 0.14083 0.909 0.47483 0.0
H1507 H 0.12669 0.8662 0.43696 0.0
H1508 H 0.13458 0.87964 0.46794 0.0
H1509 H 0.11845 0.86902 0.47508 0.0
H1510 H 0.11432 0.88424 0.50768 0.0
H1511 H 0.12442 0.89215 0.57147 0.0
H1512 H 0.07155 0.22417 0.52342 0.0
H1513 H 0.07708 0.21981 0.45843 0.0
H1514 H 0.11433 0.23347 0.49856 0.0
H1515 H 0.10882 0.23758 0.56366 0.0
H1516 H 0.09339 0.23674 0.40926 0.0
H1517 H 0.10793 0.2027 0.4409 0.0
H1518 H 0.09922 0.20621 0.47581 0.0
H1519 H 0.11569 0.21586 0.47253 0.0
C1520 C 0.08087 0.22603 0.51855 0.0
C1521 C 0.08977 0.23123 0.54855 0.0
C1522 C 0.084 0.22352 0.48146 0.0
C1523 C 0.09606 0.22614 0.4738 0.0
C1524 C 0.10488 0.23106 0.50407 0.0
H1525 H 0.14136 0.25324 0.2743 0.0
H1526 H 0.12861 0.2488 0.33312 0.0
C1527 C 0.10175 0.23351 0.54118 0.0
C1528 C 0.09984 0.22505 0.43322 0.0
H1529 H 0.11629 0.21482 0.38123 0.0
C1530 C 0.09818 0.23173 0.40297 0.0
C1531 C 0.1059 0.21835 0.42476 0.0
C1532 C 0.10717 0.21027 0.45517 0.0
C1533 C 0.10314 0.23259 0.36524 0.0
C1534 C 0.11013 0.22679 0.35785 0.0
C1535 C 0.11108 0.2194 0.38719 0.0
C1536 C 0.11749 0.22929 0.32137 0.0
C1537 C 0.10111 0.23995 0.33391 0.0
C1538 C 0.11563 0.21972 0.2957 0.0
C1539 C 0.12297 0.22223 0.26195 0.0
C1540 C 0.13233 0.23433 0.25376 0.0
C1541 C 0.13418 0.24384 0.2797 0.0
C1542 C 0.12685 0.24134 0.3132 0.0
H1543 H 0.09259 0.24033 0.33964 0.0
H1544 H 0.10897 0.24953 0.33411 0.0
H1545 H 0.10048 0.23601 0.30405 0.0
H1546 H 0.10852 0.21034 0.30176 0.0
H1547 H 0.12139 0.21472 0.24253 0.0
H1548 H 0.81836 0.56381 0.35844 0.0
H1549 H 0.80897 0.56143 0.29316 0.0
H1550 H 0.78496 0.57367 0.3403 0.0
H1551 H 0.79423 0.57601 0.40565 0.0
H1552 H 0.77345 0.55272 0.28672 0.0
H1553 H 0.81629 0.59253 0.22746 0.0
H1554 H 0.81789 0.58047 0.25044 0.0
H1555 H 0.81354 0.58961 0.27975 0.0
C1556 C 0.81098 0.56586 0.35498 0.0
C1557 C 0.80709 0.57019 0.38701 0.0
C1558 C 0.80567 0.56453 0.3177 0.0
C1559 C 0.7964 0.56752 0.31196 0.0
C1560 C 0.79213 0.57134 0.34423 0.0
H1561 H 0.77049 0.59009 0.11482 0.0
H1562 H 0.77911 0.58743 0.17629 0.0
C1563 C 0.79745 0.57269 0.38147 0.0
C1564 C 0.7916 0.56739 0.272 0.0
H1565 H 0.79949 0.5827 0.18398 0.0
C1566 C 0.77914 0.55917 0.26404 0.0
C1567 C 0.79907 0.57592 0.2428 0.0
C1568 C 0.81243 0.58521 0.2504 0.0
C1569 C 0.7739 0.55938 0.22761 0.0
C1570 C 0.78135 0.56799 0.19858 0.0
C1571 C 0.79385 0.57607 0.20634 0.0
C1572 C 0.77617 0.56941 0.16108 0.0
C1573 C 0.76034 0.55073 0.22089 0.0
C1574 C 0.77179 0.56018 0.1321 0.0
C1575 C 0.76689 0.56169 0.09682 0.0
C1576 C 0.7663 0.57245 0.09015 0.0
C1577 C 0.7708 0.58169 0.11916 0.0
C1578 C 0.77573 0.5802 0.15425 0.0
H1579 H 0.7555 0.54595 0.24845 0.0
H1580 H 0.75592 0.55583 0.20892 0.0
H1581 H 0.75913 0.54368 0.19881 0.0
H1582 H 0.77221 0.55185 0.13675 0.0
H1583 H 0.76351 0.55443 0.07492 0.0
H1584 H 0.40727 0.1824 0.10937 0.0
H1585 H 0.4111 0.19473 0.16904 0.0
H1586 H 0.44893 0.21804 0.13408 0.0
H1587 H 0.44517 0.20566 0.07401 0.0
H1588 H 0.44544 0.20966 0.21448 0.0
H1589 H 0.41648 0.23001 0.17572 0.0
H1590 H 0.40866 0.21359 0.17002 0.0
H1591 H 0.42174 0.22312 0.1394 0.0
C1592 C 0.41639 0.19018 0.11423 0.0
C1593 C 0.42591 0.1931 0.08698 0.0
C1594 C 0.41855 0.19725 0.14823 0.0
C1595 C 0.43024 0.20738 0.1556 0.0
C1596 C 0.43982 0.21029 0.12868 0.0
H1597 H 0.43633 0.25483 0.35409 0.0
H1598 H 0.43979 0.24843 0.28926 0.0
C1599 C 0.43765 0.20324 0.09445 0.0
C1600 C 0.43242 0.21462 0.19221 0.0
H1601 H 0.42169 0.23062 0.2441 0.0
C1602 C 0.44041 0.21442 0.22082 0.0
C1603 C 0.426 0.22097 0.20006 0.0
C1604 C 0.41783 0.22207 0.16953 0.0
C1605 C 0.44161 0.21984 0.25806 0.0
C1606 C 0.4345 0.22542 0.2669 0.0
C1607 C 0.42705 0.22622 0.23744 0.0
C1608 C 0.43392 0.22973 0.30715 0.0
C1609 C 0.45034 0.21938 0.28775 0.0
C1610 C 0.42957 0.22137 0.33875 0.0
C1611 C 0.42759 0.22499 0.37575 0.0
C1612 C 0.42983 0.23702 0.38171 0.0
C1613 C 0.43453 0.24549 0.35036 0.0
C1614 C 0.43651 0.24186 0.31334 0.0
H1615 H 0.45779 0.21854 0.27293 0.0
H1616 H 0.45456 0.22772 0.30672 0.0
H1617 H 0.44519 0.2112 0.30698 0.0
H1618 H 0.42723 0.21189 0.33441 0.0
H1619 H 0.42392 0.21825 0.39931 0.0
H1620 H 0.78908 0.23416 0.0731 0.0
H1621 H 0.77891 0.2266 0.13727 0.0
H1622 H 0.8097 0.22322 0.17763 0.0
H1623 H 0.81989 0.23075 0.11398 0.0
H1624 H 0.77282 0.20356 0.17585 0.0
H1625 H 0.80526 0.24436 0.26351 0.0
H1626 H 0.80403 0.24476 0.2104 0.0
H1627 H 0.81265 0.23837 0.23242 0.0
C1628 C 0.79366 0.2318 0.0957 0.0
C1629 C 0.8053 0.23309 0.08864 0.0
C1630 C 0.78786 0.2275 0.13225 0.0
C1631 C 0.79367 0.22457 0.16227 0.0
C1632 C 0.80518 0.22567 0.15504 0.0
H1633 H 0.78369 0.19383 0.39083 0.0
H1634 H 0.79043 0.20411 0.32697 0.0
C1635 C 0.81096 0.2299 0.11858 0.0
C1636 C 0.78768 0.22004 0.20107 0.0
H1637 H 0.79222 0.22603 0.29983 0.0
C1638 C 0.77691 0.20852 0.203 0.0
C1639 C 0.79306 0.22661 0.23626 0.0
C1640 C 0.80433 0.23927 0.23567 0.0
C1641 C 0.77176 0.20305 0.23951 0.0
C1642 C 0.77745 0.20942 0.2748 0.0
C1643 C 0.78792 0.22117 0.27272 0.0
C1644 C 0.7733 0.20364 0.31413 0.0
C1645 C 0.76067 0.19027 0.24005 0.0
C1646 C 0.7615 0.20017 0.32838 0.0
C1647 C 0.75759 0.19424 0.36491 0.0
C1648 C 0.76548 0.19178 0.38777 0.0
C1649 C 0.7774 0.19558 0.37386 0.0
C1650 C 0.78127 0.20147 0.3374 0.0
H1651 H 0.7589 0.18573 0.21069 0.0
H1652 H 0.76189 0.1844 0.26209 0.0
H1653 H 0.75242 0.19082 0.24854 0.0
H1654 H 0.75529 0.20198 0.31116 0.0
H1655 H 0.74837 0.19146 0.37501 0.0
H1656 H 0.88697 0.47406 0.79825 0.0
H1657 H 0.88349 0.46425 0.86328 0.0
H1658 H 0.91558 0.46051 0.84741 0.0
H1659 H 0.919 0.47009 0.7823 0.0
H1660 H 0.89552 0.43955 0.87875 0.0
H1661 H 0.90467 0.48181 0.96024 0.0
H1662 H 0.89271 0.47649 0.92364 0.0
H1663 H 0.90835 0.48202 0.90861 0.0
C1664 C 0.89322 0.47105 0.80855 0.0
C1665 C 0.9033 0.4729 0.78536 0.0
C1666 C 0.89126 0.46553 0.84574 0.0
C1667 C 0.8994 0.46185 0.86037 0.0
C1668 C 0.90922 0.46333 0.83669 0.0
H1669 H 0.91918 0.45004 0.09 0.0
H1670 H 0.91675 0.45775 0.02628 0.0
C1671 C 0.91117 0.46881 0.79953 0.0
C1672 C 0.89796 0.45673 0.90067 0.0
H1673 H 0.89975 0.46423 -0.00163 0.0
C1674 C 0.89632 0.44488 0.90496 0.0
C1675 C 0.89915 0.4638 0.9347 0.0
C1676 C 0.90142 0.47677 0.9318 0.0
C1677 C 0.89609 0.43998 0.94241 0.0
C1678 C 0.89731 0.44705 0.97644 0.0
C1679 C 0.89871 0.45881 0.97218 0.0
C1680 C 0.89818 0.44281 0.01649 0.0
C1681 C 0.89508 0.42749 0.94516 0.0
C1682 C 0.88841 0.43205 0.03257 0.0
C1683 C 0.88979 0.42759 0.06896 0.0
C1684 C 0.90093 0.43389 0.08988 0.0
C1685 C 0.91049 0.44497 0.07451 0.0
C1686 C 0.90912 0.44939 0.03814 0.0
H1687 H 0.8968 0.42442 0.91625 0.0
H1688 H 0.90172 0.4276 0.96709 0.0
H1689 H 0.88567 0.42062 0.95497 0.0
H1690 H 0.87982 0.42697 0.01662 0.0
H1691 H 0.88224 0.41906 0.0802 0.0
H1692 H 0.56988 0.48578 0.03508 0.0
H1693 H 0.5621 0.47374 0.97441 0.0
H1694 H 0.5546 0.44086 0.03753 0.0
H1695 H 0.56246 0.45288 0.09862 0.0
H1696 H 0.57018 0.45661 0.93747 0.0
H1697 H 0.52104 0.43467 0.98422 0.0
H1698 H 0.53277 0.4489 0.00588 0.0
H1699 H 0.53213 0.43469 0.01808 0.0
C1700 C 0.56662 0.47599 0.03607 0.0
C1701 C 0.5667 0.47024 0.0716 0.0
C1702 C 0.56223 0.46915 0.00139 0.0
C1703 C 0.55776 0.45644 0.00169 0.0
C1704 C 0.55799 0.45067 0.0369 0.0
H1705 H 0.51455 0.40826 0.80697 0.0
H1706 H 0.52574 0.41494 0.86969 0.0
C1707 C 0.56247 0.45753 0.07166 0.0
C1708 C 0.55244 0.44928 0.96522 0.0
H1709 H 0.525 0.43098 0.91952 0.0
C1710 C 0.56031 0.45086 0.93357 0.0
C1711 C 0.5396 0.44173 0.96056 0.0
C1712 C 0.53081 0.43986 0.9938 0.0
C1713 C 0.55561 0.44534 0.89678 0.0
C1714 C 0.54271 0.43836 0.89138 0.0
C1715 C 0.53488 0.43635 0.92366 0.0
C1716 C 0.53705 0.43396 0.85195 0.0
C1717 C 0.56452 0.44712 0.86406 0.0
C1718 C 0.53976 0.44242 0.82108 0.0
C1719 C 0.53345 0.43861 0.78524 0.0
C1720 C 0.52418 0.42632 0.7798 0.0
C1721 C 0.52166 0.41779 0.81035 0.0
C1722 C 0.52804 0.42159 0.84616 0.0
H1723 H 0.5734 0.4486 0.87615 0.0
H1724 H 0.5607 0.43908 0.84382 0.0
H1725 H 0.56649 0.45542 0.84673 0.0
H1726 H 0.54641 0.45207 0.82519 0.0
H1727 H 0.53554 0.44541 0.76232 0.0
H1728 H 0.58747 0.10063 0.81806 0.0
H1729 H 0.57962 0.10203 0.88295 0.0
H1730 H 0.5461 0.09648 0.82874 0.0
H1731 H 0.55378 0.09484 0.76388 0.0
H1732 H 0.57102 0.11704 0.9149 0.0
H1733 H 0.53424 0.068 0.90767 0.0
H1734 H 0.54699 0.07464 0.87356 0.0
H1735 H 0.53418 0.07714 0.86694 0.0
C1736 C 0.57848 0.09985 0.81993 0.0
C1737 C 0.57117 0.09749 0.786 0.0
C1738 C 0.57402 0.10066 0.85698 0.0
C1739 C 0.5622 0.09912 0.86066 0.0
C1740 C 0.55516 0.09744 0.82657 0.0
H1741 H 0.52782 0.11024 0.06705 0.0
H1742 H 0.53887 0.11276 0.00505 0.0
C1743 C 0.55958 0.09657 0.78955 0.0
C1744 C 0.55696 0.09858 0.90029 0.0
H1745 H 0.53348 0.07962 0.96155 0.0
C1746 C 0.56283 0.10887 0.92523 0.0
C1747 C 0.54641 0.08782 0.91386 0.0
C1748 C 0.54014 0.07622 0.88932 0.0
C1749 C 0.55826 0.10875 0.96324 0.0
C1750 C 0.54746 0.09812 0.97624 0.0
C1751 C 0.54172 0.08779 0.95145 0.0
C1752 C 0.54184 0.0974 0.01536 0.0
C1753 C 0.56516 0.1199 0.98932 0.0
C1754 C 0.53975 0.08788 0.04161 0.0
C1755 C 0.53331 0.08633 0.07675 0.0
C1756 C 0.52884 0.09428 0.08629 0.0
C1757 C 0.53123 0.10403 0.06056 0.0
C1758 C 0.53761 0.10552 0.02525 0.0
H1759 H 0.57488 0.12567 0.97976 0.0
H1760 H 0.5607 0.12562 0.98758 0.0
H1761 H 0.56502 0.11719 0.02063 0.0
H1762 H 0.54289 0.08149 0.03447 0.0
H1763 H 0.5316 0.07875 0.09603 0.0
H1764 H 0.53484 0.08728 0.27547 0.0
H1765 H 0.54427 0.09071 0.34077 0.0
H1766 H 0.52766 0.11236 0.37386 0.0
H1767 H 0.51784 0.10859 0.30879 0.0
H1768 H 0.56009 0.11099 0.38191 0.0
H1769 H 0.51499 0.08641 0.45923 0.0
H1770 H 0.5163 0.08617 0.40624 0.0
H1771 H 0.51739 0.09944 0.43043 0.0
C1772 C 0.53326 0.09284 0.29654 0.0
C1773 C 0.5255 0.09755 0.28724 0.0
C1774 C 0.53867 0.09481 0.33384 0.0
C1775 C 0.53648 0.10159 0.36245 0.0
C1776 C 0.52923 0.10684 0.35257 0.0
H1777 H 0.57737 0.11583 0.58695 0.0
H1778 H 0.56905 0.11961 0.52632 0.0
C1779 C 0.52369 0.10475 0.31534 0.0
C1780 C 0.54143 0.10264 0.40292 0.0
H1781 H 0.53274 0.09414 0.49862 0.0
C1782 C 0.55414 0.10742 0.40755 0.0
C1783 C 0.53361 0.09787 0.43622 0.0
C1784 C 0.51981 0.09209 0.43292 0.0
C1785 C 0.55921 0.10716 0.44427 0.0
C1786 C 0.55137 0.10229 0.47748 0.0
C1787 C 0.53872 0.09794 0.47314 0.0
C1788 C 0.55585 0.10039 0.51589 0.0
C1789 C 0.57279 0.1115 0.44663 0.0
C1790 C 0.55083 0.08842 0.53101 0.0
C1791 C 0.55542 0.08627 0.56579 0.0
C1792 C 0.56515 0.09605 0.58609 0.0
C1793 C 0.56992 0.1081 0.5717 0.0
C1794 C 0.56524 0.11026 0.53698 0.0
H1795 H 0.57694 0.11243 0.41693 0.0
H1796 H 0.57761 0.12064 0.46116 0.0
H1797 H 0.57446 0.10503 0.4644 0.0
H1798 H 0.54356 0.08066 0.51529 0.0
H1799 H 0.55154 0.07689 0.57617 0.0
H1800 H 0.88572 0.40775 0.31299 0.0
H1801 H 0.88176 0.41339 0.37837 0.0
H1802 H 0.90218 0.45177 0.34592 0.0
H1803 H 0.90584 0.44618 0.28032 0.0
H1804 H 0.89853 0.42624 0.4322 0.0
H1805 H 0.87302 0.45046 0.39919 0.0
H1806 H 0.87509 0.44108 0.36297 0.0
H1807 H 0.88693 0.45683 0.37084 0.0
C1808 C 0.88915 0.41738 0.31959 0.0
C1809 C 0.89608 0.42654 0.29161 0.0
C1810 C 0.88688 0.42058 0.35693 0.0
C1811 C 0.89151 0.43299 0.36689 0.0
C1812 C 0.89821 0.44212 0.3386 0.0
H1813 H 0.92042 0.47181 0.57851 0.0
H1814 H 0.91508 0.45924 0.51901 0.0
C1815 C 0.90038 0.43892 0.30119 0.0
C1816 C 0.89051 0.43653 0.40793 0.0
H1817 H 0.88425 0.45583 0.46127 0.0
C1818 C 0.89517 0.43252 0.43867 0.0
C1819 C 0.8859 0.44451 0.41663 0.0
C1820 C 0.87983 0.44834 0.38566 0.0
C1821 C 0.89611 0.43692 0.47732 0.0
C1822 C 0.8926 0.44581 0.48519 0.0
C1823 C 0.88715 0.44917 0.45509 0.0
C1824 C 0.89551 0.45254 0.52321 0.0
C1825 C 0.90108 0.43216 0.50915 0.0
C1826 C 0.88631 0.45312 0.5451 0.0
C1827 C 0.88937 0.46045 0.57904 0.0
C1828 C 0.90169 0.46734 0.59142 0.0
C1829 C 0.91083 0.46654 0.56988 0.0
C1830 C 0.90778 0.45927 0.53599 0.0
H1831 H 0.89908 0.42267 0.5024 0.0
H1832 H 0.91123 0.43813 0.51074 0.0
H1833 H 0.89713 0.43215 0.53851 0.0
H1834 H 0.8768 0.44807 0.53556 0.0
H1835 H 0.88214 0.46093 0.595 0.0
H1836 H 0.52268 0.41507 0.56039 0.0
H1837 H 0.53347 0.42356 0.49798 0.0
H1838 H 0.53828 0.45906 0.52891 0.0
H1839 H 0.52723 0.45056 0.59088 0.0
H1840 H 0.52887 0.45199 0.45582 0.0
H1841 H 0.56958 0.44608 0.4732 0.0
H1842 H 0.55521 0.43212 0.48042 0.0
H1843 H 0.55976 0.44475 0.51412 0.0
C1844 C 0.52618 0.42473 0.55409 0.0
C1845 C 0.52411 0.43217 0.58044 0.0
C1846 C 0.53241 0.42958 0.51854 0.0
C1847 C 0.53682 0.44198 0.50903 0.0
C1848 C 0.53499 0.44948 0.53575 0.0
H1849 H 0.58365 0.48427 0.3137 0.0
H1850 H 0.57532 0.47499 0.3782 0.0
C1851 C 0.52869 0.44462 0.57113 0.0
C1852 C 0.54252 0.44695 0.47004 0.0
H1853 H 0.566 0.45134 0.40874 0.0
C1854 C 0.53702 0.45189 0.44561 0.0
C1855 C 0.55321 0.44691 0.45693 0.0
C1856 C 0.55987 0.44229 0.48267 0.0
C1857 C 0.54185 0.4567 0.40827 0.0
C1858 C 0.55229 0.45628 0.39457 0.0
C1859 C 0.5579 0.45149 0.41915 0.0
C1860 C 0.55768 0.46111 0.3552 0.0
C1861 C 0.53586 0.46241 0.38418 0.0
C1862 C 0.55065 0.45613 0.32084 0.0
C1863 C 0.55535 0.46146 0.28406 0.0
C1864 C 0.56721 0.47176 0.281 0.0
C1865 C 0.57446 0.47635 0.3152 0.0
C1866 C 0.56972 0.47106 0.35202 0.0
H1867 H 0.53014 0.4649 0.40283 0.0
H1868 H 0.54287 0.47081 0.36868 0.0
H1869 H 0.52978 0.45571 0.36162 0.0
H1870 H 0.54142 0.44828 0.32259 0.0
H1871 H 0.54959 0.45766 0.25815 0.0
H1872 H 0.4068 0.21615 0.59105 0.0
H1873 H 0.41044 0.20815 0.6522 0.0
H1874 H 0.44941 0.23358 0.64185 0.0
H1875 H 0.44577 0.24192 0.58109 0.0
H1876 H 0.42375 0.19727 0.66951 0.0
H1877 H 0.44221 0.2415 0.75091 0.0
H1878 H 0.4349 0.23905 0.70329 0.0
H1879 H 0.45052 0.24222 0.70687 0.0
C1880 C 0.41615 0.22001 0.60168 0.0
C1881 C 0.42599 0.22974 0.58154 0.0
C1882 C 0.41822 0.21541 0.6366 0.0
C1883 C 0.43017 0.22041 0.65198 0.0
C1884 C 0.44009 0.22979 0.63104 0.0
H1885 H 0.43955 0.18283 0.85811 0.0
H1886 H 0.44262 0.19233 0.79269 0.0
C1887 C 0.43801 0.23449 0.59622 0.0
C1888 C 0.43203 0.21593 0.69046 0.0
H1889 H 0.44117 0.22477 0.78567 0.0
C1890 C 0.42765 0.20328 0.69488 0.0
C1891 C 0.43702 0.2238 0.72355 0.0
C1892 C 0.44134 0.23738 0.72119 0.0
C1893 C 0.42776 0.19821 0.73174 0.0
C1894 C 0.43272 0.20608 0.76486 0.0
C1895 C 0.43746 0.21878 0.76016 0.0
C1896 C 0.43198 0.2012 0.80529 0.0
C1897 C 0.42198 0.18442 0.73517 0.0
C1898 C 0.42549 0.20352 0.83463 0.0
C1899 C 0.42392 0.19831 0.8721 0.0
C1900 C 0.42875 0.19061 0.88089 0.0
C1901 C 0.43563 0.18864 0.85199 0.0
C1902 C 0.43732 0.19399 0.81456 0.0
H1903 H 0.4161 0.17957 0.70925 0.0
H1904 H 0.42934 0.18199 0.73688 0.0
H1905 H 0.41627 0.18096 0.76229 0.0
H1906 H 0.42133 0.20909 0.82819 0.0
H1907 H 0.41859 0.20001 0.89378 0.0
H1908 H 0.76057 0.20757 0.56718 0.0
H1909 H 0.76895 0.22144 0.62425 0.0
H1910 H 0.78659 0.20144 0.66464 0.0
H1911 H 0.77846 0.18775 0.60784 0.0
H1912 H 0.76487 0.21539 0.70333 0.0
H1913 H 0.81447 0.23689 0.67009 0.0
H1914 H 0.80274 0.22854 0.63342 0.0
H1915 H 0.80708 0.22043 0.66785 0.0
C1916 C 0.76636 0.20625 0.58805 0.0
C1917 C 0.76892 0.19662 0.58301 0.0
C1918 C 0.77112 0.21416 0.62058 0.0
C1919 C 0.77857 0.21261 0.64824 0.0
C1920 C 0.78112 0.20301 0.64312 0.0
H1921 H 0.79138 0.2229 0.89174 0.0
H1922 H 0.78268 0.21752 0.82544 0.0
C1923 C 0.77639 0.19513 0.61076 0.0
C1924 C 0.78316 0.22044 0.68393 0.0
H1925 H 0.80915 0.23683 0.73884 0.0
C1926 C 0.77457 0.22031 0.71082 0.0
C1927 C 0.79583 0.22708 0.6933 0.0
C1928 C 0.80556 0.22836 0.6644 0.0
C1929 C 0.77827 0.22587 0.7481 0.0
C1930 C 0.79083 0.23147 0.75891 0.0
C1931 C 0.79949 0.23239 0.73085 0.0
C1932 C 0.79509 0.23537 0.80001 0.0
C1933 C 0.76865 0.22548 0.77576 0.0
C1934 C 0.80504 0.24716 0.80783 0.0
C1935 C 0.81016 0.2502 0.84569 0.0
C1936 C 0.80542 0.24148 0.87632 0.0
C1937 C 0.79518 0.22984 0.86879 0.0
C1938 C 0.79012 0.22679 0.83093 0.0
H1939 H 0.76091 0.22524 0.75904 0.0
H1940 H 0.76482 0.21697 0.79383 0.0
H1941 H 0.77259 0.23354 0.79591 0.0
H1942 H 0.80907 0.2539 0.78436 0.0
H1943 H 0.81805 0.25925 0.85066 0.0
H1944 H 0.74035 0.55834 0.85653 0.0
H1945 H 0.74604 0.5544 0.79118 0.0
H1946 H 0.78326 0.56807 0.8317 0.0
H1947 H 0.77758 0.57175 0.89711 0.0
H1948 H 0.76232 0.57162 0.74285 0.0
H1949 H 0.77728 0.5378 0.77212 0.0
H1950 H 0.76844 0.541 0.80741 0.0
H1951 H 0.78491 0.55076 0.80457 0.0
C1952 C 0.74968 0.56028 0.85166 0.0
C1953 C 0.75853 0.56536 0.88186 0.0
C1954 C 0.75291 0.55802 0.81436 0.0
C1955 C 0.76502 0.56076 0.80672 0.0
C1956 C 0.77378 0.56556 0.83718 0.0
H1957 H 0.81084 0.58959 0.60877 0.0
H1958 H 0.79769 0.58472 0.66679 0.0
C1959 C 0.77055 0.56776 0.87449 0.0
C1960 C 0.76892 0.55996 0.76603 0.0
H1961 H 0.78585 0.55043 0.71348 0.0
C1962 C 0.76724 0.56677 0.73623 0.0
C1963 C 0.77515 0.55347 0.75713 0.0
C1964 C 0.77642 0.54524 0.78695 0.0
C1965 C 0.77237 0.56796 0.69859 0.0
C1966 C 0.77955 0.56239 0.69087 0.0
C1967 C 0.7805 0.55486 0.71969 0.0
C1968 C 0.78706 0.56519 0.65459 0.0
C1969 C 0.77028 0.57541 0.66773 0.0
C1970 C 0.78561 0.55578 0.62891 0.0
C1971 C 0.79319 0.55854 0.5957 0.0
C1972 C 0.80239 0.57074 0.588 0.0
C1973 C 0.80379 0.58012 0.6138 0.0
C1974 C 0.79623 0.57736 0.64684 0.0
H1975 H 0.7616 0.5755 0.67329 0.0
H1976 H 0.77797 0.58507 0.66882 0.0
H1977 H 0.76992 0.57175 0.63758 0.0
H1978 H 0.77865 0.54631 0.63465 0.0
H1979 H 0.79195 0.55112 0.57636 0.0
H1980 H 0.45196 0.92069 0.39772 0.0
H1981 H 0.46103 0.91844 0.45892 0.0
H1982 H 0.42686 0.88561 0.48734 0.0
H1983 H 0.41783 0.88765 0.42576 0.0
H1984 H 0.45285 0.91935 0.532 0.0
H1985 H 0.45186 0.87499 0.51197 0.0
H1986 H 0.44985 0.88318 0.47141 0.0
H1987 H 0.43721 0.87392 0.50394 0.0
C1988 C 0.44645 0.91287 0.41668 0.0
C1989 C 0.43419 0.90435 0.40704 0.0
C1990 C 0.45164 0.9116 0.45161 0.0
C1991 C 0.44466 0.9018 0.47747 0.0
C1992 C 0.4325 0.8931 0.46741 0.0
H1993 H 0.45796 0.90377 0.72922 0.0
H1994 H 0.44891 0.90188 0.66373 0.0
C1995 C 0.42733 0.89432 0.43234 0.0
C1996 C 0.44974 0.90135 0.51655 0.0
H1997 H 0.45581 0.8833 0.57736 0.0
C1998 C 0.45356 0.91149 0.54181 0.0
C1999 C 0.45073 0.89113 0.52916 0.0
C2000 C 0.44731 0.88024 0.50257 0.0
C2001 C 0.45821 0.91164 0.57955 0.0
C2002 C 0.45879 0.90124 0.59273 0.0
C2003 C 0.45517 0.89117 0.5673 0.0
C2004 C 0.46345 0.90088 0.63255 0.0
C2005 C 0.46264 0.92301 0.60475 0.0
C2006 C 0.47431 0.90038 0.63675 0.0
C2007 C 0.47945 0.90136 0.67414 0.0
C2008 C 0.47378 0.90284 0.70786 0.0
C2009 C 0.46258 0.90273 0.70372 0.0
C2010 C 0.45743 0.9017 0.66636 0.0
H2011 H 0.46444 0.93117 0.58683 0.0
H2012 H 0.45547 0.92142 0.6269 0.0
H2013 H 0.4712 0.92514 0.62081 0.0
H2014 H 0.47905 0.89968 0.61098 0.0
H2015 H 0.48807 0.90137 0.67646 0.0
H2016 H 0.10333 0.58443 0.68149 0.0
H2017 H 0.10454 0.57523 0.61884 0.0
H2018 H 0.08857 0.53965 0.67481 0.0
H2019 H 0.0873 0.5487 0.73732 0.0
H2020 H 0.11555 0.55911 0.59987 0.0
H2021 H 0.06479 0.53678 0.58165 0.0
H2022 H 0.07336 0.54963 0.61454 0.0
H2023 H 0.07003 0.53448 0.62864 0.0
C2024 C 0.10024 0.57468 0.68053 0.0
C2025 C 0.09512 0.56725 0.71415 0.0
C2026 C 0.10095 0.56946 0.64482 0.0
C2027 C 0.0965 0.55677 0.6423 0.0
C2028 C 0.09193 0.54945 0.67622 0.0
H2029 H 0.08005 0.50354 0.4582 0.0
H2030 H 0.08315 0.51461 0.52042 0.0
C2031 C 0.09123 0.55464 0.71187 0.0
C2032 C 0.09588 0.55096 0.60381 0.0
H2033 H 0.07544 0.53127 0.53593 0.0
C2034 C 0.10681 0.55307 0.58565 0.0
C2035 C 0.08445 0.54313 0.58555 0.0
C2036 C 0.07247 0.5409 0.60332 0.0
C2037 C 0.10657 0.54722 0.55 0.0
C2038 C 0.09511 0.53927 0.53196 0.0
C2039 C 0.08421 0.53733 0.54996 0.0
C2040 C 0.09409 0.5327 0.49462 0.0
C2041 C 0.11853 0.54931 0.53256 0.0
C2042 C 0.09922 0.53922 0.45952 0.0
C2043 C 0.09748 0.53291 0.4239 0.0
C2044 C 0.09049 0.52 0.42285 0.0
C2045 C 0.08547 0.5135 0.4581 0.0
C2046 C 0.08724 0.5198 0.49365 0.0
H2047 H 0.12609 0.55311 0.55469 0.0
H2048 H 0.11753 0.54061 0.52061 0.0
H2049 H 0.12125 0.55599 0.50789 0.0
H2050 H 0.10431 0.54918 0.45949 0.0
H2051 H 0.10142 0.53816 0.39713 0.0
H2052 H 0.40869 0.51908 0.68976 0.0
H2053 H 0.41461 0.52813 0.62367 0.0
H2054 H 0.4529 0.54557 0.65686 0.0
H2055 H 0.44705 0.53684 0.72317 0.0
H2056 H 0.44762 0.5607 0.6123 0.0
H2057 H 0.42867 0.51458 0.54255 0.0
H2058 H 0.41781 0.5169 0.57041 0.0
H2059 H 0.43041 0.51678 0.5953 0.0
C2060 C 0.41836 0.52495 0.68304 0.0
C2061 C 0.42742 0.52717 0.71143 0.0
C2062 C 0.42173 0.53005 0.64525 0.0
C2063 C 0.4342 0.53731 0.63517 0.0
C2064 C 0.44322 0.53995 0.66402 0.0
H2065 H 0.47458 0.55096 0.42391 0.0
H2066 H 0.46287 0.54355 0.48507 0.0
C2067 C 0.43987 0.53494 0.70185 0.0
C2068 C 0.43799 0.54171 0.59421 0.0
H2069 H 0.43821 0.53175 0.50055 0.0
C2070 C 0.44547 0.5544 0.58771 0.0
C2071 C 0.43523 0.53343 0.56235 0.0
C2072 C 0.42768 0.51966 0.56787 0.0
C2073 C 0.45062 0.55902 0.55044 0.0
C2074 C 0.44797 0.55072 0.51871 0.0
C2075 C 0.44013 0.53807 0.52491 0.0
C2076 C 0.4543 0.55479 0.48012 0.0
C2077 C 0.45935 0.57266 0.54593 0.0
C2078 C 0.45315 0.56337 0.45656 0.0
C2079 C 0.45993 0.56771 0.42159 0.0
C2080 C 0.46785 0.56341 0.40956 0.0
C2081 C 0.46858 0.55446 0.43243 0.0
C2082 C 0.46188 0.5502 0.46738 0.0
H2083 H 0.46231 0.57739 0.57495 0.0
H2084 H 0.46766 0.57442 0.52905 0.0
H2085 H 0.45469 0.57682 0.5294 0.0
H2086 H 0.44715 0.56683 0.46547 0.0
H2087 H 0.45914 0.57456 0.40437 0.0
H2088 H 0.58505 0.80052 0.09257 0.0
H2089 H 0.58293 0.79098 0.15726 0.0
H2090 H 0.55299 0.7972 0.18582 0.0
H2091 H 0.55507 0.80685 0.12103 0.0
H2092 H 0.58427 0.80526 0.23221 0.0
H2093 H 0.54174 0.75957 0.21514 0.0
H2094 H 0.55129 0.76781 0.17334 0.0
H2095 H 0.54191 0.7731 0.19631 0.0
C2096 C 0.57789 0.7997 0.11234 0.0
C2097 C 0.57025 0.80446 0.10183 0.0
C2098 C 0.5767 0.79426 0.14924 0.0
C2099 C 0.56778 0.79337 0.17605 0.0
C2100 C 0.55985 0.79773 0.16525 0.0
H2101 H 0.55465 0.76345 0.41673 0.0
H2102 H 0.55262 0.77203 0.35382 0.0
C2103 C 0.56107 0.80324 0.12834 0.0
C2104 C 0.56752 0.78879 0.21639 0.0
H2105 H 0.55198 0.76383 0.27646 0.0
C2106 C 0.57719 0.79624 0.24205 0.0
C2107 C 0.55817 0.7771 0.22905 0.0
C2108 C 0.54767 0.76884 0.20216 0.0
C2109 C 0.57788 0.79219 0.28002 0.0
C2110 C 0.56883 0.78025 0.29218 0.0
C2111 C 0.55893 0.77295 0.26695 0.0
C2112 C 0.5699 0.77497 0.33007 0.0
C2113 C 0.58831 0.80074 0.30677 0.0
C2114 C 0.58018 0.77361 0.33716 0.0
C2115 C 0.58138 0.7688 0.37293 0.0
C2116 C 0.57226 0.76512 0.40216 0.0
C2117 C 0.56185 0.76627 0.39478 0.0
C2118 C 0.56067 0.77114 0.35891 0.0
H2119 H 0.59203 0.81052 0.29823 0.0
H2120 H 0.5853 0.79958 0.3381 0.0
H2121 H 0.5959 0.79865 0.30436 0.0
H2122 H 0.58727 0.77625 0.31492 0.0
H2123 H 0.58945 0.76792 0.3776 0.0
H2124 H 0.23121 0.79066 0.42916 0.0
H2125 H 0.22366 0.7798 0.36617 0.0
H2126 H 0.23318 0.81411 0.30862 0.0
H2127 H 0.24082 0.82502 0.37125 0.0
H2128 H 0.20463 0.77925 0.32095 0.0
H2129 H 0.24802 0.79885 0.23513 0.0
H2130 H 0.24776 0.79982 0.28835 0.0
H2131 H 0.24543 0.81026 0.25809 0.0
C2132 C 0.2318 0.7959 0.40298 0.0
C2133 C 0.2366 0.80868 0.40506 0.0
C2134 C 0.2275 0.78969 0.36708 0.0
C2135 C 0.22804 0.79619 0.3327 0.0
C2136 C 0.23293 0.80897 0.33466 0.0
H2137 H 0.19984 0.78274 0.09771 0.0
H2138 H 0.21078 0.79089 0.16004 0.0
C2139 C 0.2372 0.81517 0.37051 0.0
C2140 C 0.2227 0.78955 0.29532 0.0
H2141 H 0.2293 0.78833 0.19818 0.0
C2142 C 0.21004 0.78108 0.2942 0.0
C2143 C 0.2298 0.79201 0.26056 0.0
C2144 C 0.24353 0.80065 0.26054 0.0
C2145 C 0.20416 0.77538 0.25876 0.0
C2146 C 0.21121 0.77807 0.22375 0.0
C2147 C 0.22394 0.7863 0.2251 0.0
C2148 C 0.20539 0.77303 0.18505 0.0
C2149 C 0.19037 0.76698 0.25876 0.0
C2150 C 0.199 0.76029 0.17816 0.0
C2151 C 0.19269 0.7556 0.14263 0.0
C2152 C 0.19276 0.76359 0.11339 0.0
C2153 C 0.19959 0.77636 0.11976 0.0
C2154 C 0.20585 0.78103 0.1553 0.0
H2155 H 0.18604 0.768 0.28605 0.0
H2156 H 0.18612 0.76884 0.23283 0.0
H2157 H 0.18825 0.75728 0.25697 0.0
H2158 H 0.19874 0.75398 0.2005 0.0
H2159 H 0.18757 0.74572 0.13839 0.0
H2160 H 0.21934 0.42195 0.09968 0.0
H2161 H 0.21302 0.42554 0.16419 0.0
H2162 H 0.24958 0.4383 0.20952 0.0
H2163 H 0.25595 0.43455 0.14498 0.0
H2164 H 0.23162 0.42039 0.25536 0.0
H2165 H 0.21989 0.45657 0.22336 0.0
H2166 H 0.21255 0.44386 0.18973 0.0
H2167 H 0.22908 0.45313 0.1903 0.0
C2168 C 0.22609 0.4257 0.12319 0.0
C2169 C 0.23813 0.42794 0.11737 0.0
C2170 C 0.22249 0.42785 0.15996 0.0
C2171 C 0.23088 0.43237 0.19144 0.0
C2172 C 0.243 0.4349 0.18546 0.0
H2173 H 0.2062 0.44411 0.42272 0.0
H2174 H 0.21886 0.4478 0.36343 0.0
C2175 C 0.24661 0.43275 0.14864 0.0
C2176 C 0.22659 0.43319 0.23142 0.0
H2177 H 0.2107 0.44436 0.28192 0.0
C2178 C 0.22725 0.42581 0.26139 0.0
C2179 C 0.22102 0.44037 0.23938 0.0
C2180 C 0.2207 0.44903 0.20908 0.0
C2181 C 0.22183 0.42486 0.29839 0.0
C2182 C 0.21548 0.43133 0.30531 0.0
C2183 C 0.21545 0.43929 0.27626 0.0
C2184 C 0.20804 0.42921 0.34132 0.0
C2185 C 0.2227 0.41671 0.32949 0.0
C2186 C 0.19771 0.41759 0.34802 0.0
C2187 C 0.19047 0.41548 0.38154 0.0
C2188 C 0.19342 0.42496 0.40896 0.0
C2189 C 0.20375 0.43662 0.40213 0.0
C2190 C 0.21097 0.43875 0.36836 0.0
H2191 H 0.23057 0.4152 0.32389 0.0
H2192 H 0.22372 0.42074 0.35942 0.0
H2193 H 0.21414 0.40761 0.3291 0.0
H2194 H 0.1952 0.41018 0.32708 0.0
H2195 H 0.18255 0.40641 0.38596 0.0
H2196 H 0.23797 0.41127 0.87207 0.0
H2197 H 0.2294 0.41402 0.81064 0.0
H2198 H 0.21881 0.43761 0.87088 0.0
H2199 H 0.22763 0.43512 0.93242 0.0
H2200 H 0.20544 0.40759 0.79703 0.0
H2201 H 0.23616 0.45778 0.77306 0.0
H2202 H 0.23974 0.44911 0.80788 0.0
H2203 H 0.2287 0.45371 0.82039 0.0
C2204 C 0.2339 0.41712 0.87218 0.0
C2205 C 0.23347 0.423 0.90698 0.0
C2206 C 0.22901 0.41869 0.83708 0.0
C2207 C 0.22361 0.42614 0.8361 0.0
C2208 C 0.22318 0.43204 0.8708 0.0
H2209 H 0.17999 0.43251 0.64549 0.0
H2210 H 0.18967 0.43401 0.7099 0.0
C2211 C 0.22814 0.43054 0.90595 0.0
C2212 C 0.2179 0.42716 0.79908 0.0
H2213 H 0.21941 0.44742 0.7287 0.0
C2214 C 0.20849 0.4163 0.78216 0.0
C2215 C 0.22189 0.43856 0.7798 0.0
C2216 C 0.23224 0.45045 0.79595 0.0
C2217 C 0.20303 0.41651 0.74629 0.0
C2218 C 0.20711 0.42785 0.72687 0.0
C2219 C 0.21633 0.43876 0.74397 0.0
C2220 C 0.20222 0.42832 0.68772 0.0
C2221 C 0.19303 0.4046 0.72898 0.0
C2222 C 0.20631 0.42488 0.65416 0.0
C2223 C 0.20085 0.42403 0.61752 0.0
C2224 C 0.19118 0.42658 0.61395 0.0
C2225 C 0.18741 0.43048 0.64742 0.0
C2226 C 0.19293 0.43136 0.68413 0.0
H2227 H 0.18981 0.39681 0.75011 0.0
H2228 H 0.18505 0.40558 0.71997 0.0
H2229 H 0.19657 0.40232 0.70213 0.0
H2230 H 0.21349 0.42251 0.65658 0.0
H2231 H 0.20396 0.42102 0.59226 0.0
H2232 H 0.54934 0.79209 0.91606 0.0
H2233 H 0.54428 0.7791 0.85686 0.0
H2234 H 0.58269 0.79763 0.8248 0.0
H2235 H 0.5878 0.81046 0.88366 0.0
H2236 H 0.5487 0.78661 0.77766 0.0
H2237 H 0.57272 0.7613 0.81784 0.0
H2238 H 0.5691 0.76969 0.85366 0.0
H2239 H 0.58252 0.77763 0.82279 0.0
C2240 C 0.55669 0.79329 0.89652 0.0
C2241 C 0.56897 0.80224 0.90455 0.0
C2242 C 0.55379 0.78589 0.86277 0.0
C2243 C 0.56314 0.78727 0.83688 0.0
C2244 C 0.57538 0.79622 0.84489 0.0
H2245 H 0.57005 0.77762 0.59443 0.0
H2246 H 0.56614 0.78347 0.65927 0.0
C2247 C 0.57827 0.8036 0.87844 0.0
C2248 C 0.56024 0.77983 0.8004 0.0
H2249 H 0.56893 0.76216 0.74842 0.0
C2250 C 0.55292 0.78106 0.77145 0.0
C2251 C 0.56554 0.77241 0.79267 0.0
C2252 C 0.5728 0.77006 0.82358 0.0
C2253 C 0.55145 0.77573 0.73393 0.0
C2254 C 0.55766 0.7692 0.7251 0.0
C2255 C 0.56428 0.76729 0.75498 0.0
C2256 C 0.55836 0.76521 0.68445 0.0
C2257 C 0.54345 0.77731 0.70396 0.0
C2258 C 0.55536 0.75301 0.677 0.0
C2259 C 0.55775 0.74968 0.64004 0.0
C2260 C 0.56321 0.75851 0.60996 0.0
C2261 C 0.56577 0.7706 0.61698 0.0
C2262 C 0.56344 0.77393 0.65396 0.0
H2263 H 0.53615 0.77843 0.71865 0.0
H2264 H 0.5492 0.78575 0.6864 0.0
H2265 H 0.53905 0.76935 0.68346 0.0
H2266 H 0.55152 0.74615 0.70018 0.0
H2267 H 0.55568 0.74029 0.63546 0.0
H2268 H 0.17137 0.75668 0.8727 0.0
H2269 H 0.1817 0.76437 0.80922 0.0
H2270 H 0.21701 0.77933 0.86661 0.0
H2271 H 0.20674 0.7715 0.93025 0.0
H2272 H 0.19787 0.78869 0.78993 0.0
H2273 H 0.22024 0.7603 0.77341 0.0
H2274 H 0.20803 0.75662 0.80845 0.0
H2275 H 0.22347 0.76858 0.81922 0.0
C2276 C 0.18134 0.76155 0.87178 0.0
C2277 C 0.18826 0.76349 0.90638 0.0
C2278 C 0.18721 0.76591 0.83551 0.0
C2279 C 0.2001 0.77225 0.83317 0.0
C2280 C 0.20705 0.77423 0.86768 0.0
H2281 H 0.25099 0.81276 0.64374 0.0
H2282 H 0.24163 0.8024 0.70622 0.0
C2283 C 0.20117 0.76983 0.90402 0.0
C2284 C 0.20622 0.77735 0.79488 0.0
H2285 H 0.22574 0.77634 0.72659 0.0
C2286 C 0.20392 0.78595 0.77598 0.0
C2287 C 0.21413 0.77378 0.77693 0.0
C2288 C 0.21656 0.76423 0.7953 0.0
C2289 C 0.20943 0.79119 0.73972 0.0
C2290 C 0.21729 0.78757 0.72166 0.0
C2291 C 0.21968 0.77904 0.7406 0.0
C2292 C 0.22309 0.79265 0.68304 0.0
C2293 C 0.20695 0.8007 0.72131 0.0
C2294 C 0.21578 0.79023 0.64921 0.0
C2295 C 0.22108 0.79611 0.61362 0.0
C2296 C 0.23378 0.80448 0.6113 0.0
C2297 C 0.24118 0.80638 0.64472 0.0
C2298 C 0.23586 0.80049 0.68037 0.0
H2299 H 0.20303 0.80447 0.74298 0.0
H2300 H 0.21552 0.80843 0.70881 0.0
H2301 H 0.20023 0.79639 0.69687 0.0
H2302 H 0.20593 0.78406 0.65065 0.0
H2303 H 0.21516 0.7944 0.58828 0.0
H2304 H 0.0782 0.57086 0.95368 0.0
H2305 H 0.08005 0.56226 0.01638 0.0
H2306 H 0.10532 0.55266 0.96268 0.0
H2307 H 0.10372 0.56151 0.89996 0.0
H2308 H 0.0739 0.53838 0.03015 0.0
H2309 H 0.12333 0.56981 0.06379 0.0
H2310 H 0.11515 0.5733 0.02679 0.0
H2311 H 0.12044 0.56268 0.01599 0.0
C2312 C 0.08423 0.56701 0.9553 0.0
C2313 C 0.09083 0.56686 0.92199 0.0
C2314 C 0.08528 0.56211 0.99112 0.0
C2315 C 0.09294 0.55698 0.9943 0.0
C2316 C 0.09957 0.55683 0.96109 0.0
H2317 H 0.10101 0.51457 0.18413 0.0
H2318 H 0.10269 0.5251 0.12136 0.0
C2319 C 0.09858 0.5618 0.92524 0.0
C2320 C 0.0934 0.55117 0.03183 0.0
H2321 H 0.11259 0.55239 0.10556 0.0
C2322 C 0.08235 0.54147 0.04668 0.0
C2323 C 0.10446 0.5552 0.0532 0.0
C2324 C 0.11651 0.56589 0.03939 0.0
C2325 C 0.08205 0.53566 0.08233 0.0
C2326 C 0.09308 0.53974 0.10381 0.0
C2327 C 0.10417 0.54932 0.08884 0.0
C2328 C 0.09309 0.53429 0.14242 0.0
C2329 C 0.06996 0.52516 0.09677 0.0
C2330 C 0.08741 0.53626 0.17502 0.0
C2331 C 0.08646 0.53031 0.21076 0.0
C2332 C 0.09118 0.52228 0.21441 0.0
C2333 C 0.09727 0.52067 0.18208 0.0
C2334 C 0.09825 0.52668 0.14631 0.0
H2335 H 0.06286 0.52154 0.07316 0.0
H2336 H 0.07119 0.51752 0.10803 0.0
H2337 H 0.06651 0.52842 0.12149 0.0
H2338 H 0.08348 0.54221 0.17254 0.0
H2339 H 0.08176 0.53177 0.2352 0.0
H2340 H 0.4486 0.52955 0.91943 0.0
H2341 H 0.45537 0.54062 0.98201 0.0
H2342 H 0.42561 0.54847 0.97736 0.0
H2343 H 0.41864 0.5372 0.91474 0.0
H2344 H 0.46223 0.56485 0.00401 0.0
H2345 H 0.42015 0.52995 0.08267 0.0
H2346 H 0.4242 0.52726 0.034 0.0
H2347 H 0.41779 0.53715 0.04026 0.0
C2348 C 0.44357 0.53373 0.93147 0.0
C2349 C 0.43303 0.53242 0.91241 0.0
C2350 C 0.44746 0.54007 0.96719 0.0
C2351 C 0.44088 0.54519 0.98454 0.0
C2352 C 0.43068 0.5444 0.96472 0.0
H2353 H 0.4721 0.58714 0.20457 0.0
H2354 H 0.46192 0.58163 0.13989 0.0
C2355 C 0.42676 0.53803 0.9289 0.0
C2356 C 0.44446 0.55076 0.0243 0.0
H2357 H 0.43557 0.54568 0.121 0.0
C2358 C 0.45636 0.56081 0.02959 0.0
C2359 C 0.43677 0.54535 0.05752 0.0
C2360 C 0.42404 0.53428 0.05363 0.0
C2361 C 0.46097 0.56531 0.06744 0.0
C2362 C 0.45337 0.55971 0.10074 0.0
C2363 C 0.44131 0.54998 0.09532 0.0
C2364 C 0.45827 0.56285 0.14144 0.0
C2365 C 0.47414 0.57554 0.07162 0.0
C2366 C 0.4591 0.55397 0.1643 0.0
C2367 C 0.46479 0.55705 0.20121 0.0
C2368 C 0.46975 0.56907 0.21594 0.0
C2369 C 0.46842 0.57782 0.19382 0.0
C2370 C 0.46267 0.57471 0.15684 0.0
H2371 H 0.47937 0.57733 0.04357 0.0
H2372 H 0.47429 0.58413 0.08036 0.0
H2373 H 0.47894 0.5733 0.09495 0.0
H2374 H 0.45572 0.54475 0.15296 0.0
H2375 H 0.46565 0.5501 0.21763 0.0
H2376 H 0.48002 0.92256 0.93825 0.0
H2377 H 0.46729 0.91801 0.99723 0.0
H2378 H 0.44397 0.88076 0.9568 0.0
H2379 H 0.45682 0.88522 0.89757 0.0
H2380 H 0.44189 0.90971 0.00203 0.0
H2381 H 0.45405 0.87672 0.06983 0.0
H2382 H 0.46287 0.88689 0.02999 0.0
H2383 H 0.4482 0.87355 0.02012 0.0
C2384 C 0.47219 0.91339 0.94185 0.0
C2385 C 0.46944 0.90423 0.9134 0.0
C2386 C 0.46491 0.91082 0.97552 0.0
C2387 C 0.45477 0.89903 0.9815 0.0
C2388 C 0.45187 0.88987 0.95295 0.0
H2389 H 0.40667 0.89221 0.1812 0.0
H2390 H 0.41268 0.88882 0.1155 0.0
C2391 C 0.45918 0.89244 0.91912 0.0
C2392 C 0.44737 0.89653 0.01789 0.0
H2393 H 0.44129 0.88173 0.10671 0.0
C2394 C 0.44158 0.90347 0.02477 0.0
C2395 C 0.44708 0.88842 0.04741 0.0
C2396 C 0.45343 0.881 0.04182 0.0
C2397 C 0.43595 0.90291 0.06107 0.0
C2398 C 0.43591 0.89501 0.091 0.0
C2399 C 0.44127 0.88771 0.08356 0.0
C2400 C 0.43165 0.89531 0.13155 0.0
C2401 C 0.43072 0.9113 0.06783 0.0
C2402 C 0.44018 0.89952 0.16267 0.0
C2403 C 0.43676 0.90134 0.20017 0.0
C2404 C 0.42474 0.899 0.20718 0.0
C2405 C 0.41603 0.89418 0.17652 0.0
C2406 C 0.41945 0.8923 0.13898 0.0
H2407 H 0.43359 0.91844 0.04449 0.0
H2408 H 0.42053 0.90577 0.06773 0.0
H2409 H 0.43369 0.91596 0.09694 0.0
H2410 H 0.44963 0.90187 0.15755 0.0
H2411 H 0.44366 0.90501 0.22327 0.0
H2412 H 0.24889 0.38224 0.06809 0.0
H2413 H 0.24006 0.36039 0.08413 0.0
H2414 H 0.20607 0.35251 0.02759 0.0
H2415 H 0.21489 0.37425 0.01082 0.0
H2416 H 0.22016 0.34615 0.12978 0.0
H2417 H 0.21251 0.32673 0.9789 0.0
H2418 H 0.22214 0.34297 0.98868 0.0
H2419 H 0.20568 0.33621 0.98569 0.0
C2420 C 0.23957 0.37582 0.05881 0.0
C2421 C 0.23258 0.37992 0.0381 0.0
C2422 C 0.23455 0.36336 0.06796 0.0
C2423 C 0.22249 0.3548 0.05642 0.0
C2424 C 0.2155 0.3589 0.03586 0.0
H2425 H 0.16974 0.28633 0.15644 0.0
H2426 H 0.18348 0.30772 0.13769 0.0
C2427 C 0.22051 0.37134 0.02659 0.0
C2428 C 0.21693 0.3417 0.06786 0.0
H2429 H 0.20118 0.31249 0.03105 0.0
C2430 C 0.21616 0.33878 0.10817 0.0
C2431 C 0.21191 0.3321 0.03961 0.0
C2432 C 0.21321 0.33465 0.99579 0.0
C2433 C 0.20996 0.32653 0.12111 0.0
C2434 C 0.20416 0.31697 0.093 0.0
C2435 C 0.20548 0.31985 0.05259 0.0
C2436 C 0.1961 0.304 0.105 0.0
C2437 C 0.20959 0.32395 0.16478 0.0
C2438 C 0.19845 0.29475 0.09193 0.0
C2439 C 0.19052 0.28246 0.10232 0.0
C2440 C 0.1801 0.27925 0.12574 0.0
C2441 C 0.17775 0.28853 0.13859 0.0
C2442 C 0.18564 0.30077 0.12814 0.0
H2443 H 0.21751 0.33158 0.18045 0.0
H2444 H 0.20103 0.32305 0.17757 0.0
H2445 H 0.20966 0.31526 0.1704 0.0
H2446 H 0.20642 0.29705 0.07375 0.0
H2447 H 0.19253 0.27549 0.09193 0.0
H2448 H 0.71816 0.91053 0.07035 0.0
H2449 H 0.69633 0.90158 0.05433 0.0
H2450 H 0.68661 0.88207 0.16534 0.0
H2451 H 0.70843 0.89078 0.18117 0.0
H2452 H 0.67496 0.86711 0.10358 0.0
H2453 H 0.66989 0.90847 0.09482 0.0
H2454 H 0.68214 0.90958 0.06447 0.0
H2455 H 0.68308 0.90873 0.11732 0.0
C2456 C 0.71137 0.90446 0.09155 0.0
C2457 C 0.71499 0.90132 0.12696 0.0
C2458 C 0.69889 0.89943 0.0825 0.0
C2459 C 0.68984 0.8913 0.1089 0.0
C2460 C 0.69345 0.88838 0.14466 0.0
H2461 H 0.61022 0.8587 0.08228 0.0
H2462 H 0.63159 0.87099 0.10506 0.0
C2463 C 0.70591 0.89335 0.15364 0.0
C2464 C 0.67666 0.885 0.09774 0.0
H2465 H 0.65351 0.8899 0.06709 0.0
C2466 C 0.67025 0.8721 0.09594 0.0
C2467 C 0.67049 0.89151 0.08819 0.0
C2468 C 0.67671 0.90533 0.09165 0.0
C2469 C 0.65794 0.86554 0.0838 0.0
C2470 C 0.65195 0.87207 0.07241 0.0
C2471 C 0.65821 0.88495 0.07535 0.0
C2472 C 0.63922 0.86559 0.05694 0.0
C2473 C 0.65142 0.85165 0.08337 0.0
C2474 C 0.63655 0.85881 0.02178 0.0
C2475 C 0.62441 0.8518 0.00878 0.0
C2476 C 0.61475 0.8515 0.03063 0.0
C2477 C 0.6175 0.85873 0.06492 0.0
C2478 C 0.62967 0.86575 0.07795 0.0
H2479 H 0.65616 0.84807 0.10236 0.0
H2480 H 0.64176 0.84765 0.09357 0.0
H2481 H 0.65129 0.84845 0.05272 0.0
H2482 H 0.64384 0.85875 0.00482 0.0
H2483 H 0.62259 0.84639 0.9821 0.0
H2484 H 0.14162 0.75372 0.1014 0.0
H2485 H 0.1289 0.76265 0.12094 0.0
H2486 H 0.13465 0.77983 0.00664 0.0
H2487 H 0.14748 0.77109 0.98699 0.0
H2488 H 0.13921 0.79082 0.11394 0.0
H2489 H 0.09562 0.76094 0.03286 0.0
H2490 H 0.10598 0.75559 0.048 0.0
H2491 H 0.10991 0.76594 0.007 0.0
C2492 C 0.14005 0.75929 0.08029 0.0
C2493 C 0.14555 0.76175 0.04271 0.0
C2494 C 0.1328 0.76436 0.09149 0.0
C2495 C 0.1308 0.77179 0.06507 0.0
C2496 C 0.13601 0.77401 0.02721 0.0
H2497 H 0.09559 0.8155 0.06392 0.0
H2498 H 0.10437 0.80242 0.0486 0.0
C2499 C 0.14336 0.76905 0.01613 0.0
C2500 C 0.12407 0.77803 0.07793 0.0
H2501 H 0.09746 0.77865 0.06408 0.0
C2502 C 0.13003 0.78812 0.10343 0.0
C2503 C 0.11219 0.7745 0.06369 0.0
C2504 C 0.10545 0.76361 0.03651 0.0
C2505 C 0.12455 0.79507 0.1143 0.0
C2506 C 0.1126 0.79154 0.10015 0.0
C2507 C 0.10658 0.7813 0.07503 0.0
C2508 C 0.10647 0.79871 0.10973 0.0
C2509 C 0.13183 0.80639 0.13943 0.0
C2510 C 0.10442 0.80069 0.14914 0.0
C2511 C 0.09956 0.8083 0.15795 0.0
C2512 C 0.09645 0.81385 0.12746 0.0
C2513 C 0.09794 0.81137 0.08801 0.0
C2514 C 0.10294 0.80389 0.07923 0.0
H2515 H 0.14185 0.80962 0.13861 0.0
H2516 H 0.13041 0.81404 0.12957 0.0
H2517 H 0.12875 0.80419 0.17058 0.0
H2518 H 0.10676 0.79651 0.17311 0.0
H2519 H 0.09838 0.80995 0.18863 0.0
H2520 H 0.27632 0.18455 0.43909 0.0
H2521 H 0.29801 0.19695 0.45798 0.0
H2522 H 0.30874 0.19858 0.33612 0.0
H2523 H 0.28709 0.18616 0.31696 0.0
H2524 H 0.31601 0.18937 0.44114 0.0
H2525 H 0.3287 0.23493 0.37643 0.0
H2526 H 0.31296 0.22337 0.38695 0.0
H2527 H 0.32059 0.22191 0.34417 0.0
C2528 C 0.28329 0.18769 0.41626 0.0
C2529 C 0.28003 0.18439 0.37656 0.0
C2530 C 0.29566 0.19476 0.4271 0.0
C2531 C 0.30493 0.19876 0.39838 0.0
C2532 C 0.30169 0.19573 0.35861 0.0
H2533 H 0.38429 0.23532 0.39627 0.0
H2534 H 0.36238 0.22608 0.3805 0.0
C2535 C 0.28933 0.18859 0.34777 0.0
C2536 C 0.31802 0.20527 0.4103 0.0
H2537 H 0.34505 0.23238 0.40062 0.0
C2538 C 0.32236 0.19881 0.43263 0.0
C2539 C 0.32624 0.21753 0.39876 0.0
C2540 C 0.32192 0.22492 0.3755 0.0
C2541 C 0.33482 0.20419 0.44296 0.0
C2542 C 0.34308 0.21648 0.43153 0.0
C2543 C 0.33869 0.22297 0.40944 0.0
C2544 C 0.35635 0.22263 0.44142 0.0
C2545 C 0.33908 0.19649 0.46483 0.0
C2546 C 0.36023 0.224 0.48093 0.0
C2547 C 0.37271 0.22915 0.48998 0.0
C2548 C 0.38154 0.2332 0.45968 0.0
C2549 C 0.37768 0.23224 0.42022 0.0
C2550 C 0.36518 0.22699 0.41118 0.0
H2551 H 0.33243 0.18649 0.46179 0.0
H2552 H 0.34819 0.19833 0.45393 0.0
H2553 H 0.33994 0.19881 0.49674 0.0
H2554 H 0.35359 0.22097 0.50476 0.0
H2555 H 0.37544 0.22989 0.52068 0.0
H2556 H 0.75036 0.13529 0.4233 0.0
H2557 H 0.7584 0.12166 0.40574 0.0
H2558 H 0.78664 0.13897 0.49454 0.0
H2559 H 0.7786 0.15246 0.51252 0.0
H2560 H 0.78164 0.12918 0.37732 0.0
H2561 H 0.7737 0.10255 0.51527 0.0
H2562 H 0.7661 0.11126 0.50494 0.0
H2563 H 0.78158 0.11884 0.5239 0.0
C2564 C 0.75817 0.13604 0.43945 0.0
C2565 C 0.76386 0.14492 0.4693 0.0
C2566 C 0.76274 0.12827 0.42939 0.0
C2567 C 0.773 0.12918 0.44923 0.0
C2568 C 0.77854 0.1379 0.47947 0.0
H2569 H 0.82983 0.11534 0.37512 0.0
H2570 H 0.81625 0.1234 0.39192 0.0
C2571 C 0.77399 0.14567 0.48952 0.0
C2572 C 0.77859 0.12179 0.43635 0.0
H2573 H 0.78879 0.10286 0.47058 0.0
C2574 C 0.78304 0.12327 0.39753 0.0
C2575 C 0.78027 0.11398 0.46259 0.0
C2576 C 0.77505 0.11145 0.50387 0.0
C2577 C 0.78967 0.11763 0.38482 0.0
C2578 C 0.79207 0.11049 0.41188 0.0
C2579 C 0.78708 0.10849 0.45007 0.0
C2580 C 0.8002 0.10551 0.40163 0.0
C2581 C 0.79415 0.11946 0.34266 0.0
C2582 C 0.79575 0.09279 0.40257 0.0
C2583 C 0.80352 0.08815 0.39318 0.0
C2584 C 0.81588 0.09619 0.38302 0.0
C2585 C 0.82034 0.10893 0.38263 0.0
C2586 C 0.81257 0.11354 0.39197 0.0
H2587 H 0.78861 0.12196 0.32315 0.0
H2588 H 0.80384 0.12707 0.34153 0.0
H2589 H 0.79379 0.11102 0.33085 0.0
H2590 H 0.78624 0.08645 0.41026 0.0
H2591 H 0.79984 0.07829 0.39381 0.0
H2592 H 0.9175 0.71743 0.37596 0.0
H2593 H 0.90886 0.69566 0.39316 0.0
H2594 H 0.87219 0.69019 0.38277 0.0
H2595 H 0.88072 0.71186 0.36539 0.0
H2596 H 0.89312 0.68297 0.45755 0.0
H2597 H 0.87128 0.66266 0.3136 0.0
H2598 H 0.88294 0.67865 0.31904 0.0
H2599 H 0.86726 0.67356 0.33259 0.0
C2600 C 0.9076 0.71156 0.37713 0.0
C2601 C 0.89977 0.71632 0.36922 0.0
C2602 C 0.90269 0.69915 0.38696 0.0
C2603 C 0.8899 0.69131 0.38865 0.0
C2604 C 0.88208 0.69605 0.38086 0.0
H2605 H 0.84322 0.62357 0.50619 0.0
H2606 H 0.85621 0.64496 0.4855 0.0
C2607 C 0.88697 0.70844 0.37116 0.0
C2608 C 0.88465 0.67826 0.40004 0.0
H2609 H 0.86492 0.64898 0.36889 0.0
C2610 C 0.88706 0.67552 0.43805 0.0
C2611 C 0.87691 0.66857 0.3743 0.0
C2612 C 0.87452 0.67097 0.33246 0.0
C2613 C 0.88147 0.66334 0.45167 0.0
C2614 C 0.87317 0.65371 0.4267 0.0
C2615 C 0.8712 0.65641 0.38808 0.0
C2616 C 0.86594 0.64086 0.44072 0.0
C2617 C 0.88439 0.66087 0.49274 0.0
C2618 C 0.86703 0.63146 0.42205 0.0
C2619 C 0.85961 0.61922 0.43378 0.0
C2620 C 0.85089 0.61619 0.46404 0.0
C2621 C 0.84989 0.62564 0.48286 0.0
C2622 C 0.85735 0.63786 0.47126 0.0
H2623 H 0.89328 0.66856 0.5036 0.0
H2624 H 0.87704 0.65985 0.51328 0.0
H2625 H 0.8848 0.65223 0.49361 0.0
H2626 H 0.87356 0.6336 0.39821 0.0
H2627 H 0.86054 0.61212 0.41867 0.0
H2628 H 0.81185 0.71754 0.92596 0.0
H2629 H 0.79975 0.69563 0.9421 0.0
H2630 H 0.80009 0.68645 0.81946 0.0
H2631 H 0.81244 0.70835 0.80324 0.0
H2632 H 0.77722 0.67671 0.91681 0.0
H2633 H 0.81511 0.6682 0.87444 0.0
H2634 H 0.81733 0.68349 0.87961 0.0
H2635 H 0.8103 0.67466 0.83573 0.0
C2636 C 0.80927 0.71086 0.9024 0.0
C2637 C 0.8132 0.71463 0.86342 0.0
C2638 C 0.80234 0.69835 0.91165 0.0
C2639 C 0.79923 0.68943 0.88209 0.0
C2640 C 0.80264 0.69319 0.84284 0.0
H2641 H 0.74918 0.61041 0.91734 0.0
H2642 H 0.7582 0.63188 0.896 0.0
C2643 C 0.80964 0.7057 0.8336 0.0
C2644 C 0.79285 0.67621 0.89276 0.0
H2645 H 0.79625 0.65086 0.89285 0.0
C2646 C 0.78135 0.67103 0.91152 0.0
C2647 C 0.79836 0.66889 0.88629 0.0
C2648 C 0.811 0.67409 0.86826 0.0
C2649 C 0.77519 0.65871 0.92405 0.0
C2650 C 0.78061 0.65134 0.91694 0.0
C2651 C 0.79208 0.65652 0.89802 0.0
C2652 C 0.77487 0.63839 0.9304 0.0
C2653 C 0.76315 0.65381 0.94584 0.0
C2654 C 0.78134 0.63489 0.95616 0.0
C2655 C 0.7763 0.62265 0.96794 0.0
C2656 C 0.76466 0.61366 0.95421 0.0
C2657 C 0.75813 0.61717 0.92858 0.0
C2658 C 0.76324 0.62943 0.91656 0.0
H2659 H 0.76184 0.66135 0.95753 0.0
H2660 H 0.75545 0.64823 0.92527 0.0
H2661 H 0.7626 0.64782 0.97082 0.0
H2662 H 0.79034 0.64165 0.9671 0.0
H2663 H 0.78154 0.62023 0.98773 0.0
H2664 H 0.38522 0.13333 0.92973 0.0
H2665 H 0.36367 0.12002 0.91028 0.0
H2666 H 0.35459 0.14631 0.95865 0.0
H2667 H 0.37596 0.15947 0.97885 0.0
H2668 H 0.33796 0.12246 0.97956 0.0
H2669 H 0.34678 0.12641 0.81766 0.0
H2670 H 0.3551 0.12084 0.84601 0.0
H2671 H 0.35824 0.13635 0.85294 0.0
C2672 C 0.37861 0.13624 0.93621 0.0
C2673 C 0.38226 0.14746 0.95563 0.0
C2674 C 0.36633 0.12867 0.92493 0.0
C2675 C 0.35758 0.13227 0.93255 0.0
C2676 C 0.3612 0.14337 0.95244 0.0
H2677 H 0.28919 0.11592 0.83242 0.0
H2678 H 0.31057 0.12335 0.85096 0.0
C2679 C 0.37342 0.1509 0.96388 0.0
C2680 C 0.34461 0.12461 0.91983 0.0
H2681 H 0.3262 0.11426 0.83822 0.0
C2682 C 0.33536 0.12055 0.94869 0.0
C2683 C 0.3413 0.12222 0.8795 0.0
C2684 C 0.35084 0.12675 0.84712 0.0
C2685 C 0.32287 0.11452 0.93828 0.0
C2686 C 0.31955 0.11224 0.89792 0.0
C2687 C 0.32879 0.11596 0.86913 0.0
C2688 C 0.30664 0.10714 0.88475 0.0
C2689 C 0.31338 0.11119 0.97045 0.0
C2690 C 0.29737 0.09544 0.89694 0.0
C2691 C 0.28509 0.09121 0.88665 0.0
C2692 C 0.28195 0.09857 0.86366 0.0
C2693 C 0.29132 0.11006 0.85027 0.0
C2694 C 0.30355 0.11431 0.86075 0.0
H2695 H 0.3176 0.1159 -0.00124 0.0
H2696 H 0.30634 0.11363 0.96162 0.0
H2697 H 0.30865 0.10112 0.97572 0.0
H2698 H 0.2996 0.08966 0.91481 0.0
H2699 H 0.27806 0.08226 0.8971 0.0
H2700 H 0.91065 0.19287 0.91632 0.0
H2701 H 0.90143 0.2055 0.9332 0.0
H2702 H 0.876 0.18955 0.83605 0.0
H2703 H 0.88532 0.17714 0.81849 0.0
H2704 H 0.88526 0.21456 0.84281 0.0
H2705 H 0.868 0.19105 0.98722 0.0
H2706 H 0.88434 0.19807 0.9805 0.0
H2707 H 0.8741 0.18533 0.94979 0.0
C2708 C 0.90316 0.19215 0.89838 0.0
C2709 C 0.89863 0.18395 0.8663 0.0
C2710 C 0.89787 0.19931 0.90818 0.0
C2711 C 0.88788 0.19827 0.88632 0.0
C2712 C 0.88366 0.19044 0.8534 0.0
H2713 H 0.83114 0.21381 0.95467 0.0
H2714 H 0.84384 0.2049 0.93585 0.0
C2715 C 0.88899 0.18334 0.84345 0.0
C2716 C 0.88147 0.20497 0.89834 0.0
H2717 H 0.86432 0.20731 0.9725 0.0
C2718 C 0.88072 0.21303 0.87122 0.0
C2719 C 0.87543 0.20281 0.93523 0.0
C2720 C 0.87538 0.19377 0.96478 0.0
C2721 C 0.874 0.21894 0.87987 0.0
C2722 C 0.86808 0.21688 0.91695 0.0
C2723 C 0.86894 0.20891 0.94419 0.0
C2724 C 0.86047 0.22245 0.92752 0.0
C2725 C 0.87295 0.22698 0.84874 0.0
C2726 C 0.86563 0.23527 0.92927 0.0
C2727 C 0.85836 0.24039 0.93973 0.0
C2728 C 0.84585 0.23275 0.94907 0.0
C2729 C 0.84075 0.21992 0.9476 0.0
C2730 C 0.84799 0.21482 0.93691 0.0
H2731 H 0.87537 0.22515 0.81891 0.0
H2732 H 0.86347 0.22555 0.84769 0.0
H2733 H 0.87937 0.23678 0.85598 0.0
H2734 H 0.8753 0.24132 0.92296 0.0
H2735 H 0.86256 0.25031 0.94091 0.0
H2736 H 0.70837 0.81021 0.69445 0.0
H2737 H 0.68626 0.79775 0.68141 0.0
H2738 H 0.69356 0.79946 0.55632 0.0
H2739 H 0.71564 0.81166 0.56919 0.0
H2740 H 0.67248 0.80475 0.63994 0.0
H2741 H 0.66924 0.76325 0.57091 0.0
H2742 H 0.68271 0.77433 0.59766 0.0
H2743 H 0.68044 0.77714 0.54704 0.0
C2744 C 0.70526 0.80777 0.66422 0.0
C2745 C 0.71372 0.81188 0.63282 0.0
C2746 C 0.69264 0.80066 0.65682 0.0
C2747 C 0.68827 0.79753 0.61795 0.0
C2748 C 0.69673 0.8015 0.58661 0.0
H2749 H 0.61915 0.78287 0.52106 0.0
H2750 H 0.64032 0.79145 0.54431 0.0
C2751 C 0.70934 0.80855 0.59399 0.0
C2752 C 0.67487 0.79095 0.60986 0.0
H2753 H 0.65206 0.7664 0.56052 0.0
C2754 C 0.66798 0.79628 0.62299 0.0
C2755 C 0.66898 0.77982 0.58822 0.0
C2756 C 0.6757 0.77323 0.5755 0.0
C2757 C 0.65546 0.79104 0.61374 0.0
C2758 C 0.64976 0.78033 0.59002 0.0
C2759 C 0.65651 0.77471 0.57825 0.0
C2760 C 0.63691 0.77506 0.57608 0.0
C2761 C 0.64846 0.79703 0.62946 0.0
C2762 C 0.62807 0.76289 0.58531 0.0
C2763 C 0.61597 0.75791 0.57175 0.0
C2764 C 0.61257 0.76504 0.54861 0.0
C2765 C 0.62149 0.77719 0.53909 0.0
C2766 C 0.63356 0.78213 0.55254 0.0
H2767 H 0.65295 0.80266 0.65615 0.0
H2768 H 0.64822 0.80323 0.60653 0.0
H2769 H 0.63883 0.79005 0.637 0.0
H2770 H 0.6305 0.75726 0.60321 0.0
H2771 H 0.60929 0.74851 0.57945 0.0
H2772 H 0.17054 0.88382 0.66103 0.0
H2773 H 0.18206 0.87347 0.64387 0.0
H2774 H 0.20431 0.9028 0.56267 0.0
H2775 H 0.19308 0.91337 0.58062 0.0
H2776 H 0.18426 0.86464 0.57423 0.0
H2777 H 0.23036 0.90052 0.62568 0.0
H2778 H 0.2165 0.90079 0.63792 0.0
H2779 H 0.2237 0.90621 0.59051 0.0
C2780 C 0.17794 0.8881 0.63972 0.0
C2781 C 0.18097 0.89943 0.62233 0.0
C2782 C 0.18451 0.88218 0.62992 0.0
C2783 C 0.19418 0.88746 0.60248 0.0
C2784 C 0.19711 0.89871 0.58468 0.0
H2785 H 0.22374 0.84671 0.48063 0.0
H2786 H 0.21331 0.85815 0.49782 0.0
C2787 C 0.19063 0.9047 0.59476 0.0
C2788 C 0.20093 0.88099 0.59166 0.0
H2789 H 0.2296 0.88427 0.58717 0.0
C2790 C 0.19417 0.86891 0.57719 0.0
C2791 C 0.21383 0.88652 0.59606 0.0
C2792 C 0.22152 0.89918 0.61376 0.0
C2793 C 0.19998 0.86224 0.56665 0.0
C2794 C 0.21294 0.86795 0.5696 0.0
C2795 C 0.21968 0.87998 0.58447 0.0
C2796 C 0.21966 0.86147 0.55847 0.0
C2797 C 0.19213 0.84906 0.55337 0.0
C2798 C 0.22709 0.85997 0.58636 0.0
C2799 C 0.23322 0.85363 0.57641 0.0
C2800 C 0.23199 0.84864 0.53841 0.0
C2801 C 0.22476 0.85037 0.51025 0.0
C2802 C 0.21873 0.85682 0.52011 0.0
H2803 H 0.18245 0.84508 0.56349 0.0
H2804 H 0.19206 0.84871 0.52061 0.0
H2805 H 0.1958 0.84322 0.56466 0.0
H2806 H 0.22798 0.86355 0.61607 0.0
H2807 H 0.23874 0.85245 0.5987 0.0
H2808 H 0.15793 0.37463 0.50104 0.0
H2809 H 0.14497 0.35305 0.51949 0.0
H2810 H 0.12264 0.36255 0.59185 0.0
H2811 H 0.1357 0.38427 0.57385 0.0
H2812 H 0.12978 0.34758 0.63012 0.0
H2813 H 0.11009 0.3285 0.48311 0.0
H2814 H 0.12658 0.33754 0.48259 0.0
H2815 H 0.11765 0.34477 0.49388 0.0
C2816 C 0.1502 0.37212 0.52064 0.0
C2817 C 0.1478 0.38112 0.53594 0.0
C2818 C 0.14276 0.35978 0.53095 0.0
C2819 C 0.13273 0.35619 0.5565 0.0
C2820 C 0.13029 0.36514 0.57184 0.0
H2821 H 0.08028 0.27838 0.60066 0.0
H2822 H 0.08936 0.3002 0.58371 0.0
C2823 C 0.13774 0.37752 0.56152 0.0
C2824 C 0.12523 0.34315 0.56869 0.0
H2825 H 0.10838 0.31398 0.5323 0.0
C2826 C 0.12497 0.34023 0.60883 0.0
C2827 C 0.11883 0.33361 0.54092 0.0
C2828 C 0.11818 0.33625 0.49777 0.0
C2829 C 0.1189 0.32796 0.62174 0.0
C2830 C 0.11313 0.31839 0.59363 0.0
C2831 C 0.11295 0.32134 0.55373 0.0
C2832 C 0.10757 0.30527 0.60481 0.0
C2833 C 0.11873 0.32536 0.66533 0.0
C2834 C 0.11485 0.30089 0.62182 0.0
C2835 C 0.1097 0.28846 0.63156 0.0
C2836 C 0.0972 0.28018 0.62414 0.0
C2837 C 0.08994 0.28456 0.60678 0.0
C2838 C 0.0951 0.29701 0.5971 0.0
H2839 H 0.12022 0.33338 0.68346 0.0
H2840 H 0.10987 0.31723 0.67417 0.0
H2841 H 0.12626 0.32344 0.67214 0.0
H2842 H 0.12456 0.30706 0.62715 0.0
H2843 H 0.11553 0.28533 0.64469 0.0
H2844 H 0.04274 0.55289 0.82482 0.0
H2845 H 0.02142 0.54436 0.80317 0.0
H2846 H 0.03288 0.57331 0.71671 0.0
H2847 H 0.05428 0.58201 0.73853 0.0
H2848 H 0.01126 0.56823 0.75961 0.0
H2849 H 0.00847 0.52599 0.69749 0.0
H2850 H 0.01357 0.52891 0.74794 0.0
H2851 H 0.02291 0.53949 0.70994 0.0
C2852 C 0.04072 0.55747 0.8013 0.0
C2853 C 0.05018 0.56806 0.78314 0.0
C2854 C 0.02855 0.55256 0.78887 0.0
C2855 C 0.02563 0.5581 0.75793 0.0
C2856 C 0.03498 0.56888 0.7405 0.0
H2857 H 0.95481 0.51807 0.63894 0.0
H2858 H 0.97683 0.53115 0.65178 0.0
C2859 C 0.04719 0.57381 0.75295 0.0
C2860 C 0.01282 0.55245 0.74351 0.0
H2861 H 0.98954 0.52587 0.70491 0.0
C2862 C 0.00651 0.55901 0.74732 0.0
C2863 C 0.00675 0.54053 0.72684 0.0
C2864 C 0.0133 0.53335 0.7199 0.0
C2865 C 0.9941 0.55373 0.73625 0.0
C2866 C 0.98785 0.54154 0.72158 0.0
C2867 C 0.99431 0.53518 0.71646 0.0
C2868 C 0.97451 0.53495 0.71257 0.0
C2869 C 0.98781 0.56125 0.74026 0.0
C2870 C 0.9659 0.53286 0.74237 0.0
C2871 C 0.95331 0.52544 0.73506 0.0
C2872 C 0.94914 0.51987 0.69795 0.0
C2873 C 0.95776 0.52223 0.66785 0.0
C2874 C 0.97033 0.5297 0.67512 0.0
H2875 H 0.99457 0.57128 0.74002 0.0
H2876 H 0.98105 0.55917 0.71611 0.0
H2877 H 0.98282 0.55904 0.76884 0.0
H2878 H 0.96892 0.53658 0.77174 0.0
H2879 H 0.94688 0.52372 0.75887 0.0
H2880 H 0.41873 0.47509 0.74228 0.0
H2881 H 0.42751 0.46205 0.72557 0.0
H2882 H 0.45076 0.47521 0.82867 0.0
H2883 H 0.44211 0.4883 0.84543 0.0
H2884 H 0.46328 0.47702 0.75762 0.0
H2885 H 0.42291 0.43024 0.77857 0.0
H2886 H 0.42021 0.44042 0.7482 0.0
H2887 H 0.42373 0.44387 0.79967 0.0
C2888 C 0.4256 0.47508 0.76162 0.0
C2889 C 0.42975 0.48272 0.79512 0.0
C2890 C 0.43055 0.46759 0.75216 0.0
C2891 C 0.43968 0.46759 0.77613 0.0
C2892 C 0.44368 0.47505 0.80993 0.0
H2893 H 0.47432 0.42262 0.76756 0.0
H2894 H 0.46247 0.43257 0.7861 0.0
C2895 C 0.43873 0.48251 0.81944 0.0
C2896 C 0.44573 0.46051 0.76456 0.0
H2897 H 0.44063 0.43144 0.74878 0.0
C2898 C 0.45834 0.46706 0.75576 0.0
C2899 C 0.43925 0.44751 0.76247 0.0
C2900 C 0.4258 0.44005 0.77303 0.0
C2901 C 0.46465 0.46095 0.74443 0.0
C2902 C 0.45812 0.44798 0.74144 0.0
C2903 C 0.44555 0.4414 0.75078 0.0
C2904 C 0.46434 0.44115 0.72915 0.0
C2905 C 0.47828 0.46842 0.73621 0.0
C2906 C 0.46904 0.44248 0.69075 0.0
C2907 C 0.47578 0.43682 0.68007 0.0
C2908 C 0.47792 0.42973 0.70767 0.0
C2909 C 0.47284 0.42806 0.74573 0.0
C2910 C 0.46607 0.43371 0.75634 0.0
H2911 H 0.48238 0.47795 0.74777 0.0
H2912 H 0.48318 0.46399 0.74959 0.0
H2913 H 0.47983 0.46894 0.70382 0.0
H2914 H 0.46767 0.44809 0.66926 0.0
H2915 H 0.47953 0.43823 0.65048 0.0
H2916 H 0.50389 0.9556 0.81791 0.0
H2917 H 0.51645 0.97715 0.79819 0.0
H2918 H 0.54073 0.96835 0.73381 0.0
H2919 H 0.52835 0.94679 0.75421 0.0
H2920 H 0.55332 0.9896 0.77695 0.0
H2921 H 0.51652 0.99043 0.68879 0.0
H2922 H 0.51194 0.98555 0.7388 0.0
H2923 H 0.51538 0.97631 0.7063 0.0
C2924 C 0.51191 0.95826 0.7996 0.0
C2925 C 0.5151 0.94952 0.78735 0.0
C2926 C 0.51903 0.97055 0.78817 0.0
C2927 C 0.52937 0.97429 0.76386 0.0
C2928 C 0.53274 0.96563 0.75235 0.0
H2929 H 0.56352 0.04502 0.64275 0.0
H2930 H 0.55397 0.02305 0.6577 0.0
C2931 C 0.52566 0.95334 0.764 0.0
C2932 C 0.53664 0.98724 0.75058 0.0
H2933 H 0.53416 0.00989 0.70307 0.0
C2934 C 0.54917 0.99403 0.76053 0.0
C2935 C 0.53127 0.99292 0.7285 0.0
C2936 C 0.51807 0.9859 0.71459 0.0
C2937 C 0.55638 0.00648 0.75007 0.0
C2938 C 0.55082 0.01233 0.72988 0.0
C2939 C 0.53839 0.00543 0.7189 0.0
C2940 C 0.55758 0.02566 0.72053 0.0
C2941 C 0.56988 0.01321 0.76045 0.0
C2942 C 0.56284 0.03441 0.75086 0.0
C2943 C 0.56838 0.04696 0.74234 0.0
C2944 C 0.56861 0.05097 0.70341 0.0
C2945 C 0.56348 0.0422 0.67302 0.0
C2946 C 0.55802 0.02966 0.68152 0.0
H2947 H 0.57343 0.00673 0.76418 0.0
H2948 H 0.57543 0.02005 0.73741 0.0
H2949 H 0.57122 0.01814 0.78885 0.0
H2950 H 0.56234 0.03154 0.78129 0.0
H2951 H 0.57218 0.05351 0.7664 0.0
H2952 H 0.48258 0.04328 0.14676 0.0
H2953 H 0.46974 0.02136 0.16176 0.0
H2954 H 0.4629 0.03032 0.27857 0.0
H2955 H 0.47568 0.05228 0.26374 0.0
H2956 H 0.47465 0.00937 0.22361 0.0
H2957 H 0.4283 0.00444 0.2385 0.0
H2958 H 0.44089 0.01734 0.21368 0.0
H2959 H 0.44022 0.01679 0.2667 0.0
C2960 C 0.47821 0.04059 0.17547 0.0
C2961 C 0.48013 0.04948 0.20412 0.0
C2962 C 0.47089 0.02807 0.18397 0.0
C2963 C 0.46528 0.02424 0.2211 0.0
C2964 C 0.46697 0.0331 0.24949 0.0
H2965 H 0.441 0.95487 0.33873 0.0
H2966 H 0.45032 0.97655 0.32002 0.0
C2967 C 0.47433 0.04563 0.24106 0.0
C2968 C 0.45847 0.01098 0.23111 0.0
H2969 H 0.43038 0.98744 0.25956 0.0
C2970 C 0.46496 0.00456 0.23127 0.0
C2971 C 0.44581 0.00474 0.24082 0.0
C2972 C 0.43833 0.01112 0.23964 0.0
C2973 C 0.45918 0.99209 0.24168 0.0
C2974 C 0.44663 0.98594 0.25253 0.0
C2975 C 0.44004 0.99226 0.25155 0.0
C2976 C 0.44027 0.97292 0.2651 0.0
C2977 C 0.46652 0.98555 0.2409 0.0
C2978 C 0.43132 0.96377 0.24079 0.0
C2979 C 0.426 0.95136 0.25133 0.0
C2980 C 0.42949 0.94796 0.28649 0.0
C2981 C 0.43815 0.9572 0.3114 0.0
C2982 C 0.4435 0.96958 0.30075 0.0
H2983 H 0.4753 0.99085 0.22438 0.0
H2984 H 0.46876 0.98427 0.27164 0.0
H2985 H 0.4611 0.9763 0.22722 0.0
H2986 H 0.42871 0.96621 0.21319 0.0
H2987 H 0.41933 0.94444 0.23163 0.0
H2988 H 0.04033 0.48595 0.3425 0.0
H2989 H 0.01839 0.47396 0.32682 0.0
H2990 H 0.02628 0.45627 0.2311 0.0
H2991 H 0.04827 0.46815 0.24688 0.0
H2992 H 0.00788 0.47466 0.25513 0.0
H2993 H 0.99789 0.42728 0.29001 0.0
H2994 H 0.01153 0.44084 0.30749 0.0
H2995 H 0.01073 0.43575 0.25741 0.0
C2996 C 0.03738 0.4794 0.3184 0.0
C2997 C 0.046 0.47797 0.29591 0.0
C2998 C 0.02486 0.47257 0.30948 0.0
C2999 C 0.02071 0.46414 0.27809 0.0
C3000 C 0.02927 0.46256 0.25591 0.0
H3001 H 0.95114 0.43709 0.1555 0.0
H3002 H 0.97289 0.4461 0.17296 0.0
C3003 C 0.04182 0.4694 0.26482 0.0
C3004 C 0.00753 0.45763 0.2671 0.0
H3005 H 0.98211 0.42913 0.25738 0.0
C3006 C 0.00223 0.46471 0.2557 0.0
C3007 C 0.00019 0.44466 0.2682 0.0
C3008 C 0.00531 0.43666 0.28176 0.0
C3009 C 0.9898 0.45915 0.24496 0.0
C3010 C 0.98253 0.44617 0.24508 0.0
C3011 C 0.98777 0.43908 0.25696 0.0
C3012 C 0.96939 0.43986 0.23365 0.0
C3013 C 0.98449 0.46724 0.23419 0.0
C3014 C 0.96025 0.43301 0.26164 0.0
C3015 C 0.94781 0.4278 0.25172 0.0
C3016 C 0.94435 0.42933 0.21357 0.0
C3017 C 0.95353 0.43582 0.1852 0.0
C3018 C 0.96595 0.44101 0.19514 0.0
H3019 H 0.99043 0.47686 0.24449 0.0
H3020 H 0.98367 0.46741 0.20158 0.0
H3021 H 0.97517 0.4636 0.24708 0.0
H3022 H 0.96274 0.43199 0.29148 0.0
H3023 H 0.94093 0.42282 0.27415 0.0
H3024 H 0.54975 0.50523 0.15309 0.0
H3025 H 0.54066 0.51808 0.16789 0.0
H3026 H 0.56834 0.53729 0.25709 0.0
H3027 H 0.57765 0.52468 0.24177 0.0
H3028 H 0.53075 0.51947 0.23691 0.0
H3029 H 0.56921 0.56562 0.19699 0.0
H3030 H 0.56883 0.55158 0.18249 0.0
H3031 H 0.57363 0.55766 0.2315 0.0
C3032 C 0.55397 0.51228 0.17557 0.0
C3033 C 0.56442 0.51398 0.19624 0.0
C3034 C 0.54877 0.51961 0.18398 0.0
C3035 C 0.55393 0.52876 0.21317 0.0
C3036 C 0.56439 0.53049 0.23377 0.0
H3037 H 0.51527 0.55849 0.34224 0.0
H3038 H 0.52681 0.54851 0.32133 0.0
C3039 C 0.56964 0.52322 0.2252 0.0
C3040 C 0.54788 0.53592 0.22383 0.0
H3041 H 0.55281 0.56512 0.23448 0.0
C3042 C 0.53555 0.52945 0.23613 0.0
C3043 C 0.55412 0.54894 0.22234 0.0
C3044 C 0.56714 0.55636 0.20724 0.0
C3045 C 0.52936 0.53564 0.24778 0.0
C3046 C 0.53576 0.54865 0.24801 0.0
C3047 C 0.548 0.55514 0.23481 0.0
C3048 C 0.52982 0.55563 0.26165 0.0
C3049 C 0.51597 0.52816 0.25929 0.0
C3050 C 0.52819 0.56339 0.23553 0.0
C3051 C 0.52169 0.56921 0.24752 0.0
C3052 C 0.51676 0.56735 0.28584 0.0
C3053 C 0.51888 0.56001 0.31243 0.0
C3054 C 0.52541 0.55425 0.30048 0.0
H3055 H 0.51163 0.51864 0.24744 0.0
H3056 H 0.51523 0.52756 0.29198 0.0
H3057 H 0.5107 0.53254 0.24846 0.0
H3058 H 0.5316 0.56463 0.20551 0.0
H3059 H 0.52022 0.57484 0.22643 0.0
loop_
_geom_bond_atom_site_label_1
_geom_bond_atom_site_label_2
_geom_bond_distance
_geom_bond_site_symmetry_2
_ccdc_geom_bond_type
In0 O1 2.294 . S
In0 O2 2.326 . S
In0 O6 2.266 . S
In0 O7 2.326 . S
In0 O8 2.266 . S
In0 O9 2.326 . S
In0 O11 2.294 . S
In0 O12 2.326 . S
O1 In0 2.294 . S
O1 C10 1.240 . S
O2 In0 2.326 . S
O2 C10 1.252 . S
C3 O6 1.252 . S
C3 O7 1.260 . S
C4 O11 1.240 . S
C4 O12 1.252 . S
C5 O8 1.252 . S
C5 O9 1.260 . S
O6 In0 2.266 . S
O6 C3 1.252 . S
O7 In0 2.326 . S
O7 C3 1.260 . S
O8 In0 2.266 . S
O8 C5 1.252 . S
O9 In0 2.326 . S
O9 C5 1.260 . S
C10 O1 1.240 . S
C10 O2 1.252 . S
O11 In0 2.294 . S
O11 C4 1.240 . S
O12 In0 2.326 . S
O12 C4 1.252 . S
In13 O14 2.294 . S
In13 O15 2.326 . S
In13 O19 2.266 . S
In13 O20 2.326 . S
In13 O21 2.266 . S
In13 O22 2.326 . S
In13 O24 2.294 . S
In13 O25 2.326 . S
O14 In13 2.294 . S
O14 C23 1.240 . S
O15 In13 2.326 . S
O15 C23 1.252 . S
C16 O19 1.252 . S
C16 O20 1.260 . S
C17 O24 1.240 . S
C17 O25 1.252 . S
C18 O21 1.252 . S
C18 O22 1.260 . S
O19 In13 2.266 . S
O19 C16 1.252 . S
O20 In13 2.326 . S
O20 C16 1.260 . S
O21 In13 2.266 . S
O21 C18 1.252 . S
O22 In13 2.326 . S
O22 C18 1.260 . S
C23 O14 1.240 . S
C23 O15 1.252 . S
O24 In13 2.294 . S
O24 C17 1.240 . S
O25 In13 2.326 . S
O25 C17 1.252 . S
In26 O27 2.294 . S
In26 O28 2.326 . S
In26 O32 2.266 . S
In26 O33 2.326 . S
In26 O34 2.266 . S
In26 O35 2.326 . S
In26 O37 2.294 . S
In26 O38 2.326 . S
O27 In26 2.294 . S
O27 C36 1.240 . S
O28 In26 2.326 . S
O28 C36 1.252 . S
C29 O32 1.252 . S
C29 O33 1.260 . S
C30 O37 1.240 . S
C30 O38 1.252 . S
C31 O34 1.252 . S
C31 O35 1.260 . S
O32 In26 2.266 . S
O32 C29 1.252 . S
O33 In26 2.326 . S
O33 C29 1.260 . S
O34 In26 2.266 . S
O34 C31 1.252 . S
O35 In26 2.326 . S
O35 C31 1.260 . S
C36 O27 1.240 . S
C36 O28 1.252 . S
O37 In26 2.294 . S
O37 C30 1.240 . S
O38 In26 2.326 . S
O38 C30 1.252 . S
In39 O40 2.294 . S
In39 O41 2.326 . S
In39 O45 2.266 . S
In39 O46 2.326 . S
In39 O47 2.266 . S
In39 O48 2.326 . S
In39 O50 2.294 . S
In39 O51 2.326 . S
O40 In39 2.294 . S
O40 C49 1.240 . S
O41 In39 2.326 . S
O41 C49 1.252 . S
C42 O45 1.252 . S
C42 O46 1.260 . S
C43 O50 1.240 . S
C43 O51 1.252 . S
C44 O47 1.252 . S
C44 O48 1.260 . S
O45 In39 2.266 . S
O45 C42 1.252 . S
O46 In39 2.326 . S
O46 C42 1.260 . S
O47 In39 2.266 . S
O47 C44 1.252 . S
O48 In39 2.326 . S
O48 C44 1.260 . S
C49 O40 1.240 . S
C49 O41 1.252 . S
O50 In39 2.294 . S
O50 C43 1.240 . S
O51 In39 2.326 . S
O51 C43 1.252 . S
In52 O53 2.294 . S
In52 O54 2.326 . S
In52 O58 2.266 . S
In52 O59 2.326 . S
In52 O60 2.266 . S
In52 O61 2.326 . S
In52 O63 2.294 . S
In52 O64 2.326 . S
O53 In52 2.294 . S
O53 C62 1.240 . S
O54 In52 2.326 . S
O54 C62 1.252 . S
C55 O58 1.252 . S
C55 O59 1.260 . S
C56 O63 1.240 . S
C56 O64 1.252 . S
C57 O60 1.252 . S
C57 O61 1.260 . S
O58 In52 2.266 . S
O58 C55 1.252 . S
O59 In52 2.326 . S
O59 C55 1.260 . S
O60 In52 2.266 . S
O60 C57 1.252 . S
O61 In52 2.326 . S
O61 C57 1.260 . S
C62 O53 1.240 . S
C62 O54 1.252 . S
O63 In52 2.294 . S
O63 C56 1.240 . S
O64 In52 2.326 . S
O64 C56 1.252 . S
In65 O66 2.294 . S
In65 O67 2.326 . S
In65 O71 2.266 . S
In65 O72 2.326 . S
In65 O73 2.266 . S
In65 O74 2.326 . S
In65 O76 2.294 . S
In65 O77 2.326 . S
O66 In65 2.294 . S
O66 C75 1.240 . S
O67 In65 2.326 . S
O67 C75 1.252 . S
C68 O71 1.252 . S
C68 O72 1.260 . S
C69 O76 1.240 . S
C69 O77 1.252 . S
C70 O73 1.252 . S
C70 O74 1.260 . S
O71 In65 2.266 . S
O71 C68 1.252 . S
O72 In65 2.326 . S
O72 C68 1.260 . S
O73 In65 2.266 . S
O73 C70 1.252 . S
O74 In65 2.326 . S
O74 C70 1.260 . S
C75 O66 1.240 . S
C75 O67 1.252 . S
O76 In65 2.294 . S
O76 C69 1.240 . S
O77 In65 2.326 . S
O77 C69 1.252 . S
In78 O79 2.294 . S
In78 O80 2.326 . S
In78 O84 2.266 . S
In78 O85 2.326 . S
In78 O86 2.266 . S
In78 O87 2.326 . S
In78 O89 2.294 . S
In78 O90 2.326 . S
O79 In78 2.294 . S
O79 C88 1.240 . S
O80 In78 2.326 . S
O80 C88 1.252 . S
C81 O84 1.252 . S
C81 O85 1.260 . S
C82 O89 1.240 . S
C82 O90 1.252 . S
C83 O86 1.252 . S
C83 O87 1.260 . S
O84 In78 2.266 . S
O84 C81 1.252 . S
O85 In78 2.326 . S
O85 C81 1.260 . S
O86 In78 2.266 . S
O86 C83 1.252 . S
O87 In78 2.326 . S
O87 C83 1.260 . S
C88 O79 1.240 . S
C88 O80 1.252 . S
O89 In78 2.294 . S
O89 C82 1.240 . S
O90 In78 2.326 . S
O90 C82 1.252 . S
In91 O92 2.294 . S
In91 O93 2.326 . S
In91 O97 2.266 . S
In91 O98 2.326 . S
In91 O99 2.266 . S
In91 O100 2.326 . S
In91 O102 2.294 . S
In91 O103 2.326 . S
O92 In91 2.294 . S
O92 C101 1.240 . S
O93 In91 2.326 . S
O93 C101 1.252 . S
C94 O97 1.252 . S
C94 O98 1.260 . S
C95 O102 1.240 . S
C95 O103 1.252 . S
C96 O99 1.252 . S
C96 O100 1.260 . S
O97 In91 2.266 . S
O97 C94 1.252 . S
O98 In91 2.326 . S
O98 C94 1.260 . S
O99 In91 2.266 . S
O99 C96 1.252 . S
O100 In91 2.326 . S
O100 C96 1.260 . S
C101 O92 1.240 . S
C101 O93 1.252 . S
O102 In91 2.294 . S
O102 C95 1.240 . S
O103 In91 2.326 . S
O103 C95 1.252 . S
In104 O105 2.294 . S
In104 O106 2.326 . S
In104 O110 2.266 . S
In104 O111 2.326 . S
In104 O112 2.266 . S
In104 O113 2.326 . S
In104 O115 2.294 . S
In104 O116 2.326 . S
O105 In104 2.294 . S
O105 C114 1.240 . S
O106 In104 2.326 . S
O106 C114 1.252 . S
C107 O110 1.252 . S
C107 O111 1.260 . S
C108 O115 1.240 . S
C108 O116 1.252 . S
C109 O112 1.252 . S
C109 O113 1.260 . S
O110 In104 2.266 . S
O110 C107 1.252 . S
O111 In104 2.326 . S
O111 C107 1.260 . S
O112 In104 2.266 . S
O112 C109 1.252 . S
O113 In104 2.326 . S
O113 C109 1.260 . S
C114 O105 1.240 . S
C114 O106 1.252 . S
O115 In104 2.294 . S
O115 C108 1.240 . S
O116 In104 2.326 . S
O116 C108 1.252 . S
In117 O118 2.294 . S
In117 O119 2.326 . S
In117 O123 2.266 . S
In117 O124 2.326 . S
In117 O125 2.266 . S
In117 O126 2.326 . S
In117 O128 2.294 . S
In117 O129 2.326 . S
O118 In117 2.294 . S
O118 C127 1.240 . S
O119 In117 2.326 . S
O119 C127 1.252 . S
C120 O123 1.252 . S
C120 O124 1.260 . S
C121 O128 1.240 . S
C121 O129 1.252 . S
C122 O125 1.252 . S
C122 O126 1.260 . S
O123 In117 2.266 . S
O123 C120 1.252 . S
O124 In117 2.326 . S
O124 C120 1.260 . S
O125 In117 2.266 . S
O125 C122 1.252 . S
O126 In117 2.326 . S
O126 C122 1.260 . S
C127 O118 1.240 . S
C127 O119 1.252 . S
O128 In117 2.294 . S
O128 C121 1.240 . S
O129 In117 2.326 . S
O129 C121 1.252 . S
In130 O131 2.294 . S
In130 O132 2.326 . S
In130 O136 2.266 . S
In130 O137 2.326 . S
In130 O138 2.266 . S
In130 O139 2.326 . S
In130 O141 2.294 . S
In130 O142 2.326 . S
O131 In130 2.294 . S
O131 C140 1.240 . S
O132 In130 2.326 . S
O132 C140 1.252 . S
C133 O136 1.252 . S
C133 O137 1.260 . S
C134 O141 1.240 . S
C134 O142 1.252 . S
C135 O138 1.252 . S
C135 O139 1.260 . S
O136 In130 2.266 . S
O136 C133 1.252 . S
O137 In130 2.326 . S
O137 C133 1.260 . S
O138 In130 2.266 . S
O138 C135 1.252 . S
O139 In130 2.326 . S
O139 C135 1.260 . S
C140 O131 1.240 . S
C140 O132 1.252 . S
O141 In130 2.294 . S
O141 C134 1.240 . S
O142 In130 2.326 . S
O142 C134 1.252 . S
In143 O144 2.294 . S
In143 O145 2.326 . S
In143 O149 2.266 . S
In143 O150 2.326 . S
In143 O151 2.266 . S
In143 O152 2.326 . S
In143 O154 2.294 . S
In143 O155 2.326 . S
O144 In143 2.294 . S
O144 C153 1.240 . S
O145 In143 2.326 . S
O145 C153 1.252 . S
C146 O149 1.252 . S
C146 O150 1.260 . S
C147 O154 1.240 . S
C147 O155 1.252 . S
C148 O151 1.252 . S
C148 O152 1.260 . S
O149 In143 2.266 . S
O149 C146 1.252 . S
O150 In143 2.326 . S
O150 C146 1.260 . S
O151 In143 2.266 . S
O151 C148 1.252 . S
O152 In143 2.326 . S
O152 C148 1.260 . S
C153 O144 1.240 . S
C153 O145 1.252 . S
O154 In143 2.294 . S
O154 C147 1.240 . S
O155 In143 2.326 . S
O155 C147 1.252 . S
In156 O157 2.294 . S
In156 O158 2.326 . S
In156 O162 2.266 . S
In156 O163 2.326 . S
In156 O164 2.266 . S
In156 O165 2.326 . S
In156 O167 2.294 . S
In156 O168 2.326 . S
O157 In156 2.294 . S
O157 C166 1.240 . S
O158 In156 2.326 . S
O158 C166 1.252 . S
C159 O162 1.252 . S
C159 O163 1.260 . S
C160 O167 1.240 . S
C160 O168 1.252 . S
C161 O164 1.252 . S
C161 O165 1.260 . S
O162 In156 2.266 . S
O162 C159 1.252 . S
O163 In156 2.326 . S
O163 C159 1.260 . S
O164 In156 2.266 . S
O164 C161 1.252 . S
O165 In156 2.326 . S
O165 C161 1.260 . S
C166 O157 1.240 . S
C166 O158 1.252 . S
O167 In156 2.294 . S
O167 C160 1.240 . S
O168 In156 2.326 . S
O168 C160 1.252 . S
In169 O170 2.294 . S
In169 O171 2.326 . S
In169 O175 2.266 . S
In169 O176 2.326 . S
In169 O177 2.266 . S
In169 O178 2.326 . S
In169 O180 2.294 . S
In169 O181 2.326 . S
O170 In169 2.294 . S
O170 C179 1.240 . S
O171 In169 2.326 . S
O171 C179 1.252 . S
C172 O175 1.252 . S
C172 O176 1.260 . S
C173 O180 1.240 . S
C173 O181 1.252 . S
C174 O177 1.252 . S
C174 O178 1.260 . S
O175 In169 2.266 . S
O175 C172 1.252 . S
O176 In169 2.326 . S
O176 C172 1.260 . S
O177 In169 2.266 . S
O177 C174 1.252 . S
O178 In169 2.326 . S
O178 C174 1.260 . S
C179 O170 1.240 . S
C179 O171 1.252 . S
O180 In169 2.294 . S
O180 C173 1.240 . S
O181 In169 2.326 . S
O181 C173 1.252 . S
In182 O183 2.294 . S
In182 O184 2.326 . S
In182 O188 2.266 . S
In182 O189 2.326 . S
In182 O190 2.266 . S
In182 O191 2.326 . S
In182 O193 2.294 . S
In182 O194 2.326 . S
O183 In182 2.294 . S
O183 C192 1.240 . S
O184 In182 2.326 . S
O184 C192 1.252 . S
C185 O188 1.252 . S
C185 O189 1.260 . S
C186 O193 1.240 . S
C186 O194 1.252 . S
C187 O190 1.252 . S
C187 O191 1.260 . S
O188 In182 2.266 . S
O188 C185 1.252 . S
O189 In182 2.326 . S
O189 C185 1.260 . S
O190 In182 2.266 . S
O190 C187 1.252 . S
O191 In182 2.326 . S
O191 C187 1.260 . S
C192 O183 1.240 . S
C192 O184 1.252 . S
O193 In182 2.294 . S
O193 C186 1.240 . S
O194 In182 2.326 . S
O194 C186 1.252 . S
In195 O196 2.294 . S
In195 O197 2.326 . S
In195 O201 2.266 . S
In195 O202 2.326 . S
In195 O203 2.266 . S
In195 O204 2.326 . S
In195 O206 2.294 . S
In195 O207 2.326 . S
O196 In195 2.294 . S
O196 C205 1.240 . S
O197 In195 2.326 . S
O197 C205 1.252 . S
C198 O201 1.252 . S
C198 O202 1.260 . S
C199 O206 1.240 . S
C199 O207 1.252 . S
C200 O203 1.252 . S
C200 O204 1.260 . S
O201 In195 2.266 . S
O201 C198 1.252 . S
O202 In195 2.326 . S
O202 C198 1.260 . S
O203 In195 2.266 . S
O203 C200 1.252 . S
O204 In195 2.326 . S
O204 C200 1.260 . S
C205 O196 1.240 . S
C205 O197 1.252 . S
O206 In195 2.294 . S
O206 C199 1.240 . S
O207 In195 2.326 . S
O207 C199 1.252 . S
In208 O209 2.294 . S
In208 O210 2.326 . S
In208 O214 2.266 . S
In208 O215 2.326 . S
In208 O216 2.266 . S
In208 O217 2.326 . S
In208 O219 2.294 . S
In208 O220 2.326 . S
O209 In208 2.294 . S
O209 C218 1.240 . S
O210 In208 2.326 . S
O210 C218 1.252 . S
C211 O214 1.252 . S
C211 O215 1.260 . S
C212 O219 1.240 . S
C212 O220 1.252 . S
C213 O216 1.252 . S
C213 O217 1.260 . S
O214 In208 2.266 . S
O214 C211 1.252 . S
O215 In208 2.326 . S
O215 C211 1.260 . S
O216 In208 2.266 . S
O216 C213 1.252 . S
O217 In208 2.326 . S
O217 C213 1.260 . S
C218 O209 1.240 . S
C218 O210 1.252 . S
O219 In208 2.294 . S
O219 C212 1.240 . S
O220 In208 2.326 . S
O220 C212 1.252 . S
In221 O222 2.294 . S
In221 O223 2.326 . S
In221 O227 2.266 . S
In221 O228 2.326 . S
In221 O229 2.266 . S
In221 O230 2.326 . S
In221 O232 2.294 . S
In221 O233 2.326 . S
O222 In221 2.294 . S
O222 C231 1.240 . S
O223 In221 2.326 . S
O223 C231 1.252 . S
C224 O227 1.252 . S
C224 O228 1.260 . S
C225 O232 1.240 . S
C225 O233 1.252 . S
C226 O229 1.252 . S
C226 O230 1.260 . S
O227 In221 2.266 . S
O227 C224 1.252 . S
O228 In221 2.326 . S
O228 C224 1.260 . S
O229 In221 2.266 . S
O229 C226 1.252 . S
O230 In221 2.326 . S
O230 C226 1.260 . S
C231 O222 1.240 . S
C231 O223 1.252 . S
O232 In221 2.294 . S
O232 C225 1.240 . S
O233 In221 2.326 . S
O233 C225 1.252 . S
In234 O235 2.294 . S
In234 O236 2.326 . S
In234 O240 2.266 . S
In234 O241 2.326 . S
In234 O242 2.266 . S
In234 O243 2.326 . S
In234 O245 2.294 . S
In234 O246 2.326 . S
O235 In234 2.294 . S
O235 C244 1.240 . S
O236 In234 2.326 . S
O236 C244 1.252 . S
C237 O240 1.252 . S
C237 O241 1.260 . S
C238 O245 1.240 . S
C238 O246 1.252 . S
C239 O242 1.252 . S
C239 O243 1.260 . S
O240 In234 2.266 . S
O240 C237 1.252 . S
O241 In234 2.326 . S
O241 C237 1.260 . S
O242 In234 2.266 . S
O242 C239 1.252 . S
O243 In234 2.326 . S
O243 C239 1.260 . S
C244 O235 1.240 . S
C244 O236 1.252 . S
O245 In234 2.294 . S
O245 C238 1.240 . S
O246 In234 2.326 . S
O246 C238 1.252 . S
In247 O248 2.294 . S
In247 O249 2.326 . S
In247 O253 2.266 . S
In247 O254 2.326 . S
In247 O255 2.266 . S
In247 O256 2.326 . S
In247 O258 2.294 . S
In247 O259 2.326 . S
O248 In247 2.294 . S
O248 C257 1.240 . S
O249 In247 2.326 . S
O249 C257 1.252 . S
C250 O253 1.252 . S
C250 O254 1.260 . S
C251 O258 1.240 . S
C251 O259 1.252 . S
C252 O255 1.252 . S
C252 O256 1.260 . S
O253 In247 2.266 . S
O253 C250 1.252 . S
O254 In247 2.326 . S
O254 C250 1.260 . S
O255 In247 2.266 . S
O255 C252 1.252 . S
O256 In247 2.326 . S
O256 C252 1.260 . S
C257 O248 1.240 . S
C257 O249 1.252 . S
O258 In247 2.294 . S
O258 C251 1.240 . S
O259 In247 2.326 . S
O259 C251 1.252 . S
In260 O261 2.294 . S
In260 O262 2.326 . S
In260 O266 2.266 . S
In260 O267 2.326 . S
In260 O268 2.266 . S
In260 O269 2.326 . S
In260 O271 2.294 . S
In260 O272 2.326 . S
O261 In260 2.294 . S
O261 C270 1.240 . S
O262 In260 2.326 . S
O262 C270 1.252 . S
C263 O266 1.252 . S
C263 O267 1.260 . S
C264 O271 1.240 . S
C264 O272 1.252 . S
C265 O268 1.252 . S
C265 O269 1.260 . S
O266 In260 2.266 . S
O266 C263 1.252 . S
O267 In260 2.326 . S
O267 C263 1.260 . S
O268 In260 2.266 . S
O268 C265 1.252 . S
O269 In260 2.326 . S
O269 C265 1.260 . S
C270 O261 1.240 . S
C270 O262 1.252 . S
O271 In260 2.294 . S
O271 C264 1.240 . S
O272 In260 2.326 . S
O272 C264 1.252 . S
In273 O274 2.297 . S
In273 O275 2.328 . S
In273 O279 2.266 1_554 S
In273 O280 2.323 1_554 S
In273 O281 2.263 1_554 S
In273 O282 2.324 1_554 S
In273 O284 2.294 . S
In273 O285 2.329 . S
O274 In273 2.297 . S
O274 C283 1.240 . S
O275 In273 2.328 . S
O275 C283 1.252 . S
C276 O279 1.252 . S
C276 O280 1.260 . S
C277 O284 1.240 . S
C277 O285 1.252 . S
C278 O281 1.252 . S
C278 O282 1.260 . S
O279 In273 2.266 1_556 S
O279 C276 1.252 . S
O280 In273 2.323 1_556 S
O280 C276 1.260 . S
O281 In273 2.263 1_556 S
O281 C278 1.252 . S
O282 In273 2.324 1_556 S
O282 C278 1.260 . S
C283 O274 1.240 . S
C283 O275 1.252 . S
O284 In273 2.294 . S
O284 C277 1.240 . S
O285 In273 2.329 . S
O285 C277 1.252 . S
In286 O287 2.294 . S
In286 O288 2.329 . S
In286 O292 2.263 1_554 S
In286 O293 2.324 1_554 S
In286 O294 2.266 1_554 S
In286 O295 2.323 1_554 S
In286 O297 2.297 . S
In286 O298 2.328 . S
O287 In286 2.294 . S
O287 C296 1.240 . S
O288 In286 2.329 . S
O288 C296 1.252 . S
C289 O292 1.252 . S
C289 O293 1.260 . S
C290 O297 1.240 . S
C290 O298 1.252 . S
C291 O294 1.252 . S
C291 O295 1.260 . S
O292 In286 2.263 1_556 S
O292 C289 1.252 . S
O293 In286 2.324 1_556 S
O293 C289 1.260 . S
O294 In286 2.266 1_556 S
O294 C291 1.252 . S
O295 In286 2.323 1_556 S
O295 C291 1.260 . S
C296 O287 1.240 . S
C296 O288 1.252 . S
O297 In286 2.297 . S
O297 C290 1.240 . S
O298 In286 2.328 . S
O298 C290 1.252 . S
In299 O300 2.294 . S
In299 O301 2.329 . S
In299 O305 2.263 1_554 S
In299 O306 2.324 1_554 S
In299 O307 2.266 1_554 S
In299 O308 2.323 1_554 S
In299 O310 2.297 . S
In299 O311 2.328 . S
O300 In299 2.294 . S
O300 C309 1.240 . S
O301 In299 2.329 . S
O301 C309 1.252 . S
C302 O305 1.252 . S
C302 O306 1.260 . S
C303 O310 1.240 . S
C303 O311 1.252 . S
C304 O307 1.252 . S
C304 O308 1.260 . S
O305 In299 2.263 1_556 S
O305 C302 1.252 . S
O306 In299 2.324 1_556 S
O306 C302 1.260 . S
O307 In299 2.266 1_556 S
O307 C304 1.252 . S
O308 In299 2.323 1_556 S
O308 C304 1.260 . S
C309 O300 1.240 . S
C309 O301 1.252 . S
O310 In299 2.297 . S
O310 C303 1.240 . S
O311 In299 2.328 . S
O311 C303 1.252 . S
In312 O313 2.294 . S
In312 O314 2.326 . S
In312 O318 2.266 . S
In312 O319 2.326 . S
In312 O320 2.266 . S
In312 O321 2.326 . S
In312 O323 2.294 . S
In312 O324 2.326 . S
O313 In312 2.294 . S
O313 C322 1.240 . S
O314 In312 2.326 . S
O314 C322 1.252 . S
C315 O318 1.252 . S
C315 O319 1.260 . S
C316 O323 1.240 . S
C316 O324 1.252 . S
C317 O320 1.252 . S
C317 O321 1.260 . S
O318 In312 2.266 . S
O318 C315 1.252 . S
O319 In312 2.326 . S
O319 C315 1.260 . S
O320 In312 2.266 . S
O320 C317 1.252 . S
O321 In312 2.326 . S
O321 C317 1.260 . S
C322 O313 1.240 . S
C322 O314 1.252 . S
O323 In312 2.294 . S
O323 C316 1.240 . S
O324 In312 2.326 . S
O324 C316 1.252 . S
In325 O326 2.294 . S
In325 O327 2.326 . S
In325 O331 2.266 . S
In325 O332 2.326 . S
In325 O333 2.266 . S
In325 O334 2.326 . S
In325 O336 2.294 . S
In325 O337 2.326 . S
O326 In325 2.294 . S
O326 C335 1.240 . S
O327 In325 2.326 . S
O327 C335 1.252 . S
C328 O331 1.252 . S
C328 O332 1.260 . S
C329 O336 1.240 . S
C329 O337 1.252 . S
C330 O333 1.252 . S
C330 O334 1.260 . S
O331 In325 2.266 . S
O331 C328 1.252 . S
O332 In325 2.326 . S
O332 C328 1.260 . S
O333 In325 2.266 . S
O333 C330 1.252 . S
O334 In325 2.326 . S
O334 C330 1.260 . S
C335 O326 1.240 . S
C335 O327 1.252 . S
O336 In325 2.294 . S
O336 C329 1.240 . S
O337 In325 2.326 . S
O337 C329 1.252 . S
In338 O339 2.294 . S
In338 O340 2.326 . S
In338 O344 2.266 . S
In338 O345 2.326 . S
In338 O346 2.266 . S
In338 O347 2.326 . S
In338 O349 2.294 . S
In338 O350 2.326 . S
O339 In338 2.294 . S
O339 C348 1.240 . S
O340 In338 2.326 . S
O340 C348 1.252 . S
C341 O344 1.252 . S
C341 O345 1.260 . S
C342 O349 1.240 . S
C342 O350 1.252 . S
C343 O346 1.252 . S
C343 O347 1.260 . S
O344 In338 2.266 . S
O344 C341 1.252 . S
O345 In338 2.326 . S
O345 C341 1.260 . S
O346 In338 2.266 . S
O346 C343 1.252 . S
O347 In338 2.326 . S
O347 C343 1.260 . S
C348 O339 1.240 . S
C348 O340 1.252 . S
O349 In338 2.294 . S
O349 C342 1.240 . S
O350 In338 2.326 . S
O350 C342 1.252 . S
In351 O352 2.294 . S
In351 O353 2.329 . S
In351 O357 2.263 1_556 S
In351 O358 2.324 1_556 S
In351 O359 2.266 1_556 S
In351 O360 2.323 1_556 S
In351 O362 2.297 . S
In351 O363 2.328 . S
O352 In351 2.294 . S
O352 C361 1.240 . S
O353 In351 2.329 . S
O353 C361 1.252 . S
C354 O357 1.252 . S
C354 O358 1.260 . S
C355 O362 1.240 . S
C355 O363 1.252 . S
C356 O359 1.252 . S
C356 O360 1.260 . S
O357 In351 2.263 1_554 S
O357 C354 1.252 . S
O358 In351 2.324 1_554 S
O358 C354 1.260 . S
O359 In351 2.266 1_554 S
O359 C356 1.252 . S
O360 In351 2.323 1_554 S
O360 C356 1.260 . S
C361 O352 1.240 . S
C361 O353 1.252 . S
O362 In351 2.297 . S
O362 C355 1.240 . S
O363 In351 2.328 . S
O363 C355 1.252 . S
In364 O365 2.297 . S
In364 O366 2.328 . S
In364 O370 2.266 1_556 S
In364 O371 2.323 1_556 S
In364 O372 2.263 1_556 S
In364 O373 2.324 1_556 S
In364 O375 2.294 . S
In364 O376 2.329 . S
O365 In364 2.297 . S
O365 C374 1.240 . S
O366 In364 2.328 . S
O366 C374 1.252 . S
C367 O370 1.252 . S
C367 O371 1.260 . S
C368 O375 1.240 . S
C368 O376 1.252 . S
C369 O372 1.252 . S
C369 O373 1.260 . S
O370 In364 2.266 1_554 S
O370 C367 1.252 . S
O371 In364 2.323 1_554 S
O371 C367 1.260 . S
O372 In364 2.263 1_554 S
O372 C369 1.252 . S
O373 In364 2.324 1_554 S
O373 C369 1.260 . S
C374 O365 1.240 . S
C374 O366 1.252 . S
O375 In364 2.294 . S
O375 C368 1.240 . S
O376 In364 2.329 . S
O376 C368 1.252 . S
In377 O378 2.297 . S
In377 O379 2.328 . S
In377 O383 2.266 1_556 S
In377 O384 2.323 1_556 S
In377 O385 2.263 1_556 S
In377 O386 2.324 1_556 S
In377 O388 2.294 . S
In377 O389 2.329 . S
O378 In377 2.297 . S
O378 C387 1.240 . S
O379 In377 2.328 . S
O379 C387 1.252 . S
C380 O383 1.252 . S
C380 O384 1.260 . S
C381 O388 1.240 . S
C381 O389 1.252 . S
C382 O385 1.252 . S
C382 O386 1.260 . S
O383 In377 2.266 1_554 S
O383 C380 1.252 . S
O384 In377 2.323 1_554 S
O384 C380 1.260 . S
O385 In377 2.263 1_554 S
O385 C382 1.252 . S
O386 In377 2.324 1_554 S
O386 C382 1.260 . S
C387 O378 1.240 . S
C387 O379 1.252 . S
O388 In377 2.294 . S
O388 C381 1.240 . S
O389 In377 2.329 . S
O389 C381 1.252 . S
In390 O391 2.294 . S
In390 O392 2.326 . S
In390 O396 2.266 . S
In390 O397 2.326 . S
In390 O398 2.266 . S
In390 O399 2.326 . S
In390 O401 2.294 . S
In390 O402 2.326 . S
O391 In390 2.294 . S
O391 C400 1.240 . S
O392 In390 2.326 . S
O392 C400 1.252 . S
C393 O396 1.252 . S
C393 O397 1.260 . S
C394 O401 1.240 . S
C394 O402 1.252 . S
C395 O398 1.252 . S
C395 O399 1.260 . S
O396 In390 2.266 . S
O396 C393 1.252 . S
O397 In390 2.326 . S
O397 C393 1.260 . S
O398 In390 2.266 . S
O398 C395 1.252 . S
O399 In390 2.326 . S
O399 C395 1.260 . S
C400 O391 1.240 . S
C400 O392 1.252 . S
O401 In390 2.294 . S
O401 C394 1.240 . S
O402 In390 2.326 . S
O402 C394 1.252 . S
In403 O404 2.294 . S
In403 O405 2.326 . S
In403 O409 2.266 . S
In403 O410 2.326 . S
In403 O411 2.266 . S
In403 O412 2.326 . S
In403 O414 2.294 . S
In403 O415 2.326 . S
O404 In403 2.294 . S
O404 C413 1.240 . S
O405 In403 2.326 . S
O405 C413 1.252 . S
C406 O409 1.252 . S
C406 O410 1.260 . S
C407 O414 1.240 . S
C407 O415 1.252 . S
C408 O411 1.252 . S
C408 O412 1.260 . S
O409 In403 2.266 . S
O409 C406 1.252 . S
O410 In403 2.326 . S
O410 C406 1.260 . S
O411 In403 2.266 . S
O411 C408 1.252 . S
O412 In403 2.326 . S
O412 C408 1.260 . S
C413 O404 1.240 . S
C413 O405 1.252 . S
O414 In403 2.294 . S
O414 C407 1.240 . S
O415 In403 2.326 . S
O415 C407 1.252 . S
In416 O417 2.294 . S
In416 O418 2.326 . S
In416 O422 2.266 . S
In416 O423 2.326 . S
In416 O424 2.266 . S
In416 O425 2.326 . S
In416 O427 2.294 . S
In416 O428 2.326 . S
O417 In416 2.294 . S
O417 C426 1.240 . S
O418 In416 2.326 . S
O418 C426 1.252 . S
C419 O422 1.252 . S
C419 O423 1.260 . S
C420 O427 1.240 . S
C420 O428 1.252 . S
C421 O424 1.252 . S
C421 O425 1.260 . S
O422 In416 2.266 . S
O422 C419 1.252 . S
O423 In416 2.326 . S
O423 C419 1.260 . S
O424 In416 2.266 . S
O424 C421 1.252 . S
O425 In416 2.326 . S
O425 C421 1.260 . S
C426 O417 1.240 . S
C426 O418 1.252 . S
O427 In416 2.294 . S
O427 C420 1.240 . S
O428 In416 2.326 . S
O428 C420 1.252 . S
In429 O430 2.294 . S
In429 O431 2.326 . S
In429 O435 2.266 . S
In429 O436 2.326 . S
In429 O437 2.266 . S
In429 O438 2.326 . S
In429 O440 2.294 . S
In429 O441 2.326 . S
O430 In429 2.294 . S
O430 C439 1.240 . S
O431 In429 2.326 . S
O431 C439 1.252 . S
C432 O435 1.252 . S
C432 O436 1.260 . S
C433 O440 1.240 . S
C433 O441 1.252 . S
C434 O437 1.252 . S
C434 O438 1.260 . S
O435 In429 2.266 . S
O435 C432 1.252 . S
O436 In429 2.326 . S
O436 C432 1.260 . S
O437 In429 2.266 . S
O437 C434 1.252 . S
O438 In429 2.326 . S
O438 C434 1.260 . S
C439 O430 1.240 . S
C439 O431 1.252 . S
O440 In429 2.294 . S
O440 C433 1.240 . S
O441 In429 2.326 . S
O441 C433 1.252 . S
In442 O443 2.294 . S
In442 O444 2.326 . S
In442 O448 2.266 . S
In442 O449 2.326 . S
In442 O450 2.266 . S
In442 O451 2.326 . S
In442 O453 2.294 . S
In442 O454 2.326 . S
O443 In442 2.294 . S
O443 C452 1.240 . S
O444 In442 2.326 . S
O444 C452 1.252 . S
C445 O448 1.252 . S
C445 O449 1.260 . S
C446 O453 1.240 . S
C446 O454 1.252 . S
C447 O450 1.252 . S
C447 O451 1.260 . S
O448 In442 2.266 . S
O448 C445 1.252 . S
O449 In442 2.326 . S
O449 C445 1.260 . S
O450 In442 2.266 . S
O450 C447 1.252 . S
O451 In442 2.326 . S
O451 C447 1.260 . S
C452 O443 1.240 . S
C452 O444 1.252 . S
O453 In442 2.294 . S
O453 C446 1.240 . S
O454 In442 2.326 . S
O454 C446 1.252 . S
In455 O456 2.294 . S
In455 O457 2.326 . S
In455 O461 2.266 . S
In455 O462 2.326 . S
In455 O463 2.266 . S
In455 O464 2.326 . S
In455 O466 2.294 . S
In455 O467 2.326 . S
O456 In455 2.294 . S
O456 C465 1.240 . S
O457 In455 2.326 . S
O457 C465 1.252 . S
C458 O461 1.252 . S
C458 O462 1.260 . S
C459 O466 1.240 . S
C459 O467 1.252 . S
C460 O463 1.252 . S
C460 O464 1.260 . S
O461 In455 2.266 . S
O461 C458 1.252 . S
O462 In455 2.326 . S
O462 C458 1.260 . S
O463 In455 2.266 . S
O463 C460 1.252 . S
O464 In455 2.326 . S
O464 C460 1.260 . S
C465 O456 1.240 . S
C465 O457 1.252 . S
O466 In455 2.294 . S
O466 C459 1.240 . S
O467 In455 2.326 . S
O467 C459 1.252 . S
H468 C476 0.929 . S
H469 C478 0.930 . S
H470 C480 0.930 . S
H471 C483 0.929 . S
H472 C486 0.930 . S
H473 C488 0.960 . S
H474 C488 0.960 . S
H475 C488 0.960 . S
C476 H468 0.929 . S
C476 C477 1.377 . S
C476 C478 1.384 . S
C477 C476 1.377 . S
C477 C483 1.390 . S
C478 H469 0.930 . S
C478 C476 1.384 . S
C478 C479 1.372 . S
C479 C478 1.372 . S
C479 C480 1.400 . S
C479 C484 1.490 . S
C480 H470 0.930 . S
C480 C479 1.400 . S
C480 C483 1.386 . S
H481 C497 0.930 . S
H482 C498 0.931 . S
C483 H471 0.929 . S
C483 C477 1.390 . S
C483 C480 1.386 . S
C484 C479 1.490 . S
C484 C486 1.395 . S
C484 C487 1.403 . S
H485 C491 0.930 . S
C486 H472 0.930 . S
C486 C484 1.395 . S
C486 C489 1.403 . S
C487 C484 1.403 . S
C487 C488 1.524 . S
C487 C491 1.400 . S
C488 H473 0.960 . S
C488 H474 0.960 . S
C488 H475 0.960 . S
C488 C487 1.524 . S
C489 C486 1.403 . S
C489 C490 1.392 . S
C489 C493 1.495 . S
C490 C489 1.392 . S
C490 C491 1.385 . S
C490 C492 1.478 . S
C491 H485 0.930 . S
C491 C487 1.400 . S
C491 C490 1.385 . S
C492 C490 1.478 . S
C492 C494 1.381 . S
C492 C498 1.383 . S
C493 C489 1.495 . S
C493 H499 0.959 . S
C493 H500 0.961 . S
C493 H501 0.960 . S
C494 C492 1.381 . S
C494 C495 1.394 . S
C494 H502 0.930 . S
C495 C494 1.394 . S
C495 C496 1.383 . S
C495 H503 0.929 . S
C496 C495 1.383 . S
C496 C497 1.377 . S
C497 H481 0.930 . S
C497 C496 1.377 . S
C497 C498 1.379 . S
C498 H482 0.931 . S
C498 C492 1.383 . S
C498 C497 1.379 . S
H499 C493 0.959 . S
H500 C493 0.961 . S
H501 C493 0.960 . S
H502 C494 0.930 . S
H503 C495 0.929 . S
H504 C512 0.929 . S
H505 C514 0.930 . S
H506 C516 0.930 . S
H507 C519 0.929 . S
H508 C522 0.930 . S
H509 C524 0.960 . S
H510 C524 0.960 . S
H511 C524 0.960 . S
C512 H504 0.929 . S
C512 C513 1.377 . S
C512 C514 1.384 . S
C513 C512 1.377 . S
C513 C519 1.390 . S
C514 H505 0.930 . S
C514 C512 1.384 . S
C514 C515 1.372 . S
C515 C514 1.372 . S
C515 C516 1.400 . S
C515 C520 1.490 . S
C516 H506 0.930 . S
C516 C515 1.400 . S
C516 C519 1.386 . S
H517 C533 0.930 . S
H518 C534 0.931 . S
C519 H507 0.929 . S
C519 C513 1.390 . S
C519 C516 1.386 . S
C520 C515 1.490 . S
C520 C522 1.395 . S
C520 C523 1.403 . S
H521 C527 0.930 . S
C522 H508 0.930 . S
C522 C520 1.395 . S
C522 C525 1.403 1_545 S
C523 C520 1.403 . S
C523 C524 1.524 . S
C523 C527 1.400 1_545 S
C524 H509 0.960 . S
C524 H510 0.960 . S
C524 H511 0.960 . S
C524 C523 1.524 . S
C525 C522 1.403 1_565 S
C525 C526 1.392 . S
C525 C529 1.495 . S
C526 C525 1.392 . S
C526 C527 1.385 . S
C526 C528 1.478 . S
C527 H521 0.930 . S
C527 C523 1.400 1_565 S
C527 C526 1.385 . S
C528 C526 1.478 . S
C528 C530 1.381 . S
C528 C534 1.383 . S
C529 C525 1.495 . S
C529 H535 0.959 . S
C529 H536 0.961 . S
C529 H537 0.960 . S
C530 C528 1.381 . S
C530 C531 1.394 . S
C530 H538 0.930 . S
C531 C530 1.394 . S
C531 C532 1.383 . S
C531 H539 0.929 . S
C532 C531 1.383 . S
C532 C533 1.377 . S
C533 H517 0.930 . S
C533 C532 1.377 . S
C533 C534 1.379 . S
C534 H518 0.931 . S
C534 C528 1.383 . S
C534 C533 1.379 . S
H535 C529 0.959 . S
H536 C529 0.961 . S
H537 C529 0.960 . S
H538 C530 0.930 . S
H539 C531 0.929 . S
H540 C548 0.929 . S
H541 C550 0.930 . S
H542 C552 0.930 . S
H543 C555 0.929 . S
H544 C558 0.930 . S
H545 C560 0.960 . S
H546 C560 0.960 . S
H547 C560 0.960 . S
C548 H540 0.929 . S
C548 C549 1.377 . S
C548 C550 1.384 . S
C549 C548 1.377 . S
C549 C555 1.390 . S
C550 H541 0.930 . S
C550 C548 1.384 . S
C550 C551 1.372 . S
C551 C550 1.372 . S
C551 C552 1.400 . S
C551 C556 1.490 . S
C552 H542 0.930 . S
C552 C551 1.400 . S
C552 C555 1.386 . S
H553 C569 0.930 . S
H554 C570 0.931 . S
C555 H543 0.929 . S
C555 C549 1.390 . S
C555 C552 1.386 . S
C556 C551 1.490 . S
C556 C558 1.395 . S
C556 C559 1.403 . S
H557 C563 0.930 . S
C558 H544 0.930 . S
C558 C556 1.395 . S
C558 C561 1.403 1_655 S
C559 C556 1.403 . S
C559 C560 1.524 . S
C559 C563 1.400 1_655 S
C560 H545 0.960 . S
C560 H546 0.960 . S
C560 H547 0.960 . S
C560 C559 1.524 . S
C561 C558 1.403 1_455 S
C561 C562 1.392 . S
C561 C565 1.495 . S
C562 C561 1.392 . S
C562 C563 1.385 . S
C562 C564 1.478 . S
C563 H557 0.930 . S
C563 C559 1.400 1_455 S
C563 C562 1.385 . S
C564 C562 1.478 . S
C564 C566 1.381 . S
C564 C570 1.383 . S
C565 C561 1.495 . S
C565 H571 0.959 . S
C565 H572 0.961 . S
C565 H573 0.960 . S
C566 C564 1.381 . S
C566 C567 1.394 . S
C566 H574 0.930 . S
C567 C566 1.394 . S
C567 C568 1.383 . S
C567 H575 0.929 . S
C568 C567 1.383 . S
C568 C569 1.377 . S
C569 H553 0.930 . S
C569 C568 1.377 . S
C569 C570 1.379 . S
C570 H554 0.931 . S
C570 C564 1.383 . S
C570 C569 1.379 . S
H571 C565 0.959 . S
H572 C565 0.961 . S
H573 C565 0.960 . S
H574 C566 0.930 . S
H575 C567 0.929 . S
H576 C584 0.929 . S
H577 C586 0.930 . S
H578 C588 0.930 . S
H579 C591 0.929 . S
H580 C594 0.930 . S
H581 C596 0.960 . S
H582 C596 0.960 . S
H583 C596 0.960 . S
C584 H576 0.929 . S
C584 C585 1.377 . S
C584 C586 1.384 . S
C585 C584 1.377 . S
C585 C591 1.390 . S
C586 H577 0.930 . S
C586 C584 1.384 . S
C586 C587 1.372 . S
C587 C586 1.372 . S
C587 C588 1.400 . S
C587 C592 1.490 . S
C588 H578 0.930 . S
C588 C587 1.400 . S
C588 C591 1.386 . S
H589 C605 0.930 . S
H590 C606 0.931 . S
C591 H579 0.929 . S
C591 C585 1.390 . S
C591 C588 1.386 . S
C592 C587 1.490 . S
C592 C594 1.395 . S
C592 C595 1.403 . S
H593 C599 0.930 . S
C594 H580 0.930 . S
C594 C592 1.395 . S
C594 C597 1.403 . S
C595 C592 1.403 . S
C595 C596 1.524 . S
C595 C599 1.400 . S
C596 H581 0.960 . S
C596 H582 0.960 . S
C596 H583 0.960 . S
C596 C595 1.524 . S
C597 C594 1.403 . S
C597 C598 1.392 . S
C597 C601 1.495 . S
C598 C597 1.392 . S
C598 C599 1.385 . S
C598 C600 1.478 . S
C599 H593 0.930 . S
C599 C595 1.400 . S
C599 C598 1.385 . S
C600 C598 1.478 . S
C600 C602 1.381 . S
C600 C606 1.383 . S
C601 C597 1.495 . S
C601 H607 0.959 . S
C601 H608 0.961 . S
C601 H609 0.960 . S
C602 C600 1.381 . S
C602 C603 1.394 . S
C602 H610 0.930 . S
C603 C602 1.394 . S
C603 C604 1.383 . S
C603 H611 0.929 . S
C604 C603 1.383 . S
C604 C605 1.377 . S
C605 H589 0.930 . S
C605 C604 1.377 . S
C605 C606 1.379 . S
C606 H590 0.931 . S
C606 C600 1.383 . S
C606 C605 1.379 . S
H607 C601 0.959 . S
H608 C601 0.961 . S
H609 C601 0.960 . S
H610 C602 0.930 . S
H611 C603 0.929 . S
H612 C620 0.929 . S
H613 C622 0.930 . S
H614 C624 0.930 . S
H615 C627 0.929 . S
H616 C630 0.930 . S
H617 C632 0.960 1_565 S
H618 C632 0.960 . S
H619 C632 0.960 . S
C620 H612 0.929 . S
C620 C621 1.377 . S
C620 C622 1.384 . S
C621 C620 1.377 . S
C621 C627 1.390 . S
C622 H613 0.930 . S
C622 C620 1.384 . S
C622 C623 1.372 . S
C623 C622 1.372 . S
C623 C624 1.400 . S
C623 C628 1.490 . S
C624 H614 0.930 . S
C624 C623 1.400 . S
C624 C627 1.386 . S
H625 C641 0.930 . S
H626 C642 0.931 . S
C627 H615 0.929 . S
C627 C621 1.390 . S
C627 C624 1.386 . S
C628 C623 1.490 . S
C628 C630 1.395 . S
C628 C631 1.403 . S
H629 C635 0.930 . S
C630 H616 0.930 . S
C630 C628 1.395 . S
C630 C633 1.403 1_545 S
C631 C628 1.403 . S
C631 C632 1.524 . S
C631 C635 1.400 1_545 S
C632 H617 0.960 1_545 S
C632 H618 0.960 . S
C632 H619 0.960 . S
C632 C631 1.524 . S
C633 C630 1.403 1_565 S
C633 C634 1.392 . S
C633 C637 1.495 . S
C634 C633 1.392 . S
C634 C635 1.385 . S
C634 C636 1.478 . S
C635 H629 0.930 . S
C635 C631 1.400 1_565 S
C635 C634 1.385 . S
C636 C634 1.478 . S
C636 C638 1.381 . S
C636 C642 1.383 . S
C637 C633 1.495 . S
C637 H643 0.959 1_565 S
C637 H644 0.961 . S
C637 H645 0.960 . S
C638 C636 1.381 . S
C638 C639 1.394 . S
C638 H646 0.930 . S
C639 C638 1.394 . S
C639 C640 1.383 . S
C639 H647 0.929 . S
C640 C639 1.383 . S
C640 C641 1.377 . S
C641 H625 0.930 . S
C641 C640 1.377 . S
C641 C642 1.379 . S
C642 H626 0.931 . S
C642 C636 1.383 . S
C642 C641 1.379 . S
H643 C637 0.959 1_545 S
H644 C637 0.961 . S
H645 C637 0.960 . S
H646 C638 0.930 . S
H647 C639 0.929 . S
H648 C656 0.929 . S
H649 C658 0.930 . S
H650 C660 0.930 . S
H651 C663 0.929 . S
H652 C666 0.930 . S
H653 C668 0.960 . S
H654 C668 0.960 . S
H655 C668 0.960 . S
C656 H648 0.929 . S
C656 C657 1.377 . S
C656 C658 1.384 . S
C657 C656 1.377 . S
C657 C663 1.390 . S
C658 H649 0.930 . S
C658 C656 1.384 . S
C658 C659 1.372 . S
C659 C658 1.372 . S
C659 C660 1.400 . S
C659 C664 1.490 . S
C660 H650 0.930 . S
C660 C659 1.400 . S
C660 C663 1.386 . S
H661 C677 0.930 . S
H662 C678 0.931 . S
C663 H651 0.929 . S
C663 C657 1.390 . S
C663 C660 1.386 . S
C664 C659 1.490 . S
C664 C666 1.395 . S
C664 C667 1.403 . S
H665 C671 0.930 . S
C666 H652 0.930 . S
C666 C664 1.395 . S
C666 C669 1.403 1_455 S
C667 C664 1.403 . S
C667 C668 1.524 . S
C667 C671 1.400 1_455 S
C668 H653 0.960 . S
C668 H654 0.960 . S
C668 H655 0.960 . S
C668 C667 1.524 . S
C669 C666 1.403 1_655 S
C669 C670 1.392 . S
C669 C673 1.495 . S
C670 C669 1.392 . S
C670 C671 1.385 . S
C670 C672 1.478 . S
C671 H665 0.930 . S
C671 C667 1.400 1_655 S
C671 C670 1.385 . S
C672 C670 1.478 . S
C672 C674 1.381 . S
C672 C678 1.383 . S
C673 C669 1.495 . S
C673 H679 0.959 . S
C673 H680 0.961 . S
C673 H681 0.960 . S
C674 C672 1.381 . S
C674 C675 1.394 . S
C674 H682 0.930 . S
C675 C674 1.394 . S
C675 C676 1.383 . S
C675 H683 0.929 . S
C676 C675 1.383 . S
C676 C677 1.377 . S
C677 H661 0.930 . S
C677 C676 1.377 . S
C677 C678 1.379 . S
C678 H662 0.931 . S
C678 C672 1.383 . S
C678 C677 1.379 . S
H679 C673 0.959 . S
H680 C673 0.961 . S
H681 C673 0.960 . S
H682 C674 0.930 . S
H683 C675 0.929 . S
H684 C692 0.929 . S
H685 C694 0.930 . S
H686 C696 0.930 . S
H687 C699 0.929 . S
H688 C702 0.930 . S
H689 C704 0.960 . S
H690 C704 0.960 . S
H691 C704 0.960 . S
C692 H684 0.929 . S
C692 C693 1.377 . S
C692 C694 1.384 . S
C693 C692 1.377 . S
C693 C699 1.390 . S
C694 H685 0.930 . S
C694 C692 1.384 . S
C694 C695 1.372 . S
C695 C694 1.372 . S
C695 C696 1.400 . S
C695 C700 1.490 . S
C696 H686 0.930 . S
C696 C695 1.400 . S
C696 C699 1.386 . S
H697 C713 0.930 . S
H698 C714 0.931 . S
C699 H687 0.929 . S
C699 C693 1.390 . S
C699 C696 1.386 . S
C700 C695 1.490 . S
C700 C702 1.395 . S
C700 C703 1.403 . S
H701 C707 0.930 . S
C702 H688 0.930 . S
C702 C700 1.395 . S
C702 C705 1.403 . S
C703 C700 1.403 . S
C703 C704 1.524 . S
C703 C707 1.400 . S
C704 H689 0.960 . S
C704 H690 0.960 . S
C704 H691 0.960 . S
C704 C703 1.524 . S
C705 C702 1.403 . S
C705 C706 1.392 . S
C705 C709 1.495 . S
C706 C705 1.392 . S
C706 C707 1.385 . S
C706 C708 1.478 . S
C707 H701 0.930 . S
C707 C703 1.400 . S
C707 C706 1.385 . S
C708 C706 1.478 . S
C708 C710 1.381 . S
C708 C714 1.383 . S
C709 C705 1.495 . S
C709 H715 0.959 . S
C709 H716 0.961 . S
C709 H717 0.960 . S
C710 C708 1.381 . S
C710 C711 1.394 . S
C710 H718 0.930 . S
C711 C710 1.394 . S
C711 C712 1.383 . S
C711 H719 0.929 . S
C712 C711 1.383 . S
C712 C713 1.377 . S
C713 H697 0.930 . S
C713 C712 1.377 . S
C713 C714 1.379 . S
C714 H698 0.931 . S
C714 C708 1.383 . S
C714 C713 1.379 . S
H715 C709 0.959 . S
H716 C709 0.961 . S
H717 C709 0.960 . S
H718 C710 0.930 . S
H719 C711 0.929 . S
H720 C728 0.929 . S
H721 C730 0.930 . S
H722 C732 0.930 . S
H723 C735 0.929 . S
H724 C738 0.930 . S
H725 C740 0.960 . S
H726 C740 0.960 . S
H727 C740 0.960 . S
C728 H720 0.929 . S
C728 C729 1.377 . S
C728 C730 1.384 . S
C729 C728 1.377 . S
C729 C735 1.390 . S
C730 H721 0.930 . S
C730 C728 1.384 . S
C730 C731 1.372 . S
C731 C730 1.372 . S
C731 C732 1.400 . S
C731 C736 1.490 . S
C732 H722 0.930 . S
C732 C731 1.400 . S
C732 C735 1.386 . S
H733 C749 0.930 . S
H734 C750 0.931 . S
C735 H723 0.929 . S
C735 C729 1.390 . S
C735 C732 1.386 . S
C736 C731 1.490 . S
C736 C738 1.395 . S
C736 C739 1.403 . S
H737 C743 0.930 . S
C738 H724 0.930 . S
C738 C736 1.395 . S
C738 C741 1.403 . S
C739 C736 1.403 . S
C739 C740 1.524 . S
C739 C743 1.400 . S
C740 H725 0.960 . S
C740 H726 0.960 . S
C740 H727 0.960 . S
C740 C739 1.524 . S
C741 C738 1.403 . S
C741 C742 1.392 . S
C741 C745 1.495 . S
C742 C741 1.392 . S
C742 C743 1.385 . S
C742 C744 1.478 . S
C743 H737 0.930 . S
C743 C739 1.400 . S
C743 C742 1.385 . S
C744 C742 1.478 . S
C744 C746 1.381 . S
C744 C750 1.383 . S
C745 C741 1.495 . S
C745 H751 0.959 . S
C745 H752 0.961 . S
C745 H753 0.960 . S
C746 C744 1.381 . S
C746 C747 1.394 . S
C746 H754 0.930 . S
C747 C746 1.394 . S
C747 C748 1.383 . S
C747 H755 0.929 . S
C748 C747 1.383 . S
C748 C749 1.377 . S
C749 H733 0.930 . S
C749 C748 1.377 . S
C749 C750 1.379 . S
C750 H734 0.931 . S
C750 C744 1.383 . S
C750 C749 1.379 . S
H751 C745 0.959 . S
H752 C745 0.961 . S
H753 C745 0.960 . S
H754 C746 0.930 . S
H755 C747 0.929 . S
H756 C764 0.929 . S
H757 C766 0.930 . S
H758 C768 0.930 . S
H759 C771 0.929 . S
H760 C774 0.930 . S
H761 C776 0.960 . S
H762 C776 0.960 . S
H763 C776 0.960 . S
C764 H756 0.929 . S
C764 C765 1.377 . S
C764 C766 1.384 . S
C765 C764 1.377 . S
C765 C771 1.390 . S
C766 H757 0.930 . S
C766 C764 1.384 . S
C766 C767 1.372 . S
C767 C766 1.372 . S
C767 C768 1.400 . S
C767 C772 1.490 . S
C768 H758 0.930 . S
C768 C767 1.400 . S
C768 C771 1.386 . S
H769 C785 0.930 . S
H770 C786 0.931 . S
C771 H759 0.929 . S
C771 C765 1.390 . S
C771 C768 1.386 . S
C772 C767 1.490 . S
C772 C774 1.395 . S
C772 C775 1.403 . S
H773 C779 0.930 . S
C774 H760 0.930 . S
C774 C772 1.395 . S
C774 C777 1.403 . S
C775 C772 1.403 . S
C775 C776 1.524 . S
C775 C779 1.400 . S
C776 H761 0.960 . S
C776 H762 0.960 . S
C776 H763 0.960 . S
C776 C775 1.524 . S
C777 C774 1.403 . S
C777 C778 1.392 . S
C777 C781 1.495 . S
C778 C777 1.392 . S
C778 C779 1.385 . S
C778 C780 1.478 . S
C779 H773 0.930 . S
C779 C775 1.400 . S
C779 C778 1.385 . S
C780 C778 1.478 . S
C780 C782 1.381 . S
C780 C786 1.383 . S
C781 C777 1.495 . S
C781 H787 0.959 . S
C781 H788 0.961 . S
C781 H789 0.960 . S
C782 C780 1.381 . S
C782 C783 1.394 . S
C782 H790 0.930 . S
C783 C782 1.394 . S
C783 C784 1.383 . S
C783 H791 0.929 . S
C784 C783 1.383 . S
C784 C785 1.377 . S
C785 H769 0.930 . S
C785 C784 1.377 . S
C785 C786 1.379 . S
C786 H770 0.931 . S
C786 C780 1.383 . S
C786 C785 1.379 . S
H787 C781 0.959 . S
H788 C781 0.961 . S
H789 C781 0.960 . S
H790 C782 0.930 . S
H791 C783 0.929 . S
H792 C800 0.929 . S
H793 C802 0.930 . S
H794 C804 0.930 . S
H795 C807 0.929 . S
H796 C810 0.930 . S
H797 C812 0.960 . S
H798 C812 0.960 . S
H799 C812 0.960 . S
C800 H792 0.929 . S
C800 C801 1.377 . S
C800 C802 1.384 . S
C801 C800 1.377 . S
C801 C807 1.390 . S
C802 H793 0.930 . S
C802 C800 1.384 . S
C802 C803 1.372 . S
C803 C802 1.372 . S
C803 C804 1.400 . S
C803 C808 1.490 . S
C804 H794 0.930 . S
C804 C803 1.400 . S
C804 C807 1.386 . S
H805 C821 0.930 . S
H806 C822 0.931 . S
C807 H795 0.929 . S
C807 C801 1.390 . S
C807 C804 1.386 . S
C808 C803 1.490 . S
C808 C810 1.395 . S
C808 C811 1.403 . S
H809 C815 0.930 . S
C810 H796 0.930 . S
C810 C808 1.395 . S
C810 C813 1.403 . S
C811 C808 1.403 . S
C811 C812 1.524 . S
C811 C815 1.400 . S
C812 H797 0.960 . S
C812 H798 0.960 . S
C812 H799 0.960 . S
C812 C811 1.524 . S
C813 C810 1.403 . S
C813 C814 1.392 . S
C813 C817 1.495 1_554 S
C814 C813 1.392 . S
C814 C815 1.385 . S
C814 C816 1.478 . S
C815 H809 0.930 . S
C815 C811 1.400 . S
C815 C814 1.385 . S
C816 C814 1.478 . S
C816 C818 1.381 . S
C816 C822 1.383 . S
C817 C813 1.495 1_556 S
C817 H823 0.959 . S
C817 H824 0.961 . S
C817 H825 0.960 . S
C818 C816 1.381 . S
C818 C819 1.394 . S
C818 H826 0.930 . S
C819 C818 1.394 . S
C819 C820 1.383 . S
C819 H827 0.929 . S
C820 C819 1.383 . S
C820 C821 1.377 . S
C821 H805 0.930 . S
C821 C820 1.377 . S
C821 C822 1.379 . S
C822 H806 0.931 . S
C822 C816 1.383 . S
C822 C821 1.379 . S
H823 C817 0.959 . S
H824 C817 0.961 . S
H825 C817 0.960 . S
H826 C818 0.930 . S
H827 C819 0.929 . S
H828 C836 0.929 . S
H829 C838 0.930 . S
H830 C840 0.930 . S
H831 C843 0.929 . S
H832 C846 0.930 . S
H833 C848 0.960 . S
H834 C848 0.960 . S
H835 C848 0.960 . S
C836 H828 0.929 . S
C836 C837 1.377 . S
C836 C838 1.384 . S
C837 C836 1.377 . S
C837 C843 1.390 . S
C838 H829 0.930 . S
C838 C836 1.384 . S
C838 C839 1.372 . S
C839 C838 1.372 . S
C839 C840 1.400 . S
C839 C844 1.490 . S
C840 H830 0.930 . S
C840 C839 1.400 . S
C840 C843 1.386 . S
H841 C857 0.930 . S
H842 C858 0.931 . S
C843 H831 0.929 . S
C843 C837 1.390 . S
C843 C840 1.386 . S
C844 C839 1.490 . S
C844 C846 1.395 . S
C844 C847 1.403 . S
H845 C851 0.930 . S
C846 H832 0.930 . S
C846 C844 1.395 . S
C846 C849 1.403 . S
C847 C844 1.403 . S
C847 C848 1.524 . S
C847 C851 1.400 . S
C848 H833 0.960 . S
C848 H834 0.960 . S
C848 H835 0.960 . S
C848 C847 1.524 . S
C849 C846 1.403 . S
C849 C850 1.392 . S
C849 C853 1.495 . S
C850 C849 1.392 . S
C850 C851 1.385 . S
C850 C852 1.478 . S
C851 H845 0.930 . S
C851 C847 1.400 . S
C851 C850 1.385 . S
C852 C850 1.478 . S
C852 C854 1.381 . S
C852 C858 1.383 . S
C853 C849 1.495 . S
C853 H859 0.959 . S
C853 H860 0.961 . S
C853 H861 0.960 . S
C854 C852 1.381 . S
C854 C855 1.394 . S
C854 H862 0.930 . S
C855 C854 1.394 . S
C855 C856 1.383 . S
C855 H863 0.929 . S
C856 C855 1.383 . S
C856 C857 1.377 . S
C857 H841 0.930 . S
C857 C856 1.377 . S
C857 C858 1.379 . S
C858 H842 0.931 . S
C858 C852 1.383 . S
C858 C857 1.379 . S
H859 C853 0.959 . S
H860 C853 0.961 . S
H861 C853 0.960 . S
H862 C854 0.930 . S
H863 C855 0.929 . S
H864 C872 0.929 . S
H865 C874 0.930 . S
H866 C876 0.930 . S
H867 C879 0.929 . S
H868 C882 0.930 . S
H869 C884 0.960 1_556 S
H870 C884 0.960 . S
H871 C884 0.960 . S
C872 H864 0.929 . S
C872 C873 1.377 . S
C872 C874 1.384 . S
C873 C872 1.377 . S
C873 C879 1.390 . S
C874 H865 0.930 . S
C874 C872 1.384 . S
C874 C875 1.372 . S
C875 C874 1.372 . S
C875 C876 1.400 . S
C875 C880 1.490 . S
C876 H866 0.930 . S
C876 C875 1.400 . S
C876 C879 1.386 . S
H877 C893 0.930 . S
H878 C894 0.931 . S
C879 H867 0.929 . S
C879 C873 1.390 . S
C879 C876 1.386 . S
C880 C875 1.490 . S
C880 C882 1.395 . S
C880 C883 1.403 . S
H881 C887 0.930 . S
C882 H868 0.930 . S
C882 C880 1.395 . S
C882 C885 1.403 . S
C883 C880 1.403 . S
C883 C884 1.524 . S
C883 C887 1.400 . S
C884 H869 0.960 1_554 S
C884 H870 0.960 . S
C884 H871 0.960 . S
C884 C883 1.524 . S
C885 C882 1.403 . S
C885 C886 1.392 . S
C885 C889 1.495 . S
C886 C885 1.392 . S
C886 C887 1.385 . S
C886 C888 1.478 . S
C887 H881 0.930 . S
C887 C883 1.400 . S
C887 C886 1.385 . S
C888 C886 1.478 . S
C888 C890 1.381 . S
C888 C894 1.383 . S
C889 C885 1.495 . S
C889 H895 0.959 . S
C889 H896 0.961 . S
C889 H897 0.960 . S
C890 C888 1.381 . S
C890 C891 1.394 . S
C890 H898 0.930 . S
C891 C890 1.394 . S
C891 C892 1.383 . S
C891 H899 0.929 . S
C892 C891 1.383 . S
C892 C893 1.377 . S
C893 H877 0.930 . S
C893 C892 1.377 . S
C893 C894 1.379 . S
C894 H878 0.931 . S
C894 C888 1.383 . S
C894 C893 1.379 . S
H895 C889 0.959 . S
H896 C889 0.961 . S
H897 C889 0.960 . S
H898 C890 0.930 . S
H899 C891 0.929 . S
H900 C908 0.929 . S
H901 C910 0.930 . S
H902 C912 0.930 . S
H903 C915 0.929 . S
H904 C918 0.930 . S
H905 C920 0.960 . S
H906 C920 0.960 . S
H907 C920 0.960 . S
C908 H900 0.929 . S
C908 C909 1.377 . S
C908 C910 1.384 . S
C909 C908 1.377 . S
C909 C915 1.390 . S
C910 H901 0.930 . S
C910 C908 1.384 . S
C910 C911 1.372 . S
C911 C910 1.372 . S
C911 C912 1.400 . S
C911 C916 1.490 . S
C912 H902 0.930 . S
C912 C911 1.400 . S
C912 C915 1.386 . S
H913 C929 0.930 . S
H914 C930 0.931 . S
C915 H903 0.929 . S
C915 C909 1.390 . S
C915 C912 1.386 . S
C916 C911 1.490 . S
C916 C918 1.395 . S
C916 C919 1.403 . S
H917 C923 0.930 . S
C918 H904 0.930 . S
C918 C916 1.395 . S
C918 C921 1.403 . S
C919 C916 1.403 . S
C919 C920 1.524 . S
C919 C923 1.400 . S
C920 H905 0.960 . S
C920 H906 0.960 . S
C920 H907 0.960 . S
C920 C919 1.524 . S
C921 C918 1.403 . S
C921 C922 1.392 . S
C921 C925 1.495 . S
C922 C921 1.392 . S
C922 C923 1.385 . S
C922 C924 1.478 . S
C923 H917 0.930 . S
C923 C919 1.400 . S
C923 C922 1.385 . S
C924 C922 1.478 . S
C924 C926 1.381 . S
C924 C930 1.383 . S
C925 C921 1.495 . S
C925 H931 0.959 . S
C925 H932 0.961 . S
C925 H933 0.960 . S
C926 C924 1.381 . S
C926 C927 1.394 . S
C926 H934 0.930 1_556 S
C927 C926 1.394 . S
C927 C928 1.383 . S
C927 H935 0.929 1_556 S
C928 C927 1.383 . S
C928 C929 1.377 . S
C929 H913 0.930 . S
C929 C928 1.377 . S
C929 C930 1.379 . S
C930 H914 0.931 . S
C930 C924 1.383 . S
C930 C929 1.379 . S
H931 C925 0.959 . S
H932 C925 0.961 . S
H933 C925 0.960 . S
H934 C926 0.930 1_554 S
H935 C927 0.929 1_554 S
H936 C944 0.929 . S
H937 C946 0.930 . S
H938 C948 0.930 . S
H939 C951 0.929 . S
H940 C954 0.930 . S
H941 C956 0.960 . S
H942 C956 0.960 . S
H943 C956 0.960 . S
C944 H936 0.929 . S
C944 C945 1.377 . S
C944 C946 1.384 . S
C945 C944 1.377 . S
C945 C951 1.390 . S
C946 H937 0.930 . S
C946 C944 1.384 . S
C946 C947 1.372 . S
C947 C946 1.372 . S
C947 C948 1.400 . S
C947 C952 1.490 . S
C948 H938 0.930 . S
C948 C947 1.400 . S
C948 C951 1.386 . S
H949 C965 0.930 . S
H950 C966 0.931 . S
C951 H939 0.929 . S
C951 C945 1.390 . S
C951 C948 1.386 . S
C952 C947 1.490 . S
C952 C954 1.395 . S
C952 C955 1.403 . S
H953 C959 0.930 . S
C954 H940 0.930 . S
C954 C952 1.395 . S
C954 C957 1.403 . S
C955 C952 1.403 . S
C955 C956 1.524 . S
C955 C959 1.400 . S
C956 H941 0.960 . S
C956 H942 0.960 . S
C956 H943 0.960 . S
C956 C955 1.524 . S
C957 C954 1.403 . S
C957 C958 1.392 . S
C957 C961 1.495 . S
C958 C957 1.392 . S
C958 C959 1.385 . S
C958 C960 1.478 . S
C959 H953 0.930 . S
C959 C955 1.400 . S
C959 C958 1.385 . S
C960 C958 1.478 . S
C960 C962 1.381 . S
C960 C966 1.383 . S
C961 C957 1.495 . S
C961 H967 0.959 . S
C961 H968 0.961 . S
C961 H969 0.960 . S
C962 C960 1.381 . S
C962 C963 1.394 . S
C962 H970 0.930 . S
C963 C962 1.394 . S
C963 C964 1.383 . S
C963 H971 0.929 . S
C964 C963 1.383 . S
C964 C965 1.377 . S
C965 H949 0.930 . S
C965 C964 1.377 . S
C965 C966 1.379 . S
C966 H950 0.931 . S
C966 C960 1.383 . S
C966 C965 1.379 . S
H967 C961 0.959 . S
H968 C961 0.961 . S
H969 C961 0.960 . S
H970 C962 0.930 . S
H971 C963 0.929 . S
H972 C980 0.929 . S
H973 C982 0.930 . S
H974 C984 0.930 . S
H975 C987 0.929 . S
H976 C990 0.930 . S
H977 C992 0.960 . S
H978 C992 0.960 . S
H979 C992 0.960 . S
C980 H972 0.929 . S
C980 C981 1.377 . S
C980 C982 1.384 . S
C981 C980 1.377 . S
C981 C987 1.390 . S
C982 H973 0.930 . S
C982 C980 1.384 . S
C982 C983 1.372 . S
C983 C982 1.372 . S
C983 C984 1.400 . S
C983 C988 1.490 . S
C984 H974 0.930 . S
C984 C983 1.400 . S
C984 C987 1.386 . S
H985 C1001 0.930 . S
H986 C1002 0.931 . S
C987 H975 0.929 . S
C987 C981 1.390 . S
C987 C984 1.386 . S
C988 C983 1.490 . S
C988 C990 1.395 . S
C988 C991 1.403 . S
H989 C995 0.930 . S
C990 H976 0.930 . S
C990 C988 1.395 . S
C990 C993 1.403 . S
C991 C988 1.403 . S
C991 C992 1.524 . S
C991 C995 1.400 . S
C992 H977 0.960 . S
C992 H978 0.960 . S
C992 H979 0.960 . S
C992 C991 1.524 . S
C993 C990 1.403 . S
C993 C994 1.392 . S
C993 C997 1.495 . S
C994 C993 1.392 . S
C994 C995 1.385 . S
C994 C996 1.478 . S
C995 H989 0.930 . S
C995 C991 1.400 . S
C995 C994 1.385 . S
C996 C994 1.478 . S
C996 C998 1.381 . S
C996 C1002 1.383 . S
C997 C993 1.495 . S
C997 H1003 0.959 1_556 S
C997 H1004 0.961 . S
C997 H1005 0.960 . S
C998 C996 1.381 . S
C998 C999 1.394 . S
C998 H1006 0.930 . S
C999 C998 1.394 . S
C999 C1000 1.383 . S
C999 H1007 0.929 . S
C1000 C999 1.383 . S
C1000 C1001 1.377 . S
C1001 H985 0.930 . S
C1001 C1000 1.377 . S
C1001 C1002 1.379 . S
C1002 H986 0.931 . S
C1002 C996 1.383 . S
C1002 C1001 1.379 . S
H1003 C997 0.959 1_554 S
H1004 C997 0.961 . S
H1005 C997 0.960 . S
H1006 C998 0.930 . S
H1007 C999 0.929 . S
H1008 C1016 0.929 . S
H1009 C1018 0.930 . S
H1010 C1020 0.930 . S
H1011 C1023 0.929 . S
H1012 C1026 0.930 . S
H1013 C1028 0.960 . S
H1014 C1028 0.960 . S
H1015 C1028 0.960 . S
C1016 H1008 0.929 . S
C1016 C1017 1.377 . S
C1016 C1018 1.384 . S
C1017 C1016 1.377 . S
C1017 C1023 1.390 . S
C1018 H1009 0.930 . S
C1018 C1016 1.384 . S
C1018 C1019 1.372 . S
C1019 C1018 1.372 . S
C1019 C1020 1.400 . S
C1019 C1024 1.490 . S
C1020 H1010 0.930 . S
C1020 C1019 1.400 . S
C1020 C1023 1.386 . S
H1021 C1037 0.930 . S
H1022 C1038 0.931 . S
C1023 H1011 0.929 . S
C1023 C1017 1.390 . S
C1023 C1020 1.386 . S
C1024 C1019 1.490 . S
C1024 C1026 1.395 . S
C1024 C1027 1.403 . S
H1025 C1031 0.930 . S
C1026 H1012 0.930 . S
C1026 C1024 1.395 . S
C1026 C1029 1.403 . S
C1027 C1024 1.403 . S
C1027 C1028 1.524 . S
C1027 C1031 1.400 . S
C1028 H1013 0.960 . S
C1028 H1014 0.960 . S
C1028 H1015 0.960 . S
C1028 C1027 1.524 . S
C1029 C1026 1.403 . S
C1029 C1030 1.392 . S
C1029 C1033 1.495 . S
C1030 C1029 1.392 . S
C1030 C1031 1.385 . S
C1030 C1032 1.478 . S
C1031 H1025 0.930 . S
C1031 C1027 1.400 . S
C1031 C1030 1.385 . S
C1032 C1030 1.478 . S
C1032 C1034 1.381 . S
C1032 C1038 1.383 . S
C1033 C1029 1.495 . S
C1033 H1039 0.959 . S
C1033 H1040 0.961 . S
C1033 H1041 0.960 . S
C1034 C1032 1.381 . S
C1034 C1035 1.394 . S
C1034 H1042 0.930 . S
C1035 C1034 1.394 . S
C1035 C1036 1.383 . S
C1035 H1043 0.929 . S
C1036 C1035 1.383 . S
C1036 C1037 1.377 . S
C1037 H1021 0.930 . S
C1037 C1036 1.377 . S
C1037 C1038 1.379 . S
C1038 H1022 0.931 . S
C1038 C1032 1.383 . S
C1038 C1037 1.379 . S
H1039 C1033 0.959 . S
H1040 C1033 0.961 . S
H1041 C1033 0.960 . S
H1042 C1034 0.930 . S
H1043 C1035 0.929 . S
H1044 C1052 0.929 . S
H1045 C1054 0.930 . S
H1046 C1056 0.930 . S
H1047 C1059 0.929 . S
H1048 C1062 0.930 . S
H1049 C1064 0.960 . S
H1050 C1064 0.960 . S
H1051 C1064 0.960 . S
C1052 H1044 0.929 . S
C1052 C1053 1.377 . S
C1052 C1054 1.384 . S
C1053 C1052 1.377 . S
C1053 C1059 1.390 . S
C1054 H1045 0.930 . S
C1054 C1052 1.384 . S
C1054 C1055 1.372 . S
C1055 C1054 1.372 . S
C1055 C1056 1.400 . S
C1055 C1060 1.490 . S
C1056 H1046 0.930 . S
C1056 C1055 1.400 . S
C1056 C1059 1.386 . S
H1057 C1073 0.930 . S
H1058 C1074 0.931 . S
C1059 H1047 0.929 . S
C1059 C1053 1.390 . S
C1059 C1056 1.386 . S
C1060 C1055 1.490 . S
C1060 C1062 1.395 . S
C1060 C1063 1.403 . S
H1061 C1067 0.930 . S
C1062 H1048 0.930 . S
C1062 C1060 1.395 . S
C1062 C1065 1.403 . S
C1063 C1060 1.403 . S
C1063 C1064 1.524 . S
C1063 C1067 1.400 . S
C1064 H1049 0.960 . S
C1064 H1050 0.960 . S
C1064 H1051 0.960 . S
C1064 C1063 1.524 . S
C1065 C1062 1.403 . S
C1065 C1066 1.392 . S
C1065 C1069 1.495 . S
C1066 C1065 1.392 . S
C1066 C1067 1.385 . S
C1066 C1068 1.478 . S
C1067 H1061 0.930 . S
C1067 C1063 1.400 . S
C1067 C1066 1.385 . S
C1068 C1066 1.478 . S
C1068 C1070 1.381 . S
C1068 C1074 1.383 . S
C1069 C1065 1.495 . S
C1069 H1075 0.959 . S
C1069 H1076 0.961 . S
C1069 H1077 0.960 . S
C1070 C1068 1.381 . S
C1070 C1071 1.394 . S
C1070 H1078 0.930 . S
C1071 C1070 1.394 . S
C1071 C1072 1.383 . S
C1071 H1079 0.929 . S
C1072 C1071 1.383 . S
C1072 C1073 1.377 . S
C1073 H1057 0.930 . S
C1073 C1072 1.377 . S
C1073 C1074 1.379 . S
C1074 H1058 0.931 . S
C1074 C1068 1.383 . S
C1074 C1073 1.379 . S
H1075 C1069 0.959 . S
H1076 C1069 0.961 . S
H1077 C1069 0.960 . S
H1078 C1070 0.930 . S
H1079 C1071 0.929 . S
H1080 C1088 0.929 . S
H1081 C1090 0.930 . S
H1082 C1092 0.930 . S
H1083 C1095 0.929 . S
H1084 C1098 0.930 . S
H1085 C1100 0.960 . S
H1086 C1100 0.960 . S
H1087 C1100 0.960 . S
C1088 H1080 0.929 . S
C1088 C1089 1.377 . S
C1088 C1090 1.384 . S
C1089 C1088 1.377 . S
C1089 C1095 1.390 . S
C1090 H1081 0.930 . S
C1090 C1088 1.384 . S
C1090 C1091 1.372 . S
C1091 C1090 1.372 . S
C1091 C1092 1.400 . S
C1091 C1096 1.490 . S
C1092 H1082 0.930 . S
C1092 C1091 1.400 . S
C1092 C1095 1.386 . S
H1093 C1109 0.930 . S
H1094 C1110 0.931 . S
C1095 H1083 0.929 . S
C1095 C1089 1.390 . S
C1095 C1092 1.386 . S
C1096 C1091 1.490 . S
C1096 C1098 1.395 . S
C1096 C1099 1.403 . S
H1097 C1103 0.930 . S
C1098 H1084 0.930 . S
C1098 C1096 1.395 . S
C1098 C1101 1.403 . S
C1099 C1096 1.403 . S
C1099 C1100 1.524 . S
C1099 C1103 1.400 . S
C1100 H1085 0.960 . S
C1100 H1086 0.960 . S
C1100 H1087 0.960 . S
C1100 C1099 1.524 . S
C1101 C1098 1.403 . S
C1101 C1102 1.392 . S
C1101 C1105 1.495 . S
C1102 C1101 1.392 . S
C1102 C1103 1.385 . S
C1102 C1104 1.478 . S
C1103 H1097 0.930 . S
C1103 C1099 1.400 . S
C1103 C1102 1.385 . S
C1104 C1102 1.478 . S
C1104 C1106 1.381 . S
C1104 C1110 1.383 . S
C1105 C1101 1.495 . S
C1105 H1111 0.959 . S
C1105 H1112 0.961 . S
C1105 H1113 0.960 . S
C1106 C1104 1.381 . S
C1106 C1107 1.394 . S
C1106 H1114 0.930 . S
C1107 C1106 1.394 . S
C1107 C1108 1.383 . S
C1107 H1115 0.929 . S
C1108 C1107 1.383 . S
C1108 C1109 1.377 . S
C1109 H1093 0.930 . S
C1109 C1108 1.377 . S
C1109 C1110 1.379 . S
C1110 H1094 0.931 . S
C1110 C1104 1.383 . S
C1110 C1109 1.379 . S
H1111 C1105 0.959 . S
H1112 C1105 0.961 . S
H1113 C1105 0.960 . S
H1114 C1106 0.930 . S
H1115 C1107 0.929 . S
H1116 C1124 0.929 . S
H1117 C1126 0.930 . S
H1118 C1128 0.930 . S
H1119 C1131 0.929 . S
H1120 C1134 0.930 . S
H1121 C1136 0.960 . S
H1122 C1136 0.960 . S
H1123 C1136 0.960 . S
C1124 H1116 0.929 . S
C1124 C1125 1.377 . S
C1124 C1126 1.384 . S
C1125 C1124 1.377 . S
C1125 C1131 1.390 . S
C1126 H1117 0.930 . S
C1126 C1124 1.384 . S
C1126 C1127 1.372 . S
C1127 C1126 1.372 . S
C1127 C1128 1.400 . S
C1127 C1132 1.490 . S
C1128 H1118 0.930 . S
C1128 C1127 1.400 . S
C1128 C1131 1.386 . S
H1129 C1145 0.930 . S
H1130 C1146 0.928 1_556 S
C1131 H1119 0.929 . S
C1131 C1125 1.390 . S
C1131 C1128 1.386 . S
C1132 C1127 1.490 . S
C1132 C1134 1.395 . S
C1132 C1135 1.403 . S
H1133 C1139 0.930 . S
C1134 H1120 0.930 . S
C1134 C1132 1.395 . S
C1134 C1137 1.403 . S
C1135 C1132 1.403 . S
C1135 C1136 1.524 . S
C1135 C1139 1.400 . S
C1136 H1121 0.960 . S
C1136 H1122 0.960 . S
C1136 H1123 0.960 . S
C1136 C1135 1.524 . S
C1137 C1134 1.403 . S
C1137 C1138 1.392 . S
C1137 C1141 1.495 . S
C1138 C1137 1.392 . S
C1138 C1139 1.385 . S
C1138 C1140 1.478 . S
C1139 H1133 0.930 . S
C1139 C1135 1.400 . S
C1139 C1138 1.385 . S
C1140 C1138 1.478 . S
C1140 C1142 1.382 1_556 S
C1140 C1146 1.383 1_556 S
C1141 C1137 1.495 . S
C1141 H1147 0.959 . S
C1141 H1148 0.961 . S
C1141 H1149 0.960 . S
C1142 C1140 1.382 1_554 S
C1142 C1143 1.392 . S
C1142 H1150 0.932 1_554 S
C1143 C1142 1.392 . S
C1143 C1144 1.383 . S
C1143 H1151 0.929 . S
C1144 C1143 1.383 . S
C1144 C1145 1.377 . S
C1145 H1129 0.930 . S
C1145 C1144 1.377 . S
C1145 C1146 1.379 . S
C1146 H1130 0.928 1_554 S
C1146 C1140 1.383 1_554 S
C1146 C1145 1.379 . S
H1147 C1141 0.959 . S
H1148 C1141 0.961 . S
H1149 C1141 0.960 . S
H1150 C1142 0.932 1_556 S
H1151 C1143 0.929 . S
H1152 C1160 0.929 . S
H1153 C1162 0.930 . S
H1154 C1164 0.930 . S
H1155 C1167 0.929 . S
H1156 C1170 0.930 . S
H1157 C1172 0.960 . S
H1158 C1172 0.960 . S
H1159 C1172 0.960 1_554 S
C1160 H1152 0.929 . S
C1160 C1161 1.377 . S
C1160 C1162 1.384 1_554 S
C1161 C1160 1.377 . S
C1161 C1167 1.390 . S
C1162 H1153 0.930 . S
C1162 C1160 1.384 1_556 S
C1162 C1163 1.372 . S
C1163 C1162 1.372 . S
C1163 C1164 1.400 1_556 S
C1163 C1168 1.490 . S
C1164 H1154 0.930 . S
C1164 C1163 1.400 1_554 S
C1164 C1167 1.386 . S
H1165 C1181 0.930 . S
H1166 C1182 0.931 . S
C1167 H1155 0.929 . S
C1167 C1161 1.390 . S
C1167 C1164 1.386 . S
C1168 C1163 1.490 . S
C1168 C1170 1.395 . S
C1168 C1171 1.403 . S
H1169 C1175 0.930 . S
C1170 H1156 0.930 . S
C1170 C1168 1.395 . S
C1170 C1173 1.403 . S
C1171 C1168 1.403 . S
C1171 C1172 1.524 . S
C1171 C1175 1.400 . S
C1172 H1157 0.960 . S
C1172 H1158 0.960 . S
C1172 H1159 0.960 1_556 S
C1172 C1171 1.524 . S
C1173 C1170 1.403 . S
C1173 C1174 1.392 . S
C1173 C1177 1.495 . S
C1174 C1173 1.392 . S
C1174 C1175 1.385 . S
C1174 C1176 1.478 . S
C1175 H1169 0.930 . S
C1175 C1171 1.400 . S
C1175 C1174 1.385 . S
C1176 C1174 1.478 . S
C1176 C1178 1.381 . S
C1176 C1182 1.383 . S
C1177 C1173 1.495 . S
C1177 H1183 0.959 . S
C1177 H1184 0.961 . S
C1177 H1185 0.960 . S
C1178 C1176 1.381 . S
C1178 C1179 1.394 . S
C1178 H1186 0.930 . S
C1179 C1178 1.394 . S
C1179 C1180 1.383 . S
C1179 H1187 0.929 . S
C1180 C1179 1.383 . S
C1180 C1181 1.377 . S
C1181 H1165 0.930 . S
C1181 C1180 1.377 . S
C1181 C1182 1.379 . S
C1182 H1166 0.931 . S
C1182 C1176 1.383 . S
C1182 C1181 1.379 . S
H1183 C1177 0.959 . S
H1184 C1177 0.961 . S
H1185 C1177 0.960 . S
H1186 C1178 0.930 . S
H1187 C1179 0.929 . S
H1188 C1196 0.929 . S
H1189 C1198 0.930 . S
H1190 C1200 0.930 . S
H1191 C1203 0.929 . S
H1192 C1206 0.930 . S
H1193 C1208 0.960 . S
H1194 C1208 0.960 . S
H1195 C1208 0.960 . S
C1196 H1188 0.929 . S
C1196 C1197 1.377 . S
C1196 C1198 1.384 . S
C1197 C1196 1.377 . S
C1197 C1203 1.390 . S
C1198 H1189 0.930 . S
C1198 C1196 1.384 . S
C1198 C1199 1.372 1_554 S
C1199 C1198 1.372 1_556 S
C1199 C1200 1.400 . S
C1199 C1204 1.490 . S
C1200 H1190 0.930 . S
C1200 C1199 1.400 . S
C1200 C1203 1.386 1_556 S
H1201 C1217 0.930 . S
H1202 C1218 0.931 . S
C1203 H1191 0.929 . S
C1203 C1197 1.390 . S
C1203 C1200 1.386 1_554 S
C1204 C1199 1.490 . S
C1204 C1206 1.395 . S
C1204 C1207 1.403 . S
H1205 C1211 0.930 . S
C1206 H1192 0.930 . S
C1206 C1204 1.395 . S
C1206 C1209 1.403 . S
C1207 C1204 1.403 . S
C1207 C1208 1.524 . S
C1207 C1211 1.400 . S
C1208 H1193 0.960 . S
C1208 H1194 0.960 . S
C1208 H1195 0.960 . S
C1208 C1207 1.524 . S
C1209 C1206 1.403 . S
C1209 C1210 1.392 . S
C1209 C1213 1.495 . S
C1210 C1209 1.392 . S
C1210 C1211 1.385 . S
C1210 C1212 1.478 . S
C1211 H1205 0.930 . S
C1211 C1207 1.400 . S
C1211 C1210 1.385 . S
C1212 C1210 1.478 . S
C1212 C1214 1.381 . S
C1212 C1218 1.383 . S
C1213 C1209 1.495 . S
C1213 H1219 0.959 . S
C1213 H1220 0.961 . S
C1213 H1221 0.960 . S
C1214 C1212 1.381 . S
C1214 C1215 1.394 . S
C1214 H1222 0.930 . S
C1215 C1214 1.394 . S
C1215 C1216 1.383 . S
C1215 H1223 0.929 . S
C1216 C1215 1.383 . S
C1216 C1217 1.377 . S
C1217 H1201 0.930 . S
C1217 C1216 1.377 . S
C1217 C1218 1.379 . S
C1218 H1202 0.931 . S
C1218 C1212 1.383 . S
C1218 C1217 1.379 . S
H1219 C1213 0.959 . S
H1220 C1213 0.961 . S
H1221 C1213 0.960 . S
H1222 C1214 0.930 . S
H1223 C1215 0.929 . S
H1224 C1232 0.929 . S
H1225 C1234 0.930 . S
H1226 C1236 0.930 . S
H1227 C1239 0.929 . S
H1228 C1242 0.930 . S
H1229 C1244 0.960 . S
H1230 C1244 0.960 . S
H1231 C1244 0.960 . S
C1232 H1224 0.929 . S
C1232 C1233 1.377 . S
C1232 C1234 1.384 . S
C1233 C1232 1.377 . S
C1233 C1239 1.390 . S
C1234 H1225 0.930 . S
C1234 C1232 1.384 . S
C1234 C1235 1.372 . S
C1235 C1234 1.372 . S
C1235 C1236 1.400 . S
C1235 C1240 1.490 . S
C1236 H1226 0.930 . S
C1236 C1235 1.400 . S
C1236 C1239 1.386 . S
H1237 C1253 0.930 . S
H1238 C1254 0.931 . S
C1239 H1227 0.929 . S
C1239 C1233 1.390 . S
C1239 C1236 1.386 . S
C1240 C1235 1.490 . S
C1240 C1242 1.395 . S
C1240 C1243 1.403 . S
H1241 C1247 0.930 . S
C1242 H1228 0.930 . S
C1242 C1240 1.395 . S
C1242 C1245 1.403 . S
C1243 C1240 1.403 . S
C1243 C1244 1.524 . S
C1243 C1247 1.400 . S
C1244 H1229 0.960 . S
C1244 H1230 0.960 . S
C1244 H1231 0.960 . S
C1244 C1243 1.524 . S
C1245 C1242 1.403 . S
C1245 C1246 1.392 . S
C1245 C1249 1.495 . S
C1246 C1245 1.392 . S
C1246 C1247 1.385 . S
C1246 C1248 1.478 . S
C1247 H1241 0.930 . S
C1247 C1243 1.400 . S
C1247 C1246 1.385 . S
C1248 C1246 1.478 . S
C1248 C1250 1.381 . S
C1248 C1254 1.383 . S
C1249 C1245 1.495 . S
C1249 H1255 0.959 . S
C1249 H1256 0.961 . S
C1249 H1257 0.960 . S
C1250 C1248 1.381 . S
C1250 C1251 1.394 . S
C1250 H1258 0.930 . S
C1251 C1250 1.394 . S
C1251 C1252 1.383 . S
C1251 H1259 0.929 . S
C1252 C1251 1.383 . S
C1252 C1253 1.377 . S
C1253 H1237 0.930 . S
C1253 C1252 1.377 . S
C1253 C1254 1.379 . S
C1254 H1238 0.931 . S
C1254 C1248 1.383 . S
C1254 C1253 1.379 . S
H1255 C1249 0.959 . S
H1256 C1249 0.961 . S
H1257 C1249 0.960 . S
H1258 C1250 0.930 . S
H1259 C1251 0.929 . S
H1260 C1268 0.929 . S
H1261 C1270 0.930 . S
H1262 C1272 0.930 . S
H1263 C1275 0.929 . S
H1264 C1278 0.930 . S
H1265 C1280 0.960 . S
H1266 C1280 0.960 . S
H1267 C1280 0.960 . S
C1268 H1260 0.929 . S
C1268 C1269 1.377 . S
C1268 C1270 1.384 . S
C1269 C1268 1.377 . S
C1269 C1275 1.390 . S
C1270 H1261 0.930 . S
C1270 C1268 1.384 . S
C1270 C1271 1.372 . S
C1271 C1270 1.372 . S
C1271 C1272 1.400 . S
C1271 C1276 1.490 . S
C1272 H1262 0.930 . S
C1272 C1271 1.400 . S
C1272 C1275 1.386 . S
H1273 C1289 0.930 . S
H1274 C1290 0.931 . S
C1275 H1263 0.929 . S
C1275 C1269 1.390 . S
C1275 C1272 1.386 . S
C1276 C1271 1.490 . S
C1276 C1278 1.395 . S
C1276 C1279 1.403 . S
H1277 C1283 0.930 . S
C1278 H1264 0.930 . S
C1278 C1276 1.395 . S
C1278 C1281 1.403 . S
C1279 C1276 1.403 . S
C1279 C1280 1.524 . S
C1279 C1283 1.400 . S
C1280 H1265 0.960 . S
C1280 H1266 0.960 . S
C1280 H1267 0.960 . S
C1280 C1279 1.524 . S
C1281 C1278 1.403 . S
C1281 C1282 1.392 . S
C1281 C1285 1.495 . S
C1282 C1281 1.392 . S
C1282 C1283 1.385 . S
C1282 C1284 1.478 . S
C1283 H1277 0.930 . S
C1283 C1279 1.400 . S
C1283 C1282 1.385 . S
C1284 C1282 1.478 . S
C1284 C1286 1.381 . S
C1284 C1290 1.383 . S
C1285 C1281 1.495 . S
C1285 H1291 0.959 . S
C1285 H1292 0.961 . S
C1285 H1293 0.960 . S
C1286 C1284 1.381 . S
C1286 C1287 1.394 . S
C1286 H1294 0.930 . S
C1287 C1286 1.394 . S
C1287 C1288 1.383 . S
C1287 H1295 0.929 . S
C1288 C1287 1.383 . S
C1288 C1289 1.377 . S
C1289 H1273 0.930 . S
C1289 C1288 1.377 . S
C1289 C1290 1.379 . S
C1290 H1274 0.931 . S
C1290 C1284 1.383 . S
C1290 C1289 1.379 . S
H1291 C1285 0.959 . S
H1292 C1285 0.961 . S
H1293 C1285 0.960 . S
H1294 C1286 0.930 . S
H1295 C1287 0.929 . S
H1296 C1304 0.929 . S
H1297 C1306 0.930 . S
H1298 C1308 0.930 . S
H1299 C1311 0.929 . S
H1300 C1314 0.930 . S
H1301 C1316 0.960 . S
H1302 C1316 0.960 . S
H1303 C1316 0.960 . S
C1304 H1296 0.929 . S
C1304 C1305 1.377 . S
C1304 C1306 1.384 . S
C1305 C1304 1.377 . S
C1305 C1311 1.390 . S
C1306 H1297 0.930 . S
C1306 C1304 1.384 . S
C1306 C1307 1.372 . S
C1307 C1306 1.372 . S
C1307 C1308 1.400 . S
C1307 C1312 1.490 . S
C1308 H1298 0.930 . S
C1308 C1307 1.400 . S
C1308 C1311 1.386 . S
H1309 C1325 0.930 . S
H1310 C1326 0.931 . S
C1311 H1299 0.929 . S
C1311 C1305 1.390 . S
C1311 C1308 1.386 . S
C1312 C1307 1.490 . S
C1312 C1314 1.395 . S
C1312 C1315 1.403 . S
H1313 C1319 0.930 . S
C1314 H1300 0.930 . S
C1314 C1312 1.395 . S
C1314 C1317 1.403 . S
C1315 C1312 1.403 . S
C1315 C1316 1.524 . S
C1315 C1319 1.400 . S
C1316 H1301 0.960 . S
C1316 H1302 0.960 . S
C1316 H1303 0.960 . S
C1316 C1315 1.524 . S
C1317 C1314 1.403 . S
C1317 C1318 1.392 . S
C1317 C1321 1.495 . S
C1318 C1317 1.392 . S
C1318 C1319 1.385 . S
C1318 C1320 1.478 . S
C1319 H1313 0.930 . S
C1319 C1315 1.400 . S
C1319 C1318 1.385 . S
C1320 C1318 1.478 . S
C1320 C1322 1.381 . S
C1320 C1326 1.383 . S
C1321 C1317 1.495 . S
C1321 H1327 0.959 . S
C1321 H1328 0.961 . S
C1321 H1329 0.960 . S
C1322 C1320 1.381 . S
C1322 C1323 1.394 . S
C1322 H1330 0.930 . S
C1323 C1322 1.394 . S
C1323 C1324 1.383 . S
C1323 H1331 0.929 . S
C1324 C1323 1.383 . S
C1324 C1325 1.377 . S
C1325 H1309 0.930 . S
C1325 C1324 1.377 . S
C1325 C1326 1.379 . S
C1326 H1310 0.931 . S
C1326 C1320 1.383 . S
C1326 C1325 1.379 . S
H1327 C1321 0.959 . S
H1328 C1321 0.961 . S
H1329 C1321 0.960 . S
H1330 C1322 0.930 . S
H1331 C1323 0.929 . S
H1332 C1340 0.929 . S
H1333 C1342 0.930 . S
H1334 C1344 0.930 . S
H1335 C1347 0.929 . S
H1336 C1350 0.930 . S
H1337 C1352 0.960 . S
H1338 C1352 0.960 . S
H1339 C1352 0.960 . S
C1340 H1332 0.929 . S
C1340 C1341 1.377 . S
C1340 C1342 1.384 1_556 S
C1341 C1340 1.377 . S
C1341 C1347 1.390 . S
C1342 H1333 0.930 . S
C1342 C1340 1.384 1_554 S
C1342 C1343 1.372 . S
C1343 C1342 1.372 . S
C1343 C1344 1.400 1_554 S
C1343 C1348 1.490 . S
C1344 H1334 0.930 . S
C1344 C1343 1.400 1_556 S
C1344 C1347 1.386 . S
H1345 C1361 0.930 . S
H1346 C1362 0.931 . S
C1347 H1335 0.929 . S
C1347 C1341 1.390 . S
C1347 C1344 1.386 . S
C1348 C1343 1.490 . S
C1348 C1350 1.395 . S
C1348 C1351 1.403 . S
H1349 C1355 0.930 . S
C1350 H1336 0.930 . S
C1350 C1348 1.395 . S
C1350 C1353 1.403 . S
C1351 C1348 1.403 . S
C1351 C1352 1.524 . S
C1351 C1355 1.400 . S
C1352 H1337 0.960 . S
C1352 H1338 0.960 . S
C1352 H1339 0.960 . S
C1352 C1351 1.524 . S
C1353 C1350 1.403 . S
C1353 C1354 1.392 . S
C1353 C1357 1.495 . S
C1354 C1353 1.392 . S
C1354 C1355 1.385 . S
C1354 C1356 1.478 . S
C1355 H1349 0.930 . S
C1355 C1351 1.400 . S
C1355 C1354 1.385 . S
C1356 C1354 1.478 . S
C1356 C1358 1.381 . S
C1356 C1362 1.383 . S
C1357 C1353 1.495 . S
C1357 H1363 0.959 . S
C1357 H1364 0.961 . S
C1357 H1365 0.960 . S
C1358 C1356 1.381 . S
C1358 C1359 1.394 . S
C1358 H1366 0.930 . S
C1359 C1358 1.394 . S
C1359 C1360 1.383 . S
C1359 H1367 0.929 . S
C1360 C1359 1.383 . S
C1360 C1361 1.377 . S
C1361 H1345 0.930 . S
C1361 C1360 1.377 . S
C1361 C1362 1.379 . S
C1362 H1346 0.931 . S
C1362 C1356 1.383 . S
C1362 C1361 1.379 . S
H1363 C1357 0.959 . S
H1364 C1357 0.961 . S
H1365 C1357 0.960 . S
H1366 C1358 0.930 . S
H1367 C1359 0.929 . S
H1368 C1376 0.929 . S
H1369 C1378 0.930 . S
H1370 C1380 0.930 . S
H1371 C1383 0.929 . S
H1372 C1386 0.930 . S
H1373 C1388 0.960 . S
H1374 C1388 0.960 . S
H1375 C1388 0.960 . S
C1376 H1368 0.929 . S
C1376 C1377 1.377 . S
C1376 C1378 1.384 1_556 S
C1377 C1376 1.377 . S
C1377 C1383 1.390 . S
C1378 H1369 0.930 . S
C1378 C1376 1.384 1_554 S
C1378 C1379 1.372 . S
C1379 C1378 1.372 . S
C1379 C1380 1.400 1_554 S
C1379 C1384 1.490 . S
C1380 H1370 0.930 . S
C1380 C1379 1.400 1_556 S
C1380 C1383 1.386 . S
H1381 C1397 0.930 . S
H1382 C1398 0.931 . S
C1383 H1371 0.929 . S
C1383 C1377 1.390 . S
C1383 C1380 1.386 . S
C1384 C1379 1.490 . S
C1384 C1386 1.395 . S
C1384 C1387 1.403 . S
H1385 C1391 0.930 . S
C1386 H1372 0.930 . S
C1386 C1384 1.395 . S
C1386 C1389 1.403 . S
C1387 C1384 1.403 . S
C1387 C1388 1.524 . S
C1387 C1391 1.400 . S
C1388 H1373 0.960 . S
C1388 H1374 0.960 . S
C1388 H1375 0.960 . S
C1388 C1387 1.524 . S
C1389 C1386 1.403 . S
C1389 C1390 1.392 . S
C1389 C1393 1.495 . S
C1390 C1389 1.392 . S
C1390 C1391 1.385 . S
C1390 C1392 1.478 . S
C1391 H1385 0.930 . S
C1391 C1387 1.400 . S
C1391 C1390 1.385 . S
C1392 C1390 1.478 . S
C1392 C1394 1.381 . S
C1392 C1398 1.383 . S
C1393 C1389 1.495 . S
C1393 H1399 0.959 . S
C1393 H1400 0.961 . S
C1393 H1401 0.960 . S
C1394 C1392 1.381 . S
C1394 C1395 1.394 . S
C1394 H1402 0.930 . S
C1395 C1394 1.394 . S
C1395 C1396 1.383 . S
C1395 H1403 0.929 . S
C1396 C1395 1.383 . S
C1396 C1397 1.377 . S
C1397 H1381 0.930 . S
C1397 C1396 1.377 . S
C1397 C1398 1.379 . S
C1398 H1382 0.931 . S
C1398 C1392 1.383 . S
C1398 C1397 1.379 . S
H1399 C1393 0.959 . S
H1400 C1393 0.961 . S
H1401 C1393 0.960 . S
H1402 C1394 0.930 . S
H1403 C1395 0.929 . S
H1404 C1412 0.929 . S
H1405 C1414 0.930 . S
H1406 C1416 0.930 . S
H1407 C1419 0.929 . S
H1408 C1422 0.930 . S
H1409 C1424 0.960 . S
H1410 C1424 0.960 . S
H1411 C1424 0.960 . S
C1412 H1404 0.929 . S
C1412 C1413 1.377 . S
C1412 C1414 1.384 . S
C1413 C1412 1.377 . S
C1413 C1419 1.390 . S
C1414 H1405 0.930 . S
C1414 C1412 1.384 . S
C1414 C1415 1.372 . S
C1415 C1414 1.372 . S
C1415 C1416 1.400 . S
C1415 C1420 1.490 . S
C1416 H1406 0.930 . S
C1416 C1415 1.400 . S
C1416 C1419 1.386 . S
H1417 C1433 0.930 . S
H1418 C1434 0.931 1_554 S
C1419 H1407 0.929 . S
C1419 C1413 1.390 . S
C1419 C1416 1.386 . S
C1420 C1415 1.490 . S
C1420 C1422 1.395 . S
C1420 C1423 1.403 . S
H1421 C1427 0.930 . S
C1422 H1408 0.930 . S
C1422 C1420 1.395 . S
C1422 C1425 1.403 . S
C1423 C1420 1.403 . S
C1423 C1424 1.524 . S
C1423 C1427 1.400 . S
C1424 H1409 0.960 . S
C1424 H1410 0.960 . S
C1424 H1411 0.960 . S
C1424 C1423 1.524 . S
C1425 C1422 1.403 . S
C1425 C1426 1.392 . S
C1425 C1429 1.495 . S
C1426 C1425 1.392 . S
C1426 C1427 1.385 . S
C1426 C1428 1.478 . S
C1427 H1421 0.930 . S
C1427 C1423 1.400 . S
C1427 C1426 1.385 . S
C1428 C1426 1.478 . S
C1428 C1430 1.381 1_554 S
C1428 C1434 1.383 1_554 S
C1429 C1425 1.495 . S
C1429 H1435 0.959 . S
C1429 H1436 0.961 . S
C1429 H1437 0.960 . S
C1430 C1428 1.381 1_556 S
C1430 C1431 1.394 . S
C1430 H1438 0.930 1_556 S
C1431 C1430 1.394 . S
C1431 C1432 1.383 . S
C1431 H1439 0.929 . S
C1432 C1431 1.383 . S
C1432 C1433 1.377 . S
C1433 H1417 0.930 . S
C1433 C1432 1.377 . S
C1433 C1434 1.379 . S
C1434 H1418 0.931 1_556 S
C1434 C1428 1.383 1_556 S
C1434 C1433 1.379 . S
H1435 C1429 0.959 . S
H1436 C1429 0.961 . S
H1437 C1429 0.960 . S
H1438 C1430 0.930 1_554 S
H1439 C1431 0.929 . S
H1440 C1448 0.929 . S
H1441 C1450 0.930 . S
H1442 C1452 0.930 . S
H1443 C1455 0.929 . S
H1444 C1458 0.930 . S
H1445 C1460 0.960 . S
H1446 C1460 0.960 . S
H1447 C1460 0.960 . S
C1448 H1440 0.929 . S
C1448 C1449 1.377 . S
C1448 C1450 1.384 . S
C1449 C1448 1.377 . S
C1449 C1455 1.390 . S
C1450 H1441 0.930 . S
C1450 C1448 1.384 . S
C1450 C1451 1.372 . S
C1451 C1450 1.372 . S
C1451 C1452 1.400 . S
C1451 C1456 1.490 . S
C1452 H1442 0.930 . S
C1452 C1451 1.400 . S
C1452 C1455 1.386 . S
H1453 C1469 0.930 . S
H1454 C1470 0.931 . S
C1455 H1443 0.929 . S
C1455 C1449 1.390 . S
C1455 C1452 1.386 . S
C1456 C1451 1.490 . S
C1456 C1458 1.395 . S
C1456 C1459 1.403 . S
H1457 C1463 0.930 . S
C1458 H1444 0.930 . S
C1458 C1456 1.395 . S
C1458 C1461 1.403 . S
C1459 C1456 1.403 . S
C1459 C1460 1.524 . S
C1459 C1463 1.400 . S
C1460 H1445 0.960 . S
C1460 H1446 0.960 . S
C1460 H1447 0.960 . S
C1460 C1459 1.524 . S
C1461 C1458 1.403 . S
C1461 C1462 1.392 . S
C1461 C1465 1.495 . S
C1462 C1461 1.392 . S
C1462 C1463 1.385 . S
C1462 C1464 1.478 . S
C1463 H1457 0.930 . S
C1463 C1459 1.400 . S
C1463 C1462 1.385 . S
C1464 C1462 1.478 . S
C1464 C1466 1.381 . S
C1464 C1470 1.383 . S
C1465 C1461 1.495 . S
C1465 H1471 0.959 . S
C1465 H1472 0.961 . S
C1465 H1473 0.960 . S
C1466 C1464 1.381 . S
C1466 C1467 1.394 . S
C1466 H1474 0.930 . S
C1467 C1466 1.394 . S
C1467 C1468 1.383 . S
C1467 H1475 0.929 . S
C1468 C1467 1.383 . S
C1468 C1469 1.377 . S
C1469 H1453 0.930 . S
C1469 C1468 1.377 . S
C1469 C1470 1.379 . S
C1470 H1454 0.931 . S
C1470 C1464 1.383 . S
C1470 C1469 1.379 . S
H1471 C1465 0.959 . S
H1472 C1465 0.961 . S
H1473 C1465 0.960 . S
H1474 C1466 0.930 . S
H1475 C1467 0.929 . S
H1476 C1484 0.929 . S
H1477 C1486 0.930 . S
H1478 C1488 0.930 . S
H1479 C1491 0.929 . S
H1480 C1494 0.930 . S
H1481 C1496 0.960 . S
H1482 C1496 0.960 . S
H1483 C1496 0.960 . S
C1484 H1476 0.929 . S
C1484 C1485 1.377 . S
C1484 C1486 1.384 . S
C1485 C1484 1.377 . S
C1485 C1491 1.390 . S
C1486 H1477 0.930 . S
C1486 C1484 1.384 . S
C1486 C1487 1.372 . S
C1487 C1486 1.372 . S
C1487 C1488 1.400 . S
C1487 C1492 1.490 . S
C1488 H1478 0.930 . S
C1488 C1487 1.400 . S
C1488 C1491 1.386 . S
H1489 C1505 0.930 . S
H1490 C1506 0.931 . S
C1491 H1479 0.929 . S
C1491 C1485 1.390 . S
C1491 C1488 1.386 . S
C1492 C1487 1.490 . S
C1492 C1494 1.395 . S
C1492 C1495 1.403 . S
H1493 C1499 0.930 . S
C1494 H1480 0.930 . S
C1494 C1492 1.395 . S
C1494 C1497 1.403 . S
C1495 C1492 1.403 . S
C1495 C1496 1.524 . S
C1495 C1499 1.400 . S
C1496 H1481 0.960 . S
C1496 H1482 0.960 . S
C1496 H1483 0.960 . S
C1496 C1495 1.524 . S
C1497 C1494 1.403 . S
C1497 C1498 1.392 . S
C1497 C1501 1.495 . S
C1498 C1497 1.392 . S
C1498 C1499 1.385 . S
C1498 C1500 1.478 . S
C1499 H1493 0.930 . S
C1499 C1495 1.400 . S
C1499 C1498 1.385 . S
C1500 C1498 1.478 . S
C1500 C1502 1.381 . S
C1500 C1506 1.383 . S
C1501 C1497 1.495 . S
C1501 H1507 0.959 . S
C1501 H1508 0.961 . S
C1501 H1509 0.960 . S
C1502 C1500 1.381 . S
C1502 C1503 1.394 . S
C1502 H1510 0.930 . S
C1503 C1502 1.394 . S
C1503 C1504 1.383 . S
C1503 H1511 0.929 . S
C1504 C1503 1.383 . S
C1504 C1505 1.377 . S
C1505 H1489 0.930 . S
C1505 C1504 1.377 . S
C1505 C1506 1.379 . S
C1506 H1490 0.931 . S
C1506 C1500 1.383 . S
C1506 C1505 1.379 . S
H1507 C1501 0.959 . S
H1508 C1501 0.961 . S
H1509 C1501 0.960 . S
H1510 C1502 0.930 . S
H1511 C1503 0.929 . S
H1512 C1520 0.929 . S
H1513 C1522 0.930 . S
H1514 C1524 0.930 . S
H1515 C1527 0.929 . S
H1516 C1530 0.930 . S
H1517 C1532 0.960 . S
H1518 C1532 0.960 . S
H1519 C1532 0.960 . S
C1520 H1512 0.929 . S
C1520 C1521 1.377 . S
C1520 C1522 1.384 . S
C1521 C1520 1.377 . S
C1521 C1527 1.390 . S
C1522 H1513 0.930 . S
C1522 C1520 1.384 . S
C1522 C1523 1.372 . S
C1523 C1522 1.372 . S
C1523 C1524 1.400 . S
C1523 C1528 1.490 . S
C1524 H1514 0.930 . S
C1524 C1523 1.400 . S
C1524 C1527 1.386 . S
H1525 C1541 0.930 . S
H1526 C1542 0.931 . S
C1527 H1515 0.929 . S
C1527 C1521 1.390 . S
C1527 C1524 1.386 . S
C1528 C1523 1.490 . S
C1528 C1530 1.395 . S
C1528 C1531 1.403 . S
H1529 C1535 0.930 . S
C1530 H1516 0.930 . S
C1530 C1528 1.395 . S
C1530 C1533 1.403 . S
C1531 C1528 1.403 . S
C1531 C1532 1.524 . S
C1531 C1535 1.400 . S
C1532 H1517 0.960 . S
C1532 H1518 0.960 . S
C1532 H1519 0.960 . S
C1532 C1531 1.524 . S
C1533 C1530 1.403 . S
C1533 C1534 1.392 . S
C1533 C1537 1.495 . S
C1534 C1533 1.392 . S
C1534 C1535 1.385 . S
C1534 C1536 1.478 . S
C1535 H1529 0.930 . S
C1535 C1531 1.400 . S
C1535 C1534 1.385 . S
C1536 C1534 1.478 . S
C1536 C1538 1.381 . S
C1536 C1542 1.383 . S
C1537 C1533 1.495 . S
C1537 H1543 0.959 . S
C1537 H1544 0.961 . S
C1537 H1545 0.960 . S
C1538 C1536 1.381 . S
C1538 C1539 1.394 . S
C1538 H1546 0.930 . S
C1539 C1538 1.394 . S
C1539 C1540 1.383 . S
C1539 H1547 0.929 . S
C1540 C1539 1.383 . S
C1540 C1541 1.377 . S
C1541 H1525 0.930 . S
C1541 C1540 1.377 . S
C1541 C1542 1.379 . S
C1542 H1526 0.931 . S
C1542 C1536 1.383 . S
C1542 C1541 1.379 . S
H1543 C1537 0.959 . S
H1544 C1537 0.961 . S
H1545 C1537 0.960 . S
H1546 C1538 0.930 . S
H1547 C1539 0.929 . S
H1548 C1556 0.929 . S
H1549 C1558 0.930 . S
H1550 C1560 0.930 . S
H1551 C1563 0.929 . S
H1552 C1566 0.930 . S
H1553 C1568 0.960 . S
H1554 C1568 0.960 . S
H1555 C1568 0.960 . S
C1556 H1548 0.929 . S
C1556 C1557 1.377 . S
C1556 C1558 1.384 . S
C1557 C1556 1.377 . S
C1557 C1563 1.390 . S
C1558 H1549 0.930 . S
C1558 C1556 1.384 . S
C1558 C1559 1.372 . S
C1559 C1558 1.372 . S
C1559 C1560 1.400 . S
C1559 C1564 1.490 . S
C1560 H1550 0.930 . S
C1560 C1559 1.400 . S
C1560 C1563 1.386 . S
H1561 C1577 0.930 . S
H1562 C1578 0.931 . S
C1563 H1551 0.929 . S
C1563 C1557 1.390 . S
C1563 C1560 1.386 . S
C1564 C1559 1.490 . S
C1564 C1566 1.395 . S
C1564 C1567 1.403 . S
H1565 C1571 0.930 . S
C1566 H1552 0.930 . S
C1566 C1564 1.395 . S
C1566 C1569 1.403 . S
C1567 C1564 1.403 . S
C1567 C1568 1.524 . S
C1567 C1571 1.400 . S
C1568 H1553 0.960 . S
C1568 H1554 0.960 . S
C1568 H1555 0.960 . S
C1568 C1567 1.524 . S
C1569 C1566 1.403 . S
C1569 C1570 1.392 . S
C1569 C1573 1.495 . S
C1570 C1569 1.392 . S
C1570 C1571 1.385 . S
C1570 C1572 1.478 . S
C1571 H1565 0.930 . S
C1571 C1567 1.400 . S
C1571 C1570 1.385 . S
C1572 C1570 1.478 . S
C1572 C1574 1.381 . S
C1572 C1578 1.383 . S
C1573 C1569 1.495 . S
C1573 H1579 0.959 . S
C1573 H1580 0.961 . S
C1573 H1581 0.960 . S
C1574 C1572 1.381 . S
C1574 C1575 1.394 . S
C1574 H1582 0.930 . S
C1575 C1574 1.394 . S
C1575 C1576 1.383 . S
C1575 H1583 0.929 . S
C1576 C1575 1.383 . S
C1576 C1577 1.377 . S
C1577 H1561 0.930 . S
C1577 C1576 1.377 . S
C1577 C1578 1.379 . S
C1578 H1562 0.931 . S
C1578 C1572 1.383 . S
C1578 C1577 1.379 . S
H1579 C1573 0.959 . S
H1580 C1573 0.961 . S
H1581 C1573 0.960 . S
H1582 C1574 0.930 . S
H1583 C1575 0.929 . S
H1584 C1592 0.929 . S
H1585 C1594 0.930 . S
H1586 C1596 0.930 . S
H1587 C1599 0.929 . S
H1588 C1602 0.930 . S
H1589 C1604 0.960 . S
H1590 C1604 0.960 . S
H1591 C1604 0.960 . S
C1592 H1584 0.929 . S
C1592 C1593 1.377 . S
C1592 C1594 1.384 . S
C1593 C1592 1.377 . S
C1593 C1599 1.390 . S
C1594 H1585 0.930 . S
C1594 C1592 1.384 . S
C1594 C1595 1.372 . S
C1595 C1594 1.372 . S
C1595 C1596 1.400 . S
C1595 C1600 1.490 . S
C1596 H1586 0.930 . S
C1596 C1595 1.400 . S
C1596 C1599 1.386 . S
H1597 C1613 0.930 . S
H1598 C1614 0.931 . S
C1599 H1587 0.929 . S
C1599 C1593 1.390 . S
C1599 C1596 1.386 . S
C1600 C1595 1.490 . S
C1600 C1602 1.395 . S
C1600 C1603 1.403 . S
H1601 C1607 0.930 . S
C1602 H1588 0.930 . S
C1602 C1600 1.395 . S
C1602 C1605 1.403 . S
C1603 C1600 1.403 . S
C1603 C1604 1.524 . S
C1603 C1607 1.400 . S
C1604 H1589 0.960 . S
C1604 H1590 0.960 . S
C1604 H1591 0.960 . S
C1604 C1603 1.524 . S
C1605 C1602 1.403 . S
C1605 C1606 1.392 . S
C1605 C1609 1.495 . S
C1606 C1605 1.392 . S
C1606 C1607 1.385 . S
C1606 C1608 1.478 . S
C1607 H1601 0.930 . S
C1607 C1603 1.400 . S
C1607 C1606 1.385 . S
C1608 C1606 1.478 . S
C1608 C1610 1.381 . S
C1608 C1614 1.383 . S
C1609 C1605 1.495 . S
C1609 H1615 0.959 . S
C1609 H1616 0.961 . S
C1609 H1617 0.960 . S
C1610 C1608 1.381 . S
C1610 C1611 1.394 . S
C1610 H1618 0.930 . S
C1611 C1610 1.394 . S
C1611 C1612 1.383 . S
C1611 H1619 0.929 . S
C1612 C1611 1.383 . S
C1612 C1613 1.377 . S
C1613 H1597 0.930 . S
C1613 C1612 1.377 . S
C1613 C1614 1.379 . S
C1614 H1598 0.931 . S
C1614 C1608 1.383 . S
C1614 C1613 1.379 . S
H1615 C1609 0.959 . S
H1616 C1609 0.961 . S
H1617 C1609 0.960 . S
H1618 C1610 0.930 . S
H1619 C1611 0.929 . S
H1620 C1628 0.929 . S
H1621 C1630 0.930 . S
H1622 C1632 0.930 . S
H1623 C1635 0.929 . S
H1624 C1638 0.930 . S
H1625 C1640 0.960 . S
H1626 C1640 0.960 . S
H1627 C1640 0.960 . S
C1628 H1620 0.929 . S
C1628 C1629 1.377 . S
C1628 C1630 1.384 . S
C1629 C1628 1.377 . S
C1629 C1635 1.390 . S
C1630 H1621 0.930 . S
C1630 C1628 1.384 . S
C1630 C1631 1.372 . S
C1631 C1630 1.372 . S
C1631 C1632 1.400 . S
C1631 C1636 1.490 . S
C1632 H1622 0.930 . S
C1632 C1631 1.400 . S
C1632 C1635 1.386 . S
H1633 C1649 0.930 . S
H1634 C1650 0.931 . S
C1635 H1623 0.929 . S
C1635 C1629 1.390 . S
C1635 C1632 1.386 . S
C1636 C1631 1.490 . S
C1636 C1638 1.395 . S
C1636 C1639 1.403 . S
H1637 C1643 0.930 . S
C1638 H1624 0.930 . S
C1638 C1636 1.395 . S
C1638 C1641 1.403 . S
C1639 C1636 1.403 . S
C1639 C1640 1.524 . S
C1639 C1643 1.400 . S
C1640 H1625 0.960 . S
C1640 H1626 0.960 . S
C1640 H1627 0.960 . S
C1640 C1639 1.524 . S
C1641 C1638 1.403 . S
C1641 C1642 1.392 . S
C1641 C1645 1.495 . S
C1642 C1641 1.392 . S
C1642 C1643 1.385 . S
C1642 C1644 1.478 . S
C1643 H1637 0.930 . S
C1643 C1639 1.400 . S
C1643 C1642 1.385 . S
C1644 C1642 1.478 . S
C1644 C1646 1.381 . S
C1644 C1650 1.383 . S
C1645 C1641 1.495 . S
C1645 H1651 0.959 . S
C1645 H1652 0.961 . S
C1645 H1653 0.960 . S
C1646 C1644 1.381 . S
C1646 C1647 1.394 . S
C1646 H1654 0.930 . S
C1647 C1646 1.394 . S
C1647 C1648 1.383 . S
C1647 H1655 0.929 . S
C1648 C1647 1.383 . S
C1648 C1649 1.377 . S
C1649 H1633 0.930 . S
C1649 C1648 1.377 . S
C1649 C1650 1.379 . S
C1650 H1634 0.931 . S
C1650 C1644 1.383 . S
C1650 C1649 1.379 . S
H1651 C1645 0.959 . S
H1652 C1645 0.961 . S
H1653 C1645 0.960 . S
H1654 C1646 0.930 . S
H1655 C1647 0.929 . S
H1656 C1664 0.929 . S
H1657 C1666 0.930 . S
H1658 C1668 0.930 . S
H1659 C1671 0.929 . S
H1660 C1674 0.930 . S
H1661 C1676 0.960 . S
H1662 C1676 0.960 . S
H1663 C1676 0.960 . S
C1664 H1656 0.929 . S
C1664 C1665 1.377 . S
C1664 C1666 1.384 . S
C1665 C1664 1.377 . S
C1665 C1671 1.390 . S
C1666 H1657 0.930 . S
C1666 C1664 1.384 . S
C1666 C1667 1.372 . S
C1667 C1666 1.372 . S
C1667 C1668 1.400 . S
C1667 C1672 1.490 . S
C1668 H1658 0.930 . S
C1668 C1667 1.400 . S
C1668 C1671 1.386 . S
H1669 C1685 0.930 . S
H1670 C1686 0.931 . S
C1671 H1659 0.929 . S
C1671 C1665 1.390 . S
C1671 C1668 1.386 . S
C1672 C1667 1.490 . S
C1672 C1674 1.395 . S
C1672 C1675 1.403 . S
H1673 C1679 0.930 . S
C1674 H1660 0.930 . S
C1674 C1672 1.395 . S
C1674 C1677 1.403 . S
C1675 C1672 1.403 . S
C1675 C1676 1.524 . S
C1675 C1679 1.400 . S
C1676 H1661 0.960 . S
C1676 H1662 0.960 . S
C1676 H1663 0.960 . S
C1676 C1675 1.524 . S
C1677 C1674 1.403 . S
C1677 C1678 1.392 . S
C1677 C1681 1.495 . S
C1678 C1677 1.392 . S
C1678 C1679 1.385 . S
C1678 C1680 1.478 . S
C1679 H1673 0.930 . S
C1679 C1675 1.400 . S
C1679 C1678 1.385 . S
C1680 C1678 1.478 . S
C1680 C1682 1.381 . S
C1680 C1686 1.383 1_556 S
C1681 C1677 1.495 . S
C1681 H1687 0.959 . S
C1681 H1688 0.961 . S
C1681 H1689 0.960 . S
C1682 C1680 1.381 . S
C1682 C1683 1.394 1_556 S
C1682 H1690 0.930 . S
C1683 C1682 1.394 1_554 S
C1683 C1684 1.383 . S
C1683 H1691 0.929 . S
C1684 C1683 1.383 . S
C1684 C1685 1.377 . S
C1685 H1669 0.930 . S
C1685 C1684 1.377 . S
C1685 C1686 1.379 . S
C1686 H1670 0.931 . S
C1686 C1680 1.383 1_554 S
C1686 C1685 1.379 . S
H1687 C1681 0.959 . S
H1688 C1681 0.961 . S
H1689 C1681 0.960 . S
H1690 C1682 0.930 . S
H1691 C1683 0.929 . S
H1692 C1700 0.929 . S
H1693 C1702 0.938 . S
H1694 C1704 0.930 . S
H1695 C1707 0.929 . S
H1696 C1710 0.930 . S
H1697 C1712 0.960 . S
H1698 C1712 0.960 . S
H1699 C1712 0.960 1_554 S
C1700 H1692 0.929 . S
C1700 C1701 1.377 . S
C1700 C1702 1.374 1_554 S
C1701 C1700 1.377 . S
C1701 C1707 1.390 . S
C1702 H1693 0.938 . S
C1702 C1700 1.374 1_556 S
C1702 C1703 1.375 . S
C1703 C1702 1.375 . S
C1703 C1704 1.400 1_556 S
C1703 C1708 1.490 . S
C1704 H1694 0.930 . S
C1704 C1703 1.400 1_554 S
C1704 C1707 1.386 . S
H1705 C1721 0.930 . S
H1706 C1722 0.931 . S
C1707 H1695 0.929 . S
C1707 C1701 1.390 . S
C1707 C1704 1.386 . S
C1708 C1703 1.490 . S
C1708 C1710 1.395 . S
C1708 C1711 1.403 . S
H1709 C1715 0.930 . S
C1710 H1696 0.930 . S
C1710 C1708 1.395 . S
C1710 C1713 1.403 . S
C1711 C1708 1.403 . S
C1711 C1712 1.524 . S
C1711 C1715 1.400 . S
C1712 H1697 0.960 . S
C1712 H1698 0.960 . S
C1712 H1699 0.960 1_556 S
C1712 C1711 1.524 . S
C1713 C1710 1.403 . S
C1713 C1714 1.392 . S
C1713 C1717 1.495 . S
C1714 C1713 1.392 . S
C1714 C1715 1.385 . S
C1714 C1716 1.478 . S
C1715 H1709 0.930 . S
C1715 C1711 1.400 . S
C1715 C1714 1.385 . S
C1716 C1714 1.478 . S
C1716 C1718 1.381 . S
C1716 C1722 1.383 . S
C1717 C1713 1.495 . S
C1717 H1723 0.959 . S
C1717 H1724 0.961 . S
C1717 H1725 0.960 . S
C1718 C1716 1.381 . S
C1718 C1719 1.394 . S
C1718 H1726 0.930 . S
C1719 C1718 1.394 . S
C1719 C1720 1.383 . S
C1719 H1727 0.929 . S
C1720 C1719 1.383 . S
C1720 C1721 1.377 . S
C1721 H1705 0.930 . S
C1721 C1720 1.377 . S
C1721 C1722 1.379 . S
C1722 H1706 0.931 . S
C1722 C1716 1.383 . S
C1722 C1721 1.379 . S
H1723 C1717 0.959 . S
H1724 C1717 0.961 . S
H1725 C1717 0.960 . S
H1726 C1718 0.930 . S
H1727 C1719 0.929 . S
H1728 C1736 0.929 . S
H1729 C1738 0.930 . S
H1730 C1740 0.930 . S
H1731 C1743 0.929 . S
H1732 C1746 0.930 . S
H1733 C1748 0.960 . S
H1734 C1748 0.960 . S
H1735 C1748 0.960 . S
C1736 H1728 0.929 . S
C1736 C1737 1.377 . S
C1736 C1738 1.384 . S
C1737 C1736 1.377 . S
C1737 C1743 1.390 . S
C1738 H1729 0.930 . S
C1738 C1736 1.384 . S
C1738 C1739 1.372 . S
C1739 C1738 1.372 . S
C1739 C1740 1.400 . S
C1739 C1744 1.490 . S
C1740 H1730 0.930 . S
C1740 C1739 1.400 . S
C1740 C1743 1.386 . S
H1741 C1757 0.930 . S
H1742 C1758 0.931 . S
C1743 H1731 0.929 . S
C1743 C1737 1.390 . S
C1743 C1740 1.386 . S
C1744 C1739 1.490 . S
C1744 C1746 1.395 . S
C1744 C1747 1.403 . S
H1745 C1751 0.930 . S
C1746 H1732 0.930 . S
C1746 C1744 1.395 . S
C1746 C1749 1.403 . S
C1747 C1744 1.403 . S
C1747 C1748 1.524 . S
C1747 C1751 1.400 . S
C1748 H1733 0.960 . S
C1748 H1734 0.960 . S
C1748 H1735 0.960 . S
C1748 C1747 1.524 . S
C1749 C1746 1.403 . S
C1749 C1750 1.392 . S
C1749 C1753 1.495 . S
C1750 C1749 1.392 . S
C1750 C1751 1.385 . S
C1750 C1752 1.478 . S
C1751 H1745 0.930 . S
C1751 C1747 1.400 . S
C1751 C1750 1.385 . S
C1752 C1750 1.478 . S
C1752 C1754 1.381 1_556 S
C1752 C1758 1.383 . S
C1753 C1749 1.495 . S
C1753 H1759 0.959 . S
C1753 H1760 0.961 . S
C1753 H1761 0.960 1_556 S
C1754 C1752 1.381 1_554 S
C1754 C1755 1.394 . S
C1754 H1762 0.930 . S
C1755 C1754 1.394 . S
C1755 C1756 1.383 . S
C1755 H1763 0.929 . S
C1756 C1755 1.383 . S
C1756 C1757 1.377 . S
C1757 H1741 0.930 . S
C1757 C1756 1.377 . S
C1757 C1758 1.379 1_554 S
C1758 H1742 0.931 . S
C1758 C1752 1.383 . S
C1758 C1757 1.379 1_556 S
H1759 C1753 0.959 . S
H1760 C1753 0.961 . S
H1761 C1753 0.960 1_554 S
H1762 C1754 0.930 . S
H1763 C1755 0.929 . S
H1764 C1772 0.929 . S
H1765 C1774 0.930 . S
H1766 C1776 0.930 . S
H1767 C1779 0.929 . S
H1768 C1782 0.930 . S
H1769 C1784 0.960 . S
H1770 C1784 0.960 . S
H1771 C1784 0.960 . S
C1772 H1764 0.929 . S
C1772 C1773 1.377 . S
C1772 C1774 1.384 . S
C1773 C1772 1.377 . S
C1773 C1779 1.390 . S
C1774 H1765 0.930 . S
C1774 C1772 1.384 . S
C1774 C1775 1.372 . S
C1775 C1774 1.372 . S
C1775 C1776 1.400 . S
C1775 C1780 1.490 . S
C1776 H1766 0.930 . S
C1776 C1775 1.400 . S
C1776 C1779 1.386 . S
H1777 C1793 0.930 . S
H1778 C1794 0.931 . S
C1779 H1767 0.929 . S
C1779 C1773 1.390 . S
C1779 C1776 1.386 . S
C1780 C1775 1.490 . S
C1780 C1782 1.395 . S
C1780 C1783 1.403 . S
H1781 C1787 0.930 . S
C1782 H1768 0.930 . S
C1782 C1780 1.395 . S
C1782 C1785 1.403 . S
C1783 C1780 1.403 . S
C1783 C1784 1.524 . S
C1783 C1787 1.400 . S
C1784 H1769 0.960 . S
C1784 H1770 0.960 . S
C1784 H1771 0.960 . S
C1784 C1783 1.524 . S
C1785 C1782 1.403 . S
C1785 C1786 1.392 . S
C1785 C1789 1.495 . S
C1786 C1785 1.392 . S
C1786 C1787 1.385 . S
C1786 C1788 1.478 . S
C1787 H1781 0.930 . S
C1787 C1783 1.400 . S
C1787 C1786 1.385 . S
C1788 C1786 1.478 . S
C1788 C1790 1.381 . S
C1788 C1794 1.383 . S
C1789 C1785 1.495 . S
C1789 H1795 0.959 . S
C1789 H1796 0.961 . S
C1789 H1797 0.960 . S
C1790 C1788 1.381 . S
C1790 C1791 1.394 . S
C1790 H1798 0.930 . S
C1791 C1790 1.394 . S
C1791 C1792 1.383 . S
C1791 H1799 0.929 . S
C1792 C1791 1.383 . S
C1792 C1793 1.377 . S
C1793 H1777 0.930 . S
C1793 C1792 1.377 . S
C1793 C1794 1.379 . S
C1794 H1778 0.931 . S
C1794 C1788 1.383 . S
C1794 C1793 1.379 . S
H1795 C1789 0.959 . S
H1796 C1789 0.961 . S
H1797 C1789 0.960 . S
H1798 C1790 0.930 . S
H1799 C1791 0.929 . S
H1800 C1808 0.929 . S
H1801 C1810 0.930 . S
H1802 C1812 0.930 . S
H1803 C1815 0.929 . S
H1804 C1818 0.930 . S
H1805 C1820 0.960 . S
H1806 C1820 0.960 . S
H1807 C1820 0.960 . S
C1808 H1800 0.929 . S
C1808 C1809 1.377 . S
C1808 C1810 1.384 . S
C1809 C1808 1.377 . S
C1809 C1815 1.390 . S
C1810 H1801 0.930 . S
C1810 C1808 1.384 . S
C1810 C1811 1.372 . S
C1811 C1810 1.372 . S
C1811 C1812 1.400 . S
C1811 C1816 1.490 . S
C1812 H1802 0.930 . S
C1812 C1811 1.400 . S
C1812 C1815 1.386 . S
H1813 C1829 0.930 . S
H1814 C1830 0.931 . S
C1815 H1803 0.929 . S
C1815 C1809 1.390 . S
C1815 C1812 1.386 . S
C1816 C1811 1.490 . S
C1816 C1818 1.395 . S
C1816 C1819 1.403 . S
H1817 C1823 0.930 . S
C1818 H1804 0.930 . S
C1818 C1816 1.395 . S
C1818 C1821 1.403 . S
C1819 C1816 1.403 . S
C1819 C1820 1.524 . S
C1819 C1823 1.400 . S
C1820 H1805 0.960 . S
C1820 H1806 0.960 . S
C1820 H1807 0.960 . S
C1820 C1819 1.524 . S
C1821 C1818 1.403 . S
C1821 C1822 1.392 . S
C1821 C1825 1.495 . S
C1822 C1821 1.392 . S
C1822 C1823 1.385 . S
C1822 C1824 1.478 . S
C1823 H1817 0.930 . S
C1823 C1819 1.400 . S
C1823 C1822 1.385 . S
C1824 C1822 1.478 . S
C1824 C1826 1.381 . S
C1824 C1830 1.383 . S
C1825 C1821 1.495 . S
C1825 H1831 0.959 . S
C1825 H1832 0.961 . S
C1825 H1833 0.960 . S
C1826 C1824 1.381 . S
C1826 C1827 1.394 . S
C1826 H1834 0.930 . S
C1827 C1826 1.394 . S
C1827 C1828 1.383 . S
C1827 H1835 0.929 . S
C1828 C1827 1.383 . S
C1828 C1829 1.377 . S
C1829 H1813 0.930 . S
C1829 C1828 1.377 . S
C1829 C1830 1.379 . S
C1830 H1814 0.931 . S
C1830 C1824 1.383 . S
C1830 C1829 1.379 . S
H1831 C1825 0.959 . S
H1832 C1825 0.961 . S
H1833 C1825 0.960 . S
H1834 C1826 0.930 . S
H1835 C1827 0.929 . S
H1836 C1844 0.929 . S
H1837 C1846 0.930 . S
H1838 C1848 0.930 . S
H1839 C1851 0.929 . S
H1840 C1854 0.930 . S
H1841 C1856 0.960 . S
H1842 C1856 0.960 . S
H1843 C1856 0.960 . S
C1844 H1836 0.929 . S
C1844 C1845 1.377 . S
C1844 C1846 1.384 . S
C1845 C1844 1.377 . S
C1845 C1851 1.390 . S
C1846 H1837 0.930 . S
C1846 C1844 1.384 . S
C1846 C1847 1.372 . S
C1847 C1846 1.372 . S
C1847 C1848 1.400 . S
C1847 C1852 1.490 . S
C1848 H1838 0.930 . S
C1848 C1847 1.400 . S
C1848 C1851 1.386 . S
H1849 C1865 0.930 . S
H1850 C1866 0.931 . S
C1851 H1839 0.929 . S
C1851 C1845 1.390 . S
C1851 C1848 1.386 . S
C1852 C1847 1.490 . S
C1852 C1854 1.395 . S
C1852 C1855 1.403 . S
H1853 C1859 0.930 . S
C1854 H1840 0.930 . S
C1854 C1852 1.395 . S
C1854 C1857 1.403 . S
C1855 C1852 1.403 . S
C1855 C1856 1.524 . S
C1855 C1859 1.400 . S
C1856 H1841 0.960 . S
C1856 H1842 0.960 . S
C1856 H1843 0.960 . S
C1856 C1855 1.524 . S
C1857 C1854 1.403 . S
C1857 C1858 1.392 . S
C1857 C1861 1.495 . S
C1858 C1857 1.392 . S
C1858 C1859 1.385 . S
C1858 C1860 1.478 . S
C1859 H1853 0.930 . S
C1859 C1855 1.400 . S
C1859 C1858 1.385 . S
C1860 C1858 1.478 . S
C1860 C1862 1.381 . S
C1860 C1866 1.383 . S
C1861 C1857 1.495 . S
C1861 H1867 0.959 . S
C1861 H1868 0.961 . S
C1861 H1869 0.960 . S
C1862 C1860 1.381 . S
C1862 C1863 1.394 . S
C1862 H1870 0.930 . S
C1863 C1862 1.394 . S
C1863 C1864 1.383 . S
C1863 H1871 0.929 . S
C1864 C1863 1.383 . S
C1864 C1865 1.377 . S
C1865 H1849 0.930 . S
C1865 C1864 1.377 . S
C1865 C1866 1.379 . S
C1866 H1850 0.931 . S
C1866 C1860 1.383 . S
C1866 C1865 1.379 . S
H1867 C1861 0.959 . S
H1868 C1861 0.961 . S
H1869 C1861 0.960 . S
H1870 C1862 0.930 . S
H1871 C1863 0.929 . S
H1872 C1880 0.929 . S
H1873 C1882 0.930 . S
H1874 C1884 0.930 . S
H1875 C1887 0.929 . S
H1876 C1890 0.930 . S
H1877 C1892 0.960 . S
H1878 C1892 0.960 . S
H1879 C1892 0.960 . S
C1880 H1872 0.929 . S
C1880 C1881 1.377 . S
C1880 C1882 1.384 . S
C1881 C1880 1.377 . S
C1881 C1887 1.390 . S
C1882 H1873 0.930 . S
C1882 C1880 1.384 . S
C1882 C1883 1.372 . S
C1883 C1882 1.372 . S
C1883 C1884 1.400 . S
C1883 C1888 1.490 . S
C1884 H1874 0.930 . S
C1884 C1883 1.400 . S
C1884 C1887 1.386 . S
H1885 C1901 0.930 . S
H1886 C1902 0.931 . S
C1887 H1875 0.929 . S
C1887 C1881 1.390 . S
C1887 C1884 1.386 . S
C1888 C1883 1.490 . S
C1888 C1890 1.395 . S
C1888 C1891 1.403 . S
H1889 C1895 0.930 . S
C1890 H1876 0.930 . S
C1890 C1888 1.395 . S
C1890 C1893 1.403 . S
C1891 C1888 1.403 . S
C1891 C1892 1.524 . S
C1891 C1895 1.400 . S
C1892 H1877 0.960 . S
C1892 H1878 0.960 . S
C1892 H1879 0.960 . S
C1892 C1891 1.524 . S
C1893 C1890 1.403 . S
C1893 C1894 1.392 . S
C1893 C1897 1.495 . S
C1894 C1893 1.392 . S
C1894 C1895 1.385 . S
C1894 C1896 1.478 . S
C1895 H1889 0.930 . S
C1895 C1891 1.400 . S
C1895 C1894 1.385 . S
C1896 C1894 1.478 . S
C1896 C1898 1.381 . S
C1896 C1902 1.383 . S
C1897 C1893 1.495 . S
C1897 H1903 0.959 . S
C1897 H1904 0.961 . S
C1897 H1905 0.960 . S
C1898 C1896 1.381 . S
C1898 C1899 1.394 . S
C1898 H1906 0.930 . S
C1899 C1898 1.394 . S
C1899 C1900 1.383 . S
C1899 H1907 0.929 . S
C1900 C1899 1.383 . S
C1900 C1901 1.377 . S
C1901 H1885 0.930 . S
C1901 C1900 1.377 . S
C1901 C1902 1.379 . S
C1902 H1886 0.931 . S
C1902 C1896 1.383 . S
C1902 C1901 1.379 . S
H1903 C1897 0.959 . S
H1904 C1897 0.961 . S
H1905 C1897 0.960 . S
H1906 C1898 0.930 . S
H1907 C1899 0.929 . S
H1908 C1916 0.929 . S
H1909 C1918 0.930 . S
H1910 C1920 0.930 . S
H1911 C1923 0.929 . S
H1912 C1926 0.930 . S
H1913 C1928 0.960 . S
H1914 C1928 0.960 . S
H1915 C1928 0.960 . S
C1916 H1908 0.929 . S
C1916 C1917 1.377 . S
C1916 C1918 1.384 . S
C1917 C1916 1.377 . S
C1917 C1923 1.390 . S
C1918 H1909 0.930 . S
C1918 C1916 1.384 . S
C1918 C1919 1.372 . S
C1919 C1918 1.372 . S
C1919 C1920 1.400 . S
C1919 C1924 1.490 . S
C1920 H1910 0.930 . S
C1920 C1919 1.400 . S
C1920 C1923 1.386 . S
H1921 C1937 0.930 . S
H1922 C1938 0.931 . S
C1923 H1911 0.929 . S
C1923 C1917 1.390 . S
C1923 C1920 1.386 . S
C1924 C1919 1.490 . S
C1924 C1926 1.395 . S
C1924 C1927 1.403 . S
H1925 C1931 0.930 . S
C1926 H1912 0.930 . S
C1926 C1924 1.395 . S
C1926 C1929 1.403 . S
C1927 C1924 1.403 . S
C1927 C1928 1.524 . S
C1927 C1931 1.400 . S
C1928 H1913 0.960 . S
C1928 H1914 0.960 . S
C1928 H1915 0.960 . S
C1928 C1927 1.524 . S
C1929 C1926 1.403 . S
C1929 C1930 1.392 . S
C1929 C1933 1.495 . S
C1930 C1929 1.392 . S
C1930 C1931 1.385 . S
C1930 C1932 1.478 . S
C1931 H1925 0.930 . S
C1931 C1927 1.400 . S
C1931 C1930 1.385 . S
C1932 C1930 1.478 . S
C1932 C1934 1.381 . S
C1932 C1938 1.383 . S
C1933 C1929 1.495 . S
C1933 H1939 0.959 . S
C1933 H1940 0.961 . S
C1933 H1941 0.960 . S
C1934 C1932 1.381 . S
C1934 C1935 1.394 . S
C1934 H1942 0.930 . S
C1935 C1934 1.394 . S
C1935 C1936 1.383 . S
C1935 H1943 0.929 . S
C1936 C1935 1.383 . S
C1936 C1937 1.377 . S
C1937 H1921 0.930 . S
C1937 C1936 1.377 . S
C1937 C1938 1.379 . S
C1938 H1922 0.931 . S
C1938 C1932 1.383 . S
C1938 C1937 1.379 . S
H1939 C1933 0.959 . S
H1940 C1933 0.961 . S
H1941 C1933 0.960 . S
H1942 C1934 0.930 . S
H1943 C1935 0.929 . S
H1944 C1952 0.929 . S
H1945 C1954 0.930 . S
H1946 C1956 0.930 . S
H1947 C1959 0.929 . S
H1948 C1962 0.930 . S
H1949 C1964 0.960 . S
H1950 C1964 0.960 . S
H1951 C1964 0.960 . S
C1952 H1944 0.929 . S
C1952 C1953 1.377 . S
C1952 C1954 1.384 . S
C1953 C1952 1.377 . S
C1953 C1959 1.390 . S
C1954 H1945 0.930 . S
C1954 C1952 1.384 . S
C1954 C1955 1.372 . S
C1955 C1954 1.372 . S
C1955 C1956 1.400 . S
C1955 C1960 1.490 . S
C1956 H1946 0.930 . S
C1956 C1955 1.400 . S
C1956 C1959 1.386 . S
H1957 C1973 0.930 . S
H1958 C1974 0.931 . S
C1959 H1947 0.929 . S
C1959 C1953 1.390 . S
C1959 C1956 1.386 . S
C1960 C1955 1.490 . S
C1960 C1962 1.395 . S
C1960 C1963 1.403 . S
H1961 C1967 0.930 . S
C1962 H1948 0.930 . S
C1962 C1960 1.395 . S
C1962 C1965 1.403 . S
C1963 C1960 1.403 . S
C1963 C1964 1.524 . S
C1963 C1967 1.400 . S
C1964 H1949 0.960 . S
C1964 H1950 0.960 . S
C1964 H1951 0.960 . S
C1964 C1963 1.524 . S
C1965 C1962 1.403 . S
C1965 C1966 1.392 . S
C1965 C1969 1.495 . S
C1966 C1965 1.392 . S
C1966 C1967 1.385 . S
C1966 C1968 1.478 . S
C1967 H1961 0.930 . S
C1967 C1963 1.400 . S
C1967 C1966 1.385 . S
C1968 C1966 1.478 . S
C1968 C1970 1.381 . S
C1968 C1974 1.383 . S
C1969 C1965 1.495 . S
C1969 H1975 0.959 . S
C1969 H1976 0.961 . S
C1969 H1977 0.960 . S
C1970 C1968 1.381 . S
C1970 C1971 1.394 . S
C1970 H1978 0.930 . S
C1971 C1970 1.394 . S
C1971 C1972 1.383 . S
C1971 H1979 0.929 . S
C1972 C1971 1.383 . S
C1972 C1973 1.377 . S
C1973 H1957 0.930 . S
C1973 C1972 1.377 . S
C1973 C1974 1.379 . S
C1974 H1958 0.931 . S
C1974 C1968 1.383 . S
C1974 C1973 1.379 . S
H1975 C1969 0.959 . S
H1976 C1969 0.961 . S
H1977 C1969 0.960 . S
H1978 C1970 0.930 . S
H1979 C1971 0.929 . S
H1980 C1988 0.929 . S
H1981 C1990 0.930 . S
H1982 C1992 0.930 . S
H1983 C1995 0.929 . S
H1984 C1998 0.930 . S
H1985 C2000 0.960 . S
H1986 C2000 0.960 . S
H1987 C2000 0.960 . S
C1988 H1980 0.929 . S
C1988 C1989 1.377 . S
C1988 C1990 1.384 . S
C1989 C1988 1.377 . S
C1989 C1995 1.390 . S
C1990 H1981 0.930 . S
C1990 C1988 1.384 . S
C1990 C1991 1.372 . S
C1991 C1990 1.372 . S
C1991 C1992 1.400 . S
C1991 C1996 1.490 . S
C1992 H1982 0.930 . S
C1992 C1991 1.400 . S
C1992 C1995 1.386 . S
H1993 C2009 0.930 . S
H1994 C2010 0.931 . S
C1995 H1983 0.929 . S
C1995 C1989 1.390 . S
C1995 C1992 1.386 . S
C1996 C1991 1.490 . S
C1996 C1998 1.395 . S
C1996 C1999 1.403 . S
H1997 C2003 0.930 . S
C1998 H1984 0.930 . S
C1998 C1996 1.395 . S
C1998 C2001 1.403 . S
C1999 C1996 1.403 . S
C1999 C2000 1.524 . S
C1999 C2003 1.400 . S
C2000 H1985 0.960 . S
C2000 H1986 0.960 . S
C2000 H1987 0.960 . S
C2000 C1999 1.524 . S
C2001 C1998 1.403 . S
C2001 C2002 1.392 . S
C2001 C2005 1.495 . S
C2002 C2001 1.392 . S
C2002 C2003 1.385 . S
C2002 C2004 1.478 . S
C2003 H1997 0.930 . S
C2003 C1999 1.400 . S
C2003 C2002 1.385 . S
C2004 C2002 1.478 . S
C2004 C2006 1.381 . S
C2004 C2010 1.383 . S
C2005 C2001 1.495 . S
C2005 H2011 0.959 . S
C2005 H2012 0.961 . S
C2005 H2013 0.960 . S
C2006 C2004 1.381 . S
C2006 C2007 1.394 . S
C2006 H2014 0.930 . S
C2007 C2006 1.394 . S
C2007 C2008 1.383 . S
C2007 H2015 0.929 . S
C2008 C2007 1.383 . S
C2008 C2009 1.377 . S
C2009 H1993 0.930 . S
C2009 C2008 1.377 . S
C2009 C2010 1.379 . S
C2010 H1994 0.931 . S
C2010 C2004 1.383 . S
C2010 C2009 1.379 . S
H2011 C2005 0.959 . S
H2012 C2005 0.961 . S
H2013 C2005 0.960 . S
H2014 C2006 0.930 . S
H2015 C2007 0.929 . S
H2016 C2024 0.929 . S
H2017 C2026 0.930 . S
H2018 C2028 0.930 . S
H2019 C2031 0.929 . S
H2020 C2034 0.930 . S
H2021 C2036 0.960 . S
H2022 C2036 0.960 . S
H2023 C2036 0.960 . S
C2024 H2016 0.929 . S
C2024 C2025 1.377 . S
C2024 C2026 1.384 . S
C2025 C2024 1.377 . S
C2025 C2031 1.390 . S
C2026 H2017 0.930 . S
C2026 C2024 1.384 . S
C2026 C2027 1.372 . S
C2027 C2026 1.372 . S
C2027 C2028 1.400 . S
C2027 C2032 1.490 . S
C2028 H2018 0.930 . S
C2028 C2027 1.400 . S
C2028 C2031 1.386 . S
H2029 C2045 0.930 . S
H2030 C2046 0.931 . S
C2031 H2019 0.929 . S
C2031 C2025 1.390 . S
C2031 C2028 1.386 . S
C2032 C2027 1.490 . S
C2032 C2034 1.395 . S
C2032 C2035 1.403 . S
H2033 C2039 0.930 . S
C2034 H2020 0.930 . S
C2034 C2032 1.395 . S
C2034 C2037 1.403 . S
C2035 C2032 1.403 . S
C2035 C2036 1.524 . S
C2035 C2039 1.400 . S
C2036 H2021 0.960 . S
C2036 H2022 0.960 . S
C2036 H2023 0.960 . S
C2036 C2035 1.524 . S
C2037 C2034 1.403 . S
C2037 C2038 1.392 . S
C2037 C2041 1.495 . S
C2038 C2037 1.392 . S
C2038 C2039 1.385 . S
C2038 C2040 1.478 . S
C2039 H2033 0.930 . S
C2039 C2035 1.400 . S
C2039 C2038 1.385 . S
C2040 C2038 1.478 . S
C2040 C2042 1.381 . S
C2040 C2046 1.383 . S
C2041 C2037 1.495 . S
C2041 H2047 0.959 . S
C2041 H2048 0.961 . S
C2041 H2049 0.960 . S
C2042 C2040 1.381 . S
C2042 C2043 1.394 . S
C2042 H2050 0.930 . S
C2043 C2042 1.394 . S
C2043 C2044 1.383 . S
C2043 H2051 0.929 . S
C2044 C2043 1.383 . S
C2044 C2045 1.377 . S
C2045 H2029 0.930 . S
C2045 C2044 1.377 . S
C2045 C2046 1.379 . S
C2046 H2030 0.931 . S
C2046 C2040 1.383 . S
C2046 C2045 1.379 . S
H2047 C2041 0.959 . S
H2048 C2041 0.961 . S
H2049 C2041 0.960 . S
H2050 C2042 0.930 . S
H2051 C2043 0.929 . S
H2052 C2060 0.929 . S
H2053 C2062 0.930 . S
H2054 C2064 0.930 . S
H2055 C2067 0.929 . S
H2056 C2070 0.930 . S
H2057 C2072 0.960 . S
H2058 C2072 0.960 . S
H2059 C2072 0.960 . S
C2060 H2052 0.929 . S
C2060 C2061 1.377 . S
C2060 C2062 1.384 . S
C2061 C2060 1.377 . S
C2061 C2067 1.390 . S
C2062 H2053 0.930 . S
C2062 C2060 1.384 . S
C2062 C2063 1.372 . S
C2063 C2062 1.372 . S
C2063 C2064 1.400 . S
C2063 C2068 1.490 . S
C2064 H2054 0.930 . S
C2064 C2063 1.400 . S
C2064 C2067 1.386 . S
H2065 C2081 0.930 . S
H2066 C2082 0.931 . S
C2067 H2055 0.929 . S
C2067 C2061 1.390 . S
C2067 C2064 1.386 . S
C2068 C2063 1.490 . S
C2068 C2070 1.395 . S
C2068 C2071 1.403 . S
H2069 C2075 0.930 . S
C2070 H2056 0.930 . S
C2070 C2068 1.395 . S
C2070 C2073 1.403 . S
C2071 C2068 1.403 . S
C2071 C2072 1.524 . S
C2071 C2075 1.400 . S
C2072 H2057 0.960 . S
C2072 H2058 0.960 . S
C2072 H2059 0.960 . S
C2072 C2071 1.524 . S
C2073 C2070 1.403 . S
C2073 C2074 1.392 . S
C2073 C2077 1.495 . S
C2074 C2073 1.392 . S
C2074 C2075 1.385 . S
C2074 C2076 1.478 . S
C2075 H2069 0.930 . S
C2075 C2071 1.400 . S
C2075 C2074 1.385 . S
C2076 C2074 1.478 . S
C2076 C2078 1.381 . S
C2076 C2082 1.383 . S
C2077 C2073 1.495 . S
C2077 H2083 0.959 . S
C2077 H2084 0.961 . S
C2077 H2085 0.960 . S
C2078 C2076 1.381 . S
C2078 C2079 1.394 . S
C2078 H2086 0.930 . S
C2079 C2078 1.394 . S
C2079 C2080 1.383 . S
C2079 H2087 0.929 . S
C2080 C2079 1.383 . S
C2080 C2081 1.377 . S
C2081 H2065 0.930 . S
C2081 C2080 1.377 . S
C2081 C2082 1.379 . S
C2082 H2066 0.931 . S
C2082 C2076 1.383 . S
C2082 C2081 1.379 . S
H2083 C2077 0.959 . S
H2084 C2077 0.961 . S
H2085 C2077 0.960 . S
H2086 C2078 0.930 . S
H2087 C2079 0.929 . S
H2088 C2096 0.929 . S
H2089 C2098 0.930 . S
H2090 C2100 0.930 . S
H2091 C2103 0.929 . S
H2092 C2106 0.930 . S
H2093 C2108 0.960 . S
H2094 C2108 0.960 . S
H2095 C2108 0.960 . S
C2096 H2088 0.929 . S
C2096 C2097 1.377 . S
C2096 C2098 1.384 . S
C2097 C2096 1.377 . S
C2097 C2103 1.390 . S
C2098 H2089 0.930 . S
C2098 C2096 1.384 . S
C2098 C2099 1.372 . S
C2099 C2098 1.372 . S
C2099 C2100 1.400 . S
C2099 C2104 1.490 . S
C2100 H2090 0.930 . S
C2100 C2099 1.400 . S
C2100 C2103 1.386 . S
H2101 C2117 0.930 . S
H2102 C2118 0.931 . S
C2103 H2091 0.929 . S
C2103 C2097 1.390 . S
C2103 C2100 1.386 . S
C2104 C2099 1.490 . S
C2104 C2106 1.395 . S
C2104 C2107 1.403 . S
H2105 C2111 0.930 . S
C2106 H2092 0.930 . S
C2106 C2104 1.395 . S
C2106 C2109 1.403 . S
C2107 C2104 1.403 . S
C2107 C2108 1.524 . S
C2107 C2111 1.400 . S
C2108 H2093 0.960 . S
C2108 H2094 0.960 . S
C2108 H2095 0.960 . S
C2108 C2107 1.524 . S
C2109 C2106 1.403 . S
C2109 C2110 1.392 . S
C2109 C2113 1.495 . S
C2110 C2109 1.392 . S
C2110 C2111 1.385 . S
C2110 C2112 1.478 . S
C2111 H2105 0.930 . S
C2111 C2107 1.400 . S
C2111 C2110 1.385 . S
C2112 C2110 1.478 . S
C2112 C2114 1.381 . S
C2112 C2118 1.383 . S
C2113 C2109 1.495 . S
C2113 H2119 0.959 . S
C2113 H2120 0.961 . S
C2113 H2121 0.960 . S
C2114 C2112 1.381 . S
C2114 C2115 1.394 . S
C2114 H2122 0.930 . S
C2115 C2114 1.394 . S
C2115 C2116 1.383 . S
C2115 H2123 0.929 . S
C2116 C2115 1.383 . S
C2116 C2117 1.377 . S
C2117 H2101 0.930 . S
C2117 C2116 1.377 . S
C2117 C2118 1.379 . S
C2118 H2102 0.931 . S
C2118 C2112 1.383 . S
C2118 C2117 1.379 . S
H2119 C2113 0.959 . S
H2120 C2113 0.961 . S
H2121 C2113 0.960 . S
H2122 C2114 0.930 . S
H2123 C2115 0.929 . S
H2124 C2132 0.929 . S
H2125 C2134 0.930 . S
H2126 C2136 0.930 . S
H2127 C2139 0.929 . S
H2128 C2142 0.930 . S
H2129 C2144 0.960 . S
H2130 C2144 0.960 . S
H2131 C2144 0.960 . S
C2132 H2124 0.929 . S
C2132 C2133 1.377 . S
C2132 C2134 1.384 . S
C2133 C2132 1.377 . S
C2133 C2139 1.390 . S
C2134 H2125 0.930 . S
C2134 C2132 1.384 . S
C2134 C2135 1.372 . S
C2135 C2134 1.372 . S
C2135 C2136 1.400 . S
C2135 C2140 1.490 . S
C2136 H2126 0.930 . S
C2136 C2135 1.400 . S
C2136 C2139 1.386 . S
H2137 C2153 0.930 . S
H2138 C2154 0.931 . S
C2139 H2127 0.929 . S
C2139 C2133 1.390 . S
C2139 C2136 1.386 . S
C2140 C2135 1.490 . S
C2140 C2142 1.395 . S
C2140 C2143 1.403 . S
H2141 C2147 0.930 . S
C2142 H2128 0.930 . S
C2142 C2140 1.395 . S
C2142 C2145 1.403 . S
C2143 C2140 1.403 . S
C2143 C2144 1.524 . S
C2143 C2147 1.400 . S
C2144 H2129 0.960 . S
C2144 H2130 0.960 . S
C2144 H2131 0.960 . S
C2144 C2143 1.524 . S
C2145 C2142 1.403 . S
C2145 C2146 1.392 . S
C2145 C2149 1.495 . S
C2146 C2145 1.392 . S
C2146 C2147 1.385 . S
C2146 C2148 1.478 . S
C2147 H2141 0.930 . S
C2147 C2143 1.400 . S
C2147 C2146 1.385 . S
C2148 C2146 1.478 . S
C2148 C2150 1.381 . S
C2148 C2154 1.383 . S
C2149 C2145 1.495 . S
C2149 H2155 0.959 . S
C2149 H2156 0.961 . S
C2149 H2157 0.960 . S
C2150 C2148 1.381 . S
C2150 C2151 1.394 . S
C2150 H2158 0.930 . S
C2151 C2150 1.394 . S
C2151 C2152 1.383 . S
C2151 H2159 0.929 . S
C2152 C2151 1.383 . S
C2152 C2153 1.377 . S
C2153 H2137 0.930 . S
C2153 C2152 1.377 . S
C2153 C2154 1.379 . S
C2154 H2138 0.931 . S
C2154 C2148 1.383 . S
C2154 C2153 1.379 . S
H2155 C2149 0.959 . S
H2156 C2149 0.961 . S
H2157 C2149 0.960 . S
H2158 C2150 0.930 . S
H2159 C2151 0.929 . S
H2160 C2168 0.929 . S
H2161 C2170 0.930 . S
H2162 C2172 0.930 . S
H2163 C2175 0.929 . S
H2164 C2178 0.930 . S
H2165 C2180 0.960 . S
H2166 C2180 0.960 . S
H2167 C2180 0.960 . S
C2168 H2160 0.929 . S
C2168 C2169 1.377 . S
C2168 C2170 1.384 . S
C2169 C2168 1.377 . S
C2169 C2175 1.390 . S
C2170 H2161 0.930 . S
C2170 C2168 1.384 . S
C2170 C2171 1.372 . S
C2171 C2170 1.372 . S
C2171 C2172 1.400 . S
C2171 C2176 1.490 . S
C2172 H2162 0.930 . S
C2172 C2171 1.400 . S
C2172 C2175 1.386 . S
H2173 C2189 0.930 . S
H2174 C2190 0.931 . S
C2175 H2163 0.929 . S
C2175 C2169 1.390 . S
C2175 C2172 1.386 . S
C2176 C2171 1.490 . S
C2176 C2178 1.395 . S
C2176 C2179 1.403 . S
H2177 C2183 0.930 . S
C2178 H2164 0.930 . S
C2178 C2176 1.395 . S
C2178 C2181 1.403 . S
C2179 C2176 1.403 . S
C2179 C2180 1.524 . S
C2179 C2183 1.400 . S
C2180 H2165 0.960 . S
C2180 H2166 0.960 . S
C2180 H2167 0.960 . S
C2180 C2179 1.524 . S
C2181 C2178 1.403 . S
C2181 C2182 1.392 . S
C2181 C2185 1.495 . S
C2182 C2181 1.392 . S
C2182 C2183 1.385 . S
C2182 C2184 1.478 . S
C2183 H2177 0.930 . S
C2183 C2179 1.400 . S
C2183 C2182 1.385 . S
C2184 C2182 1.478 . S
C2184 C2186 1.381 . S
C2184 C2190 1.383 . S
C2185 C2181 1.495 . S
C2185 H2191 0.959 . S
C2185 H2192 0.961 . S
C2185 H2193 0.960 . S
C2186 C2184 1.381 . S
C2186 C2187 1.394 . S
C2186 H2194 0.930 . S
C2187 C2186 1.394 . S
C2187 C2188 1.383 . S
C2187 H2195 0.929 . S
C2188 C2187 1.383 . S
C2188 C2189 1.377 . S
C2189 H2173 0.930 . S
C2189 C2188 1.377 . S
C2189 C2190 1.379 . S
C2190 H2174 0.931 . S
C2190 C2184 1.383 . S
C2190 C2189 1.379 . S
H2191 C2185 0.959 . S
H2192 C2185 0.961 . S
H2193 C2185 0.960 . S
H2194 C2186 0.930 . S
H2195 C2187 0.929 . S
H2196 C2204 0.929 . S
H2197 C2206 0.930 . S
H2198 C2208 0.930 . S
H2199 C2211 0.929 . S
H2200 C2214 0.930 . S
H2201 C2216 0.960 . S
H2202 C2216 0.960 . S
H2203 C2216 0.960 . S
C2204 H2196 0.929 . S
C2204 C2205 1.377 . S
C2204 C2206 1.384 . S
C2205 C2204 1.377 . S
C2205 C2211 1.390 . S
C2206 H2197 0.930 . S
C2206 C2204 1.384 . S
C2206 C2207 1.372 . S
C2207 C2206 1.372 . S
C2207 C2208 1.400 . S
C2207 C2212 1.490 . S
C2208 H2198 0.930 . S
C2208 C2207 1.400 . S
C2208 C2211 1.386 . S
H2209 C2225 0.930 . S
H2210 C2226 0.931 . S
C2211 H2199 0.929 . S
C2211 C2205 1.390 . S
C2211 C2208 1.386 . S
C2212 C2207 1.490 . S
C2212 C2214 1.395 . S
C2212 C2215 1.403 . S
H2213 C2219 0.930 . S
C2214 H2200 0.930 . S
C2214 C2212 1.395 . S
C2214 C2217 1.403 . S
C2215 C2212 1.403 . S
C2215 C2216 1.524 . S
C2215 C2219 1.400 . S
C2216 H2201 0.960 . S
C2216 H2202 0.960 . S
C2216 H2203 0.960 . S
C2216 C2215 1.524 . S
C2217 C2214 1.403 . S
C2217 C2218 1.392 . S
C2217 C2221 1.495 . S
C2218 C2217 1.392 . S
C2218 C2219 1.385 . S
C2218 C2220 1.478 . S
C2219 H2213 0.930 . S
C2219 C2215 1.400 . S
C2219 C2218 1.385 . S
C2220 C2218 1.478 . S
C2220 C2222 1.381 . S
C2220 C2226 1.383 . S
C2221 C2217 1.495 . S
C2221 H2227 0.959 . S
C2221 H2228 0.961 . S
C2221 H2229 0.960 . S
C2222 C2220 1.381 . S
C2222 C2223 1.394 . S
C2222 H2230 0.930 . S
C2223 C2222 1.394 . S
C2223 C2224 1.383 . S
C2223 H2231 0.929 . S
C2224 C2223 1.383 . S
C2224 C2225 1.377 . S
C2225 H2209 0.930 . S
C2225 C2224 1.377 . S
C2225 C2226 1.379 . S
C2226 H2210 0.931 . S
C2226 C2220 1.383 . S
C2226 C2225 1.379 . S
H2227 C2221 0.959 . S
H2228 C2221 0.961 . S
H2229 C2221 0.960 . S
H2230 C2222 0.930 . S
H2231 C2223 0.929 . S
H2232 C2240 0.929 . S
H2233 C2242 0.930 . S
H2234 C2244 0.930 . S
H2235 C2247 0.929 . S
H2236 C2250 0.930 . S
H2237 C2252 0.960 . S
H2238 C2252 0.960 . S
H2239 C2252 0.960 . S
C2240 H2232 0.929 . S
C2240 C2241 1.377 . S
C2240 C2242 1.384 . S
C2241 C2240 1.377 . S
C2241 C2247 1.390 . S
C2242 H2233 0.930 . S
C2242 C2240 1.384 . S
C2242 C2243 1.372 . S
C2243 C2242 1.372 . S
C2243 C2244 1.400 . S
C2243 C2248 1.490 . S
C2244 H2234 0.930 . S
C2244 C2243 1.400 . S
C2244 C2247 1.386 . S
H2245 C2261 0.930 . S
H2246 C2262 0.931 . S
C2247 H2235 0.929 . S
C2247 C2241 1.390 . S
C2247 C2244 1.386 . S
C2248 C2243 1.490 . S
C2248 C2250 1.395 . S
C2248 C2251 1.403 . S
H2249 C2255 0.930 . S
C2250 H2236 0.930 . S
C2250 C2248 1.395 . S
C2250 C2253 1.403 . S
C2251 C2248 1.403 . S
C2251 C2252 1.524 . S
C2251 C2255 1.400 . S
C2252 H2237 0.960 . S
C2252 H2238 0.960 . S
C2252 H2239 0.960 . S
C2252 C2251 1.524 . S
C2253 C2250 1.403 . S
C2253 C2254 1.392 . S
C2253 C2257 1.495 . S
C2254 C2253 1.392 . S
C2254 C2255 1.385 . S
C2254 C2256 1.478 . S
C2255 H2249 0.930 . S
C2255 C2251 1.400 . S
C2255 C2254 1.385 . S
C2256 C2254 1.478 . S
C2256 C2258 1.381 . S
C2256 C2262 1.383 . S
C2257 C2253 1.495 . S
C2257 H2263 0.959 . S
C2257 H2264 0.961 . S
C2257 H2265 0.960 . S
C2258 C2256 1.381 . S
C2258 C2259 1.394 . S
C2258 H2266 0.930 . S
C2259 C2258 1.394 . S
C2259 C2260 1.383 . S
C2259 H2267 0.929 . S
C2260 C2259 1.383 . S
C2260 C2261 1.377 . S
C2261 H2245 0.930 . S
C2261 C2260 1.377 . S
C2261 C2262 1.379 . S
C2262 H2246 0.931 . S
C2262 C2256 1.383 . S
C2262 C2261 1.379 . S
H2263 C2257 0.959 . S
H2264 C2257 0.961 . S
H2265 C2257 0.960 . S
H2266 C2258 0.930 . S
H2267 C2259 0.929 . S
H2268 C2276 0.929 . S
H2269 C2278 0.930 . S
H2270 C2280 0.930 . S
H2271 C2283 0.929 . S
H2272 C2286 0.930 . S
H2273 C2288 0.960 . S
H2274 C2288 0.960 . S
H2275 C2288 0.960 . S
C2276 H2268 0.929 . S
C2276 C2277 1.377 . S
C2276 C2278 1.384 . S
C2277 C2276 1.377 . S
C2277 C2283 1.390 . S
C2278 H2269 0.930 . S
C2278 C2276 1.384 . S
C2278 C2279 1.372 . S
C2279 C2278 1.372 . S
C2279 C2280 1.400 . S
C2279 C2284 1.490 . S
C2280 H2270 0.930 . S
C2280 C2279 1.400 . S
C2280 C2283 1.386 . S
H2281 C2297 0.930 . S
H2282 C2298 0.931 . S
C2283 H2271 0.929 . S
C2283 C2277 1.390 . S
C2283 C2280 1.386 . S
C2284 C2279 1.490 . S
C2284 C2286 1.395 . S
C2284 C2287 1.403 . S
H2285 C2291 0.930 . S
C2286 H2272 0.930 . S
C2286 C2284 1.395 . S
C2286 C2289 1.403 . S
C2287 C2284 1.403 . S
C2287 C2288 1.524 . S
C2287 C2291 1.400 . S
C2288 H2273 0.960 . S
C2288 H2274 0.960 . S
C2288 H2275 0.960 . S
C2288 C2287 1.524 . S
C2289 C2286 1.403 . S
C2289 C2290 1.392 . S
C2289 C2293 1.495 . S
C2290 C2289 1.392 . S
C2290 C2291 1.385 . S
C2290 C2292 1.478 . S
C2291 H2285 0.930 . S
C2291 C2287 1.400 . S
C2291 C2290 1.385 . S
C2292 C2290 1.478 . S
C2292 C2294 1.381 . S
C2292 C2298 1.383 . S
C2293 C2289 1.495 . S
C2293 H2299 0.959 . S
C2293 H2300 0.961 . S
C2293 H2301 0.960 . S
C2294 C2292 1.381 . S
C2294 C2295 1.394 . S
C2294 H2302 0.930 . S
C2295 C2294 1.394 . S
C2295 C2296 1.383 . S
C2295 H2303 0.929 . S
C2296 C2295 1.383 . S
C2296 C2297 1.377 . S
C2297 H2281 0.930 . S
C2297 C2296 1.377 . S
C2297 C2298 1.379 . S
C2298 H2282 0.931 . S
C2298 C2292 1.383 . S
C2298 C2297 1.379 . S
H2299 C2293 0.959 . S
H2300 C2293 0.961 . S
H2301 C2293 0.960 . S
H2302 C2294 0.930 . S
H2303 C2295 0.929 . S
H2304 C2312 0.929 . S
H2305 C2314 0.930 . S
H2306 C2316 0.930 . S
H2307 C2319 0.929 . S
H2308 C2322 0.930 . S
H2309 C2324 0.960 . S
H2310 C2324 0.960 . S
H2311 C2324 0.960 . S
C2312 H2304 0.929 . S
C2312 C2313 1.377 . S
C2312 C2314 1.384 1_556 S
C2313 C2312 1.377 . S
C2313 C2319 1.390 . S
C2314 H2305 0.930 . S
C2314 C2312 1.384 1_554 S
C2314 C2315 1.372 . S
C2315 C2314 1.372 . S
C2315 C2316 1.400 1_554 S
C2315 C2320 1.490 . S
C2316 H2306 0.930 . S
C2316 C2315 1.400 1_556 S
C2316 C2319 1.386 . S
H2317 C2333 0.930 . S
H2318 C2334 0.931 . S
C2319 H2307 0.929 . S
C2319 C2313 1.390 . S
C2319 C2316 1.386 . S
C2320 C2315 1.490 . S
C2320 C2322 1.395 . S
C2320 C2323 1.403 . S
H2321 C2327 0.930 . S
C2322 H2308 0.930 . S
C2322 C2320 1.395 . S
C2322 C2325 1.403 . S
C2323 C2320 1.403 . S
C2323 C2324 1.524 . S
C2323 C2327 1.400 . S
C2324 H2309 0.960 . S
C2324 H2310 0.960 . S
C2324 H2311 0.960 . S
C2324 C2323 1.524 . S
C2325 C2322 1.403 . S
C2325 C2326 1.392 . S
C2325 C2329 1.495 . S
C2326 C2325 1.392 . S
C2326 C2327 1.385 . S
C2326 C2328 1.478 . S
C2327 H2321 0.930 . S
C2327 C2323 1.400 . S
C2327 C2326 1.385 . S
C2328 C2326 1.478 . S
C2328 C2330 1.381 . S
C2328 C2334 1.383 . S
C2329 C2325 1.495 . S
C2329 H2335 0.959 . S
C2329 H2336 0.961 . S
C2329 H2337 0.960 . S
C2330 C2328 1.381 . S
C2330 C2331 1.394 . S
C2330 H2338 0.930 . S
C2331 C2330 1.394 . S
C2331 C2332 1.383 . S
C2331 H2339 0.929 . S
C2332 C2331 1.383 . S
C2332 C2333 1.377 . S
C2333 H2317 0.930 . S
C2333 C2332 1.377 . S
C2333 C2334 1.379 . S
C2334 H2318 0.931 . S
C2334 C2328 1.383 . S
C2334 C2333 1.379 . S
H2335 C2329 0.959 . S
H2336 C2329 0.961 . S
H2337 C2329 0.960 . S
H2338 C2330 0.930 . S
H2339 C2331 0.929 . S
H2340 C2348 0.929 . S
H2341 C2350 0.930 . S
H2342 C2352 0.930 . S
H2343 C2355 0.929 . S
H2344 C2358 0.930 . S
H2345 C2360 0.960 . S
H2346 C2360 0.960 . S
H2347 C2360 0.960 . S
C2348 H2340 0.929 . S
C2348 C2349 1.377 . S
C2348 C2350 1.384 . S
C2349 C2348 1.377 . S
C2349 C2355 1.390 . S
C2350 H2341 0.930 . S
C2350 C2348 1.384 . S
C2350 C2351 1.372 1_556 S
C2351 C2350 1.372 1_554 S
C2351 C2352 1.400 . S
C2351 C2356 1.490 . S
C2352 H2342 0.930 . S
C2352 C2351 1.400 . S
C2352 C2355 1.386 1_554 S
H2353 C2369 0.930 . S
H2354 C2370 0.931 . S
C2355 H2343 0.929 . S
C2355 C2349 1.390 . S
C2355 C2352 1.386 1_556 S
C2356 C2351 1.490 . S
C2356 C2358 1.395 . S
C2356 C2359 1.403 . S
H2357 C2363 0.930 . S
C2358 H2344 0.930 . S
C2358 C2356 1.395 . S
C2358 C2361 1.403 . S
C2359 C2356 1.403 . S
C2359 C2360 1.524 . S
C2359 C2363 1.400 . S
C2360 H2345 0.960 . S
C2360 H2346 0.960 . S
C2360 H2347 0.960 . S
C2360 C2359 1.524 . S
C2361 C2358 1.403 . S
C2361 C2362 1.392 . S
C2361 C2365 1.495 . S
C2362 C2361 1.392 . S
C2362 C2363 1.385 . S
C2362 C2364 1.478 . S
C2363 H2357 0.930 . S
C2363 C2359 1.400 . S
C2363 C2362 1.385 . S
C2364 C2362 1.478 . S
C2364 C2366 1.381 . S
C2364 C2370 1.383 . S
C2365 C2361 1.495 . S
C2365 H2371 0.959 . S
C2365 H2372 0.961 . S
C2365 H2373 0.960 . S
C2366 C2364 1.381 . S
C2366 C2367 1.394 . S
C2366 H2374 0.930 . S
C2367 C2366 1.394 . S
C2367 C2368 1.383 . S
C2367 H2375 0.929 . S
C2368 C2367 1.383 . S
C2368 C2369 1.377 . S
C2369 H2353 0.930 . S
C2369 C2368 1.377 . S
C2369 C2370 1.379 . S
C2370 H2354 0.931 . S
C2370 C2364 1.383 . S
C2370 C2369 1.379 . S
H2371 C2365 0.959 . S
H2372 C2365 0.961 . S
H2373 C2365 0.960 . S
H2374 C2366 0.930 . S
H2375 C2367 0.929 . S
H2376 C2384 0.929 . S
H2377 C2386 0.930 . S
H2378 C2388 0.930 1_554 S
H2379 C2391 0.929 . S
H2380 C2394 0.930 . S
H2381 C2396 0.960 . S
H2382 C2396 0.960 . S
H2383 C2396 0.960 . S
C2384 H2376 0.929 . S
C2384 C2385 1.377 . S
C2384 C2386 1.384 . S
C2385 C2384 1.377 . S
C2385 C2391 1.390 . S
C2386 H2377 0.930 . S
C2386 C2384 1.384 . S
C2386 C2387 1.372 1_556 S
C2387 C2386 1.372 1_554 S
C2387 C2388 1.400 1_554 S
C2387 C2392 1.490 . S
C2388 H2378 0.930 1_556 S
C2388 C2387 1.400 1_556 S
C2388 C2391 1.386 . S
H2389 C2405 0.930 . S
H2390 C2406 0.931 . S
C2391 H2379 0.929 . S
C2391 C2385 1.390 . S
C2391 C2388 1.386 . S
C2392 C2387 1.490 . S
C2392 C2394 1.395 . S
C2392 C2395 1.403 . S
H2393 C2399 0.930 . S
C2394 H2380 0.930 . S
C2394 C2392 1.395 . S
C2394 C2397 1.403 . S
C2395 C2392 1.403 . S
C2395 C2396 1.524 . S
C2395 C2399 1.400 . S
C2396 H2381 0.960 . S
C2396 H2382 0.960 . S
C2396 H2383 0.960 . S
C2396 C2395 1.524 . S
C2397 C2394 1.403 . S
C2397 C2398 1.392 . S
C2397 C2401 1.495 . S
C2398 C2397 1.392 . S
C2398 C2399 1.385 . S
C2398 C2400 1.478 . S
C2399 H2393 0.930 . S
C2399 C2395 1.400 . S
C2399 C2398 1.385 . S
C2400 C2398 1.478 . S
C2400 C2402 1.381 . S
C2400 C2406 1.383 . S
C2401 C2397 1.495 . S
C2401 H2407 0.959 . S
C2401 H2408 0.961 . S
C2401 H2409 0.960 . S
C2402 C2400 1.381 . S
C2402 C2403 1.394 . S
C2402 H2410 0.930 . S
C2403 C2402 1.394 . S
C2403 C2404 1.383 . S
C2403 H2411 0.929 . S
C2404 C2403 1.383 . S
C2404 C2405 1.377 . S
C2405 H2389 0.930 . S
C2405 C2404 1.377 . S
C2405 C2406 1.379 . S
C2406 H2390 0.931 . S
C2406 C2400 1.383 . S
C2406 C2405 1.379 . S
H2407 C2401 0.959 . S
H2408 C2401 0.961 . S
H2409 C2401 0.960 . S
H2410 C2402 0.930 . S
H2411 C2403 0.929 . S
H2412 C2420 0.929 . S
H2413 C2422 0.930 . S
H2414 C2424 0.930 . S
H2415 C2427 0.929 . S
H2416 C2430 0.930 . S
H2417 C2432 0.960 1_556 S
H2418 C2432 0.960 . S
H2419 C2432 0.960 1_556 S
C2420 H2412 0.929 . S
C2420 C2421 1.377 . S
C2420 C2422 1.384 . S
C2421 C2420 1.377 . S
C2421 C2427 1.390 . S
C2422 H2413 0.930 . S
C2422 C2420 1.384 . S
C2422 C2423 1.372 . S
C2423 C2422 1.372 . S
C2423 C2424 1.400 . S
C2423 C2428 1.490 . S
C2424 H2414 0.930 . S
C2424 C2423 1.400 . S
C2424 C2427 1.386 . S
H2425 C2441 0.930 . S
H2426 C2442 0.931 . S
C2427 H2415 0.929 . S
C2427 C2421 1.390 . S
C2427 C2424 1.386 . S
C2428 C2423 1.490 . S
C2428 C2430 1.395 . S
C2428 C2431 1.403 . S
H2429 C2435 0.930 . S
C2430 H2416 0.930 . S
C2430 C2428 1.395 . S
C2430 C2433 1.403 . S
C2431 C2428 1.403 . S
C2431 C2432 1.524 . S
C2431 C2435 1.400 . S
C2432 H2417 0.960 1_554 S
C2432 H2418 0.960 . S
C2432 H2419 0.960 1_554 S
C2432 C2431 1.524 . S
C2433 C2430 1.403 . S
C2433 C2434 1.392 . S
C2433 C2437 1.495 . S
C2434 C2433 1.392 . S
C2434 C2435 1.385 . S
C2434 C2436 1.478 . S
C2435 H2429 0.930 . S
C2435 C2431 1.400 . S
C2435 C2434 1.385 . S
C2436 C2434 1.478 . S
C2436 C2438 1.381 . S
C2436 C2442 1.383 . S
C2437 C2433 1.495 . S
C2437 H2443 0.959 . S
C2437 H2444 0.961 . S
C2437 H2445 0.960 . S
C2438 C2436 1.381 . S
C2438 C2439 1.394 . S
C2438 H2446 0.930 . S
C2439 C2438 1.394 . S
C2439 C2440 1.383 . S
C2439 H2447 0.929 . S
C2440 C2439 1.383 . S
C2440 C2441 1.377 . S
C2441 H2425 0.930 . S
C2441 C2440 1.377 . S
C2441 C2442 1.379 . S
C2442 H2426 0.931 . S
C2442 C2436 1.383 . S
C2442 C2441 1.379 . S
H2443 C2437 0.959 . S
H2444 C2437 0.961 . S
H2445 C2437 0.960 . S
H2446 C2438 0.930 . S
H2447 C2439 0.929 . S
H2448 C2456 0.929 . S
H2449 C2458 0.930 . S
H2450 C2460 0.930 . S
H2451 C2463 0.929 . S
H2452 C2466 0.930 . S
H2453 C2468 0.960 . S
H2454 C2468 0.960 . S
H2455 C2468 0.960 . S
C2456 H2448 0.929 . S
C2456 C2457 1.377 . S
C2456 C2458 1.384 . S
C2457 C2456 1.377 . S
C2457 C2463 1.390 . S
C2458 H2449 0.930 . S
C2458 C2456 1.384 . S
C2458 C2459 1.372 . S
C2459 C2458 1.372 . S
C2459 C2460 1.400 . S
C2459 C2464 1.490 . S
C2460 H2450 0.930 . S
C2460 C2459 1.400 . S
C2460 C2463 1.386 . S
H2461 C2477 0.930 . S
H2462 C2478 0.931 . S
C2463 H2451 0.929 . S
C2463 C2457 1.390 . S
C2463 C2460 1.386 . S
C2464 C2459 1.490 . S
C2464 C2466 1.395 . S
C2464 C2467 1.403 . S
H2465 C2471 0.930 . S
C2466 H2452 0.930 . S
C2466 C2464 1.395 . S
C2466 C2469 1.403 . S
C2467 C2464 1.403 . S
C2467 C2468 1.524 . S
C2467 C2471 1.400 . S
C2468 H2453 0.960 . S
C2468 H2454 0.960 . S
C2468 H2455 0.960 . S
C2468 C2467 1.524 . S
C2469 C2466 1.403 . S
C2469 C2470 1.392 . S
C2469 C2473 1.495 . S
C2470 C2469 1.392 . S
C2470 C2471 1.385 . S
C2470 C2472 1.478 . S
C2471 H2465 0.930 . S
C2471 C2467 1.400 . S
C2471 C2470 1.385 . S
C2472 C2470 1.478 . S
C2472 C2474 1.381 . S
C2472 C2478 1.383 . S
C2473 C2469 1.495 . S
C2473 H2479 0.959 . S
C2473 H2480 0.961 . S
C2473 H2481 0.960 . S
C2474 C2472 1.381 . S
C2474 C2475 1.394 . S
C2474 H2482 0.946 . S
C2475 C2474 1.394 . S
C2475 C2476 1.383 . S
C2475 H2483 0.929 1_554 S
C2476 C2475 1.383 . S
C2476 C2477 1.377 . S
C2477 H2461 0.930 . S
C2477 C2476 1.377 . S
C2477 C2478 1.379 . S
C2478 H2462 0.931 . S
C2478 C2472 1.383 . S
C2478 C2477 1.379 . S
H2479 C2473 0.959 . S
H2480 C2473 0.961 . S
H2481 C2473 0.960 . S
H2482 C2474 0.946 . S
H2483 C2475 0.929 1_556 S
H2484 C2492 0.929 . S
H2485 C2494 0.930 . S
H2486 C2496 0.930 . S
H2487 C2499 0.929 1_556 S
H2488 C2502 0.930 . S
H2489 C2504 0.960 . S
H2490 C2504 0.960 . S
H2491 C2504 0.960 . S
C2492 H2484 0.929 . S
C2492 C2493 1.377 . S
C2492 C2494 1.384 . S
C2493 C2492 1.377 . S
C2493 C2499 1.390 . S
C2494 H2485 0.930 . S
C2494 C2492 1.384 . S
C2494 C2495 1.372 . S
C2495 C2494 1.372 . S
C2495 C2496 1.400 . S
C2495 C2500 1.490 . S
C2496 H2486 0.930 . S
C2496 C2495 1.400 . S
C2496 C2499 1.386 . S
H2497 C2513 0.930 . S
H2498 C2514 0.931 . S
C2499 H2487 0.929 1_554 S
C2499 C2493 1.390 . S
C2499 C2496 1.386 . S
C2500 C2495 1.490 . S
C2500 C2502 1.395 . S
C2500 C2503 1.403 . S
H2501 C2507 0.930 . S
C2502 H2488 0.930 . S
C2502 C2500 1.395 . S
C2502 C2505 1.403 . S
C2503 C2500 1.403 . S
C2503 C2504 1.524 . S
C2503 C2507 1.400 . S
C2504 H2489 0.960 . S
C2504 H2490 0.960 . S
C2504 H2491 0.960 . S
C2504 C2503 1.524 . S
C2505 C2502 1.403 . S
C2505 C2506 1.392 . S
C2505 C2509 1.495 . S
C2506 C2505 1.392 . S
C2506 C2507 1.385 . S
C2506 C2508 1.478 . S
C2507 H2501 0.930 . S
C2507 C2503 1.400 . S
C2507 C2506 1.385 . S
C2508 C2506 1.478 . S
C2508 C2510 1.381 . S
C2508 C2514 1.383 . S
C2509 C2505 1.495 . S
C2509 H2515 0.959 . S
C2509 H2516 0.961 . S
C2509 H2517 0.960 . S
C2510 C2508 1.381 . S
C2510 C2511 1.394 . S
C2510 H2518 0.930 . S
C2511 C2510 1.394 . S
C2511 C2512 1.383 . S
C2511 H2519 0.929 . S
C2512 C2511 1.383 . S
C2512 C2513 1.377 . S
C2513 H2497 0.930 . S
C2513 C2512 1.377 . S
C2513 C2514 1.379 . S
C2514 H2498 0.931 . S
C2514 C2508 1.383 . S
C2514 C2513 1.379 . S
H2515 C2509 0.959 . S
H2516 C2509 0.961 . S
H2517 C2509 0.960 . S
H2518 C2510 0.930 . S
H2519 C2511 0.929 . S
H2520 C2528 0.929 . S
H2521 C2530 0.930 . S
H2522 C2532 0.930 . S
H2523 C2535 0.929 . S
H2524 C2538 0.930 . S
H2525 C2540 0.960 . S
H2526 C2540 0.960 . S
H2527 C2540 0.960 . S
C2528 H2520 0.929 . S
C2528 C2529 1.377 . S
C2528 C2530 1.384 . S
C2529 C2528 1.377 . S
C2529 C2535 1.390 . S
C2530 H2521 0.930 . S
C2530 C2528 1.384 . S
C2530 C2531 1.372 . S
C2531 C2530 1.372 . S
C2531 C2532 1.400 . S
C2531 C2536 1.490 . S
C2532 H2522 0.930 . S
C2532 C2531 1.400 . S
C2532 C2535 1.386 . S
H2533 C2549 0.930 . S
H2534 C2550 0.931 . S
C2535 H2523 0.929 . S
C2535 C2529 1.390 . S
C2535 C2532 1.386 . S
C2536 C2531 1.490 . S
C2536 C2538 1.395 . S
C2536 C2539 1.403 . S
H2537 C2543 0.930 . S
C2538 H2524 0.930 . S
C2538 C2536 1.395 . S
C2538 C2541 1.403 . S
C2539 C2536 1.403 . S
C2539 C2540 1.524 . S
C2539 C2543 1.400 . S
C2540 H2525 0.960 . S
C2540 H2526 0.960 . S
C2540 H2527 0.960 . S
C2540 C2539 1.524 . S
C2541 C2538 1.403 . S
C2541 C2542 1.392 . S
C2541 C2545 1.495 . S
C2542 C2541 1.392 . S
C2542 C2543 1.385 . S
C2542 C2544 1.478 . S
C2543 H2537 0.930 . S
C2543 C2539 1.400 . S
C2543 C2542 1.385 . S
C2544 C2542 1.478 . S
C2544 C2546 1.381 . S
C2544 C2550 1.383 . S
C2545 C2541 1.495 . S
C2545 H2551 0.959 . S
C2545 H2552 0.961 . S
C2545 H2553 0.960 . S
C2546 C2544 1.381 . S
C2546 C2547 1.394 . S
C2546 H2554 0.930 . S
C2547 C2546 1.394 . S
C2547 C2548 1.383 . S
C2547 H2555 0.929 . S
C2548 C2547 1.383 . S
C2548 C2549 1.377 . S
C2549 H2533 0.930 . S
C2549 C2548 1.377 . S
C2549 C2550 1.379 . S
C2550 H2534 0.931 . S
C2550 C2544 1.383 . S
C2550 C2549 1.379 . S
H2551 C2545 0.959 . S
H2552 C2545 0.961 . S
H2553 C2545 0.960 . S
H2554 C2546 0.930 . S
H2555 C2547 0.929 . S
H2556 C2564 0.929 . S
H2557 C2566 0.930 . S
H2558 C2568 0.930 . S
H2559 C2571 0.929 . S
H2560 C2574 0.930 . S
H2561 C2576 0.960 . S
H2562 C2576 0.960 . S
H2563 C2576 0.960 . S
C2564 H2556 0.929 . S
C2564 C2565 1.377 . S
C2564 C2566 1.384 . S
C2565 C2564 1.377 . S
C2565 C2571 1.390 . S
C2566 H2557 0.930 . S
C2566 C2564 1.384 . S
C2566 C2567 1.372 . S
C2567 C2566 1.372 . S
C2567 C2568 1.400 . S
C2567 C2572 1.490 . S
C2568 H2558 0.930 . S
C2568 C2567 1.400 . S
C2568 C2571 1.386 . S
H2569 C2585 0.930 . S
H2570 C2586 0.931 . S
C2571 H2559 0.929 . S
C2571 C2565 1.390 . S
C2571 C2568 1.386 . S
C2572 C2567 1.490 . S
C2572 C2574 1.395 . S
C2572 C2575 1.403 . S
H2573 C2579 0.930 . S
C2574 H2560 0.930 . S
C2574 C2572 1.395 . S
C2574 C2577 1.403 . S
C2575 C2572 1.403 . S
C2575 C2576 1.524 . S
C2575 C2579 1.400 . S
C2576 H2561 0.960 . S
C2576 H2562 0.960 . S
C2576 H2563 0.960 . S
C2576 C2575 1.524 . S
C2577 C2574 1.403 . S
C2577 C2578 1.392 . S
C2577 C2581 1.495 . S
C2578 C2577 1.392 . S
C2578 C2579 1.385 . S
C2578 C2580 1.478 . S
C2579 H2573 0.930 . S
C2579 C2575 1.400 . S
C2579 C2578 1.385 . S
C2580 C2578 1.478 . S
C2580 C2582 1.381 . S
C2580 C2586 1.383 . S
C2581 C2577 1.495 . S
C2581 H2587 0.959 . S
C2581 H2588 0.961 . S
C2581 H2589 0.960 . S
C2582 C2580 1.381 . S
C2582 C2583 1.394 . S
C2582 H2590 0.930 . S
C2583 C2582 1.394 . S
C2583 C2584 1.383 . S
C2583 H2591 0.929 . S
C2584 C2583 1.383 . S
C2584 C2585 1.377 . S
C2585 H2569 0.930 . S
C2585 C2584 1.377 . S
C2585 C2586 1.379 . S
C2586 H2570 0.931 . S
C2586 C2580 1.383 . S
C2586 C2585 1.379 . S
H2587 C2581 0.959 . S
H2588 C2581 0.961 . S
H2589 C2581 0.960 . S
H2590 C2582 0.930 . S
H2591 C2583 0.929 . S
H2592 C2600 0.929 . S
H2593 C2602 0.930 . S
H2594 C2604 0.930 . S
H2595 C2607 0.929 . S
H2596 C2610 0.930 . S
H2597 C2612 0.960 . S
H2598 C2612 0.960 . S
H2599 C2612 0.960 . S
C2600 H2592 0.929 . S
C2600 C2601 1.377 . S
C2600 C2602 1.384 . S
C2601 C2600 1.377 . S
C2601 C2607 1.390 . S
C2602 H2593 0.930 . S
C2602 C2600 1.384 . S
C2602 C2603 1.372 . S
C2603 C2602 1.372 . S
C2603 C2604 1.400 . S
C2603 C2608 1.490 . S
C2604 H2594 0.930 . S
C2604 C2603 1.400 . S
C2604 C2607 1.386 . S
H2605 C2621 0.930 . S
H2606 C2622 0.931 . S
C2607 H2595 0.929 . S
C2607 C2601 1.390 . S
C2607 C2604 1.386 . S
C2608 C2603 1.490 . S
C2608 C2610 1.395 . S
C2608 C2611 1.403 . S
H2609 C2615 0.930 . S
C2610 H2596 0.930 . S
C2610 C2608 1.395 . S
C2610 C2613 1.403 . S
C2611 C2608 1.403 . S
C2611 C2612 1.524 . S
C2611 C2615 1.400 . S
C2612 H2597 0.960 . S
C2612 H2598 0.960 . S
C2612 H2599 0.960 . S
C2612 C2611 1.524 . S
C2613 C2610 1.403 . S
C2613 C2614 1.392 . S
C2613 C2617 1.495 . S
C2614 C2613 1.392 . S
C2614 C2615 1.385 . S
C2614 C2616 1.478 . S
C2615 H2609 0.930 . S
C2615 C2611 1.400 . S
C2615 C2614 1.385 . S
C2616 C2614 1.478 . S
C2616 C2618 1.381 . S
C2616 C2622 1.383 . S
C2617 C2613 1.495 . S
C2617 H2623 0.959 . S
C2617 H2624 0.961 . S
C2617 H2625 0.960 . S
C2618 C2616 1.381 . S
C2618 C2619 1.394 . S
C2618 H2626 0.930 . S
C2619 C2618 1.394 . S
C2619 C2620 1.383 . S
C2619 H2627 0.929 . S
C2620 C2619 1.383 . S
C2620 C2621 1.377 . S
C2621 H2605 0.930 . S
C2621 C2620 1.377 . S
C2621 C2622 1.379 . S
C2622 H2606 0.931 . S
C2622 C2616 1.383 . S
C2622 C2621 1.379 . S
H2623 C2617 0.959 . S
H2624 C2617 0.961 . S
H2625 C2617 0.960 . S
H2626 C2618 0.930 . S
H2627 C2619 0.929 . S
H2628 C2636 0.929 . S
H2629 C2638 0.930 . S
H2630 C2640 0.930 . S
H2631 C2643 0.929 . S
H2632 C2646 0.930 . S
H2633 C2648 0.960 . S
H2634 C2648 0.960 . S
H2635 C2648 0.960 . S
C2636 H2628 0.929 . S
C2636 C2637 1.377 . S
C2636 C2638 1.384 . S
C2637 C2636 1.377 . S
C2637 C2643 1.390 . S
C2638 H2629 0.930 . S
C2638 C2636 1.384 . S
C2638 C2639 1.372 . S
C2639 C2638 1.372 . S
C2639 C2640 1.400 . S
C2639 C2644 1.490 . S
C2640 H2630 0.930 . S
C2640 C2639 1.400 . S
C2640 C2643 1.386 . S
H2641 C2657 0.930 . S
H2642 C2658 0.931 . S
C2643 H2631 0.929 . S
C2643 C2637 1.390 . S
C2643 C2640 1.386 . S
C2644 C2639 1.490 . S
C2644 C2646 1.395 . S
C2644 C2647 1.403 . S
H2645 C2651 0.930 . S
C2646 H2632 0.930 . S
C2646 C2644 1.395 . S
C2646 C2649 1.403 . S
C2647 C2644 1.403 . S
C2647 C2648 1.524 . S
C2647 C2651 1.400 . S
C2648 H2633 0.960 . S
C2648 H2634 0.960 . S
C2648 H2635 0.960 . S
C2648 C2647 1.524 . S
C2649 C2646 1.403 . S
C2649 C2650 1.392 . S
C2649 C2653 1.495 . S
C2650 C2649 1.392 . S
C2650 C2651 1.385 . S
C2650 C2652 1.478 . S
C2651 H2645 0.930 . S
C2651 C2647 1.400 . S
C2651 C2650 1.385 . S
C2652 C2650 1.478 . S
C2652 C2654 1.381 . S
C2652 C2658 1.383 . S
C2653 C2649 1.495 . S
C2653 H2659 0.959 . S
C2653 H2660 0.961 . S
C2653 H2661 0.960 . S
C2654 C2652 1.381 . S
C2654 C2655 1.394 . S
C2654 H2662 0.941 . S
C2655 C2654 1.394 . S
C2655 C2656 1.383 . S
C2655 H2663 0.929 1_556 S
C2656 C2655 1.383 . S
C2656 C2657 1.377 . S
C2657 H2641 0.930 . S
C2657 C2656 1.377 . S
C2657 C2658 1.379 . S
C2658 H2642 0.931 . S
C2658 C2652 1.383 . S
C2658 C2657 1.379 . S
H2659 C2653 0.959 . S
H2660 C2653 0.961 . S
H2661 C2653 0.960 . S
H2662 C2654 0.941 . S
H2663 C2655 0.929 1_554 S
H2664 C2672 0.929 . S
H2665 C2674 0.930 . S
H2666 C2676 0.930 . S
H2667 C2679 0.929 . S
H2668 C2682 0.930 . S
H2669 C2684 0.960 . S
H2670 C2684 0.960 . S
H2671 C2684 0.960 . S
C2672 H2664 0.929 . S
C2672 C2673 1.377 . S
C2672 C2674 1.384 . S
C2673 C2672 1.377 . S
C2673 C2679 1.390 . S
C2674 H2665 0.930 . S
C2674 C2672 1.384 . S
C2674 C2675 1.372 . S
C2675 C2674 1.372 . S
C2675 C2676 1.400 . S
C2675 C2680 1.490 . S
C2676 H2666 0.930 . S
C2676 C2675 1.400 . S
C2676 C2679 1.386 . S
H2677 C2693 0.930 . S
H2678 C2694 0.931 . S
C2679 H2667 0.929 . S
C2679 C2673 1.390 . S
C2679 C2676 1.386 . S
C2680 C2675 1.490 . S
C2680 C2682 1.395 . S
C2680 C2683 1.403 . S
H2681 C2687 0.930 . S
C2682 H2668 0.930 . S
C2682 C2680 1.395 . S
C2682 C2685 1.403 . S
C2683 C2680 1.403 . S
C2683 C2684 1.524 . S
C2683 C2687 1.400 . S
C2684 H2669 0.960 . S
C2684 H2670 0.960 . S
C2684 H2671 0.960 . S
C2684 C2683 1.524 . S
C2685 C2682 1.403 . S
C2685 C2686 1.392 . S
C2685 C2689 1.495 . S
C2686 C2685 1.392 . S
C2686 C2687 1.385 . S
C2686 C2688 1.478 . S
C2687 H2681 0.930 . S
C2687 C2683 1.400 . S
C2687 C2686 1.385 . S
C2688 C2686 1.478 . S
C2688 C2690 1.381 . S
C2688 C2694 1.383 . S
C2689 C2685 1.495 . S
C2689 H2695 0.959 1_556 S
C2689 H2696 0.961 . S
C2689 H2697 0.960 . S
C2690 C2688 1.381 . S
C2690 C2691 1.394 . S
C2690 H2698 0.930 . S
C2691 C2690 1.394 . S
C2691 C2692 1.383 . S
C2691 H2699 0.929 . S
C2692 C2691 1.383 . S
C2692 C2693 1.377 . S
C2693 H2677 0.930 . S
C2693 C2692 1.377 . S
C2693 C2694 1.379 . S
C2694 H2678 0.931 . S
C2694 C2688 1.383 . S
C2694 C2693 1.379 . S
H2695 C2689 0.959 1_554 S
H2696 C2689 0.961 . S
H2697 C2689 0.960 . S
H2698 C2690 0.930 . S
H2699 C2691 0.929 . S
H2700 C2708 0.929 . S
H2701 C2710 0.930 . S
H2702 C2712 0.930 . S
H2703 C2715 0.929 . S
H2704 C2718 0.930 . S
H2705 C2720 0.960 . S
H2706 C2720 0.960 . S
H2707 C2720 0.960 . S
C2708 H2700 0.929 . S
C2708 C2709 1.377 . S
C2708 C2710 1.384 . S
C2709 C2708 1.377 . S
C2709 C2715 1.390 . S
C2710 H2701 0.930 . S
C2710 C2708 1.384 . S
C2710 C2711 1.372 . S
C2711 C2710 1.372 . S
C2711 C2712 1.400 . S
C2711 C2716 1.490 . S
C2712 H2702 0.930 . S
C2712 C2711 1.400 . S
C2712 C2715 1.386 . S
H2713 C2729 0.930 . S
H2714 C2730 0.931 . S
C2715 H2703 0.929 . S
C2715 C2709 1.390 . S
C2715 C2712 1.386 . S
C2716 C2711 1.490 . S
C2716 C2718 1.395 . S
C2716 C2719 1.403 . S
H2717 C2723 0.930 . S
C2718 H2704 0.930 . S
C2718 C2716 1.395 . S
C2718 C2721 1.403 . S
C2719 C2716 1.403 . S
C2719 C2720 1.524 . S
C2719 C2723 1.400 . S
C2720 H2705 0.960 . S
C2720 H2706 0.960 . S
C2720 H2707 0.960 . S
C2720 C2719 1.524 . S
C2721 C2718 1.403 . S
C2721 C2722 1.392 . S
C2721 C2725 1.495 . S
C2722 C2721 1.392 . S
C2722 C2723 1.385 . S
C2722 C2724 1.478 . S
C2723 H2717 0.930 . S
C2723 C2719 1.400 . S
C2723 C2722 1.385 . S
C2724 C2722 1.478 . S
C2724 C2726 1.381 . S
C2724 C2730 1.383 . S
C2725 C2721 1.495 . S
C2725 H2731 0.959 . S
C2725 H2732 0.961 . S
C2725 H2733 0.960 . S
C2726 C2724 1.381 . S
C2726 C2727 1.394 . S
C2726 H2734 0.930 . S
C2727 C2726 1.394 . S
C2727 C2728 1.383 . S
C2727 H2735 0.929 . S
C2728 C2727 1.383 . S
C2728 C2729 1.377 . S
C2729 H2713 0.930 . S
C2729 C2728 1.377 . S
C2729 C2730 1.379 . S
C2730 H2714 0.931 . S
C2730 C2724 1.383 . S
C2730 C2729 1.379 . S
H2731 C2725 0.959 . S
H2732 C2725 0.961 . S
H2733 C2725 0.960 . S
H2734 C2726 0.930 . S
H2735 C2727 0.929 . S
H2736 C2744 0.929 . S
H2737 C2746 0.930 . S
H2738 C2748 0.930 . S
H2739 C2751 0.929 . S
H2740 C2754 0.930 . S
H2741 C2756 0.960 . S
H2742 C2756 0.960 . S
H2743 C2756 0.960 . S
C2744 H2736 0.929 . S
C2744 C2745 1.377 . S
C2744 C2746 1.384 . S
C2745 C2744 1.377 . S
C2745 C2751 1.390 . S
C2746 H2737 0.930 . S
C2746 C2744 1.384 . S
C2746 C2747 1.372 . S
C2747 C2746 1.372 . S
C2747 C2748 1.400 . S
C2747 C2752 1.490 . S
C2748 H2738 0.930 . S
C2748 C2747 1.400 . S
C2748 C2751 1.386 . S
H2749 C2765 0.930 . S
H2750 C2766 0.931 . S
C2751 H2739 0.929 . S
C2751 C2745 1.390 . S
C2751 C2748 1.386 . S
C2752 C2747 1.490 . S
C2752 C2754 1.395 . S
C2752 C2755 1.403 . S
H2753 C2759 0.930 . S
C2754 H2740 0.930 . S
C2754 C2752 1.395 . S
C2754 C2757 1.403 . S
C2755 C2752 1.403 . S
C2755 C2756 1.524 . S
C2755 C2759 1.400 . S
C2756 H2741 0.960 . S
C2756 H2742 0.960 . S
C2756 H2743 0.960 . S
C2756 C2755 1.524 . S
C2757 C2754 1.403 . S
C2757 C2758 1.392 . S
C2757 C2761 1.495 . S
C2758 C2757 1.392 . S
C2758 C2759 1.385 . S
C2758 C2760 1.478 . S
C2759 H2753 0.930 . S
C2759 C2755 1.400 . S
C2759 C2758 1.385 . S
C2760 C2758 1.478 . S
C2760 C2762 1.381 . S
C2760 C2766 1.383 . S
C2761 C2757 1.495 . S
C2761 H2767 0.959 . S
C2761 H2768 0.961 . S
C2761 H2769 0.960 . S
C2762 C2760 1.381 . S
C2762 C2763 1.394 . S
C2762 H2770 0.930 . S
C2763 C2762 1.394 . S
C2763 C2764 1.383 . S
C2763 H2771 0.929 . S
C2764 C2763 1.383 . S
C2764 C2765 1.377 . S
C2765 H2749 0.930 . S
C2765 C2764 1.377 . S
C2765 C2766 1.379 . S
C2766 H2750 0.931 . S
C2766 C2760 1.383 . S
C2766 C2765 1.379 . S
H2767 C2761 0.959 . S
H2768 C2761 0.961 . S
H2769 C2761 0.960 . S
H2770 C2762 0.930 . S
H2771 C2763 0.929 . S
H2772 C2780 0.929 . S
H2773 C2782 0.930 . S
H2774 C2784 0.930 . S
H2775 C2787 0.929 . S
H2776 C2790 0.930 . S
H2777 C2792 0.960 . S
H2778 C2792 0.960 . S
H2779 C2792 0.960 . S
C2780 H2772 0.929 . S
C2780 C2781 1.377 . S
C2780 C2782 1.384 . S
C2781 C2780 1.377 . S
C2781 C2787 1.390 . S
C2782 H2773 0.930 . S
C2782 C2780 1.384 . S
C2782 C2783 1.372 . S
C2783 C2782 1.372 . S
C2783 C2784 1.400 . S
C2783 C2788 1.490 . S
C2784 H2774 0.930 . S
C2784 C2783 1.400 . S
C2784 C2787 1.386 . S
H2785 C2801 0.930 . S
H2786 C2802 0.931 . S
C2787 H2775 0.929 . S
C2787 C2781 1.390 . S
C2787 C2784 1.386 . S
C2788 C2783 1.490 . S
C2788 C2790 1.395 . S
C2788 C2791 1.403 . S
H2789 C2795 0.930 . S
C2790 H2776 0.930 . S
C2790 C2788 1.395 . S
C2790 C2793 1.403 . S
C2791 C2788 1.403 . S
C2791 C2792 1.524 . S
C2791 C2795 1.400 . S
C2792 H2777 0.960 . S
C2792 H2778 0.960 . S
C2792 H2779 0.960 . S
C2792 C2791 1.524 . S
C2793 C2790 1.403 . S
C2793 C2794 1.392 . S
C2793 C2797 1.495 . S
C2794 C2793 1.392 . S
C2794 C2795 1.385 . S
C2794 C2796 1.478 . S
C2795 H2789 0.930 . S
C2795 C2791 1.400 . S
C2795 C2794 1.385 . S
C2796 C2794 1.478 . S
C2796 C2798 1.381 . S
C2796 C2802 1.383 . S
C2797 C2793 1.495 . S
C2797 H2803 0.959 . S
C2797 H2804 0.961 . S
C2797 H2805 0.960 . S
C2798 C2796 1.381 . S
C2798 C2799 1.394 . S
C2798 H2806 0.930 . S
C2799 C2798 1.394 . S
C2799 C2800 1.383 . S
C2799 H2807 0.929 . S
C2800 C2799 1.383 . S
C2800 C2801 1.377 . S
C2801 H2785 0.930 . S
C2801 C2800 1.377 . S
C2801 C2802 1.379 . S
C2802 H2786 0.931 . S
C2802 C2796 1.383 . S
C2802 C2801 1.379 . S
H2803 C2797 0.959 . S
H2804 C2797 0.961 . S
H2805 C2797 0.960 . S
H2806 C2798 0.930 . S
H2807 C2799 0.929 . S
H2808 C2816 0.929 . S
H2809 C2818 0.930 . S
H2810 C2820 0.930 . S
H2811 C2823 0.929 . S
H2812 C2826 0.930 . S
H2813 C2828 0.960 . S
H2814 C2828 0.960 . S
H2815 C2828 0.960 . S
C2816 H2808 0.929 . S
C2816 C2817 1.377 . S
C2816 C2818 1.384 . S
C2817 C2816 1.377 . S
C2817 C2823 1.390 . S
C2818 H2809 0.930 . S
C2818 C2816 1.384 . S
C2818 C2819 1.372 . S
C2819 C2818 1.372 . S
C2819 C2820 1.400 . S
C2819 C2824 1.490 . S
C2820 H2810 0.930 . S
C2820 C2819 1.400 . S
C2820 C2823 1.386 . S
H2821 C2837 0.930 . S
H2822 C2838 0.931 . S
C2823 H2811 0.929 . S
C2823 C2817 1.390 . S
C2823 C2820 1.386 . S
C2824 C2819 1.490 . S
C2824 C2826 1.395 . S
C2824 C2827 1.403 . S
H2825 C2831 0.930 . S
C2826 H2812 0.930 . S
C2826 C2824 1.395 . S
C2826 C2829 1.403 . S
C2827 C2824 1.403 . S
C2827 C2828 1.524 . S
C2827 C2831 1.400 . S
C2828 H2813 0.960 . S
C2828 H2814 0.960 . S
C2828 H2815 0.960 . S
C2828 C2827 1.524 . S
C2829 C2826 1.403 . S
C2829 C2830 1.392 . S
C2829 C2833 1.495 . S
C2830 C2829 1.392 . S
C2830 C2831 1.385 . S
C2830 C2832 1.478 . S
C2831 H2825 0.930 . S
C2831 C2827 1.400 . S
C2831 C2830 1.385 . S
C2832 C2830 1.478 . S
C2832 C2834 1.381 . S
C2832 C2838 1.383 . S
C2833 C2829 1.495 . S
C2833 H2839 0.959 . S
C2833 H2840 0.961 . S
C2833 H2841 0.960 . S
C2834 C2832 1.381 . S
C2834 C2835 1.394 . S
C2834 H2842 0.930 . S
C2835 C2834 1.394 . S
C2835 C2836 1.383 . S
C2835 H2843 0.929 . S
C2836 C2835 1.383 . S
C2836 C2837 1.377 . S
C2837 H2821 0.930 . S
C2837 C2836 1.377 . S
C2837 C2838 1.379 . S
C2838 H2822 0.931 . S
C2838 C2832 1.383 . S
C2838 C2837 1.379 . S
H2839 C2833 0.959 . S
H2840 C2833 0.961 . S
H2841 C2833 0.960 . S
H2842 C2834 0.930 . S
H2843 C2835 0.929 . S
H2844 C2852 0.929 . S
H2845 C2854 0.930 . S
H2846 C2856 0.930 . S
H2847 C2859 0.929 . S
H2848 C2862 0.930 . S
H2849 C2864 0.960 . S
H2850 C2864 0.960 . S
H2851 C2864 0.960 . S
C2852 H2844 0.929 . S
C2852 C2853 1.377 . S
C2852 C2854 1.384 . S
C2853 C2852 1.377 . S
C2853 C2859 1.390 . S
C2854 H2845 0.930 . S
C2854 C2852 1.384 . S
C2854 C2855 1.372 . S
C2855 C2854 1.372 . S
C2855 C2856 1.400 . S
C2855 C2860 1.490 . S
C2856 H2846 0.930 . S
C2856 C2855 1.400 . S
C2856 C2859 1.386 . S
H2857 C2873 0.930 . S
H2858 C2874 0.931 . S
C2859 H2847 0.929 . S
C2859 C2853 1.390 . S
C2859 C2856 1.386 . S
C2860 C2855 1.490 . S
C2860 C2862 1.395 . S
C2860 C2863 1.403 . S
H2861 C2867 0.930 . S
C2862 H2848 0.930 . S
C2862 C2860 1.395 . S
C2862 C2865 1.403 1_455 S
C2863 C2860 1.403 . S
C2863 C2864 1.524 . S
C2863 C2867 1.400 1_455 S
C2864 H2849 0.960 . S
C2864 H2850 0.960 . S
C2864 H2851 0.960 . S
C2864 C2863 1.524 . S
C2865 C2862 1.403 1_655 S
C2865 C2866 1.392 . S
C2865 C2869 1.495 . S
C2866 C2865 1.392 . S
C2866 C2867 1.385 . S
C2866 C2868 1.478 . S
C2867 H2861 0.930 . S
C2867 C2863 1.400 1_655 S
C2867 C2866 1.385 . S
C2868 C2866 1.478 . S
C2868 C2870 1.381 . S
C2868 C2874 1.383 . S
C2869 C2865 1.495 . S
C2869 H2875 0.959 . S
C2869 H2876 0.961 . S
C2869 H2877 0.960 . S
C2870 C2868 1.381 . S
C2870 C2871 1.394 . S
C2870 H2878 0.930 . S
C2871 C2870 1.394 . S
C2871 C2872 1.383 . S
C2871 H2879 0.929 . S
C2872 C2871 1.383 . S
C2872 C2873 1.377 . S
C2873 H2857 0.930 . S
C2873 C2872 1.377 . S
C2873 C2874 1.379 . S
C2874 H2858 0.931 . S
C2874 C2868 1.383 . S
C2874 C2873 1.379 . S
H2875 C2869 0.959 . S
H2876 C2869 0.961 . S
H2877 C2869 0.960 . S
H2878 C2870 0.930 . S
H2879 C2871 0.929 . S
H2880 C2888 0.929 . S
H2881 C2890 0.930 . S
H2882 C2892 0.930 . S
H2883 C2895 0.929 . S
H2884 C2898 0.930 . S
H2885 C2900 0.960 . S
H2886 C2900 0.960 . S
H2887 C2900 0.960 . S
C2888 H2880 0.929 . S
C2888 C2889 1.377 . S
C2888 C2890 1.384 . S
C2889 C2888 1.377 . S
C2889 C2895 1.390 . S
C2890 H2881 0.930 . S
C2890 C2888 1.384 . S
C2890 C2891 1.372 . S
C2891 C2890 1.372 . S
C2891 C2892 1.400 . S
C2891 C2896 1.490 . S
C2892 H2882 0.930 . S
C2892 C2891 1.400 . S
C2892 C2895 1.386 . S
H2893 C2909 0.930 . S
H2894 C2910 0.931 . S
C2895 H2883 0.929 . S
C2895 C2889 1.390 . S
C2895 C2892 1.386 . S
C2896 C2891 1.490 . S
C2896 C2898 1.395 . S
C2896 C2899 1.403 . S
H2897 C2903 0.930 . S
C2898 H2884 0.930 . S
C2898 C2896 1.395 . S
C2898 C2901 1.403 . S
C2899 C2896 1.403 . S
C2899 C2900 1.524 . S
C2899 C2903 1.400 . S
C2900 H2885 0.960 . S
C2900 H2886 0.960 . S
C2900 H2887 0.960 . S
C2900 C2899 1.524 . S
C2901 C2898 1.403 . S
C2901 C2902 1.392 . S
C2901 C2905 1.495 . S
C2902 C2901 1.392 . S
C2902 C2903 1.385 . S
C2902 C2904 1.478 . S
C2903 H2897 0.930 . S
C2903 C2899 1.400 . S
C2903 C2902 1.385 . S
C2904 C2902 1.478 . S
C2904 C2906 1.381 . S
C2904 C2910 1.383 . S
C2905 C2901 1.495 . S
C2905 H2911 0.959 . S
C2905 H2912 0.961 . S
C2905 H2913 0.960 . S
C2906 C2904 1.381 . S
C2906 C2907 1.394 . S
C2906 H2914 0.930 . S
C2907 C2906 1.394 . S
C2907 C2908 1.383 . S
C2907 H2915 0.929 . S
C2908 C2907 1.383 . S
C2908 C2909 1.377 . S
C2909 H2893 0.930 . S
C2909 C2908 1.377 . S
C2909 C2910 1.379 . S
C2910 H2894 0.931 . S
C2910 C2904 1.383 . S
C2910 C2909 1.379 . S
H2911 C2905 0.959 . S
H2912 C2905 0.961 . S
H2913 C2905 0.960 . S
H2914 C2906 0.930 . S
H2915 C2907 0.929 . S
H2916 C2924 0.929 . S
H2917 C2926 0.930 . S
H2918 C2928 0.930 . S
H2919 C2931 0.929 . S
H2920 C2934 0.930 . S
H2921 C2936 0.960 . S
H2922 C2936 0.960 . S
H2923 C2936 0.960 . S
C2924 H2916 0.929 . S
C2924 C2925 1.377 . S
C2924 C2926 1.384 . S
C2925 C2924 1.377 . S
C2925 C2931 1.390 . S
C2926 H2917 0.930 . S
C2926 C2924 1.384 . S
C2926 C2927 1.372 . S
C2927 C2926 1.372 . S
C2927 C2928 1.400 . S
C2927 C2932 1.490 . S
C2928 H2918 0.930 . S
C2928 C2927 1.400 . S
C2928 C2931 1.386 . S
H2929 C2945 0.930 . S
H2930 C2946 0.931 . S
C2931 H2919 0.929 . S
C2931 C2925 1.390 . S
C2931 C2928 1.386 . S
C2932 C2927 1.490 . S
C2932 C2934 1.395 . S
C2932 C2935 1.403 . S
H2933 C2939 0.930 . S
C2934 H2920 0.930 . S
C2934 C2932 1.395 . S
C2934 C2937 1.403 1_565 S
C2935 C2932 1.403 . S
C2935 C2936 1.524 . S
C2935 C2939 1.400 1_565 S
C2936 H2921 0.960 . S
C2936 H2922 0.960 . S
C2936 H2923 0.960 . S
C2936 C2935 1.524 . S
C2937 C2934 1.403 1_545 S
C2937 C2938 1.392 . S
C2937 C2941 1.495 . S
C2938 C2937 1.392 . S
C2938 C2939 1.385 . S
C2938 C2940 1.478 . S
C2939 H2933 0.930 . S
C2939 C2935 1.400 1_545 S
C2939 C2938 1.385 . S
C2940 C2938 1.478 . S
C2940 C2942 1.381 . S
C2940 C2946 1.383 . S
C2941 C2937 1.495 . S
C2941 H2947 0.959 . S
C2941 H2948 0.961 . S
C2941 H2949 0.960 . S
C2942 C2940 1.381 . S
C2942 C2943 1.394 . S
C2942 H2950 0.930 . S
C2943 C2942 1.394 . S
C2943 C2944 1.383 . S
C2943 H2951 0.929 . S
C2944 C2943 1.383 . S
C2944 C2945 1.377 . S
C2945 H2929 0.930 . S
C2945 C2944 1.377 . S
C2945 C2946 1.379 . S
C2946 H2930 0.931 . S
C2946 C2940 1.383 . S
C2946 C2945 1.379 . S
H2947 C2941 0.959 . S
H2948 C2941 0.961 . S
H2949 C2941 0.960 . S
H2950 C2942 0.930 . S
H2951 C2943 0.929 . S
H2952 C2960 0.929 . S
H2953 C2962 0.930 . S
H2954 C2964 0.930 . S
H2955 C2967 0.929 . S
H2956 C2970 0.930 . S
H2957 C2972 0.960 . S
H2958 C2972 0.960 . S
H2959 C2972 0.960 . S
C2960 H2952 0.929 . S
C2960 C2961 1.377 . S
C2960 C2962 1.384 . S
C2961 C2960 1.377 . S
C2961 C2967 1.390 . S
C2962 H2953 0.930 . S
C2962 C2960 1.384 . S
C2962 C2963 1.372 . S
C2963 C2962 1.372 . S
C2963 C2964 1.400 . S
C2963 C2968 1.490 . S
C2964 H2954 0.930 . S
C2964 C2963 1.400 . S
C2964 C2967 1.386 . S
H2965 C2981 0.930 . S
H2966 C2982 0.931 . S
C2967 H2955 0.929 . S
C2967 C2961 1.390 . S
C2967 C2964 1.386 . S
C2968 C2963 1.490 . S
C2968 C2970 1.395 . S
C2968 C2971 1.403 . S
H2969 C2975 0.930 . S
C2970 H2956 0.930 . S
C2970 C2968 1.395 . S
C2970 C2973 1.403 1_545 S
C2971 C2968 1.403 . S
C2971 C2972 1.524 . S
C2971 C2975 1.400 1_545 S
C2972 H2957 0.960 . S
C2972 H2958 0.960 . S
C2972 H2959 0.960 . S
C2972 C2971 1.524 . S
C2973 C2970 1.403 1_565 S
C2973 C2974 1.392 . S
C2973 C2977 1.495 . S
C2974 C2973 1.392 . S
C2974 C2975 1.385 . S
C2974 C2976 1.478 . S
C2975 H2969 0.930 . S
C2975 C2971 1.400 1_565 S
C2975 C2974 1.385 . S
C2976 C2974 1.478 . S
C2976 C2978 1.381 . S
C2976 C2982 1.383 . S
C2977 C2973 1.495 . S
C2977 H2983 0.959 . S
C2977 H2984 0.961 . S
C2977 H2985 0.960 . S
C2978 C2976 1.381 . S
C2978 C2979 1.394 . S
C2978 H2986 0.930 . S
C2979 C2978 1.394 . S
C2979 C2980 1.383 . S
C2979 H2987 0.929 . S
C2980 C2979 1.383 . S
C2980 C2981 1.377 . S
C2981 H2965 0.930 . S
C2981 C2980 1.377 . S
C2981 C2982 1.379 . S
C2982 H2966 0.931 . S
C2982 C2976 1.383 . S
C2982 C2981 1.379 . S
H2983 C2977 0.959 . S
H2984 C2977 0.961 . S
H2985 C2977 0.960 . S
H2986 C2978 0.930 . S
H2987 C2979 0.929 . S
H2988 C2996 0.929 . S
H2989 C2998 0.930 . S
H2990 C3000 0.930 . S
H2991 C3003 0.929 . S
H2992 C3006 0.930 . S
H2993 C3008 0.960 . S
H2994 C3008 0.960 . S
H2995 C3008 0.960 . S
C2996 H2988 0.929 . S
C2996 C2997 1.377 . S
C2996 C2998 1.384 . S
C2997 C2996 1.377 . S
C2997 C3003 1.390 . S
C2998 H2989 0.930 . S
C2998 C2996 1.384 . S
C2998 C2999 1.372 . S
C2999 C2998 1.372 . S
C2999 C3000 1.400 . S
C2999 C3004 1.490 . S
C3000 H2990 0.930 . S
C3000 C2999 1.400 . S
C3000 C3003 1.386 . S
H3001 C3017 0.930 . S
H3002 C3018 0.931 . S
C3003 H2991 0.929 . S
C3003 C2997 1.390 . S
C3003 C3000 1.386 . S
C3004 C2999 1.490 . S
C3004 C3006 1.395 . S
C3004 C3007 1.403 . S
H3005 C3011 0.930 . S
C3006 H2992 0.930 . S
C3006 C3004 1.395 . S
C3006 C3009 1.403 1_455 S
C3007 C3004 1.403 . S
C3007 C3008 1.524 . S
C3007 C3011 1.400 1_455 S
C3008 H2993 0.960 . S
C3008 H2994 0.960 . S
C3008 H2995 0.960 . S
C3008 C3007 1.524 . S
C3009 C3006 1.403 1_655 S
C3009 C3010 1.392 . S
C3009 C3013 1.495 . S
C3010 C3009 1.392 . S
C3010 C3011 1.385 . S
C3010 C3012 1.478 . S
C3011 H3005 0.930 . S
C3011 C3007 1.400 1_655 S
C3011 C3010 1.385 . S
C3012 C3010 1.478 . S
C3012 C3014 1.381 . S
C3012 C3018 1.383 . S
C3013 C3009 1.495 . S
C3013 H3019 0.959 . S
C3013 H3020 0.961 . S
C3013 H3021 0.960 . S
C3014 C3012 1.381 . S
C3014 C3015 1.394 . S
C3014 H3022 0.930 . S
C3015 C3014 1.394 . S
C3015 C3016 1.383 . S
C3015 H3023 0.929 . S
C3016 C3015 1.383 . S
C3016 C3017 1.377 . S
C3017 H3001 0.930 . S
C3017 C3016 1.377 . S
C3017 C3018 1.379 . S
C3018 H3002 0.931 . S
C3018 C3012 1.383 . S
C3018 C3017 1.379 . S
H3019 C3013 0.959 . S
H3020 C3013 0.961 . S
H3021 C3013 0.960 . S
H3022 C3014 0.930 . S
H3023 C3015 0.929 . S
H3024 C3032 0.929 . S
H3025 C3034 0.930 . S
H3026 C3036 0.930 . S
H3027 C3039 0.929 . S
H3028 C3042 0.930 . S
H3029 C3044 0.960 . S
H3030 C3044 0.960 . S
H3031 C3044 0.960 . S
C3032 H3024 0.929 . S
C3032 C3033 1.377 . S
C3032 C3034 1.384 . S
C3033 C3032 1.377 . S
C3033 C3039 1.390 . S
C3034 H3025 0.930 . S
C3034 C3032 1.384 . S
C3034 C3035 1.372 . S
C3035 C3034 1.372 . S
C3035 C3036 1.400 . S
C3035 C3040 1.490 . S
C3036 H3026 0.930 . S
C3036 C3035 1.400 . S
C3036 C3039 1.386 . S
H3037 C3053 0.930 . S
H3038 C3054 0.931 . S
C3039 H3027 0.929 . S
C3039 C3033 1.390 . S
C3039 C3036 1.386 . S
C3040 C3035 1.490 . S
C3040 C3042 1.395 . S
C3040 C3043 1.403 . S
H3041 C3047 0.930 . S
C3042 H3028 0.930 . S
C3042 C3040 1.395 . S
C3042 C3045 1.403 . S
C3043 C3040 1.403 . S
C3043 C3044 1.524 . S
C3043 C3047 1.400 . S
C3044 H3029 0.960 . S
C3044 H3030 0.960 . S
C3044 H3031 0.960 . S
C3044 C3043 1.524 . S
C3045 C3042 1.403 . S
C3045 C3046 1.392 . S
C3045 C3049 1.495 . S
C3046 C3045 1.392 . S
C3046 C3047 1.385 . S
C3046 C3048 1.478 . S
C3047 H3041 0.930 . S
C3047 C3043 1.400 . S
C3047 C3046 1.385 . S
C3048 C3046 1.478 . S
C3048 C3050 1.381 . S
C3048 C3054 1.383 . S
C3049 C3045 1.495 . S
C3049 H3055 0.959 . S
C3049 H3056 0.961 . S
C3049 H3057 0.960 . S
C3050 C3048 1.381 . S
C3050 C3051 1.394 . S
C3050 H3058 0.930 . S
C3051 C3050 1.394 . S
C3051 C3052 1.383 . S
C3051 H3059 0.929 . S
C3052 C3051 1.383 . S
C3052 C3053 1.377 . S
C3053 H3037 0.930 . S
C3053 C3052 1.377 . S
C3053 C3054 1.379 . S
C3054 H3038 0.931 . S
C3054 C3048 1.383 . S
C3054 C3053 1.379 . S
H3055 C3049 0.959 . S
H3056 C3049 0.961 . S
H3057 C3049 0.960 . S
H3058 C3050 0.930 . S
H3059 C3051 0.929 . S
C477 C43 1.082 . S
C496 C10 1.074 . S
C513 C56 1.080 . S
C532 C17 1.083 . S
C549 C69 1.082 . S
C568 C36 1.074 . S
C585 C88 1.082 . S
C604 C121 1.084 . S
C621 C95 1.080 . S
C640 C140 1.080 . S
C657 C153 1.081 . S
C676 C114 1.074 . S
C693 C160 1.081 . S
C712 C205 1.072 . S
C729 C179 1.081 . S
C748 C212 1.073 . S
C765 C186 1.081 . S
C784 C225 1.073 . S
C801 C244 1.079 . S
C820 C277 1.075 . S
C837 C296 1.080 . S
C856 C251 1.082 . S
C873 C270 1.081 . S
C892 C309 1.079 . S
C909 C322 1.081 . S
C928 C361 1.071 . S
C945 C335 1.080 . S
C964 C368 1.074 . S
C981 C381 1.079 . S
C1000 C342 1.079 . S
C1017 C433 1.081 . S
C1036 C400 1.083 . S
C1053 C452 1.080 . S
C1072 C407 1.083 . S
C1089 C465 1.079 . S
C1108 C420 1.072 . S
C1125 C147 1.671 . S
C1144 C3 1.679 . S
C1161 C18 1.687 . S
C1180 C127 1.669 . S
C1197 C29 1.689 . S
C1216 C134 1.650 . S
C1233 C101 1.671 . S
C1252 C44 1.684 . S
C1269 C57 1.691 . S
C1288 C108 1.659 . S
C1305 C82 1.670 . S
C1324 C70 1.690 . S
C1341 C81 1.686 . S
C1360 C75 1.651 . S
C1377 C96 1.687 . S
C1396 C49 1.650 . S
C1413 C62 1.666 . S
C1432 C107 1.677 . S
C1449 C23 1.671 . S
C1468 C122 1.680 . S
C1485 C30 1.673 . S
C1504 C133 1.686 . S
C1521 C146 1.691 . S
C1540 C4 1.656 . S
C1557 C161 1.681 . S
C1576 C303 1.668 . S
C1593 C283 1.660 . S
C1612 C172 1.683 . S
C1629 C290 1.664 . S
C1648 C187 1.673 . S
C1665 C198 1.690 . S
C1684 C257 1.657 . S
C1701 C264 1.666 . S
C1720 C213 1.691 . S
C1737 C226 1.687 . S
C1756 C238 1.678 . S
C1773 C237 1.686 . S
C1792 C231 1.656 . S
C1809 C252 1.689 . S
C1828 C199 1.657 . S
C1845 C218 1.671 . S
C1864 C263 1.686 . S
C1881 C173 1.671 . S
C1900 C278 1.688 . S
C1917 C192 1.674 . S
C1936 C289 1.699 . S
C1953 C302 1.694 . S
C1972 C166 1.661 . S
C1989 C459 1.669 . S
C2008 C315 1.680 . S
C2025 C328 1.686 . S
C2044 C439 1.680 . S
C2061 C343 1.686 . S
C2080 C446 1.680 . S
C2097 C354 1.695 . S
C2116 C413 1.658 . S
C2133 C426 1.676 . S
C2152 C369 1.690 . S
C2169 C382 1.694 . S
C2188 C394 1.674 . S
C2205 C387 1.665 . S
C2224 C393 1.673 . S
C2241 C355 1.661 . S
C2260 C408 1.680 . S
C2277 C374 1.664 . S
C2296 C421 1.670 . S
C2313 C329 1.668 . S
C2332 C434 1.678 . S
C2349 C348 1.666 . S
C2368 C445 1.681 . S
C2385 C316 1.666 . S
C2404 C458 1.680 . S
C2421 C380 1.406 . S
C2440 C5 1.388 . S
C2457 C16 1.406 . S
C2476 C356 1.386 . S
C2493 C367 1.406 . S
C2512 C31 1.385 . S
C2529 C42 1.406 . S
C2548 C174 1.385 . S
C2565 C185 1.405 . S
C2584 C55 1.393 . S
C2601 C68 1.402 . S
C2620 C159 1.406 . S
C2637 C83 1.402 . S
C2656 C304 1.412 . S
C2673 C276 1.406 . S
C2692 C94 1.408 . S
C2709 C109 1.405 . S
C2728 C291 1.416 . S
C2745 C120 1.405 . S
C2764 C406 1.393 . S
C2781 C135 1.402 . S
C2800 C419 1.385 . S
C2817 C395 1.400 . S
C2836 C148 1.389 . S
C2853 C330 1.400 . S
C2872 C200 1.415 . S
C2889 C341 1.406 . S
C2908 C211 1.388 . S
C2925 C317 1.400 . S
C2944 C224 1.416 . S
C2961 C239 1.403 . S
C2980 C460 1.386 . S
C2997 C432 1.402 . S
C3016 C250 1.385 . S
C3033 C265 1.403 . S
C3052 C447 1.386 . S
