# Generated by pormake.
# Topology fnr, (5)-cn, num edge types: 1
# Building blocks:
#     Node 0, Type 0, BuildingBlock: BEQFEK_clean_sbu_0, # of connection points: 5
#     Node 1, Type 0, BuildingBlock: BEQFEK_clean_sbu_0, # of connection points: 5
#     Node 2, Type 0, BuildingBlock: BEQFEK_clean_sbu_0, # of connection points: 5
#     Node 3, Type 0, BuildingBlock: BEQFEK_clean_sbu_0, # of connection points: 5
#     Node 4, Type 0, BuildingBlock: BEQFEK_clean_sbu_0, # of connection points: 5
#     Node 5, Type 0, BuildingBlock: BEQFEK_clean_sbu_0, # of connection points: 5
#     Node 6, Type 0, BuildingBlock: BEQFEK_clean_sbu_0, # of connection points: 5
#     Node 7, Type 0, BuildingBlock: BEQFEK_clean_sbu_0, # of connection points: 5
#     Node 8, Type 0, BuildingBlock: BEQFEK_clean_sbu_0, # of connection points: 5
#     Node 9, Type 0, BuildingBlock: BEQFEK_clean_sbu_0, # of connection points: 5
#     Node 10, Type 0, BuildingBlock: BEQFEK_clean_sbu_0, # of connection points: 5
#     Node 11, Type 0, BuildingBlock: BEQFEK_clean_sbu_0, # of connection points: 5
#     Edge 12, Type (0, 0), BuildingBlock: XIVTED_clean_linker_0, # of connection points: 2
#     Edge 13, Type (0, 0), BuildingBlock: XIVTED_clean_linker_0, # of connection points: 2
#     Edge 14, Type (0, 0), BuildingBlock: XIVTED_clean_linker_0, # of connection points: 2
#     Edge 15, Type (0, 0), BuildingBlock: XIVTED_clean_linker_0, # of connection points: 2
#     Edge 16, Type (0, 0), BuildingBlock: XIVTED_clean_linker_0, # of connection points: 2
#     Edge 17, Type (0, 0), BuildingBlock: XIVTED_clean_linker_0, # of connection points: 2
#     Edge 18, Type (0, 0), BuildingBlock: XIVTED_clean_linker_0, # of connection points: 2
#     Edge 19, Type (0, 0), BuildingBlock: XIVTED_clean_linker_0, # of connection points: 2
#     Edge 20, Type (0, 0), BuildingBlock: XIVTED_clean_linker_0, # of connection points: 2
#     Edge 21, Type (0, 0), BuildingBlock: XIVTED_clean_linker_0, # of connection points: 2
#     Edge 22, Type (0, 0), BuildingBlock: XIVTED_clean_linker_0, # of connection points: 2
#     Edge 23, Type (0, 0), BuildingBlock: XIVTED_clean_linker_0, # of connection points: 2
#     Edge 24, Type (0, 0), BuildingBlock: XIVTED_clean_linker_0, # of connection points: 2
#     Edge 25, Type (0, 0), BuildingBlock: XIVTED_clean_linker_0, # of connection points: 2
#     Edge 26, Type (0, 0), BuildingBlock: XIVTED_clean_linker_0, # of connection points: 2
#     Edge 27, Type (0, 0), BuildingBlock: XIVTED_clean_linker_0, # of connection points: 2
#     Edge 28, Type (0, 0), BuildingBlock: XIVTED_clean_linker_0, # of connection points: 2
#     Edge 29, Type (0, 0), BuildingBlock: XIVTED_clean_linker_0, # of connection points: 2
#     Edge 30, Type (0, 0), BuildingBlock: XIVTED_clean_linker_0, # of connection points: 2
#     Edge 31, Type (0, 0), BuildingBlock: XIVTED_clean_linker_0, # of connection points: 2
#     Edge 32, Type (0, 0), BuildingBlock: XIVTED_clean_linker_0, # of connection points: 2
#     Edge 33, Type (0, 0), BuildingBlock: XIVTED_clean_linker_0, # of connection points: 2
#     Edge 34, Type (0, 0), BuildingBlock: XIVTED_clean_linker_0, # of connection points: 2
#     Edge 35, Type (0, 0), BuildingBlock: XIVTED_clean_linker_0, # of connection points: 2
#     Edge 36, Type (0, 0), BuildingBlock: XIVTED_clean_linker_0, # of connection points: 2
#     Edge 37, Type (0, 0), BuildingBlock: XIVTED_clean_linker_0, # of connection points: 2
#     Edge 38, Type (0, 0), BuildingBlock: XIVTED_clean_linker_0, # of connection points: 2
#     Edge 39, Type (0, 0), BuildingBlock: XIVTED_clean_linker_0, # of connection points: 2
#     Edge 40, Type (0, 0), BuildingBlock: XIVTED_clean_linker_0, # of connection points: 2
#     Edge 41, Type (0, 0), BuildingBlock: XIVTED_clean_linker_0, # of connection points: 2
# Relax obj value: 0.144
# Max RMSD: 0.110
# Mean RMSD: 0.110
data_MOF--net-fnr--node1-BEQFEK_clean_sbu_0--edge1-XIVTED_clean_linker_0
_symmetry_space_group_name_H-M    P1
_symmetry_Int_Tables_number       1
_symmetry_cell_setting            triclinic
loop_
_symmetry_equiv_pos_as_xyz
'x, y, z'
_cell_length_a     44.976396
_cell_length_b     45.058195
_cell_length_c     48.146965
_cell_angle_alpha  89.962807
_cell_angle_beta   89.99571
_cell_angle_gamma 119.95894
loop_
_atom_site_label
_atom_site_type_symbol
_atom_site_fract_x
_atom_site_fract_y
_atom_site_fract_z
_atom_type_partial_charge
Co0 Co 0.46199 0.27545 0.10484 0.0
Co1 Co 0.40299 0.19967 0.09417 0.0
C2 C 0.47538 0.21911 0.08516 0.0
O3 O 0.48462 0.24955 0.09264 0.0
O4 O 0.44388 0.1962 0.08413 0.0
C5 C 0.51714 0.33211 0.08088 0.0
O6 O 0.50769 0.30906 0.0611 0.0
C7 C 0.3587 0.13675 0.06372 0.0
C8 C 0.31325 0.1107 0.09104 0.0
C9 C 0.32699 0.10717 0.06634 0.0
N10 N 0.36328 0.15688 0.08575 0.0
N11 N 0.336 0.14127 0.10196 0.0
C12 C 0.38604 0.14468 0.04251 0.0
H13 H 0.40523 0.13879 0.05151 0.0
H14 H 0.39948 0.17243 0.03746 0.0
H15 H 0.37577 0.12941 0.02333 0.0
C16 C 0.4174 0.28989 0.06877 0.0
N17 N 0.42539 0.26788 0.08101 0.0
N18 N 0.40117 0.23626 0.07567 0.0
C19 C 0.37717 0.23722 0.05944 0.0
C20 C 0.38666 0.27123 0.05458 0.0
C21 C 0.43883 0.32805 0.07094 0.0
H22 H 0.44775 0.33542 0.09264 0.0
H23 H 0.46172 0.33699 0.05745 0.0
H24 H 0.42468 0.34106 0.06415 0.0
O25 O 0.44462 0.26038 0.14335 0.0
O26 O 0.40462 0.20622 0.135 0.0
H27 H 0.33052 0.19142 0.06952 0.0
H28 H 0.32748 0.21327 0.03915 0.0
C29 C 0.34436 0.20628 0.05082 0.0
H30 H 0.35027 0.18974 0.03761 0.0
H31 H 0.33317 0.15124 0.12069 0.0
O32 O 0.49953 0.32424 0.10316 0.0
C33 C 0.42167 0.23083 0.15184 0.0
Co34 Co 0.19034 0.45847 0.60253 0.0
Co35 Co 0.20375 0.39682 0.59406 0.0
C36 C 0.25832 0.47013 0.58345 0.0
O37 O 0.23762 0.48092 0.58837 0.0
O38 O 0.24888 0.43847 0.58539 0.0
C39 C 0.18466 0.51442 0.58255 0.0
O40 O 0.19603 0.50738 0.55977 0.0
C41 C 0.22782 0.35417 0.56639 0.0
C42 C 0.19225 0.30275 0.58325 0.0
C43 C 0.21897 0.31988 0.56457 0.0
N44 N 0.20655 0.35684 0.5846 0.0
N45 N 0.18575 0.32608 0.59492 0.0
C46 C 0.25806 0.38451 0.55349 0.0
H47 H 0.27326 0.40303 0.56999 0.0
H48 H 0.24894 0.39731 0.53888 0.0
H49 H 0.2755 0.37764 0.54269 0.0
C50 C 0.13004 0.41454 0.56735 0.0
N51 N 0.15988 0.42168 0.57951 0.0
N52 N 0.16585 0.39629 0.57501 0.0
C53 C 0.14006 0.37236 0.55934 0.0
C54 C 0.1164 0.38303 0.55413 0.0
C55 C 0.115 0.43762 0.56853 0.0
H56 H 0.13012 0.45998 0.55484 0.0
H57 H 0.08808 0.4249 0.56125 0.0
H58 H 0.11646 0.44702 0.59005 0.0
O59 O 0.19036 0.44198 0.64083 0.0
O60 O 0.19686 0.39653 0.63489 0.0
H61 H 0.11559 0.32433 0.53663 0.0
H62 H 0.16088 0.34223 0.54331 0.0
C63 C 0.13637 0.33843 0.55192 0.0
H64 H 0.13015 0.32258 0.57095 0.0
H65 H 0.16675 0.32093 0.60965 0.0
O66 O 0.1788 0.49558 0.60386 0.0
C67 C 0.19279 0.41696 0.65066 0.0
Co68 Co 0.73255 0.1833 0.10855 0.0
Co69 Co 0.80763 0.20192 0.09218 0.0
C70 C 0.78785 0.2544 0.08911 0.0
O71 O 0.75885 0.23266 0.0991 0.0
O72 O 0.81023 0.24605 0.08317 0.0
C73 C 0.67624 0.18267 0.08589 0.0
O74 O 0.69919 0.19552 0.06592 0.0
C75 C 0.87346 0.22576 0.06345 0.0
C76 C 0.88874 0.18879 0.07804 0.0
C77 C 0.89874 0.21689 0.06089 0.0
N78 N 0.84962 0.204 0.08144 0.0
N79 N 0.85903 0.1821 0.0902 0.0
C80 C 0.87027 0.25238 0.04723 0.0
H81 H 0.8433 0.24197 0.04041 0.0
H82 H 0.88727 0.26085 0.02875 0.0
H83 H 0.87724 0.27482 0.06079 0.0
C84 C 0.71583 0.12594 0.07047 0.0
N85 N 0.73871 0.15562 0.08248 0.0
N86 N 0.76981 0.16411 0.07419 0.0
C87 C 0.76754 0.14058 0.05565 0.0
C88 C 0.73318 0.11533 0.05278 0.0
C89 C 0.67866 0.10642 0.07834 0.0
H90 H 0.67519 0.1124 0.10003 0.0
H91 H 0.66395 0.114 0.06438 0.0
H92 H 0.66823 0.0784 0.07641 0.0
O93 O 0.74885 0.17868 0.14529 0.0
O94 O 0.80339 0.19686 0.13386 0.0
H95 H 0.81046 0.13258 0.05351 0.0
H96 H 0.78937 0.12818 0.02062 0.0
C97 C 0.79757 0.14295 0.04028 0.0
H98 H 0.81621 0.17008 0.03542 0.0
H99 H 0.84481 0.16216 0.10411 0.0
O100 O 0.684 0.17296 0.10822 0.0
C101 C 0.77955 0.18725 0.15201 0.0
Co102 Co 0.54932 0.72867 0.60489 0.0
Co103 Co 0.60708 0.80474 0.59137 0.0
C104 C 0.53401 0.7837 0.58471 0.0
O105 O 0.52567 0.75378 0.5931 0.0
O106 O 0.56527 0.80682 0.58222 0.0
C107 C 0.49461 0.67156 0.58155 0.0
O108 O 0.50472 0.6943 0.56144 0.0
C109 C 0.64931 0.87346 0.56646 0.0
C110 C 0.70177 0.88476 0.57688 0.0
C111 C 0.68382 0.89738 0.56237 0.0
N112 N 0.64715 0.84744 0.58178 0.0
N113 N 0.67861 0.85475 0.58839 0.0
C114 C 0.61882 0.87657 0.5584 0.0
H115 H 0.60112 0.86956 0.57633 0.0
H116 H 0.60501 0.85866 0.5411 0.0
H117 H 0.62617 0.90307 0.55225 0.0
C118 C 0.59277 0.71382 0.56797 0.0
N119 N 0.585 0.73605 0.58007 0.0
N120 N 0.6079 0.76751 0.57275 0.0
C121 C 0.63015 0.76599 0.55472 0.0
C122 C 0.62149 0.732 0.55139 0.0
C123 C 0.57333 0.67593 0.57269 0.0
H124 H 0.56462 0.67031 0.5946 0.0
H125 H 0.55037 0.66432 0.55909 0.0
H126 H 0.58906 0.664 0.56762 0.0
O127 O 0.56826 0.745 0.64266 0.0
O128 O 0.60707 0.79907 0.63245 0.0
H129 H 0.68212 0.80661 0.55669 0.0
H130 H 0.66843 0.78931 0.52252 0.0
C131 C 0.66028 0.79641 0.54196 0.0
H132 H 0.6538 0.81661 0.53734 0.0
H133 H 0.68429 0.83882 0.60025 0.0
O134 O 0.51181 0.67969 0.60404 0.0
C135 C 0.59124 0.77503 0.6501 0.0
Co136 Co 0.82023 0.54655 0.10235 0.0
Co137 Co 0.80538 0.60691 0.09346 0.0
C138 C 0.75237 0.53446 0.08119 0.0
O139 O 0.77344 0.52433 0.0869 0.0
O140 O 0.76085 0.56586 0.08326 0.0
C141 C 0.83041 0.49371 0.08092 0.0
O142 O 0.82442 0.50434 0.05728 0.0
C143 C 0.78474 0.65049 0.06383 0.0
C144 C 0.81003 0.69849 0.08813 0.0
C145 C 0.78917 0.68323 0.06529 0.0
N146 N 0.80251 0.64676 0.08466 0.0
N147 N 0.81758 0.67552 0.09911 0.0
C148 C 0.76199 0.62204 0.04455 0.0
H149 H 0.73909 0.60297 0.05624 0.0
H150 H 0.77574 0.60891 0.03695 0.0
H151 H 0.75302 0.63103 0.02675 0.0
C152 C 0.88154 0.59225 0.06886 0.0
N153 N 0.85126 0.58426 0.08054 0.0
N154 N 0.84392 0.60846 0.07491 0.0
C155 C 0.86883 0.63207 0.05842 0.0
C156 C 0.89367 0.62266 0.05406 0.0
C157 C 0.90031 0.57324 0.07455 0.0
H158 H 0.89286 0.56051 0.09512 0.0
H159 H 0.89373 0.55344 0.05835 0.0
H160 H 0.92849 0.59085 0.07422 0.0
O161 O 0.81837 0.56115 0.14061 0.0
O162 O 0.81037 0.60566 0.13466 0.0
H163 H 0.87454 0.68187 0.06273 0.0
H164 H 0.8862 0.6737 0.02876 0.0
C165 C 0.86802 0.66227 0.04633 0.0
H166 H 0.84186 0.6542 0.03868 0.0
H167 H 0.83283 0.67938 0.11657 0.0
O168 O 0.83169 0.50946 0.1032 0.0
C169 C 0.81448 0.58524 0.15047 0.0
Co170 Co 0.27605 0.81993 0.60646 0.0
Co171 Co 0.20094 0.80406 0.59392 0.0
C172 C 0.21807 0.74957 0.58951 0.0
O173 O 0.24777 0.77049 0.59867 0.0
O174 O 0.19649 0.75915 0.5841 0.0
C175 C 0.32953 0.8146 0.58387 0.0
O176 O 0.30504 0.79906 0.56539 0.0
C177 C 0.13849 0.78643 0.56286 0.0
C178 C 0.11236 0.80587 0.59002 0.0
C179 C 0.10892 0.78875 0.56527 0.0
N180 N 0.15847 0.80172 0.58505 0.0
N181 N 0.14281 0.81342 0.60115 0.0
C182 C 0.14642 0.76688 0.54183 0.0
H183 H 0.1401 0.74174 0.55086 0.0
H184 H 0.17429 0.78094 0.53704 0.0
H185 H 0.13145 0.76207 0.52248 0.0
C186 C 0.29219 0.87682 0.56761 0.0
N187 N 0.2694 0.84761 0.58039 0.0
N188 N 0.23813 0.84159 0.57531 0.0
C189 C 0.24005 0.86705 0.55922 0.0
C190 C 0.27444 0.89034 0.55383 0.0
C191 C 0.33026 0.89134 0.56893 0.0
H192 H 0.33671 0.87285 0.55952 0.0
H193 H 0.34462 0.91581 0.55746 0.0
H194 H 0.33862 0.89502 0.59095 0.0
O195 O 0.26239 0.82639 0.6441 0.0
O196 O 0.2076 0.80962 0.635 0.0
H197 H 0.21751 0.89602 0.5422 0.0
H198 H 0.19271 0.85009 0.53773 0.0
C199 C 0.20979 0.87096 0.55206 0.0
H200 H 0.19507 0.86866 0.57119 0.0
H201 H 0.15263 0.826 0.61998 0.0
O202 O 0.32404 0.82854 0.60475 0.0
C203 C 0.23238 0.81894 0.65213 0.0
Co204 Co 0.73518 0.5466 0.40437 0.0
Co205 Co 0.81032 0.60779 0.4119 0.0
C206 C 0.79159 0.53497 0.42377 0.0
O207 O 0.76008 0.52445 0.41912 0.0
O208 O 0.81414 0.56646 0.42119 0.0
C209 C 0.67288 0.49207 0.4254 0.0
O210 O 0.69057 0.5005 0.44862 0.0
C211 C 0.87252 0.65382 0.44357 0.0
C212 C 0.90111 0.69568 0.41352 0.0
C213 C 0.90315 0.68449 0.43992 0.0
N214 N 0.85341 0.64743 0.42048 0.0
N215 N 0.87058 0.67267 0.40268 0.0
C216 C 0.86234 0.62977 0.46775 0.0
H217 H 0.84025 0.60441 0.46246 0.0
H218 H 0.85445 0.64021 0.48531 0.0
H219 H 0.88435 0.62694 0.47463 0.0
C220 C 0.71967 0.59229 0.43806 0.0
N221 N 0.74197 0.5842 0.42645 0.0
N222 N 0.77353 0.60941 0.43064 0.0
C223 C 0.7722 0.63418 0.44547 0.0
C224 C 0.73806 0.62406 0.45069 0.0
C225 C 0.68144 0.57036 0.43639 0.0
H226 H 0.67387 0.5589 0.4154 0.0
H227 H 0.67277 0.54939 0.45182 0.0
H228 H 0.66829 0.58502 0.44107 0.0
O229 O 0.75113 0.56172 0.36579 0.0
O230 O 0.80334 0.60698 0.37105 0.0
H231 H 0.8179 0.67967 0.43293 0.0
H232 H 0.79495 0.68615 0.46093 0.0
C233 C 0.80267 0.66828 0.45206 0.0
H234 H 0.81915 0.66476 0.46726 0.0
H235 H 0.86175 0.67383 0.38289 0.0
O236 O 0.68653 0.5096 0.40359 0.0
C237 C 0.77861 0.58629 0.35558 0.0
Co238 Co 0.19016 0.7317 0.90076 0.0
Co239 Co 0.20762 0.80673 0.91537 0.0
C240 C 0.25943 0.78566 0.92325 0.0
O241 O 0.23806 0.75575 0.91469 0.0
O242 O 0.25136 0.80889 0.92505 0.0
C243 C 0.1793 0.66845 0.92159 0.0
O244 O 0.18408 0.68482 0.94521 0.0
C245 C 0.22922 0.87099 0.94559 0.0
C246 C 0.19959 0.89137 0.92433 0.0
C247 C 0.22297 0.89822 0.94552 0.0
N248 N 0.21004 0.84887 0.92558 0.0
N249 N 0.19243 0.86122 0.91294 0.0
C250 C 0.25476 0.86691 0.96271 0.0
H251 H 0.24194 0.84126 0.97268 0.0
H252 H 0.26722 0.88711 0.97867 0.0
H253 H 0.27509 0.86825 0.94883 0.0
C254 C 0.1297 0.71525 0.93579 0.0
N255 N 0.16029 0.73775 0.9247 0.0
N256 N 0.16875 0.76892 0.93261 0.0
C257 C 0.1444 0.76706 0.95012 0.0
C258 C 0.11863 0.7329 0.95265 0.0
C259 C 0.10964 0.6783 0.92756 0.0
H260 H 0.11747 0.67459 0.9066 0.0
H261 H 0.11455 0.66265 0.94266 0.0
H262 H 0.0817 0.66916 0.9275 0.0
O263 O 0.18961 0.74966 0.86336 0.0
O264 O 0.2038 0.80324 0.87407 0.0
H265 H 0.13868 0.81136 0.95049 0.0
H266 H 0.12996 0.78945 0.98354 0.0
C267 C 0.14662 0.79732 0.96486 0.0
H268 H 0.17344 0.81486 0.97138 0.0
H269 H 0.17559 0.84909 0.89646 0.0
O270 O 0.17888 0.68309 0.89908 0.0
C271 C 0.19657 0.77971 0.85618 0.0
Co272 Co 0.45899 0.18467 0.40094 0.0
Co273 Co 0.40065 0.20185 0.4141 0.0
C274 C 0.47273 0.25534 0.41879 0.0
O275 O 0.48108 0.23405 0.40969 0.0
O276 O 0.44159 0.24638 0.42373 0.0
C277 C 0.51569 0.18596 0.42411 0.0
O278 O 0.50619 0.20001 0.44352 0.0
C279 C 0.35699 0.22448 0.4414 0.0
C280 C 0.3057 0.18844 0.42447 0.0
C281 C 0.32276 0.21557 0.44267 0.0
N282 N 0.36016 0.2036 0.4232 0.0
N283 N 0.32944 0.18231 0.41297 0.0
C284 C 0.3858 0.25042 0.45884 0.0
H285 H 0.4019 0.23972 0.46619 0.0
H286 H 0.37613 0.25825 0.477 0.0
H287 H 0.40211 0.27336 0.44599 0.0
C288 C 0.41823 0.12832 0.44025 0.0
N289 N 0.4246 0.15719 0.4269 0.0
N290 N 0.40026 0.16429 0.43281 0.0
C291 C 0.37773 0.14015 0.45039 0.0
C292 C 0.38838 0.11659 0.45562 0.0
C293 C 0.43857 0.1106 0.43625 0.0
H294 H 0.44788 0.11381 0.41453 0.0
H295 H 0.46113 0.1223 0.45029 0.0
H296 H 0.42304 0.08289 0.44117 0.0
O297 O 0.43909 0.17931 0.36346 0.0
O298 O 0.40162 0.19669 0.37285 0.0
H299 H 0.32656 0.13075 0.44567 0.0
H300 H 0.3361 0.12185 0.48002 0.0
C301 C 0.34656 0.1395 0.462 0.0
H302 H 0.35305 0.1656 0.46864 0.0
H303 H 0.32457 0.16312 0.39856 0.0
O304 O 0.49753 0.17485 0.40223 0.0
C305 C 0.41693 0.18735 0.35558 0.0
Co306 Co 0.27952 0.45703 0.90115 0.0
Co307 Co 0.20305 0.39984 0.91291 0.0
C308 C 0.2252 0.47343 0.92 0.0
O309 O 0.2553 0.48126 0.91243 0.0
O310 O 0.20167 0.44229 0.92233 0.0
C311 C 0.34157 0.51013 0.92277 0.0
O312 O 0.32358 0.50031 0.94585 0.0
C313 C 0.13411 0.35821 0.93798 0.0
C314 C 0.12137 0.30587 0.92591 0.0
C315 C 0.10947 0.32381 0.94128 0.0
N316 N 0.1598 0.36024 0.9222 0.0
N317 N 0.15166 0.32888 0.91466 0.0
C318 C 0.13207 0.38884 0.94731 0.0
H319 H 0.13899 0.4071 0.9298 0.0
H320 H 0.15063 0.40182 0.96442 0.0
H321 H 0.10588 0.38193 0.95417 0.0
C322 C 0.29313 0.41216 0.93747 0.0
N323 N 0.27146 0.42071 0.92533 0.0
N324 N 0.23965 0.39793 0.93197 0.0
C325 C 0.24039 0.37505 0.94975 0.0
C326 C 0.27422 0.38317 0.95353 0.0
C327 C 0.33118 0.43087 0.93313 0.0
H328 H 0.33754 0.4422 0.91202 0.0
H329 H 0.34338 0.45174 0.94865 0.0
H330 H 0.34196 0.41368 0.93598 0.0
O331 O 0.26335 0.4398 0.86361 0.0
O332 O 0.20902 0.39978 0.8714 0.0
H333 H 0.19875 0.32376 0.9466 0.0
H334 H 0.21602 0.3357 0.981 0.0
C335 C 0.2094 0.34495 0.96191 0.0
H336 H 0.18962 0.35194 0.96694 0.0
H337 H 0.16719 0.32314 0.90231 0.0
O338 O 0.32833 0.49361 0.90049 0.0
C339 C 0.23398 0.4171 0.85477 0.0
Co340 Co 0.82141 0.27484 0.40217 0.0
Co341 Co 0.80495 0.19902 0.41306 0.0
C342 C 0.75136 0.21813 0.4207 0.0
O343 O 0.77264 0.24872 0.41361 0.0
O344 O 0.76008 0.19531 0.42185 0.0
C345 C 0.82266 0.3314 0.426 0.0
O346 O 0.80939 0.30837 0.44585 0.0
C347 C 0.78186 0.13343 0.44122 0.0
C348 C 0.81484 0.11533 0.42254 0.0
C349 C 0.78912 0.10695 0.44195 0.0
N350 N 0.80227 0.15644 0.42217 0.0
N351 N 0.82176 0.14535 0.41093 0.0
C352 C 0.75807 0.13834 0.45988 0.0
H353 H 0.7696 0.1658 0.46546 0.0
H354 H 0.7524 0.12284 0.47911 0.0
H355 H 0.73367 0.13042 0.44869 0.0
C356 C 0.87879 0.28943 0.44036 0.0
N357 N 0.84965 0.26738 0.42704 0.0
N358 N 0.84256 0.23579 0.43217 0.0
C359 C 0.86704 0.23688 0.44908 0.0
C360 C 0.89073 0.27086 0.45481 0.0
C361 C 0.89655 0.32754 0.43721 0.0
H362 H 0.89316 0.33438 0.41578 0.0
H363 H 0.88503 0.33793 0.45189 0.0
H364 H 0.92436 0.33951 0.44187 0.0
O365 O 0.82498 0.25984 0.36385 0.0
O366 O 0.81136 0.20583 0.37231 0.0
H367 H 0.87512 0.19467 0.44199 0.0
H368 H 0.88703 0.21278 0.47635 0.0
C369 C 0.86804 0.20606 0.45938 0.0
H370 H 0.84234 0.18674 0.46711 0.0
H371 H 0.8402 0.15858 0.39565 0.0
O372 O 0.83225 0.32357 0.40364 0.0
C373 C 0.81913 0.2305 0.35544 0.0
Co374 Co 0.55209 0.82147 0.89737 0.0
Co375 Co 0.60862 0.80296 0.91331 0.0
C376 C 0.53649 0.75049 0.91691 0.0
O377 O 0.52913 0.77208 0.90677 0.0
O378 O 0.56724 0.75901 0.92293 0.0
C379 C 0.4966 0.82172 0.9207 0.0
O380 O 0.50702 0.80886 0.94041 0.0
C381 C 0.65152 0.78188 0.94386 0.0
C382 C 0.70118 0.81017 0.92188 0.0
C383 C 0.68487 0.78762 0.9436 0.0
N384 N 0.64845 0.80053 0.92342 0.0
N385 N 0.67821 0.81738 0.91037 0.0
C386 C 0.62209 0.7572 0.96155 0.0
H387 H 0.60354 0.73575 0.94834 0.0
H388 H 0.60862 0.77012 0.97021 0.0
H389 H 0.6302 0.74629 0.97857 0.0
C390 C 0.59353 0.87932 0.93488 0.0
N391 N 0.58634 0.84937 0.92315 0.0
N392 N 0.60922 0.8411 0.93109 0.0
C393 C 0.63119 0.86512 0.94899 0.0
C394 C 0.62213 0.8904 0.95191 0.0
C395 C 0.57563 0.89866 0.92721 0.0
H396 H 0.56567 0.89233 0.90568 0.0
H397 H 0.55365 0.89121 0.94149 0.0
H398 H 0.59321 0.92671 0.92882 0.0
O399 O 0.57252 0.82596 0.86035 0.0
O400 O 0.60879 0.8077 0.87173 0.0
H401 H 0.68133 0.87092 0.94875 0.0
H402 H 0.66885 0.88029 0.98188 0.0
C403 C 0.65969 0.86331 0.96344 0.0
H404 H 0.65067 0.83668 0.97027 0.0
H405 H 0.68277 0.83368 0.8935 0.0
O406 O 0.51381 0.83165 0.89824 0.0
C407 C 0.59452 0.81724 0.85358 0.0
H408 H 0.61735 0.14844 0.11729 0.0
H409 H 0.53922 0.25999 0.06391 0.0
H410 H 0.66122 0.21818 0.04817 0.0
H411 H 0.47297 0.15824 0.09585 0.0
H412 H 0.58616 0.24746 0.06133 0.0
H413 H 0.56551 0.15354 0.11353 0.0
C414 C 0.61599 0.1646 0.10126 0.0
C415 C 0.64368 0.18303 0.0831 0.0
C416 C 0.56123 0.22772 0.06857 0.0
C417 C 0.585 0.18926 0.07897 0.0
C418 C 0.53449 0.23486 0.07005 0.0
C419 C 0.50223 0.21007 0.08003 0.0
C420 C 0.55596 0.19591 0.07784 0.0
C421 C 0.49745 0.17793 0.08782 0.0
C422 C 0.58642 0.16735 0.09905 0.0
C423 C 0.64053 0.2035 0.06262 0.0
N424 N 0.52425 0.17191 0.08701 0.0
N425 N 0.61197 0.20643 0.06136 0.0
H426 H 0.31564 0.46707 0.59816 0.0
H427 H 0.44596 0.65461 0.54161 0.0
H428 H 0.28355 0.53179 0.55754 0.0
H429 H 0.4687 0.61378 0.61457 0.0
H430 H 0.39005 0.60272 0.53854 0.0
H431 H 0.37556 0.51405 0.5955 0.0
C432 C 0.32128 0.49087 0.58816 0.0
C433 C 0.29467 0.49566 0.5781 0.0
C434 C 0.40739 0.605 0.55509 0.0
C435 C 0.36273 0.54904 0.57492 0.0
C436 C 0.4394 0.63457 0.55685 0.0
C437 C 0.462 0.63871 0.57856 0.0
C438 C 0.39791 0.57902 0.57492 0.0
C439 C 0.45195 0.61176 0.59765 0.0
C440 C 0.35534 0.51767 0.5869 0.0
C441 C 0.30329 0.5271 0.56564 0.0
N442 N 0.42053 0.58298 0.59542 0.0
N443 N 0.33656 0.55256 0.56438 0.0
H444 H 0.75935 0.2853 0.11836 0.0
H445 H 0.84178 0.46015 0.03836 0.0
H446 H 0.83577 0.3057 0.05554 0.0
H447 H 0.81913 0.45281 0.12605 0.0
H448 H 0.83484 0.40247 0.04002 0.0
H449 H 0.77437 0.34523 0.11679 0.0
C450 C 0.77915 0.30235 0.10405 0.0
C451 C 0.7963 0.29048 0.08698 0.0
C452 C 0.83189 0.41382 0.05888 0.0
C453 C 0.81347 0.35916 0.0851 0.0
C454 C 0.83574 0.44659 0.05798 0.0
C455 C 0.83082 0.46116 0.08208 0.0
C456 C 0.82221 0.39538 0.08389 0.0
C457 C 0.82315 0.44258 0.10698 0.0
C458 C 0.78789 0.33661 0.10338 0.0
C459 C 0.82198 0.31389 0.06905 0.0
N460 N 0.81851 0.41042 0.10713 0.0
N461 N 0.82962 0.34721 0.06834 0.0
H462 H 0.53671 0.84535 0.5918 0.0
H463 H 0.3412 0.77349 0.54971 0.0
H464 H 0.46859 0.74049 0.56759 0.0
H465 H 0.39112 0.85325 0.61108 0.0
H466 H 0.39286 0.76892 0.54654 0.0
H467 H 0.48824 0.85608 0.58938 0.0
C468 C 0.51173 0.82481 0.58549 0.0
C469 C 0.50654 0.79196 0.57993 0.0
C470 C 0.39257 0.78756 0.56057 0.0
C471 C 0.45147 0.8041 0.57703 0.0
C472 C 0.36315 0.79031 0.56236 0.0
C473 C 0.36176 0.81364 0.58087 0.0
C474 C 0.42109 0.80862 0.57708 0.0
C475 C 0.39105 0.83473 0.59673 0.0
C476 C 0.48414 0.83087 0.58436 0.0
C477 C 0.47362 0.76613 0.57216 0.0
N478 N 0.41964 0.83174 0.59447 0.0
N479 N 0.44735 0.77276 0.57089 0.0
H480 H 0.72956 0.47329 0.05514 0.0
H481 H 0.54103 0.39025 0.11298 0.0
H482 H 0.69375 0.53565 0.09448 0.0
H483 H 0.56688 0.3493 0.04184 0.0
H484 H 0.59706 0.44293 0.10894 0.0
H485 H 0.67028 0.42639 0.05187 0.0
C486 C 0.70911 0.47724 0.0627 0.0
C487 C 0.71649 0.50834 0.07506 0.0
C488 C 0.59015 0.4225 0.09406 0.0
C489 C 0.64873 0.45452 0.0721 0.0
C490 C 0.55832 0.39243 0.09642 0.0
C491 C 0.54936 0.36526 0.07783 0.0
C492 C 0.61329 0.42502 0.07332 0.0
C493 C 0.57268 0.36951 0.05668 0.0
C494 C 0.67531 0.45049 0.06084 0.0
C495 C 0.68906 0.51211 0.08462 0.0
N496 N 0.6037 0.39858 0.05524 0.0
N497 N 0.65634 0.48525 0.0834 0.0
H498 H 0.18464 0.54916 0.62895 0.0
H499 H 0.17421 0.70049 0.55244 0.0
H500 H 0.17879 0.55097 0.53953 0.0
H501 H 0.23904 0.71578 0.62331 0.0
H502 H 0.16014 0.64001 0.55069 0.0
H503 H 0.18766 0.60488 0.6307 0.0
C504 C 0.1834 0.56099 0.60972 0.0
C505 C 0.18188 0.54567 0.58403 0.0
C506 C 0.17728 0.65677 0.56663 0.0
C507 C 0.18499 0.60907 0.58597 0.0
C508 C 0.18524 0.69106 0.56765 0.0
C509 C 0.20808 0.71308 0.58785 0.0
C510 C 0.19145 0.64454 0.58649 0.0
C511 C 0.22168 0.69974 0.60717 0.0
C512 C 0.18527 0.59279 0.61075 0.0
C513 C 0.18037 0.56218 0.55974 0.0
N514 N 0.213 0.66632 0.60613 0.0
N515 N 0.18206 0.59314 0.56127 0.0
H516 H 0.85142 0.53688 0.40903 0.0
H517 H 0.79066 0.34847 0.46563 0.0
H518 H 0.75469 0.47384 0.45039 0.0
H519 H 0.85591 0.38953 0.39357 0.0
H520 H 0.78762 0.40089 0.46885 0.0
H521 H 0.86343 0.48934 0.41201 0.0
C522 C 0.8331 0.51334 0.41928 0.0
C523 C 0.80197 0.50918 0.42943 0.0
C524 C 0.80282 0.39853 0.45247 0.0
C525 C 0.81556 0.45511 0.43293 0.0
C526 C 0.80469 0.36865 0.45062 0.0
C527 C 0.82335 0.36444 0.42911 0.0
C528 C 0.82008 0.42472 0.43292 0.0
C529 C 0.841 0.39159 0.41032 0.0
C530 C 0.83983 0.48621 0.42072 0.0
C531 C 0.77892 0.47804 0.4422 0.0
N532 N 0.83889 0.42064 0.41262 0.0
N533 N 0.78618 0.45222 0.44358 0.0
H534 H 0.28174 0.74308 0.94197 0.0
H535 H 0.47204 0.85714 0.89088 0.0
H536 H 0.31822 0.84695 0.91494 0.0
H537 H 0.44575 0.78424 0.95767 0.0
H538 H 0.41501 0.85174 0.89525 0.0
H539 H 0.34115 0.7552 0.9442 0.0
C540 C 0.30233 0.76856 0.93684 0.0
C541 C 0.29516 0.79409 0.92834 0.0
C542 C 0.42204 0.83728 0.90909 0.0
C543 C 0.36293 0.80781 0.93009 0.0
C544 C 0.4544 0.84021 0.90652 0.0
C545 C 0.46357 0.82103 0.92386 0.0
C546 C 0.39858 0.81443 0.92866 0.0
C547 C 0.43981 0.79955 0.94387 0.0
C548 C 0.33616 0.77546 0.93812 0.0
C549 C 0.32275 0.82666 0.92182 0.0
N550 N 0.40827 0.79648 0.94546 0.0
N551 N 0.35549 0.83248 0.92236 0.0
H552 H 0.64028 0.45499 0.37925 0.0
H553 H 0.47619 0.30525 0.45403 0.0
H554 H 0.62924 0.4566 0.46821 0.0
H555 H 0.53028 0.28806 0.3876 0.0
H556 H 0.52245 0.36577 0.45575 0.0
H557 H 0.58851 0.39855 0.3778 0.0
C558 C 0.62665 0.44375 0.39842 0.0
C559 C 0.63925 0.46029 0.42394 0.0
C560 C 0.5239 0.34855 0.44084 0.0
C561 C 0.58001 0.39601 0.42232 0.0
C562 C 0.49768 0.31422 0.43984 0.0
C563 C 0.49969 0.29166 0.42085 0.0
C564 C 0.55145 0.36029 0.42212 0.0
C565 C 0.52794 0.30448 0.4028 0.0
C566 C 0.59727 0.41152 0.39757 0.0
C567 C 0.62054 0.44447 0.44815 0.0
N568 N 0.55254 0.33797 0.40374 0.0
N569 N 0.59178 0.41305 0.44679 0.0
H570 H 0.16233 0.6216 0.96356 0.0
H571 H 0.25981 0.53651 0.89653 0.0
H572 H 0.19753 0.64144 0.87859 0.0
H573 H 0.17139 0.47364 0.94773 0.0
H574 H 0.24416 0.581 0.89631 0.0
H575 H 0.17041 0.57146 0.96386 0.0
C576 C 0.17135 0.61516 0.9449 0.0
C577 C 0.1794 0.63573 0.92103 0.0
C578 C 0.22823 0.55749 0.90763 0.0
C579 C 0.18941 0.57933 0.92156 0.0
C580 C 0.23728 0.53217 0.90804 0.0
C581 C 0.21688 0.50125 0.92223 0.0
C582 C 0.19897 0.55237 0.922 0.0
C583 C 0.18777 0.49708 0.93651 0.0
C584 C 0.17585 0.58661 0.94511 0.0
C585 C 0.19093 0.62626 0.8974 0.0
N586 N 0.17978 0.52257 0.93626 0.0
N587 N 0.19619 0.59911 0.89843 0.0
H588 H 0.567 0.2228 0.4609 0.0
H589 H 0.69289 0.15671 0.41106 0.0
H590 H 0.53945 0.15008 0.3939 0.0
H591 H 0.7282 0.25911 0.44125 0.0
H592 H 0.63336 0.14508 0.41419 0.0
H593 H 0.62317 0.22708 0.46347 0.0
C594 C 0.57259 0.20741 0.4469 0.0
C595 C 0.54857 0.18624 0.42697 0.0
C596 C 0.65423 0.16992 0.42036 0.0
C597 C 0.61284 0.19091 0.43005 0.0
C598 C 0.68806 0.17648 0.4188 0.0
C599 C 0.71541 0.20896 0.42582 0.0
C600 C 0.64787 0.19577 0.42963 0.0
C601 C 0.70785 0.23381 0.43549 0.0
C602 C 0.60472 0.21 0.44835 0.0
C603 C 0.55735 0.16693 0.40939 0.0
N604 N 0.6748 0.22667 0.43717 0.0
N605 N 0.58888 0.16972 0.41133 0.0
H606 H 0.38487 0.54396 0.96609 0.0
H607 H 0.47758 0.71917 0.88702 0.0
H608 H 0.37252 0.55097 0.87786 0.0
H609 H 0.53302 0.69937 0.95073 0.0
H610 H 0.43325 0.65896 0.88804 0.0
H611 H 0.43519 0.60198 0.96511 0.0
C612 C 0.39299 0.55753 0.9465 0.0
C613 C 0.37446 0.54276 0.92203 0.0
C614 C 0.45514 0.66779 0.90177 0.0
C615 C 0.43109 0.60893 0.92099 0.0
C616 C 0.4803 0.70219 0.90142 0.0
C617 C 0.50901 0.7143 0.91889 0.0
C618 C 0.45818 0.64532 0.92013 0.0
C619 C 0.51129 0.691 0.93692 0.0
C620 C 0.42165 0.59048 0.94598 0.0
C621 C 0.38607 0.56135 0.89719 0.0
N622 N 0.48593 0.65752 0.93731 0.0
N623 N 0.41329 0.59372 0.89739 0.0
H624 H 0.42446 0.15121 0.31306 0.0
H625 H 0.4347 0.27617 0.19456 0.0
H626 H 0.39891 0.22994 0.32976 0.0
H627 H 0.39746 0.16921 0.17769 0.0
H628 H 0.42907 0.26336 0.24456 0.0
H629 H 0.42175 0.16047 0.26309 0.0
C630 C 0.41796 0.17018 0.3062 0.0
C631 C 0.41177 0.18974 0.32553 0.0
C632 C 0.42188 0.24275 0.2298 0.0
C633 C 0.40958 0.20105 0.26868 0.0
C634 C 0.42519 0.25004 0.20136 0.0
C635 C 0.41649 0.22372 0.18198 0.0
C636 C 0.41071 0.20914 0.23882 0.0
C637 C 0.40427 0.19026 0.19191 0.0
C638 C 0.41639 0.17541 0.27777 0.0
C639 C 0.40356 0.2141 0.31554 0.0
N640 N 0.40219 0.18399 0.21964 0.0
N641 N 0.40323 0.21945 0.28778 0.0
H642 H 0.17856 0.35967 0.68118 0.0
H643 H 0.27075 0.46469 0.81538 0.0
H644 H 0.21155 0.46714 0.68943 0.0
H645 H 0.18317 0.3632 0.82504 0.0
H646 H 0.25803 0.46261 0.76599 0.0
H647 H 0.18706 0.35714 0.7315 0.0
C648 C 0.1873 0.3826 0.69357 0.0
C649 C 0.19435 0.41368 0.68113 0.0
C650 C 0.24172 0.44074 0.77892 0.0
C651 C 0.20488 0.41105 0.73808 0.0
C652 C 0.24909 0.44172 0.80707 0.0
C653 C 0.22796 0.41404 0.82442 0.0
C654 C 0.21343 0.41164 0.76776 0.0
C655 C 0.20004 0.38511 0.8124 0.0
C656 C 0.19205 0.38108 0.72217 0.0
C657 C 0.20562 0.44263 0.69813 0.0
N658 N 0.19364 0.38454 0.78466 0.0
N659 N 0.21102 0.44072 0.72564 0.0
H660 H 0.85022 0.27654 0.31274 0.0
H661 H 0.73853 0.14884 0.19493 0.0
H662 H 0.78505 0.16863 0.32942 0.0
H663 H 0.8402 0.23219 0.17687 0.0
H664 H 0.75157 0.15815 0.24469 0.0
H665 H 0.84378 0.2639 0.26271 0.0
C666 C 0.8348 0.25023 0.30591 0.0
C667 C 0.81815 0.22361 0.32528 0.0
C668 C 0.77113 0.1741 0.22978 0.0
C669 C 0.81021 0.20919 0.26837 0.0
C670 C 0.76371 0.16883 0.20146 0.0
C671 C 0.78837 0.18969 0.18181 0.0
C672 C 0.80305 0.20105 0.2385 0.0
C673 C 0.82058 0.21534 0.19136 0.0
C674 C 0.83126 0.24305 0.27744 0.0
C675 C 0.79848 0.18995 0.31527 0.0
N676 N 0.82683 0.2207 0.21908 0.0
N677 N 0.79464 0.18376 0.28752 0.0
H678 H 0.61334 0.77428 0.8294 0.0
H679 H 0.61646 0.8376 0.67462 0.0
H680 H 0.58922 0.85342 0.80997 0.0
H681 H 0.58019 0.73131 0.69373 0.0
H682 H 0.62201 0.85034 0.72438 0.0
H683 H 0.61676 0.76518 0.77955 0.0
C684 C 0.60938 0.79017 0.81467 0.0
C685 C 0.60089 0.81461 0.8238 0.0
C686 C 0.61314 0.82432 0.7176 0.0
C687 C 0.60505 0.80444 0.76699 0.0
C688 C 0.61014 0.81701 0.68926 0.0
C689 C 0.59769 0.78326 0.68002 0.0
C690 C 0.60437 0.79788 0.73686 0.0
C691 C 0.58967 0.7576 0.69997 0.0
C692 C 0.61108 0.78474 0.7863 0.0
C693 C 0.59567 0.83422 0.80379 0.0
N694 N 0.59324 0.76546 0.72751 0.0
N695 N 0.59793 0.82878 0.77629 0.0
H696 H 0.79809 0.53462 0.18846 0.0
H697 H 0.82261 0.64248 0.32443 0.0
H698 H 0.82358 0.64032 0.18181 0.0
H699 H 0.7452 0.53577 0.31733 0.0
H700 H 0.83228 0.6441 0.274 0.0
H701 H 0.78891 0.53648 0.23822 0.0
C702 C 0.80214 0.55837 0.1975 0.0
C703 C 0.81158 0.58738 0.18093 0.0
C704 C 0.81304 0.62051 0.2836 0.0
C705 C 0.80118 0.58957 0.23794 0.0
C706 C 0.80753 0.61951 0.31227 0.0
C707 C 0.78303 0.58894 0.32507 0.0
C708 C 0.79456 0.59051 0.2679 0.0
C709 C 0.7642 0.55993 0.30835 0.0
C710 C 0.79661 0.55928 0.22586 0.0
C711 C 0.81618 0.61736 0.19383 0.0
N712 N 0.77067 0.56132 0.28071 0.0
N713 N 0.81112 0.61778 0.2217 0.0
H714 H 0.23722 0.84182 0.83167 0.0
H715 H 0.17078 0.78046 0.67799 0.0
H716 H 0.16192 0.73702 0.81283 0.0
H717 H 0.27722 0.85313 0.69476 0.0
H718 H 0.15991 0.77285 0.72802 0.0
H719 H 0.24478 0.85445 0.78173 0.0
C720 C 0.22192 0.82161 0.81704 0.0
C721 C 0.19896 0.78828 0.82634 0.0
C722 C 0.18553 0.79069 0.72066 0.0
C723 C 0.20722 0.80273 0.76951 0.0
C724 C 0.19176 0.79527 0.69218 0.0
C725 C 0.22503 0.8174 0.6822 0.0
C726 C 0.21255 0.80893 0.73932 0.0
C727 C 0.25126 0.83569 0.70158 0.0
C728 C 0.22643 0.82882 0.78865 0.0
C729 C 0.18 0.76299 0.80651 0.0
N730 N 0.24444 0.83112 0.72928 0.0
N731 N 0.18443 0.77077 0.77898 0.0
H732 H 0.22871 0.90041 1.00212 0.0
H733 H 0.31833 0.10503 0.00993 0.0
H734 H 0.24857 0.96476 0.93026 0.0
H735 H 0.29795 0.04036 0.08166 0.0
H736 H 0.29259 0.05406 0.98032 0.0
H737 H 0.25363 0.95137 0.03167 0.0
C738 C 0.23882 0.92539 0.99257 0.0
C739 C 0.23759 0.92862 0.96371 0.0
C740 C 0.29389 0.05098 1.00251 0.0
C741 C 0.2652 0.98692 0.99733 0.0
C742 C 0.30891 0.08007 0.01935 0.0
C743 C 0.31114 0.07682 0.04811 0.0
C744 C 0.28076 0.0184 0.0146 0.0
C745 C 0.29705 0.04388 0.05948 0.0
C746 C 0.25273 0.95444 0.00943 0.0
C747 C 0.24952 0.96134 0.95244 0.0
N748 N 0.28264 0.01593 0.04269 0.0
N749 N 0.26305 0.98929 0.96926 0.0
H750 H 0.22554 0.26409 0.57598 0.0
H751 H 0.34049 0.28271 0.44596 0.0
H752 H 0.24249 0.33666 0.51081 0.0
H753 H 0.26939 0.1829 0.47877 0.0
H754 H 0.31391 0.30769 0.47537 0.0
H755 H 0.24968 0.23746 0.54581 0.0
C756 C 0.23468 0.27467 0.55549 0.0
C757 C 0.23341 0.30363 0.5464 0.0
C758 C 0.30416 0.28032 0.47606 0.0
C759 C 0.26108 0.2735 0.51206 0.0
C760 C 0.31935 0.26617 0.45947 0.0
C761 C 0.30701 0.23083 0.46014 0.0
C762 C 0.27706 0.25903 0.49384 0.0
C763 C 0.27945 0.21029 0.47774 0.0
C764 C 0.24834 0.25945 0.53834 0.0
C765 C 0.24487 0.31577 0.51939 0.0
N766 N 0.26557 0.22475 0.49421 0.0
N767 N 0.25872 0.30097 0.50332 0.0
H768 H 0.94612 0.28484 0.0566 0.0
H769 H 0.04973 0.26418 0.93166 0.0
H770 H 0.92181 0.18546 0.0257 0.0
H771 H 0.09818 0.34602 0.99144 0.0
H772 H 0.99812 0.23753 0.96085 0.0
H773 H 0.99768 0.31109 0.02727 0.0
C774 C 0.95159 0.26864 0.04346 0.0
C775 C 0.92974 0.23305 0.0433 0.0
C776 C 0.02001 0.26153 0.96733 0.0
C777 C 0.98823 0.26271 0.0098 0.0
C778 C 0.04939 0.27678 0.95071 0.0
C779 C 0.0779 0.30811 0.95852 0.0
C780 C 0.01906 0.27782 0.99186 0.0
C781 C 0.07626 0.32293 0.98373 0.0
C782 C 0.98102 0.28354 0.02692 0.0
C783 C 0.93813 0.21303 0.02631 0.0
N784 N 0.04721 0.30785 0.99935 0.0
N785 N 0.9666 0.22817 0.00998 0.0
H786 H 0.74525 0.95589 0.57029 0.0
H787 H 0.72101 0.06251 0.45024 0.0
H788 H 0.6597 0.90948 0.5135 0.0
H789 H 0.82156 0.08151 0.47356 0.0
H790 H 0.6953 0.01122 0.4798 0.0
H791 H 0.77167 0.00726 0.54086 0.0
C792 C 0.73179 0.95663 0.55187 0.0
C793 C 0.69951 0.92881 0.54501 0.0
C794 C 0.72299 0.02667 0.47843 0.0
C795 C 0.72951 0.98735 0.51146 0.0
C796 C 0.7376 0.05593 0.46177 0.0
C797 C 0.77336 0.07616 0.45971 0.0
C798 C 0.74433 0.01807 0.4935 0.0
C799 C 0.79384 0.06642 0.47468 0.0
C800 C 0.74692 0.98587 0.53512 0.0
C801 C 0.6836 0.93093 0.52057 0.0
N802 N 0.77904 0.03817 0.49123 0.0
N803 N 0.69857 0.95984 0.50485 0.0
H804 H 0.79072 0.6865 0.00858 0.0
H805 H 0.68342 0.78456 1.00036 0.0
H806 H 0.75661 0.7178 0.08071 0.0
H807 H 0.72357 0.75936 0.9285 0.0
H808 H 0.70941 0.75967 0.03021 0.0
H809 H 0.76575 0.71247 0.97882 0.0
C810 C 0.77752 0.69848 0.01809 0.0
C811 C 0.77478 0.69924 0.04704 0.0
C812 C 0.71245 0.75943 0.00791 0.0
C813 C 0.74697 0.72976 0.01328 0.0
C814 C 0.69734 0.77331 0.9909 0.0
C815 C 0.70062 0.77306 0.96197 0.0
C816 C 0.73116 0.7454 0.99588 0.0
C817 C 0.72015 0.75961 0.95075 0.0
C818 C 0.76358 0.71358 1.00114 0.0
C819 C 0.75882 0.71635 0.05842 0.0
N820 N 0.73451 0.74608 0.96771 0.0
N821 N 0.74528 0.73075 0.04151 0.0
H822 H 0.9704 0.72007 0.42475 0.0
H823 H 0.04191 0.75237 0.58067 0.0
H824 H 0.90527 0.68844 0.49722 0.0
H825 H 0.10673 0.794 0.50863 0.0
H826 H 0.99141 0.728 0.55042 0.0
H827 H 0.02069 0.7467 0.45502 0.0
C828 C 0.96664 0.71861 0.44704 0.0
C829 C 0.9335 0.70113 0.45843 0.0
C830 C 0.01667 0.7423 0.54118 0.0
C831 C 0.991 0.73167 0.49326 0.0
C832 C 0.04545 0.75619 0.55843 0.0
C833 C 0.07848 0.77426 0.547 0.0
C834 C 0.02099 0.74678 0.51228 0.0
C835 C 0.08174 0.77898 0.51815 0.0
C836 C 0.99538 0.73378 0.46431 0.0
C837 C 0.9302 0.70031 0.48745 0.0
N838 N 0.05336 0.76516 0.50175 0.0
N839 N 0.95857 0.71522 0.50385 0.0
H840 H 0.67385 0.08582 0.02247 0.0
H841 H 0.69153 0.93519 0.95638 0.0
H842 H 0.75828 0.07123 0.04589 0.0
H843 H 0.59341 0.92041 0.98291 0.0
H844 H 0.71987 0.99018 0.98108 0.0
H845 H 0.64704 0.03036 0.99878 0.0
C846 C 0.68678 0.071 0.02264 0.0
C847 C 0.71825 0.0831 0.03639 0.0
C848 C 0.69214 0.97472 0.9815 0.0
C849 C 0.68821 0.02023 0.00859 0.0
C850 C 0.67595 0.94325 0.96765 0.0
C851 C 0.64 0.92307 0.96767 0.0
C852 C 0.67218 0.98644 0.99477 0.0
C853 C 0.62112 0.93535 0.98196 0.0
C854 C 0.67151 0.03946 0.00905 0.0
C855 C 0.73427 0.06318 0.03524 0.0
N856 N 0.63739 0.96639 0.99468 0.0
N857 N 0.71914 0.03273 0.02147 0.0
H858 H 0.69997 0.64947 0.42787 0.0
H859 H 0.65736 0.70418 0.57397 0.0
H860 H 0.74465 0.64286 0.50507 0.0
H861 H 0.62993 0.7297 0.49548 0.0
H862 H 0.68864 0.68059 0.54926 0.0
H863 H 0.67347 0.67831 0.45211 0.0
C864 C 0.70424 0.65431 0.44996 0.0
C865 C 0.72412 0.64365 0.46467 0.0
C866 C 0.67596 0.69149 0.53739 0.0
C867 C 0.69398 0.67636 0.49255 0.0
C868 C 0.65807 0.70479 0.55147 0.0
C869 C 0.64109 0.71864 0.5366 0.0
C870 C 0.67659 0.69181 0.5082 0.0
C871 C 0.64277 0.71914 0.50756 0.0
C872 C 0.68922 0.67077 0.46377 0.0
C873 C 0.7293 0.65067 0.49314 0.0
N874 N 0.66004 0.7057 0.49425 0.0
N875 N 0.71406 0.66634 0.50625 0.0
H876 H 0.94052 0.69182 0.05264 0.0
H877 H 0.08841 0.67383 0.98307 0.0
H878 H 0.92141 0.59489 0.01951 0.0
H879 H 0.07453 0.75833 0.95878 0.0
H880 H 0.03281 0.64755 0.00664 0.0
H881 H 0.99536 0.72033 0.02737 0.0
C882 C 0.9476 0.67658 0.03984 0.0
C883 C 0.92628 0.64088 0.03815 0.0
C884 C 0.04211 0.67192 0.99621 0.0
C885 C 0.98937 0.67309 0.01044 0.0
C886 C 0.07369 0.68686 0.98263 0.0
C887 C 0.08606 0.7182 0.96869 0.0
C888 C 0.02314 0.68887 0.99655 0.0
C889 C 0.06628 0.73441 0.9696 0.0
C890 C 0.97895 0.69284 0.02566 0.0
C891 C 0.93727 0.62234 0.02186 0.0
N892 N 0.0358 0.71965 0.98346 0.0
N893 N 0.96824 0.63858 0.00893 0.0
H894 H 0.25896 0.90442 0.50227 0.0
H895 H 0.41317 0.09645 0.49879 0.0
H896 H 0.32266 0.95275 0.57376 0.0
H897 H 0.32323 0.06353 0.44799 0.0
H898 H 0.38388 0.04154 0.52367 0.0
H899 H 0.28511 0.96048 0.47898 0.0
C900 C 0.27838 0.92687 0.51304 0.0
C901 C 0.28906 0.92401 0.53976 0.0
C902 C 0.37046 0.04643 0.50721 0.0
C903 C 0.31931 0.98774 0.51328 0.0
C904 C 0.38716 0.07762 0.49305 0.0
C905 C 0.37037 0.08434 0.47157 0.0
C906 C 0.33705 0.02159 0.49937 0.0
C907 C 0.33679 0.05924 0.46468 0.0
C908 C 0.29326 0.95874 0.49979 0.0
C909 C 0.3143 0.95379 0.55287 0.0
N910 N 0.32126 0.02875 0.47839 0.0
N911 N 0.32885 0.98437 0.5394 0.0
H912 H 0.27594 0.37591 0.00958 0.0
H913 H 0.36866 0.26328 0.99992 0.0
H914 H 0.30185 0.34643 0.93225 0.0
H915 H 0.36008 0.30912 0.07574 0.0
H916 H 0.33825 0.28791 0.97518 0.0
H917 H 0.30071 0.34594 0.03481 0.0
C918 C 0.28668 0.36286 0.99801 0.0
C919 C 0.28715 0.36361 0.96896 0.0
C920 C 0.34295 0.29256 0.99724 0.0
C921 C 0.31543 0.32946 0.99737 0.0
C922 C 0.36018 0.27845 0.01129 0.0
C923 C 0.36707 0.28461 0.03971 0.0
C924 C 0.33232 0.31269 0.01184 0.0
C925 C 0.35553 0.30423 0.05369 0.0
C926 C 0.30089 0.3459 0.01232 0.0
C927 C 0.30129 0.34646 0.95473 0.0
N928 N 0.33878 0.31766 0.03961 0.0
N929 N 0.31495 0.33011 0.96907 0.0
H930 H 0.05382 0.36505 0.57614 0.0
H931 H 0.94424 0.26009 0.44459 0.0
H932 H 0.10193 0.35665 0.50147 0.0
H933 H 0.91101 0.31306 0.49976 0.0
H934 H 0.9994 0.2855 0.4694 0.0
H935 H 0.99806 0.33609 0.55256 0.0
C936 C 0.05256 0.35707 0.55475 0.0
C937 C 0.08243 0.36361 0.54053 0.0
C938 C 0.97995 0.29141 0.47611 0.0
C939 C 0.01887 0.32978 0.51375 0.0
C940 C 0.94856 0.27683 0.46212 0.0
C941 C 0.92329 0.28456 0.47033 0.0
C942 C 0.98571 0.31331 0.49872 0.0
C943 C 0.93 0.30658 0.49292 0.0
C944 C 0.02082 0.34053 0.54136 0.0
C945 C 0.0794 0.35205 0.51309 0.0
N946 N 0.96054 0.32008 0.50647 0.0
N947 N 0.04812 0.33561 0.50054 0.0
loop_
_geom_bond_atom_site_label_1
_geom_bond_atom_site_label_2
_geom_bond_distance
_geom_bond_site_symmetry_2
_ccdc_geom_bond_type
Co0 O3 1.970 . S
Co0 N17 1.989 . S
Co0 O25 1.967 . S
Co0 O32 1.920 . S
Co1 O4 1.966 . S
Co1 N10 2.022 . S
Co1 N18 1.993 . S
Co1 O26 1.941 . S
C2 O3 1.258 . S
C2 O4 1.263 . S
O3 Co0 1.970 . S
O3 C2 1.258 . S
O4 Co1 1.966 . S
O4 C2 1.263 . S
C5 O6 1.235 . S
C5 O32 1.289 . S
O6 C5 1.235 . S
C7 C9 1.400 . S
C7 N10 1.351 . S
C7 C12 1.501 . S
C8 C9 1.387 . S
C8 N11 1.341 . S
C9 C7 1.400 . S
C9 C8 1.387 . S
N10 Co1 2.022 . S
N10 C7 1.351 . S
N10 N11 1.365 . S
N11 C8 1.341 . S
N11 N10 1.365 . S
N11 H31 0.862 . S
C12 C7 1.501 . S
C12 H13 0.961 . S
C12 H14 0.961 . S
C12 H15 0.960 . S
H13 C12 0.961 . S
H14 C12 0.961 . S
H15 C12 0.960 . S
C16 N17 1.342 . S
C16 C20 1.401 . S
C16 C21 1.499 . S
N17 Co0 1.989 . S
N17 C16 1.342 . S
N17 N18 1.388 . S
N18 Co1 1.993 . S
N18 N17 1.388 . S
N18 C19 1.346 . S
C19 N18 1.346 . S
C19 C20 1.396 . S
C19 C29 1.510 . S
C20 C16 1.401 . S
C20 C19 1.396 . S
C21 C16 1.499 . S
C21 H22 0.959 . S
C21 H23 0.960 . S
C21 H24 0.961 . S
H22 C21 0.959 . S
H23 C21 0.960 . S
H24 C21 0.961 . S
O25 Co0 1.967 . S
O25 C33 1.258 . S
O26 Co1 1.941 . S
O26 C33 1.266 . S
H27 C29 0.959 . S
H28 C29 0.961 . S
C29 C19 1.510 . S
C29 H27 0.959 . S
C29 H28 0.961 . S
C29 H30 0.960 . S
H30 C29 0.960 . S
H31 N11 0.862 . S
O32 Co0 1.920 . S
O32 C5 1.289 . S
C33 O25 1.258 . S
C33 O26 1.266 . S
Co34 O37 1.970 . S
Co34 N51 1.989 . S
Co34 O59 1.967 . S
Co34 O66 1.920 . S
Co35 O38 1.966 . S
Co35 N44 2.022 . S
Co35 N52 1.993 . S
Co35 O60 1.941 . S
C36 O37 1.258 . S
C36 O38 1.263 . S
O37 Co34 1.970 . S
O37 C36 1.258 . S
O38 Co35 1.966 . S
O38 C36 1.263 . S
C39 O40 1.235 . S
C39 O66 1.289 . S
O40 C39 1.235 . S
C41 C43 1.400 . S
C41 N44 1.351 . S
C41 C46 1.501 . S
C42 C43 1.387 . S
C42 N45 1.341 . S
C43 C41 1.400 . S
C43 C42 1.387 . S
N44 Co35 2.022 . S
N44 C41 1.351 . S
N44 N45 1.365 . S
N45 C42 1.341 . S
N45 N44 1.365 . S
N45 H65 0.862 . S
C46 C41 1.501 . S
C46 H47 0.961 . S
C46 H48 0.961 . S
C46 H49 0.960 . S
H47 C46 0.961 . S
H48 C46 0.961 . S
H49 C46 0.960 . S
C50 N51 1.342 . S
C50 C54 1.401 . S
C50 C55 1.499 . S
N51 Co34 1.989 . S
N51 C50 1.342 . S
N51 N52 1.388 . S
N52 Co35 1.993 . S
N52 N51 1.388 . S
N52 C53 1.346 . S
C53 N52 1.346 . S
C53 C54 1.396 . S
C53 C63 1.510 . S
C54 C50 1.401 . S
C54 C53 1.396 . S
C55 C50 1.499 . S
C55 H56 0.959 . S
C55 H57 0.960 . S
C55 H58 0.961 . S
H56 C55 0.959 . S
H57 C55 0.960 . S
H58 C55 0.961 . S
O59 Co34 1.967 . S
O59 C67 1.258 . S
O60 Co35 1.941 . S
O60 C67 1.266 . S
H61 C63 0.959 . S
H62 C63 0.961 . S
C63 C53 1.510 . S
C63 H61 0.959 . S
C63 H62 0.961 . S
C63 H64 0.960 . S
H64 C63 0.960 . S
H65 N45 0.862 . S
O66 Co34 1.920 . S
O66 C39 1.289 . S
C67 O59 1.258 . S
C67 O60 1.266 . S
Co68 O71 1.970 . S
Co68 N85 1.989 . S
Co68 O93 1.967 . S
Co68 O100 1.920 . S
Co69 O72 1.966 . S
Co69 N78 2.022 . S
Co69 N86 1.993 . S
Co69 O94 1.941 . S
C70 O71 1.258 . S
C70 O72 1.263 . S
O71 Co68 1.970 . S
O71 C70 1.258 . S
O72 Co69 1.966 . S
O72 C70 1.263 . S
C73 O74 1.235 . S
C73 O100 1.289 . S
O74 C73 1.235 . S
C75 C77 1.400 . S
C75 N78 1.351 . S
C75 C80 1.501 . S
C76 C77 1.387 . S
C76 N79 1.341 . S
C77 C75 1.400 . S
C77 C76 1.387 . S
N78 Co69 2.022 . S
N78 C75 1.351 . S
N78 N79 1.365 . S
N79 C76 1.341 . S
N79 N78 1.365 . S
N79 H99 0.862 . S
C80 C75 1.501 . S
C80 H81 0.961 . S
C80 H82 0.961 . S
C80 H83 0.960 . S
H81 C80 0.961 . S
H82 C80 0.961 . S
H83 C80 0.960 . S
C84 N85 1.342 . S
C84 C88 1.401 . S
C84 C89 1.499 . S
N85 Co68 1.989 . S
N85 C84 1.342 . S
N85 N86 1.388 . S
N86 Co69 1.993 . S
N86 N85 1.388 . S
N86 C87 1.346 . S
C87 N86 1.346 . S
C87 C88 1.396 . S
C87 C97 1.510 . S
C88 C84 1.401 . S
C88 C87 1.396 . S
C89 C84 1.499 . S
C89 H90 0.959 . S
C89 H91 0.960 . S
C89 H92 0.961 . S
H90 C89 0.959 . S
H91 C89 0.960 . S
H92 C89 0.961 . S
O93 Co68 1.967 . S
O93 C101 1.258 . S
O94 Co69 1.941 . S
O94 C101 1.266 . S
H95 C97 0.959 . S
H96 C97 0.961 . S
C97 C87 1.510 . S
C97 H95 0.959 . S
C97 H96 0.961 . S
C97 H98 0.960 . S
H98 C97 0.960 . S
H99 N79 0.862 . S
O100 Co68 1.920 . S
O100 C73 1.289 . S
C101 O93 1.258 . S
C101 O94 1.266 . S
Co102 O105 1.970 . S
Co102 N119 1.989 . S
Co102 O127 1.967 . S
Co102 O134 1.920 . S
Co103 O106 1.966 . S
Co103 N112 2.022 . S
Co103 N120 1.993 . S
Co103 O128 1.941 . S
C104 O105 1.258 . S
C104 O106 1.263 . S
O105 Co102 1.970 . S
O105 C104 1.258 . S
O106 Co103 1.966 . S
O106 C104 1.263 . S
C107 O108 1.235 . S
C107 O134 1.289 . S
O108 C107 1.235 . S
C109 C111 1.400 . S
C109 N112 1.351 . S
C109 C114 1.501 . S
C110 C111 1.387 . S
C110 N113 1.341 . S
C111 C109 1.400 . S
C111 C110 1.387 . S
N112 Co103 2.022 . S
N112 C109 1.351 . S
N112 N113 1.365 . S
N113 C110 1.341 . S
N113 N112 1.365 . S
N113 H133 0.862 . S
C114 C109 1.501 . S
C114 H115 0.961 . S
C114 H116 0.961 . S
C114 H117 0.960 . S
H115 C114 0.961 . S
H116 C114 0.961 . S
H117 C114 0.960 . S
C118 N119 1.342 . S
C118 C122 1.401 . S
C118 C123 1.499 . S
N119 Co102 1.989 . S
N119 C118 1.342 . S
N119 N120 1.388 . S
N120 Co103 1.993 . S
N120 N119 1.388 . S
N120 C121 1.346 . S
C121 N120 1.346 . S
C121 C122 1.396 . S
C121 C131 1.510 . S
C122 C118 1.401 . S
C122 C121 1.396 . S
C123 C118 1.499 . S
C123 H124 0.959 . S
C123 H125 0.960 . S
C123 H126 0.961 . S
H124 C123 0.959 . S
H125 C123 0.960 . S
H126 C123 0.961 . S
O127 Co102 1.967 . S
O127 C135 1.258 . S
O128 Co103 1.941 . S
O128 C135 1.266 . S
H129 C131 0.959 . S
H130 C131 0.961 . S
C131 C121 1.510 . S
C131 H129 0.959 . S
C131 H130 0.961 . S
C131 H132 0.960 . S
H132 C131 0.960 . S
H133 N113 0.862 . S
O134 Co102 1.920 . S
O134 C107 1.289 . S
C135 O127 1.258 . S
C135 O128 1.266 . S
Co136 O139 1.970 . S
Co136 N153 1.989 . S
Co136 O161 1.967 . S
Co136 O168 1.920 . S
Co137 O140 1.966 . S
Co137 N146 2.022 . S
Co137 N154 1.993 . S
Co137 O162 1.941 . S
C138 O139 1.258 . S
C138 O140 1.263 . S
O139 Co136 1.970 . S
O139 C138 1.258 . S
O140 Co137 1.966 . S
O140 C138 1.263 . S
C141 O142 1.235 . S
C141 O168 1.289 . S
O142 C141 1.235 . S
C143 C145 1.400 . S
C143 N146 1.351 . S
C143 C148 1.501 . S
C144 C145 1.387 . S
C144 N147 1.341 . S
C145 C143 1.400 . S
C145 C144 1.387 . S
N146 Co137 2.022 . S
N146 C143 1.351 . S
N146 N147 1.365 . S
N147 C144 1.341 . S
N147 N146 1.365 . S
N147 H167 0.862 . S
C148 C143 1.501 . S
C148 H149 0.961 . S
C148 H150 0.961 . S
C148 H151 0.960 . S
H149 C148 0.961 . S
H150 C148 0.961 . S
H151 C148 0.960 . S
C152 N153 1.342 . S
C152 C156 1.401 . S
C152 C157 1.499 . S
N153 Co136 1.989 . S
N153 C152 1.342 . S
N153 N154 1.388 . S
N154 Co137 1.993 . S
N154 N153 1.388 . S
N154 C155 1.346 . S
C155 N154 1.346 . S
C155 C156 1.396 . S
C155 C165 1.510 . S
C156 C152 1.401 . S
C156 C155 1.396 . S
C157 C152 1.499 . S
C157 H158 0.959 . S
C157 H159 0.960 . S
C157 H160 0.961 . S
H158 C157 0.959 . S
H159 C157 0.960 . S
H160 C157 0.961 . S
O161 Co136 1.967 . S
O161 C169 1.258 . S
O162 Co137 1.941 . S
O162 C169 1.266 . S
H163 C165 0.959 . S
H164 C165 0.961 . S
C165 C155 1.510 . S
C165 H163 0.959 . S
C165 H164 0.961 . S
C165 H166 0.960 . S
H166 C165 0.960 . S
H167 N147 0.862 . S
O168 Co136 1.920 . S
O168 C141 1.289 . S
C169 O161 1.258 . S
C169 O162 1.266 . S
Co170 O173 1.970 . S
Co170 N187 1.989 . S
Co170 O195 1.967 . S
Co170 O202 1.920 . S
Co171 O174 1.966 . S
Co171 N180 2.022 . S
Co171 N188 1.993 . S
Co171 O196 1.941 . S
C172 O173 1.258 . S
C172 O174 1.263 . S
O173 Co170 1.970 . S
O173 C172 1.258 . S
O174 Co171 1.966 . S
O174 C172 1.263 . S
C175 O176 1.235 . S
C175 O202 1.289 . S
O176 C175 1.235 . S
C177 C179 1.400 . S
C177 N180 1.351 . S
C177 C182 1.501 . S
C178 C179 1.387 . S
C178 N181 1.341 . S
C179 C177 1.400 . S
C179 C178 1.387 . S
N180 Co171 2.022 . S
N180 C177 1.351 . S
N180 N181 1.365 . S
N181 C178 1.341 . S
N181 N180 1.365 . S
N181 H201 0.862 . S
C182 C177 1.501 . S
C182 H183 0.961 . S
C182 H184 0.961 . S
C182 H185 0.960 . S
H183 C182 0.961 . S
H184 C182 0.961 . S
H185 C182 0.960 . S
C186 N187 1.342 . S
C186 C190 1.401 . S
C186 C191 1.499 . S
N187 Co170 1.989 . S
N187 C186 1.342 . S
N187 N188 1.388 . S
N188 Co171 1.993 . S
N188 N187 1.388 . S
N188 C189 1.346 . S
C189 N188 1.346 . S
C189 C190 1.396 . S
C189 C199 1.510 . S
C190 C186 1.401 . S
C190 C189 1.396 . S
C191 C186 1.499 . S
C191 H192 0.959 . S
C191 H193 0.960 . S
C191 H194 0.961 . S
H192 C191 0.959 . S
H193 C191 0.960 . S
H194 C191 0.961 . S
O195 Co170 1.967 . S
O195 C203 1.258 . S
O196 Co171 1.941 . S
O196 C203 1.266 . S
H197 C199 0.959 . S
H198 C199 0.961 . S
C199 C189 1.510 . S
C199 H197 0.959 . S
C199 H198 0.961 . S
C199 H200 0.960 . S
H200 C199 0.960 . S
H201 N181 0.862 . S
O202 Co170 1.920 . S
O202 C175 1.289 . S
C203 O195 1.258 . S
C203 O196 1.266 . S
Co204 O207 1.970 . S
Co204 N221 1.989 . S
Co204 O229 1.967 . S
Co204 O236 1.920 . S
Co205 O208 1.966 . S
Co205 N214 2.022 . S
Co205 N222 1.993 . S
Co205 O230 1.941 . S
C206 O207 1.258 . S
C206 O208 1.263 . S
O207 Co204 1.970 . S
O207 C206 1.258 . S
O208 Co205 1.966 . S
O208 C206 1.263 . S
C209 O210 1.235 . S
C209 O236 1.289 . S
O210 C209 1.235 . S
C211 C213 1.400 . S
C211 N214 1.351 . S
C211 C216 1.501 . S
C212 C213 1.387 . S
C212 N215 1.341 . S
C213 C211 1.400 . S
C213 C212 1.387 . S
N214 Co205 2.022 . S
N214 C211 1.351 . S
N214 N215 1.365 . S
N215 C212 1.341 . S
N215 N214 1.365 . S
N215 H235 0.862 . S
C216 C211 1.501 . S
C216 H217 0.961 . S
C216 H218 0.961 . S
C216 H219 0.960 . S
H217 C216 0.961 . S
H218 C216 0.961 . S
H219 C216 0.960 . S
C220 N221 1.342 . S
C220 C224 1.401 . S
C220 C225 1.499 . S
N221 Co204 1.989 . S
N221 C220 1.342 . S
N221 N222 1.388 . S
N222 Co205 1.993 . S
N222 N221 1.388 . S
N222 C223 1.346 . S
C223 N222 1.346 . S
C223 C224 1.396 . S
C223 C233 1.510 . S
C224 C220 1.401 . S
C224 C223 1.396 . S
C225 C220 1.499 . S
C225 H226 0.959 . S
C225 H227 0.960 . S
C225 H228 0.961 . S
H226 C225 0.959 . S
H227 C225 0.960 . S
H228 C225 0.961 . S
O229 Co204 1.967 . S
O229 C237 1.258 . S
O230 Co205 1.941 . S
O230 C237 1.266 . S
H231 C233 0.959 . S
H232 C233 0.961 . S
C233 C223 1.510 . S
C233 H231 0.959 . S
C233 H232 0.961 . S
C233 H234 0.960 . S
H234 C233 0.960 . S
H235 N215 0.862 . S
O236 Co204 1.920 . S
O236 C209 1.289 . S
C237 O229 1.258 . S
C237 O230 1.266 . S
Co238 O241 1.970 . S
Co238 N255 1.989 . S
Co238 O263 1.967 . S
Co238 O270 1.920 . S
Co239 O242 1.966 . S
Co239 N248 2.022 . S
Co239 N256 1.993 . S
Co239 O264 1.941 . S
C240 O241 1.258 . S
C240 O242 1.263 . S
O241 Co238 1.970 . S
O241 C240 1.258 . S
O242 Co239 1.966 . S
O242 C240 1.263 . S
C243 O244 1.235 . S
C243 O270 1.289 . S
O244 C243 1.235 . S
C245 C247 1.400 . S
C245 N248 1.351 . S
C245 C250 1.501 . S
C246 C247 1.387 . S
C246 N249 1.341 . S
C247 C245 1.400 . S
C247 C246 1.387 . S
N248 Co239 2.022 . S
N248 C245 1.351 . S
N248 N249 1.365 . S
N249 C246 1.341 . S
N249 N248 1.365 . S
N249 H269 0.862 . S
C250 C245 1.501 . S
C250 H251 0.961 . S
C250 H252 0.961 . S
C250 H253 0.960 . S
H251 C250 0.961 . S
H252 C250 0.961 . S
H253 C250 0.960 . S
C254 N255 1.342 . S
C254 C258 1.401 . S
C254 C259 1.499 . S
N255 Co238 1.989 . S
N255 C254 1.342 . S
N255 N256 1.388 . S
N256 Co239 1.993 . S
N256 N255 1.388 . S
N256 C257 1.346 . S
C257 N256 1.346 . S
C257 C258 1.396 . S
C257 C267 1.510 . S
C258 C254 1.401 . S
C258 C257 1.396 . S
C259 C254 1.499 . S
C259 H260 0.959 . S
C259 H261 0.960 . S
C259 H262 0.961 . S
H260 C259 0.959 . S
H261 C259 0.960 . S
H262 C259 0.961 . S
O263 Co238 1.967 . S
O263 C271 1.258 . S
O264 Co239 1.941 . S
O264 C271 1.266 . S
H265 C267 0.959 . S
H266 C267 0.961 . S
C267 C257 1.510 . S
C267 H265 0.959 . S
C267 H266 0.961 . S
C267 H268 0.960 . S
H268 C267 0.960 . S
H269 N249 0.862 . S
O270 Co238 1.920 . S
O270 C243 1.289 . S
C271 O263 1.258 . S
C271 O264 1.266 . S
Co272 O275 1.970 . S
Co272 N289 1.989 . S
Co272 O297 1.967 . S
Co272 O304 1.920 . S
Co273 O276 1.966 . S
Co273 N282 2.022 . S
Co273 N290 1.993 . S
Co273 O298 1.941 . S
C274 O275 1.258 . S
C274 O276 1.263 . S
O275 Co272 1.970 . S
O275 C274 1.258 . S
O276 Co273 1.966 . S
O276 C274 1.263 . S
C277 O278 1.235 . S
C277 O304 1.289 . S
O278 C277 1.235 . S
C279 C281 1.400 . S
C279 N282 1.351 . S
C279 C284 1.501 . S
C280 C281 1.387 . S
C280 N283 1.341 . S
C281 C279 1.400 . S
C281 C280 1.387 . S
N282 Co273 2.022 . S
N282 C279 1.351 . S
N282 N283 1.365 . S
N283 C280 1.341 . S
N283 N282 1.365 . S
N283 H303 0.862 . S
C284 C279 1.501 . S
C284 H285 0.961 . S
C284 H286 0.961 . S
C284 H287 0.960 . S
H285 C284 0.961 . S
H286 C284 0.961 . S
H287 C284 0.960 . S
C288 N289 1.342 . S
C288 C292 1.401 . S
C288 C293 1.499 . S
N289 Co272 1.989 . S
N289 C288 1.342 . S
N289 N290 1.388 . S
N290 Co273 1.993 . S
N290 N289 1.388 . S
N290 C291 1.346 . S
C291 N290 1.346 . S
C291 C292 1.396 . S
C291 C301 1.510 . S
C292 C288 1.401 . S
C292 C291 1.396 . S
C293 C288 1.499 . S
C293 H294 0.959 . S
C293 H295 0.960 . S
C293 H296 0.961 . S
H294 C293 0.959 . S
H295 C293 0.960 . S
H296 C293 0.961 . S
O297 Co272 1.967 . S
O297 C305 1.258 . S
O298 Co273 1.941 . S
O298 C305 1.266 . S
H299 C301 0.959 . S
H300 C301 0.961 . S
C301 C291 1.510 . S
C301 H299 0.959 . S
C301 H300 0.961 . S
C301 H302 0.960 . S
H302 C301 0.960 . S
H303 N283 0.862 . S
O304 Co272 1.920 . S
O304 C277 1.289 . S
C305 O297 1.258 . S
C305 O298 1.266 . S
Co306 O309 1.970 . S
Co306 N323 1.989 . S
Co306 O331 1.967 . S
Co306 O338 1.920 . S
Co307 O310 1.966 . S
Co307 N316 2.022 . S
Co307 N324 1.993 . S
Co307 O332 1.941 . S
C308 O309 1.258 . S
C308 O310 1.263 . S
O309 Co306 1.970 . S
O309 C308 1.258 . S
O310 Co307 1.966 . S
O310 C308 1.263 . S
C311 O312 1.235 . S
C311 O338 1.289 . S
O312 C311 1.235 . S
C313 C315 1.400 . S
C313 N316 1.351 . S
C313 C318 1.501 . S
C314 C315 1.387 . S
C314 N317 1.341 . S
C315 C313 1.400 . S
C315 C314 1.387 . S
N316 Co307 2.022 . S
N316 C313 1.351 . S
N316 N317 1.365 . S
N317 C314 1.341 . S
N317 N316 1.365 . S
N317 H337 0.862 . S
C318 C313 1.501 . S
C318 H319 0.961 . S
C318 H320 0.961 . S
C318 H321 0.960 . S
H319 C318 0.961 . S
H320 C318 0.961 . S
H321 C318 0.960 . S
C322 N323 1.342 . S
C322 C326 1.401 . S
C322 C327 1.499 . S
N323 Co306 1.989 . S
N323 C322 1.342 . S
N323 N324 1.388 . S
N324 Co307 1.993 . S
N324 N323 1.388 . S
N324 C325 1.346 . S
C325 N324 1.346 . S
C325 C326 1.396 . S
C325 C335 1.510 . S
C326 C322 1.401 . S
C326 C325 1.396 . S
C327 C322 1.499 . S
C327 H328 0.959 . S
C327 H329 0.960 . S
C327 H330 0.961 . S
H328 C327 0.959 . S
H329 C327 0.960 . S
H330 C327 0.961 . S
O331 Co306 1.967 . S
O331 C339 1.258 . S
O332 Co307 1.941 . S
O332 C339 1.266 . S
H333 C335 0.959 . S
H334 C335 0.961 . S
C335 C325 1.510 . S
C335 H333 0.959 . S
C335 H334 0.961 . S
C335 H336 0.960 . S
H336 C335 0.960 . S
H337 N317 0.862 . S
O338 Co306 1.920 . S
O338 C311 1.289 . S
C339 O331 1.258 . S
C339 O332 1.266 . S
Co340 O343 1.970 . S
Co340 N357 1.989 . S
Co340 O365 1.967 . S
Co340 O372 1.920 . S
Co341 O344 1.966 . S
Co341 N350 2.022 . S
Co341 N358 1.993 . S
Co341 O366 1.941 . S
C342 O343 1.258 . S
C342 O344 1.263 . S
O343 Co340 1.970 . S
O343 C342 1.258 . S
O344 Co341 1.966 . S
O344 C342 1.263 . S
C345 O346 1.235 . S
C345 O372 1.289 . S
O346 C345 1.235 . S
C347 C349 1.400 . S
C347 N350 1.351 . S
C347 C352 1.501 . S
C348 C349 1.387 . S
C348 N351 1.341 . S
C349 C347 1.400 . S
C349 C348 1.387 . S
N350 Co341 2.022 . S
N350 C347 1.351 . S
N350 N351 1.365 . S
N351 C348 1.341 . S
N351 N350 1.365 . S
N351 H371 0.862 . S
C352 C347 1.501 . S
C352 H353 0.961 . S
C352 H354 0.961 . S
C352 H355 0.960 . S
H353 C352 0.961 . S
H354 C352 0.961 . S
H355 C352 0.960 . S
C356 N357 1.342 . S
C356 C360 1.401 . S
C356 C361 1.499 . S
N357 Co340 1.989 . S
N357 C356 1.342 . S
N357 N358 1.388 . S
N358 Co341 1.993 . S
N358 N357 1.388 . S
N358 C359 1.346 . S
C359 N358 1.346 . S
C359 C360 1.396 . S
C359 C369 1.510 . S
C360 C356 1.401 . S
C360 C359 1.396 . S
C361 C356 1.499 . S
C361 H362 0.959 . S
C361 H363 0.960 . S
C361 H364 0.961 . S
H362 C361 0.959 . S
H363 C361 0.960 . S
H364 C361 0.961 . S
O365 Co340 1.967 . S
O365 C373 1.258 . S
O366 Co341 1.941 . S
O366 C373 1.266 . S
H367 C369 0.959 . S
H368 C369 0.961 . S
C369 C359 1.510 . S
C369 H367 0.959 . S
C369 H368 0.961 . S
C369 H370 0.960 . S
H370 C369 0.960 . S
H371 N351 0.862 . S
O372 Co340 1.920 . S
O372 C345 1.289 . S
C373 O365 1.258 . S
C373 O366 1.266 . S
Co374 O377 1.970 . S
Co374 N391 1.989 . S
Co374 O399 1.967 . S
Co374 O406 1.920 . S
Co375 O378 1.966 . S
Co375 N384 2.022 . S
Co375 N392 1.993 . S
Co375 O400 1.941 . S
C376 O377 1.258 . S
C376 O378 1.263 . S
O377 Co374 1.970 . S
O377 C376 1.258 . S
O378 Co375 1.966 . S
O378 C376 1.263 . S
C379 O380 1.235 . S
C379 O406 1.289 . S
O380 C379 1.235 . S
C381 C383 1.400 . S
C381 N384 1.351 . S
C381 C386 1.501 . S
C382 C383 1.387 . S
C382 N385 1.341 . S
C383 C381 1.400 . S
C383 C382 1.387 . S
N384 Co375 2.022 . S
N384 C381 1.351 . S
N384 N385 1.365 . S
N385 C382 1.341 . S
N385 N384 1.365 . S
N385 H405 0.862 . S
C386 C381 1.501 . S
C386 H387 0.961 . S
C386 H388 0.961 . S
C386 H389 0.960 . S
H387 C386 0.961 . S
H388 C386 0.961 . S
H389 C386 0.960 . S
C390 N391 1.342 . S
C390 C394 1.401 . S
C390 C395 1.499 . S
N391 Co374 1.989 . S
N391 C390 1.342 . S
N391 N392 1.388 . S
N392 Co375 1.993 . S
N392 N391 1.388 . S
N392 C393 1.346 . S
C393 N392 1.346 . S
C393 C394 1.396 . S
C393 C403 1.510 . S
C394 C390 1.401 . S
C394 C393 1.396 . S
C395 C390 1.499 . S
C395 H396 0.959 . S
C395 H397 0.960 . S
C395 H398 0.961 . S
H396 C395 0.959 . S
H397 C395 0.960 . S
H398 C395 0.961 . S
O399 Co374 1.967 . S
O399 C407 1.258 . S
O400 Co375 1.941 . S
O400 C407 1.266 . S
H401 C403 0.959 . S
H402 C403 0.961 . S
C403 C393 1.510 . S
C403 H401 0.959 . S
C403 H402 0.961 . S
C403 H404 0.960 . S
H404 C403 0.960 . S
H405 N385 0.862 . S
O406 Co374 1.920 . S
O406 C379 1.289 . S
C407 O399 1.258 . S
C407 O400 1.266 . S
H408 C414 0.930 . S
H409 C418 0.930 . S
H410 C423 0.929 . S
H411 C421 0.929 . S
H412 C416 0.929 . S
H413 C422 0.929 . S
C414 H408 0.930 . S
C414 C415 1.367 . S
C414 C422 1.378 . S
C415 C414 1.367 . S
C415 C423 1.433 . S
C416 H412 0.929 . S
C416 C418 1.378 . S
C416 C420 1.350 . S
C417 C420 1.463 . S
C417 C422 1.350 . S
C417 N425 1.427 . S
C418 H409 0.930 . S
C418 C416 1.378 . S
C418 C419 1.367 . S
C419 C418 1.367 . S
C419 C421 1.433 . S
C420 C416 1.350 . S
C420 C417 1.463 . S
C420 N424 1.427 . S
C421 H411 0.929 . S
C421 C419 1.433 . S
C421 N424 1.384 . S
C422 H413 0.929 . S
C422 C414 1.378 . S
C422 C417 1.350 . S
C423 H410 0.929 . S
C423 C415 1.433 . S
C423 N425 1.384 . S
N424 C420 1.427 . S
N424 C421 1.384 . S
N425 C417 1.427 . S
N425 C423 1.384 . S
H426 C432 0.930 . S
H427 C436 0.930 . S
H428 C441 0.929 . S
H429 C439 0.929 . S
H430 C434 0.929 . S
H431 C440 0.929 . S
C432 H426 0.930 . S
C432 C433 1.367 . S
C432 C440 1.378 . S
C433 C432 1.367 . S
C433 C441 1.433 . S
C434 H430 0.929 . S
C434 C436 1.378 . S
C434 C438 1.350 . S
C435 C438 1.463 . S
C435 C440 1.350 . S
C435 N443 1.427 . S
C436 H427 0.930 . S
C436 C434 1.378 . S
C436 C437 1.367 . S
C437 C436 1.367 . S
C437 C439 1.433 . S
C438 C434 1.350 . S
C438 C435 1.463 . S
C438 N442 1.427 . S
C439 H429 0.929 . S
C439 C437 1.433 . S
C439 N442 1.384 . S
C440 H431 0.929 . S
C440 C432 1.378 . S
C440 C435 1.350 . S
C441 H428 0.929 . S
C441 C433 1.433 . S
C441 N443 1.384 . S
N442 C438 1.427 . S
N442 C439 1.384 . S
N443 C435 1.427 . S
N443 C441 1.384 . S
H444 C450 0.930 . S
H445 C454 0.930 . S
H446 C459 0.929 . S
H447 C457 0.929 . S
H448 C452 0.929 . S
H449 C458 0.929 . S
C450 H444 0.930 . S
C450 C451 1.367 . S
C450 C458 1.378 . S
C451 C450 1.367 . S
C451 C459 1.433 . S
C452 H448 0.929 . S
C452 C454 1.378 . S
C452 C456 1.350 . S
C453 C456 1.463 . S
C453 C458 1.350 . S
C453 N461 1.427 . S
C454 H445 0.930 . S
C454 C452 1.378 . S
C454 C455 1.367 . S
C455 C454 1.367 . S
C455 C457 1.433 . S
C456 C452 1.350 . S
C456 C453 1.463 . S
C456 N460 1.427 . S
C457 H447 0.929 . S
C457 C455 1.433 . S
C457 N460 1.384 . S
C458 H449 0.929 . S
C458 C450 1.378 . S
C458 C453 1.350 . S
C459 H446 0.929 . S
C459 C451 1.433 . S
C459 N461 1.384 . S
N460 C456 1.427 . S
N460 C457 1.384 . S
N461 C453 1.427 . S
N461 C459 1.384 . S
H462 C468 0.930 . S
H463 C472 0.930 . S
H464 C477 0.929 . S
H465 C475 0.929 . S
H466 C470 0.929 . S
H467 C476 0.929 . S
C468 H462 0.930 . S
C468 C469 1.367 . S
C468 C476 1.378 . S
C469 C468 1.367 . S
C469 C477 1.433 . S
C470 H466 0.929 . S
C470 C472 1.378 . S
C470 C474 1.350 . S
C471 C474 1.463 . S
C471 C476 1.350 . S
C471 N479 1.427 . S
C472 H463 0.930 . S
C472 C470 1.378 . S
C472 C473 1.367 . S
C473 C472 1.367 . S
C473 C475 1.433 . S
C474 C470 1.350 . S
C474 C471 1.463 . S
C474 N478 1.427 . S
C475 H465 0.929 . S
C475 C473 1.433 . S
C475 N478 1.384 . S
C476 H467 0.929 . S
C476 C468 1.378 . S
C476 C471 1.350 . S
C477 H464 0.929 . S
C477 C469 1.433 . S
C477 N479 1.384 . S
N478 C474 1.427 . S
N478 C475 1.384 . S
N479 C471 1.427 . S
N479 C477 1.384 . S
H480 C486 0.930 . S
H481 C490 0.930 . S
H482 C495 0.929 . S
H483 C493 0.929 . S
H484 C488 0.929 . S
H485 C494 0.929 . S
C486 H480 0.930 . S
C486 C487 1.367 . S
C486 C494 1.378 . S
C487 C486 1.367 . S
C487 C495 1.433 . S
C488 H484 0.929 . S
C488 C490 1.378 . S
C488 C492 1.350 . S
C489 C492 1.463 . S
C489 C494 1.350 . S
C489 N497 1.427 . S
C490 H481 0.930 . S
C490 C488 1.378 . S
C490 C491 1.367 . S
C491 C490 1.367 . S
C491 C493 1.433 . S
C492 C488 1.350 . S
C492 C489 1.463 . S
C492 N496 1.427 . S
C493 H483 0.929 . S
C493 C491 1.433 . S
C493 N496 1.384 . S
C494 H485 0.929 . S
C494 C486 1.378 . S
C494 C489 1.350 . S
C495 H482 0.929 . S
C495 C487 1.433 . S
C495 N497 1.384 . S
N496 C492 1.427 . S
N496 C493 1.384 . S
N497 C489 1.427 . S
N497 C495 1.384 . S
H498 C504 0.930 . S
H499 C508 0.930 . S
H500 C513 0.929 . S
H501 C511 0.929 . S
H502 C506 0.929 . S
H503 C512 0.929 . S
C504 H498 0.930 . S
C504 C505 1.367 . S
C504 C512 1.378 . S
C505 C504 1.367 . S
C505 C513 1.433 . S
C506 H502 0.929 . S
C506 C508 1.378 . S
C506 C510 1.350 . S
C507 C510 1.463 . S
C507 C512 1.350 . S
C507 N515 1.427 . S
C508 H499 0.930 . S
C508 C506 1.378 . S
C508 C509 1.367 . S
C509 C508 1.367 . S
C509 C511 1.433 . S
C510 C506 1.350 . S
C510 C507 1.463 . S
C510 N514 1.427 . S
C511 H501 0.929 . S
C511 C509 1.433 . S
C511 N514 1.384 . S
C512 H503 0.929 . S
C512 C504 1.378 . S
C512 C507 1.350 . S
C513 H500 0.929 . S
C513 C505 1.433 . S
C513 N515 1.384 . S
N514 C510 1.427 . S
N514 C511 1.384 . S
N515 C507 1.427 . S
N515 C513 1.384 . S
H516 C522 0.930 . S
H517 C526 0.930 . S
H518 C531 0.929 . S
H519 C529 0.929 . S
H520 C524 0.929 . S
H521 C530 0.929 . S
C522 H516 0.930 . S
C522 C523 1.367 . S
C522 C530 1.378 . S
C523 C522 1.367 . S
C523 C531 1.433 . S
C524 H520 0.929 . S
C524 C526 1.378 . S
C524 C528 1.350 . S
C525 C528 1.463 . S
C525 C530 1.350 . S
C525 N533 1.427 . S
C526 H517 0.930 . S
C526 C524 1.378 . S
C526 C527 1.367 . S
C527 C526 1.367 . S
C527 C529 1.433 . S
C528 C524 1.350 . S
C528 C525 1.463 . S
C528 N532 1.427 . S
C529 H519 0.929 . S
C529 C527 1.433 . S
C529 N532 1.384 . S
C530 H521 0.929 . S
C530 C522 1.378 . S
C530 C525 1.350 . S
C531 H518 0.929 . S
C531 C523 1.433 . S
C531 N533 1.384 . S
N532 C528 1.427 . S
N532 C529 1.384 . S
N533 C525 1.427 . S
N533 C531 1.384 . S
H534 C540 0.930 . S
H535 C544 0.930 . S
H536 C549 0.929 . S
H537 C547 0.929 . S
H538 C542 0.929 . S
H539 C548 0.929 . S
C540 H534 0.930 . S
C540 C541 1.367 . S
C540 C548 1.378 . S
C541 C540 1.367 . S
C541 C549 1.433 . S
C542 H538 0.929 . S
C542 C544 1.378 . S
C542 C546 1.350 . S
C543 C546 1.463 . S
C543 C548 1.350 . S
C543 N551 1.427 . S
C544 H535 0.930 . S
C544 C542 1.378 . S
C544 C545 1.367 . S
C545 C544 1.367 . S
C545 C547 1.433 . S
C546 C542 1.350 . S
C546 C543 1.463 . S
C546 N550 1.427 . S
C547 H537 0.929 . S
C547 C545 1.433 . S
C547 N550 1.384 . S
C548 H539 0.929 . S
C548 C540 1.378 . S
C548 C543 1.350 . S
C549 H536 0.929 . S
C549 C541 1.433 . S
C549 N551 1.384 . S
N550 C546 1.427 . S
N550 C547 1.384 . S
N551 C543 1.427 . S
N551 C549 1.384 . S
H552 C558 0.930 . S
H553 C562 0.930 . S
H554 C567 0.929 . S
H555 C565 0.929 . S
H556 C560 0.929 . S
H557 C566 0.929 . S
C558 H552 0.930 . S
C558 C559 1.367 . S
C558 C566 1.378 . S
C559 C558 1.367 . S
C559 C567 1.433 . S
C560 H556 0.929 . S
C560 C562 1.378 . S
C560 C564 1.350 . S
C561 C564 1.463 . S
C561 C566 1.350 . S
C561 N569 1.427 . S
C562 H553 0.930 . S
C562 C560 1.378 . S
C562 C563 1.367 . S
C563 C562 1.367 . S
C563 C565 1.433 . S
C564 C560 1.350 . S
C564 C561 1.463 . S
C564 N568 1.427 . S
C565 H555 0.929 . S
C565 C563 1.433 . S
C565 N568 1.384 . S
C566 H557 0.929 . S
C566 C558 1.378 . S
C566 C561 1.350 . S
C567 H554 0.929 . S
C567 C559 1.433 . S
C567 N569 1.384 . S
N568 C564 1.427 . S
N568 C565 1.384 . S
N569 C561 1.427 . S
N569 C567 1.384 . S
H570 C576 0.930 . S
H571 C580 0.930 . S
H572 C585 0.929 . S
H573 C583 0.929 . S
H574 C578 0.929 . S
H575 C584 0.929 . S
C576 H570 0.930 . S
C576 C577 1.367 . S
C576 C584 1.378 . S
C577 C576 1.367 . S
C577 C585 1.433 . S
C578 H574 0.929 . S
C578 C580 1.378 . S
C578 C582 1.350 . S
C579 C582 1.463 . S
C579 C584 1.350 . S
C579 N587 1.427 . S
C580 H571 0.930 . S
C580 C578 1.378 . S
C580 C581 1.367 . S
C581 C580 1.367 . S
C581 C583 1.433 . S
C582 C578 1.350 . S
C582 C579 1.463 . S
C582 N586 1.427 . S
C583 H573 0.929 . S
C583 C581 1.433 . S
C583 N586 1.384 . S
C584 H575 0.929 . S
C584 C576 1.378 . S
C584 C579 1.350 . S
C585 H572 0.929 . S
C585 C577 1.433 . S
C585 N587 1.384 . S
N586 C582 1.427 . S
N586 C583 1.384 . S
N587 C579 1.427 . S
N587 C585 1.384 . S
H588 C594 0.930 . S
H589 C598 0.930 . S
H590 C603 0.929 . S
H591 C601 0.929 . S
H592 C596 0.929 . S
H593 C602 0.929 . S
C594 H588 0.930 . S
C594 C595 1.367 . S
C594 C602 1.378 . S
C595 C594 1.367 . S
C595 C603 1.433 . S
C596 H592 0.929 . S
C596 C598 1.378 . S
C596 C600 1.350 . S
C597 C600 1.463 . S
C597 C602 1.350 . S
C597 N605 1.427 . S
C598 H589 0.930 . S
C598 C596 1.378 . S
C598 C599 1.367 . S
C599 C598 1.367 . S
C599 C601 1.433 . S
C600 C596 1.350 . S
C600 C597 1.463 . S
C600 N604 1.427 . S
C601 H591 0.929 . S
C601 C599 1.433 . S
C601 N604 1.384 . S
C602 H593 0.929 . S
C602 C594 1.378 . S
C602 C597 1.350 . S
C603 H590 0.929 . S
C603 C595 1.433 . S
C603 N605 1.384 . S
N604 C600 1.427 . S
N604 C601 1.384 . S
N605 C597 1.427 . S
N605 C603 1.384 . S
H606 C612 0.930 . S
H607 C616 0.930 . S
H608 C621 0.929 . S
H609 C619 0.929 . S
H610 C614 0.929 . S
H611 C620 0.929 . S
C612 H606 0.930 . S
C612 C613 1.367 . S
C612 C620 1.378 . S
C613 C612 1.367 . S
C613 C621 1.433 . S
C614 H610 0.929 . S
C614 C616 1.378 . S
C614 C618 1.350 . S
C615 C618 1.463 . S
C615 C620 1.350 . S
C615 N623 1.427 . S
C616 H607 0.930 . S
C616 C614 1.378 . S
C616 C617 1.367 . S
C617 C616 1.367 . S
C617 C619 1.433 . S
C618 C614 1.350 . S
C618 C615 1.463 . S
C618 N622 1.427 . S
C619 H609 0.929 . S
C619 C617 1.433 . S
C619 N622 1.384 . S
C620 H611 0.929 . S
C620 C612 1.378 . S
C620 C615 1.350 . S
C621 H608 0.929 . S
C621 C613 1.433 . S
C621 N623 1.384 . S
N622 C618 1.427 . S
N622 C619 1.384 . S
N623 C615 1.427 . S
N623 C621 1.384 . S
H624 C630 0.930 . S
H625 C634 0.930 . S
H626 C639 0.929 . S
H627 C637 0.929 . S
H628 C632 0.929 . S
H629 C638 0.929 . S
C630 H624 0.930 . S
C630 C631 1.367 . S
C630 C638 1.378 . S
C631 C630 1.367 . S
C631 C639 1.433 . S
C632 H628 0.929 . S
C632 C634 1.378 . S
C632 C636 1.350 . S
C633 C636 1.463 . S
C633 C638 1.350 . S
C633 N641 1.427 . S
C634 H625 0.930 . S
C634 C632 1.378 . S
C634 C635 1.367 . S
C635 C634 1.367 . S
C635 C637 1.433 . S
C636 C632 1.350 . S
C636 C633 1.463 . S
C636 N640 1.427 . S
C637 H627 0.929 . S
C637 C635 1.433 . S
C637 N640 1.384 . S
C638 H629 0.929 . S
C638 C630 1.378 . S
C638 C633 1.350 . S
C639 H626 0.929 . S
C639 C631 1.433 . S
C639 N641 1.384 . S
N640 C636 1.427 . S
N640 C637 1.384 . S
N641 C633 1.427 . S
N641 C639 1.384 . S
H642 C648 0.930 . S
H643 C652 0.930 . S
H644 C657 0.929 . S
H645 C655 0.929 . S
H646 C650 0.929 . S
H647 C656 0.929 . S
C648 H642 0.930 . S
C648 C649 1.367 . S
C648 C656 1.378 . S
C649 C648 1.367 . S
C649 C657 1.433 . S
C650 H646 0.929 . S
C650 C652 1.378 . S
C650 C654 1.350 . S
C651 C654 1.463 . S
C651 C656 1.350 . S
C651 N659 1.427 . S
C652 H643 0.930 . S
C652 C650 1.378 . S
C652 C653 1.367 . S
C653 C652 1.367 . S
C653 C655 1.433 . S
C654 C650 1.350 . S
C654 C651 1.463 . S
C654 N658 1.427 . S
C655 H645 0.929 . S
C655 C653 1.433 . S
C655 N658 1.384 . S
C656 H647 0.929 . S
C656 C648 1.378 . S
C656 C651 1.350 . S
C657 H644 0.929 . S
C657 C649 1.433 . S
C657 N659 1.384 . S
N658 C654 1.427 . S
N658 C655 1.384 . S
N659 C651 1.427 . S
N659 C657 1.384 . S
H660 C666 0.930 . S
H661 C670 0.930 . S
H662 C675 0.929 . S
H663 C673 0.929 . S
H664 C668 0.929 . S
H665 C674 0.929 . S
C666 H660 0.930 . S
C666 C667 1.367 . S
C666 C674 1.378 . S
C667 C666 1.367 . S
C667 C675 1.433 . S
C668 H664 0.929 . S
C668 C670 1.378 . S
C668 C672 1.350 . S
C669 C672 1.463 . S
C669 C674 1.350 . S
C669 N677 1.427 . S
C670 H661 0.930 . S
C670 C668 1.378 . S
C670 C671 1.367 . S
C671 C670 1.367 . S
C671 C673 1.433 . S
C672 C668 1.350 . S
C672 C669 1.463 . S
C672 N676 1.427 . S
C673 H663 0.929 . S
C673 C671 1.433 . S
C673 N676 1.384 . S
C674 H665 0.929 . S
C674 C666 1.378 . S
C674 C669 1.350 . S
C675 H662 0.929 . S
C675 C667 1.433 . S
C675 N677 1.384 . S
N676 C672 1.427 . S
N676 C673 1.384 . S
N677 C669 1.427 . S
N677 C675 1.384 . S
H678 C684 0.930 . S
H679 C688 0.930 . S
H680 C693 0.929 . S
H681 C691 0.929 . S
H682 C686 0.929 . S
H683 C692 0.929 . S
C684 H678 0.930 . S
C684 C685 1.367 . S
C684 C692 1.378 . S
C685 C684 1.367 . S
C685 C693 1.433 . S
C686 H682 0.929 . S
C686 C688 1.378 . S
C686 C690 1.350 . S
C687 C690 1.463 . S
C687 C692 1.350 . S
C687 N695 1.427 . S
C688 H679 0.930 . S
C688 C686 1.378 . S
C688 C689 1.367 . S
C689 C688 1.367 . S
C689 C691 1.433 . S
C690 C686 1.350 . S
C690 C687 1.463 . S
C690 N694 1.427 . S
C691 H681 0.929 . S
C691 C689 1.433 . S
C691 N694 1.384 . S
C692 H683 0.929 . S
C692 C684 1.378 . S
C692 C687 1.350 . S
C693 H680 0.929 . S
C693 C685 1.433 . S
C693 N695 1.384 . S
N694 C690 1.427 . S
N694 C691 1.384 . S
N695 C687 1.427 . S
N695 C693 1.384 . S
H696 C702 0.930 . S
H697 C706 0.930 . S
H698 C711 0.929 . S
H699 C709 0.929 . S
H700 C704 0.929 . S
H701 C710 0.929 . S
C702 H696 0.930 . S
C702 C703 1.367 . S
C702 C710 1.378 . S
C703 C702 1.367 . S
C703 C711 1.433 . S
C704 H700 0.929 . S
C704 C706 1.378 . S
C704 C708 1.350 . S
C705 C708 1.463 . S
C705 C710 1.350 . S
C705 N713 1.427 . S
C706 H697 0.930 . S
C706 C704 1.378 . S
C706 C707 1.367 . S
C707 C706 1.367 . S
C707 C709 1.433 . S
C708 C704 1.350 . S
C708 C705 1.463 . S
C708 N712 1.427 . S
C709 H699 0.929 . S
C709 C707 1.433 . S
C709 N712 1.384 . S
C710 H701 0.929 . S
C710 C702 1.378 . S
C710 C705 1.350 . S
C711 H698 0.929 . S
C711 C703 1.433 . S
C711 N713 1.384 . S
N712 C708 1.427 . S
N712 C709 1.384 . S
N713 C705 1.427 . S
N713 C711 1.384 . S
H714 C720 0.930 . S
H715 C724 0.930 . S
H716 C729 0.929 . S
H717 C727 0.929 . S
H718 C722 0.929 . S
H719 C728 0.929 . S
C720 H714 0.930 . S
C720 C721 1.367 . S
C720 C728 1.378 . S
C721 C720 1.367 . S
C721 C729 1.433 . S
C722 H718 0.929 . S
C722 C724 1.378 . S
C722 C726 1.350 . S
C723 C726 1.463 . S
C723 C728 1.350 . S
C723 N731 1.427 . S
C724 H715 0.930 . S
C724 C722 1.378 . S
C724 C725 1.367 . S
C725 C724 1.367 . S
C725 C727 1.433 . S
C726 C722 1.350 . S
C726 C723 1.463 . S
C726 N730 1.427 . S
C727 H717 0.929 . S
C727 C725 1.433 . S
C727 N730 1.384 . S
C728 H719 0.929 . S
C728 C720 1.378 . S
C728 C723 1.350 . S
C729 H716 0.929 . S
C729 C721 1.433 . S
C729 N731 1.384 . S
N730 C726 1.427 . S
N730 C727 1.384 . S
N731 C723 1.427 . S
N731 C729 1.384 . S
H732 C738 0.930 . S
H733 C742 0.930 . S
H734 C747 0.929 . S
H735 C745 0.929 . S
H736 C740 0.929 . S
H737 C746 0.929 . S
C738 H732 0.930 . S
C738 C739 1.367 . S
C738 C746 1.378 1_556 S
C739 C738 1.367 . S
C739 C747 1.433 . S
C740 H736 0.929 . S
C740 C742 1.378 1_556 S
C740 C744 1.350 1_556 S
C741 C744 1.463 1_566 S
C741 C746 1.350 1_556 S
C741 N749 1.427 . S
C742 H733 0.930 . S
C742 C740 1.378 1_554 S
C742 C743 1.367 . S
C743 C742 1.367 . S
C743 C745 1.433 . S
C744 C740 1.350 1_554 S
C744 C741 1.463 1_544 S
C744 N748 1.427 . S
C745 H735 0.929 . S
C745 C743 1.433 . S
C745 N748 1.384 . S
C746 H737 0.929 . S
C746 C738 1.378 1_554 S
C746 C741 1.350 1_554 S
C747 H734 0.929 . S
C747 C739 1.433 . S
C747 N749 1.384 . S
N748 C744 1.427 . S
N748 C745 1.384 . S
N749 C741 1.427 . S
N749 C747 1.384 . S
H750 C756 0.930 . S
H751 C760 0.930 . S
H752 C765 0.929 . S
H753 C763 0.929 . S
H754 C758 0.929 . S
H755 C764 0.929 . S
C756 H750 0.930 . S
C756 C757 1.367 . S
C756 C764 1.378 . S
C757 C756 1.367 . S
C757 C765 1.433 . S
C758 H754 0.929 . S
C758 C760 1.378 . S
C758 C762 1.350 . S
C759 C762 1.463 . S
C759 C764 1.350 . S
C759 N767 1.427 . S
C760 H751 0.930 . S
C760 C758 1.378 . S
C760 C761 1.367 . S
C761 C760 1.367 . S
C761 C763 1.433 . S
C762 C758 1.350 . S
C762 C759 1.463 . S
C762 N766 1.427 . S
C763 H753 0.929 . S
C763 C761 1.433 . S
C763 N766 1.384 . S
C764 H755 0.929 . S
C764 C756 1.378 . S
C764 C759 1.350 . S
C765 H752 0.929 . S
C765 C757 1.433 . S
C765 N767 1.384 . S
N766 C762 1.427 . S
N766 C763 1.384 . S
N767 C759 1.427 . S
N767 C765 1.384 . S
H768 C774 0.930 . S
H769 C778 0.930 . S
H770 C783 0.929 . S
H771 C781 0.929 . S
H772 C776 0.936 . S
H773 C782 0.936 . S
C774 H768 0.930 . S
C774 C775 1.367 . S
C774 C782 1.378 . S
C775 C774 1.367 . S
C775 C783 1.433 . S
C776 H772 0.936 . S
C776 C778 1.378 . S
C776 C780 1.350 . S
C777 C780 1.463 1_654 S
C777 C782 1.350 . S
C777 N785 1.427 . S
C778 H769 0.930 . S
C778 C776 1.378 . S
C778 C779 1.367 . S
C779 C778 1.367 . S
C779 C781 1.433 . S
C780 C776 1.350 . S
C780 C777 1.463 1_456 S
C780 N784 1.427 . S
C781 H771 0.929 . S
C781 C779 1.433 . S
C781 N784 1.384 . S
C782 H773 0.936 . S
C782 C774 1.378 . S
C782 C777 1.350 . S
C783 H770 0.929 . S
C783 C775 1.433 . S
C783 N785 1.384 . S
N784 C780 1.427 . S
N784 C781 1.384 . S
N785 C777 1.427 . S
N785 C783 1.384 . S
H786 C792 0.930 . S
H787 C796 0.930 . S
H788 C801 0.929 . S
H789 C799 0.929 . S
H790 C794 0.929 1_565 S
H791 C800 0.929 1_545 S
C792 H786 0.930 . S
C792 C793 1.367 . S
C792 C800 1.378 . S
C793 C792 1.367 . S
C793 C801 1.433 . S
C794 H790 0.929 1_545 S
C794 C796 1.378 . S
C794 C798 1.350 . S
C795 C798 1.463 1_565 S
C795 C800 1.350 . S
C795 N803 1.427 . S
C796 H787 0.930 . S
C796 C794 1.378 . S
C796 C797 1.367 . S
C797 C796 1.367 . S
C797 C799 1.433 . S
C798 C794 1.350 . S
C798 C795 1.463 1_545 S
C798 N802 1.427 . S
C799 H789 0.929 . S
C799 C797 1.433 . S
C799 N802 1.384 . S
C800 H791 0.929 1_565 S
C800 C792 1.378 . S
C800 C795 1.350 . S
C801 H788 0.929 . S
C801 C793 1.433 . S
C801 N803 1.384 . S
N802 C798 1.427 . S
N802 C799 1.384 . S
N803 C795 1.427 . S
N803 C801 1.384 . S
H804 C810 0.930 . S
H805 C814 0.930 . S
H806 C819 0.929 . S
H807 C817 0.929 . S
H808 C812 0.929 . S
H809 C818 0.929 . S
C810 H804 0.930 . S
C810 C811 1.367 . S
C810 C818 1.378 1_554 S
C811 C810 1.367 . S
C811 C819 1.433 . S
C812 H808 0.929 . S
C812 C814 1.378 1_554 S
C812 C816 1.350 1_554 S
C813 C816 1.463 1_554 S
C813 C818 1.350 1_554 S
C813 N821 1.427 . S
C814 H805 0.930 . S
C814 C812 1.378 1_556 S
C814 C815 1.367 . S
C815 C814 1.367 . S
C815 C817 1.433 . S
C816 C812 1.350 1_556 S
C816 C813 1.463 1_556 S
C816 N820 1.427 . S
C817 H807 0.929 . S
C817 C815 1.433 . S
C817 N820 1.384 . S
C818 H809 0.929 . S
C818 C810 1.378 1_556 S
C818 C813 1.350 1_556 S
C819 H806 0.929 . S
C819 C811 1.433 . S
C819 N821 1.384 . S
N820 C816 1.427 . S
N820 C817 1.384 . S
N821 C813 1.427 . S
N821 C819 1.384 . S
H822 C828 0.930 . S
H823 C832 0.930 . S
H824 C837 0.929 . S
H825 C835 0.929 . S
H826 C830 0.929 1_655 S
H827 C836 0.929 1_455 S
C828 H822 0.930 . S
C828 C829 1.367 . S
C828 C836 1.378 . S
C829 C828 1.367 . S
C829 C837 1.433 . S
C830 H826 0.929 1_455 S
C830 C832 1.378 . S
C830 C834 1.350 . S
C831 C834 1.463 1_655 S
C831 C836 1.350 . S
C831 N839 1.427 . S
C832 H823 0.930 . S
C832 C830 1.378 . S
C832 C833 1.367 . S
C833 C832 1.367 . S
C833 C835 1.433 . S
C834 C830 1.350 . S
C834 C831 1.463 1_455 S
C834 N838 1.427 . S
C835 H825 0.929 . S
C835 C833 1.433 . S
C835 N838 1.384 . S
C836 H827 0.929 1_655 S
C836 C828 1.378 . S
C836 C831 1.350 . S
C837 H824 0.929 . S
C837 C829 1.433 . S
C837 N839 1.384 . S
N838 C834 1.427 . S
N838 C835 1.384 . S
N839 C831 1.427 . S
N839 C837 1.384 . S
H840 C846 0.930 . S
H841 C850 0.930 . S
H842 C855 0.929 . S
H843 C853 0.929 . S
H844 C848 0.929 . S
H845 C854 0.929 . S
C846 H840 0.930 . S
C846 C847 1.367 . S
C846 C854 1.378 . S
C847 C846 1.367 . S
C847 C855 1.433 . S
C848 H844 0.929 . S
C848 C850 1.378 . S
C848 C852 1.350 . S
C849 C852 1.463 1_544 S
C849 C854 1.350 . S
C849 N857 1.427 . S
C850 H841 0.930 . S
C850 C848 1.378 . S
C850 C851 1.367 . S
C851 C850 1.367 . S
C851 C853 1.433 . S
C852 C848 1.350 . S
C852 C849 1.463 1_566 S
C852 N856 1.427 . S
C853 H843 0.929 . S
C853 C851 1.433 . S
C853 N856 1.384 . S
C854 H845 0.929 . S
C854 C846 1.378 . S
C854 C849 1.350 . S
C855 H842 0.929 . S
C855 C847 1.433 . S
C855 N857 1.384 . S
N856 C852 1.427 . S
N856 C853 1.384 . S
N857 C849 1.427 . S
N857 C855 1.384 . S
H858 C864 0.930 . S
H859 C868 0.930 . S
H860 C873 0.929 . S
H861 C871 0.929 . S
H862 C866 0.929 . S
H863 C872 0.929 . S
C864 H858 0.930 . S
C864 C865 1.367 . S
C864 C872 1.378 . S
C865 C864 1.367 . S
C865 C873 1.433 . S
C866 H862 0.929 . S
C866 C868 1.378 . S
C866 C870 1.350 . S
C867 C870 1.463 . S
C867 C872 1.350 . S
C867 N875 1.427 . S
C868 H859 0.930 . S
C868 C866 1.378 . S
C868 C869 1.367 . S
C869 C868 1.367 . S
C869 C871 1.433 . S
C870 C866 1.350 . S
C870 C867 1.463 . S
C870 N874 1.427 . S
C871 H861 0.929 . S
C871 C869 1.433 . S
C871 N874 1.384 . S
C872 H863 0.929 . S
C872 C864 1.378 . S
C872 C867 1.350 . S
C873 H860 0.929 . S
C873 C865 1.433 . S
C873 N875 1.384 . S
N874 C870 1.427 . S
N874 C871 1.384 . S
N875 C867 1.427 . S
N875 C873 1.384 . S
H876 C882 0.930 . S
H877 C886 0.930 . S
H878 C891 0.929 . S
H879 C889 0.929 . S
H880 C884 0.929 . S
H881 C890 0.929 . S
C882 H876 0.930 . S
C882 C883 1.367 . S
C882 C890 1.378 . S
C883 C882 1.367 . S
C883 C891 1.433 . S
C884 H880 0.929 . S
C884 C886 1.378 . S
C884 C888 1.350 . S
C885 C888 1.463 1_654 S
C885 C890 1.350 . S
C885 N893 1.427 . S
C886 H877 0.930 . S
C886 C884 1.378 . S
C886 C887 1.367 . S
C887 C886 1.367 . S
C887 C889 1.433 . S
C888 C884 1.350 . S
C888 C885 1.463 1_456 S
C888 N892 1.427 . S
C889 H879 0.929 . S
C889 C887 1.433 . S
C889 N892 1.384 . S
C890 H881 0.929 . S
C890 C882 1.378 . S
C890 C885 1.350 . S
C891 H878 0.929 . S
C891 C883 1.433 . S
C891 N893 1.384 . S
N892 C888 1.427 . S
N892 C889 1.384 . S
N893 C885 1.427 . S
N893 C891 1.384 . S
H894 C900 0.930 . S
H895 C904 0.930 . S
H896 C909 0.929 . S
H897 C907 0.929 . S
H898 C902 0.929 . S
H899 C908 0.929 . S
C900 H894 0.930 . S
C900 C901 1.367 . S
C900 C908 1.378 . S
C901 C900 1.367 . S
C901 C909 1.433 . S
C902 H898 0.929 . S
C902 C904 1.378 . S
C902 C906 1.350 . S
C903 C906 1.463 1_565 S
C903 C908 1.350 . S
C903 N911 1.427 . S
C904 H895 0.930 . S
C904 C902 1.378 . S
C904 C905 1.367 . S
C905 C904 1.367 . S
C905 C907 1.433 . S
C906 C902 1.350 . S
C906 C903 1.463 1_545 S
C906 N910 1.427 . S
C907 H897 0.929 . S
C907 C905 1.433 . S
C907 N910 1.384 . S
C908 H899 0.929 . S
C908 C900 1.378 . S
C908 C903 1.350 . S
C909 H896 0.929 . S
C909 C901 1.433 . S
C909 N911 1.384 . S
N910 C906 1.427 . S
N910 C907 1.384 . S
N911 C903 1.427 . S
N911 C909 1.384 . S
H912 C918 0.946 . S
H913 C922 0.946 . S
H914 C927 0.929 . S
H915 C925 0.929 . S
H916 C920 0.929 . S
H917 C926 0.929 . S
C918 H912 0.946 . S
C918 C919 1.367 . S
C918 C926 1.378 1_556 S
C919 C918 1.367 . S
C919 C927 1.433 . S
C920 H916 0.929 . S
C920 C922 1.378 1_556 S
C920 C924 1.350 1_556 S
C921 C924 1.463 1_556 S
C921 C926 1.350 1_556 S
C921 N929 1.427 . S
C922 H913 0.946 . S
C922 C920 1.378 1_554 S
C922 C923 1.367 . S
C923 C922 1.367 . S
C923 C925 1.433 . S
C924 C920 1.350 1_554 S
C924 C921 1.463 1_554 S
C924 N928 1.427 . S
C925 H915 0.929 . S
C925 C923 1.433 . S
C925 N928 1.384 . S
C926 H917 0.929 . S
C926 C918 1.378 1_554 S
C926 C921 1.350 1_554 S
C927 H914 0.929 . S
C927 C919 1.433 . S
C927 N929 1.384 . S
N928 C924 1.427 . S
N928 C925 1.384 . S
N929 C921 1.427 . S
N929 C927 1.384 . S
H930 C936 0.930 . S
H931 C940 0.930 . S
H932 C945 0.929 . S
H933 C943 0.929 . S
H934 C938 0.921 1_455 S
H935 C944 0.921 1_655 S
C936 H930 0.930 . S
C936 C937 1.367 . S
C936 C944 1.378 . S
C937 C936 1.367 . S
C937 C945 1.433 . S
C938 H934 0.921 1_655 S
C938 C940 1.378 . S
C938 C942 1.350 . S
C939 C942 1.463 1_455 S
C939 C944 1.350 . S
C939 N947 1.427 . S
C940 H931 0.930 . S
C940 C938 1.378 . S
C940 C941 1.367 . S
C941 C940 1.367 . S
C941 C943 1.433 . S
C942 C938 1.350 . S
C942 C939 1.463 1_655 S
C942 N946 1.427 . S
C943 H933 0.929 . S
C943 C941 1.433 . S
C943 N946 1.384 . S
C944 H935 0.921 1_455 S
C944 C936 1.378 . S
C944 C939 1.350 . S
C945 H932 0.929 . S
C945 C937 1.433 . S
C945 N947 1.384 . S
N946 C942 1.427 . S
N946 C943 1.384 . S
N947 C939 1.427 . S
N947 C945 1.384 . S
C415 C73 1.527 . S
C419 C2 1.615 . S
C433 C36 1.613 . S
C437 C107 1.509 . S
C451 C70 1.613 . S
C455 C141 1.511 . S
C469 C104 1.614 . S
C473 C175 1.509 . S
C487 C138 1.614 . S
C491 C5 1.526 . S
C505 C39 1.515 . S
C509 C172 1.617 . S
C523 C206 1.615 . S
C527 C345 1.510 . S
C541 C240 1.615 . S
C545 C379 1.527 . S
C559 C209 1.518 . S
C563 C274 1.617 . S
C577 C243 1.515 . S
C581 C308 1.612 . S
C595 C277 1.511 . S
C599 C342 1.616 . S
C613 C311 1.513 . S
C617 C376 1.613 . S
C631 C305 1.255 . S
C635 C33 1.252 . S
C649 C67 1.252 . S
C653 C339 1.248 . S
C667 C373 1.255 . S
C671 C101 1.254 . S
C685 C407 1.247 . S
C689 C135 1.251 . S
C703 C169 1.251 . S
C707 C237 1.255 . S
C721 C271 1.248 . S
C725 C203 1.248 . S
C739 C247 1.524 . S
C743 C9 1.525 . S
C757 C43 1.518 . S
C761 C281 1.521 . S
C775 C77 1.521 . S
C779 C315 1.518 . S
C793 C111 1.518 . S
C797 C349 1.520 . S
C811 C145 1.525 . S
C815 C383 1.523 . S
C829 C213 1.518 . S
C833 C179 1.518 . S
C847 C88 1.859 . S
C851 C394 1.862 . S
C865 C224 1.860 . S
C869 C122 1.861 . S
C883 C156 1.862 . S
C887 C258 1.859 . S
C901 C190 1.862 . S
C905 C292 1.859 . S
C919 C326 1.859 . S
C923 C20 1.860 . S
C937 C54 1.859 . S
C941 C360 1.862 . S
