# Generated by pormake.
# Topology wjv, (5)-cn, num edge types: 1
# Building blocks:
#     Node 0, Type 0, BuildingBlock: XOMCOT_clean_sbu_0, # of connection points: 5
#     Node 1, Type 0, BuildingBlock: XOMCOT_clean_sbu_0, # of connection points: 5
#     Node 2, Type 0, BuildingBlock: XOMCOT_clean_sbu_0, # of connection points: 5
#     Node 3, Type 0, BuildingBlock: XOMCOT_clean_sbu_0, # of connection points: 5
#     Node 4, Type 0, BuildingBlock: XOMCOT_clean_sbu_0, # of connection points: 5
#     Node 5, Type 0, BuildingBlock: XOMCOT_clean_sbu_0, # of connection points: 5
#     Node 6, Type 0, BuildingBlock: XOMCOT_clean_sbu_0, # of connection points: 5
#     Node 7, Type 0, BuildingBlock: XOMCOT_clean_sbu_0, # of connection points: 5
#     Node 8, Type 0, BuildingBlock: XOMCOT_clean_sbu_0, # of connection points: 5
#     Node 9, Type 0, BuildingBlock: XOMCOT_clean_sbu_0, # of connection points: 5
#     Node 10, Type 0, BuildingBlock: XOMCOT_clean_sbu_0, # of connection points: 5
#     Node 11, Type 0, BuildingBlock: XOMCOT_clean_sbu_0, # of connection points: 5
#     Edge 12, Type (0, 0), BuildingBlock: CIFDUS_clean_linker_0, # of connection points: 2
#     Edge 13, Type (0, 0), BuildingBlock: CIFDUS_clean_linker_0, # of connection points: 2
#     Edge 14, Type (0, 0), BuildingBlock: CIFDUS_clean_linker_0, # of connection points: 2
#     Edge 15, Type (0, 0), BuildingBlock: CIFDUS_clean_linker_0, # of connection points: 2
#     Edge 16, Type (0, 0), BuildingBlock: CIFDUS_clean_linker_0, # of connection points: 2
#     Edge 17, Type (0, 0), BuildingBlock: CIFDUS_clean_linker_0, # of connection points: 2
#     Edge 18, Type (0, 0), BuildingBlock: CIFDUS_clean_linker_0, # of connection points: 2
#     Edge 19, Type (0, 0), BuildingBlock: CIFDUS_clean_linker_0, # of connection points: 2
#     Edge 20, Type (0, 0), BuildingBlock: CIFDUS_clean_linker_0, # of connection points: 2
#     Edge 21, Type (0, 0), BuildingBlock: CIFDUS_clean_linker_0, # of connection points: 2
#     Edge 22, Type (0, 0), BuildingBlock: CIFDUS_clean_linker_0, # of connection points: 2
#     Edge 23, Type (0, 0), BuildingBlock: CIFDUS_clean_linker_0, # of connection points: 2
#     Edge 24, Type (0, 0), BuildingBlock: CIFDUS_clean_linker_0, # of connection points: 2
#     Edge 25, Type (0, 0), BuildingBlock: CIFDUS_clean_linker_0, # of connection points: 2
#     Edge 26, Type (0, 0), BuildingBlock: CIFDUS_clean_linker_0, # of connection points: 2
#     Edge 27, Type (0, 0), BuildingBlock: CIFDUS_clean_linker_0, # of connection points: 2
#     Edge 28, Type (0, 0), BuildingBlock: CIFDUS_clean_linker_0, # of connection points: 2
#     Edge 29, Type (0, 0), BuildingBlock: CIFDUS_clean_linker_0, # of connection points: 2
#     Edge 30, Type (0, 0), BuildingBlock: CIFDUS_clean_linker_0, # of connection points: 2
#     Edge 31, Type (0, 0), BuildingBlock: CIFDUS_clean_linker_0, # of connection points: 2
#     Edge 32, Type (0, 0), BuildingBlock: CIFDUS_clean_linker_0, # of connection points: 2
#     Edge 33, Type (0, 0), BuildingBlock: CIFDUS_clean_linker_0, # of connection points: 2
#     Edge 34, Type (0, 0), BuildingBlock: CIFDUS_clean_linker_0, # of connection points: 2
#     Edge 35, Type (0, 0), BuildingBlock: CIFDUS_clean_linker_0, # of connection points: 2
#     Edge 36, Type (0, 0), BuildingBlock: CIFDUS_clean_linker_0, # of connection points: 2
#     Edge 37, Type (0, 0), BuildingBlock: CIFDUS_clean_linker_0, # of connection points: 2
#     Edge 38, Type (0, 0), BuildingBlock: CIFDUS_clean_linker_0, # of connection points: 2
#     Edge 39, Type (0, 0), BuildingBlock: CIFDUS_clean_linker_0, # of connection points: 2
#     Edge 40, Type (0, 0), BuildingBlock: CIFDUS_clean_linker_0, # of connection points: 2
#     Edge 41, Type (0, 0), BuildingBlock: CIFDUS_clean_linker_0, # of connection points: 2
# Relax obj value: 0.153
# Max RMSD: 0.186
# Mean RMSD: 0.186
data_MOF--net-wjv--node1-XOMCOT_clean_sbu_0--edge1-CIFDUS_clean_linker_0
_symmetry_space_group_name_H-M    P1
_symmetry_Int_Tables_number       1
_symmetry_cell_setting            triclinic
loop_
_symmetry_equiv_pos_as_xyz
'x, y, z'
_cell_length_a     33.159432
_cell_length_b     33.133214
_cell_length_c     45.637623
_cell_angle_alpha  89.928221
_cell_angle_beta   90.086884
_cell_angle_gamma 119.82223
loop_
_atom_site_label
_atom_site_type_symbol
_atom_site_fract_x
_atom_site_fract_y
_atom_site_fract_z
_atom_type_partial_charge
Co0 Co 0.19446 0.29129 0.18862 0.0
C1 C 0.17752 0.29997 0.12546 0.0
C2 C 0.18418 0.23977 0.13381 0.0
C3 C 0.17595 0.24111 0.10442 0.0
N4 N 0.18574 0.27697 0.14703 0.0
N5 N 0.17157 0.27875 0.09928 0.0
H6 H 0.17509 0.33101 0.12883 0.0
H7 H 0.18771 0.21269 0.14466 0.0
C8 C 0.25118 0.24467 0.20351 0.0
O9 O 0.28585 0.28284 0.21446 0.0
N10 N 0.2015 0.30361 0.23083 0.0
C11 C 0.2004 0.33809 0.24593 0.0
C12 C 0.20598 0.33279 0.2754 0.0
C13 C 0.20445 0.27628 0.25175 0.0
N14 N 0.209 0.29397 0.27899 0.0
C15 C 0.27472 0.38344 0.19295 0.0
C16 C 0.33446 0.36267 0.16291 0.0
C17 C 0.35304 0.40397 0.17908 0.0
C18 C 0.32233 0.41536 0.19296 0.0
C19 C 0.28665 0.33163 0.16372 0.0
N20 N 0.25803 0.34049 0.18078 0.0
H21 H 0.25167 0.39292 0.20346 0.0
H22 H 0.27343 0.29873 0.15258 0.0
H23 H 0.19518 0.36506 0.23647 0.0
H24 H 0.20142 0.24293 0.24745 0.0
O25 O 0.16124 0.32564 0.18452 0.0
O26 O 0.12941 0.25031 0.19484 0.0
O27 O 0.21464 0.24367 0.19364 0.0
C28 C 0.12394 0.2859 0.18981 0.0
H29 H 0.17122 0.21518 0.08828 0.0
H30 H 0.20816 0.35611 0.29267 0.0
H31 H 0.35684 0.35288 0.15138 0.0
H32 H 0.33513 0.44807 0.20446 0.0
Co33 Co 0.92786 0.21095 0.50986 0.0
C34 C 0.89239 0.18652 0.4492 0.0
C35 C 0.96517 0.20856 0.45158 0.0
C36 C 0.95097 0.19795 0.42289 0.0
N37 N 0.92856 0.20197 0.46798 0.0
N38 N 0.9053 0.18399 0.42155 0.0
H39 H 0.85734 0.17699 0.4556 0.0
H40 H -0.00027 0.21974 0.45982 0.0
C41 C 0.02369 0.29264 0.52018 0.0
O42 O 0.00726 0.31279 0.53741 0.0
N43 N 0.92679 0.21774 0.55239 0.0
C44 C 0.88873 0.2049 0.56908 0.0
C45 C 0.90093 0.20935 0.59813 0.0
C46 C 0.96107 0.22685 0.57194 0.0
N47 N 0.94658 0.22325 0.60006 0.0
C48 C 0.89036 0.2737 0.51857 0.0
C49 C 0.95694 0.34282 0.48358 0.0
C50 C 0.93266 0.35473 0.50359 0.0
C51 C 0.89687 0.31883 0.51992 0.0
C52 C 0.9495 0.29761 0.48312 0.0
N53 N 0.91974 0.26479 0.50252 0.0
H54 H 0.86314 0.2469 0.53144 0.0
H55 H 0.97179 0.29078 0.4693 0.0
H56 H 0.85366 0.19086 0.56097 0.0
H57 H 0.99535 0.23375 0.56577 0.0
O58 O 0.86385 0.15891 0.51126 0.0
O59 O 0.92787 0.15415 0.51621 0.0
O60 O -0.00283 0.25274 0.50897 0.0
C61 C 0.88284 0.13297 0.51553 0.0
H62 H 0.97205 0.19867 0.40458 0.0
H63 H 0.87747 0.2022 0.61633 0.0
H64 H 0.98456 0.36893 0.47019 0.0
H65 H 0.87553 0.32595 0.5346 0.0
Co66 Co 0.72236 0.92599 0.84867 0.0
C67 C 0.71154 0.89859 0.78636 0.0
C68 C 0.7744 0.96341 0.79357 0.0
C69 C 0.77209 0.95185 0.76439 0.0
N70 N 0.73608 0.93033 0.80718 0.0
N71 N 0.73269 0.9111 0.76005 0.0
H72 H 0.67965 0.86636 0.79052 0.0
H73 H 0.80301 0.99278 0.80428 0.0
C74 C 0.75114 0.02629 0.86111 0.0
O75 O 0.71314 0.01472 0.87613 0.0
N76 N 0.70994 0.92044 0.89085 0.0
C77 C 0.68037 0.8807 0.90489 0.0
C78 C 0.68396 0.88835 0.93453 0.0
C79 C 0.73298 0.95123 0.91269 0.0
N80 N 0.7171 0.93273 0.93961 0.0
C81 C 0.62556 0.90537 0.85445 0.0
C82 C 0.63623 0.97428 0.81566 0.0
C83 C 0.59624 0.95264 0.83282 0.0
C84 C 0.59031 0.91689 0.85188 0.0
C85 C 0.67095 0.9628 0.81953 0.0
N86 N 0.66665 0.93031 0.8398 0.0
H87 H 0.61988 0.87739 0.86883 0.0
H88 H 0.70286 0.98285 0.80751 0.0
H89 H 0.65797 0.84768 0.89444 0.0
H90 H 0.76208 0.98572 0.90917 0.0
O91 O 0.69948 0.8591 0.8461 0.0
O92 O 0.77215 0.91374 0.85538 0.0
O93 O 0.75984 0.99553 0.85104 0.0
C94 C 0.74274 0.87023 0.85048 0.0
H95 H 0.79857 0.97039 0.748 0.0
H96 H 0.66348 0.86285 0.95101 0.0
H97 H 0.642 0.00207 0.80069 0.0
H98 H 0.55915 0.89869 0.86504 0.0
Co99 Co 0.77557 0.70307 0.17829 0.0
C100 C 0.77969 0.6814 0.11521 0.0
C101 C 0.76472 0.73675 0.12048 0.0
C102 C 0.76757 0.73011 0.09108 0.0
N103 N 0.77008 0.70479 0.1358 0.0
N104 N 0.77691 0.69532 0.08786 0.0
H105 H 0.79147 0.65697 0.11996 0.0
H106 H 0.76273 0.76565 0.12972 0.0
C107 C 0.70208 0.73134 0.17157 0.0
O108 O 0.67641 0.69476 0.15517 0.0
N109 N 0.78239 0.703 0.22037 0.0
C110 C 0.78507 0.67029 0.23638 0.0
C111 C 0.78221 0.67893 0.2656 0.0
C112 C 0.77861 0.73141 0.23993 0.0
N113 N 0.77773 0.71719 0.26785 0.0
C114 C 0.71004 0.60641 0.16371 0.0
C115 C 0.64043 0.60109 0.19956 0.0
C116 C 0.62933 0.56526 0.17931 0.0
C117 C 0.66545 0.56728 0.16212 0.0
C118 C 0.68521 0.63908 0.20052 0.0
N119 N 0.71842 0.64317 0.18117 0.0
H120 H 0.73727 0.60739 0.15044 0.0
H121 H 0.69207 0.667 0.21548 0.0
H122 H 0.78629 0.64073 0.22737 0.0
H123 H 0.77474 0.76081 0.23376 0.0
O124 O 0.8226 0.68426 0.17381 0.0
O125 O 0.83585 0.75683 0.17536 0.0
O126 O 0.74001 0.73729 0.18286 0.0
C127 C 0.85236 0.72882 0.1726 0.0
H128 H 0.76699 0.75182 0.07351 0.0
H129 H 0.78062 0.65691 0.28361 0.0
H130 H 0.61425 0.60158 0.21344 0.0
H131 H 0.65916 0.53947 0.1471 0.0
Co132 Co 0.07343 0.78453 0.52139 0.0
C133 C 0.09283 0.78949 0.45666 0.0
C134 C 0.0268 0.78329 0.46617 0.0
C135 C 0.03243 0.78559 0.43635 0.0
N136 N 0.06347 0.78321 0.47909 0.0
N137 N 0.07382 0.78934 0.43044 0.0
H138 H 0.12801 0.79616 0.45928 0.0
H139 H -0.00142 0.78392 0.47754 0.0
C140 C 0.97163 0.71537 0.51579 0.0
O141 O 0.98119 0.69318 0.49555 0.0
N142 N 0.08291 0.78765 0.56336 0.0
C143 C 0.11705 0.78538 0.57794 0.0
C144 C 0.10679 0.7809 0.60747 0.0
C145 C 0.0529 0.78537 0.5841 0.0
N146 N 0.06614 0.78039 0.61127 0.0
C147 C 0.09559 0.71393 0.50121 0.0
C148 C 0.03067 0.64489 0.53705 0.0
C149 C 0.05032 0.63206 0.51428 0.0
C150 C 0.08501 0.66771 0.49714 0.0
C151 C 0.04248 0.6912 0.54041 0.0
N152 N 0.07153 0.72452 0.52105 0.0
H153 H 0.12225 0.7407 0.48796 0.0
H154 H 0.02485 0.69939 0.55724 0.0
H155 H 0.14582 0.78419 0.56767 0.0
H156 H 0.02104 0.78543 0.57923 0.0
O157 O 0.13964 0.82835 0.51598 0.0
O158 O 0.0843 0.84686 0.52158 0.0
O159 O 0.00417 0.75187 0.52793 0.0
C160 C 0.128 0.86061 0.51751 0.0
H161 H 0.00917 0.78708 0.42026 0.0
H162 H 0.12625 0.77536 0.62452 0.0
H163 H 0.00398 0.61922 0.55113 0.0
H164 H 0.10307 0.65995 0.48027 0.0
Co165 Co 0.29686 0.07349 0.85592 0.0
C166 C 0.31335 0.10461 0.79348 0.0
C167 C 0.26383 0.03215 0.79729 0.0
C168 C 0.26622 0.04461 0.76843 0.0
N169 N 0.29476 0.06921 0.81313 0.0
N170 N 0.29712 0.0902 0.76606 0.0
H171 H 0.33597 0.14069 0.79929 0.0
H172 H 0.2376 -0.00072 0.80613 0.0
C173 C 0.2757 0.97528 0.84685 0.0
O174 O 0.31208 0.99073 0.82956 0.0
N175 N 0.2964 0.07778 0.89823 0.0
C176 C 0.32823 0.1125 0.91493 0.0
C177 C 0.31871 0.09968 0.94393 0.0
C178 C 0.26744 0.04478 0.91718 0.0
N179 N 0.28066 0.05687 0.94536 0.0
C180 C 0.39195 0.09988 0.83803 0.0
C181 C 0.40161 0.04475 0.8799 0.0
C182 C 0.4355 0.06511 0.85819 0.0
C183 C 0.43099 0.09377 0.83729 0.0
C184 C 0.36304 0.05067 0.87939 0.0
N185 N 0.35739 0.07659 0.85809 0.0
H186 H 0.38911 0.12207 0.82192 0.0
H187 H 0.33601 0.03119 0.89513 0.0
H188 H 0.35771 0.14382 0.90655 0.0
H189 H 0.23834 0.01194 0.91034 0.0
O190 O 0.31459 0.13912 0.85349 0.0
O191 O 0.2425 0.07966 0.85434 0.0
O192 O 0.26508 0.00362 0.85891 0.0
C193 C 0.27001 0.12441 0.85314 0.0
H194 H 0.24353 0.02299 0.75103 0.0
H195 H 0.33992 0.11938 0.96234 0.0
H196 H 0.40333 0.02188 0.89623 0.0
H197 H 0.45696 0.11067 0.82037 0.0
Co198 Co 0.70731 0.78017 0.51499 0.0
C199 C 0.69846 0.80265 0.57691 0.0
C200 C 0.75406 0.78785 0.57119 0.0
C201 C 0.75327 0.79914 0.60003 0.0
N202 N 0.71922 0.78919 0.55676 0.0
N203 N 0.71853 0.8086 0.60352 0.0
H204 H 0.67033 0.80933 0.57211 0.0
H205 H 0.77973 0.78122 0.5613 0.0
C206 C 0.73263 0.70652 0.50172 0.0
O207 O 0.69441 0.68303 0.48626 0.0
N208 N 0.69798 0.77353 0.47263 0.0
C209 C 0.66803 0.78029 0.45613 0.0
C210 C 0.67608 0.77628 0.42696 0.0
C211 C 0.72589 0.76892 0.45296 0.0
N212 N 0.71238 0.76876 0.425 0.0
C213 C 0.60884 0.70944 0.50916 0.0
C214 C 0.61645 0.64539 0.5442 0.0
C215 C 0.57613 0.63035 0.52742 0.0
C216 C 0.57174 0.66355 0.51063 0.0
C217 C 0.65243 0.69117 0.542 0.0
N218 N 0.6499 0.72181 0.52299 0.0
H219 H 0.60458 0.73435 0.49645 0.0
H220 H 0.68396 0.70075 0.55403 0.0
H221 H 0.64317 0.7895 0.46438 0.0
H222 H 0.75677 0.76764 0.45885 0.0
O223 O 0.68595 0.82549 0.51544 0.0
O224 O 0.75863 0.8412 0.50871 0.0
O225 O 0.74265 0.74536 0.51357 0.0
C226 C 0.72962 0.85654 0.51149 0.0
H227 H 0.77808 0.80296 0.6168 0.0
H228 H 0.65665 0.77889 0.4087 0.0
H229 H 0.62168 0.6214 0.55763 0.0
H230 H 0.54033 0.65398 0.49828 0.0
Co231 Co 0.93174 0.71117 0.85858 0.0
C232 C 0.90477 0.69678 0.92131 0.0
C233 C 0.96259 0.76495 0.91276 0.0
C234 C 0.95375 0.76098 0.94231 0.0
N235 N 0.93249 0.72451 0.89973 0.0
N236 N 0.91756 0.71824 0.94756 0.0
H237 H 0.87613 0.66185 0.91793 0.0
H238 H 0.98871 0.79551 0.90149 0.0
C239 C 0.03443 0.74669 0.84962 0.0
O240 O 0.02651 0.70957 0.83469 0.0
N241 N 0.93144 0.70001 0.81655 0.0
C242 C 0.89572 0.66858 0.80009 0.0
C243 C 0.90846 0.67543 0.77101 0.0
C244 C 0.96429 0.72717 0.79684 0.0
N245 N 0.95178 0.71221 0.76902 0.0
C246 C 0.91026 0.6149 0.85589 0.0
C247 C 0.98265 0.62694 0.89184 0.0
C248 C 0.95776 0.585 0.87651 0.0
C249 C 0.91992 0.57859 0.85921 0.0
C250 C 0.97192 0.66229 0.88778 0.0
N251 N 0.93818 0.65722 0.8684 0.0
H252 H 0.88083 0.60902 0.84286 0.0
H253 H 0.99242 0.69473 0.8993 0.0
H254 H 0.86183 0.64339 0.80827 0.0
H255 H 0.99589 0.75871 0.80241 0.0
O256 O 0.86437 0.68369 0.85858 0.0
O257 O 0.91552 0.75793 0.84993 0.0
O258 O 0.0011 0.75232 0.85854 0.0
C259 C 0.87233 0.72559 0.85272 0.0
H260 H 0.97136 0.78793 0.95859 0.0
H261 H 0.88724 0.65498 0.75279 0.0
H262 H 0.01088 0.63287 0.90642 0.0
H263 H 0.8989 0.54645 0.8474 0.0
Co264 Co 0.19964 0.91195 0.19033 0.0
C265 C 0.18615 0.88534 0.2536 0.0
C266 C 0.17537 0.94282 0.24395 0.0
C267 C 0.17065 0.93498 0.2736 0.0
N268 N 0.18586 0.91235 0.23146 0.0
N269 N 0.17751 0.89908 0.27957 0.0
H270 H 0.19331 0.85705 0.25088 0.0
H271 H 0.17135 0.96899 0.23231 0.0
C272 C 0.26747 0.0155 0.1827 0.0
O273 O 0.2993 0.00835 0.17057 0.0
N274 N 0.21154 0.91218 0.14837 0.0
C275 C 0.20596 0.87617 0.13162 0.0
C276 C 0.21335 0.8898 0.10269 0.0
C277 C 0.21949 0.9462 0.12893 0.0
N278 N 0.22207 0.93406 0.10103 0.0
C279 C 0.27565 0.89196 0.18646 0.0
C280 C 0.33307 0.96086 0.22527 0.0
C281 C 0.35167 0.93904 0.20823 0.0
C282 C 0.3221 0.90314 0.18931 0.0
C283 C 0.28687 0.94946 0.22117 0.0
N284 N 0.25948 0.91736 0.20062 0.0
H285 H 0.25333 0.86373 0.1723 0.0
H286 H 0.27414 0.96885 0.23325 0.0
H287 H 0.19573 0.84165 0.13957 0.0
H288 H 0.22079 0.97838 0.1347 0.0
O289 O 0.15866 0.84453 0.1897 0.0
O290 O 0.13766 0.89741 0.18094 0.0
O291 O 0.22816 0.98141 0.19028 0.0
C292 C 0.12573 0.85382 0.18318 0.0
H293 H 0.16202 0.95361 0.28958 0.0
H294 H 0.21212 0.86853 0.08437 0.0
H295 H 0.35475 0.98842 0.24038 0.0
H296 H 0.33501 0.88445 0.17651 0.0
Co297 Co 0.27307 0.21188 0.52505 0.0
C298 C 0.28532 0.1847 0.58472 0.0
C299 C 0.2265 0.19529 0.58231 0.0
C300 C 0.23094 0.1841 0.61074 0.0
N301 N 0.26095 0.19623 0.56615 0.0
N302 N 0.26781 0.17742 0.61213 0.0
H303 H 0.3154 0.18211 0.57838 0.0
H304 H 0.19997 0.20226 0.57408 0.0
C305 C 0.25486 0.29192 0.52036 0.0
O306 O 0.29273 0.31599 0.50476 0.0
N307 N 0.28325 0.22537 0.48311 0.0
C308 C 0.31007 0.2158 0.46547 0.0
C309 C 0.30331 0.22382 0.43686 0.0
C310 C 0.25835 0.23637 0.46443 0.0
N311 N 0.27072 0.23679 0.43612 0.0
C312 C 0.37234 0.28091 0.5195 0.0
C313 C 0.37003 0.33839 0.56255 0.0
C314 C 0.40837 0.35584 0.54386 0.0
C315 C 0.41018 0.32607 0.52276 0.0
C316 C 0.33273 0.29383 0.55804 0.0
N317 N 0.33271 0.26651 0.53553 0.0
H318 H 0.37479 0.25859 0.50348 0.0
H319 H 0.30218 0.28308 0.57133 0.0
H320 H 0.33175 0.2018 0.47257 0.0
H321 H 0.22999 0.2415 0.47113 0.0
O322 O 0.28924 0.16279 0.5207 0.0
O323 O 0.219 0.15434 0.51533 0.0
O324 O 0.24205 0.25049 0.52868 0.0
C325 C 0.24516 0.13547 0.51493 0.0
H326 H 0.20815 0.17997 0.62886 0.0
H327 H 0.32076 0.21969 0.41806 0.0
H328 H 0.36735 0.36016 0.57924 0.0
H329 H 0.44007 0.33795 0.50851 0.0
Co330 Co 0.07019 0.28197 0.84945 0.0
C331 C 0.09997 0.29266 0.91213 0.0
C332 C 0.02756 0.24376 0.90712 0.0
C333 C 0.03879 0.2455 0.93623 0.0
N334 N 0.06532 0.27508 0.89201 0.0
N335 N 0.08428 0.27625 0.93929 0.0
H336 H 0.1363 0.31518 0.90697 0.0
H337 H 0.99461 0.21887 0.89761 0.0
C338 C 0.97529 0.26835 0.86138 0.0
O339 O 0.99382 0.30235 0.88059 0.0
N340 N 0.07518 0.28665 0.80721 0.0
C341 C 0.11136 0.31912 0.79179 0.0
C342 C 0.1003 0.31224 0.76246 0.0
C343 C 0.04289 0.26004 0.78719 0.0
N344 N 0.05713 0.27511 0.75948 0.0
C345 C 0.10807 0.37772 0.87136 0.0
C346 C 0.05 0.39483 0.83638 0.0
C347 C 0.0729 0.42483 0.85971 0.0
C348 C 0.10434 0.4176 0.87639 0.0
C349 C 0.0546 0.35583 0.83221 0.0
N350 N 0.08053 0.34557 0.85095 0.0
H351 H 0.1317 0.37223 0.88461 0.0
H352 H 0.03352 0.33157 0.8154 0.0
H353 H 0.14293 0.34676 0.80132 0.0
H354 H 0.00951 0.23075 0.79296 0.0
O355 O 0.13336 0.29126 0.8512 0.0
O356 O 0.06823 0.22359 0.84735 0.0
O357 O 0.00107 0.25711 0.84665 0.0
C358 C 0.11323 0.24596 0.84901 0.0
H359 H 0.01612 0.22355 0.95351 0.0
H360 H 0.12193 0.3342 0.74487 0.0
H361 H 0.02656 0.40005 0.82238 0.0
H362 H 0.12386 0.44105 0.89407 0.0
Co363 Co 0.78333 0.08679 0.17531 0.0
C364 C 0.79548 0.11015 0.23884 0.0
C365 C 0.78665 0.04241 0.23107 0.0
C366 C 0.79442 0.05199 0.26048 0.0
N367 N 0.7871 0.07878 0.21738 0.0
N368 N 0.80039 0.0947 0.26529 0.0
H369 H 0.79994 0.14438 0.23512 0.0
H370 H 0.7826 0.0115 0.22055 0.0
C371 C 0.72934 0.98335 0.15872 0.0
O372 O 0.69554 0.98557 0.14512 0.0
N373 N 0.78107 0.09544 0.13301 0.0
C374 C 0.78665 0.13417 0.11954 0.0
C375 C 0.78553 0.12818 0.08972 0.0
C376 C 0.77884 0.06726 0.11079 0.0
N377 N 0.78054 0.08599 0.08406 0.0
C378 C 0.7037 0.10078 0.16874 0.0
C379 C 0.64234 0.02114 0.19886 0.0
C380 C 0.62513 0.04713 0.18496 0.0
C381 C 0.65661 0.08801 0.17023 0.0
C382 C 0.68933 0.03477 0.19649 0.0
N383 N 0.71913 0.07293 0.1804 0.0
H384 H 0.72743 0.13297 0.15817 0.0
H385 H 0.70125 0.01333 0.20686 0.0
H386 H 0.7921 0.1654 0.13047 0.0
H387 H 0.77791 0.03456 0.11396 0.0
O388 O 0.81802 0.15413 0.18108 0.0
O389 O 0.84856 0.10904 0.17235 0.0
O390 O 0.7635 0.01957 0.16976 0.0
C391 C 0.85507 0.15014 0.17815 0.0
H392 H 0.79847 0.03049 0.27679 0.0
H393 H 0.78803 0.15323 0.07357 0.0
H394 H 0.61939 0.98947 0.21061 0.0
H395 H 0.64496 0.10992 0.15998 0.0
H396 H 0.27088 0.20883 0.38058 0.0
H397 H 0.23019 0.29067 0.4332 0.0
H398 H 0.20477 0.31384 0.38915 0.0
H399 H 0.19763 0.31372 0.33525 0.0
H400 H 0.24354 0.23511 0.28333 0.0
H401 H 0.26326 0.20808 0.32748 0.0
C402 C 0.25683 0.23203 0.38255 0.0
C403 C 0.25296 0.24823 0.41033 0.0
C404 C 0.24312 0.24589 0.35711 0.0
C405 C 0.23337 0.27732 0.41225 0.0
C406 C 0.2191 0.29087 0.38698 0.0
C407 C 0.21204 0.2908 0.3335 0.0
C408 C 0.2187 0.27654 0.30566 0.0
C409 C 0.22438 0.27585 0.35921 0.0
C410 C 0.237 0.24626 0.30417 0.0
C411 C 0.24879 0.23094 0.32953 0.0
H412 H 0.91458 0.19562 0.65541 0.0
H413 H 0.04079 0.27266 0.6053 0.0
H414 H 0.0864 0.29274 0.65019 0.0
H415 H 0.09035 0.29173 0.70382 0.0
H416 H 0.96333 0.21955 0.75389 0.0
H417 H 0.91849 0.19434 0.70882 0.0
C418 C 0.95198 0.2171 0.65409 0.0
C419 C 0.97384 0.23277 0.62663 0.0
C420 C 0.97807 0.22952 0.68014 0.0
C421 C 0.02268 0.25965 0.62581 0.0
C422 C 0.04891 0.27149 0.65161 0.0
C423 C 0.05288 0.27079 0.70506 0.0
C424 C 0.03064 0.25803 0.7326 0.0
C425 C 0.02693 0.25717 0.67894 0.0
C426 C 0.9819 0.22982 0.73333 0.0
C427 C 0.95599 0.21554 0.70743 0.0
H428 H 0.7598 0.02517 0.95165 0.0
H429 H 0.70678 0.89046 0.99234 0.0
H430 H 0.72255 0.92608 0.04055 0.0
H431 H 0.74726 0.99469 0.07151 0.0
H432 H 0.80477 0.1302 0.03115 0.0
H433 H 0.79151 0.09496 0.98288 0.0
C434 C 0.75233 0.0036 0.97098 0.0
C435 C 0.73124 0.95492 0.96804 0.0
C436 C 0.76196 0.02441 0.99896 0.0
C437 C 0.7218 0.92779 0.99362 0.0
C438 C 0.7311 0.94819 0.02138 0.0
C439 C 0.75767 0.01683 0.05231 0.0
C440 C 0.77642 0.06523 0.05542 0.0
C441 C 0.75048 0.99639 0.02436 0.0
C442 C 0.78925 0.09283 0.02985 0.0
C443 C 0.78195 0.07269 1.00202 0.0
H444 H 0.79649 0.70511 0.32383 0.0
H445 H 0.73435 0.76849 0.27144 0.0
H446 H 0.71141 0.79277 0.31563 0.0
H447 H 0.70498 0.79245 0.36918 0.0
H448 H 0.7628 0.72474 0.42144 0.0
H449 H 0.79128 0.70598 0.37739 0.0
C450 C 0.77779 0.72407 0.32198 0.0
C451 C 0.76715 0.73459 0.2941 0.0
C452 C 0.7637 0.73717 0.34758 0.0
C453 C 0.74367 0.76014 0.29238 0.0
C454 C 0.73009 0.7738 0.31775 0.0
C455 C 0.72362 0.77345 0.37103 0.0
C456 C 0.73146 0.76007 0.39882 0.0
C457 C 0.73929 0.76191 0.34546 0.0
C458 C 0.75657 0.73614 0.40056 0.0
C459 C 0.77266 0.72501 0.37527 0.0
H460 H 0.09813 0.7948 0.66701 0.0
H461 H 0.97224 0.73941 0.61574 0.0
H462 H 0.92587 0.71566 0.66024 0.0
H463 H 0.92045 0.70716 0.71369 0.0
H464 H 0.04581 0.75962 0.76516 0.0
H465 H 0.09272 0.78793 0.72079 0.0
C466 C 0.06058 0.77749 0.66555 0.0
C467 C 0.03898 0.76908 0.63788 0.0
C468 C 0.03384 0.76319 0.69136 0.0
C469 C 0.99014 0.74715 0.63656 0.0
C470 C 0.96341 0.73309 0.66208 0.0
C471 C 0.95799 0.7246 0.71524 0.0
C472 C 0.9794 0.73098 0.74283 0.0
C473 C 0.98483 0.74041 0.68957 0.0
C474 C 0.02827 0.75455 0.74434 0.0
C475 C 0.05519 0.77052 0.71891 0.0
H476 H 0.2913 0.08541 1.00178 0.0
H477 H 0.22879 0.96229 0.94758 0.0
H478 H 0.20286 0.91348 0.99111 0.0
H479 H 0.20108 0.90529 0.04465 0.0
H480 H 0.2679 0.02839 0.09868 0.0
H481 H 0.28884 0.07728 0.0552 0.0
C482 C 0.27222 0.04794 0.99937 0.0
C483 C 0.26241 0.02794 0.97119 0.0
C484 C 0.25817 0.01981 0.02458 0.0
C485 C 0.23664 0.9791 0.96877 0.0
C486 C 0.22203 0.95095 0.99376 0.0
C487 C 0.22042 0.94275 0.047 0.0
C488 C 0.23279 0.96283 0.07512 0.0
C489 C 0.23316 0.97089 0.02178 0.0
C490 C 0.25721 0.01167 0.07752 0.0
C491 C 0.26957 0.03981 0.05258 0.0
H492 H 0.06299 0.29472 0.99212 0.0
H493 H 0.16445 0.27495 0.94537 0.0
H494 H 0.20362 0.2776 0.99158 0.0
H495 H 0.20399 0.27809 0.04573 0.0
H496 H 0.1043 0.30094 0.09228 0.0
H497 H 0.06951 0.30531 0.04582 0.0
C498 C 0.09407 0.29169 0.99221 0.0
C499 C 0.1108 0.28429 0.96568 0.0
C500 C 0.11642 0.29368 0.01876 0.0
C501 C 0.15129 0.28085 0.96566 0.0
C502 C 0.1734 0.28208 0.99203 0.0
C503 C 0.17514 0.28477 0.0455 0.0
C504 C 0.15641 0.28893 0.07218 0.0
C505 C 0.15561 0.28741 0.01875 0.0
C506 C 0.11933 0.29799 0.07191 0.0
C507 C 0.09928 0.30009 0.04541 0.0
H508 H 0.77358 0.06387 0.32009 0.0
H509 H 0.86795 0.18453 0.27004 0.0
H510 H 0.90819 0.22463 0.31493 0.0
H511 H 0.92114 0.22203 0.36809 0.0
H512 H 0.82435 0.10338 0.41857 0.0
H513 H 0.77995 0.06567 0.37408 0.0
C514 C 0.8025 0.09921 0.31921 0.0
C515 C 0.81825 0.12102 0.29187 0.0
C516 C 0.8251 0.12213 0.34515 0.0
C517 C 0.8553 0.16704 0.29083 0.0
C518 C 0.87847 0.18985 0.31648 0.0
C519 C 0.88992 0.18822 0.36921 0.0
C520 C 0.87602 0.16512 0.39627 0.0
C521 C 0.86443 0.16724 0.34366 0.0
C522 C 0.83535 0.12162 0.39785 0.0
C523 C 0.81024 0.10007 0.37245 0.0
H524 H 0.72689 0.9378 0.70556 0.0
H525 H 0.713 0.82231 0.75663 0.0
H526 H 0.70321 0.77761 0.71181 0.0
H527 H 0.70636 0.77488 0.65786 0.0
H528 H 0.71629 0.88851 0.60661 0.0
H529 H 0.71914 0.93059 0.65152 0.0
C530 C 0.72098 0.90257 0.70666 0.0
C531 C 0.72086 0.88319 0.73406 0.0
C532 C 0.71477 0.87705 0.68084 0.0
C533 C 0.71289 0.83751 0.73563 0.0
C534 C 0.70758 0.81219 0.71007 0.0
C535 C 0.70812 0.80842 0.65674 0.0
C536 C 0.7112 0.82885 0.62927 0.0
C537 C 0.70948 0.83201 0.68256 0.0
C538 C 0.71344 0.8722 0.62768 0.0
C539 C 0.7155 0.89631 0.65329 0.0
H540 H 0.82707 0.6833 0.95821 0.0
H541 H 0.95807 0.7201 0.99876 0.0
H542 H 0.92277 0.70766 0.04747 0.0
H543 H 0.85752 0.6979 0.07815 0.0
H544 H 0.72935 0.67055 0.03741 0.0
H545 H 0.75971 0.66684 0.98912 0.0
C546 C 0.84724 0.68715 0.9778 0.0
C547 C 0.89479 0.70231 0.97525 0.0
C548 C 0.82716 0.68208 1.00559 0.0
C549 C 0.9213 0.70836 1.00055 0.0
C550 C 0.9012 0.70145 0.02826 0.0
C551 C 0.836 0.68971 0.0587 0.0
C552 C 0.79135 0.68411 0.061 0.0
C553 C 0.85458 0.68994 0.03106 0.0
C554 C 0.7638 0.6747 0.03582 0.0
C555 C 0.78123 0.67285 1.00834 0.0
H556 H 0.15621 0.86013 0.41357 0.0
H557 H 0.03538 0.73606 0.38319 0.0
H558 H 0.06204 0.75533 0.33239 0.0
H559 H 0.1139 0.81361 0.29637 0.0
H560 H 0.22973 0.9418 0.32655 0.0
H561 H 0.21202 0.91521 0.37753 0.0
C562 C 0.13667 0.83689 0.39578 0.0
C563 C 0.09416 0.79674 0.40181 0.0
C564 C 0.15129 0.84935 0.36661 0.0
C565 C 0.06827 0.7671 0.37876 0.0
C566 C 0.08341 0.77822 0.34981 0.0
C567 C 0.13592 0.83475 0.31419 0.0
C568 C 0.17326 0.87915 0.30806 0.0
C569 C 0.12404 0.82005 0.34339 0.0
C570 C 0.20111 0.90726 0.33108 0.0
C571 C 0.19075 0.89219 0.36012 0.0
H572 H 0.30907 0.07184 0.71081 0.0
H573 H 0.29368 0.16983 0.76472 0.0
H574 H 0.28599 0.20831 0.72087 0.0
H575 H 0.27534 0.20838 0.66724 0.0
H576 H 0.293 0.11174 0.61334 0.0
H577 H 0.3085 0.07837 0.65695 0.0
C578 C 0.30498 0.10222 0.71276 0.0
C579 C 0.3018 0.11803 0.74075 0.0
C580 C 0.30049 0.12391 0.68751 0.0
C581 C 0.29668 0.15747 0.74332 0.0
C582 C 0.29181 0.1791 0.71829 0.0
C583 C 0.28311 0.18036 0.66518 0.0
C584 C 0.28256 0.16204 0.63732 0.0
C585 C 0.29235 0.16176 0.69031 0.0
C586 C 0.29336 0.12629 0.63463 0.0
C587 C 0.30197 0.10714 0.65954 0.0
H588 H 0.56096 0.5248 0.22055 0.0
H589 H 0.58571 0.52349 0.12776 0.0
H590 H 0.50274 0.47194 0.11953 0.0
H591 H 0.42213 0.43222 0.13818 0.0
H592 H 0.39807 0.4394 0.23043 0.0
H593 H 0.48156 0.48533 0.23909 0.0
C594 C 0.54839 0.51362 0.19844 0.0
C595 C 0.57986 0.52861 0.17484 0.0
C596 C 0.50047 0.48577 0.19364 0.0
C597 C 0.56266 0.51227 0.1465 0.0
C598 C 0.51501 0.48322 0.14167 0.0
C599 C 0.43528 0.4438 0.16015 0.0
C600 C 0.40395 0.43293 0.18356 0.0
C601 C 0.48348 0.47058 0.16499 0.0
C602 C 0.42142 0.44816 0.21194 0.0
C603 C 0.46917 0.47404 0.21697 0.0
H604 H 0.9633 0.42708 0.46463 0.0
H605 H 0.94051 0.395 0.55693 0.0
H606 H 0.97694 0.47759 0.56841 0.0
H607 H 0.01858 0.55884 0.55265 0.0
H608 H 0.03952 0.59147 0.4603 0.0
H609 H 0.00309 0.50887 0.44871 0.0
C610 C 0.96617 0.43812 0.48726 0.0
C611 C 0.94893 0.40463 0.50983 0.0
C612 C 0.98803 0.48586 0.49382 0.0
C613 C 0.95254 0.41973 0.53901 0.0
C614 C 0.97403 0.46708 0.54567 0.0
C615 C 0.01483 0.54812 0.52992 0.0
C616 C 0.03198 0.58181 0.50745 0.0
C617 C 0.99238 0.50044 0.52328 0.0
C618 C 0.02763 0.56674 0.47819 0.0
C619 C 0.00612 0.51933 0.47146 0.0
H620 H 0.46155 0.03336 0.81102 0.0
H621 H 0.49101 0.06685 0.90265 0.0
H622 H 0.54143 0.03263 0.9032 0.0
H623 H 0.57445 0.99 0.87822 0.0
H624 H 0.54754 0.95838 0.78635 0.0
H625 H 0.49837 0.99442 0.78524 0.0
C626 C 0.4799 0.03408 0.83089 0.0
C627 C 0.47265 0.05262 0.85675 0.0
C628 C 0.50838 0.0137 0.83114 0.0
C629 C 0.49604 0.05268 0.88249 0.0
C630 C 0.5246 0.03287 0.88287 0.0
C631 C 0.55727 0.99058 0.8581 0.0
C632 C 0.56356 0.97081 0.83257 0.0
C633 C 0.53024 0.01241 0.8575 0.0
C634 C 0.54242 0.97284 0.80635 0.0
C635 C 0.51466 0.9937 0.80568 0.0
H636 H 0.43836 0.41794 0.49919 0.0
H637 H 0.45562 0.40597 0.59185 0.0
H638 H 0.50699 0.49022 0.59528 0.0
H639 H 0.54541 0.56722 0.57218 0.0
H640 H 0.52864 0.57952 0.47936 0.0
H641 H 0.47743 0.49543 0.47594 0.0
C642 C 0.45409 0.43382 0.51999 0.0
C643 C 0.4438 0.40588 0.54517 0.0
C644 C 0.48276 0.48236 0.5219 0.0
C645 C 0.46337 0.42686 0.57217 0.0
C646 C 0.49248 0.47497 0.57415 0.0
C647 C 0.53075 0.55156 0.55114 0.0
C648 C 0.54102 0.57985 0.52607 0.0
C649 C 0.50207 0.5031 0.54921 0.0
C650 C 0.52086 0.55885 0.49913 0.0
C651 C 0.492 0.51064 0.49706 0.0
H652 H 0.04619 0.5989 0.87695 0.0
H653 H 0.90221 0.49024 0.87815 0.0
H654 H 0.92584 0.43148 0.87473 0.0
H655 H 0.98683 0.41106 0.86853 0.0
H656 H 0.13082 0.51853 0.86801 0.0
H657 H 0.10782 0.57784 0.875 0.0
C658 C 0.01993 0.56236 0.87707 0.0
C659 C 0.97236 0.54914 0.87749 0.0
C660 C 0.03378 0.52863 0.87523 0.0
C661 C 0.93896 0.50155 0.87723 0.0
C662 C 0.95244 0.46787 0.87545 0.0
C663 C 0.01317 0.44752 0.8701 0.0
C664 C 0.06039 0.46067 0.86737 0.0
C665 C -0.00036 0.48107 0.87389 0.0
C666 C 0.09429 0.50775 0.87001 0.0
C667 C 0.08109 0.54155 0.87384 0.0
H668 H 0.56531 0.01415 0.23119 0.0
H669 H 0.57105 0.04177 0.13845 0.0
H670 H 0.48672 0.00884 0.13725 0.0
H671 H 0.41103 0.97116 0.16247 0.0
H672 H 0.40543 0.94672 0.2555 0.0
H673 H 0.48988 0.97873 0.25672 0.0
C674 C 0.54804 0.01293 0.21074 0.0
C675 C 0.57439 0.03033 0.18493 0.0
C676 C 0.49955 0.99408 0.21024 0.0
C677 C 0.55163 0.02908 0.15866 0.0
C678 C 0.50338 0.00991 0.15792 0.0
C679 C 0.42841 0.97247 0.18291 0.0
C680 C 0.40226 0.95607 0.20879 0.0
C681 C 0.47696 0.99202 0.18352 0.0
C682 C 0.42502 0.95888 0.23531 0.0
C683 C 0.47321 0.97727 0.23599 0.0
H684 H 0.05472 0.23999 0.22798 0.0
H685 H 0.08751 0.31475 0.14633 0.0
H686 H 0.00442 0.28445 0.13673 0.0
H687 H 0.92212 0.22542 0.14823 0.0
H688 H 0.89221 0.15052 0.22984 0.0
H689 H 0.9739 0.1929 0.24336 0.0
C690 C 0.04359 0.25075 0.20855 0.0
C691 C 0.0767 0.27916 0.18781 0.0
C692 C 0.99609 0.23297 0.20322 0.0
C693 C 0.06233 0.29306 0.16267 0.0
C694 C 0.01485 0.27537 0.15708 0.0
C695 C 0.93355 0.21999 0.1694 0.0
C696 C 0.90127 0.18571 0.18836 0.0
C697 C 0.98127 0.24375 0.17669 0.0
C698 C 0.91633 0.17773 0.21537 0.0
C699 C 0.96319 0.20147 0.22292 0.0
H700 H 0.81354 0.92039 0.53 0.0
H701 H 0.68569 0.90608 0.49629 0.0
H702 H 0.72058 0.99144 0.49586 0.0
H703 H 0.79047 0.07073 0.50262 0.0
H704 H 0.91615 0.08015 0.53749 0.0
H705 H 0.87895 0.99629 0.54006 0.0
C706 C 0.79317 0.93585 0.52251 0.0
C707 C 0.7475 0.90721 0.5127 0.0
C708 C 0.8132 0.98423 0.52256 0.0
C709 C 0.72114 0.92763 0.50379 0.0
C710 C 0.74114 0.97636 0.5035 0.0
C711 C 0.80933 0.05426 0.51107 0.0
C712 C 0.8563 0.08184 0.51946 0.0
C713 C 0.78755 0.00517 0.51249 0.0
C714 C 0.88027 0.05999 0.53045 0.0
C715 C 0.85904 0.01188 0.532 0.0
H716 H 0.72271 0.78649 0.87576 0.0
H717 H 0.80495 0.88573 0.80907 0.0
H718 H 0.84887 0.84578 0.8012 0.0
H719 H 0.87102 0.78964 0.81762 0.0
H720 H 0.79145 0.68974 0.88445 0.0
H721 H 0.73907 0.72216 0.88779 0.0
C722 C 0.74949 0.79841 0.85909 0.0
C723 C 0.76104 0.83911 0.84316 0.0
C724 C 0.77544 0.77552 0.85499 0.0
C725 C 0.79591 0.85464 0.82172 0.0
C726 C 0.8211 0.83192 0.81724 0.0
C727 C 0.84165 0.77441 0.83252 0.0
C728 C 0.8352 0.73778 0.85092 0.0
C729 C 0.8123 0.79343 0.83444 0.0
C730 C 0.79687 0.71794 0.86996 0.0
C731 C 0.7672 0.73673 0.87203 0.0
H732 H 0.91326 0.70261 0.19505 0.0
H733 H 0.90349 0.80013 0.13688 0.0
H734 H 0.98766 0.84408 0.1322 0.0
H735 H 0.06374 0.86071 0.14919 0.0
H736 H 0.07713 0.76695 0.2086 0.0
H737 H 0.99224 0.71528 0.20802 0.0
C738 C 0.92975 0.73285 0.18088 0.0
C739 C 0.90239 0.74847 0.16652 0.0
C740 C 0.97878 0.75892 0.17881 0.0
C741 C 0.92397 0.78784 0.14837 0.0
C742 C 0.97208 0.81304 0.1457 0.0
C743 C 0.04816 0.82859 0.16171 0.0
C744 C 0.07642 0.81785 0.17917 0.0
C745 C -0.0002 0.79985 0.16157 0.0
C746 C 0.05596 0.77587 0.19495 0.0
C747 C 0.00742 0.74656 0.19477 0.0
H748 H 0.11117 0.92325 0.49211 0.0
H749 H 0.21916 0.91046 0.53618 0.0
H750 H 0.26825 0.99582 0.5372 0.0
H751 H 0.27624 0.07451 0.52979 0.0
H752 H 0.16567 0.08328 0.48547 0.0
H753 H 0.12219 -0.00061 0.48007 0.0
C754 C 0.14572 0.93914 0.50165 0.0
C755 C 0.1614 0.91087 0.51435 0.0
C756 C 0.17319 0.98767 0.50225 0.0
C757 C 0.20643 0.9317 0.52623 0.0
C758 C 0.2343 0.98046 0.52697 0.0
C759 C 0.24305 0.05795 0.51852 0.0
C760 C 0.22395 0.08515 0.50844 0.0
C761 C 0.21754 0.00894 0.51567 0.0
C762 C 0.18089 0.06323 0.49386 0.0
C763 C 0.15589 0.01516 0.49071 0.0
H764 H 0.20782 0.27786 0.85457 0.0
H765 H 0.0749 0.15353 0.84143 0.0
H766 H 0.11193 0.10656 0.84078 0.0
H767 H 0.18042 0.09911 0.84485 0.0
H768 H 0.315 0.22035 0.85795 0.0
H769 H 0.27915 0.26996 0.85749 0.0
C770 C 0.18716 0.24055 0.85151 0.0
C771 C 0.1385 0.21947 0.84821 0.0
C772 C 0.20888 0.213 0.85114 0.0
C773 C 0.11228 0.17098 0.84419 0.0
C774 C 0.13341 0.14382 0.84377 0.0
C775 C 0.20217 0.13642 0.8476 0.0
C776 C 0.25027 0.15592 0.85161 0.0
C777 C 0.18145 0.16432 0.84739 0.0
C778 C 0.2778 0.20442 0.85484 0.0
C779 C 0.25726 0.23274 0.85465 0.0
H780 H 0.32146 0.22772 0.18961 0.0
H781 H 0.17972 0.16264 0.22019 0.0
H782 H 0.17356 0.08643 0.2176 0.0
H783 H 0.20567 0.03834 0.20353 0.0
H784 H 0.34609 0.09971 0.17093 0.0
H785 H 0.35553 0.1776 0.17706 0.0
C786 C 0.28967 0.19676 0.19612 0.0
C787 C 0.25106 0.20042 0.20507 0.0
C788 C 0.2859 0.15263 0.19377 0.0
C789 C 0.20972 0.16036 0.21312 0.0
C790 C 0.20614 0.11686 0.21159 0.0
C791 C 0.23867 0.06853 0.19798 0.0
C792 C 0.2751 0.06309 0.18677 0.0
C793 C 0.2436 0.11258 0.20139 0.0
C794 C 0.31738 0.10291 0.17952 0.0
C795 C 0.3228 0.14741 0.18308 0.0
H796 H 0.21386 0.31918 0.48025 0.0
H797 H 0.22349 0.3012 0.57295 0.0
H798 H 0.1565 0.3117 0.58189 0.0
H799 H 0.08704 0.31067 0.56225 0.0
H800 H 0.07038 0.31485 0.46897 0.0
H801 H 0.14837 0.32622 0.461 0.0
C802 C 0.20206 0.31922 0.5024 0.0
C803 C 0.22325 0.30985 0.52597 0.0
C804 C 0.16188 0.32232 0.50709 0.0
C805 C 0.20745 0.30873 0.55461 0.0
C806 C 0.1691 0.31441 0.55967 0.0
C807 C 0.10139 0.31576 0.54035 0.0
C808 C 0.07377 0.31239 0.51622 0.0
C809 C 0.14479 0.31907 0.53595 0.0
C810 C 0.09169 0.31782 0.48777 0.0
C811 C 0.13598 0.3239 0.48324 0.0
H812 H 0.78282 0.10172 0.89712 0.0
H813 H 0.79332 0.05985 0.80937 0.0
H814 H 0.86033 0.13604 0.79968 0.0
H815 H 0.92317 0.20899 0.81883 0.0
H816 H 0.91548 0.25134 0.90697 0.0
H817 H 0.83963 0.18156 0.91359 0.0
C818 C 0.79919 0.10993 0.87571 0.0
C819 C 0.78431 0.07513 0.85423 0.0
C820 C 0.83837 0.1538 0.87043 0.0
C821 C 0.80536 0.08587 0.82649 0.0
C822 C 0.84348 0.12944 0.82088 0.0
C823 C 0.9043 0.20349 0.83921 0.0
C824 C 0.9251 0.23465 0.86251 0.0
C825 C 0.86152 0.16285 0.84312 0.0
C826 C 0.90015 0.22767 0.88869 0.0
C827 C 0.85698 0.18752 0.89261 0.0
H828 H 0.65982 0.89434 0.14515 0.0
H829 H 0.79832 0.97203 0.18167 0.0
H830 H 0.79824 0.90081 0.1925 0.0
H831 H 0.76162 0.81771 0.19051 0.0
H832 H 0.62722 0.7368 0.14969 0.0
H833 H 0.62265 0.80787 0.14225 0.0
C834 C 0.68994 0.89555 0.15536 0.0
C835 C 0.72864 0.93871 0.16293 0.0
C836 C 0.6904 0.85391 0.16105 0.0
C837 C 0.76756 0.93958 0.17601 0.0
C838 C 0.76775 0.89874 0.18225 0.0
C839 C 0.7309 0.81515 0.18024 0.0
C840 C 0.69482 0.77192 0.1707 0.0
C841 C 0.72952 0.85589 0.17487 0.0
C842 C 0.65551 0.76971 0.15733 0.0
C843 C 0.65306 0.81037 0.15287 0.0
H844 H 0.79093 0.71988 0.5462 0.0
H845 H 0.75239 0.65976 0.45997 0.0
H846 H 0.82107 0.65014 0.45856 0.0
H847 H 0.89792 0.67053 0.47894 0.0
H848 H 0.93735 0.73524 0.56411 0.0
H849 H 0.86226 0.73116 0.56903 0.0
C850 C 0.79738 0.70428 0.52723 0.0
C851 C 0.76755 0.69157 0.50297 0.0
C852 C 0.83722 0.70006 0.52636 0.0
C853 C 0.77522 0.67003 0.47884 0.0
C854 C 0.81459 0.66485 0.47797 0.0
C855 C 0.88956 0.68265 0.49885 0.0
C856 C 0.92326 0.70381 0.52096 0.0
C857 C 0.84674 0.68143 0.50116 0.0
C858 C 0.91213 0.71945 0.54664 0.0
C859 C 0.86927 0.71719 0.54945 0.0
H860 H 0.2112 0.92926 0.88827 0.0
H861 H 0.2614 0.91002 0.80531 0.0
H862 H 0.19256 0.83293 0.80037 0.0
H863 H 0.11238 0.77666 0.81625 0.0
H864 H 0.06289 0.79849 0.89876 0.0
H865 H 0.13706 0.86864 0.90735 0.0
C866 C 0.20746 0.90779 0.86938 0.0
C867 C 0.24072 0.92544 0.84699 0.0
C868 C 0.16753 0.86422 0.8664 0.0
C869 C 0.23605 0.89712 0.82284 0.0
C870 C 0.19652 0.85321 0.81988 0.0
C871 C 0.1184 0.79633 0.83634 0.0
C872 C 0.08204 0.78338 0.85648 0.0
C873 C 0.16114 0.8372 0.84098 0.0
C874 C 0.09005 0.80879 0.88254 0.0
C875 C 0.13249 0.84874 0.88756 0.0
loop_
_geom_bond_atom_site_label_1
_geom_bond_atom_site_label_2
_geom_bond_distance
_geom_bond_site_symmetry_2
_ccdc_geom_bond_type
Co0 N4 2.148 . S
Co0 N10 2.128 . S
Co0 N20 2.194 . S
Co0 O25 2.351 . S
Co0 O26 2.155 . S
Co0 O27 2.096 . S
C1 N4 1.301 . S
C1 N5 1.328 . S
C1 H6 0.930 . S
C2 C3 1.333 . S
C2 N4 1.317 . S
C2 H7 0.930 . S
C3 C2 1.333 . S
C3 N5 1.350 . S
C3 H29 0.931 . S
N4 Co0 2.148 . S
N4 C1 1.301 . S
N4 C2 1.317 . S
N5 C1 1.328 . S
N5 C3 1.350 . S
H6 C1 0.930 . S
H7 C2 0.930 . S
C8 O9 1.224 . S
C8 O27 1.247 . S
O9 C8 1.224 . S
N10 Co0 2.128 . S
N10 C11 1.355 . S
N10 C13 1.311 . S
C11 N10 1.355 . S
C11 C12 1.363 . S
C11 H23 0.929 . S
C12 C11 1.363 . S
C12 N14 1.375 . S
C12 H30 0.931 . S
C13 N10 1.311 . S
C13 N14 1.347 . S
C13 H24 0.929 . S
N14 C12 1.375 . S
N14 C13 1.347 . S
C15 C18 1.365 . S
C15 N20 1.328 . S
C15 H21 0.929 . S
C16 C17 1.362 . S
C16 C19 1.378 . S
C16 H31 0.929 . S
C17 C16 1.362 . S
C17 C18 1.366 . S
C18 C15 1.365 . S
C18 C17 1.366 . S
C18 H32 0.930 . S
C19 C16 1.378 . S
C19 N20 1.315 . S
C19 H22 0.930 . S
N20 Co0 2.194 . S
N20 C15 1.328 . S
N20 C19 1.315 . S
H21 C15 0.929 . S
H22 C19 0.930 . S
H23 C11 0.929 . S
H24 C13 0.929 . S
O25 Co0 2.351 . S
O25 C28 1.244 . S
O26 Co0 2.155 . S
O26 C28 1.240 . S
O27 Co0 2.096 . S
O27 C8 1.247 . S
C28 O25 1.244 . S
C28 O26 1.240 . S
H29 C3 0.931 . S
H30 C12 0.931 . S
H31 C16 0.929 . S
H32 C18 0.930 . S
Co33 N37 2.148 . S
Co33 N43 2.128 . S
Co33 N53 2.194 . S
Co33 O58 2.351 . S
Co33 O59 2.155 . S
Co33 O60 2.096 . S
C34 N37 1.301 . S
C34 N38 1.328 . S
C34 H39 0.930 . S
C35 C36 1.333 . S
C35 N37 1.317 . S
C35 H40 0.930 . S
C36 C35 1.333 . S
C36 N38 1.350 . S
C36 H62 0.931 . S
N37 Co33 2.148 . S
N37 C34 1.301 . S
N37 C35 1.317 . S
N38 C34 1.328 . S
N38 C36 1.350 . S
H39 C34 0.930 . S
H40 C35 0.930 . S
C41 O42 1.224 . S
C41 O60 1.247 1_455 S
O42 C41 1.224 . S
N43 Co33 2.128 . S
N43 C44 1.355 . S
N43 C46 1.311 . S
C44 N43 1.355 . S
C44 C45 1.363 . S
C44 H56 0.929 . S
C45 C44 1.363 . S
C45 N47 1.375 . S
C45 H63 0.931 . S
C46 N43 1.311 . S
C46 N47 1.347 . S
C46 H57 0.929 . S
N47 C45 1.375 . S
N47 C46 1.347 . S
C48 C51 1.365 . S
C48 N53 1.328 . S
C48 H54 0.929 . S
C49 C50 1.362 . S
C49 C52 1.378 . S
C49 H64 0.929 . S
C50 C49 1.362 . S
C50 C51 1.366 . S
C51 C48 1.365 . S
C51 C50 1.366 . S
C51 H65 0.930 . S
C52 C49 1.378 . S
C52 N53 1.315 . S
C52 H55 0.930 . S
N53 Co33 2.194 . S
N53 C48 1.328 . S
N53 C52 1.315 . S
H54 C48 0.929 . S
H55 C52 0.930 . S
H56 C44 0.929 . S
H57 C46 0.929 . S
O58 Co33 2.351 . S
O58 C61 1.244 . S
O59 Co33 2.155 . S
O59 C61 1.240 . S
O60 Co33 2.096 . S
O60 C41 1.247 1_655 S
C61 O58 1.244 . S
C61 O59 1.240 . S
H62 C36 0.931 . S
H63 C45 0.931 . S
H64 C49 0.929 . S
H65 C51 0.930 . S
Co66 N70 2.148 . S
Co66 N76 2.128 . S
Co66 N86 2.194 . S
Co66 O91 2.351 . S
Co66 O92 2.155 . S
Co66 O93 2.096 . S
C67 N70 1.301 . S
C67 N71 1.328 . S
C67 H72 0.930 . S
C68 C69 1.333 . S
C68 N70 1.317 . S
C68 H73 0.930 . S
C69 C68 1.333 . S
C69 N71 1.350 . S
C69 H95 0.931 . S
N70 Co66 2.148 . S
N70 C67 1.301 . S
N70 C68 1.317 . S
N71 C67 1.328 . S
N71 C69 1.350 . S
H72 C67 0.930 . S
H73 C68 0.930 . S
C74 O75 1.224 . S
C74 O93 1.247 1_545 S
O75 C74 1.224 . S
N76 Co66 2.128 . S
N76 C77 1.355 . S
N76 C79 1.311 . S
C77 N76 1.355 . S
C77 C78 1.363 . S
C77 H89 0.929 . S
C78 C77 1.363 . S
C78 N80 1.375 . S
C78 H96 0.931 . S
C79 N76 1.311 . S
C79 N80 1.347 . S
C79 H90 0.929 . S
N80 C78 1.375 . S
N80 C79 1.347 . S
C81 C84 1.365 . S
C81 N86 1.328 . S
C81 H87 0.929 . S
C82 C83 1.362 . S
C82 C85 1.378 . S
C82 H97 0.929 . S
C83 C82 1.362 . S
C83 C84 1.366 . S
C84 C81 1.365 . S
C84 C83 1.366 . S
C84 H98 0.930 . S
C85 C82 1.378 . S
C85 N86 1.315 . S
C85 H88 0.930 . S
N86 Co66 2.194 . S
N86 C81 1.328 . S
N86 C85 1.315 . S
H87 C81 0.929 . S
H88 C85 0.930 . S
H89 C77 0.929 . S
H90 C79 0.929 . S
O91 Co66 2.351 . S
O91 C94 1.244 . S
O92 Co66 2.155 . S
O92 C94 1.240 . S
O93 Co66 2.096 . S
O93 C74 1.247 1_565 S
C94 O91 1.244 . S
C94 O92 1.240 . S
H95 C69 0.931 . S
H96 C78 0.931 . S
H97 C82 0.929 . S
H98 C84 0.930 . S
Co99 N103 2.148 . S
Co99 N109 2.128 . S
Co99 N119 2.194 . S
Co99 O124 2.351 . S
Co99 O125 2.155 . S
Co99 O126 2.096 . S
C100 N103 1.301 . S
C100 N104 1.328 . S
C100 H105 0.930 . S
C101 C102 1.333 . S
C101 N103 1.317 . S
C101 H106 0.930 . S
C102 C101 1.333 . S
C102 N104 1.350 . S
C102 H128 0.931 . S
N103 Co99 2.148 . S
N103 C100 1.301 . S
N103 C101 1.317 . S
N104 C100 1.328 . S
N104 C102 1.350 . S
H105 C100 0.930 . S
H106 C101 0.930 . S
C107 O108 1.224 . S
C107 O126 1.247 . S
O108 C107 1.224 . S
N109 Co99 2.128 . S
N109 C110 1.355 . S
N109 C112 1.311 . S
C110 N109 1.355 . S
C110 C111 1.363 . S
C110 H122 0.929 . S
C111 C110 1.363 . S
C111 N113 1.375 . S
C111 H129 0.931 . S
C112 N109 1.311 . S
C112 N113 1.347 . S
C112 H123 0.929 . S
N113 C111 1.375 . S
N113 C112 1.347 . S
C114 C117 1.365 . S
C114 N119 1.328 . S
C114 H120 0.929 . S
C115 C116 1.362 . S
C115 C118 1.378 . S
C115 H130 0.929 . S
C116 C115 1.362 . S
C116 C117 1.366 . S
C117 C114 1.365 . S
C117 C116 1.366 . S
C117 H131 0.930 . S
C118 C115 1.378 . S
C118 N119 1.315 . S
C118 H121 0.930 . S
N119 Co99 2.194 . S
N119 C114 1.328 . S
N119 C118 1.315 . S
H120 C114 0.929 . S
H121 C118 0.930 . S
H122 C110 0.929 . S
H123 C112 0.929 . S
O124 Co99 2.351 . S
O124 C127 1.244 . S
O125 Co99 2.155 . S
O125 C127 1.240 . S
O126 Co99 2.096 . S
O126 C107 1.247 . S
C127 O124 1.244 . S
C127 O125 1.240 . S
H128 C102 0.931 . S
H129 C111 0.931 . S
H130 C115 0.929 . S
H131 C117 0.930 . S
Co132 N136 2.148 . S
Co132 N142 2.128 . S
Co132 N152 2.194 . S
Co132 O157 2.351 . S
Co132 O158 2.155 . S
Co132 O159 2.096 . S
C133 N136 1.301 . S
C133 N137 1.328 . S
C133 H138 0.930 . S
C134 C135 1.333 . S
C134 N136 1.317 . S
C134 H139 0.930 . S
C135 C134 1.333 . S
C135 N137 1.350 . S
C135 H161 0.931 . S
N136 Co132 2.148 . S
N136 C133 1.301 . S
N136 C134 1.317 . S
N137 C133 1.328 . S
N137 C135 1.350 . S
H138 C133 0.930 . S
H139 C134 0.930 . S
C140 O141 1.224 . S
C140 O159 1.247 1_655 S
O141 C140 1.224 . S
N142 Co132 2.128 . S
N142 C143 1.355 . S
N142 C145 1.311 . S
C143 N142 1.355 . S
C143 C144 1.363 . S
C143 H155 0.929 . S
C144 C143 1.363 . S
C144 N146 1.375 . S
C144 H162 0.931 . S
C145 N142 1.311 . S
C145 N146 1.347 . S
C145 H156 0.929 . S
N146 C144 1.375 . S
N146 C145 1.347 . S
C147 C150 1.365 . S
C147 N152 1.328 . S
C147 H153 0.929 . S
C148 C149 1.362 . S
C148 C151 1.378 . S
C148 H163 0.929 . S
C149 C148 1.362 . S
C149 C150 1.366 . S
C150 C147 1.365 . S
C150 C149 1.366 . S
C150 H164 0.930 . S
C151 C148 1.378 . S
C151 N152 1.315 . S
C151 H154 0.930 . S
N152 Co132 2.194 . S
N152 C147 1.328 . S
N152 C151 1.315 . S
H153 C147 0.929 . S
H154 C151 0.930 . S
H155 C143 0.929 . S
H156 C145 0.929 . S
O157 Co132 2.351 . S
O157 C160 1.244 . S
O158 Co132 2.155 . S
O158 C160 1.240 . S
O159 Co132 2.096 . S
O159 C140 1.247 1_455 S
C160 O157 1.244 . S
C160 O158 1.240 . S
H161 C135 0.931 . S
H162 C144 0.931 . S
H163 C148 0.929 . S
H164 C150 0.930 . S
Co165 N169 2.148 . S
Co165 N175 2.128 . S
Co165 N185 2.194 . S
Co165 O190 2.351 . S
Co165 O191 2.155 . S
Co165 O192 2.096 . S
C166 N169 1.301 . S
C166 N170 1.328 . S
C166 H171 0.930 . S
C167 C168 1.333 . S
C167 N169 1.317 . S
C167 H172 0.930 . S
C168 C167 1.333 . S
C168 N170 1.350 . S
C168 H194 0.931 . S
N169 Co165 2.148 . S
N169 C166 1.301 . S
N169 C167 1.317 . S
N170 C166 1.328 . S
N170 C168 1.350 . S
H171 C166 0.930 . S
H172 C167 0.930 . S
C173 O174 1.224 . S
C173 O192 1.247 1_565 S
O174 C173 1.224 . S
N175 Co165 2.128 . S
N175 C176 1.355 . S
N175 C178 1.311 . S
C176 N175 1.355 . S
C176 C177 1.363 . S
C176 H188 0.929 . S
C177 C176 1.363 . S
C177 N179 1.375 . S
C177 H195 0.931 . S
C178 N175 1.311 . S
C178 N179 1.347 . S
C178 H189 0.929 . S
N179 C177 1.375 . S
N179 C178 1.347 . S
C180 C183 1.365 . S
C180 N185 1.328 . S
C180 H186 0.929 . S
C181 C182 1.362 . S
C181 C184 1.378 . S
C181 H196 0.929 . S
C182 C181 1.362 . S
C182 C183 1.366 . S
C183 C180 1.365 . S
C183 C182 1.366 . S
C183 H197 0.930 . S
C184 C181 1.378 . S
C184 N185 1.315 . S
C184 H187 0.930 . S
N185 Co165 2.194 . S
N185 C180 1.328 . S
N185 C184 1.315 . S
H186 C180 0.929 . S
H187 C184 0.930 . S
H188 C176 0.929 . S
H189 C178 0.929 . S
O190 Co165 2.351 . S
O190 C193 1.244 . S
O191 Co165 2.155 . S
O191 C193 1.240 . S
O192 Co165 2.096 . S
O192 C173 1.247 1_545 S
C193 O190 1.244 . S
C193 O191 1.240 . S
H194 C168 0.931 . S
H195 C177 0.931 . S
H196 C181 0.929 . S
H197 C183 0.930 . S
Co198 N202 2.148 . S
Co198 N208 2.128 . S
Co198 N218 2.194 . S
Co198 O223 2.351 . S
Co198 O224 2.155 . S
Co198 O225 2.096 . S
C199 N202 1.301 . S
C199 N203 1.328 . S
C199 H204 0.930 . S
C200 C201 1.333 . S
C200 N202 1.317 . S
C200 H205 0.930 . S
C201 C200 1.333 . S
C201 N203 1.350 . S
C201 H227 0.931 . S
N202 Co198 2.148 . S
N202 C199 1.301 . S
N202 C200 1.317 . S
N203 C199 1.328 . S
N203 C201 1.350 . S
H204 C199 0.930 . S
H205 C200 0.930 . S
C206 O207 1.224 . S
C206 O225 1.247 . S
O207 C206 1.224 . S
N208 Co198 2.128 . S
N208 C209 1.355 . S
N208 C211 1.311 . S
C209 N208 1.355 . S
C209 C210 1.363 . S
C209 H221 0.929 . S
C210 C209 1.363 . S
C210 N212 1.375 . S
C210 H228 0.931 . S
C211 N208 1.311 . S
C211 N212 1.347 . S
C211 H222 0.929 . S
N212 C210 1.375 . S
N212 C211 1.347 . S
C213 C216 1.365 . S
C213 N218 1.328 . S
C213 H219 0.929 . S
C214 C215 1.362 . S
C214 C217 1.378 . S
C214 H229 0.929 . S
C215 C214 1.362 . S
C215 C216 1.366 . S
C216 C213 1.365 . S
C216 C215 1.366 . S
C216 H230 0.930 . S
C217 C214 1.378 . S
C217 N218 1.315 . S
C217 H220 0.930 . S
N218 Co198 2.194 . S
N218 C213 1.328 . S
N218 C217 1.315 . S
H219 C213 0.929 . S
H220 C217 0.930 . S
H221 C209 0.929 . S
H222 C211 0.929 . S
O223 Co198 2.351 . S
O223 C226 1.244 . S
O224 Co198 2.155 . S
O224 C226 1.240 . S
O225 Co198 2.096 . S
O225 C206 1.247 . S
C226 O223 1.244 . S
C226 O224 1.240 . S
H227 C201 0.931 . S
H228 C210 0.931 . S
H229 C214 0.929 . S
H230 C216 0.930 . S
Co231 N235 2.148 . S
Co231 N241 2.128 . S
Co231 N251 2.194 . S
Co231 O256 2.351 . S
Co231 O257 2.155 . S
Co231 O258 2.096 . S
C232 N235 1.301 . S
C232 N236 1.328 . S
C232 H237 0.930 . S
C233 C234 1.333 . S
C233 N235 1.317 . S
C233 H238 0.930 . S
C234 C233 1.333 . S
C234 N236 1.350 . S
C234 H260 0.931 . S
N235 Co231 2.148 . S
N235 C232 1.301 . S
N235 C233 1.317 . S
N236 C232 1.328 . S
N236 C234 1.350 . S
H237 C232 0.930 . S
H238 C233 0.930 . S
C239 O240 1.224 . S
C239 O258 1.247 1_455 S
O240 C239 1.224 . S
N241 Co231 2.128 . S
N241 C242 1.355 . S
N241 C244 1.311 . S
C242 N241 1.355 . S
C242 C243 1.363 . S
C242 H254 0.929 . S
C243 C242 1.363 . S
C243 N245 1.375 . S
C243 H261 0.931 . S
C244 N241 1.311 . S
C244 N245 1.347 . S
C244 H255 0.929 . S
N245 C243 1.375 . S
N245 C244 1.347 . S
C246 C249 1.365 . S
C246 N251 1.328 . S
C246 H252 0.929 . S
C247 C248 1.362 . S
C247 C250 1.378 . S
C247 H262 0.929 . S
C248 C247 1.362 . S
C248 C249 1.366 . S
C249 C246 1.365 . S
C249 C248 1.366 . S
C249 H263 0.930 . S
C250 C247 1.378 . S
C250 N251 1.315 . S
C250 H253 0.930 . S
N251 Co231 2.194 . S
N251 C246 1.328 . S
N251 C250 1.315 . S
H252 C246 0.929 . S
H253 C250 0.930 . S
H254 C242 0.929 . S
H255 C244 0.929 . S
O256 Co231 2.351 . S
O256 C259 1.244 . S
O257 Co231 2.155 . S
O257 C259 1.240 . S
O258 Co231 2.096 . S
O258 C239 1.247 1_655 S
C259 O256 1.244 . S
C259 O257 1.240 . S
H260 C234 0.931 . S
H261 C243 0.931 . S
H262 C247 0.929 . S
H263 C249 0.930 . S
Co264 N268 2.148 . S
Co264 N274 2.128 . S
Co264 N284 2.194 . S
Co264 O289 2.351 . S
Co264 O290 2.155 . S
Co264 O291 2.096 . S
C265 N268 1.301 . S
C265 N269 1.328 . S
C265 H270 0.930 . S
C266 C267 1.333 . S
C266 N268 1.317 . S
C266 H271 0.930 . S
C267 C266 1.333 . S
C267 N269 1.350 . S
C267 H293 0.931 . S
N268 Co264 2.148 . S
N268 C265 1.301 . S
N268 C266 1.317 . S
N269 C265 1.328 . S
N269 C267 1.350 . S
H270 C265 0.930 . S
H271 C266 0.930 . S
C272 O273 1.224 . S
C272 O291 1.247 1_545 S
O273 C272 1.224 . S
N274 Co264 2.128 . S
N274 C275 1.355 . S
N274 C277 1.311 . S
C275 N274 1.355 . S
C275 C276 1.363 . S
C275 H287 0.929 . S
C276 C275 1.363 . S
C276 N278 1.375 . S
C276 H294 0.931 . S
C277 N274 1.311 . S
C277 N278 1.347 . S
C277 H288 0.929 . S
N278 C276 1.375 . S
N278 C277 1.347 . S
C279 C282 1.365 . S
C279 N284 1.328 . S
C279 H285 0.929 . S
C280 C281 1.362 . S
C280 C283 1.378 . S
C280 H295 0.929 . S
C281 C280 1.362 . S
C281 C282 1.366 . S
C282 C279 1.365 . S
C282 C281 1.366 . S
C282 H296 0.930 . S
C283 C280 1.378 . S
C283 N284 1.315 . S
C283 H286 0.930 . S
N284 Co264 2.194 . S
N284 C279 1.328 . S
N284 C283 1.315 . S
H285 C279 0.929 . S
H286 C283 0.930 . S
H287 C275 0.929 . S
H288 C277 0.929 . S
O289 Co264 2.351 . S
O289 C292 1.244 . S
O290 Co264 2.155 . S
O290 C292 1.240 . S
O291 Co264 2.096 . S
O291 C272 1.247 1_565 S
C292 O289 1.244 . S
C292 O290 1.240 . S
H293 C267 0.931 . S
H294 C276 0.931 . S
H295 C280 0.929 . S
H296 C282 0.930 . S
Co297 N301 2.148 . S
Co297 N307 2.128 . S
Co297 N317 2.194 . S
Co297 O322 2.351 . S
Co297 O323 2.155 . S
Co297 O324 2.096 . S
C298 N301 1.301 . S
C298 N302 1.328 . S
C298 H303 0.930 . S
C299 C300 1.333 . S
C299 N301 1.317 . S
C299 H304 0.930 . S
C300 C299 1.333 . S
C300 N302 1.350 . S
C300 H326 0.931 . S
N301 Co297 2.148 . S
N301 C298 1.301 . S
N301 C299 1.317 . S
N302 C298 1.328 . S
N302 C300 1.350 . S
H303 C298 0.930 . S
H304 C299 0.930 . S
C305 O306 1.224 . S
C305 O324 1.247 . S
O306 C305 1.224 . S
N307 Co297 2.128 . S
N307 C308 1.355 . S
N307 C310 1.311 . S
C308 N307 1.355 . S
C308 C309 1.363 . S
C308 H320 0.929 . S
C309 C308 1.363 . S
C309 N311 1.375 . S
C309 H327 0.931 . S
C310 N307 1.311 . S
C310 N311 1.347 . S
C310 H321 0.929 . S
N311 C309 1.375 . S
N311 C310 1.347 . S
C312 C315 1.365 . S
C312 N317 1.328 . S
C312 H318 0.929 . S
C313 C314 1.362 . S
C313 C316 1.378 . S
C313 H328 0.929 . S
C314 C313 1.362 . S
C314 C315 1.366 . S
C315 C312 1.365 . S
C315 C314 1.366 . S
C315 H329 0.930 . S
C316 C313 1.378 . S
C316 N317 1.315 . S
C316 H319 0.930 . S
N317 Co297 2.194 . S
N317 C312 1.328 . S
N317 C316 1.315 . S
H318 C312 0.929 . S
H319 C316 0.930 . S
H320 C308 0.929 . S
H321 C310 0.929 . S
O322 Co297 2.351 . S
O322 C325 1.244 . S
O323 Co297 2.155 . S
O323 C325 1.240 . S
O324 Co297 2.096 . S
O324 C305 1.247 . S
C325 O322 1.244 . S
C325 O323 1.240 . S
H326 C300 0.931 . S
H327 C309 0.931 . S
H328 C313 0.929 . S
H329 C315 0.930 . S
Co330 N334 2.148 . S
Co330 N340 2.128 . S
Co330 N350 2.194 . S
Co330 O355 2.351 . S
Co330 O356 2.155 . S
Co330 O357 2.096 . S
C331 N334 1.301 . S
C331 N335 1.328 . S
C331 H336 0.930 . S
C332 C333 1.333 . S
C332 N334 1.317 . S
C332 H337 0.930 . S
C333 C332 1.333 . S
C333 N335 1.350 . S
C333 H359 0.931 . S
N334 Co330 2.148 . S
N334 C331 1.301 . S
N334 C332 1.317 . S
N335 C331 1.328 . S
N335 C333 1.350 . S
H336 C331 0.930 . S
H337 C332 0.930 . S
C338 O339 1.224 . S
C338 O357 1.247 1_655 S
O339 C338 1.224 . S
N340 Co330 2.128 . S
N340 C341 1.355 . S
N340 C343 1.311 . S
C341 N340 1.355 . S
C341 C342 1.363 . S
C341 H353 0.929 . S
C342 C341 1.363 . S
C342 N344 1.375 . S
C342 H360 0.931 . S
C343 N340 1.311 . S
C343 N344 1.347 . S
C343 H354 0.929 . S
N344 C342 1.375 . S
N344 C343 1.347 . S
C345 C348 1.365 . S
C345 N350 1.328 . S
C345 H351 0.929 . S
C346 C347 1.362 . S
C346 C349 1.378 . S
C346 H361 0.929 . S
C347 C346 1.362 . S
C347 C348 1.366 . S
C348 C345 1.365 . S
C348 C347 1.366 . S
C348 H362 0.930 . S
C349 C346 1.378 . S
C349 N350 1.315 . S
C349 H352 0.930 . S
N350 Co330 2.194 . S
N350 C345 1.328 . S
N350 C349 1.315 . S
H351 C345 0.929 . S
H352 C349 0.930 . S
H353 C341 0.929 . S
H354 C343 0.929 . S
O355 Co330 2.351 . S
O355 C358 1.244 . S
O356 Co330 2.155 . S
O356 C358 1.240 . S
O357 Co330 2.096 . S
O357 C338 1.247 1_455 S
C358 O355 1.244 . S
C358 O356 1.240 . S
H359 C333 0.931 . S
H360 C342 0.931 . S
H361 C346 0.929 . S
H362 C348 0.930 . S
Co363 N367 2.148 . S
Co363 N373 2.128 . S
Co363 N383 2.194 . S
Co363 O388 2.351 . S
Co363 O389 2.155 . S
Co363 O390 2.096 . S
C364 N367 1.301 . S
C364 N368 1.328 . S
C364 H369 0.930 . S
C365 C366 1.333 . S
C365 N367 1.317 . S
C365 H370 0.930 . S
C366 C365 1.333 . S
C366 N368 1.350 . S
C366 H392 0.931 . S
N367 Co363 2.148 . S
N367 C364 1.301 . S
N367 C365 1.317 . S
N368 C364 1.328 . S
N368 C366 1.350 . S
H369 C364 0.930 . S
H370 C365 0.930 . S
C371 O372 1.224 . S
C371 O390 1.247 1_565 S
O372 C371 1.224 . S
N373 Co363 2.128 . S
N373 C374 1.355 . S
N373 C376 1.311 . S
C374 N373 1.355 . S
C374 C375 1.363 . S
C374 H386 0.929 . S
C375 C374 1.363 . S
C375 N377 1.375 . S
C375 H393 0.931 . S
C376 N373 1.311 . S
C376 N377 1.347 . S
C376 H387 0.929 . S
N377 C375 1.375 . S
N377 C376 1.347 . S
C378 C381 1.365 . S
C378 N383 1.328 . S
C378 H384 0.929 . S
C379 C380 1.362 . S
C379 C382 1.378 . S
C379 H394 0.929 . S
C380 C379 1.362 . S
C380 C381 1.366 . S
C381 C378 1.365 . S
C381 C380 1.366 . S
C381 H395 0.930 . S
C382 C379 1.378 . S
C382 N383 1.315 . S
C382 H385 0.930 . S
N383 Co363 2.194 . S
N383 C378 1.328 . S
N383 C382 1.315 . S
H384 C378 0.929 . S
H385 C382 0.930 . S
H386 C374 0.929 . S
H387 C376 0.929 . S
O388 Co363 2.351 . S
O388 C391 1.244 . S
O389 Co363 2.155 . S
O389 C391 1.240 . S
O390 Co363 2.096 . S
O390 C371 1.247 1_545 S
C391 O388 1.244 . S
C391 O389 1.240 . S
H392 C366 0.931 . S
H393 C375 0.931 . S
H394 C379 0.929 . S
H395 C381 0.930 . S
H396 C402 0.930 . S
H397 C405 0.930 . S
H398 C406 0.930 . S
H399 C407 0.930 . S
H400 C410 0.930 . S
H401 C411 0.930 . S
C402 H396 0.930 . S
C402 C403 1.355 . S
C402 C404 1.415 . S
C403 C402 1.355 . S
C403 C405 1.419 . S
C404 C402 1.415 . S
C404 C409 1.425 . S
C404 C411 1.409 . S
C405 H397 0.930 . S
C405 C403 1.419 . S
C405 C406 1.362 . S
C406 H398 0.930 . S
C406 C405 1.362 . S
C406 C409 1.409 . S
C407 H399 0.930 . S
C407 C408 1.355 . S
C407 C409 1.415 . S
C408 C407 1.355 . S
C408 C410 1.419 . S
C409 C404 1.425 . S
C409 C406 1.409 . S
C409 C407 1.415 . S
C410 H400 0.930 . S
C410 C408 1.419 . S
C410 C411 1.362 . S
C411 H401 0.930 . S
C411 C404 1.409 . S
C411 C410 1.362 . S
H412 C418 0.930 . S
H413 C421 0.922 1_455 S
H414 C422 0.930 . S
H415 C423 0.930 . S
H416 C426 0.922 1_655 S
H417 C427 0.930 . S
C418 H412 0.930 . S
C418 C419 1.355 . S
C418 C420 1.415 . S
C419 C418 1.355 . S
C419 C421 1.434 . S
C420 C418 1.415 . S
C420 C425 1.425 1_655 S
C420 C427 1.409 . S
C421 H413 0.922 1_655 S
C421 C419 1.434 . S
C421 C422 1.355 1_655 S
C422 H414 0.930 . S
C422 C421 1.355 1_455 S
C422 C425 1.409 . S
C423 H415 0.930 . S
C423 C424 1.355 . S
C423 C425 1.415 . S
C424 C423 1.355 . S
C424 C426 1.434 . S
C425 C420 1.425 1_455 S
C425 C422 1.409 . S
C425 C423 1.415 . S
C426 H416 0.922 1_455 S
C426 C424 1.434 . S
C426 C427 1.355 1_455 S
C427 H417 0.930 . S
C427 C420 1.409 . S
C427 C426 1.355 1_655 S
H428 C434 0.930 . S
H429 C437 0.930 . S
H430 C438 0.930 1_554 S
H431 C439 0.930 . S
H432 C442 0.930 . S
H433 C443 0.930 1_556 S
C434 H428 0.930 . S
C434 C435 1.355 1_545 S
C434 C436 1.415 . S
C435 C434 1.355 1_565 S
C435 C437 1.419 . S
C436 C434 1.415 . S
C436 C441 1.425 1_546 S
C436 C443 1.409 1_556 S
C437 H429 0.930 . S
C437 C435 1.419 . S
C437 C438 1.362 . S
C438 H430 0.930 1_556 S
C438 C437 1.362 . S
C438 C441 1.409 1_556 S
C439 H431 0.930 . S
C439 C440 1.355 1_565 S
C439 C441 1.415 . S
C440 C439 1.355 1_545 S
C440 C442 1.419 . S
C441 C436 1.425 1_564 S
C441 C438 1.409 1_554 S
C441 C439 1.415 . S
C442 H432 0.930 . S
C442 C440 1.419 . S
C442 C443 1.362 . S
C443 H433 0.930 1_554 S
C443 C436 1.409 1_554 S
C443 C442 1.362 . S
H444 C450 0.930 . S
H445 C453 0.930 . S
H446 C454 0.930 . S
H447 C455 0.930 . S
H448 C458 0.930 . S
H449 C459 0.930 . S
C450 H444 0.930 . S
C450 C451 1.355 . S
C450 C452 1.415 . S
C451 C450 1.355 . S
C451 C453 1.419 . S
C452 C450 1.415 . S
C452 C457 1.425 . S
C452 C459 1.409 . S
C453 H445 0.930 . S
C453 C451 1.419 . S
C453 C454 1.362 . S
C454 H446 0.930 . S
C454 C453 1.362 . S
C454 C457 1.409 . S
C455 H447 0.930 . S
C455 C456 1.355 . S
C455 C457 1.415 . S
C456 C455 1.355 . S
C456 C458 1.419 . S
C457 C452 1.425 . S
C457 C454 1.409 . S
C457 C455 1.415 . S
C458 H448 0.930 . S
C458 C456 1.419 . S
C458 C459 1.362 . S
C459 H449 0.930 . S
C459 C452 1.409 . S
C459 C458 1.362 . S
H460 C466 0.930 . S
H461 C469 0.930 . S
H462 C470 0.930 . S
H463 C471 0.930 . S
H464 C474 0.930 . S
H465 C475 0.930 . S
C466 H460 0.930 . S
C466 C467 1.355 . S
C466 C468 1.415 1_455 S
C467 C466 1.355 . S
C467 C469 1.419 . S
C468 C466 1.415 1_655 S
C468 C473 1.425 1_655 S
C468 C475 1.409 . S
C469 H461 0.930 . S
C469 C467 1.419 . S
C469 C470 1.362 . S
C470 H462 0.930 . S
C470 C469 1.362 . S
C470 C473 1.409 . S
C471 H463 0.930 . S
C471 C472 1.355 . S
C471 C473 1.415 1_655 S
C472 C471 1.355 . S
C472 C474 1.419 . S
C473 C468 1.425 1_455 S
C473 C470 1.409 . S
C473 C471 1.415 1_455 S
C474 H464 0.930 . S
C474 C472 1.419 . S
C474 C475 1.362 . S
C475 H465 0.930 . S
C475 C468 1.409 . S
C475 C474 1.362 . S
H476 C482 0.930 . S
H477 C485 0.930 . S
H478 C486 0.930 . S
H479 C487 0.930 . S
H480 C490 0.930 . S
H481 C491 0.930 . S
C482 H476 0.930 . S
C482 C483 1.355 . S
C482 C484 1.415 . S
C483 C482 1.355 . S
C483 C485 1.419 1_545 S
C484 C482 1.415 . S
C484 C489 1.425 1_546 S
C484 C491 1.409 1_556 S
C485 H477 0.930 . S
C485 C483 1.419 1_565 S
C485 C486 1.362 . S
C486 H478 0.930 . S
C486 C485 1.362 . S
C486 C489 1.409 1_556 S
C487 H479 0.930 . S
C487 C488 1.355 . S
C487 C489 1.415 . S
C488 C487 1.355 . S
C488 C490 1.419 1_565 S
C489 C484 1.425 1_564 S
C489 C486 1.409 1_554 S
C489 C487 1.415 . S
C490 H480 0.930 . S
C490 C488 1.419 1_545 S
C490 C491 1.362 . S
C491 H481 0.930 . S
C491 C484 1.409 1_554 S
C491 C490 1.362 . S
H492 C498 0.930 . S
H493 C501 0.930 . S
H494 C502 0.930 . S
H495 C503 0.930 . S
H496 C506 0.930 . S
H497 C507 0.930 . S
C498 H492 0.930 . S
C498 C499 1.355 . S
C498 C500 1.412 1_556 S
C499 C498 1.355 . S
C499 C501 1.419 . S
C500 C498 1.412 1_554 S
C500 C505 1.425 1_554 S
C500 C507 1.412 . S
C501 H493 0.930 . S
C501 C499 1.419 . S
C501 C502 1.362 . S
C502 H494 0.930 . S
C502 C501 1.362 . S
C502 C505 1.412 . S
C503 H495 0.930 . S
C503 C504 1.355 . S
C503 C505 1.412 1_554 S
C504 C503 1.355 . S
C504 C506 1.419 . S
C505 C500 1.425 1_556 S
C505 C502 1.412 . S
C505 C503 1.412 1_556 S
C506 H496 0.930 . S
C506 C504 1.419 . S
C506 C507 1.362 . S
C507 H497 0.930 . S
C507 C500 1.412 . S
C507 C506 1.362 . S
H508 C514 0.930 . S
H509 C517 0.930 . S
H510 C518 0.930 . S
H511 C519 0.930 . S
H512 C522 0.930 . S
H513 C523 0.930 . S
C514 H508 0.930 . S
C514 C515 1.355 . S
C514 C516 1.415 . S
C515 C514 1.355 . S
C515 C517 1.419 . S
C516 C514 1.415 . S
C516 C521 1.425 . S
C516 C523 1.409 . S
C517 H509 0.930 . S
C517 C515 1.419 . S
C517 C518 1.362 . S
C518 H510 0.930 . S
C518 C517 1.362 . S
C518 C521 1.409 . S
C519 H511 0.930 . S
C519 C520 1.355 . S
C519 C521 1.415 . S
C520 C519 1.355 . S
C520 C522 1.419 . S
C521 C516 1.425 . S
C521 C518 1.409 . S
C521 C519 1.415 . S
C522 H512 0.930 . S
C522 C520 1.419 . S
C522 C523 1.362 . S
C523 H513 0.930 . S
C523 C516 1.409 . S
C523 C522 1.362 . S
H524 C530 0.930 . S
H525 C533 0.930 . S
H526 C534 0.930 . S
H527 C535 0.930 . S
H528 C538 0.930 . S
H529 C539 0.930 . S
C530 H524 0.930 . S
C530 C531 1.355 . S
C530 C532 1.415 . S
C531 C530 1.355 . S
C531 C533 1.419 . S
C532 C530 1.415 . S
C532 C537 1.425 . S
C532 C539 1.409 . S
C533 H525 0.930 . S
C533 C531 1.419 . S
C533 C534 1.362 . S
C534 H526 0.930 . S
C534 C533 1.362 . S
C534 C537 1.409 . S
C535 H527 0.930 . S
C535 C536 1.355 . S
C535 C537 1.415 . S
C536 C535 1.355 . S
C536 C538 1.419 . S
C537 C532 1.425 . S
C537 C534 1.409 . S
C537 C535 1.415 . S
C538 H528 0.930 . S
C538 C536 1.419 . S
C538 C539 1.362 . S
C539 H529 0.930 . S
C539 C532 1.409 . S
C539 C538 1.362 . S
H540 C546 0.930 . S
H541 C549 0.930 . S
H542 C550 0.930 1_554 S
H543 C551 0.930 . S
H544 C554 0.930 . S
H545 C555 0.930 1_556 S
C546 H540 0.930 . S
C546 C547 1.355 . S
C546 C548 1.415 . S
C547 C546 1.355 . S
C547 C549 1.419 . S
C548 C546 1.415 . S
C548 C553 1.425 1_556 S
C548 C555 1.409 1_556 S
C549 H541 0.930 . S
C549 C547 1.419 . S
C549 C550 1.362 . S
C550 H542 0.930 1_556 S
C550 C549 1.362 . S
C550 C553 1.409 1_556 S
C551 H543 0.930 . S
C551 C552 1.355 . S
C551 C553 1.415 . S
C552 C551 1.355 . S
C552 C554 1.419 . S
C553 C548 1.425 1_554 S
C553 C550 1.409 1_554 S
C553 C551 1.415 . S
C554 H544 0.930 . S
C554 C552 1.419 . S
C554 C555 1.362 . S
C555 H545 0.930 1_554 S
C555 C548 1.409 1_554 S
C555 C554 1.362 . S
H556 C562 0.930 . S
H557 C565 0.930 . S
H558 C566 0.930 . S
H559 C567 0.930 . S
H560 C570 0.930 . S
H561 C571 0.930 . S
C562 H556 0.930 . S
C562 C563 1.355 . S
C562 C564 1.415 . S
C563 C562 1.355 . S
C563 C565 1.419 . S
C564 C562 1.415 . S
C564 C569 1.425 . S
C564 C571 1.409 . S
C565 H557 0.930 . S
C565 C563 1.419 . S
C565 C566 1.362 . S
C566 H558 0.930 . S
C566 C565 1.362 . S
C566 C569 1.409 . S
C567 H559 0.930 . S
C567 C568 1.355 . S
C567 C569 1.415 . S
C568 C567 1.355 . S
C568 C570 1.419 . S
C569 C564 1.425 . S
C569 C566 1.409 . S
C569 C567 1.415 . S
C570 H560 0.930 . S
C570 C568 1.419 . S
C570 C571 1.362 . S
C571 H561 0.930 . S
C571 C564 1.409 . S
C571 C570 1.362 . S
H572 C578 0.930 . S
H573 C581 0.930 . S
H574 C582 0.930 . S
H575 C583 0.930 . S
H576 C586 0.930 . S
H577 C587 0.930 . S
C578 H572 0.930 . S
C578 C579 1.355 . S
C578 C580 1.415 . S
C579 C578 1.355 . S
C579 C581 1.419 . S
C580 C578 1.415 . S
C580 C585 1.425 . S
C580 C587 1.409 . S
C581 H573 0.930 . S
C581 C579 1.419 . S
C581 C582 1.362 . S
C582 H574 0.930 . S
C582 C581 1.362 . S
C582 C585 1.409 . S
C583 H575 0.930 . S
C583 C584 1.355 . S
C583 C585 1.415 . S
C584 C583 1.355 . S
C584 C586 1.419 . S
C585 C580 1.425 . S
C585 C582 1.409 . S
C585 C583 1.415 . S
C586 H576 0.930 . S
C586 C584 1.419 . S
C586 C587 1.362 . S
C587 H577 0.930 . S
C587 C580 1.409 . S
C587 C586 1.362 . S
H588 C594 0.930 . S
H589 C597 0.930 . S
H590 C598 0.930 . S
H591 C599 0.930 . S
H592 C602 0.930 . S
H593 C603 0.930 . S
C594 H588 0.930 . S
C594 C595 1.355 . S
C594 C596 1.415 . S
C595 C594 1.355 . S
C595 C597 1.419 . S
C596 C594 1.415 . S
C596 C601 1.425 . S
C596 C603 1.409 . S
C597 H589 0.930 . S
C597 C595 1.419 . S
C597 C598 1.362 . S
C598 H590 0.930 . S
C598 C597 1.362 . S
C598 C601 1.409 . S
C599 H591 0.930 . S
C599 C600 1.355 . S
C599 C601 1.415 . S
C600 C599 1.355 . S
C600 C602 1.419 . S
C601 C596 1.425 . S
C601 C598 1.409 . S
C601 C599 1.415 . S
C602 H592 0.930 . S
C602 C600 1.419 . S
C602 C603 1.362 . S
C603 H593 0.930 . S
C603 C596 1.409 . S
C603 C602 1.362 . S
H604 C610 0.930 . S
H605 C613 0.930 . S
H606 C614 0.930 . S
H607 C615 0.930 . S
H608 C618 0.930 . S
H609 C619 0.930 . S
C610 H604 0.930 . S
C610 C611 1.355 . S
C610 C612 1.415 . S
C611 C610 1.355 . S
C611 C613 1.419 . S
C612 C610 1.415 . S
C612 C617 1.425 1_655 S
C612 C619 1.409 . S
C613 H605 0.930 . S
C613 C611 1.419 . S
C613 C614 1.362 1_655 S
C614 H606 0.930 . S
C614 C613 1.362 1_455 S
C614 C617 1.409 . S
C615 H607 0.930 . S
C615 C616 1.355 . S
C615 C617 1.415 . S
C616 C615 1.355 . S
C616 C618 1.419 . S
C617 C612 1.425 1_455 S
C617 C614 1.409 . S
C617 C615 1.415 . S
C618 H608 0.930 . S
C618 C616 1.419 . S
C618 C619 1.362 1_455 S
C619 H609 0.930 . S
C619 C612 1.409 . S
C619 C618 1.362 1_655 S
H620 C626 0.930 . S
H621 C629 0.930 . S
H622 C630 0.930 . S
H623 C631 0.930 . S
H624 C634 0.930 . S
H625 C635 0.930 . S
C626 H620 0.930 . S
C626 C627 1.355 . S
C626 C628 1.415 . S
C627 C626 1.355 . S
C627 C629 1.419 . S
C628 C626 1.415 . S
C628 C633 1.425 1_545 S
C628 C635 1.409 . S
C629 H621 0.930 . S
C629 C627 1.419 . S
C629 C630 1.362 1_545 S
C630 H622 0.930 . S
C630 C629 1.362 1_565 S
C630 C633 1.409 . S
C631 H623 0.930 . S
C631 C632 1.355 . S
C631 C633 1.415 . S
C632 C631 1.355 . S
C632 C634 1.419 . S
C633 C628 1.425 1_565 S
C633 C630 1.409 . S
C633 C631 1.415 . S
C634 H624 0.930 . S
C634 C632 1.419 . S
C634 C635 1.362 1_565 S
C635 H625 0.930 . S
C635 C628 1.409 . S
C635 C634 1.362 1_545 S
H636 C642 0.930 . S
H637 C645 0.930 . S
H638 C646 0.930 . S
H639 C647 0.930 . S
H640 C650 0.930 . S
H641 C651 0.930 . S
C642 H636 0.930 . S
C642 C643 1.355 . S
C642 C644 1.415 . S
C643 C642 1.355 . S
C643 C645 1.419 . S
C644 C642 1.415 . S
C644 C649 1.425 . S
C644 C651 1.409 . S
C645 H637 0.930 . S
C645 C643 1.419 . S
C645 C646 1.362 . S
C646 H638 0.930 . S
C646 C645 1.362 . S
C646 C649 1.409 . S
C647 H639 0.930 . S
C647 C648 1.355 . S
C647 C649 1.415 . S
C648 C647 1.355 . S
C648 C650 1.419 . S
C649 C644 1.425 . S
C649 C646 1.409 . S
C649 C647 1.415 . S
C650 H640 0.930 . S
C650 C648 1.419 . S
C650 C651 1.362 . S
C651 H641 0.930 . S
C651 C644 1.409 . S
C651 C650 1.362 . S
H652 C658 0.930 . S
H653 C661 0.930 . S
H654 C662 0.930 . S
H655 C663 0.930 . S
H656 C666 0.930 . S
H657 C667 0.930 . S
C658 H652 0.930 . S
C658 C659 1.355 . S
C658 C660 1.415 1_655 S
C659 C658 1.355 . S
C659 C661 1.419 . S
C660 C658 1.415 1_455 S
C660 C665 1.425 1_455 S
C660 C667 1.409 . S
C661 H653 0.930 . S
C661 C659 1.419 . S
C661 C662 1.362 . S
C662 H654 0.930 . S
C662 C661 1.362 . S
C662 C665 1.409 . S
C663 H655 0.930 . S
C663 C664 1.355 . S
C663 C665 1.415 1_455 S
C664 C663 1.355 . S
C664 C666 1.419 . S
C665 C660 1.425 1_655 S
C665 C662 1.409 . S
C665 C663 1.415 1_655 S
C666 H656 0.930 . S
C666 C664 1.419 . S
C666 C667 1.362 . S
C667 H657 0.930 . S
C667 C660 1.409 . S
C667 C666 1.362 . S
H668 C674 0.930 . S
H669 C677 0.930 . S
H670 C678 0.930 . S
H671 C679 0.930 . S
H672 C682 0.930 . S
H673 C683 0.930 . S
C674 H668 0.930 . S
C674 C675 1.355 . S
C674 C676 1.415 . S
C675 C674 1.355 . S
C675 C677 1.419 . S
C676 C674 1.415 . S
C676 C681 1.425 1_545 S
C676 C683 1.409 . S
C677 H669 0.930 . S
C677 C675 1.419 . S
C677 C678 1.362 1_545 S
C678 H670 0.930 . S
C678 C677 1.362 1_565 S
C678 C681 1.409 . S
C679 H671 0.930 . S
C679 C680 1.355 . S
C679 C681 1.415 . S
C680 C679 1.355 . S
C680 C682 1.419 . S
C681 C676 1.425 1_565 S
C681 C678 1.409 . S
C681 C679 1.415 . S
C682 H672 0.930 . S
C682 C680 1.419 . S
C682 C683 1.362 1_565 S
C683 H673 0.930 . S
C683 C676 1.409 . S
C683 C682 1.362 1_545 S
H684 C690 0.930 . S
H685 C693 0.930 . S
H686 C694 0.930 . S
H687 C695 0.930 . S
H688 C698 0.930 . S
H689 C699 0.930 . S
C690 H684 0.930 . S
C690 C691 1.355 . S
C690 C692 1.415 . S
C691 C690 1.355 . S
C691 C693 1.419 . S
C692 C690 1.415 . S
C692 C697 1.425 1_455 S
C692 C699 1.409 1_455 S
C693 H685 0.930 . S
C693 C691 1.419 . S
C693 C694 1.362 . S
C694 H686 0.930 . S
C694 C693 1.362 . S
C694 C697 1.409 1_455 S
C695 H687 0.930 . S
C695 C696 1.355 . S
C695 C697 1.415 . S
C696 C695 1.355 . S
C696 C698 1.419 . S
C697 C692 1.425 1_655 S
C697 C694 1.409 1_655 S
C697 C695 1.415 . S
C698 H688 0.930 . S
C698 C696 1.419 . S
C698 C699 1.362 . S
C699 H689 0.930 . S
C699 C692 1.409 1_655 S
C699 C698 1.362 . S
H700 C706 0.930 . S
H701 C709 0.930 . S
H702 C710 0.930 . S
H703 C711 0.930 . S
H704 C714 0.930 . S
H705 C715 0.930 . S
C706 H700 0.930 . S
C706 C707 1.355 . S
C706 C708 1.415 . S
C707 C706 1.355 . S
C707 C709 1.419 . S
C708 C706 1.415 . S
C708 C713 1.425 1_565 S
C708 C715 1.409 1_565 S
C709 H701 0.930 . S
C709 C707 1.419 . S
C709 C710 1.362 . S
C710 H702 0.930 . S
C710 C709 1.362 . S
C710 C713 1.409 1_565 S
C711 H703 0.930 . S
C711 C712 1.355 . S
C711 C713 1.415 . S
C712 C711 1.355 . S
C712 C714 1.419 . S
C713 C708 1.425 1_545 S
C713 C710 1.409 1_545 S
C713 C711 1.415 . S
C714 H704 0.930 . S
C714 C712 1.419 . S
C714 C715 1.362 . S
C715 H705 0.930 . S
C715 C708 1.409 1_545 S
C715 C714 1.362 . S
H716 C722 0.930 . S
H717 C725 0.930 . S
H718 C726 0.930 . S
H719 C727 0.930 . S
H720 C730 0.930 . S
H721 C731 0.930 . S
C722 H716 0.930 . S
C722 C723 1.355 . S
C722 C724 1.415 . S
C723 C722 1.355 . S
C723 C725 1.419 . S
C724 C722 1.415 . S
C724 C729 1.425 . S
C724 C731 1.409 . S
C725 H717 0.930 . S
C725 C723 1.419 . S
C725 C726 1.362 . S
C726 H718 0.930 . S
C726 C725 1.362 . S
C726 C729 1.409 . S
C727 H719 0.930 . S
C727 C728 1.355 . S
C727 C729 1.415 . S
C728 C727 1.355 . S
C728 C730 1.419 . S
C729 C724 1.425 . S
C729 C726 1.409 . S
C729 C727 1.415 . S
C730 H720 0.930 . S
C730 C728 1.419 . S
C730 C731 1.362 . S
C731 H721 0.930 . S
C731 C724 1.409 . S
C731 C730 1.362 . S
H732 C738 0.930 . S
H733 C741 0.930 . S
H734 C742 0.930 . S
H735 C743 0.930 . S
H736 C746 0.930 . S
H737 C747 0.930 . S
C738 H732 0.930 . S
C738 C739 1.355 . S
C738 C740 1.415 . S
C739 C738 1.355 . S
C739 C741 1.419 . S
C740 C738 1.415 . S
C740 C745 1.425 1_655 S
C740 C747 1.409 1_655 S
C741 H733 0.930 . S
C741 C739 1.419 . S
C741 C742 1.362 . S
C742 H734 0.930 . S
C742 C741 1.362 . S
C742 C745 1.409 1_655 S
C743 H735 0.930 . S
C743 C744 1.355 . S
C743 C745 1.415 . S
C744 C743 1.355 . S
C744 C746 1.419 . S
C745 C740 1.425 1_455 S
C745 C742 1.409 1_455 S
C745 C743 1.415 . S
C746 H736 0.930 . S
C746 C744 1.419 . S
C746 C747 1.362 . S
C747 H737 0.930 . S
C747 C740 1.409 1_455 S
C747 C746 1.362 . S
H748 C754 0.930 . S
H749 C757 0.930 . S
H750 C758 0.930 . S
H751 C759 0.930 . S
H752 C762 0.930 . S
H753 C763 0.930 . S
C754 H748 0.930 . S
C754 C755 1.355 . S
C754 C756 1.415 . S
C755 C754 1.355 . S
C755 C757 1.419 . S
C756 C754 1.415 . S
C756 C761 1.425 1_565 S
C756 C763 1.409 1_565 S
C757 H749 0.930 . S
C757 C755 1.419 . S
C757 C758 1.362 . S
C758 H750 0.930 . S
C758 C757 1.362 . S
C758 C761 1.409 1_565 S
C759 H751 0.930 . S
C759 C760 1.355 . S
C759 C761 1.415 . S
C760 C759 1.355 . S
C760 C762 1.419 . S
C761 C756 1.425 1_545 S
C761 C758 1.409 1_545 S
C761 C759 1.415 . S
C762 H752 0.930 . S
C762 C760 1.419 . S
C762 C763 1.362 . S
C763 H753 0.930 . S
C763 C756 1.409 1_545 S
C763 C762 1.362 . S
H764 C770 0.930 . S
H765 C773 0.930 . S
H766 C774 0.930 . S
H767 C775 0.930 . S
H768 C778 0.930 . S
H769 C779 0.930 . S
C770 H764 0.930 . S
C770 C771 1.355 . S
C770 C772 1.415 . S
C771 C770 1.355 . S
C771 C773 1.419 . S
C772 C770 1.415 . S
C772 C777 1.425 . S
C772 C779 1.409 . S
C773 H765 0.930 . S
C773 C771 1.419 . S
C773 C774 1.362 . S
C774 H766 0.930 . S
C774 C773 1.362 . S
C774 C777 1.409 . S
C775 H767 0.930 . S
C775 C776 1.355 . S
C775 C777 1.415 . S
C776 C775 1.355 . S
C776 C778 1.419 . S
C777 C772 1.425 . S
C777 C774 1.409 . S
C777 C775 1.415 . S
C778 H768 0.930 . S
C778 C776 1.419 . S
C778 C779 1.362 . S
C779 H769 0.930 . S
C779 C772 1.409 . S
C779 C778 1.362 . S
H780 C786 0.930 . S
H781 C789 0.930 . S
H782 C790 0.930 . S
H783 C791 0.930 . S
H784 C794 0.930 . S
H785 C795 0.930 . S
C786 H780 0.930 . S
C786 C787 1.355 . S
C786 C788 1.415 . S
C787 C786 1.355 . S
C787 C789 1.419 . S
C788 C786 1.415 . S
C788 C793 1.425 . S
C788 C795 1.409 . S
C789 H781 0.930 . S
C789 C787 1.419 . S
C789 C790 1.362 . S
C790 H782 0.930 . S
C790 C789 1.362 . S
C790 C793 1.409 . S
C791 H783 0.930 . S
C791 C792 1.355 . S
C791 C793 1.415 . S
C792 C791 1.355 . S
C792 C794 1.419 . S
C793 C788 1.425 . S
C793 C790 1.409 . S
C793 C791 1.415 . S
C794 H784 0.930 . S
C794 C792 1.419 . S
C794 C795 1.362 . S
C795 H785 0.930 . S
C795 C788 1.409 . S
C795 C794 1.362 . S
H796 C802 0.930 . S
H797 C805 0.930 . S
H798 C806 0.930 . S
H799 C807 0.930 . S
H800 C810 0.930 . S
H801 C811 0.930 . S
C802 H796 0.930 . S
C802 C803 1.355 . S
C802 C804 1.415 . S
C803 C802 1.355 . S
C803 C805 1.419 . S
C804 C802 1.415 . S
C804 C809 1.425 . S
C804 C811 1.409 . S
C805 H797 0.930 . S
C805 C803 1.419 . S
C805 C806 1.362 . S
C806 H798 0.930 . S
C806 C805 1.362 . S
C806 C809 1.409 . S
C807 H799 0.930 . S
C807 C808 1.355 . S
C807 C809 1.415 . S
C808 C807 1.355 . S
C808 C810 1.419 . S
C809 C804 1.425 . S
C809 C806 1.409 . S
C809 C807 1.415 . S
C810 H800 0.930 . S
C810 C808 1.419 . S
C810 C811 1.362 . S
C811 H801 0.930 . S
C811 C804 1.409 . S
C811 C810 1.362 . S
H812 C818 0.930 . S
H813 C821 0.931 1_565 S
H814 C822 0.930 . S
H815 C823 0.930 . S
H816 C826 0.930 . S
H817 C827 0.930 . S
C818 H812 0.930 . S
C818 C819 1.355 . S
C818 C820 1.415 . S
C819 C818 1.355 . S
C819 C821 1.419 . S
C820 C818 1.415 . S
C820 C825 1.425 . S
C820 C827 1.409 . S
C821 H813 0.931 1_545 S
C821 C819 1.419 . S
C821 C822 1.362 . S
C822 H814 0.930 . S
C822 C821 1.362 . S
C822 C825 1.409 . S
C823 H815 0.930 . S
C823 C824 1.355 . S
C823 C825 1.415 . S
C824 C823 1.355 . S
C824 C826 1.419 . S
C825 C820 1.425 . S
C825 C822 1.409 . S
C825 C823 1.415 . S
C826 H816 0.930 . S
C826 C824 1.419 . S
C826 C827 1.362 . S
C827 H817 0.930 . S
C827 C820 1.409 . S
C827 C826 1.362 . S
H828 C834 0.930 . S
H829 C837 0.930 . S
H830 C838 0.930 . S
H831 C839 0.930 . S
H832 C842 0.930 . S
H833 C843 0.930 . S
C834 H828 0.930 . S
C834 C835 1.355 . S
C834 C836 1.415 . S
C835 C834 1.355 . S
C835 C837 1.419 . S
C836 C834 1.415 . S
C836 C841 1.425 . S
C836 C843 1.409 . S
C837 H829 0.930 . S
C837 C835 1.419 . S
C837 C838 1.362 . S
C838 H830 0.930 . S
C838 C837 1.362 . S
C838 C841 1.409 . S
C839 H831 0.930 . S
C839 C840 1.355 . S
C839 C841 1.415 . S
C840 C839 1.355 . S
C840 C842 1.419 . S
C841 C836 1.425 . S
C841 C838 1.409 . S
C841 C839 1.415 . S
C842 H832 0.930 . S
C842 C840 1.419 . S
C842 C843 1.362 . S
C843 H833 0.930 . S
C843 C836 1.409 . S
C843 C842 1.362 . S
H844 C850 0.930 . S
H845 C853 0.930 . S
H846 C854 0.930 . S
H847 C855 0.930 . S
H848 C858 0.930 . S
H849 C859 0.930 . S
C850 H844 0.930 . S
C850 C851 1.355 . S
C850 C852 1.415 . S
C851 C850 1.355 . S
C851 C853 1.419 . S
C852 C850 1.415 . S
C852 C857 1.425 . S
C852 C859 1.409 . S
C853 H845 0.930 . S
C853 C851 1.419 . S
C853 C854 1.362 . S
C854 H846 0.930 . S
C854 C853 1.362 . S
C854 C857 1.409 . S
C855 H847 0.930 . S
C855 C856 1.355 . S
C855 C857 1.415 . S
C856 C855 1.355 . S
C856 C858 1.419 . S
C857 C852 1.425 . S
C857 C854 1.409 . S
C857 C855 1.415 . S
C858 H848 0.930 . S
C858 C856 1.419 . S
C858 C859 1.362 . S
C859 H849 0.930 . S
C859 C852 1.409 . S
C859 C858 1.362 . S
H860 C866 0.930 . S
H861 C869 0.930 . S
H862 C870 0.930 . S
H863 C871 0.930 . S
H864 C874 0.930 1_655 S
H865 C875 0.930 . S
C866 H860 0.930 . S
C866 C867 1.355 . S
C866 C868 1.415 . S
C867 C866 1.355 . S
C867 C869 1.419 . S
C868 C866 1.415 . S
C868 C873 1.425 . S
C868 C875 1.409 . S
C869 H861 0.930 . S
C869 C867 1.419 . S
C869 C870 1.362 . S
C870 H862 0.930 . S
C870 C869 1.362 . S
C870 C873 1.409 . S
C871 H863 0.930 . S
C871 C872 1.355 . S
C871 C873 1.415 . S
C872 C871 1.355 . S
C872 C874 1.419 . S
C873 C868 1.425 . S
C873 C870 1.409 . S
C873 C871 1.415 . S
C874 H864 0.930 1_455 S
C874 C872 1.419 . S
C874 C875 1.362 . S
C875 H865 0.930 . S
C875 C868 1.409 . S
C875 C874 1.362 . S
C403 N311 1.526 . S
C408 N14 1.546 . S
C419 N47 1.549 . S
C424 N344 1.532 . S
C435 N80 1.513 . S
C440 N377 1.501 . S
C451 N113 1.502 . S
C456 N212 1.512 . S
C467 N146 1.540 . S
C472 N245 1.518 . S
C483 N179 1.524 . S
C488 N278 1.545 . S
C499 N335 1.411 . S
C504 N5 1.381 . S
C515 N368 1.410 . S
C520 N38 1.383 . S
C531 N71 1.407 . S
C536 N203 1.361 . S
C547 N236 1.364 . S
C552 N104 1.400 . S
C563 N137 1.388 . S
C568 N269 1.372 . S
C579 N170 1.416 . S
C584 N302 1.361 . S
C595 C116 1.748 . S
C600 C17 1.753 . S
C611 C50 1.733 . S
C616 C149 1.731 . S
C627 C182 1.732 . S
C632 C83 1.730 . S
C643 C314 1.810 . S
C648 C215 1.809 . S
C659 C248 1.808 . S
C664 C347 1.805 . S
C675 C380 1.731 . S
C680 C281 1.733 . S
C691 C28 1.316 . S
C696 C391 1.251 . S
C707 C226 1.305 . S
C712 C61 1.270 . S
C723 C94 1.247 . S
C728 C259 1.323 . S
C739 C127 1.246 . S
C744 C292 1.322 . S
C755 C160 1.318 . S
C760 C325 1.255 . S
C771 C358 1.266 . S
C776 C193 1.308 . S
C787 C8 0.811 . S
C792 C272 0.817 . S
C803 C305 0.817 . S
C808 C41 0.817 . S
C819 C74 0.809 . S
C824 C338 0.816 . S
C835 C371 0.808 . S
C840 C107 0.815 . S
C851 C206 0.807 . S
C856 C140 0.813 . S
C867 C173 0.814 . S
C872 C239 0.807 . S
