# Generated by pormake.
# Topology umf, (4)-cn, num edge types: 1
# Building blocks:
#     Node 0, Type 0, BuildingBlock: NAWXER_clean_sbu_0, # of connection points: 4
#     Node 1, Type 0, BuildingBlock: NAWXER_clean_sbu_0, # of connection points: 4
#     Node 2, Type 0, BuildingBlock: NAWXER_clean_sbu_0, # of connection points: 4
#     Node 3, Type 0, BuildingBlock: NAWXER_clean_sbu_0, # of connection points: 4
#     Node 4, Type 0, BuildingBlock: NAWXER_clean_sbu_0, # of connection points: 4
#     Node 5, Type 0, BuildingBlock: NAWXER_clean_sbu_0, # of connection points: 4
#     Node 6, Type 0, BuildingBlock: NAWXER_clean_sbu_0, # of connection points: 4
#     Node 7, Type 0, BuildingBlock: NAWXER_clean_sbu_0, # of connection points: 4
#     Edge 8, Type (0, 0), BuildingBlock: KIFKEQ_clean_linker_1, # of connection points: 2
#     Edge 9, Type (0, 0), BuildingBlock: KIFKEQ_clean_linker_1, # of connection points: 2
#     Edge 10, Type (0, 0), BuildingBlock: KIFKEQ_clean_linker_1, # of connection points: 2
#     Edge 11, Type (0, 0), BuildingBlock: KIFKEQ_clean_linker_1, # of connection points: 2
#     Edge 12, Type (0, 0), BuildingBlock: KIFKEQ_clean_linker_1, # of connection points: 2
#     Edge 13, Type (0, 0), BuildingBlock: KIFKEQ_clean_linker_1, # of connection points: 2
#     Edge 14, Type (0, 0), BuildingBlock: KIFKEQ_clean_linker_1, # of connection points: 2
#     Edge 15, Type (0, 0), BuildingBlock: KIFKEQ_clean_linker_1, # of connection points: 2
#     Edge 16, Type (0, 0), BuildingBlock: KIFKEQ_clean_linker_1, # of connection points: 2
#     Edge 17, Type (0, 0), BuildingBlock: KIFKEQ_clean_linker_1, # of connection points: 2
#     Edge 18, Type (0, 0), BuildingBlock: KIFKEQ_clean_linker_1, # of connection points: 2
#     Edge 19, Type (0, 0), BuildingBlock: KIFKEQ_clean_linker_1, # of connection points: 2
#     Edge 20, Type (0, 0), BuildingBlock: KIFKEQ_clean_linker_1, # of connection points: 2
#     Edge 21, Type (0, 0), BuildingBlock: KIFKEQ_clean_linker_1, # of connection points: 2
#     Edge 22, Type (0, 0), BuildingBlock: KIFKEQ_clean_linker_1, # of connection points: 2
#     Edge 23, Type (0, 0), BuildingBlock: KIFKEQ_clean_linker_1, # of connection points: 2
# Relax obj value: 0.064
# Max RMSD: 0.167
# Mean RMSD: 0.166
data_MOF--net-umf--node1-NAWXER_clean_sbu_0--edge1-KIFKEQ_clean_linker_1
_symmetry_space_group_name_H-M    P1
_symmetry_Int_Tables_number       1
_symmetry_cell_setting            triclinic
loop_
_symmetry_equiv_pos_as_xyz
'x, y, z'
_cell_length_a     29.739023
_cell_length_b     29.732374
_cell_length_c     53.981744
_cell_angle_alpha  89.978684
_cell_angle_beta   90.036286
_cell_angle_gamma 90.074576
loop_
_atom_site_label
_atom_site_type_symbol
_atom_site_fract_x
_atom_site_fract_y
_atom_site_fract_z
_atom_type_partial_charge
C0 C 0.11125 0.23472 0.19866 0.0
C1 C 0.04279 0.24651 0.11659 0.0
O2 O 0.06814 0.23571 0.19948 0.0
Zn3 Zn 0.01293 0.24067 0.1738 0.0
O4 O 0.13105 0.23787 0.17787 0.0
Zn5 Zn 0.07759 0.24223 0.1576 0.0
O6 O 0.05052 0.30699 0.16723 0.0
O7 O 0.98345 0.29547 0.18343 0.0
O8 O 0.08436 0.24674 0.12207 0.0
O9 O 0.01347 0.24433 0.13397 0.0
O10 O 0.98179 0.18491 0.17948 0.0
O11 O 0.04854 0.17616 0.16231 0.0
C12 C 0.0143 0.32252 0.17688 0.0
C13 C 0.01207 0.15912 0.17092 0.0
C14 C 0.74507 0.1073 0.69948 0.0
C15 C 0.73242 0.04125 0.61688 0.0
O16 O 0.74415 0.06413 0.69998 0.0
Zn17 Zn 0.73917 0.00957 0.67366 0.0
O18 O 0.7416 0.12768 0.67886 0.0
Zn19 Zn 0.73685 0.07486 0.65829 0.0
O20 O 0.67255 0.04746 0.66869 0.0
O21 O 0.68472 0.97875 0.68269 0.0
O22 O 0.73136 0.08262 0.62275 0.0
O23 O 0.73534 0.01148 0.63398 0.0
O24 O 0.79515 0.97876 0.67885 0.0
O25 O 0.80322 0.04627 0.66241 0.0
C26 C 0.65757 0.0103 0.67753 0.0
C27 C 0.82062 0.00963 0.67054 0.0
C28 C 0.96968 0.65845 0.17718 0.0
C29 C 0.97211 0.82183 0.17106 0.0
O30 O 0.93335 0.67402 0.16765 0.0
Zn31 Zn 0.90626 0.7388 0.15808 0.0
O32 O 0.00063 0.68546 0.18363 0.0
Zn33 Zn 0.97111 0.7403 0.17405 0.0
O34 O 0.91625 0.7455 0.19992 0.0
O35 O 0.85309 0.7433 0.1785 0.0
O36 O 0.00246 0.79601 0.17955 0.0
O37 O 0.93549 0.80483 0.1626 0.0
O38 O 0.89894 0.73425 0.12259 0.0
O39 O 0.97001 0.73656 0.13421 0.0
C40 C 0.87313 0.74656 0.19922 0.0
C41 C 0.94042 0.7344 0.11695 0.0
C42 C 0.3211 0.97183 0.67748 0.0
C43 C 0.1581 0.97284 0.67019 0.0
O44 O 0.30609 0.93472 0.66859 0.0
Zn45 Zn 0.24177 0.90747 0.65805 0.0
O46 O 0.29399 0.0034 0.68262 0.0
Zn47 Zn 0.23954 0.9727 0.67344 0.0
O48 O 0.23434 0.91808 0.69974 0.0
O49 O 0.23683 0.8546 0.67858 0.0
O50 O 0.18362 0.00363 0.67852 0.0
O51 O 0.17543 0.93617 0.66207 0.0
O52 O 0.24746 0.89977 0.62255 0.0
O53 O 0.2437 0.97091 0.63376 0.0
C54 C 0.23332 0.87491 0.69921 0.0
C55 C 0.24667 0.94114 0.61667 0.0
C56 C 0.00952 0.82194 0.88389 0.0
C57 C 0.01214 0.65858 0.87749 0.0
O58 O 0.04613 0.80501 0.89235 0.0
Zn59 Zn 0.07543 0.73905 0.89678 0.0
O60 O 0.9792 0.79607 0.87534 0.0
Zn61 Zn 0.01062 0.74044 0.88077 0.0
O62 O 0.01163 0.73651 0.9206 0.0
O63 O 0.08267 0.73431 0.93227 0.0
O64 O 0.9812 0.68556 0.87106 0.0
O65 O 0.04844 0.6742 0.88707 0.0
O66 O 0.12866 0.74404 0.87643 0.0
O67 O 0.06555 0.7462 0.85496 0.0
C68 C 0.04118 0.73434 0.93788 0.0
C69 C 0.10866 0.74749 0.8557 0.0
C70 C 0.16072 0.01092 0.38337 0.0
C71 C 0.32412 0.01299 0.37725 0.0
O72 O 0.17785 0.04743 0.39188 0.0
Zn73 Zn 0.24393 0.07643 0.39647 0.0
O74 O 0.18642 0.98052 0.37484 0.0
Zn75 Zn 0.24228 0.01164 0.3804 0.0
O76 O 0.24608 0.01244 0.42023 0.0
O77 O 0.24855 0.08343 0.43198 0.0
O78 O 0.29706 0.98208 0.37078 0.0
O79 O 0.30861 0.04927 0.38684 0.0
O80 O 0.23957 0.12977 0.37612 0.0
O81 O 0.23728 0.06672 0.35462 0.0
C82 C 0.24832 0.0419 0.43755 0.0
C83 C 0.23633 0.10984 0.35537 0.0
C84 C 0.96974 0.15914 0.88383 0.0
C85 C 0.96716 0.32253 0.87752 0.0
O86 O 0.93327 0.17609 0.89243 0.0
Zn87 Zn 0.90408 0.24205 0.897 0.0
O88 O -4e-05 0.185 0.87518 0.0
Zn89 Zn 0.96869 0.24066 0.88075 0.0
O90 O 0.96824 0.24448 0.92058 0.0
O91 O 0.89738 0.24668 0.93252 0.0
O92 O -0.00199 0.29556 0.87098 0.0
O93 O 0.93099 0.3069 0.88722 0.0
O94 O 0.85057 0.23716 0.87679 0.0
O95 O 0.91342 0.2351 0.85513 0.0
C96 C 0.93896 0.24661 0.93797 0.0
C97 C 0.87032 0.23383 0.856 0.0
C98 C 0.82338 0.9717 0.38376 0.0
C99 C 0.66003 0.96905 0.37728 0.0
O100 O 0.80635 0.93515 0.39229 0.0
Zn101 Zn 0.74034 0.90594 0.39677 0.0
O102 O 0.7976 0.002 0.37517 0.0
Zn103 Zn 0.74184 0.97068 0.38063 0.0
O104 O 0.73765 0.96998 0.42046 0.0
O105 O 0.73549 0.899 0.43226 0.0
O106 O 0.68703 2e-05 0.37081 0.0
O107 O 0.67561 0.93284 0.38695 0.0
O108 O 0.74502 0.85255 0.37652 0.0
O109 O 0.7472 0.91554 0.35493 0.0
C110 C 0.73538 0.94054 0.43779 0.0
C111 C 0.74831 0.87242 0.35574 0.0
H112 H 0.94062 0.36759 0.19444 0.0
H113 H 0.07441 0.38883 0.16541 0.0
H114 H 0.9299 0.44882 0.1971 0.0
H115 H 0.06336 0.4698 0.16769 0.0
H116 H 0.04362 0.61327 0.19441 0.0
H117 H 0.05437 0.53202 0.1969 0.0
H118 H 0.92043 0.51122 0.16804 0.0
H119 H 0.90935 0.59221 0.16593 0.0
C120 C 0.96778 0.38954 0.18871 0.0
C121 C 0.00829 0.3717 0.17962 0.0
C122 C 0.96155 0.43607 0.19012 0.0
C123 C -0.00427 0.46577 0.18254 0.0
C124 C 0.03656 0.44788 0.17395 0.0
C125 C 0.04276 0.40141 0.17249 0.0
C126 C 0.01636 0.59136 0.18876 0.0
C127 C 0.9757 0.60926 0.17987 0.0
C128 C 0.02261 0.54481 0.19008 0.0
C129 C 0.9883 0.51517 0.1826 0.0
C130 C 0.94733 0.53311 0.17422 0.0
C131 C 0.94111 0.57959 0.17286 0.0
H132 H 0.36926 0.04871 0.67108 0.0
H133 H 0.38265 0.90888 0.69095 0.0
H134 H 0.45045 0.0576 0.67261 0.0
H135 H 0.4637 0.91813 0.69463 0.0
H136 H 0.60941 0.93344 0.67098 0.0
H137 H 0.52822 0.92452 0.6725 0.0
H138 H 0.51501 0.06384 0.69476 0.0
H139 H 0.59604 0.07313 0.69108 0.0
C140 C 0.38972 0.02013 0.67635 0.0
C141 C 0.36989 0.97809 0.68076 0.0
C142 C 0.4364 0.02519 0.67744 0.0
C143 C 0.46431 0.98858 0.68369 0.0
C144 C 0.44387 0.9469 0.68906 0.0
C145 C 0.39729 0.94157 0.68721 0.0
C146 C 0.58896 0.96198 0.67629 0.0
C147 C 0.60879 0.00399 0.68077 0.0
C148 C 0.54228 0.9569 0.67738 0.0
C149 C 0.51438 -0.00653 0.6837 0.0
C150 C 0.53483 0.03511 0.68913 0.0
C151 C 0.5814 0.04046 0.68729 0.0
H152 H 0.04088 0.36779 0.85996 0.0
H153 H 0.90707 0.38872 0.88896 0.0
H154 H 0.05169 0.44904 0.85737 0.0
H155 H 0.91822 0.46973 0.88674 0.0
H156 H 0.93819 0.61336 0.86018 0.0
H157 H 0.92734 0.53211 0.85761 0.0
H158 H 0.06123 0.51136 0.88647 0.0
H159 H 0.07241 0.59237 0.88867 0.0
C160 C 0.01372 0.38967 0.8657 0.0
C161 C 0.97318 0.37173 0.87476 0.0
C162 C 0.02002 0.43623 0.86433 0.0
C163 C 0.98587 0.46585 0.87192 0.0
C164 C 0.945 0.44787 0.88047 0.0
C165 C 0.93874 0.40138 0.88189 0.0
C166 C 0.96543 0.59146 0.86581 0.0
C167 C 0.0061 0.60939 0.87473 0.0
C168 C 0.95911 0.54491 0.86445 0.0
C169 C -0.00663 0.51527 0.87191 0.0
C170 C 0.03437 0.53324 0.88031 0.0
C171 C 0.04064 0.57973 0.88172 0.0
H172 H 0.39034 0.07333 0.38849 0.0
H173 H 0.36927 0.93918 0.35987 0.0
H174 H 0.4713 0.0624 0.38621 0.0
H175 H 0.45051 0.92857 0.35721 0.0
H176 H 0.59391 0.90863 0.38855 0.0
H177 H 0.51293 0.91949 0.38628 0.0
H178 H 0.53352 0.05324 0.35708 0.0
H179 H 0.61477 0.04271 0.35973 0.0
C180 C 0.40295 0.04162 0.38149 0.0
C181 C 0.37329 0.00702 0.37449 0.0
C182 C 0.44942 0.03549 0.38003 0.0
C183 C 0.46736 -0.0054 0.37156 0.0
C184 C 0.43772 0.96028 0.3641 0.0
C185 C 0.39117 0.96644 0.36551 0.0
C186 C 0.58125 0.9403 0.3815 0.0
C187 C 0.61086 0.97491 0.37445 0.0
C188 C 0.53477 0.94639 0.38005 0.0
C189 C 0.51677 0.98725 0.37154 0.0
C190 C 0.54636 0.02156 0.36401 0.0
C191 C 0.59291 0.01543 0.36541 0.0
H192 H 0.88994 0.27003 0.97895 0.0
H193 H 0.0221 0.2266 0.95615 0.0
H194 H 0.9153 0.27266 1.02188 0.0
H195 H 0.04696 0.22713 0.99903 0.0
H196 H 0.09186 0.27015 0.07564 0.0
H197 H 0.06653 0.27286 0.0327 0.0
H198 H 0.93489 0.2268 0.05548 0.0
H199 H 0.95971 0.22619 0.09837 0.0
C200 C 0.92432 0.26073 0.98314 0.0
C201 C 0.95398 0.24817 0.96414 0.0
C202 C 0.93887 0.26195 1.0078 0.0
C203 C 0.98328 0.25003 1.01409 0.0
C204 C 0.01282 0.2374 0.99498 0.0
C205 C -0.00155 0.23678 0.97033 0.0
C206 C 0.05749 0.26074 0.07143 0.0
C207 C 0.02782 0.24802 0.09042 0.0
C208 C 0.04296 0.26202 0.04677 0.0
C209 C -0.00144 0.24998 0.04046 0.0
C210 C 0.96901 0.23716 0.05955 0.0
C211 C 0.98337 0.23649 0.0842 0.0
H212 H 0.75386 0.95899 0.59816 0.0
H213 H 0.70852 0.09104 0.57616 0.0
H214 H 0.75388 0.93513 0.55515 0.0
H215 H 0.7065 0.06661 0.53302 0.0
H216 H 0.75422 0.02381 0.45631 0.0
H217 H 0.75275 0.04815 0.49928 0.0
H218 H 0.70822 0.91561 0.52147 0.0
H219 H 0.71176 0.89081 0.47849 0.0
C220 C 0.74337 0.98283 0.58412 0.0
C221 C 0.73124 0.02697 0.59059 0.0
C222 C 0.74307 0.96901 0.5594 0.0
C223 C 0.73004 -0.00123 0.54045 0.0
C224 C 0.71746 0.04289 0.54699 0.0
C225 C 0.71835 0.0569 0.57176 0.0
C226 C 0.74408 -0.00014 0.47037 0.0
C227 C 0.73327 0.9553 0.46398 0.0
C228 C 0.74291 0.01393 0.49506 0.0
C229 C 0.73033 0.98396 0.51402 0.0
C230 C 0.7189 0.93949 0.50751 0.0
C231 C 0.72066 0.92526 0.48282 0.0
H232 H 0.89065 0.71074 0.07624 0.0
H233 H 0.02322 0.75458 0.09836 0.0
H234 H 0.91524 0.70799 0.03319 0.0
H235 H 0.0473 0.75394 0.05536 0.0
H236 H 0.09087 0.71079 0.97862 0.0
H237 H 0.06626 0.7081 1.02167 0.0
H238 H 0.93423 0.75373 0.99943 0.0
H239 H 0.95834 0.75431 0.95643 0.0
C240 C 0.92496 0.72011 0.07188 0.0
C241 C 0.95497 0.73282 0.09072 0.0
C242 C 0.93906 0.71882 0.04715 0.0
C243 C 0.98336 0.73082 0.04063 0.0
C244 C 0.01324 0.74361 0.05959 0.0
C245 C -0.00068 0.7443 0.0843 0.0
C246 C 0.05657 0.7201 0.98297 0.0
C247 C 0.02658 0.73271 0.96411 0.0
C248 C 0.04245 0.71884 1.00769 0.0
C249 C -0.00184 0.73078 1.0142 0.0
C250 C 0.96829 0.74345 0.99522 0.0
C251 C 0.98223 0.7441 0.9705 0.0
H252 H 0.22866 0.95875 0.45596 0.0
H253 H 0.27136 0.09153 0.47839 0.0
H254 H 0.22895 0.93445 0.49896 0.0
H255 H 0.2737 0.06675 0.52142 0.0
H256 H 0.226 0.02354 0.59779 0.0
H257 H 0.22713 0.04745 0.55477 0.0
H258 H 0.27431 0.91574 0.53303 0.0
H259 H 0.27113 0.89127 0.57614 0.0
C260 C 0.23862 0.98266 0.47008 0.0
C261 C 0.24984 0.02714 0.46376 0.0
C262 C 0.2391 0.9686 0.49479 0.0
C263 C 0.25139 -0.00149 0.51383 0.0
C264 C 0.26324 0.04291 0.50739 0.0
C265 C 0.26217 0.05713 0.48268 0.0
C266 C 0.23666 -0.00035 0.58383 0.0
C267 C 0.24841 0.95545 0.59039 0.0
C268 C 0.23764 0.0135 0.55911 0.0
C269 C 0.25096 0.98369 0.54027 0.0
C270 C 0.26313 0.9395 0.54691 0.0
C271 C 0.26158 0.92547 0.57166 0.0
H272 H 0.19852 0.20631 0.20335 0.0
H273 H 0.08169 0.24369 0.24616 0.0
H274 H 0.23668 0.18287 0.24141 0.0
H275 H 0.11974 0.22037 0.28399 0.0
H276 H 0.2084 0.19725 0.35055 0.0
H277 H 0.18498 0.23533 0.31247 0.0
H278 H 0.22152 0.11787 0.27004 0.0
H279 H 0.24483 0.0799 0.3079 0.0
C280 C 0.18131 0.21032 0.22089 0.0
C281 C 0.13694 0.22648 0.22172 0.0
C282 C 0.20308 0.19671 0.24264 0.0
C283 C 0.18113 0.19961 0.26566 0.0
C284 C 0.13772 0.21809 0.26659 0.0
C285 C 0.11579 0.23116 0.24486 0.0
C286 C 0.2122 0.17991 0.33304 0.0
C287 C 0.22809 0.13542 0.33226 0.0
C288 C 0.1986 0.20163 0.31127 0.0
C289 C 0.20124 0.17951 0.28829 0.0
C290 C 0.21945 0.13597 0.28741 0.0
C291 C 0.2325 0.1141 0.30915 0.0
H292 H 0.89932 0.24323 0.80843 0.0
H293 H 0.7836 0.20348 0.85158 0.0
H294 H 0.86139 0.21896 0.77072 0.0
H295 H 0.74558 0.17902 0.81366 0.0
H296 H 0.7384 0.07632 0.74691 0.0
H297 H 0.7618 0.11427 0.7848 0.0
H298 H 0.79526 0.23306 0.7426 0.0
H299 H 0.77174 0.19508 0.70453 0.0
C300 C 0.86548 0.22995 0.80982 0.0
C301 C 0.8446 0.22496 0.83302 0.0
C302 C 0.84363 0.21632 0.78817 0.0
C303 C 0.80058 0.19692 0.78924 0.0
C304 C 0.77889 0.19358 0.81232 0.0
C305 C 0.80057 0.20779 0.83399 0.0
C306 C 0.75008 0.11078 0.74572 0.0
C307 C 0.75357 0.13255 0.72268 0.0
C308 C 0.76319 0.13262 0.76747 0.0
C309 C 0.78054 0.17657 0.76665 0.0
C310 C 0.78232 0.19905 0.74375 0.0
C311 C 0.76867 0.17737 0.72199 0.0
H312 H 0.73976 0.90206 0.30821 0.0
H313 H 0.77682 0.78517 0.35115 0.0
H314 H 0.76323 0.86396 0.27044 0.0
H315 H 0.80041 0.74697 0.31317 0.0
H316 H 0.78584 0.77476 0.20403 0.0
H317 H 0.74799 0.79853 0.24207 0.0
H318 H 0.8655 0.76203 0.28453 0.0
H319 H 0.90327 0.73837 0.2467 0.0
C320 C 0.75227 0.86794 0.30955 0.0
C321 C 0.75678 0.84677 0.33271 0.0
C322 C 0.76542 0.84599 0.28786 0.0
C323 C 0.78382 0.80254 0.28885 0.0
C324 C 0.78663 0.7806 0.31189 0.0
C325 C 0.77293 0.80238 0.3336 0.0
C326 C 0.80325 0.77105 0.22154 0.0
C327 C 0.84769 0.75504 0.22233 0.0
C328 C 0.78166 0.78485 0.24328 0.0
C329 C 0.80385 0.78232 0.26625 0.0
C330 C 0.84735 0.76402 0.26716 0.0
C331 C 0.8691 0.75076 0.24543 0.0
H332 H 0.20619 0.78725 0.70413 0.0
H333 H 0.24014 0.90562 0.74667 0.0
H334 H 0.18262 0.74914 0.74215 0.0
H335 H 0.21671 0.86753 0.78451 0.0
H336 H 0.07905 0.73877 0.80817 0.0
H337 H 0.11668 0.76333 0.77043 0.0
H338 H 0.23308 0.80239 0.81318 0.0
H339 H 0.1954 0.77764 0.85113 0.0
C340 C 0.20938 0.80485 0.72161 0.0
C341 C 0.22469 0.84959 0.72236 0.0
C342 C 0.1957 0.78309 0.74335 0.0
C343 C 0.19767 0.80541 0.76628 0.0
C344 C 0.21517 0.8493 0.76716 0.0
C345 C 0.22831 0.87122 0.74544 0.0
C346 C 0.11296 0.75192 0.80951 0.0
C347 C 0.13412 0.75657 0.83267 0.0
C348 C 0.13462 0.76572 0.78785 0.0
C349 C 0.17775 0.78495 0.78886 0.0
C350 C 0.1997 0.78796 0.81189 0.0
C351 C 0.17821 0.77359 0.83357 0.0
H352 H 0.07227 0.09518 0.1563 0.0
H353 H 0.93817 0.11115 0.18586 0.0
H354 H 0.06265 0.01384 0.15648 0.0
H355 H 0.92886 0.02957 0.18632 0.0
H356 H 0.91181 0.88582 0.15658 0.0
H357 H 0.92149 0.96714 0.15668 0.0
H358 H 0.05564 0.95132 0.18612 0.0
H359 H 0.04627 0.86974 0.18573 0.0
C360 C 0.04075 0.08137 0.16289 0.0
C361 C 0.00594 0.1097 0.17104 0.0
C362 C 0.03539 0.0347 0.16313 0.0
C363 C -0.00495 0.01527 0.17145 0.0
C364 C 0.96018 0.04357 0.17956 0.0
C365 C 0.9656 0.09029 0.17941 0.0
C366 C 0.94343 0.8996 0.16306 0.0
C367 C 0.97831 0.87124 0.17112 0.0
C368 C 0.94883 0.94626 0.16327 0.0
C369 C 0.98928 0.96566 0.17145 0.0
C370 C 0.02423 0.93734 0.17946 0.0
C371 C 0.01878 0.89062 0.17934 0.0
H372 H 0.09462 0.91199 0.65549 0.0
H373 H 0.10963 0.04654 0.68471 0.0
H374 H 0.01323 0.92089 0.65552 0.0
H375 H 0.02803 0.05511 0.68505 0.0
H376 H 0.88395 0.07059 0.65583 0.0
H377 H 0.96533 0.06171 0.65566 0.0
H378 H 0.95086 0.92736 0.6851 0.0
H379 H 0.86925 0.93591 0.68496 0.0
C380 C 0.08058 0.94347 0.66196 0.0
C381 C 0.10866 0.9786 0.67008 0.0
C382 C 0.0339 0.94842 0.66213 0.0
C383 C 0.01418 0.98865 0.67033 0.0
C384 C 0.04223 0.02386 0.67837 0.0
C385 C 0.08898 0.01887 0.67828 0.0
C386 C 0.89805 0.03909 0.66225 0.0
C387 C 0.87006 0.00392 0.67039 0.0
C388 C 0.94474 0.03415 0.66229 0.0
C389 C 0.96454 -0.00612 0.67041 0.0
C390 C 0.93658 0.95864 0.67849 0.0
C391 C 0.88983 0.96362 0.67852 0.0
H392 H 0.04364 0.11131 0.86894 0.0
H393 H 0.90958 0.0951 0.89858 0.0
H394 H 0.05291 0.02975 0.86857 0.0
H395 H 0.91916 0.01379 0.89848 0.0
H396 H 0.93537 0.86973 0.86926 0.0
H397 H 0.92607 0.95129 0.86884 0.0
H398 H 0.06025 0.96733 0.89826 0.0
H399 H 0.06985 0.88602 0.89839 0.0
C400 C 0.01622 0.09041 0.87543 0.0
C401 C 0.97589 0.10975 0.88379 0.0
C402 C 0.02161 0.0437 0.87533 0.0
C403 C 0.98674 0.01534 0.88348 0.0
C404 C 0.94643 0.0347 0.8918 0.0
C405 C 0.94109 0.08135 0.89199 0.0
C406 C 0.96288 0.89065 0.87563 0.0
C407 C 0.00333 0.87133 0.88386 0.0
C408 C 0.95747 0.93736 0.8755 0.0
C409 C -0.00754 0.96574 0.8835 0.0
C410 C 0.03289 0.9464 0.89169 0.0
C411 C 0.03824 0.89975 0.89191 0.0
H412 H 0.88728 0.91142 0.39839 0.0
H413 H 0.8714 0.04567 0.36891 0.0
H414 H 0.96861 0.9209 0.39816 0.0
H415 H 0.95298 0.05485 0.36839 0.0
H416 H 0.097 0.0714 0.39791 0.0
H417 H 0.01567 0.06197 0.3979 0.0
H418 H 0.03091 0.92783 0.36841 0.0
H419 H 0.1125 0.93695 0.3687 0.0
C420 C 0.90111 0.94296 0.39182 0.0
C421 C 0.87279 0.97784 0.38369 0.0
C422 C 0.94777 0.94824 0.39153 0.0
C423 C 0.96723 0.98856 0.38321 0.0
C424 C 0.93896 0.02353 0.37515 0.0
C425 C 0.89223 0.01819 0.37534 0.0
C426 C 0.08309 0.03984 0.39144 0.0
C427 C 0.1113 0.00488 0.38333 0.0
C428 C 0.03642 0.03458 0.39128 0.0
C429 C 0.01685 -0.0058 0.38312 0.0
C430 C 0.04502 0.95919 0.37506 0.0
C431 C 0.09175 0.96449 0.37511 0.0
loop_
_geom_bond_atom_site_label_1
_geom_bond_atom_site_label_2
_geom_bond_distance
_geom_bond_site_symmetry_2
_ccdc_geom_bond_type
C0 O2 1.247 . S
C0 O4 1.258 . S
C1 O8 1.247 . S
C1 O9 1.258 . S
O2 C0 1.247 . S
O2 Zn3 2.028 . S
Zn3 O2 2.028 . S
Zn3 O7 2.035 . S
Zn3 O9 2.035 . S
Zn3 O10 2.028 . S
O4 C0 1.258 . S
O4 Zn5 2.035 . S
Zn5 O4 2.035 . S
Zn5 O6 2.028 . S
Zn5 O8 2.028 . S
Zn5 O11 2.035 . S
O6 Zn5 2.028 . S
O6 C12 1.247 . S
O7 Zn3 2.035 . S
O7 C12 1.258 . S
O8 C1 1.247 . S
O8 Zn5 2.028 . S
O9 C1 1.258 . S
O9 Zn3 2.035 . S
O10 Zn3 2.028 . S
O10 C13 1.247 . S
O11 Zn5 2.035 . S
O11 C13 1.258 . S
C12 O6 1.247 . S
C12 O7 1.258 . S
C13 O10 1.247 . S
C13 O11 1.258 . S
C14 O16 1.247 . S
C14 O18 1.258 . S
C15 O22 1.247 . S
C15 O23 1.258 . S
O16 C14 1.247 . S
O16 Zn17 2.028 . S
Zn17 O16 2.028 . S
Zn17 O21 2.035 . S
Zn17 O23 2.035 . S
Zn17 O24 2.028 . S
O18 C14 1.258 . S
O18 Zn19 2.035 . S
Zn19 O18 2.035 . S
Zn19 O20 2.028 . S
Zn19 O22 2.028 . S
Zn19 O25 2.035 . S
O20 Zn19 2.028 . S
O20 C26 1.247 . S
O21 Zn17 2.035 . S
O21 C26 1.258 . S
O22 C15 1.247 . S
O22 Zn19 2.028 . S
O23 C15 1.258 . S
O23 Zn17 2.035 . S
O24 Zn17 2.028 . S
O24 C27 1.247 . S
O25 Zn19 2.035 . S
O25 C27 1.258 . S
C26 O20 1.247 . S
C26 O21 1.258 . S
C27 O24 1.247 . S
C27 O25 1.258 . S
C28 O30 1.247 . S
C28 O32 1.258 . S
C29 O36 1.247 . S
C29 O37 1.258 . S
O30 C28 1.247 . S
O30 Zn31 2.028 . S
Zn31 O30 2.028 . S
Zn31 O35 2.035 . S
Zn31 O37 2.035 . S
Zn31 O38 2.028 . S
O32 C28 1.258 . S
O32 Zn33 2.035 . S
Zn33 O32 2.035 . S
Zn33 O34 2.028 . S
Zn33 O36 2.028 . S
Zn33 O39 2.035 . S
O34 Zn33 2.028 . S
O34 C40 1.247 . S
O35 Zn31 2.035 . S
O35 C40 1.258 . S
O36 C29 1.247 . S
O36 Zn33 2.028 . S
O37 C29 1.258 . S
O37 Zn31 2.035 . S
O38 Zn31 2.028 . S
O38 C41 1.247 . S
O39 Zn33 2.035 . S
O39 C41 1.258 . S
C40 O34 1.247 . S
C40 O35 1.258 . S
C41 O38 1.247 . S
C41 O39 1.258 . S
C42 O44 1.247 . S
C42 O46 1.258 . S
C43 O50 1.247 . S
C43 O51 1.258 . S
O44 C42 1.247 . S
O44 Zn45 2.028 . S
Zn45 O44 2.028 . S
Zn45 O49 2.035 . S
Zn45 O51 2.035 . S
Zn45 O52 2.028 . S
O46 C42 1.258 . S
O46 Zn47 2.035 . S
Zn47 O46 2.035 . S
Zn47 O48 2.028 . S
Zn47 O50 2.028 . S
Zn47 O53 2.035 . S
O48 Zn47 2.028 . S
O48 C54 1.247 . S
O49 Zn45 2.035 . S
O49 C54 1.258 . S
O50 C43 1.247 . S
O50 Zn47 2.028 . S
O51 C43 1.258 . S
O51 Zn45 2.035 . S
O52 Zn45 2.028 . S
O52 C55 1.247 . S
O53 Zn47 2.035 . S
O53 C55 1.258 . S
C54 O48 1.247 . S
C54 O49 1.258 . S
C55 O52 1.247 . S
C55 O53 1.258 . S
C56 O58 1.247 . S
C56 O60 1.258 . S
C57 O64 1.247 . S
C57 O65 1.258 . S
O58 C56 1.247 . S
O58 Zn59 2.028 . S
Zn59 O58 2.028 . S
Zn59 O63 2.035 . S
Zn59 O65 2.035 . S
Zn59 O66 2.028 . S
O60 C56 1.258 . S
O60 Zn61 2.035 . S
Zn61 O60 2.035 . S
Zn61 O62 2.028 . S
Zn61 O64 2.028 . S
Zn61 O67 2.035 . S
O62 Zn61 2.028 . S
O62 C68 1.247 . S
O63 Zn59 2.035 . S
O63 C68 1.258 . S
O64 C57 1.247 . S
O64 Zn61 2.028 . S
O65 C57 1.258 . S
O65 Zn59 2.035 . S
O66 Zn59 2.028 . S
O66 C69 1.247 . S
O67 Zn61 2.035 . S
O67 C69 1.258 . S
C68 O62 1.247 . S
C68 O63 1.258 . S
C69 O66 1.247 . S
C69 O67 1.258 . S
C70 O72 1.247 . S
C70 O74 1.258 . S
C71 O78 1.247 . S
C71 O79 1.258 . S
O72 C70 1.247 . S
O72 Zn73 2.028 . S
Zn73 O72 2.028 . S
Zn73 O77 2.035 . S
Zn73 O79 2.035 . S
Zn73 O80 2.028 . S
O74 C70 1.258 . S
O74 Zn75 2.035 . S
Zn75 O74 2.035 . S
Zn75 O76 2.028 . S
Zn75 O78 2.028 . S
Zn75 O81 2.035 . S
O76 Zn75 2.028 . S
O76 C82 1.247 . S
O77 Zn73 2.035 . S
O77 C82 1.258 . S
O78 C71 1.247 . S
O78 Zn75 2.028 . S
O79 C71 1.258 . S
O79 Zn73 2.035 . S
O80 Zn73 2.028 . S
O80 C83 1.247 . S
O81 Zn75 2.035 . S
O81 C83 1.258 . S
C82 O76 1.247 . S
C82 O77 1.258 . S
C83 O80 1.247 . S
C83 O81 1.258 . S
C84 O86 1.247 . S
C84 O88 1.258 . S
C85 O92 1.247 . S
C85 O93 1.258 . S
O86 C84 1.247 . S
O86 Zn87 2.028 . S
Zn87 O86 2.028 . S
Zn87 O91 2.035 . S
Zn87 O93 2.035 . S
Zn87 O94 2.028 . S
O88 C84 1.258 . S
O88 Zn89 2.035 . S
Zn89 O88 2.035 . S
Zn89 O90 2.028 . S
Zn89 O92 2.028 . S
Zn89 O95 2.035 . S
O90 Zn89 2.028 . S
O90 C96 1.247 . S
O91 Zn87 2.035 . S
O91 C96 1.258 . S
O92 C85 1.247 . S
O92 Zn89 2.028 . S
O93 C85 1.258 . S
O93 Zn87 2.035 . S
O94 Zn87 2.028 . S
O94 C97 1.247 . S
O95 Zn89 2.035 . S
O95 C97 1.258 . S
C96 O90 1.247 . S
C96 O91 1.258 . S
C97 O94 1.247 . S
C97 O95 1.258 . S
C98 O100 1.247 . S
C98 O102 1.258 . S
C99 O106 1.247 . S
C99 O107 1.258 . S
O100 C98 1.247 . S
O100 Zn101 2.028 . S
Zn101 O100 2.028 . S
Zn101 O105 2.035 . S
Zn101 O107 2.035 . S
Zn101 O108 2.028 . S
O102 C98 1.258 . S
O102 Zn103 2.035 . S
Zn103 O102 2.035 . S
Zn103 O104 2.028 . S
Zn103 O106 2.028 . S
Zn103 O109 2.035 . S
O104 Zn103 2.028 . S
O104 C110 1.247 . S
O105 Zn101 2.035 . S
O105 C110 1.258 . S
O106 C99 1.247 . S
O106 Zn103 2.028 . S
O107 C99 1.258 . S
O107 Zn101 2.035 . S
O108 Zn101 2.028 . S
O108 C111 1.247 . S
O109 Zn103 2.035 . S
O109 C111 1.258 . S
C110 O104 1.247 . S
C110 O105 1.258 . S
C111 O108 1.247 . S
C111 O109 1.258 . S
H112 C120 0.950 . S
H113 C125 0.950 . S
H114 C122 0.950 . S
H115 C124 0.950 . S
H116 C126 0.950 . S
H117 C128 0.950 . S
H118 C130 0.950 . S
H119 C131 0.950 . S
C120 H112 0.950 . S
C120 C121 1.386 . S
C120 C122 1.391 . S
C121 C120 1.386 . S
C121 C125 1.393 . S
C122 H114 0.950 . S
C122 C120 1.391 . S
C122 C123 1.400 . S
C123 C122 1.400 . S
C123 C124 1.398 . S
C123 C129 1.491 1_455 S
C124 H115 0.950 . S
C124 C123 1.398 . S
C124 C125 1.391 . S
C125 H113 0.950 . S
C125 C121 1.393 . S
C125 C124 1.391 . S
C126 H116 0.950 . S
C126 C127 1.386 . S
C126 C128 1.391 . S
C127 C126 1.386 . S
C127 C131 1.393 . S
C128 H117 0.950 . S
C128 C126 1.391 . S
C128 C129 1.400 . S
C129 C123 1.491 1_655 S
C129 C128 1.400 . S
C129 C130 1.398 . S
C130 H118 0.950 . S
C130 C129 1.398 . S
C130 C131 1.391 . S
C131 H119 0.950 . S
C131 C127 1.393 . S
C131 C130 1.391 . S
H132 C140 0.950 1_545 S
H133 C145 0.950 . S
H134 C142 0.950 . S
H135 C144 0.950 . S
H136 C146 0.950 1_565 S
H137 C148 0.950 . S
H138 C150 0.950 . S
H139 C151 0.950 . S
C140 H132 0.950 1_565 S
C140 C141 1.386 . S
C140 C142 1.391 1_565 S
C141 C140 1.386 . S
C141 C145 1.393 . S
C142 H134 0.950 . S
C142 C140 1.391 1_545 S
C142 C143 1.400 1_545 S
C143 C142 1.400 1_565 S
C143 C144 1.398 . S
C143 C149 1.491 1_565 S
C144 H135 0.950 . S
C144 C143 1.398 . S
C144 C145 1.391 . S
C145 H133 0.950 . S
C145 C141 1.393 . S
C145 C144 1.391 . S
C146 H136 0.950 1_545 S
C146 C147 1.386 . S
C146 C148 1.391 1_545 S
C147 C146 1.386 . S
C147 C151 1.393 . S
C148 H137 0.950 . S
C148 C146 1.391 1_565 S
C148 C149 1.400 1_565 S
C149 C143 1.491 1_545 S
C149 C148 1.400 1_545 S
C149 C150 1.398 . S
C150 H138 0.950 . S
C150 C149 1.398 . S
C150 C151 1.391 . S
C151 H139 0.950 . S
C151 C147 1.393 . S
C151 C150 1.391 . S
H152 C160 0.950 . S
H153 C165 0.950 . S
H154 C162 0.950 1_455 S
H155 C164 0.950 . S
H156 C166 0.950 . S
H157 C168 0.950 1_655 S
H158 C170 0.950 . S
H159 C171 0.950 . S
C160 H152 0.950 . S
C160 C161 1.386 . S
C160 C162 1.391 . S
C161 C160 1.386 . S
C161 C165 1.393 . S
C162 H154 0.950 1_655 S
C162 C160 1.391 . S
C162 C163 1.400 . S
C163 C162 1.400 . S
C163 C164 1.398 . S
C163 C169 1.491 1_655 S
C164 H155 0.950 . S
C164 C163 1.398 . S
C164 C165 1.391 . S
C165 H153 0.950 . S
C165 C161 1.393 . S
C165 C164 1.391 . S
C166 H156 0.950 . S
C166 C167 1.386 . S
C166 C168 1.391 . S
C167 C166 1.386 . S
C167 C171 1.393 . S
C168 H157 0.950 1_455 S
C168 C166 1.391 . S
C168 C169 1.400 . S
C169 C163 1.491 1_455 S
C169 C168 1.400 . S
C169 C170 1.398 . S
C170 H158 0.950 . S
C170 C169 1.398 . S
C170 C171 1.391 . S
C171 H159 0.950 . S
C171 C167 1.393 . S
C171 C170 1.391 . S
H172 C180 0.950 . S
H173 C185 0.950 1_565 S
H174 C182 0.950 . S
H175 C184 0.950 . S
H176 C186 0.950 . S
H177 C188 0.950 . S
H178 C190 0.950 . S
H179 C191 0.950 1_545 S
C180 H172 0.950 . S
C180 C181 1.386 . S
C180 C182 1.391 . S
C181 C180 1.386 . S
C181 C185 1.393 . S
C182 H174 0.950 . S
C182 C180 1.391 . S
C182 C183 1.400 . S
C183 C182 1.400 . S
C183 C184 1.398 1_545 S
C183 C189 1.491 1_545 S
C184 H175 0.950 . S
C184 C183 1.398 1_565 S
C184 C185 1.391 1_565 S
C185 H173 0.950 1_545 S
C185 C181 1.393 . S
C185 C184 1.391 1_545 S
C186 H176 0.950 . S
C186 C187 1.386 . S
C186 C188 1.391 . S
C187 C186 1.386 . S
C187 C191 1.393 . S
C188 H177 0.950 . S
C188 C186 1.391 . S
C188 C189 1.400 . S
C189 C183 1.491 1_565 S
C189 C188 1.400 . S
C189 C190 1.398 1_565 S
C190 H178 0.950 . S
C190 C189 1.398 1_545 S
C190 C191 1.391 1_545 S
C191 H179 0.950 1_565 S
C191 C187 1.393 . S
C191 C190 1.391 1_565 S
H192 C200 0.950 . S
H193 C205 0.950 . S
H194 C202 0.950 . S
H195 C204 0.950 . S
H196 C206 0.950 . S
H197 C208 0.950 . S
H198 C210 0.950 . S
H199 C211 0.950 . S
C200 H192 0.950 . S
C200 C201 1.386 . S
C200 C202 1.391 . S
C201 C200 1.386 . S
C201 C205 1.393 1_655 S
C202 H194 0.950 . S
C202 C200 1.391 . S
C202 C203 1.400 . S
C203 C202 1.400 . S
C203 C204 1.398 1_655 S
C203 C209 1.491 1_656 S
C204 H195 0.950 . S
C204 C203 1.398 1_455 S
C204 C205 1.391 . S
C205 H193 0.950 . S
C205 C201 1.393 1_455 S
C205 C204 1.391 . S
C206 H196 0.950 . S
C206 C207 1.386 . S
C206 C208 1.391 . S
C207 C206 1.386 . S
C207 C211 1.393 1_455 S
C208 H197 0.950 . S
C208 C206 1.391 . S
C208 C209 1.400 . S
C209 C203 1.491 1_454 S
C209 C208 1.400 . S
C209 C210 1.398 1_455 S
C210 H198 0.950 . S
C210 C209 1.398 1_655 S
C210 C211 1.391 . S
C211 H199 0.950 . S
C211 C207 1.393 1_655 S
C211 C210 1.391 . S
H212 C220 0.950 . S
H213 C225 0.950 . S
H214 C222 0.950 . S
H215 C224 0.950 . S
H216 C226 0.950 . S
H217 C228 0.950 . S
H218 C230 0.950 . S
H219 C231 0.950 . S
C220 H212 0.950 . S
C220 C221 1.386 1_565 S
C220 C222 1.391 . S
C221 C220 1.386 1_545 S
C221 C225 1.393 . S
C222 H214 0.950 . S
C222 C220 1.391 . S
C222 C223 1.400 1_565 S
C223 C222 1.400 1_545 S
C223 C224 1.398 . S
C223 C229 1.491 1_545 S
C224 H215 0.950 . S
C224 C223 1.398 . S
C224 C225 1.391 . S
C225 H213 0.950 . S
C225 C221 1.393 . S
C225 C224 1.391 . S
C226 H216 0.950 . S
C226 C227 1.386 1_545 S
C226 C228 1.391 . S
C227 C226 1.386 1_565 S
C227 C231 1.393 . S
C228 H217 0.950 . S
C228 C226 1.391 . S
C228 C229 1.400 1_545 S
C229 C223 1.491 1_565 S
C229 C228 1.400 1_565 S
C229 C230 1.398 . S
C230 H218 0.950 . S
C230 C229 1.398 . S
C230 C231 1.391 . S
C231 H219 0.950 . S
C231 C227 1.393 . S
C231 C230 1.391 . S
H232 C240 0.950 . S
H233 C245 0.950 . S
H234 C242 0.950 . S
H235 C244 0.950 . S
H236 C246 0.950 . S
H237 C248 0.950 . S
H238 C250 0.950 . S
H239 C251 0.950 . S
C240 H232 0.950 . S
C240 C241 1.386 . S
C240 C242 1.391 . S
C241 C240 1.386 . S
C241 C245 1.393 1_655 S
C242 H234 0.950 . S
C242 C240 1.391 . S
C242 C243 1.400 . S
C243 C242 1.400 . S
C243 C244 1.398 1_655 S
C243 C249 1.491 1_654 S
C244 H235 0.950 . S
C244 C243 1.398 1_455 S
C244 C245 1.391 . S
C245 H233 0.950 . S
C245 C241 1.393 1_455 S
C245 C244 1.391 . S
C246 H236 0.950 . S
C246 C247 1.386 . S
C246 C248 1.391 . S
C247 C246 1.386 . S
C247 C251 1.393 1_455 S
C248 H237 0.950 . S
C248 C246 1.391 . S
C248 C249 1.400 . S
C249 C243 1.491 1_456 S
C249 C248 1.400 . S
C249 C250 1.398 1_455 S
C250 H238 0.950 . S
C250 C249 1.398 1_655 S
C250 C251 1.391 . S
C251 H239 0.950 . S
C251 C247 1.393 1_655 S
C251 C250 1.391 . S
H252 C260 0.950 1_565 S
H253 C265 0.950 . S
H254 C262 0.950 . S
H255 C264 0.950 . S
H256 C266 0.950 1_545 S
H257 C268 0.950 . S
H258 C270 0.950 . S
H259 C271 0.950 . S
C260 H252 0.950 1_545 S
C260 C261 1.386 . S
C260 C262 1.391 1_545 S
C261 C260 1.386 . S
C261 C265 1.393 . S
C262 H254 0.950 . S
C262 C260 1.391 1_565 S
C262 C263 1.400 1_565 S
C263 C262 1.400 1_545 S
C263 C264 1.398 . S
C263 C269 1.491 1_545 S
C264 H255 0.950 . S
C264 C263 1.398 . S
C264 C265 1.391 . S
C265 H253 0.950 . S
C265 C261 1.393 . S
C265 C264 1.391 . S
C266 H256 0.950 1_565 S
C266 C267 1.386 . S
C266 C268 1.391 1_565 S
C267 C266 1.386 . S
C267 C271 1.393 . S
C268 H257 0.950 . S
C268 C266 1.391 1_545 S
C268 C269 1.400 1_545 S
C269 C263 1.491 1_565 S
C269 C268 1.400 1_565 S
C269 C270 1.398 . S
C270 H258 0.950 . S
C270 C269 1.398 . S
C270 C271 1.391 . S
C271 H259 0.950 . S
C271 C267 1.393 . S
C271 C270 1.391 . S
H272 C280 0.950 . S
H273 C285 0.950 . S
H274 C282 0.950 . S
H275 C284 0.950 . S
H276 C286 0.950 . S
H277 C288 0.950 . S
H278 C290 0.950 . S
H279 C291 0.950 . S
C280 H272 0.950 . S
C280 C281 1.386 . S
C280 C282 1.391 . S
C281 C280 1.386 . S
C281 C285 1.393 . S
C282 H274 0.950 . S
C282 C280 1.391 . S
C282 C283 1.400 . S
C283 C282 1.400 . S
C283 C284 1.398 . S
C283 C289 1.491 . S
C284 H275 0.950 . S
C284 C283 1.398 . S
C284 C285 1.391 . S
C285 H273 0.950 . S
C285 C281 1.393 . S
C285 C284 1.391 . S
C286 H276 0.950 . S
C286 C287 1.386 . S
C286 C288 1.391 . S
C287 C286 1.386 . S
C287 C291 1.393 . S
C288 H277 0.950 . S
C288 C286 1.391 . S
C288 C289 1.400 . S
C289 C283 1.491 . S
C289 C288 1.400 . S
C289 C290 1.398 . S
C290 H278 0.950 . S
C290 C289 1.398 . S
C290 C291 1.391 . S
C291 H279 0.950 . S
C291 C287 1.393 . S
C291 C290 1.391 . S
H292 C300 0.950 . S
H293 C305 0.950 . S
H294 C302 0.950 . S
H295 C304 0.950 . S
H296 C306 0.950 . S
H297 C308 0.950 . S
H298 C310 0.950 . S
H299 C311 0.950 . S
C300 H292 0.950 . S
C300 C301 1.386 . S
C300 C302 1.391 . S
C301 C300 1.386 . S
C301 C305 1.393 . S
C302 H294 0.950 . S
C302 C300 1.391 . S
C302 C303 1.400 . S
C303 C302 1.400 . S
C303 C304 1.398 . S
C303 C309 1.491 . S
C304 H295 0.950 . S
C304 C303 1.398 . S
C304 C305 1.391 . S
C305 H293 0.950 . S
C305 C301 1.393 . S
C305 C304 1.391 . S
C306 H296 0.950 . S
C306 C307 1.386 . S
C306 C308 1.391 . S
C307 C306 1.386 . S
C307 C311 1.393 . S
C308 H297 0.950 . S
C308 C306 1.391 . S
C308 C309 1.400 . S
C309 C303 1.491 . S
C309 C308 1.400 . S
C309 C310 1.398 . S
C310 H298 0.950 . S
C310 C309 1.398 . S
C310 C311 1.391 . S
C311 H299 0.950 . S
C311 C307 1.393 . S
C311 C310 1.391 . S
H312 C320 0.950 . S
H313 C325 0.950 . S
H314 C322 0.950 . S
H315 C324 0.950 . S
H316 C326 0.950 . S
H317 C328 0.950 . S
H318 C330 0.950 . S
H319 C331 0.950 . S
C320 H312 0.950 . S
C320 C321 1.386 . S
C320 C322 1.391 . S
C321 C320 1.386 . S
C321 C325 1.393 . S
C322 H314 0.950 . S
C322 C320 1.391 . S
C322 C323 1.400 . S
C323 C322 1.400 . S
C323 C324 1.398 . S
C323 C329 1.491 . S
C324 H315 0.950 . S
C324 C323 1.398 . S
C324 C325 1.391 . S
C325 H313 0.950 . S
C325 C321 1.393 . S
C325 C324 1.391 . S
C326 H316 0.950 . S
C326 C327 1.386 . S
C326 C328 1.391 . S
C327 C326 1.386 . S
C327 C331 1.393 . S
C328 H317 0.950 . S
C328 C326 1.391 . S
C328 C329 1.400 . S
C329 C323 1.491 . S
C329 C328 1.400 . S
C329 C330 1.398 . S
C330 H318 0.950 . S
C330 C329 1.398 . S
C330 C331 1.391 . S
C331 H319 0.950 . S
C331 C327 1.393 . S
C331 C330 1.391 . S
H332 C340 0.950 . S
H333 C345 0.950 . S
H334 C342 0.950 . S
H335 C344 0.950 . S
H336 C346 0.950 . S
H337 C348 0.950 . S
H338 C350 0.950 . S
H339 C351 0.950 . S
C340 H332 0.950 . S
C340 C341 1.386 . S
C340 C342 1.391 . S
C341 C340 1.386 . S
C341 C345 1.393 . S
C342 H334 0.950 . S
C342 C340 1.391 . S
C342 C343 1.400 . S
C343 C342 1.400 . S
C343 C344 1.398 . S
C343 C349 1.491 . S
C344 H335 0.950 . S
C344 C343 1.398 . S
C344 C345 1.391 . S
C345 H333 0.950 . S
C345 C341 1.393 . S
C345 C344 1.391 . S
C346 H336 0.950 . S
C346 C347 1.386 . S
C346 C348 1.391 . S
C347 C346 1.386 . S
C347 C351 1.393 . S
C348 H337 0.950 . S
C348 C346 1.391 . S
C348 C349 1.400 . S
C349 C343 1.491 . S
C349 C348 1.400 . S
C349 C350 1.398 . S
C350 H338 0.950 . S
C350 C349 1.398 . S
C350 C351 1.391 . S
C351 H339 0.950 . S
C351 C347 1.393 . S
C351 C350 1.391 . S
H352 C360 0.950 . S
H353 C365 0.946 1_655 S
H354 C362 0.950 . S
H355 C364 0.950 . S
H356 C366 0.950 . S
H357 C368 0.950 . S
H358 C370 0.950 . S
H359 C371 0.946 1_455 S
C360 H352 0.950 . S
C360 C361 1.386 . S
C360 C362 1.391 . S
C361 C360 1.386 . S
C361 C365 1.393 . S
C362 H354 0.950 . S
C362 C360 1.391 . S
C362 C363 1.400 . S
C363 C362 1.400 . S
C363 C364 1.398 1_455 S
C363 C369 1.491 1_445 S
C364 H355 0.950 . S
C364 C363 1.398 1_655 S
C364 C365 1.391 1_655 S
C365 H353 0.946 1_455 S
C365 C361 1.393 . S
C365 C364 1.391 1_455 S
C366 H356 0.950 . S
C366 C367 1.386 . S
C366 C368 1.391 . S
C367 C366 1.386 . S
C367 C371 1.393 . S
C368 H357 0.950 . S
C368 C366 1.391 . S
C368 C369 1.400 . S
C369 C363 1.491 1_665 S
C369 C368 1.400 . S
C369 C370 1.398 1_655 S
C370 H358 0.950 . S
C370 C369 1.398 1_455 S
C370 C371 1.391 1_455 S
C371 H359 0.946 1_655 S
C371 C367 1.393 . S
C371 C370 1.391 1_655 S
H372 C380 0.950 . S
H373 C385 0.950 . S
H374 C382 0.950 . S
H375 C384 0.950 . S
H376 C386 0.950 . S
H377 C388 0.950 . S
H378 C390 0.950 . S
H379 C391 0.950 . S
C380 H372 0.950 . S
C380 C381 1.386 . S
C380 C382 1.391 . S
C381 C380 1.386 . S
C381 C385 1.393 . S
C382 H374 0.950 . S
C382 C380 1.391 . S
C382 C383 1.400 . S
C383 C382 1.400 . S
C383 C384 1.398 1_565 S
C383 C389 1.491 1_465 S
C384 H375 0.950 . S
C384 C383 1.398 1_545 S
C384 C385 1.391 1_545 S
C385 H373 0.950 . S
C385 C381 1.393 . S
C385 C384 1.391 1_565 S
C386 H376 0.950 . S
C386 C387 1.386 . S
C386 C388 1.391 . S
C387 C386 1.386 . S
C387 C391 1.393 . S
C388 H377 0.950 . S
C388 C386 1.391 . S
C388 C389 1.400 . S
C389 C383 1.491 1_645 S
C389 C388 1.400 . S
C389 C390 1.398 1_545 S
C390 H378 0.950 . S
C390 C389 1.398 1_565 S
C390 C391 1.391 1_565 S
C391 H379 0.950 . S
C391 C387 1.393 . S
C391 C390 1.391 1_545 S
H392 C400 0.950 . S
H393 C405 0.950 . S
H394 C402 0.950 1_455 S
H395 C404 0.950 . S
H396 C406 0.950 . S
H397 C408 0.950 1_655 S
H398 C410 0.950 . S
H399 C411 0.950 . S
C400 H392 0.950 . S
C400 C401 1.386 . S
C400 C402 1.391 . S
C401 C400 1.386 . S
C401 C405 1.393 . S
C402 H394 0.950 1_655 S
C402 C400 1.391 . S
C402 C403 1.400 . S
C403 C402 1.400 . S
C403 C404 1.398 . S
C403 C409 1.491 1_645 S
C404 H395 0.950 . S
C404 C403 1.398 . S
C404 C405 1.391 . S
C405 H393 0.950 . S
C405 C401 1.393 . S
C405 C404 1.391 . S
C406 H396 0.950 . S
C406 C407 1.386 . S
C406 C408 1.391 . S
C407 C406 1.386 . S
C407 C411 1.393 . S
C408 H397 0.950 1_455 S
C408 C406 1.391 . S
C408 C409 1.400 . S
C409 C403 1.491 1_465 S
C409 C408 1.400 . S
C409 C410 1.398 . S
C410 H398 0.950 . S
C410 C409 1.398 . S
C410 C411 1.391 . S
C411 H399 0.950 . S
C411 C407 1.393 . S
C411 C410 1.391 . S
H412 C420 0.950 . S
H413 C425 0.950 . S
H414 C422 0.950 . S
H415 C424 0.950 . S
H416 C426 0.950 . S
H417 C428 0.950 . S
H418 C430 0.950 . S
H419 C431 0.950 . S
C420 H412 0.950 . S
C420 C421 1.386 . S
C420 C422 1.391 . S
C421 C420 1.386 . S
C421 C425 1.393 . S
C422 H414 0.950 . S
C422 C420 1.391 . S
C422 C423 1.400 . S
C423 C422 1.400 . S
C423 C424 1.398 1_565 S
C423 C429 1.491 1_665 S
C424 H415 0.950 . S
C424 C423 1.398 1_545 S
C424 C425 1.391 1_545 S
C425 H413 0.950 . S
C425 C421 1.393 . S
C425 C424 1.391 1_565 S
C426 H416 0.950 . S
C426 C427 1.386 . S
C426 C428 1.391 . S
C427 C426 1.386 . S
C427 C431 1.393 . S
C428 H417 0.950 . S
C428 C426 1.391 . S
C428 C429 1.400 . S
C429 C423 1.491 1_445 S
C429 C428 1.400 . S
C429 C430 1.398 1_545 S
C430 H418 0.950 . S
C430 C429 1.398 1_565 S
C430 C431 1.391 1_565 S
C431 H419 0.950 . S
C431 C427 1.393 . S
C431 C430 1.391 1_545 S
C121 C12 1.782 . S
C127 C28 1.782 . S
C141 C42 1.790 . S
C147 C26 1.793 . S
C161 C85 1.796 . S
C167 C57 1.797 . S
C181 C71 1.791 . S
C187 C99 1.788 . S
C201 C96 1.593 . S
C207 C1 1.603 . S
C221 C15 1.603 . S
C227 C110 1.593 . S
C241 C41 1.593 . S
C247 C68 1.604 . S
C261 C82 1.599 . S
C267 C55 1.594 . S
C281 C0 1.663 . S
C287 C83 1.661 . S
C301 C97 1.659 . S
C307 C14 1.661 . S
C321 C111 1.659 . S
C327 C40 1.659 . S
C341 C54 1.667 . S
C347 C69 1.668 . S
C361 C13 1.459 . S
C367 C29 1.456 . S
C381 C43 1.457 . S
C387 C27 1.455 . S
C401 C84 1.456 . S
C407 C56 1.458 . S
C421 C98 1.459 . S
C427 C70 1.457 . S
