# Generated by pormake.
# Topology unf, (4)-cn, num edge types: 1
# Building blocks:
#     Node 0, Type 0, BuildingBlock: NAHDIM_clean_sbu_0, # of connection points: 4
#     Node 1, Type 0, BuildingBlock: NAHDIM_clean_sbu_0, # of connection points: 4
#     Node 2, Type 0, BuildingBlock: NAHDIM_clean_sbu_0, # of connection points: 4
#     Node 3, Type 0, BuildingBlock: NAHDIM_clean_sbu_0, # of connection points: 4
#     Node 4, Type 0, BuildingBlock: NAHDIM_clean_sbu_0, # of connection points: 4
#     Node 5, Type 0, BuildingBlock: NAHDIM_clean_sbu_0, # of connection points: 4
#     Node 6, Type 0, BuildingBlock: NAHDIM_clean_sbu_0, # of connection points: 4
#     Node 7, Type 0, BuildingBlock: NAHDIM_clean_sbu_0, # of connection points: 4
#     Node 8, Type 0, BuildingBlock: NAHDIM_clean_sbu_0, # of connection points: 4
#     Node 9, Type 0, BuildingBlock: NAHDIM_clean_sbu_0, # of connection points: 4
#     Node 10, Type 0, BuildingBlock: NAHDIM_clean_sbu_0, # of connection points: 4
#     Node 11, Type 0, BuildingBlock: NAHDIM_clean_sbu_0, # of connection points: 4
#     Edge 12, Type (0, 0), BuildingBlock: OJICUG_clean_linker_0, # of connection points: 2
#     Edge 13, Type (0, 0), BuildingBlock: OJICUG_clean_linker_0, # of connection points: 2
#     Edge 14, Type (0, 0), BuildingBlock: OJICUG_clean_linker_0, # of connection points: 2
#     Edge 15, Type (0, 0), BuildingBlock: OJICUG_clean_linker_0, # of connection points: 2
#     Edge 16, Type (0, 0), BuildingBlock: OJICUG_clean_linker_0, # of connection points: 2
#     Edge 17, Type (0, 0), BuildingBlock: OJICUG_clean_linker_0, # of connection points: 2
#     Edge 18, Type (0, 0), BuildingBlock: OJICUG_clean_linker_0, # of connection points: 2
#     Edge 19, Type (0, 0), BuildingBlock: OJICUG_clean_linker_0, # of connection points: 2
#     Edge 20, Type (0, 0), BuildingBlock: OJICUG_clean_linker_0, # of connection points: 2
#     Edge 21, Type (0, 0), BuildingBlock: OJICUG_clean_linker_0, # of connection points: 2
#     Edge 22, Type (0, 0), BuildingBlock: OJICUG_clean_linker_0, # of connection points: 2
#     Edge 23, Type (0, 0), BuildingBlock: OJICUG_clean_linker_0, # of connection points: 2
#     Edge 24, Type (0, 0), BuildingBlock: OJICUG_clean_linker_0, # of connection points: 2
#     Edge 25, Type (0, 0), BuildingBlock: OJICUG_clean_linker_0, # of connection points: 2
#     Edge 26, Type (0, 0), BuildingBlock: OJICUG_clean_linker_0, # of connection points: 2
#     Edge 27, Type (0, 0), BuildingBlock: OJICUG_clean_linker_0, # of connection points: 2
#     Edge 28, Type (0, 0), BuildingBlock: OJICUG_clean_linker_0, # of connection points: 2
#     Edge 29, Type (0, 0), BuildingBlock: OJICUG_clean_linker_0, # of connection points: 2
#     Edge 30, Type (0, 0), BuildingBlock: OJICUG_clean_linker_0, # of connection points: 2
#     Edge 31, Type (0, 0), BuildingBlock: OJICUG_clean_linker_0, # of connection points: 2
#     Edge 32, Type (0, 0), BuildingBlock: OJICUG_clean_linker_0, # of connection points: 2
#     Edge 33, Type (0, 0), BuildingBlock: OJICUG_clean_linker_0, # of connection points: 2
#     Edge 34, Type (0, 0), BuildingBlock: OJICUG_clean_linker_0, # of connection points: 2
#     Edge 35, Type (0, 0), BuildingBlock: OJICUG_clean_linker_0, # of connection points: 2
# Relax obj value: 0.231
# Max RMSD: 0.176
# Mean RMSD: 0.176
data_MOF--net-unf--node1-NAHDIM_clean_sbu_0--edge1-OJICUG_clean_linker_0
_symmetry_space_group_name_H-M    P1
_symmetry_Int_Tables_number       1
_symmetry_cell_setting            triclinic
loop_
_symmetry_equiv_pos_as_xyz
'x, y, z'
_cell_length_a     27.490161
_cell_length_b     28.192686
_cell_length_c     27.800809
_cell_angle_alpha  89.260198
_cell_angle_beta   91.696437
_cell_angle_gamma 119.16617
loop_
_atom_site_label
_atom_site_type_symbol
_atom_site_fract_x
_atom_site_fract_y
_atom_site_fract_z
_atom_type_partial_charge
C0 C 0.11489 0.3696 0.16546 0.0
O1 O 0.13556 0.4135 0.13864 0.0
O2 O 0.02347 0.3849 0.06894 0.0
Zn3 Zn 0.04515 0.32658 0.08136 0.0
O4 O 0.10568 0.33409 0.03794 0.0
C5 C 0.96086 0.25443 0.02048 0.0
O6 O -0.00891 0.29563 0.9924 0.0
O7 O 0.07295 0.32657 0.14952 0.0
C8 C 0.10987 0.29152 0.03273 0.0
O9 O 0.07493 0.24688 0.055 0.0
C10 C 0.03616 0.41246 0.03024 0.0
O11 O 0.07053 0.40841 1.00086 0.0
O12 O -0.02375 0.25613 0.0643 0.0
C13 C 0.55469 0.71844 0.15275 0.0
O14 O 0.51361 0.67385 0.134 0.0
O15 O 0.56523 0.62487 0.07394 0.0
Zn16 Zn 0.61735 0.70456 0.07863 0.0
O17 O 0.60507 0.73947 0.01973 0.0
C18 C 0.70686 0.67943 0.09168 0.0
O19 O 0.66899 0.63651 0.11406 0.0
O20 O 0.60322 0.73778 0.136 0.0
C21 C 0.6383 0.75546 0.98489 0.0
O22 O 0.68238 0.74879 0.98677 0.0
C23 C 0.57169 0.60196 0.03754 0.0
O24 O 0.60988 0.6316 0.0065 0.0
O25 O 0.69549 0.71626 0.07822 0.0
C26 C 0.27833 0.82296 0.19088 0.0
O27 O 0.27681 0.79264 0.15475 0.0
O28 O 0.37916 0.91495 0.08789 0.0
Zn29 Zn 0.30805 0.90274 0.11715 0.0
O30 O 0.24357 0.84879 0.07707 0.0
C31 C 0.35212 0.01638 0.129 0.0
O32 O 0.39672 0.0133 0.14249 0.0
O33 O 0.29583 0.87326 0.18399 0.0
C34 C 0.21757 0.85889 0.04352 0.0
O35 O 0.23343 0.90947 0.0315 0.0
C36 C 0.38917 0.9396 0.0477 0.0
O37 O 0.35333 0.95363 0.02964 0.0
O38 O 0.30766 -0.02676 0.11762 0.0
C39 C 0.52612 0.82644 0.315 0.0
O40 O 0.49696 0.79643 0.35103 0.0
O41 O 0.51843 0.91886 0.4181 0.0
Zn42 Zn 0.57707 0.9061 0.38896 0.0
O43 O 0.5871 0.8519 0.42896 0.0
C44 C 0.64708 0.01944 0.37691 0.0
O45 O 0.59961 0.01637 0.36269 0.0
O46 O 0.55963 0.87659 0.32205 0.0
C47 C 0.62277 0.86178 0.46288 0.0
O48 O 0.65738 0.91227 0.47535 0.0
C49 C 0.53314 0.94392 0.45817 0.0
O50 O 0.58302 0.9581 0.47633 0.0
O51 O 0.64817 -0.02367 0.38874 0.0
C52 C 0.14114 0.71672 0.35292 0.0
O53 O 0.1374 0.6722 0.37193 0.0
O54 O 0.0382 0.62502 0.43317 0.0
Zn55 Zn 0.06573 0.70459 0.42747 0.0
O56 O 0.11374 0.74057 0.48579 0.0
C57 C 0.95102 0.67925 0.4149 0.0
O58 O 0.94588 0.63607 0.3928 0.0
O59 O 0.11242 0.73664 0.36965 0.0
C60 C 0.09714 0.75742 0.52052 0.0
O61 O 0.04647 0.75098 0.51891 0.0
C62 C 0.00931 0.60286 0.46992 0.0
O63 O 0.00119 0.63314 0.50066 0.0
O64 O -0.00071 0.71632 0.42799 0.0
C65 C 0.22867 0.37044 0.34447 0.0
O66 O 0.25041 0.41391 0.37195 0.0
O67 O 0.33846 0.38707 0.43915 0.0
Zn68 Zn 0.25844 0.32847 0.4274 0.0
O69 O 0.20598 0.33589 0.47163 0.0
C70 C 0.27228 0.25683 0.48746 0.0
O71 O 0.28361 0.29807 0.51574 0.0
O72 O 0.2296 0.32809 0.35956 0.0
C73 C 0.15971 0.29312 0.47788 0.0
O74 O 0.14999 0.24813 0.45612 0.0
C75 C 0.35381 0.41476 0.47786 0.0
O76 O 0.31578 0.41069 0.5077 0.0
O77 O 0.25763 0.25828 0.4439 0.0
C78 C 0.83666 0.5712 0.83911 0.0
O79 O 0.8187 0.52675 0.865 0.0
O80 O 0.9295 0.55245 0.9299 0.0
Zn81 Zn 0.91485 0.61571 0.91912 0.0
O82 O 0.86581 0.61879 0.96994 0.0
C83 C 0.01218 0.6825 0.96878 0.0
O84 O -0.01505 0.64171 0.99817 0.0
O85 O 0.87913 0.61438 0.8541 0.0
C86 C 0.87038 0.66495 0.97874 0.0
O87 O 0.90566 0.70735 0.95412 0.0
C88 C 0.91649 0.52508 0.96872 0.0
O89 O 0.88541 0.5325 0.99945 0.0
O90 O -0.01016 0.68269 0.92814 0.0
C91 C 0.38911 0.1951 0.89429 0.0
O92 O 0.36482 0.16242 0.93052 0.0
O93 O 0.44539 0.34943 0.97134 0.0
Zn94 Zn 0.39046 0.27172 0.96029 0.0
O95 O 0.39765 0.22772 0.01442 0.0
C96 C 0.30343 0.30158 0.94923 0.0
O97 O 0.34348 0.3475 0.93267 0.0
O98 O 0.40394 0.24522 0.89825 0.0
C99 C 0.3605 0.20554 0.04585 0.0
O100 O 0.31751 0.21397 0.04473 0.0
C101 C 0.44064 0.37083 0.00956 0.0
O102 O 0.40175 0.34062 0.03988 0.0
O103 O 0.31368 0.26337 0.96016 0.0
C104 C 0.68732 0.10529 0.796 0.0
O105 O 0.69771 0.13714 0.83341 0.0
O106 O 0.59801 0.01736 0.90445 0.0
Zn107 Zn 0.66657 0.02916 0.87049 0.0
O108 O 0.73438 0.08552 0.90594 0.0
C109 C 0.62465 0.91463 0.86704 0.0
O110 O 0.57753 0.91427 0.85663 0.0
O111 O 0.66944 0.0549 0.80282 0.0
C112 C 0.75998 0.07607 0.9403 0.0
O113 O 0.7417 0.02605 0.95543 0.0
C114 C 0.58889 -0.00668 0.94491 0.0
O115 O 0.62446 -0.0214 0.96226 0.0
O116 O 0.66917 0.95978 0.87152 0.0
C117 C 0.39727 0.10789 0.7106 0.0
O118 O 0.41853 0.14042 0.67365 0.0
O119 O 0.40117 0.02108 0.60131 0.0
Zn120 Zn 0.34387 0.0323 0.63504 0.0
O121 O 0.33227 0.08865 0.5999 0.0
C122 C 0.27147 0.91759 0.63717 0.0
O123 O 0.31823 0.91714 0.64735 0.0
O124 O 0.3658 0.05743 0.70306 0.0
C125 C 0.29694 0.07911 0.56574 0.0
O126 O 0.26515 0.02905 0.55056 0.0
C127 C 0.38671 -0.00235 0.56049 0.0
O128 O 0.33663 -0.01673 0.54274 0.0
O129 O 0.27208 0.96276 0.63321 0.0
C130 C 0.7835 0.19606 0.61374 0.0
O131 O 0.7762 0.16395 0.5772 0.0
O132 O 0.88277 0.35125 0.53838 0.0
Zn133 Zn 0.85985 0.2735 0.54931 0.0
O134 O 0.80999 0.22982 0.49425 0.0
C135 C -0.02331 0.30356 0.56172 0.0
O136 O -0.0176 0.34966 0.57779 0.0
O137 O 0.81853 0.24633 0.61059 0.0
C138 C 0.82581 0.208 0.46311 0.0
O139 O 0.87723 0.21647 0.46523 0.0
C140 C 0.90904 0.37218 0.50018 0.0
O141 O 0.91761 0.34153 0.4702 0.0
O142 O 0.92834 0.26522 0.55065 0.0
C143 C 0.71306 0.57224 0.66691 0.0
O144 O 0.68651 0.52802 0.64061 0.0
O145 O 0.60158 0.55451 0.5766 0.0
Zn146 Zn 0.67978 0.61731 0.58734 0.0
O147 O 0.7316 0.61974 0.53651 0.0
C148 C 0.65023 0.68465 0.53764 0.0
O149 O 0.63655 0.64378 0.50819 0.0
O150 O 0.71402 0.61563 0.65234 0.0
C151 C 0.7735 0.66571 0.52796 0.0
O152 O 0.78099 0.7082 0.5528 0.0
C153 C 0.58672 0.52705 0.53775 0.0
O154 O 0.62485 0.53409 0.50677 0.0
O155 O 0.67247 0.68469 0.5784 0.0
C156 C 0.1612 0.24597 1.00226 0.0
C157 C 0.15592 0.29293 0.00557 0.0
H158 H 0.2116 0.21172 0.98122 0.0
C159 C 0.19669 0.34152 0.98518 0.0
H160 H 0.13023 0.20773 0.01715 0.0
C161 C 0.24341 0.34375 0.96428 0.0
C162 C 0.25019 0.29746 0.96355 0.0
H163 H 0.19355 0.37829 0.98684 0.0
H164 H 0.27529 0.38229 0.95065 0.0
C165 C 0.20784 0.24822 0.98153 0.0
C166 C 0.67769 0.82478 0.91998 0.0
C167 C 0.63153 0.78822 0.94635 0.0
H168 H 0.71147 0.89392 0.87342 0.0
C169 C 0.58041 0.78756 0.93922 0.0
H170 H 0.71753 0.82593 0.92452 0.0
C171 C 0.5767 0.82581 0.90927 0.0
C172 C 0.62433 0.86583 0.88673 0.0
H173 H 0.54397 0.75925 0.95866 0.0
H174 H 0.53769 0.82659 0.90689 0.0
C175 C 0.67424 0.86363 0.8907 0.0
C176 C 0.13871 0.82219 0.98213 0.0
C177 C 0.1672 0.8136 0.02119 0.0
H178 H 0.06706 0.7869 0.93418 0.0
C179 C 0.14592 0.76112 0.04045 0.0
H180 H 0.15431 0.86217 0.9664 0.0
C181 C 0.09624 0.71861 0.02241 0.0
C182 C 0.06688 0.72731 0.98432 0.0
H183 H 0.16685 0.75295 0.07041 0.0
H184 H 0.08048 0.67891 0.03881 0.0
C185 C 0.089 0.77919 0.96359 0.0
C186 C 0.60311 0.72123 0.48365 0.0
C187 C 0.64076 0.72967 0.52206 0.0
H188 H 0.56752 0.75592 0.4354 0.0
C189 C 0.67049 0.78148 0.54307 0.0
H190 H 0.5792 0.68159 0.46701 0.0
C191 C 0.66414 0.82466 0.52454 0.0
C192 C 0.62748 0.81631 0.48517 0.0
H193 H 0.69981 0.789 0.57273 0.0
H194 H 0.6885 0.86458 0.5405 0.0
C195 C 0.59632 0.76391 0.46559 0.0
C196 C 0.12807 0.82767 0.58492 0.0
C197 C 0.13722 0.7907 0.55863 0.0
H198 H 0.16406 0.89727 0.63114 0.0
C199 C 0.1877 0.78997 0.56544 0.0
H200 H 0.08939 0.82888 0.58061 0.0
C201 C 0.23004 0.82849 0.59505 0.0
C202 C 0.22279 0.86881 0.61757 0.0
H203 H 0.1955 0.76137 0.54606 0.0
H204 H 0.26977 0.82914 0.59724 0.0
C205 C 0.17074 0.86676 0.61387 0.0
C206 C 0.01923 0.24991 0.53051 0.0
C207 C 0.02591 0.29943 0.54771 0.0
H208 H 0.05635 0.20908 0.49531 0.0
C209 C 0.07875 0.34592 0.54625 0.0
H210 H -0.02085 0.21326 0.53142 0.0
C211 C 0.12313 0.34359 0.52523 0.0
C212 C 0.11542 0.29468 0.50547 0.0
H213 H 0.08526 0.38468 0.55928 0.0
H214 H 0.16281 0.38051 0.5229 0.0
C215 C 0.06351 0.24755 0.50968 0.0
C216 C 0.79531 0.72419 0.0465 0.0
C217 C 0.75515 0.67842 0.07081 0.0
H218 H 0.86336 0.75584 0.99854 0.0
C219 C 0.75713 0.62959 0.0688 0.0
H220 H 0.79506 0.76247 0.04752 0.0
C221 C 0.79599 0.6256 0.04024 0.0
C222 C 0.83379 0.67048 0.01347 0.0
H223 H 0.72674 0.59356 0.08709 0.0
H224 H 0.79501 0.58683 0.03777 0.0
C225 C 0.83433 0.72029 0.01824 0.0
C226 C 0.30982 0.1205 0.09325 0.0
C227 C 0.36037 0.16264 0.07662 0.0
H228 H 0.26761 0.04045 0.12299 0.0
C229 C 0.40952 0.15963 0.08431 0.0
H230 H 0.2713 0.1218 0.08787 0.0
C231 C 0.4075 0.11343 0.10513 0.0
C232 C 0.35616 0.06924 0.11768 0.0
H233 H 0.4491 0.19183 0.07214 0.0
H234 H 0.44555 0.11091 0.10824 0.0
C235 C 0.30765 0.07388 0.1132 0.0
C236 C 0.88264 0.15839 0.02529 0.0
C237 C 0.90922 0.20832 1.00101 0.0
H238 H 0.81448 0.07677 0.02477 0.0
C239 C 0.88615 0.21433 0.95715 0.0
H240 H 0.89964 0.15268 0.05914 0.0
C241 C 0.83746 0.17146 0.93788 0.0
C242 C 0.81105 0.12129 0.96171 0.0
H243 H 0.90548 0.25241 0.93768 0.0
H244 H 0.82087 0.17758 0.90397 0.0
C245 C 0.83409 0.11501 0.00557 0.0
C246 C 0.31464 0.17443 0.56867 0.0
C247 C 0.29067 0.12421 0.54475 0.0
H248 H 0.32719 0.25525 0.56942 0.0
C249 C 0.26062 0.11773 0.50125 0.0
H250 H 0.33791 0.1807 0.60232 0.0
C251 C 0.2549 0.16095 0.48201 0.0
C252 C 0.27842 0.21091 0.50641 0.0
H253 H 0.24181 0.07946 0.48199 0.0
H254 H 0.2316 0.15508 0.44845 0.0
C255 C 0.30829 0.21714 0.54988 0.0
C256 C 0.7927 0.12339 0.41507 0.0
C257 C 0.78386 0.1654 0.43147 0.0
H258 H 0.75558 0.04353 0.38476 0.0
C259 C 0.73189 0.16248 0.42269 0.0
H260 H 0.8324 0.12464 0.42127 0.0
C261 C 0.68822 0.11644 0.40107 0.0
C262 C 0.69567 0.0723 0.3888 0.0
H263 H 0.72421 0.19461 0.43465 0.0
H264 H 0.6477 0.11393 0.39716 0.0
C265 C 0.74874 0.07692 0.39432 0.0
C266 C 0.9076 0.72434 0.46016 0.0
C267 C 0.90185 0.67842 0.43587 0.0
H268 H 0.87146 0.75635 0.50811 0.0
C269 C 0.851 0.62966 0.43792 0.0
H270 H 0.94616 0.76257 0.4591 0.0
C271 C 0.80827 0.6259 0.4665 0.0
C272 C 0.8155 0.67095 0.49324 0.0
H273 H 0.84523 0.59351 0.41965 0.0
H274 H 0.77044 0.58719 0.469 0.0
C275 C 0.86482 0.72067 0.48844 0.0
C276 C 0.16217 0.32064 0.27587 0.0
C277 C 0.20017 0.36993 0.29822 0.0
H278 H 0.10455 0.28179 0.21691 0.0
C279 C 0.2091 0.41893 0.27694 0.0
H280 H 0.15403 0.28218 0.29157 0.0
C281 C 0.18113 0.41872 0.23403 0.0
C282 C 0.14285 0.36948 0.21184 0.0
H283 H 0.23803 0.45759 0.2933 0.0
H284 H 0.18936 0.45722 0.21836 0.0
C285 C 0.13346 0.32041 0.23333 0.0
C286 C 0.58229 0.80175 0.20147 0.0
C287 C 0.5446 0.7468 0.19218 0.0
H288 H 0.60507 0.87043 0.24666 0.0
C289 C 0.49781 0.71941 0.22109 0.0
H290 H 0.61833 0.82411 0.17936 0.0
C291 C 0.49038 0.74588 0.2601 0.0
C292 C 0.52909 0.80043 0.27024 0.0
H293 H 0.46792 0.67709 0.21454 0.0
H294 H 0.45509 0.7233 0.28292 0.0
C295 C 0.57437 0.82842 0.2398 0.0
C296 C 0.23225 0.82582 0.2659 0.0
C297 C 0.24908 0.7973 0.23555 0.0
H298 H 0.1842 0.82237 0.32621 0.0
C299 C 0.23253 0.74262 0.24566 0.0
H300 H 0.24409 0.86794 0.25904 0.0
C301 C 0.19846 0.71657 0.28459 0.0
C302 C 0.17957 0.74453 0.31344 0.0
H303 H 0.24486 0.71963 0.22289 0.0
H304 H 0.18552 0.67416 0.29116 0.0
C305 C 0.19747 0.79958 0.30415 0.0
C306 C 0.81498 0.62092 0.77375 0.0
C307 C 0.80576 0.57162 0.79462 0.0
H308 H 0.79236 0.65984 0.71758 0.0
C309 C 0.76539 0.52261 0.77342 0.0
H310 H 0.84553 0.6594 0.78937 0.0
C311 C 0.73522 0.52286 0.73208 0.0
C312 C 0.74413 0.57213 0.7114 0.0
H313 H 0.75723 0.48392 0.78861 0.0
H314 H 0.70468 0.48436 0.71648 0.0
C315 C 0.78423 0.62118 0.73279 0.0
C316 C 0.37485 0.11707 0.84281 0.0
C317 C 0.39641 0.17327 0.84871 0.0
H318 H 0.35875 0.05226 0.79457 0.0
C319 C 0.42312 0.20811 0.81008 0.0
H320 H 0.35445 0.08917 0.87202 0.0
C321 C 0.42595 0.18696 0.76576 0.0
C322 C 0.40184 0.13056 0.75915 0.0
H323 H 0.44065 0.25166 0.81364 0.0
H324 H 0.44518 0.21477 0.73623 0.0
C325 C 0.37744 0.09591 0.79844 0.0
C326 C 0.73694 0.18539 0.74198 0.0
C327 C 0.70532 0.12882 0.74776 0.0
H328 H 0.7867 0.25109 0.69507 0.0
C329 C 0.69578 0.09491 0.70794 0.0
H330 H 0.74495 0.21264 0.77193 0.0
C331 C 0.7197 0.11695 0.66389 0.0
C332 C 0.75382 0.17333 0.65886 0.0
H333 H 0.67131 0.05116 0.71116 0.0
H334 H 0.71283 0.0896 0.63428 0.0
C335 C 0.7611 0.20742 0.69798 0.0
C336 C 0.96548 0.44254 0.0441 0.0
C337 C 0.00625 0.44215 0.01501 0.0
H338 H 0.90452 0.46813 0.05201 0.0
C339 C 0.01568 0.46751 0.96974 0.0
H340 H 0.95679 0.423 0.07899 0.0
C341 C -0.01469 0.49293 0.95404 0.0
C342 C 0.94484 0.4937 0.98328 0.0
H343 H 0.04643 0.4676 0.94621 0.0
H344 H -0.00583 0.51263 0.91922 0.0
C345 C 0.93514 0.46803 0.02842 0.0
C346 C 0.49837 0.51048 0.06444 0.0
C347 C 0.53854 0.54274 0.03098 0.0
H348 H 0.43601 0.43055 0.08403 0.0
C349 C 0.54727 0.5179 0.99119 0.0
H350 H 0.49088 0.52852 0.09557 0.0
C351 C 0.51601 0.46189 0.98466 0.0
C352 C 0.47542 0.42964 0.0178 0.0
H353 H 0.57813 0.54166 0.96489 0.0
H354 H 0.52341 0.444 0.95338 0.0
C355 C 0.46707 0.45437 0.05791 0.0
C356 C 0.47928 0.93869 0.04028 0.0
C357 C 0.44044 0.95338 0.02172 0.0
H358 H 0.55672 0.93988 0.03055 0.0
C359 C 0.45103 -0.01825 0.9779 0.0
H360 H 0.47232 0.91687 0.07397 0.0
C361 C 0.49937 -0.00499 0.95303 0.0
C362 C 0.53814 -0.01981 0.97148 0.0
H363 H 0.42196 -0.00624 0.96264 0.0
H364 H 0.50622 0.01674 0.9193 0.0
C365 C 0.52766 0.95196 0.01538 0.0
C366 C 0.51321 -0.0138 0.52791 0.0
C367 C 0.49561 0.95784 0.48398 0.0
H368 H 0.49275 0.02115 0.5865 0.0
C369 C 0.44218 0.94322 0.46519 0.0
H370 H 0.55422 -0.00183 0.54335 0.0
C371 C 0.40698 0.95651 0.48996 0.0
C372 C 0.42451 -0.01534 0.534 0.0
H373 H 0.42746 0.92142 0.43141 0.0
H374 H 0.36591 0.94445 0.47462 0.0
C375 C 0.47803 -0.00054 0.55267 0.0
C376 C 0.92528 0.46377 0.52432 0.0
C377 C 0.93321 0.43089 0.49148 0.0
H378 H 0.94329 0.54395 0.54328 0.0
C379 C 0.96597 0.45489 0.45113 0.0
H380 H 0.90025 0.44644 0.55578 0.0
C381 C -0.00919 0.51087 0.44403 0.0
C382 C -0.01672 0.54377 0.47716 0.0
H383 H 0.97288 0.43057 0.42522 0.0
H384 H 0.01605 0.52833 0.41271 0.0
C385 C 0.95007 0.51967 0.51723 0.0
C386 C 0.45434 0.44476 0.46308 0.0
C387 C 0.41358 0.44449 0.49262 0.0
H388 H 0.54071 0.47013 0.45444 0.0
C389 C 0.43008 0.46995 0.53789 0.0
H390 H 0.44305 0.42514 0.42816 0.0
C391 C 0.48602 0.49529 0.55318 0.0
C392 C 0.52686 0.49589 0.52352 0.0
H393 H 0.39974 0.47015 0.56176 0.0
H394 H 0.4973 0.51504 0.58804 0.0
C395 C 0.51033 0.47017 0.47835 0.0
loop_
_geom_bond_atom_site_label_1
_geom_bond_atom_site_label_2
_geom_bond_distance
_geom_bond_site_symmetry_2
_ccdc_geom_bond_type
C0 O1 1.160 . S
C0 O7 1.185 . S
O1 C0 1.160 . S
O2 Zn3 1.899 . S
O2 C10 1.284 . S
Zn3 O2 1.899 . S
Zn3 O4 2.032 . S
Zn3 O7 2.086 . S
Zn3 O12 1.977 1_455 S
O4 Zn3 2.032 . S
O4 C8 1.278 . S
C5 O6 1.203 . S
C5 O12 1.267 . S
O6 C5 1.203 . S
O7 C0 1.185 . S
O7 Zn3 2.086 . S
C8 O4 1.278 . S
C8 O9 1.211 1_554 S
O9 C8 1.211 1_556 S
C10 O2 1.284 . S
C10 O11 1.273 . S
O11 C10 1.273 . S
O12 Zn3 1.977 1_655 S
O12 C5 1.267 . S
C13 O14 1.160 . S
C13 O20 1.185 . S
O14 C13 1.160 . S
O15 Zn16 1.899 . S
O15 C23 1.284 . S
Zn16 O15 1.899 . S
Zn16 O17 2.032 . S
Zn16 O20 2.086 . S
Zn16 O25 1.977 . S
O17 Zn16 2.032 . S
O17 C21 1.278 . S
C18 O19 1.203 . S
C18 O25 1.267 . S
O19 C18 1.203 . S
O20 C13 1.185 . S
O20 Zn16 2.086 . S
C21 O17 1.278 . S
C21 O22 1.211 1_554 S
O22 C21 1.211 1_556 S
C23 O15 1.284 . S
C23 O24 1.273 . S
O24 C23 1.273 . S
O25 Zn16 1.977 . S
O25 C18 1.267 . S
C26 O27 1.160 . S
C26 O33 1.185 . S
O27 C26 1.160 . S
O28 Zn29 1.899 . S
O28 C36 1.284 . S
Zn29 O28 1.899 . S
Zn29 O30 2.032 . S
Zn29 O33 2.086 . S
Zn29 O38 1.977 1_565 S
O30 Zn29 2.032 . S
O30 C34 1.278 . S
C31 O32 1.203 . S
C31 O38 1.267 . S
O32 C31 1.203 . S
O33 C26 1.185 . S
O33 Zn29 2.086 . S
C34 O30 1.278 . S
C34 O35 1.211 1_554 S
O35 C34 1.211 1_556 S
C36 O28 1.284 . S
C36 O37 1.273 . S
O37 C36 1.273 . S
O38 Zn29 1.977 1_545 S
O38 C31 1.267 . S
C39 O40 1.160 . S
C39 O46 1.185 . S
O40 C39 1.160 . S
O41 Zn42 1.899 . S
O41 C49 1.284 . S
Zn42 O41 1.899 . S
Zn42 O43 2.032 . S
Zn42 O46 2.086 . S
Zn42 O51 1.977 1_565 S
O43 Zn42 2.032 . S
O43 C47 1.278 . S
C44 O45 1.203 . S
C44 O51 1.267 . S
O45 C44 1.203 . S
O46 C39 1.185 . S
O46 Zn42 2.086 . S
C47 O43 1.278 . S
C47 O48 1.211 . S
O48 C47 1.211 . S
C49 O41 1.284 . S
C49 O50 1.273 . S
O50 C49 1.273 . S
O51 Zn42 1.977 1_545 S
O51 C44 1.267 . S
C52 O53 1.160 . S
C52 O59 1.185 . S
O53 C52 1.160 . S
O54 Zn55 1.899 . S
O54 C62 1.284 . S
Zn55 O54 1.899 . S
Zn55 O56 2.032 . S
Zn55 O59 2.086 . S
Zn55 O64 1.977 1_455 S
O56 Zn55 2.032 . S
O56 C60 1.278 . S
C57 O58 1.203 . S
C57 O64 1.267 . S
O58 C57 1.203 . S
O59 C52 1.185 . S
O59 Zn55 2.086 . S
C60 O56 1.278 . S
C60 O61 1.211 . S
O61 C60 1.211 . S
C62 O54 1.284 . S
C62 O63 1.273 . S
O63 C62 1.273 . S
O64 Zn55 1.977 1_655 S
O64 C57 1.267 . S
C65 O66 1.160 . S
C65 O72 1.185 . S
O66 C65 1.160 . S
O67 Zn68 1.899 . S
O67 C75 1.284 . S
Zn68 O67 1.899 . S
Zn68 O69 2.032 . S
Zn68 O72 2.086 . S
Zn68 O77 1.977 . S
O69 Zn68 2.032 . S
O69 C73 1.278 . S
C70 O71 1.203 . S
C70 O77 1.267 . S
O71 C70 1.203 . S
O72 C65 1.185 . S
O72 Zn68 2.086 . S
C73 O69 1.278 . S
C73 O74 1.211 . S
O74 C73 1.211 . S
C75 O67 1.284 . S
C75 O76 1.273 . S
O76 C75 1.273 . S
O77 Zn68 1.977 . S
O77 C70 1.267 . S
C78 O79 1.160 . S
C78 O85 1.185 . S
O79 C78 1.160 . S
O80 Zn81 1.899 . S
O80 C88 1.284 . S
Zn81 O80 1.899 . S
Zn81 O82 2.032 . S
Zn81 O85 2.086 . S
Zn81 O90 1.977 1_655 S
O82 Zn81 2.032 . S
O82 C86 1.278 . S
C83 O84 1.203 . S
C83 O90 1.267 . S
O84 C83 1.203 . S
O85 C78 1.185 . S
O85 Zn81 2.086 . S
C86 O82 1.278 . S
C86 O87 1.211 1_556 S
O87 C86 1.211 1_554 S
C88 O80 1.284 . S
C88 O89 1.273 . S
O89 C88 1.273 . S
O90 Zn81 1.977 1_455 S
O90 C83 1.267 . S
C91 O92 1.160 . S
C91 O98 1.185 . S
O92 C91 1.160 . S
O93 Zn94 1.899 . S
O93 C101 1.284 . S
Zn94 O93 1.899 . S
Zn94 O95 2.032 . S
Zn94 O98 2.086 . S
Zn94 O103 1.977 . S
O95 Zn94 2.032 . S
O95 C99 1.278 . S
C96 O97 1.203 . S
C96 O103 1.267 . S
O97 C96 1.203 . S
O98 C91 1.185 . S
O98 Zn94 2.086 . S
C99 O95 1.278 . S
C99 O100 1.211 1_556 S
O100 C99 1.211 1_554 S
C101 O93 1.284 . S
C101 O102 1.273 . S
O102 C101 1.273 . S
O103 Zn94 1.977 . S
O103 C96 1.267 . S
C104 O105 1.160 . S
C104 O111 1.185 . S
O105 C104 1.160 . S
O106 Zn107 1.899 . S
O106 C114 1.284 . S
Zn107 O106 1.899 . S
Zn107 O108 2.032 . S
Zn107 O111 2.086 . S
Zn107 O116 1.977 1_545 S
O108 Zn107 2.032 . S
O108 C112 1.278 . S
C109 O110 1.203 . S
C109 O116 1.267 . S
O110 C109 1.203 . S
O111 C104 1.185 . S
O111 Zn107 2.086 . S
C112 O108 1.278 . S
C112 O113 1.211 1_556 S
O113 C112 1.211 1_554 S
C114 O106 1.284 . S
C114 O115 1.273 . S
O115 C114 1.273 . S
O116 Zn107 1.977 1_565 S
O116 C109 1.267 . S
C117 O118 1.160 . S
C117 O124 1.185 . S
O118 C117 1.160 . S
O119 Zn120 1.899 . S
O119 C127 1.284 . S
Zn120 O119 1.899 . S
Zn120 O121 2.032 . S
Zn120 O124 2.086 . S
Zn120 O129 1.977 1_545 S
O121 Zn120 2.032 . S
O121 C125 1.278 . S
C122 O123 1.203 . S
C122 O129 1.267 . S
O123 C122 1.203 . S
O124 C117 1.185 . S
O124 Zn120 2.086 . S
C125 O121 1.278 . S
C125 O126 1.211 . S
O126 C125 1.211 . S
C127 O119 1.284 . S
C127 O128 1.273 . S
O128 C127 1.273 . S
O129 Zn120 1.977 1_565 S
O129 C122 1.267 . S
C130 O131 1.160 . S
C130 O137 1.185 . S
O131 C130 1.160 . S
O132 Zn133 1.899 . S
O132 C140 1.284 . S
Zn133 O132 1.899 . S
Zn133 O134 2.032 . S
Zn133 O137 2.086 . S
Zn133 O142 1.977 1_655 S
O134 Zn133 2.032 . S
O134 C138 1.278 . S
C135 O136 1.203 . S
C135 O142 1.267 . S
O136 C135 1.203 . S
O137 C130 1.185 . S
O137 Zn133 2.086 . S
C138 O134 1.278 . S
C138 O139 1.211 . S
O139 C138 1.211 . S
C140 O132 1.284 . S
C140 O141 1.273 . S
O141 C140 1.273 . S
O142 Zn133 1.977 1_455 S
O142 C135 1.267 . S
C143 O144 1.160 . S
C143 O150 1.185 . S
O144 C143 1.160 . S
O145 Zn146 1.899 . S
O145 C153 1.284 . S
Zn146 O145 1.899 . S
Zn146 O147 2.032 . S
Zn146 O150 2.086 . S
Zn146 O155 1.977 . S
O147 Zn146 2.032 . S
O147 C151 1.278 . S
C148 O149 1.203 . S
C148 O155 1.267 . S
O149 C148 1.203 . S
O150 C143 1.185 . S
O150 Zn146 2.086 . S
C151 O147 1.278 . S
C151 O152 1.211 . S
O152 C151 1.211 . S
C153 O145 1.284 . S
C153 O154 1.273 . S
O154 C153 1.273 . S
O155 Zn146 1.977 . S
O155 C148 1.267 . S
C156 C157 1.387 1_556 S
C156 H160 0.950 . S
C156 C165 1.390 . S
C157 C156 1.387 1_554 S
C157 C159 1.387 . S
H158 C165 0.950 . S
C159 C157 1.387 . S
C159 C161 1.390 . S
C159 H163 0.950 . S
H160 C156 0.950 . S
C161 C159 1.390 . S
C161 C162 1.387 1_554 S
C161 H164 0.950 . S
C162 C161 1.387 1_556 S
C162 C165 1.387 . S
H163 C159 0.950 . S
H164 C161 0.950 . S
C165 C156 1.390 . S
C165 H158 0.950 . S
C165 C162 1.387 . S
C166 C167 1.387 1_556 S
C166 H170 0.950 . S
C166 C175 1.390 . S
C167 C166 1.387 1_554 S
C167 C169 1.387 . S
H168 C175 0.950 . S
C169 C167 1.387 . S
C169 C171 1.391 . S
C169 H173 0.950 . S
H170 C166 0.950 . S
C171 C169 1.391 . S
C171 C172 1.386 1_554 S
C171 H174 0.950 . S
C172 C171 1.386 1_556 S
C172 C175 1.387 . S
H173 C169 0.950 . S
H174 C171 0.950 . S
C175 C166 1.390 . S
C175 H168 0.950 . S
C175 C172 1.387 . S
C176 C177 1.387 1_556 S
C176 H180 0.950 . S
C176 C185 1.390 . S
C177 C176 1.387 1_554 S
C177 C179 1.387 . S
H178 C185 0.950 . S
C179 C177 1.387 . S
C179 C181 1.390 . S
C179 H183 0.950 . S
H180 C176 0.950 . S
C181 C179 1.390 . S
C181 C182 1.387 1_554 S
C181 H184 0.950 . S
C182 C181 1.387 1_556 S
C182 C185 1.387 . S
H183 C179 0.950 . S
H184 C181 0.950 . S
C185 C176 1.390 . S
C185 H178 0.950 . S
C185 C182 1.387 . S
C186 C187 1.387 . S
C186 H190 0.950 . S
C186 C195 1.390 . S
C187 C186 1.387 . S
C187 C189 1.387 . S
H188 C195 0.950 . S
C189 C187 1.387 . S
C189 C191 1.390 . S
C189 H193 0.950 . S
H190 C186 0.950 . S
C191 C189 1.390 . S
C191 C192 1.387 . S
C191 H194 0.950 . S
C192 C191 1.387 . S
C192 C195 1.387 . S
H193 C189 0.950 . S
H194 C191 0.950 . S
C195 C186 1.390 . S
C195 H188 0.950 . S
C195 C192 1.387 . S
C196 C197 1.387 . S
C196 H200 0.950 . S
C196 C205 1.390 . S
C197 C196 1.387 . S
C197 C199 1.387 . S
H198 C205 0.950 . S
C199 C197 1.387 . S
C199 C201 1.390 . S
C199 H203 0.950 . S
H200 C196 0.950 . S
C201 C199 1.390 . S
C201 C202 1.387 . S
C201 H204 0.950 . S
C202 C201 1.387 . S
C202 C205 1.387 . S
H203 C199 0.950 . S
H204 C201 0.950 . S
C205 C196 1.390 . S
C205 H198 0.950 . S
C205 C202 1.387 . S
C206 C207 1.387 . S
C206 H210 0.950 . S
C206 C215 1.390 . S
C207 C206 1.387 . S
C207 C209 1.387 . S
H208 C215 0.950 . S
C209 C207 1.387 . S
C209 C211 1.390 . S
C209 H213 0.950 . S
H210 C206 0.950 . S
C211 C209 1.390 . S
C211 C212 1.387 . S
C211 H214 0.950 . S
C212 C211 1.387 . S
C212 C215 1.387 . S
H213 C209 0.950 . S
H214 C211 0.950 . S
C215 C206 1.390 . S
C215 H208 0.950 . S
C215 C212 1.387 . S
C216 C217 1.387 . S
C216 H220 0.950 . S
C216 C225 1.390 1_554 S
C217 C216 1.387 . S
C217 C219 1.387 . S
H218 C225 0.950 . S
C219 C217 1.387 . S
C219 C221 1.390 . S
C219 H223 0.950 . S
H220 C216 0.950 . S
C221 C219 1.390 . S
C221 C222 1.387 1_554 S
C221 H224 0.950 . S
C222 C221 1.387 1_556 S
C222 C225 1.387 . S
H223 C219 0.950 . S
H224 C221 0.950 . S
C225 C216 1.390 1_556 S
C225 H218 0.950 . S
C225 C222 1.387 . S
C226 C227 1.387 1_554 S
C226 H230 0.950 . S
C226 C235 1.390 . S
C227 C226 1.387 1_556 S
C227 C229 1.387 . S
H228 C235 0.950 . S
C229 C227 1.387 . S
C229 C231 1.390 1_556 S
C229 H233 0.950 . S
H230 C226 0.950 . S
C231 C229 1.390 1_554 S
C231 C232 1.387 . S
C231 H234 0.950 . S
C232 C231 1.387 . S
C232 C235 1.387 . S
H233 C229 0.950 . S
H234 C231 0.950 . S
C235 C226 1.390 . S
C235 H228 0.950 . S
C235 C232 1.387 . S
C236 C237 1.387 . S
C236 H240 0.950 . S
C236 C245 1.390 . S
C237 C236 1.387 . S
C237 C239 1.387 1_554 S
H238 C245 0.950 . S
C239 C237 1.387 1_556 S
C239 C241 1.390 . S
C239 H243 0.950 . S
H240 C236 0.950 . S
C241 C239 1.390 . S
C241 C242 1.387 . S
C241 H244 0.950 . S
C242 C241 1.387 . S
C242 C245 1.387 1_556 S
H243 C239 0.950 . S
H244 C241 0.950 . S
C245 C236 1.390 . S
C245 H238 0.950 . S
C245 C242 1.387 1_554 S
C246 C247 1.387 . S
C246 H250 0.950 . S
C246 C255 1.390 . S
C247 C246 1.387 . S
C247 C249 1.387 . S
H248 C255 0.950 . S
C249 C247 1.387 . S
C249 C251 1.390 . S
C249 H253 0.950 . S
H250 C246 0.950 . S
C251 C249 1.390 . S
C251 C252 1.387 . S
C251 H254 0.950 . S
C252 C251 1.387 . S
C252 C255 1.387 . S
H253 C249 0.950 . S
H254 C251 0.950 . S
C255 C246 1.390 . S
C255 H248 0.950 . S
C255 C252 1.387 . S
C256 C257 1.387 . S
C256 H260 0.950 . S
C256 C265 1.390 . S
C257 C256 1.387 . S
C257 C259 1.387 . S
H258 C265 0.950 . S
C259 C257 1.387 . S
C259 C261 1.390 . S
C259 H263 0.950 . S
H260 C256 0.950 . S
C261 C259 1.390 . S
C261 C262 1.387 . S
C261 H264 0.950 . S
C262 C261 1.387 . S
C262 C265 1.387 . S
H263 C259 0.950 . S
H264 C261 0.950 . S
C265 C256 1.390 . S
C265 H258 0.950 . S
C265 C262 1.387 . S
C266 C267 1.387 . S
C266 H270 0.950 . S
C266 C275 1.390 . S
C267 C266 1.387 . S
C267 C269 1.387 . S
H268 C275 0.950 . S
C269 C267 1.387 . S
C269 C271 1.390 . S
C269 H273 0.950 . S
H270 C266 0.950 . S
C271 C269 1.390 . S
C271 C272 1.387 . S
C271 H274 0.950 . S
C272 C271 1.387 . S
C272 C275 1.387 . S
H273 C269 0.950 . S
H274 C271 0.950 . S
C275 C266 1.390 . S
C275 H268 0.950 . S
C275 C272 1.387 . S
C276 C277 1.387 . S
C276 H280 0.950 . S
C276 C285 1.390 . S
C277 C276 1.387 . S
C277 C279 1.387 . S
H278 C285 0.950 . S
C279 C277 1.387 . S
C279 C281 1.390 . S
C279 H283 0.950 . S
H280 C276 0.950 . S
C281 C279 1.390 . S
C281 C282 1.387 . S
C281 H284 0.950 . S
C282 C281 1.387 . S
C282 C285 1.387 . S
H283 C279 0.950 . S
H284 C281 0.950 . S
C285 C276 1.390 . S
C285 H278 0.950 . S
C285 C282 1.387 . S
C286 C287 1.387 . S
C286 H290 0.950 . S
C286 C295 1.390 . S
C287 C286 1.387 . S
C287 C289 1.387 . S
H288 C295 0.950 . S
C289 C287 1.387 . S
C289 C291 1.390 . S
C289 H293 0.950 . S
H290 C286 0.950 . S
C291 C289 1.390 . S
C291 C292 1.387 . S
C291 H294 0.950 . S
C292 C291 1.387 . S
C292 C295 1.387 . S
H293 C289 0.950 . S
H294 C291 0.950 . S
C295 C286 1.390 . S
C295 H288 0.950 . S
C295 C292 1.387 . S
C296 C297 1.387 . S
C296 H300 0.950 . S
C296 C305 1.390 . S
C297 C296 1.387 . S
C297 C299 1.387 . S
H298 C305 0.950 . S
C299 C297 1.387 . S
C299 C301 1.390 . S
C299 H303 0.950 . S
H300 C296 0.950 . S
C301 C299 1.390 . S
C301 C302 1.387 . S
C301 H304 0.950 . S
C302 C301 1.387 . S
C302 C305 1.387 . S
H303 C299 0.950 . S
H304 C301 0.950 . S
C305 C296 1.390 . S
C305 H298 0.950 . S
C305 C302 1.387 . S
C306 C307 1.387 . S
C306 H310 0.950 . S
C306 C315 1.390 . S
C307 C306 1.387 . S
C307 C309 1.387 . S
H308 C315 0.950 . S
C309 C307 1.387 . S
C309 C311 1.390 . S
C309 H313 0.950 . S
H310 C306 0.950 . S
C311 C309 1.390 . S
C311 C312 1.387 . S
C311 H314 0.950 . S
C312 C311 1.387 . S
C312 C315 1.387 . S
H313 C309 0.950 . S
H314 C311 0.950 . S
C315 C306 1.390 . S
C315 H308 0.950 . S
C315 C312 1.387 . S
C316 C317 1.387 . S
C316 H320 0.950 . S
C316 C325 1.390 . S
C317 C316 1.387 . S
C317 C319 1.387 . S
H318 C325 0.950 . S
C319 C317 1.387 . S
C319 C321 1.390 . S
C319 H323 0.950 . S
H320 C316 0.950 . S
C321 C319 1.390 . S
C321 C322 1.387 . S
C321 H324 0.950 . S
C322 C321 1.387 . S
C322 C325 1.387 . S
H323 C319 0.950 . S
H324 C321 0.950 . S
C325 C316 1.390 . S
C325 H318 0.950 . S
C325 C322 1.387 . S
C326 C327 1.387 . S
C326 H330 0.950 . S
C326 C335 1.390 . S
C327 C326 1.387 . S
C327 C329 1.387 . S
H328 C335 0.950 . S
C329 C327 1.387 . S
C329 C331 1.390 . S
C329 H333 0.950 . S
H330 C326 0.950 . S
C331 C329 1.390 . S
C331 C332 1.387 . S
C331 H334 0.950 . S
C332 C331 1.387 . S
C332 C335 1.387 . S
H333 C329 0.950 . S
H334 C331 0.950 . S
C335 C326 1.390 . S
C335 H328 0.950 . S
C335 C332 1.387 . S
C336 C337 1.387 1_655 S
C336 H340 0.950 . S
C336 C345 1.390 1_554 S
C337 C336 1.387 1_455 S
C337 C339 1.387 . S
H338 C345 0.950 . S
C339 C337 1.387 . S
C339 C341 1.390 1_554 S
C339 H343 0.950 . S
H340 C336 0.950 . S
C341 C339 1.390 1_556 S
C341 C342 1.387 1_455 S
C341 H344 0.950 . S
C342 C341 1.387 1_655 S
C342 C345 1.387 . S
H343 C339 0.950 . S
H344 C341 0.950 . S
C345 C336 1.390 1_556 S
C345 H338 0.950 . S
C345 C342 1.387 . S
C346 C347 1.387 . S
C346 H350 0.950 . S
C346 C355 1.390 1_554 S
C347 C346 1.387 . S
C347 C349 1.387 . S
H348 C355 0.950 . S
C349 C347 1.387 . S
C349 C351 1.390 1_554 S
C349 H353 0.950 . S
H350 C346 0.950 . S
C351 C349 1.390 1_556 S
C351 C352 1.387 . S
C351 H354 0.950 . S
C352 C351 1.387 . S
C352 C355 1.387 . S
H353 C349 0.950 . S
H354 C351 0.950 . S
C355 C346 1.390 1_556 S
C355 H348 0.950 . S
C355 C352 1.387 . S
C356 C357 1.387 1_545 S
C356 H360 0.950 . S
C356 C365 1.390 . S
C357 C356 1.387 1_565 S
C357 C359 1.387 1_554 S
H358 C365 0.950 . S
C359 C357 1.387 1_556 S
C359 C361 1.390 . S
C359 H363 0.950 . S
H360 C356 0.950 . S
C361 C359 1.390 . S
C361 C362 1.387 1_565 S
C361 H364 0.950 . S
C362 C361 1.387 1_545 S
C362 C365 1.387 1_556 S
H363 C359 0.950 . S
H364 C361 0.950 . S
C365 C356 1.390 . S
C365 H358 0.950 . S
C365 C362 1.387 1_554 S
C366 C367 1.387 . S
C366 H370 0.950 . S
C366 C375 1.390 . S
C367 C366 1.387 . S
C367 C369 1.387 1_565 S
H368 C375 0.950 . S
C369 C367 1.387 1_545 S
C369 C371 1.390 . S
C369 H373 0.950 . S
H370 C366 0.950 . S
C371 C369 1.390 . S
C371 C372 1.387 . S
C371 H374 0.950 . S
C372 C371 1.387 . S
C372 C375 1.387 1_545 S
H373 C369 0.950 . S
H374 C371 0.950 . S
C375 C366 1.390 . S
C375 H368 0.950 . S
C375 C372 1.387 1_565 S
C376 C377 1.387 1_455 S
C376 H380 0.950 . S
C376 C385 1.390 . S
C377 C376 1.387 1_655 S
C377 C379 1.387 . S
H378 C385 0.950 . S
C379 C377 1.387 . S
C379 C381 1.390 . S
C379 H383 0.950 . S
H380 C376 0.950 . S
C381 C379 1.390 . S
C381 C382 1.387 1_655 S
C381 H384 0.950 . S
C382 C381 1.387 1_455 S
C382 C385 1.387 . S
H383 C379 0.950 . S
H384 C381 0.950 . S
C385 C376 1.390 . S
C385 H378 0.950 . S
C385 C382 1.387 . S
C386 C387 1.387 . S
C386 H390 0.950 . S
C386 C395 1.390 . S
C387 C386 1.387 . S
C387 C389 1.387 . S
H388 C395 0.950 . S
C389 C387 1.387 . S
C389 C391 1.390 . S
C389 H393 0.950 . S
H390 C386 0.950 . S
C391 C389 1.390 . S
C391 C392 1.387 . S
C391 H394 0.950 . S
C392 C391 1.387 . S
C392 C395 1.387 . S
H393 C389 0.950 . S
H394 C391 0.950 . S
C395 C386 1.390 . S
C395 H388 0.950 . S
C395 C392 1.387 . S
C157 C8 0.904 . S
C162 C96 0.891 . S
C167 C21 0.906 . S
C172 C109 0.894 . S
C177 C34 0.905 . S
C182 C83 0.893 . S
C187 C148 0.893 . S
C192 C47 0.908 . S
C197 C60 0.905 . S
C202 C122 0.893 . S
C207 C135 0.893 . S
C212 C73 0.905 . S
C217 C18 0.891 . S
C222 C86 0.905 . S
C227 C99 0.906 . S
C232 C31 0.892 . S
C237 C5 0.895 . S
C242 C112 0.909 . S
C247 C125 0.905 . S
C252 C70 0.893 . S
C257 C138 0.908 . S
C262 C44 0.893 . S
C267 C57 0.891 . S
C272 C151 0.905 . S
C277 C65 1.800 . S
C282 C0 1.800 . S
C287 C13 1.800 . S
C292 C39 1.799 . S
C297 C26 1.800 . S
C302 C52 1.800 . S
C307 C78 1.798 . S
C312 C143 1.798 . S
C317 C91 1.798 . S
C322 C117 1.799 . S
C327 C104 1.799 . S
C332 C130 1.800 . S
C337 C10 1.552 . S
C342 C88 1.552 . S
C347 C23 1.552 . S
C352 C101 1.552 . S
C357 C36 1.552 . S
C362 C114 1.552 . S
C367 C49 1.555 . S
C372 C127 1.555 . S
C377 C140 1.555 . S
C382 C62 1.555 . S
C387 C75 1.553 . S
C392 C153 1.553 . S
