# Generated by pormake.
# Topology lon, (4)-cn, num edge types: 1
# Building blocks:
#     Node 0, Type 0, BuildingBlock: KUFVIS_clean_sbu_0, # of connection points: 4
#     Node 1, Type 0, BuildingBlock: KUFVIS_clean_sbu_0, # of connection points: 4
#     Node 2, Type 0, BuildingBlock: KUFVIS_clean_sbu_0, # of connection points: 4
#     Node 3, Type 0, BuildingBlock: KUFVIS_clean_sbu_0, # of connection points: 4
#     Edge 4, Type (0, 0), BuildingBlock: FUNLAD_clean_linker_1, # of connection points: 2
#     Edge 5, Type (0, 0), BuildingBlock: FUNLAD_clean_linker_1, # of connection points: 2
#     Edge 6, Type (0, 0), BuildingBlock: FUNLAD_clean_linker_1, # of connection points: 2
#     Edge 7, Type (0, 0), BuildingBlock: FUNLAD_clean_linker_1, # of connection points: 2
#     Edge 8, Type (0, 0), BuildingBlock: FUNLAD_clean_linker_1, # of connection points: 2
#     Edge 9, Type (0, 0), BuildingBlock: FUNLAD_clean_linker_1, # of connection points: 2
#     Edge 10, Type (0, 0), BuildingBlock: FUNLAD_clean_linker_1, # of connection points: 2
#     Edge 11, Type (0, 0), BuildingBlock: FUNLAD_clean_linker_1, # of connection points: 2
# Relax obj value: 0.048
# Max RMSD: 0.108
# Mean RMSD: 0.089
data_MOF--net-lon--node1-KUFVIS_clean_sbu_0--edge1-FUNLAD_clean_linker_1
_symmetry_space_group_name_H-M    P1
_symmetry_Int_Tables_number       1
_symmetry_cell_setting            triclinic
loop_
_symmetry_equiv_pos_as_xyz
'x, y, z'
_cell_length_a     25.346409
_cell_length_b     24.670636
_cell_length_c     41.436458
_cell_angle_alpha  102.00124
_cell_angle_beta   88.954974
_cell_angle_gamma 121.12175
loop_
_atom_site_label
_atom_site_type_symbol
_atom_site_fract_x
_atom_site_fract_y
_atom_site_fract_z
_atom_type_partial_charge
Mn0 Mn 0.34034 0.69002 0.09654 0.0
Mn1 Mn 0.30405 0.64619 1.01294 0.0
C2 C 0.24081 0.65043 0.07382 0.0
C3 C 0.35191 0.67277 0.14865 0.0
C4 C 0.37949 0.78614 0.05147 0.0
O5 O 0.40918 0.67527 0.07911 0.0
O6 O 0.37854 0.64408 1.02392 0.0
C7 C 0.26819 0.50835 1.00181 0.0
N8 N 0.25388 0.55342 0.99896 0.0
C9 C 0.15144 0.46981 0.97304 0.0
C10 C 0.16525 0.42253 0.9755 0.0
C11 C 0.2239 0.44191 0.98991 0.0
C12 C 0.19778 0.53533 0.98482 0.0
H13 H 0.31298 0.52301 1.01318 0.0
C14 C 0.41484 0.65548 0.04885 0.0
O15 O 0.3829 0.72974 0.14222 0.0
O16 O 0.31525 0.62418 0.12436 0.0
N17 N 0.23211 0.64566 0.99905 0.0
C18 C 0.22458 0.69701 1.00086 0.0
C19 C 0.16812 0.6859 0.98794 0.0
C20 C 0.11985 0.62215 0.97357 0.0
C21 C 0.12863 0.57007 0.97205 0.0
C22 C 0.18656 0.5843 0.98442 0.0
H23 H 0.26132 0.74607 1.01214 0.0
O24 O 0.26033 0.68747 0.10362 0.0
O25 O 0.28026 0.63954 0.05814 0.0
O26 O 0.37678 0.77336 0.07983 0.0
O27 O 0.35454 0.74251 1.02452 0.0
C28 C 0.08163 0.50452 0.95961 0.0
C29 C 0.093 0.45442 0.96014 0.0
H30 H 0.13097 0.3712 0.96673 0.0
H31 H 0.23474 0.40567 0.992 0.0
H32 H 0.16157 0.72631 0.98936 0.0
H33 H 0.07593 0.61367 0.96425 0.0
H34 H 0.03622 0.49203 0.95013 0.0
H35 H 0.05618 0.40416 0.951 0.0
Mn36 Mn 0.7487 0.38831 0.59823 0.0
Mn37 Mn 0.59188 0.30462 0.5924 0.0
C38 C 0.69225 0.27513 0.58274 0.0
C39 C 0.84285 0.44034 0.57564 0.0
C40 C 0.67253 0.36903 0.65809 0.0
O41 O 0.7279 0.45728 0.594 0.0
O42 O 0.62345 0.39455 0.58856 0.0
C43 C 0.5733 0.30271 0.52192 0.0
N44 N 0.56132 0.27 0.54649 0.0
C45 C 0.50868 0.16689 0.50703 0.0
C46 C 0.51922 0.19935 0.48138 0.0
C47 C 0.55131 0.26761 0.4889 0.0
C48 C 0.52918 0.20427 0.53964 0.0
H49 H 0.60053 0.3552 0.52738 0.0
C50 C 0.67395 0.44888 0.58979 0.0
O51 O 0.83927 0.45429 0.60722 0.0
O52 O 0.79143 0.39824 0.55685 0.0
N53 N 0.55485 0.21608 0.59539 0.0
C54 C 0.55503 0.19248 0.62232 0.0
C55 C 0.52437 0.12493 0.61906 0.0
C56 C 0.49509 0.08252 0.58803 0.0
C57 C 0.4964 0.1081 0.56062 0.0
C58 C 0.52443 0.17562 0.56577 0.0
H59 H 0.57859 0.22492 0.64608 0.0
O60 O 0.74942 0.30589 0.59571 0.0
O61 O 0.66999 0.31127 0.58049 0.0
O62 O 0.72442 0.39028 0.64594 0.0
O63 O 0.62024 0.33755 0.64042 0.0
C64 C 0.47471 0.06966 0.52807 0.0
C65 C 0.4821 0.09924 0.50127 0.0
H66 H 0.50412 0.17241 0.45576 0.0
H67 H 0.56051 0.29313 0.46921 0.0
H68 H 0.52436 0.10562 0.64025 0.0
H69 H 0.47329 0.03051 0.58534 0.0
H70 H 0.4549 1.01762 0.52326 0.0
H71 H 0.46917 0.06998 0.47614 0.0
Mn72 Mn 0.39747 0.6762 0.46519 0.0
Mn73 Mn 0.31923 0.74693 0.45056 0.0
C74 C 0.45131 0.78678 0.46565 0.0
C75 C 0.44269 0.64386 0.49969 0.0
C76 C 0.34573 0.66434 0.39597 0.0
O77 O 0.30912 0.61011 0.47318 0.0
O78 O 0.26357 0.66329 0.46296 0.0
C79 C 0.28652 0.77306 0.51866 0.0
N80 N 0.31124 0.79419 0.49108 0.0
C81 C 0.31332 0.89412 0.51035 0.0
C82 C 0.2879 0.87365 0.53903 0.0
C83 C 0.27532 0.81323 0.54342 0.0
C84 C 0.32641 0.85346 0.4874 0.0
H85 H 0.27473 0.72564 0.52149 0.0
C86 C 0.26188 0.61558 0.4715 0.0
O87 O 0.42692 0.6165 0.46832 0.0
O88 O 0.42989 0.68829 0.51151 0.0
N89 N 0.36485 0.82894 0.43869 0.0
C90 C 0.39094 0.8421 0.4101 0.0
C91 C 0.40709 0.90103 0.40205 0.0
C92 C 0.39437 0.94474 0.42292 0.0
C93 C 0.36692 0.92977 0.45206 0.0
C94 C 0.35404 0.87155 0.45938 0.0
H95 H 0.39801 0.80722 0.39321 0.0
O96 O 0.47767 0.75311 0.45972 0.0
O97 O 0.39328 0.75501 0.47114 0.0
O98 O 0.37272 0.64948 0.41493 0.0
O99 O 0.32438 0.70075 0.40667 0.0
C100 C 0.34982 0.96918 0.47357 0.0
C101 C 0.32441 0.95219 0.50308 0.0
H102 H 0.2775 0.90369 0.55769 0.0
H103 H 0.25556 0.79697 0.56543 0.0
H104 H 0.42791 0.91204 0.37942 0.0
H105 H 0.40557 0.98943 0.41625 0.0
H106 H 0.35683 1.01324 0.4679 0.0
H107 H 0.31321 0.98391 0.51988 0.0
Mn108 Mn 0.66678 0.34666 0.95726 0.0
Mn109 Mn 0.65653 0.38353 0.03997 0.0
C110 C 0.58957 0.365 0.97628 0.0
C111 C 0.70219 0.37054 0.90659 0.0
C112 C 0.61296 0.24719 1.00111 0.0
O113 O 0.75299 0.3767 0.97777 0.0
O114 O 0.73985 0.39861 0.03197 0.0
C115 C 0.7469 0.52564 0.05354 0.0
N116 N 0.68835 0.47487 0.05388 0.0
C117 C 0.65575 0.54755 0.08051 0.0
C118 C 0.7159 0.60051 0.08085 0.0
C119 C 0.76151 0.58953 0.06702 0.0
C120 C 0.64381 0.485 0.06651 0.0
H121 H 0.78234 0.5175 0.04327 0.0
C122 C 0.77275 0.39617 1.00862 0.0
O123 O 0.68406 0.31464 0.91287 0.0
O124 O 0.70216 0.41448 0.93022 0.0
N125 N 0.57874 0.37224 0.05184 0.0
C126 C 0.52376 0.31575 0.05107 0.0
C127 C 0.47269 0.31848 0.0629 0.0
C128 C 0.4791 0.37905 0.07624 0.0
C129 C 0.53676 0.43639 0.078 0.0
C130 C 0.58582 0.43072 0.06545 0.0
H131 H 0.51864 0.26902 0.0411 0.0
O132 O 0.5828 0.33165 0.94631 0.0
O133 O 0.64106 0.38691 0.99415 0.0
O134 O 0.62849 0.26233 0.97344 0.0
O135 O 0.62123 0.28846 0.02788 0.0
C136 C 0.54764 0.49888 0.09204 0.0
C137 C 0.6072 0.55438 0.0935 0.0
H138 H 0.72743 0.64985 0.09138 0.0
H139 H 0.80791 0.6302 0.06695 0.0
H140 H 0.42854 0.27398 0.06186 0.0
H141 H 0.43965 0.38095 0.08541 0.0
H142 H 0.51057 0.50481 0.10187 0.0
H143 H 0.61504 0.60216 0.10443 0.0
H144 H 0.38712 0.7117 0.20131 0.0
C145 C 0.35609 0.66693 0.18314 0.0
H146 H 0.2874 0.56746 0.17612 0.0
H147 H 0.44199 0.69897 0.33116 0.0
H148 H 0.53243 0.7133 0.30434 0.0
H149 H 0.52611 0.67881 0.24351 0.0
H150 H 0.42924 0.63146 0.20909 0.0
C151 C 0.32054 0.61205 0.19369 0.0
C152 C 0.32009 0.61449 0.23016 0.0
C153 C 0.37567 0.63747 0.25021 0.0
C154 C 0.37823 0.65338 0.28547 0.0
C155 C 0.43613 0.68247 0.30448 0.0
C156 C 0.48874 0.69155 0.28935 0.0
C157 C 0.48527 0.67243 0.2551 0.0
C158 C 0.42956 0.64579 0.23564 0.0
H159 H 0.35306 0.60309 0.35088 0.0
C160 C 0.34113 0.63971 0.35966 0.0
H161 H 0.31364 0.70003 0.34609 0.0
H162 H 0.20407 0.5643 0.19943 0.0
H163 H 0.11125 0.54085 0.22616 0.0
H164 H 0.114 0.5615 0.28714 0.0
H165 H 0.20993 0.60647 0.32179 0.0
C166 C 0.32641 0.66404 0.3375 0.0
C167 C 0.32384 0.64179 0.30078 0.0
C168 C 0.26706 0.61348 0.28069 0.0
C169 C 0.26521 0.60027 0.24543 0.0
C170 C 0.20821 0.57452 0.22623 0.0
C171 C 0.15444 0.56082 0.24127 0.0
C172 C 0.156 0.57252 0.2756 0.0
C173 C 0.21146 0.59857 0.2952 0.0
H174 H 0.62736 0.36724 0.70418 0.0
C175 C 0.67134 0.3792 0.69453 0.0
H176 H 0.7649 0.41051 0.7066 0.0
H177 H 0.78997 0.53467 0.85874 0.0
H178 H 0.86222 0.62886 0.83779 0.0
H179 H 0.86757 0.62093 0.77763 0.0
H180 H 0.80124 0.5187 0.738 0.0
C181 C 0.72043 0.39774 0.71575 0.0
C182 C 0.71602 0.40244 0.75223 0.0
C183 C 0.75446 0.46286 0.77514 0.0
C184 C 0.75063 0.46778 0.80992 0.0
C185 C 0.79051 0.5284 0.83213 0.0
C186 C 0.83221 0.58285 0.82044 0.0
C187 C 0.83526 0.57837 0.78656 0.0
C188 C 0.79696 0.51928 0.76408 0.0
H189 H 0.72995 0.34736 0.85767 0.0
C190 C 0.71746 0.37981 0.87287 0.0
H191 H 0.69197 0.44891 0.87294 0.0
H192 H 0.64328 0.27604 0.7163 0.0
H193 H 0.56581 0.18429 0.73684 0.0
H194 H 0.54875 0.19679 0.79605 0.0
H195 H 0.61077 0.30059 0.83515 0.0
C196 C 0.70576 0.41706 0.85843 0.0
C197 C 0.70777 0.41259 0.82184 0.0
C198 C 0.66757 0.35273 0.79882 0.0
C199 C 0.67376 0.34687 0.76423 0.0
C200 C 0.63767 0.28466 0.74243 0.0
C201 C 0.59339 0.23123 0.75396 0.0
C202 C 0.58406 0.23816 0.7873 0.0
C203 C 0.62052 0.298 0.80956 0.0
H204 H 0.48 0.64466 1.01697 0.0
C205 C 0.46205 0.63868 0.04087 0.0
H206 H 0.44662 0.58829 0.07865 0.0
H207 H 0.43765 0.3621 0.96758 0.0
H208 H 0.33143 0.3122 0.98075 0.0
H209 H 0.29848 0.37421 1.02146 0.0
H210 H 0.37097 0.48708 0.04815 0.0
C211 C 0.46947 0.60024 0.05649 0.0
C212 C 0.49353 0.55985 0.03852 0.0
C213 C 0.4514 0.49269 1.02472 0.0
C214 C 0.47132 0.45561 1.00291 0.0
C215 C 0.42636 0.39093 0.9864 0.0
C216 C 0.36488 0.362 0.99329 0.0
C217 C 0.34625 0.39701 1.01605 0.0
C218 C 0.38854 0.46181 0.0313 0.0
H219 H 0.51593 0.36897 1.00364 0.0
C220 C 0.54883 0.38988 0.98635 0.0
H221 H 0.59162 0.46375 0.96054 0.0
H222 H 0.58598 0.68637 0.06206 0.0
H223 H 0.69335 0.73606 0.05064 0.0
H224 H 0.73009 0.67102 1.01562 0.0
H225 H 0.66045 0.55663 0.99199 0.0
C226 C 0.55858 0.44404 0.97823 0.0
C227 C 0.53477 0.48421 0.99725 0.0
C228 C 0.5771 0.55153 1.0114 0.0
C229 C 0.55619 0.58931 0.03177 0.0
C230 C 0.59924 0.656 0.04581 0.0
C231 C 0.66109 0.68503 0.03967 0.0
C232 C 0.68173 0.64843 1.01991 0.0
C233 C 0.64076 0.58245 1.00624 0.0
H234 H 0.1947 0.51974 0.48282 0.0
C235 C 0.20218 0.56662 0.48134 0.0
H236 H 0.1664 0.62829 0.48784 0.0
H237 H 0.88508 0.45464 0.47772 0.0
H238 H 0.89874 0.48698 0.4254 0.0
H239 H 1.00195 0.53996 0.40531 0.0
H240 H 0.09227 0.56142 0.43763 0.0
C241 C 0.15829 0.58119 0.48947 0.0
C242 C 0.09559 0.53539 0.49833 0.0
C243 C 0.0426 0.52078 0.47864 0.0
C244 C 0.98278 0.48879 0.48985 0.0
C245 C 0.93141 0.47766 0.47022 0.0
C246 C 0.93858 0.49611 0.4401 0.0
C247 C 0.99669 0.52605 0.42883 0.0
C248 C 0.04821 0.53838 0.44773 0.0
H249 H 0.94251 0.51326 0.57775 0.0
C250 C 0.90366 0.46946 0.56234 0.0
H251 H 0.87459 0.39698 0.51793 0.0
H252 H 0.18667 0.55644 0.54303 0.0
H253 H 0.17172 0.51533 0.59271 0.0
H254 H 0.06679 0.4494 0.60887 0.0
H255 H 0.9763 0.42596 0.57587 0.0
C256 C 0.91324 0.44107 0.53328 0.0
C257 C 0.97554 0.47001 0.52052 0.0
C258 C 1.02775 0.47962 0.53884 0.0
C259 C 0.08807 0.51419 0.52835 0.0
C260 C 0.13965 0.52794 0.5488 0.0
C261 C 0.13176 0.50489 0.57757 0.0
C262 C 0.07271 0.46802 0.58675 0.0
C263 C 1.02118 0.4554 0.56773 0.0
H264 H 0.57552 0.14342 0.97815 0.0
C265 C 0.58176 0.17748 1.00129 0.0
H266 H 0.5643 0.18701 0.05171 0.0
H267 H 0.33795 0.88503 0.99767 0.0
H268 H 0.28601 0.93487 0.97977 0.0
H269 H 0.34237 0.05301 0.98318 0.0
H270 H 0.45109 0.12211 1.00453 0.0
C271 C 0.55875 0.15436 0.02819 0.0
C272 C 0.52462 0.08319 0.02638 0.0
C273 C 0.46113 0.04347 1.01379 0.0
C274 C 0.42861 0.97533 1.01187 0.0
C275 C 0.36504 0.93697 0.9995 0.0
C276 C 0.33459 0.96497 0.98919 0.0
C277 C 0.36633 0.03148 0.9911 0.0
C278 C 0.42879 0.07055 1.00332 0.0
H279 H 0.43294 0.89144 0.07402 0.0
C280 C 0.41408 0.8556 0.05048 0.0
H281 H 0.40466 0.84151 0.99833 0.0
H282 H 0.64572 0.14579 0.05192 0.0
H283 H 0.69883 0.09589 0.06847 0.0
H284 H 0.64376 0.97724 0.0632 0.0
H285 H 0.53525 0.90786 0.04171 0.0
C286 C 0.42434 0.87622 1.02214 0.0
C287 C 0.45956 0.94711 1.02275 0.0
C288 C 0.52352 0.98676 0.03468 0.0
C289 C 0.55576 0.055 0.03693 0.0
C290 C 0.61923 0.09364 0.04946 0.0
C291 C 0.65027 0.06564 0.05901 0.0
C292 C 0.61923 0.99885 0.05611 0.0
C293 C 0.55672 0.95962 0.04398 0.0
H294 H 0.70153 0.53362 0.56791 0.0
C295 C 0.66723 0.501 0.58171 0.0
H296 H 0.58009 0.46663 0.59977 0.0
H297 H 0.59786 0.70626 0.54099 0.0
H298 H 0.68714 0.78111 0.58153 0.0
H299 H 0.73173 0.74036 0.61547 0.0
H300 H 0.68784 0.6243 0.60868 0.0
C301 C 0.61362 0.49971 0.58583 0.0
C302 C 0.58944 0.52637 0.56495 0.0
C303 C 0.61465 0.59419 0.56973 0.0
C304 C 0.58743 0.61763 0.55091 0.0
C305 C 0.61518 0.68568 0.55532 0.0
C306 C 0.66671 0.72922 0.57839 0.0
C307 C 0.69192 0.70627 0.59745 0.0
C308 C 0.6664 0.63958 0.59327 0.0
H309 H 0.4764 0.63997 0.54767 0.0
C310 C 0.47538 0.62654 0.52089 0.0
H311 H 0.50363 0.58284 0.48085 0.0
H312 H 0.53051 0.39313 0.54846 0.0
H313 H 0.44133 0.31839 0.50824 0.0
H314 H 0.39236 0.35875 0.47697 0.0
H315 H 0.43284 0.47417 0.48562 0.0
C316 C 0.50482 0.59611 0.50765 0.0
C317 C 0.53398 0.57305 0.52795 0.0
C318 C 0.50933 0.50525 0.52292 0.0
C319 C 0.53702 0.48196 0.54133 0.0
C320 C 0.51137 0.41383 0.53546 0.0
C321 C 0.46001 0.37018 0.51237 0.0
C322 C 0.43254 0.3929 0.49475 0.0
C323 C 0.45652 0.45946 0.49991 0.0
H324 H 0.16063 0.56634 0.04266 0.0
C325 C 0.17475 0.61021 0.06145 0.0
H326 H 0.14346 0.665 0.09216 0.0
H327 H 0.90774 0.56152 0.99202 0.0
H328 H 0.96074 0.67838 0.99912 0.0
H329 H 0.06264 0.75093 0.03217 0.0
H330 H 0.11177 0.70715 0.05864 0.0
C331 C 0.13091 0.62166 0.07301 0.0
C332 C 0.06588 0.57836 0.05658 0.0
C333 C 0.0378 0.60486 0.04117 0.0
C334 C 0.97945 0.56288 1.02159 0.0
C335 C 0.95222 0.59083 1.00685 0.0
C336 C 0.98214 0.65796 1.01073 0.0
C337 C 0.03944 0.6988 0.02938 0.0
C338 C 0.06712 0.67291 0.0445 0.0
H339 H 0.84967 0.42701 0.04531 0.0
C340 C 0.8382 0.42253 1.01932 0.0
H341 H 0.87435 0.45232 0.97566 0.0
H342 H 0.09906 0.51143 0.08829 0.0
H343 H 0.0494 0.39413 0.07821 0.0
H344 H 0.95524 0.32141 0.0387 0.0
H345 H 0.90916 0.36579 1.00993 0.0
C346 C 0.88449 0.45161 1.00088 0.0
C347 C 0.9493 0.49443 1.01733 0.0
C348 C 0.97782 0.46792 0.03227 0.0
C349 C 0.03456 0.50985 0.05311 0.0
C350 C 0.05844 0.48186 0.07037 0.0
C351 C 0.02996 0.41459 0.06513 0.0
C352 C 0.9768 0.37366 0.04302 0.0
C353 C 0.95065 0.39974 0.02684 0.0
H354 H 0.6252 0.19315 0.54422 0.0
C355 C 0.66012 0.2068 0.56378 0.0
H356 H 0.70893 0.17481 0.58664 0.0
H357 H 0.48927 0.88018 0.55778 0.0
H358 H 0.51708 0.90746 0.61687 0.0
H359 H 0.59641 1.01922 0.64598 0.0
H360 H 0.64914 0.10403 0.61607 0.0
C361 C 0.67271 0.16182 0.56771 0.0
C362 C 0.63113 0.092 0.54921 0.0
C363 C 0.60033 0.04263 0.56712 0.0
C364 C 0.55284 0.97847 0.55045 0.0
C365 C 0.5241 0.93015 0.56906 0.0
C366 C 0.53988 0.945 0.6031 0.0
C367 C 0.58466 1.00785 0.61946 0.0
C368 C 0.61473 0.05618 0.60186 0.0
H369 H 0.53644 0.87897 0.46439 0.0
C370 C 0.4918 0.85851 0.47427 0.0
H371 H 0.44066 0.87468 0.51123 0.0
H372 H 0.69196 0.168 0.50551 0.0
H373 H 0.65897 0.14397 0.44699 0.0
H374 H 0.56639 0.03875 0.4199 0.0
H375 H 0.50842 0.95634 0.45078 0.0
C376 C 0.48286 0.8965 0.49925 0.0
C377 C 0.5347 0.96374 0.51593 0.0
C378 C 0.56646 1.01283 0.49792 0.0
C379 C 0.61657 0.07566 0.5142 0.0
C380 C 0.65085 0.12137 0.49488 0.0
C381 C 0.63283 0.10793 0.46122 0.0
C382 C 0.58099 0.04861 0.44593 0.0
C383 C 0.54828 1.00142 0.46391 0.0
loop_
_geom_bond_atom_site_label_1
_geom_bond_atom_site_label_2
_geom_bond_distance
_geom_bond_site_symmetry_2
_ccdc_geom_bond_type
Mn0 O5 2.095 . S
Mn0 O15 2.162 . S
Mn0 O16 2.297 . S
Mn0 O24 2.385 . S
Mn0 O25 2.209 . S
Mn0 O26 2.094 . S
Mn1 O6 2.121 1_556 S
Mn1 N8 2.257 . S
Mn1 N17 2.282 . S
Mn1 O25 2.215 1_556 S
Mn1 O27 2.117 1_556 S
C2 O24 1.234 . S
C2 O25 1.283 . S
C3 O15 1.281 . S
C3 O16 1.236 . S
C4 O26 1.240 . S
C4 O27 1.264 . S
O5 Mn0 2.095 . S
O5 C14 1.250 . S
O6 Mn1 2.121 1_554 S
O6 C14 1.258 . S
C7 N8 1.326 . S
C7 C11 1.460 . S
C7 H13 0.929 . S
N8 Mn1 2.257 . S
N8 C7 1.326 . S
N8 C12 1.362 . S
C9 C10 1.258 . S
C9 C12 1.431 . S
C9 C29 1.449 . S
C10 C9 1.258 . S
C10 C11 1.477 . S
C10 H30 0.931 . S
C11 C7 1.460 . S
C11 C10 1.477 . S
C11 H31 0.930 . S
C12 N8 1.362 . S
C12 C9 1.431 . S
C12 C22 1.476 . S
H13 C7 0.929 . S
C14 O5 1.250 . S
C14 O6 1.258 . S
O15 Mn0 2.162 . S
O15 C3 1.281 . S
O16 Mn0 2.297 . S
O16 C3 1.236 . S
N17 Mn1 2.282 . S
N17 C18 1.328 . S
N17 C22 1.318 . S
C18 N17 1.328 . S
C18 C19 1.457 . S
C18 H23 0.929 . S
C19 C18 1.457 . S
C19 C20 1.291 . S
C19 H32 0.931 . S
C20 C19 1.291 . S
C20 C21 1.373 . S
C20 H33 0.929 . S
C21 C20 1.373 . S
C21 C22 1.396 . S
C21 C28 1.403 . S
C22 C12 1.476 . S
C22 N17 1.318 . S
C22 C21 1.396 . S
H23 C18 0.929 . S
O24 Mn0 2.385 . S
O24 C2 1.234 . S
O25 Mn0 2.209 . S
O25 Mn1 2.215 1_554 S
O25 C2 1.283 . S
O26 Mn0 2.094 . S
O26 C4 1.240 . S
O27 Mn1 2.117 1_554 S
O27 C4 1.264 . S
C28 C21 1.403 . S
C28 C29 1.399 . S
C28 H34 0.929 . S
C29 C9 1.449 . S
C29 C28 1.399 . S
C29 H35 0.930 . S
H30 C10 0.931 . S
H31 C11 0.930 . S
H32 C19 0.931 . S
H33 C20 0.929 . S
H34 C28 0.929 . S
H35 C29 0.930 . S
Mn36 O41 2.095 . S
Mn36 O51 2.162 . S
Mn36 O52 2.297 . S
Mn36 O60 2.385 . S
Mn36 O61 2.209 . S
Mn36 O62 2.094 . S
Mn37 O42 2.121 . S
Mn37 N44 2.257 . S
Mn37 N53 2.282 . S
Mn37 O61 2.215 . S
Mn37 O63 2.117 . S
C38 O60 1.234 . S
C38 O61 1.283 . S
C39 O51 1.281 . S
C39 O52 1.236 . S
C40 O62 1.240 . S
C40 O63 1.264 . S
O41 Mn36 2.095 . S
O41 C50 1.250 . S
O42 Mn37 2.121 . S
O42 C50 1.258 . S
C43 N44 1.326 . S
C43 C47 1.460 . S
C43 H49 0.929 . S
N44 Mn37 2.257 . S
N44 C43 1.326 . S
N44 C48 1.362 . S
C45 C46 1.258 . S
C45 C48 1.431 . S
C45 C65 1.449 . S
C46 C45 1.258 . S
C46 C47 1.477 . S
C46 H66 0.931 . S
C47 C43 1.460 . S
C47 C46 1.477 . S
C47 H67 0.930 . S
C48 N44 1.362 . S
C48 C45 1.431 . S
C48 C58 1.476 . S
H49 C43 0.929 . S
C50 O41 1.250 . S
C50 O42 1.258 . S
O51 Mn36 2.162 . S
O51 C39 1.281 . S
O52 Mn36 2.297 . S
O52 C39 1.236 . S
N53 Mn37 2.282 . S
N53 C54 1.328 . S
N53 C58 1.318 . S
C54 N53 1.328 . S
C54 C55 1.457 . S
C54 H59 0.929 . S
C55 C54 1.457 . S
C55 C56 1.291 . S
C55 H68 0.931 . S
C56 C55 1.291 . S
C56 C57 1.373 . S
C56 H69 0.929 . S
C57 C56 1.373 . S
C57 C58 1.396 . S
C57 C64 1.403 . S
C58 C48 1.476 . S
C58 N53 1.318 . S
C58 C57 1.396 . S
H59 C54 0.929 . S
O60 Mn36 2.385 . S
O60 C38 1.234 . S
O61 Mn36 2.209 . S
O61 Mn37 2.215 . S
O61 C38 1.283 . S
O62 Mn36 2.094 . S
O62 C40 1.240 . S
O63 Mn37 2.117 . S
O63 C40 1.264 . S
C64 C57 1.403 . S
C64 C65 1.399 . S
C64 H70 0.929 1_545 S
C65 C45 1.449 . S
C65 C64 1.399 . S
C65 H71 0.930 . S
H66 C46 0.931 . S
H67 C47 0.930 . S
H68 C55 0.931 . S
H69 C56 0.929 . S
H70 C64 0.929 1_565 S
H71 C65 0.930 . S
Mn72 O77 2.095 . S
Mn72 O87 2.162 . S
Mn72 O88 2.297 . S
Mn72 O96 2.385 . S
Mn72 O97 2.209 . S
Mn72 O98 2.094 . S
Mn73 O78 2.121 . S
Mn73 N80 2.257 . S
Mn73 N89 2.282 . S
Mn73 O97 2.215 . S
Mn73 O99 2.117 . S
C74 O96 1.234 . S
C74 O97 1.283 . S
C75 O87 1.281 . S
C75 O88 1.236 . S
C76 O98 1.240 . S
C76 O99 1.264 . S
O77 Mn72 2.095 . S
O77 C86 1.250 . S
O78 Mn73 2.121 . S
O78 C86 1.258 . S
C79 N80 1.326 . S
C79 C83 1.460 . S
C79 H85 0.929 . S
N80 Mn73 2.257 . S
N80 C79 1.326 . S
N80 C84 1.362 . S
C81 C82 1.258 . S
C81 C84 1.431 . S
C81 C101 1.449 . S
C82 C81 1.258 . S
C82 C83 1.477 . S
C82 H102 0.931 . S
C83 C79 1.460 . S
C83 C82 1.477 . S
C83 H103 0.930 . S
C84 N80 1.362 . S
C84 C81 1.431 . S
C84 C94 1.476 . S
H85 C79 0.929 . S
C86 O77 1.250 . S
C86 O78 1.258 . S
O87 Mn72 2.162 . S
O87 C75 1.281 . S
O88 Mn72 2.297 . S
O88 C75 1.236 . S
N89 Mn73 2.282 . S
N89 C90 1.328 . S
N89 C94 1.318 . S
C90 N89 1.328 . S
C90 C91 1.457 . S
C90 H95 0.929 . S
C91 C90 1.457 . S
C91 C92 1.291 . S
C91 H104 0.931 . S
C92 C91 1.291 . S
C92 C93 1.373 . S
C92 H105 0.929 . S
C93 C92 1.373 . S
C93 C94 1.396 . S
C93 C100 1.403 . S
C94 C84 1.476 . S
C94 N89 1.318 . S
C94 C93 1.396 . S
H95 C90 0.929 . S
O96 Mn72 2.385 . S
O96 C74 1.234 . S
O97 Mn72 2.209 . S
O97 Mn73 2.215 . S
O97 C74 1.283 . S
O98 Mn72 2.094 . S
O98 C76 1.240 . S
O99 Mn73 2.117 . S
O99 C76 1.264 . S
C100 C93 1.403 . S
C100 C101 1.399 . S
C100 H106 0.929 1_565 S
C101 C81 1.449 . S
C101 C100 1.399 . S
C101 H107 0.930 . S
H102 C82 0.931 . S
H103 C83 0.930 . S
H104 C91 0.931 . S
H105 C92 0.929 . S
H106 C100 0.929 1_545 S
H107 C101 0.930 . S
Mn108 O113 2.095 . S
Mn108 O123 2.162 . S
Mn108 O124 2.297 . S
Mn108 O132 2.385 . S
Mn108 O133 2.209 . S
Mn108 O134 2.094 . S
Mn109 O114 2.121 1_554 S
Mn109 N116 2.257 . S
Mn109 N125 2.282 . S
Mn109 O133 2.215 1_554 S
Mn109 O135 2.117 1_554 S
C110 O132 1.234 . S
C110 O133 1.283 . S
C111 O123 1.281 . S
C111 O124 1.236 . S
C112 O134 1.240 . S
C112 O135 1.264 . S
O113 Mn108 2.095 . S
O113 C122 1.250 . S
O114 Mn109 2.121 1_556 S
O114 C122 1.258 . S
C115 N116 1.326 . S
C115 C119 1.460 . S
C115 H121 0.929 . S
N116 Mn109 2.257 . S
N116 C115 1.326 . S
N116 C120 1.362 . S
C117 C118 1.258 . S
C117 C120 1.431 . S
C117 C137 1.449 . S
C118 C117 1.258 . S
C118 C119 1.477 . S
C118 H138 0.931 . S
C119 C115 1.460 . S
C119 C118 1.477 . S
C119 H139 0.930 . S
C120 N116 1.362 . S
C120 C117 1.431 . S
C120 C130 1.476 . S
H121 C115 0.929 . S
C122 O113 1.250 . S
C122 O114 1.258 . S
O123 Mn108 2.162 . S
O123 C111 1.281 . S
O124 Mn108 2.297 . S
O124 C111 1.236 . S
N125 Mn109 2.282 . S
N125 C126 1.328 . S
N125 C130 1.318 . S
C126 N125 1.328 . S
C126 C127 1.457 . S
C126 H131 0.929 . S
C127 C126 1.457 . S
C127 C128 1.291 . S
C127 H140 0.931 . S
C128 C127 1.291 . S
C128 C129 1.373 . S
C128 H141 0.929 . S
C129 C128 1.373 . S
C129 C130 1.396 . S
C129 C136 1.403 . S
C130 C120 1.476 . S
C130 N125 1.318 . S
C130 C129 1.396 . S
H131 C126 0.929 . S
O132 Mn108 2.385 . S
O132 C110 1.234 . S
O133 Mn108 2.209 . S
O133 Mn109 2.215 1_556 S
O133 C110 1.283 . S
O134 Mn108 2.094 . S
O134 C112 1.240 . S
O135 Mn109 2.117 1_556 S
O135 C112 1.264 . S
C136 C129 1.403 . S
C136 C137 1.399 . S
C136 H142 0.929 . S
C137 C117 1.449 . S
C137 C136 1.399 . S
C137 H143 0.930 . S
H138 C118 0.931 . S
H139 C119 0.930 . S
H140 C127 0.931 . S
H141 C128 0.929 . S
H142 C136 0.929 . S
H143 C137 0.930 . S
H144 C145 0.951 . S
C145 H144 0.951 . S
C145 C151 1.265 . S
H146 C151 0.950 . S
H147 C155 0.949 . S
H148 C156 0.950 . S
H149 C157 0.951 . S
H150 C158 0.951 . S
C151 C145 1.265 . S
C151 H146 0.950 . S
C151 C152 1.478 . S
C152 C151 1.478 . S
C152 C153 1.397 . S
C152 C169 1.394 . S
C153 C152 1.397 . S
C153 C154 1.438 . S
C153 C158 1.429 . S
C154 C153 1.438 . S
C154 C155 1.428 . S
C154 C167 1.394 . S
C155 H147 0.949 . S
C155 C154 1.428 . S
C155 C156 1.345 . S
C156 H148 0.950 . S
C156 C155 1.345 . S
C156 C157 1.424 . S
C157 H149 0.951 . S
C157 C156 1.424 . S
C157 C158 1.347 . S
C158 H150 0.951 . S
C158 C153 1.429 . S
C158 C157 1.347 . S
H159 C160 0.951 . S
C160 H159 0.951 . S
C160 C166 1.265 . S
H161 C166 0.950 . S
H162 C170 0.949 . S
H163 C171 0.950 . S
H164 C172 0.951 . S
H165 C173 0.951 . S
C166 C160 1.265 . S
C166 H161 0.950 . S
C166 C167 1.478 . S
C167 C154 1.394 . S
C167 C166 1.478 . S
C167 C168 1.397 . S
C168 C167 1.397 . S
C168 C169 1.438 . S
C168 C173 1.429 . S
C169 C152 1.394 . S
C169 C168 1.438 . S
C169 C170 1.428 . S
C170 H162 0.949 . S
C170 C169 1.428 . S
C170 C171 1.345 . S
C171 H163 0.950 . S
C171 C170 1.345 . S
C171 C172 1.424 . S
C172 H164 0.951 . S
C172 C171 1.424 . S
C172 C173 1.347 . S
C173 H165 0.951 . S
C173 C168 1.429 . S
C173 C172 1.347 . S
H174 C175 0.951 . S
C175 H174 0.951 . S
C175 C181 1.265 . S
H176 C181 0.950 . S
H177 C185 0.949 . S
H178 C186 0.950 . S
H179 C187 0.951 . S
H180 C188 0.951 . S
C181 C175 1.265 . S
C181 H176 0.950 . S
C181 C182 1.478 . S
C182 C181 1.478 . S
C182 C183 1.397 . S
C182 C199 1.394 . S
C183 C182 1.397 . S
C183 C184 1.438 . S
C183 C188 1.429 . S
C184 C183 1.438 . S
C184 C185 1.428 . S
C184 C197 1.394 . S
C185 H177 0.949 . S
C185 C184 1.428 . S
C185 C186 1.345 . S
C186 H178 0.950 . S
C186 C185 1.345 . S
C186 C187 1.424 . S
C187 H179 0.951 . S
C187 C186 1.424 . S
C187 C188 1.347 . S
C188 H180 0.951 . S
C188 C183 1.429 . S
C188 C187 1.347 . S
H189 C190 0.951 . S
C190 H189 0.951 . S
C190 C196 1.265 . S
H191 C196 0.950 . S
H192 C200 0.949 . S
H193 C201 0.950 . S
H194 C202 0.951 . S
H195 C203 0.951 . S
C196 C190 1.265 . S
C196 H191 0.950 . S
C196 C197 1.478 . S
C197 C184 1.394 . S
C197 C196 1.478 . S
C197 C198 1.397 . S
C198 C197 1.397 . S
C198 C199 1.438 . S
C198 C203 1.429 . S
C199 C182 1.394 . S
C199 C198 1.438 . S
C199 C200 1.428 . S
C200 H192 0.949 . S
C200 C199 1.428 . S
C200 C201 1.345 . S
C201 H193 0.950 . S
C201 C200 1.345 . S
C201 C202 1.424 . S
C202 H194 0.951 . S
C202 C201 1.424 . S
C202 C203 1.347 . S
C203 H195 0.951 . S
C203 C198 1.429 . S
C203 C202 1.347 . S
H204 C205 0.951 . S
C205 H204 0.951 . S
C205 C211 1.265 . S
H206 C211 0.950 . S
H207 C215 0.949 . S
H208 C216 0.950 . S
H209 C217 0.951 . S
H210 C218 0.951 . S
C211 C205 1.265 . S
C211 H206 0.950 . S
C211 C212 1.478 . S
C212 C211 1.478 . S
C212 C213 1.397 1_554 S
C212 C229 1.394 . S
C213 C212 1.397 1_556 S
C213 C214 1.438 . S
C213 C218 1.429 . S
C214 C213 1.438 . S
C214 C215 1.428 . S
C214 C227 1.394 . S
C215 H207 0.949 . S
C215 C214 1.428 . S
C215 C216 1.345 . S
C216 H208 0.950 . S
C216 C215 1.345 . S
C216 C217 1.424 . S
C217 H209 0.951 . S
C217 C216 1.424 . S
C217 C218 1.347 . S
C218 H210 0.951 . S
C218 C213 1.429 . S
C218 C217 1.347 . S
H219 C220 0.951 . S
C220 H219 0.951 . S
C220 C226 1.265 . S
H221 C226 0.950 . S
H222 C230 0.949 . S
H223 C231 0.950 . S
H224 C232 0.951 . S
H225 C233 0.951 . S
C226 C220 1.265 . S
C226 H221 0.950 . S
C226 C227 1.478 . S
C227 C214 1.394 . S
C227 C226 1.478 . S
C227 C228 1.397 1_556 S
C228 C227 1.397 1_554 S
C228 C229 1.438 . S
C228 C233 1.429 . S
C229 C212 1.394 . S
C229 C228 1.438 . S
C229 C230 1.428 . S
C230 H222 0.949 . S
C230 C229 1.428 . S
C230 C231 1.345 . S
C231 H223 0.950 . S
C231 C230 1.345 . S
C231 C232 1.424 . S
C232 H224 0.951 . S
C232 C231 1.424 . S
C232 C233 1.347 . S
C233 H225 0.951 . S
C233 C228 1.429 . S
C233 C232 1.347 . S
H234 C235 0.951 . S
C235 H234 0.951 . S
C235 C241 1.265 . S
H236 C241 0.950 . S
H237 C245 0.949 1_655 S
H238 C246 0.950 . S
H239 C247 0.951 . S
H240 C248 0.951 . S
C241 C235 1.265 . S
C241 H236 0.950 . S
C241 C242 1.478 . S
C242 C241 1.478 . S
C242 C243 1.397 . S
C242 C259 1.394 . S
C243 C242 1.397 . S
C243 C244 1.438 . S
C243 C248 1.429 . S
C244 C243 1.438 . S
C244 C245 1.428 . S
C244 C257 1.394 1_455 S
C245 H237 0.949 1_455 S
C245 C244 1.428 . S
C245 C246 1.345 . S
C246 H238 0.950 . S
C246 C245 1.345 . S
C246 C247 1.424 . S
C247 H239 0.951 . S
C247 C246 1.424 . S
C247 C248 1.347 . S
C248 H240 0.951 . S
C248 C243 1.429 . S
C248 C247 1.347 . S
H249 C250 0.951 . S
C250 H249 0.951 . S
C250 C256 1.265 . S
H251 C256 0.950 . S
H252 C260 0.949 . S
H253 C261 0.950 . S
H254 C262 0.951 . S
H255 C263 0.951 . S
C256 C250 1.265 . S
C256 H251 0.950 . S
C256 C257 1.478 . S
C257 C244 1.394 1_655 S
C257 C256 1.478 . S
C257 C258 1.397 . S
C258 C257 1.397 . S
C258 C259 1.438 1_655 S
C258 C263 1.429 . S
C259 C242 1.394 . S
C259 C258 1.438 1_455 S
C259 C260 1.428 . S
C260 H252 0.949 . S
C260 C259 1.428 . S
C260 C261 1.345 . S
C261 H253 0.950 . S
C261 C260 1.345 . S
C261 C262 1.424 1_455 S
C262 H254 0.951 . S
C262 C261 1.424 1_655 S
C262 C263 1.347 . S
C263 H255 0.951 . S
C263 C258 1.429 . S
C263 C262 1.347 . S
H264 C265 0.951 . S
C265 H264 0.951 . S
C265 C271 1.265 . S
H266 C271 0.950 . S
H267 C275 0.949 . S
H268 C276 0.950 . S
H269 C277 0.951 . S
H270 C278 0.947 1_545 S
C271 C265 1.265 . S
C271 H266 0.950 . S
C271 C272 1.478 . S
C272 C271 1.478 . S
C272 C273 1.397 . S
C272 C289 1.394 1_556 S
C273 C272 1.397 . S
C273 C274 1.438 1_545 S
C273 C278 1.431 1_545 S
C274 C273 1.438 1_565 S
C274 C275 1.428 . S
C274 C287 1.394 1_556 S
C275 H267 0.949 . S
C275 C274 1.428 . S
C275 C276 1.345 . S
C276 H268 0.950 . S
C276 C275 1.345 . S
C276 C277 1.424 . S
C277 H269 0.951 . S
C277 C276 1.424 . S
C277 C278 1.349 . S
C278 H270 0.947 1_565 S
C278 C273 1.431 1_565 S
C278 C277 1.349 . S
H279 C280 0.951 . S
C280 H279 0.951 . S
C280 C286 1.265 . S
H281 C286 0.950 . S
H282 C290 0.949 . S
H283 C291 0.950 . S
H284 C292 0.951 . S
H285 C293 0.947 1_565 S
C286 C280 1.265 . S
C286 H281 0.950 . S
C286 C287 1.478 . S
C287 C274 1.394 1_554 S
C287 C286 1.478 . S
C287 C288 1.397 . S
C288 C287 1.397 . S
C288 C289 1.438 1_565 S
C288 C293 1.431 1_565 S
C289 C272 1.394 1_554 S
C289 C288 1.438 1_545 S
C289 C290 1.428 . S
C290 H282 0.949 . S
C290 C289 1.428 . S
C290 C291 1.345 . S
C291 H283 0.950 . S
C291 C290 1.345 . S
C291 C292 1.424 . S
C292 H284 0.951 . S
C292 C291 1.424 . S
C292 C293 1.349 . S
C293 H285 0.947 1_545 S
C293 C288 1.431 1_545 S
C293 C292 1.349 . S
H294 C295 0.951 . S
C295 H294 0.951 . S
C295 C301 1.265 . S
H296 C301 0.950 . S
H297 C305 0.949 . S
H298 C306 0.950 . S
H299 C307 0.951 . S
H300 C308 0.951 . S
C301 C295 1.265 . S
C301 H296 0.950 . S
C301 C302 1.478 . S
C302 C301 1.478 . S
C302 C303 1.397 . S
C302 C319 1.394 . S
C303 C302 1.397 . S
C303 C304 1.438 . S
C303 C308 1.429 . S
C304 C303 1.438 . S
C304 C305 1.428 . S
C304 C317 1.394 . S
C305 H297 0.949 . S
C305 C304 1.428 . S
C305 C306 1.345 . S
C306 H298 0.950 . S
C306 C305 1.345 . S
C306 C307 1.424 . S
C307 H299 0.951 . S
C307 C306 1.424 . S
C307 C308 1.347 . S
C308 H300 0.951 . S
C308 C303 1.429 . S
C308 C307 1.347 . S
H309 C310 0.951 . S
C310 H309 0.951 . S
C310 C316 1.265 . S
H311 C316 0.950 . S
H312 C320 0.949 . S
H313 C321 0.950 . S
H314 C322 0.951 . S
H315 C323 0.951 . S
C316 C310 1.265 . S
C316 H311 0.950 . S
C316 C317 1.478 . S
C317 C304 1.394 . S
C317 C316 1.478 . S
C317 C318 1.397 . S
C318 C317 1.397 . S
C318 C319 1.438 . S
C318 C323 1.429 . S
C319 C302 1.394 . S
C319 C318 1.438 . S
C319 C320 1.428 . S
C320 H312 0.949 . S
C320 C319 1.428 . S
C320 C321 1.345 . S
C321 H313 0.950 . S
C321 C320 1.345 . S
C321 C322 1.424 . S
C322 H314 0.951 . S
C322 C321 1.424 . S
C322 C323 1.347 . S
C323 H315 0.951 . S
C323 C318 1.429 . S
C323 C322 1.347 . S
H324 C325 0.951 . S
C325 H324 0.951 . S
C325 C331 1.265 . S
H326 C331 0.950 . S
H327 C335 0.949 . S
H328 C336 0.950 . S
H329 C337 0.951 . S
H330 C338 0.951 . S
C331 C325 1.265 . S
C331 H326 0.950 . S
C331 C332 1.478 . S
C332 C331 1.478 . S
C332 C333 1.397 1_554 S
C332 C349 1.394 1_455 S
C333 C332 1.397 1_556 S
C333 C334 1.438 1_455 S
C333 C338 1.429 . S
C334 C333 1.438 1_655 S
C334 C335 1.428 . S
C334 C347 1.394 . S
C335 H327 0.949 . S
C335 C334 1.428 . S
C335 C336 1.345 . S
C336 H328 0.950 . S
C336 C335 1.345 . S
C336 C337 1.424 1_655 S
C337 H329 0.951 . S
C337 C336 1.424 1_455 S
C337 C338 1.347 . S
C338 H330 0.951 . S
C338 C333 1.429 . S
C338 C337 1.347 . S
H339 C340 0.951 . S
C340 H339 0.951 . S
C340 C346 1.265 . S
H341 C346 0.950 . S
H342 C350 0.949 . S
H343 C351 0.950 . S
H344 C352 0.951 . S
H345 C353 0.951 . S
C346 C340 1.265 . S
C346 H341 0.950 . S
C346 C347 1.478 . S
C347 C334 1.394 . S
C347 C346 1.478 . S
C347 C348 1.397 1_556 S
C348 C347 1.397 1_554 S
C348 C349 1.438 . S
C348 C353 1.429 . S
C349 C332 1.394 1_655 S
C349 C348 1.438 . S
C349 C350 1.428 1_655 S
C350 H342 0.949 . S
C350 C349 1.428 1_455 S
C350 C351 1.345 1_455 S
C351 H343 0.950 . S
C351 C350 1.345 1_655 S
C351 C352 1.424 . S
C352 H344 0.951 . S
C352 C351 1.424 . S
C352 C353 1.347 . S
C353 H345 0.951 . S
C353 C348 1.429 . S
C353 C352 1.347 . S
H354 C355 0.951 . S
C355 H354 0.951 . S
C355 C361 1.265 . S
H356 C361 0.950 . S
H357 C365 0.949 . S
H358 C366 0.950 . S
H359 C367 0.951 . S
H360 C368 0.951 . S
C361 C355 1.265 . S
C361 H356 0.950 . S
C361 C362 1.478 . S
C362 C361 1.478 . S
C362 C363 1.397 . S
C362 C379 1.394 . S
C363 C362 1.397 . S
C363 C364 1.438 1_545 S
C363 C368 1.429 . S
C364 C363 1.438 1_565 S
C364 C365 1.428 . S
C364 C377 1.394 . S
C365 H357 0.949 . S
C365 C364 1.428 . S
C365 C366 1.345 . S
C366 H358 0.950 . S
C366 C365 1.345 . S
C366 C367 1.424 1_565 S
C367 H359 0.951 . S
C367 C366 1.424 1_545 S
C367 C368 1.347 . S
C368 H360 0.951 . S
C368 C363 1.429 . S
C368 C367 1.347 . S
H369 C370 0.951 . S
C370 H369 0.951 . S
C370 C376 1.265 . S
H371 C376 0.950 . S
H372 C380 0.949 . S
H373 C381 0.950 . S
H374 C382 0.951 . S
H375 C383 0.951 . S
C376 C370 1.265 . S
C376 H371 0.950 . S
C376 C377 1.478 . S
C377 C364 1.394 . S
C377 C376 1.478 . S
C377 C378 1.397 . S
C378 C377 1.397 . S
C378 C379 1.438 1_565 S
C378 C383 1.429 . S
C379 C362 1.394 . S
C379 C378 1.438 1_545 S
C379 C380 1.428 . S
C380 H372 0.949 . S
C380 C379 1.428 . S
C380 C381 1.345 . S
C381 H373 0.950 . S
C381 C380 1.345 . S
C381 C382 1.424 1_545 S
C382 H374 0.951 . S
C382 C381 1.424 1_565 S
C382 C383 1.347 . S
C383 H375 0.951 . S
C383 C378 1.429 . S
C383 C382 1.347 . S
C145 C3 1.516 . S
C160 C76 1.518 . S
C175 C40 1.506 . S
C190 C111 1.492 . S
C205 C14 1.339 . S
C220 C110 1.401 . S
C235 C86 1.500 . S
C250 C39 1.600 . S
C265 C112 1.675 . S
C280 C4 1.668 . S
C295 C50 1.579 . S
C310 C75 1.613 . S
C325 C2 1.420 . S
C340 C122 1.369 . S
C355 C38 1.332 . S
C370 C74 1.323 . S
