# Generated by pormake.
# Topology yfw, (5)-cn, num edge types: 1
# Building blocks:
#     Node 0, Type 0, BuildingBlock: XOMCOT_clean_sbu_1, # of connection points: 5
#     Node 1, Type 0, BuildingBlock: XOMCOT_clean_sbu_1, # of connection points: 5
#     Node 2, Type 0, BuildingBlock: XOMCOT_clean_sbu_1, # of connection points: 5
#     Node 3, Type 0, BuildingBlock: XOMCOT_clean_sbu_1, # of connection points: 5
#     Node 4, Type 0, BuildingBlock: XOMCOT_clean_sbu_1, # of connection points: 5
#     Node 5, Type 0, BuildingBlock: XOMCOT_clean_sbu_1, # of connection points: 5
#     Node 6, Type 0, BuildingBlock: XOMCOT_clean_sbu_1, # of connection points: 5
#     Node 7, Type 0, BuildingBlock: XOMCOT_clean_sbu_1, # of connection points: 5
#     Node 8, Type 0, BuildingBlock: XOMCOT_clean_sbu_1, # of connection points: 5
#     Node 9, Type 0, BuildingBlock: XOMCOT_clean_sbu_1, # of connection points: 5
#     Node 10, Type 0, BuildingBlock: XOMCOT_clean_sbu_1, # of connection points: 5
#     Node 11, Type 0, BuildingBlock: XOMCOT_clean_sbu_1, # of connection points: 5
#     Node 12, Type 0, BuildingBlock: XOMCOT_clean_sbu_1, # of connection points: 5
#     Node 13, Type 0, BuildingBlock: XOMCOT_clean_sbu_1, # of connection points: 5
#     Node 14, Type 0, BuildingBlock: XOMCOT_clean_sbu_1, # of connection points: 5
#     Node 15, Type 0, BuildingBlock: XOMCOT_clean_sbu_1, # of connection points: 5
#     Edge 16, Type (0, 0), BuildingBlock: AJUNOK_clean_linker_0, # of connection points: 2
#     Edge 17, Type (0, 0), BuildingBlock: AJUNOK_clean_linker_0, # of connection points: 2
#     Edge 18, Type (0, 0), BuildingBlock: AJUNOK_clean_linker_0, # of connection points: 2
#     Edge 19, Type (0, 0), BuildingBlock: AJUNOK_clean_linker_0, # of connection points: 2
#     Edge 20, Type (0, 0), BuildingBlock: AJUNOK_clean_linker_0, # of connection points: 2
#     Edge 21, Type (0, 0), BuildingBlock: AJUNOK_clean_linker_0, # of connection points: 2
#     Edge 22, Type (0, 0), BuildingBlock: AJUNOK_clean_linker_0, # of connection points: 2
#     Edge 23, Type (0, 0), BuildingBlock: AJUNOK_clean_linker_0, # of connection points: 2
#     Edge 24, Type (0, 0), BuildingBlock: AJUNOK_clean_linker_0, # of connection points: 2
#     Edge 25, Type (0, 0), BuildingBlock: AJUNOK_clean_linker_0, # of connection points: 2
#     Edge 26, Type (0, 0), BuildingBlock: AJUNOK_clean_linker_0, # of connection points: 2
#     Edge 27, Type (0, 0), BuildingBlock: AJUNOK_clean_linker_0, # of connection points: 2
#     Edge 28, Type (0, 0), BuildingBlock: AJUNOK_clean_linker_0, # of connection points: 2
#     Edge 29, Type (0, 0), BuildingBlock: AJUNOK_clean_linker_0, # of connection points: 2
#     Edge 30, Type (0, 0), BuildingBlock: AJUNOK_clean_linker_0, # of connection points: 2
#     Edge 31, Type (0, 0), BuildingBlock: AJUNOK_clean_linker_0, # of connection points: 2
#     Edge 32, Type (0, 0), BuildingBlock: AJUNOK_clean_linker_0, # of connection points: 2
#     Edge 33, Type (0, 0), BuildingBlock: AJUNOK_clean_linker_0, # of connection points: 2
#     Edge 34, Type (0, 0), BuildingBlock: AJUNOK_clean_linker_0, # of connection points: 2
#     Edge 35, Type (0, 0), BuildingBlock: AJUNOK_clean_linker_0, # of connection points: 2
#     Edge 36, Type (0, 0), BuildingBlock: AJUNOK_clean_linker_0, # of connection points: 2
#     Edge 37, Type (0, 0), BuildingBlock: AJUNOK_clean_linker_0, # of connection points: 2
#     Edge 38, Type (0, 0), BuildingBlock: AJUNOK_clean_linker_0, # of connection points: 2
#     Edge 39, Type (0, 0), BuildingBlock: AJUNOK_clean_linker_0, # of connection points: 2
#     Edge 40, Type (0, 0), BuildingBlock: AJUNOK_clean_linker_0, # of connection points: 2
#     Edge 41, Type (0, 0), BuildingBlock: AJUNOK_clean_linker_0, # of connection points: 2
#     Edge 42, Type (0, 0), BuildingBlock: AJUNOK_clean_linker_0, # of connection points: 2
#     Edge 43, Type (0, 0), BuildingBlock: AJUNOK_clean_linker_0, # of connection points: 2
#     Edge 44, Type (0, 0), BuildingBlock: AJUNOK_clean_linker_0, # of connection points: 2
#     Edge 45, Type (0, 0), BuildingBlock: AJUNOK_clean_linker_0, # of connection points: 2
#     Edge 46, Type (0, 0), BuildingBlock: AJUNOK_clean_linker_0, # of connection points: 2
#     Edge 47, Type (0, 0), BuildingBlock: AJUNOK_clean_linker_0, # of connection points: 2
#     Edge 48, Type (0, 0), BuildingBlock: AJUNOK_clean_linker_0, # of connection points: 2
#     Edge 49, Type (0, 0), BuildingBlock: AJUNOK_clean_linker_0, # of connection points: 2
#     Edge 50, Type (0, 0), BuildingBlock: AJUNOK_clean_linker_0, # of connection points: 2
#     Edge 51, Type (0, 0), BuildingBlock: AJUNOK_clean_linker_0, # of connection points: 2
#     Edge 52, Type (0, 0), BuildingBlock: AJUNOK_clean_linker_0, # of connection points: 2
#     Edge 53, Type (0, 0), BuildingBlock: AJUNOK_clean_linker_0, # of connection points: 2
#     Edge 54, Type (0, 0), BuildingBlock: AJUNOK_clean_linker_0, # of connection points: 2
#     Edge 55, Type (0, 0), BuildingBlock: AJUNOK_clean_linker_0, # of connection points: 2
# Relax obj value: 0.106
# Max RMSD: 0.154
# Mean RMSD: 0.154
data_MOF--net-yfw--node1-XOMCOT_clean_sbu_1--edge1-AJUNOK_clean_linker_0
_symmetry_space_group_name_H-M    P1
_symmetry_Int_Tables_number       1
_symmetry_cell_setting            triclinic
loop_
_symmetry_equiv_pos_as_xyz
'x, y, z'
_cell_length_a     44.525495
_cell_length_b     44.5153
_cell_length_c     18.598351
_cell_angle_alpha  89.999462
_cell_angle_beta   90.219903
_cell_angle_gamma 89.902793
loop_
_atom_site_label
_atom_site_type_symbol
_atom_site_fract_x
_atom_site_fract_y
_atom_site_fract_z
_atom_type_partial_charge
C0 C 0.08404 0.08387 0.94027 0.0
C1 C 0.05629 0.0706 0.93628 0.0
N2 N 0.05649 0.04589 0.97828 0.0
N3 N 0.10186 0.06753 0.98389 0.0
C4 C 0.08458 0.04441 1.00605 0.0
H5 H 0.09119 0.10366 0.9113 0.0
Co6 Co 0.14215 0.07611 0.99768 0.0
C7 C 0.15379 0.05377 0.14883 0.0
O8 O 0.16475 0.07989 0.168 0.0
N9 N 0.18377 0.08528 1.00953 0.0
C10 C 0.22681 0.10745 0.04039 0.0
C11 C 0.19667 0.10588 0.05345 0.0
C12 C 0.20714 0.07462 0.97046 0.0
N13 N 0.23348 0.08794 0.98773 0.0
O14 O 0.15172 0.04213 0.93776 0.0
H15 H 0.1851 0.12004 0.09146 0.0
H16 H 0.20494 0.05761 0.9295 0.0
O17 O 0.1437 0.05008 0.08464 0.0
C18 C 0.14904 0.04718 0.87031 0.0
O19 O 0.14272 0.07468 0.84939 0.0
N20 N 0.13085 0.1106 0.04884 0.0
C21 C 0.11182 0.16525 0.10565 0.0
C22 C 0.10332 0.13807 0.13788 0.0
C23 C 0.11271 0.11085 0.10785 0.0
C24 C 0.13773 0.13679 1.01454 0.0
C25 C 0.12916 0.16443 0.04315 0.0
H26 H 0.10488 0.09004 0.13101 0.0
H27 H 0.15028 0.13612 0.96486 0.0
H28 H 0.09256 0.0266 0.0408 0.0
H29 H 0.03795 0.07791 0.9022 0.0
H30 H 0.24238 0.12298 0.06533 0.0
H31 H 0.08933 0.13789 0.18541 0.0
H32 H 0.13536 0.18495 1.01568 0.0
C33 C 0.91669 0.57583 0.20617 0.0
C34 C 0.93081 0.54841 0.19849 0.0
N35 N 0.95815 0.55003 0.22976 0.0
N36 N 0.93493 0.59446 0.24294 0.0
C37 C 0.9598 0.57808 0.2571 0.0
H38 H 0.89528 0.58229 0.18318 0.0
Co39 Co 0.93142 0.6358 0.25453 0.0
C40 C 0.94834 0.64428 0.40737 0.0
O41 O 0.92373 0.66017 0.41645 0.0
N42 N 0.92967 0.67813 0.26358 0.0
C43 C 0.94716 0.72442 0.28184 0.0
C44 C 0.95144 0.69461 0.29579 0.0
C45 C 0.91335 0.69884 0.22671 0.0
N46 N 0.92327 0.72714 0.23815 0.0
O47 O 0.96711 0.6405 0.19976 0.0
H48 H 0.971 0.68567 0.3228 0.0
H49 H 0.89665 0.69333 0.1866 0.0
O50 O 0.95439 0.63334 0.34526 0.0
C51 C 0.96015 0.63958 0.13327 0.0
O52 O 0.93157 0.63774 0.116 0.0
N53 N 0.89453 0.63015 0.30274 0.0
C54 C 0.83782 0.61721 0.35851 0.0
C55 C 0.86369 0.60397 0.38788 0.0
C56 C 0.89171 0.6102 0.35824 0.0
C57 C 0.86942 0.64207 0.27157 0.0
C58 C 0.8409 0.63637 0.29935 0.0
H59 H 0.9111 0.59832 0.37884 0.0
H60 H 0.8711 0.65462 0.22241 0.0
H61 H 0.97915 0.58706 0.28495 0.0
H62 H 0.92226 0.5293 0.16884 0.0
H63 H 0.96163 0.74261 0.29902 0.0
H64 H 0.86221 0.58837 0.43243 0.0
H65 H 0.82136 0.6457 0.27257 0.0
C66 C 0.42699 0.41844 0.43308 0.0
C67 C 0.45433 0.43228 0.42312 0.0
N68 N 0.45313 0.45973 0.45363 0.0
N69 N 0.40896 0.437 0.47055 0.0
C70 C 0.42552 0.4618 0.48271 0.0
H71 H 0.42021 0.39687 0.4118 0.0
Co72 Co 0.36824 0.43297 0.4869 0.0
C73 C 0.36272 0.45116 0.64038 0.0
O74 O 0.34824 0.42597 0.65248 0.0
N75 N 0.32622 0.43022 0.4999 0.0
C76 C 0.27941 0.44554 0.5214 0.0
C77 C 0.30916 0.4507 0.53491 0.0
C78 C 0.30591 0.41384 0.46211 0.0
N79 N 0.27732 0.42238 0.47551 0.0
O80 O 0.36169 0.46841 0.43035 0.0
H81 H 0.31749 0.47012 0.56335 0.0
H82 H 0.31186 0.39813 0.42021 0.0
O83 O 0.37183 0.45711 0.57648 0.0
C84 C 0.36276 0.46307 0.363 0.0
O85 O 0.36581 0.43502 0.34213 0.0
N86 N 0.37603 0.39661 0.53746 0.0
C87 C 0.39367 0.3411 0.59492 0.0
C88 C 0.40707 0.3678 0.61849 0.0
C89 C 0.39829 0.3952 0.58842 0.0
C90 C 0.36348 0.37068 0.51246 0.0
C91 C 0.37145 0.34281 0.54147 0.0
H92 H 0.4101 0.41527 0.60476 0.0
H93 H 0.34815 0.37113 0.46775 0.0
H94 H 0.41705 0.48131 0.51075 0.0
H95 H 0.4731 0.42343 0.39292 0.0
H96 H 0.26077 0.45898 0.54042 0.0
H97 H 0.42476 0.36748 0.65862 0.0
H98 H 0.36039 0.32279 0.5217 0.0
C99 C 0.59291 0.92807 0.68426 0.0
C100 C 0.58066 0.95637 0.68216 0.0
N101 N 0.55557 0.95642 0.7225 0.0
N102 N 0.57556 0.91026 0.72527 0.0
C103 C 0.55285 0.92804 0.74751 0.0
H104 H 0.61288 0.92066 0.65643 0.0
Co105 Co 0.58332 0.86986 0.73994 0.0
C106 C 0.56282 0.86167 0.89382 0.0
O107 O 0.58932 0.85145 0.91236 0.0
N108 N 0.59188 0.8281 0.75305 0.0
C109 C 0.61297 0.78514 0.78928 0.0
C110 C 0.61135 0.8154 0.80039 0.0
C111 C 0.58239 0.8045 0.71276 0.0
N112 N 0.59466 0.77817 0.7344 0.0
O113 O 0.54863 0.86061 0.6809 0.0
H114 H 0.62535 0.82717 0.83843 0.0
H115 H 0.56753 0.80648 0.66692 0.0
O116 O 0.5578 0.86966 0.82843 0.0
C117 C 0.55459 0.86364 0.61405 0.0
O118 O 0.58266 0.8686 0.59618 0.0
N119 N 0.61831 0.88081 0.78967 0.0
C120 C 0.67327 0.89769 0.84839 0.0
C121 C 0.64634 0.90854 0.87752 0.0
C122 C 0.61902 0.9003 0.84634 0.0
C123 C 0.64434 0.87223 0.75703 0.0
C124 C 0.67213 0.87984 0.78649 0.0
H125 H 0.59847 0.90968 0.86746 0.0
H126 H 0.64343 0.85891 0.70841 0.0
H127 H 0.53449 0.92027 0.78062 0.0
H128 H 0.5889 0.97503 0.65068 0.0
H129 H 0.62812 0.76978 0.81635 0.0
H130 H 0.64641 0.92321 0.924 0.0
H131 H 0.6925 0.8722 0.76058 0.0
C132 C 0.93298 0.09298 0.4647 0.0
C133 C 0.96188 0.08196 0.46083 0.0
N134 N 0.96289 0.05521 0.49489 0.0
N135 N 0.91583 0.07327 0.50092 0.0
C136 C 0.93458 0.05052 0.51838 0.0
H137 H 0.92466 0.11336 0.43994 0.0
Co138 Co 0.87427 0.07474 0.5122 0.0
C139 C 0.86764 0.05725 0.66559 0.0
O140 O 0.85113 0.08134 0.67625 0.0
N141 N 0.83179 0.07493 0.52048 0.0
C142 C 0.78515 0.05942 0.54372 0.0
C143 C 0.81505 0.05482 0.55747 0.0
C144 C 0.8112 0.09002 0.48035 0.0
N145 N 0.78276 0.08164 0.4954 0.0
O146 O 0.87106 0.03879 0.45735 0.0
H147 H 0.82373 0.03624 0.58854 0.0
H148 H 0.81682 0.1056 0.43794 0.0
O149 O 0.87783 0.05163 0.60255 0.0
C150 C 0.87219 0.04425 0.39016 0.0
O151 O 0.8744 0.07238 0.36935 0.0
N152 N 0.87838 0.11182 0.56149 0.0
C153 C 0.89025 0.16871 0.61827 0.0
C154 C 0.90487 0.14324 0.64549 0.0
C155 C 0.89905 0.11514 0.61557 0.0
C156 C 0.86474 0.1366 0.53299 0.0
C157 C 0.86991 0.16519 0.56138 0.0
H158 H 0.91196 0.09613 0.63451 0.0
H159 H 0.85117 0.13476 0.48534 0.0
H160 H 0.92729 0.03033 0.54558 0.0
H161 H 0.98012 0.09207 0.43123 0.0
H162 H 0.76668 0.0461 0.56386 0.0
H163 H 0.9213 0.14513 0.68836 0.0
H164 H 0.85929 0.18452 0.53657 0.0
C165 C 0.91346 0.4346 0.69652 0.0
C166 C 0.92564 0.46293 0.69017 0.0
N167 N 0.95229 0.46336 0.72509 0.0
N168 N 0.93234 0.41725 0.73508 0.0
C169 C 0.95567 0.43532 0.7517 0.0
H170 H 0.89317 0.42661 0.67076 0.0
Co171 Co 0.93118 0.37575 0.74543 0.0
C172 C 0.95006 0.36668 0.89729 0.0
O173 O 0.92669 0.34915 0.90708 0.0
N174 N 0.93166 0.33335 0.75339 0.0
C175 C 0.9514 0.28778 0.76985 0.0
C176 C 0.95496 0.31784 0.78218 0.0
C177 C 0.91507 0.31188 0.72015 0.0
N178 N 0.92632 0.284 0.73067 0.0
O179 O 0.96706 0.37305 0.69051 0.0
H180 H 0.9747 0.32772 0.80638 0.0
H181 H 0.8969 0.31651 0.68325 0.0
O182 O 0.95425 0.37887 0.83569 0.0
C183 C 0.96041 0.37386 0.62386 0.0
O184 O 0.93189 0.37497 0.6056 0.0
N185 N 0.89411 0.37928 0.79381 0.0
C186 C 0.83652 0.38825 0.84921 0.0
C187 C 0.86159 0.4018 0.88149 0.0
C188 C 0.8901 0.39756 0.85209 0.0
C189 C 0.86973 0.36746 0.75953 0.0
C190 C 0.84088 0.37087 0.78738 0.0
H191 H 0.9088 0.40974 0.87497 0.0
H192 H 0.87227 0.35663 0.70826 0.0
H193 H 0.97553 0.42755 0.77966 0.0
H194 H 0.91647 0.48097 0.6579 0.0
H195 H 0.96691 0.27018 0.7855 0.0
H196 H 0.85907 0.4164 0.92769 0.0
H197 H 0.82213 0.36043 0.75988 0.0
C198 C 0.57282 0.42206 0.92373 0.0
C199 C 0.54563 0.43656 0.91581 0.0
N200 N 0.5472 0.46315 0.95033 0.0
N201 N 0.59118 0.43932 0.96389 0.0
C202 C 0.57497 0.46407 0.97947 0.0
H203 H 0.57919 0.40084 0.89985 0.0
Co204 Co 0.63177 0.43358 0.98155 0.0
C205 C 0.63633 0.45049 0.13599 0.0
O206 O 0.64898 0.42434 0.14903 0.0
N207 N 0.67369 0.42911 0.99585 0.0
C208 C 0.72124 0.43892 0.02583 0.0
C209 C 0.69181 0.44618 0.03785 0.0
C210 C 0.69318 0.41317 0.95497 0.0
N211 N 0.72209 0.41823 0.97354 0.0
O212 O 0.63952 0.46877 0.9262 0.0
H213 H 0.68477 0.46474 0.07102 0.0
H214 H 0.68644 0.39926 0.91005 0.0
O215 O 0.6288 0.45737 0.07131 0.0
C216 C 0.63895 0.46314 0.85899 0.0
O217 O 0.63637 0.43497 0.83865 0.0
N218 N 0.62273 0.39742 0.03138 0.0
C219 C 0.60629 0.34308 0.09569 0.0
C220 C 0.59089 0.36969 0.11184 0.0
C221 C 0.59938 0.39653 0.07908 0.0
C222 C 0.63649 0.37133 1.01149 0.0
C223 C 0.62909 0.34407 0.044 0.0
H224 H 0.58697 0.41669 0.09194 0.0
H225 H 0.6528 0.37114 0.9691 0.0
H226 H 0.58367 0.48261 1.01072 0.0
H227 H 0.5266 0.42867 0.88477 0.0
H228 H 0.74067 0.44965 0.04977 0.0
H229 H 0.57219 0.3698 0.14885 0.0
H230 H 0.64118 0.32394 0.0287 0.0
C231 C 0.59042 0.07995 0.18579 0.0
C232 C 0.57782 0.05192 0.18021 0.0
N233 N 0.55226 0.05159 0.2189 0.0
N234 N 0.57285 0.09736 0.2273 0.0
C235 C 0.54964 0.07961 0.24638 0.0
H236 H 0.61066 0.08755 0.15949 0.0
Co237 Co 0.58017 0.13777 0.24326 0.0
C238 C 0.55781 0.14449 0.39711 0.0
O239 O 0.58456 0.15215 0.42013 0.0
N240 N 0.58788 0.17947 0.25762 0.0
C241 C 0.60676 0.22277 0.29753 0.0
C242 C 0.60508 0.19252 0.30906 0.0
C243 C 0.57964 0.2028 0.21492 0.0
N244 N 0.5906 0.22937 0.23855 0.0
O245 O 0.54575 0.14695 0.18305 0.0
H246 H 0.61784 0.18095 0.34988 0.0
H247 H 0.56664 0.20043 0.16609 0.0
O248 O 0.55387 0.13771 0.3305 0.0
C249 C 0.55052 0.14416 0.11551 0.0
O250 O 0.57806 0.13842 0.09433 0.0
N251 N 0.61519 0.1271 0.29456 0.0
C252 C 0.67012 0.11186 0.35782 0.0
C253 C 0.64324 0.09881 0.38184 0.0
C254 C 0.61601 0.10644 0.3488 0.0
C255 C 0.64133 0.13763 0.26603 0.0
C256 C 0.66895 0.13095 0.29793 0.0
H257 H 0.59556 0.09578 0.36675 0.0
H258 H 0.64063 0.15202 0.21918 0.0
H259 H 0.53095 0.08719 0.27871 0.0
H260 H 0.58619 0.03373 0.14732 0.0
H261 H 0.6207 0.23833 0.32738 0.0
H262 H 0.64325 0.08257 0.42519 0.0
H263 H 0.68915 0.14096 0.27636 0.0
C264 C 0.57518 0.58737 0.42037 0.0
C265 C 0.54714 0.57493 0.41112 0.0
N266 N 0.54608 0.54896 0.44843 0.0
N267 N 0.59164 0.56928 0.46315 0.0
C268 C 0.57344 0.5461 0.47917 0.0
H269 H 0.58358 0.60748 0.3948 0.0
Co270 Co 0.63234 0.57248 0.48185 0.0
C271 C 0.63686 0.55482 0.6353 0.0
O272 O 0.6513 0.58004 0.64752 0.0
N273 N 0.67431 0.57438 0.497 0.0
C274 C 0.72076 0.55847 0.52133 0.0
C275 C 0.69086 0.55376 0.53326 0.0
C276 C 0.69506 0.59029 0.45993 0.0
N277 N 0.72344 0.58144 0.47508 0.0
O278 O 0.63843 0.53708 0.42605 0.0
H279 H 0.68211 0.53455 0.56163 0.0
H280 H 0.68954 0.60596 0.41746 0.0
O281 O 0.62801 0.54854 0.5712 0.0
C282 C 0.63878 0.54263 0.35882 0.0
O283 O 0.63761 0.57084 0.33808 0.0
N284 N 0.62493 0.60883 0.53234 0.0
C285 C 0.60939 0.66369 0.59549 0.0
C286 C 0.59385 0.6374 0.61297 0.0
C287 C 0.60183 0.61032 0.58067 0.0
C288 C 0.63898 0.63459 0.5115 0.0
C289 C 0.63199 0.66213 0.54337 0.0
H290 H 0.58903 0.59049 0.5939 0.0
H291 H 0.655 0.63431 0.4685 0.0
H292 H 0.58051 0.52692 0.51071 0.0
H293 H 0.52967 0.58353 0.37613 0.0
H294 H 0.73908 0.54489 0.5418 0.0
H295 H 0.57531 0.63776 0.65048 0.0
H296 H 0.64414 0.68205 0.52708 0.0
C297 C 0.42921 0.07712 0.68653 0.0
C298 C 0.44358 0.04986 0.68372 0.0
N299 N 0.46922 0.05185 0.72214 0.0
N300 N 0.44558 0.0962 0.72685 0.0
C301 C 0.46985 0.08024 0.74799 0.0
H302 H 0.40832 0.08291 0.66005 0.0
Co303 Co 0.43497 0.13592 0.74105 0.0
C304 C 0.45576 0.1463 0.89473 0.0
O305 O 0.42855 0.15439 0.91271 0.0
N306 N 0.42336 0.17713 0.75297 0.0
C307 C 0.39885 0.21864 0.78627 0.0
C308 C 0.40334 0.18882 0.8001 0.0
C309 C 0.43032 0.20086 0.7103 0.0
N310 N 0.41562 0.22628 0.72942 0.0
O311 O 0.46835 0.14736 0.68068 0.0
H312 H 0.39079 0.17643 0.83966 0.0
H313 H 0.44537 0.19952 0.66503 0.0
O314 O 0.46109 0.13833 0.82947 0.0
C315 C 0.46231 0.14397 0.61378 0.0
O316 O 0.4346 0.13704 0.59594 0.0
N317 N 0.40122 0.12254 0.79185 0.0
C318 C 0.34781 0.10045 0.84888 0.0
C319 C 0.37564 0.09174 0.87793 0.0
C320 C 0.40218 0.10265 0.84777 0.0
C321 C 0.37452 0.12933 0.75962 0.0
C322 C 0.34753 0.11938 0.78859 0.0
H323 H 0.42349 0.09489 0.86878 0.0
H324 H 0.3742 0.14325 0.71194 0.0
H325 H 0.48748 0.08929 0.78172 0.0
H326 H 0.43617 0.03032 0.65394 0.0
H327 H 0.38297 0.23317 0.81329 0.0
H328 H 0.37688 0.07654 0.92332 0.0
H329 H 0.32668 0.12707 0.76473 0.0
C330 C 0.93465 0.91831 0.96789 0.0
C331 C 0.96282 0.93099 0.96264 0.0
N332 N 0.96214 0.95816 0.99469 0.0
N333 N 0.91653 0.93732 1.00379 0.0
C334 C 0.93395 0.96111 0.02013 0.0
H335 H 0.92738 0.89745 0.94364 0.0
Co336 Co 0.87504 0.93599 1.01264 0.0
C337 C 0.86636 0.95345 0.16529 0.0
O338 O 0.84931 0.92967 0.17416 0.0
N339 N 0.83274 0.93625 0.01857 0.0
C340 C 0.78642 0.95419 0.03386 0.0
C341 C 0.81603 0.95752 0.05184 0.0
C342 C 0.81259 0.92145 0.977 0.0
N343 N 0.78424 0.93147 0.9867 0.0
O344 O 0.87249 0.97205 0.95773 0.0
H345 H 0.82473 0.97614 0.08266 0.0
H346 H 0.81874 0.90575 0.93525 0.0
O347 O 0.87772 0.95886 0.10335 0.0
C348 C 0.87394 0.96653 0.89059 0.0
O349 O 0.87598 0.93835 0.87006 0.0
N350 N 0.87847 0.89883 0.06171 0.0
C351 C 0.88916 0.84176 0.11894 0.0
C352 C 0.9035 0.86707 0.14763 0.0
C353 C 0.89829 0.89527 0.11747 0.0
C354 C 0.86516 0.8742 0.03179 0.0
C355 C 0.86972 0.84553 0.06037 0.0
H356 H 0.911 0.91415 0.13764 0.0
H357 H 0.85236 0.87621 0.98297 0.0
H358 H 0.92561 0.98077 0.04776 0.0
H359 H 0.98175 0.92178 0.93364 0.0
H360 H 0.76808 0.96839 0.05131 0.0
H361 H 0.91927 0.86498 0.19186 0.0
H362 H 0.85939 0.82633 0.03448 0.0
C363 C 0.08722 0.42823 0.19579 0.0
C364 C 0.07499 0.45662 0.18944 0.0
N365 N 0.04847 0.45714 0.22443 0.0
N366 N 0.06847 0.41094 0.23443 0.0
C367 C 0.0452 0.42911 0.25097 0.0
H368 H 0.10752 0.42021 0.17039 0.0
Co369 Co 0.0698 0.36943 0.24684 0.0
C370 C 0.05057 0.36357 0.39947 0.0
O371 O 0.07429 0.34687 0.41328 0.0
N372 N 0.06951 0.32705 0.25642 0.0
C373 C 0.05156 0.28107 0.27665 0.0
C374 C 0.04839 0.31096 0.29171 0.0
C375 C 0.08415 0.30609 0.21675 0.0
N376 N 0.07377 0.27799 0.22865 0.0
O377 O 0.03418 0.3664 0.19008 0.0
H378 H 0.02997 0.32014 0.32213 0.0
H379 H 0.10026 0.3114 0.17535 0.0
O380 O 0.0462 0.37351 0.3356 0.0
C381 C 0.04075 0.36806 0.12357 0.0
O382 O 0.06925 0.3692 0.10568 0.0
N383 N 0.10657 0.37344 0.29774 0.0
C384 C 0.16338 0.38561 0.35558 0.0
C385 C 0.13771 0.39999 0.38226 0.0
C386 C 0.10969 0.39409 0.35171 0.0
C387 C 0.13145 0.35979 0.27008 0.0
C388 C 0.16 0.36521 0.29881 0.0
H389 H 0.09062 0.407 0.36997 0.0
H390 H 0.12968 0.34604 0.22277 0.0
H391 H 0.0255 0.42147 0.27922 0.0
H392 H 0.08411 0.47468 0.15741 0.0
H393 H 0.03771 0.26312 0.29739 0.0
H394 H 0.13936 0.41637 0.42516 0.0
H395 H 0.17938 0.35471 0.27428 0.0
C396 C 0.42475 0.59133 0.93526 0.0
C397 C 0.45307 0.57936 0.92704 0.0
N398 N 0.454 0.55252 0.96074 0.0
N399 N 0.40795 0.57209 0.97377 0.0
C400 C 0.42628 0.54874 0.98848 0.0
H401 H 0.41639 0.61185 0.91124 0.0
Co402 Co 0.36689 0.57415 0.98732 0.0
C403 C 0.35941 0.55514 0.1396 0.0
O404 O 0.34296 0.57927 0.15025 0.0
N405 N 0.32468 0.57508 0.99811 0.0
C406 C 0.27824 0.55912 0.02156 0.0
C407 C 0.30826 0.55305 0.02916 0.0
C408 C 0.30373 0.59316 0.96748 0.0
N409 N 0.27548 0.58443 0.98299 0.0
O410 O 0.36265 0.53842 0.93057 0.0
H411 H 0.3173 0.53271 0.05245 0.0
H412 H 0.30866 0.61129 0.93094 0.0
O413 O 0.37047 0.55012 0.07702 0.0
C414 C 0.36359 0.54369 0.86317 0.0
O415 O 0.36538 0.5718 0.84201 0.0
N416 N 0.37233 0.61088 0.03778 0.0
C417 C 0.38583 0.66739 0.09578 0.0
C418 C 0.39862 0.64121 0.12463 0.0
C419 C 0.39212 0.61332 0.09397 0.0
C420 C 0.36103 0.63631 1.00685 0.0
C421 C 0.36673 0.66465 0.03612 0.0
H422 H 0.40392 0.5938 0.11395 0.0
H423 H 0.34898 0.63504 0.9568 0.0
H424 H 0.41896 0.52869 0.0162 0.0
H425 H 0.47078 0.58885 0.89458 0.0
H426 H 0.25984 0.54503 0.0389 0.0
H427 H 0.41446 0.64236 0.16891 0.0
H428 H 0.35674 0.68426 1.01116 0.0
C429 C 0.42582 0.92915 0.19012 0.0
C430 C 0.43899 0.95708 0.18593 0.0
N431 N 0.46571 0.95596 0.22024 0.0
N432 N 0.44404 0.91066 0.22753 0.0
C433 C 0.46798 0.9276 0.24554 0.0
H434 H 0.4049 0.92239 0.16523 0.0
Co435 Co 0.43974 0.86954 0.23919 0.0
C436 C 0.46014 0.86194 0.39308 0.0
O437 O 0.43486 0.84831 0.40898 0.0
N438 N 0.43629 0.82721 0.24781 0.0
C439 C 0.44658 0.7792 0.27258 0.0
C440 C 0.4541 0.80848 0.28648 0.0
C441 C 0.41955 0.80831 0.20688 0.0
N442 N 0.4249 0.77914 0.22235 0.0
O443 O 0.47482 0.86377 0.18147 0.0
H444 H 0.47306 0.81509 0.31901 0.0
H445 H 0.40477 0.81558 0.16406 0.0
O446 O 0.46451 0.87113 0.32847 0.0
C447 C 0.4694 0.86454 0.114 0.0
O448 O 0.44132 0.86712 0.0928 0.0
N449 N 0.40359 0.87648 0.2901 0.0
C450 C 0.34731 0.89142 0.34617 0.0
C451 C 0.37352 0.90407 0.37503 0.0
C452 C 0.40144 0.89667 0.34542 0.0
C453 C 0.37806 0.86548 0.25918 0.0
C454 C 0.34984 0.87203 0.28733 0.0
H455 H 0.42128 0.90775 0.36593 0.0
H456 H 0.37921 0.85272 0.21027 0.0
H457 H 0.48696 0.91901 0.27549 0.0
H458 H 0.43022 0.97632 0.15702 0.0
H459 H 0.45749 0.7594 0.29424 0.0
H460 H 0.37246 0.91947 0.42003 0.0
H461 H 0.33002 0.86262 0.26202 0.0
C462 C 0.08336 0.92827 0.44403 0.0
C463 C 0.05636 0.94317 0.44171 0.0
N464 N 0.05888 0.9687 0.48024 0.0
N465 N 0.10294 0.94415 0.48408 0.0
C466 C 0.08745 0.96871 0.50559 0.0
H467 H 0.08863 0.90737 0.41722 0.0
Co468 Co 0.14285 0.93273 0.49651 0.0
C469 C 0.15508 0.95326 0.64965 0.0
O470 O 0.16424 0.92633 0.6674 0.0
N471 N 0.18403 0.92038 0.50692 0.0
C472 C 0.22466 0.89387 0.53843 0.0
C473 C 0.19528 0.89977 0.55359 0.0
C474 C 0.20769 0.92633 0.46315 0.0
N475 N 0.2325 0.91041 0.48138 0.0
O476 O 0.15441 0.96623 0.43677 0.0
H477 H 0.18271 0.88752 0.59337 0.0
H478 H 0.20637 0.94046 0.41597 0.0
O479 O 0.14603 0.95831 0.58502 0.0
C480 C 0.15039 0.95999 0.37024 0.0
O481 O 0.14293 0.9323 0.35364 0.0
N482 N 0.12962 0.8987 0.54662 0.0
C483 C 0.11126 0.84436 0.60581 0.0
C484 C 0.10291 0.87171 0.63769 0.0
C485 C 0.11189 0.8988 0.60635 0.0
C486 C 0.13546 0.87245 0.5115 0.0
C487 C 0.12707 0.84496 0.54095 0.0
H488 H 0.10464 0.91976 0.62995 0.0
H489 H 0.14746 0.8729 0.46103 0.0
H490 H 0.09697 0.98607 0.53927 0.0
H491 H 0.03658 0.93609 0.41228 0.0
H492 H 0.23877 0.87736 0.56486 0.0
H493 H 0.08977 0.87213 0.68657 0.0
H494 H 0.1327 0.82438 0.51295 0.0
C495 C 0.08394 0.58186 0.70332 0.0
C496 C 0.06989 0.55444 0.69479 0.0
N497 N 0.04266 0.55591 0.72618 0.0
N498 N 0.06577 0.60027 0.74078 0.0
C499 C 0.04103 0.58378 0.75436 0.0
H500 H 0.1053 0.58843 0.68075 0.0
Co501 Co 0.06893 0.64155 0.75539 0.0
C502 C 0.05068 0.64634 0.90875 0.0
O503 O 0.07542 0.66125 0.9235 0.0
N504 N 0.07032 0.68379 0.76692 0.0
C505 C 0.05505 0.73057 0.78977 0.0
C506 C 0.05086 0.70082 0.8052 0.0
C507 C 0.08485 0.70406 0.72528 0.0
N508 N 0.07644 0.73266 0.7394 0.0
O509 O 0.03343 0.64654 0.6997 0.0
H510 H 0.03268 0.69253 0.83771 0.0
H511 H 0.09932 0.69788 0.6811 0.0
O512 O 0.04548 0.63774 0.84416 0.0
C513 C 0.0392 0.6455 0.63274 0.0
O514 O 0.06745 0.64348 0.61298 0.0
N515 N 0.10555 0.63563 0.80599 0.0
C516 C 0.16139 0.62326 0.86892 0.0
C517 C 0.13577 0.60705 0.88886 0.0
C518 C 0.10818 0.61342 0.8565 0.0
C519 C 0.13057 0.65056 0.78359 0.0
C520 C 0.15855 0.64516 0.81524 0.0
H521 H 0.08895 0.59999 0.87113 0.0
H522 H 0.12943 0.66594 0.73919 0.0
H523 H 0.02177 0.59251 0.7826 0.0
H524 H 0.07843 0.53545 0.66478 0.0
H525 H 0.04222 0.74916 0.81136 0.0
H526 H 0.13715 0.58889 0.92747 0.0
H527 H 0.17789 0.65767 0.79682 0.0
C528 C 0.01586 0.97215 0.99801 0.0
C529 C 0.98546 0.98067 0.9936 0.0
C530 C 0.03893 0.99358 0.99472 0.0
C531 C 0.03248 0.02438 0.98654 0.0
H532 H 0.02185 0.9487 1.0039 0.0
H533 H 0.06198 0.98585 0.99675 0.0
S534 S 0.9565 0.05857 0.97333 0.0
N535 N 0.95023 0.02216 0.97944 0.0
N536 N 0.99332 0.06238 0.9774 0.0
C537 C 1.00214 0.03324 0.98348 0.0
C538 C 0.9787 0.01144 0.98603 0.0
C539 C 0.97352 0.49669 0.23138 0.0
C540 C 0.98135 0.52725 0.22893 0.0
C541 C 0.99548 0.47409 0.23001 0.0
C542 C 0.02633 0.48101 0.22624 0.0
H543 H 0.95016 0.49016 0.23482 0.0
H544 H 0.98804 0.45097 0.23086 0.0
S545 S 0.05885 0.55767 0.21688 0.0
N546 N 0.02223 0.56327 0.21947 0.0
N547 N 0.06349 0.52091 0.22073 0.0
C548 C 0.03451 0.51152 0.22378 0.0
C549 C 0.01208 0.53458 0.22439 0.0
C550 C 0.52911 0.4962 0.45454 0.0
C551 C 0.52224 0.52703 0.44941 0.0
C552 C 0.50645 0.47444 0.45564 0.0
C553 C 0.476 0.48258 0.45167 0.0
H554 H 0.55223 0.4887 0.45687 0.0
H555 H 0.51281 0.45103 0.46037 0.0
S556 S 0.44586 0.56011 0.4347 0.0
N557 N 0.4826 0.56453 0.44014 0.0
N558 N 0.44011 0.52354 0.43865 0.0
C559 C 0.46874 0.51327 0.44535 0.0
C560 C 0.49183 0.53549 0.44491 0.0
C561 C 0.50344 0.97478 0.73163 0.0
C562 C 0.53442 0.98074 0.73009 0.0
C563 C 0.48238 0.99818 0.73143 0.0
C564 C 0.49143 0.02845 0.72982 0.0
H565 H 0.49535 0.95188 0.73023 0.0
H566 H 0.45875 0.99249 0.73132 0.0
S567 S 0.57004 0.05606 0.73144 0.0
N568 N 0.57321 0.01911 0.73291 0.0
N569 N 0.53363 0.06309 0.72967 0.0
C570 C 0.52237 0.03476 0.73104 0.0
C571 C 0.54384 0.0109 0.73167 0.0
C572 C 0.0052 0.98194 0.4906 0.0
C573 C 0.03549 0.99094 0.4897 0.0
C574 C 0.98179 1.00294 0.49382 0.0
C575 C 0.98756 0.03399 0.49648 0.0
H576 H 0.99945 0.95835 0.48807 0.0
H577 H 0.95895 0.9947 0.49205 0.0
S578 S 0.06294 0.06954 0.49982 0.0
N579 N 0.07 0.03322 0.49356 0.0
N580 N 0.02601 0.07267 0.50253 0.0
C581 C 0.01777 0.04337 0.49796 0.0
C582 C 0.0417 0.02189 0.49415 0.0
C583 C 0.00538 0.48005 0.72841 0.0
C584 C 0.97449 0.4871 0.72589 0.0
C585 C 0.02737 0.50257 0.7283 0.0
C586 C 0.01952 0.53315 0.72564 0.0
H587 H 0.01278 0.4569 0.72943 0.0
H588 H 0.05077 0.49598 0.73095 0.0
S589 S 0.94193 0.56387 0.71628 0.0
N590 N 0.93731 0.52715 0.72118 0.0
N591 N 0.97857 0.56931 0.71707 0.0
C592 C 0.98875 0.5406 0.72219 0.0
C593 C 0.96631 0.51765 0.72311 0.0
C594 C 0.49384 0.4779 0.95535 0.0
C595 C 0.52429 0.48608 0.95313 0.0
C596 C 0.47112 0.49966 0.9583 0.0
C597 C 0.47791 0.53056 0.95919 0.0
H598 H 0.4875 0.45443 0.95535 0.0
H599 H 0.44803 0.49214 0.95871 0.0
S600 S 0.55421 0.56392 0.95256 0.0
N601 N 0.56006 0.52733 0.94913 0.0
N602 N 0.51747 0.56817 0.95831 0.0
C603 C 0.50831 0.53908 0.95704 0.0
C604 C 0.53147 0.51688 0.9533 0.0
C605 C 0.47887 0.00983 0.22643 0.0
C606 C 0.48793 0.97954 0.22366 0.0
C607 C 0.49996 0.03322 0.2267 0.0
C608 C 0.53099 0.02724 0.22401 0.0
H609 H 0.45524 0.01552 0.22811 0.0
H610 H 0.49186 0.05615 0.22705 0.0
S611 S 0.56666 0.95181 0.21866 0.0
N612 N 0.53027 0.94493 0.21819 0.0
N613 N 0.56977 0.98871 0.2225 0.0
C614 C 0.54039 0.99704 0.22307 0.0
C615 C 0.51893 0.97324 0.22207 0.0
C616 C 0.15975 0.01308 0.32917 0.0
C617 C 0.15187 0.98331 0.31253 0.0
C618 C 0.16022 0.03549 0.27594 0.0
C619 C 0.1527 0.02925 0.20358 0.0
H620 H 0.16549 0.01923 0.38386 0.0
H621 H 0.16643 0.05801 0.29212 0.0
S622 S 0.13058 0.95485 0.13097 0.0
N623 N 0.13645 0.94877 0.21744 0.0
N624 N 0.13737 0.99087 0.11827 0.0
C625 C 0.14483 0.99958 0.18607 0.0
C626 C 0.14444 0.97668 0.24018 0.0
C627 C 0.02303 0.64028 0.50471 0.0
C628 C 0.01516 0.64444 0.57739 0.0
C629 C 1.00121 0.6392 0.45043 0.0
C630 C 0.97061 0.64258 0.46644 0.0
H631 H 0.04634 0.63796 0.48914 0.0
H632 H 0.00851 0.63653 0.39528 0.0
S633 S 0.93769 0.65164 0.64834 0.0
N634 N 0.97427 0.65013 0.66276 0.0
N635 N 0.93321 0.6485 0.56048 0.0
C636 C 0.96225 0.64604 0.53894 0.0
C637 C 0.98451 0.64686 0.59446 0.0
C638 C 0.36904 0.50437 0.68181 0.0
C639 C 0.36492 0.47391 0.69876 0.0
C640 C 0.36857 0.52654 0.73542 0.0
C641 C 0.36423 0.51923 0.8085 0.0
H642 H 0.37192 0.51133 0.62644 0.0
H643 H 0.37149 0.54969 0.719 0.0
S644 S 0.35471 0.44238 0.88213 0.0
N645 N 0.3579 0.43732 0.79454 0.0
N646 N 0.35723 0.47897 0.89511 0.0
C647 C 0.36095 0.48874 0.82649 0.0
C648 C 0.36123 0.46613 0.77175 0.0
C649 C 0.48643 0.86375 0.98534 0.0
C650 C 0.49379 0.86419 0.05931 0.0
C651 C 0.50872 0.86379 0.93202 0.0
C652 C 0.53934 0.86403 0.95038 0.0
H653 H 0.46317 0.86321 0.96813 0.0
H654 H 0.50188 0.86295 0.87609 0.0
S655 S 0.57076 0.86771 0.13593 0.0
N656 N 0.53406 0.86661 0.14763 0.0
N657 N 0.57589 0.86656 0.04812 0.0
C658 C 0.54704 0.86514 0.02413 0.0
C659 C 0.52433 0.86522 0.07834 0.0
C660 C 0.8773 0.00493 0.70851 0.0
C661 C 0.87139 0.03518 0.72462 0.0
C662 C 0.87834 0.98314 0.76277 0.0
C663 C 0.8738 0.9907 0.83557 0.0
H664 H 0.88033 0.99781 0.6533 0.0
H665 H 0.88245 0.96008 0.74706 0.0
S666 S 0.86043 0.06737 0.90697 0.0
N667 N 0.86285 0.07204 0.8191 0.0
N668 N 0.86507 0.03105 0.92117 0.0
C669 C 0.86897 0.02107 0.85277 0.0
C670 C 0.86768 0.04329 0.79732 0.0
C671 C 0.9666 0.35817 0.0247 0.0
C672 C 0.97281 0.36953 0.95553 0.0
C673 C 0.98837 0.35843 0.07948 0.0
C674 C 0.01731 0.36974 0.06695 0.0
H675 H 0.94484 0.34858 0.03661 0.0
H676 H 0.98272 0.34897 0.13136 0.0
S677 S 0.04444 0.40437 0.89739 0.0
N678 N 0.00966 0.39406 0.87925 0.0
N679 N 0.05046 0.39451 0.98176 0.0
C680 C 0.02356 0.38204 0.99881 0.0
C681 C 1.00135 0.38198 0.94326 0.0
C682 C 0.63472 0.526 0.23068 0.0
C683 C 0.63787 0.51837 0.30394 0.0
C684 C 0.63329 0.50395 0.17702 0.0
C685 C 0.63523 0.47327 0.1942 0.0
H686 H 0.63336 0.5493 0.21419 0.0
H687 H 0.63133 0.5111 0.12152 0.0
S688 S 0.64194 0.44104 0.37794 0.0
N689 N 0.64164 0.47772 0.39089 0.0
N690 N 0.63915 0.43623 0.29015 0.0
C691 C 0.63786 0.46521 0.2673 0.0
C692 C 0.63914 0.48773 0.32208 0.0
C693 C 0.53909 0.14848 0.52409 0.0
C694 C 0.53272 0.1441 0.45031 0.0
C695 C 0.51631 0.14894 0.57616 0.0
C696 C 0.486 0.14513 0.55705 0.0
H697 H 0.56201 0.15147 0.54237 0.0
H698 H 0.52264 0.15203 0.63196 0.0
S699 S 0.45691 0.13357 0.37099 0.0
N700 N 0.49361 0.13629 0.36095 0.0
N701 N 0.45076 0.13725 0.45804 0.0
C702 C 0.4792 0.14095 0.48328 0.0
C703 C 0.5025 0.14038 0.43025 0.0
C704 C 0.63608 0.47948 0.73044 0.0
C705 C 0.63815 0.4873 0.80382 0.0
C706 C 0.63453 0.5014 0.67647 0.0
C707 C 0.63529 0.53212 0.69349 0.0
H708 H 0.63575 0.45613 0.71411 0.0
H709 H 0.63356 0.49416 0.62089 0.0
S710 S 0.63845 0.56486 0.87707 0.0
N711 N 0.63928 0.52821 0.89052 0.0
N712 N 0.63673 0.56943 0.78904 0.0
C713 C 0.63678 0.54038 0.76657 0.0
C714 C 0.63814 0.51801 0.8217 0.0
C715 C 0.53246 0.14082 0.98726 0.0
C716 C 0.52587 0.14554 0.06073 0.0
C717 C 0.50986 0.14087 0.93414 0.0
C718 C 0.47958 0.14578 0.95187 0.0
H719 H 0.55536 0.13685 0.97026 0.0
H720 H 0.51625 0.13714 0.87871 0.0
S721 S 0.45009 0.15871 0.13672 0.0
N722 N 0.48665 0.15485 0.14823 0.0
N723 N 0.44423 0.15509 0.04948 0.0
C724 C 0.47266 0.15049 0.02534 0.0
C725 C 0.49572 0.15035 0.07935 0.0
C726 C 0.87914 0.02696 0.26362 0.0
C727 C 0.87188 0.02001 0.33541 0.0
C728 C 0.87818 0.00511 0.2095 0.0
C729 C 0.86959 0.97544 0.2247 0.0
H730 H 0.8855 0.04958 0.24864 0.0
H731 H 0.88351 0.0118 0.15501 0.0
S732 S 0.85006 0.94503 0.40461 0.0
N733 N 0.85712 0.98091 0.41935 0.0
N734 N 0.85508 0.9398 0.3176 0.0
C735 C 0.86293 0.96794 0.29655 0.0
C736 C 0.86415 0.99021 0.35188 0.0
C737 C 0.03416 0.35951 0.52784 0.0
C738 C 0.02785 0.3684 0.45657 0.0
C739 C 0.01257 0.36208 0.58225 0.0
C740 C 0.98374 0.3734 0.56735 0.0
H741 H 0.05586 0.3501 0.5418 0.0
H742 H 0.01827 0.35441 0.63589 0.0
S743 S 0.9564 0.40201 0.3911 0.0
N744 N 0.99098 0.3905 0.37528 0.0
N745 N 0.95058 0.39544 0.47723 0.0
C746 C 0.9774 0.38323 0.4969 0.0
C747 C 0.99939 0.38074 0.44163 0.0
C748 C 0.36724 0.50223 0.18141 0.0
C749 C 0.36222 0.53259 0.19812 0.0
C750 C 0.36729 0.48014 0.23518 0.0
C751 C 0.36264 0.48744 0.30816 0.0
H752 H 0.37037 0.4953 0.1261 0.0
H753 H 0.37088 0.45705 0.21896 0.0
S754 S 0.35107 0.56417 0.38106 0.0
N755 N 0.35412 0.56916 0.29341 0.0
N756 N 0.35456 0.52766 0.39442 0.0
C757 C 0.35852 0.51787 0.3259 0.0
C758 C 0.35822 0.5404 0.27096 0.0
C759 C 0.4784 0.85548 0.52055 0.0
C760 C 0.48444 0.86355 0.4486 0.0
C761 C 0.50102 0.85554 0.57365 0.0
C762 C 0.53077 0.86346 0.55713 0.0
H763 H 0.45595 0.84895 0.53628 0.0
H764 H 0.49511 0.84915 0.62798 0.0
S765 S 0.55852 0.88699 0.377 0.0
N766 N 0.52252 0.88009 0.36417 0.0
N767 N 0.56486 0.88023 0.46297 0.0
C768 C 0.53709 0.8718 0.48537 0.0
C769 C 0.51402 0.87187 0.43149 0.0
C770 C 0.14606 0.00667 0.68944 0.0
C771 C 0.15401 0.97695 0.70664 0.0
C772 C 0.14492 0.02912 0.74256 0.0
C773 C 0.15152 0.02287 0.81542 0.0
H774 H 0.14064 0.01274 0.63449 0.0
H775 H 0.13852 0.05158 0.72611 0.0
S776 S 0.17353 0.94868 0.88968 0.0
N777 N 0.1687 0.94254 0.80291 0.0
N778 N 0.16635 0.98468 0.90175 0.0
C779 C 0.15954 0.99329 0.83347 0.0
C780 C 0.16083 0.97041 0.77945 0.0
C781 C 0.01286 0.6485 0.09164 0.0
C782 C 0.98325 0.63972 0.07607 0.0
C783 C 0.0346 0.65003 0.03738 0.0
C784 C 0.02765 0.64262 0.96552 0.0
H785 H 0.01921 0.65479 0.14587 0.0
H786 H 0.05698 0.65739 0.05199 0.0
S787 S 0.95379 0.61609 0.89741 0.0
N788 N 0.94847 0.62187 0.98406 0.0
N789 N 0.98919 0.62488 0.88253 0.0
C790 C 0.99831 0.63294 0.94965 0.0
C791 C 0.97616 0.63149 1.00477 0.0
C792 C 0.11334 0.24456 0.18124 0.0
C793 C 0.08279 0.25053 0.19384 0.0
C794 C 0.12263 0.21695 0.15225 0.0
C795 C 0.10165 0.1944 0.13519 0.0
H796 H 0.13016 0.26106 0.19565 0.0
H797 H 0.1464 0.21297 0.14439 0.0
S798 S 0.01887 0.20046 0.14826 0.0
N799 N 0.03144 0.23277 0.17975 0.0
N800 N 0.049 0.18081 0.12671 0.0
C801 C 0.07103 0.20048 0.14518 0.0
C802 C 0.06157 0.22857 0.17411 0.0
C803 C 0.80086 0.5784 0.39691 0.0
C804 C 0.8077 0.60886 0.38575 0.0
C805 C 0.77305 0.56967 0.42443 0.0
C806 C 0.75091 0.59101 0.44176 0.0
H807 H 0.81714 0.5611 0.38415 0.0
H808 H 0.76884 0.54595 0.43226 0.0
S809 S 0.75754 0.67359 0.42315 0.0
N810 N 0.79005 0.66048 0.39415 0.0
N811 N 0.73752 0.64386 0.44585 0.0
C812 C 0.75713 0.6215 0.42964 0.0
C813 C 0.78559 0.63047 0.40167 0.0
C814 C 0.40459 0.30905 0.70235 0.0
C815 C 0.40245 0.31176 0.62719 0.0
C816 C 0.41041 0.28128 0.73488 0.0
C817 C 0.41439 0.25504 0.69376 0.0
H818 H 0.40067 0.32835 0.73658 0.0
H819 H 0.41105 0.28016 0.79302 0.0
S820 S 0.41373 0.25047 0.49457 0.0
N821 N 0.40729 0.28627 0.51206 0.0
N822 N 0.41732 0.23383 0.5735 0.0
C823 C 0.41362 0.2576 0.61841 0.0
C824 C 0.40775 0.28598 0.58512 0.0
C825 C 0.70874 0.93603 0.89695 0.0
C826 C 0.70244 0.90582 0.88128 0.0
C827 C 0.73577 0.94425 0.92999 0.0
C828 C 0.75747 0.92258 0.94881 0.0
H829 H 0.69268 0.95346 0.8834 0.0
H830 H 0.73972 0.96781 0.94081 0.0
S831 S 0.75132 0.84034 0.92149 0.0
N832 N 0.71976 0.85405 0.88787 0.0
N833 N 0.77063 0.86961 0.95054 0.0
C834 C 0.75157 0.89232 0.93287 0.0
C835 C 0.72403 0.88392 0.89903 0.0
C836 C 0.93778 0.23482 0.67666 0.0
C837 C 0.91644 0.25615 0.69915 0.0
C838 C 0.929 0.20681 0.6501 0.0
C839 C 0.89851 0.19898 0.64483 0.0
H840 H 0.96153 0.23983 0.67951 0.0
H841 H 0.94627 0.19116 0.63333 0.0
S842 S 0.83375 0.24662 0.69696 0.0
N843 N 0.86348 0.26757 0.71458 0.0
N844 N 0.84685 0.21473 0.66403 0.0
C845 C 0.87685 0.22023 0.66585 0.0
C846 C 0.88584 0.24886 0.69313 0.0
C847 C 0.80123 0.39124 0.95325 0.0
C848 C 0.80597 0.3934 0.87869 0.0
C849 C 0.77331 0.39821 0.98339 0.0
C850 C 0.74901 0.40731 0.94016 0.0
H851 H 0.81939 0.38454 0.98876 0.0
H852 H 0.77077 0.39705 0.04121 0.0
S853 S 0.74957 0.41735 0.74254 0.0
N854 N 0.78391 0.40586 0.76239 0.0
N855 N 0.73127 0.4184 0.81957 0.0
C856 C 0.75308 0.40888 0.86551 0.0
C857 C 0.78161 0.40205 0.83466 0.0
C858 C 0.59265 0.25977 0.12761 0.0
C859 C 0.59003 0.25807 0.2028 0.0
C860 C 0.59701 0.28744 0.09312 0.0
C861 C 0.59888 0.31441 0.13257 0.0
H862 H 0.59271 0.23949 0.09552 0.0
H863 H 0.59951 0.28763 0.03522 0.0
S864 S 0.59064 0.32216 0.33029 0.0
N865 N 0.58683 0.28585 0.31497 0.0
N866 N 0.59637 0.33763 0.25089 0.0
C867 C 0.59499 0.31307 0.20754 0.0
C868 C 0.59027 0.28497 0.24243 0.0
C869 C 0.72523 0.09926 0.3532 0.0
C870 C 0.69929 0.10531 0.39411 0.0
C871 C 0.75282 0.09256 0.38646 0.0
C872 C 0.75533 0.0914 0.46168 0.0
H873 H 0.72409 0.09903 0.29502 0.0
H874 H 0.77204 0.08726 0.35328 0.0
S875 S 0.69551 0.10852 0.59335 0.0
N876 N 0.67893 0.11224 0.51427 0.0
N877 N 0.73054 0.09874 0.57617 0.0
C878 C 0.72994 0.09812 0.50314 0.0
C879 C 0.70198 0.10526 0.46955 0.0
C880 C 0.59518 0.74713 0.6245 0.0
C881 C 0.5934 0.74931 0.69974 0.0
C882 C 0.59957 0.71924 0.59091 0.0
C883 C 0.6022 0.69261 0.63143 0.0
H884 H 0.59467 0.76722 0.59172 0.0
H885 H 0.6015 0.71861 0.53289 0.0
S886 S 0.59641 0.68628 0.82991 0.0
N887 N 0.59201 0.72245 0.8133 0.0
N888 N 0.60128 0.67023 0.7508 0.0
C889 C 0.59909 0.69445 0.70653 0.0
C890 C 0.59445 0.72275 0.74049 0.0
C891 C 0.31648 0.09445 0.95903 0.0
C892 C 0.3192 0.09173 0.88405 0.0
C893 C 0.28865 0.09126 0.99277 0.0
C894 C 0.26231 0.08547 0.95301 0.0
H895 H 0.33568 0.10065 0.9917 0.0
H896 H 0.28755 0.0945 0.05039 0.0
S897 S 0.25814 0.07206 0.7561 0.0
N898 N 0.29398 0.0789 0.77193 0.0
N899 N 0.24132 0.07449 0.83482 0.0
C900 C 0.26502 0.08076 0.87845 0.0
C901 C 0.29352 0.08361 0.84414 0.0
C902 C 0.92728 0.8034 0.15367 0.0
C903 C 0.89691 0.81139 0.14587 0.0
C904 C 0.93561 0.77549 0.18171 0.0
C905 C 0.91391 0.75443 0.20316 0.0
H906 H 0.94483 0.81892 0.13813 0.0
H907 H 0.95929 0.77042 0.18707 0.0
S908 S 0.83135 0.76413 0.193 0.0
N909 N 0.84495 0.79586 0.16059 0.0
N910 N 0.86078 0.74314 0.21376 0.0
C911 C 0.88344 0.76171 0.19392 0.0
C912 C 0.8749 0.79027 0.1652 0.0
C913 C 0.22833 0.43366 0.42008 0.0
C914 C 0.25019 0.41247 0.44059 0.0
C915 C 0.20066 0.42469 0.39165 0.0
C916 C 0.19361 0.39411 0.38288 0.0
H917 H 0.23264 0.45745 0.42635 0.0
H918 H 0.18461 0.4419 0.37656 0.0
S919 S 0.24323 0.32973 0.42828 0.0
N920 N 0.26328 0.35967 0.44954 0.0
N921 N 0.21096 0.34255 0.39651 0.0
C922 C 0.21553 0.37264 0.40171 0.0
C923 C 0.24389 0.38188 0.43045 0.0
C924 C 0.40344 0.7285 0.23213 0.0
C925 C 0.41244 0.75278 0.1891 0.0
C926 C 0.39405 0.70134 0.2014 0.0
C927 C 0.39364 0.69731 0.12633 0.0
H928 H 0.40402 0.7305 0.29015 0.0
H929 H 0.3874 0.68322 0.23679 0.0
S930 S 0.41662 0.7538 0.99031 0.0
N931 N 0.4209 0.77117 0.06814 0.0
N932 N 0.40393 0.71993 1.00977 0.0
C933 C 0.40237 0.72162 0.08261 0.0
C934 C 0.41163 0.74941 0.11413 0.0
C935 C 0.27112 0.87763 0.42921 0.0
C936 C 0.26002 0.90673 0.44206 0.0
C937 C 0.29915 0.87306 0.3974 0.0
C938 C 0.31739 0.89744 0.37793 0.0
H939 H 0.25804 0.85818 0.44458 0.0
H940 H 0.3069 0.85022 0.38939 0.0
S941 S 0.29812 0.97813 0.39741 0.0
N942 N 0.2688 0.96028 0.43086 0.0
N943 N 0.3219 0.95182 0.37105 0.0
C944 C 0.30638 0.92672 0.38922 0.0
C945 C 0.27753 0.93134 0.42101 0.0
C946 C 0.07294 0.81012 0.65932 0.0
C947 C 0.10282 0.81529 0.63887 0.0
C948 C 0.06444 0.78287 0.6908 0.0
C949 C 0.0855 0.75979 0.70332 0.0
H950 H 0.05594 0.82717 0.65036 0.0
H951 H 0.04111 0.77981 0.70514 0.0
S952 S 0.16688 0.76278 0.66288 0.0
N953 N 0.15373 0.79551 0.63502 0.0
N954 N 0.13769 0.7443 0.69475 0.0
C955 C 0.11545 0.76466 0.68305 0.0
C956 C 0.12412 0.79242 0.65079 0.0
C957 C 0.24431 0.60337 0.88301 0.0
C958 C 0.24783 0.59688 0.95642 0.0
C959 C 0.21643 0.61256 0.85533 0.0
C960 C 0.19124 0.61586 0.90035 0.0
H961 H 0.26291 0.60014 0.84645 0.0
H962 H 0.21439 0.6161 0.7979 0.0
S963 S 0.19035 0.60544 0.09832 0.0
N964 N 0.22495 0.59661 0.07449 0.0
N965 N 0.1727 0.61476 0.02327 0.0
C966 C 0.19501 0.61077 0.9745 0.0
C967 C 0.22328 0.60108 1.00233 0.0
loop_
_geom_bond_atom_site_label_1
_geom_bond_atom_site_label_2
_geom_bond_distance
_geom_bond_site_symmetry_2
_ccdc_geom_bond_type
C0 C1 1.351 . S
C0 N3 1.368 . S
C0 H5 0.931 . S
C1 C0 1.351 . S
C1 N2 1.373 1_556 S
C1 H29 0.930 . S
N2 C1 1.373 1_554 S
N2 C4 1.340 . S
N3 C0 1.368 . S
N3 C4 1.321 1_556 S
N3 Co6 2.135 . S
C4 N2 1.340 . S
C4 N3 1.321 1_554 S
C4 H28 0.930 . S
H5 C0 0.931 . S
Co6 N3 2.135 . S
Co6 N9 2.121 . S
Co6 O14 2.055 . S
Co6 O17 2.039 1_556 S
Co6 N20 2.140 1_556 S
C7 O8 1.227 . S
C7 O17 1.265 . S
O8 C7 1.227 . S
N9 Co6 2.121 . S
N9 C11 1.375 1_556 S
N9 C12 1.313 . S
C10 C11 1.338 . S
C10 N13 1.377 1_554 S
C10 H30 0.930 . S
C11 N9 1.375 1_554 S
C11 C10 1.338 . S
C11 H15 0.931 . S
C12 N9 1.313 . S
C12 N13 1.344 . S
C12 H16 0.930 . S
N13 C10 1.377 1_556 S
N13 C12 1.344 . S
O14 Co6 2.055 . S
O14 C18 1.253 . S
H15 C11 0.931 . S
H16 C12 0.930 . S
O17 Co6 2.039 1_554 S
O17 C7 1.265 . S
C18 O14 1.253 . S
C18 O19 1.227 . S
O19 C18 1.227 . S
N20 Co6 2.140 1_554 S
N20 C23 1.346 . S
N20 C24 1.345 1_554 S
C21 C22 1.387 . S
C21 C25 1.391 1_554 S
C22 C21 1.387 . S
C22 C23 1.369 . S
C22 H31 0.929 . S
C23 N20 1.346 . S
C23 C22 1.369 . S
C23 H26 0.928 . S
C24 N20 1.345 1_556 S
C24 C25 1.371 . S
C24 H27 0.931 . S
C25 C21 1.391 1_556 S
C25 C24 1.371 . S
C25 H32 0.930 . S
H26 C23 0.928 . S
H27 C24 0.931 . S
H28 C4 0.930 . S
H29 C1 0.930 . S
H30 C10 0.930 . S
H31 C22 0.929 . S
H32 C25 0.930 . S
C33 C34 1.351 . S
C33 N36 1.368 . S
C33 H38 0.931 . S
C34 C33 1.351 . S
C34 N35 1.373 . S
C34 H62 0.930 . S
N35 C34 1.373 . S
N35 C37 1.340 . S
N36 C33 1.368 . S
N36 C37 1.321 . S
N36 Co39 2.135 . S
C37 N35 1.340 . S
C37 N36 1.321 . S
C37 H61 0.930 . S
H38 C33 0.931 . S
Co39 N36 2.135 . S
Co39 N42 2.121 . S
Co39 O47 2.055 . S
Co39 O50 2.039 . S
Co39 N53 2.140 . S
C40 O41 1.227 . S
C40 O50 1.265 . S
O41 C40 1.227 . S
N42 Co39 2.121 . S
N42 C44 1.375 . S
N42 C45 1.313 . S
C43 C44 1.338 . S
C43 N46 1.377 . S
C43 H63 0.930 . S
C44 N42 1.375 . S
C44 C43 1.338 . S
C44 H48 0.931 . S
C45 N42 1.313 . S
C45 N46 1.344 . S
C45 H49 0.930 . S
N46 C43 1.377 . S
N46 C45 1.344 . S
O47 Co39 2.055 . S
O47 C51 1.253 . S
H48 C44 0.931 . S
H49 C45 0.930 . S
O50 Co39 2.039 . S
O50 C40 1.265 . S
C51 O47 1.253 . S
C51 O52 1.227 . S
O52 C51 1.227 . S
N53 Co39 2.140 . S
N53 C56 1.346 . S
N53 C57 1.345 . S
C54 C55 1.387 . S
C54 C58 1.391 . S
C55 C54 1.387 . S
C55 C56 1.369 . S
C55 H64 0.929 . S
C56 N53 1.346 . S
C56 C55 1.369 . S
C56 H59 0.928 . S
C57 N53 1.345 . S
C57 C58 1.371 . S
C57 H60 0.931 . S
C58 C54 1.391 . S
C58 C57 1.371 . S
C58 H65 0.930 . S
H59 C56 0.928 . S
H60 C57 0.931 . S
H61 C37 0.930 . S
H62 C34 0.930 . S
H63 C43 0.930 . S
H64 C55 0.929 . S
H65 C58 0.930 . S
C66 C67 1.351 . S
C66 N69 1.368 . S
C66 H71 0.931 . S
C67 C66 1.351 . S
C67 N68 1.373 . S
C67 H95 0.930 . S
N68 C67 1.373 . S
N68 C70 1.340 . S
N69 C66 1.368 . S
N69 C70 1.321 . S
N69 Co72 2.135 . S
C70 N68 1.340 . S
C70 N69 1.321 . S
C70 H94 0.930 . S
H71 C66 0.931 . S
Co72 N69 2.135 . S
Co72 N75 2.121 . S
Co72 O80 2.055 . S
Co72 O83 2.039 . S
Co72 N86 2.140 . S
C73 O74 1.227 . S
C73 O83 1.265 . S
O74 C73 1.227 . S
N75 Co72 2.121 . S
N75 C77 1.375 . S
N75 C78 1.313 . S
C76 C77 1.338 . S
C76 N79 1.377 . S
C76 H96 0.930 . S
C77 N75 1.375 . S
C77 C76 1.338 . S
C77 H81 0.931 . S
C78 N75 1.313 . S
C78 N79 1.344 . S
C78 H82 0.930 . S
N79 C76 1.377 . S
N79 C78 1.344 . S
O80 Co72 2.055 . S
O80 C84 1.253 . S
H81 C77 0.931 . S
H82 C78 0.930 . S
O83 Co72 2.039 . S
O83 C73 1.265 . S
C84 O80 1.253 . S
C84 O85 1.227 . S
O85 C84 1.227 . S
N86 Co72 2.140 . S
N86 C89 1.346 . S
N86 C90 1.345 . S
C87 C88 1.387 . S
C87 C91 1.391 . S
C88 C87 1.387 . S
C88 C89 1.369 . S
C88 H97 0.929 . S
C89 N86 1.346 . S
C89 C88 1.369 . S
C89 H92 0.928 . S
C90 N86 1.345 . S
C90 C91 1.371 . S
C90 H93 0.931 . S
C91 C87 1.391 . S
C91 C90 1.371 . S
C91 H98 0.930 . S
H92 C89 0.928 . S
H93 C90 0.931 . S
H94 C70 0.930 . S
H95 C67 0.930 . S
H96 C76 0.930 . S
H97 C88 0.929 . S
H98 C91 0.930 . S
C99 C100 1.351 . S
C99 N102 1.368 . S
C99 H104 0.931 . S
C100 C99 1.351 . S
C100 N101 1.373 . S
C100 H128 0.930 . S
N101 C100 1.373 . S
N101 C103 1.340 . S
N102 C99 1.368 . S
N102 C103 1.321 . S
N102 Co105 2.135 . S
C103 N101 1.340 . S
C103 N102 1.321 . S
C103 H127 0.930 . S
H104 C99 0.931 . S
Co105 N102 2.135 . S
Co105 N108 2.121 . S
Co105 O113 2.055 . S
Co105 O116 2.039 . S
Co105 N119 2.140 . S
C106 O107 1.227 . S
C106 O116 1.265 . S
O107 C106 1.227 . S
N108 Co105 2.121 . S
N108 C110 1.375 . S
N108 C111 1.313 . S
C109 C110 1.338 . S
C109 N112 1.377 . S
C109 H129 0.930 . S
C110 N108 1.375 . S
C110 C109 1.338 . S
C110 H114 0.931 . S
C111 N108 1.313 . S
C111 N112 1.344 . S
C111 H115 0.930 . S
N112 C109 1.377 . S
N112 C111 1.344 . S
O113 Co105 2.055 . S
O113 C117 1.253 . S
H114 C110 0.931 . S
H115 C111 0.930 . S
O116 Co105 2.039 . S
O116 C106 1.265 . S
C117 O113 1.253 . S
C117 O118 1.227 . S
O118 C117 1.227 . S
N119 Co105 2.140 . S
N119 C122 1.346 . S
N119 C123 1.345 . S
C120 C121 1.387 . S
C120 C124 1.391 . S
C121 C120 1.387 . S
C121 C122 1.369 . S
C121 H130 0.929 . S
C122 N119 1.346 . S
C122 C121 1.369 . S
C122 H125 0.928 . S
C123 N119 1.345 . S
C123 C124 1.371 . S
C123 H126 0.931 . S
C124 C120 1.391 . S
C124 C123 1.371 . S
C124 H131 0.930 . S
H125 C122 0.928 . S
H126 C123 0.931 . S
H127 C103 0.930 . S
H128 C100 0.930 . S
H129 C109 0.930 . S
H130 C121 0.929 . S
H131 C124 0.930 . S
C132 C133 1.351 . S
C132 N135 1.368 . S
C132 H137 0.931 . S
C133 C132 1.351 . S
C133 N134 1.373 . S
C133 H161 0.930 . S
N134 C133 1.373 . S
N134 C136 1.340 . S
N135 C132 1.368 . S
N135 C136 1.321 . S
N135 Co138 2.135 . S
C136 N134 1.340 . S
C136 N135 1.321 . S
C136 H160 0.930 . S
H137 C132 0.931 . S
Co138 N135 2.135 . S
Co138 N141 2.121 . S
Co138 O146 2.055 . S
Co138 O149 2.039 . S
Co138 N152 2.140 . S
C139 O140 1.227 . S
C139 O149 1.265 . S
O140 C139 1.227 . S
N141 Co138 2.121 . S
N141 C143 1.375 . S
N141 C144 1.313 . S
C142 C143 1.338 . S
C142 N145 1.377 . S
C142 H162 0.930 . S
C143 N141 1.375 . S
C143 C142 1.338 . S
C143 H147 0.931 . S
C144 N141 1.313 . S
C144 N145 1.344 . S
C144 H148 0.930 . S
N145 C142 1.377 . S
N145 C144 1.344 . S
O146 Co138 2.055 . S
O146 C150 1.253 . S
H147 C143 0.931 . S
H148 C144 0.930 . S
O149 Co138 2.039 . S
O149 C139 1.265 . S
C150 O146 1.253 . S
C150 O151 1.227 . S
O151 C150 1.227 . S
N152 Co138 2.140 . S
N152 C155 1.346 . S
N152 C156 1.345 . S
C153 C154 1.387 . S
C153 C157 1.391 . S
C154 C153 1.387 . S
C154 C155 1.369 . S
C154 H163 0.929 . S
C155 N152 1.346 . S
C155 C154 1.369 . S
C155 H158 0.928 . S
C156 N152 1.345 . S
C156 C157 1.371 . S
C156 H159 0.931 . S
C157 C153 1.391 . S
C157 C156 1.371 . S
C157 H164 0.930 . S
H158 C155 0.928 . S
H159 C156 0.931 . S
H160 C136 0.930 . S
H161 C133 0.930 . S
H162 C142 0.930 . S
H163 C154 0.929 . S
H164 C157 0.930 . S
C165 C166 1.351 . S
C165 N168 1.368 . S
C165 H170 0.931 . S
C166 C165 1.351 . S
C166 N167 1.373 . S
C166 H194 0.930 . S
N167 C166 1.373 . S
N167 C169 1.340 . S
N168 C165 1.368 . S
N168 C169 1.321 . S
N168 Co171 2.135 . S
C169 N167 1.340 . S
C169 N168 1.321 . S
C169 H193 0.930 . S
H170 C165 0.931 . S
Co171 N168 2.135 . S
Co171 N174 2.121 . S
Co171 O179 2.055 . S
Co171 O182 2.039 . S
Co171 N185 2.140 . S
C172 O173 1.227 . S
C172 O182 1.265 . S
O173 C172 1.227 . S
N174 Co171 2.121 . S
N174 C176 1.375 . S
N174 C177 1.313 . S
C175 C176 1.338 . S
C175 N178 1.377 . S
C175 H195 0.930 . S
C176 N174 1.375 . S
C176 C175 1.338 . S
C176 H180 0.931 . S
C177 N174 1.313 . S
C177 N178 1.344 . S
C177 H181 0.930 . S
N178 C175 1.377 . S
N178 C177 1.344 . S
O179 Co171 2.055 . S
O179 C183 1.253 . S
H180 C176 0.931 . S
H181 C177 0.930 . S
O182 Co171 2.039 . S
O182 C172 1.265 . S
C183 O179 1.253 . S
C183 O184 1.227 . S
O184 C183 1.227 . S
N185 Co171 2.140 . S
N185 C188 1.346 . S
N185 C189 1.345 . S
C186 C187 1.387 . S
C186 C190 1.391 . S
C187 C186 1.387 . S
C187 C188 1.369 . S
C187 H196 0.929 . S
C188 N185 1.346 . S
C188 C187 1.369 . S
C188 H191 0.928 . S
C189 N185 1.345 . S
C189 C190 1.371 . S
C189 H192 0.931 . S
C190 C186 1.391 . S
C190 C189 1.371 . S
C190 H197 0.930 . S
H191 C188 0.928 . S
H192 C189 0.931 . S
H193 C169 0.930 . S
H194 C166 0.930 . S
H195 C175 0.930 . S
H196 C187 0.929 . S
H197 C190 0.930 . S
C198 C199 1.351 . S
C198 N201 1.368 . S
C198 H203 0.931 . S
C199 C198 1.351 . S
C199 N200 1.373 1_556 S
C199 H227 0.930 . S
N200 C199 1.373 1_554 S
N200 C202 1.340 . S
N201 C198 1.368 . S
N201 C202 1.321 1_556 S
N201 Co204 2.135 . S
C202 N200 1.340 . S
C202 N201 1.321 1_554 S
C202 H226 0.930 . S
H203 C198 0.931 . S
Co204 N201 2.135 . S
Co204 N207 2.121 . S
Co204 O212 2.055 . S
Co204 O215 2.039 1_556 S
Co204 N218 2.140 1_556 S
C205 O206 1.227 . S
C205 O215 1.265 . S
O206 C205 1.227 . S
N207 Co204 2.121 . S
N207 C209 1.375 1_556 S
N207 C210 1.313 . S
C208 C209 1.338 . S
C208 N211 1.377 1_554 S
C208 H228 0.930 . S
C209 N207 1.375 1_554 S
C209 C208 1.338 . S
C209 H213 0.931 . S
C210 N207 1.313 . S
C210 N211 1.344 . S
C210 H214 0.930 . S
N211 C208 1.377 1_556 S
N211 C210 1.344 . S
O212 Co204 2.055 . S
O212 C216 1.253 . S
H213 C209 0.931 . S
H214 C210 0.930 . S
O215 Co204 2.039 1_554 S
O215 C205 1.265 . S
C216 O212 1.253 . S
C216 O217 1.227 . S
O217 C216 1.227 . S
N218 Co204 2.140 1_554 S
N218 C221 1.346 . S
N218 C222 1.345 1_554 S
C219 C220 1.387 . S
C219 C223 1.391 1_554 S
C220 C219 1.387 . S
C220 C221 1.369 . S
C220 H229 0.929 . S
C221 N218 1.346 . S
C221 C220 1.369 . S
C221 H224 0.928 . S
C222 N218 1.345 1_556 S
C222 C223 1.371 . S
C222 H225 0.931 . S
C223 C219 1.391 1_556 S
C223 C222 1.371 . S
C223 H230 0.930 . S
H224 C221 0.928 . S
H225 C222 0.931 . S
H226 C202 0.930 . S
H227 C199 0.930 . S
H228 C208 0.930 . S
H229 C220 0.929 . S
H230 C223 0.930 . S
C231 C232 1.351 . S
C231 N234 1.368 . S
C231 H236 0.931 . S
C232 C231 1.351 . S
C232 N233 1.373 . S
C232 H260 0.930 . S
N233 C232 1.373 . S
N233 C235 1.340 . S
N234 C231 1.368 . S
N234 C235 1.321 . S
N234 Co237 2.135 . S
C235 N233 1.340 . S
C235 N234 1.321 . S
C235 H259 0.930 . S
H236 C231 0.931 . S
Co237 N234 2.135 . S
Co237 N240 2.121 . S
Co237 O245 2.055 . S
Co237 O248 2.039 . S
Co237 N251 2.140 . S
C238 O239 1.227 . S
C238 O248 1.265 . S
O239 C238 1.227 . S
N240 Co237 2.121 . S
N240 C242 1.375 . S
N240 C243 1.313 . S
C241 C242 1.338 . S
C241 N244 1.377 . S
C241 H261 0.930 . S
C242 N240 1.375 . S
C242 C241 1.338 . S
C242 H246 0.931 . S
C243 N240 1.313 . S
C243 N244 1.344 . S
C243 H247 0.930 . S
N244 C241 1.377 . S
N244 C243 1.344 . S
O245 Co237 2.055 . S
O245 C249 1.253 . S
H246 C242 0.931 . S
H247 C243 0.930 . S
O248 Co237 2.039 . S
O248 C238 1.265 . S
C249 O245 1.253 . S
C249 O250 1.227 . S
O250 C249 1.227 . S
N251 Co237 2.140 . S
N251 C254 1.346 . S
N251 C255 1.345 . S
C252 C253 1.387 . S
C252 C256 1.391 . S
C253 C252 1.387 . S
C253 C254 1.369 . S
C253 H262 0.929 . S
C254 N251 1.346 . S
C254 C253 1.369 . S
C254 H257 0.928 . S
C255 N251 1.345 . S
C255 C256 1.371 . S
C255 H258 0.931 . S
C256 C252 1.391 . S
C256 C255 1.371 . S
C256 H263 0.930 . S
H257 C254 0.928 . S
H258 C255 0.931 . S
H259 C235 0.930 . S
H260 C232 0.930 . S
H261 C241 0.930 . S
H262 C253 0.929 . S
H263 C256 0.930 . S
C264 C265 1.351 . S
C264 N267 1.368 . S
C264 H269 0.931 . S
C265 C264 1.351 . S
C265 N266 1.373 . S
C265 H293 0.930 . S
N266 C265 1.373 . S
N266 C268 1.340 . S
N267 C264 1.368 . S
N267 C268 1.321 . S
N267 Co270 2.135 . S
C268 N266 1.340 . S
C268 N267 1.321 . S
C268 H292 0.930 . S
H269 C264 0.931 . S
Co270 N267 2.135 . S
Co270 N273 2.121 . S
Co270 O278 2.055 . S
Co270 O281 2.039 . S
Co270 N284 2.140 . S
C271 O272 1.227 . S
C271 O281 1.265 . S
O272 C271 1.227 . S
N273 Co270 2.121 . S
N273 C275 1.375 . S
N273 C276 1.313 . S
C274 C275 1.338 . S
C274 N277 1.377 . S
C274 H294 0.930 . S
C275 N273 1.375 . S
C275 C274 1.338 . S
C275 H279 0.931 . S
C276 N273 1.313 . S
C276 N277 1.344 . S
C276 H280 0.930 . S
N277 C274 1.377 . S
N277 C276 1.344 . S
O278 Co270 2.055 . S
O278 C282 1.253 . S
H279 C275 0.931 . S
H280 C276 0.930 . S
O281 Co270 2.039 . S
O281 C271 1.265 . S
C282 O278 1.253 . S
C282 O283 1.227 . S
O283 C282 1.227 . S
N284 Co270 2.140 . S
N284 C287 1.346 . S
N284 C288 1.345 . S
C285 C286 1.387 . S
C285 C289 1.391 . S
C286 C285 1.387 . S
C286 C287 1.369 . S
C286 H295 0.929 . S
C287 N284 1.346 . S
C287 C286 1.369 . S
C287 H290 0.928 . S
C288 N284 1.345 . S
C288 C289 1.371 . S
C288 H291 0.931 . S
C289 C285 1.391 . S
C289 C288 1.371 . S
C289 H296 0.930 . S
H290 C287 0.928 . S
H291 C288 0.931 . S
H292 C268 0.930 . S
H293 C265 0.930 . S
H294 C274 0.930 . S
H295 C286 0.929 . S
H296 C289 0.930 . S
C297 C298 1.351 . S
C297 N300 1.368 . S
C297 H302 0.931 . S
C298 C297 1.351 . S
C298 N299 1.373 . S
C298 H326 0.930 . S
N299 C298 1.373 . S
N299 C301 1.340 . S
N300 C297 1.368 . S
N300 C301 1.321 . S
N300 Co303 2.135 . S
C301 N299 1.340 . S
C301 N300 1.321 . S
C301 H325 0.930 . S
H302 C297 0.931 . S
Co303 N300 2.135 . S
Co303 N306 2.121 . S
Co303 O311 2.055 . S
Co303 O314 2.039 . S
Co303 N317 2.140 . S
C304 O305 1.227 . S
C304 O314 1.265 . S
O305 C304 1.227 . S
N306 Co303 2.121 . S
N306 C308 1.375 . S
N306 C309 1.313 . S
C307 C308 1.338 . S
C307 N310 1.377 . S
C307 H327 0.930 . S
C308 N306 1.375 . S
C308 C307 1.338 . S
C308 H312 0.931 . S
C309 N306 1.313 . S
C309 N310 1.344 . S
C309 H313 0.930 . S
N310 C307 1.377 . S
N310 C309 1.344 . S
O311 Co303 2.055 . S
O311 C315 1.253 . S
H312 C308 0.931 . S
H313 C309 0.930 . S
O314 Co303 2.039 . S
O314 C304 1.265 . S
C315 O311 1.253 . S
C315 O316 1.227 . S
O316 C315 1.227 . S
N317 Co303 2.140 . S
N317 C320 1.346 . S
N317 C321 1.345 . S
C318 C319 1.387 . S
C318 C322 1.391 . S
C319 C318 1.387 . S
C319 C320 1.369 . S
C319 H328 0.929 . S
C320 N317 1.346 . S
C320 C319 1.369 . S
C320 H323 0.928 . S
C321 N317 1.345 . S
C321 C322 1.371 . S
C321 H324 0.931 . S
C322 C318 1.391 . S
C322 C321 1.371 . S
C322 H329 0.930 . S
H323 C320 0.928 . S
H324 C321 0.931 . S
H325 C301 0.930 . S
H326 C298 0.930 . S
H327 C307 0.930 . S
H328 C319 0.929 . S
H329 C322 0.930 . S
C330 C331 1.351 . S
C330 N333 1.368 . S
C330 H335 0.931 . S
C331 C330 1.351 . S
C331 N332 1.373 1_556 S
C331 H359 0.930 . S
N332 C331 1.373 1_554 S
N332 C334 1.340 . S
N333 C330 1.368 . S
N333 C334 1.321 1_556 S
N333 Co336 2.135 . S
C334 N332 1.340 . S
C334 N333 1.321 1_554 S
C334 H358 0.930 . S
H335 C330 0.931 . S
Co336 N333 2.135 . S
Co336 N339 2.121 . S
Co336 O344 2.055 . S
Co336 O347 2.039 1_556 S
Co336 N350 2.140 1_556 S
C337 O338 1.227 . S
C337 O347 1.265 . S
O338 C337 1.227 . S
N339 Co336 2.121 . S
N339 C341 1.375 1_556 S
N339 C342 1.313 . S
C340 C341 1.338 . S
C340 N343 1.377 1_554 S
C340 H360 0.930 . S
C341 N339 1.375 1_554 S
C341 C340 1.338 . S
C341 H345 0.931 . S
C342 N339 1.313 . S
C342 N343 1.344 . S
C342 H346 0.930 . S
N343 C340 1.377 1_556 S
N343 C342 1.344 . S
O344 Co336 2.055 . S
O344 C348 1.253 . S
H345 C341 0.931 . S
H346 C342 0.930 . S
O347 Co336 2.039 1_554 S
O347 C337 1.265 . S
C348 O344 1.253 . S
C348 O349 1.227 . S
O349 C348 1.227 . S
N350 Co336 2.140 1_554 S
N350 C353 1.346 . S
N350 C354 1.345 1_554 S
C351 C352 1.387 . S
C351 C355 1.391 1_554 S
C352 C351 1.387 . S
C352 C353 1.369 . S
C352 H361 0.929 . S
C353 N350 1.346 . S
C353 C352 1.369 . S
C353 H356 0.928 . S
C354 N350 1.345 1_556 S
C354 C355 1.371 . S
C354 H357 0.931 . S
C355 C351 1.391 1_556 S
C355 C354 1.371 . S
C355 H362 0.930 . S
H356 C353 0.928 . S
H357 C354 0.931 . S
H358 C334 0.930 . S
H359 C331 0.930 . S
H360 C340 0.930 . S
H361 C352 0.929 . S
H362 C355 0.930 . S
C363 C364 1.351 . S
C363 N366 1.368 . S
C363 H368 0.931 . S
C364 C363 1.351 . S
C364 N365 1.373 . S
C364 H392 0.930 . S
N365 C364 1.373 . S
N365 C367 1.340 . S
N366 C363 1.368 . S
N366 C367 1.321 . S
N366 Co369 2.135 . S
C367 N365 1.340 . S
C367 N366 1.321 . S
C367 H391 0.930 . S
H368 C363 0.931 . S
Co369 N366 2.135 . S
Co369 N372 2.121 . S
Co369 O377 2.055 . S
Co369 O380 2.039 . S
Co369 N383 2.140 . S
C370 O371 1.227 . S
C370 O380 1.265 . S
O371 C370 1.227 . S
N372 Co369 2.121 . S
N372 C374 1.375 . S
N372 C375 1.313 . S
C373 C374 1.338 . S
C373 N376 1.377 . S
C373 H393 0.930 . S
C374 N372 1.375 . S
C374 C373 1.338 . S
C374 H378 0.931 . S
C375 N372 1.313 . S
C375 N376 1.344 . S
C375 H379 0.930 . S
N376 C373 1.377 . S
N376 C375 1.344 . S
O377 Co369 2.055 . S
O377 C381 1.253 . S
H378 C374 0.931 . S
H379 C375 0.930 . S
O380 Co369 2.039 . S
O380 C370 1.265 . S
C381 O377 1.253 . S
C381 O382 1.227 . S
O382 C381 1.227 . S
N383 Co369 2.140 . S
N383 C386 1.346 . S
N383 C387 1.345 . S
C384 C385 1.387 . S
C384 C388 1.391 . S
C385 C384 1.387 . S
C385 C386 1.369 . S
C385 H394 0.929 . S
C386 N383 1.346 . S
C386 C385 1.369 . S
C386 H389 0.928 . S
C387 N383 1.345 . S
C387 C388 1.371 . S
C387 H390 0.931 . S
C388 C384 1.391 . S
C388 C387 1.371 . S
C388 H395 0.930 . S
H389 C386 0.928 . S
H390 C387 0.931 . S
H391 C367 0.930 . S
H392 C364 0.930 . S
H393 C373 0.930 . S
H394 C385 0.929 . S
H395 C388 0.930 . S
C396 C397 1.351 . S
C396 N399 1.368 . S
C396 H401 0.931 . S
C397 C396 1.351 . S
C397 N398 1.373 1_556 S
C397 H425 0.930 . S
N398 C397 1.373 1_554 S
N398 C400 1.340 . S
N399 C396 1.368 . S
N399 C400 1.321 1_556 S
N399 Co402 2.135 . S
C400 N398 1.340 . S
C400 N399 1.321 1_554 S
C400 H424 0.930 . S
H401 C396 0.931 . S
Co402 N399 2.135 . S
Co402 N405 2.121 . S
Co402 O410 2.055 . S
Co402 O413 2.039 1_556 S
Co402 N416 2.140 1_556 S
C403 O404 1.227 . S
C403 O413 1.265 . S
O404 C403 1.227 . S
N405 Co402 2.121 . S
N405 C407 1.375 1_556 S
N405 C408 1.313 . S
C406 C407 1.338 . S
C406 N409 1.377 1_554 S
C406 H426 0.930 . S
C407 N405 1.375 1_554 S
C407 C406 1.338 . S
C407 H411 0.931 . S
C408 N405 1.313 . S
C408 N409 1.344 . S
C408 H412 0.930 . S
N409 C406 1.377 1_556 S
N409 C408 1.344 . S
O410 Co402 2.055 . S
O410 C414 1.253 . S
H411 C407 0.931 . S
H412 C408 0.930 . S
O413 Co402 2.039 1_554 S
O413 C403 1.265 . S
C414 O410 1.253 . S
C414 O415 1.227 . S
O415 C414 1.227 . S
N416 Co402 2.140 1_554 S
N416 C419 1.346 . S
N416 C420 1.345 1_554 S
C417 C418 1.387 . S
C417 C421 1.391 1_554 S
C418 C417 1.387 . S
C418 C419 1.369 . S
C418 H427 0.929 . S
C419 N416 1.346 . S
C419 C418 1.369 . S
C419 H422 0.928 . S
C420 N416 1.345 1_556 S
C420 C421 1.371 . S
C420 H423 0.931 . S
C421 C417 1.391 1_556 S
C421 C420 1.371 . S
C421 H428 0.930 . S
H422 C419 0.928 . S
H423 C420 0.931 . S
H424 C400 0.930 . S
H425 C397 0.930 . S
H426 C406 0.930 . S
H427 C418 0.929 . S
H428 C421 0.930 . S
C429 C430 1.351 . S
C429 N432 1.368 . S
C429 H434 0.931 . S
C430 C429 1.351 . S
C430 N431 1.373 . S
C430 H458 0.930 . S
N431 C430 1.373 . S
N431 C433 1.340 . S
N432 C429 1.368 . S
N432 C433 1.321 . S
N432 Co435 2.135 . S
C433 N431 1.340 . S
C433 N432 1.321 . S
C433 H457 0.930 . S
H434 C429 0.931 . S
Co435 N432 2.135 . S
Co435 N438 2.121 . S
Co435 O443 2.055 . S
Co435 O446 2.039 . S
Co435 N449 2.140 . S
C436 O437 1.227 . S
C436 O446 1.265 . S
O437 C436 1.227 . S
N438 Co435 2.121 . S
N438 C440 1.375 . S
N438 C441 1.313 . S
C439 C440 1.338 . S
C439 N442 1.377 . S
C439 H459 0.930 . S
C440 N438 1.375 . S
C440 C439 1.338 . S
C440 H444 0.931 . S
C441 N438 1.313 . S
C441 N442 1.344 . S
C441 H445 0.930 . S
N442 C439 1.377 . S
N442 C441 1.344 . S
O443 Co435 2.055 . S
O443 C447 1.253 . S
H444 C440 0.931 . S
H445 C441 0.930 . S
O446 Co435 2.039 . S
O446 C436 1.265 . S
C447 O443 1.253 . S
C447 O448 1.227 . S
O448 C447 1.227 . S
N449 Co435 2.140 . S
N449 C452 1.346 . S
N449 C453 1.345 . S
C450 C451 1.387 . S
C450 C454 1.391 . S
C451 C450 1.387 . S
C451 C452 1.369 . S
C451 H460 0.929 . S
C452 N449 1.346 . S
C452 C451 1.369 . S
C452 H455 0.928 . S
C453 N449 1.345 . S
C453 C454 1.371 . S
C453 H456 0.931 . S
C454 C450 1.391 . S
C454 C453 1.371 . S
C454 H461 0.930 . S
H455 C452 0.928 . S
H456 C453 0.931 . S
H457 C433 0.930 . S
H458 C430 0.930 . S
H459 C439 0.930 . S
H460 C451 0.929 . S
H461 C454 0.930 . S
C462 C463 1.351 . S
C462 N465 1.368 . S
C462 H467 0.931 . S
C463 C462 1.351 . S
C463 N464 1.373 . S
C463 H491 0.930 . S
N464 C463 1.373 . S
N464 C466 1.340 . S
N465 C462 1.368 . S
N465 C466 1.321 . S
N465 Co468 2.135 . S
C466 N464 1.340 . S
C466 N465 1.321 . S
C466 H490 0.930 . S
H467 C462 0.931 . S
Co468 N465 2.135 . S
Co468 N471 2.121 . S
Co468 O476 2.055 . S
Co468 O479 2.039 . S
Co468 N482 2.140 . S
C469 O470 1.227 . S
C469 O479 1.265 . S
O470 C469 1.227 . S
N471 Co468 2.121 . S
N471 C473 1.375 . S
N471 C474 1.313 . S
C472 C473 1.338 . S
C472 N475 1.377 . S
C472 H492 0.930 . S
C473 N471 1.375 . S
C473 C472 1.338 . S
C473 H477 0.931 . S
C474 N471 1.313 . S
C474 N475 1.344 . S
C474 H478 0.930 . S
N475 C472 1.377 . S
N475 C474 1.344 . S
O476 Co468 2.055 . S
O476 C480 1.253 . S
H477 C473 0.931 . S
H478 C474 0.930 . S
O479 Co468 2.039 . S
O479 C469 1.265 . S
C480 O476 1.253 . S
C480 O481 1.227 . S
O481 C480 1.227 . S
N482 Co468 2.140 . S
N482 C485 1.346 . S
N482 C486 1.345 . S
C483 C484 1.387 . S
C483 C487 1.391 . S
C484 C483 1.387 . S
C484 C485 1.369 . S
C484 H493 0.929 . S
C485 N482 1.346 . S
C485 C484 1.369 . S
C485 H488 0.928 . S
C486 N482 1.345 . S
C486 C487 1.371 . S
C486 H489 0.931 . S
C487 C483 1.391 . S
C487 C486 1.371 . S
C487 H494 0.930 . S
H488 C485 0.928 . S
H489 C486 0.931 . S
H490 C466 0.930 . S
H491 C463 0.930 . S
H492 C472 0.930 . S
H493 C484 0.929 . S
H494 C487 0.930 . S
C495 C496 1.351 . S
C495 N498 1.368 . S
C495 H500 0.931 . S
C496 C495 1.351 . S
C496 N497 1.373 . S
C496 H524 0.930 . S
N497 C496 1.373 . S
N497 C499 1.340 . S
N498 C495 1.368 . S
N498 C499 1.321 . S
N498 Co501 2.135 . S
C499 N497 1.340 . S
C499 N498 1.321 . S
C499 H523 0.930 . S
H500 C495 0.931 . S
Co501 N498 2.135 . S
Co501 N504 2.121 . S
Co501 O509 2.055 . S
Co501 O512 2.039 . S
Co501 N515 2.140 . S
C502 O503 1.227 . S
C502 O512 1.265 . S
O503 C502 1.227 . S
N504 Co501 2.121 . S
N504 C506 1.375 . S
N504 C507 1.313 . S
C505 C506 1.338 . S
C505 N508 1.377 . S
C505 H525 0.930 . S
C506 N504 1.375 . S
C506 C505 1.338 . S
C506 H510 0.931 . S
C507 N504 1.313 . S
C507 N508 1.344 . S
C507 H511 0.930 . S
N508 C505 1.377 . S
N508 C507 1.344 . S
O509 Co501 2.055 . S
O509 C513 1.253 . S
H510 C506 0.931 . S
H511 C507 0.930 . S
O512 Co501 2.039 . S
O512 C502 1.265 . S
C513 O509 1.253 . S
C513 O514 1.227 . S
O514 C513 1.227 . S
N515 Co501 2.140 . S
N515 C518 1.346 . S
N515 C519 1.345 . S
C516 C517 1.387 . S
C516 C520 1.391 . S
C517 C516 1.387 . S
C517 C518 1.369 . S
C517 H526 0.929 . S
C518 N515 1.346 . S
C518 C517 1.369 . S
C518 H521 0.928 . S
C519 N515 1.345 . S
C519 C520 1.371 . S
C519 H522 0.931 . S
C520 C516 1.391 . S
C520 C519 1.371 . S
C520 H527 0.930 . S
H521 C518 0.928 . S
H522 C519 0.931 . S
H523 C499 0.930 . S
H524 C496 0.930 . S
H525 C505 0.930 . S
H526 C517 0.929 . S
H527 C520 0.930 . S
C528 C529 1.369 . S
C528 C530 1.419 1_655 S
C528 H532 0.930 1_554 S
C529 C528 1.369 . S
C529 C538 1.429 1_565 S
C530 C528 1.419 1_455 S
C530 C531 1.363 1_565 S
C530 H533 0.929 1_554 S
C531 C530 1.363 1_545 S
C531 C537 1.428 . S
H532 C528 0.930 1_556 S
H533 C530 0.929 1_556 S
S534 N535 1.613 . S
S534 N536 1.610 1_655 S
N535 S534 1.613 . S
N535 C538 1.350 . S
N536 S534 1.610 1_455 S
N536 C537 1.351 . S
C537 C531 1.428 . S
C537 N536 1.351 . S
C537 C538 1.434 1_455 S
C538 C529 1.429 1_545 S
C538 N535 1.350 . S
C538 C537 1.434 1_655 S
C539 C540 1.369 . S
C539 C541 1.419 . S
C539 H543 0.930 . S
C540 C539 1.369 . S
C540 C549 1.429 1_655 S
C541 C539 1.419 . S
C541 C542 1.363 1_655 S
C541 H544 0.929 . S
C542 C541 1.363 1_455 S
C542 C548 1.428 . S
H543 C539 0.930 . S
H544 C541 0.929 . S
S545 N546 1.613 . S
S545 N547 1.610 . S
N546 S545 1.613 . S
N546 C549 1.350 . S
N547 S545 1.610 . S
N547 C548 1.351 . S
C548 C542 1.428 . S
C548 N547 1.351 . S
C548 C549 1.434 . S
C549 C540 1.429 1_455 S
C549 N546 1.350 . S
C549 C548 1.434 . S
C550 C551 1.369 . S
C550 C552 1.419 . S
C550 H554 0.930 . S
C551 C550 1.369 . S
C551 C560 1.429 . S
C552 C550 1.419 . S
C552 C553 1.363 . S
C552 H555 0.929 . S
C553 C552 1.363 . S
C553 C559 1.428 . S
H554 C550 0.930 . S
H555 C552 0.929 . S
S556 N557 1.613 . S
S556 N558 1.610 . S
N557 S556 1.613 . S
N557 C560 1.350 . S
N558 S556 1.610 . S
N558 C559 1.351 . S
C559 C553 1.428 . S
C559 N558 1.351 . S
C559 C560 1.434 . S
C560 C551 1.429 . S
C560 N557 1.350 . S
C560 C559 1.434 . S
C561 C562 1.369 . S
C561 C563 1.419 1_565 S
C561 H565 0.930 . S
C562 C561 1.369 . S
C562 C571 1.429 . S
C563 C561 1.419 1_545 S
C563 C564 1.363 . S
C563 H566 0.929 . S
C564 C563 1.363 . S
C564 C570 1.428 . S
H565 C561 0.930 . S
H566 C563 0.929 . S
S567 N568 1.613 1_545 S
S567 N569 1.610 . S
N568 S567 1.613 1_565 S
N568 C571 1.350 . S
N569 S567 1.610 . S
N569 C570 1.351 . S
C570 C564 1.428 . S
C570 N569 1.351 . S
C570 C571 1.434 1_545 S
C571 C562 1.429 . S
C571 N568 1.350 . S
C571 C570 1.434 1_565 S
C572 C573 1.369 . S
C572 C574 1.419 1_455 S
C572 H576 0.930 . S
C573 C572 1.369 . S
C573 C582 1.429 1_565 S
C574 C572 1.419 1_655 S
C574 C575 1.363 1_565 S
C574 H577 0.929 . S
C575 C574 1.363 1_545 S
C575 C581 1.428 . S
H576 C572 0.930 . S
H577 C574 0.929 . S
S578 N579 1.613 . S
S578 N580 1.610 1_455 S
N579 S578 1.613 . S
N579 C582 1.350 . S
N580 S578 1.610 1_655 S
N580 C581 1.351 . S
C581 C575 1.428 . S
C581 N580 1.351 . S
C581 C582 1.434 1_655 S
C582 C573 1.429 1_545 S
C582 N579 1.350 . S
C582 C581 1.434 1_455 S
C583 C584 1.369 1_455 S
C583 C585 1.419 . S
C583 H587 0.930 . S
C584 C583 1.369 1_655 S
C584 C593 1.429 . S
C585 C583 1.419 . S
C585 C586 1.363 . S
C585 H588 0.929 . S
C586 C585 1.363 . S
C586 C592 1.428 1_455 S
H587 C583 0.930 . S
H588 C585 0.929 . S
S589 N590 1.613 . S
S589 N591 1.610 . S
N590 S589 1.613 . S
N590 C593 1.350 . S
N591 S589 1.610 . S
N591 C592 1.351 . S
C592 C586 1.428 1_655 S
C592 N591 1.351 . S
C592 C593 1.434 . S
C593 C584 1.429 . S
C593 N590 1.350 . S
C593 C592 1.434 . S
C594 C595 1.369 . S
C594 C596 1.419 . S
C594 H598 0.930 . S
C595 C594 1.369 . S
C595 C604 1.429 1_554 S
C596 C594 1.419 . S
C596 C597 1.363 . S
C596 H599 0.929 . S
C597 C596 1.363 . S
C597 C603 1.428 1_554 S
H598 C594 0.930 . S
H599 C596 0.929 . S
S600 N601 1.613 . S
S600 N602 1.610 . S
N601 S600 1.613 . S
N601 C604 1.350 . S
N602 S600 1.610 . S
N602 C603 1.351 . S
C603 C597 1.428 1_556 S
C603 N602 1.351 . S
C603 C604 1.434 . S
C604 C595 1.429 1_556 S
C604 N601 1.350 . S
C604 C603 1.434 . S
C605 C606 1.369 . S
C605 C607 1.419 1_565 S
C605 H609 0.930 . S
C606 C605 1.369 . S
C606 C615 1.429 . S
C607 C605 1.419 1_545 S
C607 C608 1.363 . S
C607 H610 0.929 . S
C608 C607 1.363 . S
C608 C614 1.428 . S
H609 C605 0.930 . S
H610 C607 0.929 . S
S611 N612 1.613 . S
S611 N613 1.610 1_565 S
N612 S611 1.613 . S
N612 C615 1.350 . S
N613 S611 1.610 1_545 S
N613 C614 1.351 . S
C614 C608 1.428 . S
C614 N613 1.351 . S
C614 C615 1.434 1_545 S
C615 C606 1.429 . S
C615 N612 1.350 . S
C615 C614 1.434 1_565 S
C616 C617 1.381 . S
C616 C618 1.411 1_565 S
C616 H620 0.926 1_565 S
C617 C616 1.381 . S
C617 C626 1.429 . S
C618 C616 1.411 1_545 S
C618 C619 1.363 . S
C618 H621 0.929 . S
C619 C618 1.363 . S
C619 C625 1.428 1_545 S
H620 C616 0.926 1_545 S
H621 C618 0.929 . S
S622 N623 1.613 . S
S622 N624 1.610 . S
N623 S622 1.613 . S
N623 C626 1.350 . S
N624 S622 1.610 . S
N624 C625 1.351 . S
C625 C619 1.428 1_565 S
C625 N624 1.351 . S
C625 C626 1.434 . S
C626 C617 1.429 . S
C626 N623 1.350 . S
C626 C625 1.434 . S
C627 C628 1.369 . S
C627 C629 1.419 . S
C627 H631 0.930 . S
C628 C627 1.369 . S
C628 C637 1.429 . S
C629 C627 1.419 . S
C629 C630 1.363 1_455 S
C629 H632 0.928 1_455 S
C630 C629 1.363 1_655 S
C630 C636 1.428 . S
H631 C627 0.930 . S
H632 C629 0.928 1_655 S
S633 N634 1.613 1_655 S
S633 N635 1.610 . S
N634 S633 1.613 1_455 S
N634 C637 1.350 . S
N635 S633 1.610 . S
N635 C636 1.351 . S
C636 C630 1.428 . S
C636 N635 1.351 . S
C636 C637 1.434 1_655 S
C637 C628 1.429 . S
C637 N634 1.350 . S
C637 C636 1.434 1_455 S
C638 C639 1.369 . S
C638 C640 1.419 . S
C638 H642 0.930 . S
C639 C638 1.369 . S
C639 C648 1.429 . S
C640 C638 1.419 . S
C640 C641 1.363 . S
C640 H643 0.929 . S
C641 C640 1.363 . S
C641 C647 1.428 . S
H642 C638 0.930 . S
H643 C640 0.929 . S
S644 N645 1.613 . S
S644 N646 1.610 . S
N645 S644 1.613 . S
N645 C648 1.350 . S
N646 S644 1.610 . S
N646 C647 1.351 . S
C647 C641 1.428 . S
C647 N646 1.351 . S
C647 C648 1.434 . S
C648 C639 1.429 . S
C648 N645 1.350 . S
C648 C647 1.434 . S
C649 C650 1.369 . S
C649 C651 1.419 1_554 S
C649 H653 0.930 . S
C650 C649 1.369 . S
C650 C659 1.429 . S
C651 C649 1.419 1_556 S
C651 C652 1.363 . S
C651 H654 0.929 . S
C652 C651 1.363 . S
C652 C658 1.428 . S
H653 C649 0.930 . S
H654 C651 0.929 . S
S655 N656 1.613 . S
S655 N657 1.610 1_554 S
N656 S655 1.613 . S
N656 C659 1.350 . S
N657 S655 1.610 1_556 S
N657 C658 1.351 . S
C658 C652 1.428 . S
C658 N657 1.351 . S
C658 C659 1.434 1_556 S
C659 C650 1.429 . S
C659 N656 1.350 . S
C659 C658 1.434 1_554 S
C660 C661 1.369 1_565 S
C660 C662 1.419 . S
C660 H664 0.930 1_565 S
C661 C660 1.369 1_545 S
C661 C670 1.429 . S
C662 C660 1.419 . S
C662 C663 1.363 . S
C662 H665 0.929 . S
C663 C662 1.363 . S
C663 C669 1.428 . S
H664 C660 0.930 1_545 S
H665 C662 0.929 . S
S666 N667 1.613 . S
S666 N668 1.610 1_545 S
N667 S666 1.613 . S
N667 C670 1.350 . S
N668 S666 1.610 1_565 S
N668 C669 1.351 . S
C669 C663 1.428 . S
C669 N668 1.351 . S
C669 C670 1.434 1_565 S
C670 C661 1.429 . S
C670 N667 1.350 . S
C670 C669 1.434 1_545 S
C671 C672 1.369 . S
C671 C673 1.419 1_656 S
C671 H675 0.930 . S
C672 C671 1.369 . S
C672 C681 1.429 1_655 S
C673 C671 1.419 1_454 S
C673 C674 1.363 . S
C673 H676 0.929 1_455 S
C674 C673 1.363 . S
C674 C680 1.428 1_554 S
H675 C671 0.930 . S
H676 C673 0.929 1_655 S
S677 N678 1.613 . S
S677 N679 1.610 . S
N678 S677 1.613 . S
N678 C681 1.350 . S
N679 S677 1.610 . S
N679 C680 1.351 . S
C680 C674 1.428 1_556 S
C680 N679 1.351 . S
C680 C681 1.434 . S
C681 C672 1.429 1_455 S
C681 N678 1.350 . S
C681 C680 1.434 . S
C682 C683 1.369 . S
C682 C684 1.419 . S
C682 H686 0.930 . S
C683 C682 1.369 . S
C683 C692 1.429 . S
C684 C682 1.419 . S
C684 C685 1.363 . S
C684 H687 0.929 . S
C685 C684 1.363 . S
C685 C691 1.428 . S
H686 C682 0.930 . S
H687 C684 0.929 . S
S688 N689 1.613 . S
S688 N690 1.610 . S
N689 S688 1.613 . S
N689 C692 1.350 . S
N690 S688 1.610 . S
N690 C691 1.351 . S
C691 C685 1.428 . S
C691 N690 1.351 . S
C691 C692 1.434 . S
C692 C683 1.429 . S
C692 N689 1.350 . S
C692 C691 1.434 . S
C693 C694 1.369 . S
C693 C695 1.419 . S
C693 H697 0.930 . S
C694 C693 1.369 . S
C694 C703 1.429 . S
C695 C693 1.419 . S
C695 C696 1.363 . S
C695 H698 0.929 . S
C696 C695 1.363 . S
C696 C702 1.428 . S
H697 C693 0.930 . S
H698 C695 0.929 . S
S699 N700 1.613 . S
S699 N701 1.610 . S
N700 S699 1.613 . S
N700 C703 1.350 . S
N701 S699 1.610 . S
N701 C702 1.351 . S
C702 C696 1.428 . S
C702 N701 1.351 . S
C702 C703 1.434 . S
C703 C694 1.429 . S
C703 N700 1.350 . S
C703 C702 1.434 . S
C704 C705 1.369 . S
C704 C706 1.419 . S
C704 H708 0.930 . S
C705 C704 1.369 . S
C705 C714 1.429 . S
C706 C704 1.419 . S
C706 C707 1.363 . S
C706 H709 0.929 . S
C707 C706 1.363 . S
C707 C713 1.428 . S
H708 C704 0.930 . S
H709 C706 0.929 . S
S710 N711 1.613 . S
S710 N712 1.610 . S
N711 S710 1.613 . S
N711 C714 1.350 . S
N712 S710 1.610 . S
N712 C713 1.351 . S
C713 C707 1.428 . S
C713 N712 1.351 . S
C713 C714 1.434 . S
C714 C705 1.429 . S
C714 N711 1.350 . S
C714 C713 1.434 . S
C715 C716 1.369 1_556 S
C715 C717 1.419 . S
C715 H719 0.930 . S
C716 C715 1.369 1_554 S
C716 C725 1.429 . S
C717 C715 1.419 . S
C717 C718 1.363 . S
C717 H720 0.929 . S
C718 C717 1.363 . S
C718 C724 1.428 . S
H719 C715 0.930 . S
H720 C717 0.929 . S
S721 N722 1.613 . S
S721 N723 1.610 1_554 S
N722 S721 1.613 . S
N722 C725 1.350 . S
N723 S721 1.610 1_556 S
N723 C724 1.351 . S
C724 C718 1.428 . S
C724 N723 1.351 . S
C724 C725 1.434 1_556 S
C725 C716 1.429 . S
C725 N722 1.350 . S
C725 C724 1.434 1_554 S
C726 C727 1.369 . S
C726 C728 1.419 . S
C726 H730 0.930 . S
C727 C726 1.369 . S
C727 C736 1.429 . S
C728 C726 1.419 . S
C728 C729 1.363 1_545 S
C728 H731 0.929 . S
C729 C728 1.363 1_565 S
C729 C735 1.428 . S
H730 C726 0.930 . S
H731 C728 0.929 . S
S732 N733 1.613 1_565 S
S732 N734 1.610 . S
N733 S732 1.613 1_545 S
N733 C736 1.350 . S
N734 S732 1.610 . S
N734 C735 1.351 . S
C735 C729 1.428 . S
C735 N734 1.351 . S
C735 C736 1.434 1_565 S
C736 C727 1.429 . S
C736 N733 1.350 . S
C736 C735 1.434 1_545 S
C737 C738 1.369 . S
C737 C739 1.419 . S
C737 H741 0.930 . S
C738 C737 1.369 . S
C738 C747 1.429 1_455 S
C739 C737 1.419 . S
C739 C740 1.363 1_455 S
C739 H742 0.929 . S
C740 C739 1.363 1_655 S
C740 C746 1.428 . S
H741 C737 0.930 . S
H742 C739 0.929 . S
S743 N744 1.613 . S
S743 N745 1.610 . S
N744 S743 1.613 . S
N744 C747 1.350 . S
N745 S743 1.610 . S
N745 C746 1.351 . S
C746 C740 1.428 . S
C746 N745 1.351 . S
C746 C747 1.434 . S
C747 C738 1.429 1_655 S
C747 N744 1.350 . S
C747 C746 1.434 . S
C748 C749 1.369 . S
C748 C750 1.419 . S
C748 H752 0.930 . S
C749 C748 1.369 . S
C749 C758 1.429 . S
C750 C748 1.419 . S
C750 C751 1.363 . S
C750 H753 0.929 . S
C751 C750 1.363 . S
C751 C757 1.428 . S
H752 C748 0.930 . S
H753 C750 0.929 . S
S754 N755 1.613 . S
S754 N756 1.610 . S
N755 S754 1.613 . S
N755 C758 1.350 . S
N756 S754 1.610 . S
N756 C757 1.351 . S
C757 C751 1.428 . S
C757 N756 1.351 . S
C757 C758 1.434 . S
C758 C749 1.429 . S
C758 N755 1.350 . S
C758 C757 1.434 . S
C759 C760 1.369 . S
C759 C761 1.419 . S
C759 H763 0.930 . S
C760 C759 1.369 . S
C760 C769 1.429 . S
C761 C759 1.419 . S
C761 C762 1.363 . S
C761 H764 0.929 . S
C762 C761 1.363 . S
C762 C768 1.428 . S
H763 C759 0.930 . S
H764 C761 0.929 . S
S765 N766 1.613 . S
S765 N767 1.610 . S
N766 S765 1.613 . S
N766 C769 1.350 . S
N767 S765 1.610 . S
N767 C768 1.351 . S
C768 C762 1.428 . S
C768 N767 1.351 . S
C768 C769 1.434 . S
C769 C760 1.429 . S
C769 N766 1.350 . S
C769 C768 1.434 . S
C770 C771 1.369 1_545 S
C770 C772 1.419 . S
C770 H774 0.930 . S
C771 C770 1.369 1_565 S
C771 C780 1.429 . S
C772 C770 1.419 . S
C772 C773 1.363 . S
C772 H775 0.929 . S
C773 C772 1.363 . S
C773 C779 1.428 . S
H774 C770 0.930 . S
H775 C772 0.929 . S
S776 N777 1.613 . S
S776 N778 1.610 . S
N777 S776 1.613 . S
N777 C780 1.350 . S
N778 S776 1.610 . S
N778 C779 1.351 1_565 S
C779 C773 1.428 . S
C779 N778 1.351 1_545 S
C779 C780 1.434 1_545 S
C780 C771 1.429 . S
C780 N777 1.350 . S
C780 C779 1.434 1_565 S
C781 C782 1.369 1_455 S
C781 C783 1.419 1_554 S
C781 H785 0.930 . S
C782 C781 1.369 1_655 S
C782 C791 1.429 1_554 S
C783 C781 1.419 1_556 S
C783 C784 1.363 . S
C783 H786 0.929 . S
C784 C783 1.363 . S
C784 C790 1.428 1_455 S
H785 C781 0.930 . S
H786 C783 0.929 . S
S787 N788 1.613 . S
S787 N789 1.610 . S
N788 S787 1.613 . S
N788 C791 1.350 . S
N789 S787 1.610 . S
N789 C790 1.351 . S
C790 C784 1.428 1_655 S
C790 N789 1.351 . S
C790 C791 1.434 . S
C791 C782 1.429 1_556 S
C791 N788 1.350 . S
C791 C790 1.434 . S
C792 C793 1.369 . S
C792 C794 1.419 . S
C792 H796 0.930 . S
C793 C792 1.369 . S
C793 C802 1.429 . S
C794 C792 1.419 . S
C794 C795 1.363 . S
C794 H797 0.929 . S
C795 C794 1.363 . S
C795 C801 1.428 . S
H796 C792 0.930 . S
H797 C794 0.929 . S
S798 N799 1.613 . S
S798 N800 1.610 . S
N799 S798 1.613 . S
N799 C802 1.350 . S
N800 S798 1.610 . S
N800 C801 1.351 . S
C801 C795 1.428 . S
C801 N800 1.351 . S
C801 C802 1.434 . S
C802 C793 1.429 . S
C802 N799 1.350 . S
C802 C801 1.434 . S
C803 C804 1.369 . S
C803 C805 1.419 . S
C803 H807 0.930 . S
C804 C803 1.369 . S
C804 C813 1.429 . S
C805 C803 1.419 . S
C805 C806 1.363 . S
C805 H808 0.929 . S
C806 C805 1.363 . S
C806 C812 1.428 . S
H807 C803 0.930 . S
H808 C805 0.929 . S
S809 N810 1.613 . S
S809 N811 1.610 . S
N810 S809 1.613 . S
N810 C813 1.350 . S
N811 S809 1.610 . S
N811 C812 1.351 . S
C812 C806 1.428 . S
C812 N811 1.351 . S
C812 C813 1.434 . S
C813 C804 1.429 . S
C813 N810 1.350 . S
C813 C812 1.434 . S
C814 C815 1.369 . S
C814 C816 1.419 . S
C814 H818 0.930 . S
C815 C814 1.369 . S
C815 C824 1.429 . S
C816 C814 1.419 . S
C816 C817 1.363 . S
C816 H819 0.929 . S
C817 C816 1.363 . S
C817 C823 1.428 . S
H818 C814 0.930 . S
H819 C816 0.929 . S
S820 N821 1.613 . S
S820 N822 1.610 . S
N821 S820 1.613 . S
N821 C824 1.350 . S
N822 S820 1.610 . S
N822 C823 1.351 . S
C823 C817 1.428 . S
C823 N822 1.351 . S
C823 C824 1.434 . S
C824 C815 1.429 . S
C824 N821 1.350 . S
C824 C823 1.434 . S
C825 C826 1.369 . S
C825 C827 1.419 . S
C825 H829 0.930 . S
C826 C825 1.369 . S
C826 C835 1.429 . S
C827 C825 1.419 . S
C827 C828 1.363 . S
C827 H830 0.929 . S
C828 C827 1.363 . S
C828 C834 1.428 . S
H829 C825 0.930 . S
H830 C827 0.929 . S
S831 N832 1.613 . S
S831 N833 1.610 . S
N832 S831 1.613 . S
N832 C835 1.350 . S
N833 S831 1.610 . S
N833 C834 1.351 . S
C834 C828 1.428 . S
C834 N833 1.351 . S
C834 C835 1.434 . S
C835 C826 1.429 . S
C835 N832 1.350 . S
C835 C834 1.434 . S
C836 C837 1.369 . S
C836 C838 1.419 . S
C836 H840 0.930 . S
C837 C836 1.369 . S
C837 C846 1.429 . S
C838 C836 1.419 . S
C838 C839 1.363 . S
C838 H841 0.929 . S
C839 C838 1.363 . S
C839 C845 1.428 . S
H840 C836 0.930 . S
H841 C838 0.929 . S
S842 N843 1.613 . S
S842 N844 1.610 . S
N843 S842 1.613 . S
N843 C846 1.350 . S
N844 S842 1.610 . S
N844 C845 1.351 . S
C845 C839 1.428 . S
C845 N844 1.351 . S
C845 C846 1.434 . S
C846 C837 1.429 . S
C846 N843 1.350 . S
C846 C845 1.434 . S
C847 C848 1.369 . S
C847 C849 1.419 . S
C847 H851 0.930 . S
C848 C847 1.369 . S
C848 C857 1.429 . S
C849 C847 1.419 . S
C849 C850 1.363 . S
C849 H852 0.929 . S
C850 C849 1.363 . S
C850 C856 1.428 . S
H851 C847 0.930 . S
H852 C849 0.929 . S
S853 N854 1.613 . S
S853 N855 1.610 . S
N854 S853 1.613 . S
N854 C857 1.350 . S
N855 S853 1.610 . S
N855 C856 1.351 . S
C856 C850 1.428 . S
C856 N855 1.351 . S
C856 C857 1.434 . S
C857 C848 1.429 . S
C857 N854 1.350 . S
C857 C856 1.434 . S
C858 C859 1.369 . S
C858 C860 1.419 . S
C858 H862 0.930 . S
C859 C858 1.369 . S
C859 C868 1.429 . S
C860 C858 1.419 . S
C860 C861 1.363 . S
C860 H863 0.929 . S
C861 C860 1.363 . S
C861 C867 1.428 . S
H862 C858 0.930 . S
H863 C860 0.929 . S
S864 N865 1.613 . S
S864 N866 1.610 . S
N865 S864 1.613 . S
N865 C868 1.350 . S
N866 S864 1.610 . S
N866 C867 1.351 . S
C867 C861 1.428 . S
C867 N866 1.351 . S
C867 C868 1.434 . S
C868 C859 1.429 . S
C868 N865 1.350 . S
C868 C867 1.434 . S
C869 C870 1.369 . S
C869 C871 1.419 . S
C869 H873 0.930 . S
C870 C869 1.369 . S
C870 C879 1.429 . S
C871 C869 1.419 . S
C871 C872 1.363 . S
C871 H874 0.929 . S
C872 C871 1.363 . S
C872 C878 1.428 . S
H873 C869 0.930 . S
H874 C871 0.929 . S
S875 N876 1.613 . S
S875 N877 1.610 . S
N876 S875 1.613 . S
N876 C879 1.350 . S
N877 S875 1.610 . S
N877 C878 1.351 . S
C878 C872 1.428 . S
C878 N877 1.351 . S
C878 C879 1.434 . S
C879 C870 1.429 . S
C879 N876 1.350 . S
C879 C878 1.434 . S
C880 C881 1.369 . S
C880 C882 1.419 . S
C880 H884 0.930 . S
C881 C880 1.369 . S
C881 C890 1.429 . S
C882 C880 1.419 . S
C882 C883 1.363 . S
C882 H885 0.929 . S
C883 C882 1.363 . S
C883 C889 1.428 . S
H884 C880 0.930 . S
H885 C882 0.929 . S
S886 N887 1.613 . S
S886 N888 1.610 . S
N887 S886 1.613 . S
N887 C890 1.350 . S
N888 S886 1.610 . S
N888 C889 1.351 . S
C889 C883 1.428 . S
C889 N888 1.351 . S
C889 C890 1.434 . S
C890 C881 1.429 . S
C890 N887 1.350 . S
C890 C889 1.434 . S
C891 C892 1.369 . S
C891 C893 1.419 . S
C891 H895 0.930 . S
C892 C891 1.369 . S
C892 C901 1.429 . S
C893 C891 1.419 . S
C893 C894 1.363 . S
C893 H896 0.929 . S
C894 C893 1.363 . S
C894 C900 1.428 . S
H895 C891 0.930 . S
H896 C893 0.929 . S
S897 N898 1.613 . S
S897 N899 1.610 . S
N898 S897 1.613 . S
N898 C901 1.350 . S
N899 S897 1.610 . S
N899 C900 1.351 . S
C900 C894 1.428 . S
C900 N899 1.351 . S
C900 C901 1.434 . S
C901 C892 1.429 . S
C901 N898 1.350 . S
C901 C900 1.434 . S
C902 C903 1.369 . S
C902 C904 1.419 . S
C902 H906 0.930 . S
C903 C902 1.369 . S
C903 C912 1.429 . S
C904 C902 1.419 . S
C904 C905 1.363 . S
C904 H907 0.929 . S
C905 C904 1.363 . S
C905 C911 1.428 . S
H906 C902 0.930 . S
H907 C904 0.929 . S
S908 N909 1.613 . S
S908 N910 1.610 . S
N909 S908 1.613 . S
N909 C912 1.350 . S
N910 S908 1.610 . S
N910 C911 1.351 . S
C911 C905 1.428 . S
C911 N910 1.351 . S
C911 C912 1.434 . S
C912 C903 1.429 . S
C912 N909 1.350 . S
C912 C911 1.434 . S
C913 C914 1.369 . S
C913 C915 1.419 . S
C913 H917 0.930 . S
C914 C913 1.369 . S
C914 C923 1.429 . S
C915 C913 1.419 . S
C915 C916 1.363 . S
C915 H918 0.929 . S
C916 C915 1.363 . S
C916 C922 1.428 . S
H917 C913 0.930 . S
H918 C915 0.929 . S
S919 N920 1.613 . S
S919 N921 1.610 . S
N920 S919 1.613 . S
N920 C923 1.350 . S
N921 S919 1.610 . S
N921 C922 1.351 . S
C922 C916 1.428 . S
C922 N921 1.351 . S
C922 C923 1.434 . S
C923 C914 1.429 . S
C923 N920 1.350 . S
C923 C922 1.434 . S
C924 C925 1.369 . S
C924 C926 1.419 . S
C924 H928 0.930 . S
C925 C924 1.369 . S
C925 C934 1.429 . S
C926 C924 1.419 . S
C926 C927 1.363 . S
C926 H929 0.929 . S
C927 C926 1.363 . S
C927 C933 1.428 . S
H928 C924 0.930 . S
H929 C926 0.929 . S
S930 N931 1.613 . S
S930 N932 1.610 . S
N931 S930 1.613 . S
N931 C934 1.350 . S
N932 S930 1.610 . S
N932 C933 1.351 . S
C933 C927 1.428 . S
C933 N932 1.351 . S
C933 C934 1.434 . S
C934 C925 1.429 . S
C934 N931 1.350 . S
C934 C933 1.434 . S
C935 C936 1.369 . S
C935 C937 1.419 . S
C935 H939 0.930 . S
C936 C935 1.369 . S
C936 C945 1.429 . S
C937 C935 1.419 . S
C937 C938 1.363 . S
C937 H940 0.929 . S
C938 C937 1.363 . S
C938 C944 1.428 . S
H939 C935 0.930 . S
H940 C937 0.929 . S
S941 N942 1.613 . S
S941 N943 1.610 . S
N942 S941 1.613 . S
N942 C945 1.350 . S
N943 S941 1.610 . S
N943 C944 1.351 . S
C944 C938 1.428 . S
C944 N943 1.351 . S
C944 C945 1.434 . S
C945 C936 1.429 . S
C945 N942 1.350 . S
C945 C944 1.434 . S
C946 C947 1.369 . S
C946 C948 1.419 . S
C946 H950 0.930 . S
C947 C946 1.369 . S
C947 C956 1.429 . S
C948 C946 1.419 . S
C948 C949 1.363 . S
C948 H951 0.929 . S
C949 C948 1.363 . S
C949 C955 1.428 . S
H950 C946 0.930 . S
H951 C948 0.929 . S
S952 N953 1.613 . S
S952 N954 1.610 . S
N953 S952 1.613 . S
N953 C956 1.350 . S
N954 S952 1.610 . S
N954 C955 1.351 . S
C955 C949 1.428 . S
C955 N954 1.351 . S
C955 C956 1.434 . S
C956 C947 1.429 . S
C956 N953 1.350 . S
C956 C955 1.434 . S
C957 C958 1.369 . S
C957 C959 1.419 . S
C957 H961 0.930 . S
C958 C957 1.369 . S
C958 C967 1.429 . S
C959 C957 1.419 . S
C959 C960 1.363 . S
C959 H962 0.929 . S
C960 C959 1.363 . S
C960 C966 1.428 . S
H961 C957 0.930 . S
H962 C959 0.929 . S
S963 N964 1.613 . S
S963 N965 1.610 1_554 S
N964 S963 1.613 . S
N964 C967 1.350 1_554 S
N965 S963 1.610 1_556 S
N965 C966 1.351 . S
C966 C960 1.428 . S
C966 N965 1.351 . S
C966 C967 1.434 . S
C967 C958 1.429 . S
C967 N964 1.350 1_556 S
C967 C966 1.434 . S
C529 N332 1.408 . S
C531 N2 1.410 . S
C540 N35 1.407 . S
C542 N365 1.409 . S
C551 N266 1.412 . S
C553 N68 1.410 . S
C562 N101 1.414 . S
C564 N299 1.413 . S
C573 N464 1.406 . S
C575 N134 1.407 . S
C584 N167 1.405 . S
C586 N497 1.405 . S
C595 N200 1.407 . S
C597 N398 1.408 . S
C606 N431 1.414 . S
C608 N233 1.413 . S
C617 C480 1.141 . S
C619 C7 1.124 . S
C628 C513 1.137 . S
C630 C40 1.128 . S
C639 C73 1.123 . S
C641 C414 1.139 . S
C650 C447 1.137 . S
C652 C106 1.128 . S
C661 C139 1.129 . S
C663 C348 1.139 . S
C672 C172 1.125 . S
C674 C381 1.140 . S
C683 C282 1.137 . S
C685 C205 1.126 . S
C694 C238 1.123 . S
C696 C315 1.139 . S
C705 C216 1.136 . S
C707 C271 1.126 . S
C716 C249 1.136 . S
C718 C304 1.127 . S
C727 C150 1.138 . S
C729 C337 1.121 . S
C738 C370 1.123 . S
C740 C183 1.140 . S
C749 C403 1.128 . S
C751 C84 1.136 . S
C760 C436 1.130 . S
C762 C117 1.138 . S
C771 C469 1.128 . S
C773 C18 1.139 . S
C782 C51 1.140 . S
C784 C502 1.124 . S
C793 N376 1.768 . S
C795 C21 1.716 . S
C804 C54 1.720 . S
C806 N277 1.767 . S
C815 C87 1.723 . S
C817 N310 1.767 . S
C826 C120 1.721 . S
C828 N343 1.768 . S
C837 N178 1.767 . S
C839 C153 1.719 . S
C848 C186 1.722 . S
C850 N211 1.769 . S
C859 N244 1.768 . S
C861 C219 1.717 . S
C870 C252 1.719 . S
C872 N145 1.767 . S
C881 N112 1.768 . S
C883 C285 1.717 . S
C892 C318 1.723 . S
C894 N13 1.768 . S
C903 C351 1.717 . S
C905 N46 1.766 . S
C914 N79 1.766 . S
C916 C384 1.720 . S
C925 N442 1.767 . S
C927 C417 1.721 . S
C936 N475 1.768 . S
C938 C450 1.721 . S
C947 C483 1.723 . S
C949 N508 1.767 . S
C958 N409 1.768 . S
C960 C516 1.718 . S
