# Generated by pormake.
# Topology vbm, (6)-cn, num edge types: 1
# Building blocks:
#     Node 0, Type 0, BuildingBlock: BETGAK_clean_sbu_0, # of connection points: 6
#     Node 1, Type 0, BuildingBlock: BETGAK_clean_sbu_0, # of connection points: 6
#     Node 2, Type 0, BuildingBlock: BETGAK_clean_sbu_0, # of connection points: 6
#     Node 3, Type 0, BuildingBlock: BETGAK_clean_sbu_0, # of connection points: 6
#     Node 4, Type 0, BuildingBlock: BETGAK_clean_sbu_0, # of connection points: 6
#     Node 5, Type 0, BuildingBlock: BETGAK_clean_sbu_0, # of connection points: 6
#     Node 6, Type 0, BuildingBlock: BETGAK_clean_sbu_0, # of connection points: 6
#     Node 7, Type 0, BuildingBlock: BETGAK_clean_sbu_0, # of connection points: 6
#     Node 8, Type 0, BuildingBlock: BETGAK_clean_sbu_0, # of connection points: 6
#     Node 9, Type 0, BuildingBlock: BETGAK_clean_sbu_0, # of connection points: 6
#     Node 10, Type 0, BuildingBlock: BETGAK_clean_sbu_0, # of connection points: 6
#     Node 11, Type 0, BuildingBlock: BETGAK_clean_sbu_0, # of connection points: 6
#     Node 12, Type 0, BuildingBlock: BETGAK_clean_sbu_0, # of connection points: 6
#     Node 13, Type 0, BuildingBlock: BETGAK_clean_sbu_0, # of connection points: 6
#     Node 14, Type 0, BuildingBlock: BETGAK_clean_sbu_0, # of connection points: 6
#     Node 15, Type 0, BuildingBlock: BETGAK_clean_sbu_0, # of connection points: 6
#     Edge 16, Type (0, 0), BuildingBlock: KIFKEQ_clean_linker_1, # of connection points: 2
#     Edge 17, Type (0, 0), BuildingBlock: KIFKEQ_clean_linker_1, # of connection points: 2
#     Edge 18, Type (0, 0), BuildingBlock: KIFKEQ_clean_linker_1, # of connection points: 2
#     Edge 19, Type (0, 0), BuildingBlock: KIFKEQ_clean_linker_1, # of connection points: 2
#     Edge 20, Type (0, 0), BuildingBlock: KIFKEQ_clean_linker_1, # of connection points: 2
#     Edge 21, Type (0, 0), BuildingBlock: KIFKEQ_clean_linker_1, # of connection points: 2
#     Edge 22, Type (0, 0), BuildingBlock: KIFKEQ_clean_linker_1, # of connection points: 2
#     Edge 23, Type (0, 0), BuildingBlock: KIFKEQ_clean_linker_1, # of connection points: 2
#     Edge 24, Type (0, 0), BuildingBlock: KIFKEQ_clean_linker_1, # of connection points: 2
#     Edge 25, Type (0, 0), BuildingBlock: KIFKEQ_clean_linker_1, # of connection points: 2
#     Edge 26, Type (0, 0), BuildingBlock: KIFKEQ_clean_linker_1, # of connection points: 2
#     Edge 27, Type (0, 0), BuildingBlock: KIFKEQ_clean_linker_1, # of connection points: 2
#     Edge 28, Type (0, 0), BuildingBlock: KIFKEQ_clean_linker_1, # of connection points: 2
#     Edge 29, Type (0, 0), BuildingBlock: KIFKEQ_clean_linker_1, # of connection points: 2
#     Edge 30, Type (0, 0), BuildingBlock: KIFKEQ_clean_linker_1, # of connection points: 2
#     Edge 31, Type (0, 0), BuildingBlock: KIFKEQ_clean_linker_1, # of connection points: 2
#     Edge 32, Type (0, 0), BuildingBlock: KIFKEQ_clean_linker_1, # of connection points: 2
#     Edge 33, Type (0, 0), BuildingBlock: KIFKEQ_clean_linker_1, # of connection points: 2
#     Edge 34, Type (0, 0), BuildingBlock: KIFKEQ_clean_linker_1, # of connection points: 2
#     Edge 35, Type (0, 0), BuildingBlock: KIFKEQ_clean_linker_1, # of connection points: 2
#     Edge 36, Type (0, 0), BuildingBlock: KIFKEQ_clean_linker_1, # of connection points: 2
#     Edge 37, Type (0, 0), BuildingBlock: KIFKEQ_clean_linker_1, # of connection points: 2
#     Edge 38, Type (0, 0), BuildingBlock: KIFKEQ_clean_linker_1, # of connection points: 2
#     Edge 39, Type (0, 0), BuildingBlock: KIFKEQ_clean_linker_1, # of connection points: 2
#     Edge 40, Type (0, 0), BuildingBlock: KIFKEQ_clean_linker_1, # of connection points: 2
#     Edge 41, Type (0, 0), BuildingBlock: KIFKEQ_clean_linker_1, # of connection points: 2
#     Edge 42, Type (0, 0), BuildingBlock: KIFKEQ_clean_linker_1, # of connection points: 2
#     Edge 43, Type (0, 0), BuildingBlock: KIFKEQ_clean_linker_1, # of connection points: 2
#     Edge 44, Type (0, 0), BuildingBlock: KIFKEQ_clean_linker_1, # of connection points: 2
#     Edge 45, Type (0, 0), BuildingBlock: KIFKEQ_clean_linker_1, # of connection points: 2
#     Edge 46, Type (0, 0), BuildingBlock: KIFKEQ_clean_linker_1, # of connection points: 2
#     Edge 47, Type (0, 0), BuildingBlock: KIFKEQ_clean_linker_1, # of connection points: 2
#     Edge 48, Type (0, 0), BuildingBlock: KIFKEQ_clean_linker_1, # of connection points: 2
#     Edge 49, Type (0, 0), BuildingBlock: KIFKEQ_clean_linker_1, # of connection points: 2
#     Edge 50, Type (0, 0), BuildingBlock: KIFKEQ_clean_linker_1, # of connection points: 2
#     Edge 51, Type (0, 0), BuildingBlock: KIFKEQ_clean_linker_1, # of connection points: 2
#     Edge 52, Type (0, 0), BuildingBlock: KIFKEQ_clean_linker_1, # of connection points: 2
#     Edge 53, Type (0, 0), BuildingBlock: KIFKEQ_clean_linker_1, # of connection points: 2
#     Edge 54, Type (0, 0), BuildingBlock: KIFKEQ_clean_linker_1, # of connection points: 2
#     Edge 55, Type (0, 0), BuildingBlock: KIFKEQ_clean_linker_1, # of connection points: 2
#     Edge 56, Type (0, 0), BuildingBlock: KIFKEQ_clean_linker_1, # of connection points: 2
#     Edge 57, Type (0, 0), BuildingBlock: KIFKEQ_clean_linker_1, # of connection points: 2
#     Edge 58, Type (0, 0), BuildingBlock: KIFKEQ_clean_linker_1, # of connection points: 2
#     Edge 59, Type (0, 0), BuildingBlock: KIFKEQ_clean_linker_1, # of connection points: 2
#     Edge 60, Type (0, 0), BuildingBlock: KIFKEQ_clean_linker_1, # of connection points: 2
#     Edge 61, Type (0, 0), BuildingBlock: KIFKEQ_clean_linker_1, # of connection points: 2
#     Edge 62, Type (0, 0), BuildingBlock: KIFKEQ_clean_linker_1, # of connection points: 2
#     Edge 63, Type (0, 0), BuildingBlock: KIFKEQ_clean_linker_1, # of connection points: 2
# Relax obj value: 0.065
# Max RMSD: 0.139
# Mean RMSD: 0.139
data_MOF--net-vbm--node1-BETGAK_clean_sbu_0--edge1-KIFKEQ_clean_linker_1
_symmetry_space_group_name_H-M    P1
_symmetry_Int_Tables_number       1
_symmetry_cell_setting            triclinic
loop_
_symmetry_equiv_pos_as_xyz
'x, y, z'
_cell_length_a     56.164839
_cell_length_b     25.838401
_cell_length_c     55.654519
_cell_angle_alpha  90.068456
_cell_angle_beta   90.047067
_cell_angle_gamma 89.943161
loop_
_atom_site_label
_atom_site_type_symbol
_atom_site_fract_x
_atom_site_fract_y
_atom_site_fract_z
_atom_type_partial_charge
La0 La 0.13932 0.09719 0.16709 0.0
La1 La 0.11594 0.20032 0.16821 0.0
C2 C 0.15261 1.00545 0.1757 0.0
C3 C 0.14722 0.95059 0.17021 0.0
C4 C 0.16515 0.91949 0.16018 0.0
C5 C 0.16169 0.86633 0.15705 0.0
C6 C 0.14021 0.84283 0.16404 0.0
C7 C 0.12201 0.87424 0.17361 0.0
C8 C 0.12546 0.92758 0.17666 0.0
C9 C 0.13943 0.1445 0.12499 0.0
C10 C 0.0826 0.10764 0.16021 0.0
C11 C 0.10201 0.29271 0.16304 0.0
C12 C 0.11046 0.34623 0.15961 0.0
C13 C 0.13093 0.36517 0.17116 0.0
C14 C 0.13668 0.4179 0.16986 0.0
C15 C 0.1221 0.45255 0.15696 0.0
C16 C 0.10214 0.43281 0.14473 0.0
C17 C 0.0964 0.38028 0.14608 0.0
C18 C 0.11641 0.14851 0.20947 0.0
C19 C 0.17143 0.1936 0.17331 0.0
O20 O 0.16112 1.03369 0.15824 0.0
O21 O 0.13754 1.03127 0.18906 0.0
O22 O 0.15605 0.11434 0.13292 0.0
O23 O 0.12249 0.14488 0.13999 0.0
O24 O 0.10113 0.07683 0.16428 0.0
O25 O 0.08482 0.15807 0.15816 0.0
O26 O 0.10632 0.2711 0.18383 0.0
O27 O 0.10469 0.2603 0.14516 0.0
O28 O 0.09875 0.17646 0.20204 0.0
O29 O 0.13307 0.15205 0.1945 0.0
O30 O 0.15333 0.22015 0.16466 0.0
O31 O 0.16887 0.14472 0.17989 0.0
H32 H 0.18218 0.93614 0.15533 0.0
H33 H 0.1762 0.84334 0.14993 0.0
H34 H 0.10514 0.85752 0.1789 0.0
H35 H 0.11129 0.95049 0.18448 0.0
H36 H 0.14211 0.33954 0.18166 0.0
H37 H 0.15237 0.43166 0.17921 0.0
H38 H 0.09034 0.4583 0.13488 0.0
H39 H 0.08045 0.36652 0.13717 0.0
La40 La 0.85883 0.97889 0.17078 0.0
La41 La 0.88286 0.87704 0.17129 0.0
C42 C 0.84569 0.07053 0.17988 0.0
C43 C 0.8528 0.12532 0.17653 0.0
C44 C 0.84902 0.15095 0.15456 0.0
C45 C 0.85304 0.20423 0.15255 0.0
C46 C 0.86081 0.23324 0.17248 0.0
C47 C 0.86519 0.20727 0.19425 0.0
C48 C 0.86115 0.15403 0.19626 0.0
C49 C 0.85804 0.93141 0.12863 0.0
C50 C 0.91534 0.97013 0.16215 0.0
C51 C 0.89697 0.78486 0.16584 0.0
C52 C 0.8884 0.73081 0.16443 0.0
C53 C 0.87606 0.70741 0.18351 0.0
C54 C 0.87109 0.6543 0.18302 0.0
C55 C 0.87834 0.62348 0.16346 0.0
C56 C 0.88977 0.64758 0.14397 0.0
C57 C 0.8948 0.70055 0.14451 0.0
C58 C 0.88316 0.92915 0.21245 0.0
C59 C 0.82711 0.88211 0.17761 0.0
O60 O 0.839 0.0444 0.16091 0.0
O61 O 0.85851 0.04233 0.19453 0.0
O62 O 0.84118 0.96031 0.13713 0.0
O63 O 0.87535 0.93195 0.14323 0.0
O64 O 0.89692 1.00025 0.16759 0.0
O65 O 0.91309 0.91989 0.15933 0.0
O66 O 0.89562 0.80834 0.18662 0.0
O67 O 0.8917 0.81569 0.14796 0.0
O68 O 0.90114 0.90334 0.20418 0.0
O69 O 0.866 0.92428 0.19813 0.0
O70 O 0.84548 0.85534 0.16964 0.0
O71 O 0.82917 0.93165 0.1832 0.0
H72 H 0.84229 0.13021 0.13906 0.0
H73 H 0.84923 0.223 0.13559 0.0
H74 H 0.8715 0.22821 0.20987 0.0
H75 H 0.86401 0.13553 0.21349 0.0
H76 H 0.87092 0.72969 0.19917 0.0
H77 H 0.86241 0.63708 0.19843 0.0
H78 H 0.8952 0.62533 0.1284 0.0
H79 H 0.90436 0.71763 0.12959 0.0
La80 La 0.14095 0.98386 0.40461 0.0
La81 La 0.11696 0.88132 0.40369 0.0
C82 C 0.15409 0.07547 0.39574 0.0
C83 C 0.1472 0.13029 0.39948 0.0
C84 C 0.15206 0.15591 0.42126 0.0
C85 C 0.14815 0.20922 0.42349 0.0
C86 C 0.13946 0.23819 0.40396 0.0
C87 C 0.13402 0.21223 0.38242 0.0
C88 C 0.13793 0.15899 0.38019 0.0
C89 C 0.14106 0.93616 0.4466 0.0
C90 C 0.08438 0.97499 0.41224 0.0
C91 C 0.10306 0.78931 0.40976 0.0
C92 C 0.11182 0.73543 0.41132 0.0
C93 C 0.12366 0.71142 0.39204 0.0
C94 C 0.12878 0.6584 0.39274 0.0
C95 C 0.12219 0.62828 0.41273 0.0
C96 C 0.11128 0.65299 0.43239 0.0
C97 C 0.10608 0.70589 0.43164 0.0
C98 C 0.11725 0.93283 0.36243 0.0
C99 C 0.17273 0.88691 0.39779 0.0
O100 O 0.16119 0.04888 0.41441 0.0
O101 O 0.14079 0.04782 0.38133 0.0
O102 O 0.15795 0.96549 0.43861 0.0
O103 O 0.12404 0.93668 0.43168 0.0
O104 O 0.10291 1.0052 0.40755 0.0
O105 O 0.08643 0.9246 0.41465 0.0
O106 O 0.10413 0.81221 0.38884 0.0
O107 O 0.10844 0.82067 0.42743 0.0
O108 O 0.09957 0.90517 0.36998 0.0
O109 O 0.13406 0.92902 0.37727 0.0
O110 O 0.15434 0.85998 0.40551 0.0
O111 O 0.17068 0.93649 0.39229 0.0
H112 H 0.15952 0.13515 0.43639 0.0
H113 H 0.15278 0.22803 0.44025 0.0
H114 H 0.12698 0.23318 0.36714 0.0
H115 H 0.13425 0.1405 0.3631 0.0
H116 H 0.12828 0.73313 0.37608 0.0
H117 H 0.13703 0.64067 0.3772 0.0
H118 H 0.10637 0.63127 0.44826 0.0
H119 H 0.09691 0.72345 0.44671 0.0
La120 La 0.86155 0.09904 0.40627 0.0
La121 La 0.88592 0.20854 0.40376 0.0
C122 C 0.84672 1.01232 0.39192 0.0
C123 C 0.84964 0.95644 0.39632 0.0
C124 C 0.85958 0.93719 0.41768 0.0
C125 C 0.86229 0.88363 0.42097 0.0
C126 C 0.85525 0.84854 0.4029 0.0
C127 C 0.84521 0.86836 0.38163 0.0
C128 C 0.84248 0.92166 0.37841 0.0
C129 C 0.86838 0.1372 0.45012 0.0
C130 C 0.91767 0.11357 0.41451 0.0
C131 C 0.8992 0.30152 0.40654 0.0
C132 C 0.89032 0.35425 0.41159 0.0
C133 C 0.86793 0.37116 0.40347 0.0
C134 C 0.86146 0.4234 0.4055 0.0
C135 C 0.87723 0.45973 0.41568 0.0
C136 C 0.89917 0.44199 0.42473 0.0
C137 C 0.90562 0.38986 0.42267 0.0
C138 C 0.88514 0.15103 0.36422 0.0
C139 C 0.82974 0.19947 0.40418 0.0
O140 O 0.83614 0.03975 0.4087 0.0
O141 O 0.86509 1.03628 0.38258 0.0
O142 O 0.85908 0.09214 0.44582 0.0
O143 O 0.87329 0.15704 0.43013 0.0
O144 O 0.89997 0.08211 0.40815 0.0
O145 O 0.91513 0.16402 0.41731 0.0
O146 O 0.89161 0.2795 0.38673 0.0
O147 O 0.90056 0.26893 0.42457 0.0
O148 O 0.90283 0.18024 0.37052 0.0
O149 O 0.86878 0.1558 0.37949 0.0
O150 O 0.84876 0.2279 0.40869 0.0
O151 O 0.83083 0.14903 0.39976 0.0
H152 H 0.86535 0.96352 0.43168 0.0
H153 H 0.87028 0.86975 0.43747 0.0
H154 H 0.83924 0.84262 0.36749 0.0
H155 H 0.83474 0.93578 0.36181 0.0
H156 H 0.85577 0.34439 0.39488 0.0
H157 H 0.84427 0.43551 0.39868 0.0
H158 H 0.91189 0.46877 0.43243 0.0
H159 H 0.92303 0.37772 0.42892 0.0
La160 La 0.88462 0.86932 0.90465 0.0
La161 La 0.85925 0.97004 0.90715 0.0
C162 C 0.89974 0.77772 0.90977 0.0
C163 C 0.89187 0.72308 0.91047 0.0
C164 C 0.87796 0.70103 0.89211 0.0
C165 C 0.87324 0.64771 0.892 0.0
C166 C 0.88234 0.6154 0.91021 0.0
C167 C 0.89546 0.63816 0.929 0.0
C168 C 0.90021 0.69127 0.92907 0.0
C169 C 0.88387 0.92334 0.86411 0.0
C170 C 0.82847 0.87192 0.89904 0.0
C171 C 0.84455 0.06202 0.90156 0.0
C172 C 0.85238 0.11688 0.90295 0.0
C173 C 0.8514 0.14427 0.92479 0.0
C174 C 0.85597 0.19752 0.92551 0.0
C175 C 0.86148 0.22489 0.90438 0.0
C176 C 0.86295 0.19724 0.88263 0.0
C177 C 0.85839 0.14397 0.88191 0.0
C178 C 0.85989 0.91779 0.94808 0.0
C179 C 0.91598 0.96426 0.91398 0.0
O180 O 0.89874 0.80187 0.88916 0.0
O181 O 0.89343 0.80752 0.92769 0.0
O182 O 0.90181 0.896 0.87141 0.0
O183 O 0.86698 0.918 0.87879 0.0
O184 O 0.84747 0.84528 0.90554 0.0
O185 O 0.82954 0.92237 0.89512 0.0
O186 O 0.84277 1.03611 0.92163 0.0
O187 O 0.85318 1.03342 0.88422 0.0
O188 O 0.84203 0.9445 0.94016 0.0
O189 O 0.87696 0.92236 0.93345 0.0
O190 O 0.89724 0.99287 0.90797 0.0
O191 O 0.91422 0.91402 0.91722 0.0
H192 H 0.87128 0.72464 0.87752 0.0
H193 H 0.86318 0.63158 0.87717 0.0
H194 H 0.90233 0.61481 0.9436 0.0
H195 H 0.91095 0.70736 0.94343 0.0
H196 H 0.84644 0.12493 0.9413 0.0
H197 H 0.85436 0.21756 0.94253 0.0
H198 H 0.86743 0.21685 0.86605 0.0
H199 H 0.85901 0.12423 0.86474 0.0
La200 La 0.11313 0.20496 0.90117 0.0
La201 La 0.13848 0.10418 0.90449 0.0
C202 C 0.09795 0.29672 0.9054 0.0
C203 C 0.10591 0.35117 0.9071 0.0
C204 C 0.12167 0.3731 0.89036 0.0
C205 C 0.12655 0.42633 0.89089 0.0
C206 C 0.11576 0.45867 0.90816 0.0
C207 C 0.10076 0.43599 0.92543 0.0
C208 C 0.09586 0.38296 0.92484 0.0
C209 C 0.11404 0.14942 0.86107 0.0
C210 C 0.16924 0.20209 0.89634 0.0
C211 C 0.15333 1.01218 0.89934 0.0
C212 C 0.14591 0.95724 0.90171 0.0
C213 C 0.15269 0.92857 0.92206 0.0
C214 C 0.14841 0.87528 0.92327 0.0
C215 C 0.13738 0.84909 0.90408 0.0
C216 C 0.13011 0.87801 0.88393 0.0
C217 C 0.13439 0.93137 0.88272 0.0
C218 C 0.13761 0.15785 0.94505 0.0
C219 C 0.08169 0.11021 0.91116 0.0
O220 O 0.10069 0.27295 0.88482 0.0
O221 O 0.10255 0.26648 0.92366 0.0
O222 O 0.09606 0.17699 0.86805 0.0
O223 O 0.13087 0.1553 0.87579 0.0
O224 O 0.15028 0.22869 0.90296 0.0
O225 O 0.16809 0.15172 0.89217 0.0
O226 O 0.15582 0.03918 0.91905 0.0
O227 O 0.14382 0.03964 0.88209 0.0
O228 O 0.15545 0.13051 0.93756 0.0
O229 O 0.12067 0.15288 0.93029 0.0
O230 O 0.10051 0.08117 0.90585 0.0
O231 O 0.08332 0.16074 0.91346 0.0
H232 H 0.12971 0.34947 0.87647 0.0
H233 H 0.13808 0.44239 0.87723 0.0
H234 H 0.09254 0.45934 0.93931 0.0
H235 H 0.08368 0.36695 0.93796 0.0
H236 H 0.16187 0.9471 0.93687 0.0
H237 H 0.15394 0.85451 0.93922 0.0
H238 H 0.12185 0.85915 0.86868 0.0
H239 H 0.12927 0.95201 0.86659 0.0
La240 La 0.88277 0.19826 0.67184 0.0
La241 La 0.85856 0.08895 0.67035 0.0
C242 C 0.8956 0.29124 0.66766 0.0
C243 C 0.88608 0.34347 0.66288 0.0
C244 C 0.8642 0.36001 0.67244 0.0
C245 C 0.8573 0.41198 0.67058 0.0
C246 C 0.8721 0.44827 0.65908 0.0
C247 C 0.89344 0.43086 0.64858 0.0
C248 C 0.90035 0.37903 0.65051 0.0
C249 C 0.88295 0.14256 0.71196 0.0
C250 C 0.82657 0.18869 0.67412 0.0
C251 C 0.84545 1.00053 0.68396 0.0
C252 C 0.8488 0.94513 0.67774 0.0
C253 C 0.82989 0.91674 0.66774 0.0
C254 C 0.83202 0.86334 0.66393 0.0
C255 C 0.85303 0.83703 0.67029 0.0
C256 C 0.87212 0.86565 0.67983 0.0
C257 C 0.87005 0.91902 0.68351 0.0
C258 C 0.86337 0.12644 0.6261 0.0
C259 C 0.91468 0.10365 0.661 0.0
O260 O 0.88942 0.26979 0.68805 0.0
O261 O 0.89589 0.25807 0.64979 0.0
O262 O 0.90015 0.17272 0.7053 0.0
O263 O 0.86635 0.14595 0.69683 0.0
O264 O 0.84531 0.21711 0.6685 0.0
O265 O 0.82805 0.13838 0.67875 0.0
O266 O 0.83314 1.02922 0.66894 0.0
O267 O 0.86391 1.02517 0.69281 0.0
O268 O 0.85338 0.08254 0.63115 0.0
O269 O 0.86975 0.14611 0.64576 0.0
O270 O 0.89701 0.0723 0.66747 0.0
O271 O 0.91208 0.15405 0.65832 0.0
H272 H 0.85283 0.33322 0.68202 0.0
H273 H 0.8406 0.42396 0.67857 0.0
H274 H 0.90539 0.45776 0.63982 0.0
H275 H 0.91734 0.36713 0.64313 0.0
H276 H 0.8132 0.93562 0.6634 0.0
H277 H 0.8169 0.84237 0.65678 0.0
H278 H 0.88865 0.84668 0.68463 0.0
H279 H 0.88497 0.93951 0.69134 0.0
La280 La 0.11392 0.86948 0.67037 0.0
La281 La 0.1385 0.97117 0.66723 0.0
C282 C 0.09926 0.77745 0.66596 0.0
C283 C 0.10757 0.72346 0.66343 0.0
C284 C 0.12677 0.70388 0.67685 0.0
C285 C 0.13235 0.65098 0.67602 0.0
C286 C 0.11891 0.61676 0.66169 0.0
C287 C 0.10027 0.63706 0.64767 0.0
C288 C 0.09466 0.68976 0.64858 0.0
C289 C 0.11476 0.92433 0.71068 0.0
C290 C 0.16989 0.87377 0.67497 0.0
C291 C 0.15293 0.06312 0.67327 0.0
C292 C 0.14553 0.11806 0.67136 0.0
C293 C 0.14035 0.14125 0.64911 0.0
C294 C 0.13617 0.19465 0.6476 0.0
C295 C 0.13709 0.22606 0.66828 0.0
C296 C 0.14166 0.20242 0.69058 0.0
C297 C 0.14588 0.14915 0.69207 0.0
C298 C 0.13784 0.91829 0.6265 0.0
C299 C 0.0816 0.96349 0.66161 0.0
O300 O 0.10299 0.80031 0.6866 0.0
O301 O 0.10272 0.80861 0.64778 0.0
O302 O 0.09701 0.896 0.7038 0.0
O303 O 0.13147 0.91934 0.69578 0.0
O304 O 0.15116 0.84689 0.66802 0.0
O305 O 0.16835 0.92396 0.67949 0.0
O306 O 0.15587 1.03672 0.65344 0.0
O307 O 0.14298 1.03535 0.69011 0.0
O308 O 0.15549 0.94616 0.63403 0.0
O309 O 0.12088 0.92229 0.64132 0.0
O310 O 0.10045 0.99339 0.66551 0.0
O311 O 0.08327 0.9129 0.65978 0.0
H312 H 0.1371 0.72917 0.68837 0.0
H313 H 0.14704 0.63678 0.68678 0.0
H314 H 0.08936 0.61191 0.63665 0.0
H315 H 0.07971 0.70398 0.63818 0.0
H316 H 0.14001 0.11842 0.63278 0.0
H317 H 0.13237 0.2114 0.63019 0.0
H318 H 0.14283 0.22534 0.70684 0.0
H319 H 0.15012 0.13243 0.7094 0.0
La320 La 0.63861 0.59916 0.16758 0.0
La321 La 0.61377 0.70118 0.16946 0.0
C322 C 0.65276 0.50748 0.17497 0.0
C323 C 0.64556 0.4525 0.1725 0.0
C324 C 0.64604 0.42706 0.15014 0.0
C325 C 0.64197 0.37366 0.14866 0.0
C326 C 0.63749 0.3444 0.16949 0.0
C327 C 0.63644 0.3702 0.19174 0.0
C328 C 0.64051 0.42352 0.19322 0.0
C329 C 0.63731 0.64925 0.12604 0.0
C330 C 0.58195 0.60626 0.16022 0.0
C331 C 0.59896 0.79267 0.16352 0.0
C332 C 0.60699 0.84705 0.16241 0.0
C333 C 0.62179 0.86888 0.1801 0.0
C334 C 0.62674 0.92207 0.1799 0.0
C335 C 0.61699 0.95439 0.16204 0.0
C336 C 0.60298 0.9318 0.14387 0.0
C337 C 0.59801 0.87882 0.14412 0.0
C338 C 0.61449 0.64824 0.21024 0.0
C339 C 0.6698 0.69679 0.17528 0.0
O340 O 0.65732 0.53369 0.15542 0.0
O341 O 0.64144 0.53547 0.19088 0.0
O342 O 0.65497 0.62118 0.13345 0.0
O343 O 0.62081 0.64652 0.14135 0.0
O344 O 0.60056 0.57694 0.16594 0.0
O345 O 0.58391 0.65663 0.15737 0.0
O346 O 0.59983 0.76936 0.18436 0.0
O347 O 0.60529 0.76215 0.14587 0.0
O348 O 0.59667 0.67604 0.20301 0.0
O349 O 0.63127 0.65282 0.19541 0.0
O350 O 0.65112 0.72385 0.16822 0.0
O351 O 0.66823 0.64667 0.17981 0.0
H352 H 0.65017 0.44805 0.13384 0.0
H353 H 0.64316 0.35503 0.13126 0.0
H354 H 0.63268 0.34911 0.2081 0.0
H355 H 0.64025 0.4419 0.21073 0.0
H356 H 0.629 0.84521 0.19442 0.0
H357 H 0.6375 0.93812 0.19424 0.0
H358 H 0.59559 0.95519 0.12956 0.0
H359 H 0.58659 0.86283 0.13027 0.0
La360 La 0.35953 0.4812 0.17422 0.0
La361 La 0.38484 0.37278 0.17521 0.0
C362 C 0.34611 0.56927 0.18823 0.0
C363 C 0.34988 0.62478 0.18247 0.0
C364 C 0.33119 0.65416 0.17263 0.0
C365 C 0.33373 0.70754 0.16906 0.0
C366 C 0.35495 0.73293 0.1755 0.0
C367 C 0.37381 0.70332 0.18491 0.0
C368 C 0.37133 0.64994 0.18835 0.0
C369 C 0.36414 0.44349 0.12996 0.0
C370 C 0.41531 0.46868 0.16289 0.0
C371 C 0.39846 0.28013 0.17123 0.0
C372 C 0.3892 0.22726 0.16744 0.0
C373 C 0.36795 0.21037 0.17818 0.0
C374 C 0.36126 0.1582 0.17684 0.0
C375 C 0.37566 0.12194 0.1647 0.0
C376 C 0.39641 0.13961 0.15318 0.0
C377 C 0.40309 0.19166 0.15458 0.0
C378 C 0.38529 0.4295 0.21495 0.0
C379 C 0.32844 0.38048 0.17848 0.0
O380 O 0.33425 0.54128 0.17256 0.0
O381 O 0.36413 0.54391 0.19761 0.0
O382 O 0.35388 0.48717 0.135 0.0
O383 O 0.37085 0.42429 0.14955 0.0
O384 O 0.39775 0.49906 0.17065 0.0
O385 O 0.41296 0.41821 0.16003 0.0
O386 O 0.39318 0.3024 0.19172 0.0
O387 O 0.39744 0.3124 0.15308 0.0
O388 O 0.40304 0.40139 0.20773 0.0
O389 O 0.3683 0.42429 0.20043 0.0
O390 O 0.34741 0.35243 0.17301 0.0
O391 O 0.32947 0.43102 0.18266 0.0
H392 H 0.31437 0.63601 0.16819 0.0
H393 H 0.31877 0.7292 0.16201 0.0
H394 H 0.39051 0.7215 0.18976 0.0
H395 H 0.38611 0.62867 0.19603 0.0
H396 H 0.35689 0.23713 0.18819 0.0
H397 H 0.345 0.14608 0.18562 0.0
H398 H 0.40807 0.11281 0.14392 0.0
H399 H 0.41962 0.20379 0.14629 0.0
La400 La 0.63747 0.4821 0.40699 0.0
La401 La 0.6163 0.37566 0.403 0.0
C402 C 0.65646 0.56933 0.40004 0.0
C403 C 0.65192 0.62511 0.40453 0.0
C404 C 0.6692 0.65486 0.41645 0.0
C405 C 0.66639 0.70849 0.41898 0.0
C406 C 0.64628 0.73373 0.40944 0.0
C407 C 0.62875 0.7037 0.39791 0.0
C408 C 0.6315 0.65004 0.39552 0.0
C409 C 0.62348 0.44275 0.44851 0.0
C410 C 0.58217 0.46739 0.41051 0.0
C411 C 0.60373 0.28197 0.40493 0.0
C412 C 0.61252 0.22939 0.4106 0.0
C413 C 0.63482 0.21168 0.40259 0.0
C414 C 0.64109 0.15939 0.40499 0.0
C415 C 0.62522 0.12377 0.41547 0.0
C416 C 0.60338 0.14229 0.42442 0.0
C417 C 0.59711 0.19446 0.42196 0.0
C418 C 0.61552 0.43266 0.36318 0.0
C419 C 0.67207 0.38526 0.40408 0.0
O420 O 0.66128 0.54004 0.41865 0.0
O421 O 0.64253 0.54601 0.38453 0.0
O422 O 0.62225 0.49122 0.44274 0.0
O423 O 0.63341 0.41807 0.4316 0.0
O424 O 0.59938 0.49794 0.40247 0.0
O425 O 0.58613 0.41857 0.41602 0.0
O426 O 0.61252 0.30421 0.38576 0.0
O427 O 0.60079 0.31465 0.42274 0.0
O428 O 0.59856 0.40208 0.36981 0.0
O429 O 0.63208 0.42942 0.37829 0.0
O430 O 0.65335 0.35474 0.40496 0.0
O431 O 0.67024 0.43638 0.40361 0.0
H432 H 0.68521 0.63674 0.42336 0.0
H433 H 0.68034 0.7304 0.42776 0.0
H434 H 0.61289 0.72173 0.39066 0.0
H435 H 0.6178 0.62832 0.38625 0.0
H436 H 0.64708 0.23781 0.39377 0.0
H437 H 0.6582 0.14666 0.39823 0.0
H438 H 0.5906 0.11604 0.43236 0.0
H439 H 0.57975 0.20713 0.42811 0.0
La440 La 0.35905 0.5994 0.4101 0.0
La441 La 0.38503 0.69983 0.40866 0.0
C442 C 0.34457 0.50783 0.40301 0.0
C443 C 0.35252 0.45307 0.40386 0.0
C444 C 0.35967 0.42935 0.42543 0.0
C445 C 0.36452 0.37611 0.42616 0.0
C446 C 0.36236 0.34537 0.40535 0.0
C447 C 0.35581 0.36957 0.38369 0.0
C448 C 0.35089 0.42267 0.38299 0.0
C449 C 0.36014 0.64999 0.45164 0.0
C450 C 0.41543 0.60375 0.41836 0.0
C451 C 0.39996 0.79146 0.41432 0.0
C452 C 0.39246 0.84639 0.4117 0.0
C453 C 0.40072 0.87569 0.39215 0.0
C454 C 0.39624 0.92891 0.3908 0.0
C455 C 0.38354 0.95449 0.4091 0.0
C456 C 0.37474 0.92491 0.42839 0.0
C457 C 0.3792 0.87157 0.42971 0.0
C458 C 0.38463 0.64637 0.36801 0.0
C459 C 0.32887 0.698 0.4013 0.0
O460 O 0.34229 0.53268 0.42336 0.0
O461 O 0.35356 0.53721 0.38618 0.0
O462 O 0.34218 0.62348 0.44375 0.0
O463 O 0.3769 0.64595 0.43669 0.0
O464 O 0.39691 0.57606 0.41102 0.0
O465 O 0.41355 0.65367 0.42276 0.0
O466 O 0.40295 0.7645 0.39464 0.0
O467 O 0.39014 0.76393 0.43139 0.0
O468 O 0.40275 0.67245 0.37577 0.0
O469 O 0.36752 0.65247 0.38232 0.0
O470 O 0.34789 0.72461 0.40778 0.0
O471 O 0.32971 0.64741 0.39787 0.0
H472 H 0.36108 0.45161 0.44187 0.0
H473 H 0.36985 0.35897 0.44308 0.0
H474 H 0.35367 0.34716 0.36737 0.0
H475 H 0.34517 0.4398 0.36618 0.0
H476 H 0.41119 0.85767 0.37809 0.0
H477 H 0.40296 0.95012 0.37548 0.0
H478 H 0.36512 0.94324 0.44295 0.0
H479 H 0.37281 0.85044 0.44521 0.0
La480 La 0.38204 0.38189 0.91019 0.0
La481 La 0.3578 0.49147 0.90755 0.0
C482 C 0.39474 0.29006 0.9189 0.0
C483 C 0.38521 0.23685 0.91984 0.0
C484 C 0.36837 0.21895 0.90311 0.0
C485 C 0.36197 0.16653 0.90256 0.0
C486 C 0.37217 0.13114 0.91883 0.0
C487 C 0.38826 0.1498 0.93617 0.0
C488 C 0.39475 0.20205 0.93661 0.0
C489 C 0.38344 0.43214 0.8686 0.0
C490 C 0.326 0.39071 0.90254 0.0
C491 C 0.34524 0.57858 0.89167 0.0
C492 C 0.34813 0.63417 0.89754 0.0
C493 C 0.32786 0.6657 0.8996 0.0
C494 C 0.3301 0.71906 0.90339 0.0
C495 C 0.35271 0.74218 0.905 0.0
C496 C 0.37301 0.71039 0.90337 0.0
C497 C 0.37077 0.65697 0.89975 0.0
C498 C 0.36138 0.46004 0.95301 0.0
C499 C 0.41335 0.47795 0.91954 0.0
O500 O 0.39594 0.31171 0.89767 0.0
O501 O 0.38777 0.32258 0.93556 0.0
O502 O 0.40046 0.40279 0.87656 0.0
O503 O 0.36646 0.43078 0.88329 0.0
O504 O 0.34457 0.36179 0.90842 0.0
O505 O 0.3275 0.44145 0.89887 0.0
O506 O 0.33212 0.55084 0.90631 0.0
O507 O 0.36427 0.55359 0.88437 0.0
O508 O 0.35173 0.50329 0.94631 0.0
O509 O 0.36829 0.43781 0.93415 0.0
O510 O 0.39626 0.5076 0.91027 0.0
O511 O 0.41015 0.4286 0.92471 0.0
H512 H 0.36065 0.24514 0.89005 0.0
H513 H 0.34928 0.15356 0.8892 0.0
H514 H 0.39663 0.12362 0.94881 0.0
H515 H 0.40784 0.215 0.9496 0.0
H516 H 0.31023 0.64915 0.8978 0.0
H517 H 0.31411 0.74243 0.90432 0.0
H518 H 0.39068 0.72686 0.90485 0.0
H519 H 0.38677 0.63374 0.89834 0.0
La520 La 0.61504 0.69635 0.90401 0.0
La521 La 0.63823 0.58514 0.90437 0.0
C522 C 0.60245 0.78913 0.90973 0.0
C523 C 0.61223 0.84126 0.91405 0.0
C524 C 0.63333 0.85797 0.90295 0.0
C525 C 0.6402 0.90998 0.90439 0.0
C526 C 0.62617 0.94607 0.91703 0.0
C527 C 0.60574 0.92847 0.9291 0.0
C528 C 0.59883 0.87661 0.92755 0.0
C529 C 0.61405 0.64187 0.86352 0.0
C530 C 0.67118 0.68444 0.90122 0.0
C531 C 0.65213 0.49755 0.89045 0.0
C532 C 0.6489 0.4422 0.89655 0.0
C533 C 0.66857 0.41284 0.90415 0.0
C534 C 0.66638 0.35959 0.90816 0.0
C535 C 0.6445 0.33443 0.90441 0.0
C536 C 0.62471 0.36402 0.89724 0.0
C537 C 0.62685 0.41731 0.89339 0.0
C538 C 0.63209 0.62114 0.94883 0.0
C539 C 0.58259 0.60186 0.91412 0.0
O540 O 0.60709 0.76818 0.88879 0.0
O541 O 0.60356 0.75559 0.92738 0.0
O542 O 0.5972 0.67283 0.87045 0.0
O543 O 0.63074 0.6438 0.87859 0.0
O544 O 0.65263 0.71422 0.90606 0.0
O545 O 0.6694 0.6338 0.89735 0.0
O546 O 0.66402 0.52615 0.90586 0.0
O547 O 0.63371 0.52197 0.88131 0.0
O548 O 0.63972 0.57493 0.94388 0.0
O549 O 0.62836 0.64274 0.929 0.0
O550 O 0.5996 0.57047 0.90594 0.0
O551 O 0.58601 0.65173 0.91805 0.0
H552 H 0.64404 0.83131 0.8925 0.0
H553 H 0.65622 0.92218 0.89518 0.0
H554 H 0.59441 0.95526 0.93878 0.0
H555 H 0.58244 0.86454 0.93614 0.0
H556 H 0.68582 0.43092 0.9065 0.0
H557 H 0.68202 0.33783 0.91344 0.0
H558 H 0.60754 0.34589 0.89448 0.0
H559 H 0.6113 0.43871 0.88756 0.0
La560 La 0.38349 0.69665 0.67353 0.0
La561 La 0.35976 0.586 0.67414 0.0
C562 C 0.3961 0.78914 0.66694 0.0
C563 C 0.38642 0.84186 0.66351 0.0
C564 C 0.36936 0.86293 0.67921 0.0
C565 C 0.36329 0.91545 0.67786 0.0
C566 C 0.3741 0.94796 0.66075 0.0
C567 C 0.39021 0.92594 0.64428 0.0
C568 C 0.39634 0.87356 0.64572 0.0
C569 C 0.38449 0.64351 0.71434 0.0
C570 C 0.32729 0.68631 0.67746 0.0
C571 C 0.34601 0.4997 0.68977 0.0
C572 C 0.34852 0.44388 0.68472 0.0
C573 C 0.34847 0.4241 0.6612 0.0
C574 C 0.35032 0.37065 0.65721 0.0
C575 C 0.3523 0.33603 0.67667 0.0
C576 C 0.35264 0.35632 0.70014 0.0
C577 C 0.35074 0.40959 0.70409 0.0
C578 C 0.36533 0.62006 0.62938 0.0
C579 C 0.41536 0.60119 0.66336 0.0
O580 O 0.39321 0.7681 0.68815 0.0
O581 O 0.3934 0.7557 0.64939 0.0
O582 O 0.40149 0.67369 0.70711 0.0
O583 O 0.36774 0.64548 0.69936 0.0
O584 O 0.34596 0.71564 0.67263 0.0
O585 O 0.32882 0.63555 0.68107 0.0
O586 O 0.33383 0.52766 0.67433 0.0
O587 O 0.36521 0.5234 0.69749 0.0
O588 O 0.35734 0.5744 0.63479 0.0
O589 O 0.36978 0.64229 0.64895 0.0
O590 O 0.39832 0.57049 0.67193 0.0
O591 O 0.41215 0.65106 0.65928 0.0
H592 H 0.36136 0.83936 0.69311 0.0
H593 H 0.35093 0.93098 0.69093 0.0
H594 H 0.3985 0.94945 0.63054 0.0
H595 H 0.40951 0.85818 0.6334 0.0
H596 H 0.34686 0.44985 0.64593 0.0
H597 H 0.34982 0.35641 0.63892 0.0
H598 H 0.35461 0.33107 0.71553 0.0
H599 H 0.35095 0.42409 0.72237 0.0
La600 La 0.61354 0.37247 0.66969 0.0
La601 La 0.63914 0.48107 0.66961 0.0
C602 C 0.60013 0.28025 0.66355 0.0
C603 C 0.60971 0.22719 0.66108 0.0
C604 C 0.62798 0.20867 0.67607 0.0
C605 C 0.63444 0.15628 0.67557 0.0
C606 C 0.62287 0.12144 0.65998 0.0
C607 C 0.60535 0.14071 0.64426 0.0
C608 C 0.59881 0.19297 0.64488 0.0
C609 C 0.61306 0.42716 0.71006 0.0
C610 C 0.66992 0.37939 0.67491 0.0
C611 C 0.65249 0.56905 0.68374 0.0
C612 C 0.64911 0.62438 0.67759 0.0
C613 C 0.66912 0.65603 0.67414 0.0
C614 C 0.66649 0.70933 0.67039 0.0
C615 C 0.64376 0.73225 0.67022 0.0
C616 C 0.62369 0.70029 0.67313 0.0
C617 C 0.62632 0.64694 0.6767 0.0
C618 C 0.63459 0.44412 0.62517 0.0
C619 C 0.58322 0.46945 0.65835 0.0
O620 O 0.60242 0.30233 0.68463 0.0
O621 O 0.60381 0.31263 0.64581 0.0
O622 O 0.59569 0.39788 0.70289 0.0
O623 O 0.62997 0.42342 0.69532 0.0
O624 O 0.65094 0.35136 0.66954 0.0
O625 O 0.66904 0.43024 0.67847 0.0
O626 O 0.66476 0.54055 0.66862 0.0
O627 O 0.63399 0.54442 0.69245 0.0
O628 O 0.64507 0.48742 0.63041 0.0
O629 O 0.6277 0.42512 0.64471 0.0
O630 O 0.6009 0.49929 0.66629 0.0
O631 O 0.58549 0.41908 0.65499 0.0
H632 H 0.63679 0.23431 0.68866 0.0
H633 H 0.64824 0.14285 0.68766 0.0
H634 H 0.59595 0.11495 0.63218 0.0
H635 H 0.5846 0.20632 0.63325 0.0
H636 H 0.68688 0.63968 0.67491 0.0
H637 H 0.68232 0.73285 0.66842 0.0
H638 H 0.60592 0.71659 0.67277 0.0
H639 H 0.6105 0.62363 0.6792 0.0
H640 H 0.21324 0.15541 0.19185 0.0
H641 H 0.18165 0.29309 0.16121 0.0
H642 H 0.25114 0.20114 0.19585 0.0
H643 H 0.21934 0.33789 0.16471 0.0
H644 H 0.3196 0.27911 0.16822 0.0
H645 H 0.28182 0.23405 0.16925 0.0
H646 H 0.24706 0.37388 0.19357 0.0
H647 H 0.28503 0.41972 0.19209 0.0
C648 C 0.21436 0.19528 0.18597 0.0
C649 C 0.19446 0.22047 0.17616 0.0
C650 C 0.23606 0.22143 0.1882 0.0
C651 C 0.23821 0.2732 0.18063 0.0
C652 C 0.2182 0.29838 0.17108 0.0
C653 C 0.1966 0.27239 0.16889 0.0
C654 C 0.30399 0.3004 0.17395 0.0
C655 C 0.30536 0.35322 0.18 0.0
C656 C 0.28231 0.2743 0.1747 0.0
C657 C 0.26145 0.3003 0.18153 0.0
C658 C 0.26282 0.35292 0.18797 0.0
C659 C 0.28457 0.37916 0.18719 0.0
H660 H 0.7846 0.92159 0.19376 0.0
H661 H 0.81752 0.78124 0.16736 0.0
H662 H 0.74646 0.87651 0.19639 0.0
H663 H 0.77957 0.73707 0.16935 0.0
H664 H 0.71201 0.65773 0.1922 0.0
H665 H 0.74989 0.70318 0.19612 0.0
H666 H 0.71716 0.84271 0.16881 0.0
H667 H 0.67934 0.79802 0.16555 0.0
C668 C 0.78373 0.88122 0.18856 0.0
C669 C 0.80407 0.85516 0.18024 0.0
C670 C 0.76188 0.85544 0.18998 0.0
C671 C 0.75997 0.80318 0.18305 0.0
C672 C 0.78045 0.77703 0.17519 0.0
C673 C 0.80222 0.80263 0.17384 0.0
C674 C 0.71289 0.69818 0.18718 0.0
C675 C 0.6927 0.7241 0.17842 0.0
C676 C 0.7346 0.72419 0.18935 0.0
C677 C 0.73656 0.77656 0.18271 0.0
C678 C 0.71622 0.80263 0.17441 0.0
C679 C 0.69454 0.77677 0.17234 0.0
H680 H 0.32001 0.79967 0.4109 0.0
H681 H 0.28685 0.66073 0.38332 0.0
H682 H 0.28252 0.84573 0.40705 0.0
H683 H 0.24939 0.7075 0.37882 0.0
H684 H 0.1821 0.78599 0.40783 0.0
H685 H 0.21993 0.7414 0.40583 0.0
H686 H 0.25344 0.88058 0.37931 0.0
H687 H 0.21536 0.92618 0.38196 0.0
C688 C 0.30478 0.77904 0.40373 0.0
C689 C 0.30634 0.72632 0.39763 0.0
C690 C 0.28333 0.80569 0.40134 0.0
C691 C 0.26296 0.78028 0.39268 0.0
C692 C 0.2647 0.72794 0.38589 0.0
C693 C 0.28616 0.70116 0.38841 0.0
C694 C 0.19746 0.80728 0.40145 0.0
C695 C 0.19574 0.85986 0.3952 0.0
C696 C 0.21915 0.78141 0.40009 0.0
C697 C 0.23969 0.80735 0.39234 0.0
C698 C 0.23794 0.8597 0.38559 0.0
C699 C 0.21615 0.88577 0.38702 0.0
H700 H 0.78649 0.16199 0.38923 0.0
H701 H 0.82063 0.29862 0.41809 0.0
H702 H 0.74867 0.20854 0.38798 0.0
H703 H 0.78296 0.34434 0.41732 0.0
H704 H 0.68183 0.28614 0.41668 0.0
H705 H 0.71979 0.2419 0.41589 0.0
H706 H 0.75375 0.38144 0.39037 0.0
H707 H 0.71543 0.42661 0.39168 0.0
C708 C 0.78592 0.20174 0.39541 0.0
C709 C 0.80657 0.22649 0.40374 0.0
C710 C 0.76427 0.22841 0.39474 0.0
C711 C 0.76285 0.2802 0.40253 0.0
C712 C 0.78352 0.30484 0.41081 0.0
C713 C 0.80511 0.27834 0.41139 0.0
C714 C 0.69733 0.30757 0.4108 0.0
C715 C 0.69561 0.35993 0.40411 0.0
C716 C 0.7191 0.28196 0.41022 0.0
C717 C 0.73974 0.30792 0.40283 0.0
C718 C 0.73815 0.36049 0.39632 0.0
C719 C 0.71625 0.38636 0.39704 0.0
H720 H 0.68195 0.7829 0.91476 0.0
H721 H 0.71344 0.64514 0.88401 0.0
H722 H 0.71978 0.82714 0.91197 0.0
H723 H 0.75153 0.69039 0.88066 0.0
H724 H 0.82042 0.76935 0.90706 0.0
H725 H 0.78278 0.72352 0.90594 0.0
H726 H 0.74714 0.86391 0.88377 0.0
H727 H 0.78489 0.9105 0.88561 0.0
C728 C 0.69692 0.76204 0.9072 0.0
C729 C 0.69463 0.71032 0.8996 0.0
C730 C 0.71863 0.78773 0.90542 0.0
C731 C 0.73867 0.76257 0.89589 0.0
C732 C 0.73646 0.71077 0.88828 0.0
C733 C 0.71465 0.68484 0.89016 0.0
C734 C 0.8046 0.79058 0.90183 0.0
C735 C 0.80564 0.84384 0.89664 0.0
C736 C 0.78301 0.76404 0.901 0.0
C737 C 0.7619 0.78999 0.89486 0.0
C738 C 0.76303 0.84294 0.88896 0.0
C739 C 0.78467 0.86962 0.88989 0.0
H740 H 0.31597 0.28983 0.91248 0.0
H741 H 0.28383 0.43024 0.88529 0.0
H742 H 0.27837 0.24511 0.90836 0.0
H743 H 0.24605 0.38456 0.88046 0.0
H744 H 0.1776 0.30385 0.90602 0.0
H745 H 0.21525 0.34946 0.90523 0.0
H746 H 0.25041 0.21061 0.88022 0.0
H747 H 0.2126 0.16412 0.88177 0.0
C748 C 0.30093 0.31117 0.90538 0.0
C749 C 0.30293 0.36386 0.89933 0.0
C750 C 0.27934 0.28521 0.90281 0.0
C751 C 0.25916 0.31107 0.89399 0.0
C752 C 0.2612 0.36362 0.88759 0.0
C753 C 0.28285 0.38979 0.89029 0.0
C754 C 0.1933 0.2829 0.90022 0.0
C755 C 0.19211 0.23008 0.89416 0.0
C756 C 0.21491 0.30934 0.89957 0.0
C757 C 0.2359 0.28378 0.89271 0.0
C758 C 0.23462 0.23128 0.88596 0.0
C759 C 0.21295 0.20466 0.88673 0.0
H760 H 0.6781 0.27665 0.66722 0.0
H761 H 0.7137 0.41854 0.68751 0.0
H762 H 0.71563 0.23066 0.66876 0.0
H763 H 0.75143 0.37169 0.6897 0.0
H764 H 0.81648 0.2869 0.65969 0.0
H765 H 0.77891 0.33257 0.66204 0.0
H766 H 0.74641 0.19864 0.69487 0.0
H767 H 0.78419 0.15199 0.692 0.0
C768 C 0.69389 0.29808 0.67226 0.0
C769 C 0.69287 0.35155 0.67709 0.0
C770 C 0.71544 0.27142 0.67334 0.0
C771 C 0.73655 0.2974 0.67933 0.0
C772 C 0.7355 0.35066 0.68468 0.0
C773 C 0.71388 0.3775 0.68353 0.0
C774 C 0.8014 0.26701 0.66751 0.0
C775 C 0.80337 0.21563 0.67565 0.0
C776 C 0.77985 0.29351 0.66902 0.0
C777 C 0.75967 0.26948 0.67879 0.0
C778 C 0.76159 0.21811 0.68704 0.0
C779 C 0.78323 0.19139 0.68543 0.0
H780 H 0.21222 0.9111 0.69255 0.0
H781 H 0.17931 0.77333 0.6635 0.0
H782 H 0.24995 0.86462 0.69597 0.0
H783 H 0.21694 0.72773 0.6662 0.0
H784 H 0.28399 0.6456 0.6908 0.0
H785 H 0.24583 0.69092 0.69304 0.0
H786 H 0.27989 0.83192 0.66948 0.0
H787 H 0.31777 0.78762 0.66792 0.0
C788 C 0.21303 0.87103 0.68686 0.0
C789 C 0.1928 0.8461 0.67764 0.0
C790 C 0.23465 0.8444 0.68874 0.0
C791 C 0.2365 0.79242 0.6813 0.0
C792 C 0.21612 0.76741 0.67245 0.0
C793 C 0.19454 0.79385 0.6707 0.0
C794 C 0.2833 0.6863 0.68621 0.0
C795 C 0.30396 0.71279 0.67913 0.0
C796 C 0.26144 0.71226 0.68742 0.0
C797 C 0.2598 0.76514 0.68148 0.0
C798 C 0.28052 0.79153 0.67462 0.0
C799 C 0.30229 0.76579 0.67352 0.0
H800 H 0.15444 0.98707 0.3429 0.0
H801 H 0.08071 0.94844 0.33091 0.0
H802 H 0.15438 0.04012 0.30659 0.0
H803 H 0.08077 0.99947 0.29406 0.0
H804 H 0.08063 0.13557 0.24209 0.0
H805 H 0.08114 0.08458 0.27896 0.0
H806 H 0.15367 0.03851 0.26415 0.0
H807 H 0.15331 0.09139 0.22781 0.0
C808 C 0.13823 0.98982 0.33244 0.0
C809 C 0.11752 0.96393 0.33993 0.0
C810 C 0.13822 1.01989 0.31143 0.0
C811 C 0.11754 1.02453 0.29718 0.0
C812 C 0.09693 0.9979 0.30465 0.0
C813 C 0.09693 0.96816 0.32572 0.0
C814 C 0.0967 0.11465 0.24678 0.0
C815 C 0.11689 0.11737 0.23195 0.0
C816 C 0.09696 0.08496 0.26788 0.0
C817 C 0.11741 0.05686 0.27472 0.0
C818 C 0.13766 0.05993 0.25981 0.0
C819 C 0.13742 0.08994 0.23879 0.0
H820 H 0.92237 0.10198 0.34261 0.0
H821 H 0.84654 0.1233 0.3373 0.0
H822 H 0.92176 0.04661 0.30732 0.0
H823 H 0.84579 0.07235 0.30056 0.0
H824 H 0.84587 0.94999 0.24239 0.0
H825 H 0.84616 0.99966 0.27953 0.0
H826 H 0.92067 1.03534 0.26801 0.0
H827 H 0.92046 0.98121 0.23232 0.0
C828 C 0.90556 0.09528 0.33357 0.0
C829 C 0.88453 0.11698 0.34269 0.0
C830 C 0.90514 0.06383 0.31298 0.0
C831 C 0.88374 0.05457 0.30026 0.0
C832 C 0.86267 0.07685 0.30963 0.0
C833 C 0.86303 0.10678 0.33073 0.0
C834 C 0.8623 0.9683 0.24804 0.0
C835 C 0.88318 0.96134 0.23459 0.0
C836 C 0.86251 0.99753 0.26935 0.0
C837 C 0.88348 1.02239 0.27745 0.0
C838 C 0.90423 1.0161 0.26334 0.0
C839 C 0.90415 0.98533 0.24253 0.0
H840 H 0.91901 0.12851 0.74421 0.0
H841 H 0.8463 0.08446 0.73018 0.0
H842 H 0.91888 0.07685 0.78084 0.0
H843 H 0.84635 1.03057 0.76622 0.0
H844 H 0.84611 0.97616 0.84451 0.0
H845 H 0.84574 1.02992 0.80843 0.0
H846 H 0.91977 0.99255 0.79607 0.0
H847 H 0.92027 0.9412 0.83278 0.0
C848 C 0.90303 0.10735 0.74887 0.0
C849 C 0.88274 0.11029 0.73414 0.0
C850 C 0.90298 0.07723 0.76984 0.0
C851 C 0.88265 0.04885 0.7767 0.0
C852 C 0.86229 0.05213 0.7619 0.0
C853 C 0.86231 0.08266 0.74101 0.0
C854 C 0.86235 0.97995 0.83419 0.0
C855 C 0.8833 0.95491 0.84172 0.0
C856 C 0.86211 1.01036 0.81327 0.0
C857 C 0.88276 1.01612 0.79909 0.0
C858 C 0.9036 0.99024 0.80658 0.0
C859 C 0.90387 0.96027 0.8276 0.0
H860 H 0.07793 0.13132 0.8294 0.0
H861 H 0.15175 0.09499 0.84238 0.0
H862 H 0.07855 0.07838 0.79316 0.0
H863 H 0.15219 0.03935 0.8069 0.0
H864 H 0.15214 0.97975 0.72944 0.0
H865 H 0.15219 1.03536 0.76495 0.0
H866 H 0.07887 0.99403 0.77863 0.0
H867 H 0.0786 0.94116 0.74237 0.0
C868 C 0.09427 0.11156 0.8246 0.0
C869 C 0.11471 0.11696 0.83895 0.0
C870 C 0.0946 0.08064 0.80387 0.0
C871 C 0.11536 0.05374 0.79692 0.0
C872 C 0.13589 0.05962 0.8113 0.0
C873 C 0.1356 0.09109 0.83191 0.0
C874 C 0.13597 0.98314 0.73991 0.0
C875 C 0.11526 0.95667 0.73284 0.0
C876 C 0.13604 1.01459 0.76053 0.0
C877 C 0.11548 1.01983 0.77489 0.0
C878 C 0.09493 0.99228 0.76793 0.0
C879 C 0.09481 0.9614 0.74718 0.0
H880 H 0.57941 0.44595 0.33099 0.0
H881 H 0.65215 0.4903 0.34471 0.0
H882 H 0.57949 0.49684 0.29412 0.0
H883 H 0.65204 0.54341 0.30843 0.0
H884 H 0.65211 0.59487 0.22971 0.0
H885 H 0.65248 0.54199 0.26607 0.0
H886 H 0.57874 0.58143 0.27881 0.0
H887 H 0.57823 0.63203 0.24187 0.0
C888 C 0.59538 0.46702 0.32621 0.0
C889 C 0.61569 0.46444 0.3409 0.0
C890 C 0.5954 0.49667 0.30511 0.0
C891 C 0.61573 0.52486 0.29812 0.0
C892 C 0.6361 0.52197 0.3129 0.0
C893 C 0.63611 0.49197 0.33392 0.0
C894 C 0.63594 0.59177 0.24019 0.0
C895 C 0.61507 0.61716 0.23273 0.0
C896 C 0.63618 0.56186 0.26125 0.0
C897 C 0.61561 0.55699 0.2756 0.0
C898 C 0.59483 0.58316 0.26816 0.0
C899 C 0.59457 0.61266 0.24702 0.0
H900 H 0.34692 0.62558 0.33852 0.0
H901 H 0.42167 0.59433 0.34781 0.0
H902 H 0.34693 0.57665 0.30114 0.0
H903 H 0.42161 0.54109 0.31181 0.0
H904 H 0.42264 0.47888 0.23629 0.0
H905 H 0.42224 0.53273 0.27214 0.0
H906 H 0.3467 0.50348 0.28017 0.0
H907 H 0.34715 0.45405 0.24299 0.0
C908 C 0.3633 0.60738 0.33266 0.0
C909 C 0.38432 0.61412 0.34593 0.0
C910 C 0.36337 0.57865 0.31122 0.0
C911 C 0.38432 0.55418 0.30281 0.0
C912 C 0.40519 0.56012 0.31677 0.0
C913 C 0.40525 0.59034 0.33773 0.0
C914 C 0.40597 0.48444 0.24575 0.0
C915 C 0.38495 0.46227 0.23688 0.0
C916 C 0.40568 0.515 0.26662 0.0
C917 C 0.38446 0.52283 0.27981 0.0
C918 C 0.36343 0.50002 0.27071 0.0
C919 C 0.36363 0.47098 0.24937 0.0
H920 H 0.42052 0.44543 0.83727 0.0
H921 H 0.34708 0.48761 0.84858 0.0
H922 H 0.42093 0.49521 0.79994 0.0
H923 H 0.34762 0.53925 0.81197 0.0
H924 H 0.34793 0.58729 0.73343 0.0
H925 H 0.34799 0.53506 0.76988 0.0
H926 H 0.42098 0.57945 0.7834 0.0
H927 H 0.42107 0.62971 0.74623 0.0
C928 C 0.4045 0.46567 0.83185 0.0
C929 C 0.38382 0.46279 0.84597 0.0
C930 C 0.40475 0.49465 0.8105 0.0
C931 C 0.38432 0.52167 0.80271 0.0
C932 C 0.36363 0.51854 0.81698 0.0
C933 C 0.36336 0.48929 0.83819 0.0
C934 C 0.36405 0.58548 0.74409 0.0
C935 C 0.38457 0.61223 0.73678 0.0
C936 C 0.36404 0.55591 0.76522 0.0
C937 C 0.38449 0.55278 0.77988 0.0
C938 C 0.40499 0.58 0.77254 0.0
C939 C 0.40502 0.60925 0.75128 0.0
H940 H 0.57759 0.62919 0.83153 0.0
H941 H 0.65036 0.58396 0.84465 0.0
H942 H 0.57742 0.57862 0.79445 0.0
H943 H 0.65001 0.53139 0.80819 0.0
H944 H 0.65018 0.4817 0.72947 0.0
H945 H 0.65033 0.53432 0.76592 0.0
H946 H 0.57671 0.49405 0.77852 0.0
H947 H 0.57643 0.44341 0.74146 0.0
C948 C 0.59351 0.60803 0.82657 0.0
C949 C 0.61392 0.61028 0.84114 0.0
C950 C 0.59338 0.5786 0.80535 0.0
C951 C 0.61367 0.55042 0.79812 0.0
C952 C 0.63411 0.55292 0.81281 0.0
C953 C 0.63426 0.58266 0.83393 0.0
C954 C 0.63398 0.48451 0.73995 0.0
C955 C 0.61323 0.45881 0.73242 0.0
C956 C 0.6341 0.5143 0.76105 0.0
C957 C 0.61353 0.51877 0.77542 0.0
C958 C 0.59282 0.49253 0.76787 0.0
C959 C 0.59268 0.46306 0.74667 0.0
H960 H 0.09818 0.14883 0.97405 0.0
H961 H 0.1717 0.19635 0.97414 0.0
H962 H 0.09738 0.15439 1.01802 0.0
H963 H 0.17071 0.20516 1.01767 0.0
H964 H 0.1741 0.13458 0.09188 0.0
H965 H 0.17185 0.14674 0.04896 0.0
H966 H 0.099 0.19901 0.05579 0.0
H967 H 0.10115 0.18439 0.09944 0.0
C968 C 0.11393 0.16208 0.98346 0.0
C969 C 0.1351 0.17166 0.97077 0.0
C970 C 0.1135 0.16539 1.0087 0.0
C971 C 0.13416 0.17907 1.02169 0.0
C972 C 0.15467 0.19271 1.00856 0.0
C973 C 0.15522 0.18829 0.98352 0.0
C974 C 0.15761 0.14909 0.08435 0.0
C975 C 0.13779 0.1583 0.09912 0.0
C976 C 0.15635 0.15665 0.05957 0.0
C977 C 0.13529 0.17439 0.04858 0.0
C978 C 0.11549 0.18492 0.06347 0.0
C979 C 0.11674 0.17698 0.0885 0.0
H980 H 0.89928 0.92615 0.97735 0.0
H981 H 0.8253 0.88218 0.9773 0.0
H982 H 0.8999 0.92166 1.02135 0.0
H983 H 0.82605 0.87451 1.02086 0.0
H984 H 0.82331 0.94346 0.0955 0.0
H985 H 0.82541 0.93212 0.05247 0.0
H986 H 0.89795 0.87768 0.05902 0.0
H987 H 0.89598 0.8915 0.1027 0.0
C988 C 0.88336 0.91398 0.98674 0.0
C989 C 0.86216 0.90499 0.97396 0.0
C990 C 0.88368 0.91129 1.01201 0.0
C991 C 0.86286 0.89885 1.02498 0.0
C992 C 0.84224 0.88602 1.01179 0.0
C993 C 0.84183 0.88977 0.98672 0.0
C994 C 0.8397 0.92868 0.08788 0.0
C995 C 0.85949 0.91857 0.10259 0.0
C996 C 0.84088 0.92161 0.06302 0.0
C997 C 0.86181 0.90347 0.05192 0.0
C998 C 0.88157 0.89215 0.06675 0.0
C999 C 0.88041 0.89964 0.09183 0.0
H1000 H 0.10266 0.89609 0.47165 0.0
H1001 H 0.17551 0.94565 0.48013 0.0
H1002 H 0.10016 0.88051 0.51517 0.0
H1003 H 0.17292 0.93244 0.52301 0.0
H1004 H 0.17207 0.88015 0.59754 0.0
H1005 H 0.17149 0.87292 0.55394 0.0
H1006 H 0.0982 0.92424 0.55317 0.0
H1007 H 0.0986 0.92833 0.59719 0.0
C1008 C 0.11817 0.90328 0.48277 0.0
C1009 C 0.13929 0.92212 0.47244 0.0
C1010 C 0.1167 0.89477 0.50774 0.0
C1011 C 0.13636 0.90489 0.52287 0.0
C1012 C 0.15752 0.92286 0.51219 0.0
C1013 C 0.15898 0.931 0.48744 0.0
C1014 C 0.15567 0.88862 0.58805 0.0
C1015 C 0.13545 0.90496 0.60071 0.0
C1016 C 0.15537 0.88513 0.56297 0.0
C1017 C 0.135 0.89941 0.54972 0.0
C1018 C 0.11422 0.91278 0.56258 0.0
C1019 C 0.11441 0.9152 0.58786 0.0
H1020 H 0.90087 0.17672 0.60417 0.0
H1021 H 0.82944 0.12153 0.59223 0.0
H1022 H 0.90477 0.19475 0.56078 0.0
H1023 H 0.83295 0.14046 0.54957 0.0
H1024 H 0.83818 0.19834 0.47528 0.0
H1025 H 0.83816 0.21135 0.51892 0.0
H1026 H 0.90573 0.13236 0.52394 0.0
H1027 H 0.90553 0.11929 0.48026 0.0
C1028 C 0.88579 0.17011 0.59241 0.0
C1029 C 0.86479 0.14806 0.60151 0.0
C1030 C 0.88806 0.17998 0.5676 0.0
C1031 C 0.86913 0.16922 0.55167 0.0
C1032 C 0.84776 0.14993 0.56124 0.0
C1033 C 0.84575 0.13895 0.58573 0.0
C1034 C 0.85346 0.18574 0.48564 0.0
C1035 C 0.87205 0.15867 0.47444 0.0
C1036 C 0.85338 0.19271 0.51064 0.0
C1037 C 0.8719 0.17266 0.52498 0.0
C1038 C 0.89135 0.14885 0.51346 0.0
C1039 C 0.89129 0.14145 0.48845 0.0
H1040 H 0.59524 0.65483 0.10117 0.0
H1041 H 0.67129 0.66855 0.09247 0.0
H1042 H 0.59017 0.65939 0.05741 0.0
H1043 H 0.66617 0.67461 0.04884 0.0
H1044 H 0.64613 0.71156 0.97035 0.0
H1045 H 0.6452 0.73033 1.0138 0.0
H1046 H 0.60555 0.58975 1.02575 0.0
H1047 H 0.60732 0.57032 0.9828 0.0
C1048 C 0.6108 0.66022 0.08996 0.0
C1049 C 0.63369 0.66105 0.1002 0.0
C1050 C 0.6079 0.66273 0.06493 0.0
C1051 C 0.62777 0.66745 0.0497 0.0
C1052 C 0.65051 0.67153 0.0601 0.0
C1053 C 0.65345 0.66782 0.08506 0.0
C1054 C 0.63663 0.68568 0.98226 0.0
C1055 C 0.62662 0.63975 0.97331 0.0
C1056 C 0.63625 0.69612 1.00708 0.0
C1057 C 0.62527 0.66149 1.02317 0.0
C1058 C 0.61392 0.61741 1.01383 0.0
C1059 C 0.61491 0.6063 0.98925 0.0
H1060 H 0.33176 0.48994 0.988 0.0
H1061 H 0.39235 0.39096 0.97532 0.0
H1062 H 0.33334 0.47058 1.03048 0.0
H1063 H 0.39406 0.37102 1.01872 0.0
H1064 H 0.40349 0.42945 0.10167 0.0
H1065 H 0.40324 0.42025 0.05766 0.0
H1066 H 0.32686 0.4016 0.05924 0.0
H1067 H 0.32722 0.41258 0.10277 0.0
C1068 C 0.34527 0.46323 0.99431 0.0
C1069 C 0.36183 0.44175 0.97827 0.0
C1070 C 0.34609 0.45179 1.01876 0.0
C1071 C 0.36367 0.41875 1.02816 0.0
C1072 C 0.38023 0.39651 1.01208 0.0
C1073 C 0.37916 0.40753 0.98725 0.0
C1074 C 0.38684 0.42128 0.09258 0.0
C1075 C 0.36537 0.42129 0.10553 0.0
C1076 C 0.38666 0.41617 0.06738 0.0
C1077 C 0.36498 0.41111 0.05481 0.0
C1078 C 0.34384 0.40644 0.06822 0.0
C1079 C 0.34402 0.41214 0.09321 0.0
H1080 H 0.59322 0.47941 0.48222 0.0
H1081 H 0.64996 0.36898 0.47204 0.0
H1082 H 0.59417 0.46369 0.52553 0.0
H1083 H 0.65142 0.35428 0.51569 0.0
H1084 H 0.66888 0.43966 0.59148 0.0
H1085 H 0.66402 0.42401 0.54846 0.0
H1086 H 0.58949 0.3916 0.55955 0.0
H1087 H 0.59468 0.40547 0.60306 0.0
C1088 C 0.60555 0.4509 0.48925 0.0
C1089 C 0.62153 0.42548 0.47381 0.0
C1090 C 0.60602 0.44173 0.51403 0.0
C1091 C 0.62287 0.40777 0.52404 0.0
C1092 C 0.63821 0.38058 0.50846 0.0
C1093 C 0.63733 0.38884 0.48352 0.0
C1094 C 0.65165 0.42735 0.58483 0.0
C1095 C 0.63221 0.42326 0.60055 0.0
C1096 C 0.64887 0.41834 0.5602 0.0
C1097 C 0.62638 0.40658 0.5506 0.0
C1098 C 0.60705 0.40041 0.56648 0.0
C1099 C 0.61002 0.40797 0.59134 0.0
H1100 H 0.35263 0.71156 0.60789 0.0
H1101 H 0.38787 0.56598 0.59483 0.0
H1102 H 0.35331 0.73001 0.5644 0.0
H1103 H 0.38946 0.58508 0.55185 0.0
H1104 H 0.40197 0.65234 0.47696 0.0
H1105 H 0.40673 0.65548 0.52076 0.0
H1106 H 0.33088 0.67495 0.52887 0.0
H1107 H 0.32601 0.67022 0.48513 0.0
C1108 C 0.36126 0.68451 0.59582 0.0
C1109 C 0.37037 0.63756 0.60462 0.0
C1110 C 0.3615 0.6948 0.57099 0.0
C1111 C 0.37149 0.65898 0.55474 0.0
C1112 C 0.38187 0.61362 0.5639 0.0
C1113 C 0.38097 0.6027 0.58849 0.0
C1114 C 0.38637 0.65833 0.48807 0.0
C1115 C 0.36358 0.66076 0.47763 0.0
C1116 C 0.3891 0.66003 0.51313 0.0
C1117 C 0.36918 0.66556 0.52823 0.0
C1118 C 0.34657 0.67119 0.51769 0.0
C1119 C 0.34378 0.66826 0.49267 0.0
H1120 H 0.95641 0.91929 0.17056 0.0
H1121 H 0.9288 0.06849 0.14936 0.0
H1122 H 0.99662 0.95205 0.16839 0.0
H1123 H 0.96952 0.10112 0.14577 0.0
H1124 H 0.04191 0.15808 0.17089 0.0
H1125 H 0.0016 0.12557 0.16965 0.0
H1126 H 0.0277 0.9781 0.14368 0.0
H1127 H 0.06855 1.01034 0.14633 0.0
C1128 C 0.95901 0.95908 0.165 0.0
C1129 C 0.93951 0.99146 0.16008 0.0
C1130 C 0.98216 0.97775 0.16355 0.0
C1131 C 0.98647 1.02915 0.15673 0.0
C1132 C 0.96688 0.06148 0.15144 0.0
C1133 C 0.94356 0.04294 0.15338 0.0
C1134 C 0.03905 0.1187 0.1648 0.0
C1135 C 0.05833 0.08662 0.15867 0.0
C1136 C 0.01584 0.10019 0.16388 0.0
C1137 C 0.01124 0.04929 0.15642 0.0
C1138 C 0.03058 1.01732 0.1499 0.0
C1139 C 0.05398 1.03566 0.15129 0.0
H1140 H 0.95862 0.16608 0.40742 0.0
H1141 H 0.93147 1.01539 0.42676 0.0
H1142 H 0.99891 0.1333 0.40886 0.0
H1143 H 0.97223 0.98275 0.42961 0.0
H1144 H 0.04338 0.92687 0.40109 0.0
H1145 H 0.00324 0.96021 0.40394 0.0
H1146 H 0.03064 0.10444 0.43231 0.0
H1147 H 0.07127 0.07144 0.42804 0.0
C1148 C 0.96134 0.12599 0.41248 0.0
C1149 C 0.94195 0.09309 0.41693 0.0
C1150 C 0.98453 0.10731 0.41349 0.0
C1151 C 0.98893 0.05539 0.41938 0.0
C1152 C 0.96948 1.02276 0.42456 0.0
C1153 C 0.94614 0.04132 0.42305 0.0
C1154 C 0.04082 0.96572 0.40802 0.0
C1155 C 0.06034 0.99672 0.41439 0.0
C1156 C 0.01775 0.98466 0.40989 0.0
C1157 C 0.01358 1.03485 0.41858 0.0
C1158 C 0.0332 0.0658 0.42523 0.0
C1159 C 0.05645 0.04706 0.42287 0.0
H1160 H 0.04195 0.15718 0.92855 0.0
H1161 H 0.06752 1.01098 0.90072 0.0
H1162 H 0.00191 0.12258 0.93083 0.0
H1163 H 0.02703 0.97642 0.90279 0.0
H1164 H 0.95603 0.91829 0.93135 0.0
H1165 H 0.99619 0.95274 0.93219 0.0
H1166 H 0.97059 0.0968 0.90243 0.0
H1167 H 0.93005 0.06247 0.90181 0.0
C1168 C 0.03906 0.11752 0.92294 0.0
C1169 C 0.05793 0.08683 0.9143 0.0
C1170 C 0.01603 0.09788 0.92414 0.0
C1171 C 0.01129 0.04707 0.91676 0.0
C1172 C 0.03022 1.01573 0.90875 0.0
C1173 C 0.05338 1.03545 0.90754 0.0
C1174 C 0.95885 0.95748 0.92509 0.0
C1175 C 0.93983 0.98765 0.9164 0.0
C1176 C 0.98194 0.97701 0.92544 0.0
C1177 C 0.98658 1.02719 0.91717 0.0
C1178 C 0.9675 0.05801 0.90909 0.0
C1179 C 0.9443 0.03841 0.90871 0.0
H1180 H 0.95594 0.15707 0.66529 0.0
H1181 H 0.92837 1.00408 0.65087 0.0
H1182 H 0.99619 0.12407 0.66378 0.0
H1183 H 0.96903 0.97111 0.64793 0.0
H1184 H 0.04082 0.91774 0.67536 0.0
H1185 H 0.00071 0.95145 0.67311 0.0
H1186 H 0.02757 0.09212 0.64086 0.0
H1187 H 0.06824 0.05885 0.64452 0.0
C1188 C 0.95852 0.11638 0.66129 0.0
C1189 C 0.93899 0.083 0.65828 0.0
C1190 C 0.98171 0.09752 0.66024 0.0
C1191 C 0.98601 0.04488 0.65576 0.0
C1192 C 0.96641 1.01173 0.65194 0.0
C1193 C 0.9431 1.03051 0.65347 0.0
C1194 C 0.03816 0.95589 0.66773 0.0
C1195 C 0.05757 0.98577 0.66005 0.0
C1196 C 0.01507 0.97505 0.66621 0.0
C1197 C 0.01072 1.02431 0.65653 0.0
C1198 C 0.03024 0.05423 0.6487 0.0
C1199 C 0.05353 1.03531 0.6507 0.0
H1200 H 0.4311 0.56662 0.17313 0.0
H1201 H 0.45377 0.41975 0.14347 0.0
H1202 H 0.4719 0.59846 0.17021 0.0
H1203 H 0.4943 0.45177 0.14052 0.0
H1204 H 0.56705 0.50808 0.17152 0.0
H1205 H 0.52624 0.4751 0.16975 0.0
H1206 H 0.50246 0.62038 0.13977 0.0
H1207 H 0.54282 0.65337 0.14162 0.0
C1208 C 0.44465 0.54143 0.16569 0.0
C1209 C 0.4392 0.49059 0.15872 0.0
C1210 C 0.468 0.55963 0.16401 0.0
C1211 C 0.48627 0.5273 0.15534 0.0
C1212 C 0.48065 0.47714 0.14765 0.0
C1213 C 0.45737 0.45902 0.14924 0.0
C1214 C 0.55314 0.53263 0.16429 0.0
C1215 C 0.55812 0.58341 0.15696 0.0
C1216 C 0.52982 0.51381 0.16325 0.0
C1217 C 0.51119 0.54552 0.15487 0.0
C1218 C 0.51639 0.59551 0.14673 0.0
C1219 C 0.53958 0.61422 0.14773 0.0
H1220 H 0.45485 0.64642 0.43859 0.0
H1221 H 0.42963 0.50785 0.4031 0.0
H1222 H 0.49522 0.6127 0.43795 0.0
H1223 H 0.47031 0.47424 0.40237 0.0
H1224 H 0.54331 0.41388 0.42569 0.0
H1225 H 0.50273 0.44508 0.42972 0.0
H1226 H 0.52481 0.59636 0.40547 0.0
H1227 H 0.56574 0.56539 0.40162 0.0
C1228 C 0.45788 0.60855 0.43079 0.0
C1229 C 0.4391 0.57989 0.42068 0.0
C1230 C 0.48104 0.58948 0.43032 0.0
C1231 C 0.48588 0.54132 0.41981 0.0
C1232 C 0.46699 0.51152 0.41065 0.0
C1233 C 0.44374 0.53068 0.41108 0.0
C1234 C 0.53961 0.4539 0.42123 0.0
C1235 C 0.55775 0.48724 0.41326 0.0
C1236 C 0.51631 0.47156 0.42346 0.0
C1237 C 0.51067 0.52295 0.41786 0.0
C1238 C 0.52879 0.55657 0.41013 0.0
C1239 C 0.55216 0.53885 0.40781 0.0
H1240 H 0.45183 0.42889 0.93893 0.0
H1241 H 0.43016 0.57351 0.90641 0.0
H1242 H 0.49289 0.45821 0.93954 0.0
H1243 H 0.47151 0.60265 0.90702 0.0
H1244 H 0.54466 0.65473 0.93229 0.0
H1245 H 0.50378 0.62571 0.93584 0.0
H1246 H 0.52387 0.47561 0.90828 0.0
H1247 H 0.56518 0.5045 0.90473 0.0
C1248 C 0.45575 0.46714 0.93207 0.0
C1249 C 0.43768 0.49878 0.92245 0.0
C1250 C 0.47934 0.48369 0.9323 0.0
C1251 C 0.4854 0.53237 0.9231 0.0
C1252 C 0.46728 0.56494 0.91433 0.0
C1253 C 0.44362 0.54826 0.91398 0.0
C1254 C 0.54052 0.61537 0.92705 0.0
C1255 C 0.55823 0.58198 0.91802 0.0
C1256 C 0.51701 0.59894 0.92901 0.0
C1257 C 0.51063 0.54867 0.92214 0.0
C1258 C 0.52837 0.51458 0.91383 0.0
C1259 C 0.55199 0.53112 0.91175 0.0
H1260 H 0.4534 0.65227 0.64442 0.0
H1261 H 0.43223 0.50353 0.67292 0.0
H1262 H 0.49405 0.6216 0.64045 0.0
H1263 H 0.47324 0.47302 0.66898 0.0
H1264 H 0.54447 0.42189 0.63881 0.0
H1265 H 0.50374 0.45341 0.63767 0.0
H1266 H 0.52647 0.59818 0.669 0.0
H1267 H 0.5675 0.5668 0.67014 0.0
C1268 C 0.45734 0.61289 0.64976 0.0
C1269 C 0.43953 0.5804 0.65918 0.0
C1270 C 0.48071 0.59551 0.64755 0.0
C1271 C 0.48683 0.54518 0.65457 0.0
C1272 C 0.46895 0.512 0.66327 0.0
C1273 C 0.4455 0.52948 0.66559 0.0
C1274 C 0.54092 0.46067 0.64529 0.0
C1275 C 0.55924 0.4917 0.65481 0.0
C1276 C 0.51752 0.47851 0.64473 0.0
C1277 C 0.51192 0.52788 0.65352 0.0
C1278 C 0.53034 0.55994 0.66202 0.0
C1279 C 0.55382 0.54199 0.66268 0.0
H1280 H 0.1542 0.77853 0.12736 0.0
H1281 H 0.11987 0.77725 0.19677 0.0
H1282 H 0.15137 0.68438 0.12548 0.0
H1283 H 0.1163 0.68334 0.19453 0.0
H1284 H 0.13617 0.51262 0.19501 0.0
H1285 H 0.14113 0.60632 0.19622 0.0
H1286 H 0.12233 0.6154 0.12108 0.0
H1287 H 0.11821 0.52149 0.11965 0.0
C1288 C 0.146 0.7582 0.1422 0.0
C1289 C 0.13729 0.78557 0.16223 0.0
C1290 C 0.14418 0.70421 0.14103 0.0
C1291 C 0.13369 0.67615 0.15989 0.0
C1292 C 0.12479 0.70358 0.17981 0.0
C1293 C 0.12653 0.75756 0.18095 0.0
C1294 C 0.1335 0.53446 0.17863 0.0
C1295 C 0.12676 0.50939 0.15724 0.0
C1296 C 0.13602 0.58833 0.17941 0.0
C1297 C 0.13192 0.61857 0.1588 0.0
C1298 C 0.12576 0.59338 0.13726 0.0
C1299 C 0.12318 0.53952 0.1365 0.0
H1300 H 0.87935 0.2903 0.13535 0.0
H1301 H 0.84797 0.30619 0.20582 0.0
H1302 H 0.88259 0.38425 0.13238 0.0
H1303 H 0.85202 0.39988 0.20321 0.0
H1304 H 0.83999 0.56789 0.18003 0.0
H1305 H 0.83557 0.474 0.18185 0.0
H1306 H 0.90507 0.4554 0.14982 0.0
H1307 H 0.90956 0.54897 0.14812 0.0
C1308 C 0.87315 0.31379 0.15021 0.0
C1309 C 0.86345 0.29056 0.17084 0.0
C1310 C 0.87521 0.36766 0.14861 0.0
C1311 C 0.86757 0.39971 0.16756 0.0
C1312 C 0.85785 0.37647 0.18817 0.0
C1313 C 0.85583 0.32263 0.18979 0.0
C1314 C 0.85437 0.54379 0.17348 0.0
C1315 C 0.8751 0.56617 0.16387 0.0
C1316 C 0.85184 0.48992 0.17453 0.0
C1317 C 0.86997 0.45707 0.16598 0.0
C1318 C 0.89059 0.47946 0.15621 0.0
C1319 C 0.89314 0.53324 0.1552 0.0
H1320 H 0.1225 0.29556 0.44182 0.0
H1321 H 0.15106 0.3107 0.37013 0.0
H1322 H 0.11939 0.3896 0.44485 0.0
H1323 H 0.14717 0.40443 0.37284 0.0
H1324 H 0.16014 0.57239 0.39534 0.0
H1325 H 0.16458 0.47847 0.39369 0.0
H1326 H 0.09612 0.46058 0.42795 0.0
H1327 H 0.09158 0.5542 0.42945 0.0
C1328 C 0.12811 0.31891 0.42671 0.0
C1329 C 0.13697 0.29549 0.40571 0.0
C1330 C 0.12613 0.37281 0.42836 0.0
C1331 C 0.13304 0.40461 0.40908 0.0
C1332 C 0.14193 0.38117 0.38812 0.0
C1333 C 0.14386 0.32733 0.38645 0.0
C1334 C 0.14599 0.54844 0.40243 0.0
C1335 C 0.12553 0.57101 0.41257 0.0
C1336 C 0.14853 0.49457 0.40148 0.0
C1337 C 0.13069 0.46194 0.41068 0.0
C1338 C 0.11037 0.48452 0.42104 0.0
C1339 C 0.1078 0.53831 0.42194 0.0
H1340 H 0.85625 0.51566 0.37964 0.0
H1341 H 0.88604 0.5323 0.45081 0.0
H1342 H 0.84997 0.60877 0.37764 0.0
H1343 H 0.88058 0.62592 0.44841 0.0
H1344 H 0.84733 0.78933 0.44318 0.0
H1345 H 0.85119 0.69545 0.44725 0.0
H1346 H 0.87434 0.68511 0.37341 0.0
H1347 H 0.87047 0.77845 0.36936 0.0
C1348 C 0.86122 0.53906 0.395 0.0
C1349 C 0.8717 0.51628 0.41538 0.0
C1350 C 0.85793 0.59266 0.3937 0.0
C1351 C 0.86501 0.62508 0.41274 0.0
C1352 C 0.87481 0.60221 0.43345 0.0
C1353 C 0.87815 0.54852 0.43473 0.0
C1354 C 0.85344 0.76703 0.42789 0.0
C1355 C 0.85841 0.79152 0.40589 0.0
C1356 C 0.85563 0.71317 0.43021 0.0
C1357 C 0.86286 0.68251 0.41059 0.0
C1358 C 0.86819 0.70722 0.38875 0.0
C1359 C 0.866 0.76088 0.38643 0.0
H1360 H 0.84567 0.29685 0.8718 0.0
H1361 H 0.88474 0.28313 0.93838 0.0
H1362 H 0.85076 0.39054 0.87293 0.0
H1363 H 0.88905 0.37694 0.93997 0.0
H1364 H 0.91481 0.54 0.92143 0.0
H1365 H 0.90979 0.44655 0.91993 0.0
H1366 H 0.83755 0.46669 0.89497 0.0
H1367 H 0.84254 0.56054 0.89655 0.0
C1368 C 0.85544 0.31374 0.88664 0.0
C1369 C 0.86487 0.28223 0.90495 0.0
C1370 C 0.85809 0.36761 0.88745 0.0
C1371 C 0.87028 0.39148 0.90656 0.0
C1372 C 0.87976 0.35996 0.92484 0.0
C1373 C 0.87708 0.30611 0.92405 0.0
C1374 C 0.89772 0.52465 0.9159 0.0
C1375 C 0.87903 0.55805 0.90926 0.0
C1376 C 0.89486 0.47091 0.91501 0.0
C1377 C 0.87324 0.4489 0.90741 0.0
C1378 C 0.85456 0.48222 0.90063 0.0
C1379 C 0.85741 0.5361 0.90154 0.0
H1380 H 0.15679 0.51312 0.8986 0.0
H1381 H 0.08255 0.53441 0.91633 0.0
H1382 H 0.16197 0.60685 0.89704 0.0
H1383 H 0.08797 0.62775 0.91584 0.0
H1384 H 0.09921 0.79195 0.88824 0.0
H1385 H 0.09451 0.69818 0.88857 0.0
H1386 H 0.16331 0.68233 0.92256 0.0
H1387 H 0.16845 0.77589 0.92127 0.0
C1388 C 0.14158 0.5377 0.90219 0.0
C1389 C 0.11927 0.51598 0.90766 0.0
C1390 C 0.1446 0.59153 0.90156 0.0
C1391 C 0.12539 0.62507 0.90633 0.0
C1392 C 0.10311 0.60328 0.91179 0.0
C1393 C 0.10009 0.54957 0.91241 0.0
C1394 C 0.11344 0.76848 0.89559 0.0
C1395 C 0.13419 0.79171 0.90476 0.0
C1396 C 0.11063 0.71464 0.89603 0.0
C1397 C 0.1285 0.68248 0.90566 0.0
C1398 C 0.14927 0.70571 0.91479 0.0
C1399 C 0.15208 0.75954 0.91434 0.0
H1400 H 0.8383 0.77585 0.63272 0.0
H1401 H 0.87142 0.76845 0.70269 0.0
H1402 H 0.84075 0.68153 0.62942 0.0
H1403 H 0.87435 0.67466 0.69918 0.0
H1404 H 0.85464 0.50498 0.69667 0.0
H1405 H 0.84843 0.59826 0.69872 0.0
H1406 H 0.87135 0.61297 0.625 0.0
H1407 H 0.87696 0.51929 0.62272 0.0
C1408 C 0.84607 0.75411 0.6474 0.0
C1409 C 0.85473 0.77971 0.66794 0.0
C1410 C 0.84764 0.70013 0.64543 0.0
C1411 C 0.85768 0.67052 0.66406 0.0
C1412 C 0.86625 0.69619 0.68461 0.0
C1413 C 0.86484 0.75005 0.6865 0.0
C1414 C 0.85792 0.52792 0.68073 0.0
C1415 C 0.86634 0.50458 0.65953 0.0
C1416 C 0.85464 0.58151 0.68201 0.0
C1417 C 0.8596 0.61316 0.6621 0.0
C1418 C 0.86726 0.5897 0.64063 0.0
C1419 C 0.87066 0.53606 0.63939 0.0
H1420 H 0.1547 0.29158 0.63384 0.0
H1421 H 0.1131 0.29076 0.69908 0.0
H1422 H 0.15137 0.38561 0.63201 0.0
H1423 H 0.1098 0.38476 0.69726 0.0
H1424 H 0.12903 0.5558 0.70066 0.0
H1425 H 0.13396 0.46205 0.70186 0.0
H1426 H 0.12275 0.45455 0.62514 0.0
H1427 H 0.11862 0.5485 0.62384 0.0
C1428 C 0.14459 0.31134 0.64764 0.0
C1429 C 0.13418 0.28342 0.66662 0.0
C1430 C 0.14272 0.36536 0.64662 0.0
C1431 C 0.13042 0.39293 0.66455 0.0
C1432 C 0.11981 0.36496 0.68339 0.0
C1433 C 0.12166 0.31097 0.6844 0.0
C1434 C 0.128 0.53428 0.68398 0.0
C1435 C 0.1234 0.55982 0.66216 0.0
C1436 C 0.13051 0.48038 0.68471 0.0
C1437 C 0.12857 0.45056 0.66362 0.0
C1438 C 0.1245 0.47622 0.64172 0.0
C1439 C 0.12192 0.5301 0.641 0.0
H1440 H 0.65755 1.00861 0.17368 0.0
H1441 H 0.58422 1.03006 0.15239 0.0
H1442 H 0.66281 0.1024 0.17518 0.0
H1443 H 0.58949 0.12344 0.15382 0.0
H1444 H 0.61349 0.28743 0.13555 0.0
H1445 H 0.60947 0.19356 0.13317 0.0
H1446 H 0.65048 0.17758 0.19843 0.0
H1447 H 0.65527 0.27123 0.20031 0.0
C1448 C 0.64252 1.03325 0.16944 0.0
C1449 C 0.6205 1.01162 0.16279 0.0
C1450 C 0.64553 0.08706 0.1703 0.0
C1451 C 0.62659 0.12058 0.16454 0.0
C1452 C 0.60459 0.09889 0.15793 0.0
C1453 C 0.60158 0.04522 0.15709 0.0
C1454 C 0.62184 0.26389 0.14928 0.0
C1455 C 0.63465 0.28704 0.16816 0.0
C1456 C 0.61932 0.21004 0.14805 0.0
C1457 C 0.62961 0.1779 0.16564 0.0
C1458 C 0.64252 0.20104 0.18444 0.0
C1459 C 0.645 0.25486 0.1857 0.0
H1460 H 0.37437 0.80065 0.20781 0.0
H1461 H 0.34027 0.79514 0.13828 0.0
H1462 H 0.37797 0.89433 0.2045 0.0
H1463 H 0.34334 0.88934 0.13523 0.0
H1464 H 0.37948 0.05077 0.12815 0.0
H1465 H 0.37374 0.95721 0.13039 0.0
H1466 H 0.35304 0.97184 0.2048 0.0
H1467 H 0.35944 0.06501 0.20278 0.0
C1468 C 0.36772 0.81941 0.19176 0.0
C1469 C 0.35712 0.79026 0.17327 0.0
C1470 C 0.36951 0.87326 0.18999 0.0
C1471 C 0.36084 0.89949 0.16965 0.0
C1472 C 0.35033 0.87037 0.15108 0.0
C1473 C 0.3484 0.81643 0.15292 0.0
C1474 C 0.37369 1.03402 0.14499 0.0
C1475 C 0.37002 0.06552 0.16531 0.0
C1476 C 0.3702 0.98041 0.14621 0.0
C1477 C 0.36308 0.95689 0.16782 0.0
C1478 C 0.35884 0.98855 0.18796 0.0
C1479 C 0.36222 0.04213 0.18671 0.0
H1480 H 0.64554 0.06547 0.37978 0.0
H1481 H 0.61673 0.05341 0.45148 0.0
H1482 H 0.65183 0.97211 0.3789 0.0
H1483 H 0.62238 0.95972 0.45031 0.0
H1484 H 0.65619 0.79744 0.44773 0.0
H1485 H 0.65289 0.8917 0.44969 0.0
H1486 H 0.62734 0.89427 0.37649 0.0
H1487 H 0.63121 0.80039 0.37434 0.0
C1488 C 0.64078 0.04303 0.39548 0.0
C1489 C 0.6306 0.06713 0.41571 0.0
C1490 C 0.64411 0.98933 0.39485 0.0
C1491 C 0.63744 0.95822 0.41445 0.0
C1492 C 0.62785 0.98244 0.43493 0.0
C1493 C 0.62442 1.03616 0.43553 0.0
C1494 C 0.65003 0.81818 0.432 0.0
C1495 C 0.64392 0.79123 0.41089 0.0
C1496 C 0.64794 0.8722 0.4332 0.0
C1497 C 0.63988 0.9007 0.41325 0.0
C1498 C 0.63387 0.87372 0.39212 0.0
C1499 C 0.63581 0.81975 0.39098 0.0
H1500 H 0.34419 1.01155 0.42221 0.0
H1501 H 0.41573 1.0281 0.39486 0.0
H1502 H 0.33938 0.10545 0.42163 0.0
H1503 H 0.41087 0.12171 0.39417 0.0
H1504 H 0.38494 0.2833 0.37238 0.0
H1505 H 0.38953 0.18946 0.3731 0.0
H1506 H 0.3534 0.18376 0.44152 0.0
H1507 H 0.3481 0.27747 0.4404 0.0
C1508 C 0.35895 1.03513 0.41621 0.0
C1509 C 0.38032 1.01196 0.40849 0.0
C1510 C 0.3562 0.08907 0.41589 0.0
C1511 C 0.37472 0.12133 0.40781 0.0
C1512 C 0.39607 0.09815 0.40011 0.0
C1513 C 0.39884 0.04431 0.40047 0.0
C1514 C 0.37784 0.26205 0.38752 0.0
C1515 C 0.36613 0.28813 0.40632 0.0
C1516 C 0.38069 0.20819 0.38806 0.0
C1517 C 0.37183 0.17884 0.40737 0.0
C1518 C 0.36022 0.20495 0.42623 0.0
C1519 C 0.35746 0.25885 0.42574 0.0
H1520 H 0.38345 0.80646 0.88136 0.0
H1521 H 0.32726 0.80748 0.93426 0.0
H1522 H 0.38707 0.90024 0.88494 0.0
H1523 H 0.33057 0.90161 0.93751 0.0
H1524 H 0.3639 0.06199 0.95529 0.0
H1525 H 0.35883 0.96827 0.95219 0.0
H1526 H 0.36404 0.97867 0.87495 0.0
H1527 H 0.36961 0.07208 0.87807 0.0
C1528 C 0.37195 0.82667 0.89386 0.0
C1529 C 0.3551 0.79939 0.90757 0.0
C1530 C 0.37383 0.88053 0.8957 0.0
C1531 C 0.35903 0.90851 0.91143 0.0
C1532 C 0.34233 0.88122 0.92532 0.0
C1533 C 0.34031 0.82734 0.92333 0.0
C1534 C 0.36394 0.04425 0.93765 0.0
C1535 C 0.3672 0.07459 0.91694 0.0
C1536 C 0.36085 0.99059 0.93586 0.0
C1537 C 0.36115 0.9659 0.91333 0.0
C1538 C 0.364 0.99636 0.8926 0.0
C1539 C 0.36691 0.05002 0.89437 0.0
H1540 H 0.62213 0.26653 0.87431 0.0
H1541 H 0.66264 0.27304 0.94023 0.0
H1542 H 0.61923 0.17274 0.87805 0.0
H1543 H 0.6601 0.17878 0.94375 0.0
H1544 H 0.62434 1.01689 0.9538 0.0
H1545 H 0.62953 0.11066 0.95118 0.0
H1546 H 0.64561 0.0963 0.87561 0.0
H1547 H 0.63992 1.00291 0.87809 0.0
C1548 C 0.63032 0.24794 0.88967 0.0
C1549 C 0.64255 0.27728 0.90701 0.0
C1550 C 0.6289 0.19412 0.89167 0.0
C1551 C 0.63955 0.16826 0.91113 0.0
C1552 C 0.65162 0.19758 0.92861 0.0
C1553 C 0.65322 0.25149 0.9265 0.0
C1554 C 0.62907 1.03378 0.93666 0.0
C1555 C 0.63167 1.0024 0.91615 0.0
C1556 C 0.63221 0.08743 0.9352 0.0
C1557 C 0.63782 0.11096 0.91315 0.0
C1558 C 0.641 0.07943 0.89279 0.0
C1559 C 0.63803 1.02582 0.89428 0.0
H1560 H 0.33202 0.99982 0.66896 0.0
H1561 H 0.40645 1.02565 0.65355 0.0
H1562 H 0.32571 0.09318 0.67138 0.0
H1563 H 0.4001 0.1186 0.65584 0.0
H1564 H 0.37734 0.28441 0.64166 0.0
H1565 H 0.38113 0.19113 0.63596 0.0
H1566 H 0.33588 0.16521 0.69749 0.0
H1567 H 0.3313 0.25831 0.70259 0.0
C1568 C 0.34704 1.02531 0.66611 0.0
C1569 C 0.36974 1.00499 0.661 0.0
C1570 C 0.34342 0.07889 0.6675 0.0
C1571 C 0.36239 0.11353 0.6638 0.0
C1572 C 0.38499 0.0932 0.65837 0.0
C1573 C 0.38861 0.03973 0.65702 0.0
C1574 C 0.36791 0.25885 0.65376 0.0
C1575 C 0.35409 0.27903 0.67265 0.0
C1576 C 0.3703 0.2053 0.65066 0.0
C1577 C 0.3589 0.17053 0.66633 0.0
C1578 C 0.34474 0.19073 0.68494 0.0
C1579 C 0.34236 0.24423 0.68805 0.0
H1580 H 0.61453 0.79597 0.69613 0.0
H1581 H 0.66698 0.79812 0.63945 0.0
H1582 H 0.61049 0.88977 0.69322 0.0
H1583 H 0.66321 0.89232 0.63682 0.0
H1584 H 0.62819 0.05318 0.62248 0.0
H1585 H 0.6336 0.95934 0.62457 0.0
H1586 H 0.63442 0.96786 0.70205 0.0
H1587 H 0.6286 0.06134 0.69998 0.0
C1588 C 0.62511 0.81643 0.68294 0.0
C1589 C 0.64104 0.78947 0.66798 0.0
C1590 C 0.62299 0.8703 0.68146 0.0
C1591 C 0.63661 0.89862 0.66487 0.0
C1592 C 0.65237 0.87165 0.6497 0.0
C1593 C 0.65465 0.81773 0.65134 0.0
C1594 C 0.62956 1.03499 0.63995 0.0
C1595 C 0.62794 0.06482 0.66106 0.0
C1596 C 0.63283 0.98128 0.64114 0.0
C1597 C 0.63432 0.95604 0.66348 0.0
C1598 C 0.63307 0.98599 0.68456 0.0
C1599 C 0.63001 0.03968 0.68337 0.0
loop_
_geom_bond_atom_site_label_1
_geom_bond_atom_site_label_2
_geom_bond_distance
_geom_bond_site_symmetry_2
_ccdc_geom_bond_type
La0 C2 2.928 1_545 S
La0 O20 2.521 1_545 S
La0 O21 2.628 1_545 S
La0 O22 2.554 . S
La0 O23 2.757 . S
La0 O24 2.470 . S
La0 O29 2.482 . S
La0 O31 2.503 . S
La1 C11 2.928 . S
La1 O23 2.482 . S
La1 O25 2.503 . S
La1 O26 2.521 . S
La1 O27 2.628 . S
La1 O28 2.554 . S
La1 O29 2.757 . S
La1 O30 2.470 . S
C2 La0 2.928 1_565 S
C2 C3 1.503 . S
C2 O20 1.261 . S
C2 O21 1.243 . S
C3 C2 1.503 . S
C3 C4 1.394 . S
C3 C8 1.373 . S
C4 C3 1.394 . S
C4 C5 1.380 . S
C4 H32 0.930 . S
C5 C4 1.380 . S
C5 C6 1.376 . S
C5 H33 0.930 . S
C6 C5 1.376 . S
C6 C7 1.370 . S
C7 C6 1.370 . S
C7 C8 1.396 . S
C7 H34 0.929 . S
C8 C3 1.373 . S
C8 C7 1.396 . S
C8 H35 0.929 . S
C9 O22 1.240 . S
C9 O23 1.289 . S
C10 O24 1.258 . S
C10 O25 1.256 . S
C11 La1 2.928 . S
C11 C12 1.503 . S
C11 O26 1.261 . S
C11 O27 1.243 . S
C12 C11 1.503 . S
C12 C13 1.394 . S
C12 C17 1.373 . S
C13 C12 1.394 . S
C13 C14 1.380 . S
C13 H36 0.930 . S
C14 C13 1.380 . S
C14 C15 1.376 . S
C14 H37 0.930 . S
C15 C14 1.376 . S
C15 C16 1.370 . S
C16 C15 1.370 . S
C16 C17 1.396 . S
C16 H38 0.929 . S
C17 C12 1.373 . S
C17 C16 1.396 . S
C17 H39 0.929 . S
C18 O28 1.240 . S
C18 O29 1.289 . S
C19 O30 1.258 . S
C19 O31 1.256 . S
O20 La0 2.521 1_565 S
O20 C2 1.261 . S
O21 La0 2.628 1_565 S
O21 C2 1.243 . S
O22 La0 2.554 . S
O22 C9 1.240 . S
O23 La0 2.757 . S
O23 La1 2.482 . S
O23 C9 1.289 . S
O24 La0 2.470 . S
O24 C10 1.258 . S
O25 La1 2.503 . S
O25 C10 1.256 . S
O26 La1 2.521 . S
O26 C11 1.261 . S
O27 La1 2.628 . S
O27 C11 1.243 . S
O28 La1 2.554 . S
O28 C18 1.240 . S
O29 La0 2.482 . S
O29 La1 2.757 . S
O29 C18 1.289 . S
O30 La1 2.470 . S
O30 C19 1.258 . S
O31 La0 2.503 . S
O31 C19 1.256 . S
H32 C4 0.930 . S
H33 C5 0.930 . S
H34 C7 0.929 . S
H35 C8 0.929 . S
H36 C13 0.930 . S
H37 C14 0.930 . S
H38 C16 0.929 . S
H39 C17 0.929 . S
La40 C42 2.928 1_565 S
La40 O60 2.521 1_565 S
La40 O61 2.628 1_565 S
La40 O62 2.554 . S
La40 O63 2.757 . S
La40 O64 2.470 . S
La40 O69 2.482 . S
La40 O71 2.503 . S
La41 C51 2.928 . S
La41 O63 2.482 . S
La41 O65 2.503 . S
La41 O66 2.521 . S
La41 O67 2.628 . S
La41 O68 2.554 . S
La41 O69 2.757 . S
La41 O70 2.470 . S
C42 La40 2.928 1_545 S
C42 C43 1.503 . S
C42 O60 1.261 . S
C42 O61 1.243 . S
C43 C42 1.503 . S
C43 C44 1.394 . S
C43 C48 1.373 . S
C44 C43 1.394 . S
C44 C45 1.380 . S
C44 H72 0.930 . S
C45 C44 1.380 . S
C45 C46 1.376 . S
C45 H73 0.930 . S
C46 C45 1.376 . S
C46 C47 1.370 . S
C47 C46 1.370 . S
C47 C48 1.396 . S
C47 H74 0.929 . S
C48 C43 1.373 . S
C48 C47 1.396 . S
C48 H75 0.929 . S
C49 O62 1.240 . S
C49 O63 1.289 . S
C50 O64 1.258 . S
C50 O65 1.256 . S
C51 La41 2.928 . S
C51 C52 1.503 . S
C51 O66 1.261 . S
C51 O67 1.243 . S
C52 C51 1.503 . S
C52 C53 1.394 . S
C52 C57 1.373 . S
C53 C52 1.394 . S
C53 C54 1.380 . S
C53 H76 0.930 . S
C54 C53 1.380 . S
C54 C55 1.376 . S
C54 H77 0.930 . S
C55 C54 1.376 . S
C55 C56 1.370 . S
C56 C55 1.370 . S
C56 C57 1.396 . S
C56 H78 0.929 . S
C57 C52 1.373 . S
C57 C56 1.396 . S
C57 H79 0.929 . S
C58 O68 1.240 . S
C58 O69 1.289 . S
C59 O70 1.258 . S
C59 O71 1.256 . S
O60 La40 2.521 1_545 S
O60 C42 1.261 . S
O61 La40 2.628 1_545 S
O61 C42 1.243 . S
O62 La40 2.554 . S
O62 C49 1.240 . S
O63 La40 2.757 . S
O63 La41 2.482 . S
O63 C49 1.289 . S
O64 La40 2.470 . S
O64 C50 1.258 . S
O65 La41 2.503 . S
O65 C50 1.256 . S
O66 La41 2.521 . S
O66 C51 1.261 . S
O67 La41 2.628 . S
O67 C51 1.243 . S
O68 La41 2.554 . S
O68 C58 1.240 . S
O69 La40 2.482 . S
O69 La41 2.757 . S
O69 C58 1.289 . S
O70 La41 2.470 . S
O70 C59 1.258 . S
O71 La40 2.503 . S
O71 C59 1.256 . S
H72 C44 0.930 . S
H73 C45 0.930 . S
H74 C47 0.929 . S
H75 C48 0.929 . S
H76 C53 0.930 . S
H77 C54 0.930 . S
H78 C56 0.929 . S
H79 C57 0.929 . S
La80 C82 2.928 1_565 S
La80 O100 2.521 1_565 S
La80 O101 2.628 1_565 S
La80 O102 2.554 . S
La80 O103 2.757 . S
La80 O104 2.470 . S
La80 O109 2.482 . S
La80 O111 2.503 . S
La81 C91 2.928 . S
La81 O103 2.482 . S
La81 O105 2.503 . S
La81 O106 2.521 . S
La81 O107 2.628 . S
La81 O108 2.554 . S
La81 O109 2.757 . S
La81 O110 2.470 . S
C82 La80 2.928 1_545 S
C82 C83 1.503 . S
C82 O100 1.261 . S
C82 O101 1.243 . S
C83 C82 1.503 . S
C83 C84 1.394 . S
C83 C88 1.373 . S
C84 C83 1.394 . S
C84 C85 1.380 . S
C84 H112 0.930 . S
C85 C84 1.380 . S
C85 C86 1.376 . S
C85 H113 0.930 . S
C86 C85 1.376 . S
C86 C87 1.370 . S
C87 C86 1.370 . S
C87 C88 1.396 . S
C87 H114 0.929 . S
C88 C83 1.373 . S
C88 C87 1.396 . S
C88 H115 0.929 . S
C89 O102 1.240 . S
C89 O103 1.289 . S
C90 O104 1.258 . S
C90 O105 1.256 . S
C91 La81 2.928 . S
C91 C92 1.503 . S
C91 O106 1.261 . S
C91 O107 1.243 . S
C92 C91 1.503 . S
C92 C93 1.394 . S
C92 C97 1.373 . S
C93 C92 1.394 . S
C93 C94 1.380 . S
C93 H116 0.930 . S
C94 C93 1.380 . S
C94 C95 1.376 . S
C94 H117 0.930 . S
C95 C94 1.376 . S
C95 C96 1.370 . S
C96 C95 1.370 . S
C96 C97 1.396 . S
C96 H118 0.929 . S
C97 C92 1.373 . S
C97 C96 1.396 . S
C97 H119 0.929 . S
C98 O108 1.240 . S
C98 O109 1.289 . S
C99 O110 1.258 . S
C99 O111 1.256 . S
O100 La80 2.521 1_545 S
O100 C82 1.261 . S
O101 La80 2.628 1_545 S
O101 C82 1.243 . S
O102 La80 2.554 . S
O102 C89 1.240 . S
O103 La80 2.757 . S
O103 La81 2.482 . S
O103 C89 1.289 . S
O104 La80 2.470 . S
O104 C90 1.258 . S
O105 La81 2.503 . S
O105 C90 1.256 . S
O106 La81 2.521 . S
O106 C91 1.261 . S
O107 La81 2.628 . S
O107 C91 1.243 . S
O108 La81 2.554 . S
O108 C98 1.240 . S
O109 La80 2.482 . S
O109 La81 2.757 . S
O109 C98 1.289 . S
O110 La81 2.470 . S
O110 C99 1.258 . S
O111 La80 2.503 . S
O111 C99 1.256 . S
H112 C84 0.930 . S
H113 C85 0.930 . S
H114 C87 0.929 . S
H115 C88 0.929 . S
H116 C93 0.930 . S
H117 C94 0.930 . S
H118 C96 0.929 . S
H119 C97 0.929 . S
La120 C122 2.928 1_545 S
La120 O140 2.521 1_545 S
La120 O141 2.628 1_545 S
La120 O142 2.554 . S
La120 O143 2.757 . S
La120 O144 2.470 . S
La120 O149 2.482 . S
La120 O151 2.503 . S
La121 C131 2.928 . S
La121 O143 2.482 . S
La121 O145 2.503 . S
La121 O146 2.521 . S
La121 O147 2.628 . S
La121 O148 2.554 . S
La121 O149 2.757 . S
La121 O150 2.470 . S
C122 La120 2.928 1_565 S
C122 C123 1.503 . S
C122 O140 1.261 . S
C122 O141 1.243 . S
C123 C122 1.503 . S
C123 C124 1.394 . S
C123 C128 1.373 . S
C124 C123 1.394 . S
C124 C125 1.380 . S
C124 H152 0.930 . S
C125 C124 1.380 . S
C125 C126 1.376 . S
C125 H153 0.930 . S
C126 C125 1.376 . S
C126 C127 1.370 . S
C127 C126 1.370 . S
C127 C128 1.396 . S
C127 H154 0.929 . S
C128 C123 1.373 . S
C128 C127 1.396 . S
C128 H155 0.929 . S
C129 O142 1.240 . S
C129 O143 1.289 . S
C130 O144 1.258 . S
C130 O145 1.256 . S
C131 La121 2.928 . S
C131 C132 1.503 . S
C131 O146 1.261 . S
C131 O147 1.243 . S
C132 C131 1.503 . S
C132 C133 1.394 . S
C132 C137 1.373 . S
C133 C132 1.394 . S
C133 C134 1.380 . S
C133 H156 0.930 . S
C134 C133 1.380 . S
C134 C135 1.376 . S
C134 H157 0.930 . S
C135 C134 1.376 . S
C135 C136 1.370 . S
C136 C135 1.370 . S
C136 C137 1.396 . S
C136 H158 0.929 . S
C137 C132 1.373 . S
C137 C136 1.396 . S
C137 H159 0.929 . S
C138 O148 1.240 . S
C138 O149 1.289 . S
C139 O150 1.258 . S
C139 O151 1.256 . S
O140 La120 2.521 1_565 S
O140 C122 1.261 . S
O141 La120 2.628 1_565 S
O141 C122 1.243 . S
O142 La120 2.554 . S
O142 C129 1.240 . S
O143 La120 2.757 . S
O143 La121 2.482 . S
O143 C129 1.289 . S
O144 La120 2.470 . S
O144 C130 1.258 . S
O145 La121 2.503 . S
O145 C130 1.256 . S
O146 La121 2.521 . S
O146 C131 1.261 . S
O147 La121 2.628 . S
O147 C131 1.243 . S
O148 La121 2.554 . S
O148 C138 1.240 . S
O149 La120 2.482 . S
O149 La121 2.757 . S
O149 C138 1.289 . S
O150 La121 2.470 . S
O150 C139 1.258 . S
O151 La120 2.503 . S
O151 C139 1.256 . S
H152 C124 0.930 . S
H153 C125 0.930 . S
H154 C127 0.929 . S
H155 C128 0.929 . S
H156 C133 0.930 . S
H157 C134 0.930 . S
H158 C136 0.929 . S
H159 C137 0.929 . S
La160 C162 2.928 . S
La160 O180 2.521 . S
La160 O181 2.628 . S
La160 O182 2.554 . S
La160 O183 2.757 . S
La160 O184 2.470 . S
La160 O189 2.482 . S
La160 O191 2.503 . S
La161 C171 2.928 1_565 S
La161 O183 2.482 . S
La161 O185 2.503 . S
La161 O186 2.521 1_565 S
La161 O187 2.628 1_565 S
La161 O188 2.554 . S
La161 O189 2.757 . S
La161 O190 2.470 . S
C162 La160 2.928 . S
C162 C163 1.503 . S
C162 O180 1.261 . S
C162 O181 1.243 . S
C163 C162 1.503 . S
C163 C164 1.394 . S
C163 C168 1.373 . S
C164 C163 1.394 . S
C164 C165 1.380 . S
C164 H192 0.930 . S
C165 C164 1.380 . S
C165 C166 1.376 . S
C165 H193 0.930 . S
C166 C165 1.376 . S
C166 C167 1.370 . S
C167 C166 1.370 . S
C167 C168 1.396 . S
C167 H194 0.929 . S
C168 C163 1.373 . S
C168 C167 1.396 . S
C168 H195 0.929 . S
C169 O182 1.240 . S
C169 O183 1.289 . S
C170 O184 1.258 . S
C170 O185 1.256 . S
C171 La161 2.928 1_545 S
C171 C172 1.503 . S
C171 O186 1.261 . S
C171 O187 1.243 . S
C172 C171 1.503 . S
C172 C173 1.394 . S
C172 C177 1.373 . S
C173 C172 1.394 . S
C173 C174 1.380 . S
C173 H196 0.930 . S
C174 C173 1.380 . S
C174 C175 1.376 . S
C174 H197 0.930 . S
C175 C174 1.376 . S
C175 C176 1.370 . S
C176 C175 1.370 . S
C176 C177 1.396 . S
C176 H198 0.929 . S
C177 C172 1.373 . S
C177 C176 1.396 . S
C177 H199 0.929 . S
C178 O188 1.240 . S
C178 O189 1.289 . S
C179 O190 1.258 . S
C179 O191 1.256 . S
O180 La160 2.521 . S
O180 C162 1.261 . S
O181 La160 2.628 . S
O181 C162 1.243 . S
O182 La160 2.554 . S
O182 C169 1.240 . S
O183 La160 2.757 . S
O183 La161 2.482 . S
O183 C169 1.289 . S
O184 La160 2.470 . S
O184 C170 1.258 . S
O185 La161 2.503 . S
O185 C170 1.256 . S
O186 La161 2.521 1_545 S
O186 C171 1.261 . S
O187 La161 2.628 1_545 S
O187 C171 1.243 . S
O188 La161 2.554 . S
O188 C178 1.240 . S
O189 La160 2.482 . S
O189 La161 2.757 . S
O189 C178 1.289 . S
O190 La161 2.470 . S
O190 C179 1.258 . S
O191 La160 2.503 . S
O191 C179 1.256 . S
H192 C164 0.930 . S
H193 C165 0.930 . S
H194 C167 0.929 . S
H195 C168 0.929 . S
H196 C173 0.930 . S
H197 C174 0.930 . S
H198 C176 0.929 . S
H199 C177 0.929 . S
La200 C202 2.928 . S
La200 O220 2.521 . S
La200 O221 2.628 . S
La200 O222 2.554 . S
La200 O223 2.757 . S
La200 O224 2.470 . S
La200 O229 2.482 . S
La200 O231 2.503 . S
La201 C211 2.928 1_545 S
La201 O223 2.482 . S
La201 O225 2.503 . S
La201 O226 2.521 1_545 S
La201 O227 2.628 1_545 S
La201 O228 2.554 . S
La201 O229 2.757 . S
La201 O230 2.470 . S
C202 La200 2.928 . S
C202 C203 1.503 . S
C202 O220 1.261 . S
C202 O221 1.243 . S
C203 C202 1.503 . S
C203 C204 1.394 . S
C203 C208 1.373 . S
C204 C203 1.394 . S
C204 C205 1.380 . S
C204 H232 0.930 . S
C205 C204 1.380 . S
C205 C206 1.376 . S
C205 H233 0.930 . S
C206 C205 1.376 . S
C206 C207 1.370 . S
C207 C206 1.370 . S
C207 C208 1.396 . S
C207 H234 0.929 . S
C208 C203 1.373 . S
C208 C207 1.396 . S
C208 H235 0.929 . S
C209 O222 1.240 . S
C209 O223 1.289 . S
C210 O224 1.258 . S
C210 O225 1.256 . S
C211 La201 2.928 1_565 S
C211 C212 1.503 . S
C211 O226 1.261 . S
C211 O227 1.243 . S
C212 C211 1.503 . S
C212 C213 1.394 . S
C212 C217 1.373 . S
C213 C212 1.394 . S
C213 C214 1.380 . S
C213 H236 0.930 . S
C214 C213 1.380 . S
C214 C215 1.376 . S
C214 H237 0.930 . S
C215 C214 1.376 . S
C215 C216 1.370 . S
C216 C215 1.370 . S
C216 C217 1.396 . S
C216 H238 0.929 . S
C217 C212 1.373 . S
C217 C216 1.396 . S
C217 H239 0.929 . S
C218 O228 1.240 . S
C218 O229 1.289 . S
C219 O230 1.258 . S
C219 O231 1.256 . S
O220 La200 2.521 . S
O220 C202 1.261 . S
O221 La200 2.628 . S
O221 C202 1.243 . S
O222 La200 2.554 . S
O222 C209 1.240 . S
O223 La200 2.757 . S
O223 La201 2.482 . S
O223 C209 1.289 . S
O224 La200 2.470 . S
O224 C210 1.258 . S
O225 La201 2.503 . S
O225 C210 1.256 . S
O226 La201 2.521 1_565 S
O226 C211 1.261 . S
O227 La201 2.628 1_565 S
O227 C211 1.243 . S
O228 La201 2.554 . S
O228 C218 1.240 . S
O229 La200 2.482 . S
O229 La201 2.757 . S
O229 C218 1.289 . S
O230 La201 2.470 . S
O230 C219 1.258 . S
O231 La200 2.503 . S
O231 C219 1.256 . S
H232 C204 0.930 . S
H233 C205 0.930 . S
H234 C207 0.929 . S
H235 C208 0.929 . S
H236 C213 0.930 . S
H237 C214 0.930 . S
H238 C216 0.929 . S
H239 C217 0.929 . S
La240 C242 2.928 . S
La240 O260 2.521 . S
La240 O261 2.628 . S
La240 O262 2.554 . S
La240 O263 2.757 . S
La240 O264 2.470 . S
La240 O269 2.482 . S
La240 O271 2.503 . S
La241 C251 2.928 1_545 S
La241 O263 2.482 . S
La241 O265 2.503 . S
La241 O266 2.521 1_545 S
La241 O267 2.628 1_545 S
La241 O268 2.554 . S
La241 O269 2.757 . S
La241 O270 2.470 . S
C242 La240 2.928 . S
C242 C243 1.503 . S
C242 O260 1.261 . S
C242 O261 1.243 . S
C243 C242 1.503 . S
C243 C244 1.394 . S
C243 C248 1.373 . S
C244 C243 1.394 . S
C244 C245 1.380 . S
C244 H272 0.930 . S
C245 C244 1.380 . S
C245 C246 1.376 . S
C245 H273 0.930 . S
C246 C245 1.376 . S
C246 C247 1.370 . S
C247 C246 1.370 . S
C247 C248 1.396 . S
C247 H274 0.929 . S
C248 C243 1.373 . S
C248 C247 1.396 . S
C248 H275 0.929 . S
C249 O262 1.240 . S
C249 O263 1.289 . S
C250 O264 1.258 . S
C250 O265 1.256 . S
C251 La241 2.928 1_565 S
C251 C252 1.503 . S
C251 O266 1.261 . S
C251 O267 1.243 . S
C252 C251 1.503 . S
C252 C253 1.394 . S
C252 C257 1.373 . S
C253 C252 1.394 . S
C253 C254 1.380 . S
C253 H276 0.930 . S
C254 C253 1.380 . S
C254 C255 1.376 . S
C254 H277 0.930 . S
C255 C254 1.376 . S
C255 C256 1.370 . S
C256 C255 1.370 . S
C256 C257 1.396 . S
C256 H278 0.929 . S
C257 C252 1.373 . S
C257 C256 1.396 . S
C257 H279 0.929 . S
C258 O268 1.240 . S
C258 O269 1.289 . S
C259 O270 1.258 . S
C259 O271 1.256 . S
O260 La240 2.521 . S
O260 C242 1.261 . S
O261 La240 2.628 . S
O261 C242 1.243 . S
O262 La240 2.554 . S
O262 C249 1.240 . S
O263 La240 2.757 . S
O263 La241 2.482 . S
O263 C249 1.289 . S
O264 La240 2.470 . S
O264 C250 1.258 . S
O265 La241 2.503 . S
O265 C250 1.256 . S
O266 La241 2.521 1_565 S
O266 C251 1.261 . S
O267 La241 2.628 1_565 S
O267 C251 1.243 . S
O268 La241 2.554 . S
O268 C258 1.240 . S
O269 La240 2.482 . S
O269 La241 2.757 . S
O269 C258 1.289 . S
O270 La241 2.470 . S
O270 C259 1.258 . S
O271 La240 2.503 . S
O271 C259 1.256 . S
H272 C244 0.930 . S
H273 C245 0.930 . S
H274 C247 0.929 . S
H275 C248 0.929 . S
H276 C253 0.930 . S
H277 C254 0.930 . S
H278 C256 0.929 . S
H279 C257 0.929 . S
La280 C282 2.928 . S
La280 O300 2.521 . S
La280 O301 2.628 . S
La280 O302 2.554 . S
La280 O303 2.757 . S
La280 O304 2.470 . S
La280 O309 2.482 . S
La280 O311 2.503 . S
La281 C291 2.928 1_565 S
La281 O303 2.482 . S
La281 O305 2.503 . S
La281 O306 2.521 1_565 S
La281 O307 2.628 1_565 S
La281 O308 2.554 . S
La281 O309 2.757 . S
La281 O310 2.470 . S
C282 La280 2.928 . S
C282 C283 1.503 . S
C282 O300 1.261 . S
C282 O301 1.243 . S
C283 C282 1.503 . S
C283 C284 1.394 . S
C283 C288 1.373 . S
C284 C283 1.394 . S
C284 C285 1.380 . S
C284 H312 0.930 . S
C285 C284 1.380 . S
C285 C286 1.376 . S
C285 H313 0.930 . S
C286 C285 1.376 . S
C286 C287 1.370 . S
C287 C286 1.370 . S
C287 C288 1.396 . S
C287 H314 0.929 . S
C288 C283 1.373 . S
C288 C287 1.396 . S
C288 H315 0.929 . S
C289 O302 1.240 . S
C289 O303 1.289 . S
C290 O304 1.258 . S
C290 O305 1.256 . S
C291 La281 2.928 1_545 S
C291 C292 1.503 . S
C291 O306 1.261 . S
C291 O307 1.243 . S
C292 C291 1.503 . S
C292 C293 1.394 . S
C292 C297 1.373 . S
C293 C292 1.394 . S
C293 C294 1.380 . S
C293 H316 0.930 . S
C294 C293 1.380 . S
C294 C295 1.376 . S
C294 H317 0.930 . S
C295 C294 1.376 . S
C295 C296 1.370 . S
C296 C295 1.370 . S
C296 C297 1.396 . S
C296 H318 0.929 . S
C297 C292 1.373 . S
C297 C296 1.396 . S
C297 H319 0.929 . S
C298 O308 1.240 . S
C298 O309 1.289 . S
C299 O310 1.258 . S
C299 O311 1.256 . S
O300 La280 2.521 . S
O300 C282 1.261 . S
O301 La280 2.628 . S
O301 C282 1.243 . S
O302 La280 2.554 . S
O302 C289 1.240 . S
O303 La280 2.757 . S
O303 La281 2.482 . S
O303 C289 1.289 . S
O304 La280 2.470 . S
O304 C290 1.258 . S
O305 La281 2.503 . S
O305 C290 1.256 . S
O306 La281 2.521 1_545 S
O306 C291 1.261 . S
O307 La281 2.628 1_545 S
O307 C291 1.243 . S
O308 La281 2.554 . S
O308 C298 1.240 . S
O309 La280 2.482 . S
O309 La281 2.757 . S
O309 C298 1.289 . S
O310 La281 2.470 . S
O310 C299 1.258 . S
O311 La280 2.503 . S
O311 C299 1.256 . S
H312 C284 0.930 . S
H313 C285 0.930 . S
H314 C287 0.929 . S
H315 C288 0.929 . S
H316 C293 0.930 . S
H317 C294 0.930 . S
H318 C296 0.929 . S
H319 C297 0.929 . S
La320 C322 2.928 . S
La320 O340 2.521 . S
La320 O341 2.628 . S
La320 O342 2.554 . S
La320 O343 2.757 . S
La320 O344 2.470 . S
La320 O349 2.482 . S
La320 O351 2.503 . S
La321 C331 2.928 . S
La321 O343 2.482 . S
La321 O345 2.503 . S
La321 O346 2.521 . S
La321 O347 2.628 . S
La321 O348 2.554 . S
La321 O349 2.757 . S
La321 O350 2.470 . S
C322 La320 2.928 . S
C322 C323 1.503 . S
C322 O340 1.261 . S
C322 O341 1.243 . S
C323 C322 1.503 . S
C323 C324 1.394 . S
C323 C328 1.373 . S
C324 C323 1.394 . S
C324 C325 1.380 . S
C324 H352 0.930 . S
C325 C324 1.380 . S
C325 C326 1.376 . S
C325 H353 0.930 . S
C326 C325 1.376 . S
C326 C327 1.370 . S
C327 C326 1.370 . S
C327 C328 1.396 . S
C327 H354 0.929 . S
C328 C323 1.373 . S
C328 C327 1.396 . S
C328 H355 0.929 . S
C329 O342 1.240 . S
C329 O343 1.289 . S
C330 O344 1.258 . S
C330 O345 1.256 . S
C331 La321 2.928 . S
C331 C332 1.503 . S
C331 O346 1.261 . S
C331 O347 1.243 . S
C332 C331 1.503 . S
C332 C333 1.394 . S
C332 C337 1.373 . S
C333 C332 1.394 . S
C333 C334 1.380 . S
C333 H356 0.930 . S
C334 C333 1.380 . S
C334 C335 1.376 . S
C334 H357 0.930 . S
C335 C334 1.376 . S
C335 C336 1.370 . S
C336 C335 1.370 . S
C336 C337 1.396 . S
C336 H358 0.929 . S
C337 C332 1.373 . S
C337 C336 1.396 . S
C337 H359 0.929 . S
C338 O348 1.240 . S
C338 O349 1.289 . S
C339 O350 1.258 . S
C339 O351 1.256 . S
O340 La320 2.521 . S
O340 C322 1.261 . S
O341 La320 2.628 . S
O341 C322 1.243 . S
O342 La320 2.554 . S
O342 C329 1.240 . S
O343 La320 2.757 . S
O343 La321 2.482 . S
O343 C329 1.289 . S
O344 La320 2.470 . S
O344 C330 1.258 . S
O345 La321 2.503 . S
O345 C330 1.256 . S
O346 La321 2.521 . S
O346 C331 1.261 . S
O347 La321 2.628 . S
O347 C331 1.243 . S
O348 La321 2.554 . S
O348 C338 1.240 . S
O349 La320 2.482 . S
O349 La321 2.757 . S
O349 C338 1.289 . S
O350 La321 2.470 . S
O350 C339 1.258 . S
O351 La320 2.503 . S
O351 C339 1.256 . S
H352 C324 0.930 . S
H353 C325 0.930 . S
H354 C327 0.929 . S
H355 C328 0.929 . S
H356 C333 0.930 . S
H357 C334 0.930 . S
H358 C336 0.929 . S
H359 C337 0.929 . S
La360 C362 2.928 . S
La360 O380 2.521 . S
La360 O381 2.628 . S
La360 O382 2.554 . S
La360 O383 2.757 . S
La360 O384 2.470 . S
La360 O389 2.482 . S
La360 O391 2.503 . S
La361 C371 2.928 . S
La361 O383 2.482 . S
La361 O385 2.503 . S
La361 O386 2.521 . S
La361 O387 2.628 . S
La361 O388 2.554 . S
La361 O389 2.757 . S
La361 O390 2.470 . S
C362 La360 2.928 . S
C362 C363 1.503 . S
C362 O380 1.261 . S
C362 O381 1.243 . S
C363 C362 1.503 . S
C363 C364 1.394 . S
C363 C368 1.373 . S
C364 C363 1.394 . S
C364 C365 1.380 . S
C364 H392 0.930 . S
C365 C364 1.380 . S
C365 C366 1.376 . S
C365 H393 0.930 . S
C366 C365 1.376 . S
C366 C367 1.370 . S
C367 C366 1.370 . S
C367 C368 1.396 . S
C367 H394 0.929 . S
C368 C363 1.373 . S
C368 C367 1.396 . S
C368 H395 0.929 . S
C369 O382 1.240 . S
C369 O383 1.289 . S
C370 O384 1.258 . S
C370 O385 1.256 . S
C371 La361 2.928 . S
C371 C372 1.503 . S
C371 O386 1.261 . S
C371 O387 1.243 . S
C372 C371 1.503 . S
C372 C373 1.394 . S
C372 C377 1.373 . S
C373 C372 1.394 . S
C373 C374 1.380 . S
C373 H396 0.930 . S
C374 C373 1.380 . S
C374 C375 1.376 . S
C374 H397 0.930 . S
C375 C374 1.376 . S
C375 C376 1.370 . S
C376 C375 1.370 . S
C376 C377 1.396 . S
C376 H398 0.929 . S
C377 C372 1.373 . S
C377 C376 1.396 . S
C377 H399 0.929 . S
C378 O388 1.240 . S
C378 O389 1.289 . S
C379 O390 1.258 . S
C379 O391 1.256 . S
O380 La360 2.521 . S
O380 C362 1.261 . S
O381 La360 2.628 . S
O381 C362 1.243 . S
O382 La360 2.554 . S
O382 C369 1.240 . S
O383 La360 2.757 . S
O383 La361 2.482 . S
O383 C369 1.289 . S
O384 La360 2.470 . S
O384 C370 1.258 . S
O385 La361 2.503 . S
O385 C370 1.256 . S
O386 La361 2.521 . S
O386 C371 1.261 . S
O387 La361 2.628 . S
O387 C371 1.243 . S
O388 La361 2.554 . S
O388 C378 1.240 . S
O389 La360 2.482 . S
O389 La361 2.757 . S
O389 C378 1.289 . S
O390 La361 2.470 . S
O390 C379 1.258 . S
O391 La360 2.503 . S
O391 C379 1.256 . S
H392 C364 0.930 . S
H393 C365 0.930 . S
H394 C367 0.929 . S
H395 C368 0.929 . S
H396 C373 0.930 . S
H397 C374 0.930 . S
H398 C376 0.929 . S
H399 C377 0.929 . S
La400 C402 2.928 . S
La400 O420 2.521 . S
La400 O421 2.628 . S
La400 O422 2.554 . S
La400 O423 2.757 . S
La400 O424 2.470 . S
La400 O429 2.482 . S
La400 O431 2.503 . S
La401 C411 2.928 . S
La401 O423 2.482 . S
La401 O425 2.503 . S
La401 O426 2.521 . S
La401 O427 2.628 . S
La401 O428 2.554 . S
La401 O429 2.757 . S
La401 O430 2.470 . S
C402 La400 2.928 . S
C402 C403 1.503 . S
C402 O420 1.261 . S
C402 O421 1.243 . S
C403 C402 1.503 . S
C403 C404 1.394 . S
C403 C408 1.373 . S
C404 C403 1.394 . S
C404 C405 1.380 . S
C404 H432 0.930 . S
C405 C404 1.380 . S
C405 C406 1.376 . S
C405 H433 0.930 . S
C406 C405 1.376 . S
C406 C407 1.370 . S
C407 C406 1.370 . S
C407 C408 1.396 . S
C407 H434 0.929 . S
C408 C403 1.373 . S
C408 C407 1.396 . S
C408 H435 0.929 . S
C409 O422 1.240 . S
C409 O423 1.289 . S
C410 O424 1.258 . S
C410 O425 1.256 . S
C411 La401 2.928 . S
C411 C412 1.503 . S
C411 O426 1.261 . S
C411 O427 1.243 . S
C412 C411 1.503 . S
C412 C413 1.394 . S
C412 C417 1.373 . S
C413 C412 1.394 . S
C413 C414 1.380 . S
C413 H436 0.930 . S
C414 C413 1.380 . S
C414 C415 1.376 . S
C414 H437 0.930 . S
C415 C414 1.376 . S
C415 C416 1.370 . S
C416 C415 1.370 . S
C416 C417 1.396 . S
C416 H438 0.929 . S
C417 C412 1.373 . S
C417 C416 1.396 . S
C417 H439 0.929 . S
C418 O428 1.240 . S
C418 O429 1.289 . S
C419 O430 1.258 . S
C419 O431 1.256 . S
O420 La400 2.521 . S
O420 C402 1.261 . S
O421 La400 2.628 . S
O421 C402 1.243 . S
O422 La400 2.554 . S
O422 C409 1.240 . S
O423 La400 2.757 . S
O423 La401 2.482 . S
O423 C409 1.289 . S
O424 La400 2.470 . S
O424 C410 1.258 . S
O425 La401 2.503 . S
O425 C410 1.256 . S
O426 La401 2.521 . S
O426 C411 1.261 . S
O427 La401 2.628 . S
O427 C411 1.243 . S
O428 La401 2.554 . S
O428 C418 1.240 . S
O429 La400 2.482 . S
O429 La401 2.757 . S
O429 C418 1.289 . S
O430 La401 2.470 . S
O430 C419 1.258 . S
O431 La400 2.503 . S
O431 C419 1.256 . S
H432 C404 0.930 . S
H433 C405 0.930 . S
H434 C407 0.929 . S
H435 C408 0.929 . S
H436 C413 0.930 . S
H437 C414 0.930 . S
H438 C416 0.929 . S
H439 C417 0.929 . S
La440 C442 2.928 . S
La440 O460 2.521 . S
La440 O461 2.628 . S
La440 O462 2.554 . S
La440 O463 2.757 . S
La440 O464 2.470 . S
La440 O469 2.482 . S
La440 O471 2.503 . S
La441 C451 2.928 . S
La441 O463 2.482 . S
La441 O465 2.503 . S
La441 O466 2.521 . S
La441 O467 2.628 . S
La441 O468 2.554 . S
La441 O469 2.757 . S
La441 O470 2.470 . S
C442 La440 2.928 . S
C442 C443 1.503 . S
C442 O460 1.261 . S
C442 O461 1.243 . S
C443 C442 1.503 . S
C443 C444 1.394 . S
C443 C448 1.373 . S
C444 C443 1.394 . S
C444 C445 1.380 . S
C444 H472 0.930 . S
C445 C444 1.380 . S
C445 C446 1.376 . S
C445 H473 0.930 . S
C446 C445 1.376 . S
C446 C447 1.370 . S
C447 C446 1.370 . S
C447 C448 1.396 . S
C447 H474 0.929 . S
C448 C443 1.373 . S
C448 C447 1.396 . S
C448 H475 0.929 . S
C449 O462 1.240 . S
C449 O463 1.289 . S
C450 O464 1.258 . S
C450 O465 1.256 . S
C451 La441 2.928 . S
C451 C452 1.503 . S
C451 O466 1.261 . S
C451 O467 1.243 . S
C452 C451 1.503 . S
C452 C453 1.394 . S
C452 C457 1.373 . S
C453 C452 1.394 . S
C453 C454 1.380 . S
C453 H476 0.930 . S
C454 C453 1.380 . S
C454 C455 1.376 . S
C454 H477 0.930 . S
C455 C454 1.376 . S
C455 C456 1.370 . S
C456 C455 1.370 . S
C456 C457 1.396 . S
C456 H478 0.929 . S
C457 C452 1.373 . S
C457 C456 1.396 . S
C457 H479 0.929 . S
C458 O468 1.240 . S
C458 O469 1.289 . S
C459 O470 1.258 . S
C459 O471 1.256 . S
O460 La440 2.521 . S
O460 C442 1.261 . S
O461 La440 2.628 . S
O461 C442 1.243 . S
O462 La440 2.554 . S
O462 C449 1.240 . S
O463 La440 2.757 . S
O463 La441 2.482 . S
O463 C449 1.289 . S
O464 La440 2.470 . S
O464 C450 1.258 . S
O465 La441 2.503 . S
O465 C450 1.256 . S
O466 La441 2.521 . S
O466 C451 1.261 . S
O467 La441 2.628 . S
O467 C451 1.243 . S
O468 La441 2.554 . S
O468 C458 1.240 . S
O469 La440 2.482 . S
O469 La441 2.757 . S
O469 C458 1.289 . S
O470 La441 2.470 . S
O470 C459 1.258 . S
O471 La440 2.503 . S
O471 C459 1.256 . S
H472 C444 0.930 . S
H473 C445 0.930 . S
H474 C447 0.929 . S
H475 C448 0.929 . S
H476 C453 0.930 . S
H477 C454 0.930 . S
H478 C456 0.929 . S
H479 C457 0.929 . S
La480 C482 2.928 . S
La480 O500 2.521 . S
La480 O501 2.628 . S
La480 O502 2.554 . S
La480 O503 2.757 . S
La480 O504 2.470 . S
La480 O509 2.482 . S
La480 O511 2.503 . S
La481 C491 2.928 . S
La481 O503 2.482 . S
La481 O505 2.503 . S
La481 O506 2.521 . S
La481 O507 2.628 . S
La481 O508 2.554 . S
La481 O509 2.757 . S
La481 O510 2.470 . S
C482 La480 2.928 . S
C482 C483 1.503 . S
C482 O500 1.261 . S
C482 O501 1.243 . S
C483 C482 1.503 . S
C483 C484 1.394 . S
C483 C488 1.373 . S
C484 C483 1.394 . S
C484 C485 1.380 . S
C484 H512 0.930 . S
C485 C484 1.380 . S
C485 C486 1.376 . S
C485 H513 0.930 . S
C486 C485 1.376 . S
C486 C487 1.370 . S
C487 C486 1.370 . S
C487 C488 1.396 . S
C487 H514 0.929 . S
C488 C483 1.373 . S
C488 C487 1.396 . S
C488 H515 0.929 . S
C489 O502 1.240 . S
C489 O503 1.289 . S
C490 O504 1.258 . S
C490 O505 1.256 . S
C491 La481 2.928 . S
C491 C492 1.503 . S
C491 O506 1.261 . S
C491 O507 1.243 . S
C492 C491 1.503 . S
C492 C493 1.394 . S
C492 C497 1.373 . S
C493 C492 1.394 . S
C493 C494 1.380 . S
C493 H516 0.930 . S
C494 C493 1.380 . S
C494 C495 1.376 . S
C494 H517 0.930 . S
C495 C494 1.376 . S
C495 C496 1.370 . S
C496 C495 1.370 . S
C496 C497 1.396 . S
C496 H518 0.929 . S
C497 C492 1.373 . S
C497 C496 1.396 . S
C497 H519 0.929 . S
C498 O508 1.240 . S
C498 O509 1.289 . S
C499 O510 1.258 . S
C499 O511 1.256 . S
O500 La480 2.521 . S
O500 C482 1.261 . S
O501 La480 2.628 . S
O501 C482 1.243 . S
O502 La480 2.554 . S
O502 C489 1.240 . S
O503 La480 2.757 . S
O503 La481 2.482 . S
O503 C489 1.289 . S
O504 La480 2.470 . S
O504 C490 1.258 . S
O505 La481 2.503 . S
O505 C490 1.256 . S
O506 La481 2.521 . S
O506 C491 1.261 . S
O507 La481 2.628 . S
O507 C491 1.243 . S
O508 La481 2.554 . S
O508 C498 1.240 . S
O509 La480 2.482 . S
O509 La481 2.757 . S
O509 C498 1.289 . S
O510 La481 2.470 . S
O510 C499 1.258 . S
O511 La480 2.503 . S
O511 C499 1.256 . S
H512 C484 0.930 . S
H513 C485 0.930 . S
H514 C487 0.929 . S
H515 C488 0.929 . S
H516 C493 0.930 . S
H517 C494 0.930 . S
H518 C496 0.929 . S
H519 C497 0.929 . S
La520 C522 2.928 . S
La520 O540 2.521 . S
La520 O541 2.628 . S
La520 O542 2.554 . S
La520 O543 2.757 . S
La520 O544 2.470 . S
La520 O549 2.482 . S
La520 O551 2.503 . S
La521 C531 2.928 . S
La521 O543 2.482 . S
La521 O545 2.503 . S
La521 O546 2.521 . S
La521 O547 2.628 . S
La521 O548 2.554 . S
La521 O549 2.757 . S
La521 O550 2.470 . S
C522 La520 2.928 . S
C522 C523 1.503 . S
C522 O540 1.261 . S
C522 O541 1.243 . S
C523 C522 1.503 . S
C523 C524 1.394 . S
C523 C528 1.373 . S
C524 C523 1.394 . S
C524 C525 1.380 . S
C524 H552 0.930 . S
C525 C524 1.380 . S
C525 C526 1.376 . S
C525 H553 0.930 . S
C526 C525 1.376 . S
C526 C527 1.370 . S
C527 C526 1.370 . S
C527 C528 1.396 . S
C527 H554 0.929 . S
C528 C523 1.373 . S
C528 C527 1.396 . S
C528 H555 0.929 . S
C529 O542 1.240 . S
C529 O543 1.289 . S
C530 O544 1.258 . S
C530 O545 1.256 . S
C531 La521 2.928 . S
C531 C532 1.503 . S
C531 O546 1.261 . S
C531 O547 1.243 . S
C532 C531 1.503 . S
C532 C533 1.394 . S
C532 C537 1.373 . S
C533 C532 1.394 . S
C533 C534 1.380 . S
C533 H556 0.930 . S
C534 C533 1.380 . S
C534 C535 1.376 . S
C534 H557 0.930 . S
C535 C534 1.376 . S
C535 C536 1.370 . S
C536 C535 1.370 . S
C536 C537 1.396 . S
C536 H558 0.929 . S
C537 C532 1.373 . S
C537 C536 1.396 . S
C537 H559 0.929 . S
C538 O548 1.240 . S
C538 O549 1.289 . S
C539 O550 1.258 . S
C539 O551 1.256 . S
O540 La520 2.521 . S
O540 C522 1.261 . S
O541 La520 2.628 . S
O541 C522 1.243 . S
O542 La520 2.554 . S
O542 C529 1.240 . S
O543 La520 2.757 . S
O543 La521 2.482 . S
O543 C529 1.289 . S
O544 La520 2.470 . S
O544 C530 1.258 . S
O545 La521 2.503 . S
O545 C530 1.256 . S
O546 La521 2.521 . S
O546 C531 1.261 . S
O547 La521 2.628 . S
O547 C531 1.243 . S
O548 La521 2.554 . S
O548 C538 1.240 . S
O549 La520 2.482 . S
O549 La521 2.757 . S
O549 C538 1.289 . S
O550 La521 2.470 . S
O550 C539 1.258 . S
O551 La520 2.503 . S
O551 C539 1.256 . S
H552 C524 0.930 . S
H553 C525 0.930 . S
H554 C527 0.929 . S
H555 C528 0.929 . S
H556 C533 0.930 . S
H557 C534 0.930 . S
H558 C536 0.929 . S
H559 C537 0.929 . S
La560 C562 2.928 . S
La560 O580 2.521 . S
La560 O581 2.628 . S
La560 O582 2.554 . S
La560 O583 2.757 . S
La560 O584 2.470 . S
La560 O589 2.482 . S
La560 O591 2.503 . S
La561 C571 2.928 . S
La561 O583 2.482 . S
La561 O585 2.503 . S
La561 O586 2.521 . S
La561 O587 2.628 . S
La561 O588 2.554 . S
La561 O589 2.757 . S
La561 O590 2.470 . S
C562 La560 2.928 . S
C562 C563 1.503 . S
C562 O580 1.261 . S
C562 O581 1.243 . S
C563 C562 1.503 . S
C563 C564 1.394 . S
C563 C568 1.373 . S
C564 C563 1.394 . S
C564 C565 1.380 . S
C564 H592 0.930 . S
C565 C564 1.380 . S
C565 C566 1.376 . S
C565 H593 0.930 . S
C566 C565 1.376 . S
C566 C567 1.370 . S
C567 C566 1.370 . S
C567 C568 1.396 . S
C567 H594 0.929 . S
C568 C563 1.373 . S
C568 C567 1.396 . S
C568 H595 0.929 . S
C569 O582 1.240 . S
C569 O583 1.289 . S
C570 O584 1.258 . S
C570 O585 1.256 . S
C571 La561 2.928 . S
C571 C572 1.503 . S
C571 O586 1.261 . S
C571 O587 1.243 . S
C572 C571 1.503 . S
C572 C573 1.394 . S
C572 C577 1.373 . S
C573 C572 1.394 . S
C573 C574 1.380 . S
C573 H596 0.930 . S
C574 C573 1.380 . S
C574 C575 1.376 . S
C574 H597 0.930 . S
C575 C574 1.376 . S
C575 C576 1.370 . S
C576 C575 1.370 . S
C576 C577 1.396 . S
C576 H598 0.929 . S
C577 C572 1.373 . S
C577 C576 1.396 . S
C577 H599 0.929 . S
C578 O588 1.240 . S
C578 O589 1.289 . S
C579 O590 1.258 . S
C579 O591 1.256 . S
O580 La560 2.521 . S
O580 C562 1.261 . S
O581 La560 2.628 . S
O581 C562 1.243 . S
O582 La560 2.554 . S
O582 C569 1.240 . S
O583 La560 2.757 . S
O583 La561 2.482 . S
O583 C569 1.289 . S
O584 La560 2.470 . S
O584 C570 1.258 . S
O585 La561 2.503 . S
O585 C570 1.256 . S
O586 La561 2.521 . S
O586 C571 1.261 . S
O587 La561 2.628 . S
O587 C571 1.243 . S
O588 La561 2.554 . S
O588 C578 1.240 . S
O589 La560 2.482 . S
O589 La561 2.757 . S
O589 C578 1.289 . S
O590 La561 2.470 . S
O590 C579 1.258 . S
O591 La560 2.503 . S
O591 C579 1.256 . S
H592 C564 0.930 . S
H593 C565 0.930 . S
H594 C567 0.929 . S
H595 C568 0.929 . S
H596 C573 0.930 . S
H597 C574 0.930 . S
H598 C576 0.929 . S
H599 C577 0.929 . S
La600 C602 2.928 . S
La600 O620 2.521 . S
La600 O621 2.628 . S
La600 O622 2.554 . S
La600 O623 2.757 . S
La600 O624 2.470 . S
La600 O629 2.482 . S
La600 O631 2.503 . S
La601 C611 2.928 . S
La601 O623 2.482 . S
La601 O625 2.503 . S
La601 O626 2.521 . S
La601 O627 2.628 . S
La601 O628 2.554 . S
La601 O629 2.757 . S
La601 O630 2.470 . S
C602 La600 2.928 . S
C602 C603 1.503 . S
C602 O620 1.261 . S
C602 O621 1.243 . S
C603 C602 1.503 . S
C603 C604 1.394 . S
C603 C608 1.373 . S
C604 C603 1.394 . S
C604 C605 1.380 . S
C604 H632 0.930 . S
C605 C604 1.380 . S
C605 C606 1.376 . S
C605 H633 0.930 . S
C606 C605 1.376 . S
C606 C607 1.370 . S
C607 C606 1.370 . S
C607 C608 1.396 . S
C607 H634 0.929 . S
C608 C603 1.373 . S
C608 C607 1.396 . S
C608 H635 0.929 . S
C609 O622 1.240 . S
C609 O623 1.289 . S
C610 O624 1.258 . S
C610 O625 1.256 . S
C611 La601 2.928 . S
C611 C612 1.503 . S
C611 O626 1.261 . S
C611 O627 1.243 . S
C612 C611 1.503 . S
C612 C613 1.394 . S
C612 C617 1.373 . S
C613 C612 1.394 . S
C613 C614 1.380 . S
C613 H636 0.930 . S
C614 C613 1.380 . S
C614 C615 1.376 . S
C614 H637 0.930 . S
C615 C614 1.376 . S
C615 C616 1.370 . S
C616 C615 1.370 . S
C616 C617 1.396 . S
C616 H638 0.929 . S
C617 C612 1.373 . S
C617 C616 1.396 . S
C617 H639 0.929 . S
C618 O628 1.240 . S
C618 O629 1.289 . S
C619 O630 1.258 . S
C619 O631 1.256 . S
O620 La600 2.521 . S
O620 C602 1.261 . S
O621 La600 2.628 . S
O621 C602 1.243 . S
O622 La600 2.554 . S
O622 C609 1.240 . S
O623 La600 2.757 . S
O623 La601 2.482 . S
O623 C609 1.289 . S
O624 La600 2.470 . S
O624 C610 1.258 . S
O625 La601 2.503 . S
O625 C610 1.256 . S
O626 La601 2.521 . S
O626 C611 1.261 . S
O627 La601 2.628 . S
O627 C611 1.243 . S
O628 La601 2.554 . S
O628 C618 1.240 . S
O629 La600 2.482 . S
O629 La601 2.757 . S
O629 C618 1.289 . S
O630 La601 2.470 . S
O630 C619 1.258 . S
O631 La600 2.503 . S
O631 C619 1.256 . S
H632 C604 0.930 . S
H633 C605 0.930 . S
H634 C607 0.929 . S
H635 C608 0.929 . S
H636 C613 0.930 . S
H637 C614 0.930 . S
H638 C616 0.929 . S
H639 C617 0.929 . S
H640 C648 0.950 . S
H641 C653 0.950 . S
H642 C650 0.950 . S
H643 C652 0.950 . S
H644 C654 0.950 . S
H645 C656 0.950 . S
H646 C658 0.950 . S
H647 C659 0.950 . S
C648 H640 0.950 . S
C648 C649 1.386 . S
C648 C650 1.391 . S
C649 C648 1.386 . S
C649 C653 1.393 . S
C650 H642 0.950 . S
C650 C648 1.391 . S
C650 C651 1.400 . S
C651 C650 1.400 . S
C651 C652 1.398 . S
C651 C657 1.491 . S
C652 H643 0.950 . S
C652 C651 1.398 . S
C652 C653 1.391 . S
C653 H641 0.950 . S
C653 C649 1.393 . S
C653 C652 1.391 . S
C654 H644 0.950 . S
C654 C655 1.386 . S
C654 C656 1.391 . S
C655 C654 1.386 . S
C655 C659 1.393 . S
C656 H645 0.950 . S
C656 C654 1.391 . S
C656 C657 1.400 . S
C657 C651 1.491 . S
C657 C656 1.400 . S
C657 C658 1.398 . S
C658 H646 0.950 . S
C658 C657 1.398 . S
C658 C659 1.391 . S
C659 H647 0.950 . S
C659 C655 1.393 . S
C659 C658 1.391 . S
H660 C668 0.950 . S
H661 C673 0.950 . S
H662 C670 0.950 . S
H663 C672 0.950 . S
H664 C674 0.950 . S
H665 C676 0.950 . S
H666 C678 0.950 . S
H667 C679 0.950 . S
C668 H660 0.950 . S
C668 C669 1.386 . S
C668 C670 1.391 . S
C669 C668 1.386 . S
C669 C673 1.393 . S
C670 H662 0.950 . S
C670 C668 1.391 . S
C670 C671 1.400 . S
C671 C670 1.400 . S
C671 C672 1.398 . S
C671 C677 1.491 . S
C672 H663 0.950 . S
C672 C671 1.398 . S
C672 C673 1.391 . S
C673 H661 0.950 . S
C673 C669 1.393 . S
C673 C672 1.391 . S
C674 H664 0.950 . S
C674 C675 1.386 . S
C674 C676 1.391 . S
C675 C674 1.386 . S
C675 C679 1.393 . S
C676 H665 0.950 . S
C676 C674 1.391 . S
C676 C677 1.400 . S
C677 C671 1.491 . S
C677 C676 1.400 . S
C677 C678 1.398 . S
C678 H666 0.950 . S
C678 C677 1.398 . S
C678 C679 1.391 . S
C679 H667 0.950 . S
C679 C675 1.393 . S
C679 C678 1.391 . S
H680 C688 0.950 . S
H681 C693 0.950 . S
H682 C690 0.950 . S
H683 C692 0.950 . S
H684 C694 0.950 . S
H685 C696 0.950 . S
H686 C698 0.950 . S
H687 C699 0.950 . S
C688 H680 0.950 . S
C688 C689 1.386 . S
C688 C690 1.391 . S
C689 C688 1.386 . S
C689 C693 1.393 . S
C690 H682 0.950 . S
C690 C688 1.391 . S
C690 C691 1.400 . S
C691 C690 1.400 . S
C691 C692 1.398 . S
C691 C697 1.491 . S
C692 H683 0.950 . S
C692 C691 1.398 . S
C692 C693 1.391 . S
C693 H681 0.950 . S
C693 C689 1.393 . S
C693 C692 1.391 . S
C694 H684 0.950 . S
C694 C695 1.386 . S
C694 C696 1.391 . S
C695 C694 1.386 . S
C695 C699 1.393 . S
C696 H685 0.950 . S
C696 C694 1.391 . S
C696 C697 1.400 . S
C697 C691 1.491 . S
C697 C696 1.400 . S
C697 C698 1.398 . S
C698 H686 0.950 . S
C698 C697 1.398 . S
C698 C699 1.391 . S
C699 H687 0.950 . S
C699 C695 1.393 . S
C699 C698 1.391 . S
H700 C708 0.950 . S
H701 C713 0.950 . S
H702 C710 0.950 . S
H703 C712 0.950 . S
H704 C714 0.950 . S
H705 C716 0.950 . S
H706 C718 0.950 . S
H707 C719 0.950 . S
C708 H700 0.950 . S
C708 C709 1.386 . S
C708 C710 1.391 . S
C709 C708 1.386 . S
C709 C713 1.393 . S
C710 H702 0.950 . S
C710 C708 1.391 . S
C710 C711 1.400 . S
C711 C710 1.400 . S
C711 C712 1.398 . S
C711 C717 1.491 . S
C712 H703 0.950 . S
C712 C711 1.398 . S
C712 C713 1.391 . S
C713 H701 0.950 . S
C713 C709 1.393 . S
C713 C712 1.391 . S
C714 H704 0.950 . S
C714 C715 1.386 . S
C714 C716 1.391 . S
C715 C714 1.386 . S
C715 C719 1.393 . S
C716 H705 0.950 . S
C716 C714 1.391 . S
C716 C717 1.400 . S
C717 C711 1.491 . S
C717 C716 1.400 . S
C717 C718 1.398 . S
C718 H706 0.950 . S
C718 C717 1.398 . S
C718 C719 1.391 . S
C719 H707 0.950 . S
C719 C715 1.393 . S
C719 C718 1.391 . S
H720 C728 0.950 . S
H721 C733 0.950 . S
H722 C730 0.950 . S
H723 C732 0.950 . S
H724 C734 0.950 . S
H725 C736 0.950 . S
H726 C738 0.950 . S
H727 C739 0.950 . S
C728 H720 0.950 . S
C728 C729 1.386 . S
C728 C730 1.391 . S
C729 C728 1.386 . S
C729 C733 1.393 . S
C730 H722 0.950 . S
C730 C728 1.391 . S
C730 C731 1.400 . S
C731 C730 1.400 . S
C731 C732 1.398 . S
C731 C737 1.491 . S
C732 H723 0.950 . S
C732 C731 1.398 . S
C732 C733 1.391 . S
C733 H721 0.950 . S
C733 C729 1.393 . S
C733 C732 1.391 . S
C734 H724 0.950 . S
C734 C735 1.386 . S
C734 C736 1.391 . S
C735 C734 1.386 . S
C735 C739 1.393 . S
C736 H725 0.950 . S
C736 C734 1.391 . S
C736 C737 1.400 . S
C737 C731 1.491 . S
C737 C736 1.400 . S
C737 C738 1.398 . S
C738 H726 0.950 . S
C738 C737 1.398 . S
C738 C739 1.391 . S
C739 H727 0.950 . S
C739 C735 1.393 . S
C739 C738 1.391 . S
H740 C748 0.950 . S
H741 C753 0.950 . S
H742 C750 0.950 . S
H743 C752 0.950 . S
H744 C754 0.950 . S
H745 C756 0.950 . S
H746 C758 0.950 . S
H747 C759 0.950 . S
C748 H740 0.950 . S
C748 C749 1.386 . S
C748 C750 1.391 . S
C749 C748 1.386 . S
C749 C753 1.393 . S
C750 H742 0.950 . S
C750 C748 1.391 . S
C750 C751 1.400 . S
C751 C750 1.400 . S
C751 C752 1.398 . S
C751 C757 1.491 . S
C752 H743 0.950 . S
C752 C751 1.398 . S
C752 C753 1.391 . S
C753 H741 0.950 . S
C753 C749 1.393 . S
C753 C752 1.391 . S
C754 H744 0.950 . S
C754 C755 1.386 . S
C754 C756 1.391 . S
C755 C754 1.386 . S
C755 C759 1.393 . S
C756 H745 0.950 . S
C756 C754 1.391 . S
C756 C757 1.400 . S
C757 C751 1.491 . S
C757 C756 1.400 . S
C757 C758 1.398 . S
C758 H746 0.950 . S
C758 C757 1.398 . S
C758 C759 1.391 . S
C759 H747 0.950 . S
C759 C755 1.393 . S
C759 C758 1.391 . S
H760 C768 0.950 . S
H761 C773 0.950 . S
H762 C770 0.950 . S
H763 C772 0.950 . S
H764 C774 0.950 . S
H765 C776 0.950 . S
H766 C778 0.950 . S
H767 C779 0.950 . S
C768 H760 0.950 . S
C768 C769 1.386 . S
C768 C770 1.391 . S
C769 C768 1.386 . S
C769 C773 1.393 . S
C770 H762 0.950 . S
C770 C768 1.391 . S
C770 C771 1.400 . S
C771 C770 1.400 . S
C771 C772 1.398 . S
C771 C777 1.491 . S
C772 H763 0.950 . S
C772 C771 1.398 . S
C772 C773 1.391 . S
C773 H761 0.950 . S
C773 C769 1.393 . S
C773 C772 1.391 . S
C774 H764 0.950 . S
C774 C775 1.386 . S
C774 C776 1.391 . S
C775 C774 1.386 . S
C775 C779 1.393 . S
C776 H765 0.950 . S
C776 C774 1.391 . S
C776 C777 1.400 . S
C777 C771 1.491 . S
C777 C776 1.400 . S
C777 C778 1.398 . S
C778 H766 0.950 . S
C778 C777 1.398 . S
C778 C779 1.391 . S
C779 H767 0.950 . S
C779 C775 1.393 . S
C779 C778 1.391 . S
H780 C788 0.950 . S
H781 C793 0.950 . S
H782 C790 0.950 . S
H783 C792 0.950 . S
H784 C794 0.950 . S
H785 C796 0.950 . S
H786 C798 0.950 . S
H787 C799 0.950 . S
C788 H780 0.950 . S
C788 C789 1.386 . S
C788 C790 1.391 . S
C789 C788 1.386 . S
C789 C793 1.393 . S
C790 H782 0.950 . S
C790 C788 1.391 . S
C790 C791 1.400 . S
C791 C790 1.400 . S
C791 C792 1.398 . S
C791 C797 1.491 . S
C792 H783 0.950 . S
C792 C791 1.398 . S
C792 C793 1.391 . S
C793 H781 0.950 . S
C793 C789 1.393 . S
C793 C792 1.391 . S
C794 H784 0.950 . S
C794 C795 1.386 . S
C794 C796 1.391 . S
C795 C794 1.386 . S
C795 C799 1.393 . S
C796 H785 0.950 . S
C796 C794 1.391 . S
C796 C797 1.400 . S
C797 C791 1.491 . S
C797 C796 1.400 . S
C797 C798 1.398 . S
C798 H786 0.950 . S
C798 C797 1.398 . S
C798 C799 1.391 . S
C799 H787 0.950 . S
C799 C795 1.393 . S
C799 C798 1.391 . S
H800 C808 0.950 . S
H801 C813 0.950 . S
H802 C810 0.950 1_545 S
H803 C812 0.950 . S
H804 C814 0.950 . S
H805 C816 0.950 1_565 S
H806 C818 0.950 . S
H807 C819 0.950 . S
C808 H800 0.950 . S
C808 C809 1.386 . S
C808 C810 1.391 . S
C809 C808 1.386 . S
C809 C813 1.393 . S
C810 H802 0.950 1_565 S
C810 C808 1.391 . S
C810 C811 1.400 . S
C811 C810 1.400 . S
C811 C812 1.398 . S
C811 C817 1.491 1_565 S
C812 H803 0.950 . S
C812 C811 1.398 . S
C812 C813 1.391 . S
C813 H801 0.950 . S
C813 C809 1.393 . S
C813 C812 1.391 . S
C814 H804 0.950 . S
C814 C815 1.386 . S
C814 C816 1.391 . S
C815 C814 1.386 . S
C815 C819 1.393 . S
C816 H805 0.950 1_545 S
C816 C814 1.391 . S
C816 C817 1.400 . S
C817 C811 1.491 1_545 S
C817 C816 1.400 . S
C817 C818 1.398 . S
C818 H806 0.950 . S
C818 C817 1.398 . S
C818 C819 1.391 . S
C819 H807 0.950 . S
C819 C815 1.393 . S
C819 C818 1.391 . S
H820 C828 0.950 1_565 S
H821 C833 0.950 . S
H822 C830 0.950 . S
H823 C832 0.950 . S
H824 C834 0.950 1_545 S
H825 C836 0.950 . S
H826 C838 0.950 . S
H827 C839 0.950 . S
C828 H820 0.950 1_545 S
C828 C829 1.386 . S
C828 C830 1.391 1_545 S
C829 C828 1.386 . S
C829 C833 1.393 . S
C830 H822 0.950 . S
C830 C828 1.391 1_565 S
C830 C831 1.400 1_565 S
C831 C830 1.400 1_545 S
C831 C832 1.398 . S
C831 C837 1.491 1_545 S
C832 H823 0.950 . S
C832 C831 1.398 . S
C832 C833 1.391 . S
C833 H821 0.950 . S
C833 C829 1.393 . S
C833 C832 1.391 . S
C834 H824 0.950 1_565 S
C834 C835 1.386 . S
C834 C836 1.391 1_565 S
C835 C834 1.386 . S
C835 C839 1.393 . S
C836 H825 0.950 . S
C836 C834 1.391 1_545 S
C836 C837 1.400 1_545 S
C837 C831 1.491 1_565 S
C837 C836 1.400 1_565 S
C837 C838 1.398 . S
C838 H826 0.950 . S
C838 C837 1.398 . S
C838 C839 1.391 . S
C839 H827 0.950 . S
C839 C835 1.393 . S
C839 C838 1.391 . S
H840 C848 0.950 . S
H841 C853 0.950 . S
H842 C850 0.950 . S
H843 C852 0.950 . S
H844 C854 0.950 . S
H845 C856 0.950 . S
H846 C858 0.950 . S
H847 C859 0.950 . S
C848 H840 0.950 . S
C848 C849 1.386 . S
C848 C850 1.391 1_545 S
C849 C848 1.386 . S
C849 C853 1.393 . S
C850 H842 0.950 . S
C850 C848 1.391 1_565 S
C850 C851 1.400 1_565 S
C851 C850 1.400 1_545 S
C851 C852 1.398 . S
C851 C857 1.491 1_545 S
C852 H843 0.950 . S
C852 C851 1.398 . S
C852 C853 1.391 . S
C853 H841 0.950 . S
C853 C849 1.393 . S
C853 C852 1.391 . S
C854 H844 0.950 . S
C854 C855 1.386 . S
C854 C856 1.391 1_565 S
C855 C854 1.386 . S
C855 C859 1.393 . S
C856 H845 0.950 . S
C856 C854 1.391 1_545 S
C856 C857 1.400 1_545 S
C857 C851 1.491 1_565 S
C857 C856 1.400 1_565 S
C857 C858 1.398 . S
C858 H846 0.950 . S
C858 C857 1.398 . S
C858 C859 1.391 . S
C859 H847 0.950 . S
C859 C855 1.393 . S
C859 C858 1.391 . S
H860 C868 0.950 . S
H861 C873 0.950 . S
H862 C870 0.950 1_565 S
H863 C872 0.950 . S
H864 C874 0.950 . S
H865 C876 0.950 1_545 S
H866 C878 0.950 . S
H867 C879 0.950 . S
C868 H860 0.950 . S
C868 C869 1.386 . S
C868 C870 1.391 . S
C869 C868 1.386 . S
C869 C873 1.393 . S
C870 H862 0.950 1_545 S
C870 C868 1.391 . S
C870 C871 1.400 . S
C871 C870 1.400 . S
C871 C872 1.398 . S
C871 C877 1.491 1_545 S
C872 H863 0.950 . S
C872 C871 1.398 . S
C872 C873 1.391 . S
C873 H861 0.950 . S
C873 C869 1.393 . S
C873 C872 1.391 . S
C874 H864 0.950 . S
C874 C875 1.386 . S
C874 C876 1.391 . S
C875 C874 1.386 . S
C875 C879 1.393 . S
C876 H865 0.950 1_565 S
C876 C874 1.391 . S
C876 C877 1.400 . S
C877 C871 1.491 1_565 S
C877 C876 1.400 . S
C877 C878 1.398 . S
C878 H866 0.950 . S
C878 C877 1.398 . S
C878 C879 1.391 . S
C879 H867 0.950 . S
C879 C875 1.393 . S
C879 C878 1.391 . S
H880 C888 0.950 . S
H881 C893 0.950 . S
H882 C890 0.950 . S
H883 C892 0.950 . S
H884 C894 0.950 . S
H885 C896 0.950 . S
H886 C898 0.950 . S
H887 C899 0.950 . S
C888 H880 0.950 . S
C888 C889 1.386 . S
C888 C890 1.391 . S
C889 C888 1.386 . S
C889 C893 1.393 . S
C890 H882 0.950 . S
C890 C888 1.391 . S
C890 C891 1.400 . S
C891 C890 1.400 . S
C891 C892 1.398 . S
C891 C897 1.491 . S
C892 H883 0.950 . S
C892 C891 1.398 . S
C892 C893 1.391 . S
C893 H881 0.950 . S
C893 C889 1.393 . S
C893 C892 1.391 . S
C894 H884 0.950 . S
C894 C895 1.386 . S
C894 C896 1.391 . S
C895 C894 1.386 . S
C895 C899 1.393 . S
C896 H885 0.950 . S
C896 C894 1.391 . S
C896 C897 1.400 . S
C897 C891 1.491 . S
C897 C896 1.400 . S
C897 C898 1.398 . S
C898 H886 0.950 . S
C898 C897 1.398 . S
C898 C899 1.391 . S
C899 H887 0.950 . S
C899 C895 1.393 . S
C899 C898 1.391 . S
H900 C908 0.950 . S
H901 C913 0.950 . S
H902 C910 0.950 . S
H903 C912 0.950 . S
H904 C914 0.950 . S
H905 C916 0.950 . S
H906 C918 0.950 . S
H907 C919 0.950 . S
C908 H900 0.950 . S
C908 C909 1.386 . S
C908 C910 1.391 . S
C909 C908 1.386 . S
C909 C913 1.393 . S
C910 H902 0.950 . S
C910 C908 1.391 . S
C910 C911 1.400 . S
C911 C910 1.400 . S
C911 C912 1.398 . S
C911 C917 1.491 . S
C912 H903 0.950 . S
C912 C911 1.398 . S
C912 C913 1.391 . S
C913 H901 0.950 . S
C913 C909 1.393 . S
C913 C912 1.391 . S
C914 H904 0.950 . S
C914 C915 1.386 . S
C914 C916 1.391 . S
C915 C914 1.386 . S
C915 C919 1.393 . S
C916 H905 0.950 . S
C916 C914 1.391 . S
C916 C917 1.400 . S
C917 C911 1.491 . S
C917 C916 1.400 . S
C917 C918 1.398 . S
C918 H906 0.950 . S
C918 C917 1.398 . S
C918 C919 1.391 . S
C919 H907 0.950 . S
C919 C915 1.393 . S
C919 C918 1.391 . S
H920 C928 0.950 . S
H921 C933 0.950 . S
H922 C930 0.950 . S
H923 C932 0.950 . S
H924 C934 0.950 . S
H925 C936 0.950 . S
H926 C938 0.950 . S
H927 C939 0.950 . S
C928 H920 0.950 . S
C928 C929 1.386 . S
C928 C930 1.391 . S
C929 C928 1.386 . S
C929 C933 1.393 . S
C930 H922 0.950 . S
C930 C928 1.391 . S
C930 C931 1.400 . S
C931 C930 1.400 . S
C931 C932 1.398 . S
C931 C937 1.491 . S
C932 H923 0.950 . S
C932 C931 1.398 . S
C932 C933 1.391 . S
C933 H921 0.950 . S
C933 C929 1.393 . S
C933 C932 1.391 . S
C934 H924 0.950 . S
C934 C935 1.386 . S
C934 C936 1.391 . S
C935 C934 1.386 . S
C935 C939 1.393 . S
C936 H925 0.950 . S
C936 C934 1.391 . S
C936 C937 1.400 . S
C937 C931 1.491 . S
C937 C936 1.400 . S
C937 C938 1.398 . S
C938 H926 0.950 . S
C938 C937 1.398 . S
C938 C939 1.391 . S
C939 H927 0.950 . S
C939 C935 1.393 . S
C939 C938 1.391 . S
H940 C948 0.950 . S
H941 C953 0.950 . S
H942 C950 0.950 . S
H943 C952 0.950 . S
H944 C954 0.950 . S
H945 C956 0.950 . S
H946 C958 0.950 . S
H947 C959 0.950 . S
C948 H940 0.950 . S
C948 C949 1.386 . S
C948 C950 1.391 . S
C949 C948 1.386 . S
C949 C953 1.393 . S
C950 H942 0.950 . S
C950 C948 1.391 . S
C950 C951 1.400 . S
C951 C950 1.400 . S
C951 C952 1.398 . S
C951 C957 1.491 . S
C952 H943 0.950 . S
C952 C951 1.398 . S
C952 C953 1.391 . S
C953 H941 0.950 . S
C953 C949 1.393 . S
C953 C952 1.391 . S
C954 H944 0.950 . S
C954 C955 1.386 . S
C954 C956 1.391 . S
C955 C954 1.386 . S
C955 C959 1.393 . S
C956 H945 0.950 . S
C956 C954 1.391 . S
C956 C957 1.400 . S
C957 C951 1.491 . S
C957 C956 1.400 . S
C957 C958 1.398 . S
C958 H946 0.950 . S
C958 C957 1.398 . S
C958 C959 1.391 . S
C959 H947 0.950 . S
C959 C955 1.393 . S
C959 C958 1.391 . S
H960 C968 0.950 . S
H961 C973 0.950 . S
H962 C970 0.950 . S
H963 C972 0.950 . S
H964 C974 0.950 . S
H965 C976 0.950 . S
H966 C978 0.950 . S
H967 C979 0.950 . S
C968 H960 0.950 . S
C968 C969 1.386 . S
C968 C970 1.391 . S
C969 C968 1.386 . S
C969 C973 1.393 . S
C970 H962 0.950 . S
C970 C968 1.391 . S
C970 C971 1.400 . S
C971 C970 1.400 . S
C971 C972 1.398 . S
C971 C977 1.491 1_556 S
C972 H963 0.950 . S
C972 C971 1.398 . S
C972 C973 1.391 . S
C973 H961 0.950 . S
C973 C969 1.393 . S
C973 C972 1.391 . S
C974 H964 0.950 . S
C974 C975 1.386 . S
C974 C976 1.391 . S
C975 C974 1.386 . S
C975 C979 1.393 . S
C976 H965 0.950 . S
C976 C974 1.391 . S
C976 C977 1.400 . S
C977 C971 1.491 1_554 S
C977 C976 1.400 . S
C977 C978 1.398 . S
C978 H966 0.950 . S
C978 C977 1.398 . S
C978 C979 1.391 . S
C979 H967 0.950 . S
C979 C975 1.393 . S
C979 C978 1.391 . S
H980 C988 0.950 . S
H981 C993 0.950 . S
H982 C990 0.950 . S
H983 C992 0.950 . S
H984 C994 0.950 . S
H985 C996 0.950 . S
H986 C998 0.950 . S
H987 C999 0.950 . S
C988 H980 0.950 . S
C988 C989 1.386 . S
C988 C990 1.391 . S
C989 C988 1.386 . S
C989 C993 1.393 . S
C990 H982 0.950 . S
C990 C988 1.391 . S
C990 C991 1.400 . S
C991 C990 1.400 . S
C991 C992 1.398 . S
C991 C997 1.491 1_556 S
C992 H983 0.950 . S
C992 C991 1.398 . S
C992 C993 1.391 . S
C993 H981 0.950 . S
C993 C989 1.393 . S
C993 C992 1.391 . S
C994 H984 0.950 . S
C994 C995 1.386 . S
C994 C996 1.391 . S
C995 C994 1.386 . S
C995 C999 1.393 . S
C996 H985 0.950 . S
C996 C994 1.391 . S
C996 C997 1.400 . S
C997 C991 1.491 1_554 S
C997 C996 1.400 . S
C997 C998 1.398 . S
C998 H986 0.950 . S
C998 C997 1.398 . S
C998 C999 1.391 . S
C999 H987 0.950 . S
C999 C995 1.393 . S
C999 C998 1.391 . S
H1000 C1008 0.950 . S
H1001 C1013 0.950 . S
H1002 C1010 0.950 . S
H1003 C1012 0.950 . S
H1004 C1014 0.950 . S
H1005 C1016 0.950 . S
H1006 C1018 0.950 . S
H1007 C1019 0.950 . S
C1008 H1000 0.950 . S
C1008 C1009 1.386 . S
C1008 C1010 1.391 . S
C1009 C1008 1.386 . S
C1009 C1013 1.393 . S
C1010 H1002 0.950 . S
C1010 C1008 1.391 . S
C1010 C1011 1.400 . S
C1011 C1010 1.400 . S
C1011 C1012 1.398 . S
C1011 C1017 1.491 . S
C1012 H1003 0.950 . S
C1012 C1011 1.398 . S
C1012 C1013 1.391 . S
C1013 H1001 0.950 . S
C1013 C1009 1.393 . S
C1013 C1012 1.391 . S
C1014 H1004 0.950 . S
C1014 C1015 1.386 . S
C1014 C1016 1.391 . S
C1015 C1014 1.386 . S
C1015 C1019 1.393 . S
C1016 H1005 0.950 . S
C1016 C1014 1.391 . S
C1016 C1017 1.400 . S
C1017 C1011 1.491 . S
C1017 C1016 1.400 . S
C1017 C1018 1.398 . S
C1018 H1006 0.950 . S
C1018 C1017 1.398 . S
C1018 C1019 1.391 . S
C1019 H1007 0.950 . S
C1019 C1015 1.393 . S
C1019 C1018 1.391 . S
H1020 C1028 0.950 . S
H1021 C1033 0.950 . S
H1022 C1030 0.950 . S
H1023 C1032 0.950 . S
H1024 C1034 0.950 . S
H1025 C1036 0.950 . S
H1026 C1038 0.950 . S
H1027 C1039 0.950 . S
C1028 H1020 0.950 . S
C1028 C1029 1.386 . S
C1028 C1030 1.391 . S
C1029 C1028 1.386 . S
C1029 C1033 1.393 . S
C1030 H1022 0.950 . S
C1030 C1028 1.391 . S
C1030 C1031 1.400 . S
C1031 C1030 1.400 . S
C1031 C1032 1.398 . S
C1031 C1037 1.491 . S
C1032 H1023 0.950 . S
C1032 C1031 1.398 . S
C1032 C1033 1.391 . S
C1033 H1021 0.950 . S
C1033 C1029 1.393 . S
C1033 C1032 1.391 . S
C1034 H1024 0.950 . S
C1034 C1035 1.386 . S
C1034 C1036 1.391 . S
C1035 C1034 1.386 . S
C1035 C1039 1.393 . S
C1036 H1025 0.950 . S
C1036 C1034 1.391 . S
C1036 C1037 1.400 . S
C1037 C1031 1.491 . S
C1037 C1036 1.400 . S
C1037 C1038 1.398 . S
C1038 H1026 0.950 . S
C1038 C1037 1.398 . S
C1038 C1039 1.391 . S
C1039 H1027 0.950 . S
C1039 C1035 1.393 . S
C1039 C1038 1.391 . S
H1040 C1048 0.950 . S
H1041 C1053 0.950 . S
H1042 C1050 0.950 . S
H1043 C1052 0.950 . S
H1044 C1054 0.950 . S
H1045 C1056 0.950 . S
H1046 C1058 0.950 . S
H1047 C1059 0.950 . S
C1048 H1040 0.950 . S
C1048 C1049 1.386 . S
C1048 C1050 1.391 . S
C1049 C1048 1.386 . S
C1049 C1053 1.393 . S
C1050 H1042 0.950 . S
C1050 C1048 1.391 . S
C1050 C1051 1.400 . S
C1051 C1050 1.400 . S
C1051 C1052 1.398 . S
C1051 C1057 1.491 1_554 S
C1052 H1043 0.950 . S
C1052 C1051 1.398 . S
C1052 C1053 1.391 . S
C1053 H1041 0.950 . S
C1053 C1049 1.393 . S
C1053 C1052 1.391 . S
C1054 H1044 0.950 . S
C1054 C1055 1.386 . S
C1054 C1056 1.391 . S
C1055 C1054 1.386 . S
C1055 C1059 1.393 . S
C1056 H1045 0.950 . S
C1056 C1054 1.391 . S
C1056 C1057 1.400 . S
C1057 C1051 1.491 1_556 S
C1057 C1056 1.400 . S
C1057 C1058 1.398 . S
C1058 H1046 0.950 . S
C1058 C1057 1.398 . S
C1058 C1059 1.391 . S
C1059 H1047 0.950 . S
C1059 C1055 1.393 . S
C1059 C1058 1.391 . S
H1060 C1068 0.950 . S
H1061 C1073 0.950 . S
H1062 C1070 0.950 . S
H1063 C1072 0.950 . S
H1064 C1074 0.950 . S
H1065 C1076 0.950 . S
H1066 C1078 0.950 . S
H1067 C1079 0.950 . S
C1068 H1060 0.950 . S
C1068 C1069 1.386 . S
C1068 C1070 1.391 . S
C1069 C1068 1.386 . S
C1069 C1073 1.393 . S
C1070 H1062 0.950 . S
C1070 C1068 1.391 . S
C1070 C1071 1.400 . S
C1071 C1070 1.400 . S
C1071 C1072 1.398 . S
C1071 C1077 1.491 1_556 S
C1072 H1063 0.950 . S
C1072 C1071 1.398 . S
C1072 C1073 1.391 . S
C1073 H1061 0.950 . S
C1073 C1069 1.393 . S
C1073 C1072 1.391 . S
C1074 H1064 0.950 . S
C1074 C1075 1.386 . S
C1074 C1076 1.391 . S
C1075 C1074 1.386 . S
C1075 C1079 1.393 . S
C1076 H1065 0.950 . S
C1076 C1074 1.391 . S
C1076 C1077 1.400 . S
C1077 C1071 1.491 1_554 S
C1077 C1076 1.400 . S
C1077 C1078 1.398 . S
C1078 H1066 0.950 . S
C1078 C1077 1.398 . S
C1078 C1079 1.391 . S
C1079 H1067 0.950 . S
C1079 C1075 1.393 . S
C1079 C1078 1.391 . S
H1080 C1088 0.950 . S
H1081 C1093 0.950 . S
H1082 C1090 0.950 . S
H1083 C1092 0.950 . S
H1084 C1094 0.950 . S
H1085 C1096 0.950 . S
H1086 C1098 0.950 . S
H1087 C1099 0.950 . S
C1088 H1080 0.950 . S
C1088 C1089 1.386 . S
C1088 C1090 1.391 . S
C1089 C1088 1.386 . S
C1089 C1093 1.393 . S
C1090 H1082 0.950 . S
C1090 C1088 1.391 . S
C1090 C1091 1.400 . S
C1091 C1090 1.400 . S
C1091 C1092 1.398 . S
C1091 C1097 1.491 . S
C1092 H1083 0.950 . S
C1092 C1091 1.398 . S
C1092 C1093 1.391 . S
C1093 H1081 0.950 . S
C1093 C1089 1.393 . S
C1093 C1092 1.391 . S
C1094 H1084 0.950 . S
C1094 C1095 1.386 . S
C1094 C1096 1.391 . S
C1095 C1094 1.386 . S
C1095 C1099 1.393 . S
C1096 H1085 0.950 . S
C1096 C1094 1.391 . S
C1096 C1097 1.400 . S
C1097 C1091 1.491 . S
C1097 C1096 1.400 . S
C1097 C1098 1.398 . S
C1098 H1086 0.950 . S
C1098 C1097 1.398 . S
C1098 C1099 1.391 . S
C1099 H1087 0.950 . S
C1099 C1095 1.393 . S
C1099 C1098 1.391 . S
H1100 C1108 0.950 . S
H1101 C1113 0.950 . S
H1102 C1110 0.950 . S
H1103 C1112 0.950 . S
H1104 C1114 0.950 . S
H1105 C1116 0.950 . S
H1106 C1118 0.950 . S
H1107 C1119 0.950 . S
C1108 H1100 0.950 . S
C1108 C1109 1.386 . S
C1108 C1110 1.391 . S
C1109 C1108 1.386 . S
C1109 C1113 1.393 . S
C1110 H1102 0.950 . S
C1110 C1108 1.391 . S
C1110 C1111 1.400 . S
C1111 C1110 1.400 . S
C1111 C1112 1.398 . S
C1111 C1117 1.491 . S
C1112 H1103 0.950 . S
C1112 C1111 1.398 . S
C1112 C1113 1.391 . S
C1113 H1101 0.950 . S
C1113 C1109 1.393 . S
C1113 C1112 1.391 . S
C1114 H1104 0.950 . S
C1114 C1115 1.386 . S
C1114 C1116 1.391 . S
C1115 C1114 1.386 . S
C1115 C1119 1.393 . S
C1116 H1105 0.950 . S
C1116 C1114 1.391 . S
C1116 C1117 1.400 . S
C1117 C1111 1.491 . S
C1117 C1116 1.400 . S
C1117 C1118 1.398 . S
C1118 H1106 0.950 . S
C1118 C1117 1.398 . S
C1118 C1119 1.391 . S
C1119 H1107 0.950 . S
C1119 C1115 1.393 . S
C1119 C1118 1.391 . S
H1120 C1128 0.950 . S
H1121 C1133 0.950 . S
H1122 C1130 0.950 . S
H1123 C1132 0.950 . S
H1124 C1134 0.950 . S
H1125 C1136 0.950 . S
H1126 C1138 0.950 . S
H1127 C1139 0.950 . S
C1128 H1120 0.950 . S
C1128 C1129 1.386 . S
C1128 C1130 1.391 . S
C1129 C1128 1.386 . S
C1129 C1133 1.393 1_565 S
C1130 H1122 0.950 . S
C1130 C1128 1.391 . S
C1130 C1131 1.400 . S
C1131 C1130 1.400 . S
C1131 C1132 1.398 1_565 S
C1131 C1137 1.491 1_665 S
C1132 H1123 0.950 . S
C1132 C1131 1.398 1_545 S
C1132 C1133 1.391 . S
C1133 H1121 0.950 . S
C1133 C1129 1.393 1_545 S
C1133 C1132 1.391 . S
C1134 H1124 0.950 . S
C1134 C1135 1.386 . S
C1134 C1136 1.391 . S
C1135 C1134 1.386 . S
C1135 C1139 1.393 1_545 S
C1136 H1125 0.950 . S
C1136 C1134 1.391 . S
C1136 C1137 1.400 . S
C1137 C1131 1.491 1_445 S
C1137 C1136 1.400 . S
C1137 C1138 1.398 1_545 S
C1138 H1126 0.950 . S
C1138 C1137 1.398 1_565 S
C1138 C1139 1.391 . S
C1139 H1127 0.950 . S
C1139 C1135 1.393 1_565 S
C1139 C1138 1.391 . S
H1140 C1148 0.950 . S
H1141 C1153 0.950 . S
H1142 C1150 0.950 . S
H1143 C1152 0.950 . S
H1144 C1154 0.950 . S
H1145 C1156 0.950 . S
H1146 C1158 0.950 . S
H1147 C1159 0.950 . S
C1148 H1140 0.950 . S
C1148 C1149 1.386 . S
C1148 C1150 1.391 . S
C1149 C1148 1.386 . S
C1149 C1153 1.393 1_545 S
C1150 H1142 0.950 . S
C1150 C1148 1.391 . S
C1150 C1151 1.400 . S
C1151 C1150 1.400 . S
C1151 C1152 1.398 1_545 S
C1151 C1157 1.491 1_645 S
C1152 H1143 0.950 . S
C1152 C1151 1.398 1_565 S
C1152 C1153 1.391 . S
C1153 H1141 0.950 . S
C1153 C1149 1.393 1_565 S
C1153 C1152 1.391 . S
C1154 H1144 0.950 . S
C1154 C1155 1.386 . S
C1154 C1156 1.391 . S
C1155 C1154 1.386 . S
C1155 C1159 1.393 1_565 S
C1156 H1145 0.950 . S
C1156 C1154 1.391 . S
C1156 C1157 1.400 . S
C1157 C1151 1.491 1_465 S
C1157 C1156 1.400 . S
C1157 C1158 1.398 1_565 S
C1158 H1146 0.950 . S
C1158 C1157 1.398 1_545 S
C1158 C1159 1.391 . S
C1159 H1147 0.950 . S
C1159 C1155 1.393 1_545 S
C1159 C1158 1.391 . S
H1160 C1168 0.950 . S
H1161 C1173 0.950 . S
H1162 C1170 0.950 . S
H1163 C1172 0.950 . S
H1164 C1174 0.950 . S
H1165 C1176 0.950 . S
H1166 C1178 0.950 . S
H1167 C1179 0.950 . S
C1168 H1160 0.950 . S
C1168 C1169 1.386 . S
C1168 C1170 1.391 . S
C1169 C1168 1.386 . S
C1169 C1173 1.393 1_545 S
C1170 H1162 0.950 . S
C1170 C1168 1.391 . S
C1170 C1171 1.400 . S
C1171 C1170 1.400 . S
C1171 C1172 1.398 1_545 S
C1171 C1177 1.491 1_445 S
C1172 H1163 0.950 . S
C1172 C1171 1.398 1_565 S
C1172 C1173 1.391 . S
C1173 H1161 0.950 . S
C1173 C1169 1.393 1_565 S
C1173 C1172 1.391 . S
C1174 H1164 0.950 . S
C1174 C1175 1.386 . S
C1174 C1176 1.391 . S
C1175 C1174 1.386 . S
C1175 C1179 1.393 1_565 S
C1176 H1165 0.950 . S
C1176 C1174 1.391 . S
C1176 C1177 1.400 . S
C1177 C1171 1.491 1_665 S
C1177 C1176 1.400 . S
C1177 C1178 1.398 1_565 S
C1178 H1166 0.950 . S
C1178 C1177 1.398 1_545 S
C1178 C1179 1.391 . S
C1179 H1167 0.950 . S
C1179 C1175 1.393 1_545 S
C1179 C1178 1.391 . S
H1180 C1188 0.950 . S
H1181 C1193 0.950 . S
H1182 C1190 0.950 . S
H1183 C1192 0.950 . S
H1184 C1194 0.950 . S
H1185 C1196 0.950 . S
H1186 C1198 0.950 . S
H1187 C1199 0.950 . S
C1188 H1180 0.950 . S
C1188 C1189 1.386 . S
C1188 C1190 1.391 . S
C1189 C1188 1.386 . S
C1189 C1193 1.393 . S
C1190 H1182 0.950 . S
C1190 C1188 1.391 . S
C1190 C1191 1.400 . S
C1191 C1190 1.400 . S
C1191 C1192 1.398 . S
C1191 C1197 1.491 1_645 S
C1192 H1183 0.950 . S
C1192 C1191 1.398 . S
C1192 C1193 1.391 . S
C1193 H1181 0.950 . S
C1193 C1189 1.393 . S
C1193 C1192 1.391 . S
C1194 H1184 0.950 . S
C1194 C1195 1.386 . S
C1194 C1196 1.391 . S
C1195 C1194 1.386 . S
C1195 C1199 1.393 . S
C1196 H1185 0.950 . S
C1196 C1194 1.391 . S
C1196 C1197 1.400 . S
C1197 C1191 1.491 1_465 S
C1197 C1196 1.400 . S
C1197 C1198 1.398 . S
C1198 H1186 0.950 . S
C1198 C1197 1.398 . S
C1198 C1199 1.391 . S
C1199 H1187 0.950 . S
C1199 C1195 1.393 . S
C1199 C1198 1.391 . S
H1200 C1208 0.950 . S
H1201 C1213 0.950 . S
H1202 C1210 0.950 . S
H1203 C1212 0.950 . S
H1204 C1214 0.950 . S
H1205 C1216 0.950 . S
H1206 C1218 0.950 . S
H1207 C1219 0.950 . S
C1208 H1200 0.950 . S
C1208 C1209 1.386 . S
C1208 C1210 1.391 . S
C1209 C1208 1.386 . S
C1209 C1213 1.393 . S
C1210 H1202 0.950 . S
C1210 C1208 1.391 . S
C1210 C1211 1.400 . S
C1211 C1210 1.400 . S
C1211 C1212 1.398 . S
C1211 C1217 1.491 . S
C1212 H1203 0.950 . S
C1212 C1211 1.398 . S
C1212 C1213 1.391 . S
C1213 H1201 0.950 . S
C1213 C1209 1.393 . S
C1213 C1212 1.391 . S
C1214 H1204 0.950 . S
C1214 C1215 1.386 . S
C1214 C1216 1.391 . S
C1215 C1214 1.386 . S
C1215 C1219 1.393 . S
C1216 H1205 0.950 . S
C1216 C1214 1.391 . S
C1216 C1217 1.400 . S
C1217 C1211 1.491 . S
C1217 C1216 1.400 . S
C1217 C1218 1.398 . S
C1218 H1206 0.950 . S
C1218 C1217 1.398 . S
C1218 C1219 1.391 . S
C1219 H1207 0.950 . S
C1219 C1215 1.393 . S
C1219 C1218 1.391 . S
H1220 C1228 0.950 . S
H1221 C1233 0.950 . S
H1222 C1230 0.950 . S
H1223 C1232 0.950 . S
H1224 C1234 0.950 . S
H1225 C1236 0.950 . S
H1226 C1238 0.950 . S
H1227 C1239 0.950 . S
C1228 H1220 0.950 . S
C1228 C1229 1.386 . S
C1228 C1230 1.391 . S
C1229 C1228 1.386 . S
C1229 C1233 1.393 . S
C1230 H1222 0.950 . S
C1230 C1228 1.391 . S
C1230 C1231 1.400 . S
C1231 C1230 1.400 . S
C1231 C1232 1.398 . S
C1231 C1237 1.491 . S
C1232 H1223 0.950 . S
C1232 C1231 1.398 . S
C1232 C1233 1.391 . S
C1233 H1221 0.950 . S
C1233 C1229 1.393 . S
C1233 C1232 1.391 . S
C1234 H1224 0.950 . S
C1234 C1235 1.386 . S
C1234 C1236 1.391 . S
C1235 C1234 1.386 . S
C1235 C1239 1.393 . S
C1236 H1225 0.950 . S
C1236 C1234 1.391 . S
C1236 C1237 1.400 . S
C1237 C1231 1.491 . S
C1237 C1236 1.400 . S
C1237 C1238 1.398 . S
C1238 H1226 0.950 . S
C1238 C1237 1.398 . S
C1238 C1239 1.391 . S
C1239 H1227 0.950 . S
C1239 C1235 1.393 . S
C1239 C1238 1.391 . S
H1240 C1248 0.950 . S
H1241 C1253 0.950 . S
H1242 C1250 0.950 . S
H1243 C1252 0.950 . S
H1244 C1254 0.950 . S
H1245 C1256 0.950 . S
H1246 C1258 0.950 . S
H1247 C1259 0.950 . S
C1248 H1240 0.950 . S
C1248 C1249 1.386 . S
C1248 C1250 1.391 . S
C1249 C1248 1.386 . S
C1249 C1253 1.393 . S
C1250 H1242 0.950 . S
C1250 C1248 1.391 . S
C1250 C1251 1.400 . S
C1251 C1250 1.400 . S
C1251 C1252 1.398 . S
C1251 C1257 1.491 . S
C1252 H1243 0.950 . S
C1252 C1251 1.398 . S
C1252 C1253 1.391 . S
C1253 H1241 0.950 . S
C1253 C1249 1.393 . S
C1253 C1252 1.391 . S
C1254 H1244 0.950 . S
C1254 C1255 1.386 . S
C1254 C1256 1.391 . S
C1255 C1254 1.386 . S
C1255 C1259 1.393 . S
C1256 H1245 0.950 . S
C1256 C1254 1.391 . S
C1256 C1257 1.400 . S
C1257 C1251 1.491 . S
C1257 C1256 1.400 . S
C1257 C1258 1.398 . S
C1258 H1246 0.950 . S
C1258 C1257 1.398 . S
C1258 C1259 1.391 . S
C1259 H1247 0.950 . S
C1259 C1255 1.393 . S
C1259 C1258 1.391 . S
H1260 C1268 0.950 . S
H1261 C1273 0.950 . S
H1262 C1270 0.950 . S
H1263 C1272 0.950 . S
H1264 C1274 0.950 . S
H1265 C1276 0.950 . S
H1266 C1278 0.950 . S
H1267 C1279 0.950 . S
C1268 H1260 0.950 . S
C1268 C1269 1.386 . S
C1268 C1270 1.391 . S
C1269 C1268 1.386 . S
C1269 C1273 1.393 . S
C1270 H1262 0.950 . S
C1270 C1268 1.391 . S
C1270 C1271 1.400 . S
C1271 C1270 1.400 . S
C1271 C1272 1.398 . S
C1271 C1277 1.491 . S
C1272 H1263 0.950 . S
C1272 C1271 1.398 . S
C1272 C1273 1.391 . S
C1273 H1261 0.950 . S
C1273 C1269 1.393 . S
C1273 C1272 1.391 . S
C1274 H1264 0.950 . S
C1274 C1275 1.386 . S
C1274 C1276 1.391 . S
C1275 C1274 1.386 . S
C1275 C1279 1.393 . S
C1276 H1265 0.950 . S
C1276 C1274 1.391 . S
C1276 C1277 1.400 . S
C1277 C1271 1.491 . S
C1277 C1276 1.400 . S
C1277 C1278 1.398 . S
C1278 H1266 0.950 . S
C1278 C1277 1.398 . S
C1278 C1279 1.391 . S
C1279 H1267 0.950 . S
C1279 C1275 1.393 . S
C1279 C1278 1.391 . S
H1280 C1288 0.950 . S
H1281 C1293 0.950 . S
H1282 C1290 0.950 . S
H1283 C1292 0.950 . S
H1284 C1294 0.950 . S
H1285 C1296 0.950 . S
H1286 C1298 0.950 . S
H1287 C1299 0.950 . S
C1288 H1280 0.950 . S
C1288 C1289 1.386 . S
C1288 C1290 1.391 . S
C1289 C1288 1.386 . S
C1289 C1293 1.393 . S
C1290 H1282 0.950 . S
C1290 C1288 1.391 . S
C1290 C1291 1.400 . S
C1291 C1290 1.400 . S
C1291 C1292 1.398 . S
C1291 C1297 1.491 . S
C1292 H1283 0.950 . S
C1292 C1291 1.398 . S
C1292 C1293 1.391 . S
C1293 H1281 0.950 . S
C1293 C1289 1.393 . S
C1293 C1292 1.391 . S
C1294 H1284 0.950 . S
C1294 C1295 1.386 . S
C1294 C1296 1.391 . S
C1295 C1294 1.386 . S
C1295 C1299 1.393 . S
C1296 H1285 0.950 . S
C1296 C1294 1.391 . S
C1296 C1297 1.400 . S
C1297 C1291 1.491 . S
C1297 C1296 1.400 . S
C1297 C1298 1.398 . S
C1298 H1286 0.950 . S
C1298 C1297 1.398 . S
C1298 C1299 1.391 . S
C1299 H1287 0.950 . S
C1299 C1295 1.393 . S
C1299 C1298 1.391 . S
H1300 C1308 0.950 . S
H1301 C1313 0.950 . S
H1302 C1310 0.950 . S
H1303 C1312 0.950 . S
H1304 C1314 0.950 . S
H1305 C1316 0.950 . S
H1306 C1318 0.950 . S
H1307 C1319 0.950 . S
C1308 H1300 0.950 . S
C1308 C1309 1.386 . S
C1308 C1310 1.391 . S
C1309 C1308 1.386 . S
C1309 C1313 1.393 . S
C1310 H1302 0.950 . S
C1310 C1308 1.391 . S
C1310 C1311 1.400 . S
C1311 C1310 1.400 . S
C1311 C1312 1.398 . S
C1311 C1317 1.491 . S
C1312 H1303 0.950 . S
C1312 C1311 1.398 . S
C1312 C1313 1.391 . S
C1313 H1301 0.950 . S
C1313 C1309 1.393 . S
C1313 C1312 1.391 . S
C1314 H1304 0.950 . S
C1314 C1315 1.386 . S
C1314 C1316 1.391 . S
C1315 C1314 1.386 . S
C1315 C1319 1.393 . S
C1316 H1305 0.950 . S
C1316 C1314 1.391 . S
C1316 C1317 1.400 . S
C1317 C1311 1.491 . S
C1317 C1316 1.400 . S
C1317 C1318 1.398 . S
C1318 H1306 0.950 . S
C1318 C1317 1.398 . S
C1318 C1319 1.391 . S
C1319 H1307 0.950 . S
C1319 C1315 1.393 . S
C1319 C1318 1.391 . S
H1320 C1328 0.950 . S
H1321 C1333 0.950 . S
H1322 C1330 0.950 . S
H1323 C1332 0.950 . S
H1324 C1334 0.950 . S
H1325 C1336 0.950 . S
H1326 C1338 0.950 . S
H1327 C1339 0.950 . S
C1328 H1320 0.950 . S
C1328 C1329 1.386 . S
C1328 C1330 1.391 . S
C1329 C1328 1.386 . S
C1329 C1333 1.393 . S
C1330 H1322 0.950 . S
C1330 C1328 1.391 . S
C1330 C1331 1.400 . S
C1331 C1330 1.400 . S
C1331 C1332 1.398 . S
C1331 C1337 1.491 . S
C1332 H1323 0.950 . S
C1332 C1331 1.398 . S
C1332 C1333 1.391 . S
C1333 H1321 0.950 . S
C1333 C1329 1.393 . S
C1333 C1332 1.391 . S
C1334 H1324 0.950 . S
C1334 C1335 1.386 . S
C1334 C1336 1.391 . S
C1335 C1334 1.386 . S
C1335 C1339 1.393 . S
C1336 H1325 0.950 . S
C1336 C1334 1.391 . S
C1336 C1337 1.400 . S
C1337 C1331 1.491 . S
C1337 C1336 1.400 . S
C1337 C1338 1.398 . S
C1338 H1326 0.950 . S
C1338 C1337 1.398 . S
C1338 C1339 1.391 . S
C1339 H1327 0.950 . S
C1339 C1335 1.393 . S
C1339 C1338 1.391 . S
H1340 C1348 0.950 . S
H1341 C1353 0.950 . S
H1342 C1350 0.950 . S
H1343 C1352 0.950 . S
H1344 C1354 0.950 . S
H1345 C1356 0.950 . S
H1346 C1358 0.950 . S
H1347 C1359 0.950 . S
C1348 H1340 0.950 . S
C1348 C1349 1.386 . S
C1348 C1350 1.391 . S
C1349 C1348 1.386 . S
C1349 C1353 1.393 . S
C1350 H1342 0.950 . S
C1350 C1348 1.391 . S
C1350 C1351 1.400 . S
C1351 C1350 1.400 . S
C1351 C1352 1.398 . S
C1351 C1357 1.491 . S
C1352 H1343 0.950 . S
C1352 C1351 1.398 . S
C1352 C1353 1.391 . S
C1353 H1341 0.950 . S
C1353 C1349 1.393 . S
C1353 C1352 1.391 . S
C1354 H1344 0.950 . S
C1354 C1355 1.386 . S
C1354 C1356 1.391 . S
C1355 C1354 1.386 . S
C1355 C1359 1.393 . S
C1356 H1345 0.950 . S
C1356 C1354 1.391 . S
C1356 C1357 1.400 . S
C1357 C1351 1.491 . S
C1357 C1356 1.400 . S
C1357 C1358 1.398 . S
C1358 H1346 0.950 . S
C1358 C1357 1.398 . S
C1358 C1359 1.391 . S
C1359 H1347 0.950 . S
C1359 C1355 1.393 . S
C1359 C1358 1.391 . S
H1360 C1368 0.950 . S
H1361 C1373 0.950 . S
H1362 C1370 0.950 . S
H1363 C1372 0.950 . S
H1364 C1374 0.950 . S
H1365 C1376 0.950 . S
H1366 C1378 0.950 . S
H1367 C1379 0.950 . S
C1368 H1360 0.950 . S
C1368 C1369 1.386 . S
C1368 C1370 1.391 . S
C1369 C1368 1.386 . S
C1369 C1373 1.393 . S
C1370 H1362 0.950 . S
C1370 C1368 1.391 . S
C1370 C1371 1.400 . S
C1371 C1370 1.400 . S
C1371 C1372 1.398 . S
C1371 C1377 1.491 . S
C1372 H1363 0.950 . S
C1372 C1371 1.398 . S
C1372 C1373 1.391 . S
C1373 H1361 0.950 . S
C1373 C1369 1.393 . S
C1373 C1372 1.391 . S
C1374 H1364 0.950 . S
C1374 C1375 1.386 . S
C1374 C1376 1.391 . S
C1375 C1374 1.386 . S
C1375 C1379 1.393 . S
C1376 H1365 0.950 . S
C1376 C1374 1.391 . S
C1376 C1377 1.400 . S
C1377 C1371 1.491 . S
C1377 C1376 1.400 . S
C1377 C1378 1.398 . S
C1378 H1366 0.950 . S
C1378 C1377 1.398 . S
C1378 C1379 1.391 . S
C1379 H1367 0.950 . S
C1379 C1375 1.393 . S
C1379 C1378 1.391 . S
H1380 C1388 0.950 . S
H1381 C1393 0.950 . S
H1382 C1390 0.950 . S
H1383 C1392 0.950 . S
H1384 C1394 0.950 . S
H1385 C1396 0.950 . S
H1386 C1398 0.950 . S
H1387 C1399 0.950 . S
C1388 H1380 0.950 . S
C1388 C1389 1.386 . S
C1388 C1390 1.391 . S
C1389 C1388 1.386 . S
C1389 C1393 1.393 . S
C1390 H1382 0.950 . S
C1390 C1388 1.391 . S
C1390 C1391 1.400 . S
C1391 C1390 1.400 . S
C1391 C1392 1.398 . S
C1391 C1397 1.491 . S
C1392 H1383 0.950 . S
C1392 C1391 1.398 . S
C1392 C1393 1.391 . S
C1393 H1381 0.950 . S
C1393 C1389 1.393 . S
C1393 C1392 1.391 . S
C1394 H1384 0.950 . S
C1394 C1395 1.386 . S
C1394 C1396 1.391 . S
C1395 C1394 1.386 . S
C1395 C1399 1.393 . S
C1396 H1385 0.950 . S
C1396 C1394 1.391 . S
C1396 C1397 1.400 . S
C1397 C1391 1.491 . S
C1397 C1396 1.400 . S
C1397 C1398 1.398 . S
C1398 H1386 0.950 . S
C1398 C1397 1.398 . S
C1398 C1399 1.391 . S
C1399 H1387 0.950 . S
C1399 C1395 1.393 . S
C1399 C1398 1.391 . S
H1400 C1408 0.950 . S
H1401 C1413 0.950 . S
H1402 C1410 0.950 . S
H1403 C1412 0.950 . S
H1404 C1414 0.950 . S
H1405 C1416 0.950 . S
H1406 C1418 0.950 . S
H1407 C1419 0.950 . S
C1408 H1400 0.950 . S
C1408 C1409 1.386 . S
C1408 C1410 1.391 . S
C1409 C1408 1.386 . S
C1409 C1413 1.393 . S
C1410 H1402 0.950 . S
C1410 C1408 1.391 . S
C1410 C1411 1.400 . S
C1411 C1410 1.400 . S
C1411 C1412 1.398 . S
C1411 C1417 1.491 . S
C1412 H1403 0.950 . S
C1412 C1411 1.398 . S
C1412 C1413 1.391 . S
C1413 H1401 0.950 . S
C1413 C1409 1.393 . S
C1413 C1412 1.391 . S
C1414 H1404 0.950 . S
C1414 C1415 1.386 . S
C1414 C1416 1.391 . S
C1415 C1414 1.386 . S
C1415 C1419 1.393 . S
C1416 H1405 0.950 . S
C1416 C1414 1.391 . S
C1416 C1417 1.400 . S
C1417 C1411 1.491 . S
C1417 C1416 1.400 . S
C1417 C1418 1.398 . S
C1418 H1406 0.950 . S
C1418 C1417 1.398 . S
C1418 C1419 1.391 . S
C1419 H1407 0.950 . S
C1419 C1415 1.393 . S
C1419 C1418 1.391 . S
H1420 C1428 0.950 . S
H1421 C1433 0.950 . S
H1422 C1430 0.950 . S
H1423 C1432 0.950 . S
H1424 C1434 0.950 . S
H1425 C1436 0.950 . S
H1426 C1438 0.950 . S
H1427 C1439 0.950 . S
C1428 H1420 0.950 . S
C1428 C1429 1.386 . S
C1428 C1430 1.391 . S
C1429 C1428 1.386 . S
C1429 C1433 1.393 . S
C1430 H1422 0.950 . S
C1430 C1428 1.391 . S
C1430 C1431 1.400 . S
C1431 C1430 1.400 . S
C1431 C1432 1.398 . S
C1431 C1437 1.491 . S
C1432 H1423 0.950 . S
C1432 C1431 1.398 . S
C1432 C1433 1.391 . S
C1433 H1421 0.950 . S
C1433 C1429 1.393 . S
C1433 C1432 1.391 . S
C1434 H1424 0.950 . S
C1434 C1435 1.386 . S
C1434 C1436 1.391 . S
C1435 C1434 1.386 . S
C1435 C1439 1.393 . S
C1436 H1425 0.950 . S
C1436 C1434 1.391 . S
C1436 C1437 1.400 . S
C1437 C1431 1.491 . S
C1437 C1436 1.400 . S
C1437 C1438 1.398 . S
C1438 H1426 0.950 . S
C1438 C1437 1.398 . S
C1438 C1439 1.391 . S
C1439 H1427 0.950 . S
C1439 C1435 1.393 . S
C1439 C1438 1.391 . S
H1440 C1448 0.950 . S
H1441 C1453 0.950 . S
H1442 C1450 0.950 . S
H1443 C1452 0.950 . S
H1444 C1454 0.950 . S
H1445 C1456 0.950 . S
H1446 C1458 0.950 . S
H1447 C1459 0.950 . S
C1448 H1440 0.950 . S
C1448 C1449 1.386 . S
C1448 C1450 1.391 1_565 S
C1449 C1448 1.386 . S
C1449 C1453 1.393 . S
C1450 H1442 0.950 . S
C1450 C1448 1.391 1_545 S
C1450 C1451 1.400 . S
C1451 C1450 1.400 . S
C1451 C1452 1.398 . S
C1451 C1457 1.491 . S
C1452 H1443 0.950 . S
C1452 C1451 1.398 . S
C1452 C1453 1.391 1_545 S
C1453 H1441 0.950 . S
C1453 C1449 1.393 . S
C1453 C1452 1.391 1_565 S
C1454 H1444 0.950 . S
C1454 C1455 1.386 . S
C1454 C1456 1.391 . S
C1455 C1454 1.386 . S
C1455 C1459 1.393 . S
C1456 H1445 0.950 . S
C1456 C1454 1.391 . S
C1456 C1457 1.400 . S
C1457 C1451 1.491 . S
C1457 C1456 1.400 . S
C1457 C1458 1.398 . S
C1458 H1446 0.950 . S
C1458 C1457 1.398 . S
C1458 C1459 1.391 . S
C1459 H1447 0.950 . S
C1459 C1455 1.393 . S
C1459 C1458 1.391 . S
H1460 C1468 0.950 . S
H1461 C1473 0.950 . S
H1462 C1470 0.950 . S
H1463 C1472 0.950 . S
H1464 C1474 0.950 . S
H1465 C1476 0.950 . S
H1466 C1478 0.950 . S
H1467 C1479 0.950 . S
C1468 H1460 0.950 . S
C1468 C1469 1.386 . S
C1468 C1470 1.391 . S
C1469 C1468 1.386 . S
C1469 C1473 1.393 . S
C1470 H1462 0.950 . S
C1470 C1468 1.391 . S
C1470 C1471 1.400 . S
C1471 C1470 1.400 . S
C1471 C1472 1.398 . S
C1471 C1477 1.491 . S
C1472 H1463 0.950 . S
C1472 C1471 1.398 . S
C1472 C1473 1.391 . S
C1473 H1461 0.950 . S
C1473 C1469 1.393 . S
C1473 C1472 1.391 . S
C1474 H1464 0.950 . S
C1474 C1475 1.386 . S
C1474 C1476 1.391 1_545 S
C1475 C1474 1.386 . S
C1475 C1479 1.393 . S
C1476 H1465 0.950 . S
C1476 C1474 1.391 1_565 S
C1476 C1477 1.400 . S
C1477 C1471 1.491 . S
C1477 C1476 1.400 . S
C1477 C1478 1.398 . S
C1478 H1466 0.950 . S
C1478 C1477 1.398 . S
C1478 C1479 1.391 1_565 S
C1479 H1467 0.950 . S
C1479 C1475 1.393 . S
C1479 C1478 1.391 1_545 S
H1480 C1488 0.950 . S
H1481 C1493 0.950 . S
H1482 C1490 0.950 . S
H1483 C1492 0.950 . S
H1484 C1494 0.950 . S
H1485 C1496 0.950 . S
H1486 C1498 0.950 . S
H1487 C1499 0.950 . S
C1488 H1480 0.950 . S
C1488 C1489 1.386 . S
C1488 C1490 1.391 1_545 S
C1489 C1488 1.386 . S
C1489 C1493 1.393 . S
C1490 H1482 0.950 . S
C1490 C1488 1.391 1_565 S
C1490 C1491 1.400 . S
C1491 C1490 1.400 . S
C1491 C1492 1.398 . S
C1491 C1497 1.491 . S
C1492 H1483 0.950 . S
C1492 C1491 1.398 . S
C1492 C1493 1.391 1_565 S
C1493 H1481 0.950 . S
C1493 C1489 1.393 . S
C1493 C1492 1.391 1_545 S
C1494 H1484 0.950 . S
C1494 C1495 1.386 . S
C1494 C1496 1.391 . S
C1495 C1494 1.386 . S
C1495 C1499 1.393 . S
C1496 H1485 0.950 . S
C1496 C1494 1.391 . S
C1496 C1497 1.400 . S
C1497 C1491 1.491 . S
C1497 C1496 1.400 . S
C1497 C1498 1.398 . S
C1498 H1486 0.950 . S
C1498 C1497 1.398 . S
C1498 C1499 1.391 . S
C1499 H1487 0.950 . S
C1499 C1495 1.393 . S
C1499 C1498 1.391 . S
H1500 C1508 0.950 . S
H1501 C1513 0.950 . S
H1502 C1510 0.950 . S
H1503 C1512 0.950 . S
H1504 C1514 0.950 . S
H1505 C1516 0.950 . S
H1506 C1518 0.950 . S
H1507 C1519 0.950 . S
C1508 H1500 0.950 . S
C1508 C1509 1.386 . S
C1508 C1510 1.391 1_565 S
C1509 C1508 1.386 . S
C1509 C1513 1.393 . S
C1510 H1502 0.950 . S
C1510 C1508 1.391 1_545 S
C1510 C1511 1.400 . S
C1511 C1510 1.400 . S
C1511 C1512 1.398 . S
C1511 C1517 1.491 . S
C1512 H1503 0.950 . S
C1512 C1511 1.398 . S
C1512 C1513 1.391 1_545 S
C1513 H1501 0.950 . S
C1513 C1509 1.393 . S
C1513 C1512 1.391 1_565 S
C1514 H1504 0.950 . S
C1514 C1515 1.386 . S
C1514 C1516 1.391 . S
C1515 C1514 1.386 . S
C1515 C1519 1.393 . S
C1516 H1505 0.950 . S
C1516 C1514 1.391 . S
C1516 C1517 1.400 . S
C1517 C1511 1.491 . S
C1517 C1516 1.400 . S
C1517 C1518 1.398 . S
C1518 H1506 0.950 . S
C1518 C1517 1.398 . S
C1518 C1519 1.391 . S
C1519 H1507 0.950 . S
C1519 C1515 1.393 . S
C1519 C1518 1.391 . S
H1520 C1528 0.950 . S
H1521 C1533 0.950 . S
H1522 C1530 0.950 . S
H1523 C1532 0.950 . S
H1524 C1534 0.950 . S
H1525 C1536 0.950 . S
H1526 C1538 0.950 . S
H1527 C1539 0.950 . S
C1528 H1520 0.950 . S
C1528 C1529 1.386 . S
C1528 C1530 1.391 . S
C1529 C1528 1.386 . S
C1529 C1533 1.393 . S
C1530 H1522 0.950 . S
C1530 C1528 1.391 . S
C1530 C1531 1.400 . S
C1531 C1530 1.400 . S
C1531 C1532 1.398 . S
C1531 C1537 1.491 . S
C1532 H1523 0.950 . S
C1532 C1531 1.398 . S
C1532 C1533 1.391 . S
C1533 H1521 0.950 . S
C1533 C1529 1.393 . S
C1533 C1532 1.391 . S
C1534 H1524 0.950 . S
C1534 C1535 1.386 . S
C1534 C1536 1.391 1_545 S
C1535 C1534 1.386 . S
C1535 C1539 1.393 . S
C1536 H1525 0.950 . S
C1536 C1534 1.391 1_565 S
C1536 C1537 1.400 . S
C1537 C1531 1.491 . S
C1537 C1536 1.400 . S
C1537 C1538 1.398 . S
C1538 H1526 0.950 . S
C1538 C1537 1.398 . S
C1538 C1539 1.391 1_565 S
C1539 H1527 0.950 . S
C1539 C1535 1.393 . S
C1539 C1538 1.391 1_545 S
H1540 C1548 0.950 . S
H1541 C1553 0.950 . S
H1542 C1550 0.950 . S
H1543 C1552 0.950 . S
H1544 C1554 0.950 . S
H1545 C1556 0.950 . S
H1546 C1558 0.950 . S
H1547 C1559 0.950 . S
C1548 H1540 0.950 . S
C1548 C1549 1.386 . S
C1548 C1550 1.391 . S
C1549 C1548 1.386 . S
C1549 C1553 1.393 . S
C1550 H1542 0.950 . S
C1550 C1548 1.391 . S
C1550 C1551 1.400 . S
C1551 C1550 1.400 . S
C1551 C1552 1.398 . S
C1551 C1557 1.491 . S
C1552 H1543 0.950 . S
C1552 C1551 1.398 . S
C1552 C1553 1.391 . S
C1553 H1541 0.950 . S
C1553 C1549 1.393 . S
C1553 C1552 1.391 . S
C1554 H1544 0.950 . S
C1554 C1555 1.386 . S
C1554 C1556 1.391 1_565 S
C1555 C1554 1.386 . S
C1555 C1559 1.393 . S
C1556 H1545 0.950 . S
C1556 C1554 1.391 1_545 S
C1556 C1557 1.400 . S
C1557 C1551 1.491 . S
C1557 C1556 1.400 . S
C1557 C1558 1.398 . S
C1558 H1546 0.950 . S
C1558 C1557 1.398 . S
C1558 C1559 1.391 1_545 S
C1559 H1547 0.950 . S
C1559 C1555 1.393 . S
C1559 C1558 1.391 1_565 S
H1560 C1568 0.950 . S
H1561 C1573 0.950 . S
H1562 C1570 0.950 . S
H1563 C1572 0.950 . S
H1564 C1574 0.950 . S
H1565 C1576 0.950 . S
H1566 C1578 0.950 . S
H1567 C1579 0.950 . S
C1568 H1560 0.950 . S
C1568 C1569 1.386 . S
C1568 C1570 1.391 1_565 S
C1569 C1568 1.386 . S
C1569 C1573 1.393 . S
C1570 H1562 0.950 . S
C1570 C1568 1.391 1_545 S
C1570 C1571 1.400 . S
C1571 C1570 1.400 . S
C1571 C1572 1.398 . S
C1571 C1577 1.491 . S
C1572 H1563 0.950 . S
C1572 C1571 1.398 . S
C1572 C1573 1.391 1_545 S
C1573 H1561 0.950 . S
C1573 C1569 1.393 . S
C1573 C1572 1.391 1_565 S
C1574 H1564 0.950 . S
C1574 C1575 1.386 . S
C1574 C1576 1.391 . S
C1575 C1574 1.386 . S
C1575 C1579 1.393 . S
C1576 H1565 0.950 . S
C1576 C1574 1.391 . S
C1576 C1577 1.400 . S
C1577 C1571 1.491 . S
C1577 C1576 1.400 . S
C1577 C1578 1.398 . S
C1578 H1566 0.950 . S
C1578 C1577 1.398 . S
C1578 C1579 1.391 . S
C1579 H1567 0.950 . S
C1579 C1575 1.393 . S
C1579 C1578 1.391 . S
H1580 C1588 0.950 . S
H1581 C1593 0.950 . S
H1582 C1590 0.950 . S
H1583 C1592 0.950 . S
H1584 C1594 0.950 . S
H1585 C1596 0.950 . S
H1586 C1598 0.950 . S
H1587 C1599 0.950 . S
C1588 H1580 0.950 . S
C1588 C1589 1.386 . S
C1588 C1590 1.391 . S
C1589 C1588 1.386 . S
C1589 C1593 1.393 . S
C1590 H1582 0.950 . S
C1590 C1588 1.391 . S
C1590 C1591 1.400 . S
C1591 C1590 1.400 . S
C1591 C1592 1.398 . S
C1591 C1597 1.491 . S
C1592 H1583 0.950 . S
C1592 C1591 1.398 . S
C1592 C1593 1.391 . S
C1593 H1581 0.950 . S
C1593 C1589 1.393 . S
C1593 C1592 1.391 . S
C1594 H1584 0.950 . S
C1594 C1595 1.386 . S
C1594 C1596 1.391 1_545 S
C1595 C1594 1.386 . S
C1595 C1599 1.393 . S
C1596 H1585 0.950 . S
C1596 C1594 1.391 1_565 S
C1596 C1597 1.400 . S
C1597 C1591 1.491 . S
C1597 C1596 1.400 . S
C1597 C1598 1.398 . S
C1598 H1586 0.950 . S
C1598 C1597 1.398 . S
C1598 C1599 1.391 1_565 S
C1599 H1587 0.950 . S
C1599 C1595 1.393 . S
C1599 C1598 1.391 1_545 S
C649 C19 1.553 . S
C655 C379 1.544 . S
C669 C59 1.553 . S
C675 C339 1.547 . S
C689 C459 1.547 . S
C695 C99 1.553 . S
C709 C139 1.543 . S
C715 C419 1.554 . S
C729 C530 1.553 . S
C735 C170 1.544 . S
C749 C490 1.555 . S
C755 C210 1.545 . S
C769 C610 1.555 . S
C775 C250 1.543 . S
C789 C290 1.546 . S
C795 C570 1.554 . S
C809 C98 1.680 . S
C815 C18 1.674 . S
C829 C138 1.685 . S
C835 C58 1.674 . S
C849 C249 1.673 . S
C855 C169 1.682 . S
C869 C209 1.674 . S
C875 C289 1.680 . S
C889 C418 1.684 . S
C895 C338 1.677 . S
C909 C458 1.673 . S
C915 C378 1.684 . S
C929 C489 1.681 . S
C935 C569 1.674 . S
C949 C529 1.673 . S
C955 C609 1.681 . S
C969 C218 1.510 . S
C975 C9 1.521 . S
C989 C178 1.510 . S
C995 C49 1.521 . S
C1009 C89 1.529 . S
C1015 C298 1.501 . S
C1029 C258 1.512 . S
C1035 C129 1.519 . S
C1049 C329 1.521 . S
C1055 C538 1.510 . S
C1069 C498 1.528 . S
C1075 C369 1.503 . S
C1089 C409 1.524 . S
C1095 C618 1.507 . S
C1109 C578 1.528 . S
C1115 C449 1.503 . S
C1129 C50 1.612 . S
C1135 C10 1.621 . S
C1149 C130 1.601 . S
C1155 C90 1.611 . S
C1169 C219 1.623 . S
C1175 C179 1.618 . S
C1189 C259 1.601 . S
C1195 C299 1.598 . S
C1209 C370 1.622 . S
C1215 C330 1.620 . S
C1229 C450 1.621 . S
C1235 C410 1.622 . S
C1249 C499 1.607 . S
C1255 C539 1.599 . S
C1269 C579 1.621 . S
C1275 C619 1.621 . S
C1289 C6 1.604 . S
C1295 C15 1.604 . S
C1309 C46 1.604 . S
C1315 C55 1.604 . S
C1329 C86 1.604 . S
C1335 C95 1.604 . S
C1349 C135 1.616 . S
C1355 C126 1.616 . S
C1369 C175 1.610 . S
C1375 C166 1.610 . S
C1389 C206 1.609 . S
C1395 C215 1.609 . S
C1409 C255 1.617 . S
C1415 C246 1.617 . S
C1429 C295 1.617 . S
C1435 C286 1.617 . S
C1449 C335 1.611 . S
C1455 C326 1.611 . S
C1469 C366 1.618 . S
C1475 C375 1.618 . S
C1489 C415 1.612 . S
C1495 C406 1.612 . S
C1509 C455 1.608 . S
C1515 C446 1.608 . S
C1529 C495 1.605 . S
C1535 C486 1.605 . S
C1549 C535 1.604 . S
C1555 C526 1.604 . S
C1569 C566 1.604 . S
C1575 C575 1.604 . S
C1589 C615 1.610 . S
C1595 C606 1.610 . S
