# Generated by pormake.
# Topology dia, (4)-cn, num edge types: 1
# Building blocks:
#     Node 0, Type 0, BuildingBlock: ICAMEG_clean_sbu_1, # of connection points: 4
#     Node 1, Type 0, BuildingBlock: ICAMEG_clean_sbu_1, # of connection points: 4
#     Node 2, Type 0, BuildingBlock: ICAMEG_clean_sbu_1, # of connection points: 4
#     Node 3, Type 0, BuildingBlock: ICAMEG_clean_sbu_1, # of connection points: 4
#     Node 4, Type 0, BuildingBlock: ICAMEG_clean_sbu_1, # of connection points: 4
#     Node 5, Type 0, BuildingBlock: ICAMEG_clean_sbu_1, # of connection points: 4
#     Node 6, Type 0, BuildingBlock: ICAMEG_clean_sbu_1, # of connection points: 4
#     Node 7, Type 0, BuildingBlock: ICAMEG_clean_sbu_1, # of connection points: 4
#     Edge 8, Type (0, 0), BuildingBlock: XUDNAN_clean_linker_2, # of connection points: 2
#     Edge 9, Type (0, 0), BuildingBlock: XUDNAN_clean_linker_2, # of connection points: 2
#     Edge 10, Type (0, 0), BuildingBlock: XUDNAN_clean_linker_2, # of connection points: 2
#     Edge 11, Type (0, 0), BuildingBlock: XUDNAN_clean_linker_2, # of connection points: 2
#     Edge 12, Type (0, 0), BuildingBlock: XUDNAN_clean_linker_2, # of connection points: 2
#     Edge 13, Type (0, 0), BuildingBlock: XUDNAN_clean_linker_2, # of connection points: 2
#     Edge 14, Type (0, 0), BuildingBlock: XUDNAN_clean_linker_2, # of connection points: 2
#     Edge 15, Type (0, 0), BuildingBlock: XUDNAN_clean_linker_2, # of connection points: 2
#     Edge 16, Type (0, 0), BuildingBlock: XUDNAN_clean_linker_2, # of connection points: 2
#     Edge 17, Type (0, 0), BuildingBlock: XUDNAN_clean_linker_2, # of connection points: 2
#     Edge 18, Type (0, 0), BuildingBlock: XUDNAN_clean_linker_2, # of connection points: 2
#     Edge 19, Type (0, 0), BuildingBlock: XUDNAN_clean_linker_2, # of connection points: 2
#     Edge 20, Type (0, 0), BuildingBlock: XUDNAN_clean_linker_2, # of connection points: 2
#     Edge 21, Type (0, 0), BuildingBlock: XUDNAN_clean_linker_2, # of connection points: 2
#     Edge 22, Type (0, 0), BuildingBlock: XUDNAN_clean_linker_2, # of connection points: 2
#     Edge 23, Type (0, 0), BuildingBlock: XUDNAN_clean_linker_2, # of connection points: 2
# Relax obj value: 0.180
# Max RMSD: 0.229
# Mean RMSD: 0.229
data_MOF--net-dia--node1-ICAMEG_clean_sbu_1--edge1-XUDNAN_clean_linker_2
_symmetry_space_group_name_H-M    P1
_symmetry_Int_Tables_number       1
_symmetry_cell_setting            triclinic
loop_
_symmetry_equiv_pos_as_xyz
'x, y, z'
_cell_length_a     32.933183
_cell_length_b     32.906231
_cell_length_c     41.899071
_cell_angle_alpha  90.179611
_cell_angle_beta   89.907169
_cell_angle_gamma 102.01077
loop_
_atom_site_label
_atom_site_type_symbol
_atom_site_fract_x
_atom_site_fract_y
_atom_site_fract_z
_atom_type_partial_charge
Co0 Co 0.17427 0.09319 0.65325 0.0
Co1 Co 0.09563 0.14562 0.63884 0.0
O2 O 0.12938 0.11947 0.66821 0.0
C3 C 0.13419 0.03666 0.70718 0.0
O4 O 0.10398 0.05654 0.71134 0.0
C5 C 0.12292 0.21101 0.68807 0.0
O6 O 0.16113 0.20601 0.68402 0.0
O7 O 0.14632 0.18058 0.61861 0.0
O8 O 0.18975 0.13659 0.61994 0.0
H9 H 0.05496 0.19476 0.53243 0.0
H10 H 0.16852 0.11831 0.72114 0.0
O11 O 0.16196 0.04795 0.68606 0.0
H12 H 0.30835 0.1884 0.68607 0.0
H13 H 0.29462 0.02137 0.66473 0.0
H14 H 0.20373 0.07457 0.58908 0.0
H15 H 0.26096 0.14344 0.6491 0.0
H16 H 0.23926 0.05523 0.68437 0.0
O17 O 0.09367 0.19017 0.67125 0.0
H18 H 0.09703 0.16226 0.56928 0.0
H19 H 0.02235 0.1849 0.64744 0.0
H20 H 0.25899 0.04128 0.56844 0.0
H21 H 0.21513 0.16222 0.75912 0.0
H22 H 0.30491 0.01439 0.60638 0.0
H23 H 0.28564 0.19786 0.74167 0.0
O24 O 0.13541 0.05776 0.62309 0.0
H25 H 1.00398 0.08492 0.73027 0.0
H26 H 0.01831 0.09145 0.61317 0.0
H27 H 0.95577 0.04796 0.63708 0.0
H28 H 0.94819 0.04462 0.69607 0.0
H29 H 0.06637 0.12746 0.70535 0.0
H30 H 0.97972 0.21799 0.61147 0.0
H31 H 0.99581 0.2229 0.55349 0.0
O32 O 0.09567 0.10115 0.60609 0.0
C33 C 0.17974 0.16975 0.61007 0.0
C34 C 0.04757 0.19272 0.55764 0.0
C35 C 1.00539 0.20581 0.60201 0.0
N36 N 0.06204 0.17148 0.61045 0.0
C37 C 0.07123 0.17427 0.57861 0.0
C38 C 0.02973 0.18715 0.62227 0.0
C39 C 0.01442 0.20853 0.56947 0.0
C40 C 0.19925 0.13311 0.71338 0.0
N41 N 0.21196 0.12788 0.68285 0.0
C42 C 0.22548 0.15823 0.735 0.0
C43 C 0.26499 0.17828 0.72518 0.0
C44 C 0.27772 0.17303 0.69399 0.0
C45 C 0.25063 0.14766 0.67305 0.0
C46 C 0.27486 0.03303 0.64796 0.0
C47 C 0.22373 0.06319 0.60575 0.0
C48 C 0.24336 0.05214 0.65893 0.0
N49 N 0.21843 0.06717 0.63788 0.0
C50 C 0.25491 0.04426 0.59392 0.0
C51 C 0.28063 0.02914 0.61522 0.0
C52 C 0.10855 0.0672 0.6041 0.0
C53 C 1.00691 0.0861 0.70454 0.0
C54 C 0.01555 0.08977 0.63884 0.0
C55 C 0.97991 0.06528 0.65225 0.0
C56 C 0.97565 0.06347 0.68534 0.0
N57 N 0.04615 0.11182 0.65782 0.0
C58 C 0.04213 0.11024 0.69028 0.0
Co59 Co 0.91071 0.33814 0.88863 0.0
Co60 Co 0.87587 0.43041 0.89252 0.0
O61 O 0.8945 0.38629 0.8683 0.0
C62 C 0.99444 0.34168 0.86097 0.0
O63 O 1.0086 0.34508 0.89034 0.0
C64 C 0.81916 0.41468 0.83456 0.0
O65 O 0.83782 0.38619 0.82322 0.0
O66 O 0.8347 0.38852 0.91613 0.0
O67 O 0.86577 0.33437 0.92148 0.0
H68 H 0.83796 0.49782 0.99291 0.0
H69 H 0.89597 0.33422 0.8187 0.0
O70 O 0.95601 0.34051 0.85566 0.0
H71 H 0.7934 0.21752 0.86353 0.0
H72 H 0.95436 0.2001 0.88919 0.0
H73 H 0.92236 0.31358 0.95543 0.0
H74 H 0.84268 0.26356 0.89868 0.0
H75 H 0.93398 0.26057 0.86416 0.0
O76 O 0.83121 0.43399 0.86039 0.0
H77 H 0.86091 0.44345 0.96122 0.0
H78 H 0.85054 0.50982 0.87584 0.0
H79 H 0.94231 0.25353 0.98146 0.0
H80 H 0.84774 0.28842 0.78262 0.0
H81 H 0.95851 0.19625 0.94827 0.0
H82 H 0.79584 0.22967 0.80501 0.0
O83 O 0.94988 0.37553 0.91758 0.0
H84 H 0.95315 0.49542 0.79521 0.0
H85 H 0.93825 0.50548 0.91187 0.0
H86 H 0.99033 0.55778 0.88384 0.0
H87 H 0.9979 0.55316 0.82502 0.0
H88 H 0.902 0.44353 0.8242 0.0
H89 H 0.82692 0.56464 0.90659 0.0
H90 H 0.82075 0.55895 0.96558 0.0
O91 O 0.91864 0.42895 0.92595 0.0
C92 C 0.83686 0.35352 0.92815 0.0
C93 C 0.84063 0.50071 0.96723 0.0
C94 C 0.83438 0.53818 0.91877 0.0
N95 N 0.8574 0.47361 0.91674 0.0
C96 C 0.85373 0.47008 0.94916 0.0
C97 C 0.84764 0.50697 0.90148 0.0
C98 C 0.83095 0.53498 0.95187 0.0
C99 C 0.87372 0.30853 0.82863 0.0
N100 N 0.87214 0.30172 0.86079 0.0
C101 C 0.84637 0.28279 0.80808 0.0
C102 C 0.81723 0.24987 0.82066 0.0
C103 C 0.8158 0.24307 0.85349 0.0
C104 C 0.84364 0.26945 0.87331 0.0
C105 C 0.94735 0.22484 0.90392 0.0
C106 C 0.92926 0.28873 0.94083 0.0
C107 C 0.93583 0.25918 0.88988 0.0
N108 N 0.92687 0.29054 0.90833 0.0
C109 C 0.94058 0.25483 0.9557 0.0
C110 C 0.94967 0.22271 0.93706 0.0
C111 C 0.94674 0.40877 0.93218 0.0
C112 C 0.94991 0.49799 0.82081 0.0
C113 C 0.94125 0.50315 0.88628 0.0
C114 C 0.97084 0.53293 0.87053 0.0
C115 C 0.97507 0.53032 0.83755 0.0
N116 N 0.91625 0.47176 0.86967 0.0
C117 C 0.92066 0.46876 0.83737 0.0
Co118 Co 0.68076 0.1171 0.1333 0.0
Co119 Co 0.58848 0.15164 0.13106 0.0
O120 O 0.63435 0.13564 0.15508 0.0
C121 C 0.66303 0.06083 0.19177 0.0
O122 O 0.63074 0.07575 0.20051 0.0
C123 C 0.60473 0.21386 0.18618 0.0
O124 O 0.63495 0.19801 0.19786 0.0
O125 O 0.62869 0.19168 0.105 0.0
O126 O 0.6806 0.15808 0.09827 0.0
H127 H 0.51572 0.17988 0.03075 0.0
H128 H 0.69025 0.14369 0.20149 0.0
O129 O 0.68394 0.07452 0.16703 0.0
H130 H 0.804 0.23595 0.1443 0.0
H131 H 0.81796 0.07241 0.12701 0.0
H132 H 0.69847 0.09922 0.06587 0.0
H133 H 0.75491 0.18175 0.11532 0.0
H134 H 0.76033 0.09547 0.15438 0.0
O135 O 0.585 0.19848 0.16134 0.0
H136 H 0.57224 0.16098 0.06218 0.0
H137 H 0.50881 0.17627 0.14833 0.0
H138 H 0.75571 0.07674 0.03752 0.0
H139 H 0.739 0.197 0.23147 0.0
H140 H 0.81601 0.06315 0.06814 0.0
H141 H 0.79638 0.24375 0.20286 0.0
O142 O 0.64118 0.07388 0.10911 0.0
H143 H 0.52778 0.08323 0.23285 0.0
H144 H 0.51422 0.08573 0.1158 0.0
H145 H 0.46416 0.03526 0.14704 0.0
H146 H 0.47057 0.03388 0.20607 0.0
H147 H 0.57752 0.13261 0.20067 0.0
H148 H 0.45189 0.19591 0.11783 0.0
H149 H 0.455 0.19753 0.0586 0.0
O150 O 0.58929 0.10648 0.09927 0.0
C151 C 0.66215 0.18731 0.09143 0.0
C152 C 0.51396 0.17919 0.05655 0.0
C153 C 0.47816 0.18823 0.10542 0.0
N154 N 0.54371 0.1672 0.10705 0.0
C155 C 0.54582 0.16841 0.07448 0.0
C156 C 0.51056 0.17722 0.12257 0.0
C157 C 0.47991 0.18912 0.07219 0.0
C158 C 0.71533 0.16341 0.18887 0.0
N159 N 0.71975 0.15919 0.15669 0.0
C160 C 0.74277 0.19379 0.20598 0.0
C161 C 0.77491 0.22006 0.18991 0.0
C162 C 0.77918 0.21572 0.15707 0.0
C163 C 0.75114 0.18501 0.14076 0.0
C164 C 0.79188 0.07829 0.1134 0.0
C165 C 0.7247 0.09359 0.07936 0.0
C166 C 0.75908 0.09123 0.12878 0.0
N167 N 0.72616 0.09897 0.11172 0.0
C168 C 0.75697 0.08076 0.06317 0.0
C169 C 0.79078 0.07311 0.08037 0.0
C170 C 0.6079 0.07669 0.09462 0.0
C171 C 0.52451 0.08366 0.20716 0.0
C172 C 0.51748 0.08528 0.14144 0.0
C173 C 0.48888 0.05666 0.15902 0.0
C174 C 0.49247 0.05593 0.19213 0.0
N175 N 0.54876 0.1126 0.15634 0.0
C176 C 0.55252 0.11186 0.18878 0.0
Co177 Co 0.90411 0.83019 0.39643 0.0
Co178 Co 0.87259 0.92332 0.39205 0.0
O179 O 0.8883 0.87498 0.37193 0.0
C180 C 0.97238 0.85276 0.34908 0.0
O181 O 0.97222 0.89209 0.35418 0.0
C182 C 0.79331 0.92719 0.35943 0.0
O183 O 0.77695 0.93018 0.38774 0.0
O184 O 0.82964 0.88627 0.41847 0.0
O185 O 0.86141 0.8339 0.42943 0.0
H186 H 0.83623 0.00719 0.48417 0.0
H187 H 0.88272 0.81745 0.32798 0.0
O188 O 0.94717 0.82452 0.36388 0.0
H189 H 0.78396 0.70828 0.38484 0.0
H190 H 0.94639 0.69272 0.41022 0.0
H191 H 0.91703 0.81619 0.4652 0.0
H192 H 0.83698 0.758 0.41449 0.0
H193 H 0.92595 0.7491 0.37958 0.0
O194 O 0.83082 0.9228 0.35695 0.0
H195 H 0.8555 0.94645 0.45832 0.0
H196 H 0.85609 1.00375 0.36758 0.0
H197 H 0.93676 0.76024 0.4968 0.0
H198 H 0.83041 0.76806 0.2973 0.0
H199 H 0.95164 0.69796 0.46929 0.0
H200 H 0.78052 0.71303 0.32578 0.0
O201 O 0.94606 0.87087 0.42064 0.0
H202 H 0.94801 0.97066 0.29002 0.0
H203 H 0.94144 0.99615 0.40575 0.0
H204 H 0.99588 0.04028 0.37349 0.0
H205 H 0.99933 0.02777 0.31515 0.0
H206 H 0.89444 0.92682 0.32325 0.0
H207 H 0.83659 0.06503 0.39242 0.0
H208 H 0.8266 0.06702 0.45114 0.0
O209 O 0.91443 0.92457 0.427 0.0
C210 C 0.83234 0.85355 0.4339 0.0
C211 C 0.84048 0.00668 0.45856 0.0
C212 C 0.84071 0.03916 0.40707 0.0
N213 N 0.85692 0.97154 0.41149 0.0
C214 C 0.8514 0.97238 0.44379 0.0
C215 C 0.85173 1.00438 0.39314 0.0
C216 C 0.83509 0.04025 0.44002 0.0
C217 C 0.86126 0.79342 0.3405 0.0
N218 N 0.86301 0.79053 0.37296 0.0
C219 C 0.83164 0.76562 0.32302 0.0
C220 C 0.80364 0.73478 0.33901 0.0
C221 C 0.80553 0.73211 0.37215 0.0
C222 C 0.83555 0.76044 0.38883 0.0
C223 C 0.93992 0.71967 0.42249 0.0
C224 C 0.92321 0.78907 0.45307 0.0
C225 C 0.92847 0.75177 0.40526 0.0
N226 N 0.92003 0.7858 0.42061 0.0
C227 C 0.93448 0.75754 0.47109 0.0
C228 C 0.94285 0.72262 0.45563 0.0
C229 C 0.94314 0.90521 0.43372 0.0
C230 C 0.94674 0.97651 0.3154 0.0
C231 C 0.94289 0.99025 0.38044 0.0
C232 C 0.97369 0.01549 0.36226 0.0
C233 C 0.97558 0.00849 0.32952 0.0
N234 N 0.91466 0.95894 0.36642 0.0
C235 C 0.91632 0.95192 0.33432 0.0
Co236 Co 0.18435 0.60483 0.14336 0.0
Co237 Co 0.09281 0.64035 0.14432 0.0
O238 O 0.13907 0.62314 0.1665 0.0
C239 C 0.15865 0.53996 0.19339 0.0
O240 O 0.11981 0.54207 0.18848 0.0
C241 C 0.11324 0.69955 0.20049 0.0
O242 O 0.14331 0.68199 0.21007 0.0
O243 O 0.1325 0.68083 0.11847 0.0
O244 O 0.18349 0.64673 0.10877 0.0
H245 H 0.01727 0.67378 0.04693 0.0
H246 H 0.19719 0.62704 0.2118 0.0
O247 O 0.18758 0.56255 0.17729 0.0
H248 H 0.30763 0.72367 0.15449 0.0
H249 H 0.32015 0.55802 0.13437 0.0
H250 H 0.2004 0.5882 0.0754 0.0
H251 H 0.25752 0.67078 0.12509 0.0
H252 H 0.26364 0.58155 0.16291 0.0
O253 O 0.09134 0.68609 0.17614 0.0
H254 H 0.07435 0.6527 0.07624 0.0
H255 H 0.0144 0.66542 0.16446 0.0
H256 H 0.2565 0.56526 0.04587 0.0
H257 H 0.24708 0.67911 0.24222 0.0
H258 H 0.31691 0.54996 0.0754 0.0
H259 H 0.30269 0.72803 0.21352 0.0
O260 O 0.14365 0.56259 0.11922 0.0
H261 H 0.03498 0.56828 0.24562 0.0
H262 H 0.01754 0.57581 0.12912 0.0
H263 H 0.96793 0.52466 0.1602 0.0
H264 H 0.97629 0.52078 0.21895 0.0
H265 H 0.08423 0.61834 0.21362 0.0
H266 H 0.95691 0.68718 0.1361 0.0
H267 H 0.958 0.69122 0.07691 0.0
O268 O 0.09206 0.59632 0.11119 0.0
C269 C 0.16512 0.67662 0.10359 0.0
C270 C 0.01638 0.67204 0.07273 0.0
C271 C 0.98253 0.6796 0.12278 0.0
N272 N 0.04756 0.65748 0.122 0.0
C273 C 0.04856 0.66001 0.08945 0.0
C274 C 0.01524 0.66738 0.1387 0.0
C275 C 0.98315 0.68185 0.08956 0.0
C276 C 0.22145 0.64803 0.19916 0.0
N277 N 0.22423 0.64597 0.16669 0.0
C278 C 0.24955 0.67754 0.21651 0.0
C279 C 0.28071 0.70501 0.20039 0.0
C280 C 0.28346 0.70262 0.16727 0.0
C281 C 0.25482 0.67273 0.15072 0.0
C282 C 0.29402 0.56465 0.12123 0.0
C283 C 0.2267 0.58184 0.0884 0.0
C284 C 0.26186 0.57787 0.13727 0.0
N285 N 0.22886 0.5865 0.12081 0.0
C286 C 0.25832 0.56875 0.07156 0.0
C287 C 0.29219 0.56015 0.08814 0.0
C288 C 0.11021 0.56645 0.10537 0.0
C289 C 0.0308 0.56989 0.22007 0.0
C290 C 0.02157 0.57433 0.15465 0.0
C291 C 0.99326 0.54531 0.17214 0.0
C292 C 0.99795 0.54317 0.20509 0.0
N293 N 0.0536 0.60072 0.16952 0.0
C294 C 0.05849 0.59855 0.2018 0.0
Co295 Co 0.41484 0.33834 0.39263 0.0
Co296 Co 0.3599 0.41507 0.40434 0.0
O297 O 0.38421 0.37881 0.37549 0.0
C298 C 0.46207 0.36908 0.33182 0.0
O299 O 0.44427 0.40106 0.32921 0.0
C300 C 0.3006 0.39564 0.34822 0.0
O301 O 0.32263 0.37073 0.33567 0.0
O302 O 0.32818 0.36549 0.42789 0.0
O303 O 0.37879 0.32993 0.43128 0.0
H304 H 0.32056 0.46359 0.5117 0.0
H305 H 0.38145 0.32504 0.32672 0.0
O306 O 0.45314 0.34377 0.35489 0.0
H307 H 0.31574 0.19949 0.38621 0.0
H308 H 0.48801 0.21834 0.38724 0.0
H309 H 0.44845 0.32515 0.45656 0.0
H310 H 0.36537 0.25572 0.41279 0.0
H311 H 0.44787 0.2674 0.36568 0.0
O312 O 0.31068 0.4134 0.37503 0.0
H313 H 0.35042 0.41938 0.4746 0.0
H314 H 0.31749 0.48626 0.3955 0.0
H315 H 0.48827 0.27643 0.47916 0.0
H316 H 0.33246 0.26932 0.29908 0.0
H317 H 0.50833 0.22252 0.44442 0.0
H318 H 0.29907 0.20599 0.3289 0.0
O319 O 0.45368 0.38407 0.41455 0.0
H320 H 0.41539 0.49995 0.3076 0.0
H321 H 0.41167 0.49604 0.42513 0.0
H322 H 0.45184 0.5577 0.39799 0.0
H323 H 0.45369 0.56014 0.33875 0.0
H324 H 0.37646 0.43869 0.33563 0.0
H325 H 0.28684 0.53087 0.43176 0.0
H326 H 0.28846 0.51982 0.49033 0.0
O327 O 0.40802 0.41924 0.43472 0.0
C328 C 0.34409 0.33718 0.44045 0.0
C329 C 0.31972 0.46876 0.48623 0.0
C330 C 0.30075 0.50648 0.44136 0.0
N331 N 0.33589 0.4503 0.43291 0.0
C332 C 0.33666 0.44387 0.46509 0.0
C333 C 0.318 0.48099 0.42094 0.0
C334 C 0.30169 0.50028 0.47422 0.0
C335 C 0.36737 0.29751 0.33981 0.0
N336 N 0.37634 0.29378 0.37134 0.0
C337 C 0.3395 0.26608 0.32405 0.0
C338 C 0.32074 0.23059 0.3408 0.0
C339 C 0.33004 0.22695 0.37296 0.0
C340 C 0.35804 0.25902 0.38793 0.0
C341 C 0.47934 0.2416 0.40266 0.0
C342 C 0.45683 0.30165 0.44132 0.0
C343 C 0.45665 0.26954 0.39058 0.0
N344 N 0.44548 0.29896 0.40991 0.0
C345 C 0.47947 0.27419 0.45424 0.0
C346 C 0.49074 0.24397 0.43473 0.0
C347 C 0.44411 0.41058 0.4339 0.0
C348 C 0.4146 0.4994 0.33343 0.0
C349 C 0.41239 0.4966 0.39936 0.0
C350 C 0.43515 0.53175 0.38412 0.0
C351 C 0.43616 0.53312 0.3509 0.0
N352 N 0.39099 0.46368 0.3821 0.0
C353 C 0.3922 0.46476 0.34951 0.0
Co354 Co 0.39619 0.83065 0.894 0.0
Co355 Co 0.36171 0.92232 0.89684 0.0
O356 O 0.3775 0.87671 0.87287 0.0
C357 C 0.4624 0.85836 0.84567 0.0
O358 O 0.46421 0.8968 0.85508 0.0
C359 C 0.28937 0.89685 0.85302 0.0
O360 O 0.28858 0.85782 0.86002 0.0
O361 O 0.32142 0.88206 0.92285 0.0
O362 O 0.35573 0.83054 0.92965 0.0
H363 H 0.33124 0.99628 0.99632 0.0
H364 H 0.37026 0.82252 0.8262 0.0
O365 O 0.43684 0.82867 0.85868 0.0
H366 H 0.2766 0.70825 0.88198 0.0
H367 H 0.44198 0.69389 0.89707 0.0
H368 H 0.41493 0.81168 0.96084 0.0
H369 H 0.33126 0.75626 0.91148 0.0
H370 H 0.41803 0.75186 0.87115 0.0
O371 O 0.31697 0.92562 0.86513 0.0
H372 H 0.35068 0.93926 0.9655 0.0
H373 H 0.3383 1.00212 0.8788 0.0
H374 H 0.43828 0.75407 0.98779 0.0
H375 H 0.31628 0.77492 0.79568 0.0
H376 H 0.45201 0.69464 0.95583 0.0
H377 H 0.2689 0.71736 0.82362 0.0
O378 O 0.43948 0.87022 0.91834 0.0
H379 H 0.4303 0.97994 0.79476 0.0
H380 H 0.42882 0.99616 0.91176 0.0
H381 H 0.4803 0.04444 0.87982 0.0
H382 H 0.48122 0.03654 0.82086 0.0
H383 H 0.37958 0.93204 0.8277 0.0
H384 H 0.31808 0.05952 0.90866 0.0
H385 H 0.31473 0.05695 0.96787 0.0
O386 O 0.40601 0.9214 0.92912 0.0
C387 C 0.32618 0.84874 0.93648 0.0
C388 C 0.33265 0.9978 0.97053 0.0
C389 C 0.32524 0.03327 0.92133 0.0
N390 N 0.34585 0.96745 0.9204 0.0
C391 C 0.34374 0.96565 0.95295 0.0
C392 C 0.33655 1.00059 0.90454 0.0
C393 C 0.32338 0.03182 0.95455 0.0
C394 C 0.34998 0.79734 0.83847 0.0
N395 N 0.354 0.79213 0.87056 0.0
C396 C 0.31938 0.77057 0.82109 0.0
C397 C 0.29277 0.73832 0.83679 0.0
C398 C 0.29705 0.73321 0.86953 0.0
C399 C 0.32799 0.76059 0.88614 0.0
C400 C 0.43606 0.71959 0.91126 0.0
C401 C 0.42063 0.78582 0.94679 0.0
C402 C 0.42264 0.75258 0.8967 0.0
N403 N 0.41488 0.78503 0.91449 0.0
C404 C 0.43394 0.75334 0.96218 0.0
C405 C 0.44167 0.72002 0.94423 0.0
C406 C 0.43614 0.90316 0.93336 0.0
C407 C 0.43014 0.98376 0.82043 0.0
C408 C 0.42912 0.99237 0.88615 0.0
C409 C 0.45828 0.0199 0.86817 0.0
C410 C 0.45875 0.01547 0.83509 0.0
N411 N 0.40116 0.96134 0.87159 0.0
C412 C 0.4014 0.95684 0.83917 0.0
Co413 Co 0.68375 0.61769 0.63892 0.0
Co414 Co 0.59157 0.65185 0.64226 0.0
O415 O 0.63939 0.63583 0.66288 0.0
C416 C 0.66029 0.55211 0.68868 0.0
O417 O 0.62111 0.55392 0.68521 0.0
C418 C 0.5946 0.7351 0.67086 0.0
O419 O 0.59888 0.75013 0.64178 0.0
O420 O 0.62921 0.69178 0.61401 0.0
O421 O 0.68164 0.65942 0.60499 0.0
H422 H 0.50786 0.68364 0.54893 0.0
H423 H 0.69642 0.6414 0.70699 0.0
O424 O 0.68828 0.57541 0.67228 0.0
H425 H 0.80799 0.7357 0.64892 0.0
H426 H 0.81932 0.57102 0.62688 0.0
H427 H 0.69779 0.60155 0.57053 0.0
H428 H 0.75742 0.68264 0.62 0.0
H429 H 0.76373 0.59441 0.6567 0.0
O430 O 0.59305 0.69648 0.67561 0.0
H431 H 0.56778 0.66391 0.57533 0.0
H432 H 0.51358 0.67445 0.66624 0.0
H433 H 0.75298 0.57884 0.53973 0.0
H434 H 0.74665 0.69377 0.73695 0.0
H435 H 0.81428 0.56335 0.56793 0.0
H436 H 0.8029 0.74142 0.70787 0.0
O437 O 0.64242 0.57565 0.61523 0.0
H438 H 0.54281 0.58547 0.7472 0.0
H439 H 0.5169 0.58417 0.63129 0.0
H440 H 0.47126 0.53364 0.66572 0.0
H441 H 0.48397 0.53419 0.72416 0.0
H442 H 0.58814 0.63502 0.71181 0.0
H443 H 0.45326 0.69467 0.64084 0.0
H444 H 0.45008 0.69923 0.58176 0.0
O445 O 0.58882 0.60739 0.60904 0.0
C446 C 0.66212 0.68817 0.5992 0.0
C447 C 0.50888 0.68174 0.57469 0.0
C448 C 0.47823 0.68794 0.62628 0.0
N449 N 0.54413 0.66791 0.62227 0.0
C450 C 0.54269 0.67053 0.58977 0.0
C451 C 0.51249 0.67653 0.64052 0.0
C452 C 0.47647 0.69048 0.59313 0.0
C453 C 0.72097 0.66187 0.69421 0.0
N454 N 0.72406 0.65885 0.66181 0.0
C455 C 0.74925 0.69153 0.71128 0.0
C456 C 0.78077 0.71828 0.69494 0.0
C457 C 0.78364 0.71511 0.66188 0.0
C458 C 0.75481 0.68508 0.6456 0.0
C459 C 0.79279 0.57774 0.61431 0.0
C460 C 0.72449 0.59513 0.58296 0.0
C461 C 0.76114 0.59086 0.63108 0.0
N462 N 0.72764 0.59959 0.61535 0.0
C463 C 0.75559 0.58216 0.5654 0.0
C464 C 0.78995 0.57345 0.58124 0.0
C465 C 0.60793 0.57838 0.60247 0.0
C466 C 0.53689 0.58499 0.72178 0.0
C467 C 0.5229 0.58439 0.65663 0.0
C468 C 0.49681 0.55582 0.67605 0.0
C469 C 0.50393 0.55618 0.70883 0.0
N470 N 0.55515 0.6126 0.66951 0.0
C471 C 0.56233 0.61311 0.70164 0.0
H472 H 0.26577 0.33406 0.46894 0.0
H473 H 0.37697 0.28229 0.47463 0.0
H474 H 0.34734 0.23889 0.51891 0.0
H475 H 0.24657 0.33346 0.55588 0.0
H476 H 0.19094 0.31781 0.55242 0.0
H477 H 0.22065 0.34766 0.52106 0.0
H478 H 0.1892 0.291 0.47996 0.0
H479 H 0.15945 0.26098 0.51118 0.0
H480 H 0.19369 0.23801 0.48661 0.0
H481 H 0.30778 0.19841 0.55944 0.0
H482 H 0.25797 0.16081 0.59701 0.0
H483 H 0.16895 0.23578 0.57051 0.0
C484 C 0.28381 0.31372 0.47968 0.0
C485 C 0.32394 0.31196 0.46788 0.0
C486 C 0.34635 0.28468 0.4827 0.0
C487 C 0.32981 0.25968 0.50817 0.0
C488 C 0.29058 0.26187 0.51903 0.0
C489 C 0.26753 0.28793 0.50559 0.0
C490 C 0.22541 0.2823 0.52226 0.0
C491 C 0.22061 0.32272 0.53889 0.0
C492 C 0.18983 0.26717 0.49858 0.0
C493 C 0.22877 0.24867 0.54658 0.0
C494 C 0.26697 0.23793 0.54396 0.0
C495 C 0.27792 0.20686 0.56219 0.0
C496 C 0.2491 0.18569 0.58377 0.0
C497 C 0.20944 0.1956 0.5876 0.0
C498 C 0.19919 0.22789 0.56871 0.0
H499 H 0.72863 0.51756 0.68685 0.0
H500 H 0.62181 0.5258 0.74527 0.0
H501 H 0.64849 0.48667 0.78815 0.0
H502 H 0.73548 0.41164 0.71207 0.0
H503 H 0.79142 0.42349 0.71075 0.0
H504 H 0.7623 0.44958 0.68418 0.0
H505 H 0.80248 0.52082 0.70506 0.0
H506 H 0.83158 0.49504 0.73175 0.0
H507 H 0.80282 0.53176 0.74726 0.0
H508 H 0.69218 0.4554 0.82708 0.0
H509 H 0.74533 0.42758 0.85687 0.0
H510 H 0.82017 0.43399 0.77121 0.0
C511 C 0.71052 0.51056 0.7085 0.0
C512 C 0.67321 0.52473 0.71287 0.0
C513 C 0.65031 0.51495 0.74142 0.0
C514 C 0.66531 0.49288 0.76589 0.0
C515 C 0.70271 0.48006 0.76105 0.0
C516 C 0.72455 0.48786 0.73278 0.0
C517 C 0.76427 0.47148 0.73368 0.0
C518 C 0.76329 0.43699 0.70869 0.0
C519 C 0.80253 0.50689 0.72918 0.0
C520 C 0.76209 0.45426 0.76725 0.0
C521 C 0.72646 0.45974 0.78274 0.0
C522 C 0.71958 0.44996 0.81493 0.0
C523 C 0.74988 0.43428 0.83166 0.0
C524 C 0.78612 0.42777 0.81603 0.0
C525 C 0.79202 0.43744 0.78336 0.0
H526 H 0.53703 0.07343 0.06016 0.0
H527 H 0.63642 0.00706 0.07497 0.0
H528 H 0.6039 0.95435 0.03511 0.0
H529 H 0.45485 0.98442 0.05226 0.0
H530 H 0.42821 0.00822 0.02234 0.0
H531 H 0.45988 0.04002 0.05174 0.0
H532 H 0.50236 0.08315 1.00665 0.0
H533 H 0.47091 0.0514 0.97711 0.0
H534 H 0.52653 0.05704 0.97641 0.0
H535 H 0.55866 0.90859 0.99244 0.0
H536 H 0.5063 0.87551 0.95258 0.0
H537 H 0.43837 0.97367 0.96833 0.0
C538 C 0.55218 0.04786 0.0553 0.0
C539 C 0.58932 0.04444 0.07094 0.0
C540 C 0.60789 0.01037 0.06343 0.0
C541 C 0.58964 0.98029 0.04079 0.0
C542 C 0.55287 0.98475 0.02595 0.0
C543 C 0.5345 0.01781 0.03306 0.0
C544 C 0.49516 0.0161 1.01421 0.0
C545 C 0.4573 0.01192 0.03647 0.0
C546 C 0.499 0.05418 0.9923 0.0
C547 C 0.49402 0.97686 0.9952 0.0
C548 C 0.52742 0.959 1.00207 0.0
C549 C 0.53243 0.92243 0.98697 0.0
C550 C 0.50256 0.90386 0.96434 0.0
C551 C 0.46815 0.92191 0.9571 0.0
C552 C 0.46418 0.95885 0.973 0.0
H553 H 1.00292 0.78186 0.3484 0.0
H554 H 1.0042 0.89507 0.29534 0.0
H555 H 0.04527 0.87029 0.25259 0.0
H556 H 0.10923 0.7726 0.32677 0.0
H557 H 0.09526 0.7167 0.32476 0.0
H558 H 0.06821 0.74465 0.35174 0.0
H559 H 0.99811 0.70921 0.32622 0.0
H560 H 0.02487 0.68126 0.29914 0.0
H561 H 0.99109 0.71319 0.28376 0.0
H562 H 0.0779 0.82857 0.21275 0.0
H563 H 0.10592 0.77649 0.18141 0.0
H564 H 0.08903 0.69374 0.26269 0.0
C565 C 0.01234 0.80168 0.32796 0.0
C566 C 1.00037 0.84032 0.32504 0.0
C567 C 0.01332 0.86548 0.29806 0.0
C568 C 0.03653 0.8516 0.27368 0.0
C569 C 0.04724 0.81297 0.27706 0.0
C570 C 0.0362 0.78874 0.30383 0.0
C571 C 0.05092 0.74817 0.30153 0.0
C572 C 0.08281 0.74539 0.32776 0.0
C573 C 0.01405 0.71076 0.30272 0.0
C574 C 0.07103 0.75274 0.26886 0.0
C575 C 0.06837 0.79023 0.25502 0.0
C576 C 0.08119 0.79968 0.22367 0.0
C577 C 0.097 0.77004 0.20607 0.0
C578 C 0.10061 0.73193 0.2201 0.0
C579 C 0.08788 0.72338 0.25194 0.0
H580 H 0.27241 0.97397 0.84436 0.0
H581 H 0.23555 0.84603 0.81242 0.0
H582 H 0.18525 0.86671 0.77505 0.0
H583 H 0.16933 0.99883 0.84003 0.0
H584 H 0.18952 0.05108 0.8265 0.0
H585 H 0.22055 0.02558 0.85192 0.0
H586 H 0.28001 0.03868 0.8102 0.0
H587 H 0.24935 0.0645 0.78485 0.0
H588 H 0.26928 0.0212 0.76966 0.0
H589 H 0.14369 0.90325 0.73752 0.0
H590 H 0.11503 0.95222 0.70356 0.0
H591 H 0.17715 0.05502 0.76204 0.0
C592 C 0.2536 0.95013 0.8297 0.0
C593 C 0.258 0.90832 0.83131 0.0
C594 C 0.23263 0.8782 0.81172 0.0
C595 C 0.20394 0.88967 0.79046 0.0
C596 C 0.20058 0.93127 0.78942 0.0
C597 C 0.22465 0.96094 0.80869 0.0
C598 C 0.2164 1.00379 0.80234 0.0
C599 C 0.19784 0.02081 0.83197 0.0
C600 C 0.25612 0.03379 0.79108 0.0
C601 C 0.18472 0.99393 0.7758 0.0
C602 C 0.1757 0.95189 0.76877 0.0
C603 C 0.14974 0.93601 0.74336 0.0
C604 C 0.13335 0.96389 0.72435 0.0
C605 C 0.14267 0.00693 0.7311 0.0
C606 C 0.1682 0.02197 0.75734 0.0
H607 H 0.94779 0.47747 0.9694 0.0
H608 H 0.01335 0.37742 0.95384 0.0
H609 H 0.0626 0.40603 0.99689 0.0
H610 H 0.03667 0.55755 0.98477 0.0
H611 H 0.01088 0.58229 1.01485 0.0
H612 H 0.98128 0.55355 0.98296 0.0
H613 H 0.93389 0.50813 0.02438 0.0
H614 H 0.96343 0.53666 0.0564 0.0
H615 H 0.95686 0.48095 0.05446 0.0
H616 H 0.10558 0.44742 0.042 0.0
H617 H 0.13698 0.49659 0.08447 0.0
H618 H 0.04111 0.5674 0.06949 0.0
C619 C 0.97245 0.46138 0.97484 0.0
C620 C 0.9767 0.42521 0.95796 0.0
C621 C 1.00947 0.40528 0.96624 0.0
C622 C 0.03758 0.42128 0.99071 0.0
C623 C 0.03241 0.4571 1.00676 0.0
C624 C 1.00051 0.47675 0.9991 0.0
C625 C 1.00126 0.51466 0.01972 0.0
C626 C 1.00794 0.55435 0.99936 0.0
C627 C 0.9615 0.50978 0.03994 0.0
C628 C 0.03869 0.51351 0.04023 0.0
C629 C 0.05642 0.48022 0.03253 0.0
C630 C 0.09178 0.47349 0.04826 0.0
C631 C 0.10939 0.50156 0.07237 0.0
C632 C 0.09154 0.53588 0.08055 0.0
C633 C 0.05563 0.54152 0.06413 0.0
H634 H 0.51523 0.31569 0.33564 0.0
H635 H 0.46874 0.39656 0.26963 0.0
H636 H 0.50635 0.37015 0.22553 0.0
H637 H 0.61833 0.32342 0.29779 0.0
H638 H 0.6186 0.2697 0.30584 0.0
H639 H 0.59189 0.29844 0.33247 0.0
H640 H 0.52424 0.24279 0.3254 0.0
H641 H 0.55055 0.21397 0.29868 0.0
H642 H 0.50409 0.22998 0.28583 0.0
H643 H 0.54074 0.32758 0.18779 0.0
H644 H 0.57314 0.27608 0.15989 0.0
H645 H 0.60011 0.22538 0.25092 0.0
C646 C 0.51356 0.32853 0.31202 0.0
C647 C 0.489 0.35826 0.30608 0.0
C648 C 0.4876 0.37408 0.27482 0.0
C649 C 0.50879 0.35915 0.24962 0.0
C650 C 0.53176 0.32894 0.25621 0.0
C651 C 0.53476 0.31429 0.28677 0.0
C652 C 0.55953 0.28027 0.28739 0.0
C653 C 0.59947 0.29378 0.30703 0.0
C654 C 0.53302 0.23935 0.30006 0.0
C655 C 0.56913 0.27713 0.25221 0.0
C656 C 0.55284 0.30551 0.23462 0.0
C657 C 0.55445 0.30597 0.20138 0.0
C658 C 0.57283 0.27656 0.18575 0.0
C659 C 0.58984 0.24737 0.2033 0.0
C660 C 0.58849 0.24816 0.23697 0.0
H661 H 0.83021 0.78498 0.47058 0.0
H662 H 0.76269 0.88278 0.45271 0.0
H663 H 0.71026 0.85143 0.49311 0.0
H664 H 0.74233 0.70251 0.47952 0.0
H665 H 0.76635 0.67729 0.5102 0.0
H666 H 0.79796 0.70821 0.4804 0.0
H667 H 0.84047 0.75284 0.52486 0.0
H668 H 0.809 0.72209 0.55482 0.0
H669 H 0.8139 0.77766 0.55439 0.0
H670 H 0.66485 0.80722 0.53655 0.0
H671 H 0.63268 0.7563 0.5776 0.0
H672 H 0.73187 0.68922 0.56386 0.0
C673 C 0.80451 0.80011 0.4749 0.0
C674 C 0.80062 0.83639 0.45826 0.0
C675 C 0.76636 0.85493 0.46508 0.0
C676 C 0.73644 0.83732 0.48797 0.0
C677 C 0.7413 0.80125 0.50372 0.0
C678 C 0.77465 0.78305 0.49731 0.0
C679 C 0.77342 0.74448 0.51695 0.0
C680 C 0.76978 0.70585 0.49548 0.0
C681 C 0.81145 0.7496 0.53906 0.0
C682 C 0.7341 0.74355 0.53564 0.0
C683 C 0.71576 0.77637 0.52793 0.0
C684 C 0.67908 0.78147 0.5427 0.0
C685 C 0.66102 0.7524 0.56599 0.0
C686 C 0.67973 0.71874 0.57421 0.0
C687 C 0.7166 0.7145 0.55848 0.0
H688 H 0.22742 0.50573 0.19639 0.0
H689 H 0.11549 0.51444 0.24828 0.0
H690 H 0.13757 0.47489 0.29298 0.0
H691 H 0.22999 0.39973 0.22182 0.0
H692 H 0.28586 0.41033 0.22395 0.0
H693 H 0.26037 0.43804 0.1959 0.0
H694 H 0.29957 0.50804 0.21962 0.0
H695 H 0.32512 0.48061 0.24776 0.0
H696 H 0.29583 0.51768 0.2618 0.0
H697 H 0.17654 0.44138 0.33452 0.0
H698 H 0.22531 0.41031 0.36686 0.0
H699 H 0.30794 0.41766 0.28557 0.0
C700 C 0.20733 0.49893 0.21703 0.0
C701 C 0.16978 0.51322 0.21895 0.0
C702 C 0.14426 0.50357 0.24626 0.0
C703 C 0.15663 0.48125 0.27179 0.0
C704 C 0.19416 0.46806 0.2693 0.0
C705 C 0.21874 0.47594 0.24233 0.0
C706 C 0.25764 0.45848 0.24551 0.0
C707 C 0.25849 0.42463 0.2203 0.0
C708 C 0.29684 0.49328 0.24357 0.0
C709 C 0.25162 0.44022 0.27875 0.0
C710 C 0.21503 0.44639 0.29226 0.0
C711 C 0.20471 0.43546 0.32387 0.0
C712 C 0.2325 0.41786 0.34206 0.0
C713 C 0.26963 0.41054 0.32837 0.0
C714 C 0.279 0.42156 0.29624 0.0
H715 H 0.83277 0.28126 0.96176 0.0
H716 H 0.76807 0.38221 0.94785 0.0
H717 H 0.71531 0.35033 0.98737 0.0
H718 H 0.7421 0.19959 0.97106 0.0
H719 H 0.76553 0.17305 1.00125 0.0
H720 H 0.79752 0.20352 0.97139 0.0
H721 H 0.84177 0.24636 1.01584 0.0
H722 H 0.80986 0.21607 0.04582 0.0
H723 H 0.8166 0.27184 0.04586 0.0
H724 H 0.6696 0.30708 0.02928 0.0
H725 H 0.63603 0.25695 0.07016 0.0
H726 H 0.7318 0.1856 0.05604 0.0
C727 C 0.80746 0.29671 0.96681 0.0
C728 C 0.80462 0.33425 0.9515 0.0
C729 C 0.77099 0.35339 0.95913 0.0
C730 C 0.74081 0.33551 0.98157 0.0
C731 C 0.74468 0.29854 0.99622 0.0
C732 C 0.77723 0.27943 0.98913 0.0
C733 C 0.77486 0.24031 1.00853 0.0
C734 C 0.76968 0.20185 0.98675 0.0
C735 C 0.81304 0.24389 0.0303 0.0
C736 C 0.73592 0.24037 0.02769 0.0
C737 C 0.7188 0.27407 0.02029 0.0
C738 C 0.68277 0.28056 0.03524 0.0
C739 C 0.66391 0.25192 0.05844 0.0
C740 C 0.68122 0.2173 0.06651 0.0
C741 C 0.71763 0.21166 0.05066 0.0
H742 H 0.72818 0.96739 0.35489 0.0
H743 H 0.8095 0.9078 0.29799 0.0
H744 H 0.77864 0.92919 0.24883 0.0
H745 H 0.63687 0.94558 0.3001 0.0
H746 H 0.62452 0.99563 0.30748 0.0
H747 H 0.64864 0.97069 0.33827 0.0
H748 H 0.70802 0.03586 0.34255 0.0
H749 H 0.68425 0.0609 0.31174 0.0
H750 H 0.73719 0.05508 0.30731 0.0
H751 H 0.74533 0.96324 0.20629 0.0
H752 H 0.71173 0.00797 0.17276 0.0
H753 H 0.65141 0.04641 0.25646 0.0
C754 C 0.73861 0.95779 0.33209 0.0
C755 C 0.77096 0.93548 0.33028 0.0
C756 C 0.78461 0.92462 0.29997 0.0
C757 C 0.76718 0.93655 0.2719 0.0
C758 C 0.73608 0.95935 0.27447 0.0
C759 C 0.72173 0.96978 0.30375 0.0
C760 C 0.69064 0.99764 0.29977 0.0
C761 C 0.64761 0.97608 0.31214 0.0
C762 C 0.70596 0.03986 0.31632 0.0
C763 C 0.69062 1.00213 0.26372 0.0
C764 C 0.71676 0.97937 0.24967 0.0
C765 C 0.72428 0.98066 0.21696 0.0
C766 C 0.70512 1.00629 0.19812 0.0
C767 C 0.67865 0.03044 0.21192 0.0
C768 C 0.67077 0.02768 0.24513 0.0
H769 H 0.95035 0.98023 0.46434 0.0
H770 H 1.00529 0.87123 0.45972 0.0
H771 H 0.05488 0.90112 0.50207 0.0
H772 H 0.04579 0.0552 0.47717 0.0
H773 H 0.02208 0.08645 0.50394 0.0
H774 H 0.99162 0.05654 0.47296 0.0
H775 H 0.93895 0.02043 0.51533 0.0
H776 H 0.96931 0.05011 0.54644 0.0
H777 H 0.95709 0.99418 0.54843 0.0
H778 H 0.09735 0.94273 0.54658 0.0
H779 H 0.12927 0.9926 0.5883 0.0
H780 H 0.04686 0.07424 0.56185 0.0
C781 C 0.97291 0.96259 0.47197 0.0
C782 C 0.97389 0.92334 0.4585 0.0
C783 C 1.00394 0.90142 0.4695 0.0
C784 C 0.03224 0.91813 0.49359 0.0
C785 C 0.03025 0.95686 0.50636 0.0
C786 C 1.00141 0.97883 0.49579 0.0
C787 C 1.00532 0.01962 0.51346 0.0
C788 C 0.0169 0.05663 0.49051 0.0
C789 C 0.96529 0.02115 0.53201 0.0
C790 C 0.04074 0.01714 0.53582 0.0
C791 C 0.05475 0.98076 0.53148 0.0
C792 C 0.08671 0.9714 0.55006 0.0
C793 C 0.10463 0.99992 0.57374 0.0
C794 C 0.0906 0.0374 0.57858 0.0
C795 C 0.05842 0.04597 0.55902 0.0
H796 H 0.97112 0.30263 0.80382 0.0
H797 H 0.07928 0.3577 0.85998 0.0
H798 H 0.12468 0.33477 0.81969 0.0
H799 H 1.00611 0.21282 0.78263 0.0
H800 H 0.98449 0.20866 0.74297 0.0
H801 H 0.96084 0.23367 0.77408 0.0
H802 H 0.96847 0.30003 0.7396 0.0
H803 H 0.99194 0.27514 0.70824 0.0
H804 H 0.01881 0.32431 0.72422 0.0
H805 H 0.15799 0.30085 0.77532 0.0
H806 H 0.17621 0.25868 0.73064 0.0
H807 H 0.0461 0.22486 0.70413 0.0
C808 C 1.00442 0.31085 0.80723 0.0
C809 C 0.0217 0.33242 0.83489 0.0
C810 C 0.06537 0.34145 0.83888 0.0
C811 C 0.09142 0.32858 0.81611 0.0
C812 C 0.07337 0.30654 0.78947 0.0
C813 C 0.03085 0.29783 0.78489 0.0
C814 C 0.01904 0.27104 0.75549 0.0
C815 C 0.99097 0.22907 0.76433 0.0
C816 C 0.99835 0.29402 0.7304 0.0
C817 C 0.06147 0.26563 0.74447 0.0
C818 C 0.09246 0.28657 0.76422 0.0
C819 C 0.13399 0.28469 0.7595 0.0
C820 C 0.14407 0.26063 0.73405 0.0
C821 C 0.11272 0.23859 0.71369 0.0
C822 C 0.07095 0.24158 0.719 0.0
H823 H 0.55268 0.70989 0.72626 0.0
H824 H 0.61226 0.82002 0.6742 0.0
H825 H 0.58886 0.86422 0.71528 0.0
H826 H 0.46328 0.74618 0.74634 0.0
H827 H 0.45688 0.7224 0.78522 0.0
H828 H 0.48251 0.69969 0.75397 0.0
H829 H 0.5471 0.70378 0.79 0.0
H830 H 0.52153 0.72626 0.82151 0.0
H831 H 0.57173 0.75291 0.80738 0.0
H832 H 0.55498 0.89628 0.76059 0.0
H833 H 0.51242 0.91319 0.80553 0.0
H834 H 0.47318 0.78169 0.82637 0.0
C835 C 0.56174 0.74333 0.72391 0.0
C836 C 0.58478 0.76157 0.69723 0.0
C837 C 0.59488 0.80542 0.69456 0.0
C838 C 0.58176 0.83077 0.71779 0.0
C839 C 0.5583 0.81178 0.74346 0.0
C840 C 0.5484 0.76903 0.74663 0.0
C841 C 0.52021 0.75621 0.77504 0.0
C842 C 0.47824 0.72956 0.7645 0.0
C843 C 0.54142 0.73345 0.79996 0.0
C844 C 0.51541 0.79836 0.78717 0.0
C845 C 0.53793 0.83009 0.76888 0.0
C846 C 0.53744 0.87167 0.77519 0.0
C847 C 0.51317 0.88099 0.80076 0.0
C848 C 0.48942 0.84885 0.81951 0.0
C849 C 0.49092 0.80707 0.81256 0.0
H850 H 0.23421 0.67828 0.06648 0.0
H851 H 0.13604 0.74546 0.08466 0.0
H852 H 0.16627 0.79729 0.04398 0.0
H853 H 0.3161 0.76739 0.05543 0.0
H854 H 0.34094 0.74352 0.02425 0.0
H855 H 0.3112 0.7118 0.0546 0.0
H856 H 0.26603 0.66832 1.0109 0.0
H857 H 0.29562 0.69994 0.98043 0.0
H858 H 0.24001 0.69418 0.98187 0.0
H859 H 0.20825 0.84236 1.00094 0.0
H860 H 0.2576 0.87568 0.9594 0.0
H861 H 0.32734 0.77816 0.97062 0.0
C862 C 0.21893 0.70384 0.06205 0.0
C863 C 0.18273 0.70773 0.07896 0.0
C864 C 0.16383 0.74174 0.07213 0.0
C865 C 0.18078 0.77138 0.04905 0.0
C866 C 0.2166 0.76661 0.03296 0.0
C867 C 0.23536 0.73361 0.03919 0.0
C868 C 0.27357 0.73537 0.01875 0.0
C869 C 0.31276 0.7398 0.0395 0.0
C870 C 0.26847 0.69719 0.99668 0.0
C871 C 0.27347 0.77456 1.00002 0.0
C872 C 0.24045 0.79224 1.00844 0.0
C873 C 0.2342 0.82871 0.99415 0.0
C874 C 0.26239 0.84743 0.97057 0.0
C875 C 0.29639 0.82961 0.96155 0.0
C876 C 0.30175 0.79273 0.97672 0.0
H877 H 0.43745 0.47308 0.47589 0.0
H878 H 0.52115 0.39394 0.44632 0.0
H879 H 0.57174 0.42693 0.48706 0.0
H880 H 0.51613 0.56492 0.48939 0.0
H881 H 0.4898 0.58134 0.52331 0.0
H882 H 0.46032 0.55096 0.4921 0.0
H883 H 0.42612 0.49648 0.53384 0.0
H884 H 0.45571 0.52653 0.56516 0.0
H885 H 0.45853 0.47287 0.55948 0.0
H886 H 0.61308 0.46871 0.53185 0.0
H887 H 0.64263 0.51747 0.57489 0.0
H888 H 0.53183 0.56966 0.57354 0.0
C889 C 0.46644 0.46266 0.47775 0.0
C890 C 0.47525 0.43089 0.45771 0.0
C891 C 0.51365 0.4183 0.46124 0.0
C892 C 0.54256 0.43678 0.48439 0.0
C893 C 0.53275 0.46794 0.50375 0.0
C894 C 0.49568 0.48092 0.50048 0.0
C895 C 0.49272 0.51541 0.5238 0.0
C896 C 0.48957 0.55553 0.50609 0.0
C897 C 0.4561 0.502 0.54694 0.0
C898 C 0.53393 0.51985 0.5408 0.0
C899 C 0.55655 0.49211 0.52906 0.0
C900 C 0.59561 0.49057 0.54119 0.0
C901 C 0.61209 0.51834 0.56573 0.0
C902 C 0.58962 0.54746 0.57779 0.0
C903 C 0.54992 0.54784 0.56507 0.0
loop_
_geom_bond_atom_site_label_1
_geom_bond_atom_site_label_2
_geom_bond_distance
_geom_bond_site_symmetry_2
_ccdc_geom_bond_type
Co0 O2 2.143 . S
Co0 O8 2.074 . S
Co0 O11 2.093 . S
Co0 O24 2.097 . S
Co0 N41 2.151 . S
Co0 N49 2.214 . S
Co1 O2 2.160 . S
Co1 O7 2.058 . S
Co1 O17 2.057 . S
Co1 O32 2.037 . S
Co1 N36 2.145 . S
Co1 N57 2.257 . S
O2 Co0 2.143 . S
O2 Co1 2.160 . S
C3 O4 1.278 . S
C3 O11 1.224 . S
O4 C3 1.278 . S
C5 O6 1.245 . S
C5 O17 1.232 . S
O6 C5 1.245 . S
O7 Co1 2.058 . S
O7 C33 1.269 . S
O8 Co0 2.074 . S
O8 C33 1.257 . S
H9 C34 0.930 . S
H10 C40 0.930 . S
O11 Co0 2.093 . S
O11 C3 1.224 . S
H12 C44 0.929 . S
H13 C46 0.930 . S
H14 C47 0.930 . S
H15 C45 0.929 . S
H16 C48 0.928 . S
O17 Co1 2.057 . S
O17 C5 1.232 . S
H18 C37 0.929 . S
H19 C38 0.929 . S
H20 C50 0.931 . S
H21 C42 0.929 . S
H22 C51 0.930 . S
H23 C43 0.931 . S
O24 Co0 2.097 . S
O24 C52 1.214 . S
H25 C53 0.929 . S
H26 C54 0.929 . S
H27 C55 0.930 . S
H28 C56 0.929 . S
H29 C58 0.930 . S
H30 C35 0.930 . S
H31 C39 0.930 . S
O32 Co1 2.037 . S
O32 C52 1.234 . S
C33 O7 1.269 . S
C33 O8 1.257 . S
C34 H9 0.930 . S
C34 C37 1.388 1_655 S
C34 C39 1.418 . S
C35 H30 0.930 . S
C35 C38 1.404 1_655 S
C35 C39 1.353 . S
N36 Co1 2.145 . S
N36 C37 1.397 . S
N36 C38 1.334 . S
C37 H18 0.929 . S
C37 C34 1.388 1_455 S
C37 N36 1.397 . S
C38 H19 0.929 . S
C38 C35 1.404 1_455 S
C38 N36 1.334 . S
C39 H31 0.930 . S
C39 C34 1.418 . S
C39 C35 1.353 . S
C40 H10 0.930 . S
C40 N41 1.330 . S
C40 C42 1.446 . S
N41 Co0 2.151 . S
N41 C40 1.330 . S
N41 C45 1.418 . S
C42 H21 0.929 . S
C42 C40 1.446 . S
C42 C43 1.332 . S
C43 H23 0.931 . S
C43 C42 1.332 . S
C43 C44 1.267 . S
C44 H12 0.929 . S
C44 C43 1.267 . S
C44 C45 1.251 . S
C45 H15 0.929 . S
C45 N41 1.418 . S
C45 C44 1.251 . S
C46 H13 0.930 . S
C46 C48 1.406 . S
C46 C51 1.261 . S
C47 H14 0.930 . S
C47 N49 1.325 . S
C47 C50 1.357 . S
C48 H16 0.928 . S
C48 C46 1.406 . S
C48 N49 1.261 . S
N49 Co0 2.214 . S
N49 C47 1.325 . S
N49 C48 1.261 . S
C50 H20 0.931 . S
C50 C47 1.357 . S
C50 C51 1.312 . S
C51 H22 0.930 . S
C51 C46 1.261 . S
C51 C50 1.312 . S
C52 O24 1.214 . S
C52 O32 1.234 . S
C53 H25 0.929 . S
C53 C56 1.391 1_455 S
C53 C58 1.391 . S
C54 H26 0.929 . S
C54 C55 1.390 1_455 S
C54 N57 1.391 . S
C55 H27 0.930 . S
C55 C54 1.390 1_655 S
C55 C56 1.392 . S
C56 H28 0.929 . S
C56 C53 1.391 1_655 S
C56 C55 1.392 . S
N57 Co1 2.257 . S
N57 C54 1.391 . S
N57 C58 1.388 . S
C58 H29 0.930 . S
C58 C53 1.391 . S
C58 N57 1.388 . S
Co59 O61 2.143 . S
Co59 O67 2.074 . S
Co59 O70 2.093 . S
Co59 O83 2.097 . S
Co59 N100 2.151 . S
Co59 N108 2.214 . S
Co60 O61 2.160 . S
Co60 O66 2.058 . S
Co60 O76 2.057 . S
Co60 O91 2.037 . S
Co60 N95 2.145 . S
Co60 N116 2.257 . S
O61 Co59 2.143 . S
O61 Co60 2.160 . S
C62 O63 1.278 . S
C62 O70 1.224 . S
O63 C62 1.278 . S
C64 O65 1.245 . S
C64 O76 1.232 . S
O65 C64 1.245 . S
O66 Co60 2.058 . S
O66 C92 1.269 . S
O67 Co59 2.074 . S
O67 C92 1.257 . S
H68 C93 0.930 . S
H69 C99 0.930 . S
O70 Co59 2.093 . S
O70 C62 1.224 . S
H71 C103 0.929 . S
H72 C105 0.930 . S
H73 C106 0.930 . S
H74 C104 0.929 . S
H75 C107 0.928 . S
O76 Co60 2.057 . S
O76 C64 1.232 . S
H77 C96 0.929 . S
H78 C97 0.929 . S
H79 C109 0.931 . S
H80 C101 0.929 . S
H81 C110 0.930 . S
H82 C102 0.931 . S
O83 Co59 2.097 . S
O83 C111 1.214 . S
H84 C112 0.929 . S
H85 C113 0.929 . S
H86 C114 0.930 . S
H87 C115 0.929 . S
H88 C117 0.930 . S
H89 C94 0.930 . S
H90 C98 0.930 . S
O91 Co60 2.037 . S
O91 C111 1.234 . S
C92 O66 1.269 . S
C92 O67 1.257 . S
C93 H68 0.930 . S
C93 C96 1.388 . S
C93 C98 1.418 . S
C94 H89 0.930 . S
C94 C97 1.404 . S
C94 C98 1.353 . S
N95 Co60 2.145 . S
N95 C96 1.397 . S
N95 C97 1.334 . S
C96 H77 0.929 . S
C96 C93 1.388 . S
C96 N95 1.397 . S
C97 H78 0.929 . S
C97 C94 1.404 . S
C97 N95 1.334 . S
C98 H90 0.930 . S
C98 C93 1.418 . S
C98 C94 1.353 . S
C99 H69 0.930 . S
C99 N100 1.330 . S
C99 C101 1.446 . S
N100 Co59 2.151 . S
N100 C99 1.330 . S
N100 C104 1.418 . S
C101 H80 0.929 . S
C101 C99 1.446 . S
C101 C102 1.332 . S
C102 H82 0.931 . S
C102 C101 1.332 . S
C102 C103 1.267 . S
C103 H71 0.929 . S
C103 C102 1.267 . S
C103 C104 1.251 . S
C104 H74 0.929 . S
C104 N100 1.418 . S
C104 C103 1.251 . S
C105 H72 0.930 . S
C105 C107 1.406 . S
C105 C110 1.261 . S
C106 H73 0.930 . S
C106 N108 1.325 . S
C106 C109 1.357 . S
C107 H75 0.928 . S
C107 C105 1.406 . S
C107 N108 1.261 . S
N108 Co59 2.214 . S
N108 C106 1.325 . S
N108 C107 1.261 . S
C109 H79 0.931 . S
C109 C106 1.357 . S
C109 C110 1.312 . S
C110 H81 0.930 . S
C110 C105 1.261 . S
C110 C109 1.312 . S
C111 O83 1.214 . S
C111 O91 1.234 . S
C112 H84 0.929 . S
C112 C115 1.391 . S
C112 C117 1.391 . S
C113 H85 0.929 . S
C113 C114 1.390 . S
C113 N116 1.391 . S
C114 H86 0.930 . S
C114 C113 1.390 . S
C114 C115 1.392 . S
C115 H87 0.929 . S
C115 C112 1.391 . S
C115 C114 1.392 . S
N116 Co60 2.257 . S
N116 C113 1.391 . S
N116 C117 1.388 . S
C117 H88 0.930 . S
C117 C112 1.391 . S
C117 N116 1.388 . S
Co118 O120 2.143 . S
Co118 O126 2.074 . S
Co118 O129 2.093 . S
Co118 O142 2.097 . S
Co118 N159 2.151 . S
Co118 N167 2.214 . S
Co119 O120 2.160 . S
Co119 O125 2.058 . S
Co119 O135 2.057 . S
Co119 O150 2.037 . S
Co119 N154 2.145 . S
Co119 N175 2.257 . S
O120 Co118 2.143 . S
O120 Co119 2.160 . S
C121 O122 1.278 . S
C121 O129 1.224 . S
O122 C121 1.278 . S
C123 O124 1.245 . S
C123 O135 1.232 . S
O124 C123 1.245 . S
O125 Co119 2.058 . S
O125 C151 1.269 . S
O126 Co118 2.074 . S
O126 C151 1.257 . S
H127 C152 0.930 . S
H128 C158 0.930 . S
O129 Co118 2.093 . S
O129 C121 1.224 . S
H130 C162 0.929 . S
H131 C164 0.930 . S
H132 C165 0.930 . S
H133 C163 0.929 . S
H134 C166 0.928 . S
O135 Co119 2.057 . S
O135 C123 1.232 . S
H136 C155 0.929 . S
H137 C156 0.929 . S
H138 C168 0.931 . S
H139 C160 0.929 . S
H140 C169 0.930 . S
H141 C161 0.931 . S
O142 Co118 2.097 . S
O142 C170 1.214 . S
H143 C171 0.929 . S
H144 C172 0.929 . S
H145 C173 0.930 . S
H146 C174 0.929 . S
H147 C176 0.930 . S
H148 C153 0.930 . S
H149 C157 0.930 . S
O150 Co119 2.037 . S
O150 C170 1.234 . S
C151 O125 1.269 . S
C151 O126 1.257 . S
C152 H127 0.930 . S
C152 C155 1.388 . S
C152 C157 1.418 . S
C153 H148 0.930 . S
C153 C156 1.404 . S
C153 C157 1.353 . S
N154 Co119 2.145 . S
N154 C155 1.397 . S
N154 C156 1.334 . S
C155 H136 0.929 . S
C155 C152 1.388 . S
C155 N154 1.397 . S
C156 H137 0.929 . S
C156 C153 1.404 . S
C156 N154 1.334 . S
C157 H149 0.930 . S
C157 C152 1.418 . S
C157 C153 1.353 . S
C158 H128 0.930 . S
C158 N159 1.330 . S
C158 C160 1.446 . S
N159 Co118 2.151 . S
N159 C158 1.330 . S
N159 C163 1.418 . S
C160 H139 0.929 . S
C160 C158 1.446 . S
C160 C161 1.332 . S
C161 H141 0.931 . S
C161 C160 1.332 . S
C161 C162 1.267 . S
C162 H130 0.929 . S
C162 C161 1.267 . S
C162 C163 1.251 . S
C163 H133 0.929 . S
C163 N159 1.418 . S
C163 C162 1.251 . S
C164 H131 0.930 . S
C164 C166 1.406 . S
C164 C169 1.261 . S
C165 H132 0.930 . S
C165 N167 1.325 . S
C165 C168 1.357 . S
C166 H134 0.928 . S
C166 C164 1.406 . S
C166 N167 1.261 . S
N167 Co118 2.214 . S
N167 C165 1.325 . S
N167 C166 1.261 . S
C168 H138 0.931 . S
C168 C165 1.357 . S
C168 C169 1.312 . S
C169 H140 0.930 . S
C169 C164 1.261 . S
C169 C168 1.312 . S
C170 O142 1.214 . S
C170 O150 1.234 . S
C171 H143 0.929 . S
C171 C174 1.391 . S
C171 C176 1.391 . S
C172 H144 0.929 . S
C172 C173 1.390 . S
C172 N175 1.391 . S
C173 H145 0.930 . S
C173 C172 1.390 . S
C173 C174 1.392 . S
C174 H146 0.929 . S
C174 C171 1.391 . S
C174 C173 1.392 . S
N175 Co119 2.257 . S
N175 C172 1.391 . S
N175 C176 1.388 . S
C176 H147 0.930 . S
C176 C171 1.391 . S
C176 N175 1.388 . S
Co177 O179 2.143 . S
Co177 O185 2.074 . S
Co177 O188 2.093 . S
Co177 O201 2.097 . S
Co177 N218 2.151 . S
Co177 N226 2.214 . S
Co178 O179 2.160 . S
Co178 O184 2.058 . S
Co178 O194 2.057 . S
Co178 O209 2.037 . S
Co178 N213 2.145 . S
Co178 N234 2.257 . S
O179 Co177 2.143 . S
O179 Co178 2.160 . S
C180 O181 1.278 . S
C180 O188 1.224 . S
O181 C180 1.278 . S
C182 O183 1.245 . S
C182 O194 1.232 . S
O183 C182 1.245 . S
O184 Co178 2.058 . S
O184 C210 1.269 . S
O185 Co177 2.074 . S
O185 C210 1.257 . S
H186 C211 0.930 . S
H187 C217 0.930 . S
O188 Co177 2.093 . S
O188 C180 1.224 . S
H189 C221 0.929 . S
H190 C223 0.930 . S
H191 C224 0.930 . S
H192 C222 0.929 . S
H193 C225 0.928 . S
O194 Co178 2.057 . S
O194 C182 1.232 . S
H195 C214 0.929 . S
H196 C215 0.929 . S
H197 C227 0.931 . S
H198 C219 0.929 . S
H199 C228 0.930 . S
H200 C220 0.931 . S
O201 Co177 2.097 . S
O201 C229 1.214 . S
H202 C230 0.929 . S
H203 C231 0.929 . S
H204 C232 0.930 . S
H205 C233 0.929 . S
H206 C235 0.930 . S
H207 C212 0.930 . S
H208 C216 0.930 . S
O209 Co178 2.037 . S
O209 C229 1.234 . S
C210 O184 1.269 . S
C210 O185 1.257 . S
C211 H186 0.930 . S
C211 C214 1.388 1_545 S
C211 C216 1.418 . S
C212 H207 0.930 . S
C212 C215 1.404 1_545 S
C212 C216 1.353 . S
N213 Co178 2.145 . S
N213 C214 1.397 . S
N213 C215 1.334 . S
C214 H195 0.929 . S
C214 C211 1.388 1_565 S
C214 N213 1.397 . S
C215 H196 0.929 . S
C215 C212 1.404 1_565 S
C215 N213 1.334 . S
C216 H208 0.930 . S
C216 C211 1.418 . S
C216 C212 1.353 . S
C217 H187 0.930 . S
C217 N218 1.330 . S
C217 C219 1.446 . S
N218 Co177 2.151 . S
N218 C217 1.330 . S
N218 C222 1.418 . S
C219 H198 0.929 . S
C219 C217 1.446 . S
C219 C220 1.332 . S
C220 H200 0.931 . S
C220 C219 1.332 . S
C220 C221 1.267 . S
C221 H189 0.929 . S
C221 C220 1.267 . S
C221 C222 1.251 . S
C222 H192 0.929 . S
C222 N218 1.418 . S
C222 C221 1.251 . S
C223 H190 0.930 . S
C223 C225 1.406 . S
C223 C228 1.261 . S
C224 H191 0.930 . S
C224 N226 1.325 . S
C224 C227 1.357 . S
C225 H193 0.928 . S
C225 C223 1.406 . S
C225 N226 1.261 . S
N226 Co177 2.214 . S
N226 C224 1.325 . S
N226 C225 1.261 . S
C227 H197 0.931 . S
C227 C224 1.357 . S
C227 C228 1.312 . S
C228 H199 0.930 . S
C228 C223 1.261 . S
C228 C227 1.312 . S
C229 O201 1.214 . S
C229 O209 1.234 . S
C230 H202 0.929 . S
C230 C233 1.391 1_565 S
C230 C235 1.391 . S
C231 H203 0.929 . S
C231 C232 1.390 1_565 S
C231 N234 1.391 . S
C232 H204 0.930 . S
C232 C231 1.390 1_545 S
C232 C233 1.392 . S
C233 H205 0.929 . S
C233 C230 1.391 1_545 S
C233 C232 1.392 . S
N234 Co178 2.257 . S
N234 C231 1.391 . S
N234 C235 1.388 . S
C235 H206 0.930 . S
C235 C230 1.391 . S
C235 N234 1.388 . S
Co236 O238 2.143 . S
Co236 O244 2.074 . S
Co236 O247 2.093 . S
Co236 O260 2.097 . S
Co236 N277 2.151 . S
Co236 N285 2.214 . S
Co237 O238 2.160 . S
Co237 O243 2.058 . S
Co237 O253 2.057 . S
Co237 O268 2.037 . S
Co237 N272 2.145 . S
Co237 N293 2.257 . S
O238 Co236 2.143 . S
O238 Co237 2.160 . S
C239 O240 1.278 . S
C239 O247 1.224 . S
O240 C239 1.278 . S
C241 O242 1.245 . S
C241 O253 1.232 . S
O242 C241 1.245 . S
O243 Co237 2.058 . S
O243 C269 1.269 . S
O244 Co236 2.074 . S
O244 C269 1.257 . S
H245 C270 0.930 . S
H246 C276 0.930 . S
O247 Co236 2.093 . S
O247 C239 1.224 . S
H248 C280 0.929 . S
H249 C282 0.930 . S
H250 C283 0.930 . S
H251 C281 0.929 . S
H252 C284 0.928 . S
O253 Co237 2.057 . S
O253 C241 1.232 . S
H254 C273 0.929 . S
H255 C274 0.929 . S
H256 C286 0.931 . S
H257 C278 0.929 . S
H258 C287 0.930 . S
H259 C279 0.931 . S
O260 Co236 2.097 . S
O260 C288 1.214 . S
H261 C289 0.929 . S
H262 C290 0.929 . S
H263 C291 0.930 . S
H264 C292 0.929 . S
H265 C294 0.930 . S
H266 C271 0.930 . S
H267 C275 0.930 . S
O268 Co237 2.037 . S
O268 C288 1.234 . S
C269 O243 1.269 . S
C269 O244 1.257 . S
C270 H245 0.930 . S
C270 C273 1.388 1_655 S
C270 C275 1.418 . S
C271 H266 0.930 . S
C271 C274 1.404 1_655 S
C271 C275 1.353 . S
N272 Co237 2.145 . S
N272 C273 1.397 . S
N272 C274 1.334 . S
C273 H254 0.929 . S
C273 C270 1.388 1_455 S
C273 N272 1.397 . S
C274 H255 0.929 . S
C274 C271 1.404 1_455 S
C274 N272 1.334 . S
C275 H267 0.930 . S
C275 C270 1.418 . S
C275 C271 1.353 . S
C276 H246 0.930 . S
C276 N277 1.330 . S
C276 C278 1.446 . S
N277 Co236 2.151 . S
N277 C276 1.330 . S
N277 C281 1.418 . S
C278 H257 0.929 . S
C278 C276 1.446 . S
C278 C279 1.332 . S
C279 H259 0.931 . S
C279 C278 1.332 . S
C279 C280 1.267 . S
C280 H248 0.929 . S
C280 C279 1.267 . S
C280 C281 1.251 . S
C281 H251 0.929 . S
C281 N277 1.418 . S
C281 C280 1.251 . S
C282 H249 0.930 . S
C282 C284 1.406 . S
C282 C287 1.261 . S
C283 H250 0.930 . S
C283 N285 1.325 . S
C283 C286 1.357 . S
C284 H252 0.928 . S
C284 C282 1.406 . S
C284 N285 1.261 . S
N285 Co236 2.214 . S
N285 C283 1.325 . S
N285 C284 1.261 . S
C286 H256 0.931 . S
C286 C283 1.357 . S
C286 C287 1.312 . S
C287 H258 0.930 . S
C287 C282 1.261 . S
C287 C286 1.312 . S
C288 O260 1.214 . S
C288 O268 1.234 . S
C289 H261 0.929 . S
C289 C292 1.391 1_455 S
C289 C294 1.391 . S
C290 H262 0.929 . S
C290 C291 1.390 1_455 S
C290 N293 1.391 . S
C291 H263 0.930 . S
C291 C290 1.390 1_655 S
C291 C292 1.392 . S
C292 H264 0.929 . S
C292 C289 1.391 1_655 S
C292 C291 1.392 . S
N293 Co237 2.257 . S
N293 C290 1.391 . S
N293 C294 1.388 . S
C294 H265 0.930 . S
C294 C289 1.391 . S
C294 N293 1.388 . S
Co295 O297 2.143 . S
Co295 O303 2.074 . S
Co295 O306 2.093 . S
Co295 O319 2.097 . S
Co295 N336 2.151 . S
Co295 N344 2.214 . S
Co296 O297 2.160 . S
Co296 O302 2.058 . S
Co296 O312 2.057 . S
Co296 O327 2.037 . S
Co296 N331 2.145 . S
Co296 N352 2.257 . S
O297 Co295 2.143 . S
O297 Co296 2.160 . S
C298 O299 1.278 . S
C298 O306 1.224 . S
O299 C298 1.278 . S
C300 O301 1.245 . S
C300 O312 1.232 . S
O301 C300 1.245 . S
O302 Co296 2.058 . S
O302 C328 1.269 . S
O303 Co295 2.074 . S
O303 C328 1.257 . S
H304 C329 0.930 . S
H305 C335 0.930 . S
O306 Co295 2.093 . S
O306 C298 1.224 . S
H307 C339 0.929 . S
H308 C341 0.930 . S
H309 C342 0.930 . S
H310 C340 0.929 . S
H311 C343 0.928 . S
O312 Co296 2.057 . S
O312 C300 1.232 . S
H313 C332 0.929 . S
H314 C333 0.929 . S
H315 C345 0.931 . S
H316 C337 0.929 . S
H317 C346 0.930 . S
H318 C338 0.931 . S
O319 Co295 2.097 . S
O319 C347 1.214 . S
H320 C348 0.929 . S
H321 C349 0.929 . S
H322 C350 0.930 . S
H323 C351 0.929 . S
H324 C353 0.930 . S
H325 C330 0.930 . S
H326 C334 0.930 . S
O327 Co296 2.037 . S
O327 C347 1.234 . S
C328 O302 1.269 . S
C328 O303 1.257 . S
C329 H304 0.930 . S
C329 C332 1.388 . S
C329 C334 1.418 . S
C330 H325 0.930 . S
C330 C333 1.404 . S
C330 C334 1.353 . S
N331 Co296 2.145 . S
N331 C332 1.397 . S
N331 C333 1.334 . S
C332 H313 0.929 . S
C332 C329 1.388 . S
C332 N331 1.397 . S
C333 H314 0.929 . S
C333 C330 1.404 . S
C333 N331 1.334 . S
C334 H326 0.930 . S
C334 C329 1.418 . S
C334 C330 1.353 . S
C335 H305 0.930 . S
C335 N336 1.330 . S
C335 C337 1.446 . S
N336 Co295 2.151 . S
N336 C335 1.330 . S
N336 C340 1.418 . S
C337 H316 0.929 . S
C337 C335 1.446 . S
C337 C338 1.332 . S
C338 H318 0.931 . S
C338 C337 1.332 . S
C338 C339 1.267 . S
C339 H307 0.929 . S
C339 C338 1.267 . S
C339 C340 1.251 . S
C340 H310 0.929 . S
C340 N336 1.418 . S
C340 C339 1.251 . S
C341 H308 0.930 . S
C341 C343 1.406 . S
C341 C346 1.261 . S
C342 H309 0.930 . S
C342 N344 1.325 . S
C342 C345 1.357 . S
C343 H311 0.928 . S
C343 C341 1.406 . S
C343 N344 1.261 . S
N344 Co295 2.214 . S
N344 C342 1.325 . S
N344 C343 1.261 . S
C345 H315 0.931 . S
C345 C342 1.357 . S
C345 C346 1.312 . S
C346 H317 0.930 . S
C346 C341 1.261 . S
C346 C345 1.312 . S
C347 O319 1.214 . S
C347 O327 1.234 . S
C348 H320 0.929 . S
C348 C351 1.391 . S
C348 C353 1.391 . S
C349 H321 0.929 . S
C349 C350 1.390 . S
C349 N352 1.391 . S
C350 H322 0.930 . S
C350 C349 1.390 . S
C350 C351 1.392 . S
C351 H323 0.929 . S
C351 C348 1.391 . S
C351 C350 1.392 . S
N352 Co296 2.257 . S
N352 C349 1.391 . S
N352 C353 1.388 . S
C353 H324 0.930 . S
C353 C348 1.391 . S
C353 N352 1.388 . S
Co354 O356 2.143 . S
Co354 O362 2.074 . S
Co354 O365 2.093 . S
Co354 O378 2.097 . S
Co354 N395 2.151 . S
Co354 N403 2.214 . S
Co355 O356 2.160 . S
Co355 O361 2.058 . S
Co355 O371 2.057 . S
Co355 O386 2.037 . S
Co355 N390 2.145 . S
Co355 N411 2.257 . S
O356 Co354 2.143 . S
O356 Co355 2.160 . S
C357 O358 1.278 . S
C357 O365 1.224 . S
O358 C357 1.278 . S
C359 O360 1.245 . S
C359 O371 1.232 . S
O360 C359 1.245 . S
O361 Co355 2.058 . S
O361 C387 1.269 . S
O362 Co354 2.074 . S
O362 C387 1.257 . S
H363 C388 0.930 . S
H364 C394 0.930 . S
O365 Co354 2.093 . S
O365 C357 1.224 . S
H366 C398 0.929 . S
H367 C400 0.930 . S
H368 C401 0.930 . S
H369 C399 0.929 . S
H370 C402 0.928 . S
O371 Co355 2.057 . S
O371 C359 1.232 . S
H372 C391 0.929 . S
H373 C392 0.929 . S
H374 C404 0.931 . S
H375 C396 0.929 . S
H376 C405 0.930 . S
H377 C397 0.931 . S
O378 Co354 2.097 . S
O378 C406 1.214 . S
H379 C407 0.929 . S
H380 C408 0.929 . S
H381 C409 0.930 . S
H382 C410 0.929 . S
H383 C412 0.930 . S
H384 C389 0.930 . S
H385 C393 0.930 . S
O386 Co355 2.037 . S
O386 C406 1.234 . S
C387 O361 1.269 . S
C387 O362 1.257 . S
C388 H363 0.930 . S
C388 C391 1.388 1_545 S
C388 C393 1.418 . S
C389 H384 0.930 . S
C389 C392 1.404 1_545 S
C389 C393 1.353 . S
N390 Co355 2.145 . S
N390 C391 1.397 . S
N390 C392 1.334 . S
C391 H372 0.929 . S
C391 C388 1.388 1_565 S
C391 N390 1.397 . S
C392 H373 0.929 . S
C392 C389 1.404 1_565 S
C392 N390 1.334 . S
C393 H385 0.930 . S
C393 C388 1.418 . S
C393 C389 1.353 . S
C394 H364 0.930 . S
C394 N395 1.330 . S
C394 C396 1.446 . S
N395 Co354 2.151 . S
N395 C394 1.330 . S
N395 C399 1.418 . S
C396 H375 0.929 . S
C396 C394 1.446 . S
C396 C397 1.332 . S
C397 H377 0.931 . S
C397 C396 1.332 . S
C397 C398 1.267 . S
C398 H366 0.929 . S
C398 C397 1.267 . S
C398 C399 1.251 . S
C399 H369 0.929 . S
C399 N395 1.418 . S
C399 C398 1.251 . S
C400 H367 0.930 . S
C400 C402 1.406 . S
C400 C405 1.261 . S
C401 H368 0.930 . S
C401 N403 1.325 . S
C401 C404 1.357 . S
C402 H370 0.928 . S
C402 C400 1.406 . S
C402 N403 1.261 . S
N403 Co354 2.214 . S
N403 C401 1.325 . S
N403 C402 1.261 . S
C404 H374 0.931 . S
C404 C401 1.357 . S
C404 C405 1.312 . S
C405 H376 0.930 . S
C405 C400 1.261 . S
C405 C404 1.312 . S
C406 O378 1.214 . S
C406 O386 1.234 . S
C407 H379 0.929 . S
C407 C410 1.391 1_565 S
C407 C412 1.391 . S
C408 H380 0.929 . S
C408 C409 1.390 1_565 S
C408 N411 1.391 . S
C409 H381 0.930 . S
C409 C408 1.390 1_545 S
C409 C410 1.392 . S
C410 H382 0.929 . S
C410 C407 1.391 1_545 S
C410 C409 1.392 . S
N411 Co355 2.257 . S
N411 C408 1.391 . S
N411 C412 1.388 . S
C412 H383 0.930 . S
C412 C407 1.391 . S
C412 N411 1.388 . S
Co413 O415 2.143 . S
Co413 O421 2.074 . S
Co413 O424 2.093 . S
Co413 O437 2.097 . S
Co413 N454 2.151 . S
Co413 N462 2.214 . S
Co414 O415 2.160 . S
Co414 O420 2.058 . S
Co414 O430 2.057 . S
Co414 O445 2.037 . S
Co414 N449 2.145 . S
Co414 N470 2.257 . S
O415 Co413 2.143 . S
O415 Co414 2.160 . S
C416 O417 1.278 . S
C416 O424 1.224 . S
O417 C416 1.278 . S
C418 O419 1.245 . S
C418 O430 1.232 . S
O419 C418 1.245 . S
O420 Co414 2.058 . S
O420 C446 1.269 . S
O421 Co413 2.074 . S
O421 C446 1.257 . S
H422 C447 0.930 . S
H423 C453 0.930 . S
O424 Co413 2.093 . S
O424 C416 1.224 . S
H425 C457 0.929 . S
H426 C459 0.930 . S
H427 C460 0.930 . S
H428 C458 0.929 . S
H429 C461 0.928 . S
O430 Co414 2.057 . S
O430 C418 1.232 . S
H431 C450 0.929 . S
H432 C451 0.929 . S
H433 C463 0.931 . S
H434 C455 0.929 . S
H435 C464 0.930 . S
H436 C456 0.931 . S
O437 Co413 2.097 . S
O437 C465 1.214 . S
H438 C466 0.929 . S
H439 C467 0.929 . S
H440 C468 0.930 . S
H441 C469 0.929 . S
H442 C471 0.930 . S
H443 C448 0.930 . S
H444 C452 0.930 . S
O445 Co414 2.037 . S
O445 C465 1.234 . S
C446 O420 1.269 . S
C446 O421 1.257 . S
C447 H422 0.930 . S
C447 C450 1.388 . S
C447 C452 1.418 . S
C448 H443 0.930 . S
C448 C451 1.404 . S
C448 C452 1.353 . S
N449 Co414 2.145 . S
N449 C450 1.397 . S
N449 C451 1.334 . S
C450 H431 0.929 . S
C450 C447 1.388 . S
C450 N449 1.397 . S
C451 H432 0.929 . S
C451 C448 1.404 . S
C451 N449 1.334 . S
C452 H444 0.930 . S
C452 C447 1.418 . S
C452 C448 1.353 . S
C453 H423 0.930 . S
C453 N454 1.330 . S
C453 C455 1.446 . S
N454 Co413 2.151 . S
N454 C453 1.330 . S
N454 C458 1.418 . S
C455 H434 0.929 . S
C455 C453 1.446 . S
C455 C456 1.332 . S
C456 H436 0.931 . S
C456 C455 1.332 . S
C456 C457 1.267 . S
C457 H425 0.929 . S
C457 C456 1.267 . S
C457 C458 1.251 . S
C458 H428 0.929 . S
C458 N454 1.418 . S
C458 C457 1.251 . S
C459 H426 0.930 . S
C459 C461 1.406 . S
C459 C464 1.261 . S
C460 H427 0.930 . S
C460 N462 1.325 . S
C460 C463 1.357 . S
C461 H429 0.928 . S
C461 C459 1.406 . S
C461 N462 1.261 . S
N462 Co413 2.214 . S
N462 C460 1.325 . S
N462 C461 1.261 . S
C463 H433 0.931 . S
C463 C460 1.357 . S
C463 C464 1.312 . S
C464 H435 0.930 . S
C464 C459 1.261 . S
C464 C463 1.312 . S
C465 O437 1.214 . S
C465 O445 1.234 . S
C466 H438 0.929 . S
C466 C469 1.391 . S
C466 C471 1.391 . S
C467 H439 0.929 . S
C467 C468 1.390 . S
C467 N470 1.391 . S
C468 H440 0.930 . S
C468 C467 1.390 . S
C468 C469 1.392 . S
C469 H441 0.929 . S
C469 C466 1.391 . S
C469 C468 1.392 . S
N470 Co414 2.257 . S
N470 C467 1.391 . S
N470 C471 1.388 . S
C471 H442 0.930 . S
C471 C466 1.391 . S
C471 N470 1.388 . S
H472 C484 0.930 . S
H473 C486 0.930 . S
H474 C487 0.930 . S
H475 C491 0.959 . S
H476 C491 0.959 . S
H477 C491 0.961 . S
H478 C492 0.960 . S
H479 C492 0.961 . S
H480 C492 0.959 . S
H481 C495 0.929 . S
H482 C496 0.931 . S
H483 C498 0.930 . S
C484 H472 0.930 . S
C484 C485 1.399 . S
C484 C489 1.399 . S
C485 C484 1.399 . S
C485 C486 1.376 . S
C486 H473 0.930 . S
C486 C485 1.376 . S
C486 C487 1.388 . S
C487 H474 0.930 . S
C487 C486 1.388 . S
C487 C488 1.390 . S
C488 C487 1.390 . S
C488 C489 1.394 . S
C488 C494 1.465 . S
C489 C484 1.399 . S
C489 C488 1.394 . S
C489 C490 1.516 . S
C490 C489 1.516 . S
C490 C491 1.502 . S
C490 C492 1.561 . S
C490 C493 1.526 . S
C491 H475 0.959 . S
C491 H476 0.959 . S
C491 H477 0.961 . S
C491 C490 1.502 . S
C492 H478 0.960 . S
C492 H479 0.961 . S
C492 H480 0.959 . S
C492 C490 1.561 . S
C493 C490 1.526 . S
C493 C494 1.396 . S
C493 C498 1.390 . S
C494 C488 1.465 . S
C494 C493 1.396 . S
C494 C495 1.399 . S
C495 H481 0.929 . S
C495 C494 1.399 . S
C495 C496 1.385 . S
C496 H482 0.931 . S
C496 C495 1.385 . S
C496 C497 1.389 . S
C497 C496 1.389 . S
C497 C498 1.387 . S
C498 H483 0.930 . S
C498 C493 1.390 . S
C498 C497 1.387 . S
H499 C511 0.930 . S
H500 C513 0.930 . S
H501 C514 0.930 . S
H502 C518 0.959 . S
H503 C518 0.959 . S
H504 C518 0.961 . S
H505 C519 0.960 . S
H506 C519 0.961 . S
H507 C519 0.959 . S
H508 C522 0.929 . S
H509 C523 0.931 . S
H510 C525 0.930 . S
C511 H499 0.930 . S
C511 C512 1.399 . S
C511 C516 1.399 . S
C512 C511 1.399 . S
C512 C513 1.376 . S
C513 H500 0.930 . S
C513 C512 1.376 . S
C513 C514 1.388 . S
C514 H501 0.930 . S
C514 C513 1.388 . S
C514 C515 1.390 . S
C515 C514 1.390 . S
C515 C516 1.394 . S
C515 C521 1.465 . S
C516 C511 1.399 . S
C516 C515 1.394 . S
C516 C517 1.516 . S
C517 C516 1.516 . S
C517 C518 1.502 . S
C517 C519 1.561 . S
C517 C520 1.526 . S
C518 H502 0.959 . S
C518 H503 0.959 . S
C518 H504 0.961 . S
C518 C517 1.502 . S
C519 H505 0.960 . S
C519 H506 0.961 . S
C519 H507 0.959 . S
C519 C517 1.561 . S
C520 C517 1.526 . S
C520 C521 1.396 . S
C520 C525 1.390 . S
C521 C515 1.465 . S
C521 C520 1.396 . S
C521 C522 1.399 . S
C522 H508 0.929 . S
C522 C521 1.399 . S
C522 C523 1.385 . S
C523 H509 0.931 . S
C523 C522 1.385 . S
C523 C524 1.389 . S
C524 C523 1.389 . S
C524 C525 1.387 . S
C525 H510 0.930 . S
C525 C520 1.390 . S
C525 C524 1.387 . S
H526 C538 0.930 . S
H527 C540 0.930 . S
H528 C541 0.939 . S
H529 C545 0.959 . S
H530 C545 0.959 . S
H531 C545 0.961 . S
H532 C546 0.960 . S
H533 C546 0.961 . S
H534 C546 0.959 1_545 S
H535 C549 0.918 1_545 S
H536 C550 0.931 . S
H537 C552 0.930 . S
C538 H526 0.930 . S
C538 C539 1.399 . S
C538 C543 1.399 1_545 S
C539 C538 1.399 . S
C539 C540 1.376 . S
C540 H527 0.930 . S
C540 C539 1.376 . S
C540 C541 1.379 1_554 S
C541 H528 0.939 . S
C541 C540 1.379 1_556 S
C541 C542 1.389 1_556 S
C542 C541 1.389 1_554 S
C542 C543 1.394 1_545 S
C542 C548 1.465 1_544 S
C543 C538 1.399 1_565 S
C543 C542 1.394 1_565 S
C543 C544 1.516 . S
C544 C543 1.516 . S
C544 C545 1.502 . S
C544 C546 1.561 . S
C544 C547 1.526 1_554 S
C545 H529 0.959 . S
C545 H530 0.959 . S
C545 H531 0.961 . S
C545 C544 1.502 . S
C546 H532 0.960 . S
C546 H533 0.961 . S
C546 H534 0.959 1_565 S
C546 C544 1.561 . S
C547 C544 1.526 1_556 S
C547 C548 1.396 . S
C547 C552 1.390 . S
C548 C542 1.465 1_566 S
C548 C547 1.396 . S
C548 C549 1.399 . S
C549 H535 0.918 1_565 S
C549 C548 1.399 . S
C549 C550 1.385 . S
C550 H536 0.931 . S
C550 C549 1.385 . S
C550 C551 1.389 . S
C551 C550 1.389 . S
C551 C552 1.387 . S
C552 H537 0.930 . S
C552 C547 1.390 . S
C552 C551 1.387 . S
H553 C565 0.930 1_455 S
H554 C567 0.930 . S
H555 C568 0.930 . S
H556 C572 0.959 . S
H557 C572 0.959 . S
H558 C572 0.961 . S
H559 C573 0.960 . S
H560 C573 0.961 . S
H561 C573 0.961 . S
H562 C576 0.929 1_655 S
H563 C577 0.931 . S
H564 C579 0.930 . S
C565 H553 0.930 1_655 S
C565 C566 1.399 . S
C565 C570 1.399 1_655 S
C566 C565 1.399 . S
C566 C567 1.376 . S
C567 H554 0.930 . S
C567 C566 1.376 . S
C567 C568 1.388 . S
C568 H555 0.930 . S
C568 C567 1.388 . S
C568 C569 1.390 . S
C569 C568 1.390 . S
C569 C570 1.394 1_655 S
C569 C575 1.465 1_655 S
C570 C565 1.399 1_455 S
C570 C569 1.394 1_455 S
C570 C571 1.516 . S
C571 C570 1.516 . S
C571 C572 1.502 . S
C571 C573 1.561 . S
C571 C574 1.526 . S
C572 H556 0.959 . S
C572 H557 0.959 . S
C572 H558 0.961 . S
C572 C571 1.502 . S
C573 H559 0.960 . S
C573 H560 0.961 . S
C573 H561 0.961 . S
C573 C571 1.561 . S
C574 C571 1.526 . S
C574 C575 1.396 . S
C574 C579 1.390 . S
C575 C569 1.465 1_455 S
C575 C574 1.396 . S
C575 C576 1.399 . S
C576 H562 0.929 1_455 S
C576 C575 1.399 . S
C576 C577 1.385 . S
C577 H563 0.931 . S
C577 C576 1.385 . S
C577 C578 1.389 . S
C578 C577 1.389 . S
C578 C579 1.387 . S
C579 H564 0.930 . S
C579 C574 1.390 . S
C579 C578 1.387 . S
H580 C592 0.930 . S
H581 C594 0.930 . S
H582 C595 0.930 . S
H583 C599 0.959 . S
H584 C599 0.959 . S
H585 C599 0.961 . S
H586 C600 0.960 . S
H587 C600 0.961 . S
H588 C600 0.959 . S
H589 C603 0.929 . S
H590 C604 0.931 . S
H591 C606 0.930 . S
C592 H580 0.930 . S
C592 C593 1.399 . S
C592 C597 1.399 . S
C593 C592 1.399 . S
C593 C594 1.376 . S
C594 H581 0.930 . S
C594 C593 1.376 . S
C594 C595 1.388 . S
C595 H582 0.930 . S
C595 C594 1.388 . S
C595 C596 1.390 . S
C596 C595 1.390 . S
C596 C597 1.394 . S
C596 C602 1.465 . S
C597 C592 1.399 . S
C597 C596 1.394 . S
C597 C598 1.516 1_565 S
C598 C597 1.516 1_545 S
C598 C599 1.502 . S
C598 C600 1.561 . S
C598 C601 1.526 . S
C599 H583 0.959 . S
C599 H584 0.959 . S
C599 H585 0.961 . S
C599 C598 1.502 . S
C600 H586 0.960 . S
C600 H587 0.961 . S
C600 H588 0.959 . S
C600 C598 1.561 . S
C601 C598 1.526 . S
C601 C602 1.396 1_545 S
C601 C606 1.390 . S
C602 C596 1.465 . S
C602 C601 1.396 1_565 S
C602 C603 1.399 . S
C603 H589 0.929 . S
C603 C602 1.399 . S
C603 C604 1.385 . S
C604 H590 0.931 . S
C604 C603 1.385 . S
C604 C605 1.389 1_565 S
C605 C604 1.389 1_545 S
C605 C606 1.387 . S
C606 H591 0.930 . S
C606 C601 1.390 . S
C606 C605 1.387 . S
H607 C619 0.930 . S
H608 C621 0.933 . S
H609 C622 0.930 . S
H610 C626 0.959 . S
H611 C626 0.959 . S
H612 C626 0.961 . S
H613 C627 0.960 . S
H614 C627 0.961 . S
H615 C627 0.959 1_455 S
H616 C630 0.939 . S
H617 C631 0.931 . S
H618 C633 0.930 . S
C619 H607 0.930 . S
C619 C620 1.399 . S
C619 C624 1.399 . S
C620 C619 1.399 . S
C620 C621 1.376 . S
C621 H608 0.933 . S
C621 C620 1.376 . S
C621 C622 1.388 1_655 S
C622 H609 0.930 . S
C622 C621 1.388 1_455 S
C622 C623 1.390 . S
C623 C622 1.390 . S
C623 C624 1.394 1_455 S
C623 C629 1.465 1_556 S
C624 C619 1.399 . S
C624 C623 1.394 1_655 S
C624 C625 1.516 1_556 S
C625 C624 1.516 1_554 S
C625 C626 1.502 . S
C625 C627 1.561 . S
C625 C628 1.526 1_655 S
C626 H610 0.959 . S
C626 H611 0.959 . S
C626 H612 0.961 . S
C626 C625 1.502 . S
C627 H613 0.960 . S
C627 H614 0.961 . S
C627 H615 0.959 1_655 S
C627 C625 1.561 . S
C628 C625 1.526 1_455 S
C628 C629 1.396 . S
C628 C633 1.390 . S
C629 C623 1.465 1_554 S
C629 C628 1.396 . S
C629 C630 1.398 1_554 S
C630 H616 0.939 . S
C630 C629 1.398 1_556 S
C630 C631 1.376 1_556 S
C631 H617 0.931 . S
C631 C630 1.376 1_554 S
C631 C632 1.389 . S
C632 C631 1.389 . S
C632 C633 1.387 . S
C633 H618 0.930 . S
C633 C628 1.390 . S
C633 C632 1.387 . S
H634 C646 0.930 . S
H635 C648 0.930 . S
H636 C649 0.930 . S
H637 C653 0.959 . S
H638 C653 0.959 . S
H639 C653 0.961 . S
H640 C654 0.960 . S
H641 C654 0.961 . S
H642 C654 0.959 . S
H643 C657 0.929 . S
H644 C658 0.931 . S
H645 C660 0.930 . S
C646 H634 0.930 . S
C646 C647 1.399 . S
C646 C651 1.399 . S
C647 C646 1.399 . S
C647 C648 1.376 . S
C648 H635 0.930 . S
C648 C647 1.376 . S
C648 C649 1.388 . S
C649 H636 0.930 . S
C649 C648 1.388 . S
C649 C650 1.390 . S
C650 C649 1.390 . S
C650 C651 1.394 . S
C650 C656 1.465 . S
C651 C646 1.399 . S
C651 C650 1.394 . S
C651 C652 1.516 . S
C652 C651 1.516 . S
C652 C653 1.502 . S
C652 C654 1.561 . S
C652 C655 1.526 . S
C653 H637 0.959 . S
C653 H638 0.959 . S
C653 H639 0.961 . S
C653 C652 1.502 . S
C654 H640 0.960 . S
C654 H641 0.961 . S
C654 H642 0.959 . S
C654 C652 1.561 . S
C655 C652 1.526 . S
C655 C656 1.396 . S
C655 C660 1.390 . S
C656 C650 1.465 . S
C656 C655 1.396 . S
C656 C657 1.399 . S
C657 H643 0.929 . S
C657 C656 1.399 . S
C657 C658 1.385 . S
C658 H644 0.931 . S
C658 C657 1.385 . S
C658 C659 1.389 . S
C659 C658 1.389 . S
C659 C660 1.387 . S
C660 H645 0.930 . S
C660 C655 1.390 . S
C660 C659 1.387 . S
H661 C673 0.930 . S
H662 C675 0.930 . S
H663 C676 0.930 . S
H664 C680 0.959 . S
H665 C680 0.959 . S
H666 C680 0.961 . S
H667 C681 0.960 . S
H668 C681 0.961 . S
H669 C681 0.959 . S
H670 C684 0.929 . S
H671 C685 0.931 . S
H672 C687 0.930 . S
C673 H661 0.930 . S
C673 C674 1.399 . S
C673 C678 1.399 . S
C674 C673 1.399 . S
C674 C675 1.376 . S
C675 H662 0.930 . S
C675 C674 1.376 . S
C675 C676 1.388 . S
C676 H663 0.930 . S
C676 C675 1.388 . S
C676 C677 1.390 . S
C677 C676 1.390 . S
C677 C678 1.394 . S
C677 C683 1.465 . S
C678 C673 1.399 . S
C678 C677 1.394 . S
C678 C679 1.516 . S
C679 C678 1.516 . S
C679 C680 1.502 . S
C679 C681 1.561 . S
C679 C682 1.526 . S
C680 H664 0.959 . S
C680 H665 0.959 . S
C680 H666 0.961 . S
C680 C679 1.502 . S
C681 H667 0.960 . S
C681 H668 0.961 . S
C681 H669 0.959 . S
C681 C679 1.561 . S
C682 C679 1.526 . S
C682 C683 1.396 . S
C682 C687 1.390 . S
C683 C677 1.465 . S
C683 C682 1.396 . S
C683 C684 1.399 . S
C684 H670 0.929 . S
C684 C683 1.399 . S
C684 C685 1.385 . S
C685 H671 0.931 . S
C685 C684 1.385 . S
C685 C686 1.389 . S
C686 C685 1.389 . S
C686 C687 1.387 . S
C687 H672 0.930 . S
C687 C682 1.390 . S
C687 C686 1.387 . S
H688 C700 0.930 . S
H689 C702 0.930 . S
H690 C703 0.930 . S
H691 C707 0.959 . S
H692 C707 0.959 . S
H693 C707 0.961 . S
H694 C708 0.960 . S
H695 C708 0.961 . S
H696 C708 0.959 . S
H697 C711 0.929 . S
H698 C712 0.931 . S
H699 C714 0.930 . S
C700 H688 0.930 . S
C700 C701 1.399 . S
C700 C705 1.399 . S
C701 C700 1.399 . S
C701 C702 1.376 . S
C702 H689 0.930 . S
C702 C701 1.376 . S
C702 C703 1.388 . S
C703 H690 0.930 . S
C703 C702 1.388 . S
C703 C704 1.390 . S
C704 C703 1.390 . S
C704 C705 1.394 . S
C704 C710 1.465 . S
C705 C700 1.399 . S
C705 C704 1.394 . S
C705 C706 1.516 . S
C706 C705 1.516 . S
C706 C707 1.502 . S
C706 C708 1.561 . S
C706 C709 1.526 . S
C707 H691 0.959 . S
C707 H692 0.959 . S
C707 H693 0.961 . S
C707 C706 1.502 . S
C708 H694 0.960 . S
C708 H695 0.961 . S
C708 H696 0.959 . S
C708 C706 1.561 . S
C709 C706 1.526 . S
C709 C710 1.396 . S
C709 C714 1.390 . S
C710 C704 1.465 . S
C710 C709 1.396 . S
C710 C711 1.399 . S
C711 H697 0.929 . S
C711 C710 1.399 . S
C711 C712 1.385 . S
C712 H698 0.931 . S
C712 C711 1.385 . S
C712 C713 1.389 . S
C713 C712 1.389 . S
C713 C714 1.387 . S
C714 H699 0.930 . S
C714 C709 1.390 . S
C714 C713 1.387 . S
H715 C727 0.930 . S
H716 C729 0.930 . S
H717 C730 0.930 . S
H718 C734 0.959 . S
H719 C734 0.959 . S
H720 C734 0.961 . S
H721 C735 0.960 . S
H722 C735 0.961 . S
H723 C735 0.959 . S
H724 C738 0.955 . S
H725 C739 0.931 . S
H726 C741 0.930 . S
C727 H715 0.930 . S
C727 C728 1.399 . S
C727 C732 1.399 . S
C728 C727 1.399 . S
C728 C729 1.376 . S
C729 H716 0.930 . S
C729 C728 1.376 . S
C729 C730 1.388 . S
C730 H717 0.930 . S
C730 C729 1.388 . S
C730 C731 1.390 . S
C731 C730 1.390 . S
C731 C732 1.394 . S
C731 C737 1.465 1_556 S
C732 C727 1.399 . S
C732 C731 1.394 . S
C732 C733 1.516 1_556 S
C733 C732 1.516 1_554 S
C733 C734 1.502 . S
C733 C735 1.561 . S
C733 C736 1.526 . S
C734 H718 0.959 . S
C734 H719 0.959 . S
C734 H720 0.961 . S
C734 C733 1.502 . S
C735 H721 0.960 . S
C735 H722 0.961 . S
C735 H723 0.959 . S
C735 C733 1.561 . S
C736 C733 1.526 . S
C736 C737 1.396 . S
C736 C741 1.390 . S
C737 C731 1.465 1_554 S
C737 C736 1.396 . S
C737 C738 1.397 1_554 S
C738 H724 0.955 . S
C738 C737 1.397 1_556 S
C738 C739 1.361 1_556 S
C739 H725 0.931 . S
C739 C738 1.361 1_554 S
C739 C740 1.389 . S
C740 C739 1.389 . S
C740 C741 1.387 . S
C741 H726 0.930 . S
C741 C736 1.390 . S
C741 C740 1.387 . S
H742 C754 0.930 . S
H743 C756 0.930 . S
H744 C757 0.930 1_545 S
H745 C761 0.959 . S
H746 C761 0.959 . S
H747 C761 0.961 . S
H748 C762 0.960 . S
H749 C762 0.961 . S
H750 C762 0.958 1_545 S
H751 C765 0.929 . S
H752 C766 0.931 . S
H753 C768 0.930 1_565 S
C754 H742 0.930 . S
C754 C755 1.399 . S
C754 C759 1.399 . S
C755 C754 1.399 . S
C755 C756 1.376 . S
C756 H743 0.930 . S
C756 C755 1.376 . S
C756 C757 1.388 . S
C757 H744 0.930 1_565 S
C757 C756 1.388 . S
C757 C758 1.390 . S
C758 C757 1.390 . S
C758 C759 1.394 . S
C758 C764 1.465 1_565 S
C759 C754 1.399 . S
C759 C758 1.394 . S
C759 C760 1.516 . S
C760 C759 1.516 . S
C760 C761 1.502 . S
C760 C762 1.561 . S
C760 C763 1.526 . S
C761 H745 0.959 . S
C761 H746 0.959 . S
C761 H747 0.961 . S
C761 C760 1.502 . S
C762 H748 0.960 . S
C762 H749 0.961 . S
C762 H750 0.958 1_565 S
C762 C760 1.561 . S
C763 C760 1.526 . S
C763 C764 1.396 1_565 S
C763 C768 1.390 1_565 S
C764 C758 1.465 1_545 S
C764 C763 1.396 1_545 S
C764 C765 1.399 . S
C765 H751 0.929 . S
C765 C764 1.399 . S
C765 C766 1.385 . S
C766 H752 0.931 . S
C766 C765 1.385 . S
C766 C767 1.389 . S
C767 C766 1.389 . S
C767 C768 1.387 . S
C768 H753 0.930 1_545 S
C768 C763 1.390 1_545 S
C768 C767 1.387 . S
H769 C781 0.930 . S
H770 C783 0.930 . S
H771 C784 0.930 . S
H772 C788 0.959 . S
H773 C788 0.959 . S
H774 C788 0.961 1_655 S
H775 C789 0.960 . S
H776 C789 0.961 . S
H777 C789 0.959 . S
H778 C792 0.929 . S
H779 C793 0.931 . S
H780 C795 0.930 . S
C781 H769 0.930 . S
C781 C782 1.399 . S
C781 C786 1.399 . S
C782 C781 1.399 . S
C782 C783 1.376 . S
C783 H770 0.930 . S
C783 C782 1.376 . S
C783 C784 1.388 1_655 S
C784 H771 0.930 . S
C784 C783 1.388 1_455 S
C784 C785 1.390 . S
C785 C784 1.390 . S
C785 C786 1.394 1_455 S
C785 C791 1.465 . S
C786 C781 1.399 . S
C786 C785 1.394 1_655 S
C786 C787 1.516 1_565 S
C787 C786 1.516 1_545 S
C787 C788 1.502 1_655 S
C787 C789 1.561 . S
C787 C790 1.526 1_655 S
C788 H772 0.959 . S
C788 H773 0.959 . S
C788 H774 0.961 1_455 S
C788 C787 1.502 1_455 S
C789 H775 0.960 . S
C789 H776 0.961 . S
C789 H777 0.959 . S
C789 C787 1.561 . S
C790 C787 1.526 1_455 S
C790 C791 1.396 1_545 S
C790 C795 1.390 . S
C791 C785 1.465 . S
C791 C790 1.396 1_565 S
C791 C792 1.399 . S
C792 H778 0.929 . S
C792 C791 1.399 . S
C792 C793 1.385 . S
C793 H779 0.931 . S
C793 C792 1.385 . S
C793 C794 1.389 1_565 S
C794 C793 1.389 1_545 S
C794 C795 1.387 . S
C795 H780 0.930 . S
C795 C790 1.390 . S
C795 C794 1.387 . S
H796 C808 0.930 . S
H797 C810 0.930 . S
H798 C811 0.930 . S
H799 C815 0.959 . S
H800 C815 0.959 . S
H801 C815 0.961 . S
H802 C816 0.960 . S
H803 C816 0.961 . S
H804 C816 0.959 . S
H805 C819 0.929 . S
H806 C820 0.931 . S
H807 C822 0.930 . S
C808 H796 0.930 . S
C808 C809 1.399 . S
C808 C813 1.399 . S
C809 C808 1.399 . S
C809 C810 1.376 1_655 S
C810 H797 0.930 . S
C810 C809 1.376 1_455 S
C810 C811 1.388 . S
C811 H798 0.930 . S
C811 C810 1.388 . S
C811 C812 1.390 . S
C812 C811 1.390 . S
C812 C813 1.394 1_455 S
C812 C818 1.465 . S
C813 C808 1.399 . S
C813 C812 1.394 1_655 S
C813 C814 1.516 . S
C814 C813 1.516 . S
C814 C815 1.502 . S
C814 C816 1.561 . S
C814 C817 1.526 1_655 S
C815 H799 0.959 . S
C815 H800 0.959 . S
C815 H801 0.961 . S
C815 C814 1.502 . S
C816 H802 0.960 . S
C816 H803 0.961 . S
C816 H804 0.959 . S
C816 C814 1.561 . S
C817 C814 1.526 1_455 S
C817 C818 1.396 . S
C817 C822 1.390 . S
C818 C812 1.465 . S
C818 C817 1.396 . S
C818 C819 1.399 . S
C819 H805 0.929 . S
C819 C818 1.399 . S
C819 C820 1.385 . S
C820 H806 0.931 . S
C820 C819 1.385 . S
C820 C821 1.389 . S
C821 C820 1.389 . S
C821 C822 1.387 . S
C822 H807 0.930 . S
C822 C817 1.390 . S
C822 C821 1.387 . S
H823 C835 0.930 . S
H824 C837 0.930 . S
H825 C838 0.930 . S
H826 C842 0.959 . S
H827 C842 0.959 . S
H828 C842 0.961 . S
H829 C843 0.960 . S
H830 C843 0.961 . S
H831 C843 0.959 . S
H832 C846 0.929 . S
H833 C847 0.931 . S
H834 C849 0.930 . S
C835 H823 0.930 . S
C835 C836 1.399 . S
C835 C840 1.399 . S
C836 C835 1.399 . S
C836 C837 1.376 . S
C837 H824 0.930 . S
C837 C836 1.376 . S
C837 C838 1.388 . S
C838 H825 0.930 . S
C838 C837 1.388 . S
C838 C839 1.390 . S
C839 C838 1.390 . S
C839 C840 1.394 . S
C839 C845 1.465 . S
C840 C835 1.399 . S
C840 C839 1.394 . S
C840 C841 1.516 . S
C841 C840 1.516 . S
C841 C842 1.502 . S
C841 C843 1.561 . S
C841 C844 1.526 . S
C842 H826 0.959 . S
C842 H827 0.959 . S
C842 H828 0.961 . S
C842 C841 1.502 . S
C843 H829 0.960 . S
C843 H830 0.961 . S
C843 H831 0.959 . S
C843 C841 1.561 . S
C844 C841 1.526 . S
C844 C845 1.396 . S
C844 C849 1.390 . S
C845 C839 1.465 . S
C845 C844 1.396 . S
C845 C846 1.399 . S
C846 H832 0.929 . S
C846 C845 1.399 . S
C846 C847 1.385 . S
C847 H833 0.931 . S
C847 C846 1.385 . S
C847 C848 1.389 . S
C848 C847 1.389 . S
C848 C849 1.387 . S
C849 H834 0.930 . S
C849 C844 1.390 . S
C849 C848 1.387 . S
H850 C862 0.930 . S
H851 C864 0.930 . S
H852 C865 0.930 . S
H853 C869 0.959 . S
H854 C869 0.959 . S
H855 C869 0.961 . S
H856 C870 0.960 . S
H857 C870 0.961 . S
H858 C870 0.959 . S
H859 C873 0.924 1_554 S
H860 C874 0.931 . S
H861 C876 0.930 . S
C862 H850 0.930 . S
C862 C863 1.399 . S
C862 C867 1.399 . S
C863 C862 1.399 . S
C863 C864 1.376 . S
C864 H851 0.930 . S
C864 C863 1.376 . S
C864 C865 1.388 . S
C865 H852 0.930 . S
C865 C864 1.388 . S
C865 C866 1.390 . S
C866 C865 1.390 . S
C866 C867 1.394 . S
C866 C872 1.465 1_554 S
C867 C862 1.399 . S
C867 C866 1.394 . S
C867 C868 1.516 1_554 S
C868 C867 1.516 1_556 S
C868 C869 1.502 . S
C868 C870 1.561 . S
C868 C871 1.526 . S
C869 H853 0.959 . S
C869 H854 0.959 . S
C869 H855 0.961 . S
C869 C868 1.502 . S
C870 H856 0.960 . S
C870 H857 0.961 . S
C870 H858 0.959 . S
C870 C868 1.561 . S
C871 C868 1.526 . S
C871 C872 1.396 . S
C871 C876 1.390 . S
C872 C866 1.465 1_556 S
C872 C871 1.396 . S
C872 C873 1.399 . S
C873 H859 0.924 1_556 S
C873 C872 1.399 . S
C873 C874 1.391 . S
C874 H860 0.931 . S
C874 C873 1.391 . S
C874 C875 1.389 . S
C875 C874 1.389 . S
C875 C876 1.387 . S
C876 H861 0.930 . S
C876 C871 1.390 . S
C876 C875 1.387 . S
H877 C889 0.930 . S
H878 C891 0.930 . S
H879 C892 0.930 . S
H880 C896 0.959 . S
H881 C896 0.959 . S
H882 C896 0.961 . S
H883 C897 0.960 . S
H884 C897 0.961 . S
H885 C897 0.959 . S
H886 C900 0.929 . S
H887 C901 0.931 . S
H888 C903 0.930 . S
C889 H877 0.930 . S
C889 C890 1.399 . S
C889 C894 1.399 . S
C890 C889 1.399 . S
C890 C891 1.376 . S
C891 H878 0.930 . S
C891 C890 1.376 . S
C891 C892 1.388 . S
C892 H879 0.930 . S
C892 C891 1.388 . S
C892 C893 1.390 . S
C893 C892 1.390 . S
C893 C894 1.394 . S
C893 C899 1.465 . S
C894 C889 1.399 . S
C894 C893 1.394 . S
C894 C895 1.516 . S
C895 C894 1.516 . S
C895 C896 1.502 . S
C895 C897 1.561 . S
C895 C898 1.526 . S
C896 H880 0.959 . S
C896 H881 0.959 . S
C896 H882 0.961 . S
C896 C895 1.502 . S
C897 H883 0.960 . S
C897 H884 0.961 . S
C897 H885 0.959 . S
C897 C895 1.561 . S
C898 C895 1.526 . S
C898 C899 1.396 . S
C898 C903 1.390 . S
C899 C893 1.465 . S
C899 C898 1.396 . S
C899 C900 1.399 . S
C900 H886 0.929 . S
C900 C899 1.399 . S
C900 C901 1.385 . S
C901 H887 0.931 . S
C901 C900 1.385 . S
C901 C902 1.389 . S
C902 C901 1.389 . S
C902 C903 1.387 . S
C903 H888 0.930 . S
C903 C898 1.390 . S
C903 C902 1.387 . S
C485 C328 1.575 . S
C497 C33 1.572 . S
C512 C416 1.584 . S
C524 C64 1.573 . S
C539 C170 1.588 . S
C551 C406 1.580 . S
C566 C180 1.587 . S
C578 C241 1.574 . S
C593 C359 1.593 . S
C605 C3 1.569 . S
C620 C111 1.588 . S
C632 C288 1.596 . S
C647 C298 1.589 . S
C659 C123 1.576 . S
C674 C210 1.599 . S
C686 C446 1.599 . S
C701 C239 1.579 . S
C713 C300 1.572 . S
C728 C92 1.591 . S
C740 C151 1.586 . S
C755 C182 1.573 . S
C767 C121 1.567 . S
C782 C229 1.600 . S
C794 C52 1.594 . S
C809 C62 1.583 . S
C821 C5 1.594 . S
C836 C418 1.593 . S
C848 C357 1.585 . S
C863 C269 1.587 . S
C875 C387 1.581 . S
C890 C347 1.582 . S
C902 C465 1.590 . S
