# Generated by pormake.
# Topology bcu, (8)-cn, num edge types: 1
# Building blocks:
#     Node 0, Type 0, BuildingBlock: LIZSOE_clean_sbu_0, # of connection points: 8
#     Node 1, Type 0, BuildingBlock: LIZSOE_clean_sbu_0, # of connection points: 8
#     Edge 2, Type (0, 0), BuildingBlock: FUNLAD_clean_linker_1, # of connection points: 2
#     Edge 3, Type (0, 0), BuildingBlock: FUNLAD_clean_linker_1, # of connection points: 2
#     Edge 4, Type (0, 0), BuildingBlock: FUNLAD_clean_linker_1, # of connection points: 2
#     Edge 5, Type (0, 0), BuildingBlock: FUNLAD_clean_linker_1, # of connection points: 2
#     Edge 6, Type (0, 0), BuildingBlock: FUNLAD_clean_linker_1, # of connection points: 2
#     Edge 7, Type (0, 0), BuildingBlock: FUNLAD_clean_linker_1, # of connection points: 2
#     Edge 8, Type (0, 0), BuildingBlock: FUNLAD_clean_linker_1, # of connection points: 2
#     Edge 9, Type (0, 0), BuildingBlock: FUNLAD_clean_linker_1, # of connection points: 2
# Relax obj value: 0.004
# Max RMSD: 0.035
# Mean RMSD: 0.035
data_MOF--net-bcu--node1-LIZSOE_clean_sbu_0--edge1-FUNLAD_clean_linker_1
_symmetry_space_group_name_H-M    P1
_symmetry_Int_Tables_number       1
_symmetry_cell_setting            triclinic
loop_
_symmetry_equiv_pos_as_xyz
'x, y, z'
_cell_length_a     21.289984
_cell_length_b     20.93908
_cell_length_c     21.719652
_cell_angle_alpha  113.57542
_cell_angle_beta   67.074695
_cell_angle_gamma 110.00655
loop_
_atom_site_label
_atom_site_type_symbol
_atom_site_fract_x
_atom_site_fract_y
_atom_site_fract_z
_atom_type_partial_charge
Co0 Co 0.10489 0.94633 0.04968 0.0
N1 N 0.12824 0.93731 0.11833 0.0
C2 C 0.10888 0.97198 0.18785 0.0
N3 N 0.16766 0.89607 0.17371 0.0
C4 C 0.16255 0.89037 0.11154 0.0
C5 C 0.13359 0.94736 0.22193 0.0
Co6 Co 0.93966 0.07018 0.93388 0.0
N7 N 0.91823 0.08284 0.86443 0.0
N8 N 0.89878 0.12872 0.79758 0.0
C9 C 0.86458 0.05973 0.78577 0.0
C10 C 0.87601 0.03222 0.82698 0.0
C11 C 0.93205 0.14134 0.84464 0.0
Co12 Co 1.02429 1.01175 -0.00621 0.0
C13 C 0.95599 0.13404 0.02727 0.0
H14 H 0.85243 0.97898 0.83089 0.0
O15 O 0.08896 0.95324 0.98119 0.0
O16 O 0.09843 0.05494 0.92095 0.0
O17 O 0.06199 0.09654 0.06663 0.0
O18 O 0.94965 0.96869 0.06791 0.0
O19 O 1.01242 0.92775 0.0999 0.0
O20 O 0.03525 0.08859 0.88291 0.0
O21 O 0.9566 0.06604 0.00527 0.0
O22 O 0.92996 0.97344 0.88757 0.0
O23 O 0.1147 0.04372 0.09653 0.0
O24 O 0.1919 0.96367 -0.00624 0.0
O25 O 0.9866 0.92676 0.9208 0.0
O26 O 0.94918 0.15991 0.98554 0.0
C27 C 0.09847 0.09899 0.10246 0.0
C28 C 0.97436 0.21311 0.87582 0.0
H29 H 1.01997 0.207 0.88397 0.0
H30 H 0.99394 0.24803 0.84232 0.0
H31 H 0.94092 0.24061 0.92715 0.0
C32 C 0.09351 0.08331 0.88125 0.0
C33 C 0.95439 0.9358 0.10413 0.0
H34 H 0.07682 1.01106 0.21257 0.0
H35 H 0.17363 0.83805 0.00061 0.0
H36 H 0.16431 0.78138 0.0497 0.0
H37 H 0.24512 0.84421 0.03018 0.0
C38 C 0.18768 0.83546 0.04353 0.0
C39 C 0.15621 0.95622 0.95328 0.0
C40 C 0.94754 0.92049 0.88561 0.0
H41 H 0.12529 0.96485 0.27802 0.0
H42 H 0.832 0.03114 0.75105 0.0
Co43 Co 0.58149 0.40752 0.54341 0.0
N44 N 0.59602 0.37596 0.60402 0.0
C45 C 0.55119 0.32011 0.62525 0.0
N46 N 0.6439 0.34209 0.65835 0.0
C47 C 0.65284 0.38823 0.62463 0.0
C48 C 0.58016 0.29978 0.65889 0.0
Co49 Co 0.464 0.59947 0.45012 0.0
N50 N 0.44706 0.62051 0.38429 0.0
N51 N 0.41405 0.67166 0.33235 0.0
C52 C 0.44268 0.61714 0.2826 0.0
C53 C 0.4633 0.58631 0.31455 0.0
C54 C 0.41862 0.67323 0.39333 0.0
Co55 Co 0.52502 0.50651 0.49745 0.0
C56 C 0.40919 0.58819 0.5457 0.0
H57 H 0.48888 0.54181 0.28842 0.0
O58 O 0.5762 0.43307 0.47811 0.0
O59 O 0.60657 0.54627 0.42465 0.0
O60 O 0.57041 0.57647 0.57193 0.0
O61 O 0.44295 0.4663 0.56922 0.0
O62 O 0.48737 0.39932 0.59328 0.0
O63 O 0.55537 0.60347 0.39673 0.0
O64 O 0.47451 0.58195 0.51688 0.0
O65 O 0.4381 0.50352 0.40205 0.0
O66 O 0.6003 0.50259 0.60116 0.0
O67 O 0.66831 0.41799 0.49198 0.0
O68 O 0.47953 0.43408 0.42385 0.0
O69 O 0.37792 0.59379 0.5076 0.0
C70 C 0.59668 0.5649 0.60932 0.0
C71 C 0.39703 0.72819 0.46264 0.0
H72 H 0.41136 0.7225 0.50382 0.0
H73 H 0.42251 0.78242 0.45732 0.0
H74 H 0.33981 0.72261 0.47808 0.0
C75 C 0.60864 0.58377 0.38917 0.0
C76 C 0.43693 0.42393 0.60149 0.0
H77 H 0.50212 0.29295 0.61326 0.0
H78 H 0.75656 0.41714 0.55941 0.0
H79 H 0.74313 0.46599 0.65163 0.0
H80 H 0.71032 0.48671 0.59852 0.0
C81 C 0.71906 0.44302 0.60813 0.0
C82 C 0.64292 0.4322 0.45473 0.0
C83 C 0.44489 0.44249 0.39245 0.0
H84 H 0.55826 0.25404 0.67805 0.0
H85 H 0.44873 0.60041 0.227 0.0
H86 H 0.13545 0.21732 0.1377 0.0
C87 C 0.13092 0.16802 0.14622 0.0
H88 H 0.15881 0.11832 0.19632 0.0
H89 H 0.45002 0.30356 0.21408 0.0
H90 H 0.48027 0.19862 0.11774 0.0
H91 H 0.39091 0.10628 0.06491 0.0
H92 H 0.27105 0.11887 0.10753 0.0
C93 C 0.16305 0.16808 0.18903 0.0
C94 C 0.21714 0.22875 0.2159 0.0
C95 C 0.28717 0.22034 0.19083 0.0
C96 C 0.33851 0.2729 0.2221 0.0
C97 C 0.40839 0.26426 0.19403 0.0
C98 C 0.42666 0.20446 0.13824 0.0
C99 C 0.37638 0.15251 0.10847 0.0
C100 C 0.30756 0.16025 0.13386 0.0
H101 H 0.3995 0.32701 0.34954 0.0
C102 C 0.40564 0.3802 0.34828 0.0
H103 H 0.37814 0.44357 0.3118 0.0
H104 H 0.08804 0.261 0.27635 0.0
H105 H 0.05743 0.36612 0.37256 0.0
H106 H 0.14589 0.45716 0.42761 0.0
H107 H 0.26514 0.44352 0.38726 0.0
C108 C 0.37248 0.39008 0.31193 0.0
C109 C 0.31945 0.33321 0.27939 0.0
C110 C 0.2497 0.3424 0.30338 0.0
C111 C 0.19853 0.29005 0.27161 0.0
C112 C 0.12908 0.29957 0.29792 0.0
C113 C 0.11073 0.35958 0.3533 0.0
C114 C 0.16054 0.41084 0.38427 0.0
C115 C 0.22908 0.40248 0.36017 0.0
H116 H 0.96703 0.19539 0.13487 0.0
C117 C 0.93194 0.17385 0.10257 0.0
H118 H 0.83864 0.17225 0.08916 0.0
H119 H 0.75343 0.34209 0.42749 0.0
H120 H 0.76628 0.2417 0.44577 0.0
H121 H 0.81875 0.1468 0.34595 0.0
H122 H 0.85737 0.1519 0.22706 0.0
C123 C 0.871 0.19452 0.12448 0.0
C124 C 0.85017 0.25653 0.18638 0.0
C125 C 0.82856 0.25321 0.25556 0.0
C126 C 0.79736 0.30763 0.31302 0.0
C127 C 0.77635 0.30246 0.38161 0.0
C128 C 0.78395 0.245 0.39301 0.0
C129 C 0.81329 0.19155 0.33683 0.0
C130 C 0.83539 0.19528 0.26879 0.0
H131 H 0.65652 0.39461 0.34067 0.0
C132 C 0.68451 0.42121 0.37989 0.0
H133 H 0.77955 0.44807 0.40255 0.0
H134 H 0.89158 0.28317 0.06107 0.0
H135 H 0.87439 0.38169 0.042 0.0
H136 H 0.81693 0.47368 0.14129 0.0
H137 H 0.77626 0.46749 0.26032 0.0
C138 C 0.7529 0.42075 0.36214 0.0
C139 C 0.78581 0.36438 0.30101 0.0
C140 C 0.80874 0.36837 0.23196 0.0
C141 C 0.84143 0.31487 0.17475 0.0
C142 C 0.86507 0.32123 0.10633 0.0
C143 C 0.85598 0.37787 0.0947 0.0
C144 C 0.82369 0.42968 0.15059 0.0
C145 C 0.80045 0.42541 0.21859 0.0
H146 H 0.83947 0.90023 0.15011 0.0
C147 C 0.89086 0.89749 0.14656 0.0
H148 H 0.94875 0.85118 0.17135 0.0
H149 H 0.72513 0.7416 0.41475 0.0
H150 H 0.79179 0.84704 0.48033 0.0
H151 H 0.88087 0.93414 0.42307 0.0
H152 H 0.90284 0.91655 0.29981 0.0
C153 C 0.89734 0.85327 0.17421 0.0
C154 C 0.83812 0.80443 0.20927 0.0
C155 C 0.82675 0.81446 0.28105 0.0
C156 C 0.77621 0.76346 0.31371 0.0
C157 C 0.76391 0.7771 0.38638 0.0
C158 C 0.8017 0.83785 0.42497 0.0
C159 C 0.85182 0.8869 0.39277 0.0
C160 C 0.86417 0.87586 0.32182 0.0
H161 H 0.7246 0.60685 0.3416 0.0
C162 C 0.67559 0.61351 0.34302 0.0
H163 H 0.62601 0.66069 0.30972 0.0
H164 H 0.85102 0.76516 0.0688 0.0
H165 H 0.78502 0.65911 0.00266 0.0
H166 H 0.69728 0.57088 0.0593 0.0
H167 H 0.6754 0.58823 0.18265 0.0
C168 C 0.6753 0.65611 0.30986 0.0
C169 C 0.738 0.70157 0.27394 0.0
C170 C 0.75032 0.69101 0.20182 0.0
C171 C 0.80052 0.74225 0.16932 0.0
C172 C 0.81264 0.72904 0.09677 0.0
C173 C 0.77528 0.66805 0.05794 0.0
C174 C 0.72586 0.6184 0.08983 0.0
C175 C 0.71351 0.62927 0.16078 0.0
H176 H 0.22281 0.81171 0.14079 0.0
C177 C 0.20171 0.85473 0.18491 0.0
H178 H 0.19336 0.91311 0.29206 0.0
H179 H 0.26217 0.60774 0.2479 0.0
H180 H 0.14475 0.55323 0.23759 0.0
H181 H 0.07345 0.62393 0.23655 0.0
H182 H 0.1193 0.7495 0.24563 0.0
C183 C 0.21036 0.86864 0.24734 0.0
C184 C 0.25015 0.8276 0.25456 0.0
C185 C 0.22201 0.75451 0.25008 0.0
C186 C 0.26271 0.7141 0.25155 0.0
C187 C 0.23359 0.64106 0.24688 0.0
C188 C 0.16616 0.60908 0.2411 0.0
C189 C 0.12605 0.64885 0.24043 0.0
C190 C 0.15323 0.72079 0.24517 0.0
H191 H 0.3627 0.75996 0.36934 0.0
C192 C 0.382 0.71685 0.32395 0.0
H193 H 0.38682 0.6608 0.21714 0.0
H194 H 0.31815 0.96737 0.26658 0.0
H195 H 0.43554 0.02202 0.27705 0.0
H196 H 0.50702 0.9513 0.27778 0.0
H197 H 0.4614 0.82566 0.26833 0.0
C198 C 0.37161 0.70523 0.2629 0.0
C199 C 0.33075 0.74733 0.2588 0.0
C200 C 0.35868 0.82055 0.26385 0.0
C201 C 0.31792 0.86098 0.26243 0.0
C202 C 0.34687 0.93407 0.26739 0.0
C203 C 0.41425 0.96611 0.27332 0.0
C204 C 0.45445 0.92633 0.27383 0.0
C205 C 0.4274 0.85433 0.26885 0.0
H206 H 0.14346 0.87829 0.85256 0.0
C207 C 0.18256 0.91529 0.8783 0.0
H208 H 0.28748 0.94504 0.87718 0.0
H209 H 0.34512 0.63781 0.75872 0.0
H210 H 0.37383 0.68847 0.86847 0.0
H211 H 0.35627 0.80829 0.94685 0.0
H212 H 0.30758 0.87695 0.91756 0.0
C213 C 0.24933 0.90691 0.85078 0.0
C214 C 0.26892 0.8384 0.79799 0.0
C215 C 0.29941 0.79924 0.81537 0.0
C216 C 0.31277 0.7311 0.76866 0.0
C217 C 0.33797 0.69133 0.79007 0.0
C218 C 0.35382 0.71936 0.85345 0.0
C219 C 0.34364 0.7867 0.89767 0.0
C220 C 0.3159 0.82587 0.87972 0.0
H221 H 0.42318 0.65936 0.64785 0.0
C222 C 0.38355 0.62432 0.62205 0.0
H223 H 0.27875 0.59691 0.624 0.0
H224 H 0.22271 0.90376 0.74232 0.0
H225 H 0.19562 0.85392 0.63179 0.0
H226 H 0.2153 0.73505 0.55228 0.0
H227 H 0.26404 0.66648 0.58142 0.0
C228 C 0.31714 0.63379 0.65069 0.0
C229 C 0.29909 0.70313 0.70286 0.0
C230 C 0.26947 0.74275 0.68504 0.0
C231 C 0.25557 0.81062 0.73202 0.0
C232 C 0.2304 0.85046 0.71066 0.0
C233 C 0.2155 0.82293 0.64682 0.0
C234 C 0.22677 0.75611 0.60202 0.0
C235 C 0.2544 0.71686 0.61999 0.0
H236 H 0.32944 0.36163 0.61314 0.0
C237 C 0.36771 0.39205 0.64173 0.0
H238 H 0.39958 0.41679 0.72929 0.0
H239 H 0.08691 0.17282 0.73642 0.0
H240 H 0.0494 0.25201 0.70921 0.0
H241 H 0.12356 0.37001 0.70287 0.0
H242 H 0.23918 0.40659 0.71742 0.0
C243 C 0.35951 0.38438 0.70351 0.0
C244 C 0.3067 0.3244 0.72979 0.0
C245 C 0.23648 0.30619 0.72857 0.0
C246 C 0.1911 0.24078 0.73944 0.0
C247 C 0.12336 0.22238 0.73176 0.0
C248 C 0.10058 0.26772 0.71645 0.0
C249 C 0.14266 0.33383 0.712 0.0
C250 C 0.20942 0.35353 0.71902 0.0
H251 H 0.19613 0.15647 0.87109 0.0
C252 C 0.15704 0.12552 0.84359 0.0
H253 H 0.12123 0.10302 0.7588 0.0
H254 H 0.43136 0.3503 0.75744 0.0
H255 H 0.46868 0.27112 0.7847 0.0
H256 H 0.39753 0.15017 0.78362 0.0
H257 H 0.28369 0.11194 0.76459 0.0
C258 C 0.16154 0.13574 0.7842 0.0
C259 C 0.21384 0.19608 0.75795 0.0
C260 C 0.28438 0.21398 0.75825 0.0
C261 C 0.32911 0.28015 0.74915 0.0
C262 C 0.39589 0.29965 0.7594 0.0
C263 C 0.41864 0.25424 0.77463 0.0
C264 C 0.37814 0.18662 0.77521 0.0
C265 C 0.31232 0.16598 0.76577 0.0
H266 H 0.93285 0.22968 0.7734 0.0
C267 C 0.89445 0.17966 0.77109 0.0
H268 H 0.8008 0.12008 0.7449 0.0
H269 H 0.77408 0.4323 0.77141 0.0
H270 H 0.77004 0.46908 0.8942 0.0
H271 H 0.79389 0.39134 0.93928 0.0
H272 H 0.82302 0.2776 0.86224 0.0
C273 C 0.84102 0.16894 0.74748 0.0
C274 C 0.83578 0.2211 0.72065 0.0
C275 C 0.81775 0.28682 0.7674 0.0
C276 C 0.80113 0.33024 0.74235 0.0
C277 C 0.78479 0.39649 0.78895 0.0
C278 C 0.78271 0.41827 0.85917 0.0
C279 C 0.79635 0.37459 0.88449 0.0
C280 C 0.81337 0.30944 0.83949 0.0
H281 H 0.66697 0.30933 0.72849 0.0
C282 C 0.6905 0.33204 0.68529 0.0
H283 H 0.78308 0.35219 0.60481 0.0
H284 H 0.88122 0.10514 0.6157 0.0
H285 H 0.88964 0.07169 0.49245 0.0
H286 H 0.85789 0.14585 0.44972 0.0
H287 H 0.81803 0.25377 0.52976 0.0
C288 C 0.7592 0.33671 0.65213 0.0
C289 C 0.79929 0.3061 0.672 0.0
C290 C 0.82483 0.24461 0.62374 0.0
C291 C 0.84279 0.20176 0.64832 0.0
C292 C 0.86622 0.13923 0.59974 0.0
C293 C 0.87149 0.11953 0.52889 0.0
C294 C 0.85361 0.16127 0.50484 0.0
C295 C 0.83042 0.22302 0.55148 0.0
H296 H 0.64121 0.67949 0.65622 0.0
C297 C 0.63266 0.62575 0.65749 0.0
H298 H 0.65091 0.56098 0.69953 0.0
H299 H 0.92184 0.84148 0.71607 0.0
H300 H 0.94655 0.81361 0.5905 0.0
H301 H 0.86831 0.71561 0.52683 0.0
H302 H 0.76406 0.64665 0.58848 0.0
C303 C 0.66276 0.61402 0.69533 0.0
C304 C 0.71373 0.66962 0.73165 0.0
C305 C 0.7772 0.7061 0.69342 0.0
C306 C 0.82463 0.75978 0.72933 0.0
C307 C 0.88497 0.799 0.69113 0.0
C308 C 0.8999 0.78346 0.61896 0.0
C309 C 0.85572 0.72847 0.58317 0.0
C310 C 0.79533 0.68981 0.61955 0.0
H311 H 0.94083 0.80529 0.82199 0.0
C312 C 0.91421 0.84918 0.84652 0.0
H313 H 0.82143 0.88259 0.8731 0.0
H314 H 0.60099 0.60475 0.81995 0.0
H315 H 0.5836 0.6245 0.94272 0.0
H316 H 0.67039 0.71173 0.00233 0.0
H317 H 0.77503 0.78027 0.93927 0.0
C318 C 0.84963 0.83991 0.84303 0.0
C319 C 0.81081 0.77362 0.80224 0.0
C320 C 0.75093 0.73268 0.83891 0.0
C321 C 0.70186 0.68125 0.80397 0.0
C322 C 0.64104 0.64329 0.8431 0.0
C323 C 0.63016 0.65436 0.91384 0.0
C324 C 0.6789 0.7036 0.94747 0.0
C325 C 0.7385 0.74274 0.91081 0.0
loop_
_geom_bond_atom_site_label_1
_geom_bond_atom_site_label_2
_geom_bond_distance
_geom_bond_site_symmetry_2
_ccdc_geom_bond_type
Co0 N1 2.034 . S
Co0 O15 2.262 1_554 S
Co0 O19 1.958 1_455 S
Co0 O23 1.950 1_565 S
Co0 O24 2.057 1_554 S
N1 Co0 2.034 . S
N1 C2 1.366 . S
N1 C4 1.332 . S
C2 N1 1.366 . S
C2 C5 1.377 . S
C2 H34 0.931 1_455 S
N3 C4 1.346 . S
N3 C5 1.337 . S
C4 N1 1.332 . S
C4 N3 1.346 . S
C4 C38 1.361 . S
C5 C2 1.377 . S
C5 N3 1.337 . S
C5 H41 0.930 . S
Co6 N7 2.034 . S
Co6 O20 1.950 1_655 S
Co6 O21 2.262 1_556 S
Co6 O22 1.958 1_545 S
Co6 O26 2.057 1_556 S
N7 Co6 2.034 . S
N7 C10 1.366 . S
N7 C11 1.332 . S
N8 C9 1.337 . S
N8 C11 1.346 . S
C9 N8 1.337 . S
C9 C10 1.377 . S
C9 H42 0.930 . S
C10 N7 1.366 . S
C10 C9 1.377 . S
C10 H14 0.931 1_545 S
C11 N7 1.332 . S
C11 N8 1.346 . S
C11 C28 1.361 . S
Co12 O15 2.097 1_654 S
Co12 O16 2.065 1_664 S
Co12 O17 2.065 1_665 S
Co12 O18 2.042 . S
Co12 O21 2.097 1_565 S
Co12 O25 2.042 1_554 S
C13 O21 1.253 . S
C13 O26 1.263 . S
H14 C10 0.931 1_565 S
O15 Co0 2.262 1_556 S
O15 Co12 2.097 1_456 S
O15 C39 1.253 . S
O16 Co12 2.065 1_446 S
O16 C32 1.221 . S
O17 Co12 2.065 1_445 S
O17 C27 1.221 . S
O18 Co12 2.042 . S
O18 C33 1.237 . S
O19 Co0 1.958 1_655 S
O19 C33 1.278 . S
O20 Co6 1.950 1_455 S
O20 C32 1.277 . S
O21 Co6 2.262 1_554 S
O21 Co12 2.097 1_545 S
O21 C13 1.253 . S
O22 Co6 1.958 1_565 S
O22 C40 1.278 . S
O23 Co0 1.950 1_545 S
O23 C27 1.277 . S
O24 Co0 2.057 1_556 S
O24 C39 1.263 . S
O25 Co12 2.042 1_556 S
O25 C40 1.237 . S
O26 Co6 2.057 1_554 S
O26 C13 1.263 . S
C27 O17 1.221 . S
C27 O23 1.277 . S
C28 C11 1.361 . S
C28 H29 0.960 . S
C28 H30 0.961 . S
C28 H31 0.961 . S
H29 C28 0.960 . S
H30 C28 0.961 . S
H31 C28 0.961 . S
C32 O16 1.221 . S
C32 O20 1.277 . S
C33 O18 1.237 . S
C33 O19 1.278 . S
H34 C2 0.931 1_655 S
H35 C38 0.961 . S
H36 C38 0.961 . S
H37 C38 0.960 . S
C38 C4 1.361 . S
C38 H35 0.961 . S
C38 H36 0.961 . S
C38 H37 0.960 . S
C39 O15 1.253 . S
C39 O24 1.263 . S
C40 O22 1.278 . S
C40 O25 1.237 . S
H41 C5 0.930 . S
H42 C9 0.930 . S
Co43 N44 2.034 . S
Co43 O58 2.262 . S
Co43 O62 1.958 . S
Co43 O66 1.950 . S
Co43 O67 2.057 . S
N44 Co43 2.034 . S
N44 C45 1.366 . S
N44 C47 1.332 . S
C45 N44 1.366 . S
C45 C48 1.377 . S
C45 H77 0.931 . S
N46 C47 1.346 . S
N46 C48 1.337 . S
C47 N44 1.332 . S
C47 N46 1.346 . S
C47 C81 1.361 . S
C48 C45 1.377 . S
C48 N46 1.337 . S
C48 H84 0.930 . S
Co49 N50 2.034 . S
Co49 O63 1.950 . S
Co49 O64 2.262 . S
Co49 O65 1.958 . S
Co49 O69 2.057 . S
N50 Co49 2.034 . S
N50 C53 1.366 . S
N50 C54 1.332 . S
N51 C52 1.337 . S
N51 C54 1.346 . S
C52 N51 1.337 . S
C52 C53 1.377 . S
C52 H85 0.930 . S
C53 N50 1.366 . S
C53 C52 1.377 . S
C53 H57 0.931 . S
C54 N50 1.332 . S
C54 N51 1.346 . S
C54 C71 1.361 . S
Co55 O58 2.097 . S
Co55 O59 2.065 . S
Co55 O60 2.065 . S
Co55 O61 2.042 . S
Co55 O64 2.097 . S
Co55 O68 2.042 . S
C56 O64 1.253 . S
C56 O69 1.263 . S
H57 C53 0.931 . S
O58 Co43 2.262 . S
O58 Co55 2.097 . S
O58 C82 1.253 . S
O59 Co55 2.065 . S
O59 C75 1.221 . S
O60 Co55 2.065 . S
O60 C70 1.221 . S
O61 Co55 2.042 . S
O61 C76 1.237 . S
O62 Co43 1.958 . S
O62 C76 1.278 . S
O63 Co49 1.950 . S
O63 C75 1.277 . S
O64 Co49 2.262 . S
O64 Co55 2.097 . S
O64 C56 1.253 . S
O65 Co49 1.958 . S
O65 C83 1.278 . S
O66 Co43 1.950 . S
O66 C70 1.277 . S
O67 Co43 2.057 . S
O67 C82 1.263 . S
O68 Co55 2.042 . S
O68 C83 1.237 . S
O69 Co49 2.057 . S
O69 C56 1.263 . S
C70 O60 1.221 . S
C70 O66 1.277 . S
C71 C54 1.361 . S
C71 H72 0.960 . S
C71 H73 0.961 . S
C71 H74 0.961 . S
H72 C71 0.960 . S
H73 C71 0.961 . S
H74 C71 0.961 . S
C75 O59 1.221 . S
C75 O63 1.277 . S
C76 O61 1.237 . S
C76 O62 1.278 . S
H77 C45 0.931 . S
H78 C81 0.961 . S
H79 C81 0.961 . S
H80 C81 0.960 . S
C81 C47 1.361 . S
C81 H78 0.961 . S
C81 H79 0.961 . S
C81 H80 0.960 . S
C82 O58 1.253 . S
C82 O67 1.263 . S
C83 O65 1.278 . S
C83 O68 1.237 . S
H84 C48 0.930 . S
H85 C52 0.930 . S
H86 C87 0.951 . S
C87 H86 0.951 . S
C87 C93 1.265 . S
H88 C93 0.950 . S
H89 C97 0.949 . S
H90 C98 0.950 . S
H91 C99 0.951 . S
H92 C100 0.951 . S
C93 C87 1.265 . S
C93 H88 0.950 . S
C93 C94 1.478 . S
C94 C93 1.478 . S
C94 C95 1.397 . S
C94 C111 1.394 . S
C95 C94 1.397 . S
C95 C96 1.438 . S
C95 C100 1.429 . S
C96 C95 1.438 . S
C96 C97 1.428 . S
C96 C109 1.394 . S
C97 H89 0.949 . S
C97 C96 1.428 . S
C97 C98 1.345 . S
C98 H90 0.950 . S
C98 C97 1.345 . S
C98 C99 1.424 . S
C99 H91 0.951 . S
C99 C98 1.424 . S
C99 C100 1.347 . S
C100 H92 0.951 . S
C100 C95 1.429 . S
C100 C99 1.347 . S
H101 C102 0.951 . S
C102 H101 0.951 . S
C102 C108 1.265 . S
H103 C108 0.950 . S
H104 C112 0.949 . S
H105 C113 0.950 . S
H106 C114 0.951 . S
H107 C115 0.951 . S
C108 C102 1.265 . S
C108 H103 0.950 . S
C108 C109 1.478 . S
C109 C96 1.394 . S
C109 C108 1.478 . S
C109 C110 1.397 . S
C110 C109 1.397 . S
C110 C111 1.438 . S
C110 C115 1.429 . S
C111 C94 1.394 . S
C111 C110 1.438 . S
C111 C112 1.428 . S
C112 H104 0.949 . S
C112 C111 1.428 . S
C112 C113 1.345 . S
C113 H105 0.950 . S
C113 C112 1.345 . S
C113 C114 1.424 . S
C114 H106 0.951 . S
C114 C113 1.424 . S
C114 C115 1.347 . S
C115 H107 0.951 . S
C115 C110 1.429 . S
C115 C114 1.347 . S
H116 C117 0.951 . S
C117 H116 0.951 . S
C117 C123 1.265 . S
H118 C123 0.950 . S
H119 C127 0.949 . S
H120 C128 0.950 . S
H121 C129 0.951 . S
H122 C130 0.951 . S
C123 C117 1.265 . S
C123 H118 0.950 . S
C123 C124 1.478 . S
C124 C123 1.478 . S
C124 C125 1.397 . S
C124 C141 1.394 . S
C125 C124 1.397 . S
C125 C126 1.438 . S
C125 C130 1.429 . S
C126 C125 1.438 . S
C126 C127 1.428 . S
C126 C139 1.394 . S
C127 H119 0.949 . S
C127 C126 1.428 . S
C127 C128 1.345 . S
C128 H120 0.950 . S
C128 C127 1.345 . S
C128 C129 1.424 . S
C129 H121 0.951 . S
C129 C128 1.424 . S
C129 C130 1.347 . S
C130 H122 0.951 . S
C130 C125 1.429 . S
C130 C129 1.347 . S
H131 C132 0.951 . S
C132 H131 0.951 . S
C132 C138 1.265 . S
H133 C138 0.950 . S
H134 C142 0.949 . S
H135 C143 0.950 . S
H136 C144 0.951 . S
H137 C145 0.951 . S
C138 C132 1.265 . S
C138 H133 0.950 . S
C138 C139 1.478 . S
C139 C126 1.394 . S
C139 C138 1.478 . S
C139 C140 1.397 . S
C140 C139 1.397 . S
C140 C141 1.438 . S
C140 C145 1.429 . S
C141 C124 1.394 . S
C141 C140 1.438 . S
C141 C142 1.428 . S
C142 H134 0.949 . S
C142 C141 1.428 . S
C142 C143 1.345 . S
C143 H135 0.950 . S
C143 C142 1.345 . S
C143 C144 1.424 . S
C144 H136 0.951 . S
C144 C143 1.424 . S
C144 C145 1.347 . S
C145 H137 0.951 . S
C145 C140 1.429 . S
C145 C144 1.347 . S
H146 C147 0.951 . S
C147 H146 0.951 . S
C147 C153 1.265 . S
H148 C153 0.950 . S
H149 C157 0.949 . S
H150 C158 0.950 . S
H151 C159 0.951 . S
H152 C160 0.951 . S
C153 C147 1.265 . S
C153 H148 0.950 . S
C153 C154 1.478 . S
C154 C153 1.478 . S
C154 C155 1.397 . S
C154 C171 1.394 . S
C155 C154 1.397 . S
C155 C156 1.438 . S
C155 C160 1.429 . S
C156 C155 1.438 . S
C156 C157 1.428 . S
C156 C169 1.394 . S
C157 H149 0.949 . S
C157 C156 1.428 . S
C157 C158 1.345 . S
C158 H150 0.950 . S
C158 C157 1.345 . S
C158 C159 1.424 . S
C159 H151 0.951 . S
C159 C158 1.424 . S
C159 C160 1.347 . S
C160 H152 0.951 . S
C160 C155 1.429 . S
C160 C159 1.347 . S
H161 C162 0.951 . S
C162 H161 0.951 . S
C162 C168 1.265 . S
H163 C168 0.950 . S
H164 C172 0.949 . S
H165 C173 0.950 . S
H166 C174 0.951 . S
H167 C175 0.951 . S
C168 C162 1.265 . S
C168 H163 0.950 . S
C168 C169 1.478 . S
C169 C156 1.394 . S
C169 C168 1.478 . S
C169 C170 1.397 . S
C170 C169 1.397 . S
C170 C171 1.438 . S
C170 C175 1.429 . S
C171 C154 1.394 . S
C171 C170 1.438 . S
C171 C172 1.428 . S
C172 H164 0.949 . S
C172 C171 1.428 . S
C172 C173 1.345 . S
C173 H165 0.950 . S
C173 C172 1.345 . S
C173 C174 1.424 . S
C174 H166 0.951 . S
C174 C173 1.424 . S
C174 C175 1.347 . S
C175 H167 0.951 . S
C175 C170 1.429 . S
C175 C174 1.347 . S
H176 C177 0.951 . S
C177 H176 0.951 . S
C177 C183 1.265 . S
H178 C183 0.950 . S
H179 C187 0.949 . S
H180 C188 0.950 . S
H181 C189 0.951 . S
H182 C190 0.951 . S
C183 C177 1.265 . S
C183 H178 0.950 . S
C183 C184 1.478 . S
C184 C183 1.478 . S
C184 C185 1.397 . S
C184 C201 1.394 . S
C185 C184 1.397 . S
C185 C186 1.438 . S
C185 C190 1.429 . S
C186 C185 1.438 . S
C186 C187 1.428 . S
C186 C199 1.394 . S
C187 H179 0.949 . S
C187 C186 1.428 . S
C187 C188 1.345 . S
C188 H180 0.950 . S
C188 C187 1.345 . S
C188 C189 1.424 . S
C189 H181 0.951 . S
C189 C188 1.424 . S
C189 C190 1.347 . S
C190 H182 0.951 . S
C190 C185 1.429 . S
C190 C189 1.347 . S
H191 C192 0.951 . S
C192 H191 0.951 . S
C192 C198 1.265 . S
H193 C198 0.950 . S
H194 C202 0.949 . S
H195 C203 0.950 . S
H196 C204 0.951 . S
H197 C205 0.951 . S
C198 C192 1.265 . S
C198 H193 0.950 . S
C198 C199 1.478 . S
C199 C186 1.394 . S
C199 C198 1.478 . S
C199 C200 1.397 . S
C200 C199 1.397 . S
C200 C201 1.438 . S
C200 C205 1.429 . S
C201 C184 1.394 . S
C201 C200 1.438 . S
C201 C202 1.428 . S
C202 H194 0.949 . S
C202 C201 1.428 . S
C202 C203 1.345 . S
C203 H195 0.950 . S
C203 C202 1.345 . S
C203 C204 1.424 . S
C204 H196 0.951 . S
C204 C203 1.424 . S
C204 C205 1.347 . S
C205 H197 0.951 . S
C205 C200 1.429 . S
C205 C204 1.347 . S
H206 C207 0.951 . S
C207 H206 0.951 . S
C207 C213 1.265 . S
H208 C213 0.950 . S
H209 C217 0.949 . S
H210 C218 0.950 . S
H211 C219 0.951 . S
H212 C220 0.951 . S
C213 C207 1.265 . S
C213 H208 0.950 . S
C213 C214 1.478 . S
C214 C213 1.478 . S
C214 C215 1.397 . S
C214 C231 1.394 . S
C215 C214 1.397 . S
C215 C216 1.438 . S
C215 C220 1.429 . S
C216 C215 1.438 . S
C216 C217 1.428 . S
C216 C229 1.394 . S
C217 H209 0.949 . S
C217 C216 1.428 . S
C217 C218 1.345 . S
C218 H210 0.950 . S
C218 C217 1.345 . S
C218 C219 1.424 . S
C219 H211 0.951 . S
C219 C218 1.424 . S
C219 C220 1.347 . S
C220 H212 0.951 . S
C220 C215 1.429 . S
C220 C219 1.347 . S
H221 C222 0.951 . S
C222 H221 0.951 . S
C222 C228 1.265 . S
H223 C228 0.950 . S
H224 C232 0.949 . S
H225 C233 0.950 . S
H226 C234 0.951 . S
H227 C235 0.951 . S
C228 C222 1.265 . S
C228 H223 0.950 . S
C228 C229 1.478 . S
C229 C216 1.394 . S
C229 C228 1.478 . S
C229 C230 1.397 . S
C230 C229 1.397 . S
C230 C231 1.438 . S
C230 C235 1.429 . S
C231 C214 1.394 . S
C231 C230 1.438 . S
C231 C232 1.428 . S
C232 H224 0.949 . S
C232 C231 1.428 . S
C232 C233 1.345 . S
C233 H225 0.950 . S
C233 C232 1.345 . S
C233 C234 1.424 . S
C234 H226 0.951 . S
C234 C233 1.424 . S
C234 C235 1.347 . S
C235 H227 0.951 . S
C235 C230 1.429 . S
C235 C234 1.347 . S
H236 C237 0.951 . S
C237 H236 0.951 . S
C237 C243 1.265 . S
H238 C243 0.950 . S
H239 C247 0.949 . S
H240 C248 0.950 . S
H241 C249 0.951 . S
H242 C250 0.951 . S
C243 C237 1.265 . S
C243 H238 0.950 . S
C243 C244 1.478 . S
C244 C243 1.478 . S
C244 C245 1.397 . S
C244 C261 1.394 . S
C245 C244 1.397 . S
C245 C246 1.438 . S
C245 C250 1.429 . S
C246 C245 1.438 . S
C246 C247 1.428 . S
C246 C259 1.394 . S
C247 H239 0.949 . S
C247 C246 1.428 . S
C247 C248 1.345 . S
C248 H240 0.950 . S
C248 C247 1.345 . S
C248 C249 1.424 . S
C249 H241 0.951 . S
C249 C248 1.424 . S
C249 C250 1.347 . S
C250 H242 0.951 . S
C250 C245 1.429 . S
C250 C249 1.347 . S
H251 C252 0.951 . S
C252 H251 0.951 . S
C252 C258 1.265 . S
H253 C258 0.950 . S
H254 C262 0.949 . S
H255 C263 0.950 . S
H256 C264 0.951 . S
H257 C265 0.951 . S
C258 C252 1.265 . S
C258 H253 0.950 . S
C258 C259 1.478 . S
C259 C246 1.394 . S
C259 C258 1.478 . S
C259 C260 1.397 . S
C260 C259 1.397 . S
C260 C261 1.438 . S
C260 C265 1.429 . S
C261 C244 1.394 . S
C261 C260 1.438 . S
C261 C262 1.428 . S
C262 H254 0.949 . S
C262 C261 1.428 . S
C262 C263 1.345 . S
C263 H255 0.950 . S
C263 C262 1.345 . S
C263 C264 1.424 . S
C264 H256 0.951 . S
C264 C263 1.424 . S
C264 C265 1.347 . S
C265 H257 0.951 . S
C265 C260 1.429 . S
C265 C264 1.347 . S
H266 C267 0.951 . S
C267 H266 0.951 . S
C267 C273 1.265 . S
H268 C273 0.950 . S
H269 C277 0.949 . S
H270 C278 0.950 . S
H271 C279 0.951 . S
H272 C280 0.951 . S
C273 C267 1.265 . S
C273 H268 0.950 . S
C273 C274 1.478 . S
C274 C273 1.478 . S
C274 C275 1.397 . S
C274 C291 1.394 . S
C275 C274 1.397 . S
C275 C276 1.438 . S
C275 C280 1.429 . S
C276 C275 1.438 . S
C276 C277 1.428 . S
C276 C289 1.394 . S
C277 H269 0.949 . S
C277 C276 1.428 . S
C277 C278 1.345 . S
C278 H270 0.950 . S
C278 C277 1.345 . S
C278 C279 1.424 . S
C279 H271 0.951 . S
C279 C278 1.424 . S
C279 C280 1.347 . S
C280 H272 0.951 . S
C280 C275 1.429 . S
C280 C279 1.347 . S
H281 C282 0.951 . S
C282 H281 0.951 . S
C282 C288 1.265 . S
H283 C288 0.950 . S
H284 C292 0.949 . S
H285 C293 0.950 . S
H286 C294 0.951 . S
H287 C295 0.951 . S
C288 C282 1.265 . S
C288 H283 0.950 . S
C288 C289 1.478 . S
C289 C276 1.394 . S
C289 C288 1.478 . S
C289 C290 1.397 . S
C290 C289 1.397 . S
C290 C291 1.438 . S
C290 C295 1.429 . S
C291 C274 1.394 . S
C291 C290 1.438 . S
C291 C292 1.428 . S
C292 H284 0.949 . S
C292 C291 1.428 . S
C292 C293 1.345 . S
C293 H285 0.950 . S
C293 C292 1.345 . S
C293 C294 1.424 . S
C294 H286 0.951 . S
C294 C293 1.424 . S
C294 C295 1.347 . S
C295 H287 0.951 . S
C295 C290 1.429 . S
C295 C294 1.347 . S
H296 C297 0.951 . S
C297 H296 0.951 . S
C297 C303 1.265 . S
H298 C303 0.950 . S
H299 C307 0.949 . S
H300 C308 0.950 . S
H301 C309 0.951 . S
H302 C310 0.951 . S
C303 C297 1.265 . S
C303 H298 0.950 . S
C303 C304 1.478 . S
C304 C303 1.478 . S
C304 C305 1.397 . S
C304 C321 1.394 . S
C305 C304 1.397 . S
C305 C306 1.438 . S
C305 C310 1.429 . S
C306 C305 1.438 . S
C306 C307 1.428 . S
C306 C319 1.394 . S
C307 H299 0.949 . S
C307 C306 1.428 . S
C307 C308 1.345 . S
C308 H300 0.950 . S
C308 C307 1.345 . S
C308 C309 1.424 . S
C309 H301 0.951 . S
C309 C308 1.424 . S
C309 C310 1.347 . S
C310 H302 0.951 . S
C310 C305 1.429 . S
C310 C309 1.347 . S
H311 C312 0.951 . S
C312 H311 0.951 . S
C312 C318 1.265 . S
H313 C318 0.950 . S
H314 C322 0.949 . S
H315 C323 0.950 . S
H316 C324 0.951 . S
H317 C325 0.951 . S
C318 C312 1.265 . S
C318 H313 0.950 . S
C318 C319 1.478 . S
C319 C306 1.394 . S
C319 C318 1.478 . S
C319 C320 1.397 . S
C320 C319 1.397 . S
C320 C321 1.438 . S
C320 C325 1.429 . S
C321 C304 1.394 . S
C321 C320 1.438 . S
C321 C322 1.428 . S
C322 H314 0.949 . S
C322 C321 1.428 . S
C322 C323 1.345 . S
C323 H315 0.950 . S
C323 C322 1.345 . S
C323 C324 1.424 . S
C324 H316 0.951 . S
C324 C323 1.424 . S
C324 C325 1.347 . S
C325 H317 0.951 . S
C325 C320 1.429 . S
C325 C324 1.347 . S
C87 C27 1.355 . S
C102 C83 1.338 . S
C117 C13 1.395 . S
C132 C82 1.384 . S
C147 C33 1.390 . S
C162 C75 1.391 . S
C177 N3 1.568 . S
C192 N51 1.542 . S
C207 C39 1.296 . S
C222 C56 1.304 . S
C237 C76 1.294 . S
C252 C32 1.305 . S
C267 N8 1.531 . S
C282 N46 1.494 . S
C297 C70 1.358 . S
C312 C40 1.371 . S
