# Generated by pormake.
# Topology lhb, (8)-cn, num edge types: 1
# Building blocks:
#     Node 0, Type 0, BuildingBlock: OLANAS_clean_sbu_2, # of connection points: 8
#     Node 1, Type 0, BuildingBlock: OLANAS_clean_sbu_2, # of connection points: 8
#     Node 2, Type 0, BuildingBlock: OLANAS_clean_sbu_2, # of connection points: 8
#     Node 3, Type 0, BuildingBlock: OLANAS_clean_sbu_2, # of connection points: 8
#     Node 4, Type 0, BuildingBlock: OLANAS_clean_sbu_2, # of connection points: 8
#     Node 5, Type 0, BuildingBlock: OLANAS_clean_sbu_2, # of connection points: 8
#     Node 6, Type 0, BuildingBlock: OLANAS_clean_sbu_2, # of connection points: 8
#     Node 7, Type 0, BuildingBlock: OLANAS_clean_sbu_2, # of connection points: 8
#     Edge 8, Type (0, 0), BuildingBlock: EZIPEK_clean_linker_0, # of connection points: 2
#     Edge 9, Type (0, 0), BuildingBlock: EZIPEK_clean_linker_0, # of connection points: 2
#     Edge 10, Type (0, 0), BuildingBlock: EZIPEK_clean_linker_0, # of connection points: 2
#     Edge 11, Type (0, 0), BuildingBlock: EZIPEK_clean_linker_0, # of connection points: 2
#     Edge 12, Type (0, 0), BuildingBlock: EZIPEK_clean_linker_0, # of connection points: 2
#     Edge 13, Type (0, 0), BuildingBlock: EZIPEK_clean_linker_0, # of connection points: 2
#     Edge 14, Type (0, 0), BuildingBlock: EZIPEK_clean_linker_0, # of connection points: 2
#     Edge 15, Type (0, 0), BuildingBlock: EZIPEK_clean_linker_0, # of connection points: 2
#     Edge 16, Type (0, 0), BuildingBlock: EZIPEK_clean_linker_0, # of connection points: 2
#     Edge 17, Type (0, 0), BuildingBlock: EZIPEK_clean_linker_0, # of connection points: 2
#     Edge 18, Type (0, 0), BuildingBlock: EZIPEK_clean_linker_0, # of connection points: 2
#     Edge 19, Type (0, 0), BuildingBlock: EZIPEK_clean_linker_0, # of connection points: 2
#     Edge 20, Type (0, 0), BuildingBlock: EZIPEK_clean_linker_0, # of connection points: 2
#     Edge 21, Type (0, 0), BuildingBlock: EZIPEK_clean_linker_0, # of connection points: 2
#     Edge 22, Type (0, 0), BuildingBlock: EZIPEK_clean_linker_0, # of connection points: 2
#     Edge 23, Type (0, 0), BuildingBlock: EZIPEK_clean_linker_0, # of connection points: 2
#     Edge 24, Type (0, 0), BuildingBlock: EZIPEK_clean_linker_0, # of connection points: 2
#     Edge 25, Type (0, 0), BuildingBlock: EZIPEK_clean_linker_0, # of connection points: 2
#     Edge 26, Type (0, 0), BuildingBlock: EZIPEK_clean_linker_0, # of connection points: 2
#     Edge 27, Type (0, 0), BuildingBlock: EZIPEK_clean_linker_0, # of connection points: 2
#     Edge 28, Type (0, 0), BuildingBlock: EZIPEK_clean_linker_0, # of connection points: 2
#     Edge 29, Type (0, 0), BuildingBlock: EZIPEK_clean_linker_0, # of connection points: 2
#     Edge 30, Type (0, 0), BuildingBlock: EZIPEK_clean_linker_0, # of connection points: 2
#     Edge 31, Type (0, 0), BuildingBlock: EZIPEK_clean_linker_0, # of connection points: 2
#     Edge 32, Type (0, 0), BuildingBlock: EZIPEK_clean_linker_0, # of connection points: 2
#     Edge 33, Type (0, 0), BuildingBlock: EZIPEK_clean_linker_0, # of connection points: 2
#     Edge 34, Type (0, 0), BuildingBlock: EZIPEK_clean_linker_0, # of connection points: 2
#     Edge 35, Type (0, 0), BuildingBlock: EZIPEK_clean_linker_0, # of connection points: 2
#     Edge 36, Type (0, 0), BuildingBlock: EZIPEK_clean_linker_0, # of connection points: 2
#     Edge 37, Type (0, 0), BuildingBlock: EZIPEK_clean_linker_0, # of connection points: 2
#     Edge 38, Type (0, 0), BuildingBlock: EZIPEK_clean_linker_0, # of connection points: 2
#     Edge 39, Type (0, 0), BuildingBlock: EZIPEK_clean_linker_0, # of connection points: 2
# Relax obj value: 0.220
# Max RMSD: 0.285
# Mean RMSD: 0.285
data_MOF--net-lhb--node1-OLANAS_clean_sbu_2--edge1-EZIPEK_clean_linker_0
_symmetry_space_group_name_H-M    P1
_symmetry_Int_Tables_number       1
_symmetry_cell_setting            triclinic
loop_
_symmetry_equiv_pos_as_xyz
'x, y, z'
_cell_length_a     24.204684
_cell_length_b     15.168536
_cell_length_c     51.718407
_cell_angle_alpha  89.971166
_cell_angle_beta   89.666097
_cell_angle_gamma 89.710156
loop_
_atom_site_label
_atom_site_type_symbol
_atom_site_fract_x
_atom_site_fract_y
_atom_site_fract_z
_atom_type_partial_charge
C0 C 0.03098 0.87881 0.01356 0.0
O1 O 0.03615 0.81676 0.03116 0.0
C2 C 0.0774 0.90627 -0.00305 0.0
C3 C 0.13076 0.8709 -0.00487 0.0
C4 C 0.16747 0.90822 0.97677 0.0
C5 C 0.15032 0.97874 0.96068 0.0
C6 C 0.09594 1.00909 0.96321 0.0
N7 N 0.06404 0.97315 0.98147 0.0
N8 N 0.00582 0.10252 0.009 0.0
Co9 Co 0.99223 1.01191 0.98309 0.0
N10 N 0.92025 0.05023 0.98418 0.0
C11 C 0.85495 0.15115 0.00034 0.0
C12 C 0.81525 0.11042 0.98434 0.0
C13 C 0.82996 0.03801 0.96841 0.0
C14 C 0.88504 1.00982 0.96846 0.0
C15 C 0.90895 0.11785 -0.00021 0.0
N16 N 0.9669 0.92705 0.95766 0.0
N17 N 0.9824 0.92398 0.00996 0.0
N18 N 0.01353 0.09405 0.95605 0.0
C19 C 0.95769 0.14748 0.01417 0.0
O20 O 0.95525 0.21302 0.03077 0.0
C21 C 0.06704 0.07877 0.94858 0.0
O22 O 0.0915 0.12547 0.93045 0.0
C23 C 0.9799 0.16357 0.94578 0.0
C24 C 0.95485 0.32031 0.94222 0.0
C25 C 0.98914 0.25273 0.95236 0.0
C26 C 0.94108 0.14277 0.92702 0.0
C27 C 0.90874 0.20886 0.91603 0.0
C28 C 0.91167 0.29506 0.92559 0.0
C29 C 0.91152 0.93857 0.95345 0.0
O30 O 0.88352 0.8872 0.93786 0.0
C31 C 0.99698 0.85197 0.94805 0.0
C32 C 0.03162 0.862 0.92648 0.0
C33 C 0.0555 0.78822 0.91442 0.0
C34 C 0.04602 0.70411 0.92476 0.0
C35 C 0.0091 0.69222 0.94561 0.0
C36 C 0.98525 0.76679 0.95746 0.0
C37 C 0.93684 0.91839 0.0277 0.0
C38 C 0.88532 0.88674 0.01976 0.0
C39 C 0.84203 0.87797 0.03776 0.0
C40 C 0.85065 0.90047 0.06373 0.0
C41 C 0.90239 0.93027 0.07176 0.0
C42 C 0.94512 0.93897 0.05372 0.0
C43 C 0.05599 0.11723 0.02301 0.0
C44 C 0.15334 0.1467 0.05036 0.0
C45 C 0.10439 0.12936 0.06403 0.0
C46 C 0.05566 0.11469 0.05021 0.0
C47 C 0.10416 0.14349 0.00994 0.0
C48 C 0.15281 0.15915 0.02364 0.0
H49 H 0.14364 0.81646 0.00725 0.0
H50 H 0.2091 0.8825 0.97498 0.0
H51 H 0.17829 1.00724 0.94662 0.0
H52 H 0.84372 0.20624 0.01261 0.0
H53 H 0.77309 0.13447 0.98442 0.0
H54 H 0.79959 1.00645 0.9563 0.0
H55 H 0.02351 0.26886 0.96478 0.0
H56 H 0.93946 0.07632 0.91941 0.0
H57 H 0.88482 0.3447 0.91722 0.0
H58 H 0.03696 0.92681 0.91805 0.0
H59 H 0.0627 0.64692 0.91477 0.0
H60 H 0.95481 0.75855 0.97271 0.0
H61 H 0.87952 0.86501 7e-05 0.0
H62 H 0.81767 0.89223 0.07779 0.0
H63 H 0.9853 0.95994 0.05998 0.0
H64 H 0.19126 0.15879 0.06085 0.0
H65 H 0.0174 0.10352 0.0606 0.0
H66 H 0.10302 0.15881 -0.01037 0.0
C67 C 0.21467 0.18578 0.26842 0.0
O68 O 0.21475 0.11656 0.28373 0.0
C69 C 0.16429 0.21665 0.2553 0.0
C70 C 0.1116 0.17916 0.25524 0.0
C71 C 0.07065 0.21889 0.23956 0.0
C72 C 0.08279 0.29459 0.22456 0.0
C73 C 0.13643 0.32829 0.2256 0.0
N74 N 0.1731 0.2878 0.24076 0.0
N75 N 0.23672 0.41164 0.26608 0.0
Co76 Co 0.24472 0.32618 0.23847 0.0
N77 N 0.31613 0.36517 0.23587 0.0
C78 C 0.38247 0.46884 0.2483 0.0
C79 C 0.41736 0.43452 0.22861 0.0
C80 C 0.39955 0.36463 0.21257 0.0
C81 C 0.34656 0.33106 0.21674 0.0
C82 C 0.33014 0.43139 0.2514 0.0
N83 N 0.26401 0.24633 0.21052 0.0
N84 N 0.26178 0.23231 0.26296 0.0
N85 N 0.21626 0.41411 0.2144 0.0
C86 C 0.28503 0.45693 0.26914 0.0
O87 O 0.29078 0.51831 0.28685 0.0
C88 C 0.16089 0.40163 0.21077 0.0
O89 O 0.13197 0.45009 0.19462 0.0
C90 C 0.24751 0.4806 0.20108 0.0
C91 C 0.27222 0.63527 0.19316 0.0
C92 C 0.24193 0.57115 0.20722 0.0
C93 C 0.27899 0.4557 0.17965 0.0
C94 C 0.30902 0.51802 0.16576 0.0
C95 C 0.30881 0.60605 0.17365 0.0
C96 C 0.31706 0.26193 0.20239 0.0
O97 O 0.34072 0.21585 0.18382 0.0
C98 C 0.23264 0.1719 0.20194 0.0
C99 C 0.18925 0.1866 0.18477 0.0
C100 C 0.16905 0.11751 0.1697 0.0
C101 C 0.18467 0.03088 0.17591 0.0
C102 C 0.22576 1.01307 0.19431 0.0
C103 C 0.25104 0.08485 0.20677 0.0
C104 C 0.31409 0.21321 0.27482 0.0
C105 C 0.35962 0.1829 0.26005 0.0
C106 C 0.41027 0.16466 0.27209 0.0
C107 C 0.4154 0.18042 0.29847 0.0
C108 C 0.36875 0.19774 0.31387 0.0
C109 C 0.31805 0.21416 0.3019 0.0
C110 C 0.19043 0.42098 0.2832 0.0
C111 C 0.10068 0.43586 0.31729 0.0
C112 C 0.14943 0.39411 0.32527 0.0
C113 C 0.1943 0.3878 0.3083 0.0
C114 C 0.14145 0.46247 0.27509 0.0
C115 C 0.0962 0.46969 0.29214 0.0
H116 H 0.10249 0.12086 0.26652 0.0
H117 H 0.02961 0.19102 0.239 0.0
H118 H 0.05168 0.32443 0.21237 0.0
H119 H 0.39572 0.52308 0.2603 0.0
H120 H 0.45801 0.46232 0.22569 0.0
H121 H 0.42599 0.33879 0.1974 0.0
H122 H 0.21301 0.59128 0.22217 0.0
H123 H 0.27683 0.38872 0.17257 0.0
H124 H 0.33203 0.6536 0.16237 0.0
H125 H 0.17739 0.25363 0.18021 0.0
H126 H 0.16859 0.97673 0.16461 0.0
H127 H 0.28605 0.07352 0.21929 0.0
H128 H 0.355 0.16727 0.2399 0.0
H129 H 0.4549 0.16743 0.30761 0.0
H130 H 0.28139 0.2247 0.31358 0.0
H131 H 0.06537 0.43853 0.33028 0.0
H132 H 0.23171 0.35483 0.31435 0.0
H133 H 0.13856 0.48955 0.25581 0.0
C134 C 0.69361 0.6711 0.26019 0.0
O135 O 0.67716 0.61291 0.27742 0.0
C136 C 0.65544 0.70981 0.24128 0.0
C137 C 0.59896 0.69431 0.2381 0.0
C138 C 0.57134 0.73984 0.21802 0.0
C139 C 0.60034 0.79827 0.20154 0.0
C140 C 0.65687 0.80976 0.20582 0.0
N141 N 0.68021 0.76642 0.22536 0.0
N142 N 0.74547 0.88214 0.25352 0.0
Co143 Co 0.75454 0.78291 0.22984 0.0
N144 N 0.82897 0.79997 0.2338 0.0
C145 C 0.90042 0.88429 0.25149 0.0
C146 C 0.93831 0.83039 0.23769 0.0
C147 C 0.91937 0.76172 0.22154 0.0
C148 C 0.86232 0.75028 0.21925 0.0
C149 C 0.84407 0.86641 0.24896 0.0
N150 N 0.77559 0.68716 0.20663 0.0
N151 N 0.7475 0.69834 0.25843 0.0
N152 N 0.74946 0.86435 0.20078 0.0
C153 C 0.79657 0.91275 0.26047 0.0
O154 O 0.8028 0.97552 0.27773 0.0
C155 C 0.69632 0.86586 0.19175 0.0
O156 O 0.68049 0.92026 0.17339 0.0
C157 C 0.78717 0.93531 0.1957 0.0
C158 C 0.80867 0.09152 0.19748 0.0
C159 C 0.77301 0.02156 0.20299 0.0
C160 C 0.83509 0.92045 0.18096 0.0
C161 C 0.87167 0.99018 0.17473 0.0
C162 C 0.85978 0.07358 0.18552 0.0
C163 C 0.83192 0.68624 0.20349 0.0
O164 O 0.85746 0.62619 0.18945 0.0
C165 C 0.7423 0.61265 0.19967 0.0
C166 C 0.70306 0.62094 0.18 0.0
C167 C 0.67702 0.54608 0.16989 0.0
C168 C 0.68973 0.46266 0.17998 0.0
C169 C 0.73102 0.45289 0.19872 0.0
C170 C 0.75584 0.52819 0.20913 0.0
C171 C 0.7882 0.67235 0.27723 0.0
C172 C 0.83801 0.63115 0.26972 0.0
C173 C 0.87746 0.60744 0.28829 0.0
C174 C 0.86629 0.62308 0.31441 0.0
C175 C 0.81719 0.66433 0.32218 0.0
C176 C 0.77731 0.68547 0.30374 0.0
C177 C 0.69692 0.90471 0.26817 0.0
C178 C 0.60584 0.95141 0.2991 0.0
C179 C 0.65094 0.90691 0.30994 0.0
C180 C 0.69672 0.88715 0.29463 0.0
C181 C 0.65157 0.94873 0.25705 0.0
C182 C 0.60615 0.97384 0.27269 0.0
H183 H 0.57691 0.64917 0.2506 0.0
H184 H 0.52759 0.72955 0.21518 0.0
H185 H 0.57935 0.83258 0.18606 0.0
H186 H 0.91474 0.93745 0.26364 0.0
H187 H 0.98221 0.84186 0.23949 0.0
H188 H 0.94824 0.72052 0.21093 0.0
H189 H 0.73336 0.03436 0.2121 0.0
H190 H 0.84084 0.85526 0.17293 0.0
H191 H 0.88615 0.12908 0.18215 0.0
H192 H 0.69621 0.68455 0.17105 0.0
H193 H 0.67215 0.40454 0.17107 0.0
H194 H 0.78917 0.52056 0.22284 0.0
H195 H 0.84601 0.6156 0.24977 0.0
H196 H 0.89794 0.60905 0.32865 0.0
H197 H 0.73882 0.715 0.31002 0.0
H198 H 0.57 0.96636 0.31102 0.0
H199 H 0.73249 0.85691 0.30334 0.0
H200 H 0.65208 0.96539 0.23671 0.0
C201 C 0.0482 0.36917 0.50749 0.0
O202 O 0.05957 0.30953 0.52516 0.0
C203 C 0.09125 0.40898 0.49108 0.0
C204 C 0.14803 0.39196 0.49038 0.0
C205 C 0.18058 0.44026 0.47254 0.0
C206 C 0.15604 0.50216 0.45554 0.0
C207 C 0.09878 0.51371 0.4569 0.0
N208 N 0.07092 0.46903 0.47487 0.0
N209 N 0.00149 0.58053 0.50313 0.0
Co210 Co 0.99651 0.48933 0.47653 0.0
N211 N 0.92196 0.50951 0.47762 0.0
C212 C 0.84804 0.59398 0.49374 0.0
C213 C 0.81322 0.54806 0.4765 0.0
C214 C 0.83501 0.48322 0.45951 0.0
C215 C 0.89182 0.46612 0.46034 0.0
C216 C 0.90427 0.57226 0.49373 0.0
N217 N 0.98038 0.40124 0.45027 0.0
N218 N 0.99544 0.39868 0.50315 0.0
N219 N 0.0088 0.57716 0.44978 0.0
C220 C 0.94946 0.61186 0.50867 0.0
O221 O 0.94057 0.67442 0.52581 0.0
C222 C 0.06328 0.57529 0.44235 0.0
O223 O 0.0839 0.63314 0.42605 0.0
C224 C 0.97426 0.65306 0.44534 0.0
C225 C 0.95959 0.81133 0.44986 0.0
C226 C 0.988 0.73424 0.45666 0.0
C227 C 0.93179 0.64966 0.42699 0.0
C228 C 0.9026 0.72665 0.42011 0.0
C229 C 0.91474 0.80608 0.43278 0.0
C230 C 0.92504 0.40359 0.44478 0.0
O231 O 0.9022 0.3469 0.42892 0.0
C232 C 0.01504 0.32636 0.44424 0.0
C233 C 0.05953 0.33456 0.42685 0.0
C234 C 0.09411 0.26174 0.42121 0.0
C235 C 0.08586 0.1833 0.43499 0.0
C236 C 0.03658 0.17019 0.44902 0.0
C237 C 0.00206 0.24262 0.45414 0.0
C238 C 0.94955 0.3741 0.51925 0.0
C239 C 0.9046 0.32761 0.50905 0.0
C240 C 0.86128 0.30093 0.52531 0.0
C241 C 0.86296 0.32095 0.55163 0.0
C242 C 0.90613 0.37053 0.56172 0.0
C243 C 0.94991 0.3955 0.54564 0.0
C244 C 0.04942 0.60395 0.51802 0.0
C245 C 0.14349 0.64322 0.54697 0.0
C246 C 0.09605 0.6122 0.55968 0.0
C247 C 0.04865 0.59466 0.54512 0.0
C248 C 0.09649 0.6398 0.50596 0.0
C249 C 0.14348 0.66047 0.52044 0.0
H250 H 0.16673 0.34412 0.5032 0.0
H251 H 0.22479 0.42947 0.4718 0.0
H252 H 0.18092 0.53918 0.44194 0.0
H253 H 0.83156 0.64451 0.50643 0.0
H254 H 0.76948 0.56318 0.47615 0.0
H255 H 0.80851 0.44881 0.44614 0.0
H256 H 0.02381 0.73879 0.46897 0.0
H257 H 0.92422 0.58854 0.4168 0.0
H258 H 0.89434 0.86629 0.4266 0.0
H259 H 0.06541 0.39643 0.41677 0.0
H260 H 0.11413 0.12854 0.43255 0.0
H261 H 0.96407 0.23287 0.46479 0.0
H262 H 0.90299 0.31182 0.48877 0.0
H263 H 0.82835 0.30328 0.564 0.0
H264 H 0.98315 0.43372 0.55343 0.0
H265 H 0.18051 0.65681 0.55798 0.0
H266 H 0.01135 0.57379 0.55488 0.0
H267 H 0.0963 0.65512 0.48565 0.0
C268 C 0.1984 0.64113 0.76321 0.0
O269 O 0.19253 0.57752 0.78027 0.0
C270 C 0.15189 0.67493 0.74781 0.0
C271 C 0.09788 0.64307 0.74617 0.0
C272 C 0.06184 0.68348 0.72818 0.0
C273 C 0.07992 0.75472 0.71261 0.0
C274 C 0.13453 0.78297 0.71535 0.0
N275 N 0.16645 0.74191 0.73257 0.0
N276 N 0.23389 0.86163 0.75764 0.0
Co277 Co 0.24019 0.76943 0.73175 0.0
N278 N 0.31383 0.79785 0.73054 0.0
C279 C 0.38212 0.90134 0.74079 0.0
C280 C 0.41633 0.86104 0.72185 0.0
C281 C 0.39725 0.78838 0.70728 0.0
C282 C 0.34366 0.75811 0.71214 0.0
C283 C 0.32912 0.86716 0.74463 0.0
N284 N 0.25814 0.68066 0.70579 0.0
N285 N 0.24829 0.68047 0.7585 0.0
N286 N 0.2205 0.85438 0.70498 0.0
C287 C 0.28381 0.90193 0.76084 0.0
O288 O 0.29051 0.96797 0.77696 0.0
C289 C 0.1652 0.84839 0.69982 0.0
O290 O 0.14103 0.89809 0.68234 0.0
C291 C 0.25528 0.92109 0.69367 0.0
C292 C 0.27623 0.07685 0.68637 0.0
C293 C 0.24668 1.01075 0.69964 0.0
C294 C 0.2913 0.89854 0.6734 0.0
C295 C 0.3191 0.96404 0.65918 0.0
C296 C 0.31466 0.05182 0.66722 0.0
C297 C 0.31234 0.68958 0.69841 0.0
O298 O 0.33532 0.63875 0.68075 0.0
C299 C 0.22485 0.60705 0.69778 0.0
C300 C 0.18047 0.62206 0.68112 0.0
C301 C 0.16014 0.55425 0.66539 0.0
C302 C 0.17664 0.46754 0.67077 0.0
C303 C 0.21822 0.44917 0.6889 0.0
C304 C 0.24338 0.51988 0.70186 0.0
C305 C 0.29671 0.66377 0.77355 0.0
C306 C 0.34444 0.62823 0.76196 0.0
C307 C 0.3921 0.61467 0.77668 0.0
C308 C 0.3924 0.6404 0.8026 0.0
C309 C 0.3439 0.67029 0.81486 0.0
C310 C 0.29569 0.67923 0.80032 0.0
C311 C 0.18591 0.88333 0.77268 0.0
C312 C 0.09162 0.92277 0.80193 0.0
C313 C 0.13563 0.878 0.81348 0.0
C314 C 0.18318 0.85974 0.7989 0.0
C315 C 0.14131 0.92738 0.76125 0.0
C316 C 0.09386 0.94619 0.77581 0.0
H317 H 0.08426 0.58813 0.7579 0.0
H318 H 0.02 0.65966 0.72629 0.0
H319 H 0.05266 0.78475 0.69859 0.0
H320 H 0.39615 0.95825 0.75147 0.0
H321 H 0.45733 0.88659 0.71828 0.0
H322 H 0.42294 0.75871 0.69243 0.0
H323 H 0.21532 0.02892 0.71372 0.0
H324 H 0.29292 0.83089 0.66681 0.0
H325 H 0.33544 0.10261 0.65613 0.0
H326 H 0.16885 0.68899 0.67679 0.0
H327 H 0.16156 0.41415 0.65891 0.0
H328 H 0.27898 0.50782 0.71398 0.0
H329 H 0.34386 0.60711 0.74204 0.0
H330 H 0.42983 0.63132 0.81376 0.0
H331 H 0.25746 0.697 0.80985 0.0
H332 H 0.05409 0.93509 0.81298 0.0
H333 H 0.21719 0.82566 0.80774 0.0
H334 H 0.14331 0.94715 0.74121 0.0
C335 C 0.69548 0.14117 0.76083 0.0
O336 O 0.68789 0.07873 0.77812 0.0
C337 C 0.65029 0.17473 0.74462 0.0
C338 C 0.59555 0.14601 0.7432 0.0
C339 C 0.56078 0.18582 0.72457 0.0
C340 C 0.5811 0.25229 0.70785 0.0
C341 C 0.6365 0.27662 0.7102 0.0
N342 N 0.66679 0.23805 0.72852 0.0
N343 N 0.7343 0.35815 0.75418 0.0
Co344 Co 0.74075 0.26449 0.72865 0.0
N345 N 0.81466 0.291 0.7281 0.0
C346 C 0.88618 0.38316 0.74198 0.0
C347 C 0.92186 0.33752 0.72476 0.0
C348 C 0.90174 0.26848 0.70903 0.0
C349 C 0.8456 0.24797 0.7108 0.0
C350 C 0.83087 0.35711 0.74314 0.0
N351 N 0.7594 0.17462 0.70322 0.0
N352 N 0.7464 0.17708 0.75606 0.0
N353 N 0.72281 0.34808 0.70137 0.0
C354 C 0.7852 0.39458 0.75844 0.0
O355 O 0.79297 0.45712 0.77562 0.0
C356 C 0.66831 0.34083 0.69487 0.0
O357 O 0.64533 0.39148 0.67727 0.0
C358 C 0.75786 0.41696 0.69185 0.0
C359 C 0.78552 0.57262 0.69056 0.0
C360 C 0.74968 0.50538 0.69948 0.0
C361 C 0.79699 0.39713 0.67285 0.0
C362 C 0.8311 0.46303 0.66299 0.0
C363 C 0.82926 0.54769 0.67383 0.0
C364 C 0.81402 0.18157 0.6964 0.0
O365 O 0.83803 0.12588 0.68038 0.0
C366 C 0.72813 0.09668 0.69772 0.0
C367 C 0.6912 0.09797 0.67708 0.0
C368 C 0.66782 0.01947 0.668 0.0
C369 C 0.67908 0.93996 0.68088 0.0
C370 C 0.71958 0.93641 0.70019 0.0
C371 C 0.74248 1.0154 0.7092 0.0
C372 C 0.79415 0.15399 0.77089 0.0
C373 C 0.83993 0.11307 0.75915 0.0
C374 C 0.8847 0.08574 0.77406 0.0
C375 C 0.88311 0.09675 0.8008 0.0
C376 C 0.83877 0.14038 0.81265 0.0
C377 C 0.79405 0.16822 0.7977 0.0
C378 C 0.68742 0.37695 0.7703 0.0
C379 C 0.59781 0.41824 0.80237 0.0
C380 C 0.64694 0.38668 0.81335 0.0
C381 C 0.69179 0.3669 0.79721 0.0
C382 C 0.63899 0.41274 0.75969 0.0
C383 C 0.5942 0.4342 0.77582 0.0
H384 H 0.5803 0.09423 0.75571 0.0
H385 H 0.51826 0.16489 0.72299 0.0
H386 H 0.55473 0.28215 0.69343 0.0
H387 H 0.90131 0.43661 0.75379 0.0
H388 H 0.96497 0.35571 0.72355 0.0
H389 H 0.9289 0.23369 0.69579 0.0
H390 H 0.71494 0.52122 0.71194 0.0
H391 H 0.79813 0.33174 0.66445 0.0
H392 H 0.85795 0.59666 0.66666 0.0
H393 H 0.68443 0.15918 0.66672 0.0
H394 H 0.66302 0.87896 0.67304 0.0
H395 H 0.77521 1.0123 0.72324 0.0
H396 H 0.84113 0.10089 0.73873 0.0
H397 H 0.91862 0.07729 0.81224 0.0
H398 H 0.75994 0.20217 0.80679 0.0
H399 H 0.56295 0.43487 0.81477 0.0
H400 H 0.73046 0.34573 0.80562 0.0
H401 H 0.63698 0.42793 0.73931 0.0
C402 C 0.54005 0.82928 0.51186 0.0
O403 O 0.53575 0.76768 0.52963 0.0
C404 C 0.59363 0.85525 0.50058 0.0
C405 C 0.6459 0.81773 0.50432 0.0
C406 C 0.69087 0.85282 0.4901 0.0
C407 C 0.68288 0.9234 0.47254 0.0
C408 C 0.62928 0.95669 0.46956 0.0
N409 N 0.58903 0.92236 0.48406 0.0
N410 N 0.52015 0.05252 0.50441 0.0
Co411 Co 0.51887 0.96253 0.4778 0.0
N412 N 0.44844 1.00142 0.47133 0.0
C413 C 0.37935 0.10725 0.47904 0.0
C414 C 0.3491 0.069 0.45857 0.0
C415 C 0.36989 0.9945 0.44507 0.0
C416 C 0.42149 0.96095 0.45231 0.0
C417 C 0.43072 0.07029 0.48512 0.0
N418 N 0.50636 0.87782 0.45019 0.0
N419 N 0.49511 0.87508 0.50294 0.0
N420 N 0.55388 0.04549 0.45383 0.0
C421 C 0.47148 0.09898 0.50438 0.0
O422 O 0.4626 0.16634 0.51987 0.0
C423 C 0.60932 0.02717 0.4522 0.0
O424 O 0.64312 0.07425 0.43786 0.0
C425 C 0.5291 0.12459 0.44337 0.0
C426 C 0.52482 0.28542 0.43772 0.0
C427 C 0.54961 0.21005 0.44887 0.0
C428 C 0.48637 0.11593 0.42567 0.0
C429 C 0.46359 0.18918 0.41322 0.0
C430 C 0.48102 0.27347 0.4204 0.0
C431 C 0.45448 0.88949 0.4403 0.0
O432 O 0.43588 0.84159 0.42108 0.0
C433 C 0.54433 0.81145 0.44101 0.0
C434 C 0.58021 0.83157 0.42056 0.0
C435 C 0.61709 0.7679 0.41058 0.0
C436 C 0.62004 0.68567 0.423 0.0
C437 C 0.57774 0.65927 0.44009 0.0
C438 C 0.54085 0.72368 0.44979 0.0
C439 C 0.4414 0.8715 0.51482 0.0
C440 C 0.39553 0.84136 0.50086 0.0
C441 C 0.34281 0.84309 0.5123 0.0
C442 C 0.33596 0.88387 0.53632 0.0
C443 C 0.38186 0.90098 0.55204 0.0
C444 C 0.43482 0.89406 0.54103 0.0
C445 C 0.5651 0.07315 0.52117 0.0
C446 C 0.65101 0.11917 0.55438 0.0
C447 C 0.60421 0.07667 0.56416 0.0
C448 C 0.56117 0.05431 0.54759 0.0
C449 C 0.61234 0.11503 0.51151 0.0
C450 C 0.65538 0.13796 0.52803 0.0
H451 H 0.65182 0.76308 0.5175 0.0
H452 H 0.73182 0.82532 0.49263 0.0
H453 H 0.71727 0.95032 0.46171 0.0
H454 H 0.36349 0.16416 0.48935 0.0
H455 H 0.30954 0.09687 0.45323 0.0
H456 H 0.34695 0.96566 0.42932 0.0
H457 H 0.58516 0.21848 0.46107 0.0
H458 H 0.47479 0.05099 0.41943 0.0
H459 H 0.46354 0.33053 0.41075 0.0
H460 H 0.57753 0.89625 0.41171 0.0
H461 H 0.65142 0.63824 0.41753 0.0
H462 H 0.50805 0.70509 0.46302 0.0
H463 H 0.40133 0.81091 0.48213 0.0
H464 H 0.29461 0.88929 0.5444 0.0
H465 H 0.47082 0.9043 0.55284 0.0
H466 H 0.68498 0.13482 0.56716 0.0
H467 H 0.52571 0.02041 0.55513 0.0
H468 H 0.6158 0.13133 0.49144 0.0
C469 C 0.53523 0.40787 0.0177 0.0
O470 O 0.54054 0.34021 0.0334 0.0
C471 C 0.5826 0.44668 0.0039 0.0
C472 C 0.63733 0.41679 0.00267 0.0
C473 C 0.67433 0.4617 0.98602 0.0
C474 C 0.65641 0.53525 0.97135 0.0
C475 C 0.60107 0.56148 0.97369 0.0
N476 N 0.56827 0.51617 -0.01042 0.0
N477 N 0.49612 0.62902 0.01539 0.0
Co478 Co 0.49418 0.54126 -0.01211 0.0
N479 N 0.42009 0.56611 0.98627 0.0
C480 C 0.34661 0.6583 -0.00113 0.0
C481 C 0.3142 0.61707 0.97969 0.0
C482 C 0.33663 0.5489 0.96406 0.0
C483 C 0.39156 0.52368 0.96823 0.0
C484 C 0.40147 0.63045 0.0016 0.0
N485 N 0.4807 0.45665 0.96015 0.0
N486 N 0.48506 0.44609 0.01271 0.0
N487 N 0.51484 0.63299 0.963 0.0
C488 C 0.44463 0.66529 0.01868 0.0
O489 O 0.43452 0.72713 0.0359 0.0
C490 C 0.57083 0.62887 0.95876 0.0
O491 O 0.59597 0.68084 0.94213 0.0
C492 C 0.48085 0.70213 0.95202 0.0
C493 C 0.47015 0.85752 0.94001 0.0
C494 C 0.49572 0.79133 0.95494 0.0
C495 C 0.43958 0.68066 0.93426 0.0
C496 C 0.41712 0.744 0.9174 0.0
C497 C 0.43127 0.83267 0.92132 0.0
C498 C 0.42589 0.46044 0.95351 0.0
O499 O 0.40515 0.41078 0.93516 0.0
C500 C 0.51661 0.38676 0.95097 0.0
C501 C 0.56181 0.40686 0.93495 0.0
C502 C 0.58435 0.34333 0.91805 0.0
C503 C 0.56873 0.25488 0.92178 0.0
C504 C 0.52754 0.23103 0.93963 0.0
C505 C 0.50025 0.29808 0.95348 0.0
C506 C 0.435 0.41763 0.02504 0.0
C507 C 0.39664 0.36435 0.01207 0.0
C508 C 0.34998 0.33259 0.02531 0.0
C509 C 0.3425 0.35285 0.05146 0.0
C510 C 0.37934 0.40842 0.06415 0.0
C511 C 0.42585 0.43915 0.05097 0.0
C512 C 0.54199 0.65149 0.03156 0.0
C513 C 0.63008 0.69457 0.06389 0.0
C514 C 0.58666 0.64382 0.07347 0.0
C515 C 0.54196 0.62477 0.05755 0.0
C516 C 0.58642 0.70155 0.02192 0.0
C517 C 0.63079 0.72255 0.03818 0.0
H518 H 0.65078 0.35991 0.01364 0.0
H519 H 0.71676 0.43945 0.98443 0.0
H520 H 0.68444 0.56871 0.9583 0.0
H521 H 0.32966 0.71086 0.01068 0.0
H522 H 0.27184 0.63798 0.9769 0.0
H523 H 0.31212 0.51808 0.94918 0.0
H524 H 0.52867 0.80866 0.96805 0.0
H525 H 0.43045 0.61268 0.93093 0.0
H526 H 0.41514 0.88285 0.90849 0.0
H527 H 0.57431 0.47436 0.93297 0.0
H528 H 0.58554 0.20381 0.90941 0.0
H529 H 0.46498 0.28148 0.96538 0.0
H530 H 0.40254 0.34765 -0.00799 0.0
H531 H 0.30577 0.33008 0.06154 0.0
H532 H 0.45483 0.47972 0.061 0.0
H533 H 0.66551 0.70735 0.0761 0.0
H534 H 0.50816 0.5875 0.06529 0.0
H535 H 0.5867 0.72398 0.00211 0.0
C536 C 0.08818 0.06819 0.10944 0.0
C537 C 0.10506 0.13741 0.09274 0.0
C538 C 0.15972 0.20041 0.12705 0.0
C539 C 0.14016 0.13501 0.14468 0.0
N540 N 0.06812 0.02942 0.15391 0.0
N541 N 0.13455 0.2891 0.09025 0.0
C542 C 0.0977 0.07723 0.13636 0.0
C543 C 0.13193 0.21131 0.10345 0.0
N544 N 0.06803 0.99122 0.09982 0.0
N545 N 0.20835 0.24405 0.13063 0.0
H546 H 0.11377 0.29876 0.07282 0.0
H547 H 0.15235 0.34545 0.09816 0.0
H548 H 0.23712 0.22699 0.14465 0.0
H549 H 0.22409 0.28816 0.117 0.0
H550 H 0.05891 0.93711 0.1115 0.0
H551 H 0.06677 0.97799 0.0801 0.0
H552 H 0.03569 0.98844 0.1486 0.0
H553 H 0.07271 0.03822 0.1738 0.0
C554 C 0.92257 0.87646 0.11668 0.0
C555 C 0.91293 0.94781 0.09942 0.0
C556 C 0.92239 0.05028 0.13536 0.0
C557 C 0.91284 0.97971 0.15267 0.0
N558 N 0.94344 0.83313 0.16094 0.0
N559 N 0.90909 0.10534 0.09207 0.0
C560 C 0.92583 0.89439 0.1436 0.0
C561 C 0.91514 0.0358 0.10858 0.0
N562 N 0.9265 0.79227 0.10748 0.0
N563 N 0.94685 0.12534 0.14392 0.0
H564 H 0.90415 0.09765 0.07217 0.0
H565 H 0.90549 0.17019 0.09859 0.0
H566 H 0.96313 0.12901 0.16254 0.0
H567 H 0.95886 0.17626 0.13159 0.0
H568 H 0.92794 0.73691 0.11937 0.0
H569 H 0.92641 0.77765 0.08777 0.0
H570 H 0.95694 0.77004 0.15602 0.0
H571 H 0.94949 0.85124 0.18016 0.0
C572 C 0.1688 0.33697 0.39623 0.0
C573 C 0.13177 0.26599 0.3981 0.0
C574 C 0.12336 0.26211 0.35111 0.0
C575 C 0.15021 0.34484 0.3499 0.0
N576 N 0.20454 0.4577 0.37038 0.0
N577 N 0.10604 0.13173 0.37645 0.0
C578 C 0.17606 0.38042 0.3721 0.0
C579 C 0.11825 0.2192 0.3753 0.0
N580 N 0.19859 0.35868 0.41747 0.0
N581 N 0.10168 0.22554 0.32926 0.0
H582 H 0.11135 0.09488 0.39314 0.0
H583 H 0.09948 0.0926 0.36023 0.0
H584 H 0.10834 0.25133 0.31081 0.0
H585 H 0.07488 0.17203 0.32954 0.0
H586 H 0.23012 0.40511 0.41742 0.0
H587 H 0.19509 0.32148 0.4344 0.0
H588 H 0.21945 0.49147 0.38639 0.0
H589 H 0.2111 0.49021 0.35285 0.0
C590 C 0.79847 0.65219 0.36986 0.0
C591 C 0.81583 0.70292 0.34841 0.0
C592 C 0.88261 0.77948 0.3746 0.0
C593 C 0.86734 0.72734 0.39641 0.0
N594 N 0.79738 0.63823 0.41664 0.0
N595 N 0.85518 0.83833 0.33313 0.0
C596 C 0.82058 0.67146 0.39468 0.0
C597 C 0.85005 0.7764 0.35214 0.0
N598 N 0.76284 0.58406 0.36622 0.0
N599 N 0.93151 0.82349 0.37395 0.0
H600 H 0.83264 0.83506 0.31603 0.0
H601 H 0.87711 0.89667 0.33562 0.0
H602 H 0.96064 0.81656 0.38835 0.0
H603 H 0.94635 0.85618 0.35762 0.0
H604 H 0.7528 0.53881 0.38064 0.0
H605 H 0.74485 0.57204 0.34827 0.0
H606 H 0.76115 0.60145 0.41679 0.0
H607 H 0.8116 0.65631 0.43486 0.0
C608 C 0.12105 0.67176 0.60282 0.0
C609 C 0.09738 0.60287 0.58841 0.0
C610 C 0.09389 0.5176 0.62854 0.0
C611 C 0.13267 0.57552 0.64006 0.0
N612 N 0.19937 0.68934 0.62971 0.0
N613 N 0.07179 0.44857 0.58789 0.0
C614 C 0.1502 0.64926 0.62529 0.0
C615 C 0.08562 0.52235 0.60134 0.0
N616 N 0.12024 0.75646 0.59403 0.0
N617 N 0.06536 0.45851 0.64313 0.0
H618 H 0.07173 0.44647 0.56777 0.0
H619 H 0.06748 0.38725 0.59679 0.0
H620 H 0.06736 0.45803 0.66328 0.0
H621 H 0.03579 0.41751 0.63505 0.0
H622 H 0.13602 0.80821 0.60499 0.0
H623 H 0.09871 0.77473 0.5774 0.0
H624 H 0.21273 0.7401 0.618 0.0
H625 H 0.23023 0.66277 0.64136 0.0
C626 C 0.83009 0.4808 0.61504 0.0
C627 C 0.85753 0.44911 0.63737 0.0
C628 C 0.92378 0.36996 0.60977 0.0
C629 C 0.89858 0.40863 0.5878 0.0
N630 N 0.83942 0.52168 0.57018 0.0
N631 N 0.93499 0.37496 0.65651 0.0
C632 C 0.85614 0.47207 0.59078 0.0
C633 C 0.90625 0.39752 0.63489 0.0
N634 N 0.77698 0.51138 0.61652 0.0
N635 N 0.96287 0.30565 0.60655 0.0
H636 H 0.92492 0.40133 0.67454 0.0
H637 H 0.97056 0.33623 0.65649 0.0
H638 H 0.97735 0.28658 0.58834 0.0
H639 H 0.97913 0.26878 0.62171 0.0
H640 H 0.7538 0.52729 0.60022 0.0
H641 H 0.75395 0.51134 0.63362 0.0
H642 H 0.81111 0.57339 0.57196 0.0
H643 H 0.85828 0.51705 0.55202 0.0
C644 C 0.15096 0.87672 0.86183 0.0
C645 C 0.12671 0.83942 0.83952 0.0
C646 C 0.05846 0.76399 0.86614 0.0
C647 C 0.08336 0.79845 0.88877 0.0
N648 N 0.16238 0.86583 0.90835 0.0
N649 N 0.07111 0.7243 0.82121 0.0
C650 C 0.13274 0.84796 0.88667 0.0
C651 C 0.08543 0.77439 0.84205 0.0
N652 N 0.18952 0.94155 0.85935 0.0
N653 N 0.00691 0.72819 0.86713 0.0
H654 H 0.09093 0.7301 0.80331 0.0
H655 H 0.04414 0.67111 0.82254 0.0
H656 H 0.98326 0.72756 0.88393 0.0
H657 H 0.98512 0.70943 0.85072 0.0
H658 H 0.20418 0.97784 0.87494 0.0
H659 H 0.20448 0.96243 0.84142 0.0
H660 H 0.19997 0.89872 0.90816 0.0
H661 H 0.15153 0.83958 0.9263 0.0
C662 C 0.81806 0.12924 0.86057 0.0
C663 C 0.84603 0.17018 0.83958 0.0
C664 C 0.91626 0.22455 0.86843 0.0
C665 C 0.88557 0.1942 0.89 0.0
N666 N 0.80486 0.12324 0.90731 0.0
N667 N 0.91072 0.28026 0.82501 0.0
C668 C 0.83525 0.14855 0.88632 0.0
C669 C 0.89099 0.22673 0.84416 0.0
N670 N 0.77679 0.07052 0.85583 0.0
N671 N 0.97114 0.24351 0.87051 0.0
H672 H 0.89182 0.2849 0.80696 0.0
H673 H 0.94177 0.32639 0.82821 0.0
H674 H 0.99307 0.23552 0.88766 0.0
H675 H 0.99588 0.25818 0.85451 0.0
H676 H 0.7581 0.03241 0.87011 0.0
H677 H 0.76293 0.05704 0.83719 0.0
H678 H 0.76735 0.09033 0.90622 0.0
H679 H 0.81594 0.14085 0.92603 0.0
C680 C 0.59564 0.07622 0.6373 0.0
C681 C 0.64109 0.01917 0.64212 0.0
C682 C 0.64037 0.97403 0.59676 0.0
C683 C 0.60515 0.04556 0.59114 0.0
N684 N 0.5492 0.16781 0.6056 0.0
N685 N 0.71426 0.92717 0.62412 0.0
C686 C 0.58195 0.09703 0.61131 0.0
C687 C 0.6649 0.96986 0.62137 0.0
N688 N 0.56594 0.11009 0.65751 0.0
N689 N 0.65282 0.91324 0.57811 0.0
H690 H 0.73791 0.93197 0.64067 0.0
H691 H 0.73524 0.89714 0.6088 0.0
H692 H 0.63581 0.91597 0.55962 0.0
H693 H 0.67516 0.85577 0.58191 0.0
H694 H 0.5303 0.148 0.6552 0.0
H695 H 0.5741 0.09234 0.6766 0.0
H696 H 0.53599 0.21338 0.6194 0.0
H697 H 0.53755 0.18303 0.58671 0.0
C698 C 0.33161 0.86259 0.59285 0.0
C699 C 0.37301 0.91303 0.58055 0.0
C700 C 0.39063 0.98081 0.62278 0.0
C701 C 0.34073 0.94422 0.63265 0.0
N702 N 0.25154 0.89319 0.61818 0.0
N703 N 0.43153 0.0415 0.58394 0.0
C704 C 0.30743 0.89601 0.61543 0.0
C705 C 0.4005 0.97801 0.59553 0.0
N706 N 0.3148 0.78367 0.58317 0.0
N707 N 0.42806 0.01813 0.63895 0.0
H708 H 0.43365 0.04829 0.56391 0.0
H709 H 0.44838 0.09373 0.59427 0.0
H710 H 0.42299 0.01775 0.659 0.0
H711 H 0.46624 0.04066 0.63234 0.0
H712 H 0.28463 0.74619 0.59236 0.0
H713 H 0.33549 0.75211 0.56799 0.0
H714 H 0.22703 0.87181 0.60289 0.0
H715 H 0.2302 0.9245 0.63318 0.0
C716 C 0.65445 0.30566 0.88303 0.0
C717 C 0.61726 0.36818 0.89412 0.0
C718 C 0.63537 0.45927 0.85595 0.0
C719 C 0.65141 0.38365 0.84199 0.0
N720 N 0.67253 0.22748 0.84331 0.0
N721 N 0.56437 0.50256 0.8851 0.0
C722 C 0.66137 0.30464 0.8558 0.0
C723 C 0.60686 0.44675 0.87952 0.0
N724 N 0.68239 0.24741 0.89816 0.0
N725 N 0.64175 0.54114 0.84546 0.0
H726 H 0.53103 0.48427 0.89657 0.0
H727 H 0.55708 0.55925 0.87423 0.0
H728 H 0.66172 0.55056 0.82772 0.0
H729 H 0.63262 0.59858 0.85577 0.0
H730 H 0.71124 0.20357 0.89039 0.0
H731 H 0.68044 0.25034 0.91833 0.0
H732 H 0.67548 0.16757 0.85314 0.0
H733 H 0.67276 0.22218 0.82325 0.0
C734 C 0.34487 0.77317 0.88241 0.0
C735 C 0.38583 0.71698 0.89347 0.0
C736 C 0.36813 0.61442 0.85821 0.0
C737 C 0.34433 0.68232 0.84342 0.0
N738 N 0.31425 0.83483 0.84181 0.0
N739 N 0.44858 0.59562 0.88338 0.0
C740 C 0.33273 0.76422 0.85564 0.0
C741 C 0.40001 0.63879 0.87959 0.0
N742 N 0.31758 0.83387 0.89716 0.0
N743 N 0.36595 0.52886 0.85022 0.0
H744 H 0.48072 0.62289 0.89394 0.0
H745 H 0.4598 0.54138 0.8721 0.0
H746 H 0.34307 0.50998 0.83409 0.0
H747 H 0.38235 0.47742 0.86124 0.0
H748 H 0.28651 0.87403 0.88968 0.0
H749 H 0.32212 0.83655 0.91721 0.0
H750 H 0.30991 0.89741 0.84994 0.0
H751 H 0.30868 0.83281 0.82188 0.0
C752 C 0.63765 0.53352 0.09888 0.0
C753 C 0.59516 0.59745 0.09829 0.0
C754 C 0.5935 0.59942 0.14553 0.0
C755 C 0.64485 0.55392 0.14557 0.0
N756 N 0.7196 0.48687 0.12103 0.0
N757 N 0.53002 0.6904 0.12083 0.0
C758 C 0.66752 0.52162 0.12196 0.0
C759 C 0.5715 0.62924 0.12159 0.0
N760 N 0.65088 0.48735 0.07701 0.0
N761 N 0.56581 0.61284 0.16823 0.0
H762 H 0.51225 0.71109 0.1035 0.0
H763 H 0.51528 0.72318 0.13719 0.0
H764 H 0.58073 0.58899 0.1858 0.0
H765 H 0.52605 0.63929 0.16921 0.0
H766 H 0.67885 0.43487 0.07686 0.0
H767 H 0.62937 0.49568 0.05973 0.0
H768 H 0.73978 0.47053 0.10383 0.0
H769 H 0.745 0.48378 0.13707 0.0
C770 C 0.38455 0.46464 0.13605 0.0
C771 C 0.32963 0.49482 0.13972 0.0
C772 C 0.31397 0.48807 0.09332 0.0
C773 C 0.36491 0.44284 0.09013 0.0
N774 N 0.44634 0.37746 0.10928 0.0
N775 N 0.2381 0.5185 0.12226 0.0
C776 C 0.39996 0.42854 0.1117 0.0
C777 C 0.29309 0.50168 0.11849 0.0
N778 N 0.42187 0.47136 0.15563 0.0
N779 N 0.28638 0.52069 0.07236 0.0
H780 H 0.22033 0.52741 0.14048 0.0
H781 H 0.20926 0.51492 0.10741 0.0
H782 H 0.30202 0.51662 0.05356 0.0
H783 H 0.25139 0.56068 0.07403 0.0
H784 H 0.46384 0.45777 0.15325 0.0
H785 H 0.4116 0.49866 0.17354 0.0
H786 H 0.47036 0.35843 0.12499 0.0
H787 H 0.45807 0.3475 0.09194 0.0
C788 C 0.62911 0.7389 0.3628 0.0
C789 C 0.64531 0.78637 0.38518 0.0
C790 C 0.67663 0.90756 0.35712 0.0
C791 C 0.64818 0.86815 0.33618 0.0
N792 N 0.59584 0.74649 0.31897 0.0
N793 N 0.69607 0.90613 0.40331 0.0
C794 C 0.62386 0.78404 0.33903 0.0
C795 C 0.6734 0.8676 0.38207 0.0
N796 N 0.62317 0.64959 0.36344 0.0
N797 N 0.70626 0.98282 0.35306 0.0
H798 H 0.69799 0.87283 0.42094 0.0
H799 H 0.71264 0.96923 0.40364 0.0
H800 H 0.70732 1.01514 0.33525 0.0
H801 H 0.73155 1.01162 0.36683 0.0
H802 H 0.61576 0.61166 0.34705 0.0
H803 H 0.63484 0.61119 0.37903 0.0
H804 H 0.57137 0.69062 0.32119 0.0
H805 H 0.59345 0.77427 0.30057 0.0
C806 C 0.38162 0.23664 0.3864 0.0
C807 C 0.42703 0.1782 0.39033 0.0
C808 C 0.40344 0.10712 0.34994 0.0
C809 C 0.37388 0.18309 0.34218 0.0
N810 N 0.33585 0.3257 0.35418 0.0
N811 N 0.48939 0.07173 0.36977 0.0
C812 C 0.36191 0.24914 0.36084 0.0
C813 C 0.43983 0.11518 0.37079 0.0
N814 N 0.35797 0.28014 0.40674 0.0
N815 N 0.40127 0.03135 0.33581 0.0
H816 H 0.52274 0.08734 0.38151 0.0
H817 H 0.49996 0.02959 0.35456 0.0
H818 H 0.37461 0.0248 0.32012 0.0
H819 H 0.42179 0.97389 0.34148 0.0
H820 H 0.3227 0.31927 0.40475 0.0
H821 H 0.37014 0.2687 0.42579 0.0
H822 H 0.33085 0.37799 0.36708 0.0
H823 H 0.32351 0.33992 0.33539 0.0
C824 C 0.95652 0.56663 0.92855 0.0
C825 C 0.98553 0.60235 0.94945 0.0
C826 C 0.98294 0.45577 0.96978 0.0
C827 C 0.96705 0.41766 0.94564 0.0
N828 N 0.96229 0.446 0.89942 0.0
N829 N 0.02948 0.57891 -0.00946 0.0
C830 C 0.95997 0.47568 0.92422 0.0
C831 C 0.99981 0.5464 0.9704 0.0
N832 N 0.92744 0.6196 0.91222 0.0
N833 N 0.97938 0.40816 -0.00791 0.0
H834 H 0.04058 0.64522 -0.00837 0.0
H835 H 0.04543 0.53887 0.00511 0.0
H836 H 0.96231 0.34528 -0.00727 0.0
H837 H 0.98721 0.43522 0.01021 0.0
H838 H 0.90415 0.5942 0.89704 0.0
H839 H 0.92195 0.68677 0.91592 0.0
H840 H 0.95993 0.48821 0.88351 0.0
H841 H 0.97547 0.38258 0.89514 0.0
C842 C 0.25337 0.78246 0.17226 0.0
C843 C 0.26092 0.73301 0.19534 0.0
C844 C 0.24673 0.871 0.21984 0.0
C845 C 0.24687 0.91985 0.19629 0.0
N846 N 0.27342 0.92008 0.15121 0.0
N847 N 0.27765 0.73727 0.2414 0.0
C848 C 0.25851 0.87477 0.17295 0.0
C849 C 0.26146 0.77923 0.21935 0.0
N850 N 0.23762 0.7425 0.14988 0.0
N851 N 0.23063 0.91033 0.24239 0.0
H852 H 0.29106 0.67185 0.24156 0.0
H853 H 0.2831 0.77017 0.25888 0.0
H854 H 0.21877 0.97636 0.24345 0.0
H855 H 0.22484 0.87527 0.25952 0.0
H856 H 0.22845 0.7779 0.13312 0.0
H857 H 0.22639 0.67641 0.1492 0.0
H858 H 0.28511 0.8883 0.13412 0.0
H859 H 0.27989 0.9881 0.15132 0.0
C860 C 0.79395 0.24035 0.17747 0.0
C861 C 0.78939 0.18526 0.19959 0.0
C862 C 0.74691 0.30947 0.22323 0.0
C863 C 0.75746 0.36475 0.20168 0.0
N864 N 0.81284 0.38824 0.16348 0.0
N865 N 0.77172 0.174 0.24553 0.0
C866 C 0.78818 0.33195 0.1805 0.0
C867 C 0.76872 0.22161 0.22319 0.0
N868 N 0.80071 0.20563 0.15327 0.0
N869 N 0.71599 0.34044 0.24345 0.0
H870 H 0.78969 0.11153 0.24626 0.0
H871 H 0.76127 0.19964 0.26359 0.0
H872 H 0.70121 0.40516 0.24415 0.0
H873 H 0.70279 0.30081 0.2587 0.0
H874 H 0.80058 0.24463 0.13665 0.0
H875 H 0.79921 0.13813 0.14954 0.0
H876 H 0.83867 0.36633 0.14857 0.0
H877 H 0.81282 0.45633 0.16637 0.0
C878 C 0.97943 0.95096 0.47585 0.0
C879 C 0.98631 0.89853 0.4533 0.0
C880 C 0.01341 0.02674 0.429 0.0
C881 C 0.01543 0.07839 0.45167 0.0
N882 N 0.00608 0.08579 0.49814 0.0
N883 N 0.03559 0.88323 0.41287 0.0
C884 C 8e-05 0.03954 0.47573 0.0
C885 C 0.01188 0.93521 0.43134 0.0
N886 N 0.95318 0.91676 0.49695 0.0
N887 N 0.00915 0.06462 0.40518 0.0
H888 H 0.03821 0.81484 0.41482 0.0
H889 H 0.05692 0.90976 0.39709 0.0
H890 H 0.00454 0.13256 0.40269 0.0
H891 H 0.00419 0.02705 0.38845 0.0
H892 H 0.94271 0.95412 0.51316 0.0
H893 H 0.93956 0.85158 0.49748 0.0
H894 H 0.9995 0.05836 0.51635 0.0
H895 H 0.02143 0.14991 0.49844 0.0
C896 C 0.2511 0.2211 0.66569 0.0
C897 C 0.26115 0.17254 0.68867 0.0
C898 C 0.24226 0.30765 0.71359 0.0
C899 C 0.24044 0.35693 0.69017 0.0
N900 N 0.26551 0.36082 0.64486 0.0
N901 N 0.27799 0.17643 0.73471 0.0
C902 C 0.2526 0.31368 0.66655 0.0
C903 C 0.26024 0.21769 0.71281 0.0
N904 N 0.23731 0.17954 0.64322 0.0
N905 N 0.22491 0.34467 0.73629 0.0
H906 H 0.29338 0.11211 0.73471 0.0
H907 H 0.28252 0.20918 0.75228 0.0
H908 H 0.21031 0.40927 0.73759 0.0
H909 H 0.22056 0.30855 0.75332 0.0
H910 H 0.22628 0.21413 0.62657 0.0
H911 H 0.23012 0.11186 0.64222 0.0
H912 H 0.27775 0.33058 0.62762 0.0
H913 H 0.26999 0.42924 0.64511 0.0
C914 C 0.78483 0.73421 0.67664 0.0
C915 C 0.77451 0.66946 0.6961 0.0
C916 C 0.73367 0.78845 0.72273 0.0
C917 C 0.74917 0.85086 0.70372 0.0
N918 N 0.81413 0.88344 0.66963 0.0
N919 N 0.7567 0.64713 0.74186 0.0
C920 C 0.78419 0.82374 0.68344 0.0
C921 C 0.75407 0.69993 0.72057 0.0
N922 N 0.78846 0.71286 0.6511 0.0
N923 N 0.69983 0.81322 0.7426 0.0
H924 H 0.777 0.58642 0.74157 0.0
H925 H 0.74515 0.66853 0.76028 0.0
H926 H 0.68657 0.87838 0.74494 0.0
H927 H 0.68334 0.76827 0.75576 0.0
H928 H 0.79296 0.76037 0.63664 0.0
H929 H 0.77811 0.65097 0.64425 0.0
H930 H 0.84204 0.86413 0.65521 0.0
H931 H 0.81427 0.95036 0.67422 0.0
C932 C 0.56468 0.51406 0.46506 0.0
C933 C 0.56456 0.56279 0.44157 0.0
C934 C 0.55739 0.4253 0.4175 0.0
C935 C 0.54745 0.3772 0.44052 0.0
N936 N 0.53409 0.38068 0.48689 0.0
N937 N 0.53754 0.56297 0.39665 0.0
C938 C 0.54939 0.42264 0.46465 0.0
C939 C 0.55421 0.5179 0.4181 0.0
N940 N 0.57962 0.5543 0.48751 0.0
N941 N 0.56912 0.38267 0.39487 0.0
H942 H 0.52991 0.63075 0.3968 0.0
H943 H 0.52557 0.53114 0.37972 0.0
H944 H 0.57423 0.31435 0.39392 0.0
H945 H 0.57964 0.41646 0.37797 0.0
H946 H 0.58526 0.52011 0.50479 0.0
H947 H 0.59047 0.62075 0.48827 0.0
H948 H 0.52976 0.41309 0.50454 0.0
H949 H 0.52177 0.31497 0.4873 0.0
C950 C 0.48705 1.00076 0.96485 0.0
C951 C 0.48774 0.95222 0.94128 0.0
C952 C 0.5001 0.09001 0.91763 0.0
C953 C 0.5094 0.13652 0.94099 0.0
N954 N 0.52284 0.12821 0.98731 0.0
N955 N 0.51498 0.95134 0.89616 0.0
C956 C 0.50601 0.08979 0.96485 0.0
C957 C 0.50059 0.99703 0.91794 0.0
N958 N 0.46645 0.96398 0.98696 0.0
N959 N 0.48899 0.13409 0.89522 0.0
H960 H 0.52012 0.88299 0.89605 0.0
H961 H 0.52811 0.98265 0.87926 0.0
H962 H 0.4838 0.2024 0.89455 0.0
H963 H 0.47846 0.10156 0.87819 0.0
H964 H 0.46063 0.9999 0.00395 0.0
H965 H 0.44994 0.9007 0.98762 0.0
H966 H 0.52558 0.09363 0.00469 0.0
H967 H 0.53945 0.19139 -0.01192 0.0
C968 C 0.25504 0.33634 0.00773 0.0
C969 C 0.30399 0.28719 0.01208 0.0
C970 C 0.25196 0.14967 0.01038 0.0
C971 C 0.20232 0.19982 0.01154 0.0
N972 N 0.15491 0.33988 0.00855 0.0
N973 N 0.35269 0.14922 0.01233 0.0
C974 C 0.20329 0.29281 0.00837 0.0
C975 C 0.30367 0.19406 0.01105 0.0
N976 N 0.25852 0.42543 0.00438 0.0
N977 N 0.24886 0.05981 0.01008 0.0
H978 H 0.39064 0.1816 0.01215 0.0
H979 H 0.35641 0.08101 0.01327 0.0
H980 H 0.21105 0.02725 0.01041 0.0
H981 H 0.28267 0.01758 0.00853 0.0
H982 H 0.22571 0.46568 -0.00111 0.0
H983 H 0.29604 0.45844 0.00553 0.0
H984 H 0.15253 0.40825 0.00957 0.0
H985 H 0.11614 0.31053 0.00843 0.0
C986 C 0.78331 0.74637 0.02846 0.0
C987 C 0.78825 0.83932 0.03027 0.0
C988 C 0.68739 0.85651 0.02844 0.0
C989 C 0.68253 0.76354 0.02858 0.0
N990 N 0.72335 0.62006 0.023 0.0
N991 N 0.74782 0.98412 0.02711 0.0
C992 C 0.72996 0.70874 0.02628 0.0
C993 C 0.74101 0.89484 0.02839 0.0
N994 N 0.82924 0.69401 0.03083 0.0
N995 N 0.64071 0.90739 0.02997 0.0
H996 H 0.78656 1.01361 0.02814 0.0
H997 H 0.71603 0.02881 0.02355 0.0
H998 H 0.60114 0.88064 0.02906 0.0
H999 H 0.64063 0.97528 0.03275 0.0
H1000 H 0.82811 0.6258 0.03277 0.0
H1001 H 0.86916 0.71891 0.03225 0.0
H1002 H 0.7554 0.57644 0.0187 0.0
H1003 H 0.68451 0.59075 0.02281 0.0
C1004 C 0.99707 0.44956 0.27924 0.0
C1005 C 0.04219 0.50714 0.28376 0.0
C1006 C 0.97926 0.63403 0.28438 0.0
C1007 C 0.93386 0.57597 0.28115 0.0
N1008 N 0.89961 0.43319 0.26919 0.0
N1009 N 0.07869 0.65455 0.28431 0.0
C1010 C 0.94294 0.48523 0.27623 0.0
C1011 C 0.03406 0.5997 0.28398 0.0
N1012 N 0.00576 0.36046 0.27918 0.0
N1013 N 0.96956 0.72127 0.28941 0.0
H1014 H 0.1193 0.6315 0.28502 0.0
H1015 H 0.07593 0.72251 0.28182 0.0
H1016 H 0.93015 0.74931 0.28886 0.0
H1017 H 0.99984 0.76524 0.2953 0.0
H1018 H 0.97427 0.31404 0.27907 0.0
H1019 H 0.04506 0.33251 0.2805 0.0
H1020 H 0.90397 0.36826 0.26299 0.0
H1021 H 0.85936 0.45725 0.26751 0.0
C1022 C 0.24628 0.83131 0.49594 0.0
C1023 C 0.29597 0.78814 0.503 0.0
C1024 C 0.24442 0.6514 0.51028 0.0
C1025 C 0.19419 0.69968 0.50868 0.0
N1026 N 0.14642 0.8365 0.49971 0.0
N1027 N 0.34329 0.65523 0.51646 0.0
C1028 C 0.19467 0.78936 0.50067 0.0
C1029 C 0.29557 0.69679 0.50918 0.0
N1030 N 0.24892 0.91401 0.48566 0.0
N1031 N 0.24293 0.56222 0.5139 0.0
H1032 H 0.38208 0.68414 0.51524 0.0
H1033 H 0.34446 0.59308 0.52499 0.0
H1034 H 0.2061 0.52806 0.5166 0.0
H1035 H 0.27744 0.52132 0.51224 0.0
H1036 H 0.21516 0.94733 0.4779 0.0
H1037 H 0.28657 0.94574 0.48292 0.0
H1038 H 0.14461 0.90441 0.49694 0.0
H1039 H 0.10779 0.80886 0.5032 0.0
C1040 C 0.80748 0.16794 0.5131 0.0
C1041 C 0.81006 0.26068 0.51535 0.0
C1042 C 0.70904 0.27042 0.51441 0.0
C1043 C 0.7069 0.17803 0.51805 0.0
N1044 N 0.75241 0.03645 0.5195 0.0
N1045 N 0.7647 0.40222 0.5172 0.0
C1046 C 0.75564 0.12576 0.51637 0.0
C1047 C 0.76114 0.31268 0.51494 0.0
N1048 N 0.85478 0.12071 0.50865 0.0
N1049 N 0.66132 0.3177 0.51134 0.0
H1050 H 0.80248 0.43485 0.51739 0.0
H1051 H 0.73089 0.44364 0.52027 0.0
H1052 H 0.62236 0.28883 0.51191 0.0
H1053 H 0.66039 0.38397 0.5061 0.0
H1054 H 0.85539 0.05345 0.50469 0.0
H1055 H 0.89323 0.15072 0.50661 0.0
H1056 H 0.78664 0.99521 0.52138 0.0
H1057 H 0.71483 1.00371 0.52147 0.0
C1058 C 0.98321 0.11098 0.76249 0.0
C1059 C 0.93686 0.05404 0.76233 0.0
C1060 C 0.99694 0.92526 0.76106 0.0
C1061 C 0.04314 0.98181 0.76385 0.0
N1062 N 0.08278 0.12609 0.759 0.0
N1063 N 0.89867 0.9121 0.75268 0.0
C1064 C 0.0371 0.07411 0.76133 0.0
C1065 C 0.94359 0.96274 0.75818 0.0
N1066 N 0.97541 0.1994 0.76603 0.0
N1067 N 0.00378 0.83619 0.76335 0.0
H1068 H 0.85906 0.93885 0.751 0.0
H1069 H 0.9013 0.8459 0.74748 0.0
H1070 H 0.0426 0.80714 0.76545 0.0
H1071 H 0.97127 0.79171 0.76455 0.0
H1072 H 0.00719 0.24374 0.76951 0.0
H1073 H 0.93613 0.22782 0.76668 0.0
H1074 H 0.081 0.19333 0.75504 0.0
H1075 H 0.1228 0.10035 0.75881 0.0
C1076 C 0.49413 0.42921 0.76487 0.0
C1077 C 0.54362 0.47841 0.766 0.0
C1078 C 0.49071 0.61595 0.76239 0.0
C1079 C 0.44149 0.56756 0.76638 0.0
N1080 N 0.39447 0.42827 0.77013 0.0
N1081 N 0.59088 0.61777 0.76437 0.0
C1082 C 0.44246 0.47395 0.76648 0.0
C1083 C 0.54255 0.5716 0.76358 0.0
N1084 N 0.49707 0.33948 0.76306 0.0
N1085 N 0.48741 0.70473 0.75823 0.0
H1086 H 0.62959 0.58732 0.76452 0.0
H1087 H 0.59291 0.68604 0.76591 0.0
H1088 H 0.44972 0.73832 0.75825 0.0
H1089 H 0.52084 0.74371 0.75288 0.0
H1090 H 0.46316 0.29922 0.75973 0.0
H1091 H 0.53469 0.30573 0.76296 0.0
H1092 H 0.3928 0.36076 0.77358 0.0
H1093 H 0.35575 0.45855 0.77079 0.0
C1094 C 0.50653 0.97435 0.25993 0.0
C1095 C 0.55702 0.02079 0.26199 0.0
C1096 C 0.50737 0.16063 0.25587 0.0
C1097 C 0.45674 0.11573 0.25945 0.0
N1098 N 0.40634 0.97952 0.26222 0.0
N1099 N 0.60742 0.1571 0.25963 0.0
C1100 C 0.45574 0.02212 0.25981 0.0
C1101 C 0.55818 0.11361 0.25851 0.0
N1102 N 0.50755 0.88438 0.25881 0.0
N1103 N 0.50613 0.24905 0.25101 0.0
H1104 H 0.64531 0.1245 0.26102 0.0
H1105 H 0.61093 0.22537 0.2601 0.0
H1106 H 0.46892 0.28368 0.24983 0.0
H1107 H 0.54072 0.28629 0.24627 0.0
H1108 H 0.47315 0.84578 0.25498 0.0
H1109 H 0.54428 0.8484 0.25983 0.0
H1110 H 0.40251 0.9125 0.26606 0.0
H1111 H 0.36845 1.01213 0.26108 0.0
loop_
_geom_bond_atom_site_label_1
_geom_bond_atom_site_label_2
_geom_bond_distance
_geom_bond_site_symmetry_2
_ccdc_geom_bond_type
C0 O1 1.201 . S
C0 C2 1.493 . S
C0 N17 1.318 1_455 S
O1 C0 1.201 . S
C2 C0 1.493 . S
C2 C3 1.381 . S
C2 N7 1.335 1_554 S
C3 C2 1.381 . S
C3 C4 1.411 1_554 S
C3 H49 0.931 . S
C4 C3 1.411 1_556 S
C4 C5 1.384 . S
C4 H50 0.930 . S
C5 C4 1.384 . S
C5 C6 1.376 . S
C5 H51 0.929 . S
C6 C5 1.376 . S
C6 N7 1.330 . S
C6 C21 1.484 1_565 S
N7 C2 1.335 1_556 S
N7 C6 1.330 . S
N7 Co9 1.859 1_565 S
N8 Co9 1.962 1_554 S
N8 C19 1.318 1_455 S
N8 C43 1.421 . S
Co9 N7 1.859 1_545 S
Co9 N8 1.962 1_556 S
Co9 N10 1.859 1_455 S
Co9 N16 1.958 1_445 S
Co9 N17 1.962 1_446 S
Co9 N18 1.958 . S
N10 Co9 1.859 1_655 S
N10 C14 1.330 . S
N10 C15 1.335 1_556 S
C11 C12 1.411 1_554 S
C11 C15 1.381 . S
C11 H52 0.931 . S
C12 C11 1.411 1_556 S
C12 C13 1.384 . S
C12 H53 0.930 . S
C13 C12 1.384 . S
C13 C14 1.376 . S
C13 H54 0.929 . S
C14 N10 1.330 . S
C14 C13 1.376 . S
C14 C29 1.484 1_545 S
C15 N10 1.335 1_554 S
C15 C11 1.381 . S
C15 C19 1.493 . S
N16 Co9 1.958 1_665 S
N16 C29 1.344 . S
N16 C31 1.433 . S
N17 C0 1.318 1_655 S
N17 Co9 1.962 1_664 S
N17 C37 1.421 . S
N18 Co9 1.958 . S
N18 C21 1.344 . S
N18 C23 1.435 . S
C19 N8 1.318 1_655 S
C19 C15 1.493 . S
C19 O20 1.201 . S
O20 C19 1.201 . S
C21 C6 1.484 1_545 S
C21 N18 1.344 . S
C21 O22 1.268 . S
O22 C21 1.268 . S
C23 N18 1.435 . S
C23 C25 1.395 . S
C23 C26 1.354 1_455 S
C24 C25 1.382 1_655 S
C24 C28 1.386 . S
C25 C23 1.395 . S
C25 C24 1.382 1_455 S
C25 H55 0.928 . S
C26 C23 1.354 1_655 S
C26 C27 1.367 . S
C26 H56 0.930 . S
C27 C26 1.367 . S
C27 C28 1.369 . S
C28 C24 1.386 . S
C28 C27 1.369 . S
C28 H57 0.930 . S
C29 C14 1.484 1_565 S
C29 N16 1.344 . S
C29 O30 1.268 . S
O30 C29 1.268 . S
C31 N16 1.433 . S
C31 C32 1.357 1_655 S
C31 C36 1.394 . S
C32 C31 1.357 1_455 S
C32 C33 1.367 . S
C32 H58 0.930 . S
C33 C32 1.367 . S
C33 C34 1.369 . S
C34 C33 1.369 . S
C34 C35 1.386 . S
C34 H59 0.930 . S
C35 C34 1.386 . S
C35 C36 1.382 1_455 S
C36 C31 1.394 . S
C36 C35 1.382 1_655 S
C36 H60 0.928 . S
C37 N17 1.421 . S
C37 C38 1.371 . S
C37 C42 1.385 . S
C38 C37 1.371 . S
C38 C39 1.367 . S
C38 H61 0.931 . S
C39 C38 1.367 . S
C39 C40 1.401 . S
C40 C39 1.401 . S
C40 C41 1.385 . S
C40 H62 0.930 . S
C41 C40 1.385 . S
C41 C42 1.402 . S
C42 C37 1.385 . S
C42 C41 1.402 . S
C42 H63 0.929 . S
C43 N8 1.421 . S
C43 C46 1.385 . S
C43 C47 1.371 . S
C44 C45 1.385 . S
C44 C48 1.401 . S
C44 H64 0.930 . S
C45 C44 1.385 . S
C45 C46 1.402 . S
C46 C43 1.385 . S
C46 C45 1.402 . S
C46 H65 0.929 . S
C47 C43 1.371 . S
C47 C48 1.367 . S
C47 H66 0.931 . S
C48 C44 1.401 . S
C48 C47 1.367 . S
H49 C3 0.931 . S
H50 C4 0.930 . S
H51 C5 0.929 . S
H52 C11 0.931 . S
H53 C12 0.930 . S
H54 C13 0.929 . S
H55 C25 0.928 . S
H56 C26 0.930 . S
H57 C28 0.930 . S
H58 C32 0.930 . S
H59 C34 0.930 . S
H60 C36 0.928 . S
H61 C38 0.931 . S
H62 C40 0.930 . S
H63 C42 0.929 . S
H64 C44 0.930 . S
H65 C46 0.929 . S
H66 C47 0.931 . S
C67 O68 1.201 . S
C67 C69 1.493 . S
C67 N84 1.318 . S
O68 C67 1.201 . S
C69 C67 1.493 . S
C69 C70 1.381 . S
C69 N74 1.335 . S
C70 C69 1.381 . S
C70 C71 1.411 . S
C70 H116 0.931 . S
C71 C70 1.411 . S
C71 C72 1.384 . S
C71 H117 0.930 . S
C72 C71 1.384 . S
C72 C73 1.376 . S
C72 H118 0.929 . S
C73 C72 1.376 . S
C73 N74 1.330 . S
C73 C88 1.484 . S
N74 C69 1.335 . S
N74 C73 1.330 . S
N74 Co76 1.859 . S
N75 Co76 1.962 . S
N75 C86 1.318 . S
N75 C110 1.421 . S
Co76 N74 1.859 . S
Co76 N75 1.962 . S
Co76 N77 1.859 . S
Co76 N83 1.958 . S
Co76 N84 1.962 . S
Co76 N85 1.958 . S
N77 Co76 1.859 . S
N77 C81 1.330 . S
N77 C82 1.335 . S
C78 C79 1.411 . S
C78 C82 1.381 . S
C78 H119 0.931 . S
C79 C78 1.411 . S
C79 C80 1.384 . S
C79 H120 0.930 . S
C80 C79 1.384 . S
C80 C81 1.376 . S
C80 H121 0.929 . S
C81 N77 1.330 . S
C81 C80 1.376 . S
C81 C96 1.484 . S
C82 N77 1.335 . S
C82 C78 1.381 . S
C82 C86 1.493 . S
N83 Co76 1.958 . S
N83 C96 1.344 . S
N83 C98 1.425 . S
N84 C67 1.318 . S
N84 Co76 1.962 . S
N84 C104 1.421 . S
N85 Co76 1.958 . S
N85 C88 1.344 . S
N85 C90 1.425 . S
C86 N75 1.318 . S
C86 C82 1.493 . S
C86 O87 1.201 . S
O87 C86 1.201 . S
C88 C73 1.484 . S
C88 N85 1.344 . S
C88 O89 1.268 . S
O89 C88 1.268 . S
C90 N85 1.425 . S
C90 C92 1.392 . S
C90 C93 1.368 . S
C91 C92 1.382 . S
C91 C95 1.386 . S
C92 C90 1.392 . S
C92 C91 1.382 . S
C92 H122 0.928 . S
C93 C90 1.368 . S
C93 C94 1.367 . S
C93 H123 0.930 . S
C94 C93 1.367 . S
C94 C95 1.369 . S
C95 C91 1.386 . S
C95 C94 1.369 . S
C95 H124 0.930 . S
C96 C81 1.484 . S
C96 N83 1.344 . S
C96 O97 1.268 . S
O97 C96 1.268 . S
C98 N83 1.425 . S
C98 C99 1.368 . S
C98 C103 1.392 . S
C99 C98 1.368 . S
C99 C100 1.367 . S
C99 H125 0.930 . S
C100 C99 1.367 . S
C100 C101 1.369 1_545 S
C101 C100 1.369 1_565 S
C101 C102 1.386 . S
C101 H126 0.930 . S
C102 C101 1.386 . S
C102 C103 1.382 1_565 S
C103 C98 1.392 . S
C103 C102 1.382 1_545 S
C103 H127 0.928 . S
C104 N84 1.421 . S
C104 C105 1.371 . S
C104 C109 1.385 . S
C105 C104 1.371 . S
C105 C106 1.367 . S
C105 H128 0.931 . S
C106 C105 1.367 . S
C106 C107 1.401 . S
C107 C106 1.401 . S
C107 C108 1.385 . S
C107 H129 0.930 . S
C108 C107 1.385 . S
C108 C109 1.402 . S
C109 C104 1.385 . S
C109 C108 1.402 . S
C109 H130 0.929 . S
C110 N75 1.421 . S
C110 C113 1.385 . S
C110 C114 1.371 . S
C111 C112 1.385 . S
C111 C115 1.401 . S
C111 H131 0.930 . S
C112 C111 1.385 . S
C112 C113 1.402 . S
C113 C110 1.385 . S
C113 C112 1.402 . S
C113 H132 0.929 . S
C114 C110 1.371 . S
C114 C115 1.367 . S
C114 H133 0.931 . S
C115 C111 1.401 . S
C115 C114 1.367 . S
H116 C70 0.931 . S
H117 C71 0.930 . S
H118 C72 0.929 . S
H119 C78 0.931 . S
H120 C79 0.930 . S
H121 C80 0.929 . S
H122 C92 0.928 . S
H123 C93 0.930 . S
H124 C95 0.930 . S
H125 C99 0.930 . S
H126 C101 0.930 . S
H127 C103 0.928 . S
H128 C105 0.931 . S
H129 C107 0.930 . S
H130 C109 0.929 . S
H131 C111 0.930 . S
H132 C113 0.929 . S
H133 C114 0.931 . S
C134 O135 1.201 . S
C134 C136 1.493 . S
C134 N151 1.318 . S
O135 C134 1.201 . S
C136 C134 1.493 . S
C136 C137 1.381 . S
C136 N141 1.335 . S
C137 C136 1.381 . S
C137 C138 1.411 . S
C137 H183 0.931 . S
C138 C137 1.411 . S
C138 C139 1.384 . S
C138 H184 0.930 . S
C139 C138 1.384 . S
C139 C140 1.376 . S
C139 H185 0.929 . S
C140 C139 1.376 . S
C140 N141 1.330 . S
C140 C155 1.484 . S
N141 C136 1.335 . S
N141 C140 1.330 . S
N141 Co143 1.859 . S
N142 Co143 1.962 . S
N142 C153 1.318 . S
N142 C177 1.421 . S
Co143 N141 1.859 . S
Co143 N142 1.962 . S
Co143 N144 1.859 . S
Co143 N150 1.958 . S
Co143 N151 1.962 . S
Co143 N152 1.958 . S
N144 Co143 1.859 . S
N144 C148 1.330 . S
N144 C149 1.335 . S
C145 C146 1.411 . S
C145 C149 1.381 . S
C145 H186 0.931 . S
C146 C145 1.411 . S
C146 C147 1.384 . S
C146 H187 0.930 . S
C147 C146 1.384 . S
C147 C148 1.376 . S
C147 H188 0.929 . S
C148 N144 1.330 . S
C148 C147 1.376 . S
C148 C163 1.484 . S
C149 N144 1.335 . S
C149 C145 1.381 . S
C149 C153 1.493 . S
N150 Co143 1.958 . S
N150 C163 1.344 . S
N150 C165 1.425 . S
N151 C134 1.318 . S
N151 Co143 1.962 . S
N151 C171 1.421 . S
N152 Co143 1.958 . S
N152 C155 1.344 . S
N152 C157 1.425 . S
C153 N142 1.318 . S
C153 C149 1.493 . S
C153 O154 1.201 . S
O154 C153 1.201 . S
C155 C140 1.484 . S
C155 N152 1.344 . S
C155 O156 1.268 . S
O156 C155 1.268 . S
C157 N152 1.425 . S
C157 C159 1.392 . S
C157 C160 1.368 . S
C158 C159 1.382 1_545 S
C158 C162 1.386 . S
C159 C157 1.392 . S
C159 C158 1.382 1_565 S
C159 H189 0.928 . S
C160 C157 1.368 . S
C160 C161 1.367 . S
C160 H190 0.930 . S
C161 C160 1.367 . S
C161 C162 1.369 1_565 S
C162 C158 1.386 . S
C162 C161 1.369 1_545 S
C162 H191 0.930 . S
C163 C148 1.484 . S
C163 N150 1.344 . S
C163 O164 1.268 . S
O164 C163 1.268 . S
C165 N150 1.425 . S
C165 C166 1.368 . S
C165 C170 1.392 . S
C166 C165 1.368 . S
C166 C167 1.367 . S
C166 H192 0.930 . S
C167 C166 1.367 . S
C167 C168 1.369 . S
C168 C167 1.369 . S
C168 C169 1.386 . S
C168 H193 0.930 . S
C169 C168 1.386 . S
C169 C170 1.382 . S
C170 C165 1.392 . S
C170 C169 1.382 . S
C170 H194 0.928 . S
C171 N151 1.421 . S
C171 C172 1.371 . S
C171 C176 1.385 . S
C172 C171 1.371 . S
C172 C173 1.367 . S
C172 H195 0.931 . S
C173 C172 1.367 . S
C173 C174 1.401 . S
C174 C173 1.401 . S
C174 C175 1.385 . S
C174 H196 0.930 . S
C175 C174 1.385 . S
C175 C176 1.402 . S
C176 C171 1.385 . S
C176 C175 1.402 . S
C176 H197 0.929 . S
C177 N142 1.421 . S
C177 C180 1.385 . S
C177 C181 1.371 . S
C178 C179 1.385 . S
C178 C182 1.401 . S
C178 H198 0.930 . S
C179 C178 1.385 . S
C179 C180 1.402 . S
C180 C177 1.385 . S
C180 C179 1.402 . S
C180 H199 0.929 . S
C181 C177 1.371 . S
C181 C182 1.367 . S
C181 H200 0.931 . S
C182 C178 1.401 . S
C182 C181 1.367 . S
H183 C137 0.931 . S
H184 C138 0.930 . S
H185 C139 0.929 . S
H186 C145 0.931 . S
H187 C146 0.930 . S
H188 C147 0.929 . S
H189 C159 0.928 . S
H190 C160 0.930 . S
H191 C162 0.930 . S
H192 C166 0.930 . S
H193 C168 0.930 . S
H194 C170 0.928 . S
H195 C172 0.931 . S
H196 C174 0.930 . S
H197 C176 0.929 . S
H198 C178 0.930 . S
H199 C180 0.929 . S
H200 C181 0.931 . S
C201 O202 1.201 . S
C201 C203 1.493 . S
C201 N218 1.318 1_455 S
O202 C201 1.201 . S
C203 C201 1.493 . S
C203 C204 1.381 . S
C203 N208 1.335 . S
C204 C203 1.381 . S
C204 C205 1.411 . S
C204 H250 0.931 . S
C205 C204 1.411 . S
C205 C206 1.384 . S
C205 H251 0.930 . S
C206 C205 1.384 . S
C206 C207 1.376 . S
C206 H252 0.929 . S
C207 C206 1.376 . S
C207 N208 1.330 . S
C207 C222 1.484 . S
N208 C203 1.335 . S
N208 C207 1.330 . S
N208 Co210 1.859 . S
N209 Co210 1.962 . S
N209 C220 1.318 1_455 S
N209 C244 1.421 . S
Co210 N208 1.859 . S
Co210 N209 1.962 . S
Co210 N211 1.859 1_455 S
Co210 N217 1.958 1_455 S
Co210 N218 1.962 1_455 S
Co210 N219 1.958 . S
N211 Co210 1.859 1_655 S
N211 C215 1.330 . S
N211 C216 1.335 . S
C212 C213 1.411 . S
C212 C216 1.381 . S
C212 H253 0.931 . S
C213 C212 1.411 . S
C213 C214 1.384 . S
C213 H254 0.930 . S
C214 C213 1.384 . S
C214 C215 1.376 . S
C214 H255 0.929 . S
C215 N211 1.330 . S
C215 C214 1.376 . S
C215 C230 1.484 . S
C216 N211 1.335 . S
C216 C212 1.381 . S
C216 C220 1.493 . S
N217 Co210 1.958 1_655 S
N217 C230 1.344 . S
N217 C232 1.433 . S
N218 C201 1.318 1_655 S
N218 Co210 1.962 1_655 S
N218 C238 1.421 . S
N219 Co210 1.958 . S
N219 C222 1.344 . S
N219 C224 1.435 . S
C220 N209 1.318 1_655 S
C220 C216 1.493 . S
C220 O221 1.201 . S
O221 C220 1.201 . S
C222 C207 1.484 . S
C222 N219 1.344 . S
C222 O223 1.268 . S
O223 C222 1.268 . S
C224 N219 1.435 . S
C224 C226 1.395 . S
C224 C227 1.354 1_455 S
C225 C226 1.382 1_655 S
C225 C229 1.386 . S
C226 C224 1.395 . S
C226 C225 1.382 1_455 S
C226 H256 0.928 . S
C227 C224 1.354 1_655 S
C227 C228 1.367 . S
C227 H257 0.930 . S
C228 C227 1.367 . S
C228 C229 1.369 . S
C229 C225 1.386 . S
C229 C228 1.369 . S
C229 H258 0.930 . S
C230 C215 1.484 . S
C230 N217 1.344 . S
C230 O231 1.268 . S
O231 C230 1.268 . S
C232 N217 1.433 . S
C232 C233 1.357 1_655 S
C232 C237 1.394 . S
C233 C232 1.357 1_455 S
C233 C234 1.367 . S
C233 H259 0.930 . S
C234 C233 1.367 . S
C234 C235 1.369 . S
C235 C234 1.369 . S
C235 C236 1.386 . S
C235 H260 0.930 . S
C236 C235 1.386 . S
C236 C237 1.382 1_455 S
C237 C232 1.394 . S
C237 C236 1.382 1_655 S
C237 H261 0.928 . S
C238 N218 1.421 . S
C238 C239 1.371 . S
C238 C243 1.385 . S
C239 C238 1.371 . S
C239 C240 1.367 . S
C239 H262 0.931 . S
C240 C239 1.367 . S
C240 C241 1.401 . S
C241 C240 1.401 . S
C241 C242 1.385 . S
C241 H263 0.930 . S
C242 C241 1.385 . S
C242 C243 1.402 . S
C243 C238 1.385 . S
C243 C242 1.402 . S
C243 H264 0.929 . S
C244 N209 1.421 . S
C244 C247 1.385 . S
C244 C248 1.371 . S
C245 C246 1.385 . S
C245 C249 1.401 . S
C245 H265 0.930 . S
C246 C245 1.385 . S
C246 C247 1.402 . S
C247 C244 1.385 . S
C247 C246 1.402 . S
C247 H266 0.929 . S
C248 C244 1.371 . S
C248 C249 1.367 . S
C248 H267 0.931 . S
C249 C245 1.401 . S
C249 C248 1.367 . S
H250 C204 0.931 . S
H251 C205 0.930 . S
H252 C206 0.929 . S
H253 C212 0.931 . S
H254 C213 0.930 . S
H255 C214 0.929 . S
H256 C226 0.928 . S
H257 C227 0.930 . S
H258 C229 0.930 . S
H259 C233 0.930 . S
H260 C235 0.930 . S
H261 C237 0.928 . S
H262 C239 0.931 . S
H263 C241 0.930 . S
H264 C243 0.929 . S
H265 C245 0.930 . S
H266 C247 0.929 . S
H267 C248 0.931 . S
C268 O269 1.201 . S
C268 C270 1.493 . S
C268 N285 1.318 . S
O269 C268 1.201 . S
C270 C268 1.493 . S
C270 C271 1.381 . S
C270 N275 1.335 . S
C271 C270 1.381 . S
C271 C272 1.411 . S
C271 H317 0.931 . S
C272 C271 1.411 . S
C272 C273 1.384 . S
C272 H318 0.930 . S
C273 C272 1.384 . S
C273 C274 1.376 . S
C273 H319 0.929 . S
C274 C273 1.376 . S
C274 N275 1.330 . S
C274 C289 1.484 . S
N275 C270 1.335 . S
N275 C274 1.330 . S
N275 Co277 1.859 . S
N276 Co277 1.962 . S
N276 C287 1.318 . S
N276 C311 1.421 . S
Co277 N275 1.859 . S
Co277 N276 1.962 . S
Co277 N278 1.859 . S
Co277 N284 1.958 . S
Co277 N285 1.962 . S
Co277 N286 1.958 . S
N278 Co277 1.859 . S
N278 C282 1.330 . S
N278 C283 1.335 . S
C279 C280 1.411 . S
C279 C283 1.381 . S
C279 H320 0.931 . S
C280 C279 1.411 . S
C280 C281 1.384 . S
C280 H321 0.930 . S
C281 C280 1.384 . S
C281 C282 1.376 . S
C281 H322 0.929 . S
C282 N278 1.330 . S
C282 C281 1.376 . S
C282 C297 1.484 . S
C283 N278 1.335 . S
C283 C279 1.381 . S
C283 C287 1.493 . S
N284 Co277 1.958 . S
N284 C297 1.344 . S
N284 C299 1.425 . S
N285 C268 1.318 . S
N285 Co277 1.962 . S
N285 C305 1.421 . S
N286 Co277 1.958 . S
N286 C289 1.344 . S
N286 C291 1.425 . S
C287 N276 1.318 . S
C287 C283 1.493 . S
C287 O288 1.201 . S
O288 C287 1.201 . S
C289 C274 1.484 . S
C289 N286 1.344 . S
C289 O290 1.268 . S
O290 C289 1.268 . S
C291 N286 1.425 . S
C291 C293 1.392 . S
C291 C294 1.368 . S
C292 C293 1.382 1_545 S
C292 C296 1.386 . S
C293 C291 1.392 . S
C293 C292 1.382 1_565 S
C293 H323 0.928 . S
C294 C291 1.368 . S
C294 C295 1.367 . S
C294 H324 0.930 . S
C295 C294 1.367 . S
C295 C296 1.369 1_565 S
C296 C292 1.386 . S
C296 C295 1.369 1_545 S
C296 H325 0.930 . S
C297 C282 1.484 . S
C297 N284 1.344 . S
C297 O298 1.268 . S
O298 C297 1.268 . S
C299 N284 1.425 . S
C299 C300 1.368 . S
C299 C304 1.392 . S
C300 C299 1.368 . S
C300 C301 1.367 . S
C300 H326 0.930 . S
C301 C300 1.367 . S
C301 C302 1.369 . S
C302 C301 1.369 . S
C302 C303 1.386 . S
C302 H327 0.930 . S
C303 C302 1.386 . S
C303 C304 1.382 . S
C304 C299 1.392 . S
C304 C303 1.382 . S
C304 H328 0.928 . S
C305 N285 1.421 . S
C305 C306 1.371 . S
C305 C310 1.385 . S
C306 C305 1.371 . S
C306 C307 1.367 . S
C306 H329 0.931 . S
C307 C306 1.367 . S
C307 C308 1.401 . S
C308 C307 1.401 . S
C308 C309 1.385 . S
C308 H330 0.930 . S
C309 C308 1.385 . S
C309 C310 1.402 . S
C310 C305 1.385 . S
C310 C309 1.402 . S
C310 H331 0.929 . S
C311 N276 1.421 . S
C311 C314 1.385 . S
C311 C315 1.371 . S
C312 C313 1.385 . S
C312 C316 1.401 . S
C312 H332 0.930 . S
C313 C312 1.385 . S
C313 C314 1.402 . S
C314 C311 1.385 . S
C314 C313 1.402 . S
C314 H333 0.929 . S
C315 C311 1.371 . S
C315 C316 1.367 . S
C315 H334 0.931 . S
C316 C312 1.401 . S
C316 C315 1.367 . S
H317 C271 0.931 . S
H318 C272 0.930 . S
H319 C273 0.929 . S
H320 C279 0.931 . S
H321 C280 0.930 . S
H322 C281 0.929 . S
H323 C293 0.928 . S
H324 C294 0.930 . S
H325 C296 0.930 . S
H326 C300 0.930 . S
H327 C302 0.930 . S
H328 C304 0.928 . S
H329 C306 0.931 . S
H330 C308 0.930 . S
H331 C310 0.929 . S
H332 C312 0.930 . S
H333 C314 0.929 . S
H334 C315 0.931 . S
C335 O336 1.201 . S
C335 C337 1.493 . S
C335 N352 1.318 . S
O336 C335 1.201 . S
C337 C335 1.493 . S
C337 C338 1.381 . S
C337 N342 1.335 . S
C338 C337 1.381 . S
C338 C339 1.411 . S
C338 H384 0.931 . S
C339 C338 1.411 . S
C339 C340 1.384 . S
C339 H385 0.930 . S
C340 C339 1.384 . S
C340 C341 1.376 . S
C340 H386 0.929 . S
C341 C340 1.376 . S
C341 N342 1.330 . S
C341 C356 1.484 . S
N342 C337 1.335 . S
N342 C341 1.330 . S
N342 Co344 1.859 . S
N343 Co344 1.962 . S
N343 C354 1.318 . S
N343 C378 1.421 . S
Co344 N342 1.859 . S
Co344 N343 1.962 . S
Co344 N345 1.859 . S
Co344 N351 1.958 . S
Co344 N352 1.962 . S
Co344 N353 1.958 . S
N345 Co344 1.859 . S
N345 C349 1.330 . S
N345 C350 1.335 . S
C346 C347 1.411 . S
C346 C350 1.381 . S
C346 H387 0.931 . S
C347 C346 1.411 . S
C347 C348 1.384 . S
C347 H388 0.930 . S
C348 C347 1.384 . S
C348 C349 1.376 . S
C348 H389 0.929 . S
C349 N345 1.330 . S
C349 C348 1.376 . S
C349 C364 1.484 . S
C350 N345 1.335 . S
C350 C346 1.381 . S
C350 C354 1.493 . S
N351 Co344 1.958 . S
N351 C364 1.344 . S
N351 C366 1.425 . S
N352 C335 1.318 . S
N352 Co344 1.962 . S
N352 C372 1.421 . S
N353 Co344 1.958 . S
N353 C356 1.344 . S
N353 C358 1.425 . S
C354 N343 1.318 . S
C354 C350 1.493 . S
C354 O355 1.201 . S
O355 C354 1.201 . S
C356 C341 1.484 . S
C356 N353 1.344 . S
C356 O357 1.268 . S
O357 C356 1.268 . S
C358 N353 1.425 . S
C358 C360 1.392 . S
C358 C361 1.368 . S
C359 C360 1.382 . S
C359 C363 1.386 . S
C360 C358 1.392 . S
C360 C359 1.382 . S
C360 H390 0.928 . S
C361 C358 1.368 . S
C361 C362 1.367 . S
C361 H391 0.930 . S
C362 C361 1.367 . S
C362 C363 1.369 . S
C363 C359 1.386 . S
C363 C362 1.369 . S
C363 H392 0.930 . S
C364 C349 1.484 . S
C364 N351 1.344 . S
C364 O365 1.268 . S
O365 C364 1.268 . S
C366 N351 1.425 . S
C366 C367 1.368 . S
C366 C371 1.392 . S
C367 C366 1.368 . S
C367 C368 1.367 . S
C367 H393 0.930 . S
C368 C367 1.367 . S
C368 C369 1.369 1_545 S
C369 C368 1.369 1_565 S
C369 C370 1.386 . S
C369 H394 0.930 . S
C370 C369 1.386 . S
C370 C371 1.382 1_565 S
C371 C366 1.392 . S
C371 C370 1.382 1_545 S
C371 H395 0.928 . S
C372 N352 1.421 . S
C372 C373 1.371 . S
C372 C377 1.385 . S
C373 C372 1.371 . S
C373 C374 1.367 . S
C373 H396 0.931 . S
C374 C373 1.367 . S
C374 C375 1.401 . S
C375 C374 1.401 . S
C375 C376 1.385 . S
C375 H397 0.930 . S
C376 C375 1.385 . S
C376 C377 1.402 . S
C377 C372 1.385 . S
C377 C376 1.402 . S
C377 H398 0.929 . S
C378 N343 1.421 . S
C378 C381 1.385 . S
C378 C382 1.371 . S
C379 C380 1.385 . S
C379 C383 1.401 . S
C379 H399 0.930 . S
C380 C379 1.385 . S
C380 C381 1.402 . S
C381 C378 1.385 . S
C381 C380 1.402 . S
C381 H400 0.929 . S
C382 C378 1.371 . S
C382 C383 1.367 . S
C382 H401 0.931 . S
C383 C379 1.401 . S
C383 C382 1.367 . S
H384 C338 0.931 . S
H385 C339 0.930 . S
H386 C340 0.929 . S
H387 C346 0.931 . S
H388 C347 0.930 . S
H389 C348 0.929 . S
H390 C360 0.928 . S
H391 C361 0.930 . S
H392 C363 0.930 . S
H393 C367 0.930 . S
H394 C369 0.930 . S
H395 C371 0.928 . S
H396 C373 0.931 . S
H397 C375 0.930 . S
H398 C377 0.929 . S
H399 C379 0.930 . S
H400 C381 0.929 . S
H401 C382 0.931 . S
C402 O403 1.201 . S
C402 C404 1.493 . S
C402 N419 1.318 . S
O403 C402 1.201 . S
C404 C402 1.493 . S
C404 C405 1.381 . S
C404 N409 1.335 . S
C405 C404 1.381 . S
C405 C406 1.411 . S
C405 H451 0.931 . S
C406 C405 1.411 . S
C406 C407 1.384 . S
C406 H452 0.930 . S
C407 C406 1.384 . S
C407 C408 1.376 . S
C407 H453 0.929 . S
C408 C407 1.376 . S
C408 N409 1.330 . S
C408 C423 1.484 1_565 S
N409 C404 1.335 . S
N409 C408 1.330 . S
N409 Co411 1.859 1_565 S
N410 Co411 1.962 . S
N410 C421 1.318 . S
N410 C445 1.421 . S
Co411 N409 1.859 1_545 S
Co411 N410 1.962 . S
Co411 N412 1.859 . S
Co411 N418 1.958 1_545 S
Co411 N419 1.962 1_545 S
Co411 N420 1.958 . S
N412 Co411 1.859 . S
N412 C416 1.330 . S
N412 C417 1.335 . S
C413 C414 1.411 . S
C413 C417 1.381 . S
C413 H454 0.931 . S
C414 C413 1.411 . S
C414 C415 1.384 . S
C414 H455 0.930 . S
C415 C414 1.384 . S
C415 C416 1.376 . S
C415 H456 0.929 . S
C416 N412 1.330 . S
C416 C415 1.376 . S
C416 C431 1.484 1_545 S
C417 N412 1.335 . S
C417 C413 1.381 . S
C417 C421 1.493 . S
N418 Co411 1.958 1_565 S
N418 C431 1.344 . S
N418 C433 1.425 . S
N419 C402 1.318 . S
N419 Co411 1.962 1_565 S
N419 C439 1.421 . S
N420 Co411 1.958 . S
N420 C423 1.344 . S
N420 C425 1.425 . S
C421 N410 1.318 . S
C421 C417 1.493 . S
C421 O422 1.201 . S
O422 C421 1.201 . S
C423 C408 1.484 1_545 S
C423 N420 1.344 . S
C423 O424 1.268 . S
O424 C423 1.268 . S
C425 N420 1.425 . S
C425 C427 1.392 . S
C425 C428 1.368 . S
C426 C427 1.382 . S
C426 C430 1.386 . S
C427 C425 1.392 . S
C427 C426 1.382 . S
C427 H457 0.928 . S
C428 C425 1.368 . S
C428 C429 1.367 . S
C428 H458 0.930 . S
C429 C428 1.367 . S
C429 C430 1.369 . S
C430 C426 1.386 . S
C430 C429 1.369 . S
C430 H459 0.930 . S
C431 C416 1.484 1_565 S
C431 N418 1.344 . S
C431 O432 1.268 . S
O432 C431 1.268 . S
C433 N418 1.425 . S
C433 C434 1.368 . S
C433 C438 1.392 . S
C434 C433 1.368 . S
C434 C435 1.367 . S
C434 H460 0.930 . S
C435 C434 1.367 . S
C435 C436 1.369 . S
C436 C435 1.369 . S
C436 C437 1.386 . S
C436 H461 0.930 . S
C437 C436 1.386 . S
C437 C438 1.382 . S
C438 C433 1.392 . S
C438 C437 1.382 . S
C438 H462 0.928 . S
C439 N419 1.421 . S
C439 C440 1.371 . S
C439 C444 1.385 . S
C440 C439 1.371 . S
C440 C441 1.367 . S
C440 H463 0.931 . S
C441 C440 1.367 . S
C441 C442 1.401 . S
C442 C441 1.401 . S
C442 C443 1.385 . S
C442 H464 0.930 . S
C443 C442 1.385 . S
C443 C444 1.402 . S
C444 C439 1.385 . S
C444 C443 1.402 . S
C444 H465 0.929 . S
C445 N410 1.421 . S
C445 C448 1.385 . S
C445 C449 1.371 . S
C446 C447 1.385 . S
C446 C450 1.401 . S
C446 H466 0.930 . S
C447 C446 1.385 . S
C447 C448 1.402 . S
C448 C445 1.385 . S
C448 C447 1.402 . S
C448 H467 0.929 . S
C449 C445 1.371 . S
C449 C450 1.367 . S
C449 H468 0.931 . S
C450 C446 1.401 . S
C450 C449 1.367 . S
H451 C405 0.931 . S
H452 C406 0.930 . S
H453 C407 0.929 . S
H454 C413 0.931 . S
H455 C414 0.930 . S
H456 C415 0.929 . S
H457 C427 0.928 . S
H458 C428 0.930 . S
H459 C430 0.930 . S
H460 C434 0.930 . S
H461 C436 0.930 . S
H462 C438 0.928 . S
H463 C440 0.931 . S
H464 C442 0.930 . S
H465 C444 0.929 . S
H466 C446 0.930 . S
H467 C448 0.929 . S
H468 C449 0.931 . S
C469 O470 1.201 . S
C469 C471 1.493 . S
C469 N486 1.318 . S
O470 C469 1.201 . S
C471 C469 1.493 . S
C471 C472 1.381 . S
C471 N476 1.335 1_554 S
C472 C471 1.381 . S
C472 C473 1.411 1_554 S
C472 H518 0.931 . S
C473 C472 1.411 1_556 S
C473 C474 1.384 . S
C473 H519 0.930 . S
C474 C473 1.384 . S
C474 C475 1.376 . S
C474 H520 0.929 . S
C475 C474 1.376 . S
C475 N476 1.330 . S
C475 C490 1.484 . S
N476 C471 1.335 1_556 S
N476 C475 1.330 . S
N476 Co478 1.859 . S
N477 Co478 1.962 1_554 S
N477 C488 1.318 . S
N477 C512 1.421 . S
Co478 N476 1.859 . S
Co478 N477 1.962 1_556 S
Co478 N479 1.859 . S
Co478 N485 1.958 . S
Co478 N486 1.962 1_556 S
Co478 N487 1.958 . S
N479 Co478 1.859 . S
N479 C483 1.330 . S
N479 C484 1.335 1_556 S
C480 C481 1.411 1_554 S
C480 C484 1.381 . S
C480 H521 0.931 . S
C481 C480 1.411 1_556 S
C481 C482 1.384 . S
C481 H522 0.930 . S
C482 C481 1.384 . S
C482 C483 1.376 . S
C482 H523 0.929 . S
C483 N479 1.330 . S
C483 C482 1.376 . S
C483 C498 1.484 . S
C484 N479 1.335 1_554 S
C484 C480 1.381 . S
C484 C488 1.493 . S
N485 Co478 1.958 . S
N485 C498 1.344 . S
N485 C500 1.425 . S
N486 C469 1.318 . S
N486 Co478 1.962 1_554 S
N486 C506 1.421 . S
N487 Co478 1.958 . S
N487 C490 1.344 . S
N487 C492 1.425 . S
C488 N477 1.318 . S
C488 C484 1.493 . S
C488 O489 1.201 . S
O489 C488 1.201 . S
C490 C475 1.484 . S
C490 N487 1.344 . S
C490 O491 1.268 . S
O491 C490 1.268 . S
C492 N487 1.425 . S
C492 C494 1.392 . S
C492 C495 1.368 . S
C493 C494 1.382 . S
C493 C497 1.386 . S
C494 C492 1.392 . S
C494 C493 1.382 . S
C494 H524 0.928 . S
C495 C492 1.368 . S
C495 C496 1.367 . S
C495 H525 0.930 . S
C496 C495 1.367 . S
C496 C497 1.369 . S
C497 C493 1.386 . S
C497 C496 1.369 . S
C497 H526 0.930 . S
C498 C483 1.484 . S
C498 N485 1.344 . S
C498 O499 1.268 . S
O499 C498 1.268 . S
C500 N485 1.425 . S
C500 C501 1.368 . S
C500 C505 1.392 . S
C501 C500 1.368 . S
C501 C502 1.367 . S
C501 H527 0.930 . S
C502 C501 1.367 . S
C502 C503 1.369 . S
C503 C502 1.369 . S
C503 C504 1.386 . S
C503 H528 0.930 . S
C504 C503 1.386 . S
C504 C505 1.382 . S
C505 C500 1.392 . S
C505 C504 1.382 . S
C505 H529 0.928 . S
C506 N486 1.421 . S
C506 C507 1.371 . S
C506 C511 1.385 . S
C507 C506 1.371 . S
C507 C508 1.367 . S
C507 H530 0.931 . S
C508 C507 1.367 . S
C508 C509 1.401 . S
C509 C508 1.401 . S
C509 C510 1.385 . S
C509 H531 0.930 . S
C510 C509 1.385 . S
C510 C511 1.402 . S
C511 C506 1.385 . S
C511 C510 1.402 . S
C511 H532 0.929 . S
C512 N477 1.421 . S
C512 C515 1.385 . S
C512 C516 1.371 . S
C513 C514 1.385 . S
C513 C517 1.401 . S
C513 H533 0.930 . S
C514 C513 1.385 . S
C514 C515 1.402 . S
C515 C512 1.385 . S
C515 C514 1.402 . S
C515 H534 0.929 . S
C516 C512 1.371 . S
C516 C517 1.367 . S
C516 H535 0.931 . S
C517 C513 1.401 . S
C517 C516 1.367 . S
H518 C472 0.931 . S
H519 C473 0.930 . S
H520 C474 0.929 . S
H521 C480 0.931 . S
H522 C481 0.930 . S
H523 C482 0.929 . S
H524 C494 0.928 . S
H525 C495 0.930 . S
H526 C497 0.930 . S
H527 C501 0.930 . S
H528 C503 0.930 . S
H529 C505 0.928 . S
H530 C507 0.931 . S
H531 C509 0.930 . S
H532 C511 0.929 . S
H533 C513 0.930 . S
H534 C515 0.929 . S
H535 C516 0.931 . S
C536 C537 1.363 . S
C536 C542 1.379 . S
C536 N544 1.356 1_545 S
C537 C536 1.363 . S
C537 C543 1.363 . S
C538 C539 1.363 . S
C538 C543 1.379 . S
C538 N545 1.356 . S
C539 C538 1.363 . S
C539 C542 1.363 . S
N540 C542 1.356 1_565 S
N540 H552 0.984 . S
N540 H553 0.985 . S
N541 C543 1.356 . S
N541 H546 0.984 . S
N541 H547 0.985 . S
C542 C536 1.379 . S
C542 C539 1.363 . S
C542 N540 1.356 1_545 S
C543 C537 1.363 . S
C543 C538 1.379 . S
C543 N541 1.356 . S
N544 C536 1.356 1_565 S
N544 H550 0.984 . S
N544 H551 0.984 . S
N545 C538 1.356 . S
N545 H548 0.984 . S
N545 H549 0.985 . S
H546 N541 0.984 . S
H547 N541 0.985 . S
H548 N545 0.984 . S
H549 N545 0.985 . S
H550 N544 0.984 . S
H551 N544 0.984 . S
H552 N540 0.984 . S
H553 N540 0.985 . S
C554 C555 1.363 . S
C554 C560 1.379 . S
C554 N562 1.356 . S
C555 C554 1.363 . S
C555 C561 1.363 . S
C556 C557 1.363 . S
C556 C561 1.379 . S
C556 N563 1.356 1_565 S
C557 C556 1.363 . S
C557 C560 1.363 . S
N558 C560 1.356 . S
N558 H570 0.984 . S
N558 H571 0.985 . S
N559 C561 1.356 1_545 S
N559 H564 0.984 . S
N559 H565 0.985 . S
C560 C554 1.379 . S
C560 C557 1.363 . S
C560 N558 1.356 . S
C561 C555 1.363 . S
C561 C556 1.379 . S
C561 N559 1.356 1_565 S
N562 C554 1.356 . S
N562 H568 0.984 . S
N562 H569 0.984 . S
N563 C556 1.356 1_545 S
N563 H566 0.984 . S
N563 H567 0.985 . S
H564 N559 0.984 . S
H565 N559 0.985 . S
H566 N563 0.984 . S
H567 N563 0.985 . S
H568 N562 0.984 . S
H569 N562 0.984 . S
H570 N558 0.984 . S
H571 N558 0.985 . S
C572 C573 1.363 . S
C572 C578 1.379 . S
C572 N580 1.356 . S
C573 C572 1.363 . S
C573 C579 1.363 . S
C574 C575 1.363 . S
C574 C579 1.379 . S
C574 N581 1.356 . S
C575 C574 1.363 . S
C575 C578 1.363 . S
N576 C578 1.356 . S
N576 H588 0.984 . S
N576 H589 0.985 . S
N577 C579 1.356 . S
N577 H582 0.984 . S
N577 H583 0.985 . S
C578 C572 1.379 . S
C578 C575 1.363 . S
C578 N576 1.356 . S
C579 C573 1.363 . S
C579 C574 1.379 . S
C579 N577 1.356 . S
N580 C572 1.356 . S
N580 H586 0.984 . S
N580 H587 0.984 . S
N581 C574 1.356 . S
N581 H584 0.984 . S
N581 H585 0.985 . S
H582 N577 0.984 . S
H583 N577 0.985 . S
H584 N581 0.984 . S
H585 N581 0.985 . S
H586 N580 0.984 . S
H587 N580 0.984 . S
H588 N576 0.984 . S
H589 N576 0.985 . S
C590 C591 1.363 . S
C590 C596 1.379 . S
C590 N598 1.356 . S
C591 C590 1.363 . S
C591 C597 1.363 . S
C592 C593 1.363 . S
C592 C597 1.379 . S
C592 N599 1.356 . S
C593 C592 1.363 . S
C593 C596 1.363 . S
N594 C596 1.356 . S
N594 H606 0.984 . S
N594 H607 0.985 . S
N595 C597 1.356 . S
N595 H600 0.984 . S
N595 H601 0.985 . S
C596 C590 1.379 . S
C596 C593 1.363 . S
C596 N594 1.356 . S
C597 C591 1.363 . S
C597 C592 1.379 . S
C597 N595 1.356 . S
N598 C590 1.356 . S
N598 H604 0.984 . S
N598 H605 0.984 . S
N599 C592 1.356 . S
N599 H602 0.984 . S
N599 H603 0.985 . S
H600 N595 0.984 . S
H601 N595 0.985 . S
H602 N599 0.984 . S
H603 N599 0.985 . S
H604 N598 0.984 . S
H605 N598 0.984 . S
H606 N594 0.984 . S
H607 N594 0.985 . S
C608 C609 1.363 . S
C608 C614 1.379 . S
C608 N616 1.356 . S
C609 C608 1.363 . S
C609 C615 1.363 . S
C610 C611 1.363 . S
C610 C615 1.379 . S
C610 N617 1.356 . S
C611 C610 1.363 . S
C611 C614 1.363 . S
N612 C614 1.356 . S
N612 H624 0.984 . S
N612 H625 0.985 . S
N613 C615 1.356 . S
N613 H618 0.984 . S
N613 H619 0.985 . S
C614 C608 1.379 . S
C614 C611 1.363 . S
C614 N612 1.356 . S
C615 C609 1.363 . S
C615 C610 1.379 . S
C615 N613 1.356 . S
N616 C608 1.356 . S
N616 H622 0.984 . S
N616 H623 0.984 . S
N617 C610 1.356 . S
N617 H620 0.984 . S
N617 H621 0.985 . S
H618 N613 0.984 . S
H619 N613 0.985 . S
H620 N617 0.984 . S
H621 N617 0.985 . S
H622 N616 0.984 . S
H623 N616 0.984 . S
H624 N612 0.984 . S
H625 N612 0.985 . S
C626 C627 1.363 . S
C626 C632 1.379 . S
C626 N634 1.356 . S
C627 C626 1.363 . S
C627 C633 1.363 . S
C628 C629 1.363 . S
C628 C633 1.379 . S
C628 N635 1.356 . S
C629 C628 1.363 . S
C629 C632 1.363 . S
N630 C632 1.356 . S
N630 H642 0.984 . S
N630 H643 0.985 . S
N631 C633 1.356 . S
N631 H636 0.984 . S
N631 H637 0.985 . S
C632 C626 1.379 . S
C632 C629 1.363 . S
C632 N630 1.356 . S
C633 C627 1.363 . S
C633 C628 1.379 . S
C633 N631 1.356 . S
N634 C626 1.356 . S
N634 H640 0.984 . S
N634 H641 0.984 . S
N635 C628 1.356 . S
N635 H638 0.984 . S
N635 H639 0.985 . S
H636 N631 0.984 . S
H637 N631 0.985 . S
H638 N635 0.984 . S
H639 N635 0.985 . S
H640 N634 0.984 . S
H641 N634 0.984 . S
H642 N630 0.984 . S
H643 N630 0.985 . S
C644 C645 1.363 . S
C644 C650 1.379 . S
C644 N652 1.356 . S
C645 C644 1.363 . S
C645 C651 1.363 . S
C646 C647 1.363 . S
C646 C651 1.379 . S
C646 N653 1.356 . S
C647 C646 1.363 . S
C647 C650 1.363 . S
N648 C650 1.356 . S
N648 H660 0.984 . S
N648 H661 0.985 . S
N649 C651 1.356 . S
N649 H654 0.984 . S
N649 H655 0.985 . S
C650 C644 1.379 . S
C650 C647 1.363 . S
C650 N648 1.356 . S
C651 C645 1.363 . S
C651 C646 1.379 . S
C651 N649 1.356 . S
N652 C644 1.356 . S
N652 H658 0.984 . S
N652 H659 0.984 . S
N653 C646 1.356 . S
N653 H656 0.984 . S
N653 H657 0.985 . S
H654 N649 0.984 . S
H655 N649 0.985 . S
H656 N653 0.984 . S
H657 N653 0.985 . S
H658 N652 0.984 . S
H659 N652 0.984 . S
H660 N648 0.984 . S
H661 N648 0.985 . S
C662 C663 1.363 . S
C662 C668 1.379 . S
C662 N670 1.356 . S
C663 C662 1.363 . S
C663 C669 1.363 . S
C664 C665 1.363 . S
C664 C669 1.379 . S
C664 N671 1.356 . S
C665 C664 1.363 . S
C665 C668 1.363 . S
N666 C668 1.356 . S
N666 H678 0.984 . S
N666 H679 0.985 . S
N667 C669 1.356 . S
N667 H672 0.984 . S
N667 H673 0.985 . S
C668 C662 1.379 . S
C668 C665 1.363 . S
C668 N666 1.356 . S
C669 C663 1.363 . S
C669 C664 1.379 . S
C669 N667 1.356 . S
N670 C662 1.356 . S
N670 H676 0.984 . S
N670 H677 0.984 . S
N671 C664 1.356 . S
N671 H674 0.984 . S
N671 H675 0.985 . S
H672 N667 0.984 . S
H673 N667 0.985 . S
H674 N671 0.984 . S
H675 N671 0.985 . S
H676 N670 0.984 . S
H677 N670 0.984 . S
H678 N666 0.984 . S
H679 N666 0.985 . S
C680 C681 1.363 . S
C680 C686 1.379 . S
C680 N688 1.356 . S
C681 C680 1.363 . S
C681 C687 1.363 . S
C682 C683 1.363 . S
C682 C687 1.379 . S
C682 N689 1.356 1_545 S
C683 C682 1.363 . S
C683 C686 1.363 . S
N684 C686 1.356 . S
N684 H696 0.984 . S
N684 H697 0.985 . S
N685 C687 1.356 1_565 S
N685 H690 0.984 . S
N685 H691 0.985 . S
C686 C680 1.379 . S
C686 C683 1.363 . S
C686 N684 1.356 . S
C687 C681 1.363 . S
C687 C682 1.379 . S
C687 N685 1.356 1_545 S
N688 C680 1.356 . S
N688 H694 0.984 . S
N688 H695 0.984 . S
N689 C682 1.356 1_565 S
N689 H692 0.984 1_565 S
N689 H693 0.985 . S
H690 N685 0.984 . S
H691 N685 0.985 . S
H692 N689 0.984 1_545 S
H693 N689 0.985 . S
H694 N688 0.984 . S
H695 N688 0.984 . S
H696 N684 0.984 . S
H697 N684 0.985 . S
C698 C699 1.363 . S
C698 C704 1.379 . S
C698 N706 1.356 . S
C699 C698 1.363 . S
C699 C705 1.363 . S
C700 C701 1.363 . S
C700 C705 1.379 . S
C700 N707 1.356 1_565 S
C701 C700 1.363 . S
C701 C704 1.363 . S
N702 C704 1.356 . S
N702 H714 0.984 . S
N702 H715 0.985 . S
N703 C705 1.356 1_545 S
N703 H708 0.984 1_545 S
N703 H709 0.985 . S
C704 C698 1.379 . S
C704 C701 1.363 . S
C704 N702 1.356 . S
C705 C699 1.363 . S
C705 C700 1.379 . S
C705 N703 1.356 1_565 S
N706 C698 1.356 . S
N706 H712 0.984 . S
N706 H713 0.984 . S
N707 C700 1.356 1_545 S
N707 H710 0.984 . S
N707 H711 0.985 . S
H708 N703 0.984 1_565 S
H709 N703 0.985 . S
H710 N707 0.984 . S
H711 N707 0.985 . S
H712 N706 0.984 . S
H713 N706 0.984 . S
H714 N702 0.984 . S
H715 N702 0.985 . S
C716 C717 1.363 . S
C716 C722 1.379 . S
C716 N724 1.356 . S
C717 C716 1.363 . S
C717 C723 1.363 . S
C718 C719 1.363 . S
C718 C723 1.379 . S
C718 N725 1.356 . S
C719 C718 1.363 . S
C719 C722 1.363 . S
N720 C722 1.356 . S
N720 H732 0.984 . S
N720 H733 0.985 . S
N721 C723 1.356 . S
N721 H726 0.984 . S
N721 H727 0.985 . S
C722 C716 1.379 . S
C722 C719 1.363 . S
C722 N720 1.356 . S
C723 C717 1.363 . S
C723 C718 1.379 . S
C723 N721 1.356 . S
N724 C716 1.356 . S
N724 H730 0.984 . S
N724 H731 0.984 . S
N725 C718 1.356 . S
N725 H728 0.984 . S
N725 H729 0.985 . S
H726 N721 0.984 . S
H727 N721 0.985 . S
H728 N725 0.984 . S
H729 N725 0.985 . S
H730 N724 0.984 . S
H731 N724 0.984 . S
H732 N720 0.984 . S
H733 N720 0.985 . S
C734 C735 1.363 . S
C734 C740 1.379 . S
C734 N742 1.356 . S
C735 C734 1.363 . S
C735 C741 1.363 . S
C736 C737 1.363 . S
C736 C741 1.379 . S
C736 N743 1.356 . S
C737 C736 1.363 . S
C737 C740 1.363 . S
N738 C740 1.356 . S
N738 H750 0.984 . S
N738 H751 0.985 . S
N739 C741 1.356 . S
N739 H744 0.984 . S
N739 H745 0.985 . S
C740 C734 1.379 . S
C740 C737 1.363 . S
C740 N738 1.356 . S
C741 C735 1.363 . S
C741 C736 1.379 . S
C741 N739 1.356 . S
N742 C734 1.356 . S
N742 H748 0.984 . S
N742 H749 0.984 . S
N743 C736 1.356 . S
N743 H746 0.984 . S
N743 H747 0.985 . S
H744 N739 0.984 . S
H745 N739 0.985 . S
H746 N743 0.984 . S
H747 N743 0.985 . S
H748 N742 0.984 . S
H749 N742 0.984 . S
H750 N738 0.984 . S
H751 N738 0.985 . S
C752 C753 1.363 . S
C752 C758 1.379 . S
C752 N760 1.356 . S
C753 C752 1.363 . S
C753 C759 1.363 . S
C754 C755 1.363 . S
C754 C759 1.379 . S
C754 N761 1.356 . S
C755 C754 1.363 . S
C755 C758 1.363 . S
N756 C758 1.356 . S
N756 H768 0.984 . S
N756 H769 0.985 . S
N757 C759 1.356 . S
N757 H762 0.984 . S
N757 H763 0.985 . S
C758 C752 1.379 . S
C758 C755 1.363 . S
C758 N756 1.356 . S
C759 C753 1.363 . S
C759 C754 1.379 . S
C759 N757 1.356 . S
N760 C752 1.356 . S
N760 H766 0.984 . S
N760 H767 0.984 . S
N761 C754 1.356 . S
N761 H764 0.984 . S
N761 H765 0.985 . S
H762 N757 0.984 . S
H763 N757 0.985 . S
H764 N761 0.984 . S
H765 N761 0.985 . S
H766 N760 0.984 . S
H767 N760 0.984 . S
H768 N756 0.984 . S
H769 N756 0.985 . S
C770 C771 1.363 . S
C770 C776 1.379 . S
C770 N778 1.356 . S
C771 C770 1.363 . S
C771 C777 1.363 . S
C772 C773 1.363 . S
C772 C777 1.379 . S
C772 N779 1.356 . S
C773 C772 1.363 . S
C773 C776 1.363 . S
N774 C776 1.356 . S
N774 H786 0.984 . S
N774 H787 0.985 . S
N775 C777 1.356 . S
N775 H780 0.984 . S
N775 H781 0.985 . S
C776 C770 1.379 . S
C776 C773 1.363 . S
C776 N774 1.356 . S
C777 C771 1.363 . S
C777 C772 1.379 . S
C777 N775 1.356 . S
N778 C770 1.356 . S
N778 H784 0.984 . S
N778 H785 0.984 . S
N779 C772 1.356 . S
N779 H782 0.984 . S
N779 H783 0.985 . S
H780 N775 0.984 . S
H781 N775 0.985 . S
H782 N779 0.984 . S
H783 N779 0.985 . S
H784 N778 0.984 . S
H785 N778 0.984 . S
H786 N774 0.984 . S
H787 N774 0.985 . S
C788 C789 1.363 . S
C788 C794 1.379 . S
C788 N796 1.356 . S
C789 C788 1.363 . S
C789 C795 1.363 . S
C790 C791 1.363 . S
C790 C795 1.379 . S
C790 N797 1.356 . S
C791 C790 1.363 . S
C791 C794 1.363 . S
N792 C794 1.356 . S
N792 H804 0.984 . S
N792 H805 0.985 . S
N793 C795 1.356 . S
N793 H798 0.984 . S
N793 H799 0.985 1_565 S
C794 C788 1.379 . S
C794 C791 1.363 . S
C794 N792 1.356 . S
C795 C789 1.363 . S
C795 C790 1.379 . S
C795 N793 1.356 . S
N796 C788 1.356 . S
N796 H802 0.984 . S
N796 H803 0.984 . S
N797 C790 1.356 . S
N797 H800 0.984 . S
N797 H801 0.985 1_565 S
H798 N793 0.984 . S
H799 N793 0.985 1_545 S
H800 N797 0.984 . S
H801 N797 0.985 1_545 S
H802 N796 0.984 . S
H803 N796 0.984 . S
H804 N792 0.984 . S
H805 N792 0.985 . S
C806 C807 1.363 . S
C806 C812 1.379 . S
C806 N814 1.356 . S
C807 C806 1.363 . S
C807 C813 1.363 . S
C808 C809 1.363 . S
C808 C813 1.379 . S
C808 N815 1.356 . S
C809 C808 1.363 . S
C809 C812 1.363 . S
N810 C812 1.356 . S
N810 H822 0.984 . S
N810 H823 0.985 . S
N811 C813 1.356 . S
N811 H816 0.984 . S
N811 H817 0.985 . S
C812 C806 1.379 . S
C812 C809 1.363 . S
C812 N810 1.356 . S
C813 C807 1.363 . S
C813 C808 1.379 . S
C813 N811 1.356 . S
N814 C806 1.356 . S
N814 H820 0.984 . S
N814 H821 0.984 . S
N815 C808 1.356 . S
N815 H818 0.984 . S
N815 H819 0.985 . S
H816 N811 0.984 . S
H817 N811 0.985 . S
H818 N815 0.984 . S
H819 N815 0.985 . S
H820 N814 0.984 . S
H821 N814 0.984 . S
H822 N810 0.984 . S
H823 N810 0.985 . S
C824 C825 1.363 1_655 S
C824 C830 1.379 . S
C824 N832 1.356 . S
C825 C824 1.363 1_455 S
C825 C831 1.363 . S
C826 C827 1.363 1_455 S
C826 C831 1.379 . S
C826 N833 1.356 . S
C827 C826 1.363 1_655 S
C827 C830 1.363 . S
N828 C830 1.356 . S
N828 H840 0.984 . S
N828 H841 0.985 . S
N829 C831 1.356 . S
N829 H834 0.984 . S
N829 H835 0.985 1_556 S
C830 C824 1.379 . S
C830 C827 1.363 . S
C830 N828 1.356 . S
C831 C825 1.363 . S
C831 C826 1.379 . S
C831 N829 1.356 . S
N832 C824 1.356 . S
N832 H838 0.984 . S
N832 H839 0.984 . S
N833 C826 1.356 . S
N833 H836 0.984 . S
N833 H837 0.985 1_556 S
H834 N829 0.984 . S
H835 N829 0.985 1_554 S
H836 N833 0.984 . S
H837 N833 0.985 1_554 S
H838 N832 0.984 . S
H839 N832 0.984 . S
H840 N828 0.984 . S
H841 N828 0.985 . S
C842 C843 1.363 . S
C842 C848 1.379 . S
C842 N850 1.356 . S
C843 C842 1.363 . S
C843 C849 1.363 . S
C844 C845 1.363 . S
C844 C849 1.379 . S
C844 N851 1.356 . S
C845 C844 1.363 . S
C845 C848 1.363 . S
N846 C848 1.356 . S
N846 H858 0.984 . S
N846 H859 0.985 . S
N847 C849 1.356 . S
N847 H852 0.984 . S
N847 H853 0.985 . S
C848 C842 1.379 . S
C848 C845 1.363 . S
C848 N846 1.356 . S
C849 C843 1.363 . S
C849 C844 1.379 . S
C849 N847 1.356 . S
N850 C842 1.356 . S
N850 H856 0.984 . S
N850 H857 0.984 . S
N851 C844 1.356 . S
N851 H854 0.984 . S
N851 H855 0.985 . S
H852 N847 0.984 . S
H853 N847 0.985 . S
H854 N851 0.984 . S
H855 N851 0.985 . S
H856 N850 0.984 . S
H857 N850 0.984 . S
H858 N846 0.984 . S
H859 N846 0.985 . S
C860 C861 1.363 . S
C860 C866 1.379 . S
C860 N868 1.356 . S
C861 C860 1.363 . S
C861 C867 1.363 . S
C862 C863 1.363 . S
C862 C867 1.379 . S
C862 N869 1.356 . S
C863 C862 1.363 . S
C863 C866 1.363 . S
N864 C866 1.356 . S
N864 H876 0.984 . S
N864 H877 0.985 . S
N865 C867 1.356 . S
N865 H870 0.984 . S
N865 H871 0.985 . S
C866 C860 1.379 . S
C866 C863 1.363 . S
C866 N864 1.356 . S
C867 C861 1.363 . S
C867 C862 1.379 . S
C867 N865 1.356 . S
N868 C860 1.356 . S
N868 H874 0.984 . S
N868 H875 0.984 . S
N869 C862 1.356 . S
N869 H872 0.984 . S
N869 H873 0.985 . S
H870 N865 0.984 . S
H871 N865 0.985 . S
H872 N869 0.984 . S
H873 N869 0.985 . S
H874 N868 0.984 . S
H875 N868 0.984 . S
H876 N864 0.984 . S
H877 N864 0.985 . S
C878 C879 1.363 . S
C878 C884 1.379 1_565 S
C878 N886 1.356 . S
C879 C878 1.363 . S
C879 C885 1.363 1_655 S
C880 C881 1.363 . S
C880 C885 1.379 1_545 S
C880 N887 1.356 . S
C881 C880 1.363 . S
C881 C884 1.363 1_455 S
N882 C884 1.356 . S
N882 H894 0.984 . S
N882 H895 0.985 . S
N883 C885 1.356 . S
N883 H888 0.984 . S
N883 H889 0.985 . S
C884 C878 1.379 1_545 S
C884 C881 1.363 1_655 S
C884 N882 1.356 . S
C885 C879 1.363 1_455 S
C885 C880 1.379 1_565 S
C885 N883 1.356 . S
N886 C878 1.356 . S
N886 H892 0.984 . S
N886 H893 0.984 . S
N887 C880 1.356 . S
N887 H890 0.984 . S
N887 H891 0.985 . S
H888 N883 0.984 . S
H889 N883 0.985 . S
H890 N887 0.984 . S
H891 N887 0.985 . S
H892 N886 0.984 . S
H893 N886 0.984 . S
H894 N882 0.984 . S
H895 N882 0.985 . S
C896 C897 1.363 . S
C896 C902 1.379 . S
C896 N904 1.356 . S
C897 C896 1.363 . S
C897 C903 1.363 . S
C898 C899 1.363 . S
C898 C903 1.379 . S
C898 N905 1.356 . S
C899 C898 1.363 . S
C899 C902 1.363 . S
N900 C902 1.356 . S
N900 H912 0.984 . S
N900 H913 0.985 . S
N901 C903 1.356 . S
N901 H906 0.984 . S
N901 H907 0.985 . S
C902 C896 1.379 . S
C902 C899 1.363 . S
C902 N900 1.356 . S
C903 C897 1.363 . S
C903 C898 1.379 . S
C903 N901 1.356 . S
N904 C896 1.356 . S
N904 H910 0.984 . S
N904 H911 0.984 . S
N905 C898 1.356 . S
N905 H908 0.984 . S
N905 H909 0.985 . S
H906 N901 0.984 . S
H907 N901 0.985 . S
H908 N905 0.984 . S
H909 N905 0.985 . S
H910 N904 0.984 . S
H911 N904 0.984 . S
H912 N900 0.984 . S
H913 N900 0.985 . S
C914 C915 1.363 . S
C914 C920 1.379 . S
C914 N922 1.356 . S
C915 C914 1.363 . S
C915 C921 1.363 . S
C916 C917 1.363 . S
C916 C921 1.379 . S
C916 N923 1.356 . S
C917 C916 1.363 . S
C917 C920 1.363 . S
N918 C920 1.356 . S
N918 H930 0.984 . S
N918 H931 0.985 . S
N919 C921 1.356 . S
N919 H924 0.984 . S
N919 H925 0.985 . S
C920 C914 1.379 . S
C920 C917 1.363 . S
C920 N918 1.356 . S
C921 C915 1.363 . S
C921 C916 1.379 . S
C921 N919 1.356 . S
N922 C914 1.356 . S
N922 H928 0.984 . S
N922 H929 0.984 . S
N923 C916 1.356 . S
N923 H926 0.984 . S
N923 H927 0.985 . S
H924 N919 0.984 . S
H925 N919 0.985 . S
H926 N923 0.984 . S
H927 N923 0.985 . S
H928 N922 0.984 . S
H929 N922 0.984 . S
H930 N918 0.984 . S
H931 N918 0.985 . S
C932 C933 1.363 . S
C932 C938 1.379 . S
C932 N940 1.356 . S
C933 C932 1.363 . S
C933 C939 1.363 . S
C934 C935 1.363 . S
C934 C939 1.379 . S
C934 N941 1.356 . S
C935 C934 1.363 . S
C935 C938 1.363 . S
N936 C938 1.356 . S
N936 H948 0.984 . S
N936 H949 0.985 . S
N937 C939 1.356 . S
N937 H942 0.984 . S
N937 H943 0.985 . S
C938 C932 1.379 . S
C938 C935 1.363 . S
C938 N936 1.356 . S
C939 C933 1.363 . S
C939 C934 1.379 . S
C939 N937 1.356 . S
N940 C932 1.356 . S
N940 H946 0.984 . S
N940 H947 0.984 . S
N941 C934 1.356 . S
N941 H944 0.984 . S
N941 H945 0.985 . S
H942 N937 0.984 . S
H943 N937 0.985 . S
H944 N941 0.984 . S
H945 N941 0.985 . S
H946 N940 0.984 . S
H947 N940 0.984 . S
H948 N936 0.984 . S
H949 N936 0.985 . S
C950 C951 1.363 . S
C950 C956 1.379 1_565 S
C950 N958 1.356 . S
C951 C950 1.363 . S
C951 C957 1.363 . S
C952 C953 1.363 . S
C952 C957 1.379 1_545 S
C952 N959 1.356 . S
C953 C952 1.363 . S
C953 C956 1.363 . S
N954 C956 1.356 . S
N954 H966 0.984 1_556 S
N954 H967 0.985 . S
N955 C957 1.356 . S
N955 H960 0.984 . S
N955 H961 0.985 . S
C956 C950 1.379 1_545 S
C956 C953 1.363 . S
C956 N954 1.356 . S
C957 C951 1.363 . S
C957 C952 1.379 1_565 S
C957 N955 1.356 . S
N958 C950 1.356 . S
N958 H964 0.984 1_556 S
N958 H965 0.984 . S
N959 C952 1.356 . S
N959 H962 0.984 . S
N959 H963 0.985 . S
H960 N955 0.984 . S
H961 N955 0.985 . S
H962 N959 0.984 . S
H963 N959 0.985 . S
H964 N958 0.984 1_554 S
H965 N958 0.984 . S
H966 N954 0.984 1_554 S
H967 N954 0.985 . S
C968 C969 1.363 . S
C968 C974 1.379 . S
C968 N976 1.354 1_554 S
C969 C968 1.363 . S
C969 C975 1.363 . S
C970 C971 1.363 . S
C970 C975 1.379 . S
C970 N977 1.356 . S
C971 C970 1.363 . S
C971 C974 1.363 . S
N972 C974 1.354 1_556 S
N972 H984 0.988 . S
N972 H985 0.983 1_556 S
N973 C975 1.356 . S
N973 H978 0.984 . S
N973 H979 0.985 . S
C974 C968 1.379 . S
C974 C971 1.363 . S
C974 N972 1.354 1_554 S
C975 C969 1.363 . S
C975 C970 1.379 . S
C975 N973 1.356 . S
N976 C968 1.354 1_556 S
N976 H982 0.988 . S
N976 H983 0.983 1_556 S
N977 C970 1.356 . S
N977 H980 0.984 . S
N977 H981 0.985 . S
H978 N973 0.984 . S
H979 N973 0.985 . S
H980 N977 0.984 . S
H981 N977 0.985 . S
H982 N976 0.988 . S
H983 N976 0.983 1_554 S
H984 N972 0.988 . S
H985 N972 0.983 1_554 S
C986 C987 1.363 . S
C986 C992 1.379 . S
C986 N994 1.356 . S
C987 C986 1.363 . S
C987 C993 1.363 . S
C988 C989 1.363 . S
C988 C993 1.379 . S
C988 N995 1.354 1_554 S
C989 C988 1.363 . S
C989 C992 1.363 . S
N990 C992 1.356 . S
N990 H1002 0.984 . S
N990 H1003 0.985 . S
N991 C993 1.354 1_556 S
N991 H996 0.983 1_556 S
N991 H997 0.988 . S
C992 C986 1.379 . S
C992 C989 1.363 . S
C992 N990 1.356 . S
C993 C987 1.363 . S
C993 C988 1.379 . S
C993 N991 1.354 1_554 S
N994 C986 1.356 . S
N994 H1000 0.984 . S
N994 H1001 0.984 . S
N995 C988 1.354 1_556 S
N995 H998 0.983 1_556 S
N995 H999 0.988 . S
H996 N991 0.983 1_554 S
H997 N991 0.988 . S
H998 N995 0.983 1_554 S
H999 N995 0.988 . S
H1000 N994 0.984 . S
H1001 N994 0.984 . S
H1002 N990 0.984 . S
H1003 N990 0.985 . S
C1004 C1005 1.363 . S
C1004 C1010 1.379 1_455 S
C1004 N1012 1.356 . S
C1005 C1004 1.363 . S
C1005 C1011 1.363 . S
C1006 C1007 1.363 . S
C1006 C1011 1.379 1_655 S
C1006 N1013 1.356 . S
C1007 C1006 1.363 . S
C1007 C1010 1.363 . S
N1008 C1010 1.356 . S
N1008 H1020 0.984 . S
N1008 H1021 0.985 . S
N1009 C1011 1.356 . S
N1009 H1014 0.984 . S
N1009 H1015 0.985 . S
C1010 C1004 1.379 1_655 S
C1010 C1007 1.363 . S
C1010 N1008 1.356 . S
C1011 C1005 1.363 . S
C1011 C1006 1.379 1_455 S
C1011 N1009 1.356 . S
N1012 C1004 1.356 . S
N1012 H1018 0.984 . S
N1012 H1019 0.984 . S
N1013 C1006 1.356 . S
N1013 H1016 0.984 . S
N1013 H1017 0.985 . S
H1014 N1009 0.984 . S
H1015 N1009 0.985 . S
H1016 N1013 0.984 . S
H1017 N1013 0.985 . S
H1018 N1012 0.984 . S
H1019 N1012 0.984 . S
H1020 N1008 0.984 . S
H1021 N1008 0.985 . S
C1022 C1023 1.363 . S
C1022 C1028 1.379 . S
C1022 N1030 1.356 . S
C1023 C1022 1.363 . S
C1023 C1029 1.363 . S
C1024 C1025 1.363 . S
C1024 C1029 1.379 . S
C1024 N1031 1.356 . S
C1025 C1024 1.363 . S
C1025 C1028 1.363 . S
N1026 C1028 1.356 . S
N1026 H1038 0.984 . S
N1026 H1039 0.985 . S
N1027 C1029 1.356 . S
N1027 H1032 0.984 . S
N1027 H1033 0.985 . S
C1028 C1022 1.379 . S
C1028 C1025 1.363 . S
C1028 N1026 1.356 . S
C1029 C1023 1.363 . S
C1029 C1024 1.379 . S
C1029 N1027 1.356 . S
N1030 C1022 1.356 . S
N1030 H1036 0.984 . S
N1030 H1037 0.984 . S
N1031 C1024 1.356 . S
N1031 H1034 0.984 . S
N1031 H1035 0.985 . S
H1032 N1027 0.984 . S
H1033 N1027 0.985 . S
H1034 N1031 0.984 . S
H1035 N1031 0.985 . S
H1036 N1030 0.984 . S
H1037 N1030 0.984 . S
H1038 N1026 0.984 . S
H1039 N1026 0.985 . S
C1040 C1041 1.363 . S
C1040 C1046 1.379 . S
C1040 N1048 1.356 . S
C1041 C1040 1.363 . S
C1041 C1047 1.363 . S
C1042 C1043 1.363 . S
C1042 C1047 1.379 . S
C1042 N1049 1.356 . S
C1043 C1042 1.363 . S
C1043 C1046 1.363 . S
N1044 C1046 1.356 . S
N1044 H1056 0.984 . S
N1044 H1057 0.985 . S
N1045 C1047 1.356 . S
N1045 H1050 0.984 . S
N1045 H1051 0.985 . S
C1046 C1040 1.379 . S
C1046 C1043 1.363 . S
C1046 N1044 1.356 . S
C1047 C1041 1.363 . S
C1047 C1042 1.379 . S
C1047 N1045 1.356 . S
N1048 C1040 1.356 . S
N1048 H1054 0.984 . S
N1048 H1055 0.984 . S
N1049 C1042 1.356 . S
N1049 H1052 0.984 . S
N1049 H1053 0.985 . S
H1050 N1045 0.984 . S
H1051 N1045 0.985 . S
H1052 N1049 0.984 . S
H1053 N1049 0.985 . S
H1054 N1048 0.984 . S
H1055 N1048 0.984 . S
H1056 N1044 0.984 . S
H1057 N1044 0.985 . S
C1058 C1059 1.363 . S
C1058 C1064 1.379 1_655 S
C1058 N1066 1.356 . S
C1059 C1058 1.363 . S
C1059 C1065 1.363 1_545 S
C1060 C1061 1.363 . S
C1060 C1065 1.379 1_455 S
C1060 N1067 1.356 . S
C1061 C1060 1.363 . S
C1061 C1064 1.363 1_565 S
N1062 C1064 1.356 . S
N1062 H1074 0.984 . S
N1062 H1075 0.985 1_545 S
N1063 C1065 1.356 . S
N1063 H1068 0.984 1_565 S
N1063 H1069 0.985 . S
C1064 C1058 1.379 1_455 S
C1064 C1061 1.363 1_545 S
C1064 N1062 1.356 . S
C1065 C1059 1.363 1_565 S
C1065 C1060 1.379 1_655 S
C1065 N1063 1.356 . S
N1066 C1058 1.356 . S
N1066 H1072 0.984 . S
N1066 H1073 0.984 . S
N1067 C1060 1.356 . S
N1067 H1070 0.984 . S
N1067 H1071 0.985 . S
H1068 N1063 0.984 1_545 S
H1069 N1063 0.985 . S
H1070 N1067 0.984 . S
H1071 N1067 0.985 . S
H1072 N1066 0.984 . S
H1073 N1066 0.984 . S
H1074 N1062 0.984 . S
H1075 N1062 0.985 1_565 S
C1076 C1077 1.363 . S
C1076 C1082 1.379 . S
C1076 N1084 1.356 . S
C1077 C1076 1.363 . S
C1077 C1083 1.363 . S
C1078 C1079 1.363 . S
C1078 C1083 1.379 . S
C1078 N1085 1.356 . S
C1079 C1078 1.363 . S
C1079 C1082 1.363 . S
N1080 C1082 1.356 . S
N1080 H1092 0.984 . S
N1080 H1093 0.985 . S
N1081 C1083 1.356 . S
N1081 H1086 0.984 . S
N1081 H1087 0.985 . S
C1082 C1076 1.379 . S
C1082 C1079 1.363 . S
C1082 N1080 1.356 . S
C1083 C1077 1.363 . S
C1083 C1078 1.379 . S
C1083 N1081 1.356 . S
N1084 C1076 1.356 . S
N1084 H1090 0.984 . S
N1084 H1091 0.984 . S
N1085 C1078 1.356 . S
N1085 H1088 0.984 . S
N1085 H1089 0.985 . S
H1086 N1081 0.984 . S
H1087 N1081 0.985 . S
H1088 N1085 0.984 . S
H1089 N1085 0.985 . S
H1090 N1084 0.984 . S
H1091 N1084 0.984 . S
H1092 N1080 0.984 . S
H1093 N1080 0.985 . S
C1094 C1095 1.363 . S
C1094 C1100 1.379 . S
C1094 N1102 1.356 . S
C1095 C1094 1.363 . S
C1095 C1101 1.363 1_565 S
C1096 C1097 1.363 . S
C1096 C1101 1.379 . S
C1096 N1103 1.356 . S
C1097 C1096 1.363 . S
C1097 C1100 1.363 1_545 S
N1098 C1100 1.356 . S
N1098 H1110 0.984 . S
N1098 H1111 0.985 1_565 S
N1099 C1101 1.356 . S
N1099 H1104 0.984 1_545 S
N1099 H1105 0.985 . S
C1100 C1094 1.379 . S
C1100 C1097 1.363 1_565 S
C1100 N1098 1.356 . S
C1101 C1095 1.363 1_545 S
C1101 C1096 1.379 . S
C1101 N1099 1.356 . S
N1102 C1094 1.356 . S
N1102 H1108 0.984 . S
N1102 H1109 0.984 . S
N1103 C1096 1.356 . S
N1103 H1106 0.984 . S
N1103 H1107 0.985 . S
H1104 N1099 0.984 1_565 S
H1105 N1099 0.985 . S
H1106 N1103 0.984 . S
H1107 N1103 0.985 . S
H1108 N1102 0.984 . S
H1109 N1102 0.984 . S
H1110 N1098 0.984 . S
H1111 N1098 0.985 1_545 S
C537 C45 1.297 . S
C539 C100 1.275 . S
C555 C41 1.297 . S
C557 C161 1.277 . S
C573 C234 1.276 . S
C575 C112 1.297 . S
C591 C175 1.297 . S
C593 C228 1.277 . S
C609 C246 1.297 . S
C611 C301 1.274 . S
C627 C362 1.276 . S
C629 C242 1.298 . S
C645 C313 1.297 . S
C647 C33 1.274 . S
C663 C376 1.297 . S
C665 C27 1.277 . S
C681 C368 1.276 . S
C683 C447 1.298 . S
C699 C443 1.297 . S
C701 C295 1.275 . S
C717 C502 1.276 . S
C719 C380 1.297 . S
C735 C496 1.276 . S
C737 C309 1.297 . S
C753 C514 1.297 . S
C755 C167 1.276 . S
C771 C94 1.276 . S
C773 C510 1.297 . S
C789 C435 1.276 . S
C791 C179 1.297 . S
C807 C429 1.276 . S
C809 C108 1.298 . S
C825 C35 1.902 . S
C827 C24 1.902 . S
C843 C91 1.902 . S
C845 C102 1.902 . S
C861 C158 1.902 . S
C863 C169 1.902 . S
C879 C225 1.902 . S
C881 C236 1.902 . S
C897 C292 1.902 . S
C899 C303 1.902 . S
C915 C359 1.902 . S
C917 C370 1.902 . S
C933 C437 1.902 . S
C935 C426 1.902 . S
C951 C493 1.902 . S
C953 C504 1.902 . S
C969 C508 1.427 . S
C971 C48 1.425 . S
C987 C39 1.427 . S
C989 C517 1.430 . S
C1005 C115 1.427 . S
C1007 C173 1.427 . S
C1023 C441 1.427 . S
C1025 C249 1.426 . S
C1041 C240 1.427 . S
C1043 C450 1.429 . S
C1059 C374 1.427 . S
C1061 C316 1.427 . S
C1077 C383 1.427 . S
C1079 C307 1.427 . S
C1095 C182 1.427 . S
C1097 C106 1.427 . S
