# Generated by pormake.
# Topology whz, (6)-cn, num edge types: 1
# Building blocks:
#     Node 0, Type 0, BuildingBlock: VOLQOD_clean_sbu_1, # of connection points: 6
#     Node 1, Type 0, BuildingBlock: VOLQOD_clean_sbu_1, # of connection points: 6
#     Node 2, Type 0, BuildingBlock: VOLQOD_clean_sbu_1, # of connection points: 6
#     Node 3, Type 0, BuildingBlock: VOLQOD_clean_sbu_1, # of connection points: 6
#     Node 4, Type 0, BuildingBlock: VOLQOD_clean_sbu_1, # of connection points: 6
#     Node 5, Type 0, BuildingBlock: VOLQOD_clean_sbu_1, # of connection points: 6
#     Node 6, Type 0, BuildingBlock: VOLQOD_clean_sbu_1, # of connection points: 6
#     Node 7, Type 0, BuildingBlock: VOLQOD_clean_sbu_1, # of connection points: 6
#     Node 8, Type 0, BuildingBlock: VOLQOD_clean_sbu_1, # of connection points: 6
#     Node 9, Type 0, BuildingBlock: VOLQOD_clean_sbu_1, # of connection points: 6
#     Node 10, Type 0, BuildingBlock: VOLQOD_clean_sbu_1, # of connection points: 6
#     Node 11, Type 0, BuildingBlock: VOLQOD_clean_sbu_1, # of connection points: 6
#     Node 12, Type 0, BuildingBlock: VOLQOD_clean_sbu_1, # of connection points: 6
#     Node 13, Type 0, BuildingBlock: VOLQOD_clean_sbu_1, # of connection points: 6
#     Node 14, Type 0, BuildingBlock: VOLQOD_clean_sbu_1, # of connection points: 6
#     Node 15, Type 0, BuildingBlock: VOLQOD_clean_sbu_1, # of connection points: 6
#     Edge 16, Type (0, 0), None
#     Edge 17, Type (0, 0), None
#     Edge 18, Type (0, 0), None
#     Edge 19, Type (0, 0), None
#     Edge 20, Type (0, 0), None
#     Edge 21, Type (0, 0), None
#     Edge 22, Type (0, 0), None
#     Edge 23, Type (0, 0), None
#     Edge 24, Type (0, 0), None
#     Edge 25, Type (0, 0), None
#     Edge 26, Type (0, 0), None
#     Edge 27, Type (0, 0), None
#     Edge 28, Type (0, 0), None
#     Edge 29, Type (0, 0), None
#     Edge 30, Type (0, 0), None
#     Edge 31, Type (0, 0), None
#     Edge 32, Type (0, 0), None
#     Edge 33, Type (0, 0), None
#     Edge 34, Type (0, 0), None
#     Edge 35, Type (0, 0), None
#     Edge 36, Type (0, 0), None
#     Edge 37, Type (0, 0), None
#     Edge 38, Type (0, 0), None
#     Edge 39, Type (0, 0), None
#     Edge 40, Type (0, 0), None
#     Edge 41, Type (0, 0), None
#     Edge 42, Type (0, 0), None
#     Edge 43, Type (0, 0), None
#     Edge 44, Type (0, 0), None
#     Edge 45, Type (0, 0), None
#     Edge 46, Type (0, 0), None
#     Edge 47, Type (0, 0), None
#     Edge 48, Type (0, 0), None
#     Edge 49, Type (0, 0), None
#     Edge 50, Type (0, 0), None
#     Edge 51, Type (0, 0), None
#     Edge 52, Type (0, 0), None
#     Edge 53, Type (0, 0), None
#     Edge 54, Type (0, 0), None
#     Edge 55, Type (0, 0), None
#     Edge 56, Type (0, 0), None
#     Edge 57, Type (0, 0), None
#     Edge 58, Type (0, 0), None
#     Edge 59, Type (0, 0), None
#     Edge 60, Type (0, 0), None
#     Edge 61, Type (0, 0), None
#     Edge 62, Type (0, 0), None
#     Edge 63, Type (0, 0), None
# Relax obj value: 0.427
# Max RMSD: 0.199
# Mean RMSD: 0.199
data_MOF--net-whz--node1-VOLQOD_clean_sbu_1--edge1-none
_symmetry_space_group_name_H-M    P1
_symmetry_Int_Tables_number       1
_symmetry_cell_setting            triclinic
loop_
_symmetry_equiv_pos_as_xyz
'x, y, z'
_cell_length_a     19.885672
_cell_length_b     19.885674
_cell_length_c     26.41324
_cell_angle_alpha  90.0
_cell_angle_beta   90.0
_cell_angle_gamma 89.999998
loop_
_atom_site_label
_atom_site_type_symbol
_atom_site_fract_x
_atom_site_fract_y
_atom_site_fract_z
_atom_type_partial_charge
O0 O 0.1925 0.13543 0.2477 0.0
Zn1 Zn 0.17772 0.1392 0.17538 0.0
O2 O 0.25964 0.11448 0.14232 0.0
Zn3 Zn 0.24339 0.02183 0.12486 0.0
Zn4 Zn 0.32313 0.12808 0.19412 0.0
Zn5 Zn 0.28483 0.18083 0.09246 0.0
O6 O 0.24526 0.02659 0.04494 0.0
O7 O 0.25108 0.1375 0.02765 0.0
O8 O 0.09822 0.08419 0.16434 0.0
O9 O 0.14776 -0.01081 0.14282 0.0
O10 O 0.29568 0.9615 0.17718 0.0
O11 O 0.32997 0.04146 0.23113 0.0
O12 O 0.41047 0.16666 0.16982 0.0
O13 O 0.1549 0.23285 0.16236 0.0
O14 O 0.38711 0.20272 0.0922 0.0
O15 O 0.23499 0.26958 0.11044 0.0
C16 C 0.22702 0.18619 0.25958 0.0
C17 C 0.24045 0.07664 1.0137 0.0
C18 C 0.31844 -0.02002 0.22068 0.0
C19 C 0.09605 0.02145 0.15746 0.0
C20 C 0.42836 0.19553 0.12894 0.0
C21 C 0.18416 0.2801 0.13912 0.0
O22 O 0.28319 0.19713 0.23855 0.0
O23 O 0.5382 0.44248 0.49771 0.0
Zn24 Zn 0.53444 0.42769 0.42539 0.0
O25 O 0.55916 0.50961 0.39232 0.0
Zn26 Zn 0.65181 0.49338 0.37485 0.0
Zn27 Zn 0.54555 0.57311 0.44413 0.0
Zn28 Zn 0.49281 0.53481 0.34247 0.0
O29 O 0.64705 0.49527 0.29494 0.0
O30 O 0.53613 0.50106 0.27765 0.0
O31 O 0.58946 0.3482 0.41435 0.0
O32 O 0.68445 0.39773 0.3928 0.0
O33 O 0.71213 0.54566 0.42719 0.0
O34 O 0.63217 0.57995 0.48113 0.0
O35 O 0.50697 0.66045 0.41982 0.0
O36 O 0.44079 0.40486 0.41237 0.0
O37 O 0.47091 0.63709 0.3422 0.0
O38 O 0.40406 0.48496 0.36045 0.0
C39 C 0.48744 0.477 0.50958 0.0
C40 C 0.59699 0.49045 0.2637 0.0
C41 C 0.69365 0.56842 0.47069 0.0
C42 C 0.6522 0.34603 0.40744 0.0
C43 C 0.4781 0.67834 0.37894 0.0
C44 C 0.39354 0.43413 0.38913 0.0
O45 O 0.4765 0.53317 0.48855 0.0
O46 O 0.23113 0.7882 0.7477 0.0
Zn47 Zn 0.24591 0.78443 0.67539 0.0
O48 O 0.16399 0.80915 0.64232 0.0
Zn49 Zn 0.18024 0.9018 0.62486 0.0
Zn50 Zn 0.1005 0.79555 0.69412 0.0
Zn51 Zn 0.1388 0.7428 0.59246 0.0
O52 O 0.17837 0.89704 0.54494 0.0
O53 O 0.17255 0.78613 0.52765 0.0
O54 O 0.32541 0.83944 0.66434 0.0
O55 O 0.27587 0.93444 0.64282 0.0
O56 O 0.12795 -0.03787 0.67718 0.0
O57 O 0.09366 0.88217 0.73113 0.0
O58 O 0.01316 0.75697 0.66982 0.0
O59 O 0.26873 0.69078 0.66237 0.0
O60 O 0.03652 0.7209 0.5922 0.0
O61 O 0.18864 0.65405 0.61044 0.0
C62 C 0.1966 0.73744 0.75958 0.0
C63 C 0.18318 0.84699 0.5137 0.0
C64 C 0.10519 0.94365 0.72068 0.0
C65 C 0.32758 0.90218 0.65746 0.0
C66 C -0.00473 0.7281 0.62893 0.0
C67 C 0.23947 0.64353 0.63912 0.0
O68 O 0.14044 0.7265 0.73855 0.0
O69 O 0.88543 0.48115 0.99771 0.0
Zn70 Zn 0.88919 0.49594 0.92539 0.0
O71 O 0.86447 0.41402 0.89232 0.0
Zn72 Zn 0.77182 0.43025 0.87485 0.0
Zn73 Zn 0.87808 0.35052 0.94413 0.0
Zn74 Zn 0.93082 0.38882 0.84247 0.0
O75 O 0.77658 0.42836 0.79494 0.0
O76 O 0.8875 0.42257 0.77765 0.0
O77 O 0.83417 0.57543 0.91435 0.0
O78 O 0.73918 0.5259 0.8928 0.0
O79 O 0.7115 0.37797 0.92719 0.0
O80 O 0.79146 0.34368 0.98114 0.0
O81 O 0.91666 0.26318 0.91982 0.0
O82 O -0.01717 0.51877 0.91237 0.0
O83 O 0.95272 0.28654 0.8422 0.0
O84 O 0.01957 0.43867 0.86045 0.0
C85 C 0.93619 0.44663 1.00958 0.0
C86 C 0.82664 0.43318 0.7637 0.0
C87 C 0.72997 0.35521 0.97069 0.0
C88 C 0.77143 0.5776 0.90744 0.0
C89 C 0.94553 0.24529 0.87894 0.0
C90 C 0.03009 0.4895 0.88913 0.0
O91 O 0.94713 0.39046 0.98855 0.0
O92 O 0.73133 0.78816 0.80228 0.0
Zn93 Zn 0.74598 0.78439 0.87461 0.0
O94 O 0.66401 0.80913 0.9076 0.0
Zn95 Zn 0.68025 0.90179 0.92504 0.0
Zn96 Zn 0.60057 0.79551 0.85576 0.0
Zn97 Zn 0.63877 0.74281 0.95746 0.0
O98 O 0.67841 0.89704 1.00495 0.0
O99 O 0.67254 0.78614 1.02228 0.0
O100 O 0.82548 0.83936 0.88576 0.0
O101 O 0.77588 0.93441 0.90705 0.0
O102 O 0.62794 -0.03789 0.87273 0.0
O103 O 0.59373 0.88214 0.81876 0.0
O104 O 0.51322 0.75689 0.88003 0.0
O105 O 0.76874 0.69073 0.88764 0.0
O106 O 0.53648 0.72096 0.9577 0.0
O107 O 0.68858 0.65403 0.93951 0.0
C108 C 0.6968 0.73743 0.79036 0.0
C109 C 0.68319 0.847 0.03621 0.0
C110 C 0.60521 0.94363 0.82922 0.0
C111 C 0.82763 0.90213 0.89253 0.0
C112 C 0.49528 0.72808 0.92093 0.0
C113 C 0.73943 0.64349 0.91085 0.0
O114 O 0.6406 0.7265 0.81135 0.0
O115 O 0.38546 0.48136 0.55227 0.0
Zn116 Zn 0.38923 0.496 0.62461 0.0
O117 O 0.36448 0.41403 0.6576 0.0
Zn118 Zn 0.27183 0.43027 0.67504 0.0
Zn119 Zn 0.37811 0.35059 0.60576 0.0
Zn120 Zn 0.43081 0.3888 0.70746 0.0
O121 O 0.27657 0.4284 0.75495 0.0
O122 O 0.38748 0.42255 0.77227 0.0
O123 O 0.33425 0.5755 0.63575 0.0
O124 O 0.2392 0.52591 0.65706 0.0
O125 O 0.21152 0.37796 0.62272 0.0
O126 O 0.29148 0.34374 0.56876 0.0
O127 O 0.41674 0.26324 0.63003 0.0
O128 O 0.48288 0.51877 0.63763 0.0
O129 O 0.45267 0.2865 0.7077 0.0
O130 O 0.51958 0.43861 0.6895 0.0
C131 C 0.43619 0.44681 0.54036 0.0
C132 C 0.32662 0.4332 0.7862 0.0
C133 C 0.22999 0.35523 0.57922 0.0
C134 C 0.27149 0.57765 0.64254 0.0
C135 C 0.44555 0.2453 0.67093 0.0
C136 C 0.53013 0.48946 0.66085 0.0
O137 O 0.44712 0.39062 0.56134 0.0
O138 O 0.6923 0.13547 0.30228 0.0
Zn139 Zn 0.67765 0.13924 0.37461 0.0
O140 O 0.75962 0.1145 0.4076 0.0
Zn141 Zn 0.74338 0.02184 0.42504 0.0
Zn142 Zn 0.82306 0.12812 0.35576 0.0
Zn143 Zn 0.78486 0.18082 0.45746 0.0
O144 O 0.74522 0.02658 0.50495 0.0
O145 O 0.75109 0.13749 0.52228 0.0
O146 O 0.59815 0.08427 0.38575 0.0
O147 O 0.64775 -0.01078 0.40705 0.0
O148 O 0.79569 0.96152 0.37273 0.0
O149 O 0.82991 0.04149 0.31876 0.0
O150 O 0.91041 0.16674 0.38003 0.0
O151 O 0.65489 0.2329 0.38763 0.0
O152 O 0.88715 0.20268 0.4577 0.0
O153 O 0.73505 0.2696 0.43951 0.0
C154 C 0.72684 0.1862 0.29036 0.0
C155 C 0.74043 0.07663 0.53621 0.0
C156 C 0.81842 -0.02 0.32922 0.0
C157 C 0.596 0.0215 0.39253 0.0
C158 C 0.92835 0.19555 0.42093 0.0
C159 C 0.6842 0.28014 0.41085 0.0
O160 O 0.78304 0.19713 0.31135 0.0
O161 O 0.03817 0.44227 0.05227 0.0
Zn162 Zn 0.0344 0.42763 0.12461 0.0
O163 O 0.05915 0.5096 0.1576 0.0
Zn164 Zn 0.1518 0.49336 0.17504 0.0
Zn165 Zn 0.04552 0.57304 0.10576 0.0
Zn166 Zn -0.00718 0.53483 0.20745 0.0
O167 O 0.14706 0.49523 0.25495 0.0
O168 O 0.03615 0.50108 0.27227 0.0
O169 O 0.08938 0.34813 0.13575 0.0
O170 O 0.18443 0.39772 0.15706 0.0
O171 O 0.21211 0.54567 0.12272 0.0
O172 O 0.13215 0.57989 0.06876 0.0
O173 O 0.00689 0.66039 0.13003 0.0
O174 O 0.94075 0.40486 0.13763 0.0
O175 O -0.02904 0.63713 0.2077 0.0
O176 O 0.90405 0.48502 0.1895 0.0
C177 C -0.01256 0.47682 0.04036 0.0
C178 C 0.09701 0.49043 0.2862 0.0
C179 C 0.19364 0.5684 0.07922 0.0
C180 C 0.15214 0.34598 0.14254 0.0
C181 C -0.02192 0.67833 0.17093 0.0
C182 C 0.8935 0.43417 0.16085 0.0
O183 O -0.02349 0.53301 0.06134 0.0
O184 O 0.69246 0.63544 0.74769 0.0
Zn185 Zn 0.67768 0.63921 0.67537 0.0
O186 O 0.7596 0.6145 0.6423 0.0
Zn187 Zn 0.74336 0.52183 0.62485 0.0
Zn188 Zn 0.8231 0.62812 0.6941 0.0
Zn189 Zn 0.7848 0.68086 0.59244 0.0
O190 O 0.74527 0.52658 0.54494 0.0
O191 O 0.75109 0.63751 0.52762 0.0
O192 O 0.59818 0.5842 0.66432 0.0
O193 O 0.64772 0.4892 0.6428 0.0
O194 O 0.79564 0.46153 0.67719 0.0
O195 O 0.82996 0.54151 0.73111 0.0
O196 O 0.91043 0.66671 0.66982 0.0
O197 O 0.65486 0.73286 0.66236 0.0
O198 O 0.88708 0.70278 0.59219 0.0
O199 O 0.73493 0.76959 0.61042 0.0
C200 C 0.72699 0.68619 0.75957 0.0
C201 C 0.74054 0.57664 0.51368 0.0
C202 C 0.81843 0.48002 0.72068 0.0
C203 C 0.59601 0.52146 0.65743 0.0
C204 C 0.92832 0.69558 0.62893 0.0
C205 C 0.68411 0.78011 0.63911 0.0
O206 O 0.78314 0.69715 0.73854 0.0
O207 O 0.03818 0.94248 0.99768 0.0
Zn208 Zn 0.0344 0.92771 0.92536 0.0
O209 O 0.05912 0.00962 0.89229 0.0
Zn210 Zn 0.15178 -0.00662 0.87485 0.0
Zn211 Zn 0.0455 0.07311 0.9441 0.0
Zn212 Zn -0.00724 0.03482 0.84244 0.0
O213 O 0.14703 -0.00473 0.79493 0.0
O214 O 0.0361 0.00111 0.77761 0.0
O215 O 0.08941 0.84821 0.91431 0.0
O216 O 0.18441 0.89774 0.89281 0.0
O217 O 0.2121 0.04566 0.92719 0.0
O218 O 0.13211 0.07997 0.98111 0.0
O219 O 0.00691 0.16045 0.91982 0.0
O220 O 0.94075 0.90489 0.91235 0.0
O221 O -0.02915 0.1371 0.84219 0.0
O222 O 0.90402 -0.01504 0.86041 0.0
C223 C -0.01258 -0.023 1.00956 0.0
C224 C 0.09698 -0.00946 0.76368 0.0
C225 C 0.1936 0.06844 0.97068 0.0
C226 C 0.15215 0.84603 0.90744 0.0
C227 C -0.02196 0.17834 0.87893 0.0
C228 C 0.8935 0.93415 0.88911 0.0
O229 O -0.02353 0.03316 0.98853 0.0
O230 O 0.73118 0.28819 0.24769 0.0
Zn231 Zn 0.74595 0.28442 0.17537 0.0
O232 O 0.66403 0.30913 0.1423 0.0
Zn233 Zn 0.68027 0.4018 0.12485 0.0
Zn234 Zn 0.60054 0.29551 0.1941 0.0
Zn235 Zn 0.63883 0.24277 0.09244 0.0
O236 O 0.67836 0.39705 0.04494 0.0
O237 O 0.67254 0.28611 0.02762 0.0
O238 O 0.82545 0.33943 0.16432 0.0
O239 O 0.77591 0.43443 0.1428 0.0
O240 O 0.62799 0.4621 0.17719 0.0
O241 O 0.59367 0.38212 0.23111 0.0
O242 O 0.5132 0.25692 0.16982 0.0
O243 O 0.76877 0.19077 0.16236 0.0
O244 O 0.53655 0.22085 0.09219 0.0
O245 O 0.6887 0.15404 0.11042 0.0
C246 C 0.69664 0.23744 0.25957 0.0
C247 C 0.68309 0.34699 1.01368 0.0
C248 C 0.6052 0.44361 0.22068 0.0
C249 C 0.82762 0.40217 0.15743 0.0
C250 C 0.49531 0.22805 0.12893 0.0
C251 C 0.73952 0.14352 0.13911 0.0
O252 O 0.64049 0.22648 0.23854 0.0
O253 O 0.38545 -0.01885 0.49768 0.0
Zn254 Zn 0.38923 -0.00408 0.42536 0.0
O255 O 0.36451 0.914 0.39229 0.0
Zn256 Zn 0.27185 0.93025 0.37485 0.0
Zn257 Zn 0.37813 0.85052 0.4441 0.0
Zn258 Zn 0.43087 0.88881 0.34244 0.0
O259 O 0.2766 0.92836 0.29493 0.0
O260 O 0.38753 0.92252 0.27761 0.0
O261 O 0.33422 0.07542 0.41431 0.0
O262 O 0.23922 0.02589 0.39281 0.0
O263 O 0.21153 0.87797 0.42719 0.0
O264 O 0.29152 0.84366 0.48111 0.0
O265 O 0.41672 0.76318 0.41982 0.0
O266 O 0.48288 0.01874 0.41235 0.0
O267 O 0.45278 0.78653 0.34219 0.0
O268 O 0.5196 0.93867 0.36041 0.0
C269 C 0.43621 0.94663 0.50956 0.0
C270 C 0.32665 0.93309 0.26368 0.0
C271 C 0.23003 0.85519 0.47068 0.0
C272 C 0.27148 0.0776 0.40744 0.0
C273 C 0.44559 0.74529 0.37893 0.0
C274 C 0.53013 -0.01052 0.38911 0.0
O275 O 0.44716 0.89047 0.48853 0.0
O276 O 0.23137 0.28815 0.30229 0.0
Zn277 Zn 0.24601 0.28438 0.37463 0.0
O278 O 0.16404 0.30911 0.40762 0.0
Zn279 Zn 0.18028 0.40178 0.42505 0.0
Zn280 Zn 0.10061 0.29547 0.35578 0.0
Zn281 Zn 0.13881 0.24278 0.45748 0.0
O282 O 0.17839 0.39705 0.50496 0.0
O283 O 0.17252 0.28613 0.5223 0.0
O284 O 0.32552 0.33935 0.38578 0.0
O285 O 0.27592 0.4344 0.40707 0.0
O286 O 0.12799 0.46208 0.37271 0.0
O287 O 0.09374 0.38209 0.31878 0.0
O288 O 0.01326 0.25684 0.38003 0.0
O289 O 0.26878 0.19072 0.38764 0.0
O290 O 0.03652 0.2209 0.45771 0.0
O291 O 0.18864 0.15402 0.43953 0.0
C292 C 0.19683 0.23742 0.29037 0.0
C293 C 0.18311 0.34701 0.53622 0.0
C294 C 0.10522 0.44358 0.32922 0.0
C295 C 0.32766 0.40211 0.39256 0.0
C296 C -0.00468 0.22803 0.42093 0.0
C297 C 0.23948 0.14348 0.41086 0.0
O298 O 0.14065 0.22648 0.31137 0.0
O299 O 0.88548 -0.01865 0.0523 0.0
Zn300 Zn 0.88927 -0.00401 0.12464 0.0
O301 O 0.86452 0.91402 0.15763 0.0
Zn302 Zn 0.77186 0.93027 0.17505 0.0
Zn303 Zn 0.87816 0.85059 0.10578 0.0
Zn304 Zn 0.93085 0.88878 0.20749 0.0
O305 O 0.77659 0.9284 0.25496 0.0
O306 O 0.88751 0.92251 0.27231 0.0
O307 O 0.8343 0.0755 0.13579 0.0
O308 O 0.73924 0.0259 0.15705 0.0
O309 O 0.71155 0.87796 0.12272 0.0
O310 O 0.79154 0.84372 0.06878 0.0
O311 O 0.9168 0.76324 0.13003 0.0
O312 O -0.01708 0.01875 0.13765 0.0
O313 O 0.95273 0.78649 0.20771 0.0
O314 O 0.01962 0.93861 0.18954 0.0
C315 C 0.9362 0.94681 0.04037 0.0
C316 C 0.82663 0.93311 0.28622 0.0
C317 C 0.73005 0.85521 0.07923 0.0
C318 C 0.77153 0.07764 0.14254 0.0
C319 C 0.9456 0.7453 0.17093 0.0
C320 C 0.03017 -0.01055 0.16087 0.0
O321 O 0.94715 0.89063 0.06136 0.0
O322 O 0.19225 0.63548 0.80229 0.0
Zn323 Zn 0.17761 0.63925 0.87463 0.0
O324 O 0.25959 0.61452 0.90762 0.0
Zn325 Zn 0.24335 0.52185 0.92505 0.0
Zn326 Zn 0.32302 0.62816 0.85578 0.0
Zn327 Zn 0.28482 0.68085 0.95748 0.0
O328 O 0.24524 0.52658 1.00496 0.0
O329 O 0.25111 0.6375 1.0223 0.0
O330 O 0.09811 0.58428 0.88578 0.0
O331 O 0.14771 0.48923 0.90707 0.0
O332 O 0.29564 0.46155 0.87272 0.0
O333 O 0.32989 0.54154 0.81878 0.0
O334 O 0.41037 0.66679 0.88003 0.0
O335 O 0.15485 0.73291 0.88764 0.0
O336 O 0.38711 0.70273 0.95771 0.0
O337 O 0.23499 0.76961 0.93953 0.0
C338 C 0.22679 0.68621 0.79037 0.0
C339 C 0.24052 0.57662 0.03622 0.0
C340 C 0.31841 0.48005 0.82922 0.0
C341 C 0.09596 0.52152 0.89256 0.0
C342 C 0.42831 0.6956 0.92093 0.0
C343 C 0.18415 0.78015 0.91086 0.0
O344 O 0.28298 0.69715 0.81137 0.0
O345 O 0.53815 0.94227 0.5523 0.0
Zn346 Zn 0.53436 0.92764 0.62464 0.0
O347 O 0.55911 0.00961 0.65763 0.0
Zn348 Zn 0.65177 -0.00664 0.67505 0.0
Zn349 Zn 0.54547 0.07304 0.60578 0.0
Zn350 Zn 0.49277 0.03485 0.70749 0.0
O351 O 0.64704 -0.00477 0.75496 0.0
O352 O 0.53612 0.00112 0.77231 0.0
O353 O 0.58933 0.84813 0.63579 0.0
O354 O 0.68439 0.89773 0.65705 0.0
O355 O 0.71208 0.04567 0.62272 0.0
O356 O 0.63209 0.07991 0.56878 0.0
O357 O 0.50683 0.16039 0.63003 0.0
O358 O 0.4407 0.90488 0.63765 0.0
O359 O 0.4709 0.13714 0.70771 0.0
O360 O 0.40401 -0.01498 0.68954 0.0
C361 C 0.48743 -0.02318 0.54037 0.0
C362 C 0.597 -0.00948 0.78622 0.0
C363 C 0.69358 0.06842 0.57923 0.0
C364 C 0.65209 0.84599 0.64255 0.0
C365 C 0.47803 0.17833 0.67093 0.0
C366 C 0.39346 0.93418 0.66087 0.0
O367 O 0.47647 0.033 0.56136 0.0
loop_
_geom_bond_atom_site_label_1
_geom_bond_atom_site_label_2
_geom_bond_distance
_geom_bond_site_symmetry_2
_ccdc_geom_bond_type
O0 Zn1 1.953 . S
O0 C16 1.225 . S
Zn1 O0 1.953 . S
Zn1 O2 1.949 . S
Zn1 O8 1.919 . S
Zn1 O13 1.924 . S
O2 Zn1 1.949 . S
O2 Zn3 1.923 . S
O2 Zn4 1.950 . S
O2 Zn5 1.945 . S
Zn3 O2 1.923 . S
Zn3 O6 1.933 . S
Zn3 O9 1.941 . S
Zn3 O10 1.965 1_545 S
Zn4 O2 1.950 . S
Zn4 O11 1.938 . S
Zn4 O12 1.906 . S
Zn4 O22 1.953 . S
Zn5 O2 1.945 . S
Zn5 O7 1.932 . S
Zn5 O14 1.977 . S
Zn5 O15 1.910 . S
O6 Zn3 1.933 . S
O6 C17 1.226 . S
O7 Zn5 1.932 . S
O7 C17 1.307 . S
O8 Zn1 1.919 . S
O8 C19 1.253 . S
O9 Zn3 1.941 . S
O9 C19 1.283 . S
O10 Zn3 1.965 1_565 S
O10 C18 1.303 1_565 S
O11 Zn4 1.938 . S
O11 C18 1.247 . S
O12 Zn4 1.906 . S
O12 C20 1.304 . S
O13 Zn1 1.924 . S
O13 C21 1.311 . S
O14 Zn5 1.977 . S
O14 C20 1.272 . S
O15 Zn5 1.910 . S
O15 C21 1.231 . S
C16 O0 1.225 . S
C16 O22 1.298 . S
C17 O6 1.226 . S
C17 O7 1.307 . S
C18 O10 1.303 1_545 S
C18 O11 1.247 . S
C19 O8 1.253 . S
C19 O9 1.283 . S
C20 O12 1.304 . S
C20 O14 1.272 . S
C21 O13 1.311 . S
C21 O15 1.231 . S
O22 Zn4 1.953 . S
O22 C16 1.298 . S
O23 Zn24 1.953 . S
O23 C39 1.225 . S
Zn24 O23 1.953 . S
Zn24 O25 1.949 . S
Zn24 O31 1.919 . S
Zn24 O36 1.924 . S
O25 Zn24 1.949 . S
O25 Zn26 1.923 . S
O25 Zn27 1.950 . S
O25 Zn28 1.945 . S
Zn26 O25 1.923 . S
Zn26 O29 1.933 . S
Zn26 O32 1.941 . S
Zn26 O33 1.965 . S
Zn27 O25 1.950 . S
Zn27 O34 1.938 . S
Zn27 O35 1.906 . S
Zn27 O45 1.953 . S
Zn28 O25 1.945 . S
Zn28 O30 1.932 . S
Zn28 O37 1.977 . S
Zn28 O38 1.910 . S
O29 Zn26 1.933 . S
O29 C40 1.226 . S
O30 Zn28 1.932 . S
O30 C40 1.307 . S
O31 Zn24 1.919 . S
O31 C42 1.253 . S
O32 Zn26 1.941 . S
O32 C42 1.283 . S
O33 Zn26 1.965 . S
O33 C41 1.303 . S
O34 Zn27 1.938 . S
O34 C41 1.247 . S
O35 Zn27 1.906 . S
O35 C43 1.304 . S
O36 Zn24 1.924 . S
O36 C44 1.311 . S
O37 Zn28 1.977 . S
O37 C43 1.272 . S
O38 Zn28 1.910 . S
O38 C44 1.231 . S
C39 O23 1.225 . S
C39 O45 1.298 . S
C40 O29 1.226 . S
C40 O30 1.307 . S
C41 O33 1.303 . S
C41 O34 1.247 . S
C42 O31 1.253 . S
C42 O32 1.283 . S
C43 O35 1.304 . S
C43 O37 1.272 . S
C44 O36 1.311 . S
C44 O38 1.231 . S
O45 Zn27 1.953 . S
O45 C39 1.298 . S
O46 Zn47 1.953 . S
O46 C62 1.225 . S
Zn47 O46 1.953 . S
Zn47 O48 1.949 . S
Zn47 O54 1.919 . S
Zn47 O59 1.924 . S
O48 Zn47 1.949 . S
O48 Zn49 1.923 . S
O48 Zn50 1.950 . S
O48 Zn51 1.945 . S
Zn49 O48 1.923 . S
Zn49 O52 1.933 . S
Zn49 O55 1.941 . S
Zn49 O56 1.965 1_565 S
Zn50 O48 1.950 . S
Zn50 O57 1.938 . S
Zn50 O58 1.906 . S
Zn50 O68 1.953 . S
Zn51 O48 1.945 . S
Zn51 O53 1.932 . S
Zn51 O60 1.977 . S
Zn51 O61 1.910 . S
O52 Zn49 1.933 . S
O52 C63 1.226 . S
O53 Zn51 1.932 . S
O53 C63 1.307 . S
O54 Zn47 1.919 . S
O54 C65 1.253 . S
O55 Zn49 1.941 . S
O55 C65 1.283 . S
O56 Zn49 1.965 1_545 S
O56 C64 1.303 1_545 S
O57 Zn50 1.938 . S
O57 C64 1.247 . S
O58 Zn50 1.906 . S
O58 C66 1.304 . S
O59 Zn47 1.924 . S
O59 C67 1.311 . S
O60 Zn51 1.977 . S
O60 C66 1.272 . S
O61 Zn51 1.910 . S
O61 C67 1.231 . S
C62 O46 1.225 . S
C62 O68 1.298 . S
C63 O52 1.226 . S
C63 O53 1.307 . S
C64 O56 1.303 1_565 S
C64 O57 1.247 . S
C65 O54 1.253 . S
C65 O55 1.283 . S
C66 O58 1.304 . S
C66 O60 1.272 . S
C67 O59 1.311 . S
C67 O61 1.231 . S
O68 Zn50 1.953 . S
O68 C62 1.298 . S
O69 Zn70 1.953 . S
O69 C85 1.225 . S
Zn70 O69 1.953 . S
Zn70 O71 1.949 . S
Zn70 O77 1.919 . S
Zn70 O82 1.924 1_655 S
O71 Zn70 1.949 . S
O71 Zn72 1.923 . S
O71 Zn73 1.950 . S
O71 Zn74 1.945 . S
Zn72 O71 1.923 . S
Zn72 O75 1.933 . S
Zn72 O78 1.941 . S
Zn72 O79 1.965 . S
Zn73 O71 1.950 . S
Zn73 O80 1.938 . S
Zn73 O81 1.906 . S
Zn73 O91 1.953 . S
Zn74 O71 1.945 . S
Zn74 O76 1.932 . S
Zn74 O83 1.977 . S
Zn74 O84 1.910 1_655 S
O75 Zn72 1.933 . S
O75 C86 1.226 . S
O76 Zn74 1.932 . S
O76 C86 1.307 . S
O77 Zn70 1.919 . S
O77 C88 1.253 . S
O78 Zn72 1.941 . S
O78 C88 1.283 . S
O79 Zn72 1.965 . S
O79 C87 1.303 . S
O80 Zn73 1.938 . S
O80 C87 1.247 . S
O81 Zn73 1.906 . S
O81 C89 1.304 . S
O82 Zn70 1.924 1_455 S
O82 C90 1.311 . S
O83 Zn74 1.977 . S
O83 C89 1.272 . S
O84 Zn74 1.910 1_455 S
O84 C90 1.231 . S
C85 O69 1.225 . S
C85 O91 1.298 . S
C86 O75 1.226 . S
C86 O76 1.307 . S
C87 O79 1.303 . S
C87 O80 1.247 . S
C88 O77 1.253 . S
C88 O78 1.283 . S
C89 O81 1.304 . S
C89 O83 1.272 . S
C90 O82 1.311 . S
C90 O84 1.231 . S
O91 Zn73 1.953 . S
O91 C85 1.298 . S
O92 Zn93 1.953 . S
O92 C108 1.225 . S
Zn93 O92 1.953 . S
Zn93 O94 1.949 . S
Zn93 O100 1.919 . S
Zn93 O105 1.924 . S
O94 Zn93 1.949 . S
O94 Zn95 1.923 . S
O94 Zn96 1.950 . S
O94 Zn97 1.945 . S
Zn95 O94 1.923 . S
Zn95 O98 1.933 . S
Zn95 O101 1.941 . S
Zn95 O102 1.965 1_565 S
Zn96 O94 1.950 . S
Zn96 O103 1.938 . S
Zn96 O104 1.906 . S
Zn96 O114 1.953 . S
Zn97 O94 1.945 . S
Zn97 O99 1.932 . S
Zn97 O106 1.977 . S
Zn97 O107 1.910 . S
O98 Zn95 1.933 . S
O98 C109 1.226 . S
O99 Zn97 1.932 . S
O99 C109 1.307 . S
O100 Zn93 1.919 . S
O100 C111 1.253 . S
O101 Zn95 1.941 . S
O101 C111 1.283 . S
O102 Zn95 1.965 1_545 S
O102 C110 1.303 1_545 S
O103 Zn96 1.938 . S
O103 C110 1.247 . S
O104 Zn96 1.906 . S
O104 C112 1.304 . S
O105 Zn93 1.924 . S
O105 C113 1.311 . S
O106 Zn97 1.977 . S
O106 C112 1.272 . S
O107 Zn97 1.910 . S
O107 C113 1.231 . S
C108 O92 1.225 . S
C108 O114 1.298 . S
C109 O98 1.226 . S
C109 O99 1.307 . S
C110 O102 1.303 1_565 S
C110 O103 1.247 . S
C111 O100 1.253 . S
C111 O101 1.283 . S
C112 O104 1.304 . S
C112 O106 1.272 . S
C113 O105 1.311 . S
C113 O107 1.231 . S
O114 Zn96 1.953 . S
O114 C108 1.298 . S
O115 Zn116 1.953 . S
O115 C131 1.225 . S
Zn116 O115 1.953 . S
Zn116 O117 1.949 . S
Zn116 O123 1.919 . S
Zn116 O128 1.924 . S
O117 Zn116 1.949 . S
O117 Zn118 1.923 . S
O117 Zn119 1.950 . S
O117 Zn120 1.945 . S
Zn118 O117 1.923 . S
Zn118 O121 1.933 . S
Zn118 O124 1.941 . S
Zn118 O125 1.965 . S
Zn119 O117 1.950 . S
Zn119 O126 1.938 . S
Zn119 O127 1.906 . S
Zn119 O137 1.953 . S
Zn120 O117 1.945 . S
Zn120 O122 1.932 . S
Zn120 O129 1.977 . S
Zn120 O130 1.910 . S
O121 Zn118 1.933 . S
O121 C132 1.226 . S
O122 Zn120 1.932 . S
O122 C132 1.307 . S
O123 Zn116 1.919 . S
O123 C134 1.253 . S
O124 Zn118 1.941 . S
O124 C134 1.283 . S
O125 Zn118 1.965 . S
O125 C133 1.303 . S
O126 Zn119 1.938 . S
O126 C133 1.247 . S
O127 Zn119 1.906 . S
O127 C135 1.304 . S
O128 Zn116 1.924 . S
O128 C136 1.311 . S
O129 Zn120 1.977 . S
O129 C135 1.272 . S
O130 Zn120 1.910 . S
O130 C136 1.231 . S
C131 O115 1.225 . S
C131 O137 1.298 . S
C132 O121 1.226 . S
C132 O122 1.307 . S
C133 O125 1.303 . S
C133 O126 1.247 . S
C134 O123 1.253 . S
C134 O124 1.283 . S
C135 O127 1.304 . S
C135 O129 1.272 . S
C136 O128 1.311 . S
C136 O130 1.231 . S
O137 Zn119 1.953 . S
O137 C131 1.298 . S
O138 Zn139 1.953 . S
O138 C154 1.225 . S
Zn139 O138 1.953 . S
Zn139 O140 1.949 . S
Zn139 O146 1.919 . S
Zn139 O151 1.924 . S
O140 Zn139 1.949 . S
O140 Zn141 1.923 . S
O140 Zn142 1.950 . S
O140 Zn143 1.945 . S
Zn141 O140 1.923 . S
Zn141 O144 1.933 . S
Zn141 O147 1.941 . S
Zn141 O148 1.965 1_545 S
Zn142 O140 1.950 . S
Zn142 O149 1.938 . S
Zn142 O150 1.906 . S
Zn142 O160 1.953 . S
Zn143 O140 1.945 . S
Zn143 O145 1.932 . S
Zn143 O152 1.977 . S
Zn143 O153 1.910 . S
O144 Zn141 1.933 . S
O144 C155 1.226 . S
O145 Zn143 1.932 . S
O145 C155 1.307 . S
O146 Zn139 1.919 . S
O146 C157 1.253 . S
O147 Zn141 1.941 . S
O147 C157 1.283 . S
O148 Zn141 1.965 1_565 S
O148 C156 1.303 1_565 S
O149 Zn142 1.938 . S
O149 C156 1.247 . S
O150 Zn142 1.906 . S
O150 C158 1.304 . S
O151 Zn139 1.924 . S
O151 C159 1.311 . S
O152 Zn143 1.977 . S
O152 C158 1.272 . S
O153 Zn143 1.910 . S
O153 C159 1.231 . S
C154 O138 1.225 . S
C154 O160 1.298 . S
C155 O144 1.226 . S
C155 O145 1.307 . S
C156 O148 1.303 1_545 S
C156 O149 1.247 . S
C157 O146 1.253 . S
C157 O147 1.283 . S
C158 O150 1.304 . S
C158 O152 1.272 . S
C159 O151 1.311 . S
C159 O153 1.231 . S
O160 Zn142 1.953 . S
O160 C154 1.298 . S
O161 Zn162 1.953 . S
O161 C177 1.225 . S
Zn162 O161 1.953 . S
Zn162 O163 1.949 . S
Zn162 O169 1.919 . S
Zn162 O174 1.924 1_455 S
O163 Zn162 1.949 . S
O163 Zn164 1.923 . S
O163 Zn165 1.950 . S
O163 Zn166 1.945 . S
Zn164 O163 1.923 . S
Zn164 O167 1.933 . S
Zn164 O170 1.941 . S
Zn164 O171 1.965 . S
Zn165 O163 1.950 . S
Zn165 O172 1.938 . S
Zn165 O173 1.906 . S
Zn165 O183 1.953 . S
Zn166 O163 1.945 . S
Zn166 O168 1.932 . S
Zn166 O175 1.977 . S
Zn166 O176 1.910 1_455 S
O167 Zn164 1.933 . S
O167 C178 1.226 . S
O168 Zn166 1.932 . S
O168 C178 1.307 . S
O169 Zn162 1.919 . S
O169 C180 1.253 . S
O170 Zn164 1.941 . S
O170 C180 1.283 . S
O171 Zn164 1.965 . S
O171 C179 1.303 . S
O172 Zn165 1.938 . S
O172 C179 1.247 . S
O173 Zn165 1.906 . S
O173 C181 1.304 . S
O174 Zn162 1.924 1_655 S
O174 C182 1.311 . S
O175 Zn166 1.977 . S
O175 C181 1.272 . S
O176 Zn166 1.910 1_655 S
O176 C182 1.231 . S
C177 O161 1.225 . S
C177 O183 1.298 . S
C178 O167 1.226 . S
C178 O168 1.307 . S
C179 O171 1.303 . S
C179 O172 1.247 . S
C180 O169 1.253 . S
C180 O170 1.283 . S
C181 O173 1.304 . S
C181 O175 1.272 . S
C182 O174 1.311 . S
C182 O176 1.231 . S
O183 Zn165 1.953 . S
O183 C177 1.298 . S
O184 Zn185 1.953 . S
O184 C200 1.225 . S
Zn185 O184 1.953 . S
Zn185 O186 1.949 . S
Zn185 O192 1.919 . S
Zn185 O197 1.924 . S
O186 Zn185 1.949 . S
O186 Zn187 1.923 . S
O186 Zn188 1.950 . S
O186 Zn189 1.945 . S
Zn187 O186 1.923 . S
Zn187 O190 1.933 . S
Zn187 O193 1.941 . S
Zn187 O194 1.965 . S
Zn188 O186 1.950 . S
Zn188 O195 1.938 . S
Zn188 O196 1.906 . S
Zn188 O206 1.953 . S
Zn189 O186 1.945 . S
Zn189 O191 1.932 . S
Zn189 O198 1.977 . S
Zn189 O199 1.910 . S
O190 Zn187 1.933 . S
O190 C201 1.226 . S
O191 Zn189 1.932 . S
O191 C201 1.307 . S
O192 Zn185 1.919 . S
O192 C203 1.253 . S
O193 Zn187 1.941 . S
O193 C203 1.283 . S
O194 Zn187 1.965 . S
O194 C202 1.303 . S
O195 Zn188 1.938 . S
O195 C202 1.247 . S
O196 Zn188 1.906 . S
O196 C204 1.304 . S
O197 Zn185 1.924 . S
O197 C205 1.311 . S
O198 Zn189 1.977 . S
O198 C204 1.272 . S
O199 Zn189 1.910 . S
O199 C205 1.231 . S
C200 O184 1.225 . S
C200 O206 1.298 . S
C201 O190 1.226 . S
C201 O191 1.307 . S
C202 O194 1.303 . S
C202 O195 1.247 . S
C203 O192 1.253 . S
C203 O193 1.283 . S
C204 O196 1.304 . S
C204 O198 1.272 . S
C205 O197 1.311 . S
C205 O199 1.231 . S
O206 Zn188 1.953 . S
O206 C200 1.298 . S
O207 Zn208 1.953 . S
O207 C223 1.225 1_565 S
Zn208 O207 1.953 . S
Zn208 O209 1.949 1_565 S
Zn208 O215 1.919 . S
Zn208 O220 1.924 1_455 S
O209 Zn208 1.949 1_545 S
O209 Zn210 1.923 . S
O209 Zn211 1.950 . S
O209 Zn212 1.945 . S
Zn210 O209 1.923 . S
Zn210 O213 1.933 . S
Zn210 O216 1.941 1_545 S
Zn210 O217 1.965 . S
Zn211 O209 1.950 . S
Zn211 O218 1.938 . S
Zn211 O219 1.906 . S
Zn211 O229 1.953 . S
Zn212 O209 1.945 . S
Zn212 O214 1.932 . S
Zn212 O221 1.977 . S
Zn212 O222 1.910 1_455 S
O213 Zn210 1.933 . S
O213 C224 1.226 . S
O214 Zn212 1.932 . S
O214 C224 1.307 . S
O215 Zn208 1.919 . S
O215 C226 1.253 . S
O216 Zn210 1.941 1_565 S
O216 C226 1.283 . S
O217 Zn210 1.965 . S
O217 C225 1.303 . S
O218 Zn211 1.938 . S
O218 C225 1.247 . S
O219 Zn211 1.906 . S
O219 C227 1.304 . S
O220 Zn208 1.924 1_655 S
O220 C228 1.311 . S
O221 Zn212 1.977 . S
O221 C227 1.272 . S
O222 Zn212 1.910 1_655 S
O222 C228 1.231 1_545 S
C223 O207 1.225 1_545 S
C223 O229 1.298 . S
C224 O213 1.226 . S
C224 O214 1.307 . S
C225 O217 1.303 . S
C225 O218 1.247 . S
C226 O215 1.253 . S
C226 O216 1.283 . S
C227 O219 1.304 . S
C227 O221 1.272 . S
C228 O220 1.311 . S
C228 O222 1.231 1_565 S
O229 Zn211 1.953 . S
O229 C223 1.298 . S
O230 Zn231 1.953 . S
O230 C246 1.225 . S
Zn231 O230 1.953 . S
Zn231 O232 1.949 . S
Zn231 O238 1.919 . S
Zn231 O243 1.924 . S
O232 Zn231 1.949 . S
O232 Zn233 1.923 . S
O232 Zn234 1.950 . S
O232 Zn235 1.945 . S
Zn233 O232 1.923 . S
Zn233 O236 1.933 . S
Zn233 O239 1.941 . S
Zn233 O240 1.965 . S
Zn234 O232 1.950 . S
Zn234 O241 1.938 . S
Zn234 O242 1.906 . S
Zn234 O252 1.953 . S
Zn235 O232 1.945 . S
Zn235 O237 1.932 . S
Zn235 O244 1.977 . S
Zn235 O245 1.910 . S
O236 Zn233 1.933 . S
O236 C247 1.226 . S
O237 Zn235 1.932 . S
O237 C247 1.307 . S
O238 Zn231 1.919 . S
O238 C249 1.253 . S
O239 Zn233 1.941 . S
O239 C249 1.283 . S
O240 Zn233 1.965 . S
O240 C248 1.303 . S
O241 Zn234 1.938 . S
O241 C248 1.247 . S
O242 Zn234 1.906 . S
O242 C250 1.304 . S
O243 Zn231 1.924 . S
O243 C251 1.311 . S
O244 Zn235 1.977 . S
O244 C250 1.272 . S
O245 Zn235 1.910 . S
O245 C251 1.231 . S
C246 O230 1.225 . S
C246 O252 1.298 . S
C247 O236 1.226 . S
C247 O237 1.307 . S
C248 O240 1.303 . S
C248 O241 1.247 . S
C249 O238 1.253 . S
C249 O239 1.283 . S
C250 O242 1.304 . S
C250 O244 1.272 . S
C251 O243 1.311 . S
C251 O245 1.231 . S
O252 Zn234 1.953 . S
O252 C246 1.298 . S
O253 Zn254 1.953 . S
O253 C269 1.225 1_545 S
Zn254 O253 1.953 . S
Zn254 O255 1.949 1_545 S
Zn254 O261 1.919 . S
Zn254 O266 1.924 . S
O255 Zn254 1.949 1_565 S
O255 Zn256 1.923 . S
O255 Zn257 1.950 . S
O255 Zn258 1.945 . S
Zn256 O255 1.923 . S
Zn256 O259 1.933 . S
Zn256 O262 1.941 1_565 S
Zn256 O263 1.965 . S
Zn257 O255 1.950 . S
Zn257 O264 1.938 . S
Zn257 O265 1.906 . S
Zn257 O275 1.953 . S
Zn258 O255 1.945 . S
Zn258 O260 1.932 . S
Zn258 O267 1.977 . S
Zn258 O268 1.910 . S
O259 Zn256 1.933 . S
O259 C270 1.226 . S
O260 Zn258 1.932 . S
O260 C270 1.307 . S
O261 Zn254 1.919 . S
O261 C272 1.253 . S
O262 Zn256 1.941 1_545 S
O262 C272 1.283 . S
O263 Zn256 1.965 . S
O263 C271 1.303 . S
O264 Zn257 1.938 . S
O264 C271 1.247 . S
O265 Zn257 1.906 . S
O265 C273 1.304 . S
O266 Zn254 1.924 . S
O266 C274 1.311 . S
O267 Zn258 1.977 . S
O267 C273 1.272 . S
O268 Zn258 1.910 . S
O268 C274 1.231 1_565 S
C269 O253 1.225 1_565 S
C269 O275 1.298 . S
C270 O259 1.226 . S
C270 O260 1.307 . S
C271 O263 1.303 . S
C271 O264 1.247 . S
C272 O261 1.253 . S
C272 O262 1.283 . S
C273 O265 1.304 . S
C273 O267 1.272 . S
C274 O266 1.311 . S
C274 O268 1.231 1_545 S
O275 Zn257 1.953 . S
O275 C269 1.298 . S
O276 Zn277 1.953 . S
O276 C292 1.225 . S
Zn277 O276 1.953 . S
Zn277 O278 1.949 . S
Zn277 O284 1.919 . S
Zn277 O289 1.924 . S
O278 Zn277 1.949 . S
O278 Zn279 1.923 . S
O278 Zn280 1.950 . S
O278 Zn281 1.945 . S
Zn279 O278 1.923 . S
Zn279 O282 1.933 . S
Zn279 O285 1.941 . S
Zn279 O286 1.965 . S
Zn280 O278 1.950 . S
Zn280 O287 1.938 . S
Zn280 O288 1.906 . S
Zn280 O298 1.953 . S
Zn281 O278 1.945 . S
Zn281 O283 1.932 . S
Zn281 O290 1.977 . S
Zn281 O291 1.910 . S
O282 Zn279 1.933 . S
O282 C293 1.226 . S
O283 Zn281 1.932 . S
O283 C293 1.307 . S
O284 Zn277 1.919 . S
O284 C295 1.253 . S
O285 Zn279 1.941 . S
O285 C295 1.283 . S
O286 Zn279 1.965 . S
O286 C294 1.303 . S
O287 Zn280 1.938 . S
O287 C294 1.247 . S
O288 Zn280 1.906 . S
O288 C296 1.304 . S
O289 Zn277 1.924 . S
O289 C297 1.311 . S
O290 Zn281 1.977 . S
O290 C296 1.272 . S
O291 Zn281 1.910 . S
O291 C297 1.231 . S
C292 O276 1.225 . S
C292 O298 1.298 . S
C293 O282 1.226 . S
C293 O283 1.307 . S
C294 O286 1.303 . S
C294 O287 1.247 . S
C295 O284 1.253 . S
C295 O285 1.283 . S
C296 O288 1.304 . S
C296 O290 1.272 . S
C297 O289 1.311 . S
C297 O291 1.231 . S
O298 Zn280 1.953 . S
O298 C292 1.298 . S
O299 Zn300 1.953 . S
O299 C315 1.225 1_545 S
Zn300 O299 1.953 . S
Zn300 O301 1.949 1_545 S
Zn300 O307 1.919 . S
Zn300 O312 1.924 1_655 S
O301 Zn300 1.949 1_565 S
O301 Zn302 1.923 . S
O301 Zn303 1.950 . S
O301 Zn304 1.945 . S
Zn302 O301 1.923 . S
Zn302 O305 1.933 . S
Zn302 O308 1.941 1_565 S
Zn302 O309 1.965 . S
Zn303 O301 1.950 . S
Zn303 O310 1.938 . S
Zn303 O311 1.906 . S
Zn303 O321 1.953 . S
Zn304 O301 1.945 . S
Zn304 O306 1.932 . S
Zn304 O313 1.977 . S
Zn304 O314 1.910 1_655 S
O305 Zn302 1.933 . S
O305 C316 1.226 . S
O306 Zn304 1.932 . S
O306 C316 1.307 . S
O307 Zn300 1.919 . S
O307 C318 1.253 . S
O308 Zn302 1.941 1_545 S
O308 C318 1.283 . S
O309 Zn302 1.965 . S
O309 C317 1.303 . S
O310 Zn303 1.938 . S
O310 C317 1.247 . S
O311 Zn303 1.906 . S
O311 C319 1.304 . S
O312 Zn300 1.924 1_455 S
O312 C320 1.311 . S
O313 Zn304 1.977 . S
O313 C319 1.272 . S
O314 Zn304 1.910 1_455 S
O314 C320 1.231 1_565 S
C315 O299 1.225 1_565 S
C315 O321 1.298 . S
C316 O305 1.226 . S
C316 O306 1.307 . S
C317 O309 1.303 . S
C317 O310 1.247 . S
C318 O307 1.253 . S
C318 O308 1.283 . S
C319 O311 1.304 . S
C319 O313 1.272 . S
C320 O312 1.311 . S
C320 O314 1.231 1_545 S
O321 Zn303 1.953 . S
O321 C315 1.298 . S
O322 Zn323 1.953 . S
O322 C338 1.225 . S
Zn323 O322 1.953 . S
Zn323 O324 1.949 . S
Zn323 O330 1.919 . S
Zn323 O335 1.924 . S
O324 Zn323 1.949 . S
O324 Zn325 1.923 . S
O324 Zn326 1.950 . S
O324 Zn327 1.945 . S
Zn325 O324 1.923 . S
Zn325 O328 1.933 . S
Zn325 O331 1.941 . S
Zn325 O332 1.965 . S
Zn326 O324 1.950 . S
Zn326 O333 1.938 . S
Zn326 O334 1.906 . S
Zn326 O344 1.953 . S
Zn327 O324 1.945 . S
Zn327 O329 1.932 . S
Zn327 O336 1.977 . S
Zn327 O337 1.910 . S
O328 Zn325 1.933 . S
O328 C339 1.226 . S
O329 Zn327 1.932 . S
O329 C339 1.307 . S
O330 Zn323 1.919 . S
O330 C341 1.253 . S
O331 Zn325 1.941 . S
O331 C341 1.283 . S
O332 Zn325 1.965 . S
O332 C340 1.303 . S
O333 Zn326 1.938 . S
O333 C340 1.247 . S
O334 Zn326 1.906 . S
O334 C342 1.304 . S
O335 Zn323 1.924 . S
O335 C343 1.311 . S
O336 Zn327 1.977 . S
O336 C342 1.272 . S
O337 Zn327 1.910 . S
O337 C343 1.231 . S
C338 O322 1.225 . S
C338 O344 1.298 . S
C339 O328 1.226 . S
C339 O329 1.307 . S
C340 O332 1.303 . S
C340 O333 1.247 . S
C341 O330 1.253 . S
C341 O331 1.283 . S
C342 O334 1.304 . S
C342 O336 1.272 . S
C343 O335 1.311 . S
C343 O337 1.231 . S
O344 Zn326 1.953 . S
O344 C338 1.298 . S
O345 Zn346 1.953 . S
O345 C361 1.225 1_565 S
Zn346 O345 1.953 . S
Zn346 O347 1.949 1_565 S
Zn346 O353 1.919 . S
Zn346 O358 1.924 . S
O347 Zn346 1.949 1_545 S
O347 Zn348 1.923 . S
O347 Zn349 1.950 . S
O347 Zn350 1.945 . S
Zn348 O347 1.923 . S
Zn348 O351 1.933 . S
Zn348 O354 1.941 1_545 S
Zn348 O355 1.965 . S
Zn349 O347 1.950 . S
Zn349 O356 1.938 . S
Zn349 O357 1.906 . S
Zn349 O367 1.953 . S
Zn350 O347 1.945 . S
Zn350 O352 1.932 . S
Zn350 O359 1.977 . S
Zn350 O360 1.910 . S
O351 Zn348 1.933 . S
O351 C362 1.226 . S
O352 Zn350 1.932 . S
O352 C362 1.307 . S
O353 Zn346 1.919 . S
O353 C364 1.253 . S
O354 Zn348 1.941 1_565 S
O354 C364 1.283 . S
O355 Zn348 1.965 . S
O355 C363 1.303 . S
O356 Zn349 1.938 . S
O356 C363 1.247 . S
O357 Zn349 1.906 . S
O357 C365 1.304 . S
O358 Zn346 1.924 . S
O358 C366 1.311 . S
O359 Zn350 1.977 . S
O359 C365 1.272 . S
O360 Zn350 1.910 . S
O360 C366 1.231 1_545 S
C361 O345 1.225 1_545 S
C361 O367 1.298 . S
C362 O351 1.226 . S
C362 O352 1.307 . S
C363 O355 1.303 . S
C363 O356 1.247 . S
C364 O353 1.253 . S
C364 O354 1.283 . S
C365 O357 1.304 . S
C365 O359 1.272 . S
C366 O358 1.311 . S
C366 O360 1.231 1_565 S
O367 Zn349 1.953 . S
O367 C361 1.298 . S
C16 C292 1.389 . S
C131 C39 1.389 . S
C62 C338 1.389 . S
C85 C177 1.389 1_656 S
C108 C200 1.389 . S
C246 C154 1.389 . S
C315 C223 1.389 1_664 S
C269 C361 1.389 1_565 S
C225 C17 2.463 1_556 S
C40 C248 2.463 . S
C63 C271 2.463 . S
C202 C86 2.463 . S
C317 C109 2.463 1_554 S
C340 C132 2.463 . S
C155 C363 2.463 . S
C294 C178 2.463 . S
C201 C41 2.463 . S
C224 C64 2.463 1_545 S
C247 C87 2.463 1_554 S
C18 C270 2.463 1_545 S
C133 C293 2.463 . S
C316 C156 2.463 1_565 S
C179 C339 2.463 1_554 S
C362 C110 2.463 1_545 S
C20 C250 1.436 . S
C43 C273 1.436 . S
C204 C66 1.436 1_655 S
C89 C227 1.436 1_655 S
C112 C342 1.436 . S
C135 C365 1.436 . S
C296 C158 1.436 1_455 S
C181 C319 1.436 1_455 S
C21 C180 1.517 . S
C295 C44 1.517 . S
C67 C134 1.517 . S
C90 C341 1.517 . S
C113 C88 1.517 . S
C203 C136 1.517 . S
C159 C42 1.517 . S
C249 C182 1.517 . S
C205 C364 1.517 . S
C111 C228 1.517 . S
C318 C251 1.517 . S
C274 C157 1.517 . S
C297 C272 1.517 . S
C320 C19 1.517 . S
C226 C343 1.517 . S
C65 C366 1.517 . S
