# Generated by pormake.
# Topology zfj, (5)-cn, num edge types: 1
# Building blocks:
#     Node 0, Type 0, BuildingBlock: XOMCOT_clean_sbu_0, # of connection points: 5
#     Node 1, Type 0, BuildingBlock: XOMCOT_clean_sbu_0, # of connection points: 5
#     Node 2, Type 0, BuildingBlock: XOMCOT_clean_sbu_0, # of connection points: 5
#     Node 3, Type 0, BuildingBlock: XOMCOT_clean_sbu_0, # of connection points: 5
#     Node 4, Type 0, BuildingBlock: XOMCOT_clean_sbu_0, # of connection points: 5
#     Node 5, Type 0, BuildingBlock: XOMCOT_clean_sbu_0, # of connection points: 5
#     Node 6, Type 0, BuildingBlock: XOMCOT_clean_sbu_0, # of connection points: 5
#     Node 7, Type 0, BuildingBlock: XOMCOT_clean_sbu_0, # of connection points: 5
#     Node 8, Type 0, BuildingBlock: XOMCOT_clean_sbu_0, # of connection points: 5
#     Node 9, Type 0, BuildingBlock: XOMCOT_clean_sbu_0, # of connection points: 5
#     Node 10, Type 0, BuildingBlock: XOMCOT_clean_sbu_0, # of connection points: 5
#     Node 11, Type 0, BuildingBlock: XOMCOT_clean_sbu_0, # of connection points: 5
#     Node 12, Type 0, BuildingBlock: XOMCOT_clean_sbu_0, # of connection points: 5
#     Node 13, Type 0, BuildingBlock: XOMCOT_clean_sbu_0, # of connection points: 5
#     Node 14, Type 0, BuildingBlock: XOMCOT_clean_sbu_0, # of connection points: 5
#     Node 15, Type 0, BuildingBlock: XOMCOT_clean_sbu_0, # of connection points: 5
#     Edge 16, Type (0, 0), BuildingBlock: UVAHIK_clean_linker_0, # of connection points: 2
#     Edge 17, Type (0, 0), BuildingBlock: UVAHIK_clean_linker_0, # of connection points: 2
#     Edge 18, Type (0, 0), BuildingBlock: UVAHIK_clean_linker_0, # of connection points: 2
#     Edge 19, Type (0, 0), BuildingBlock: UVAHIK_clean_linker_0, # of connection points: 2
#     Edge 20, Type (0, 0), BuildingBlock: UVAHIK_clean_linker_0, # of connection points: 2
#     Edge 21, Type (0, 0), BuildingBlock: UVAHIK_clean_linker_0, # of connection points: 2
#     Edge 22, Type (0, 0), BuildingBlock: UVAHIK_clean_linker_0, # of connection points: 2
#     Edge 23, Type (0, 0), BuildingBlock: UVAHIK_clean_linker_0, # of connection points: 2
#     Edge 24, Type (0, 0), BuildingBlock: UVAHIK_clean_linker_0, # of connection points: 2
#     Edge 25, Type (0, 0), BuildingBlock: UVAHIK_clean_linker_0, # of connection points: 2
#     Edge 26, Type (0, 0), BuildingBlock: UVAHIK_clean_linker_0, # of connection points: 2
#     Edge 27, Type (0, 0), BuildingBlock: UVAHIK_clean_linker_0, # of connection points: 2
#     Edge 28, Type (0, 0), BuildingBlock: UVAHIK_clean_linker_0, # of connection points: 2
#     Edge 29, Type (0, 0), BuildingBlock: UVAHIK_clean_linker_0, # of connection points: 2
#     Edge 30, Type (0, 0), BuildingBlock: UVAHIK_clean_linker_0, # of connection points: 2
#     Edge 31, Type (0, 0), BuildingBlock: UVAHIK_clean_linker_0, # of connection points: 2
#     Edge 32, Type (0, 0), BuildingBlock: UVAHIK_clean_linker_0, # of connection points: 2
#     Edge 33, Type (0, 0), BuildingBlock: UVAHIK_clean_linker_0, # of connection points: 2
#     Edge 34, Type (0, 0), BuildingBlock: UVAHIK_clean_linker_0, # of connection points: 2
#     Edge 35, Type (0, 0), BuildingBlock: UVAHIK_clean_linker_0, # of connection points: 2
#     Edge 36, Type (0, 0), BuildingBlock: UVAHIK_clean_linker_0, # of connection points: 2
#     Edge 37, Type (0, 0), BuildingBlock: UVAHIK_clean_linker_0, # of connection points: 2
#     Edge 38, Type (0, 0), BuildingBlock: UVAHIK_clean_linker_0, # of connection points: 2
#     Edge 39, Type (0, 0), BuildingBlock: UVAHIK_clean_linker_0, # of connection points: 2
#     Edge 40, Type (0, 0), BuildingBlock: UVAHIK_clean_linker_0, # of connection points: 2
#     Edge 41, Type (0, 0), BuildingBlock: UVAHIK_clean_linker_0, # of connection points: 2
#     Edge 42, Type (0, 0), BuildingBlock: UVAHIK_clean_linker_0, # of connection points: 2
#     Edge 43, Type (0, 0), BuildingBlock: UVAHIK_clean_linker_0, # of connection points: 2
#     Edge 44, Type (0, 0), BuildingBlock: UVAHIK_clean_linker_0, # of connection points: 2
#     Edge 45, Type (0, 0), BuildingBlock: UVAHIK_clean_linker_0, # of connection points: 2
#     Edge 46, Type (0, 0), BuildingBlock: UVAHIK_clean_linker_0, # of connection points: 2
#     Edge 47, Type (0, 0), BuildingBlock: UVAHIK_clean_linker_0, # of connection points: 2
#     Edge 48, Type (0, 0), BuildingBlock: UVAHIK_clean_linker_0, # of connection points: 2
#     Edge 49, Type (0, 0), BuildingBlock: UVAHIK_clean_linker_0, # of connection points: 2
#     Edge 50, Type (0, 0), BuildingBlock: UVAHIK_clean_linker_0, # of connection points: 2
#     Edge 51, Type (0, 0), BuildingBlock: UVAHIK_clean_linker_0, # of connection points: 2
#     Edge 52, Type (0, 0), BuildingBlock: UVAHIK_clean_linker_0, # of connection points: 2
#     Edge 53, Type (0, 0), BuildingBlock: UVAHIK_clean_linker_0, # of connection points: 2
#     Edge 54, Type (0, 0), BuildingBlock: UVAHIK_clean_linker_0, # of connection points: 2
#     Edge 55, Type (0, 0), BuildingBlock: UVAHIK_clean_linker_0, # of connection points: 2
# Relax obj value: 0.188
# Max RMSD: 0.168
# Mean RMSD: 0.167
data_MOF--net-zfj--node1-XOMCOT_clean_sbu_0--edge1-UVAHIK_clean_linker_0
_symmetry_space_group_name_H-M    P1
_symmetry_Int_Tables_number       1
_symmetry_cell_setting            triclinic
loop_
_symmetry_equiv_pos_as_xyz
'x, y, z'
_cell_length_a     44.045693
_cell_length_b     44.091809
_cell_length_c     63.134939
_cell_angle_alpha  89.99082
_cell_angle_beta   89.989465
_cell_angle_gamma 90.000613
loop_
_atom_site_label
_atom_site_type_symbol
_atom_site_fract_x
_atom_site_fract_y
_atom_site_fract_z
_atom_type_partial_charge
Co0 Co 0.51145 0.22756 0.14512 0.0
C1 C 0.50602 0.29424 0.14803 0.0
C2 C 0.47263 0.27204 0.16737 0.0
C3 C 0.46909 0.30296 0.16946 0.0
N4 N 0.49591 0.26663 0.15403 0.0
N5 N 0.48999 0.31679 0.1572 0.0
H6 H 0.52479 0.29783 0.13725 0.0
H7 H 0.45891 0.25485 0.17495 0.0
C8 C 0.50111 0.18861 0.18321 0.0
O9 O 0.52983 0.18063 0.18221 0.0
N10 N 0.52627 0.18797 0.13564 0.0
C11 C 0.54865 0.18183 0.12161 0.0
C12 C 0.54979 0.151 0.11807 0.0
C13 C 0.51316 0.16071 0.13939 0.0
N14 N 0.52763 0.1378 0.12948 0.0
C15 C 0.57517 0.23704 0.15162 0.0
C16 C 0.57247 0.24803 0.19472 0.0
C17 C 0.60071 0.24787 0.18459 0.0
C18 C 0.60185 0.24296 0.16273 0.0
C19 C 0.54617 0.24272 0.18284 0.0
N20 N 0.5479 0.23539 0.16179 0.0
H21 H 0.57651 0.23464 0.13472 0.0
H22 H 0.52442 0.24423 0.19067 0.0
H23 H 0.56253 0.19842 0.11362 0.0
H24 H 0.49273 0.15753 0.14859 0.0
O25 O 0.52446 0.24534 0.11885 0.0
O26 O 0.4793 0.22441 0.12425 0.0
O27 O 0.4902 0.20741 0.16977 0.0
C28 C 0.49799 0.23802 0.11136 0.0
H29 H 0.45196 0.31441 0.1788 0.0
H30 H 0.56574 0.13921 0.10796 0.0
H31 H 0.57074 0.25276 0.21151 0.0
H32 H 0.62326 0.24357 0.15429 0.0
Co33 Co 0.27353 0.51056 0.64399 0.0
C34 C 0.20682 0.50795 0.64802 0.0
C35 C 0.22835 0.47373 0.667 0.0
C36 C 0.19737 0.47108 0.66932 0.0
N37 N 0.23421 0.49699 0.65375 0.0
N38 N 0.18396 0.49248 0.65729 0.0
H39 H 0.20365 0.52673 0.6372 0.0
H40 H 0.24528 0.45928 0.6742 0.0
C41 C 0.31169 0.5012 0.68275 0.0
O42 O 0.32041 0.52964 0.68134 0.0
N43 N 0.31346 0.52322 0.63358 0.0
C44 C 0.31975 0.54256 0.61753 0.0
C45 C 0.35059 0.54284 0.61392 0.0
C46 C 0.34063 0.51076 0.6385 0.0
N47 N 0.36363 0.52301 0.62731 0.0
C48 C 0.2709 0.57518 0.64928 0.0
C49 C 0.25763 0.57518 0.6921 0.0
C50 C 0.26429 0.60274 0.68206 0.0
C51 C 0.26983 0.60258 0.66022 0.0
C52 C 0.25905 0.54814 0.68048 0.0
N53 N 0.26775 0.54827 0.65965 0.0
H54 H 0.27421 0.57576 0.63244 0.0
H55 H 0.25444 0.52697 0.68848 0.0
H56 H 0.30319 0.55487 0.6083 0.0
H57 H 0.34373 0.49206 0.6493 0.0
O58 O 0.25555 0.52253 0.61749 0.0
O59 O 0.27504 0.4771 0.62422 0.0
O60 O 0.29323 0.49015 0.66914 0.0
C61 C 0.26191 0.49535 0.61081 0.0
H62 H 0.18557 0.45404 0.67854 0.0
H63 H 0.36248 0.55657 0.60237 0.0
H64 H 0.25244 0.57438 0.70886 0.0
H65 H 0.27344 0.62353 0.65161 0.0
Co66 Co 0.99658 0.27386 0.14341 0.0
C67 C 1.00071 0.2073 0.14786 0.0
C68 C 0.03465 0.22988 0.16653 0.0
C69 C 0.03775 0.19905 0.1693 0.0
N70 N 0.01127 0.23499 0.15322 0.0
N71 N 0.01651 0.18498 0.15748 0.0
H72 H 0.98184 0.20354 0.1372 0.0
H73 H 0.04873 0.24724 0.17357 0.0
C74 C 0.00407 0.3122 0.18224 0.0
O75 O 0.97535 0.31997 0.18064 0.0
N76 N 0.98281 0.31337 0.13296 0.0
C77 C 0.96368 0.31902 0.11666 0.0
C78 C 0.96273 0.34977 0.11286 0.0
C79 C 0.99442 0.34091 0.13791 0.0
N80 N 0.9819 0.36343 0.12642 0.0
C81 C 0.93189 0.2693 0.14832 0.0
C82 C 0.93192 0.2554 0.19104 0.0
C83 C 0.90423 0.26125 0.18092 0.0
C84 C 0.9044 0.26719 0.15912 0.0
C85 C 0.95902 0.2579 0.17957 0.0
N86 N 0.95881 0.26682 0.15879 0.0
H87 H 0.93137 0.27289 0.13151 0.0
H88 H 0.98027 0.25392 0.18765 0.0
H89 H 0.95209 0.30207 0.10733 0.0
H90 H 0.01285 0.34459 0.14887 0.0
O91 O 0.9857 0.25558 0.11677 0.0
O92 O 0.03036 0.27656 0.12396 0.0
O93 O 0.01592 0.29411 0.16873 0.0
C94 C 0.01281 0.26292 0.11036 0.0
H95 H 0.05483 0.18779 0.1788 0.0
H96 H 0.94914 0.36116 0.101 0.0
H97 H 0.93274 0.25001 0.20776 0.0
H98 H 0.88339 0.27028 0.15046 0.0
Co99 Co 0.22843 0.99332 0.64475 0.0
C100 C 0.29502 1.00156 0.64802 0.0
C101 C 0.27048 0.03877 0.66178 0.0
C102 C 0.30104 0.04508 0.66277 0.0
N103 N 0.26675 0.01153 0.65255 0.0
N104 N 0.31648 0.02177 0.65402 0.0
H105 H 0.29966 0.98061 0.63969 0.0
H106 H 0.25224 0.05348 0.66687 0.0
C107 C 0.19051 0.00247 0.68363 0.0
O108 O 0.18358 0.97347 0.68313 0.0
N109 N 0.18932 0.97601 0.63639 0.0
C110 C 0.18382 0.953 0.62277 0.0
C111 C 0.15296 0.95054 0.61953 0.0
C112 C 0.16159 0.98805 0.64029 0.0
N113 N 0.13907 0.97245 0.63076 0.0
C114 C 0.24243 0.93053 0.65121 0.0
C115 C 0.25357 0.93398 0.69426 0.0
C116 C 0.25467 0.90571 0.68422 0.0
C117 C 0.24978 0.90427 0.66236 0.0
C118 C 0.24685 0.9599 0.68233 0.0
N119 N 0.23932 0.95765 0.66135 0.0
H120 H 0.23987 0.92902 0.63433 0.0
H121 H 0.24736 0.98175 0.69006 0.0
H122 H 0.20082 0.93968 0.61473 0.0
H123 H 0.15779 0.00864 0.64919 0.0
O124 O 0.2457 0.98139 0.61799 0.0
O125 O 0.22207 0.025 0.62404 0.0
O126 O 0.20847 0.0137 0.66977 0.0
C127 C 0.23621 0.00733 0.61076 0.0
H128 H 0.31106 0.06552 0.66918 0.0
H129 H 0.14163 0.93401 0.60963 0.0
H130 H 0.25826 0.93604 0.71104 0.0
H131 H 0.25127 0.88289 0.65395 0.0
Co132 Co 0.50988 0.27343 0.85249 0.0
C133 C 0.50489 0.20687 0.84903 0.0
C134 C 0.47048 0.22913 0.83061 0.0
C135 C 0.46701 0.19821 0.82842 0.0
N136 N 0.49434 0.23448 0.84344 0.0
N137 N 0.48855 0.18434 0.84011 0.0
H138 H 0.52414 0.2033 0.85938 0.0
H139 H 0.45628 0.24636 0.82352 0.0
C140 C 0.49911 0.31265 0.81458 0.0
O141 O 0.52783 0.32067 0.81544 0.0
N142 N 0.52472 0.31291 0.86214 0.0
C143 C 0.54701 0.31887 0.87628 0.0
C144 C 0.54813 0.34966 0.87999 0.0
C145 C 0.51162 0.34019 0.85852 0.0
N146 N 0.52603 0.36297 0.86859 0.0
C147 C 0.57356 0.26428 0.84568 0.0
C148 C 0.57056 0.25313 0.80262 0.0
C149 C 0.59887 0.2532 0.81266 0.0
C150 C 0.60015 0.25829 0.8345 0.0
C151 C 0.54434 0.25856 0.81458 0.0
N152 N 0.54622 0.26586 0.83563 0.0
H153 H 0.57503 0.26672 0.86257 0.0
H154 H 0.52253 0.25706 0.80684 0.0
H155 H 0.56083 0.30219 0.88422 0.0
H156 H 0.49122 0.34347 0.84931 0.0
O157 O 0.52311 0.25535 0.8786 0.0
O158 O 0.47789 0.27629 0.87351 0.0
O159 O 0.48838 0.29378 0.82803 0.0
C160 C 0.49669 0.26255 0.88625 0.0
H161 H 0.44945 0.18679 0.81946 0.0
H162 H 0.56402 0.36134 0.89021 0.0
H163 H 0.5687 0.24827 0.78585 0.0
H164 H 0.6216 0.25765 0.84289 0.0
Co165 Co 0.22804 0.51136 0.35361 0.0
C166 C 0.29429 0.50221 0.35131 0.0
C167 C 0.27059 0.46909 0.33264 0.0
C168 C 0.30137 0.4641 0.33066 0.0
N169 N 0.26624 0.49308 0.34551 0.0
N170 N 0.31614 0.48486 0.34248 0.0
H171 H 0.29866 0.52139 0.36156 0.0
H172 H 0.25277 0.456 0.32523 0.0
C173 C 0.1877 0.50193 0.31605 0.0
O174 O 0.18018 0.53076 0.31701 0.0
N175 N 0.18937 0.52921 0.36215 0.0
C176 C 0.18425 0.55564 0.37231 0.0
C177 C 0.15354 0.559 0.37549 0.0
C178 C 0.16163 0.5162 0.3604 0.0
N179 N 0.13925 0.53431 0.36779 0.0
C180 C 0.24594 0.57322 0.34703 0.0
C181 C 0.25022 0.57085 0.30338 0.0
C182 C 0.2544 0.59867 0.31364 0.0
C183 C 0.25311 0.59947 0.33578 0.0
C184 C 0.2437 0.54494 0.31536 0.0
N185 N 0.23917 0.54684 0.33678 0.0
H186 H 0.24632 0.57416 0.36406 0.0
H187 H 0.24222 0.52341 0.3073 0.0
H188 H 0.20131 0.57131 0.37769 0.0
H189 H 0.15783 0.49414 0.35339 0.0
O190 O 0.24555 0.52318 0.38038 0.0
O191 O 0.22162 0.47977 0.37438 0.0
O192 O 0.20719 0.49098 0.32896 0.0
C193 C 0.23588 0.49733 0.38764 0.0
H194 H 0.31205 0.44621 0.32158 0.0
H195 H 0.14264 0.57809 0.38311 0.0
H196 H 0.25238 0.56909 0.28633 0.0
H197 H 0.25716 0.62034 0.34438 0.0
Co198 Co 0.99507 0.22885 0.85475 0.0
C199 C 0.99849 0.29559 0.85126 0.0
C200 C 0.03183 0.27397 0.83156 0.0
C201 C 0.03464 0.30492 0.8293 0.0
N202 N 0.00901 0.26817 0.8452 0.0
N203 N 0.01378 0.3184 0.84178 0.0
H204 H 0.98005 0.29883 0.86236 0.0
H205 H 0.0458 0.257 0.82395 0.0
C206 C 0.00322 0.19107 0.81569 0.0
O207 O 0.97463 0.18278 0.81723 0.0
N208 N 0.98196 0.18894 0.86495 0.0
C209 C 0.9629 0.18286 0.88123 0.0
C210 C 0.96229 0.15206 0.88482 0.0
C211 C 0.99384 0.16158 0.8598 0.0
N212 N 0.98157 0.13877 0.87116 0.0
C213 C 0.93031 0.2327 0.85011 0.0
C214 C 0.92982 0.24653 0.80738 0.0
C215 C 0.90226 0.24036 0.81761 0.0
C216 C 0.90271 0.23451 0.83943 0.0
C217 C 0.95704 0.24441 0.81875 0.0
N218 N 0.95711 0.23546 0.83952 0.0
H219 H 0.92998 0.22913 0.86693 0.0
H220 H 0.97817 0.24869 0.81058 0.0
H221 H 0.95112 0.19954 0.89066 0.0
H222 H 0.01225 0.15821 0.84877 0.0
O223 O 0.98401 0.24651 0.88157 0.0
O224 O 0.02898 0.22644 0.87409 0.0
O225 O 0.01469 0.20927 0.82927 0.0
C226 C 0.01127 0.23957 0.88785 0.0
H227 H 0.05134 0.31666 0.81975 0.0
H228 H 0.9488 0.14038 0.89661 0.0
H229 H 0.93045 0.25188 0.79065 0.0
H230 H 0.88182 0.23124 0.84821 0.0
Co231 Co 0.27464 0.99244 0.35439 0.0
C232 C 0.2081 0.99853 0.34887 0.0
C233 C 0.23247 0.03439 0.33334 0.0
C234 C 0.20186 0.03909 0.33048 0.0
N235 N 0.23636 0.00889 0.34474 0.0
N236 N 0.18653 0.01661 0.3403 0.0
H237 H 0.20345 0.97832 0.35805 0.0
H238 H 0.25056 0.04901 0.32786 0.0
C239 C 0.31431 1.00097 0.31625 0.0
O240 O 0.32198 0.9722 0.31744 0.0
N241 N 0.31367 0.97681 0.36464 0.0
C242 C 0.31837 0.95503 0.37934 0.0
C243 C 0.34901 0.95204 0.38293 0.0
C244 C 0.34177 0.98807 0.3607 0.0
N245 N 0.36379 0.97268 0.37105 0.0
C246 C 0.26604 0.92854 0.34861 0.0
C247 C 0.25754 0.92971 0.30524 0.0
C248 C 0.26136 0.90173 0.31543 0.0
C249 C 0.26424 0.90136 0.3375 0.0
C250 C 0.25965 0.95654 0.31708 0.0
N251 N 0.26647 0.95562 0.33823 0.0
H252 H 0.26718 0.92767 0.36558 0.0
H253 H 0.25718 0.97805 0.30906 0.0
H254 H 0.30093 0.94294 0.38786 0.0
H255 H 0.34617 0.00742 0.35069 0.0
O256 O 0.25572 0.98103 0.38071 0.0
O257 O 0.27828 0.0252 0.37457 0.0
O258 O 0.29575 0.01234 0.32964 0.0
C259 C 0.26385 0.00756 0.38772 0.0
H260 H 0.19165 0.05821 0.32243 0.0
H261 H 0.35951 0.93646 0.39396 0.0
H262 H 0.25423 0.9309 0.28826 0.0
H263 H 0.26546 0.88014 0.34612 0.0
Co264 Co 0.49408 0.77345 0.85341 0.0
C265 C 0.49811 0.70677 0.84898 0.0
C266 C 0.53163 0.72933 0.82993 0.0
C267 C 0.53475 0.69849 0.82721 0.0
N268 N 0.50849 0.73449 0.84344 0.0
N269 N 0.51379 0.68444 0.83928 0.0
H270 H 0.47951 0.70298 0.85986 0.0
H271 H 0.54559 0.74663 0.82271 0.0
C272 C 0.50353 0.81232 0.81511 0.0
O273 O 0.47484 0.82033 0.81638 0.0
N274 N 0.48059 0.81303 0.86406 0.0
C275 C 0.46108 0.81865 0.88015 0.0
C276 C 0.46021 0.84936 0.88407 0.0
C277 C 0.4925 0.84055 0.8594 0.0
N278 N 0.4798 0.86306 0.87082 0.0
C279 C 0.42963 0.77024 0.84734 0.0
C280 C 0.43066 0.75691 0.80455 0.0
C281 C 0.40278 0.76306 0.81434 0.0
C282 C 0.40245 0.76868 0.83617 0.0
C283 C 0.45749 0.75882 0.81641 0.0
N284 N 0.45682 0.76747 0.83724 0.0
H285 H 0.42866 0.7736 0.86417 0.0
H286 H 0.4789 0.7546 0.80859 0.0
H287 H 0.44905 0.80169 0.8892 0.0
H288 H 0.5112 0.84428 0.84866 0.0
O289 O 0.48148 0.75475 0.87945 0.0
O290 O 0.52696 0.7749 0.8738 0.0
O291 O 0.51484 0.79401 0.82871 0.0
C292 C 0.50833 0.76121 0.8867 0.0
H293 H 0.5517 0.68721 0.81761 0.0
H294 H 0.44631 0.86073 0.89577 0.0
H295 H 0.43184 0.75171 0.78781 0.0
H296 H 0.38126 0.77193 0.84459 0.0
Co297 Co 0.72808 0.49118 0.3548 0.0
C298 C 0.79482 0.49816 0.35009 0.0
C299 C 0.77005 0.53407 0.33492 0.0
C300 C 0.80055 0.54004 0.33311 0.0
N301 N 0.76645 0.50784 0.34552 0.0
N302 N 0.81617 0.51761 0.34276 0.0
H303 H 0.79964 0.47807 0.35935 0.0
H304 H 0.75177 0.54845 0.32945 0.0
C305 C 0.68999 0.49902 0.31575 0.0
O306 O 0.68268 0.47015 0.31676 0.0
N307 N 0.68882 0.47568 0.36469 0.0
C308 C 0.68355 0.45588 0.38066 0.0
C309 C 0.65277 0.45397 0.3843 0.0
C310 C 0.66096 0.48663 0.35978 0.0
N311 N 0.63866 0.47316 0.37098 0.0
C312 C 0.73499 0.42705 0.34917 0.0
C313 C 0.74738 0.42826 0.30624 0.0
C314 C 0.74182 0.40032 0.3161 0.0
C315 C 0.73694 0.3999 0.33802 0.0
C316 C 0.74514 0.45505 0.3181 0.0
N317 N 0.73664 0.4542 0.33895 0.0
H318 H 0.73188 0.42612 0.36603 0.0
H319 H 0.7487 0.47656 0.31026 0.0
H320 H 0.70075 0.44455 0.38992 0.0
H321 H 0.65686 0.50532 0.34911 0.0
O322 O 0.74642 0.48013 0.3814 0.0
O323 O 0.72383 0.52414 0.37475 0.0
O324 O 0.70763 0.51067 0.32962 0.0
C325 C 0.73797 0.5067 0.38818 0.0
H326 H 0.81042 0.5597 0.32549 0.0
H327 H 0.64166 0.4398 0.39596 0.0
H328 H 0.75209 0.42951 0.28942 0.0
H329 H 0.73419 0.37868 0.34647 0.0
Co330 Co 0.01159 0.72872 0.85255 0.0
C331 C 0.00646 0.79518 0.84874 0.0
C332 C 0.9719 0.77272 0.8306 0.0
C333 C 0.9684 0.80362 0.82827 0.0
N334 N 0.99587 0.76752 0.84336 0.0
N335 N 0.99004 0.81762 0.83978 0.0
H336 H 0.02581 0.79886 0.85899 0.0
H337 H 0.95767 0.7554 0.82366 0.0
C338 C 1.00095 0.689 0.8149 0.0
O339 O 0.02967 0.681 0.81584 0.0
N340 N 0.02665 0.68942 0.86237 0.0
C341 C 0.04895 0.68379 0.87656 0.0
C342 C 0.04998 0.65312 0.88072 0.0
C343 C 0.01352 0.66206 0.85908 0.0
N344 N 0.02785 0.63955 0.86951 0.0
C345 C 0.07525 0.73817 0.84561 0.0
C346 C 0.07197 0.74858 0.80246 0.0
C347 C 0.10034 0.74872 0.8124 0.0
C348 C 0.10176 0.74404 0.83429 0.0
C349 C 0.04585 0.74329 0.81453 0.0
N350 N 0.04786 0.73633 0.83563 0.0
H351 H 0.0768 0.736 0.86252 0.0
H352 H 0.02399 0.74461 0.80684 0.0
H353 H 0.06273 0.70066 0.88434 0.0
H354 H 0.99307 0.65858 0.84996 0.0
O355 O 0.02467 0.74705 0.87865 0.0
O356 O 0.9796 0.72581 0.87353 0.0
O357 O 0.99019 0.70807 0.82819 0.0
C358 C 0.99828 0.73967 0.88628 0.0
H359 H 0.95075 0.81494 0.81932 0.0
H360 H 0.06572 0.64171 0.8912 0.0
H361 H 0.06999 0.75313 0.78566 0.0
H362 H 0.12326 0.74486 0.84261 0.0
Co363 Co 0.77448 0.01314 0.35254 0.0
C364 C 0.70821 0.00372 0.34889 0.0
C365 C 0.73347 0.96545 0.33734 0.0
C366 C 0.70298 0.95866 0.3364 0.0
N367 N 0.73668 0.99364 0.34517 0.0
N368 N 0.68712 0.98268 0.34374 0.0
H369 H 0.70317 0.02541 0.3561 0.0
H370 H 0.75201 0.95049 0.33323 0.0
C371 C 0.81391 0.00266 0.31463 0.0
O372 O 0.82095 0.03163 0.3149 0.0
N373 N 0.81301 0.03196 0.36047 0.0
C374 C 0.81774 0.05783 0.37139 0.0
C375 C 0.8484 0.06146 0.37467 0.0
C376 C 0.84097 0.01955 0.35834 0.0
N377 N 0.86316 0.0375 0.36626 0.0
C378 C 0.75658 0.07462 0.3448 0.0
C379 C 0.7505 0.07024 0.30133 0.0
C380 C 0.74688 0.09853 0.31105 0.0
C381 C 0.7491 0.10035 0.33312 0.0
C382 C 0.7573 0.04482 0.31377 0.0
N383 N 0.76265 0.04771 0.33504 0.0
H384 H 0.75698 0.0764 0.36178 0.0
H385 H 0.75849 0.0229 0.3062 0.0
H386 H 0.80039 0.07264 0.37749 0.0
H387 H 0.84494 0.99772 0.3511 0.0
O388 O 0.75688 0.02593 0.37903 0.0
O389 O 0.7816 0.9827 0.37405 0.0
O390 O 0.79513 0.99191 0.32814 0.0
C391 C 0.76698 1.00062 0.38689 0.0
H392 H 0.69328 0.93746 0.33103 0.0
H393 H 0.85879 0.0801 0.38312 0.0
H394 H 0.74773 0.06775 0.28437 0.0
H395 H 0.74554 0.12165 0.34131 0.0
Co396 Co 0.49334 0.72739 0.1454 0.0
C397 C 0.49948 0.79394 0.14914 0.0
C398 C 0.53259 0.77086 0.16821 0.0
C399 C 0.53633 0.80167 0.17082 0.0
N400 N 0.50935 0.76606 0.15473 0.0
N401 N 0.51561 0.81605 0.15874 0.0
H402 H 0.48075 0.79803 0.13842 0.0
H403 H 0.54608 0.75332 0.1756 0.0
C404 C 0.50333 0.68738 0.18303 0.0
O405 O 0.47453 0.67966 0.18199 0.0
N406 N 0.47804 0.6882 0.13551 0.0
C407 C 0.45561 0.68266 0.12141 0.0
C408 C 0.4543 0.65196 0.11736 0.0
C409 C 0.49097 0.66075 0.13884 0.0
N410 N 0.47638 0.63827 0.12856 0.0
C411 C 0.42974 0.7376 0.15204 0.0
C412 C 0.4326 0.74752 0.19525 0.0
C413 C 0.40436 0.74811 0.18514 0.0
C414 C 0.40316 0.74369 0.16322 0.0
C415 C 0.45881 0.74204 0.18331 0.0
N416 N 0.45698 0.73529 0.16218 0.0
H417 H 0.42837 0.7356 0.13511 0.0
H418 H 0.48058 0.74302 0.19115 0.0
H419 H 0.44187 0.69959 0.11366 0.0
H420 H 0.51142 0.65714 0.14795 0.0
O421 O 0.4806 0.74588 0.11929 0.0
O422 O 0.52546 0.72426 0.12453 0.0
O423 O 0.51434 0.70644 0.16982 0.0
C424 C 0.50698 0.7383 0.11173 0.0
H425 H 0.55342 0.81268 0.18045 0.0
H426 H 0.43836 0.6406 0.107 0.0
H427 H 0.43442 0.75185 0.21209 0.0
H428 H 0.38177 0.74484 0.15478 0.0
Co429 Co 0.77369 0.49285 0.64441 0.0
C430 C 0.7071 0.49662 0.64903 0.0
C431 C 0.72961 0.53071 0.66758 0.0
C432 C 0.69874 0.53374 0.67035 0.0
N433 N 0.73478 0.50729 0.65435 0.0
N434 N 0.68472 0.51241 0.6586 0.0
H435 H 0.70337 0.47774 0.63839 0.0
H436 H 0.74693 0.54493 0.67454 0.0
C437 C 0.81254 0.50163 0.68288 0.0
O438 O 0.82076 0.47304 0.68147 0.0
N439 N 0.81322 0.47934 0.63381 0.0
C440 C 0.8189 0.45993 0.61769 0.0
C441 C 0.84962 0.4594 0.61364 0.0
C442 C 0.84066 0.49152 0.63837 0.0
N443 N 0.8632 0.47911 0.62684 0.0
C444 C 0.77005 0.42828 0.65004 0.0
C445 C 0.75698 0.42906 0.69288 0.0
C446 C 0.76315 0.40127 0.68302 0.0
C447 C 0.76863 0.40104 0.66117 0.0
C448 C 0.7588 0.45591 0.68109 0.0
N449 N 0.76734 0.45537 0.66023 0.0
H450 H 0.77331 0.42743 0.6332 0.0
H451 H 0.75462 0.47725 0.68898 0.0
H452 H 0.80196 0.44788 0.60863 0.0
H453 H 0.84422 0.51026 0.64908 0.0
O454 O 0.75517 0.48119 0.61799 0.0
O455 O 0.7757 0.5262 0.62459 0.0
O456 O 0.79409 0.51295 0.66938 0.0
C457 C 0.7621 0.5082 0.61125 0.0
H458 H 0.68742 0.55089 0.67975 0.0
H459 H 0.86104 0.44573 0.60183 0.0
H460 H 0.75189 0.43016 0.70965 0.0
H461 H 0.77193 0.37991 0.65271 0.0
Co462 Co 0.01033 0.77362 0.14487 0.0
C463 C 0.00724 0.70699 0.14901 0.0
C464 C 0.97259 0.72874 0.1675 0.0
C465 C 0.9697 0.69779 0.16982 0.0
N466 N 0.99626 0.73443 0.15456 0.0
N467 N 0.99138 0.68424 0.15809 0.0
H468 H 0.02633 0.70368 0.13847 0.0
H469 H 0.95802 0.74575 0.17448 0.0
C470 C 1.00015 0.81203 0.1833 0.0
O471 O 0.02878 0.82031 0.18219 0.0
N472 N 0.02353 0.8134 0.13448 0.0
C473 C 0.04325 0.8194 0.11858 0.0
C474 C 0.04394 0.85017 0.11488 0.0
C475 C 0.01127 0.84074 0.1392 0.0
N476 N 0.024 0.86351 0.12805 0.0
C477 C 0.07476 0.7708 0.15114 0.0
C478 C 0.07355 0.75704 0.19386 0.0
C479 C 0.10146 0.7634 0.18417 0.0
C480 C 0.10188 0.76926 0.16237 0.0
C481 C 0.04678 0.75895 0.18194 0.0
N482 N 0.04753 0.7678 0.16115 0.0
H483 H 0.07581 0.77426 0.13433 0.0
H484 H 0.02534 0.75451 0.18967 0.0
H485 H 0.05559 0.80267 0.10953 0.0
H486 H 0.99239 0.84413 0.14982 0.0
O487 O 0.0233 0.75534 0.11878 0.0
O488 O 0.97759 0.77499 0.12438 0.0
O489 O 0.98916 0.79367 0.16961 0.0
C490 C 0.99644 0.76163 0.11147 0.0
H491 H 0.95233 0.68613 0.17882 0.0
H492 H 0.05803 0.86182 0.10342 0.0
H493 H 0.07232 0.75164 0.21058 0.0
H494 H 0.1231 0.77268 0.15402 0.0
Co495 Co 0.72818 0.01313 0.64481 0.0
C496 C 0.79445 0.00335 0.64753 0.0
C497 C 0.77014 0.97089 0.66639 0.0
C498 C 0.80082 0.96577 0.66878 0.0
N499 N 0.76619 0.99457 0.65317 0.0
N500 N 0.81598 0.98611 0.65685 0.0
H501 H 0.79923 0.02228 0.63714 0.0
H502 H 0.75211 0.95816 0.67387 0.0
C503 C 0.68716 0.00298 0.68194 0.0
O504 O 0.67973 0.03183 0.6812 0.0
N505 N 0.68971 0.03126 0.636 0.0
C506 C 0.68508 0.05751 0.62552 0.0
C507 C 0.6545 0.06108 0.62191 0.0
C508 C 0.66178 0.01855 0.63756 0.0
N509 N 0.63974 0.03671 0.6297 0.0
C510 C 0.74576 0.07483 0.65226 0.0
C511 C 0.74967 0.07137 0.69589 0.0
C512 C 0.75405 0.09941 0.68596 0.0
C513 C 0.75291 0.10077 0.66383 0.0
C514 C 0.74323 0.04576 0.68358 0.0
N515 N 0.73893 0.04819 0.66216 0.0
H516 H 0.74629 0.07622 0.63525 0.0
H517 H 0.7416 0.02404 0.69138 0.0
H518 H 0.70245 0.07281 0.62006 0.0
H519 H 0.65765 0.99657 0.64456 0.0
O520 O 0.74642 0.02564 0.61846 0.0
O521 O 0.72232 0.98209 0.62353 0.0
O522 O 0.7067 0.99221 0.66899 0.0
C523 C 0.73698 1.00001 0.61071 0.0
H524 H 0.81121 0.94818 0.67829 0.0
H525 H 0.64408 0.08 0.61378 0.0
H526 H 0.75165 0.06921 0.71292 0.0
H527 H 0.7571 0.12185 0.65551 0.0
C528 C 0.50864 0.26399 0.07723 0.0
C529 C 0.49066 0.24372 0.08891 0.0
C530 C 0.50465 0.26702 0.05545 0.0
C531 C 0.45426 0.24989 0.01002 0.0
H532 H 0.53065 0.25022 0.97947 0.0
C533 C 0.50753 0.23609 0.92016 0.0
C534 C 0.48955 0.25661 0.9087 0.0
C535 C 0.50377 0.23287 0.94195 0.0
C536 C 0.50907 0.24983 0.98769 0.0
H537 H 0.45331 0.21184 0.08719 0.0
H538 H 0.44664 0.21669 0.04878 0.0
H539 H 0.53091 0.24907 0.01781 0.0
H540 H 0.45243 0.28871 0.91079 0.0
H541 H 0.44618 0.28352 0.94921 0.0
H542 H 0.43255 0.25011 0.97955 0.0
C543 C 0.46363 0.23048 0.05658 0.0
C544 C 0.50922 0.24964 0.00974 0.0
C545 C 0.46749 0.22762 0.07853 0.0
C546 C 0.4666 0.27273 0.91928 0.0
C547 C 0.46298 0.26969 0.94124 0.0
C548 C 0.4541 0.25012 0.9878 0.0
C549 C 0.48279 0.24958 0.04474 0.0
C550 C 0.48188 0.24981 0.02121 0.0
C551 C 0.48216 0.25034 0.95288 0.0
C552 C 0.48157 0.24996 0.97642 0.0
H553 H 0.52637 0.27706 0.08486 0.0
H554 H 0.51926 0.28252 0.04688 0.0
H555 H 0.43282 0.25012 0.01842 0.0
H556 H 0.52509 0.22299 0.91236 0.0
H557 H 0.51838 0.21719 0.95035 0.0
C558 C 0.26068 0.50521 0.42272 0.0
C559 C 0.24005 0.48902 0.41009 0.0
C560 C 0.26339 0.49883 0.44429 0.0
C561 C 0.21927 0.47139 0.48886 0.0
H562 H 0.29707 0.46984 0.51764 0.0
C563 C 0.27214 0.46269 0.57915 0.0
C564 C 0.25611 0.48665 0.58863 0.0
C565 C 0.26903 0.4569 0.55746 0.0
C566 C 0.27518 0.46977 0.50982 0.0
H567 H 0.20648 0.45306 0.40999 0.0
H568 H 0.21086 0.44226 0.44794 0.0
H569 H 0.29538 0.47059 0.47893 0.0
H570 H 0.22319 0.52237 0.58319 0.0
H571 H 0.21741 0.51198 0.54548 0.0
H572 H 0.19911 0.47177 0.51976 0.0
C573 C 0.22501 0.45977 0.44105 0.0
C574 C 0.27423 0.47045 0.48769 0.0
C575 C 0.2226 0.46587 0.41936 0.0
C576 C 0.23591 0.5038 0.57628 0.0
C577 C 0.23245 0.49774 0.55472 0.0
C578 C 0.22023 0.47109 0.51098 0.0
C579 C 0.24526 0.47638 0.45375 0.0
C580 C 0.24628 0.47187 0.47701 0.0
C581 C 0.24943 0.47465 0.545 0.0
C582 C 0.24821 0.47087 0.52168 0.0
H583 H 0.27449 0.52311 0.41599 0.0
H584 H 0.27895 0.51223 0.45373 0.0
H585 H 0.19741 0.47268 0.48104 0.0
H586 H 0.28794 0.44918 0.58831 0.0
H587 H 0.28228 0.43888 0.55035 0.0
C588 C 0.04495 0.22835 0.91882 0.0
C589 C 0.0207 0.24472 0.90997 0.0
C590 C 0.05157 0.2309 0.94043 0.0
C591 C 0.03951 0.27857 0.9877 0.0
H592 H 0.04022 0.20276 0.01888 0.0
C593 C 0.04588 0.27459 0.07914 0.0
C594 C 0.02213 0.25774 0.08821 0.0
C595 C 0.05223 0.27209 0.05749 0.0
C596 C 0.04036 0.22408 0.01035 0.0
H597 H 0.98533 0.27762 0.91644 0.0
H598 H 0.99716 0.28242 0.95402 0.0
H599 H 0.03978 0.20198 0.98014 0.0
H600 H 0.98742 0.22401 0.08209 0.0
H601 H 0.99879 0.2193 0.04443 0.0
H602 H 0.03905 0.30067 0.01791 0.0
C603 C 0.01099 0.26756 0.94434 0.0
C604 C 0.04033 0.22365 0.98822 0.0
C605 C 0.00409 0.26466 0.92286 0.0
C606 C 0.0058 0.23735 0.0755 0.0
C607 C 0.01244 0.2345 0.05397 0.0
C608 C 0.03993 0.27901 0.00983 0.0
C609 C 0.03438 0.25026 0.95344 0.0
C610 C 0.03906 0.25088 0.97669 0.0
C611 C 0.03527 0.2523 0.04466 0.0
C612 C 0.03952 0.25176 0.02137 0.0
H613 H 0.05807 0.21274 0.90924 0.0
H614 H 0.0698 0.2174 0.94705 0.0
H615 H 0.03871 0.29989 0.97918 0.0
H616 H 0.05877 0.29056 0.08858 0.0
H617 H 0.07003 0.28597 0.0507 0.0
C618 C 0.27469 0.03999 0.41941 0.0
C619 C 0.25825 0.01629 0.40994 0.0
C620 C 0.27144 0.04605 0.44105 0.0
C621 C 0.22178 0.03313 0.48731 0.0
H622 H 0.29656 0.03338 0.51975 0.0
C623 C 0.26112 0.99923 0.57577 0.0
C624 C 0.24051 0.0156 0.58832 0.0
C625 C 0.26403 0.00553 0.55421 0.0
C626 C 0.27551 0.0336 0.51088 0.0
H627 H 0.22456 0.98128 0.41537 0.0
H628 H 0.21864 0.99208 0.453 0.0
H629 H 0.2987 0.03359 0.48106 0.0
H630 H 0.20719 0.05178 0.58828 0.0
H631 H 0.21193 0.06246 0.55032 0.0
H632 H 0.19861 0.03209 0.51714 0.0
C633 C 0.23405 0.00595 0.44377 0.0
C634 C 0.27672 0.03396 0.48876 0.0
C635 C 0.2376 0.99963 0.42226 0.0
C636 C 0.22329 0.03884 0.57897 0.0
C637 C 0.2259 0.04487 0.55728 0.0
C638 C 0.22056 0.03311 0.50943 0.0
C639 C 0.25134 0.02882 0.45348 0.0
C640 C 0.24988 0.03293 0.47677 0.0
C641 C 0.24614 0.02809 0.54467 0.0
C642 C 0.24743 0.03253 0.52142 0.0
H643 H 0.29081 0.05315 0.41027 0.0
H644 H 0.28494 0.0639 0.44813 0.0
H645 H 0.20074 0.03253 0.47843 0.0
H646 H 0.27476 0.98124 0.58256 0.0
H647 H 0.27956 0.992 0.54484 0.0
C648 C 0.49805 0.73452 0.9206 0.0
C649 C 0.51592 0.75502 0.90904 0.0
C650 C 0.50188 0.73149 0.94241 0.0
C651 C 0.49636 0.74922 0.988 0.0
H652 H 0.57246 0.75001 0.01888 0.0
C653 C 0.49636 0.76415 0.07753 0.0
C654 C 0.51436 0.74399 0.08928 0.0
C655 C 0.50043 0.76707 0.05574 0.0
C656 C 0.55107 0.74965 0.01043 0.0
H657 H 0.55296 0.78724 0.91095 0.0
H658 H 0.55934 0.78237 0.94938 0.0
H659 H 0.57291 0.74942 0.98 0.0
H660 H 0.55181 0.7122 0.08769 0.0
H661 H 0.55861 0.71688 0.04929 0.0
H662 H 0.47438 0.7489 0.01808 0.0
C663 C 0.54258 0.7684 0.94149 0.0
C664 C 0.55132 0.74954 0.98821 0.0
C665 C 0.5389 0.77124 0.91952 0.0
C666 C 0.53761 0.72791 0.07898 0.0
C667 C 0.54155 0.73067 0.05703 0.0
C668 C 0.49611 0.74937 0.01005 0.0
C669 C 0.52342 0.74916 0.95324 0.0
C670 C 0.52391 0.74916 0.97678 0.0
C671 C 0.52238 0.74965 0.0451 0.0
C672 C 0.52339 0.7497 0.02157 0.0
H673 H 0.48046 0.72138 0.91289 0.0
H674 H 0.4873 0.71588 0.9509 0.0
H675 H 0.47482 0.74946 0.97973 0.0
H676 H 0.47855 0.7772 0.08509 0.0
H677 H 0.4858 0.78247 0.04711 0.0
C678 C 0.76313 0.49932 0.42318 0.0
C679 C 0.74266 0.51559 0.41047 0.0
C680 C 0.7658 0.50578 0.44474 0.0
C681 C 0.77623 0.53392 0.48828 0.0
H682 H 0.70062 0.5324 0.51978 0.0
C683 C 0.77281 0.54094 0.57971 0.0
C684 C 0.75659 0.51697 0.58903 0.0
C685 C 0.77001 0.54685 0.55802 0.0
C686 C 0.72188 0.53314 0.51116 0.0
H687 H 0.70943 0.55185 0.41019 0.0
H688 H 0.71373 0.5628 0.44812 0.0
H689 H 0.69952 0.53197 0.48104 0.0
H690 H 0.72367 0.48135 0.58329 0.0
H691 H 0.71844 0.49196 0.54555 0.0
H692 H 0.79861 0.53412 0.51839 0.0
C693 C 0.7278 0.54518 0.4413 0.0
C694 C 0.72126 0.53312 0.48903 0.0
C695 C 0.72545 0.53901 0.41961 0.0
C696 C 0.73652 0.49992 0.57651 0.0
C697 C 0.73338 0.50611 0.55494 0.0
C698 C 0.77685 0.53433 0.51041 0.0
C699 C 0.74776 0.52838 0.4541 0.0
C700 C 0.74844 0.53272 0.47738 0.0
C701 C 0.75055 0.52922 0.54538 0.0
C702 C 0.74969 0.53316 0.52207 0.0
H703 H 0.77673 0.48118 0.41654 0.0
H704 H 0.78115 0.49225 0.45426 0.0
H705 H 0.79751 0.53382 0.47967 0.0
H706 H 0.78851 0.55438 0.58899 0.0
H707 H 0.7834 0.56488 0.55104 0.0
C708 C 0.96607 0.77184 0.0786 0.0
C709 C 0.98906 0.75564 0.08907 0.0
C710 C 0.96254 0.76919 0.0566 0.0
C711 C 0.95408 0.75075 0.00981 0.0
H712 H 0.0311 0.75024 0.98003 0.0
C713 C 0.9677 0.72943 0.91907 0.0
C714 C 0.99106 0.74535 0.90876 0.0
C715 C 0.96382 0.73217 0.94102 0.0
C716 C 0.00935 0.75069 0.98804 0.0
H717 H 0.02475 0.72225 0.08518 0.0
H718 H 0.01817 0.71706 0.04713 0.0
H719 H 0.03056 0.75067 0.01838 0.0
H720 H 0.02714 0.77825 0.91293 0.0
H721 H 0.01998 0.78354 0.95093 0.0
H722 H 0.93301 0.75137 0.97913 0.0
C723 C 0.00345 0.73252 0.05564 0.0
C724 C 0.00904 0.75046 0.01009 0.0
C725 C 0.00713 0.73537 0.07747 0.0
C726 C 0.00925 0.76533 0.92051 0.0
C727 C 0.00522 0.76826 0.94231 0.0
C728 C 0.95439 0.75097 0.98759 0.0
C729 C 0.98187 0.75017 0.04482 0.0
C730 C 0.98146 0.75032 0.02128 0.0
C731 C 0.98314 0.751 0.95295 0.0
C732 C 0.98209 0.75106 0.97648 0.0
H733 H 0.95186 0.78767 0.08719 0.0
H734 H 0.94575 0.78314 0.04873 0.0
H735 H 0.93247 0.75058 0.01799 0.0
H736 H 0.95336 0.71386 0.91036 0.0
H737 H 0.94666 0.7185 0.94875 0.0
C738 C 0.7418 0.00995 0.42166 0.0
C739 C 0.76256 0.9932 0.40948 0.0
C740 C 0.73854 0.00424 0.44328 0.0
C741 C 0.72598 0.97714 0.48677 0.0
H742 H 0.79999 0.97729 0.52005 0.0
C743 C 0.72509 0.96939 0.57831 0.0
C744 C 0.74199 0.99238 0.58822 0.0
C745 C 0.72834 0.964 0.55657 0.0
C746 C 0.77915 0.977 0.51094 0.0
H747 H 0.79583 0.95699 0.41027 0.0
H748 H 0.79044 0.94731 0.44831 0.0
H749 H 0.80303 0.97774 0.48138 0.0
H750 H 0.77635 0.02692 0.58343 0.0
H751 H 0.78223 0.01733 0.54565 0.0
H752 H 0.7021 0.97736 0.51632 0.0
C753 C 0.77665 0.96478 0.44103 0.0
C754 C 0.78089 0.97702 0.48883 0.0
C755 C 0.77964 0.97023 0.41928 0.0
C756 C 0.76294 0.00912 0.5762 0.0
C757 C 0.76647 0.00349 0.55459 0.0
C758 C 0.72425 0.97679 0.50887 0.0
C759 C 0.75619 0.98188 0.45325 0.0
C760 C 0.75432 0.97784 0.47654 0.0
C761 C 0.7489 0.9812 0.54448 0.0
C762 C 0.75081 0.97747 0.52117 0.0
H763 H 0.72826 0.02774 0.41453 0.0
H764 H 0.72285 0.01803 0.45234 0.0
H765 H 0.70514 0.97753 0.47766 0.0
H766 H 0.70875 0.95616 0.5872 0.0
H767 H 0.71462 0.94659 0.54918 0.0
C768 C 0.50723 0.86074 0.13589 0.0
C769 C 0.51252 0.84832 0.15602 0.0
C770 C 0.5064 0.89223 0.13304 0.0
C771 C 0.52904 0.96433 0.16017 0.0
H772 H 0.48122 1.00119 0.11548 0.0
C773 C 0.51336 0.09402 0.15171 0.0
C774 C 0.52196 0.1058 0.13191 0.0
C775 C 0.51008 0.06274 0.1546 0.0
C776 C 0.4947 0.99112 0.128 0.0
H777 H 0.51963 0.8588 0.18908 0.0
H778 H 0.5166 0.91359 0.1845 0.0
H779 H 0.4785 0.94647 0.12116 0.0
H780 H 0.53274 0.09426 0.09945 0.0
H781 H 0.52617 0.03942 0.10436 0.0
H782 H 0.54436 0.00932 0.16733 0.0
C783 C 0.51443 0.89933 0.17063 0.0
C784 C 0.49336 0.95971 0.13121 0.0
C785 C 0.51594 0.8679 0.17336 0.0
C786 C 0.52627 0.08574 0.11488 0.0
C787 C 0.52235 0.05446 0.11766 0.0
C788 C 0.52985 0.99574 0.15723 0.0
C789 C 0.51022 0.91207 0.15036 0.0
C790 C 0.5107 0.94576 0.14726 0.0
C791 C 0.51471 0.04266 0.13764 0.0
C792 C 0.51288 0.00942 0.14104 0.0
H793 H 0.50483 0.84608 0.12224 0.0
H794 H 0.50363 0.90091 0.11712 0.0
H795 H 0.54336 0.95465 0.17235 0.0
H796 H 0.51016 0.10894 0.16515 0.0
H797 H 0.50407 0.0542 0.17014 0.0
C798 C 0.64033 0.50242 0.6358 0.0
C799 C 0.65252 0.50883 0.65584 0.0
C800 C 0.60888 0.50129 0.63283 0.0
C801 C 0.5368 0.52609 0.6586 0.0
H802 H 0.5 0.47438 0.61607 0.0
C803 C 0.40721 0.51151 0.65046 0.0
C804 C 0.39557 0.51739 0.63014 0.0
C805 C 0.43842 0.50821 0.6536 0.0
C806 C 0.51006 0.48896 0.62796 0.0
H807 H 0.64168 0.51759 0.68867 0.0
H808 H 0.58688 0.51423 0.68388 0.0
H809 H 0.55473 0.4719 0.6221 0.0
H810 H 0.4073 0.52326 0.59709 0.0
H811 H 0.46208 0.51687 0.60253 0.0
H812 H 0.49187 0.54247 0.66476 0.0
C813 C 0.60135 0.5113 0.67017 0.0
C814 C 0.54144 0.48772 0.63137 0.0
C815 C 0.63276 0.51303 0.67301 0.0
C816 C 0.41572 0.51897 0.61292 0.0
C817 C 0.44694 0.51511 0.61601 0.0
C818 C 0.50543 0.5269 0.65545 0.0
C819 C 0.58889 0.506 0.64995 0.0
C820 C 0.5553 0.50642 0.64667 0.0
C821 C 0.4586 0.5102 0.63644 0.0
C822 C 0.49179 0.50849 0.64003 0.0
H823 H 0.65515 0.49943 0.62227 0.0
H824 H 0.60032 0.49763 0.61697 0.0
H825 H 0.54652 0.54141 0.67015 0.0
H826 H 0.39223 0.51045 0.66405 0.0
H827 H 0.44684 0.5043 0.66949 0.0
C828 C 0.99202 0.40796 0.14896 0.0
C829 C 0.98717 0.39548 0.12879 0.0
C830 C 0.99534 0.43927 0.15155 0.0
C831 C 0.98031 0.51239 0.12366 0.0
H832 H 0.02916 0.54523 0.16933 0.0
C833 C 0.00266 0.64097 0.13454 0.0
C834 C 0.99506 0.65217 0.15469 0.0
C835 C 0.00416 0.6097 0.13089 0.0
C836 C 0.01543 0.53631 0.15652 0.0
H837 H 0.98317 0.40576 0.0954 0.0
H838 H 0.99022 0.46029 0.09966 0.0
H839 H 0.02813 0.49057 0.16336 0.0
H840 H 0.98412 0.63967 0.18694 0.0
H841 H 0.98746 0.5849 0.18071 0.0
H842 H 0.9683 0.55842 0.11663 0.0
C843 C 0.99037 0.44615 0.11367 0.0
C844 C 0.01463 0.50496 0.15315 0.0
C845 C 0.98649 0.41486 0.11116 0.0
C846 C 0.98985 0.63156 0.17126 0.0
C847 C 0.99194 0.60032 0.16772 0.0
C848 C 0.98158 0.54375 0.12681 0.0
C849 C 0.99442 0.45889 0.13395 0.0
C850 C 0.99673 0.49247 0.13683 0.0
C851 C 0.99869 0.5891 0.14744 0.0
C852 C 0.99886 0.55597 0.14342 0.0
H853 H 0.99225 0.39355 0.16285 0.0
H854 H 0.99777 0.44806 0.16746 0.0
H855 H 0.96576 0.50381 0.11121 0.0
H856 H 0.0065 0.65638 0.12146 0.0
H857 H 0.0095 0.6016 0.11513 0.0
C858 C 0.86129 0.99369 0.63438 0.0
C859 C 0.84841 0.98834 0.65436 0.0
C860 C 0.89288 0.99392 0.63178 0.0
C861 C 0.96439 0.97011 0.65951 0.0
H862 H 0.00264 0.01782 0.61534 0.0
C863 C 0.09459 0.98617 0.65255 0.0
C864 C 0.10688 0.97745 0.63292 0.0
C865 C 0.06317 0.98917 0.6551 0.0
C866 C 0.99218 0.00436 0.62771 0.0
H867 H 0.85822 0.98046 0.68744 0.0
H868 H 0.91317 0.9825 0.68333 0.0
H869 H 0.94777 0.02089 0.62041 0.0
H870 H 0.09609 0.96608 0.60043 0.0
H871 H 0.04103 0.97221 0.60474 0.0
H872 H 0.00919 0.95454 0.66718 0.0
C873 C 0.8992 0.98513 0.66936 0.0
C874 C 0.96067 0.0059 0.63057 0.0
C875 C 0.86766 0.98419 0.67182 0.0
C876 C 0.08717 0.97264 0.61574 0.0
C877 C 0.05577 0.97631 0.61818 0.0
C878 C 0.99591 0.96913 0.65694 0.0
C879 C 0.91239 0.98947 0.64923 0.0
C880 C 0.9462 0.98862 0.64644 0.0
C881 C 0.04346 0.98418 0.63796 0.0
C882 C 0.01009 0.98607 0.64094 0.0
H883 H 0.84687 0.99665 0.62064 0.0
H884 H 0.90187 0.9968 0.61596 0.0
H885 H 0.95434 0.95582 0.67155 0.0
H886 H 0.10925 0.98979 0.66608 0.0
H887 H 0.05424 0.99535 0.6705 0.0
C888 C 0.51363 0.63254 0.82483 0.0
C889 C 0.51044 0.65223 0.84212 0.0
C890 C 0.51216 0.60114 0.82768 0.0
C891 C 0.49163 0.541 0.86732 0.0
H892 H 0.54284 0.4915 0.83124 0.0
C893 C 0.52467 0.4149 0.88342 0.0
C894 C 0.52036 0.39497 0.86631 0.0
C895 C 0.52074 0.44619 0.88075 0.0
C896 C 0.52828 0.50505 0.84133 0.0
H897 H 0.50316 0.65475 0.87594 0.0
H898 H 0.50197 0.59994 0.88125 0.0
H899 H 0.54165 0.54615 0.82617 0.0
H900 H 0.50855 0.39208 0.83306 0.0
H901 H 0.50243 0.44683 0.82828 0.0
H902 H 0.4796 0.4995 0.88306 0.0
C903 C 0.50455 0.60851 0.86529 0.0
C904 C 0.52736 0.53644 0.83836 0.0
C905 C 0.50535 0.63998 0.86232 0.0
C906 C 0.51175 0.4069 0.84655 0.0
C907 C 0.50844 0.43818 0.84379 0.0
C908 C 0.49307 0.5096 0.87055 0.0
C909 C 0.50822 0.58857 0.84802 0.0
C910 C 0.5089 0.55495 0.85122 0.0
C911 C 0.51309 0.45812 0.86082 0.0
C912 C 0.5113 0.49136 0.85751 0.0
H913 H 0.51718 0.64153 0.80905 0.0
H914 H 0.5142 0.58678 0.81385 0.0
H915 H 0.47673 0.55423 0.87734 0.0
H916 H 0.53114 0.40625 0.89882 0.0
H917 H 0.52457 0.46114 0.8941 0.0
C918 C 0.86573 0.54329 0.34638 0.0
C919 C 0.84866 0.51637 0.34581 0.0
C920 C 0.89722 0.54247 0.3486 0.0
C921 C 0.96163 0.49472 0.36587 0.0
H922 H 0.00782 0.55282 0.33285 0.0
C923 C 0.09436 0.50041 0.36466 0.0
C924 C 0.10685 0.52974 0.36603 0.0
C925 C 0.06299 0.49634 0.36204 0.0
C926 C 0.99527 0.53658 0.34229 0.0
H927 H 0.85146 0.46737 0.34755 0.0
H928 H 0.90685 0.46588 0.35134 0.0
H929 H 0.95306 0.54981 0.32842 0.0
H930 H 0.09592 0.57771 0.36561 0.0
H931 H 0.04161 0.57065 0.3613 0.0
H932 H 0.00419 0.48162 0.37973 0.0
C933 C 0.89565 0.48768 0.35019 0.0
C934 C 0.96383 0.53487 0.33978 0.0
C935 C 0.86393 0.48851 0.34801 0.0
C936 C 0.08719 0.55481 0.36489 0.0
C937 C 0.056 0.55076 0.36214 0.0
C938 C 0.99325 0.49637 0.36833 0.0
C939 C 0.9127 0.51469 0.35024 0.0
C940 C 0.94648 0.51439 0.35184 0.0
C941 C 0.04351 0.52153 0.3605 0.0
C942 C 0.01032 0.51777 0.35686 0.0
H943 H 0.85473 0.56518 0.34532 0.0
H944 H 0.90946 0.56376 0.34917 0.0
H945 H 0.94897 0.47877 0.37547 0.0
H946 H 0.10878 0.4806 0.36564 0.0
H947 H 0.05406 0.47353 0.36077 0.0
C948 C 0.98666 0.08724 0.88615 0.0
C949 C 0.98703 0.10677 0.8686 0.0
C950 C 0.99038 0.05597 0.88348 0.0
C951 C 0.01313 0.99712 0.84352 0.0
H952 H 0.9676 0.94397 0.88075 0.0
C953 C 0.98772 0.87016 0.82631 0.0
C954 C 0.99349 0.84978 0.84294 0.0
C955 C 0.98984 0.90147 0.82961 0.0
C956 C 0.98065 0.95855 0.87036 0.0
H957 H 0.99156 0.109 0.83451 0.0
H958 H 0.99679 0.05447 0.82962 0.0
H959 H 0.96548 0.99858 0.88613 0.0
H960 H 0.00595 0.84608 0.87601 0.0
H961 H 0.00895 0.90093 0.88194 0.0
H962 H 0.02699 0.95672 0.82719 0.0
C963 C 0.99468 0.06314 0.84559 0.0
C964 C 0.97963 0.98992 0.87349 0.0
C965 C 0.99155 0.09446 0.84834 0.0
C966 C 1.00163 0.8613 0.86289 0.0
C967 C 0.00316 0.89261 0.86631 0.0
C968 C 0.01366 0.96574 0.84016 0.0
C969 C 0.99393 0.04335 0.86311 0.0
C970 C 0.99582 0.00974 0.8601 0.0
C971 C 0.99716 0.91299 0.84972 0.0
C972 C 0.99741 0.94618 0.85355 0.0
H973 H 0.98362 0.09622 0.90197 0.0
H974 H 0.99044 0.04173 0.89744 0.0
H975 H 0.02643 0.01141 0.83311 0.0
H976 H 0.98159 0.86182 0.81076 0.0
H977 H 0.98495 0.9167 0.81658 0.0
C978 C 0.4158 0.95177 0.37294 0.0
C979 C 0.39631 0.97646 0.36926 0.0
C980 C 0.44722 0.95491 0.37088 0.0
C981 C 0.50687 0.00327 0.34666 0.0
H982 H 0.55904 0.9587 0.38512 0.0
C983 C 0.63918 0.01211 0.34601 0.0
C984 C 0.6547 0.98426 0.34705 0.0
C985 C 0.60768 0.01338 0.3492 0.0
C986 C 0.54479 0.97117 0.37418 0.0
H987 H 0.39488 0.02402 0.36059 0.0
H988 H 0.44986 0.02963 0.35719 0.0
H989 H 0.50425 0.95725 0.39004 0.0
H990 H 0.64929 0.93606 0.35268 0.0
H991 H 0.59465 0.93825 0.3582 0.0
H992 H 0.54774 0.01722 0.33088 0.0
C993 C 0.44072 0.00765 0.3614 0.0
C994 C 0.51332 0.97029 0.37695 0.0
C995 C 0.40915 0.00445 0.36338 0.0
C996 C 0.63805 0.95782 0.3515 0.0
C997 C 0.60674 0.95912 0.35491 0.0
C998 C 0.53846 0.00433 0.34398 0.0
C999 C 0.46019 0.9829 0.36517 0.0
C1000 C 0.49385 0.98585 0.36301 0.0
C1001 C 0.59114 0.98689 0.35382 0.0
C1002 C 0.55774 0.98784 0.35749 0.0
H1003 H 0.40676 0.92971 0.37701 0.0
H1004 H 0.46132 0.93512 0.3734 0.0
H1005 H 0.49264 0.01534 0.3355 0.0
H1006 H 0.65134 0.03284 0.34248 0.0
H1007 H 0.59632 0.03514 0.34835 0.0
C1008 C 0.49973 0.14081 0.86347 0.0
C1009 C 0.49199 0.15221 0.8434 0.0
C1010 C 0.50121 0.10951 0.86699 0.0
C1011 C 0.51256 0.03637 0.84111 0.0
H1012 H 0.46302 0.00332 0.88631 0.0
C1013 C 0.49018 0.90771 0.84842 0.0
C1014 C 0.48508 0.89513 0.86854 0.0
C1015 C 0.49334 0.93906 0.84589 0.0
C1016 C 0.47754 0.01204 0.87389 0.0
H1017 H 0.48077 0.13999 0.81114 0.0
H1018 H 0.48411 0.08515 0.81714 0.0
H1019 H 0.46529 0.05797 0.88105 0.0
H1020 H 0.48051 0.90528 0.9019 0.0
H1021 H 0.48735 0.95986 0.89778 0.0
H1022 H 0.52557 0.99075 0.83416 0.0
C1023 C 0.48869 0.10046 0.83018 0.0
C1024 C 0.47865 0.04343 0.87083 0.0
C1025 C 0.48659 0.13174 0.82677 0.0
C1026 C 0.48404 0.91445 0.88618 0.0
C1027 C 0.48778 0.94578 0.88374 0.0
C1028 C 0.51195 0.00498 0.8444 0.0
C1029 C 0.49561 0.08904 0.85039 0.0
C1030 C 0.49588 0.05587 0.85427 0.0
C1031 C 0.49202 0.95864 0.86351 0.0
C1032 C 0.49411 0.99228 0.86068 0.0
H1033 H 0.50375 0.15612 0.87658 0.0
H1034 H 0.50668 0.10127 0.8827 0.0
H1035 H 0.52626 0.04545 0.82834 0.0
H1036 H 0.49069 0.89334 0.83451 0.0
H1037 H 0.49594 0.9479 0.83 0.0
C1038 C 0.36853 0.48125 0.32874 0.0
C1039 C 0.34847 0.48722 0.34553 0.0
C1040 C 0.39996 0.48262 0.33185 0.0
C1041 C 0.45782 0.4718 0.37191 0.0
H1042 H 0.5104 0.51807 0.33476 0.0
C1043 C 0.58721 0.47665 0.38648 0.0
C1044 C 0.60644 0.47792 0.36878 0.0
C1045 C 0.55581 0.48023 0.38416 0.0
C1046 C 0.49621 0.5046 0.34512 0.0
H1047 H 0.34547 0.49919 0.37872 0.0
H1048 H 0.40056 0.5008 0.38433 0.0
H1049 H 0.45557 0.51929 0.32939 0.0
H1050 H 0.60798 0.4837 0.33476 0.0
H1051 H 0.55328 0.48862 0.33046 0.0
H1052 H 0.49808 0.45583 0.38707 0.0
C1053 C 0.39188 0.49544 0.36871 0.0
C1054 C 0.46473 0.50552 0.34209 0.0
C1055 C 0.36045 0.49471 0.36549 0.0
C1056 C 0.59368 0.483 0.34871 0.0
C1057 C 0.56225 0.48597 0.34631 0.0
C1058 C 0.4893 0.47038 0.3747 0.0
C1059 C 0.41194 0.48936 0.35193 0.0
C1060 C 0.44525 0.48912 0.35545 0.0
C1061 C 0.54276 0.48453 0.36399 0.0
C1062 C 0.50904 0.48672 0.36133 0.0
H1063 H 0.35986 0.47564 0.31318 0.0
H1064 H 0.41492 0.47769 0.31867 0.0
H1065 H 0.4433 0.45866 0.38229 0.0
H1066 H 0.59652 0.47316 0.40216 0.0
H1067 H 0.54183 0.47971 0.39826 0.0
C1068 C 0.00453 0.36181 0.86565 0.0
C1069 C 0.01019 0.35046 0.84523 0.0
C1070 C 0.00326 0.39312 0.86923 0.0
C1071 C 0.98877 0.4662 0.84415 0.0
H1072 H 0.04469 0.49945 0.88547 0.0
C1073 C 0.01334 0.59465 0.84857 0.0
C1074 C 0.02173 0.60755 0.86803 0.0
C1075 C 0.00938 0.56331 0.84666 0.0
C1076 C 0.0284 0.49069 0.87419 0.0
H1077 H 0.01784 0.36272 0.81247 0.0
H1078 H 0.01477 0.41754 0.81861 0.0
H1079 H 0.0413 0.44475 0.88079 0.0
H1080 H 0.03129 0.59807 0.90096 0.0
H1081 H 0.023 0.54352 0.89804 0.0
H1082 H 0.97514 0.5118 0.83781 0.0
C1083 C 0.01169 0.40221 0.83185 0.0
C1084 C 0.02664 0.45926 0.87146 0.0
C1085 C 0.01362 0.37095 0.82836 0.0
C1086 C 0.0252 0.5886 0.88572 0.0
C1087 C 0.02062 0.55729 0.88395 0.0
C1088 C 0.99004 0.49761 0.84717 0.0
C1089 C 0.00694 0.41359 0.85236 0.0
C1090 C 0.00714 0.44676 0.85622 0.0
C1091 C 0.01312 0.54407 0.8643 0.0
C1092 C 0.01023 0.51041 0.86202 0.0
H1093 H 1.00207 0.34648 0.87893 0.0
H1094 H 0.99951 0.40136 0.88518 0.0
H1095 H 0.97334 0.45705 0.83242 0.0
H1096 H 0.01091 0.60874 0.83462 0.0
H1097 H 0.00425 0.55418 0.83116 0.0
C1098 C 0.91579 0.05747 0.36805 0.0
C1099 C 0.89573 0.03299 0.365 0.0
C1100 C 0.94713 0.05369 0.3658 0.0
C1101 C 0.00852 0.99589 0.36357 0.0
H1102 H 0.05261 0.06112 0.33619 0.0
C1103 C 0.14055 1.00153 0.36042 0.0
C1104 C 0.15396 0.01407 0.3422 0.0
C1105 C 0.10891 1.00163 0.36294 0.0
C1106 C 0.04069 0.04249 0.34366 0.0
H1107 H 0.89373 0.98487 0.35769 0.0
H1108 H 0.94824 0.97857 0.35324 0.0
H1109 H 0.99813 0.0654 0.34103 0.0
H1110 H 0.14457 0.03486 0.31182 0.0
H1111 H 0.08963 0.03462 0.31597 0.0
H1112 H 0.05123 0.97272 0.36571 0.0
C1113 C 0.9396 1.00069 0.35762 0.0
C1114 C 0.0094 0.04516 0.34674 0.0
C1115 C 0.90816 0.00443 0.35996 0.0
C1116 C 0.13499 0.0256 0.32623 0.0
C1117 C 0.10345 0.02553 0.32866 0.0
C1118 C 0.03994 0.99318 0.36044 0.0
C1119 C 0.95948 0.02537 0.36028 0.0
C1120 C 0.99286 0.022 0.35683 0.0
C1121 C 0.08997 0.01412 0.34723 0.0
C1122 C 0.05645 0.01648 0.35044 0.0
H1123 H 0.90742 0.07989 0.37174 0.0
H1124 H 0.96171 0.07313 0.36835 0.0
H1125 H 0.9966 0.9777 0.37153 0.0
H1126 H 0.15454 0.99271 0.3731 0.0
H1127 H 0.0994 0.99289 0.37753 0.0
C1128 C 0.48915 0.36937 0.17061 0.0
C1129 C 0.49317 0.34892 0.15378 0.0
C1130 C 0.49088 0.40067 0.16714 0.0
C1131 C 0.47641 0.45777 0.12748 0.0
H1132 H 0.52767 0.51039 0.16123 0.0
C1133 C 0.47844 0.58706 0.11268 0.0
C1134 C 0.48213 0.6062 0.13024 0.0
C1135 C 0.48273 0.55572 0.11464 0.0
C1136 C 0.51281 0.49619 0.15184 0.0
H1137 H 0.50212 0.34505 0.12018 0.0
H1138 H 0.50427 0.39997 0.11396 0.0
H1139 H 0.52929 0.45567 0.16679 0.0
H1140 H 0.49298 0.60768 0.16365 0.0
H1141 H 0.49909 0.55311 0.16745 0.0
H1142 H 0.45858 0.49791 0.11326 0.0
C1143 C 0.50022 0.39168 0.12986 0.0
C1144 C 0.51399 0.46478 0.15496 0.0
C1145 C 0.49918 0.36035 0.13343 0.0
C1146 C 0.49039 0.59345 0.14978 0.0
C1147 C 0.49404 0.56208 0.15189 0.0
C1148 C 0.47473 0.4892 0.12465 0.0
C1149 C 0.496 0.41211 0.14669 0.0
C1150 C 0.49575 0.4453 0.14284 0.0
C1151 C 0.49014 0.54265 0.13437 0.0
C1152 C 0.49283 0.50897 0.13684 0.0
H1153 H 0.48466 0.36109 0.18645 0.0
H1154 H 0.4874 0.41596 0.18035 0.0
H1155 H 0.46186 0.44322 0.11809 0.0
H1156 H 0.47243 0.5964 0.09739 0.0
H1157 H 0.48024 0.54182 0.10063 0.0
C1158 C 0.14074 0.50315 0.63353 0.0
C1159 C 0.1519 0.49621 0.65381 0.0
C1160 C 0.10946 0.50456 0.62984 0.0
C1161 C 0.03592 0.51644 0.65524 0.0
H1162 H 0.00365 0.46477 0.61097 0.0
C1163 C 0.9079 0.49067 0.64888 0.0
C1164 C 0.89521 0.48499 0.62887 0.0
C1165 C 0.93919 0.49464 0.65118 0.0
C1166 C 0.01216 0.47986 0.62311 0.0
H1167 H 0.13933 0.48642 0.68623 0.0
H1168 H 0.08453 0.48959 0.67991 0.0
H1169 H 0.05832 0.46805 0.61618 0.0
H1170 H 0.90505 0.48018 0.59548 0.0
H1171 H 0.95958 0.48833 0.59922 0.0
H1172 H 0.99004 0.52888 0.66199 0.0
C1173 C 0.09999 0.49363 0.66686 0.0
C1174 C 0.04355 0.48158 0.62614 0.0
C1175 C 0.13124 0.49163 0.67045 0.0
C1176 C 0.91434 0.48414 0.61111 0.0
C1177 C 0.94561 0.48866 0.61332 0.0
C1178 C 0.00454 0.51519 0.65198 0.0
C1179 C 0.08881 0.49967 0.64645 0.0
C1180 C 0.05569 0.49956 0.6424 0.0
C1181 C 0.95857 0.49356 0.63344 0.0
C1182 C 0.99215 0.49651 0.63606 0.0
H1183 H 0.1562 0.50651 0.6204 0.0
H1184 H 0.10138 0.50934 0.61398 0.0
H1185 H 0.04478 0.53071 0.66777 0.0
H1186 H 0.89369 0.49103 0.66288 0.0
H1187 H 0.94819 0.49772 0.66698 0.0
C1188 C 0.01275 0.90743 0.15093 0.0
C1189 C 0.0187 0.89552 0.1307 0.0
C1190 C 0.00984 0.93871 0.1539 0.0
C1191 C 0.99175 0.01025 0.12777 0.0
H1192 H 0.04433 0.04657 0.16995 0.0
C1193 C 0.00639 0.1404 0.1349 0.0
C1194 C 0.01284 0.15277 0.15488 0.0
C1195 C 0.00505 0.10894 0.1321 0.0
C1196 C 0.02897 0.03691 0.1584 0.0
H1197 H 0.0251 0.90683 0.09763 0.0
H1198 H 0.01935 0.96168 0.10276 0.0
H1199 H 0.04472 0.9919 0.16494 0.0
H1200 H 0.02149 0.14224 0.18777 0.0
H1201 H 0.01775 0.08748 0.18328 0.0
H1202 H 0.97529 0.05501 0.12154 0.0
C1203 C 0.01725 0.94673 0.11631 0.0
C1204 C 0.02939 0.00551 0.15546 0.0
C1205 C 0.02073 0.91545 0.11339 0.0
C1206 C 0.01691 0.13318 0.17215 0.0
C1207 C 0.01497 0.10178 0.16948 0.0
C1208 C 0.99088 0.04167 0.13097 0.0
C1209 C 0.01227 0.95866 0.13665 0.0
C1210 C 0.01094 0.9919 0.14004 0.0
C1211 C 0.00958 0.08912 0.14934 0.0
C1212 C 0.00963 0.0555 0.14626 0.0
H1213 H 0.01133 0.89262 0.16458 0.0
H1214 H 0.00587 0.94734 0.16973 0.0
H1215 H 0.97713 1.00024 0.11588 0.0
H1216 H 0.0035 0.15507 0.12129 0.0
H1217 H 1.00134 0.10025 0.11628 0.0
C1218 C 0.36408 0.99227 0.64934 0.0
C1219 C 0.34883 0.02028 0.65034 0.0
C1220 C 0.39555 0.99115 0.64589 0.0
C1221 C 0.4589 0.03686 0.6243 0.0
H1222 H 0.51067 0.98598 0.65901 0.0
C1223 C 0.58739 0.05717 0.62961 0.0
C1224 C 0.6072 0.03217 0.63054 0.0
C1225 C 0.55598 0.0532 0.63083 0.0
C1226 C 0.49652 0.99998 0.64895 0.0
H1227 H 0.35476 0.06899 0.64802 0.0
H1228 H 0.40924 0.06708 0.64221 0.0
H1229 H 0.45549 0.98333 0.66317 0.0
H1230 H 0.60902 0.98317 0.63346 0.0
H1231 H 0.55405 0.97625 0.6356 0.0
H1232 H 0.49966 0.05372 0.61018 0.0
C1233 C 0.397 0.04594 0.64403 0.0
C1234 C 0.46489 0.99847 0.65135 0.0
C1235 C 0.36574 0.04705 0.64763 0.0
C1236 C 0.59459 0.003 0.63284 0.0
C1237 C 0.56302 0.99901 0.63408 0.0
C1238 C 0.4904 0.0383 0.62186 0.0
C1239 C 0.41234 0.01802 0.6431 0.0
C1240 C 0.44575 0.01736 0.63934 0.0
C1241 C 0.54332 0.0241 0.63302 0.0
C1242 C 0.50969 0.02037 0.63445 0.0
H1243 H 0.35175 0.97126 0.65149 0.0
H1244 H 0.40667 0.96927 0.64517 0.0
H1245 H 0.4448 0.05125 0.61447 0.0
H1246 H 0.59609 0.08003 0.62837 0.0
H1247 H 0.54162 0.07312 0.63046 0.0
C1248 C 0.85449 0.28561 0.18896 0.0
C1249 C 0.87516 0.26202 0.19278 0.0
C1250 C 0.82584 0.28538 0.1983 0.0
C1251 C 0.76929 0.23133 0.21665 0.0
H1252 H 0.72379 0.30556 0.2255 0.0
C1253 C 0.6389 0.23251 0.21187 0.0
C1254 C 0.62914 0.25317 0.19638 0.0
C1255 C 0.66826 0.23462 0.22026 0.0
C1256 C 0.73621 0.28459 0.22326 0.0
H1257 H 0.88274 0.22051 0.21037 0.0
H1258 H 0.83224 0.22002 0.22683 0.0
H1259 H 0.77915 0.30705 0.22521 0.0
H1260 H 0.64119 0.29318 0.17844 0.0
H1261 H 0.69211 0.29734 0.19327 0.0
H1262 H 0.7263 0.20911 0.21387 0.0
C1263 C 0.83826 0.23861 0.21643 0.0
C1264 C 0.76789 0.28543 0.22307 0.0
C1265 C 0.86717 0.23893 0.2071 0.0
C1266 C 0.6483 0.27706 0.19041 0.0
C1267 C 0.67734 0.2795 0.19903 0.0
C1268 C 0.73756 0.23046 0.21705 0.0
C1269 C 0.81704 0.26153 0.21176 0.0
C1270 C 0.78473 0.25914 0.21843 0.0
C1271 C 0.68801 0.25778 0.21355 0.0
C1272 C 0.72073 0.25738 0.21914 0.0
H1273 H 0.86021 0.30397 0.17827 0.0
H1274 H 0.81006 0.30319 0.19402 0.0
H1275 H 0.78148 0.21063 0.21308 0.0
H1276 H 0.62446 0.21378 0.21657 0.0
H1277 H 0.6759 0.21754 0.23137 0.0
C1278 C 0.29031 0.65166 0.6899 0.0
C1279 C 0.26623 0.63166 0.69401 0.0
C1280 C 0.291 0.68034 0.69911 0.0
C1281 C 0.23837 0.73814 0.71778 0.0
H1282 H 0.31367 0.78264 0.72471 0.0
C1283 C 0.24104 0.86827 0.71246 0.0
C1284 C 0.26068 0.87752 0.69616 0.0
C1285 C 0.24342 0.83904 0.72102 0.0
C1286 C 0.29243 0.7705 0.72301 0.0
H1287 H 0.22493 0.62525 0.71211 0.0
H1288 H 0.22613 0.67575 0.72842 0.0
H1289 H 0.31434 0.72731 0.7249 0.0
H1290 H 0.29938 0.86473 0.67705 0.0
H1291 H 0.30393 0.81402 0.69212 0.0
H1292 H 0.21665 0.78138 0.71511 0.0
C1293 C 0.24433 0.66922 0.71782 0.0
C1294 C 0.29278 0.73883 0.72309 0.0
C1295 C 0.2437 0.64029 0.70859 0.0
C1296 C 0.28399 0.85802 0.6896 0.0
C1297 C 0.28668 0.8291 0.69835 0.0
C1298 C 0.23798 0.76984 0.71793 0.0
C1299 C 0.26764 0.68986 0.71276 0.0
C1300 C 0.26603 0.72232 0.71915 0.0
C1301 C 0.26581 0.81891 0.71363 0.0
C1302 C 0.26524 0.78629 0.71936 0.0
H1303 H 0.30829 0.64542 0.67902 0.0
H1304 H 0.3091 0.69562 0.69453 0.0
H1305 H 0.21731 0.72624 0.71474 0.0
H1306 H 0.22279 0.88294 0.71767 0.0
H1307 H 0.22707 0.83178 0.73278 0.0
C1308 C 0.85246 0.21569 0.81015 0.0
C1309 C 0.8731 0.23917 0.80586 0.0
C1310 C 0.8238 0.2155 0.80084 0.0
C1311 C 0.76715 0.26848 0.78077 0.0
H1312 H 0.72214 0.19368 0.77319 0.0
C1313 C 0.63678 0.26704 0.7847 0.0
C1314 C 0.62721 0.24733 0.80085 0.0
C1315 C 0.6661 0.26449 0.77625 0.0
C1316 C 0.73443 0.21481 0.77498 0.0
H1317 H 0.88054 0.27999 0.78746 0.0
H1318 H 0.8301 0.27963 0.77097 0.0
H1319 H 0.77745 0.19237 0.77445 0.0
H1320 H 0.63951 0.2084 0.81985 0.0
H1321 H 0.69033 0.20361 0.80506 0.0
H1322 H 0.72402 0.2907 0.78223 0.0
C1323 C 0.83613 0.26153 0.78177 0.0
C1324 C 0.76608 0.21406 0.77585 0.0
C1325 C 0.86502 0.26166 0.79112 0.0
C1326 C 0.64648 0.22384 0.80741 0.0
C1327 C 0.67547 0.221 0.79879 0.0
C1328 C 0.73544 0.26924 0.77977 0.0
C1329 C 0.81495 0.23875 0.7869 0.0
C1330 C 0.78271 0.24064 0.78002 0.0
C1331 C 0.68599 0.24187 0.78362 0.0
C1332 C 0.71875 0.24217 0.77811 0.0
H1333 H 0.85823 0.19772 0.82114 0.0
H1334 H 0.80807 0.19782 0.80545 0.0
H1335 H 0.77917 0.28941 0.78393 0.0
H1336 H 0.62225 0.28542 0.7795 0.0
H1337 H 0.67362 0.28083 0.76455 0.0
C1338 C 0.24179 0.86432 0.28846 0.0
C1339 C 0.26368 0.87289 0.3035 0.0
C1340 C 0.24262 0.83526 0.27941 0.0
C1341 C 0.29116 0.76577 0.27494 0.0
H1342 H 0.21506 0.72279 0.2818 0.0
C1343 C 0.28343 0.64654 0.30767 0.0
C1344 C 0.25985 0.62699 0.30161 0.0
C1345 C 0.28582 0.6754 0.29878 0.0
C1346 C 0.2364 0.73443 0.27923 0.0
H1347 H 0.3048 0.85897 0.31961 0.0
H1348 H 0.30612 0.80865 0.30423 0.0
H1349 H 0.21548 0.77794 0.28254 0.0
H1350 H 0.22129 0.62148 0.28068 0.0
H1351 H 0.22524 0.67242 0.26521 0.0
H1352 H 0.31228 0.72214 0.27306 0.0
C1353 C 0.28835 0.82402 0.29921 0.0
C1354 C 0.23664 0.76614 0.27966 0.0
C1355 C 0.28739 0.85277 0.30828 0.0
C1356 C 0.23972 0.63616 0.28557 0.0
C1357 C 0.24189 0.66529 0.27682 0.0
C1358 C 0.29093 0.73411 0.27462 0.0
C1359 C 0.26558 0.81454 0.28509 0.0
C1360 C 0.26425 0.78209 0.2787 0.0
C1361 C 0.2645 0.68549 0.28377 0.0
C1362 C 0.26376 0.71811 0.27792 0.0
H1363 H 0.22334 0.87951 0.28447 0.0
H1364 H 0.22486 0.8287 0.26847 0.0
H1365 H 0.3127 0.77743 0.27344 0.0
H1366 H 0.29936 0.6399 0.3199 0.0
H1367 H 0.30328 0.69047 0.30471 0.0
C1368 C 0.14803 0.77783 0.80672 0.0
C1369 C 0.12857 0.75435 0.80041 0.0
C1370 C 0.17676 0.78069 0.79769 0.0
C1371 C 0.23636 0.73288 0.77777 0.0
H1372 H 0.27739 0.81005 0.77105 0.0
C1373 C 0.36589 0.74149 0.78774 0.0
C1374 C 0.37398 0.76435 0.80219 0.0
C1375 C 0.33695 0.74138 0.77845 0.0
C1376 C 0.26631 0.78827 0.77284 0.0
H1377 H 0.12304 0.71625 0.77915 0.0
H1378 H 0.174 0.72083 0.76352 0.0
H1379 H 0.22208 0.80819 0.77089 0.0
H1380 H 0.35926 0.80625 0.81689 0.0
H1381 H 0.30907 0.80578 0.80132 0.0
H1382 H 0.2804 0.71318 0.7813 0.0
C1383 C 0.1668 0.73717 0.77531 0.0
C1384 C 0.23464 0.78722 0.7726 0.0
C1385 C 0.13772 0.73461 0.78416 0.0
C1386 C 0.35345 0.78803 0.8061 0.0
C1387 C 0.32476 0.78798 0.79687 0.0
C1388 C 0.26808 0.73395 0.77817 0.0
C1389 C 0.18684 0.75986 0.78236 0.0
C1390 C 0.21936 0.75976 0.77624 0.0
C1391 C 0.31576 0.76426 0.78337 0.0
C1392 C 0.28335 0.76192 0.77692 0.0
H1393 H 0.14138 0.79331 0.81921 0.0
H1394 H 0.19178 0.79813 0.8037 0.0
H1395 H 0.22522 0.71135 0.78061 0.0
H1396 H 0.38135 0.72301 0.78437 0.0
H1397 H 0.33085 0.72294 0.76796 0.0
C1398 C 0.76158 0.13558 0.28274 0.0
C1399 C 0.74119 0.12642 0.29862 0.0
C1400 C 0.75962 0.16477 0.27405 0.0
C1401 C 0.71129 0.23427 0.27235 0.0
H1402 H 0.7872 0.27683 0.28135 0.0
C1403 C 0.71562 0.35163 0.30804 0.0
C1404 C 0.73968 0.37165 0.30389 0.0
C1405 C 0.71455 0.32321 0.29848 0.0
C1406 C 0.76592 0.26542 0.27816 0.0
H1407 H 0.70142 0.13929 0.31662 0.0
H1408 H 0.69782 0.18991 0.30153 0.0
H1409 H 0.78694 0.22175 0.27964 0.0
H1410 H 0.78058 0.37837 0.28542 0.0
H1411 H 0.77877 0.32821 0.2685 0.0
H1412 H 0.69008 0.27788 0.2718 0.0
C1413 C 0.71531 0.17484 0.29566 0.0
C1414 C 0.76578 0.23374 0.27716 0.0
C1415 C 0.71748 0.14592 0.30447 0.0
C1416 C 0.76185 0.36328 0.28898 0.0
C1417 C 0.76087 0.33457 0.27939 0.0
C1418 C 0.71146 0.26591 0.27319 0.0
C1419 C 0.737 0.18503 0.28093 0.0
C1420 C 0.73822 0.2178 0.27549 0.0
C1421 C 0.73752 0.31396 0.28442 0.0
C1422 C 0.73852 0.28176 0.27739 0.0
H1423 H 0.78012 0.12092 0.27803 0.0
H1424 H 0.77653 0.17195 0.26264 0.0
H1425 H 0.6898 0.22263 0.27056 0.0
H1426 H 0.69791 0.35768 0.31919 0.0
H1427 H 0.69646 0.30792 0.30302 0.0
C1428 C 0.35672 0.77739 0.19078 0.0
C1429 C 0.37602 0.75373 0.19702 0.0
C1430 C 0.32791 0.78024 0.1997 0.0
C1431 C 0.26794 0.73242 0.21935 0.0
H1432 H 0.22734 0.80954 0.22747 0.0
C1433 C 0.13842 0.74139 0.21054 0.0
C1434 C 0.13022 0.76457 0.19636 0.0
C1435 C 0.16741 0.74111 0.21974 0.0
C1436 C 0.2383 0.78777 0.22532 0.0
H1437 H 0.38115 0.71526 0.21802 0.0
H1438 H 0.33008 0.71979 0.23339 0.0
H1439 H 0.28265 0.80755 0.22678 0.0
H1440 H 0.14477 0.80684 0.18212 0.0
H1441 H 0.19505 0.80609 0.19754 0.0
H1442 H 0.22377 0.7129 0.21627 0.0
C1443 C 0.33746 0.73631 0.22178 0.0
C1444 C 0.26997 0.78666 0.22497 0.0
C1445 C 0.36661 0.73377 0.21307 0.0
C1446 C 0.15067 0.7884 0.19269 0.0
C1447 C 0.17942 0.78818 0.20185 0.0
C1448 C 0.23622 0.73357 0.21945 0.0
C1449 C 0.31759 0.75921 0.21483 0.0
C1450 C 0.28506 0.75922 0.2209 0.0
C1451 C 0.18854 0.76413 0.21503 0.0
C1452 C 0.22106 0.76155 0.22122 0.0
H1453 H 0.36357 0.79303 0.17844 0.0
H1454 H 0.31302 0.79787 0.19378 0.0
H1455 H 0.27894 0.71091 0.21622 0.0
H1456 H 0.12301 0.72279 0.21371 0.0
H1457 H 0.1736 0.72241 0.22999 0.0
C1458 C 0.7387 0.13675 0.71388 0.0
C1459 C 0.75946 0.12743 0.69829 0.0
C1460 C 0.74073 0.16585 0.72268 0.0
C1461 C 0.78999 0.23438 0.72603 0.0
H1462 H 0.71521 0.27846 0.71605 0.0
C1463 C 0.78872 0.35232 0.69142 0.0
C1464 C 0.76471 0.37253 0.69519 0.0
C1465 C 0.78916 0.32384 0.70096 0.0
C1466 C 0.73614 0.26661 0.71956 0.0
H1467 H 0.79991 0.13994 0.68089 0.0
H1468 H 0.80369 0.19045 0.69625 0.0
H1469 H 0.71456 0.22335 0.71673 0.0
H1470 H 0.7232 0.37954 0.71294 0.0
H1471 H 0.72387 0.32933 0.72974 0.0
H1472 H 0.8118 0.27763 0.72794 0.0
C1473 C 0.78581 0.17553 0.70176 0.0
C1474 C 0.73577 0.23491 0.71991 0.0
C1475 C 0.78354 0.14671 0.6928 0.0
C1476 C 0.74193 0.36432 0.70969 0.0
C1477 C 0.74227 0.33558 0.71922 0.0
C1478 C 0.79033 0.26605 0.72586 0.0
C1479 C 0.76384 0.18584 0.71623 0.0
C1480 C 0.76298 0.2185 0.72193 0.0
C1481 C 0.76557 0.31475 0.71456 0.0
C1482 C 0.76373 0.28246 0.72129 0.0
H1483 H 0.71987 0.12227 0.71831 0.0
H1484 H 0.72356 0.17315 0.73384 0.0
H1485 H 0.81118 0.2223 0.72823 0.0
H1486 H 0.80686 0.35824 0.68058 0.0
H1487 H 0.80725 0.30836 0.69669 0.0
C1488 C 0.34737 0.00881 0.2845 0.0
C1489 C 0.33002 0.02106 0.30107 0.0
C1490 C 0.36406 0.02775 0.27113 0.0
C1491 C 0.41277 0.06974 0.2548 0.0
H1492 H 0.38451 0.14983 0.23889 0.0
C1493 C 0.49262 0.15498 0.2145 0.0
C1494 C 0.48063 0.17274 0.19805 0.0
C1495 C 0.47347 0.13784 0.22743 0.0
C1496 C 0.39266 0.12743 0.24301 0.0
H1497 H 0.31607 0.06285 0.31639 0.0
H1498 H 0.34582 0.09579 0.29351 0.0
H1499 H 0.35138 0.11647 0.25913 0.0
H1500 H 0.43909 0.18696 0.18249 0.0
H1501 H 0.40574 0.15644 0.20466 0.0
H1502 H 0.45355 0.08015 0.23803 0.0
C1503 C 0.34609 0.07162 0.29048 0.0
C1504 C 0.37378 0.10841 0.25486 0.0
C1505 C 0.32912 0.0527 0.30369 0.0
C1506 C 0.44902 0.17361 0.19512 0.0
C1507 C 0.42987 0.15618 0.2079 0.0
C1508 C 0.4315 0.08861 0.24279 0.0
C1509 C 0.36408 0.05937 0.27419 0.0
C1510 C 0.38365 0.07936 0.26098 0.0
C1511 C 0.4419 0.13774 0.22404 0.0
C1512 C 0.42178 0.11777 0.23684 0.0
H1513 H 0.34829 0.98453 0.28196 0.0
H1514 H 0.37711 0.01755 0.25845 0.0
H1515 H 0.42137 0.04773 0.25947 0.0
H1516 H 0.51687 0.15405 0.21727 0.0
H1517 H 0.48349 0.12449 0.24002 0.0
C1518 C 0.4902 0.34639 0.78339 0.0
C1519 C 0.47843 0.32856 0.79989 0.0
C1520 C 0.47087 0.36353 0.77059 0.0
C1521 C 0.42868 0.41275 0.75556 0.0
H1522 H 0.34832 0.38499 0.73972 0.0
C1523 C 0.34437 0.49292 0.71459 0.0
C1524 C 0.32688 0.48086 0.69802 0.0
C1525 C 0.361 0.47381 0.72788 0.0
C1526 C 0.37079 0.39302 0.74385 0.0
H1527 H 0.43709 0.31422 0.81566 0.0
H1528 H 0.40343 0.34474 0.79373 0.0
H1529 H 0.38173 0.35152 0.75966 0.0
H1530 H 0.31249 0.43923 0.68269 0.0
H1531 H 0.34213 0.40598 0.70545 0.0
H1532 H 0.41835 0.4537 0.73904 0.0
C1533 C 0.42753 0.34506 0.79034 0.0
C1534 C 0.38983 0.37394 0.75553 0.0
C1535 C 0.44685 0.32762 0.80299 0.0
C1536 C 0.32565 0.44923 0.69539 0.0
C1537 C 0.34258 0.43014 0.70852 0.0
C1538 C 0.40979 0.43167 0.74372 0.0
C1539 C 0.43934 0.36356 0.77416 0.0
C1540 C 0.41904 0.38357 0.76152 0.0
C1541 C 0.36083 0.44221 0.72474 0.0
C1542 C 0.38057 0.42211 0.73774 0.0
H1543 H 0.51442 0.34737 0.78048 0.0
H1544 H 0.48073 0.37693 0.75797 0.0
H1545 H 0.45079 0.42119 0.76018 0.0
H1546 H 0.34554 0.51718 0.71714 0.0
H1547 H 0.37421 0.48389 0.74051 0.0
C1548 C 0.17297 0.44995 0.30404 0.0
C1549 C 0.17167 0.48154 0.30125 0.0
C1550 C 0.15586 0.4307 0.29116 0.0
C1551 C 0.12831 0.39331 0.25585 0.0
H1552 H 0.04817 0.42031 0.2389 0.0
C1553 C 0.05546 0.32775 0.19514 0.0
C1554 C 0.02376 0.3281 0.19758 0.0
C1555 C 0.07393 0.34523 0.20834 0.0
C1556 C 0.07032 0.41218 0.24371 0.0
H1557 H 0.15238 0.51768 0.28226 0.0
H1558 H 0.12335 0.4841 0.25929 0.0
H1559 H 0.07968 0.45315 0.2605 0.0
H1560 H 0.98662 0.3459 0.21638 0.0
H1561 H 0.01885 0.37555 0.2399 0.0
H1562 H 0.1184 0.35181 0.23976 0.0
C1563 C 0.13682 0.47417 0.27185 0.0
C1564 C 0.08866 0.4313 0.25581 0.0
C1565 C 0.15366 0.49344 0.2849 0.0
C1566 C 0.01097 0.34537 0.21399 0.0
C1567 C 0.02946 0.36257 0.22736 0.0
C1568 C 0.10982 0.37404 0.24393 0.0
C1569 C 0.13732 0.44257 0.27502 0.0
C1570 C 0.11795 0.42219 0.26198 0.0
C1571 C 0.06113 0.36318 0.22445 0.0
C1572 C 0.08061 0.38326 0.23765 0.0
H1573 H 0.1865 0.44007 0.3166 0.0
H1574 H 0.15652 0.40656 0.29429 0.0
H1575 H 0.15085 0.38563 0.2601 0.0
H1576 H 0.06602 0.31479 0.18256 0.0
H1577 H 0.09815 0.3454 0.20543 0.0
C1578 C 0.05498 0.17656 0.8029 0.0
C1579 C 0.02329 0.17545 0.80044 0.0
C1580 C 0.07387 0.15923 0.7899 0.0
C1581 C 0.1105 0.13036 0.75468 0.0
H1582 H 0.08214 0.05019 0.73907 0.0
C1583 C 0.17508 0.05443 0.69531 0.0
C1584 C 0.17445 0.02287 0.69843 0.0
C1585 C 0.15769 0.07359 0.70807 0.0
C1586 C 0.09063 0.07235 0.7435 0.0
H1587 H 0.98663 0.15648 0.78176 0.0
H1588 H 0.01958 0.12707 0.75858 0.0
H1589 H 0.04985 0.08291 0.76022 0.0
H1590 H 0.1561 0.98676 0.71791 0.0
H1591 H 0.12656 0.02024 0.74065 0.0
H1592 H 0.15182 0.11925 0.73868 0.0
C1593 C 0.02986 0.14054 0.77099 0.0
C1594 C 0.07183 0.09138 0.75533 0.0
C1595 C 0.01095 0.15761 0.78417 0.0
C1596 C 0.15688 0.01097 0.71501 0.0
C1597 C 0.13975 0.03017 0.72794 0.0
C1598 C 0.12944 0.11118 0.74301 0.0
C1599 C 0.06152 0.14065 0.77396 0.0
C1600 C 0.08147 0.12067 0.76103 0.0
C1601 C 0.13952 0.06169 0.7244 0.0
C1602 C 0.11973 0.08194 0.73724 0.0
H1603 H 0.06521 0.18998 0.81538 0.0
H1604 H 0.09808 0.15964 0.79284 0.0
H1605 H 0.11859 0.15286 0.75858 0.0
H1606 H 0.18826 0.06432 0.68258 0.0
H1607 H 0.15781 0.09766 0.70468 0.0
C1608 C 0.67294 0.95084 0.69403 0.0
C1609 C 0.67125 0.98243 0.69672 0.0
C1610 C 0.65608 0.93145 0.70699 0.0
C1611 C 0.62883 0.89401 0.74249 0.0
H1612 H 0.54813 0.92016 0.75879 0.0
C1613 C 0.55525 0.82809 0.80287 0.0
C1614 C 0.52362 0.82813 0.79998 0.0
C1615 C 0.57394 0.84561 0.78981 0.0
C1616 C 0.57045 0.91227 0.75418 0.0
H1617 H 0.65154 0.01843 0.71564 0.0
H1618 H 0.6229 0.98463 0.73869 0.0
H1619 H 0.57952 0.9532 0.73726 0.0
H1620 H 0.48691 0.84526 0.7805 0.0
H1621 H 0.5195 0.87494 0.75728 0.0
H1622 H 0.6192 0.85253 0.75875 0.0
C1623 C 0.63651 0.9748 0.72616 0.0
C1624 C 0.58871 0.93151 0.74211 0.0
C1625 C 0.6531 0.99419 0.71305 0.0
C1626 C 0.51118 0.84503 0.78326 0.0
C1627 C 0.52987 0.86224 0.77005 0.0
C1628 C 0.61041 0.87461 0.75441 0.0
C1629 C 0.63739 0.9432 0.72308 0.0
C1630 C 0.61818 0.92269 0.73615 0.0
C1631 C 0.56143 0.86326 0.77343 0.0
C1632 C 0.58098 0.88352 0.76041 0.0
H1633 H 0.68661 0.94106 0.6815 0.0
H1634 H 0.65704 0.9073 0.70395 0.0
H1635 H 0.65151 0.88657 0.73839 0.0
H1636 H 0.56552 0.8154 0.8157 0.0
H1637 H 0.59808 0.84607 0.79305 0.0
C1638 C 0.51174 0.65275 0.21382 0.0
C1639 C 0.52375 0.671 0.19763 0.0
C1640 C 0.53088 0.63531 0.22656 0.0
C1641 C 0.61165 0.62514 0.24227 0.0
H1642 H 0.58333 0.54511 0.25826 0.0
C1643 C 0.65731 0.50662 0.28377 0.0
C1644 C 0.67438 0.519 0.30044 0.0
C1645 C 0.64062 0.52546 0.27031 0.0
C1646 C 0.59183 0.56721 0.25371 0.0
H1647 H 0.56533 0.68568 0.18232 0.0
H1648 H 0.59866 0.65467 0.20414 0.0
H1649 H 0.55111 0.57753 0.23684 0.0
H1650 H 0.68786 0.5609 0.31582 0.0
H1651 H 0.65815 0.59361 0.29281 0.0
H1652 H 0.65287 0.6143 0.25849 0.0
C1653 C 0.57451 0.65425 0.20734 0.0
C1654 C 0.57308 0.58608 0.24172 0.0
C1655 C 0.55537 0.67197 0.19475 0.0
C1656 C 0.67503 0.55064 0.30306 0.0
C1657 C 0.65808 0.56944 0.28976 0.0
C1658 C 0.63056 0.60613 0.2541 0.0
C1659 C 0.56247 0.63542 0.22325 0.0
C1660 C 0.58264 0.61537 0.23596 0.0
C1661 C 0.64036 0.55708 0.27337 0.0
C1662 C 0.62082 0.57697 0.26007 0.0
H1663 H 0.48748 0.6517 0.21654 0.0
H1664 H 0.52084 0.62164 0.23897 0.0
H1665 H 0.6197 0.64764 0.2383 0.0
H1666 H 0.65656 0.48234 0.28123 0.0
H1667 H 0.62778 0.51518 0.25757 0.0
C1668 C 0.82719 0.5534 0.69549 0.0
C1669 C 0.82813 0.52176 0.69809 0.0
C1670 C 0.84432 0.5723 0.70862 0.0
C1671 C 0.91146 0.5702 0.74389 0.0
H1672 H 0.88377 0.65045 0.75988 0.0
C1673 C 0.94873 0.67404 0.80328 0.0
C1674 C 0.98032 0.673 0.80024 0.0
C1675 C 0.92941 0.65664 0.79062 0.0
C1676 C 0.89177 0.628 0.75573 0.0
H1677 H 0.84655 0.4852 0.71711 0.0
H1678 H 0.8756 0.51818 0.74048 0.0
H1679 H 0.85026 0.61723 0.73985 0.0
H1680 H 0.01634 0.65401 0.78096 0.0
H1681 H 0.98265 0.6245 0.75841 0.0
H1682 H 0.95245 0.58041 0.76044 0.0
C1683 C 0.86244 0.5284 0.72788 0.0
C1684 C 0.87266 0.60906 0.744 0.0
C1685 C 0.8456 0.50949 0.71459 0.0
C1686 C 0.99211 0.65507 0.78381 0.0
C1687 C 0.97279 0.63796 0.77099 0.0
C1688 C 0.9304 0.58898 0.75579 0.0
C1689 C 0.86249 0.56002 0.7248 0.0
C1690 C 0.88232 0.57995 0.73786 0.0
C1691 C 0.94123 0.63807 0.77448 0.0
C1692 C 0.9209 0.6182 0.76177 0.0
H1693 H 0.81405 0.56356 0.68284 0.0
H1694 H 0.84406 0.59647 0.70558 0.0
H1695 H 0.91991 0.54814 0.73919 0.0
H1696 H 0.93895 0.68752 0.81589 0.0
H1697 H 0.9053 0.65705 0.79395 0.0
C1698 C 0.99184 0.8451 0.21489 0.0
C1699 C 0.97974 0.82767 0.19832 0.0
C1700 C 0.97283 0.86226 0.22791 0.0
C1701 C 0.8921 0.87366 0.24341 0.0
H1702 H 0.92161 0.95323 0.25948 0.0
C1703 C 0.84748 0.99356 0.28331 0.0
C1704 C 0.82978 0.98195 0.29994 0.0
C1705 C 0.86425 0.9741 0.27036 0.0
C1706 C 0.9128 0.93125 0.25493 0.0
H1707 H 0.93809 0.81392 0.1827 0.0
H1708 H 0.90496 0.84445 0.20504 0.0
H1709 H 0.95356 0.92018 0.23836 0.0
H1710 H 0.81533 0.94075 0.3158 0.0
H1711 H 0.84517 0.90688 0.2936 0.0
H1712 H 0.85084 0.8853 0.25934 0.0
C1713 C 0.92909 0.84447 0.20829 0.0
C1714 C 0.93139 0.91202 0.2431 0.0
C1715 C 0.94811 0.82703 0.19541 0.0
C1716 C 0.82865 0.95041 0.30305 0.0
C1717 C 0.84567 0.93095 0.29024 0.0
C1718 C 0.87337 0.89304 0.2551 0.0
C1719 C 0.94127 0.86269 0.22449 0.0
C1720 C 0.92136 0.88293 0.23726 0.0
C1721 C 0.86398 0.94258 0.27388 0.0
C1722 C 0.88351 0.92207 0.26104 0.0
H1723 H 0.0161 0.84583 0.21767 0.0
H1724 H 0.98295 0.87542 0.24055 0.0
H1725 H 0.88371 0.85132 0.23935 0.0
H1726 H 0.84862 0.01775 0.28039 0.0
H1727 H 0.87756 0.98381 0.25763 0.0
loop_
_geom_bond_atom_site_label_1
_geom_bond_atom_site_label_2
_geom_bond_distance
_geom_bond_site_symmetry_2
_ccdc_geom_bond_type
Co0 N4 2.148 . S
Co0 N10 2.128 . S
Co0 N20 2.194 . S
Co0 O25 2.351 . S
Co0 O26 2.155 . S
Co0 O27 2.096 . S
C1 N4 1.301 . S
C1 N5 1.328 . S
C1 H6 0.930 . S
C2 C3 1.333 . S
C2 N4 1.317 . S
C2 H7 0.930 . S
C3 C2 1.333 . S
C3 N5 1.350 . S
C3 H29 0.931 . S
N4 Co0 2.148 . S
N4 C1 1.301 . S
N4 C2 1.317 . S
N5 C1 1.328 . S
N5 C3 1.350 . S
H6 C1 0.930 . S
H7 C2 0.930 . S
C8 O9 1.224 . S
C8 O27 1.247 . S
O9 C8 1.224 . S
N10 Co0 2.128 . S
N10 C11 1.355 . S
N10 C13 1.311 . S
C11 N10 1.355 . S
C11 C12 1.363 . S
C11 H23 0.929 . S
C12 C11 1.363 . S
C12 N14 1.375 . S
C12 H30 0.931 . S
C13 N10 1.311 . S
C13 N14 1.347 . S
C13 H24 0.929 . S
N14 C12 1.375 . S
N14 C13 1.347 . S
C15 C18 1.365 . S
C15 N20 1.328 . S
C15 H21 0.929 . S
C16 C17 1.362 . S
C16 C19 1.378 . S
C16 H31 0.929 . S
C17 C16 1.362 . S
C17 C18 1.366 . S
C18 C15 1.365 . S
C18 C17 1.366 . S
C18 H32 0.930 . S
C19 C16 1.378 . S
C19 N20 1.315 . S
C19 H22 0.930 . S
N20 Co0 2.194 . S
N20 C15 1.328 . S
N20 C19 1.315 . S
H21 C15 0.929 . S
H22 C19 0.930 . S
H23 C11 0.929 . S
H24 C13 0.929 . S
O25 Co0 2.351 . S
O25 C28 1.244 . S
O26 Co0 2.155 . S
O26 C28 1.240 . S
O27 Co0 2.096 . S
O27 C8 1.247 . S
C28 O25 1.244 . S
C28 O26 1.240 . S
H29 C3 0.931 . S
H30 C12 0.931 . S
H31 C16 0.929 . S
H32 C18 0.930 . S
Co33 N37 2.148 . S
Co33 N43 2.128 . S
Co33 N53 2.194 . S
Co33 O58 2.351 . S
Co33 O59 2.155 . S
Co33 O60 2.096 . S
C34 N37 1.301 . S
C34 N38 1.328 . S
C34 H39 0.930 . S
C35 C36 1.333 . S
C35 N37 1.317 . S
C35 H40 0.930 . S
C36 C35 1.333 . S
C36 N38 1.350 . S
C36 H62 0.931 . S
N37 Co33 2.148 . S
N37 C34 1.301 . S
N37 C35 1.317 . S
N38 C34 1.328 . S
N38 C36 1.350 . S
H39 C34 0.930 . S
H40 C35 0.930 . S
C41 O42 1.224 . S
C41 O60 1.247 . S
O42 C41 1.224 . S
N43 Co33 2.128 . S
N43 C44 1.355 . S
N43 C46 1.311 . S
C44 N43 1.355 . S
C44 C45 1.363 . S
C44 H56 0.929 . S
C45 C44 1.363 . S
C45 N47 1.375 . S
C45 H63 0.931 . S
C46 N43 1.311 . S
C46 N47 1.347 . S
C46 H57 0.929 . S
N47 C45 1.375 . S
N47 C46 1.347 . S
C48 C51 1.365 . S
C48 N53 1.328 . S
C48 H54 0.929 . S
C49 C50 1.362 . S
C49 C52 1.378 . S
C49 H64 0.929 . S
C50 C49 1.362 . S
C50 C51 1.366 . S
C51 C48 1.365 . S
C51 C50 1.366 . S
C51 H65 0.930 . S
C52 C49 1.378 . S
C52 N53 1.315 . S
C52 H55 0.930 . S
N53 Co33 2.194 . S
N53 C48 1.328 . S
N53 C52 1.315 . S
H54 C48 0.929 . S
H55 C52 0.930 . S
H56 C44 0.929 . S
H57 C46 0.929 . S
O58 Co33 2.351 . S
O58 C61 1.244 . S
O59 Co33 2.155 . S
O59 C61 1.240 . S
O60 Co33 2.096 . S
O60 C41 1.247 . S
C61 O58 1.244 . S
C61 O59 1.240 . S
H62 C36 0.931 . S
H63 C45 0.931 . S
H64 C49 0.929 . S
H65 C51 0.930 . S
Co66 N70 2.148 . S
Co66 N76 2.128 . S
Co66 N86 2.194 1_455 S
Co66 O91 2.351 1_455 S
Co66 O92 2.155 . S
Co66 O93 2.096 . S
C67 N70 1.301 . S
C67 N71 1.328 . S
C67 H72 0.930 1_455 S
C68 C69 1.333 . S
C68 N70 1.317 . S
C68 H73 0.930 . S
C69 C68 1.333 . S
C69 N71 1.350 . S
C69 H95 0.931 . S
N70 Co66 2.148 . S
N70 C67 1.301 . S
N70 C68 1.317 . S
N71 C67 1.328 . S
N71 C69 1.350 . S
H72 C67 0.930 1_655 S
H73 C68 0.930 . S
C74 O75 1.224 . S
C74 O93 1.247 . S
O75 C74 1.224 . S
N76 Co66 2.128 . S
N76 C77 1.355 1_455 S
N76 C79 1.311 . S
C77 N76 1.355 1_655 S
C77 C78 1.363 . S
C77 H89 0.929 . S
C78 C77 1.363 . S
C78 N80 1.390 . S
C78 H96 0.931 . S
C79 N76 1.311 . S
C79 N80 1.338 1_455 S
C79 H90 0.929 . S
N80 C78 1.390 . S
N80 C79 1.338 1_655 S
C81 C84 1.365 . S
C81 N86 1.328 . S
C81 H87 0.929 . S
C82 C83 1.362 . S
C82 C85 1.378 . S
C82 H97 0.929 . S
C83 C82 1.362 . S
C83 C84 1.366 . S
C84 C81 1.365 . S
C84 C83 1.366 . S
C84 H98 0.930 . S
C85 C82 1.378 . S
C85 N86 1.315 . S
C85 H88 0.930 . S
N86 Co66 2.194 1_655 S
N86 C81 1.328 . S
N86 C85 1.315 . S
H87 C81 0.929 . S
H88 C85 0.930 . S
H89 C77 0.929 . S
H90 C79 0.929 . S
O91 Co66 2.351 1_655 S
O91 C94 1.244 1_655 S
O92 Co66 2.155 . S
O92 C94 1.240 . S
O93 Co66 2.096 . S
O93 C74 1.247 . S
C94 O91 1.244 1_455 S
C94 O92 1.240 . S
H95 C69 0.931 . S
H96 C78 0.931 . S
H97 C82 0.929 . S
H98 C84 0.930 . S
Co99 N103 2.148 . S
Co99 N109 2.128 . S
Co99 N119 2.194 1_545 S
Co99 O124 2.351 1_545 S
Co99 O125 2.155 . S
Co99 O126 2.096 . S
C100 N103 1.301 . S
C100 N104 1.328 . S
C100 H105 0.930 1_545 S
C101 C102 1.333 . S
C101 N103 1.317 . S
C101 H106 0.930 . S
C102 C101 1.333 . S
C102 N104 1.350 . S
C102 H128 0.931 . S
N103 Co99 2.148 . S
N103 C100 1.301 . S
N103 C101 1.317 . S
N104 C100 1.328 . S
N104 C102 1.350 . S
H105 C100 0.930 1_565 S
H106 C101 0.930 . S
C107 O108 1.224 . S
C107 O126 1.247 . S
O108 C107 1.224 . S
N109 Co99 2.128 . S
N109 C110 1.355 1_545 S
N109 C112 1.311 . S
C110 N109 1.355 1_565 S
C110 C111 1.363 . S
C110 H122 0.929 . S
C111 C110 1.363 . S
C111 N113 1.389 . S
C111 H129 0.931 . S
C112 N109 1.311 . S
C112 N113 1.339 1_545 S
C112 H123 0.929 . S
N113 C111 1.389 . S
N113 C112 1.339 1_565 S
C114 C117 1.365 . S
C114 N119 1.328 . S
C114 H120 0.929 . S
C115 C116 1.362 . S
C115 C118 1.378 . S
C115 H130 0.929 . S
C116 C115 1.362 . S
C116 C117 1.366 . S
C117 C114 1.365 . S
C117 C116 1.366 . S
C117 H131 0.930 . S
C118 C115 1.378 . S
C118 N119 1.315 . S
C118 H121 0.930 . S
N119 Co99 2.194 1_565 S
N119 C114 1.328 . S
N119 C118 1.315 . S
H120 C114 0.929 . S
H121 C118 0.930 . S
H122 C110 0.929 . S
H123 C112 0.929 . S
O124 Co99 2.351 1_565 S
O124 C127 1.244 1_565 S
O125 Co99 2.155 . S
O125 C127 1.240 . S
O126 Co99 2.096 . S
O126 C107 1.247 . S
C127 O124 1.244 1_545 S
C127 O125 1.240 . S
H128 C102 0.931 . S
H129 C111 0.931 . S
H130 C115 0.929 . S
H131 C117 0.930 . S
Co132 N136 2.148 . S
Co132 N142 2.128 . S
Co132 N152 2.194 . S
Co132 O157 2.351 . S
Co132 O158 2.155 . S
Co132 O159 2.096 . S
C133 N136 1.301 . S
C133 N137 1.328 . S
C133 H138 0.930 . S
C134 C135 1.333 . S
C134 N136 1.317 . S
C134 H139 0.930 . S
C135 C134 1.333 . S
C135 N137 1.350 . S
C135 H161 0.931 . S
N136 Co132 2.148 . S
N136 C133 1.301 . S
N136 C134 1.317 . S
N137 C133 1.328 . S
N137 C135 1.350 . S
H138 C133 0.930 . S
H139 C134 0.930 . S
C140 O141 1.224 . S
C140 O159 1.247 . S
O141 C140 1.224 . S
N142 Co132 2.128 . S
N142 C143 1.355 . S
N142 C145 1.311 . S
C143 N142 1.355 . S
C143 C144 1.363 . S
C143 H155 0.929 . S
C144 C143 1.363 . S
C144 N146 1.375 . S
C144 H162 0.931 . S
C145 N142 1.311 . S
C145 N146 1.347 . S
C145 H156 0.929 . S
N146 C144 1.375 . S
N146 C145 1.347 . S
C147 C150 1.365 . S
C147 N152 1.328 . S
C147 H153 0.929 . S
C148 C149 1.362 . S
C148 C151 1.378 . S
C148 H163 0.929 . S
C149 C148 1.362 . S
C149 C150 1.366 . S
C150 C147 1.365 . S
C150 C149 1.366 . S
C150 H164 0.930 . S
C151 C148 1.378 . S
C151 N152 1.315 . S
C151 H154 0.930 . S
N152 Co132 2.194 . S
N152 C147 1.328 . S
N152 C151 1.315 . S
H153 C147 0.929 . S
H154 C151 0.930 . S
H155 C143 0.929 . S
H156 C145 0.929 . S
O157 Co132 2.351 . S
O157 C160 1.244 . S
O158 Co132 2.155 . S
O158 C160 1.240 . S
O159 Co132 2.096 . S
O159 C140 1.247 . S
C160 O157 1.244 . S
C160 O158 1.240 . S
H161 C135 0.931 . S
H162 C144 0.931 . S
H163 C148 0.929 . S
H164 C150 0.930 . S
Co165 N169 2.148 . S
Co165 N175 2.128 . S
Co165 N185 2.194 . S
Co165 O190 2.351 . S
Co165 O191 2.155 . S
Co165 O192 2.096 . S
C166 N169 1.301 . S
C166 N170 1.328 . S
C166 H171 0.930 . S
C167 C168 1.333 . S
C167 N169 1.317 . S
C167 H172 0.930 . S
C168 C167 1.333 . S
C168 N170 1.350 . S
C168 H194 0.931 . S
N169 Co165 2.148 . S
N169 C166 1.301 . S
N169 C167 1.317 . S
N170 C166 1.328 . S
N170 C168 1.350 . S
H171 C166 0.930 . S
H172 C167 0.930 . S
C173 O174 1.224 . S
C173 O192 1.247 . S
O174 C173 1.224 . S
N175 Co165 2.128 . S
N175 C176 1.355 . S
N175 C178 1.311 . S
C176 N175 1.355 . S
C176 C177 1.363 . S
C176 H188 0.929 . S
C177 C176 1.363 . S
C177 N179 1.375 . S
C177 H195 0.931 . S
C178 N175 1.311 . S
C178 N179 1.347 . S
C178 H189 0.929 . S
N179 C177 1.375 . S
N179 C178 1.347 . S
C180 C183 1.365 . S
C180 N185 1.328 . S
C180 H186 0.929 . S
C181 C182 1.362 . S
C181 C184 1.378 . S
C181 H196 0.929 . S
C182 C181 1.362 . S
C182 C183 1.366 . S
C183 C180 1.365 . S
C183 C182 1.366 . S
C183 H197 0.930 . S
C184 C181 1.378 . S
C184 N185 1.315 . S
C184 H187 0.930 . S
N185 Co165 2.194 . S
N185 C180 1.328 . S
N185 C184 1.315 . S
H186 C180 0.929 . S
H187 C184 0.930 . S
H188 C176 0.929 . S
H189 C178 0.929 . S
O190 Co165 2.351 . S
O190 C193 1.244 . S
O191 Co165 2.155 . S
O191 C193 1.240 . S
O192 Co165 2.096 . S
O192 C173 1.247 . S
C193 O190 1.244 . S
C193 O191 1.240 . S
H194 C168 0.931 . S
H195 C177 0.931 . S
H196 C181 0.929 . S
H197 C183 0.930 . S
Co198 N202 2.148 . S
Co198 N208 2.128 . S
Co198 N218 2.194 1_455 S
Co198 O223 2.351 1_455 S
Co198 O224 2.155 . S
Co198 O225 2.096 . S
C199 N202 1.301 . S
C199 N203 1.328 . S
C199 H204 0.930 1_455 S
C200 C201 1.333 . S
C200 N202 1.317 . S
C200 H205 0.930 . S
C201 C200 1.333 . S
C201 N203 1.350 . S
C201 H227 0.931 . S
N202 Co198 2.148 . S
N202 C199 1.301 . S
N202 C200 1.317 . S
N203 C199 1.328 . S
N203 C201 1.350 . S
H204 C199 0.930 1_655 S
H205 C200 0.930 . S
C206 O207 1.224 . S
C206 O225 1.247 . S
O207 C206 1.224 . S
N208 Co198 2.128 . S
N208 C209 1.355 1_455 S
N208 C211 1.311 . S
C209 N208 1.355 1_655 S
C209 C210 1.363 . S
C209 H221 0.929 . S
C210 C209 1.363 . S
C210 N212 1.389 . S
C210 H228 0.931 . S
C211 N208 1.311 . S
C211 N212 1.339 1_455 S
C211 H222 0.929 . S
N212 C210 1.389 . S
N212 C211 1.339 1_655 S
C213 C216 1.365 . S
C213 N218 1.328 . S
C213 H219 0.929 . S
C214 C215 1.362 . S
C214 C217 1.378 . S
C214 H229 0.929 . S
C215 C214 1.362 . S
C215 C216 1.366 . S
C216 C213 1.365 . S
C216 C215 1.366 . S
C216 H230 0.930 . S
C217 C214 1.378 . S
C217 N218 1.315 . S
C217 H220 0.930 . S
N218 Co198 2.194 1_655 S
N218 C213 1.328 . S
N218 C217 1.315 . S
H219 C213 0.929 . S
H220 C217 0.930 . S
H221 C209 0.929 . S
H222 C211 0.929 . S
O223 Co198 2.351 1_655 S
O223 C226 1.244 1_655 S
O224 Co198 2.155 . S
O224 C226 1.240 . S
O225 Co198 2.096 . S
O225 C206 1.247 . S
C226 O223 1.244 1_455 S
C226 O224 1.240 . S
H227 C201 0.931 . S
H228 C210 0.931 . S
H229 C214 0.929 . S
H230 C216 0.930 . S
Co231 N235 2.148 . S
Co231 N241 2.128 . S
Co231 N251 2.194 1_545 S
Co231 O256 2.351 1_545 S
Co231 O257 2.155 . S
Co231 O258 2.096 . S
C232 N235 1.301 . S
C232 N236 1.328 . S
C232 H237 0.930 1_545 S
C233 C234 1.333 . S
C233 N235 1.317 . S
C233 H238 0.930 . S
C234 C233 1.333 . S
C234 N236 1.350 . S
C234 H260 0.931 . S
N235 Co231 2.148 . S
N235 C232 1.301 . S
N235 C233 1.317 . S
N236 C232 1.328 . S
N236 C234 1.350 . S
H237 C232 0.930 1_565 S
H238 C233 0.930 . S
C239 O240 1.224 . S
C239 O258 1.247 . S
O240 C239 1.224 . S
N241 Co231 2.128 . S
N241 C242 1.355 1_545 S
N241 C244 1.311 . S
C242 N241 1.355 1_565 S
C242 C243 1.363 . S
C242 H254 0.929 . S
C243 C242 1.363 . S
C243 N245 1.390 . S
C243 H261 0.931 . S
C244 N241 1.311 . S
C244 N245 1.338 1_545 S
C244 H255 0.929 . S
N245 C243 1.390 . S
N245 C244 1.338 1_565 S
C246 C249 1.365 . S
C246 N251 1.328 . S
C246 H252 0.929 . S
C247 C248 1.362 . S
C247 C250 1.378 . S
C247 H262 0.929 . S
C248 C247 1.362 . S
C248 C249 1.366 . S
C249 C246 1.365 . S
C249 C248 1.366 . S
C249 H263 0.930 . S
C250 C247 1.378 . S
C250 N251 1.315 . S
C250 H253 0.930 . S
N251 Co231 2.194 1_565 S
N251 C246 1.328 . S
N251 C250 1.315 . S
H252 C246 0.929 . S
H253 C250 0.930 . S
H254 C242 0.929 . S
H255 C244 0.929 . S
O256 Co231 2.351 1_565 S
O256 C259 1.244 1_565 S
O257 Co231 2.155 . S
O257 C259 1.240 . S
O258 Co231 2.096 . S
O258 C239 1.247 . S
C259 O256 1.244 1_545 S
C259 O257 1.240 . S
H260 C234 0.931 . S
H261 C243 0.931 . S
H262 C247 0.929 . S
H263 C249 0.930 . S
Co264 N268 2.148 . S
Co264 N274 2.128 . S
Co264 N284 2.194 . S
Co264 O289 2.351 . S
Co264 O290 2.155 . S
Co264 O291 2.096 . S
C265 N268 1.301 . S
C265 N269 1.328 . S
C265 H270 0.930 . S
C266 C267 1.333 . S
C266 N268 1.317 . S
C266 H271 0.930 . S
C267 C266 1.333 . S
C267 N269 1.350 . S
C267 H293 0.931 . S
N268 Co264 2.148 . S
N268 C265 1.301 . S
N268 C266 1.317 . S
N269 C265 1.328 . S
N269 C267 1.350 . S
H270 C265 0.930 . S
H271 C266 0.930 . S
C272 O273 1.224 . S
C272 O291 1.247 . S
O273 C272 1.224 . S
N274 Co264 2.128 . S
N274 C275 1.355 . S
N274 C277 1.311 . S
C275 N274 1.355 . S
C275 C276 1.363 . S
C275 H287 0.929 . S
C276 C275 1.363 . S
C276 N278 1.375 . S
C276 H294 0.931 . S
C277 N274 1.311 . S
C277 N278 1.347 . S
C277 H288 0.929 . S
N278 C276 1.375 . S
N278 C277 1.347 . S
C279 C282 1.365 . S
C279 N284 1.328 . S
C279 H285 0.929 . S
C280 C281 1.362 . S
C280 C283 1.378 . S
C280 H295 0.929 . S
C281 C280 1.362 . S
C281 C282 1.366 . S
C282 C279 1.365 . S
C282 C281 1.366 . S
C282 H296 0.930 . S
C283 C280 1.378 . S
C283 N284 1.315 . S
C283 H286 0.930 . S
N284 Co264 2.194 . S
N284 C279 1.328 . S
N284 C283 1.315 . S
H285 C279 0.929 . S
H286 C283 0.930 . S
H287 C275 0.929 . S
H288 C277 0.929 . S
O289 Co264 2.351 . S
O289 C292 1.244 . S
O290 Co264 2.155 . S
O290 C292 1.240 . S
O291 Co264 2.096 . S
O291 C272 1.247 . S
C292 O289 1.244 . S
C292 O290 1.240 . S
H293 C267 0.931 . S
H294 C276 0.931 . S
H295 C280 0.929 . S
H296 C282 0.930 . S
Co297 N301 2.148 . S
Co297 N307 2.128 . S
Co297 N317 2.194 . S
Co297 O322 2.351 . S
Co297 O323 2.155 . S
Co297 O324 2.096 . S
C298 N301 1.301 . S
C298 N302 1.328 . S
C298 H303 0.930 . S
C299 C300 1.333 . S
C299 N301 1.317 . S
C299 H304 0.930 . S
C300 C299 1.333 . S
C300 N302 1.350 . S
C300 H326 0.931 . S
N301 Co297 2.148 . S
N301 C298 1.301 . S
N301 C299 1.317 . S
N302 C298 1.328 . S
N302 C300 1.350 . S
H303 C298 0.930 . S
H304 C299 0.930 . S
C305 O306 1.224 . S
C305 O324 1.247 . S
O306 C305 1.224 . S
N307 Co297 2.128 . S
N307 C308 1.355 . S
N307 C310 1.311 . S
C308 N307 1.355 . S
C308 C309 1.363 . S
C308 H320 0.929 . S
C309 C308 1.363 . S
C309 N311 1.375 . S
C309 H327 0.931 . S
C310 N307 1.311 . S
C310 N311 1.347 . S
C310 H321 0.929 . S
N311 C309 1.375 . S
N311 C310 1.347 . S
C312 C315 1.365 . S
C312 N317 1.328 . S
C312 H318 0.929 . S
C313 C314 1.362 . S
C313 C316 1.378 . S
C313 H328 0.929 . S
C314 C313 1.362 . S
C314 C315 1.366 . S
C315 C312 1.365 . S
C315 C314 1.366 . S
C315 H329 0.930 . S
C316 C313 1.378 . S
C316 N317 1.315 . S
C316 H319 0.930 . S
N317 Co297 2.194 . S
N317 C312 1.328 . S
N317 C316 1.315 . S
H318 C312 0.929 . S
H319 C316 0.930 . S
H320 C308 0.929 . S
H321 C310 0.929 . S
O322 Co297 2.351 . S
O322 C325 1.244 . S
O323 Co297 2.155 . S
O323 C325 1.240 . S
O324 Co297 2.096 . S
O324 C305 1.247 . S
C325 O322 1.244 . S
C325 O323 1.240 . S
H326 C300 0.931 . S
H327 C309 0.931 . S
H328 C313 0.929 . S
H329 C315 0.930 . S
Co330 N334 2.148 . S
Co330 N340 2.128 . S
Co330 N350 2.194 1_655 S
Co330 O355 2.351 1_655 S
Co330 O356 2.155 . S
Co330 O357 2.096 . S
C331 N334 1.301 . S
C331 N335 1.328 . S
C331 H336 0.930 1_655 S
C332 C333 1.333 . S
C332 N334 1.317 . S
C332 H337 0.930 . S
C333 C332 1.333 . S
C333 N335 1.350 . S
C333 H359 0.931 . S
N334 Co330 2.148 . S
N334 C331 1.301 . S
N334 C332 1.317 . S
N335 C331 1.328 . S
N335 C333 1.350 . S
H336 C331 0.930 1_455 S
H337 C332 0.930 . S
C338 O339 1.224 . S
C338 O357 1.247 . S
O339 C338 1.224 . S
N340 Co330 2.128 . S
N340 C341 1.355 1_655 S
N340 C343 1.311 . S
C341 N340 1.355 1_455 S
C341 C342 1.363 . S
C341 H353 0.929 . S
C342 C341 1.363 . S
C342 N344 1.390 . S
C342 H360 0.931 . S
C343 N340 1.311 . S
C343 N344 1.338 1_655 S
C343 H354 0.929 . S
N344 C342 1.390 . S
N344 C343 1.338 1_455 S
C345 C348 1.365 . S
C345 N350 1.328 . S
C345 H351 0.929 . S
C346 C347 1.362 . S
C346 C349 1.378 . S
C346 H361 0.929 . S
C347 C346 1.362 . S
C347 C348 1.366 . S
C348 C345 1.365 . S
C348 C347 1.366 . S
C348 H362 0.930 . S
C349 C346 1.378 . S
C349 N350 1.315 . S
C349 H352 0.930 . S
N350 Co330 2.194 1_455 S
N350 C345 1.328 . S
N350 C349 1.315 . S
H351 C345 0.929 . S
H352 C349 0.930 . S
H353 C341 0.929 . S
H354 C343 0.929 . S
O355 Co330 2.351 1_455 S
O355 C358 1.244 1_455 S
O356 Co330 2.155 . S
O356 C358 1.240 . S
O357 Co330 2.096 . S
O357 C338 1.247 . S
C358 O355 1.244 1_655 S
C358 O356 1.240 . S
H359 C333 0.931 . S
H360 C342 0.931 . S
H361 C346 0.929 . S
H362 C348 0.930 . S
Co363 N367 2.148 . S
Co363 N373 2.128 . S
Co363 N383 2.194 1_565 S
Co363 O388 2.351 1_565 S
Co363 O389 2.155 . S
Co363 O390 2.096 . S
C364 N367 1.301 . S
C364 N368 1.328 . S
C364 H369 0.930 1_565 S
C365 C366 1.333 . S
C365 N367 1.317 . S
C365 H370 0.930 . S
C366 C365 1.333 . S
C366 N368 1.350 . S
C366 H392 0.931 . S
N367 Co363 2.148 . S
N367 C364 1.301 . S
N367 C365 1.317 . S
N368 C364 1.328 . S
N368 C366 1.350 . S
H369 C364 0.930 1_545 S
H370 C365 0.930 . S
C371 O372 1.224 . S
C371 O390 1.247 . S
O372 C371 1.224 . S
N373 Co363 2.128 . S
N373 C374 1.355 1_565 S
N373 C376 1.311 . S
C374 N373 1.355 1_545 S
C374 C375 1.363 . S
C374 H386 0.929 . S
C375 C374 1.363 . S
C375 N377 1.389 . S
C375 H393 0.931 . S
C376 N373 1.311 . S
C376 N377 1.339 1_565 S
C376 H387 0.929 . S
N377 C375 1.389 . S
N377 C376 1.339 1_545 S
C378 C381 1.365 . S
C378 N383 1.328 . S
C378 H384 0.929 . S
C379 C380 1.362 . S
C379 C382 1.378 . S
C379 H394 0.929 . S
C380 C379 1.362 . S
C380 C381 1.366 . S
C381 C378 1.365 . S
C381 C380 1.366 . S
C381 H395 0.930 . S
C382 C379 1.378 . S
C382 N383 1.315 . S
C382 H385 0.930 . S
N383 Co363 2.194 1_545 S
N383 C378 1.328 . S
N383 C382 1.315 . S
H384 C378 0.929 . S
H385 C382 0.930 . S
H386 C374 0.929 . S
H387 C376 0.929 . S
O388 Co363 2.351 1_545 S
O388 C391 1.244 1_545 S
O389 Co363 2.155 . S
O389 C391 1.240 . S
O390 Co363 2.096 . S
O390 C371 1.247 . S
C391 O388 1.244 1_565 S
C391 O389 1.240 . S
H392 C366 0.931 . S
H393 C375 0.931 . S
H394 C379 0.929 . S
H395 C381 0.930 . S
Co396 N400 2.148 . S
Co396 N406 2.128 . S
Co396 N416 2.194 . S
Co396 O421 2.351 . S
Co396 O422 2.155 . S
Co396 O423 2.096 . S
C397 N400 1.301 . S
C397 N401 1.328 . S
C397 H402 0.930 . S
C398 C399 1.333 . S
C398 N400 1.317 . S
C398 H403 0.930 . S
C399 C398 1.333 . S
C399 N401 1.350 . S
C399 H425 0.931 . S
N400 Co396 2.148 . S
N400 C397 1.301 . S
N400 C398 1.317 . S
N401 C397 1.328 . S
N401 C399 1.350 . S
H402 C397 0.930 . S
H403 C398 0.930 . S
C404 O405 1.224 . S
C404 O423 1.247 . S
O405 C404 1.224 . S
N406 Co396 2.128 . S
N406 C407 1.355 . S
N406 C409 1.311 . S
C407 N406 1.355 . S
C407 C408 1.363 . S
C407 H419 0.929 . S
C408 C407 1.363 . S
C408 N410 1.375 . S
C408 H426 0.931 . S
C409 N406 1.311 . S
C409 N410 1.347 . S
C409 H420 0.929 . S
N410 C408 1.375 . S
N410 C409 1.347 . S
C411 C414 1.365 . S
C411 N416 1.328 . S
C411 H417 0.929 . S
C412 C413 1.362 . S
C412 C415 1.378 . S
C412 H427 0.929 . S
C413 C412 1.362 . S
C413 C414 1.366 . S
C414 C411 1.365 . S
C414 C413 1.366 . S
C414 H428 0.930 . S
C415 C412 1.378 . S
C415 N416 1.315 . S
C415 H418 0.930 . S
N416 Co396 2.194 . S
N416 C411 1.328 . S
N416 C415 1.315 . S
H417 C411 0.929 . S
H418 C415 0.930 . S
H419 C407 0.929 . S
H420 C409 0.929 . S
O421 Co396 2.351 . S
O421 C424 1.244 . S
O422 Co396 2.155 . S
O422 C424 1.240 . S
O423 Co396 2.096 . S
O423 C404 1.247 . S
C424 O421 1.244 . S
C424 O422 1.240 . S
H425 C399 0.931 . S
H426 C408 0.931 . S
H427 C412 0.929 . S
H428 C414 0.930 . S
Co429 N433 2.148 . S
Co429 N439 2.128 . S
Co429 N449 2.194 . S
Co429 O454 2.351 . S
Co429 O455 2.155 . S
Co429 O456 2.096 . S
C430 N433 1.301 . S
C430 N434 1.328 . S
C430 H435 0.930 . S
C431 C432 1.333 . S
C431 N433 1.317 . S
C431 H436 0.930 . S
C432 C431 1.333 . S
C432 N434 1.350 . S
C432 H458 0.931 . S
N433 Co429 2.148 . S
N433 C430 1.301 . S
N433 C431 1.317 . S
N434 C430 1.328 . S
N434 C432 1.350 . S
H435 C430 0.930 . S
H436 C431 0.930 . S
C437 O438 1.224 . S
C437 O456 1.247 . S
O438 C437 1.224 . S
N439 Co429 2.128 . S
N439 C440 1.355 . S
N439 C442 1.311 . S
C440 N439 1.355 . S
C440 C441 1.363 . S
C440 H452 0.929 . S
C441 C440 1.363 . S
C441 N443 1.375 . S
C441 H459 0.931 . S
C442 N439 1.311 . S
C442 N443 1.347 . S
C442 H453 0.929 . S
N443 C441 1.375 . S
N443 C442 1.347 . S
C444 C447 1.365 . S
C444 N449 1.328 . S
C444 H450 0.929 . S
C445 C446 1.362 . S
C445 C448 1.378 . S
C445 H460 0.929 . S
C446 C445 1.362 . S
C446 C447 1.366 . S
C447 C444 1.365 . S
C447 C446 1.366 . S
C447 H461 0.930 . S
C448 C445 1.378 . S
C448 N449 1.315 . S
C448 H451 0.930 . S
N449 Co429 2.194 . S
N449 C444 1.328 . S
N449 C448 1.315 . S
H450 C444 0.929 . S
H451 C448 0.930 . S
H452 C440 0.929 . S
H453 C442 0.929 . S
O454 Co429 2.351 . S
O454 C457 1.244 . S
O455 Co429 2.155 . S
O455 C457 1.240 . S
O456 Co429 2.096 . S
O456 C437 1.247 . S
C457 O454 1.244 . S
C457 O455 1.240 . S
H458 C432 0.931 . S
H459 C441 0.931 . S
H460 C445 0.929 . S
H461 C447 0.930 . S
Co462 N466 2.148 . S
Co462 N472 2.128 . S
Co462 N482 2.194 1_655 S
Co462 O487 2.351 1_655 S
Co462 O488 2.155 . S
Co462 O489 2.096 . S
C463 N466 1.301 . S
C463 N467 1.328 . S
C463 H468 0.930 1_655 S
C464 C465 1.333 . S
C464 N466 1.317 . S
C464 H469 0.930 . S
C465 C464 1.333 . S
C465 N467 1.350 . S
C465 H491 0.931 . S
N466 Co462 2.148 . S
N466 C463 1.301 . S
N466 C464 1.317 . S
N467 C463 1.328 . S
N467 C465 1.350 . S
H468 C463 0.930 1_455 S
H469 C464 0.930 . S
C470 O471 1.224 . S
C470 O489 1.247 . S
O471 C470 1.224 . S
N472 Co462 2.128 . S
N472 C473 1.355 1_655 S
N472 C475 1.311 . S
C473 N472 1.355 1_455 S
C473 C474 1.363 . S
C473 H485 0.929 . S
C474 C473 1.363 . S
C474 N476 1.389 . S
C474 H492 0.931 . S
C475 N472 1.311 . S
C475 N476 1.339 1_655 S
C475 H486 0.929 . S
N476 C474 1.389 . S
N476 C475 1.339 1_455 S
C477 C480 1.365 . S
C477 N482 1.328 . S
C477 H483 0.929 . S
C478 C479 1.362 . S
C478 C481 1.378 . S
C478 H493 0.929 . S
C479 C478 1.362 . S
C479 C480 1.366 . S
C480 C477 1.365 . S
C480 C479 1.366 . S
C480 H494 0.930 . S
C481 C478 1.378 . S
C481 N482 1.315 . S
C481 H484 0.930 . S
N482 Co462 2.194 1_455 S
N482 C477 1.328 . S
N482 C481 1.315 . S
H483 C477 0.929 . S
H484 C481 0.930 . S
H485 C473 0.929 . S
H486 C475 0.929 . S
O487 Co462 2.351 1_455 S
O487 C490 1.244 1_455 S
O488 Co462 2.155 . S
O488 C490 1.240 . S
O489 Co462 2.096 . S
O489 C470 1.247 . S
C490 O487 1.244 1_655 S
C490 O488 1.240 . S
H491 C465 0.931 . S
H492 C474 0.931 . S
H493 C478 0.929 . S
H494 C480 0.930 . S
Co495 N499 2.148 . S
Co495 N505 2.128 . S
Co495 N515 2.194 1_565 S
Co495 O520 2.351 1_565 S
Co495 O521 2.155 . S
Co495 O522 2.096 . S
C496 N499 1.301 . S
C496 N500 1.328 . S
C496 H501 0.930 1_565 S
C497 C498 1.333 . S
C497 N499 1.317 . S
C497 H502 0.930 . S
C498 C497 1.333 . S
C498 N500 1.350 . S
C498 H524 0.931 . S
N499 Co495 2.148 . S
N499 C496 1.301 . S
N499 C497 1.317 . S
N500 C496 1.328 . S
N500 C498 1.350 . S
H501 C496 0.930 1_545 S
H502 C497 0.930 . S
C503 O504 1.224 . S
C503 O522 1.247 . S
O504 C503 1.224 . S
N505 Co495 2.128 . S
N505 C506 1.355 1_565 S
N505 C508 1.311 . S
C506 N505 1.355 1_545 S
C506 C507 1.363 . S
C506 H518 0.929 . S
C507 C506 1.363 . S
C507 N509 1.390 . S
C507 H525 0.931 . S
C508 N505 1.311 . S
C508 N509 1.338 1_565 S
C508 H519 0.929 . S
N509 C507 1.390 . S
N509 C508 1.338 1_545 S
C510 C513 1.365 . S
C510 N515 1.328 . S
C510 H516 0.929 . S
C511 C512 1.362 . S
C511 C514 1.378 . S
C511 H526 0.929 . S
C512 C511 1.362 . S
C512 C513 1.366 . S
C513 C510 1.365 . S
C513 C512 1.366 . S
C513 H527 0.930 . S
C514 C511 1.378 . S
C514 N515 1.315 . S
C514 H517 0.930 . S
N515 Co495 2.194 1_545 S
N515 C510 1.328 . S
N515 C514 1.315 . S
H516 C510 0.929 . S
H517 C514 0.930 . S
H518 C506 0.929 . S
H519 C508 0.929 . S
O520 Co495 2.351 1_545 S
O520 C523 1.244 1_545 S
O521 Co495 2.155 . S
O521 C523 1.240 . S
O522 Co495 2.096 . S
O522 C503 1.247 . S
C523 O520 1.244 1_565 S
C523 O521 1.240 . S
H524 C498 0.931 . S
H525 C507 0.931 . S
H526 C511 0.929 . S
H527 C513 0.930 . S
C528 C529 1.349 . S
C528 C530 1.327 . S
C528 H553 0.950 . S
C529 C528 1.349 . S
C529 C545 1.349 . S
C530 C528 1.327 . S
C530 C549 1.429 . S
C530 H554 0.950 . S
C531 C548 1.574 1_554 S
C531 C550 1.368 . S
C531 H555 0.949 . S
H532 C536 0.949 . S
C533 C534 1.349 . S
C533 C535 1.327 . S
C533 H556 0.950 . S
C534 C533 1.349 . S
C534 C546 1.349 . S
C535 C533 1.327 . S
C535 C551 1.429 . S
C535 H557 0.950 . S
C536 H532 0.949 . S
C536 C544 1.574 1_556 S
C536 C552 1.368 . S
H537 C545 0.950 . S
H538 C543 0.950 . S
H539 C544 0.949 . S
H540 C546 0.950 . S
H541 C547 0.950 . S
H542 C548 0.949 . S
C543 H538 0.950 . S
C543 C545 1.327 . S
C543 C549 1.429 . S
C544 C536 1.574 1_554 S
C544 H539 0.949 . S
C544 C550 1.368 . S
C545 C529 1.349 . S
C545 H537 0.950 . S
C545 C543 1.327 . S
C546 C534 1.349 . S
C546 H540 0.950 . S
C546 C547 1.327 . S
C547 H541 0.950 . S
C547 C546 1.327 . S
C547 C551 1.429 . S
C548 C531 1.574 1_556 S
C548 H542 0.949 . S
C548 C552 1.368 . S
C549 C530 1.429 . S
C549 C543 1.429 . S
C549 C550 1.523 . S
C550 C531 1.368 . S
C550 C544 1.368 . S
C550 C549 1.523 . S
C551 C535 1.429 . S
C551 C547 1.429 . S
C551 C552 1.523 . S
C552 C536 1.368 . S
C552 C548 1.368 . S
C552 C551 1.523 . S
H553 C528 0.950 . S
H554 C530 0.950 . S
H555 C531 0.949 . S
H556 C533 0.950 . S
H557 C535 0.950 . S
C558 C559 1.349 . S
C558 C560 1.327 . S
C558 H583 0.950 . S
C559 C558 1.349 . S
C559 C575 1.349 . S
C560 C558 1.327 . S
C560 C579 1.429 . S
C560 H584 0.950 . S
C561 C578 1.574 . S
C561 C580 1.368 . S
C561 H585 0.949 . S
H562 C566 0.949 . S
C563 C564 1.349 . S
C563 C565 1.327 . S
C563 H586 0.950 . S
C564 C563 1.349 . S
C564 C576 1.349 . S
C565 C563 1.327 . S
C565 C581 1.429 . S
C565 H587 0.950 . S
C566 H562 0.949 . S
C566 C574 1.574 . S
C566 C582 1.368 . S
H567 C575 0.950 . S
H568 C573 0.950 . S
H569 C574 0.949 . S
H570 C576 0.950 . S
H571 C577 0.950 . S
H572 C578 0.949 . S
C573 H568 0.950 . S
C573 C575 1.327 . S
C573 C579 1.429 . S
C574 C566 1.574 . S
C574 H569 0.949 . S
C574 C580 1.368 . S
C575 C559 1.349 . S
C575 H567 0.950 . S
C575 C573 1.327 . S
C576 C564 1.349 . S
C576 H570 0.950 . S
C576 C577 1.327 . S
C577 H571 0.950 . S
C577 C576 1.327 . S
C577 C581 1.429 . S
C578 C561 1.574 . S
C578 H572 0.949 . S
C578 C582 1.368 . S
C579 C560 1.429 . S
C579 C573 1.429 . S
C579 C580 1.523 . S
C580 C561 1.368 . S
C580 C574 1.368 . S
C580 C579 1.523 . S
C581 C565 1.429 . S
C581 C577 1.429 . S
C581 C582 1.523 . S
C582 C566 1.368 . S
C582 C578 1.368 . S
C582 C581 1.523 . S
H583 C558 0.950 . S
H584 C560 0.950 . S
H585 C561 0.949 . S
H586 C563 0.950 . S
H587 C565 0.950 . S
C588 C589 1.349 . S
C588 C590 1.327 . S
C588 H613 0.950 . S
C589 C588 1.349 . S
C589 C605 1.349 . S
C590 C588 1.327 . S
C590 C609 1.429 . S
C590 H614 0.950 . S
C591 C608 1.574 1_556 S
C591 C610 1.368 . S
C591 H615 0.949 . S
H592 C596 0.949 . S
C593 C594 1.349 . S
C593 C595 1.327 . S
C593 H616 0.950 . S
C594 C593 1.349 . S
C594 C606 1.349 . S
C595 C593 1.327 . S
C595 C611 1.429 . S
C595 H617 0.950 . S
C596 H592 0.949 . S
C596 C604 1.574 1_554 S
C596 C612 1.368 . S
H597 C605 0.950 . S
H598 C603 0.950 . S
H599 C604 0.949 . S
H600 C606 0.950 . S
H601 C607 0.950 . S
H602 C608 0.949 . S
C603 H598 0.950 . S
C603 C605 1.327 . S
C603 C609 1.429 . S
C604 C596 1.574 1_556 S
C604 H599 0.949 . S
C604 C610 1.368 . S
C605 C589 1.349 . S
C605 H597 0.950 . S
C605 C603 1.327 . S
C606 C594 1.349 . S
C606 H600 0.950 . S
C606 C607 1.327 . S
C607 H601 0.950 . S
C607 C606 1.327 . S
C607 C611 1.429 . S
C608 C591 1.574 1_554 S
C608 H602 0.949 . S
C608 C612 1.368 . S
C609 C590 1.429 . S
C609 C603 1.429 . S
C609 C610 1.523 . S
C610 C591 1.368 . S
C610 C604 1.368 . S
C610 C609 1.523 . S
C611 C595 1.429 . S
C611 C607 1.429 . S
C611 C612 1.523 . S
C612 C596 1.368 . S
C612 C608 1.368 . S
C612 C611 1.523 . S
H613 C588 0.950 . S
H614 C590 0.950 . S
H615 C591 0.949 . S
H616 C593 0.950 . S
H617 C595 0.950 . S
C618 C619 1.349 . S
C618 C620 1.327 . S
C618 H643 0.950 . S
C619 C618 1.349 . S
C619 C635 1.349 . S
C620 C618 1.327 . S
C620 C639 1.429 . S
C620 H644 0.950 . S
C621 C638 1.574 . S
C621 C640 1.368 . S
C621 H645 0.949 1_545 S
H622 C626 0.949 . S
C623 C624 1.349 . S
C623 C625 1.327 . S
C623 H646 0.950 1_545 S
C624 C623 1.349 . S
C624 C636 1.349 . S
C625 C623 1.327 . S
C625 C641 1.429 . S
C625 H647 0.950 1_545 S
C626 H622 0.949 . S
C626 C634 1.574 . S
C626 C642 1.368 . S
H627 C635 0.950 1_565 S
H628 C633 0.950 1_565 S
H629 C634 0.949 . S
H630 C636 0.950 . S
H631 C637 0.950 . S
H632 C638 0.949 1_565 S
C633 H628 0.950 1_545 S
C633 C635 1.327 . S
C633 C639 1.429 . S
C634 C626 1.574 . S
C634 H629 0.949 . S
C634 C640 1.368 . S
C635 C619 1.349 . S
C635 H627 0.950 1_545 S
C635 C633 1.327 . S
C636 C624 1.349 . S
C636 H630 0.950 . S
C636 C637 1.327 . S
C637 H631 0.950 . S
C637 C636 1.327 . S
C637 C641 1.429 . S
C638 C621 1.574 . S
C638 H632 0.949 1_545 S
C638 C642 1.368 . S
C639 C620 1.429 . S
C639 C633 1.429 . S
C639 C640 1.523 . S
C640 C621 1.368 . S
C640 C634 1.368 . S
C640 C639 1.523 . S
C641 C625 1.429 . S
C641 C637 1.429 . S
C641 C642 1.523 . S
C642 C626 1.368 . S
C642 C638 1.368 . S
C642 C641 1.523 . S
H643 C618 0.950 . S
H644 C620 0.950 . S
H645 C621 0.949 1_565 S
H646 C623 0.950 1_565 S
H647 C625 0.950 1_565 S
C648 C649 1.349 . S
C648 C650 1.327 . S
C648 H673 0.950 . S
C649 C648 1.349 . S
C649 C665 1.349 . S
C650 C648 1.327 . S
C650 C669 1.429 . S
C650 H674 0.950 . S
C651 C668 1.574 1_556 S
C651 C670 1.368 . S
C651 H675 0.949 . S
H652 C656 0.949 . S
C653 C654 1.349 . S
C653 C655 1.327 . S
C653 H676 0.950 . S
C654 C653 1.349 . S
C654 C666 1.349 . S
C655 C653 1.327 . S
C655 C671 1.429 . S
C655 H677 0.950 . S
C656 H652 0.949 . S
C656 C664 1.574 1_554 S
C656 C672 1.368 . S
H657 C665 0.950 . S
H658 C663 0.950 . S
H659 C664 0.949 . S
H660 C666 0.950 . S
H661 C667 0.950 . S
H662 C668 0.949 . S
C663 H658 0.950 . S
C663 C665 1.327 . S
C663 C669 1.429 . S
C664 C656 1.574 1_556 S
C664 H659 0.949 . S
C664 C670 1.368 . S
C665 C649 1.349 . S
C665 H657 0.950 . S
C665 C663 1.327 . S
C666 C654 1.349 . S
C666 H660 0.950 . S
C666 C667 1.327 . S
C667 H661 0.950 . S
C667 C666 1.327 . S
C667 C671 1.429 . S
C668 C651 1.574 1_554 S
C668 H662 0.949 . S
C668 C672 1.368 . S
C669 C650 1.429 . S
C669 C663 1.429 . S
C669 C670 1.523 . S
C670 C651 1.368 . S
C670 C664 1.368 . S
C670 C669 1.523 . S
C671 C655 1.429 . S
C671 C667 1.429 . S
C671 C672 1.523 . S
C672 C656 1.368 . S
C672 C668 1.368 . S
C672 C671 1.523 . S
H673 C648 0.950 . S
H674 C650 0.950 . S
H675 C651 0.949 . S
H676 C653 0.950 . S
H677 C655 0.950 . S
C678 C679 1.349 . S
C678 C680 1.327 . S
C678 H703 0.950 . S
C679 C678 1.349 . S
C679 C695 1.349 . S
C680 C678 1.327 . S
C680 C699 1.429 . S
C680 H704 0.950 . S
C681 C698 1.574 . S
C681 C700 1.368 . S
C681 H705 0.949 . S
H682 C686 0.949 . S
C683 C684 1.349 . S
C683 C685 1.327 . S
C683 H706 0.950 . S
C684 C683 1.349 . S
C684 C696 1.349 . S
C685 C683 1.327 . S
C685 C701 1.429 . S
C685 H707 0.950 . S
C686 H682 0.949 . S
C686 C694 1.574 . S
C686 C702 1.368 . S
H687 C695 0.950 . S
H688 C693 0.950 . S
H689 C694 0.949 . S
H690 C696 0.950 . S
H691 C697 0.950 . S
H692 C698 0.949 . S
C693 H688 0.950 . S
C693 C695 1.327 . S
C693 C699 1.429 . S
C694 C686 1.574 . S
C694 H689 0.949 . S
C694 C700 1.368 . S
C695 C679 1.349 . S
C695 H687 0.950 . S
C695 C693 1.327 . S
C696 C684 1.349 . S
C696 H690 0.950 . S
C696 C697 1.327 . S
C697 H691 0.950 . S
C697 C696 1.327 . S
C697 C701 1.429 . S
C698 C681 1.574 . S
C698 H692 0.949 . S
C698 C702 1.368 . S
C699 C680 1.429 . S
C699 C693 1.429 . S
C699 C700 1.523 . S
C700 C681 1.368 . S
C700 C694 1.368 . S
C700 C699 1.523 . S
C701 C685 1.429 . S
C701 C697 1.429 . S
C701 C702 1.523 . S
C702 C686 1.368 . S
C702 C698 1.368 . S
C702 C701 1.523 . S
H703 C678 0.950 . S
H704 C680 0.950 . S
H705 C681 0.949 . S
H706 C683 0.950 . S
H707 C685 0.950 . S
C708 C709 1.349 . S
C708 C710 1.327 . S
C708 H733 0.964 . S
C709 C708 1.349 . S
C709 C725 1.349 . S
C710 C708 1.327 . S
C710 C729 1.429 . S
C710 H734 0.951 1_655 S
C711 C728 1.574 1_554 S
C711 C730 1.368 . S
C711 H735 0.949 . S
H712 C716 0.946 1_455 S
C713 C714 1.349 . S
C713 C715 1.327 . S
C713 H736 0.950 . S
C714 C713 1.349 . S
C714 C726 1.349 . S
C715 C713 1.327 . S
C715 C731 1.429 . S
C715 H737 0.950 . S
C716 H712 0.946 1_655 S
C716 C724 1.574 1_556 S
C716 C732 1.368 . S
H717 C725 0.950 . S
H718 C723 0.950 . S
H719 C724 0.946 1_455 S
H720 C726 0.964 . S
H721 C727 0.951 1_455 S
H722 C728 0.949 . S
C723 H718 0.950 . S
C723 C725 1.327 . S
C723 C729 1.429 . S
C724 C716 1.574 1_554 S
C724 H719 0.946 1_655 S
C724 C730 1.368 . S
C725 C709 1.349 . S
C725 H717 0.950 . S
C725 C723 1.327 . S
C726 C714 1.349 . S
C726 H720 0.964 . S
C726 C727 1.327 . S
C727 H721 0.951 1_655 S
C727 C726 1.327 . S
C727 C731 1.429 . S
C728 C711 1.574 1_556 S
C728 H722 0.949 . S
C728 C732 1.368 . S
C729 C710 1.429 . S
C729 C723 1.429 . S
C729 C730 1.523 . S
C730 C711 1.368 . S
C730 C724 1.368 . S
C730 C729 1.523 . S
C731 C715 1.429 . S
C731 C727 1.429 . S
C731 C732 1.523 . S
C732 C716 1.368 . S
C732 C728 1.368 . S
C732 C731 1.523 . S
H733 C708 0.964 . S
H734 C710 0.951 1_455 S
H735 C711 0.949 . S
H736 C713 0.950 . S
H737 C715 0.950 . S
C738 C739 1.349 . S
C738 C740 1.327 . S
C738 H763 0.950 1_565 S
C739 C738 1.349 . S
C739 C755 1.349 . S
C740 C738 1.327 . S
C740 C759 1.429 . S
C740 H764 0.950 1_565 S
C741 C758 1.574 . S
C741 C760 1.368 . S
C741 H765 0.949 . S
H742 C746 0.949 1_545 S
C743 C744 1.349 . S
C743 C745 1.327 . S
C743 H766 0.950 . S
C744 C743 1.349 . S
C744 C756 1.349 . S
C745 C743 1.327 . S
C745 C761 1.429 . S
C745 H767 0.950 . S
C746 H742 0.949 1_565 S
C746 C754 1.574 . S
C746 C762 1.368 . S
H747 C755 0.950 . S
H748 C753 0.950 . S
H749 C754 0.949 1_545 S
H750 C756 0.950 1_545 S
H751 C757 0.950 1_545 S
H752 C758 0.949 . S
C753 H748 0.950 . S
C753 C755 1.327 . S
C753 C759 1.429 . S
C754 C746 1.574 . S
C754 H749 0.949 1_565 S
C754 C760 1.368 . S
C755 C739 1.349 . S
C755 H747 0.950 . S
C755 C753 1.327 . S
C756 C744 1.349 . S
C756 H750 0.950 1_565 S
C756 C757 1.327 . S
C757 H751 0.950 1_565 S
C757 C756 1.327 . S
C757 C761 1.429 . S
C758 C741 1.574 . S
C758 H752 0.949 . S
C758 C762 1.368 . S
C759 C740 1.429 . S
C759 C753 1.429 . S
C759 C760 1.523 . S
C760 C741 1.368 . S
C760 C754 1.368 . S
C760 C759 1.523 . S
C761 C745 1.429 . S
C761 C757 1.429 . S
C761 C762 1.523 . S
C762 C746 1.368 . S
C762 C758 1.368 . S
C762 C761 1.523 . S
H763 C738 0.950 1_545 S
H764 C740 0.950 1_545 S
H765 C741 0.949 . S
H766 C743 0.950 . S
H767 C745 0.950 . S
C768 C769 1.349 . S
C768 C770 1.327 . S
C768 H793 0.950 . S
C769 C768 1.349 . S
C769 C785 1.349 . S
C770 C768 1.327 . S
C770 C789 1.429 . S
C770 H794 0.950 . S
C771 C788 1.574 . S
C771 C790 1.368 . S
C771 H795 0.949 . S
H772 C776 0.949 1_545 S
C773 C774 1.349 . S
C773 C775 1.327 . S
C773 H796 0.950 . S
C774 C773 1.349 . S
C774 C786 1.349 . S
C775 C773 1.327 . S
C775 C791 1.429 . S
C775 H797 0.950 . S
C776 H772 0.949 1_565 S
C776 C784 1.574 . S
C776 C792 1.368 1_565 S
H777 C785 0.950 . S
H778 C783 0.950 . S
H779 C784 0.949 . S
H780 C786 0.950 . S
H781 C787 0.950 . S
H782 C788 0.949 1_545 S
C783 H778 0.950 . S
C783 C785 1.327 . S
C783 C789 1.429 . S
C784 C776 1.574 . S
C784 H779 0.949 . S
C784 C790 1.368 . S
C785 C769 1.349 . S
C785 H777 0.950 . S
C785 C783 1.327 . S
C786 C774 1.349 . S
C786 H780 0.950 . S
C786 C787 1.327 . S
C787 H781 0.950 . S
C787 C786 1.327 . S
C787 C791 1.429 . S
C788 C771 1.574 . S
C788 H782 0.949 1_565 S
C788 C792 1.368 1_565 S
C789 C770 1.429 . S
C789 C783 1.429 . S
C789 C790 1.523 . S
C790 C771 1.368 . S
C790 C784 1.368 . S
C790 C789 1.523 . S
C791 C775 1.429 . S
C791 C787 1.429 . S
C791 C792 1.523 . S
C792 C776 1.368 1_545 S
C792 C788 1.368 1_545 S
C792 C791 1.523 . S
H793 C768 0.950 . S
H794 C770 0.950 . S
H795 C771 0.949 . S
H796 C773 0.950 . S
H797 C775 0.950 . S
C798 C799 1.349 . S
C798 C800 1.327 . S
C798 H823 0.950 . S
C799 C798 1.349 . S
C799 C815 1.349 . S
C800 C798 1.327 . S
C800 C819 1.429 . S
C800 H824 0.950 . S
C801 C818 1.574 . S
C801 C820 1.368 . S
C801 H825 0.949 . S
H802 C806 0.949 . S
C803 C804 1.349 . S
C803 C805 1.327 . S
C803 H826 0.950 . S
C804 C803 1.349 . S
C804 C816 1.349 . S
C805 C803 1.327 . S
C805 C821 1.429 . S
C805 H827 0.950 . S
C806 H802 0.949 . S
C806 C814 1.574 . S
C806 C822 1.368 . S
H807 C815 0.950 . S
H808 C813 0.950 . S
H809 C814 0.949 . S
H810 C816 0.950 . S
H811 C817 0.950 . S
H812 C818 0.949 . S
C813 H808 0.950 . S
C813 C815 1.327 . S
C813 C819 1.429 . S
C814 C806 1.574 . S
C814 H809 0.949 . S
C814 C820 1.368 . S
C815 C799 1.349 . S
C815 H807 0.950 . S
C815 C813 1.327 . S
C816 C804 1.349 . S
C816 H810 0.950 . S
C816 C817 1.327 . S
C817 H811 0.950 . S
C817 C816 1.327 . S
C817 C821 1.429 . S
C818 C801 1.574 . S
C818 H812 0.949 . S
C818 C822 1.368 . S
C819 C800 1.429 . S
C819 C813 1.429 . S
C819 C820 1.523 . S
C820 C801 1.368 . S
C820 C814 1.368 . S
C820 C819 1.523 . S
C821 C805 1.429 . S
C821 C817 1.429 . S
C821 C822 1.523 . S
C822 C806 1.368 . S
C822 C818 1.368 . S
C822 C821 1.523 . S
H823 C798 0.950 . S
H824 C800 0.950 . S
H825 C801 0.949 . S
H826 C803 0.950 . S
H827 C805 0.950 . S
C828 C829 1.349 . S
C828 C830 1.327 . S
C828 H853 0.950 . S
C829 C828 1.349 . S
C829 C845 1.349 1_455 S
C830 C828 1.327 . S
C830 C849 1.429 1_455 S
C830 H854 0.950 . S
C831 C848 1.574 . S
C831 C850 1.368 . S
C831 H855 0.949 . S
H832 C836 0.949 . S
C833 C834 1.349 . S
C833 C835 1.327 . S
C833 H856 0.950 . S
C834 C833 1.349 . S
C834 C846 1.341 1_655 S
C835 C833 1.327 . S
C835 C851 1.429 . S
C835 H857 0.950 . S
C836 H832 0.949 . S
C836 C844 1.574 . S
C836 C852 1.368 1_455 S
H837 C845 0.950 . S
H838 C843 0.950 . S
H839 C844 0.949 . S
H840 C846 0.957 . S
H841 C847 0.950 . S
H842 C848 0.949 . S
C843 H838 0.950 . S
C843 C845 1.327 . S
C843 C849 1.429 . S
C844 C836 1.574 . S
C844 H839 0.949 . S
C844 C850 1.368 1_455 S
C845 C829 1.349 1_655 S
C845 H837 0.950 . S
C845 C843 1.327 . S
C846 C834 1.341 1_455 S
C846 H840 0.957 . S
C846 C847 1.328 . S
C847 H841 0.950 . S
C847 C846 1.328 . S
C847 C851 1.429 1_455 S
C848 C831 1.574 . S
C848 H842 0.949 . S
C848 C852 1.368 . S
C849 C830 1.429 1_655 S
C849 C843 1.429 . S
C849 C850 1.523 . S
C850 C831 1.368 . S
C850 C844 1.368 1_655 S
C850 C849 1.523 . S
C851 C835 1.429 . S
C851 C847 1.429 1_655 S
C851 C852 1.523 . S
C852 C836 1.368 1_655 S
C852 C848 1.368 . S
C852 C851 1.523 . S
H853 C828 0.950 . S
H854 C830 0.950 . S
H855 C831 0.949 . S
H856 C833 0.950 . S
H857 C835 0.950 . S
C858 C859 1.349 . S
C858 C860 1.327 . S
C858 H883 0.950 . S
C859 C858 1.349 . S
C859 C875 1.349 . S
C860 C858 1.327 . S
C860 C879 1.429 . S
C860 H884 0.950 1_565 S
C861 C878 1.574 . S
C861 C880 1.368 . S
C861 H885 0.949 . S
H862 C866 0.949 1_455 S
C863 C864 1.349 1_565 S
C863 C865 1.327 . S
C863 H886 0.950 . S
C864 C863 1.349 1_545 S
C864 C876 1.349 . S
C865 C863 1.327 . S
C865 C881 1.429 . S
C865 H887 0.950 . S
C866 H862 0.949 1_655 S
C866 C874 1.577 . S
C866 C882 1.368 1_645 S
H867 C875 0.950 . S
H868 C873 0.950 . S
H869 C874 0.959 . S
H870 C876 0.950 . S
H871 C877 0.950 . S
H872 C878 0.949 1_455 S
C873 H868 0.950 . S
C873 C875 1.327 . S
C873 C879 1.429 . S
C874 C866 1.577 . S
C874 H869 0.959 . S
C874 C880 1.356 1_545 S
C875 C859 1.349 . S
C875 H867 0.950 . S
C875 C873 1.327 . S
C876 C864 1.349 . S
C876 H870 0.950 . S
C876 C877 1.327 . S
C877 H871 0.950 . S
C877 C876 1.327 . S
C877 C881 1.429 1_545 S
C878 C861 1.574 . S
C878 H872 0.949 1_655 S
C878 C882 1.368 1_655 S
C879 C860 1.429 . S
C879 C873 1.429 . S
C879 C880 1.523 . S
C880 C861 1.368 . S
C880 C874 1.356 1_565 S
C880 C879 1.523 . S
C881 C865 1.429 . S
C881 C877 1.429 1_565 S
C881 C882 1.523 . S
C882 C866 1.368 1_465 S
C882 C878 1.368 1_455 S
C882 C881 1.523 . S
H883 C858 0.950 . S
H884 C860 0.950 1_545 S
H885 C861 0.949 . S
H886 C863 0.950 . S
H887 C865 0.950 . S
C888 C889 1.349 . S
C888 C890 1.327 . S
C888 H913 0.950 . S
C889 C888 1.349 . S
C889 C905 1.349 . S
C890 C888 1.327 . S
C890 C909 1.429 . S
C890 H914 0.950 . S
C891 C908 1.574 . S
C891 C910 1.368 . S
C891 H915 0.949 . S
H892 C896 0.949 . S
C893 C894 1.349 . S
C893 C895 1.327 . S
C893 H916 0.950 . S
C894 C893 1.349 . S
C894 C906 1.349 . S
C895 C893 1.327 . S
C895 C911 1.429 . S
C895 H917 0.950 . S
C896 H892 0.949 . S
C896 C904 1.574 . S
C896 C912 1.368 . S
H897 C905 0.950 . S
H898 C903 0.950 . S
H899 C904 0.949 . S
H900 C906 0.950 . S
H901 C907 0.950 . S
H902 C908 0.949 . S
C903 H898 0.950 . S
C903 C905 1.327 . S
C903 C909 1.429 . S
C904 C896 1.574 . S
C904 H899 0.949 . S
C904 C910 1.368 . S
C905 C889 1.349 . S
C905 H897 0.950 . S
C905 C903 1.327 . S
C906 C894 1.349 . S
C906 H900 0.950 . S
C906 C907 1.327 . S
C907 H901 0.950 . S
C907 C906 1.327 . S
C907 C911 1.429 . S
C908 C891 1.574 . S
C908 H902 0.949 . S
C908 C912 1.368 . S
C909 C890 1.429 . S
C909 C903 1.429 . S
C909 C910 1.523 . S
C910 C891 1.368 . S
C910 C904 1.368 . S
C910 C909 1.523 . S
C911 C895 1.429 . S
C911 C907 1.429 . S
C911 C912 1.523 . S
C912 C896 1.368 . S
C912 C908 1.368 . S
C912 C911 1.523 . S
H913 C888 0.950 . S
H914 C890 0.950 . S
H915 C891 0.949 . S
H916 C893 0.950 . S
H917 C895 0.950 . S
C918 C919 1.349 . S
C918 C920 1.327 . S
C918 H943 0.950 . S
C919 C918 1.349 . S
C919 C935 1.349 . S
C920 C918 1.327 . S
C920 C939 1.429 . S
C920 H944 0.950 . S
C921 C938 1.574 . S
C921 C940 1.368 . S
C921 H945 0.949 . S
H922 C926 0.949 1_455 S
C923 C924 1.349 . S
C923 C925 1.327 . S
C923 H946 0.950 . S
C924 C923 1.349 . S
C924 C936 1.349 . S
C925 C923 1.327 . S
C925 C941 1.429 . S
C925 H947 0.950 . S
C926 H922 0.949 1_655 S
C926 C934 1.574 . S
C926 C942 1.368 1_655 S
H927 C935 0.950 . S
H928 C933 0.950 . S
H929 C934 0.949 . S
H930 C936 0.950 . S
H931 C937 0.950 . S
H932 C938 0.949 1_455 S
C933 H928 0.950 . S
C933 C935 1.327 . S
C933 C939 1.429 . S
C934 C926 1.574 . S
C934 H929 0.949 . S
C934 C940 1.368 . S
C935 C919 1.349 . S
C935 H927 0.950 . S
C935 C933 1.327 . S
C936 C924 1.349 . S
C936 H930 0.950 . S
C936 C937 1.327 . S
C937 H931 0.950 . S
C937 C936 1.327 . S
C937 C941 1.429 . S
C938 C921 1.574 . S
C938 H932 0.949 1_655 S
C938 C942 1.368 1_655 S
C939 C920 1.429 . S
C939 C933 1.429 . S
C939 C940 1.523 . S
C940 C921 1.368 . S
C940 C934 1.368 . S
C940 C939 1.523 . S
C941 C925 1.429 . S
C941 C937 1.429 . S
C941 C942 1.523 . S
C942 C926 1.368 1_455 S
C942 C938 1.368 1_455 S
C942 C941 1.523 . S
H943 C918 0.950 . S
H944 C920 0.950 . S
H945 C921 0.949 . S
H946 C923 0.950 . S
H947 C925 0.950 . S
C948 C949 1.349 1_655 S
C948 C950 1.327 . S
C948 H973 0.950 . S
C949 C948 1.349 1_455 S
C949 C965 1.349 . S
C950 C948 1.327 . S
C950 C969 1.429 . S
C950 H974 0.950 . S
C951 C968 1.574 . S
C951 C970 1.368 1_465 S
C951 H975 0.949 1_565 S
H952 C956 0.949 . S
C953 C954 1.349 . S
C953 C955 1.327 1_655 S
C953 H976 0.950 1_655 S
C954 C953 1.349 . S
C954 C966 1.349 . S
C955 C953 1.327 1_455 S
C955 C971 1.429 1_455 S
C955 H977 0.950 . S
C956 H952 0.949 . S
C956 C964 1.574 . S
C956 C972 1.368 . S
H957 C965 0.950 . S
H958 C963 0.950 . S
H959 C964 0.949 1_545 S
H960 C966 0.950 . S
H961 C967 0.950 . S
H962 C968 0.949 . S
C963 H958 0.950 . S
C963 C965 1.327 . S
C963 C969 1.429 1_455 S
C964 C956 1.574 . S
C964 H959 0.949 1_565 S
C964 C970 1.368 1_565 S
C965 C949 1.349 . S
C965 H957 0.950 . S
C965 C963 1.327 . S
C966 C954 1.349 . S
C966 H960 0.950 . S
C966 C967 1.327 . S
C967 H961 0.950 . S
C967 C966 1.327 . S
C967 C971 1.429 . S
C968 C951 1.574 . S
C968 H962 0.949 . S
C968 C972 1.368 1_455 S
C969 C950 1.429 . S
C969 C963 1.429 1_655 S
C969 C970 1.523 . S
C970 C951 1.368 1_645 S
C970 C964 1.368 1_545 S
C970 C969 1.523 . S
C971 C955 1.429 1_655 S
C971 C967 1.429 . S
C971 C972 1.523 . S
C972 C956 1.368 . S
C972 C968 1.368 1_655 S
C972 C971 1.523 . S
H973 C948 0.950 . S
H974 C950 0.950 . S
H975 C951 0.949 1_545 S
H976 C953 0.950 1_455 S
H977 C955 0.950 . S
C978 C979 1.349 1_565 S
C978 C980 1.327 . S
C978 H1003 0.950 . S
C979 C978 1.349 1_545 S
C979 C995 1.349 . S
C980 C978 1.327 . S
C980 C999 1.429 . S
C980 H1004 0.950 . S
C981 C998 1.574 . S
C981 C1000 1.368 1_545 S
C981 H1005 0.949 . S
H982 C986 0.949 . S
C983 C984 1.349 1_545 S
C983 C985 1.327 . S
C983 H1006 0.950 . S
C984 C983 1.349 1_565 S
C984 C996 1.349 . S
C985 C983 1.327 . S
C985 C1001 1.429 1_545 S
C985 H1007 0.950 . S
C986 H982 0.949 . S
C986 C994 1.574 . S
C986 C1002 1.368 . S
H987 C995 0.950 . S
H988 C993 0.950 . S
H989 C994 0.949 . S
H990 C996 0.950 . S
H991 C997 0.950 . S
H992 C998 0.949 . S
C993 H988 0.950 . S
C993 C995 1.327 . S
C993 C999 1.429 1_545 S
C994 C986 1.574 . S
C994 H989 0.949 . S
C994 C1000 1.368 . S
C995 C979 1.349 . S
C995 H987 0.950 . S
C995 C993 1.327 . S
C996 C984 1.349 . S
C996 H990 0.950 . S
C996 C997 1.327 . S
C997 H991 0.950 . S
C997 C996 1.327 . S
C997 C1001 1.429 . S
C998 C981 1.574 . S
C998 H992 0.949 . S
C998 C1002 1.368 1_545 S
C999 C980 1.429 . S
C999 C993 1.429 1_565 S
C999 C1000 1.523 . S
C1000 C981 1.368 1_565 S
C1000 C994 1.368 . S
C1000 C999 1.523 . S
C1001 C985 1.429 1_565 S
C1001 C997 1.429 . S
C1001 C1002 1.523 . S
C1002 C986 1.368 . S
C1002 C998 1.368 1_565 S
C1002 C1001 1.523 . S
H1003 C978 0.950 . S
H1004 C980 0.950 . S
H1005 C981 0.949 . S
H1006 C983 0.950 . S
H1007 C985 0.950 . S
C1008 C1009 1.349 . S
C1008 C1010 1.327 . S
C1008 H1033 0.950 . S
C1009 C1008 1.349 . S
C1009 C1025 1.349 . S
C1010 C1008 1.327 . S
C1010 C1029 1.429 . S
C1010 H1034 0.950 . S
C1011 C1028 1.574 . S
C1011 C1030 1.368 . S
C1011 H1035 0.949 . S
H1012 C1016 0.949 1_565 S
C1013 C1014 1.349 . S
C1013 C1015 1.327 . S
C1013 H1036 0.950 . S
C1014 C1013 1.349 . S
C1014 C1026 1.349 . S
C1015 C1013 1.327 . S
C1015 C1031 1.429 . S
C1015 H1037 0.950 . S
C1016 H1012 0.949 1_545 S
C1016 C1024 1.574 . S
C1016 C1032 1.368 1_545 S
H1017 C1025 0.950 . S
H1018 C1023 0.950 . S
H1019 C1024 0.949 . S
H1020 C1026 0.950 . S
H1021 C1027 0.950 . S
H1022 C1028 0.949 1_565 S
C1023 H1018 0.950 . S
C1023 C1025 1.327 . S
C1023 C1029 1.429 . S
C1024 C1016 1.574 . S
C1024 H1019 0.949 . S
C1024 C1030 1.368 . S
C1025 C1009 1.349 . S
C1025 H1017 0.950 . S
C1025 C1023 1.327 . S
C1026 C1014 1.349 . S
C1026 H1020 0.950 . S
C1026 C1027 1.327 . S
C1027 H1021 0.950 . S
C1027 C1026 1.327 . S
C1027 C1031 1.429 . S
C1028 C1011 1.574 . S
C1028 H1022 0.949 1_545 S
C1028 C1032 1.368 1_545 S
C1029 C1010 1.429 . S
C1029 C1023 1.429 . S
C1029 C1030 1.523 . S
C1030 C1011 1.368 . S
C1030 C1024 1.368 . S
C1030 C1029 1.523 . S
C1031 C1015 1.429 . S
C1031 C1027 1.429 . S
C1031 C1032 1.523 . S
C1032 C1016 1.368 1_565 S
C1032 C1028 1.368 1_565 S
C1032 C1031 1.523 . S
H1033 C1008 0.950 . S
H1034 C1010 0.950 . S
H1035 C1011 0.949 . S
H1036 C1013 0.950 . S
H1037 C1015 0.950 . S
C1038 C1039 1.349 . S
C1038 C1040 1.327 . S
C1038 H1063 0.950 . S
C1039 C1038 1.349 . S
C1039 C1055 1.349 . S
C1040 C1038 1.327 . S
C1040 C1059 1.429 . S
C1040 H1064 0.950 . S
C1041 C1058 1.574 . S
C1041 C1060 1.368 . S
C1041 H1065 0.949 . S
H1042 C1046 0.949 . S
C1043 C1044 1.349 . S
C1043 C1045 1.327 . S
C1043 H1066 0.950 . S
C1044 C1043 1.349 . S
C1044 C1056 1.349 . S
C1045 C1043 1.327 . S
C1045 C1061 1.429 . S
C1045 H1067 0.950 . S
C1046 H1042 0.949 . S
C1046 C1054 1.574 . S
C1046 C1062 1.368 . S
H1047 C1055 0.950 . S
H1048 C1053 0.950 . S
H1049 C1054 0.949 . S
H1050 C1056 0.950 . S
H1051 C1057 0.950 . S
H1052 C1058 0.949 . S
C1053 H1048 0.950 . S
C1053 C1055 1.327 . S
C1053 C1059 1.429 . S
C1054 C1046 1.574 . S
C1054 H1049 0.949 . S
C1054 C1060 1.368 . S
C1055 C1039 1.349 . S
C1055 H1047 0.950 . S
C1055 C1053 1.327 . S
C1056 C1044 1.349 . S
C1056 H1050 0.950 . S
C1056 C1057 1.327 . S
C1057 H1051 0.950 . S
C1057 C1056 1.327 . S
C1057 C1061 1.429 . S
C1058 C1041 1.574 . S
C1058 H1052 0.949 . S
C1058 C1062 1.368 . S
C1059 C1040 1.429 . S
C1059 C1053 1.429 . S
C1059 C1060 1.523 . S
C1060 C1041 1.368 . S
C1060 C1054 1.368 . S
C1060 C1059 1.523 . S
C1061 C1045 1.429 . S
C1061 C1057 1.429 . S
C1061 C1062 1.523 . S
C1062 C1046 1.368 . S
C1062 C1058 1.368 . S
C1062 C1061 1.523 . S
H1063 C1038 0.950 . S
H1064 C1040 0.950 . S
H1065 C1041 0.949 . S
H1066 C1043 0.950 . S
H1067 C1045 0.950 . S
C1068 C1069 1.349 . S
C1068 C1070 1.327 . S
C1068 H1093 0.950 . S
C1069 C1068 1.349 . S
C1069 C1085 1.349 . S
C1070 C1068 1.327 . S
C1070 C1089 1.429 . S
C1070 H1094 0.950 . S
C1071 C1088 1.574 . S
C1071 C1090 1.368 1_655 S
C1071 H1095 0.949 . S
H1072 C1076 0.949 . S
C1073 C1074 1.349 . S
C1073 C1075 1.327 . S
C1073 H1096 0.950 . S
C1074 C1073 1.349 . S
C1074 C1086 1.349 1_655 S
C1075 C1073 1.327 . S
C1075 C1091 1.429 1_655 S
C1075 H1097 0.950 . S
C1076 H1072 0.949 . S
C1076 C1084 1.574 . S
C1076 C1092 1.368 . S
H1077 C1085 0.950 1_655 S
H1078 C1083 0.950 . S
H1079 C1084 0.949 . S
H1080 C1086 0.950 . S
H1081 C1087 0.950 . S
H1082 C1088 0.949 . S
C1083 H1078 0.950 . S
C1083 C1085 1.327 1_655 S
C1083 C1089 1.429 1_655 S
C1084 C1076 1.574 . S
C1084 H1079 0.949 . S
C1084 C1090 1.368 . S
C1085 C1069 1.349 . S
C1085 H1077 0.950 1_455 S
C1085 C1083 1.327 1_455 S
C1086 C1074 1.349 1_455 S
C1086 H1080 0.950 . S
C1086 C1087 1.327 . S
C1087 H1081 0.950 . S
C1087 C1086 1.327 . S
C1087 C1091 1.429 . S
C1088 C1071 1.574 . S
C1088 H1082 0.949 . S
C1088 C1092 1.368 1_655 S
C1089 C1070 1.429 . S
C1089 C1083 1.429 1_455 S
C1089 C1090 1.523 . S
C1090 C1071 1.368 1_455 S
C1090 C1084 1.368 . S
C1090 C1089 1.523 . S
C1091 C1075 1.429 1_455 S
C1091 C1087 1.429 . S
C1091 C1092 1.523 . S
C1092 C1076 1.368 . S
C1092 C1088 1.368 1_455 S
C1092 C1091 1.523 . S
H1093 C1068 0.950 . S
H1094 C1070 0.950 . S
H1095 C1071 0.949 . S
H1096 C1073 0.950 . S
H1097 C1075 0.950 . S
C1098 C1099 1.349 1_545 S
C1098 C1100 1.327 . S
C1098 H1123 0.950 . S
C1099 C1098 1.349 1_565 S
C1099 C1115 1.349 . S
C1100 C1098 1.327 . S
C1100 C1119 1.429 . S
C1100 H1124 0.950 . S
C1101 C1118 1.574 . S
C1101 C1120 1.368 1_455 S
C1101 H1125 0.949 1_445 S
H1102 C1106 0.949 . S
C1103 C1104 1.349 . S
C1103 C1105 1.327 . S
C1103 H1126 0.950 . S
C1104 C1103 1.349 . S
C1104 C1116 1.349 . S
C1105 C1103 1.327 . S
C1105 C1121 1.429 . S
C1105 H1127 0.950 . S
C1106 H1102 0.949 . S
C1106 C1114 1.574 . S
C1106 C1122 1.368 . S
H1107 C1115 0.950 . S
H1108 C1113 0.950 . S
H1109 C1114 0.949 1_655 S
H1110 C1116 0.950 . S
H1111 C1117 0.950 . S
H1112 C1118 0.949 . S
C1113 H1108 0.950 . S
C1113 C1115 1.327 . S
C1113 C1119 1.429 1_565 S
C1114 C1106 1.574 . S
C1114 H1109 0.949 1_455 S
C1114 C1120 1.368 1_455 S
C1115 C1099 1.349 . S
C1115 H1107 0.950 . S
C1115 C1113 1.327 . S
C1116 C1104 1.349 . S
C1116 H1110 0.950 . S
C1116 C1117 1.327 . S
C1117 H1111 0.950 . S
C1117 C1116 1.327 . S
C1117 C1121 1.429 . S
C1118 C1101 1.574 . S
C1118 H1112 0.949 . S
C1118 C1122 1.368 . S
C1119 C1100 1.429 . S
C1119 C1113 1.429 1_545 S
C1119 C1120 1.523 . S
C1120 C1101 1.368 1_655 S
C1120 C1114 1.368 1_655 S
C1120 C1119 1.523 . S
C1121 C1105 1.429 . S
C1121 C1117 1.429 . S
C1121 C1122 1.523 . S
C1122 C1106 1.368 . S
C1122 C1118 1.368 . S
C1122 C1121 1.523 . S
H1123 C1098 0.950 . S
H1124 C1100 0.950 . S
H1125 C1101 0.949 1_665 S
H1126 C1103 0.950 . S
H1127 C1105 0.950 . S
C1128 C1129 1.349 . S
C1128 C1130 1.327 . S
C1128 H1153 0.950 . S
C1129 C1128 1.349 . S
C1129 C1145 1.349 . S
C1130 C1128 1.327 . S
C1130 C1149 1.429 . S
C1130 H1154 0.950 . S
C1131 C1148 1.574 . S
C1131 C1150 1.368 . S
C1131 H1155 0.949 . S
H1132 C1136 0.949 . S
C1133 C1134 1.349 . S
C1133 C1135 1.327 . S
C1133 H1156 0.950 . S
C1134 C1133 1.349 . S
C1134 C1146 1.349 . S
C1135 C1133 1.327 . S
C1135 C1151 1.429 . S
C1135 H1157 0.950 . S
C1136 H1132 0.949 . S
C1136 C1144 1.574 . S
C1136 C1152 1.368 . S
H1137 C1145 0.950 . S
H1138 C1143 0.950 . S
H1139 C1144 0.949 . S
H1140 C1146 0.950 . S
H1141 C1147 0.950 . S
H1142 C1148 0.949 . S
C1143 H1138 0.950 . S
C1143 C1145 1.327 . S
C1143 C1149 1.429 . S
C1144 C1136 1.574 . S
C1144 H1139 0.949 . S
C1144 C1150 1.368 . S
C1145 C1129 1.349 . S
C1145 H1137 0.950 . S
C1145 C1143 1.327 . S
C1146 C1134 1.349 . S
C1146 H1140 0.950 . S
C1146 C1147 1.327 . S
C1147 H1141 0.950 . S
C1147 C1146 1.327 . S
C1147 C1151 1.429 . S
C1148 C1131 1.574 . S
C1148 H1142 0.949 . S
C1148 C1152 1.368 . S
C1149 C1130 1.429 . S
C1149 C1143 1.429 . S
C1149 C1150 1.523 . S
C1150 C1131 1.368 . S
C1150 C1144 1.368 . S
C1150 C1149 1.523 . S
C1151 C1135 1.429 . S
C1151 C1147 1.429 . S
C1151 C1152 1.523 . S
C1152 C1136 1.368 . S
C1152 C1148 1.368 . S
C1152 C1151 1.523 . S
H1153 C1128 0.950 . S
H1154 C1130 0.950 . S
H1155 C1131 0.949 . S
H1156 C1133 0.950 . S
H1157 C1135 0.950 . S
C1158 C1159 1.349 . S
C1158 C1160 1.327 . S
C1158 H1183 0.950 . S
C1159 C1158 1.349 . S
C1159 C1175 1.349 . S
C1160 C1158 1.327 . S
C1160 C1179 1.429 . S
C1160 H1184 0.950 . S
C1161 C1178 1.574 . S
C1161 C1180 1.368 . S
C1161 H1185 0.949 . S
H1162 C1166 0.949 1_655 S
C1163 C1164 1.349 . S
C1163 C1165 1.327 . S
C1163 H1186 0.950 . S
C1164 C1163 1.349 . S
C1164 C1176 1.349 . S
C1165 C1163 1.327 . S
C1165 C1181 1.429 . S
C1165 H1187 0.950 . S
C1166 H1162 0.949 1_455 S
C1166 C1174 1.574 . S
C1166 C1182 1.368 1_455 S
H1167 C1175 0.950 . S
H1168 C1173 0.950 . S
H1169 C1174 0.949 . S
H1170 C1176 0.950 . S
H1171 C1177 0.950 . S
H1172 C1178 0.949 1_655 S
C1173 H1168 0.950 . S
C1173 C1175 1.327 . S
C1173 C1179 1.429 . S
C1174 C1166 1.574 . S
C1174 H1169 0.949 . S
C1174 C1180 1.368 . S
C1175 C1159 1.349 . S
C1175 H1167 0.950 . S
C1175 C1173 1.327 . S
C1176 C1164 1.349 . S
C1176 H1170 0.950 . S
C1176 C1177 1.327 . S
C1177 H1171 0.950 . S
C1177 C1176 1.327 . S
C1177 C1181 1.429 . S
C1178 C1161 1.574 . S
C1178 H1172 0.949 1_455 S
C1178 C1182 1.368 1_455 S
C1179 C1160 1.429 . S
C1179 C1173 1.429 . S
C1179 C1180 1.523 . S
C1180 C1161 1.368 . S
C1180 C1174 1.368 . S
C1180 C1179 1.523 . S
C1181 C1165 1.429 . S
C1181 C1177 1.429 . S
C1181 C1182 1.523 . S
C1182 C1166 1.368 1_655 S
C1182 C1178 1.368 1_655 S
C1182 C1181 1.523 . S
H1183 C1158 0.950 . S
H1184 C1160 0.950 . S
H1185 C1161 0.949 . S
H1186 C1163 0.950 . S
H1187 C1165 0.950 . S
C1188 C1189 1.349 1_455 S
C1188 C1190 1.327 . S
C1188 H1213 0.950 . S
C1189 C1188 1.349 1_655 S
C1189 C1205 1.349 . S
C1190 C1188 1.327 . S
C1190 C1209 1.429 . S
C1190 H1214 0.950 . S
C1191 C1208 1.574 . S
C1191 C1210 1.368 1_645 S
C1191 H1215 0.949 1_545 S
H1192 C1196 0.949 . S
C1193 C1194 1.349 . S
C1193 C1195 1.327 1_455 S
C1193 H1216 0.950 1_455 S
C1194 C1193 1.349 . S
C1194 C1206 1.349 . S
C1195 C1193 1.327 1_655 S
C1195 C1211 1.429 1_655 S
C1195 H1217 0.950 . S
C1196 H1192 0.949 . S
C1196 C1204 1.574 . S
C1196 C1212 1.368 . S
H1197 C1205 0.950 . S
H1198 C1203 0.950 . S
H1199 C1204 0.949 1_565 S
H1200 C1206 0.950 . S
H1201 C1207 0.950 . S
H1202 C1208 0.949 . S
C1203 H1198 0.950 . S
C1203 C1205 1.327 . S
C1203 C1209 1.429 1_655 S
C1204 C1196 1.574 . S
C1204 H1199 0.949 1_545 S
C1204 C1210 1.368 1_545 S
C1205 C1189 1.349 . S
C1205 H1197 0.950 . S
C1205 C1203 1.327 . S
C1206 C1194 1.349 . S
C1206 H1200 0.950 . S
C1206 C1207 1.327 . S
C1207 H1201 0.950 . S
C1207 C1206 1.327 . S
C1207 C1211 1.429 . S
C1208 C1191 1.574 . S
C1208 H1202 0.949 . S
C1208 C1212 1.368 1_655 S
C1209 C1190 1.429 . S
C1209 C1203 1.429 1_455 S
C1209 C1210 1.523 . S
C1210 C1191 1.368 1_465 S
C1210 C1204 1.368 1_565 S
C1210 C1209 1.523 . S
C1211 C1195 1.429 1_455 S
C1211 C1207 1.429 . S
C1211 C1212 1.523 . S
C1212 C1196 1.368 . S
C1212 C1208 1.368 1_455 S
C1212 C1211 1.523 . S
H1213 C1188 0.950 . S
H1214 C1190 0.950 . S
H1215 C1191 0.949 1_565 S
H1216 C1193 0.950 1_655 S
H1217 C1195 0.950 . S
C1218 C1219 1.349 1_565 S
C1218 C1220 1.327 . S
C1218 H1243 0.950 . S
C1219 C1218 1.349 1_545 S
C1219 C1235 1.349 . S
C1220 C1218 1.327 . S
C1220 C1239 1.429 1_565 S
C1220 H1244 0.950 . S
C1221 C1238 1.574 . S
C1221 C1240 1.368 . S
C1221 H1245 0.949 . S
H1222 C1226 0.949 . S
C1223 C1224 1.349 1_545 S
C1223 C1225 1.327 . S
C1223 H1246 0.950 . S
C1224 C1223 1.349 1_565 S
C1224 C1236 1.349 . S
C1225 C1223 1.327 . S
C1225 C1241 1.429 . S
C1225 H1247 0.950 . S
C1226 H1222 0.949 . S
C1226 C1234 1.574 . S
C1226 C1242 1.368 1_565 S
H1227 C1235 0.950 . S
H1228 C1233 0.950 . S
H1229 C1234 0.949 . S
H1230 C1236 0.950 . S
H1231 C1237 0.950 . S
H1232 C1238 0.949 . S
C1233 H1228 0.950 . S
C1233 C1235 1.327 . S
C1233 C1239 1.429 . S
C1234 C1226 1.574 . S
C1234 H1229 0.949 . S
C1234 C1240 1.368 1_565 S
C1235 C1219 1.349 . S
C1235 H1227 0.950 . S
C1235 C1233 1.327 . S
C1236 C1224 1.349 . S
C1236 H1230 0.950 . S
C1236 C1237 1.327 . S
C1237 H1231 0.950 . S
C1237 C1236 1.327 . S
C1237 C1241 1.429 1_565 S
C1238 C1221 1.574 . S
C1238 H1232 0.949 . S
C1238 C1242 1.368 . S
C1239 C1220 1.429 1_545 S
C1239 C1233 1.429 . S
C1239 C1240 1.523 . S
C1240 C1221 1.368 . S
C1240 C1234 1.368 1_545 S
C1240 C1239 1.523 . S
C1241 C1225 1.429 . S
C1241 C1237 1.429 1_545 S
C1241 C1242 1.523 . S
C1242 C1226 1.368 1_545 S
C1242 C1238 1.368 . S
C1242 C1241 1.523 . S
H1243 C1218 0.950 . S
H1244 C1220 0.950 . S
H1245 C1221 0.949 . S
H1246 C1223 0.950 . S
H1247 C1225 0.950 . S
C1248 C1249 1.349 . S
C1248 C1250 1.327 . S
C1248 H1273 0.950 . S
C1249 C1248 1.349 . S
C1249 C1265 1.349 . S
C1250 C1248 1.327 . S
C1250 C1269 1.429 . S
C1250 H1274 0.950 . S
C1251 C1268 1.574 . S
C1251 C1270 1.368 . S
C1251 H1275 0.949 . S
H1252 C1256 0.949 . S
C1253 C1254 1.349 . S
C1253 C1255 1.327 . S
C1253 H1276 0.950 . S
C1254 C1253 1.349 . S
C1254 C1266 1.349 . S
C1255 C1253 1.327 . S
C1255 C1271 1.429 . S
C1255 H1277 0.950 . S
C1256 H1252 0.949 . S
C1256 C1264 1.574 . S
C1256 C1272 1.368 . S
H1257 C1265 0.950 . S
H1258 C1263 0.950 . S
H1259 C1264 0.949 . S
H1260 C1266 0.950 . S
H1261 C1267 0.950 . S
H1262 C1268 0.949 . S
C1263 H1258 0.950 . S
C1263 C1265 1.327 . S
C1263 C1269 1.429 . S
C1264 C1256 1.574 . S
C1264 H1259 0.949 . S
C1264 C1270 1.368 . S
C1265 C1249 1.349 . S
C1265 H1257 0.950 . S
C1265 C1263 1.327 . S
C1266 C1254 1.349 . S
C1266 H1260 0.950 . S
C1266 C1267 1.327 . S
C1267 H1261 0.950 . S
C1267 C1266 1.327 . S
C1267 C1271 1.429 . S
C1268 C1251 1.574 . S
C1268 H1262 0.949 . S
C1268 C1272 1.368 . S
C1269 C1250 1.429 . S
C1269 C1263 1.429 . S
C1269 C1270 1.523 . S
C1270 C1251 1.368 . S
C1270 C1264 1.368 . S
C1270 C1269 1.523 . S
C1271 C1255 1.429 . S
C1271 C1267 1.429 . S
C1271 C1272 1.523 . S
C1272 C1256 1.368 . S
C1272 C1268 1.368 . S
C1272 C1271 1.523 . S
H1273 C1248 0.950 . S
H1274 C1250 0.950 . S
H1275 C1251 0.949 . S
H1276 C1253 0.950 . S
H1277 C1255 0.950 . S
C1278 C1279 1.349 . S
C1278 C1280 1.327 . S
C1278 H1303 0.950 . S
C1279 C1278 1.349 . S
C1279 C1295 1.349 . S
C1280 C1278 1.327 . S
C1280 C1299 1.429 . S
C1280 H1304 0.950 . S
C1281 C1298 1.574 . S
C1281 C1300 1.368 . S
C1281 H1305 0.949 . S
H1282 C1286 0.949 . S
C1283 C1284 1.349 . S
C1283 C1285 1.327 . S
C1283 H1306 0.950 . S
C1284 C1283 1.349 . S
C1284 C1296 1.349 . S
C1285 C1283 1.327 . S
C1285 C1301 1.429 . S
C1285 H1307 0.950 . S
C1286 H1282 0.949 . S
C1286 C1294 1.574 . S
C1286 C1302 1.368 . S
H1287 C1295 0.950 . S
H1288 C1293 0.950 . S
H1289 C1294 0.949 . S
H1290 C1296 0.950 . S
H1291 C1297 0.950 . S
H1292 C1298 0.949 . S
C1293 H1288 0.950 . S
C1293 C1295 1.327 . S
C1293 C1299 1.429 . S
C1294 C1286 1.574 . S
C1294 H1289 0.949 . S
C1294 C1300 1.368 . S
C1295 C1279 1.349 . S
C1295 H1287 0.950 . S
C1295 C1293 1.327 . S
C1296 C1284 1.349 . S
C1296 H1290 0.950 . S
C1296 C1297 1.327 . S
C1297 H1291 0.950 . S
C1297 C1296 1.327 . S
C1297 C1301 1.429 . S
C1298 C1281 1.574 . S
C1298 H1292 0.949 . S
C1298 C1302 1.368 . S
C1299 C1280 1.429 . S
C1299 C1293 1.429 . S
C1299 C1300 1.523 . S
C1300 C1281 1.368 . S
C1300 C1294 1.368 . S
C1300 C1299 1.523 . S
C1301 C1285 1.429 . S
C1301 C1297 1.429 . S
C1301 C1302 1.523 . S
C1302 C1286 1.368 . S
C1302 C1298 1.368 . S
C1302 C1301 1.523 . S
H1303 C1278 0.950 . S
H1304 C1280 0.950 . S
H1305 C1281 0.949 . S
H1306 C1283 0.950 . S
H1307 C1285 0.950 . S
C1308 C1309 1.349 . S
C1308 C1310 1.327 . S
C1308 H1333 0.950 . S
C1309 C1308 1.349 . S
C1309 C1325 1.349 . S
C1310 C1308 1.327 . S
C1310 C1329 1.429 . S
C1310 H1334 0.950 . S
C1311 C1328 1.574 . S
C1311 C1330 1.368 . S
C1311 H1335 0.949 . S
H1312 C1316 0.949 . S
C1313 C1314 1.349 . S
C1313 C1315 1.327 . S
C1313 H1336 0.950 . S
C1314 C1313 1.349 . S
C1314 C1326 1.349 . S
C1315 C1313 1.327 . S
C1315 C1331 1.429 . S
C1315 H1337 0.950 . S
C1316 H1312 0.949 . S
C1316 C1324 1.574 . S
C1316 C1332 1.368 . S
H1317 C1325 0.950 . S
H1318 C1323 0.950 . S
H1319 C1324 0.949 . S
H1320 C1326 0.950 . S
H1321 C1327 0.950 . S
H1322 C1328 0.949 . S
C1323 H1318 0.950 . S
C1323 C1325 1.327 . S
C1323 C1329 1.429 . S
C1324 C1316 1.574 . S
C1324 H1319 0.949 . S
C1324 C1330 1.368 . S
C1325 C1309 1.349 . S
C1325 H1317 0.950 . S
C1325 C1323 1.327 . S
C1326 C1314 1.349 . S
C1326 H1320 0.950 . S
C1326 C1327 1.327 . S
C1327 H1321 0.950 . S
C1327 C1326 1.327 . S
C1327 C1331 1.429 . S
C1328 C1311 1.574 . S
C1328 H1322 0.949 . S
C1328 C1332 1.368 . S
C1329 C1310 1.429 . S
C1329 C1323 1.429 . S
C1329 C1330 1.523 . S
C1330 C1311 1.368 . S
C1330 C1324 1.368 . S
C1330 C1329 1.523 . S
C1331 C1315 1.429 . S
C1331 C1327 1.429 . S
C1331 C1332 1.523 . S
C1332 C1316 1.368 . S
C1332 C1328 1.368 . S
C1332 C1331 1.523 . S
H1333 C1308 0.950 . S
H1334 C1310 0.950 . S
H1335 C1311 0.949 . S
H1336 C1313 0.950 . S
H1337 C1315 0.950 . S
C1338 C1339 1.349 . S
C1338 C1340 1.327 . S
C1338 H1363 0.950 . S
C1339 C1338 1.349 . S
C1339 C1355 1.349 . S
C1340 C1338 1.327 . S
C1340 C1359 1.429 . S
C1340 H1364 0.950 . S
C1341 C1358 1.574 . S
C1341 C1360 1.368 . S
C1341 H1365 0.949 . S
H1342 C1346 0.949 . S
C1343 C1344 1.349 . S
C1343 C1345 1.327 . S
C1343 H1366 0.950 . S
C1344 C1343 1.349 . S
C1344 C1356 1.349 . S
C1345 C1343 1.327 . S
C1345 C1361 1.429 . S
C1345 H1367 0.950 . S
C1346 H1342 0.949 . S
C1346 C1354 1.574 . S
C1346 C1362 1.368 . S
H1347 C1355 0.950 . S
H1348 C1353 0.950 . S
H1349 C1354 0.949 . S
H1350 C1356 0.950 . S
H1351 C1357 0.950 . S
H1352 C1358 0.949 . S
C1353 H1348 0.950 . S
C1353 C1355 1.327 . S
C1353 C1359 1.429 . S
C1354 C1346 1.574 . S
C1354 H1349 0.949 . S
C1354 C1360 1.368 . S
C1355 C1339 1.349 . S
C1355 H1347 0.950 . S
C1355 C1353 1.327 . S
C1356 C1344 1.349 . S
C1356 H1350 0.950 . S
C1356 C1357 1.327 . S
C1357 H1351 0.950 . S
C1357 C1356 1.327 . S
C1357 C1361 1.429 . S
C1358 C1341 1.574 . S
C1358 H1352 0.949 . S
C1358 C1362 1.368 . S
C1359 C1340 1.429 . S
C1359 C1353 1.429 . S
C1359 C1360 1.523 . S
C1360 C1341 1.368 . S
C1360 C1354 1.368 . S
C1360 C1359 1.523 . S
C1361 C1345 1.429 . S
C1361 C1357 1.429 . S
C1361 C1362 1.523 . S
C1362 C1346 1.368 . S
C1362 C1358 1.368 . S
C1362 C1361 1.523 . S
H1363 C1338 0.950 . S
H1364 C1340 0.950 . S
H1365 C1341 0.949 . S
H1366 C1343 0.950 . S
H1367 C1345 0.950 . S
C1368 C1369 1.349 . S
C1368 C1370 1.327 . S
C1368 H1393 0.950 . S
C1369 C1368 1.349 . S
C1369 C1385 1.349 . S
C1370 C1368 1.327 . S
C1370 C1389 1.429 . S
C1370 H1394 0.950 . S
C1371 C1388 1.574 . S
C1371 C1390 1.368 . S
C1371 H1395 0.949 . S
H1372 C1376 0.949 . S
C1373 C1374 1.349 . S
C1373 C1375 1.327 . S
C1373 H1396 0.950 . S
C1374 C1373 1.349 . S
C1374 C1386 1.349 . S
C1375 C1373 1.327 . S
C1375 C1391 1.429 . S
C1375 H1397 0.950 . S
C1376 H1372 0.949 . S
C1376 C1384 1.574 . S
C1376 C1392 1.368 . S
H1377 C1385 0.950 . S
H1378 C1383 0.950 . S
H1379 C1384 0.949 . S
H1380 C1386 0.950 . S
H1381 C1387 0.950 . S
H1382 C1388 0.949 . S
C1383 H1378 0.950 . S
C1383 C1385 1.327 . S
C1383 C1389 1.429 . S
C1384 C1376 1.574 . S
C1384 H1379 0.949 . S
C1384 C1390 1.368 . S
C1385 C1369 1.349 . S
C1385 H1377 0.950 . S
C1385 C1383 1.327 . S
C1386 C1374 1.349 . S
C1386 H1380 0.950 . S
C1386 C1387 1.327 . S
C1387 H1381 0.950 . S
C1387 C1386 1.327 . S
C1387 C1391 1.429 . S
C1388 C1371 1.574 . S
C1388 H1382 0.949 . S
C1388 C1392 1.368 . S
C1389 C1370 1.429 . S
C1389 C1383 1.429 . S
C1389 C1390 1.523 . S
C1390 C1371 1.368 . S
C1390 C1384 1.368 . S
C1390 C1389 1.523 . S
C1391 C1375 1.429 . S
C1391 C1387 1.429 . S
C1391 C1392 1.523 . S
C1392 C1376 1.368 . S
C1392 C1388 1.368 . S
C1392 C1391 1.523 . S
H1393 C1368 0.950 . S
H1394 C1370 0.950 . S
H1395 C1371 0.949 . S
H1396 C1373 0.950 . S
H1397 C1375 0.950 . S
C1398 C1399 1.349 . S
C1398 C1400 1.327 . S
C1398 H1423 0.950 . S
C1399 C1398 1.349 . S
C1399 C1415 1.349 . S
C1400 C1398 1.327 . S
C1400 C1419 1.429 . S
C1400 H1424 0.950 . S
C1401 C1418 1.574 . S
C1401 C1420 1.368 . S
C1401 H1425 0.949 . S
H1402 C1406 0.949 . S
C1403 C1404 1.349 . S
C1403 C1405 1.327 . S
C1403 H1426 0.950 . S
C1404 C1403 1.349 . S
C1404 C1416 1.349 . S
C1405 C1403 1.327 . S
C1405 C1421 1.429 . S
C1405 H1427 0.950 . S
C1406 H1402 0.949 . S
C1406 C1414 1.574 . S
C1406 C1422 1.368 . S
H1407 C1415 0.950 . S
H1408 C1413 0.950 . S
H1409 C1414 0.949 . S
H1410 C1416 0.950 . S
H1411 C1417 0.950 . S
H1412 C1418 0.949 . S
C1413 H1408 0.950 . S
C1413 C1415 1.327 . S
C1413 C1419 1.429 . S
C1414 C1406 1.574 . S
C1414 H1409 0.949 . S
C1414 C1420 1.368 . S
C1415 C1399 1.349 . S
C1415 H1407 0.950 . S
C1415 C1413 1.327 . S
C1416 C1404 1.349 . S
C1416 H1410 0.950 . S
C1416 C1417 1.327 . S
C1417 H1411 0.950 . S
C1417 C1416 1.327 . S
C1417 C1421 1.429 . S
C1418 C1401 1.574 . S
C1418 H1412 0.949 . S
C1418 C1422 1.368 . S
C1419 C1400 1.429 . S
C1419 C1413 1.429 . S
C1419 C1420 1.523 . S
C1420 C1401 1.368 . S
C1420 C1414 1.368 . S
C1420 C1419 1.523 . S
C1421 C1405 1.429 . S
C1421 C1417 1.429 . S
C1421 C1422 1.523 . S
C1422 C1406 1.368 . S
C1422 C1418 1.368 . S
C1422 C1421 1.523 . S
H1423 C1398 0.950 . S
H1424 C1400 0.950 . S
H1425 C1401 0.949 . S
H1426 C1403 0.950 . S
H1427 C1405 0.950 . S
C1428 C1429 1.349 . S
C1428 C1430 1.327 . S
C1428 H1453 0.950 . S
C1429 C1428 1.349 . S
C1429 C1445 1.349 . S
C1430 C1428 1.327 . S
C1430 C1449 1.429 . S
C1430 H1454 0.950 . S
C1431 C1448 1.574 . S
C1431 C1450 1.368 . S
C1431 H1455 0.949 . S
H1432 C1436 0.949 . S
C1433 C1434 1.349 . S
C1433 C1435 1.327 . S
C1433 H1456 0.950 . S
C1434 C1433 1.349 . S
C1434 C1446 1.349 . S
C1435 C1433 1.327 . S
C1435 C1451 1.429 . S
C1435 H1457 0.950 . S
C1436 H1432 0.949 . S
C1436 C1444 1.574 . S
C1436 C1452 1.368 . S
H1437 C1445 0.950 . S
H1438 C1443 0.950 . S
H1439 C1444 0.949 . S
H1440 C1446 0.950 . S
H1441 C1447 0.950 . S
H1442 C1448 0.949 . S
C1443 H1438 0.950 . S
C1443 C1445 1.327 . S
C1443 C1449 1.429 . S
C1444 C1436 1.574 . S
C1444 H1439 0.949 . S
C1444 C1450 1.368 . S
C1445 C1429 1.349 . S
C1445 H1437 0.950 . S
C1445 C1443 1.327 . S
C1446 C1434 1.349 . S
C1446 H1440 0.950 . S
C1446 C1447 1.327 . S
C1447 H1441 0.950 . S
C1447 C1446 1.327 . S
C1447 C1451 1.429 . S
C1448 C1431 1.574 . S
C1448 H1442 0.949 . S
C1448 C1452 1.368 . S
C1449 C1430 1.429 . S
C1449 C1443 1.429 . S
C1449 C1450 1.523 . S
C1450 C1431 1.368 . S
C1450 C1444 1.368 . S
C1450 C1449 1.523 . S
C1451 C1435 1.429 . S
C1451 C1447 1.429 . S
C1451 C1452 1.523 . S
C1452 C1436 1.368 . S
C1452 C1448 1.368 . S
C1452 C1451 1.523 . S
H1453 C1428 0.950 . S
H1454 C1430 0.950 . S
H1455 C1431 0.949 . S
H1456 C1433 0.950 . S
H1457 C1435 0.950 . S
C1458 C1459 1.349 . S
C1458 C1460 1.327 . S
C1458 H1483 0.950 . S
C1459 C1458 1.349 . S
C1459 C1475 1.349 . S
C1460 C1458 1.327 . S
C1460 C1479 1.429 . S
C1460 H1484 0.950 . S
C1461 C1478 1.574 . S
C1461 C1480 1.368 . S
C1461 H1485 0.949 . S
H1462 C1466 0.949 . S
C1463 C1464 1.349 . S
C1463 C1465 1.327 . S
C1463 H1486 0.950 . S
C1464 C1463 1.349 . S
C1464 C1476 1.349 . S
C1465 C1463 1.327 . S
C1465 C1481 1.429 . S
C1465 H1487 0.950 . S
C1466 H1462 0.949 . S
C1466 C1474 1.574 . S
C1466 C1482 1.368 . S
H1467 C1475 0.950 . S
H1468 C1473 0.950 . S
H1469 C1474 0.949 . S
H1470 C1476 0.950 . S
H1471 C1477 0.950 . S
H1472 C1478 0.949 . S
C1473 H1468 0.950 . S
C1473 C1475 1.327 . S
C1473 C1479 1.429 . S
C1474 C1466 1.574 . S
C1474 H1469 0.949 . S
C1474 C1480 1.368 . S
C1475 C1459 1.349 . S
C1475 H1467 0.950 . S
C1475 C1473 1.327 . S
C1476 C1464 1.349 . S
C1476 H1470 0.950 . S
C1476 C1477 1.327 . S
C1477 H1471 0.950 . S
C1477 C1476 1.327 . S
C1477 C1481 1.429 . S
C1478 C1461 1.574 . S
C1478 H1472 0.949 . S
C1478 C1482 1.368 . S
C1479 C1460 1.429 . S
C1479 C1473 1.429 . S
C1479 C1480 1.523 . S
C1480 C1461 1.368 . S
C1480 C1474 1.368 . S
C1480 C1479 1.523 . S
C1481 C1465 1.429 . S
C1481 C1477 1.429 . S
C1481 C1482 1.523 . S
C1482 C1466 1.368 . S
C1482 C1478 1.368 . S
C1482 C1481 1.523 . S
H1483 C1458 0.950 . S
H1484 C1460 0.950 . S
H1485 C1461 0.949 . S
H1486 C1463 0.950 . S
H1487 C1465 0.950 . S
C1488 C1489 1.349 . S
C1488 C1490 1.327 . S
C1488 H1513 0.950 . S
C1489 C1488 1.349 . S
C1489 C1505 1.349 . S
C1490 C1488 1.327 . S
C1490 C1509 1.429 . S
C1490 H1514 0.950 . S
C1491 C1508 1.574 . S
C1491 C1510 1.368 . S
C1491 H1515 0.949 . S
H1492 C1496 0.949 . S
C1493 C1494 1.349 . S
C1493 C1495 1.327 . S
C1493 H1516 0.950 . S
C1494 C1493 1.349 . S
C1494 C1506 1.349 . S
C1495 C1493 1.327 . S
C1495 C1511 1.429 . S
C1495 H1517 0.950 . S
C1496 H1492 0.949 . S
C1496 C1504 1.574 . S
C1496 C1512 1.368 . S
H1497 C1505 0.950 . S
H1498 C1503 0.950 . S
H1499 C1504 0.949 . S
H1500 C1506 0.950 . S
H1501 C1507 0.950 . S
H1502 C1508 0.949 . S
C1503 H1498 0.950 . S
C1503 C1505 1.327 . S
C1503 C1509 1.429 . S
C1504 C1496 1.574 . S
C1504 H1499 0.949 . S
C1504 C1510 1.368 . S
C1505 C1489 1.349 . S
C1505 H1497 0.950 . S
C1505 C1503 1.327 . S
C1506 C1494 1.349 . S
C1506 H1500 0.950 . S
C1506 C1507 1.327 . S
C1507 H1501 0.950 . S
C1507 C1506 1.327 . S
C1507 C1511 1.429 . S
C1508 C1491 1.574 . S
C1508 H1502 0.949 . S
C1508 C1512 1.368 . S
C1509 C1490 1.429 . S
C1509 C1503 1.429 . S
C1509 C1510 1.523 . S
C1510 C1491 1.368 . S
C1510 C1504 1.368 . S
C1510 C1509 1.523 . S
C1511 C1495 1.429 . S
C1511 C1507 1.429 . S
C1511 C1512 1.523 . S
C1512 C1496 1.368 . S
C1512 C1508 1.368 . S
C1512 C1511 1.523 . S
H1513 C1488 0.950 . S
H1514 C1490 0.950 . S
H1515 C1491 0.949 . S
H1516 C1493 0.950 . S
H1517 C1495 0.950 . S
C1518 C1519 1.349 . S
C1518 C1520 1.327 . S
C1518 H1543 0.950 . S
C1519 C1518 1.349 . S
C1519 C1535 1.349 . S
C1520 C1518 1.327 . S
C1520 C1539 1.429 . S
C1520 H1544 0.950 . S
C1521 C1538 1.574 . S
C1521 C1540 1.368 . S
C1521 H1545 0.949 . S
H1522 C1526 0.949 . S
C1523 C1524 1.349 . S
C1523 C1525 1.327 . S
C1523 H1546 0.950 . S
C1524 C1523 1.349 . S
C1524 C1536 1.349 . S
C1525 C1523 1.327 . S
C1525 C1541 1.429 . S
C1525 H1547 0.950 . S
C1526 H1522 0.949 . S
C1526 C1534 1.574 . S
C1526 C1542 1.368 . S
H1527 C1535 0.950 . S
H1528 C1533 0.950 . S
H1529 C1534 0.949 . S
H1530 C1536 0.950 . S
H1531 C1537 0.950 . S
H1532 C1538 0.949 . S
C1533 H1528 0.950 . S
C1533 C1535 1.327 . S
C1533 C1539 1.429 . S
C1534 C1526 1.574 . S
C1534 H1529 0.949 . S
C1534 C1540 1.368 . S
C1535 C1519 1.349 . S
C1535 H1527 0.950 . S
C1535 C1533 1.327 . S
C1536 C1524 1.349 . S
C1536 H1530 0.950 . S
C1536 C1537 1.327 . S
C1537 H1531 0.950 . S
C1537 C1536 1.327 . S
C1537 C1541 1.429 . S
C1538 C1521 1.574 . S
C1538 H1532 0.949 . S
C1538 C1542 1.368 . S
C1539 C1520 1.429 . S
C1539 C1533 1.429 . S
C1539 C1540 1.523 . S
C1540 C1521 1.368 . S
C1540 C1534 1.368 . S
C1540 C1539 1.523 . S
C1541 C1525 1.429 . S
C1541 C1537 1.429 . S
C1541 C1542 1.523 . S
C1542 C1526 1.368 . S
C1542 C1538 1.368 . S
C1542 C1541 1.523 . S
H1543 C1518 0.950 . S
H1544 C1520 0.950 . S
H1545 C1521 0.949 . S
H1546 C1523 0.950 . S
H1547 C1525 0.950 . S
C1548 C1549 1.349 . S
C1548 C1550 1.327 . S
C1548 H1573 0.950 . S
C1549 C1548 1.349 . S
C1549 C1565 1.349 . S
C1550 C1548 1.327 . S
C1550 C1569 1.429 . S
C1550 H1574 0.950 . S
C1551 C1568 1.574 . S
C1551 C1570 1.368 . S
C1551 H1575 0.949 . S
H1552 C1556 0.949 . S
C1553 C1554 1.349 . S
C1553 C1555 1.327 . S
C1553 H1576 0.950 . S
C1554 C1553 1.349 . S
C1554 C1566 1.349 . S
C1555 C1553 1.327 . S
C1555 C1571 1.429 . S
C1555 H1577 0.950 . S
C1556 H1552 0.949 . S
C1556 C1564 1.574 . S
C1556 C1572 1.368 . S
H1557 C1565 0.950 . S
H1558 C1563 0.950 . S
H1559 C1564 0.949 . S
H1560 C1566 0.950 . S
H1561 C1567 0.950 . S
H1562 C1568 0.949 . S
C1563 H1558 0.950 . S
C1563 C1565 1.327 . S
C1563 C1569 1.429 . S
C1564 C1556 1.574 . S
C1564 H1559 0.949 . S
C1564 C1570 1.368 . S
C1565 C1549 1.349 . S
C1565 H1557 0.950 . S
C1565 C1563 1.327 . S
C1566 C1554 1.349 . S
C1566 H1560 0.950 . S
C1566 C1567 1.327 . S
C1567 H1561 0.950 . S
C1567 C1566 1.327 . S
C1567 C1571 1.429 . S
C1568 C1551 1.574 . S
C1568 H1562 0.949 . S
C1568 C1572 1.368 . S
C1569 C1550 1.429 . S
C1569 C1563 1.429 . S
C1569 C1570 1.523 . S
C1570 C1551 1.368 . S
C1570 C1564 1.368 . S
C1570 C1569 1.523 . S
C1571 C1555 1.429 . S
C1571 C1567 1.429 . S
C1571 C1572 1.523 . S
C1572 C1556 1.368 . S
C1572 C1568 1.368 . S
C1572 C1571 1.523 . S
H1573 C1548 0.950 . S
H1574 C1550 0.950 . S
H1575 C1551 0.949 . S
H1576 C1553 0.950 . S
H1577 C1555 0.950 . S
C1578 C1579 1.349 . S
C1578 C1580 1.327 . S
C1578 H1603 0.950 . S
C1579 C1578 1.349 . S
C1579 C1595 1.349 . S
C1580 C1578 1.327 . S
C1580 C1599 1.429 . S
C1580 H1604 0.950 . S
C1581 C1598 1.574 . S
C1581 C1600 1.368 . S
C1581 H1605 0.949 . S
H1582 C1586 0.949 . S
C1583 C1584 1.349 . S
C1583 C1585 1.327 . S
C1583 H1606 0.950 . S
C1584 C1583 1.349 . S
C1584 C1596 1.349 . S
C1585 C1583 1.327 . S
C1585 C1601 1.429 . S
C1585 H1607 0.950 . S
C1586 H1582 0.949 . S
C1586 C1594 1.574 . S
C1586 C1602 1.368 . S
H1587 C1595 0.950 . S
H1588 C1593 0.950 . S
H1589 C1594 0.949 . S
H1590 C1596 0.950 . S
H1591 C1597 0.950 . S
H1592 C1598 0.949 . S
C1593 H1588 0.950 . S
C1593 C1595 1.327 . S
C1593 C1599 1.429 . S
C1594 C1586 1.574 . S
C1594 H1589 0.949 . S
C1594 C1600 1.368 . S
C1595 C1579 1.349 . S
C1595 H1587 0.950 . S
C1595 C1593 1.327 . S
C1596 C1584 1.349 . S
C1596 H1590 0.950 . S
C1596 C1597 1.327 . S
C1597 H1591 0.950 . S
C1597 C1596 1.327 . S
C1597 C1601 1.429 . S
C1598 C1581 1.574 . S
C1598 H1592 0.949 . S
C1598 C1602 1.368 . S
C1599 C1580 1.429 . S
C1599 C1593 1.429 . S
C1599 C1600 1.523 . S
C1600 C1581 1.368 . S
C1600 C1594 1.368 . S
C1600 C1599 1.523 . S
C1601 C1585 1.429 . S
C1601 C1597 1.429 . S
C1601 C1602 1.523 . S
C1602 C1586 1.368 . S
C1602 C1598 1.368 . S
C1602 C1601 1.523 . S
H1603 C1578 0.950 . S
H1604 C1580 0.950 . S
H1605 C1581 0.949 . S
H1606 C1583 0.950 . S
H1607 C1585 0.950 . S
C1608 C1609 1.349 . S
C1608 C1610 1.327 . S
C1608 H1633 0.950 . S
C1609 C1608 1.349 . S
C1609 C1625 1.349 . S
C1610 C1608 1.327 . S
C1610 C1629 1.429 . S
C1610 H1634 0.950 . S
C1611 C1628 1.574 . S
C1611 C1630 1.368 . S
C1611 H1635 0.949 . S
H1612 C1616 0.949 . S
C1613 C1614 1.349 . S
C1613 C1615 1.327 . S
C1613 H1636 0.950 . S
C1614 C1613 1.349 . S
C1614 C1626 1.349 . S
C1615 C1613 1.327 . S
C1615 C1631 1.429 . S
C1615 H1637 0.950 . S
C1616 H1612 0.949 . S
C1616 C1624 1.574 . S
C1616 C1632 1.368 . S
H1617 C1625 0.950 . S
H1618 C1623 0.950 . S
H1619 C1624 0.949 . S
H1620 C1626 0.950 . S
H1621 C1627 0.950 . S
H1622 C1628 0.949 . S
C1623 H1618 0.950 . S
C1623 C1625 1.327 . S
C1623 C1629 1.429 . S
C1624 C1616 1.574 . S
C1624 H1619 0.949 . S
C1624 C1630 1.368 . S
C1625 C1609 1.349 . S
C1625 H1617 0.950 . S
C1625 C1623 1.327 . S
C1626 C1614 1.349 . S
C1626 H1620 0.950 . S
C1626 C1627 1.327 . S
C1627 H1621 0.950 . S
C1627 C1626 1.327 . S
C1627 C1631 1.429 . S
C1628 C1611 1.574 . S
C1628 H1622 0.949 . S
C1628 C1632 1.368 . S
C1629 C1610 1.429 . S
C1629 C1623 1.429 . S
C1629 C1630 1.523 . S
C1630 C1611 1.368 . S
C1630 C1624 1.368 . S
C1630 C1629 1.523 . S
C1631 C1615 1.429 . S
C1631 C1627 1.429 . S
C1631 C1632 1.523 . S
C1632 C1616 1.368 . S
C1632 C1628 1.368 . S
C1632 C1631 1.523 . S
H1633 C1608 0.950 . S
H1634 C1610 0.950 . S
H1635 C1611 0.949 . S
H1636 C1613 0.950 . S
H1637 C1615 0.950 . S
C1638 C1639 1.349 . S
C1638 C1640 1.327 . S
C1638 H1663 0.950 . S
C1639 C1638 1.349 . S
C1639 C1655 1.349 . S
C1640 C1638 1.327 . S
C1640 C1659 1.429 . S
C1640 H1664 0.950 . S
C1641 C1658 1.574 . S
C1641 C1660 1.368 . S
C1641 H1665 0.949 . S
H1642 C1646 0.949 . S
C1643 C1644 1.349 . S
C1643 C1645 1.327 . S
C1643 H1666 0.950 . S
C1644 C1643 1.349 . S
C1644 C1656 1.349 . S
C1645 C1643 1.327 . S
C1645 C1661 1.429 . S
C1645 H1667 0.950 . S
C1646 H1642 0.949 . S
C1646 C1654 1.574 . S
C1646 C1662 1.368 . S
H1647 C1655 0.950 . S
H1648 C1653 0.950 . S
H1649 C1654 0.949 . S
H1650 C1656 0.950 . S
H1651 C1657 0.950 . S
H1652 C1658 0.949 . S
C1653 H1648 0.950 . S
C1653 C1655 1.327 . S
C1653 C1659 1.429 . S
C1654 C1646 1.574 . S
C1654 H1649 0.949 . S
C1654 C1660 1.368 . S
C1655 C1639 1.349 . S
C1655 H1647 0.950 . S
C1655 C1653 1.327 . S
C1656 C1644 1.349 . S
C1656 H1650 0.950 . S
C1656 C1657 1.327 . S
C1657 H1651 0.950 . S
C1657 C1656 1.327 . S
C1657 C1661 1.429 . S
C1658 C1641 1.574 . S
C1658 H1652 0.949 . S
C1658 C1662 1.368 . S
C1659 C1640 1.429 . S
C1659 C1653 1.429 . S
C1659 C1660 1.523 . S
C1660 C1641 1.368 . S
C1660 C1654 1.368 . S
C1660 C1659 1.523 . S
C1661 C1645 1.429 . S
C1661 C1657 1.429 . S
C1661 C1662 1.523 . S
C1662 C1646 1.368 . S
C1662 C1658 1.368 . S
C1662 C1661 1.523 . S
H1663 C1638 0.950 . S
H1664 C1640 0.950 . S
H1665 C1641 0.949 . S
H1666 C1643 0.950 . S
H1667 C1645 0.950 . S
C1668 C1669 1.349 . S
C1668 C1670 1.327 . S
C1668 H1693 0.950 . S
C1669 C1668 1.349 . S
C1669 C1685 1.349 . S
C1670 C1668 1.327 . S
C1670 C1689 1.429 . S
C1670 H1694 0.950 . S
C1671 C1688 1.574 . S
C1671 C1690 1.368 . S
C1671 H1695 0.949 . S
H1672 C1676 0.949 . S
C1673 C1674 1.349 . S
C1673 C1675 1.327 . S
C1673 H1696 0.950 . S
C1674 C1673 1.349 . S
C1674 C1686 1.349 . S
C1675 C1673 1.327 . S
C1675 C1691 1.429 . S
C1675 H1697 0.950 . S
C1676 H1672 0.949 . S
C1676 C1684 1.574 . S
C1676 C1692 1.368 . S
H1677 C1685 0.950 . S
H1678 C1683 0.950 . S
H1679 C1684 0.949 . S
H1680 C1686 0.950 . S
H1681 C1687 0.950 . S
H1682 C1688 0.949 . S
C1683 H1678 0.950 . S
C1683 C1685 1.327 . S
C1683 C1689 1.429 . S
C1684 C1676 1.574 . S
C1684 H1679 0.949 . S
C1684 C1690 1.368 . S
C1685 C1669 1.349 . S
C1685 H1677 0.950 . S
C1685 C1683 1.327 . S
C1686 C1674 1.349 . S
C1686 H1680 0.950 . S
C1686 C1687 1.327 . S
C1687 H1681 0.950 . S
C1687 C1686 1.327 . S
C1687 C1691 1.429 . S
C1688 C1671 1.574 . S
C1688 H1682 0.949 . S
C1688 C1692 1.368 . S
C1689 C1670 1.429 . S
C1689 C1683 1.429 . S
C1689 C1690 1.523 . S
C1690 C1671 1.368 . S
C1690 C1684 1.368 . S
C1690 C1689 1.523 . S
C1691 C1675 1.429 . S
C1691 C1687 1.429 . S
C1691 C1692 1.523 . S
C1692 C1676 1.368 . S
C1692 C1688 1.368 . S
C1692 C1691 1.523 . S
H1693 C1668 0.950 . S
H1694 C1670 0.950 . S
H1695 C1671 0.949 . S
H1696 C1673 0.950 . S
H1697 C1675 0.950 . S
C1698 C1699 1.349 . S
C1698 C1700 1.327 . S
C1698 H1723 0.950 . S
C1699 C1698 1.349 . S
C1699 C1715 1.349 . S
C1700 C1698 1.327 . S
C1700 C1719 1.429 . S
C1700 H1724 0.950 . S
C1701 C1718 1.574 . S
C1701 C1720 1.368 . S
C1701 H1725 0.949 . S
H1702 C1706 0.949 . S
C1703 C1704 1.349 . S
C1703 C1705 1.327 . S
C1703 H1726 0.950 . S
C1704 C1703 1.349 . S
C1704 C1716 1.349 . S
C1705 C1703 1.327 . S
C1705 C1721 1.429 . S
C1705 H1727 0.950 . S
C1706 H1702 0.949 . S
C1706 C1714 1.574 . S
C1706 C1722 1.368 . S
H1707 C1715 0.950 . S
H1708 C1713 0.950 . S
H1709 C1714 0.949 . S
H1710 C1716 0.950 . S
H1711 C1717 0.950 . S
H1712 C1718 0.949 . S
C1713 H1708 0.950 . S
C1713 C1715 1.327 . S
C1713 C1719 1.429 . S
C1714 C1706 1.574 . S
C1714 H1709 0.949 . S
C1714 C1720 1.368 . S
C1715 C1699 1.349 . S
C1715 H1707 0.950 . S
C1715 C1713 1.327 . S
C1716 C1704 1.349 . S
C1716 H1710 0.950 . S
C1716 C1717 1.327 . S
C1717 H1711 0.950 . S
C1717 C1716 1.327 . S
C1717 C1721 1.429 . S
C1718 C1701 1.574 . S
C1718 H1712 0.949 . S
C1718 C1722 1.368 . S
C1719 C1700 1.429 . S
C1719 C1713 1.429 . S
C1719 C1720 1.523 . S
C1720 C1701 1.368 . S
C1720 C1714 1.368 . S
C1720 C1719 1.523 . S
C1721 C1705 1.429 . S
C1721 C1717 1.429 . S
C1721 C1722 1.523 . S
C1722 C1706 1.368 . S
C1722 C1718 1.368 . S
C1722 C1721 1.523 . S
H1723 C1698 0.950 . S
H1724 C1700 0.950 . S
H1725 C1701 0.949 . S
H1726 C1703 0.950 . S
H1727 C1705 0.950 . S
C529 C28 1.448 . S
C534 C160 1.448 . S
C559 C193 1.448 . S
C564 C61 1.448 . S
C589 C226 1.449 . S
C594 C94 1.449 . S
C619 C259 1.449 . S
C624 C127 1.449 . S
C649 C292 1.448 . S
C654 C424 1.448 . S
C679 C325 1.448 . S
C684 C457 1.448 . S
C709 C490 1.449 . S
C714 C358 1.449 . S
C739 C391 1.449 . S
C744 C523 1.449 . S
C769 N401 1.267 . S
C774 N14 1.254 . S
C799 N434 1.267 . S
C804 N47 1.253 . S
C829 N80 1.252 1_455 S
C834 N467 1.267 . S
C859 N500 1.267 . S
C864 N113 1.252 1_545 S
C889 N269 1.267 . S
C894 N146 1.253 . S
C919 N302 1.267 . S
C924 N179 1.254 . S
C949 N212 1.252 1_455 S
C954 N335 1.267 . S
C979 N245 1.252 1_545 S
C984 N368 1.267 . S
C1009 N137 1.267 . S
C1014 N278 1.254 . S
C1039 N170 1.267 . S
C1044 N311 1.253 . S
C1069 N203 1.267 . S
C1074 N344 1.252 1_655 S
C1099 N377 1.252 1_565 S
C1104 N236 1.267 . S
C1129 N5 1.267 . S
C1134 N410 1.253 . S
C1159 N38 1.267 . S
C1164 N443 1.254 . S
C1189 N476 1.252 1_655 S
C1194 N71 1.267 . S
C1219 N104 1.267 . S
C1224 N509 1.252 1_565 S
C1249 C83 1.295 . S
C1254 C17 1.295 . S
C1279 C50 1.295 . S
C1284 C116 1.295 . S
C1309 C215 1.295 . S
C1314 C149 1.295 . S
C1339 C248 1.295 . S
C1344 C182 1.295 . S
C1369 C347 1.295 . S
C1374 C281 1.295 . S
C1399 C380 1.295 . S
C1404 C314 1.295 . S
C1429 C413 1.295 . S
C1434 C479 1.295 . S
C1459 C512 1.295 . S
C1464 C446 1.295 . S
C1489 C239 0.884 . S
C1494 C8 0.884 . S
C1519 C140 0.884 . S
C1524 C41 0.884 . S
C1549 C173 0.884 . S
C1554 C74 0.884 . S
C1579 C206 0.883 . S
C1584 C107 0.883 . S
C1609 C503 0.884 . S
C1614 C272 0.884 . S
C1639 C404 0.884 . S
C1644 C305 0.884 . S
C1669 C437 0.884 . S
C1674 C338 0.884 . S
C1699 C470 0.883 . S
C1704 C371 0.883 . S
