# Generated by pormake.
# Topology swi, (7)-cn, num edge types: 1
# Building blocks:
#     Node 0, Type 0, BuildingBlock: HICVOG_clean_sbu_0, # of connection points: 7
#     Node 1, Type 0, BuildingBlock: HICVOG_clean_sbu_0, # of connection points: 7
#     Node 2, Type 0, BuildingBlock: HICVOG_clean_sbu_0, # of connection points: 7
#     Node 3, Type 0, BuildingBlock: HICVOG_clean_sbu_0, # of connection points: 7
#     Node 4, Type 0, BuildingBlock: HICVOG_clean_sbu_0, # of connection points: 7
#     Node 5, Type 0, BuildingBlock: HICVOG_clean_sbu_0, # of connection points: 7
#     Node 6, Type 0, BuildingBlock: HICVOG_clean_sbu_0, # of connection points: 7
#     Node 7, Type 0, BuildingBlock: HICVOG_clean_sbu_0, # of connection points: 7
#     Node 8, Type 0, BuildingBlock: HICVOG_clean_sbu_0, # of connection points: 7
#     Node 9, Type 0, BuildingBlock: HICVOG_clean_sbu_0, # of connection points: 7
#     Node 10, Type 0, BuildingBlock: HICVOG_clean_sbu_0, # of connection points: 7
#     Node 11, Type 0, BuildingBlock: HICVOG_clean_sbu_0, # of connection points: 7
#     Edge 12, Type (0, 0), None
#     Edge 13, Type (0, 0), None
#     Edge 14, Type (0, 0), None
#     Edge 15, Type (0, 0), None
#     Edge 16, Type (0, 0), None
#     Edge 17, Type (0, 0), None
#     Edge 18, Type (0, 0), None
#     Edge 19, Type (0, 0), None
#     Edge 20, Type (0, 0), None
#     Edge 21, Type (0, 0), None
#     Edge 22, Type (0, 0), None
#     Edge 23, Type (0, 0), None
#     Edge 24, Type (0, 0), None
#     Edge 25, Type (0, 0), None
#     Edge 26, Type (0, 0), None
#     Edge 27, Type (0, 0), None
#     Edge 28, Type (0, 0), None
#     Edge 29, Type (0, 0), None
#     Edge 30, Type (0, 0), None
#     Edge 31, Type (0, 0), None
#     Edge 32, Type (0, 0), None
#     Edge 33, Type (0, 0), None
#     Edge 34, Type (0, 0), None
#     Edge 35, Type (0, 0), None
#     Edge 36, Type (0, 0), None
#     Edge 37, Type (0, 0), None
#     Edge 38, Type (0, 0), None
#     Edge 39, Type (0, 0), None
#     Edge 40, Type (0, 0), None
#     Edge 41, Type (0, 0), None
#     Edge 42, Type (0, 0), None
#     Edge 43, Type (0, 0), None
#     Edge 44, Type (0, 0), None
#     Edge 45, Type (0, 0), None
#     Edge 46, Type (0, 0), None
#     Edge 47, Type (0, 0), None
#     Edge 48, Type (0, 0), None
#     Edge 49, Type (0, 0), None
#     Edge 50, Type (0, 0), None
#     Edge 51, Type (0, 0), None
#     Edge 52, Type (0, 0), None
#     Edge 53, Type (0, 0), None
# Relax obj value: 0.325
# Max RMSD: 0.246
# Mean RMSD: 0.246
data_MOF--net-swi--node1-HICVOG_clean_sbu_0--edge1-none
_symmetry_space_group_name_H-M    P1
_symmetry_Int_Tables_number       1
_symmetry_cell_setting            triclinic
loop_
_symmetry_equiv_pos_as_xyz
'x, y, z'
_cell_length_a     19.515008
_cell_length_b     19.51274
_cell_length_c     22.680308
_cell_angle_alpha  89.899567
_cell_angle_beta   90.03238
_cell_angle_gamma 119.98536
loop_
_atom_site_label
_atom_site_type_symbol
_atom_site_fract_x
_atom_site_fract_y
_atom_site_fract_z
_atom_type_partial_charge
Zn0 Zn 0.37398 0.06369 0.97223 0.0
C1 C 0.59836 0.15508 1.00947 0.0
N2 N 0.59464 0.09477 0.97853 0.0
C3 C 0.5167 0.0443 0.9754 0.0
N4 N 0.47498 0.07524 1.00126 0.0
N5 N 0.52704 0.14142 1.02758 0.0
C6 C 0.55836 0.33241 1.02209 0.0
O7 O 0.51598 0.27318 0.98653 0.0
O8 O 0.27976 0.95442 0.98884 0.0
Zn9 Zn 0.5061 0.20315 0.08669 0.0
N10 N 0.37683 0.07743 0.88714 0.0
C11 C 0.30813 0.02085 0.79797 0.0
C12 C 0.32603 0.01238 0.85587 0.0
C13 C 0.41193 0.15105 0.86204 0.0
N14 N 0.34274 0.09354 0.77301 0.0
C15 C 0.39471 0.15967 0.80293 0.0
O16 O 0.39928 0.19476 0.08606 0.0
C17 C 0.35632 0.19069 0.04301 0.0
O18 O 0.34931 0.14916 0.99792 0.0
H19 H 0.29575 0.95496 0.87684 0.0
H20 H 0.44845 0.20232 0.88881 0.0
C21 C 0.52849 0.23846 0.20745 0.0
C22 C 0.50822 0.21947 0.26716 0.0
C23 C 0.46025 0.08411 0.24431 0.0
C24 C 0.48048 0.10338 0.18526 0.0
N25 N 0.51371 0.18 0.16801 0.0
N26 N 0.47426 0.14217 0.28372 0.0
H27 H 0.5504 0.29817 0.19154 0.0
C28 C 0.25199 0.92167 1.03831 0.0
O29 O 0.28667 0.95904 0.08713 0.0
O30 O 0.57591 0.31826 0.07256 0.0
H31 H 0.4647 0.05729 0.15281 0.0
H32 H 0.2636 0.97099 0.774 0.0
H33 H 0.43102 0.0231 0.25835 0.0
Zn34 Zn 0.29926 0.49953 0.08717 0.0
C35 C 0.47337 0.51598 0.97809 0.0
N36 N 0.49904 0.59359 0.98223 0.0
C37 C 0.44009 0.59487 1.01189 0.0
N38 N 0.38312 0.52262 1.0286 0.0
N39 N 0.39969 0.47217 1.00235 0.0
C40 C 0.3291 0.2487 0.04045 0.0
O41 O 0.32483 0.28331 0.08881 0.0
O42 O 0.25083 0.56691 0.07291 0.0
Zn43 Zn 0.31098 0.37073 0.97262 0.0
N44 N 0.33114 0.50953 0.16816 0.0
C45 C 0.37685 0.45913 0.24436 0.0
C46 C 0.37604 0.4779 0.1852 0.0
C47 C 0.2877 0.52424 0.2079 0.0
N48 N 0.33312 0.47311 0.28412 0.0
C49 C 0.28834 0.50557 0.26776 0.0
O50 O 0.20071 0.34785 0.99645 0.0
C51 C 0.16613 0.35258 0.04237 0.0
O52 O 0.20531 0.38959 0.08729 0.0
H53 H 0.40619 0.46217 0.15254 0.0
H54 H 0.24872 0.54482 0.19222 0.0
C55 C 0.26322 0.4084 0.8619 0.0
C56 C 0.23523 0.38927 0.80342 0.0
C57 C 0.28317 0.29896 0.79974 0.0
C58 C 0.31122 0.31842 0.85714 0.0
N59 N 0.30044 0.37225 0.88741 0.0
N60 N 0.24636 0.33467 0.77439 0.0
H61 H 0.25084 0.44715 0.88805 0.0
C62 C 0.22331 0.55363 1.02117 0.0
O63 O 0.24238 0.51344 0.98509 0.0
O64 O 0.32549 0.2765 0.99063 0.0
H65 H 0.33689 0.28709 0.87862 0.0
H66 H 0.40977 0.431 0.25823 0.0
H67 H 0.28655 0.25272 0.77645 0.0
Zn68 Zn 0.94298 0.31217 0.96978 0.0
C69 C 0.8482 0.44214 1.0094 0.0
N70 N 0.9073 0.49984 0.97798 0.0
C71 C 0.95858 0.47348 0.97284 0.0
N72 N 0.92922 0.40054 0.99812 0.0
N73 N 0.86359 0.38515 1.02606 0.0
C74 C 0.67325 0.22528 1.02148 0.0
O75 O 0.73131 0.24432 0.98413 0.0
O76 O 0.05107 0.32629 0.98955 0.0
Zn77 Zn 0.80461 0.30177 0.08547 0.0
N78 N 0.93271 0.301 0.88463 0.0
C79 C 0.98733 0.27757 0.79863 0.0
C80 C 0.99634 0.30714 0.85557 0.0
C81 C 0.85992 0.26676 0.85846 0.0
N82 N 0.91535 0.24364 0.77262 0.0
C83 C 0.85061 0.23699 0.80053 0.0
O84 O 0.82116 0.20811 0.08488 0.0
C85 C 0.81677 0.16849 0.03967 0.0
O86 O 0.85482 0.20248 0.99318 0.0
H87 H 0.05264 0.3303 0.87768 0.0
H88 H 0.8093 0.2579 0.88388 0.0
C89 C 0.76922 0.28912 0.20609 0.0
C90 C 0.78868 0.28773 0.26561 0.0
C91 C 0.92386 0.37515 0.24205 0.0
C92 C 0.90412 0.37646 0.18322 0.0
N93 N 0.8274 0.33306 0.16641 0.0
N94 N 0.86611 0.33095 0.28173 0.0
H95 H 0.70943 0.25116 0.19055 0.0
C96 C 0.08188 0.3294 0.03952 0.0
O97 O 0.04287 0.32534 0.08779 0.0
O98 O 0.68894 0.25337 0.07297 0.0
H99 H 0.94994 0.4068 0.1505 0.0
H100 H 0.03604 0.27755 0.77629 0.0
H101 H 0.985 0.40679 0.25566 0.0
Zn102 Zn 0.49626 0.79606 0.08502 0.0
C103 C 0.48818 0.95864 0.97565 0.0
N104 N 0.41023 0.90796 0.97814 0.0
C105 C 0.4064 0.84698 1.00837 0.0
N106 N 0.47759 0.86048 1.02672 0.0
N107 N 0.52997 0.92753 1.00134 0.0
C108 C 0.75575 0.08434 1.03776 0.0
O109 O 0.72604 0.04437 0.08675 0.0
O110 O 0.4208 0.68181 0.07243 0.0
Zn111 Zn 0.63298 0.94277 0.97314 0.0
N112 N 0.4991 0.82349 0.16677 0.0
C113 C 0.56097 0.92216 0.24026 0.0
C114 C 0.53625 0.90096 0.18216 0.0
C115 C 0.48495 0.76606 0.20718 0.0
N116 N 0.54715 0.86506 0.28069 0.0
C117 C 0.50939 0.78697 0.26599 0.0
O118 O 0.66518 0.86388 1.00123 0.0
C119 C 0.6519 0.81336 0.04142 0.0
O120 O 0.59516 0.79152 0.07704 0.0
H121 H 0.55104 0.94598 0.14883 0.0
H122 H 0.4594 0.70532 0.19268 0.0
C123 C 0.5964 0.85322 0.86373 0.0
C124 C 0.61322 0.84458 0.80451 0.0
C125 C 0.69788 0.98368 0.79854 0.0
C126 C 0.68018 0.99219 0.85641 0.0
N127 N 0.63053 0.92708 0.88825 0.0
N128 N 0.66408 0.91085 0.77408 0.0
H129 H 0.56075 0.80197 0.89091 0.0
C130 C 0.44032 0.6681 1.02247 0.0
O131 O 0.48293 0.72752 0.98691 0.0
O132 O 0.72429 0.05359 0.98861 0.0
H133 H 0.7096 0.04986 0.87687 0.0
H134 H 0.59304 0.98375 0.25273 0.0
H135 H 0.74147 0.03374 0.7741 0.0
Zn136 Zn 0.69493 0.63306 0.97287 0.0
C137 C 0.56229 0.40715 1.01009 0.0
N138 N 0.50463 0.41046 0.98022 0.0
C139 C 0.53157 0.48838 0.97696 0.0
N140 N 0.60533 0.53063 1.00147 0.0
N141 N 0.62023 0.47867 1.02737 0.0
C142 C 0.77645 0.44398 1.02191 0.0
O143 O 0.75936 0.4872 0.98724 0.0
O144 O 0.67662 0.72467 0.98934 0.0
Zn145 Zn 0.70321 0.49777 0.08588 0.0
N146 N 0.70912 0.63252 0.88783 0.0
C147 C 0.72629 0.70579 0.79994 0.0
C148 C 0.69788 0.68595 0.85723 0.0
C149 C 0.74744 0.59726 0.86274 0.0
N150 N 0.76378 0.67072 0.77491 0.0
C151 C 0.77549 0.61655 0.80419 0.0
O152 O 0.80604 0.59877 0.0812 0.0
C153 C 0.84215 0.65117 0.04248 0.0
O154 O 0.80556 0.66215 1.00052 0.0
H155 H 0.67124 0.71654 0.87829 0.0
H156 H 0.76019 0.55883 0.88911 0.0
C157 C 0.7188 0.48155 0.20755 0.0
C158 C 0.72174 0.50484 0.2666 0.0
C159 C 0.63798 0.55649 0.24157 0.0
C160 C 0.63513 0.53302 0.18322 0.0
N161 N 0.67589 0.49648 0.16737 0.0
N162 N 0.68111 0.54214 0.28175 0.0
H163 H 0.75447 0.45672 0.19266 0.0
C164 C 0.68696 0.76249 1.03708 0.0
O165 O 0.70736 0.73928 0.08502 0.0
O166 O 0.74406 0.42406 0.07214 0.0
H167 H 0.60536 0.54862 0.15007 0.0
H168 H 0.7224 0.75168 0.7764 0.0
H169 H 0.60823 0.5882 0.25441 0.0
Zn170 Zn 0.20113 0.70003 0.0841 0.0
C171 C 0.04421 0.53127 0.97137 0.0
N172 N 0.09452 0.50359 0.97541 0.0
C173 C 0.15412 0.55958 1.00725 0.0
N174 N 0.14039 0.61745 1.02466 0.0
N175 N 0.07511 0.60407 0.99708 0.0
C176 C 0.92795 0.68333 1.03821 0.0
O177 O 0.96976 0.69302 0.08606 0.0
O178 O 0.31621 0.74609 0.07073 0.0
Zn179 Zn 0.06412 0.69475 0.96899 0.0
N180 N 0.17838 0.66892 0.16524 0.0
C181 C 0.08261 0.62975 0.24124 0.0
C182 C 0.10164 0.62735 0.18239 0.0
C183 C 0.23725 0.71193 0.20463 0.0
N184 N 0.14105 0.67331 0.28056 0.0
C185 C 0.21851 0.71459 0.26416 0.0
O186 O 0.15214 0.80398 0.99365 0.0
C187 C 0.19146 0.83715 0.03985 0.0
O188 O 0.1895 0.79676 0.08405 0.0
H189 H 0.05539 0.59777 0.14989 0.0
H190 H 0.29716 0.74843 0.18877 0.0
C191 C 0.14778 0.74073 0.85757 0.0
C192 C 0.15729 0.77058 0.79956 0.0
C193 C 0.02093 0.73148 0.79779 0.0
C194 C 0.01172 0.70182 0.85479 0.0
N195 N 0.07505 0.70711 0.88383 0.0
N196 N 0.09283 0.76471 0.77168 0.0
H197 H 0.19823 0.74891 0.8829 0.0
C198 C 0.33149 0.77636 1.01981 0.0
O199 O 0.27311 0.75893 0.98312 0.0
O200 O 0.95632 0.68115 0.98836 0.0
H201 H 0.95549 0.67911 0.87692 0.0
H202 H 0.02155 0.59962 0.25511 0.0
H203 H 0.97245 0.73202 0.77544 0.0
Zn204 Zn 0.79804 0.5051 0.4923 0.0
C205 C 0.96153 0.48995 0.59419 0.0
N206 N 0.90885 0.41258 0.59285 0.0
C207 C 0.84739 0.41132 0.5655 0.0
N208 N 0.86272 0.48312 0.54728 0.0
N209 N 0.93179 0.53401 0.5704 0.0
C210 C 0.07542 0.75394 0.55139 0.0
O211 O 0.02945 0.7223 0.50534 0.0
O212 O 0.68627 0.42786 0.50558 0.0
Zn213 Zn 0.93858 0.62642 0.61158 0.0
N214 N 0.81591 0.49791 0.40997 0.0
C215 C 0.89081 0.49148 0.33049 0.0
C216 C 0.8793 0.49363 0.3908 0.0
C217 C 0.76341 0.50016 0.37139 0.0
N218 N 0.83849 0.4931 0.29172 0.0
C219 C 0.7745 0.49746 0.31037 0.0
O220 O 0.85685 0.65796 0.58696 0.0
C221 C 0.80883 0.65127 0.54651 0.0
O222 O 0.7947 0.60536 0.50311 0.0
H223 H 0.92078 0.49277 0.42206 0.0
H224 H 0.71391 0.50458 0.38834 0.0
C225 C 0.85351 0.61162 0.71778 0.0
C226 C 0.8256 0.58818 0.77577 0.0
C227 C 0.90487 0.52778 0.78306 0.0
C228 C 0.9348 0.55453 0.72637 0.0
N229 N 0.90821 0.59548 0.69443 0.0
N230 N 0.85168 0.54578 0.80668 0.0
H231 H 0.83374 0.64498 0.69207 0.0
C232 C 0.66999 0.43991 0.55693 0.0
O233 O 0.72785 0.48095 0.59406 0.0
O234 O 0.04988 0.72341 0.60217 0.0
H235 H 0.97869 0.5428 0.70802 0.0
H236 H 0.9415 0.48946 0.31471 0.0
H237 H 0.92525 0.49455 0.80863 0.0
Zn238 Zn 0.31524 0.9352 0.60874 0.0
C239 C 0.43861 0.84564 0.5624 0.0
N240 N 0.49898 0.90738 0.58924 0.0
C241 C 0.47465 0.96034 0.58961 0.0
N242 N 0.40092 0.93055 0.56584 0.0
N243 N 0.38257 0.86111 0.54342 0.0
C244 C 0.23241 0.66925 0.55589 0.0
O245 O 0.24925 0.72809 0.59199 0.0
O246 O 0.32983 0.04706 0.60312 0.0
Zn247 Zn 0.2959 0.79578 0.48884 0.0
N248 N 0.3144 0.89974 0.69036 0.0
C249 C 0.37613 0.88737 0.77745 0.0
C250 C 0.38138 0.91996 0.72149 0.0
C251 C 0.24226 0.84787 0.71354 0.0
N252 N 0.30383 0.83747 0.80105 0.0
C253 C 0.23605 0.81707 0.77078 0.0
O254 O 0.1927 0.79406 0.49858 0.0
C255 C 0.16097 0.80777 0.54228 0.0
O256 O 0.20237 0.85496 0.58303 0.0
H257 H 0.43826 0.96076 0.70319 0.0
H258 H 0.18965 0.83312 0.68856 0.0
C259 C 0.26614 0.75851 0.36836 0.0
C260 C 0.27963 0.76777 0.3072 0.0
C261 C 0.40334 0.88315 0.32578 0.0
C262 C 0.38981 0.87346 0.38627 0.0
N263 N 0.32153 0.81143 0.40627 0.0
N264 N 0.34855 0.83044 0.28772 0.0
H265 H 0.21184 0.71017 0.38596 0.0
C266 C 0.32419 0.0742 0.55319 0.0
O267 O 0.30883 0.02944 0.50631 0.0
O268 O 0.26034 0.68411 0.50434 0.0
H269 H 0.43269 0.91534 0.41698 0.0
H270 H 0.42918 0.90295 0.80244 0.0
H271 H 0.45652 0.93298 0.30928 0.0
Zn272 Zn 0.50424 0.29672 0.49186 0.0
C273 C 0.51724 0.47372 0.59419 0.0
N274 N 0.59461 0.49841 0.59371 0.0
C275 C 0.59652 0.43878 0.56615 0.0
N276 N 0.52516 0.38275 0.54696 0.0
N277 N 0.47369 0.40035 0.5698 0.0
C278 C 0.25285 0.32293 0.55437 0.0
O279 O 0.28288 0.30777 0.50773 0.0
O280 O 0.58185 0.26292 0.50563 0.0
Zn281 Zn 0.38208 0.31396 0.6115 0.0
N282 N 0.5124 0.32168 0.40926 0.0
C283 C 0.52013 0.40232 0.32864 0.0
C284 C 0.51691 0.38917 0.38915 0.0
C285 C 0.51107 0.26674 0.37141 0.0
N286 N 0.51923 0.34807 0.29067 0.0
C287 C 0.51473 0.27995 0.31022 0.0
O288 O 0.34965 0.20077 0.586 0.0
C289 C 0.35712 0.16017 0.5454 0.0
O290 O 0.40439 0.19264 0.50272 0.0
H291 H 0.51721 0.43176 0.41979 0.0
H292 H 0.50658 0.21307 0.38909 0.0
C293 C 0.39885 0.24287 0.71675 0.0
C294 C 0.4226 0.23815 0.77459 0.0
C295 C 0.4828 0.37774 0.78207 0.0
C296 C 0.45561 0.38116 0.72564 0.0
N297 N 0.41456 0.31379 0.6937 0.0
N298 N 0.46501 0.30646 0.80551 0.0
H299 H 0.36539 0.1899 0.69102 0.0
C300 C 0.5688 0.23331 0.55664 0.0
O301 O 0.52699 0.24918 0.59372 0.0
O302 O 0.28503 0.32856 0.60449 0.0
H303 H 0.46678 0.43675 0.70757 0.0
H304 H 0.52245 0.45488 0.312 0.0
H305 H 0.51602 0.43119 0.80767 0.0
Zn306 Zn 0.07038 0.38017 0.61194 0.0
C307 C 0.16072 0.59561 0.56648 0.0
N308 N 0.09892 0.59373 0.59367 0.0
C309 C 0.04645 0.51627 0.59466 0.0
N310 N 0.07672 0.47273 0.57093 0.0
N311 N 0.14588 0.52408 0.54813 0.0
C312 C 0.3387 0.5672 0.55773 0.0
O313 O 0.28072 0.52561 0.59471 0.0
O314 O 0.9589 0.28338 0.60368 0.0
Zn315 Zn 0.21091 0.50304 0.49308 0.0
N316 N 0.1021 0.41121 0.69441 0.0
C317 C 0.10738 0.47984 0.78277 0.0
C318 C 0.07659 0.45295 0.72637 0.0
C319 C 0.15657 0.39443 0.71742 0.0
N320 N 0.16032 0.46122 0.80608 0.0
C321 C 0.18537 0.41808 0.77514 0.0
O322 O 0.21477 0.40298 0.50351 0.0
C323 C 0.19968 0.3556 0.54617 0.0
O324 O 0.15134 0.34806 0.5866 0.0
H325 H 0.03285 0.46514 0.70828 0.0
H326 H 0.17545 0.36041 0.69171 0.0
C327 C 0.2463 0.50999 0.37241 0.0
C328 C 0.23488 0.51199 0.31136 0.0
C329 C 0.11688 0.51486 0.33125 0.0
C330 C 0.12864 0.51324 0.3916 0.0
N331 N 0.19301 0.51078 0.41087 0.0
N332 N 0.16986 0.51442 0.29259 0.0
H333 H 0.29648 0.50688 0.3895 0.0
C334 C 0.93324 0.25164 0.55333 0.0
O335 O 0.97924 0.282 0.50708 0.0
O336 O 0.32258 0.58024 0.50657 0.0
H337 H 0.08655 0.51292 0.42279 0.0
H338 H 0.08785 0.51365 0.80838 0.0
H339 H 0.06553 0.51559 0.31536 0.0
Zn340 Zn 0.71197 0.21101 0.49081 0.0
C341 C 0.53326 0.04513 0.59051 0.0
N342 N 0.5088 0.09802 0.59098 0.0
C343 C 0.56939 0.16053 0.56491 0.0
N344 N 0.62565 0.1456 0.54564 0.0
N345 N 0.6073 0.07563 0.56714 0.0
C346 C 0.68482 0.93251 0.55569 0.0
O347 O 0.70153 0.97794 0.50893 0.0
O348 O 0.74635 0.32278 0.50444 0.0
Zn349 Zn 0.69289 0.07099 0.61041 0.0
N350 N 0.68705 0.19229 0.40844 0.0
C351 C 0.6097 0.11351 0.3287 0.0
C352 C 0.6218 0.12636 0.3891 0.0
C353 C 0.74083 0.24606 0.37001 0.0
N354 N 0.66279 0.16714 0.29008 0.0
C355 C 0.72867 0.23368 0.30895 0.0
O356 O 0.80612 0.15034 0.58464 0.0
C357 C 0.84753 0.19895 0.54449 0.0
O358 O 0.81593 0.21521 0.50203 0.0
H359 H 0.58048 0.08373 0.42029 0.0
H360 H 0.79306 0.29733 0.38712 0.0
C361 C 0.76578 0.15896 0.71482 0.0
C362 C 0.77187 0.18989 0.7719 0.0
C363 C 0.63178 0.1193 0.77859 0.0
C364 C 0.62665 0.08664 0.72277 0.0
N365 N 0.69369 0.1069 0.69174 0.0
N366 N 0.70402 0.16938 0.80211 0.0
H367 H 0.81844 0.1738 0.68989 0.0
C368 C 0.77489 0.33815 0.55581 0.0
O369 O 0.75795 0.27969 0.59251 0.0
O370 O 0.6779 0.95903 0.60542 0.0
H371 H 0.56982 0.04571 0.70452 0.0
H372 H 0.55899 0.06062 0.3128 0.0
H373 H 0.57868 0.10367 0.80354 0.0
Zn374 Zn 0.62631 0.69185 0.61274 0.0
C375 C 0.41208 0.56799 0.56676 0.0
N376 N 0.41376 0.50786 0.59393 0.0
C377 C 0.4911 0.53243 0.59446 0.0
N378 N 0.53481 0.60617 0.57056 0.0
N379 N 0.48359 0.62425 0.54784 0.0
C380 C 0.43816 0.77232 0.55464 0.0
O381 O 0.47851 0.75568 0.59268 0.0
O382 O 0.72328 0.6772 0.60541 0.0
Zn383 Zn 0.50542 0.71042 0.49231 0.0
N384 N 0.59363 0.69116 0.69505 0.0
C385 C 0.52565 0.62659 0.78349 0.0
C386 C 0.55264 0.62357 0.72691 0.0
C387 C 0.60935 0.76189 0.71829 0.0
N388 N 0.54345 0.69769 0.80711 0.0
C389 C 0.58574 0.76622 0.77624 0.0
O390 O 0.60385 0.81484 0.50506 0.0
C391 C 0.65151 0.84663 0.54755 0.0
O392 O 0.65918 0.80543 0.58769 0.0
H393 H 0.54136 0.56809 0.70866 0.0
H394 H 0.6427 0.81503 0.6926 0.0
C395 C 0.50368 0.74072 0.37101 0.0
C396 C 0.50236 0.72719 0.31003 0.0
C397 C 0.49796 0.60574 0.3308 0.0
C398 C 0.49857 0.61906 0.39108 0.0
N399 N 0.50137 0.68618 0.40992 0.0
N400 N 0.49946 0.65939 0.29173 0.0
H401 H 0.50679 0.79417 0.38767 0.0
C402 C 0.75531 0.68341 0.55515 0.0
O403 O 0.72516 0.69907 0.50876 0.0
O404 O 0.42655 0.74326 0.50356 0.0
H405 H 0.49755 0.57685 0.42258 0.0
H406 H 0.4925 0.57295 0.80902 0.0
H407 H 0.49703 0.55341 0.3153 0.0
loop_
_geom_bond_atom_site_label_1
_geom_bond_atom_site_label_2
_geom_bond_distance
_geom_bond_site_symmetry_2
_ccdc_geom_bond_type
Zn0 N4 2.020 . S
Zn0 O8 2.019 1_545 S
Zn0 N10 2.119 . S
Zn0 O18 1.975 . S
C1 N2 1.334 . S
C1 N5 1.336 . S
N2 C1 1.334 . S
N2 C3 1.334 1_554 S
C3 N2 1.334 1_556 S
C3 N4 1.336 . S
N4 Zn0 2.020 . S
N4 C3 1.336 . S
N4 N5 1.354 1_556 S
N5 C1 1.336 . S
N5 N4 1.354 1_554 S
N5 Zn9 2.020 . S
C6 O7 1.244 1_554 S
C6 O30 1.257 . S
O7 C6 1.244 1_556 S
O8 Zn0 2.019 1_565 S
O8 C28 1.257 . S
Zn9 N5 2.020 . S
Zn9 O16 1.975 . S
Zn9 N25 2.119 . S
Zn9 O30 2.019 . S
N10 Zn0 2.119 . S
N10 C12 1.334 . S
N10 C13 1.328 . S
C11 C12 1.391 . S
C11 N14 1.329 . S
C11 H32 0.930 . S
C12 N10 1.334 . S
C12 C11 1.391 . S
C12 H19 0.930 . S
C13 N10 1.328 . S
C13 C15 1.392 . S
C13 H20 0.930 . S
N14 C11 1.329 . S
N14 C15 1.331 . S
C15 C13 1.392 . S
C15 N14 1.331 . S
O16 Zn9 1.975 . S
O16 C17 1.251 1_554 S
C17 O16 1.251 1_556 S
C17 O18 1.253 . S
O18 Zn0 1.975 . S
O18 C17 1.253 . S
H19 C12 0.930 . S
H20 C13 0.930 . S
C21 C22 1.392 . S
C21 N25 1.328 . S
C21 H27 0.930 . S
C22 C21 1.392 . S
C22 N26 1.331 . S
C23 C24 1.391 . S
C23 N26 1.329 . S
C23 H33 0.930 . S
C24 C23 1.391 . S
C24 N25 1.334 . S
C24 H31 0.930 . S
N25 Zn9 2.119 . S
N25 C21 1.328 . S
N25 C24 1.334 . S
N26 C22 1.331 . S
N26 C23 1.329 . S
H27 C21 0.930 . S
C28 O8 1.257 . S
C28 O29 1.244 1_556 S
O29 C28 1.244 1_554 S
O30 C6 1.257 . S
O30 Zn9 2.019 . S
H31 C24 0.930 . S
H32 C11 0.930 . S
H33 C23 0.930 . S
Zn34 N38 2.020 . S
Zn34 O42 2.019 . S
Zn34 N44 2.119 . S
Zn34 O52 1.975 . S
C35 N36 1.334 1_556 S
C35 N39 1.336 . S
N36 C35 1.334 1_554 S
N36 C37 1.334 . S
C37 N36 1.334 . S
C37 N38 1.336 . S
N38 Zn34 2.020 . S
N38 C37 1.336 . S
N38 N39 1.354 1_554 S
N39 C35 1.336 . S
N39 N38 1.354 1_556 S
N39 Zn43 2.020 . S
C40 O41 1.244 1_556 S
C40 O64 1.257 . S
O41 C40 1.244 1_554 S
O42 Zn34 2.019 . S
O42 C62 1.257 . S
Zn43 N39 2.020 . S
Zn43 O50 1.975 . S
Zn43 N59 2.119 . S
Zn43 O64 2.019 . S
N44 Zn34 2.119 . S
N44 C46 1.334 . S
N44 C47 1.328 . S
C45 C46 1.391 . S
C45 N48 1.329 . S
C45 H66 0.930 . S
C46 N44 1.334 . S
C46 C45 1.391 . S
C46 H53 0.930 . S
C47 N44 1.328 . S
C47 C49 1.392 . S
C47 H54 0.930 . S
N48 C45 1.329 . S
N48 C49 1.331 . S
C49 C47 1.392 . S
C49 N48 1.331 . S
O50 Zn43 1.975 . S
O50 C51 1.253 . S
C51 O50 1.253 . S
C51 O52 1.251 1_556 S
O52 Zn34 1.975 . S
O52 C51 1.251 1_554 S
H53 C46 0.930 . S
H54 C47 0.930 . S
C55 C56 1.392 . S
C55 N59 1.328 . S
C55 H61 0.930 . S
C56 C55 1.392 . S
C56 N60 1.331 . S
C57 C58 1.391 . S
C57 N60 1.329 . S
C57 H67 0.930 . S
C58 C57 1.391 . S
C58 N59 1.334 . S
C58 H65 0.930 . S
N59 Zn43 2.119 . S
N59 C55 1.328 . S
N59 C58 1.334 . S
N60 C56 1.331 . S
N60 C57 1.329 . S
H61 C55 0.930 . S
C62 O42 1.257 . S
C62 O63 1.244 1_554 S
O63 C62 1.244 1_556 S
O64 C40 1.257 . S
O64 Zn43 2.019 . S
H65 C58 0.930 . S
H66 C45 0.930 . S
H67 C57 0.930 . S
Zn68 N72 2.020 . S
Zn68 O76 2.019 1_655 S
Zn68 N78 2.119 . S
Zn68 O86 1.975 . S
C69 N70 1.334 . S
C69 N73 1.336 . S
N70 C69 1.334 . S
N70 C71 1.334 1_554 S
C71 N70 1.334 1_556 S
C71 N72 1.336 . S
N72 Zn68 2.020 . S
N72 C71 1.336 . S
N72 N73 1.354 1_556 S
N73 C69 1.336 . S
N73 N72 1.354 1_554 S
N73 Zn77 2.020 . S
C74 O75 1.244 1_554 S
C74 O98 1.257 . S
O75 C74 1.244 1_556 S
O76 Zn68 2.019 1_455 S
O76 C96 1.257 . S
Zn77 N73 2.020 . S
Zn77 O84 1.975 . S
Zn77 N93 2.119 . S
Zn77 O98 2.019 . S
N78 Zn68 2.119 . S
N78 C80 1.334 . S
N78 C81 1.328 . S
C79 C80 1.391 . S
C79 N82 1.329 . S
C79 H100 0.930 . S
C80 N78 1.334 . S
C80 C79 1.391 . S
C80 H87 0.930 . S
C81 N78 1.328 . S
C81 C83 1.392 . S
C81 H88 0.930 . S
N82 C79 1.329 . S
N82 C83 1.331 . S
C83 C81 1.392 . S
C83 N82 1.331 . S
O84 Zn77 1.975 . S
O84 C85 1.251 1_554 S
C85 O84 1.251 1_556 S
C85 O86 1.253 . S
O86 Zn68 1.975 . S
O86 C85 1.253 . S
H87 C80 0.930 . S
H88 C81 0.930 . S
C89 C90 1.392 . S
C89 N93 1.328 . S
C89 H95 0.930 . S
C90 C89 1.392 . S
C90 N94 1.331 . S
C91 C92 1.391 . S
C91 N94 1.329 . S
C91 H101 0.930 . S
C92 C91 1.391 . S
C92 N93 1.334 . S
C92 H99 0.930 . S
N93 Zn77 2.119 . S
N93 C89 1.328 . S
N93 C92 1.334 . S
N94 C90 1.331 . S
N94 C91 1.329 . S
H95 C89 0.930 . S
C96 O76 1.257 . S
C96 O97 1.244 1_556 S
O97 C96 1.244 1_554 S
O98 C74 1.257 . S
O98 Zn77 2.019 . S
H99 C92 0.930 . S
H100 C79 0.930 . S
H101 C91 0.930 . S
Zn102 N106 2.020 . S
Zn102 O110 2.019 . S
Zn102 N112 2.119 . S
Zn102 O120 1.975 . S
C103 N104 1.334 1_556 S
C103 N107 1.336 . S
N104 C103 1.334 1_554 S
N104 C105 1.334 . S
C105 N104 1.334 . S
C105 N106 1.336 . S
N106 Zn102 2.020 . S
N106 C105 1.336 . S
N106 N107 1.354 1_554 S
N107 C103 1.336 . S
N107 N106 1.354 1_556 S
N107 Zn111 2.020 . S
C108 O109 1.244 1_556 S
C108 O132 1.257 . S
O109 C108 1.244 1_554 S
O110 Zn102 2.019 . S
O110 C130 1.257 . S
Zn111 N107 2.020 . S
Zn111 O118 1.975 . S
Zn111 N127 2.119 . S
Zn111 O132 2.019 1_565 S
N112 Zn102 2.119 . S
N112 C114 1.334 . S
N112 C115 1.328 . S
C113 C114 1.391 . S
C113 N116 1.329 . S
C113 H134 0.930 . S
C114 N112 1.334 . S
C114 C113 1.391 . S
C114 H121 0.930 . S
C115 N112 1.328 . S
C115 C117 1.392 . S
C115 H122 0.930 . S
N116 C113 1.329 . S
N116 C117 1.331 . S
C117 C115 1.392 . S
C117 N116 1.331 . S
O118 Zn111 1.975 . S
O118 C119 1.253 . S
C119 O118 1.253 . S
C119 O120 1.251 1_556 S
O120 Zn102 1.975 . S
O120 C119 1.251 1_554 S
H121 C114 0.930 . S
H122 C115 0.930 . S
C123 C124 1.392 . S
C123 N127 1.328 . S
C123 H129 0.930 . S
C124 C123 1.392 . S
C124 N128 1.331 . S
C125 C126 1.391 . S
C125 N128 1.329 . S
C125 H135 0.930 . S
C126 C125 1.391 . S
C126 N127 1.334 . S
C126 H133 0.930 . S
N127 Zn111 2.119 . S
N127 C123 1.328 . S
N127 C126 1.334 . S
N128 C124 1.331 . S
N128 C125 1.329 . S
H129 C123 0.930 . S
C130 O110 1.257 . S
C130 O131 1.244 1_554 S
O131 C130 1.244 1_556 S
O132 C108 1.257 . S
O132 Zn111 2.019 1_545 S
H133 C126 0.930 . S
H134 C113 0.930 . S
H135 C125 0.930 . S
Zn136 N140 2.020 . S
Zn136 O144 2.019 . S
Zn136 N146 2.119 . S
Zn136 O154 1.975 . S
C137 N138 1.334 . S
C137 N141 1.336 . S
N138 C137 1.334 . S
N138 C139 1.334 1_554 S
C139 N138 1.334 1_556 S
C139 N140 1.336 . S
N140 Zn136 2.020 . S
N140 C139 1.336 . S
N140 N141 1.354 1_556 S
N141 C137 1.336 . S
N141 N140 1.354 1_554 S
N141 Zn145 2.020 . S
C142 O143 1.244 1_554 S
C142 O166 1.257 . S
O143 C142 1.244 1_556 S
O144 Zn136 2.019 . S
O144 C164 1.257 . S
Zn145 N141 2.020 . S
Zn145 O152 1.975 . S
Zn145 N161 2.119 . S
Zn145 O166 2.019 . S
N146 Zn136 2.119 . S
N146 C148 1.334 . S
N146 C149 1.328 . S
C147 C148 1.391 . S
C147 N150 1.329 . S
C147 H168 0.930 . S
C148 N146 1.334 . S
C148 C147 1.391 . S
C148 H155 0.930 . S
C149 N146 1.328 . S
C149 C151 1.392 . S
C149 H156 0.930 . S
N150 C147 1.329 . S
N150 C151 1.331 . S
C151 C149 1.392 . S
C151 N150 1.331 . S
O152 Zn145 1.975 . S
O152 C153 1.251 1_554 S
C153 O152 1.251 1_556 S
C153 O154 1.253 . S
O154 Zn136 1.975 . S
O154 C153 1.253 . S
H155 C148 0.930 . S
H156 C149 0.930 . S
C157 C158 1.392 . S
C157 N161 1.328 . S
C157 H163 0.930 . S
C158 C157 1.392 . S
C158 N162 1.331 . S
C159 C160 1.391 . S
C159 N162 1.329 . S
C159 H169 0.930 . S
C160 C159 1.391 . S
C160 N161 1.334 . S
C160 H167 0.930 . S
N161 Zn145 2.119 . S
N161 C157 1.328 . S
N161 C160 1.334 . S
N162 C158 1.331 . S
N162 C159 1.329 . S
H163 C157 0.930 . S
C164 O144 1.257 . S
C164 O165 1.244 1_556 S
O165 C164 1.244 1_554 S
O166 C142 1.257 . S
O166 Zn145 2.019 . S
H167 C160 0.930 . S
H168 C147 0.930 . S
H169 C159 0.930 . S
Zn170 N174 2.020 . S
Zn170 O178 2.019 . S
Zn170 N180 2.119 . S
Zn170 O188 1.975 . S
C171 N172 1.334 1_556 S
C171 N175 1.336 . S
N172 C171 1.334 1_554 S
N172 C173 1.334 . S
C173 N172 1.334 . S
C173 N174 1.336 . S
N174 Zn170 2.020 . S
N174 C173 1.336 . S
N174 N175 1.354 1_554 S
N175 C171 1.336 . S
N175 N174 1.354 1_556 S
N175 Zn179 2.020 . S
C176 O177 1.244 1_556 S
C176 O200 1.257 . S
O177 C176 1.244 1_554 S
O178 Zn170 2.019 . S
O178 C198 1.257 . S
Zn179 N175 2.020 . S
Zn179 O186 1.975 . S
Zn179 N195 2.119 . S
Zn179 O200 2.019 1_455 S
N180 Zn170 2.119 . S
N180 C182 1.334 . S
N180 C183 1.328 . S
C181 C182 1.391 . S
C181 N184 1.329 . S
C181 H202 0.930 . S
C182 N180 1.334 . S
C182 C181 1.391 . S
C182 H189 0.930 . S
C183 N180 1.328 . S
C183 C185 1.392 . S
C183 H190 0.930 . S
N184 C181 1.329 . S
N184 C185 1.331 . S
C185 C183 1.392 . S
C185 N184 1.331 . S
O186 Zn179 1.975 . S
O186 C187 1.253 . S
C187 O186 1.253 . S
C187 O188 1.251 1_556 S
O188 Zn170 1.975 . S
O188 C187 1.251 1_554 S
H189 C182 0.930 . S
H190 C183 0.930 . S
C191 C192 1.392 . S
C191 N195 1.328 . S
C191 H197 0.930 . S
C192 C191 1.392 . S
C192 N196 1.331 . S
C193 C194 1.391 . S
C193 N196 1.329 . S
C193 H203 0.930 . S
C194 C193 1.391 . S
C194 N195 1.334 . S
C194 H201 0.930 . S
N195 Zn179 2.119 . S
N195 C191 1.328 . S
N195 C194 1.334 . S
N196 C192 1.331 . S
N196 C193 1.329 . S
H197 C191 0.930 . S
C198 O178 1.257 . S
C198 O199 1.244 1_554 S
O199 C198 1.244 1_556 S
O200 C176 1.257 . S
O200 Zn179 2.019 1_655 S
H201 C194 0.930 . S
H202 C181 0.930 . S
H203 C193 0.930 . S
Zn204 N208 2.020 . S
Zn204 O212 2.019 . S
Zn204 N214 2.119 . S
Zn204 O222 1.975 . S
C205 N206 1.334 . S
C205 N209 1.336 . S
N206 C205 1.334 . S
N206 C207 1.334 . S
C207 N206 1.334 . S
C207 N208 1.336 . S
N208 Zn204 2.020 . S
N208 C207 1.336 . S
N208 N209 1.354 . S
N209 C205 1.336 . S
N209 N208 1.354 . S
N209 Zn213 2.020 . S
C210 O211 1.244 . S
C210 O234 1.257 . S
O211 C210 1.244 . S
O212 Zn204 2.019 . S
O212 C232 1.257 . S
Zn213 N209 2.020 . S
Zn213 O220 1.975 . S
Zn213 N229 2.119 . S
Zn213 O234 2.019 1_655 S
N214 Zn204 2.119 . S
N214 C216 1.334 . S
N214 C217 1.328 . S
C215 C216 1.391 . S
C215 N218 1.329 . S
C215 H236 0.930 . S
C216 N214 1.334 . S
C216 C215 1.391 . S
C216 H223 0.930 . S
C217 N214 1.328 . S
C217 C219 1.392 . S
C217 H224 0.930 . S
N218 C215 1.329 . S
N218 C219 1.331 . S
C219 C217 1.392 . S
C219 N218 1.331 . S
O220 Zn213 1.975 . S
O220 C221 1.252 . S
C221 O220 1.252 . S
C221 O222 1.252 . S
O222 Zn204 1.975 . S
O222 C221 1.252 . S
H223 C216 0.930 . S
H224 C217 0.930 . S
C225 C226 1.392 . S
C225 N229 1.328 . S
C225 H231 0.930 . S
C226 C225 1.392 . S
C226 N230 1.331 . S
C227 C228 1.391 . S
C227 N230 1.329 . S
C227 H237 0.930 . S
C228 C227 1.391 . S
C228 N229 1.334 . S
C228 H235 0.930 . S
N229 Zn213 2.119 . S
N229 C225 1.328 . S
N229 C228 1.334 . S
N230 C226 1.331 . S
N230 C227 1.329 . S
H231 C225 0.930 . S
C232 O212 1.257 . S
C232 O233 1.244 . S
O233 C232 1.244 . S
O234 C210 1.257 . S
O234 Zn213 2.019 1_455 S
H235 C228 0.930 . S
H236 C215 0.930 . S
H237 C227 0.930 . S
Zn238 N242 2.020 . S
Zn238 O246 2.019 1_565 S
Zn238 N248 2.119 . S
Zn238 O256 1.975 . S
C239 N240 1.334 . S
C239 N243 1.336 . S
N240 C239 1.334 . S
N240 C241 1.334 . S
C241 N240 1.334 . S
C241 N242 1.336 . S
N242 Zn238 2.020 . S
N242 C241 1.336 . S
N242 N243 1.354 . S
N243 C239 1.336 . S
N243 N242 1.354 . S
N243 Zn247 2.020 . S
C244 O245 1.244 . S
C244 O268 1.257 . S
O245 C244 1.244 . S
O246 Zn238 2.019 1_545 S
O246 C266 1.257 . S
Zn247 N243 2.020 . S
Zn247 O254 1.975 . S
Zn247 N263 2.119 . S
Zn247 O268 2.019 . S
N248 Zn238 2.119 . S
N248 C250 1.334 . S
N248 C251 1.328 . S
C249 C250 1.391 . S
C249 N252 1.329 . S
C249 H270 0.930 . S
C250 N248 1.334 . S
C250 C249 1.391 . S
C250 H257 0.930 . S
C251 N248 1.328 . S
C251 C253 1.392 . S
C251 H258 0.930 . S
N252 C249 1.329 . S
N252 C253 1.331 . S
C253 C251 1.392 . S
C253 N252 1.331 . S
O254 Zn247 1.975 . S
O254 C255 1.252 . S
C255 O254 1.252 . S
C255 O256 1.252 . S
O256 Zn238 1.975 . S
O256 C255 1.252 . S
H257 C250 0.930 . S
H258 C251 0.930 . S
C259 C260 1.392 . S
C259 N263 1.328 . S
C259 H265 0.930 . S
C260 C259 1.392 . S
C260 N264 1.331 . S
C261 C262 1.391 . S
C261 N264 1.329 . S
C261 H271 0.930 . S
C262 C261 1.391 . S
C262 N263 1.334 . S
C262 H269 0.930 . S
N263 Zn247 2.119 . S
N263 C259 1.328 . S
N263 C262 1.334 . S
N264 C260 1.331 . S
N264 C261 1.329 . S
H265 C259 0.930 . S
C266 O246 1.257 . S
C266 O267 1.244 . S
O267 C266 1.244 . S
O268 C244 1.257 . S
O268 Zn247 2.019 . S
H269 C262 0.930 . S
H270 C249 0.930 . S
H271 C261 0.930 . S
Zn272 N276 2.020 . S
Zn272 O280 2.019 . S
Zn272 N282 2.119 . S
Zn272 O290 1.975 . S
C273 N274 1.334 . S
C273 N277 1.336 . S
N274 C273 1.334 . S
N274 C275 1.334 . S
C275 N274 1.334 . S
C275 N276 1.336 . S
N276 Zn272 2.020 . S
N276 C275 1.336 . S
N276 N277 1.354 . S
N277 C273 1.336 . S
N277 N276 1.354 . S
N277 Zn281 2.020 . S
C278 O279 1.244 . S
C278 O302 1.257 . S
O279 C278 1.244 . S
O280 Zn272 2.019 . S
O280 C300 1.257 . S
Zn281 N277 2.020 . S
Zn281 O288 1.975 . S
Zn281 N297 2.119 . S
Zn281 O302 2.019 . S
N282 Zn272 2.119 . S
N282 C284 1.334 . S
N282 C285 1.328 . S
C283 C284 1.391 . S
C283 N286 1.329 . S
C283 H304 0.930 . S
C284 N282 1.334 . S
C284 C283 1.391 . S
C284 H291 0.930 . S
C285 N282 1.328 . S
C285 C287 1.392 . S
C285 H292 0.930 . S
N286 C283 1.329 . S
N286 C287 1.331 . S
C287 C285 1.392 . S
C287 N286 1.331 . S
O288 Zn281 1.975 . S
O288 C289 1.252 . S
C289 O288 1.252 . S
C289 O290 1.252 . S
O290 Zn272 1.975 . S
O290 C289 1.252 . S
H291 C284 0.930 . S
H292 C285 0.930 . S
C293 C294 1.392 . S
C293 N297 1.328 . S
C293 H299 0.930 . S
C294 C293 1.392 . S
C294 N298 1.331 . S
C295 C296 1.391 . S
C295 N298 1.329 . S
C295 H305 0.930 . S
C296 C295 1.391 . S
C296 N297 1.334 . S
C296 H303 0.930 . S
N297 Zn281 2.119 . S
N297 C293 1.328 . S
N297 C296 1.334 . S
N298 C294 1.331 . S
N298 C295 1.329 . S
H299 C293 0.930 . S
C300 O280 1.257 . S
C300 O301 1.244 . S
O301 C300 1.244 . S
O302 C278 1.257 . S
O302 Zn281 2.019 . S
H303 C296 0.930 . S
H304 C283 0.930 . S
H305 C295 0.930 . S
Zn306 N310 2.020 . S
Zn306 O314 2.019 1_455 S
Zn306 N316 2.119 . S
Zn306 O324 1.975 . S
C307 N308 1.334 . S
C307 N311 1.336 . S
N308 C307 1.334 . S
N308 C309 1.334 . S
C309 N308 1.334 . S
C309 N310 1.336 . S
N310 Zn306 2.020 . S
N310 C309 1.336 . S
N310 N311 1.354 . S
N311 C307 1.336 . S
N311 N310 1.354 . S
N311 Zn315 2.020 . S
C312 O313 1.244 . S
C312 O336 1.257 . S
O313 C312 1.244 . S
O314 Zn306 2.019 1_655 S
O314 C334 1.257 . S
Zn315 N311 2.020 . S
Zn315 O322 1.975 . S
Zn315 N331 2.119 . S
Zn315 O336 2.019 . S
N316 Zn306 2.119 . S
N316 C318 1.334 . S
N316 C319 1.328 . S
C317 C318 1.391 . S
C317 N320 1.329 . S
C317 H338 0.930 . S
C318 N316 1.334 . S
C318 C317 1.391 . S
C318 H325 0.930 . S
C319 N316 1.328 . S
C319 C321 1.392 . S
C319 H326 0.930 . S
N320 C317 1.329 . S
N320 C321 1.331 . S
C321 C319 1.392 . S
C321 N320 1.331 . S
O322 Zn315 1.975 . S
O322 C323 1.252 . S
C323 O322 1.252 . S
C323 O324 1.252 . S
O324 Zn306 1.975 . S
O324 C323 1.252 . S
H325 C318 0.930 . S
H326 C319 0.930 . S
C327 C328 1.392 . S
C327 N331 1.328 . S
C327 H333 0.930 . S
C328 C327 1.392 . S
C328 N332 1.331 . S
C329 C330 1.391 . S
C329 N332 1.329 . S
C329 H339 0.930 . S
C330 C329 1.391 . S
C330 N331 1.334 . S
C330 H337 0.930 . S
N331 Zn315 2.119 . S
N331 C327 1.328 . S
N331 C330 1.334 . S
N332 C328 1.331 . S
N332 C329 1.329 . S
H333 C327 0.930 . S
C334 O314 1.257 . S
C334 O335 1.244 . S
O335 C334 1.244 . S
O336 C312 1.257 . S
O336 Zn315 2.019 . S
H337 C330 0.930 . S
H338 C317 0.930 . S
H339 C329 0.930 . S
Zn340 N344 2.020 . S
Zn340 O348 2.019 . S
Zn340 N350 2.119 . S
Zn340 O358 1.975 . S
C341 N342 1.334 . S
C341 N345 1.336 . S
N342 C341 1.334 . S
N342 C343 1.334 . S
C343 N342 1.334 . S
C343 N344 1.336 . S
N344 Zn340 2.020 . S
N344 C343 1.336 . S
N344 N345 1.354 . S
N345 C341 1.336 . S
N345 N344 1.354 . S
N345 Zn349 2.020 . S
C346 O347 1.244 . S
C346 O370 1.257 . S
O347 C346 1.244 . S
O348 Zn340 2.019 . S
O348 C368 1.257 . S
Zn349 N345 2.020 . S
Zn349 O356 1.975 . S
Zn349 N365 2.119 . S
Zn349 O370 2.019 1_545 S
N350 Zn340 2.119 . S
N350 C352 1.334 . S
N350 C353 1.328 . S
C351 C352 1.391 . S
C351 N354 1.329 . S
C351 H372 0.930 . S
C352 N350 1.334 . S
C352 C351 1.391 . S
C352 H359 0.930 . S
C353 N350 1.328 . S
C353 C355 1.392 . S
C353 H360 0.930 . S
N354 C351 1.329 . S
N354 C355 1.331 . S
C355 C353 1.392 . S
C355 N354 1.331 . S
O356 Zn349 1.975 . S
O356 C357 1.252 . S
C357 O356 1.252 . S
C357 O358 1.252 . S
O358 Zn340 1.975 . S
O358 C357 1.252 . S
H359 C352 0.930 . S
H360 C353 0.930 . S
C361 C362 1.392 . S
C361 N365 1.328 . S
C361 H367 0.930 . S
C362 C361 1.392 . S
C362 N366 1.331 . S
C363 C364 1.391 . S
C363 N366 1.329 . S
C363 H373 0.930 . S
C364 C363 1.391 . S
C364 N365 1.334 . S
C364 H371 0.930 . S
N365 Zn349 2.119 . S
N365 C361 1.328 . S
N365 C364 1.334 . S
N366 C362 1.331 . S
N366 C363 1.329 . S
H367 C361 0.930 . S
C368 O348 1.257 . S
C368 O369 1.244 . S
O369 C368 1.244 . S
O370 C346 1.257 . S
O370 Zn349 2.019 1_565 S
H371 C364 0.930 . S
H372 C351 0.930 . S
H373 C363 0.930 . S
Zn374 N378 2.020 . S
Zn374 O382 2.019 . S
Zn374 N384 2.119 . S
Zn374 O392 1.975 . S
C375 N376 1.334 . S
C375 N379 1.336 . S
N376 C375 1.334 . S
N376 C377 1.334 . S
C377 N376 1.334 . S
C377 N378 1.336 . S
N378 Zn374 2.020 . S
N378 C377 1.336 . S
N378 N379 1.354 . S
N379 C375 1.336 . S
N379 N378 1.354 . S
N379 Zn383 2.020 . S
C380 O381 1.244 . S
C380 O404 1.257 . S
O381 C380 1.244 . S
O382 Zn374 2.019 . S
O382 C402 1.257 . S
Zn383 N379 2.020 . S
Zn383 O390 1.975 . S
Zn383 N399 2.119 . S
Zn383 O404 2.019 . S
N384 Zn374 2.119 . S
N384 C386 1.334 . S
N384 C387 1.328 . S
C385 C386 1.391 . S
C385 N388 1.329 . S
C385 H406 0.930 . S
C386 N384 1.334 . S
C386 C385 1.391 . S
C386 H393 0.930 . S
C387 N384 1.328 . S
C387 C389 1.392 . S
C387 H394 0.930 . S
N388 C385 1.329 . S
N388 C389 1.331 . S
C389 C387 1.392 . S
C389 N388 1.331 . S
O390 Zn383 1.975 . S
O390 C391 1.252 . S
C391 O390 1.252 . S
C391 O392 1.252 . S
O392 Zn374 1.975 . S
O392 C391 1.252 . S
H393 C386 0.930 . S
H394 C387 0.930 . S
C395 C396 1.392 . S
C395 N399 1.328 . S
C395 H401 0.930 . S
C396 C395 1.392 . S
C396 N400 1.331 . S
C397 C398 1.391 . S
C397 N400 1.329 . S
C397 H407 0.930 . S
C398 C397 1.391 . S
C398 N399 1.334 . S
C398 H405 0.930 . S
N399 Zn383 2.119 . S
N399 C395 1.328 . S
N399 C398 1.334 . S
N400 C396 1.331 . S
N400 C397 1.329 . S
H401 C395 0.930 . S
C402 O382 1.257 . S
C402 O403 1.244 . S
O403 C402 1.244 . S
O404 C380 1.257 . S
O404 Zn383 2.019 . S
H405 C398 0.930 . S
H406 C385 0.930 . S
H407 C397 0.930 . S
C28 C187 1.098 . S
C40 C17 1.098 . S
C96 C51 1.098 . S
C108 C85 1.098 . S
C164 C119 1.098 . S
C176 C153 1.098 . S
C210 C255 1.094 . S
C266 C289 1.094 . S
C278 C323 1.094 . S
C357 C334 1.094 . S
C391 C346 1.094 . S
C221 C402 1.095 . S
C287 C22 1.648 . S
C328 C49 1.648 . S
C90 C355 1.648 . S
C396 C117 1.648 . S
C158 C219 1.648 . S
C185 C260 1.648 . S
C389 C124 3.310 . S
C151 C226 3.310 . S
C192 C253 3.310 . S
C15 C294 3.310 . S
C56 C321 3.309 . S
C83 C362 3.310 . S
C74 C1 0.960 . S
C130 C37 0.960 . S
C69 C142 0.960 . S
C105 C198 0.960 . S
C6 C137 0.960 . S
C62 C173 0.960 . S
C207 C368 0.960 . S
C239 C380 0.960 . S
C232 C275 0.960 . S
C244 C307 0.960 . S
C300 C343 0.960 . S
C375 C312 0.960 . S
C3 C103 2.489 1_545 S
C35 C139 2.489 . S
C71 C171 2.489 1_655 S
C205 C309 2.489 1_655 S
C341 C241 2.489 1_545 S
C377 C273 2.489 . S
