# Generated by pormake.
# Topology wjs, (5)-cn, num edge types: 1
# Building blocks:
#     Node 0, Type 0, BuildingBlock: XOMCOT_clean_sbu_1, # of connection points: 5
#     Node 1, Type 0, BuildingBlock: XOMCOT_clean_sbu_1, # of connection points: 5
#     Node 2, Type 0, BuildingBlock: XOMCOT_clean_sbu_1, # of connection points: 5
#     Node 3, Type 0, BuildingBlock: XOMCOT_clean_sbu_1, # of connection points: 5
#     Node 4, Type 0, BuildingBlock: XOMCOT_clean_sbu_1, # of connection points: 5
#     Node 5, Type 0, BuildingBlock: XOMCOT_clean_sbu_1, # of connection points: 5
#     Node 6, Type 0, BuildingBlock: XOMCOT_clean_sbu_1, # of connection points: 5
#     Node 7, Type 0, BuildingBlock: XOMCOT_clean_sbu_1, # of connection points: 5
#     Node 8, Type 0, BuildingBlock: XOMCOT_clean_sbu_1, # of connection points: 5
#     Node 9, Type 0, BuildingBlock: XOMCOT_clean_sbu_1, # of connection points: 5
#     Node 10, Type 0, BuildingBlock: XOMCOT_clean_sbu_1, # of connection points: 5
#     Node 11, Type 0, BuildingBlock: XOMCOT_clean_sbu_1, # of connection points: 5
#     Edge 12, Type (0, 0), BuildingBlock: ZUJKAS_clean_linker_0, # of connection points: 2
#     Edge 13, Type (0, 0), BuildingBlock: ZUJKAS_clean_linker_0, # of connection points: 2
#     Edge 14, Type (0, 0), BuildingBlock: ZUJKAS_clean_linker_0, # of connection points: 2
#     Edge 15, Type (0, 0), BuildingBlock: ZUJKAS_clean_linker_0, # of connection points: 2
#     Edge 16, Type (0, 0), BuildingBlock: ZUJKAS_clean_linker_0, # of connection points: 2
#     Edge 17, Type (0, 0), BuildingBlock: ZUJKAS_clean_linker_0, # of connection points: 2
#     Edge 18, Type (0, 0), BuildingBlock: ZUJKAS_clean_linker_0, # of connection points: 2
#     Edge 19, Type (0, 0), BuildingBlock: ZUJKAS_clean_linker_0, # of connection points: 2
#     Edge 20, Type (0, 0), BuildingBlock: ZUJKAS_clean_linker_0, # of connection points: 2
#     Edge 21, Type (0, 0), BuildingBlock: ZUJKAS_clean_linker_0, # of connection points: 2
#     Edge 22, Type (0, 0), BuildingBlock: ZUJKAS_clean_linker_0, # of connection points: 2
#     Edge 23, Type (0, 0), BuildingBlock: ZUJKAS_clean_linker_0, # of connection points: 2
#     Edge 24, Type (0, 0), BuildingBlock: ZUJKAS_clean_linker_0, # of connection points: 2
#     Edge 25, Type (0, 0), BuildingBlock: ZUJKAS_clean_linker_0, # of connection points: 2
#     Edge 26, Type (0, 0), BuildingBlock: ZUJKAS_clean_linker_0, # of connection points: 2
#     Edge 27, Type (0, 0), BuildingBlock: ZUJKAS_clean_linker_0, # of connection points: 2
#     Edge 28, Type (0, 0), BuildingBlock: ZUJKAS_clean_linker_0, # of connection points: 2
#     Edge 29, Type (0, 0), BuildingBlock: ZUJKAS_clean_linker_0, # of connection points: 2
#     Edge 30, Type (0, 0), BuildingBlock: ZUJKAS_clean_linker_0, # of connection points: 2
#     Edge 31, Type (0, 0), BuildingBlock: ZUJKAS_clean_linker_0, # of connection points: 2
#     Edge 32, Type (0, 0), BuildingBlock: ZUJKAS_clean_linker_0, # of connection points: 2
#     Edge 33, Type (0, 0), BuildingBlock: ZUJKAS_clean_linker_0, # of connection points: 2
#     Edge 34, Type (0, 0), BuildingBlock: ZUJKAS_clean_linker_0, # of connection points: 2
#     Edge 35, Type (0, 0), BuildingBlock: ZUJKAS_clean_linker_0, # of connection points: 2
#     Edge 36, Type (0, 0), BuildingBlock: ZUJKAS_clean_linker_0, # of connection points: 2
#     Edge 37, Type (0, 0), BuildingBlock: ZUJKAS_clean_linker_0, # of connection points: 2
#     Edge 38, Type (0, 0), BuildingBlock: ZUJKAS_clean_linker_0, # of connection points: 2
#     Edge 39, Type (0, 0), BuildingBlock: ZUJKAS_clean_linker_0, # of connection points: 2
#     Edge 40, Type (0, 0), BuildingBlock: ZUJKAS_clean_linker_0, # of connection points: 2
#     Edge 41, Type (0, 0), BuildingBlock: ZUJKAS_clean_linker_0, # of connection points: 2
# Relax obj value: 0.369
# Max RMSD: 0.266
# Mean RMSD: 0.266
data_MOF--net-wjs--node1-XOMCOT_clean_sbu_1--edge1-ZUJKAS_clean_linker_0
_symmetry_space_group_name_H-M    P1
_symmetry_Int_Tables_number       1
_symmetry_cell_setting            triclinic
loop_
_symmetry_equiv_pos_as_xyz
'x, y, z'
_cell_length_a     39.127022
_cell_length_b     39.11147
_cell_length_c     87.072367
_cell_angle_alpha  89.992484
_cell_angle_beta   89.999179
_cell_angle_gamma 119.97389
loop_
_atom_site_label
_atom_site_type_symbol
_atom_site_fract_x
_atom_site_fract_y
_atom_site_fract_z
_atom_type_partial_charge
C0 C 0.27602 0.35645 0.03563 0.0
C1 C 0.2864 0.33384 0.04443 0.0
N2 N 0.26113 0.29556 0.04128 0.0
N3 N 0.24468 0.33248 0.02688 0.0
C4 C 0.23607 0.29557 0.03063 0.0
H5 H 0.29016 0.3883 0.0357 0.0
Co6 Co 0.21872 0.34825 0.01341 0.0
C7 C 0.17739 0.27917 0.99292 0.0
O8 O 0.14346 0.2777 0.99513 0.0
N9 N 0.1927 0.36471 1.00002 0.0
C10 C 0.1703 0.3802 0.97927 0.0
C11 C 0.1951 0.36735 0.98457 0.0
C12 C 0.16695 0.37669 0.00387 0.0
N13 N 0.15259 0.38603 0.99146 0.0
O14 O 0.17067 0.31574 0.02428 0.0
H15 H 0.21353 0.36015 0.9776 0.0
H16 H 0.15834 0.3779 0.01555 0.0
O17 O 0.20823 0.30514 0.99981 0.0
C18 C 0.16699 0.33011 0.03687 0.0
O19 O 0.1946 0.36584 0.04078 0.0
N20 N 0.2667 0.38109 0.00348 0.0
C21 C 0.3441 0.433 0.99441 0.0
C22 C 0.32696 0.39234 0.99182 0.0
C23 C 0.28838 0.36683 0.99657 0.0
C24 C 0.28216 0.42065 0.00552 0.0
C25 C 0.32095 0.44724 0.00108 0.0
H26 H 0.27717 0.33553 0.99556 0.0
H27 H 0.26494 0.43142 0.01132 0.0
H28 H 0.21186 0.26925 0.02564 0.0
H29 H 0.31007 0.3447 0.05276 0.0
H30 H 0.16598 0.38522 0.96738 0.0
H31 H 0.34402 0.37996 0.98708 0.0
H32 H 0.3331 0.47844 0.0033 0.0
C33 C 0.91846 0.27747 0.20251 0.0
C34 C 0.95199 0.28832 0.21097 0.0
N35 N 0.96681 0.26505 0.20687 0.0
N36 N 0.91228 0.24767 0.19306 0.0
C37 C 0.94205 0.24064 0.19597 0.0
H38 H 0.89924 0.28986 0.2034 0.0
Co39 Co 0.86924 0.22085 0.18028 0.0
C40 C 0.89476 0.1786 0.15926 0.0
O41 O 0.86226 0.1449 0.16176 0.0
N42 N 0.82538 0.19405 0.16766 0.0
C43 C 0.7846 0.17081 0.14775 0.0
C44 C 0.82305 0.1954 0.15223 0.0
C45 C 0.78814 0.16914 0.17231 0.0
N46 N 0.76268 0.15431 0.16043 0.0
O47 O 0.85505 0.17338 0.1914 0.0
H48 H 0.84774 0.21314 0.14474 0.0
H49 H 0.77994 0.16168 0.1842 0.0
O50 O 0.90047 0.20974 0.16617 0.0
C51 C 0.83962 0.1711 0.2045 0.0
O52 O 0.83271 0.19941 0.20865 0.0
N53 N 0.88314 0.26824 0.17013 0.0
C54 C 0.90699 0.34487 0.16045 0.0
C55 C 0.93054 0.32786 0.15761 0.0
C56 C 0.9183 0.28967 0.16267 0.0
C57 C 0.85906 0.28359 0.1725 0.0
C58 C 0.87043 0.32198 0.16774 0.0
H59 H 0.93841 0.27854 0.16138 0.0
H60 H 0.83174 0.2666 0.17874 0.0
H61 H 0.94511 0.21771 0.19031 0.0
H62 H 0.96368 0.31073 0.21982 0.0
H63 H 0.77359 0.16599 0.13608 0.0
H64 H 0.95941 0.34477 0.1524 0.0
H65 H 0.8514 0.33405 0.17016 0.0
C66 C 0.63875 0.91981 0.36617 0.0
C67 C 0.66177 0.95343 0.37456 0.0
N68 N 0.69992 0.96521 0.37168 0.0
N69 N 0.66234 0.9108 0.35793 0.0
C70 C 0.69941 0.93883 0.36157 0.0
H71 H 0.60688 0.90263 0.36626 0.0
Co72 Co 0.64637 0.86724 0.34539 0.0
C73 C 0.71474 0.89303 0.32461 0.0
O74 O 0.71598 0.86049 0.32699 0.0
N75 N 0.62979 0.82311 0.33298 0.0
C76 C 0.61288 0.78195 0.31322 0.0
C77 C 0.6261 0.8204 0.31756 0.0
C78 C 0.61818 0.78611 0.33777 0.0
N79 N 0.60794 0.76041 0.32598 0.0
O80 O 0.67971 0.85359 0.35678 0.0
H81 H 0.63264 0.84482 0.30997 0.0
H82 H 0.61774 0.7783 0.34971 0.0
O83 O 0.68893 0.89837 0.33139 0.0
C84 C 0.6673 0.83972 0.37013 0.0
O85 O 0.63248 0.83363 0.37443 0.0
N86 N 0.6128 0.88059 0.33494 0.0
C87 C 0.55999 0.90463 0.32552 0.0
C88 C 0.60028 0.92744 0.32209 0.0
C89 C 0.62628 0.91513 0.32703 0.0
C90 C 0.5735 0.85697 0.33772 0.0
C91 C 0.54649 0.86849 0.33313 0.0
H92 H 0.65742 0.93487 0.32533 0.0
H93 H 0.5634 0.83013 0.34429 0.0
H94 H 0.72549 0.93963 0.35696 0.0
H95 H 0.65127 0.9674 0.38252 0.0
H96 H 0.60683 0.77068 0.30159 0.0
H97 H 0.61211 0.95595 0.31656 0.0
H98 H 0.51559 0.85001 0.33599 0.0
C99 C 0.71949 0.64354 0.53179 0.0
C100 C 0.70976 0.66696 0.54036 0.0
N101 N 0.73649 0.70497 0.53744 0.0
N102 N 0.75192 0.66674 0.5234 0.0
C103 C 0.76178 0.704 0.52715 0.0
H104 H 0.70431 0.61165 0.53188 0.0
Co105 Co 0.77788 0.64963 0.51054 0.0
C106 C 0.82305 0.71868 0.49024 0.0
O107 O 0.85603 0.7182 0.49243 0.0
N108 N 0.80372 0.63172 0.49782 0.0
C109 C 0.82714 0.61462 0.47782 0.0
C110 C 0.80315 0.6292 0.48235 0.0
C111 C 0.82748 0.61794 0.50243 0.0
N112 N 0.84241 0.60757 0.4905 0.0
O113 O 0.82531 0.68065 0.52202 0.0
H114 H 0.78655 0.63765 0.47487 0.0
H115 H 0.83423 0.61617 0.51433 0.0
O116 O 0.79151 0.69353 0.49698 0.0
C117 C 0.82684 0.66672 0.53505 0.0
O118 O 0.79748 0.63205 0.53912 0.0
N119 N 0.73046 0.6183 0.49998 0.0
C120 C 0.65202 0.56991 0.49123 0.0
C121 C 0.67293 0.60967 0.48678 0.0
C122 C 0.7119 0.63351 0.49143 0.0
C123 C 0.71175 0.57908 0.5034 0.0
C124 C 0.67236 0.55425 0.49917 0.0
H125 H 0.72589 0.66458 0.48889 0.0
H126 H 0.72662 0.56762 0.51039 0.0
H127 H 0.78716 0.72989 0.52248 0.0
H128 H 0.68561 0.6568 0.54845 0.0
H129 H 0.83254 0.60926 0.46612 0.0
H130 H 0.65872 0.62286 0.48037 0.0
H131 H 0.6574 0.52382 0.50296 0.0
C132 C 0.07584 0.72323 0.69937 0.0
C133 C 0.04233 0.71343 0.7077 0.0
N134 N 0.03063 0.73963 0.70433 0.0
N135 N 0.08487 0.75515 0.69066 0.0
C136 C 0.05699 0.76465 0.694 0.0
H137 H 0.09293 0.70845 0.69985 0.0
Co138 Co 0.12824 0.78123 0.67791 0.0
C139 C 0.10311 0.82405 0.65675 0.0
O140 O 0.13597 0.85774 0.65873 0.0
N141 N 0.17216 0.80719 0.66527 0.0
C142 C 0.21268 0.82991 0.64526 0.0
C143 C 0.1742 0.80581 0.64984 0.0
C144 C 0.2096 0.83162 0.66984 0.0
N145 N 0.23489 0.84613 0.65789 0.0
O146 O 0.14347 0.82892 0.68903 0.0
H147 H 0.14929 0.78848 0.64239 0.0
H148 H 0.21806 0.83908 0.68172 0.0
O149 O 0.09761 0.79333 0.66392 0.0
C150 C 0.15858 0.83044 0.70214 0.0
O151 O 0.16465 0.8015 0.70614 0.0
N152 N 0.11335 0.73349 0.66777 0.0
C153 C 0.0844 0.6546 0.65996 0.0
C154 C 0.06597 0.67515 0.65456 0.0
C155 C 0.08053 0.71437 0.65875 0.0
C156 C 0.13368 0.71515 0.67206 0.0
C157 C 0.11962 0.67553 0.66833 0.0
H158 H 0.0637 0.7281 0.65543 0.0
H159 H 0.1593 0.73051 0.67938 0.0
H160 H 0.05621 0.78961 0.68902 0.0
H161 H 0.02837 0.68962 0.71594 0.0
H162 H 0.22348 0.83468 0.63357 0.0
H163 H 0.03925 0.6605 0.64776 0.0
H164 H 0.13477 0.66087 0.67282 0.0
C165 C 0.35431 0.07585 0.8666 0.0
C166 C 0.33155 0.04255 0.8752 0.0
N167 N 0.29332 0.0305 0.87238 0.0
N168 N 0.33047 0.08438 0.85828 0.0
C169 C 0.29351 0.05642 0.8621 0.0
H170 H 0.38618 0.09307 0.86655 0.0
Co171 Co 0.34623 0.12713 0.84531 0.0
C172 C 0.27724 0.10083 0.8249 0.0
O173 O 0.27626 0.13351 0.82726 0.0
N174 N 0.36259 0.17054 0.83245 0.0
C175 C 0.37816 0.21023 0.81224 0.0
C176 C 0.36555 0.17218 0.817 0.0
C177 C 0.37403 0.2078 0.83683 0.0
N178 N 0.38333 0.23259 0.82477 0.0
O179 O 0.31377 0.14195 0.85666 0.0
H180 H 0.3585 0.1472 0.80966 0.0
H181 H 0.3759 0.21665 0.84869 0.0
O182 O 0.30306 0.09541 0.83162 0.0
C183 C 0.32816 0.15823 0.86953 0.0
O184 O 0.36357 0.165 0.87327 0.0
N185 N 0.3791 0.11276 0.83495 0.0
C186 C 0.43112 0.08722 0.8261 0.0
C187 C 0.39072 0.06447 0.82283 0.0
C188 C 0.36512 0.07755 0.82748 0.0
C189 C 0.41851 0.13635 0.83749 0.0
C190 C 0.44514 0.1241 0.83317 0.0
H191 H 0.33389 0.0579 0.82599 0.0
H192 H 0.42901 0.16374 0.84371 0.0
H193 H 0.26728 0.05524 0.85747 0.0
H194 H 0.34228 0.02892 0.88322 0.0
H195 H 0.38243 0.22037 0.80046 0.0
H196 H 0.37851 0.03545 0.81771 0.0
H197 H 0.47614 0.14258 0.83587 0.0
C198 C 0.64174 0.72168 0.78224 0.0
C199 C 0.66528 0.7124 0.77353 0.0
N200 N 0.70322 0.73852 0.77683 0.0
N201 N 0.66478 0.75316 0.79111 0.0
C202 C 0.7021 0.76298 0.78749 0.0
H203 H 0.60988 0.70687 0.78193 0.0
Co204 Co 0.64739 0.77829 0.80426 0.0
C205 C 0.71525 0.82187 0.82508 0.0
O206 O 0.71475 0.85488 0.82297 0.0
N207 N 0.62907 0.80338 0.81727 0.0
C208 C 0.61125 0.82533 0.83755 0.0
C209 C 0.62609 0.80175 0.83273 0.0
C210 C 0.61524 0.82733 0.81295 0.0
N211 N 0.60445 0.84137 0.82504 0.0
O212 O 0.67938 0.82641 0.79339 0.0
H213 H 0.63436 0.78468 0.84003 0.0
H214 H 0.61363 0.83485 0.80115 0.0
O215 O 0.69057 0.79058 0.81806 0.0
C216 C 0.66552 0.83142 0.78093 0.0
O217 O 0.6297 0.80505 0.77662 0.0
N218 N 0.61528 0.7301 0.81424 0.0
C219 C 0.56589 0.65136 0.82248 0.0
C220 C 0.60548 0.67177 0.82717 0.0
C221 C 0.62982 0.71087 0.82275 0.0
C222 C 0.57626 0.71181 0.81052 0.0
C223 C 0.55097 0.67229 0.81448 0.0
H224 H 0.66073 0.72451 0.82552 0.0
H225 H 0.56533 0.72721 0.80355 0.0
H226 H 0.72791 0.78775 0.7925 0.0
H227 H 0.65528 0.68901 0.7651 0.0
H228 H 0.60552 0.82992 0.84931 0.0
H229 H 0.61814 0.65716 0.83364 0.0
H230 H 0.52071 0.65777 0.8105 0.0
C231 C 0.91643 0.63783 0.9462 0.0
C232 C 0.94943 0.6611 0.93752 0.0
N233 N 0.96225 0.69914 0.94108 0.0
N234 N 0.90889 0.66116 0.9553 0.0
C235 C 0.93709 0.69833 0.95187 0.0
H236 H 0.8988 0.60599 0.94582 0.0
Co237 Co 0.86702 0.64469 0.96874 0.0
C238 C 0.89539 0.71232 0.99005 0.0
O239 O 0.86336 0.71466 0.98798 0.0
N240 N 0.82441 0.62762 0.98207 0.0
C241 C 0.78587 0.61035 0.00267 0.0
C242 C 0.82374 0.62392 0.99749 0.0
C243 C 0.78677 0.6157 0.97813 0.0
N244 N 0.76265 0.60531 0.99045 0.0
O245 O 0.85224 0.67858 0.95846 0.0
H246 H 0.84921 0.63089 0.00451 0.0
H247 H 0.77711 0.61408 0.96639 0.0
O248 O 0.89979 0.68643 0.98283 0.0
C249 C 0.83431 0.66538 0.94577 0.0
O250 O 0.82562 0.62975 0.94141 0.0
N251 N 0.88143 0.61057 0.97808 0.0
C252 C 0.90572 0.55707 0.98626 0.0
C253 C 0.93003 0.59757 0.98901 0.0
C254 C 0.91752 0.62387 0.98472 0.0
C255 C 0.85662 0.5712 0.97587 0.0
C256 C 0.86818 0.54383 0.9799 0.0
H257 H 0.9381 0.65502 0.98583 0.0
H258 H 0.82851 0.56119 0.97028 0.0
H259 H 0.93904 0.72427 0.95717 0.0
H260 H 0.96237 0.65087 0.92898 0.0
H261 H 0.77639 0.60519 0.01454 0.0
H262 H 0.95961 0.60924 0.99351 0.0
H263 H 0.84848 0.5128 0.9776 0.0
C264 C 0.27976 0.91998 0.11525 0.0
C265 C 0.2899 0.95345 0.10681 0.0
N266 N 0.26345 0.96508 0.10981 0.0
N267 N 0.24738 0.91093 0.12364 0.0
C268 C 0.23797 0.93874 0.12003 0.0
H269 H 0.29474 0.90306 0.11517 0.0
Co270 Co 0.22087 0.86792 0.13652 0.0
C271 C 0.17773 0.89332 0.15716 0.0
O272 O 0.1443 0.86033 0.15493 0.0
N273 N 0.19432 0.82427 0.14929 0.0
C274 C 0.17135 0.78405 0.16939 0.0
C275 C 0.19602 0.82235 0.16473 0.0
C276 C 0.16896 0.78698 0.14483 0.0
N277 N 0.15423 0.76188 0.15683 0.0
O278 O 0.17344 0.85269 0.12522 0.0
H279 H 0.21383 0.84727 0.17211 0.0
H280 H 0.16185 0.77826 0.13296 0.0
O281 O 0.20896 0.8991 0.15032 0.0
C282 C 0.17187 0.83688 0.11227 0.0
O283 O 0.20096 0.83093 0.1084 0.0
N284 N 0.26821 0.88267 0.14686 0.0
C285 C 0.34509 0.90774 0.15649 0.0
C286 C 0.32757 0.93086 0.15929 0.0
C287 C 0.28923 0.91799 0.15426 0.0
C288 C 0.28401 0.85893 0.14461 0.0
C289 C 0.32252 0.87091 0.14935 0.0
H290 H 0.27767 0.93776 0.15548 0.0
H291 H 0.26731 0.83145 0.13843 0.0
H292 H 0.21285 0.93956 0.1248 0.0
H293 H 0.31421 0.96753 0.0988 0.0
H294 H 0.166 0.77354 0.18113 0.0
H295 H 0.34419 0.95987 0.16442 0.0
H296 H 0.33495 0.85216 0.14699 0.0
C297 C 0.35939 0.27683 0.27949 0.0
C298 C 0.33696 0.28781 0.27091 0.0
N299 N 0.29878 0.26458 0.27487 0.0
N300 N 0.3355 0.247 0.28887 0.0
C301 C 0.29882 0.24009 0.2858 0.0
H302 H 0.39098 0.28913 0.27871 0.0
Co303 Co 0.35102 0.21973 0.30176 0.0
C304 C 0.28245 0.17866 0.32263 0.0
O305 O 0.28007 0.14436 0.32025 0.0
N306 N 0.36727 0.19243 0.3145 0.0
C307 C 0.38347 0.16829 0.33452 0.0
C308 C 0.37032 0.19344 0.32995 0.0
C309 C 0.37924 0.16716 0.30993 0.0
N310 N 0.38906 0.15179 0.32188 0.0
O311 O 0.3174 0.17237 0.29064 0.0
H312 H 0.3634 0.21129 0.33739 0.0
H313 H 0.38027 0.15979 0.29804 0.0
O314 O 0.3087 0.20936 0.31575 0.0
C315 C 0.33059 0.1699 0.27758 0.0
O316 O 0.36598 0.19791 0.27349 0.0
N317 N 0.38487 0.26701 0.31192 0.0
C318 C 0.43817 0.34343 0.32165 0.0
C319 C 0.39766 0.32684 0.32444 0.0
C320 C 0.37146 0.28879 0.31935 0.0
C321 C 0.42425 0.28195 0.3096 0.0
C322 C 0.45153 0.32025 0.31437 0.0
H323 H 0.34032 0.27807 0.32057 0.0
H324 H 0.43435 0.26472 0.30337 0.0
H325 H 0.27269 0.21715 0.29138 0.0
H326 H 0.34792 0.31027 0.26207 0.0
H327 H 0.38902 0.16305 0.34622 0.0
H328 H 0.38595 0.34401 0.32965 0.0
H329 H 0.48258 0.33201 0.31197 0.0
C330 C 0.07475 0.35553 0.44779 0.0
C331 C 0.04134 0.3327 0.43927 0.0
N332 N 0.02919 0.29448 0.4422 0.0
N333 N 0.08328 0.33177 0.45616 0.0
C334 C 0.0552 0.29476 0.45246 0.0
H335 H 0.09206 0.38741 0.44773 0.0
Co336 Co 0.1263 0.34799 0.46898 0.0
C337 C 0.10143 0.27971 0.48963 0.0
O338 O 0.13444 0.27944 0.48722 0.0
N339 N 0.17004 0.36493 0.48169 0.0
C340 C 0.2104 0.38184 0.50172 0.0
C341 C 0.17209 0.36835 0.49713 0.0
C342 C 0.2073 0.37695 0.47715 0.0
N343 N 0.23249 0.3871 0.48911 0.0
O344 O 0.14129 0.31567 0.45761 0.0
H345 H 0.14724 0.36116 0.50456 0.0
H346 H 0.21589 0.37876 0.46525 0.0
O347 O 0.09518 0.30488 0.4828 0.0
C348 C 0.15712 0.32979 0.44466 0.0
O349 O 0.16328 0.36491 0.44076 0.0
N350 N 0.11174 0.38065 0.47939 0.0
C351 C 0.08625 0.43242 0.48865 0.0
C352 C 0.06353 0.39192 0.49177 0.0
C353 C 0.0766 0.36644 0.48692 0.0
C354 C 0.13523 0.42012 0.47693 0.0
C355 C 0.12301 0.44663 0.48147 0.0
H356 H 0.05703 0.33514 0.48834 0.0
H357 H 0.16256 0.4308 0.47066 0.0
H358 H 0.05402 0.26856 0.45715 0.0
H359 H 0.02773 0.34337 0.43122 0.0
H360 H 0.22095 0.38678 0.51345 0.0
H361 H 0.0346 0.37957 0.49696 0.0
H362 H 0.14146 0.47771 0.47887 0.0
C363 C 0.72379 0.081 0.61336 0.0
C364 C 0.71424 0.04817 0.6046 0.0
N365 N 0.73981 0.03568 0.608 0.0
N366 N 0.7549 0.08878 0.62233 0.0
C367 C 0.76421 0.06089 0.61876 0.0
H368 H 0.70931 0.0984 0.61308 0.0
Co369 Co 0.78007 0.13071 0.63572 0.0
C370 C 0.82127 0.10521 0.65722 0.0
O371 O 0.85406 0.13934 0.65611 0.0
N372 N 0.8053 0.17355 0.64901 0.0
C373 C 0.82609 0.21249 0.66953 0.0
C374 C 0.80143 0.17464 0.66438 0.0
C375 C 0.83185 0.21094 0.64507 0.0
N376 N 0.84534 0.23523 0.65733 0.0
O377 O 0.82849 0.14652 0.62507 0.0
H378 H 0.78227 0.14941 0.67141 0.0
H379 H 0.84075 0.22035 0.63337 0.0
O380 O 0.79096 0.09869 0.64949 0.0
C381 C 0.83262 0.16427 0.61237 0.0
O382 O 0.80537 0.17265 0.60817 0.0
N383 N 0.73173 0.115 0.64546 0.0
C384 C 0.65398 0.08859 0.65427 0.0
C385 C 0.67189 0.06597 0.65736 0.0
C386 C 0.71065 0.07947 0.65273 0.0
C387 C 0.7155 0.13825 0.64292 0.0
C388 C 0.67652 0.12556 0.64722 0.0
H389 H 0.72255 0.06004 0.65421 0.0
H390 H 0.73228 0.1659 0.63685 0.0
H391 H 0.78848 0.05921 0.62393 0.0
H392 H 0.69096 0.03513 0.59611 0.0
H393 H 0.82997 0.22227 0.68135 0.0
H394 H 0.65532 0.03688 0.66245 0.0
H395 H 0.66377 0.14392 0.64463 0.0
H396 H 0.19707 0.22378 0.04643 0.0
H397 H 0.19606 0.16691 0.05866 0.0
H398 H 0.32259 0.23383 0.06373 0.0
H399 H 0.32371 0.29083 0.05166 0.0
H400 H 0.23153 0.12495 0.05007 0.0
H401 H 0.28732 0.19388 0.10702 0.0
H402 H 0.27055 0.21552 0.0927 0.0
H403 H 0.3193 0.22184 0.0915 0.0
C404 C 0.22466 0.22628 0.0501 0.0
C405 C 0.26046 0.26182 0.04819 0.0
C406 C 0.22403 0.19387 0.05714 0.0
C407 C 0.25915 0.19643 0.06237 0.0
C408 C 0.29502 0.23159 0.06018 0.0
H409 H 0.32545 0.03412 0.10035 0.0
H410 H 0.32305 0.08986 0.08866 0.0
C411 C 0.29564 0.26408 0.05325 0.0
C412 C 0.25843 0.16203 0.06981 0.0
H413 H 0.28514 0.13271 0.10241 0.0
C414 C 0.24294 0.12652 0.06156 0.0
C415 C 0.27324 0.16418 0.08483 0.0
C416 C 0.28818 0.20078 0.09459 0.0
C417 C 0.2428 0.09337 0.06779 0.0
C418 C 0.25832 0.09585 0.08265 0.0
C419 C 0.27346 0.13114 0.09097 0.0
C420 C 0.25948 0.06214 0.08972 0.0
C421 C 0.22688 0.05617 0.05834 0.0
C422 C 0.22452 0.02844 0.09428 0.0
C423 C 0.2258 0.99665 0.10098 0.0
C424 C 0.2621 0.99805 0.10316 0.0
C425 C 0.29707 0.03202 0.09863 0.0
C426 C 0.29577 0.0639 0.09204 0.0
H427 H 0.22223 0.06118 0.04615 0.0
H428 H 0.24733 0.04422 0.05878 0.0
H429 H 0.19815 0.03347 0.06318 0.0
H430 H 0.19627 0.02679 0.09268 0.0
H431 H 0.19837 0.97074 0.10421 0.0
H432 H 0.22274 0.20421 0.27463 0.0
H433 H 0.16603 0.20431 0.263 0.0
H434 H 0.2409 0.32424 0.24796 0.0
H435 H 0.29773 0.32502 0.25993 0.0
H436 H 0.13909 0.26309 0.26903 0.0
H437 H 0.18108 0.25606 0.2085 0.0
H438 H 0.19965 0.24079 0.22453 0.0
H439 H 0.21892 0.2923 0.22075 0.0
C440 C 0.22725 0.23085 0.26905 0.0
C441 C 0.26502 0.26462 0.26822 0.0
C442 C 0.19478 0.23071 0.26232 0.0
C443 C 0.19952 0.26413 0.25452 0.0
C444 C 0.23689 0.298 0.25377 0.0
H445 H 0.02854 0.32539 0.2217 0.0
H446 H 0.08463 0.32442 0.23353 0.0
C447 C 0.26935 0.29829 0.26058 0.0
C448 C 0.16526 0.26366 0.24723 0.0
H449 H 0.12542 0.26372 0.21237 0.0
C450 C 0.13599 0.26319 0.25666 0.0
C451 C 0.1614 0.26349 0.23109 0.0
C452 C 0.19172 0.26292 0.22055 0.0
C453 C 0.10304 0.26319 0.25031 0.0
C454 C 0.09953 0.26371 0.23417 0.0
C455 C 0.12848 0.26355 0.22474 0.0
C456 C 0.0658 0.26433 0.22689 0.0
C457 C 0.07201 0.26231 0.26085 0.0
C458 C 0.03706 0.23098 0.21909 0.0
C459 C 0.0047 0.23122 0.21244 0.0
C460 C 0.00072 0.26502 0.21337 0.0
C461 C 0.03016 0.29863 0.22099 0.0
C462 C 0.06235 0.29824 0.22771 0.0
H463 H 0.07573 0.2553 0.27288 0.0
H464 H 0.07402 0.29164 0.26072 0.0
H465 H 0.04204 0.24017 0.25681 0.0
H466 H 0.03938 0.20456 0.21836 0.0
H467 H 0.98251 0.20464 0.20686 0.0
H468 H 0.02285 0.2235 0.43637 0.0
H469 H 0.96752 0.16668 0.42392 0.0
H470 H 0.90563 0.23175 0.42014 0.0
H471 H 0.96092 0.28867 0.43247 0.0
H472 H 0.88971 0.12299 0.43252 0.0
H473 H 0.90266 0.19515 0.37629 0.0
H474 H 0.94089 0.21617 0.39069 0.0
H475 H 0.89812 0.22185 0.39217 0.0
C476 C 0.99735 0.22558 0.43297 0.0
C477 C 0.99629 0.26061 0.4353 0.0
C478 C 0.96588 0.1932 0.4258 0.0
C479 C 0.93286 0.19532 0.42084 0.0
C480 C 0.93132 0.2299 0.42349 0.0
H481 H 0.70648 0.03401 0.38122 0.0
H482 H 0.76398 0.08939 0.39334 0.0
C483 C 0.96286 0.26235 0.43056 0.0
C484 C 0.89968 0.16112 0.41314 0.0
H485 H 0.84434 0.13319 0.38038 0.0
C486 C 0.87996 0.12509 0.42107 0.0
C487 C 0.88716 0.16399 0.39819 0.0
C488 C 0.90854 0.20125 0.38876 0.0
C489 C 0.84734 0.09209 0.41459 0.0
C490 C 0.83444 0.09526 0.39977 0.0
C491 C 0.85433 0.13108 0.39178 0.0
C492 C 0.79996 0.06176 0.39244 0.0
C493 C 0.8263 0.05434 0.42373 0.0
C494 C 0.80152 0.02824 0.38781 0.0
C495 C 0.76878 0.99663 0.38088 0.0
C496 C 0.73396 0.99807 0.37851 0.0
C497 C 0.73271 0.03189 0.38308 0.0
C498 C 0.76553 0.06357 0.38991 0.0
H499 H 0.83538 0.05889 0.43599 0.0
H500 H 0.79385 0.04176 0.42309 0.0
H501 H 0.83325 0.03234 0.41881 0.0
H502 H 0.82806 0.02657 0.38954 0.0
H503 H 0.7705 0.97083 0.37762 0.0
H504 H 0.80224 0.77484 0.54348 0.0
H505 H 0.80537 0.83225 0.55612 0.0
H506 H 0.67842 0.77023 0.55965 0.0
H507 H 0.67517 0.71273 0.54715 0.0
H508 H 0.77355 0.87801 0.54772 0.0
H509 H 0.71184 0.80529 0.6036 0.0
H510 H 0.72828 0.78365 0.58915 0.0
H511 H 0.68043 0.77941 0.58766 0.0
C512 C 0.77502 0.77356 0.54687 0.0
C513 C 0.73845 0.73922 0.54443 0.0
C514 C 0.77685 0.80627 0.55415 0.0
C515 C 0.74218 0.80515 0.5591 0.0
C516 C 0.7056 0.77128 0.55632 0.0
H517 H 0.67833 0.96807 0.59726 0.0
H518 H 0.68102 0.91278 0.58533 0.0
C519 C 0.70376 0.73851 0.54915 0.0
C520 C 0.74411 0.83967 0.56691 0.0
H521 H 0.71629 0.86776 0.59953 0.0
C522 C 0.76139 0.87592 0.5591 0.0
C523 C 0.72837 0.8368 0.58179 0.0
C524 C 0.71155 0.7993 0.59111 0.0
C525 C 0.76222 0.90912 0.56562 0.0
C526 C 0.74554 0.90589 0.5803 0.0
C527 C 0.72883 0.8699 0.58821 0.0
C528 C 0.74431 0.93937 0.58751 0.0
C529 C 0.77993 0.94717 0.55663 0.0
C530 C 0.77901 0.97227 0.59279 0.0
C531 C 0.77755 0.00383 0.59962 0.0
C532 C 0.74135 0.00295 0.60123 0.0
C533 C 0.70665 0.96976 0.59599 0.0
C534 C 0.70811 0.93813 0.58927 0.0
H535 H 0.78595 0.94307 0.5445 0.0
H536 H 0.7599 0.95963 0.5568 0.0
H537 H 0.80818 0.96906 0.56205 0.0
H538 H 0.80716 0.97349 0.59162 0.0
H539 H 0.80479 0.02916 0.60341 0.0
H540 H 0.96167 0.67807 0.714 0.0
H541 H 0.90655 0.68102 0.72593 0.0
H542 H 0.96992 0.80777 0.7215 0.0
H543 H 0.02543 0.80509 0.70969 0.0
H544 H 0.93557 0.77415 0.75211 0.0
H545 H 0.82928 0.71076 0.70369 0.0
H546 H 0.85397 0.68419 0.70907 0.0
H547 H 0.88196 0.73288 0.7011 0.0
C548 C 0.96388 0.70655 0.71559 0.0
C549 C 0.99779 0.74134 0.7109 0.0
C550 C 0.93231 0.70816 0.72229 0.0
C551 C 0.93417 0.74457 0.72443 0.0
C552 C 0.96796 0.7794 0.71982 0.0
H553 H 0.77341 0.80432 0.77134 0.0
H554 H 0.83097 0.80774 0.75872 0.0
C555 C -0.00054 0.77779 0.713 0.0
C556 C 0.90117 0.74618 0.73192 0.0
H557 H 0.80422 0.71862 0.72737 0.0
C558 C 0.90688 0.76234 0.74671 0.0
C559 C 0.86393 0.73057 0.72478 0.0
C560 C 0.85677 0.71385 0.70873 0.0
C561 C 0.87578 0.7622 0.75479 0.0
C562 C 0.83836 0.7463 0.74769 0.0
C563 C 0.83292 0.73072 0.73279 0.0
C564 C 0.80407 0.74456 0.75563 0.0
C565 C 0.88293 0.77778 0.77102 0.0
C566 C 0.76963 0.70804 0.75777 0.0
C567 C 0.73669 0.70607 0.76484 0.0
C568 C 0.73759 0.74061 0.76991 0.0
C569 C 0.77215 0.77718 0.7678 0.0
C570 C 0.80503 0.77917 0.76061 0.0
H571 H 0.90962 0.77909 0.77609 0.0
H572 H 0.88748 0.80815 0.771 0.0
H573 H 0.85723 0.75914 0.7785 0.0
H574 H 0.76828 0.68099 0.75399 0.0
H575 H 0.71059 0.67749 0.76644 0.0
H576 H 0.22276 0.02466 0.87855 0.0
H577 H 0.16579 0.96921 0.89087 0.0
H578 H 0.23007 0.9064 0.89403 0.0
H579 H 0.28719 0.96189 0.88187 0.0
H580 H 0.12162 0.89239 0.88186 0.0
H581 H 0.19301 0.90087 0.93783 0.0
H582 H 0.21471 0.93983 0.92373 0.0
H583 H 0.21954 0.89662 0.92183 0.0
C584 C 0.22465 -0.00105 0.88181 0.0
C585 C 0.25949 0.99766 0.87933 0.0
C586 C 0.19219 0.9674 0.88891 0.0
C587 C 0.194 0.93404 0.89363 0.0
C588 C 0.22844 0.93233 0.89087 0.0
H589 H 0.02978 0.70491 0.93038 0.0
H590 H 0.08559 0.76301 0.91874 0.0
C591 C 0.261 0.96398 0.88389 0.0
C592 C 0.15953 0.90061 0.90113 0.0
H593 H 0.13085 0.84299 0.93331 0.0
C594 C 0.12353 0.88179 0.89316 0.0
C595 C 0.16211 0.88696 0.9159 0.0
C596 C 0.19931 0.90735 0.9254 0.0
C597 C 0.09027 0.84899 0.89943 0.0
C598 C 0.09317 0.83491 0.91402 0.0
C599 C 0.12896 0.85389 0.92207 0.0
C600 C 0.05942 0.80009 0.92106 0.0
C601 C 0.05248 0.82901 0.89028 0.0
C602 C 0.02657 0.80204 0.92632 0.0
C603 C 0.99474 0.76897 0.93299 0.0
C604 C 0.99526 0.73342 0.93445 0.0
C605 C 0.02838 0.73173 0.92923 0.0
C606 C 0.0603 0.76488 0.92267 0.0
H607 H 0.05693 0.83949 0.8782 0.0
H608 H 0.03997 0.79651 0.89031 0.0
H609 H 0.03048 0.83527 0.89567 0.0
H610 H 0.02561 0.82915 0.92527 0.0
H611 H 0.96948 0.77103 0.93677 0.0
H612 H 0.72145 0.62023 0.96895 0.0
H613 H 0.65052 0.59561 0.96861 0.0
H614 H 0.63809 0.53629 0.01174 0.0
H615 H 0.70881 0.55958 0.01191 0.0
H616 H 0.58397 0.48875 0.99004 0.0
H617 H 0.58739 0.63203 0.9944 0.0
H618 H 0.61642 0.62943 0.97895 0.0
H619 H 0.62987 0.62692 0.99849 0.0
C620 C 0.70368 0.60177 0.97834 0.0
C621 C 0.72094 0.59183 0.99046 0.0
C622 C 0.66317 0.58817 0.97822 0.0
C623 C 0.63915 0.56464 0.99027 0.0
C624 C 0.6562 0.5547 0.00239 0.0
H625 H 0.39756 0.49013 0.01349 0.0
H626 H 0.46948 0.52483 0.01131 0.0
C627 C 0.69669 0.56823 0.00251 0.0
C628 C 0.59595 0.54878 0.98992 0.0
H629 H 0.52505 0.57544 0.9893 0.0
C630 C 0.57107 0.50769 0.98989 0.0
C631 C 0.57926 0.57361 0.98985 0.0
C632 C 0.60455 0.61795 0.99057 0.0
C633 C 0.52991 0.49067 0.98972 0.0
C634 C 0.51319 0.51546 0.98927 0.0
C635 C 0.53802 0.55657 0.98942 0.0
C636 C 0.4699 0.49893 0.98941 0.0
C637 C 0.50468 0.44628 0.99041 0.0
C638 C 0.44637 0.47424 0.97749 0.0
C639 C 0.40527 0.45441 0.97869 0.0
C640 C 0.38701 0.45922 0.99178 0.0
C641 C 0.41069 0.48606 0.0032 0.0
C642 C 0.4518 0.50575 0.00202 0.0
H643 H 0.52177 0.43218 0.99432 0.0
H644 H 0.47926 0.43726 0.99829 0.0
H645 H 0.49296 0.4348 0.97879 0.0
H646 H 0.45982 0.46926 0.96751 0.0
H647 H 0.38777 0.43435 0.96961 0.0
H648 H 0.90452 0.39955 0.1792 0.0
H649 H 0.94057 0.47118 0.17608 0.0
H650 H 0.98278 0.45855 0.13188 0.0
H651 H 0.94674 0.38673 0.13492 0.0
H652 H 0.04226 0.50717 0.15125 0.0
H653 H 0.92716 0.55023 0.15003 0.0
H654 H 0.92223 0.519 0.16599 0.0
H655 H 0.91625 0.50016 0.14674 0.0
C656 C 0.92042 0.41192 0.16859 0.0
C657 C 0.92287 0.38749 0.15732 0.0
C658 C 0.94103 0.45292 0.16683 0.0
C659 C 0.96413 0.4702 0.1537 0.0
C660 C 0.96508 0.44579 0.14209 0.0
H661 H 0.09842 0.72311 0.13504 0.0
H662 H 0.05199 0.65214 0.13366 0.0
C663 C 0.94457 0.40481 0.14386 0.0
C664 C 0.99075 0.5135 0.1529 0.0
H665 H 0.9933 0.60193 0.15504 0.0
C666 C 0.03152 0.52789 0.15192 0.0
C667 C 0.97668 0.54046 0.15368 0.0
C668 C 0.93316 0.52674 0.15402 0.0
C669 C 0.05866 0.56849 0.15212 0.0
C670 C 0.04469 0.59539 0.15359 0.0
C671 C 0.0039 0.58114 0.15411 0.0
C672 C 0.07213 0.63844 0.15467 0.0
C673 C 0.10209 0.58224 0.1507 0.0
C674 C 0.09842 0.65425 0.16706 0.0
C675 C 0.12516 0.69475 0.16783 0.0
C676 C 0.12605 0.72021 0.15624 0.0
C677 C 0.09906 0.70428 0.144 0.0
C678 C 0.07227 0.66378 0.14325 0.0
H679 H 0.10718 0.55898 0.14575 0.0
H680 H 0.11723 0.60903 0.14339 0.0
H681 H 0.11578 0.58975 0.16227 0.0
H682 H 0.09835 0.63521 0.17611 0.0
H683 H 0.1456 0.70597 0.17737 0.0
H684 H 0.42817 0.14074 0.29843 0.0
H685 H 0.45083 0.09282 0.29726 0.0
H686 H 0.4045 0.05166 0.34267 0.0
H687 H 0.38078 0.09883 0.34378 0.0
H688 H 0.50432 0.08856 0.31755 0.0
H689 H 0.36026 0.94897 0.31752 0.0
H690 H 0.36485 0.99623 0.31313 0.0
H691 H 0.36631 0.9826 0.33273 0.0
C692 C 0.42222 0.12112 0.30808 0.0
C693 C 0.4025 0.12355 0.32119 0.0
C694 C 0.43537 0.09387 0.30742 0.0
C695 C 0.42879 0.06831 0.31977 0.0
C696 C 0.4092 0.07063 0.33288 0.0
H697 H 0.50576 0.90491 0.34517 0.0
H698 H 0.47108 0.94208 0.34248 0.0
C699 C 0.39612 0.09796 0.33358 0.0
C700 C 0.44443 0.04079 0.31928 0.0
H701 H 0.41756 0.94327 0.32098 0.0
C702 C 0.48537 0.05677 0.31816 0.0
C703 C 0.41956 -0.00061 0.32014 0.0
C704 C 0.37526 0.98064 0.32081 0.0
C705 C 0.50229 0.03252 0.31828 0.0
C706 C 0.47747 0.99107 0.3192 0.0
C707 C 0.43646 0.97503 0.3202 0.0
C708 C 0.49392 0.96423 0.31979 0.0
C709 C 0.54669 0.05159 0.31795 0.0
C710 C 0.51685 0.96301 0.30764 0.0
C711 C 0.53669 0.94179 0.30913 0.0
C712 C 0.53361 0.9211 0.32275 0.0
C713 C 0.50846 0.92023 0.33448 0.0
C714 C 0.48879 0.94163 0.333 0.0
H715 H 0.56141 0.08344 0.32093 0.0
H716 H 0.55697 0.0367 0.32606 0.0
H717 H 0.55625 0.04901 0.30622 0.0
H718 H 0.52045 0.97957 0.2972 0.0
H719 H 0.55542 0.94254 0.29982 0.0
H720 H 0.28825 0.43268 0.51001 0.0
H721 H 0.35906 0.45681 0.50854 0.0
H722 H 0.34257 0.39678 0.46531 0.0
H723 H 0.27163 0.37205 0.46676 0.0
H724 H 0.40027 0.41329 0.50557 0.0
H725 H 0.42563 0.51359 0.45615 0.0
H726 H 0.38121 0.49279 0.46758 0.0
H727 H 0.38798 0.46287 0.45365 0.0
C728 C 0.29953 0.42424 0.50026 0.0
C729 C 0.27419 0.40068 0.48844 0.0
C730 C 0.34004 0.43815 0.49942 0.0
C731 C 0.35602 0.42892 0.48674 0.0
C732 C 0.33085 0.40477 0.47507 0.0
H733 H 0.6063 0.49125 0.48354 0.0
H734 H 0.53407 0.45298 0.48136 0.0
C735 C 0.29032 0.39081 0.4759 0.0
C736 C 0.39918 0.44533 0.48565 0.0
H737 H 0.48091 0.51194 0.46588 0.0
C738 C 0.41795 0.43456 0.49681 0.0
C739 C 0.42201 0.47321 0.47425 0.0
C740 C 0.40339 0.48665 0.46227 0.0
C741 C 0.45917 0.45159 0.49705 0.0
C742 C 0.48201 0.47983 0.48576 0.0
C743 C 0.46317 0.48996 0.47441 0.0
C744 C 0.5256 0.50236 0.48652 0.0
C745 C 0.47816 0.44056 0.50972 0.0
C746 C 0.54457 0.54273 0.48991 0.0
C747 C 0.5855 0.56449 0.49122 0.0
C748 C 0.60853 0.54645 0.48902 0.0
C749 C 0.58944 0.50597 0.48542 0.0
C750 C 0.54825 0.48409 0.48415 0.0
H751 H 0.45668 0.42244 0.51877 0.0
H752 H 0.49107 0.42333 0.50482 0.0
H753 H 0.50245 0.4675 0.51511 0.0
H754 H 0.52756 0.55728 0.49186 0.0
H755 H 0.59897 0.59532 0.49438 0.0
H756 H 0.853 0.29044 0.67806 0.0
H757 H 0.90066 0.36119 0.67732 0.0
H758 H 0.95108 0.34514 0.63582 0.0
H759 H 0.9039 0.27434 0.63654 0.0
H760 H 0.98583 0.40249 0.67644 0.0
H761 H 0.9189 0.42823 0.62445 0.0
H762 H 0.89356 0.3837 0.63576 0.0
H763 H 0.93227 0.39057 0.62285 0.0
C764 C 0.87446 0.30183 0.66887 0.0
C765 C 0.87429 0.27672 0.65727 0.0
C766 C 0.90162 0.34228 0.66845 0.0
C767 C 0.929 0.35836 0.65641 0.0
C768 C 0.9297 0.33334 0.64505 0.0
H769 H 0.11791 0.60833 0.65418 0.0
H770 H 0.08398 0.53595 0.6526 0.0
C771 C 0.90257 0.29291 0.64546 0.0
C772 C 0.95595 0.40153 0.65555 0.0
H773 H 0.97462 0.48333 0.63495 0.0
C774 C 0.98372 0.42021 0.66731 0.0
C775 C 0.95283 0.42442 0.64364 0.0
C776 C 0.92264 0.40591 0.63099 0.0
C777 C 0.00808 0.46143 0.66761 0.0
C778 C 0.00461 0.48431 0.6558 0.0
C779 C 0.97738 0.46555 0.64389 0.0
C780 C 0.02579 0.52791 0.65646 0.0
C781 C 0.0362 0.48042 0.68085 0.0
C782 C 0.0042 0.54712 0.65897 0.0
C783 C 0.02333 0.58811 0.65994 0.0
C784 C 0.06456 0.61097 0.65826 0.0
C785 C 0.08619 0.59162 0.65562 0.0
C786 C 0.0669 0.55035 0.6547 0.0
H787 H 0.03163 0.4589 0.69008 0.0
H788 H 0.06699 0.4935 0.67664 0.0
H789 H 0.03268 0.50462 0.68583 0.0
H790 H 0.97247 0.53026 0.66044 0.0
H791 H 0.00575 0.6018 0.66238 0.0
H792 H 0.56345 0.85059 0.80188 0.0
H793 H 0.53946 0.89744 0.80078 0.0
H794 H 0.5863 0.93966 0.84603 0.0
H795 H 0.61132 0.89349 0.84708 0.0
H796 H 0.48596 0.90181 0.82134 0.0
H797 H 0.62992 0.04165 0.82017 0.0
H798 H 0.62525 0.9943 0.8159 0.0
H799 H 0.62423 0.00833 0.83546 0.0
C800 C 0.56914 0.87016 0.81153 0.0
C801 C 0.58953 0.86842 0.82455 0.0
C802 C 0.55523 0.89678 0.8109 0.0
C803 C 0.56166 0.9224 0.82321 0.0
C804 C 0.58168 0.92061 0.83629 0.0
H805 H 0.48549 0.08839 0.84606 0.0
H806 H 0.51972 0.05062 0.84425 0.0
C807 C 0.59552 0.89387 0.83695 0.0
C808 C 0.54586 0.94976 0.82261 0.0
H809 H 0.5726 0.04732 0.82314 0.0
C810 C 0.50487 0.93364 0.82162 0.0
C811 C 0.57069 0.99122 0.82304 0.0
C812 C 0.61501 0.01005 0.82357 0.0
C813 C 0.48789 0.95784 0.8214 0.0
C814 C 0.51269 -0.00065 0.82181 0.0
C815 C 0.55373 0.01551 0.82274 0.0
C816 C 0.49623 0.02621 0.82187 0.0
C817 C 0.44349 0.93869 0.82119 0.0
C818 C 0.47306 0.02631 0.80958 0.0
C819 C 0.45348 0.04789 0.81057 0.0
C820 C 0.45709 0.07007 0.8238 0.0
C821 C 0.4824 0.07192 0.83565 0.0
C822 C 0.50181 0.05018 0.83468 0.0
H823 H 0.42891 0.90715 0.82464 0.0
H824 H 0.43337 0.95432 0.82899 0.0
H825 H 0.43362 0.9401 0.80937 0.0
H826 H 0.46912 0.00869 0.79944 0.0
H827 H 0.43461 0.04633 0.80117 0.0
H828 H 0.36838 0.27155 0.84725 0.0
H829 H 0.39119 0.34214 0.84838 0.0
H830 H 0.44869 0.3586 0.80456 0.0
H831 H 0.42655 0.28817 0.80341 0.0
H832 H 0.46961 0.40357 0.84801 0.0
H833 H 0.38546 0.41606 0.79923 0.0
H834 H 0.37276 0.36938 0.80806 0.0
H835 H 0.41235 0.39146 0.79435 0.0
C836 C 0.38601 0.29011 0.83786 0.0
C837 C 0.39572 0.27407 0.82524 0.0
C838 C 0.39875 0.33043 0.83848 0.0
C839 C 0.4211 0.35545 0.82645 0.0
C840 C 0.43067 0.33962 0.8138 0.0
H841 H 0.59035 0.59733 0.81997 0.0
H842 H 0.5515 0.52604 0.82283 0.0
C843 C 0.41803 0.29932 0.81318 0.0
C844 C 0.43656 0.39851 0.82752 0.0
H845 H 0.44003 0.47652 0.80847 0.0
C846 C 0.46272 0.41947 0.83949 0.0
C847 C 0.42709 0.41911 0.81652 0.0
C848 C 0.39757 0.39784 0.80389 0.0
C849 C 0.48128 0.46074 0.8403 0.0
C850 C 0.47366 0.4815 0.82876 0.0
C851 C 0.44597 0.46047 0.81724 0.0
C852 C 0.49683 0.52504 0.82771 0.0
C853 C 0.50952 0.48193 0.8533 0.0
C854 C 0.47878 0.5481 0.82933 0.0
C855 C 0.50112 0.58925 0.82789 0.0
C856 C 0.54179 0.60786 0.82467 0.0
C857 C 0.55944 0.58432 0.82291 0.0
C858 C 0.53723 0.54344 0.82446 0.0
H859 H 0.50411 0.46201 0.86324 0.0
H860 H 0.54017 0.49294 0.84926 0.0
H861 H 0.5071 0.50767 0.85722 0.0
H862 H 0.4475 0.53428 0.83174 0.0
H863 H 0.48661 0.60644 0.82934 0.0
H864 H 0.94979 0.55482 0.01029 0.0
H865 H 0.98553 0.51833 0.0115 0.0
H866 H 0.9335 0.46163 0.96848 0.0
H867 H 0.89845 0.49867 0.96696 0.0
H868 H 0.96092 0.4349 0.00984 0.0
H869 H 0.05443 0.52235 0.9606 0.0
H870 H 0.02382 0.53659 0.97116 0.0
H871 H 0.00208 0.49731 0.95735 0.0
C872 C 0.94565 0.53427 0.00116 0.0
C873 C 0.9216 0.52994 0.98845 0.0
C874 C 0.96593 0.51334 0.00191 0.0
C875 C 0.96262 0.48787 0.98995 0.0
C876 C 0.9368 0.4816 0.97772 0.0
H877 H 0.10108 0.37564 0.96864 0.0
H878 H 0.0524 0.39746 0.96846 0.0
C879 C 0.91647 0.50248 0.97696 0.0
C880 C 0.98833 0.47014 0.98976 0.0
H881 H 0.06607 0.47325 0.97069 0.0
C882 C 0.98385 0.44312 0.00127 0.0
C883 C 0.01824 0.48109 0.97856 0.0
C884 C 0.02532 0.51115 0.96627 0.0
C885 C 0.00839 0.42647 0.00183 0.0
C886 C 0.03865 0.43784 0.99075 0.0
C887 C 0.04279 0.46454 0.97914 0.0
C888 C 0.06712 0.42332 0.99116 0.0
C889 C 0.00139 0.39652 0.01414 0.0
C890 C 0.09189 0.43108 0.0039 0.0
C891 C 0.11983 0.41877 0.00402 0.0
C892 C 0.1238 0.39878 0.99132 0.0
C893 C 0.0991 0.39131 0.97853 0.0
C894 C 0.07108 0.40353 0.97845 0.0
H895 H 0.97088 0.38274 0.01876 0.0
H896 H 0.00659 0.37289 0.0097 0.0
H897 H 0.0221 0.41145 0.0238 0.0
H898 H 0.09012 0.44729 0.01366 0.0
H899 H 0.13883 0.42563 0.01393 0.0
H900 H 0.39972 0.90555 0.13766 0.0
H901 H 0.47134 0.94191 0.1406 0.0
H902 H 0.45915 0.98497 0.18469 0.0
H903 H 0.3873 0.94864 0.1818 0.0
H904 H 0.50789 0.04407 0.16512 0.0
H905 H 0.55016 0.92834 0.16647 0.0
H906 H 0.51913 0.92362 0.15049 0.0
H907 H 0.50017 0.91763 0.16972 0.0
C908 C 0.41219 0.92173 0.1482 0.0
C909 C 0.38784 0.92424 0.1595 0.0
C910 C 0.45319 0.94252 0.14987 0.0
C911 C 0.47059 0.96586 0.16293 0.0
C912 C 0.4463 0.96705 0.17453 0.0
H913 H 0.71341 0.14316 0.18423 0.0
H914 H 0.64268 0.09624 0.18553 0.0
C915 C 0.4053 0.94637 0.17285 0.0
C916 C 0.51392 0.99235 0.16367 0.0
H917 H 0.60209 0.99438 0.16167 0.0
C918 C 0.5285 0.03318 0.16456 0.0
C919 C 0.54071 0.97807 0.16281 0.0
C920 C 0.5268 0.93449 0.16246 0.0
C921 C 0.56912 0.0602 0.16421 0.0
C922 C 0.59588 0.04596 0.16317 0.0
C923 C 0.58141 0.00514 0.16243 0.0
C924 C 0.63904 0.07317 0.16264 0.0
C925 C 0.58304 0.10382 0.16449 0.0
C926 C 0.66054 0.07506 0.14947 0.0
C927 C 0.70109 0.10168 0.14872 0.0
C928 C 0.72089 0.12669 0.1612 0.0
C929 C 0.69923 0.12417 0.17447 0.0
C930 C 0.65872 0.09761 0.17519 0.0
H931 H 0.55884 0.1099 0.16177 0.0
H932 H 0.5943 0.11562 0.17613 0.0
H933 H 0.60744 0.12001 0.15616 0.0
H934 H 0.64585 0.05626 0.13969 0.0
H935 H 0.71695 0.10241 0.13844 0.0
H936 H 0.61461 0.71478 0.30406 0.0
H937 H 0.59054 0.64386 0.30543 0.0
H938 H 0.5482 0.64076 0.35141 0.0
H939 H 0.57109 0.71133 0.34999 0.0
H940 H 0.6094 0.60041 0.32716 0.0
H941 H 0.45053 0.55642 0.32803 0.0
H942 H 0.48867 0.60514 0.32239 0.0
H943 H 0.48047 0.59188 0.34235 0.0
C944 C 0.59985 0.69899 0.31441 0.0
C945 C 0.59455 0.71877 0.32687 0.0
C946 C 0.58644 0.65854 0.31522 0.0
C947 C 0.56727 0.63707 0.32846 0.0
C948 C 0.56252 0.65675 0.34102 0.0
H949 H 0.44086 0.38519 0.34729 0.0
H950 H 0.47692 0.45699 0.3504 0.0
C951 C 0.57594 0.69719 0.34023 0.0
C952 C 0.55157 0.59393 0.329 0.0
H953 H 0.46582 0.50568 0.33111 0.0
C954 C 0.57803 0.57962 0.32805 0.0
C955 C 0.51065 0.567 0.33018 0.0
C956 C 0.48081 0.58072 0.33067 0.0
C957 C 0.56459 0.53892 0.32834 0.0
C958 C 0.52361 0.51198 0.32934 0.0
C959 C 0.49726 0.5264 0.33045 0.0
C960 C 0.50689 0.46865 0.32851 0.0
C961 C 0.59437 0.52518 0.32774 0.0
C962 C 0.51245 0.45136 0.31532 0.0
C963 C 0.49195 0.41036 0.31353 0.0
C964 C 0.46518 0.38595 0.32483 0.0
C965 C 0.46107 0.40327 0.33834 0.0
C966 C 0.48168 0.44424 0.34014 0.0
H967 H 0.62393 0.5486 0.33165 0.0
H968 H 0.58492 0.4985 0.33494 0.0
H969 H 0.59728 0.51763 0.3157 0.0
H970 H 0.53104 0.46962 0.30604 0.0
H971 H 0.49526 0.39799 0.30288 0.0
H972 H 0.85059 0.5662 0.51379 0.0
H973 H 0.89725 0.542 0.51523 0.0
H974 H 0.94172 0.58999 0.4703 0.0
H975 H 0.8958 0.61521 0.46893 0.0
H976 H 0.9021 0.48885 0.49474 0.0
H977 H 0.04246 0.63212 0.49665 0.0
H978 H 0.99515 0.62781 0.50062 0.0
H979 H 0.01003 0.62726 0.48114 0.0
C980 C 0.87064 0.57211 0.5043 0.0
C981 C 0.86956 0.59282 0.49126 0.0
C982 C 0.89716 0.55809 0.50512 0.0
C983 C 0.92333 0.56476 0.49299 0.0
C984 C 0.92225 0.58519 0.47992 0.0
H985 H 0.08739 0.48762 0.46914 0.0
H986 H 0.0501 0.52222 0.47151 0.0
C987 C 0.89565 0.59914 0.47907 0.0
C988 C 0.95039 0.54862 0.4937 0.0
H989 H 0.04769 0.57459 0.49314 0.0
C990 C 0.93394 0.50756 0.49453 0.0
C991 C 0.99187 0.5732 0.49337 0.0
C992 C 0.01106 0.61758 0.49303 0.0
C993 C 0.95785 0.49025 0.49462 0.0
C994 C -0.00062 0.51479 0.49422 0.0
C995 C 0.01587 0.55591 0.49352 0.0
C996 C 0.02593 0.49799 0.49384 0.0
C997 C 0.93838 0.4458 0.49461 0.0
C998 C 0.02597 0.47423 0.50591 0.0
C999 C 0.04729 0.45444 0.50461 0.0
C1000 C 0.06923 0.4584 0.49126 0.0
C1001 C 0.07111 0.48424 0.47963 0.0
C1002 C 0.04964 0.50387 0.48092 0.0
H1003 H 0.90681 0.43153 0.49125 0.0
H1004 H 0.9537 0.43573 0.48664 0.0
H1005 H 0.93989 0.43552 0.50634 0.0
H1006 H 0.00854 0.47004 0.51614 0.0
H1007 H 0.04573 0.43516 0.51385 0.0
H1008 H 0.28469 0.85579 0.68129 0.0
H1009 H 0.35565 0.90223 0.68238 0.0
H1010 H 0.35145 0.94416 0.63701 0.0
H1011 H 0.28029 0.89844 0.63596 0.0
H1012 H 0.41282 0.90512 0.66168 0.0
H1013 H 0.41156 0.04646 0.66253 0.0
H1014 H 0.36849 -0.00039 0.66701 0.0
H1015 H 0.38312 0.01315 0.64737 0.0
C1016 C 0.29871 0.87526 0.67163 0.0
C1017 C 0.27675 0.87347 0.65855 0.0
C1018 C 0.33929 0.90165 0.67225 0.0
C1019 C 0.35864 0.927 0.65988 0.0
C1020 C 0.33692 0.92532 0.6468 0.0
H1021 H 0.59967 0.08939 0.6348 0.0
H1022 H 0.52782 0.05225 0.63736 0.0
C1023 C 0.29634 0.89883 0.64614 0.0
C1024 C 0.40191 0.95377 0.66034 0.0
H1025 H 0.47386 0.05079 0.65893 0.0
C1026 C 0.42622 0.93698 0.66122 0.0
C1027 C 0.41916 0.99528 0.65966 0.0
C1028 C 0.39431 0.01484 0.65922 0.0
C1029 C 0.46746 0.96056 0.66102 0.0
C1030 C 0.4848 0.00212 0.6603 0.0
C1031 C 0.46046 0.01894 0.65955 0.0
C1032 C 0.52818 0.02835 0.65973 0.0
C1033 C 0.49204 0.94065 0.66107 0.0
C1034 C 0.55217 0.02848 0.67174 0.0
C1035 C 0.59322 0.04966 0.67031 0.0
C1036 C 0.61101 0.07144 0.65691 0.0
C1037 C 0.5869 0.0732 0.64532 0.0
C1038 C 0.54583 0.05183 0.64672 0.0
H1039 H 0.4744 0.909 0.65784 0.0
H1040 H 0.51731 0.95552 0.65301 0.0
H1041 H 0.50397 0.94232 0.67278 0.0
H1042 H 0.5391 0.01128 0.68203 0.0
H1043 H 0.61107 0.0482 0.67952 0.0
H1044 H 0.3548 0.19953 0.89612 0.0
H1045 H 0.31767 0.21371 0.91502 0.0
H1046 H 0.21321 0.15385 0.88696 0.0
H1047 H 0.25036 0.13915 0.86785 0.0
H1048 H 0.27599 0.25587 0.91019 0.0
H1049 H 0.17873 0.10145 0.9304 0.0
H1050 H 0.22368 0.11594 0.91984 0.0
H1051 H 0.18106 0.11086 0.91007 0.0
C1052 C 0.32394 0.18934 0.8939 0.0
C1053 C 0.3055 0.16812 0.88049 0.0
C1054 C 0.30277 0.19752 0.90473 0.0
C1055 C 0.26265 0.18448 0.90246 0.0
C1056 C 0.24407 0.16371 0.889 0.0
H1057 H 0.12758 0.2419 0.96868 0.0
H1058 H 0.14201 0.21455 0.94579 0.0
C1059 C 0.26537 0.15559 0.87807 0.0
C1060 C 0.24105 0.19337 0.91431 0.0
H1061 H 0.17504 0.15187 0.94377 0.0
C1062 C 0.25344 0.2331 0.91737 0.0
C1063 C 0.2117 0.16355 0.92366 0.0
C1064 C 0.19796 0.12049 0.92097 0.0
C1065 C 0.23831 0.24391 0.92987 0.0
C1066 C 0.21035 0.21425 0.93962 0.0
C1067 C 0.19652 0.17442 0.93621 0.0
C1068 C 0.1984 0.22484 0.95414 0.0
C1069 C 0.25334 0.28708 0.93295 0.0
C1070 C 0.22478 0.23831 0.96653 0.0
C1071 C 0.21669 0.2538 0.97955 0.0
C1072 C 0.18206 0.2562 0.98041 0.0
C1073 C 0.15448 0.2404 0.96836 0.0
C1074 C 0.16266 0.22486 0.95528 0.0
H1075 H 0.26963 0.30587 0.92297 0.0
H1076 H 0.2285 0.29203 0.93583 0.0
H1077 H 0.27361 0.29662 0.94296 0.0
H1078 H 0.25242 0.23828 0.96585 0.0
H1079 H 0.23825 0.26516 0.98872 0.0
H1080 H 0.11436 0.25038 0.03649 0.0
H1081 H 0.0615 0.21252 0.05517 0.0
H1082 H 0.09168 0.31995 0.07951 0.0
H1083 H 0.14426 0.35773 0.06111 0.0
H1084 H 0.07321 0.21312 0.08918 0.0
H1085 H 0.96951 0.26411 0.07186 0.0
H1086 H 0.00706 0.26628 0.05914 0.0
H1087 H 0.01989 0.30292 0.07386 0.0
C1088 C 0.10937 0.2659 0.04574 0.0
C1089 C 0.1334 0.30704 0.04732 0.0
C1090 C 0.07933 0.24425 0.0564 0.0
C1091 C 0.07255 0.26356 0.06861 0.0
C1092 C 0.09616 0.3046 0.07006 0.0
H1093 H 0.97069 0.23723 0.15518 0.0
H1094 H 0.01173 0.24987 0.13235 0.0
C1095 C 0.1263 0.32611 0.05955 0.0
C1096 C 0.042 0.24125 0.08033 0.0
H1097 H 0.9606 0.23603 0.09703 0.0
C1098 C 0.04806 0.21735 0.09073 0.0
C1099 C 0.00926 0.24686 0.08228 0.0
C1100 C 0.00071 0.27116 0.07112 0.0
C1101 C 0.02344 0.20085 0.10358 0.0
C1102 C 0.99213 0.20837 0.10596 0.0
C1103 C 0.98477 0.23043 0.09513 0.0
C1104 C 0.96919 0.19724 0.12038 0.0
C1105 C 0.03184 0.1769 0.11494 0.0
C1106 C 0.93207 0.16298 0.12125 0.0
C1107 C 0.90855 0.1555 0.13435 0.0
C1108 C 0.9217 0.18256 0.1466 0.0
C1109 C 0.95963 0.21599 0.14588 0.0
C1110 C 0.98316 0.22322 0.13288 0.0
H1111 H 0.05468 0.17027 0.11069 0.0
H1112 H 0.0422 0.19348 0.1259 0.0
H1113 H 0.00437 0.14872 0.11744 0.0
H1114 H 0.92084 0.14277 0.11163 0.0
H1115 H 0.87938 0.12962 0.13453 0.0
H1116 H 0.75302 0.88104 0.30061 0.0
H1117 H 0.78635 0.92589 0.27899 0.0
H1118 H 0.76394 0.01299 0.29966 0.0
H1119 H 0.73124 0.96887 0.32123 0.0
H1120 H 0.74996 0.95481 0.25921 0.0
H1121 H 0.87976 0.07823 0.28721 0.0
H1122 H 0.85211 0.02997 0.2959 0.0
H1123 H 0.83499 0.06486 0.29742 0.0
C1124 C 0.75601 0.9101 0.30069 0.0
C1125 C 0.73939 0.92139 0.31259 0.0
C1126 C 0.7749 0.93559 0.28831 0.0
C1127 C 0.77801 0.97293 0.2878 0.0
C1128 C 0.76257 0.98464 0.29994 0.0
H1129 H 0.80751 0.1601 0.23301 0.0
H1130 H 0.7969 0.10939 0.2517 0.0
C1131 C 0.74356 0.95922 0.31221 0.0
C1132 C 0.79404 0.99861 0.27409 0.0
H1133 H 0.85759 0.09396 0.2637 0.0
C1134 C 0.77415 0.98496 0.26004 0.0
C1135 C 0.82568 0.03785 0.27521 0.0
C1136 C 0.84962 0.05347 0.28972 0.0
C1137 C 0.78314 0.01046 0.24741 0.0
C1138 C 0.813 0.05039 0.2489 0.0
C1139 C 0.83451 0.06335 0.26264 0.0
C1140 C 0.81924 0.08024 0.2371 0.0
C1141 C 0.75904 0.9953 0.23292 0.0
C1142 C 0.83521 0.08052 0.22263 0.0
C1143 C 0.84135 0.10965 0.21182 0.0
C1144 C 0.83161 0.13886 0.21539 0.0
C1145 C 0.81533 0.13809 0.22986 0.0
C1146 C 0.80933 0.10918 0.2406 0.0
H1147 H 0.73413 0.96461 0.23421 0.0
H1148 H 0.74705 0.01466 0.22957 0.0
H1149 H 0.77822 0.99583 0.22342 0.0
H1150 H 0.84337 0.05859 0.21978 0.0
H1151 H 0.85413 0.10958 0.2008 0.0
H1152 H 0.6504 0.81681 0.39995 0.0
H1153 H 0.69166 0.80814 0.41868 0.0
H1154 H 0.78205 0.83915 0.38443 0.0
H1155 H 0.74067 0.84809 0.36541 0.0
H1156 H 0.76117 0.76851 0.40243 0.0
H1157 H 0.79353 0.89696 0.43904 0.0
H1158 H 0.7421 0.86692 0.43449 0.0
H1159 H 0.77701 0.89257 0.41938 0.0
C1160 C 0.67903 0.82185 0.39633 0.0
C1161 C 0.69227 0.83323 0.38117 0.0
C1162 C 0.70271 0.81716 0.4071 0.0
C1163 C 0.74016 0.82374 0.40301 0.0
C1164 C 0.75335 0.83436 0.38783 0.0
H1165 H 0.87333 0.75515 0.46603 0.0
H1166 H 0.86213 0.78773 0.44406 0.0
C1167 C 0.72967 0.83934 0.377 0.0
C1168 C 0.76433 0.8178 0.41464 0.0
H1169 H 0.80073 0.84534 0.45094 0.0
C1170 C 0.77078 0.78582 0.4129 0.0
C1171 C 0.77684 0.84058 0.42824 0.0
C1172 C 0.77239 0.87643 0.43037 0.0
C1173 C 0.78672 0.77416 0.42491 0.0
C1174 C 0.797 0.79553 0.43889 0.0
C1175 C 0.79276 0.82897 0.44024 0.0
C1176 C 0.80719 0.78066 0.45281 0.0
C1177 C 0.78993 0.73752 0.42295 0.0
C1178 C 0.78099 0.7676 0.46527 0.0
C1179 C 0.78739 0.74928 0.4778 0.0
C1180 C 0.82021 0.74373 0.47815 0.0
C1181 C 0.84774 0.75894 0.46608 0.0
C1182 C 0.84122 0.77724 0.45347 0.0
H1183 H 0.77533 0.72119 0.41227 0.0
H1184 H 0.82151 0.74595 0.42242 0.0
H1185 H 0.77645 0.71739 0.4329 0.0
H1186 H 0.75468 0.77017 0.46504 0.0
H1187 H 0.76593 0.73841 0.48702 0.0
H1188 H 0.88729 0.74354 0.53256 0.0
H1189 H 0.94043 0.78062 0.5512 0.0
H1190 H 0.89351 0.67804 0.58045 0.0
H1191 H 0.84087 0.64098 0.56203 0.0
H1192 H 0.93229 0.79467 0.58347 0.0
H1193 H 0.0111 0.71129 0.57533 0.0
H1194 H 0.97641 0.7105 0.56143 0.0
H1195 H 0.95905 0.67997 0.57832 0.0
C1196 C 0.88857 0.72885 0.54291 0.0
C1197 C 0.86 0.68925 0.54578 0.0
C1198 C 0.91881 0.7501 0.55355 0.0
C1199 C 0.92112 0.73188 0.56709 0.0
C1200 C 0.89262 0.69245 0.56995 0.0
H1201 H 0.02715 0.76492 0.65351 0.0
H1202 H 0.9854 0.74951 0.63079 0.0
C1203 C 0.86244 0.67135 0.55941 0.0
C1204 C 0.95257 0.75375 0.57858 0.0
H1205 H 0.02418 0.74793 0.59882 0.0
C1206 C 0.95301 0.7851 0.58664 0.0
C1207 C 0.97962 0.74126 0.58263 0.0
C1208 C 0.98188 0.70916 0.57388 0.0
C1209 C 0.97827 0.80263 0.59927 0.0
C1210 C 0.00353 0.78843 0.60383 0.0
C1211 C 0.0045 0.75853 0.59531 0.0
C1212 C 0.02676 0.80152 0.61818 0.0
C1213 C 0.97659 0.83479 0.60817 0.0
C1214 C 0.06342 0.83645 0.61871 0.0
C1215 C 0.08756 0.84535 0.63171 0.0
C1216 C 0.07536 0.81918 0.64426 0.0
C1217 C 0.03763 0.78539 0.64395 0.0
C1218 C 0.01366 0.77658 0.63101 0.0
H1219 H 0.95529 0.84262 0.60315 0.0
H1220 H 0.96795 0.82513 0.62024 0.0
H1221 H 0.0063 0.86159 0.60842 0.0
H1222 H 0.07402 0.8559 0.60884 0.0
H1223 H 0.11653 0.87151 0.63158 0.0
H1224 H 0.14366 0.89187 0.6991 0.0
H1225 H 0.15361 0.94148 0.7186 0.0
H1226 H 0.20062 0.88964 0.74978 0.0
H1227 H 0.19086 0.84032 0.73057 0.0
H1228 H 0.13847 0.90299 0.76201 0.0
H1229 H 0.26203 0.03539 0.73403 0.0
H1230 H 0.21856 0.00441 0.72288 0.0
H1231 H 0.25011 0.9859 0.72889 0.0
C1232 C 0.15646 0.89133 0.71006 0.0
C1233 C 0.16652 0.86218 0.71327 0.0
C1234 C 0.16211 0.91965 0.72117 0.0
C1235 C 0.17792 0.9192 0.7356 0.0
C1236 C 0.18829 0.89041 0.73872 0.0
H1237 H 0.26091 0.02511 0.82112 0.0
H1238 H 0.22944 0.9821 0.79915 0.0
C1239 C 0.18278 0.8623 0.72769 0.0
C1240 C 0.18336 0.94799 0.74774 0.0
H1241 H 0.24495 0.04297 0.75913 0.0
C1242 C 0.16131 0.93378 0.76131 0.0
C1243 C 0.2129 0.98815 0.74671 0.0
C1244 C 0.23752 0.00463 0.73241 0.0
C1245 C 0.16926 0.95826 0.77415 0.0
C1246 C 0.20057 0.99776 0.77349 0.0
C1247 C 0.22102 0.01263 0.75962 0.0
C1248 C 0.21562 0.02257 0.78747 0.0
C1249 C 0.14468 0.94133 0.78845 0.0
C1250 C 0.21841 0.05975 0.78823 0.0
C1251 C 0.23662 0.0846 0.80083 0.0
C1252 C 0.25286 0.07285 0.81272 0.0
C1253 C 0.24888 0.03512 0.81212 0.0
C1254 C 0.23056 0.01032 0.79961 0.0
H1255 H 0.11479 0.91657 0.78562 0.0
H1256 H 0.15916 0.92957 0.79605 0.0
H1257 H 0.1416 0.96417 0.79487 0.0
H1258 H 0.20731 0.06986 0.77892 0.0
H1259 H 0.23947 0.11361 0.80092 0.0
H1260 H 0.73652 0.7658 0.82825 0.0
H1261 H 0.76597 0.75336 0.85078 0.0
H1262 H 0.77654 0.85692 0.8728 0.0
H1263 H 0.74702 0.86972 0.85021 0.0
H1264 H 0.84183 0.80675 0.86838 0.0
H1265 H 0.70077 0.75594 0.9002 0.0
H1266 H 0.70291 0.75838 0.87949 0.0
H1267 H 0.7229 0.80294 0.89054 0.0
C1268 C 0.74568 0.78632 0.83778 0.0
C1269 C 0.73913 0.81853 0.83753 0.0
C1270 C 0.76262 0.77924 0.85061 0.0
C1271 C 0.77304 0.80403 0.86346 0.0
C1272 C 0.7685 0.8374 0.86298 0.0
H1273 H 0.86412 0.74557 0.9468 0.0
H1274 H 0.85217 0.78592 0.92823 0.0
C1275 C 0.75182 0.84474 0.85005 0.0
C1276 C 0.78534 0.79258 0.87772 0.0
H1277 H 0.74871 0.74526 0.91186 0.0
C1278 C 0.82193 0.79412 0.87806 0.0
C1279 C 0.75902 0.77579 0.89022 0.0
C1280 C 0.71907 0.77286 0.89021 0.0
C1281 C 0.83233 0.77802 0.89041 0.0
C1282 C 0.80532 0.75983 0.90259 0.0
C1283 C 0.76939 0.75959 0.90253 0.0
C1284 C 0.81158 0.73625 0.91435 0.0
C1285 C 0.87112 0.77854 0.89005 0.0
C1286 C 0.79225 0.69515 0.91272 0.0
C1287 C 0.79909 0.67221 0.92317 0.0
C1288 C 0.82517 0.68992 0.93554 0.0
C1289 C 0.84373 0.73111 0.93742 0.0
C1290 C 0.83709 0.75417 0.92682 0.0
H1291 H 0.88886 0.79376 0.87971 0.0
H1292 H 0.88858 0.7937 0.90044 0.0
H1293 H 0.86567 0.74782 0.89023 0.0
H1294 H 0.77241 0.68087 0.90316 0.0
H1295 H 0.78422 0.64056 0.92144 0.0
H1296 H 0.96939 0.72388 0.99418 0.0
H1297 H 0.01098 0.75016 0.01693 0.0
H1298 H 0.92677 0.77725 0.03717 0.0
H1299 H 0.88442 0.75048 0.0144 0.0
H1300 H 0.0176 0.83814 0.03981 0.0
H1301 H 0.96737 0.68474 0.05908 0.0
H1302 H 0.982 0.69502 0.03927 0.0
H1303 H 0.93937 0.69673 0.04582 0.0
C1304 C 0.95977 0.73572 0.00339 0.0
C1305 C 0.92328 0.73449 0.0026 0.0
C1306 C 0.98365 0.75083 0.01635 0.0
C1307 C 0.9716 0.76508 0.02876 0.0
C1308 C 0.93641 0.76621 0.02769 0.0
H1309 H 0.11042 0.85187 0.11475 0.0
H1310 H 0.0576 0.83565 0.09593 0.0
C1311 C 0.91235 0.75101 0.01467 0.0
C1312 C 0.99471 0.77595 0.04315 0.0
H1313 H 0.02388 0.73596 0.07153 0.0
C1314 C 0.01857 0.81592 0.04696 0.0
C1315 C 0.99561 0.74674 0.05242 0.0
C1316 C 0.96951 0.70334 0.04907 0.0
C1317 C 0.04518 0.82753 0.05934 0.0
C1318 C 0.04742 0.79829 0.06814 0.0
C1319 C 0.0221 0.75829 0.06475 0.0
C1320 C 0.07868 0.80834 0.07976 0.0
C1321 C 0.07223 0.8709 0.06241 0.0
C1322 C 0.10742 0.79769 0.07702 0.0
C1323 C 0.13729 0.80668 0.08768 0.0
C1324 C 0.139 0.8264 0.10141 0.0
C1325 C 0.10987 0.83666 0.10428 0.0
C1326 C 0.07988 0.82768 0.09351 0.0
H1327 H 0.07037 0.88975 0.05328 0.0
H1328 H 0.0641 0.87884 0.07351 0.0
H1329 H 0.10328 0.87757 0.06332 0.0
H1330 H 0.10693 0.78264 0.0665 0.0
H1331 H 0.15916 0.79826 0.0851 0.0
H1332 H 0.12755 0.88071 0.18125 0.0
H1333 H 0.13879 0.92532 0.20293 0.0
H1334 H 0.24744 0.01341 0.18208 0.0
H1335 H 0.23626 0.96954 0.16044 0.0
H1336 H 0.20399 0.95443 0.22254 0.0
H1337 H 0.19646 0.07781 0.19501 0.0
H1338 H 0.17625 0.02976 0.18617 0.0
H1339 H 0.22813 0.06503 0.18466 0.0
C1340 C 0.15335 0.90994 0.18114 0.0
C1341 C 0.18111 0.92158 0.16917 0.0
C1342 C 0.15979 0.9353 0.19355 0.0
C1343 C 0.19372 0.97284 0.19403 0.0
C1344 C 0.22068 0.9849 0.18182 0.0
H1345 H 0.35152 0.15899 0.24902 0.0
H1346 H 0.31127 0.10855 0.23029 0.0
C1347 C 0.21441 0.95962 0.16951 0.0
C1348 C 0.20333 0.99833 0.2078 0.0
H1349 H 0.23477 0.09347 0.21843 0.0
C1350 C 0.20978 0.98455 0.22179 0.0
C1351 C 0.21071 0.03753 0.2068 0.0
C1352 C 0.20212 0.05328 0.19238 0.0
C1353 C 0.22626 0.00989 0.23446 0.0
C1354 C 0.23614 0.04979 0.23307 0.0
C1355 C 0.22738 0.06287 0.21941 0.0
C1356 C 0.2598 0.07951 0.24489 0.0
C1357 C 0.2354 0.99461 0.24888 0.0
C1358 C 0.24417 0.07977 0.25938 0.0
C1359 C 0.26725 0.10875 0.27021 0.0
C1360 C 0.30623 0.13783 0.26666 0.0
C1361 C 0.32167 0.13708 0.25217 0.0
C1362 C 0.29867 0.10832 0.2414 0.0
H1363 H 0.2295 0.96387 0.24754 0.0
H1364 H 0.26682 0.01386 0.25213 0.0
H1365 H 0.21701 0.99523 0.25846 0.0
H1366 H 0.21408 0.05791 0.26222 0.0
H1367 H 0.25446 0.10867 0.28125 0.0
H1368 H 0.19666 0.35571 0.41766 0.0
H1369 H 0.21201 0.31878 0.39909 0.0
H1370 H 0.15672 0.21596 0.42823 0.0
H1371 H 0.14083 0.2529 0.44702 0.0
H1372 H 0.25735 0.2806 0.40442 0.0
H1373 H 0.10362 0.17665 0.38517 0.0
H1374 H 0.11645 0.22189 0.39522 0.0
H1375 H 0.11372 0.18084 0.40547 0.0
C1376 C 0.18769 0.32525 0.42019 0.0
C1377 C 0.16744 0.30722 0.43382 0.0
C1378 C 0.19653 0.30419 0.40954 0.0
C1379 C 0.18516 0.26458 0.41222 0.0
C1380 C 0.16528 0.2464 0.42587 0.0
H1381 H 0.24444 0.12899 0.34686 0.0
H1382 H 0.21697 0.14382 0.36962 0.0
C1383 C 0.15647 0.26759 0.43662 0.0
C1384 C 0.19501 0.24316 0.40061 0.0
H1385 H 0.15507 0.17472 0.37187 0.0
C1386 C 0.23498 0.25701 0.39746 0.0
C1387 C 0.16571 0.2124 0.39158 0.0
C1388 C 0.1224 0.19701 0.39439 0.0
C1389 C 0.24648 0.24196 0.38515 0.0
C1390 C 0.21728 0.2126 0.37566 0.0
C1391 C 0.17728 0.19729 0.37921 0.0
C1392 C 0.2283 0.20059 0.36125 0.0
C1393 C 0.28986 0.25847 0.38201 0.0
C1394 C 0.24234 0.22701 0.34888 0.0
C1395 C 0.25785 0.21867 0.33593 0.0
C1396 C 0.25972 0.18374 0.33512 0.0
C1397 C 0.24339 0.15613 0.34714 0.0
C1398 C 0.2278 0.16456 0.36016 0.0
H1399 H 0.30833 0.27483 0.39206 0.0
H1400 H 0.29596 0.23447 0.37894 0.0
H1401 H 0.29878 0.27914 0.37214 0.0
H1402 H 0.24261 0.25482 0.34949 0.0
H1403 H 0.26956 0.24024 0.32676 0.0
H1404 H 0.88163 0.13289 0.61255 0.0
H1405 H 0.93281 0.14428 0.59354 0.0
H1406 H 0.90939 0.227 0.56971 0.0
H1407 H 0.85823 0.21564 0.58842 0.0
H1408 H 0.91146 0.14013 0.55594 0.0
H1409 H 0.03857 0.27537 0.58052 0.0
H1410 H 0.00046 0.23772 0.59243 0.0
H1411 H 0.99034 0.27061 0.58158 0.0
C1412 C 0.88779 0.15387 0.60336 0.0
C1413 C 0.86592 0.17336 0.60195 0.0
C1414 C 0.91685 0.16018 0.59251 0.0
C1415 C 0.92469 0.18645 0.58029 0.0
C1416 C 0.90367 0.20666 0.57911 0.0
H1417 H 0.02446 0.25928 0.49314 0.0
H1418 H 0.98274 0.22929 0.51564 0.0
C1419 C 0.87447 0.2001 0.5898 0.0
C1420 C 0.95354 0.19198 0.56822 0.0
H1421 H 0.04455 0.25945 0.55474 0.0
C1422 C 0.94088 0.16574 0.55577 0.0
C1423 C 0.99178 0.22535 0.56813 0.0
C1424 C 0.00646 0.25395 0.58139 0.0
C1425 C 0.96494 0.17321 0.5428 0.0
C1426 C 0.00234 0.20787 0.54231 0.0
C1427 C 0.01583 0.23289 0.55515 0.0
C1428 C 0.02602 0.22104 0.52803 0.0
C1429 C 0.94976 0.14463 0.52953 0.0
C1430 C 0.0641 0.22601 0.52748 0.0
C1431 C 0.088 0.24298 0.51455 0.0
C1432 C 0.0744 0.25592 0.50213 0.0
C1433 C 0.03577 0.24967 0.50254 0.0
C1434 C 0.01182 0.23234 0.51535 0.0
H1435 H 0.92622 0.1149 0.53324 0.0
H1436 H 0.9371 0.15565 0.52074 0.0
H1437 H 0.97399 0.14193 0.5241 0.0
H1438 H 0.07566 0.21774 0.53721 0.0
H1439 H 0.11775 0.24773 0.51461 0.0
H1440 H 0.77802 0.02519 0.65653 0.0
H1441 H 0.75973 0.98012 0.67843 0.0
H1442 H 0.831 0.07861 0.70826 0.0
H1443 H 0.85138 0.12332 0.68617 0.0
H1444 H 0.83385 0.01721 0.71793 0.0
H1445 H 0.67727 0.97075 0.70723 0.0
H1446 H 0.69836 0.95905 0.69123 0.0
H1447 H 0.71678 0.0099 0.6965 0.0
C1448 C 0.79047 0.03696 0.66772 0.0
C1449 C 0.81597 0.07762 0.66972 0.0
C1450 C 0.77964 0.01133 0.68026 0.0
C1451 C 0.79277 0.02612 0.69511 0.0
C1452 C 0.82016 0.06648 0.69695 0.0
H1453 H 0.65268 0.89108 0.77337 0.0
H1454 H 0.68807 0.94257 0.75409 0.0
C1455 C 0.83191 0.09201 0.68432 0.0
C1456 C 0.77632 2e-05 0.70878 0.0
H1457 H 0.68958 0.93357 0.72572 0.0
C1458 C 0.80229 -0.0009 0.7197 0.0
C1459 C 0.73513 0.97716 0.71136 0.0
C1460 C 0.70534 0.97958 0.70105 0.0
C1461 C 0.78823 0.97546 0.73295 0.0
C1462 C 0.74701 0.95078 0.73502 0.0
C1463 C 0.72116 0.95215 0.72416 0.0
C1464 C 0.72956 0.92313 0.74823 0.0
C1465 C 0.81778 0.97817 0.74472 0.0
C1466 C 0.74154 0.89555 0.75171 0.0
C1467 C 0.72213 0.86706 0.76312 0.0
C1468 C 0.68971 0.86496 0.77085 0.0
C1469 C 0.6779 0.89256 0.76757 0.0
C1470 C 0.69799 0.92176 0.75651 0.0
H1471 H 0.84527 0.00735 0.74426 0.0
H1472 H 0.80563 0.97352 0.75654 0.0
H1473 H 0.82591 0.95532 0.74224 0.0
H1474 H 0.76477 0.89491 0.74521 0.0
H1475 H 0.73108 0.84538 0.76532 0.0
loop_
_geom_bond_atom_site_label_1
_geom_bond_atom_site_label_2
_geom_bond_distance
_geom_bond_site_symmetry_2
_ccdc_geom_bond_type
C0 C1 1.351 . S
C0 N3 1.368 . S
C0 H5 0.931 . S
C1 C0 1.351 . S
C1 N2 1.373 . S
C1 H29 0.930 . S
N2 C1 1.373 . S
N2 C4 1.340 . S
N3 C0 1.368 . S
N3 C4 1.321 . S
N3 Co6 2.135 . S
C4 N2 1.340 . S
C4 N3 1.321 . S
C4 H28 0.930 . S
H5 C0 0.931 . S
Co6 N3 2.135 . S
Co6 N9 2.121 1_554 S
Co6 O14 2.055 . S
Co6 O17 2.039 1_554 S
Co6 N20 2.140 . S
C7 O8 1.227 . S
C7 O17 1.265 . S
O8 C7 1.227 . S
N9 Co6 2.121 1_556 S
N9 C11 1.375 . S
N9 C12 1.313 . S
C10 C11 1.338 . S
C10 N13 1.377 . S
C10 H30 0.930 . S
C11 N9 1.375 . S
C11 C10 1.338 . S
C11 H15 0.931 . S
C12 N9 1.313 . S
C12 N13 1.344 . S
C12 H16 0.930 1_556 S
N13 C10 1.377 . S
N13 C12 1.344 . S
O14 Co6 2.055 . S
O14 C18 1.253 . S
H15 C11 0.931 . S
H16 C12 0.930 1_554 S
O17 Co6 2.039 1_556 S
O17 C7 1.265 . S
C18 O14 1.253 . S
C18 O19 1.227 . S
O19 C18 1.227 . S
N20 Co6 2.140 . S
N20 C23 1.346 . S
N20 C24 1.345 . S
C21 C22 1.387 . S
C21 C25 1.391 . S
C22 C21 1.387 . S
C22 C23 1.369 . S
C22 H31 0.929 . S
C23 N20 1.346 . S
C23 C22 1.369 . S
C23 H26 0.928 . S
C24 N20 1.345 . S
C24 C25 1.371 . S
C24 H27 0.931 . S
C25 C21 1.391 . S
C25 C24 1.371 . S
C25 H32 0.930 . S
H26 C23 0.928 . S
H27 C24 0.931 . S
H28 C4 0.930 . S
H29 C1 0.930 . S
H30 C10 0.930 . S
H31 C22 0.929 . S
H32 C25 0.930 . S
C33 C34 1.351 1_655 S
C33 N36 1.368 . S
C33 H38 0.931 . S
C34 C33 1.351 1_455 S
C34 N35 1.373 . S
C34 H62 0.930 . S
N35 C34 1.373 . S
N35 C37 1.340 . S
N36 C33 1.368 . S
N36 C37 1.321 1_655 S
N36 Co39 2.135 . S
C37 N35 1.340 . S
C37 N36 1.321 1_455 S
C37 H61 0.930 . S
H38 C33 0.931 . S
Co39 N36 2.135 . S
Co39 N42 2.121 . S
Co39 O47 2.055 . S
Co39 O50 2.039 . S
Co39 N53 2.140 . S
C40 O41 1.227 . S
C40 O50 1.265 . S
O41 C40 1.227 . S
N42 Co39 2.121 . S
N42 C44 1.375 . S
N42 C45 1.313 . S
C43 C44 1.338 . S
C43 N46 1.377 . S
C43 H63 0.930 . S
C44 N42 1.375 . S
C44 C43 1.338 . S
C44 H48 0.931 . S
C45 N42 1.313 . S
C45 N46 1.344 . S
C45 H49 0.930 . S
N46 C43 1.377 . S
N46 C45 1.344 . S
O47 Co39 2.055 . S
O47 C51 1.253 . S
H48 C44 0.931 . S
H49 C45 0.930 . S
O50 Co39 2.039 . S
O50 C40 1.265 . S
C51 O47 1.253 . S
C51 O52 1.227 . S
O52 C51 1.227 . S
N53 Co39 2.140 . S
N53 C56 1.346 . S
N53 C57 1.345 . S
C54 C55 1.387 . S
C54 C58 1.391 . S
C55 C54 1.387 . S
C55 C56 1.369 . S
C55 H64 0.929 1_655 S
C56 N53 1.346 . S
C56 C55 1.369 . S
C56 H59 0.928 . S
C57 N53 1.345 . S
C57 C58 1.371 . S
C57 H60 0.931 . S
C58 C54 1.391 . S
C58 C57 1.371 . S
C58 H65 0.930 . S
H59 C56 0.928 . S
H60 C57 0.931 . S
H61 C37 0.930 . S
H62 C34 0.930 . S
H63 C43 0.930 . S
H64 C55 0.929 1_455 S
H65 C58 0.930 . S
C66 C67 1.351 1_565 S
C66 N69 1.368 . S
C66 H71 0.931 . S
C67 C66 1.351 1_545 S
C67 N68 1.373 . S
C67 H95 0.930 . S
N68 C67 1.373 . S
N68 C70 1.340 . S
N69 C66 1.368 . S
N69 C70 1.321 1_565 S
N69 Co72 2.135 . S
C70 N68 1.340 . S
C70 N69 1.321 1_545 S
C70 H94 0.930 . S
H71 C66 0.931 . S
Co72 N69 2.135 . S
Co72 N75 2.121 . S
Co72 O80 2.055 . S
Co72 O83 2.039 . S
Co72 N86 2.140 . S
C73 O74 1.227 . S
C73 O83 1.265 . S
O74 C73 1.227 . S
N75 Co72 2.121 . S
N75 C77 1.375 . S
N75 C78 1.313 . S
C76 C77 1.338 . S
C76 N79 1.377 . S
C76 H96 0.930 . S
C77 N75 1.375 . S
C77 C76 1.338 . S
C77 H81 0.931 . S
C78 N75 1.313 . S
C78 N79 1.344 . S
C78 H82 0.930 . S
N79 C76 1.377 . S
N79 C78 1.344 . S
O80 Co72 2.055 . S
O80 C84 1.253 . S
H81 C77 0.931 . S
H82 C78 0.930 . S
O83 Co72 2.039 . S
O83 C73 1.265 . S
C84 O80 1.253 . S
C84 O85 1.227 . S
O85 C84 1.227 . S
N86 Co72 2.140 . S
N86 C89 1.346 . S
N86 C90 1.345 . S
C87 C88 1.387 . S
C87 C91 1.391 . S
C88 C87 1.387 . S
C88 C89 1.369 . S
C88 H97 0.929 1_565 S
C89 N86 1.346 . S
C89 C88 1.369 . S
C89 H92 0.928 . S
C90 N86 1.345 . S
C90 C91 1.371 . S
C90 H93 0.931 . S
C91 C87 1.391 . S
C91 C90 1.371 . S
C91 H98 0.930 . S
H92 C89 0.928 . S
H93 C90 0.931 . S
H94 C70 0.930 . S
H95 C67 0.930 . S
H96 C76 0.930 . S
H97 C88 0.929 1_545 S
H98 C91 0.930 . S
C99 C100 1.351 . S
C99 N102 1.368 . S
C99 H104 0.931 . S
C100 C99 1.351 . S
C100 N101 1.373 . S
C100 H128 0.930 . S
N101 C100 1.373 . S
N101 C103 1.340 . S
N102 C99 1.368 . S
N102 C103 1.321 . S
N102 Co105 2.135 . S
C103 N101 1.340 . S
C103 N102 1.321 . S
C103 H127 0.930 . S
H104 C99 0.931 . S
Co105 N102 2.135 . S
Co105 N108 2.121 . S
Co105 O113 2.055 . S
Co105 O116 2.039 . S
Co105 N119 2.140 . S
C106 O107 1.227 . S
C106 O116 1.265 . S
O107 C106 1.227 . S
N108 Co105 2.121 . S
N108 C110 1.375 . S
N108 C111 1.313 . S
C109 C110 1.338 . S
C109 N112 1.377 . S
C109 H129 0.930 . S
C110 N108 1.375 . S
C110 C109 1.338 . S
C110 H114 0.931 . S
C111 N108 1.313 . S
C111 N112 1.344 . S
C111 H115 0.930 . S
N112 C109 1.377 . S
N112 C111 1.344 . S
O113 Co105 2.055 . S
O113 C117 1.253 . S
H114 C110 0.931 . S
H115 C111 0.930 . S
O116 Co105 2.039 . S
O116 C106 1.265 . S
C117 O113 1.253 . S
C117 O118 1.227 . S
O118 C117 1.227 . S
N119 Co105 2.140 . S
N119 C122 1.346 . S
N119 C123 1.345 . S
C120 C121 1.387 . S
C120 C124 1.391 . S
C121 C120 1.387 . S
C121 C122 1.369 . S
C121 H130 0.929 . S
C122 N119 1.346 . S
C122 C121 1.369 . S
C122 H125 0.928 . S
C123 N119 1.345 . S
C123 C124 1.371 . S
C123 H126 0.931 . S
C124 C120 1.391 . S
C124 C123 1.371 . S
C124 H131 0.930 . S
H125 C122 0.928 . S
H126 C123 0.931 . S
H127 C103 0.930 . S
H128 C100 0.930 . S
H129 C109 0.930 . S
H130 C121 0.929 . S
H131 C124 0.930 . S
C132 C133 1.351 1_455 S
C132 N135 1.368 . S
C132 H137 0.931 . S
C133 C132 1.351 1_655 S
C133 N134 1.373 . S
C133 H161 0.930 . S
N134 C133 1.373 . S
N134 C136 1.340 . S
N135 C132 1.368 . S
N135 C136 1.321 1_455 S
N135 Co138 2.135 . S
C136 N134 1.340 . S
C136 N135 1.321 1_655 S
C136 H160 0.930 . S
H137 C132 0.931 . S
Co138 N135 2.135 . S
Co138 N141 2.121 . S
Co138 O146 2.055 . S
Co138 O149 2.039 . S
Co138 N152 2.140 . S
C139 O140 1.227 . S
C139 O149 1.265 . S
O140 C139 1.227 . S
N141 Co138 2.121 . S
N141 C143 1.375 . S
N141 C144 1.313 . S
C142 C143 1.338 . S
C142 N145 1.377 . S
C142 H162 0.930 . S
C143 N141 1.375 . S
C143 C142 1.338 . S
C143 H147 0.931 . S
C144 N141 1.313 . S
C144 N145 1.344 . S
C144 H148 0.930 . S
N145 C142 1.377 . S
N145 C144 1.344 . S
O146 Co138 2.055 . S
O146 C150 1.253 . S
H147 C143 0.931 . S
H148 C144 0.930 . S
O149 Co138 2.039 . S
O149 C139 1.265 . S
C150 O146 1.253 . S
C150 O151 1.227 . S
O151 C150 1.227 . S
N152 Co138 2.140 . S
N152 C155 1.346 . S
N152 C156 1.345 . S
C153 C154 1.387 . S
C153 C157 1.391 . S
C154 C153 1.387 . S
C154 C155 1.369 . S
C154 H163 0.929 1_455 S
C155 N152 1.346 . S
C155 C154 1.369 . S
C155 H158 0.928 . S
C156 N152 1.345 . S
C156 C157 1.371 . S
C156 H159 0.931 . S
C157 C153 1.391 . S
C157 C156 1.371 . S
C157 H164 0.930 . S
H158 C155 0.928 . S
H159 C156 0.931 . S
H160 C136 0.930 . S
H161 C133 0.930 . S
H162 C142 0.930 . S
H163 C154 0.929 1_655 S
H164 C157 0.930 . S
C165 C166 1.351 1_545 S
C165 N168 1.368 . S
C165 H170 0.931 . S
C166 C165 1.351 1_565 S
C166 N167 1.373 . S
C166 H194 0.930 . S
N167 C166 1.373 . S
N167 C169 1.340 . S
N168 C165 1.368 . S
N168 C169 1.321 1_545 S
N168 Co171 2.135 . S
C169 N167 1.340 . S
C169 N168 1.321 1_565 S
C169 H193 0.930 . S
H170 C165 0.931 . S
Co171 N168 2.135 . S
Co171 N174 2.121 . S
Co171 O179 2.055 . S
Co171 O182 2.039 . S
Co171 N185 2.140 . S
C172 O173 1.227 . S
C172 O182 1.265 . S
O173 C172 1.227 . S
N174 Co171 2.121 . S
N174 C176 1.375 . S
N174 C177 1.313 . S
C175 C176 1.338 . S
C175 N178 1.377 . S
C175 H195 0.930 . S
C176 N174 1.375 . S
C176 C175 1.338 . S
C176 H180 0.931 . S
C177 N174 1.313 . S
C177 N178 1.344 . S
C177 H181 0.930 . S
N178 C175 1.377 . S
N178 C177 1.344 . S
O179 Co171 2.055 . S
O179 C183 1.253 . S
H180 C176 0.931 . S
H181 C177 0.930 . S
O182 Co171 2.039 . S
O182 C172 1.265 . S
C183 O179 1.253 . S
C183 O184 1.227 . S
O184 C183 1.227 . S
N185 Co171 2.140 . S
N185 C188 1.346 . S
N185 C189 1.345 . S
C186 C187 1.387 . S
C186 C190 1.391 . S
C187 C186 1.387 . S
C187 C188 1.369 . S
C187 H196 0.929 1_545 S
C188 N185 1.346 . S
C188 C187 1.369 . S
C188 H191 0.928 . S
C189 N185 1.345 . S
C189 C190 1.371 . S
C189 H192 0.931 . S
C190 C186 1.391 . S
C190 C189 1.371 . S
C190 H197 0.930 . S
H191 C188 0.928 . S
H192 C189 0.931 . S
H193 C169 0.930 . S
H194 C166 0.930 . S
H195 C175 0.930 . S
H196 C187 0.929 1_565 S
H197 C190 0.930 . S
C198 C199 1.351 . S
C198 N201 1.368 . S
C198 H203 0.931 . S
C199 C198 1.351 . S
C199 N200 1.373 . S
C199 H227 0.930 . S
N200 C199 1.373 . S
N200 C202 1.340 . S
N201 C198 1.368 . S
N201 C202 1.321 . S
N201 Co204 2.135 . S
C202 N200 1.340 . S
C202 N201 1.321 . S
C202 H226 0.930 . S
H203 C198 0.931 . S
Co204 N201 2.135 . S
Co204 N207 2.121 . S
Co204 O212 2.055 . S
Co204 O215 2.039 . S
Co204 N218 2.140 . S
C205 O206 1.227 . S
C205 O215 1.265 . S
O206 C205 1.227 . S
N207 Co204 2.121 . S
N207 C209 1.375 . S
N207 C210 1.313 . S
C208 C209 1.338 . S
C208 N211 1.377 . S
C208 H228 0.930 . S
C209 N207 1.375 . S
C209 C208 1.338 . S
C209 H213 0.931 . S
C210 N207 1.313 . S
C210 N211 1.344 . S
C210 H214 0.930 . S
N211 C208 1.377 . S
N211 C210 1.344 . S
O212 Co204 2.055 . S
O212 C216 1.253 . S
H213 C209 0.931 . S
H214 C210 0.930 . S
O215 Co204 2.039 . S
O215 C205 1.265 . S
C216 O212 1.253 . S
C216 O217 1.227 . S
O217 C216 1.227 . S
N218 Co204 2.140 . S
N218 C221 1.346 . S
N218 C222 1.345 . S
C219 C220 1.387 . S
C219 C223 1.391 . S
C220 C219 1.387 . S
C220 C221 1.369 . S
C220 H229 0.929 . S
C221 N218 1.346 . S
C221 C220 1.369 . S
C221 H224 0.928 . S
C222 N218 1.345 . S
C222 C223 1.371 . S
C222 H225 0.931 . S
C223 C219 1.391 . S
C223 C222 1.371 . S
C223 H230 0.930 . S
H224 C221 0.928 . S
H225 C222 0.931 . S
H226 C202 0.930 . S
H227 C199 0.930 . S
H228 C208 0.930 . S
H229 C220 0.929 . S
H230 C223 0.930 . S
C231 C232 1.351 1_655 S
C231 N234 1.368 . S
C231 H236 0.931 . S
C232 C231 1.351 1_455 S
C232 N233 1.373 . S
C232 H260 0.930 . S
N233 C232 1.373 . S
N233 C235 1.340 . S
N234 C231 1.368 . S
N234 C235 1.321 1_655 S
N234 Co237 2.135 . S
C235 N233 1.340 . S
C235 N234 1.321 1_455 S
C235 H259 0.930 . S
H236 C231 0.931 . S
Co237 N234 2.135 . S
Co237 N240 2.121 . S
Co237 O245 2.055 . S
Co237 O248 2.039 . S
Co237 N251 2.140 . S
C238 O239 1.235 . S
C238 O248 1.305 . S
O239 C238 1.235 . S
N240 Co237 2.121 . S
N240 C242 1.305 1_556 S
N240 C243 1.313 . S
C241 C242 1.364 . S
C241 N244 1.377 1_554 S
C241 H261 0.930 . S
C242 N240 1.305 1_554 S
C242 C241 1.364 . S
C242 H246 0.974 . S
C243 N240 1.313 . S
C243 N244 1.344 . S
C243 H247 0.930 . S
N244 C241 1.377 1_556 S
N244 C243 1.344 . S
O245 Co237 2.055 . S
O245 C249 1.253 . S
H246 C242 0.974 . S
H247 C243 0.930 . S
O248 Co237 2.039 . S
O248 C238 1.305 . S
C249 O245 1.253 . S
C249 O250 1.227 . S
O250 C249 1.227 . S
N251 Co237 2.140 . S
N251 C254 1.346 . S
N251 C255 1.345 . S
C252 C253 1.387 . S
C252 C256 1.391 . S
C253 C252 1.387 . S
C253 C254 1.369 . S
C253 H262 0.929 1_655 S
C254 N251 1.346 . S
C254 C253 1.369 . S
C254 H257 0.928 . S
C255 N251 1.345 . S
C255 C256 1.371 . S
C255 H258 0.931 . S
C256 C252 1.391 . S
C256 C255 1.371 . S
C256 H263 0.930 . S
H257 C254 0.928 . S
H258 C255 0.931 . S
H259 C235 0.930 . S
H260 C232 0.930 . S
H261 C241 0.930 . S
H262 C253 0.929 1_455 S
H263 C256 0.930 . S
C264 C265 1.351 1_565 S
C264 N267 1.368 . S
C264 H269 0.931 . S
C265 C264 1.351 1_545 S
C265 N266 1.373 . S
C265 H293 0.930 . S
N266 C265 1.373 . S
N266 C268 1.340 . S
N267 C264 1.368 . S
N267 C268 1.321 1_565 S
N267 Co270 2.135 . S
C268 N266 1.340 . S
C268 N267 1.321 1_545 S
C268 H292 0.930 . S
H269 C264 0.931 . S
Co270 N267 2.135 . S
Co270 N273 2.121 . S
Co270 O278 2.055 . S
Co270 O281 2.039 . S
Co270 N284 2.140 . S
C271 O272 1.227 . S
C271 O281 1.265 . S
O272 C271 1.227 . S
N273 Co270 2.121 . S
N273 C275 1.375 . S
N273 C276 1.313 . S
C274 C275 1.338 . S
C274 N277 1.377 . S
C274 H294 0.930 . S
C275 N273 1.375 . S
C275 C274 1.338 . S
C275 H279 0.931 . S
C276 N273 1.313 . S
C276 N277 1.344 . S
C276 H280 0.930 . S
N277 C274 1.377 . S
N277 C276 1.344 . S
O278 Co270 2.055 . S
O278 C282 1.253 . S
H279 C275 0.931 . S
H280 C276 0.930 . S
O281 Co270 2.039 . S
O281 C271 1.265 . S
C282 O278 1.253 . S
C282 O283 1.227 . S
O283 C282 1.227 . S
N284 Co270 2.140 . S
N284 C287 1.346 . S
N284 C288 1.345 . S
C285 C286 1.387 . S
C285 C289 1.391 . S
C286 C285 1.387 . S
C286 C287 1.369 . S
C286 H295 0.929 1_565 S
C287 N284 1.346 . S
C287 C286 1.369 . S
C287 H290 0.928 . S
C288 N284 1.345 . S
C288 C289 1.371 . S
C288 H291 0.931 . S
C289 C285 1.391 . S
C289 C288 1.371 . S
C289 H296 0.930 . S
H290 C287 0.928 . S
H291 C288 0.931 . S
H292 C268 0.930 . S
H293 C265 0.930 . S
H294 C274 0.930 . S
H295 C286 0.929 1_545 S
H296 C289 0.930 . S
C297 C298 1.351 . S
C297 N300 1.368 . S
C297 H302 0.931 . S
C298 C297 1.351 . S
C298 N299 1.373 . S
C298 H326 0.930 . S
N299 C298 1.373 . S
N299 C301 1.340 . S
N300 C297 1.368 . S
N300 C301 1.321 . S
N300 Co303 2.135 . S
C301 N299 1.340 . S
C301 N300 1.321 . S
C301 H325 0.930 . S
H302 C297 0.931 . S
Co303 N300 2.135 . S
Co303 N306 2.121 . S
Co303 O311 2.055 . S
Co303 O314 2.039 . S
Co303 N317 2.140 . S
C304 O305 1.227 . S
C304 O314 1.265 . S
O305 C304 1.227 . S
N306 Co303 2.121 . S
N306 C308 1.375 . S
N306 C309 1.313 . S
C307 C308 1.338 . S
C307 N310 1.377 . S
C307 H327 0.930 . S
C308 N306 1.375 . S
C308 C307 1.338 . S
C308 H312 0.931 . S
C309 N306 1.313 . S
C309 N310 1.344 . S
C309 H313 0.930 . S
N310 C307 1.377 . S
N310 C309 1.344 . S
O311 Co303 2.055 . S
O311 C315 1.253 . S
H312 C308 0.931 . S
H313 C309 0.930 . S
O314 Co303 2.039 . S
O314 C304 1.265 . S
C315 O311 1.253 . S
C315 O316 1.227 . S
O316 C315 1.227 . S
N317 Co303 2.140 . S
N317 C320 1.346 . S
N317 C321 1.345 . S
C318 C319 1.387 . S
C318 C322 1.391 . S
C319 C318 1.387 . S
C319 C320 1.369 . S
C319 H328 0.929 . S
C320 N317 1.346 . S
C320 C319 1.369 . S
C320 H323 0.928 . S
C321 N317 1.345 . S
C321 C322 1.371 . S
C321 H324 0.931 . S
C322 C318 1.391 . S
C322 C321 1.371 . S
C322 H329 0.930 . S
H323 C320 0.928 . S
H324 C321 0.931 . S
H325 C301 0.930 . S
H326 C298 0.930 . S
H327 C307 0.930 . S
H328 C319 0.929 . S
H329 C322 0.930 . S
C330 C331 1.351 1_455 S
C330 N333 1.368 . S
C330 H335 0.931 . S
C331 C330 1.351 1_655 S
C331 N332 1.373 . S
C331 H359 0.930 . S
N332 C331 1.373 . S
N332 C334 1.340 . S
N333 C330 1.368 . S
N333 C334 1.321 1_455 S
N333 Co336 2.135 . S
C334 N332 1.340 . S
C334 N333 1.321 1_655 S
C334 H358 0.930 . S
H335 C330 0.931 . S
Co336 N333 2.135 . S
Co336 N339 2.121 . S
Co336 O344 2.055 . S
Co336 O347 2.039 . S
Co336 N350 2.140 . S
C337 O338 1.227 . S
C337 O347 1.265 . S
O338 C337 1.227 . S
N339 Co336 2.121 . S
N339 C341 1.375 . S
N339 C342 1.313 . S
C340 C341 1.338 . S
C340 N343 1.377 . S
C340 H360 0.930 . S
C341 N339 1.375 . S
C341 C340 1.338 . S
C341 H345 0.931 . S
C342 N339 1.313 . S
C342 N343 1.344 . S
C342 H346 0.930 . S
N343 C340 1.377 . S
N343 C342 1.344 . S
O344 Co336 2.055 . S
O344 C348 1.253 . S
H345 C341 0.931 . S
H346 C342 0.930 . S
O347 Co336 2.039 . S
O347 C337 1.265 . S
C348 O344 1.253 . S
C348 O349 1.227 . S
O349 C348 1.227 . S
N350 Co336 2.140 . S
N350 C353 1.346 . S
N350 C354 1.345 . S
C351 C352 1.387 . S
C351 C355 1.391 . S
C352 C351 1.387 . S
C352 C353 1.369 . S
C352 H361 0.929 1_455 S
C353 N350 1.346 . S
C353 C352 1.369 . S
C353 H356 0.928 . S
C354 N350 1.345 . S
C354 C355 1.371 . S
C354 H357 0.931 . S
C355 C351 1.391 . S
C355 C354 1.371 . S
C355 H362 0.930 . S
H356 C353 0.928 . S
H357 C354 0.931 . S
H358 C334 0.930 . S
H359 C331 0.930 . S
H360 C340 0.930 . S
H361 C352 0.929 1_655 S
H362 C355 0.930 . S
C363 C364 1.351 1_545 S
C363 N366 1.368 . S
C363 H368 0.931 . S
C364 C363 1.351 1_565 S
C364 N365 1.373 . S
C364 H392 0.930 . S
N365 C364 1.373 . S
N365 C367 1.340 . S
N366 C363 1.368 . S
N366 C367 1.321 1_545 S
N366 Co369 2.135 . S
C367 N365 1.340 . S
C367 N366 1.321 1_565 S
C367 H391 0.930 . S
H368 C363 0.931 . S
Co369 N366 2.135 . S
Co369 N372 2.121 . S
Co369 O377 2.055 . S
Co369 O380 2.039 . S
Co369 N383 2.140 . S
C370 O371 1.227 . S
C370 O380 1.265 . S
O371 C370 1.227 . S
N372 Co369 2.121 . S
N372 C374 1.375 . S
N372 C375 1.313 . S
C373 C374 1.338 . S
C373 N376 1.377 . S
C373 H393 0.930 . S
C374 N372 1.375 . S
C374 C373 1.338 . S
C374 H378 0.931 . S
C375 N372 1.313 . S
C375 N376 1.344 . S
C375 H379 0.930 . S
N376 C373 1.377 . S
N376 C375 1.344 . S
O377 Co369 2.055 . S
O377 C381 1.253 . S
H378 C374 0.931 . S
H379 C375 0.930 . S
O380 Co369 2.039 . S
O380 C370 1.265 . S
C381 O377 1.253 . S
C381 O382 1.227 . S
O382 C381 1.227 . S
N383 Co369 2.140 . S
N383 C386 1.346 . S
N383 C387 1.345 . S
C384 C385 1.387 . S
C384 C388 1.391 . S
C385 C384 1.387 . S
C385 C386 1.369 . S
C385 H394 0.929 1_545 S
C386 N383 1.346 . S
C386 C385 1.369 . S
C386 H389 0.928 . S
C387 N383 1.345 . S
C387 C388 1.371 . S
C387 H390 0.931 . S
C388 C384 1.391 . S
C388 C387 1.371 . S
C388 H395 0.930 . S
H389 C386 0.928 . S
H390 C387 0.931 . S
H391 C367 0.930 . S
H392 C364 0.930 . S
H393 C373 0.930 . S
H394 C385 0.929 1_565 S
H395 C388 0.930 . S
H396 C404 0.929 . S
H397 C406 0.930 . S
H398 C408 0.930 . S
H399 C411 0.929 . S
H400 C414 0.930 . S
H401 C416 0.960 . S
H402 C416 0.960 . S
H403 C416 0.960 . S
C404 H396 0.929 . S
C404 C405 1.377 . S
C404 C406 1.384 . S
C405 C404 1.377 . S
C405 C411 1.390 . S
C406 H397 0.930 . S
C406 C404 1.384 . S
C406 C407 1.372 . S
C407 C406 1.372 . S
C407 C408 1.400 . S
C407 C412 1.490 . S
C408 H398 0.930 . S
C408 C407 1.400 . S
C408 C411 1.386 . S
H409 C425 0.930 . S
H410 C426 0.931 . S
C411 H399 0.929 . S
C411 C405 1.390 . S
C411 C408 1.386 . S
C412 C407 1.490 . S
C412 C414 1.395 . S
C412 C415 1.403 . S
H413 C419 0.930 . S
C414 H400 0.930 . S
C414 C412 1.395 . S
C414 C417 1.403 . S
C415 C412 1.403 . S
C415 C416 1.524 . S
C415 C419 1.400 . S
C416 H401 0.960 . S
C416 H402 0.960 . S
C416 H403 0.960 . S
C416 C415 1.524 . S
C417 C414 1.403 . S
C417 C418 1.392 . S
C417 C421 1.495 . S
C418 C417 1.392 . S
C418 C419 1.385 . S
C418 C420 1.478 . S
C419 H413 0.930 . S
C419 C415 1.400 . S
C419 C418 1.385 . S
C420 C418 1.478 . S
C420 C422 1.381 . S
C420 C426 1.383 . S
C421 C417 1.495 . S
C421 H427 0.959 . S
C421 H428 0.961 . S
C421 H429 0.960 . S
C422 C420 1.381 . S
C422 C423 1.394 . S
C422 H430 0.930 . S
C423 C422 1.394 . S
C423 C424 1.383 . S
C423 H431 0.929 . S
C424 C423 1.383 . S
C424 C425 1.377 . S
C425 H409 0.930 . S
C425 C424 1.377 . S
C425 C426 1.379 . S
C426 H410 0.931 . S
C426 C420 1.383 . S
C426 C425 1.379 . S
H427 C421 0.959 . S
H428 C421 0.961 . S
H429 C421 0.960 . S
H430 C422 0.930 . S
H431 C423 0.929 . S
H432 C440 0.929 . S
H433 C442 0.930 . S
H434 C444 0.930 . S
H435 C447 0.929 . S
H436 C450 0.930 . S
H437 C452 0.960 . S
H438 C452 0.960 . S
H439 C452 0.960 . S
C440 H432 0.929 . S
C440 C441 1.377 . S
C440 C442 1.384 . S
C441 C440 1.377 . S
C441 C447 1.390 . S
C442 H433 0.930 . S
C442 C440 1.384 . S
C442 C443 1.372 . S
C443 C442 1.372 . S
C443 C444 1.400 . S
C443 C448 1.490 . S
C444 H434 0.930 . S
C444 C443 1.400 . S
C444 C447 1.386 . S
H445 C461 0.930 . S
H446 C462 0.931 . S
C447 H435 0.929 . S
C447 C441 1.390 . S
C447 C444 1.386 . S
C448 C443 1.490 . S
C448 C450 1.395 . S
C448 C451 1.403 . S
H449 C455 0.930 . S
C450 H436 0.930 . S
C450 C448 1.395 . S
C450 C453 1.403 . S
C451 C448 1.403 . S
C451 C452 1.524 . S
C451 C455 1.400 . S
C452 H437 0.960 . S
C452 H438 0.960 . S
C452 H439 0.960 . S
C452 C451 1.524 . S
C453 C450 1.403 . S
C453 C454 1.392 . S
C453 C457 1.495 . S
C454 C453 1.392 . S
C454 C455 1.385 . S
C454 C456 1.478 . S
C455 H449 0.930 . S
C455 C451 1.400 . S
C455 C454 1.385 . S
C456 C454 1.478 . S
C456 C458 1.381 . S
C456 C462 1.383 . S
C457 C453 1.495 . S
C457 H463 0.959 . S
C457 H464 0.961 . S
C457 H465 0.960 . S
C458 C456 1.381 . S
C458 C459 1.394 . S
C458 H466 0.930 . S
C459 C458 1.394 . S
C459 C460 1.383 . S
C459 H467 0.929 . S
C460 C459 1.383 . S
C460 C461 1.377 . S
C461 H445 0.930 . S
C461 C460 1.377 . S
C461 C462 1.379 . S
C462 H446 0.931 . S
C462 C456 1.383 . S
C462 C461 1.379 . S
H463 C457 0.959 . S
H464 C457 0.961 . S
H465 C457 0.960 . S
H466 C458 0.930 . S
H467 C459 0.929 . S
H468 C476 0.929 1_455 S
H469 C478 0.930 . S
H470 C480 0.930 . S
H471 C483 0.929 . S
H472 C486 0.930 . S
H473 C488 0.960 . S
H474 C488 0.960 . S
H475 C488 0.960 . S
C476 H468 0.929 1_655 S
C476 C477 1.377 . S
C476 C478 1.384 . S
C477 C476 1.377 . S
C477 C483 1.390 . S
C478 H469 0.930 . S
C478 C476 1.384 . S
C478 C479 1.372 . S
C479 C478 1.372 . S
C479 C480 1.400 . S
C479 C484 1.490 . S
C480 H470 0.930 . S
C480 C479 1.400 . S
C480 C483 1.386 . S
H481 C497 0.930 . S
H482 C498 0.931 . S
C483 H471 0.929 . S
C483 C477 1.390 . S
C483 C480 1.386 . S
C484 C479 1.490 . S
C484 C486 1.395 . S
C484 C487 1.403 . S
H485 C491 0.930 . S
C486 H472 0.930 . S
C486 C484 1.395 . S
C486 C489 1.403 . S
C487 C484 1.403 . S
C487 C488 1.524 . S
C487 C491 1.400 . S
C488 H473 0.960 . S
C488 H474 0.960 . S
C488 H475 0.960 . S
C488 C487 1.524 . S
C489 C486 1.403 . S
C489 C490 1.392 . S
C489 C493 1.495 . S
C490 C489 1.392 . S
C490 C491 1.385 . S
C490 C492 1.478 . S
C491 H485 0.930 . S
C491 C487 1.400 . S
C491 C490 1.385 . S
C492 C490 1.478 . S
C492 C494 1.381 . S
C492 C498 1.383 . S
C493 C489 1.495 . S
C493 H499 0.959 . S
C493 H500 0.961 . S
C493 H501 0.960 . S
C494 C492 1.381 . S
C494 C495 1.394 . S
C494 H502 0.930 . S
C495 C494 1.394 . S
C495 C496 1.383 . S
C495 H503 0.929 . S
C496 C495 1.383 . S
C496 C497 1.377 . S
C497 H481 0.930 . S
C497 C496 1.377 . S
C497 C498 1.379 . S
C498 H482 0.931 . S
C498 C492 1.383 . S
C498 C497 1.379 . S
H499 C493 0.959 . S
H500 C493 0.961 . S
H501 C493 0.960 . S
H502 C494 0.930 . S
H503 C495 0.929 . S
H504 C512 0.929 . S
H505 C514 0.930 . S
H506 C516 0.930 . S
H507 C519 0.929 . S
H508 C522 0.930 . S
H509 C524 0.960 . S
H510 C524 0.960 . S
H511 C524 0.960 . S
C512 H504 0.929 . S
C512 C513 1.377 . S
C512 C514 1.384 . S
C513 C512 1.377 . S
C513 C519 1.390 . S
C514 H505 0.930 . S
C514 C512 1.384 . S
C514 C515 1.372 . S
C515 C514 1.372 . S
C515 C516 1.400 . S
C515 C520 1.490 . S
C516 H506 0.930 . S
C516 C515 1.400 . S
C516 C519 1.386 . S
H517 C533 0.930 . S
H518 C534 0.931 . S
C519 H507 0.929 . S
C519 C513 1.390 . S
C519 C516 1.386 . S
C520 C515 1.490 . S
C520 C522 1.395 . S
C520 C523 1.403 . S
H521 C527 0.930 . S
C522 H508 0.930 . S
C522 C520 1.395 . S
C522 C525 1.403 . S
C523 C520 1.403 . S
C523 C524 1.524 . S
C523 C527 1.400 . S
C524 H509 0.960 . S
C524 H510 0.960 . S
C524 H511 0.960 . S
C524 C523 1.524 . S
C525 C522 1.403 . S
C525 C526 1.392 . S
C525 C529 1.495 . S
C526 C525 1.392 . S
C526 C527 1.385 . S
C526 C528 1.478 . S
C527 H521 0.930 . S
C527 C523 1.400 . S
C527 C526 1.385 . S
C528 C526 1.478 . S
C528 C530 1.381 . S
C528 C534 1.383 . S
C529 C525 1.495 . S
C529 H535 0.959 . S
C529 H536 0.961 . S
C529 H537 0.960 . S
C530 C528 1.381 . S
C530 C531 1.394 . S
C530 H538 0.930 . S
C531 C530 1.394 . S
C531 C532 1.383 . S
C531 H539 0.929 . S
C532 C531 1.383 . S
C532 C533 1.377 . S
C533 H517 0.930 . S
C533 C532 1.377 . S
C533 C534 1.379 . S
C534 H518 0.931 . S
C534 C528 1.383 . S
C534 C533 1.379 . S
H535 C529 0.959 . S
H536 C529 0.961 . S
H537 C529 0.960 . S
H538 C530 0.930 . S
H539 C531 0.929 . S
H540 C548 0.929 . S
H541 C550 0.930 . S
H542 C552 0.930 . S
H543 C555 0.929 . S
H544 C558 0.930 . S
H545 C560 0.960 . S
H546 C560 0.960 . S
H547 C560 0.960 . S
C548 H540 0.929 . S
C548 C549 1.377 . S
C548 C550 1.384 . S
C549 C548 1.377 . S
C549 C555 1.390 . S
C550 H541 0.930 . S
C550 C548 1.384 . S
C550 C551 1.372 . S
C551 C550 1.372 . S
C551 C552 1.400 . S
C551 C556 1.490 . S
C552 H542 0.930 . S
C552 C551 1.400 . S
C552 C555 1.386 . S
H553 C569 0.930 . S
H554 C570 0.931 . S
C555 H543 0.929 . S
C555 C549 1.390 . S
C555 C552 1.386 . S
C556 C551 1.490 . S
C556 C558 1.395 . S
C556 C559 1.403 . S
H557 C563 0.930 . S
C558 H544 0.930 . S
C558 C556 1.395 . S
C558 C561 1.403 . S
C559 C556 1.403 . S
C559 C560 1.524 . S
C559 C563 1.400 . S
C560 H545 0.960 . S
C560 H546 0.960 . S
C560 H547 0.960 . S
C560 C559 1.524 . S
C561 C558 1.403 . S
C561 C562 1.392 . S
C561 C565 1.495 . S
C562 C561 1.392 . S
C562 C563 1.385 . S
C562 C564 1.478 . S
C563 H557 0.930 . S
C563 C559 1.400 . S
C563 C562 1.385 . S
C564 C562 1.478 . S
C564 C566 1.381 . S
C564 C570 1.383 . S
C565 C561 1.495 . S
C565 H571 0.959 . S
C565 H572 0.961 . S
C565 H573 0.960 . S
C566 C564 1.381 . S
C566 C567 1.394 . S
C566 H574 0.930 . S
C567 C566 1.394 . S
C567 C568 1.383 . S
C567 H575 0.929 . S
C568 C567 1.383 . S
C568 C569 1.377 . S
C569 H553 0.930 . S
C569 C568 1.377 . S
C569 C570 1.379 . S
C570 H554 0.931 . S
C570 C564 1.383 . S
C570 C569 1.379 . S
H571 C565 0.959 . S
H572 C565 0.961 . S
H573 C565 0.960 . S
H574 C566 0.930 . S
H575 C567 0.929 . S
H576 C584 0.929 1_545 S
H577 C586 0.930 . S
H578 C588 0.930 . S
H579 C591 0.929 . S
H580 C594 0.930 . S
H581 C596 0.960 . S
H582 C596 0.960 . S
H583 C596 0.960 . S
C584 H576 0.929 1_565 S
C584 C585 1.377 . S
C584 C586 1.384 . S
C585 C584 1.377 . S
C585 C591 1.390 . S
C586 H577 0.930 . S
C586 C584 1.384 . S
C586 C587 1.372 . S
C587 C586 1.372 . S
C587 C588 1.400 . S
C587 C592 1.490 . S
C588 H578 0.930 . S
C588 C587 1.400 . S
C588 C591 1.386 . S
H589 C605 0.930 . S
H590 C606 0.931 . S
C591 H579 0.929 . S
C591 C585 1.390 . S
C591 C588 1.386 . S
C592 C587 1.490 . S
C592 C594 1.395 . S
C592 C595 1.403 . S
H593 C599 0.930 . S
C594 H580 0.930 . S
C594 C592 1.395 . S
C594 C597 1.403 . S
C595 C592 1.403 . S
C595 C596 1.524 . S
C595 C599 1.400 . S
C596 H581 0.960 . S
C596 H582 0.960 . S
C596 H583 0.960 . S
C596 C595 1.524 . S
C597 C594 1.403 . S
C597 C598 1.392 . S
C597 C601 1.495 . S
C598 C597 1.392 . S
C598 C599 1.385 . S
C598 C600 1.478 . S
C599 H593 0.930 . S
C599 C595 1.400 . S
C599 C598 1.385 . S
C600 C598 1.478 . S
C600 C602 1.381 . S
C600 C606 1.383 . S
C601 C597 1.495 . S
C601 H607 0.959 . S
C601 H608 0.961 . S
C601 H609 0.960 . S
C602 C600 1.381 . S
C602 C603 1.394 . S
C602 H610 0.930 . S
C603 C602 1.394 . S
C603 C604 1.383 . S
C603 H611 0.929 . S
C604 C603 1.383 . S
C604 C605 1.377 . S
C605 H589 0.930 . S
C605 C604 1.377 . S
C605 C606 1.379 . S
C606 H590 0.931 . S
C606 C600 1.383 . S
C606 C605 1.379 . S
H607 C601 0.959 . S
H608 C601 0.961 . S
H609 C601 0.960 . S
H610 C602 0.930 . S
H611 C603 0.929 . S
H612 C620 0.929 . S
H613 C622 0.930 . S
H614 C624 0.930 . S
H615 C627 0.929 . S
H616 C630 0.930 . S
H617 C632 0.960 . S
H618 C632 0.960 . S
H619 C632 0.960 . S
C620 H612 0.929 . S
C620 C621 1.377 . S
C620 C622 1.384 . S
C621 C620 1.377 . S
C621 C627 1.390 1_556 S
C622 H613 0.930 . S
C622 C620 1.384 . S
C622 C623 1.372 . S
C623 C622 1.372 . S
C623 C624 1.400 1_556 S
C623 C628 1.490 . S
C624 H614 0.930 . S
C624 C623 1.400 1_554 S
C624 C627 1.386 . S
H625 C641 0.930 . S
H626 C642 0.931 . S
C627 H615 0.929 . S
C627 C621 1.390 1_554 S
C627 C624 1.386 . S
C628 C623 1.490 . S
C628 C630 1.395 . S
C628 C631 1.403 1_556 S
H629 C635 0.930 . S
C630 H616 0.930 . S
C630 C628 1.395 . S
C630 C633 1.403 . S
C631 C628 1.403 1_554 S
C631 C632 1.524 . S
C631 C635 1.400 . S
C632 H617 0.960 . S
C632 H618 0.960 . S
C632 H619 0.960 . S
C632 C631 1.524 . S
C633 C630 1.403 . S
C633 C634 1.360 1_556 S
C633 C637 1.495 . S
C634 C633 1.360 1_554 S
C634 C635 1.414 . S
C634 C636 1.485 . S
C635 H629 0.930 . S
C635 C631 1.400 . S
C635 C634 1.414 . S
C636 C634 1.485 . S
C636 C638 1.381 1_554 S
C636 C642 1.383 . S
C637 C633 1.495 . S
C637 H643 0.959 . S
C637 H644 0.961 . S
C637 H645 0.960 . S
C638 C636 1.381 1_556 S
C638 C639 1.394 . S
C638 H646 0.930 . S
C639 C638 1.394 . S
C639 C640 1.383 1_556 S
C639 H647 0.929 . S
C640 C639 1.383 1_554 S
C640 C641 1.377 . S
C641 H625 0.930 . S
C641 C640 1.377 . S
C641 C642 1.379 . S
C642 H626 0.931 . S
C642 C636 1.383 . S
C642 C641 1.379 . S
H643 C637 0.959 . S
H644 C637 0.961 . S
H645 C637 0.960 . S
H646 C638 0.930 . S
H647 C639 0.929 . S
H648 C656 0.929 . S
H649 C658 0.930 . S
H650 C660 0.930 . S
H651 C663 0.929 . S
H652 C666 0.930 . S
H653 C668 0.960 . S
H654 C668 0.960 . S
H655 C668 0.960 . S
C656 H648 0.929 . S
C656 C657 1.377 1_455 S
C656 C658 1.384 . S
C657 C656 1.377 1_655 S
C657 C663 1.390 . S
C658 H649 0.930 . S
C658 C656 1.384 . S
C658 C659 1.372 . S
C659 C658 1.372 . S
C659 C660 1.400 . S
C659 C664 1.490 . S
C660 H650 0.930 . S
C660 C659 1.400 . S
C660 C663 1.386 1_455 S
H661 C677 0.930 . S
H662 C678 0.931 . S
C663 H651 0.929 . S
C663 C657 1.390 . S
C663 C660 1.386 1_655 S
C664 C659 1.490 . S
C664 C666 1.395 . S
C664 C667 1.403 . S
H665 C671 0.930 . S
C666 H652 0.930 . S
C666 C664 1.395 . S
C666 C669 1.403 . S
C667 C664 1.403 . S
C667 C668 1.524 1_455 S
C667 C671 1.400 . S
C668 H653 0.960 . S
C668 H654 0.960 . S
C668 H655 0.960 . S
C668 C667 1.524 1_655 S
C669 C666 1.403 . S
C669 C670 1.392 . S
C669 C673 1.495 . S
C670 C669 1.392 . S
C670 C671 1.385 . S
C670 C672 1.478 . S
C671 H665 0.930 . S
C671 C667 1.400 . S
C671 C670 1.385 . S
C672 C670 1.478 . S
C672 C674 1.381 . S
C672 C678 1.383 . S
C673 C669 1.495 . S
C673 H679 0.959 . S
C673 H680 0.961 . S
C673 H681 0.960 . S
C674 C672 1.381 . S
C674 C675 1.394 . S
C674 H682 0.930 . S
C675 C674 1.394 . S
C675 C676 1.383 . S
C675 H683 0.929 . S
C676 C675 1.383 . S
C676 C677 1.377 . S
C677 H661 0.930 . S
C677 C676 1.377 . S
C677 C678 1.379 . S
C678 H662 0.931 . S
C678 C672 1.383 . S
C678 C677 1.379 . S
H679 C673 0.959 . S
H680 C673 0.961 . S
H681 C673 0.960 . S
H682 C674 0.930 . S
H683 C675 0.929 . S
H684 C692 0.929 . S
H685 C694 0.930 . S
H686 C696 0.930 . S
H687 C699 0.929 . S
H688 C702 0.930 . S
H689 C704 0.960 . S
H690 C704 0.960 . S
H691 C704 0.960 . S
C692 H684 0.929 . S
C692 C693 1.377 . S
C692 C694 1.384 . S
C693 C692 1.377 . S
C693 C699 1.390 . S
C694 H685 0.930 . S
C694 C692 1.384 . S
C694 C695 1.372 . S
C695 C694 1.372 . S
C695 C696 1.400 . S
C695 C700 1.490 . S
C696 H686 0.930 . S
C696 C695 1.400 . S
C696 C699 1.386 . S
H697 C713 0.930 . S
H698 C714 0.931 . S
C699 H687 0.929 . S
C699 C693 1.390 . S
C699 C696 1.386 . S
C700 C695 1.490 . S
C700 C702 1.395 . S
C700 C703 1.403 . S
H701 C707 0.930 . S
C702 H688 0.930 . S
C702 C700 1.395 . S
C702 C705 1.403 . S
C703 C700 1.403 . S
C703 C704 1.524 . S
C703 C707 1.400 . S
C704 H689 0.960 . S
C704 H690 0.960 . S
C704 H691 0.960 . S
C704 C703 1.524 . S
C705 C702 1.403 . S
C705 C706 1.392 . S
C705 C709 1.495 . S
C706 C705 1.392 . S
C706 C707 1.385 . S
C706 C708 1.478 . S
C707 H701 0.930 . S
C707 C703 1.400 . S
C707 C706 1.385 . S
C708 C706 1.478 . S
C708 C710 1.381 . S
C708 C714 1.383 . S
C709 C705 1.495 . S
C709 H715 0.959 . S
C709 H716 0.961 . S
C709 H717 0.960 . S
C710 C708 1.381 . S
C710 C711 1.394 . S
C710 H718 0.930 . S
C711 C710 1.394 . S
C711 C712 1.383 1_545 S
C711 H719 0.929 . S
C712 C711 1.383 1_565 S
C712 C713 1.377 . S
C713 H697 0.930 . S
C713 C712 1.377 . S
C713 C714 1.379 1_565 S
C714 H698 0.931 . S
C714 C708 1.383 . S
C714 C713 1.379 1_545 S
H715 C709 0.959 . S
H716 C709 0.961 . S
H717 C709 0.960 . S
H718 C710 0.930 . S
H719 C711 0.929 . S
H720 C728 0.929 . S
H721 C730 0.930 . S
H722 C732 0.930 . S
H723 C735 0.929 . S
H724 C738 0.930 . S
H725 C740 0.960 . S
H726 C740 0.960 . S
H727 C740 0.960 . S
C728 H720 0.929 . S
C728 C729 1.377 . S
C728 C730 1.384 . S
C729 C728 1.377 . S
C729 C735 1.390 . S
C730 H721 0.930 . S
C730 C728 1.384 . S
C730 C731 1.372 . S
C731 C730 1.372 . S
C731 C732 1.400 . S
C731 C736 1.490 . S
C732 H722 0.930 . S
C732 C731 1.400 . S
C732 C735 1.386 . S
H733 C749 0.930 . S
H734 C750 0.931 . S
C735 H723 0.929 . S
C735 C729 1.390 . S
C735 C732 1.386 . S
C736 C731 1.490 . S
C736 C738 1.395 . S
C736 C739 1.403 . S
H737 C743 0.930 . S
C738 H724 0.930 . S
C738 C736 1.395 . S
C738 C741 1.403 . S
C739 C736 1.403 . S
C739 C740 1.524 . S
C739 C743 1.400 . S
C740 H725 0.960 . S
C740 H726 0.960 . S
C740 H727 0.960 . S
C740 C739 1.524 . S
C741 C738 1.403 . S
C741 C742 1.392 . S
C741 C745 1.495 . S
C742 C741 1.392 . S
C742 C743 1.385 . S
C742 C744 1.478 . S
C743 H737 0.930 . S
C743 C739 1.400 . S
C743 C742 1.385 . S
C744 C742 1.478 . S
C744 C746 1.381 . S
C744 C750 1.383 . S
C745 C741 1.495 . S
C745 H751 0.959 . S
C745 H752 0.961 . S
C745 H753 0.960 . S
C746 C744 1.381 . S
C746 C747 1.394 . S
C746 H754 0.930 . S
C747 C746 1.394 . S
C747 C748 1.383 . S
C747 H755 0.929 . S
C748 C747 1.383 . S
C748 C749 1.377 . S
C749 H733 0.930 . S
C749 C748 1.377 . S
C749 C750 1.379 . S
C750 H734 0.931 . S
C750 C744 1.383 . S
C750 C749 1.379 . S
H751 C745 0.959 . S
H752 C745 0.961 . S
H753 C745 0.960 . S
H754 C746 0.930 . S
H755 C747 0.929 . S
H756 C764 0.929 . S
H757 C766 0.930 . S
H758 C768 0.930 . S
H759 C771 0.929 . S
H760 C774 0.930 . S
H761 C776 0.960 . S
H762 C776 0.960 . S
H763 C776 0.960 . S
C764 H756 0.929 . S
C764 C765 1.377 . S
C764 C766 1.384 . S
C765 C764 1.377 . S
C765 C771 1.390 . S
C766 H757 0.930 . S
C766 C764 1.384 . S
C766 C767 1.372 . S
C767 C766 1.372 . S
C767 C768 1.400 . S
C767 C772 1.490 . S
C768 H758 0.930 . S
C768 C767 1.400 . S
C768 C771 1.386 . S
H769 C785 0.930 . S
H770 C786 0.931 . S
C771 H759 0.929 . S
C771 C765 1.390 . S
C771 C768 1.386 . S
C772 C767 1.490 . S
C772 C774 1.395 . S
C772 C775 1.403 . S
H773 C779 0.930 . S
C774 H760 0.930 . S
C774 C772 1.395 . S
C774 C777 1.403 . S
C775 C772 1.403 . S
C775 C776 1.524 . S
C775 C779 1.400 . S
C776 H761 0.960 . S
C776 H762 0.960 . S
C776 H763 0.960 . S
C776 C775 1.524 . S
C777 C774 1.403 . S
C777 C778 1.392 . S
C777 C781 1.495 . S
C778 C777 1.392 . S
C778 C779 1.385 . S
C778 C780 1.478 . S
C779 H773 0.930 . S
C779 C775 1.400 . S
C779 C778 1.385 . S
C780 C778 1.478 . S
C780 C782 1.381 . S
C780 C786 1.383 1_655 S
C781 C777 1.495 . S
C781 H787 0.959 . S
C781 H788 0.961 . S
C781 H789 0.960 . S
C782 C780 1.381 . S
C782 C783 1.394 . S
C782 H790 0.930 . S
C783 C782 1.394 . S
C783 C784 1.383 1_655 S
C783 H791 0.929 . S
C784 C783 1.383 1_455 S
C784 C785 1.377 . S
C785 H769 0.930 . S
C785 C784 1.377 . S
C785 C786 1.379 . S
C786 H770 0.931 . S
C786 C780 1.383 1_455 S
C786 C785 1.379 . S
H787 C781 0.959 . S
H788 C781 0.961 . S
H789 C781 0.960 . S
H790 C782 0.930 . S
H791 C783 0.929 . S
H792 C800 0.929 . S
H793 C802 0.930 . S
H794 C804 0.930 . S
H795 C807 0.929 . S
H796 C810 0.930 . S
H797 C812 0.960 . S
H798 C812 0.960 . S
H799 C812 0.960 . S
C800 H792 0.929 . S
C800 C801 1.377 . S
C800 C802 1.384 . S
C801 C800 1.377 . S
C801 C807 1.390 . S
C802 H793 0.930 . S
C802 C800 1.384 . S
C802 C803 1.372 . S
C803 C802 1.372 . S
C803 C804 1.400 . S
C803 C808 1.490 . S
C804 H794 0.930 . S
C804 C803 1.400 . S
C804 C807 1.386 . S
H805 C821 0.930 . S
H806 C822 0.931 . S
C807 H795 0.929 . S
C807 C801 1.390 . S
C807 C804 1.386 . S
C808 C803 1.490 . S
C808 C810 1.395 . S
C808 C811 1.403 . S
H809 C815 0.930 . S
C810 H796 0.930 . S
C810 C808 1.395 . S
C810 C813 1.403 . S
C811 C808 1.403 . S
C811 C812 1.524 . S
C811 C815 1.400 . S
C812 H797 0.960 . S
C812 H798 0.960 . S
C812 H799 0.960 . S
C812 C811 1.524 . S
C813 C810 1.403 . S
C813 C814 1.392 . S
C813 C817 1.495 . S
C814 C813 1.392 . S
C814 C815 1.385 . S
C814 C816 1.478 . S
C815 H809 0.930 . S
C815 C811 1.400 . S
C815 C814 1.385 . S
C816 C814 1.478 . S
C816 C818 1.381 . S
C816 C822 1.383 . S
C817 C813 1.495 . S
C817 H823 0.959 . S
C817 H824 0.961 . S
C817 H825 0.960 . S
C818 C816 1.381 . S
C818 C819 1.394 . S
C818 H826 0.930 . S
C819 C818 1.394 . S
C819 C820 1.383 1_565 S
C819 H827 0.929 . S
C820 C819 1.383 1_545 S
C820 C821 1.377 . S
C821 H805 0.930 . S
C821 C820 1.377 . S
C821 C822 1.379 1_545 S
C822 H806 0.931 . S
C822 C816 1.383 . S
C822 C821 1.379 1_565 S
H823 C817 0.959 . S
H824 C817 0.961 . S
H825 C817 0.960 . S
H826 C818 0.930 . S
H827 C819 0.929 . S
H828 C836 0.929 . S
H829 C838 0.930 . S
H830 C840 0.930 . S
H831 C843 0.929 . S
H832 C846 0.930 . S
H833 C848 0.960 . S
H834 C848 0.960 . S
H835 C848 0.960 . S
C836 H828 0.929 . S
C836 C837 1.377 . S
C836 C838 1.384 . S
C837 C836 1.377 . S
C837 C843 1.390 . S
C838 H829 0.930 . S
C838 C836 1.384 . S
C838 C839 1.372 . S
C839 C838 1.372 . S
C839 C840 1.400 . S
C839 C844 1.490 . S
C840 H830 0.930 . S
C840 C839 1.400 . S
C840 C843 1.386 . S
H841 C857 0.930 . S
H842 C858 0.931 . S
C843 H831 0.929 . S
C843 C837 1.390 . S
C843 C840 1.386 . S
C844 C839 1.490 . S
C844 C846 1.395 . S
C844 C847 1.403 . S
H845 C851 0.930 . S
C846 H832 0.930 . S
C846 C844 1.395 . S
C846 C849 1.403 . S
C847 C844 1.403 . S
C847 C848 1.524 . S
C847 C851 1.400 . S
C848 H833 0.960 . S
C848 H834 0.960 . S
C848 H835 0.960 . S
C848 C847 1.524 . S
C849 C846 1.403 . S
C849 C850 1.392 . S
C849 C853 1.495 . S
C850 C849 1.392 . S
C850 C851 1.385 . S
C850 C852 1.478 . S
C851 H845 0.930 . S
C851 C847 1.400 . S
C851 C850 1.385 . S
C852 C850 1.478 . S
C852 C854 1.381 . S
C852 C858 1.383 . S
C853 C849 1.495 . S
C853 H859 0.959 . S
C853 H860 0.961 . S
C853 H861 0.960 . S
C854 C852 1.381 . S
C854 C855 1.394 . S
C854 H862 0.930 . S
C855 C854 1.394 . S
C855 C856 1.383 . S
C855 H863 0.929 . S
C856 C855 1.383 . S
C856 C857 1.377 . S
C857 H841 0.930 . S
C857 C856 1.377 . S
C857 C858 1.379 . S
C858 H842 0.931 . S
C858 C852 1.383 . S
C858 C857 1.379 . S
H859 C853 0.959 . S
H860 C853 0.961 . S
H861 C853 0.960 . S
H862 C854 0.930 . S
H863 C855 0.929 . S
H864 C872 0.929 . S
H865 C874 0.930 . S
H866 C876 0.930 . S
H867 C879 0.929 . S
H868 C882 0.925 1_554 S
H869 C884 0.960 . S
H870 C884 0.960 . S
H871 C884 0.960 . S
C872 H864 0.929 . S
C872 C873 1.377 1_455 S
C872 C874 1.384 . S
C873 C872 1.377 1_655 S
C873 C879 1.390 . S
C874 H865 0.930 . S
C874 C872 1.384 . S
C874 C875 1.372 . S
C875 C874 1.372 . S
C875 C876 1.400 1_455 S
C875 C880 1.490 . S
C876 H866 0.930 . S
C876 C875 1.400 1_655 S
C876 C879 1.386 . S
H877 C893 0.930 . S
H878 C894 0.931 . S
C879 H867 0.929 . S
C879 C873 1.390 . S
C879 C876 1.386 . S
C880 C875 1.490 . S
C880 C882 1.395 . S
C880 C883 1.403 . S
H881 C887 0.930 . S
C882 H868 0.925 1_556 S
C882 C880 1.395 . S
C882 C885 1.403 . S
C883 C880 1.403 . S
C883 C884 1.524 . S
C883 C887 1.400 . S
C884 H869 0.960 . S
C884 H870 0.960 . S
C884 H871 0.960 . S
C884 C883 1.524 . S
C885 C882 1.403 . S
C885 C886 1.392 . S
C885 C889 1.495 1_556 S
C886 C885 1.392 . S
C886 C887 1.385 . S
C886 C888 1.478 . S
C887 H881 0.930 . S
C887 C883 1.400 . S
C887 C886 1.385 . S
C888 C886 1.478 . S
C888 C890 1.381 . S
C888 C894 1.383 . S
C889 C885 1.495 1_554 S
C889 H895 0.959 . S
C889 H896 0.961 . S
C889 H897 0.960 . S
C890 C888 1.381 . S
C890 C891 1.394 . S
C890 H898 0.930 . S
C891 C890 1.394 . S
C891 C892 1.383 . S
C891 H899 0.929 . S
C892 C891 1.383 . S
C892 C893 1.377 . S
C893 H877 0.930 . S
C893 C892 1.377 . S
C893 C894 1.379 . S
C894 H878 0.931 . S
C894 C888 1.383 . S
C894 C893 1.379 . S
H895 C889 0.959 . S
H896 C889 0.961 . S
H897 C889 0.960 . S
H898 C890 0.930 . S
H899 C891 0.929 . S
H900 C908 0.929 . S
H901 C910 0.930 . S
H902 C912 0.930 . S
H903 C915 0.929 . S
H904 C918 0.930 . S
H905 C920 0.960 . S
H906 C920 0.960 . S
H907 C920 0.960 . S
C908 H900 0.929 . S
C908 C909 1.377 1_545 S
C908 C910 1.384 . S
C909 C908 1.377 1_565 S
C909 C915 1.390 . S
C910 H901 0.930 . S
C910 C908 1.384 . S
C910 C911 1.372 . S
C911 C910 1.372 . S
C911 C912 1.400 . S
C911 C916 1.490 . S
C912 H902 0.930 . S
C912 C911 1.400 . S
C912 C915 1.386 1_545 S
H913 C929 0.930 . S
H914 C930 0.931 . S
C915 H903 0.929 . S
C915 C909 1.390 . S
C915 C912 1.386 1_565 S
C916 C911 1.490 . S
C916 C918 1.395 . S
C916 C919 1.403 . S
H917 C923 0.930 . S
C918 H904 0.930 . S
C918 C916 1.395 . S
C918 C921 1.403 . S
C919 C916 1.403 . S
C919 C920 1.524 1_545 S
C919 C923 1.400 . S
C920 H905 0.960 . S
C920 H906 0.960 . S
C920 H907 0.960 . S
C920 C919 1.524 1_565 S
C921 C918 1.403 . S
C921 C922 1.392 . S
C921 C925 1.495 . S
C922 C921 1.392 . S
C922 C923 1.385 . S
C922 C924 1.478 . S
C923 H917 0.930 . S
C923 C919 1.400 . S
C923 C922 1.385 . S
C924 C922 1.478 . S
C924 C926 1.381 . S
C924 C930 1.383 . S
C925 C921 1.495 . S
C925 H931 0.959 . S
C925 H932 0.961 . S
C925 H933 0.960 . S
C926 C924 1.381 . S
C926 C927 1.394 . S
C926 H934 0.930 . S
C927 C926 1.394 . S
C927 C928 1.383 . S
C927 H935 0.929 . S
C928 C927 1.383 . S
C928 C929 1.377 . S
C929 H913 0.930 . S
C929 C928 1.377 . S
C929 C930 1.379 . S
C930 H914 0.931 . S
C930 C924 1.383 . S
C930 C929 1.379 . S
H931 C925 0.959 . S
H932 C925 0.961 . S
H933 C925 0.960 . S
H934 C926 0.930 . S
H935 C927 0.929 . S
H936 C944 0.929 . S
H937 C946 0.930 . S
H938 C948 0.930 . S
H939 C951 0.929 . S
H940 C954 0.930 . S
H941 C956 0.960 . S
H942 C956 0.960 . S
H943 C956 0.960 . S
C944 H936 0.929 . S
C944 C945 1.377 . S
C944 C946 1.384 . S
C945 C944 1.377 . S
C945 C951 1.390 . S
C946 H937 0.930 . S
C946 C944 1.384 . S
C946 C947 1.372 . S
C947 C946 1.372 . S
C947 C948 1.400 . S
C947 C952 1.490 . S
C948 H938 0.930 . S
C948 C947 1.400 . S
C948 C951 1.386 . S
H949 C965 0.930 . S
H950 C966 0.931 . S
C951 H939 0.929 . S
C951 C945 1.390 . S
C951 C948 1.386 . S
C952 C947 1.490 . S
C952 C954 1.395 . S
C952 C955 1.403 . S
H953 C959 0.930 . S
C954 H940 0.930 . S
C954 C952 1.395 . S
C954 C957 1.403 . S
C955 C952 1.403 . S
C955 C956 1.524 . S
C955 C959 1.400 . S
C956 H941 0.960 . S
C956 H942 0.960 . S
C956 H943 0.960 . S
C956 C955 1.524 . S
C957 C954 1.403 . S
C957 C958 1.392 . S
C957 C961 1.495 . S
C958 C957 1.392 . S
C958 C959 1.385 . S
C958 C960 1.478 . S
C959 H953 0.930 . S
C959 C955 1.400 . S
C959 C958 1.385 . S
C960 C958 1.478 . S
C960 C962 1.381 . S
C960 C966 1.383 . S
C961 C957 1.495 . S
C961 H967 0.959 . S
C961 H968 0.961 . S
C961 H969 0.960 . S
C962 C960 1.381 . S
C962 C963 1.394 . S
C962 H970 0.930 . S
C963 C962 1.394 . S
C963 C964 1.383 . S
C963 H971 0.929 . S
C964 C963 1.383 . S
C964 C965 1.377 . S
C965 H949 0.930 . S
C965 C964 1.377 . S
C965 C966 1.379 . S
C966 H950 0.931 . S
C966 C960 1.383 . S
C966 C965 1.379 . S
H967 C961 0.959 . S
H968 C961 0.961 . S
H969 C961 0.960 . S
H970 C962 0.930 . S
H971 C963 0.929 . S
H972 C980 0.929 . S
H973 C982 0.930 . S
H974 C984 0.930 . S
H975 C987 0.929 . S
H976 C990 0.930 . S
H977 C992 0.960 . S
H978 C992 0.960 . S
H979 C992 0.960 . S
C980 H972 0.929 . S
C980 C981 1.377 . S
C980 C982 1.384 . S
C981 C980 1.377 . S
C981 C987 1.390 . S
C982 H973 0.930 . S
C982 C980 1.384 . S
C982 C983 1.372 . S
C983 C982 1.372 . S
C983 C984 1.400 . S
C983 C988 1.490 . S
C984 H974 0.930 . S
C984 C983 1.400 . S
C984 C987 1.386 . S
H985 C1001 0.930 1_455 S
H986 C1002 0.931 . S
C987 H975 0.929 . S
C987 C981 1.390 . S
C987 C984 1.386 . S
C988 C983 1.490 . S
C988 C990 1.395 . S
C988 C991 1.403 . S
H989 C995 0.930 . S
C990 H976 0.930 . S
C990 C988 1.395 . S
C990 C993 1.403 . S
C991 C988 1.403 . S
C991 C992 1.524 . S
C991 C995 1.400 . S
C992 H977 0.960 . S
C992 H978 0.960 . S
C992 H979 0.960 . S
C992 C991 1.524 . S
C993 C990 1.403 . S
C993 C994 1.392 . S
C993 C997 1.495 . S
C994 C993 1.392 . S
C994 C995 1.385 . S
C994 C996 1.478 . S
C995 H989 0.930 . S
C995 C991 1.400 . S
C995 C994 1.385 . S
C996 C994 1.478 . S
C996 C998 1.381 . S
C996 C1002 1.383 . S
C997 C993 1.495 . S
C997 H1003 0.959 . S
C997 H1004 0.961 . S
C997 H1005 0.960 . S
C998 C996 1.381 . S
C998 C999 1.394 1_655 S
C998 H1006 0.930 . S
C999 C998 1.394 1_455 S
C999 C1000 1.383 . S
C999 H1007 0.929 . S
C1000 C999 1.383 . S
C1000 C1001 1.377 1_455 S
C1001 H985 0.930 1_655 S
C1001 C1000 1.377 1_655 S
C1001 C1002 1.379 . S
C1002 H986 0.931 . S
C1002 C996 1.383 . S
C1002 C1001 1.379 . S
H1003 C997 0.959 . S
H1004 C997 0.961 . S
H1005 C997 0.960 . S
H1006 C998 0.930 . S
H1007 C999 0.929 . S
H1008 C1016 0.929 . S
H1009 C1018 0.930 . S
H1010 C1020 0.930 . S
H1011 C1023 0.929 . S
H1012 C1026 0.930 . S
H1013 C1028 0.960 . S
H1014 C1028 0.960 . S
H1015 C1028 0.960 . S
C1016 H1008 0.929 . S
C1016 C1017 1.377 . S
C1016 C1018 1.384 . S
C1017 C1016 1.377 . S
C1017 C1023 1.390 . S
C1018 H1009 0.930 . S
C1018 C1016 1.384 . S
C1018 C1019 1.372 . S
C1019 C1018 1.372 . S
C1019 C1020 1.400 . S
C1019 C1024 1.490 . S
C1020 H1010 0.930 . S
C1020 C1019 1.400 . S
C1020 C1023 1.386 . S
H1021 C1037 0.931 1_545 S
H1022 C1038 0.931 . S
C1023 H1011 0.929 . S
C1023 C1017 1.390 . S
C1023 C1020 1.386 . S
C1024 C1019 1.490 . S
C1024 C1026 1.395 . S
C1024 C1027 1.403 . S
H1025 C1031 0.930 . S
C1026 H1012 0.930 . S
C1026 C1024 1.395 . S
C1026 C1029 1.403 . S
C1027 C1024 1.403 . S
C1027 C1028 1.524 . S
C1027 C1031 1.400 . S
C1028 H1013 0.960 . S
C1028 H1014 0.960 . S
C1028 H1015 0.960 . S
C1028 C1027 1.524 . S
C1029 C1026 1.403 . S
C1029 C1030 1.392 . S
C1029 C1033 1.495 . S
C1030 C1029 1.392 . S
C1030 C1031 1.385 . S
C1030 C1032 1.478 . S
C1031 H1025 0.930 . S
C1031 C1027 1.400 . S
C1031 C1030 1.385 . S
C1032 C1030 1.478 . S
C1032 C1034 1.381 . S
C1032 C1038 1.383 . S
C1033 C1029 1.495 . S
C1033 H1039 0.959 . S
C1033 H1040 0.961 . S
C1033 H1041 0.960 . S
C1034 C1032 1.381 . S
C1034 C1035 1.394 1_565 S
C1034 H1042 0.930 . S
C1035 C1034 1.394 1_545 S
C1035 C1036 1.383 . S
C1035 H1043 0.929 . S
C1036 C1035 1.383 . S
C1036 C1037 1.377 1_545 S
C1037 H1021 0.931 1_565 S
C1037 C1036 1.377 1_565 S
C1037 C1038 1.379 . S
C1038 H1022 0.931 . S
C1038 C1032 1.383 . S
C1038 C1037 1.379 . S
H1039 C1033 0.959 . S
H1040 C1033 0.961 . S
H1041 C1033 0.960 . S
H1042 C1034 0.930 . S
H1043 C1035 0.929 . S
H1044 C1052 0.929 . S
H1045 C1054 0.930 . S
H1046 C1056 0.930 . S
H1047 C1059 0.929 . S
H1048 C1062 0.930 . S
H1049 C1064 0.960 . S
H1050 C1064 0.960 . S
H1051 C1064 0.960 . S
C1052 H1044 0.929 . S
C1052 C1053 1.377 . S
C1052 C1054 1.384 . S
C1053 C1052 1.377 . S
C1053 C1059 1.390 . S
C1054 H1045 0.930 . S
C1054 C1052 1.384 . S
C1054 C1055 1.372 . S
C1055 C1054 1.372 . S
C1055 C1056 1.400 . S
C1055 C1060 1.490 . S
C1056 H1046 0.930 . S
C1056 C1055 1.400 . S
C1056 C1059 1.386 . S
H1057 C1073 0.930 . S
H1058 C1074 0.931 . S
C1059 H1047 0.929 . S
C1059 C1053 1.390 . S
C1059 C1056 1.386 . S
C1060 C1055 1.490 . S
C1060 C1062 1.395 . S
C1060 C1063 1.403 . S
H1061 C1067 0.930 . S
C1062 H1048 0.930 . S
C1062 C1060 1.395 . S
C1062 C1065 1.403 . S
C1063 C1060 1.403 . S
C1063 C1064 1.524 . S
C1063 C1067 1.400 . S
C1064 H1049 0.960 . S
C1064 H1050 0.960 . S
C1064 H1051 0.960 . S
C1064 C1063 1.524 . S
C1065 C1062 1.403 . S
C1065 C1066 1.392 . S
C1065 C1069 1.495 . S
C1066 C1065 1.392 . S
C1066 C1067 1.385 . S
C1066 C1068 1.478 . S
C1067 H1061 0.930 . S
C1067 C1063 1.400 . S
C1067 C1066 1.385 . S
C1068 C1066 1.478 . S
C1068 C1070 1.381 . S
C1068 C1074 1.383 . S
C1069 C1065 1.495 . S
C1069 H1075 0.959 . S
C1069 H1076 0.961 . S
C1069 H1077 0.960 . S
C1070 C1068 1.381 . S
C1070 C1071 1.394 . S
C1070 H1078 0.930 . S
C1071 C1070 1.394 . S
C1071 C1072 1.383 . S
C1071 H1079 0.929 . S
C1072 C1071 1.383 . S
C1072 C1073 1.377 . S
C1073 H1057 0.930 . S
C1073 C1072 1.377 . S
C1073 C1074 1.379 . S
C1074 H1058 0.931 . S
C1074 C1068 1.383 . S
C1074 C1073 1.379 . S
H1075 C1069 0.959 . S
H1076 C1069 0.961 . S
H1077 C1069 0.960 . S
H1078 C1070 0.930 . S
H1079 C1071 0.929 . S
H1080 C1088 0.929 . S
H1081 C1090 0.930 . S
H1082 C1092 0.930 . S
H1083 C1095 0.929 . S
H1084 C1098 0.930 . S
H1085 C1100 0.960 . S
H1086 C1100 0.960 . S
H1087 C1100 0.960 . S
C1088 H1080 0.929 . S
C1088 C1089 1.377 . S
C1088 C1090 1.384 . S
C1089 C1088 1.377 . S
C1089 C1095 1.390 . S
C1090 H1081 0.930 . S
C1090 C1088 1.384 . S
C1090 C1091 1.372 . S
C1091 C1090 1.372 . S
C1091 C1092 1.400 . S
C1091 C1096 1.490 . S
C1092 H1082 0.930 . S
C1092 C1091 1.400 . S
C1092 C1095 1.386 . S
H1093 C1109 0.932 1_455 S
H1094 C1110 0.931 . S
C1095 H1083 0.929 . S
C1095 C1089 1.390 . S
C1095 C1092 1.386 . S
C1096 C1091 1.490 . S
C1096 C1098 1.395 . S
C1096 C1099 1.403 . S
H1097 C1103 0.930 . S
C1098 H1084 0.930 . S
C1098 C1096 1.395 . S
C1098 C1101 1.403 . S
C1099 C1096 1.403 . S
C1099 C1100 1.524 . S
C1099 C1103 1.400 . S
C1100 H1085 0.960 . S
C1100 H1086 0.960 . S
C1100 H1087 0.960 . S
C1100 C1099 1.524 . S
C1101 C1098 1.403 . S
C1101 C1102 1.392 . S
C1101 C1105 1.495 . S
C1102 C1101 1.392 . S
C1102 C1103 1.385 . S
C1102 C1104 1.478 . S
C1103 H1097 0.930 . S
C1103 C1099 1.400 . S
C1103 C1102 1.385 . S
C1104 C1102 1.478 . S
C1104 C1106 1.381 1_455 S
C1104 C1110 1.383 . S
C1105 C1101 1.495 . S
C1105 H1111 0.959 . S
C1105 H1112 0.961 . S
C1105 H1113 0.960 . S
C1106 C1104 1.381 1_655 S
C1106 C1107 1.394 . S
C1106 H1114 0.930 . S
C1107 C1106 1.394 . S
C1107 C1108 1.383 . S
C1107 H1115 0.929 . S
C1108 C1107 1.383 . S
C1108 C1109 1.384 . S
C1109 H1093 0.932 1_655 S
C1109 C1108 1.384 . S
C1109 C1110 1.370 1_655 S
C1110 H1094 0.931 . S
C1110 C1104 1.383 . S
C1110 C1109 1.370 1_455 S
H1111 C1105 0.959 . S
H1112 C1105 0.961 . S
H1113 C1105 0.960 . S
H1114 C1106 0.930 . S
H1115 C1107 0.929 . S
H1116 C1124 0.929 . S
H1117 C1126 0.930 . S
H1118 C1128 0.930 . S
H1119 C1131 0.929 1_545 S
H1120 C1134 0.930 1_565 S
H1121 C1136 0.960 . S
H1122 C1136 0.960 . S
H1123 C1136 0.960 . S
C1124 H1116 0.929 . S
C1124 C1125 1.377 . S
C1124 C1126 1.384 . S
C1125 C1124 1.377 . S
C1125 C1131 1.390 . S
C1126 H1117 0.930 . S
C1126 C1124 1.384 . S
C1126 C1127 1.372 1_565 S
C1127 C1126 1.372 1_545 S
C1127 C1128 1.400 . S
C1127 C1132 1.490 . S
C1128 H1118 0.930 . S
C1128 C1127 1.400 . S
C1128 C1131 1.386 1_545 S
H1129 C1145 0.930 . S
H1130 C1146 0.931 . S
C1131 H1119 0.929 1_565 S
C1131 C1125 1.390 . S
C1131 C1128 1.386 1_565 S
C1132 C1127 1.490 . S
C1132 C1134 1.395 . S
C1132 C1135 1.403 . S
H1133 C1139 0.930 . S
C1134 H1120 0.930 1_545 S
C1134 C1132 1.395 . S
C1134 C1137 1.403 . S
C1135 C1132 1.403 . S
C1135 C1136 1.524 . S
C1135 C1139 1.400 . S
C1136 H1121 0.960 . S
C1136 H1122 0.960 . S
C1136 H1123 0.960 . S
C1136 C1135 1.524 . S
C1137 C1134 1.403 . S
C1137 C1138 1.392 . S
C1137 C1141 1.495 . S
C1138 C1137 1.392 . S
C1138 C1139 1.385 . S
C1138 C1140 1.478 . S
C1139 H1133 0.930 . S
C1139 C1135 1.400 . S
C1139 C1138 1.385 . S
C1140 C1138 1.478 . S
C1140 C1142 1.381 . S
C1140 C1146 1.383 . S
C1141 C1137 1.495 . S
C1141 H1147 0.958 . S
C1141 H1148 0.961 . S
C1141 H1149 0.960 . S
C1142 C1140 1.381 . S
C1142 C1143 1.394 . S
C1142 H1150 0.930 . S
C1143 C1142 1.394 . S
C1143 C1144 1.383 . S
C1143 H1151 0.929 . S
C1144 C1143 1.383 . S
C1144 C1145 1.377 . S
C1145 H1129 0.930 . S
C1145 C1144 1.377 . S
C1145 C1146 1.379 . S
C1146 H1130 0.931 . S
C1146 C1140 1.383 . S
C1146 C1145 1.379 . S
H1147 C1141 0.958 . S
H1148 C1141 0.961 . S
H1149 C1141 0.960 . S
H1150 C1142 0.930 . S
H1151 C1143 0.929 . S
H1152 C1160 0.929 . S
H1153 C1162 0.930 . S
H1154 C1164 0.930 . S
H1155 C1167 0.929 . S
H1156 C1170 0.930 . S
H1157 C1172 0.960 . S
H1158 C1172 0.960 . S
H1159 C1172 0.960 . S
C1160 H1152 0.929 . S
C1160 C1161 1.377 . S
C1160 C1162 1.384 . S
C1161 C1160 1.377 . S
C1161 C1167 1.390 . S
C1162 H1153 0.930 . S
C1162 C1160 1.384 . S
C1162 C1163 1.372 . S
C1163 C1162 1.372 . S
C1163 C1164 1.400 . S
C1163 C1168 1.490 . S
C1164 H1154 0.930 . S
C1164 C1163 1.400 . S
C1164 C1167 1.386 . S
H1165 C1181 0.930 . S
H1166 C1182 0.931 . S
C1167 H1155 0.929 . S
C1167 C1161 1.390 . S
C1167 C1164 1.386 . S
C1168 C1163 1.490 . S
C1168 C1170 1.395 . S
C1168 C1171 1.403 . S
H1169 C1175 0.930 . S
C1170 H1156 0.930 . S
C1170 C1168 1.395 . S
C1170 C1173 1.403 . S
C1171 C1168 1.403 . S
C1171 C1172 1.524 . S
C1171 C1175 1.400 . S
C1172 H1157 0.960 . S
C1172 H1158 0.960 . S
C1172 H1159 0.960 . S
C1172 C1171 1.524 . S
C1173 C1170 1.403 . S
C1173 C1174 1.392 . S
C1173 C1177 1.495 . S
C1174 C1173 1.392 . S
C1174 C1175 1.385 . S
C1174 C1176 1.478 . S
C1175 H1169 0.930 . S
C1175 C1171 1.400 . S
C1175 C1174 1.385 . S
C1176 C1174 1.478 . S
C1176 C1178 1.381 . S
C1176 C1182 1.383 . S
C1177 C1173 1.495 . S
C1177 H1183 0.959 . S
C1177 H1184 0.961 . S
C1177 H1185 0.960 . S
C1178 C1176 1.381 . S
C1178 C1179 1.394 . S
C1178 H1186 0.930 . S
C1179 C1178 1.394 . S
C1179 C1180 1.383 . S
C1179 H1187 0.929 . S
C1180 C1179 1.383 . S
C1180 C1181 1.377 . S
C1181 H1165 0.930 . S
C1181 C1180 1.377 . S
C1181 C1182 1.379 . S
C1182 H1166 0.931 . S
C1182 C1176 1.383 . S
C1182 C1181 1.379 . S
H1183 C1177 0.959 . S
H1184 C1177 0.961 . S
H1185 C1177 0.960 . S
H1186 C1178 0.930 . S
H1187 C1179 0.929 . S
H1188 C1196 0.929 . S
H1189 C1198 0.930 . S
H1190 C1200 0.930 . S
H1191 C1203 0.929 . S
H1192 C1206 0.930 . S
H1193 C1208 0.960 . S
H1194 C1208 0.960 . S
H1195 C1208 0.960 . S
C1196 H1188 0.929 . S
C1196 C1197 1.377 . S
C1196 C1198 1.384 . S
C1197 C1196 1.377 . S
C1197 C1203 1.390 . S
C1198 H1189 0.930 . S
C1198 C1196 1.384 . S
C1198 C1199 1.372 . S
C1199 C1198 1.372 . S
C1199 C1200 1.400 . S
C1199 C1204 1.490 . S
C1200 H1190 0.930 . S
C1200 C1199 1.400 . S
C1200 C1203 1.386 . S
H1201 C1217 0.930 . S
H1202 C1218 0.931 . S
C1203 H1191 0.929 . S
C1203 C1197 1.390 . S
C1203 C1200 1.386 . S
C1204 C1199 1.490 . S
C1204 C1206 1.395 . S
C1204 C1207 1.403 . S
H1205 C1211 0.930 . S
C1206 H1192 0.930 . S
C1206 C1204 1.395 . S
C1206 C1209 1.403 . S
C1207 C1204 1.403 . S
C1207 C1208 1.524 . S
C1207 C1211 1.400 . S
C1208 H1193 0.960 . S
C1208 H1194 0.960 . S
C1208 H1195 0.960 . S
C1208 C1207 1.524 . S
C1209 C1206 1.403 . S
C1209 C1210 1.392 . S
C1209 C1213 1.495 . S
C1210 C1209 1.392 . S
C1210 C1211 1.385 . S
C1210 C1212 1.478 . S
C1211 H1205 0.930 . S
C1211 C1207 1.400 . S
C1211 C1210 1.385 . S
C1212 C1210 1.478 . S
C1212 C1214 1.381 1_655 S
C1212 C1218 1.383 . S
C1213 C1209 1.495 . S
C1213 H1219 0.959 . S
C1213 H1220 0.961 . S
C1213 H1221 0.960 1_655 S
C1214 C1212 1.381 1_455 S
C1214 C1215 1.394 . S
C1214 H1222 0.930 . S
C1215 C1214 1.394 . S
C1215 C1216 1.383 . S
C1215 H1223 0.929 . S
C1216 C1215 1.383 . S
C1216 C1217 1.377 1_455 S
C1217 H1201 0.930 . S
C1217 C1216 1.377 1_655 S
C1217 C1218 1.379 . S
C1218 H1202 0.931 . S
C1218 C1212 1.383 . S
C1218 C1217 1.379 . S
H1219 C1213 0.959 . S
H1220 C1213 0.961 . S
H1221 C1213 0.960 1_455 S
H1222 C1214 0.930 . S
H1223 C1215 0.929 . S
H1224 C1232 0.929 . S
H1225 C1234 0.930 . S
H1226 C1236 0.930 . S
H1227 C1239 0.929 . S
H1228 C1242 0.930 . S
H1229 C1244 0.960 . S
H1230 C1244 0.960 . S
H1231 C1244 0.960 . S
C1232 H1224 0.929 . S
C1232 C1233 1.377 . S
C1232 C1234 1.384 . S
C1233 C1232 1.377 . S
C1233 C1239 1.390 . S
C1234 H1225 0.930 . S
C1234 C1232 1.384 . S
C1234 C1235 1.372 . S
C1235 C1234 1.372 . S
C1235 C1236 1.400 . S
C1235 C1240 1.490 . S
C1236 H1226 0.930 . S
C1236 C1235 1.400 . S
C1236 C1239 1.386 . S
H1237 C1253 0.934 . S
H1238 C1254 0.931 . S
C1239 H1227 0.929 . S
C1239 C1233 1.390 . S
C1239 C1236 1.386 . S
C1240 C1235 1.490 . S
C1240 C1242 1.395 . S
C1240 C1243 1.403 . S
H1241 C1247 0.930 . S
C1242 H1228 0.930 . S
C1242 C1240 1.395 . S
C1242 C1245 1.403 . S
C1243 C1240 1.403 . S
C1243 C1244 1.524 . S
C1243 C1247 1.400 . S
C1244 H1229 0.960 . S
C1244 H1230 0.960 . S
C1244 H1231 0.960 . S
C1244 C1243 1.524 . S
C1245 C1242 1.403 . S
C1245 C1246 1.392 . S
C1245 C1249 1.495 . S
C1246 C1245 1.392 . S
C1246 C1247 1.385 . S
C1246 C1248 1.478 . S
C1247 H1241 0.930 . S
C1247 C1243 1.400 . S
C1247 C1246 1.385 . S
C1248 C1246 1.478 . S
C1248 C1250 1.381 1_565 S
C1248 C1254 1.383 . S
C1249 C1245 1.495 . S
C1249 H1255 0.959 . S
C1249 H1256 0.961 . S
C1249 H1257 0.960 . S
C1250 C1248 1.381 1_545 S
C1250 C1251 1.394 . S
C1250 H1258 0.930 . S
C1251 C1250 1.394 . S
C1251 C1252 1.383 . S
C1251 H1259 0.929 . S
C1252 C1251 1.383 . S
C1252 C1253 1.369 1_545 S
C1253 H1237 0.934 . S
C1253 C1252 1.369 1_565 S
C1253 C1254 1.383 . S
C1254 H1238 0.931 . S
C1254 C1248 1.383 . S
C1254 C1253 1.383 . S
H1255 C1249 0.959 . S
H1256 C1249 0.961 . S
H1257 C1249 0.960 . S
H1258 C1250 0.930 . S
H1259 C1251 0.929 . S
H1260 C1268 0.929 . S
H1261 C1270 0.930 . S
H1262 C1272 0.930 . S
H1263 C1275 0.929 . S
H1264 C1278 0.930 . S
H1265 C1280 0.960 . S
H1266 C1280 0.960 . S
H1267 C1280 0.960 . S
C1268 H1260 0.929 . S
C1268 C1269 1.377 . S
C1268 C1270 1.384 . S
C1269 C1268 1.377 . S
C1269 C1275 1.390 . S
C1270 H1261 0.930 . S
C1270 C1268 1.384 . S
C1270 C1271 1.372 . S
C1271 C1270 1.372 . S
C1271 C1272 1.400 . S
C1271 C1276 1.490 . S
C1272 H1262 0.930 . S
C1272 C1271 1.400 . S
C1272 C1275 1.386 . S
H1273 C1289 0.930 . S
H1274 C1290 0.931 . S
C1275 H1263 0.929 . S
C1275 C1269 1.390 . S
C1275 C1272 1.386 . S
C1276 C1271 1.490 . S
C1276 C1278 1.395 . S
C1276 C1279 1.403 . S
H1277 C1283 0.930 . S
C1278 H1264 0.930 . S
C1278 C1276 1.395 . S
C1278 C1281 1.403 . S
C1279 C1276 1.403 . S
C1279 C1280 1.524 . S
C1279 C1283 1.400 . S
C1280 H1265 0.960 . S
C1280 H1266 0.960 . S
C1280 H1267 0.960 . S
C1280 C1279 1.524 . S
C1281 C1278 1.403 . S
C1281 C1282 1.392 . S
C1281 C1285 1.495 . S
C1282 C1281 1.392 . S
C1282 C1283 1.385 . S
C1282 C1284 1.478 . S
C1283 H1277 0.930 . S
C1283 C1279 1.400 . S
C1283 C1282 1.385 . S
C1284 C1282 1.478 . S
C1284 C1286 1.381 . S
C1284 C1290 1.383 . S
C1285 C1281 1.495 . S
C1285 H1291 0.959 . S
C1285 H1292 0.961 . S
C1285 H1293 0.960 . S
C1286 C1284 1.381 . S
C1286 C1287 1.394 . S
C1286 H1294 0.930 . S
C1287 C1286 1.394 . S
C1287 C1288 1.383 . S
C1287 H1295 0.929 . S
C1288 C1287 1.383 . S
C1288 C1289 1.377 . S
C1289 H1273 0.930 . S
C1289 C1288 1.377 . S
C1289 C1290 1.379 . S
C1290 H1274 0.931 . S
C1290 C1284 1.383 . S
C1290 C1289 1.379 . S
H1291 C1285 0.959 . S
H1292 C1285 0.961 . S
H1293 C1285 0.960 . S
H1294 C1286 0.930 . S
H1295 C1287 0.929 . S
H1296 C1304 0.929 . S
H1297 C1306 0.930 . S
H1298 C1308 0.930 . S
H1299 C1311 0.929 . S
H1300 C1314 0.930 . S
H1301 C1316 0.960 . S
H1302 C1316 0.960 . S
H1303 C1316 0.960 . S
C1304 H1296 0.929 . S
C1304 C1305 1.377 . S
C1304 C1306 1.384 1_655 S
C1305 C1304 1.377 . S
C1305 C1311 1.390 . S
C1306 H1297 0.930 . S
C1306 C1304 1.384 1_455 S
C1306 C1307 1.372 . S
C1307 C1306 1.372 . S
C1307 C1308 1.400 1_455 S
C1307 C1312 1.490 . S
C1308 H1298 0.930 . S
C1308 C1307 1.400 1_655 S
C1308 C1311 1.386 . S
H1309 C1325 0.930 . S
H1310 C1326 0.931 . S
C1311 H1299 0.929 . S
C1311 C1305 1.390 . S
C1311 C1308 1.386 . S
C1312 C1307 1.490 . S
C1312 C1314 1.395 . S
C1312 C1315 1.403 . S
H1313 C1319 0.930 . S
C1314 H1300 0.930 . S
C1314 C1312 1.395 . S
C1314 C1317 1.403 . S
C1315 C1312 1.403 . S
C1315 C1316 1.524 . S
C1315 C1319 1.400 . S
C1316 H1301 0.960 . S
C1316 H1302 0.960 . S
C1316 H1303 0.960 . S
C1316 C1315 1.524 . S
C1317 C1314 1.403 . S
C1317 C1318 1.392 . S
C1317 C1321 1.495 . S
C1318 C1317 1.392 . S
C1318 C1319 1.385 . S
C1318 C1320 1.478 . S
C1319 H1313 0.930 . S
C1319 C1315 1.400 . S
C1319 C1318 1.385 . S
C1320 C1318 1.478 . S
C1320 C1322 1.381 . S
C1320 C1326 1.383 . S
C1321 C1317 1.495 . S
C1321 H1327 0.959 . S
C1321 H1328 0.961 . S
C1321 H1329 0.960 . S
C1322 C1320 1.381 . S
C1322 C1323 1.394 . S
C1322 H1330 0.930 . S
C1323 C1322 1.394 . S
C1323 C1324 1.383 . S
C1323 H1331 0.929 . S
C1324 C1323 1.383 . S
C1324 C1325 1.377 . S
C1325 H1309 0.930 . S
C1325 C1324 1.377 . S
C1325 C1326 1.379 . S
C1326 H1310 0.931 . S
C1326 C1320 1.383 . S
C1326 C1325 1.379 . S
H1327 C1321 0.959 . S
H1328 C1321 0.961 . S
H1329 C1321 0.960 . S
H1330 C1322 0.930 . S
H1331 C1323 0.929 . S
H1332 C1340 0.929 . S
H1333 C1342 0.930 . S
H1334 C1344 0.930 . S
H1335 C1347 0.929 . S
H1336 C1350 0.930 1_565 S
H1337 C1352 0.960 . S
H1338 C1352 0.960 . S
H1339 C1352 0.960 . S
C1340 H1332 0.929 . S
C1340 C1341 1.377 . S
C1340 C1342 1.384 . S
C1341 C1340 1.377 . S
C1341 C1347 1.390 . S
C1342 H1333 0.930 . S
C1342 C1340 1.384 . S
C1342 C1343 1.372 1_565 S
C1343 C1342 1.372 1_545 S
C1343 C1344 1.400 . S
C1343 C1348 1.490 . S
C1344 H1334 0.930 . S
C1344 C1343 1.400 . S
C1344 C1347 1.386 1_545 S
H1345 C1361 0.930 . S
H1346 C1362 0.931 . S
C1347 H1335 0.929 . S
C1347 C1341 1.390 . S
C1347 C1344 1.386 1_565 S
C1348 C1343 1.490 . S
C1348 C1350 1.395 . S
C1348 C1351 1.403 . S
H1349 C1355 0.930 . S
C1350 H1336 0.930 1_545 S
C1350 C1348 1.395 . S
C1350 C1353 1.403 . S
C1351 C1348 1.403 . S
C1351 C1352 1.524 . S
C1351 C1355 1.400 . S
C1352 H1337 0.960 . S
C1352 H1338 0.960 . S
C1352 H1339 0.960 . S
C1352 C1351 1.524 . S
C1353 C1350 1.403 . S
C1353 C1354 1.392 . S
C1353 C1357 1.495 . S
C1354 C1353 1.392 . S
C1354 C1355 1.385 . S
C1354 C1356 1.478 . S
C1355 H1349 0.930 . S
C1355 C1351 1.400 . S
C1355 C1354 1.385 . S
C1356 C1354 1.478 . S
C1356 C1358 1.381 . S
C1356 C1362 1.383 . S
C1357 C1353 1.495 . S
C1357 H1363 0.959 1_545 S
C1357 H1364 0.961 . S
C1357 H1365 0.960 . S
C1358 C1356 1.381 . S
C1358 C1359 1.394 . S
C1358 H1366 0.930 . S
C1359 C1358 1.394 . S
C1359 C1360 1.383 . S
C1359 H1367 0.929 . S
C1360 C1359 1.383 . S
C1360 C1361 1.377 . S
C1361 H1345 0.930 . S
C1361 C1360 1.377 . S
C1361 C1362 1.379 . S
C1362 H1346 0.931 . S
C1362 C1356 1.383 . S
C1362 C1361 1.379 . S
H1363 C1357 0.959 1_565 S
H1364 C1357 0.961 . S
H1365 C1357 0.960 . S
H1366 C1358 0.930 . S
H1367 C1359 0.929 . S
H1368 C1376 0.929 . S
H1369 C1378 0.930 . S
H1370 C1380 0.930 . S
H1371 C1383 0.929 . S
H1372 C1386 0.930 . S
H1373 C1388 0.960 . S
H1374 C1388 0.960 . S
H1375 C1388 0.960 . S
C1376 H1368 0.929 . S
C1376 C1377 1.377 . S
C1376 C1378 1.384 . S
C1377 C1376 1.377 . S
C1377 C1383 1.390 . S
C1378 H1369 0.930 . S
C1378 C1376 1.384 . S
C1378 C1379 1.372 . S
C1379 C1378 1.372 . S
C1379 C1380 1.400 . S
C1379 C1384 1.490 . S
C1380 H1370 0.930 . S
C1380 C1379 1.400 . S
C1380 C1383 1.386 . S
H1381 C1397 0.930 . S
H1382 C1398 0.931 . S
C1383 H1371 0.929 . S
C1383 C1377 1.390 . S
C1383 C1380 1.386 . S
C1384 C1379 1.490 . S
C1384 C1386 1.395 . S
C1384 C1387 1.403 . S
H1385 C1391 0.930 . S
C1386 H1372 0.930 . S
C1386 C1384 1.395 . S
C1386 C1389 1.403 . S
C1387 C1384 1.403 . S
C1387 C1388 1.524 . S
C1387 C1391 1.400 . S
C1388 H1373 0.960 . S
C1388 H1374 0.960 . S
C1388 H1375 0.960 . S
C1388 C1387 1.524 . S
C1389 C1386 1.403 . S
C1389 C1390 1.392 . S
C1389 C1393 1.495 . S
C1390 C1389 1.392 . S
C1390 C1391 1.385 . S
C1390 C1392 1.478 . S
C1391 H1385 0.930 . S
C1391 C1387 1.400 . S
C1391 C1390 1.385 . S
C1392 C1390 1.478 . S
C1392 C1394 1.381 . S
C1392 C1398 1.383 . S
C1393 C1389 1.495 . S
C1393 H1399 0.959 . S
C1393 H1400 0.961 . S
C1393 H1401 0.960 . S
C1394 C1392 1.381 . S
C1394 C1395 1.394 . S
C1394 H1402 0.930 . S
C1395 C1394 1.394 . S
C1395 C1396 1.383 . S
C1395 H1403 0.929 . S
C1396 C1395 1.383 . S
C1396 C1397 1.377 . S
C1397 H1381 0.930 . S
C1397 C1396 1.377 . S
C1397 C1398 1.379 . S
C1398 H1382 0.931 . S
C1398 C1392 1.383 . S
C1398 C1397 1.379 . S
H1399 C1393 0.959 . S
H1400 C1393 0.961 . S
H1401 C1393 0.960 . S
H1402 C1394 0.930 . S
H1403 C1395 0.929 . S
H1404 C1412 0.929 . S
H1405 C1414 0.930 . S
H1406 C1416 0.930 . S
H1407 C1419 0.929 . S
H1408 C1422 0.930 . S
H1409 C1424 0.960 . S
H1410 C1424 0.960 . S
H1411 C1424 0.960 . S
C1412 H1404 0.929 . S
C1412 C1413 1.377 . S
C1412 C1414 1.384 . S
C1413 C1412 1.377 . S
C1413 C1419 1.390 . S
C1414 H1405 0.930 . S
C1414 C1412 1.384 . S
C1414 C1415 1.372 . S
C1415 C1414 1.372 . S
C1415 C1416 1.400 . S
C1415 C1420 1.490 . S
C1416 H1406 0.930 . S
C1416 C1415 1.400 . S
C1416 C1419 1.386 . S
H1417 C1433 0.930 1_655 S
H1418 C1434 0.931 . S
C1419 H1407 0.929 . S
C1419 C1413 1.390 . S
C1419 C1416 1.386 . S
C1420 C1415 1.490 . S
C1420 C1422 1.395 . S
C1420 C1423 1.403 . S
H1421 C1427 0.930 . S
C1422 H1408 0.930 . S
C1422 C1420 1.395 . S
C1422 C1425 1.403 . S
C1423 C1420 1.403 . S
C1423 C1424 1.524 . S
C1423 C1427 1.400 . S
C1424 H1409 0.960 . S
C1424 H1410 0.960 . S
C1424 H1411 0.960 . S
C1424 C1423 1.524 . S
C1425 C1422 1.403 . S
C1425 C1426 1.392 . S
C1425 C1429 1.495 1_655 S
C1426 C1425 1.392 . S
C1426 C1427 1.385 . S
C1426 C1428 1.478 . S
C1427 H1421 0.930 . S
C1427 C1423 1.400 . S
C1427 C1426 1.385 . S
C1428 C1426 1.478 . S
C1428 C1430 1.381 1_655 S
C1428 C1434 1.383 . S
C1429 C1425 1.495 1_455 S
C1429 H1435 0.959 . S
C1429 H1436 0.961 . S
C1429 H1437 0.960 . S
C1430 C1428 1.381 1_455 S
C1430 C1431 1.394 . S
C1430 H1438 0.930 . S
C1431 C1430 1.394 . S
C1431 C1432 1.383 . S
C1431 H1439 0.929 . S
C1432 C1431 1.383 . S
C1432 C1433 1.377 . S
C1433 H1417 0.930 1_455 S
C1433 C1432 1.377 . S
C1433 C1434 1.379 1_455 S
C1434 H1418 0.931 . S
C1434 C1428 1.383 . S
C1434 C1433 1.379 1_655 S
H1435 C1429 0.959 . S
H1436 C1429 0.961 . S
H1437 C1429 0.960 . S
H1438 C1430 0.930 . S
H1439 C1431 0.929 . S
H1440 C1448 0.929 . S
H1441 C1450 0.930 . S
H1442 C1452 0.930 . S
H1443 C1455 0.929 . S
H1444 C1458 0.930 . S
H1445 C1460 0.960 . S
H1446 C1460 0.960 . S
H1447 C1460 0.960 . S
C1448 H1440 0.929 . S
C1448 C1449 1.377 . S
C1448 C1450 1.384 1_545 S
C1449 C1448 1.377 . S
C1449 C1455 1.390 . S
C1450 H1441 0.930 . S
C1450 C1448 1.384 1_565 S
C1450 C1451 1.372 . S
C1451 C1450 1.372 . S
C1451 C1452 1.400 . S
C1451 C1456 1.490 . S
C1452 H1442 0.930 . S
C1452 C1451 1.400 . S
C1452 C1455 1.386 1_565 S
H1453 C1469 0.930 . S
H1454 C1470 0.931 . S
C1455 H1443 0.929 . S
C1455 C1449 1.390 . S
C1455 C1452 1.386 1_545 S
C1456 C1451 1.490 . S
C1456 C1458 1.395 . S
C1456 C1459 1.403 . S
H1457 C1463 0.930 . S
C1458 H1444 0.930 . S
C1458 C1456 1.395 . S
C1458 C1461 1.403 . S
C1459 C1456 1.403 . S
C1459 C1460 1.524 . S
C1459 C1463 1.400 . S
C1460 H1445 0.960 . S
C1460 H1446 0.960 . S
C1460 H1447 0.960 . S
C1460 C1459 1.524 . S
C1461 C1458 1.403 . S
C1461 C1462 1.392 . S
C1461 C1465 1.495 . S
C1462 C1461 1.392 . S
C1462 C1463 1.385 . S
C1462 C1464 1.478 . S
C1463 H1457 0.930 . S
C1463 C1459 1.400 . S
C1463 C1462 1.385 . S
C1464 C1462 1.478 . S
C1464 C1466 1.381 . S
C1464 C1470 1.383 . S
C1465 C1461 1.495 . S
C1465 H1471 0.959 . S
C1465 H1472 0.961 . S
C1465 H1473 0.960 . S
C1466 C1464 1.381 . S
C1466 C1467 1.394 . S
C1466 H1474 0.930 . S
C1467 C1466 1.394 . S
C1467 C1468 1.383 . S
C1467 H1475 0.929 . S
C1468 C1467 1.383 . S
C1468 C1469 1.377 . S
C1469 H1453 0.930 . S
C1469 C1468 1.377 . S
C1469 C1470 1.379 . S
C1470 H1454 0.931 . S
C1470 C1464 1.383 . S
C1470 C1469 1.379 . S
H1471 C1465 0.959 . S
H1472 C1465 0.961 . S
H1473 C1465 0.960 . S
H1474 C1466 0.930 . S
H1475 C1467 0.929 . S
C405 N2 0.661 . S
C424 N266 0.618 . S
C441 N299 0.661 . S
C460 N35 0.596 . S
C477 N332 0.660 . S
C496 N68 0.612 . S
C513 N101 0.663 . S
C532 N365 0.631 . S
C549 N134 0.673 . S
C568 N200 0.685 . S
C585 N167 0.660 . S
C604 N233 0.617 . S
C621 N244 1.884 . S
C640 C21 1.853 . S
C657 C54 1.873 . S
C676 N277 1.890 . S
C693 N310 1.886 . S
C712 C87 1.856 . S
C729 N343 1.887 . S
C748 C120 1.877 . S
C765 N376 1.887 . S
C784 C153 1.875 . S
C801 N211 1.886 . S
C820 C186 1.857 . S
C837 N178 1.883 . S
C856 C219 1.863 . S
C873 C252 1.868 . S
C892 N13 1.884 . S
C909 C285 1.873 . S
C928 N46 1.890 . S
C945 N79 1.885 . S
C964 C318 1.880 . S
C981 N112 1.884 . S
C1000 C351 1.852 . S
C1017 N145 1.884 . S
C1036 C384 1.852 . S
C1053 C183 0.779 . S
C1072 C7 0.724 . S
C1089 C18 0.784 . S
C1108 C40 0.806 . S
C1125 C73 0.785 . S
C1144 C51 0.795 . S
C1161 C84 0.778 . S
C1180 C106 0.723 . S
C1197 C117 0.786 . S
C1216 C139 0.834 . S
C1233 C150 0.784 . S
C1252 C172 0.808 . S
C1269 C205 0.763 . S
C1288 C249 0.759 . S
C1305 C238 0.723 1_554 S
C1324 C282 0.769 . S
C1341 C271 0.781 . S
C1360 C315 0.788 . S
C1377 C348 0.780 . S
C1396 C304 0.745 . S
C1413 C381 0.787 . S
C1432 C337 0.834 . S
C1449 C370 0.776 . S
C1468 C216 0.779 . S
