# Generated by pormake.
# Topology cag, (4)-cn, num edge types: 1
# Building blocks:
#     Node 0, Type 0, BuildingBlock: QUQFOY_clean_sbu_1, # of connection points: 4
#     Node 1, Type 0, BuildingBlock: QUQFOY_clean_sbu_1, # of connection points: 4
#     Node 2, Type 0, BuildingBlock: QUQFOY_clean_sbu_1, # of connection points: 4
#     Node 3, Type 0, BuildingBlock: QUQFOY_clean_sbu_1, # of connection points: 4
#     Node 4, Type 0, BuildingBlock: QUQFOY_clean_sbu_1, # of connection points: 4
#     Node 5, Type 0, BuildingBlock: QUQFOY_clean_sbu_1, # of connection points: 4
#     Node 6, Type 0, BuildingBlock: QUQFOY_clean_sbu_1, # of connection points: 4
#     Node 7, Type 0, BuildingBlock: QUQFOY_clean_sbu_1, # of connection points: 4
#     Node 8, Type 0, BuildingBlock: QUQFOY_clean_sbu_1, # of connection points: 4
#     Node 9, Type 0, BuildingBlock: QUQFOY_clean_sbu_1, # of connection points: 4
#     Node 10, Type 0, BuildingBlock: QUQFOY_clean_sbu_1, # of connection points: 4
#     Node 11, Type 0, BuildingBlock: QUQFOY_clean_sbu_1, # of connection points: 4
#     Node 12, Type 0, BuildingBlock: QUQFOY_clean_sbu_1, # of connection points: 4
#     Node 13, Type 0, BuildingBlock: QUQFOY_clean_sbu_1, # of connection points: 4
#     Node 14, Type 0, BuildingBlock: QUQFOY_clean_sbu_1, # of connection points: 4
#     Node 15, Type 0, BuildingBlock: QUQFOY_clean_sbu_1, # of connection points: 4
#     Edge 16, Type (0, 0), BuildingBlock: AJUNOK_clean_linker_0, # of connection points: 2
#     Edge 17, Type (0, 0), BuildingBlock: AJUNOK_clean_linker_0, # of connection points: 2
#     Edge 18, Type (0, 0), BuildingBlock: AJUNOK_clean_linker_0, # of connection points: 2
#     Edge 19, Type (0, 0), BuildingBlock: AJUNOK_clean_linker_0, # of connection points: 2
#     Edge 20, Type (0, 0), BuildingBlock: AJUNOK_clean_linker_0, # of connection points: 2
#     Edge 21, Type (0, 0), BuildingBlock: AJUNOK_clean_linker_0, # of connection points: 2
#     Edge 22, Type (0, 0), BuildingBlock: AJUNOK_clean_linker_0, # of connection points: 2
#     Edge 23, Type (0, 0), BuildingBlock: AJUNOK_clean_linker_0, # of connection points: 2
#     Edge 24, Type (0, 0), BuildingBlock: AJUNOK_clean_linker_0, # of connection points: 2
#     Edge 25, Type (0, 0), BuildingBlock: AJUNOK_clean_linker_0, # of connection points: 2
#     Edge 26, Type (0, 0), BuildingBlock: AJUNOK_clean_linker_0, # of connection points: 2
#     Edge 27, Type (0, 0), BuildingBlock: AJUNOK_clean_linker_0, # of connection points: 2
#     Edge 28, Type (0, 0), BuildingBlock: AJUNOK_clean_linker_0, # of connection points: 2
#     Edge 29, Type (0, 0), BuildingBlock: AJUNOK_clean_linker_0, # of connection points: 2
#     Edge 30, Type (0, 0), BuildingBlock: AJUNOK_clean_linker_0, # of connection points: 2
#     Edge 31, Type (0, 0), BuildingBlock: AJUNOK_clean_linker_0, # of connection points: 2
#     Edge 32, Type (0, 0), BuildingBlock: AJUNOK_clean_linker_0, # of connection points: 2
#     Edge 33, Type (0, 0), BuildingBlock: AJUNOK_clean_linker_0, # of connection points: 2
#     Edge 34, Type (0, 0), BuildingBlock: AJUNOK_clean_linker_0, # of connection points: 2
#     Edge 35, Type (0, 0), BuildingBlock: AJUNOK_clean_linker_0, # of connection points: 2
#     Edge 36, Type (0, 0), BuildingBlock: AJUNOK_clean_linker_0, # of connection points: 2
#     Edge 37, Type (0, 0), BuildingBlock: AJUNOK_clean_linker_0, # of connection points: 2
#     Edge 38, Type (0, 0), BuildingBlock: AJUNOK_clean_linker_0, # of connection points: 2
#     Edge 39, Type (0, 0), BuildingBlock: AJUNOK_clean_linker_0, # of connection points: 2
#     Edge 40, Type (0, 0), BuildingBlock: AJUNOK_clean_linker_0, # of connection points: 2
#     Edge 41, Type (0, 0), BuildingBlock: AJUNOK_clean_linker_0, # of connection points: 2
#     Edge 42, Type (0, 0), BuildingBlock: AJUNOK_clean_linker_0, # of connection points: 2
#     Edge 43, Type (0, 0), BuildingBlock: AJUNOK_clean_linker_0, # of connection points: 2
#     Edge 44, Type (0, 0), BuildingBlock: AJUNOK_clean_linker_0, # of connection points: 2
#     Edge 45, Type (0, 0), BuildingBlock: AJUNOK_clean_linker_0, # of connection points: 2
#     Edge 46, Type (0, 0), BuildingBlock: AJUNOK_clean_linker_0, # of connection points: 2
#     Edge 47, Type (0, 0), BuildingBlock: AJUNOK_clean_linker_0, # of connection points: 2
# Relax obj value: 0.133
# Max RMSD: 0.198
# Mean RMSD: 0.175
data_MOF--net-cag--node1-QUQFOY_clean_sbu_1--edge1-AJUNOK_clean_linker_0
_symmetry_space_group_name_H-M    P1
_symmetry_Int_Tables_number       1
_symmetry_cell_setting            triclinic
loop_
_symmetry_equiv_pos_as_xyz
'x, y, z'
_cell_length_a     31.293194
_cell_length_b     42.397694
_cell_length_c     31.618048
_cell_angle_alpha  90.008154
_cell_angle_beta   90.123396
_cell_angle_gamma 89.993056
loop_
_atom_site_label
_atom_site_type_symbol
_atom_site_fract_x
_atom_site_fract_y
_atom_site_fract_z
_atom_type_partial_charge
O0 O 0.2854 0.15851 0.14852 0.0
Cd1 Cd 0.31339 0.16527 0.09059 0.0
Cd2 Cd 0.31111 0.09726 0.09135 0.0
O3 O 0.28206 0.10658 0.14833 0.0
O4 O 0.30772 0.21146 0.08121 0.0
O5 O 0.27792 0.17597 0.03938 0.0
C6 C 0.28467 0.20526 0.04845 0.0
C7 C 0.28698 0.05312 0.05419 0.0
C8 C 0.2751 0.13283 0.16641 0.0
C9 C 0.39661 0.13046 0.08277 0.0
O10 O 0.37582 0.1048 0.08484 0.0
O11 O 0.37771 0.1569 0.08493 0.0
O12 O 0.30757 0.05049 0.08925 0.0
O13 O 0.27892 0.08117 0.04038 0.0
O14 O 0.18955 0.83722 0.65406 0.0
Cd15 Cd 0.16393 0.82873 0.5948 0.0
Cd16 Cd 0.16906 0.89681 0.59202 0.0
O17 O 0.20138 0.88815 0.64695 0.0
O18 O 0.1674 0.78205 0.58951 0.0
O19 O 0.20263 0.81474 0.54779 0.0
C20 C 0.19364 0.78612 0.55867 0.0
C21 C 0.19362 0.93941 0.55209 0.0
C22 C 0.20454 0.86297 0.66832 0.0
C23 C 0.08266 0.86605 0.58362 0.0
O24 O 0.10376 0.89107 0.59062 0.0
O25 O 0.10096 0.83935 0.58174 0.0
O26 O 0.17522 0.94335 0.58802 0.0
O27 O 0.19875 0.91091 0.53863 0.0
O28 O 0.29516 0.8388 0.85208 0.0
Cd29 Cd 0.3191 0.83029 0.91206 0.0
Cd30 Cd 0.31693 0.89901 0.91157 0.0
O31 O 0.28678 0.89037 0.8555 0.0
O32 O 0.318 0.78343 0.91395 0.0
O33 O 0.27974 0.81305 0.95692 0.0
C34 C 0.29062 0.78526 0.94412 0.0
C35 C 0.29203 0.94161 0.95133 0.0
C36 C 0.28282 0.86458 0.83561 0.0
C37 C 0.40157 0.86655 0.92383 0.0
O38 O 0.38182 0.89188 0.91518 0.0
O39 O 0.382 0.84039 0.92645 0.0
O40 O 0.31192 0.94561 0.91616 0.0
O41 O 0.28527 0.91303 0.96376 0.0
O42 O 0.19596 0.15586 0.35647 0.0
Cd43 Cd 0.17071 0.1627 0.41558 0.0
Cd44 Cd 0.16927 0.09432 0.41118 0.0
O45 O 0.1965 0.10392 0.35337 0.0
O46 O 0.17465 0.20929 0.42073 0.0
O47 O 0.20847 0.17695 0.46392 0.0
C48 C 0.19993 0.20549 0.45245 0.0
C49 C 0.1942 0.05057 0.44855 0.0
C50 C 0.20414 0.13057 0.33664 0.0
C51 C 0.08609 0.12927 0.4248 0.0
O52 O 0.10515 0.10307 0.42014 0.0
O53 O 0.10651 0.15512 0.42387 0.0
O54 O 0.17225 0.04756 0.41431 0.0
O55 O 0.20346 0.07878 0.46099 0.0
O56 O 0.6964 0.81406 0.92957 0.0
Cd57 Cd 0.66999 0.85176 0.89662 0.0
Cd58 Cd 0.6709 0.87799 0.974 0.0
O59 O 0.70935 0.8403 0.9884 0.0
O60 O 0.6748 0.84076 0.8357 0.0
O61 O 0.70978 0.88064 0.86496 0.0
C62 C 0.70096 0.86401 0.83183 0.0
C63 C 0.6926 0.92982 0.98523 0.0
C64 C 0.71298 0.81543 0.9663 0.0
C65 C 0.5858 0.86669 0.93698 0.0
O66 O 0.60582 0.87072 0.9715 0.0
O67 O 0.60592 0.86184 0.90281 0.0
O68 O 0.68096 0.912 0.01623 0.0
O69 O 0.69361 0.91755 0.9478 0.0
O70 O 0.79046 0.1865 0.42579 0.0
Cd71 Cd 0.81781 0.14947 0.39378 0.0
Cd72 Cd 0.81484 0.12106 0.47015 0.0
O73 O 0.78077 0.16128 0.48601 0.0
O74 O 0.81183 0.15915 0.33262 0.0
O75 O 0.77934 0.1188 0.36352 0.0
C76 C 0.7869 0.13507 0.32983 0.0
C77 C 0.7897 0.07021 0.48271 0.0
C78 C 0.77648 0.18597 0.46347 0.0
C79 C 0.90142 0.13264 0.43381 0.0
O80 O 0.88055 0.12372 0.46605 0.0
O81 O 0.8822 0.14277 0.40118 0.0
O82 O 0.80343 0.0878 0.51316 0.0
O83 O 0.78778 0.08243 0.44529 0.0
O84 O 0.69413 0.18214 0.07098 0.0
Cd85 Cd 0.66699 0.14702 0.10682 0.0
Cd86 Cd 0.66639 0.11465 0.03286 0.0
O87 O 0.6993 0.15412 0.01248 0.0
O88 O 0.67594 0.15875 0.16692 0.0
O89 O 0.70541 0.11655 0.13747 0.0
C90 C 0.69997 0.13421 0.17031 0.0
C91 C 0.69099 0.06404 0.0173 0.0
C92 C 0.70567 0.17968 0.03263 0.0
C93 C 0.5815 0.1291 0.07194 0.0
O94 O 0.60103 0.11774 0.04025 0.0
O95 O 0.60215 0.14125 0.10242 0.0
O96 O 0.67447 0.08184 0.98855 0.0
O97 O 0.69523 0.0756 0.05492 0.0
O98 O 0.78865 0.81925 0.5684 0.0
Cd99 Cd 0.81353 0.85622 0.60387 0.0
Cd100 Cd 0.8149 0.88452 0.52736 0.0
O101 O 0.77875 0.84635 0.50973 0.0
O102 O 0.80756 0.84326 0.66397 0.0
O103 O 0.77307 0.88409 0.63649 0.0
C104 C 0.7816 0.86652 0.66878 0.0
C105 C 0.792 0.93586 0.51379 0.0
C106 C 0.77461 0.82097 0.53068 0.0
C107 C 0.89895 0.87216 0.567 0.0
O108 O 0.87998 0.87786 0.53232 0.0
O109 O 0.87786 0.86592 0.60016 0.0
O110 O 0.80617 0.91794 0.48399 0.0
O111 O 0.78966 0.92417 0.55149 0.0
O112 O 0.79389 0.65378 0.13871 0.0
Cd113 Cd 0.81826 0.66011 0.0783 0.0
Cd114 Cd 0.81768 0.59178 0.08446 0.0
O115 O 0.7862 0.60211 0.13918 0.0
O116 O 0.81791 0.70686 0.07358 0.0
O117 O 0.77951 0.67639 0.03181 0.0
C118 C 0.79102 0.70444 0.04295 0.0
C119 C 0.79387 0.54876 0.04491 0.0
C120 C 0.78147 0.62868 0.15696 0.0
C121 C 0.90167 0.62417 0.07086 0.0
O122 O 0.88253 0.59915 0.08199 0.0
O123 O 0.88137 0.64977 0.06525 0.0
O124 O 0.81263 0.54512 0.08085 0.0
O125 O 0.78738 0.5772 0.03175 0.0
O126 O 0.68922 0.34466 0.63847 0.0
Cd127 Cd 0.66655 0.33832 0.5776 0.0
Cd128 Cd 0.66996 0.40605 0.58161 0.0
O129 O 0.69953 0.3961 0.63767 0.0
O130 O 0.66987 0.29169 0.57086 0.0
O131 O 0.70679 0.32477 0.53134 0.0
C132 C 0.69709 0.29605 0.54096 0.0
C133 C 0.69446 0.4493 0.5429 0.0
C134 C 0.70202 0.36975 0.65648 0.0
C135 C 0.58449 0.37466 0.56862 0.0
O136 O 0.60501 0.39952 0.57798 0.0
O137 O 0.60353 0.34842 0.56417 0.0
O138 O 0.6752 0.45273 0.57851 0.0
O139 O 0.70124 0.42093 0.52964 0.0
O140 O 0.78125 0.33422 0.84152 0.0
Cd141 Cd 0.81049 0.32434 0.89816 0.0
Cd142 Cd 0.81252 0.39208 0.90451 0.0
O143 O 0.78247 0.38601 0.84717 0.0
O144 O 0.80198 0.27825 0.90566 0.0
O145 O 0.77613 0.31375 0.94992 0.0
C146 C 0.78068 0.28448 0.93947 0.0
C147 C 0.79118 0.4366 0.94265 0.0
C148 C 0.77286 0.3613 0.82657 0.0
C149 C 0.89605 0.35582 0.90756 0.0
O150 O 0.87679 0.38213 0.90983 0.0
O151 O 0.87539 0.33034 0.9025 0.0
O152 O 0.81232 0.4389 0.90799 0.0
O153 O 0.7815 0.40871 0.95591 0.0
O154 O 0.70011 0.6645 0.34126 0.0
Cd155 Cd 0.67166 0.67395 0.39856 0.0
Cd156 Cd 0.67049 0.60623 0.40458 0.0
O157 O 0.69854 0.61269 0.3465 0.0
O158 O 0.67903 0.72014 0.40615 0.0
O159 O 0.7067 0.68511 0.45003 0.0
C160 C 0.70102 0.7143 0.43975 0.0
C161 C 0.69391 0.56183 0.44187 0.0
C162 C 0.70771 0.63743 0.32582 0.0
C163 C 0.58655 0.64169 0.40953 0.0
O164 O 0.60623 0.61554 0.41153 0.0
O165 O 0.60679 0.6673 0.40389 0.0
O166 O 0.67171 0.55941 0.40779 0.0
O167 O 0.70342 0.58979 0.45506 0.0
O168 O 0.19744 0.30785 0.91728 0.0
Cd169 Cd 0.16792 0.34255 0.88231 0.0
Cd170 Cd 0.16506 0.37346 0.95665 0.0
O171 O 0.19999 0.33486 0.97684 0.0
O172 O 0.17746 0.33247 0.82174 0.0
O173 O 0.20365 0.37523 0.85276 0.0
C174 C 0.19929 0.35815 0.8192 0.0
C175 C 0.18804 0.42494 0.96917 0.0
C176 C 0.20824 0.30994 0.95594 0.0
C177 C 0.08121 0.3565 0.91739 0.0
O178 O 0.09985 0.36844 0.94932 0.0
O179 O 0.10278 0.34573 0.8867 0.0
O180 O 0.1727 0.4077 -0.00086 0.0
O181 O 0.19216 0.41225 0.93223 0.0
O182 O 0.28293 0.68457 0.43182 0.0
Cd183 Cd 0.31333 0.65354 0.39203 0.0
Cd184 Cd 0.31942 0.61906 0.46486 0.0
O185 O 0.28431 0.65588 0.48986 0.0
O186 O 0.30191 0.67277 0.33606 0.0
O187 O 0.28001 0.62486 0.35289 0.0
C188 C 0.28162 0.64754 0.32567 0.0
C189 C 0.29771 0.56706 0.47553 0.0
C190 C 0.27369 0.68099 0.47058 0.0
C191 C 0.4015 0.63939 0.42386 0.0
O192 O 0.38414 0.6254 0.45494 0.0
O193 O 0.37874 0.65162 0.39493 0.0
O194 O 0.31477 0.58342 0.50552 0.0
O195 O 0.29162 0.58075 0.43949 0.0
O196 O 0.19731 0.67501 0.05489 0.0
Cd197 Cd 0.17123 0.63988 0.09235 0.0
Cd198 Cd 0.16926 0.61116 0.01365 0.0
O199 O 0.20675 0.64852 -0.00425 0.0
O200 O 0.17448 0.66104 0.14817 0.0
O201 O 0.209 0.61687 0.13442 0.0
C202 C 0.2004 0.63939 0.16053 0.0
C203 C 0.19006 0.55942 4e-05 0.0
C204 C 0.2117 0.67346 0.01741 0.0
C205 C 0.08574 0.62385 0.05465 0.0
O206 O 0.10446 0.61865 0.01976 0.0
O207 O 0.10701 0.62969 0.08796 0.0
O208 O 0.17612 0.57755 0.97029 0.0
O209 O 0.19347 0.57114 0.03767 0.0
O210 O 0.2941 0.31818 0.56301 0.0
Cd211 Cd 0.31633 0.35788 0.59454 0.0
Cd212 Cd 0.31599 0.3808 0.51569 0.0
O213 O 0.27893 0.34206 0.50298 0.0
O214 O 0.3127 0.34682 0.65548 0.0
O215 O 0.27313 0.38419 0.62597 0.0
C216 C 0.28382 0.36824 0.65912 0.0
C217 C 0.29362 0.4322 0.50309 0.0
C218 C 0.27753 0.31765 0.52626 0.0
C219 C 0.40028 0.37401 0.55495 0.0
O220 O 0.38111 0.37452 0.51957 0.0
O221 O 0.3794 0.37102 0.58905 0.0
O222 O 0.30545 0.41403 0.47251 0.0
O223 O 0.2926 0.42048 0.54086 0.0
C224 C 0.26756 0.26232 0.03895 0.0
C225 C 0.26609 0.23132 0.02308 0.0
C226 C 0.24931 0.28751 0.01676 0.0
C227 C 0.22913 0.28288 0.97745 0.0
H228 H 0.28242 0.26726 0.06923 0.0
H229 H 0.25095 0.31081 0.03071 0.0
S230 S 0.21764 0.20639 0.92116 0.0
N231 N 0.24347 0.19743 0.96512 0.0
N232 N 0.20938 0.24482 0.92311 0.0
C233 C 0.22807 0.25207 0.96072 0.0
C234 C 0.2464 0.22629 0.9836 0.0
C235 C 0.25241 0.73768 0.47632 0.0
C236 C 0.25201 0.707 0.49344 0.0
C237 C 0.23356 0.76306 0.49764 0.0
C238 C 0.21304 0.75876 0.53671 0.0
H239 H 0.268 0.74233 0.44639 0.0
H240 H 0.23501 0.78621 0.48324 0.0
S241 S 0.20211 0.68302 0.59486 0.0
N242 N 0.22884 0.67371 0.55168 0.0
N243 N 0.19303 0.7213 0.59161 0.0
C244 C 0.2119 0.72814 0.55402 0.0
C245 C 0.2315 0.70232 0.53247 0.0
C246 C 0.24688 0.75825 -0.00037 0.0
C247 C 0.27182 0.75631 0.96277 0.0
C248 C 0.22816 0.73129 0.01736 0.0
C249 C 0.23322 0.70134 -0.00129 0.0
H250 H 0.24168 0.78075 0.01497 0.0
H251 H 0.209 0.7341 0.04562 0.0
S252 S 0.29626 0.6833 0.90233 0.0
N253 N 0.30124 0.72177 0.90856 0.0
N254 N 0.26586 0.67129 0.94173 0.0
C255 C 0.25835 0.69902 0.962 0.0
C256 C 0.2777 0.72643 0.94412 0.0
C257 C 0.23113 0.29039 0.47349 0.0
C258 C 0.25703 0.28855 0.50981 0.0
C259 C 0.21248 0.26346 0.45589 0.0
C260 C 0.21908 0.23338 0.47356 0.0
H261 H 0.22519 0.31285 0.45827 0.0
H262 H 0.19311 0.26636 0.4277 0.0
S263 S 0.28363 0.21553 0.56924 0.0
N264 N 0.2878 0.25412 0.56347 0.0
N265 N 0.25282 0.20334 0.53006 0.0
C266 C 0.24451 0.2311 0.51021 0.0
C267 C 0.26338 0.2587 0.52841 0.0
C268 C 0.74437 0.73029 0.98826 0.0
C269 C 0.77332 0.73307 0.02221 0.0
C270 C 0.72587 0.75706 0.96952 0.0
C271 C 0.73529 0.78761 0.98429 0.0
H272 H 0.73546 0.70727 0.97632 0.0
H273 H 0.70317 0.75369 0.94399 0.0
S274 S 0.81142 0.80809 0.07021 0.0
N275 N 0.81228 0.76921 0.0682 0.0
N276 N 0.77733 0.8192 0.03324 0.0
C277 C 0.76499 0.79078 0.01746 0.0
C278 C 0.78404 0.76362 0.03632 0.0
C279 C 0.73128 0.21181 0.51863 0.0
C280 C 0.75579 0.21444 0.48158 0.0
C281 C 0.71213 0.23828 0.53708 0.0
C282 C 0.71702 0.2686 0.51958 0.0
H283 H 0.72671 0.18909 0.5336 0.0
H284 H 0.69373 0.23487 0.56572 0.0
S285 S 0.77796 0.28847 0.42261 0.0
N286 N 0.78371 0.24996 0.42774 0.0
N287 N 0.74794 0.29971 0.46275 0.0
C288 C 0.74132 0.27165 0.48244 0.0
C289 C 0.76057 0.24459 0.46336 0.0
C290 C 0.76291 0.22753 0.94869 0.0
C291 C 0.76192 0.25849 0.96475 0.0
C292 C 0.74505 0.20233 0.97105 0.0
C293 C 0.72564 0.20688 0.01067 0.0
H294 H 0.77728 0.2226 0.91824 0.0
H295 H 0.74647 0.17907 0.95699 0.0
S296 S 0.71528 0.2833 0.06736 0.0
N297 N 0.74036 0.2923 0.02309 0.0
N298 N 0.70689 0.24489 0.06537 0.0
C299 C 0.72485 0.23769 0.02747 0.0
C300 C 0.74288 0.26348 0.00447 0.0
C301 C 0.7321 0.79738 0.47177 0.0
C302 C 0.75456 0.79319 0.50996 0.0
C303 C 0.71472 0.77176 0.44986 0.0
C304 C 0.71916 0.74069 0.46492 0.0
H305 H 0.72802 0.82068 0.45837 0.0
H306 H 0.69802 0.77648 0.42048 0.0
S307 S 0.77435 0.71673 0.56391 0.0
N308 N 0.77969 0.75546 0.56246 0.0
N309 N 0.74705 0.70718 0.52103 0.0
C310 C 0.74105 0.73606 0.50338 0.0
C311 C 0.75865 0.76231 0.52595 0.0
C312 C 0.27894 0.02681 0.98421 0.0
C313 C 0.278 0.02477 0.02853 0.0
C314 C 0.28078 -0.00046 0.95926 0.0
C315 C 0.28108 0.96929 0.9777 0.0
H316 H 0.2813 0.04954 0.96876 0.0
H317 H 0.284 0.00227 0.92535 0.0
S318 S 0.27121 0.9514 0.0921 0.0
N319 N 0.27193 0.9903 0.08968 0.0
N320 N 0.27467 0.939 0.04272 0.0
C321 C 0.27617 0.96696 0.02176 0.0
C322 C 0.27488 0.99475 0.04721 0.0
C323 C 0.20017 0.96494 0.48144 0.0
C324 C 0.20392 0.96705 0.5256 0.0
C325 C 0.19994 0.99216 0.45631 0.0
C326 C 0.2041 0.02238 0.47441 0.0
H327 H 0.19438 0.94237 0.46641 0.0
H328 H 0.19436 0.98954 0.42267 0.0
S329 S 0.22287 0.03988 0.58793 0.0
N330 N 0.21757 0.00116 0.58595 0.0
N331 N 0.21784 0.05232 0.53868 0.0
C332 C 0.2119 0.02451 0.51813 0.0
C333 C 0.21156 0.99681 0.54376 0.0
C334 C 0.70087 0.97594 0.03392 0.0
C335 C 0.70046 0.96397 0.99235 0.0
C336 C 0.70085 0.00848 0.04178 0.0
C337 C 0.69999 0.03036 0.00837 0.0
H338 H 0.6994 0.9601 0.06076 0.0
H339 H 0.69901 0.01644 0.07429 0.0
S340 S 0.70535 0.01148 0.89383 0.0
N341 N 0.70434 0.97676 0.91741 0.0
N342 N 0.7039 0.03787 0.9322 0.0
C343 C 0.70265 0.01878 0.96672 0.0
C344 C 0.70303 0.98561 0.9587 0.0
C345 C 0.78359 0.024 0.53154 0.0
C346 C 0.78143 0.03614 0.49011 0.0
C347 C 0.78414 0.99142 0.53915 0.0
C348 C 0.78293 0.96966 0.5056 0.0
H349 H 0.78684 0.03973 0.55835 0.0
H350 H 0.78797 0.98333 0.57144 0.0
S351 S 0.77023 0.98898 0.39172 0.0
N352 N 0.77276 0.02361 0.41544 0.0
N353 N 0.77415 0.96245 0.42974 0.0
C354 C 0.77761 0.9814 0.46426 0.0
C355 C 0.7767 0.01461 0.45652 0.0
C356 C 0.78266 0.46326 0.01238 0.0
C357 C 0.78246 0.46511 0.96805 0.0
C358 C 0.78377 0.49065 0.03716 0.0
C359 C 0.78402 0.52083 0.01851 0.0
H360 H 0.78481 0.44058 0.02803 0.0
H361 H 0.78632 0.48808 0.07117 0.0
S362 S 0.77628 0.53816 0.90372 0.0
N363 N 0.77733 0.49928 0.90649 0.0
N364 N 0.77868 0.55079 0.95307 0.0
C365 C 0.78006 0.52294 0.9743 0.0
C366 C 0.77954 0.49504 0.94906 0.0
C367 C 0.70431 0.50745 0.53573 0.0
C368 C 0.70416 0.47736 0.51677 0.0
C369 C 0.70456 0.53497 0.5112 0.0
C370 C 0.70395 0.53335 0.46685 0.0
H371 H 0.70219 0.50981 0.56978 0.0
H372 H 0.70223 0.55755 0.52709 0.0
S373 S 0.71031 0.46068 0.40176 0.0
N374 N 0.70897 0.44778 0.45101 0.0
N375 N 0.70867 0.49954 0.40491 0.0
C376 C 0.70714 0.50355 0.44754 0.0
C377 C 0.70751 0.47552 0.47252 0.0
C378 C 0.19515 0.50375 0.02548 0.0
C379 C 0.19758 0.52543 0.99193 0.0
C380 C 0.19442 0.47118 0.01791 0.0
C381 C 0.19657 0.45896 0.97652 0.0
H382 H 0.19142 0.51196 0.05771 0.0
H383 H 0.19045 0.45554 0.0447 0.0
S384 S 0.21012 0.50576 0.8782 0.0
N385 N 0.20701 0.5324 0.91615 0.0
N386 N 0.2061 0.47121 0.90193 0.0
C387 C 0.20227 0.48034 0.94295 0.0
C388 C 0.2026 0.51356 0.95065 0.0
C389 C 0.29111 0.5202 0.52299 0.0
C390 C 0.28885 0.53299 0.48194 0.0
C391 C 0.28969 0.48756 0.52977 0.0
C392 C 0.28641 0.46635 0.49572 0.0
H393 H 0.29564 0.53543 0.55015 0.0
H394 H 0.29354 0.47893 0.5618 0.0
S395 S 0.2735 0.48775 0.38253 0.0
N396 N 0.27849 0.52192 0.4071 0.0
N397 N 0.27622 0.46055 0.4198 0.0
C398 C 0.28129 0.47884 0.45475 0.0
C399 C 0.28236 0.51216 0.44788 0.0
C400 C 0.51285 0.15316 0.09497 0.0
C401 C 0.53439 0.12893 0.07338 0.0
C402 C 0.46822 0.1537 0.0972 0.0
C403 C 0.44355 0.12963 0.07878 0.0
H404 H 0.53058 0.17206 0.10997 0.0
H405 H 0.45298 0.17284 0.11416 0.0
S406 S 0.48446 0.06082 0.01869 0.0
N407 N 0.52781 0.08044 0.03278 0.0
N408 N 0.44375 0.08101 0.0379 0.0
C409 C 0.46464 0.10518 0.05719 0.0
C410 C 0.51012 0.10497 0.05419 0.0
C411 C 0.96696 0.88733 0.60233 0.0
C412 C 0.94586 0.8718 0.56903 0.0
C413 C 0.01152 0.88597 0.60625 0.0
C414 C 0.03611 0.86809 0.57789 0.0
H415 H 0.94888 0.90066 0.62542 0.0
H416 H 0.02673 0.89829 0.63227 0.0
S417 S -0.00396 0.82313 0.48544 0.0
N418 N 0.95269 0.83867 0.50673 0.0
N419 N 0.03645 0.8349 0.51523 0.0
C420 C 0.01539 0.85243 0.54452 0.0
C421 C 0.97019 0.85462 0.53977 0.0
C422 C 0.47335 0.88451 0.90054 0.0
C423 C 0.44825 0.86735 0.92923 0.0
C424 C 0.51799 0.88425 0.90345 0.0
C425 C 0.53885 0.86768 0.936 0.0
H426 H 0.45843 0.89749 0.87493 0.0
H427 H 0.53635 0.89714 0.88013 0.0
S428 S 0.48743 0.82041 0.02027 0.0
N429 N 0.44717 0.83382 0.99155 0.0
N430 N 0.53126 0.83448 -0.00185 0.0
C431 C 0.51409 0.85125 0.96568 0.0
C432 C 0.46867 0.85075 0.96197 0.0
C433 C 0.01595 0.15484 0.41103 0.0
C434 C 0.03924 0.12996 0.42929 0.0
C435 C 0.97132 0.15547 0.41283 0.0
C436 C 0.94846 0.13169 0.43392 0.0
H437 H 0.03226 0.17358 0.39427 0.0
H438 H 0.95459 0.1748 0.39768 0.0
S439 S -0.00554 0.06206 0.4884 0.0
N440 N 0.03635 0.08119 0.46969 0.0
N441 N 0.95222 0.08295 0.47423 0.0
C442 C 0.97133 0.10709 0.45327 0.0
C443 C 0.01681 0.10604 0.45058 0.0
C444 C 0.01874 0.60815 0.0912 0.0
C445 C 0.0388 0.62318 0.05696 0.0
C446 C 0.97415 0.60792 0.09489 0.0
C447 C 0.94832 0.62363 0.06522 0.0
H448 H 0.03766 0.59632 0.11517 0.0
H449 H 0.95985 0.59605 0.12171 0.0
S450 S 0.9853 0.6665 0.96991 0.0
N451 N 0.02966 0.65356 0.99242 0.0
N452 N 0.94575 0.65431 0.00034 0.0
C453 C 0.96797 0.63882 0.03091 0.0
C454 C 0.0133 0.63826 0.02649 0.0
C455 C 0.51698 0.35785 0.53305 0.0
C456 C 0.5377 0.37609 0.56408 0.0
C457 C 0.47235 0.35825 0.52908 0.0
C458 C 0.44712 0.37614 0.55688 0.0
H459 H 0.53538 0.34324 0.51167 0.0
H460 H 0.45743 0.34368 0.50507 0.0
S461 S 0.48584 0.42818 0.64301 0.0
N462 N 0.52974 0.41321 0.62217 0.0
N463 N 0.44577 0.41298 0.61571 0.0
C464 C 0.46743 0.39461 0.5878 0.0
C465 C 0.51281 0.39485 0.59113 0.0
C466 C 0.00969 0.37856 0.93605 0.0
C467 C 0.0341 0.35531 0.91556 0.0
C468 C 0.96501 0.37861 0.93317 0.0
C469 C 0.94315 0.35501 0.91051 0.0
H470 H 0.02524 0.39723 0.9537 0.0
H471 H 0.94747 0.39717 0.94906 0.0
S472 S -0.00768 0.2882 0.85244 0.0
N473 N 0.03323 0.30778 0.87245 0.0
N474 N 0.94925 0.30752 0.86774 0.0
C475 C 0.96717 0.33128 0.89056 0.0
C476 C 0.01266 0.33155 0.89287 0.0
C477 C 0.51852 0.61781 0.4356 0.0
C478 C 0.53947 0.64216 0.41362 0.0
C479 C 0.47393 0.61743 0.43952 0.0
C480 C 0.44859 0.64105 0.42087 0.0
H481 H 0.5367 0.59893 0.45012 0.0
H482 H 0.45918 0.59814 0.45658 0.0
S483 S 0.48775 0.71022 0.3603 0.0
N484 N 0.53149 0.69078 0.37352 0.0
N485 N 0.44768 0.68979 0.38027 0.0
C486 C 0.46911 0.6656 0.39892 0.0
C487 C 0.51455 0.66625 0.39551 0.0
C488 C 0.24739 0.10458 0.23012 0.0
C489 C 0.2561 0.13323 0.20937 0.0
C490 C 0.23077 0.10401 0.27115 0.0
C491 C 0.22208 0.13208 0.29328 0.0
H492 H 0.25367 0.08222 0.21475 0.0
H493 H 0.22478 0.08127 0.28556 0.0
S494 S 0.23844 0.21358 0.25301 0.0
N495 N 0.25422 0.19057 0.21397 0.0
N496 N 0.22303 0.18954 0.29105 0.0
C497 C 0.23037 0.16099 0.27285 0.0
C498 C 0.24732 0.16156 0.23097 0.0
C499 C 0.24923 0.83635 0.77439 0.0
C500 C 0.26368 0.86467 0.79271 0.0
C501 C 0.23033 0.83598 0.73417 0.0
C502 C 0.22536 0.86389 0.71053 0.0
H503 H 0.25205 0.81427 0.79141 0.0
H504 H 0.21943 0.81359 0.72166 0.0
S505 S 0.25974 0.94422 0.7435 0.0
N506 N 0.27296 0.92128 0.78356 0.0
N507 N 0.23761 0.92066 0.7082 0.0
C508 C 0.24026 0.89236 0.72829 0.0
C509 C 0.25933 0.89273 0.76928 0.0
C510 C 0.69701 0.8679 0.75337 0.0
C511 C 0.72136 0.8701 0.79072 0.0
C512 C 0.71654 0.86914 0.71352 0.0
C513 C 0.7611 0.87159 0.70996 0.0
H514 H 0.66275 0.86439 0.75501 0.0
H515 H 0.69695 0.86631 0.68546 0.0
S516 S 0.83885 0.87939 0.79786 0.0
N517 N 0.79195 0.87676 0.82154 0.0
N518 N 0.8289 0.87751 0.74657 0.0
C519 C 0.78564 0.87475 0.74693 0.0
C520 C 0.76567 0.87446 0.78742 0.0
C521 C 0.72048 0.1288 0.2877 0.0
C522 C 0.76529 0.12825 0.2896 0.0
C523 C 0.69923 0.1292 0.24861 0.0
C524 C 0.72216 0.12797 0.21045 0.0
H525 H 0.7019 0.13104 0.31642 0.0
H526 H 0.66475 0.13156 0.24818 0.0
S527 S 0.8397 0.12331 0.19889 0.0
N528 N 0.83184 0.12488 0.25051 0.0
N529 N 0.79171 0.124 0.17699 0.0
C530 C 0.76679 0.12527 0.21208 0.0
C531 C 0.78846 0.12587 0.25178 0.0
C532 C 0.74203 0.66144 0.26187 0.0
C533 C 0.72649 0.63454 0.28291 0.0
C534 C 0.7595 0.65936 0.22118 0.0
C535 C 0.76207 0.63031 0.19975 0.0
H536 H 0.74092 0.68436 0.27695 0.0
H537 H 0.77123 0.68078 0.20656 0.0
S538 S 0.7245 0.55281 0.2403 0.0
N539 N 0.714 0.5779 0.27875 0.0
N540 N 0.74663 0.57401 0.20251 0.0
C541 C 0.74631 0.60321 0.22031 0.0
C542 C 0.72863 0.60532 0.26177 0.0
C543 C 0.72974 0.339 0.71825 0.0
C544 C 0.7194 0.36832 0.70009 0.0
C545 C 0.74641 0.33696 0.75929 0.0
C546 C 0.7533 0.36415 0.78395 0.0
H547 H 0.72538 0.31736 0.70053 0.0
H548 H 0.75433 0.31382 0.77151 0.0
S549 S 0.72918 0.44665 0.75202 0.0
N550 N 0.71571 0.42517 0.71058 0.0
N551 N 0.7469 0.42137 0.78761 0.0
C552 C 0.74237 0.39363 0.76644 0.0
C553 C 0.72551 0.39571 0.72458 0.0
C554 C 0.21743 0.36675 0.70176 0.0
C555 C 0.26162 0.37216 0.69963 0.0
C556 C 0.19699 0.36353 0.74093 0.0
C557 C 0.2199 0.36664 0.77902 0.0
H558 H 0.19912 0.36297 0.67308 0.0
H559 H 0.1633 0.35762 0.74145 0.0
S560 S 0.33545 0.38371 0.79005 0.0
N561 N 0.3273 0.38203 0.73844 0.0
N562 N 0.28839 0.37757 0.8122 0.0
C563 C 0.26352 0.37411 0.77722 0.0
C564 C 0.28457 0.37641 0.73739 0.0
C565 C 0.25422 0.61607 0.264 0.0
C566 C 0.26018 0.64539 0.28406 0.0
C567 C 0.23521 0.61415 0.22373 0.0
C568 C 0.22063 0.64141 0.20277 0.0
H569 H 0.26499 0.59457 0.27914 0.0
H570 H 0.23154 0.59119 0.20914 0.0
S571 S 0.22782 0.72371 0.24241 0.0
N572 N 0.24954 0.70214 0.28017 0.0
N573 N 0.21338 0.69853 0.20526 0.0
C574 C 0.22595 0.67076 0.22286 0.0
C575 C 0.24583 0.67275 0.26332 0.0
loop_
_geom_bond_atom_site_label_1
_geom_bond_atom_site_label_2
_geom_bond_distance
_geom_bond_site_symmetry_2
_ccdc_geom_bond_type
O0 Cd1 2.223 . S
O0 C8 1.315 . S
Cd1 O0 2.223 . S
Cd1 O4 2.297 . S
Cd1 O5 2.439 . S
Cd1 O11 2.240 . S
Cd2 O3 2.240 . S
Cd2 O10 2.223 . S
Cd2 O12 2.297 . S
Cd2 O13 2.439 . S
O3 Cd2 2.240 . S
O3 C8 1.279 . S
O4 Cd1 2.297 . S
O4 C6 1.247 . S
O5 Cd1 2.439 . S
O5 C6 1.208 . S
C6 O4 1.247 . S
C6 O5 1.208 . S
C7 O12 1.247 . S
C7 O13 1.208 . S
C8 O0 1.315 . S
C8 O3 1.279 . S
C9 O10 1.315 . S
C9 O11 1.279 . S
O10 Cd2 2.223 . S
O10 C9 1.315 . S
O11 Cd1 2.240 . S
O11 C9 1.279 . S
O12 Cd2 2.297 . S
O12 C7 1.247 . S
O13 Cd2 2.439 . S
O13 C7 1.208 . S
O14 Cd15 2.223 . S
O14 C22 1.315 . S
Cd15 O14 2.223 . S
Cd15 O18 2.297 . S
Cd15 O19 2.439 . S
Cd15 O25 2.240 . S
Cd16 O17 2.240 . S
Cd16 O24 2.223 . S
Cd16 O26 2.297 . S
Cd16 O27 2.439 . S
O17 Cd16 2.240 . S
O17 C22 1.279 . S
O18 Cd15 2.297 . S
O18 C20 1.247 . S
O19 Cd15 2.439 . S
O19 C20 1.208 . S
C20 O18 1.247 . S
C20 O19 1.208 . S
C21 O26 1.247 . S
C21 O27 1.208 . S
C22 O14 1.315 . S
C22 O17 1.279 . S
C23 O24 1.315 . S
C23 O25 1.279 . S
O24 Cd16 2.223 . S
O24 C23 1.315 . S
O25 Cd15 2.240 . S
O25 C23 1.279 . S
O26 Cd16 2.297 . S
O26 C21 1.247 . S
O27 Cd16 2.439 . S
O27 C21 1.208 . S
O28 Cd29 2.223 . S
O28 C36 1.315 . S
Cd29 O28 2.223 . S
Cd29 O32 2.297 . S
Cd29 O33 2.439 . S
Cd29 O39 2.240 . S
Cd30 O31 2.240 . S
Cd30 O38 2.223 . S
Cd30 O40 2.297 . S
Cd30 O41 2.439 . S
O31 Cd30 2.240 . S
O31 C36 1.279 . S
O32 Cd29 2.297 . S
O32 C34 1.247 . S
O33 Cd29 2.439 . S
O33 C34 1.208 . S
C34 O32 1.247 . S
C34 O33 1.208 . S
C35 O40 1.247 . S
C35 O41 1.208 . S
C36 O28 1.315 . S
C36 O31 1.279 . S
C37 O38 1.315 . S
C37 O39 1.279 . S
O38 Cd30 2.223 . S
O38 C37 1.315 . S
O39 Cd29 2.240 . S
O39 C37 1.279 . S
O40 Cd30 2.297 . S
O40 C35 1.247 . S
O41 Cd30 2.439 . S
O41 C35 1.208 . S
O42 Cd43 2.223 . S
O42 C50 1.315 . S
Cd43 O42 2.223 . S
Cd43 O46 2.297 . S
Cd43 O47 2.439 . S
Cd43 O53 2.240 . S
Cd44 O45 2.240 . S
Cd44 O52 2.223 . S
Cd44 O54 2.297 . S
Cd44 O55 2.439 . S
O45 Cd44 2.240 . S
O45 C50 1.279 . S
O46 Cd43 2.297 . S
O46 C48 1.247 . S
O47 Cd43 2.439 . S
O47 C48 1.208 . S
C48 O46 1.247 . S
C48 O47 1.208 . S
C49 O54 1.247 . S
C49 O55 1.208 . S
C50 O42 1.315 . S
C50 O45 1.279 . S
C51 O52 1.315 . S
C51 O53 1.279 . S
O52 Cd44 2.223 . S
O52 C51 1.315 . S
O53 Cd43 2.240 . S
O53 C51 1.279 . S
O54 Cd44 2.297 . S
O54 C49 1.247 . S
O55 Cd44 2.439 . S
O55 C49 1.208 . S
O56 Cd57 2.223 . S
O56 C64 1.315 . S
Cd57 O56 2.223 . S
Cd57 O60 2.297 . S
Cd57 O61 2.439 . S
Cd57 O67 2.240 . S
Cd58 O59 2.240 . S
Cd58 O66 2.223 . S
Cd58 O68 2.297 . S
Cd58 O69 2.439 . S
O59 Cd58 2.240 . S
O59 C64 1.279 . S
O60 Cd57 2.297 . S
O60 C62 1.247 . S
O61 Cd57 2.439 . S
O61 C62 1.208 . S
C62 O60 1.247 . S
C62 O61 1.208 . S
C63 O68 1.247 . S
C63 O69 1.208 . S
C64 O56 1.315 . S
C64 O59 1.279 . S
C65 O66 1.315 . S
C65 O67 1.279 . S
O66 Cd58 2.223 . S
O66 C65 1.315 . S
O67 Cd57 2.240 . S
O67 C65 1.279 . S
O68 Cd58 2.297 . S
O68 C63 1.247 . S
O69 Cd58 2.439 . S
O69 C63 1.208 . S
O70 Cd71 2.223 . S
O70 C78 1.315 . S
Cd71 O70 2.223 . S
Cd71 O74 2.297 . S
Cd71 O75 2.439 . S
Cd71 O81 2.240 . S
Cd72 O73 2.240 . S
Cd72 O80 2.223 . S
Cd72 O82 2.297 . S
Cd72 O83 2.439 . S
O73 Cd72 2.240 . S
O73 C78 1.279 . S
O74 Cd71 2.297 . S
O74 C76 1.247 . S
O75 Cd71 2.439 . S
O75 C76 1.208 . S
C76 O74 1.247 . S
C76 O75 1.208 . S
C77 O82 1.247 . S
C77 O83 1.208 . S
C78 O70 1.315 . S
C78 O73 1.279 . S
C79 O80 1.315 . S
C79 O81 1.279 . S
O80 Cd72 2.223 . S
O80 C79 1.315 . S
O81 Cd71 2.240 . S
O81 C79 1.279 . S
O82 Cd72 2.297 . S
O82 C77 1.247 . S
O83 Cd72 2.439 . S
O83 C77 1.208 . S
O84 Cd85 2.223 . S
O84 C92 1.315 . S
Cd85 O84 2.223 . S
Cd85 O88 2.297 . S
Cd85 O89 2.439 . S
Cd85 O95 2.240 . S
Cd86 O87 2.240 . S
Cd86 O94 2.223 . S
Cd86 O96 2.297 . S
Cd86 O97 2.439 . S
O87 Cd86 2.240 . S
O87 C92 1.279 . S
O88 Cd85 2.297 . S
O88 C90 1.247 . S
O89 Cd85 2.439 . S
O89 C90 1.208 . S
C90 O88 1.247 . S
C90 O89 1.208 . S
C91 O96 1.247 . S
C91 O97 1.208 . S
C92 O84 1.315 . S
C92 O87 1.279 . S
C93 O94 1.315 . S
C93 O95 1.279 . S
O94 Cd86 2.223 . S
O94 C93 1.315 . S
O95 Cd85 2.240 . S
O95 C93 1.279 . S
O96 Cd86 2.297 . S
O96 C91 1.247 . S
O97 Cd86 2.439 . S
O97 C91 1.208 . S
O98 Cd99 2.223 . S
O98 C106 1.315 . S
Cd99 O98 2.223 . S
Cd99 O102 2.297 . S
Cd99 O103 2.439 . S
Cd99 O109 2.240 . S
Cd100 O101 2.240 . S
Cd100 O108 2.223 . S
Cd100 O110 2.297 . S
Cd100 O111 2.439 . S
O101 Cd100 2.240 . S
O101 C106 1.279 . S
O102 Cd99 2.297 . S
O102 C104 1.247 . S
O103 Cd99 2.439 . S
O103 C104 1.208 . S
C104 O102 1.247 . S
C104 O103 1.208 . S
C105 O110 1.247 . S
C105 O111 1.208 . S
C106 O98 1.315 . S
C106 O101 1.279 . S
C107 O108 1.315 . S
C107 O109 1.279 . S
O108 Cd100 2.223 . S
O108 C107 1.315 . S
O109 Cd99 2.240 . S
O109 C107 1.279 . S
O110 Cd100 2.297 . S
O110 C105 1.247 . S
O111 Cd100 2.439 . S
O111 C105 1.208 . S
O112 Cd113 2.223 . S
O112 C120 1.315 . S
Cd113 O112 2.223 . S
Cd113 O116 2.297 . S
Cd113 O117 2.439 . S
Cd113 O123 2.240 . S
Cd114 O115 2.240 . S
Cd114 O122 2.223 . S
Cd114 O124 2.297 . S
Cd114 O125 2.439 . S
O115 Cd114 2.240 . S
O115 C120 1.279 . S
O116 Cd113 2.297 . S
O116 C118 1.247 . S
O117 Cd113 2.439 . S
O117 C118 1.208 . S
C118 O116 1.247 . S
C118 O117 1.208 . S
C119 O124 1.247 . S
C119 O125 1.208 . S
C120 O112 1.315 . S
C120 O115 1.279 . S
C121 O122 1.315 . S
C121 O123 1.279 . S
O122 Cd114 2.223 . S
O122 C121 1.315 . S
O123 Cd113 2.240 . S
O123 C121 1.279 . S
O124 Cd114 2.297 . S
O124 C119 1.247 . S
O125 Cd114 2.439 . S
O125 C119 1.208 . S
O126 Cd127 2.223 . S
O126 C134 1.315 . S
Cd127 O126 2.223 . S
Cd127 O130 2.297 . S
Cd127 O131 2.439 . S
Cd127 O137 2.240 . S
Cd128 O129 2.240 . S
Cd128 O136 2.223 . S
Cd128 O138 2.297 . S
Cd128 O139 2.439 . S
O129 Cd128 2.240 . S
O129 C134 1.279 . S
O130 Cd127 2.297 . S
O130 C132 1.247 . S
O131 Cd127 2.439 . S
O131 C132 1.208 . S
C132 O130 1.247 . S
C132 O131 1.208 . S
C133 O138 1.247 . S
C133 O139 1.208 . S
C134 O126 1.315 . S
C134 O129 1.279 . S
C135 O136 1.315 . S
C135 O137 1.279 . S
O136 Cd128 2.223 . S
O136 C135 1.315 . S
O137 Cd127 2.240 . S
O137 C135 1.279 . S
O138 Cd128 2.297 . S
O138 C133 1.247 . S
O139 Cd128 2.439 . S
O139 C133 1.208 . S
O140 Cd141 2.223 . S
O140 C148 1.315 . S
Cd141 O140 2.223 . S
Cd141 O144 2.297 . S
Cd141 O145 2.439 . S
Cd141 O151 2.240 . S
Cd142 O143 2.240 . S
Cd142 O150 2.223 . S
Cd142 O152 2.297 . S
Cd142 O153 2.439 . S
O143 Cd142 2.240 . S
O143 C148 1.279 . S
O144 Cd141 2.297 . S
O144 C146 1.247 . S
O145 Cd141 2.439 . S
O145 C146 1.208 . S
C146 O144 1.247 . S
C146 O145 1.208 . S
C147 O152 1.247 . S
C147 O153 1.208 . S
C148 O140 1.315 . S
C148 O143 1.279 . S
C149 O150 1.315 . S
C149 O151 1.279 . S
O150 Cd142 2.223 . S
O150 C149 1.315 . S
O151 Cd141 2.240 . S
O151 C149 1.279 . S
O152 Cd142 2.297 . S
O152 C147 1.247 . S
O153 Cd142 2.439 . S
O153 C147 1.208 . S
O154 Cd155 2.223 . S
O154 C162 1.315 . S
Cd155 O154 2.223 . S
Cd155 O158 2.297 . S
Cd155 O159 2.439 . S
Cd155 O165 2.240 . S
Cd156 O157 2.240 . S
Cd156 O164 2.223 . S
Cd156 O166 2.297 . S
Cd156 O167 2.439 . S
O157 Cd156 2.240 . S
O157 C162 1.279 . S
O158 Cd155 2.297 . S
O158 C160 1.247 . S
O159 Cd155 2.439 . S
O159 C160 1.208 . S
C160 O158 1.247 . S
C160 O159 1.208 . S
C161 O166 1.247 . S
C161 O167 1.208 . S
C162 O154 1.315 . S
C162 O157 1.279 . S
C163 O164 1.315 . S
C163 O165 1.279 . S
O164 Cd156 2.223 . S
O164 C163 1.315 . S
O165 Cd155 2.240 . S
O165 C163 1.279 . S
O166 Cd156 2.297 . S
O166 C161 1.247 . S
O167 Cd156 2.439 . S
O167 C161 1.208 . S
O168 Cd169 2.223 . S
O168 C176 1.315 . S
Cd169 O168 2.223 . S
Cd169 O172 2.297 . S
Cd169 O173 2.439 . S
Cd169 O179 2.240 . S
Cd170 O171 2.240 . S
Cd170 O178 2.223 . S
Cd170 O180 2.297 . S
Cd170 O181 2.439 . S
O171 Cd170 2.240 . S
O171 C176 1.279 . S
O172 Cd169 2.297 . S
O172 C174 1.247 . S
O173 Cd169 2.439 . S
O173 C174 1.208 . S
C174 O172 1.247 . S
C174 O173 1.208 . S
C175 O180 1.247 . S
C175 O181 1.208 . S
C176 O168 1.315 . S
C176 O171 1.279 . S
C177 O178 1.315 . S
C177 O179 1.279 . S
O178 Cd170 2.223 . S
O178 C177 1.315 . S
O179 Cd169 2.240 . S
O179 C177 1.279 . S
O180 Cd170 2.297 . S
O180 C175 1.247 . S
O181 Cd170 2.439 . S
O181 C175 1.208 . S
O182 Cd183 2.223 . S
O182 C190 1.315 . S
Cd183 O182 2.223 . S
Cd183 O186 2.297 . S
Cd183 O187 2.439 . S
Cd183 O193 2.240 . S
Cd184 O185 2.240 . S
Cd184 O192 2.223 . S
Cd184 O194 2.297 . S
Cd184 O195 2.439 . S
O185 Cd184 2.240 . S
O185 C190 1.279 . S
O186 Cd183 2.297 . S
O186 C188 1.247 . S
O187 Cd183 2.439 . S
O187 C188 1.208 . S
C188 O186 1.247 . S
C188 O187 1.208 . S
C189 O194 1.247 . S
C189 O195 1.208 . S
C190 O182 1.315 . S
C190 O185 1.279 . S
C191 O192 1.315 . S
C191 O193 1.279 . S
O192 Cd184 2.223 . S
O192 C191 1.315 . S
O193 Cd183 2.240 . S
O193 C191 1.279 . S
O194 Cd184 2.297 . S
O194 C189 1.247 . S
O195 Cd184 2.439 . S
O195 C189 1.208 . S
O196 Cd197 2.223 . S
O196 C204 1.315 . S
Cd197 O196 2.223 . S
Cd197 O200 2.297 . S
Cd197 O201 2.439 . S
Cd197 O207 2.240 . S
Cd198 O199 2.240 . S
Cd198 O206 2.223 . S
Cd198 O208 2.297 . S
Cd198 O209 2.439 . S
O199 Cd198 2.240 . S
O199 C204 1.279 . S
O200 Cd197 2.297 . S
O200 C202 1.247 . S
O201 Cd197 2.439 . S
O201 C202 1.208 . S
C202 O200 1.247 . S
C202 O201 1.208 . S
C203 O208 1.247 . S
C203 O209 1.208 . S
C204 O196 1.315 . S
C204 O199 1.279 . S
C205 O206 1.315 . S
C205 O207 1.279 . S
O206 Cd198 2.223 . S
O206 C205 1.315 . S
O207 Cd197 2.240 . S
O207 C205 1.279 . S
O208 Cd198 2.297 . S
O208 C203 1.247 . S
O209 Cd198 2.439 . S
O209 C203 1.208 . S
O210 Cd211 2.223 . S
O210 C218 1.315 . S
Cd211 O210 2.223 . S
Cd211 O214 2.297 . S
Cd211 O215 2.439 . S
Cd211 O221 2.240 . S
Cd212 O213 2.240 . S
Cd212 O220 2.223 . S
Cd212 O222 2.297 . S
Cd212 O223 2.439 . S
O213 Cd212 2.240 . S
O213 C218 1.279 . S
O214 Cd211 2.297 . S
O214 C216 1.247 . S
O215 Cd211 2.439 . S
O215 C216 1.208 . S
C216 O214 1.247 . S
C216 O215 1.208 . S
C217 O222 1.247 . S
C217 O223 1.208 . S
C218 O210 1.315 . S
C218 O213 1.279 . S
C219 O220 1.315 . S
C219 O221 1.279 . S
O220 Cd212 2.223 . S
O220 C219 1.315 . S
O221 Cd211 2.240 . S
O221 C219 1.279 . S
O222 Cd212 2.297 . S
O222 C217 1.247 . S
O223 Cd212 2.439 . S
O223 C217 1.208 . S
C224 C225 1.369 . S
C224 C226 1.419 1_554 S
C224 H228 0.930 . S
C225 C224 1.369 . S
C225 C234 1.429 1_554 S
C226 C224 1.419 1_556 S
C226 C227 1.363 . S
C226 H229 0.929 1_556 S
C227 C226 1.363 . S
C227 C233 1.428 . S
H228 C224 0.930 . S
H229 C226 0.929 1_554 S
S230 N231 1.613 . S
S230 N232 1.610 . S
N231 S230 1.613 . S
N231 C234 1.350 . S
N232 S230 1.610 . S
N232 C233 1.351 . S
C233 C227 1.428 . S
C233 N232 1.351 . S
C233 C234 1.434 . S
C234 C225 1.429 1_556 S
C234 N231 1.350 . S
C234 C233 1.434 . S
C235 C236 1.369 . S
C235 C237 1.419 . S
C235 H239 0.930 . S
C236 C235 1.369 . S
C236 C245 1.429 . S
C237 C235 1.419 . S
C237 C238 1.363 . S
C237 H240 0.929 . S
C238 C237 1.363 . S
C238 C244 1.428 . S
H239 C235 0.930 . S
H240 C237 0.929 . S
S241 N242 1.613 . S
S241 N243 1.610 . S
N242 S241 1.613 . S
N242 C245 1.350 . S
N243 S241 1.610 . S
N243 C244 1.351 . S
C244 C238 1.428 . S
C244 N243 1.351 . S
C244 C245 1.434 . S
C245 C236 1.429 . S
C245 N242 1.350 . S
C245 C244 1.434 . S
C246 C247 1.369 1_554 S
C246 C248 1.419 . S
C246 H250 0.930 . S
C247 C246 1.369 1_556 S
C247 C256 1.429 . S
C248 C246 1.419 . S
C248 C249 1.363 . S
C248 H251 0.929 . S
C249 C248 1.363 . S
C249 C255 1.428 1_554 S
H250 C246 0.930 . S
H251 C248 0.929 . S
S252 N253 1.613 . S
S252 N254 1.610 . S
N253 S252 1.613 . S
N253 C256 1.350 . S
N254 S252 1.610 . S
N254 C255 1.351 . S
C255 C249 1.428 1_556 S
C255 N254 1.351 . S
C255 C256 1.434 . S
C256 C247 1.429 . S
C256 N253 1.350 . S
C256 C255 1.434 . S
C257 C258 1.369 . S
C257 C259 1.419 . S
C257 H261 0.930 . S
C258 C257 1.369 . S
C258 C267 1.429 . S
C259 C257 1.419 . S
C259 C260 1.363 . S
C259 H262 0.929 . S
C260 C259 1.363 . S
C260 C266 1.428 . S
H261 C257 0.930 . S
H262 C259 0.929 . S
S263 N264 1.613 . S
S263 N265 1.610 . S
N264 S263 1.613 . S
N264 C267 1.350 . S
N265 S263 1.610 . S
N265 C266 1.351 . S
C266 C260 1.428 . S
C266 N265 1.351 . S
C266 C267 1.434 . S
C267 C258 1.429 . S
C267 N264 1.350 . S
C267 C266 1.434 . S
C268 C269 1.369 1_556 S
C268 C270 1.419 . S
C268 H272 0.930 . S
C269 C268 1.369 1_554 S
C269 C278 1.429 . S
C270 C268 1.419 . S
C270 C271 1.363 . S
C270 H273 0.929 . S
C271 C270 1.363 . S
C271 C277 1.428 . S
H272 C268 0.930 . S
H273 C270 0.929 . S
S274 N275 1.613 . S
S274 N276 1.610 . S
N275 S274 1.613 . S
N275 C278 1.350 . S
N276 S274 1.610 . S
N276 C277 1.351 1_554 S
C277 C271 1.428 . S
C277 N276 1.351 1_556 S
C277 C278 1.434 1_556 S
C278 C269 1.429 . S
C278 N275 1.350 . S
C278 C277 1.434 1_554 S
C279 C280 1.369 . S
C279 C281 1.419 . S
C279 H283 0.930 . S
C280 C279 1.369 . S
C280 C289 1.429 . S
C281 C279 1.419 . S
C281 C282 1.363 . S
C281 H284 0.929 . S
C282 C281 1.363 . S
C282 C288 1.428 . S
H283 C279 0.930 . S
H284 C281 0.929 . S
S285 N286 1.613 . S
S285 N287 1.610 . S
N286 S285 1.613 . S
N286 C289 1.350 . S
N287 S285 1.610 . S
N287 C288 1.351 . S
C288 C282 1.428 . S
C288 N287 1.351 . S
C288 C289 1.434 . S
C289 C280 1.429 . S
C289 N286 1.350 . S
C289 C288 1.434 . S
C290 C291 1.369 . S
C290 C292 1.419 1_556 S
C290 H294 0.930 . S
C291 C290 1.369 . S
C291 C300 1.429 1_556 S
C292 C290 1.419 1_554 S
C292 C293 1.363 . S
C292 H295 0.929 1_554 S
C293 C292 1.363 . S
C293 C299 1.428 . S
H294 C290 0.930 . S
H295 C292 0.929 1_556 S
S296 N297 1.613 . S
S296 N298 1.610 . S
N297 S296 1.613 . S
N297 C300 1.350 . S
N298 S296 1.610 . S
N298 C299 1.351 . S
C299 C293 1.428 . S
C299 N298 1.351 . S
C299 C300 1.434 . S
C300 C291 1.429 1_554 S
C300 N297 1.350 . S
C300 C299 1.434 . S
C301 C302 1.369 . S
C301 C303 1.419 . S
C301 H305 0.930 . S
C302 C301 1.369 . S
C302 C311 1.429 . S
C303 C301 1.419 . S
C303 C304 1.363 . S
C303 H306 0.929 . S
C304 C303 1.363 . S
C304 C310 1.428 . S
H305 C301 0.930 . S
H306 C303 0.929 . S
S307 N308 1.613 . S
S307 N309 1.610 . S
N308 S307 1.613 . S
N308 C311 1.350 . S
N309 S307 1.610 . S
N309 C310 1.351 . S
C310 C304 1.428 . S
C310 N309 1.351 . S
C310 C311 1.434 . S
C311 C302 1.429 . S
C311 N308 1.350 . S
C311 C310 1.434 . S
C312 C313 1.369 1_556 S
C312 C314 1.419 1_545 S
C312 H316 0.930 . S
C313 C312 1.369 1_554 S
C313 C322 1.429 . S
C314 C312 1.419 1_565 S
C314 C315 1.363 . S
C314 H317 0.929 . S
C315 C314 1.363 . S
C315 C321 1.428 1_556 S
H316 C312 0.930 . S
H317 C314 0.929 . S
S318 N319 1.613 1_565 S
S318 N320 1.610 . S
N319 S318 1.613 1_545 S
N319 C322 1.350 . S
N320 S318 1.610 . S
N320 C321 1.351 . S
C321 C315 1.428 1_554 S
C321 N320 1.351 . S
C321 C322 1.434 1_565 S
C322 C313 1.429 . S
C322 N319 1.350 . S
C322 C321 1.434 1_545 S
C323 C324 1.369 . S
C323 C325 1.419 1_565 S
C323 H327 0.930 . S
C324 C323 1.369 . S
C324 C333 1.429 . S
C325 C323 1.419 1_545 S
C325 C326 1.363 . S
C325 H328 0.929 . S
C326 C325 1.363 . S
C326 C332 1.428 . S
H327 C323 0.930 . S
H328 C325 0.929 . S
S329 N330 1.613 1_545 S
S329 N331 1.610 . S
N330 S329 1.613 1_565 S
N330 C333 1.350 . S
N331 S329 1.610 . S
N331 C332 1.351 . S
C332 C326 1.428 . S
C332 N331 1.351 . S
C332 C333 1.434 1_545 S
C333 C324 1.429 . S
C333 N330 1.350 . S
C333 C332 1.434 1_565 S
C334 C335 1.369 1_554 S
C334 C336 1.419 1_565 S
C334 H338 0.930 . S
C335 C334 1.369 1_556 S
C335 C344 1.429 . S
C336 C334 1.419 1_545 S
C336 C337 1.363 . S
C336 H339 0.929 . S
C337 C336 1.363 . S
C337 C343 1.428 1_554 S
H338 C334 0.930 . S
H339 C336 0.929 . S
S340 N341 1.612 1_545 S
S340 N342 1.610 . S
N341 S340 1.612 1_565 S
N341 C344 1.350 . S
N342 S340 1.610 . S
N342 C343 1.351 . S
C343 C337 1.428 1_556 S
C343 N342 1.351 . S
C343 C344 1.434 1_545 S
C344 C335 1.429 . S
C344 N341 1.350 . S
C344 C343 1.434 1_565 S
C345 C346 1.369 . S
C345 C347 1.419 . S
C345 H349 0.930 . S
C346 C345 1.369 . S
C346 C355 1.429 1_545 S
C347 C345 1.419 . S
C347 C348 1.363 1_545 S
C347 H350 0.929 . S
C348 C347 1.363 1_565 S
C348 C354 1.428 . S
H349 C345 0.930 . S
H350 C347 0.929 . S
S351 N352 1.613 . S
S351 N353 1.610 . S
N352 S351 1.613 . S
N352 C355 1.350 . S
N353 S351 1.610 . S
N353 C354 1.351 . S
C354 C348 1.428 . S
C354 N353 1.351 . S
C354 C355 1.434 . S
C355 C346 1.429 1_565 S
C355 N352 1.350 . S
C355 C354 1.434 . S
C356 C357 1.369 1_554 S
C356 C358 1.419 . S
C356 H360 0.930 . S
C357 C356 1.369 1_556 S
C357 C366 1.429 . S
C358 C356 1.419 . S
C358 C359 1.363 . S
C358 H361 0.929 . S
C359 C358 1.363 . S
C359 C365 1.428 1_554 S
H360 C356 0.930 . S
H361 C358 0.929 . S
S362 N363 1.613 . S
S362 N364 1.610 . S
N363 S362 1.613 . S
N363 C366 1.350 . S
N364 S362 1.610 . S
N364 C365 1.351 . S
C365 C359 1.428 1_556 S
C365 N364 1.351 . S
C365 C366 1.434 . S
C366 C357 1.429 . S
C366 N363 1.350 . S
C366 C365 1.434 . S
C367 C368 1.369 . S
C367 C369 1.419 . S
C367 H371 0.930 . S
C368 C367 1.369 . S
C368 C377 1.429 . S
C369 C367 1.419 . S
C369 C370 1.363 . S
C369 H372 0.929 . S
C370 C369 1.363 . S
C370 C376 1.428 . S
H371 C367 0.930 . S
H372 C369 0.929 . S
S373 N374 1.613 . S
S373 N375 1.610 . S
N374 S373 1.613 . S
N374 C377 1.350 . S
N375 S373 1.610 . S
N375 C376 1.351 . S
C376 C370 1.428 . S
C376 N375 1.351 . S
C376 C377 1.434 . S
C377 C368 1.429 . S
C377 N374 1.350 . S
C377 C376 1.434 . S
C378 C379 1.369 . S
C378 C380 1.419 . S
C378 H382 0.930 . S
C379 C378 1.369 . S
C379 C388 1.429 1_554 S
C380 C378 1.419 . S
C380 C381 1.363 1_554 S
C380 H383 0.929 . S
C381 C380 1.363 1_556 S
C381 C387 1.428 . S
H382 C378 0.930 . S
H383 C380 0.929 . S
S384 N385 1.613 . S
S384 N386 1.610 . S
N385 S384 1.613 . S
N385 C388 1.350 . S
N386 S384 1.610 . S
N386 C387 1.351 . S
C387 C381 1.428 . S
C387 N386 1.351 . S
C387 C388 1.434 . S
C388 C379 1.429 1_556 S
C388 N385 1.350 . S
C388 C387 1.434 . S
C389 C390 1.369 . S
C389 C391 1.419 . S
C389 H393 0.930 . S
C390 C389 1.369 . S
C390 C399 1.429 . S
C391 C389 1.419 . S
C391 C392 1.363 . S
C391 H394 0.929 . S
C392 C391 1.363 . S
C392 C398 1.428 . S
H393 C389 0.930 . S
H394 C391 0.929 . S
S395 N396 1.613 . S
S395 N397 1.610 . S
N396 S395 1.613 . S
N396 C399 1.350 . S
N397 S395 1.610 . S
N397 C398 1.351 . S
C398 C392 1.428 . S
C398 N397 1.351 . S
C398 C399 1.434 . S
C399 C390 1.429 . S
C399 N396 1.350 . S
C399 C398 1.434 . S
C400 C401 1.369 . S
C400 C402 1.419 . S
C400 H404 0.930 . S
C401 C400 1.369 . S
C401 C410 1.429 . S
C402 C400 1.419 . S
C402 C403 1.363 . S
C402 H405 0.929 . S
C403 C402 1.363 . S
C403 C409 1.428 . S
H404 C400 0.930 . S
H405 C402 0.929 . S
S406 N407 1.613 1_556 S
S406 N408 1.610 1_556 S
N407 S406 1.613 1_554 S
N407 C410 1.350 . S
N408 S406 1.610 1_554 S
N408 C409 1.351 . S
C409 C403 1.428 . S
C409 N408 1.351 . S
C409 C410 1.434 . S
C410 C401 1.429 . S
C410 N407 1.350 . S
C410 C409 1.434 . S
C411 C412 1.369 . S
C411 C413 1.419 . S
C411 H415 0.930 . S
C412 C411 1.369 . S
C412 C421 1.429 . S
C413 C411 1.419 . S
C413 C414 1.363 . S
C413 H416 0.929 . S
C414 C413 1.363 . S
C414 C420 1.428 . S
H415 C411 0.930 . S
H416 C413 0.929 . S
S417 N418 1.613 . S
S417 N419 1.610 . S
N418 S417 1.613 . S
N418 C421 1.350 . S
N419 S417 1.610 . S
N419 C420 1.351 . S
C420 C414 1.428 . S
C420 N419 1.351 . S
C420 C421 1.434 . S
C421 C412 1.429 . S
C421 N418 1.350 . S
C421 C420 1.434 . S
C422 C423 1.369 . S
C422 C424 1.419 . S
C422 H426 0.930 . S
C423 C422 1.369 . S
C423 C432 1.429 . S
C424 C422 1.419 . S
C424 C425 1.363 . S
C424 H427 0.929 . S
C425 C424 1.363 . S
C425 C431 1.428 . S
H426 C422 0.930 . S
H427 C424 0.929 . S
S428 N429 1.613 1_554 S
S428 N430 1.610 1_554 S
N429 S428 1.613 1_556 S
N429 C432 1.350 . S
N430 S428 1.610 1_556 S
N430 C431 1.351 . S
C431 C425 1.428 . S
C431 N430 1.351 . S
C431 C432 1.434 . S
C432 C423 1.429 . S
C432 N429 1.350 . S
C432 C431 1.434 . S
C433 C434 1.369 . S
C433 C435 1.419 . S
C433 H437 0.930 . S
C434 C433 1.369 . S
C434 C443 1.429 . S
C435 C433 1.419 . S
C435 C436 1.363 . S
C435 H438 0.929 . S
C436 C435 1.363 . S
C436 C442 1.428 . S
H437 C433 0.930 . S
H438 C435 0.929 . S
S439 N440 1.613 . S
S439 N441 1.610 . S
N440 S439 1.613 . S
N440 C443 1.350 . S
N441 S439 1.610 . S
N441 C442 1.351 . S
C442 C436 1.428 . S
C442 N441 1.351 . S
C442 C443 1.434 . S
C443 C434 1.429 . S
C443 N440 1.350 . S
C443 C442 1.434 . S
C444 C445 1.369 . S
C444 C446 1.419 . S
C444 H448 0.930 . S
C445 C444 1.369 . S
C445 C454 1.429 . S
C446 C444 1.419 . S
C446 C447 1.363 . S
C446 H449 0.929 . S
C447 C446 1.363 . S
C447 C453 1.428 . S
H448 C444 0.930 . S
H449 C446 0.929 . S
S450 N451 1.613 1_556 S
S450 N452 1.610 1_556 S
N451 S450 1.613 1_554 S
N451 C454 1.350 . S
N452 S450 1.610 1_554 S
N452 C453 1.351 . S
C453 C447 1.428 . S
C453 N452 1.351 . S
C453 C454 1.434 . S
C454 C445 1.429 . S
C454 N451 1.350 . S
C454 C453 1.434 . S
C455 C456 1.369 . S
C455 C457 1.419 . S
C455 H459 0.930 . S
C456 C455 1.369 . S
C456 C465 1.429 . S
C457 C455 1.419 . S
C457 C458 1.363 . S
C457 H460 0.929 . S
C458 C457 1.363 . S
C458 C464 1.428 . S
H459 C455 0.930 . S
H460 C457 0.929 . S
S461 N462 1.613 . S
S461 N463 1.610 . S
N462 S461 1.613 . S
N462 C465 1.350 . S
N463 S461 1.610 . S
N463 C464 1.351 . S
C464 C458 1.428 . S
C464 N463 1.351 . S
C464 C465 1.434 . S
C465 C456 1.429 . S
C465 N462 1.350 . S
C465 C464 1.434 . S
C466 C467 1.369 . S
C466 C468 1.419 . S
C466 H470 0.930 . S
C467 C466 1.369 . S
C467 C476 1.429 . S
C468 C466 1.419 . S
C468 C469 1.363 . S
C468 H471 0.929 . S
C469 C468 1.363 . S
C469 C475 1.428 . S
H470 C466 0.930 . S
H471 C468 0.929 . S
S472 N473 1.613 . S
S472 N474 1.610 . S
N473 S472 1.613 . S
N473 C476 1.350 . S
N474 S472 1.610 . S
N474 C475 1.351 . S
C475 C469 1.428 . S
C475 N474 1.351 . S
C475 C476 1.434 . S
C476 C467 1.429 . S
C476 N473 1.350 . S
C476 C475 1.434 . S
C477 C478 1.369 . S
C477 C479 1.419 . S
C477 H481 0.930 . S
C478 C477 1.369 . S
C478 C487 1.429 . S
C479 C477 1.419 . S
C479 C480 1.363 . S
C479 H482 0.929 . S
C480 C479 1.363 . S
C480 C486 1.428 . S
H481 C477 0.930 . S
H482 C479 0.929 . S
S483 N484 1.613 . S
S483 N485 1.610 . S
N484 S483 1.613 . S
N484 C487 1.350 . S
N485 S483 1.610 . S
N485 C486 1.351 . S
C486 C480 1.428 . S
C486 N485 1.351 . S
C486 C487 1.434 . S
C487 C478 1.429 . S
C487 N484 1.350 . S
C487 C486 1.434 . S
C488 C489 1.369 . S
C488 C490 1.419 . S
C488 H492 0.930 . S
C489 C488 1.369 . S
C489 C498 1.429 . S
C490 C488 1.419 . S
C490 C491 1.363 . S
C490 H493 0.929 . S
C491 C490 1.363 . S
C491 C497 1.428 . S
H492 C488 0.930 . S
H493 C490 0.929 . S
S494 N495 1.613 . S
S494 N496 1.610 . S
N495 S494 1.613 . S
N495 C498 1.350 . S
N496 S494 1.610 . S
N496 C497 1.351 . S
C497 C491 1.428 . S
C497 N496 1.351 . S
C497 C498 1.434 . S
C498 C489 1.429 . S
C498 N495 1.350 . S
C498 C497 1.434 . S
C499 C500 1.369 . S
C499 C501 1.419 . S
C499 H503 0.930 . S
C500 C499 1.369 . S
C500 C509 1.429 . S
C501 C499 1.419 . S
C501 C502 1.363 . S
C501 H504 0.929 . S
C502 C501 1.363 . S
C502 C508 1.428 . S
H503 C499 0.930 . S
H504 C501 0.929 . S
S505 N506 1.613 . S
S505 N507 1.610 . S
N506 S505 1.613 . S
N506 C509 1.350 . S
N507 S505 1.610 . S
N507 C508 1.351 . S
C508 C502 1.428 . S
C508 N507 1.351 . S
C508 C509 1.434 . S
C509 C500 1.429 . S
C509 N506 1.350 . S
C509 C508 1.434 . S
C510 C511 1.369 . S
C510 C512 1.419 . S
C510 H514 0.930 . S
C511 C510 1.369 . S
C511 C520 1.429 . S
C512 C510 1.419 . S
C512 C513 1.363 . S
C512 H515 0.929 . S
C513 C512 1.363 . S
C513 C519 1.428 . S
H514 C510 0.930 . S
H515 C512 0.929 . S
S516 N517 1.613 . S
S516 N518 1.610 . S
N517 S516 1.613 . S
N517 C520 1.350 . S
N518 S516 1.610 . S
N518 C519 1.351 . S
C519 C513 1.428 . S
C519 N518 1.351 . S
C519 C520 1.434 . S
C520 C511 1.429 . S
C520 N517 1.350 . S
C520 C519 1.434 . S
C521 C522 1.369 . S
C521 C523 1.419 . S
C521 H525 0.930 . S
C522 C521 1.369 . S
C522 C531 1.429 . S
C523 C521 1.419 . S
C523 C524 1.363 . S
C523 H526 0.929 . S
C524 C523 1.363 . S
C524 C530 1.428 . S
H525 C521 0.930 . S
H526 C523 0.929 . S
S527 N528 1.613 . S
S527 N529 1.610 . S
N528 S527 1.613 . S
N528 C531 1.350 . S
N529 S527 1.610 . S
N529 C530 1.351 . S
C530 C524 1.428 . S
C530 N529 1.351 . S
C530 C531 1.434 . S
C531 C522 1.429 . S
C531 N528 1.350 . S
C531 C530 1.434 . S
C532 C533 1.369 . S
C532 C534 1.419 . S
C532 H536 0.930 . S
C533 C532 1.369 . S
C533 C542 1.429 . S
C534 C532 1.419 . S
C534 C535 1.363 . S
C534 H537 0.929 . S
C535 C534 1.363 . S
C535 C541 1.428 . S
H536 C532 0.930 . S
H537 C534 0.929 . S
S538 N539 1.613 . S
S538 N540 1.610 . S
N539 S538 1.613 . S
N539 C542 1.350 . S
N540 S538 1.610 . S
N540 C541 1.351 . S
C541 C535 1.428 . S
C541 N540 1.351 . S
C541 C542 1.434 . S
C542 C533 1.429 . S
C542 N539 1.350 . S
C542 C541 1.434 . S
C543 C544 1.369 . S
C543 C545 1.419 . S
C543 H547 0.930 . S
C544 C543 1.369 . S
C544 C553 1.429 . S
C545 C543 1.419 . S
C545 C546 1.363 . S
C545 H548 0.929 . S
C546 C545 1.363 . S
C546 C552 1.428 . S
H547 C543 0.930 . S
H548 C545 0.929 . S
S549 N550 1.613 . S
S549 N551 1.610 . S
N550 S549 1.613 . S
N550 C553 1.350 . S
N551 S549 1.610 . S
N551 C552 1.351 . S
C552 C546 1.428 . S
C552 N551 1.351 . S
C552 C553 1.434 . S
C553 C544 1.429 . S
C553 N550 1.350 . S
C553 C552 1.434 . S
C554 C555 1.369 . S
C554 C556 1.419 . S
C554 H558 0.930 . S
C555 C554 1.369 . S
C555 C564 1.429 . S
C556 C554 1.419 . S
C556 C557 1.363 . S
C556 H559 0.929 . S
C557 C556 1.363 . S
C557 C563 1.428 . S
H558 C554 0.930 . S
H559 C556 0.929 . S
S560 N561 1.613 . S
S560 N562 1.610 . S
N561 S560 1.613 . S
N561 C564 1.350 . S
N562 S560 1.610 . S
N562 C563 1.351 . S
C563 C557 1.428 . S
C563 N562 1.351 . S
C563 C564 1.434 . S
C564 C555 1.429 . S
C564 N561 1.350 . S
C564 C563 1.434 . S
C565 C566 1.369 . S
C565 C567 1.419 . S
C565 H569 0.930 . S
C566 C565 1.369 . S
C566 C575 1.429 . S
C567 C565 1.419 . S
C567 C568 1.363 . S
C567 H570 0.929 . S
C568 C567 1.363 . S
C568 C574 1.428 . S
H569 C565 0.930 . S
H570 C567 0.929 . S
S571 N572 1.613 . S
S571 N573 1.610 . S
N572 S571 1.613 . S
N572 C575 1.350 . S
N573 S571 1.610 . S
N573 C574 1.351 . S
C574 C568 1.428 . S
C574 N573 1.351 . S
C574 C575 1.434 . S
C575 C566 1.429 . S
C575 N572 1.350 . S
C575 C574 1.434 . S
C225 C6 1.603 . S
C227 C176 1.686 . S
C236 C190 1.687 . S
C238 C20 1.603 . S
C247 C34 1.604 . S
C249 C204 1.687 . S
C258 C218 1.687 . S
C260 C48 1.606 . S
C269 C118 1.602 . S
C271 C64 1.687 . S
C280 C78 1.686 . S
C282 C132 1.603 . S
C291 C146 1.603 . S
C293 C92 1.687 . S
C302 C106 1.688 . S
C304 C160 1.606 . S
C313 C7 1.612 . S
C315 C35 1.622 . S
C324 C21 1.612 . S
C326 C49 1.622 . S
C335 C63 1.427 . S
C337 C91 1.419 . S
C346 C77 1.427 . S
C348 C105 1.419 . S
C357 C147 1.611 . S
C359 C119 1.622 . S
C368 C133 1.622 . S
C370 C161 1.614 . S
C379 C203 1.417 . S
C381 C175 1.427 . S
C390 C189 1.428 . S
C392 C217 1.418 . S
C401 C93 1.569 . S
C403 C9 1.602 . S
C412 C107 1.572 1_455 S
C414 C23 1.603 . S
C423 C37 1.602 . S
C425 C65 1.569 . S
C434 C51 1.602 . S
C436 C79 1.567 1_455 S
C445 C205 1.572 1_655 S
C447 C121 1.603 . S
C456 C135 1.606 . S
C458 C219 1.569 . S
C467 C177 1.573 1_655 S
C469 C149 1.604 . S
C478 C163 1.603 . S
C480 C191 1.572 . S
C489 C8 1.598 . S
C491 C50 1.598 . S
C500 C36 1.600 . S
C502 C22 1.600 . S
C511 C62 1.519 . S
C513 C104 1.514 . S
C522 C76 1.513 . S
C524 C90 1.517 . S
C533 C162 1.599 . S
C535 C120 1.600 . S
C544 C134 1.600 . S
C546 C148 1.600 . S
C555 C216 1.513 . S
C557 C174 1.518 . S
C566 C188 1.517 . S
C568 C202 1.513 . S
