# Generated by pormake.
# Topology uon, (4)-cn, num edge types: 1
# Building blocks:
#     Node 0, Type 0, BuildingBlock: ESEHIV_clean_sbu_0, # of connection points: 4
#     Node 1, Type 0, BuildingBlock: ESEHIV_clean_sbu_0, # of connection points: 4
#     Node 2, Type 0, BuildingBlock: ESEHIV_clean_sbu_0, # of connection points: 4
#     Node 3, Type 0, BuildingBlock: ESEHIV_clean_sbu_0, # of connection points: 4
#     Node 4, Type 0, BuildingBlock: ESEHIV_clean_sbu_0, # of connection points: 4
#     Node 5, Type 0, BuildingBlock: ESEHIV_clean_sbu_0, # of connection points: 4
#     Edge 6, Type (0, 0), BuildingBlock: TEMPAE_clean_linker_10, # of connection points: 2
#     Edge 7, Type (0, 0), BuildingBlock: TEMPAE_clean_linker_10, # of connection points: 2
#     Edge 8, Type (0, 0), BuildingBlock: TEMPAE_clean_linker_10, # of connection points: 2
#     Edge 9, Type (0, 0), BuildingBlock: TEMPAE_clean_linker_10, # of connection points: 2
#     Edge 10, Type (0, 0), BuildingBlock: TEMPAE_clean_linker_10, # of connection points: 2
#     Edge 11, Type (0, 0), BuildingBlock: TEMPAE_clean_linker_10, # of connection points: 2
#     Edge 12, Type (0, 0), BuildingBlock: TEMPAE_clean_linker_10, # of connection points: 2
#     Edge 13, Type (0, 0), BuildingBlock: TEMPAE_clean_linker_10, # of connection points: 2
#     Edge 14, Type (0, 0), BuildingBlock: TEMPAE_clean_linker_10, # of connection points: 2
#     Edge 15, Type (0, 0), BuildingBlock: TEMPAE_clean_linker_10, # of connection points: 2
#     Edge 16, Type (0, 0), BuildingBlock: TEMPAE_clean_linker_10, # of connection points: 2
#     Edge 17, Type (0, 0), BuildingBlock: TEMPAE_clean_linker_10, # of connection points: 2
# Relax obj value: 0.074
# Max RMSD: 0.073
# Mean RMSD: 0.073
data_MOF--net-uon--node1-ESEHIV_clean_sbu_0--edge1-TEMPAE_clean_linker_10
_symmetry_space_group_name_H-M    P1
_symmetry_Int_Tables_number       1
_symmetry_cell_setting            triclinic
loop_
_symmetry_equiv_pos_as_xyz
'x, y, z'
_cell_length_a     34.945409
_cell_length_b     34.980415
_cell_length_c     27.834098
_cell_angle_alpha  90.253462
_cell_angle_beta   90.115569
_cell_angle_gamma 119.54383
loop_
_atom_site_label
_atom_site_type_symbol
_atom_site_fract_x
_atom_site_fract_y
_atom_site_fract_z
_atom_type_partial_charge
Cu0 Cu 0.2251 0.43823 0.96946 0.0
N1 N 0.23282 0.47118 0.91402 0.0
N2 N 0.26763 0.51325 0.85088 0.0
C3 C 0.26663 0.48414 0.88322 0.0
C4 C 0.23285 0.51855 0.86156 0.0
C5 C 0.21125 0.49232 0.9004 0.0
O6 O 0.26166 0.41104 0.95879 0.0
C7 C 0.26719 0.51871 0.02279 0.0
O8 O 0.28894 0.53446 0.98266 0.0
H9 H 0.292 0.47511 0.88686 0.0
H10 H 0.1834 0.49071 0.9191 0.0
N11 N 0.1659 0.39486 0.97422 0.0
N12 N 0.09867 0.35065 1.00395 0.0
C13 C 0.14048 0.38234 1.01382 0.0
C14 C 0.13947 0.37044 0.93807 0.0
C15 C 0.09811 0.34318 0.9562 0.0
C16 C 0.25803 0.37635 0.97775 0.0
O17 O 0.23003 0.35741 1.01293 0.0
H18 H 0.15264 0.39603 0.04915 0.0
H19 H 0.14955 0.37268 0.901 0.0
O20 O 0.24057 0.47749 0.02571 0.0
H21 H 0.22481 0.54124 0.84396 0.0
H22 H 0.06968 0.32024 0.93549 0.0
Cu23 Cu 0.8303 0.23529 0.33312 0.0
N24 N 0.86606 0.29652 0.32998 0.0
N25 N 0.89399 0.36218 0.29457 0.0
C26 C 0.87052 0.31827 0.28871 0.0
C27 C 0.90493 0.36862 0.34161 0.0
C28 C 0.88816 0.32792 0.36334 0.0
O29 O 0.83989 0.2171 0.26989 0.0
C30 C 0.76758 0.23816 0.38877 0.0
O31 O 0.80416 0.26522 0.41132 0.0
H32 H 0.85461 0.30215 0.25538 0.0
H33 H 0.89051 0.32183 0.401 0.0
N34 N 0.84414 0.20718 0.3817 0.0
N35 N 0.83055 0.15363 0.43419 0.0
C36 C 0.81527 0.16636 0.39649 0.0
C37 C 0.87921 0.22114 0.41105 0.0
C38 C 0.87101 0.18798 0.44335 0.0
C39 C 0.87533 0.21542 0.2649 0.0
O40 O 0.8969 0.21559 0.30364 0.0
H41 H 0.78321 0.14667 0.38013 0.0
H42 H 0.90813 0.25335 0.40977 0.0
O43 O 0.77017 0.22109 0.34912 0.0
H44 H 0.92271 0.40036 0.35917 0.0
H45 H 0.89244 0.18972 0.47242 0.0
Cu46 Cu 0.60671 0.82133 0.7002 0.0
N47 N 0.56465 0.83889 0.70967 0.0
N48 N 0.50404 0.84099 0.6875 0.0
C49 C 0.54004 0.83951 0.67276 0.0
C50 C 0.50625 0.84164 0.736 0.0
C51 C 0.54373 0.8403 0.74962 0.0
O52 O 0.64255 0.85666 0.64625 0.0
C53 C 0.55194 0.73852 0.73091 0.0
O54 O 0.56397 0.76161 0.77091 0.0
H55 H 0.54629 0.83458 0.6358 0.0
H56 H 0.55305 0.83705 0.78581 0.0
N57 N 0.64472 0.83094 0.75267 0.0
N58 N 0.68837 0.81997 0.80325 0.0
C59 C 0.66279 0.80566 0.76347 0.0
C60 C 0.65942 0.86241 0.78687 0.0
C61 C 0.68651 0.85584 0.81796 0.0
C62 C 0.66035 0.89788 0.65468 0.0
O63 O 0.65314 0.91048 0.6966 0.0
H64 H 0.65688 0.77699 0.74273 0.0
H65 H 0.65054 0.8879 0.78951 0.0
O66 O 0.56935 0.75786 0.69153 0.0
H67 H 0.48148 0.84083 0.75991 0.0
H68 H 0.70241 0.87507 0.84983 0.0
Cu69 Cu 0.80251 0.59301 0.04992 0.0
N70 N 0.74232 0.55498 0.03833 0.0
N71 N 0.68315 0.51105 0.99366 0.0
C72 C 0.72704 0.53839 0.99425 0.0
C73 C 0.67017 0.51043 0.03948 0.0
C74 C 0.70673 0.53784 0.06695 0.0
O75 O 0.81612 0.64158 1.00594 0.0
C76 C 0.81462 0.52262 0.06533 0.0
O77 O 0.77459 0.50828 0.08142 0.0
H78 H 0.74822 0.54531 0.9634 0.0
H79 H 0.70729 0.544 0.10508 0.0
N80 N 0.81936 0.61499 0.11258 0.0
N81 N 0.86649 0.63851 0.17497 0.0
C82 C 0.86122 0.63052 0.12722 0.0
C83 C 0.79692 0.61334 0.15248 0.0
C84 C 0.82601 0.62811 0.191 0.0
C85 C 0.79518 0.66172 1.01689 0.0
O86 O 0.77344 0.65151 0.05759 0.0
H87 H 0.88711 0.63459 0.10298 0.0
H88 H 0.76184 0.60079 0.15399 0.0
O89 O 0.83348 0.55937 0.04336 0.0
H90 H 0.63676 0.4914 0.05232 0.0
H91 H 0.81748 0.62918 0.22814 0.0
Cu92 Cu 0.24999 0.80932 0.35664 0.0
N93 N 0.27738 0.7888 0.31367 0.0
N94 N 0.29019 0.74555 0.26425 0.0
C95 C 0.25925 0.75153 0.28693 0.0
C96 C 0.32903 0.78055 0.27698 0.0
C97 C 0.32104 0.80705 0.30729 0.0
O98 O 0.18798 0.78462 0.33922 0.0
C99 C 0.27541 0.77252 0.43402 0.0
O100 O 0.27459 0.74468 0.40165 0.0
H101 H 0.2243 0.72849 0.28558 0.0
H102 H 0.34542 0.83704 0.32457 0.0
N103 N 0.27614 0.87064 0.3528 0.0
N104 N 0.30402 0.94086 0.37633 0.0
C105 C 0.28801 0.89873 0.39042 0.0
C106 C 0.285 0.89575 0.31346 0.0
C107 C 0.30213 0.93904 0.32782 0.0
C108 C 0.15752 0.74522 0.34584 0.0
O109 O 0.16666 0.71782 0.36853 0.0
H110 H 0.28378 0.88822 0.42747 0.0
H111 H 0.27894 0.88337 0.27694 0.0
O112 O 0.26156 0.79882 0.42262 0.0
H113 H 0.36105 0.78653 0.26534 0.0
H114 H 0.31246 0.96695 0.30431 0.0
Cu115 Cu 0.46203 0.22585 0.68453 0.0
N116 N 0.4926 0.19541 0.67279 0.0
N117 N 0.53249 0.17459 0.62812 0.0
C118 C 0.51395 0.2004 0.6311 0.0
C119 C 0.52254 0.15244 0.67005 0.0
C120 C 0.49747 0.16506 0.69744 0.0
O121 O 0.42921 0.21486 0.62425 0.0
C122 C 0.53314 0.29224 0.73144 0.0
O123 O 0.53582 0.25775 0.74507 0.0
H124 H 0.51619 0.22317 0.60358 0.0
H125 H 0.48375 0.15293 0.73255 0.0
N126 N 0.42517 0.2081 0.73846 0.0
N127 N 0.38851 0.21682 0.79956 0.0
C128 C 0.41836 0.23673 0.76458 0.0
C129 C 0.39906 0.16847 0.75811 0.0
C130 C 0.37591 0.17372 0.79555 0.0
C131 C 0.39058 0.18189 0.62017 0.0
O132 O 0.3675 0.16486 0.65921 0.0
H133 H 0.4338 0.27149 0.75682 0.0
H134 H 0.39599 0.13786 0.74518 0.0
O135 O 0.50437 0.28705 0.69991 0.0
H136 H 0.53221 0.12851 0.67999 0.0
H137 H 0.35146 0.14793 0.81773 0.0
C138 C 0.28843 0.32436 0.9817 0.0
C139 C 0.28123 0.35457 0.95576 0.0
C140 C 0.30815 0.3019 0.95995 0.0
C141 C 0.31965 0.30871 0.91065 0.0
C142 C 0.31266 0.3394 0.88445 0.0
C143 C 0.29418 0.36232 0.90744 0.0
C144 C 0.31645 0.27071 0.98963 0.0
C145 C 0.32347 0.3471 0.83164 0.0
C146 C 0.40002 0.2784 0.85253 0.0
C147 C 0.3715 0.23764 0.8312 0.0
C148 C 0.3838 0.30089 0.88046 0.0
C149 C 0.33775 0.28296 0.88581 0.0
C150 C 0.30885 0.24144 0.86482 0.0
C151 C 0.32613 0.21901 0.8384 0.0
C152 C 0.41599 0.34435 0.90318 0.0
C153 C 0.25958 0.22157 0.86842 0.0
H154 H 0.27875 0.31835 1.01909 0.0
H155 H 0.28842 0.3853 0.88693 0.0
H156 H 0.29625 0.23669 0.97576 0.0
H157 H 0.35145 0.27926 0.98669 0.0
H158 H 0.30852 0.27133 0.02816 0.0
H159 H 0.31571 0.37177 0.81629 0.0
H160 H 0.35889 0.3586 0.82595 0.0
H161 H 0.30463 0.31578 0.81143 0.0
H162 H 0.43515 0.29271 0.84715 0.0
H163 H 0.30407 0.18779 0.82143 0.0
H164 H 0.4071 0.34567 0.94117 0.0
H165 H 0.41482 0.37143 0.88389 0.0
H166 H 0.45028 0.35032 0.90199 0.0
H167 H 0.24957 0.2185 0.90661 0.0
H168 H 0.24164 0.18862 0.85114 0.0
H169 H 0.24929 0.24352 0.85089 0.0
C170 C 0.93496 0.21852 0.21336 0.0
C171 C 0.89883 0.22539 0.21826 0.0
C172 C 0.96438 0.23654 0.17495 0.0
C173 C 0.95763 0.26213 0.14026 0.0
C174 C 0.91976 0.26704 0.14333 0.0
C175 C 0.89065 0.24842 0.18221 0.0
C176 C 1.00424 0.23042 0.17325 0.0
C177 C 0.91099 0.29347 0.10666 0.0
C178 C 0.062 0.34976 0.0805 0.0
C179 C 0.06229 0.32924 0.03713 0.0
C180 C 1.02749 0.32882 0.11359 0.0
C181 C 0.9921 0.28624 0.10321 0.0
C182 C 0.99153 0.26577 0.05903 0.0
C183 C 1.0266 0.28738 0.02669 0.0
C184 C 0.0293 0.352 0.16017 0.0
C185 C 0.95441 0.22053 0.04645 0.0
H186 H 0.94147 0.20068 0.24097 0.0
H187 H 0.86297 0.25411 0.1858 0.0
H188 H 1.00718 0.21831 0.13732 0.0
H189 H 0.03441 0.26253 0.17938 0.0
H190 H 1.003 0.20696 0.2008 0.0
H191 H 0.88158 0.29642 0.11562 0.0
H192 H 0.93984 0.32693 0.10385 0.0
H193 H 0.90593 0.2777 0.07079 0.0
H194 H 0.08876 0.38235 0.08868 0.0
H195 H 1.02645 0.27088 0.99366 0.0
H196 H 0.03085 0.3327 0.19091 0.0
H197 H 0.999 0.35442 0.16439 0.0
H198 H 0.05824 0.3856 0.16216 0.0
H199 H 0.95455 0.19608 0.07159 0.0
H200 H 0.95698 0.21057 1.00917 0.0
H201 H 0.92229 0.2194 0.05045 0.0
C202 C 0.82942 0.09532 0.48549 0.0
C203 C 0.80688 0.11333 0.4611 0.0
C204 C 0.80669 0.05704 0.51325 0.0
C205 C 0.76028 0.0364 0.51713 0.0
C206 C 0.73727 0.05382 0.49161 0.0
C207 C 0.76078 0.09191 0.46396 0.0
C208 C 0.8325 0.03956 0.53977 0.0
C209 C 0.68792 0.0334 0.49519 0.0
C210 C 0.69316 0.92174 0.57168 0.0
C211 C 0.68747 0.93215 0.61892 0.0
C212 C 0.71744 0.95522 0.53813 0.0
C213 C 0.73631 0.99999 0.55219 0.0
C214 C 0.73117 1.01047 0.6 0.0
C215 C 0.70703 0.97662 0.63256 0.0
C216 C 0.72233 0.94277 0.48748 0.0
C217 C 0.75049 0.05762 0.6167 0.0
H218 H 0.86492 0.11129 0.48299 0.0
H219 H 0.74301 0.1058 0.44592 0.0
H220 H 0.83046 0.04388 0.57902 0.0
H221 H 0.81826 1.00385 0.53275 0.0
H222 H 0.86773 0.05661 0.52935 0.0
H223 H 0.67459 0.04852 0.46996 0.0
H224 H 0.67177 0.99762 0.48761 0.0
H225 H 0.67891 0.03749 0.53231 0.0
H226 H 0.67822 0.88757 0.56078 0.0
H227 H 0.70316 0.98529 0.66895 0.0
H228 H 0.75763 0.9588 0.47771 0.0
H229 H 0.70616 0.95473 0.46201 0.0
H230 H 0.7076 0.90667 0.48275 0.0
H231 H 0.78652 0.07565 0.61062 0.0
H232 H 0.74434 0.06023 0.6554 0.0
H233 H 0.73614 0.07434 0.59556 0.0
C234 C 0.76282 0.70935 0.99706 0.0
C235 C 0.78859 0.6907 0.98266 0.0
C236 C 0.75049 0.73198 0.96469 0.0
C237 C 0.76482 0.73708 0.91646 0.0
C238 C 0.79258 0.72021 0.90199 0.0
C239 C 0.80391 0.69689 0.93518 0.0
C240 C 0.72056 0.74895 0.98184 0.0
C241 C 0.8093 0.72573 0.85116 0.0
C242 C 0.68992 0.75327 0.8293 0.0
C243 C 0.70995 0.79922 0.82739 0.0
C244 C 0.70852 0.73255 0.8563 0.0
C245 C 0.74866 0.75835 0.88138 0.0
C246 C 0.77021 0.80474 0.87743 0.0
C247 C 0.75034 0.8246 0.85102 0.0
C248 C 0.68387 0.68309 0.86017 0.0
C249 C 0.81345 0.8335 0.90262 0.0
H250 H 0.75087 0.70509 0.03363 0.0
H251 H 0.82377 0.68265 0.92362 0.0
H252 H 0.73602 0.78478 0.97541 0.0
H253 H 0.68923 0.73278 0.96123 0.0
H254 H 0.71284 0.74286 0.02069 0.0
H255 H 0.83426 0.71509 0.84688 0.0
H256 H 0.78147 0.706 0.82635 0.0
H257 H 0.82399 0.76059 0.84011 0.0
H258 H 0.65855 0.73351 0.81147 0.0
H259 H 0.76624 0.8601 0.84908 0.0
H260 H 0.67215 0.6736 0.89756 0.0
H261 H 0.70593 0.66957 0.85193 0.0
H262 H 0.65501 0.66761 0.83557 0.0
H263 H 0.8081 0.83251 0.94197 0.0
H264 H 0.82884 0.86825 0.8908 0.0
H265 H 0.83674 0.82115 0.8959 0.0
C266 C 0.94029 0.64552 0.18481 0.0
C267 C 0.90649 0.65236 0.20266 0.0
C268 C 0.98009 0.66037 0.20997 0.0
C269 C 0.9863 0.68188 0.25487 0.0
C270 C 0.95199 0.68787 0.27386 0.0
C271 C 0.91266 0.67326 0.2475 0.0
C272 C 1.01567 0.65326 0.1882 0.0
C273 C 0.95707 0.71026 0.3218 0.0
C274 C 0.07813 0.68727 0.33431 0.0
C275 C 0.11281 0.72979 0.32513 0.0
C276 C 0.03644 0.67167 0.31286 0.0
C277 C 0.02921 0.69904 0.28106 0.0
C278 C 0.06387 0.74221 0.27227 0.0
C279 C 0.10504 0.75708 0.29451 0.0
C280 C 1.00034 0.62559 0.32355 0.0
C281 C 0.05789 0.77229 0.2381 0.0
H282 H 0.93576 0.62833 0.15105 0.0
H283 H 0.88704 0.67892 0.26169 0.0
H284 H 0.04726 0.68467 0.18712 0.0
H285 H 1.02091 0.63016 0.21075 0.0
H286 H 1.00731 0.63965 0.15114 0.0
H287 H 0.92665 0.71055 0.33272 0.0
H288 H 0.9657 0.69343 0.34998 0.0
H289 H 0.9844 0.74468 0.32012 0.0
H290 H 0.08362 0.66591 0.35798 0.0
H291 H 0.13152 0.78993 0.28697 0.0
H292 H 0.9913 0.60531 0.29031 0.0
H293 H 0.97043 0.6261 0.33592 0.0
H294 H 1.01024 0.60946 0.3514 0.0
H295 H 0.05077 0.7577 0.20145 0.0
H296 H 0.08747 0.80545 0.23645 0.0
H297 H 0.02936 0.77593 0.24912 0.0
C298 C 0.33376 0.12001 0.57054 0.0
C299 C 0.37703 0.15486 0.57537 0.0
C300 C 0.32217 0.08796 0.53435 0.0
C301 C 0.35463 0.09052 0.50205 0.0
C302 C 0.39774 0.12715 0.50478 0.0
C303 C 0.40842 0.15886 0.54135 0.0
C304 C 0.27566 0.04994 0.53246 0.0
C305 C 0.43361 0.13162 0.4713 0.0
C306 C 0.33586 0.98065 0.45276 0.0
C307 C 0.31851 0.97927 0.40684 0.0
C308 C 0.34878 0.0171 0.48345 0.0
C309 C 0.34401 0.05314 0.46819 0.0
C310 C 0.32732 0.05237 0.42156 0.0
C311 C 0.31488 1.01557 0.39147 0.0
C312 C 0.36714 0.0168 0.53251 0.0
C313 C 0.32202 0.09019 0.40375 0.0
H314 H 0.30922 0.11665 0.59651 0.0
H315 H 0.44207 0.18535 0.54486 0.0
H316 H 0.26227 0.04537 0.49541 0.0
H317 H 0.27553 0.01921 0.54253 0.0
H318 H 0.25342 0.05471 0.55717 0.0
H319 H 0.46016 0.16637 0.46862 0.0
H320 H 0.44825 0.11207 0.48546 0.0
H321 H 0.42068 0.11922 0.43471 0.0
H322 H 0.33958 0.95324 0.46469 0.0
H323 H 0.30127 1.0148 0.35627 0.0
H324 H 0.34567 0.01855 0.56073 0.0
H325 H 0.40019 0.04614 0.53693 0.0
H326 H 0.36993 0.98688 0.5385 0.0
H327 H 0.29838 0.09418 0.42687 0.0
H328 H 0.31003 0.08533 0.36601 0.0
H329 H 0.35392 0.12123 0.40614 0.0
C330 C 0.2473 0.68821 0.2032 0.0
C331 C 0.28389 0.70915 0.23389 0.0
C332 C 0.2427 0.65494 0.17101 0.0
C333 C 0.27513 0.64174 0.16995 0.0
C334 C 0.3112 0.66161 0.20226 0.0
C335 C 0.31527 0.69516 0.23349 0.0
C336 C 0.20399 0.63509 0.13687 0.0
C337 C 0.34618 0.64821 0.20305 0.0
C338 C 0.24926 0.53433 0.10608 0.0
C339 C 0.27039 0.54963 0.06176 0.0
C340 C 0.25064 0.56379 0.14178 0.0
C341 C 0.27318 0.60963 0.13281 0.0
C342 C 0.29458 0.62516 0.08819 0.0
C343 C 0.29317 0.59514 0.05352 0.0
C344 C 0.22793 0.54588 0.18908 0.0
C345 C 0.31871 0.67362 0.07677 0.0
H346 H 0.22307 0.69899 0.20313 0.0
H347 H 0.34321 0.71059 0.2577 0.0
H348 H 0.21585 0.64357 0.09939 0.0
H349 H 0.18642 0.59874 0.13949 0.0
H350 H 0.18031 0.64692 0.14408 0.0
H351 H 0.37018 0.66424 0.23283 0.0
H352 H 0.33084 0.61205 0.20682 0.0
H353 H 0.36433 0.65719 0.16857 0.0
H354 H 0.23151 0.49931 0.11287 0.0
H355 H 0.30941 0.60749 1.01941 0.0
H356 H 0.20215 0.55515 0.19477 0.0
H357 H 0.25193 0.56052 0.21905 0.0
H358 H 0.21245 0.50953 0.19087 0.0
H359 H 0.29596 0.68711 0.07978 0.0
H360 H 0.33295 0.68036 0.04009 0.0
H361 H 0.3457 0.69157 0.10311 0.0
C362 C 0.59435 0.16603 0.59729 0.0
C363 C 0.55895 0.17341 0.58882 0.0
C364 C 0.62381 0.17082 0.5603 0.0
C365 C 0.61768 0.18315 0.51365 0.0
C366 C 0.58032 0.1877 0.50421 0.0
C367 C 0.55147 0.18278 0.54182 0.0
C368 C 0.66306 0.16538 0.57192 0.0
C369 C 0.57213 0.20011 0.45492 0.0
C370 C 0.72294 0.25479 0.4453 0.0
C371 C 0.72544 0.22479 0.41369 0.0
C372 C 0.68741 0.24178 0.47673 0.0
C373 C 0.65337 0.19738 0.47705 0.0
C374 C 0.65467 0.16718 0.44376 0.0
C375 C 0.69074 0.1813 0.41227 0.0
C376 C 0.68731 0.27534 0.51102 0.0
C377 C 0.61924 0.11954 0.44302 0.0
H378 H 0.60037 0.15876 0.6334 0.0
H379 H 0.52354 0.18737 0.53465 0.0
H380 H 0.66664 0.14411 0.54469 0.0
H381 H 0.69343 0.19792 0.57091 0.0
H382 H 0.66052 0.15092 0.60803 0.0
H383 H 0.5401 0.19946 0.4525 0.0
H384 H 0.59866 0.2337 0.44597 0.0
H385 H 0.5728 0.1774 0.42743 0.0
H386 H 0.74972 0.28845 0.44652 0.0
H387 H 0.69291 0.1578 0.38852 0.0
H388 H 0.68922 0.26589 0.54858 0.0
H389 H 0.6562 0.27634 0.50732 0.0
H390 H 0.71529 0.30889 0.50481 0.0
H391 H 0.6227 0.10293 0.47526 0.0
H392 H 0.62129 0.10203 0.41059 0.0
H393 H 0.58613 0.11652 0.44432 0.0
C394 C 0.50496 0.67106 0.77652 0.0
C395 C 0.51315 0.69398 0.73317 0.0
C396 C 0.46317 0.63617 0.78723 0.0
C397 C 0.42863 0.62323 0.75335 0.0
C398 C 0.43787 0.64314 0.70737 0.0
C399 C 0.48015 0.67866 0.69784 0.0
C400 C 0.45513 0.61616 0.83675 0.0
C401 C 0.4024 0.62936 0.66962 0.0
C402 C 0.3258 0.52104 0.79496 0.0
C403 C 0.30364 0.53957 0.81918 0.0
C404 C 0.36467 0.54748 0.76933 0.0
C405 C 0.38248 0.59367 0.76928 0.0
C406 C 0.35885 0.6122 0.79152 0.0
C407 C 0.31951 0.58487 0.81574 0.0
C408 C 0.38784 0.52619 0.74461 0.0
C409 C 0.3768 0.6613 0.79301 0.0
H410 H 0.53058 0.68262 0.80375 0.0
H411 H 0.48623 0.69639 0.66434 0.0
H412 H 0.4334 0.62513 0.85714 0.0
H413 H 0.43819 0.57981 0.83426 0.0
H414 H 0.48613 0.62761 0.85749 0.0
H415 H 0.41659 0.63961 0.63316 0.0
H416 H 0.38028 0.59323 0.66974 0.0
H417 H 0.38215 0.64504 0.6774 0.0
H418 H 0.31322 0.48591 0.79711 0.0
H419 H 0.30267 0.59933 0.83471 0.0
H420 H 0.41645 0.53115 0.76661 0.0
H421 H 0.40048 0.54144 0.70908 0.0
H422 H 0.36578 0.4903 0.73951 0.0
H423 H 0.40736 0.67703 0.81498 0.0
H424 H 0.35301 0.67022 0.80865 0.0
H425 H 0.38545 0.67519 0.75635 0.0
C426 C 0.81437 0.45681 0.09788 0.0
C427 C 0.83885 0.50094 0.0841 0.0
C428 C 0.83199 0.43787 0.12876 0.0
C429 C 0.87573 0.46338 0.14578 0.0
C430 C 0.90212 0.50672 0.12828 0.0
C431 C 0.88322 0.52524 0.0979 0.0
C432 C 0.80249 0.39151 0.14606 0.0
C433 C 0.94941 0.53455 0.14381 0.0
C434 C 0.88808 0.42672 0.27018 0.0
C435 C 0.89886 0.39411 0.25904 0.0
C436 C 0.8837 0.45211 0.23378 0.0
C437 C 0.89135 0.4454 0.1852 0.0
C438 C 0.90658 0.41554 0.17457 0.0
C439 C 0.90925 0.3896 0.21146 0.0
C440 C 0.86728 0.48341 0.24694 0.0
C441 C 0.91734 0.40865 0.12393 0.0
H442 H 0.78013 0.43779 0.08706 0.0
H443 H 0.90232 0.55947 0.08772 0.0
H444 H 0.81779 0.37089 0.13857 0.0
H445 H 0.79812 0.39172 0.18554 0.0
H446 H 0.76951 0.37588 0.12871 0.0
H447 H 0.96836 0.56076 0.11727 0.0
H448 H 0.95069 0.5506 0.1787 0.0
H449 H 0.96558 0.51433 0.14861 0.0
H450 H 0.87989 0.43006 0.30691 0.0
H451 H 0.91812 0.3647 0.20291 0.0
H452 H 0.83373 0.47102 0.2319 0.0
H453 H 0.88877 0.51621 0.23117 0.0
H454 H 0.86597 0.48725 0.28644 0.0
H455 H 0.88739 0.38201 0.10653 0.0
H456 H 0.9429 0.39855 0.12386 0.0
H457 H 0.92916 0.43883 0.10207 0.0
C458 C 0.31732 0.75151 0.49134 0.0
C459 C 0.30038 0.77929 0.47965 0.0
C460 C 0.34706 0.76145 0.52971 0.0
C461 C 0.36038 0.80021 0.55722 0.0
C462 C 0.34151 0.8271 0.54737 0.0
C463 C 0.31172 0.8163 0.50881 0.0
C464 C 0.3661 0.73167 0.53905 0.0
C465 C 0.35459 0.86859 0.57586 0.0
C466 C 0.42416 0.81103 0.67285 0.0
C467 C 0.46787 0.83502 0.65706 0.0
C468 C 0.3887 0.80063 0.6413 0.0
C469 C 0.39713 0.81457 0.59284 0.0
C470 C 0.4412 0.84033 0.57736 0.0
C471 C 0.47588 0.85021 0.60958 0.0
C472 C 0.34226 0.77324 0.65931 0.0
C473 C 0.45185 0.85619 0.52618 0.0
H474 H 0.30869 0.72273 0.4693 0.0
H475 H 0.2989 0.83807 0.50021 0.0
H476 H 0.40161 0.7491 0.52998 0.0
H477 H 0.36335 0.72302 0.57767 0.0
H478 H 0.34948 0.70086 0.51751 0.0
H479 H 0.33351 0.88326 0.56736 0.0
H480 H 0.35265 0.86187 0.61496 0.0
H481 H 0.38922 0.89317 0.56778 0.0
H482 H 0.41759 0.79877 0.70928 0.0
H483 H 0.50952 0.86928 0.59735 0.0
H484 H 0.32673 0.74042 0.64174 0.0
H485 H 0.32225 0.78878 0.64977 0.0
H486 H 0.34111 0.76864 0.69886 0.0
H487 H 0.43997 0.82758 0.50142 0.0
H488 H 0.48771 0.87779 0.5205 0.0
H489 H 0.43469 0.87455 0.51619 0.0
C490 C 0.59604 0.34149 0.78394 0.0
C491 C 0.55735 0.33326 0.76003 0.0
C492 C 0.61526 0.37441 0.81922 0.0
C493 C 0.59523 0.39983 0.83127 0.0
C494 C 0.55733 0.39324 0.80556 0.0
C495 C 0.53886 0.36005 0.77003 0.0
C496 C 0.65582 0.38038 0.84534 0.0
C497 C 0.53503 0.41966 0.81725 0.0
C498 C 0.62077 0.44343 0.95957 0.0
C499 C 0.6571 0.48543 0.95303 0.0
C500 C 0.59861 0.41612 0.92005 0.0
C501 C 0.61294 0.43121 0.87274 0.0
C502 C 0.64783 0.47458 0.86588 0.0
C503 C 0.66954 0.50106 0.90603 0.0
C504 C 0.56155 0.37011 0.92909 0.0
C505 C 0.66375 0.49228 0.81617 0.0
H506 H 0.61047 0.32088 0.77634 0.0
H507 H 0.5086 0.35345 0.75216 0.0
H508 H 0.68219 0.41525 0.84397 0.0
H509 H 0.64799 0.37171 0.88374 0.0
H510 H 0.66869 0.35962 0.82991 0.0
H511 H 0.5086 0.41366 0.79103 0.0
H512 H 0.5203 0.41086 0.85358 0.0
H513 H 0.55937 0.45528 0.81787 0.0
H514 H 0.61101 0.43101 0.99565 0.0
H515 H 0.69693 0.53383 0.90063 0.0
H516 H 0.57245 0.34611 0.9197 0.0
H517 H 0.53278 0.36271 0.906 0.0
H518 H 0.55094 0.36514 0.96723 0.0
H519 H 0.68066 0.4755 0.80026 0.0
H520 H 0.68706 0.52823 0.81661 0.0
H521 H 0.63558 0.48552 0.79235 0.0
loop_
_geom_bond_atom_site_label_1
_geom_bond_atom_site_label_2
_geom_bond_distance
_geom_bond_site_symmetry_2
_ccdc_geom_bond_type
Cu0 N1 1.999 . S
Cu0 O6 1.974 . S
Cu0 N11 1.985 1_556 S
Cu0 O20 1.959 1_556 S
N1 Cu0 1.999 . S
N1 C3 1.263 . S
N1 C5 1.389 . S
N2 C3 1.358 . S
N2 C4 1.400 . S
C3 N1 1.263 . S
C3 N2 1.358 . S
C3 H9 0.930 . S
C4 N2 1.400 . S
C4 C5 1.351 . S
C4 H21 0.930 . S
C5 N1 1.389 . S
C5 C4 1.351 . S
C5 H10 0.930 . S
O6 Cu0 1.974 . S
O6 C16 1.282 . S
C7 O8 1.261 . S
C7 O20 1.251 . S
O8 C7 1.261 . S
H9 C3 0.930 . S
H10 C5 0.930 . S
N11 Cu0 1.985 1_554 S
N11 C13 1.335 . S
N11 C14 1.390 . S
N12 C13 1.345 . S
N12 C15 1.336 . S
C13 N11 1.335 . S
C13 N12 1.345 . S
C13 H18 0.930 . S
C14 N11 1.390 . S
C14 C15 1.346 . S
C14 H19 0.930 . S
C15 N12 1.336 . S
C15 C14 1.346 . S
C15 H22 0.929 . S
C16 O6 1.282 . S
C16 O17 1.216 . S
O17 C16 1.216 . S
H18 C13 0.930 . S
H19 C14 0.930 . S
O20 Cu0 1.959 1_554 S
O20 C7 1.251 . S
H21 C4 0.930 . S
H22 C15 0.929 . S
Cu23 N24 1.999 . S
Cu23 O29 1.974 . S
Cu23 N34 1.985 . S
Cu23 O43 1.959 . S
N24 Cu23 1.999 . S
N24 C26 1.263 . S
N24 C28 1.389 . S
N25 C26 1.358 . S
N25 C27 1.400 . S
C26 N24 1.263 . S
C26 N25 1.358 . S
C26 H32 0.930 . S
C27 N25 1.400 . S
C27 C28 1.351 . S
C27 H44 0.930 . S
C28 N24 1.389 . S
C28 C27 1.351 . S
C28 H33 0.930 . S
O29 Cu23 1.974 . S
O29 C39 1.282 . S
C30 O31 1.261 . S
C30 O43 1.251 . S
O31 C30 1.261 . S
H32 C26 0.930 . S
H33 C28 0.930 . S
N34 Cu23 1.985 . S
N34 C36 1.335 . S
N34 C37 1.390 . S
N35 C36 1.345 . S
N35 C38 1.336 . S
C36 N34 1.335 . S
C36 N35 1.345 . S
C36 H41 0.930 . S
C37 N34 1.390 . S
C37 C38 1.346 . S
C37 H42 0.930 . S
C38 N35 1.336 . S
C38 C37 1.346 . S
C38 H45 0.929 . S
C39 O29 1.282 . S
C39 O40 1.216 . S
O40 C39 1.216 . S
H41 C36 0.930 . S
H42 C37 0.930 . S
O43 Cu23 1.959 . S
O43 C30 1.251 . S
H44 C27 0.930 . S
H45 C38 0.929 . S
Cu46 N47 1.999 . S
Cu46 O52 1.974 . S
Cu46 N57 1.985 . S
Cu46 O66 1.959 . S
N47 Cu46 1.999 . S
N47 C49 1.263 . S
N47 C51 1.389 . S
N48 C49 1.358 . S
N48 C50 1.400 . S
C49 N47 1.263 . S
C49 N48 1.358 . S
C49 H55 0.930 . S
C50 N48 1.400 . S
C50 C51 1.351 . S
C50 H67 0.930 . S
C51 N47 1.389 . S
C51 C50 1.351 . S
C51 H56 0.930 . S
O52 Cu46 1.974 . S
O52 C62 1.282 . S
C53 O54 1.261 . S
C53 O66 1.251 . S
O54 C53 1.261 . S
H55 C49 0.930 . S
H56 C51 0.930 . S
N57 Cu46 1.985 . S
N57 C59 1.335 . S
N57 C60 1.390 . S
N58 C59 1.345 . S
N58 C61 1.336 . S
C59 N57 1.335 . S
C59 N58 1.345 . S
C59 H64 0.930 . S
C60 N57 1.390 . S
C60 C61 1.346 . S
C60 H65 0.930 . S
C61 N58 1.336 . S
C61 C60 1.346 . S
C61 H68 0.929 . S
C62 O52 1.282 . S
C62 O63 1.216 . S
O63 C62 1.216 . S
H64 C59 0.930 . S
H65 C60 0.930 . S
O66 Cu46 1.959 . S
O66 C53 1.251 . S
H67 C50 0.930 . S
H68 C61 0.929 . S
Cu69 N70 1.999 . S
Cu69 O75 1.974 . S
Cu69 N80 1.985 1_556 S
Cu69 O89 1.959 1_556 S
N70 Cu69 1.999 . S
N70 C72 1.263 . S
N70 C74 1.389 . S
N71 C72 1.358 . S
N71 C73 1.400 . S
C72 N70 1.263 . S
C72 N71 1.358 . S
C72 H78 0.930 . S
C73 N71 1.400 . S
C73 C74 1.351 . S
C73 H90 0.930 . S
C74 N70 1.389 . S
C74 C73 1.351 . S
C74 H79 0.930 . S
O75 Cu69 1.974 . S
O75 C85 1.282 . S
C76 O77 1.261 . S
C76 O89 1.251 . S
O77 C76 1.261 . S
H78 C72 0.930 . S
H79 C74 0.930 . S
N80 Cu69 1.985 1_554 S
N80 C82 1.335 . S
N80 C83 1.390 . S
N81 C82 1.345 . S
N81 C84 1.336 . S
C82 N80 1.335 . S
C82 N81 1.345 . S
C82 H87 0.930 . S
C83 N80 1.390 . S
C83 C84 1.346 . S
C83 H88 0.930 . S
C84 N81 1.336 . S
C84 C83 1.346 . S
C84 H91 0.929 . S
C85 O75 1.282 . S
C85 O86 1.216 . S
O86 C85 1.216 . S
H87 C82 0.930 . S
H88 C83 0.930 . S
O89 Cu69 1.959 1_554 S
O89 C76 1.251 . S
H90 C73 0.930 . S
H91 C84 0.929 . S
Cu92 N93 1.999 . S
Cu92 O98 1.974 . S
Cu92 N103 1.985 . S
Cu92 O112 1.959 . S
N93 Cu92 1.999 . S
N93 C95 1.263 . S
N93 C97 1.389 . S
N94 C95 1.358 . S
N94 C96 1.400 . S
C95 N93 1.263 . S
C95 N94 1.358 . S
C95 H101 0.930 . S
C96 N94 1.400 . S
C96 C97 1.351 . S
C96 H113 0.930 . S
C97 N93 1.389 . S
C97 C96 1.351 . S
C97 H102 0.930 . S
O98 Cu92 1.974 . S
O98 C108 1.282 . S
C99 O100 1.261 . S
C99 O112 1.251 . S
O100 C99 1.261 . S
H101 C95 0.930 . S
H102 C97 0.930 . S
N103 Cu92 1.985 . S
N103 C105 1.335 . S
N103 C106 1.390 . S
N104 C105 1.345 . S
N104 C107 1.336 . S
C105 N103 1.335 . S
C105 N104 1.345 . S
C105 H110 0.930 . S
C106 N103 1.390 . S
C106 C107 1.346 . S
C106 H111 0.930 . S
C107 N104 1.336 . S
C107 C106 1.346 . S
C107 H114 0.929 . S
C108 O98 1.282 . S
C108 O109 1.216 . S
O109 C108 1.216 . S
H110 C105 0.930 . S
H111 C106 0.930 . S
O112 Cu92 1.959 . S
O112 C99 1.251 . S
H113 C96 0.930 . S
H114 C107 0.929 . S
Cu115 N116 1.999 . S
Cu115 O121 1.974 . S
Cu115 N126 1.985 . S
Cu115 O135 1.959 . S
N116 Cu115 1.999 . S
N116 C118 1.263 . S
N116 C120 1.389 . S
N117 C118 1.358 . S
N117 C119 1.400 . S
C118 N116 1.263 . S
C118 N117 1.358 . S
C118 H124 0.930 . S
C119 N117 1.400 . S
C119 C120 1.351 . S
C119 H136 0.930 . S
C120 N116 1.389 . S
C120 C119 1.351 . S
C120 H125 0.930 . S
O121 Cu115 1.974 . S
O121 C131 1.282 . S
C122 O123 1.261 . S
C122 O135 1.251 . S
O123 C122 1.261 . S
H124 C118 0.930 . S
H125 C120 0.930 . S
N126 Cu115 1.985 . S
N126 C128 1.335 . S
N126 C129 1.390 . S
N127 C128 1.345 . S
N127 C130 1.336 . S
C128 N126 1.335 . S
C128 N127 1.345 . S
C128 H133 0.930 . S
C129 N126 1.390 . S
C129 C130 1.346 . S
C129 H134 0.930 . S
C130 N127 1.336 . S
C130 C129 1.346 . S
C130 H137 0.929 . S
C131 O121 1.282 . S
C131 O132 1.216 . S
O132 C131 1.216 . S
H133 C128 0.930 . S
H134 C129 0.930 . S
O135 Cu115 1.959 . S
O135 C122 1.251 . S
H136 C119 0.930 . S
H137 C130 0.929 . S
C138 C139 1.391 . S
C138 C140 1.394 . S
C138 H154 0.931 . S
C139 C138 1.391 . S
C139 C143 1.376 . S
C140 C138 1.394 . S
C140 C141 1.369 . S
C140 C144 1.531 . S
C141 C140 1.369 . S
C141 C142 1.410 . S
C141 C149 1.503 . S
C142 C141 1.410 . S
C142 C143 1.392 . S
C142 C145 1.511 . S
C143 C139 1.376 . S
C143 C142 1.392 . S
C143 H155 0.929 . S
C144 C140 1.531 . S
C144 H156 0.960 . S
C144 H157 0.962 . S
C144 H158 0.960 . S
C145 C142 1.511 . S
C145 H159 0.961 . S
C145 H160 0.961 . S
C145 H161 0.961 . S
C146 C147 1.370 . S
C146 C148 1.363 . S
C146 H162 0.931 . S
C147 C146 1.370 . S
C147 C151 1.408 . S
C148 C146 1.363 . S
C148 C149 1.370 . S
C148 C152 1.524 . S
C149 C141 1.503 . S
C149 C148 1.370 . S
C149 C150 1.403 . S
C150 C149 1.403 . S
C150 C151 1.404 . S
C150 C153 1.539 . S
C151 C147 1.408 . S
C151 C150 1.404 . S
C151 H163 0.930 . S
C152 C148 1.524 . S
C152 H164 0.956 . S
C152 H165 0.961 . S
C152 H166 0.961 . S
C153 C150 1.539 . S
C153 H167 0.958 . S
C153 H168 0.961 . S
C153 H169 0.960 . S
H154 C138 0.931 . S
H155 C143 0.929 . S
H156 C144 0.960 . S
H157 C144 0.962 . S
H158 C144 0.960 . S
H159 C145 0.961 . S
H160 C145 0.961 . S
H161 C145 0.961 . S
H162 C146 0.931 . S
H163 C151 0.930 . S
H164 C152 0.956 . S
H165 C152 0.961 . S
H166 C152 0.961 . S
H167 C153 0.958 . S
H168 C153 0.961 . S
H169 C153 0.960 . S
C170 C171 1.391 . S
C170 C172 1.394 . S
C170 H186 0.931 . S
C171 C170 1.391 . S
C171 C175 1.376 . S
C172 C170 1.394 . S
C172 C173 1.369 . S
C172 C176 1.531 1_655 S
C173 C172 1.369 . S
C173 C174 1.410 . S
C173 C181 1.503 1_655 S
C174 C173 1.410 . S
C174 C175 1.392 . S
C174 C177 1.511 . S
C175 C171 1.376 . S
C175 C174 1.392 . S
C175 H187 0.929 . S
C176 C172 1.531 1_455 S
C176 H188 0.960 . S
C176 H189 0.962 . S
C176 H190 0.960 . S
C177 C174 1.511 . S
C177 H191 0.961 . S
C177 H192 0.961 . S
C177 H193 0.961 . S
C178 C179 1.370 . S
C178 C180 1.363 . S
C178 H194 0.931 . S
C179 C178 1.370 . S
C179 C183 1.408 . S
C180 C178 1.363 . S
C180 C181 1.370 . S
C180 C184 1.524 1_455 S
C181 C173 1.503 1_455 S
C181 C180 1.370 . S
C181 C182 1.403 . S
C182 C181 1.403 . S
C182 C183 1.404 . S
C182 C185 1.539 . S
C183 C179 1.408 . S
C183 C182 1.404 . S
C183 H195 0.930 . S
C184 C180 1.524 1_655 S
C184 H196 0.958 . S
C184 H197 0.961 . S
C184 H198 0.961 1_655 S
C185 C182 1.539 . S
C185 H199 0.958 . S
C185 H200 0.961 . S
C185 H201 0.960 1_455 S
H186 C170 0.931 . S
H187 C175 0.929 . S
H188 C176 0.960 . S
H189 C176 0.962 . S
H190 C176 0.960 . S
H191 C177 0.961 . S
H192 C177 0.961 . S
H193 C177 0.961 . S
H194 C178 0.931 . S
H195 C183 0.930 . S
H196 C184 0.958 . S
H197 C184 0.961 . S
H198 C184 0.961 1_455 S
H199 C185 0.958 . S
H200 C185 0.961 . S
H201 C185 0.960 1_655 S
C202 C203 1.391 . S
C202 C204 1.394 . S
C202 H218 0.931 . S
C203 C202 1.391 . S
C203 C207 1.376 . S
C204 C202 1.394 . S
C204 C205 1.369 . S
C204 C208 1.531 . S
C205 C204 1.369 . S
C205 C206 1.410 . S
C205 C213 1.503 1_545 S
C206 C205 1.410 . S
C206 C207 1.392 . S
C206 C209 1.511 1_545 S
C207 C203 1.376 . S
C207 C206 1.392 . S
C207 H219 0.929 . S
C208 C204 1.531 . S
C208 H220 0.960 . S
C208 H221 0.962 1_545 S
C208 H222 0.960 . S
C209 C206 1.511 1_565 S
C209 H223 0.966 . S
C209 H224 0.961 . S
C209 H225 0.961 1_565 S
C210 C211 1.370 . S
C210 C212 1.363 . S
C210 H226 0.931 . S
C211 C210 1.370 . S
C211 C215 1.408 . S
C212 C210 1.363 . S
C212 C213 1.370 . S
C212 C216 1.524 . S
C213 C205 1.503 1_565 S
C213 C212 1.370 . S
C213 C214 1.403 . S
C214 C213 1.403 . S
C214 C215 1.404 . S
C214 C217 1.539 1_565 S
C215 C211 1.408 . S
C215 C214 1.404 . S
C215 H227 0.930 . S
C216 C212 1.524 . S
C216 H228 0.956 . S
C216 H229 0.961 . S
C216 H230 0.961 . S
C217 C214 1.539 1_545 S
C217 H231 0.958 . S
C217 H232 0.961 . S
C217 H233 0.960 . S
H218 C202 0.931 . S
H219 C207 0.929 . S
H220 C208 0.960 . S
H221 C208 0.962 1_565 S
H222 C208 0.960 . S
H223 C209 0.966 . S
H224 C209 0.961 . S
H225 C209 0.961 1_545 S
H226 C210 0.931 . S
H227 C215 0.930 . S
H228 C216 0.956 . S
H229 C216 0.961 . S
H230 C216 0.961 . S
H231 C217 0.958 . S
H232 C217 0.961 . S
H233 C217 0.960 . S
C234 C235 1.391 . S
C234 C236 1.394 . S
C234 H250 0.931 . S
C235 C234 1.391 . S
C235 C239 1.376 . S
C236 C234 1.394 . S
C236 C237 1.369 . S
C236 C240 1.531 . S
C237 C236 1.369 . S
C237 C238 1.410 . S
C237 C245 1.503 . S
C238 C237 1.410 . S
C238 C239 1.392 . S
C238 C241 1.511 . S
C239 C235 1.376 . S
C239 C238 1.392 . S
C239 H251 0.929 . S
C240 C236 1.531 . S
C240 H252 0.960 . S
C240 H253 0.962 . S
C240 H254 0.960 . S
C241 C238 1.511 . S
C241 H255 0.961 . S
C241 H256 0.961 . S
C241 H257 0.961 . S
C242 C243 1.370 . S
C242 C244 1.363 . S
C242 H258 0.931 . S
C243 C242 1.370 . S
C243 C247 1.408 . S
C244 C242 1.363 . S
C244 C245 1.370 . S
C244 C248 1.524 . S
C245 C237 1.503 . S
C245 C244 1.370 . S
C245 C246 1.403 . S
C246 C245 1.403 . S
C246 C247 1.404 . S
C246 C249 1.539 . S
C247 C243 1.408 . S
C247 C246 1.404 . S
C247 H259 0.930 . S
C248 C244 1.524 . S
C248 H260 0.956 . S
C248 H261 0.961 . S
C248 H262 0.961 . S
C249 C246 1.539 . S
C249 H263 0.958 . S
C249 H264 0.961 . S
C249 H265 0.960 . S
H250 C234 0.931 . S
H251 C239 0.929 . S
H252 C240 0.960 . S
H253 C240 0.962 . S
H254 C240 0.960 . S
H255 C241 0.961 . S
H256 C241 0.961 . S
H257 C241 0.961 . S
H258 C242 0.931 . S
H259 C247 0.930 . S
H260 C248 0.956 . S
H261 C248 0.961 . S
H262 C248 0.961 . S
H263 C249 0.958 . S
H264 C249 0.961 . S
H265 C249 0.960 . S
C266 C267 1.391 . S
C266 C268 1.394 . S
C266 H282 0.931 . S
C267 C266 1.391 . S
C267 C271 1.376 . S
C268 C266 1.394 . S
C268 C269 1.369 1_655 S
C268 C272 1.531 1_655 S
C269 C268 1.369 1_455 S
C269 C270 1.410 1_455 S
C269 C277 1.503 . S
C270 C269 1.410 1_655 S
C270 C271 1.392 . S
C270 C273 1.511 1_655 S
C271 C267 1.376 . S
C271 C270 1.392 . S
C271 H283 0.929 . S
C272 C268 1.531 1_455 S
C272 H284 0.960 . S
C272 H285 0.962 1_455 S
C272 H286 0.960 . S
C273 C270 1.511 1_455 S
C273 H287 0.961 1_455 S
C273 H288 0.961 . S
C273 H289 0.961 . S
C274 C275 1.370 . S
C274 C276 1.363 . S
C274 H290 0.931 . S
C275 C274 1.370 . S
C275 C279 1.408 . S
C276 C274 1.363 . S
C276 C277 1.370 . S
C276 C280 1.524 1_455 S
C277 C269 1.503 . S
C277 C276 1.370 . S
C277 C278 1.403 . S
C278 C277 1.403 . S
C278 C279 1.404 . S
C278 C281 1.539 . S
C279 C275 1.408 . S
C279 C278 1.404 . S
C279 H291 0.930 . S
C280 C276 1.524 1_655 S
C280 H292 0.956 . S
C280 H293 0.961 . S
C280 H294 0.961 . S
C281 C278 1.539 . S
C281 H295 0.958 . S
C281 H296 0.961 . S
C281 H297 0.960 . S
H282 C266 0.931 . S
H283 C271 0.929 . S
H284 C272 0.960 . S
H285 C272 0.962 1_655 S
H286 C272 0.960 . S
H287 C273 0.961 1_655 S
H288 C273 0.961 . S
H289 C273 0.961 . S
H290 C274 0.931 . S
H291 C279 0.930 . S
H292 C280 0.956 . S
H293 C280 0.961 . S
H294 C280 0.961 . S
H295 C281 0.958 . S
H296 C281 0.961 . S
H297 C281 0.960 . S
C298 C299 1.391 . S
C298 C300 1.394 . S
C298 H314 0.931 . S
C299 C298 1.391 . S
C299 C303 1.376 . S
C300 C298 1.394 . S
C300 C301 1.369 . S
C300 C304 1.531 . S
C301 C300 1.369 . S
C301 C302 1.410 . S
C301 C309 1.503 . S
C302 C301 1.410 . S
C302 C303 1.392 . S
C302 C305 1.511 . S
C303 C299 1.376 . S
C303 C302 1.392 . S
C303 H315 0.929 . S
C304 C300 1.531 . S
C304 H316 0.960 . S
C304 H317 0.962 1_545 S
C304 H318 0.960 . S
C305 C302 1.511 . S
C305 H319 0.961 . S
C305 H320 0.961 . S
C305 H321 0.961 . S
C306 C307 1.370 . S
C306 C308 1.363 . S
C306 H322 0.931 . S
C307 C306 1.370 . S
C307 C311 1.408 . S
C308 C306 1.363 . S
C308 C309 1.370 1_565 S
C308 C312 1.524 . S
C309 C301 1.503 . S
C309 C308 1.370 1_545 S
C309 C310 1.403 . S
C310 C309 1.403 . S
C310 C311 1.404 1_545 S
C310 C313 1.539 . S
C311 C307 1.408 . S
C311 C310 1.404 1_565 S
C311 H323 0.930 . S
C312 C308 1.524 . S
C312 H324 0.956 . S
C312 H325 0.961 . S
C312 H326 0.961 . S
C313 C310 1.539 . S
C313 H327 0.958 . S
C313 H328 0.961 . S
C313 H329 0.960 . S
H314 C298 0.931 . S
H315 C303 0.929 . S
H316 C304 0.960 . S
H317 C304 0.962 1_565 S
H318 C304 0.960 . S
H319 C305 0.961 . S
H320 C305 0.961 . S
H321 C305 0.961 . S
H322 C306 0.931 . S
H323 C311 0.930 . S
H324 C312 0.956 . S
H325 C312 0.961 . S
H326 C312 0.961 . S
H327 C313 0.958 . S
H328 C313 0.961 . S
H329 C313 0.960 . S
C330 C331 1.391 . S
C330 C332 1.394 . S
C330 H346 0.931 . S
C331 C330 1.391 . S
C331 C335 1.376 . S
C332 C330 1.394 . S
C332 C333 1.369 . S
C332 C336 1.531 . S
C333 C332 1.369 . S
C333 C334 1.410 . S
C333 C341 1.503 . S
C334 C333 1.410 . S
C334 C335 1.392 . S
C334 C337 1.511 . S
C335 C331 1.376 . S
C335 C334 1.392 . S
C335 H347 0.929 . S
C336 C332 1.531 . S
C336 H348 0.960 . S
C336 H349 0.962 . S
C336 H350 0.960 . S
C337 C334 1.511 . S
C337 H351 0.961 . S
C337 H352 0.961 . S
C337 H353 0.961 . S
C338 C339 1.370 . S
C338 C340 1.363 . S
C338 H354 0.931 . S
C339 C338 1.370 . S
C339 C343 1.408 . S
C340 C338 1.363 . S
C340 C341 1.370 . S
C340 C344 1.524 . S
C341 C333 1.503 . S
C341 C340 1.370 . S
C341 C342 1.403 . S
C342 C341 1.403 . S
C342 C343 1.404 . S
C342 C345 1.539 . S
C343 C339 1.408 . S
C343 C342 1.404 . S
C343 H355 0.930 . S
C344 C340 1.524 . S
C344 H356 0.956 . S
C344 H357 0.961 . S
C344 H358 0.961 . S
C345 C342 1.539 . S
C345 H359 0.958 . S
C345 H360 0.961 . S
C345 H361 0.960 . S
H346 C330 0.931 . S
H347 C335 0.929 . S
H348 C336 0.960 . S
H349 C336 0.962 . S
H350 C336 0.960 . S
H351 C337 0.961 . S
H352 C337 0.961 . S
H353 C337 0.961 . S
H354 C338 0.931 . S
H355 C343 0.930 . S
H356 C344 0.956 . S
H357 C344 0.961 . S
H358 C344 0.961 . S
H359 C345 0.958 . S
H360 C345 0.961 . S
H361 C345 0.960 . S
C362 C363 1.391 . S
C362 C364 1.394 . S
C362 H378 0.931 . S
C363 C362 1.391 . S
C363 C367 1.376 . S
C364 C362 1.394 . S
C364 C365 1.369 . S
C364 C368 1.531 . S
C365 C364 1.369 . S
C365 C366 1.410 . S
C365 C373 1.503 . S
C366 C365 1.410 . S
C366 C367 1.392 . S
C366 C369 1.511 . S
C367 C363 1.376 . S
C367 C366 1.392 . S
C367 H379 0.929 . S
C368 C364 1.531 . S
C368 H380 0.960 . S
C368 H381 0.962 . S
C368 H382 0.960 . S
C369 C366 1.511 . S
C369 H383 0.961 . S
C369 H384 0.961 . S
C369 H385 0.961 . S
C370 C371 1.370 . S
C370 C372 1.363 . S
C370 H386 0.931 . S
C371 C370 1.370 . S
C371 C375 1.408 . S
C372 C370 1.363 . S
C372 C373 1.370 . S
C372 C376 1.524 . S
C373 C365 1.503 . S
C373 C372 1.370 . S
C373 C374 1.403 . S
C374 C373 1.403 . S
C374 C375 1.404 . S
C374 C377 1.539 . S
C375 C371 1.408 . S
C375 C374 1.404 . S
C375 H387 0.930 . S
C376 C372 1.524 . S
C376 H388 0.956 . S
C376 H389 0.961 . S
C376 H390 0.961 . S
C377 C374 1.539 . S
C377 H391 0.958 . S
C377 H392 0.961 . S
C377 H393 0.960 . S
H378 C362 0.931 . S
H379 C367 0.929 . S
H380 C368 0.960 . S
H381 C368 0.962 . S
H382 C368 0.960 . S
H383 C369 0.961 . S
H384 C369 0.961 . S
H385 C369 0.961 . S
H386 C370 0.931 . S
H387 C375 0.930 . S
H388 C376 0.956 . S
H389 C376 0.961 . S
H390 C376 0.961 . S
H391 C377 0.958 . S
H392 C377 0.961 . S
H393 C377 0.960 . S
C394 C395 1.391 . S
C394 C396 1.394 . S
C394 H410 0.931 . S
C395 C394 1.391 . S
C395 C399 1.376 . S
C396 C394 1.394 . S
C396 C397 1.369 . S
C396 C400 1.531 . S
C397 C396 1.369 . S
C397 C398 1.410 . S
C397 C405 1.503 . S
C398 C397 1.410 . S
C398 C399 1.392 . S
C398 C401 1.511 . S
C399 C395 1.376 . S
C399 C398 1.392 . S
C399 H411 0.929 . S
C400 C396 1.531 . S
C400 H412 0.960 . S
C400 H413 0.962 . S
C400 H414 0.960 . S
C401 C398 1.511 . S
C401 H415 0.961 . S
C401 H416 0.961 . S
C401 H417 0.961 . S
C402 C403 1.370 . S
C402 C404 1.363 . S
C402 H418 0.931 . S
C403 C402 1.370 . S
C403 C407 1.408 . S
C404 C402 1.363 . S
C404 C405 1.370 . S
C404 C408 1.524 . S
C405 C397 1.503 . S
C405 C404 1.370 . S
C405 C406 1.403 . S
C406 C405 1.403 . S
C406 C407 1.404 . S
C406 C409 1.539 . S
C407 C403 1.408 . S
C407 C406 1.404 . S
C407 H419 0.930 . S
C408 C404 1.524 . S
C408 H420 0.956 . S
C408 H421 0.961 . S
C408 H422 0.961 . S
C409 C406 1.539 . S
C409 H423 0.958 . S
C409 H424 0.961 . S
C409 H425 0.960 . S
H410 C394 0.931 . S
H411 C399 0.929 . S
H412 C400 0.960 . S
H413 C400 0.962 . S
H414 C400 0.960 . S
H415 C401 0.961 . S
H416 C401 0.961 . S
H417 C401 0.961 . S
H418 C402 0.931 . S
H419 C407 0.930 . S
H420 C408 0.956 . S
H421 C408 0.961 . S
H422 C408 0.961 . S
H423 C409 0.958 . S
H424 C409 0.961 . S
H425 C409 0.960 . S
C426 C427 1.391 . S
C426 C428 1.394 . S
C426 H442 0.931 . S
C427 C426 1.391 . S
C427 C431 1.376 . S
C428 C426 1.394 . S
C428 C429 1.369 . S
C428 C432 1.531 . S
C429 C428 1.369 . S
C429 C430 1.410 . S
C429 C437 1.503 . S
C430 C429 1.410 . S
C430 C431 1.392 . S
C430 C433 1.511 . S
C431 C427 1.376 . S
C431 C430 1.392 . S
C431 H443 0.929 . S
C432 C428 1.531 . S
C432 H444 0.960 . S
C432 H445 0.962 . S
C432 H446 0.960 . S
C433 C430 1.511 . S
C433 H447 0.961 . S
C433 H448 0.961 . S
C433 H449 0.961 . S
C434 C435 1.370 . S
C434 C436 1.363 . S
C434 H450 0.931 . S
C435 C434 1.370 . S
C435 C439 1.408 . S
C436 C434 1.363 . S
C436 C437 1.370 . S
C436 C440 1.524 . S
C437 C429 1.503 . S
C437 C436 1.370 . S
C437 C438 1.403 . S
C438 C437 1.403 . S
C438 C439 1.404 . S
C438 C441 1.539 . S
C439 C435 1.408 . S
C439 C438 1.404 . S
C439 H451 0.930 . S
C440 C436 1.524 . S
C440 H452 0.956 . S
C440 H453 0.961 . S
C440 H454 0.961 . S
C441 C438 1.539 . S
C441 H455 0.958 . S
C441 H456 0.961 . S
C441 H457 0.960 . S
H442 C426 0.931 . S
H443 C431 0.929 . S
H444 C432 0.960 . S
H445 C432 0.962 . S
H446 C432 0.960 . S
H447 C433 0.961 . S
H448 C433 0.961 . S
H449 C433 0.961 . S
H450 C434 0.931 . S
H451 C439 0.930 . S
H452 C440 0.956 . S
H453 C440 0.961 . S
H454 C440 0.961 . S
H455 C441 0.958 . S
H456 C441 0.961 . S
H457 C441 0.960 . S
C458 C459 1.391 . S
C458 C460 1.394 . S
C458 H474 0.931 . S
C459 C458 1.391 . S
C459 C463 1.376 . S
C460 C458 1.394 . S
C460 C461 1.369 . S
C460 C464 1.531 . S
C461 C460 1.369 . S
C461 C462 1.410 . S
C461 C469 1.503 . S
C462 C461 1.410 . S
C462 C463 1.392 . S
C462 C465 1.511 . S
C463 C459 1.376 . S
C463 C462 1.392 . S
C463 H475 0.929 . S
C464 C460 1.531 . S
C464 H476 0.960 . S
C464 H477 0.962 . S
C464 H478 0.960 . S
C465 C462 1.511 . S
C465 H479 0.961 . S
C465 H480 0.961 . S
C465 H481 0.961 . S
C466 C467 1.370 . S
C466 C468 1.363 . S
C466 H482 0.931 . S
C467 C466 1.370 . S
C467 C471 1.408 . S
C468 C466 1.363 . S
C468 C469 1.370 . S
C468 C472 1.524 . S
C469 C461 1.503 . S
C469 C468 1.370 . S
C469 C470 1.403 . S
C470 C469 1.403 . S
C470 C471 1.404 . S
C470 C473 1.539 . S
C471 C467 1.408 . S
C471 C470 1.404 . S
C471 H483 0.930 . S
C472 C468 1.524 . S
C472 H484 0.956 . S
C472 H485 0.961 . S
C472 H486 0.961 . S
C473 C470 1.539 . S
C473 H487 0.958 . S
C473 H488 0.961 . S
C473 H489 0.960 . S
H474 C458 0.931 . S
H475 C463 0.929 . S
H476 C464 0.960 . S
H477 C464 0.962 . S
H478 C464 0.960 . S
H479 C465 0.961 . S
H480 C465 0.961 . S
H481 C465 0.961 . S
H482 C466 0.931 . S
H483 C471 0.930 . S
H484 C472 0.956 . S
H485 C472 0.961 . S
H486 C472 0.961 . S
H487 C473 0.958 . S
H488 C473 0.961 . S
H489 C473 0.960 . S
C490 C491 1.391 . S
C490 C492 1.394 . S
C490 H506 0.931 . S
C491 C490 1.391 . S
C491 C495 1.376 . S
C492 C490 1.394 . S
C492 C493 1.369 . S
C492 C496 1.531 . S
C493 C492 1.369 . S
C493 C494 1.410 . S
C493 C501 1.503 . S
C494 C493 1.410 . S
C494 C495 1.392 . S
C494 C497 1.511 . S
C495 C491 1.376 . S
C495 C494 1.392 . S
C495 H507 0.929 . S
C496 C492 1.531 . S
C496 H508 0.960 . S
C496 H509 0.962 . S
C496 H510 0.960 . S
C497 C494 1.511 . S
C497 H511 0.961 . S
C497 H512 0.961 . S
C497 H513 0.961 . S
C498 C499 1.370 . S
C498 C500 1.363 . S
C498 H514 0.931 . S
C499 C498 1.370 . S
C499 C503 1.408 . S
C500 C498 1.363 . S
C500 C501 1.370 . S
C500 C504 1.524 . S
C501 C493 1.503 . S
C501 C500 1.370 . S
C501 C502 1.403 . S
C502 C501 1.403 . S
C502 C503 1.404 . S
C502 C505 1.539 . S
C503 C499 1.408 . S
C503 C502 1.404 . S
C503 H515 0.930 . S
C504 C500 1.524 . S
C504 H516 0.956 . S
C504 H517 0.961 . S
C504 H518 0.961 . S
C505 C502 1.539 . S
C505 H519 0.958 . S
C505 H520 0.961 . S
C505 H521 0.960 . S
H506 C490 0.931 . S
H507 C495 0.929 . S
H508 C496 0.960 . S
H509 C496 0.962 . S
H510 C496 0.960 . S
H511 C497 0.961 . S
H512 C497 0.961 . S
H513 C497 0.961 . S
H514 C498 0.931 . S
H515 C503 0.930 . S
H516 C504 0.956 . S
H517 C504 0.961 . S
H518 C504 0.961 . S
H519 C505 0.958 . S
H520 C505 0.961 . S
H521 C505 0.960 . S
C139 C16 1.415 . S
C147 N127 1.409 . S
C171 C39 1.410 . S
C179 N12 1.408 . S
C203 N35 1.409 . S
C211 C62 1.397 . S
C235 C85 1.411 . S
C243 N58 1.408 . S
C267 N81 1.408 . S
C275 C108 1.408 . S
C299 C131 1.414 . S
C307 N104 1.411 . S
C331 N94 1.372 . S
C339 C7 1.463 . S
C363 N117 1.438 . S
C371 C30 1.473 . S
C395 C53 1.459 . S
C403 N2 1.392 . S
C427 C76 1.464 . S
C435 N25 1.417 . S
C459 C99 1.465 . S
C467 N48 1.418 . S
C491 C122 1.464 . S
C499 N71 1.417 . S
