# Generated by pormake.
# Topology wju, (5)-cn, num edge types: 1
# Building blocks:
#     Node 0, Type 0, BuildingBlock: BEQFEK_clean_sbu_0, # of connection points: 5
#     Node 1, Type 0, BuildingBlock: BEQFEK_clean_sbu_0, # of connection points: 5
#     Node 2, Type 0, BuildingBlock: BEQFEK_clean_sbu_0, # of connection points: 5
#     Node 3, Type 0, BuildingBlock: BEQFEK_clean_sbu_0, # of connection points: 5
#     Node 4, Type 0, BuildingBlock: BEQFEK_clean_sbu_0, # of connection points: 5
#     Node 5, Type 0, BuildingBlock: BEQFEK_clean_sbu_0, # of connection points: 5
#     Node 6, Type 0, BuildingBlock: BEQFEK_clean_sbu_0, # of connection points: 5
#     Node 7, Type 0, BuildingBlock: BEQFEK_clean_sbu_0, # of connection points: 5
#     Node 8, Type 0, BuildingBlock: BEQFEK_clean_sbu_0, # of connection points: 5
#     Node 9, Type 0, BuildingBlock: BEQFEK_clean_sbu_0, # of connection points: 5
#     Node 10, Type 0, BuildingBlock: BEQFEK_clean_sbu_0, # of connection points: 5
#     Node 11, Type 0, BuildingBlock: BEQFEK_clean_sbu_0, # of connection points: 5
#     Edge 12, Type (0, 0), BuildingBlock: CIFDUS_clean_linker_0, # of connection points: 2
#     Edge 13, Type (0, 0), BuildingBlock: CIFDUS_clean_linker_0, # of connection points: 2
#     Edge 14, Type (0, 0), BuildingBlock: CIFDUS_clean_linker_0, # of connection points: 2
#     Edge 15, Type (0, 0), BuildingBlock: CIFDUS_clean_linker_0, # of connection points: 2
#     Edge 16, Type (0, 0), BuildingBlock: CIFDUS_clean_linker_0, # of connection points: 2
#     Edge 17, Type (0, 0), BuildingBlock: CIFDUS_clean_linker_0, # of connection points: 2
#     Edge 18, Type (0, 0), BuildingBlock: CIFDUS_clean_linker_0, # of connection points: 2
#     Edge 19, Type (0, 0), BuildingBlock: CIFDUS_clean_linker_0, # of connection points: 2
#     Edge 20, Type (0, 0), BuildingBlock: CIFDUS_clean_linker_0, # of connection points: 2
#     Edge 21, Type (0, 0), BuildingBlock: CIFDUS_clean_linker_0, # of connection points: 2
#     Edge 22, Type (0, 0), BuildingBlock: CIFDUS_clean_linker_0, # of connection points: 2
#     Edge 23, Type (0, 0), BuildingBlock: CIFDUS_clean_linker_0, # of connection points: 2
#     Edge 24, Type (0, 0), BuildingBlock: CIFDUS_clean_linker_0, # of connection points: 2
#     Edge 25, Type (0, 0), BuildingBlock: CIFDUS_clean_linker_0, # of connection points: 2
#     Edge 26, Type (0, 0), BuildingBlock: CIFDUS_clean_linker_0, # of connection points: 2
#     Edge 27, Type (0, 0), BuildingBlock: CIFDUS_clean_linker_0, # of connection points: 2
#     Edge 28, Type (0, 0), BuildingBlock: CIFDUS_clean_linker_0, # of connection points: 2
#     Edge 29, Type (0, 0), BuildingBlock: CIFDUS_clean_linker_0, # of connection points: 2
#     Edge 30, Type (0, 0), BuildingBlock: CIFDUS_clean_linker_0, # of connection points: 2
#     Edge 31, Type (0, 0), BuildingBlock: CIFDUS_clean_linker_0, # of connection points: 2
#     Edge 32, Type (0, 0), BuildingBlock: CIFDUS_clean_linker_0, # of connection points: 2
#     Edge 33, Type (0, 0), BuildingBlock: CIFDUS_clean_linker_0, # of connection points: 2
#     Edge 34, Type (0, 0), BuildingBlock: CIFDUS_clean_linker_0, # of connection points: 2
#     Edge 35, Type (0, 0), BuildingBlock: CIFDUS_clean_linker_0, # of connection points: 2
#     Edge 36, Type (0, 0), BuildingBlock: CIFDUS_clean_linker_0, # of connection points: 2
#     Edge 37, Type (0, 0), BuildingBlock: CIFDUS_clean_linker_0, # of connection points: 2
#     Edge 38, Type (0, 0), BuildingBlock: CIFDUS_clean_linker_0, # of connection points: 2
#     Edge 39, Type (0, 0), BuildingBlock: CIFDUS_clean_linker_0, # of connection points: 2
#     Edge 40, Type (0, 0), BuildingBlock: CIFDUS_clean_linker_0, # of connection points: 2
#     Edge 41, Type (0, 0), BuildingBlock: CIFDUS_clean_linker_0, # of connection points: 2
# Relax obj value: 0.118
# Max RMSD: 0.140
# Mean RMSD: 0.140
data_MOF--net-wju--node1-BEQFEK_clean_sbu_0--edge1-CIFDUS_clean_linker_0
_symmetry_space_group_name_H-M    P1
_symmetry_Int_Tables_number       1
_symmetry_cell_setting            triclinic
loop_
_symmetry_equiv_pos_as_xyz
'x, y, z'
_cell_length_a     23.818533
_cell_length_b     23.880788
_cell_length_c     100.73637
_cell_angle_alpha  89.39538
_cell_angle_beta   90.381942
_cell_angle_gamma 120.01636
loop_
_atom_site_label
_atom_site_type_symbol
_atom_site_fract_x
_atom_site_fract_y
_atom_site_fract_z
_atom_type_partial_charge
Co0 Co 0.30849 0.1979 0.1142 0.0
Co1 Co 0.31524 0.18689 0.08327 0.0
C2 C 0.18851 0.13758 0.09739 0.0
O3 O 0.2161 0.15553 0.10862 0.0
O4 O 0.22163 0.14849 0.08689 0.0
C5 C 0.26129 0.14083 0.13916 0.0
O6 O 0.21976 0.09529 0.13126 0.0
C7 C 0.27771 0.10738 0.05993 0.0
C8 C 0.33844 0.17314 0.04391 0.0
C9 C 0.28914 0.11018 0.04637 0.0
N10 N 0.31751 0.16573 0.06514 0.0
N11 N 0.35383 0.20502 0.05554 0.0
C12 C 0.23248 0.04969 0.06814 0.0
H13 H 0.24935 0.05584 0.07859 0.0
H14 H 0.22879 0.0049 0.0641 0.0
H15 H 0.18363 0.04477 0.06806 0.0
C16 C 0.37881 0.12458 0.11336 0.0
N17 N 0.34782 0.15218 0.10736 0.0
N18 N 0.35178 0.14849 0.0944 0.0
C19 C 0.38577 0.11869 0.09174 0.0
C20 C 0.40359 0.10226 0.10365 0.0
C21 C 0.38342 0.11883 0.12809 0.0
H22 H 0.40216 0.16695 0.13269 0.0
H23 H 0.33433 0.08595 0.13209 0.0
H24 H 0.41491 0.09877 0.13091 0.0
O25 O 0.3603 0.28985 0.10794 0.0
O26 O 0.36392 0.28219 0.08595 0.0
H27 H 0.41911 0.15521 0.07208 0.0
H28 H 0.44777 0.10309 0.07849 0.0
C29 C 0.40585 0.11128 0.07811 0.0
H30 H 0.36474 0.06927 0.07322 0.0
H31 H 0.38855 0.25356 0.05689 0.0
O32 O 0.30687 0.1925 0.13402 0.0
C33 C 0.37917 0.3161 0.09648 0.0
Co34 Co 0.11904 0.30397 0.44956 0.0
Co35 Co 0.1423 0.3154 0.4186 0.0
C36 C 0.0734 0.18672 0.43241 0.0
O37 O 0.07944 0.21246 0.44372 0.0
O38 O 0.09361 0.22119 0.42194 0.0
C39 C 0.14002 0.26912 0.47549 0.0
O40 O 0.16427 0.24006 0.46851 0.0
C41 C 0.19143 0.29272 0.39377 0.0
C42 C 0.1827 0.35937 0.37966 0.0
C43 C 0.20122 0.31296 0.38061 0.0
N44 N 0.1687 0.32604 0.40035 0.0
N45 N 0.16362 0.36583 0.39184 0.0
C46 C 0.19817 0.23879 0.3998 0.0
H47 H 0.20279 0.24365 0.41075 0.0
H48 H 0.2407 0.23779 0.3957 0.0
H49 H 0.15425 0.19209 0.3974 0.0
C50 C 0.26334 0.38436 0.44935 0.0
N51 N 0.20564 0.35145 0.44312 0.0
N52 N 0.21548 0.35525 0.43019 0.0
C53 C 0.27976 0.39016 0.42783 0.0
C54 C 0.31197 0.40917 0.43991 0.0
C55 C 0.27223 0.39609 0.46397 0.0
H56 H 0.23143 0.40004 0.46814 0.0
H57 H 0.27425 0.35536 0.46888 0.0
H58 H 0.31839 0.44119 0.46612 0.0
O59 O 0.07171 0.34841 0.44308 0.0
O60 O 0.08822 0.35668 0.42125 0.0
H61 H 0.28603 0.42182 0.40764 0.0
H62 H 0.36249 0.43663 0.41449 0.0
C63 C 0.3096 0.40243 0.41431 0.0
H64 H 0.30167 0.35624 0.41019 0.0
H65 H 0.14632 0.39681 0.39432 0.0
O66 O 0.11735 0.30065 0.46945 0.0
C67 C 0.06463 0.36746 0.43161 0.0
Co68 Co 0.80611 0.11609 0.78308 0.0
Co69 Co 0.82344 0.12575 0.75211 0.0
C70 C 0.86569 0.04938 0.76878 0.0
O71 O 0.84362 0.06113 0.77915 0.0
O72 O 0.86121 0.07135 0.75752 0.0
C73 C 0.86632 0.13552 0.80757 0.0
O74 O 0.91277 0.14343 0.79946 0.0
C75 C 0.89808 0.15927 0.72746 0.0
C76 C 0.82935 0.15869 0.71259 0.0
C77 C 0.89185 0.16892 0.71399 0.0
N78 N 0.84214 0.14406 0.73359 0.0
N79 N 0.80111 0.14346 0.72464 0.0
C80 C 0.95718 0.1687 0.73473 0.0
H81 H 0.95358 0.1765 0.74546 0.0
H82 H 0.00146 0.21064 0.73057 0.0
H83 H 0.9613 0.12473 0.73369 0.0
C84 C 0.88671 0.25843 0.78037 0.0
N85 N 0.85603 0.19877 0.77512 0.0
N86 N 0.86298 0.20354 0.76211 0.0
C87 C 0.89819 0.26665 0.7587 0.0
C88 C 0.91494 0.3031 0.7702 0.0
C89 C 0.88513 0.2731 0.79473 0.0
H90 H 0.83704 0.23914 0.79904 0.0
H91 H 0.92285 0.26778 0.80017 0.0
H92 H 0.89515 0.32337 0.79605 0.0
O93 O 0.71554 0.07713 0.7768 0.0
O94 O 0.72718 0.08084 0.75483 0.0
H95 H 0.8731 0.2664 0.73821 0.0
H96 H 0.93555 0.34433 0.74406 0.0
C97 C 0.91609 0.29146 0.74477 0.0
H98 H 0.95403 0.2815 0.74118 0.0
H99 H 0.75404 0.13314 0.72676 0.0
O100 O 0.81201 0.12358 0.8027 0.0
C101 C 0.69134 0.06624 0.76513 0.0
Co102 Co 0.68366 0.81644 0.11966 0.0
Co103 Co 0.68855 0.82067 0.08824 0.0
C104 C 0.80973 0.88467 0.10508 0.0
O105 O 0.77731 0.86751 0.11581 0.0
O106 O 0.78161 0.86799 0.09383 0.0
C107 C 0.69949 0.86461 0.14679 0.0
O108 O 0.73047 0.92266 0.14142 0.0
C109 C 0.71929 0.88047 0.06097 0.0
C110 C 0.6449 0.79989 0.04916 0.0
C111 C 0.69548 0.86318 0.04805 0.0
N112 N 0.68369 0.82994 0.06921 0.0
N113 N 0.63958 0.78203 0.062 0.0
C114 C 0.77555 0.94325 0.06543 0.0
H115 H 0.79287 0.93832 0.07531 0.0
H116 H 0.76022 0.97994 0.06623 0.0
H117 H 0.81587 0.96082 0.05818 0.0
C118 C 0.60098 0.87557 0.11444 0.0
N119 N 0.63929 0.8525 0.11037 0.0
N120 N 0.64201 0.85475 0.09728 0.0
C121 C 0.60559 0.87942 0.09266 0.0
C122 C 0.57858 0.89339 0.10337 0.0
C123 C 0.5824 0.87636 0.12856 0.0
H124 H 0.57711 0.8333 0.13396 0.0
H125 H 0.62101 0.92044 0.13342 0.0
H126 H 0.53627 0.87713 0.12916 0.0
O127 O 0.64539 0.72506 0.11443 0.0
O128 O 0.64518 0.72562 0.09239 0.0
H129 H 0.57629 0.84426 0.07292 0.0
H130 H 0.56772 0.91341 0.07675 0.0
C131 C 0.59816 0.89084 0.07828 0.0
H132 H 0.64657 0.92352 0.074 0.0
H133 H 0.60545 0.73705 0.06588 0.0
O134 O 0.67479 0.81517 0.13936 0.0
C135 C 0.63104 0.69505 0.10345 0.0
Co136 Co 0.87839 0.68414 0.4542 0.0
Co137 Co 0.87697 0.68671 0.42293 0.0
C138 C 0.94949 0.80869 0.43926 0.0
O139 O 0.93205 0.77658 0.45006 0.0
O140 O 0.93333 0.78021 0.42807 0.0
C141 C 0.91741 0.71054 0.48067 0.0
O142 O 0.97347 0.74437 0.47464 0.0
C143 C 0.84511 0.72518 0.39751 0.0
C144 C 0.82493 0.64391 0.38436 0.0
C145 C 0.82218 0.7005 0.38494 0.0
N146 N 0.85848 0.68412 0.40418 0.0
N147 N 0.84745 0.63616 0.39616 0.0
C148 C 0.85747 0.7882 0.40305 0.0
H149 H 0.9086 0.81547 0.40624 0.0
H150 H 0.82649 0.77934 0.4119 0.0
H151 H 0.85017 0.81863 0.39567 0.0
C152 C 0.73807 0.62993 0.45023 0.0
N153 N 0.79834 0.6524 0.44548 0.0
N154 N 0.79679 0.65198 0.43241 0.0
C155 C 0.73479 0.62819 0.42845 0.0
C156 C 0.69592 0.61426 0.43958 0.0
C157 C 0.7224 0.62723 0.46467 0.0
H158 H 0.73084 0.59049 0.46968 0.0
H159 H 0.7554 0.67472 0.46925 0.0
H160 H 0.67145 0.615 0.46625 0.0
O161 O 0.91957 0.6337 0.44899 0.0
O162 O 0.91868 0.63261 0.42693 0.0
H163 H 0.73676 0.59337 0.40905 0.0
H164 H 0.65899 0.58179 0.41369 0.0
C165 C 0.71206 0.61532 0.41433 0.0
H166 H 0.7235 0.66148 0.40938 0.0
H167 H 0.85248 0.59667 0.39894 0.0
O168 O 0.86686 0.6774 0.47371 0.0
C169 C 0.93186 0.61561 0.43807 0.0
Co170 Co 0.1829 0.87008 0.78505 0.0
Co171 Co 0.18833 0.86905 0.75372 0.0
C172 C 0.12594 0.93266 0.76865 0.0
O173 O 0.135 0.91536 0.78008 0.0
O174 O 0.14719 0.92004 0.75825 0.0
C175 C 0.13232 0.84438 0.81233 0.0
O176 O 0.07536 0.82529 0.8069 0.0
C177 C 0.11649 0.8392 0.72897 0.0
C178 C 0.18777 0.85112 0.71372 0.0
C179 C 0.12387 0.83627 0.71534 0.0
N180 N 0.1731 0.85544 0.735 0.0
N181 N 0.2157 0.86271 0.72583 0.0
C182 C 0.05584 0.82273 0.73642 0.0
H183 H 0.05882 0.80818 0.74678 0.0
H184 H 0.01274 0.78294 0.73148 0.0
H185 H 0.05005 0.86599 0.73678 0.0
C186 C 0.11125 0.72692 0.7806 0.0
N187 N 0.14416 0.7888 0.77627 0.0
N188 N 0.1475 0.78919 0.76319 0.0
C189 C 0.11726 0.72785 0.75885 0.0
C190 C 0.09254 0.68661 0.76967 0.0
C191 C 0.09516 0.70709 0.79483 0.0
H192 H 0.13788 0.73714 0.80117 0.0
H193 H 0.05489 0.71476 0.79787 0.0
H194 H 0.0795 0.65534 0.79643 0.0
O195 O 0.27639 0.91996 0.77988 0.0
O196 O 0.28215 0.91605 0.75791 0.0
H197 H 0.16093 0.74178 0.73962 0.0
H198 H 0.10555 0.65836 0.74394 0.0
C199 C 0.11462 0.70857 0.74467 0.0
H200 H 0.07462 0.71098 0.73951 0.0
H201 H 0.26372 0.87565 0.72783 0.0
O202 O 0.18181 0.86286 0.80495 0.0
C203 C 0.30957 0.93317 0.76923 0.0
Co204 Co 0.79372 0.67189 0.58427 0.0
Co205 Co 0.8095 0.68363 0.61532 0.0
C206 C 0.85469 0.80027 0.59754 0.0
O207 O 0.83378 0.76557 0.58723 0.0
O208 O 0.84778 0.77475 0.60901 0.0
C209 C 0.84006 0.70222 0.55791 0.0
O210 O 0.88805 0.75142 0.564 0.0
C211 C 0.88944 0.72337 0.63936 0.0
C212 C 0.81886 0.66912 0.65524 0.0
C213 C 0.88402 0.71193 0.65294 0.0
N214 N 0.83038 0.68834 0.63384 0.0
N215 N 0.78829 0.6563 0.6434 0.0
C216 C 0.94901 0.7696 0.6318 0.0
H217 H 0.9414 0.76068 0.62097 0.0
H218 H 0.99135 0.76552 0.63505 0.0
H219 H 0.96015 0.81973 0.63382 0.0
C220 C 0.8766 0.61284 0.58804 0.0
N221 N 0.84355 0.64037 0.59283 0.0
N222 N 0.84831 0.64283 0.60589 0.0
C223 C 0.88377 0.61581 0.60979 0.0
C224 C 0.9035 0.59698 0.59863 0.0
C225 C 0.88503 0.6053 0.57357 0.0
H226 H 0.83697 0.58054 0.56863 0.0
H227 H 0.9143 0.65386 0.569 0.0
H228 H 0.91033 0.57778 0.57183 0.0
O229 O 0.70366 0.62304 0.59091 0.0
O230 O 0.71308 0.63222 0.61288 0.0
H231 H 0.85255 0.59338 0.6301 0.0
H232 H 0.90303 0.56167 0.62461 0.0
C233 C 0.89485 0.60347 0.6239 0.0
H234 H 0.9387 0.64646 0.62777 0.0
H235 H 0.73881 0.62527 0.64183 0.0
O236 O 0.79268 0.66011 0.56473 0.0
C237 C 0.67824 0.61051 0.60244 0.0
Co238 Co 0.09445 0.77547 0.91898 0.0
Co239 Co 0.10815 0.78362 0.95013 0.0
C240 C 0.04076 0.84236 0.93506 0.0
O241 O 0.05133 0.82571 0.92379 0.0
O242 O 0.05824 0.82665 0.94573 0.0
C243 C 0.11228 0.82133 0.89157 0.0
O244 O 0.13346 0.8784 0.89691 0.0
C245 C 0.15784 0.86167 0.97383 0.0
C246 C 0.14327 0.79064 0.98958 0.0
C247 C 0.16717 0.85596 0.98722 0.0
N248 N 0.13048 0.80261 0.9684 0.0
N249 N 0.12151 0.76018 0.97787 0.0
C250 C 0.17159 0.92177 0.96636 0.0
H251 H 0.17472 0.91545 0.95555 0.0
H252 H 0.21721 0.96402 0.96986 0.0
H253 H 0.13151 0.93177 0.96814 0.0
C254 C 0.23969 0.84708 0.92119 0.0
N255 N 0.17949 0.81687 0.92645 0.0
N256 N 0.18437 0.81844 0.93952 0.0
C257 C 0.24753 0.84894 0.94291 0.0
C258 C 0.28433 0.8691 0.93149 0.0
C259 C 0.2543 0.85685 0.90666 0.0
H260 H 0.24848 0.89766 0.90306 0.0
H261 H 0.30475 0.86874 0.90459 0.0
H262 H 0.22021 0.81262 0.90118 0.0
O263 O 0.04741 0.6836 0.92564 0.0
O264 O 0.05713 0.6891 0.94763 0.0
H265 H 0.32239 0.86142 0.95677 0.0
H266 H 0.27711 0.89968 0.96131 0.0
C267 C 0.27322 0.85582 0.95677 0.0
H268 H 0.24073 0.81277 0.96284 0.0
H269 H 0.1008 0.71056 0.97634 0.0
O270 O 0.09478 0.77208 0.89906 0.0
C271 C 0.03726 0.65612 0.93703 0.0
Co272 Co 0.31537 0.14317 0.24559 0.0
Co273 Co 0.3133 0.14695 0.27676 0.0
C274 C 0.19032 0.08411 0.26022 0.0
O275 O 0.22149 0.09729 0.24936 0.0
O276 O 0.21988 0.09938 0.27133 0.0
C277 C 0.28509 0.11747 0.21803 0.0
O278 O 0.23467 0.06501 0.22274 0.0
C279 C 0.27816 0.18435 0.30153 0.0
C280 C 0.33443 0.16552 0.31661 0.0
C281 C 0.29012 0.18686 0.31515 0.0
N282 N 0.31325 0.16232 0.2954 0.0
N283 N 0.34673 0.15103 0.30448 0.0
C284 C 0.23747 0.20601 0.29417 0.0
H285 H 0.25234 0.21608 0.2836 0.0
H286 H 0.2417 0.25001 0.29876 0.0
H287 H 0.18601 0.16697 0.2945 0.0
C288 C 0.38809 0.28437 0.24905 0.0
N289 N 0.35568 0.22401 0.25409 0.0
N290 N 0.35721 0.2265 0.26715 0.0
C291 C 0.39194 0.28893 0.27083 0.0
C292 C 0.41229 0.32752 0.25948 0.0
C293 C 0.39314 0.29999 0.23452 0.0
H294 H 0.3447 0.2718 0.22983 0.0
H295 H 0.41171 0.3522 0.23267 0.0
H296 H 0.42609 0.28573 0.22983 0.0
O297 O 0.35796 0.09395 0.25146 0.0
O298 O 0.35898 0.09692 0.27352 0.0
H299 H 0.4539 0.35932 0.2853 0.0
H300 H 0.36911 0.31475 0.28944 0.0
C301 C 0.40936 0.31109 0.28487 0.0
H302 H 0.4172 0.27592 0.29068 0.0
H303 H 0.3779 0.13341 0.30239 0.0
O304 O 0.32702 0.15722 0.22609 0.0
C305 C 0.37366 0.08026 0.26266 0.0
Co306 Co 0.17206 0.29472 0.58041 0.0
Co307 Co 0.17495 0.30792 0.61154 0.0
C308 C 0.11103 0.17857 0.59816 0.0
O309 O 0.12321 0.20316 0.58653 0.0
O310 O 0.13077 0.21404 0.60839 0.0
C311 C 0.11168 0.26163 0.5546 0.0
O312 O 0.05843 0.22925 0.56162 0.0
C313 C 0.10837 0.28228 0.63693 0.0
C314 C 0.18536 0.34707 0.65078 0.0
C315 C 0.12011 0.30113 0.65007 0.0
N316 N 0.1639 0.31587 0.63009 0.0
N317 N 0.20993 0.35434 0.63844 0.0
C318 C 0.04608 0.23079 0.63105 0.0
H319 H 0.04511 0.23825 0.62018 0.0
H320 H 0.00382 0.23009 0.63578 0.0
H321 H 0.04211 0.18301 0.63285 0.0
C322 C 0.10597 0.3725 0.58279 0.0
N323 N 0.135 0.34133 0.58808 0.0
N324 N 0.13593 0.34643 0.60113 0.0
C325 C 0.10757 0.38097 0.6045 0.0
C326 C 0.08716 0.3979 0.59299 0.0
C327 C 0.09947 0.38142 0.56825 0.0
H328 H 0.14272 0.3877 0.56288 0.0
H329 H 0.05571 0.33824 0.56439 0.0
H330 H 0.09395 0.4243 0.56635 0.0
O331 O 0.26588 0.33887 0.58533 0.0
O332 O 0.26873 0.35139 0.60722 0.0
H333 H 0.14297 0.41136 0.62427 0.0
H334 H 0.08316 0.43213 0.61906 0.0
C335 C 0.09774 0.39494 0.61849 0.0
H336 H 0.05864 0.35021 0.62311 0.0
H337 H 0.25803 0.38557 0.63571 0.0
O338 O 0.16583 0.29354 0.56056 0.0
C339 C 0.29765 0.36009 0.59614 0.0
Co340 Co 0.85137 0.15545 0.91402 0.0
Co341 Co 0.84983 0.15106 0.94531 0.0
C342 C 0.91984 0.09909 0.92891 0.0
O343 O 0.90344 0.11471 0.91807 0.0
O344 O 0.90388 0.11158 0.9401 0.0
C345 C 0.88097 0.1612 0.88659 0.0
O346 O 0.93862 0.17657 0.8912 0.0
C347 C 0.82276 0.09195 0.97262 0.0
C348 C 0.8173 0.16767 0.98394 0.0
C349 C 0.81154 0.10716 0.98534 0.0
N350 N 0.83375 0.14093 0.96424 0.0
N351 N 0.83053 0.18595 0.97114 0.0
C352 C 0.82489 0.03296 0.96853 0.0
H353 H 0.84939 0.04069 0.95889 0.0
H354 H 0.7748 0.99188 0.96739 0.0
H355 H 0.85027 0.01987 0.97617 0.0
C356 C 0.71115 0.07513 0.91795 0.0
N357 N 0.77155 0.10984 0.92284 0.0
N358 N 0.76956 0.10812 0.9359 0.0
C359 C 0.7071 0.07268 0.93974 0.0
C360 C 0.66839 0.05025 0.92848 0.0
C361 C 0.69497 0.06837 0.90346 0.0
H362 H 0.71524 0.11715 0.89889 0.0
H363 H 0.71786 0.04338 0.89857 0.0
H364 H 0.64191 0.04104 0.90167 0.0
O365 O 0.89533 0.24705 0.91895 0.0
O366 O 0.89404 0.24649 0.94098 0.0
H367 H 0.70571 0.10453 0.95946 0.0
H368 H 0.63167 0.03225 0.95474 0.0
C369 C 0.68524 0.05861 0.95389 0.0
H370 H 0.70357 0.02848 0.95846 0.0
H371 H 0.83696 0.22915 0.96708 0.0
O372 O 0.83609 0.15047 0.8947 0.0
C373 C 0.90828 0.27704 0.92991 0.0
Co374 Co 0.68726 0.89905 0.2535 0.0
Co375 Co 0.6884 0.88396 0.28468 0.0
C376 C 0.81154 0.95709 0.2688 0.0
O377 O 0.78153 0.94459 0.25776 0.0
O378 O 0.78083 0.93871 0.27972 0.0
C379 C 0.7068 0.8778 0.22604 0.0
O380 O 0.73862 0.8509 0.23114 0.0
C381 C 0.72807 0.84603 0.30942 0.0
C382 C 0.64492 0.82007 0.32265 0.0
C383 C 0.70292 0.81984 0.32186 0.0
N384 N 0.68573 0.85872 0.30303 0.0
N385 N 0.63671 0.84417 0.31111 0.0
C386 C 0.79218 0.86119 0.30375 0.0
H387 H 0.81857 0.91235 0.30049 0.0
H388 H 0.78425 0.83057 0.29494 0.0
H389 H 0.82341 0.85484 0.31108 0.0
C390 C 0.60974 0.75499 0.25557 0.0
N391 N 0.6462 0.81422 0.26087 0.0
N392 N 0.64837 0.80826 0.27388 0.0
C393 C 0.61435 0.74499 0.27717 0.0
C394 C 0.58864 0.70948 0.26572 0.0
C395 C 0.58994 0.74239 0.24129 0.0
H396 H 0.58369 0.78207 0.23713 0.0
H397 H 0.62819 0.73961 0.23562 0.0
H398 H 0.54399 0.69579 0.24014 0.0
O399 O 0.64157 0.94294 0.26049 0.0
O400 O 0.63914 0.9312 0.28245 0.0
H401 H 0.57898 0.73446 0.29701 0.0
H402 H 0.58235 0.66504 0.29118 0.0
C403 C 0.60716 0.7186 0.29098 0.0
H404 H 0.65572 0.73722 0.29548 0.0
H405 H 0.59651 0.84852 0.30857 0.0
O406 O 0.6803 0.8997 0.23374 0.0
C407 C 0.62392 0.95083 0.27192 0.0
H408 H 0.3413 0.09342 0.02396 0.0
H409 H 0.16154 0.01312 0.04567 0.0
H410 H 0.10951 0.92592 0.02976 0.0
H411 H 0.11442 0.87179 1.00947 0.0
H412 H 0.29094 0.95599 0.98674 0.0
H413 H 0.34466 0.04257 1.00305 0.0
C414 C 0.29073 0.05684 0.02519 0.0
C415 C 0.25636 0.05847 0.03634 0.0
C416 C 0.26034 0.00764 1.01573 0.0
C417 C 0.19046 0.01139 0.03764 0.0
C418 C 0.16018 0.96183 0.0284 0.0
C419 C 0.16462 0.90926 1.00816 0.0
C420 C 0.19884 0.90818 0.99699 0.0
C421 C 0.19472 0.95917 0.01746 0.0
C422 C 0.26371 0.9567 0.99524 0.0
C423 C 0.29439 0.00592 1.00457 0.0
H424 H 0.14327 0.26437 0.35701 0.0
H425 H 0.31584 0.31414 0.37965 0.0
H426 H 0.35863 0.27983 0.36135 0.0
H427 H 0.34729 0.23679 0.33882 0.0
H428 H 0.17087 0.17999 0.31685 0.0
H429 H 0.12996 0.21677 0.33478 0.0
C430 C 0.19015 0.26746 0.35789 0.0
C431 C 0.2261 0.29082 0.36966 0.0
C432 C 0.21413 0.24719 0.34737 0.0
C433 C 0.28681 0.29491 0.37076 0.0
C434 C 0.31143 0.27576 0.36027 0.0
C435 C 0.29986 0.23244 0.33793 0.0
C436 C 0.26362 0.2079 0.32617 0.0
C437 C 0.27549 0.25181 0.34853 0.0
C438 C 0.20175 0.20172 0.32536 0.0
C439 C 0.17762 0.22183 0.33576 0.0
H440 H 0.89827 0.23526 0.69153 0.0
H441 H 0.99245 0.1433 0.71139 0.0
H442 H 0.07317 0.17961 0.69388 0.0
H443 H 0.11713 0.23683 0.67257 0.0
H444 H 0.01765 0.32027 0.65178 0.0
H445 H 0.93856 0.28737 0.66983 0.0
C446 C 0.9364 0.22305 0.69205 0.0
C447 C 0.94041 0.18872 0.70312 0.0
C448 C 0.98162 0.24226 0.68167 0.0
C449 C 0.98967 0.17253 0.70345 0.0
C450 C 0.03554 0.19245 0.69328 0.0
C451 C 0.07804 0.24768 0.67207 0.0
C452 C 0.07271 0.28063 0.66096 0.0
C453 C 0.03222 0.2276 0.68237 0.0
C454 C 0.02202 0.29442 0.66026 0.0
C455 C 0.97703 0.27577 0.67057 0.0
H456 H 0.75061 0.97446 0.98944 0.0
H457 H 0.8349 0.15578 1.01031 0.0
H458 H 0.80663 0.09773 0.03146 0.0
H459 H 0.75524 0.99584 0.04394 0.0
H460 H 0.67964 0.81509 0.02312 0.0
H461 H 0.70777 0.87314 1.00198 0.0
C462 C 0.76522 0.0019 0.9985 0.0
C463 C 0.79655 0.06997 0.9981 0.0
C464 C 0.74988 0.96823 1.0107 0.0
C465 C 0.8111 0.10348 1.0102 0.0
C466 C 0.79503 0.0703 0.02235 0.0
C467 C 0.74688 0.9688 0.03492 0.0
C468 C 0.7166 0.90079 0.03533 0.0
C469 C 0.76432 0.00262 0.02273 0.0
C470 C 0.70311 0.86736 0.02323 0.0
C471 C 0.7193 0.90055 1.01108 0.0
H472 H 0.6928 0.82243 0.34858 0.0
H473 H 0.76328 0.74884 0.31791 0.0
H474 H 0.80859 0.70801 0.33464 0.0
H475 H 0.82978 0.69449 0.35814 0.0
H476 H 0.74467 0.75352 0.38867 0.0
H477 H 0.70342 0.79826 0.37195 0.0
C478 C 0.71826 0.79762 0.34556 0.0
C479 C 0.72804 0.79225 0.332 0.0
C480 C 0.74188 0.77181 0.35526 0.0
C481 C 0.75896 0.75777 0.32826 0.0
C482 C 0.7839 0.73327 0.33784 0.0
C483 C 0.80233 0.71731 0.36111 0.0
C484 C 0.79384 0.72423 0.37468 0.0
C485 C 0.77636 0.7407 0.35138 0.0
C486 C 0.75592 0.75156 0.37835 0.0
C487 C 0.73124 0.7762 0.36877 0.0
H488 H 0.11713 0.7778 0.69194 0.0
H489 H 0.02333 0.86202 0.71396 0.0
H490 H 0.94052 0.82953 0.69687 0.0
H491 H 0.89305 0.77551 0.67563 0.0
H492 H 0.99006 0.69728 0.6529 0.0
H493 H 0.07369 0.73003 0.67007 0.0
C494 C 0.07867 0.78921 0.69299 0.0
C495 C 0.07516 0.81986 0.70456 0.0
C496 C 0.03196 0.77196 0.68287 0.0
C497 C 0.02561 0.83535 0.70559 0.0
C498 C 0.97856 0.81765 0.69567 0.0
C499 C 0.93286 0.76616 0.67445 0.0
C500 C 0.93619 0.73504 0.66298 0.0
C501 C 0.98083 0.78535 0.68434 0.0
C502 C 0.98758 0.72269 0.66152 0.0
C503 C 0.03502 0.74088 0.67138 0.0
H504 H 0.59989 0.0032 0.11509 0.0
H505 H 0.46278 0.84627 0.09078 0.0
H506 H 0.39532 0.89681 0.08889 0.0
H507 H 0.37752 0.9876 0.09365 0.0
H508 H 0.51612 0.14604 0.11746 0.0
H509 H 0.58102 0.09313 0.12019 0.0
C510 C 0.55488 0.98006 0.1095 0.0
C511 C 0.53607 0.92166 0.10301 0.0
C512 C 0.51699 0.00973 0.10837 0.0
C513 C 0.47803 0.8917 0.09574 0.0
C514 C 0.43965 0.92051 0.09467 0.0
C515 C 0.42193 0.01022 0.09944 0.0
C516 C 0.44206 0.06998 0.10546 0.0
C517 C 0.45904 0.97985 0.10083 0.0
C518 C 0.49954 0.09939 0.11292 0.0
C519 C 0.53664 0.06936 0.11443 0.0
H520 H 0.40194 0.52637 0.43042 0.0
H521 H 0.37832 0.36743 0.45503 0.0
H522 H 0.49592 0.41963 0.45807 0.0
H523 H 0.60577 0.5069 0.4523 0.0
H524 H 0.62939 0.66418 0.42713 0.0
H525 H 0.51156 0.61634 0.42558 0.0
C526 C 0.4229 0.50342 0.43642 0.0
C527 C 0.38236 0.44306 0.44234 0.0
C528 C 0.4903 0.53325 0.43794 0.0
C529 C 0.40919 0.41398 0.45035 0.0
C530 C 0.47621 0.44363 0.45205 0.0
C531 C 0.5848 0.53094 0.44667 0.0
C532 C 0.62542 0.58854 0.4398 0.0
C533 C 0.51727 0.50275 0.44571 0.0
C534 C 0.59842 0.61942 0.43241 0.0
C535 C 0.53131 0.59215 0.43153 0.0
H536 H 0.1136 0.59632 0.7814 0.0
H537 H 0.97887 0.62016 0.75659 0.0
H538 H 0.9112 0.50276 0.75448 0.0
H539 H 0.8914 0.39341 0.75952 0.0
H540 H 0.02592 0.36912 0.78427 0.0
H541 H 0.09249 0.48657 0.78683 0.0
C542 C 0.06889 0.57543 0.77572 0.0
C543 C 0.05051 0.61599 0.76924 0.0
C544 C 0.03061 0.50813 0.77452 0.0
C545 C 0.99343 0.58919 0.76166 0.0
C546 C 0.95493 0.52234 0.76045 0.0
C547 C 0.93566 0.41422 0.76535 0.0
C548 C 0.95476 0.37363 0.77154 0.0
C549 C 0.97331 0.48139 0.76676 0.0
C550 C 0.01104 0.4002 0.77937 0.0
C551 C 0.0489 0.46706 0.78082 0.0
H552 H 0.11654 0.51515 0.60235 0.0
H553 H 0.97022 0.35072 0.58105 0.0
H554 H 0.90027 0.39869 0.58055 0.0
H555 H 0.87874 0.4849 0.58731 0.0
H556 H 0.0237 0.64771 0.60921 0.0
H557 H 0.09579 0.60221 0.60878 0.0
C558 C 0.06916 0.48996 0.59767 0.0
C559 C 0.04776 0.42943 0.59191 0.0
C560 C 0.02896 0.51714 0.5977 0.0
C561 C 0.98724 0.3975 0.58555 0.0
C562 C 0.94724 0.42465 0.58534 0.0
C563 C 0.92643 0.51046 0.59184 0.0
C564 C 0.94653 0.56943 0.5982 0.0
C565 C 0.96727 0.48401 0.59154 0.0
C566 C 0.00765 0.60202 0.60429 0.0
C567 C 0.04879 0.57623 0.604 0.0
H568 H 0.57899 0.07659 0.93801 0.0
H569 H 0.60086 0.93259 0.917 0.0
H570 H 0.48273 0.86417 0.91531 0.0
H571 H 0.3731 0.84459 0.92045 0.0
H572 H 0.35214 0.98869 0.94169 0.0
H573 H 0.47 0.0582 0.94272 0.0
C574 C 0.55751 0.03002 0.93315 0.0
C575 C 0.5976 0.00891 0.92773 0.0
C576 C 0.49002 0.9914 0.93222 0.0
C577 C 0.57015 0.94918 0.92126 0.0
C578 C 0.50292 0.9103 0.92029 0.0
C579 C 0.39472 0.89169 0.92509 0.0
C580 C 0.35488 0.91225 0.93088 0.0
C581 C 0.46236 0.93088 0.92576 0.0
C582 C 0.3826 0.97253 0.93713 0.0
C583 C 0.44971 0.01203 0.93775 0.0
H584 H 0.38765 0.41266 0.27171 0.0
H585 H 0.523 0.40037 0.24544 0.0
H586 H 0.58782 0.51861 0.24425 0.0
H587 H 0.60789 0.6255 0.25148 0.0
H588 H 0.47325 0.63715 0.27806 0.0
H589 H 0.40572 0.51913 0.27835 0.0
C590 C 0.43148 0.43616 0.26578 0.0
C591 C 0.45095 0.39858 0.2587 0.0
C592 C 0.46829 0.50378 0.26519 0.0
C593 C 0.50723 0.42889 0.2509 0.0
C594 C 0.54421 0.49626 0.25025 0.0
C595 C 0.56332 0.60187 0.25718 0.0
C596 C 0.54535 0.6391 0.26481 0.0
C597 C 0.52539 0.53419 0.25741 0.0
C598 C 0.48784 0.60875 0.27222 0.0
C599 C 0.44946 0.54154 0.2724 0.0
H600 H 0.20041 0.04613 0.19867 0.0
H601 H 0.38375 0.22052 0.2049 0.0
H602 H 0.39249 0.24407 0.18108 0.0
H603 H 0.34777 0.21482 0.15839 0.0
H604 H 0.16399 0.04015 0.15257 0.0
H605 H 0.15582 0.01743 0.17629 0.0
C606 C 0.24243 0.08926 0.19485 0.0
C607 C 0.29137 0.13133 0.20358 0.0
C608 C 0.24702 0.10266 0.18118 0.0
C609 C 0.34535 0.18714 0.19841 0.0
C610 C 0.35037 0.20074 0.18478 0.0
C611 C 0.30585 0.17197 0.16233 0.0
C612 C 0.25663 0.12933 0.15368 0.0
C613 C 0.30141 0.15887 0.17606 0.0
C614 C 0.20274 0.07383 0.15896 0.0
C615 C 0.19794 0.06067 0.17255 0.0
H616 H 0.05464 0.26894 0.49335 0.0
H617 H 0.23549 0.26968 0.49042 0.0
H618 H 0.24453 0.27058 0.51461 0.0
H619 H 0.20028 0.26973 0.5367 0.0
H620 H 0.0144 0.2583 0.53972 0.0
H621 H 0.00783 0.26292 0.51551 0.0
C622 C 0.09603 0.2695 0.49805 0.0
C623 C 0.14448 0.26958 0.49014 0.0
C624 C 0.09988 0.26793 0.512 0.0
C625 C 0.19747 0.26939 0.49631 0.0
C626 C 0.20274 0.27005 0.51014 0.0
C627 C 0.1585 0.26844 0.53203 0.0
C628 C 0.10806 0.26401 0.53995 0.0
C629 C 0.15416 0.26912 0.5181 0.0
C630 C 0.05371 0.26146 0.5338 0.0
C631 C 0.05002 0.26427 0.51997 0.0
H632 H 0.78297 0.12468 0.82719 0.0
H633 H 0.97785 0.16264 0.82041 0.0
H634 H -0.0004 0.17458 0.84416 0.0
H635 H 0.96363 0.17377 0.86686 0.0
H636 H 0.76871 0.13499 0.87388 0.0
H637 H 0.74686 0.12398 0.85005 0.0
C638 C 0.83017 0.13557 0.83091 0.0
C639 C 0.87861 0.14271 0.82202 0.0
C640 C 0.84248 0.14229 0.84463 0.0
C641 C 0.93957 0.15686 0.82701 0.0
C642 C 0.95217 0.16373 0.84061 0.0
C643 C 0.91639 0.16304 0.8632 0.0
C644 C 0.86799 0.15529 0.87215 0.0
C645 C 0.90401 0.15651 0.84951 0.0
C646 C 0.80694 0.1412 0.86721 0.0
C647 C 0.79433 0.13487 0.85358 0.0
H648 H 0.69924 0.94598 0.16548 0.0
H649 H 0.69455 0.76439 0.16082 0.0
H650 H 0.69731 0.75269 0.1849 0.0
H651 H 0.70377 0.79539 0.20735 0.0
H652 H 0.69942 0.97234 0.21216 0.0
H653 H 0.69726 0.98455 0.18803 0.0
C654 C 0.69865 0.90384 0.16977 0.0
C655 C 0.69719 0.85638 0.1614 0.0
C656 C 0.69874 0.89667 0.18366 0.0
C657 C 0.69551 0.80152 0.16706 0.0
C658 C 0.69734 0.7949 0.18083 0.0
C659 C 0.70232 0.83656 0.20309 0.0
C660 C 0.70244 0.88324 0.21148 0.0
C661 C 0.69943 0.84238 0.18923 0.0
C662 C 0.69938 0.93578 0.20587 0.0
C663 C 0.69832 0.94287 0.19209 0.0
H664 H 0.8119 0.64068 0.49655 0.0
H665 H 0.01371 0.78952 0.49756 0.0
H666 H 0.00714 0.79998 0.52144 0.0
H667 H 0.94434 0.76845 0.54196 0.0
H668 H 0.74333 0.61803 0.54139 0.0
H669 H 0.74944 0.60662 0.5174 0.0
C670 C 0.85446 0.67525 0.502 0.0
C671 C 0.91316 0.71433 0.49525 0.0
C672 C 0.85052 0.68091 0.5158 0.0
C673 C 0.96792 0.75872 0.50249 0.0
C674 C 0.96424 0.7649 0.51615 0.0
C675 C 0.90174 0.73321 0.53661 0.0
C676 C 0.84337 0.69447 0.54344 0.0
C677 C 0.90577 0.72652 0.52289 0.0
C678 C 0.78887 0.64855 0.53635 0.0
C679 C 0.79232 0.64202 0.52264 0.0
H680 H 0.19709 0.90418 0.87329 0.0
H681 H 0.01843 0.72279 0.87716 0.0
H682 H 0.00785 0.71408 0.85296 0.0
H683 H 0.04838 0.75976 0.8306 0.0
H684 H 0.23257 0.93554 0.82679 0.0
H685 H 0.24236 0.94481 0.85098 0.0
C686 C 0.15597 0.86275 0.86879 0.0
C687 C 0.10822 0.81452 0.87695 0.0
C688 C 0.15128 0.85716 0.85488 0.0
C689 C 0.05575 0.76048 0.87106 0.0
C690 C 0.04961 0.75561 0.85723 0.0
C691 C 0.09066 0.79993 0.8351 0.0
C692 C 0.13941 0.84725 0.82696 0.0
C693 C 0.09685 0.80388 0.84903 0.0
C694 C 0.19448 0.89852 0.83288 0.0
C695 C 0.19999 0.90394 0.8467 0.0
H696 H 0.56458 0.61305 0.083 0.0
H697 H 0.60647 0.61539 0.12485 0.0
H698 H 0.53124 0.49958 0.12641 0.0
H699 H 0.45092 0.398 0.11621 0.0
H700 H 0.40932 0.39362 0.07435 0.0
H701 H 0.48643 0.50961 0.07255 0.0
C702 C 0.55792 0.58811 0.09242 0.0
C703 C 0.59128 0.62327 0.10378 0.0
C704 C 0.51383 0.52112 0.09332 0.0
C705 C 0.58152 0.58992 0.11593 0.0
C706 C 0.5382 0.52355 0.11686 0.0
C707 C 0.45826 0.42239 0.1067 0.0
C708 C 0.42373 0.38709 0.09547 0.0
C709 C 0.5034 0.48884 0.10568 0.0
C710 C 0.43491 0.41954 0.08319 0.0
C711 C 0.4792 0.48591 0.08213 0.0
H712 H 0.03863 0.42686 0.45155 0.0
H713 H 0.02409 0.40264 0.40904 0.0
H714 H 0.98278 0.47784 0.40713 0.0
H715 H 0.95257 0.55256 0.41757 0.0
H716 H 0.97107 0.57748 0.46011 0.0
H717 H 0.00938 0.5007 0.46185 0.0
C718 C 0.0258 0.43735 0.44185 0.0
C719 C 0.03416 0.40861 0.43048 0.0
C720 C 0.00335 0.48157 0.44079 0.0
C721 C 0.018 0.42375 0.418 0.0
C722 C 0.99458 0.46703 0.41688 0.0
C723 C 0.96533 0.54149 0.42721 0.0
C724 C 0.95879 0.57117 0.43866 0.0
C725 C 0.98758 0.49678 0.42821 0.0
C726 C 0.97541 0.55572 0.45108 0.0
C727 C -0.00273 0.5115 0.45213 0.0
H728 H 0.39615 0.95187 0.74957 0.0
H729 H 0.38439 0.98369 0.79135 0.0
H730 H 0.50052 0.0262 0.79372 0.0
H731 H 0.60489 0.05195 0.7842 0.0
H732 H 0.61829 0.02149 0.74244 0.0
H733 H 0.50202 0.98051 0.73986 0.0
C734 C 0.41902 0.96865 0.75917 0.0
C735 C 0.38123 0.96438 0.77026 0.0
C736 C 0.48608 0.9927 0.76052 0.0
C737 C 0.41194 0.98618 0.78263 0.0
C738 C 0.47848 0.01039 0.78402 0.0
C739 C 0.5825 0.03608 0.77453 0.0
C740 C 0.62041 0.0394 0.76356 0.0
C741 C 0.51586 0.01321 0.77308 0.0
C742 C 0.59039 0.01928 0.75108 0.0
C743 C 0.52386 0.99595 0.74959 0.0
H744 H 0.59483 0.53709 0.58305 0.0
H745 H 0.60174 0.58307 0.62458 0.0
H746 H 0.48521 0.50732 0.62647 0.0
H747 H 0.38107 0.42912 0.6162 0.0
H748 H 0.37599 0.38343 0.57467 0.0
H749 H 0.49233 0.45751 0.57301 0.0
C750 C 0.57099 0.53098 0.59253 0.0
C751 C 0.60714 0.56631 0.60363 0.0
C752 C 0.50429 0.48691 0.59358 0.0
C753 C 0.57522 0.55685 0.61585 0.0
C754 C 0.50856 0.51337 0.61694 0.0
C755 C 0.40543 0.43483 0.60681 0.0
C756 C 0.36945 0.40056 0.59557 0.0
C757 C 0.47259 0.47811 0.60587 0.0
C758 C 0.40211 0.40901 0.58349 0.0
C759 C 0.46875 0.45161 0.5825 0.0
H760 H 0.02019 0.57344 0.91705 0.0
H761 H 0.98927 0.5783 0.95909 0.0
H762 H 0.94856 0.46202 0.96079 0.0
H763 H 0.92273 0.35863 0.95032 0.0
H764 H 0.95668 0.35629 0.9083 0.0
H765 H 0.9957 0.4716 0.90672 0.0
C766 C 0.00393 0.54908 0.92658 0.0
C767 C 0.00743 0.58469 0.93789 0.0
C768 C 0.98173 0.48249 0.92754 0.0
C769 C 0.98693 0.55218 0.95018 0.0
C770 C 0.96386 0.48564 0.95118 0.0
C771 C 0.93916 0.38344 0.94084 0.0
C772 C 0.93663 0.34842 0.92947 0.0
C773 C 0.96149 0.4503 0.93994 0.0
C774 C 0.95783 0.3816 0.91725 0.0
C775 C 0.98008 0.44773 0.9163 0.0
H776 H 0.55585 0.96475 0.25178 0.0
H777 H 0.59088 0.99593 0.29386 0.0
H778 H 0.51419 0.03593 0.29494 0.0
H779 H 0.43787 0.0633 0.28373 0.0
H780 H 0.40284 0.02857 0.24167 0.0
H781 H 0.47817 0.98803 0.24089 0.0
C782 C 0.54728 0.98072 0.2612 0.0
C783 C 0.57983 0.97799 0.27269 0.0
C784 C 0.50248 0.00251 0.26179 0.0
C785 C 0.56692 -0.00212 0.28484 0.0
C786 C 0.52287 0.02056 0.28546 0.0
C787 C 0.44618 0.04622 0.27443 0.0
C788 C 0.41457 0.04933 0.26277 0.0
C789 C 0.49023 0.02304 0.27399 0.0
C790 C 0.42636 0.02711 0.2508 0.0
C791 C 0.46972 0.00402 0.25031 0.0
H792 H 0.10432 0.07955 0.11787 0.0
H793 H 0.11193 0.10077 0.07519 0.0
H794 H 0.99611 0.0228 0.07375 0.0
H795 H 0.8933 0.94637 0.08454 0.0
H796 H 0.88632 0.92487 0.12723 0.0
H797 H 0.00151 0.00426 0.12865 0.0
C798 C 0.08062 0.06781 0.10825 0.0
C799 C 0.11695 0.09631 0.09667 0.0
C800 C 0.01422 0.02202 0.10746 0.0
C801 C 0.08527 0.07982 0.08429 0.0
C802 C 0.01903 0.03491 0.08344 0.0
C803 C 0.91688 0.95876 0.09416 0.0
C804 C 0.88087 0.92937 0.10575 0.0
C805 C 0.98318 0.00512 0.09495 0.0
C806 C 0.9126 0.9464 0.11812 0.0
C807 C 0.97853 0.99212 0.11897 0.0
H808 H 0.05216 0.10178 0.45264 0.0
H809 H 0.04056 0.11332 0.40999 0.0
H810 H 0.00732 -0.00095 0.40823 0.0
H811 H 0.98119 0.89589 0.41879 0.0
H812 H 0.98987 0.88368 0.46147 0.0
H813 H 0.02701 -0.00134 0.46314 0.0
C814 C 0.04178 0.07924 0.44296 0.0
C815 C 0.04835 0.11616 0.43149 0.0
C816 C 0.02326 0.01356 0.44199 0.0
C817 C 0.0356 0.08615 0.41901 0.0
C818 C 0.01689 0.02079 0.41798 0.0
C819 C 0.99091 0.91802 0.42846 0.0
C820 C 0.98147 0.88037 0.43995 0.0
C821 C 0.01067 0.98404 0.4294 0.0
C822 C 0.99618 0.91098 0.4524 0.0
C823 C 0.01707 0.97683 0.4534 0.0
H824 H 0.9491 0.04672 0.75089 0.0
H825 H 0.87288 0.98302 0.79037 0.0
H826 H 0.94913 0.94436 0.79411 0.0
H827 H 0.03946 0.93116 0.78639 0.0
H828 H 0.11593 0.99607 0.74695 0.0
H829 H 0.03844 0.03293 0.74311 0.0
C830 C 0.94853 0.02366 0.76025 0.0
C831 C 0.90519 0.01771 0.7703 0.0
C832 C 0.99345 0.00287 0.76246 0.0
C833 C 0.9056 0.98811 0.78243 0.0
C834 C 0.94951 0.96637 0.78463 0.0
C835 C 0.03974 0.95415 0.77702 0.0
C836 C 0.08379 0.9613 0.76702 0.0
C837 C 0.99431 0.97438 0.77478 0.0
C838 C 0.08276 0.99024 0.75485 0.0
C839 C 0.0382 0.011 0.75261 0.0
H840 H 0.9316 0.88807 0.61602 0.0
H841 H 0.86947 0.87205 0.57518 0.0
H842 H 0.94526 0.98693 0.57161 0.0
H843 H 0.03107 0.0915 0.57989 0.0
H844 H 0.09281 0.10751 0.62076 0.0
H845 H 0.01592 0.99294 0.62441 0.0
C846 C 0.93396 0.9098 0.60638 0.0
C847 C 0.89468 0.87135 0.59591 0.0
C848 C 0.97838 0.97575 0.60432 0.0
C849 C 0.89897 0.9004 0.58344 0.0
C850 C 0.94259 0.96609 0.58136 0.0
C851 C 0.02821 0.06981 0.58956 0.0
C852 C 0.0681 0.108 0.59999 0.0
C853 C 0.98313 0.00405 0.59167 0.0
C854 C 0.06294 0.07923 0.61252 0.0
C855 C 0.01875 0.01373 0.61465 0.0
H856 H 0.93556 0.03034 0.94898 0.0
H857 H 0.97297 0.07569 0.90722 0.0
H858 H 0.01087 -0.00163 0.90529 0.0
H859 H 0.03041 0.91532 0.91525 0.0
H860 H 0.99255 0.86978 0.95698 0.0
H861 H 0.95667 0.94869 0.95901 0.0
C862 C 0.95252 0.02386 0.93948 0.0
C863 C 0.95107 0.05879 0.92827 0.0
C864 C 0.97316 0.97833 0.93835 0.0
C865 C 0.97335 0.04949 0.91604 0.0
C866 C 0.99474 0.00494 0.91488 0.0
C867 C 0.01362 0.9221 0.92475 0.0
C868 C 0.01363 0.88613 0.9359 0.0
C869 C 0.99391 0.96835 0.92592 0.0
C870 C 0.99272 0.89645 0.9482 0.0
C871 C 0.97249 0.94187 0.9494 0.0
H872 H 0.11035 0.07491 0.28038 0.0
H873 H 0.10946 0.0303 0.23894 0.0
H874 H 0.99311 0.99034 0.23774 0.0
H875 H 0.89133 0.96783 0.24845 0.0
H876 H 0.89306 0.01476 0.28977 0.0
H877 H 0.00934 0.05472 0.29095 0.0
C878 C 0.08475 0.05612 0.2711 0.0
C879 C 0.11881 0.05547 0.25979 0.0
C880 C 0.01794 0.03414 0.27041 0.0
C881 C 0.08464 0.0313 0.24782 0.0
C882 C 0.01804 0.00863 0.24711 0.0
C883 C 0.91724 0.9875 0.25768 0.0
C884 C 0.88326 0.9879 0.26902 0.0
C885 C 0.98424 0.01015 0.25832 0.0
C886 C 0.91771 0.01317 0.28092 0.0
C887 C 0.9843 0.03605 0.28161 0.0
loop_
_geom_bond_atom_site_label_1
_geom_bond_atom_site_label_2
_geom_bond_distance
_geom_bond_site_symmetry_2
_ccdc_geom_bond_type
Co0 O3 1.970 . S
Co0 N17 1.989 . S
Co0 O25 1.967 . S
Co0 O32 1.920 . S
Co1 O4 1.966 . S
Co1 N10 2.022 . S
Co1 N18 1.993 . S
Co1 O26 1.941 . S
C2 O3 1.258 . S
C2 O4 1.263 . S
O3 Co0 1.970 . S
O3 C2 1.258 . S
O4 Co1 1.966 . S
O4 C2 1.263 . S
C5 O6 1.235 . S
C5 O32 1.289 . S
O6 C5 1.235 . S
C7 C9 1.400 . S
C7 N10 1.351 . S
C7 C12 1.501 . S
C8 C9 1.387 . S
C8 N11 1.341 . S
C9 C7 1.400 . S
C9 C8 1.387 . S
N10 Co1 2.022 . S
N10 C7 1.351 . S
N10 N11 1.365 . S
N11 C8 1.341 . S
N11 N10 1.365 . S
N11 H31 0.862 . S
C12 C7 1.501 . S
C12 H13 0.961 . S
C12 H14 0.961 . S
C12 H15 0.960 . S
H13 C12 0.961 . S
H14 C12 0.961 . S
H15 C12 0.960 . S
C16 N17 1.342 . S
C16 C20 1.401 . S
C16 C21 1.499 . S
N17 Co0 1.989 . S
N17 C16 1.342 . S
N17 N18 1.388 . S
N18 Co1 1.993 . S
N18 N17 1.388 . S
N18 C19 1.346 . S
C19 N18 1.346 . S
C19 C20 1.396 . S
C19 C29 1.510 . S
C20 C16 1.401 . S
C20 C19 1.396 . S
C21 C16 1.499 . S
C21 H22 0.959 . S
C21 H23 0.960 . S
C21 H24 0.961 . S
H22 C21 0.959 . S
H23 C21 0.960 . S
H24 C21 0.961 . S
O25 Co0 1.967 . S
O25 C33 1.258 . S
O26 Co1 1.941 . S
O26 C33 1.266 . S
H27 C29 0.959 . S
H28 C29 0.961 . S
C29 C19 1.510 . S
C29 H27 0.959 . S
C29 H28 0.961 . S
C29 H30 0.960 . S
H30 C29 0.960 . S
H31 N11 0.862 . S
O32 Co0 1.920 . S
O32 C5 1.289 . S
C33 O25 1.258 . S
C33 O26 1.266 . S
Co34 O37 1.970 . S
Co34 N51 1.989 . S
Co34 O59 1.967 . S
Co34 O66 1.920 . S
Co35 O38 1.966 . S
Co35 N44 2.022 . S
Co35 N52 1.993 . S
Co35 O60 1.941 . S
C36 O37 1.258 . S
C36 O38 1.263 . S
O37 Co34 1.970 . S
O37 C36 1.258 . S
O38 Co35 1.966 . S
O38 C36 1.263 . S
C39 O40 1.235 . S
C39 O66 1.289 . S
O40 C39 1.235 . S
C41 C43 1.400 . S
C41 N44 1.351 . S
C41 C46 1.501 . S
C42 C43 1.387 . S
C42 N45 1.341 . S
C43 C41 1.400 . S
C43 C42 1.387 . S
N44 Co35 2.022 . S
N44 C41 1.351 . S
N44 N45 1.365 . S
N45 C42 1.341 . S
N45 N44 1.365 . S
N45 H65 0.862 . S
C46 C41 1.501 . S
C46 H47 0.961 . S
C46 H48 0.961 . S
C46 H49 0.960 . S
H47 C46 0.961 . S
H48 C46 0.961 . S
H49 C46 0.960 . S
C50 N51 1.342 . S
C50 C54 1.401 . S
C50 C55 1.499 . S
N51 Co34 1.989 . S
N51 C50 1.342 . S
N51 N52 1.388 . S
N52 Co35 1.993 . S
N52 N51 1.388 . S
N52 C53 1.346 . S
C53 N52 1.346 . S
C53 C54 1.396 . S
C53 C63 1.510 . S
C54 C50 1.401 . S
C54 C53 1.396 . S
C55 C50 1.499 . S
C55 H56 0.959 . S
C55 H57 0.960 . S
C55 H58 0.961 . S
H56 C55 0.959 . S
H57 C55 0.960 . S
H58 C55 0.961 . S
O59 Co34 1.967 . S
O59 C67 1.258 . S
O60 Co35 1.941 . S
O60 C67 1.266 . S
H61 C63 0.959 . S
H62 C63 0.961 . S
C63 C53 1.510 . S
C63 H61 0.959 . S
C63 H62 0.961 . S
C63 H64 0.960 . S
H64 C63 0.960 . S
H65 N45 0.862 . S
O66 Co34 1.920 . S
O66 C39 1.289 . S
C67 O59 1.258 . S
C67 O60 1.266 . S
Co68 O71 1.970 . S
Co68 N85 1.989 . S
Co68 O93 1.967 . S
Co68 O100 1.920 . S
Co69 O72 1.966 . S
Co69 N78 2.022 . S
Co69 N86 1.993 . S
Co69 O94 1.941 . S
C70 O71 1.258 . S
C70 O72 1.263 . S
O71 Co68 1.970 . S
O71 C70 1.258 . S
O72 Co69 1.966 . S
O72 C70 1.263 . S
C73 O74 1.235 . S
C73 O100 1.289 . S
O74 C73 1.235 . S
C75 C77 1.400 . S
C75 N78 1.351 . S
C75 C80 1.501 . S
C76 C77 1.387 . S
C76 N79 1.341 . S
C77 C75 1.400 . S
C77 C76 1.387 . S
N78 Co69 2.022 . S
N78 C75 1.351 . S
N78 N79 1.365 . S
N79 C76 1.341 . S
N79 N78 1.365 . S
N79 H99 0.862 . S
C80 C75 1.501 . S
C80 H81 0.961 . S
C80 H82 0.961 . S
C80 H83 0.960 . S
H81 C80 0.961 . S
H82 C80 0.961 . S
H83 C80 0.960 . S
C84 N85 1.342 . S
C84 C88 1.401 . S
C84 C89 1.499 . S
N85 Co68 1.989 . S
N85 C84 1.342 . S
N85 N86 1.388 . S
N86 Co69 1.993 . S
N86 N85 1.388 . S
N86 C87 1.346 . S
C87 N86 1.346 . S
C87 C88 1.396 . S
C87 C97 1.510 . S
C88 C84 1.401 . S
C88 C87 1.396 . S
C89 C84 1.499 . S
C89 H90 0.959 . S
C89 H91 0.960 . S
C89 H92 0.961 . S
H90 C89 0.959 . S
H91 C89 0.960 . S
H92 C89 0.961 . S
O93 Co68 1.967 . S
O93 C101 1.258 . S
O94 Co69 1.941 . S
O94 C101 1.266 . S
H95 C97 0.959 . S
H96 C97 0.961 . S
C97 C87 1.510 . S
C97 H95 0.959 . S
C97 H96 0.961 . S
C97 H98 0.960 . S
H98 C97 0.960 . S
H99 N79 0.862 . S
O100 Co68 1.920 . S
O100 C73 1.289 . S
C101 O93 1.258 . S
C101 O94 1.266 . S
Co102 O105 1.970 . S
Co102 N119 1.989 . S
Co102 O127 1.967 . S
Co102 O134 1.920 . S
Co103 O106 1.966 . S
Co103 N112 2.022 . S
Co103 N120 1.993 . S
Co103 O128 1.941 . S
C104 O105 1.258 . S
C104 O106 1.263 . S
O105 Co102 1.970 . S
O105 C104 1.258 . S
O106 Co103 1.966 . S
O106 C104 1.263 . S
C107 O108 1.235 . S
C107 O134 1.289 . S
O108 C107 1.235 . S
C109 C111 1.400 . S
C109 N112 1.351 . S
C109 C114 1.501 . S
C110 C111 1.387 . S
C110 N113 1.341 . S
C111 C109 1.400 . S
C111 C110 1.387 . S
N112 Co103 2.022 . S
N112 C109 1.351 . S
N112 N113 1.365 . S
N113 C110 1.341 . S
N113 N112 1.365 . S
N113 H133 0.862 . S
C114 C109 1.501 . S
C114 H115 0.961 . S
C114 H116 0.961 . S
C114 H117 0.960 . S
H115 C114 0.961 . S
H116 C114 0.961 . S
H117 C114 0.960 . S
C118 N119 1.342 . S
C118 C122 1.401 . S
C118 C123 1.499 . S
N119 Co102 1.989 . S
N119 C118 1.342 . S
N119 N120 1.388 . S
N120 Co103 1.993 . S
N120 N119 1.388 . S
N120 C121 1.346 . S
C121 N120 1.346 . S
C121 C122 1.396 . S
C121 C131 1.510 . S
C122 C118 1.401 . S
C122 C121 1.396 . S
C123 C118 1.499 . S
C123 H124 0.959 . S
C123 H125 0.960 . S
C123 H126 0.961 . S
H124 C123 0.959 . S
H125 C123 0.960 . S
H126 C123 0.961 . S
O127 Co102 1.967 . S
O127 C135 1.258 . S
O128 Co103 1.941 . S
O128 C135 1.266 . S
H129 C131 0.959 . S
H130 C131 0.961 . S
C131 C121 1.510 . S
C131 H129 0.959 . S
C131 H130 0.961 . S
C131 H132 0.960 . S
H132 C131 0.960 . S
H133 N113 0.862 . S
O134 Co102 1.920 . S
O134 C107 1.289 . S
C135 O127 1.258 . S
C135 O128 1.266 . S
Co136 O139 1.970 . S
Co136 N153 1.989 . S
Co136 O161 1.967 . S
Co136 O168 1.920 . S
Co137 O140 1.966 . S
Co137 N146 2.022 . S
Co137 N154 1.993 . S
Co137 O162 1.941 . S
C138 O139 1.258 . S
C138 O140 1.263 . S
O139 Co136 1.970 . S
O139 C138 1.258 . S
O140 Co137 1.966 . S
O140 C138 1.263 . S
C141 O142 1.235 . S
C141 O168 1.289 . S
O142 C141 1.235 . S
C143 C145 1.400 . S
C143 N146 1.351 . S
C143 C148 1.501 . S
C144 C145 1.387 . S
C144 N147 1.341 . S
C145 C143 1.400 . S
C145 C144 1.387 . S
N146 Co137 2.022 . S
N146 C143 1.351 . S
N146 N147 1.365 . S
N147 C144 1.341 . S
N147 N146 1.365 . S
N147 H167 0.862 . S
C148 C143 1.501 . S
C148 H149 0.961 . S
C148 H150 0.961 . S
C148 H151 0.960 . S
H149 C148 0.961 . S
H150 C148 0.961 . S
H151 C148 0.960 . S
C152 N153 1.342 . S
C152 C156 1.401 . S
C152 C157 1.499 . S
N153 Co136 1.989 . S
N153 C152 1.342 . S
N153 N154 1.388 . S
N154 Co137 1.993 . S
N154 N153 1.388 . S
N154 C155 1.346 . S
C155 N154 1.346 . S
C155 C156 1.396 . S
C155 C165 1.510 . S
C156 C152 1.401 . S
C156 C155 1.396 . S
C157 C152 1.499 . S
C157 H158 0.959 . S
C157 H159 0.960 . S
C157 H160 0.961 . S
H158 C157 0.959 . S
H159 C157 0.960 . S
H160 C157 0.961 . S
O161 Co136 1.967 . S
O161 C169 1.258 . S
O162 Co137 1.941 . S
O162 C169 1.266 . S
H163 C165 0.959 . S
H164 C165 0.961 . S
C165 C155 1.510 . S
C165 H163 0.959 . S
C165 H164 0.961 . S
C165 H166 0.960 . S
H166 C165 0.960 . S
H167 N147 0.862 . S
O168 Co136 1.920 . S
O168 C141 1.289 . S
C169 O161 1.258 . S
C169 O162 1.266 . S
Co170 O173 1.970 . S
Co170 N187 1.989 . S
Co170 O195 1.967 . S
Co170 O202 1.920 . S
Co171 O174 1.966 . S
Co171 N180 2.022 . S
Co171 N188 1.993 . S
Co171 O196 1.941 . S
C172 O173 1.258 . S
C172 O174 1.263 . S
O173 Co170 1.970 . S
O173 C172 1.258 . S
O174 Co171 1.966 . S
O174 C172 1.263 . S
C175 O176 1.235 . S
C175 O202 1.289 . S
O176 C175 1.235 . S
C177 C179 1.400 . S
C177 N180 1.351 . S
C177 C182 1.501 . S
C178 C179 1.387 . S
C178 N181 1.341 . S
C179 C177 1.400 . S
C179 C178 1.387 . S
N180 Co171 2.022 . S
N180 C177 1.351 . S
N180 N181 1.365 . S
N181 C178 1.341 . S
N181 N180 1.365 . S
N181 H201 0.862 . S
C182 C177 1.501 . S
C182 H183 0.961 . S
C182 H184 0.961 . S
C182 H185 0.960 . S
H183 C182 0.961 . S
H184 C182 0.961 . S
H185 C182 0.960 . S
C186 N187 1.342 . S
C186 C190 1.401 . S
C186 C191 1.499 . S
N187 Co170 1.989 . S
N187 C186 1.342 . S
N187 N188 1.388 . S
N188 Co171 1.993 . S
N188 N187 1.388 . S
N188 C189 1.346 . S
C189 N188 1.346 . S
C189 C190 1.396 . S
C189 C199 1.510 . S
C190 C186 1.401 . S
C190 C189 1.396 . S
C191 C186 1.499 . S
C191 H192 0.959 . S
C191 H193 0.960 . S
C191 H194 0.961 . S
H192 C191 0.959 . S
H193 C191 0.960 . S
H194 C191 0.961 . S
O195 Co170 1.967 . S
O195 C203 1.258 . S
O196 Co171 1.941 . S
O196 C203 1.266 . S
H197 C199 0.959 . S
H198 C199 0.961 . S
C199 C189 1.510 . S
C199 H197 0.959 . S
C199 H198 0.961 . S
C199 H200 0.960 . S
H200 C199 0.960 . S
H201 N181 0.862 . S
O202 Co170 1.920 . S
O202 C175 1.289 . S
C203 O195 1.258 . S
C203 O196 1.266 . S
Co204 O207 1.970 . S
Co204 N221 1.989 . S
Co204 O229 1.967 . S
Co204 O236 1.920 . S
Co205 O208 1.966 . S
Co205 N214 2.022 . S
Co205 N222 1.993 . S
Co205 O230 1.941 . S
C206 O207 1.258 . S
C206 O208 1.263 . S
O207 Co204 1.970 . S
O207 C206 1.258 . S
O208 Co205 1.966 . S
O208 C206 1.263 . S
C209 O210 1.235 . S
C209 O236 1.289 . S
O210 C209 1.235 . S
C211 C213 1.400 . S
C211 N214 1.351 . S
C211 C216 1.501 . S
C212 C213 1.387 . S
C212 N215 1.341 . S
C213 C211 1.400 . S
C213 C212 1.387 . S
N214 Co205 2.022 . S
N214 C211 1.351 . S
N214 N215 1.365 . S
N215 C212 1.341 . S
N215 N214 1.365 . S
N215 H235 0.862 . S
C216 C211 1.501 . S
C216 H217 0.961 . S
C216 H218 0.961 . S
C216 H219 0.960 . S
H217 C216 0.961 . S
H218 C216 0.961 . S
H219 C216 0.960 . S
C220 N221 1.342 . S
C220 C224 1.401 . S
C220 C225 1.499 . S
N221 Co204 1.989 . S
N221 C220 1.342 . S
N221 N222 1.388 . S
N222 Co205 1.993 . S
N222 N221 1.388 . S
N222 C223 1.346 . S
C223 N222 1.346 . S
C223 C224 1.396 . S
C223 C233 1.510 . S
C224 C220 1.401 . S
C224 C223 1.396 . S
C225 C220 1.499 . S
C225 H226 0.959 . S
C225 H227 0.960 . S
C225 H228 0.961 . S
H226 C225 0.959 . S
H227 C225 0.960 . S
H228 C225 0.961 . S
O229 Co204 1.967 . S
O229 C237 1.258 . S
O230 Co205 1.941 . S
O230 C237 1.266 . S
H231 C233 0.959 . S
H232 C233 0.961 . S
C233 C223 1.510 . S
C233 H231 0.959 . S
C233 H232 0.961 . S
C233 H234 0.960 . S
H234 C233 0.960 . S
H235 N215 0.862 . S
O236 Co204 1.920 . S
O236 C209 1.289 . S
C237 O229 1.258 . S
C237 O230 1.266 . S
Co238 O241 1.970 . S
Co238 N255 1.989 . S
Co238 O263 1.967 . S
Co238 O270 1.920 . S
Co239 O242 1.966 . S
Co239 N248 2.022 . S
Co239 N256 1.993 . S
Co239 O264 1.941 . S
C240 O241 1.258 . S
C240 O242 1.263 . S
O241 Co238 1.970 . S
O241 C240 1.258 . S
O242 Co239 1.966 . S
O242 C240 1.263 . S
C243 O244 1.235 . S
C243 O270 1.289 . S
O244 C243 1.235 . S
C245 C247 1.400 . S
C245 N248 1.351 . S
C245 C250 1.501 . S
C246 C247 1.387 . S
C246 N249 1.341 . S
C247 C245 1.400 . S
C247 C246 1.387 . S
N248 Co239 2.022 . S
N248 C245 1.351 . S
N248 N249 1.365 . S
N249 C246 1.341 . S
N249 N248 1.365 . S
N249 H269 0.862 . S
C250 C245 1.501 . S
C250 H251 0.961 . S
C250 H252 0.961 . S
C250 H253 0.960 . S
H251 C250 0.961 . S
H252 C250 0.961 . S
H253 C250 0.960 . S
C254 N255 1.342 . S
C254 C258 1.401 . S
C254 C259 1.499 . S
N255 Co238 1.989 . S
N255 C254 1.342 . S
N255 N256 1.388 . S
N256 Co239 1.993 . S
N256 N255 1.388 . S
N256 C257 1.346 . S
C257 N256 1.346 . S
C257 C258 1.396 . S
C257 C267 1.510 . S
C258 C254 1.401 . S
C258 C257 1.396 . S
C259 C254 1.499 . S
C259 H260 0.959 . S
C259 H261 0.960 . S
C259 H262 0.961 . S
H260 C259 0.959 . S
H261 C259 0.960 . S
H262 C259 0.961 . S
O263 Co238 1.967 . S
O263 C271 1.258 . S
O264 Co239 1.941 . S
O264 C271 1.266 . S
H265 C267 0.959 . S
H266 C267 0.961 . S
C267 C257 1.510 . S
C267 H265 0.959 . S
C267 H266 0.961 . S
C267 H268 0.960 . S
H268 C267 0.960 . S
H269 N249 0.862 . S
O270 Co238 1.920 . S
O270 C243 1.289 . S
C271 O263 1.258 . S
C271 O264 1.266 . S
Co272 O275 1.970 . S
Co272 N289 1.989 . S
Co272 O297 1.967 . S
Co272 O304 1.920 . S
Co273 O276 1.966 . S
Co273 N282 2.022 . S
Co273 N290 1.993 . S
Co273 O298 1.941 . S
C274 O275 1.258 . S
C274 O276 1.263 . S
O275 Co272 1.970 . S
O275 C274 1.258 . S
O276 Co273 1.966 . S
O276 C274 1.263 . S
C277 O278 1.235 . S
C277 O304 1.289 . S
O278 C277 1.235 . S
C279 C281 1.400 . S
C279 N282 1.351 . S
C279 C284 1.501 . S
C280 C281 1.387 . S
C280 N283 1.341 . S
C281 C279 1.400 . S
C281 C280 1.387 . S
N282 Co273 2.022 . S
N282 C279 1.351 . S
N282 N283 1.365 . S
N283 C280 1.341 . S
N283 N282 1.365 . S
N283 H303 0.862 . S
C284 C279 1.501 . S
C284 H285 0.961 . S
C284 H286 0.961 . S
C284 H287 0.960 . S
H285 C284 0.961 . S
H286 C284 0.961 . S
H287 C284 0.960 . S
C288 N289 1.342 . S
C288 C292 1.401 . S
C288 C293 1.499 . S
N289 Co272 1.989 . S
N289 C288 1.342 . S
N289 N290 1.388 . S
N290 Co273 1.993 . S
N290 N289 1.388 . S
N290 C291 1.346 . S
C291 N290 1.346 . S
C291 C292 1.396 . S
C291 C301 1.510 . S
C292 C288 1.401 . S
C292 C291 1.396 . S
C293 C288 1.499 . S
C293 H294 0.959 . S
C293 H295 0.960 . S
C293 H296 0.961 . S
H294 C293 0.959 . S
H295 C293 0.960 . S
H296 C293 0.961 . S
O297 Co272 1.967 . S
O297 C305 1.258 . S
O298 Co273 1.941 . S
O298 C305 1.266 . S
H299 C301 0.959 . S
H300 C301 0.961 . S
C301 C291 1.510 . S
C301 H299 0.959 . S
C301 H300 0.961 . S
C301 H302 0.960 . S
H302 C301 0.960 . S
H303 N283 0.862 . S
O304 Co272 1.920 . S
O304 C277 1.289 . S
C305 O297 1.258 . S
C305 O298 1.266 . S
Co306 O309 1.970 . S
Co306 N323 1.989 . S
Co306 O331 1.967 . S
Co306 O338 1.920 . S
Co307 O310 1.966 . S
Co307 N316 2.022 . S
Co307 N324 1.993 . S
Co307 O332 1.941 . S
C308 O309 1.258 . S
C308 O310 1.263 . S
O309 Co306 1.970 . S
O309 C308 1.258 . S
O310 Co307 1.966 . S
O310 C308 1.263 . S
C311 O312 1.235 . S
C311 O338 1.289 . S
O312 C311 1.235 . S
C313 C315 1.400 . S
C313 N316 1.351 . S
C313 C318 1.501 . S
C314 C315 1.387 . S
C314 N317 1.341 . S
C315 C313 1.400 . S
C315 C314 1.387 . S
N316 Co307 2.022 . S
N316 C313 1.351 . S
N316 N317 1.365 . S
N317 C314 1.341 . S
N317 N316 1.365 . S
N317 H337 0.862 . S
C318 C313 1.501 . S
C318 H319 0.961 . S
C318 H320 0.961 . S
C318 H321 0.960 . S
H319 C318 0.961 . S
H320 C318 0.961 . S
H321 C318 0.960 . S
C322 N323 1.342 . S
C322 C326 1.401 . S
C322 C327 1.499 . S
N323 Co306 1.989 . S
N323 C322 1.342 . S
N323 N324 1.388 . S
N324 Co307 1.993 . S
N324 N323 1.388 . S
N324 C325 1.346 . S
C325 N324 1.346 . S
C325 C326 1.396 . S
C325 C335 1.510 . S
C326 C322 1.401 . S
C326 C325 1.396 . S
C327 C322 1.499 . S
C327 H328 0.959 . S
C327 H329 0.960 . S
C327 H330 0.961 . S
H328 C327 0.959 . S
H329 C327 0.960 . S
H330 C327 0.961 . S
O331 Co306 1.967 . S
O331 C339 1.258 . S
O332 Co307 1.941 . S
O332 C339 1.266 . S
H333 C335 0.959 . S
H334 C335 0.961 . S
C335 C325 1.510 . S
C335 H333 0.959 . S
C335 H334 0.961 . S
C335 H336 0.960 . S
H336 C335 0.960 . S
H337 N317 0.862 . S
O338 Co306 1.920 . S
O338 C311 1.289 . S
C339 O331 1.258 . S
C339 O332 1.266 . S
Co340 O343 1.970 . S
Co340 N357 1.989 . S
Co340 O365 1.967 . S
Co340 O372 1.920 . S
Co341 O344 1.966 . S
Co341 N350 2.022 . S
Co341 N358 1.993 . S
Co341 O366 1.941 . S
C342 O343 1.258 . S
C342 O344 1.263 . S
O343 Co340 1.970 . S
O343 C342 1.258 . S
O344 Co341 1.966 . S
O344 C342 1.263 . S
C345 O346 1.235 . S
C345 O372 1.289 . S
O346 C345 1.235 . S
C347 C349 1.400 . S
C347 N350 1.351 . S
C347 C352 1.501 . S
C348 C349 1.387 . S
C348 N351 1.341 . S
C349 C347 1.400 . S
C349 C348 1.387 . S
N350 Co341 2.022 . S
N350 C347 1.351 . S
N350 N351 1.365 . S
N351 C348 1.341 . S
N351 N350 1.365 . S
N351 H371 0.862 . S
C352 C347 1.501 . S
C352 H353 0.961 . S
C352 H354 0.961 . S
C352 H355 0.960 . S
H353 C352 0.961 . S
H354 C352 0.961 . S
H355 C352 0.960 . S
C356 N357 1.342 . S
C356 C360 1.401 . S
C356 C361 1.499 . S
N357 Co340 1.989 . S
N357 C356 1.342 . S
N357 N358 1.388 . S
N358 Co341 1.993 . S
N358 N357 1.388 . S
N358 C359 1.346 . S
C359 N358 1.346 . S
C359 C360 1.396 . S
C359 C369 1.510 . S
C360 C356 1.401 . S
C360 C359 1.396 . S
C361 C356 1.499 . S
C361 H362 0.959 . S
C361 H363 0.960 . S
C361 H364 0.961 . S
H362 C361 0.959 . S
H363 C361 0.960 . S
H364 C361 0.961 . S
O365 Co340 1.967 . S
O365 C373 1.258 . S
O366 Co341 1.941 . S
O366 C373 1.266 . S
H367 C369 0.959 . S
H368 C369 0.961 . S
C369 C359 1.510 . S
C369 H367 0.959 . S
C369 H368 0.961 . S
C369 H370 0.960 . S
H370 C369 0.960 . S
H371 N351 0.862 . S
O372 Co340 1.920 . S
O372 C345 1.289 . S
C373 O365 1.258 . S
C373 O366 1.266 . S
Co374 O377 1.970 . S
Co374 N391 1.989 . S
Co374 O399 1.967 . S
Co374 O406 1.920 . S
Co375 O378 1.966 . S
Co375 N384 2.022 . S
Co375 N392 1.993 . S
Co375 O400 1.941 . S
C376 O377 1.258 . S
C376 O378 1.263 . S
O377 Co374 1.970 . S
O377 C376 1.258 . S
O378 Co375 1.966 . S
O378 C376 1.263 . S
C379 O380 1.235 . S
C379 O406 1.289 . S
O380 C379 1.235 . S
C381 C383 1.400 . S
C381 N384 1.351 . S
C381 C386 1.501 . S
C382 C383 1.387 . S
C382 N385 1.341 . S
C383 C381 1.400 . S
C383 C382 1.387 . S
N384 Co375 2.022 . S
N384 C381 1.351 . S
N384 N385 1.365 . S
N385 C382 1.341 . S
N385 N384 1.365 . S
N385 H405 0.862 . S
C386 C381 1.501 . S
C386 H387 0.961 . S
C386 H388 0.961 . S
C386 H389 0.960 . S
H387 C386 0.961 . S
H388 C386 0.961 . S
H389 C386 0.960 . S
C390 N391 1.342 . S
C390 C394 1.401 . S
C390 C395 1.499 . S
N391 Co374 1.989 . S
N391 C390 1.342 . S
N391 N392 1.388 . S
N392 Co375 1.993 . S
N392 N391 1.388 . S
N392 C393 1.346 . S
C393 N392 1.346 . S
C393 C394 1.396 . S
C393 C403 1.510 . S
C394 C390 1.401 . S
C394 C393 1.396 . S
C395 C390 1.499 . S
C395 H396 0.959 . S
C395 H397 0.960 . S
C395 H398 0.961 . S
H396 C395 0.959 . S
H397 C395 0.960 . S
H398 C395 0.961 . S
O399 Co374 1.967 . S
O399 C407 1.258 . S
O400 Co375 1.941 . S
O400 C407 1.266 . S
H401 C403 0.959 . S
H402 C403 0.961 . S
C403 C393 1.510 . S
C403 H401 0.959 . S
C403 H402 0.961 . S
C403 H404 0.960 . S
H404 C403 0.960 . S
H405 N385 0.862 . S
O406 Co374 1.920 . S
O406 C379 1.289 . S
C407 O399 1.258 . S
C407 O400 1.266 . S
H408 C414 0.930 . S
H409 C417 0.930 . S
H410 C418 0.966 . S
H411 C419 0.930 . S
H412 C422 0.930 . S
H413 C423 0.966 . S
C414 H408 0.930 . S
C414 C415 1.355 . S
C414 C416 1.415 1_545 S
C415 C414 1.355 . S
C415 C417 1.419 . S
C416 C414 1.415 1_565 S
C416 C421 1.425 1_564 S
C416 C423 1.409 1_554 S
C417 H409 0.930 . S
C417 C415 1.419 . S
C417 C418 1.362 . S
C418 H410 0.966 . S
C418 C417 1.362 . S
C418 C421 1.409 1_554 S
C419 H411 0.930 . S
C419 C420 1.355 . S
C419 C421 1.415 1_565 S
C420 C419 1.355 . S
C420 C422 1.419 . S
C421 C416 1.425 1_546 S
C421 C418 1.409 1_556 S
C421 C419 1.415 1_545 S
C422 H412 0.930 . S
C422 C420 1.419 . S
C422 C423 1.362 . S
C423 H413 0.966 . S
C423 C416 1.409 1_556 S
C423 C422 1.362 . S
H424 C430 0.930 . S
H425 C433 0.930 . S
H426 C434 0.930 . S
H427 C435 0.930 . S
H428 C438 0.930 . S
H429 C439 0.930 . S
C430 H424 0.930 . S
C430 C431 1.355 . S
C430 C432 1.415 . S
C431 C430 1.355 . S
C431 C433 1.419 . S
C432 C430 1.415 . S
C432 C437 1.425 . S
C432 C439 1.409 . S
C433 H425 0.930 . S
C433 C431 1.419 . S
C433 C434 1.362 . S
C434 H426 0.930 . S
C434 C433 1.362 . S
C434 C437 1.409 . S
C435 H427 0.930 . S
C435 C436 1.355 . S
C435 C437 1.415 . S
C436 C435 1.355 . S
C436 C438 1.419 . S
C437 C432 1.425 . S
C437 C434 1.409 . S
C437 C435 1.415 . S
C438 H428 0.930 . S
C438 C436 1.419 . S
C438 C439 1.362 . S
C439 H429 0.930 . S
C439 C432 1.409 . S
C439 C438 1.362 . S
H440 C446 0.930 . S
H441 C449 0.930 . S
H442 C450 0.930 . S
H443 C451 0.930 . S
H444 C454 0.930 . S
H445 C455 0.930 . S
C446 H440 0.930 . S
C446 C447 1.355 . S
C446 C448 1.415 . S
C447 C446 1.355 . S
C447 C449 1.419 1_655 S
C448 C446 1.415 . S
C448 C453 1.425 1_655 S
C448 C455 1.409 . S
C449 H441 0.930 . S
C449 C447 1.419 1_455 S
C449 C450 1.362 . S
C450 H442 0.930 . S
C450 C449 1.362 . S
C450 C453 1.409 . S
C451 H443 0.930 . S
C451 C452 1.355 . S
C451 C453 1.415 . S
C452 C451 1.355 . S
C452 C454 1.419 1_455 S
C453 C448 1.425 1_455 S
C453 C450 1.409 . S
C453 C451 1.415 . S
C454 H444 0.930 . S
C454 C452 1.419 1_655 S
C454 C455 1.362 . S
C455 H445 0.930 . S
C455 C448 1.409 . S
C455 C454 1.362 . S
H456 C462 0.930 . S
H457 C465 0.930 . S
H458 C466 0.930 1_554 S
H459 C467 0.930 . S
H460 C470 0.930 . S
H461 C471 0.930 1_556 S
C462 H456 0.930 . S
C462 C463 1.355 1_565 S
C462 C464 1.415 . S
C463 C462 1.355 1_545 S
C463 C465 1.419 . S
C464 C462 1.415 . S
C464 C469 1.425 1_566 S
C464 C471 1.409 1_556 S
C465 H457 0.930 . S
C465 C463 1.419 . S
C465 C466 1.362 . S
C466 H458 0.930 1_556 S
C466 C465 1.362 . S
C466 C469 1.409 1_556 S
C467 H459 0.930 . S
C467 C468 1.355 1_545 S
C467 C469 1.415 . S
C468 C467 1.355 1_565 S
C468 C470 1.419 . S
C469 C464 1.425 1_544 S
C469 C466 1.409 1_554 S
C469 C467 1.415 . S
C470 H460 0.930 . S
C470 C468 1.419 . S
C470 C471 1.362 . S
C471 H461 0.930 1_554 S
C471 C464 1.409 1_554 S
C471 C470 1.362 . S
H472 C478 0.930 . S
H473 C481 0.930 . S
H474 C482 0.930 . S
H475 C483 0.930 . S
H476 C486 0.930 . S
H477 C487 0.930 . S
C478 H472 0.930 . S
C478 C479 1.355 . S
C478 C480 1.415 . S
C479 C478 1.355 . S
C479 C481 1.419 . S
C480 C478 1.415 . S
C480 C485 1.425 . S
C480 C487 1.409 . S
C481 H473 0.930 . S
C481 C479 1.419 . S
C481 C482 1.362 . S
C482 H474 0.930 . S
C482 C481 1.362 . S
C482 C485 1.409 . S
C483 H475 0.930 . S
C483 C484 1.355 . S
C483 C485 1.415 . S
C484 C483 1.355 . S
C484 C486 1.419 . S
C485 C480 1.425 . S
C485 C482 1.409 . S
C485 C483 1.415 . S
C486 H476 0.930 . S
C486 C484 1.419 . S
C486 C487 1.362 . S
C487 H477 0.930 . S
C487 C480 1.409 . S
C487 C486 1.362 . S
H488 C494 0.930 . S
H489 C497 0.930 1_655 S
H490 C498 0.930 . S
H491 C499 0.930 . S
H492 C502 0.930 1_455 S
H493 C503 0.930 . S
C494 H488 0.930 . S
C494 C495 1.355 . S
C494 C496 1.415 . S
C495 C494 1.355 . S
C495 C497 1.419 . S
C496 C494 1.415 . S
C496 C501 1.425 1_455 S
C496 C503 1.409 . S
C497 H489 0.930 1_455 S
C497 C495 1.419 . S
C497 C498 1.362 1_455 S
C498 H490 0.930 . S
C498 C497 1.362 1_655 S
C498 C501 1.409 . S
C499 H491 0.930 . S
C499 C500 1.355 . S
C499 C501 1.415 . S
C500 C499 1.355 . S
C500 C502 1.419 . S
C501 C496 1.425 1_655 S
C501 C498 1.409 . S
C501 C499 1.415 . S
C502 H492 0.930 1_655 S
C502 C500 1.419 . S
C502 C503 1.362 1_655 S
C503 H493 0.930 . S
C503 C496 1.409 . S
C503 C502 1.362 1_455 S
H504 C510 0.930 1_545 S
H505 C513 0.930 . S
H506 C514 0.930 . S
H507 C515 0.930 1_565 S
H508 C518 0.930 . S
H509 C519 0.930 . S
C510 H504 0.930 1_565 S
C510 C511 1.355 . S
C510 C512 1.415 1_565 S
C511 C510 1.355 . S
C511 C513 1.419 . S
C512 C510 1.415 1_545 S
C512 C517 1.425 1_545 S
C512 C519 1.409 . S
C513 H505 0.930 . S
C513 C511 1.419 . S
C513 C514 1.362 . S
C514 H506 0.930 . S
C514 C513 1.362 . S
C514 C517 1.409 . S
C515 H507 0.930 1_545 S
C515 C516 1.355 . S
C515 C517 1.415 1_545 S
C516 C515 1.355 . S
C516 C518 1.419 . S
C517 C512 1.425 1_565 S
C517 C514 1.409 . S
C517 C515 1.415 1_565 S
C518 H508 0.930 . S
C518 C516 1.419 . S
C518 C519 1.362 . S
C519 H509 0.930 . S
C519 C512 1.409 . S
C519 C518 1.362 . S
H520 C526 0.930 . S
H521 C529 0.930 . S
H522 C530 0.930 . S
H523 C531 0.930 . S
H524 C534 0.930 . S
H525 C535 0.930 . S
C526 H520 0.930 . S
C526 C527 1.355 . S
C526 C528 1.415 . S
C527 C526 1.355 . S
C527 C529 1.419 . S
C528 C526 1.415 . S
C528 C533 1.425 . S
C528 C535 1.409 . S
C529 H521 0.930 . S
C529 C527 1.419 . S
C529 C530 1.362 . S
C530 H522 0.930 . S
C530 C529 1.362 . S
C530 C533 1.409 . S
C531 H523 0.930 . S
C531 C532 1.355 . S
C531 C533 1.415 . S
C532 C531 1.355 . S
C532 C534 1.419 . S
C533 C528 1.425 . S
C533 C530 1.409 . S
C533 C531 1.415 . S
C534 H524 0.930 . S
C534 C532 1.419 . S
C534 C535 1.362 . S
C535 H525 0.930 . S
C535 C528 1.409 . S
C535 C534 1.362 . S
H536 C542 0.930 . S
H537 C545 0.930 1_655 S
H538 C546 0.930 . S
H539 C547 0.930 . S
H540 C550 0.930 1_455 S
H541 C551 0.930 . S
C542 H536 0.930 . S
C542 C543 1.355 . S
C542 C544 1.415 . S
C543 C542 1.355 . S
C543 C545 1.419 . S
C544 C542 1.415 . S
C544 C549 1.425 1_455 S
C544 C551 1.409 . S
C545 H537 0.930 1_455 S
C545 C543 1.419 . S
C545 C546 1.362 1_455 S
C546 H538 0.930 . S
C546 C545 1.362 1_655 S
C546 C549 1.409 . S
C547 H539 0.930 . S
C547 C548 1.355 . S
C547 C549 1.415 . S
C548 C547 1.355 . S
C548 C550 1.419 . S
C549 C544 1.425 1_655 S
C549 C546 1.409 . S
C549 C547 1.415 . S
C550 H540 0.930 1_655 S
C550 C548 1.419 . S
C550 C551 1.362 1_655 S
C551 H541 0.930 . S
C551 C544 1.409 . S
C551 C550 1.362 1_455 S
H552 C558 0.930 . S
H553 C561 0.930 . S
H554 C562 0.930 . S
H555 C563 0.930 . S
H556 C566 0.930 . S
H557 C567 0.930 . S
C558 H552 0.930 . S
C558 C559 1.355 . S
C558 C560 1.415 . S
C559 C558 1.355 . S
C559 C561 1.419 1_455 S
C560 C558 1.415 . S
C560 C565 1.425 1_455 S
C560 C567 1.409 . S
C561 H553 0.930 . S
C561 C559 1.419 1_655 S
C561 C562 1.362 . S
C562 H554 0.930 . S
C562 C561 1.362 . S
C562 C565 1.409 . S
C563 H555 0.930 . S
C563 C564 1.355 . S
C563 C565 1.415 . S
C564 C563 1.355 . S
C564 C566 1.419 1_655 S
C565 C560 1.425 1_655 S
C565 C562 1.409 . S
C565 C563 1.415 . S
C566 H556 0.930 . S
C566 C564 1.419 1_455 S
C566 C567 1.362 . S
C567 H557 0.930 . S
C567 C560 1.409 . S
C567 C566 1.362 . S
H568 C574 0.930 . S
H569 C577 0.930 . S
H570 C578 0.930 . S
H571 C579 0.930 . S
H572 C582 0.930 . S
H573 C583 0.930 . S
C574 H568 0.930 . S
C574 C575 1.355 . S
C574 C576 1.415 . S
C575 C574 1.355 . S
C575 C577 1.419 . S
C576 C574 1.415 . S
C576 C581 1.425 1_545 S
C576 C583 1.409 . S
C577 H569 0.930 . S
C577 C575 1.419 . S
C577 C578 1.362 1_545 S
C578 H570 0.930 . S
C578 C577 1.362 1_565 S
C578 C581 1.409 . S
C579 H571 0.930 . S
C579 C580 1.355 . S
C579 C581 1.415 . S
C580 C579 1.355 . S
C580 C582 1.419 . S
C581 C576 1.425 1_565 S
C581 C578 1.409 . S
C581 C579 1.415 . S
C582 H572 0.930 . S
C582 C580 1.419 . S
C582 C583 1.362 1_565 S
C583 H573 0.930 . S
C583 C576 1.409 . S
C583 C582 1.362 1_545 S
H584 C590 0.930 . S
H585 C593 0.930 . S
H586 C594 0.930 . S
H587 C595 0.930 . S
H588 C598 0.930 . S
H589 C599 0.930 . S
C590 H584 0.930 . S
C590 C591 1.355 . S
C590 C592 1.415 . S
C591 C590 1.355 . S
C591 C593 1.419 . S
C592 C590 1.415 . S
C592 C597 1.425 . S
C592 C599 1.409 . S
C593 H585 0.930 . S
C593 C591 1.419 . S
C593 C594 1.362 . S
C594 H586 0.930 . S
C594 C593 1.362 . S
C594 C597 1.409 . S
C595 H587 0.930 . S
C595 C596 1.355 . S
C595 C597 1.415 . S
C596 C595 1.355 . S
C596 C598 1.419 . S
C597 C592 1.425 . S
C597 C594 1.409 . S
C597 C595 1.415 . S
C598 H588 0.930 . S
C598 C596 1.419 . S
C598 C599 1.362 . S
C599 H589 0.930 . S
C599 C592 1.409 . S
C599 C598 1.362 . S
H600 C606 0.930 . S
H601 C609 0.930 . S
H602 C610 0.930 . S
H603 C611 0.930 . S
H604 C614 0.930 . S
H605 C615 0.930 . S
C606 H600 0.930 . S
C606 C607 1.355 . S
C606 C608 1.415 . S
C607 C606 1.355 . S
C607 C609 1.419 . S
C608 C606 1.415 . S
C608 C613 1.425 . S
C608 C615 1.409 . S
C609 H601 0.930 . S
C609 C607 1.419 . S
C609 C610 1.362 . S
C610 H602 0.930 . S
C610 C609 1.362 . S
C610 C613 1.409 . S
C611 H603 0.930 . S
C611 C612 1.355 . S
C611 C613 1.415 . S
C612 C611 1.355 . S
C612 C614 1.419 . S
C613 C608 1.425 . S
C613 C610 1.409 . S
C613 C611 1.415 . S
C614 H604 0.930 . S
C614 C612 1.419 . S
C614 C615 1.362 . S
C615 H605 0.930 . S
C615 C608 1.409 . S
C615 C614 1.362 . S
H616 C622 0.930 . S
H617 C625 0.930 . S
H618 C626 0.930 . S
H619 C627 0.930 . S
H620 C630 0.930 . S
H621 C631 0.930 . S
C622 H616 0.930 . S
C622 C623 1.355 . S
C622 C624 1.415 . S
C623 C622 1.355 . S
C623 C625 1.419 . S
C624 C622 1.415 . S
C624 C629 1.425 . S
C624 C631 1.409 . S
C625 H617 0.930 . S
C625 C623 1.419 . S
C625 C626 1.362 . S
C626 H618 0.930 . S
C626 C625 1.362 . S
C626 C629 1.409 . S
C627 H619 0.930 . S
C627 C628 1.355 . S
C627 C629 1.415 . S
C628 C627 1.355 . S
C628 C630 1.419 . S
C629 C624 1.425 . S
C629 C626 1.409 . S
C629 C627 1.415 . S
C630 H620 0.930 . S
C630 C628 1.419 . S
C630 C631 1.362 . S
C631 H621 0.930 . S
C631 C624 1.409 . S
C631 C630 1.362 . S
H632 C638 0.930 . S
H633 C641 0.930 . S
H634 C642 0.930 . S
H635 C643 0.930 . S
H636 C646 0.930 . S
H637 C647 0.930 . S
C638 H632 0.930 . S
C638 C639 1.355 . S
C638 C640 1.415 . S
C639 C638 1.355 . S
C639 C641 1.419 . S
C640 C638 1.415 . S
C640 C645 1.425 . S
C640 C647 1.409 . S
C641 H633 0.930 . S
C641 C639 1.419 . S
C641 C642 1.362 . S
C642 H634 0.930 . S
C642 C641 1.362 . S
C642 C645 1.409 . S
C643 H635 0.930 . S
C643 C644 1.355 . S
C643 C645 1.415 . S
C644 C643 1.355 . S
C644 C646 1.419 . S
C645 C640 1.425 . S
C645 C642 1.409 . S
C645 C643 1.415 . S
C646 H636 0.930 . S
C646 C644 1.419 . S
C646 C647 1.362 . S
C647 H637 0.930 . S
C647 C640 1.409 . S
C647 C646 1.362 . S
H648 C654 0.930 . S
H649 C657 0.930 . S
H650 C658 0.930 . S
H651 C659 0.930 . S
H652 C662 0.930 . S
H653 C663 0.930 . S
C654 H648 0.930 . S
C654 C655 1.355 . S
C654 C656 1.415 . S
C655 C654 1.355 . S
C655 C657 1.419 . S
C656 C654 1.415 . S
C656 C661 1.425 . S
C656 C663 1.409 . S
C657 H649 0.930 . S
C657 C655 1.419 . S
C657 C658 1.362 . S
C658 H650 0.930 . S
C658 C657 1.362 . S
C658 C661 1.409 . S
C659 H651 0.930 . S
C659 C660 1.355 . S
C659 C661 1.415 . S
C660 C659 1.355 . S
C660 C662 1.419 . S
C661 C656 1.425 . S
C661 C658 1.409 . S
C661 C659 1.415 . S
C662 H652 0.930 . S
C662 C660 1.419 . S
C662 C663 1.362 . S
C663 H653 0.930 . S
C663 C656 1.409 . S
C663 C662 1.362 . S
H664 C670 0.930 . S
H665 C673 0.930 . S
H666 C674 0.930 . S
H667 C675 0.930 . S
H668 C678 0.930 . S
H669 C679 0.930 . S
C670 H664 0.930 . S
C670 C671 1.355 . S
C670 C672 1.415 . S
C671 C670 1.355 . S
C671 C673 1.419 . S
C672 C670 1.415 . S
C672 C677 1.425 . S
C672 C679 1.409 . S
C673 H665 0.930 . S
C673 C671 1.419 . S
C673 C674 1.362 . S
C674 H666 0.930 . S
C674 C673 1.362 . S
C674 C677 1.409 . S
C675 H667 0.930 . S
C675 C676 1.355 . S
C675 C677 1.415 . S
C676 C675 1.355 . S
C676 C678 1.419 . S
C677 C672 1.425 . S
C677 C674 1.409 . S
C677 C675 1.415 . S
C678 H668 0.930 . S
C678 C676 1.419 . S
C678 C679 1.362 . S
C679 H669 0.930 . S
C679 C672 1.409 . S
C679 C678 1.362 . S
H680 C686 0.930 . S
H681 C689 0.930 . S
H682 C690 0.930 . S
H683 C691 0.930 . S
H684 C694 0.930 . S
H685 C695 0.930 . S
C686 H680 0.930 . S
C686 C687 1.355 . S
C686 C688 1.415 . S
C687 C686 1.355 . S
C687 C689 1.419 . S
C688 C686 1.415 . S
C688 C693 1.425 . S
C688 C695 1.409 . S
C689 H681 0.930 . S
C689 C687 1.419 . S
C689 C690 1.362 . S
C690 H682 0.930 . S
C690 C689 1.362 . S
C690 C693 1.409 . S
C691 H683 0.930 . S
C691 C692 1.355 . S
C691 C693 1.415 . S
C692 C691 1.355 . S
C692 C694 1.419 . S
C693 C688 1.425 . S
C693 C690 1.409 . S
C693 C691 1.415 . S
C694 H684 0.930 . S
C694 C692 1.419 . S
C694 C695 1.362 . S
C695 H685 0.930 . S
C695 C688 1.409 . S
C695 C694 1.362 . S
H696 C702 0.930 . S
H697 C705 0.930 . S
H698 C706 0.930 . S
H699 C707 0.930 . S
H700 C710 0.930 . S
H701 C711 0.930 . S
C702 H696 0.930 . S
C702 C703 1.355 . S
C702 C704 1.415 . S
C703 C702 1.355 . S
C703 C705 1.419 . S
C704 C702 1.415 . S
C704 C709 1.425 . S
C704 C711 1.409 . S
C705 H697 0.930 . S
C705 C703 1.419 . S
C705 C706 1.362 . S
C706 H698 0.930 . S
C706 C705 1.362 . S
C706 C709 1.409 . S
C707 H699 0.930 . S
C707 C708 1.355 . S
C707 C709 1.415 . S
C708 C707 1.355 . S
C708 C710 1.419 . S
C709 C704 1.425 . S
C709 C706 1.409 . S
C709 C707 1.415 . S
C710 H700 0.930 . S
C710 C708 1.419 . S
C710 C711 1.362 . S
C711 H701 0.930 . S
C711 C704 1.409 . S
C711 C710 1.362 . S
H712 C718 0.930 . S
H713 C721 0.930 . S
H714 C722 0.930 . S
H715 C723 0.930 . S
H716 C726 0.930 . S
H717 C727 0.930 . S
C718 H712 0.930 . S
C718 C719 1.355 1_655 S
C718 C720 1.415 . S
C719 C718 1.355 1_455 S
C719 C721 1.419 . S
C720 C718 1.415 . S
C720 C725 1.425 1_655 S
C720 C727 1.409 . S
C721 H713 0.930 . S
C721 C719 1.419 . S
C721 C722 1.362 . S
C722 H714 0.930 . S
C722 C721 1.362 . S
C722 C725 1.409 . S
C723 H715 0.930 . S
C723 C724 1.355 1_455 S
C723 C725 1.415 . S
C724 C723 1.355 1_655 S
C724 C726 1.419 . S
C725 C720 1.425 1_455 S
C725 C722 1.409 . S
C725 C723 1.415 . S
C726 H716 0.930 . S
C726 C724 1.419 . S
C726 C727 1.362 . S
C727 H717 0.930 . S
C727 C720 1.409 . S
C727 C726 1.362 . S
H728 C734 0.930 . S
H729 C737 0.930 . S
H730 C738 0.930 . S
H731 C739 0.930 . S
H732 C742 0.930 . S
H733 C743 0.930 . S
C734 H728 0.930 . S
C734 C735 1.355 1_545 S
C734 C736 1.415 . S
C735 C734 1.355 1_565 S
C735 C737 1.419 . S
C736 C734 1.415 . S
C736 C741 1.425 1_545 S
C736 C743 1.409 . S
C737 H729 0.930 . S
C737 C735 1.419 . S
C737 C738 1.362 . S
C738 H730 0.930 . S
C738 C737 1.362 . S
C738 C741 1.409 . S
C739 H731 0.930 . S
C739 C740 1.355 1_565 S
C739 C741 1.415 . S
C740 C739 1.355 1_545 S
C740 C742 1.419 . S
C741 C736 1.425 1_565 S
C741 C738 1.409 . S
C741 C739 1.415 . S
C742 H732 0.930 . S
C742 C740 1.419 . S
C742 C743 1.362 . S
C743 H733 0.930 . S
C743 C736 1.409 . S
C743 C742 1.362 . S
H744 C750 0.930 . S
H745 C753 0.930 . S
H746 C754 0.930 . S
H747 C755 0.930 . S
H748 C758 0.930 . S
H749 C759 0.930 . S
C750 H744 0.930 . S
C750 C751 1.355 . S
C750 C752 1.415 . S
C751 C750 1.355 . S
C751 C753 1.419 . S
C752 C750 1.415 . S
C752 C757 1.425 . S
C752 C759 1.409 . S
C753 H745 0.930 . S
C753 C751 1.419 . S
C753 C754 1.362 . S
C754 H746 0.930 . S
C754 C753 1.362 . S
C754 C757 1.409 . S
C755 H747 0.930 . S
C755 C756 1.355 . S
C755 C757 1.415 . S
C756 C755 1.355 . S
C756 C758 1.419 . S
C757 C752 1.425 . S
C757 C754 1.409 . S
C757 C755 1.415 . S
C758 H748 0.930 . S
C758 C756 1.419 . S
C758 C759 1.362 . S
C759 H749 0.930 . S
C759 C752 1.409 . S
C759 C758 1.362 . S
H760 C766 0.930 . S
H761 C769 0.930 . S
H762 C770 0.930 . S
H763 C771 0.930 . S
H764 C774 0.930 . S
H765 C775 0.930 . S
C766 H760 0.930 . S
C766 C767 1.355 . S
C766 C768 1.415 . S
C767 C766 1.355 . S
C767 C769 1.419 1_455 S
C768 C766 1.415 . S
C768 C773 1.425 1_455 S
C768 C775 1.409 . S
C769 H761 0.930 . S
C769 C767 1.419 1_655 S
C769 C770 1.362 . S
C770 H762 0.930 . S
C770 C769 1.362 . S
C770 C773 1.409 . S
C771 H763 0.930 . S
C771 C772 1.355 . S
C771 C773 1.415 . S
C772 C771 1.355 . S
C772 C774 1.419 1_655 S
C773 C768 1.425 1_655 S
C773 C770 1.409 . S
C773 C771 1.415 . S
C774 H764 0.930 . S
C774 C772 1.419 1_455 S
C774 C775 1.362 . S
C775 H765 0.930 . S
C775 C768 1.409 . S
C775 C774 1.362 . S
H776 C782 0.930 . S
H777 C785 0.930 . S
H778 C786 0.930 . S
H779 C787 0.930 . S
H780 C790 0.930 . S
H781 C791 0.930 . S
C782 H776 0.930 . S
C782 C783 1.355 . S
C782 C784 1.415 . S
C783 C782 1.355 . S
C783 C785 1.419 . S
C784 C782 1.415 . S
C784 C789 1.425 1_565 S
C784 C791 1.409 . S
C785 H777 0.930 . S
C785 C783 1.419 . S
C785 C786 1.362 1_565 S
C786 H778 0.930 . S
C786 C785 1.362 1_545 S
C786 C789 1.409 . S
C787 H779 0.930 . S
C787 C788 1.355 . S
C787 C789 1.415 . S
C788 C787 1.355 . S
C788 C790 1.419 . S
C789 C784 1.425 1_545 S
C789 C786 1.409 . S
C789 C787 1.415 . S
C790 H780 0.930 . S
C790 C788 1.419 . S
C790 C791 1.362 1_545 S
C791 H781 0.930 . S
C791 C784 1.409 . S
C791 C790 1.362 1_565 S
H792 C798 0.930 . S
H793 C801 0.922 1_565 S
H794 C802 0.930 . S
H795 C803 0.930 . S
H796 C806 0.922 1_545 S
H797 C807 0.930 . S
C798 H792 0.930 . S
C798 C799 1.355 . S
C798 C800 1.415 . S
C799 C798 1.355 . S
C799 C801 1.419 . S
C800 C798 1.415 . S
C800 C805 1.425 1_445 S
C800 C807 1.409 1_455 S
C801 H793 0.922 1_545 S
C801 C799 1.419 . S
C801 C802 1.362 1_545 S
C802 H794 0.930 . S
C802 C801 1.362 1_565 S
C802 C805 1.409 1_455 S
C803 H795 0.930 . S
C803 C804 1.355 . S
C803 C805 1.415 . S
C804 C803 1.355 . S
C804 C806 1.419 . S
C805 C800 1.425 1_665 S
C805 C802 1.409 1_655 S
C805 C803 1.415 . S
C806 H796 0.922 1_565 S
C806 C804 1.419 . S
C806 C807 1.362 1_565 S
C807 H797 0.930 . S
C807 C800 1.409 1_655 S
C807 C806 1.362 1_545 S
H808 C814 0.930 . S
H809 C817 0.930 . S
H810 C818 0.930 . S
H811 C819 0.930 . S
H812 C822 0.930 . S
H813 C823 0.930 . S
C814 H808 0.930 . S
C814 C815 1.355 . S
C814 C816 1.415 . S
C815 C814 1.355 . S
C815 C817 1.419 1_455 S
C816 C814 1.415 . S
C816 C821 1.425 1_445 S
C816 C823 1.409 1_545 S
C817 H809 0.930 . S
C817 C815 1.419 1_655 S
C817 C818 1.362 . S
C818 H810 0.930 . S
C818 C817 1.362 . S
C818 C821 1.409 1_545 S
C819 H811 0.930 . S
C819 C820 1.355 . S
C819 C821 1.415 . S
C820 C819 1.355 . S
C820 C822 1.419 1_655 S
C821 C816 1.425 1_665 S
C821 C818 1.409 1_565 S
C821 C819 1.415 . S
C822 H812 0.930 . S
C822 C820 1.419 1_455 S
C822 C823 1.362 . S
C823 H813 0.930 . S
C823 C816 1.409 1_565 S
C823 C822 1.362 . S
H824 C830 0.930 1_455 S
H825 C833 0.930 . S
H826 C834 0.930 . S
H827 C835 0.930 1_655 S
H828 C838 0.930 . S
H829 C839 0.930 . S
C830 H824 0.930 1_655 S
C830 C831 1.355 . S
C830 C832 1.415 1_655 S
C831 C830 1.355 . S
C831 C833 1.419 1_545 S
C832 C830 1.415 1_455 S
C832 C837 1.425 1_445 S
C832 C839 1.409 . S
C833 H825 0.930 . S
C833 C831 1.419 1_565 S
C833 C834 1.362 . S
C834 H826 0.930 . S
C834 C833 1.362 . S
C834 C837 1.409 . S
C835 H827 0.930 1_455 S
C835 C836 1.355 . S
C835 C837 1.415 1_455 S
C836 C835 1.355 . S
C836 C838 1.419 1_565 S
C837 C832 1.425 1_665 S
C837 C834 1.409 . S
C837 C835 1.415 1_655 S
C838 H828 0.930 . S
C838 C836 1.419 1_545 S
C838 C839 1.362 . S
C839 H829 0.930 . S
C839 C832 1.409 . S
C839 C838 1.362 . S
H840 C846 0.930 . S
H841 C849 0.927 1_455 S
H842 C850 0.930 . S
H843 C851 0.930 . S
H844 C854 0.926 1_655 S
H845 C855 0.930 . S
C846 H840 0.930 . S
C846 C847 1.355 . S
C846 C848 1.415 . S
C847 C846 1.355 . S
C847 C849 1.419 . S
C848 C846 1.415 . S
C848 C853 1.425 1_665 S
C848 C855 1.409 1_565 S
C849 H841 0.927 1_655 S
C849 C847 1.419 . S
C849 C850 1.362 1_655 S
C850 H842 0.930 . S
C850 C849 1.362 1_455 S
C850 C853 1.409 1_565 S
C851 H843 0.930 . S
C851 C852 1.355 . S
C851 C853 1.415 . S
C852 C851 1.355 . S
C852 C854 1.419 . S
C853 C848 1.425 1_445 S
C853 C850 1.409 1_545 S
C853 C851 1.415 . S
C854 H844 0.926 1_455 S
C854 C852 1.419 . S
C854 C855 1.362 1_455 S
C855 H845 0.930 . S
C855 C848 1.409 1_545 S
C855 C854 1.362 1_655 S
H856 C862 0.930 1_565 S
H857 C865 0.930 . S
H858 C866 0.930 . S
H859 C867 0.930 1_545 S
H860 C870 0.930 . S
H861 C871 0.930 . S
C862 H856 0.930 1_545 S
C862 C863 1.355 . S
C862 C864 1.415 1_545 S
C863 C862 1.355 . S
C863 C865 1.419 1_655 S
C864 C862 1.415 1_565 S
C864 C869 1.425 1_665 S
C864 C871 1.409 . S
C865 H857 0.930 . S
C865 C863 1.419 1_455 S
C865 C866 1.362 . S
C866 H858 0.930 . S
C866 C865 1.362 . S
C866 C869 1.409 . S
C867 H859 0.930 1_565 S
C867 C868 1.355 . S
C867 C869 1.415 1_565 S
C868 C867 1.355 . S
C868 C870 1.419 1_455 S
C869 C864 1.425 1_445 S
C869 C866 1.409 . S
C869 C867 1.415 1_545 S
C870 H860 0.930 . S
C870 C868 1.419 1_655 S
C870 C871 1.362 . S
C871 H861 0.930 . S
C871 C864 1.409 . S
C871 C870 1.362 . S
H872 C878 0.930 . S
H873 C881 0.930 . S
H874 C882 0.931 1_655 S
H875 C883 0.930 . S
H876 C886 0.930 . S
H877 C887 0.931 1_455 S
C878 H872 0.930 . S
C878 C879 1.355 . S
C878 C880 1.415 . S
C879 C878 1.355 . S
C879 C881 1.419 1_545 S
C880 C878 1.415 . S
C880 C885 1.425 1_445 S
C880 C887 1.409 1_455 S
C881 H873 0.930 . S
C881 C879 1.419 1_565 S
C881 C882 1.362 . S
C882 H874 0.931 1_455 S
C882 C881 1.362 . S
C882 C885 1.409 1_455 S
C883 H875 0.930 . S
C883 C884 1.355 . S
C883 C885 1.415 . S
C884 C883 1.355 . S
C884 C886 1.419 1_565 S
C885 C880 1.425 1_665 S
C885 C882 1.409 1_655 S
C885 C883 1.415 . S
C886 H876 0.930 . S
C886 C884 1.419 1_545 S
C886 C887 1.362 . S
C887 H877 0.931 1_655 S
C887 C880 1.409 1_655 S
C887 C886 1.362 . S
C415 C9 1.445 . S
C420 C247 1.424 . S
C431 C43 1.452 . S
C436 C281 1.476 . S
C447 C77 1.474 . S
C452 C315 1.450 . S
C463 C349 1.421 . S
C468 C111 1.439 . S
C479 C383 1.481 . S
C484 C145 1.483 . S
C495 C179 1.471 . S
C500 C213 1.445 . S
C511 C122 0.711 . S
C516 C20 0.710 . S
C527 C54 0.639 . S
C532 C156 0.639 . S
C543 C190 0.656 . S
C548 C88 0.654 . S
C559 C326 0.639 . S
C564 C224 0.639 . S
C575 C360 0.645 . S
C580 C258 0.647 . S
C591 C292 0.680 . S
C596 C394 0.683 . S
C607 C277 1.499 . S
C612 C5 1.477 . S
C623 C39 1.480 . S
C628 C311 1.490 . S
C639 C73 1.477 . S
C644 C345 1.499 . S
C655 C107 1.502 . S
C660 C379 1.491 . S
C671 C141 1.482 . S
C676 C209 1.505 . S
C687 C243 1.500 . S
C692 C175 1.494 . S
C703 C135 2.157 . S
C708 C33 2.157 . S
C719 C67 2.158 . S
C724 C169 2.159 . S
C735 C203 2.158 . S
C740 C101 2.157 . S
C751 C237 2.181 . S
C756 C339 2.181 . S
C767 C271 2.181 . S
C772 C373 2.181 . S
C783 C407 2.176 . S
C788 C305 2.178 . S
C799 C2 1.497 . S
C804 C104 1.498 . S
C815 C36 1.537 . S
C820 C138 1.533 . S
C831 C70 1.550 . S
C836 C172 1.549 . S
C847 C206 1.498 . S
C852 C308 1.500 . S
C863 C342 1.550 . S
C868 C240 1.549 . S
C879 C274 1.550 . S
C884 C376 1.549 . S
