# Generated by pormake.
# Topology yfs, (5)-cn, num edge types: 1
# Building blocks:
#     Node 0, Type 0, BuildingBlock: XOMCOT_clean_sbu_1, # of connection points: 5
#     Node 1, Type 0, BuildingBlock: XOMCOT_clean_sbu_1, # of connection points: 5
#     Node 2, Type 0, BuildingBlock: XOMCOT_clean_sbu_1, # of connection points: 5
#     Node 3, Type 0, BuildingBlock: XOMCOT_clean_sbu_1, # of connection points: 5
#     Node 4, Type 0, BuildingBlock: XOMCOT_clean_sbu_1, # of connection points: 5
#     Node 5, Type 0, BuildingBlock: XOMCOT_clean_sbu_1, # of connection points: 5
#     Node 6, Type 0, BuildingBlock: XOMCOT_clean_sbu_1, # of connection points: 5
#     Node 7, Type 0, BuildingBlock: XOMCOT_clean_sbu_1, # of connection points: 5
#     Node 8, Type 0, BuildingBlock: XOMCOT_clean_sbu_1, # of connection points: 5
#     Node 9, Type 0, BuildingBlock: XOMCOT_clean_sbu_1, # of connection points: 5
#     Node 10, Type 0, BuildingBlock: XOMCOT_clean_sbu_1, # of connection points: 5
#     Node 11, Type 0, BuildingBlock: XOMCOT_clean_sbu_1, # of connection points: 5
#     Node 12, Type 0, BuildingBlock: XOMCOT_clean_sbu_1, # of connection points: 5
#     Node 13, Type 0, BuildingBlock: XOMCOT_clean_sbu_1, # of connection points: 5
#     Node 14, Type 0, BuildingBlock: XOMCOT_clean_sbu_1, # of connection points: 5
#     Node 15, Type 0, BuildingBlock: XOMCOT_clean_sbu_1, # of connection points: 5
#     Node 16, Type 0, BuildingBlock: XOMCOT_clean_sbu_1, # of connection points: 5
#     Node 17, Type 0, BuildingBlock: XOMCOT_clean_sbu_1, # of connection points: 5
#     Node 18, Type 0, BuildingBlock: XOMCOT_clean_sbu_1, # of connection points: 5
#     Node 19, Type 0, BuildingBlock: XOMCOT_clean_sbu_1, # of connection points: 5
#     Node 20, Type 0, BuildingBlock: XOMCOT_clean_sbu_1, # of connection points: 5
#     Node 21, Type 0, BuildingBlock: XOMCOT_clean_sbu_1, # of connection points: 5
#     Node 22, Type 0, BuildingBlock: XOMCOT_clean_sbu_1, # of connection points: 5
#     Node 23, Type 0, BuildingBlock: XOMCOT_clean_sbu_1, # of connection points: 5
#     Node 24, Type 0, BuildingBlock: XOMCOT_clean_sbu_1, # of connection points: 5
#     Node 25, Type 0, BuildingBlock: XOMCOT_clean_sbu_1, # of connection points: 5
#     Node 26, Type 0, BuildingBlock: XOMCOT_clean_sbu_1, # of connection points: 5
#     Node 27, Type 0, BuildingBlock: XOMCOT_clean_sbu_1, # of connection points: 5
#     Node 28, Type 0, BuildingBlock: XOMCOT_clean_sbu_1, # of connection points: 5
#     Node 29, Type 0, BuildingBlock: XOMCOT_clean_sbu_1, # of connection points: 5
#     Node 30, Type 0, BuildingBlock: XOMCOT_clean_sbu_1, # of connection points: 5
#     Node 31, Type 0, BuildingBlock: XOMCOT_clean_sbu_1, # of connection points: 5
#     Edge 32, Type (0, 0), BuildingBlock: AJUNOK_clean_linker_0, # of connection points: 2
#     Edge 33, Type (0, 0), BuildingBlock: AJUNOK_clean_linker_0, # of connection points: 2
#     Edge 34, Type (0, 0), BuildingBlock: AJUNOK_clean_linker_0, # of connection points: 2
#     Edge 35, Type (0, 0), BuildingBlock: AJUNOK_clean_linker_0, # of connection points: 2
#     Edge 36, Type (0, 0), BuildingBlock: AJUNOK_clean_linker_0, # of connection points: 2
#     Edge 37, Type (0, 0), BuildingBlock: AJUNOK_clean_linker_0, # of connection points: 2
#     Edge 38, Type (0, 0), BuildingBlock: AJUNOK_clean_linker_0, # of connection points: 2
#     Edge 39, Type (0, 0), BuildingBlock: AJUNOK_clean_linker_0, # of connection points: 2
#     Edge 40, Type (0, 0), BuildingBlock: AJUNOK_clean_linker_0, # of connection points: 2
#     Edge 41, Type (0, 0), BuildingBlock: AJUNOK_clean_linker_0, # of connection points: 2
#     Edge 42, Type (0, 0), BuildingBlock: AJUNOK_clean_linker_0, # of connection points: 2
#     Edge 43, Type (0, 0), BuildingBlock: AJUNOK_clean_linker_0, # of connection points: 2
#     Edge 44, Type (0, 0), BuildingBlock: AJUNOK_clean_linker_0, # of connection points: 2
#     Edge 45, Type (0, 0), BuildingBlock: AJUNOK_clean_linker_0, # of connection points: 2
#     Edge 46, Type (0, 0), BuildingBlock: AJUNOK_clean_linker_0, # of connection points: 2
#     Edge 47, Type (0, 0), BuildingBlock: AJUNOK_clean_linker_0, # of connection points: 2
#     Edge 48, Type (0, 0), BuildingBlock: AJUNOK_clean_linker_0, # of connection points: 2
#     Edge 49, Type (0, 0), BuildingBlock: AJUNOK_clean_linker_0, # of connection points: 2
#     Edge 50, Type (0, 0), BuildingBlock: AJUNOK_clean_linker_0, # of connection points: 2
#     Edge 51, Type (0, 0), BuildingBlock: AJUNOK_clean_linker_0, # of connection points: 2
#     Edge 52, Type (0, 0), BuildingBlock: AJUNOK_clean_linker_0, # of connection points: 2
#     Edge 53, Type (0, 0), BuildingBlock: AJUNOK_clean_linker_0, # of connection points: 2
#     Edge 54, Type (0, 0), BuildingBlock: AJUNOK_clean_linker_0, # of connection points: 2
#     Edge 55, Type (0, 0), BuildingBlock: AJUNOK_clean_linker_0, # of connection points: 2
#     Edge 56, Type (0, 0), BuildingBlock: AJUNOK_clean_linker_0, # of connection points: 2
#     Edge 57, Type (0, 0), BuildingBlock: AJUNOK_clean_linker_0, # of connection points: 2
#     Edge 58, Type (0, 0), BuildingBlock: AJUNOK_clean_linker_0, # of connection points: 2
#     Edge 59, Type (0, 0), BuildingBlock: AJUNOK_clean_linker_0, # of connection points: 2
#     Edge 60, Type (0, 0), BuildingBlock: AJUNOK_clean_linker_0, # of connection points: 2
#     Edge 61, Type (0, 0), BuildingBlock: AJUNOK_clean_linker_0, # of connection points: 2
#     Edge 62, Type (0, 0), BuildingBlock: AJUNOK_clean_linker_0, # of connection points: 2
#     Edge 63, Type (0, 0), BuildingBlock: AJUNOK_clean_linker_0, # of connection points: 2
#     Edge 64, Type (0, 0), BuildingBlock: AJUNOK_clean_linker_0, # of connection points: 2
#     Edge 65, Type (0, 0), BuildingBlock: AJUNOK_clean_linker_0, # of connection points: 2
#     Edge 66, Type (0, 0), BuildingBlock: AJUNOK_clean_linker_0, # of connection points: 2
#     Edge 67, Type (0, 0), BuildingBlock: AJUNOK_clean_linker_0, # of connection points: 2
#     Edge 68, Type (0, 0), BuildingBlock: AJUNOK_clean_linker_0, # of connection points: 2
#     Edge 69, Type (0, 0), BuildingBlock: AJUNOK_clean_linker_0, # of connection points: 2
#     Edge 70, Type (0, 0), BuildingBlock: AJUNOK_clean_linker_0, # of connection points: 2
#     Edge 71, Type (0, 0), BuildingBlock: AJUNOK_clean_linker_0, # of connection points: 2
#     Edge 72, Type (0, 0), BuildingBlock: AJUNOK_clean_linker_0, # of connection points: 2
#     Edge 73, Type (0, 0), BuildingBlock: AJUNOK_clean_linker_0, # of connection points: 2
#     Edge 74, Type (0, 0), BuildingBlock: AJUNOK_clean_linker_0, # of connection points: 2
#     Edge 75, Type (0, 0), BuildingBlock: AJUNOK_clean_linker_0, # of connection points: 2
#     Edge 76, Type (0, 0), BuildingBlock: AJUNOK_clean_linker_0, # of connection points: 2
#     Edge 77, Type (0, 0), BuildingBlock: AJUNOK_clean_linker_0, # of connection points: 2
#     Edge 78, Type (0, 0), BuildingBlock: AJUNOK_clean_linker_0, # of connection points: 2
#     Edge 79, Type (0, 0), BuildingBlock: AJUNOK_clean_linker_0, # of connection points: 2
#     Edge 80, Type (0, 0), BuildingBlock: AJUNOK_clean_linker_0, # of connection points: 2
#     Edge 81, Type (0, 0), BuildingBlock: AJUNOK_clean_linker_0, # of connection points: 2
#     Edge 82, Type (0, 0), BuildingBlock: AJUNOK_clean_linker_0, # of connection points: 2
#     Edge 83, Type (0, 0), BuildingBlock: AJUNOK_clean_linker_0, # of connection points: 2
#     Edge 84, Type (0, 0), BuildingBlock: AJUNOK_clean_linker_0, # of connection points: 2
#     Edge 85, Type (0, 0), BuildingBlock: AJUNOK_clean_linker_0, # of connection points: 2
#     Edge 86, Type (0, 0), BuildingBlock: AJUNOK_clean_linker_0, # of connection points: 2
#     Edge 87, Type (0, 0), BuildingBlock: AJUNOK_clean_linker_0, # of connection points: 2
#     Edge 88, Type (0, 0), BuildingBlock: AJUNOK_clean_linker_0, # of connection points: 2
#     Edge 89, Type (0, 0), BuildingBlock: AJUNOK_clean_linker_0, # of connection points: 2
#     Edge 90, Type (0, 0), BuildingBlock: AJUNOK_clean_linker_0, # of connection points: 2
#     Edge 91, Type (0, 0), BuildingBlock: AJUNOK_clean_linker_0, # of connection points: 2
#     Edge 92, Type (0, 0), BuildingBlock: AJUNOK_clean_linker_0, # of connection points: 2
#     Edge 93, Type (0, 0), BuildingBlock: AJUNOK_clean_linker_0, # of connection points: 2
#     Edge 94, Type (0, 0), BuildingBlock: AJUNOK_clean_linker_0, # of connection points: 2
#     Edge 95, Type (0, 0), BuildingBlock: AJUNOK_clean_linker_0, # of connection points: 2
#     Edge 96, Type (0, 0), BuildingBlock: AJUNOK_clean_linker_0, # of connection points: 2
#     Edge 97, Type (0, 0), BuildingBlock: AJUNOK_clean_linker_0, # of connection points: 2
#     Edge 98, Type (0, 0), BuildingBlock: AJUNOK_clean_linker_0, # of connection points: 2
#     Edge 99, Type (0, 0), BuildingBlock: AJUNOK_clean_linker_0, # of connection points: 2
#     Edge 100, Type (0, 0), BuildingBlock: AJUNOK_clean_linker_0, # of connection points: 2
#     Edge 101, Type (0, 0), BuildingBlock: AJUNOK_clean_linker_0, # of connection points: 2
#     Edge 102, Type (0, 0), BuildingBlock: AJUNOK_clean_linker_0, # of connection points: 2
#     Edge 103, Type (0, 0), BuildingBlock: AJUNOK_clean_linker_0, # of connection points: 2
#     Edge 104, Type (0, 0), BuildingBlock: AJUNOK_clean_linker_0, # of connection points: 2
#     Edge 105, Type (0, 0), BuildingBlock: AJUNOK_clean_linker_0, # of connection points: 2
#     Edge 106, Type (0, 0), BuildingBlock: AJUNOK_clean_linker_0, # of connection points: 2
#     Edge 107, Type (0, 0), BuildingBlock: AJUNOK_clean_linker_0, # of connection points: 2
#     Edge 108, Type (0, 0), BuildingBlock: AJUNOK_clean_linker_0, # of connection points: 2
#     Edge 109, Type (0, 0), BuildingBlock: AJUNOK_clean_linker_0, # of connection points: 2
#     Edge 110, Type (0, 0), BuildingBlock: AJUNOK_clean_linker_0, # of connection points: 2
#     Edge 111, Type (0, 0), BuildingBlock: AJUNOK_clean_linker_0, # of connection points: 2
# Relax obj value: 0.556
# Max RMSD: 0.262
# Mean RMSD: 0.262
data_MOF--net-yfs--node1-XOMCOT_clean_sbu_1--edge1-AJUNOK_clean_linker_0
_symmetry_space_group_name_H-M    P1
_symmetry_Int_Tables_number       1
_symmetry_cell_setting            triclinic
loop_
_symmetry_equiv_pos_as_xyz
'x, y, z'
_cell_length_a     32.936044
_cell_length_b     32.924777
_cell_length_c     65.479093
_cell_angle_alpha  89.80471
_cell_angle_beta   90.187551
_cell_angle_gamma 89.901808
loop_
_atom_site_label
_atom_site_type_symbol
_atom_site_fract_x
_atom_site_fract_y
_atom_site_fract_z
_atom_type_partial_charge
C0 C 0.36548 0.051 0.18591 0.0
C1 C 0.39362 0.03971 0.17148 0.0
N2 N 0.41527 0.07271 0.16646 0.0
N3 N 0.36962 0.09091 0.19037 0.0
C4 C 0.39943 0.10341 0.17747 0.0
H5 H 0.34216 0.03149 0.19211 0.0
Co6 Co 0.33144 0.11983 0.20675 0.0
C7 C 0.33632 0.20417 0.18708 0.0
O8 O 0.34097 0.22292 0.20454 0.0
N9 N 0.29092 0.14743 0.22181 0.0
C10 C 0.23039 0.15972 0.23565 0.0
C11 C 0.25213 0.13459 0.22286 0.0
C12 C 0.2917 0.18081 0.2339 0.0
N13 N 0.25562 0.18865 0.24269 0.0
O14 O 0.32713 0.07296 0.22598 0.0
H15 H 0.24053 0.10818 0.21499 0.0
H16 H 0.31856 0.19838 0.23714 0.0
O17 O 0.33346 0.16534 0.18674 0.0
C18 C 0.35564 0.05125 0.23381 0.0
O19 O 0.39326 0.05795 0.22811 0.0
N20 N 0.373 0.1428 0.22407 0.0
C21 C 0.42257 0.18694 0.25033 0.0
C22 C 0.42961 0.18722 0.22932 0.0
C23 C 0.40428 0.16531 0.21645 0.0
C24 C 0.36863 0.1395 0.24492 0.0
C25 C 0.3926 0.16197 0.2583 0.0
H26 H 0.40777 0.17024 0.20044 0.0
H27 H 0.34354 0.12301 0.25149 0.0
H28 H 0.40695 0.13463 0.17437 0.0
H29 H 0.39696 0.01 0.16464 0.0
H30 H 0.19855 0.15687 0.2394 0.0
H31 H 0.45226 0.20718 0.22273 0.0
H32 H 0.38604 0.16183 0.2745 0.0
C33 C 0.18778 0.11833 0.43303 0.0
C34 C 0.19748 0.14738 0.41876 0.0
N35 N 0.168 0.17573 0.41855 0.0
N36 N 0.15234 0.12793 0.44208 0.0
C37 C 0.1409 0.16323 0.43276 0.0
H38 H 0.20507 0.09112 0.43634 0.0
Co39 Co 0.12983 0.09001 0.46075 0.0
C40 C 0.04722 0.06983 0.44407 0.0
O41 O 0.03277 0.06696 0.46264 0.0
N42 N 0.10905 0.04955 0.47821 0.0
C43 C 0.08572 0.98759 0.48498 0.0
C44 C 0.11066 0.01026 0.47257 0.0
C45 C 0.0844 0.04958 0.49475 0.0
N46 N 0.06841 0.01262 0.49866 0.0
O47 O 0.1769 0.09615 0.47922 0.0
H48 H 0.1263 -0.00059 0.45915 0.0
H49 H 0.07538 0.07637 0.50283 0.0
O50 O 0.0843 0.08048 0.44136 0.0
C51 C 0.19942 0.12678 0.48321 0.0
O52 O 0.1925 0.16143 0.4738 0.0
N53 N 0.1005 0.13214 0.4751 0.0
C54 C 0.05606 0.19075 0.49618 0.0
C55 C 0.04653 0.18127 0.47598 0.0
C56 C 0.06918 0.15224 0.46571 0.0
C57 C 0.10988 0.14159 0.49501 0.0
C58 C 0.08835 0.17112 0.50572 0.0
H59 H 0.06125 0.14665 0.45003 0.0
H60 H 0.13225 0.12462 0.50351 0.0
H61 H 0.1126 0.17873 0.43533 0.0
H62 H 0.22373 0.14707 0.40885 0.0
H63 H 0.07833 0.95583 0.48295 0.0
H64 H 0.02212 0.19687 0.46802 0.0
H65 H 0.09633 0.17791 0.52141 0.0
C66 C 0.10141 0.9451 0.69209 0.0
C67 C 0.07387 0.94993 0.67637 0.0
N68 N 0.06165 0.91295 0.67034 0.0
N69 N 0.10544 0.90523 0.69682 0.0
C70 C 0.08177 0.88659 0.68262 0.0
H71 H 0.11885 0.96934 0.6989 0.0
Co72 Co 0.14577 0.88153 0.71448 0.0
C73 C 0.13303 0.79547 0.69771 0.0
O74 O 0.11406 0.78201 0.71393 0.0
N75 N 0.18848 0.85843 0.73012 0.0
C76 C 0.24481 0.85082 0.74869 0.0
C77 C 0.22237 0.87731 0.73672 0.0
C78 C 0.19164 0.82035 0.73787 0.0
N79 N 0.22529 0.81492 0.74931 0.0
O80 O 0.14734 0.93112 0.73179 0.0
H81 H 0.22971 0.9087 0.73351 0.0
H82 H 0.16809 0.79793 0.73672 0.0
O83 O 0.14587 0.83223 0.69703 0.0
C84 C 0.11682 0.95013 0.73929 0.0
O85 O 0.07982 0.9386 0.73449 0.0
N86 N 0.10634 0.86005 0.73348 0.0
C87 C 0.06306 0.8139 0.76129 0.0
C88 C 0.04692 0.8218 0.74188 0.0
C89 C 0.06904 0.84525 0.72816 0.0
C90 C 0.11721 0.85971 0.75378 0.0
C91 C 0.09706 0.83517 0.76777 0.0
H92 H 0.05778 0.8471 0.71287 0.0
H93 H 0.14401 0.87539 0.75907 0.0
H94 H 0.07972 0.85404 0.68099 0.0
H95 H 0.06521 0.97833 0.66919 0.0
H96 H 0.27292 0.85763 0.75657 0.0
H97 H 0.02014 0.80594 0.73651 0.0
H98 H 0.10972 0.83042 0.78288 0.0
C99 C 0.2949 0.84635 0.94095 0.0
C100 C 0.28814 0.81817 0.92586 0.0
N101 N 0.3241 0.80866 0.91754 0.0
N102 N 0.33523 0.85334 0.94297 0.0
C103 C 0.35166 0.83161 0.92746 0.0
H104 H 0.27133 0.86165 0.94941 0.0
Co105 Co 0.36055 0.8919 0.96062 0.0
C106 C 0.44614 0.88877 0.94314 0.0
O107 O 0.46107 0.87382 0.96016 0.0
N108 N 0.38387 0.93296 0.97654 0.0
C109 C 0.39204 0.99377 0.99079 0.0
C110 C 0.36696 0.97001 0.97889 0.0
C111 C 0.41926 0.93514 0.98697 0.0
N112 N 0.42483 0.97142 0.99582 0.0
O113 O 0.31342 0.89082 0.97961 0.0
H114 H 0.3381 0.97906 0.97238 0.0
H115 H 0.44046 0.91048 0.98873 0.0
O116 O 0.40783 0.89556 0.94156 0.0
C117 C 0.29624 0.8602 0.98811 0.0
O118 O 0.30735 0.82334 0.9828 0.0
N119 N 0.38578 0.84999 0.9773 0.0
C120 C 0.42706 0.79462 1.00219 0.0
C121 C 0.42331 0.78788 0.98123 0.0
C122 C 0.4028 0.8159 0.96908 0.0
C123 C 0.38602 0.85449 0.99819 0.0
C124 C 0.40755 0.82785 1.01084 0.0
H125 H 0.40421 0.81135 0.95298 0.0
H126 H 0.37116 0.8801 1.00526 0.0
H127 H 0.38333 0.83267 0.9232 0.0
H128 H 0.25896 0.80678 0.92085 0.0
H129 H 0.38625 0.02461 0.99567 0.0
H130 H 0.43898 0.76278 0.974 0.0
H131 H 0.41013 0.83397 0.02704 0.0
C132 C 0.43177 0.91498 0.33391 0.0
C133 C 0.46037 0.92562 0.34827 0.0
N134 N 0.44523 0.91867 0.36707 0.0
N135 N 0.39823 0.90089 0.34331 0.0
C136 C 0.40709 0.90475 0.36347 0.0
H137 H 0.43607 0.91719 0.31769 0.0
Co138 Co 0.34823 0.88037 0.33286 0.0
C139 C 0.37547 0.81622 0.3622 0.0
O140 O 0.41195 0.81921 0.35426 0.0
N141 N 0.29797 0.86106 0.32313 0.0
C142 C 0.24259 0.82275 0.32321 0.0
C143 C 0.26753 0.84701 0.33488 0.0
C144 C 0.28942 0.84704 0.30416 0.0
N145 N 0.25684 0.82236 0.30395 0.0
O146 O 0.34925 0.92127 0.31118 0.0
H147 H 0.26633 0.85006 0.35131 0.0
H148 H 0.31005 0.84981 0.2914 0.0
O149 O 0.34693 0.8395 0.35556 0.0
C150 C 0.32247 0.94604 0.30442 0.0
O151 O 0.28635 0.94675 0.31286 0.0
N152 N 0.37444 0.84175 0.31511 0.0
C153 C 0.40413 0.78244 0.2883 0.0
C154 C 0.41099 0.82384 0.28456 0.0
C155 C 0.39641 0.85287 0.29827 0.0
C156 C 0.36402 0.80175 0.31743 0.0
C157 C 0.37948 0.77193 0.30485 0.0
H158 H 0.40174 0.8842 0.29463 0.0
H159 H 0.34224 0.79217 0.32868 0.0
H160 H 0.38625 0.89515 0.37518 0.0
H161 H 0.49039 0.93698 0.34488 0.0
H162 H 0.21878 0.80318 0.32893 0.0
H163 H 0.4276 0.83399 0.27127 0.0
H164 H 0.37255 0.74067 0.3086 0.0
C165 C 0.30307 0.14591 0.60216 0.0
C166 C 0.2963 0.1717 0.61833 0.0
N167 N 0.33202 0.17839 0.62761 0.0
N168 N 0.34331 0.13799 0.60047 0.0
C169 C 0.35954 0.15696 0.61694 0.0
H170 H 0.27953 0.13265 0.59282 0.0
Co171 Co 0.36937 0.10019 0.58267 0.0
C172 C 0.45322 0.10639 0.60251 0.0
O173 O 0.47023 0.12417 0.58679 0.0
N174 N 0.39347 0.0598 0.56665 0.0
C175 C 0.39858 0.00339 0.54825 0.0
C176 C 0.37369 0.02602 0.56068 0.0
C177 C 0.43074 0.0564 0.55817 0.0
N178 N 0.4343 0.02291 0.54657 0.0
O179 O 0.32295 0.10229 0.56313 0.0
H180 H 0.34273 0.01881 0.56476 0.0
H181 H 0.45398 0.07932 0.5591 0.0
O182 O 0.41564 0.09626 0.60215 0.0
C183 C 0.30655 0.13342 0.55459 0.0
O184 O 0.31759 0.16997 0.56041 0.0
N185 N 0.39497 0.14245 0.56669 0.0
C186 C 0.43432 0.19985 0.54238 0.0
C187 C 0.429 0.20649 0.56327 0.0
C188 C 0.4093 0.17756 0.57511 0.0
C189 C 0.39722 0.13753 0.54586 0.0
C190 C 0.41767 0.1653 0.53353 0.0
H191 H 0.40862 0.18269 0.59121 0.0
H192 H 0.38384 0.11142 0.53853 0.0
H193 H 0.39116 0.15536 0.62121 0.0
H194 H 0.26725 0.18335 0.62335 0.0
H195 H 0.39084 0.97509 0.54085 0.0
H196 H 0.44245 0.2326 0.57071 0.0
H197 H 0.42134 0.15931 0.51739 0.0
C198 C 0.0977 0.04838 0.85596 0.0
C199 C 0.06678 0.04073 0.86956 0.0
N200 N 0.0568 0.07581 0.87867 0.0
N201 N 0.10626 0.08859 0.85558 0.0
C202 C 0.08219 0.1038 0.87062 0.0
H203 H 0.11355 0.0255 0.84728 0.0
Co204 Co 0.14859 0.11457 0.84001 0.0
C205 C 0.1497 0.19455 0.86374 0.0
O206 O 0.14033 0.21759 0.84802 0.0
N207 N 0.19248 0.13897 0.82587 0.0
C208 C 0.25128 0.14408 0.80926 0.0
C209 C 0.22745 0.11954 0.82145 0.0
C210 C 0.19638 0.17569 0.81662 0.0
N211 N 0.23123 0.17915 0.80597 0.0
O212 O 0.14647 0.07116 0.81877 0.0
H213 H 0.23441 0.08875 0.8261 0.0
H214 H 0.17315 0.19878 0.81657 0.0
O215 O 0.15285 0.15608 0.86153 0.0
C216 C 0.11529 0.05736 0.80929 0.0
O217 O 0.07882 0.06919 0.81484 0.0
N218 N 0.11028 0.14568 0.82381 0.0
C219 C 0.0558 0.18719 0.79851 0.0
C220 C 0.04999 0.18596 0.81964 0.0
C221 C 0.07766 0.16534 0.832 0.0
C222 C 0.11566 0.14667 0.80296 0.0
C223 C 0.08903 0.16749 0.79011 0.0
H224 H 0.07339 0.16711 0.84815 0.0
H225 H 0.14111 0.13148 0.79595 0.0
H226 H 0.08377 0.13462 0.87618 0.0
H227 H 0.0538 0.01135 0.87307 0.0
H228 H 0.28008 0.13594 0.80247 0.0
H229 H 0.02509 0.20232 0.82664 0.0
H230 H 0.09466 0.16861 0.77383 0.0
C231 C 0.18887 0.86831 0.10602 0.0
C232 C 0.19785 0.83788 0.11982 0.0
N233 N 0.16304 0.8192 0.12474 0.0
N234 N 0.14865 0.8683 0.10171 0.0
C235 C 0.13374 0.83858 0.114 0.0
H236 H 0.2104 0.88975 0.09977 0.0
Co237 Co 0.12384 0.90762 0.08416 0.0
C238 C 0.06231 0.94568 0.11107 0.0
O239 O 0.0744 0.98187 0.1052 0.0
N240 N 0.10042 0.94759 0.06752 0.0
C241 C 0.09205 0.00035 0.04662 0.0
C242 C 0.11911 0.98004 0.05918 0.0
C243 C 0.06204 0.94919 0.06018 0.0
N244 N 0.05642 0.98041 0.04713 0.0
O245 O 0.16943 0.9022 0.06443 0.0
H246 H 0.15068 0.98767 0.06159 0.0
H247 H 0.03878 0.92723 0.06394 0.0
O248 O 0.07977 0.91409 0.10393 0.0
C249 C 0.18645 0.86952 0.0581 0.0
O250 O 0.17454 0.83443 0.06561 0.0
N251 N 0.09313 0.86755 0.06936 0.0
C252 C 0.04366 0.81605 0.0466 0.0
C253 C 0.039 0.81904 0.06772 0.0
C254 C 0.06358 0.84527 0.07876 0.0
C255 C 0.09663 0.86572 0.04845 0.0
C256 C 0.07284 0.83943 0.03684 0.0
H257 H 0.05682 0.84882 0.09467 0.0
H258 H 0.11646 0.8861 0.04028 0.0
H259 H 0.1021 0.83186 0.11597 0.0
H260 H 0.22724 0.83139 0.12654 0.0
H261 H 0.09849 0.02663 0.0372 0.0
H262 H 0.01579 0.80176 0.0756 0.0
H263 H 0.07619 0.8385 1.02039 0.0
C264 C 0.62488 0.91315 0.8636 0.0
C265 C 0.60392 0.92527 0.88078 0.0
N266 N 0.56494 0.91333 0.87891 0.0
N267 N 0.59942 0.89356 0.85085 0.0
C268 C 0.56317 0.89453 0.86067 0.0
H269 H 0.65715 0.91638 0.86108 0.0
Co270 Co 0.61665 0.86312 0.82796 0.0
C271 C 0.61067 0.77644 0.84433 0.0
O272 O 0.60012 0.75908 0.82711 0.0
N273 N 0.63471 0.83086 0.80561 0.0
C274 C 0.63636 0.78556 0.78036 0.0
C275 C 0.61207 0.80971 0.79197 0.0
C276 C 0.67318 0.81832 0.8018 0.0
N277 N 0.67493 0.79089 0.78638 0.0
O278 O 0.62495 0.91253 0.81163 0.0
H279 H 0.57953 0.80776 0.79151 0.0
H280 H 0.69913 0.82779 0.81076 0.0
O281 O 0.61493 0.81493 0.84526 0.0
C282 C 0.61118 0.94877 0.81292 0.0
O283 O 0.58616 0.95828 0.82773 0.0
N284 N 0.56119 0.85841 0.81808 0.0
C285 C 0.49109 0.835 0.79738 0.0
C286 C 0.49961 0.81958 0.81685 0.0
C287 C 0.53511 0.83111 0.82677 0.0
C288 C 0.54983 0.87744 0.80016 0.0
C289 C 0.51517 0.86577 0.78948 0.0
H290 H 0.54206 0.81659 0.84112 0.0
H291 H 0.56988 0.89708 0.79189 0.0
H292 H 0.53626 0.87948 0.8555 0.0
H293 H 0.6169 0.93988 0.89406 0.0
H294 H 0.62582 0.76314 0.76953 0.0
H295 H 0.48147 0.7953 0.82331 0.0
H296 H 0.5099 0.87735 0.77419 0.0
C297 C 0.81084 0.8279 0.60189 0.0
C298 C 0.8089 0.80145 0.61822 0.0
N299 N 0.84422 0.8033 0.6286 0.0
N300 N 0.84795 0.84534 0.60112 0.0
C301 C 0.86656 0.83081 0.61823 0.0
H302 H 0.78591 0.8343 0.59166 0.0
Co303 Co 0.86927 0.88591 0.58278 0.0
C304 C 0.95484 0.88101 0.6014 0.0
O305 O 0.96998 0.86191 0.5856 0.0
N306 N 0.88912 0.92849 0.56639 0.0
C307 C 0.89054 0.98053 0.54469 0.0
C308 C 0.86623 0.95696 0.557 0.0
C309 C 0.92742 0.93662 0.56022 0.0
N310 N 0.92924 0.96765 0.54675 0.0
O311 O 0.82085 0.88125 0.56396 0.0
H312 H 0.83366 0.95951 0.55841 0.0
H313 H 0.95343 0.91899 0.56464 0.0
O314 O 0.91748 0.89243 0.60128 0.0
C315 C 0.80717 0.8504 0.5541 0.0
O316 O 0.82254 0.8143 0.55796 0.0
N317 N 0.89637 0.846 0.56603 0.0
C318 C 0.93858 0.79199 0.54115 0.0
C319 C 0.93117 0.78253 0.56163 0.0
C320 C 0.91003 0.8098 0.57378 0.0
C321 C 0.90002 0.85327 0.54542 0.0
C322 C 0.92213 0.82733 0.53287 0.0
H323 H 0.90766 0.80253 0.58968 0.0
H324 H 0.88616 0.87952 0.53836 0.0
H325 H 0.89645 0.83978 0.62313 0.0
H326 H 0.7834 0.78211 0.62178 0.0
H327 H 0.87984 0.00374 0.53426 0.0
H328 H 0.94422 0.75557 0.5686 0.0
H329 H 0.92714 0.83529 0.51701 0.0
C330 C 0.88217 0.05748 0.35527 0.0
C331 C 0.90444 0.04023 0.37097 0.0
N332 N 0.93101 0.06813 0.37772 0.0
N333 N 0.89569 0.0956 0.35152 0.0
C334 C 0.92403 0.1014 0.36626 0.0
H335 H 0.85729 0.04311 0.34729 0.0
Co336 Co 0.87399 0.13504 0.33311 0.0
C337 C 0.90876 0.20391 0.36153 0.0
O338 O 0.94692 0.20685 0.35609 0.0
N339 N 0.85148 0.17599 0.31638 0.0
C340 C 0.84652 0.23735 0.3022 0.0
C341 C 0.86992 0.21245 0.31404 0.0
C342 C 0.81651 0.17963 0.30564 0.0
N343 N 0.81303 0.21684 0.29685 0.0
O344 O 0.85816 0.09185 0.31342 0.0
H345 H 0.89914 0.22049 0.32037 0.0
H346 H 0.79384 0.15596 0.30465 0.0
O347 O 0.8852 0.17809 0.35308 0.0
C348 C 0.87954 0.06135 0.30773 0.0
O349 O 0.91621 0.05603 0.31526 0.0
N350 N 0.92455 0.14106 0.31806 0.0
C351 C 0.98554 0.17403 0.29397 0.0
C352 C 0.99327 0.16376 0.3144 0.0
C353 C 0.96244 0.1465 0.32612 0.0
C354 C 0.9201 0.14339 0.29718 0.0
C355 C 0.95028 0.15956 0.28485 0.0
H356 H 0.96884 0.14149 0.34189 0.0
H357 H 0.89127 0.13762 0.28998 0.0
H358 H 0.93807 0.13011 0.3696 0.0
H359 H 0.90121 0.00971 0.37692 0.0
H360 H 0.85369 0.26815 0.29766 0.0
H361 H 0.02095 0.17337 0.32195 0.0
H362 H 0.94373 0.16579 0.26891 0.0
C363 C 0.68059 0.13835 0.10671 0.0
C364 C 0.683 0.16741 0.1218 0.0
N365 N 0.64512 0.17565 0.12828 0.0
N366 N 0.64125 0.12952 0.10278 0.0
C367 C 0.62098 0.15142 0.11698 0.0
H368 H 0.70628 0.12433 0.09929 0.0
Co369 Co 0.619 0.08962 0.08472 0.0
C370 C 0.53175 0.09006 0.10102 0.0
O371 O 0.516 0.1015 0.08352 0.0
N372 N 0.59807 0.0481 0.06835 0.0
C373 C 0.59137 0.98809 0.0531 0.0
C374 C 0.61478 0.01089 0.06631 0.0
C375 C 0.56452 0.04695 0.05647 0.0
N376 N 0.56013 0.01137 0.04679 0.0
O377 O 0.66813 0.09105 0.06688 0.0
H378 H 0.64235 0.00109 0.07389 0.0
H379 H 0.54386 0.07196 0.0544 0.0
O380 O 0.57031 0.08545 0.10281 0.0
C381 C 0.68644 0.12167 0.05901 0.0
O382 O 0.67576 0.15843 0.0647 0.0
N383 N 0.59473 0.13056 0.06708 0.0
C384 C 0.56603 0.19088 0.04066 0.0
C385 C 0.56009 0.19387 0.0617 0.0
C386 C 0.57425 0.16336 0.07457 0.0
C387 C 0.60004 0.12738 0.04628 0.0
C388 C 0.58558 0.15698 0.03281 0.0
H389 H 0.56687 0.16593 0.09036 0.0
H390 H 0.61565 0.1016 0.03979 0.0
H391 H 0.58888 0.14899 0.11963 0.0
H392 H 0.7106 0.18143 0.12727 0.0
H393 H 0.59708 0.95716 0.04832 0.0
H394 H 0.54342 0.21919 0.06813 0.0
H395 H 0.58961 0.15338 1.0165 0.0
C396 C 0.60038 0.05234 0.69462 0.0
C397 C 0.57196 0.04587 0.67959 0.0
N398 N 0.56215 0.08185 0.67108 0.0
N399 N 0.60756 0.09256 0.69661 0.0
C400 C 0.58554 0.10922 0.68109 0.0
H401 H 0.61561 0.02861 0.70313 0.0
Co402 Co 0.64753 0.11679 0.71421 0.0
C403 C 0.64417 0.20148 0.69598 0.0
O404 O 0.63082 0.21756 0.71296 0.0
N405 N 0.69005 0.13908 0.73006 0.0
C406 C 0.7501 0.14256 0.74575 0.0
C407 C 0.72523 0.11918 0.73356 0.0
C408 C 0.6947 0.17486 0.73998 0.0
N409 N 0.73055 0.17751 0.74989 0.0
O410 O 0.6449 0.0698 0.73338 0.0
H411 H 0.73221 0.0893 0.7277 0.0
H412 H 0.67149 0.1978 0.74113 0.0
O413 O 0.65167 0.1633 0.69507 0.0
C414 C 0.61302 0.05449 0.74157 0.0
O415 O 0.57693 0.06723 0.73574 0.0
N416 N 0.60721 0.14335 0.73097 0.0
C417 C 0.55188 0.18184 0.75663 0.0
C418 C 0.54459 0.17943 0.73563 0.0
C419 C 0.57257 0.1602 0.72309 0.0
C420 C 0.61298 0.14346 0.7518 0.0
C421 C 0.58622 0.16334 0.76483 0.0
H422 H 0.5672 0.16169 0.707 0.0
H423 H 0.63896 0.12855 0.75863 0.0
H424 H 0.58813 0.14065 0.67656 0.0
H425 H 0.55994 0.01663 0.67517 0.0
H426 H 0.78026 0.13452 0.75098 0.0
H427 H 0.51861 0.19454 0.72878 0.0
H428 H 0.59273 0.16498 0.78103 0.0
C429 C 0.68138 0.83931 0.43943 0.0
C430 C 0.68234 0.81255 0.42327 0.0
N431 N 0.64478 0.81012 0.41528 0.0
N432 N 0.64295 0.85258 0.44244 0.0
C433 C 0.62193 0.83519 0.42682 0.0
H434 H 0.70771 0.84954 0.44782 0.0
Co435 Co 0.62455 0.89448 0.46065 0.0
C436 C 0.53839 0.89991 0.44219 0.0
O437 O 0.52003 0.8842 0.45809 0.0
N438 N 0.60743 0.93807 0.47697 0.0
C439 C 0.60687 0.99541 0.49495 0.0
C440 C 0.63006 0.97013 0.48285 0.0
C441 C 0.57068 0.94493 0.48538 0.0
N442 N 0.56939 0.97942 0.49629 0.0
O443 O 0.67298 0.88737 0.47893 0.0
H444 H 0.66157 0.97453 0.47881 0.0
H445 H 0.54597 0.92368 0.48491 0.0
O446 O 0.57714 0.90404 0.44225 0.0
C447 C 0.68726 0.85511 0.48739 0.0
O448 O 0.67147 0.81973 0.4826 0.0
N449 N 0.59571 0.85656 0.4779 0.0
C450 C 0.55517 0.80387 0.50429 0.0
C451 C 0.55468 0.79736 0.48323 0.0
C452 C 0.57501 0.82396 0.47033 0.0
C453 C 0.59774 0.86184 0.49873 0.0
C454 C 0.57702 0.83632 0.51216 0.0
H455 H 0.57186 0.81902 0.45429 0.0
H456 H 0.61527 0.88631 0.50526 0.0
H457 H 0.59017 0.84067 0.42379 0.0
H458 H 0.70893 0.79729 0.41735 0.0
H459 H 0.61675 0.02317 0.50224 0.0
H460 H 0.53723 0.77267 0.4767 0.0
H461 H 0.5778 0.84209 0.52843 0.0
C462 C 0.88344 0.95347 0.19248 0.0
C463 C 0.90758 0.96713 0.17668 0.0
N464 N 0.92819 0.93533 0.16894 0.0
N465 N 0.88997 0.91339 0.1956 0.0
C466 C 0.91463 0.90319 0.17986 0.0
H467 H 0.86312 0.9722 0.20133 0.0
Co468 Co 0.87103 0.8764 0.21643 0.0
C469 C 0.9017 0.80038 0.19257 0.0
O470 O 0.93676 0.79275 0.20135 0.0
N471 N 0.85195 0.83752 0.23563 0.0
C472 C 0.8521 0.77963 0.25345 0.0
C473 C 0.87451 0.80501 0.24152 0.0
C474 C 0.81486 0.82995 0.24369 0.0
N475 N 0.81459 0.79514 0.25489 0.0
O476 O 0.85672 0.9221 0.23503 0.0
H477 H 0.90543 0.79912 0.23699 0.0
H478 H 0.78834 0.84857 0.24079 0.0
O479 O 0.87998 0.83056 0.19808 0.0
C480 C 0.87695 0.95372 0.24021 0.0
O481 O 0.91334 0.95987 0.23268 0.0
N482 N 0.92414 0.87402 0.22939 0.0
C483 C 0.99215 0.85044 0.25185 0.0
C484 C 0.99437 0.85462 0.23058 0.0
C485 C 0.96002 0.86685 0.21963 0.0
C486 C 0.92429 0.87653 0.25034 0.0
C487 C 0.95796 0.86518 0.26183 0.0
H488 H 0.96182 0.86562 0.20337 0.0
H489 H 0.89661 0.88196 0.2586 0.0
H490 H 0.92223 0.87234 0.1763 0.0
H491 H 0.91046 -0.0016 0.17178 0.0
H492 H 0.8619 0.75062 0.25957 0.0
H493 H 0.0204 0.84345 0.2222 0.0
H494 H 0.95515 0.8625 0.27827 0.0
C495 C 0.78769 0.12934 0.93543 0.0
C496 C 0.7838 0.15692 0.91961 0.0
N497 N 0.82124 0.16759 0.91359 0.0
N498 N 0.82741 0.12433 0.94026 0.0
C499 C 0.84678 0.14658 0.92579 0.0
H500 H 0.76286 0.1135 0.94268 0.0
Co501 Co 0.85127 0.08708 0.95939 0.0
C502 C 0.93807 0.09968 0.94325 0.0
O503 O 0.95001 0.12042 0.95924 0.0
N504 N 0.87439 0.0475 0.97652 0.0
C505 C 0.88229 0.99132 0.99511 0.0
C506 C 0.85644 0.01255 0.98232 0.0
C507 C 0.91122 0.04652 0.9857 0.0
N508 N 0.91669 0.01299 0.9972 0.0
O509 O 0.80083 0.08657 0.97665 0.0
H510 H 0.82618 0.00345 0.9778 0.0
H511 H 0.93326 0.07054 0.98468 0.0
O512 O 0.90157 0.08608 0.94237 0.0
C513 C 0.7817 0.1177 0.98356 0.0
O514 O 0.79066 0.15384 0.97629 0.0
N515 N 0.87065 0.12973 0.9772 0.0
C516 C 0.89096 0.1905 1.00501 0.0
C517 C 0.89317 0.19761 0.98399 0.0
C518 C 0.88307 0.16695 0.9704 0.0
C519 C 0.8672 0.12329 0.99792 0.0
C520 C 0.87751 0.15304 1.01202 0.0
H521 H 0.88746 0.17328 0.95458 0.0
H522 H 0.85548 0.0951 1.00393 0.0
H523 H 0.87935 0.14787 0.92415 0.0
H524 H 0.75576 0.16746 0.91272 0.0
H525 H 0.87575 0.96288 1.00274 0.0
H526 H 0.90512 0.22594 0.97805 0.0
H527 H 0.87611 0.14644 0.02823 0.0
C528 C 0.89711 0.5569 0.69428 0.0
C529 C 0.92017 0.54698 0.6774 0.0
N530 N 0.93896 0.58084 0.67098 0.0
N531 N 0.90303 0.5964 0.6992 0.0
C532 C 0.92686 0.61025 0.68381 0.0
H533 H 0.87713 0.53638 0.70232 0.0
Co534 Co 0.87971 0.62843 0.7206 0.0
C535 C 0.90007 0.71029 0.69877 0.0
O536 O 0.93055 0.72387 0.70973 0.0
N537 N 0.85542 0.66236 0.74052 0.0
C538 C 0.84698 0.71655 0.76042 0.0
C539 C 0.87358 0.69568 0.74849 0.0
C540 C 0.81661 0.66508 0.7472 0.0
N541 N 0.81107 0.69763 0.75955 0.0
O542 O 0.87156 0.57932 0.73802 0.0
H543 H 0.90406 0.70563 0.7452 0.0
H544 H 0.79252 0.64502 0.74227 0.0
O545 O 0.88331 0.67633 0.70295 0.0
C546 C 0.8972 0.55088 0.74187 0.0
O547 O 0.93302 0.55188 0.73307 0.0
N548 N 0.93192 0.63633 0.73401 0.0
C549 C 0.99578 0.66554 0.75767 0.0
C550 C -0.00155 0.66551 0.73631 0.0
C551 C 0.96622 0.65047 0.72474 0.0
C552 C 0.93253 0.63041 0.75485 0.0
C553 C 0.96428 0.64443 0.7669 0.0
H554 H 0.96776 0.65484 0.7086 0.0
H555 H 0.90609 0.61951 0.76287 0.0
H556 H 0.93487 0.64166 0.68151 0.0
H557 H 0.92202 0.5176 0.67009 0.0
H558 H 0.85262 0.74534 0.76787 0.0
H559 H 0.02269 0.68156 0.72858 0.0
H560 H 0.9614 0.64368 0.78338 0.0
C561 C 0.69205 0.65327 0.94044 0.0
C562 C 0.69527 0.67726 0.92319 0.0
N563 N 0.65813 0.68095 0.91485 0.0
N564 N 0.65267 0.64339 0.94362 0.0
C565 C 0.63332 0.65981 0.92719 0.0
H566 H 0.71736 0.64244 0.94948 0.0
Co567 Co 0.6302 0.60546 0.96261 0.0
C568 C 0.54439 0.60933 0.94385 0.0
O569 O 0.52815 0.62836 0.95939 0.0
N570 N 0.60914 0.5652 0.9797 0.0
C571 C 0.60571 0.51103 1.0 0.0
C572 C 0.63004 0.53286 0.98687 0.0
C573 C 0.57194 0.56162 0.98811 0.0
N574 N 0.56932 0.52961 1.00081 0.0
O575 O 0.67853 0.60933 0.98102 0.0
H576 H 0.66126 0.52609 0.98309 0.0
H577 H 0.54798 0.58361 0.98631 0.0
O578 O 0.58209 0.59934 0.9443 0.0
C579 C 0.69494 0.64079 0.98906 0.0
O580 O 0.68269 0.67702 0.98316 0.0
N581 N 0.60485 0.64759 0.97879 0.0
C582 C 0.56153 0.70163 1.00313 0.0
C583 C 0.56688 0.70943 0.98233 0.0
C584 C 0.58865 0.68215 0.97045 0.0
C585 C 0.60397 0.64277 0.99967 0.0
C586 C 0.58138 0.66869 1.01203 0.0
H587 H 0.58911 0.68779 0.95438 0.0
H588 H 0.61931 0.61756 1.00696 0.0
H589 H 0.60123 0.65698 0.92423 0.0
H590 H 0.72291 0.68974 0.91686 0.0
H591 H 0.61419 0.48385 1.00834 0.0
H592 H 0.5515 0.73469 0.97496 0.0
H593 H 0.57805 0.66208 0.02815 0.0
C594 C 0.60219 0.4391 0.19016 0.0
C595 C 0.57891 0.45226 0.17375 0.0
N596 N 0.55468 0.42149 0.16807 0.0
N597 N 0.59216 0.40038 0.19502 0.0
C598 C 0.56456 0.39043 0.18048 0.0
H599 H 0.62585 0.4564 0.19759 0.0
Co600 Co 0.61722 0.36359 0.21388 0.0
C601 C 0.58547 0.2898 0.18834 0.0
O602 O 0.54919 0.28363 0.19592 0.0
N603 N 0.64281 0.32477 0.2309 0.0
C604 C 0.65088 0.2639 0.24533 0.0
C605 C 0.62498 0.28848 0.23477 0.0
C606 C 0.68027 0.32114 0.23929 0.0
N607 N 0.68579 0.28407 0.24798 0.0
O608 O 0.63143 0.40881 0.23276 0.0
H609 H 0.5946 0.28011 0.2302 0.0
H610 H 0.70333 0.34447 0.23849 0.0
O611 O 0.60784 0.31864 0.19488 0.0
C612 C 0.60896 0.43835 0.23868 0.0
O613 O 0.57168 0.44167 0.23169 0.0
N614 N 0.56768 0.35609 0.22959 0.0
C615 C 0.5072 0.32577 0.25496 0.0
C616 C 0.49897 0.33408 0.23438 0.0
C617 C 0.52957 0.34962 0.22198 0.0
C618 C 0.57301 0.35509 0.25045 0.0
C619 C 0.5433 0.33983 0.26338 0.0
H620 H 0.52271 0.35244 0.20613 0.0
H621 H 0.60212 0.36176 0.25726 0.0
H622 H 0.55324 0.36023 0.17791 0.0
H623 H 0.58024 0.48169 0.16636 0.0
H624 H 0.64445 0.23353 0.25081 0.0
H625 H 0.4709 0.32412 0.22732 0.0
H626 H 0.55044 0.33453 0.27933 0.0
C627 C 0.81642 0.36793 0.43773 0.0
C628 C 0.81325 0.33684 0.42376 0.0
N629 N 0.85091 0.32334 0.41945 0.0
N630 N 0.85575 0.37332 0.4429 0.0
C631 C 0.8758 0.3462 0.43112 0.0
H632 H 0.79147 0.38557 0.44374 0.0
Co633 Co 0.87604 0.41455 0.4603 0.0
C634 C 0.93716 0.45564 0.43352 0.0
O635 O 0.92659 0.49198 0.43979 0.0
N636 N 0.89561 0.4561 0.47689 0.0
C637 C 0.89954 0.50664 0.49922 0.0
C638 C 0.87423 0.48578 0.48609 0.0
C639 C 0.93377 0.46011 0.4842 0.0
N640 N 0.93676 0.48982 0.49817 0.0
O641 O 0.83051 0.40556 0.47984 0.0
H642 H 0.84199 0.49072 0.48407 0.0
H643 H 0.95877 0.44066 0.47985 0.0
O644 O 0.91917 0.42437 0.44055 0.0
C645 C 0.81485 0.37218 0.48617 0.0
O646 O 0.82895 0.33764 0.47906 0.0
N647 N 0.91041 0.37715 0.47527 0.0
C648 C 0.9617 0.32629 0.49774 0.0
C649 C 0.96917 0.33402 0.47715 0.0
C650 C 0.94362 0.35972 0.46629 0.0
C651 C 0.90533 0.37254 0.49599 0.0
C652 C 0.9297 0.34605 0.50736 0.0
H653 H 0.95208 0.36599 0.4508 0.0
H654 H 0.88309 0.39011 0.50418 0.0
H655 H 0.9082 0.34428 0.43011 0.0
H656 H 0.78519 0.32516 0.41754 0.0
H657 H 0.89082 0.53079 0.5095 0.0
H658 H 0.9942 0.31947 0.46931 0.0
H659 H 0.92386 0.34135 0.52347 0.0
C660 C 0.90695 0.43664 0.85818 0.0
C661 C 0.93647 0.44121 0.87295 0.0
N662 N 0.94628 0.40422 0.88022 0.0
N663 N 0.89931 0.39673 0.85512 0.0
C664 C 0.92203 0.37827 0.86985 0.0
H665 H 0.89209 0.46135 0.85022 0.0
Co666 Co 0.85995 0.37354 0.83668 0.0
C667 C 0.86706 0.28679 0.8526 0.0
O668 O 0.88544 0.27404 0.8361 0.0
N669 N 0.81816 0.35182 0.8202 0.0
C670 C 0.75921 0.34647 0.80366 0.0
C671 C 0.78316 0.37121 0.81566 0.0
C672 C 0.81439 0.31518 0.81103 0.0
N673 N 0.77899 0.3111 0.80087 0.0
O674 O 0.86107 0.42276 0.81889 0.0
H675 H 0.77564 0.40155 0.82069 0.0
H676 H 0.83812 0.29277 0.81058 0.0
O677 O 0.8567 0.32425 0.85427 0.0
C678 C 0.89237 0.43949 0.81086 0.0
O679 O 0.92886 0.42731 0.81633 0.0
N680 N 0.90105 0.35034 0.81902 0.0
C681 C 0.95476 0.31171 0.79264 0.0
C682 C 0.9644 0.31635 0.81327 0.0
C683 C 0.93722 0.33551 0.82617 0.0
C684 C 0.89405 0.35032 0.79828 0.0
C685 C 0.91981 0.32991 0.7849 0.0
H686 H 0.94434 0.33449 0.84202 0.0
H687 H 0.86743 0.3648 0.79188 0.0
H688 H 0.92111 0.34601 0.873 0.0
H689 H 0.95021 0.4696 0.87752 0.0
H690 H 0.72957 0.3539 0.7975 0.0
H691 H 0.9911 0.3019 0.81979 0.0
H692 H 0.91168 0.32695 0.76893 0.0
C693 C 0.80714 0.65673 0.10746 0.0
C694 C 0.80524 0.68541 0.12273 0.0
N695 N 0.84234 0.68872 0.13123 0.0
N696 N 0.84577 0.64334 0.10539 0.0
C697 C 0.86555 0.66189 0.121 0.0
H698 H 0.78145 0.6462 0.09869 0.0
Co699 Co 0.8671 0.60233 0.08761 0.0
C700 C 0.95316 0.59958 0.10521 0.0
O701 O 0.96971 0.6102 0.08782 0.0
N702 N 0.88693 0.55943 0.07183 0.0
C703 C 0.89355 0.49649 0.06002 0.0
C704 C 0.86942 0.52249 0.07116 0.0
C705 C 0.92158 0.55505 0.06106 0.0
N706 N 0.9266 0.51716 0.05385 0.0
O707 O 0.81928 0.60714 0.0686 0.0
H708 H 0.84128 0.51478 0.0787 0.0
H709 H 0.94235 0.57941 0.0579 0.0
O710 O 0.91447 0.59549 0.10649 0.0
C711 C 0.80442 0.63911 0.06005 0.0
O712 O 0.81846 0.67491 0.0654 0.0
N713 N 0.89503 0.64174 0.07085 0.0
C714 C 0.93408 0.69807 0.04595 0.0
C715 C 0.93518 0.70189 0.06715 0.0
C716 C 0.91559 0.67356 0.07928 0.0
C717 C 0.89297 0.63859 0.04991 0.0
C718 C 0.91278 0.66617 0.03716 0.0
H719 H 0.91939 0.67648 0.09541 0.0
H720 H 0.87636 0.6141 0.04281 0.0
H721 H 0.89667 0.65566 0.12519 0.0
H722 H 0.77862 0.70274 0.12686 0.0
H723 H 0.88764 0.46472 0.05707 0.0
H724 H 0.95233 0.72605 0.07436 0.0
H725 H 0.91172 0.66243 1.02074 0.0
C726 C 0.61039 0.55627 0.35494 0.0
C727 C 0.58938 0.54663 0.37258 0.0
N728 N 0.56856 0.57974 0.37835 0.0
N729 N 0.60105 0.59462 0.34894 0.0
C730 C 0.57693 0.60821 0.36423 0.0
H731 H 0.63162 0.53653 0.34724 0.0
Co732 Co 0.62124 0.6274 0.32693 0.0
C733 C 0.59472 0.7089 0.34702 0.0
O734 O 0.56567 0.7201 0.33444 0.0
N735 N 0.64221 0.66258 0.30639 0.0
C736 C 0.645 0.71719 0.28619 0.0
C737 C 0.62066 0.6935 0.29798 0.0
C738 C 0.68063 0.66937 0.29981 0.0
N739 N 0.68288 0.70248 0.28739 0.0
O740 O 0.63353 0.57835 0.31012 0.0
H741 H 0.58911 0.69986 0.30072 0.0
H742 H 0.7065 0.65144 0.30466 0.0
O743 O 0.61367 0.67554 0.34409 0.0
C744 C 0.61118 0.54701 0.30707 0.0
O745 O 0.5758 0.5444 0.31621 0.0
N746 N 0.56827 0.63003 0.31365 0.0
C747 C 0.50098 0.65061 0.28985 0.0
C748 C 0.49893 0.65213 0.31119 0.0
C749 C 0.53298 0.64179 0.32283 0.0
C750 C 0.56791 0.62284 0.29292 0.0
C751 C 0.53474 0.63309 0.28078 0.0
H752 H 0.53148 0.64774 0.33883 0.0
H753 H 0.5952 0.6142 0.28498 0.0
H754 H 0.56623 0.63899 0.36565 0.0
H755 H 0.59046 0.51817 0.38089 0.0
H756 H 0.63599 0.74482 0.27837 0.0
H757 H 0.47318 0.66612 0.31868 0.0
H758 H 0.53753 0.63211 0.2643 0.0
C759 C 0.70219 0.3414 0.60175 0.0
C760 C 0.70877 0.31464 0.61766 0.0
N761 N 0.67286 0.30677 0.62645 0.0
N762 N 0.66195 0.34905 0.59974 0.0
C763 C 0.64541 0.32858 0.6157 0.0
H764 H 0.72586 0.35568 0.59291 0.0
Co765 Co 0.63604 0.38843 0.58248 0.0
C766 C 0.55139 0.38069 0.60158 0.0
O767 O 0.53499 0.36563 0.58498 0.0
N768 N 0.61191 0.43027 0.56707 0.0
C769 C 0.60497 0.49029 0.55161 0.0
C770 C 0.6302 0.46618 0.56337 0.0
C771 C 0.57532 0.43362 0.55774 0.0
N772 N 0.57076 0.46931 0.54791 0.0
O773 O 0.68305 0.38867 0.56326 0.0
H774 H 0.66027 0.4741 0.56871 0.0
H775 H 0.55274 0.41001 0.55745 0.0
O776 O 0.58918 0.39031 0.60178 0.0
C777 C 0.70018 0.35863 0.55425 0.0
O778 O 0.68906 0.32146 0.55901 0.0
N779 N 0.61098 0.34748 0.56551 0.0
C780 C 0.56703 0.29511 0.54057 0.0
C781 C 0.57374 0.28558 0.56109 0.0
C782 C 0.59569 0.31212 0.57329 0.0
C783 C 0.60888 0.35407 0.54478 0.0
C784 C 0.58594 0.32893 0.53213 0.0
H785 H 0.59669 0.30537 0.58923 0.0
H786 H 0.62317 0.38028 0.53793 0.0
H787 H 0.61359 0.32952 0.61956 0.0
H788 H 0.73786 0.30328 0.62292 0.0
H789 H 0.61163 0.52036 0.54579 0.0
H790 H 0.55897 0.25967 0.56811 0.0
H791 H 0.5814 0.33692 0.51622 0.0
C792 C 0.12847 0.45619 0.36056 0.0
C793 C 0.10009 0.47037 0.37408 0.0
N794 N 0.07667 0.43908 0.38 0.0
N795 N 0.12238 0.41627 0.35691 0.0
C796 C 0.09202 0.40641 0.37007 0.0
H797 H 0.15224 0.47426 0.35373 0.0
Co798 Co 0.15731 0.38632 0.33904 0.0
C799 C 0.15047 0.30071 0.35638 0.0
O800 O 0.14111 0.28615 0.3384 0.0
N801 N 0.19535 0.35809 0.32248 0.0
C802 C 0.25502 0.34337 0.30816 0.0
C803 C 0.23468 0.36921 0.3212 0.0
C804 C 0.19282 0.32524 0.31008 0.0
N805 N 0.22847 0.31548 0.30135 0.0
O806 O 0.16059 0.43407 0.32002 0.0
H807 H 0.24772 0.39475 0.32923 0.0
H808 H 0.16514 0.30928 0.30662 0.0
O809 O 0.15603 0.33907 0.35863 0.0
C810 C 0.13098 0.45639 0.31378 0.0
O811 O 0.09405 0.44883 0.32031 0.0
N812 N 0.11292 0.36575 0.32278 0.0
C813 C 0.06227 0.32023 0.29789 0.0
C814 C 0.05523 0.32228 0.31888 0.0
C815 C 0.08107 0.34509 0.33109 0.0
C816 C 0.1158 0.36859 0.30186 0.0
C817 C 0.09142 0.34514 0.28913 0.0
H818 H 0.07826 0.3412 0.34721 0.0
H819 H 0.14055 0.3847 0.29475 0.0
H820 H 0.08316 0.37576 0.37363 0.0
H821 H 0.09693 0.50152 0.37905 0.0
H822 H 0.28682 0.34483 0.3041 0.0
H823 H 0.03291 0.30276 0.32605 0.0
H824 H 0.09762 0.34389 0.27291 0.0
C825 C 0.32699 0.31216 0.07855 0.0
C826 C 0.31894 0.28346 0.09329 0.0
N827 N 0.33532 0.29595 0.11099 0.0
N828 N 0.34932 0.34267 0.08662 0.0
C829 C 0.35293 0.33204 0.1066 0.0
H830 H 0.31695 0.30997 0.063 0.0
Co831 Co 0.37236 0.39014 0.07413 0.0
C832 C 0.45234 0.39083 0.0982 0.0
O833 O 0.47357 0.37871 0.08244 0.0
N834 N 0.3924 0.43885 0.06314 0.0
C835 C 0.39288 0.49927 0.04778 0.0
C836 C 0.36886 0.47002 0.05675 0.0
C837 C 0.43058 0.45071 0.05867 0.0
N838 N 0.43174 0.48684 0.04906 0.0
O839 O 0.3311 0.38891 0.05163 0.0
H840 H 0.33608 0.47053 0.05766 0.0
H841 H 0.45678 0.43147 0.06009 0.0
O842 O 0.41351 0.39455 0.09685 0.0
C843 C 0.32486 0.36804 0.03534 0.0
O844 O 0.34622 0.33506 0.03195 0.0
N845 N 0.40855 0.35798 0.05781 0.0
C846 C 0.45968 0.3095 0.03444 0.0
C847 C 0.44771 0.29711 0.05393 0.0
C848 C 0.42241 0.32176 0.06539 0.0
C849 C 0.4197 0.36993 0.03848 0.0
C850 C 0.44578 0.34635 0.02664 0.0
H851 H 0.41577 0.31231 0.08079 0.0
H852 H 0.40727 0.39715 0.03164 0.0
H853 H 0.36905 0.34995 0.11767 0.0
H854 H 0.30213 0.25556 0.09117 0.0
H855 H 0.38248 0.52652 0.04007 0.0
H856 H 0.45914 0.26912 0.06058 0.0
H857 H 0.45479 0.35666 1.0116 0.0
C858 C 0.39977 0.55088 0.85171 0.0
C859 C 0.42918 0.54525 0.86643 0.0
N860 N 0.4399 0.58182 0.87364 0.0
N861 N 0.39288 0.59105 0.84879 0.0
C862 C 0.41655 0.60881 0.8633 0.0
H863 H 0.38317 0.52674 0.84432 0.0
Co864 Co 0.34995 0.61365 0.8324 0.0
C865 C 0.35619 0.69864 0.85078 0.0
O866 O 0.3723 0.71494 0.83442 0.0
N867 N 0.30463 0.63496 0.81796 0.0
C868 C 0.24667 0.63865 0.8004 0.0
C869 C 0.27158 0.61386 0.81204 0.0
C870 C 0.29829 0.67275 0.81032 0.0
N871 N 0.26397 0.67564 0.79915 0.0
O872 O 0.35134 0.56621 0.81363 0.0
H873 H 0.26655 0.5821 0.81543 0.0
H874 H 0.32005 0.69695 0.81124 0.0
O875 O 0.34719 0.66075 0.85115 0.0
C876 C 0.38309 0.55222 0.80476 0.0
O877 O 0.41912 0.56567 0.81011 0.0
N878 N 0.38651 0.64039 0.81357 0.0
C879 C 0.42469 0.69265 0.78661 0.0
C880 C 0.4422 0.68423 0.80568 0.0
C881 C 0.42263 0.65769 0.81899 0.0
C882 C 0.37485 0.64184 0.79337 0.0
C883 C 0.39247 0.66915 0.77983 0.0
H884 H 0.43432 0.65544 0.83421 0.0
H885 H 0.34912 0.62466 0.78793 0.0
H886 H 0.41608 0.64092 0.86672 0.0
H887 H 0.44009 0.51638 0.87222 0.0
H888 H 0.2184 0.62985 0.79322 0.0
H889 H 0.46765 0.7019 0.81126 0.0
H890 H 0.37883 0.67434 0.76497 0.0
C891 C 0.19911 0.64866 0.60795 0.0
C892 C 0.20394 0.67562 0.62381 0.0
N893 N 0.16706 0.68427 0.63136 0.0
N894 N 0.15913 0.6417 0.60465 0.0
C895 C 0.14078 0.66251 0.61995 0.0
H896 H 0.22364 0.63414 0.59983 0.0
Co897 Co 0.13583 0.60286 0.58638 0.0
C898 C 0.05024 0.60961 0.60419 0.0
O899 O 0.03568 0.62978 0.58848 0.0
N900 N 0.11409 0.56155 0.56999 0.0
C901 C 0.10999 0.50683 0.55025 0.0
C902 C 0.13481 0.52915 0.56296 0.0
C903 C 0.07654 0.55758 0.56186 0.0
N904 N 0.07338 0.52508 0.54956 0.0
O905 O 0.1841 0.60519 0.56816 0.0
H906 H 0.16641 0.52296 0.56628 0.0
H907 H 0.05245 0.57928 0.56384 0.0
O908 O 0.08762 0.59852 0.60455 0.0
C909 C 0.20058 0.63672 0.56018 0.0
O910 O 0.18855 0.67293 0.56607 0.0
N911 N 0.11126 0.64416 0.56901 0.0
C912 C 0.07128 0.69771 0.54263 0.0
C913 C 0.0765 0.70734 0.56324 0.0
C914 C 0.09661 0.68033 0.57612 0.0
C915 C 0.11047 0.63722 0.54829 0.0
C916 C 0.08957 0.66291 0.53495 0.0
H917 H 0.09698 0.68773 0.59196 0.0
H918 H 0.12502 0.61084 0.54182 0.0
H919 H 0.10847 0.66206 0.6227 0.0
H920 H 0.23244 0.6869 0.62979 0.0
H921 H 0.11885 0.48049 0.54148 0.0
H922 H 0.06225 0.73404 0.56972 0.0
H923 H 0.0864 0.65485 0.519 0.0
C924 C 0.10457 0.55744 0.19732 0.0
C925 C 0.07481 0.54865 0.1832 0.0
N926 N 0.06378 0.58343 0.17396 0.0
N927 N 0.11136 0.59799 0.19783 0.0
C928 C 0.08736 0.61241 0.18246 0.0
H929 H 0.12126 0.53501 0.20603 0.0
Co930 Co 0.1527 0.62549 0.21331 0.0
C931 C 0.14332 0.70856 0.1929 0.0
O932 O 0.1302 0.72559 0.20969 0.0
N933 N 0.19626 0.65143 0.22711 0.0
C934 C 0.25511 0.65833 0.24362 0.0
C935 C 0.23169 0.63291 0.23172 0.0
C936 C 0.19971 0.68867 0.23575 0.0
N937 N 0.23449 0.69324 0.24636 0.0
O938 O 0.1551 0.58016 0.23381 0.0
H939 H 0.23928 0.60214 0.22741 0.0
H940 H 0.17565 0.71076 0.23626 0.0
O941 O 0.15235 0.67059 0.19277 0.0
C942 C 0.12553 0.56473 0.24392 0.0
O943 O 0.08806 0.57523 0.23934 0.0
N944 N 0.11371 0.65202 0.23082 0.0
C945 C 0.06971 0.70423 0.25543 0.0
C946 C 0.05537 0.69419 0.23598 0.0
C947 C 0.07781 0.66783 0.22389 0.0
C948 C 0.12328 0.6559 0.25118 0.0
C949 C 0.10256 0.68314 0.26358 0.0
H950 H 0.06835 0.6646 0.20835 0.0
H951 H 0.14958 0.64087 0.2576 0.0
H952 H 0.08733 0.64364 0.17727 0.0
H953 H 0.06363 0.51875 0.17931 0.0
H954 H 0.28442 0.65111 0.25022 0.0
H955 H 0.02968 0.71011 0.22932 0.0
H956 H 0.1139 0.68982 0.27875 0.0
C957 C 0.13227 0.27505 0.97616 0.0
C958 C 0.14375 0.24734 0.96158 0.0
N959 N 0.15358 0.26753 0.94437 0.0
N960 N 0.13375 0.31292 0.96817 0.0
C961 C 0.14881 0.30724 0.94913 0.0
H962 H 0.12114 0.26712 0.9911 0.0
Co963 Co 0.11312 0.36322 0.97813 0.0
C964 C 0.06852 0.35255 0.93865 0.0
O965 O 0.06508 0.31364 0.94282 0.0
N966 N 0.09296 0.41357 0.98717 0.0
C967 C 0.0737 0.47844 0.98752 0.0
C968 C 0.09671 0.44972 0.97752 0.0
C969 C 0.06829 0.42126 1.00312 0.0
N970 N 0.05591 0.46008 1.0035 0.0
O971 O 0.16487 0.3875 0.97239 0.0
H972 H 0.11346 0.45437 0.96353 0.0
H973 H 0.05784 0.39872 1.01389 0.0
O974 O 0.0883 0.37563 0.95095 0.0
C975 C 0.17943 0.38991 0.99057 0.0
O976 O 0.15624 0.37942 1.00598 0.0
N977 N 0.06608 0.33867 0.98769 0.0
C978 C 0.00391 0.30517 1.01081 0.0
C979 C 0.99546 0.3253 0.99227 0.0
C980 C 0.02688 0.34325 0.9813 0.0
C981 C 0.07423 0.32212 1.00637 0.0
C982 C 0.0436 0.30594 1.01837 0.0
H983 H 0.01926 0.36144 0.96814 0.0
H984 H 0.10489 0.32242 1.01227 0.0
H985 H 0.15276 0.3318 0.9383 0.0
H986 H 0.14133 0.2147 0.96309 0.0
H987 H 0.06853 0.50957 0.9828 0.0
H988 H 0.96505 0.32649 0.98596 0.0
H989 H 0.05124 0.29328 0.03317 0.0
C990 C 0.40213 0.43328 0.69232 0.0
C991 C 0.43106 0.43966 0.67754 0.0
N992 N 0.44241 0.40341 0.67019 0.0
N993 N 0.39635 0.39294 0.69526 0.0
C994 C 0.41974 0.37589 0.68043 0.0
H995 H 0.38541 0.45711 0.69987 0.0
Co996 Co 0.35696 0.36851 0.71334 0.0
C997 C 0.3634 0.28268 0.69681 0.0
O998 O 0.37786 0.26745 0.71387 0.0
N999 N 0.31541 0.34556 0.72962 0.0
C1000 C 0.25601 0.34086 0.74563 0.0
C1001 C 0.27965 0.36438 0.73292 0.0
C1002 C 0.31244 0.3103 0.74032 0.0
N1003 N 0.27682 0.30681 0.75029 0.0
O1004 O 0.35657 0.4172 0.731 0.0
H1005 H 0.27161 0.39384 0.72675 0.0
H1006 H 0.33636 0.28809 0.74159 0.0
O1007 O 0.35508 0.3206 0.69551 0.0
C1008 C 0.3869 0.43598 0.73878 0.0
O1009 O 0.42406 0.4243 0.73442 0.0
N1010 N 0.39804 0.3455 0.73102 0.0
C1011 C 0.45193 0.30716 0.75768 0.0
C1012 C 0.46023 0.30933 0.73679 0.0
C1013 C 0.4329 0.32844 0.72374 0.0
C1014 C 0.39198 0.34693 0.75179 0.0
C1015 C 0.41797 0.32695 0.76535 0.0
H1016 H 0.43864 0.32604 0.70775 0.0
H1017 H 0.36577 0.3621 0.75808 0.0
H1018 H 0.41989 0.34386 0.67683 0.0
H1019 H 0.44161 0.46878 0.67198 0.0
H1020 H 0.22641 0.34889 0.75152 0.0
H1021 H 0.48603 0.29341 0.73037 0.0
H1022 H 0.41071 0.32557 0.78146 0.0
C1023 C 0.30986 0.64715 0.44227 0.0
C1024 C 0.30406 0.67571 0.42713 0.0
N1025 N 0.34059 0.68656 0.41985 0.0
N1026 N 0.35005 0.64125 0.44551 0.0
C1027 C 0.36761 0.66416 0.43068 0.0
H1028 H 0.28587 0.63113 0.4501 0.0
Co1029 Co 0.37387 0.60162 0.46348 0.0
C1030 C 0.45946 0.60552 0.44617 0.0
O1031 O 0.47489 0.62017 0.46307 0.0
N1032 N 0.39576 0.55951 0.47949 0.0
C1033 C 0.4013 0.4985 0.49404 0.0
C1034 C 0.37701 0.52353 0.48227 0.0
C1035 C 0.43149 0.55546 0.48955 0.0
N1036 N 0.43548 0.51892 0.49858 0.0
O1037 O 0.32603 0.60379 0.48201 0.0
H1038 H 0.34745 0.51605 0.47612 0.0
H1039 H 0.45405 0.57896 0.49081 0.0
O1040 O 0.42142 0.59756 0.44491 0.0
C1041 C 0.30944 0.63551 0.48973 0.0
O1042 O 0.32168 0.67159 0.4837 0.0
N1043 N 0.39925 0.64218 0.48076 0.0
C1044 C 0.43719 0.69711 0.50695 0.0
C1045 C 0.43533 0.70454 0.48597 0.0
C1046 C 0.41644 0.67682 0.4732 0.0
C1047 C 0.39844 0.6364 0.50159 0.0
C1048 C 0.41813 0.66294 0.51492 0.0
H1049 H 0.4189 0.68238 0.45723 0.0
H1050 H 0.38333 0.61039 0.50818 0.0
H1051 H 0.39978 0.6642 0.42766 0.0
H1052 H 0.27513 0.68691 0.42158 0.0
H1053 H 0.39409 0.46807 0.49915 0.0
H1054 H 0.45081 0.7304 0.47929 0.0
H1055 H 0.41931 0.6563 0.53112 0.0
C1056 C 0.26723 0.25819 0.25567 0.0
C1057 C 0.24755 0.22034 0.25736 0.0
C1058 C 0.26136 0.28891 0.2702 0.0
C1059 C 0.23553 0.28303 0.287 0.0
H1060 H 0.2871 0.26425 0.24288 0.0
H1061 H 0.27658 0.31773 0.26809 0.0
S1062 S 0.17997 0.18824 0.29966 0.0
N1063 N 0.2032 0.17798 0.27797 0.0
N1064 N 0.19224 0.23552 0.30524 0.0
C1065 C 0.2162 0.24511 0.28908 0.0
C1066 C 0.22214 0.21387 0.27428 0.0
C1067 C 0.99635 0.95261 0.53144 0.0
C1068 C 0.96466 0.98036 0.53537 0.0
C1069 C 0.0304 0.96376 0.51994 0.0
C1070 C 0.03424 0.003 0.51165 0.0
H1071 H 0.99461 0.92159 0.53686 0.0
H1072 H 0.05381 0.94126 0.51734 0.0
S1073 S 0.95946 0.08704 0.51718 0.0
N1074 N 0.94002 0.04929 0.5305 0.0
N1075 N 0.0023 0.06946 0.50769 0.0
C1076 C 0.00271 0.03111 0.5154 0.0
C1077 C 0.96837 0.01993 0.52747 0.0
C1078 C 0.26051 0.74987 0.79343 0.0
C1079 C 0.25219 0.71012 0.7867 0.0
C1080 C 0.25221 0.78386 0.78108 0.0
C1081 C 0.23514 0.77954 0.7615 0.0
H1082 H 0.27351 0.75473 0.80843 0.0
H1083 H 0.25864 0.8138 0.78705 0.0
S1084 S 0.21022 0.68218 0.73598 0.0
N1085 N 0.22764 0.66851 0.75866 0.0
N1086 N 0.21189 0.73227 0.73556 0.0
C1087 C 0.22688 0.74 0.75451 0.0
C1088 C 0.23538 0.70536 0.76707 0.0
C1089 C 0.47506 0.95363 1.02234 0.0
C1090 C 0.4587 0.98228 1.00855 0.0
C1091 C 0.50896 0.96286 0.03441 0.0
C1092 C 0.52763 0.00104 0.03308 0.0
H1093 H 0.46113 0.92404 0.024 0.0
H1094 H 0.52001 0.94044 0.04522 0.0
S1095 S 0.49927 0.08495 0.99777 0.0
N1096 N 0.46533 0.04918 0.99326 0.0
N1097 N 0.5294 0.06654 1.01577 0.0
C1098 C 0.51225 0.02956 1.01896 0.0
C1099 C 0.47761 0.02022 1.00676 0.0
C1100 C 0.23174 0.76606 0.25564 0.0
C1101 C 0.24288 0.72576 0.26053 0.0
C1102 C 0.23634 0.7977 0.26985 0.0
C1103 C 0.25126 0.78989 0.28957 0.0
H1104 H 0.2193 0.77308 0.24071 0.0
H1105 H 0.22776 0.82832 0.26554 0.0
S1106 S 0.28513 0.69046 0.31014 0.0
N1107 N 0.26997 0.68038 0.28664 0.0
N1108 N 0.27821 0.73973 0.3132 0.0
C1109 C 0.26282 0.75003 0.29462 0.0
C1110 C 0.25874 0.71798 0.28014 0.0
C1111 C 0.54136 0.00851 0.52803 0.0
C1112 C 0.53545 0.99327 0.50821 0.0
C1113 C 0.50813 0.01825 0.5405 0.0
C1114 C 0.46799 0.01286 0.53358 0.0
H1115 H 0.57177 0.01173 0.53413 0.0
H1116 H 0.51379 0.02924 0.55581 0.0
S1117 S 0.43654 0.97959 0.48189 0.0
N1118 N 0.48661 0.97725 0.48154 0.0
N1119 N 0.42437 0.99528 0.50499 0.0
C1120 C 0.46179 -0.00089 0.51355 0.0
C1121 C 0.49549 0.98942 0.50085 0.0
C1122 C 0.28259 0.22495 0.79074 0.0
C1123 C 0.24223 0.21123 0.79191 0.0
C1124 C 0.29374 0.25609 0.77712 0.0
C1125 C 0.26495 0.27457 0.76407 0.0
H1126 H 0.30556 0.21184 0.80064 0.0
H1127 H 0.32501 0.26618 0.777 0.0
S1128 S 0.15661 0.2458 0.75916 0.0
N1129 N 0.17428 0.21606 0.7775 0.0
N1130 N 0.19521 0.27433 0.75199 0.0
C1131 C 0.22478 0.26036 0.76472 0.0
C1132 C 0.21343 0.22876 0.77859 0.0
C1133 C 0.00573 0.02769 0.0326 0.0
C1134 C 0.02112 0.98809 0.0347 0.0
C1135 C 0.97136 0.03555 1.02049 0.0
C1136 C 0.9514 0.0041 1.00992 0.0
H1137 H 0.02015 0.05258 0.04058 0.0
H1138 H 0.9601 0.06642 1.01951 0.0
S1139 S 0.98306 0.89614 1.00837 0.0
N1140 N 0.01586 0.91771 0.02405 0.0
N1141 N 0.95157 0.93255 1.00112 0.0
C1142 C 0.96706 0.96455 1.01159 0.0
C1143 C 0.00188 0.95654 0.02399 0.0
C1144 C 0.73946 0.75461 0.79326 0.0
C1145 C 0.709 0.767 0.77949 0.0
C1146 C 0.7716 0.72971 0.78687 0.0
C1147 C 0.77409 0.7158 0.76662 0.0
H1148 H 0.73839 0.76407 0.80907 0.0
H1149 H 0.79529 0.72187 0.7977 0.0
S1150 S 0.70396 0.7416 0.72428 0.0
N1151 N 0.68487 0.76515 0.7443 0.0
N1152 N 0.74467 0.71738 0.73269 0.0
C1153 C 0.74385 0.72765 0.75276 0.0
C1154 C 0.71151 0.75352 0.7591 0.0
C1155 C 0.76872 0.27382 0.28677 0.0
C1156 C 0.78091 0.23304 0.28437 0.0
C1157 C 0.73894 0.29116 0.27414 0.0
C1158 C 0.7204 0.26824 0.25873 0.0
H1159 H 0.78195 0.29223 0.29873 0.0
H1160 H 0.72929 0.32211 0.27688 0.0
S1161 S 0.74476 0.16191 0.24465 0.0
N1162 N 0.77447 0.1714 0.26443 0.0
N1163 N 0.71834 0.20389 0.24064 0.0
C1164 C 0.73319 0.22788 0.25576 0.0
C1165 C 0.76341 0.21023 0.26864 0.0
C1166 C 0.74439 0.28344 0.77034 0.0
C1167 C 0.76657 0.27704 0.78847 0.0
C1168 C 0.73313 0.25086 0.75777 0.0
C1169 C 0.74365 0.21055 0.76279 0.0
H1170 H 0.73625 0.31394 0.76564 0.0
H1171 H 0.71641 0.2573 0.74387 0.0
S1172 S 0.79839 0.17705 0.80955 0.0
N1173 N 0.79641 0.22699 0.81146 0.0
N1174 N 0.7755 0.16593 0.7878 0.0
C1175 C 0.76536 0.20365 0.78102 0.0
C1176 C 0.77672 0.23682 0.79385 0.0
C1177 C 0.74525 0.76781 0.25243 0.0
C1178 C 0.7809 0.77385 0.26375 0.0
C1179 C 0.71423 0.74283 0.25992 0.0
C1180 C 0.71763 0.72311 0.27903 0.0
H1181 H 0.74183 0.78165 0.2375 0.0
H1182 H 0.68712 0.73899 0.25073 0.0
S1183 S 0.80436 0.73117 0.31495 0.0
N1184 N 0.81773 0.75923 0.29513 0.0
N1185 N 0.75903 0.71281 0.30937 0.0
C1186 C 0.75313 0.72912 0.29051 0.0
C1187 C 0.78477 0.75445 0.28285 0.0
C1188 C 0.49544 0.52471 1.00575 0.0
C1189 C 0.53509 0.52003 1.01348 0.0
C1190 C 0.46153 0.51581 1.01779 0.0
C1191 C 0.46615 0.50212 0.03802 0.0
H1192 H 0.4907 0.53435 0.9901 0.0
H1193 H 0.43163 0.51803 1.01097 0.0
S1194 S 0.56315 0.49044 0.06634 0.0
N1195 N 0.5769 0.50468 0.04316 0.0
N1196 N 0.51307 0.48808 0.06587 0.0
C1197 C 0.50555 0.49909 0.0462 0.0
C1198 C 0.54006 0.50793 0.03391 0.0
C1199 C 0.01593 0.5469 0.52775 0.0
C1200 C 0.03931 0.51548 0.53659 0.0
C1201 C 0.98233 0.53837 0.51529 0.0
C1202 C 0.97118 0.49814 0.51106 0.0
H1203 H 0.02399 0.57833 0.53026 0.0
H1204 H 0.96528 0.56332 0.50866 0.0
S1205 S 0.02 0.40507 0.53187 0.0
N1206 N 0.04733 0.44272 0.54122 0.0
N1207 N 0.98446 0.42663 0.51765 0.0
C1208 C 0.99396 0.46647 0.51997 0.0
C1209 C 0.028 0.47515 0.53274 0.0
C1210 C 0.98474 0.45886 1.01427 0.0
C1211 C 0.02379 0.47557 1.01585 0.0
C1212 C 0.95318 0.47237 0.02683 0.0
C1213 C 0.95986 0.50262 0.04159 0.0
H1214 H 0.97868 0.43538 1.00312 0.0
H1215 H 0.92326 0.45943 0.02477 0.0
S1216 S 0.05877 0.55227 0.05293 0.0
N1217 N 0.06851 0.52183 0.03355 0.0
N1218 N 0.0101 0.54617 0.05806 0.0
C1219 C -0.00055 0.51861 0.04362 0.0
C1220 C 0.03122 0.50533 0.03051 0.0
C1221 C 0.52064 0.5207 0.53692 0.0
C1222 C 0.53701 0.48143 0.53529 0.0
C1223 C 0.48722 0.53265 0.52499 0.0
C1224 C 0.46913 0.50572 0.51101 0.0
H1225 H 0.53345 0.54204 0.5477 0.0
H1226 H 0.47516 0.56303 0.52683 0.0
S1227 S 0.50434 0.40171 0.49893 0.0
N1228 N 0.53511 0.41701 0.51732 0.0
N1229 N 0.47222 0.4395 0.49495 0.0
C1230 C 0.48582 0.46675 0.5089 0.0
C1231 C 0.51983 0.4546 0.52102 0.0
C1232 C 0.33982 0.20891 0.14868 0.0
C1233 C 0.3359 0.22833 0.16771 0.0
C1234 C 0.33967 0.23118 0.1303 0.0
C1235 C 0.3357 0.27381 0.13014 0.0
H1236 H 0.34334 0.17623 0.14793 0.0
H1237 H 0.34318 0.21489 0.11608 0.0
S1238 S 0.32158 0.33931 0.17552 0.0
N1239 N 0.32621 0.29304 0.18502 0.0
N1240 N 0.32572 0.33436 0.15054 0.0
C1241 C 0.3314 0.29362 0.14897 0.0
C1242 C 0.33151 0.27103 0.1677 0.0
C1243 C -0.00119 0.08411 0.39174 0.0
C1244 C 0.96084 0.06487 0.39385 0.0
C1245 C 0.02731 0.08431 0.40772 0.0
C1246 C 0.01872 0.06567 0.42657 0.0
H1247 H 0.00634 0.09956 0.37762 0.0
H1248 H 0.05567 0.10032 0.4055 0.0
S1249 S 0.9243 0.00971 0.43965 0.0
N1250 N 0.91673 0.02569 0.41601 0.0
N1251 N 0.97005 0.02572 0.44606 0.0
C1252 C 0.98126 0.04533 0.42867 0.0
C1253 C 0.95241 0.04494 0.41232 0.0
C1254 C 0.17045 0.77578 0.6658 0.0
C1255 C 0.14036 0.76718 0.6804 0.0
C1256 C 0.17916 0.74844 0.64996 0.0
C1257 C 0.15776 0.71168 0.6479 0.0
H1258 H 0.18792 0.80356 0.66676 0.0
H1259 H 0.20258 0.75629 0.63908 0.0
S1260 S 0.0754 0.67487 0.68176 0.0
N1261 N 0.08849 0.71921 0.69143 0.0
N1262 N 0.10515 0.66809 0.66182 0.0
C1263 C 0.12726 0.70289 0.66221 0.0
C1264 C 0.11853 0.73053 0.67841 0.0
C1265 C 0.54592 0.90577 0.91523 0.0
C1266 C 0.53429 0.91166 0.89476 0.0
C1267 C 0.51707 0.89912 0.93057 0.0
C1268 C 0.47507 0.89815 0.92626 0.0
H1269 H 0.57772 0.90473 0.9194 0.0
H1270 H 0.5281 0.89415 0.94598 0.0
S1271 S 0.42813 0.91505 0.87535 0.0
N1272 N 0.47741 0.91883 0.87117 0.0
N1273 N 0.42324 0.90567 0.90002 0.0
C1274 C 0.46278 0.90537 0.90598 0.0
C1275 C 0.49231 0.91219 0.89026 0.0
C1276 C 0.33264 0.78416 0.38959 0.0
C1277 C 0.3666 0.7824 0.37666 0.0
C1278 C 0.3241 0.75254 0.40341 0.0
C1279 C 0.34894 0.71768 0.40475 0.0
H1280 H 0.31283 0.81046 0.38928 0.0
H1281 H 0.29825 0.75584 0.41343 0.0
S1282 S 0.43889 0.6959 0.37248 0.0
N1283 N 0.42373 0.74146 0.3651 0.0
N1284 N 0.407 0.68196 0.39058 0.0
C1285 C 0.38227 0.71498 0.39143 0.0
C1286 C 0.39122 0.74731 0.37751 0.0
C1287 C 0.4968 0.06225 0.62449 0.0
C1288 C 0.47807 0.0999 0.62102 0.0
C1289 C 0.52416 0.05673 0.64077 0.0
C1290 C 0.53373 0.08862 0.65436 0.0
H1291 H 0.49109 0.03716 0.6142 0.0
H1292 H 0.53854 0.02734 0.64236 0.0
S1293 S 0.49083 0.19321 0.6518 0.0
N1294 N 0.4704 0.16965 0.63207 0.0
N1295 N 0.51987 0.15917 0.66335 0.0
C1296 C 0.51426 0.1264 0.65112 0.0
C1297 C 0.48694 0.13204 0.6343 0.0
C1298 C 0.1399 0.27077 0.90712 0.0
C1299 C 0.15674 0.25026 0.92408 0.0
C1300 C 0.1385 0.25279 0.88773 0.0
C1301 C 0.15362 0.21332 0.88436 0.0
H1302 H 0.1263 0.30046 0.90891 0.0
H1303 H 0.12438 0.26972 0.87539 0.0
S1304 S 0.20448 0.14803 0.92312 0.0
N1305 N 0.19188 0.18946 0.93577 0.0
N1306 N 0.18839 0.15527 0.89948 0.0
C1307 C 0.1716 0.19285 0.90103 0.0
C1308 C 0.17336 0.21138 0.92079 0.0
C1309 C 0.96552 0.96991 0.14073 0.0
C1310 C 0.96082 0.93619 0.15389 0.0
C1311 C -0.00174 0.97274 0.12702 0.0
C1312 C 0.02758 0.94171 0.12553 0.0
H1313 H 0.9438 0.99457 0.14097 0.0
H1314 H 0.0004 -0.00056 0.11737 0.0
S1315 S 0.0309 0.84714 0.15643 0.0
N1316 N 0.99038 0.8714 0.16463 0.0
N1317 N 0.05009 0.87629 0.13838 0.0
C1318 C 0.02317 0.90761 0.13827 0.0
C1319 C 0.99034 0.90493 0.15252 0.0
C1320 C 0.66222 0.74274 0.89358 0.0
C1321 C 0.64653 0.70365 0.89687 0.0
C1322 C 0.64968 0.76629 0.8768 0.0
C1323 C 0.62151 0.75134 0.86243 0.0
H1324 H 0.68379 0.75549 0.90429 0.0
H1325 H 0.6627 0.79627 0.87494 0.0
S1326 S 0.5717 0.65036 0.86403 0.0
N1327 N 0.6015 0.65076 0.88437 0.0
N1328 N 0.57823 0.69479 0.85272 0.0
C1329 C 0.60579 0.7121 0.86548 0.0
C1330 C 0.61818 0.68834 0.88273 0.0
C1331 C 0.00021 0.92813 0.64961 0.0
C1332 C 0.0347 0.9038 0.65345 0.0
C1333 C 0.97391 0.92017 0.63309 0.0
C1334 C 0.9815 0.88799 0.61951 0.0
H1335 H 0.9934 0.95341 0.65956 0.0
H1336 H 0.94794 0.93986 0.63071 0.0
S1337 S 0.06751 0.81484 0.62293 0.0
N1338 N 0.07477 0.84601 0.64227 0.0
N1339 N 0.02568 0.83083 0.61149 0.0
C1340 C 0.01574 0.8632 0.62332 0.0
C1341 C 0.04222 0.87112 0.6402 0.0
C1342 C 0.9153 0.24343 0.39385 0.0
C1343 C 0.89223 0.23287 0.37662 0.0
C1344 C 0.901 0.272 0.40796 0.0
C1345 C 0.86347 0.29215 0.40517 0.0
H1346 H 0.94456 0.22926 0.39653 0.0
H1347 H 0.91973 0.2783 0.42117 0.0
S1348 S 0.79293 0.27684 0.36139 0.0
N1349 N 0.83049 0.24474 0.35717 0.0
N1350 N 0.80446 0.30013 0.38293 0.0
C1351 C 0.84024 0.28189 0.38778 0.0
C1352 C 0.85445 0.25194 0.3737 0.0
C1353 C 0.46329 0.07139 0.11451 0.0
C1354 C 0.5037 0.08324 0.11852 0.0
C1355 C 0.43478 0.06721 0.13028 0.0
C1356 C 0.44522 0.0758 0.15058 0.0
H1357 H 0.4535 0.0653 0.09901 0.0
H1358 H 0.40407 0.0581 0.12655 0.0
S1359 S 0.54638 0.1069 0.16967 0.0
N1360 N 0.55272 0.10164 0.1448 0.0
N1361 N 0.49827 0.09595 0.17415 0.0
C1362 C 0.48527 0.08743 0.15494 0.0
C1363 C 0.51476 0.09049 0.13898 0.0
C1364 C 0.6856 0.24343 0.6459 0.0
C1365 C 0.66529 0.28089 0.64387 0.0
C1366 C 0.678 0.21739 0.66252 0.0
C1367 C 0.6503 0.2282 0.67791 0.0
H1368 H 0.70717 0.234 0.6344 0.0
H1369 H 0.69447 0.18894 0.66348 0.0
S1370 S 0.58919 0.3232 0.67968 0.0
N1371 N 0.61646 0.32757 0.65869 0.0
N1372 N 0.60187 0.2789 0.68974 0.0
C1373 C 0.6297 0.26561 0.67598 0.0
C1374 C 0.63725 0.29188 0.65902 0.0
C1375 C 0.51062 0.91924 0.3864 0.0
C1376 C 0.46768 0.91938 0.38633 0.0
C1377 C 0.53321 0.91447 0.4045 0.0
C1378 C 0.51406 0.90953 0.42348 0.0
H1379 H 0.52739 0.92134 0.3723 0.0
H1380 H 0.566 0.91326 0.40345 0.0
S1381 S 0.4031 0.91706 0.43287 0.0
N1382 N 0.4075 0.92149 0.40788 0.0
N1383 N 0.44976 0.91103 0.4416 0.0
C1384 C 0.47137 0.91251 0.42396 0.0
C1385 C 0.44829 0.91784 0.40553 0.0
C1386 C 0.91169 0.75632 0.16203 0.0
C1387 C 0.88577 0.77219 0.17697 0.0
C1388 C 0.89713 0.72945 0.14714 0.0
C1389 C 0.85622 0.71661 0.14684 0.0
H1390 H 0.94332 0.76528 0.16162 0.0
H1391 H 0.91816 0.71911 0.1356 0.0
S1392 S 0.77712 0.7468 0.18421 0.0
N1393 N 0.8179 0.77224 0.19133 0.0
N1394 N 0.7908 0.72037 0.16397 0.0
C1395 C 0.83021 0.73179 0.16208 0.0
C1396 C 0.84494 0.75983 0.177 0.0
C1397 C 0.00648 0.11102 0.92716 0.0
C1398 C 0.96746 0.09329 0.92613 0.0
C1399 C 0.03522 0.10563 0.91156 0.0
C1400 C 0.02651 0.08184 0.89434 0.0
H1401 H 0.01516 0.1293 0.94017 0.0
H1402 H 0.0648 0.1196 0.91317 0.0
S1403 S 0.9285 0.03114 0.8831 0.0
N1404 N 0.92133 0.05259 0.90557 0.0
N1405 N 0.97555 0.04223 0.87649 0.0
C1406 C 0.98761 0.06442 0.89286 0.0
C1407 C 0.95809 0.07023 0.90865 0.0
C1408 C 0.89903 0.77363 0.65022 0.0
C1409 C 0.85722 0.78006 0.64639 0.0
C1410 C 0.91266 0.75165 0.66733 0.0
C1411 C 0.88512 0.73423 0.6811 0.0
H1412 H 0.92169 0.78513 0.63979 0.0
H1413 H 0.94502 0.74748 0.66955 0.0
S1414 S 0.77303 0.74314 0.67926 0.0
N1415 N 0.78863 0.76864 0.65902 0.0
N1416 N 0.81448 0.72546 0.69042 0.0
C1417 C 0.84343 0.74006 0.67761 0.0
C1418 C 0.82943 0.76334 0.66046 0.0
C1419 C 0.45585 0.61609 0.90623 0.0
C1420 C 0.46724 0.58966 0.89047 0.0
C1421 C 0.48098 0.62203 0.92334 0.0
C1422 C 0.51892 0.60229 0.92527 0.0
H1423 H 0.42679 0.63149 0.90557 0.0
H1424 H 0.4704 0.64239 0.93515 0.0
S1425 S 0.56405 0.53247 0.88712 0.0
N1426 N 0.51959 0.5451 0.87722 0.0
N1427 N 0.56724 0.55665 0.90913 0.0
C1428 C 0.53114 0.57667 0.90924 0.0
C1429 C 0.5052 0.57022 0.89194 0.0
C1430 C 0.5919 0.2211 0.14215 0.0
C1431 C 0.63153 0.20472 0.14341 0.0
C1432 C 0.57719 0.2484 0.15676 0.0
C1433 C 0.6018 0.26139 0.17297 0.0
H1434 H 0.57192 0.21307 0.12966 0.0
H1435 H 0.54649 0.25991 0.15519 0.0
S1436 S 0.70667 0.22683 0.18436 0.0
N1437 N 0.69417 0.20238 0.16328 0.0
N1438 N 0.66705 0.25534 0.19007 0.0
C1439 C 0.64145 0.24577 0.17449 0.0
C1440 C 0.65622 0.21713 0.15988 0.0
C1441 C 0.00562 0.47722 0.42095 0.0
C1442 C 0.97248 0.45052 0.41965 0.0
C1443 C 0.03983 0.4725 0.40841 0.0
C1444 C 0.04225 0.44121 0.39378 0.0
H1445 H 0.00544 0.50168 0.43197 0.0
H1446 H 0.06465 0.49365 0.4103 0.0
S1447 S 0.96199 0.36458 0.3835 0.0
N1448 N 0.94353 0.39227 0.40228 0.0
N1449 N 0.00703 0.38395 0.37834 0.0
C1450 C 0.00903 0.41437 0.39227 0.0
C1451 C 0.97439 0.41894 0.40526 0.0
C1452 C 0.81203 0.23413 0.89647 0.0
C1453 C 0.83231 0.19657 0.898 0.0
C1454 C 0.82404 0.26369 0.88216 0.0
C1455 C 0.85641 0.2565 0.86863 0.0
H1456 H 0.78716 0.24093 0.90669 0.0
H1457 H 0.80743 0.29209 0.88148 0.0
S1458 S 0.91889 0.16241 0.86627 0.0
N1459 N 0.88582 0.15351 0.88462 0.0
N1460 N 0.90858 0.20861 0.85784 0.0
C1461 C 0.87679 0.21885 0.87 0.0
C1462 C 0.86472 0.18902 0.88464 0.0
C1463 C 0.01824 0.61506 0.12354 0.0
C1464 C 0.97998 0.59576 0.12351 0.0
C1465 C 0.04501 0.61162 0.14019 0.0
C1466 C 0.03507 0.58808 0.15737 0.0
H1467 H 0.0277 0.63318 0.11057 0.0
H1468 H 0.07415 0.62672 0.13943 0.0
S1469 S 0.93848 0.53267 0.16557 0.0
N1470 N 0.93315 0.55343 0.14271 0.0
N1471 N 0.9839 0.54634 0.17381 0.0
C1472 C 0.99688 0.56895 0.15773 0.0
C1473 C 0.96922 0.57302 0.14089 0.0
C1474 C 0.6479 0.74634 0.39537 0.0
C1475 C 0.63177 0.78554 0.39815 0.0
C1476 C 0.63546 0.72171 0.37901 0.0
C1477 C 0.60643 0.73526 0.36462 0.0
H1478 H 0.66998 0.73439 0.40611 0.0
H1479 H 0.64879 0.69174 0.37768 0.0
S1480 S 0.5563 0.8363 0.3644 0.0
N1481 N 0.58632 0.83731 0.38463 0.0
N1482 N 0.56255 0.79107 0.35415 0.0
C1483 C 0.59014 0.77447 0.36722 0.0
C1484 C 0.60286 0.79956 0.38388 0.0
C1485 C 0.48715 0.36585 0.62085 0.0
C1486 C 0.5253 0.3854 0.62008 0.0
C1487 C 0.46077 0.37084 0.6375 0.0
C1488 C 0.47104 0.39617 0.65392 0.0
H1489 H 0.47731 0.34658 0.60842 0.0
H1490 H 0.43159 0.35573 0.63726 0.0
S1491 S 0.56799 0.45178 0.66049 0.0
N1492 N 0.57271 0.42912 0.63815 0.0
N1493 N 0.52269 0.43902 0.66914 0.0
C1494 C 0.5093 0.4151 0.65368 0.0
C1495 C 0.53653 0.40954 0.63688 0.0
C1496 C 0.17523 0.20163 0.38336 0.0
C1497 C 0.1638 0.20829 0.40375 0.0
C1498 C 0.17132 0.23207 0.3685 0.0
C1499 C 0.15638 0.27098 0.37332 0.0
H1500 H 0.18655 0.1722 0.37871 0.0
H1501 H 0.1801 0.2249 0.35299 0.0
S1502 S 0.12276 0.30469 0.42453 0.0
N1503 N 0.13712 0.25704 0.4281 0.0
N1504 N 0.13028 0.31469 0.40007 0.0
C1505 C 0.14538 0.27851 0.3937 0.0
C1506 C 0.1488 0.24705 0.4089 0.0
C1507 C 0.53817 0.43065 0.1315 0.0
C1508 C 0.52635 0.41929 0.15127 0.0
C1509 C 0.51324 0.42231 0.11457 0.0
C1510 C 0.47516 0.40316 0.1168 0.0
H1511 H 0.56772 0.44414 0.12902 0.0
H1512 H 0.52431 0.43012 0.09951 0.0
S1513 S 0.42939 0.37009 0.16573 0.0
N1514 N 0.47359 0.38971 0.17237 0.0
N1515 N 0.42637 0.375 0.14066 0.0
C1516 C 0.46222 0.39356 0.13664 0.0
C1517 C 0.48795 0.40134 0.15383 0.0
C1518 C 0.35892 0.79078 0.88554 0.0
C1519 C 0.33178 0.78052 0.9012 0.0
C1520 C 0.3667 0.76391 0.86947 0.0
C1521 C 0.34814 0.72536 0.86857 0.0
H1522 H 0.37372 0.82013 0.88555 0.0
H1523 H 0.38752 0.77359 0.85765 0.0
S1524 S 0.27647 0.68311 0.90673 0.0
N1525 N 0.2875 0.72883 0.91542 0.0
N1526 N 0.30229 0.67798 0.88531 0.0
C1527 C 0.32157 0.71439 0.88444 0.0
C1528 C 0.31328 0.74207 0.90069 0.0
C1529 C 0.98851 0.62625 0.62464 0.0
C1530 C 0.02261 0.60107 0.6216 0.0
C1531 C 0.96116 0.6191 0.64061 0.0
C1532 C 0.96618 0.58597 0.65395 0.0
H1533 H 0.98307 0.65214 0.61475 0.0
H1534 H 0.9357 0.6396 0.64252 0.0
S1535 S 0.05021 0.51101 0.65294 0.0
N1536 N 0.05999 0.54181 0.6336 0.0
N1537 N 0.00793 0.52806 0.66342 0.0
C1538 C -0.00014 0.56036 0.65111 0.0
C1539 C 0.02827 0.56805 0.63503 0.0
C1540 C 0.12779 0.77286 0.17396 0.0
C1541 C 0.14741 0.73469 0.17438 0.0
C1542 C 0.13266 0.79988 0.15757 0.0
C1543 C 0.15735 0.79008 0.14093 0.0
H1544 H 0.10874 0.78235 0.18653 0.0
H1545 H 0.11806 0.82928 0.15816 0.0
S1546 S 0.21503 0.69452 0.13392 0.0
N1547 N 0.19219 0.68851 0.15617 0.0
N1548 N 0.20138 0.73989 0.12544 0.0
C1549 C 0.17695 0.75217 0.1409 0.0
C1550 C 0.17179 0.72427 0.15754 0.0
C1551 C -0.00031 0.35666 0.89215 0.0
C1552 C 0.97856 0.3936 0.8944 0.0
C1553 C 0.0303 0.34486 0.90591 0.0
C1554 C 0.04154 0.3696 0.92248 0.0
H1555 H 0.99239 0.33644 0.87966 0.0
H1556 H 0.04473 0.31558 0.90379 0.0
S1557 S 0.99573 0.46917 0.93555 0.0
N1558 N 0.97114 0.45484 0.91477 0.0
N1559 N 0.0292 0.43296 0.94035 0.0
C1560 C 0.02159 0.40717 0.92465 0.0
C1561 C 0.99001 0.41908 0.91071 0.0
C1562 C 0.32256 0.24263 0.64629 0.0
C1563 C 0.33961 0.20356 0.64514 0.0
C1564 C 0.3309 0.26826 0.66287 0.0
C1565 C 0.35608 0.25547 0.6791 0.0
H1566 H 0.30318 0.25365 0.63407 0.0
H1567 H 0.31713 0.29816 0.66303 0.0
S1568 S 0.40686 0.15485 0.68358 0.0
N1569 N 0.38196 0.15276 0.66169 0.0
N1570 N 0.39765 0.20045 0.69292 0.0
C1571 C 0.37304 0.21615 0.67815 0.0
C1572 C 0.36483 0.19033 0.66116 0.0
C1573 C 0.48297 0.56518 0.41577 0.0
C1574 C 0.4869 0.59935 0.42851 0.0
C1575 C 0.51073 0.55796 0.39984 0.0
C1576 C 0.54275 0.58511 0.39589 0.0
H1577 H 0.45874 0.54357 0.41835 0.0
H1578 H 0.50665 0.53156 0.39024 0.0
S1579 S 0.56561 0.67955 0.42436 0.0
N1580 N 0.52517 0.66074 0.43584 0.0
N1581 N 0.5766 0.6474 0.40588 0.0
C1582 C 0.54671 0.61945 0.4084 0.0
C1583 C 0.51898 0.6265 0.42471 0.0
C1584 C 0.44243 0.29268 0.26458 0.0
C1585 C 0.48506 0.29224 0.26479 0.0
C1586 C 0.42072 0.25627 0.26362 0.0
C1587 C 0.44131 0.21892 0.26257 0.0
H1588 H 0.4262 0.32105 0.26248 0.0
H1589 H 0.38831 0.25767 0.26073 0.0
S1590 S 0.55161 0.20137 0.26775 0.0
N1591 N 0.54636 0.25123 0.26829 0.0
N1592 N 0.50515 0.18295 0.26586 0.0
C1593 C 0.48316 0.21792 0.26602 0.0
C1594 C 0.50526 0.2548 0.26733 0.0
C1595 C 0.02761 0.2969 0.50808 0.0
C1596 C 0.98504 0.29393 0.50774 0.0
C1597 C 0.0517 0.26192 0.5074 0.0
C1598 C 0.03358 0.22348 0.5062 0.0
H1599 H 0.04211 0.32619 0.50624 0.0
H1600 H 0.08414 0.26522 0.50523 0.0
S1601 S 0.92405 0.19981 0.5094 0.0
N1602 N 0.92619 0.24991 0.50998 0.0
N1603 N 0.97163 0.18404 0.5083 0.0
C1604 C 0.9915 0.22012 0.50875 0.0
C1605 C 0.96706 0.25561 0.50971 0.0
C1606 C 0.0587 0.70319 0.76618 0.0
C1607 C 0.01681 0.69794 0.76893 0.0
C1608 C 0.07591 0.74185 0.76762 0.0
C1609 C 0.05133 0.776 0.77136 0.0
H1610 H 0.07711 0.67845 0.76044 0.0
H1611 H 0.10715 0.74573 0.7628 0.0
S1612 S 0.94259 0.77662 0.78478 0.0
N1613 N 0.95321 0.72853 0.7801 0.0
N1614 N 0.98572 0.80143 0.78188 0.0
C1615 C 0.01108 0.77021 0.77726 0.0
C1616 C 0.99368 0.73085 0.77627 0.0
C1617 C 0.53154 0.76564 1.01567 0.0
C1618 C 0.52892 0.72329 1.01374 0.0
C1619 C 0.49633 0.78946 1.01573 0.0
C1620 C 0.45798 0.77136 1.0134 0.0
H1621 H 0.56074 0.78059 1.01455 0.0
H1622 H 0.49948 0.82217 1.01461 0.0
S1623 S 0.43524 0.66145 1.01255 0.0
N1624 N 0.48529 0.66391 1.01361 0.0
N1625 N 0.41901 0.70896 1.01304 0.0
C1626 C 0.45492 0.72899 1.01454 0.0
C1627 C 0.49066 0.70475 1.01487 0.0
C1628 C 0.4092 0.71035 0.27673 0.0
C1629 C 0.42645 0.74963 0.27747 0.0
C1630 C 0.43386 0.67578 0.278 0.0
C1631 C 0.47615 0.6797 0.27823 0.0
H1632 H 0.37669 0.70635 0.27821 0.0
H1633 H 0.41994 0.64659 0.28101 0.0
S1634 S 0.53589 0.77376 0.27116 0.0
N1635 N 0.48833 0.7892 0.27268 0.0
N1636 N 0.53397 0.72379 0.27253 0.0
C1637 C 0.49325 0.71778 0.27396 0.0
C1638 C 0.46846 0.75313 0.27395 0.0
C1639 C 0.5364 0.23278 0.52651 0.0
C1640 C 0.53339 0.27464 0.53018 0.0
C1641 C 0.50169 0.20836 0.52692 0.0
C1642 C 0.46355 0.22535 0.53136 0.0
H1643 H 0.56593 0.2183 0.52595 0.0
H1644 H 0.50558 0.17567 0.52664 0.0
S1645 S 0.43924 0.33424 0.53756 0.0
N1646 N 0.48901 0.33282 0.53469 0.0
N1647 N 0.4237 0.28676 0.53549 0.0
C1648 C 0.4596 0.26769 0.53191 0.0
C1649 C 0.49478 0.29252 0.53133 0.0
C1650 C 0.04524 0.25272 0.78123 0.0
C1651 C 0.03007 0.2141 0.78617 0.0
C1652 C 0.01878 0.28564 0.77882 0.0
C1653 C 0.97681 0.28035 0.78139 0.0
H1654 H 0.07751 0.25867 0.78216 0.0
H1655 H 0.03147 0.31597 0.77821 0.0
S1656 S 0.92236 0.18324 0.7887 0.0
N1657 N 0.97095 0.1707 0.78913 0.0
N1658 N 0.92097 0.23266 0.78431 0.0
C1659 C 0.96127 0.24075 0.78252 0.0
C1660 C 0.98815 0.20739 0.78522 0.0
C1661 C 0.94618 0.7673 0.03397 0.0
C1662 C 0.95843 0.72647 0.03394 0.0
C1663 C 0.97509 0.79819 0.03488 0.0
C1664 C 0.01667 0.78877 0.03536 0.0
H1665 H 0.91462 0.77505 0.03654 0.0
H1666 H 0.96489 0.8288 0.03806 0.0
S1667 S 0.06333 0.6872 0.0301 0.0
N1668 N 0.01393 0.67856 0.03022 0.0
N1669 N 0.06858 0.73701 0.03158 0.0
C1670 C 0.029 0.74871 0.0318 0.0
C1671 C -0.00044 0.71724 0.03102 0.0
C1672 C 0.47108 0.74117 0.77016 0.0
C1673 C 0.43224 0.7327 0.77767 0.0
C1674 C 0.48789 0.77973 0.77282 0.0
C1675 C 0.46665 0.80968 0.78377 0.0
H1676 H 0.49044 0.71671 0.76492 0.0
H1677 H 0.51983 0.78373 0.76943 0.0
S1678 S 0.36006 0.80526 0.80086 0.0
N1679 N 0.36926 0.75981 0.7913 0.0
N1680 N 0.40222 0.83161 0.79768 0.0
C1681 C 0.42557 0.80363 0.78801 0.0
C1682 C 0.40793 0.76494 0.78458 0.0
C1683 C 0.0085 0.78647 0.52875 0.0
C1684 C 0.96985 0.76877 0.53036 0.0
C1685 C 0.04336 0.76219 0.52927 0.0
C1686 C 0.04006 0.71982 0.53104 0.0
H1687 H 0.01203 0.81908 0.53013 0.0
H1688 H 0.07264 0.77673 0.53103 0.0
S1689 S 0.94556 0.65919 0.52973 0.0
N1690 N 0.93001 0.70693 0.5293 0.0
N1691 N 0.99567 0.66102 0.52975 0.0
C1692 C 0.00168 0.70182 0.52893 0.0
C1693 C 0.96628 0.72652 0.52873 0.0
C1694 C 0.04925 0.21156 0.28651 0.0
C1695 C 0.00676 0.20933 0.28512 0.0
C1696 C 0.06864 0.24927 0.28724 0.0
C1697 C 0.04587 0.28541 0.28683 0.0
H1698 H 0.06699 0.18437 0.28939 0.0
H1699 H 0.1008 0.2501 0.2908 0.0
S1700 S 0.93551 0.29605 0.27857 0.0
N1701 N 0.94359 0.24656 0.27934 0.0
N1702 N 0.98055 0.31727 0.28129 0.0
C1703 C 0.00442 0.28364 0.28255 0.0
C1704 C 0.98465 0.24541 0.28149 0.0
C1705 C 0.50793 0.21365 1.02019 0.0
C1706 C 0.54721 0.22166 0.02749 0.0
C1707 C 0.47953 0.24511 1.01849 0.0
C1708 C 0.49019 0.28494 0.02392 0.0
H1709 H 0.49739 0.1826 1.01887 0.0
H1710 H 0.44796 0.23734 1.01595 0.0
S1711 S 0.59237 0.32228 0.03772 0.0
N1712 N 0.59789 0.27261 0.03543 0.0
N1713 N 0.54444 0.33202 0.03197 0.0
C1714 C 0.53115 0.29407 0.02738 0.0
C1715 C 0.55991 0.26209 0.02927 0.0
C1716 C 0.5164 0.28255 0.77217 0.0
C1717 C 0.4744 0.27711 0.76978 0.0
C1718 C 0.54256 0.24909 0.77176 0.0
C1719 C 0.52706 0.20986 0.76865 0.0
H1720 H 0.52932 0.31275 0.77129 0.0
H1721 H 0.57493 0.25456 0.77071 0.0
S1722 S 0.41908 0.17959 0.76744 0.0
N1723 N 0.41812 0.22963 0.7692 0.0
N1724 N 0.46757 0.16662 0.76781 0.0
C1725 C 0.48509 0.20372 0.76987 0.0
C1726 C 0.4585 0.23766 0.77066 0.0
C1727 C 0.48855 0.79189 0.51963 0.0
C1728 C 0.52878 0.77871 0.51707 0.0
C1729 C 0.45692 0.76366 0.52054 0.0
C1730 C 0.46517 0.72191 0.51906 0.0
H1731 H 0.48097 0.82374 0.51775 0.0
H1732 H 0.42596 0.77459 0.51922 0.0
S1733 S 0.56621 0.67287 0.51845 0.0
N1734 N 0.5759 0.72208 0.51781 0.0
N1735 N 0.51632 0.66881 0.51997 0.0
C1736 C 0.50556 0.70867 0.52051 0.0
C1737 C 0.53766 0.73733 0.51931 0.0
C1738 C 0.99656 0.78435 0.26946 0.0
C1739 C 0.01702 0.81881 0.26184 0.0
C1740 C 0.0159 0.74664 0.27039 0.0
C1741 C 0.05634 0.74274 0.26424 0.0
H1742 H 0.9641 0.78516 0.27208 0.0
H1743 H -0.00206 0.71983 0.27361 0.0
S1744 S 0.12581 0.82525 0.2484 0.0
N1745 N 0.08163 0.84804 0.25189 0.0
N1746 N 0.1185 0.77697 0.25423 0.0
C1747 C 0.07877 0.77789 0.25976 0.0
C1748 C 0.0589 0.81617 0.25842 0.0
C1749 C 0.90148 0.26005 1.0176 0.0
C1750 C 0.91203 0.21879 1.01857 0.0
C1751 C 0.93158 0.28982 1.01869 0.0
C1752 C 0.97278 0.27869 1.02021 0.0
H1753 H 0.87108 0.26898 1.01304 0.0
H1754 H 0.92309 0.32104 1.01557 0.0
S1755 S 0.01267 0.17484 0.03049 0.0
N1756 N 0.96337 0.16882 0.02731 0.0
N1757 N 0.02067 0.22411 0.02829 0.0
C1758 C 0.98222 0.23805 0.02526 0.0
C1759 C 0.95133 0.20806 0.02475 0.0
C1760 C 0.29979 0.99151 0.27538 0.0
C1761 C 0.33151 0.97271 0.28645 0.0
C1762 C 0.30762 0.01622 0.25822 0.0
C1763 C 0.34753 0.02318 0.25135 0.0
H1764 H 0.26852 0.98701 0.27991 0.0
H1765 H 0.28213 0.03013 0.25036 0.0
S1766 S 0.44169 0.98255 0.27551 0.0
N1767 N 0.40454 0.96436 0.28963 0.0
N1768 N 0.4193 0.00953 0.25744 0.0
C1769 C 0.37951 0.00457 0.26233 0.0
C1770 C 0.37151 0.97973 0.27983 0.0
C1771 C 0.26915 0.16466 0.52528 0.0
C1772 C 0.27888 0.12955 0.53664 0.0
C1773 C 0.24443 0.16298 0.50791 0.0
C1774 C 0.22774 0.12614 0.50104 0.0
H1775 H 0.28094 0.19405 0.5297 0.0
H1776 H 0.238 0.1912 0.49999 0.0
S1777 S 0.24402 0.02495 0.52502 0.0
N1778 N 0.27031 0.0564 0.53953 0.0
N1779 N 0.22315 0.05324 0.50693 0.0
C1780 C 0.23724 0.09056 0.51215 0.0
C1781 C 0.26291 0.09225 0.52989 0.0
C1782 C 0.15137 0.97873 0.77052 0.0
C1783 C 0.12154 0.98193 0.7551 0.0
C1784 C 0.15045 0.00423 0.78781 0.0
C1785 C 0.11949 0.0334 0.79022 0.0
H1786 H 0.17418 0.95504 0.76976 0.0
H1787 H 0.17288 -0.00016 0.79974 0.0
S1788 S 0.03907 0.05864 0.75234 0.0
N1789 N 0.06372 0.02006 0.74215 0.0
N1790 N 0.06188 0.06755 0.77434 0.0
C1791 C 0.09135 0.03856 0.7742 0.0
C1792 C 0.0924 0.01293 0.75673 0.0
C1793 C 0.22749 0.83204 0.03232 0.0
C1794 C 0.21491 0.86955 0.04041 0.0
C1795 C 0.25287 0.82981 1.0153 0.0
C1796 C 0.26738 0.86496 1.00547 0.0
H1797 H 0.21752 0.80371 0.03908 0.0
H1798 H 0.26138 0.79989 1.00997 0.0
S1799 S 0.24385 0.97112 1.02043 0.0
N1800 N 0.21886 0.94308 0.03714 0.0
N1801 N 0.26724 0.93888 1.00516 0.0
C1802 C 0.2552 0.90289 1.01331 0.0
C1803 C 0.2289 0.90518 0.03074 0.0
C1804 C 0.58449 0.00605 0.7919 0.0
C1805 C 0.61509 0.97695 0.79529 0.0
C1806 C 0.58457 0.03077 0.77453 0.0
C1807 C 0.6156 0.02809 0.75989 0.0
H1808 H 0.55938 0.00908 0.80244 0.0
H1809 H 0.5599 0.05229 0.77262 0.0
S1810 S 0.70428 0.95876 0.76202 0.0
N1811 N 0.67819 0.94771 0.78283 0.0
N1812 N 0.67885 0.99537 0.75028 0.0
C1813 C 0.64725 0.0002 0.76333 0.0
C1814 C 0.64679 0.97428 0.78095 0.0
C1815 C 0.73655 0.81992 0.5106 0.0
C1816 C 0.71887 0.85656 0.50388 0.0
C1817 C 0.76432 0.81872 0.52684 0.0
C1818 C 0.7761 0.8541 0.53738 0.0
H1819 H 0.72884 0.79146 0.50331 0.0
H1820 H 0.77668 0.78937 0.53108 0.0
S1821 S 0.73862 0.95831 0.5261 0.0
N1822 N 0.71507 0.92955 0.50919 0.0
N1823 N 0.76742 0.92731 0.53979 0.0
C1824 C 0.75878 0.89119 0.53085 0.0
C1825 C 0.73029 0.89242 0.51412 0.0
C1826 C 0.87253 0.99152 0.29415 0.0
C1827 C 0.86594 0.0334 0.29148 0.0
C1828 C 0.87125 0.96474 0.27756 0.0
C1829 C 0.86436 0.97909 0.25762 0.0
H1830 H 0.88122 0.9797 0.30901 0.0
H1831 H 0.87905 0.93327 0.28024 0.0
S1832 S 0.84104 0.08524 0.2427 0.0
N1833 N 0.84761 0.08725 0.2677 0.0
N1834 N 0.84753 0.03716 0.23629 0.0
C1835 C 0.85505 0.0204 0.2549 0.0
C1836 C 0.85515 0.04754 0.27193 0.0
C1837 C 0.75123 0.15213 1.01371 0.0
C1838 C 0.75745 0.11583 1.00281 0.0
C1839 C 0.7299 0.1529 0.03212 0.0
C1840 C 0.71308 0.1175 0.04066 0.0
H1841 H 0.76319 0.18069 1.00812 0.0
H1842 H 0.72609 0.18205 0.0395 0.0
S1843 S 0.72136 0.01386 1.01873 0.0
N1844 N 0.74613 0.04291 1.00235 0.0
N1845 N 0.7049 0.0444 0.0369 0.0
C1846 C 0.71949 0.0806 0.0302 0.0
C1847 C 0.74187 0.07977 1.01134 0.0
C1848 C 0.91908 0.48877 0.76058 0.0
C1849 C 0.89056 0.52037 0.75836 0.0
C1850 C 0.91842 0.46261 0.77739 0.0
C1851 C 0.88892 0.46633 0.79272 0.0
H1852 H 0.94312 0.4847 0.74952 0.0
H1853 H 0.94171 0.4394 0.77845 0.0
S1854 S 0.80506 0.54147 0.79364 0.0
N1855 N 0.83026 0.55244 0.77254 0.0
N1856 N 0.82864 0.50217 0.8041 0.0
C1857 C 0.85873 0.4962 0.7903 0.0
C1858 C 0.85964 0.52347 0.77314 0.0
C1859 C 0.76481 0.67344 0.03229 0.0
C1860 C 0.7758 0.63702 0.04226 0.0
C1861 C 0.73974 0.67377 1.015 0.0
C1862 C 0.72392 0.63774 1.00667 0.0
H1863 H 0.77582 0.70241 0.03777 0.0
H1864 H 0.73253 0.70298 1.00823 0.0
S1865 S 0.743 0.53372 0.02676 0.0
N1866 N 0.76893 0.56347 0.04232 0.0
N1867 N 0.72116 0.56412 1.00985 0.0
C1868 C 0.73456 0.60085 1.01638 0.0
C1869 C 0.76052 0.60049 0.03411 0.0
C1870 C 0.60235 0.47808 0.29232 0.0
C1871 C 0.62044 0.51669 0.29095 0.0
C1872 C 0.60183 0.45151 0.27567 0.0
C1873 C 0.61965 0.46224 0.25697 0.0
H1874 H 0.58642 0.46909 0.30606 0.0
H1875 H 0.58516 0.42336 0.27713 0.0
S1876 S 0.67377 0.55816 0.24563 0.0
N1877 N 0.65924 0.56312 0.26963 0.0
N1878 N 0.65793 0.5129 0.23823 0.0
C1879 C 0.64001 0.49959 0.25565 0.0
C1880 C 0.64069 0.52682 0.27271 0.0
C1881 C 0.77233 0.33312 0.51092 0.0
C1882 C 0.78505 0.37108 0.50335 0.0
C1883 C 0.74567 0.3299 0.52744 0.0
C1884 C 0.72998 0.36445 0.53731 0.0
H1885 H 0.78316 0.30521 0.50412 0.0
H1886 H 0.73718 0.29966 0.53238 0.0
S1887 S 0.75322 0.47146 0.52361 0.0
N1888 N 0.77977 0.44441 0.50715 0.0
N1889 N 0.72916 0.43832 0.53817 0.0
C1890 C 0.74225 0.40281 0.52997 0.0
C1891 C 0.76979 0.40613 0.51304 0.0
C1892 C 0.16047 0.50834 0.26376 0.0
C1893 C 0.13241 0.54065 0.26285 0.0
C1894 C 0.16215 0.48225 0.28095 0.0
C1895 C 0.136 0.48798 0.29772 0.0
H1896 H 0.17961 0.50193 0.25074 0.0
H1897 H 0.18232 0.45624 0.2806 0.0
S1898 S 0.06294 0.57277 0.30432 0.0
N1899 N 0.08208 0.57998 0.28134 0.0
N1900 N 0.08541 0.5316 0.31334 0.0
C1901 C 0.1102 0.522 0.2975 0.0
C1902 C 0.10836 0.54817 0.28014 0.0
C1903 C 0.26607 0.41224 0.02485 0.0
C1904 C 0.29258 0.37995 1.02042 0.0
C1905 C 0.23173 0.41985 1.01268 0.0
C1906 C 0.22263 0.3957 0.99556 0.0
H1907 H 0.27027 0.43016 0.03854 0.0
H1908 H 0.20999 0.44229 1.01787 0.0
S1909 S 0.28587 0.31251 0.975 0.0
N1910 N 0.31043 0.32764 0.99564 0.0
N1911 N 0.24536 0.34192 0.97321 0.0
C1912 C 0.25098 0.36632 0.98967 0.0
C1913 C 0.286 0.35833 1.00205 0.0
C1914 C 0.3503 0.49528 0.78497 0.0
C1915 C 0.38018 0.52562 0.78662 0.0
C1916 C 0.35092 0.46735 0.76869 0.0
C1917 C 0.38135 0.46918 0.75364 0.0
H1918 H 0.32753 0.49199 0.79675 0.0
H1919 H 0.3288 0.44304 0.76846 0.0
S1920 S 0.46134 0.54768 0.74891 0.0
N1921 N 0.43727 0.55921 0.77019 0.0
N1922 N 0.43847 0.50686 0.73997 0.0
C1923 C 0.40946 0.50108 0.75442 0.0
C1924 C 0.40885 0.5293 0.77082 0.0
C1925 C 0.24022 0.66996 0.53246 0.0
C1926 C 0.2289 0.63388 0.54251 0.0
C1927 C 0.26516 0.66958 0.51526 0.0
C1928 C 0.28052 0.63312 0.50717 0.0
H1929 H 0.22955 0.6992 0.53777 0.0
H1930 H 0.27266 0.69856 0.50838 0.0
S1931 S 0.26022 0.52975 0.52755 0.0
N1932 N 0.23474 0.56019 0.54292 0.0
N1933 N 0.28243 0.55951 0.51059 0.0
C1934 C 0.26949 0.59655 0.51694 0.0
C1935 C 0.2436 0.59692 0.53457 0.0
loop_
_geom_bond_atom_site_label_1
_geom_bond_atom_site_label_2
_geom_bond_distance
_geom_bond_site_symmetry_2
_ccdc_geom_bond_type
C0 C1 1.351 . S
C0 N3 1.368 . S
C0 H5 0.931 . S
C1 C0 1.351 . S
C1 N2 1.373 . S
C1 H29 0.930 . S
N2 C1 1.373 . S
N2 C4 1.340 . S
N3 C0 1.368 . S
N3 C4 1.321 . S
N3 Co6 2.135 . S
C4 N2 1.340 . S
C4 N3 1.321 . S
C4 H28 0.930 . S
H5 C0 0.931 . S
Co6 N3 2.135 . S
Co6 N9 2.121 . S
Co6 O14 2.055 . S
Co6 O17 2.039 . S
Co6 N20 2.140 . S
C7 O8 1.227 . S
C7 O17 1.265 . S
O8 C7 1.227 . S
N9 Co6 2.121 . S
N9 C11 1.375 . S
N9 C12 1.313 . S
C10 C11 1.338 . S
C10 N13 1.377 . S
C10 H30 0.930 . S
C11 N9 1.375 . S
C11 C10 1.338 . S
C11 H15 0.931 . S
C12 N9 1.313 . S
C12 N13 1.344 . S
C12 H16 0.930 . S
N13 C10 1.377 . S
N13 C12 1.344 . S
O14 Co6 2.055 . S
O14 C18 1.253 . S
H15 C11 0.931 . S
H16 C12 0.930 . S
O17 Co6 2.039 . S
O17 C7 1.265 . S
C18 O14 1.253 . S
C18 O19 1.227 . S
O19 C18 1.227 . S
N20 Co6 2.140 . S
N20 C23 1.346 . S
N20 C24 1.345 . S
C21 C22 1.387 . S
C21 C25 1.391 . S
C22 C21 1.387 . S
C22 C23 1.369 . S
C22 H31 0.929 . S
C23 N20 1.346 . S
C23 C22 1.369 . S
C23 H26 0.928 . S
C24 N20 1.345 . S
C24 C25 1.371 . S
C24 H27 0.931 . S
C25 C21 1.391 . S
C25 C24 1.371 . S
C25 H32 0.930 . S
H26 C23 0.928 . S
H27 C24 0.931 . S
H28 C4 0.930 . S
H29 C1 0.930 . S
H30 C10 0.930 . S
H31 C22 0.929 . S
H32 C25 0.930 . S
C33 C34 1.351 . S
C33 N36 1.368 . S
C33 H38 0.931 . S
C34 C33 1.351 . S
C34 N35 1.373 . S
C34 H62 0.930 . S
N35 C34 1.373 . S
N35 C37 1.340 . S
N36 C33 1.368 . S
N36 C37 1.321 . S
N36 Co39 2.135 . S
C37 N35 1.340 . S
C37 N36 1.321 . S
C37 H61 0.930 . S
H38 C33 0.931 . S
Co39 N36 2.135 . S
Co39 N42 2.121 . S
Co39 O47 2.055 . S
Co39 O50 2.039 . S
Co39 N53 2.140 . S
C40 O41 1.227 . S
C40 O50 1.265 . S
O41 C40 1.227 . S
N42 Co39 2.121 . S
N42 C44 1.375 . S
N42 C45 1.313 . S
C43 C44 1.338 . S
C43 N46 1.377 . S
C43 H63 0.930 . S
C44 N42 1.375 . S
C44 C43 1.338 . S
C44 H48 0.931 . S
C45 N42 1.313 . S
C45 N46 1.344 . S
C45 H49 0.930 . S
N46 C43 1.377 . S
N46 C45 1.344 . S
O47 Co39 2.055 . S
O47 C51 1.253 . S
H48 C44 0.931 . S
H49 C45 0.930 . S
O50 Co39 2.039 . S
O50 C40 1.265 . S
C51 O47 1.253 . S
C51 O52 1.227 . S
O52 C51 1.227 . S
N53 Co39 2.140 . S
N53 C56 1.346 . S
N53 C57 1.345 . S
C54 C55 1.387 . S
C54 C58 1.391 . S
C55 C54 1.387 . S
C55 C56 1.369 . S
C55 H64 0.929 . S
C56 N53 1.346 . S
C56 C55 1.369 . S
C56 H59 0.928 . S
C57 N53 1.345 . S
C57 C58 1.371 . S
C57 H60 0.931 . S
C58 C54 1.391 . S
C58 C57 1.371 . S
C58 H65 0.930 . S
H59 C56 0.928 . S
H60 C57 0.931 . S
H61 C37 0.930 . S
H62 C34 0.930 . S
H63 C43 0.930 . S
H64 C55 0.929 . S
H65 C58 0.930 . S
C66 C67 1.351 . S
C66 N69 1.368 . S
C66 H71 0.931 . S
C67 C66 1.351 . S
C67 N68 1.373 . S
C67 H95 0.930 . S
N68 C67 1.373 . S
N68 C70 1.340 . S
N69 C66 1.368 . S
N69 C70 1.321 . S
N69 Co72 2.135 . S
C70 N68 1.340 . S
C70 N69 1.321 . S
C70 H94 0.930 . S
H71 C66 0.931 . S
Co72 N69 2.135 . S
Co72 N75 2.121 . S
Co72 O80 2.055 . S
Co72 O83 2.039 . S
Co72 N86 2.140 . S
C73 O74 1.227 . S
C73 O83 1.265 . S
O74 C73 1.227 . S
N75 Co72 2.121 . S
N75 C77 1.375 . S
N75 C78 1.313 . S
C76 C77 1.338 . S
C76 N79 1.377 . S
C76 H96 0.930 . S
C77 N75 1.375 . S
C77 C76 1.338 . S
C77 H81 0.931 . S
C78 N75 1.313 . S
C78 N79 1.344 . S
C78 H82 0.930 . S
N79 C76 1.377 . S
N79 C78 1.344 . S
O80 Co72 2.055 . S
O80 C84 1.253 . S
H81 C77 0.931 . S
H82 C78 0.930 . S
O83 Co72 2.039 . S
O83 C73 1.265 . S
C84 O80 1.253 . S
C84 O85 1.227 . S
O85 C84 1.227 . S
N86 Co72 2.140 . S
N86 C89 1.346 . S
N86 C90 1.345 . S
C87 C88 1.387 . S
C87 C91 1.391 . S
C88 C87 1.387 . S
C88 C89 1.369 . S
C88 H97 0.929 . S
C89 N86 1.346 . S
C89 C88 1.369 . S
C89 H92 0.928 . S
C90 N86 1.345 . S
C90 C91 1.371 . S
C90 H93 0.931 . S
C91 C87 1.391 . S
C91 C90 1.371 . S
C91 H98 0.930 . S
H92 C89 0.928 . S
H93 C90 0.931 . S
H94 C70 0.930 . S
H95 C67 0.930 . S
H96 C76 0.930 . S
H97 C88 0.929 . S
H98 C91 0.930 . S
C99 C100 1.351 . S
C99 N102 1.368 . S
C99 H104 0.931 . S
C100 C99 1.351 . S
C100 N101 1.373 . S
C100 H128 0.930 . S
N101 C100 1.373 . S
N101 C103 1.340 . S
N102 C99 1.368 . S
N102 C103 1.321 . S
N102 Co105 2.135 . S
C103 N101 1.340 . S
C103 N102 1.321 . S
C103 H127 0.930 . S
H104 C99 0.931 . S
Co105 N102 2.135 . S
Co105 N108 2.121 . S
Co105 O113 2.055 . S
Co105 O116 2.039 . S
Co105 N119 2.140 . S
C106 O107 1.227 . S
C106 O116 1.265 . S
O107 C106 1.227 . S
N108 Co105 2.121 . S
N108 C110 1.375 . S
N108 C111 1.313 . S
C109 C110 1.338 . S
C109 N112 1.377 . S
C109 H129 0.930 . S
C110 N108 1.375 . S
C110 C109 1.338 . S
C110 H114 0.931 . S
C111 N108 1.313 . S
C111 N112 1.344 . S
C111 H115 0.930 . S
N112 C109 1.377 . S
N112 C111 1.344 . S
O113 Co105 2.055 . S
O113 C117 1.253 . S
H114 C110 0.931 . S
H115 C111 0.930 . S
O116 Co105 2.039 . S
O116 C106 1.265 . S
C117 O113 1.253 . S
C117 O118 1.227 . S
O118 C117 1.227 . S
N119 Co105 2.140 . S
N119 C122 1.346 . S
N119 C123 1.345 . S
C120 C121 1.387 . S
C120 C124 1.391 . S
C121 C120 1.387 . S
C121 C122 1.369 . S
C121 H130 0.929 . S
C122 N119 1.346 . S
C122 C121 1.369 . S
C122 H125 0.928 . S
C123 N119 1.345 . S
C123 C124 1.371 . S
C123 H126 0.931 . S
C124 C120 1.391 . S
C124 C123 1.371 . S
C124 H131 0.930 . S
H125 C122 0.928 . S
H126 C123 0.931 . S
H127 C103 0.930 . S
H128 C100 0.930 . S
H129 C109 0.930 . S
H130 C121 0.929 . S
H131 C124 0.930 . S
C132 C133 1.351 . S
C132 N135 1.368 . S
C132 H137 0.931 . S
C133 C132 1.351 . S
C133 N134 1.373 . S
C133 H161 0.930 . S
N134 C133 1.373 . S
N134 C136 1.340 . S
N135 C132 1.368 . S
N135 C136 1.321 . S
N135 Co138 2.135 . S
C136 N134 1.340 . S
C136 N135 1.321 . S
C136 H160 0.930 . S
H137 C132 0.931 . S
Co138 N135 2.135 . S
Co138 N141 2.121 . S
Co138 O146 2.055 . S
Co138 O149 2.039 . S
Co138 N152 2.140 . S
C139 O140 1.227 . S
C139 O149 1.265 . S
O140 C139 1.227 . S
N141 Co138 2.121 . S
N141 C143 1.375 . S
N141 C144 1.313 . S
C142 C143 1.338 . S
C142 N145 1.377 . S
C142 H162 0.930 . S
C143 N141 1.375 . S
C143 C142 1.338 . S
C143 H147 0.931 . S
C144 N141 1.313 . S
C144 N145 1.344 . S
C144 H148 0.930 . S
N145 C142 1.377 . S
N145 C144 1.344 . S
O146 Co138 2.055 . S
O146 C150 1.253 . S
H147 C143 0.931 . S
H148 C144 0.930 . S
O149 Co138 2.039 . S
O149 C139 1.265 . S
C150 O146 1.253 . S
C150 O151 1.227 . S
O151 C150 1.227 . S
N152 Co138 2.140 . S
N152 C155 1.346 . S
N152 C156 1.345 . S
C153 C154 1.387 . S
C153 C157 1.391 . S
C154 C153 1.387 . S
C154 C155 1.369 . S
C154 H163 0.929 . S
C155 N152 1.346 . S
C155 C154 1.369 . S
C155 H158 0.928 . S
C156 N152 1.345 . S
C156 C157 1.371 . S
C156 H159 0.931 . S
C157 C153 1.391 . S
C157 C156 1.371 . S
C157 H164 0.930 . S
H158 C155 0.928 . S
H159 C156 0.931 . S
H160 C136 0.930 . S
H161 C133 0.930 . S
H162 C142 0.930 . S
H163 C154 0.929 . S
H164 C157 0.930 . S
C165 C166 1.351 . S
C165 N168 1.368 . S
C165 H170 0.931 . S
C166 C165 1.351 . S
C166 N167 1.373 . S
C166 H194 0.930 . S
N167 C166 1.373 . S
N167 C169 1.340 . S
N168 C165 1.368 . S
N168 C169 1.321 . S
N168 Co171 2.135 . S
C169 N167 1.340 . S
C169 N168 1.321 . S
C169 H193 0.930 . S
H170 C165 0.931 . S
Co171 N168 2.135 . S
Co171 N174 2.121 . S
Co171 O179 2.055 . S
Co171 O182 2.039 . S
Co171 N185 2.140 . S
C172 O173 1.227 . S
C172 O182 1.265 . S
O173 C172 1.227 . S
N174 Co171 2.121 . S
N174 C176 1.375 . S
N174 C177 1.313 . S
C175 C176 1.338 . S
C175 N178 1.377 . S
C175 H195 0.930 . S
C176 N174 1.375 . S
C176 C175 1.338 . S
C176 H180 0.931 . S
C177 N174 1.313 . S
C177 N178 1.344 . S
C177 H181 0.930 . S
N178 C175 1.377 . S
N178 C177 1.344 . S
O179 Co171 2.055 . S
O179 C183 1.253 . S
H180 C176 0.931 . S
H181 C177 0.930 . S
O182 Co171 2.039 . S
O182 C172 1.265 . S
C183 O179 1.253 . S
C183 O184 1.227 . S
O184 C183 1.227 . S
N185 Co171 2.140 . S
N185 C188 1.346 . S
N185 C189 1.345 . S
C186 C187 1.387 . S
C186 C190 1.391 . S
C187 C186 1.387 . S
C187 C188 1.369 . S
C187 H196 0.929 . S
C188 N185 1.346 . S
C188 C187 1.369 . S
C188 H191 0.928 . S
C189 N185 1.345 . S
C189 C190 1.371 . S
C189 H192 0.931 . S
C190 C186 1.391 . S
C190 C189 1.371 . S
C190 H197 0.930 . S
H191 C188 0.928 . S
H192 C189 0.931 . S
H193 C169 0.930 . S
H194 C166 0.930 . S
H195 C175 0.930 . S
H196 C187 0.929 . S
H197 C190 0.930 . S
C198 C199 1.351 . S
C198 N201 1.368 . S
C198 H203 0.931 . S
C199 C198 1.351 . S
C199 N200 1.373 . S
C199 H227 0.930 . S
N200 C199 1.373 . S
N200 C202 1.340 . S
N201 C198 1.368 . S
N201 C202 1.321 . S
N201 Co204 2.135 . S
C202 N200 1.340 . S
C202 N201 1.321 . S
C202 H226 0.930 . S
H203 C198 0.931 . S
Co204 N201 2.135 . S
Co204 N207 2.121 . S
Co204 O212 2.055 . S
Co204 O215 2.039 . S
Co204 N218 2.140 . S
C205 O206 1.227 . S
C205 O215 1.265 . S
O206 C205 1.227 . S
N207 Co204 2.121 . S
N207 C209 1.375 . S
N207 C210 1.313 . S
C208 C209 1.338 . S
C208 N211 1.377 . S
C208 H228 0.930 . S
C209 N207 1.375 . S
C209 C208 1.338 . S
C209 H213 0.931 . S
C210 N207 1.313 . S
C210 N211 1.344 . S
C210 H214 0.930 . S
N211 C208 1.377 . S
N211 C210 1.344 . S
O212 Co204 2.055 . S
O212 C216 1.253 . S
H213 C209 0.931 . S
H214 C210 0.930 . S
O215 Co204 2.039 . S
O215 C205 1.265 . S
C216 O212 1.253 . S
C216 O217 1.227 . S
O217 C216 1.227 . S
N218 Co204 2.140 . S
N218 C221 1.346 . S
N218 C222 1.345 . S
C219 C220 1.387 . S
C219 C223 1.391 . S
C220 C219 1.387 . S
C220 C221 1.369 . S
C220 H229 0.929 . S
C221 N218 1.346 . S
C221 C220 1.369 . S
C221 H224 0.928 . S
C222 N218 1.345 . S
C222 C223 1.371 . S
C222 H225 0.931 . S
C223 C219 1.391 . S
C223 C222 1.371 . S
C223 H230 0.930 . S
H224 C221 0.928 . S
H225 C222 0.931 . S
H226 C202 0.930 . S
H227 C199 0.930 . S
H228 C208 0.930 . S
H229 C220 0.929 . S
H230 C223 0.930 . S
C231 C232 1.351 . S
C231 N234 1.368 . S
C231 H236 0.931 . S
C232 C231 1.351 . S
C232 N233 1.373 . S
C232 H260 0.930 . S
N233 C232 1.373 . S
N233 C235 1.340 . S
N234 C231 1.368 . S
N234 C235 1.321 . S
N234 Co237 2.135 . S
C235 N233 1.340 . S
C235 N234 1.321 . S
C235 H259 0.930 . S
H236 C231 0.931 . S
Co237 N234 2.135 . S
Co237 N240 2.121 . S
Co237 O245 2.055 . S
Co237 O248 2.039 . S
Co237 N251 2.140 . S
C238 O239 1.227 . S
C238 O248 1.265 . S
O239 C238 1.227 . S
N240 Co237 2.121 . S
N240 C242 1.375 . S
N240 C243 1.313 . S
C241 C242 1.338 . S
C241 N244 1.377 . S
C241 H261 0.930 . S
C242 N240 1.375 . S
C242 C241 1.338 . S
C242 H246 0.931 . S
C243 N240 1.313 . S
C243 N244 1.344 . S
C243 H247 0.930 . S
N244 C241 1.377 . S
N244 C243 1.344 . S
O245 Co237 2.055 . S
O245 C249 1.253 . S
H246 C242 0.931 . S
H247 C243 0.930 . S
O248 Co237 2.039 . S
O248 C238 1.265 . S
C249 O245 1.253 . S
C249 O250 1.227 . S
O250 C249 1.227 . S
N251 Co237 2.140 . S
N251 C254 1.346 . S
N251 C255 1.345 . S
C252 C253 1.387 . S
C252 C256 1.391 . S
C253 C252 1.387 . S
C253 C254 1.369 . S
C253 H262 0.929 . S
C254 N251 1.346 . S
C254 C253 1.369 . S
C254 H257 0.928 . S
C255 N251 1.345 . S
C255 C256 1.371 . S
C255 H258 0.931 . S
C256 C252 1.391 . S
C256 C255 1.371 . S
C256 H263 0.930 . S
H257 C254 0.928 . S
H258 C255 0.931 . S
H259 C235 0.930 . S
H260 C232 0.930 . S
H261 C241 0.930 . S
H262 C253 0.929 . S
H263 C256 0.930 . S
C264 C265 1.351 . S
C264 N267 1.368 . S
C264 H269 0.931 . S
C265 C264 1.351 . S
C265 N266 1.373 . S
C265 H293 0.930 . S
N266 C265 1.373 . S
N266 C268 1.340 . S
N267 C264 1.368 . S
N267 C268 1.321 . S
N267 Co270 2.135 . S
C268 N266 1.340 . S
C268 N267 1.321 . S
C268 H292 0.930 . S
H269 C264 0.931 . S
Co270 N267 2.135 . S
Co270 N273 2.121 . S
Co270 O278 2.055 . S
Co270 O281 2.039 . S
Co270 N284 2.140 . S
C271 O272 1.227 . S
C271 O281 1.265 . S
O272 C271 1.227 . S
N273 Co270 2.121 . S
N273 C275 1.375 . S
N273 C276 1.313 . S
C274 C275 1.338 . S
C274 N277 1.377 . S
C274 H294 0.930 . S
C275 N273 1.375 . S
C275 C274 1.338 . S
C275 H279 0.931 . S
C276 N273 1.313 . S
C276 N277 1.344 . S
C276 H280 0.930 . S
N277 C274 1.377 . S
N277 C276 1.344 . S
O278 Co270 2.055 . S
O278 C282 1.253 . S
H279 C275 0.931 . S
H280 C276 0.930 . S
O281 Co270 2.039 . S
O281 C271 1.265 . S
C282 O278 1.253 . S
C282 O283 1.227 . S
O283 C282 1.227 . S
N284 Co270 2.140 . S
N284 C287 1.346 . S
N284 C288 1.345 . S
C285 C286 1.387 . S
C285 C289 1.391 . S
C286 C285 1.387 . S
C286 C287 1.369 . S
C286 H295 0.929 . S
C287 N284 1.346 . S
C287 C286 1.369 . S
C287 H290 0.928 . S
C288 N284 1.345 . S
C288 C289 1.371 . S
C288 H291 0.931 . S
C289 C285 1.391 . S
C289 C288 1.371 . S
C289 H296 0.930 . S
H290 C287 0.928 . S
H291 C288 0.931 . S
H292 C268 0.930 . S
H293 C265 0.930 . S
H294 C274 0.930 . S
H295 C286 0.929 . S
H296 C289 0.930 . S
C297 C298 1.351 . S
C297 N300 1.368 . S
C297 H302 0.931 . S
C298 C297 1.351 . S
C298 N299 1.373 . S
C298 H326 0.930 . S
N299 C298 1.373 . S
N299 C301 1.340 . S
N300 C297 1.368 . S
N300 C301 1.321 . S
N300 Co303 2.135 . S
C301 N299 1.340 . S
C301 N300 1.321 . S
C301 H325 0.930 . S
H302 C297 0.931 . S
Co303 N300 2.135 . S
Co303 N306 2.121 . S
Co303 O311 2.055 . S
Co303 O314 2.039 . S
Co303 N317 2.140 . S
C304 O305 1.227 . S
C304 O314 1.265 . S
O305 C304 1.227 . S
N306 Co303 2.121 . S
N306 C308 1.375 . S
N306 C309 1.313 . S
C307 C308 1.338 . S
C307 N310 1.377 . S
C307 H327 0.930 . S
C308 N306 1.375 . S
C308 C307 1.338 . S
C308 H312 0.931 . S
C309 N306 1.313 . S
C309 N310 1.344 . S
C309 H313 0.930 . S
N310 C307 1.377 . S
N310 C309 1.344 . S
O311 Co303 2.055 . S
O311 C315 1.253 . S
H312 C308 0.931 . S
H313 C309 0.930 . S
O314 Co303 2.039 . S
O314 C304 1.265 . S
C315 O311 1.253 . S
C315 O316 1.227 . S
O316 C315 1.227 . S
N317 Co303 2.140 . S
N317 C320 1.346 . S
N317 C321 1.345 . S
C318 C319 1.387 . S
C318 C322 1.391 . S
C319 C318 1.387 . S
C319 C320 1.369 . S
C319 H328 0.929 . S
C320 N317 1.346 . S
C320 C319 1.369 . S
C320 H323 0.928 . S
C321 N317 1.345 . S
C321 C322 1.371 . S
C321 H324 0.931 . S
C322 C318 1.391 . S
C322 C321 1.371 . S
C322 H329 0.930 . S
H323 C320 0.928 . S
H324 C321 0.931 . S
H325 C301 0.930 . S
H326 C298 0.930 . S
H327 C307 0.930 . S
H328 C319 0.929 . S
H329 C322 0.930 . S
C330 C331 1.351 . S
C330 N333 1.368 . S
C330 H335 0.931 . S
C331 C330 1.351 . S
C331 N332 1.373 . S
C331 H359 0.930 . S
N332 C331 1.373 . S
N332 C334 1.340 . S
N333 C330 1.368 . S
N333 C334 1.321 . S
N333 Co336 2.135 . S
C334 N332 1.340 . S
C334 N333 1.321 . S
C334 H358 0.930 . S
H335 C330 0.931 . S
Co336 N333 2.135 . S
Co336 N339 2.121 . S
Co336 O344 2.055 . S
Co336 O347 2.039 . S
Co336 N350 2.140 . S
C337 O338 1.227 . S
C337 O347 1.265 . S
O338 C337 1.227 . S
N339 Co336 2.121 . S
N339 C341 1.375 . S
N339 C342 1.313 . S
C340 C341 1.338 . S
C340 N343 1.377 . S
C340 H360 0.930 . S
C341 N339 1.375 . S
C341 C340 1.338 . S
C341 H345 0.931 . S
C342 N339 1.313 . S
C342 N343 1.344 . S
C342 H346 0.930 . S
N343 C340 1.377 . S
N343 C342 1.344 . S
O344 Co336 2.055 . S
O344 C348 1.253 . S
H345 C341 0.931 . S
H346 C342 0.930 . S
O347 Co336 2.039 . S
O347 C337 1.265 . S
C348 O344 1.253 . S
C348 O349 1.227 . S
O349 C348 1.227 . S
N350 Co336 2.140 . S
N350 C353 1.346 . S
N350 C354 1.345 . S
C351 C352 1.387 . S
C351 C355 1.391 . S
C352 C351 1.387 . S
C352 C353 1.369 . S
C352 H361 0.929 . S
C353 N350 1.346 . S
C353 C352 1.369 . S
C353 H356 0.928 . S
C354 N350 1.345 . S
C354 C355 1.371 . S
C354 H357 0.931 . S
C355 C351 1.391 . S
C355 C354 1.371 . S
C355 H362 0.930 . S
H356 C353 0.928 . S
H357 C354 0.931 . S
H358 C334 0.930 . S
H359 C331 0.930 . S
H360 C340 0.930 . S
H361 C352 0.929 . S
H362 C355 0.930 . S
C363 C364 1.351 . S
C363 N366 1.368 . S
C363 H368 0.931 . S
C364 C363 1.351 . S
C364 N365 1.373 . S
C364 H392 0.930 . S
N365 C364 1.373 . S
N365 C367 1.340 . S
N366 C363 1.368 . S
N366 C367 1.321 . S
N366 Co369 2.135 . S
C367 N365 1.340 . S
C367 N366 1.321 . S
C367 H391 0.930 . S
H368 C363 0.931 . S
Co369 N366 2.135 . S
Co369 N372 2.121 . S
Co369 O377 2.055 . S
Co369 O380 2.039 . S
Co369 N383 2.140 . S
C370 O371 1.227 . S
C370 O380 1.265 . S
O371 C370 1.227 . S
N372 Co369 2.121 . S
N372 C374 1.375 . S
N372 C375 1.313 . S
C373 C374 1.338 . S
C373 N376 1.377 . S
C373 H393 0.930 . S
C374 N372 1.375 . S
C374 C373 1.338 . S
C374 H378 0.931 . S
C375 N372 1.313 . S
C375 N376 1.344 . S
C375 H379 0.930 . S
N376 C373 1.377 . S
N376 C375 1.344 . S
O377 Co369 2.055 . S
O377 C381 1.253 . S
H378 C374 0.931 . S
H379 C375 0.930 . S
O380 Co369 2.039 . S
O380 C370 1.265 . S
C381 O377 1.253 . S
C381 O382 1.227 . S
O382 C381 1.227 . S
N383 Co369 2.140 . S
N383 C386 1.346 . S
N383 C387 1.345 . S
C384 C385 1.387 . S
C384 C388 1.391 . S
C385 C384 1.387 . S
C385 C386 1.369 . S
C385 H394 0.929 . S
C386 N383 1.346 . S
C386 C385 1.369 . S
C386 H389 0.928 . S
C387 N383 1.345 . S
C387 C388 1.371 . S
C387 H390 0.931 . S
C388 C384 1.391 . S
C388 C387 1.371 . S
C388 H395 0.930 . S
H389 C386 0.928 . S
H390 C387 0.931 . S
H391 C367 0.930 . S
H392 C364 0.930 . S
H393 C373 0.930 . S
H394 C385 0.929 . S
H395 C388 0.930 . S
C396 C397 1.351 . S
C396 N399 1.368 . S
C396 H401 0.931 . S
C397 C396 1.351 . S
C397 N398 1.373 . S
C397 H425 0.930 . S
N398 C397 1.373 . S
N398 C400 1.340 . S
N399 C396 1.368 . S
N399 C400 1.321 . S
N399 Co402 2.135 . S
C400 N398 1.340 . S
C400 N399 1.321 . S
C400 H424 0.930 . S
H401 C396 0.931 . S
Co402 N399 2.135 . S
Co402 N405 2.121 . S
Co402 O410 2.055 . S
Co402 O413 2.039 . S
Co402 N416 2.140 . S
C403 O404 1.227 . S
C403 O413 1.265 . S
O404 C403 1.227 . S
N405 Co402 2.121 . S
N405 C407 1.375 . S
N405 C408 1.313 . S
C406 C407 1.338 . S
C406 N409 1.377 . S
C406 H426 0.930 . S
C407 N405 1.375 . S
C407 C406 1.338 . S
C407 H411 0.931 . S
C408 N405 1.313 . S
C408 N409 1.344 . S
C408 H412 0.930 . S
N409 C406 1.377 . S
N409 C408 1.344 . S
O410 Co402 2.055 . S
O410 C414 1.253 . S
H411 C407 0.931 . S
H412 C408 0.930 . S
O413 Co402 2.039 . S
O413 C403 1.265 . S
C414 O410 1.253 . S
C414 O415 1.227 . S
O415 C414 1.227 . S
N416 Co402 2.140 . S
N416 C419 1.346 . S
N416 C420 1.345 . S
C417 C418 1.387 . S
C417 C421 1.391 . S
C418 C417 1.387 . S
C418 C419 1.369 . S
C418 H427 0.929 . S
C419 N416 1.346 . S
C419 C418 1.369 . S
C419 H422 0.928 . S
C420 N416 1.345 . S
C420 C421 1.371 . S
C420 H423 0.931 . S
C421 C417 1.391 . S
C421 C420 1.371 . S
C421 H428 0.930 . S
H422 C419 0.928 . S
H423 C420 0.931 . S
H424 C400 0.930 . S
H425 C397 0.930 . S
H426 C406 0.930 . S
H427 C418 0.929 . S
H428 C421 0.930 . S
C429 C430 1.351 . S
C429 N432 1.368 . S
C429 H434 0.931 . S
C430 C429 1.351 . S
C430 N431 1.373 . S
C430 H458 0.930 . S
N431 C430 1.373 . S
N431 C433 1.340 . S
N432 C429 1.368 . S
N432 C433 1.321 . S
N432 Co435 2.135 . S
C433 N431 1.340 . S
C433 N432 1.321 . S
C433 H457 0.930 . S
H434 C429 0.931 . S
Co435 N432 2.135 . S
Co435 N438 2.121 . S
Co435 O443 2.055 . S
Co435 O446 2.039 . S
Co435 N449 2.140 . S
C436 O437 1.227 . S
C436 O446 1.265 . S
O437 C436 1.227 . S
N438 Co435 2.121 . S
N438 C440 1.375 . S
N438 C441 1.313 . S
C439 C440 1.338 . S
C439 N442 1.377 . S
C439 H459 0.930 . S
C440 N438 1.375 . S
C440 C439 1.338 . S
C440 H444 0.931 . S
C441 N438 1.313 . S
C441 N442 1.344 . S
C441 H445 0.930 . S
N442 C439 1.377 . S
N442 C441 1.344 . S
O443 Co435 2.055 . S
O443 C447 1.253 . S
H444 C440 0.931 . S
H445 C441 0.930 . S
O446 Co435 2.039 . S
O446 C436 1.265 . S
C447 O443 1.253 . S
C447 O448 1.227 . S
O448 C447 1.227 . S
N449 Co435 2.140 . S
N449 C452 1.346 . S
N449 C453 1.345 . S
C450 C451 1.387 . S
C450 C454 1.391 . S
C451 C450 1.387 . S
C451 C452 1.369 . S
C451 H460 0.929 . S
C452 N449 1.346 . S
C452 C451 1.369 . S
C452 H455 0.928 . S
C453 N449 1.345 . S
C453 C454 1.371 . S
C453 H456 0.931 . S
C454 C450 1.391 . S
C454 C453 1.371 . S
C454 H461 0.930 . S
H455 C452 0.928 . S
H456 C453 0.931 . S
H457 C433 0.930 . S
H458 C430 0.930 . S
H459 C439 0.930 . S
H460 C451 0.929 . S
H461 C454 0.930 . S
C462 C463 1.351 . S
C462 N465 1.368 . S
C462 H467 0.931 . S
C463 C462 1.351 . S
C463 N464 1.373 . S
C463 H491 0.930 . S
N464 C463 1.373 . S
N464 C466 1.340 . S
N465 C462 1.368 . S
N465 C466 1.321 . S
N465 Co468 2.135 . S
C466 N464 1.340 . S
C466 N465 1.321 . S
C466 H490 0.930 . S
H467 C462 0.931 . S
Co468 N465 2.135 . S
Co468 N471 2.121 . S
Co468 O476 2.055 . S
Co468 O479 2.039 . S
Co468 N482 2.140 . S
C469 O470 1.227 . S
C469 O479 1.265 . S
O470 C469 1.227 . S
N471 Co468 2.121 . S
N471 C473 1.375 . S
N471 C474 1.313 . S
C472 C473 1.338 . S
C472 N475 1.377 . S
C472 H492 0.930 . S
C473 N471 1.375 . S
C473 C472 1.338 . S
C473 H477 0.931 . S
C474 N471 1.313 . S
C474 N475 1.344 . S
C474 H478 0.930 . S
N475 C472 1.377 . S
N475 C474 1.344 . S
O476 Co468 2.055 . S
O476 C480 1.253 . S
H477 C473 0.931 . S
H478 C474 0.930 . S
O479 Co468 2.039 . S
O479 C469 1.265 . S
C480 O476 1.253 . S
C480 O481 1.227 . S
O481 C480 1.227 . S
N482 Co468 2.140 . S
N482 C485 1.346 . S
N482 C486 1.345 . S
C483 C484 1.387 . S
C483 C487 1.391 . S
C484 C483 1.387 . S
C484 C485 1.369 . S
C484 H493 0.929 . S
C485 N482 1.346 . S
C485 C484 1.369 . S
C485 H488 0.928 . S
C486 N482 1.345 . S
C486 C487 1.371 . S
C486 H489 0.931 . S
C487 C483 1.391 . S
C487 C486 1.371 . S
C487 H494 0.930 . S
H488 C485 0.928 . S
H489 C486 0.931 . S
H490 C466 0.930 . S
H491 C463 0.930 . S
H492 C472 0.930 . S
H493 C484 0.929 . S
H494 C487 0.930 . S
C495 C496 1.351 . S
C495 N498 1.368 . S
C495 H500 0.931 . S
C496 C495 1.351 . S
C496 N497 1.373 . S
C496 H524 0.930 . S
N497 C496 1.373 . S
N497 C499 1.340 . S
N498 C495 1.368 . S
N498 C499 1.321 . S
N498 Co501 2.135 . S
C499 N497 1.340 . S
C499 N498 1.321 . S
C499 H523 0.930 . S
H500 C495 0.931 . S
Co501 N498 2.135 . S
Co501 N504 2.121 . S
Co501 O509 2.055 . S
Co501 O512 2.039 . S
Co501 N515 2.140 . S
C502 O503 1.227 . S
C502 O512 1.265 . S
O503 C502 1.227 . S
N504 Co501 2.121 . S
N504 C506 1.375 . S
N504 C507 1.313 . S
C505 C506 1.338 . S
C505 N508 1.377 . S
C505 H525 0.930 . S
C506 N504 1.375 . S
C506 C505 1.338 . S
C506 H510 0.931 . S
C507 N504 1.313 . S
C507 N508 1.344 . S
C507 H511 0.930 . S
N508 C505 1.377 . S
N508 C507 1.344 . S
O509 Co501 2.055 . S
O509 C513 1.253 . S
H510 C506 0.931 . S
H511 C507 0.930 . S
O512 Co501 2.039 . S
O512 C502 1.265 . S
C513 O509 1.253 . S
C513 O514 1.227 . S
O514 C513 1.227 . S
N515 Co501 2.140 . S
N515 C518 1.346 . S
N515 C519 1.345 . S
C516 C517 1.387 . S
C516 C520 1.391 . S
C517 C516 1.387 . S
C517 C518 1.369 . S
C517 H526 0.929 . S
C518 N515 1.346 . S
C518 C517 1.369 . S
C518 H521 0.928 . S
C519 N515 1.345 . S
C519 C520 1.371 . S
C519 H522 0.931 . S
C520 C516 1.391 . S
C520 C519 1.371 . S
C520 H527 0.930 . S
H521 C518 0.928 . S
H522 C519 0.931 . S
H523 C499 0.930 . S
H524 C496 0.930 . S
H525 C505 0.930 . S
H526 C517 0.929 . S
H527 C520 0.930 . S
C528 C529 1.351 . S
C528 N531 1.368 . S
C528 H533 0.931 . S
C529 C528 1.351 . S
C529 N530 1.373 . S
C529 H557 0.930 . S
N530 C529 1.373 . S
N530 C532 1.340 . S
N531 C528 1.368 . S
N531 C532 1.321 . S
N531 Co534 2.135 . S
C532 N530 1.340 . S
C532 N531 1.321 . S
C532 H556 0.930 . S
H533 C528 0.931 . S
Co534 N531 2.135 . S
Co534 N537 2.121 . S
Co534 O542 2.055 . S
Co534 O545 2.039 . S
Co534 N548 2.140 . S
C535 O536 1.227 . S
C535 O545 1.265 . S
O536 C535 1.227 . S
N537 Co534 2.121 . S
N537 C539 1.375 . S
N537 C540 1.313 . S
C538 C539 1.338 . S
C538 N541 1.377 . S
C538 H558 0.930 . S
C539 N537 1.375 . S
C539 C538 1.338 . S
C539 H543 0.931 . S
C540 N537 1.313 . S
C540 N541 1.344 . S
C540 H544 0.930 . S
N541 C538 1.377 . S
N541 C540 1.344 . S
O542 Co534 2.055 . S
O542 C546 1.253 . S
H543 C539 0.931 . S
H544 C540 0.930 . S
O545 Co534 2.039 . S
O545 C535 1.265 . S
C546 O542 1.253 . S
C546 O547 1.227 . S
O547 C546 1.227 . S
N548 Co534 2.140 . S
N548 C551 1.346 . S
N548 C552 1.345 . S
C549 C550 1.387 . S
C549 C553 1.391 . S
C550 C549 1.387 . S
C550 C551 1.369 . S
C550 H559 0.929 . S
C551 N548 1.346 . S
C551 C550 1.369 . S
C551 H554 0.928 . S
C552 N548 1.345 . S
C552 C553 1.371 . S
C552 H555 0.931 . S
C553 C549 1.391 . S
C553 C552 1.371 . S
C553 H560 0.930 . S
H554 C551 0.928 . S
H555 C552 0.931 . S
H556 C532 0.930 . S
H557 C529 0.930 . S
H558 C538 0.930 . S
H559 C550 0.929 . S
H560 C553 0.930 . S
C561 C562 1.351 . S
C561 N564 1.368 . S
C561 H566 0.931 . S
C562 C561 1.351 . S
C562 N563 1.373 . S
C562 H590 0.930 . S
N563 C562 1.373 . S
N563 C565 1.340 . S
N564 C561 1.368 . S
N564 C565 1.321 . S
N564 Co567 2.135 . S
C565 N563 1.340 . S
C565 N564 1.321 . S
C565 H589 0.930 . S
H566 C561 0.931 . S
Co567 N564 2.135 . S
Co567 N570 2.121 . S
Co567 O575 2.055 . S
Co567 O578 2.039 . S
Co567 N581 2.140 . S
C568 O569 1.227 . S
C568 O578 1.265 . S
O569 C568 1.227 . S
N570 Co567 2.121 . S
N570 C572 1.375 . S
N570 C573 1.313 . S
C571 C572 1.338 . S
C571 N574 1.377 . S
C571 H591 0.930 . S
C572 N570 1.375 . S
C572 C571 1.338 . S
C572 H576 0.931 . S
C573 N570 1.313 . S
C573 N574 1.344 . S
C573 H577 0.930 . S
N574 C571 1.377 . S
N574 C573 1.344 . S
O575 Co567 2.055 . S
O575 C579 1.253 . S
H576 C572 0.931 . S
H577 C573 0.930 . S
O578 Co567 2.039 . S
O578 C568 1.265 . S
C579 O575 1.253 . S
C579 O580 1.227 . S
O580 C579 1.227 . S
N581 Co567 2.140 . S
N581 C584 1.346 . S
N581 C585 1.345 . S
C582 C583 1.387 . S
C582 C586 1.391 . S
C583 C582 1.387 . S
C583 C584 1.369 . S
C583 H592 0.929 . S
C584 N581 1.346 . S
C584 C583 1.369 . S
C584 H587 0.928 . S
C585 N581 1.345 . S
C585 C586 1.371 . S
C585 H588 0.931 . S
C586 C582 1.391 . S
C586 C585 1.371 . S
C586 H593 0.930 . S
H587 C584 0.928 . S
H588 C585 0.931 . S
H589 C565 0.930 . S
H590 C562 0.930 . S
H591 C571 0.930 . S
H592 C583 0.929 . S
H593 C586 0.930 . S
C594 C595 1.351 . S
C594 N597 1.368 . S
C594 H599 0.931 . S
C595 C594 1.351 . S
C595 N596 1.373 . S
C595 H623 0.930 . S
N596 C595 1.373 . S
N596 C598 1.340 . S
N597 C594 1.368 . S
N597 C598 1.321 . S
N597 Co600 2.135 . S
C598 N596 1.340 . S
C598 N597 1.321 . S
C598 H622 0.930 . S
H599 C594 0.931 . S
Co600 N597 2.135 . S
Co600 N603 2.121 . S
Co600 O608 2.055 . S
Co600 O611 2.039 . S
Co600 N614 2.140 . S
C601 O602 1.227 . S
C601 O611 1.265 . S
O602 C601 1.227 . S
N603 Co600 2.121 . S
N603 C605 1.375 . S
N603 C606 1.313 . S
C604 C605 1.338 . S
C604 N607 1.377 . S
C604 H624 0.930 . S
C605 N603 1.375 . S
C605 C604 1.338 . S
C605 H609 0.931 . S
C606 N603 1.313 . S
C606 N607 1.344 . S
C606 H610 0.930 . S
N607 C604 1.377 . S
N607 C606 1.344 . S
O608 Co600 2.055 . S
O608 C612 1.253 . S
H609 C605 0.931 . S
H610 C606 0.930 . S
O611 Co600 2.039 . S
O611 C601 1.265 . S
C612 O608 1.253 . S
C612 O613 1.227 . S
O613 C612 1.227 . S
N614 Co600 2.140 . S
N614 C617 1.346 . S
N614 C618 1.345 . S
C615 C616 1.387 . S
C615 C619 1.391 . S
C616 C615 1.387 . S
C616 C617 1.369 . S
C616 H625 0.929 . S
C617 N614 1.346 . S
C617 C616 1.369 . S
C617 H620 0.928 . S
C618 N614 1.345 . S
C618 C619 1.371 . S
C618 H621 0.931 . S
C619 C615 1.391 . S
C619 C618 1.371 . S
C619 H626 0.930 . S
H620 C617 0.928 . S
H621 C618 0.931 . S
H622 C598 0.930 . S
H623 C595 0.930 . S
H624 C604 0.930 . S
H625 C616 0.929 . S
H626 C619 0.930 . S
C627 C628 1.351 . S
C627 N630 1.368 . S
C627 H632 0.931 . S
C628 C627 1.351 . S
C628 N629 1.373 . S
C628 H656 0.930 . S
N629 C628 1.373 . S
N629 C631 1.340 . S
N630 C627 1.368 . S
N630 C631 1.321 . S
N630 Co633 2.135 . S
C631 N629 1.340 . S
C631 N630 1.321 . S
C631 H655 0.930 . S
H632 C627 0.931 . S
Co633 N630 2.135 . S
Co633 N636 2.121 . S
Co633 O641 2.055 . S
Co633 O644 2.039 . S
Co633 N647 2.140 . S
C634 O635 1.227 . S
C634 O644 1.265 . S
O635 C634 1.227 . S
N636 Co633 2.121 . S
N636 C638 1.375 . S
N636 C639 1.313 . S
C637 C638 1.338 . S
C637 N640 1.377 . S
C637 H657 0.930 . S
C638 N636 1.375 . S
C638 C637 1.338 . S
C638 H642 0.931 . S
C639 N636 1.313 . S
C639 N640 1.344 . S
C639 H643 0.930 . S
N640 C637 1.377 . S
N640 C639 1.344 . S
O641 Co633 2.055 . S
O641 C645 1.253 . S
H642 C638 0.931 . S
H643 C639 0.930 . S
O644 Co633 2.039 . S
O644 C634 1.265 . S
C645 O641 1.253 . S
C645 O646 1.227 . S
O646 C645 1.227 . S
N647 Co633 2.140 . S
N647 C650 1.346 . S
N647 C651 1.345 . S
C648 C649 1.387 . S
C648 C652 1.391 . S
C649 C648 1.387 . S
C649 C650 1.369 . S
C649 H658 0.929 . S
C650 N647 1.346 . S
C650 C649 1.369 . S
C650 H653 0.928 . S
C651 N647 1.345 . S
C651 C652 1.371 . S
C651 H654 0.931 . S
C652 C648 1.391 . S
C652 C651 1.371 . S
C652 H659 0.930 . S
H653 C650 0.928 . S
H654 C651 0.931 . S
H655 C631 0.930 . S
H656 C628 0.930 . S
H657 C637 0.930 . S
H658 C649 0.929 . S
H659 C652 0.930 . S
C660 C661 1.351 . S
C660 N663 1.368 . S
C660 H665 0.931 . S
C661 C660 1.351 . S
C661 N662 1.373 . S
C661 H689 0.930 . S
N662 C661 1.373 . S
N662 C664 1.340 . S
N663 C660 1.368 . S
N663 C664 1.321 . S
N663 Co666 2.135 . S
C664 N662 1.340 . S
C664 N663 1.321 . S
C664 H688 0.930 . S
H665 C660 0.931 . S
Co666 N663 2.135 . S
Co666 N669 2.121 . S
Co666 O674 2.055 . S
Co666 O677 2.039 . S
Co666 N680 2.140 . S
C667 O668 1.227 . S
C667 O677 1.265 . S
O668 C667 1.227 . S
N669 Co666 2.121 . S
N669 C671 1.375 . S
N669 C672 1.313 . S
C670 C671 1.338 . S
C670 N673 1.377 . S
C670 H690 0.930 . S
C671 N669 1.375 . S
C671 C670 1.338 . S
C671 H675 0.931 . S
C672 N669 1.313 . S
C672 N673 1.344 . S
C672 H676 0.930 . S
N673 C670 1.377 . S
N673 C672 1.344 . S
O674 Co666 2.055 . S
O674 C678 1.253 . S
H675 C671 0.931 . S
H676 C672 0.930 . S
O677 Co666 2.039 . S
O677 C667 1.265 . S
C678 O674 1.253 . S
C678 O679 1.227 . S
O679 C678 1.227 . S
N680 Co666 2.140 . S
N680 C683 1.346 . S
N680 C684 1.345 . S
C681 C682 1.387 . S
C681 C685 1.391 . S
C682 C681 1.387 . S
C682 C683 1.369 . S
C682 H691 0.929 . S
C683 N680 1.346 . S
C683 C682 1.369 . S
C683 H686 0.928 . S
C684 N680 1.345 . S
C684 C685 1.371 . S
C684 H687 0.931 . S
C685 C681 1.391 . S
C685 C684 1.371 . S
C685 H692 0.930 . S
H686 C683 0.928 . S
H687 C684 0.931 . S
H688 C664 0.930 . S
H689 C661 0.930 . S
H690 C670 0.930 . S
H691 C682 0.929 . S
H692 C685 0.930 . S
C693 C694 1.351 . S
C693 N696 1.368 . S
C693 H698 0.931 . S
C694 C693 1.351 . S
C694 N695 1.373 . S
C694 H722 0.930 . S
N695 C694 1.373 . S
N695 C697 1.340 . S
N696 C693 1.368 . S
N696 C697 1.321 . S
N696 Co699 2.135 . S
C697 N695 1.340 . S
C697 N696 1.321 . S
C697 H721 0.930 . S
H698 C693 0.931 . S
Co699 N696 2.135 . S
Co699 N702 2.121 . S
Co699 O707 2.055 . S
Co699 O710 2.039 . S
Co699 N713 2.140 . S
C700 O701 1.227 . S
C700 O710 1.265 . S
O701 C700 1.227 . S
N702 Co699 2.121 . S
N702 C704 1.375 . S
N702 C705 1.313 . S
C703 C704 1.338 . S
C703 N706 1.377 . S
C703 H723 0.930 . S
C704 N702 1.375 . S
C704 C703 1.338 . S
C704 H708 0.931 . S
C705 N702 1.313 . S
C705 N706 1.344 . S
C705 H709 0.930 . S
N706 C703 1.377 . S
N706 C705 1.344 . S
O707 Co699 2.055 . S
O707 C711 1.253 . S
H708 C704 0.931 . S
H709 C705 0.930 . S
O710 Co699 2.039 . S
O710 C700 1.265 . S
C711 O707 1.253 . S
C711 O712 1.227 . S
O712 C711 1.227 . S
N713 Co699 2.140 . S
N713 C716 1.346 . S
N713 C717 1.345 . S
C714 C715 1.387 . S
C714 C718 1.391 . S
C715 C714 1.387 . S
C715 C716 1.369 . S
C715 H724 0.929 . S
C716 N713 1.346 . S
C716 C715 1.369 . S
C716 H719 0.928 . S
C717 N713 1.345 . S
C717 C718 1.371 . S
C717 H720 0.931 . S
C718 C714 1.391 . S
C718 C717 1.371 . S
C718 H725 0.930 . S
H719 C716 0.928 . S
H720 C717 0.931 . S
H721 C697 0.930 . S
H722 C694 0.930 . S
H723 C703 0.930 . S
H724 C715 0.929 . S
H725 C718 0.930 . S
C726 C727 1.351 . S
C726 N729 1.368 . S
C726 H731 0.931 . S
C727 C726 1.351 . S
C727 N728 1.373 . S
C727 H755 0.930 . S
N728 C727 1.373 . S
N728 C730 1.340 . S
N729 C726 1.368 . S
N729 C730 1.321 . S
N729 Co732 2.135 . S
C730 N728 1.340 . S
C730 N729 1.321 . S
C730 H754 0.930 . S
H731 C726 0.931 . S
Co732 N729 2.135 . S
Co732 N735 2.121 . S
Co732 O740 2.055 . S
Co732 O743 2.039 . S
Co732 N746 2.140 . S
C733 O734 1.227 . S
C733 O743 1.265 . S
O734 C733 1.227 . S
N735 Co732 2.121 . S
N735 C737 1.375 . S
N735 C738 1.313 . S
C736 C737 1.338 . S
C736 N739 1.377 . S
C736 H756 0.930 . S
C737 N735 1.375 . S
C737 C736 1.338 . S
C737 H741 0.931 . S
C738 N735 1.313 . S
C738 N739 1.344 . S
C738 H742 0.930 . S
N739 C736 1.377 . S
N739 C738 1.344 . S
O740 Co732 2.055 . S
O740 C744 1.253 . S
H741 C737 0.931 . S
H742 C738 0.930 . S
O743 Co732 2.039 . S
O743 C733 1.265 . S
C744 O740 1.253 . S
C744 O745 1.227 . S
O745 C744 1.227 . S
N746 Co732 2.140 . S
N746 C749 1.346 . S
N746 C750 1.345 . S
C747 C748 1.387 . S
C747 C751 1.391 . S
C748 C747 1.387 . S
C748 C749 1.369 . S
C748 H757 0.929 . S
C749 N746 1.346 . S
C749 C748 1.369 . S
C749 H752 0.928 . S
C750 N746 1.345 . S
C750 C751 1.371 . S
C750 H753 0.931 . S
C751 C747 1.391 . S
C751 C750 1.371 . S
C751 H758 0.930 . S
H752 C749 0.928 . S
H753 C750 0.931 . S
H754 C730 0.930 . S
H755 C727 0.930 . S
H756 C736 0.930 . S
H757 C748 0.929 . S
H758 C751 0.930 . S
C759 C760 1.351 . S
C759 N762 1.368 . S
C759 H764 0.931 . S
C760 C759 1.351 . S
C760 N761 1.373 . S
C760 H788 0.930 . S
N761 C760 1.373 . S
N761 C763 1.340 . S
N762 C759 1.368 . S
N762 C763 1.321 . S
N762 Co765 2.135 . S
C763 N761 1.340 . S
C763 N762 1.321 . S
C763 H787 0.930 . S
H764 C759 0.931 . S
Co765 N762 2.135 . S
Co765 N768 2.121 . S
Co765 O773 2.055 . S
Co765 O776 2.039 . S
Co765 N779 2.140 . S
C766 O767 1.227 . S
C766 O776 1.265 . S
O767 C766 1.227 . S
N768 Co765 2.121 . S
N768 C770 1.375 . S
N768 C771 1.313 . S
C769 C770 1.338 . S
C769 N772 1.377 . S
C769 H789 0.930 . S
C770 N768 1.375 . S
C770 C769 1.338 . S
C770 H774 0.931 . S
C771 N768 1.313 . S
C771 N772 1.344 . S
C771 H775 0.930 . S
N772 C769 1.377 . S
N772 C771 1.344 . S
O773 Co765 2.055 . S
O773 C777 1.253 . S
H774 C770 0.931 . S
H775 C771 0.930 . S
O776 Co765 2.039 . S
O776 C766 1.265 . S
C777 O773 1.253 . S
C777 O778 1.227 . S
O778 C777 1.227 . S
N779 Co765 2.140 . S
N779 C782 1.346 . S
N779 C783 1.345 . S
C780 C781 1.387 . S
C780 C784 1.391 . S
C781 C780 1.387 . S
C781 C782 1.369 . S
C781 H790 0.929 . S
C782 N779 1.346 . S
C782 C781 1.369 . S
C782 H785 0.928 . S
C783 N779 1.345 . S
C783 C784 1.371 . S
C783 H786 0.931 . S
C784 C780 1.391 . S
C784 C783 1.371 . S
C784 H791 0.930 . S
H785 C782 0.928 . S
H786 C783 0.931 . S
H787 C763 0.930 . S
H788 C760 0.930 . S
H789 C769 0.930 . S
H790 C781 0.929 . S
H791 C784 0.930 . S
C792 C793 1.351 . S
C792 N795 1.368 . S
C792 H797 0.931 . S
C793 C792 1.351 . S
C793 N794 1.373 . S
C793 H821 0.930 . S
N794 C793 1.373 . S
N794 C796 1.340 . S
N795 C792 1.368 . S
N795 C796 1.321 . S
N795 Co798 2.135 . S
C796 N794 1.340 . S
C796 N795 1.321 . S
C796 H820 0.930 . S
H797 C792 0.931 . S
Co798 N795 2.135 . S
Co798 N801 2.121 . S
Co798 O806 2.055 . S
Co798 O809 2.039 . S
Co798 N812 2.140 . S
C799 O800 1.227 . S
C799 O809 1.265 . S
O800 C799 1.227 . S
N801 Co798 2.121 . S
N801 C803 1.375 . S
N801 C804 1.313 . S
C802 C803 1.338 . S
C802 N805 1.377 . S
C802 H822 0.930 . S
C803 N801 1.375 . S
C803 C802 1.338 . S
C803 H807 0.931 . S
C804 N801 1.313 . S
C804 N805 1.344 . S
C804 H808 0.930 . S
N805 C802 1.377 . S
N805 C804 1.344 . S
O806 Co798 2.055 . S
O806 C810 1.253 . S
H807 C803 0.931 . S
H808 C804 0.930 . S
O809 Co798 2.039 . S
O809 C799 1.265 . S
C810 O806 1.253 . S
C810 O811 1.227 . S
O811 C810 1.227 . S
N812 Co798 2.140 . S
N812 C815 1.346 . S
N812 C816 1.345 . S
C813 C814 1.387 . S
C813 C817 1.391 . S
C814 C813 1.387 . S
C814 C815 1.369 . S
C814 H823 0.929 . S
C815 N812 1.346 . S
C815 C814 1.369 . S
C815 H818 0.928 . S
C816 N812 1.345 . S
C816 C817 1.371 . S
C816 H819 0.931 . S
C817 C813 1.391 . S
C817 C816 1.371 . S
C817 H824 0.930 . S
H818 C815 0.928 . S
H819 C816 0.931 . S
H820 C796 0.930 . S
H821 C793 0.930 . S
H822 C802 0.930 . S
H823 C814 0.929 . S
H824 C817 0.930 . S
C825 C826 1.351 . S
C825 N828 1.368 . S
C825 H830 0.931 . S
C826 C825 1.351 . S
C826 N827 1.373 . S
C826 H854 0.930 . S
N827 C826 1.373 . S
N827 C829 1.340 . S
N828 C825 1.368 . S
N828 C829 1.321 . S
N828 Co831 2.135 . S
C829 N827 1.340 . S
C829 N828 1.321 . S
C829 H853 0.930 . S
H830 C825 0.931 . S
Co831 N828 2.135 . S
Co831 N834 2.121 . S
Co831 O839 2.055 . S
Co831 O842 2.039 . S
Co831 N845 2.140 . S
C832 O833 1.227 . S
C832 O842 1.265 . S
O833 C832 1.227 . S
N834 Co831 2.121 . S
N834 C836 1.375 . S
N834 C837 1.313 . S
C835 C836 1.338 . S
C835 N838 1.377 . S
C835 H855 0.930 . S
C836 N834 1.375 . S
C836 C835 1.338 . S
C836 H840 0.931 . S
C837 N834 1.313 . S
C837 N838 1.344 . S
C837 H841 0.930 . S
N838 C835 1.377 . S
N838 C837 1.344 . S
O839 Co831 2.055 . S
O839 C843 1.253 . S
H840 C836 0.931 . S
H841 C837 0.930 . S
O842 Co831 2.039 . S
O842 C832 1.265 . S
C843 O839 1.253 . S
C843 O844 1.227 . S
O844 C843 1.227 . S
N845 Co831 2.140 . S
N845 C848 1.346 . S
N845 C849 1.345 . S
C846 C847 1.387 . S
C846 C850 1.391 . S
C847 C846 1.387 . S
C847 C848 1.369 . S
C847 H856 0.929 . S
C848 N845 1.346 . S
C848 C847 1.369 . S
C848 H851 0.928 . S
C849 N845 1.345 . S
C849 C850 1.371 . S
C849 H852 0.931 . S
C850 C846 1.391 . S
C850 C849 1.371 . S
C850 H857 0.930 . S
H851 C848 0.928 . S
H852 C849 0.931 . S
H853 C829 0.930 . S
H854 C826 0.930 . S
H855 C835 0.930 . S
H856 C847 0.929 . S
H857 C850 0.930 . S
C858 C859 1.351 . S
C858 N861 1.368 . S
C858 H863 0.931 . S
C859 C858 1.351 . S
C859 N860 1.373 . S
C859 H887 0.930 . S
N860 C859 1.373 . S
N860 C862 1.340 . S
N861 C858 1.368 . S
N861 C862 1.321 . S
N861 Co864 2.135 . S
C862 N860 1.340 . S
C862 N861 1.321 . S
C862 H886 0.930 . S
H863 C858 0.931 . S
Co864 N861 2.135 . S
Co864 N867 2.121 . S
Co864 O872 2.055 . S
Co864 O875 2.039 . S
Co864 N878 2.140 . S
C865 O866 1.227 . S
C865 O875 1.265 . S
O866 C865 1.227 . S
N867 Co864 2.121 . S
N867 C869 1.375 . S
N867 C870 1.313 . S
C868 C869 1.338 . S
C868 N871 1.377 . S
C868 H888 0.930 . S
C869 N867 1.375 . S
C869 C868 1.338 . S
C869 H873 0.931 . S
C870 N867 1.313 . S
C870 N871 1.344 . S
C870 H874 0.930 . S
N871 C868 1.377 . S
N871 C870 1.344 . S
O872 Co864 2.055 . S
O872 C876 1.253 . S
H873 C869 0.931 . S
H874 C870 0.930 . S
O875 Co864 2.039 . S
O875 C865 1.265 . S
C876 O872 1.253 . S
C876 O877 1.227 . S
O877 C876 1.227 . S
N878 Co864 2.140 . S
N878 C881 1.346 . S
N878 C882 1.345 . S
C879 C880 1.387 . S
C879 C883 1.391 . S
C880 C879 1.387 . S
C880 C881 1.369 . S
C880 H889 0.929 . S
C881 N878 1.346 . S
C881 C880 1.369 . S
C881 H884 0.928 . S
C882 N878 1.345 . S
C882 C883 1.371 . S
C882 H885 0.931 . S
C883 C879 1.391 . S
C883 C882 1.371 . S
C883 H890 0.930 . S
H884 C881 0.928 . S
H885 C882 0.931 . S
H886 C862 0.930 . S
H887 C859 0.930 . S
H888 C868 0.930 . S
H889 C880 0.929 . S
H890 C883 0.930 . S
C891 C892 1.351 . S
C891 N894 1.368 . S
C891 H896 0.931 . S
C892 C891 1.351 . S
C892 N893 1.373 . S
C892 H920 0.930 . S
N893 C892 1.373 . S
N893 C895 1.340 . S
N894 C891 1.368 . S
N894 C895 1.321 . S
N894 Co897 2.135 . S
C895 N893 1.340 . S
C895 N894 1.321 . S
C895 H919 0.930 . S
H896 C891 0.931 . S
Co897 N894 2.135 . S
Co897 N900 2.121 . S
Co897 O905 2.055 . S
Co897 O908 2.039 . S
Co897 N911 2.140 . S
C898 O899 1.227 . S
C898 O908 1.265 . S
O899 C898 1.227 . S
N900 Co897 2.121 . S
N900 C902 1.375 . S
N900 C903 1.313 . S
C901 C902 1.338 . S
C901 N904 1.377 . S
C901 H921 0.930 . S
C902 N900 1.375 . S
C902 C901 1.338 . S
C902 H906 0.931 . S
C903 N900 1.313 . S
C903 N904 1.344 . S
C903 H907 0.930 . S
N904 C901 1.377 . S
N904 C903 1.344 . S
O905 Co897 2.055 . S
O905 C909 1.253 . S
H906 C902 0.931 . S
H907 C903 0.930 . S
O908 Co897 2.039 . S
O908 C898 1.265 . S
C909 O905 1.253 . S
C909 O910 1.227 . S
O910 C909 1.227 . S
N911 Co897 2.140 . S
N911 C914 1.346 . S
N911 C915 1.345 . S
C912 C913 1.387 . S
C912 C916 1.391 . S
C913 C912 1.387 . S
C913 C914 1.369 . S
C913 H922 0.929 . S
C914 N911 1.346 . S
C914 C913 1.369 . S
C914 H917 0.928 . S
C915 N911 1.345 . S
C915 C916 1.371 . S
C915 H918 0.931 . S
C916 C912 1.391 . S
C916 C915 1.371 . S
C916 H923 0.930 . S
H917 C914 0.928 . S
H918 C915 0.931 . S
H919 C895 0.930 . S
H920 C892 0.930 . S
H921 C901 0.930 . S
H922 C913 0.929 . S
H923 C916 0.930 . S
C924 C925 1.351 . S
C924 N927 1.368 . S
C924 H929 0.931 . S
C925 C924 1.351 . S
C925 N926 1.373 . S
C925 H953 0.930 . S
N926 C925 1.373 . S
N926 C928 1.340 . S
N927 C924 1.368 . S
N927 C928 1.321 . S
N927 Co930 2.135 . S
C928 N926 1.340 . S
C928 N927 1.321 . S
C928 H952 0.930 . S
H929 C924 0.931 . S
Co930 N927 2.135 . S
Co930 N933 2.121 . S
Co930 O938 2.055 . S
Co930 O941 2.039 . S
Co930 N944 2.140 . S
C931 O932 1.227 . S
C931 O941 1.265 . S
O932 C931 1.227 . S
N933 Co930 2.121 . S
N933 C935 1.375 . S
N933 C936 1.313 . S
C934 C935 1.338 . S
C934 N937 1.377 . S
C934 H954 0.930 . S
C935 N933 1.375 . S
C935 C934 1.338 . S
C935 H939 0.931 . S
C936 N933 1.313 . S
C936 N937 1.344 . S
C936 H940 0.930 . S
N937 C934 1.377 . S
N937 C936 1.344 . S
O938 Co930 2.055 . S
O938 C942 1.253 . S
H939 C935 0.931 . S
H940 C936 0.930 . S
O941 Co930 2.039 . S
O941 C931 1.265 . S
C942 O938 1.253 . S
C942 O943 1.227 . S
O943 C942 1.227 . S
N944 Co930 2.140 . S
N944 C947 1.346 . S
N944 C948 1.345 . S
C945 C946 1.387 . S
C945 C949 1.391 . S
C946 C945 1.387 . S
C946 C947 1.369 . S
C946 H955 0.929 . S
C947 N944 1.346 . S
C947 C946 1.369 . S
C947 H950 0.928 . S
C948 N944 1.345 . S
C948 C949 1.371 . S
C948 H951 0.931 . S
C949 C945 1.391 . S
C949 C948 1.371 . S
C949 H956 0.930 . S
H950 C947 0.928 . S
H951 C948 0.931 . S
H952 C928 0.930 . S
H953 C925 0.930 . S
H954 C934 0.930 . S
H955 C946 0.929 . S
H956 C949 0.930 . S
C957 C958 1.351 . S
C957 N960 1.368 . S
C957 H962 0.931 . S
C958 C957 1.351 . S
C958 N959 1.373 . S
C958 H986 0.930 . S
N959 C958 1.373 . S
N959 C961 1.340 . S
N960 C957 1.368 . S
N960 C961 1.321 . S
N960 Co963 2.135 . S
C961 N959 1.340 . S
C961 N960 1.321 . S
C961 H985 0.930 . S
H962 C957 0.931 . S
Co963 N960 2.135 . S
Co963 N966 2.121 . S
Co963 O971 2.055 . S
Co963 O974 2.039 . S
Co963 N977 2.140 . S
C964 O965 1.227 . S
C964 O974 1.265 . S
O965 C964 1.227 . S
N966 Co963 2.121 . S
N966 C968 1.375 . S
N966 C969 1.313 . S
C967 C968 1.338 . S
C967 N970 1.377 . S
C967 H987 0.930 . S
C968 N966 1.375 . S
C968 C967 1.338 . S
C968 H972 0.931 . S
C969 N966 1.313 . S
C969 N970 1.344 . S
C969 H973 0.930 . S
N970 C967 1.377 . S
N970 C969 1.344 . S
O971 Co963 2.055 . S
O971 C975 1.253 . S
H972 C968 0.931 . S
H973 C969 0.930 . S
O974 Co963 2.039 . S
O974 C964 1.265 . S
C975 O971 1.253 . S
C975 O976 1.227 . S
O976 C975 1.227 . S
N977 Co963 2.140 . S
N977 C980 1.346 . S
N977 C981 1.345 . S
C978 C979 1.387 . S
C978 C982 1.391 . S
C979 C978 1.387 . S
C979 C980 1.369 . S
C979 H988 0.929 . S
C980 N977 1.346 . S
C980 C979 1.369 . S
C980 H983 0.928 . S
C981 N977 1.345 . S
C981 C982 1.371 . S
C981 H984 0.931 . S
C982 C978 1.391 . S
C982 C981 1.371 . S
C982 H989 0.930 . S
H983 C980 0.928 . S
H984 C981 0.931 . S
H985 C961 0.930 . S
H986 C958 0.930 . S
H987 C967 0.930 . S
H988 C979 0.929 . S
H989 C982 0.930 . S
C990 C991 1.351 . S
C990 N993 1.368 . S
C990 H995 0.931 . S
C991 C990 1.351 . S
C991 N992 1.373 . S
C991 H1019 0.930 . S
N992 C991 1.373 . S
N992 C994 1.340 . S
N993 C990 1.368 . S
N993 C994 1.321 . S
N993 Co996 2.135 . S
C994 N992 1.340 . S
C994 N993 1.321 . S
C994 H1018 0.930 . S
H995 C990 0.931 . S
Co996 N993 2.135 . S
Co996 N999 2.121 . S
Co996 O1004 2.055 . S
Co996 O1007 2.039 . S
Co996 N1010 2.140 . S
C997 O998 1.227 . S
C997 O1007 1.265 . S
O998 C997 1.227 . S
N999 Co996 2.121 . S
N999 C1001 1.375 . S
N999 C1002 1.313 . S
C1000 C1001 1.338 . S
C1000 N1003 1.377 . S
C1000 H1020 0.930 . S
C1001 N999 1.375 . S
C1001 C1000 1.338 . S
C1001 H1005 0.931 . S
C1002 N999 1.313 . S
C1002 N1003 1.344 . S
C1002 H1006 0.930 . S
N1003 C1000 1.377 . S
N1003 C1002 1.344 . S
O1004 Co996 2.055 . S
O1004 C1008 1.253 . S
H1005 C1001 0.931 . S
H1006 C1002 0.930 . S
O1007 Co996 2.039 . S
O1007 C997 1.265 . S
C1008 O1004 1.253 . S
C1008 O1009 1.227 . S
O1009 C1008 1.227 . S
N1010 Co996 2.140 . S
N1010 C1013 1.346 . S
N1010 C1014 1.345 . S
C1011 C1012 1.387 . S
C1011 C1015 1.391 . S
C1012 C1011 1.387 . S
C1012 C1013 1.369 . S
C1012 H1021 0.929 . S
C1013 N1010 1.346 . S
C1013 C1012 1.369 . S
C1013 H1016 0.928 . S
C1014 N1010 1.345 . S
C1014 C1015 1.371 . S
C1014 H1017 0.931 . S
C1015 C1011 1.391 . S
C1015 C1014 1.371 . S
C1015 H1022 0.930 . S
H1016 C1013 0.928 . S
H1017 C1014 0.931 . S
H1018 C994 0.930 . S
H1019 C991 0.930 . S
H1020 C1000 0.930 . S
H1021 C1012 0.929 . S
H1022 C1015 0.930 . S
C1023 C1024 1.351 . S
C1023 N1026 1.368 . S
C1023 H1028 0.931 . S
C1024 C1023 1.351 . S
C1024 N1025 1.373 . S
C1024 H1052 0.930 . S
N1025 C1024 1.373 . S
N1025 C1027 1.340 . S
N1026 C1023 1.368 . S
N1026 C1027 1.321 . S
N1026 Co1029 2.135 . S
C1027 N1025 1.340 . S
C1027 N1026 1.321 . S
C1027 H1051 0.930 . S
H1028 C1023 0.931 . S
Co1029 N1026 2.135 . S
Co1029 N1032 2.121 . S
Co1029 O1037 2.055 . S
Co1029 O1040 2.039 . S
Co1029 N1043 2.140 . S
C1030 O1031 1.227 . S
C1030 O1040 1.265 . S
O1031 C1030 1.227 . S
N1032 Co1029 2.121 . S
N1032 C1034 1.375 . S
N1032 C1035 1.313 . S
C1033 C1034 1.338 . S
C1033 N1036 1.377 . S
C1033 H1053 0.930 . S
C1034 N1032 1.375 . S
C1034 C1033 1.338 . S
C1034 H1038 0.931 . S
C1035 N1032 1.313 . S
C1035 N1036 1.344 . S
C1035 H1039 0.930 . S
N1036 C1033 1.377 . S
N1036 C1035 1.344 . S
O1037 Co1029 2.055 . S
O1037 C1041 1.253 . S
H1038 C1034 0.931 . S
H1039 C1035 0.930 . S
O1040 Co1029 2.039 . S
O1040 C1030 1.265 . S
C1041 O1037 1.253 . S
C1041 O1042 1.227 . S
O1042 C1041 1.227 . S
N1043 Co1029 2.140 . S
N1043 C1046 1.346 . S
N1043 C1047 1.345 . S
C1044 C1045 1.387 . S
C1044 C1048 1.391 . S
C1045 C1044 1.387 . S
C1045 C1046 1.369 . S
C1045 H1054 0.929 . S
C1046 N1043 1.346 . S
C1046 C1045 1.369 . S
C1046 H1049 0.928 . S
C1047 N1043 1.345 . S
C1047 C1048 1.371 . S
C1047 H1050 0.931 . S
C1048 C1044 1.391 . S
C1048 C1047 1.371 . S
C1048 H1055 0.930 . S
H1049 C1046 0.928 . S
H1050 C1047 0.931 . S
H1051 C1027 0.930 . S
H1052 C1024 0.930 . S
H1053 C1033 0.930 . S
H1054 C1045 0.929 . S
H1055 C1048 0.930 . S
C1056 C1057 1.369 . S
C1056 C1058 1.419 . S
C1056 H1060 0.930 . S
C1057 C1056 1.369 . S
C1057 C1066 1.429 . S
C1058 C1056 1.419 . S
C1058 C1059 1.363 . S
C1058 H1061 0.929 . S
C1059 C1058 1.363 . S
C1059 C1065 1.428 . S
H1060 C1056 0.930 . S
H1061 C1058 0.929 . S
S1062 N1063 1.613 . S
S1062 N1064 1.610 . S
N1063 S1062 1.613 . S
N1063 C1066 1.350 . S
N1064 S1062 1.610 . S
N1064 C1065 1.351 . S
C1065 C1059 1.428 . S
C1065 N1064 1.351 . S
C1065 C1066 1.434 . S
C1066 C1057 1.429 . S
C1066 N1063 1.350 . S
C1066 C1065 1.434 . S
C1067 C1068 1.369 . S
C1067 C1069 1.419 1_655 S
C1067 H1071 0.930 . S
C1068 C1067 1.369 . S
C1068 C1077 1.429 1_565 S
C1069 C1067 1.419 1_455 S
C1069 C1070 1.363 1_565 S
C1069 H1072 0.929 . S
C1070 C1069 1.363 1_545 S
C1070 C1076 1.428 . S
H1071 C1067 0.930 . S
H1072 C1069 0.929 . S
S1073 N1074 1.613 . S
S1073 N1075 1.610 1_655 S
N1074 S1073 1.613 . S
N1074 C1077 1.350 . S
N1075 S1073 1.610 1_455 S
N1075 C1076 1.351 . S
C1076 C1070 1.428 . S
C1076 N1075 1.351 . S
C1076 C1077 1.434 1_455 S
C1077 C1068 1.429 1_545 S
C1077 N1074 1.350 . S
C1077 C1076 1.434 1_655 S
C1078 C1079 1.369 . S
C1078 C1080 1.419 . S
C1078 H1082 0.930 . S
C1079 C1078 1.369 . S
C1079 C1088 1.429 . S
C1080 C1078 1.419 . S
C1080 C1081 1.363 . S
C1080 H1083 0.929 . S
C1081 C1080 1.363 . S
C1081 C1087 1.428 . S
H1082 C1078 0.930 . S
H1083 C1080 0.929 . S
S1084 N1085 1.613 . S
S1084 N1086 1.610 . S
N1085 S1084 1.613 . S
N1085 C1088 1.350 . S
N1086 S1084 1.610 . S
N1086 C1087 1.351 . S
C1087 C1081 1.428 . S
C1087 N1086 1.351 . S
C1087 C1088 1.434 . S
C1088 C1079 1.429 . S
C1088 N1085 1.350 . S
C1088 C1087 1.434 . S
C1089 C1090 1.369 1_544 S
C1089 C1091 1.419 . S
C1089 H1093 0.930 . S
C1090 C1089 1.369 1_566 S
C1090 C1099 1.429 . S
C1091 C1089 1.419 . S
C1091 C1092 1.363 . S
C1091 H1094 0.929 . S
C1092 C1091 1.363 . S
C1092 C1098 1.428 1_544 S
H1093 C1089 0.930 . S
H1094 C1091 0.929 . S
S1095 N1096 1.613 . S
S1095 N1097 1.610 . S
N1096 S1095 1.613 . S
N1096 C1099 1.350 . S
N1097 S1095 1.610 . S
N1097 C1098 1.351 . S
C1098 C1092 1.428 1_566 S
C1098 N1097 1.351 . S
C1098 C1099 1.434 . S
C1099 C1090 1.429 . S
C1099 N1096 1.350 . S
C1099 C1098 1.434 . S
C1100 C1101 1.369 . S
C1100 C1102 1.419 . S
C1100 H1104 0.930 . S
C1101 C1100 1.369 . S
C1101 C1110 1.429 . S
C1102 C1100 1.419 . S
C1102 C1103 1.363 . S
C1102 H1105 0.929 . S
C1103 C1102 1.363 . S
C1103 C1109 1.428 . S
H1104 C1100 0.930 . S
H1105 C1102 0.929 . S
S1106 N1107 1.613 . S
S1106 N1108 1.610 . S
N1107 S1106 1.613 . S
N1107 C1110 1.350 . S
N1108 S1106 1.610 . S
N1108 C1109 1.351 . S
C1109 C1103 1.428 . S
C1109 N1108 1.351 . S
C1109 C1110 1.434 . S
C1110 C1101 1.429 . S
C1110 N1107 1.350 . S
C1110 C1109 1.434 . S
C1111 C1112 1.369 . S
C1111 C1113 1.419 1_565 S
C1111 H1115 0.930 . S
C1112 C1111 1.369 . S
C1112 C1121 1.429 . S
C1113 C1111 1.419 1_545 S
C1113 C1114 1.363 . S
C1113 H1116 0.929 . S
C1114 C1113 1.363 . S
C1114 C1120 1.428 . S
H1115 C1111 0.930 . S
H1116 C1113 0.929 . S
S1117 N1118 1.613 1_545 S
S1117 N1119 1.610 . S
N1118 S1117 1.613 1_565 S
N1118 C1121 1.350 . S
N1119 S1117 1.610 . S
N1119 C1120 1.351 . S
C1120 C1114 1.428 . S
C1120 N1119 1.351 . S
C1120 C1121 1.434 1_545 S
C1121 C1112 1.429 . S
C1121 N1118 1.350 . S
C1121 C1120 1.434 1_565 S
C1122 C1123 1.369 . S
C1122 C1124 1.419 . S
C1122 H1126 0.930 . S
C1123 C1122 1.369 . S
C1123 C1132 1.429 . S
C1124 C1122 1.419 . S
C1124 C1125 1.363 . S
C1124 H1127 0.929 . S
C1125 C1124 1.363 . S
C1125 C1131 1.428 . S
H1126 C1122 0.930 . S
H1127 C1124 0.929 . S
S1128 N1129 1.613 . S
S1128 N1130 1.610 . S
N1129 S1128 1.613 . S
N1129 C1132 1.350 . S
N1130 S1128 1.610 . S
N1130 C1131 1.351 . S
C1131 C1125 1.428 . S
C1131 N1130 1.351 . S
C1131 C1132 1.434 . S
C1132 C1123 1.429 . S
C1132 N1129 1.350 . S
C1132 C1131 1.434 . S
C1133 C1134 1.369 . S
C1133 C1135 1.419 1_455 S
C1133 H1137 0.930 . S
C1134 C1133 1.369 . S
C1134 C1143 1.429 1_564 S
C1135 C1133 1.419 1_655 S
C1135 C1136 1.363 1_564 S
C1135 H1138 0.929 . S
C1136 C1135 1.363 1_546 S
C1136 C1142 1.428 . S
H1137 C1133 0.930 . S
H1138 C1135 0.929 . S
S1139 N1140 1.613 . S
S1139 N1141 1.610 . S
N1140 S1139 1.613 . S
N1140 C1143 1.350 . S
N1141 S1139 1.610 . S
N1141 C1142 1.351 1_455 S
C1142 C1136 1.428 . S
C1142 N1141 1.351 1_655 S
C1142 C1143 1.434 1_655 S
C1143 C1134 1.429 1_546 S
C1143 N1140 1.350 . S
C1143 C1142 1.434 1_455 S
C1144 C1145 1.369 . S
C1144 C1146 1.419 . S
C1144 H1148 0.930 . S
C1145 C1144 1.369 . S
C1145 C1154 1.429 . S
C1146 C1144 1.419 . S
C1146 C1147 1.363 . S
C1146 H1149 0.929 . S
C1147 C1146 1.363 . S
C1147 C1153 1.428 . S
H1148 C1144 0.930 . S
H1149 C1146 0.929 . S
S1150 N1151 1.613 . S
S1150 N1152 1.610 . S
N1151 S1150 1.613 . S
N1151 C1154 1.350 . S
N1152 S1150 1.610 . S
N1152 C1153 1.351 . S
C1153 C1147 1.428 . S
C1153 N1152 1.351 . S
C1153 C1154 1.434 . S
C1154 C1145 1.429 . S
C1154 N1151 1.350 . S
C1154 C1153 1.434 . S
C1155 C1156 1.369 . S
C1155 C1157 1.419 . S
C1155 H1159 0.930 . S
C1156 C1155 1.369 . S
C1156 C1165 1.429 . S
C1157 C1155 1.419 . S
C1157 C1158 1.363 . S
C1157 H1160 0.929 . S
C1158 C1157 1.363 . S
C1158 C1164 1.428 . S
H1159 C1155 0.930 . S
H1160 C1157 0.929 . S
S1161 N1162 1.613 . S
S1161 N1163 1.610 . S
N1162 S1161 1.613 . S
N1162 C1165 1.350 . S
N1163 S1161 1.610 . S
N1163 C1164 1.351 . S
C1164 C1158 1.428 . S
C1164 N1163 1.351 . S
C1164 C1165 1.434 . S
C1165 C1156 1.429 . S
C1165 N1162 1.350 . S
C1165 C1164 1.434 . S
C1166 C1167 1.369 . S
C1166 C1168 1.419 . S
C1166 H1170 0.930 . S
C1167 C1166 1.369 . S
C1167 C1176 1.429 . S
C1168 C1166 1.419 . S
C1168 C1169 1.363 . S
C1168 H1171 0.929 . S
C1169 C1168 1.363 . S
C1169 C1175 1.428 . S
H1170 C1166 0.930 . S
H1171 C1168 0.929 . S
S1172 N1173 1.613 . S
S1172 N1174 1.610 . S
N1173 S1172 1.613 . S
N1173 C1176 1.350 . S
N1174 S1172 1.610 . S
N1174 C1175 1.351 . S
C1175 C1169 1.428 . S
C1175 N1174 1.351 . S
C1175 C1176 1.434 . S
C1176 C1167 1.429 . S
C1176 N1173 1.350 . S
C1176 C1175 1.434 . S
C1177 C1178 1.369 . S
C1177 C1179 1.419 . S
C1177 H1181 0.930 . S
C1178 C1177 1.369 . S
C1178 C1187 1.429 . S
C1179 C1177 1.419 . S
C1179 C1180 1.363 . S
C1179 H1182 0.929 . S
C1180 C1179 1.363 . S
C1180 C1186 1.428 . S
H1181 C1177 0.930 . S
H1182 C1179 0.929 . S
S1183 N1184 1.613 . S
S1183 N1185 1.610 . S
N1184 S1183 1.613 . S
N1184 C1187 1.350 . S
N1185 S1183 1.610 . S
N1185 C1186 1.351 . S
C1186 C1180 1.428 . S
C1186 N1185 1.351 . S
C1186 C1187 1.434 . S
C1187 C1178 1.429 . S
C1187 N1184 1.350 . S
C1187 C1186 1.434 . S
C1188 C1189 1.369 . S
C1188 C1190 1.419 . S
C1188 H1192 0.930 . S
C1189 C1188 1.369 . S
C1189 C1198 1.429 1_556 S
C1190 C1188 1.419 . S
C1190 C1191 1.363 1_556 S
C1190 H1193 0.929 . S
C1191 C1190 1.363 1_554 S
C1191 C1197 1.428 . S
H1192 C1188 0.930 . S
H1193 C1190 0.929 . S
S1194 N1195 1.613 . S
S1194 N1196 1.610 . S
N1195 S1194 1.613 . S
N1195 C1198 1.350 . S
N1196 S1194 1.610 . S
N1196 C1197 1.351 . S
C1197 C1191 1.428 . S
C1197 N1196 1.351 . S
C1197 C1198 1.434 . S
C1198 C1189 1.429 1_554 S
C1198 N1195 1.350 . S
C1198 C1197 1.434 . S
C1199 C1200 1.369 . S
C1199 C1201 1.419 1_455 S
C1199 H1203 0.930 . S
C1200 C1199 1.369 . S
C1200 C1209 1.451 . S
C1201 C1199 1.419 1_655 S
C1201 C1202 1.363 . S
C1201 H1204 0.929 . S
C1202 C1201 1.363 . S
C1202 C1208 1.428 . S
H1203 C1199 0.930 . S
H1204 C1201 0.929 . S
S1205 N1206 1.613 . S
S1205 N1207 1.610 . S
N1206 S1205 1.613 . S
N1206 C1209 1.348 1_655 S
N1207 S1205 1.610 . S
N1207 C1208 1.351 . S
C1208 C1202 1.428 . S
C1208 N1207 1.351 . S
C1208 C1209 1.412 1_655 S
C1209 C1200 1.451 . S
C1209 N1206 1.348 1_455 S
C1209 C1208 1.412 1_455 S
C1210 C1211 1.369 . S
C1210 C1212 1.419 1_455 S
C1210 H1214 0.930 . S
C1211 C1210 1.369 . S
C1211 C1220 1.429 1_556 S
C1212 C1210 1.419 1_655 S
C1212 C1213 1.363 1_556 S
C1212 H1215 0.929 . S
C1213 C1212 1.363 1_554 S
C1213 C1219 1.428 . S
H1214 C1210 0.930 . S
H1215 C1212 0.929 . S
S1216 N1217 1.613 . S
S1216 N1218 1.610 . S
N1217 S1216 1.613 . S
N1217 C1220 1.350 . S
N1218 S1216 1.610 . S
N1218 C1219 1.351 1_455 S
C1219 C1213 1.428 . S
C1219 N1218 1.351 1_655 S
C1219 C1220 1.434 1_655 S
C1220 C1211 1.429 1_554 S
C1220 N1217 1.350 . S
C1220 C1219 1.434 1_455 S
C1221 C1222 1.369 . S
C1221 C1223 1.419 . S
C1221 H1225 0.930 . S
C1222 C1221 1.369 . S
C1222 C1231 1.429 . S
C1223 C1221 1.419 . S
C1223 C1224 1.363 . S
C1223 H1226 0.929 . S
C1224 C1223 1.363 . S
C1224 C1230 1.428 . S
H1225 C1221 0.930 . S
H1226 C1223 0.929 . S
S1227 N1228 1.613 . S
S1227 N1229 1.610 . S
N1228 S1227 1.613 . S
N1228 C1231 1.350 . S
N1229 S1227 1.610 . S
N1229 C1230 1.351 . S
C1230 C1224 1.428 . S
C1230 N1229 1.351 . S
C1230 C1231 1.434 . S
C1231 C1222 1.429 . S
C1231 N1228 1.350 . S
C1231 C1230 1.434 . S
C1232 C1233 1.369 . S
C1232 C1234 1.419 . S
C1232 H1236 0.930 . S
C1233 C1232 1.369 . S
C1233 C1242 1.429 . S
C1234 C1232 1.419 . S
C1234 C1235 1.363 . S
C1234 H1237 0.929 . S
C1235 C1234 1.363 . S
C1235 C1241 1.428 . S
H1236 C1232 0.930 . S
H1237 C1234 0.929 . S
S1238 N1239 1.613 . S
S1238 N1240 1.610 . S
N1239 S1238 1.613 . S
N1239 C1242 1.350 . S
N1240 S1238 1.610 . S
N1240 C1241 1.351 . S
C1241 C1235 1.428 . S
C1241 N1240 1.351 . S
C1241 C1242 1.434 . S
C1242 C1233 1.429 . S
C1242 N1239 1.350 . S
C1242 C1241 1.434 . S
C1243 C1244 1.369 1_455 S
C1243 C1245 1.419 . S
C1243 H1247 0.930 . S
C1244 C1243 1.369 1_655 S
C1244 C1253 1.429 . S
C1245 C1243 1.419 . S
C1245 C1246 1.363 . S
C1245 H1248 0.929 . S
C1246 C1245 1.363 . S
C1246 C1252 1.428 . S
H1247 C1243 0.930 . S
H1248 C1245 0.929 . S
S1249 N1250 1.613 . S
S1249 N1251 1.610 1_655 S
N1250 S1249 1.613 . S
N1250 C1253 1.350 . S
N1251 S1249 1.610 1_455 S
N1251 C1252 1.351 . S
C1252 C1246 1.428 . S
C1252 N1251 1.351 . S
C1252 C1253 1.434 1_455 S
C1253 C1244 1.429 . S
C1253 N1250 1.350 . S
C1253 C1252 1.434 1_655 S
C1254 C1255 1.369 . S
C1254 C1256 1.419 . S
C1254 H1258 0.930 . S
C1255 C1254 1.369 . S
C1255 C1264 1.429 . S
C1256 C1254 1.419 . S
C1256 C1257 1.363 . S
C1256 H1259 0.929 . S
C1257 C1256 1.363 . S
C1257 C1263 1.428 . S
H1258 C1254 0.930 . S
H1259 C1256 0.929 . S
S1260 N1261 1.613 . S
S1260 N1262 1.610 . S
N1261 S1260 1.613 . S
N1261 C1264 1.350 . S
N1262 S1260 1.610 . S
N1262 C1263 1.351 . S
C1263 C1257 1.428 . S
C1263 N1262 1.351 . S
C1263 C1264 1.434 . S
C1264 C1255 1.429 . S
C1264 N1261 1.350 . S
C1264 C1263 1.434 . S
C1265 C1266 1.369 . S
C1265 C1267 1.419 . S
C1265 H1269 0.930 . S
C1266 C1265 1.369 . S
C1266 C1275 1.429 . S
C1267 C1265 1.419 . S
C1267 C1268 1.363 . S
C1267 H1270 0.929 . S
C1268 C1267 1.363 . S
C1268 C1274 1.428 . S
H1269 C1265 0.930 . S
H1270 C1267 0.929 . S
S1271 N1272 1.613 . S
S1271 N1273 1.610 . S
N1272 S1271 1.613 . S
N1272 C1275 1.350 . S
N1273 S1271 1.610 . S
N1273 C1274 1.351 . S
C1274 C1268 1.428 . S
C1274 N1273 1.351 . S
C1274 C1275 1.434 . S
C1275 C1266 1.429 . S
C1275 N1272 1.350 . S
C1275 C1274 1.434 . S
C1276 C1277 1.369 . S
C1276 C1278 1.419 . S
C1276 H1280 0.930 . S
C1277 C1276 1.369 . S
C1277 C1286 1.429 . S
C1278 C1276 1.419 . S
C1278 C1279 1.363 . S
C1278 H1281 0.929 . S
C1279 C1278 1.363 . S
C1279 C1285 1.428 . S
H1280 C1276 0.930 . S
H1281 C1278 0.929 . S
S1282 N1283 1.613 . S
S1282 N1284 1.610 . S
N1283 S1282 1.613 . S
N1283 C1286 1.350 . S
N1284 S1282 1.610 . S
N1284 C1285 1.351 . S
C1285 C1279 1.428 . S
C1285 N1284 1.351 . S
C1285 C1286 1.434 . S
C1286 C1277 1.429 . S
C1286 N1283 1.350 . S
C1286 C1285 1.434 . S
C1287 C1288 1.369 . S
C1287 C1289 1.419 . S
C1287 H1291 0.930 . S
C1288 C1287 1.369 . S
C1288 C1297 1.429 . S
C1289 C1287 1.419 . S
C1289 C1290 1.363 . S
C1289 H1292 0.929 . S
C1290 C1289 1.363 . S
C1290 C1296 1.428 . S
H1291 C1287 0.930 . S
H1292 C1289 0.929 . S
S1293 N1294 1.613 . S
S1293 N1295 1.610 . S
N1294 S1293 1.613 . S
N1294 C1297 1.350 . S
N1295 S1293 1.610 . S
N1295 C1296 1.351 . S
C1296 C1290 1.428 . S
C1296 N1295 1.351 . S
C1296 C1297 1.434 . S
C1297 C1288 1.429 . S
C1297 N1294 1.350 . S
C1297 C1296 1.434 . S
C1298 C1299 1.369 . S
C1298 C1300 1.419 . S
C1298 H1302 0.930 . S
C1299 C1298 1.369 . S
C1299 C1308 1.429 . S
C1300 C1298 1.419 . S
C1300 C1301 1.363 . S
C1300 H1303 0.929 . S
C1301 C1300 1.363 . S
C1301 C1307 1.428 . S
H1302 C1298 0.930 . S
H1303 C1300 0.929 . S
S1304 N1305 1.613 . S
S1304 N1306 1.610 . S
N1305 S1304 1.613 . S
N1305 C1308 1.350 . S
N1306 S1304 1.610 . S
N1306 C1307 1.351 . S
C1307 C1301 1.428 . S
C1307 N1306 1.351 . S
C1307 C1308 1.434 . S
C1308 C1299 1.429 . S
C1308 N1305 1.350 . S
C1308 C1307 1.434 . S
C1309 C1310 1.369 1_455 S
C1309 C1311 1.419 . S
C1309 H1313 0.930 1_455 S
C1310 C1309 1.369 1_655 S
C1310 C1319 1.429 . S
C1311 C1309 1.419 . S
C1311 C1312 1.363 . S
C1311 H1314 0.929 . S
C1312 C1311 1.363 . S
C1312 C1318 1.428 . S
H1313 C1309 0.930 1_655 S
H1314 C1311 0.929 . S
S1315 N1316 1.613 1_455 S
S1315 N1317 1.610 . S
N1316 S1315 1.613 1_655 S
N1316 C1319 1.350 . S
N1317 S1315 1.610 . S
N1317 C1318 1.351 . S
C1318 C1312 1.428 . S
C1318 N1317 1.351 . S
C1318 C1319 1.434 1_455 S
C1319 C1310 1.429 . S
C1319 N1316 1.350 . S
C1319 C1318 1.434 1_655 S
C1320 C1321 1.369 . S
C1320 C1322 1.419 . S
C1320 H1324 0.930 . S
C1321 C1320 1.369 . S
C1321 C1330 1.429 . S
C1322 C1320 1.419 . S
C1322 C1323 1.363 . S
C1322 H1325 0.929 . S
C1323 C1322 1.363 . S
C1323 C1329 1.428 . S
H1324 C1320 0.930 . S
H1325 C1322 0.929 . S
S1326 N1327 1.613 . S
S1326 N1328 1.610 . S
N1327 S1326 1.613 . S
N1327 C1330 1.350 . S
N1328 S1326 1.610 . S
N1328 C1329 1.351 . S
C1329 C1323 1.428 . S
C1329 N1328 1.351 . S
C1329 C1330 1.434 . S
C1330 C1321 1.429 . S
C1330 N1327 1.350 . S
C1330 C1329 1.434 . S
C1331 C1332 1.369 1_655 S
C1331 C1333 1.419 . S
C1331 H1335 0.930 . S
C1332 C1331 1.369 1_455 S
C1332 C1341 1.429 . S
C1333 C1331 1.419 . S
C1333 C1334 1.363 . S
C1333 H1336 0.929 . S
C1334 C1333 1.363 . S
C1334 C1340 1.428 . S
H1335 C1331 0.930 . S
H1336 C1333 0.929 . S
S1337 N1338 1.613 . S
S1337 N1339 1.610 1_455 S
N1338 S1337 1.613 . S
N1338 C1341 1.350 . S
N1339 S1337 1.610 1_655 S
N1339 C1340 1.351 . S
C1340 C1334 1.428 . S
C1340 N1339 1.351 . S
C1340 C1341 1.434 1_655 S
C1341 C1332 1.429 . S
C1341 N1338 1.350 . S
C1341 C1340 1.434 1_455 S
C1342 C1343 1.369 . S
C1342 C1344 1.419 . S
C1342 H1346 0.930 . S
C1343 C1342 1.369 . S
C1343 C1352 1.429 . S
C1344 C1342 1.419 . S
C1344 C1345 1.363 . S
C1344 H1347 0.929 . S
C1345 C1344 1.363 . S
C1345 C1351 1.428 . S
H1346 C1342 0.930 . S
H1347 C1344 0.929 . S
S1348 N1349 1.613 . S
S1348 N1350 1.610 . S
N1349 S1348 1.613 . S
N1349 C1352 1.350 . S
N1350 S1348 1.610 . S
N1350 C1351 1.351 . S
C1351 C1345 1.428 . S
C1351 N1350 1.351 . S
C1351 C1352 1.434 . S
C1352 C1343 1.429 . S
C1352 N1349 1.350 . S
C1352 C1351 1.434 . S
C1353 C1354 1.369 . S
C1353 C1355 1.419 . S
C1353 H1357 0.930 . S
C1354 C1353 1.369 . S
C1354 C1363 1.429 . S
C1355 C1353 1.419 . S
C1355 C1356 1.363 . S
C1355 H1358 0.929 . S
C1356 C1355 1.363 . S
C1356 C1362 1.428 . S
H1357 C1353 0.930 . S
H1358 C1355 0.929 . S
S1359 N1360 1.613 . S
S1359 N1361 1.610 . S
N1360 S1359 1.613 . S
N1360 C1363 1.350 . S
N1361 S1359 1.610 . S
N1361 C1362 1.351 . S
C1362 C1356 1.428 . S
C1362 N1361 1.351 . S
C1362 C1363 1.434 . S
C1363 C1354 1.429 . S
C1363 N1360 1.350 . S
C1363 C1362 1.434 . S
C1364 C1365 1.369 . S
C1364 C1366 1.419 . S
C1364 H1368 0.930 . S
C1365 C1364 1.369 . S
C1365 C1374 1.429 . S
C1366 C1364 1.419 . S
C1366 C1367 1.363 . S
C1366 H1369 0.929 . S
C1367 C1366 1.363 . S
C1367 C1373 1.428 . S
H1368 C1364 0.930 . S
H1369 C1366 0.929 . S
S1370 N1371 1.613 . S
S1370 N1372 1.610 . S
N1371 S1370 1.613 . S
N1371 C1374 1.350 . S
N1372 S1370 1.610 . S
N1372 C1373 1.351 . S
C1373 C1367 1.428 . S
C1373 N1372 1.351 . S
C1373 C1374 1.434 . S
C1374 C1365 1.429 . S
C1374 N1371 1.350 . S
C1374 C1373 1.434 . S
C1375 C1376 1.369 . S
C1375 C1377 1.419 . S
C1375 H1379 0.930 . S
C1376 C1375 1.369 . S
C1376 C1385 1.429 . S
C1377 C1375 1.419 . S
C1377 C1378 1.363 . S
C1377 H1380 0.929 . S
C1378 C1377 1.363 . S
C1378 C1384 1.428 . S
H1379 C1375 0.930 . S
H1380 C1377 0.929 . S
S1381 N1382 1.613 . S
S1381 N1383 1.610 . S
N1382 S1381 1.613 . S
N1382 C1385 1.350 . S
N1383 S1381 1.610 . S
N1383 C1384 1.351 . S
C1384 C1378 1.428 . S
C1384 N1383 1.351 . S
C1384 C1385 1.434 . S
C1385 C1376 1.429 . S
C1385 N1382 1.350 . S
C1385 C1384 1.434 . S
C1386 C1387 1.369 . S
C1386 C1388 1.419 . S
C1386 H1390 0.930 . S
C1387 C1386 1.369 . S
C1387 C1396 1.429 . S
C1388 C1386 1.419 . S
C1388 C1389 1.363 . S
C1388 H1391 0.929 . S
C1389 C1388 1.363 . S
C1389 C1395 1.428 . S
H1390 C1386 0.930 . S
H1391 C1388 0.929 . S
S1392 N1393 1.613 . S
S1392 N1394 1.610 . S
N1393 S1392 1.613 . S
N1393 C1396 1.350 . S
N1394 S1392 1.610 . S
N1394 C1395 1.351 . S
C1395 C1389 1.428 . S
C1395 N1394 1.351 . S
C1395 C1396 1.434 . S
C1396 C1387 1.429 . S
C1396 N1393 1.350 . S
C1396 C1395 1.434 . S
C1397 C1398 1.369 . S
C1397 C1399 1.419 1_655 S
C1397 H1401 0.930 . S
C1398 C1397 1.369 . S
C1398 C1407 1.429 . S
C1399 C1397 1.419 1_455 S
C1399 C1400 1.363 . S
C1399 H1402 0.929 . S
C1400 C1399 1.363 . S
C1400 C1406 1.428 1_455 S
H1401 C1397 0.930 . S
H1402 C1399 0.929 . S
S1403 N1404 1.613 . S
S1403 N1405 1.610 1_655 S
N1404 S1403 1.613 . S
N1404 C1407 1.350 1_565 S
N1405 S1403 1.610 1_455 S
N1405 C1406 1.351 1_465 S
C1406 C1400 1.428 1_655 S
C1406 N1405 1.351 1_645 S
C1406 C1407 1.434 . S
C1407 C1398 1.429 . S
C1407 N1404 1.350 1_545 S
C1407 C1406 1.434 . S
C1408 C1409 1.369 . S
C1408 C1410 1.419 . S
C1408 H1412 0.930 . S
C1409 C1408 1.369 . S
C1409 C1418 1.429 . S
C1410 C1408 1.419 . S
C1410 C1411 1.363 . S
C1410 H1413 0.929 . S
C1411 C1410 1.363 . S
C1411 C1417 1.428 . S
H1412 C1408 0.930 . S
H1413 C1410 0.929 . S
S1414 N1415 1.613 . S
S1414 N1416 1.610 . S
N1415 S1414 1.613 . S
N1415 C1418 1.350 . S
N1416 S1414 1.610 . S
N1416 C1417 1.351 . S
C1417 C1411 1.428 . S
C1417 N1416 1.351 . S
C1417 C1418 1.434 . S
C1418 C1409 1.429 . S
C1418 N1415 1.350 . S
C1418 C1417 1.434 . S
C1419 C1420 1.369 . S
C1419 C1421 1.419 . S
C1419 H1423 0.930 . S
C1420 C1419 1.369 . S
C1420 C1429 1.429 . S
C1421 C1419 1.419 . S
C1421 C1422 1.363 . S
C1421 H1424 0.929 . S
C1422 C1421 1.363 . S
C1422 C1428 1.428 . S
H1423 C1419 0.930 . S
H1424 C1421 0.929 . S
S1425 N1426 1.613 . S
S1425 N1427 1.610 . S
N1426 S1425 1.613 . S
N1426 C1429 1.350 . S
N1427 S1425 1.610 . S
N1427 C1428 1.351 . S
C1428 C1422 1.428 . S
C1428 N1427 1.351 . S
C1428 C1429 1.434 . S
C1429 C1420 1.429 . S
C1429 N1426 1.350 . S
C1429 C1428 1.434 . S
C1430 C1431 1.369 . S
C1430 C1432 1.419 . S
C1430 H1434 0.930 . S
C1431 C1430 1.369 . S
C1431 C1440 1.429 . S
C1432 C1430 1.419 . S
C1432 C1433 1.363 . S
C1432 H1435 0.929 . S
C1433 C1432 1.363 . S
C1433 C1439 1.428 . S
H1434 C1430 0.930 . S
H1435 C1432 0.929 . S
S1436 N1437 1.613 . S
S1436 N1438 1.610 . S
N1437 S1436 1.613 . S
N1437 C1440 1.350 . S
N1438 S1436 1.610 . S
N1438 C1439 1.351 . S
C1439 C1433 1.428 . S
C1439 N1438 1.351 . S
C1439 C1440 1.434 . S
C1440 C1431 1.429 . S
C1440 N1437 1.350 . S
C1440 C1439 1.434 . S
C1441 C1442 1.369 . S
C1441 C1443 1.419 1_655 S
C1441 H1445 0.930 . S
C1442 C1441 1.369 . S
C1442 C1451 1.429 . S
C1443 C1441 1.419 1_455 S
C1443 C1444 1.363 . S
C1443 H1446 0.929 . S
C1444 C1443 1.363 . S
C1444 C1450 1.428 1_455 S
H1445 C1441 0.930 . S
H1446 C1443 0.929 . S
S1447 N1448 1.613 . S
S1447 N1449 1.610 . S
N1448 S1447 1.613 . S
N1448 C1451 1.350 . S
N1449 S1447 1.610 . S
N1449 C1450 1.351 . S
C1450 C1444 1.428 1_655 S
C1450 N1449 1.351 . S
C1450 C1451 1.434 . S
C1451 C1442 1.429 . S
C1451 N1448 1.350 . S
C1451 C1450 1.434 . S
C1452 C1453 1.369 . S
C1452 C1454 1.419 . S
C1452 H1456 0.930 . S
C1453 C1452 1.369 . S
C1453 C1462 1.429 . S
C1454 C1452 1.419 . S
C1454 C1455 1.363 . S
C1454 H1457 0.929 . S
C1455 C1454 1.363 . S
C1455 C1461 1.428 . S
H1456 C1452 0.930 . S
H1457 C1454 0.929 . S
S1458 N1459 1.613 . S
S1458 N1460 1.610 . S
N1459 S1458 1.613 . S
N1459 C1462 1.350 . S
N1460 S1458 1.610 . S
N1460 C1461 1.351 . S
C1461 C1455 1.428 . S
C1461 N1460 1.351 . S
C1461 C1462 1.434 . S
C1462 C1453 1.429 . S
C1462 N1459 1.350 . S
C1462 C1461 1.434 . S
C1463 C1464 1.369 . S
C1463 C1465 1.419 1_655 S
C1463 H1467 0.930 . S
C1464 C1463 1.369 . S
C1464 C1473 1.429 . S
C1465 C1463 1.419 1_455 S
C1465 C1466 1.363 . S
C1465 H1468 0.929 . S
C1466 C1465 1.363 . S
C1466 C1472 1.428 1_455 S
H1467 C1463 0.930 . S
H1468 C1465 0.929 . S
S1469 N1470 1.613 . S
S1469 N1471 1.610 . S
N1470 S1469 1.613 . S
N1470 C1473 1.350 . S
N1471 S1469 1.610 . S
N1471 C1472 1.351 . S
C1472 C1466 1.428 1_655 S
C1472 N1471 1.351 . S
C1472 C1473 1.434 . S
C1473 C1464 1.429 . S
C1473 N1470 1.350 . S
C1473 C1472 1.434 . S
C1474 C1475 1.369 . S
C1474 C1476 1.419 . S
C1474 H1478 0.930 . S
C1475 C1474 1.369 . S
C1475 C1484 1.429 . S
C1476 C1474 1.419 . S
C1476 C1477 1.363 . S
C1476 H1479 0.929 . S
C1477 C1476 1.363 . S
C1477 C1483 1.428 . S
H1478 C1474 0.930 . S
H1479 C1476 0.929 . S
S1480 N1481 1.613 . S
S1480 N1482 1.610 . S
N1481 S1480 1.613 . S
N1481 C1484 1.350 . S
N1482 S1480 1.610 . S
N1482 C1483 1.351 . S
C1483 C1477 1.428 . S
C1483 N1482 1.351 . S
C1483 C1484 1.434 . S
C1484 C1475 1.429 . S
C1484 N1481 1.350 . S
C1484 C1483 1.434 . S
C1485 C1486 1.369 . S
C1485 C1487 1.419 . S
C1485 H1489 0.930 . S
C1486 C1485 1.369 . S
C1486 C1495 1.429 . S
C1487 C1485 1.419 . S
C1487 C1488 1.363 . S
C1487 H1490 0.929 . S
C1488 C1487 1.363 . S
C1488 C1494 1.428 . S
H1489 C1485 0.930 . S
H1490 C1487 0.929 . S
S1491 N1492 1.613 . S
S1491 N1493 1.610 . S
N1492 S1491 1.613 . S
N1492 C1495 1.350 . S
N1493 S1491 1.610 . S
N1493 C1494 1.351 . S
C1494 C1488 1.428 . S
C1494 N1493 1.351 . S
C1494 C1495 1.434 . S
C1495 C1486 1.429 . S
C1495 N1492 1.350 . S
C1495 C1494 1.434 . S
C1496 C1497 1.369 . S
C1496 C1498 1.419 . S
C1496 H1500 0.930 . S
C1497 C1496 1.369 . S
C1497 C1506 1.429 . S
C1498 C1496 1.419 . S
C1498 C1499 1.363 . S
C1498 H1501 0.929 . S
C1499 C1498 1.363 . S
C1499 C1505 1.428 . S
H1500 C1496 0.930 . S
H1501 C1498 0.929 . S
S1502 N1503 1.613 . S
S1502 N1504 1.610 . S
N1503 S1502 1.613 . S
N1503 C1506 1.350 . S
N1504 S1502 1.610 . S
N1504 C1505 1.351 . S
C1505 C1499 1.428 . S
C1505 N1504 1.351 . S
C1505 C1506 1.434 . S
C1506 C1497 1.429 . S
C1506 N1503 1.350 . S
C1506 C1505 1.434 . S
C1507 C1508 1.369 . S
C1507 C1509 1.419 . S
C1507 H1511 0.930 . S
C1508 C1507 1.369 . S
C1508 C1517 1.429 . S
C1509 C1507 1.419 . S
C1509 C1510 1.363 . S
C1509 H1512 0.929 . S
C1510 C1509 1.363 . S
C1510 C1516 1.428 . S
H1511 C1507 0.930 . S
H1512 C1509 0.929 . S
S1513 N1514 1.613 . S
S1513 N1515 1.610 . S
N1514 S1513 1.613 . S
N1514 C1517 1.350 . S
N1515 S1513 1.610 . S
N1515 C1516 1.351 . S
C1516 C1510 1.428 . S
C1516 N1515 1.351 . S
C1516 C1517 1.434 . S
C1517 C1508 1.429 . S
C1517 N1514 1.350 . S
C1517 C1516 1.434 . S
C1518 C1519 1.369 . S
C1518 C1520 1.419 . S
C1518 H1522 0.930 . S
C1519 C1518 1.369 . S
C1519 C1528 1.429 . S
C1520 C1518 1.419 . S
C1520 C1521 1.363 . S
C1520 H1523 0.929 . S
C1521 C1520 1.363 . S
C1521 C1527 1.428 . S
H1522 C1518 0.930 . S
H1523 C1520 0.929 . S
S1524 N1525 1.613 . S
S1524 N1526 1.610 . S
N1525 S1524 1.613 . S
N1525 C1528 1.350 . S
N1526 S1524 1.610 . S
N1526 C1527 1.351 . S
C1527 C1521 1.428 . S
C1527 N1526 1.351 . S
C1527 C1528 1.434 . S
C1528 C1519 1.429 . S
C1528 N1525 1.350 . S
C1528 C1527 1.434 . S
C1529 C1530 1.369 . S
C1529 C1531 1.419 1_455 S
C1529 H1533 0.930 . S
C1530 C1529 1.369 . S
C1530 C1539 1.429 . S
C1531 C1529 1.419 1_655 S
C1531 C1532 1.363 . S
C1531 H1534 0.929 . S
C1532 C1531 1.363 . S
C1532 C1538 1.428 1_655 S
H1533 C1529 0.930 . S
H1534 C1531 0.929 . S
S1535 N1536 1.613 . S
S1535 N1537 1.610 . S
N1536 S1535 1.613 . S
N1536 C1539 1.350 . S
N1537 S1535 1.610 . S
N1537 C1538 1.351 . S
C1538 C1532 1.428 1_455 S
C1538 N1537 1.351 . S
C1538 C1539 1.434 . S
C1539 C1530 1.429 . S
C1539 N1536 1.350 . S
C1539 C1538 1.434 . S
C1540 C1541 1.369 . S
C1540 C1542 1.419 . S
C1540 H1544 0.930 . S
C1541 C1540 1.369 . S
C1541 C1550 1.429 . S
C1542 C1540 1.419 . S
C1542 C1543 1.363 . S
C1542 H1545 0.929 . S
C1543 C1542 1.363 . S
C1543 C1549 1.428 . S
H1544 C1540 0.930 . S
H1545 C1542 0.929 . S
S1546 N1547 1.613 . S
S1546 N1548 1.610 . S
N1547 S1546 1.613 . S
N1547 C1550 1.350 . S
N1548 S1546 1.610 . S
N1548 C1549 1.351 . S
C1549 C1543 1.428 . S
C1549 N1548 1.351 . S
C1549 C1550 1.434 . S
C1550 C1541 1.429 . S
C1550 N1547 1.350 . S
C1550 C1549 1.434 . S
C1551 C1552 1.369 1_455 S
C1551 C1553 1.419 . S
C1551 H1555 0.930 . S
C1552 C1551 1.369 1_655 S
C1552 C1561 1.429 . S
C1553 C1551 1.419 . S
C1553 C1554 1.363 . S
C1553 H1556 0.929 . S
C1554 C1553 1.363 . S
C1554 C1560 1.428 . S
H1555 C1551 0.930 . S
H1556 C1553 0.929 . S
S1557 N1558 1.613 . S
S1557 N1559 1.610 1_655 S
N1558 S1557 1.613 . S
N1558 C1561 1.350 . S
N1559 S1557 1.610 1_455 S
N1559 C1560 1.351 . S
C1560 C1554 1.428 . S
C1560 N1559 1.351 . S
C1560 C1561 1.434 1_455 S
C1561 C1552 1.429 . S
C1561 N1558 1.350 . S
C1561 C1560 1.434 1_655 S
C1562 C1563 1.369 . S
C1562 C1564 1.419 . S
C1562 H1566 0.930 . S
C1563 C1562 1.369 . S
C1563 C1572 1.429 . S
C1564 C1562 1.419 . S
C1564 C1565 1.363 . S
C1564 H1567 0.929 . S
C1565 C1564 1.363 . S
C1565 C1571 1.428 . S
H1566 C1562 0.930 . S
H1567 C1564 0.929 . S
S1568 N1569 1.613 . S
S1568 N1570 1.610 . S
N1569 S1568 1.613 . S
N1569 C1572 1.350 . S
N1570 S1568 1.610 . S
N1570 C1571 1.351 . S
C1571 C1565 1.428 . S
C1571 N1570 1.351 . S
C1571 C1572 1.434 . S
C1572 C1563 1.429 . S
C1572 N1569 1.350 . S
C1572 C1571 1.434 . S
C1573 C1574 1.369 . S
C1573 C1575 1.419 . S
C1573 H1577 0.930 . S
C1574 C1573 1.369 . S
C1574 C1583 1.429 . S
C1575 C1573 1.419 . S
C1575 C1576 1.363 . S
C1575 H1578 0.929 . S
C1576 C1575 1.363 . S
C1576 C1582 1.428 . S
H1577 C1573 0.930 . S
H1578 C1575 0.929 . S
S1579 N1580 1.613 . S
S1579 N1581 1.610 . S
N1580 S1579 1.613 . S
N1580 C1583 1.350 . S
N1581 S1579 1.610 . S
N1581 C1582 1.351 . S
C1582 C1576 1.428 . S
C1582 N1581 1.351 . S
C1582 C1583 1.434 . S
C1583 C1574 1.429 . S
C1583 N1580 1.350 . S
C1583 C1582 1.434 . S
C1584 C1585 1.369 . S
C1584 C1586 1.419 . S
C1584 H1588 0.930 . S
C1585 C1584 1.369 . S
C1585 C1594 1.429 . S
C1586 C1584 1.419 . S
C1586 C1587 1.363 . S
C1586 H1589 0.929 . S
C1587 C1586 1.363 . S
C1587 C1593 1.428 . S
H1588 C1584 0.930 . S
H1589 C1586 0.929 . S
S1590 N1591 1.613 . S
S1590 N1592 1.610 . S
N1591 S1590 1.613 . S
N1591 C1594 1.350 . S
N1592 S1590 1.610 . S
N1592 C1593 1.351 . S
C1593 C1587 1.428 . S
C1593 N1592 1.351 . S
C1593 C1594 1.434 . S
C1594 C1585 1.429 . S
C1594 N1591 1.350 . S
C1594 C1593 1.434 . S
C1595 C1596 1.369 . S
C1595 C1597 1.419 1_655 S
C1595 H1599 0.930 . S
C1596 C1595 1.369 . S
C1596 C1605 1.429 . S
C1597 C1595 1.419 1_455 S
C1597 C1598 1.363 . S
C1597 H1600 0.929 . S
C1598 C1597 1.363 . S
C1598 C1604 1.428 . S
H1599 C1595 0.930 . S
H1600 C1597 0.929 . S
S1601 N1602 1.613 . S
S1601 N1603 1.610 1_655 S
N1602 S1601 1.613 . S
N1602 C1605 1.350 . S
N1603 S1601 1.610 1_455 S
N1603 C1604 1.351 . S
C1604 C1598 1.428 . S
C1604 N1603 1.351 . S
C1604 C1605 1.434 1_455 S
C1605 C1596 1.429 . S
C1605 N1602 1.350 . S
C1605 C1604 1.434 1_655 S
C1606 C1607 1.369 1_455 S
C1606 C1608 1.419 . S
C1606 H1610 0.930 . S
C1607 C1606 1.369 1_655 S
C1607 C1616 1.429 . S
C1608 C1606 1.419 . S
C1608 C1609 1.363 . S
C1608 H1611 0.929 . S
C1609 C1608 1.363 . S
C1609 C1615 1.428 1_455 S
H1610 C1606 0.930 . S
H1611 C1608 0.929 . S
S1612 N1613 1.613 . S
S1612 N1614 1.610 . S
N1613 S1612 1.613 . S
N1613 C1616 1.350 . S
N1614 S1612 1.610 . S
N1614 C1615 1.351 . S
C1615 C1609 1.428 1_655 S
C1615 N1614 1.351 . S
C1615 C1616 1.434 . S
C1616 C1607 1.429 . S
C1616 N1613 1.350 . S
C1616 C1615 1.434 . S
C1617 C1618 1.369 . S
C1617 C1619 1.419 . S
C1617 H1621 0.930 . S
C1618 C1617 1.369 . S
C1618 C1627 1.429 . S
C1619 C1617 1.419 . S
C1619 C1620 1.363 . S
C1619 H1622 0.929 . S
C1620 C1619 1.363 . S
C1620 C1626 1.428 . S
H1621 C1617 0.930 . S
H1622 C1619 0.929 . S
S1623 N1624 1.613 . S
S1623 N1625 1.610 . S
N1624 S1623 1.613 . S
N1624 C1627 1.350 . S
N1625 S1623 1.610 . S
N1625 C1626 1.351 . S
C1626 C1620 1.428 . S
C1626 N1625 1.351 . S
C1626 C1627 1.434 . S
C1627 C1618 1.429 . S
C1627 N1624 1.350 . S
C1627 C1626 1.434 . S
C1628 C1629 1.369 . S
C1628 C1630 1.419 . S
C1628 H1632 0.930 . S
C1629 C1628 1.369 . S
C1629 C1638 1.429 . S
C1630 C1628 1.419 . S
C1630 C1631 1.363 . S
C1630 H1633 0.929 . S
C1631 C1630 1.363 . S
C1631 C1637 1.428 . S
H1632 C1628 0.930 . S
H1633 C1630 0.929 . S
S1634 N1635 1.613 . S
S1634 N1636 1.610 . S
N1635 S1634 1.613 . S
N1635 C1638 1.350 . S
N1636 S1634 1.610 . S
N1636 C1637 1.351 . S
C1637 C1631 1.428 . S
C1637 N1636 1.351 . S
C1637 C1638 1.434 . S
C1638 C1629 1.429 . S
C1638 N1635 1.350 . S
C1638 C1637 1.434 . S
C1639 C1640 1.369 . S
C1639 C1641 1.419 . S
C1639 H1643 0.930 . S
C1640 C1639 1.369 . S
C1640 C1649 1.429 . S
C1641 C1639 1.419 . S
C1641 C1642 1.363 . S
C1641 H1644 0.929 . S
C1642 C1641 1.363 . S
C1642 C1648 1.428 . S
H1643 C1639 0.930 . S
H1644 C1641 0.929 . S
S1645 N1646 1.613 . S
S1645 N1647 1.610 . S
N1646 S1645 1.613 . S
N1646 C1649 1.350 . S
N1647 S1645 1.610 . S
N1647 C1648 1.351 . S
C1648 C1642 1.428 . S
C1648 N1647 1.351 . S
C1648 C1649 1.434 . S
C1649 C1640 1.429 . S
C1649 N1646 1.350 . S
C1649 C1648 1.434 . S
C1650 C1651 1.369 . S
C1650 C1652 1.419 . S
C1650 H1654 0.930 . S
C1651 C1650 1.369 . S
C1651 C1660 1.429 1_455 S
C1652 C1650 1.419 . S
C1652 C1653 1.363 1_455 S
C1652 H1655 0.929 . S
C1653 C1652 1.363 1_655 S
C1653 C1659 1.428 . S
H1654 C1650 0.930 . S
H1655 C1652 0.929 . S
S1656 N1657 1.613 . S
S1656 N1658 1.610 . S
N1657 S1656 1.613 . S
N1657 C1660 1.350 . S
N1658 S1656 1.610 . S
N1658 C1659 1.351 . S
C1659 C1653 1.428 . S
C1659 N1658 1.351 . S
C1659 C1660 1.434 . S
C1660 C1651 1.429 1_655 S
C1660 N1657 1.350 . S
C1660 C1659 1.434 . S
C1661 C1662 1.369 . S
C1661 C1663 1.419 1_655 S
C1661 H1665 0.930 . S
C1662 C1661 1.369 . S
C1662 C1671 1.429 . S
C1663 C1661 1.419 1_455 S
C1663 C1664 1.363 . S
C1663 H1666 0.929 . S
C1664 C1663 1.363 . S
C1664 C1670 1.428 . S
H1665 C1661 0.930 . S
H1666 C1663 0.929 . S
S1667 N1668 1.613 1_455 S
S1667 N1669 1.610 . S
N1668 S1667 1.613 1_655 S
N1668 C1671 1.350 . S
N1669 S1667 1.610 . S
N1669 C1670 1.351 . S
C1670 C1664 1.428 . S
C1670 N1669 1.351 . S
C1670 C1671 1.434 1_455 S
C1671 C1662 1.429 . S
C1671 N1668 1.350 . S
C1671 C1670 1.434 1_655 S
C1672 C1673 1.369 . S
C1672 C1674 1.419 . S
C1672 H1676 0.930 . S
C1673 C1672 1.369 . S
C1673 C1682 1.429 . S
C1674 C1672 1.419 . S
C1674 C1675 1.363 . S
C1674 H1677 0.929 . S
C1675 C1674 1.363 . S
C1675 C1681 1.428 . S
H1676 C1672 0.930 . S
H1677 C1674 0.929 . S
S1678 N1679 1.613 . S
S1678 N1680 1.610 . S
N1679 S1678 1.613 . S
N1679 C1682 1.350 . S
N1680 S1678 1.610 . S
N1680 C1681 1.351 . S
C1681 C1675 1.428 . S
C1681 N1680 1.351 . S
C1681 C1682 1.434 . S
C1682 C1673 1.429 . S
C1682 N1679 1.350 . S
C1682 C1681 1.434 . S
C1683 C1684 1.369 . S
C1683 C1685 1.419 1_655 S
C1683 H1687 0.930 . S
C1684 C1683 1.369 . S
C1684 C1693 1.429 . S
C1685 C1683 1.419 1_455 S
C1685 C1686 1.363 . S
C1685 H1688 0.929 . S
C1686 C1685 1.363 . S
C1686 C1692 1.428 . S
H1687 C1683 0.930 . S
H1688 C1685 0.929 . S
S1689 N1690 1.613 . S
S1689 N1691 1.610 1_655 S
N1690 S1689 1.613 . S
N1690 C1693 1.350 . S
N1691 S1689 1.610 1_455 S
N1691 C1692 1.351 . S
C1692 C1686 1.428 . S
C1692 N1691 1.351 . S
C1692 C1693 1.434 1_455 S
C1693 C1684 1.429 . S
C1693 N1690 1.350 . S
C1693 C1692 1.434 1_655 S
C1694 C1695 1.369 1_455 S
C1694 C1696 1.419 . S
C1694 H1698 0.930 . S
C1695 C1694 1.369 1_655 S
C1695 C1704 1.429 . S
C1696 C1694 1.419 . S
C1696 C1697 1.363 . S
C1696 H1699 0.929 . S
C1697 C1696 1.363 . S
C1697 C1703 1.428 1_455 S
H1698 C1694 0.930 . S
H1699 C1696 0.929 . S
S1700 N1701 1.613 . S
S1700 N1702 1.610 . S
N1701 S1700 1.613 . S
N1701 C1704 1.350 . S
N1702 S1700 1.610 . S
N1702 C1703 1.351 . S
C1703 C1697 1.428 1_655 S
C1703 N1702 1.351 . S
C1703 C1704 1.434 . S
C1704 C1695 1.429 . S
C1704 N1701 1.350 . S
C1704 C1703 1.434 . S
C1705 C1706 1.369 . S
C1705 C1707 1.419 . S
C1705 H1709 0.930 . S
C1706 C1705 1.369 . S
C1706 C1715 1.429 . S
C1707 C1705 1.419 . S
C1707 C1708 1.363 . S
C1707 H1710 0.929 . S
C1708 C1707 1.363 . S
C1708 C1714 1.428 . S
H1709 C1705 0.930 . S
H1710 C1707 0.929 . S
S1711 N1712 1.613 . S
S1711 N1713 1.610 . S
N1712 S1711 1.613 . S
N1712 C1715 1.350 . S
N1713 S1711 1.610 . S
N1713 C1714 1.351 . S
C1714 C1708 1.428 . S
C1714 N1713 1.351 . S
C1714 C1715 1.434 . S
C1715 C1706 1.429 . S
C1715 N1712 1.350 . S
C1715 C1714 1.434 . S
C1716 C1717 1.369 . S
C1716 C1718 1.419 . S
C1716 H1720 0.930 . S
C1717 C1716 1.369 . S
C1717 C1726 1.429 . S
C1718 C1716 1.419 . S
C1718 C1719 1.363 . S
C1718 H1721 0.929 . S
C1719 C1718 1.363 . S
C1719 C1725 1.428 . S
H1720 C1716 0.930 . S
H1721 C1718 0.929 . S
S1722 N1723 1.613 . S
S1722 N1724 1.610 . S
N1723 S1722 1.613 . S
N1723 C1726 1.350 . S
N1724 S1722 1.610 . S
N1724 C1725 1.351 . S
C1725 C1719 1.428 . S
C1725 N1724 1.351 . S
C1725 C1726 1.434 . S
C1726 C1717 1.429 . S
C1726 N1723 1.350 . S
C1726 C1725 1.434 . S
C1727 C1728 1.369 . S
C1727 C1729 1.419 . S
C1727 H1731 0.930 . S
C1728 C1727 1.369 . S
C1728 C1737 1.429 . S
C1729 C1727 1.419 . S
C1729 C1730 1.363 . S
C1729 H1732 0.929 . S
C1730 C1729 1.363 . S
C1730 C1736 1.428 . S
H1731 C1727 0.930 . S
H1732 C1729 0.929 . S
S1733 N1734 1.613 . S
S1733 N1735 1.610 . S
N1734 S1733 1.613 . S
N1734 C1737 1.350 . S
N1735 S1733 1.610 . S
N1735 C1736 1.351 . S
C1736 C1730 1.428 . S
C1736 N1735 1.351 . S
C1736 C1737 1.434 . S
C1737 C1728 1.429 . S
C1737 N1734 1.350 . S
C1737 C1736 1.434 . S
C1738 C1739 1.369 . S
C1738 C1740 1.419 . S
C1738 H1742 0.930 . S
C1739 C1738 1.369 . S
C1739 C1748 1.429 1_655 S
C1740 C1738 1.419 . S
C1740 C1741 1.363 1_655 S
C1740 H1743 0.929 . S
C1741 C1740 1.363 1_455 S
C1741 C1747 1.428 . S
H1742 C1738 0.930 . S
H1743 C1740 0.929 . S
S1744 N1745 1.613 . S
S1744 N1746 1.610 . S
N1745 S1744 1.613 . S
N1745 C1748 1.350 . S
N1746 S1744 1.610 . S
N1746 C1747 1.351 . S
C1747 C1741 1.428 . S
C1747 N1746 1.351 . S
C1747 C1748 1.434 . S
C1748 C1739 1.429 1_455 S
C1748 N1745 1.350 . S
C1748 C1747 1.434 . S
C1749 C1750 1.369 . S
C1749 C1751 1.419 1_655 S
C1749 H1753 0.930 . S
C1750 C1749 1.369 . S
C1750 C1759 1.429 . S
C1751 C1749 1.419 1_455 S
C1751 C1752 1.363 . S
C1751 H1754 0.929 . S
C1752 C1751 1.363 . S
C1752 C1758 1.428 . S
H1753 C1749 0.930 . S
H1754 C1751 0.929 . S
S1755 N1756 1.613 1_455 S
S1755 N1757 1.610 . S
N1756 S1755 1.613 1_655 S
N1756 C1759 1.350 . S
N1757 S1755 1.610 . S
N1757 C1758 1.351 . S
C1758 C1752 1.428 . S
C1758 N1757 1.351 . S
C1758 C1759 1.434 1_455 S
C1759 C1750 1.429 . S
C1759 N1756 1.350 . S
C1759 C1758 1.434 1_655 S
C1760 C1761 1.369 . S
C1760 C1762 1.419 . S
C1760 H1764 0.930 . S
C1761 C1760 1.369 . S
C1761 C1770 1.429 1_565 S
C1762 C1760 1.419 . S
C1762 C1763 1.363 1_565 S
C1762 H1765 0.929 . S
C1763 C1762 1.363 1_545 S
C1763 C1769 1.428 . S
H1764 C1760 0.930 . S
H1765 C1762 0.929 . S
S1766 N1767 1.613 . S
S1766 N1768 1.610 . S
N1767 S1766 1.613 . S
N1767 C1770 1.350 . S
N1768 S1766 1.610 . S
N1768 C1769 1.351 . S
C1769 C1763 1.428 . S
C1769 N1768 1.351 . S
C1769 C1770 1.434 . S
C1770 C1761 1.429 1_545 S
C1770 N1767 1.350 . S
C1770 C1769 1.434 . S
C1771 C1772 1.369 . S
C1771 C1773 1.419 . S
C1771 H1775 0.930 . S
C1772 C1771 1.369 . S
C1772 C1781 1.429 . S
C1773 C1771 1.419 . S
C1773 C1774 1.363 . S
C1773 H1776 0.929 . S
C1774 C1773 1.363 . S
C1774 C1780 1.428 . S
H1775 C1771 0.930 . S
H1776 C1773 0.929 . S
S1777 N1778 1.613 . S
S1777 N1779 1.610 . S
N1778 S1777 1.613 . S
N1778 C1781 1.350 . S
N1779 S1777 1.610 . S
N1779 C1780 1.351 . S
C1780 C1774 1.428 . S
C1780 N1779 1.351 . S
C1780 C1781 1.434 . S
C1781 C1772 1.429 . S
C1781 N1778 1.350 . S
C1781 C1780 1.434 . S
C1782 C1783 1.369 . S
C1782 C1784 1.419 . S
C1782 H1786 0.930 . S
C1783 C1782 1.369 . S
C1783 C1792 1.429 1_565 S
C1784 C1782 1.419 . S
C1784 C1785 1.363 1_565 S
C1784 H1787 0.929 . S
C1785 C1784 1.363 1_545 S
C1785 C1791 1.428 . S
H1786 C1782 0.930 . S
H1787 C1784 0.929 . S
S1788 N1789 1.613 . S
S1788 N1790 1.610 . S
N1789 S1788 1.613 . S
N1789 C1792 1.350 . S
N1790 S1788 1.610 . S
N1790 C1791 1.351 . S
C1791 C1785 1.428 . S
C1791 N1790 1.351 . S
C1791 C1792 1.434 . S
C1792 C1783 1.429 1_545 S
C1792 N1789 1.350 . S
C1792 C1791 1.434 . S
C1793 C1794 1.369 . S
C1793 C1795 1.419 1_554 S
C1793 H1797 0.930 . S
C1794 C1793 1.369 . S
C1794 C1803 1.429 . S
C1795 C1793 1.419 1_556 S
C1795 C1796 1.363 . S
C1795 H1798 0.929 . S
C1796 C1795 1.363 . S
C1796 C1802 1.428 . S
H1797 C1793 0.930 . S
H1798 C1795 0.929 . S
S1799 N1800 1.613 . S
S1799 N1801 1.610 1_554 S
N1800 S1799 1.613 . S
N1800 C1803 1.350 . S
N1801 S1799 1.610 1_556 S
N1801 C1802 1.351 . S
C1802 C1796 1.428 . S
C1802 N1801 1.351 . S
C1802 C1803 1.434 1_556 S
C1803 C1794 1.429 . S
C1803 N1800 1.350 . S
C1803 C1802 1.434 1_554 S
C1804 C1805 1.369 . S
C1804 C1806 1.419 . S
C1804 H1808 0.930 . S
C1805 C1804 1.369 . S
C1805 C1814 1.429 1_565 S
C1806 C1804 1.419 . S
C1806 C1807 1.363 1_565 S
C1806 H1809 0.929 . S
C1807 C1806 1.363 1_545 S
C1807 C1813 1.428 . S
H1808 C1804 0.930 . S
H1809 C1806 0.929 . S
S1810 N1811 1.613 . S
S1810 N1812 1.610 . S
N1811 S1810 1.613 . S
N1811 C1814 1.350 . S
N1812 S1810 1.610 . S
N1812 C1813 1.351 . S
C1813 C1807 1.428 . S
C1813 N1812 1.351 . S
C1813 C1814 1.434 . S
C1814 C1805 1.429 1_545 S
C1814 N1811 1.350 . S
C1814 C1813 1.434 . S
C1815 C1816 1.369 . S
C1815 C1817 1.419 . S
C1815 H1819 0.930 . S
C1816 C1815 1.369 . S
C1816 C1825 1.429 . S
C1817 C1815 1.419 . S
C1817 C1818 1.363 . S
C1817 H1820 0.929 . S
C1818 C1817 1.363 . S
C1818 C1824 1.428 . S
H1819 C1815 0.930 . S
H1820 C1817 0.929 . S
S1821 N1822 1.613 1_545 S
S1821 N1823 1.610 1_545 S
N1822 S1821 1.613 1_565 S
N1822 C1825 1.350 . S
N1823 S1821 1.610 1_565 S
N1823 C1824 1.351 . S
C1824 C1818 1.428 . S
C1824 N1823 1.351 . S
C1824 C1825 1.434 . S
C1825 C1816 1.429 . S
C1825 N1822 1.350 . S
C1825 C1824 1.434 . S
C1826 C1827 1.369 1_565 S
C1826 C1828 1.419 . S
C1826 H1830 0.930 . S
C1827 C1826 1.369 1_545 S
C1827 C1836 1.429 . S
C1828 C1826 1.419 . S
C1828 C1829 1.363 . S
C1828 H1831 0.929 . S
C1829 C1828 1.363 . S
C1829 C1835 1.428 1_565 S
H1830 C1826 0.930 . S
H1831 C1828 0.929 . S
S1832 N1833 1.613 . S
S1832 N1834 1.610 . S
N1833 S1832 1.613 . S
N1833 C1836 1.350 . S
N1834 S1832 1.610 . S
N1834 C1835 1.351 . S
C1835 C1829 1.428 1_545 S
C1835 N1834 1.351 . S
C1835 C1836 1.434 . S
C1836 C1827 1.429 . S
C1836 N1833 1.350 . S
C1836 C1835 1.434 . S
C1837 C1838 1.369 . S
C1837 C1839 1.419 1_556 S
C1837 H1841 0.930 . S
C1838 C1837 1.369 . S
C1838 C1847 1.429 . S
C1839 C1837 1.419 1_554 S
C1839 C1840 1.363 . S
C1839 H1842 0.929 . S
C1840 C1839 1.363 . S
C1840 C1846 1.428 . S
H1841 C1837 0.930 . S
H1842 C1839 0.929 . S
S1843 N1844 1.613 . S
S1843 N1845 1.610 1_556 S
N1844 S1843 1.613 . S
N1844 C1847 1.350 . S
N1845 S1843 1.610 1_554 S
N1845 C1846 1.351 . S
C1846 C1840 1.428 . S
C1846 N1845 1.351 . S
C1846 C1847 1.434 1_554 S
C1847 C1838 1.429 . S
C1847 N1844 1.350 . S
C1847 C1846 1.434 1_556 S
C1848 C1849 1.369 . S
C1848 C1850 1.419 . S
C1848 H1852 0.930 . S
C1849 C1848 1.369 . S
C1849 C1858 1.429 . S
C1850 C1848 1.419 . S
C1850 C1851 1.363 . S
C1850 H1853 0.929 . S
C1851 C1850 1.363 . S
C1851 C1857 1.428 . S
H1852 C1848 0.930 . S
H1853 C1850 0.929 . S
S1854 N1855 1.613 . S
S1854 N1856 1.610 . S
N1855 S1854 1.613 . S
N1855 C1858 1.350 . S
N1856 S1854 1.610 . S
N1856 C1857 1.351 . S
C1857 C1851 1.428 . S
C1857 N1856 1.351 . S
C1857 C1858 1.434 . S
C1858 C1849 1.429 . S
C1858 N1855 1.350 . S
C1858 C1857 1.434 . S
C1859 C1860 1.369 . S
C1859 C1861 1.419 1_554 S
C1859 H1863 0.930 . S
C1860 C1859 1.369 . S
C1860 C1869 1.429 . S
C1861 C1859 1.419 1_556 S
C1861 C1862 1.363 . S
C1861 H1864 0.929 . S
C1862 C1861 1.363 . S
C1862 C1868 1.428 . S
H1863 C1859 0.930 . S
H1864 C1861 0.929 . S
S1865 N1866 1.613 . S
S1865 N1867 1.619 . S
N1866 S1865 1.613 . S
N1866 C1869 1.350 . S
N1867 S1865 1.619 . S
N1867 C1868 1.350 1_554 S
C1868 C1862 1.428 . S
C1868 N1867 1.350 1_556 S
C1868 C1869 1.434 1_556 S
C1869 C1860 1.429 . S
C1869 N1866 1.350 . S
C1869 C1868 1.434 1_554 S
C1870 C1871 1.369 . S
C1870 C1872 1.419 . S
C1870 H1874 0.930 . S
C1871 C1870 1.369 . S
C1871 C1880 1.429 . S
C1872 C1870 1.419 . S
C1872 C1873 1.363 . S
C1872 H1875 0.929 . S
C1873 C1872 1.363 . S
C1873 C1879 1.428 . S
H1874 C1870 0.930 . S
H1875 C1872 0.929 . S
S1876 N1877 1.613 . S
S1876 N1878 1.610 . S
N1877 S1876 1.613 . S
N1877 C1880 1.350 . S
N1878 S1876 1.610 . S
N1878 C1879 1.351 . S
C1879 C1873 1.428 . S
C1879 N1878 1.351 . S
C1879 C1880 1.434 . S
C1880 C1871 1.429 . S
C1880 N1877 1.350 . S
C1880 C1879 1.434 . S
C1881 C1882 1.369 . S
C1881 C1883 1.419 . S
C1881 H1885 0.930 . S
C1882 C1881 1.369 . S
C1882 C1891 1.429 . S
C1883 C1881 1.419 . S
C1883 C1884 1.363 . S
C1883 H1886 0.929 . S
C1884 C1883 1.363 . S
C1884 C1890 1.428 . S
H1885 C1881 0.930 . S
H1886 C1883 0.929 . S
S1887 N1888 1.613 . S
S1887 N1889 1.610 . S
N1888 S1887 1.613 . S
N1888 C1891 1.350 . S
N1889 S1887 1.610 . S
N1889 C1890 1.351 . S
C1890 C1884 1.428 . S
C1890 N1889 1.351 . S
C1890 C1891 1.434 . S
C1891 C1882 1.429 . S
C1891 N1888 1.350 . S
C1891 C1890 1.434 . S
C1892 C1893 1.369 . S
C1892 C1894 1.419 . S
C1892 H1896 0.930 . S
C1893 C1892 1.369 . S
C1893 C1902 1.429 . S
C1894 C1892 1.419 . S
C1894 C1895 1.363 . S
C1894 H1897 0.929 . S
C1895 C1894 1.363 . S
C1895 C1901 1.428 . S
H1896 C1892 0.930 . S
H1897 C1894 0.929 . S
S1898 N1899 1.613 . S
S1898 N1900 1.610 . S
N1899 S1898 1.613 . S
N1899 C1902 1.350 . S
N1900 S1898 1.610 . S
N1900 C1901 1.351 . S
C1901 C1895 1.428 . S
C1901 N1900 1.351 . S
C1901 C1902 1.434 . S
C1902 C1893 1.429 . S
C1902 N1899 1.350 . S
C1902 C1901 1.434 . S
C1903 C1904 1.369 . S
C1903 C1905 1.419 1_554 S
C1903 H1907 0.930 . S
C1904 C1903 1.369 . S
C1904 C1913 1.429 . S
C1905 C1903 1.419 1_556 S
C1905 C1906 1.363 . S
C1905 H1908 0.929 . S
C1906 C1905 1.363 . S
C1906 C1912 1.428 . S
H1907 C1903 0.930 . S
H1908 C1905 0.929 . S
S1909 N1910 1.613 . S
S1909 N1911 1.610 1_554 S
N1910 S1909 1.613 . S
N1910 C1913 1.350 . S
N1911 S1909 1.610 1_556 S
N1911 C1912 1.351 . S
C1912 C1906 1.428 . S
C1912 N1911 1.351 . S
C1912 C1913 1.434 1_556 S
C1913 C1904 1.429 . S
C1913 N1910 1.350 . S
C1913 C1912 1.434 1_554 S
C1914 C1915 1.369 . S
C1914 C1916 1.419 . S
C1914 H1918 0.930 . S
C1915 C1914 1.369 . S
C1915 C1924 1.429 . S
C1916 C1914 1.419 . S
C1916 C1917 1.363 . S
C1916 H1919 0.929 . S
C1917 C1916 1.363 . S
C1917 C1923 1.428 . S
H1918 C1914 0.930 . S
H1919 C1916 0.929 . S
S1920 N1921 1.613 . S
S1920 N1922 1.610 . S
N1921 S1920 1.613 . S
N1921 C1924 1.350 . S
N1922 S1920 1.610 . S
N1922 C1923 1.351 . S
C1923 C1917 1.428 . S
C1923 N1922 1.351 . S
C1923 C1924 1.434 . S
C1924 C1915 1.429 . S
C1924 N1921 1.350 . S
C1924 C1923 1.434 . S
C1925 C1926 1.369 . S
C1925 C1927 1.419 . S
C1925 H1929 0.930 . S
C1926 C1925 1.369 . S
C1926 C1935 1.429 . S
C1927 C1925 1.419 . S
C1927 C1928 1.363 . S
C1927 H1930 0.929 . S
C1928 C1927 1.363 . S
C1928 C1934 1.428 . S
H1929 C1925 0.930 . S
H1930 C1927 0.929 . S
S1931 N1932 1.613 . S
S1931 N1933 1.610 . S
N1932 S1931 1.613 . S
N1932 C1935 1.350 . S
N1933 S1931 1.610 . S
N1933 C1934 1.351 . S
C1934 C1928 1.428 . S
C1934 N1933 1.351 . S
C1934 C1935 1.434 . S
C1935 C1926 1.429 . S
C1935 N1932 1.350 . S
C1935 C1934 1.434 . S
C1057 N13 1.631 . S
C1059 N805 1.634 . S
C1068 N310 1.637 . S
C1070 N46 1.630 . S
C1079 N871 1.636 . S
C1081 N79 1.631 . S
C1090 N112 1.626 . S
C1092 N376 1.638 . S
C1101 N937 1.640 . S
C1103 N145 1.628 . S
C1112 N442 1.638 . S
C1114 N178 1.629 . S
C1123 N211 1.639 . S
C1125 N1003 1.628 . S
C1134 N244 1.640 . S
C1136 N508 1.628 . S
C1145 N277 1.626 . S
C1147 N541 1.638 . S
C1156 N343 1.630 . S
C1158 N607 1.634 . S
C1167 N673 1.640 . S
C1169 N409 1.628 . S
C1178 N475 1.626 . S
C1180 N739 1.638 . S
C1189 N574 1.638 . S
C1191 N838 1.628 . S
C1200 N904 1.627 . S
C1202 N640 1.638 . S
C1211 N970 1.640 . S
C1213 N706 1.628 . S
C1222 N772 1.640 . S
C1224 N1036 1.628 . S
C1233 C7 1.403 . S
C1235 N827 1.487 . S
C1244 N332 1.489 . S
C1246 C40 1.402 . S
C1255 C73 1.400 . S
C1257 N893 1.487 . S
C1266 N266 1.479 . S
C1268 C106 1.406 . S
C1277 C139 1.402 . S
C1279 N1025 1.487 . S
C1288 C172 1.400 . S
C1290 N398 1.483 . S
C1299 N959 1.478 . S
C1301 C205 1.408 . S
C1310 N464 1.482 . S
C1312 C238 1.402 . S
C1321 N563 1.488 . S
C1323 C271 1.403 . S
C1332 N68 1.489 . S
C1334 C304 1.402 . S
C1343 C337 1.401 . S
C1345 N629 1.487 . S
C1354 C370 1.411 . S
C1356 N2 1.480 . S
C1365 N761 1.488 . S
C1367 C403 1.400 . S
C1376 N134 1.489 . S
C1378 C436 1.401 . S
C1387 C469 1.401 . S
C1389 N695 1.487 . S
C1398 C502 1.411 . S
C1400 N200 1.484 . S
C1409 N299 1.489 . S
C1411 C535 1.402 . S
C1420 N860 1.486 . S
C1422 C568 1.409 . S
C1431 N365 1.488 . S
C1433 C601 1.405 . S
C1442 C634 1.405 . S
C1444 N794 1.480 . S
C1453 N497 1.482 . S
C1455 C667 1.401 . S
C1464 C700 1.408 . S
C1466 N926 1.480 . S
C1475 N431 1.488 . S
C1477 C733 1.401 . S
C1486 C766 1.413 . S
C1488 N992 1.482 . S
C1497 N35 1.480 . S
C1499 C799 1.404 . S
C1508 N596 1.482 . S
C1510 C832 1.403 . S
C1519 N101 1.483 . S
C1521 C865 1.410 . S
C1530 C898 1.412 . S
C1532 N530 1.482 . S
C1541 C931 1.412 . S
C1543 N233 1.480 . S
C1552 N662 1.488 . S
C1554 C964 1.400 . S
C1563 N167 1.488 . S
C1565 C997 1.401 . S
C1574 C1030 1.399 . S
C1576 N728 1.487 . S
C1585 C615 0.470 . S
C1587 C21 0.497 . S
C1596 C648 0.501 . S
C1598 C54 0.478 . S
C1607 C549 0.468 . S
C1609 C87 0.489 . S
C1618 C582 0.472 . S
C1620 C120 0.484 . S
C1629 C153 0.483 . S
C1631 C747 0.475 . S
C1640 C780 0.478 . S
C1642 C186 0.478 . S
C1651 C219 0.501 . S
C1653 C681 0.474 . S
C1662 C714 0.471 . S
C1664 C252 0.485 . S
C1673 C879 0.474 . S
C1675 C285 0.497 . S
C1684 C318 0.476 . S
C1686 C912 0.477 . S
C1695 C351 0.486 . S
C1697 C813 0.496 . S
C1706 C384 0.489 . S
C1708 C846 0.472 . S
C1717 C1011 0.476 . S
C1719 C417 0.498 . S
C1728 C450 0.501 . S
C1730 C1044 0.480 . S
C1739 C483 0.486 . S
C1741 C945 0.473 . S
C1750 C516 0.469 . S
C1752 C978 0.495 . S
C1761 C150 1.955 . S
C1763 C18 1.950 . S
C1772 C183 1.957 . S
C1774 C51 1.950 . S
C1783 C84 1.956 . S
C1785 C216 1.950 . S
C1794 C249 1.955 . S
C1796 C117 1.952 . S
C1805 C282 1.957 . S
C1807 C414 1.951 . S
C1816 C447 1.954 . S
C1818 C315 1.954 . S
C1827 C348 1.949 . S
C1829 C480 1.955 . S
C1838 C513 1.957 . S
C1840 C381 1.951 . S
C1849 C546 1.951 . S
C1851 C678 1.955 . S
C1860 C711 1.956 . S
C1862 C579 1.950 . S
C1871 C744 1.949 . S
C1873 C612 1.956 . S
C1882 C645 1.952 . S
C1884 C777 1.955 . S
C1893 C942 1.949 . S
C1895 C810 1.953 . S
C1904 C843 1.951 . S
C1906 C975 1.951 . S
C1915 C876 1.949 . S
C1917 C1008 1.955 . S
C1926 C909 1.957 . S
C1928 C1041 1.951 . S
