# Generated by pormake.
# Topology xfz, (5)-cn, num edge types: 1
# Building blocks:
#     Node 0, Type 0, BuildingBlock: BEQFEK_clean_sbu_0, # of connection points: 5
#     Node 1, Type 0, BuildingBlock: BEQFEK_clean_sbu_0, # of connection points: 5
#     Node 2, Type 0, BuildingBlock: BEQFEK_clean_sbu_0, # of connection points: 5
#     Node 3, Type 0, BuildingBlock: BEQFEK_clean_sbu_0, # of connection points: 5
#     Node 4, Type 0, BuildingBlock: BEQFEK_clean_sbu_0, # of connection points: 5
#     Node 5, Type 0, BuildingBlock: BEQFEK_clean_sbu_0, # of connection points: 5
#     Node 6, Type 0, BuildingBlock: BEQFEK_clean_sbu_0, # of connection points: 5
#     Node 7, Type 0, BuildingBlock: BEQFEK_clean_sbu_0, # of connection points: 5
#     Node 8, Type 0, BuildingBlock: BEQFEK_clean_sbu_0, # of connection points: 5
#     Node 9, Type 0, BuildingBlock: BEQFEK_clean_sbu_0, # of connection points: 5
#     Node 10, Type 0, BuildingBlock: BEQFEK_clean_sbu_0, # of connection points: 5
#     Node 11, Type 0, BuildingBlock: BEQFEK_clean_sbu_0, # of connection points: 5
#     Node 12, Type 0, BuildingBlock: BEQFEK_clean_sbu_0, # of connection points: 5
#     Node 13, Type 0, BuildingBlock: BEQFEK_clean_sbu_0, # of connection points: 5
#     Node 14, Type 0, BuildingBlock: BEQFEK_clean_sbu_0, # of connection points: 5
#     Node 15, Type 0, BuildingBlock: BEQFEK_clean_sbu_0, # of connection points: 5
#     Edge 16, Type (0, 0), BuildingBlock: EZIPEK_clean_linker_0, # of connection points: 2
#     Edge 17, Type (0, 0), BuildingBlock: EZIPEK_clean_linker_0, # of connection points: 2
#     Edge 18, Type (0, 0), BuildingBlock: EZIPEK_clean_linker_0, # of connection points: 2
#     Edge 19, Type (0, 0), BuildingBlock: EZIPEK_clean_linker_0, # of connection points: 2
#     Edge 20, Type (0, 0), BuildingBlock: EZIPEK_clean_linker_0, # of connection points: 2
#     Edge 21, Type (0, 0), BuildingBlock: EZIPEK_clean_linker_0, # of connection points: 2
#     Edge 22, Type (0, 0), BuildingBlock: EZIPEK_clean_linker_0, # of connection points: 2
#     Edge 23, Type (0, 0), BuildingBlock: EZIPEK_clean_linker_0, # of connection points: 2
#     Edge 24, Type (0, 0), BuildingBlock: EZIPEK_clean_linker_0, # of connection points: 2
#     Edge 25, Type (0, 0), BuildingBlock: EZIPEK_clean_linker_0, # of connection points: 2
#     Edge 26, Type (0, 0), BuildingBlock: EZIPEK_clean_linker_0, # of connection points: 2
#     Edge 27, Type (0, 0), BuildingBlock: EZIPEK_clean_linker_0, # of connection points: 2
#     Edge 28, Type (0, 0), BuildingBlock: EZIPEK_clean_linker_0, # of connection points: 2
#     Edge 29, Type (0, 0), BuildingBlock: EZIPEK_clean_linker_0, # of connection points: 2
#     Edge 30, Type (0, 0), BuildingBlock: EZIPEK_clean_linker_0, # of connection points: 2
#     Edge 31, Type (0, 0), BuildingBlock: EZIPEK_clean_linker_0, # of connection points: 2
#     Edge 32, Type (0, 0), BuildingBlock: EZIPEK_clean_linker_0, # of connection points: 2
#     Edge 33, Type (0, 0), BuildingBlock: EZIPEK_clean_linker_0, # of connection points: 2
#     Edge 34, Type (0, 0), BuildingBlock: EZIPEK_clean_linker_0, # of connection points: 2
#     Edge 35, Type (0, 0), BuildingBlock: EZIPEK_clean_linker_0, # of connection points: 2
#     Edge 36, Type (0, 0), BuildingBlock: EZIPEK_clean_linker_0, # of connection points: 2
#     Edge 37, Type (0, 0), BuildingBlock: EZIPEK_clean_linker_0, # of connection points: 2
#     Edge 38, Type (0, 0), BuildingBlock: EZIPEK_clean_linker_0, # of connection points: 2
#     Edge 39, Type (0, 0), BuildingBlock: EZIPEK_clean_linker_0, # of connection points: 2
#     Edge 40, Type (0, 0), BuildingBlock: EZIPEK_clean_linker_0, # of connection points: 2
#     Edge 41, Type (0, 0), BuildingBlock: EZIPEK_clean_linker_0, # of connection points: 2
#     Edge 42, Type (0, 0), BuildingBlock: EZIPEK_clean_linker_0, # of connection points: 2
#     Edge 43, Type (0, 0), BuildingBlock: EZIPEK_clean_linker_0, # of connection points: 2
#     Edge 44, Type (0, 0), BuildingBlock: EZIPEK_clean_linker_0, # of connection points: 2
#     Edge 45, Type (0, 0), BuildingBlock: EZIPEK_clean_linker_0, # of connection points: 2
#     Edge 46, Type (0, 0), BuildingBlock: EZIPEK_clean_linker_0, # of connection points: 2
#     Edge 47, Type (0, 0), BuildingBlock: EZIPEK_clean_linker_0, # of connection points: 2
#     Edge 48, Type (0, 0), BuildingBlock: EZIPEK_clean_linker_0, # of connection points: 2
#     Edge 49, Type (0, 0), BuildingBlock: EZIPEK_clean_linker_0, # of connection points: 2
#     Edge 50, Type (0, 0), BuildingBlock: EZIPEK_clean_linker_0, # of connection points: 2
#     Edge 51, Type (0, 0), BuildingBlock: EZIPEK_clean_linker_0, # of connection points: 2
#     Edge 52, Type (0, 0), BuildingBlock: EZIPEK_clean_linker_0, # of connection points: 2
#     Edge 53, Type (0, 0), BuildingBlock: EZIPEK_clean_linker_0, # of connection points: 2
#     Edge 54, Type (0, 0), BuildingBlock: EZIPEK_clean_linker_0, # of connection points: 2
#     Edge 55, Type (0, 0), BuildingBlock: EZIPEK_clean_linker_0, # of connection points: 2
# Relax obj value: 0.410
# Max RMSD: 0.190
# Mean RMSD: 0.190
data_MOF--net-xfz--node1-BEQFEK_clean_sbu_0--edge1-EZIPEK_clean_linker_0
_symmetry_space_group_name_H-M    P1
_symmetry_Int_Tables_number       1
_symmetry_cell_setting            triclinic
loop_
_symmetry_equiv_pos_as_xyz
'x, y, z'
_cell_length_a     36.941486
_cell_length_b     36.998419
_cell_length_c     36.172856
_cell_angle_alpha  89.887975
_cell_angle_beta   89.839615
_cell_angle_gamma 90.078305
loop_
_atom_site_label
_atom_site_type_symbol
_atom_site_fract_x
_atom_site_fract_y
_atom_site_fract_z
_atom_type_partial_charge
Co0 Co 0.13605 0.48567 0.39015 0.0
Co1 Co 0.20895 0.46247 0.353 0.0
C2 C 0.13987 0.42002 0.34121 0.0
O3 O 0.12261 0.44167 0.36201 0.0
O4 O 0.174 0.42333 0.33702 0.0
C5 C 0.08141 0.47571 0.44518 0.0
O6 O 0.10081 0.44739 0.45444 0.0
C7 C 0.2708 0.4131 0.34614 0.0
C8 C 0.31008 0.44417 0.31277 0.0
C9 C 0.30497 0.41123 0.33036 0.0
N10 N 0.2562 0.44557 0.33827 0.0
N11 N 0.27987 0.46398 0.3182 0.0
C12 C 0.25235 0.38443 0.36846 0.0
H13 H 0.22955 0.39603 0.38456 0.0
H14 H 0.27202 0.37125 0.38731 0.0
H15 H 0.24162 0.36345 0.34954 0.0
C16 C 0.18377 0.4927 0.45561 0.0
N17 N 0.17792 0.48204 0.42048 0.0
N18 N 0.20882 0.47173 0.4057 0.0
C19 C 0.23514 0.47483 0.43168 0.0
C20 C 0.21987 0.4879 0.46431 0.0
C21 C 0.15624 0.51085 0.47947 0.0
H22 H 0.13764 0.52698 0.4621 0.0
H23 H 0.14102 0.4899 0.495 0.0
H24 H 0.16883 0.52902 0.50008 0.0
O25 O 0.14309 0.52368 0.35271 0.0
O26 O 0.19476 0.50865 0.3247 0.0
H27 H 0.29127 0.47903 0.44774 0.0
H28 H 0.27933 0.43898 0.42216 0.0
C29 C 0.27451 0.46844 0.42474 0.0
H30 H 0.28275 0.48156 0.39845 0.0
H31 H 0.27545 0.49012 0.30827 0.0
O32 O 0.09246 0.49676 0.41973 0.0
C33 C 0.16696 0.52925 0.32782 0.0
Co34 Co 0.48532 0.88352 0.67908 0.0
Co35 Co 0.46397 0.81271 0.72008 0.0
C36 C 0.42035 0.88109 0.72942 0.0
O37 O 0.44212 0.89768 0.7081 0.0
O38 O 0.42341 0.84707 0.73434 0.0
C39 C 0.46941 0.93698 0.62637 0.0
O40 O 0.43863 0.91931 0.62451 0.0
C41 C 0.41649 0.74968 0.72887 0.0
C42 C 0.4476 0.71315 0.76502 0.0
C43 C 0.41508 0.7163 0.74625 0.0
N44 N 0.44827 0.7657 0.73692 0.0
N45 N 0.46673 0.74367 0.75864 0.0
C46 C 0.38796 0.76604 0.70492 0.0
H47 H 0.39912 0.78905 0.68877 0.0
H48 H 0.37669 0.7453 0.68602 0.0
H49 H 0.36553 0.77594 0.72267 0.0
C50 C 0.4907 0.83475 0.61524 0.0
N51 N 0.48145 0.84113 0.65069 0.0
N52 N 0.47348 0.81044 0.66722 0.0
C53 C 0.47732 0.78337 0.64218 0.0
C54 C 0.48812 0.7981 0.60832 0.0
C55 C 0.50478 0.86285 0.58902 0.0
H56 H 0.48179 0.87924 0.57883 0.0
H57 H 0.51838 0.85079 0.56466 0.0
H58 H 0.52427 0.88069 0.60343 0.0
O59 O 0.52452 0.87924 0.7154 0.0
O60 O 0.50875 0.83088 0.74868 0.0
H61 H 0.48588 0.72712 0.62903 0.0
H62 H 0.44427 0.73724 0.65297 0.0
C63 C 0.47344 0.74406 0.65094 0.0
H64 H 0.48623 0.73802 0.67795 0.0
H65 H 0.49244 0.74943 0.76906 0.0
O66 O 0.49444 0.92508 0.64708 0.0
C67 C 0.52969 0.85804 0.74268 0.0
Co68 Co 0.88393 0.52511 0.38431 0.0
Co69 Co 0.81261 0.55028 0.34644 0.0
C70 C 0.88408 0.59203 0.33854 0.0
O71 O 0.90084 0.56993 0.35939 0.0
O72 O 0.85013 0.58841 0.33279 0.0
C73 C 0.94194 0.52148 0.43744 0.0
O74 O 0.93762 0.55661 0.44033 0.0
C75 C 0.75173 0.60136 0.3402 0.0
C76 C 0.71324 0.57221 0.30446 0.0
C77 C 0.71804 0.60422 0.32366 0.0
N78 N 0.76633 0.56918 0.33124 0.0
N79 N 0.74314 0.55195 0.30975 0.0
C80 C 0.76962 0.62879 0.36432 0.0
H81 H 0.77957 0.65144 0.34687 0.0
H82 H 0.79284 0.61666 0.37928 0.0
H83 H 0.74974 0.63998 0.3843 0.0
C84 C 0.83604 0.52271 0.4505 0.0
N85 N 0.84203 0.53062 0.41454 0.0
N86 N 0.81128 0.54008 0.39901 0.0
C87 C 0.78469 0.5382 0.42497 0.0
C88 C 0.79971 0.52738 0.45853 0.0
C89 C 0.86412 0.50896 0.4767 0.0
H90 H 0.87842 0.48584 0.46407 0.0
H91 H 0.88371 0.53085 0.48264 0.0
H92 H 0.8523 0.49988 0.50331 0.0
O93 O 0.87575 0.48919 0.34529 0.0
O94 O 0.8247 0.50439 0.31704 0.0
H95 H 0.73794 0.53277 0.3904 0.0
H96 H 0.72832 0.5324 0.43965 0.0
C97 C 0.74542 0.54445 0.41754 0.0
H98 H 0.74024 0.57395 0.41662 0.0
H99 H 0.74764 0.52624 0.29881 0.0
O100 O 0.92321 0.50456 0.41381 0.0
C101 C 0.8523 0.48368 0.32027 0.0
Co102 Co 0.52945 0.13775 0.69076 0.0
Co103 Co 0.55402 0.21075 0.72482 0.0
C104 C 0.59533 0.13961 0.73713 0.0
O105 O 0.57366 0.12193 0.71668 0.0
O106 O 0.59166 0.17374 0.74136 0.0
C107 C 0.52334 0.06852 0.65659 0.0
O108 O 0.55648 0.06289 0.66833 0.0
C109 C 0.60686 0.27015 0.72923 0.0
C110 C 0.57624 0.31339 0.75718 0.0
C111 C 0.60973 0.30536 0.74196 0.0
N112 N 0.57333 0.25774 0.73671 0.0
N113 N 0.55517 0.28379 0.75349 0.0
C114 C 0.63539 0.24887 0.70965 0.0
H115 H 0.62295 0.22669 0.69339 0.0
H116 H 0.65159 0.26677 0.69129 0.0
H117 H 0.6539 0.23691 0.73044 0.0
C118 C 0.52856 0.18019 0.62238 0.0
N119 N 0.53608 0.1771 0.65864 0.0
N120 N 0.5446 0.20892 0.67214 0.0
C121 C 0.54224 0.23357 0.6444 0.0
C122 C 0.53199 0.216 0.61187 0.0
C123 C 0.51625 0.14958 0.59848 0.0
H124 H 0.53505 0.12645 0.60164 0.0
H125 H 0.51518 0.15743 0.56892 0.0
H126 H 0.48884 0.14083 0.60741 0.0
O127 O 0.49309 0.14812 0.72869 0.0
O128 O 0.50755 0.20054 0.75452 0.0
H129 H 0.53754 0.28861 0.62501 0.0
H130 H 0.57705 0.27875 0.65249 0.0
C131 C 0.54771 0.27328 0.64926 0.0
H132 H 0.53375 0.28249 0.67474 0.0
H133 H 0.52831 0.28145 0.76221 0.0
O134 O 0.50819 0.09857 0.6624 0.0
C135 C 0.48698 0.17269 0.75234 0.0
Co136 Co 0.13449 0.53269 0.6844 0.0
Co137 Co 0.20738 0.55532 0.72231 0.0
C138 C 0.13929 0.59895 0.73312 0.0
O139 O 0.1219 0.57715 0.71261 0.0
O140 O 0.17333 0.59537 0.73746 0.0
C141 C 0.08271 0.54386 0.6266 0.0
O142 O 0.1041 0.57082 0.61737 0.0
C143 C 0.26968 0.60385 0.73195 0.0
C144 C 0.31058 0.56917 0.75859 0.0
C145 C 0.30486 0.60383 0.74522 0.0
N146 N 0.25512 0.57081 0.73719 0.0
N147 N 0.27974 0.55025 0.7533 0.0
C148 C 0.25054 0.63455 0.7136 0.0
H149 H 0.22943 0.62422 0.69455 0.0
H150 H 0.27005 0.65189 0.69829 0.0
H151 H 0.23722 0.65129 0.73511 0.0
C152 C 0.18368 0.52394 0.62 0.0
N153 N 0.17721 0.53516 0.65485 0.0
N154 N 0.20783 0.546 0.6697 0.0
C155 C 0.23444 0.54315 0.64385 0.0
C156 C 0.21973 0.52933 0.61136 0.0
C157 C 0.15686 0.50486 0.59623 0.0
H158 H 0.13649 0.49093 0.61365 0.0
H159 H 0.1439 0.52502 0.57786 0.0
H160 H 0.16998 0.48448 0.57827 0.0
O161 O 0.13993 0.49444 0.72194 0.0
O162 O 0.19121 0.50953 0.75063 0.0
H163 H 0.28275 0.53596 0.67543 0.0
H164 H 0.29047 0.54339 0.62651 0.0
C165 C 0.27352 0.55101 0.65066 0.0
H166 H 0.27688 0.58029 0.65608 0.0
H167 H 0.27567 0.52313 0.76026 0.0
O168 O 0.09119 0.5233 0.65343 0.0
C169 C 0.16329 0.48902 0.74726 0.0
Co170 Co 0.53183 0.88222 0.38875 0.0
Co171 Co 0.55635 0.81073 0.35039 0.0
C172 C 0.59922 0.87919 0.34079 0.0
O173 O 0.57649 0.89587 0.36094 0.0
O174 O 0.59678 0.84508 0.33651 0.0
C175 C 0.54199 0.93471 0.44509 0.0
O176 O 0.56938 0.91411 0.45459 0.0
C177 C 0.60552 0.74921 0.34066 0.0
C178 C 0.57157 0.70824 0.3132 0.0
C179 C 0.60603 0.71425 0.32699 0.0
N180 N 0.57239 0.7634 0.33523 0.0
N181 N 0.55224 0.73873 0.31865 0.0
C182 C 0.63584 0.76849 0.35954 0.0
H183 H 0.65261 0.78245 0.33838 0.0
H184 H 0.62501 0.78906 0.37893 0.0
H185 H 0.65333 0.74905 0.37457 0.0
C186 C 0.52328 0.83332 0.45293 0.0
N187 N 0.53438 0.83988 0.41802 0.0
N188 N 0.54565 0.80956 0.40298 0.0
C189 C 0.54321 0.78295 0.42883 0.0
C190 C 0.52915 0.7974 0.46143 0.0
C191 C 0.50402 0.85999 0.47688 0.0
H192 H 0.48891 0.87947 0.45954 0.0
H193 H 0.5242 0.87432 0.49411 0.0
H194 H 0.48466 0.84653 0.4959 0.0
O195 O 0.49444 0.87683 0.35106 0.0
O196 O 0.51222 0.82792 0.31996 0.0
H197 H 0.53801 0.73457 0.39703 0.0
H198 H 0.54451 0.72703 0.4461 0.0
C199 C 0.55224 0.74418 0.42212 0.0
H200 H 0.58177 0.74168 0.41725 0.0
H201 H 0.52516 0.74255 0.31145 0.0
O202 O 0.52119 0.92505 0.41901 0.0
C203 C 0.49064 0.85481 0.32433 0.0
Co204 Co 0.88488 0.49809 0.67901 0.0
Co205 Co 0.81585 0.47123 0.71966 0.0
C206 C 0.88906 0.43167 0.72343 0.0
O207 O 0.90252 0.45138 0.69801 0.0
O208 O 0.85651 0.43657 0.73447 0.0
C209 C 0.94154 0.50368 0.6251 0.0
O210 O 0.93601 0.46883 0.62096 0.0
C211 C 0.75692 0.41752 0.72648 0.0
C212 C 0.71816 0.44486 0.76354 0.0
C213 C 0.7235 0.4134 0.74357 0.0
N214 N 0.77082 0.44991 0.73588 0.0
N215 N 0.74749 0.46602 0.75821 0.0
C216 C 0.77507 0.39121 0.70125 0.0
H217 H 0.79879 0.40384 0.6874 0.0
H218 H 0.7555 0.38131 0.68034 0.0
H219 H 0.78422 0.36752 0.71758 0.0
C220 C 0.83559 0.50231 0.61517 0.0
N221 N 0.84256 0.49365 0.65065 0.0
N222 N 0.81278 0.48199 0.66678 0.0
C223 C 0.7857 0.48299 0.6414 0.0
C224 C 0.79954 0.49561 0.60779 0.0
C225 C 0.86255 0.51834 0.58885 0.0
H226 H 0.88204 0.4972 0.58031 0.0
H227 H 0.84962 0.5292 0.5636 0.0
H228 H 0.87721 0.54067 0.60253 0.0
O229 O 0.87799 0.53136 0.72121 0.0
O230 O 0.82613 0.51721 0.74886 0.0
H231 H 0.7289 0.48578 0.6281 0.0
H232 H 0.74364 0.44421 0.64912 0.0
C233 C 0.74703 0.47398 0.64936 0.0
H234 H 0.7393 0.48411 0.67711 0.0
H235 H 0.75141 0.49166 0.7695 0.0
O236 O 0.92334 0.52032 0.64944 0.0
C237 C 0.85453 0.53696 0.74638 0.0
Co238 Co 0.49734 0.13364 0.38465 0.0
Co239 Co 0.47152 0.20635 0.34968 0.0
C240 C 0.4308 0.13517 0.33803 0.0
O241 O 0.45275 0.11784 0.35855 0.0
O242 O 0.43402 0.16933 0.33365 0.0
C243 C 0.50001 0.07497 0.43675 0.0
O244 O 0.46511 0.08081 0.44043 0.0
C245 C 0.41926 0.26636 0.34312 0.0
C246 C 0.4516 0.30928 0.31637 0.0
C247 C 0.41752 0.30176 0.33053 0.0
N248 N 0.45278 0.25341 0.33669 0.0
N249 N 0.47191 0.27926 0.32054 0.0
C250 C 0.38977 0.24553 0.36186 0.0
H251 H 0.40126 0.22288 0.37821 0.0
H252 H 0.37365 0.26359 0.38001 0.0
H253 H 0.37141 0.23427 0.34055 0.0
C254 C 0.5 0.17889 0.4525 0.0
N255 N 0.49163 0.17411 0.41651 0.0
N256 N 0.48096 0.20513 0.4024 0.0
C257 C 0.48196 0.23049 0.42948 0.0
C258 C 0.49399 0.2145 0.46213 0.0
C259 C 0.51602 0.15066 0.47714 0.0
H260 H 0.53812 0.13669 0.46238 0.0
H261 H 0.49475 0.13097 0.48506 0.0
H262 H 0.52724 0.16236 0.50284 0.0
O263 O 0.53356 0.1437 0.34634 0.0
O264 O 0.518 0.19576 0.32017 0.0
H265 H 0.4872 0.27984 0.39895 0.0
H266 H 0.48135 0.28583 0.44837 0.0
C267 C 0.47324 0.26953 0.42402 0.0
H268 H 0.44365 0.27238 0.41986 0.0
H269 H 0.499 0.27657 0.31276 0.0
O270 O 0.51734 0.09306 0.41274 0.0
C271 C 0.53899 0.16825 0.32234 0.0
Co272 Co 0.63635 0.99167 0.89043 0.0
Co273 Co 0.70614 0.9676 0.84969 0.0
C274 C 0.6322 0.92915 0.84091 0.0
O275 O 0.61811 0.94751 0.8669 0.0
O276 O 0.6653 0.93406 0.83152 0.0
C277 C 0.57645 0.993 0.93921 0.0
O278 O 0.57881 0.9578 0.93533 0.0
C279 C 0.76606 0.91515 0.84356 0.0
C280 C 0.80427 0.94291 0.80604 0.0
C281 C 0.79958 0.9116 0.82657 0.0
N282 N 0.75151 0.94708 0.8336 0.0
N283 N 0.7745 0.96344 0.811 0.0
C284 C 0.74844 0.88872 0.86921 0.0
H285 H 0.72339 0.90027 0.88138 0.0
H286 H 0.76763 0.88109 0.89145 0.0
H287 H 0.74163 0.86378 0.85371 0.0
C288 C 0.68366 0.99058 0.95564 0.0
N289 N 0.67761 0.98399 0.91955 0.0
N290 N 0.70819 0.97548 0.90309 0.0
C291 C 0.73506 0.97752 0.92863 0.0
C292 C 0.72018 0.98697 0.96285 0.0
C293 C 0.65531 1.00235 0.98267 0.0
H294 H 0.6437 0.02839 0.97345 0.0
H295 H 0.63356 0.98176 0.98389 0.0
H296 H 0.66637 1.0058 1.01089 0.0
O297 O 0.64489 0.02784 0.85105 0.0
O298 O 0.69692 0.01517 0.82313 0.0
H299 H 0.78051 0.98423 0.89216 0.0
H300 H 0.79125 0.98746 0.94104 0.0
C301 C 0.77443 0.97341 0.92011 0.0
H302 H 0.78141 0.94428 0.9206 0.0
H303 H 0.77008 0.98885 0.79929 0.0
O304 O 0.59813 0.0126 0.92085 0.0
C305 C 0.66868 0.0349 0.82657 0.0
Co306 Co 0.99225 0.38172 0.18445 0.0
Co307 Co 0.9684 0.30924 0.2214 0.0
C308 C 0.92493 0.37774 0.23164 0.0
O309 O 0.94729 0.39493 0.21142 0.0
O310 O 0.92833 0.34373 0.23636 0.0
C311 C 0.98254 0.43617 0.12964 0.0
O312 O 0.95398 0.41697 0.1206 0.0
C313 C 0.9201 0.24658 0.22959 0.0
C314 C 0.95298 0.20789 0.26157 0.0
C315 C 0.91944 0.21232 0.24512 0.0
N316 N 0.95248 0.26187 0.23648 0.0
N317 N 0.97198 0.23857 0.25573 0.0
C318 C 0.89038 0.26443 0.20842 0.0
H319 H 0.90117 0.28718 0.19162 0.0
H320 H 0.87661 0.24448 0.19036 0.0
H321 H 0.87005 0.27513 0.22819 0.0
C322 C 0.99966 0.33411 0.11888 0.0
N323 N 0.98931 0.33981 0.15417 0.0
N324 N 0.97826 0.30906 0.1687 0.0
C325 C 0.98034 0.28307 0.14226 0.0
C326 C 0.99369 0.29838 0.10968 0.0
C327 C 0.0179 0.36151 0.09493 0.0
H328 H 0.99693 0.37627 0.07912 0.0
H329 H 0.03641 0.34875 0.07465 0.0
H330 H 0.03379 0.38042 0.11218 0.0
O331 O 0.02978 0.37543 0.22233 0.0
O332 O 0.01411 0.32397 0.25021 0.0
H333 H 0.98153 0.22726 0.12491 0.0
H334 H 0.9423 0.24054 0.15136 0.0
C335 C 0.97198 0.24399 0.14842 0.0
H336 H 0.98492 0.2346 0.17433 0.0
H337 H 0.99834 0.24355 0.26476 0.0
O338 O 1.00366 0.425 0.15484 0.0
C339 C 0.03489 0.35169 0.24734 0.0
Co340 Co 0.38372 0.03138 0.88535 0.0
Co341 Co 0.31149 0.05536 0.84797 0.0
C342 C 0.38035 0.09901 0.83889 0.0
O343 O 0.39739 0.07656 0.85897 0.0
O344 O 0.34638 0.09543 0.8338 0.0
C345 C 0.43737 0.04063 0.94131 0.0
O346 O 0.41818 0.06919 0.95023 0.0
C347 C 0.24959 0.10437 0.84021 0.0
C348 C 0.2106 0.07269 0.80742 0.0
C349 C 0.21547 0.10584 0.82449 0.0
N350 N 0.26439 0.07193 0.83282 0.0
N351 N 0.24092 0.05314 0.81309 0.0
C352 C 0.2678 0.13341 0.86203 0.0
H353 H 0.27967 0.1535 0.84266 0.0
H354 H 0.28981 0.12189 0.87922 0.0
H355 H 0.24779 0.14759 0.87976 0.0
C356 C 0.33494 0.02293 0.95009 0.0
N357 N 0.34118 0.03395 0.91512 0.0
N358 N 0.31057 0.0451 0.90051 0.0
C359 C 0.28417 0.0425 0.92668 0.0
C360 C 0.29907 0.02862 0.95913 0.0
C361 C 0.36197 1.00431 0.97386 0.0
H362 H 0.37619 0.02506 0.99045 0.0
H363 H 0.34893 0.98517 0.99339 0.0
H364 H 0.38126 0.98904 0.95644 0.0
O365 O 0.37768 0.99403 0.84715 0.0
O366 O 0.32637 1.00964 0.81908 0.0
H367 H 0.22807 0.04097 0.94355 0.0
H368 H 0.24171 0.0805 0.91773 0.0
C369 C 0.24512 0.05084 0.9203 0.0
H370 H 0.23604 0.03822 0.89413 0.0
H371 H 0.24552 0.0269 0.80361 0.0
O372 O 0.42662 0.01984 0.91564 0.0
C373 C 0.35404 0.98885 0.8221 0.0
Co374 Co 0.03194 0.6345 0.1878 0.0
Co375 Co 0.05633 0.7062 0.22483 0.0
C376 C 0.09706 0.63434 0.2352 0.0
O377 O 0.07567 0.61736 0.21384 0.0
O378 O 0.09356 0.66838 0.24013 0.0
C379 C 0.02987 0.5747 0.13838 0.0
O380 O 0.06531 0.57728 0.14007 0.0
C381 C 0.10854 0.76623 0.2284 0.0
C382 C 0.08223 0.8047 0.26643 0.0
C383 C 0.11316 0.79949 0.24536 0.0
N384 N 0.07644 0.75224 0.239 0.0
N385 N 0.06088 0.77543 0.2618 0.0
C386 C 0.13432 0.74812 0.20251 0.0
H387 H 0.12166 0.72399 0.18971 0.0
H388 H 0.14304 0.76748 0.18074 0.0
H389 H 0.15881 0.73973 0.21798 0.0
C390 C 0.03156 0.68061 0.12066 0.0
N391 N 0.03886 0.67543 0.15683 0.0
N392 N 0.04662 0.70668 0.17218 0.0
C393 C 0.04347 0.73291 0.14605 0.0
C394 C 0.03394 0.71707 0.11245 0.0
C395 C 0.02053 0.6515 0.0943 0.0
H396 H 0.04207 0.63077 0.09302 0.0
H397 H 0.01619 0.66202 0.06594 0.0
H398 H 0.99511 0.63889 0.10413 0.0
O399 O 0.99552 0.64375 0.22625 0.0
O400 O 1.01004 0.69514 0.25414 0.0
H401 H 0.03272 0.78856 0.13203 0.0
H402 H 0.07591 0.78003 0.15324 0.0
C403 C 0.04685 0.77248 0.15353 0.0
H404 H 0.03563 0.77889 0.18122 0.0
H405 H 0.03568 0.77128 0.27426 0.0
O406 O 0.01117 0.59545 0.15856 0.0
C407 C 0.98951 0.66738 0.25096 0.0
Co408 Co 0.63872 0.02967 0.18548 0.0
Co409 Co 0.71188 0.05186 0.22236 0.0
C410 C 0.64423 0.09651 0.23296 0.0
O411 O 0.62659 0.07467 0.21275 0.0
O412 O 0.6782 0.09241 0.23751 0.0
C413 C 0.58574 0.04167 0.12944 0.0
O414 O 0.60612 0.06963 0.12098 0.0
C415 C 0.77424 0.10006 0.2318 0.0
C416 C 0.81558 0.06488 0.25701 0.0
C417 C 0.80962 0.09976 0.24441 0.0
N418 N 0.75977 0.06697 0.23669 0.0
N419 N 0.78464 0.04608 0.25193 0.0
C420 C 0.7548 0.13112 0.21443 0.0
H421 H 0.73396 0.12114 0.19488 0.0
H422 H 0.77412 0.14927 0.19988 0.0
H423 H 0.74106 0.14688 0.23644 0.0
C424 C 0.68699 0.02033 0.12045 0.0
N425 N 0.68108 0.03142 0.15543 0.0
N426 N 0.71191 0.04229 0.16976 0.0
C427 C 0.73805 0.03969 0.14335 0.0
C428 C 0.72281 0.02585 0.1111 0.0
C429 C 0.65962 1.00231 0.09662 0.0
H430 H 0.63873 0.98884 0.11375 0.0
H431 H 0.64754 0.02325 0.07855 0.0
H432 H 0.67227 0.98173 0.07851 0.0
O433 O 0.64406 0.99173 0.2233 0.0
O434 O 0.69598 1.00617 0.25101 0.0
H435 H 0.79357 0.04151 0.12454 0.0
H436 H 0.77979 0.07783 0.1548 0.0
C437 C 0.77707 0.04851 0.14919 0.0
H438 H 0.78729 0.03353 0.17359 0.0
H439 H 0.78067 0.01884 0.25843 0.0
O440 O 0.59532 0.02023 0.15512 0.0
C441 C 0.66779 0.98596 0.24816 0.0
Co442 Co 0.02543 0.38251 0.88514 0.0
Co443 Co 0.05176 0.31172 0.84749 0.0
C444 C 0.09306 0.38251 0.83901 0.0
O445 O 0.06991 0.39908 0.85889 0.0
O446 O 0.09107 0.34827 0.83475 0.0
C447 C 0.02569 0.44156 0.9351 0.0
O448 O 0.06092 0.43713 0.93321 0.0
C449 C 0.10228 0.25065 0.83966 0.0
C450 C 0.07009 0.21031 0.80915 0.0
C451 C 0.10365 0.21605 0.82509 0.0
N452 N 0.06946 0.26489 0.83266 0.0
N453 N 0.05038 0.24059 0.8143 0.0
C454 C 0.13149 0.26955 0.8606 0.0
H455 H 0.1511 0.28135 0.84063 0.0
H456 H 0.11994 0.29164 0.87767 0.0
H457 H 0.14627 0.25007 0.87838 0.0
C458 C 0.02374 0.33565 0.95155 0.0
N459 N 0.03114 0.34118 0.91541 0.0
N460 N 0.04036 0.31038 0.89999 0.0
C461 C 0.03862 0.28409 0.92624 0.0
C462 C 0.02808 0.29943 0.95982 0.0
C463 C 0.0116 0.3643 0.97794 0.0
H464 H 0.98694 0.37737 0.96705 0.0
H465 H 0.03329 0.38479 0.98079 0.0
H466 H 1.00557 0.35332 1.00582 0.0
O467 O 0.98949 0.37485 0.84643 0.0
O468 O 1.00825 0.32656 0.81549 0.0
H469 H 0.03283 0.23658 0.89304 0.0
H470 H 0.03553 0.22799 0.94241 0.0
C471 C 0.04575 0.24498 0.91929 0.0
H472 H 0.07537 0.2409 0.91662 0.0
H473 H 0.02376 0.24454 0.80559 0.0
O474 O 1.00592 0.4219 0.91486 0.0
C475 C 0.98624 0.35301 0.8196 0.0
Co476 Co 0.38678 0.99252 0.17924 0.0
Co477 Co 0.31723 0.96753 0.21986 0.0
C478 C 0.39072 0.92803 0.22591 0.0
O479 O 0.40442 0.94669 0.19983 0.0
O480 O 0.358 0.93329 0.23636 0.0
C481 C 0.44609 0.99616 0.12959 0.0
O482 O 0.44341 0.96078 0.13119 0.0
C483 C 0.25844 0.91374 0.22737 0.0
C484 C 0.2177 0.94295 0.26049 0.0
C485 C 0.22417 0.91041 0.24282 0.0
N486 N 0.27174 0.94671 0.23552 0.0
N487 N 0.24721 0.96396 0.25547 0.0
C488 C 0.2777 0.88637 0.20428 0.0
H489 H 0.30236 0.89824 0.1915 0.0
H490 H 0.25927 0.8761 0.18248 0.0
H491 H 0.28544 0.86309 0.22195 0.0
C492 C 0.33876 0.99467 0.11455 0.0
N493 N 0.34511 0.98697 0.15038 0.0
N494 N 0.31479 0.97726 0.16672 0.0
C495 C 0.28781 0.97922 0.14129 0.0
C496 C 0.30232 0.99021 0.10732 0.0
C497 C 0.36689 1.00753 0.08769 0.0
H498 H 0.37933 0.03273 0.09816 0.0
H499 H 0.38814 0.98662 0.08487 0.0
H500 H 0.35545 0.01285 0.05992 0.0
O501 O 0.3795 0.02664 0.22057 0.0
O502 O 0.32731 0.01398 0.24825 0.0
H503 H 0.24156 0.98439 0.17676 0.0
H504 H 0.23121 0.98412 0.12767 0.0
C505 C 0.24876 0.97258 0.14957 0.0
H506 H 0.24408 0.943 0.15096 0.0
H507 H 0.25039 0.99028 0.26525 0.0
O508 O 0.42489 0.01465 0.1495 0.0
C509 C 0.35607 0.03316 0.24551 0.0
Co510 Co 0.99239 0.63659 0.88801 0.0
Co511 Co 0.96736 0.70948 0.85274 0.0
C512 C 0.92568 0.64029 0.84022 0.0
O513 O 0.94792 0.62306 0.86037 0.0
O514 O 0.9285 0.67445 0.83644 0.0
C515 C 0.98361 0.58224 0.94295 0.0
O516 O 0.95582 0.60202 0.95312 0.0
C517 C 0.91599 0.76939 0.84457 0.0
C518 C 0.94888 0.81273 0.81932 0.0
C519 C 0.91434 0.80477 0.83204 0.0
N520 N 0.94984 0.75682 0.83943 0.0
N521 N 0.96935 0.7829 0.8242 0.0
C522 C 0.88603 0.74811 0.86198 0.0
H523 H 0.87069 0.73401 0.83996 0.0
H524 H 0.8972 0.72749 0.88113 0.0
H525 H 0.86711 0.76622 0.87699 0.0
C526 C 0.99996 0.68329 0.95415 0.0
N527 N 0.98892 0.67783 0.91909 0.0
N528 N 0.97681 0.70848 0.90542 0.0
C529 C 0.97851 0.73401 0.93234 0.0
C530 C 0.99308 0.7186 0.96422 0.0
C531 C 0.02025 0.65641 0.9768 0.0
H532 H 0.03528 0.63767 0.95856 0.0
H533 H 1.00069 0.64146 0.99439 0.0
H534 H 0.03988 0.6698 0.99543 0.0
O535 O 0.02984 0.64447 0.85037 0.0
O536 O 0.01368 0.69632 0.82358 0.0
H537 H 0.98321 0.78399 0.90295 0.0
H538 H 0.975 0.78897 0.95211 0.0
C539 C 0.9685 0.77279 0.92717 0.0
H540 H 0.93908 0.7747 0.92155 0.0
H541 H 0.99674 0.78047 0.81743 0.0
O542 O 1.00411 0.59296 0.91688 0.0
C543 C 0.03477 0.66879 0.82589 0.0
C544 C 0.9969 0.52192 0.47853 0.0
C545 C 0.97212 0.50247 0.45657 0.0
C546 C 0.01691 0.45577 0.44476 0.0
C547 C 0.04384 0.47964 0.45838 0.0
N548 N 0.05962 0.53098 0.49584 0.0
N549 N 0.95294 0.44195 0.44199 0.0
C550 C 0.03376 0.5111 0.47834 0.0
C551 C 0.98023 0.46628 0.44722 0.0
N552 N 0.98461 0.54903 0.50079 0.0
N553 N 0.02631 0.42469 0.4268 0.0
H554 H 0.92595 0.44856 0.44697 0.0
H555 H 0.95731 0.41445 0.43776 0.0
H556 H 0.05279 0.41532 0.42505 0.0
H557 H 1.00791 0.4091 0.41194 0.0
H558 H 1.00079 0.5632 0.51929 0.0
H559 H 0.957 0.55424 0.5038 0.0
H560 H 0.05515 0.55639 0.50724 0.0
H561 H 0.08585 0.5214 0.49909 0.0
C562 C 0.51967 0.02041 0.60842 0.0
C563 C 0.5031 0.03954 0.63791 0.0
C564 C 0.45064 0.99977 0.63352 0.0
C565 C 0.47228 0.97484 0.61425 0.0
N566 N 0.52396 0.96307 0.57611 0.0
N567 N 0.45186 0.04626 0.67986 0.0
C568 C 0.50541 0.98619 0.59852 0.0
C569 C 0.46777 0.02968 0.65023 0.0
N570 N 0.54868 0.03492 0.59018 0.0
N571 N 0.41439 0.99382 0.6373 0.0
H572 H 0.46406 0.06669 0.69515 0.0
H573 H 0.42775 0.03711 0.69168 0.0
H574 H 0.40147 0.97246 0.62394 0.0
H575 H 0.39693 0.01246 0.64947 0.0
H576 H 0.56013 0.02335 0.56668 0.0
H577 H 0.55906 0.06039 0.59656 0.0
H578 H 0.55027 0.96767 0.56684 0.0
H579 H 0.51255 0.93866 0.56761 0.0
C580 C 0.98223 0.55751 0.61838 0.0
C581 C 0.97314 0.52198 0.60757 0.0
C582 C 0.03565 0.51078 0.58999 0.0
C583 C 0.04581 0.54139 0.61129 0.0
N584 N 0.02883 0.59681 0.64224 0.0
N585 N 0.9864 0.4758 0.56323 0.0
C586 C 0.01915 0.56634 0.6234 0.0
C587 C 0.99842 0.50186 0.58689 0.0
N588 N 0.95563 0.5827 0.62277 0.0
N589 N 0.06162 0.48988 0.57396 0.0
H590 H 0.95882 0.47199 0.55832 0.0
H591 H 1.00312 0.46121 0.54554 0.0
H592 H 0.08842 0.49824 0.57256 0.0
H593 H 0.05667 0.46488 0.56184 0.0
H594 H 0.96075 0.60988 0.62813 0.0
H595 H 0.92873 0.57705 0.61625 0.0
H596 H 1.01029 0.61327 0.65591 0.0
H597 H 0.05562 0.6048 0.6458 0.0
C598 C 0.56402 0.99833 0.44509 0.0
C599 C 0.53919 0.97212 0.45858 0.0
C600 C 0.49794 0.0201 0.47812 0.0
C601 C 0.51815 0.04426 0.45594 0.0
N602 N 0.5793 0.06182 0.44103 0.0
N603 N 0.48628 0.95766 0.49472 0.0
C604 C 0.55427 0.03522 0.44674 0.0
C605 C 0.50759 0.983 0.47798 0.0
N606 N 0.59537 0.988 0.42801 0.0
N607 N 0.4712 0.03308 0.50052 0.0
H608 H 0.49468 0.93099 0.49767 0.0
H609 H 0.46066 0.96294 0.50544 0.0
H610 H 0.46674 0.06078 0.50351 0.0
H611 H 0.45679 0.01725 0.5193 0.0
H612 H 0.61171 1.00571 0.41297 0.0
H613 H 0.60434 0.96138 0.42738 0.0
H614 H 0.60676 0.05682 0.43694 0.0
H615 H 0.57333 0.08898 0.44542 0.0
C616 C 0.51741 0.98812 0.97408 0.0
C617 C 0.5449 1.0099 0.95823 0.0
C618 C 0.50232 0.05891 0.94779 0.0
C619 C 0.47378 0.03482 0.95687 0.0
N620 N 0.45431 0.98354 0.99247 0.0
N621 N 0.56625 0.07139 0.95411 0.0
C622 C 0.48143 1.00153 0.97466 0.0
C623 C 0.53832 0.04726 0.95315 0.0
N624 N 0.52595 0.9552 0.98871 0.0
N625 N 0.49547 0.09157 0.9316 0.0
H626 H 0.59239 0.06353 0.9613 0.0
H627 H 0.5625 0.09928 0.95289 0.0
H628 H 0.46949 0.1016 0.9275 0.0
H629 H 0.51578 0.10782 0.92033 0.0
H630 H 0.50702 0.93588 0.99674 0.0
H631 H 0.55269 0.94776 0.99389 0.0
H632 H 0.45709 0.95865 1.00548 0.0
H633 H 0.42945 0.99577 0.99712 0.0
C634 C 0.02005 0.48247 0.09723 0.0
C635 C 0.98739 0.47333 0.11577 0.0
C636 C 0.97482 0.5372 0.12492 0.0
C637 C 0.01192 0.54443 0.11835 0.0
N638 N 0.06391 0.52934 0.08157 0.0
N639 N 0.93128 0.49246 0.14442 0.0
C640 C 0.0328 0.51868 0.0989 0.0
C641 C 0.96346 0.50085 0.12777 0.0
N642 N 0.03837 0.45637 0.07838 0.0
N643 N 0.95057 0.56486 0.1274 0.0
H644 H 0.92128 0.46623 0.14637 0.0
H645 H 0.91538 0.51153 0.15803 0.0
H646 H 0.95792 0.59154 0.12193 0.0
H647 H 0.92272 0.56084 0.12967 0.0
H648 H 0.06338 0.45995 0.06566 0.0
H649 H 0.0269 0.43112 0.07372 0.0
H650 H 0.08222 0.51192 0.06903 0.0
H651 H 0.07028 0.55662 0.07803 0.0
C652 C 0.48493 0.05082 0.11933 0.0
C653 C 0.47764 0.01407 0.11141 0.0
C654 C 0.54071 1.00622 0.09334 0.0
C655 C 0.54917 0.03773 0.11376 0.0
N656 N 0.52901 0.09277 0.14333 0.0
N657 N 0.49537 0.96153 0.07676 0.0
C658 C 0.52122 0.06147 0.12504 0.0
C659 C 0.50455 0.99324 0.0935 0.0
N660 N 0.45743 0.07534 0.12068 0.0
N661 N 0.56717 0.98965 0.07333 0.0
H662 H 0.46845 0.95474 0.07151 0.0
H663 H 0.514 0.94252 0.06751 0.0
H664 H 0.59225 1.00181 0.06961 0.0
H665 H 0.56346 0.96652 0.05757 0.0
H666 H 0.46167 0.10297 0.12416 0.0
H667 H 0.43106 0.06846 0.11322 0.0
H668 H 0.50925 0.10855 0.15608 0.0
H669 H 0.55533 0.10199 0.14745 0.0
C670 C 0.96269 0.51811 0.94554 0.0
C671 C 0.98786 0.54494 0.95654 0.0
C672 C 0.03174 0.49823 0.97326 0.0
C673 C 1.00942 0.47287 0.95499 0.0
N674 N 0.94716 0.45469 0.9477 0.0
N675 N 0.04018 0.56064 0.99242 0.0
C676 C 0.97257 0.48143 0.94906 0.0
C677 C 0.02049 0.53494 0.97445 0.0
N678 N 0.93072 0.52735 0.92916 0.0
N679 N 0.06285 0.48683 0.98983 0.0
H680 H 0.03006 0.58652 0.99648 0.0
H681 H 0.06493 0.55618 1.00519 0.0
H682 H 0.06811 0.45943 0.99409 0.0
H683 H 0.08236 0.50385 1.00095 0.0
H684 H 0.91389 0.50857 0.91632 0.0
H685 H 0.92186 0.5539 0.92644 0.0
H686 H 0.91948 0.45976 0.94599 0.0
H687 H 0.95355 0.42786 0.9535 0.0
C688 C 0.32959 0.35169 0.30772 0.0
C689 C 0.3318 0.3812 0.33268 0.0
C690 C 0.38658 0.35485 0.3603 0.0
C691 C 0.38659 0.32758 0.33274 0.0
N692 N 0.3598 0.3007 0.27872 0.0
N693 N 0.36265 0.41221 0.38193 0.0
C694 C 0.35833 0.32596 0.30624 0.0
C695 C 0.36031 0.38305 0.35888 0.0
N696 N 0.29985 0.34819 0.28558 0.0
N697 N 0.41119 0.35319 0.38842 0.0
H698 H 0.34295 0.43236 0.3831 0.0
H699 H 0.38494 0.41764 0.39855 0.0
H700 H 0.43098 0.33319 0.39008 0.0
H701 H 0.41045 0.36976 0.41162 0.0
H702 H 0.29444 0.32538 0.26974 0.0
H703 H 0.279 0.36716 0.28495 0.0
H704 H 0.34257 0.30049 0.25603 0.0
H705 H 0.3799 0.28098 0.27725 0.0
C706 C 0.36019 0.63325 0.71749 0.0
C707 C 0.3319 0.63384 0.74416 0.0
C708 C 0.35547 0.6912 0.76878 0.0
C709 C 0.38567 0.68867 0.74455 0.0
N710 N 0.41854 0.65652 0.69732 0.0
N711 N 0.30385 0.66126 0.79734 0.0
C712 C 0.38847 0.65948 0.71925 0.0
C713 C 0.32972 0.66242 0.77024 0.0
N714 N 0.35932 0.60823 0.68971 0.0
N715 N 0.35123 0.72135 0.79016 0.0
H716 H 0.28425 0.64099 0.79895 0.0
H717 H 0.30314 0.67886 0.81973 0.0
H718 H 0.37015 0.74229 0.79083 0.0
H719 H 0.3279 0.72695 0.80527 0.0
H720 H 0.37669 0.60862 0.66702 0.0
H721 H 0.33927 0.58847 0.68772 0.0
H722 H 0.42449 0.63381 0.68153 0.0
H723 H 0.43891 0.67606 0.69648 0.0
C724 C 0.63593 0.65941 0.35459 0.0
C725 C 0.63634 0.68765 0.32795 0.0
C726 C 0.69374 0.66447 0.30276 0.0
C727 C 0.6912 0.63414 0.32675 0.0
N728 N 0.6594 0.60122 0.37437 0.0
N729 N 0.66379 0.71621 0.27491 0.0
C730 C 0.6622 0.63127 0.35246 0.0
C731 C 0.66495 0.69014 0.30173 0.0
N732 N 0.61099 0.66013 0.38259 0.0
N733 N 0.72387 0.66882 0.28115 0.0
H734 H 0.64354 0.7358 0.27367 0.0
H735 H 0.68138 0.71717 0.25242 0.0
H736 H 0.74486 0.65001 0.2803 0.0
H737 H 0.72945 0.69216 0.26607 0.0
H738 H 0.61149 0.64275 0.40524 0.0
H739 H 0.59117 0.68006 0.38478 0.0
H740 H 0.63677 0.59518 0.39043 0.0
H741 H 0.67903 0.58099 0.375 0.0
C742 C 0.69955 0.35258 0.76336 0.0
C743 C 0.69696 0.38322 0.73984 0.0
C744 C 0.64114 0.3586 0.71275 0.0
C745 C 0.64131 0.33042 0.73942 0.0
N746 N 0.66923 0.30106 0.79155 0.0
N747 N 0.6651 0.41666 0.6929 0.0
C748 C 0.67037 0.32728 0.76487 0.0
C749 C 0.66779 0.38645 0.71456 0.0
N750 N 0.73003 0.34763 0.78411 0.0
N751 N 0.61594 0.35818 0.68513 0.0
H752 H 0.68492 0.43674 0.69212 0.0
H753 H 0.6424 0.42295 0.67719 0.0
H754 H 0.59599 0.3383 0.68313 0.0
H755 H 0.61644 0.37561 0.66253 0.0
H756 H 0.7355 0.32409 0.79884 0.0
H757 H 0.75138 0.3661 0.78442 0.0
H758 H 0.68722 0.29972 0.8136 0.0
H759 H 0.64874 0.28169 0.79308 0.0
C760 C 0.88202 0.85822 0.8595 0.0
C761 C 0.88289 0.83002 0.83296 0.0
C762 C 0.82513 0.85143 0.80727 0.0
C763 C 0.82667 0.88205 0.83079 0.0
N764 N 0.85722 0.91616 0.8781 0.0
N765 N 0.85696 0.80065 0.77983 0.0
C766 C 0.85522 0.88578 0.85673 0.0
C767 C 0.85468 0.82663 0.80657 0.0
N768 N 0.90627 0.85802 0.88801 0.0
N769 N 0.79524 0.84598 0.78577 0.0
H770 H 0.87785 0.78175 0.77873 0.0
H771 H 0.83963 0.7992 0.75725 0.0
H772 H 0.77359 0.86404 0.78493 0.0
H773 H 0.79049 0.82236 0.77097 0.0
H774 H 0.90482 0.87545 0.91052 0.0
H775 H 0.92625 0.83834 0.89084 0.0
H776 H 0.8795 0.92272 0.8943 0.0
H777 H 0.83735 0.93616 0.878 0.0
C778 C 0.83551 0.15718 0.27084 0.0
C779 C 0.83656 0.12979 0.24342 0.0
C780 C 0.89157 0.15689 0.21668 0.0
C781 C 0.88995 0.18486 0.24347 0.0
N782 N 0.85788 0.21523 0.29243 0.0
N783 N 0.86141 0.10652 0.18664 0.0
C784 C 0.86105 0.18612 0.26941 0.0
C785 C 0.86345 0.13049 0.21529 0.0
N786 N 0.81091 0.15475 0.29907 0.0
N787 N 0.92041 0.15524 0.19293 0.0
H788 H 0.84161 0.08649 0.18504 0.0
H789 H 0.87755 0.10797 0.16306 0.0
H790 H 0.94049 0.17505 0.19177 0.0
H791 H 0.92569 0.13333 0.17576 0.0
H792 H 0.81116 0.17134 0.32225 0.0
H793 H 0.7914 0.13438 0.30065 0.0
H794 H 0.83539 0.22 0.3091 0.0
H795 H 0.87674 0.23622 0.29308 0.0
C796 C 0.13367 0.16209 0.85423 0.0
C797 C 0.13397 0.18954 0.82675 0.0
C798 C 0.19076 0.16514 0.80135 0.0
C799 C 0.18848 0.13571 0.82651 0.0
N800 N 0.15753 0.10472 0.87603 0.0
N801 N 0.16093 0.21653 0.77263 0.0
C802 C 0.15992 0.13388 0.85283 0.0
C803 C 0.1622 0.19106 0.80005 0.0
N804 N 0.10872 0.16355 0.88219 0.0
N805 N 0.22044 0.16843 0.7789 0.0
H806 H 0.14105 0.23649 0.7714 0.0
H807 H 0.17812 0.21676 0.7498 0.0
H808 H 0.24114 0.14931 0.77811 0.0
H809 H 0.22594 0.19115 0.76284 0.0
H810 H 0.10924 0.14693 0.90541 0.0
H811 H 0.08866 0.1833 0.88358 0.0
H812 H 0.13525 0.0993 0.89281 0.0
H813 H 0.17721 0.08457 0.87721 0.0
C814 C 0.20154 0.84964 0.26467 0.0
C815 C 0.19827 0.87954 0.24023 0.0
C816 C 0.14064 0.85533 0.21691 0.0
C817 C 0.14386 0.82545 0.24139 0.0
N818 N 0.17977 0.79039 0.28377 0.0
N819 N 0.16892 0.90783 0.18838 0.0
C820 C 0.1752 0.82138 0.26367 0.0
C821 C 0.16904 0.88142 0.21489 0.0
N822 N 0.22903 0.84908 0.28992 0.0
N823 N 0.10993 0.85916 0.19623 0.0
H824 H 0.18895 0.92763 0.18654 0.0
H825 H 0.15068 0.90872 0.16654 0.0
H826 H 0.08951 0.83967 0.19546 0.0
H827 H 0.10364 0.88231 0.18123 0.0
H828 H 0.2308 0.83045 0.31142 0.0
H829 H 0.24928 0.86872 0.29079 0.0
H830 H 0.20359 0.78378 0.29747 0.0
H831 H 0.16049 0.76979 0.2847 0.0
C832 C 0.14894 0.59355 0.31746 0.0
C833 C 0.16017 0.56025 0.30191 0.0
C834 C 0.14251 0.58356 0.24074 0.0
C835 C 0.12356 0.61265 0.2577 0.0
N836 N 0.10486 0.64141 0.31506 0.0
N837 N 0.16529 0.52256 0.24758 0.0
C838 C 0.12624 0.61713 0.29677 0.0
C839 C 0.15696 0.55515 0.26308 0.0
N840 N 0.15947 0.60232 0.35248 0.0
N841 N 0.14689 0.58319 0.20325 0.0
H842 H 0.17595 0.50099 0.26249 0.0
H843 H 0.15915 0.5161 0.22028 0.0
H844 H 0.13768 0.60413 0.18635 0.0
H845 H 0.16302 0.56436 0.18958 0.0
H846 H 0.15472 0.62761 0.36417 0.0
H847 H 0.17647 0.58569 0.36802 0.0
H848 H 0.10333 0.64256 0.34381 0.0
H849 H 0.08568 0.65771 0.30233 0.0
C850 C 0.54697 0.90633 0.78692 0.0
C851 C 0.55467 0.87178 0.77204 0.0
C852 C 0.61266 0.87194 0.80595 0.0
C853 C 0.60674 0.9086 0.8163 0.0
N854 N 0.57217 0.9633 0.80594 0.0
N855 N 0.59617 0.82226 0.76496 0.0
C856 C 0.5749 0.92648 0.80392 0.0
C857 C 0.58788 0.85455 0.78102 0.0
N858 N 0.51263 0.91996 0.78506 0.0
N859 N 0.64126 0.85354 0.82057 0.0
H860 H 0.57818 0.80878 0.74756 0.0
H861 H 0.62143 0.81 0.76717 0.0
H862 H 0.65959 0.86547 0.83874 0.0
H863 H 0.64523 0.82592 0.8169 0.0
H864 H 0.5049 0.94365 0.79849 0.0
H865 H 0.49104 0.90556 0.77373 0.0
H866 H 0.55086 0.97767 0.79413 0.0
H867 H 0.59317 0.9799 0.81498 0.0
C868 C 0.86368 0.45686 0.25623 0.0
C869 C 0.85919 0.45225 0.295 0.0
C870 C 0.89284 0.39502 0.29181 0.0
C871 C 0.8972 0.39924 0.25284 0.0
N872 N 0.87594 0.42811 0.19723 0.0
N873 N 0.85783 0.41081 0.34625 0.0
C874 C 0.87892 0.42817 0.23484 0.0
C875 C 0.86962 0.41903 0.31141 0.0
N876 N 0.85578 0.48923 0.23998 0.0
N877 N 0.91308 0.37051 0.31107 0.0
H878 H 0.84048 0.42781 0.36098 0.0
H879 H 0.86194 0.38564 0.35854 0.0
H880 H 0.93217 0.35352 0.29912 0.0
H881 H 0.91361 0.3696 0.33987 0.0
H882 H 0.86285 0.49542 0.21278 0.0
H883 H 0.84439 0.51083 0.25426 0.0
H884 H 0.86033 0.44678 0.18274 0.0
H885 H 0.88589 0.40703 0.18098 0.0
C886 C 0.39808 0.13222 0.77945 0.0
C887 C 0.40197 0.12723 0.81837 0.0
C888 C 0.45923 0.16173 0.816 0.0
C889 C 0.45504 0.1666 0.77728 0.0
N890 N 0.41436 0.16803 0.72564 0.0
N891 N 0.43014 0.14772 0.87461 0.0
C892 C 0.42211 0.15602 0.76045 0.0
C893 C 0.43054 0.14558 0.83693 0.0
N894 N 0.37402 0.11195 0.75965 0.0
N895 N 0.49129 0.17024 0.83256 0.0
H896 H 0.40902 0.13714 0.89053 0.0
H897 H 0.44854 0.1632 0.88957 0.0
H898 H 0.51261 0.18271 0.81858 0.0
H899 H 0.49744 0.16293 0.85966 0.0
H900 H 0.37341 0.11191 0.73085 0.0
H901 H 0.3572 0.09235 0.77111 0.0
H902 H 0.3894 0.16381 0.71298 0.0
H903 H 0.43158 0.18559 0.7113 0.0
C904 C 0.14684 0.42419 0.75793 0.0
C905 C 0.15598 0.45819 0.7733 0.0
C906 C 0.13654 0.43521 0.83418 0.0
C907 C 0.11981 0.40484 0.81715 0.0
N908 N 0.10565 0.37368 0.75975 0.0
N909 N 0.15716 0.49705 0.8269 0.0
C910 C 0.12459 0.39971 0.77829 0.0
C911 C 0.1508 0.46383 0.81183 0.0
N912 N 0.15914 0.41548 0.72344 0.0
N913 N 0.13905 0.43658 0.87181 0.0
H914 H 0.1676 0.51872 0.81186 0.0
H915 H 0.14958 0.50382 0.85377 0.0
H916 H 0.13002 0.41555 0.88878 0.0
H917 H 0.15358 0.45647 0.88575 0.0
H918 H 0.15621 0.3898 0.71203 0.0
H919 H 0.17578 0.43279 0.70812 0.0
H920 H 0.10524 0.37204 0.731 0.0
H921 H 0.0874 0.35598 0.77208 0.0
C922 C 0.43264 0.85224 0.28598 0.0
C923 C 0.46702 0.86772 0.29355 0.0
C924 C 0.44967 0.92242 0.26 0.0
C925 C 0.41628 0.90627 0.24931 0.0
N926 N 0.37861 0.85302 0.24745 0.0
N927 N 0.51184 0.91254 0.27771 0.0
C928 C 0.40847 0.87024 0.26092 0.0
C929 C 0.47669 0.901 0.27689 0.0
N930 N 0.42274 0.82105 0.30349 0.0
N931 N 0.45471 0.95896 0.25705 0.0
H932 H 0.53254 0.89729 0.28959 0.0
H933 H 0.5209 0.93515 0.26311 0.0
H934 H 0.43443 0.97678 0.24882 0.0
H935 H 0.4774 0.97214 0.26757 0.0
H936 H 0.3967 0.8103 0.30238 0.0
H937 H 0.4404 0.807 0.32081 0.0
H938 H 0.37309 0.82581 0.25228 0.0
H939 H 0.36088 0.86527 0.22888 0.0
C940 C 0.8735 0.6009 0.75759 0.0
C941 C 0.86212 0.56735 0.7727 0.0
C942 C 0.88035 0.58935 0.83414 0.0
C943 C 0.8991 0.61888 0.81758 0.0
N944 N 0.91743 0.649 0.76073 0.0
N945 N 0.85718 0.52854 0.82631 0.0
C946 C 0.89623 0.62416 0.77861 0.0
C947 C 0.86559 0.56143 0.8114 0.0
N948 N 0.86295 0.6103 0.72272 0.0
N949 N 0.8764 0.58811 0.87166 0.0
H950 H 0.84631 0.50736 0.811 0.0
H951 H 0.86345 0.52144 0.85344 0.0
H952 H 0.88597 0.60859 0.88888 0.0
H953 H 0.8604 0.56895 0.88515 0.0
H954 H 0.86776 0.63579 0.71138 0.0
H955 H 0.8459 0.59397 0.70692 0.0
H956 H 0.919 0.65071 0.732 0.0
H957 H 0.93638 0.66534 0.77378 0.0
C958 C 0.56592 0.15857 0.25807 0.0
C959 C 0.57057 0.16258 0.29684 0.0
C960 C 0.62772 0.12878 0.29322 0.0
C961 C 0.62326 0.12451 0.25428 0.0
N962 N 0.59451 0.14637 0.19887 0.0
N963 N 0.61207 0.16348 0.34782 0.0
C964 C 0.59446 0.14319 0.23648 0.0
C965 C 0.60383 0.152 0.31298 0.0
N966 N 0.53362 0.16709 0.24204 0.0
N967 N 0.65227 0.10844 0.31231 0.0
H968 H 0.595 0.18067 0.36267 0.0
H969 H 0.63726 0.15927 0.35999 0.0
H970 H 0.6692 0.08937 0.30029 0.0
H971 H 0.6533 0.10785 0.3411 0.0
H972 H 0.52727 0.16031 0.21487 0.0
H973 H 0.51229 0.17892 0.25645 0.0
H974 H 0.57594 0.16221 0.1845 0.0
H975 H 0.61552 0.13634 0.1825 0.0
C976 C 0.62583 0.12256 0.79795 0.0
C977 C 0.62288 0.11865 0.75886 0.0
C978 C 0.65796 0.06208 0.76264 0.0
C979 C 0.66114 0.06638 0.80157 0.0
N980 N 0.65931 0.10702 0.85332 0.0
N981 N 0.6464 0.09102 0.70354 0.0
C982 C 0.64904 0.09897 0.81804 0.0
C983 C 0.64249 0.09051 0.7411 0.0
N984 N 0.60431 0.14636 0.81671 0.0
N985 N 0.66721 0.03013 0.74633 0.0
H986 H 0.63624 0.11194 0.68721 0.0
H987 H 0.66296 0.07301 0.68926 0.0
H988 H 0.67865 1.00858 0.76064 0.0
H989 H 0.66112 0.0241 0.71891 0.0
H990 H 0.60273 0.14698 0.84547 0.0
H991 H 0.58528 0.16301 0.80419 0.0
H992 H 0.65395 0.13184 0.86576 0.0
H993 H 0.67665 0.09036 0.86843 0.0
C994 C 0.1233 0.39115 0.27933 0.0
C995 C 0.11835 0.39368 0.31839 0.0
C996 C 0.0602 0.36133 0.3123 0.0
C997 C 0.06569 0.35832 0.27348 0.0
N998 N 0.10842 0.35869 0.22321 0.0
N999 N 0.08788 0.37035 0.37238 0.0
C1000 C 0.09943 0.36911 0.25825 0.0
C1001 C 0.0887 0.37507 0.33494 0.0
N1002 N 0.14841 0.41204 0.26144 0.0
N1003 N 0.02721 0.35354 0.32749 0.0
H1004 H 0.1088 0.37917 0.38949 0.0
H1005 H 0.06859 0.35439 0.38575 0.0
H1006 H 1.0055 0.34359 0.3123 0.0
H1007 H 0.02061 0.35954 0.35483 0.0
H1008 H 0.14989 0.41387 0.23272 0.0
H1009 H 0.16531 0.43047 0.27451 0.0
H1010 H 0.13398 0.36308 0.21175 0.0
H1011 H 0.09163 0.34212 0.20738 0.0
C1012 C 0.39196 0.89933 0.79124 0.0
C1013 C 0.39446 0.90348 0.75207 0.0
C1014 C 0.3637 0.9625 0.7575 0.0
C1015 C 0.36045 0.95763 0.79638 0.0
N1016 N 0.35987 0.91571 0.84729 0.0
N1017 N 0.37208 0.93387 0.69775 0.0
C1018 C 0.37049 0.92396 0.81207 0.0
C1019 C 0.37669 0.93337 0.73519 0.0
N1020 N 0.41245 0.87425 0.80943 0.0
N1021 N 0.35684 0.99542 0.74192 0.0
H1022 H 0.38023 0.91249 0.68089 0.0
H1023 H 0.35672 0.95338 0.68417 0.0
H1024 H 0.34753 0.01754 0.75692 0.0
H1025 H 0.36303 1.00151 0.71448 0.0
H1026 H 0.4143 0.87329 0.83816 0.0
H1027 H 0.43063 0.8569 0.79658 0.0
H1028 H 0.36367 0.89027 0.85908 0.0
H1029 H 0.34367 0.93302 0.86297 0.0
C1030 C 0.96264 0.65519 0.3149 0.0
C1031 C 0.95801 0.66014 0.27621 0.0
C1032 C 0.90182 0.62461 0.27879 0.0
C1033 C 0.90589 0.61989 0.31772 0.0
N1034 N 0.93411 0.64096 0.37374 0.0
N1035 N 0.91672 0.66101 0.22503 0.0
C1036 C 0.93432 0.63867 0.33606 0.0
C1037 C 0.92513 0.64899 0.25966 0.0
N1038 N 0.99473 0.66399 0.33123 0.0
N1039 N 0.87833 0.6036 0.25908 0.0
H1040 H 0.93333 0.67908 0.21061 0.0
H1041 H 0.8917 0.65627 0.21266 0.0
H1042 H 0.86253 0.58318 0.27055 0.0
H1043 H 0.87752 0.60367 0.23028 0.0
H1044 H 1.00113 0.65667 0.35826 0.0
H1045 H 0.01589 0.67661 0.31718 0.0
H1046 H 0.95239 0.65678 0.3885 0.0
H1047 H 0.9132 0.63026 0.38986 0.0
C1048 C 0.65012 0.92137 0.25829 0.0
C1049 C 0.66083 0.95481 0.27393 0.0
C1050 C 0.64383 0.93082 0.33516 0.0
C1051 C 0.6255 0.90134 0.31828 0.0
N1052 N 0.60751 0.87206 0.26106 0.0
N1053 N 0.66545 0.99236 0.32835 0.0
C1054 C 0.62817 0.89705 0.27916 0.0
C1055 C 0.65766 0.95966 0.31281 0.0
N1056 N 0.66064 0.91302 0.2231 0.0
N1057 N 0.64826 0.93112 0.3726 0.0
H1058 H 0.67547 0.01424 0.31333 0.0
H1059 H 0.65943 0.99854 0.35578 0.0
H1060 H 0.63926 0.90999 0.38946 0.0
H1061 H 0.66411 0.9502 0.38623 0.0
H1062 H 0.6564 0.88768 0.21133 0.0
H1063 H 0.67718 0.93011 0.20741 0.0
H1064 H 0.60569 0.87105 0.23233 0.0
H1065 H 0.58924 0.85477 0.27401 0.0
C1066 C 0.97492 0.3992 0.77158 0.0
C1067 C 0.96365 0.36644 0.78828 0.0
C1068 C 0.90504 0.37226 0.75633 0.0
C1069 C 0.91444 0.40806 0.74516 0.0
N1070 N 0.9558 0.45854 0.75304 0.0
N1071 N 0.91711 0.32213 0.79846 0.0
C1072 C 0.94885 0.42226 0.75538 0.0
C1073 C 0.92846 0.35285 0.78102 0.0
N1074 N 1.01063 0.40887 0.77217 0.0
N1075 N 0.87439 0.35653 0.7428 0.0
H1076 H 0.93424 0.30701 0.81539 0.0
H1077 H 0.8905 0.31282 0.79762 0.0
H1078 H 0.85736 0.36961 0.72414 0.0
H1079 H 0.86765 0.32956 0.74746 0.0
H1080 H 0.02076 0.43103 0.75758 0.0
H1081 H 0.03051 0.3925 0.78391 0.0
H1082 H 0.9794 0.47025 0.76326 0.0
H1083 H 0.93634 0.47765 0.74584 0.0
C1084 C 0.36805 0.0578 0.31026 0.0
C1085 C 0.36451 0.06356 0.27154 0.0
C1086 C 0.40098 0.11894 0.27671 0.0
C1087 C 0.40382 0.11395 0.3157 0.0
N1088 N 0.38048 0.08441 0.37024 0.0
N1089 N 0.36685 0.10596 0.22113 0.0
C1090 C 0.38411 0.08527 0.33267 0.0
C1091 C 0.37716 0.09648 0.25606 0.0
N1092 N 0.35841 0.02538 0.32552 0.0
N1093 N 0.42319 0.14263 0.25847 0.0
H1094 H 0.34905 0.09018 0.2056 0.0
H1095 H 0.37267 0.13111 0.20949 0.0
H1096 H 0.44311 0.15799 0.27127 0.0
H1097 H 0.4246 0.14409 0.22972 0.0
H1098 H 0.36463 0.01822 0.35264 0.0
H1099 H 0.3465 1.00457 0.31051 0.0
H1100 H 0.36385 0.06599 0.38401 0.0
H1101 H 0.39099 0.10459 0.38725 0.0
C1102 C 0.09939 0.65224 0.81498 0.0
C1103 C 0.06577 0.66286 0.79968 0.0
C1104 C 0.08869 0.64462 0.73852 0.0
C1105 C 0.11802 0.62601 0.75541 0.0
N1106 N 0.14787 0.60882 0.81267 0.0
N1107 N 0.0276 0.66737 0.74569 0.0
C1108 C 0.12303 0.62949 0.79436 0.0
C1109 C 0.06036 0.65924 0.76095 0.0
N1110 N 0.10834 0.66331 0.84977 0.0
N1111 N 0.08803 0.64856 0.701 0.0
H1112 H 1.00624 0.67841 0.76069 0.0
H1113 H 0.02088 0.66087 0.71853 0.0
H1114 H 0.10888 0.63915 0.68404 0.0
H1115 H 0.06901 0.66445 0.68732 0.0
H1116 H 0.13382 0.65905 0.86129 0.0
H1117 H 0.09156 0.68025 0.86526 0.0
H1118 H 0.14935 0.60775 0.84142 0.0
H1119 H 0.1645 0.58985 0.80005 0.0
C1120 C 0.24216 0.48293 0.56639 0.0
C1121 C 0.237 0.5199 0.57511 0.0
C1122 C 0.24117 0.53498 0.50908 0.0
C1123 C 0.2369 0.49787 0.50044 0.0
N1124 N 0.23763 0.43575 0.51983 0.0
N1125 N 0.23588 0.58201 0.55573 0.0
C1126 C 0.23972 0.47152 0.5288 0.0
C1127 C 0.23883 0.54631 0.54672 0.0
N1128 N 0.24797 0.45888 0.59441 0.0
N1129 N 0.24608 0.5592 0.48099 0.0
H1130 H 0.23554 0.59086 0.5831 0.0
H1131 H 0.23274 0.60264 0.53641 0.0
H1132 H 0.24762 0.55103 0.45342 0.0
H1133 H 0.25166 0.58648 0.48503 0.0
H1134 H 0.25419 0.43176 0.59029 0.0
H1135 H 0.24957 0.46714 0.62195 0.0
H1136 H 0.23527 0.41504 0.5392 0.0
H1137 H 0.23721 0.42688 0.49246 0.0
C1138 C 0.54722 0.78019 0.52611 0.0
C1139 C 0.52061 0.78017 0.49794 0.0
C1140 C 0.47251 0.77555 0.54474 0.0
C1141 C 0.49881 0.78035 0.57277 0.0
N1142 N 0.56067 0.77524 0.59187 0.0
N1143 N 0.46001 0.76607 0.4793 0.0
C1144 C 0.53612 0.77808 0.56389 0.0
C1145 C 0.4839 0.77333 0.50704 0.0
N1146 N 0.58276 0.78464 0.51667 0.0
N1147 N 0.43669 0.77551 0.55413 0.0
H1148 H 0.46826 0.76456 0.45171 0.0
H1149 H 0.43315 0.75869 0.48367 0.0
H1150 H 0.42804 0.7757 0.58163 0.0
H1151 H 0.41569 0.7762 0.53504 0.0
H1152 H 0.60337 0.78911 0.53567 0.0
H1153 H 0.59148 0.78479 0.4892 0.0
H1154 H 0.58827 0.77127 0.58776 0.0
H1155 H 0.55265 0.77382 0.61954 0.0
C1156 C 0.77918 0.48269 0.50633 0.0
C1157 C 0.78232 0.51929 0.49512 0.0
C1158 C 0.77578 0.53821 0.55985 0.0
C1159 C 0.78176 0.50202 0.57119 0.0
N1160 N 0.78495 0.4389 0.55628 0.0
N1161 N 0.77943 0.58245 0.51005 0.0
C1162 C 0.78114 0.47384 0.54471 0.0
C1163 C 0.77831 0.54728 0.52153 0.0
N1164 N 0.77557 0.45659 0.47997 0.0
N1165 N 0.76909 0.56381 0.5861 0.0
H1166 H 0.77999 0.58955 0.48212 0.0
H1167 H 0.78082 0.60442 0.52789 0.0
H1168 H 0.76737 0.55723 0.61414 0.0
H1169 H 0.76229 0.59046 0.58011 0.0
H1170 H 0.77086 0.42944 0.48586 0.0
H1171 H 0.77421 0.46293 0.45186 0.0
H1172 H 0.78901 0.41717 0.53854 0.0
H1173 H 0.78503 0.43185 0.58423 0.0
C1174 C 0.53798 0.23776 0.50922 0.0
C1175 C 0.50157 0.23041 0.49939 0.0
C1176 C 0.48448 0.23144 0.56508 0.0
C1177 C 0.52166 0.23083 0.57479 0.0
N1178 N 0.58414 0.23648 0.55713 0.0
N1179 N 0.43924 0.22332 0.51701 0.0
C1180 C 0.54851 0.23584 0.54715 0.0
C1181 C 0.47438 0.22905 0.5271 0.0
N1182 N 0.56242 0.2456 0.48196 0.0
N1183 N 0.45905 0.23363 0.59246 0.0
H1184 H 0.4311 0.22312 0.4894 0.0
H1185 H 0.41845 0.21767 0.53562 0.0
H1186 H 0.46613 0.23551 0.62032 0.0
H1187 H 0.43147 0.2367 0.58766 0.0
H1188 H 0.58896 0.25363 0.48689 0.0
H1189 H 0.55496 0.24698 0.45418 0.0
H1190 H 0.60554 0.23588 0.53838 0.0
H1191 H 0.59231 0.23647 0.58472 0.0
C1192 C 0.74292 0.97054 1.02637 0.0
C1193 C 0.73781 0.99719 0.99866 0.0
C1194 C 0.73802 0.04479 0.046 0.0
C1195 C 0.73895 0.01784 0.07391 0.0
N1196 N 0.75329 0.95704 0.09152 0.0
N1197 N 0.74187 0.0594 0.98037 0.0
C1198 C 0.74562 0.98133 0.0642 0.0
C1199 C 0.73964 0.03434 1.00805 0.0
N1200 N 0.74281 0.93492 1.01658 0.0
N1201 N 0.73322 0.08007 0.05588 0.0
H1202 H 0.74304 0.05196 0.95257 0.0
H1203 H 0.74569 0.08692 0.98482 0.0
H1204 H 0.73351 0.08844 0.08342 0.0
H1205 H 0.72791 0.1008 0.03719 0.0
H1206 H 0.74228 0.91366 1.03544 0.0
H1207 H 0.74227 0.9267 0.989 0.0
H1208 H 0.76063 0.93032 0.08668 0.0
H1209 H 0.75517 0.96478 0.11919 0.0
C1210 C 0.98253 0.27991 1.00723 0.0
C1211 C 0.01938 0.28249 0.99648 0.0
C1212 C 0.03733 0.27605 0.06154 0.0
C1213 C 1.00096 0.2822 0.07241 0.0
N1214 N 0.938 0.2864 0.05646 0.0
N1215 N 0.08237 0.2794 1.01234 0.0
C1216 C 0.97313 0.28208 0.04547 0.0
C1217 C 0.04698 0.27848 1.02332 0.0
N1218 N 0.9567 0.27643 0.98053 0.0
N1219 N 0.06258 0.2691 0.08809 0.0
H1220 H 0.08987 0.27984 0.98451 0.0
H1221 H 0.10411 0.28082 1.0305 0.0
H1222 H 0.05568 0.26742 0.11606 0.0
H1223 H 0.08927 0.26206 0.08239 0.0
H1224 H 0.9294 0.27198 0.98609 0.0
H1225 H 0.96339 0.27484 0.95252 0.0
H1226 H 0.91664 0.29092 0.03836 0.0
H1227 H 0.9304 0.28657 0.08427 0.0
C1228 C 0.28204 0.03721 0.06199 0.0
C1229 C 0.28438 1.0001 0.07155 0.0
C1230 C 0.27614 0.98411 1.00617 0.0
C1231 C 0.28261 0.02064 0.99622 0.0
N1232 N 0.28782 0.08296 1.01388 0.0
N1233 N 0.27982 0.93774 0.05392 0.0
C1234 C 0.28339 0.04764 1.02398 0.0
C1235 C 0.27926 0.97337 0.04401 0.0
N1236 N 0.27964 0.06226 0.08955 0.0
N1237 N 0.26838 0.95975 0.97902 0.0
H1238 H 0.28078 0.9295 0.08151 0.0
H1239 H 0.28037 0.91651 1.03511 0.0
H1240 H 0.26625 0.9675 0.95133 0.0
H1241 H 0.26116 0.93299 0.98404 0.0
H1242 H 0.27552 0.08971 0.08497 0.0
H1243 H 0.27866 0.05481 0.11739 0.0
H1244 H 0.29298 0.10378 1.03244 0.0
H1245 H 0.28733 0.09126 0.9863 0.0
C1246 C 0.03731 0.74267 1.01078 0.0
C1247 C 1.00096 0.73436 1.00152 0.0
C1248 C 0.98518 0.73382 0.06758 0.0
C1249 C 0.02254 0.73374 0.0765 0.0
N1250 N 0.08442 0.74175 0.05778 0.0
N1251 N 0.93917 0.72549 1.02033 0.0
C1252 C 0.04866 0.74023 0.04846 0.0
C1253 C 0.97436 0.73191 1.02977 0.0
N1254 N 0.06094 0.75173 0.9832 0.0
N1255 N 0.9603 0.73479 0.09555 0.0
H1256 H 0.93045 0.72556 0.99291 0.0
H1257 H 0.91891 0.71904 0.03927 0.0
H1258 H 0.96797 0.73622 0.12327 0.0
H1259 H 0.93256 0.73735 0.09143 0.0
H1260 H 0.08737 0.76035 0.98774 0.0
H1261 H 0.05282 0.75344 0.95562 0.0
H1262 H 0.10548 0.74233 0.03863 0.0
H1263 H 0.09303 0.74139 0.08524 0.0
loop_
_geom_bond_atom_site_label_1
_geom_bond_atom_site_label_2
_geom_bond_distance
_geom_bond_site_symmetry_2
_ccdc_geom_bond_type
Co0 O3 1.970 . S
Co0 N17 1.989 . S
Co0 O25 1.967 . S
Co0 O32 1.920 . S
Co1 O4 1.966 . S
Co1 N10 2.022 . S
Co1 N18 1.993 . S
Co1 O26 1.941 . S
C2 O3 1.258 . S
C2 O4 1.263 . S
O3 Co0 1.970 . S
O3 C2 1.258 . S
O4 Co1 1.966 . S
O4 C2 1.263 . S
C5 O6 1.235 . S
C5 O32 1.289 . S
O6 C5 1.235 . S
C7 C9 1.400 . S
C7 N10 1.351 . S
C7 C12 1.501 . S
C8 C9 1.387 . S
C8 N11 1.341 . S
C9 C7 1.400 . S
C9 C8 1.387 . S
N10 Co1 2.022 . S
N10 C7 1.351 . S
N10 N11 1.365 . S
N11 C8 1.341 . S
N11 N10 1.365 . S
N11 H31 0.862 . S
C12 C7 1.501 . S
C12 H13 0.961 . S
C12 H14 0.961 . S
C12 H15 0.960 . S
H13 C12 0.961 . S
H14 C12 0.961 . S
H15 C12 0.960 . S
C16 N17 1.342 . S
C16 C20 1.401 . S
C16 C21 1.499 . S
N17 Co0 1.989 . S
N17 C16 1.342 . S
N17 N18 1.388 . S
N18 Co1 1.993 . S
N18 N17 1.388 . S
N18 C19 1.346 . S
C19 N18 1.346 . S
C19 C20 1.396 . S
C19 C29 1.510 . S
C20 C16 1.401 . S
C20 C19 1.396 . S
C21 C16 1.499 . S
C21 H22 0.959 . S
C21 H23 0.960 . S
C21 H24 0.961 . S
H22 C21 0.959 . S
H23 C21 0.960 . S
H24 C21 0.961 . S
O25 Co0 1.967 . S
O25 C33 1.258 . S
O26 Co1 1.941 . S
O26 C33 1.266 . S
H27 C29 0.959 . S
H28 C29 0.961 . S
C29 C19 1.510 . S
C29 H27 0.959 . S
C29 H28 0.961 . S
C29 H30 0.960 . S
H30 C29 0.960 . S
H31 N11 0.862 . S
O32 Co0 1.920 . S
O32 C5 1.289 . S
C33 O25 1.258 . S
C33 O26 1.266 . S
Co34 O37 1.970 . S
Co34 N51 1.989 . S
Co34 O59 1.967 . S
Co34 O66 1.920 . S
Co35 O38 1.966 . S
Co35 N44 2.022 . S
Co35 N52 1.993 . S
Co35 O60 1.941 . S
C36 O37 1.258 . S
C36 O38 1.263 . S
O37 Co34 1.970 . S
O37 C36 1.258 . S
O38 Co35 1.966 . S
O38 C36 1.263 . S
C39 O40 1.235 . S
C39 O66 1.289 . S
O40 C39 1.235 . S
C41 C43 1.400 . S
C41 N44 1.351 . S
C41 C46 1.501 . S
C42 C43 1.387 . S
C42 N45 1.341 . S
C43 C41 1.400 . S
C43 C42 1.387 . S
N44 Co35 2.022 . S
N44 C41 1.351 . S
N44 N45 1.365 . S
N45 C42 1.341 . S
N45 N44 1.365 . S
N45 H65 0.862 . S
C46 C41 1.501 . S
C46 H47 0.961 . S
C46 H48 0.961 . S
C46 H49 0.960 . S
H47 C46 0.961 . S
H48 C46 0.961 . S
H49 C46 0.960 . S
C50 N51 1.342 . S
C50 C54 1.401 . S
C50 C55 1.499 . S
N51 Co34 1.989 . S
N51 C50 1.342 . S
N51 N52 1.388 . S
N52 Co35 1.993 . S
N52 N51 1.388 . S
N52 C53 1.346 . S
C53 N52 1.346 . S
C53 C54 1.396 . S
C53 C63 1.510 . S
C54 C50 1.401 . S
C54 C53 1.396 . S
C55 C50 1.499 . S
C55 H56 0.959 . S
C55 H57 0.960 . S
C55 H58 0.961 . S
H56 C55 0.959 . S
H57 C55 0.960 . S
H58 C55 0.961 . S
O59 Co34 1.967 . S
O59 C67 1.258 . S
O60 Co35 1.941 . S
O60 C67 1.266 . S
H61 C63 0.959 . S
H62 C63 0.961 . S
C63 C53 1.510 . S
C63 H61 0.959 . S
C63 H62 0.961 . S
C63 H64 0.960 . S
H64 C63 0.960 . S
H65 N45 0.862 . S
O66 Co34 1.920 . S
O66 C39 1.289 . S
C67 O59 1.258 . S
C67 O60 1.266 . S
Co68 O71 1.970 . S
Co68 N85 1.989 . S
Co68 O93 1.967 . S
Co68 O100 1.920 . S
Co69 O72 1.966 . S
Co69 N78 2.022 . S
Co69 N86 1.993 . S
Co69 O94 1.941 . S
C70 O71 1.258 . S
C70 O72 1.263 . S
O71 Co68 1.970 . S
O71 C70 1.258 . S
O72 Co69 1.966 . S
O72 C70 1.263 . S
C73 O74 1.235 . S
C73 O100 1.289 . S
O74 C73 1.235 . S
C75 C77 1.400 . S
C75 N78 1.351 . S
C75 C80 1.501 . S
C76 C77 1.387 . S
C76 N79 1.341 . S
C77 C75 1.400 . S
C77 C76 1.387 . S
N78 Co69 2.022 . S
N78 C75 1.351 . S
N78 N79 1.365 . S
N79 C76 1.341 . S
N79 N78 1.365 . S
N79 H99 0.862 . S
C80 C75 1.501 . S
C80 H81 0.961 . S
C80 H82 0.961 . S
C80 H83 0.960 . S
H81 C80 0.961 . S
H82 C80 0.961 . S
H83 C80 0.960 . S
C84 N85 1.342 . S
C84 C88 1.401 . S
C84 C89 1.499 . S
N85 Co68 1.989 . S
N85 C84 1.342 . S
N85 N86 1.388 . S
N86 Co69 1.993 . S
N86 N85 1.388 . S
N86 C87 1.346 . S
C87 N86 1.346 . S
C87 C88 1.396 . S
C87 C97 1.510 . S
C88 C84 1.401 . S
C88 C87 1.396 . S
C89 C84 1.499 . S
C89 H90 0.959 . S
C89 H91 0.960 . S
C89 H92 0.961 . S
H90 C89 0.959 . S
H91 C89 0.960 . S
H92 C89 0.961 . S
O93 Co68 1.967 . S
O93 C101 1.258 . S
O94 Co69 1.941 . S
O94 C101 1.266 . S
H95 C97 0.959 . S
H96 C97 0.961 . S
C97 C87 1.510 . S
C97 H95 0.959 . S
C97 H96 0.961 . S
C97 H98 0.960 . S
H98 C97 0.960 . S
H99 N79 0.862 . S
O100 Co68 1.920 . S
O100 C73 1.289 . S
C101 O93 1.258 . S
C101 O94 1.266 . S
Co102 O105 1.970 . S
Co102 N119 1.989 . S
Co102 O127 1.967 . S
Co102 O134 1.920 . S
Co103 O106 1.966 . S
Co103 N112 2.022 . S
Co103 N120 1.993 . S
Co103 O128 1.941 . S
C104 O105 1.258 . S
C104 O106 1.263 . S
O105 Co102 1.970 . S
O105 C104 1.258 . S
O106 Co103 1.966 . S
O106 C104 1.263 . S
C107 O108 1.235 . S
C107 O134 1.289 . S
O108 C107 1.235 . S
C109 C111 1.400 . S
C109 N112 1.351 . S
C109 C114 1.501 . S
C110 C111 1.387 . S
C110 N113 1.341 . S
C111 C109 1.400 . S
C111 C110 1.387 . S
N112 Co103 2.022 . S
N112 C109 1.351 . S
N112 N113 1.365 . S
N113 C110 1.341 . S
N113 N112 1.365 . S
N113 H133 0.862 . S
C114 C109 1.501 . S
C114 H115 0.961 . S
C114 H116 0.961 . S
C114 H117 0.960 . S
H115 C114 0.961 . S
H116 C114 0.961 . S
H117 C114 0.960 . S
C118 N119 1.342 . S
C118 C122 1.401 . S
C118 C123 1.499 . S
N119 Co102 1.989 . S
N119 C118 1.342 . S
N119 N120 1.388 . S
N120 Co103 1.993 . S
N120 N119 1.388 . S
N120 C121 1.346 . S
C121 N120 1.346 . S
C121 C122 1.396 . S
C121 C131 1.510 . S
C122 C118 1.401 . S
C122 C121 1.396 . S
C123 C118 1.499 . S
C123 H124 0.959 . S
C123 H125 0.960 . S
C123 H126 0.961 . S
H124 C123 0.959 . S
H125 C123 0.960 . S
H126 C123 0.961 . S
O127 Co102 1.967 . S
O127 C135 1.258 . S
O128 Co103 1.941 . S
O128 C135 1.266 . S
H129 C131 0.959 . S
H130 C131 0.961 . S
C131 C121 1.510 . S
C131 H129 0.959 . S
C131 H130 0.961 . S
C131 H132 0.960 . S
H132 C131 0.960 . S
H133 N113 0.862 . S
O134 Co102 1.920 . S
O134 C107 1.289 . S
C135 O127 1.258 . S
C135 O128 1.266 . S
Co136 O139 1.970 . S
Co136 N153 1.989 . S
Co136 O161 1.967 . S
Co136 O168 1.920 . S
Co137 O140 1.966 . S
Co137 N146 2.022 . S
Co137 N154 1.993 . S
Co137 O162 1.941 . S
C138 O139 1.258 . S
C138 O140 1.263 . S
O139 Co136 1.970 . S
O139 C138 1.258 . S
O140 Co137 1.966 . S
O140 C138 1.263 . S
C141 O142 1.235 . S
C141 O168 1.289 . S
O142 C141 1.235 . S
C143 C145 1.400 . S
C143 N146 1.351 . S
C143 C148 1.501 . S
C144 C145 1.387 . S
C144 N147 1.341 . S
C145 C143 1.400 . S
C145 C144 1.387 . S
N146 Co137 2.022 . S
N146 C143 1.351 . S
N146 N147 1.365 . S
N147 C144 1.341 . S
N147 N146 1.365 . S
N147 H167 0.862 . S
C148 C143 1.501 . S
C148 H149 0.961 . S
C148 H150 0.961 . S
C148 H151 0.960 . S
H149 C148 0.961 . S
H150 C148 0.961 . S
H151 C148 0.960 . S
C152 N153 1.342 . S
C152 C156 1.401 . S
C152 C157 1.499 . S
N153 Co136 1.989 . S
N153 C152 1.342 . S
N153 N154 1.388 . S
N154 Co137 1.993 . S
N154 N153 1.388 . S
N154 C155 1.346 . S
C155 N154 1.346 . S
C155 C156 1.396 . S
C155 C165 1.510 . S
C156 C152 1.401 . S
C156 C155 1.396 . S
C157 C152 1.499 . S
C157 H158 0.959 . S
C157 H159 0.960 . S
C157 H160 0.961 . S
H158 C157 0.959 . S
H159 C157 0.960 . S
H160 C157 0.961 . S
O161 Co136 1.967 . S
O161 C169 1.258 . S
O162 Co137 1.941 . S
O162 C169 1.266 . S
H163 C165 0.959 . S
H164 C165 0.961 . S
C165 C155 1.510 . S
C165 H163 0.959 . S
C165 H164 0.961 . S
C165 H166 0.960 . S
H166 C165 0.960 . S
H167 N147 0.862 . S
O168 Co136 1.920 . S
O168 C141 1.289 . S
C169 O161 1.258 . S
C169 O162 1.266 . S
Co170 O173 1.970 . S
Co170 N187 1.989 . S
Co170 O195 1.967 . S
Co170 O202 1.920 . S
Co171 O174 1.966 . S
Co171 N180 2.022 . S
Co171 N188 1.993 . S
Co171 O196 1.941 . S
C172 O173 1.258 . S
C172 O174 1.263 . S
O173 Co170 1.970 . S
O173 C172 1.258 . S
O174 Co171 1.966 . S
O174 C172 1.263 . S
C175 O176 1.235 . S
C175 O202 1.289 . S
O176 C175 1.235 . S
C177 C179 1.400 . S
C177 N180 1.351 . S
C177 C182 1.501 . S
C178 C179 1.387 . S
C178 N181 1.341 . S
C179 C177 1.400 . S
C179 C178 1.387 . S
N180 Co171 2.022 . S
N180 C177 1.351 . S
N180 N181 1.365 . S
N181 C178 1.341 . S
N181 N180 1.365 . S
N181 H201 0.862 . S
C182 C177 1.501 . S
C182 H183 0.961 . S
C182 H184 0.961 . S
C182 H185 0.960 . S
H183 C182 0.961 . S
H184 C182 0.961 . S
H185 C182 0.960 . S
C186 N187 1.342 . S
C186 C190 1.401 . S
C186 C191 1.499 . S
N187 Co170 1.989 . S
N187 C186 1.342 . S
N187 N188 1.388 . S
N188 Co171 1.993 . S
N188 N187 1.388 . S
N188 C189 1.346 . S
C189 N188 1.346 . S
C189 C190 1.396 . S
C189 C199 1.510 . S
C190 C186 1.401 . S
C190 C189 1.396 . S
C191 C186 1.499 . S
C191 H192 0.959 . S
C191 H193 0.960 . S
C191 H194 0.961 . S
H192 C191 0.959 . S
H193 C191 0.960 . S
H194 C191 0.961 . S
O195 Co170 1.967 . S
O195 C203 1.258 . S
O196 Co171 1.941 . S
O196 C203 1.266 . S
H197 C199 0.959 . S
H198 C199 0.961 . S
C199 C189 1.510 . S
C199 H197 0.959 . S
C199 H198 0.961 . S
C199 H200 0.960 . S
H200 C199 0.960 . S
H201 N181 0.862 . S
O202 Co170 1.920 . S
O202 C175 1.289 . S
C203 O195 1.258 . S
C203 O196 1.266 . S
Co204 O207 1.970 . S
Co204 N221 1.989 . S
Co204 O229 1.967 . S
Co204 O236 1.920 . S
Co205 O208 1.966 . S
Co205 N214 2.022 . S
Co205 N222 1.993 . S
Co205 O230 1.941 . S
C206 O207 1.258 . S
C206 O208 1.263 . S
O207 Co204 1.970 . S
O207 C206 1.258 . S
O208 Co205 1.966 . S
O208 C206 1.263 . S
C209 O210 1.235 . S
C209 O236 1.289 . S
O210 C209 1.235 . S
C211 C213 1.400 . S
C211 N214 1.351 . S
C211 C216 1.501 . S
C212 C213 1.387 . S
C212 N215 1.341 . S
C213 C211 1.400 . S
C213 C212 1.387 . S
N214 Co205 2.022 . S
N214 C211 1.351 . S
N214 N215 1.365 . S
N215 C212 1.341 . S
N215 N214 1.365 . S
N215 H235 0.862 . S
C216 C211 1.501 . S
C216 H217 0.961 . S
C216 H218 0.961 . S
C216 H219 0.960 . S
H217 C216 0.961 . S
H218 C216 0.961 . S
H219 C216 0.960 . S
C220 N221 1.342 . S
C220 C224 1.401 . S
C220 C225 1.499 . S
N221 Co204 1.989 . S
N221 C220 1.342 . S
N221 N222 1.388 . S
N222 Co205 1.993 . S
N222 N221 1.388 . S
N222 C223 1.346 . S
C223 N222 1.346 . S
C223 C224 1.396 . S
C223 C233 1.510 . S
C224 C220 1.401 . S
C224 C223 1.396 . S
C225 C220 1.499 . S
C225 H226 0.959 . S
C225 H227 0.960 . S
C225 H228 0.961 . S
H226 C225 0.959 . S
H227 C225 0.960 . S
H228 C225 0.961 . S
O229 Co204 1.967 . S
O229 C237 1.258 . S
O230 Co205 1.941 . S
O230 C237 1.266 . S
H231 C233 0.959 . S
H232 C233 0.961 . S
C233 C223 1.510 . S
C233 H231 0.959 . S
C233 H232 0.961 . S
C233 H234 0.960 . S
H234 C233 0.960 . S
H235 N215 0.862 . S
O236 Co204 1.920 . S
O236 C209 1.289 . S
C237 O229 1.258 . S
C237 O230 1.266 . S
Co238 O241 1.970 . S
Co238 N255 1.989 . S
Co238 O263 1.967 . S
Co238 O270 1.920 . S
Co239 O242 1.966 . S
Co239 N248 2.022 . S
Co239 N256 1.993 . S
Co239 O264 1.941 . S
C240 O241 1.258 . S
C240 O242 1.263 . S
O241 Co238 1.970 . S
O241 C240 1.258 . S
O242 Co239 1.966 . S
O242 C240 1.263 . S
C243 O244 1.235 . S
C243 O270 1.289 . S
O244 C243 1.235 . S
C245 C247 1.400 . S
C245 N248 1.351 . S
C245 C250 1.501 . S
C246 C247 1.387 . S
C246 N249 1.341 . S
C247 C245 1.400 . S
C247 C246 1.387 . S
N248 Co239 2.022 . S
N248 C245 1.351 . S
N248 N249 1.365 . S
N249 C246 1.341 . S
N249 N248 1.365 . S
N249 H269 0.862 . S
C250 C245 1.501 . S
C250 H251 0.961 . S
C250 H252 0.961 . S
C250 H253 0.960 . S
H251 C250 0.961 . S
H252 C250 0.961 . S
H253 C250 0.960 . S
C254 N255 1.342 . S
C254 C258 1.401 . S
C254 C259 1.499 . S
N255 Co238 1.989 . S
N255 C254 1.342 . S
N255 N256 1.388 . S
N256 Co239 1.993 . S
N256 N255 1.388 . S
N256 C257 1.346 . S
C257 N256 1.346 . S
C257 C258 1.396 . S
C257 C267 1.510 . S
C258 C254 1.401 . S
C258 C257 1.396 . S
C259 C254 1.499 . S
C259 H260 0.959 . S
C259 H261 0.960 . S
C259 H262 0.961 . S
H260 C259 0.959 . S
H261 C259 0.960 . S
H262 C259 0.961 . S
O263 Co238 1.967 . S
O263 C271 1.258 . S
O264 Co239 1.941 . S
O264 C271 1.266 . S
H265 C267 0.959 . S
H266 C267 0.961 . S
C267 C257 1.510 . S
C267 H265 0.959 . S
C267 H266 0.961 . S
C267 H268 0.960 . S
H268 C267 0.960 . S
H269 N249 0.862 . S
O270 Co238 1.920 . S
O270 C243 1.289 . S
C271 O263 1.258 . S
C271 O264 1.266 . S
Co272 O275 1.970 . S
Co272 N289 1.989 . S
Co272 O297 1.967 1_565 S
Co272 O304 1.920 1_565 S
Co273 O276 1.966 . S
Co273 N282 2.022 . S
Co273 N290 1.993 . S
Co273 O298 1.949 . S
C274 O275 1.258 . S
C274 O276 1.263 . S
O275 Co272 1.970 . S
O275 C274 1.258 . S
O276 Co273 1.966 . S
O276 C274 1.263 . S
C277 O278 1.235 . S
C277 O304 1.289 1_565 S
O278 C277 1.235 . S
C279 C281 1.400 . S
C279 N282 1.351 . S
C279 C284 1.501 . S
C280 C281 1.387 . S
C280 N283 1.341 . S
C281 C279 1.400 . S
C281 C280 1.387 . S
N282 Co273 2.022 . S
N282 C279 1.351 . S
N282 N283 1.365 . S
N283 C280 1.341 . S
N283 N282 1.365 . S
N283 H303 0.862 . S
C284 C279 1.501 . S
C284 H285 0.961 . S
C284 H286 0.961 . S
C284 H287 0.960 . S
H285 C284 0.961 . S
H286 C284 0.961 . S
H287 C284 0.960 . S
C288 N289 1.342 . S
C288 C292 1.401 . S
C288 C293 1.499 1_565 S
N289 Co272 1.989 . S
N289 C288 1.342 . S
N289 N290 1.388 . S
N290 Co273 1.993 . S
N290 N289 1.388 . S
N290 C291 1.346 . S
C291 N290 1.346 . S
C291 C292 1.396 . S
C291 C301 1.510 . S
C292 C288 1.401 . S
C292 C291 1.396 . S
C293 C288 1.499 1_545 S
C293 H294 0.959 . S
C293 H295 0.960 1_545 S
C293 H296 0.961 . S
H294 C293 0.959 . S
H295 C293 0.960 1_565 S
H296 C293 0.961 . S
O297 Co272 1.967 1_545 S
O297 C305 1.258 . S
O298 Co273 1.949 . S
O298 C305 1.261 1_565 S
H299 C301 0.959 . S
H300 C301 0.961 . S
C301 C291 1.510 . S
C301 H299 0.959 . S
C301 H300 0.961 . S
C301 H302 0.960 . S
H302 C301 0.960 . S
H303 N283 0.862 . S
O304 Co272 1.920 1_545 S
O304 C277 1.289 1_545 S
C305 O297 1.258 . S
C305 O298 1.261 1_545 S
Co306 O309 1.970 . S
Co306 N323 1.989 . S
Co306 O331 1.967 1_655 S
Co306 O338 1.920 1_655 S
Co307 O310 1.966 . S
Co307 N316 2.022 . S
Co307 N324 1.993 . S
Co307 O332 1.949 . S
C308 O309 1.258 . S
C308 O310 1.263 . S
O309 Co306 1.970 . S
O309 C308 1.258 . S
O310 Co307 1.966 . S
O310 C308 1.263 . S
C311 O312 1.235 . S
C311 O338 1.289 1_655 S
O312 C311 1.235 . S
C313 C315 1.400 . S
C313 N316 1.351 . S
C313 C318 1.501 . S
C314 C315 1.387 . S
C314 N317 1.341 . S
C315 C313 1.400 . S
C315 C314 1.387 . S
N316 Co307 2.022 . S
N316 C313 1.351 . S
N316 N317 1.365 . S
N317 C314 1.341 . S
N317 N316 1.365 . S
N317 H337 0.862 . S
C318 C313 1.501 . S
C318 H319 0.961 . S
C318 H320 0.961 . S
C318 H321 0.960 . S
H319 C318 0.961 . S
H320 C318 0.961 . S
H321 C318 0.960 . S
C322 N323 1.342 . S
C322 C326 1.401 . S
C322 C327 1.499 1_655 S
N323 Co306 1.989 . S
N323 C322 1.342 . S
N323 N324 1.388 . S
N324 Co307 1.993 . S
N324 N323 1.388 . S
N324 C325 1.346 . S
C325 N324 1.346 . S
C325 C326 1.396 . S
C325 C335 1.510 . S
C326 C322 1.401 . S
C326 C325 1.396 . S
C327 C322 1.499 1_455 S
C327 H328 0.959 . S
C327 H329 0.960 1_455 S
C327 H330 0.961 . S
H328 C327 0.959 . S
H329 C327 0.960 1_655 S
H330 C327 0.961 . S
O331 Co306 1.967 1_455 S
O331 C339 1.258 . S
O332 Co307 1.949 . S
O332 C339 1.261 1_655 S
H333 C335 0.959 . S
H334 C335 0.961 . S
C335 C325 1.510 . S
C335 H333 0.959 . S
C335 H334 0.961 . S
C335 H336 0.960 . S
H336 C335 0.960 . S
H337 N317 0.862 . S
O338 Co306 1.920 1_455 S
O338 C311 1.289 1_455 S
C339 O331 1.258 . S
C339 O332 1.261 1_455 S
Co340 O343 1.970 . S
Co340 N357 1.989 . S
Co340 O365 1.967 1_545 S
Co340 O372 1.920 1_545 S
Co341 O344 1.966 . S
Co341 N350 2.022 . S
Co341 N358 1.993 . S
Co341 O366 1.949 . S
C342 O343 1.258 . S
C342 O344 1.263 . S
O343 Co340 1.970 . S
O343 C342 1.258 . S
O344 Co341 1.966 . S
O344 C342 1.263 . S
C345 O346 1.235 . S
C345 O372 1.289 1_545 S
O346 C345 1.235 . S
C347 C349 1.400 . S
C347 N350 1.351 . S
C347 C352 1.501 . S
C348 C349 1.387 . S
C348 N351 1.341 . S
C349 C347 1.400 . S
C349 C348 1.387 . S
N350 Co341 2.022 . S
N350 C347 1.351 . S
N350 N351 1.365 . S
N351 C348 1.341 . S
N351 N350 1.365 . S
N351 H371 0.862 . S
C352 C347 1.501 . S
C352 H353 0.961 . S
C352 H354 0.961 . S
C352 H355 0.960 . S
H353 C352 0.961 . S
H354 C352 0.961 . S
H355 C352 0.960 . S
C356 N357 1.342 . S
C356 C360 1.401 . S
C356 C361 1.499 1_545 S
N357 Co340 1.989 . S
N357 C356 1.342 . S
N357 N358 1.388 . S
N358 Co341 1.993 . S
N358 N357 1.388 . S
N358 C359 1.346 . S
C359 N358 1.346 . S
C359 C360 1.396 . S
C359 C369 1.510 . S
C360 C356 1.401 . S
C360 C359 1.396 . S
C361 C356 1.499 1_565 S
C361 H362 0.959 . S
C361 H363 0.960 1_565 S
C361 H364 0.961 . S
H362 C361 0.959 . S
H363 C361 0.960 1_545 S
H364 C361 0.961 . S
O365 Co340 1.967 1_565 S
O365 C373 1.258 . S
O366 Co341 1.949 . S
O366 C373 1.261 1_545 S
H367 C369 0.959 . S
H368 C369 0.961 . S
C369 C359 1.510 . S
C369 H367 0.959 . S
C369 H368 0.961 . S
C369 H370 0.960 . S
H370 C369 0.960 . S
H371 N351 0.862 . S
O372 Co340 1.920 1_565 S
O372 C345 1.289 1_565 S
C373 O365 1.258 . S
C373 O366 1.261 1_565 S
Co374 O377 1.970 . S
Co374 N391 1.989 . S
Co374 O399 1.967 1_455 S
Co374 O406 1.920 1_455 S
Co375 O378 1.966 . S
Co375 N384 2.022 . S
Co375 N392 1.993 . S
Co375 O400 1.949 . S
C376 O377 1.258 . S
C376 O378 1.263 . S
O377 Co374 1.970 . S
O377 C376 1.258 . S
O378 Co375 1.966 . S
O378 C376 1.263 . S
C379 O380 1.235 . S
C379 O406 1.289 1_455 S
O380 C379 1.235 . S
C381 C383 1.400 . S
C381 N384 1.351 . S
C381 C386 1.501 . S
C382 C383 1.387 . S
C382 N385 1.341 . S
C383 C381 1.400 . S
C383 C382 1.387 . S
N384 Co375 2.022 . S
N384 C381 1.351 . S
N384 N385 1.365 . S
N385 C382 1.341 . S
N385 N384 1.365 . S
N385 H405 0.862 . S
C386 C381 1.501 . S
C386 H387 0.961 . S
C386 H388 0.961 . S
C386 H389 0.960 . S
H387 C386 0.961 . S
H388 C386 0.961 . S
H389 C386 0.960 . S
C390 N391 1.342 . S
C390 C394 1.401 . S
C390 C395 1.499 1_455 S
N391 Co374 1.989 . S
N391 C390 1.342 . S
N391 N392 1.388 . S
N392 Co375 1.993 . S
N392 N391 1.388 . S
N392 C393 1.346 . S
C393 N392 1.346 . S
C393 C394 1.396 . S
C393 C403 1.510 . S
C394 C390 1.401 . S
C394 C393 1.396 . S
C395 C390 1.499 1_655 S
C395 H396 0.959 . S
C395 H397 0.960 1_655 S
C395 H398 0.961 . S
H396 C395 0.959 . S
H397 C395 0.960 1_455 S
H398 C395 0.961 . S
O399 Co374 1.967 1_655 S
O399 C407 1.258 . S
O400 Co375 1.949 . S
O400 C407 1.261 1_455 S
H401 C403 0.959 . S
H402 C403 0.961 . S
C403 C393 1.510 . S
C403 H401 0.959 . S
C403 H402 0.961 . S
C403 H404 0.960 . S
H404 C403 0.960 . S
H405 N385 0.862 . S
O406 Co374 1.920 1_655 S
O406 C379 1.289 1_655 S
C407 O399 1.258 . S
C407 O400 1.261 1_655 S
Co408 O411 1.970 . S
Co408 N425 1.989 . S
Co408 O433 1.967 1_545 S
Co408 O440 1.920 1_545 S
Co409 O412 1.966 . S
Co409 N418 2.022 . S
Co409 N426 1.993 . S
Co409 O434 1.949 . S
C410 O411 1.258 . S
C410 O412 1.263 . S
O411 Co408 1.970 . S
O411 C410 1.258 . S
O412 Co409 1.966 . S
O412 C410 1.263 . S
C413 O414 1.235 . S
C413 O440 1.289 1_545 S
O414 C413 1.235 . S
C415 C417 1.400 . S
C415 N418 1.351 . S
C415 C420 1.501 . S
C416 C417 1.387 . S
C416 N419 1.341 . S
C417 C415 1.400 . S
C417 C416 1.387 . S
N418 Co409 2.022 . S
N418 C415 1.351 . S
N418 N419 1.365 . S
N419 C416 1.341 . S
N419 N418 1.365 . S
N419 H439 0.862 . S
C420 C415 1.501 . S
C420 H421 0.961 . S
C420 H422 0.961 . S
C420 H423 0.960 . S
H421 C420 0.961 . S
H422 C420 0.961 . S
H423 C420 0.960 . S
C424 N425 1.342 . S
C424 C428 1.401 . S
C424 C429 1.499 1_545 S
N425 Co408 1.989 . S
N425 C424 1.342 . S
N425 N426 1.388 . S
N426 Co409 1.993 . S
N426 N425 1.388 . S
N426 C427 1.346 . S
C427 N426 1.346 . S
C427 C428 1.396 . S
C427 C437 1.510 . S
C428 C424 1.401 . S
C428 C427 1.396 . S
C429 C424 1.499 1_565 S
C429 H430 0.959 . S
C429 H431 0.960 1_565 S
C429 H432 0.961 . S
H430 C429 0.959 . S
H431 C429 0.960 1_545 S
H432 C429 0.961 . S
O433 Co408 1.967 1_565 S
O433 C441 1.258 . S
O434 Co409 1.949 . S
O434 C441 1.261 1_545 S
H435 C437 0.959 . S
H436 C437 0.961 . S
C437 C427 1.510 . S
C437 H435 0.959 . S
C437 H436 0.961 . S
C437 H438 0.960 . S
H438 C437 0.960 . S
H439 N419 0.862 . S
O440 Co408 1.920 1_565 S
O440 C413 1.289 1_565 S
C441 O433 1.258 . S
C441 O434 1.261 1_565 S
Co442 O445 1.970 . S
Co442 N459 1.989 . S
Co442 O467 1.967 1_455 S
Co442 O474 1.920 1_455 S
Co443 O446 1.966 . S
Co443 N452 2.022 . S
Co443 N460 1.993 . S
Co443 O468 1.949 . S
C444 O445 1.258 . S
C444 O446 1.263 . S
O445 Co442 1.970 . S
O445 C444 1.258 . S
O446 Co443 1.966 . S
O446 C444 1.263 . S
C447 O448 1.235 . S
C447 O474 1.289 1_455 S
O448 C447 1.235 . S
C449 C451 1.400 . S
C449 N452 1.351 . S
C449 C454 1.501 . S
C450 C451 1.387 . S
C450 N453 1.341 . S
C451 C449 1.400 . S
C451 C450 1.387 . S
N452 Co443 2.022 . S
N452 C449 1.351 . S
N452 N453 1.365 . S
N453 C450 1.341 . S
N453 N452 1.365 . S
N453 H473 0.862 . S
C454 C449 1.501 . S
C454 H455 0.961 . S
C454 H456 0.961 . S
C454 H457 0.960 . S
H455 C454 0.961 . S
H456 C454 0.961 . S
H457 C454 0.960 . S
C458 N459 1.342 . S
C458 C462 1.401 . S
C458 C463 1.499 1_455 S
N459 Co442 1.989 . S
N459 C458 1.342 . S
N459 N460 1.388 . S
N460 Co443 1.993 . S
N460 N459 1.388 . S
N460 C461 1.346 . S
C461 N460 1.346 . S
C461 C462 1.396 . S
C461 C471 1.510 . S
C462 C458 1.401 . S
C462 C461 1.396 . S
C463 C458 1.499 1_655 S
C463 H464 0.959 . S
C463 H465 0.960 1_655 S
C463 H466 0.961 . S
H464 C463 0.959 . S
H465 C463 0.960 1_455 S
H466 C463 0.961 . S
O467 Co442 1.967 1_655 S
O467 C475 1.258 . S
O468 Co443 1.949 . S
O468 C475 1.261 1_455 S
H469 C471 0.959 . S
H470 C471 0.961 . S
C471 C461 1.510 . S
C471 H469 0.959 . S
C471 H470 0.961 . S
C471 H472 0.960 . S
H472 C471 0.960 . S
H473 N453 0.862 . S
O474 Co442 1.920 1_655 S
O474 C447 1.289 1_655 S
C475 O467 1.258 . S
C475 O468 1.261 1_655 S
Co476 O479 1.970 . S
Co476 N493 1.989 . S
Co476 O501 1.967 1_565 S
Co476 O508 1.920 1_565 S
Co477 O480 1.966 . S
Co477 N486 2.022 . S
Co477 N494 1.993 . S
Co477 O502 1.949 . S
C478 O479 1.258 . S
C478 O480 1.263 . S
O479 Co476 1.970 . S
O479 C478 1.258 . S
O480 Co477 1.966 . S
O480 C478 1.263 . S
C481 O482 1.235 . S
C481 O508 1.289 1_565 S
O482 C481 1.235 . S
C483 C485 1.400 . S
C483 N486 1.351 . S
C483 C488 1.501 . S
C484 C485 1.387 . S
C484 N487 1.341 . S
C485 C483 1.400 . S
C485 C484 1.387 . S
N486 Co477 2.022 . S
N486 C483 1.351 . S
N486 N487 1.365 . S
N487 C484 1.341 . S
N487 N486 1.365 . S
N487 H507 0.862 . S
C488 C483 1.501 . S
C488 H489 0.961 . S
C488 H490 0.961 . S
C488 H491 0.960 . S
H489 C488 0.961 . S
H490 C488 0.961 . S
H491 C488 0.960 . S
C492 N493 1.342 . S
C492 C496 1.401 . S
C492 C497 1.499 1_565 S
N493 Co476 1.989 . S
N493 C492 1.342 . S
N493 N494 1.388 . S
N494 Co477 1.993 . S
N494 N493 1.388 . S
N494 C495 1.346 . S
C495 N494 1.346 . S
C495 C496 1.396 . S
C495 C505 1.510 . S
C496 C492 1.401 . S
C496 C495 1.396 . S
C497 C492 1.499 1_545 S
C497 H498 0.959 . S
C497 H499 0.960 1_545 S
C497 H500 0.961 . S
H498 C497 0.959 . S
H499 C497 0.960 1_565 S
H500 C497 0.961 . S
O501 Co476 1.967 1_545 S
O501 C509 1.258 . S
O502 Co477 1.949 . S
O502 C509 1.261 1_565 S
H503 C505 0.959 . S
H504 C505 0.961 . S
C505 C495 1.510 . S
C505 H503 0.959 . S
C505 H504 0.961 . S
C505 H506 0.960 . S
H506 C505 0.960 . S
H507 N487 0.862 . S
O508 Co476 1.920 1_545 S
O508 C481 1.289 1_545 S
C509 O501 1.258 . S
C509 O502 1.261 1_545 S
Co510 O513 1.970 . S
Co510 N527 1.989 . S
Co510 O535 1.967 1_655 S
Co510 O542 1.920 1_655 S
Co511 O514 1.966 . S
Co511 N520 2.022 . S
Co511 N528 1.993 . S
Co511 O536 1.949 . S
C512 O513 1.258 . S
C512 O514 1.263 . S
O513 Co510 1.970 . S
O513 C512 1.258 . S
O514 Co511 1.966 . S
O514 C512 1.263 . S
C515 O516 1.235 . S
C515 O542 1.289 1_655 S
O516 C515 1.235 . S
C517 C519 1.400 . S
C517 N520 1.351 . S
C517 C522 1.501 . S
C518 C519 1.387 . S
C518 N521 1.341 . S
C519 C517 1.400 . S
C519 C518 1.387 . S
N520 Co511 2.022 . S
N520 C517 1.351 . S
N520 N521 1.365 . S
N521 C518 1.341 . S
N521 N520 1.365 . S
N521 H541 0.862 . S
C522 C517 1.501 . S
C522 H523 0.961 . S
C522 H524 0.961 . S
C522 H525 0.960 . S
H523 C522 0.961 . S
H524 C522 0.961 . S
H525 C522 0.960 . S
C526 N527 1.342 . S
C526 C530 1.401 . S
C526 C531 1.499 1_655 S
N527 Co510 1.989 . S
N527 C526 1.342 . S
N527 N528 1.388 . S
N528 Co511 1.993 . S
N528 N527 1.388 . S
N528 C529 1.346 . S
C529 N528 1.346 . S
C529 C530 1.396 . S
C529 C539 1.510 . S
C530 C526 1.401 . S
C530 C529 1.396 . S
C531 C526 1.499 1_455 S
C531 H532 0.959 . S
C531 H533 0.960 1_455 S
C531 H534 0.961 . S
H532 C531 0.959 . S
H533 C531 0.960 1_655 S
H534 C531 0.961 . S
O535 Co510 1.967 1_455 S
O535 C543 1.258 . S
O536 Co511 1.949 . S
O536 C543 1.261 1_655 S
H537 C539 0.959 . S
H538 C539 0.961 . S
C539 C529 1.510 . S
C539 H537 0.959 . S
C539 H538 0.961 . S
C539 H540 0.960 . S
H540 C539 0.960 . S
H541 N521 0.862 . S
O542 Co510 1.920 1_455 S
O542 C515 1.289 1_455 S
C543 O535 1.258 . S
C543 O536 1.261 1_455 S
C544 C545 1.363 . S
C544 C550 1.379 1_655 S
C544 N552 1.356 . S
C545 C544 1.363 . S
C545 C551 1.363 . S
C546 C547 1.363 . S
C546 C551 1.379 1_455 S
C546 N553 1.356 . S
C547 C546 1.363 . S
C547 C550 1.363 . S
N548 C550 1.356 . S
N548 H560 0.984 . S
N548 H561 0.985 . S
N549 C551 1.356 . S
N549 H554 0.984 . S
N549 H555 0.985 . S
C550 C544 1.379 1_455 S
C550 C547 1.363 . S
C550 N548 1.356 . S
C551 C545 1.363 . S
C551 C546 1.379 1_655 S
C551 N549 1.356 . S
N552 C544 1.356 . S
N552 H558 0.984 . S
N552 H559 0.984 . S
N553 C546 1.356 . S
N553 H556 0.984 . S
N553 H557 0.985 . S
H554 N549 0.984 . S
H555 N549 0.985 . S
H556 N553 0.984 . S
H557 N553 0.985 . S
H558 N552 0.984 . S
H559 N552 0.984 . S
H560 N548 0.984 . S
H561 N548 0.985 . S
C562 C563 1.363 . S
C562 C568 1.379 1_545 S
C562 N570 1.356 . S
C563 C562 1.363 . S
C563 C569 1.363 . S
C564 C565 1.363 . S
C564 C569 1.379 1_565 S
C564 N571 1.356 . S
C565 C564 1.363 . S
C565 C568 1.363 . S
N566 C568 1.356 . S
N566 H578 0.984 . S
N566 H579 0.985 . S
N567 C569 1.356 . S
N567 H572 0.984 . S
N567 H573 0.985 . S
C568 C562 1.379 1_565 S
C568 C565 1.363 . S
C568 N566 1.356 . S
C569 C563 1.363 . S
C569 C564 1.379 1_545 S
C569 N567 1.356 . S
N570 C562 1.356 . S
N570 H576 0.984 . S
N570 H577 0.984 . S
N571 C564 1.356 . S
N571 H574 0.984 . S
N571 H575 0.985 . S
H572 N567 0.984 . S
H573 N567 0.985 . S
H574 N571 0.984 . S
H575 N571 0.985 . S
H576 N570 0.984 . S
H577 N570 0.984 . S
H578 N566 0.984 . S
H579 N566 0.985 . S
C580 C581 1.363 . S
C580 C586 1.379 1_655 S
C580 N588 1.356 . S
C581 C580 1.363 . S
C581 C587 1.363 . S
C582 C583 1.363 . S
C582 C587 1.379 1_455 S
C582 N589 1.356 . S
C583 C582 1.363 . S
C583 C586 1.363 . S
N584 C586 1.356 . S
N584 H596 0.984 . S
N584 H597 0.985 . S
N585 C587 1.356 . S
N585 H590 0.984 . S
N585 H591 0.985 . S
C586 C580 1.379 1_455 S
C586 C583 1.363 . S
C586 N584 1.356 . S
C587 C581 1.363 . S
C587 C582 1.379 1_655 S
C587 N585 1.356 . S
N588 C580 1.356 . S
N588 H594 0.984 . S
N588 H595 0.984 . S
N589 C582 1.356 . S
N589 H592 0.984 . S
N589 H593 0.985 . S
H590 N585 0.984 . S
H591 N585 0.985 . S
H592 N589 0.984 . S
H593 N589 0.985 . S
H594 N588 0.984 . S
H595 N588 0.984 . S
H596 N584 0.984 . S
H597 N584 0.985 . S
C598 C599 1.363 . S
C598 C604 1.379 1_565 S
C598 N606 1.356 . S
C599 C598 1.363 . S
C599 C605 1.363 . S
C600 C601 1.363 . S
C600 C605 1.379 1_545 S
C600 N607 1.356 . S
C601 C600 1.363 . S
C601 C604 1.363 . S
N602 C604 1.356 . S
N602 H614 0.984 . S
N602 H615 0.985 . S
N603 C605 1.356 . S
N603 H608 0.984 . S
N603 H609 0.985 . S
C604 C598 1.379 1_545 S
C604 C601 1.363 . S
C604 N602 1.356 . S
C605 C599 1.363 . S
C605 C600 1.379 1_565 S
C605 N603 1.356 . S
N606 C598 1.356 . S
N606 H612 0.984 . S
N606 H613 0.984 . S
N607 C600 1.356 . S
N607 H610 0.984 . S
N607 H611 0.985 . S
H608 N603 0.984 . S
H609 N603 0.985 . S
H610 N607 0.984 . S
H611 N607 0.985 . S
H612 N606 0.984 . S
H613 N606 0.984 . S
H614 N602 0.984 . S
H615 N602 0.985 . S
C616 C617 1.363 1_565 S
C616 C622 1.379 . S
C616 N624 1.356 . S
C617 C616 1.363 1_545 S
C617 C623 1.363 . S
C618 C619 1.363 1_545 S
C618 C623 1.379 . S
C618 N625 1.356 . S
C619 C618 1.363 1_565 S
C619 C622 1.363 . S
N620 C622 1.356 . S
N620 H632 0.984 . S
N620 H633 0.985 . S
N621 C623 1.356 . S
N621 H626 0.984 . S
N621 H627 0.985 . S
C622 C616 1.379 . S
C622 C619 1.363 . S
C622 N620 1.356 . S
C623 C617 1.363 . S
C623 C618 1.379 . S
C623 N621 1.356 . S
N624 C616 1.356 . S
N624 H630 0.984 . S
N624 H631 0.984 . S
N625 C618 1.356 . S
N625 H628 0.984 . S
N625 H629 0.985 . S
H626 N621 0.984 . S
H627 N621 0.985 . S
H628 N625 0.984 . S
H629 N625 0.985 . S
H630 N624 0.984 . S
H631 N624 0.984 . S
H632 N620 0.984 . S
H633 N620 0.985 . S
C634 C635 1.363 . S
C634 C640 1.379 . S
C634 N642 1.356 . S
C635 C634 1.363 . S
C635 C641 1.363 1_455 S
C636 C637 1.363 . S
C636 C641 1.379 . S
C636 N643 1.356 . S
C637 C636 1.363 . S
C637 C640 1.363 1_655 S
N638 C640 1.356 . S
N638 H650 0.984 . S
N638 H651 0.985 . S
N639 C641 1.356 . S
N639 H644 0.984 . S
N639 H645 0.985 . S
C640 C634 1.379 . S
C640 C637 1.363 1_455 S
C640 N638 1.356 . S
C641 C635 1.363 1_655 S
C641 C636 1.379 . S
C641 N639 1.356 . S
N642 C634 1.356 . S
N642 H648 0.984 . S
N642 H649 0.984 . S
N643 C636 1.356 . S
N643 H646 0.984 . S
N643 H647 0.985 . S
H644 N639 0.984 . S
H645 N639 0.985 . S
H646 N643 0.984 . S
H647 N643 0.985 . S
H648 N642 0.984 . S
H649 N642 0.984 . S
H650 N638 0.984 . S
H651 N638 0.985 . S
C652 C653 1.363 . S
C652 C658 1.379 . S
C652 N660 1.356 . S
C653 C652 1.363 . S
C653 C659 1.363 1_545 S
C654 C655 1.363 . S
C654 C659 1.379 . S
C654 N661 1.356 . S
C655 C654 1.363 . S
C655 C658 1.363 1_565 S
N656 C658 1.356 . S
N656 H668 0.984 . S
N656 H669 0.985 . S
N657 C659 1.356 . S
N657 H662 0.984 . S
N657 H663 0.985 . S
C658 C652 1.379 . S
C658 C655 1.363 1_545 S
C658 N656 1.356 . S
C659 C653 1.363 1_565 S
C659 C654 1.379 . S
C659 N657 1.356 . S
N660 C652 1.356 . S
N660 H666 0.984 . S
N660 H667 0.984 . S
N661 C654 1.356 . S
N661 H664 0.984 . S
N661 H665 0.985 . S
H662 N657 0.984 . S
H663 N657 0.985 . S
H664 N661 0.984 . S
H665 N661 0.985 . S
H666 N660 0.984 . S
H667 N660 0.984 . S
H668 N656 0.984 . S
H669 N656 0.985 . S
C670 C671 1.363 1_655 S
C670 C676 1.379 . S
C670 N678 1.356 . S
C671 C670 1.363 1_455 S
C671 C677 1.363 . S
C672 C673 1.363 1_455 S
C672 C677 1.379 . S
C672 N679 1.356 . S
C673 C672 1.363 1_655 S
C673 C676 1.363 . S
N674 C676 1.356 . S
N674 H686 0.984 . S
N674 H687 0.985 . S
N675 C677 1.356 . S
N675 H680 0.984 . S
N675 H681 0.985 . S
C676 C670 1.379 . S
C676 C673 1.363 . S
C676 N674 1.356 . S
C677 C671 1.363 . S
C677 C672 1.379 . S
C677 N675 1.356 . S
N678 C670 1.356 . S
N678 H684 0.984 . S
N678 H685 0.984 . S
N679 C672 1.356 . S
N679 H682 0.984 . S
N679 H683 0.985 . S
H680 N675 0.984 . S
H681 N675 0.985 . S
H682 N679 0.984 . S
H683 N679 0.985 . S
H684 N678 0.984 . S
H685 N678 0.984 . S
H686 N674 0.984 . S
H687 N674 0.985 . S
C688 C689 1.363 . S
C688 C694 1.379 . S
C688 N696 1.356 . S
C689 C688 1.363 . S
C689 C695 1.363 . S
C690 C691 1.363 . S
C690 C695 1.379 . S
C690 N697 1.356 . S
C691 C690 1.363 . S
C691 C694 1.363 . S
N692 C694 1.356 . S
N692 H704 0.984 . S
N692 H705 0.985 . S
N693 C695 1.356 . S
N693 H698 0.984 . S
N693 H699 0.985 . S
C694 C688 1.379 . S
C694 C691 1.363 . S
C694 N692 1.356 . S
C695 C689 1.363 . S
C695 C690 1.379 . S
C695 N693 1.356 . S
N696 C688 1.356 . S
N696 H702 0.984 . S
N696 H703 0.984 . S
N697 C690 1.356 . S
N697 H700 0.984 . S
N697 H701 0.985 . S
H698 N693 0.984 . S
H699 N693 0.985 . S
H700 N697 0.984 . S
H701 N697 0.985 . S
H702 N696 0.984 . S
H703 N696 0.984 . S
H704 N692 0.984 . S
H705 N692 0.985 . S
C706 C707 1.363 . S
C706 C712 1.379 . S
C706 N714 1.356 . S
C707 C706 1.363 . S
C707 C713 1.363 . S
C708 C709 1.363 . S
C708 C713 1.379 . S
C708 N715 1.356 . S
C709 C708 1.363 . S
C709 C712 1.363 . S
N710 C712 1.356 . S
N710 H722 0.984 . S
N710 H723 0.985 . S
N711 C713 1.356 . S
N711 H716 0.984 . S
N711 H717 0.985 . S
C712 C706 1.379 . S
C712 C709 1.363 . S
C712 N710 1.356 . S
C713 C707 1.363 . S
C713 C708 1.379 . S
C713 N711 1.356 . S
N714 C706 1.356 . S
N714 H720 0.984 . S
N714 H721 0.984 . S
N715 C708 1.356 . S
N715 H718 0.984 . S
N715 H719 0.985 . S
H716 N711 0.984 . S
H717 N711 0.985 . S
H718 N715 0.984 . S
H719 N715 0.985 . S
H720 N714 0.984 . S
H721 N714 0.984 . S
H722 N710 0.984 . S
H723 N710 0.985 . S
C724 C725 1.363 . S
C724 C730 1.379 . S
C724 N732 1.356 . S
C725 C724 1.363 . S
C725 C731 1.363 . S
C726 C727 1.363 . S
C726 C731 1.379 . S
C726 N733 1.356 . S
C727 C726 1.363 . S
C727 C730 1.363 . S
N728 C730 1.356 . S
N728 H740 0.984 . S
N728 H741 0.985 . S
N729 C731 1.356 . S
N729 H734 0.984 . S
N729 H735 0.985 . S
C730 C724 1.379 . S
C730 C727 1.363 . S
C730 N728 1.356 . S
C731 C725 1.363 . S
C731 C726 1.379 . S
C731 N729 1.356 . S
N732 C724 1.356 . S
N732 H738 0.984 . S
N732 H739 0.984 . S
N733 C726 1.356 . S
N733 H736 0.984 . S
N733 H737 0.985 . S
H734 N729 0.984 . S
H735 N729 0.985 . S
H736 N733 0.984 . S
H737 N733 0.985 . S
H738 N732 0.984 . S
H739 N732 0.984 . S
H740 N728 0.984 . S
H741 N728 0.985 . S
C742 C743 1.363 . S
C742 C748 1.379 . S
C742 N750 1.356 . S
C743 C742 1.363 . S
C743 C749 1.363 . S
C744 C745 1.363 . S
C744 C749 1.379 . S
C744 N751 1.356 . S
C745 C744 1.363 . S
C745 C748 1.363 . S
N746 C748 1.356 . S
N746 H758 0.984 . S
N746 H759 0.985 . S
N747 C749 1.356 . S
N747 H752 0.984 . S
N747 H753 0.985 . S
C748 C742 1.379 . S
C748 C745 1.363 . S
C748 N746 1.356 . S
C749 C743 1.363 . S
C749 C744 1.379 . S
C749 N747 1.356 . S
N750 C742 1.356 . S
N750 H756 0.984 . S
N750 H757 0.984 . S
N751 C744 1.356 . S
N751 H754 0.984 . S
N751 H755 0.985 . S
H752 N747 0.984 . S
H753 N747 0.985 . S
H754 N751 0.984 . S
H755 N751 0.985 . S
H756 N750 0.984 . S
H757 N750 0.984 . S
H758 N746 0.984 . S
H759 N746 0.985 . S
C760 C761 1.363 . S
C760 C766 1.379 . S
C760 N768 1.356 . S
C761 C760 1.363 . S
C761 C767 1.363 . S
C762 C763 1.363 . S
C762 C767 1.379 . S
C762 N769 1.356 . S
C763 C762 1.363 . S
C763 C766 1.363 . S
N764 C766 1.356 . S
N764 H776 0.984 . S
N764 H777 0.985 . S
N765 C767 1.356 . S
N765 H770 0.984 . S
N765 H771 0.985 . S
C766 C760 1.379 . S
C766 C763 1.363 . S
C766 N764 1.356 . S
C767 C761 1.363 . S
C767 C762 1.379 . S
C767 N765 1.356 . S
N768 C760 1.356 . S
N768 H774 0.984 . S
N768 H775 0.984 . S
N769 C762 1.356 . S
N769 H772 0.984 . S
N769 H773 0.985 . S
H770 N765 0.984 . S
H771 N765 0.985 . S
H772 N769 0.984 . S
H773 N769 0.985 . S
H774 N768 0.984 . S
H775 N768 0.984 . S
H776 N764 0.984 . S
H777 N764 0.985 . S
C778 C779 1.363 . S
C778 C784 1.379 . S
C778 N786 1.356 . S
C779 C778 1.363 . S
C779 C785 1.363 . S
C780 C781 1.363 . S
C780 C785 1.379 . S
C780 N787 1.356 . S
C781 C780 1.363 . S
C781 C784 1.363 . S
N782 C784 1.356 . S
N782 H794 0.984 . S
N782 H795 0.985 . S
N783 C785 1.356 . S
N783 H788 0.984 . S
N783 H789 0.985 . S
C784 C778 1.379 . S
C784 C781 1.363 . S
C784 N782 1.356 . S
C785 C779 1.363 . S
C785 C780 1.379 . S
C785 N783 1.356 . S
N786 C778 1.356 . S
N786 H792 0.984 . S
N786 H793 0.984 . S
N787 C780 1.356 . S
N787 H790 0.984 . S
N787 H791 0.985 . S
H788 N783 0.984 . S
H789 N783 0.985 . S
H790 N787 0.984 . S
H791 N787 0.985 . S
H792 N786 0.984 . S
H793 N786 0.984 . S
H794 N782 0.984 . S
H795 N782 0.985 . S
C796 C797 1.363 . S
C796 C802 1.379 . S
C796 N804 1.356 . S
C797 C796 1.363 . S
C797 C803 1.363 . S
C798 C799 1.363 . S
C798 C803 1.379 . S
C798 N805 1.356 . S
C799 C798 1.363 . S
C799 C802 1.363 . S
N800 C802 1.356 . S
N800 H812 0.984 . S
N800 H813 0.985 . S
N801 C803 1.356 . S
N801 H806 0.984 . S
N801 H807 0.985 . S
C802 C796 1.379 . S
C802 C799 1.363 . S
C802 N800 1.356 . S
C803 C797 1.363 . S
C803 C798 1.379 . S
C803 N801 1.356 . S
N804 C796 1.356 . S
N804 H810 0.984 . S
N804 H811 0.984 . S
N805 C798 1.356 . S
N805 H808 0.984 . S
N805 H809 0.985 . S
H806 N801 0.984 . S
H807 N801 0.985 . S
H808 N805 0.984 . S
H809 N805 0.985 . S
H810 N804 0.984 . S
H811 N804 0.984 . S
H812 N800 0.984 . S
H813 N800 0.985 . S
C814 C815 1.363 . S
C814 C820 1.379 . S
C814 N822 1.356 . S
C815 C814 1.363 . S
C815 C821 1.363 . S
C816 C817 1.363 . S
C816 C821 1.379 . S
C816 N823 1.356 . S
C817 C816 1.363 . S
C817 C820 1.363 . S
N818 C820 1.356 . S
N818 H830 0.984 . S
N818 H831 0.985 . S
N819 C821 1.356 . S
N819 H824 0.984 . S
N819 H825 0.985 . S
C820 C814 1.379 . S
C820 C817 1.363 . S
C820 N818 1.356 . S
C821 C815 1.363 . S
C821 C816 1.379 . S
C821 N819 1.356 . S
N822 C814 1.356 . S
N822 H828 0.984 . S
N822 H829 0.984 . S
N823 C816 1.356 . S
N823 H826 0.984 . S
N823 H827 0.985 . S
H824 N819 0.984 . S
H825 N819 0.985 . S
H826 N823 0.984 . S
H827 N823 0.985 . S
H828 N822 0.984 . S
H829 N822 0.984 . S
H830 N818 0.984 . S
H831 N818 0.985 . S
C832 C833 1.363 . S
C832 C838 1.379 . S
C832 N840 1.356 . S
C833 C832 1.363 . S
C833 C839 1.363 . S
C834 C835 1.363 . S
C834 C839 1.379 . S
C834 N841 1.356 . S
C835 C834 1.363 . S
C835 C838 1.363 . S
N836 C838 1.356 . S
N836 H848 0.984 . S
N836 H849 0.985 . S
N837 C839 1.356 . S
N837 H842 0.984 . S
N837 H843 0.985 . S
C838 C832 1.379 . S
C838 C835 1.363 . S
C838 N836 1.356 . S
C839 C833 1.363 . S
C839 C834 1.379 . S
C839 N837 1.356 . S
N840 C832 1.356 . S
N840 H846 0.984 . S
N840 H847 0.984 . S
N841 C834 1.356 . S
N841 H844 0.984 . S
N841 H845 0.985 . S
H842 N837 0.984 . S
H843 N837 0.985 . S
H844 N841 0.984 . S
H845 N841 0.985 . S
H846 N840 0.984 . S
H847 N840 0.984 . S
H848 N836 0.984 . S
H849 N836 0.985 . S
C850 C851 1.363 . S
C850 C856 1.379 . S
C850 N858 1.356 . S
C851 C850 1.363 . S
C851 C857 1.363 . S
C852 C853 1.363 . S
C852 C857 1.379 . S
C852 N859 1.356 . S
C853 C852 1.363 . S
C853 C856 1.363 . S
N854 C856 1.356 . S
N854 H866 0.984 . S
N854 H867 0.985 . S
N855 C857 1.356 . S
N855 H860 0.984 . S
N855 H861 0.985 . S
C856 C850 1.379 . S
C856 C853 1.363 . S
C856 N854 1.356 . S
C857 C851 1.363 . S
C857 C852 1.379 . S
C857 N855 1.356 . S
N858 C850 1.356 . S
N858 H864 0.984 . S
N858 H865 0.984 . S
N859 C852 1.356 . S
N859 H862 0.984 . S
N859 H863 0.985 . S
H860 N855 0.984 . S
H861 N855 0.985 . S
H862 N859 0.984 . S
H863 N859 0.985 . S
H864 N858 0.984 . S
H865 N858 0.984 . S
H866 N854 0.984 . S
H867 N854 0.985 . S
C868 C869 1.363 . S
C868 C874 1.379 . S
C868 N876 1.356 . S
C869 C868 1.363 . S
C869 C875 1.363 . S
C870 C871 1.363 . S
C870 C875 1.379 . S
C870 N877 1.356 . S
C871 C870 1.363 . S
C871 C874 1.363 . S
N872 C874 1.356 . S
N872 H884 0.984 . S
N872 H885 0.985 . S
N873 C875 1.356 . S
N873 H878 0.984 . S
N873 H879 0.985 . S
C874 C868 1.379 . S
C874 C871 1.363 . S
C874 N872 1.356 . S
C875 C869 1.363 . S
C875 C870 1.379 . S
C875 N873 1.356 . S
N876 C868 1.356 . S
N876 H882 0.984 . S
N876 H883 0.984 . S
N877 C870 1.356 . S
N877 H880 0.984 . S
N877 H881 0.985 . S
H878 N873 0.984 . S
H879 N873 0.985 . S
H880 N877 0.984 . S
H881 N877 0.985 . S
H882 N876 0.984 . S
H883 N876 0.984 . S
H884 N872 0.984 . S
H885 N872 0.985 . S
C886 C887 1.363 . S
C886 C892 1.379 . S
C886 N894 1.356 . S
C887 C886 1.363 . S
C887 C893 1.363 . S
C888 C889 1.363 . S
C888 C893 1.379 . S
C888 N895 1.356 . S
C889 C888 1.363 . S
C889 C892 1.363 . S
N890 C892 1.356 . S
N890 H902 0.984 . S
N890 H903 0.985 . S
N891 C893 1.356 . S
N891 H896 0.984 . S
N891 H897 0.985 . S
C892 C886 1.379 . S
C892 C889 1.363 . S
C892 N890 1.356 . S
C893 C887 1.363 . S
C893 C888 1.379 . S
C893 N891 1.356 . S
N894 C886 1.356 . S
N894 H900 0.984 . S
N894 H901 0.984 . S
N895 C888 1.356 . S
N895 H898 0.984 . S
N895 H899 0.985 . S
H896 N891 0.984 . S
H897 N891 0.985 . S
H898 N895 0.984 . S
H899 N895 0.985 . S
H900 N894 0.984 . S
H901 N894 0.984 . S
H902 N890 0.984 . S
H903 N890 0.985 . S
C904 C905 1.363 . S
C904 C910 1.379 . S
C904 N912 1.356 . S
C905 C904 1.363 . S
C905 C911 1.363 . S
C906 C907 1.363 . S
C906 C911 1.379 . S
C906 N913 1.356 . S
C907 C906 1.363 . S
C907 C910 1.363 . S
N908 C910 1.356 . S
N908 H920 0.984 . S
N908 H921 0.985 . S
N909 C911 1.356 . S
N909 H914 0.984 . S
N909 H915 0.985 . S
C910 C904 1.379 . S
C910 C907 1.363 . S
C910 N908 1.356 . S
C911 C905 1.363 . S
C911 C906 1.379 . S
C911 N909 1.356 . S
N912 C904 1.356 . S
N912 H918 0.984 . S
N912 H919 0.984 . S
N913 C906 1.356 . S
N913 H916 0.984 . S
N913 H917 0.985 . S
H914 N909 0.984 . S
H915 N909 0.985 . S
H916 N913 0.984 . S
H917 N913 0.985 . S
H918 N912 0.984 . S
H919 N912 0.984 . S
H920 N908 0.984 . S
H921 N908 0.985 . S
C922 C923 1.363 . S
C922 C928 1.379 . S
C922 N930 1.356 . S
C923 C922 1.363 . S
C923 C929 1.363 . S
C924 C925 1.363 . S
C924 C929 1.379 . S
C924 N931 1.356 . S
C925 C924 1.363 . S
C925 C928 1.363 . S
N926 C928 1.356 . S
N926 H938 0.984 . S
N926 H939 0.985 . S
N927 C929 1.356 . S
N927 H932 0.984 . S
N927 H933 0.985 . S
C928 C922 1.379 . S
C928 C925 1.363 . S
C928 N926 1.356 . S
C929 C923 1.363 . S
C929 C924 1.379 . S
C929 N927 1.356 . S
N930 C922 1.356 . S
N930 H936 0.984 . S
N930 H937 0.984 . S
N931 C924 1.356 . S
N931 H934 0.984 . S
N931 H935 0.985 . S
H932 N927 0.984 . S
H933 N927 0.985 . S
H934 N931 0.984 . S
H935 N931 0.985 . S
H936 N930 0.984 . S
H937 N930 0.984 . S
H938 N926 0.984 . S
H939 N926 0.985 . S
C940 C941 1.363 . S
C940 C946 1.379 . S
C940 N948 1.356 . S
C941 C940 1.363 . S
C941 C947 1.363 . S
C942 C943 1.363 . S
C942 C947 1.379 . S
C942 N949 1.356 . S
C943 C942 1.363 . S
C943 C946 1.363 . S
N944 C946 1.356 . S
N944 H956 0.984 . S
N944 H957 0.985 . S
N945 C947 1.356 . S
N945 H950 0.984 . S
N945 H951 0.985 . S
C946 C940 1.379 . S
C946 C943 1.363 . S
C946 N944 1.356 . S
C947 C941 1.363 . S
C947 C942 1.379 . S
C947 N945 1.356 . S
N948 C940 1.356 . S
N948 H954 0.984 . S
N948 H955 0.984 . S
N949 C942 1.356 . S
N949 H952 0.984 . S
N949 H953 0.985 . S
H950 N945 0.984 . S
H951 N945 0.985 . S
H952 N949 0.984 . S
H953 N949 0.985 . S
H954 N948 0.984 . S
H955 N948 0.984 . S
H956 N944 0.984 . S
H957 N944 0.985 . S
C958 C959 1.363 . S
C958 C964 1.379 . S
C958 N966 1.356 . S
C959 C958 1.363 . S
C959 C965 1.363 . S
C960 C961 1.363 . S
C960 C965 1.379 . S
C960 N967 1.356 . S
C961 C960 1.363 . S
C961 C964 1.363 . S
N962 C964 1.356 . S
N962 H974 0.984 . S
N962 H975 0.985 . S
N963 C965 1.356 . S
N963 H968 0.984 . S
N963 H969 0.985 . S
C964 C958 1.379 . S
C964 C961 1.363 . S
C964 N962 1.356 . S
C965 C959 1.363 . S
C965 C960 1.379 . S
C965 N963 1.356 . S
N966 C958 1.356 . S
N966 H972 0.984 . S
N966 H973 0.984 . S
N967 C960 1.356 . S
N967 H970 0.984 . S
N967 H971 0.985 . S
H968 N963 0.984 . S
H969 N963 0.985 . S
H970 N967 0.984 . S
H971 N967 0.985 . S
H972 N966 0.984 . S
H973 N966 0.984 . S
H974 N962 0.984 . S
H975 N962 0.985 . S
C976 C977 1.363 . S
C976 C982 1.379 . S
C976 N984 1.356 . S
C977 C976 1.363 . S
C977 C983 1.363 . S
C978 C979 1.363 . S
C978 C983 1.379 . S
C978 N985 1.356 . S
C979 C978 1.363 . S
C979 C982 1.363 . S
N980 C982 1.356 . S
N980 H992 0.984 . S
N980 H993 0.985 . S
N981 C983 1.356 . S
N981 H986 0.984 . S
N981 H987 0.985 . S
C982 C976 1.379 . S
C982 C979 1.363 . S
C982 N980 1.356 . S
C983 C977 1.363 . S
C983 C978 1.379 . S
C983 N981 1.356 . S
N984 C976 1.356 . S
N984 H990 0.984 . S
N984 H991 0.984 . S
N985 C978 1.356 . S
N985 H988 0.984 . S
N985 H989 0.985 . S
H986 N981 0.984 . S
H987 N981 0.985 . S
H988 N985 0.984 . S
H989 N985 0.985 . S
H990 N984 0.984 . S
H991 N984 0.984 . S
H992 N980 0.984 . S
H993 N980 0.985 . S
C994 C995 1.363 . S
C994 C1000 1.379 . S
C994 N1002 1.356 . S
C995 C994 1.363 . S
C995 C1001 1.363 . S
C996 C997 1.363 . S
C996 C1001 1.379 . S
C996 N1003 1.356 . S
C997 C996 1.363 . S
C997 C1000 1.363 . S
N998 C1000 1.356 . S
N998 H1010 0.984 . S
N998 H1011 0.985 . S
N999 C1001 1.356 . S
N999 H1004 0.984 . S
N999 H1005 0.985 . S
C1000 C994 1.379 . S
C1000 C997 1.363 . S
C1000 N998 1.356 . S
C1001 C995 1.363 . S
C1001 C996 1.379 . S
C1001 N999 1.356 . S
N1002 C994 1.356 . S
N1002 H1008 0.984 . S
N1002 H1009 0.984 . S
N1003 C996 1.356 . S
N1003 H1006 0.984 . S
N1003 H1007 0.985 . S
H1004 N999 0.984 . S
H1005 N999 0.985 . S
H1006 N1003 0.984 . S
H1007 N1003 0.985 . S
H1008 N1002 0.984 . S
H1009 N1002 0.984 . S
H1010 N998 0.984 . S
H1011 N998 0.985 . S
C1012 C1013 1.363 . S
C1012 C1018 1.379 . S
C1012 N1020 1.356 . S
C1013 C1012 1.363 . S
C1013 C1019 1.363 . S
C1014 C1015 1.363 . S
C1014 C1019 1.379 . S
C1014 N1021 1.356 . S
C1015 C1014 1.363 . S
C1015 C1018 1.363 . S
N1016 C1018 1.356 . S
N1016 H1028 0.984 . S
N1016 H1029 0.985 . S
N1017 C1019 1.356 . S
N1017 H1022 0.984 . S
N1017 H1023 0.985 . S
C1018 C1012 1.379 . S
C1018 C1015 1.363 . S
C1018 N1016 1.356 . S
C1019 C1013 1.363 . S
C1019 C1014 1.379 . S
C1019 N1017 1.356 . S
N1020 C1012 1.356 . S
N1020 H1026 0.984 . S
N1020 H1027 0.984 . S
N1021 C1014 1.356 . S
N1021 H1024 0.984 1_565 S
N1021 H1025 0.985 1_565 S
H1022 N1017 0.984 . S
H1023 N1017 0.985 . S
H1024 N1021 0.984 1_545 S
H1025 N1021 0.985 1_545 S
H1026 N1020 0.984 . S
H1027 N1020 0.984 . S
H1028 N1016 0.984 . S
H1029 N1016 0.985 . S
C1030 C1031 1.363 . S
C1030 C1036 1.379 . S
C1030 N1038 1.356 . S
C1031 C1030 1.363 . S
C1031 C1037 1.363 . S
C1032 C1033 1.363 . S
C1032 C1037 1.379 . S
C1032 N1039 1.356 . S
C1033 C1032 1.363 . S
C1033 C1036 1.363 . S
N1034 C1036 1.356 . S
N1034 H1046 0.984 . S
N1034 H1047 0.985 . S
N1035 C1037 1.356 . S
N1035 H1040 0.984 . S
N1035 H1041 0.985 . S
C1036 C1030 1.379 . S
C1036 C1033 1.363 . S
C1036 N1034 1.356 . S
C1037 C1031 1.363 . S
C1037 C1032 1.379 . S
C1037 N1035 1.356 . S
N1038 C1030 1.356 . S
N1038 H1044 0.984 . S
N1038 H1045 0.984 . S
N1039 C1032 1.356 . S
N1039 H1042 0.984 . S
N1039 H1043 0.985 . S
H1040 N1035 0.984 . S
H1041 N1035 0.985 . S
H1042 N1039 0.984 . S
H1043 N1039 0.985 . S
H1044 N1038 0.984 . S
H1045 N1038 0.984 . S
H1046 N1034 0.984 . S
H1047 N1034 0.985 . S
C1048 C1049 1.363 . S
C1048 C1054 1.379 . S
C1048 N1056 1.356 . S
C1049 C1048 1.363 . S
C1049 C1055 1.363 . S
C1050 C1051 1.363 . S
C1050 C1055 1.379 . S
C1050 N1057 1.356 . S
C1051 C1050 1.363 . S
C1051 C1054 1.363 . S
N1052 C1054 1.356 . S
N1052 H1064 0.984 . S
N1052 H1065 0.985 . S
N1053 C1055 1.356 . S
N1053 H1058 0.984 . S
N1053 H1059 0.985 . S
C1054 C1048 1.379 . S
C1054 C1051 1.363 . S
C1054 N1052 1.356 . S
C1055 C1049 1.363 . S
C1055 C1050 1.379 . S
C1055 N1053 1.356 . S
N1056 C1048 1.356 . S
N1056 H1062 0.984 . S
N1056 H1063 0.984 . S
N1057 C1050 1.356 . S
N1057 H1060 0.984 . S
N1057 H1061 0.985 . S
H1058 N1053 0.984 . S
H1059 N1053 0.985 . S
H1060 N1057 0.984 . S
H1061 N1057 0.985 . S
H1062 N1056 0.984 . S
H1063 N1056 0.984 . S
H1064 N1052 0.984 . S
H1065 N1052 0.985 . S
C1066 C1067 1.363 . S
C1066 C1072 1.379 . S
C1066 N1074 1.356 . S
C1067 C1066 1.363 . S
C1067 C1073 1.363 . S
C1068 C1069 1.363 . S
C1068 C1073 1.379 . S
C1068 N1075 1.356 . S
C1069 C1068 1.363 . S
C1069 C1072 1.363 . S
N1070 C1072 1.356 . S
N1070 H1082 0.984 . S
N1070 H1083 0.985 . S
N1071 C1073 1.356 . S
N1071 H1076 0.984 . S
N1071 H1077 0.985 . S
C1072 C1066 1.379 . S
C1072 C1069 1.363 . S
C1072 N1070 1.356 . S
C1073 C1067 1.363 . S
C1073 C1068 1.379 . S
C1073 N1071 1.356 . S
N1074 C1066 1.356 . S
N1074 H1080 0.984 . S
N1074 H1081 0.984 . S
N1075 C1068 1.356 . S
N1075 H1078 0.984 . S
N1075 H1079 0.985 . S
H1076 N1071 0.984 . S
H1077 N1071 0.985 . S
H1078 N1075 0.984 . S
H1079 N1075 0.985 . S
H1080 N1074 0.984 . S
H1081 N1074 0.984 . S
H1082 N1070 0.984 . S
H1083 N1070 0.985 . S
C1084 C1085 1.363 . S
C1084 C1090 1.379 . S
C1084 N1092 1.356 . S
C1085 C1084 1.363 . S
C1085 C1091 1.363 . S
C1086 C1087 1.363 . S
C1086 C1091 1.379 . S
C1086 N1093 1.356 . S
C1087 C1086 1.363 . S
C1087 C1090 1.363 . S
N1088 C1090 1.356 . S
N1088 H1100 0.984 . S
N1088 H1101 0.985 . S
N1089 C1091 1.356 . S
N1089 H1094 0.984 . S
N1089 H1095 0.985 . S
C1090 C1084 1.379 . S
C1090 C1087 1.363 . S
C1090 N1088 1.356 . S
C1091 C1085 1.363 . S
C1091 C1086 1.379 . S
C1091 N1089 1.356 . S
N1092 C1084 1.356 . S
N1092 H1098 0.984 . S
N1092 H1099 0.984 . S
N1093 C1086 1.356 . S
N1093 H1096 0.984 . S
N1093 H1097 0.985 . S
H1094 N1089 0.984 . S
H1095 N1089 0.985 . S
H1096 N1093 0.984 . S
H1097 N1093 0.985 . S
H1098 N1092 0.984 . S
H1099 N1092 0.984 . S
H1100 N1088 0.984 . S
H1101 N1088 0.985 . S
C1102 C1103 1.363 . S
C1102 C1108 1.379 . S
C1102 N1110 1.356 . S
C1103 C1102 1.363 . S
C1103 C1109 1.363 . S
C1104 C1105 1.363 . S
C1104 C1109 1.379 . S
C1104 N1111 1.356 . S
C1105 C1104 1.363 . S
C1105 C1108 1.363 . S
N1106 C1108 1.356 . S
N1106 H1118 0.984 . S
N1106 H1119 0.985 . S
N1107 C1109 1.356 . S
N1107 H1112 0.984 1_455 S
N1107 H1113 0.985 1_455 S
C1108 C1102 1.379 . S
C1108 C1105 1.363 . S
C1108 N1106 1.356 . S
C1109 C1103 1.363 . S
C1109 C1104 1.379 . S
C1109 N1107 1.356 . S
N1110 C1102 1.356 . S
N1110 H1116 0.984 . S
N1110 H1117 0.984 . S
N1111 C1104 1.356 . S
N1111 H1114 0.984 . S
N1111 H1115 0.985 . S
H1112 N1107 0.984 1_655 S
H1113 N1107 0.985 1_655 S
H1114 N1111 0.984 . S
H1115 N1111 0.985 . S
H1116 N1110 0.984 . S
H1117 N1110 0.984 . S
H1118 N1106 0.984 . S
H1119 N1106 0.985 . S
C1120 C1121 1.363 . S
C1120 C1126 1.379 . S
C1120 N1128 1.356 . S
C1121 C1120 1.363 . S
C1121 C1127 1.363 . S
C1122 C1123 1.363 . S
C1122 C1127 1.379 . S
C1122 N1129 1.356 . S
C1123 C1122 1.363 . S
C1123 C1126 1.363 . S
N1124 C1126 1.356 . S
N1124 H1136 0.984 . S
N1124 H1137 0.985 . S
N1125 C1127 1.356 . S
N1125 H1130 0.984 . S
N1125 H1131 0.985 . S
C1126 C1120 1.379 . S
C1126 C1123 1.363 . S
C1126 N1124 1.356 . S
C1127 C1121 1.363 . S
C1127 C1122 1.379 . S
C1127 N1125 1.356 . S
N1128 C1120 1.356 . S
N1128 H1134 0.984 . S
N1128 H1135 0.984 . S
N1129 C1122 1.356 . S
N1129 H1132 0.984 . S
N1129 H1133 0.985 . S
H1130 N1125 0.984 . S
H1131 N1125 0.985 . S
H1132 N1129 0.984 . S
H1133 N1129 0.985 . S
H1134 N1128 0.984 . S
H1135 N1128 0.984 . S
H1136 N1124 0.984 . S
H1137 N1124 0.985 . S
C1138 C1139 1.363 . S
C1138 C1144 1.379 . S
C1138 N1146 1.356 . S
C1139 C1138 1.363 . S
C1139 C1145 1.363 . S
C1140 C1141 1.363 . S
C1140 C1145 1.379 . S
C1140 N1147 1.356 . S
C1141 C1140 1.363 . S
C1141 C1144 1.363 . S
N1142 C1144 1.356 . S
N1142 H1154 0.984 . S
N1142 H1155 0.985 . S
N1143 C1145 1.356 . S
N1143 H1148 0.984 . S
N1143 H1149 0.985 . S
C1144 C1138 1.379 . S
C1144 C1141 1.363 . S
C1144 N1142 1.356 . S
C1145 C1139 1.363 . S
C1145 C1140 1.379 . S
C1145 N1143 1.356 . S
N1146 C1138 1.356 . S
N1146 H1152 0.984 . S
N1146 H1153 0.984 . S
N1147 C1140 1.356 . S
N1147 H1150 0.984 . S
N1147 H1151 0.985 . S
H1148 N1143 0.984 . S
H1149 N1143 0.985 . S
H1150 N1147 0.984 . S
H1151 N1147 0.985 . S
H1152 N1146 0.984 . S
H1153 N1146 0.984 . S
H1154 N1142 0.984 . S
H1155 N1142 0.985 . S
C1156 C1157 1.363 . S
C1156 C1162 1.379 . S
C1156 N1164 1.356 . S
C1157 C1156 1.363 . S
C1157 C1163 1.363 . S
C1158 C1159 1.363 . S
C1158 C1163 1.379 . S
C1158 N1165 1.356 . S
C1159 C1158 1.363 . S
C1159 C1162 1.363 . S
N1160 C1162 1.356 . S
N1160 H1172 0.984 . S
N1160 H1173 0.985 . S
N1161 C1163 1.356 . S
N1161 H1166 0.984 . S
N1161 H1167 0.985 . S
C1162 C1156 1.379 . S
C1162 C1159 1.363 . S
C1162 N1160 1.356 . S
C1163 C1157 1.363 . S
C1163 C1158 1.379 . S
C1163 N1161 1.356 . S
N1164 C1156 1.356 . S
N1164 H1170 0.984 . S
N1164 H1171 0.984 . S
N1165 C1158 1.356 . S
N1165 H1168 0.984 . S
N1165 H1169 0.985 . S
H1166 N1161 0.984 . S
H1167 N1161 0.985 . S
H1168 N1165 0.984 . S
H1169 N1165 0.985 . S
H1170 N1164 0.984 . S
H1171 N1164 0.984 . S
H1172 N1160 0.984 . S
H1173 N1160 0.985 . S
C1174 C1175 1.363 . S
C1174 C1180 1.379 . S
C1174 N1182 1.356 . S
C1175 C1174 1.363 . S
C1175 C1181 1.363 . S
C1176 C1177 1.363 . S
C1176 C1181 1.379 . S
C1176 N1183 1.356 . S
C1177 C1176 1.363 . S
C1177 C1180 1.363 . S
N1178 C1180 1.356 . S
N1178 H1190 0.984 . S
N1178 H1191 0.985 . S
N1179 C1181 1.356 . S
N1179 H1184 0.984 . S
N1179 H1185 0.985 . S
C1180 C1174 1.379 . S
C1180 C1177 1.363 . S
C1180 N1178 1.356 . S
C1181 C1175 1.363 . S
C1181 C1176 1.379 . S
C1181 N1179 1.356 . S
N1182 C1174 1.356 . S
N1182 H1188 0.984 . S
N1182 H1189 0.984 . S
N1183 C1176 1.356 . S
N1183 H1186 0.984 . S
N1183 H1187 0.985 . S
H1184 N1179 0.984 . S
H1185 N1179 0.985 . S
H1186 N1183 0.984 . S
H1187 N1183 0.985 . S
H1188 N1182 0.984 . S
H1189 N1182 0.984 . S
H1190 N1178 0.984 . S
H1191 N1178 0.985 . S
C1192 C1193 1.363 . S
C1192 C1198 1.379 1_556 S
C1192 N1200 1.356 . S
C1193 C1192 1.363 . S
C1193 C1199 1.363 1_565 S
C1194 C1195 1.363 . S
C1194 C1199 1.379 1_554 S
C1194 N1201 1.356 . S
C1195 C1194 1.363 . S
C1195 C1198 1.363 1_545 S
N1196 C1198 1.356 . S
N1196 H1208 0.984 . S
N1196 H1209 0.985 . S
N1197 C1199 1.356 . S
N1197 H1202 0.984 . S
N1197 H1203 0.985 . S
C1198 C1192 1.379 1_554 S
C1198 C1195 1.363 1_565 S
C1198 N1196 1.356 . S
C1199 C1193 1.363 1_545 S
C1199 C1194 1.379 1_556 S
C1199 N1197 1.356 . S
N1200 C1192 1.356 . S
N1200 H1206 0.984 . S
N1200 H1207 0.984 . S
N1201 C1194 1.356 . S
N1201 H1204 0.984 . S
N1201 H1205 0.985 . S
H1202 N1197 0.984 . S
H1203 N1197 0.985 . S
H1204 N1201 0.984 . S
H1205 N1201 0.985 . S
H1206 N1200 0.984 . S
H1207 N1200 0.984 . S
H1208 N1196 0.984 . S
H1209 N1196 0.985 . S
C1210 C1211 1.363 1_655 S
C1210 C1216 1.379 1_556 S
C1210 N1218 1.356 . S
C1211 C1210 1.363 1_455 S
C1211 C1217 1.363 . S
C1212 C1213 1.363 1_455 S
C1212 C1217 1.379 1_554 S
C1212 N1219 1.356 . S
C1213 C1212 1.363 1_655 S
C1213 C1216 1.363 . S
N1214 C1216 1.356 . S
N1214 H1226 0.984 . S
N1214 H1227 0.985 . S
N1215 C1217 1.356 . S
N1215 H1220 0.984 . S
N1215 H1221 0.985 . S
C1216 C1210 1.379 1_554 S
C1216 C1213 1.363 . S
C1216 N1214 1.356 . S
C1217 C1211 1.363 . S
C1217 C1212 1.379 1_556 S
C1217 N1215 1.356 . S
N1218 C1210 1.356 . S
N1218 H1224 0.984 . S
N1218 H1225 0.984 . S
N1219 C1212 1.356 . S
N1219 H1222 0.984 . S
N1219 H1223 0.985 . S
H1220 N1215 0.984 . S
H1221 N1215 0.985 . S
H1222 N1219 0.984 . S
H1223 N1219 0.985 . S
H1224 N1218 0.984 . S
H1225 N1218 0.984 . S
H1226 N1214 0.984 . S
H1227 N1214 0.985 . S
C1228 C1229 1.363 1_545 S
C1228 C1234 1.379 1_554 S
C1228 N1236 1.356 . S
C1229 C1228 1.363 1_565 S
C1229 C1235 1.363 . S
C1230 C1231 1.363 1_565 S
C1230 C1235 1.379 1_556 S
C1230 N1237 1.356 . S
C1231 C1230 1.363 1_545 S
C1231 C1234 1.363 . S
N1232 C1234 1.356 . S
N1232 H1244 0.984 . S
N1232 H1245 0.985 . S
N1233 C1235 1.356 . S
N1233 H1238 0.984 . S
N1233 H1239 0.985 . S
C1234 C1228 1.379 1_556 S
C1234 C1231 1.363 . S
C1234 N1232 1.356 . S
C1235 C1229 1.363 . S
C1235 C1230 1.379 1_554 S
C1235 N1233 1.356 . S
N1236 C1228 1.356 . S
N1236 H1242 0.984 . S
N1236 H1243 0.984 . S
N1237 C1230 1.356 . S
N1237 H1240 0.984 . S
N1237 H1241 0.985 . S
H1238 N1233 0.984 . S
H1239 N1233 0.985 . S
H1240 N1237 0.984 . S
H1241 N1237 0.985 . S
H1242 N1236 0.984 . S
H1243 N1236 0.984 . S
H1244 N1232 0.984 . S
H1245 N1232 0.985 . S
C1246 C1247 1.363 1_455 S
C1246 C1252 1.379 1_556 S
C1246 N1254 1.356 . S
C1247 C1246 1.363 1_655 S
C1247 C1253 1.363 . S
C1248 C1249 1.363 1_655 S
C1248 C1253 1.379 1_554 S
C1248 N1255 1.356 . S
C1249 C1248 1.363 1_455 S
C1249 C1252 1.363 . S
N1250 C1252 1.356 . S
N1250 H1262 0.984 . S
N1250 H1263 0.985 . S
N1251 C1253 1.356 . S
N1251 H1256 0.984 . S
N1251 H1257 0.985 . S
C1252 C1246 1.379 1_554 S
C1252 C1249 1.363 . S
C1252 N1250 1.356 . S
C1253 C1247 1.363 . S
C1253 C1248 1.379 1_556 S
C1253 N1251 1.356 . S
N1254 C1246 1.356 . S
N1254 H1260 0.984 . S
N1254 H1261 0.984 . S
N1255 C1248 1.356 . S
N1255 H1258 0.984 . S
N1255 H1259 0.985 . S
H1256 N1251 0.984 . S
H1257 N1251 0.985 . S
H1258 N1255 0.984 . S
H1259 N1255 0.985 . S
H1260 N1254 0.984 . S
H1261 N1254 0.984 . S
H1262 N1250 0.984 . S
H1263 N1250 0.985 . S
C545 C73 0.603 . S
C547 C5 0.603 . S
C563 C107 0.603 . S
C565 C39 0.603 . S
C581 C209 0.603 . S
C583 C141 0.603 . S
C599 C175 0.603 . S
C601 C243 0.603 . S
C617 C277 0.603 1_545 S
C619 C345 0.603 1_565 S
C635 C311 0.603 1_455 S
C637 C379 0.603 1_655 S
C653 C481 0.603 1_545 S
C655 C413 0.603 1_565 S
C671 C515 0.603 1_455 S
C673 C447 0.603 1_655 S
C689 C9 1.548 . S
C691 C247 1.548 . S
C707 C145 1.548 . S
C709 C43 1.548 . S
C725 C179 1.548 . S
C727 C77 1.548 . S
C743 C213 1.548 . S
C745 C111 1.548 . S
C761 C519 1.548 . S
C763 C281 1.548 . S
C779 C417 1.548 . S
C781 C315 1.548 . S
C797 C451 1.548 . S
C799 C349 1.548 . S
C815 C485 1.548 . S
C817 C383 1.548 . S
C833 C33 1.604 . S
C835 C376 1.695 . S
C851 C67 1.604 . S
C853 C274 1.695 . S
C869 C101 1.604 . S
C871 C308 1.695 . S
C887 C342 1.695 . S
C889 C135 1.604 . S
C905 C169 1.604 . S
C907 C444 1.695 . S
C923 C203 1.604 . S
C925 C478 1.695 . S
C941 C237 1.604 . S
C943 C512 1.695 . S
C959 C271 1.604 . S
C961 C410 1.695 . S
C977 C104 1.695 . S
C979 C305 1.604 . S
C995 C2 1.695 . S
C997 C339 1.604 . S
C1013 C36 1.695 . S
C1015 C373 1.604 . S
C1031 C407 1.604 . S
C1033 C70 1.695 . S
C1049 C441 1.604 . S
C1051 C172 1.695 . S
C1067 C475 1.604 . S
C1069 C206 1.695 . S
C1085 C509 1.604 . S
C1087 C240 1.695 . S
C1103 C543 1.604 . S
C1105 C138 1.695 . S
C1121 C156 1.739 . S
C1123 C20 1.739 . S
C1139 C190 1.739 . S
C1141 C54 1.739 . S
C1157 C88 1.739 . S
C1159 C224 1.739 . S
C1175 C258 1.739 . S
C1177 C122 1.739 . S
C1193 C292 1.739 . S
C1195 C428 1.739 . S
C1211 C462 1.739 . S
C1213 C326 1.739 . S
C1229 C496 1.739 . S
C1231 C360 1.739 . S
C1247 C530 1.739 . S
C1249 C394 1.739 . S
