# Generated by pormake.
# Topology wno, (7)-cn, num edge types: 1
# Building blocks:
#     Node 0, Type 0, BuildingBlock: OLANEW_clean_sbu_3, # of connection points: 7
#     Node 1, Type 0, BuildingBlock: OLANEW_clean_sbu_3, # of connection points: 7
#     Node 2, Type 0, BuildingBlock: OLANEW_clean_sbu_3, # of connection points: 7
#     Node 3, Type 0, BuildingBlock: OLANEW_clean_sbu_3, # of connection points: 7
#     Node 4, Type 0, BuildingBlock: OLANEW_clean_sbu_3, # of connection points: 7
#     Node 5, Type 0, BuildingBlock: OLANEW_clean_sbu_3, # of connection points: 7
#     Node 6, Type 0, BuildingBlock: OLANEW_clean_sbu_3, # of connection points: 7
#     Node 7, Type 0, BuildingBlock: OLANEW_clean_sbu_3, # of connection points: 7
#     Node 8, Type 0, BuildingBlock: OLANEW_clean_sbu_3, # of connection points: 7
#     Node 9, Type 0, BuildingBlock: OLANEW_clean_sbu_3, # of connection points: 7
#     Node 10, Type 0, BuildingBlock: OLANEW_clean_sbu_3, # of connection points: 7
#     Node 11, Type 0, BuildingBlock: OLANEW_clean_sbu_3, # of connection points: 7
#     Node 12, Type 0, BuildingBlock: OLANEW_clean_sbu_3, # of connection points: 7
#     Node 13, Type 0, BuildingBlock: OLANEW_clean_sbu_3, # of connection points: 7
#     Node 14, Type 0, BuildingBlock: OLANEW_clean_sbu_3, # of connection points: 7
#     Node 15, Type 0, BuildingBlock: OLANEW_clean_sbu_3, # of connection points: 7
#     Node 16, Type 0, BuildingBlock: OLANEW_clean_sbu_3, # of connection points: 7
#     Node 17, Type 0, BuildingBlock: OLANEW_clean_sbu_3, # of connection points: 7
#     Edge 18, Type (0, 0), BuildingBlock: TEMPAE_clean_linker_10, # of connection points: 2
#     Edge 19, Type (0, 0), BuildingBlock: TEMPAE_clean_linker_10, # of connection points: 2
#     Edge 20, Type (0, 0), BuildingBlock: TEMPAE_clean_linker_10, # of connection points: 2
#     Edge 21, Type (0, 0), BuildingBlock: TEMPAE_clean_linker_10, # of connection points: 2
#     Edge 22, Type (0, 0), BuildingBlock: TEMPAE_clean_linker_10, # of connection points: 2
#     Edge 23, Type (0, 0), BuildingBlock: TEMPAE_clean_linker_10, # of connection points: 2
#     Edge 24, Type (0, 0), BuildingBlock: TEMPAE_clean_linker_10, # of connection points: 2
#     Edge 25, Type (0, 0), BuildingBlock: TEMPAE_clean_linker_10, # of connection points: 2
#     Edge 26, Type (0, 0), BuildingBlock: TEMPAE_clean_linker_10, # of connection points: 2
#     Edge 27, Type (0, 0), BuildingBlock: TEMPAE_clean_linker_10, # of connection points: 2
#     Edge 28, Type (0, 0), BuildingBlock: TEMPAE_clean_linker_10, # of connection points: 2
#     Edge 29, Type (0, 0), BuildingBlock: TEMPAE_clean_linker_10, # of connection points: 2
#     Edge 30, Type (0, 0), BuildingBlock: TEMPAE_clean_linker_10, # of connection points: 2
#     Edge 31, Type (0, 0), BuildingBlock: TEMPAE_clean_linker_10, # of connection points: 2
#     Edge 32, Type (0, 0), BuildingBlock: TEMPAE_clean_linker_10, # of connection points: 2
#     Edge 33, Type (0, 0), BuildingBlock: TEMPAE_clean_linker_10, # of connection points: 2
#     Edge 34, Type (0, 0), BuildingBlock: TEMPAE_clean_linker_10, # of connection points: 2
#     Edge 35, Type (0, 0), BuildingBlock: TEMPAE_clean_linker_10, # of connection points: 2
#     Edge 36, Type (0, 0), BuildingBlock: TEMPAE_clean_linker_10, # of connection points: 2
#     Edge 37, Type (0, 0), BuildingBlock: TEMPAE_clean_linker_10, # of connection points: 2
#     Edge 38, Type (0, 0), BuildingBlock: TEMPAE_clean_linker_10, # of connection points: 2
#     Edge 39, Type (0, 0), BuildingBlock: TEMPAE_clean_linker_10, # of connection points: 2
#     Edge 40, Type (0, 0), BuildingBlock: TEMPAE_clean_linker_10, # of connection points: 2
#     Edge 41, Type (0, 0), BuildingBlock: TEMPAE_clean_linker_10, # of connection points: 2
#     Edge 42, Type (0, 0), BuildingBlock: TEMPAE_clean_linker_10, # of connection points: 2
#     Edge 43, Type (0, 0), BuildingBlock: TEMPAE_clean_linker_10, # of connection points: 2
#     Edge 44, Type (0, 0), BuildingBlock: TEMPAE_clean_linker_10, # of connection points: 2
#     Edge 45, Type (0, 0), BuildingBlock: TEMPAE_clean_linker_10, # of connection points: 2
#     Edge 46, Type (0, 0), BuildingBlock: TEMPAE_clean_linker_10, # of connection points: 2
#     Edge 47, Type (0, 0), BuildingBlock: TEMPAE_clean_linker_10, # of connection points: 2
#     Edge 48, Type (0, 0), BuildingBlock: TEMPAE_clean_linker_10, # of connection points: 2
#     Edge 49, Type (0, 0), BuildingBlock: TEMPAE_clean_linker_10, # of connection points: 2
#     Edge 50, Type (0, 0), BuildingBlock: TEMPAE_clean_linker_10, # of connection points: 2
#     Edge 51, Type (0, 0), BuildingBlock: TEMPAE_clean_linker_10, # of connection points: 2
#     Edge 52, Type (0, 0), BuildingBlock: TEMPAE_clean_linker_10, # of connection points: 2
#     Edge 53, Type (0, 0), BuildingBlock: TEMPAE_clean_linker_10, # of connection points: 2
#     Edge 54, Type (0, 0), BuildingBlock: TEMPAE_clean_linker_10, # of connection points: 2
#     Edge 55, Type (0, 0), BuildingBlock: TEMPAE_clean_linker_10, # of connection points: 2
#     Edge 56, Type (0, 0), BuildingBlock: TEMPAE_clean_linker_10, # of connection points: 2
#     Edge 57, Type (0, 0), BuildingBlock: TEMPAE_clean_linker_10, # of connection points: 2
#     Edge 58, Type (0, 0), BuildingBlock: TEMPAE_clean_linker_10, # of connection points: 2
#     Edge 59, Type (0, 0), BuildingBlock: TEMPAE_clean_linker_10, # of connection points: 2
#     Edge 60, Type (0, 0), BuildingBlock: TEMPAE_clean_linker_10, # of connection points: 2
#     Edge 61, Type (0, 0), BuildingBlock: TEMPAE_clean_linker_10, # of connection points: 2
#     Edge 62, Type (0, 0), BuildingBlock: TEMPAE_clean_linker_10, # of connection points: 2
#     Edge 63, Type (0, 0), BuildingBlock: TEMPAE_clean_linker_10, # of connection points: 2
#     Edge 64, Type (0, 0), BuildingBlock: TEMPAE_clean_linker_10, # of connection points: 2
#     Edge 65, Type (0, 0), BuildingBlock: TEMPAE_clean_linker_10, # of connection points: 2
#     Edge 66, Type (0, 0), BuildingBlock: TEMPAE_clean_linker_10, # of connection points: 2
#     Edge 67, Type (0, 0), BuildingBlock: TEMPAE_clean_linker_10, # of connection points: 2
#     Edge 68, Type (0, 0), BuildingBlock: TEMPAE_clean_linker_10, # of connection points: 2
#     Edge 69, Type (0, 0), BuildingBlock: TEMPAE_clean_linker_10, # of connection points: 2
#     Edge 70, Type (0, 0), BuildingBlock: TEMPAE_clean_linker_10, # of connection points: 2
#     Edge 71, Type (0, 0), BuildingBlock: TEMPAE_clean_linker_10, # of connection points: 2
#     Edge 72, Type (0, 0), BuildingBlock: TEMPAE_clean_linker_10, # of connection points: 2
#     Edge 73, Type (0, 0), BuildingBlock: TEMPAE_clean_linker_10, # of connection points: 2
#     Edge 74, Type (0, 0), BuildingBlock: TEMPAE_clean_linker_10, # of connection points: 2
#     Edge 75, Type (0, 0), BuildingBlock: TEMPAE_clean_linker_10, # of connection points: 2
#     Edge 76, Type (0, 0), BuildingBlock: TEMPAE_clean_linker_10, # of connection points: 2
#     Edge 77, Type (0, 0), BuildingBlock: TEMPAE_clean_linker_10, # of connection points: 2
#     Edge 78, Type (0, 0), BuildingBlock: TEMPAE_clean_linker_10, # of connection points: 2
#     Edge 79, Type (0, 0), BuildingBlock: TEMPAE_clean_linker_10, # of connection points: 2
#     Edge 80, Type (0, 0), BuildingBlock: TEMPAE_clean_linker_10, # of connection points: 2
# Relax obj value: 0.260
# Max RMSD: 0.261
# Mean RMSD: 0.261
data_MOF--net-wno--node1-OLANEW_clean_sbu_3--edge1-TEMPAE_clean_linker_10
_symmetry_space_group_name_H-M    P1
_symmetry_Int_Tables_number       1
_symmetry_cell_setting            triclinic
loop_
_symmetry_equiv_pos_as_xyz
'x, y, z'
_cell_length_a     67.008537
_cell_length_b     66.926179
_cell_length_c     47.026473
_cell_angle_alpha  90.018268
_cell_angle_beta   89.950381
_cell_angle_gamma 119.98817
loop_
_atom_site_label
_atom_site_type_symbol
_atom_site_fract_x
_atom_site_fract_y
_atom_site_fract_z
_atom_type_partial_charge
C0 C 0.15313 0.28367 0.12656 0.0
C1 C 0.14336 0.26227 0.11286 0.0
C2 C 0.15833 0.25624 0.09884 0.0
C3 C 0.18249 0.27138 0.09888 0.0
C4 C 0.19105 0.29248 0.11303 0.0
N5 N 0.17602 0.2971 0.1259 0.0
C6 C 0.21519 0.31148 0.11556 0.0
C7 C 0.2389 0.35123 0.13556 0.0
C8 C 0.25363 0.34974 0.15552 0.0
C9 C 0.27141 0.36974 0.16783 0.0
C10 C 0.27515 0.39137 0.15939 0.0
C11 C 0.26153 0.39301 0.13811 0.0
C12 C 0.24356 0.37301 0.12609 0.0
Cd13 Cd 0.25794 0.3135 0.06591 0.0
Cd14 Cd 0.23196 0.28567 0.03042 0.0
C15 C 0.14948 0.32455 0.17865 0.0
C16 C 0.13305 0.34837 0.19256 0.0
C17 C 0.13767 0.34618 0.22101 0.0
C18 C 0.14727 0.33268 0.22877 0.0
C19 C 0.15299 0.32166 0.20752 0.0
C20 C 0.13892 0.33748 0.17124 0.0
Co21 Co 0.1877 0.32502 0.14386 0.0
N22 N 0.19531 0.31494 0.17929 0.0
N23 N 0.19899 0.35317 0.16144 0.0
C24 C 0.20631 0.35466 0.18808 0.0
C25 C 0.21292 0.37504 0.2032 0.0
C26 C 0.21102 0.39282 0.18944 0.0
C27 C 0.20243 0.38987 0.16135 0.0
C28 C 0.19612 0.36899 0.14763 0.0
N29 N 0.18144 0.33964 0.11172 0.0
N30 N 0.21745 0.33119 0.12831 0.0
N31 N 0.15643 0.31414 0.15692 0.0
O32 O 0.25871 0.30141 0.99194 0.0
O33 O 0.27426 0.33192 0.01961 0.0
C34 C 0.29859 0.34771 0.09401 0.0
O35 O 0.28338 0.35208 0.08492 0.0
O36 O 0.29482 0.32732 0.09056 0.0
C37 C 0.24781 0.2558 0.04858 0.0
O38 O 0.26087 0.27669 0.05675 0.0
O39 O 0.22741 0.2495 0.04076 0.0
C40 C 0.20484 0.33313 0.19803 0.0
O41 O 0.21143 0.33125 0.22374 0.0
O42 O 0.22511 0.31792 0.05149 0.0
O43 O 0.2001 0.29114 0.02304 0.0
C44 C 0.18627 0.36138 0.11902 0.0
O45 O 0.18452 0.37529 0.10074 0.0
C46 C 0.1771 0.33138 0.08303 0.0
C47 C 0.1948 0.3312 0.06821 0.0
C48 C 0.19018 0.31742 0.04412 0.0
C49 C 0.16862 0.30828 0.03099 0.0
C50 C 0.15114 0.31141 0.04335 0.0
C51 C 0.15525 0.32209 0.07041 0.0
C52 C 0.27301 0.32258 0.99562 0.0
O53 O 0.23332 0.30817 0.10988 0.0
C54 C 0.20642 0.30936 0.03736 0.0
C55 C 0.19609 0.29404 0.18396 0.0
C56 C 0.17647 0.27235 0.18027 0.0
C57 C 0.17773 0.25231 0.18366 0.0
C58 C 0.19834 0.25363 0.19198 0.0
C59 C 0.2178 0.27513 0.19822 0.0
C60 C 0.21643 0.29519 0.19384 0.0
C61 C 0.14183 0.29338 0.14442 0.0
O62 O 0.1197 0.28182 0.15032 0.0
H63 H 0.12494 0.25054 0.11319 0.0
H64 H 0.15123 0.23981 0.08804 0.0
H65 H 0.19391 0.26683 0.08803 0.0
H66 H 0.25094 0.33318 0.16219 0.0
H67 H 0.28882 0.40685 0.16897 0.0
H68 H 0.23283 0.37456 0.11012 0.0
H69 H 0.13294 0.35444 0.23747 0.0
H70 H 0.1598 0.31061 0.21346 0.0
H71 H 0.13532 0.33898 0.14914 0.0
H72 H 0.21895 0.37706 0.22493 0.0
H73 H 0.21589 0.40873 0.20067 0.0
H74 H 0.20061 0.4033 0.15097 0.0
H75 H 0.21183 0.33992 0.07739 0.0
H76 H 0.16562 0.29875 0.01135 0.0
H77 H 0.14158 0.32281 0.08184 0.0
H78 H 0.16 0.27072 0.17565 0.0
H79 H 0.19874 0.23775 0.1943 0.0
H80 H 0.23095 0.31178 0.19925 0.0
C81 C 0.71756 0.87352 0.13642 0.0
C82 C 0.7398 0.88611 0.12508 0.0
C83 C 0.74584 0.90695 0.11061 0.0
C84 C 0.72987 0.91485 0.10793 0.0
C85 C 0.70799 0.9014 0.11989 0.0
N86 N 0.70337 0.88194 0.13325 0.0
C87 C 0.68811 0.90523 0.11944 0.0
C88 C 0.64643 0.88679 0.13206 0.0
C89 C 0.64408 0.90249 0.14947 0.0
C90 C 0.62251 0.90061 0.15312 0.0
C91 C 0.6033 0.88352 0.1388 0.0
C92 C 0.60564 0.86822 0.12081 0.0
C93 C 0.62712 0.86982 0.11745 0.0
Cd94 Cd 0.68671 0.94291 0.06608 0.0
Cd95 Cd 0.705 0.93483 0.99221 0.0
C96 C 0.67496 0.82801 0.18602 0.0
C97 C 0.65679 0.78789 0.20083 0.0
C98 C 0.65284 0.79416 0.22776 0.0
C99 C 0.66097 0.81725 0.23471 0.0
C100 C 0.67332 0.83424 0.21417 0.0
C101 C 0.66701 0.80472 0.17951 0.0
Co102 Co 0.67441 0.86461 0.14835 0.0
N103 N 0.68111 0.88237 0.1836 0.0
N104 N 0.64531 0.84672 0.163 0.0
C105 C 0.64141 0.85246 0.18867 0.0
C106 C 0.62031 0.83789 0.20189 0.0
C107 C 0.60429 0.81769 0.18725 0.0
C108 C 0.60969 0.81234 0.16022 0.0
C109 C 0.63121 0.82765 0.14847 0.0
N110 N 0.66294 0.84365 0.11577 0.0
N111 N 0.66797 0.88716 0.13037 0.0
N112 N 0.68586 0.84545 0.16447 0.0
O113 O 0.66687 0.9282 0.99425 0.0
O114 O 0.67665 0.95753 0.02308 0.0
C115 C 0.64805 0.94223 0.09149 0.0
O116 O 0.64593 0.93056 0.06916 0.0
O117 O 0.66808 0.95374 0.10229 0.0
C118 C 0.73372 0.98595 0.03561 0.0
O119 O 0.72339 0.98061 0.05962 0.0
O120 O 0.72716 0.97115 0.01578 0.0
C121 C 0.66151 0.87321 0.20004 0.0
O122 O 0.66122 0.8813 0.22544 0.0
O123 O 0.68944 0.90974 0.04896 0.0
O124 O 0.70282 0.90137 0.01082 0.0
C125 C 0.64122 0.82588 0.12135 0.0
O126 O 0.62915 0.80991 0.10237 0.0
C127 C 0.67311 0.8479 0.08801 0.0
C128 C 0.67504 0.86644 0.07258 0.0
C129 C 0.68801 0.87367 0.04778 0.0
C130 C 0.69615 0.85999 0.03587 0.0
C131 C 0.69116 0.83896 0.04858 0.0
C132 C 0.68045 0.83346 0.07566 0.0
C133 C 0.66741 0.94691 1.00014 0.0
O134 O 0.69053 0.92599 0.11217 0.0
C135 C 0.69321 0.8957 0.0349 0.0
C136 C 0.70062 0.90492 0.18878 0.0
C137 C 0.72315 0.90884 0.18722 0.0
C138 C 0.74184 0.93118 0.18937 0.0
C139 C 0.73827 0.94966 0.19474 0.0
C140 C 0.71586 0.94582 0.19959 0.0
C141 C 0.69719 0.92335 0.19595 0.0
C142 C 0.70757 0.85258 0.15432 0.0
O143 O 0.71964 0.84307 0.16265 0.0
H144 H 0.75215 0.8803 0.12756 0.0
H145 H 0.76291 0.91703 0.10161 0.0
H146 H 0.73443 0.9307 0.09676 0.0
H147 H 0.65878 0.91602 0.16035 0.0
H148 H 0.58668 0.88224 0.14151 0.0
H149 H 0.62858 0.8578 0.10348 0.0
H150 H 0.64445 0.78098 0.24396 0.0
H151 H 0.68161 0.85219 0.22011 0.0
H152 H 0.66964 0.79995 0.1584 0.0
H153 H 0.61645 0.84168 0.2229 0.0
H154 H 0.58787 0.80605 0.197 0.0
H155 H 0.59761 0.79673 0.14918 0.0
H156 H 0.66649 0.87543 0.07995 0.0
H157 H 0.7062 0.86563 0.01646 0.0
H158 H 0.67732 0.81799 0.08677 0.0
H159 H 0.72641 0.89474 0.18475 0.0
H160 H 0.75321 0.96675 0.19603 0.0
H161 H 0.67985 0.91982 0.19971 0.0
C162 C 0.12816 0.84391 0.13019 0.0
C163 C 0.115 0.85329 0.11995 0.0
C164 C 0.09381 0.83827 0.1064 0.0
C165 C 0.08612 0.81445 0.10366 0.0
C166 C 0.10017 0.80631 0.1145 0.0
N167 N 0.12002 0.82136 0.12681 0.0
C168 C 0.09632 0.7826 0.11417 0.0
C169 C 0.11451 0.75909 0.12665 0.0
C170 C 0.09711 0.74037 0.14174 0.0
C171 C 0.0978 0.71994 0.14465 0.0
C172 C 0.11556 0.71785 0.13214 0.0
C173 C 0.13259 0.73616 0.11648 0.0
C174 C 0.13206 0.75668 0.11369 0.0
Cd175 Cd 0.05319 0.74172 0.06456 0.0
Cd176 Cd 0.05211 0.76837 0.02774 0.0
C177 C 0.17212 0.84669 0.18113 0.0
C178 C 0.21115 0.86539 0.20056 0.0
C179 C 0.20149 0.86165 0.22789 0.0
C180 C 0.1778 0.84885 0.23241 0.0
C181 C 0.16305 0.84249 0.20894 0.0
C182 C 0.19614 0.85776 0.17699 0.0
Co183 Co 0.13757 0.8099 0.1417 0.0
N184 N 0.12043 0.79963 0.17717 0.0
N185 N 0.15563 0.79889 0.15642 0.0
C186 C 0.15043 0.79012 0.18258 0.0
C187 C 0.16539 0.78426 0.19611 0.0
C188 C 0.18549 0.78832 0.18133 0.0
C189 C 0.1904 0.79838 0.1539 0.0
C190 C 0.1747 0.80393 0.14185 0.0
N191 N 0.15818 0.81885 0.10882 0.0
N192 N 0.11456 0.78054 0.12456 0.0
N193 N 0.15694 0.84071 0.15712 0.0
O194 O 0.04643 0.74423 0.98746 0.0
O195 O 0.04897 0.7215 0.01916 0.0
C196 C 0.04729 0.70197 0.09395 0.0
O197 O 0.05779 0.70818 0.07028 0.0
O198 O 0.03975 0.71445 0.10437 0.0
C199 C 0.00515 0.74998 0.04773 0.0
O200 O 0.01357 0.73766 0.05651 0.0
O201 O 0.01849 0.76986 0.03774 0.0
C202 C 0.12986 0.78975 0.19407 0.0
O203 O 0.12181 0.78165 0.21958 0.0
O204 O 0.09072 0.7761 0.05056 0.0
O205 O 0.08815 0.80197 0.02441 0.0
C206 C 0.17615 0.81523 0.11443 0.0
O207 O 0.19197 0.81895 0.09533 0.0
C208 C 0.15333 0.82392 0.08096 0.0
C209 C 0.13487 0.80666 0.06638 0.0
C210 C 0.12471 0.81205 0.04413 0.0
C211 C 0.13657 0.83418 0.03213 0.0
C212 C 0.15824 0.85091 0.04303 0.0
C213 C 0.16589 0.84596 0.06877 0.0
C214 C 0.04616 0.72567 0.99355 0.0
O215 O 0.0752 0.76426 0.10818 0.0
C216 C 0.10038 0.79555 0.03773 0.0
C217 C 0.09897 0.79841 0.18402 0.0
C218 C 0.09762 0.81848 0.18739 0.0
C219 C 0.07728 0.81709 0.19703 0.0
C220 C 0.05832 0.79576 0.20407 0.0
C221 C 0.05957 0.77543 0.20172 0.0
C222 C 0.0798 0.77702 0.19071 0.0
C223 C 0.14942 0.85509 0.14736 0.0
O224 O 0.15838 0.87648 0.15636 0.0
H225 H 0.12061 0.8714 0.12265 0.0
H226 H 0.08328 0.84505 0.09828 0.0
H227 H 0.06992 0.80293 0.09336 0.0
H228 H 0.08305 0.74147 0.15127 0.0
H229 H 0.116 0.702 0.13436 0.0
H230 H 0.14517 0.77045 0.10106 0.0
H231 H 0.21242 0.8687 0.24641 0.0
H232 H 0.14466 0.8341 0.21233 0.0
H233 H 0.20285 0.8605 0.15553 0.0
H234 H 0.16199 0.77727 0.21745 0.0
H235 H 0.19743 0.78407 0.19132 0.0
H236 H 0.20601 0.80195 0.14282 0.0
H237 H 0.12712 0.78924 0.0742 0.0
H238 H 0.12884 0.83838 0.0146 0.0
H239 H 0.18146 0.85877 0.07919 0.0
H240 H 0.11245 0.83528 0.18396 0.0
H241 H 0.04325 0.79552 0.21275 0.0
H242 H 0.0812 0.76171 0.18851 0.0
C243 C 0.84378 0.71617 0.86976 0.0
C244 C 0.85442 0.73825 0.88176 0.0
C245 C 0.84038 0.74514 0.89642 0.0
C246 C 0.8163 0.7301 0.89881 0.0
C247 C 0.80686 0.70831 0.88622 0.0
N248 N 0.82096 0.70296 0.87233 0.0
C249 C 0.78283 0.68906 0.88708 0.0
C250 C 0.7577 0.64829 0.87206 0.0
C251 C 0.74143 0.64848 0.8535 0.0
C252 C 0.72073 0.62816 0.84814 0.0
C253 C 0.71589 0.60769 0.86177 0.0
C254 C 0.73184 0.60749 0.8807 0.0
C255 C 0.75271 0.62772 0.88581 0.0
Cd256 Cd 0.74241 0.68893 0.93936 0.0
Cd257 Cd 0.76911 0.71634 0.97826 0.0
C258 C 0.84473 0.67107 0.82278 0.0
C259 C 0.86321 0.64873 0.81232 0.0
C260 C 0.8532 0.64399 0.78529 0.0
C261 C 0.84255 0.65598 0.77469 0.0
C262 C 0.83849 0.66971 0.79401 0.0
C263 C 0.85825 0.66159 0.83158 0.0
Co264 Co 0.80833 0.67357 0.85808 0.0
N265 N 0.79789 0.6802 0.82209 0.0
N266 N 0.79607 0.64397 0.84437 0.0
C267 C 0.78674 0.63996 0.81855 0.0
C268 C 0.77935 0.61839 0.80608 0.0
C269 C 0.78242 0.60201 0.82159 0.0
C270 C 0.79292 0.60751 0.84872 0.0
C271 C 0.79999 0.62948 0.85968 0.0
N272 N 0.81709 0.66191 0.89121 0.0
N273 N 0.77973 0.66859 0.87582 0.0
N274 N 0.83874 0.68359 0.8425 0.0
O275 O 0.74413 0.69872 0.01772 0.0
O276 O 0.72141 0.67453 0.98515 0.0
C277 C 0.70421 0.65232 0.91105 0.0
O278 O 0.7125 0.64891 0.93362 0.0
O279 O 0.71379 0.67282 0.90155 0.0
C280 C 0.75087 0.745 0.9548 0.0
O281 O 0.73841 0.72445 0.94542 0.0
O282 O 0.77027 0.75085 0.96585 0.0
C283 C 0.78722 0.6603 0.80614 0.0
O284 O 0.77906 0.65965 0.78053 0.0
O285 O 0.77724 0.68748 0.95289 0.0
O286 O 0.80257 0.71339 0.98203 0.0
C287 C 0.81186 0.63964 0.88662 0.0
O288 O 0.81503 0.62747 0.90618 0.0
C289 C 0.82328 0.67241 0.91869 0.0
C290 C 0.80654 0.67361 0.93446 0.0
C291 C 0.81246 0.68818 0.95796 0.0
C292 C 0.83466 0.69759 0.96942 0.0
C293 C 0.85089 0.69313 0.95628 0.0
C294 C 0.84554 0.68141 0.92999 0.0
C295 C 0.72521 0.68114 0.01096 0.0
O296 O 0.76509 0.69249 0.89445 0.0
C297 C 0.79626 0.69587 0.96636 0.0
C298 C 0.79775 0.70085 0.81349 0.0
C299 C 0.81806 0.72235 0.81321 0.0
C300 C 0.81805 0.74188 0.80277 0.0
C301 C 0.79799 0.74009 0.7914 0.0
C302 C 0.77788 0.71849 0.78969 0.0
C303 C 0.77765 0.6992 0.80166 0.0
C304 C 0.85405 0.70512 0.85255 0.0
O305 O 0.87588 0.71599 0.84511 0.0
H306 H 0.87281 0.74977 0.87987 0.0
H307 H 0.84816 0.76209 0.90603 0.0
H308 H 0.80562 0.73519 0.91045 0.0
H309 H 0.74482 0.66422 0.84301 0.0
H310 H 0.69977 0.59203 0.85775 0.0
H311 H 0.76493 0.62727 0.90041 0.0
H312 H 0.85596 0.63247 0.77188 0.0
H313 H 0.83121 0.68004 0.78694 0.0
H314 H 0.86554 0.66503 0.85278 0.0
H315 H 0.77189 0.61443 0.785 0.0
H316 H 0.77697 0.58522 0.81243 0.0
H317 H 0.79564 0.59515 0.86043 0.0
H318 H 0.78901 0.66444 0.92689 0.0
H319 H 0.83931 0.70826 0.98834 0.0
H320 H 0.85838 0.6792 0.91864 0.0
H321 H 0.83425 0.72403 0.81942 0.0
H322 H 0.79856 0.7553 0.78253 0.0
H323 H 0.76194 0.68267 0.80063 0.0
C324 C 0.28539 0.13089 0.87425 0.0
C325 C 0.26316 0.11909 0.88577 0.0
C326 C 0.25594 0.09749 0.89893 0.0
C327 C 0.27076 0.08813 0.90017 0.0
C328 C 0.29271 0.1009 0.88814 0.0
N329 N 0.29847 0.12111 0.87603 0.0
C330 C 0.31157 0.09557 0.88745 0.0
C331 C 0.35254 0.11138 0.87325 0.0
C332 C 0.35239 0.09442 0.85555 0.0
C333 C 0.37261 0.09365 0.85113 0.0
C334 C 0.39296 0.10941 0.86478 0.0
C335 C 0.39311 0.126 0.88294 0.0
C336 C 0.37298 0.12699 0.88718 0.0
Cd337 Cd 0.30913 0.05316 0.93714 0.0
Cd338 Cd 0.2746 0.0506 0.99192 0.0
C339 C 0.32887 0.17635 0.82565 0.0
C340 C 0.34689 0.21676 0.81219 0.0
C341 C 0.34707 0.21064 0.78379 0.0
C342 C 0.3368 0.18748 0.77557 0.0
C343 C 0.32749 0.17035 0.79672 0.0
C344 C 0.33821 0.19965 0.83326 0.0
Co345 Co 0.32748 0.13747 0.86074 0.0
N346 N 0.31942 0.12073 0.82463 0.0
N347 N 0.35662 0.15433 0.84582 0.0
C348 C 0.35974 0.14883 0.81962 0.0
C349 C 0.38117 0.16239 0.8066 0.0
C350 C 0.39833 0.18142 0.82198 0.0
C351 C 0.39375 0.18663 0.84956 0.0
C352 C 0.37186 0.17235 0.8611 0.0
N353 N 0.34039 0.15732 0.89415 0.0
N354 N 0.33217 0.11309 0.87674 0.0
N355 N 0.31774 0.15864 0.8468 0.0
O356 O 0.29972 0.04136 0.01808 0.0
O357 O 0.32391 0.04817 0.98256 0.0
C358 C 0.34491 0.04908 0.90958 0.0
O359 O 0.34845 0.06043 0.93249 0.0
O360 O 0.32478 0.03989 0.89906 0.0
C361 C 0.25265 0.00668 0.95191 0.0
O362 O 0.27339 0.01442 0.94366 0.0
O363 O 0.24672 0.02027 0.96284 0.0
C364 C 0.33878 0.12923 0.80784 0.0
O365 O 0.33847 0.12095 0.78238 0.0
O366 O 0.31006 0.08866 0.95229 0.0
O367 O 0.28771 0.09049 0.98521 0.0
C368 C 0.36263 0.17409 0.88886 0.0
O369 O 0.37559 0.18901 0.90839 0.0
C370 C 0.33027 0.15289 0.92193 0.0
C371 C 0.3274 0.13364 0.93632 0.0
C372 C 0.31214 0.12464 0.95905 0.0
C373 C 0.30333 0.13785 0.97106 0.0
C374 C 0.30958 0.1599 0.96003 0.0
C375 C 0.32235 0.1668 0.93426 0.0
C376 C 0.31823 0.04312 0.00849 0.0
O377 O 0.30771 0.07401 0.89318 0.0
C378 C 0.30356 0.10038 0.96696 0.0
C379 C 0.29843 0.09978 0.81783 0.0
C380 C 0.27721 0.0991 0.81814 0.0
C381 C 0.25697 0.07876 0.81154 0.0
C382 C 0.25777 0.05913 0.80337 0.0
C383 C 0.27905 0.05986 0.8008 0.0
C384 C 0.29921 0.08016 0.80874 0.0
C385 C 0.29642 0.15247 0.8576 0.0
O386 O 0.28541 0.16341 0.85064 0.0
H387 H 0.25171 0.12607 0.88441 0.0
H388 H 0.23886 0.088 0.90806 0.0
H389 H 0.26533 0.07171 0.9104 0.0
H390 H 0.33675 0.08189 0.84514 0.0
H391 H 0.40855 0.10867 0.86144 0.0
H392 H 0.37337 0.1398 0.9015 0.0
H393 H 0.35417 0.22413 0.76779 0.0
H394 H 0.31806 0.1524 0.79056 0.0
H395 H 0.33761 0.20423 0.85523 0.0
H396 H 0.38448 0.15868 0.78528 0.0
H397 H 0.41506 0.19224 0.81243 0.0
H398 H 0.40677 0.20132 0.86122 0.0
H399 H 0.33585 0.12468 0.92832 0.0
H400 H 0.29134 0.13073 0.98863 0.0
H401 H 0.32636 0.18276 0.92379 0.0
H402 H 0.27623 0.11438 0.82248 0.0
H403 H 0.24177 0.04366 0.79822 0.0
H404 H 0.31573 0.08115 0.80654 0.0
C405 C 0.86989 0.15325 0.86918 0.0
C406 C 0.8826 0.14316 0.87871 0.0
C407 C 0.90359 0.15736 0.89311 0.0
C408 C 0.91153 0.18111 0.89743 0.0
C409 C 0.89792 0.19 0.8873 0.0
N410 N 0.87822 0.17569 0.8741 0.0
C411 C 0.90228 0.21388 0.88897 0.0
C412 C 0.88549 0.23872 0.87707 0.0
C413 C 0.90404 0.2577 0.8637 0.0
C414 C 0.90428 0.27863 0.86124 0.0
C415 C 0.88636 0.281 0.87268 0.0
C416 C 0.86825 0.26247 0.88684 0.0
C417 C 0.86783 0.24145 0.8891 0.0
Cd418 Cd 0.94415 0.25428 0.94052 0.0
Cd419 Cd 0.942 0.22868 0.9808 0.0
C420 C 0.82319 0.15201 0.82366 0.0
C421 C 0.78252 0.13578 0.81351 0.0
C422 C 0.78786 0.14231 0.78506 0.0
C423 C 0.81043 0.15151 0.7748 0.0
C424 C 0.82817 0.15646 0.79448 0.0
C425 C 0.80023 0.14076 0.83293 0.0
Co426 Co 0.8611 0.18809 0.86035 0.0
N427 N 0.87817 0.19892 0.82482 0.0
N428 N 0.84338 0.19996 0.84673 0.0
C429 C 0.84815 0.20854 0.82045 0.0
C430 C 0.83288 0.2141 0.80717 0.0
C431 C 0.8128 0.20977 0.82219 0.0
C432 C 0.8082 0.19971 0.84958 0.0
C433 C 0.82423 0.19452 0.86141 0.0
N434 N 0.84042 0.17846 0.89323 0.0
N435 N 0.88453 0.2168 0.8786 0.0
N436 N 0.84139 0.15788 0.84375 0.0
O437 O 0.94337 0.25131 0.02003 0.0
O438 O 0.94683 0.27498 0.9855 0.0
C439 C 0.94783 0.29334 0.91111 0.0
O440 O 0.93463 0.28442 0.93242 0.0
O441 O 0.95941 0.28397 0.90321 0.0
C442 C 0.99089 0.24631 0.964 0.0
O443 O 0.98409 0.25809 0.94966 0.0
O444 O 0.97625 0.22854 0.97731 0.0
C445 C 0.86841 0.20869 0.80832 0.0
O446 O 0.87664 0.21763 0.78317 0.0
O447 O 0.90703 0.21868 0.95301 0.0
O448 O 0.90746 0.19374 0.98319 0.0
C449 C 0.82266 0.18251 0.88826 0.0
O450 O 0.80671 0.17824 0.90742 0.0
C451 C 0.84493 0.17245 0.92068 0.0
C452 C 0.86322 0.1892 0.93595 0.0
C453 C 0.87255 0.18321 0.95859 0.0
C454 C 0.86019 0.16092 0.97001 0.0
C455 C 0.83904 0.14468 0.95778 0.0
C456 C 0.83192 0.15018 0.93213 0.0
C457 C 0.94615 0.27052 0.01188 0.0
O458 O 0.92347 0.23171 0.89607 0.0
C459 C 0.89642 0.19962 0.96664 0.0
C460 C 0.90057 0.20214 0.81861 0.0
C461 C 0.90399 0.18327 0.8156 0.0
C462 C 0.92546 0.18667 0.80726 0.0
C463 C 0.94349 0.20883 0.80114 0.0
C464 C 0.94013 0.22797 0.80297 0.0
C465 C 0.91874 0.22435 0.81253 0.0
C466 C 0.84873 0.14298 0.85181 0.0
O467 O 0.83881 0.12159 0.84259 0.0
H468 H 0.87677 0.12512 0.87488 0.0
H469 H 0.9138 0.15003 0.90068 0.0
H470 H 0.92762 0.192 0.90833 0.0
H471 H 0.91837 0.25649 0.85529 0.0
H472 H 0.88666 0.29725 0.87087 0.0
H473 H 0.85394 0.22753 0.90069 0.0
H474 H 0.77388 0.13861 0.77053 0.0
H475 H 0.84573 0.16324 0.78726 0.0
H476 H 0.79621 0.13558 0.85498 0.0
H477 H 0.83593 0.22087 0.78572 0.0
H478 H 0.80056 0.21366 0.81233 0.0
H479 H 0.79248 0.19566 0.86071 0.0
H480 H 0.87125 0.20682 0.92873 0.0
H481 H 0.86677 0.15631 0.98841 0.0
H482 H 0.81666 0.13733 0.92114 0.0
H483 H 0.88996 0.16588 0.81843 0.0
H484 H 0.95955 0.21065 0.79352 0.0
H485 H 0.9157 0.2387 0.81408 0.0
C486 C 0.81715 0.61878 0.45938 0.0
C487 C 0.80645 0.59744 0.44548 0.0
C488 C 0.82058 0.59075 0.43066 0.0
C489 C 0.84483 0.60523 0.43008 0.0
C490 C 0.85431 0.6263 0.44449 0.0
N491 N 0.84009 0.63151 0.45829 0.0
C492 C 0.87869 0.6446 0.44653 0.0
C493 C 0.90454 0.68385 0.46594 0.0
C494 C 0.92065 0.68083 0.48167 0.0
C495 C 0.94208 0.69978 0.48842 0.0
C496 C 0.94781 0.7218 0.47904 0.0
C497 C 0.93212 0.72487 0.46279 0.0
C498 C 0.91056 0.70598 0.45625 0.0
Cd499 Cd 0.92211 0.64627 0.39849 0.0
Cd500 Cd 0.89733 0.62213 0.35987 0.0
C501 C 0.81628 0.65904 0.5139 0.0
C502 C 0.80394 0.68454 0.53475 0.0
C503 C 0.80799 0.67848 0.56178 0.0
C504 C 0.81566 0.66278 0.56515 0.0
C505 C 0.81882 0.65225 0.5413 0.0
C506 C 0.80835 0.67486 0.51058 0.0
Co507 Co 0.853 0.65969 0.47596 0.0
N508 N 0.86066 0.64953 0.51136 0.0
N509 N 0.86541 0.68814 0.49315 0.0
C510 C 0.87215 0.68939 0.52003 0.0
C511 C 0.87861 0.70969 0.53529 0.0
C512 C 0.87716 0.72767 0.52142 0.0
C513 C 0.86899 0.72494 0.49315 0.0
C514 C 0.86273 0.7041 0.47935 0.0
N515 N 0.84694 0.67444 0.44392 0.0
N516 N 0.88217 0.66459 0.45978 0.0
N517 N 0.822 0.64989 0.4896 0.0
O518 O 0.92323 0.63832 0.32111 0.0
O519 O 0.9435 0.66351 0.35405 0.0
C520 C 0.96039 0.68115 0.42934 0.0
O521 O 0.95213 0.68564 0.4076 0.0
O522 O 0.95068 0.66017 0.43715 0.0
C523 C 0.9116 0.58991 0.3773 0.0
O524 O 0.92508 0.60975 0.38821 0.0
O525 O 0.89219 0.58565 0.36776 0.0
C526 C 0.86999 0.66766 0.53023 0.0
O527 O 0.87551 0.66545 0.55641 0.0
O528 O 0.89014 0.65258 0.3837 0.0
O529 O 0.86572 0.62757 0.35304 0.0
C530 C 0.85251 0.69644 0.45095 0.0
O531 O 0.85101 0.71044 0.4326 0.0
C532 C 0.84242 0.66611 0.41532 0.0
C533 C 0.86027 0.66662 0.40005 0.0
C534 C 0.85573 0.65314 0.37576 0.0
C535 C 0.83406 0.64381 0.36283 0.0
C536 C 0.81611 0.64574 0.37601 0.0
C537 C 0.82029 0.65601 0.40336 0.0
C538 C 0.94102 0.65689 0.3283 0.0
O539 O 0.89604 0.64023 0.44054 0.0
C540 C 0.87191 0.64507 0.36872 0.0
C541 C 0.86276 0.62929 0.51549 0.0
C542 C 0.84411 0.60717 0.51063 0.0
C543 C 0.84672 0.58787 0.51349 0.0
C544 C 0.86763 0.5903 0.52261 0.0
C545 C 0.88605 0.61214 0.53023 0.0
C546 C 0.88346 0.63153 0.52594 0.0
C547 C 0.80676 0.62911 0.47763 0.0
O548 O 0.78487 0.61783 0.48481 0.0
H549 H 0.78794 0.58626 0.44618 0.0
H550 H 0.81277 0.57435 0.41968 0.0
H551 H 0.85563 0.60021 0.41857 0.0
H552 H 0.91672 0.6639 0.48864 0.0
H553 H 0.96448 0.73642 0.48412 0.0
H554 H 0.8988 0.70866 0.44331 0.0
H555 H 0.80453 0.68549 0.58074 0.0
H556 H 0.82405 0.63946 0.54401 0.0
H557 H 0.80573 0.67954 0.48944 0.0
H558 H 0.88412 0.71145 0.55722 0.0
H559 H 0.8819 0.74351 0.53274 0.0
H560 H 0.86726 0.73842 0.48276 0.0
H561 H 0.87736 0.67547 0.40909 0.0
H562 H 0.83142 0.63488 0.34282 0.0
H563 H 0.80653 0.65587 0.4156 0.0
H564 H 0.82737 0.60461 0.50535 0.0
H565 H 0.86901 0.57492 0.52439 0.0
H566 H 0.89728 0.64847 0.53164 0.0
C567 C 0.38537 0.20878 0.466 0.0
C568 C 0.40754 0.22245 0.45487 0.0
C569 C 0.41238 0.24285 0.44016 0.0
C570 C 0.39532 0.24928 0.43707 0.0
C571 C 0.37357 0.23481 0.44884 0.0
N572 N 0.37008 0.2158 0.4624 0.0
C573 C 0.35289 0.23733 0.44827 0.0
C574 C 0.3118 0.21795 0.46434 0.0
C575 C 0.31066 0.2342 0.48207 0.0
C576 C 0.28939 0.23028 0.49221 0.0
C577 C 0.2691 0.21064 0.48368 0.0
C578 C 0.27002 0.19525 0.46442 0.0
C579 C 0.29129 0.19899 0.45459 0.0
Cd580 Cd 0.35151 0.27677 0.39557 0.0
Cd581 Cd 0.37837 0.27729 0.35647 0.0
C582 C 0.34445 0.16278 0.51602 0.0
C583 C 0.32385 0.12281 0.53104 0.0
C584 C 0.32323 0.12984 0.55889 0.0
C585 C 0.33387 0.15328 0.56589 0.0
C586 C 0.34528 0.16973 0.54443 0.0
C587 C 0.33404 0.13926 0.50943 0.0
Co588 Co 0.34141 0.19729 0.47777 0.0
N589 N 0.34745 0.21498 0.51289 0.0
N590 N 0.31265 0.17814 0.49295 0.0
C591 C 0.30869 0.18341 0.51888 0.0
C592 C 0.28828 0.1678 0.53277 0.0
C593 C 0.27306 0.14702 0.5186 0.0
C594 C 0.27858 0.14211 0.4914 0.0
C595 C 0.29938 0.15849 0.47897 0.0
N596 N 0.33054 0.17584 0.44559 0.0
N597 N 0.33331 0.21871 0.45963 0.0
N598 N 0.35447 0.17968 0.49388 0.0
O599 O 0.35973 0.28293 0.31701 0.0
O600 O 0.33482 0.27973 0.34966 0.0
C601 C 0.31697 0.28202 0.42431 0.0
O602 O 0.31186 0.26388 0.41023 0.0
O603 O 0.33808 0.29752 0.42526 0.0
C604 C 0.40834 0.3243 0.37835 0.0
O605 O 0.38811 0.31635 0.38883 0.0
O606 O 0.41351 0.31064 0.36608 0.0
C607 C 0.32819 0.20478 0.5299 0.0
O608 O 0.32774 0.21266 0.55539 0.0
O609 O 0.35059 0.24019 0.38284 0.0
O610 O 0.37616 0.24133 0.35258 0.0
C611 C 0.30947 0.15722 0.45171 0.0
O612 O 0.29791 0.14072 0.43312 0.0
C613 C 0.33999 0.18034 0.41749 0.0
C614 C 0.33937 0.19751 0.4019 0.0
C615 C 0.35263 0.20623 0.3774 0.0
C616 C 0.36203 0.19382 0.3647 0.0
C617 C 0.35927 0.17366 0.37778 0.0
C618 C 0.34936 0.1677 0.4052 0.0
C619 C 0.34126 0.28255 0.32378 0.0
O620 O 0.35436 0.25778 0.44122 0.0
C621 C 0.35921 0.22988 0.36898 0.0
C622 C 0.36693 0.23714 0.51956 0.0
C623 C 0.38914 0.24021 0.52147 0.0
C624 C 0.40755 0.26138 0.53009 0.0
C625 C 0.40389 0.27946 0.53767 0.0
C626 C 0.38152 0.27637 0.53725 0.0
C627 C 0.36333 0.2553 0.52753 0.0
C628 C 0.37643 0.18797 0.48399 0.0
O629 O 0.38951 0.17972 0.49277 0.0
H630 H 0.4207 0.21775 0.45767 0.0
H631 H 0.42938 0.25374 0.43131 0.0
H632 H 0.39899 0.26485 0.42578 0.0
H633 H 0.32615 0.24949 0.48871 0.0
H634 H 0.25267 0.20745 0.49176 0.0
H635 H 0.29175 0.18669 0.44011 0.0
H636 H 0.31545 0.11693 0.57549 0.0
H637 H 0.35451 0.18788 0.54972 0.0
H638 H 0.33443 0.13389 0.48779 0.0
H639 H 0.28445 0.17123 0.55397 0.0
H640 H 0.25721 0.13457 0.52888 0.0
H641 H 0.2672 0.126 0.48079 0.0
H642 H 0.32968 0.20514 0.41001 0.0
H643 H 0.37159 0.19986 0.34497 0.0
H644 H 0.34839 0.15313 0.4165 0.0
H645 H 0.3922 0.2261 0.51778 0.0
H646 H 0.4184 0.29534 0.5453 0.0
H647 H 0.34605 0.25258 0.52734 0.0
C648 C 0.79509 0.17898 0.45929 0.0
C649 C 0.78312 0.18843 0.4457 0.0
C650 C 0.76266 0.17327 0.43088 0.0
C651 C 0.75453 0.14926 0.43005 0.0
C652 C 0.7674 0.14107 0.44413 0.0
N653 N 0.78645 0.1562 0.45786 0.0
C654 C 0.76293 0.11718 0.44614 0.0
C655 C 0.77829 0.09334 0.46706 0.0
C656 C 0.75911 0.07689 0.4825 0.0
C657 C 0.75884 0.05743 0.49367 0.0
C658 C 0.77744 0.05393 0.48894 0.0
C659 C 0.79593 0.06946 0.47215 0.0
C660 C 0.79625 0.08897 0.46101 0.0
Cd661 Cd 0.72316 0.07447 0.3968 0.0
Cd662 Cd 0.72185 0.10155 0.36145 0.0
C663 C 0.83716 0.18273 0.51419 0.0
C664 C 0.8755 0.19799 0.53497 0.0
C665 C 0.86522 0.19354 0.56204 0.0
C666 C 0.84146 0.1831 0.56548 0.0
C667 C 0.82755 0.17913 0.54162 0.0
C668 C 0.86107 0.19207 0.5109 0.0
Co669 Co 0.8032 0.14496 0.4756 0.0
N670 N 0.78525 0.1361 0.51083 0.0
N671 N 0.82084 0.1344 0.49292 0.0
C672 C 0.81556 0.12742 0.51977 0.0
C673 C 0.83044 0.12253 0.53522 0.0
C674 C 0.85069 0.1258 0.52161 0.0
C675 C 0.85585 0.1342 0.4934 0.0
C676 C 0.84018 0.13883 0.47939 0.0
N677 N 0.82453 0.15258 0.4437 0.0
N678 N 0.78033 0.11504 0.45921 0.0
N679 N 0.82246 0.17625 0.48967 0.0
O680 O 0.70968 0.077 0.32102 0.0
O681 O 0.71337 0.05385 0.35083 0.0
C682 C 0.72175 0.03538 0.42386 0.0
O683 O 0.73804 0.0483 0.40715 0.0
O684 O 0.70635 0.04079 0.42833 0.0
C685 C 0.67652 0.08604 0.38409 0.0
O686 O 0.68372 0.07226 0.39131 0.0
O687 O 0.69097 0.10619 0.37572 0.0
C688 C 0.79501 0.1278 0.52977 0.0
O689 O 0.78733 0.12187 0.55594 0.0
O690 O 0.76051 0.10828 0.38159 0.0
O691 O 0.75845 0.13375 0.35414 0.0
C692 C 0.84214 0.14886 0.45099 0.0
O693 O 0.85845 0.152 0.43293 0.0
C694 C 0.82075 0.15725 0.41514 0.0
C695 C 0.80352 0.13944 0.39962 0.0
C696 C 0.79448 0.14409 0.37541 0.0
C697 C 0.80645 0.16618 0.36316 0.0
C698 C 0.82648 0.18358 0.37632 0.0
C699 C 0.83299 0.17939 0.40318 0.0
C700 C 0.70831 0.05781 0.32619 0.0
O701 O 0.74162 0.09895 0.44041 0.0
C702 C 0.77046 0.12736 0.36799 0.0
C703 C 0.76222 0.1321 0.5147 0.0
C704 C 0.75684 0.14952 0.50989 0.0
C705 C 0.73421 0.14492 0.51282 0.0
C706 C 0.71695 0.12325 0.52195 0.0
C707 C 0.7224 0.10616 0.52938 0.0
C708 C 0.74496 0.11068 0.52495 0.0
C709 C 0.81556 0.19049 0.4778 0.0
O710 O 0.82459 0.21221 0.48541 0.0
H711 H 0.78915 0.20673 0.4467 0.0
H712 H 0.75306 0.18009 0.42018 0.0
H713 H 0.73894 0.13767 0.41865 0.0
H714 H 0.7446 0.0793 0.48649 0.0
H715 H 0.7773 0.03898 0.49784 0.0
H716 H 0.81061 0.10072 0.44792 0.0
H717 H 0.87557 0.1983 0.58117 0.0
H718 H 0.80923 0.17227 0.54433 0.0
H719 H 0.86815 0.19454 0.48966 0.0
H720 H 0.82689 0.1169 0.55714 0.0
H721 H 0.8626 0.12231 0.53309 0.0
H722 H 0.87165 0.13736 0.48322 0.0
H723 H 0.79557 0.12222 0.40833 0.0
H724 H 0.80008 0.16995 0.34391 0.0
H725 H 0.84726 0.19315 0.41466 0.0
H726 H 0.77005 0.1668 0.50471 0.0
H727 H 0.6996 0.12028 0.52421 0.0
H728 H 0.74951 0.09784 0.53068 0.0
C729 C 0.51244 0.0516 0.20538 0.0
C730 C 0.52163 0.07399 0.21615 0.0
C731 C 0.50654 0.07973 0.2304 0.0
C732 C 0.48283 0.06332 0.2334 0.0
C733 C 0.47486 0.0413 0.22203 0.0
N734 N 0.48995 0.03697 0.20883 0.0
C735 C 0.45135 0.02111 0.22274 0.0
C736 C 0.42839 0.97997 0.20741 0.0
C737 C 0.41112 0.97977 0.19032 0.0
C738 C 0.39266 0.95885 0.18099 0.0
C739 C 0.39092 0.93804 0.18949 0.0
C740 C 0.40718 0.9381 0.20806 0.0
C741 C 0.42575 0.959 0.2172 0.0
Cd742 Cd 0.40931 0.01954 0.2731 0.0
Cd743 Cd 0.43573 0.04882 0.31001 0.0
C744 C 0.51572 0.00952 0.15579 0.0
C745 C 0.53377 0.98794 0.13938 0.0
C746 C 0.52823 0.99017 0.11135 0.0
C747 C 0.51708 0.00255 0.1051 0.0
C748 C 0.51103 0.01246 0.1274 0.0
C749 C 0.52741 0.99749 0.1617 0.0
Co750 Co 0.47902 0.00785 0.19449 0.0
N751 N 0.46788 0.01363 0.15878 0.0
N752 N 0.4687 0.97861 0.18044 0.0
C753 C 0.45978 0.97439 0.15437 0.0
C754 C 0.45442 0.95349 0.14135 0.0
C755 C 0.45918 0.93808 0.15649 0.0
C756 C 0.46941 0.94391 0.18376 0.0
C757 C 0.47441 0.96519 0.1953 0.0
N758 N 0.48897 0.99718 0.22752 0.0
N759 N 0.44968 0.00099 0.21215 0.0
N760 N 0.5096 0.01972 0.17855 0.0
O761 O 0.41115 0.03044 0.34994 0.0
O762 O 0.38951 0.00377 0.31891 0.0
C763 C 0.37071 0.98435 0.24325 0.0
O764 O 0.38248 0.97942 0.26004 0.0
O765 O 0.3771 0.00556 0.24013 0.0
C766 C 0.41591 0.07559 0.28788 0.0
O767 O 0.40396 0.05453 0.28005 0.0
O768 O 0.43608 0.08303 0.29739 0.0
C769 C 0.4586 0.99401 0.14237 0.0
O770 O 0.44987 0.993 0.11702 0.0
O771 O 0.44528 0.01973 0.287 0.0
O772 O 0.47013 0.04781 0.31435 0.0
C773 C 0.48575 0.97565 0.22244 0.0
O774 O 0.49008 0.96414 0.24178 0.0
C775 C 0.49419 0.00745 0.25521 0.0
C776 C 0.47672 0.00782 0.27025 0.0
C777 C 0.48172 0.02293 0.29295 0.0
C778 C 0.50391 0.03363 0.3048 0.0
C779 C 0.52106 0.02953 0.2933 0.0
C780 C 0.51633 0.01734 0.2672 0.0
C781 C 0.39322 0.01145 0.34425 0.0
O782 O 0.43276 0.02348 0.2289 0.0
C783 C 0.46456 0.02973 0.3001 0.0
C784 C 0.46519 0.03303 0.15147 0.0
C785 C 0.48422 0.05538 0.15 0.0
C786 C 0.48151 0.07369 0.14068 0.0
C787 C 0.45997 0.06979 0.13187 0.0
C788 C 0.4409 0.04729 0.13174 0.0
C789 C 0.44362 0.02924 0.14239 0.0
C790 C 0.52377 0.04178 0.18792 0.0
O791 O 0.54511 0.05428 0.17892 0.0
H792 H 0.53967 0.08664 0.21345 0.0
H793 H 0.51318 0.0969 0.23898 0.0
H794 H 0.4713 0.06766 0.24438 0.0
H795 H 0.41219 0.99568 0.18361 0.0
H796 H 0.3768 0.92185 0.18208 0.0
H797 H 0.43831 0.95877 0.23137 0.0
H798 H 0.53344 0.98293 0.09416 0.0
H799 H 0.5032 0.02282 0.12263 0.0
H800 H 0.53199 0.99613 0.18342 0.0
H801 H 0.44729 0.94939 0.1201 0.0
H802 H 0.45533 0.92184 0.14689 0.0
H803 H 0.47354 0.93238 0.19511 0.0
H804 H 0.45931 0.99769 0.26252 0.0
H805 H 0.50779 0.04518 0.3227 0.0
H806 H 0.52935 0.01508 0.25645 0.0
H807 H 0.50132 0.05864 0.15457 0.0
H808 H 0.45862 0.08419 0.12371 0.0
H809 H 0.42908 0.0119 0.14238 0.0
C810 C 0.94558 0.45765 0.20635 0.0
C811 C 0.92362 0.4446 0.21829 0.0
C812 C 0.91811 0.42348 0.23169 0.0
C813 C 0.93435 0.41583 0.23282 0.0
C814 C 0.95591 0.42972 0.22029 0.0
N815 N 0.95999 0.44938 0.20793 0.0
C816 C 0.97613 0.42638 0.21965 0.0
C817 C 0.01752 0.44574 0.20503 0.0
C818 C 0.02166 0.43542 0.18155 0.0
C819 C 0.04382 0.43923 0.17625 0.0
C820 C 0.06184 0.45281 0.19479 0.0
C821 C 0.05778 0.46288 0.21845 0.0
C822 C 0.03574 0.45947 0.22351 0.0
Cd823 Cd 0.97833 0.38865 0.27331 0.0
Cd824 Cd 0.95651 0.39392 0.34544 0.0
C825 C 0.98747 0.50512 0.15838 0.0
C826 C 0.00823 0.54593 0.14705 0.0
C827 C 0.00913 0.54056 0.11846 0.0
C828 C 0.99897 0.51759 0.10924 0.0
C829 C 0.98753 0.49993 0.12943 0.0
C830 C 0.99746 0.52818 0.16709 0.0
Co831 Co 0.98863 0.46742 0.19233 0.0
N832 N 0.98117 0.45082 0.15631 0.0
N833 N 0.0174 0.48572 0.17698 0.0
C834 C 0.02082 0.4805 0.15077 0.0
C835 C 0.04206 0.49481 0.13768 0.0
C836 C 0.05874 0.51413 0.15312 0.0
C837 C 0.05391 0.51883 0.18086 0.0
C838 C 0.03223 0.5038 0.19244 0.0
N839 N 0.00079 0.48742 0.22556 0.0
N840 N 0.99575 0.4447 0.20814 0.0
N841 N 0.97678 0.48688 0.17887 0.0
O842 O 0.99469 0.40097 0.34709 0.0
O843 O 0.98777 0.37342 0.31638 0.0
C844 C 0.01716 0.38916 0.2479 0.0
O845 O 0.01906 0.3996 0.27125 0.0
O846 O 0.99745 0.37905 0.23611 0.0
C847 C 0.93044 0.34345 0.30176 0.0
O848 O 0.94195 0.35036 0.27862 0.0
O849 O 0.9351 0.35701 0.32273 0.0
C850 C 0.00034 0.46022 0.13915 0.0
O851 O -5e-05 0.45275 0.11317 0.0
O852 O 0.97561 0.42176 0.29159 0.0
O853 O 0.96001 0.42847 0.32885 0.0
C854 C 0.02279 0.50479 0.22034 0.0
O855 O 0.0353 0.52002 0.23984 0.0
C856 C 0.99058 0.48302 0.25325 0.0
C857 C 0.98908 0.46468 0.26854 0.0
C858 C 0.97713 0.45788 0.29405 0.0
C859 C 0.96973 0.47195 0.30681 0.0
C860 C 0.97244 0.49182 0.29282 0.0
C861 C 0.98247 0.49689 0.26531 0.0
C862 C 0.99546 0.38308 0.34028 0.0
O863 O 0.9745 0.40596 0.22704 0.0
C864 C 0.97141 0.43537 0.30602 0.0
C865 C 0.95987 0.43085 0.14815 0.0
C866 C 0.93964 0.43201 0.1455 0.0
C867 C 0.91958 0.41328 0.13485 0.0
C868 C 0.91968 0.39348 0.12585 0.0
C869 C 0.94006 0.39243 0.12715 0.0
C870 C 0.95987 0.41088 0.13906 0.0
C871 C 0.9553 0.4794 0.19001 0.0
O872 O 0.94313 0.48924 0.18359 0.0
H873 H 0.91114 0.45034 0.21721 0.0
H874 H 0.90128 0.41308 0.24119 0.0
H875 H 0.93024 0.39984 0.24335 0.0
H876 H 0.00797 0.42495 0.16695 0.0
H877 H 0.07892 0.45555 0.19078 0.0
H878 H 0.03314 0.46799 0.24145 0.0
H879 H 0.01683 0.5545 0.10312 0.0
H880 H 0.97868 0.48212 0.12274 0.0
H881 H 0.99667 0.53221 0.18924 0.0
H882 H 0.04559 0.4914 0.11631 0.0
H883 H 0.07531 0.52554 0.14353 0.0
H884 H 0.06659 0.53368 0.1926 0.0
H885 H 0.99696 0.45531 0.26028 0.0
H886 H 0.96206 0.46736 0.32774 0.0
H887 H 0.98387 0.51128 0.25317 0.0
H888 H 0.93949 0.44767 0.15012 0.0
H889 H 0.9041 0.37938 0.11693 0.0
H890 H 0.97573 0.41034 0.13946 0.0
C891 C 0.53812 0.48678 0.20789 0.0
C892 C 0.54976 0.47643 0.22008 0.0
C893 C 0.57085 0.49083 0.2342 0.0
C894 C 0.57988 0.51498 0.23573 0.0
C895 C 0.5673 0.52408 0.22298 0.0
N896 N 0.54762 0.50964 0.20989 0.0
C897 C 0.5724 0.54821 0.22221 0.0
C898 C 0.55712 0.57341 0.20619 0.0
C899 C 0.57532 0.5904 0.19001 0.0
C900 C 0.57657 0.61154 0.18473 0.0
C901 C 0.55996 0.61606 0.19602 0.0
C902 C 0.54214 0.59949 0.21276 0.0
C903 C 0.54073 0.57824 0.21786 0.0
Cd904 Cd 0.61183 0.58926 0.27238 0.0
Cd905 Cd 0.61479 0.55695 0.33124 0.0
C906 C 0.4948 0.48554 0.15667 0.0
C907 C 0.45549 0.47031 0.13967 0.0
C908 C 0.46413 0.47622 0.11184 0.0
C909 C 0.48765 0.4863 0.10614 0.0
C910 C 0.50282 0.48977 0.12848 0.0
C911 C 0.47113 0.47555 0.16223 0.0
Co912 Co 0.5313 0.52216 0.19412 0.0
N913 N 0.54849 0.53122 0.15825 0.0
N914 N 0.51422 0.53413 0.17878 0.0
C915 C 0.51924 0.54182 0.15214 0.0
C916 C 0.50465 0.54793 0.13811 0.0
C917 C 0.48506 0.54522 0.15292 0.0
C918 C 0.48024 0.53621 0.18087 0.0
C919 C 0.49554 0.53034 0.19341 0.0
N920 N 0.5109 0.51469 0.22706 0.0
N921 N 0.55513 0.55127 0.21065 0.0
N922 N 0.5108 0.49132 0.17966 0.0
O923 O 0.62141 0.5922 0.35344 0.0
O924 O 0.61249 0.60786 0.31753 0.0
C925 C 0.61505 0.62752 0.24172 0.0
O926 O 0.60015 0.61753 0.26122 0.0
O927 O 0.6283 0.61951 0.23634 0.0
C928 C 0.65754 0.58031 0.28935 0.0
O929 O 0.6509 0.5943 0.28168 0.0
O930 O 0.6428 0.56007 0.29711 0.0
C931 C 0.53914 0.54084 0.14071 0.0
O932 O 0.54653 0.54743 0.11459 0.0
O933 O 0.57791 0.55383 0.28802 0.0
O934 O 0.57504 0.53042 0.32258 0.0
C935 C 0.49375 0.51948 0.22123 0.0
O936 O 0.47816 0.51672 0.24023 0.0
C937 C 0.515 0.50903 0.255 0.0
C938 C 0.53366 0.52566 0.26998 0.0
C939 C 0.54204 0.51973 0.29364 0.0
C940 C 0.52869 0.4978 0.30578 0.0
C941 C 0.5073 0.48169 0.2937 0.0
C942 C 0.50108 0.48715 0.26722 0.0
C943 C 0.61756 0.60758 0.34352 0.0
O944 O 0.59374 0.56594 0.2285 0.0
C945 C 0.56583 0.53576 0.30275 0.0
C946 C 0.5707 0.5335 0.15266 0.0
C947 C 0.57412 0.51461 0.15533 0.0
C948 C 0.59593 0.5173 0.15112 0.0
C949 C 0.61432 0.5386 0.14281 0.0
C950 C 0.61087 0.55735 0.13734 0.0
C951 C 0.58903 0.55463 0.14298 0.0
C952 C 0.51706 0.47623 0.19034 0.0
O953 O 0.50679 0.45447 0.1825 0.0
H954 H 0.54302 0.45802 0.21854 0.0
H955 H 0.58021 0.4833 0.24386 0.0
H956 H 0.59591 0.52598 0.24667 0.0
H957 H 0.58852 0.58735 0.18151 0.0
H958 H 0.56103 0.63249 0.19205 0.0
H959 H 0.52701 0.56575 0.23118 0.0
H960 H 0.45246 0.47204 0.09402 0.0
H961 H 0.5209 0.49637 0.12403 0.0
H962 H 0.46504 0.47176 0.18398 0.0
H963 H 0.50791 0.55404 0.11637 0.0
H964 H 0.47338 0.54965 0.14254 0.0
H965 H 0.46494 0.53355 0.19196 0.0
H966 H 0.54256 0.54309 0.26197 0.0
H967 H 0.53511 0.49321 0.32433 0.0
H968 H 0.48556 0.47483 0.25626 0.0
H969 H 0.55997 0.49765 0.15992 0.0
H970 H 0.63099 0.54003 0.13987 0.0
H971 H 0.58588 0.56869 0.13883 0.0
C972 C 0.48836 0.94771 0.79731 0.0
C973 C 0.47902 0.92572 0.78523 0.0
C974 C 0.49422 0.91993 0.77136 0.0
C975 C 0.51816 0.93589 0.76995 0.0
C976 C 0.52626 0.95751 0.78258 0.0
N977 N 0.51106 0.96191 0.79536 0.0
C978 C 0.55 0.97733 0.78341 0.0
C979 C 0.57295 0.0187 0.7978 0.0
C980 C 0.5901 0.02081 0.81662 0.0
C981 C 0.60957 0.04235 0.82145 0.0
C982 C 0.6124 0.06178 0.8069 0.0
C983 C 0.59569 0.05968 0.78752 0.0
C984 C 0.57601 0.03823 0.783 0.0
Cd985 Cd 0.59 0.97927 0.73082 0.0
Cd986 Cd 0.56651 0.96338 0.6579 0.0
C987 C 0.4838 0.98964 0.84644 0.0
C988 C 0.46305 0.00953 0.85873 0.0
C989 C 0.46997 0.01082 0.88705 0.0
C990 C 0.48336 0.00117 0.89574 0.0
C991 C 0.48938 0.98974 0.87528 0.0
C992 C 0.47016 0.99915 0.83829 0.0
Co993 Co 0.52228 0.99054 0.81142 0.0
N994 N 0.53158 0.98271 0.84719 0.0
N995 N 0.53312 0.01933 0.82705 0.0
C996 C 0.5412 0.02229 0.85349 0.0
C997 C 0.54718 0.04302 0.8674 0.0
C998 C 0.54399 0.05964 0.85264 0.0
C999 C 0.53473 0.05518 0.82481 0.0
C1000 C 0.52904 0.034 0.81238 0.0
N1001 N 0.51436 0.00304 0.77862 0.0
N1002 N 0.55183 0.9972 0.79499 0.0
N1003 N 0.49113 0.97892 0.82563 0.0
O1004 O 0.59836 0.00134 0.66162 0.0
O1005 O 0.61654 0.98962 0.68975 0.0
C1006 C 0.62744 0.01696 0.75864 0.0
O1007 O 0.61899 0.01986 0.73579 0.0
O1008 O 0.61815 0.99661 0.76874 0.0
C1009 C 0.58538 0.93125 0.69948 0.0
O1010 O 0.59037 0.9422 0.72311 0.0
O1011 O 0.5778 0.9377 0.67877 0.0
C1012 C 0.54096 0.0017 0.86472 0.0
O1013 O 0.54787 0.00109 0.89072 0.0
O1014 O 0.55471 0.97755 0.71225 0.0
O1015 O 0.53403 0.96505 0.67327 0.0
C1016 C 0.51841 0.02476 0.78453 0.0
O1017 O 0.51527 0.03735 0.76554 0.0
C1018 C 0.50879 0.99322 0.75072 0.0
C1019 C 0.52561 0.99165 0.73538 0.0
C1020 C 0.52035 0.97947 0.70995 0.0
C1021 C 0.49873 0.97176 0.6975 0.0
C1022 C 0.48219 0.97563 0.711 0.0
C1023 C 0.48706 0.98568 0.73839 0.0
C1024 C 0.61617 0.00022 0.66758 0.0
O1025 O 0.56844 0.97498 0.77653 0.0
C1026 C 0.5374 0.97434 0.69749 0.0
C1027 C 0.53466 0.96321 0.85228 0.0
C1028 C 0.51633 0.94058 0.84952 0.0
C1029 C 0.52002 0.92197 0.85285 0.0
C1030 C 0.54174 0.92571 0.86047 0.0
C1031 C 0.55983 0.94821 0.86613 0.0
C1032 C 0.55615 0.96679 0.86125 0.0
C1033 C 0.47687 0.95741 0.8147 0.0
O1034 O 0.45497 0.94533 0.82166 0.0
H1035 H 0.46078 0.91339 0.78671 0.0
H1036 H 0.48747 0.90305 0.76182 0.0
H1037 H 0.52977 0.93153 0.75922 0.0
H1038 H 0.58839 0.00594 0.82768 0.0
H1039 H 0.62759 0.07838 0.81051 0.0
H1040 H 0.56322 0.03698 0.76802 0.0
H1041 H 0.46378 0.01839 0.90265 0.0
H1042 H 0.49838 0.98089 0.88166 0.0
H1043 H 0.46486 0.99811 0.81632 0.0
H1044 H 0.55362 0.04613 0.88899 0.0
H1045 H 0.54835 0.07579 0.86291 0.0
H1046 H 0.53185 0.06768 0.8137 0.0
H1047 H 0.54294 0.99977 0.74346 0.0
H1048 H 0.4947 0.96262 0.67741 0.0
H1049 H 0.47439 0.98811 0.74982 0.0
H1050 H 0.49909 0.93715 0.84551 0.0
H1051 H 0.54401 0.91091 0.86305 0.0
H1052 H 0.5697 0.98414 0.86579 0.0
C1053 C 0.04763 0.53584 0.79686 0.0
C1054 C 0.06934 0.54677 0.78388 0.0
C1055 C 0.07601 0.5674 0.7686 0.0
C1056 C 0.06112 0.57665 0.76662 0.0
C1057 C 0.03971 0.5648 0.78018 0.0
N1058 N 0.03456 0.54562 0.79458 0.0
C1059 C 0.02079 0.57006 0.78018 0.0
C1060 C 0.98073 0.55565 0.7971 0.0
C1061 C 0.98248 0.57424 0.81298 0.0
C1062 C 0.96291 0.576 0.81837 0.0
C1063 C 0.94155 0.5595 0.80751 0.0
C1064 C 0.93976 0.54125 0.79117 0.0
C1065 C 0.95927 0.53931 0.78596 0.0
Cd1066 Cd 0.01994 0.61099 0.72905 0.0
Cd1067 Cd 0.04324 0.60891 0.68913 0.0
C1068 C 0.00553 0.49275 0.84878 0.0
C1069 C 0.98912 0.45323 0.8658 0.0
C1070 C 0.98985 0.46098 0.89363 0.0
C1071 C -0.00057 0.48445 0.89963 0.0
C1072 C 0.00763 0.50034 0.87713 0.0
C1073 C 0.99641 0.46907 0.84321 0.0
Co1074 Co 0.00573 0.52961 0.81049 0.0
N1075 N 0.01377 0.54768 0.84561 0.0
N1076 N 0.9767 0.51295 0.82588 0.0
C1077 C 0.97371 0.5191 0.85175 0.0
C1078 C 0.95253 0.50553 0.86537 0.0
C1079 C 0.9355 0.48579 0.85093 0.0
C1080 C 0.93998 0.47985 0.82373 0.0
C1081 C 0.96162 0.49417 0.81159 0.0
N1082 N 0.99287 0.50839 0.77833 0.0
N1083 N 0.00056 0.55317 0.79253 0.0
N1084 N 0.01595 0.50929 0.82618 0.0
O1085 O 0.02462 0.61516 0.6503 0.0
O1086 O 0.00268 0.61591 0.68441 0.0
C1087 C 0.98534 0.6146 0.76044 0.0
O1088 O 0.98045 0.60092 0.73951 0.0
O1089 O 0.00653 0.62672 0.76696 0.0
C1090 C 0.07561 0.65689 0.70647 0.0
O1091 O 0.05653 0.65057 0.71944 0.0
O1092 O 0.07893 0.6418 0.69464 0.0
C1093 C 0.99457 0.53926 0.86271 0.0
O1094 O 0.99512 0.54772 0.88813 0.0
O1095 O 0.01637 0.57302 0.71607 0.0
O1096 O 0.04062 0.57279 0.68473 0.0
C1097 C 0.97076 0.49162 0.7842 0.0
O1098 O 0.95782 0.4759 0.7654 0.0
C1099 C 0.00243 0.51217 0.75033 0.0
C1100 C 0.0026 0.52953 0.73424 0.0
C1101 C 0.01667 0.53815 0.71032 0.0
C1102 C 0.02639 0.5256 0.69873 0.0
C1103 C 0.02331 0.50559 0.71254 0.0
C1104 C 0.0123 0.49957 0.7393 0.0
C1105 C 0.00777 0.61739 0.65811 0.0
O1106 O 0.02456 0.59142 0.77297 0.0
C1107 C 0.02399 0.56198 0.70178 0.0
C1108 C 0.03453 0.56909 0.8516 0.0
C1109 C 0.0561 0.57055 0.85067 0.0
C1110 C 0.07606 0.59129 0.85683 0.0
C1111 C 0.07466 0.61053 0.86525 0.0
C1112 C 0.05307 0.60901 0.86855 0.0
C1113 C 0.03319 0.58837 0.86085 0.0
C1114 C 0.03707 0.51509 0.81504 0.0
O1115 O 0.04835 0.50459 0.8228 0.0
H1116 H 0.08076 0.53976 0.78553 0.0
H1117 H 0.09266 0.57617 0.75827 0.0
H1118 H 0.06606 0.59224 0.7546 0.0
H1119 H 0.9989 0.58732 0.82121 0.0
H1120 H 0.92645 0.56099 0.81155 0.0
H1121 H 0.95761 0.52521 0.77304 0.0
H1122 H 0.98383 0.44862 0.91097 0.0
H1123 H 0.01679 0.51857 0.88187 0.0
H1124 H 0.99626 0.4633 0.82164 0.0
H1125 H 0.94934 0.50977 0.88647 0.0
H1126 H 0.91898 0.47493 0.86096 0.0
H1127 H 0.92711 0.46456 0.81284 0.0
H1128 H 0.99331 0.53774 0.74205 0.0
H1129 H 0.03666 0.53155 0.6795 0.0
H1130 H 0.0112 0.48519 0.75121 0.0
H1131 H 0.05762 0.55558 0.84635 0.0
H1132 H 0.09046 0.62631 0.87009 0.0
H1133 H 0.01644 0.5868 0.86346 0.0
C1134 C 0.46254 0.51472 0.80117 0.0
C1135 C 0.45045 0.52514 0.79059 0.0
C1136 C 0.42949 0.51105 0.77604 0.0
C1137 C 0.42103 0.48712 0.77252 0.0
C1138 C 0.43406 0.47792 0.78369 0.0
N1139 N 0.4536 0.49208 0.79725 0.0
C1140 C 0.42951 0.45398 0.7824 0.0
C1141 C 0.4458 0.42893 0.79528 0.0
C1142 C 0.42798 0.41102 0.81092 0.0
C1143 C 0.42752 0.39009 0.81463 0.0
C1144 C 0.44449 0.38664 0.80222 0.0
C1145 C 0.46191 0.40413 0.78596 0.0
C1146 C 0.46256 0.42519 0.78247 0.0
Cd1147 Cd 0.38872 0.41312 0.73239 0.0
Cd1148 Cd 0.38619 0.43935 0.6938 0.0
C1149 C 0.50855 0.51534 0.84747 0.0
C1150 C 0.5492 0.53253 0.85809 0.0
C1151 C 0.5438 0.52566 0.88645 0.0
C1152 C 0.52104 0.51549 0.89634 0.0
C1153 C 0.50338 0.51036 0.8765 0.0
C1154 C 0.53155 0.52712 0.83846 0.0
Co1155 Co 0.47058 0.47953 0.81085 0.0
N1156 N 0.45358 0.46851 0.84664 0.0
N1157 N 0.48825 0.46752 0.82404 0.0
C1158 C 0.48345 0.45853 0.85009 0.0
C1159 C 0.49829 0.452 0.86255 0.0
C1160 C 0.51792 0.45575 0.84692 0.0
C1161 C 0.52252 0.46617 0.81972 0.0
C1162 C 0.50694 0.47233 0.80873 0.0
N1163 N 0.49096 0.48911 0.77768 0.0
N1164 N 0.44717 0.45096 0.79272 0.0
N1165 N 0.49046 0.50966 0.82731 0.0
O1166 O 0.37777 0.41164 0.65652 0.0
O1167 O 0.38729 0.39363 0.68795 0.0
C1168 C 0.3855 0.37442 0.76221 0.0
O1169 O 0.39827 0.3829 0.74045 0.0
O1170 O 0.37439 0.38417 0.77047 0.0
C1171 C 0.3393 0.41885 0.71503 0.0
O1172 O 0.34841 0.40691 0.72296 0.0
O1173 O 0.35215 0.43943 0.70674 0.0
C1174 C 0.46338 0.4585 0.86267 0.0
O1175 O 0.4555 0.4496 0.88793 0.0
O1176 O 0.42467 0.44886 0.71848 0.0
O1177 O 0.42292 0.47335 0.689 0.0
C1178 C 0.50838 0.48442 0.78199 0.0
O1179 O 0.52391 0.48831 0.76239 0.0
C1180 C 0.48631 0.49545 0.75046 0.0
C1181 C 0.46842 0.47868 0.73474 0.0
C1182 C 0.45887 0.48462 0.71226 0.0
C1183 C 0.47109 0.50714 0.70114 0.0
C1184 C 0.49202 0.52388 0.71396 0.0
C1185 C 0.49872 0.51806 0.73985 0.0
C1186 C 0.38136 0.39529 0.66281 0.0
O1187 O 0.40817 0.43617 0.7762 0.0
C1188 C 0.43476 0.46782 0.70467 0.0
C1189 C 0.43114 0.46531 0.85313 0.0
C1190 C 0.42708 0.48393 0.85291 0.0
C1191 C 0.4052 0.4805 0.85917 0.0
C1192 C 0.38737 0.45864 0.86679 0.0
C1193 C 0.39163 0.44023 0.86906 0.0
C1194 C 0.41329 0.44353 0.86174 0.0
C1195 C 0.48367 0.52485 0.8186 0.0
O1196 O 0.49402 0.54639 0.82732 0.0
H1197 H 0.45676 0.54336 0.79362 0.0
H1198 H 0.41978 0.51865 0.76759 0.0
H1199 H 0.40508 0.47636 0.76128 0.0
H1200 H 0.41444 0.41316 0.8202 0.0
H1201 H 0.444 0.37036 0.80498 0.0
H1202 H 0.47601 0.43841 0.76955 0.0
H1203 H 0.55777 0.52986 0.90123 0.0
H1204 H 0.48574 0.50319 0.88359 0.0
H1205 H 0.53563 0.53267 0.81653 0.0
H1206 H 0.49516 0.44476 0.88375 0.0
H1207 H 0.52978 0.45102 0.85609 0.0
H1208 H 0.53784 0.46961 0.80805 0.0
H1209 H 0.46063 0.46102 0.74185 0.0
H1210 H 0.46442 0.51136 0.68255 0.0
H1211 H 0.51332 0.53093 0.7518 0.0
H1212 H 0.44085 0.50123 0.84906 0.0
H1213 H 0.37075 0.45647 0.87254 0.0
H1214 H 0.41639 0.42921 0.86377 0.0
C1215 C 0.17882 0.38491 0.54178 0.0
C1216 C 0.18848 0.40631 0.55549 0.0
C1217 C 0.17355 0.41169 0.57076 0.0
C1218 C 0.14957 0.3959 0.57195 0.0
C1219 C 0.14116 0.37484 0.55776 0.0
N1220 N 0.15607 0.37084 0.54358 0.0
C1221 C 0.11725 0.35549 0.55606 0.0
C1222 C 0.0931 0.31626 0.53524 0.0
C1223 C 0.07651 0.31904 0.5203 0.0
C1224 C 0.0571 0.2999 0.50899 0.0
C1225 C 0.05377 0.2778 0.51323 0.0
C1226 C 0.06937 0.27475 0.52971 0.0
C1227 C 0.08884 0.2939 0.54094 0.0
Cd1228 Cd 0.0746 0.35187 0.60607 0.0
Cd1229 Cd 0.10096 0.38066 0.64257 0.0
C1230 C 0.18243 0.34529 0.48819 0.0
C1231 C 0.19958 0.32285 0.47123 0.0
C1232 C 0.19487 0.32661 0.44332 0.0
C1233 C 0.18252 0.33783 0.43747 0.0
C1234 C 0.17784 0.34868 0.4599 0.0
C1235 C 0.19321 0.33228 0.49382 0.0
Co1236 Co 0.14457 0.34279 0.52582 0.0
N1237 N 0.13547 0.35196 0.49086 0.0
N1238 N 0.13376 0.31455 0.50846 0.0
C1239 C 0.12655 0.31287 0.48173 0.0
C1240 C 0.12165 0.29314 0.46609 0.0
C1241 C 0.12509 0.27616 0.47941 0.0
C1242 C 0.13368 0.27936 0.5075 0.0
C1243 C 0.13834 0.29962 0.5217 0.0
N1244 N 0.15242 0.32904 0.55745 0.0
N1245 N 0.11489 0.3359 0.54276 0.0
N1246 N 0.17567 0.35467 0.51128 0.0
O1247 O 0.07382 0.36417 0.68095 0.0
O1248 O 0.05499 0.33554 0.65117 0.0
C1249 C 0.03575 0.31646 0.5768 0.0
O1250 O 0.04823 0.31184 0.59267 0.0
O1251 O 0.04162 0.33758 0.57407 0.0
C1252 C 0.08261 0.40833 0.62332 0.0
O1253 O 0.06991 0.38703 0.61676 0.0
O1254 O 0.10363 0.41601 0.6293 0.0
C1255 C 0.12687 0.33384 0.47196 0.0
O1256 O 0.12064 0.33559 0.44597 0.0
O1257 O 0.10825 0.34849 0.62016 0.0
O1258 O 0.13333 0.37565 0.64818 0.0
C1259 C 0.14861 0.30768 0.55 0.0
O1260 O 0.15181 0.29445 0.56788 0.0
C1261 C 0.15711 0.33741 0.58606 0.0
C1262 C 0.13932 0.33672 0.60174 0.0
C1263 C 0.14393 0.3502 0.62615 0.0
C1264 C 0.16583 0.35982 0.63861 0.0
C1265 C 0.18329 0.35724 0.62533 0.0
C1266 C 0.17921 0.34713 0.59804 0.0
C1267 C 0.05702 0.34425 0.67575 0.0
O1268 O 0.09917 0.35865 0.56239 0.0
C1269 C 0.12721 0.3575 0.63382 0.0
C1270 C 0.1312 0.37088 0.48749 0.0
C1271 C 0.14849 0.39373 0.49227 0.0
C1272 C 0.1436 0.41163 0.48995 0.0
C1273 C 0.12173 0.40704 0.48152 0.0
C1274 C 0.10472 0.38445 0.47423 0.0
C1275 C 0.10958 0.36655 0.47793 0.0
C1276 C 0.19007 0.37578 0.52305 0.0
O1277 O 0.21188 0.38809 0.51573 0.0
H1278 H 0.20676 0.4185 0.55426 0.0
H1279 H 0.18054 0.42811 0.58156 0.0
H1280 H 0.13815 0.39996 0.58371 0.0
H1281 H 0.07878 0.33597 0.51675 0.0
H1282 H 0.03891 0.26305 0.50414 0.0
H1283 H 0.10068 0.29124 0.55375 0.0
H1284 H 0.20078 0.32063 0.42554 0.0
H1285 H 0.17002 0.35908 0.45553 0.0
H1286 H 0.19643 0.32951 0.51563 0.0
H1287 H 0.11595 0.29115 0.44421 0.0
H1288 H 0.12161 0.26081 0.46776 0.0
H1289 H 0.13697 0.26671 0.51744 0.0
H1290 H 0.12211 0.32747 0.59307 0.0
H1291 H 0.16948 0.36969 0.6581 0.0
H1292 H 0.19287 0.34655 0.58641 0.0
H1293 H 0.16587 0.39794 0.49701 0.0
H1294 H 0.11852 0.42131 0.4797 0.0
H1295 H 0.09678 0.34913 0.47223 0.0
C1296 C 0.61579 0.79471 0.54361 0.0
C1297 C 0.59381 0.78271 0.55579 0.0
C1298 C 0.58675 0.76078 0.56788 0.0
C1299 C 0.60151 0.75131 0.56753 0.0
C1300 C 0.62317 0.76425 0.55483 0.0
N1301 N 0.62865 0.78462 0.54344 0.0
C1302 C 0.64223 0.75922 0.55335 0.0
C1303 C 0.68196 0.77443 0.53474 0.0
C1304 C 0.67877 0.7565 0.51637 0.0
C1305 C 0.69774 0.75631 0.50438 0.0
C1306 C 0.72002 0.77371 0.51107 0.0
C1307 C 0.72336 0.79078 0.53071 0.0
C1308 C 0.7044 0.79092 0.54286 0.0
Cd1309 Cd 0.64282 0.7203 0.60365 0.0
Cd1310 Cd 0.59957 0.71443 0.67637 0.0
C1311 C 0.6571 0.83912 0.49341 0.0
C1312 C 0.681 0.87757 0.4729 0.0
C1313 C 0.6716 0.86837 0.44613 0.0
C1314 C 0.65565 0.84506 0.44232 0.0
C1315 C 0.64828 0.83046 0.46609 0.0
C1316 C 0.67348 0.86274 0.49674 0.0
Co1317 Co 0.65796 0.80216 0.52964 0.0
N1318 N 0.65118 0.7881 0.49191 0.0
N1319 N 0.68742 0.82051 0.51638 0.0
C1320 C 0.69127 0.81747 0.48939 0.0
C1321 C 0.71276 0.8327 0.47749 0.0
C1322 C 0.7291 0.85085 0.49476 0.0
C1323 C 0.72365 0.85356 0.52307 0.0
C1324 C 0.70177 0.83768 0.53342 0.0
N1325 N 0.6695 0.81925 0.56519 0.0
N1326 N 0.66277 0.77709 0.54304 0.0
N1327 N 0.64838 0.82405 0.51779 0.0
O1328 O 0.63025 0.71143 0.69891 0.0
O1329 O 0.6449 0.71527 0.65592 0.0
C1330 C 0.68521 0.72158 0.59043 0.0
O1331 O 0.68431 0.74009 0.59169 0.0
O1332 O 0.66668 0.70294 0.59561 0.0
C1333 C 0.59636 0.67909 0.61994 0.0
O1334 O 0.60795 0.68061 0.59789 0.0
O1335 O 0.60255 0.69786 0.6329 0.0
C1336 C 0.67092 0.79847 0.47571 0.0
O1337 O 0.67179 0.79173 0.44972 0.0
O1338 O 0.63545 0.7489 0.62769 0.0
O1339 O 0.61706 0.75498 0.66244 0.0
C1340 C 0.69164 0.83686 0.56152 0.0
O1341 O 0.70356 0.85092 0.5823 0.0
C1342 C 0.65782 0.81385 0.59214 0.0
C1343 C 0.65355 0.79385 0.60646 0.0
C1344 C 0.63934 0.78627 0.63052 0.0
C1345 C 0.63203 0.80075 0.64258 0.0
C1346 C 0.63789 0.8221 0.62991 0.0
C1347 C 0.65039 0.82824 0.60413 0.0
C1348 C 0.64603 0.7127 0.68262 0.0
O1349 O 0.63877 0.73775 0.55855 0.0
C1350 C 0.6308 0.76255 0.64132 0.0
C1351 C 0.63071 0.76737 0.48314 0.0
C1352 C 0.60898 0.76566 0.48443 0.0
C1353 C 0.58934 0.74572 0.47511 0.0
C1354 C 0.59122 0.72747 0.46377 0.0
C1355 C 0.61291 0.72935 0.46128 0.0
C1356 C 0.63247 0.7491 0.47117 0.0
C1357 C 0.6269 0.81713 0.52864 0.0
O1358 O 0.61547 0.82774 0.5221 0.0
H1359 H 0.58252 0.78992 0.55599 0.0
H1360 H 0.56991 0.75119 0.57763 0.0
H1361 H 0.59631 0.73477 0.57727 0.0
H1362 H 0.66167 0.74303 0.51064 0.0
H1363 H 0.73466 0.77375 0.50139 0.0
H1364 H 0.70727 0.80411 0.55819 0.0
H1365 H 0.67665 0.87954 0.42768 0.0
H1366 H 0.6355 0.81249 0.46335 0.0
H1367 H 0.6801 0.86941 0.51772 0.0
H1368 H 0.71669 0.83096 0.45562 0.0
H1369 H 0.74583 0.86296 0.48609 0.0
H1370 H 0.73599 0.86764 0.53615 0.0
H1371 H 0.66091 0.78387 0.59837 0.0
H1372 H 0.62184 0.79541 0.66188 0.0
H1373 H 0.65404 0.84391 0.59309 0.0
H1374 H 0.60711 0.77995 0.4914 0.0
H1375 H 0.57592 0.71232 0.45603 0.0
H1376 H 0.64916 0.75049 0.46859 0.0
C1377 C 0.20283 0.82199 0.54102 0.0
C1378 C 0.21378 0.81112 0.55372 0.0
C1379 C 0.23456 0.82504 0.56869 0.0
C1380 C 0.24395 0.84923 0.57064 0.0
C1381 C 0.23206 0.85888 0.5574 0.0
N1382 N 0.21268 0.84486 0.54339 0.0
C1383 C 0.23757 0.88318 0.55708 0.0
C1384 C 0.22319 0.90893 0.54021 0.0
C1385 C 0.24125 0.92543 0.52345 0.0
C1386 C 0.24262 0.94652 0.51748 0.0
C1387 C 0.22635 0.95155 0.52877 0.0
C1388 C 0.20866 0.93544 0.54606 0.0
C1389 C 0.20706 0.9142 0.55177 0.0
Cd1390 Cd 0.27802 0.92531 0.60751 0.0
Cd1391 Cd 0.2788 0.89848 0.64511 0.0
C1392 C 0.15831 0.82126 0.49147 0.0
C1393 C 0.11758 0.8003 0.47949 0.0
C1394 C 0.12309 0.80771 0.45135 0.0
C1395 C 0.146 0.82014 0.44231 0.0
C1396 C 0.16365 0.8268 0.46252 0.0
C1397 C 0.13516 0.80746 0.49978 0.0
Co1398 Co 0.19701 0.85793 0.52724 0.0
N1399 N 0.21503 0.86732 0.49199 0.0
N1400 N 0.18074 0.87061 0.51158 0.0
C1401 C 0.18686 0.87932 0.4855 0.0
C1402 C 0.17342 0.88693 0.4716 0.0
C1403 C 0.15381 0.88464 0.48595 0.0
C1404 C 0.14787 0.87463 0.51337 0.0
C1405 C 0.16207 0.86729 0.52583 0.0
N1406 N 0.17589 0.85014 0.5595 0.0
N1407 N 0.22076 0.88663 0.54481 0.0
N1408 N 0.17643 0.82742 0.51189 0.0
O1409 O 0.28398 0.92214 0.68556 0.0
O1410 O 0.28391 0.9458 0.65325 0.0
C1411 C 0.27982 0.96355 0.57861 0.0
O1412 O 0.26782 0.95507 0.60091 0.0
O1413 O 0.29091 0.95405 0.56945 0.0
C1414 C 0.32632 0.91779 0.62368 0.0
O1415 O 0.31794 0.93005 0.61448 0.0
O1416 O 0.31297 0.89811 0.63426 0.0
C1417 C 0.20674 0.87802 0.47458 0.0
O1418 O 0.2151 0.88544 0.44899 0.0
O1419 O 0.24059 0.89181 0.62159 0.0
O1420 O 0.24222 0.8653 0.6474 0.0
C1421 C 0.15937 0.85579 0.55341 0.0
O1422 O 0.14374 0.85341 0.57212 0.0
C1423 C 0.17964 0.84462 0.58769 0.0
C1424 C 0.1973 0.8618 0.60333 0.0
C1425 C 0.20624 0.85631 0.62686 0.0
C1426 C 0.19369 0.83428 0.63889 0.0
C1427 C 0.17317 0.81722 0.62591 0.0
C1428 C 0.16692 0.82229 0.59918 0.0
C1429 C 0.28566 0.94128 0.67908 0.0
O1430 O 0.25899 0.9007 0.56396 0.0
C1431 C 0.23043 0.87235 0.63424 0.0
C1432 C 0.23653 0.86799 0.48642 0.0
C1433 C 0.23815 0.84798 0.48818 0.0
C1434 C 0.25914 0.84891 0.48349 0.0
C1435 C 0.27853 0.86961 0.47562 0.0
C1436 C 0.27693 0.88955 0.47111 0.0
C1437 C 0.25591 0.8886 0.47726 0.0
C1438 C 0.18205 0.81194 0.52293 0.0
O1439 O 0.17095 0.79001 0.51579 0.0
H1440 H 0.20673 0.79268 0.55199 0.0
H1441 H 0.24338 0.8171 0.57876 0.0
H1442 H 0.25971 0.85984 0.58231 0.0
H1443 H 0.25419 0.922 0.51492 0.0
H1444 H 0.22756 0.96797 0.5243 0.0
H1445 H 0.19332 0.90199 0.56529 0.0
H1446 H 0.1093 0.80213 0.43588 0.0
H1447 H 0.18138 0.83516 0.45554 0.0
H1448 H 0.13103 0.8015 0.52156 0.0
H1449 H 0.17761 0.89399 0.45031 0.0
H1450 H 0.14304 0.89029 0.47568 0.0
H1451 H 0.13265 0.87248 0.52417 0.0
H1452 H 0.20563 0.8792 0.59521 0.0
H1453 H 0.20001 0.83068 0.65827 0.0
H1454 H 0.15261 0.80905 0.58721 0.0
H1455 H 0.22316 0.83146 0.49219 0.0
H1456 H 0.29453 0.86967 0.47217 0.0
H1457 H 0.25421 0.90362 0.47372 0.0
C1458 C 0.16573 0.31566 0.3928 0.0
C1459 C 0.17377 0.3364 0.40799 0.0
C1460 C 0.16062 0.31424 0.36381 0.0
C1461 C 0.16249 0.33373 0.34973 0.0
C1462 C 0.16881 0.35421 0.36531 0.0
C1463 C 0.1746 0.3554 0.39431 0.0
C1464 C 0.15413 0.29213 0.34805 0.0
C1465 C 0.17016 0.37506 0.35111 0.0
C1466 C 0.17299 0.33797 0.26991 0.0
C1467 C 0.15084 0.33038 0.25935 0.0
C1468 C 0.17705 0.33919 0.29933 0.0
C1469 C 0.15846 0.3327 0.31852 0.0
C1470 C 0.13594 0.32444 0.30787 0.0
C1471 C 0.13241 0.32339 0.27839 0.0
C1472 C 0.20127 0.34782 0.30988 0.0
C1473 C 0.11565 0.31717 0.32757 0.0
H1474 H 0.16412 0.30056 0.40347 0.0
H1475 H 0.18053 0.37138 0.40591 0.0
H1476 H 0.13732 0.28565 0.3372 0.0
H1477 H 0.16717 0.29547 0.33137 0.0
H1478 H 0.15298 0.27837 0.36234 0.0
H1479 H 0.17337 0.38889 0.36661 0.0
H1480 H 0.18427 0.38209 0.33518 0.0
H1481 H 0.1539 0.37012 0.33957 0.0
H1482 H 0.18725 0.34384 0.2552 0.0
H1483 H 0.11527 0.31761 0.27013 0.0
H1484 H 0.20171 0.33473 0.32395 0.0
H1485 H 0.20703 0.36369 0.32271 0.0
H1486 H 0.2137 0.35175 0.29219 0.0
H1487 H 0.11394 0.30331 0.34204 0.0
H1488 H 0.09919 0.31083 0.31582 0.0
H1489 H 0.11848 0.33197 0.34106 0.0
C1490 C 0.67539 0.83937 0.28038 0.0
C1491 C 0.65706 0.82301 0.26395 0.0
C1492 C 0.67232 0.84222 0.3094 0.0
C1493 C 0.65039 0.82844 0.32215 0.0
C1494 C 0.63158 0.81281 0.30523 0.0
C1495 C 0.63515 0.8103 0.27636 0.0
C1496 C 0.69277 0.85928 0.32668 0.0
C1497 C 0.60788 0.79808 0.31784 0.0
C1498 C 0.65193 0.81928 0.40172 0.0
C1499 C 0.64835 0.83665 0.41276 0.0
C1500 C 0.6516 0.81567 0.37224 0.0
C1501 C 0.64744 0.82974 0.3534 0.0
C1502 C 0.64188 0.84598 0.36458 0.0
C1503 C 0.64232 0.84918 0.39412 0.0
C1504 C 0.65726 0.79789 0.36122 0.0
C1505 C 0.63706 0.86114 0.34537 0.0
H1506 H 0.69236 0.84915 0.27091 0.0
H1507 H 0.62085 0.79789 0.26355 0.0
H1508 H 0.68857 0.87119 0.33818 0.0
H1509 H 0.697 0.84993 0.3429 0.0
H1510 H 0.70826 0.86965 0.31329 0.0
H1511 H 0.59474 0.78808 0.30139 0.0
H1512 H 0.60827 0.7858 0.33337 0.0
H1513 H 0.60248 0.80899 0.32955 0.0
H1514 H 0.65659 0.80964 0.41595 0.0
H1515 H 0.63932 0.86251 0.40262 0.0
H1516 H 0.6743 0.80672 0.3505 0.0
H1517 H 0.64436 0.78665 0.34521 0.0
H1518 H 0.65784 0.78688 0.37852 0.0
H1519 H 0.65332 0.87406 0.33495 0.0
H1520 H 0.6299 0.87049 0.35726 0.0
H1521 H 0.62481 0.8508 0.3283 0.0
C1522 C 0.1382 0.80557 0.39239 0.0
C1523 C 0.15078 0.82387 0.41134 0.0
C1524 C 0.14075 0.80881 0.36292 0.0
C1525 C 0.15656 0.83083 0.352 0.0
C1526 C 0.16974 0.8493 0.37098 0.0
C1527 C 0.16667 0.8456 0.40051 0.0
C1528 C 0.12654 0.78861 0.34348 0.0
C1529 C 0.18708 0.87294 0.36007 0.0
C1530 C 0.18102 0.83307 0.27882 0.0
C1531 C 0.1696 0.84156 0.26199 0.0
C1532 C 0.17696 0.8296 0.30803 0.0
C1533 C 0.16045 0.83402 0.32077 0.0
C1534 C 0.14773 0.8412 0.30367 0.0
C1535 C 0.15254 0.84501 0.27434 0.0
C1536 C 0.19091 0.82192 0.32536 0.0
C1537 C 0.12953 0.84543 0.3165 0.0
H1538 H 0.1262 0.7886 0.40069 0.0
H1539 H 0.17629 0.85976 0.41508 0.0
H1540 H 0.11651 0.79299 0.32851 0.0
H1541 H 0.13802 0.78472 0.33051 0.0
H1542 H 0.1144 0.77281 0.3554 0.0
H1543 H 0.19592 0.88545 0.37758 0.0
H1544 H 0.20026 0.87183 0.34694 0.0
H1545 H 0.17838 0.87966 0.34619 0.0
H1546 H 0.19388 0.82987 0.26917 0.0
H1547 H 0.14363 0.8515 0.26139 0.0
H1548 H 0.17932 0.80567 0.33677 0.0
H1549 H 0.20105 0.83514 0.34167 0.0
H1550 H 0.20299 0.8191 0.31206 0.0
H1551 H 0.11681 0.82997 0.32847 0.0
H1552 H 0.12027 0.84966 0.30014 0.0
H1553 H 0.13763 0.85991 0.33188 0.0
C1554 C 0.83953 0.67727 0.6083 0.0
C1555 C 0.82127 0.65886 0.59407 0.0
C1556 C 0.84254 0.67626 0.63758 0.0
C1557 C 0.82691 0.65627 0.65289 0.0
C1558 C 0.80889 0.63726 0.63835 0.0
C1559 C 0.80621 0.63882 0.60895 0.0
C1560 C 0.86189 0.69696 0.65228 0.0
C1561 C 0.79213 0.61557 0.65397 0.0
C1562 C 0.84973 0.64953 0.7235 0.0
C1563 C 0.83773 0.65549 0.74334 0.0
C1564 C 0.84528 0.6484 0.69432 0.0
C1565 C 0.82984 0.65522 0.68403 0.0
C1566 C 0.81829 0.66218 0.70337 0.0
C1567 C 0.82188 0.66162 0.73275 0.0
C1568 C 0.85751 0.64026 0.67443 0.0
C1569 C 0.80253 0.67072 0.69301 0.0
H1570 H 0.85088 0.69286 0.5966 0.0
H1571 H 0.79183 0.62485 0.59783 0.0
H1572 H 0.85474 0.70342 0.66886 0.0
H1573 H 0.87348 0.69201 0.6631 0.0
H1574 H 0.87233 0.71124 0.63724 0.0
H1575 H 0.77988 0.60191 0.63932 0.0
H1576 H 0.80163 0.60877 0.66617 0.0
H1577 H 0.78211 0.61952 0.66949 0.0
H1578 H 0.86312 0.64611 0.73027 0.0
H1579 H 0.81234 0.66626 0.74716 0.0
H1580 H 0.87016 0.65488 0.66128 0.0
H1581 H 0.84498 0.62693 0.65971 0.0
H1582 H 0.86678 0.6329 0.68606 0.0
H1583 H 0.81213 0.68566 0.67857 0.0
H1584 H 0.79528 0.67608 0.71076 0.0
H1585 H 0.7881 0.65703 0.68061 0.0
C1586 C 0.32932 0.19412 0.72517 0.0
C1587 C 0.33462 0.18159 0.74475 0.0
C1588 C 0.32889 0.19016 0.69584 0.0
C1589 C 0.33333 0.17286 0.68574 0.0
C1590 C 0.33786 0.15955 0.70537 0.0
C1591 C 0.33861 0.16419 0.73464 0.0
C1592 C 0.32402 0.20476 0.67565 0.0
C1593 C 0.34229 0.14066 0.69543 0.0
C1594 C 0.31299 0.14876 0.61161 0.0
C1595 C 0.33352 0.16002 0.59589 0.0
C1596 C 0.31264 0.15291 0.64078 0.0
C1597 C 0.33332 0.1688 0.6546 0.0
C1598 C 0.35397 0.18081 0.63866 0.0
C1599 C 0.35382 0.1763 0.60944 0.0
C1600 C 0.29022 0.13991 0.65693 0.0
C1601 C 0.37633 0.19803 0.65263 0.0
H1602 H 0.32561 0.20721 0.73278 0.0
H1603 H 0.34291 0.15462 0.74955 0.0
H1604 H 0.33881 0.21422 0.66098 0.0
H1605 H 0.30874 0.1936 0.6624 0.0
H1606 H 0.32084 0.21748 0.68696 0.0
H1607 H 0.34449 0.13119 0.71344 0.0
H1608 H 0.32779 0.12816 0.682 0.0
H1609 H 0.35807 0.14816 0.68211 0.0
H1610 H 0.29719 0.13639 0.60108 0.0
H1611 H 0.36975 0.18492 0.59742 0.0
H1612 H 0.28624 0.15218 0.66791 0.0
H1613 H 0.29182 0.12902 0.67353 0.0
H1614 H 0.27553 0.12867 0.64284 0.0
H1615 H 0.37422 0.21153 0.66364 0.0
H1616 H 0.39069 0.20651 0.6371 0.0
H1617 H 0.38113 0.18924 0.66898 0.0
C1618 C 0.83495 0.17301 0.73233 0.0
C1619 C 0.81467 0.15455 0.74346 0.0
C1620 C 0.83823 0.17643 0.70279 0.0
C1621 C 0.82054 0.16141 0.68395 0.0
C1622 C 0.80026 0.14253 0.69496 0.0
C1623 C 0.79783 0.13903 0.72442 0.0
C1624 C 0.86054 0.19622 0.69175 0.0
C1625 C 0.78099 0.1261 0.67564 0.0
C1626 C 0.82138 0.18465 0.60975 0.0
C1627 C 0.83197 0.1747 0.59417 0.0
C1628 C 0.81695 0.17997 0.63898 0.0
C1629 C 0.8234 0.16514 0.65266 0.0
C1630 C 0.83301 0.15419 0.63652 0.0
C1631 C 0.83711 0.15907 0.60747 0.0
C1632 C 0.80622 0.19156 0.65546 0.0
C1633 C 0.84024 0.13835 0.65013 0.0
H1634 H 0.84811 0.18505 0.74664 0.0
H1635 H 0.78253 0.12404 0.73247 0.0
H1636 H 0.86855 0.18977 0.67632 0.0
H1637 H 0.85707 0.20864 0.68029 0.0
H1638 H 0.87308 0.20551 0.70907 0.0
H1639 H 0.76593 0.11276 0.68768 0.0
H1640 H 0.77517 0.13582 0.66215 0.0
H1641 H 0.78724 0.11732 0.66117 0.0
H1642 H 0.81763 0.19689 0.59943 0.0
H1643 H 0.84541 0.15149 0.59528 0.0
H1644 H 0.81879 0.20371 0.67115 0.0
H1645 H 0.79103 0.17853 0.66755 0.0
H1646 H 0.80074 0.20129 0.64142 0.0
H1647 H 0.85541 0.14861 0.66397 0.0
H1648 H 0.84491 0.12919 0.63409 0.0
H1649 H 0.8263 0.12534 0.66378 0.0
C1650 C 0.49124 0.98451 0.93972 0.0
C1651 C 0.49026 0.00273 0.92624 0.0
C1652 C 0.49641 0.98551 0.96885 0.0
C1653 C 0.50014 0.00492 0.98508 0.0
C1654 C 0.49956 0.02349 0.9716 0.0
C1655 C 0.49508 0.02236 0.94234 0.0
C1656 C 0.49747 0.9656 0.98237 0.0
C1657 C 0.50329 0.04442 0.98817 0.0
C1658 C 0.49023 0.99641 0.06493 0.0
C1659 C 0.51276 0.00551 0.075 0.0
C1660 C 0.48586 0.99643 0.03571 0.0
C1661 C 0.50452 0.00576 0.01622 0.0
C1662 C 0.52737 0.01557 0.02648 0.0
C1663 C 0.53119 0.01526 0.05576 0.0
C1664 C 0.46126 0.98587 0.02562 0.0
C1665 C 0.54774 0.02574 0.00649 0.0
H1666 H 0.48741 0.96917 0.92777 0.0
H1667 H 0.49517 0.03691 0.93213 0.0
H1668 H 0.51409 0.97196 0.99369 0.0
H1669 H 0.48353 0.95715 0.99839 0.0
H1670 H 0.49563 0.95248 0.96651 0.0
H1671 H 0.50214 0.05735 0.97453 0.0
H1672 H 0.49022 0.0391 0.00532 0.0
H1673 H 0.52046 0.05278 0.99851 0.0
H1674 H 0.47601 0.9884 0.07978 0.0
H1675 H 0.54863 0.0222 0.06365 0.0
H1676 H 0.45681 0.97052 0.01229 0.0
H1677 H 0.45921 0.99834 0.01216 0.0
H1678 H 0.44883 0.98051 0.04356 0.0
H1679 H 0.54684 0.01203 0.99237 0.0
H1680 H 0.56444 0.0338 0.01801 0.0
H1681 H 0.54734 0.03897 0.99267 0.0
C1682 C 0.0196 0.52716 0.06222 0.0
C1683 C 5e-05 0.51252 0.07849 0.0
C1684 C 0.0204 0.52392 0.03287 0.0
C1685 C 0.00151 0.50508 0.01942 0.0
C1686 C 0.98206 0.48967 0.03577 0.0
C1687 C 0.98144 0.49371 0.06501 0.0
C1688 C 0.0414 0.54081 0.0162 0.0
C1689 C 0.96181 0.46901 0.02229 0.0
C1690 C 0.99339 0.5059 0.93934 0.0
C1691 C 0.00205 0.4919 0.92976 0.0
C1692 C 0.99343 0.51068 0.96848 0.0
C1693 C 0.00233 0.50119 0.98836 0.0
C1694 C 0.01178 0.48768 0.97859 0.0
C1695 C 0.01157 0.48326 0.94943 0.0
C1696 C 0.98339 0.52534 0.97807 0.0
C1697 C 0.02152 0.47731 0.999 0.0
H1698 H 0.03441 0.54134 0.07241 0.0
H1699 H 0.96613 0.48237 0.07712 0.0
H1700 H 0.04957 0.53171 0.00607 0.0
H1701 H 0.03627 0.54858 0.99888 0.0
H1702 H 0.05442 0.55491 0.02973 0.0
H1703 H 0.9484 0.45818 0.03811 0.0
H1704 H 0.9539 0.47482 0.00594 0.0
H1705 H 0.9677 0.45817 0.01137 0.0
H1706 H 0.9858 0.51234 0.92418 0.0
H1707 H 0.01847 0.47259 0.94198 0.0
H1708 H 0.99603 0.53985 0.99139 0.0
H1709 H 0.96793 0.51487 0.99141 0.0
H1710 H 0.97837 0.53247 0.95987 0.0
H1711 H 0.03509 0.49099 0.01238 0.0
H1712 H 0.02899 0.46793 0.98784 0.0
H1713 H 0.00773 0.46511 0.01351 0.0
C1714 C 0.48874 0.50671 0.06156 0.0
C1715 C 0.49569 0.49313 0.07656 0.0
C1716 C 0.49324 0.51095 0.03245 0.0
C1717 C 0.50498 0.50133 0.01796 0.0
C1718 C 0.51281 0.4883 0.03325 0.0
C1719 C 0.50813 0.48441 0.06251 0.0
C1720 C 0.48477 0.52509 0.01704 0.0
C1721 C 0.52554 0.47795 0.01852 0.0
C1722 C 0.4965 0.49259 0.93798 0.0
C1723 C 0.51637 0.51193 0.92752 0.0
C1724 C 0.49246 0.48897 0.96738 0.0
C1725 C 0.50891 0.50486 0.98679 0.0
C1726 C 0.5289 0.52447 0.97643 0.0
C1727 C 0.53218 0.52796 0.94702 0.0
C1728 C 0.47064 0.46812 0.97767 0.0
C1729 C 0.54686 0.54182 0.99641 0.0
H1730 H 0.47926 0.51359 0.0726 0.0
H1731 H 0.51336 0.4738 0.07414 0.0
H1732 H 0.49916 0.53955 0.00544 0.0
H1733 H 0.47166 0.5142 1.00102 0.0
H1734 H 0.47698 0.53231 0.03173 0.0
H1735 H 0.53131 0.46909 0.03362 0.0
H1736 H 0.51421 0.46529 0.00234 0.0
H1737 H 0.54083 0.49158 0.00718 0.0
H1738 H 0.48424 0.48011 0.92325 0.0
H1739 H 0.54721 0.54343 0.93936 0.0
H1740 H 0.46084 0.47361 0.99152 0.0
H1741 H 0.47498 0.45698 0.99066 0.0
H1742 H 0.45933 0.45771 0.95985 0.0
H1743 H 0.53913 0.54979 0.0099 0.0
H1744 H 0.56185 0.55575 0.9849 0.0
H1745 H 0.55314 0.53305 0.01085 0.0
C1746 C 0.32666 0.27753 0.27402 0.0
C1747 C 0.32708 0.2852 0.30185 0.0
C1748 C 0.31136 0.27773 0.25383 0.0
C1749 C 0.29663 0.28633 0.26159 0.0
C1750 C 0.29838 0.2958 0.28902 0.0
C1751 C 0.31333 0.29477 0.309 0.0
C1752 C 0.3099 0.26736 0.22486 0.0
C1753 C 0.28364 0.30599 0.29773 0.0
C1754 C 0.26074 0.29584 0.20655 0.0
C1755 C 0.23873 0.27673 0.21159 0.0
C1756 C 0.27998 0.2991 0.2222 0.0
C1757 C 0.27728 0.28251 0.24276 0.0
C1758 C 0.25548 0.26255 0.24673 0.0
C1759 C 0.23646 0.26007 0.23143 0.0
C1760 C 0.30284 0.32088 0.21777 0.0
C1761 C 0.25199 0.24421 0.26811 0.0
H1762 H 0.33743 0.27027 0.26845 0.0
H1763 H 0.31405 0.3012 0.33037 0.0
H1764 H 0.29339 0.25082 0.22309 0.0
H1765 H 0.31004 0.27893 0.20789 0.0
H1766 H 0.32429 0.26396 0.22103 0.0
H1767 H 0.28946 0.31561 0.31812 0.0
H1768 H 0.28392 0.31783 0.28103 0.0
H1769 H 0.26551 0.29198 0.3003 0.0
H1770 H 0.2629 0.3086 0.19085 0.0
H1771 H 0.21961 0.24545 0.23598 0.0
H1772 H 0.31711 0.31704 0.21657 0.0
H1773 H 0.30637 0.33255 0.23619 0.0
H1774 H 0.30297 0.3302 0.19815 0.0
H1775 H 0.26502 0.23881 0.2649 0.0
H1776 H 0.23455 0.22872 0.26661 0.0
H1777 H 0.2543 0.25131 0.28995 0.0
C1778 C 0.69401 0.01724 0.31124 0.0
C1779 C 0.70146 0.04019 0.30379 0.0
C1780 C 0.69088 0.00098 0.29043 0.0
C1781 C 0.69609 0.00814 0.26178 0.0
C1782 C 0.70081 0.03044 0.25379 0.0
C1783 C 0.70341 0.04631 0.27499 0.0
C1784 C 0.68382 0.97667 0.29937 0.0
C1785 C 0.70494 0.03803 0.22313 0.0
C1786 C 0.72839 0.98111 0.22952 0.0
C1787 C 0.71195 0.96431 0.21138 0.0
C1788 C 0.7238 0.99648 0.24429 0.0
C1789 C 0.70176 0.99438 0.24213 0.0
C1790 C 0.68532 0.9782 0.22307 0.0
C1791 C 0.6909 0.96387 0.20726 0.0
C1792 C 0.74226 0.01421 0.26349 0.0
C1793 C 0.66154 0.9751 0.21963 0.0
H1794 H 0.69149 0.01215 0.33344 0.0
H1795 H 0.7084 0.06385 0.26911 0.0
H1796 H 0.67145 0.96404 0.28387 0.0
H1797 H 0.69923 0.97457 0.29987 0.0
H1798 H 0.67582 0.97258 0.32084 0.0
H1799 H 0.70615 0.05507 0.22009 0.0
H1800 H 0.72122 0.03922 0.21568 0.0
H1801 H 0.69078 0.0251 0.20965 0.0
H1802 H 0.74459 0.98171 0.23345 0.0
H1803 H 0.67828 0.95177 0.19244 0.0
H1804 H 0.73757 0.00913 0.28604 0.0
H1805 H 0.74379 0.03137 0.26047 0.0
H1806 H 0.75938 0.01589 0.25948 0.0
H1807 H 0.64842 0.95652 0.2215 0.0
H1808 H 0.65996 0.98069 0.19794 0.0
H1809 H 0.65745 0.98488 0.23535 0.0
C1810 C 0.9584 0.66244 0.27974 0.0
C1811 C 0.95876 0.671 0.3071 0.0
C1812 C 0.97482 0.67622 0.25929 0.0
C1813 C 0.99156 0.69913 0.26633 0.0
C1814 C 0.99246 0.70754 0.2942 0.0
C1815 C 0.97611 0.69332 0.31427 0.0
C1816 C 0.97405 0.66643 0.23012 0.0
C1817 C 0.01029 0.73181 0.30266 0.0
C1818 C 0.04676 0.73808 0.22753 0.0
C1819 C 0.04107 0.7532 0.21363 0.0
C1820 C 0.03013 0.71881 0.24243 0.0
C1821 C 0.00748 0.71506 0.24448 0.0
C1822 C 0.00119 0.7292 0.229 0.0
C1823 C 0.01801 0.74792 0.21341 0.0
C1824 C 0.0374 0.70368 0.25783 0.0
C1825 C 0.97714 0.72569 0.23073 0.0
H1826 H 0.94526 0.64502 0.27426 0.0
H1827 H 0.97664 0.69995 0.33546 0.0
H1828 H 0.96898 0.67526 0.21416 0.0
H1829 H 0.99137 0.66953 0.22403 0.0
H1830 H 0.96162 0.64761 0.22905 0.0
H1831 H 0.00871 0.73556 0.3253 0.0
H1832 H 0.02786 0.73456 0.29919 0.0
H1833 H 0.0085 0.74443 0.28916 0.0
H1834 H 0.06447 0.74189 0.22832 0.0
H1835 H 0.01323 0.75897 0.20204 0.0
H1836 H 0.02334 0.68543 0.2583 0.0
H1837 H 0.04188 0.70969 0.28013 0.0
H1838 H 0.05281 0.70453 0.24773 0.0
H1839 H 0.96414 0.70737 0.22674 0.0
H1840 H 0.9744 0.73664 0.21528 0.0
H1841 H 0.97406 0.73002 0.25248 0.0
C1842 C 0.74723 0.72837 0.77951 0.0
C1843 C 0.75791 0.71556 0.773 0.0
C1844 C 0.72865 0.72604 0.76322 0.0
C1845 C 0.72093 0.71088 0.73955 0.0
C1846 C 0.73167 0.69784 0.73294 0.0
C1847 C 0.75 0.70028 0.74987 0.0
C1848 C 0.71729 0.73985 0.77126 0.0
C1849 C 0.72417 0.68169 0.70776 0.0
C1850 C 0.66054 0.69453 0.71666 0.0
C1851 C 0.66498 0.71031 0.69465 0.0
C1852 C 0.67857 0.6933 0.73005 0.0
C1853 C 0.7016 0.70887 0.72194 0.0
C1854 C 0.70606 0.72409 0.69877 0.0
C1855 C 0.68759 0.72437 0.68507 0.0
C1856 C 0.67303 0.67597 0.75361 0.0
C1857 C 0.73036 0.74094 0.68949 0.0
H1858 H 0.75334 0.74007 0.79749 0.0
H1859 H 0.75852 0.69058 0.74469 0.0
H1860 H 0.71835 0.75104 0.75323 0.0
H1861 H 0.69875 0.72806 0.7758 0.0
H1862 H 0.72534 0.75086 0.79025 0.0
H1863 H 0.73188 0.67035 0.70809 0.0
H1864 H 0.70514 0.67073 0.70715 0.0
H1865 H 0.72958 0.69191 0.68782 0.0
H1866 H 0.64293 0.68326 0.72355 0.0
H1867 H 0.69092 0.73642 0.66785 0.0
H1868 H 0.67855 0.68508 0.77431 0.0
H1869 H 0.68259 0.66656 0.75048 0.0
H1870 H 0.65432 0.6632 0.75479 0.0
H1871 H 0.73932 0.75376 0.70663 0.0
H1872 H 0.73083 0.75031 0.66977 0.0
H1873 H 0.74015 0.73185 0.68577 0.0
C1874 C 0.30209 0.98174 0.69567 0.0
C1875 C 0.28874 0.95808 0.70127 0.0
C1876 C 0.30306 0.99802 0.71519 0.0
C1877 C 0.28964 0.99036 0.74031 0.0
C1878 C 0.27709 0.96649 0.74671 0.0
C1879 C 0.27706 0.95059 0.72722 0.0
C1880 C 0.31741 0.02336 0.70815 0.0
C1881 C 0.26235 0.95764 0.77308 0.0
C1882 C 0.29714 0.03478 0.79607 0.0
C1883 C 0.28055 0.0405 0.78732 0.0
C1884 C 0.30019 0.01823 0.78131 0.0
C1885 C 0.2861 0.00694 0.75752 0.0
C1886 C 0.26884 0.01205 0.74921 0.0
C1887 C 0.26643 0.02887 0.76401 0.0
C1888 C 0.31907 0.01358 0.79049 0.0
C1889 C 0.25332 0.00024 0.72405 0.0
H1890 H 0.31143 0.98749 0.67575 0.0
H1891 H 0.26676 0.93226 0.73148 0.0
H1892 H 0.30593 0.03024 0.70242 0.0
H1893 H 0.32766 0.03318 0.72691 0.0
H1894 H 0.32932 0.02653 0.69008 0.0
H1895 H 0.25569 0.93894 0.77651 0.0
H1896 H 0.27226 0.96724 0.79213 0.0
H1897 H 0.24746 0.9605 0.77108 0.0
H1898 H 0.308 0.04347 0.81423 0.0
H1899 H 0.25394 0.03345 0.75659 0.0
H1900 H 0.33347 0.02156 0.77499 0.0
H1901 H 0.31286 0.9948 0.79081 0.0
H1902 H 0.32589 0.02081 0.81187 0.0
H1903 H 0.26367 0.00516 0.70422 0.0
H1904 H 0.23963 0.00488 0.72173 0.0
H1905 H 0.24501 0.98123 0.72627 0.0
C1906 C 0.95107 0.26495 0.77714 0.0
C1907 C 0.95781 0.25102 0.79201 0.0
C1908 C 0.9672 0.28471 0.7625 0.0
C1909 C 0.99047 0.29017 0.76177 0.0
C1910 C 0.99773 0.27753 0.77877 0.0
C1911 C 0.98134 0.25827 0.79398 0.0
C1912 C 0.95874 0.29824 0.74571 0.0
C1913 C 0.02248 0.28296 0.7787 0.0
C1914 C 0.02231 0.30836 0.69198 0.0
C1915 C 0.03933 0.33121 0.69755 0.0
C1916 C 0.00567 0.29526 0.71234 0.0
C1917 C 0.00595 0.30526 0.73897 0.0
C1918 C 0.02216 0.32873 0.74418 0.0
C1919 C 0.03888 0.34143 0.72344 0.0
C1920 C 0.98818 0.27046 0.70557 0.0
C1921 C 0.02198 0.34026 0.77168 0.0
H1922 H 0.93301 0.25975 0.77519 0.0
H1923 H 0.98687 0.2482 0.80623 0.0
H1924 H 0.97247 0.31641 0.74245 0.0
H1925 H 0.9527 0.29009 0.72455 0.0
H1926 H 0.94393 0.29807 0.7566 0.0
H1927 H 0.02587 0.27337 0.79549 0.0
H1928 H 0.02656 0.27823 0.75773 0.0
H1929 H 0.03434 0.30169 0.78182 0.0
H1930 H 0.02221 0.30047 0.67181 0.0
H1931 H 0.05159 0.3593 0.72753 0.0
H1932 H 0.97049 0.26771 0.70764 0.0
H1933 H 0.98983 0.25877 0.72092 0.0
H1934 H 0.99023 0.26543 0.68371 0.0
H1935 H 0.0043 0.3368 0.77642 0.0
H1936 H 0.03381 0.35922 0.77101 0.0
H1937 H 0.02724 0.33303 0.78947 0.0
C1938 C 0.97895 0.62917 0.64532 0.0
C1939 C 0.99383 0.62123 0.63682 0.0
C1940 C 0.96423 0.63106 0.62571 0.0
C1941 C 0.96403 0.62431 0.59712 0.0
C1942 C 0.98001 0.61765 0.58807 0.0
C1943 C 0.99486 0.61635 0.60804 0.0
C1944 C 0.94801 0.63906 0.63597 0.0
C1945 C 0.98035 0.61033 0.55779 0.0
C1946 C 0.90505 0.59708 0.5631 0.0
C1947 C 0.90698 0.61459 0.54488 0.0
C1948 C 0.92382 0.5998 0.5792 0.0
C1949 C 0.94492 0.62089 0.57803 0.0
C1950 C 0.94726 0.63859 0.55955 0.0
C1951 C 0.92845 0.63503 0.54271 0.0
C1952 C 0.92077 0.58028 0.59825 0.0
C1953 C 0.96926 0.6616 0.55841 0.0
H1954 H 0.97847 0.6335 0.66743 0.0
H1955 H 0.00653 0.61046 0.60129 0.0
H1956 H 0.94765 0.65155 0.62078 0.0
H1957 H 0.93028 0.62407 0.63732 0.0
H1958 H 0.95293 0.64726 0.65729 0.0
H1959 H 0.99574 0.60867 0.55331 0.0
H1960 H 0.96469 0.59339 0.55385 0.0
H1961 H 0.98007 0.62284 0.54258 0.0
H1962 H 0.88863 0.58141 0.5657 0.0
H1963 H 0.93056 0.64854 0.52827 0.0
H1964 H 0.92194 0.58551 0.62085 0.0
H1965 H 0.93472 0.57625 0.59433 0.0
H1966 H 0.90393 0.56433 0.59493 0.0
H1967 H 0.97238 0.67028 0.57937 0.0
H1968 H 0.96864 0.67319 0.54197 0.0
H1969 H 0.98416 0.65915 0.55404 0.0
C1970 C 0.38583 0.36217 0.64767 0.0
C1971 C 0.37798 0.37759 0.64163 0.0
C1972 C 0.38301 0.34523 0.62814 0.0
C1973 C 0.3719 0.34351 0.60192 0.0
C1974 C 0.36299 0.3583 0.59613 0.0
C1975 C 0.36635 0.37539 0.616 0.0
C1976 C 0.39239 0.32947 0.63537 0.0
C1977 C 0.35009 0.35615 0.56896 0.0
C1978 C 0.39268 0.31761 0.54633 0.0
C1979 C 0.37677 0.29406 0.54953 0.0
C1980 C 0.39024 0.33424 0.56163 0.0
C1981 C 0.37123 0.32713 0.58021 0.0
C1982 C 0.35394 0.30364 0.58142 0.0
C1983 C 0.35708 0.28734 0.5664 0.0
C1984 C 0.409 0.35919 0.55971 0.0
C1985 C 0.33305 0.29532 0.60035 0.0
H1986 H 0.39455 0.36355 0.66761 0.0
H1987 H 0.35976 0.38692 0.61153 0.0
H1988 H 0.37835 0.31121 0.63466 0.0
H1989 H 0.40551 0.33155 0.61942 0.0
H1990 H 0.4004 0.33299 0.65681 0.0
H1991 H 0.3422 0.36733 0.56901 0.0
H1992 H 0.36201 0.36102 0.55058 0.0
H1993 H 0.3363 0.33799 0.56569 0.0
H1994 H 0.40759 0.32301 0.53274 0.0
H1995 H 0.34466 0.26921 0.56932 0.0
H1996 H 0.41882 0.36439 0.57995 0.0
H1997 H 0.40146 0.37049 0.55662 0.0
H1998 H 0.42121 0.36225 0.54204 0.0
H1999 H 0.33735 0.29208 0.62201 0.0
H2000 H 0.31841 0.2789 0.59232 0.0
H2001 H 0.32743 0.3083 0.60209 0.0
C2002 C 0.65729 0.01941 0.65222 0.0
C2003 C 0.63383 0.00681 0.64557 0.0
C2004 C 0.67358 0.03039 0.6305 0.0
C2005 C 0.66589 0.02867 0.60207 0.0
C2006 C 0.64272 0.01289 0.59515 0.0
C2007 C 0.62686 0.00228 0.61712 0.0
C2008 C 0.69855 0.04592 0.63824 0.0
C2009 C 0.63405 0.00961 0.56495 0.0
C2010 C 0.69116 0.0863 0.56531 0.0
C2011 C 0.70579 0.08498 0.54506 0.0
C2012 C 0.67785 0.06782 0.58344 0.0
C2013 C 0.67962 0.04761 0.58191 0.0
C2014 C 0.69379 0.04574 0.56107 0.0
C2015 C 0.70646 0.06434 0.54259 0.0
C2016 C 0.66232 0.07027 0.60482 0.0
C2017 C 0.69667 0.02479 0.55899 0.0
H2018 H 0.66267 0.02228 0.6743 0.0
H2019 H 0.60871 0.99164 0.61208 0.0
H2020 H 0.70995 0.04461 0.6221 0.0
H2021 H 0.70243 0.0641 0.63868 0.0
H2022 H 0.70257 0.04159 0.65949 0.0
H2023 H 0.61709 0.99361 0.56258 0.0
H2024 H 0.63205 0.02451 0.55873 0.0
H2025 H 0.64649 0.00884 0.55005 0.0
H2026 H 0.69076 0.10217 0.56795 0.0
H2027 H 0.71734 0.06285 0.5267 0.0
H2028 H 0.66834 0.07 0.62671 0.0
H2029 H 0.64444 0.05561 0.60287 0.0
H2030 H 0.66194 0.08656 0.60201 0.0
H2031 H 0.71107 0.02738 0.57303 0.0
H2032 H 0.70108 0.02238 0.53695 0.0
H2033 H 0.68102 0.00877 0.56587 0.0
C2034 C 0.32521 0.02712 0.05307 0.0
C2035 C 0.33353 0.03936 0.02753 0.0
C2036 C 0.33999 0.02435 0.07173 0.0
C2037 C 0.36369 0.03471 0.06497 0.0
C2038 C 0.37194 0.04626 0.03867 0.0
C2039 C 0.35671 0.04826 0.02016 0.0
C2040 C 0.33032 0.01103 0.09898 0.0
C2041 C 0.39709 0.0574 0.03056 0.0
C2042 C 0.41033 0.05735 0.12088 0.0
C2043 C 0.41891 0.04219 0.11796 0.0
C2044 C 0.39125 0.05419 0.10504 0.0
C2045 C 0.38044 0.03533 0.08601 0.0
C2046 C 0.3879 0.01899 0.08455 0.0
C2047 C 0.40721 0.02275 0.10029 0.0
C2048 C 0.38352 0.0718 0.10739 0.0
C2049 C 0.37636 0.99828 0.06514 0.0
H2050 H 0.30716 0.01976 0.05855 0.0
H2051 H 0.36317 0.05753 1.00031 0.0
H2052 H 0.33846 0.00057 0.10426 0.0
H2053 H 0.33394 0.0233 0.11672 0.0
H2054 H 0.31137 0.9994 0.09766 0.0
H2055 H 0.4005 0.06492 0.00884 0.0
H2056 H 0.40765 0.07132 0.04593 0.0
H2057 H 0.40295 0.04457 0.03153 0.0
H2058 H 0.41894 0.07207 0.13497 0.0
H2059 H 0.41377 0.01098 0.09763 0.0
H2060 H 0.36473 0.0631 0.11159 0.0
H2061 H 0.38675 0.08121 0.08694 0.0
H2062 H 0.39267 0.08454 0.12457 0.0
H2063 H 0.35733 0.98995 0.06675 0.0
H2064 H 0.38154 0.98528 0.07015 0.0
H2065 H 0.38117 0.00387 0.04277 0.0
C2066 C 0.9515 0.36207 0.12674 0.0
C2067 C 0.94161 0.37358 0.11294 0.0
C2068 C 0.95409 0.34504 0.11256 0.0
C2069 C 0.94687 0.33975 0.08391 0.0
C2070 C 0.93728 0.35167 0.0698 0.0
C2071 C 0.93464 0.36835 0.08456 0.0
C2072 C 0.9645 0.33273 0.12815 0.0
C2073 C 0.92981 0.34684 0.03905 0.0
C2074 C 0.96682 0.30972 0.03277 0.0
C2075 C 0.94772 0.28743 0.03273 0.0
C2076 C 0.96759 0.32665 0.05104 0.0
C2077 C 0.94839 0.32119 0.06867 0.0
C2078 C 0.92936 0.29842 0.06918 0.0
C2079 C 0.92944 0.28166 0.05144 0.0
C2080 C 0.98851 0.35053 0.05068 0.0
C2081 C 0.90834 0.29213 0.08714 0.0
H2082 H 0.9571 0.36635 0.14864 0.0
H2083 H 0.92758 0.37773 0.07369 0.0
H2084 H 0.95208 0.31392 0.12869 0.0
H2085 H 0.98006 0.33517 0.11672 0.0
H2086 H 0.96939 0.33901 0.15032 0.0
H2087 H 0.92286 0.3578 0.03118 0.0
H2088 H 0.94462 0.34993 0.02543 0.0
H2089 H 0.91637 0.32846 0.03647 0.0
H2090 H 0.98101 0.31392 0.01832 0.0
H2091 H 0.91468 0.26433 0.05109 0.0
H2092 H 0.99508 0.35597 0.07262 0.0
H2093 H 0.98374 0.3631 0.04238 0.0
H2094 H 0.00261 0.35144 0.0373 0.0
H2095 H 0.91339 0.29745 0.10953 0.0
H2096 H 0.89574 0.27334 0.08662 0.0
H2097 H 0.89969 0.30152 0.07925 0.0
C2098 C 0.6441 0.57752 0.10356 0.0
C2099 C 0.62916 0.57884 0.12343 0.0
C2100 C 0.65992 0.5969 0.08812 0.0
C2101 C 0.66038 0.61811 0.09176 0.0
C2102 C 0.64572 0.61986 0.11204 0.0
C2103 C 0.63059 0.60032 0.128 0.0
C2104 C 0.67563 0.59441 0.06711 0.0
C2105 C 0.64512 0.64196 0.11592 0.0
C2106 C 0.71448 0.66822 0.06127 0.0
C2107 C 0.70783 0.66781 0.03293 0.0
C2108 C 0.69866 0.65322 0.08148 0.0
C2109 C 0.67565 0.63787 0.07317 0.0
C2110 C 0.66839 0.639 0.04525 0.0
C2111 C 0.68467 0.65373 0.02531 0.0
C2112 C 0.70705 0.65256 0.11106 0.0
C2113 C 0.64376 0.62361 0.03591 0.0
H2114 H 0.64298 0.56111 0.09915 0.0
H2115 H 0.61959 0.60187 0.14364 0.0
H2116 H 0.67084 0.59637 0.04513 0.0
H2117 H 0.69376 0.60814 0.07057 0.0
H2118 H 0.67466 0.57739 0.06877 0.0
H2119 H 0.63573 0.64166 0.13555 0.0
H2120 H 0.66278 0.6571 0.1167 0.0
H2121 H 0.63626 0.64439 0.09746 0.0
H2122 H 0.73234 0.67928 0.06729 0.0
H2123 H 0.67935 0.6538 0.00356 0.0
H2124 H 0.70777 0.63645 0.1137 0.0
H2125 H 0.69495 0.6524 0.12729 0.0
H2126 H 0.72447 0.66749 0.11522 0.0
H2127 H 0.64035 0.6057 0.03327 0.0
H2128 H 0.64007 0.62934 0.01538 0.0
H2129 H 0.63164 0.62327 0.05225 0.0
C2130 C 0.64908 0.96967 0.98461 0.0
C2131 C 0.66077 0.95784 0.97796 0.0
C2132 C 0.63821 0.97519 0.96299 0.0
C2133 C 0.63902 0.96835 0.9347 0.0
C2134 C 0.65407 0.9601 0.92761 0.0
C2135 C 0.66461 0.95466 0.94947 0.0
C2136 C 0.62378 0.98589 0.97074 0.0
C2137 C 0.65673 0.95425 0.89738 0.0
C2138 C 0.58009 0.93679 0.90136 0.0
C2139 C 0.5813 0.95233 0.88057 0.0
C2140 C 0.59906 0.94174 0.91838 0.0
C2141 C 0.6197 0.96316 0.91523 0.0
C2142 C 0.62147 0.9787 0.8937 0.0
C2143 C 0.60233 0.97292 0.8763 0.0
C2144 C 0.59668 0.92416 0.94035 0.0
C2145 C 0.64295 0.00176 0.88924 0.0
H2146 H 0.64685 0.97289 0.00667 0.0
H2147 H 0.67471 0.94656 0.94433 0.0
H2148 H 0.62523 0.99833 0.9541 0.0
H2149 H 0.60541 0.97219 0.97215 0.0
H2150 H 0.629 0.9949 0.99156 0.0
H2151 H 0.67197 0.95198 0.89486 0.0
H2152 H 0.64111 0.93794 0.89112 0.0
H2153 H 0.6585 0.96798 0.88264 0.0
H2154 H 0.56397 0.92106 0.90533 0.0
H2155 H 0.60377 0.98491 0.85985 0.0
H2156 H 0.5976 0.93114 0.96202 0.0
H2157 H 0.61097 0.9204 0.93822 0.0
H2158 H 0.58013 0.90766 0.9384 0.0
H2159 H 0.63941 0.01563 0.89578 0.0
H2160 H 0.64742 0.00428 0.86627 0.0
H2161 H 0.65805 0.00384 0.90136 0.0
C2162 C 0.03339 0.63246 0.87526 0.0
C2163 C 0.05098 0.6278 0.88272 0.0
C2164 C 0.02971 0.64822 0.89094 0.0
C2165 C 0.04448 0.66019 0.91394 0.0
C2166 C 0.06268 0.65613 0.92099 0.0
C2167 C 0.06551 0.63983 0.90556 0.0
C2168 C 0.00979 0.65168 0.88319 0.0
C2169 C 0.07884 0.66854 0.94543 0.0
C2170 C 0.05306 0.71624 0.94456 0.0
C2171 C 0.04274 0.70884 0.97126 0.0
C2172 C 0.05255 0.70034 0.92468 0.0
C2173 C 0.04088 0.67654 0.93154 0.0
C2174 C 0.02865 0.6689 0.95751 0.0
C2175 C 0.0301 0.6852 0.97733 0.0
C2176 C 0.06599 0.70917 0.89737 0.0
C2177 C 0.01513 0.6436 0.96507 0.0
H2178 H 0.02223 0.62356 0.85741 0.0
H2179 H 0.07875 0.63601 0.9121 0.0
H2180 H -0.00052 0.65026 0.90235 0.0
H2181 H 0.01644 0.66924 0.87436 0.0
H2182 H 0.99824 0.6389 0.8672 0.0
H2183 H 0.09305 0.66459 0.94688 0.0
H2184 H 0.08644 0.68747 0.94307 0.0
H2185 H 0.06913 0.66347 0.96577 0.0
H2186 H 0.06273 0.73455 0.9399 0.0
H2187 H 0.02169 0.67949 0.99782 0.0
H2188 H 0.05538 0.69917 0.87895 0.0
H2189 H 0.08128 0.70685 0.89808 0.0
H2190 H 0.07199 0.72773 0.89383 0.0
H2191 H 0.00425 0.6334 0.94689 0.0
H2192 H 0.00391 0.64035 0.98392 0.0
H2193 H 0.02719 0.63721 0.96983 0.0
C2194 C 0.30048 0.32778 0.95676 0.0
C2195 C 0.28875 0.33637 0.97272 0.0
C2196 C 0.31745 0.34191 0.937 0.0
C2197 C 0.32205 0.36477 0.93269 0.0
C2198 C 0.30936 0.37302 0.94788 0.0
C2199 C 0.29312 0.35882 0.96808 0.0
C2200 C 0.33097 0.33272 0.92158 0.0
C2201 C 0.31348 0.39716 0.94353 0.0
C2202 C 0.37972 0.41431 0.91068 0.0
C2203 C 0.37486 0.41874 0.88325 0.0
C2204 C 0.36311 0.39566 0.92642 0.0
C2205 C 0.34127 0.38098 0.91414 0.0
C2206 C 0.33697 0.38435 0.88555 0.0
C2207 C 0.35379 0.40352 0.87048 0.0
C2208 C 0.36836 0.39274 0.95688 0.0
C2209 C 0.31414 0.36858 0.87153 0.0
H2210 H 0.29713 0.3104 0.96067 0.0
H2211 H 0.28387 0.3653 0.98042 0.0
H2212 H 0.32889 0.33345 0.89828 0.0
H2213 H 0.34961 0.34364 0.92631 0.0
H2214 H 0.32544 0.31464 0.92765 0.0
H2215 H 0.30111 0.40033 0.95568 0.0
H2216 H 0.33121 0.40994 0.95039 0.0
H2217 H 0.312 0.40024 0.92065 0.0
H2218 H 0.39617 0.42619 0.92034 0.0
H2219 H 0.35032 0.40693 0.84905 0.0
H2220 H 0.36311 0.37448 0.96126 0.0
H2221 H 0.35838 0.39755 0.9714 0.0
H2222 H 0.38695 0.40371 0.96197 0.0
H2223 H 0.30879 0.35026 0.87563 0.0
H2224 H 0.31479 0.37139 0.84819 0.0
H2225 H 0.30071 0.37176 0.88071 0.0
C2226 C 0.99882 0.37493 0.39059 0.0
C2227 C 0.00278 0.37233 0.36194 0.0
C2228 C 0.00998 0.36995 0.4121 0.0
C2229 C 0.02562 0.36252 0.40452 0.0
C2230 C 0.02673 0.35631 0.37599 0.0
C2231 C 0.01528 0.36145 0.35474 0.0
C2232 C 0.00746 0.37579 0.4424 0.0
C2233 C 0.0421 0.34683 0.36758 0.0
C2234 C 0.08395 0.39543 0.43925 0.0
C2235 C 0.08318 0.37967 0.4594 0.0
C2236 C 0.06508 0.39001 0.42178 0.0
C2237 C 0.04502 0.368 0.42395 0.0
C2238 C 0.0437 0.35215 0.44474 0.0
C2239 C 0.06271 0.35833 0.46251 0.0
C2240 C 0.06696 0.40776 0.40039 0.0
C2241 C 0.02286 0.32833 0.44743 0.0
H2242 H 0.9882 0.38237 0.39616 0.0
H2243 H 0.01768 0.35874 0.33255 0.0
H2244 H 0.00775 0.36322 0.45751 0.0
H2245 H 0.02211 0.39311 0.44768 0.0
H2246 H 0.9912 0.37614 0.44553 0.0
H2247 H 0.03723 0.33817 0.34651 0.0
H2248 H 0.0602 0.36117 0.36633 0.0
H2249 H 0.04133 0.33437 0.38373 0.0
H2250 H 0.09968 0.41173 0.43615 0.0
H2251 H 0.06168 0.3461 0.47832 0.0
H2252 H 0.05234 0.41098 0.40294 0.0
H2253 H 0.06617 0.40123 0.37849 0.0
H2254 H 0.08326 0.42447 0.40261 0.0
H2255 H 0.00661 0.32829 0.44288 0.0
H2256 H 0.02169 0.32099 0.46897 0.0
H2257 H 0.02438 0.31675 0.43176 0.0
C2258 C 0.61524 0.69341 0.4597 0.0
C2259 C 0.61564 0.71196 0.44555 0.0
C2260 C 0.61754 0.67665 0.44444 0.0
C2261 C 0.62037 0.67877 0.41452 0.0
C2262 C 0.62169 0.69809 0.40043 0.0
C2263 C 0.61923 0.71446 0.41619 0.0
C2264 C 0.61622 0.65634 0.46012 0.0
C2265 C 0.62508 0.70114 0.36864 0.0
C2266 C 0.63941 0.6421 0.37399 0.0
C2267 C 0.61842 0.62521 0.36258 0.0
C2268 C 0.64043 0.65975 0.39113 0.0
C2269 C 0.61982 0.65985 0.39754 0.0
C2270 C 0.59851 0.64233 0.38659 0.0
C2271 C 0.59814 0.62539 0.36881 0.0
C2272 C 0.6635 0.67844 0.40191 0.0
C2273 C 0.57614 0.64165 0.39338 0.0
H2274 H 0.61282 0.6919 0.48256 0.0
H2275 H 0.61988 0.72917 0.40557 0.0
H2276 H 0.6008 0.6402 0.453 0.0
H2277 H 0.63151 0.65469 0.45515 0.0
H2278 H 0.61521 0.6579 0.48353 0.0
H2279 H 0.62764 0.71806 0.36137 0.0
H2280 H 0.6402 0.69969 0.36204 0.0
H2281 H 0.60978 0.68726 0.35761 0.0
H2282 H 0.65505 0.64181 0.36885 0.0
H2283 H 0.58197 0.61214 0.35988 0.0
H2284 H 0.66399 0.67761 0.42544 0.0
H2285 H 0.66614 0.6957 0.39629 0.0
H2286 H 0.67803 0.67683 0.39308 0.0
H2287 H 0.57391 0.64174 0.41675 0.0
H2288 H 0.56097 0.62616 0.38439 0.0
H2289 H 0.57652 0.65726 0.38472 0.0
C2290 C 0.30979 0.90805 0.4366 0.0
C2291 C 0.2962 0.9105 0.45751 0.0
C2292 C 0.32642 0.92709 0.42137 0.0
C2293 C 0.32919 0.94918 0.42644 0.0
C2294 C 0.3161 0.95205 0.44803 0.0
C2295 C 0.29995 0.93271 0.46351 0.0
C2296 C 0.34043 0.92336 0.39898 0.0
C2297 C 0.31803 0.97512 0.45397 0.0
C2298 C 0.38397 0.99753 0.39436 0.0
C2299 C 0.37651 0.99815 0.36674 0.0
C2300 C 0.3684 0.98264 0.41489 0.0
C2301 C 0.34486 0.96862 0.40767 0.0
C2302 C 0.33699 0.97089 0.3806 0.0
C2303 C 0.353 0.98529 0.36023 0.0
C2304 C 0.37734 0.98087 0.44365 0.0
C2305 C 0.31181 0.95725 0.37271 0.0
H2306 H 0.30688 0.89107 0.43118 0.0
H2307 H 0.28994 0.93504 0.47994 0.0
H2308 H 0.33533 0.92611 0.37754 0.0
H2309 H 0.35904 0.93598 0.40171 0.0
H2310 H 0.33799 0.90568 0.39979 0.0
H2311 H 0.31425 0.9765 0.47666 0.0
H2312 H 0.33529 0.9898 0.44869 0.0
H2313 H 0.30512 0.9767 0.44087 0.0
H2314 H 0.40214 0.00771 0.39945 0.0
H2315 H 0.34716 0.98627 0.33905 0.0
H2316 H 0.37591 0.96368 0.44582 0.0
H2317 H 0.36679 0.9824 0.46078 0.0
H2318 H 0.39564 0.99437 0.44683 0.0
H2319 H 0.30661 0.93882 0.36996 0.0
H2320 H 0.30809 0.96351 0.35262 0.0
H2321 H 0.30105 0.9583 0.38996 0.0
C2322 C 0.29885 0.1731 0.00494 0.0
C2323 C 0.30225 0.17496 0.97525 0.0
C2324 C 0.29072 0.18593 0.01956 0.0
C2325 C 0.28685 0.20198 0.00455 0.0
C2326 C 0.29136 0.20493 0.97494 0.0
C2327 C 0.29855 0.19114 0.96059 0.0
C2328 C 0.28572 0.18186 0.05101 0.0
C2329 C 0.28812 0.22236 0.95824 0.0
C2330 C 0.24331 0.21837 0.03112 0.0
C2331 C 0.25753 0.24048 0.04248 0.0
C2332 C 0.25261 0.20542 0.01957 0.0
C2333 C 0.27678 0.21468 0.01939 0.0
C2334 C 0.29119 0.23639 0.03229 0.0
C2335 C 0.2814 0.24902 0.0437 0.0
C2336 C 0.23658 0.18223 0.00638 0.0
C2337 C 0.31703 0.24683 0.0327 0.0
H2338 H 0.30243 0.16148 0.01701 0.0
H2339 H 0.30077 0.19284 0.93776 0.0
H2340 H 0.2957 0.19825 0.0629 0.0
H2341 H 0.26719 0.17564 0.05497 0.0
H2342 H 0.28993 0.16898 0.0597 0.0
H2343 H 0.29442 0.22415 0.93601 0.0
H2344 H 0.26958 0.21709 0.95774 0.0
H2345 H 0.2974 0.2395 0.9687 0.0
H2346 H 0.22486 0.21152 0.03007 0.0
H2347 H 0.2926 0.26608 0.05232 0.0
H2348 H 0.24003 0.16888 0.0152 0.0
H2349 H 0.23968 0.18302 0.98312 0.0
H2350 H 0.21816 0.17673 0.00999 0.0
H2351 H 0.32175 0.23442 0.04164 0.0
H2352 H 0.3257 0.263 0.04535 0.0
H2353 H 0.32377 0.25072 0.01062 0.0
C2354 C 0.80215 0.11589 0.98052 0.0
C2355 C 0.82458 0.12226 0.97202 0.0
C2356 C 0.78837 0.09504 0.99495 0.0
C2357 C 0.79708 0.07999 1.00036 0.0
C2358 C 0.81995 0.08663 0.99225 0.0
C2359 C 0.83352 0.10782 0.97841 0.0
C2360 C 0.76419 0.08876 0.00346 0.0
C2361 C 0.82972 0.0709 0.99705 0.0
C2362 C 0.763 0.02733 0.04822 0.0
C2363 C 0.75076 0.01015 0.0279 0.0
C2364 C 0.77845 0.05024 0.03972 0.0
C2365 C 0.78125 0.05602 0.01037 0.0
C2366 C 0.76871 0.03876 0.98995 0.0
C2367 C 0.75386 0.01617 0.99892 0.0
C2368 C 0.79172 0.06827 0.06202 0.0
C2369 C 0.77076 0.04415 0.95848 0.0
H2370 H 0.79546 0.12733 0.97602 0.0
H2371 H 0.85095 0.11289 0.97192 0.0
H2372 H 0.75161 0.07443 0.98988 0.0
H2373 H 0.76075 0.08267 0.02582 0.0
H2374 H 0.76114 0.10354 1.0012 0.0
H2375 H 0.84844 0.07953 0.9922 0.0
H2376 H 0.82694 0.06477 0.01939 0.0
H2377 H 0.82063 0.05547 0.98322 0.0
H2378 H 0.76061 0.02286 0.07059 0.0
H2379 H 0.7442 0.00323 0.98292 0.0
H2380 H 0.78757 0.08235 0.06061 0.0
H2381 H 0.81049 0.0761 0.05815 0.0
H2382 H 0.78781 0.06102 0.08389 0.0
H2383 H 0.76561 0.05724 0.95415 0.0
H2384 H 0.75983 0.02866 0.94535 0.0
H2385 H 0.78892 0.05154 0.95152 0.0
C2386 C 0.87483 0.68539 0.98974 0.0
C2387 C 0.87303 0.70038 0.97055 0.0
C2388 C 0.89527 0.69232 0.00498 0.0
C2389 C 0.91434 0.71473 1.00072 0.0
C2390 C 0.91244 0.72996 0.98136 0.0
C2391 C 0.8917 0.7226 0.96656 0.0
C2392 C 0.89649 0.67564 0.02555 0.0
C2393 C 0.93241 0.7539 0.97601 0.0
C2394 C 0.96481 0.74297 0.05248 0.0
C2395 C 0.98083 0.73854 0.03905 0.0
C2396 C 0.94255 0.73429 0.04105 0.0
C2397 C 0.93674 0.72181 0.01507 0.0
C2398 C 0.95289 0.71706 1.00184 0.0
C2399 C 0.97461 0.72523 0.01421 0.0
C2400 C 0.9255 0.739 0.05626 0.0
C2401 C 0.94768 0.70432 0.97385 0.0
H2402 H 0.86012 0.66829 0.99296 0.0
H2403 H 0.89002 0.73418 0.9519 0.0
H2404 H 0.90967 0.67136 0.01834 0.0
H2405 H 0.90183 0.68372 0.04686 0.0
H2406 H 0.87973 0.65936 0.0276 0.0
H2407 H 0.92801 0.76372 0.96065 0.0
H2408 H 0.93798 0.76369 0.99624 0.0
H2409 H 0.9473 0.7528 0.96756 0.0
H2410 H 0.9698 0.75345 0.07157 0.0
H2411 H 0.98726 0.7222 0.00365 0.0
H2412 H 0.90879 0.72278 0.05881 0.0
H2413 H 0.92222 0.75096 0.04342 0.0
H2414 H 0.93178 0.74678 0.07758 0.0
H2415 H 0.93167 0.68735 0.97557 0.0
H2416 H 0.96189 0.70148 0.96678 0.0
H2417 H 0.94475 0.71432 0.95718 0.0
C2418 C 0.69563 0.82223 0.00296 0.0
C2419 C 0.69715 0.82332 0.03284 0.0
C2420 C 0.70353 0.80985 0.98712 0.0
C2421 C 0.71219 0.79726 1.00144 0.0
C2422 C 0.7125 0.79705 0.0316 0.0
C2423 C 0.70526 0.81033 0.04697 0.0
C2424 C 0.70328 0.81088 0.95502 0.0
C2425 C 0.72101 0.78322 0.04763 0.0
C2426 C 0.71668 0.74959 0.96345 0.0
C2427 C 0.74061 0.75979 0.95986 0.0
C2428 C 0.70704 0.76181 0.97618 0.0
C2429 C 0.72165 0.7849 0.98492 0.0
C2430 C 0.74556 0.79587 0.97909 0.0
C2431 C 0.75479 0.78312 0.96686 0.0
C2432 C 0.68148 0.74946 0.98217 0.0
C2433 C 0.76159 0.82073 0.98719 0.0
H2434 H 0.68858 0.83144 0.99175 0.0
H2435 H 0.70655 0.811 0.06995 0.0
H2436 H 0.72108 0.8182 0.94669 0.0
H2437 H 0.69298 0.79328 0.94607 0.0
H2438 H 0.69604 0.8216 0.94716 0.0
H2439 H 0.71844 0.7834 0.07095 0.0
H2440 H 0.7119 0.76506 0.04016 0.0
H2441 H 0.73964 0.79033 0.04341 0.0
H2442 H 0.7056 0.73151 0.95834 0.0
H2443 H 0.77328 0.7911 0.96405 0.0
H2444 H 0.6738 0.75988 0.97483 0.0
H2445 H 0.67857 0.74705 0.00546 0.0
H2446 H 0.67223 0.73227 0.97177 0.0
H2447 H 0.75483 0.83181 0.97922 0.0
H2448 H 0.77926 0.82734 0.97866 0.0
H2449 H 0.76265 0.82237 0.0107 0.0
C2450 C 0.24668 0.96691 0.9588 0.0
C2451 C 0.23735 0.98157 0.95689 0.0
C2452 C 0.23403 0.94483 0.971 0.0
C2453 C 0.21145 0.93714 0.98125 0.0
C2454 C 0.20138 0.95119 0.97751 0.0
C2455 C 0.21443 0.97319 0.96539 0.0
C2456 C 0.24537 0.93037 0.97459 0.0
C2457 C 0.17724 0.94351 0.98778 0.0
C2458 C 0.1716 0.87363 0.99758 0.0
C2459 C 0.17236 0.87315 0.02746 0.0
C2460 C 0.18425 0.89424 0.9823 0.0
C2461 C 0.19865 0.91493 0.99707 0.0
C2462 C 0.20015 0.91458 0.02712 0.0
C2463 C 0.18679 0.89379 0.04196 0.0
C2464 C 0.18195 0.89391 0.95033 0.0
C2465 C 0.21566 0.93624 0.04364 0.0
H2466 H 0.26441 0.97323 0.95253 0.0
H2467 H 0.20704 0.98433 0.96395 0.0
H2468 H 0.24827 0.92889 0.99754 0.0
H2469 H 0.23401 0.91265 0.96647 0.0
H2470 H 0.2622 0.93791 0.96339 0.0
H2471 H 0.17129 0.95564 0.98132 0.0
H2472 H 0.165 0.92612 0.97933 0.0
H2473 H 0.17665 0.94225 0.01132 0.0
H2474 H 0.16113 0.85779 0.98592 0.0
H2475 H 0.18745 0.89389 0.06497 0.0
H2476 H 0.19905 0.90042 0.9402 0.0
H2477 H 0.17546 0.90556 0.9438 0.0
H2478 H 0.17003 0.87635 0.942 0.0
H2479 H 0.23352 0.94433 0.03527 0.0
H2480 H 0.21597 0.93282 0.06671 0.0
H2481 H 0.20973 0.94892 0.04098 0.0
C2482 C 0.03345 0.27177 0.95358 0.0
C2483 C 0.0156 0.25568 0.97094 0.0
C2484 C 0.05666 0.28184 0.96233 0.0
C2485 C 0.0619 0.27632 0.98943 0.0
C2486 C 0.04388 0.26023 0.00697 0.0
C2487 C 0.02114 0.24987 0.99732 0.0
C2488 C 0.07553 0.29838 0.9427 0.0
C2489 C 0.04852 0.25432 0.03637 0.0
C2490 C 0.11911 0.28273 0.01191 0.0
C2491 C 0.12864 0.30293 0.02844 0.0
C2492 C 0.09824 0.27488 0.99732 0.0
C2493 C 0.08607 0.287 0.99999 0.0
C2494 C 0.09565 0.30755 0.01628 0.0
C2495 C 0.11689 0.31536 0.03007 0.0
C2496 C 0.08878 0.25304 0.97992 0.0
C2497 C 0.08302 0.32076 0.02017 0.0
H2498 H 0.02928 0.27643 0.93328 0.0
H2499 H 0.00751 0.23782 0.01122 0.0
H2500 H 0.08539 0.31556 0.95291 0.0
H2501 H 0.08783 0.29216 0.93858 0.0
H2502 H 0.06869 0.30039 0.92205 0.0
H2503 H 0.03245 0.2421 0.04775 0.0
H2504 H 0.05967 0.24649 0.03493 0.0
H2505 H 0.05784 0.27025 0.04932 0.0
H2506 H 0.12763 0.27263 0.01082 0.0
H2507 H 0.12424 0.33121 0.04227 0.0
H2508 H 0.08283 0.25548 0.95887 0.0
H2509 H 0.07367 0.2389 0.99094 0.0
H2510 H 0.10176 0.24756 0.97659 0.0
H2511 H 0.07807 0.32459 0.99925 0.0
H2512 H 0.09351 0.33725 0.03177 0.0
H2513 H 0.06689 0.31005 0.03229 0.0
C2514 C 0.97579 0.53064 0.3022 0.0
C2515 C 0.96455 0.50673 0.30708 0.0
C2516 C 0.96848 0.54465 0.31573 0.0
C2517 C 0.95003 0.53473 0.33548 0.0
C2518 C 0.93919 0.51085 0.3413 0.0
C2519 C 0.94605 0.49711 0.32647 0.0
C2520 C 0.98001 0.56993 0.30819 0.0
C2521 C 0.91984 0.4996 0.3627 0.0
C2522 C 0.93911 0.57468 0.38305 0.0
C2523 C 0.92039 0.57425 0.36915 0.0
C2524 C 0.94878 0.56155 0.37275 0.0
C2525 C 0.94009 0.54855 0.34738 0.0
C2526 C 0.92128 0.5482 0.33331 0.0
C2527 C 0.91143 0.56063 0.34464 0.0
C2528 C 0.96822 0.56159 0.38894 0.0
C2529 C 0.91187 0.53516 0.30578 0.0
H2530 H 0.99031 0.53851 0.28776 0.0
H2531 H 0.93651 0.47866 0.32997 0.0
H2532 H 0.96722 0.57379 0.29845 0.0
H2533 H 0.98663 0.58064 0.32763 0.0
H2534 H 0.99453 0.57515 0.29305 0.0
H2535 H 0.91568 0.48174 0.36799 0.0
H2536 H 0.92445 0.50986 0.38261 0.0
H2537 H 0.90411 0.49889 0.35406 0.0
H2538 H 0.94621 0.58527 0.40186 0.0
H2539 H 0.89726 0.5605 0.33337 0.0
H2540 H 0.98396 0.569 0.37557 0.0
H2541 H 0.96366 0.54362 0.39416 0.0
H2542 H 0.97228 0.57168 0.40898 0.0
H2543 H 0.92592 0.54085 0.28986 0.0
H2544 H 0.89801 0.5377 0.29668 0.0
H2545 H 0.90483 0.51644 0.30932 0.0
C2546 C 0.41484 0.36431 0.37267 0.0
C2547 C 0.42395 0.34949 0.3747 0.0
C2548 C 0.42815 0.38683 0.36187 0.0
C2549 C 0.45122 0.39483 0.35337 0.0
C2550 C 0.46103 0.38059 0.35759 0.0
C2551 C 0.44723 0.35806 0.36797 0.0
C2552 C 0.41698 0.4014 0.35764 0.0
C2553 C 0.48574 0.38867 0.3496 0.0
C2554 C 0.47834 0.43893 0.2937 0.0
C2555 C 0.49209 0.45943 0.30878 0.0
C2556 C 0.46443 0.41798 0.308 0.0
C2557 C 0.46462 0.4173 0.33813 0.0
C2558 C 0.47825 0.4379 0.3535 0.0
C2559 C 0.49149 0.45868 0.3387 0.0
C2560 C 0.44979 0.39646 0.2908 0.0
C2561 C 0.47919 0.43793 0.38559 0.0
H2562 H 0.39681 0.3578 0.37757 0.0
H2563 H 0.45443 0.34675 0.36959 0.0
H2564 H 0.42819 0.4191 0.36591 0.0
H2565 H 0.41457 0.40292 0.33456 0.0
H2566 H 0.39992 0.39385 0.36827 0.0
H2567 H 0.49146 0.37656 0.35699 0.0
H2568 H 0.48767 0.39027 0.32614 0.0
H2569 H 0.49735 0.40596 0.35878 0.0
H2570 H 0.47872 0.43907 0.27067 0.0
H2571 H 0.50145 0.47442 0.35075 0.0
H2572 H 0.4316 0.38811 0.29803 0.0
H2573 H 0.4558 0.38391 0.29413 0.0
H2574 H 0.45039 0.40011 0.26768 0.0
H2575 H 0.46167 0.43121 0.39456 0.0
H2576 H 0.49065 0.45543 0.39439 0.0
H2577 H 0.48551 0.42631 0.39288 0.0
C2578 C 0.56409 0.04455 0.29407 0.0
C2579 C 0.54341 0.03785 0.30875 0.0
C2580 C 0.58488 0.05169 0.30875 0.0
C2581 C 0.58524 0.05271 0.33887 0.0
C2582 C 0.56457 0.04619 0.35383 0.0
C2583 C 0.54395 0.03856 0.33868 0.0
C2584 C 0.60651 0.05821 0.29197 0.0
C2585 C 0.56421 0.0473 0.38589 0.0
C2586 C 0.63635 0.05347 0.37552 0.0
C2587 C 0.65162 0.07724 0.37868 0.0
C2588 C 0.61438 0.04516 0.36347 0.0
C2589 C 0.60737 0.06096 0.35463 0.0
C2590 C 0.62206 0.08484 0.35959 0.0
C2591 C 0.64398 0.09268 0.37145 0.0
C2592 C 0.59925 0.01956 0.35857 0.0
C2593 C 0.61512 0.10225 0.35099 0.0
H2594 H 0.56418 0.04448 0.27105 0.0
H2595 H 0.52813 0.03288 0.35049 0.0
H2596 H 0.61944 0.07658 0.29585 0.0
H2597 H 0.61421 0.04774 0.29912 0.0
H2598 H 0.60321 0.05562 0.26874 0.0
H2599 H 0.54682 0.04222 0.39432 0.0
H2600 H 0.56989 0.03574 0.39521 0.0
H2601 H 0.57647 0.06506 0.39321 0.0
H2602 H 0.64209 0.04138 0.38079 0.0
H2603 H 0.65559 0.11107 0.37383 0.0
H2604 H 0.59756 0.01599 0.33539 0.0
H2605 H 0.58168 0.01347 0.36703 0.0
H2606 H 0.60633 0.00943 0.36869 0.0
H2607 H 0.61402 0.10265 0.32748 0.0
H2608 H 0.62757 0.11992 0.35854 0.0
H2609 H 0.59782 0.09724 0.35959 0.0
C2610 C 0.41675 0.11334 0.28935 0.0
C2611 C 0.40464 0.08938 0.29317 0.0
C2612 C 0.40817 0.12715 0.30025 0.0
C2613 C 0.38754 0.11681 0.3164 0.0
C2614 C 0.37478 0.0925 0.31926 0.0
C2615 C 0.3833 0.07905 0.30718 0.0
C2616 C 0.42182 0.15292 0.29579 0.0
C2617 C 0.35297 0.0808 0.33678 0.0
C2618 C 0.38142 0.15266 0.375 0.0
C2619 C 0.36647 0.15898 0.36243 0.0
C2620 C 0.3886 0.13914 0.36009 0.0
C2621 C 0.38028 0.13146 0.33216 0.0
C2622 C 0.36492 0.13759 0.31957 0.0
C2623 C 0.35834 0.15142 0.33479 0.0
C2624 C 0.40515 0.13312 0.37418 0.0
C2625 C 0.35542 0.12954 0.29006 0.0
H2626 H 0.4333 0.12134 0.27863 0.0
H2627 H 0.37413 0.06055 0.31066 0.0
H2628 H 0.41036 0.15943 0.28851 0.0
H2629 H 0.42958 0.16158 0.31625 0.0
H2630 H 0.43584 0.15793 0.27995 0.0
H2631 H 0.34418 0.0617 0.33517 0.0
H2632 H 0.35719 0.0857 0.35946 0.0
H2633 H 0.34082 0.08658 0.32999 0.0
H2634 H 0.3878 0.15864 0.3963 0.0
H2635 H 0.34658 0.15616 0.32519 0.0
H2636 H 0.42104 0.1397 0.3612 0.0
H2637 H 0.39729 0.11411 0.37554 0.0
H2638 H 0.41004 0.14047 0.39593 0.0
H2639 H 0.36976 0.13555 0.27453 0.0
H2640 H 0.34372 0.13593 0.28328 0.0
H2641 H 0.34577 0.11041 0.28927 0.0
C2642 C 0.85829 0.20936 0.34387 0.0
C2643 C 0.84034 0.20603 0.36204 0.0
C2644 C 0.87205 0.23068 0.33037 0.0
C2645 C 0.86771 0.24906 0.33524 0.0
C2646 C 0.84907 0.24544 0.35303 0.0
C2647 C 0.83559 0.22391 0.36627 0.0
C2648 C 0.89184 0.23381 0.31188 0.0
C2649 C 0.84391 0.26457 0.35893 0.0
C2650 C 0.91804 0.31019 0.33389 0.0
C2651 C 0.91512 0.31864 0.30783 0.0
C2652 C 0.90307 0.28751 0.34257 0.0
C2653 C 0.88438 0.27276 0.32492 0.0
C2654 C 0.88161 0.28091 0.29814 0.0
C2655 C 0.89722 0.30382 0.28972 0.0
C2656 C 0.90704 0.27955 0.37102 0.0
C2657 C 0.86183 0.26564 0.27883 0.0
H2658 H 0.86175 0.19534 0.34058 0.0
H2659 H 0.82154 0.22112 0.38026 0.0
H2660 H 0.89158 0.24164 0.29121 0.0
H2661 H 0.9084 0.24578 0.32244 0.0
H2662 H 0.8914 0.21724 0.3078 0.0
H2663 H 0.82753 0.25837 0.37083 0.0
H2664 H 0.85811 0.27828 0.37162 0.0
H2665 H 0.84286 0.27253 0.33871 0.0
H2666 H 0.9321 0.32154 0.34778 0.0
H2667 H 0.89494 0.31035 0.26963 0.0
H2668 H 0.90835 0.26378 0.3683 0.0
H2669 H 0.8922 0.27506 0.38531 0.0
H2670 H 0.92296 0.29292 0.38163 0.0
H2671 H 0.86196 0.24943 0.27433 0.0
H2672 H 0.86249 0.27422 0.25835 0.0
H2673 H 0.84527 0.26078 0.28958 0.0
C2674 C 0.69999 0.60889 0.28524 0.0
C2675 C 0.6818 0.58944 0.29821 0.0
C2676 C 0.7226 0.61873 0.29596 0.0
C2677 C 0.72682 0.60944 0.32085 0.0
C2678 C 0.70845 0.58987 0.33399 0.0
C2679 C 0.68634 0.57989 0.32222 0.0
C2680 C 0.74194 0.63907 0.28077 0.0
C2681 C 0.71196 0.57988 0.36109 0.0
C2682 C 0.78527 0.61823 0.34204 0.0
C2683 C 0.79316 0.63652 0.36168 0.0
C2684 C 0.76448 0.61036 0.32728 0.0
C2685 C 0.75032 0.61991 0.33344 0.0
C2686 C 0.75777 0.63797 0.35358 0.0
C2687 C 0.77927 0.6464 0.36691 0.0
C2688 C 0.75749 0.59149 0.30538 0.0
C2689 C 0.74278 0.64806 0.36156 0.0
H2690 H 0.69654 0.61639 0.2668 0.0
H2691 H 0.67232 0.56515 0.33277 0.0
H2692 H 0.74937 0.65445 0.29478 0.0
H2693 H 0.75596 0.63538 0.27571 0.0
H2694 H 0.73608 0.64332 0.26075 0.0
H2695 H 0.69564 0.5652 0.36929 0.0
H2696 H 0.72437 0.57376 0.35744 0.0
H2697 H 0.71937 0.59341 0.37776 0.0
H2698 H 0.79508 0.60967 0.33822 0.0
H2699 H 0.78512 0.6608 0.38145 0.0
H2700 H 0.75194 0.59619 0.28546 0.0
H2701 H 0.74264 0.57527 0.31337 0.0
H2702 H 0.77173 0.58811 0.30029 0.0
H2703 H 0.73959 0.65592 0.34263 0.0
H2704 H 0.75069 0.66142 0.37841 0.0
H2705 H 0.72578 0.63419 0.36925 0.0
C2706 C 0.6453 0.86159 0.64382 0.0
C2707 C 0.63048 0.83759 0.64332 0.0
C2708 C 0.63841 0.87636 0.6561 0.0
C2709 C 0.61618 0.86695 0.66836 0.0
C2710 C 0.60138 0.84273 0.6686 0.0
C2711 C 0.60862 0.82839 0.65593 0.0
C2712 C 0.65464 0.90209 0.65507 0.0
C2713 C 0.57753 0.83196 0.68133 0.0
C2714 C 0.60253 0.90634 0.71343 0.0
C2715 C 0.59131 0.91293 0.6935 0.0
C2716 C 0.61039 0.89101 0.70584 0.0
C2717 C 0.60731 0.88245 0.67761 0.0
C2718 C 0.5957 0.88877 0.65766 0.0
C2719 C 0.58765 0.90358 0.6659 0.0
C2720 C 0.62236 0.8843 0.72782 0.0
C2721 C 0.5923 0.8804 0.62721 0.0
H2722 H 0.66235 0.86886 0.63456 0.0
H2723 H 0.59685 0.80995 0.65532 0.0
H2724 H 0.64736 0.9102 0.64106 0.0
H2725 H 0.65662 0.9097 0.67655 0.0
H2726 H 0.67195 0.90658 0.64689 0.0
H2727 H 0.56916 0.81287 0.68272 0.0
H2728 H 0.57827 0.83895 0.70295 0.0
H2729 H 0.56654 0.83633 0.66811 0.0
H2730 H 0.60557 0.91348 0.73471 0.0
H2731 H 0.57905 0.90842 0.65014 0.0
H2732 H 0.64049 0.89074 0.72133 0.0
H2733 H 0.61388 0.86523 0.72931 0.0
H2734 H 0.62228 0.89133 0.74919 0.0
H2735 H 0.60927 0.88606 0.61709 0.0
H2736 H 0.58293 0.88697 0.61428 0.0
H2737 H 0.5825 0.86128 0.6266 0.0
C2738 C 0.10284 0.68643 0.67267 0.0
C2739 C 0.09131 0.68146 0.69892 0.0
C2740 C 0.11552 0.70903 0.66241 0.0
C2741 C 0.1176 0.72749 0.67922 0.0
C2742 C 0.10665 0.72281 0.70621 0.0
C2743 C 0.09319 0.69975 0.71552 0.0
C2744 C 0.12622 0.71305 0.63314 0.0
C2745 C 0.10913 0.74213 0.72513 0.0
C2746 C 0.16907 0.78445 0.65668 0.0
C2747 C 0.1588 0.79432 0.64003 0.0
C2748 C 0.15572 0.76353 0.67115 0.0
C2749 C 0.13147 0.75153 0.66813 0.0
C2750 C 0.12092 0.76131 0.65144 0.0
C2751 C 0.13466 0.78265 0.63787 0.0
C2752 C 0.16769 0.75393 0.68906 0.0
C2753 C 0.09515 0.74885 0.64708 0.0
H2754 H 0.10113 0.67244 0.65934 0.0
H2755 H 0.0842 0.69602 0.73571 0.0
H2756 H 0.11998 0.72242 0.61967 0.0
H2757 H 0.14521 0.72396 0.63468 0.0
H2758 H 0.12213 0.6967 0.62227 0.0
H2759 H 0.10047 0.73574 0.746 0.0
H2760 H 0.12765 0.75459 0.72885 0.0
H2761 H 0.10167 0.7517 0.71453 0.0
H2762 H 0.18765 0.79282 0.65815 0.0
H2763 H 0.12642 0.7902 0.62557 0.0
H2764 H 0.16644 0.73852 0.67851 0.0
H2765 H 0.15918 0.74836 0.71012 0.0
H2766 H 0.1862 0.76671 0.69238 0.0
H2767 H 0.08973 0.7326 0.6352 0.0
H2768 H 0.08947 0.75941 0.63504 0.0
H2769 H 0.08611 0.74409 0.66785 0.0
C2770 C 0.30412 0.38603 0.69414 0.0
C2771 C 0.31443 0.4073 0.70835 0.0
C2772 C 0.28224 0.37696 0.68167 0.0
C2773 C 0.27004 0.38909 0.68429 0.0
C2774 C 0.27975 0.40982 0.70026 0.0
C2775 C 0.30206 0.41894 0.7116 0.0
C2776 C 0.2728 0.35512 0.66429 0.0
C2777 C 0.26697 0.42286 0.70437 0.0
C2778 C 0.22645 0.38055 0.62673 0.0
C2779 C 0.20558 0.36531 0.64004 0.0
C2780 C 0.24754 0.38855 0.64099 0.0
C2781 C 0.24774 0.38078 0.66902 0.0
C2782 C 0.22667 0.36508 0.68231 0.0
C2783 C 0.20585 0.3577 0.66774 0.0
C2784 C 0.2696 0.40539 0.62612 0.0
C2785 C 0.22611 0.35608 0.7119 0.0
H2786 H 0.31384 0.37723 0.69105 0.0
H2787 H 0.31007 0.43545 0.72243 0.0
H2788 H 0.25511 0.34244 0.67135 0.0
H2789 H 0.2717 0.35909 0.64162 0.0
H2790 H 0.28374 0.34701 0.66576 0.0
H2791 H 0.27592 0.43746 0.71948 0.0
H2792 H 0.26524 0.42975 0.68364 0.0
H2793 H 0.24932 0.41111 0.71243 0.0
H2794 H 0.22621 0.38652 0.60537 0.0
H2795 H 0.18968 0.3457 0.6779 0.0
H2796 H 0.28123 0.39809 0.62465 0.0
H2797 H 0.27872 0.42158 0.63863 0.0
H2798 H 0.2665 0.40969 0.60435 0.0
H2799 H 0.23618 0.34704 0.71249 0.0
H2800 H 0.20829 0.34395 0.71922 0.0
H2801 H 0.23429 0.37067 0.72712 0.0
C2802 C 0.01979 0.47787 0.67497 0.0
C2803 C 0.03152 0.49119 0.69871 0.0
C2804 C 0.02742 0.46438 0.66092 0.0
C2805 C 0.04749 0.46451 0.67063 0.0
C2806 C 0.05956 0.47824 0.69449 0.0
C2807 C 0.05131 0.49132 0.7084 0.0
C2808 C 0.01391 0.44987 0.6358 0.0
C2809 C 0.0811 0.47901 0.70542 0.0
C2810 C 0.05476 0.41297 0.65322 0.0
C2811 C 0.07179 0.42194 0.63207 0.0
C2812 C 0.04674 0.42664 0.66592 0.0
C2813 C 0.05536 0.44962 0.65654 0.0
C2814 C 0.07185 0.45842 0.63424 0.0
C2815 C 0.0803 0.44463 0.62273 0.0
C2816 C 0.02974 0.41676 0.69017 0.0
C2817 C 0.08087 0.48254 0.62296 0.0
H2818 H 0.00449 0.47791 0.66754 0.0
H2819 H 0.06044 0.50186 0.72663 0.0
H2820 H 0.02535 0.45411 0.61701 0.0
H2821 H 0.00705 0.43135 0.64065 0.0
H2822 H -0.00075 0.45245 0.63019 0.0
H2823 H 0.08883 0.49105 0.72364 0.0
H2824 H 0.07705 0.46151 0.71228 0.0
H2825 H 0.09411 0.48447 0.68819 0.0
H2826 H 0.0486 0.39558 0.66094 0.0
H2827 H 0.09364 0.45161 0.60659 0.0
H2828 H 0.01404 0.41768 0.6852 0.0
H2829 H 0.03742 0.42714 0.70968 0.0
H2830 H 0.02459 0.39853 0.6948 0.0
H2831 H 0.06631 0.48502 0.61658 0.0
H2832 H 0.09245 0.48627 0.60437 0.0
H2833 H 0.0905 0.4953 0.63991 0.0
C2834 C 0.49701 0.5581 0.68508 0.0
C2835 C 0.50678 0.54711 0.70048 0.0
C2836 C 0.51086 0.5793 0.67117 0.0
C2837 C 0.53519 0.59018 0.67301 0.0
C2838 C 0.54519 0.57939 0.6888 0.0
C2839 C 0.53095 0.55801 0.7021 0.0
C2840 C 0.49943 0.59005 0.6544 0.0
C2841 C 0.57102 0.5904 0.6916 0.0
C2842 C 0.57302 0.63565 0.61806 0.0
C2843 C 0.57951 0.65633 0.63263 0.0
C2844 C 0.5584 0.61404 0.63074 0.0
C2845 C 0.55016 0.61299 0.65881 0.0
C2846 C 0.5565 0.63381 0.6735 0.0
C2847 C 0.57093 0.65514 0.66022 0.0
C2848 C 0.55198 0.59231 0.61421 0.0
C2849 C 0.5484 0.63357 0.70354 0.0
H2850 H 0.47845 0.55025 0.68398 0.0
H2851 H 0.53886 0.54965 0.71338 0.0
H2852 H 0.50405 0.6071 0.66358 0.0
H2853 H 0.50574 0.59303 0.63212 0.0
H2854 H 0.48036 0.5791 0.65422 0.0
H2855 H 0.57612 0.57997 0.70489 0.0
H2856 H 0.57896 0.59269 0.67027 0.0
H2857 H 0.57824 0.60779 0.70124 0.0
H2858 H 0.57957 0.63632 0.59679 0.0
H2859 H 0.57591 0.67093 0.67181 0.0
H2860 H 0.53296 0.58148 0.61281 0.0
H2861 H 0.55835 0.58202 0.62545 0.0
H2862 H 0.55922 0.59601 0.59234 0.0
H2863 H 0.5293 0.62398 0.70437 0.0
H2864 H 0.55473 0.65122 0.71203 0.0
H2865 H 0.55449 0.62445 0.7177 0.0
C2866 C 0.36154 0.91437 0.63024 0.0
C2867 C 0.35144 0.9283 0.62835 0.0
C2868 C 0.38396 0.92318 0.64096 0.0
C2869 C 0.39626 0.94624 0.65089 0.0
C2870 C 0.3866 0.9607 0.64768 0.0
C2871 C 0.36442 0.95163 0.63606 0.0
C2872 C 0.39401 0.90746 0.64304 0.0
C2873 C 0.39896 0.98527 0.65837 0.0
C2874 C 0.4391 0.95821 0.71069 0.0
C2875 C 0.46016 0.96909 0.69612 0.0
C2876 C 0.41822 0.95101 0.69626 0.0
C2877 C 0.41839 0.95465 0.66652 0.0
C2878 C 0.43963 0.96598 0.65181 0.0
C2879 C 0.46022 0.97318 0.66679 0.0
C2880 C 0.39592 0.93917 0.71279 0.0
C2881 C 0.44061 0.97016 0.62015 0.0
H2882 H 0.35156 0.89633 0.62429 0.0
H2883 H 0.35659 0.96241 0.63503 0.0
H2884 H 0.41178 0.91611 0.63433 0.0
H2885 H 0.39506 0.90346 0.6657 0.0
H2886 H 0.38347 0.89097 0.63145 0.0
H2887 H 0.39001 0.9948 0.6522 0.0
H2888 H 0.40007 0.98526 0.68192 0.0
H2889 H 0.41684 0.9947 0.65008 0.0
H2890 H 0.43887 0.95482 0.73326 0.0
H2891 H 0.47647 0.982 0.65545 0.0
H2892 H 0.38505 0.92127 0.70491 0.0
H2893 H 0.38612 0.94831 0.7095 0.0
H2894 H 0.39878 0.93852 0.73595 0.0
H2895 H 0.43093 0.95345 0.6088 0.0
H2896 H 0.45856 0.97941 0.61193 0.0
H2897 H 0.43226 0.98042 0.61494 0.0
C2898 C 0.31984 0.38301 0.12361 0.0
C2899 C 0.32005 0.3658 0.10699 0.0
C2900 C 0.34012 0.40069 0.1357 0.0
C2901 C 0.36142 0.40214 0.12909 0.0
C2902 C 0.36176 0.38501 0.1116 0.0
C2903 C 0.34095 0.36658 0.1016 0.0
C2904 C 0.33825 0.41765 0.15512 0.0
C2905 C 0.38414 0.38679 0.10206 0.0
C2906 C 0.41561 0.46022 0.12549 0.0
C2907 C 0.43011 0.45666 0.14378 0.0
C2908 C 0.39266 0.44303 0.12147 0.0
C2909 C 0.38356 0.42254 0.13772 0.0
C2910 C 0.39692 0.42073 0.15979 0.0
C2911 C 0.42032 0.43755 0.16209 0.0
C2912 C 0.37881 0.4461 0.09831 0.0
C2913 C 0.38689 0.40042 0.17984 0.0
H2914 H 0.30375 0.38263 0.12711 0.0
H2915 H 0.34113 0.35347 0.08824 0.0
H2916 H 0.35501 0.43121 0.16369 0.0
H2917 H 0.32991 0.42601 0.14357 0.0
H2918 H 0.32692 0.40814 0.17334 0.0
H2919 H 0.38141 0.37321 0.08641 0.0
H2920 H 0.39545 0.40392 0.09223 0.0
H2921 H 0.39346 0.38521 0.12059 0.0
H2922 H 0.42274 0.47564 0.11248 0.0
H2923 H 0.43113 0.43483 0.17687 0.0
H2924 H 0.36369 0.44619 0.10776 0.0
H2925 H 0.37227 0.43148 0.08309 0.0
H2926 H 0.38904 0.46244 0.08631 0.0
H2927 H 0.3689 0.3954 0.1856 0.0
H2928 H 0.39728 0.40433 0.19959 0.0
H2929 H 0.38655 0.3854 0.16939 0.0
C2930 C 0.54051 0.9548 0.14477 0.0
C2931 C 0.54924 0.97864 0.14376 0.0
C2932 C 0.5552 0.94568 0.14078 0.0
C2933 C 0.57878 0.96083 0.13458 0.0
C2934 C 0.58775 0.985 0.13521 0.0
C2935 C 0.57284 0.99359 0.1401 0.0
C2936 C 0.54527 0.91989 0.14167 0.0
C2937 C 0.61272 0.00178 0.12847 0.0
C2938 C 0.62752 0.94784 0.13233 0.0
C2939 C 0.62848 0.94378 0.10326 0.0
C2940 C 0.60971 0.95077 0.14339 0.0
C2941 C 0.5938 0.9518 0.12457 0.0
C2942 C 0.59456 0.94747 0.09518 0.0
C2943 C 0.61153 0.94284 0.08503 0.0
C2944 C 0.60865 0.95375 0.17505 0.0
C2945 C 0.57858 0.94939 0.07413 0.0
H2946 H 0.52211 0.94333 0.14723 0.0
H2947 H 0.57932 0.01202 0.13885 0.0
H2948 H 0.54361 0.91315 0.11974 0.0
H2949 H 0.55689 0.9155 0.15352 0.0
H2950 H 0.52796 0.91097 0.15178 0.0
H2951 H 0.6169 0.02003 0.12999 0.0
H2952 H 0.62409 0.9992 0.14328 0.0
H2953 H 0.61677 0.99862 0.1066 0.0
H2954 H 0.6407 0.9487 0.14648 0.0
H2955 H 0.61245 0.94 0.06247 0.0
H2956 H 0.59071 0.9473 0.18242 0.0
H2957 H 0.619 0.97232 0.18052 0.0
H2958 H 0.61589 0.94444 0.18682 0.0
H2959 H 0.56037 0.93798 0.08045 0.0
H2960 H 0.58095 0.9448 0.05217 0.0
H2961 H 0.58177 0.96735 0.074 0.0
C2962 C 0.04399 0.67914 0.13756 0.0
C2963 C 0.04305 0.68051 0.1079 0.0
C2964 C 0.04058 0.6588 0.15071 0.0
C2965 C 0.03452 0.63905 0.13385 0.0
C2966 C 0.03281 0.64024 0.10391 0.0
C2967 C 0.03772 0.66116 0.09128 0.0
C2968 C 0.04382 0.65857 0.18244 0.0
C2969 C 0.02549 0.61935 0.08517 0.0
C2970 C 0.03965 0.58669 0.14951 0.0
C2971 C 0.01653 0.57023 0.15431 0.0
C2972 C 0.04643 0.61006 0.14625 0.0
C2973 C 0.02948 0.6168 0.14697 0.0
C2974 C 0.00654 0.60052 0.15476 0.0
C2975 C 0.00038 0.57735 0.15859 0.0
C2976 C 0.07121 0.62699 0.13896 0.0
C2977 C 0.98784 0.60682 0.15543 0.0
H2978 H 0.04804 0.69417 0.15037 0.0
H2979 H 0.03667 0.66219 0.06835 0.0
H2980 H 0.02748 0.6457 0.19268 0.0
H2981 H 0.0568 0.65333 0.18707 0.0
H2982 H 0.04958 0.6757 0.19228 0.0
H2983 H 0.02346 0.62285 0.06257 0.0
H2984 H 0.03846 0.6137 0.08623 0.0
H2985 H 0.00887 0.6048 0.09276 0.0
H2986 H 0.05207 0.58103 0.14607 0.0
H2987 H 0.98244 0.56446 0.16195 0.0
H2988 H 0.07688 0.64402 0.14894 0.0
H2989 H 0.07296 0.62954 0.11558 0.0
H2990 H 0.08288 0.62061 0.14589 0.0
H2991 H 0.99388 0.62366 0.16606 0.0
H2992 H 0.97214 0.59353 0.16652 0.0
H2993 H 0.98309 0.60843 0.13328 0.0
C2994 C 0.67937 0.63476 0.86833 0.0
C2995 C 0.68372 0.63346 0.89722 0.0
C2996 C 0.65951 0.61718 0.85527 0.0
C2997 C 0.6429 0.59881 0.87201 0.0
C2998 C 0.64735 0.59734 0.90119 0.0
C2999 C 0.668 0.61442 0.91324 0.0
C3000 C 0.656 0.61864 0.8238 0.0
C3001 C 0.62971 0.57856 0.92014 0.0
C3002 C 0.57954 0.57298 0.85713 0.0
C3003 C 0.57313 0.55 0.85183 0.0
C3004 C 0.60258 0.58951 0.86201 0.0
C3005 C 0.61963 0.58295 0.86044 0.0
C3006 C 0.61345 0.56026 0.85193 0.0
C3007 C 0.59004 0.54377 0.8484 0.0
C3008 C 0.60819 0.61323 0.87199 0.0
C3009 C 0.63133 0.55301 0.84862 0.0
H3010 H 0.69162 0.64942 0.85585 0.0
H3011 H 0.67128 0.61348 0.93564 0.0
H3012 H 0.64925 0.60148 0.81365 0.0
H3013 H 0.64313 0.6242 0.82035 0.0
H3014 H 0.67225 0.63117 0.81298 0.0
H3015 H 0.63596 0.57984 0.94231 0.0
H3016 H 0.61369 0.5796 0.92061 0.0
H3017 H 0.62512 0.56134 0.91165 0.0
H3018 H 0.56623 0.57749 0.86033 0.0
H3019 H 0.58488 0.52584 0.84467 0.0
H3020 H 0.62244 0.62679 0.85926 0.0
H3021 H 0.61399 0.61562 0.89447 0.0
H3022 H 0.59312 0.61587 0.87057 0.0
H3023 H 0.64667 0.56647 0.83716 0.0
H3024 H 0.62442 0.53642 0.83693 0.0
H3025 H 0.63715 0.55083 0.86987 0.0
C3026 C 0.36382 0.04297 0.86716 0.0
C3027 C 0.36311 0.04575 0.89662 0.0
C3028 C 0.38105 0.03962 0.85485 0.0
C3029 C 0.39679 0.03728 0.87264 0.0
C3030 C 0.396 0.03995 0.90247 0.0
C3031 C 0.37953 0.04473 0.91399 0.0
C3032 C 0.38238 0.03857 0.82289 0.0
C3033 C 0.41214 0.03713 0.92234 0.0
C3034 C 0.42278 0.00035 0.85326 0.0
C3035 C 0.4462 0.01688 0.85232 0.0
C3036 C 0.40615 0.00689 0.85771 0.0
C3037 C 0.41321 0.0306 0.86069 0.0
C3038 C 0.43669 0.04745 0.85663 0.0
C3039 C 0.45301 0.04034 0.85301 0.0
C3040 C 0.38143 0.98831 0.86244 0.0
C3041 C 0.44505 0.07293 0.85861 0.0
H3042 H 0.35118 0.04388 0.8537 0.0
H3043 H 0.37889 0.04672 0.93681 0.0
H3044 H 0.40051 0.04908 0.81562 0.0
H3045 H 0.37607 0.02053 0.81609 0.0
H3046 H 0.37185 0.04492 0.81214 0.0
H3047 H 0.4083 0.03832 0.94507 0.0
H3048 H 0.41095 0.02017 0.91876 0.0
H3049 H 0.43018 0.05067 0.91798 0.0
H3050 H 0.41769 0.9822 0.85327 0.0
H3051 H 0.47123 0.05309 0.85266 0.0
H3052 H 0.36957 0.99184 0.84982 0.0
H3053 H 0.37694 0.98814 0.8852 0.0
H3054 H 0.37842 0.97092 0.85669 0.0
H3055 H 0.46027 0.08291 0.84467 0.0
H3056 H 0.45048 0.0788 0.88078 0.0
H3057 H 0.43144 0.07699 0.85264 0.0
C3058 C 0.94103 0.32676 0.90995 0.0
C3059 C 0.95031 0.31428 0.8971 0.0
C3060 C 0.94541 0.34803 0.8989 0.0
C3061 C 0.95914 0.35693 0.87415 0.0
C3062 C 0.96687 0.34347 0.85971 0.0
C3063 C 0.96259 0.3224 0.87154 0.0
C3064 C 0.9368 0.36177 0.91502 0.0
C3065 C 0.98081 0.35194 0.83269 0.0
C3066 C 0.96384 0.41292 0.84754 0.0
C3067 C 0.98363 0.42909 0.86202 0.0
C3068 C 0.95628 0.38917 0.84957 0.0
C3069 C 0.96872 0.3817 0.86676 0.0
C3070 C 0.98952 0.39824 0.87981 0.0
C3071 C 0.99677 0.42168 0.87706 0.0
C3072 C 0.9343 0.37212 0.83481 0.0
C3073 C 0.0033 0.39119 0.89852 0.0
H3074 H 0.93123 0.32043 0.92947 0.0
H3075 H 0.96935 0.31257 0.86112 0.0
H3076 H 0.95162 0.37708 0.92483 0.0
H3077 H 0.92823 0.36812 0.90038 0.0
H3078 H 0.92446 0.35149 0.93213 0.0
H3079 H 0.98158 0.33782 0.82125 0.0
H3080 H 0.97343 0.35971 0.81829 0.0
H3081 H 0.99866 0.36553 0.8379 0.0
H3082 H 0.95365 0.41871 0.83601 0.0
H3083 H 0.01215 0.4343 0.88814 0.0
H3084 H 0.9199 0.36512 0.85034 0.0
H3085 H 0.93562 0.3574 0.82615 0.0
H3086 H 0.92995 0.38037 0.81723 0.0
H3087 H 0.99295 0.38188 0.91748 0.0
H3088 H 0.01969 0.40623 0.90588 0.0
H3089 H 0.0074 0.37926 0.88692 0.0
C3090 C 0.99449 0.7208 0.4304 0.0
C3091 C 0.9811 0.69942 0.44377 0.0
C3092 C 0.01549 0.73754 0.4421 0.0
C3093 C 0.02306 0.73299 0.46816 0.0
C3094 C 0.0089 0.71201 0.48267 0.0
C3095 C 0.98811 0.69538 0.4702 0.0
C3096 C 0.03034 0.75937 0.42544 0.0
C3097 C 0.01583 0.70686 0.51106 0.0
C3098 C 0.08764 0.76008 0.47209 0.0
C3099 C 0.09402 0.78134 0.48482 0.0
C3100 C 0.06448 0.74372 0.46784 0.0
C3101 C 0.04724 0.74846 0.47741 0.0
C3102 C 0.05358 0.76898 0.49286 0.0
C3103 C 0.07708 0.78553 0.49591 0.0
C3104 C 0.05857 0.72218 0.45107 0.0
C3105 C 0.03567 0.77413 0.50454 0.0
H3106 H 0.9891 0.72407 0.41005 0.0
H3107 H 0.9775 0.67908 0.48096 0.0
H3108 H 0.0354 0.77474 0.43895 0.0
H3109 H 0.0464 0.75978 0.41861 0.0
H3110 H 0.02145 0.76074 0.40624 0.0
H3111 H 0.00633 0.68811 0.5158 0.0
H3112 H 0.03455 0.71296 0.51205 0.0
H3113 H 0.0119 0.71597 0.52795 0.0
H3114 H 0.10091 0.75712 0.46327 0.0
H3115 H 0.08213 0.80215 0.50542 0.0
H3116 H 0.04971 0.722 0.43105 0.0
H3117 H 0.04659 0.70662 0.46342 0.0
H3118 H 0.07406 0.72098 0.44557 0.0
H3119 H 0.0293 0.78075 0.48724 0.0
H3120 H 0.0429 0.78741 0.52156 0.0
H3121 H 0.02071 0.75827 0.51318 0.0
C3122 C 0.30109 0.30724 0.43754 0.0
C3123 C 0.29908 0.28543 0.43786 0.0
C3124 C 0.2833 0.31046 0.44802 0.0
C3125 C 0.26386 0.29175 0.46118 0.0
C3126 C 0.26243 0.26995 0.46295 0.0
C3127 C 0.27966 0.26687 0.45019 0.0
C3128 C 0.28498 0.33363 0.44364 0.0
C3129 C 0.24299 0.24995 0.47852 0.0
C3130 C 0.22953 0.3163 0.49517 0.0
C3131 C 0.21175 0.30956 0.47526 0.0
C3132 C 0.24513 0.30808 0.49307 0.0
C3133 C 0.24387 0.29443 0.46929 0.0
C3134 C 0.22465 0.28595 0.45081 0.0
C3135 C 0.20804 0.29233 0.45547 0.0
C3136 C 0.26361 0.31527 0.5154 0.0
C3137 C 0.22196 0.27146 0.4248 0.0
H3138 H 0.31601 0.32153 0.42763 0.0
H3139 H 0.27801 0.24996 0.4499 0.0
H3140 H 0.26835 0.33151 0.43599 0.0
H3141 H 0.2892 0.34309 0.46409 0.0
H3142 H 0.29862 0.34448 0.42808 0.0
H3143 H 0.24145 0.23325 0.47231 0.0
H3144 H 0.24643 0.25246 0.50171 0.0
H3145 H 0.22616 0.24883 0.4748 0.0
H3146 H 0.23216 0.32894 0.51133 0.0
H3147 H 0.19326 0.28558 0.4414 0.0
H3148 H 0.27741 0.33329 0.51144 0.0
H3149 H 0.27132 0.30394 0.51567 0.0
H3150 H 0.25638 0.3149 0.53678 0.0
H3151 H 0.21293 0.27506 0.40746 0.0
H3152 H 0.21119 0.25294 0.43035 0.0
H3153 H 0.23863 0.27439 0.41626 0.0
C3154 C 0.69846 0.99471 0.44022 0.0
C3155 C 0.7201 0.01433 0.4363 0.0
C3156 C 0.69643 0.97389 0.4497 0.0
C3157 C 0.71649 0.97312 0.45754 0.0
C3158 C 0.73839 0.99327 0.45479 0.0
C3159 C 0.73996 0.01337 0.44313 0.0
C3160 C 0.6728 0.95256 0.45 0.0
C3161 C 0.76012 0.99346 0.46366 0.0
C3162 C 0.69499 0.91638 0.49613 0.0
C3163 C 0.69711 0.90302 0.47467 0.0
C3164 C 0.70438 0.94033 0.49246 0.0
C3165 C 0.71436 0.95061 0.46591 0.0
C3166 C 0.71871 0.93757 0.44562 0.0
C3167 C 0.71143 0.91442 0.45132 0.0
C3168 C 0.70209 0.95412 0.51632 0.0
C3169 C 0.72906 0.94675 0.41663 0.0
H3170 H 0.68311 0.99531 0.43446 0.0
H3171 H 0.75671 0.02844 0.43958 0.0
H3172 H 0.6734 0.93757 0.44082 0.0
H3173 H 0.66656 0.9482 0.47219 0.0
H3174 H 0.66002 0.95508 0.43784 0.0
H3175 H 0.77547 0.01102 0.46277 0.0
H3176 H 0.75816 0.98659 0.4856 0.0
H3177 H 0.76334 0.98218 0.44944 0.0
H3178 H 0.68476 0.90809 0.51488 0.0
H3179 H 0.71466 0.90455 0.43554 0.0
H3180 H 0.68464 0.9521 0.51594 0.0
H3181 H 0.71507 0.97275 0.51465 0.0
H3182 H 0.70413 0.9476 0.53721 0.0
H3183 H 0.71924 0.93369 0.39998 0.0
H3184 H 0.74691 0.94975 0.41614 0.0
H3185 H 0.72946 0.96296 0.41069 0.0
C3186 C 0.25005 0.87725 0.22077 0.0
C3187 C 0.23686 0.87804 0.19801 0.0
C3188 C 0.27307 0.8942 0.22419 0.0
C3189 C 0.28441 0.91031 0.20206 0.0
C3190 C 0.27235 0.90832 0.17644 0.0
C3191 C 0.24843 0.89289 0.17518 0.0
C3192 C 0.28457 0.89541 0.25235 0.0
C3193 C 0.28417 0.92283 0.15064 0.0
C3194 C 0.33147 0.97011 0.22348 0.0
C3195 C 0.3497 0.96621 0.22933 0.0
C3196 C 0.31026 0.95223 0.21364 0.0
C3197 C 0.3078 0.93033 0.20745 0.0
C3198 C 0.32693 0.92697 0.21115 0.0
C3199 C 0.3473 0.94465 0.22319 0.0
C3200 C 0.29032 0.95669 0.21143 0.0
C3201 C 0.32628 0.90484 0.20279 0.0
H3202 H 0.24197 0.8644 0.23733 0.0
H3203 H 0.2389 0.89325 0.15679 0.0
H3204 H 0.29588 0.88782 0.24998 0.0
H3205 H 0.29528 0.91351 0.25968 0.0
H3206 H 0.27178 0.88562 0.26928 0.0
H3207 H 0.27828 0.91192 0.13123 0.0
H3208 H 0.27915 0.93621 0.14806 0.0
H3209 H 0.30322 0.93128 0.15186 0.0
H3210 H 0.3333 0.98679 0.22832 0.0
H3211 H 0.36133 0.94156 0.22791 0.0
H3212 H 0.27412 0.94186 0.21956 0.0
H3213 H 0.28767 0.95946 0.18885 0.0
H3214 H 0.29359 0.97235 0.22344 0.0
H3215 H 0.33431 0.89952 0.21961 0.0
H3216 H 0.33659 0.90803 0.18314 0.0
H3217 H 0.30874 0.89034 0.19834 0.0
C3218 C 0.12755 0.3823 0.19646 0.0
C3219 C 0.11937 0.35966 0.18695 0.0
C3220 C 0.11228 0.39045 0.20207 0.0
C3221 C 0.08831 0.37535 0.19869 0.0
C3222 C 0.08028 0.35327 0.18642 0.0
C3223 C 0.09601 0.34578 0.18042 0.0
C3224 C 0.1217 0.41442 0.21405 0.0
C3225 C 0.05488 0.33651 0.18266 0.0
C3226 C 0.04883 0.38026 0.25283 0.0
C3227 C 0.03657 0.38753 0.23578 0.0
C3228 C 0.06572 0.3762 0.24096 0.0
C3229 C 0.0715 0.38106 0.21175 0.0
C3230 C 0.06003 0.38973 0.19491 0.0
C3231 C 0.04193 0.3918 0.20686 0.0
C3232 C 0.07663 0.36579 0.2594 0.0
C3233 C 0.06692 0.39686 0.16441 0.0
H3234 H 0.14565 0.39295 0.20175 0.0
H3235 H 0.08971 0.32816 0.17351 0.0
H3236 H 0.11202 0.42264 0.2058 0.0
H3237 H 0.11991 0.41344 0.23753 0.0
H3238 H 0.14026 0.4256 0.20888 0.0
H3239 H 0.05164 0.32102 0.17033 0.0
H3240 H 0.04667 0.33084 0.20388 0.0
H3241 H 0.04633 0.34487 0.17167 0.0
H3242 H 0.04431 0.37654 0.27512 0.0
H3243 H 0.03196 0.3968 0.19366 0.0
H3244 H 0.09548 0.37767 0.26081 0.0
H3245 H 0.07392 0.34947 0.24975 0.0
H3246 H 0.06942 0.36204 0.2813 0.0
H3247 H 0.08524 0.41078 0.16363 0.0
H3248 H 0.05622 0.40323 0.15419 0.0
H3249 H 0.06552 0.38221 0.1518 0.0
C3250 C 0.60593 0.65926 0.23716 0.0
C3251 C 0.61789 0.64843 0.22729 0.0
C3252 C 0.61085 0.68083 0.22654 0.0
C3253 C 0.62808 0.69175 0.20544 0.0
C3254 C 0.6388 0.68 0.19368 0.0
C3255 C 0.63361 0.65846 0.2048 0.0
C3256 C 0.59901 0.69276 0.23967 0.0
C3257 C 0.65677 0.69087 0.17062 0.0
C3258 C 0.63544 0.74868 0.17831 0.0
C3259 C 0.6523 0.76411 0.19709 0.0
C3260 C 0.62815 0.72497 0.17943 0.0
C3261 C 0.63785 0.71682 0.20001 0.0
C3262 C 0.65591 0.73272 0.21771 0.0
C3263 C 0.66299 0.75615 0.21585 0.0
C3264 C 0.60917 0.70861 0.15984 0.0
C3265 C 0.66677 0.72489 0.24001 0.0
H3266 H 0.59349 0.65144 0.25422 0.0
H3267 H 0.64251 0.64989 0.1966 0.0
H3268 H 0.61148 0.70731 0.2531 0.0
H3269 H 0.59286 0.70005 0.22294 0.0
H3270 H 0.58412 0.6809 0.25314 0.0
H3271 H 0.6631 0.67926 0.16323 0.0
H3272 H 0.64951 0.69548 0.15222 0.0
H3273 H 0.6717 0.70707 0.17854 0.0
H3274 H 0.62715 0.75493 0.16391 0.0
H3275 H 0.67615 0.76825 0.23023 0.0
H3276 H 0.59261 0.70018 0.17163 0.0
H3277 H 0.61243 0.69483 0.15212 0.0
H3278 H 0.60727 0.71776 0.14125 0.0
H3279 H 0.65365 0.71415 0.25614 0.0
H3280 H 0.68136 0.73961 0.25106 0.0
H3281 H 0.67317 0.71409 0.23019 0.0
C3282 C 0.75107 0.09593 0.81864 0.0
C3283 C 0.75826 0.11943 0.82015 0.0
C3284 C 0.72805 0.07966 0.81288 0.0
C3285 C 0.71177 0.08711 0.8096 0.0
C3286 C 0.71851 0.11053 0.81459 0.0
C3287 C 0.7419 0.1266 0.81913 0.0
C3288 C 0.72176 0.05497 0.80727 0.0
C3289 C 0.70141 0.11891 0.81303 0.0
C3290 C 0.66501 0.05354 0.75523 0.0
C3291 C 0.64798 0.03613 0.77209 0.0
C3292 C 0.68574 0.07058 0.76729 0.0
C3293 C 0.68883 0.07101 0.79717 0.0
C3294 C 0.67092 0.05441 0.81445 0.0
C3295 C 0.6512 0.03648 0.80156 0.0
C3296 C 0.70478 0.08729 0.74787 0.0
C3297 C 0.6727 0.05516 0.84646 0.0
H3298 H 0.76392 0.09058 0.81888 0.0
H3299 H 0.74762 0.14488 0.81995 0.0
H3300 H 0.70699 0.04306 0.82074 0.0
H3301 H 0.71642 0.05054 0.78474 0.0
H3302 H 0.73633 0.05191 0.81148 0.0
H3303 H 0.70798 0.13578 0.82393 0.0
H3304 H 0.69813 0.12113 0.79047 0.0
H3305 H 0.68472 0.10618 0.82276 0.0
H3306 H 0.66267 0.05308 0.73237 0.0
H3307 H 0.63812 0.02291 0.81465 0.0
H3308 H 0.72033 0.08564 0.75078 0.0
H3309 H 0.70965 0.10528 0.75331 0.0
H3310 H 0.69974 0.0843 0.72509 0.0
H3311 H 0.68144 0.04566 0.85347 0.0
H3312 H 0.65535 0.04688 0.85642 0.0
H3313 H 0.68279 0.07315 0.85439 0.0
C3314 C 0.97256 0.63113 0.79964 0.0
C3315 C 0.96723 0.61698 0.77555 0.0
C3316 C 0.95593 0.63524 0.81229 0.0
C3317 C 0.9335 0.62496 0.80053 0.0
C3318 C 0.92769 0.60957 0.77727 0.0
C3319 C 0.9446 0.60571 0.76517 0.0
C3320 C 0.96257 0.65123 0.83756 0.0
C3321 C 0.90413 0.59858 0.76368 0.0
C3322 C 0.88189 0.62693 0.8313 0.0
C3323 C 0.88324 0.64548 0.81599 0.0
C3324 C 0.89919 0.62094 0.82828 0.0
C3325 C 0.91751 0.63334 0.8088 0.0
C3326 C 0.9194 0.65287 0.79464 0.0
C3327 C 0.90246 0.65888 0.79882 0.0
C3328 C 0.8972 0.60066 0.84464 0.0
C3329 C 0.93839 0.66644 0.77337 0.0
H3330 H 0.9899 0.63947 0.80819 0.0
H3331 H 0.94026 0.59453 0.74678 0.0
H3332 H 0.95737 0.66441 0.8344 0.0
H3333 H 0.95342 0.64109 0.85672 0.0
H3334 H 0.98139 0.66027 0.84166 0.0
H3335 H 0.90168 0.58536 0.74762 0.0
H3336 H 0.89045 0.59035 0.78002 0.0
H3337 H 0.90181 0.61208 0.75303 0.0
H3338 H 0.86687 0.61651 0.84438 0.0
H3339 H 0.90328 0.67316 0.7869 0.0
H3340 H 0.9142 0.60481 0.8535 0.0
H3341 H 0.89157 0.58571 0.83016 0.0
H3342 H 0.88454 0.5955 0.8623 0.0
H3343 H 0.95548 0.67271 0.78337 0.0
H3344 H 0.93766 0.68152 0.76476 0.0
H3345 H 0.937 0.65511 0.75533 0.0
C3346 C 0.33642 0.24692 0.80747 0.0
C3347 C 0.35199 0.24052 0.81777 0.0
C3348 C 0.343 0.27015 0.80376 0.0
C3349 C 0.36565 0.28742 0.8111 0.0
C3350 C 0.38073 0.28104 0.82417 0.0
C3351 C 0.37381 0.2575 0.82699 0.0
C3352 C 0.32645 0.276 0.78929 0.0
C3353 C 0.4047 0.29896 0.8332 0.0
C3354 C 0.38869 0.33888 0.76171 0.0
C3355 C 0.38285 0.35347 0.77634 0.0
C3356 C 0.3842 0.31778 0.77347 0.0
C3357 C 0.37425 0.31143 0.80094 0.0
C3358 C 0.36983 0.32686 0.81665 0.0
C3359 C 0.37376 0.34753 0.80393 0.0
C3360 C 0.38876 0.30167 0.75568 0.0
C3361 C 0.36012 0.32115 0.84641 0.0
H3362 H 0.31963 0.23363 0.80008 0.0
H3363 H 0.38589 0.25244 0.83466 0.0
H3364 H 0.32501 0.28944 0.80138 0.0
H3365 H 0.33306 0.28305 0.76778 0.0
H3366 H 0.30895 0.26071 0.78699 0.0
H3367 H 0.41229 0.2917 0.84813 0.0
H3368 H 0.41601 0.30557 0.81422 0.0
H3369 H 0.40459 0.31383 0.84349 0.0
H3370 H 0.39578 0.34344 0.74042 0.0
H3371 H 0.3696 0.35898 0.81553 0.0
H3372 H 0.37223 0.28576 0.7509 0.0
H3373 H 0.39968 0.29642 0.76755 0.0
H3374 H 0.39744 0.30962 0.73525 0.0
H3375 H 0.34166 0.30769 0.84556 0.0
H3376 H 0.36156 0.33648 0.85749 0.0
H3377 H 0.36917 0.31414 0.85915 0.0
C3378 C 0.0123 0.27662 0.55719 0.0
C3379 C 0.01444 0.298 0.5639 0.0
C3380 C 0.9916 0.25859 0.54627 0.0
C3381 C 0.97207 0.26144 0.54433 0.0
C3382 C 0.97417 0.28303 0.5514 0.0
C3383 C 0.99557 0.30128 0.56008 0.0
C3384 C 0.99042 0.23625 0.53794 0.0
C3385 C 0.95368 0.28673 0.55127 0.0
C3386 C 0.91334 0.22509 0.5107 0.0
C3387 C 0.90122 0.20982 0.53298 0.0
C3388 C 0.93727 0.24014 0.51258 0.0
C3389 C 0.94889 0.24134 0.53829 0.0
C3390 C 0.93705 0.22473 0.55981 0.0
C3391 C 0.91393 0.20817 0.55573 0.0
C3392 C 0.94954 0.25541 0.48745 0.0
C3393 C 0.94762 0.22486 0.5883 0.0
H3394 H 0.02679 0.27397 0.56059 0.0
H3395 H 0.99715 0.31774 0.56558 0.0
H3396 H 0.98203 0.22336 0.5551 0.0
H3397 H 0.9801 0.22914 0.51825 0.0
H3398 H 0.0078 0.23846 0.5346 0.0
H3399 H 0.9571 0.30233 0.56353 0.0
H3400 H 0.94968 0.2891 0.52911 0.0
H3401 H 0.9382 0.27164 0.56039 0.0
H3402 H 0.90422 0.22622 0.49234 0.0
H3403 H 0.90545 0.19505 0.5719 0.0
H3404 H 0.96853 0.26315 0.48867 0.0
H3405 H 0.94528 0.2694 0.48607 0.0
H3406 H 0.94339 0.24531 0.46744 0.0
H3407 H 0.95166 0.21068 0.58879 0.0
H3408 H 0.93502 0.22133 0.60566 0.0
H3409 H 0.96346 0.24134 0.59324 0.0
C3410 C 0.72396 0.73982 0.56689 0.0
C3411 C 0.70633 0.7213 0.58188 0.0
C3412 C 0.74267 0.73841 0.55562 0.0
C3413 C 0.74405 0.71824 0.56025 0.0
C3414 C 0.72722 0.70028 0.57739 0.0
C3415 C 0.70832 0.70181 0.58743 0.0
C3416 C 0.76047 0.75814 0.53803 0.0
C3417 C 0.72915 0.67941 0.5852 0.0
C3418 C 0.77321 0.6924 0.5173 0.0
C3419 C 0.79319 0.69931 0.53338 0.0
C3420 C 0.75828 0.70086 0.52372 0.0
C3421 C 0.76294 0.71554 0.54756 0.0
C3422 C 0.78439 0.72454 0.56167 0.0
C3423 C 0.79967 0.71706 0.55344 0.0
C3424 C 0.73656 0.69252 0.5065 0.0
C3425 C 0.79099 0.7407 0.58681 0.0
H3426 H 0.72273 0.75511 0.56324 0.0
H3427 H 0.69505 0.68767 0.59967 0.0
H3428 H 0.77814 0.76204 0.54348 0.0
H3429 H 0.75761 0.7532 0.51524 0.0
H3430 H 0.75952 0.7741 0.54101 0.0
H3431 H 0.71652 0.66871 0.60184 0.0
H3432 H 0.72607 0.66849 0.56613 0.0
H3433 H 0.74676 0.68484 0.59305 0.0
H3434 H 0.76825 0.67905 0.50135 0.0
H3435 H 0.8157 0.7233 0.56503 0.0
H3436 H 0.73266 0.70666 0.50331 0.0
H3437 H 0.72183 0.67837 0.51804 0.0
H3438 H 0.73798 0.68586 0.4854 0.0
H3439 H 0.80404 0.75832 0.57983 0.0
H3440 H 0.79916 0.73552 0.60362 0.0
H3441 H 0.77629 0.74149 0.59638 0.0
C3442 C 0.33135 0.09068 0.53592 0.0
C3443 C 0.31669 0.09847 0.52638 0.0
C3444 C 0.32331 0.06713 0.53931 0.0
C3445 C 0.30008 0.05105 0.53267 0.0
C3446 C 0.28577 0.05881 0.52062 0.0
C3447 C 0.29419 0.08263 0.518 0.0
C3448 C 0.33918 0.05962 0.55214 0.0
C3449 C 0.26125 0.04209 0.5121 0.0
C3450 C 0.29022 0.99041 0.5372 0.0
C3451 C 0.28189 0.98438 0.56506 0.0
C3452 C 0.2939 0.01113 0.52507 0.0
C3453 C 0.29045 0.02672 0.54182 0.0
C3454 C 0.28113 0.02026 0.56956 0.0
C3455 C 0.27658 0.99896 0.58064 0.0
C3456 C 0.30263 0.01667 0.49489 0.0
C3457 C 0.27762 0.03654 0.58841 0.0
H3458 H 0.3487 0.10316 0.54258 0.0
H3459 H 0.2829 0.08887 0.51085 0.0
H3460 H 0.33229 0.05125 0.57302 0.0
H3461 H 0.34011 0.04676 0.53819 0.0
H3462 H 0.35692 0.07431 0.55536 0.0
H3463 H 0.25435 0.0502 0.49745 0.0
H3464 H 0.26003 0.02664 0.50165 0.0
H3465 H 0.25017 0.0362 0.53132 0.0
H3466 H 0.29401 0.979 0.52489 0.0
H3467 H 0.27009 0.99433 0.60218 0.0
H3468 H 0.32159 0.02398 0.49479 0.0
H3469 H 0.29868 0.02928 0.4848 0.0
H3470 H 0.2949 0.00075 0.48176 0.0
H3471 H 0.29457 0.05189 0.59333 0.0
H3472 H 0.26899 0.02835 0.60878 0.0
H3473 H 0.26713 0.04271 0.57733 0.0
loop_
_geom_bond_atom_site_label_1
_geom_bond_atom_site_label_2
_geom_bond_distance
_geom_bond_site_symmetry_2
_ccdc_geom_bond_type
C0 C1 1.359 . S
C0 N5 1.330 . S
C0 C61 1.504 . S
C1 C0 1.359 . S
C1 C2 1.366 . S
C1 H63 0.929 . S
C2 C1 1.366 . S
C2 C3 1.415 . S
C2 H64 0.932 . S
C3 C2 1.415 . S
C3 C4 1.366 . S
C3 H65 0.931 . S
C4 C3 1.366 . S
C4 N5 1.325 . S
C4 C6 1.516 . S
N5 C0 1.330 . S
N5 C4 1.325 . S
N5 Co21 1.869 . S
C6 C4 1.516 . S
C6 N30 1.316 . S
C6 O53 1.263 . S
C7 C8 1.421 . S
C7 C12 1.360 . S
C7 N30 1.436 . S
C8 C7 1.421 . S
C8 C9 1.379 . S
C8 H66 0.929 . S
C9 C8 1.379 . S
C9 C10 1.417 . S
C10 C9 1.417 . S
C10 C11 1.352 . S
C10 H67 0.929 . S
C11 C10 1.352 . S
C11 C12 1.393 . S
C12 C7 1.360 . S
C12 C11 1.393 . S
C12 H68 0.931 . S
Cd13 O33 2.329 . S
Cd13 O35 2.350 . S
Cd13 O36 2.277 . S
Cd13 O38 2.173 . S
Cd13 O42 2.263 . S
Cd13 O53 2.366 . S
Cd14 O32 2.352 . S
Cd14 O39 2.250 1_556 S
Cd14 O43 2.308 1_556 S
C15 C19 1.403 . S
C15 C20 1.370 . S
C15 N31 1.423 . S
C16 C17 1.389 . S
C16 C20 1.389 . S
C17 C16 1.389 . S
C17 C18 1.379 . S
C17 H69 0.929 . S
C18 C17 1.379 . S
C18 C19 1.405 . S
C19 C15 1.403 . S
C19 C18 1.405 . S
C19 H70 0.932 . S
C20 C15 1.370 . S
C20 C16 1.389 . S
C20 H71 0.931 . S
Co21 N5 1.869 . S
Co21 N22 1.955 . S
Co21 N23 1.864 . S
Co21 N29 1.958 . S
Co21 N30 1.953 . S
Co21 N31 1.974 . S
N22 Co21 1.955 . S
N22 C40 1.329 . S
N22 C55 1.432 . S
N23 Co21 1.864 . S
N23 C24 1.327 . S
N23 C28 1.342 . S
C24 N23 1.327 . S
C24 C25 1.407 . S
C24 C40 1.481 . S
C25 C24 1.407 . S
C25 C26 1.364 . S
C25 H72 0.930 . S
C26 C25 1.364 . S
C26 C27 1.390 . S
C26 H73 0.931 . S
C27 C26 1.390 . S
C27 C28 1.346 . S
C27 H74 0.930 . S
C28 N23 1.342 . S
C28 C27 1.346 . S
C28 C44 1.516 . S
N29 Co21 1.958 . S
N29 C44 1.324 . S
N29 C46 1.427 . S
N30 C6 1.316 . S
N30 C7 1.436 . S
N30 Co21 1.953 . S
N31 C15 1.423 . S
N31 Co21 1.974 . S
N31 C61 1.309 . S
O32 Cd14 2.352 . S
O32 C52 1.235 1_556 S
O33 Cd13 2.329 . S
O33 C52 1.270 . S
C34 O35 1.270 . S
C34 O36 1.248 . S
O35 Cd13 2.350 . S
O35 C34 1.270 . S
O36 Cd13 2.277 . S
O36 C34 1.248 . S
C37 O38 1.277 . S
C37 O39 1.230 . S
O38 Cd13 2.173 . S
O38 C37 1.277 . S
O39 Cd14 2.250 1_554 S
O39 C37 1.230 . S
C40 N22 1.329 . S
C40 C24 1.481 . S
C40 O41 1.246 . S
O41 C40 1.246 . S
O42 Cd13 2.263 . S
O42 C54 1.258 . S
O43 Cd14 2.308 1_554 S
O43 C54 1.274 . S
C44 C28 1.516 . S
C44 N29 1.324 . S
C44 O45 1.238 . S
O45 C44 1.238 . S
C46 N29 1.427 . S
C46 C47 1.394 . S
C46 C51 1.395 . S
C47 C46 1.394 . S
C47 C48 1.380 . S
C47 H75 0.929 . S
C48 C47 1.380 . S
C48 C49 1.384 . S
C48 C54 1.495 . S
C49 C48 1.384 . S
C49 C50 1.382 . S
C49 H76 0.930 . S
C50 C49 1.382 . S
C50 C51 1.398 . S
C51 C46 1.395 . S
C51 C50 1.398 . S
C51 H77 0.930 . S
C52 O32 1.235 1_554 S
C52 O33 1.270 . S
O53 C6 1.263 . S
O53 Cd13 2.366 . S
C54 O42 1.258 . S
C54 O43 1.274 . S
C54 C48 1.495 . S
C55 N22 1.432 . S
C55 C56 1.381 . S
C55 C60 1.385 . S
C56 C55 1.381 . S
C56 C57 1.371 . S
C56 H78 0.932 . S
C57 C56 1.371 . S
C57 C58 1.400 . S
C58 C57 1.400 . S
C58 C59 1.351 . S
C58 H79 0.930 . S
C59 C58 1.351 . S
C59 C60 1.388 . S
C60 C55 1.385 . S
C60 C59 1.388 . S
C60 H80 0.929 . S
C61 C0 1.504 . S
C61 N31 1.309 . S
C61 O62 1.258 . S
O62 C61 1.258 . S
H63 C1 0.929 . S
H64 C2 0.932 . S
H65 C3 0.931 . S
H66 C8 0.929 . S
H67 C10 0.929 . S
H68 C12 0.931 . S
H69 C17 0.929 . S
H70 C19 0.932 . S
H71 C20 0.931 . S
H72 C25 0.930 . S
H73 C26 0.931 . S
H74 C27 0.930 . S
H75 C47 0.929 . S
H76 C49 0.930 . S
H77 C51 0.930 . S
H78 C56 0.932 . S
H79 C58 0.930 . S
H80 C60 0.929 . S
C81 C82 1.359 . S
C81 N86 1.330 . S
C81 C142 1.504 . S
C82 C81 1.359 . S
C82 C83 1.366 . S
C82 H144 0.929 . S
C83 C82 1.366 . S
C83 C84 1.415 . S
C83 H145 0.932 . S
C84 C83 1.415 . S
C84 C85 1.366 . S
C84 H146 0.931 . S
C85 C84 1.366 . S
C85 N86 1.325 . S
C85 C87 1.516 . S
N86 C81 1.330 . S
N86 C85 1.325 . S
N86 Co102 1.869 . S
C87 C85 1.516 . S
C87 N111 1.316 . S
C87 O134 1.263 . S
C88 C89 1.421 . S
C88 C93 1.360 . S
C88 N111 1.436 . S
C89 C88 1.421 . S
C89 C90 1.379 . S
C89 H147 0.929 . S
C90 C89 1.379 . S
C90 C91 1.417 . S
C91 C90 1.417 . S
C91 C92 1.352 . S
C91 H148 0.929 . S
C92 C91 1.352 . S
C92 C93 1.393 . S
C93 C88 1.360 . S
C93 C92 1.393 . S
C93 H149 0.931 . S
Cd94 O114 2.329 . S
Cd94 O116 2.350 . S
Cd94 O117 2.277 . S
Cd94 O119 2.173 . S
Cd94 O123 2.263 . S
Cd94 O134 2.366 . S
Cd95 O113 2.352 . S
Cd95 O120 2.250 1_556 S
Cd95 O124 2.308 1_556 S
C96 C100 1.403 . S
C96 C101 1.370 . S
C96 N112 1.423 . S
C97 C98 1.389 . S
C97 C101 1.389 . S
C98 C97 1.389 . S
C98 C99 1.379 . S
C98 H150 0.929 . S
C99 C98 1.379 . S
C99 C100 1.405 . S
C100 C96 1.403 . S
C100 C99 1.405 . S
C100 H151 0.932 . S
C101 C96 1.370 . S
C101 C97 1.389 . S
C101 H152 0.931 . S
Co102 N86 1.869 . S
Co102 N103 1.955 . S
Co102 N104 1.864 . S
Co102 N110 1.958 . S
Co102 N111 1.953 . S
Co102 N112 1.974 . S
N103 Co102 1.955 . S
N103 C121 1.329 . S
N103 C136 1.432 . S
N104 Co102 1.864 . S
N104 C105 1.327 . S
N104 C109 1.342 . S
C105 N104 1.327 . S
C105 C106 1.407 . S
C105 C121 1.481 . S
C106 C105 1.407 . S
C106 C107 1.364 . S
C106 H153 0.930 . S
C107 C106 1.364 . S
C107 C108 1.390 . S
C107 H154 0.931 . S
C108 C107 1.390 . S
C108 C109 1.346 . S
C108 H155 0.930 . S
C109 N104 1.342 . S
C109 C108 1.346 . S
C109 C125 1.516 . S
N110 Co102 1.958 . S
N110 C125 1.324 . S
N110 C127 1.427 . S
N111 C87 1.316 . S
N111 C88 1.436 . S
N111 Co102 1.953 . S
N112 C96 1.423 . S
N112 Co102 1.974 . S
N112 C142 1.309 . S
O113 Cd95 2.352 . S
O113 C133 1.235 1_556 S
O114 Cd94 2.329 . S
O114 C133 1.270 . S
C115 O116 1.270 . S
C115 O117 1.248 . S
O116 Cd94 2.350 . S
O116 C115 1.270 . S
O117 Cd94 2.277 . S
O117 C115 1.248 . S
C118 O119 1.277 . S
C118 O120 1.230 . S
O119 Cd94 2.173 . S
O119 C118 1.277 . S
O120 Cd95 2.250 1_554 S
O120 C118 1.230 . S
C121 N103 1.329 . S
C121 C105 1.481 . S
C121 O122 1.246 . S
O122 C121 1.246 . S
O123 Cd94 2.263 . S
O123 C135 1.258 . S
O124 Cd95 2.308 1_554 S
O124 C135 1.274 . S
C125 C109 1.516 . S
C125 N110 1.324 . S
C125 O126 1.238 . S
O126 C125 1.238 . S
C127 N110 1.427 . S
C127 C128 1.394 . S
C127 C132 1.395 . S
C128 C127 1.394 . S
C128 C129 1.380 . S
C128 H156 0.929 . S
C129 C128 1.380 . S
C129 C130 1.384 . S
C129 C135 1.495 . S
C130 C129 1.384 . S
C130 C131 1.382 . S
C130 H157 0.930 . S
C131 C130 1.382 . S
C131 C132 1.398 . S
C132 C127 1.395 . S
C132 C131 1.398 . S
C132 H158 0.930 . S
C133 O113 1.235 1_554 S
C133 O114 1.270 . S
O134 C87 1.263 . S
O134 Cd94 2.366 . S
C135 O123 1.258 . S
C135 O124 1.274 . S
C135 C129 1.495 . S
C136 N103 1.432 . S
C136 C137 1.381 . S
C136 C141 1.385 . S
C137 C136 1.381 . S
C137 C138 1.371 . S
C137 H159 0.932 . S
C138 C137 1.371 . S
C138 C139 1.400 . S
C139 C138 1.400 . S
C139 C140 1.351 . S
C139 H160 0.930 . S
C140 C139 1.351 . S
C140 C141 1.388 . S
C141 C136 1.385 . S
C141 C140 1.388 . S
C141 H161 0.929 . S
C142 C81 1.504 . S
C142 N112 1.309 . S
C142 O143 1.258 . S
O143 C142 1.258 . S
H144 C82 0.929 . S
H145 C83 0.932 . S
H146 C84 0.931 . S
H147 C89 0.929 . S
H148 C91 0.929 . S
H149 C93 0.931 . S
H150 C98 0.929 . S
H151 C100 0.932 . S
H152 C101 0.931 . S
H153 C106 0.930 . S
H154 C107 0.931 . S
H155 C108 0.930 . S
H156 C128 0.929 . S
H157 C130 0.930 . S
H158 C132 0.930 . S
H159 C137 0.932 . S
H160 C139 0.930 . S
H161 C141 0.929 . S
C162 C163 1.359 . S
C162 N167 1.330 . S
C162 C223 1.504 . S
C163 C162 1.359 . S
C163 C164 1.366 . S
C163 H225 0.929 . S
C164 C163 1.366 . S
C164 C165 1.415 . S
C164 H226 0.932 . S
C165 C164 1.415 . S
C165 C166 1.366 . S
C165 H227 0.931 . S
C166 C165 1.366 . S
C166 N167 1.325 . S
C166 C168 1.516 . S
N167 C162 1.330 . S
N167 C166 1.325 . S
N167 Co183 1.869 . S
C168 C166 1.516 . S
C168 N192 1.316 . S
C168 O215 1.263 . S
C169 C170 1.421 . S
C169 C174 1.360 . S
C169 N192 1.436 . S
C170 C169 1.421 . S
C170 C171 1.379 . S
C170 H228 0.929 . S
C171 C170 1.379 . S
C171 C172 1.417 . S
C172 C171 1.417 . S
C172 C173 1.352 . S
C172 H229 0.929 . S
C173 C172 1.352 . S
C173 C174 1.393 . S
C174 C169 1.360 . S
C174 C173 1.393 . S
C174 H230 0.931 . S
Cd175 O195 2.329 . S
Cd175 O197 2.350 . S
Cd175 O198 2.277 . S
Cd175 O200 2.173 . S
Cd175 O204 2.263 . S
Cd175 O215 2.366 . S
Cd176 O194 2.352 . S
Cd176 O201 2.250 1_556 S
Cd176 O205 2.308 1_556 S
C177 C181 1.403 . S
C177 C182 1.370 . S
C177 N193 1.423 . S
C178 C179 1.389 . S
C178 C182 1.389 . S
C179 C178 1.389 . S
C179 C180 1.379 . S
C179 H231 0.929 . S
C180 C179 1.379 . S
C180 C181 1.405 . S
C181 C177 1.403 . S
C181 C180 1.405 . S
C181 H232 0.932 . S
C182 C177 1.370 . S
C182 C178 1.389 . S
C182 H233 0.931 . S
Co183 N167 1.869 . S
Co183 N184 1.955 . S
Co183 N185 1.864 . S
Co183 N191 1.958 . S
Co183 N192 1.953 . S
Co183 N193 1.974 . S
N184 Co183 1.955 . S
N184 C202 1.329 . S
N184 C217 1.432 . S
N185 Co183 1.864 . S
N185 C186 1.327 . S
N185 C190 1.342 . S
C186 N185 1.327 . S
C186 C187 1.407 . S
C186 C202 1.481 . S
C187 C186 1.407 . S
C187 C188 1.364 . S
C187 H234 0.930 . S
C188 C187 1.364 . S
C188 C189 1.390 . S
C188 H235 0.931 . S
C189 C188 1.390 . S
C189 C190 1.346 . S
C189 H236 0.930 . S
C190 N185 1.342 . S
C190 C189 1.346 . S
C190 C206 1.516 . S
N191 Co183 1.958 . S
N191 C206 1.324 . S
N191 C208 1.427 . S
N192 C168 1.316 . S
N192 C169 1.436 . S
N192 Co183 1.953 . S
N193 C177 1.423 . S
N193 Co183 1.974 . S
N193 C223 1.309 . S
O194 Cd176 2.352 . S
O194 C214 1.235 1_556 S
O195 Cd175 2.329 . S
O195 C214 1.270 . S
C196 O197 1.270 . S
C196 O198 1.248 . S
O197 Cd175 2.350 . S
O197 C196 1.270 . S
O198 Cd175 2.277 . S
O198 C196 1.248 . S
C199 O200 1.277 . S
C199 O201 1.230 . S
O200 Cd175 2.173 . S
O200 C199 1.277 . S
O201 Cd176 2.250 1_554 S
O201 C199 1.230 . S
C202 N184 1.329 . S
C202 C186 1.481 . S
C202 O203 1.246 . S
O203 C202 1.246 . S
O204 Cd175 2.263 . S
O204 C216 1.258 . S
O205 Cd176 2.308 1_554 S
O205 C216 1.274 . S
C206 C190 1.516 . S
C206 N191 1.324 . S
C206 O207 1.238 . S
O207 C206 1.238 . S
C208 N191 1.427 . S
C208 C209 1.394 . S
C208 C213 1.395 . S
C209 C208 1.394 . S
C209 C210 1.380 . S
C209 H237 0.929 . S
C210 C209 1.380 . S
C210 C211 1.384 . S
C210 C216 1.495 . S
C211 C210 1.384 . S
C211 C212 1.382 . S
C211 H238 0.930 . S
C212 C211 1.382 . S
C212 C213 1.398 . S
C213 C208 1.395 . S
C213 C212 1.398 . S
C213 H239 0.930 . S
C214 O194 1.235 1_554 S
C214 O195 1.270 . S
O215 C168 1.263 . S
O215 Cd175 2.366 . S
C216 O204 1.258 . S
C216 O205 1.274 . S
C216 C210 1.495 . S
C217 N184 1.432 . S
C217 C218 1.381 . S
C217 C222 1.385 . S
C218 C217 1.381 . S
C218 C219 1.371 . S
C218 H240 0.932 . S
C219 C218 1.371 . S
C219 C220 1.400 . S
C220 C219 1.400 . S
C220 C221 1.351 . S
C220 H241 0.930 . S
C221 C220 1.351 . S
C221 C222 1.388 . S
C222 C217 1.385 . S
C222 C221 1.388 . S
C222 H242 0.929 . S
C223 C162 1.504 . S
C223 N193 1.309 . S
C223 O224 1.258 . S
O224 C223 1.258 . S
H225 C163 0.929 . S
H226 C164 0.932 . S
H227 C165 0.931 . S
H228 C170 0.929 . S
H229 C172 0.929 . S
H230 C174 0.931 . S
H231 C179 0.929 . S
H232 C181 0.932 . S
H233 C182 0.931 . S
H234 C187 0.930 . S
H235 C188 0.931 . S
H236 C189 0.930 . S
H237 C209 0.929 . S
H238 C211 0.930 . S
H239 C213 0.930 . S
H240 C218 0.932 . S
H241 C220 0.930 . S
H242 C222 0.929 . S
C243 C244 1.359 . S
C243 N248 1.330 . S
C243 C304 1.504 . S
C244 C243 1.359 . S
C244 C245 1.366 . S
C244 H306 0.929 . S
C245 C244 1.366 . S
C245 C246 1.415 . S
C245 H307 0.932 . S
C246 C245 1.415 . S
C246 C247 1.366 . S
C246 H308 0.931 . S
C247 C246 1.366 . S
C247 N248 1.325 . S
C247 C249 1.516 . S
N248 C243 1.330 . S
N248 C247 1.325 . S
N248 Co264 1.869 . S
C249 C247 1.516 . S
C249 N273 1.316 . S
C249 O296 1.263 . S
C250 C251 1.421 . S
C250 C255 1.360 . S
C250 N273 1.436 . S
C251 C250 1.421 . S
C251 C252 1.379 . S
C251 H309 0.929 . S
C252 C251 1.379 . S
C252 C253 1.417 . S
C253 C252 1.417 . S
C253 C254 1.352 . S
C253 H310 0.929 . S
C254 C253 1.352 . S
C254 C255 1.393 . S
C255 C250 1.360 . S
C255 C254 1.393 . S
C255 H311 0.931 . S
Cd256 O276 2.329 . S
Cd256 O278 2.350 . S
Cd256 O279 2.277 . S
Cd256 O281 2.173 . S
Cd256 O285 2.263 . S
Cd256 O296 2.366 . S
Cd257 O275 2.352 . S
Cd257 O282 2.250 1_554 S
Cd257 O286 2.308 1_554 S
C258 C262 1.403 . S
C258 C263 1.370 . S
C258 N274 1.423 . S
C259 C260 1.389 . S
C259 C263 1.389 . S
C260 C259 1.389 . S
C260 C261 1.379 . S
C260 H312 0.929 . S
C261 C260 1.379 . S
C261 C262 1.405 . S
C262 C258 1.403 . S
C262 C261 1.405 . S
C262 H313 0.932 . S
C263 C258 1.370 . S
C263 C259 1.389 . S
C263 H314 0.931 . S
Co264 N248 1.869 . S
Co264 N265 1.955 . S
Co264 N266 1.864 . S
Co264 N272 1.958 . S
Co264 N273 1.953 . S
Co264 N274 1.974 . S
N265 Co264 1.955 . S
N265 C283 1.329 . S
N265 C298 1.432 . S
N266 Co264 1.864 . S
N266 C267 1.327 . S
N266 C271 1.342 . S
C267 N266 1.327 . S
C267 C268 1.407 . S
C267 C283 1.481 . S
C268 C267 1.407 . S
C268 C269 1.364 . S
C268 H315 0.930 . S
C269 C268 1.364 . S
C269 C270 1.390 . S
C269 H316 0.931 . S
C270 C269 1.390 . S
C270 C271 1.346 . S
C270 H317 0.930 . S
C271 N266 1.342 . S
C271 C270 1.346 . S
C271 C287 1.516 . S
N272 Co264 1.958 . S
N272 C287 1.324 . S
N272 C289 1.427 . S
N273 C249 1.316 . S
N273 C250 1.436 . S
N273 Co264 1.953 . S
N274 C258 1.423 . S
N274 Co264 1.974 . S
N274 C304 1.309 . S
O275 Cd257 2.352 . S
O275 C295 1.235 1_554 S
O276 Cd256 2.329 . S
O276 C295 1.270 . S
C277 O278 1.270 . S
C277 O279 1.248 . S
O278 Cd256 2.350 . S
O278 C277 1.270 . S
O279 Cd256 2.277 . S
O279 C277 1.248 . S
C280 O281 1.277 . S
C280 O282 1.230 . S
O281 Cd256 2.173 . S
O281 C280 1.277 . S
O282 Cd257 2.250 1_556 S
O282 C280 1.230 . S
C283 N265 1.329 . S
C283 C267 1.481 . S
C283 O284 1.246 . S
O284 C283 1.246 . S
O285 Cd256 2.263 . S
O285 C297 1.258 . S
O286 Cd257 2.308 1_556 S
O286 C297 1.274 . S
C287 C271 1.516 . S
C287 N272 1.324 . S
C287 O288 1.238 . S
O288 C287 1.238 . S
C289 N272 1.427 . S
C289 C290 1.394 . S
C289 C294 1.395 . S
C290 C289 1.394 . S
C290 C291 1.380 . S
C290 H318 0.929 . S
C291 C290 1.380 . S
C291 C292 1.384 . S
C291 C297 1.495 . S
C292 C291 1.384 . S
C292 C293 1.382 . S
C292 H319 0.930 . S
C293 C292 1.382 . S
C293 C294 1.398 . S
C294 C289 1.395 . S
C294 C293 1.398 . S
C294 H320 0.930 . S
C295 O275 1.235 1_556 S
C295 O276 1.270 . S
O296 C249 1.263 . S
O296 Cd256 2.366 . S
C297 O285 1.258 . S
C297 O286 1.274 . S
C297 C291 1.495 . S
C298 N265 1.432 . S
C298 C299 1.381 . S
C298 C303 1.385 . S
C299 C298 1.381 . S
C299 C300 1.371 . S
C299 H321 0.932 . S
C300 C299 1.371 . S
C300 C301 1.400 . S
C301 C300 1.400 . S
C301 C302 1.351 . S
C301 H322 0.930 . S
C302 C301 1.351 . S
C302 C303 1.388 . S
C303 C298 1.385 . S
C303 C302 1.388 . S
C303 H323 0.929 . S
C304 C243 1.504 . S
C304 N274 1.309 . S
C304 O305 1.258 . S
O305 C304 1.258 . S
H306 C244 0.929 . S
H307 C245 0.932 . S
H308 C246 0.931 . S
H309 C251 0.929 . S
H310 C253 0.929 . S
H311 C255 0.931 . S
H312 C260 0.929 . S
H313 C262 0.932 . S
H314 C263 0.931 . S
H315 C268 0.930 . S
H316 C269 0.931 . S
H317 C270 0.930 . S
H318 C290 0.929 . S
H319 C292 0.930 . S
H320 C294 0.930 . S
H321 C299 0.932 . S
H322 C301 0.930 . S
H323 C303 0.929 . S
C324 C325 1.359 . S
C324 N329 1.330 . S
C324 C385 1.504 . S
C325 C324 1.359 . S
C325 C326 1.366 . S
C325 H387 0.929 . S
C326 C325 1.366 . S
C326 C327 1.415 . S
C326 H388 0.932 . S
C327 C326 1.415 . S
C327 C328 1.366 . S
C327 H389 0.931 . S
C328 C327 1.366 . S
C328 N329 1.325 . S
C328 C330 1.516 . S
N329 C324 1.330 . S
N329 C328 1.325 . S
N329 Co345 1.869 . S
C330 C328 1.516 . S
C330 N354 1.316 . S
C330 O377 1.263 . S
C331 C332 1.421 . S
C331 C336 1.360 . S
C331 N354 1.436 . S
C332 C331 1.421 . S
C332 C333 1.379 . S
C332 H390 0.929 . S
C333 C332 1.379 . S
C333 C334 1.417 . S
C334 C333 1.417 . S
C334 C335 1.352 . S
C334 H391 0.929 . S
C335 C334 1.352 . S
C335 C336 1.393 . S
C336 C331 1.360 . S
C336 C335 1.393 . S
C336 H392 0.931 . S
Cd337 O357 2.329 . S
Cd337 O359 2.350 . S
Cd337 O360 2.277 . S
Cd337 O362 2.173 . S
Cd337 O366 2.263 . S
Cd337 O377 2.366 . S
Cd338 O356 2.352 . S
Cd338 O363 2.250 1_554 S
Cd338 O367 2.308 1_554 S
C339 C343 1.403 . S
C339 C344 1.370 . S
C339 N355 1.423 . S
C340 C341 1.389 . S
C340 C344 1.389 . S
C341 C340 1.389 . S
C341 C342 1.379 . S
C341 H393 0.929 . S
C342 C341 1.379 . S
C342 C343 1.405 . S
C343 C339 1.403 . S
C343 C342 1.405 . S
C343 H394 0.932 . S
C344 C339 1.370 . S
C344 C340 1.389 . S
C344 H395 0.931 . S
Co345 N329 1.869 . S
Co345 N346 1.955 . S
Co345 N347 1.864 . S
Co345 N353 1.958 . S
Co345 N354 1.953 . S
Co345 N355 1.974 . S
N346 Co345 1.955 . S
N346 C364 1.329 . S
N346 C379 1.432 . S
N347 Co345 1.864 . S
N347 C348 1.327 . S
N347 C352 1.342 . S
C348 N347 1.327 . S
C348 C349 1.407 . S
C348 C364 1.481 . S
C349 C348 1.407 . S
C349 C350 1.364 . S
C349 H396 0.930 . S
C350 C349 1.364 . S
C350 C351 1.390 . S
C350 H397 0.931 . S
C351 C350 1.390 . S
C351 C352 1.346 . S
C351 H398 0.930 . S
C352 N347 1.342 . S
C352 C351 1.346 . S
C352 C368 1.516 . S
N353 Co345 1.958 . S
N353 C368 1.324 . S
N353 C370 1.427 . S
N354 C330 1.316 . S
N354 C331 1.436 . S
N354 Co345 1.953 . S
N355 C339 1.423 . S
N355 Co345 1.974 . S
N355 C385 1.309 . S
O356 Cd338 2.352 . S
O356 C376 1.235 1_554 S
O357 Cd337 2.329 . S
O357 C376 1.270 . S
C358 O359 1.270 . S
C358 O360 1.248 . S
O359 Cd337 2.350 . S
O359 C358 1.270 . S
O360 Cd337 2.277 . S
O360 C358 1.248 . S
C361 O362 1.277 . S
C361 O363 1.230 . S
O362 Cd337 2.173 . S
O362 C361 1.277 . S
O363 Cd338 2.250 1_556 S
O363 C361 1.230 . S
C364 N346 1.329 . S
C364 C348 1.481 . S
C364 O365 1.246 . S
O365 C364 1.246 . S
O366 Cd337 2.263 . S
O366 C378 1.258 . S
O367 Cd338 2.308 1_556 S
O367 C378 1.274 . S
C368 C352 1.516 . S
C368 N353 1.324 . S
C368 O369 1.238 . S
O369 C368 1.238 . S
C370 N353 1.427 . S
C370 C371 1.394 . S
C370 C375 1.395 . S
C371 C370 1.394 . S
C371 C372 1.380 . S
C371 H399 0.929 . S
C372 C371 1.380 . S
C372 C373 1.384 . S
C372 C378 1.495 . S
C373 C372 1.384 . S
C373 C374 1.382 . S
C373 H400 0.930 . S
C374 C373 1.382 . S
C374 C375 1.398 . S
C375 C370 1.395 . S
C375 C374 1.398 . S
C375 H401 0.930 . S
C376 O356 1.235 1_556 S
C376 O357 1.270 . S
O377 C330 1.263 . S
O377 Cd337 2.366 . S
C378 O366 1.258 . S
C378 O367 1.274 . S
C378 C372 1.495 . S
C379 N346 1.432 . S
C379 C380 1.381 . S
C379 C384 1.385 . S
C380 C379 1.381 . S
C380 C381 1.371 . S
C380 H402 0.932 . S
C381 C380 1.371 . S
C381 C382 1.400 . S
C382 C381 1.400 . S
C382 C383 1.351 . S
C382 H403 0.930 . S
C383 C382 1.351 . S
C383 C384 1.388 . S
C384 C379 1.385 . S
C384 C383 1.388 . S
C384 H404 0.929 . S
C385 C324 1.504 . S
C385 N355 1.309 . S
C385 O386 1.258 . S
O386 C385 1.258 . S
H387 C325 0.929 . S
H388 C326 0.932 . S
H389 C327 0.931 . S
H390 C332 0.929 . S
H391 C334 0.929 . S
H392 C336 0.931 . S
H393 C341 0.929 . S
H394 C343 0.932 . S
H395 C344 0.931 . S
H396 C349 0.930 . S
H397 C350 0.931 . S
H398 C351 0.930 . S
H399 C371 0.929 . S
H400 C373 0.930 . S
H401 C375 0.930 . S
H402 C380 0.932 . S
H403 C382 0.930 . S
H404 C384 0.929 . S
C405 C406 1.359 . S
C405 N410 1.330 . S
C405 C466 1.504 . S
C406 C405 1.359 . S
C406 C407 1.366 . S
C406 H468 0.929 . S
C407 C406 1.366 . S
C407 C408 1.415 . S
C407 H469 0.932 . S
C408 C407 1.415 . S
C408 C409 1.366 . S
C408 H470 0.931 . S
C409 C408 1.366 . S
C409 N410 1.325 . S
C409 C411 1.516 . S
N410 C405 1.330 . S
N410 C409 1.325 . S
N410 Co426 1.869 . S
C411 C409 1.516 . S
C411 N435 1.316 . S
C411 O458 1.263 . S
C412 C413 1.421 . S
C412 C417 1.360 . S
C412 N435 1.436 . S
C413 C412 1.421 . S
C413 C414 1.379 . S
C413 H471 0.929 . S
C414 C413 1.379 . S
C414 C415 1.417 . S
C415 C414 1.417 . S
C415 C416 1.352 . S
C415 H472 0.929 . S
C416 C415 1.352 . S
C416 C417 1.393 . S
C417 C412 1.360 . S
C417 C416 1.393 . S
C417 H473 0.931 . S
Cd418 O438 2.329 . S
Cd418 O440 2.350 . S
Cd418 O441 2.277 . S
Cd418 O443 2.173 . S
Cd418 O447 2.263 . S
Cd418 O458 2.366 . S
Cd419 O437 2.352 . S
Cd419 O444 2.250 1_554 S
Cd419 O448 2.308 1_554 S
C420 C424 1.403 . S
C420 C425 1.370 . S
C420 N436 1.423 . S
C421 C422 1.389 . S
C421 C425 1.389 . S
C422 C421 1.389 . S
C422 C423 1.379 . S
C422 H474 0.929 . S
C423 C422 1.379 . S
C423 C424 1.405 . S
C424 C420 1.403 . S
C424 C423 1.405 . S
C424 H475 0.932 . S
C425 C420 1.370 . S
C425 C421 1.389 . S
C425 H476 0.931 . S
Co426 N410 1.869 . S
Co426 N427 1.955 . S
Co426 N428 1.864 . S
Co426 N434 1.958 . S
Co426 N435 1.953 . S
Co426 N436 1.974 . S
N427 Co426 1.955 . S
N427 C445 1.329 . S
N427 C460 1.432 . S
N428 Co426 1.864 . S
N428 C429 1.327 . S
N428 C433 1.342 . S
C429 N428 1.327 . S
C429 C430 1.407 . S
C429 C445 1.481 . S
C430 C429 1.407 . S
C430 C431 1.364 . S
C430 H477 0.930 . S
C431 C430 1.364 . S
C431 C432 1.390 . S
C431 H478 0.931 . S
C432 C431 1.390 . S
C432 C433 1.346 . S
C432 H479 0.930 . S
C433 N428 1.342 . S
C433 C432 1.346 . S
C433 C449 1.516 . S
N434 Co426 1.958 . S
N434 C449 1.324 . S
N434 C451 1.427 . S
N435 C411 1.316 . S
N435 C412 1.436 . S
N435 Co426 1.953 . S
N436 C420 1.423 . S
N436 Co426 1.974 . S
N436 C466 1.309 . S
O437 Cd419 2.352 . S
O437 C457 1.235 1_554 S
O438 Cd418 2.329 . S
O438 C457 1.270 . S
C439 O440 1.270 . S
C439 O441 1.248 . S
O440 Cd418 2.350 . S
O440 C439 1.270 . S
O441 Cd418 2.277 . S
O441 C439 1.248 . S
C442 O443 1.277 . S
C442 O444 1.230 . S
O443 Cd418 2.173 . S
O443 C442 1.277 . S
O444 Cd419 2.250 1_556 S
O444 C442 1.230 . S
C445 N427 1.329 . S
C445 C429 1.481 . S
C445 O446 1.246 . S
O446 C445 1.246 . S
O447 Cd418 2.263 . S
O447 C459 1.258 . S
O448 Cd419 2.308 1_556 S
O448 C459 1.274 . S
C449 C433 1.516 . S
C449 N434 1.324 . S
C449 O450 1.238 . S
O450 C449 1.238 . S
C451 N434 1.427 . S
C451 C452 1.394 . S
C451 C456 1.395 . S
C452 C451 1.394 . S
C452 C453 1.380 . S
C452 H480 0.929 . S
C453 C452 1.380 . S
C453 C454 1.384 . S
C453 C459 1.495 . S
C454 C453 1.384 . S
C454 C455 1.382 . S
C454 H481 0.930 . S
C455 C454 1.382 . S
C455 C456 1.398 . S
C456 C451 1.395 . S
C456 C455 1.398 . S
C456 H482 0.930 . S
C457 O437 1.235 1_556 S
C457 O438 1.270 . S
O458 C411 1.263 . S
O458 Cd418 2.366 . S
C459 O447 1.258 . S
C459 O448 1.274 . S
C459 C453 1.495 . S
C460 N427 1.432 . S
C460 C461 1.381 . S
C460 C465 1.385 . S
C461 C460 1.381 . S
C461 C462 1.371 . S
C461 H483 0.932 . S
C462 C461 1.371 . S
C462 C463 1.400 . S
C463 C462 1.400 . S
C463 C464 1.351 . S
C463 H484 0.930 . S
C464 C463 1.351 . S
C464 C465 1.388 . S
C465 C460 1.385 . S
C465 C464 1.388 . S
C465 H485 0.929 . S
C466 C405 1.504 . S
C466 N436 1.309 . S
C466 O467 1.258 . S
O467 C466 1.258 . S
H468 C406 0.929 . S
H469 C407 0.932 . S
H470 C408 0.931 . S
H471 C413 0.929 . S
H472 C415 0.929 . S
H473 C417 0.931 . S
H474 C422 0.929 . S
H475 C424 0.932 . S
H476 C425 0.931 . S
H477 C430 0.930 . S
H478 C431 0.931 . S
H479 C432 0.930 . S
H480 C452 0.929 . S
H481 C454 0.930 . S
H482 C456 0.930 . S
H483 C461 0.932 . S
H484 C463 0.930 . S
H485 C465 0.929 . S
C486 C487 1.359 . S
C486 N491 1.330 . S
C486 C547 1.504 . S
C487 C486 1.359 . S
C487 C488 1.366 . S
C487 H549 0.929 . S
C488 C487 1.366 . S
C488 C489 1.415 . S
C488 H550 0.932 . S
C489 C488 1.415 . S
C489 C490 1.366 . S
C489 H551 0.931 . S
C490 C489 1.366 . S
C490 N491 1.325 . S
C490 C492 1.516 . S
N491 C486 1.330 . S
N491 C490 1.325 . S
N491 Co507 1.869 . S
C492 C490 1.516 . S
C492 N516 1.316 . S
C492 O539 1.263 . S
C493 C494 1.421 . S
C493 C498 1.360 . S
C493 N516 1.436 . S
C494 C493 1.421 . S
C494 C495 1.379 . S
C494 H552 0.929 . S
C495 C494 1.379 . S
C495 C496 1.417 . S
C496 C495 1.417 . S
C496 C497 1.352 . S
C496 H553 0.929 . S
C497 C496 1.352 . S
C497 C498 1.393 . S
C498 C493 1.360 . S
C498 C497 1.393 . S
C498 H554 0.931 . S
Cd499 O519 2.329 . S
Cd499 O521 2.350 . S
Cd499 O522 2.277 . S
Cd499 O524 2.173 . S
Cd499 O528 2.263 . S
Cd499 O539 2.366 . S
Cd500 O518 2.352 . S
Cd500 O525 2.250 . S
Cd500 O529 2.308 . S
C501 C505 1.403 . S
C501 C506 1.370 . S
C501 N517 1.423 . S
C502 C503 1.389 . S
C502 C506 1.389 . S
C503 C502 1.389 . S
C503 C504 1.379 . S
C503 H555 0.929 . S
C504 C503 1.379 . S
C504 C505 1.405 . S
C505 C501 1.403 . S
C505 C504 1.405 . S
C505 H556 0.932 . S
C506 C501 1.370 . S
C506 C502 1.389 . S
C506 H557 0.931 . S
Co507 N491 1.869 . S
Co507 N508 1.955 . S
Co507 N509 1.864 . S
Co507 N515 1.958 . S
Co507 N516 1.953 . S
Co507 N517 1.974 . S
N508 Co507 1.955 . S
N508 C526 1.329 . S
N508 C541 1.432 . S
N509 Co507 1.864 . S
N509 C510 1.327 . S
N509 C514 1.342 . S
C510 N509 1.327 . S
C510 C511 1.407 . S
C510 C526 1.481 . S
C511 C510 1.407 . S
C511 C512 1.364 . S
C511 H558 0.930 . S
C512 C511 1.364 . S
C512 C513 1.390 . S
C512 H559 0.931 . S
C513 C512 1.390 . S
C513 C514 1.346 . S
C513 H560 0.930 . S
C514 N509 1.342 . S
C514 C513 1.346 . S
C514 C530 1.516 . S
N515 Co507 1.958 . S
N515 C530 1.324 . S
N515 C532 1.427 . S
N516 C492 1.316 . S
N516 C493 1.436 . S
N516 Co507 1.953 . S
N517 C501 1.423 . S
N517 Co507 1.974 . S
N517 C547 1.309 . S
O518 Cd500 2.352 . S
O518 C538 1.235 . S
O519 Cd499 2.329 . S
O519 C538 1.270 . S
C520 O521 1.270 . S
C520 O522 1.248 . S
O521 Cd499 2.350 . S
O521 C520 1.270 . S
O522 Cd499 2.277 . S
O522 C520 1.248 . S
C523 O524 1.277 . S
C523 O525 1.230 . S
O524 Cd499 2.173 . S
O524 C523 1.277 . S
O525 Cd500 2.250 . S
O525 C523 1.230 . S
C526 N508 1.329 . S
C526 C510 1.481 . S
C526 O527 1.246 . S
O527 C526 1.246 . S
O528 Cd499 2.263 . S
O528 C540 1.258 . S
O529 Cd500 2.308 . S
O529 C540 1.274 . S
C530 C514 1.516 . S
C530 N515 1.324 . S
C530 O531 1.238 . S
O531 C530 1.238 . S
C532 N515 1.427 . S
C532 C533 1.394 . S
C532 C537 1.395 . S
C533 C532 1.394 . S
C533 C534 1.380 . S
C533 H561 0.929 . S
C534 C533 1.380 . S
C534 C535 1.384 . S
C534 C540 1.495 . S
C535 C534 1.384 . S
C535 C536 1.382 . S
C535 H562 0.930 . S
C536 C535 1.382 . S
C536 C537 1.398 . S
C537 C532 1.395 . S
C537 C536 1.398 . S
C537 H563 0.930 . S
C538 O518 1.235 . S
C538 O519 1.270 . S
O539 C492 1.263 . S
O539 Cd499 2.366 . S
C540 O528 1.258 . S
C540 O529 1.274 . S
C540 C534 1.495 . S
C541 N508 1.432 . S
C541 C542 1.381 . S
C541 C546 1.385 . S
C542 C541 1.381 . S
C542 C543 1.371 . S
C542 H564 0.932 . S
C543 C542 1.371 . S
C543 C544 1.400 . S
C544 C543 1.400 . S
C544 C545 1.351 . S
C544 H565 0.930 . S
C545 C544 1.351 . S
C545 C546 1.388 . S
C546 C541 1.385 . S
C546 C545 1.388 . S
C546 H566 0.929 . S
C547 C486 1.504 . S
C547 N517 1.309 . S
C547 O548 1.258 . S
O548 C547 1.258 . S
H549 C487 0.929 . S
H550 C488 0.932 . S
H551 C489 0.931 . S
H552 C494 0.929 . S
H553 C496 0.929 . S
H554 C498 0.931 . S
H555 C503 0.929 . S
H556 C505 0.932 . S
H557 C506 0.931 . S
H558 C511 0.930 . S
H559 C512 0.931 . S
H560 C513 0.930 . S
H561 C533 0.929 . S
H562 C535 0.930 . S
H563 C537 0.930 . S
H564 C542 0.932 . S
H565 C544 0.930 . S
H566 C546 0.929 . S
C567 C568 1.359 . S
C567 N572 1.330 . S
C567 C628 1.504 . S
C568 C567 1.359 . S
C568 C569 1.366 . S
C568 H630 0.929 . S
C569 C568 1.366 . S
C569 C570 1.415 . S
C569 H631 0.932 . S
C570 C569 1.415 . S
C570 C571 1.366 . S
C570 H632 0.931 . S
C571 C570 1.366 . S
C571 N572 1.325 . S
C571 C573 1.516 . S
N572 C567 1.330 . S
N572 C571 1.325 . S
N572 Co588 1.869 . S
C573 C571 1.516 . S
C573 N597 1.316 . S
C573 O620 1.263 . S
C574 C575 1.421 . S
C574 C579 1.360 . S
C574 N597 1.436 . S
C575 C574 1.421 . S
C575 C576 1.379 . S
C575 H633 0.929 . S
C576 C575 1.379 . S
C576 C577 1.417 . S
C577 C576 1.417 . S
C577 C578 1.352 . S
C577 H634 0.929 . S
C578 C577 1.352 . S
C578 C579 1.393 . S
C579 C574 1.360 . S
C579 C578 1.393 . S
C579 H635 0.931 . S
Cd580 O600 2.329 . S
Cd580 O602 2.350 . S
Cd580 O603 2.277 . S
Cd580 O605 2.173 . S
Cd580 O609 2.263 . S
Cd580 O620 2.366 . S
Cd581 O599 2.352 . S
Cd581 O606 2.250 . S
Cd581 O610 2.308 . S
C582 C586 1.403 . S
C582 C587 1.370 . S
C582 N598 1.423 . S
C583 C584 1.389 . S
C583 C587 1.389 . S
C584 C583 1.389 . S
C584 C585 1.379 . S
C584 H636 0.929 . S
C585 C584 1.379 . S
C585 C586 1.405 . S
C586 C582 1.403 . S
C586 C585 1.405 . S
C586 H637 0.932 . S
C587 C582 1.370 . S
C587 C583 1.389 . S
C587 H638 0.931 . S
Co588 N572 1.869 . S
Co588 N589 1.955 . S
Co588 N590 1.864 . S
Co588 N596 1.958 . S
Co588 N597 1.953 . S
Co588 N598 1.974 . S
N589 Co588 1.955 . S
N589 C607 1.329 . S
N589 C622 1.432 . S
N590 Co588 1.864 . S
N590 C591 1.327 . S
N590 C595 1.342 . S
C591 N590 1.327 . S
C591 C592 1.407 . S
C591 C607 1.481 . S
C592 C591 1.407 . S
C592 C593 1.364 . S
C592 H639 0.930 . S
C593 C592 1.364 . S
C593 C594 1.390 . S
C593 H640 0.931 . S
C594 C593 1.390 . S
C594 C595 1.346 . S
C594 H641 0.930 . S
C595 N590 1.342 . S
C595 C594 1.346 . S
C595 C611 1.516 . S
N596 Co588 1.958 . S
N596 C611 1.324 . S
N596 C613 1.427 . S
N597 C573 1.316 . S
N597 C574 1.436 . S
N597 Co588 1.953 . S
N598 C582 1.423 . S
N598 Co588 1.974 . S
N598 C628 1.309 . S
O599 Cd581 2.352 . S
O599 C619 1.235 . S
O600 Cd580 2.329 . S
O600 C619 1.270 . S
C601 O602 1.270 . S
C601 O603 1.248 . S
O602 Cd580 2.350 . S
O602 C601 1.270 . S
O603 Cd580 2.277 . S
O603 C601 1.248 . S
C604 O605 1.277 . S
C604 O606 1.230 . S
O605 Cd580 2.173 . S
O605 C604 1.277 . S
O606 Cd581 2.250 . S
O606 C604 1.230 . S
C607 N589 1.329 . S
C607 C591 1.481 . S
C607 O608 1.246 . S
O608 C607 1.246 . S
O609 Cd580 2.263 . S
O609 C621 1.258 . S
O610 Cd581 2.308 . S
O610 C621 1.274 . S
C611 C595 1.516 . S
C611 N596 1.324 . S
C611 O612 1.238 . S
O612 C611 1.238 . S
C613 N596 1.427 . S
C613 C614 1.394 . S
C613 C618 1.395 . S
C614 C613 1.394 . S
C614 C615 1.380 . S
C614 H642 0.929 . S
C615 C614 1.380 . S
C615 C616 1.384 . S
C615 C621 1.495 . S
C616 C615 1.384 . S
C616 C617 1.382 . S
C616 H643 0.930 . S
C617 C616 1.382 . S
C617 C618 1.398 . S
C618 C613 1.395 . S
C618 C617 1.398 . S
C618 H644 0.930 . S
C619 O599 1.235 . S
C619 O600 1.270 . S
O620 C573 1.263 . S
O620 Cd580 2.366 . S
C621 O609 1.258 . S
C621 O610 1.274 . S
C621 C615 1.495 . S
C622 N589 1.432 . S
C622 C623 1.381 . S
C622 C627 1.385 . S
C623 C622 1.381 . S
C623 C624 1.371 . S
C623 H645 0.932 . S
C624 C623 1.371 . S
C624 C625 1.400 . S
C625 C624 1.400 . S
C625 C626 1.351 . S
C625 H646 0.930 . S
C626 C625 1.351 . S
C626 C627 1.388 . S
C627 C622 1.385 . S
C627 C626 1.388 . S
C627 H647 0.929 . S
C628 C567 1.504 . S
C628 N598 1.309 . S
C628 O629 1.258 . S
O629 C628 1.258 . S
H630 C568 0.929 . S
H631 C569 0.932 . S
H632 C570 0.931 . S
H633 C575 0.929 . S
H634 C577 0.929 . S
H635 C579 0.931 . S
H636 C584 0.929 . S
H637 C586 0.932 . S
H638 C587 0.931 . S
H639 C592 0.930 . S
H640 C593 0.931 . S
H641 C594 0.930 . S
H642 C614 0.929 . S
H643 C616 0.930 . S
H644 C618 0.930 . S
H645 C623 0.932 . S
H646 C625 0.930 . S
H647 C627 0.929 . S
C648 C649 1.359 . S
C648 N653 1.330 . S
C648 C709 1.504 . S
C649 C648 1.359 . S
C649 C650 1.366 . S
C649 H711 0.929 . S
C650 C649 1.366 . S
C650 C651 1.415 . S
C650 H712 0.932 . S
C651 C650 1.415 . S
C651 C652 1.366 . S
C651 H713 0.931 . S
C652 C651 1.366 . S
C652 N653 1.325 . S
C652 C654 1.516 . S
N653 C648 1.330 . S
N653 C652 1.325 . S
N653 Co669 1.869 . S
C654 C652 1.516 . S
C654 N678 1.316 . S
C654 O701 1.263 . S
C655 C656 1.421 . S
C655 C660 1.360 . S
C655 N678 1.436 . S
C656 C655 1.421 . S
C656 C657 1.379 . S
C656 H714 0.929 . S
C657 C656 1.379 . S
C657 C658 1.417 . S
C658 C657 1.417 . S
C658 C659 1.352 . S
C658 H715 0.929 . S
C659 C658 1.352 . S
C659 C660 1.393 . S
C660 C655 1.360 . S
C660 C659 1.393 . S
C660 H716 0.931 . S
Cd661 O681 2.329 . S
Cd661 O683 2.350 . S
Cd661 O684 2.277 . S
Cd661 O686 2.173 . S
Cd661 O690 2.263 . S
Cd661 O701 2.366 . S
Cd662 O680 2.352 . S
Cd662 O687 2.250 . S
Cd662 O691 2.308 . S
C663 C667 1.403 . S
C663 C668 1.370 . S
C663 N679 1.423 . S
C664 C665 1.389 . S
C664 C668 1.389 . S
C665 C664 1.389 . S
C665 C666 1.379 . S
C665 H717 0.929 . S
C666 C665 1.379 . S
C666 C667 1.405 . S
C667 C663 1.403 . S
C667 C666 1.405 . S
C667 H718 0.932 . S
C668 C663 1.370 . S
C668 C664 1.389 . S
C668 H719 0.931 . S
Co669 N653 1.869 . S
Co669 N670 1.955 . S
Co669 N671 1.864 . S
Co669 N677 1.958 . S
Co669 N678 1.953 . S
Co669 N679 1.974 . S
N670 Co669 1.955 . S
N670 C688 1.329 . S
N670 C703 1.432 . S
N671 Co669 1.864 . S
N671 C672 1.327 . S
N671 C676 1.342 . S
C672 N671 1.327 . S
C672 C673 1.407 . S
C672 C688 1.481 . S
C673 C672 1.407 . S
C673 C674 1.364 . S
C673 H720 0.930 . S
C674 C673 1.364 . S
C674 C675 1.390 . S
C674 H721 0.931 . S
C675 C674 1.390 . S
C675 C676 1.346 . S
C675 H722 0.930 . S
C676 N671 1.342 . S
C676 C675 1.346 . S
C676 C692 1.516 . S
N677 Co669 1.958 . S
N677 C692 1.324 . S
N677 C694 1.427 . S
N678 C654 1.316 . S
N678 C655 1.436 . S
N678 Co669 1.953 . S
N679 C663 1.423 . S
N679 Co669 1.974 . S
N679 C709 1.309 . S
O680 Cd662 2.352 . S
O680 C700 1.235 . S
O681 Cd661 2.329 . S
O681 C700 1.270 . S
C682 O683 1.270 . S
C682 O684 1.248 . S
O683 Cd661 2.350 . S
O683 C682 1.270 . S
O684 Cd661 2.277 . S
O684 C682 1.248 . S
C685 O686 1.277 . S
C685 O687 1.230 . S
O686 Cd661 2.173 . S
O686 C685 1.277 . S
O687 Cd662 2.250 . S
O687 C685 1.230 . S
C688 N670 1.329 . S
C688 C672 1.481 . S
C688 O689 1.246 . S
O689 C688 1.246 . S
O690 Cd661 2.263 . S
O690 C702 1.258 . S
O691 Cd662 2.308 . S
O691 C702 1.274 . S
C692 C676 1.516 . S
C692 N677 1.324 . S
C692 O693 1.238 . S
O693 C692 1.238 . S
C694 N677 1.427 . S
C694 C695 1.394 . S
C694 C699 1.395 . S
C695 C694 1.394 . S
C695 C696 1.380 . S
C695 H723 0.929 . S
C696 C695 1.380 . S
C696 C697 1.384 . S
C696 C702 1.495 . S
C697 C696 1.384 . S
C697 C698 1.382 . S
C697 H724 0.930 . S
C698 C697 1.382 . S
C698 C699 1.398 . S
C699 C694 1.395 . S
C699 C698 1.398 . S
C699 H725 0.930 . S
C700 O680 1.235 . S
C700 O681 1.270 . S
O701 C654 1.263 . S
O701 Cd661 2.366 . S
C702 O690 1.258 . S
C702 O691 1.274 . S
C702 C696 1.495 . S
C703 N670 1.432 . S
C703 C704 1.381 . S
C703 C708 1.385 . S
C704 C703 1.381 . S
C704 C705 1.371 . S
C704 H726 0.932 . S
C705 C704 1.371 . S
C705 C706 1.400 . S
C706 C705 1.400 . S
C706 C707 1.351 . S
C706 H727 0.930 . S
C707 C706 1.351 . S
C707 C708 1.388 . S
C708 C703 1.385 . S
C708 C707 1.388 . S
C708 H728 0.929 . S
C709 C648 1.504 . S
C709 N679 1.309 . S
C709 O710 1.258 . S
O710 C709 1.258 . S
H711 C649 0.929 . S
H712 C650 0.932 . S
H713 C651 0.931 . S
H714 C656 0.929 . S
H715 C658 0.929 . S
H716 C660 0.931 . S
H717 C665 0.929 . S
H718 C667 0.932 . S
H719 C668 0.931 . S
H720 C673 0.930 . S
H721 C674 0.931 . S
H722 C675 0.930 . S
H723 C695 0.929 . S
H724 C697 0.930 . S
H725 C699 0.930 . S
H726 C704 0.932 . S
H727 C706 0.930 . S
H728 C708 0.929 . S
C729 C730 1.359 . S
C729 N734 1.330 . S
C729 C790 1.504 . S
C730 C729 1.359 . S
C730 C731 1.366 . S
C730 H792 0.929 . S
C731 C730 1.366 . S
C731 C732 1.415 . S
C731 H793 0.932 . S
C732 C731 1.415 . S
C732 C733 1.366 . S
C732 H794 0.931 . S
C733 C732 1.366 . S
C733 N734 1.325 . S
C733 C735 1.536 . S
N734 C729 1.330 . S
N734 C733 1.325 . S
N734 Co750 1.869 1_545 S
C735 C733 1.536 . S
C735 N759 1.286 1_545 S
C735 O782 1.274 1_545 S
C736 C737 1.421 . S
C736 C741 1.360 . S
C736 N759 1.436 . S
C737 C736 1.421 . S
C737 C738 1.379 . S
C737 H795 0.929 . S
C738 C737 1.379 . S
C738 C739 1.417 . S
C739 C738 1.417 . S
C739 C740 1.352 . S
C739 H796 0.929 . S
C740 C739 1.352 . S
C740 C741 1.393 . S
C741 C736 1.360 . S
C741 C740 1.393 . S
C741 H797 0.931 . S
Cd742 O762 2.329 . S
Cd742 O764 2.350 . S
Cd742 O765 2.277 . S
Cd742 O767 2.173 1_565 S
Cd742 O771 2.263 . S
Cd742 O782 2.366 . S
Cd743 O761 2.352 . S
Cd743 O768 2.250 . S
Cd743 O772 2.308 . S
C744 C748 1.403 . S
C744 C749 1.345 1_545 S
C744 N760 1.423 . S
C745 C746 1.389 1_565 S
C745 C749 1.405 . S
C746 C745 1.389 1_545 S
C746 C747 1.379 . S
C746 H798 0.929 1_545 S
C747 C746 1.379 . S
C747 C748 1.405 . S
C748 C744 1.403 . S
C748 C747 1.405 . S
C748 H799 0.932 . S
C749 C744 1.345 1_565 S
C749 C745 1.405 . S
C749 H800 0.940 . S
Co750 N734 1.869 1_565 S
Co750 N751 1.955 1_565 S
Co750 N752 1.864 . S
Co750 N758 1.958 . S
Co750 N759 1.953 . S
Co750 N760 1.974 1_565 S
N751 Co750 1.955 1_545 S
N751 C769 1.329 1_545 S
N751 C784 1.432 . S
N752 Co750 1.864 . S
N752 C753 1.327 . S
N752 C757 1.342 . S
C753 N752 1.327 . S
C753 C754 1.407 . S
C753 C769 1.481 . S
C754 C753 1.407 . S
C754 C755 1.364 . S
C754 H801 0.930 . S
C755 C754 1.364 . S
C755 C756 1.390 . S
C755 H802 0.931 . S
C756 C755 1.390 . S
C756 C757 1.346 . S
C756 H803 0.930 . S
C757 N752 1.342 . S
C757 C756 1.346 . S
C757 C773 1.516 . S
N758 Co750 1.958 . S
N758 C773 1.324 . S
N758 C775 1.427 . S
N759 C735 1.286 1_565 S
N759 C736 1.436 . S
N759 Co750 1.953 . S
N760 C744 1.423 . S
N760 Co750 1.974 1_545 S
N760 C790 1.309 . S
O761 Cd743 2.352 . S
O761 C781 1.235 1_545 S
O762 Cd742 2.329 . S
O762 C781 1.270 . S
C763 O764 1.270 . S
C763 O765 1.248 . S
O764 Cd742 2.350 . S
O764 C763 1.270 . S
O765 Cd742 2.277 . S
O765 C763 1.248 . S
C766 O767 1.277 . S
C766 O768 1.230 . S
O767 Cd742 2.173 1_545 S
O767 C766 1.277 . S
O768 Cd743 2.250 . S
O768 C766 1.230 . S
C769 N751 1.329 1_565 S
C769 C753 1.481 . S
C769 O770 1.246 . S
O770 C769 1.246 . S
O771 Cd742 2.263 . S
O771 C783 1.258 1_565 S
O772 Cd743 2.308 . S
O772 C783 1.274 . S
C773 C757 1.516 . S
C773 N758 1.324 . S
C773 O774 1.238 . S
O774 C773 1.238 . S
C775 N758 1.427 . S
C775 C776 1.394 . S
C775 C780 1.395 1_565 S
C776 C775 1.394 . S
C776 C777 1.380 1_565 S
C776 H804 0.929 . S
C777 C776 1.380 1_545 S
C777 C778 1.384 . S
C777 C783 1.495 . S
C778 C777 1.384 . S
C778 C779 1.382 . S
C778 H805 0.930 . S
C779 C778 1.382 . S
C779 C780 1.398 . S
C780 C775 1.395 1_545 S
C780 C779 1.398 . S
C780 H806 0.930 . S
C781 O761 1.235 1_565 S
C781 O762 1.270 . S
O782 C735 1.274 1_565 S
O782 Cd742 2.366 . S
C783 O771 1.258 1_545 S
C783 O772 1.274 . S
C783 C777 1.495 . S
C784 N751 1.432 . S
C784 C785 1.381 . S
C784 C789 1.385 . S
C785 C784 1.381 . S
C785 C786 1.371 . S
C785 H807 0.932 . S
C786 C785 1.371 . S
C786 C787 1.400 . S
C787 C786 1.400 . S
C787 C788 1.351 . S
C787 H808 0.930 . S
C788 C787 1.351 . S
C788 C789 1.388 . S
C789 C784 1.385 . S
C789 C788 1.388 . S
C789 H809 0.962 . S
C790 C729 1.504 . S
C790 N760 1.309 . S
C790 O791 1.258 . S
O791 C790 1.258 . S
H792 C730 0.929 . S
H793 C731 0.932 . S
H794 C732 0.931 . S
H795 C737 0.929 . S
H796 C739 0.929 . S
H797 C741 0.931 . S
H798 C746 0.929 1_565 S
H799 C748 0.932 . S
H800 C749 0.940 . S
H801 C754 0.930 . S
H802 C755 0.931 . S
H803 C756 0.930 . S
H804 C776 0.929 . S
H805 C778 0.930 . S
H806 C780 0.930 . S
H807 C785 0.932 . S
H808 C787 0.930 . S
H809 C789 0.962 . S
C810 C811 1.359 . S
C810 N815 1.330 . S
C810 C871 1.504 . S
C811 C810 1.359 . S
C811 C812 1.366 . S
C811 H873 0.929 . S
C812 C811 1.366 . S
C812 C813 1.415 . S
C812 H874 0.932 . S
C813 C812 1.415 . S
C813 C814 1.366 . S
C813 H875 0.931 . S
C814 C813 1.366 . S
C814 N815 1.325 . S
C814 C816 1.550 . S
N815 C810 1.330 . S
N815 C814 1.325 . S
N815 Co831 1.869 1_655 S
C816 C814 1.550 . S
C816 N840 1.307 1_655 S
C816 O863 1.243 1_655 S
C817 C818 1.421 . S
C817 C822 1.360 . S
C817 N840 1.436 . S
C818 C817 1.421 . S
C818 C819 1.379 . S
C818 H876 0.929 . S
C819 C818 1.379 . S
C819 C820 1.417 . S
C820 C819 1.417 . S
C820 C821 1.352 . S
C820 H877 0.929 . S
C821 C820 1.352 . S
C821 C822 1.393 . S
C822 C817 1.360 . S
C822 C821 1.393 . S
C822 H878 0.931 . S
Cd823 O843 2.329 . S
Cd823 O845 2.350 . S
Cd823 O846 2.277 . S
Cd823 O848 2.173 1_455 S
Cd823 O852 2.263 . S
Cd823 O863 2.366 . S
Cd824 O842 2.352 . S
Cd824 O849 2.250 . S
Cd824 O853 2.308 . S
C825 C829 1.403 . S
C825 C830 1.364 1_655 S
C825 N841 1.423 . S
C826 C827 1.389 1_455 S
C826 C830 1.387 . S
C827 C826 1.389 1_655 S
C827 C828 1.379 . S
C827 H879 0.929 1_655 S
C828 C827 1.379 . S
C828 C829 1.405 . S
C829 C825 1.403 . S
C829 C828 1.405 . S
C829 H880 0.932 . S
C830 C825 1.364 1_455 S
C830 C826 1.387 . S
C830 H881 0.940 . S
Co831 N815 1.869 1_455 S
Co831 N832 1.955 1_455 S
Co831 N833 1.864 . S
Co831 N839 1.958 . S
Co831 N840 1.953 . S
Co831 N841 1.974 1_455 S
N832 Co831 1.955 1_655 S
N832 C850 1.329 1_655 S
N832 C865 1.432 . S
N833 Co831 1.864 . S
N833 C834 1.327 . S
N833 C838 1.342 . S
C834 N833 1.327 . S
C834 C835 1.407 . S
C834 C850 1.481 . S
C835 C834 1.407 . S
C835 C836 1.364 . S
C835 H882 0.930 . S
C836 C835 1.364 . S
C836 C837 1.390 . S
C836 H883 0.931 . S
C837 C836 1.390 . S
C837 C838 1.346 . S
C837 H884 0.930 . S
C838 N833 1.342 . S
C838 C837 1.346 . S
C838 C854 1.516 . S
N839 Co831 1.958 . S
N839 C854 1.324 . S
N839 C856 1.427 . S
N840 C816 1.307 1_455 S
N840 C817 1.436 . S
N840 Co831 1.953 . S
N841 C825 1.423 . S
N841 Co831 1.974 1_655 S
N841 C871 1.309 . S
O842 Cd824 2.352 . S
O842 C862 1.235 1_655 S
O843 Cd823 2.329 . S
O843 C862 1.270 . S
C844 O845 1.270 . S
C844 O846 1.248 . S
O845 Cd823 2.350 . S
O845 C844 1.270 . S
O846 Cd823 2.277 . S
O846 C844 1.248 . S
C847 O848 1.277 . S
C847 O849 1.230 . S
O848 Cd823 2.173 1_655 S
O848 C847 1.277 . S
O849 Cd824 2.250 . S
O849 C847 1.230 . S
C850 N832 1.329 1_455 S
C850 C834 1.481 . S
C850 O851 1.246 . S
O851 C850 1.246 . S
O852 Cd823 2.263 . S
O852 C864 1.258 1_455 S
O853 Cd824 2.308 . S
O853 C864 1.274 . S
C854 C838 1.516 . S
C854 N839 1.324 . S
C854 O855 1.238 . S
O855 C854 1.238 . S
C856 N839 1.427 . S
C856 C857 1.394 . S
C856 C861 1.395 1_455 S
C857 C856 1.394 . S
C857 C858 1.380 1_455 S
C857 H885 0.929 . S
C858 C857 1.380 1_655 S
C858 C859 1.384 . S
C858 C864 1.495 . S
C859 C858 1.384 . S
C859 C860 1.382 . S
C859 H886 0.930 . S
C860 C859 1.382 . S
C860 C861 1.398 . S
C861 C856 1.395 1_655 S
C861 C860 1.398 . S
C861 H887 0.930 . S
C862 O842 1.235 1_455 S
C862 O843 1.270 . S
O863 C816 1.243 1_455 S
O863 Cd823 2.366 . S
C864 O852 1.258 1_655 S
C864 O853 1.274 . S
C864 C858 1.495 . S
C865 N832 1.432 . S
C865 C866 1.381 . S
C865 C870 1.385 . S
C866 C865 1.381 . S
C866 C867 1.371 . S
C866 H888 0.932 . S
C867 C866 1.371 . S
C867 C868 1.400 . S
C868 C867 1.400 . S
C868 C869 1.351 . S
C868 H889 0.930 . S
C869 C868 1.351 . S
C869 C870 1.388 . S
C870 C865 1.385 . S
C870 C869 1.388 . S
C870 H890 0.976 . S
C871 C810 1.504 . S
C871 N841 1.309 . S
C871 O872 1.258 . S
O872 C871 1.258 . S
H873 C811 0.929 . S
H874 C812 0.932 . S
H875 C813 0.931 . S
H876 C818 0.929 . S
H877 C820 0.929 . S
H878 C822 0.931 . S
H879 C827 0.929 1_455 S
H880 C829 0.932 . S
H881 C830 0.940 . S
H882 C835 0.930 . S
H883 C836 0.931 . S
H884 C837 0.930 . S
H885 C857 0.929 . S
H886 C859 0.930 . S
H887 C861 0.930 . S
H888 C866 0.932 . S
H889 C868 0.930 . S
H890 C870 0.976 . S
C891 C892 1.359 . S
C891 N896 1.330 . S
C891 C952 1.504 . S
C892 C891 1.359 . S
C892 C893 1.366 . S
C892 H954 0.929 . S
C893 C892 1.366 . S
C893 C894 1.415 . S
C893 H955 0.932 . S
C894 C893 1.415 . S
C894 C895 1.366 . S
C894 H956 0.931 . S
C895 C894 1.366 . S
C895 N896 1.325 . S
C895 C897 1.516 . S
N896 C891 1.330 . S
N896 C895 1.325 . S
N896 Co912 1.869 . S
C897 C895 1.516 . S
C897 N921 1.316 . S
C897 O944 1.263 . S
C898 C899 1.421 . S
C898 C903 1.360 . S
C898 N921 1.436 . S
C899 C898 1.421 . S
C899 C900 1.379 . S
C899 H957 0.929 . S
C900 C899 1.379 . S
C900 C901 1.417 . S
C901 C900 1.417 . S
C901 C902 1.352 . S
C901 H958 0.929 . S
C902 C901 1.352 . S
C902 C903 1.393 . S
C903 C898 1.360 . S
C903 C902 1.393 . S
C903 H959 0.931 . S
Cd904 O924 2.329 . S
Cd904 O926 2.350 . S
Cd904 O927 2.277 . S
Cd904 O929 2.173 . S
Cd904 O933 2.263 . S
Cd904 O944 2.366 . S
Cd905 O923 2.352 . S
Cd905 O930 2.250 . S
Cd905 O934 2.308 . S
C906 C910 1.403 . S
C906 C911 1.370 . S
C906 N922 1.423 . S
C907 C908 1.389 . S
C907 C911 1.389 . S
C908 C907 1.389 . S
C908 C909 1.379 . S
C908 H960 0.929 . S
C909 C908 1.379 . S
C909 C910 1.405 . S
C910 C906 1.403 . S
C910 C909 1.405 . S
C910 H961 0.932 . S
C911 C906 1.370 . S
C911 C907 1.389 . S
C911 H962 0.931 . S
Co912 N896 1.869 . S
Co912 N913 1.955 . S
Co912 N914 1.864 . S
Co912 N920 1.958 . S
Co912 N921 1.953 . S
Co912 N922 1.974 . S
N913 Co912 1.955 . S
N913 C931 1.329 . S
N913 C946 1.432 . S
N914 Co912 1.864 . S
N914 C915 1.327 . S
N914 C919 1.342 . S
C915 N914 1.327 . S
C915 C916 1.407 . S
C915 C931 1.481 . S
C916 C915 1.407 . S
C916 C917 1.364 . S
C916 H963 0.930 . S
C917 C916 1.364 . S
C917 C918 1.390 . S
C917 H964 0.931 . S
C918 C917 1.390 . S
C918 C919 1.346 . S
C918 H965 0.930 . S
C919 N914 1.342 . S
C919 C918 1.346 . S
C919 C935 1.516 . S
N920 Co912 1.958 . S
N920 C935 1.324 . S
N920 C937 1.427 . S
N921 C897 1.316 . S
N921 C898 1.436 . S
N921 Co912 1.953 . S
N922 C906 1.423 . S
N922 Co912 1.974 . S
N922 C952 1.309 . S
O923 Cd905 2.352 . S
O923 C943 1.235 . S
O924 Cd904 2.329 . S
O924 C943 1.270 . S
C925 O926 1.270 . S
C925 O927 1.248 . S
O926 Cd904 2.350 . S
O926 C925 1.270 . S
O927 Cd904 2.277 . S
O927 C925 1.248 . S
C928 O929 1.277 . S
C928 O930 1.230 . S
O929 Cd904 2.173 . S
O929 C928 1.277 . S
O930 Cd905 2.250 . S
O930 C928 1.230 . S
C931 N913 1.329 . S
C931 C915 1.481 . S
C931 O932 1.246 . S
O932 C931 1.246 . S
O933 Cd904 2.263 . S
O933 C945 1.258 . S
O934 Cd905 2.308 . S
O934 C945 1.274 . S
C935 C919 1.516 . S
C935 N920 1.324 . S
C935 O936 1.238 . S
O936 C935 1.238 . S
C937 N920 1.427 . S
C937 C938 1.394 . S
C937 C942 1.395 . S
C938 C937 1.394 . S
C938 C939 1.380 . S
C938 H966 0.929 . S
C939 C938 1.380 . S
C939 C940 1.384 . S
C939 C945 1.495 . S
C940 C939 1.384 . S
C940 C941 1.382 . S
C940 H967 0.930 . S
C941 C940 1.382 . S
C941 C942 1.398 . S
C942 C937 1.395 . S
C942 C941 1.398 . S
C942 H968 0.930 . S
C943 O923 1.235 . S
C943 O924 1.270 . S
O944 C897 1.263 . S
O944 Cd904 2.366 . S
C945 O933 1.258 . S
C945 O934 1.274 . S
C945 C939 1.495 . S
C946 N913 1.432 . S
C946 C947 1.381 . S
C946 C951 1.385 . S
C947 C946 1.381 . S
C947 C948 1.371 . S
C947 H969 0.932 . S
C948 C947 1.371 . S
C948 C949 1.400 . S
C949 C948 1.400 . S
C949 C950 1.351 . S
C949 H970 0.930 . S
C950 C949 1.351 . S
C950 C951 1.388 . S
C951 C946 1.385 . S
C951 C950 1.388 . S
C951 H971 0.929 . S
C952 C891 1.504 . S
C952 N922 1.309 . S
C952 O953 1.258 . S
O953 C952 1.258 . S
H954 C892 0.929 . S
H955 C893 0.932 . S
H956 C894 0.931 . S
H957 C899 0.929 . S
H958 C901 0.929 . S
H959 C903 0.931 . S
H960 C908 0.929 . S
H961 C910 0.932 . S
H962 C911 0.931 . S
H963 C916 0.930 . S
H964 C917 0.931 . S
H965 C918 0.930 . S
H966 C938 0.929 . S
H967 C940 0.930 . S
H968 C942 0.930 . S
H969 C947 0.932 . S
H970 C949 0.930 . S
H971 C951 0.929 . S
C972 C973 1.359 . S
C972 N977 1.330 . S
C972 C1033 1.504 . S
C973 C972 1.359 . S
C973 C974 1.366 . S
C973 H1035 0.929 . S
C974 C973 1.366 . S
C974 C975 1.415 . S
C974 H1036 0.932 . S
C975 C974 1.415 . S
C975 C976 1.366 . S
C975 H1037 0.931 . S
C976 C975 1.366 . S
C976 N977 1.325 . S
C976 C978 1.536 . S
N977 C972 1.330 . S
N977 C976 1.325 . S
N977 Co993 1.869 1_565 S
C978 C976 1.536 . S
C978 N1002 1.286 1_565 S
C978 O1025 1.274 1_565 S
C979 C980 1.421 . S
C979 C984 1.360 . S
C979 N1002 1.436 . S
C980 C979 1.421 . S
C980 C981 1.379 . S
C980 H1038 0.929 . S
C981 C980 1.379 . S
C981 C982 1.417 . S
C982 C981 1.417 . S
C982 C983 1.352 . S
C982 H1039 0.929 . S
C983 C982 1.352 . S
C983 C984 1.393 . S
C984 C979 1.360 . S
C984 C983 1.393 . S
C984 H1040 0.931 . S
Cd985 O1005 2.329 . S
Cd985 O1007 2.350 . S
Cd985 O1008 2.277 . S
Cd985 O1010 2.173 1_545 S
Cd985 O1014 2.263 . S
Cd985 O1025 2.366 . S
Cd986 O1004 2.352 . S
Cd986 O1011 2.250 . S
Cd986 O1015 2.308 . S
C987 C991 1.403 . S
C987 C992 1.345 1_565 S
C987 N1003 1.423 . S
C988 C989 1.389 1_545 S
C988 C992 1.405 . S
C989 C988 1.389 1_565 S
C989 C990 1.379 . S
C989 H1041 0.929 1_565 S
C990 C989 1.379 . S
C990 C991 1.405 . S
C991 C987 1.403 . S
C991 C990 1.405 . S
C991 H1042 0.932 . S
C992 C987 1.345 1_545 S
C992 C988 1.405 . S
C992 H1043 0.940 . S
Co993 N977 1.869 1_545 S
Co993 N994 1.955 1_545 S
Co993 N995 1.864 . S
Co993 N1001 1.958 . S
Co993 N1002 1.953 . S
Co993 N1003 1.974 1_545 S
N994 Co993 1.955 1_565 S
N994 C1012 1.329 1_565 S
N994 C1027 1.432 . S
N995 Co993 1.864 . S
N995 C996 1.327 . S
N995 C1000 1.342 . S
C996 N995 1.327 . S
C996 C997 1.407 . S
C996 C1012 1.481 . S
C997 C996 1.407 . S
C997 C998 1.364 . S
C997 H1044 0.930 . S
C998 C997 1.364 . S
C998 C999 1.390 . S
C998 H1045 0.931 . S
C999 C998 1.390 . S
C999 C1000 1.346 . S
C999 H1046 0.930 . S
C1000 N995 1.342 . S
C1000 C999 1.346 . S
C1000 C1016 1.516 . S
N1001 Co993 1.958 . S
N1001 C1016 1.324 . S
N1001 C1018 1.427 . S
N1002 C978 1.286 1_545 S
N1002 C979 1.436 . S
N1002 Co993 1.953 . S
N1003 C987 1.423 . S
N1003 Co993 1.974 1_565 S
N1003 C1033 1.309 . S
O1004 Cd986 2.352 . S
O1004 C1024 1.235 1_565 S
O1005 Cd985 2.329 . S
O1005 C1024 1.270 . S
C1006 O1007 1.270 . S
C1006 O1008 1.248 . S
O1007 Cd985 2.350 . S
O1007 C1006 1.270 . S
O1008 Cd985 2.277 . S
O1008 C1006 1.248 . S
C1009 O1010 1.277 . S
C1009 O1011 1.230 . S
O1010 Cd985 2.173 1_565 S
O1010 C1009 1.277 . S
O1011 Cd986 2.250 . S
O1011 C1009 1.230 . S
C1012 N994 1.329 1_545 S
C1012 C996 1.481 . S
C1012 O1013 1.246 . S
O1013 C1012 1.246 . S
O1014 Cd985 2.263 . S
O1014 C1026 1.258 1_545 S
O1015 Cd986 2.308 . S
O1015 C1026 1.274 . S
C1016 C1000 1.516 . S
C1016 N1001 1.324 . S
C1016 O1017 1.238 . S
O1017 C1016 1.238 . S
C1018 N1001 1.427 . S
C1018 C1019 1.394 . S
C1018 C1023 1.395 1_545 S
C1019 C1018 1.394 . S
C1019 C1020 1.380 1_545 S
C1019 H1047 0.929 . S
C1020 C1019 1.380 1_565 S
C1020 C1021 1.384 . S
C1020 C1026 1.495 . S
C1021 C1020 1.384 . S
C1021 C1022 1.382 . S
C1021 H1048 0.930 . S
C1022 C1021 1.382 . S
C1022 C1023 1.398 . S
C1023 C1018 1.395 1_565 S
C1023 C1022 1.398 . S
C1023 H1049 0.930 . S
C1024 O1004 1.235 1_545 S
C1024 O1005 1.270 . S
O1025 C978 1.274 1_545 S
O1025 Cd985 2.366 . S
C1026 O1014 1.258 1_565 S
C1026 O1015 1.274 . S
C1026 C1020 1.495 . S
C1027 N994 1.432 . S
C1027 C1028 1.381 . S
C1027 C1032 1.385 . S
C1028 C1027 1.381 . S
C1028 C1029 1.371 . S
C1028 H1050 0.932 . S
C1029 C1028 1.371 . S
C1029 C1030 1.400 . S
C1030 C1029 1.400 . S
C1030 C1031 1.351 . S
C1030 H1051 0.930 . S
C1031 C1030 1.351 . S
C1031 C1032 1.388 . S
C1032 C1027 1.385 . S
C1032 C1031 1.388 . S
C1032 H1052 0.962 . S
C1033 C972 1.504 . S
C1033 N1003 1.309 . S
C1033 O1034 1.258 . S
O1034 C1033 1.258 . S
H1035 C973 0.929 . S
H1036 C974 0.932 . S
H1037 C975 0.931 . S
H1038 C980 0.929 . S
H1039 C982 0.929 . S
H1040 C984 0.931 . S
H1041 C989 0.929 1_545 S
H1042 C991 0.932 . S
H1043 C992 0.940 . S
H1044 C997 0.930 . S
H1045 C998 0.931 . S
H1046 C999 0.930 . S
H1047 C1019 0.929 . S
H1048 C1021 0.930 . S
H1049 C1023 0.930 . S
H1050 C1028 0.932 . S
H1051 C1030 0.930 . S
H1052 C1032 0.962 . S
C1053 C1054 1.359 . S
C1053 N1058 1.330 . S
C1053 C1114 1.504 . S
C1054 C1053 1.359 . S
C1054 C1055 1.366 . S
C1054 H1116 0.929 . S
C1055 C1054 1.366 . S
C1055 C1056 1.415 . S
C1055 H1117 0.932 . S
C1056 C1055 1.415 . S
C1056 C1057 1.366 . S
C1056 H1118 0.931 . S
C1057 C1056 1.366 . S
C1057 N1058 1.325 . S
C1057 C1059 1.550 . S
N1058 C1053 1.330 . S
N1058 C1057 1.325 . S
N1058 Co1074 1.869 1_455 S
C1059 C1057 1.550 . S
C1059 N1083 1.307 1_455 S
C1059 O1106 1.243 1_455 S
C1060 C1061 1.421 . S
C1060 C1065 1.360 . S
C1060 N1083 1.436 . S
C1061 C1060 1.421 . S
C1061 C1062 1.379 . S
C1061 H1119 0.929 . S
C1062 C1061 1.379 . S
C1062 C1063 1.417 . S
C1063 C1062 1.417 . S
C1063 C1064 1.352 . S
C1063 H1120 0.929 . S
C1064 C1063 1.352 . S
C1064 C1065 1.393 . S
C1065 C1060 1.360 . S
C1065 C1064 1.393 . S
C1065 H1121 0.931 . S
Cd1066 O1086 2.329 . S
Cd1066 O1088 2.350 . S
Cd1066 O1089 2.277 . S
Cd1066 O1091 2.173 1_655 S
Cd1066 O1095 2.263 . S
Cd1066 O1106 2.366 . S
Cd1067 O1085 2.352 . S
Cd1067 O1092 2.250 . S
Cd1067 O1096 2.308 . S
C1068 C1072 1.403 . S
C1068 C1073 1.364 1_455 S
C1068 N1084 1.423 . S
C1069 C1070 1.389 1_655 S
C1069 C1073 1.387 . S
C1070 C1069 1.389 1_455 S
C1070 C1071 1.379 . S
C1070 H1122 0.929 1_455 S
C1071 C1070 1.379 . S
C1071 C1072 1.405 . S
C1072 C1068 1.403 . S
C1072 C1071 1.405 . S
C1072 H1123 0.932 . S
C1073 C1068 1.364 1_655 S
C1073 C1069 1.387 . S
C1073 H1124 0.940 . S
Co1074 N1058 1.869 1_655 S
Co1074 N1075 1.955 1_655 S
Co1074 N1076 1.864 . S
Co1074 N1082 1.958 . S
Co1074 N1083 1.953 . S
Co1074 N1084 1.974 1_655 S
N1075 Co1074 1.955 1_455 S
N1075 C1093 1.329 1_455 S
N1075 C1108 1.432 . S
N1076 Co1074 1.864 . S
N1076 C1077 1.327 . S
N1076 C1081 1.342 . S
C1077 N1076 1.327 . S
C1077 C1078 1.407 . S
C1077 C1093 1.481 . S
C1078 C1077 1.407 . S
C1078 C1079 1.364 . S
C1078 H1125 0.930 . S
C1079 C1078 1.364 . S
C1079 C1080 1.390 . S
C1079 H1126 0.931 . S
C1080 C1079 1.390 . S
C1080 C1081 1.346 . S
C1080 H1127 0.930 . S
C1081 N1076 1.342 . S
C1081 C1080 1.346 . S
C1081 C1097 1.516 . S
N1082 Co1074 1.958 . S
N1082 C1097 1.324 . S
N1082 C1099 1.427 . S
N1083 C1059 1.307 1_655 S
N1083 C1060 1.436 . S
N1083 Co1074 1.953 . S
N1084 C1068 1.423 . S
N1084 Co1074 1.974 1_455 S
N1084 C1114 1.309 . S
O1085 Cd1067 2.352 . S
O1085 C1105 1.235 1_455 S
O1086 Cd1066 2.329 . S
O1086 C1105 1.270 . S
C1087 O1088 1.270 . S
C1087 O1089 1.248 . S
O1088 Cd1066 2.350 . S
O1088 C1087 1.270 . S
O1089 Cd1066 2.277 . S
O1089 C1087 1.248 . S
C1090 O1091 1.277 . S
C1090 O1092 1.230 . S
O1091 Cd1066 2.173 1_455 S
O1091 C1090 1.277 . S
O1092 Cd1067 2.250 . S
O1092 C1090 1.230 . S
C1093 N1075 1.329 1_655 S
C1093 C1077 1.481 . S
C1093 O1094 1.246 . S
O1094 C1093 1.246 . S
O1095 Cd1066 2.263 . S
O1095 C1107 1.258 1_655 S
O1096 Cd1067 2.308 . S
O1096 C1107 1.274 . S
C1097 C1081 1.516 . S
C1097 N1082 1.324 . S
C1097 O1098 1.238 . S
O1098 C1097 1.238 . S
C1099 N1082 1.427 . S
C1099 C1100 1.394 . S
C1099 C1104 1.395 1_655 S
C1100 C1099 1.394 . S
C1100 C1101 1.380 1_655 S
C1100 H1128 0.929 . S
C1101 C1100 1.380 1_455 S
C1101 C1102 1.384 . S
C1101 C1107 1.495 . S
C1102 C1101 1.384 . S
C1102 C1103 1.382 . S
C1102 H1129 0.930 . S
C1103 C1102 1.382 . S
C1103 C1104 1.398 . S
C1104 C1099 1.395 1_455 S
C1104 C1103 1.398 . S
C1104 H1130 0.930 . S
C1105 O1085 1.235 1_655 S
C1105 O1086 1.270 . S
O1106 C1059 1.243 1_655 S
O1106 Cd1066 2.366 . S
C1107 O1095 1.258 1_455 S
C1107 O1096 1.274 . S
C1107 C1101 1.495 . S
C1108 N1075 1.432 . S
C1108 C1109 1.381 . S
C1108 C1113 1.385 . S
C1109 C1108 1.381 . S
C1109 C1110 1.371 . S
C1109 H1131 0.932 . S
C1110 C1109 1.371 . S
C1110 C1111 1.400 . S
C1111 C1110 1.400 . S
C1111 C1112 1.351 . S
C1111 H1132 0.930 . S
C1112 C1111 1.351 . S
C1112 C1113 1.388 . S
C1113 C1108 1.385 . S
C1113 C1112 1.388 . S
C1113 H1133 0.976 . S
C1114 C1053 1.504 . S
C1114 N1084 1.309 . S
C1114 O1115 1.258 . S
O1115 C1114 1.258 . S
H1116 C1054 0.929 . S
H1117 C1055 0.932 . S
H1118 C1056 0.931 . S
H1119 C1061 0.929 . S
H1120 C1063 0.929 . S
H1121 C1065 0.931 . S
H1122 C1070 0.929 1_655 S
H1123 C1072 0.932 . S
H1124 C1073 0.940 . S
H1125 C1078 0.930 . S
H1126 C1079 0.931 . S
H1127 C1080 0.930 . S
H1128 C1100 0.929 . S
H1129 C1102 0.930 . S
H1130 C1104 0.930 . S
H1131 C1109 0.932 . S
H1132 C1111 0.930 . S
H1133 C1113 0.976 . S
C1134 C1135 1.359 . S
C1134 N1139 1.330 . S
C1134 C1195 1.504 . S
C1135 C1134 1.359 . S
C1135 C1136 1.366 . S
C1135 H1197 0.929 . S
C1136 C1135 1.366 . S
C1136 C1137 1.415 . S
C1136 H1198 0.932 . S
C1137 C1136 1.415 . S
C1137 C1138 1.366 . S
C1137 H1199 0.931 . S
C1138 C1137 1.366 . S
C1138 N1139 1.325 . S
C1138 C1140 1.516 . S
N1139 C1134 1.330 . S
N1139 C1138 1.325 . S
N1139 Co1155 1.869 . S
C1140 C1138 1.516 . S
C1140 N1164 1.316 . S
C1140 O1187 1.263 . S
C1141 C1142 1.421 . S
C1141 C1146 1.360 . S
C1141 N1164 1.436 . S
C1142 C1141 1.421 . S
C1142 C1143 1.379 . S
C1142 H1200 0.929 . S
C1143 C1142 1.379 . S
C1143 C1144 1.417 . S
C1144 C1143 1.417 . S
C1144 C1145 1.352 . S
C1144 H1201 0.929 . S
C1145 C1144 1.352 . S
C1145 C1146 1.393 . S
C1146 C1141 1.360 . S
C1146 C1145 1.393 . S
C1146 H1202 0.931 . S
Cd1147 O1167 2.329 . S
Cd1147 O1169 2.350 . S
Cd1147 O1170 2.277 . S
Cd1147 O1172 2.173 . S
Cd1147 O1176 2.263 . S
Cd1147 O1187 2.366 . S
Cd1148 O1166 2.352 . S
Cd1148 O1173 2.250 . S
Cd1148 O1177 2.308 . S
C1149 C1153 1.403 . S
C1149 C1154 1.370 . S
C1149 N1165 1.423 . S
C1150 C1151 1.389 . S
C1150 C1154 1.389 . S
C1151 C1150 1.389 . S
C1151 C1152 1.379 . S
C1151 H1203 0.929 . S
C1152 C1151 1.379 . S
C1152 C1153 1.405 . S
C1153 C1149 1.403 . S
C1153 C1152 1.405 . S
C1153 H1204 0.932 . S
C1154 C1149 1.370 . S
C1154 C1150 1.389 . S
C1154 H1205 0.931 . S
Co1155 N1139 1.869 . S
Co1155 N1156 1.955 . S
Co1155 N1157 1.864 . S
Co1155 N1163 1.958 . S
Co1155 N1164 1.953 . S
Co1155 N1165 1.974 . S
N1156 Co1155 1.955 . S
N1156 C1174 1.329 . S
N1156 C1189 1.432 . S
N1157 Co1155 1.864 . S
N1157 C1158 1.327 . S
N1157 C1162 1.342 . S
C1158 N1157 1.327 . S
C1158 C1159 1.407 . S
C1158 C1174 1.481 . S
C1159 C1158 1.407 . S
C1159 C1160 1.364 . S
C1159 H1206 0.930 . S
C1160 C1159 1.364 . S
C1160 C1161 1.390 . S
C1160 H1207 0.931 . S
C1161 C1160 1.390 . S
C1161 C1162 1.346 . S
C1161 H1208 0.930 . S
C1162 N1157 1.342 . S
C1162 C1161 1.346 . S
C1162 C1178 1.516 . S
N1163 Co1155 1.958 . S
N1163 C1178 1.324 . S
N1163 C1180 1.427 . S
N1164 C1140 1.316 . S
N1164 C1141 1.436 . S
N1164 Co1155 1.953 . S
N1165 C1149 1.423 . S
N1165 Co1155 1.974 . S
N1165 C1195 1.309 . S
O1166 Cd1148 2.352 . S
O1166 C1186 1.235 . S
O1167 Cd1147 2.329 . S
O1167 C1186 1.270 . S
C1168 O1169 1.270 . S
C1168 O1170 1.248 . S
O1169 Cd1147 2.350 . S
O1169 C1168 1.270 . S
O1170 Cd1147 2.277 . S
O1170 C1168 1.248 . S
C1171 O1172 1.277 . S
C1171 O1173 1.230 . S
O1172 Cd1147 2.173 . S
O1172 C1171 1.277 . S
O1173 Cd1148 2.250 . S
O1173 C1171 1.230 . S
C1174 N1156 1.329 . S
C1174 C1158 1.481 . S
C1174 O1175 1.246 . S
O1175 C1174 1.246 . S
O1176 Cd1147 2.263 . S
O1176 C1188 1.258 . S
O1177 Cd1148 2.308 . S
O1177 C1188 1.274 . S
C1178 C1162 1.516 . S
C1178 N1163 1.324 . S
C1178 O1179 1.238 . S
O1179 C1178 1.238 . S
C1180 N1163 1.427 . S
C1180 C1181 1.394 . S
C1180 C1185 1.395 . S
C1181 C1180 1.394 . S
C1181 C1182 1.380 . S
C1181 H1209 0.929 . S
C1182 C1181 1.380 . S
C1182 C1183 1.384 . S
C1182 C1188 1.495 . S
C1183 C1182 1.384 . S
C1183 C1184 1.382 . S
C1183 H1210 0.930 . S
C1184 C1183 1.382 . S
C1184 C1185 1.398 . S
C1185 C1180 1.395 . S
C1185 C1184 1.398 . S
C1185 H1211 0.930 . S
C1186 O1166 1.235 . S
C1186 O1167 1.270 . S
O1187 C1140 1.263 . S
O1187 Cd1147 2.366 . S
C1188 O1176 1.258 . S
C1188 O1177 1.274 . S
C1188 C1182 1.495 . S
C1189 N1156 1.432 . S
C1189 C1190 1.381 . S
C1189 C1194 1.385 . S
C1190 C1189 1.381 . S
C1190 C1191 1.371 . S
C1190 H1212 0.932 . S
C1191 C1190 1.371 . S
C1191 C1192 1.400 . S
C1192 C1191 1.400 . S
C1192 C1193 1.351 . S
C1192 H1213 0.930 . S
C1193 C1192 1.351 . S
C1193 C1194 1.388 . S
C1194 C1189 1.385 . S
C1194 C1193 1.388 . S
C1194 H1214 0.929 . S
C1195 C1134 1.504 . S
C1195 N1165 1.309 . S
C1195 O1196 1.258 . S
O1196 C1195 1.258 . S
H1197 C1135 0.929 . S
H1198 C1136 0.932 . S
H1199 C1137 0.931 . S
H1200 C1142 0.929 . S
H1201 C1144 0.929 . S
H1202 C1146 0.931 . S
H1203 C1151 0.929 . S
H1204 C1153 0.932 . S
H1205 C1154 0.931 . S
H1206 C1159 0.930 . S
H1207 C1160 0.931 . S
H1208 C1161 0.930 . S
H1209 C1181 0.929 . S
H1210 C1183 0.930 . S
H1211 C1185 0.930 . S
H1212 C1190 0.932 . S
H1213 C1192 0.930 . S
H1214 C1194 0.929 . S
C1215 C1216 1.359 . S
C1215 N1220 1.330 . S
C1215 C1276 1.504 . S
C1216 C1215 1.359 . S
C1216 C1217 1.366 . S
C1216 H1278 0.929 . S
C1217 C1216 1.366 . S
C1217 C1218 1.415 . S
C1217 H1279 0.932 . S
C1218 C1217 1.415 . S
C1218 C1219 1.366 . S
C1218 H1280 0.931 . S
C1219 C1218 1.366 . S
C1219 N1220 1.325 . S
C1219 C1221 1.516 . S
N1220 C1215 1.330 . S
N1220 C1219 1.325 . S
N1220 Co1236 1.869 . S
C1221 C1219 1.516 . S
C1221 N1245 1.316 . S
C1221 O1268 1.263 . S
C1222 C1223 1.421 . S
C1222 C1227 1.360 . S
C1222 N1245 1.436 . S
C1223 C1222 1.421 . S
C1223 C1224 1.379 . S
C1223 H1281 0.929 . S
C1224 C1223 1.379 . S
C1224 C1225 1.417 . S
C1225 C1224 1.417 . S
C1225 C1226 1.352 . S
C1225 H1282 0.929 . S
C1226 C1225 1.352 . S
C1226 C1227 1.393 . S
C1227 C1222 1.360 . S
C1227 C1226 1.393 . S
C1227 H1283 0.931 . S
Cd1228 O1248 2.329 . S
Cd1228 O1250 2.350 . S
Cd1228 O1251 2.277 . S
Cd1228 O1253 2.173 . S
Cd1228 O1257 2.263 . S
Cd1228 O1268 2.366 . S
Cd1229 O1247 2.352 . S
Cd1229 O1254 2.250 . S
Cd1229 O1258 2.308 . S
C1230 C1234 1.403 . S
C1230 C1235 1.370 . S
C1230 N1246 1.423 . S
C1231 C1232 1.389 . S
C1231 C1235 1.389 . S
C1232 C1231 1.389 . S
C1232 C1233 1.379 . S
C1232 H1284 0.929 . S
C1233 C1232 1.379 . S
C1233 C1234 1.405 . S
C1234 C1230 1.403 . S
C1234 C1233 1.405 . S
C1234 H1285 0.932 . S
C1235 C1230 1.370 . S
C1235 C1231 1.389 . S
C1235 H1286 0.931 . S
Co1236 N1220 1.869 . S
Co1236 N1237 1.955 . S
Co1236 N1238 1.864 . S
Co1236 N1244 1.958 . S
Co1236 N1245 1.953 . S
Co1236 N1246 1.974 . S
N1237 Co1236 1.955 . S
N1237 C1255 1.329 . S
N1237 C1270 1.432 . S
N1238 Co1236 1.864 . S
N1238 C1239 1.327 . S
N1238 C1243 1.342 . S
C1239 N1238 1.327 . S
C1239 C1240 1.407 . S
C1239 C1255 1.481 . S
C1240 C1239 1.407 . S
C1240 C1241 1.364 . S
C1240 H1287 0.930 . S
C1241 C1240 1.364 . S
C1241 C1242 1.390 . S
C1241 H1288 0.931 . S
C1242 C1241 1.390 . S
C1242 C1243 1.346 . S
C1242 H1289 0.930 . S
C1243 N1238 1.342 . S
C1243 C1242 1.346 . S
C1243 C1259 1.516 . S
N1244 Co1236 1.958 . S
N1244 C1259 1.324 . S
N1244 C1261 1.427 . S
N1245 C1221 1.316 . S
N1245 C1222 1.436 . S
N1245 Co1236 1.953 . S
N1246 C1230 1.423 . S
N1246 Co1236 1.974 . S
N1246 C1276 1.309 . S
O1247 Cd1229 2.352 . S
O1247 C1267 1.235 . S
O1248 Cd1228 2.329 . S
O1248 C1267 1.270 . S
C1249 O1250 1.270 . S
C1249 O1251 1.248 . S
O1250 Cd1228 2.350 . S
O1250 C1249 1.270 . S
O1251 Cd1228 2.277 . S
O1251 C1249 1.248 . S
C1252 O1253 1.277 . S
C1252 O1254 1.230 . S
O1253 Cd1228 2.173 . S
O1253 C1252 1.277 . S
O1254 Cd1229 2.250 . S
O1254 C1252 1.230 . S
C1255 N1237 1.329 . S
C1255 C1239 1.481 . S
C1255 O1256 1.246 . S
O1256 C1255 1.246 . S
O1257 Cd1228 2.263 . S
O1257 C1269 1.258 . S
O1258 Cd1229 2.308 . S
O1258 C1269 1.274 . S
C1259 C1243 1.516 . S
C1259 N1244 1.324 . S
C1259 O1260 1.238 . S
O1260 C1259 1.238 . S
C1261 N1244 1.427 . S
C1261 C1262 1.394 . S
C1261 C1266 1.395 . S
C1262 C1261 1.394 . S
C1262 C1263 1.380 . S
C1262 H1290 0.929 . S
C1263 C1262 1.380 . S
C1263 C1264 1.384 . S
C1263 C1269 1.495 . S
C1264 C1263 1.384 . S
C1264 C1265 1.382 . S
C1264 H1291 0.930 . S
C1265 C1264 1.382 . S
C1265 C1266 1.398 . S
C1266 C1261 1.395 . S
C1266 C1265 1.398 . S
C1266 H1292 0.930 . S
C1267 O1247 1.235 . S
C1267 O1248 1.270 . S
O1268 C1221 1.263 . S
O1268 Cd1228 2.366 . S
C1269 O1257 1.258 . S
C1269 O1258 1.274 . S
C1269 C1263 1.495 . S
C1270 N1237 1.432 . S
C1270 C1271 1.381 . S
C1270 C1275 1.385 . S
C1271 C1270 1.381 . S
C1271 C1272 1.371 . S
C1271 H1293 0.932 . S
C1272 C1271 1.371 . S
C1272 C1273 1.400 . S
C1273 C1272 1.400 . S
C1273 C1274 1.351 . S
C1273 H1294 0.930 . S
C1274 C1273 1.351 . S
C1274 C1275 1.388 . S
C1275 C1270 1.385 . S
C1275 C1274 1.388 . S
C1275 H1295 0.929 . S
C1276 C1215 1.504 . S
C1276 N1246 1.309 . S
C1276 O1277 1.258 . S
O1277 C1276 1.258 . S
H1278 C1216 0.929 . S
H1279 C1217 0.932 . S
H1280 C1218 0.931 . S
H1281 C1223 0.929 . S
H1282 C1225 0.929 . S
H1283 C1227 0.931 . S
H1284 C1232 0.929 . S
H1285 C1234 0.932 . S
H1286 C1235 0.931 . S
H1287 C1240 0.930 . S
H1288 C1241 0.931 . S
H1289 C1242 0.930 . S
H1290 C1262 0.929 . S
H1291 C1264 0.930 . S
H1292 C1266 0.930 . S
H1293 C1271 0.932 . S
H1294 C1273 0.930 . S
H1295 C1275 0.929 . S
C1296 C1297 1.359 . S
C1296 N1301 1.330 . S
C1296 C1357 1.504 . S
C1297 C1296 1.359 . S
C1297 C1298 1.366 . S
C1297 H1359 0.929 . S
C1298 C1297 1.366 . S
C1298 C1299 1.415 . S
C1298 H1360 0.932 . S
C1299 C1298 1.415 . S
C1299 C1300 1.366 . S
C1299 H1361 0.931 . S
C1300 C1299 1.366 . S
C1300 N1301 1.325 . S
C1300 C1302 1.516 . S
N1301 C1296 1.330 . S
N1301 C1300 1.325 . S
N1301 Co1317 1.869 . S
C1302 C1300 1.516 . S
C1302 N1326 1.316 . S
C1302 O1349 1.263 . S
C1303 C1304 1.421 . S
C1303 C1308 1.360 . S
C1303 N1326 1.436 . S
C1304 C1303 1.421 . S
C1304 C1305 1.379 . S
C1304 H1362 0.929 . S
C1305 C1304 1.379 . S
C1305 C1306 1.417 . S
C1306 C1305 1.417 . S
C1306 C1307 1.352 . S
C1306 H1363 0.929 . S
C1307 C1306 1.352 . S
C1307 C1308 1.393 . S
C1308 C1303 1.360 . S
C1308 C1307 1.393 . S
C1308 H1364 0.931 . S
Cd1309 O1329 2.329 . S
Cd1309 O1331 2.350 . S
Cd1309 O1332 2.277 . S
Cd1309 O1334 2.173 . S
Cd1309 O1338 2.263 . S
Cd1309 O1349 2.366 . S
Cd1310 O1328 2.352 . S
Cd1310 O1335 2.250 . S
Cd1310 O1339 2.308 . S
C1311 C1315 1.403 . S
C1311 C1316 1.370 . S
C1311 N1327 1.423 . S
C1312 C1313 1.389 . S
C1312 C1316 1.389 . S
C1313 C1312 1.389 . S
C1313 C1314 1.379 . S
C1313 H1365 0.929 . S
C1314 C1313 1.379 . S
C1314 C1315 1.405 . S
C1315 C1311 1.403 . S
C1315 C1314 1.405 . S
C1315 H1366 0.932 . S
C1316 C1311 1.370 . S
C1316 C1312 1.389 . S
C1316 H1367 0.931 . S
Co1317 N1301 1.869 . S
Co1317 N1318 1.955 . S
Co1317 N1319 1.864 . S
Co1317 N1325 1.958 . S
Co1317 N1326 1.953 . S
Co1317 N1327 1.974 . S
N1318 Co1317 1.955 . S
N1318 C1336 1.329 . S
N1318 C1351 1.432 . S
N1319 Co1317 1.864 . S
N1319 C1320 1.327 . S
N1319 C1324 1.342 . S
C1320 N1319 1.327 . S
C1320 C1321 1.407 . S
C1320 C1336 1.481 . S
C1321 C1320 1.407 . S
C1321 C1322 1.364 . S
C1321 H1368 0.930 . S
C1322 C1321 1.364 . S
C1322 C1323 1.390 . S
C1322 H1369 0.931 . S
C1323 C1322 1.390 . S
C1323 C1324 1.346 . S
C1323 H1370 0.930 . S
C1324 N1319 1.342 . S
C1324 C1323 1.346 . S
C1324 C1340 1.516 . S
N1325 Co1317 1.958 . S
N1325 C1340 1.324 . S
N1325 C1342 1.427 . S
N1326 C1302 1.316 . S
N1326 C1303 1.436 . S
N1326 Co1317 1.953 . S
N1327 C1311 1.423 . S
N1327 Co1317 1.974 . S
N1327 C1357 1.309 . S
O1328 Cd1310 2.352 . S
O1328 C1348 1.235 . S
O1329 Cd1309 2.329 . S
O1329 C1348 1.270 . S
C1330 O1331 1.270 . S
C1330 O1332 1.248 . S
O1331 Cd1309 2.350 . S
O1331 C1330 1.270 . S
O1332 Cd1309 2.277 . S
O1332 C1330 1.248 . S
C1333 O1334 1.277 . S
C1333 O1335 1.230 . S
O1334 Cd1309 2.173 . S
O1334 C1333 1.277 . S
O1335 Cd1310 2.250 . S
O1335 C1333 1.230 . S
C1336 N1318 1.329 . S
C1336 C1320 1.481 . S
C1336 O1337 1.246 . S
O1337 C1336 1.246 . S
O1338 Cd1309 2.263 . S
O1338 C1350 1.258 . S
O1339 Cd1310 2.308 . S
O1339 C1350 1.274 . S
C1340 C1324 1.516 . S
C1340 N1325 1.324 . S
C1340 O1341 1.238 . S
O1341 C1340 1.238 . S
C1342 N1325 1.427 . S
C1342 C1343 1.394 . S
C1342 C1347 1.395 . S
C1343 C1342 1.394 . S
C1343 C1344 1.380 . S
C1343 H1371 0.929 . S
C1344 C1343 1.380 . S
C1344 C1345 1.384 . S
C1344 C1350 1.495 . S
C1345 C1344 1.384 . S
C1345 C1346 1.382 . S
C1345 H1372 0.930 . S
C1346 C1345 1.382 . S
C1346 C1347 1.398 . S
C1347 C1342 1.395 . S
C1347 C1346 1.398 . S
C1347 H1373 0.930 . S
C1348 O1328 1.235 . S
C1348 O1329 1.270 . S
O1349 C1302 1.263 . S
O1349 Cd1309 2.366 . S
C1350 O1338 1.258 . S
C1350 O1339 1.274 . S
C1350 C1344 1.495 . S
C1351 N1318 1.432 . S
C1351 C1352 1.381 . S
C1351 C1356 1.385 . S
C1352 C1351 1.381 . S
C1352 C1353 1.371 . S
C1352 H1374 0.932 . S
C1353 C1352 1.371 . S
C1353 C1354 1.400 . S
C1354 C1353 1.400 . S
C1354 C1355 1.351 . S
C1354 H1375 0.930 . S
C1355 C1354 1.351 . S
C1355 C1356 1.388 . S
C1356 C1351 1.385 . S
C1356 C1355 1.388 . S
C1356 H1376 0.929 . S
C1357 C1296 1.504 . S
C1357 N1327 1.309 . S
C1357 O1358 1.258 . S
O1358 C1357 1.258 . S
H1359 C1297 0.929 . S
H1360 C1298 0.932 . S
H1361 C1299 0.931 . S
H1362 C1304 0.929 . S
H1363 C1306 0.929 . S
H1364 C1308 0.931 . S
H1365 C1313 0.929 . S
H1366 C1315 0.932 . S
H1367 C1316 0.931 . S
H1368 C1321 0.930 . S
H1369 C1322 0.931 . S
H1370 C1323 0.930 . S
H1371 C1343 0.929 . S
H1372 C1345 0.930 . S
H1373 C1347 0.930 . S
H1374 C1352 0.932 . S
H1375 C1354 0.930 . S
H1376 C1356 0.929 . S
C1377 C1378 1.359 . S
C1377 N1382 1.330 . S
C1377 C1438 1.504 . S
C1378 C1377 1.359 . S
C1378 C1379 1.366 . S
C1378 H1440 0.929 . S
C1379 C1378 1.366 . S
C1379 C1380 1.415 . S
C1379 H1441 0.932 . S
C1380 C1379 1.415 . S
C1380 C1381 1.366 . S
C1380 H1442 0.931 . S
C1381 C1380 1.366 . S
C1381 N1382 1.325 . S
C1381 C1383 1.516 . S
N1382 C1377 1.330 . S
N1382 C1381 1.325 . S
N1382 Co1398 1.869 . S
C1383 C1381 1.516 . S
C1383 N1407 1.316 . S
C1383 O1430 1.263 . S
C1384 C1385 1.421 . S
C1384 C1389 1.360 . S
C1384 N1407 1.436 . S
C1385 C1384 1.421 . S
C1385 C1386 1.379 . S
C1385 H1443 0.929 . S
C1386 C1385 1.379 . S
C1386 C1387 1.417 . S
C1387 C1386 1.417 . S
C1387 C1388 1.352 . S
C1387 H1444 0.929 . S
C1388 C1387 1.352 . S
C1388 C1389 1.393 . S
C1389 C1384 1.360 . S
C1389 C1388 1.393 . S
C1389 H1445 0.931 . S
Cd1390 O1410 2.329 . S
Cd1390 O1412 2.350 . S
Cd1390 O1413 2.277 . S
Cd1390 O1415 2.173 . S
Cd1390 O1419 2.263 . S
Cd1390 O1430 2.366 . S
Cd1391 O1409 2.352 . S
Cd1391 O1416 2.250 . S
Cd1391 O1420 2.308 . S
C1392 C1396 1.403 . S
C1392 C1397 1.370 . S
C1392 N1408 1.423 . S
C1393 C1394 1.389 . S
C1393 C1397 1.389 . S
C1394 C1393 1.389 . S
C1394 C1395 1.379 . S
C1394 H1446 0.929 . S
C1395 C1394 1.379 . S
C1395 C1396 1.405 . S
C1396 C1392 1.403 . S
C1396 C1395 1.405 . S
C1396 H1447 0.932 . S
C1397 C1392 1.370 . S
C1397 C1393 1.389 . S
C1397 H1448 0.931 . S
Co1398 N1382 1.869 . S
Co1398 N1399 1.955 . S
Co1398 N1400 1.864 . S
Co1398 N1406 1.958 . S
Co1398 N1407 1.953 . S
Co1398 N1408 1.974 . S
N1399 Co1398 1.955 . S
N1399 C1417 1.329 . S
N1399 C1432 1.432 . S
N1400 Co1398 1.864 . S
N1400 C1401 1.327 . S
N1400 C1405 1.342 . S
C1401 N1400 1.327 . S
C1401 C1402 1.407 . S
C1401 C1417 1.481 . S
C1402 C1401 1.407 . S
C1402 C1403 1.364 . S
C1402 H1449 0.930 . S
C1403 C1402 1.364 . S
C1403 C1404 1.390 . S
C1403 H1450 0.931 . S
C1404 C1403 1.390 . S
C1404 C1405 1.346 . S
C1404 H1451 0.930 . S
C1405 N1400 1.342 . S
C1405 C1404 1.346 . S
C1405 C1421 1.516 . S
N1406 Co1398 1.958 . S
N1406 C1421 1.324 . S
N1406 C1423 1.427 . S
N1407 C1383 1.316 . S
N1407 C1384 1.436 . S
N1407 Co1398 1.953 . S
N1408 C1392 1.423 . S
N1408 Co1398 1.974 . S
N1408 C1438 1.309 . S
O1409 Cd1391 2.352 . S
O1409 C1429 1.235 . S
O1410 Cd1390 2.329 . S
O1410 C1429 1.270 . S
C1411 O1412 1.270 . S
C1411 O1413 1.248 . S
O1412 Cd1390 2.350 . S
O1412 C1411 1.270 . S
O1413 Cd1390 2.277 . S
O1413 C1411 1.248 . S
C1414 O1415 1.277 . S
C1414 O1416 1.230 . S
O1415 Cd1390 2.173 . S
O1415 C1414 1.277 . S
O1416 Cd1391 2.250 . S
O1416 C1414 1.230 . S
C1417 N1399 1.329 . S
C1417 C1401 1.481 . S
C1417 O1418 1.246 . S
O1418 C1417 1.246 . S
O1419 Cd1390 2.263 . S
O1419 C1431 1.258 . S
O1420 Cd1391 2.308 . S
O1420 C1431 1.274 . S
C1421 C1405 1.516 . S
C1421 N1406 1.324 . S
C1421 O1422 1.238 . S
O1422 C1421 1.238 . S
C1423 N1406 1.427 . S
C1423 C1424 1.394 . S
C1423 C1428 1.395 . S
C1424 C1423 1.394 . S
C1424 C1425 1.380 . S
C1424 H1452 0.929 . S
C1425 C1424 1.380 . S
C1425 C1426 1.384 . S
C1425 C1431 1.495 . S
C1426 C1425 1.384 . S
C1426 C1427 1.382 . S
C1426 H1453 0.930 . S
C1427 C1426 1.382 . S
C1427 C1428 1.398 . S
C1428 C1423 1.395 . S
C1428 C1427 1.398 . S
C1428 H1454 0.930 . S
C1429 O1409 1.235 . S
C1429 O1410 1.270 . S
O1430 C1383 1.263 . S
O1430 Cd1390 2.366 . S
C1431 O1419 1.258 . S
C1431 O1420 1.274 . S
C1431 C1425 1.495 . S
C1432 N1399 1.432 . S
C1432 C1433 1.381 . S
C1432 C1437 1.385 . S
C1433 C1432 1.381 . S
C1433 C1434 1.371 . S
C1433 H1455 0.932 . S
C1434 C1433 1.371 . S
C1434 C1435 1.400 . S
C1435 C1434 1.400 . S
C1435 C1436 1.351 . S
C1435 H1456 0.930 . S
C1436 C1435 1.351 . S
C1436 C1437 1.388 . S
C1437 C1432 1.385 . S
C1437 C1436 1.388 . S
C1437 H1457 0.929 . S
C1438 C1377 1.504 . S
C1438 N1408 1.309 . S
C1438 O1439 1.258 . S
O1439 C1438 1.258 . S
H1440 C1378 0.929 . S
H1441 C1379 0.932 . S
H1442 C1380 0.931 . S
H1443 C1385 0.929 . S
H1444 C1387 0.929 . S
H1445 C1389 0.931 . S
H1446 C1394 0.929 . S
H1447 C1396 0.932 . S
H1448 C1397 0.931 . S
H1449 C1402 0.930 . S
H1450 C1403 0.931 . S
H1451 C1404 0.930 . S
H1452 C1424 0.929 . S
H1453 C1426 0.930 . S
H1454 C1428 0.930 . S
H1455 C1433 0.932 . S
H1456 C1435 0.930 . S
H1457 C1437 0.929 . S
C1458 C1459 1.391 . S
C1458 C1460 1.394 . S
C1458 H1474 0.931 . S
C1459 C1458 1.391 . S
C1459 C1463 1.376 . S
C1460 C1458 1.394 . S
C1460 C1461 1.369 . S
C1460 C1464 1.531 . S
C1461 C1460 1.369 . S
C1461 C1462 1.410 . S
C1461 C1469 1.503 . S
C1462 C1461 1.410 . S
C1462 C1463 1.392 . S
C1462 C1465 1.511 . S
C1463 C1459 1.376 . S
C1463 C1462 1.392 . S
C1463 H1475 0.929 . S
C1464 C1460 1.531 . S
C1464 H1476 0.960 . S
C1464 H1477 0.962 . S
C1464 H1478 0.960 . S
C1465 C1462 1.511 . S
C1465 H1479 0.961 . S
C1465 H1480 0.961 . S
C1465 H1481 0.961 . S
C1466 C1467 1.370 . S
C1466 C1468 1.363 . S
C1466 H1482 0.931 . S
C1467 C1466 1.370 . S
C1467 C1471 1.408 . S
C1468 C1466 1.363 . S
C1468 C1469 1.370 . S
C1468 C1472 1.524 . S
C1469 C1461 1.503 . S
C1469 C1468 1.370 . S
C1469 C1470 1.403 . S
C1470 C1469 1.403 . S
C1470 C1471 1.404 . S
C1470 C1473 1.539 . S
C1471 C1467 1.408 . S
C1471 C1470 1.404 . S
C1471 H1483 0.930 . S
C1472 C1468 1.524 . S
C1472 H1484 0.956 . S
C1472 H1485 0.961 . S
C1472 H1486 0.961 . S
C1473 C1470 1.539 . S
C1473 H1487 0.958 . S
C1473 H1488 0.961 . S
C1473 H1489 0.960 . S
H1474 C1458 0.931 . S
H1475 C1463 0.929 . S
H1476 C1464 0.960 . S
H1477 C1464 0.962 . S
H1478 C1464 0.960 . S
H1479 C1465 0.961 . S
H1480 C1465 0.961 . S
H1481 C1465 0.961 . S
H1482 C1466 0.931 . S
H1483 C1471 0.930 . S
H1484 C1472 0.956 . S
H1485 C1472 0.961 . S
H1486 C1472 0.961 . S
H1487 C1473 0.958 . S
H1488 C1473 0.961 . S
H1489 C1473 0.960 . S
C1490 C1491 1.391 . S
C1490 C1492 1.394 . S
C1490 H1506 0.931 . S
C1491 C1490 1.391 . S
C1491 C1495 1.376 . S
C1492 C1490 1.394 . S
C1492 C1493 1.369 . S
C1492 C1496 1.531 . S
C1493 C1492 1.369 . S
C1493 C1494 1.410 . S
C1493 C1501 1.503 . S
C1494 C1493 1.410 . S
C1494 C1495 1.392 . S
C1494 C1497 1.511 . S
C1495 C1491 1.376 . S
C1495 C1494 1.392 . S
C1495 H1507 0.929 . S
C1496 C1492 1.531 . S
C1496 H1508 0.960 . S
C1496 H1509 0.962 . S
C1496 H1510 0.960 . S
C1497 C1494 1.511 . S
C1497 H1511 0.961 . S
C1497 H1512 0.961 . S
C1497 H1513 0.961 . S
C1498 C1499 1.370 . S
C1498 C1500 1.363 . S
C1498 H1514 0.931 . S
C1499 C1498 1.370 . S
C1499 C1503 1.408 . S
C1500 C1498 1.363 . S
C1500 C1501 1.370 . S
C1500 C1504 1.524 . S
C1501 C1493 1.503 . S
C1501 C1500 1.370 . S
C1501 C1502 1.403 . S
C1502 C1501 1.403 . S
C1502 C1503 1.404 . S
C1502 C1505 1.539 . S
C1503 C1499 1.408 . S
C1503 C1502 1.404 . S
C1503 H1515 0.930 . S
C1504 C1500 1.524 . S
C1504 H1516 0.956 . S
C1504 H1517 0.961 . S
C1504 H1518 0.961 . S
C1505 C1502 1.539 . S
C1505 H1519 0.958 . S
C1505 H1520 0.961 . S
C1505 H1521 0.960 . S
H1506 C1490 0.931 . S
H1507 C1495 0.929 . S
H1508 C1496 0.960 . S
H1509 C1496 0.962 . S
H1510 C1496 0.960 . S
H1511 C1497 0.961 . S
H1512 C1497 0.961 . S
H1513 C1497 0.961 . S
H1514 C1498 0.931 . S
H1515 C1503 0.930 . S
H1516 C1504 0.956 . S
H1517 C1504 0.961 . S
H1518 C1504 0.961 . S
H1519 C1505 0.958 . S
H1520 C1505 0.961 . S
H1521 C1505 0.960 . S
C1522 C1523 1.391 . S
C1522 C1524 1.394 . S
C1522 H1538 0.931 . S
C1523 C1522 1.391 . S
C1523 C1527 1.376 . S
C1524 C1522 1.394 . S
C1524 C1525 1.369 . S
C1524 C1528 1.531 . S
C1525 C1524 1.369 . S
C1525 C1526 1.410 . S
C1525 C1533 1.503 . S
C1526 C1525 1.410 . S
C1526 C1527 1.392 . S
C1526 C1529 1.511 . S
C1527 C1523 1.376 . S
C1527 C1526 1.392 . S
C1527 H1539 0.929 . S
C1528 C1524 1.531 . S
C1528 H1540 0.960 . S
C1528 H1541 0.962 . S
C1528 H1542 0.960 . S
C1529 C1526 1.511 . S
C1529 H1543 0.961 . S
C1529 H1544 0.961 . S
C1529 H1545 0.961 . S
C1530 C1531 1.370 . S
C1530 C1532 1.363 . S
C1530 H1546 0.931 . S
C1531 C1530 1.370 . S
C1531 C1535 1.408 . S
C1532 C1530 1.363 . S
C1532 C1533 1.370 . S
C1532 C1536 1.524 . S
C1533 C1525 1.503 . S
C1533 C1532 1.370 . S
C1533 C1534 1.403 . S
C1534 C1533 1.403 . S
C1534 C1535 1.404 . S
C1534 C1537 1.539 . S
C1535 C1531 1.408 . S
C1535 C1534 1.404 . S
C1535 H1547 0.930 . S
C1536 C1532 1.524 . S
C1536 H1548 0.956 . S
C1536 H1549 0.961 . S
C1536 H1550 0.961 . S
C1537 C1534 1.539 . S
C1537 H1551 0.958 . S
C1537 H1552 0.961 . S
C1537 H1553 0.960 . S
H1538 C1522 0.931 . S
H1539 C1527 0.929 . S
H1540 C1528 0.960 . S
H1541 C1528 0.962 . S
H1542 C1528 0.960 . S
H1543 C1529 0.961 . S
H1544 C1529 0.961 . S
H1545 C1529 0.961 . S
H1546 C1530 0.931 . S
H1547 C1535 0.930 . S
H1548 C1536 0.956 . S
H1549 C1536 0.961 . S
H1550 C1536 0.961 . S
H1551 C1537 0.958 . S
H1552 C1537 0.961 . S
H1553 C1537 0.960 . S
C1554 C1555 1.391 . S
C1554 C1556 1.394 . S
C1554 H1570 0.931 . S
C1555 C1554 1.391 . S
C1555 C1559 1.376 . S
C1556 C1554 1.394 . S
C1556 C1557 1.369 . S
C1556 C1560 1.531 . S
C1557 C1556 1.369 . S
C1557 C1558 1.410 . S
C1557 C1565 1.503 . S
C1558 C1557 1.410 . S
C1558 C1559 1.392 . S
C1558 C1561 1.511 . S
C1559 C1555 1.376 . S
C1559 C1558 1.392 . S
C1559 H1571 0.929 . S
C1560 C1556 1.531 . S
C1560 H1572 0.960 . S
C1560 H1573 0.962 . S
C1560 H1574 0.960 . S
C1561 C1558 1.511 . S
C1561 H1575 0.961 . S
C1561 H1576 0.961 . S
C1561 H1577 0.961 . S
C1562 C1563 1.370 . S
C1562 C1564 1.363 . S
C1562 H1578 0.931 . S
C1563 C1562 1.370 . S
C1563 C1567 1.408 . S
C1564 C1562 1.363 . S
C1564 C1565 1.370 . S
C1564 C1568 1.524 . S
C1565 C1557 1.503 . S
C1565 C1564 1.370 . S
C1565 C1566 1.403 . S
C1566 C1565 1.403 . S
C1566 C1567 1.404 . S
C1566 C1569 1.539 . S
C1567 C1563 1.408 . S
C1567 C1566 1.404 . S
C1567 H1579 0.930 . S
C1568 C1564 1.524 . S
C1568 H1580 0.956 . S
C1568 H1581 0.961 . S
C1568 H1582 0.961 . S
C1569 C1566 1.539 . S
C1569 H1583 0.958 . S
C1569 H1584 0.961 . S
C1569 H1585 0.960 . S
H1570 C1554 0.931 . S
H1571 C1559 0.929 . S
H1572 C1560 0.960 . S
H1573 C1560 0.962 . S
H1574 C1560 0.960 . S
H1575 C1561 0.961 . S
H1576 C1561 0.961 . S
H1577 C1561 0.961 . S
H1578 C1562 0.931 . S
H1579 C1567 0.930 . S
H1580 C1568 0.956 . S
H1581 C1568 0.961 . S
H1582 C1568 0.961 . S
H1583 C1569 0.958 . S
H1584 C1569 0.961 . S
H1585 C1569 0.960 . S
C1586 C1587 1.391 . S
C1586 C1588 1.394 . S
C1586 H1602 0.931 . S
C1587 C1586 1.391 . S
C1587 C1591 1.376 . S
C1588 C1586 1.394 . S
C1588 C1589 1.369 . S
C1588 C1592 1.531 . S
C1589 C1588 1.369 . S
C1589 C1590 1.410 . S
C1589 C1597 1.503 . S
C1590 C1589 1.410 . S
C1590 C1591 1.392 . S
C1590 C1593 1.511 . S
C1591 C1587 1.376 . S
C1591 C1590 1.392 . S
C1591 H1603 0.929 . S
C1592 C1588 1.531 . S
C1592 H1604 0.960 . S
C1592 H1605 0.962 . S
C1592 H1606 0.960 . S
C1593 C1590 1.511 . S
C1593 H1607 0.961 . S
C1593 H1608 0.961 . S
C1593 H1609 0.961 . S
C1594 C1595 1.370 . S
C1594 C1596 1.363 . S
C1594 H1610 0.931 . S
C1595 C1594 1.370 . S
C1595 C1599 1.408 . S
C1596 C1594 1.363 . S
C1596 C1597 1.370 . S
C1596 C1600 1.524 . S
C1597 C1589 1.503 . S
C1597 C1596 1.370 . S
C1597 C1598 1.403 . S
C1598 C1597 1.403 . S
C1598 C1599 1.404 . S
C1598 C1601 1.539 . S
C1599 C1595 1.408 . S
C1599 C1598 1.404 . S
C1599 H1611 0.930 . S
C1600 C1596 1.524 . S
C1600 H1612 0.956 . S
C1600 H1613 0.961 . S
C1600 H1614 0.961 . S
C1601 C1598 1.539 . S
C1601 H1615 0.958 . S
C1601 H1616 0.961 . S
C1601 H1617 0.960 . S
H1602 C1586 0.931 . S
H1603 C1591 0.929 . S
H1604 C1592 0.960 . S
H1605 C1592 0.962 . S
H1606 C1592 0.960 . S
H1607 C1593 0.961 . S
H1608 C1593 0.961 . S
H1609 C1593 0.961 . S
H1610 C1594 0.931 . S
H1611 C1599 0.930 . S
H1612 C1600 0.956 . S
H1613 C1600 0.961 . S
H1614 C1600 0.961 . S
H1615 C1601 0.958 . S
H1616 C1601 0.961 . S
H1617 C1601 0.960 . S
C1618 C1619 1.391 . S
C1618 C1620 1.394 . S
C1618 H1634 0.931 . S
C1619 C1618 1.391 . S
C1619 C1623 1.376 . S
C1620 C1618 1.394 . S
C1620 C1621 1.369 . S
C1620 C1624 1.531 . S
C1621 C1620 1.369 . S
C1621 C1622 1.410 . S
C1621 C1629 1.503 . S
C1622 C1621 1.410 . S
C1622 C1623 1.392 . S
C1622 C1625 1.511 . S
C1623 C1619 1.376 . S
C1623 C1622 1.392 . S
C1623 H1635 0.929 . S
C1624 C1620 1.531 . S
C1624 H1636 0.960 . S
C1624 H1637 0.962 . S
C1624 H1638 0.960 . S
C1625 C1622 1.511 . S
C1625 H1639 0.961 . S
C1625 H1640 0.961 . S
C1625 H1641 0.961 . S
C1626 C1627 1.370 . S
C1626 C1628 1.363 . S
C1626 H1642 0.931 . S
C1627 C1626 1.370 . S
C1627 C1631 1.408 . S
C1628 C1626 1.363 . S
C1628 C1629 1.370 . S
C1628 C1632 1.524 . S
C1629 C1621 1.503 . S
C1629 C1628 1.370 . S
C1629 C1630 1.403 . S
C1630 C1629 1.403 . S
C1630 C1631 1.404 . S
C1630 C1633 1.539 . S
C1631 C1627 1.408 . S
C1631 C1630 1.404 . S
C1631 H1643 0.930 . S
C1632 C1628 1.524 . S
C1632 H1644 0.956 . S
C1632 H1645 0.961 . S
C1632 H1646 0.961 . S
C1633 C1630 1.539 . S
C1633 H1647 0.958 . S
C1633 H1648 0.961 . S
C1633 H1649 0.960 . S
H1634 C1618 0.931 . S
H1635 C1623 0.929 . S
H1636 C1624 0.960 . S
H1637 C1624 0.962 . S
H1638 C1624 0.960 . S
H1639 C1625 0.961 . S
H1640 C1625 0.961 . S
H1641 C1625 0.961 . S
H1642 C1626 0.931 . S
H1643 C1631 0.930 . S
H1644 C1632 0.956 . S
H1645 C1632 0.961 . S
H1646 C1632 0.961 . S
H1647 C1633 0.958 . S
H1648 C1633 0.961 . S
H1649 C1633 0.960 . S
C1650 C1651 1.391 . S
C1650 C1652 1.394 . S
C1650 H1666 0.931 . S
C1651 C1650 1.391 . S
C1651 C1655 1.352 1_565 S
C1652 C1650 1.394 . S
C1652 C1653 1.385 . S
C1652 C1656 1.531 . S
C1653 C1652 1.385 . S
C1653 C1654 1.397 1_565 S
C1653 C1661 1.500 1_566 S
C1654 C1653 1.397 1_545 S
C1654 C1655 1.399 . S
C1654 C1657 1.511 . S
C1655 C1651 1.352 1_545 S
C1655 C1654 1.399 . S
C1655 H1667 0.946 . S
C1656 C1652 1.531 . S
C1656 H1668 0.960 1_556 S
C1656 H1669 0.962 1_556 S
C1656 H1670 0.960 . S
C1657 C1654 1.511 . S
C1657 H1671 0.961 . S
C1657 H1672 0.961 . S
C1657 H1673 0.961 . S
C1658 C1659 1.370 . S
C1658 C1660 1.363 1_545 S
C1658 H1674 0.931 1_545 S
C1659 C1658 1.370 . S
C1659 C1663 1.408 . S
C1660 C1658 1.363 1_565 S
C1660 C1661 1.370 1_565 S
C1660 C1664 1.524 . S
C1661 C1653 1.500 1_544 S
C1661 C1660 1.370 1_545 S
C1661 C1662 1.403 . S
C1662 C1661 1.403 . S
C1662 C1663 1.404 . S
C1662 C1665 1.533 1_554 S
C1663 C1659 1.408 . S
C1663 C1662 1.404 . S
C1663 H1675 0.930 . S
C1664 C1660 1.524 . S
C1664 H1676 0.956 . S
C1664 H1677 0.961 . S
C1664 H1678 0.961 . S
C1665 C1662 1.533 1_556 S
C1665 H1679 0.959 . S
C1665 H1680 0.958 1_556 S
C1665 H1681 0.968 . S
H1666 C1650 0.931 . S
H1667 C1655 0.946 . S
H1668 C1656 0.960 1_554 S
H1669 C1656 0.962 1_554 S
H1670 C1656 0.960 . S
H1671 C1657 0.961 . S
H1672 C1657 0.961 . S
H1673 C1657 0.961 . S
H1674 C1658 0.931 1_565 S
H1675 C1663 0.930 . S
H1676 C1664 0.956 . S
H1677 C1664 0.961 . S
H1678 C1664 0.961 . S
H1679 C1665 0.959 . S
H1680 C1665 0.958 1_554 S
H1681 C1665 0.968 . S
C1682 C1683 1.391 1_455 S
C1682 C1684 1.394 . S
C1682 H1698 0.931 . S
C1683 C1682 1.391 1_655 S
C1683 C1687 1.376 . S
C1684 C1682 1.394 . S
C1684 C1685 1.369 1_455 S
C1684 C1688 1.531 . S
C1685 C1684 1.369 1_655 S
C1685 C1686 1.410 . S
C1685 C1693 1.503 1_654 S
C1686 C1685 1.410 . S
C1686 C1687 1.392 . S
C1686 C1689 1.511 . S
C1687 C1683 1.376 . S
C1687 C1686 1.392 . S
C1687 H1699 0.929 . S
C1688 C1684 1.531 . S
C1688 H1700 0.960 . S
C1688 H1701 0.962 . S
C1688 H1702 0.960 . S
C1689 C1686 1.511 . S
C1689 H1703 0.961 . S
C1689 H1704 0.961 1_554 S
C1689 H1705 0.961 . S
C1690 C1691 1.370 . S
C1690 C1692 1.363 1_455 S
C1690 H1706 0.931 1_455 S
C1691 C1690 1.370 . S
C1691 C1695 1.408 . S
C1692 C1690 1.363 1_655 S
C1692 C1693 1.370 1_655 S
C1692 C1696 1.524 . S
C1693 C1685 1.503 1_456 S
C1693 C1692 1.370 1_455 S
C1693 C1694 1.403 . S
C1694 C1693 1.403 . S
C1694 C1695 1.404 . S
C1694 C1697 1.552 . S
C1695 C1691 1.408 . S
C1695 C1694 1.404 . S
C1695 H1707 0.930 . S
C1696 C1692 1.524 . S
C1696 H1708 0.956 . S
C1696 H1709 0.961 . S
C1696 H1710 0.961 . S
C1697 C1694 1.552 . S
C1697 H1711 0.951 1_556 S
C1697 H1712 0.970 . S
C1697 H1713 0.945 1_556 S
H1698 C1682 0.931 . S
H1699 C1687 0.929 . S
H1700 C1688 0.960 . S
H1701 C1688 0.962 . S
H1702 C1688 0.960 . S
H1703 C1689 0.961 . S
H1704 C1689 0.961 1_556 S
H1705 C1689 0.961 . S
H1706 C1690 0.931 1_655 S
H1707 C1695 0.930 . S
H1708 C1696 0.956 . S
H1709 C1696 0.961 . S
H1710 C1696 0.961 . S
H1711 C1697 0.951 1_554 S
H1712 C1697 0.970 . S
H1713 C1697 0.945 1_554 S
C1714 C1715 1.391 . S
C1714 C1716 1.394 . S
C1714 H1730 0.931 . S
C1715 C1714 1.391 . S
C1715 C1719 1.376 . S
C1716 C1714 1.394 . S
C1716 C1717 1.369 . S
C1716 C1720 1.531 . S
C1717 C1716 1.369 . S
C1717 C1718 1.410 . S
C1717 C1725 1.503 1_554 S
C1718 C1717 1.410 . S
C1718 C1719 1.392 . S
C1718 C1721 1.511 1_554 S
C1719 C1715 1.376 . S
C1719 C1718 1.392 . S
C1719 H1731 0.929 . S
C1720 C1716 1.531 . S
C1720 H1732 0.960 . S
C1720 H1733 0.962 . S
C1720 H1734 0.960 . S
C1721 C1718 1.511 1_556 S
C1721 H1735 0.961 1_556 S
C1721 H1736 0.961 . S
C1721 H1737 0.961 . S
C1722 C1723 1.370 . S
C1722 C1724 1.363 . S
C1722 H1738 0.931 . S
C1723 C1722 1.370 . S
C1723 C1727 1.408 . S
C1724 C1722 1.363 . S
C1724 C1725 1.370 . S
C1724 C1728 1.524 . S
C1725 C1717 1.503 1_556 S
C1725 C1724 1.370 . S
C1725 C1726 1.403 . S
C1726 C1725 1.403 . S
C1726 C1727 1.404 . S
C1726 C1729 1.539 . S
C1727 C1723 1.408 . S
C1727 C1726 1.404 . S
C1727 H1739 0.930 . S
C1728 C1724 1.524 . S
C1728 H1740 0.956 1_556 S
C1728 H1741 0.961 . S
C1728 H1742 0.961 . S
C1729 C1726 1.539 . S
C1729 H1743 0.958 . S
C1729 H1744 0.961 . S
C1729 H1745 0.960 . S
H1730 C1714 0.931 . S
H1731 C1719 0.929 . S
H1732 C1720 0.960 . S
H1733 C1720 0.962 . S
H1734 C1720 0.960 . S
H1735 C1721 0.961 1_554 S
H1736 C1721 0.961 . S
H1737 C1721 0.961 . S
H1738 C1722 0.931 . S
H1739 C1727 0.930 . S
H1740 C1728 0.956 1_554 S
H1741 C1728 0.961 . S
H1742 C1728 0.961 . S
H1743 C1729 0.958 . S
H1744 C1729 0.961 . S
H1745 C1729 0.960 . S
C1746 C1747 1.391 . S
C1746 C1748 1.394 . S
C1746 H1762 0.931 . S
C1747 C1746 1.391 . S
C1747 C1751 1.376 . S
C1748 C1746 1.394 . S
C1748 C1749 1.369 . S
C1748 C1752 1.531 . S
C1749 C1748 1.369 . S
C1749 C1750 1.410 . S
C1749 C1757 1.503 . S
C1750 C1749 1.410 . S
C1750 C1751 1.392 . S
C1750 C1753 1.511 . S
C1751 C1747 1.376 . S
C1751 C1750 1.392 . S
C1751 H1763 0.929 . S
C1752 C1748 1.531 . S
C1752 H1764 0.960 . S
C1752 H1765 0.962 . S
C1752 H1766 0.960 . S
C1753 C1750 1.511 . S
C1753 H1767 0.961 . S
C1753 H1768 0.961 . S
C1753 H1769 0.961 . S
C1754 C1755 1.370 . S
C1754 C1756 1.363 . S
C1754 H1770 0.931 . S
C1755 C1754 1.370 . S
C1755 C1759 1.408 . S
C1756 C1754 1.363 . S
C1756 C1757 1.370 . S
C1756 C1760 1.524 . S
C1757 C1749 1.503 . S
C1757 C1756 1.370 . S
C1757 C1758 1.403 . S
C1758 C1757 1.403 . S
C1758 C1759 1.404 . S
C1758 C1761 1.539 . S
C1759 C1755 1.408 . S
C1759 C1758 1.404 . S
C1759 H1771 0.930 . S
C1760 C1756 1.524 . S
C1760 H1772 0.956 . S
C1760 H1773 0.961 . S
C1760 H1774 0.961 . S
C1761 C1758 1.539 . S
C1761 H1775 0.958 . S
C1761 H1776 0.961 . S
C1761 H1777 0.960 . S
H1762 C1746 0.931 . S
H1763 C1751 0.929 . S
H1764 C1752 0.960 . S
H1765 C1752 0.962 . S
H1766 C1752 0.960 . S
H1767 C1753 0.961 . S
H1768 C1753 0.961 . S
H1769 C1753 0.961 . S
H1770 C1754 0.931 . S
H1771 C1759 0.930 . S
H1772 C1760 0.956 . S
H1773 C1760 0.961 . S
H1774 C1760 0.961 . S
H1775 C1761 0.958 . S
H1776 C1761 0.961 . S
H1777 C1761 0.960 . S
C1778 C1779 1.391 1_565 S
C1778 C1780 1.394 . S
C1778 H1794 0.931 . S
C1779 C1778 1.391 1_545 S
C1779 C1783 1.376 . S
C1780 C1778 1.394 . S
C1780 C1781 1.369 . S
C1780 C1784 1.531 . S
C1781 C1780 1.369 . S
C1781 C1782 1.410 1_565 S
C1781 C1789 1.503 . S
C1782 C1781 1.410 1_545 S
C1782 C1783 1.392 . S
C1782 C1785 1.511 . S
C1783 C1779 1.376 . S
C1783 C1782 1.392 . S
C1783 H1795 0.929 . S
C1784 C1780 1.531 . S
C1784 H1796 0.960 . S
C1784 H1797 0.962 . S
C1784 H1798 0.960 . S
C1785 C1782 1.511 . S
C1785 H1799 0.961 . S
C1785 H1800 0.961 . S
C1785 H1801 0.961 . S
C1786 C1787 1.370 . S
C1786 C1788 1.363 . S
C1786 H1802 0.931 . S
C1787 C1786 1.370 . S
C1787 C1791 1.408 . S
C1788 C1786 1.363 . S
C1788 C1789 1.370 . S
C1788 C1792 1.524 1_565 S
C1789 C1781 1.503 . S
C1789 C1788 1.370 . S
C1789 C1790 1.403 . S
C1790 C1789 1.403 . S
C1790 C1791 1.404 . S
C1790 C1793 1.539 . S
C1791 C1787 1.408 . S
C1791 C1790 1.404 . S
C1791 H1803 0.930 . S
C1792 C1788 1.524 1_545 S
C1792 H1804 0.956 1_545 S
C1792 H1805 0.960 . S
C1792 H1806 0.961 . S
C1793 C1790 1.539 . S
C1793 H1807 0.958 . S
C1793 H1808 0.961 . S
C1793 H1809 0.960 . S
H1794 C1778 0.931 . S
H1795 C1783 0.929 . S
H1796 C1784 0.960 . S
H1797 C1784 0.962 . S
H1798 C1784 0.960 . S
H1799 C1785 0.961 . S
H1800 C1785 0.961 . S
H1801 C1785 0.961 . S
H1802 C1786 0.931 . S
H1803 C1791 0.930 . S
H1804 C1792 0.956 1_565 S
H1805 C1792 0.960 . S
H1806 C1792 0.961 . S
H1807 C1793 0.958 . S
H1808 C1793 0.961 . S
H1809 C1793 0.960 . S
C1810 C1811 1.391 . S
C1810 C1812 1.394 . S
C1810 H1826 0.931 . S
C1811 C1810 1.391 . S
C1811 C1815 1.376 1_655 S
C1812 C1810 1.394 . S
C1812 C1813 1.369 1_655 S
C1812 C1816 1.531 . S
C1813 C1812 1.369 1_455 S
C1813 C1814 1.410 . S
C1813 C1821 1.503 . S
C1814 C1813 1.410 . S
C1814 C1815 1.392 . S
C1814 C1817 1.511 . S
C1815 C1811 1.376 1_455 S
C1815 C1814 1.392 . S
C1815 H1827 0.929 . S
C1816 C1812 1.531 . S
C1816 H1828 0.960 . S
C1816 H1829 0.962 . S
C1816 H1830 0.960 . S
C1817 C1814 1.511 . S
C1817 H1831 0.961 . S
C1817 H1832 0.961 . S
C1817 H1833 0.961 . S
C1818 C1819 1.370 . S
C1818 C1820 1.363 . S
C1818 H1834 0.931 . S
C1819 C1818 1.370 . S
C1819 C1823 1.408 . S
C1820 C1818 1.363 . S
C1820 C1821 1.370 . S
C1820 C1824 1.524 . S
C1821 C1813 1.503 . S
C1821 C1820 1.370 . S
C1821 C1822 1.403 . S
C1822 C1821 1.403 . S
C1822 C1823 1.404 . S
C1822 C1825 1.539 1_455 S
C1823 C1819 1.408 . S
C1823 C1822 1.404 . S
C1823 H1835 0.930 . S
C1824 C1820 1.524 . S
C1824 H1836 0.956 . S
C1824 H1837 0.961 . S
C1824 H1838 0.961 . S
C1825 C1822 1.539 1_655 S
C1825 H1839 0.958 . S
C1825 H1840 0.961 . S
C1825 H1841 0.960 . S
H1826 C1810 0.931 . S
H1827 C1815 0.929 . S
H1828 C1816 0.960 . S
H1829 C1816 0.962 . S
H1830 C1816 0.960 . S
H1831 C1817 0.961 . S
H1832 C1817 0.961 . S
H1833 C1817 0.961 . S
H1834 C1818 0.931 . S
H1835 C1823 0.930 . S
H1836 C1824 0.956 . S
H1837 C1824 0.961 . S
H1838 C1824 0.961 . S
H1839 C1825 0.958 . S
H1840 C1825 0.961 . S
H1841 C1825 0.960 . S
C1842 C1843 1.391 . S
C1842 C1844 1.394 . S
C1842 H1858 0.931 . S
C1843 C1842 1.391 . S
C1843 C1847 1.376 . S
C1844 C1842 1.394 . S
C1844 C1845 1.369 . S
C1844 C1848 1.531 . S
C1845 C1844 1.369 . S
C1845 C1846 1.410 . S
C1845 C1853 1.503 . S
C1846 C1845 1.410 . S
C1846 C1847 1.392 . S
C1846 C1849 1.511 . S
C1847 C1843 1.376 . S
C1847 C1846 1.392 . S
C1847 H1859 0.929 . S
C1848 C1844 1.531 . S
C1848 H1860 0.960 . S
C1848 H1861 0.962 . S
C1848 H1862 0.960 . S
C1849 C1846 1.511 . S
C1849 H1863 0.961 . S
C1849 H1864 0.961 . S
C1849 H1865 0.961 . S
C1850 C1851 1.370 . S
C1850 C1852 1.363 . S
C1850 H1866 0.931 . S
C1851 C1850 1.370 . S
C1851 C1855 1.408 . S
C1852 C1850 1.363 . S
C1852 C1853 1.370 . S
C1852 C1856 1.524 . S
C1853 C1845 1.503 . S
C1853 C1852 1.370 . S
C1853 C1854 1.403 . S
C1854 C1853 1.403 . S
C1854 C1855 1.404 . S
C1854 C1857 1.539 . S
C1855 C1851 1.408 . S
C1855 C1854 1.404 . S
C1855 H1867 0.930 . S
C1856 C1852 1.524 . S
C1856 H1868 0.956 . S
C1856 H1869 0.961 . S
C1856 H1870 0.961 . S
C1857 C1854 1.539 . S
C1857 H1871 0.958 . S
C1857 H1872 0.961 . S
C1857 H1873 0.960 . S
H1858 C1842 0.931 . S
H1859 C1847 0.929 . S
H1860 C1848 0.960 . S
H1861 C1848 0.962 . S
H1862 C1848 0.960 . S
H1863 C1849 0.961 . S
H1864 C1849 0.961 . S
H1865 C1849 0.961 . S
H1866 C1850 0.931 . S
H1867 C1855 0.930 . S
H1868 C1856 0.956 . S
H1869 C1856 0.961 . S
H1870 C1856 0.961 . S
H1871 C1857 0.958 . S
H1872 C1857 0.961 . S
H1873 C1857 0.960 . S
C1874 C1875 1.391 1_545 S
C1874 C1876 1.394 . S
C1874 H1890 0.931 . S
C1875 C1874 1.391 1_565 S
C1875 C1879 1.376 . S
C1876 C1874 1.394 . S
C1876 C1877 1.369 . S
C1876 C1880 1.531 . S
C1877 C1876 1.369 . S
C1877 C1878 1.410 1_545 S
C1877 C1885 1.503 . S
C1878 C1877 1.410 1_565 S
C1878 C1879 1.392 . S
C1878 C1881 1.511 . S
C1879 C1875 1.376 . S
C1879 C1878 1.392 . S
C1879 H1891 0.929 . S
C1880 C1876 1.531 . S
C1880 H1892 0.960 . S
C1880 H1893 0.962 . S
C1880 H1894 0.960 . S
C1881 C1878 1.511 . S
C1881 H1895 0.961 . S
C1881 H1896 0.961 . S
C1881 H1897 0.961 . S
C1882 C1883 1.370 . S
C1882 C1884 1.363 . S
C1882 H1898 0.931 . S
C1883 C1882 1.370 . S
C1883 C1887 1.408 . S
C1884 C1882 1.363 . S
C1884 C1885 1.370 . S
C1884 C1888 1.524 . S
C1885 C1877 1.503 . S
C1885 C1884 1.370 . S
C1885 C1886 1.403 . S
C1886 C1885 1.403 . S
C1886 C1887 1.404 . S
C1886 C1889 1.539 . S
C1887 C1883 1.408 . S
C1887 C1886 1.404 . S
C1887 H1899 0.930 . S
C1888 C1884 1.524 . S
C1888 H1900 0.956 . S
C1888 H1901 0.961 1_545 S
C1888 H1902 0.961 . S
C1889 C1886 1.539 . S
C1889 H1903 0.958 . S
C1889 H1904 0.961 . S
C1889 H1905 0.960 . S
H1890 C1874 0.931 . S
H1891 C1879 0.929 . S
H1892 C1880 0.960 . S
H1893 C1880 0.962 . S
H1894 C1880 0.960 . S
H1895 C1881 0.961 . S
H1896 C1881 0.961 . S
H1897 C1881 0.961 . S
H1898 C1882 0.931 . S
H1899 C1887 0.930 . S
H1900 C1888 0.956 . S
H1901 C1888 0.961 1_565 S
H1902 C1888 0.961 . S
H1903 C1889 0.958 . S
H1904 C1889 0.961 . S
H1905 C1889 0.960 . S
C1906 C1907 1.391 . S
C1906 C1908 1.394 . S
C1906 H1922 0.931 . S
C1907 C1906 1.391 . S
C1907 C1911 1.376 . S
C1908 C1906 1.394 . S
C1908 C1909 1.369 . S
C1908 C1912 1.531 . S
C1909 C1908 1.369 . S
C1909 C1910 1.410 . S
C1909 C1917 1.503 . S
C1910 C1909 1.410 . S
C1910 C1911 1.392 . S
C1910 C1913 1.511 1_655 S
C1911 C1907 1.376 . S
C1911 C1910 1.392 . S
C1911 H1923 0.929 . S
C1912 C1908 1.531 . S
C1912 H1924 0.960 . S
C1912 H1925 0.962 . S
C1912 H1926 0.960 . S
C1913 C1910 1.511 1_455 S
C1913 H1927 0.961 . S
C1913 H1928 0.961 . S
C1913 H1929 0.961 . S
C1914 C1915 1.370 1_655 S
C1914 C1916 1.363 . S
C1914 H1930 0.931 . S
C1915 C1914 1.370 1_455 S
C1915 C1919 1.408 . S
C1916 C1914 1.363 . S
C1916 C1917 1.370 . S
C1916 C1920 1.524 . S
C1917 C1909 1.503 . S
C1917 C1916 1.370 . S
C1917 C1918 1.403 1_655 S
C1918 C1917 1.403 1_455 S
C1918 C1919 1.404 . S
C1918 C1921 1.539 . S
C1919 C1915 1.408 . S
C1919 C1918 1.404 . S
C1919 H1931 0.930 . S
C1920 C1916 1.524 . S
C1920 H1932 0.956 . S
C1920 H1933 0.961 . S
C1920 H1934 0.961 . S
C1921 C1918 1.539 . S
C1921 H1935 0.958 . S
C1921 H1936 0.961 . S
C1921 H1937 0.960 . S
H1922 C1906 0.931 . S
H1923 C1911 0.929 . S
H1924 C1912 0.960 . S
H1925 C1912 0.962 . S
H1926 C1912 0.960 . S
H1927 C1913 0.961 . S
H1928 C1913 0.961 . S
H1929 C1913 0.961 . S
H1930 C1914 0.931 . S
H1931 C1919 0.930 . S
H1932 C1920 0.956 . S
H1933 C1920 0.961 . S
H1934 C1920 0.961 . S
H1935 C1921 0.958 . S
H1936 C1921 0.961 . S
H1937 C1921 0.960 . S
C1938 C1939 1.391 . S
C1938 C1940 1.394 . S
C1938 H1954 0.931 . S
C1939 C1938 1.391 . S
C1939 C1943 1.376 . S
C1940 C1938 1.394 . S
C1940 C1941 1.369 . S
C1940 C1944 1.531 . S
C1941 C1940 1.369 . S
C1941 C1942 1.410 . S
C1941 C1949 1.503 . S
C1942 C1941 1.410 . S
C1942 C1943 1.392 . S
C1942 C1945 1.511 . S
C1943 C1939 1.376 . S
C1943 C1942 1.392 . S
C1943 H1955 0.929 1_655 S
C1944 C1940 1.531 . S
C1944 H1956 0.960 . S
C1944 H1957 0.962 . S
C1944 H1958 0.960 . S
C1945 C1942 1.511 . S
C1945 H1959 0.993 . S
C1945 H1960 0.961 . S
C1945 H1961 0.961 1_655 S
C1946 C1947 1.370 . S
C1946 C1948 1.363 . S
C1946 H1962 0.931 . S
C1947 C1946 1.370 . S
C1947 C1951 1.408 . S
C1948 C1946 1.363 . S
C1948 C1949 1.370 . S
C1948 C1952 1.524 . S
C1949 C1941 1.503 . S
C1949 C1948 1.370 . S
C1949 C1950 1.403 . S
C1950 C1949 1.403 . S
C1950 C1951 1.404 . S
C1950 C1953 1.539 . S
C1951 C1947 1.408 . S
C1951 C1950 1.404 . S
C1951 H1963 0.930 . S
C1952 C1948 1.524 . S
C1952 H1964 0.956 . S
C1952 H1965 0.961 . S
C1952 H1966 0.961 . S
C1953 C1950 1.539 . S
C1953 H1967 0.958 . S
C1953 H1968 0.961 . S
C1953 H1969 0.960 1_655 S
H1954 C1938 0.931 . S
H1955 C1943 0.929 1_455 S
H1956 C1944 0.960 . S
H1957 C1944 0.962 . S
H1958 C1944 0.960 . S
H1959 C1945 0.993 . S
H1960 C1945 0.961 . S
H1961 C1945 0.961 1_455 S
H1962 C1946 0.931 . S
H1963 C1951 0.930 . S
H1964 C1952 0.956 . S
H1965 C1952 0.961 . S
H1966 C1952 0.961 . S
H1967 C1953 0.958 . S
H1968 C1953 0.961 . S
H1969 C1953 0.960 1_455 S
C1970 C1971 1.391 . S
C1970 C1972 1.394 . S
C1970 H1986 0.931 . S
C1971 C1970 1.391 . S
C1971 C1975 1.376 . S
C1972 C1970 1.394 . S
C1972 C1973 1.369 . S
C1972 C1976 1.531 . S
C1973 C1972 1.369 . S
C1973 C1974 1.410 . S
C1973 C1981 1.503 . S
C1974 C1973 1.410 . S
C1974 C1975 1.392 . S
C1974 C1977 1.511 . S
C1975 C1971 1.376 . S
C1975 C1974 1.392 . S
C1975 H1987 0.929 . S
C1976 C1972 1.531 . S
C1976 H1988 0.960 . S
C1976 H1989 0.962 . S
C1976 H1990 0.960 . S
C1977 C1974 1.511 . S
C1977 H1991 0.961 . S
C1977 H1992 0.961 . S
C1977 H1993 0.961 . S
C1978 C1979 1.370 . S
C1978 C1980 1.363 . S
C1978 H1994 0.931 . S
C1979 C1978 1.370 . S
C1979 C1983 1.408 . S
C1980 C1978 1.363 . S
C1980 C1981 1.370 . S
C1980 C1984 1.524 . S
C1981 C1973 1.503 . S
C1981 C1980 1.370 . S
C1981 C1982 1.403 . S
C1982 C1981 1.403 . S
C1982 C1983 1.404 . S
C1982 C1985 1.539 . S
C1983 C1979 1.408 . S
C1983 C1982 1.404 . S
C1983 H1995 0.930 . S
C1984 C1980 1.524 . S
C1984 H1996 0.956 . S
C1984 H1997 0.961 . S
C1984 H1998 0.961 . S
C1985 C1982 1.539 . S
C1985 H1999 0.958 . S
C1985 H2000 0.961 . S
C1985 H2001 0.960 . S
H1986 C1970 0.931 . S
H1987 C1975 0.929 . S
H1988 C1976 0.960 . S
H1989 C1976 0.962 . S
H1990 C1976 0.960 . S
H1991 C1977 0.961 . S
H1992 C1977 0.961 . S
H1993 C1977 0.961 . S
H1994 C1978 0.931 . S
H1995 C1983 0.930 . S
H1996 C1984 0.956 . S
H1997 C1984 0.961 . S
H1998 C1984 0.961 . S
H1999 C1985 0.958 . S
H2000 C1985 0.961 . S
H2001 C1985 0.960 . S
C2002 C2003 1.391 . S
C2002 C2004 1.394 . S
C2002 H2018 0.931 . S
C2003 C2002 1.391 . S
C2003 C2007 1.376 . S
C2004 C2002 1.394 . S
C2004 C2005 1.369 . S
C2004 C2008 1.531 . S
C2005 C2004 1.369 . S
C2005 C2006 1.410 . S
C2005 C2013 1.503 . S
C2006 C2005 1.410 . S
C2006 C2007 1.394 . S
C2006 C2009 1.511 . S
C2007 C2003 1.376 . S
C2007 C2006 1.394 . S
C2007 H2019 0.927 1_545 S
C2008 C2004 1.531 . S
C2008 H2020 0.960 . S
C2008 H2021 0.962 . S
C2008 H2022 0.960 . S
C2009 C2006 1.511 . S
C2009 H2023 0.961 1_545 S
C2009 H2024 0.961 . S
C2009 H2025 0.961 1_545 S
C2010 C2011 1.370 . S
C2010 C2012 1.363 . S
C2010 H2026 0.931 . S
C2011 C2010 1.370 . S
C2011 C2015 1.408 . S
C2012 C2010 1.363 . S
C2012 C2013 1.370 . S
C2012 C2016 1.524 . S
C2013 C2005 1.503 . S
C2013 C2012 1.370 . S
C2013 C2014 1.403 . S
C2014 C2013 1.403 . S
C2014 C2015 1.404 . S
C2014 C2017 1.539 . S
C2015 C2011 1.408 . S
C2015 C2014 1.404 . S
C2015 H2027 0.930 . S
C2016 C2012 1.524 . S
C2016 H2028 0.956 . S
C2016 H2029 0.961 . S
C2016 H2030 0.961 . S
C2017 C2014 1.539 . S
C2017 H2031 0.958 . S
C2017 H2032 0.961 . S
C2017 H2033 0.960 . S
H2018 C2002 0.931 . S
H2019 C2007 0.927 1_565 S
H2020 C2008 0.960 . S
H2021 C2008 0.962 . S
H2022 C2008 0.960 . S
H2023 C2009 0.961 1_565 S
H2024 C2009 0.961 . S
H2025 C2009 0.961 1_565 S
H2026 C2010 0.931 . S
H2027 C2015 0.930 . S
H2028 C2016 0.956 . S
H2029 C2016 0.961 . S
H2030 C2016 0.961 . S
H2031 C2017 0.958 . S
H2032 C2017 0.961 . S
H2033 C2017 0.960 . S
C2034 C2035 1.391 1_554 S
C2034 C2036 1.394 . S
C2034 H2050 0.931 1_545 S
C2035 C2034 1.391 1_556 S
C2035 C2039 1.376 . S
C2036 C2034 1.394 . S
C2036 C2037 1.369 . S
C2036 C2040 1.531 1_545 S
C2037 C2036 1.369 . S
C2037 C2038 1.410 . S
C2037 C2045 1.503 . S
C2038 C2037 1.410 . S
C2038 C2039 1.392 1_554 S
C2038 C2041 1.511 . S
C2039 C2035 1.376 . S
C2039 C2038 1.392 1_556 S
C2039 H2051 0.929 . S
C2040 C2036 1.531 1_565 S
C2040 H2052 0.960 . S
C2040 H2053 0.962 1_565 S
C2040 H2054 0.960 . S
C2041 C2038 1.511 . S
C2041 H2055 0.961 . S
C2041 H2056 0.961 . S
C2041 H2057 0.961 . S
C2042 C2043 1.370 . S
C2042 C2044 1.363 . S
C2042 H2058 0.931 . S
C2043 C2042 1.370 . S
C2043 C2047 1.408 . S
C2044 C2042 1.363 . S
C2044 C2045 1.370 . S
C2044 C2048 1.524 . S
C2045 C2037 1.503 . S
C2045 C2044 1.370 . S
C2045 C2046 1.403 . S
C2046 C2045 1.403 . S
C2046 C2047 1.404 . S
C2046 C2049 1.539 1_545 S
C2047 C2043 1.408 . S
C2047 C2046 1.404 . S
C2047 H2059 0.944 . S
C2048 C2044 1.524 . S
C2048 H2060 0.956 . S
C2048 H2061 0.961 . S
C2048 H2062 0.961 . S
C2049 C2046 1.539 1_565 S
C2049 H2063 0.958 . S
C2049 H2064 0.961 . S
C2049 H2065 0.960 . S
H2050 C2034 0.931 1_565 S
H2051 C2039 0.929 . S
H2052 C2040 0.960 . S
H2053 C2040 0.962 1_545 S
H2054 C2040 0.960 . S
H2055 C2041 0.961 . S
H2056 C2041 0.961 . S
H2057 C2041 0.961 . S
H2058 C2042 0.931 . S
H2059 C2047 0.944 . S
H2060 C2048 0.956 . S
H2061 C2048 0.961 . S
H2062 C2048 0.961 . S
H2063 C2049 0.958 . S
H2064 C2049 0.961 . S
H2065 C2049 0.960 . S
C2066 C2067 1.391 . S
C2066 C2068 1.394 . S
C2066 H2082 0.931 . S
C2067 C2066 1.391 . S
C2067 C2071 1.376 . S
C2068 C2066 1.394 . S
C2068 C2069 1.369 . S
C2068 C2072 1.531 . S
C2069 C2068 1.369 . S
C2069 C2070 1.410 . S
C2069 C2077 1.503 . S
C2070 C2069 1.410 . S
C2070 C2071 1.392 . S
C2070 C2073 1.511 . S
C2071 C2067 1.376 . S
C2071 C2070 1.392 . S
C2071 H2083 0.929 . S
C2072 C2068 1.531 . S
C2072 H2084 0.960 . S
C2072 H2085 0.962 . S
C2072 H2086 0.960 . S
C2073 C2070 1.511 . S
C2073 H2087 0.961 . S
C2073 H2088 0.961 . S
C2073 H2089 0.961 . S
C2074 C2075 1.370 1_554 S
C2074 C2076 1.363 . S
C2074 H2090 0.931 1_654 S
C2075 C2074 1.370 1_556 S
C2075 C2079 1.408 1_556 S
C2076 C2074 1.363 . S
C2076 C2077 1.370 . S
C2076 C2080 1.524 1_655 S
C2077 C2069 1.503 . S
C2077 C2076 1.370 . S
C2077 C2078 1.403 . S
C2078 C2077 1.403 . S
C2078 C2079 1.404 . S
C2078 C2081 1.539 . S
C2079 C2075 1.408 1_554 S
C2079 C2078 1.404 . S
C2079 H2091 0.924 1_554 S
C2080 C2076 1.524 1_455 S
C2080 H2092 0.956 . S
C2080 H2093 0.961 . S
C2080 H2094 0.961 . S
C2081 C2078 1.539 . S
C2081 H2095 0.958 . S
C2081 H2096 0.961 . S
C2081 H2097 0.960 . S
H2082 C2066 0.931 . S
H2083 C2071 0.929 . S
H2084 C2072 0.960 . S
H2085 C2072 0.962 . S
H2086 C2072 0.960 . S
H2087 C2073 0.961 . S
H2088 C2073 0.961 . S
H2089 C2073 0.961 . S
H2090 C2074 0.931 1_456 S
H2091 C2079 0.924 1_556 S
H2092 C2080 0.956 . S
H2093 C2080 0.961 . S
H2094 C2080 0.961 . S
H2095 C2081 0.958 . S
H2096 C2081 0.961 . S
H2097 C2081 0.960 . S
C2098 C2099 1.391 . S
C2098 C2100 1.394 . S
C2098 H2114 0.931 . S
C2099 C2098 1.391 . S
C2099 C2103 1.376 . S
C2100 C2098 1.394 . S
C2100 C2101 1.369 . S
C2100 C2104 1.531 . S
C2101 C2100 1.369 . S
C2101 C2102 1.410 . S
C2101 C2109 1.503 . S
C2102 C2101 1.410 . S
C2102 C2103 1.392 . S
C2102 C2105 1.511 . S
C2103 C2099 1.376 . S
C2103 C2102 1.392 . S
C2103 H2115 0.929 . S
C2104 C2100 1.531 . S
C2104 H2116 0.960 . S
C2104 H2117 0.962 . S
C2104 H2118 0.960 . S
C2105 C2102 1.511 . S
C2105 H2119 0.961 . S
C2105 H2120 0.961 . S
C2105 H2121 0.961 . S
C2106 C2107 1.370 1_554 S
C2106 C2108 1.363 . S
C2106 H2122 0.931 . S
C2107 C2106 1.370 1_556 S
C2107 C2111 1.408 . S
C2108 C2106 1.363 . S
C2108 C2109 1.370 . S
C2108 C2112 1.524 . S
C2109 C2101 1.503 . S
C2109 C2108 1.370 . S
C2109 C2110 1.403 . S
C2110 C2109 1.403 . S
C2110 C2111 1.404 1_554 S
C2110 C2113 1.539 . S
C2111 C2107 1.408 . S
C2111 C2110 1.404 1_556 S
C2111 H2123 0.930 . S
C2112 C2108 1.524 . S
C2112 H2124 0.956 . S
C2112 H2125 0.961 . S
C2112 H2126 0.961 . S
C2113 C2110 1.539 . S
C2113 H2127 0.958 . S
C2113 H2128 0.961 . S
C2113 H2129 0.960 . S
H2114 C2098 0.931 . S
H2115 C2103 0.929 . S
H2116 C2104 0.960 . S
H2117 C2104 0.962 . S
H2118 C2104 0.960 . S
H2119 C2105 0.961 . S
H2120 C2105 0.961 . S
H2121 C2105 0.961 . S
H2122 C2106 0.931 . S
H2123 C2111 0.930 . S
H2124 C2112 0.956 . S
H2125 C2112 0.961 . S
H2126 C2112 0.961 . S
H2127 C2113 0.958 . S
H2128 C2113 0.961 . S
H2129 C2113 0.960 . S
C2130 C2131 1.391 . S
C2130 C2132 1.394 1_554 S
C2130 H2146 0.931 . S
C2131 C2130 1.391 . S
C2131 C2135 1.376 1_554 S
C2132 C2130 1.394 1_556 S
C2132 C2133 1.369 . S
C2132 C2136 1.531 . S
C2133 C2132 1.369 . S
C2133 C2134 1.410 . S
C2133 C2141 1.503 . S
C2134 C2133 1.410 . S
C2134 C2135 1.392 . S
C2134 C2137 1.511 . S
C2135 C2131 1.376 1_556 S
C2135 C2134 1.392 . S
C2135 H2147 0.929 . S
C2136 C2132 1.531 . S
C2136 H2148 0.939 1_565 S
C2136 H2149 0.962 . S
C2136 H2150 0.960 1_565 S
C2137 C2134 1.511 . S
C2137 H2151 0.961 . S
C2137 H2152 0.961 . S
C2137 H2153 0.961 . S
C2138 C2139 1.370 . S
C2138 C2140 1.363 . S
C2138 H2154 0.931 . S
C2139 C2138 1.370 . S
C2139 C2143 1.408 . S
C2140 C2138 1.363 . S
C2140 C2141 1.370 . S
C2140 C2144 1.524 . S
C2141 C2133 1.503 . S
C2141 C2140 1.370 . S
C2141 C2142 1.403 . S
C2142 C2141 1.403 . S
C2142 C2143 1.404 . S
C2142 C2145 1.539 1_565 S
C2143 C2139 1.408 . S
C2143 C2142 1.404 . S
C2143 H2155 0.930 1_565 S
C2144 C2140 1.524 . S
C2144 H2156 0.956 . S
C2144 H2157 0.961 . S
C2144 H2158 0.961 . S
C2145 C2142 1.539 1_545 S
C2145 H2159 0.958 . S
C2145 H2160 0.961 . S
C2145 H2161 0.960 . S
H2146 C2130 0.931 . S
H2147 C2135 0.929 . S
H2148 C2136 0.939 1_545 S
H2149 C2136 0.962 . S
H2150 C2136 0.960 1_545 S
H2151 C2137 0.961 . S
H2152 C2137 0.961 . S
H2153 C2137 0.961 . S
H2154 C2138 0.931 . S
H2155 C2143 0.930 1_545 S
H2156 C2144 0.956 . S
H2157 C2144 0.961 . S
H2158 C2144 0.961 . S
H2159 C2145 0.958 . S
H2160 C2145 0.961 . S
H2161 C2145 0.960 . S
C2162 C2163 1.391 . S
C2162 C2164 1.394 . S
C2162 H2178 0.931 . S
C2163 C2162 1.391 . S
C2163 C2167 1.376 . S
C2164 C2162 1.394 . S
C2164 C2165 1.369 . S
C2164 C2168 1.531 1_455 S
C2165 C2164 1.369 . S
C2165 C2166 1.410 . S
C2165 C2173 1.503 . S
C2166 C2165 1.410 . S
C2166 C2167 1.392 . S
C2166 C2169 1.511 . S
C2167 C2163 1.376 . S
C2167 C2166 1.392 . S
C2167 H2179 0.929 . S
C2168 C2164 1.531 1_655 S
C2168 H2180 0.960 . S
C2168 H2181 0.962 . S
C2168 H2182 0.960 . S
C2169 C2166 1.511 . S
C2169 H2183 0.961 . S
C2169 H2184 0.961 . S
C2169 H2185 0.961 . S
C2170 C2171 1.370 1_556 S
C2170 C2172 1.363 . S
C2170 H2186 0.931 . S
C2171 C2170 1.370 1_554 S
C2171 C2175 1.408 . S
C2172 C2170 1.363 . S
C2172 C2173 1.370 . S
C2172 C2176 1.524 . S
C2173 C2165 1.503 . S
C2173 C2172 1.370 . S
C2173 C2174 1.403 . S
C2174 C2173 1.403 . S
C2174 C2175 1.404 1_556 S
C2174 C2177 1.539 1_455 S
C2175 C2171 1.408 . S
C2175 C2174 1.404 1_554 S
C2175 H2187 0.930 1_455 S
C2176 C2172 1.524 . S
C2176 H2188 0.956 . S
C2176 H2189 0.961 . S
C2176 H2190 0.961 . S
C2177 C2174 1.539 1_655 S
C2177 H2191 0.958 . S
C2177 H2192 0.961 . S
C2177 H2193 0.963 1_655 S
H2178 C2162 0.931 . S
H2179 C2167 0.929 . S
H2180 C2168 0.960 . S
H2181 C2168 0.962 . S
H2182 C2168 0.960 . S
H2183 C2169 0.961 . S
H2184 C2169 0.961 . S
H2185 C2169 0.961 . S
H2186 C2170 0.931 . S
H2187 C2175 0.930 1_655 S
H2188 C2176 0.956 . S
H2189 C2176 0.961 . S
H2190 C2176 0.961 . S
H2191 C2177 0.958 . S
H2192 C2177 0.961 . S
H2193 C2177 0.963 1_455 S
C2194 C2195 1.391 1_556 S
C2194 C2196 1.394 . S
C2194 H2210 0.931 . S
C2195 C2194 1.391 1_554 S
C2195 C2199 1.376 1_554 S
C2196 C2194 1.394 . S
C2196 C2197 1.369 . S
C2196 C2200 1.531 . S
C2197 C2196 1.369 . S
C2197 C2198 1.410 . S
C2197 C2205 1.503 . S
C2198 C2197 1.410 . S
C2198 C2199 1.392 . S
C2198 C2201 1.511 . S
C2199 C2195 1.376 1_556 S
C2199 C2198 1.392 . S
C2199 H2211 0.929 1_556 S
C2200 C2196 1.531 . S
C2200 H2212 0.960 . S
C2200 H2213 0.962 . S
C2200 H2214 0.960 . S
C2201 C2198 1.511 . S
C2201 H2215 0.961 . S
C2201 H2216 0.961 . S
C2201 H2217 0.961 . S
C2202 C2203 1.370 . S
C2202 C2204 1.363 . S
C2202 H2218 0.931 . S
C2203 C2202 1.370 . S
C2203 C2207 1.408 . S
C2204 C2202 1.363 . S
C2204 C2205 1.370 . S
C2204 C2208 1.524 . S
C2205 C2197 1.503 . S
C2205 C2204 1.370 . S
C2205 C2206 1.403 . S
C2206 C2205 1.403 . S
C2206 C2207 1.404 . S
C2206 C2209 1.539 . S
C2207 C2203 1.408 . S
C2207 C2206 1.404 . S
C2207 H2219 0.930 . S
C2208 C2204 1.524 . S
C2208 H2220 0.956 . S
C2208 H2221 0.961 . S
C2208 H2222 0.961 . S
C2209 C2206 1.539 . S
C2209 H2223 0.958 . S
C2209 H2224 0.961 . S
C2209 H2225 0.960 . S
H2210 C2194 0.931 . S
H2211 C2199 0.929 1_554 S
H2212 C2200 0.960 . S
H2213 C2200 0.962 . S
H2214 C2200 0.960 . S
H2215 C2201 0.961 . S
H2216 C2201 0.961 . S
H2217 C2201 0.961 . S
H2218 C2202 0.931 . S
H2219 C2207 0.930 . S
H2220 C2208 0.956 . S
H2221 C2208 0.961 . S
H2222 C2208 0.961 . S
H2223 C2209 0.958 . S
H2224 C2209 0.961 . S
H2225 C2209 0.960 . S
C2226 C2227 1.407 . S
C2226 C2228 1.410 . S
C2226 H2242 0.900 1_455 S
C2227 C2226 1.407 . S
C2227 C2231 1.376 . S
C2228 C2226 1.410 . S
C2228 C2229 1.369 . S
C2228 C2232 1.531 . S
C2229 C2228 1.369 . S
C2229 C2230 1.410 . S
C2229 C2237 1.503 . S
C2230 C2229 1.410 . S
C2230 C2231 1.392 . S
C2230 C2233 1.511 . S
C2231 C2227 1.376 . S
C2231 C2230 1.392 . S
C2231 H2243 0.929 . S
C2232 C2228 1.531 . S
C2232 H2244 0.960 . S
C2232 H2245 0.962 . S
C2232 H2246 0.960 1_455 S
C2233 C2230 1.511 . S
C2233 H2247 0.961 . S
C2233 H2248 0.961 . S
C2233 H2249 0.961 . S
C2234 C2235 1.370 . S
C2234 C2236 1.363 . S
C2234 H2250 0.931 . S
C2235 C2234 1.370 . S
C2235 C2239 1.408 . S
C2236 C2234 1.363 . S
C2236 C2237 1.370 . S
C2236 C2240 1.524 . S
C2237 C2229 1.503 . S
C2237 C2236 1.370 . S
C2237 C2238 1.403 . S
C2238 C2237 1.403 . S
C2238 C2239 1.404 . S
C2238 C2241 1.539 . S
C2239 C2235 1.408 . S
C2239 C2238 1.404 . S
C2239 H2251 0.930 . S
C2240 C2236 1.524 . S
C2240 H2252 0.956 . S
C2240 H2253 0.961 . S
C2240 H2254 0.961 . S
C2241 C2238 1.539 . S
C2241 H2255 0.958 1_455 S
C2241 H2256 0.961 . S
C2241 H2257 0.960 . S
H2242 C2226 0.900 1_655 S
H2243 C2231 0.929 . S
H2244 C2232 0.960 . S
H2245 C2232 0.962 . S
H2246 C2232 0.960 1_655 S
H2247 C2233 0.961 . S
H2248 C2233 0.961 . S
H2249 C2233 0.961 . S
H2250 C2234 0.931 . S
H2251 C2239 0.930 . S
H2252 C2240 0.956 . S
H2253 C2240 0.961 . S
H2254 C2240 0.961 . S
H2255 C2241 0.958 1_655 S
H2256 C2241 0.961 . S
H2257 C2241 0.960 . S
C2258 C2259 1.391 . S
C2258 C2260 1.394 . S
C2258 H2274 0.931 . S
C2259 C2258 1.391 . S
C2259 C2263 1.376 . S
C2260 C2258 1.394 . S
C2260 C2261 1.369 . S
C2260 C2264 1.531 . S
C2261 C2260 1.369 . S
C2261 C2262 1.410 . S
C2261 C2269 1.503 . S
C2262 C2261 1.410 . S
C2262 C2263 1.392 . S
C2262 C2265 1.511 . S
C2263 C2259 1.376 . S
C2263 C2262 1.392 . S
C2263 H2275 0.929 . S
C2264 C2260 1.531 . S
C2264 H2276 0.960 . S
C2264 H2277 0.962 . S
C2264 H2278 0.960 . S
C2265 C2262 1.511 . S
C2265 H2279 0.961 . S
C2265 H2280 0.961 . S
C2265 H2281 0.961 . S
C2266 C2267 1.370 . S
C2266 C2268 1.363 . S
C2266 H2282 0.931 . S
C2267 C2266 1.370 . S
C2267 C2271 1.408 . S
C2268 C2266 1.363 . S
C2268 C2269 1.370 . S
C2268 C2272 1.524 . S
C2269 C2261 1.503 . S
C2269 C2268 1.370 . S
C2269 C2270 1.403 . S
C2270 C2269 1.403 . S
C2270 C2271 1.404 . S
C2270 C2273 1.539 . S
C2271 C2267 1.408 . S
C2271 C2270 1.404 . S
C2271 H2283 0.930 . S
C2272 C2268 1.524 . S
C2272 H2284 0.956 . S
C2272 H2285 0.961 . S
C2272 H2286 0.961 . S
C2273 C2270 1.539 . S
C2273 H2287 0.958 . S
C2273 H2288 0.961 . S
C2273 H2289 0.960 . S
H2274 C2258 0.931 . S
H2275 C2263 0.929 . S
H2276 C2264 0.960 . S
H2277 C2264 0.962 . S
H2278 C2264 0.960 . S
H2279 C2265 0.961 . S
H2280 C2265 0.961 . S
H2281 C2265 0.961 . S
H2282 C2266 0.931 . S
H2283 C2271 0.930 . S
H2284 C2272 0.956 . S
H2285 C2272 0.961 . S
H2286 C2272 0.961 . S
H2287 C2273 0.958 . S
H2288 C2273 0.961 . S
H2289 C2273 0.960 . S
C2290 C2291 1.391 . S
C2290 C2292 1.394 . S
C2290 H2306 0.931 . S
C2291 C2290 1.391 . S
C2291 C2295 1.376 . S
C2292 C2290 1.394 . S
C2292 C2293 1.369 . S
C2292 C2296 1.531 . S
C2293 C2292 1.369 . S
C2293 C2294 1.410 . S
C2293 C2301 1.503 . S
C2294 C2293 1.410 . S
C2294 C2295 1.392 . S
C2294 C2297 1.511 . S
C2295 C2291 1.376 . S
C2295 C2294 1.392 . S
C2295 H2307 0.929 . S
C2296 C2292 1.531 . S
C2296 H2308 0.960 . S
C2296 H2309 0.962 . S
C2296 H2310 0.960 . S
C2297 C2294 1.511 . S
C2297 H2311 0.961 . S
C2297 H2312 0.961 . S
C2297 H2313 0.961 . S
C2298 C2299 1.370 . S
C2298 C2300 1.363 . S
C2298 H2314 0.931 1_565 S
C2299 C2298 1.370 . S
C2299 C2303 1.408 . S
C2300 C2298 1.363 . S
C2300 C2301 1.370 . S
C2300 C2304 1.524 . S
C2301 C2293 1.503 . S
C2301 C2300 1.370 . S
C2301 C2302 1.403 . S
C2302 C2301 1.403 . S
C2302 C2303 1.404 . S
C2302 C2305 1.539 . S
C2303 C2299 1.408 . S
C2303 C2302 1.404 . S
C2303 H2315 0.930 . S
C2304 C2300 1.524 . S
C2304 H2316 0.956 . S
C2304 H2317 0.961 . S
C2304 H2318 0.961 . S
C2305 C2302 1.539 . S
C2305 H2319 0.958 . S
C2305 H2320 0.961 . S
C2305 H2321 0.960 . S
H2306 C2290 0.931 . S
H2307 C2295 0.929 . S
H2308 C2296 0.960 . S
H2309 C2296 0.962 . S
H2310 C2296 0.960 . S
H2311 C2297 0.961 . S
H2312 C2297 0.961 . S
H2313 C2297 0.961 . S
H2314 C2298 0.931 1_545 S
H2315 C2303 0.930 . S
H2316 C2304 0.956 . S
H2317 C2304 0.961 . S
H2318 C2304 0.961 . S
H2319 C2305 0.958 . S
H2320 C2305 0.961 . S
H2321 C2305 0.960 . S
C2322 C2323 1.391 . S
C2322 C2324 1.394 1_556 S
C2322 H2338 0.931 1_556 S
C2323 C2322 1.391 . S
C2323 C2327 1.376 . S
C2324 C2322 1.394 1_554 S
C2324 C2325 1.369 1_554 S
C2324 C2328 1.531 . S
C2325 C2324 1.369 1_556 S
C2325 C2326 1.410 . S
C2325 C2333 1.503 1_556 S
C2326 C2325 1.410 . S
C2326 C2327 1.392 . S
C2326 C2329 1.511 . S
C2327 C2323 1.376 . S
C2327 C2326 1.392 . S
C2327 H2339 0.929 . S
C2328 C2324 1.531 . S
C2328 H2340 0.960 . S
C2328 H2341 0.962 . S
C2328 H2342 0.960 . S
C2329 C2326 1.511 . S
C2329 H2343 0.961 . S
C2329 H2344 0.961 . S
C2329 H2345 0.961 . S
C2330 C2331 1.370 . S
C2330 C2332 1.376 . S
C2330 H2346 0.931 . S
C2331 C2330 1.370 . S
C2331 C2335 1.408 . S
C2332 C2330 1.376 . S
C2332 C2333 1.379 . S
C2332 C2336 1.504 1_554 S
C2333 C2325 1.503 1_554 S
C2333 C2332 1.379 . S
C2333 C2334 1.403 . S
C2334 C2333 1.403 . S
C2334 C2335 1.404 . S
C2334 C2337 1.539 . S
C2335 C2331 1.408 . S
C2335 C2334 1.404 . S
C2335 H2347 0.930 . S
C2336 C2332 1.504 1_556 S
C2336 H2348 0.956 . S
C2336 H2349 0.961 . S
C2336 H2350 0.961 . S
C2337 C2334 1.539 . S
C2337 H2351 0.958 . S
C2337 H2352 0.961 . S
C2337 H2353 0.960 . S
H2338 C2322 0.931 1_554 S
H2339 C2327 0.929 . S
H2340 C2328 0.960 . S
H2341 C2328 0.962 . S
H2342 C2328 0.960 . S
H2343 C2329 0.961 . S
H2344 C2329 0.961 . S
H2345 C2329 0.961 . S
H2346 C2330 0.931 . S
H2347 C2335 0.930 . S
H2348 C2336 0.956 . S
H2349 C2336 0.961 . S
H2350 C2336 0.961 . S
H2351 C2337 0.958 . S
H2352 C2337 0.961 . S
H2353 C2337 0.960 . S
C2354 C2355 1.391 . S
C2354 C2356 1.394 . S
C2354 H2370 0.931 . S
C2355 C2354 1.391 . S
C2355 C2359 1.376 . S
C2356 C2354 1.394 . S
C2356 C2357 1.369 . S
C2356 C2360 1.531 1_556 S
C2357 C2356 1.369 . S
C2357 C2358 1.410 . S
C2357 C2365 1.503 1_556 S
C2358 C2357 1.410 . S
C2358 C2359 1.392 . S
C2358 C2361 1.511 . S
C2359 C2355 1.376 . S
C2359 C2358 1.392 . S
C2359 H2371 0.929 . S
C2360 C2356 1.531 1_554 S
C2360 H2372 0.957 1_554 S
C2360 H2373 0.962 . S
C2360 H2374 0.960 1_554 S
C2361 C2358 1.511 . S
C2361 H2375 0.961 . S
C2361 H2376 0.961 . S
C2361 H2377 0.961 . S
C2362 C2363 1.370 . S
C2362 C2364 1.363 . S
C2362 H2378 0.931 . S
C2363 C2362 1.370 . S
C2363 C2367 1.408 1_554 S
C2364 C2362 1.363 . S
C2364 C2365 1.370 . S
C2364 C2368 1.524 . S
C2365 C2357 1.503 1_554 S
C2365 C2364 1.370 . S
C2365 C2366 1.403 1_554 S
C2366 C2365 1.403 1_556 S
C2366 C2367 1.404 . S
C2366 C2369 1.539 . S
C2367 C2363 1.408 1_556 S
C2367 C2366 1.404 . S
C2367 H2379 0.930 . S
C2368 C2364 1.524 . S
C2368 H2380 0.956 . S
C2368 H2381 0.961 . S
C2368 H2382 0.961 . S
C2369 C2366 1.539 . S
C2369 H2383 0.958 . S
C2369 H2384 0.961 . S
C2369 H2385 0.960 . S
H2370 C2354 0.931 . S
H2371 C2359 0.929 . S
H2372 C2360 0.957 1_556 S
H2373 C2360 0.962 . S
H2374 C2360 0.960 1_556 S
H2375 C2361 0.961 . S
H2376 C2361 0.961 . S
H2377 C2361 0.961 . S
H2378 C2362 0.931 . S
H2379 C2367 0.930 . S
H2380 C2368 0.956 . S
H2381 C2368 0.961 . S
H2382 C2368 0.961 . S
H2383 C2369 0.958 . S
H2384 C2369 0.961 . S
H2385 C2369 0.960 . S
C2386 C2387 1.391 . S
C2386 C2388 1.394 . S
C2386 H2402 0.931 . S
C2387 C2386 1.391 . S
C2387 C2391 1.376 . S
C2388 C2386 1.394 . S
C2388 C2389 1.369 . S
C2388 C2392 1.531 1_556 S
C2389 C2388 1.369 . S
C2389 C2390 1.410 . S
C2389 C2397 1.503 1_556 S
C2390 C2389 1.410 . S
C2390 C2391 1.392 . S
C2390 C2393 1.511 . S
C2391 C2387 1.376 . S
C2391 C2390 1.392 . S
C2391 H2403 0.929 . S
C2392 C2388 1.531 1_554 S
C2392 H2404 0.960 . S
C2392 H2405 0.962 . S
C2392 H2406 0.960 . S
C2393 C2390 1.511 . S
C2393 H2407 0.961 . S
C2393 H2408 0.961 . S
C2393 H2409 0.961 . S
C2394 C2395 1.370 . S
C2394 C2396 1.363 . S
C2394 H2410 0.931 . S
C2395 C2394 1.370 . S
C2395 C2399 1.406 . S
C2396 C2394 1.363 . S
C2396 C2397 1.370 . S
C2396 C2400 1.524 . S
C2397 C2389 1.503 1_554 S
C2397 C2396 1.370 . S
C2397 C2398 1.403 1_554 S
C2398 C2397 1.403 1_556 S
C2398 C2399 1.405 1_556 S
C2398 C2401 1.539 . S
C2399 C2395 1.406 . S
C2399 C2398 1.405 1_554 S
C2399 H2411 0.931 1_554 S
C2400 C2396 1.524 . S
C2400 H2412 0.956 . S
C2400 H2413 0.961 . S
C2400 H2414 0.961 . S
C2401 C2398 1.539 . S
C2401 H2415 0.958 . S
C2401 H2416 0.961 . S
C2401 H2417 0.960 . S
H2402 C2386 0.931 . S
H2403 C2391 0.929 . S
H2404 C2392 0.960 . S
H2405 C2392 0.962 . S
H2406 C2392 0.960 . S
H2407 C2393 0.961 . S
H2408 C2393 0.961 . S
H2409 C2393 0.961 . S
H2410 C2394 0.931 . S
H2411 C2399 0.931 1_556 S
H2412 C2400 0.956 . S
H2413 C2400 0.961 . S
H2414 C2400 0.961 . S
H2415 C2401 0.958 . S
H2416 C2401 0.961 . S
H2417 C2401 0.960 . S
C2418 C2419 1.391 . S
C2418 C2420 1.394 1_554 S
C2418 H2434 0.931 1_554 S
C2419 C2418 1.391 . S
C2419 C2423 1.376 . S
C2420 C2418 1.394 1_556 S
C2420 C2421 1.369 1_556 S
C2420 C2424 1.531 . S
C2421 C2420 1.369 1_554 S
C2421 C2422 1.410 . S
C2421 C2429 1.503 1_554 S
C2422 C2421 1.410 . S
C2422 C2423 1.392 . S
C2422 C2425 1.511 . S
C2423 C2419 1.376 . S
C2423 C2422 1.392 . S
C2423 H2435 0.929 . S
C2424 C2420 1.531 . S
C2424 H2436 0.960 . S
C2424 H2437 0.962 . S
C2424 H2438 0.960 . S
C2425 C2422 1.511 . S
C2425 H2439 0.961 . S
C2425 H2440 0.961 . S
C2425 H2441 0.961 . S
C2426 C2427 1.370 . S
C2426 C2428 1.363 . S
C2426 H2442 0.931 . S
C2427 C2426 1.370 . S
C2427 C2431 1.408 . S
C2428 C2426 1.363 . S
C2428 C2429 1.370 . S
C2428 C2432 1.524 . S
C2429 C2421 1.503 1_556 S
C2429 C2428 1.370 . S
C2429 C2430 1.403 . S
C2430 C2429 1.403 . S
C2430 C2431 1.404 . S
C2430 C2433 1.539 1_556 S
C2431 C2427 1.408 . S
C2431 C2430 1.404 . S
C2431 H2443 0.930 . S
C2432 C2428 1.524 . S
C2432 H2444 0.956 . S
C2432 H2445 0.961 1_556 S
C2432 H2446 0.961 . S
C2433 C2430 1.539 1_554 S
C2433 H2447 0.958 1_554 S
C2433 H2448 0.961 . S
C2433 H2449 0.960 . S
H2434 C2418 0.931 1_556 S
H2435 C2423 0.929 . S
H2436 C2424 0.960 . S
H2437 C2424 0.962 . S
H2438 C2424 0.960 . S
H2439 C2425 0.961 . S
H2440 C2425 0.961 . S
H2441 C2425 0.961 . S
H2442 C2426 0.931 . S
H2443 C2431 0.930 . S
H2444 C2432 0.956 . S
H2445 C2432 0.961 1_554 S
H2446 C2432 0.961 . S
H2447 C2433 0.958 1_556 S
H2448 C2433 0.961 . S
H2449 C2433 0.960 . S
C2450 C2451 1.391 . S
C2450 C2452 1.394 . S
C2450 H2466 0.931 . S
C2451 C2450 1.391 . S
C2451 C2455 1.376 . S
C2452 C2450 1.394 . S
C2452 C2453 1.372 . S
C2452 C2456 1.531 . S
C2453 C2452 1.372 . S
C2453 C2454 1.409 1_556 S
C2453 C2461 1.501 1_556 S
C2454 C2453 1.409 1_554 S
C2454 C2455 1.392 1_554 S
C2454 C2457 1.511 . S
C2455 C2451 1.376 . S
C2455 C2454 1.392 1_556 S
C2455 H2467 0.929 . S
C2456 C2452 1.531 . S
C2456 H2468 0.964 . S
C2456 H2469 0.962 . S
C2456 H2470 0.960 . S
C2457 C2454 1.511 . S
C2457 H2471 0.961 . S
C2457 H2472 0.961 . S
C2457 H2473 0.961 . S
C2458 C2459 1.370 . S
C2458 C2460 1.363 1_554 S
C2458 H2474 0.931 1_554 S
C2459 C2458 1.370 . S
C2459 C2463 1.408 . S
C2460 C2458 1.363 1_556 S
C2460 C2461 1.370 1_556 S
C2460 C2464 1.524 . S
C2461 C2453 1.501 1_554 S
C2461 C2460 1.370 1_554 S
C2461 C2462 1.403 . S
C2462 C2461 1.403 . S
C2462 C2463 1.404 . S
C2462 C2465 1.539 . S
C2463 C2459 1.408 . S
C2463 C2462 1.404 . S
C2463 H2475 0.930 . S
C2464 C2460 1.524 . S
C2464 H2476 0.956 . S
C2464 H2477 0.961 . S
C2464 H2478 0.961 . S
C2465 C2462 1.539 . S
C2465 H2479 0.958 . S
C2465 H2480 0.961 . S
C2465 H2481 0.960 . S
H2466 C2450 0.931 . S
H2467 C2455 0.929 . S
H2468 C2456 0.964 . S
H2469 C2456 0.962 . S
H2470 C2456 0.960 . S
H2471 C2457 0.961 . S
H2472 C2457 0.961 . S
H2473 C2457 0.961 . S
H2474 C2458 0.931 1_556 S
H2475 C2463 0.930 . S
H2476 C2464 0.956 . S
H2477 C2464 0.961 . S
H2478 C2464 0.961 . S
H2479 C2465 0.958 . S
H2480 C2465 0.961 . S
H2481 C2465 0.960 . S
C2482 C2483 1.391 . S
C2482 C2484 1.394 . S
C2482 H2498 0.931 . S
C2483 C2482 1.391 . S
C2483 C2487 1.359 1_556 S
C2484 C2482 1.394 . S
C2484 C2485 1.369 . S
C2484 C2488 1.531 . S
C2485 C2484 1.369 . S
C2485 C2486 1.410 1_556 S
C2485 C2493 1.503 1_556 S
C2486 C2485 1.410 1_554 S
C2486 C2487 1.400 . S
C2486 C2489 1.511 . S
C2487 C2483 1.359 1_554 S
C2487 C2486 1.400 . S
C2487 H2499 0.939 . S
C2488 C2484 1.531 . S
C2488 H2500 0.960 . S
C2488 H2501 0.962 . S
C2488 H2502 0.960 . S
C2489 C2486 1.511 . S
C2489 H2503 0.961 . S
C2489 H2504 0.961 . S
C2489 H2505 0.961 . S
C2490 C2491 1.370 . S
C2490 C2492 1.363 . S
C2490 H2506 0.931 . S
C2491 C2490 1.370 . S
C2491 C2495 1.408 . S
C2492 C2490 1.363 . S
C2492 C2493 1.370 . S
C2492 C2496 1.524 1_554 S
C2493 C2485 1.503 1_554 S
C2493 C2492 1.370 . S
C2493 C2494 1.403 . S
C2494 C2493 1.403 . S
C2494 C2495 1.404 . S
C2494 C2497 1.539 . S
C2495 C2491 1.408 . S
C2495 C2494 1.404 . S
C2495 H2507 0.930 . S
C2496 C2492 1.524 1_556 S
C2496 H2508 0.956 . S
C2496 H2509 0.976 . S
C2496 H2510 0.961 . S
C2497 C2494 1.539 . S
C2497 H2511 0.958 . S
C2497 H2512 0.961 . S
C2497 H2513 0.960 . S
H2498 C2482 0.931 . S
H2499 C2487 0.939 . S
H2500 C2488 0.960 . S
H2501 C2488 0.962 . S
H2502 C2488 0.960 . S
H2503 C2489 0.961 . S
H2504 C2489 0.961 . S
H2505 C2489 0.961 . S
H2506 C2490 0.931 . S
H2507 C2495 0.930 . S
H2508 C2496 0.956 . S
H2509 C2496 0.976 . S
H2510 C2496 0.961 . S
H2511 C2497 0.958 . S
H2512 C2497 0.961 . S
H2513 C2497 0.960 . S
C2514 C2515 1.391 . S
C2514 C2516 1.394 . S
C2514 H2530 0.931 . S
C2515 C2514 1.391 . S
C2515 C2519 1.376 . S
C2516 C2514 1.394 . S
C2516 C2517 1.369 . S
C2516 C2520 1.531 . S
C2517 C2516 1.369 . S
C2517 C2518 1.410 . S
C2517 C2525 1.503 . S
C2518 C2517 1.410 . S
C2518 C2519 1.392 . S
C2518 C2521 1.511 . S
C2519 C2515 1.376 . S
C2519 C2518 1.392 . S
C2519 H2531 0.929 . S
C2520 C2516 1.531 . S
C2520 H2532 0.960 . S
C2520 H2533 0.962 . S
C2520 H2534 0.960 . S
C2521 C2518 1.511 . S
C2521 H2535 0.961 . S
C2521 H2536 0.961 . S
C2521 H2537 0.961 . S
C2522 C2523 1.370 . S
C2522 C2524 1.363 . S
C2522 H2538 0.931 . S
C2523 C2522 1.370 . S
C2523 C2527 1.408 . S
C2524 C2522 1.363 . S
C2524 C2525 1.370 . S
C2524 C2528 1.524 . S
C2525 C2517 1.503 . S
C2525 C2524 1.370 . S
C2525 C2526 1.403 . S
C2526 C2525 1.403 . S
C2526 C2527 1.404 . S
C2526 C2529 1.539 . S
C2527 C2523 1.408 . S
C2527 C2526 1.404 . S
C2527 H2539 0.930 . S
C2528 C2524 1.524 . S
C2528 H2540 0.956 . S
C2528 H2541 0.961 . S
C2528 H2542 0.961 . S
C2529 C2526 1.539 . S
C2529 H2543 0.958 . S
C2529 H2544 0.961 . S
C2529 H2545 0.960 . S
H2530 C2514 0.931 . S
H2531 C2519 0.929 . S
H2532 C2520 0.960 . S
H2533 C2520 0.962 . S
H2534 C2520 0.960 . S
H2535 C2521 0.961 . S
H2536 C2521 0.961 . S
H2537 C2521 0.961 . S
H2538 C2522 0.931 . S
H2539 C2527 0.930 . S
H2540 C2528 0.956 . S
H2541 C2528 0.961 . S
H2542 C2528 0.961 . S
H2543 C2529 0.958 . S
H2544 C2529 0.961 . S
H2545 C2529 0.960 . S
C2546 C2547 1.391 . S
C2546 C2548 1.394 . S
C2546 H2562 0.931 . S
C2547 C2546 1.391 . S
C2547 C2551 1.376 . S
C2548 C2546 1.394 . S
C2548 C2549 1.369 . S
C2548 C2552 1.531 . S
C2549 C2548 1.369 . S
C2549 C2550 1.410 . S
C2549 C2557 1.503 . S
C2550 C2549 1.410 . S
C2550 C2551 1.392 . S
C2550 C2553 1.511 . S
C2551 C2547 1.376 . S
C2551 C2550 1.392 . S
C2551 H2563 0.929 . S
C2552 C2548 1.531 . S
C2552 H2564 0.960 . S
C2552 H2565 0.962 . S
C2552 H2566 0.960 . S
C2553 C2550 1.511 . S
C2553 H2567 0.961 . S
C2553 H2568 0.961 . S
C2553 H2569 0.961 . S
C2554 C2555 1.370 . S
C2554 C2556 1.363 . S
C2554 H2570 0.931 . S
C2555 C2554 1.370 . S
C2555 C2559 1.408 . S
C2556 C2554 1.363 . S
C2556 C2557 1.370 . S
C2556 C2560 1.524 . S
C2557 C2549 1.503 . S
C2557 C2556 1.370 . S
C2557 C2558 1.403 . S
C2558 C2557 1.403 . S
C2558 C2559 1.404 . S
C2558 C2561 1.539 . S
C2559 C2555 1.408 . S
C2559 C2558 1.404 . S
C2559 H2571 0.930 . S
C2560 C2556 1.524 . S
C2560 H2572 0.956 . S
C2560 H2573 0.961 . S
C2560 H2574 0.961 . S
C2561 C2558 1.539 . S
C2561 H2575 0.958 . S
C2561 H2576 0.961 . S
C2561 H2577 0.960 . S
H2562 C2546 0.931 . S
H2563 C2551 0.929 . S
H2564 C2552 0.960 . S
H2565 C2552 0.962 . S
H2566 C2552 0.960 . S
H2567 C2553 0.961 . S
H2568 C2553 0.961 . S
H2569 C2553 0.961 . S
H2570 C2554 0.931 . S
H2571 C2559 0.930 . S
H2572 C2560 0.956 . S
H2573 C2560 0.961 . S
H2574 C2560 0.961 . S
H2575 C2561 0.958 . S
H2576 C2561 0.961 . S
H2577 C2561 0.960 . S
C2578 C2579 1.391 . S
C2578 C2580 1.394 . S
C2578 H2594 0.931 . S
C2579 C2578 1.391 . S
C2579 C2583 1.376 . S
C2580 C2578 1.394 . S
C2580 C2581 1.369 . S
C2580 C2584 1.531 . S
C2581 C2580 1.369 . S
C2581 C2582 1.410 . S
C2581 C2589 1.503 . S
C2582 C2581 1.410 . S
C2582 C2583 1.392 . S
C2582 C2585 1.511 . S
C2583 C2579 1.376 . S
C2583 C2582 1.392 . S
C2583 H2595 0.929 . S
C2584 C2580 1.531 . S
C2584 H2596 0.960 . S
C2584 H2597 0.962 . S
C2584 H2598 0.960 . S
C2585 C2582 1.511 . S
C2585 H2599 0.961 . S
C2585 H2600 0.961 . S
C2585 H2601 0.961 . S
C2586 C2587 1.370 . S
C2586 C2588 1.363 . S
C2586 H2602 0.931 . S
C2587 C2586 1.370 . S
C2587 C2591 1.408 . S
C2588 C2586 1.363 . S
C2588 C2589 1.370 . S
C2588 C2592 1.524 . S
C2589 C2581 1.503 . S
C2589 C2588 1.370 . S
C2589 C2590 1.403 . S
C2590 C2589 1.403 . S
C2590 C2591 1.404 . S
C2590 C2593 1.539 . S
C2591 C2587 1.408 . S
C2591 C2590 1.404 . S
C2591 H2603 0.930 . S
C2592 C2588 1.524 . S
C2592 H2604 0.956 . S
C2592 H2605 0.961 . S
C2592 H2606 0.961 . S
C2593 C2590 1.539 . S
C2593 H2607 0.958 . S
C2593 H2608 0.961 . S
C2593 H2609 0.960 . S
H2594 C2578 0.931 . S
H2595 C2583 0.929 . S
H2596 C2584 0.960 . S
H2597 C2584 0.962 . S
H2598 C2584 0.960 . S
H2599 C2585 0.961 . S
H2600 C2585 0.961 . S
H2601 C2585 0.961 . S
H2602 C2586 0.931 . S
H2603 C2591 0.930 . S
H2604 C2592 0.956 . S
H2605 C2592 0.961 . S
H2606 C2592 0.961 . S
H2607 C2593 0.958 . S
H2608 C2593 0.961 . S
H2609 C2593 0.960 . S
C2610 C2611 1.391 . S
C2610 C2612 1.394 . S
C2610 H2626 0.931 . S
C2611 C2610 1.391 . S
C2611 C2615 1.376 . S
C2612 C2610 1.394 . S
C2612 C2613 1.369 . S
C2612 C2616 1.531 . S
C2613 C2612 1.369 . S
C2613 C2614 1.410 . S
C2613 C2621 1.503 . S
C2614 C2613 1.410 . S
C2614 C2615 1.392 . S
C2614 C2617 1.511 . S
C2615 C2611 1.376 . S
C2615 C2614 1.392 . S
C2615 H2627 0.929 . S
C2616 C2612 1.531 . S
C2616 H2628 0.960 . S
C2616 H2629 0.962 . S
C2616 H2630 0.960 . S
C2617 C2614 1.511 . S
C2617 H2631 0.961 . S
C2617 H2632 0.961 . S
C2617 H2633 0.961 . S
C2618 C2619 1.370 . S
C2618 C2620 1.363 . S
C2618 H2634 0.931 . S
C2619 C2618 1.370 . S
C2619 C2623 1.408 . S
C2620 C2618 1.363 . S
C2620 C2621 1.370 . S
C2620 C2624 1.524 . S
C2621 C2613 1.503 . S
C2621 C2620 1.370 . S
C2621 C2622 1.403 . S
C2622 C2621 1.403 . S
C2622 C2623 1.404 . S
C2622 C2625 1.539 . S
C2623 C2619 1.408 . S
C2623 C2622 1.404 . S
C2623 H2635 0.930 . S
C2624 C2620 1.524 . S
C2624 H2636 0.956 . S
C2624 H2637 0.961 . S
C2624 H2638 0.961 . S
C2625 C2622 1.539 . S
C2625 H2639 0.958 . S
C2625 H2640 0.961 . S
C2625 H2641 0.960 . S
H2626 C2610 0.931 . S
H2627 C2615 0.929 . S
H2628 C2616 0.960 . S
H2629 C2616 0.962 . S
H2630 C2616 0.960 . S
H2631 C2617 0.961 . S
H2632 C2617 0.961 . S
H2633 C2617 0.961 . S
H2634 C2618 0.931 . S
H2635 C2623 0.930 . S
H2636 C2624 0.956 . S
H2637 C2624 0.961 . S
H2638 C2624 0.961 . S
H2639 C2625 0.958 . S
H2640 C2625 0.961 . S
H2641 C2625 0.960 . S
C2642 C2643 1.391 . S
C2642 C2644 1.394 . S
C2642 H2658 0.931 . S
C2643 C2642 1.391 . S
C2643 C2647 1.376 . S
C2644 C2642 1.394 . S
C2644 C2645 1.369 . S
C2644 C2648 1.531 . S
C2645 C2644 1.369 . S
C2645 C2646 1.410 . S
C2645 C2653 1.503 . S
C2646 C2645 1.410 . S
C2646 C2647 1.392 . S
C2646 C2649 1.511 . S
C2647 C2643 1.376 . S
C2647 C2646 1.392 . S
C2647 H2659 0.929 . S
C2648 C2644 1.531 . S
C2648 H2660 0.960 . S
C2648 H2661 0.962 . S
C2648 H2662 0.960 . S
C2649 C2646 1.511 . S
C2649 H2663 0.961 . S
C2649 H2664 0.961 . S
C2649 H2665 0.961 . S
C2650 C2651 1.370 . S
C2650 C2652 1.363 . S
C2650 H2666 0.931 . S
C2651 C2650 1.370 . S
C2651 C2655 1.408 . S
C2652 C2650 1.363 . S
C2652 C2653 1.370 . S
C2652 C2656 1.524 . S
C2653 C2645 1.503 . S
C2653 C2652 1.370 . S
C2653 C2654 1.403 . S
C2654 C2653 1.403 . S
C2654 C2655 1.404 . S
C2654 C2657 1.539 . S
C2655 C2651 1.408 . S
C2655 C2654 1.404 . S
C2655 H2667 0.930 . S
C2656 C2652 1.524 . S
C2656 H2668 0.956 . S
C2656 H2669 0.961 . S
C2656 H2670 0.961 . S
C2657 C2654 1.539 . S
C2657 H2671 0.958 . S
C2657 H2672 0.961 . S
C2657 H2673 0.960 . S
H2658 C2642 0.931 . S
H2659 C2647 0.929 . S
H2660 C2648 0.960 . S
H2661 C2648 0.962 . S
H2662 C2648 0.960 . S
H2663 C2649 0.961 . S
H2664 C2649 0.961 . S
H2665 C2649 0.961 . S
H2666 C2650 0.931 . S
H2667 C2655 0.930 . S
H2668 C2656 0.956 . S
H2669 C2656 0.961 . S
H2670 C2656 0.961 . S
H2671 C2657 0.958 . S
H2672 C2657 0.961 . S
H2673 C2657 0.960 . S
C2674 C2675 1.391 . S
C2674 C2676 1.394 . S
C2674 H2690 0.931 . S
C2675 C2674 1.391 . S
C2675 C2679 1.376 . S
C2676 C2674 1.394 . S
C2676 C2677 1.369 . S
C2676 C2680 1.531 . S
C2677 C2676 1.369 . S
C2677 C2678 1.410 . S
C2677 C2685 1.503 . S
C2678 C2677 1.410 . S
C2678 C2679 1.392 . S
C2678 C2681 1.511 . S
C2679 C2675 1.376 . S
C2679 C2678 1.392 . S
C2679 H2691 0.929 . S
C2680 C2676 1.531 . S
C2680 H2692 0.960 . S
C2680 H2693 0.962 . S
C2680 H2694 0.960 . S
C2681 C2678 1.511 . S
C2681 H2695 0.961 . S
C2681 H2696 0.961 . S
C2681 H2697 0.961 . S
C2682 C2683 1.370 . S
C2682 C2684 1.363 . S
C2682 H2698 0.931 . S
C2683 C2682 1.370 . S
C2683 C2687 1.408 . S
C2684 C2682 1.363 . S
C2684 C2685 1.370 . S
C2684 C2688 1.524 . S
C2685 C2677 1.503 . S
C2685 C2684 1.370 . S
C2685 C2686 1.403 . S
C2686 C2685 1.403 . S
C2686 C2687 1.404 . S
C2686 C2689 1.539 . S
C2687 C2683 1.408 . S
C2687 C2686 1.404 . S
C2687 H2699 0.930 . S
C2688 C2684 1.524 . S
C2688 H2700 0.956 . S
C2688 H2701 0.961 . S
C2688 H2702 0.961 . S
C2689 C2686 1.539 . S
C2689 H2703 0.958 . S
C2689 H2704 0.961 . S
C2689 H2705 0.960 . S
H2690 C2674 0.931 . S
H2691 C2679 0.929 . S
H2692 C2680 0.960 . S
H2693 C2680 0.962 . S
H2694 C2680 0.960 . S
H2695 C2681 0.961 . S
H2696 C2681 0.961 . S
H2697 C2681 0.961 . S
H2698 C2682 0.931 . S
H2699 C2687 0.930 . S
H2700 C2688 0.956 . S
H2701 C2688 0.961 . S
H2702 C2688 0.961 . S
H2703 C2689 0.958 . S
H2704 C2689 0.961 . S
H2705 C2689 0.960 . S
C2706 C2707 1.391 . S
C2706 C2708 1.394 . S
C2706 H2722 0.931 . S
C2707 C2706 1.391 . S
C2707 C2711 1.376 . S
C2708 C2706 1.394 . S
C2708 C2709 1.369 . S
C2708 C2712 1.531 . S
C2709 C2708 1.369 . S
C2709 C2710 1.410 . S
C2709 C2717 1.503 . S
C2710 C2709 1.410 . S
C2710 C2711 1.392 . S
C2710 C2713 1.511 . S
C2711 C2707 1.376 . S
C2711 C2710 1.392 . S
C2711 H2723 0.929 . S
C2712 C2708 1.531 . S
C2712 H2724 0.960 . S
C2712 H2725 0.962 . S
C2712 H2726 0.960 . S
C2713 C2710 1.511 . S
C2713 H2727 0.961 . S
C2713 H2728 0.961 . S
C2713 H2729 0.961 . S
C2714 C2715 1.370 . S
C2714 C2716 1.363 . S
C2714 H2730 0.931 . S
C2715 C2714 1.370 . S
C2715 C2719 1.408 . S
C2716 C2714 1.363 . S
C2716 C2717 1.370 . S
C2716 C2720 1.524 . S
C2717 C2709 1.503 . S
C2717 C2716 1.370 . S
C2717 C2718 1.403 . S
C2718 C2717 1.403 . S
C2718 C2719 1.404 . S
C2718 C2721 1.539 . S
C2719 C2715 1.408 . S
C2719 C2718 1.404 . S
C2719 H2731 0.930 . S
C2720 C2716 1.524 . S
C2720 H2732 0.956 . S
C2720 H2733 0.961 . S
C2720 H2734 0.961 . S
C2721 C2718 1.539 . S
C2721 H2735 0.958 . S
C2721 H2736 0.961 . S
C2721 H2737 0.960 . S
H2722 C2706 0.931 . S
H2723 C2711 0.929 . S
H2724 C2712 0.960 . S
H2725 C2712 0.962 . S
H2726 C2712 0.960 . S
H2727 C2713 0.961 . S
H2728 C2713 0.961 . S
H2729 C2713 0.961 . S
H2730 C2714 0.931 . S
H2731 C2719 0.930 . S
H2732 C2720 0.956 . S
H2733 C2720 0.961 . S
H2734 C2720 0.961 . S
H2735 C2721 0.958 . S
H2736 C2721 0.961 . S
H2737 C2721 0.960 . S
C2738 C2739 1.391 . S
C2738 C2740 1.394 . S
C2738 H2754 0.931 . S
C2739 C2738 1.391 . S
C2739 C2743 1.376 . S
C2740 C2738 1.394 . S
C2740 C2741 1.369 . S
C2740 C2744 1.531 . S
C2741 C2740 1.369 . S
C2741 C2742 1.410 . S
C2741 C2749 1.503 . S
C2742 C2741 1.410 . S
C2742 C2743 1.392 . S
C2742 C2745 1.511 . S
C2743 C2739 1.376 . S
C2743 C2742 1.392 . S
C2743 H2755 0.929 . S
C2744 C2740 1.531 . S
C2744 H2756 0.960 . S
C2744 H2757 0.962 . S
C2744 H2758 0.960 . S
C2745 C2742 1.511 . S
C2745 H2759 0.961 . S
C2745 H2760 0.961 . S
C2745 H2761 0.961 . S
C2746 C2747 1.370 . S
C2746 C2748 1.363 . S
C2746 H2762 0.931 . S
C2747 C2746 1.370 . S
C2747 C2751 1.408 . S
C2748 C2746 1.363 . S
C2748 C2749 1.370 . S
C2748 C2752 1.524 . S
C2749 C2741 1.503 . S
C2749 C2748 1.370 . S
C2749 C2750 1.403 . S
C2750 C2749 1.403 . S
C2750 C2751 1.404 . S
C2750 C2753 1.539 . S
C2751 C2747 1.408 . S
C2751 C2750 1.404 . S
C2751 H2763 0.930 . S
C2752 C2748 1.524 . S
C2752 H2764 0.956 . S
C2752 H2765 0.961 . S
C2752 H2766 0.961 . S
C2753 C2750 1.539 . S
C2753 H2767 0.958 . S
C2753 H2768 0.961 . S
C2753 H2769 0.960 . S
H2754 C2738 0.931 . S
H2755 C2743 0.929 . S
H2756 C2744 0.960 . S
H2757 C2744 0.962 . S
H2758 C2744 0.960 . S
H2759 C2745 0.961 . S
H2760 C2745 0.961 . S
H2761 C2745 0.961 . S
H2762 C2746 0.931 . S
H2763 C2751 0.930 . S
H2764 C2752 0.956 . S
H2765 C2752 0.961 . S
H2766 C2752 0.961 . S
H2767 C2753 0.958 . S
H2768 C2753 0.961 . S
H2769 C2753 0.960 . S
C2770 C2771 1.391 . S
C2770 C2772 1.394 . S
C2770 H2786 0.931 . S
C2771 C2770 1.391 . S
C2771 C2775 1.376 . S
C2772 C2770 1.394 . S
C2772 C2773 1.369 . S
C2772 C2776 1.531 . S
C2773 C2772 1.369 . S
C2773 C2774 1.410 . S
C2773 C2781 1.503 . S
C2774 C2773 1.410 . S
C2774 C2775 1.392 . S
C2774 C2777 1.511 . S
C2775 C2771 1.376 . S
C2775 C2774 1.392 . S
C2775 H2787 0.929 . S
C2776 C2772 1.531 . S
C2776 H2788 0.960 . S
C2776 H2789 0.962 . S
C2776 H2790 0.960 . S
C2777 C2774 1.511 . S
C2777 H2791 0.961 . S
C2777 H2792 0.961 . S
C2777 H2793 0.961 . S
C2778 C2779 1.370 . S
C2778 C2780 1.363 . S
C2778 H2794 0.931 . S
C2779 C2778 1.370 . S
C2779 C2783 1.408 . S
C2780 C2778 1.363 . S
C2780 C2781 1.370 . S
C2780 C2784 1.524 . S
C2781 C2773 1.503 . S
C2781 C2780 1.370 . S
C2781 C2782 1.403 . S
C2782 C2781 1.403 . S
C2782 C2783 1.404 . S
C2782 C2785 1.539 . S
C2783 C2779 1.408 . S
C2783 C2782 1.404 . S
C2783 H2795 0.930 . S
C2784 C2780 1.524 . S
C2784 H2796 0.956 . S
C2784 H2797 0.961 . S
C2784 H2798 0.961 . S
C2785 C2782 1.539 . S
C2785 H2799 0.958 . S
C2785 H2800 0.961 . S
C2785 H2801 0.960 . S
H2786 C2770 0.931 . S
H2787 C2775 0.929 . S
H2788 C2776 0.960 . S
H2789 C2776 0.962 . S
H2790 C2776 0.960 . S
H2791 C2777 0.961 . S
H2792 C2777 0.961 . S
H2793 C2777 0.961 . S
H2794 C2778 0.931 . S
H2795 C2783 0.930 . S
H2796 C2784 0.956 . S
H2797 C2784 0.961 . S
H2798 C2784 0.961 . S
H2799 C2785 0.958 . S
H2800 C2785 0.961 . S
H2801 C2785 0.960 . S
C2802 C2803 1.391 . S
C2802 C2804 1.394 . S
C2802 H2818 0.931 . S
C2803 C2802 1.391 . S
C2803 C2807 1.376 . S
C2804 C2802 1.394 . S
C2804 C2805 1.369 . S
C2804 C2808 1.531 . S
C2805 C2804 1.369 . S
C2805 C2806 1.410 . S
C2805 C2813 1.503 . S
C2806 C2805 1.410 . S
C2806 C2807 1.392 . S
C2806 C2809 1.511 . S
C2807 C2803 1.376 . S
C2807 C2806 1.392 . S
C2807 H2819 0.929 . S
C2808 C2804 1.531 . S
C2808 H2820 0.960 . S
C2808 H2821 0.962 . S
C2808 H2822 0.960 . S
C2809 C2806 1.511 . S
C2809 H2823 0.961 . S
C2809 H2824 0.961 . S
C2809 H2825 0.961 . S
C2810 C2811 1.370 . S
C2810 C2812 1.363 . S
C2810 H2826 0.931 . S
C2811 C2810 1.370 . S
C2811 C2815 1.408 . S
C2812 C2810 1.363 . S
C2812 C2813 1.370 . S
C2812 C2816 1.524 . S
C2813 C2805 1.503 . S
C2813 C2812 1.370 . S
C2813 C2814 1.403 . S
C2814 C2813 1.403 . S
C2814 C2815 1.404 . S
C2814 C2817 1.539 . S
C2815 C2811 1.408 . S
C2815 C2814 1.404 . S
C2815 H2827 0.930 . S
C2816 C2812 1.524 . S
C2816 H2828 0.956 . S
C2816 H2829 0.961 . S
C2816 H2830 0.961 . S
C2817 C2814 1.539 . S
C2817 H2831 0.958 . S
C2817 H2832 0.961 . S
C2817 H2833 0.960 . S
H2818 C2802 0.931 . S
H2819 C2807 0.929 . S
H2820 C2808 0.960 . S
H2821 C2808 0.962 . S
H2822 C2808 0.960 . S
H2823 C2809 0.961 . S
H2824 C2809 0.961 . S
H2825 C2809 0.961 . S
H2826 C2810 0.931 . S
H2827 C2815 0.930 . S
H2828 C2816 0.956 . S
H2829 C2816 0.961 . S
H2830 C2816 0.961 . S
H2831 C2817 0.958 . S
H2832 C2817 0.961 . S
H2833 C2817 0.960 . S
C2834 C2835 1.391 . S
C2834 C2836 1.394 . S
C2834 H2850 0.931 . S
C2835 C2834 1.391 . S
C2835 C2839 1.376 . S
C2836 C2834 1.394 . S
C2836 C2837 1.369 . S
C2836 C2840 1.531 . S
C2837 C2836 1.369 . S
C2837 C2838 1.410 . S
C2837 C2845 1.503 . S
C2838 C2837 1.410 . S
C2838 C2839 1.392 . S
C2838 C2841 1.511 . S
C2839 C2835 1.376 . S
C2839 C2838 1.392 . S
C2839 H2851 0.929 . S
C2840 C2836 1.531 . S
C2840 H2852 0.960 . S
C2840 H2853 0.962 . S
C2840 H2854 0.960 . S
C2841 C2838 1.511 . S
C2841 H2855 0.961 . S
C2841 H2856 0.961 . S
C2841 H2857 0.961 . S
C2842 C2843 1.370 . S
C2842 C2844 1.363 . S
C2842 H2858 0.931 . S
C2843 C2842 1.370 . S
C2843 C2847 1.408 . S
C2844 C2842 1.363 . S
C2844 C2845 1.370 . S
C2844 C2848 1.524 . S
C2845 C2837 1.503 . S
C2845 C2844 1.370 . S
C2845 C2846 1.403 . S
C2846 C2845 1.403 . S
C2846 C2847 1.404 . S
C2846 C2849 1.539 . S
C2847 C2843 1.408 . S
C2847 C2846 1.404 . S
C2847 H2859 0.930 . S
C2848 C2844 1.524 . S
C2848 H2860 0.956 . S
C2848 H2861 0.961 . S
C2848 H2862 0.961 . S
C2849 C2846 1.539 . S
C2849 H2863 0.958 . S
C2849 H2864 0.961 . S
C2849 H2865 0.960 . S
H2850 C2834 0.931 . S
H2851 C2839 0.929 . S
H2852 C2840 0.960 . S
H2853 C2840 0.962 . S
H2854 C2840 0.960 . S
H2855 C2841 0.961 . S
H2856 C2841 0.961 . S
H2857 C2841 0.961 . S
H2858 C2842 0.931 . S
H2859 C2847 0.930 . S
H2860 C2848 0.956 . S
H2861 C2848 0.961 . S
H2862 C2848 0.961 . S
H2863 C2849 0.958 . S
H2864 C2849 0.961 . S
H2865 C2849 0.960 . S
C2866 C2867 1.391 . S
C2866 C2868 1.394 . S
C2866 H2882 0.931 . S
C2867 C2866 1.391 . S
C2867 C2871 1.376 . S
C2868 C2866 1.394 . S
C2868 C2869 1.369 . S
C2868 C2872 1.531 . S
C2869 C2868 1.369 . S
C2869 C2870 1.410 . S
C2869 C2877 1.503 . S
C2870 C2869 1.410 . S
C2870 C2871 1.392 . S
C2870 C2873 1.511 . S
C2871 C2867 1.376 . S
C2871 C2870 1.392 . S
C2871 H2883 0.929 . S
C2872 C2868 1.531 . S
C2872 H2884 0.960 . S
C2872 H2885 0.962 . S
C2872 H2886 0.960 . S
C2873 C2870 1.511 . S
C2873 H2887 0.961 . S
C2873 H2888 0.961 . S
C2873 H2889 0.961 . S
C2874 C2875 1.370 . S
C2874 C2876 1.363 . S
C2874 H2890 0.931 . S
C2875 C2874 1.370 . S
C2875 C2879 1.408 . S
C2876 C2874 1.363 . S
C2876 C2877 1.370 . S
C2876 C2880 1.524 . S
C2877 C2869 1.503 . S
C2877 C2876 1.370 . S
C2877 C2878 1.403 . S
C2878 C2877 1.403 . S
C2878 C2879 1.404 . S
C2878 C2881 1.539 . S
C2879 C2875 1.408 . S
C2879 C2878 1.404 . S
C2879 H2891 0.930 . S
C2880 C2876 1.524 . S
C2880 H2892 0.956 . S
C2880 H2893 0.961 . S
C2880 H2894 0.961 . S
C2881 C2878 1.539 . S
C2881 H2895 0.958 . S
C2881 H2896 0.961 . S
C2881 H2897 0.960 . S
H2882 C2866 0.931 . S
H2883 C2871 0.929 . S
H2884 C2872 0.960 . S
H2885 C2872 0.962 . S
H2886 C2872 0.960 . S
H2887 C2873 0.961 . S
H2888 C2873 0.961 . S
H2889 C2873 0.961 . S
H2890 C2874 0.931 . S
H2891 C2879 0.930 . S
H2892 C2880 0.956 . S
H2893 C2880 0.961 . S
H2894 C2880 0.961 . S
H2895 C2881 0.958 . S
H2896 C2881 0.961 . S
H2897 C2881 0.960 . S
C2898 C2899 1.391 . S
C2898 C2900 1.394 . S
C2898 H2914 0.931 . S
C2899 C2898 1.391 . S
C2899 C2903 1.376 . S
C2900 C2898 1.394 . S
C2900 C2901 1.369 . S
C2900 C2904 1.531 . S
C2901 C2900 1.369 . S
C2901 C2902 1.410 . S
C2901 C2909 1.503 . S
C2902 C2901 1.410 . S
C2902 C2903 1.392 . S
C2902 C2905 1.511 . S
C2903 C2899 1.376 . S
C2903 C2902 1.392 . S
C2903 H2915 0.929 . S
C2904 C2900 1.531 . S
C2904 H2916 0.960 . S
C2904 H2917 0.962 . S
C2904 H2918 0.960 . S
C2905 C2902 1.511 . S
C2905 H2919 0.961 . S
C2905 H2920 0.961 . S
C2905 H2921 0.961 . S
C2906 C2907 1.370 . S
C2906 C2908 1.363 . S
C2906 H2922 0.931 . S
C2907 C2906 1.370 . S
C2907 C2911 1.408 . S
C2908 C2906 1.363 . S
C2908 C2909 1.370 . S
C2908 C2912 1.524 . S
C2909 C2901 1.503 . S
C2909 C2908 1.370 . S
C2909 C2910 1.403 . S
C2910 C2909 1.403 . S
C2910 C2911 1.404 . S
C2910 C2913 1.539 . S
C2911 C2907 1.408 . S
C2911 C2910 1.404 . S
C2911 H2923 0.930 . S
C2912 C2908 1.524 . S
C2912 H2924 0.956 . S
C2912 H2925 0.961 . S
C2912 H2926 0.961 . S
C2913 C2910 1.539 . S
C2913 H2927 0.958 . S
C2913 H2928 0.961 . S
C2913 H2929 0.960 . S
H2914 C2898 0.931 . S
H2915 C2903 0.929 . S
H2916 C2904 0.960 . S
H2917 C2904 0.962 . S
H2918 C2904 0.960 . S
H2919 C2905 0.961 . S
H2920 C2905 0.961 . S
H2921 C2905 0.961 . S
H2922 C2906 0.931 . S
H2923 C2911 0.930 . S
H2924 C2912 0.956 . S
H2925 C2912 0.961 . S
H2926 C2912 0.961 . S
H2927 C2913 0.958 . S
H2928 C2913 0.961 . S
H2929 C2913 0.960 . S
C2930 C2931 1.391 . S
C2930 C2932 1.394 . S
C2930 H2946 0.931 . S
C2931 C2930 1.391 . S
C2931 C2935 1.376 . S
C2932 C2930 1.394 . S
C2932 C2933 1.369 . S
C2932 C2936 1.531 . S
C2933 C2932 1.369 . S
C2933 C2934 1.410 . S
C2933 C2941 1.503 . S
C2934 C2933 1.410 . S
C2934 C2935 1.392 . S
C2934 C2937 1.511 1_565 S
C2935 C2931 1.376 . S
C2935 C2934 1.392 . S
C2935 H2947 0.929 1_565 S
C2936 C2932 1.531 . S
C2936 H2948 0.960 . S
C2936 H2949 0.962 . S
C2936 H2950 0.960 . S
C2937 C2934 1.511 1_545 S
C2937 H2951 0.961 . S
C2937 H2952 0.961 1_545 S
C2937 H2953 0.961 . S
C2938 C2939 1.370 . S
C2938 C2940 1.363 . S
C2938 H2954 0.931 . S
C2939 C2938 1.370 . S
C2939 C2943 1.408 . S
C2940 C2938 1.363 . S
C2940 C2941 1.370 . S
C2940 C2944 1.524 . S
C2941 C2933 1.503 . S
C2941 C2940 1.370 . S
C2941 C2942 1.403 . S
C2942 C2941 1.403 . S
C2942 C2943 1.404 . S
C2942 C2945 1.539 . S
C2943 C2939 1.408 . S
C2943 C2942 1.404 . S
C2943 H2955 0.930 . S
C2944 C2940 1.524 . S
C2944 H2956 0.956 . S
C2944 H2957 0.961 . S
C2944 H2958 0.961 . S
C2945 C2942 1.539 . S
C2945 H2959 0.958 . S
C2945 H2960 0.961 . S
C2945 H2961 0.960 . S
H2946 C2930 0.931 . S
H2947 C2935 0.929 1_545 S
H2948 C2936 0.960 . S
H2949 C2936 0.962 . S
H2950 C2936 0.960 . S
H2951 C2937 0.961 . S
H2952 C2937 0.961 1_565 S
H2953 C2937 0.961 . S
H2954 C2938 0.931 . S
H2955 C2943 0.930 . S
H2956 C2944 0.956 . S
H2957 C2944 0.961 . S
H2958 C2944 0.961 . S
H2959 C2945 0.958 . S
H2960 C2945 0.961 . S
H2961 C2945 0.960 . S
C2962 C2963 1.391 . S
C2962 C2964 1.394 . S
C2962 H2978 0.931 . S
C2963 C2962 1.391 . S
C2963 C2967 1.376 . S
C2964 C2962 1.394 . S
C2964 C2965 1.369 . S
C2964 C2968 1.531 . S
C2965 C2964 1.369 . S
C2965 C2966 1.410 . S
C2965 C2973 1.503 . S
C2966 C2965 1.410 . S
C2966 C2967 1.392 . S
C2966 C2969 1.511 . S
C2967 C2963 1.376 . S
C2967 C2966 1.392 . S
C2967 H2979 0.929 . S
C2968 C2964 1.531 . S
C2968 H2980 0.960 . S
C2968 H2981 0.962 . S
C2968 H2982 0.960 . S
C2969 C2966 1.511 . S
C2969 H2983 0.961 . S
C2969 H2984 0.961 . S
C2969 H2985 0.961 . S
C2970 C2971 1.370 . S
C2970 C2972 1.363 . S
C2970 H2986 0.931 . S
C2971 C2970 1.370 . S
C2971 C2975 1.408 . S
C2972 C2970 1.363 . S
C2972 C2973 1.370 . S
C2972 C2976 1.524 . S
C2973 C2965 1.503 . S
C2973 C2972 1.370 . S
C2973 C2974 1.403 . S
C2974 C2973 1.403 . S
C2974 C2975 1.404 . S
C2974 C2977 1.575 . S
C2975 C2971 1.408 . S
C2975 C2974 1.404 . S
C2975 H2987 0.930 1_455 S
C2976 C2972 1.524 . S
C2976 H2988 0.956 . S
C2976 H2989 0.961 . S
C2976 H2990 0.961 . S
C2977 C2974 1.575 . S
C2977 H2991 0.962 . S
C2977 H2992 0.933 1_455 S
C2977 H2993 0.949 . S
H2978 C2962 0.931 . S
H2979 C2967 0.929 . S
H2980 C2968 0.960 . S
H2981 C2968 0.962 . S
H2982 C2968 0.960 . S
H2983 C2969 0.961 . S
H2984 C2969 0.961 . S
H2985 C2969 0.961 . S
H2986 C2970 0.931 . S
H2987 C2975 0.930 1_655 S
H2988 C2976 0.956 . S
H2989 C2976 0.961 . S
H2990 C2976 0.961 . S
H2991 C2977 0.962 . S
H2992 C2977 0.933 1_655 S
H2993 C2977 0.949 . S
C2994 C2995 1.391 . S
C2994 C2996 1.394 . S
C2994 H3010 0.931 . S
C2995 C2994 1.391 . S
C2995 C2999 1.376 . S
C2996 C2994 1.394 . S
C2996 C2997 1.369 . S
C2996 C3000 1.531 . S
C2997 C2996 1.369 . S
C2997 C2998 1.410 . S
C2997 C3005 1.503 . S
C2998 C2997 1.410 . S
C2998 C2999 1.392 . S
C2998 C3001 1.511 . S
C2999 C2995 1.376 . S
C2999 C2998 1.392 . S
C2999 H3011 0.929 . S
C3000 C2996 1.531 . S
C3000 H3012 0.960 . S
C3000 H3013 0.962 . S
C3000 H3014 0.960 . S
C3001 C2998 1.511 . S
C3001 H3015 0.961 . S
C3001 H3016 0.961 . S
C3001 H3017 0.961 . S
C3002 C3003 1.370 . S
C3002 C3004 1.363 . S
C3002 H3018 0.931 . S
C3003 C3002 1.370 . S
C3003 C3007 1.408 . S
C3004 C3002 1.363 . S
C3004 C3005 1.370 . S
C3004 C3008 1.524 . S
C3005 C2997 1.503 . S
C3005 C3004 1.370 . S
C3005 C3006 1.403 . S
C3006 C3005 1.403 . S
C3006 C3007 1.404 . S
C3006 C3009 1.539 . S
C3007 C3003 1.408 . S
C3007 C3006 1.404 . S
C3007 H3019 0.930 . S
C3008 C3004 1.524 . S
C3008 H3020 0.956 . S
C3008 H3021 0.961 . S
C3008 H3022 0.961 . S
C3009 C3006 1.539 . S
C3009 H3023 0.958 . S
C3009 H3024 0.961 . S
C3009 H3025 0.960 . S
H3010 C2994 0.931 . S
H3011 C2999 0.929 . S
H3012 C3000 0.960 . S
H3013 C3000 0.962 . S
H3014 C3000 0.960 . S
H3015 C3001 0.961 . S
H3016 C3001 0.961 . S
H3017 C3001 0.961 . S
H3018 C3002 0.931 . S
H3019 C3007 0.930 . S
H3020 C3008 0.956 . S
H3021 C3008 0.961 . S
H3022 C3008 0.961 . S
H3023 C3009 0.958 . S
H3024 C3009 0.961 . S
H3025 C3009 0.960 . S
C3026 C3027 1.391 . S
C3026 C3028 1.394 . S
C3026 H3042 0.931 . S
C3027 C3026 1.391 . S
C3027 C3031 1.376 . S
C3028 C3026 1.394 . S
C3028 C3029 1.369 . S
C3028 C3032 1.531 . S
C3029 C3028 1.369 . S
C3029 C3030 1.410 . S
C3029 C3037 1.503 . S
C3030 C3029 1.410 . S
C3030 C3031 1.392 . S
C3030 C3033 1.511 . S
C3031 C3027 1.376 . S
C3031 C3030 1.392 . S
C3031 H3043 0.929 . S
C3032 C3028 1.531 . S
C3032 H3044 0.960 . S
C3032 H3045 0.962 . S
C3032 H3046 0.960 . S
C3033 C3030 1.511 . S
C3033 H3047 0.961 . S
C3033 H3048 0.961 . S
C3033 H3049 0.961 . S
C3034 C3035 1.370 . S
C3034 C3036 1.363 . S
C3034 H3050 0.931 1_545 S
C3035 C3034 1.370 . S
C3035 C3039 1.408 . S
C3036 C3034 1.363 . S
C3036 C3037 1.370 . S
C3036 C3040 1.524 . S
C3037 C3029 1.503 . S
C3037 C3036 1.370 . S
C3037 C3038 1.403 . S
C3038 C3037 1.403 . S
C3038 C3039 1.404 . S
C3038 C3041 1.539 . S
C3039 C3035 1.408 . S
C3039 C3038 1.404 . S
C3039 H3051 0.930 . S
C3040 C3036 1.524 . S
C3040 H3052 0.956 . S
C3040 H3053 0.961 . S
C3040 H3054 0.961 1_545 S
C3041 C3038 1.539 . S
C3041 H3055 0.958 . S
C3041 H3056 0.961 . S
C3041 H3057 0.960 . S
H3042 C3026 0.931 . S
H3043 C3031 0.929 . S
H3044 C3032 0.960 . S
H3045 C3032 0.962 . S
H3046 C3032 0.960 . S
H3047 C3033 0.961 . S
H3048 C3033 0.961 . S
H3049 C3033 0.961 . S
H3050 C3034 0.931 1_565 S
H3051 C3039 0.930 . S
H3052 C3040 0.956 . S
H3053 C3040 0.961 . S
H3054 C3040 0.961 1_565 S
H3055 C3041 0.958 . S
H3056 C3041 0.961 . S
H3057 C3041 0.960 . S
C3058 C3059 1.391 . S
C3058 C3060 1.394 . S
C3058 H3074 0.931 . S
C3059 C3058 1.391 . S
C3059 C3063 1.376 . S
C3060 C3058 1.394 . S
C3060 C3061 1.369 . S
C3060 C3064 1.531 . S
C3061 C3060 1.369 . S
C3061 C3062 1.410 . S
C3061 C3069 1.503 . S
C3062 C3061 1.410 . S
C3062 C3063 1.392 . S
C3062 C3065 1.511 . S
C3063 C3059 1.376 . S
C3063 C3062 1.392 . S
C3063 H3075 0.929 . S
C3064 C3060 1.531 . S
C3064 H3076 0.960 . S
C3064 H3077 0.962 . S
C3064 H3078 0.960 . S
C3065 C3062 1.511 . S
C3065 H3079 0.961 . S
C3065 H3080 0.961 . S
C3065 H3081 0.981 . S
C3066 C3067 1.370 . S
C3066 C3068 1.363 . S
C3066 H3082 0.931 . S
C3067 C3066 1.370 . S
C3067 C3071 1.408 . S
C3068 C3066 1.363 . S
C3068 C3069 1.370 . S
C3068 C3072 1.524 . S
C3069 C3061 1.503 . S
C3069 C3068 1.370 . S
C3069 C3070 1.403 . S
C3070 C3069 1.403 . S
C3070 C3071 1.404 . S
C3070 C3073 1.539 . S
C3071 C3067 1.408 . S
C3071 C3070 1.404 . S
C3071 H3083 0.930 1_655 S
C3072 C3068 1.524 . S
C3072 H3084 0.956 . S
C3072 H3085 0.961 . S
C3072 H3086 0.961 . S
C3073 C3070 1.539 . S
C3073 H3087 0.958 . S
C3073 H3088 0.961 1_655 S
C3073 H3089 0.960 . S
H3074 C3058 0.931 . S
H3075 C3063 0.929 . S
H3076 C3064 0.960 . S
H3077 C3064 0.962 . S
H3078 C3064 0.960 . S
H3079 C3065 0.961 . S
H3080 C3065 0.961 . S
H3081 C3065 0.981 . S
H3082 C3066 0.931 . S
H3083 C3071 0.930 1_455 S
H3084 C3072 0.956 . S
H3085 C3072 0.961 . S
H3086 C3072 0.961 . S
H3087 C3073 0.958 . S
H3088 C3073 0.961 1_455 S
H3089 C3073 0.960 . S
C3090 C3091 1.397 . S
C3090 C3092 1.394 . S
C3090 H3106 0.931 . S
C3091 C3090 1.397 . S
C3091 C3095 1.395 . S
C3092 C3090 1.394 . S
C3092 C3093 1.369 . S
C3092 C3096 1.531 . S
C3093 C3092 1.369 . S
C3093 C3094 1.410 . S
C3093 C3101 1.503 . S
C3094 C3093 1.410 . S
C3094 C3095 1.392 . S
C3094 C3097 1.511 . S
C3095 C3091 1.395 . S
C3095 C3094 1.392 . S
C3095 H3107 0.925 1_455 S
C3096 C3092 1.531 . S
C3096 H3108 0.960 . S
C3096 H3109 0.962 . S
C3096 H3110 0.960 . S
C3097 C3094 1.511 . S
C3097 H3111 0.961 . S
C3097 H3112 0.961 . S
C3097 H3113 0.961 . S
C3098 C3099 1.370 . S
C3098 C3100 1.363 . S
C3098 H3114 0.931 . S
C3099 C3098 1.370 . S
C3099 C3103 1.408 . S
C3100 C3098 1.363 . S
C3100 C3101 1.370 . S
C3100 C3104 1.524 . S
C3101 C3093 1.503 . S
C3101 C3100 1.370 . S
C3101 C3102 1.403 . S
C3102 C3101 1.403 . S
C3102 C3103 1.404 . S
C3102 C3105 1.539 . S
C3103 C3099 1.408 . S
C3103 C3102 1.404 . S
C3103 H3115 0.930 . S
C3104 C3100 1.524 . S
C3104 H3116 0.956 . S
C3104 H3117 0.961 . S
C3104 H3118 0.961 . S
C3105 C3102 1.539 . S
C3105 H3119 0.958 . S
C3105 H3120 0.961 . S
C3105 H3121 0.960 . S
H3106 C3090 0.931 . S
H3107 C3095 0.925 1_655 S
H3108 C3096 0.960 . S
H3109 C3096 0.962 . S
H3110 C3096 0.960 . S
H3111 C3097 0.961 . S
H3112 C3097 0.961 . S
H3113 C3097 0.961 . S
H3114 C3098 0.931 . S
H3115 C3103 0.930 . S
H3116 C3104 0.956 . S
H3117 C3104 0.961 . S
H3118 C3104 0.961 . S
H3119 C3105 0.958 . S
H3120 C3105 0.961 . S
H3121 C3105 0.960 . S
C3122 C3123 1.391 . S
C3122 C3124 1.394 . S
C3122 H3138 0.931 . S
C3123 C3122 1.391 . S
C3123 C3127 1.376 . S
C3124 C3122 1.394 . S
C3124 C3125 1.369 . S
C3124 C3128 1.531 . S
C3125 C3124 1.369 . S
C3125 C3126 1.410 . S
C3125 C3133 1.503 . S
C3126 C3125 1.410 . S
C3126 C3127 1.392 . S
C3126 C3129 1.511 . S
C3127 C3123 1.376 . S
C3127 C3126 1.392 . S
C3127 H3139 0.929 . S
C3128 C3124 1.531 . S
C3128 H3140 0.960 . S
C3128 H3141 0.962 . S
C3128 H3142 0.960 . S
C3129 C3126 1.511 . S
C3129 H3143 0.961 . S
C3129 H3144 0.961 . S
C3129 H3145 0.961 . S
C3130 C3131 1.370 . S
C3130 C3132 1.363 . S
C3130 H3146 0.931 . S
C3131 C3130 1.370 . S
C3131 C3135 1.408 . S
C3132 C3130 1.363 . S
C3132 C3133 1.370 . S
C3132 C3136 1.524 . S
C3133 C3125 1.503 . S
C3133 C3132 1.370 . S
C3133 C3134 1.403 . S
C3134 C3133 1.403 . S
C3134 C3135 1.404 . S
C3134 C3137 1.539 . S
C3135 C3131 1.408 . S
C3135 C3134 1.404 . S
C3135 H3147 0.930 . S
C3136 C3132 1.524 . S
C3136 H3148 0.956 . S
C3136 H3149 0.961 . S
C3136 H3150 0.961 . S
C3137 C3134 1.539 . S
C3137 H3151 0.958 . S
C3137 H3152 0.961 . S
C3137 H3153 0.960 . S
H3138 C3122 0.931 . S
H3139 C3127 0.929 . S
H3140 C3128 0.960 . S
H3141 C3128 0.962 . S
H3142 C3128 0.960 . S
H3143 C3129 0.961 . S
H3144 C3129 0.961 . S
H3145 C3129 0.961 . S
H3146 C3130 0.931 . S
H3147 C3135 0.930 . S
H3148 C3136 0.956 . S
H3149 C3136 0.961 . S
H3150 C3136 0.961 . S
H3151 C3137 0.958 . S
H3152 C3137 0.961 . S
H3153 C3137 0.960 . S
C3154 C3155 1.391 . S
C3154 C3156 1.394 . S
C3154 H3170 0.931 . S
C3155 C3154 1.391 . S
C3155 C3159 1.376 . S
C3156 C3154 1.394 . S
C3156 C3157 1.369 . S
C3156 C3160 1.531 . S
C3157 C3156 1.369 . S
C3157 C3158 1.410 . S
C3157 C3165 1.503 . S
C3158 C3157 1.410 . S
C3158 C3159 1.392 . S
C3158 C3161 1.511 . S
C3159 C3155 1.376 . S
C3159 C3158 1.392 . S
C3159 H3171 0.929 . S
C3160 C3156 1.531 . S
C3160 H3172 0.960 . S
C3160 H3173 0.962 . S
C3160 H3174 0.960 . S
C3161 C3158 1.511 . S
C3161 H3175 0.961 . S
C3161 H3176 0.961 . S
C3161 H3177 0.961 . S
C3162 C3163 1.370 . S
C3162 C3164 1.363 . S
C3162 H3178 0.931 . S
C3163 C3162 1.370 . S
C3163 C3167 1.408 . S
C3164 C3162 1.363 . S
C3164 C3165 1.370 . S
C3164 C3168 1.524 . S
C3165 C3157 1.503 . S
C3165 C3164 1.370 . S
C3165 C3166 1.403 . S
C3166 C3165 1.403 . S
C3166 C3167 1.404 . S
C3166 C3169 1.539 . S
C3167 C3163 1.408 . S
C3167 C3166 1.404 . S
C3167 H3179 0.930 . S
C3168 C3164 1.524 . S
C3168 H3180 0.956 . S
C3168 H3181 0.961 . S
C3168 H3182 0.961 . S
C3169 C3166 1.539 . S
C3169 H3183 0.958 . S
C3169 H3184 0.961 . S
C3169 H3185 0.960 . S
H3170 C3154 0.931 . S
H3171 C3159 0.929 . S
H3172 C3160 0.960 . S
H3173 C3160 0.962 . S
H3174 C3160 0.960 . S
H3175 C3161 0.961 . S
H3176 C3161 0.961 . S
H3177 C3161 0.961 . S
H3178 C3162 0.931 . S
H3179 C3167 0.930 . S
H3180 C3168 0.956 . S
H3181 C3168 0.961 . S
H3182 C3168 0.961 . S
H3183 C3169 0.958 . S
H3184 C3169 0.961 . S
H3185 C3169 0.960 . S
C3186 C3187 1.391 . S
C3186 C3188 1.394 . S
C3186 H3202 0.931 . S
C3187 C3186 1.391 . S
C3187 C3191 1.376 . S
C3188 C3186 1.394 . S
C3188 C3189 1.369 . S
C3188 C3192 1.531 . S
C3189 C3188 1.369 . S
C3189 C3190 1.410 . S
C3189 C3197 1.503 . S
C3190 C3189 1.410 . S
C3190 C3191 1.392 . S
C3190 C3193 1.511 . S
C3191 C3187 1.376 . S
C3191 C3190 1.392 . S
C3191 H3203 0.929 . S
C3192 C3188 1.531 . S
C3192 H3204 0.960 . S
C3192 H3205 0.962 . S
C3192 H3206 0.960 . S
C3193 C3190 1.511 . S
C3193 H3207 0.961 . S
C3193 H3208 0.961 . S
C3193 H3209 0.961 . S
C3194 C3195 1.370 . S
C3194 C3196 1.363 . S
C3194 H3210 0.931 . S
C3195 C3194 1.370 . S
C3195 C3199 1.408 . S
C3196 C3194 1.363 . S
C3196 C3197 1.370 . S
C3196 C3200 1.524 . S
C3197 C3189 1.503 . S
C3197 C3196 1.370 . S
C3197 C3198 1.403 . S
C3198 C3197 1.403 . S
C3198 C3199 1.404 . S
C3198 C3201 1.539 . S
C3199 C3195 1.408 . S
C3199 C3198 1.404 . S
C3199 H3211 0.930 . S
C3200 C3196 1.524 . S
C3200 H3212 0.956 . S
C3200 H3213 0.961 . S
C3200 H3214 0.961 . S
C3201 C3198 1.539 . S
C3201 H3215 0.958 . S
C3201 H3216 0.961 . S
C3201 H3217 0.960 . S
H3202 C3186 0.931 . S
H3203 C3191 0.929 . S
H3204 C3192 0.960 . S
H3205 C3192 0.962 . S
H3206 C3192 0.960 . S
H3207 C3193 0.961 . S
H3208 C3193 0.961 . S
H3209 C3193 0.961 . S
H3210 C3194 0.931 . S
H3211 C3199 0.930 . S
H3212 C3200 0.956 . S
H3213 C3200 0.961 . S
H3214 C3200 0.961 . S
H3215 C3201 0.958 . S
H3216 C3201 0.961 . S
H3217 C3201 0.960 . S
C3218 C3219 1.391 . S
C3218 C3220 1.394 . S
C3218 H3234 0.931 . S
C3219 C3218 1.391 . S
C3219 C3223 1.376 . S
C3220 C3218 1.394 . S
C3220 C3221 1.369 . S
C3220 C3224 1.531 . S
C3221 C3220 1.369 . S
C3221 C3222 1.410 . S
C3221 C3229 1.503 . S
C3222 C3221 1.410 . S
C3222 C3223 1.392 . S
C3222 C3225 1.511 . S
C3223 C3219 1.376 . S
C3223 C3222 1.392 . S
C3223 H3235 0.929 . S
C3224 C3220 1.531 . S
C3224 H3236 0.960 . S
C3224 H3237 0.962 . S
C3224 H3238 0.960 . S
C3225 C3222 1.511 . S
C3225 H3239 0.961 . S
C3225 H3240 0.961 . S
C3225 H3241 0.961 . S
C3226 C3227 1.370 . S
C3226 C3228 1.363 . S
C3226 H3242 0.931 . S
C3227 C3226 1.370 . S
C3227 C3231 1.408 . S
C3228 C3226 1.363 . S
C3228 C3229 1.370 . S
C3228 C3232 1.524 . S
C3229 C3221 1.503 . S
C3229 C3228 1.370 . S
C3229 C3230 1.403 . S
C3230 C3229 1.403 . S
C3230 C3231 1.404 . S
C3230 C3233 1.539 . S
C3231 C3227 1.408 . S
C3231 C3230 1.404 . S
C3231 H3243 0.930 . S
C3232 C3228 1.524 . S
C3232 H3244 0.956 . S
C3232 H3245 0.961 . S
C3232 H3246 0.961 . S
C3233 C3230 1.539 . S
C3233 H3247 0.958 . S
C3233 H3248 0.961 . S
C3233 H3249 0.960 . S
H3234 C3218 0.931 . S
H3235 C3223 0.929 . S
H3236 C3224 0.960 . S
H3237 C3224 0.962 . S
H3238 C3224 0.960 . S
H3239 C3225 0.961 . S
H3240 C3225 0.961 . S
H3241 C3225 0.961 . S
H3242 C3226 0.931 . S
H3243 C3231 0.930 . S
H3244 C3232 0.956 . S
H3245 C3232 0.961 . S
H3246 C3232 0.961 . S
H3247 C3233 0.958 . S
H3248 C3233 0.961 . S
H3249 C3233 0.960 . S
C3250 C3251 1.391 . S
C3250 C3252 1.394 . S
C3250 H3266 0.931 . S
C3251 C3250 1.391 . S
C3251 C3255 1.376 . S
C3252 C3250 1.394 . S
C3252 C3253 1.369 . S
C3252 C3256 1.531 . S
C3253 C3252 1.369 . S
C3253 C3254 1.410 . S
C3253 C3261 1.503 . S
C3254 C3253 1.410 . S
C3254 C3255 1.392 . S
C3254 C3257 1.511 . S
C3255 C3251 1.376 . S
C3255 C3254 1.392 . S
C3255 H3267 0.929 . S
C3256 C3252 1.531 . S
C3256 H3268 0.960 . S
C3256 H3269 0.962 . S
C3256 H3270 0.960 . S
C3257 C3254 1.511 . S
C3257 H3271 0.961 . S
C3257 H3272 0.961 . S
C3257 H3273 0.961 . S
C3258 C3259 1.370 . S
C3258 C3260 1.363 . S
C3258 H3274 0.931 . S
C3259 C3258 1.370 . S
C3259 C3263 1.408 . S
C3260 C3258 1.363 . S
C3260 C3261 1.370 . S
C3260 C3264 1.524 . S
C3261 C3253 1.503 . S
C3261 C3260 1.370 . S
C3261 C3262 1.403 . S
C3262 C3261 1.403 . S
C3262 C3263 1.404 . S
C3262 C3265 1.539 . S
C3263 C3259 1.408 . S
C3263 C3262 1.404 . S
C3263 H3275 0.930 . S
C3264 C3260 1.524 . S
C3264 H3276 0.956 . S
C3264 H3277 0.961 . S
C3264 H3278 0.961 . S
C3265 C3262 1.539 . S
C3265 H3279 0.958 . S
C3265 H3280 0.961 . S
C3265 H3281 0.960 . S
H3266 C3250 0.931 . S
H3267 C3255 0.929 . S
H3268 C3256 0.960 . S
H3269 C3256 0.962 . S
H3270 C3256 0.960 . S
H3271 C3257 0.961 . S
H3272 C3257 0.961 . S
H3273 C3257 0.961 . S
H3274 C3258 0.931 . S
H3275 C3263 0.930 . S
H3276 C3264 0.956 . S
H3277 C3264 0.961 . S
H3278 C3264 0.961 . S
H3279 C3265 0.958 . S
H3280 C3265 0.961 . S
H3281 C3265 0.960 . S
C3282 C3283 1.391 . S
C3282 C3284 1.394 . S
C3282 H3298 0.931 . S
C3283 C3282 1.391 . S
C3283 C3287 1.376 . S
C3284 C3282 1.394 . S
C3284 C3285 1.369 . S
C3284 C3288 1.531 . S
C3285 C3284 1.369 . S
C3285 C3286 1.410 . S
C3285 C3293 1.503 . S
C3286 C3285 1.410 . S
C3286 C3287 1.392 . S
C3286 C3289 1.511 . S
C3287 C3283 1.376 . S
C3287 C3286 1.392 . S
C3287 H3299 0.929 . S
C3288 C3284 1.531 . S
C3288 H3300 0.960 . S
C3288 H3301 0.962 . S
C3288 H3302 0.960 . S
C3289 C3286 1.511 . S
C3289 H3303 0.961 . S
C3289 H3304 0.961 . S
C3289 H3305 0.961 . S
C3290 C3291 1.370 . S
C3290 C3292 1.363 . S
C3290 H3306 0.931 . S
C3291 C3290 1.370 . S
C3291 C3295 1.408 . S
C3292 C3290 1.363 . S
C3292 C3293 1.370 . S
C3292 C3296 1.524 . S
C3293 C3285 1.503 . S
C3293 C3292 1.370 . S
C3293 C3294 1.403 . S
C3294 C3293 1.403 . S
C3294 C3295 1.404 . S
C3294 C3297 1.539 . S
C3295 C3291 1.408 . S
C3295 C3294 1.404 . S
C3295 H3307 0.930 . S
C3296 C3292 1.524 . S
C3296 H3308 0.956 . S
C3296 H3309 0.961 . S
C3296 H3310 0.961 . S
C3297 C3294 1.539 . S
C3297 H3311 0.958 . S
C3297 H3312 0.961 . S
C3297 H3313 0.960 . S
H3298 C3282 0.931 . S
H3299 C3287 0.929 . S
H3300 C3288 0.960 . S
H3301 C3288 0.962 . S
H3302 C3288 0.960 . S
H3303 C3289 0.961 . S
H3304 C3289 0.961 . S
H3305 C3289 0.961 . S
H3306 C3290 0.931 . S
H3307 C3295 0.930 . S
H3308 C3296 0.956 . S
H3309 C3296 0.961 . S
H3310 C3296 0.961 . S
H3311 C3297 0.958 . S
H3312 C3297 0.961 . S
H3313 C3297 0.960 . S
C3314 C3315 1.391 . S
C3314 C3316 1.394 . S
C3314 H3330 0.931 . S
C3315 C3314 1.391 . S
C3315 C3319 1.376 . S
C3316 C3314 1.394 . S
C3316 C3317 1.369 . S
C3316 C3320 1.531 . S
C3317 C3316 1.369 . S
C3317 C3318 1.410 . S
C3317 C3325 1.503 . S
C3318 C3317 1.410 . S
C3318 C3319 1.392 . S
C3318 C3321 1.511 . S
C3319 C3315 1.376 . S
C3319 C3318 1.392 . S
C3319 H3331 0.929 . S
C3320 C3316 1.531 . S
C3320 H3332 0.960 . S
C3320 H3333 0.962 . S
C3320 H3334 0.960 . S
C3321 C3318 1.511 . S
C3321 H3335 0.961 . S
C3321 H3336 0.961 . S
C3321 H3337 0.961 . S
C3322 C3323 1.370 . S
C3322 C3324 1.363 . S
C3322 H3338 0.931 . S
C3323 C3322 1.370 . S
C3323 C3327 1.408 . S
C3324 C3322 1.363 . S
C3324 C3325 1.370 . S
C3324 C3328 1.524 . S
C3325 C3317 1.503 . S
C3325 C3324 1.370 . S
C3325 C3326 1.403 . S
C3326 C3325 1.403 . S
C3326 C3327 1.404 . S
C3326 C3329 1.539 . S
C3327 C3323 1.408 . S
C3327 C3326 1.404 . S
C3327 H3339 0.930 . S
C3328 C3324 1.524 . S
C3328 H3340 0.956 . S
C3328 H3341 0.961 . S
C3328 H3342 0.961 . S
C3329 C3326 1.539 . S
C3329 H3343 0.958 . S
C3329 H3344 0.961 . S
C3329 H3345 0.960 . S
H3330 C3314 0.931 . S
H3331 C3319 0.929 . S
H3332 C3320 0.960 . S
H3333 C3320 0.962 . S
H3334 C3320 0.960 . S
H3335 C3321 0.961 . S
H3336 C3321 0.961 . S
H3337 C3321 0.961 . S
H3338 C3322 0.931 . S
H3339 C3327 0.930 . S
H3340 C3328 0.956 . S
H3341 C3328 0.961 . S
H3342 C3328 0.961 . S
H3343 C3329 0.958 . S
H3344 C3329 0.961 . S
H3345 C3329 0.960 . S
C3346 C3347 1.391 . S
C3346 C3348 1.394 . S
C3346 H3362 0.931 . S
C3347 C3346 1.391 . S
C3347 C3351 1.376 . S
C3348 C3346 1.394 . S
C3348 C3349 1.369 . S
C3348 C3352 1.531 . S
C3349 C3348 1.369 . S
C3349 C3350 1.410 . S
C3349 C3357 1.503 . S
C3350 C3349 1.410 . S
C3350 C3351 1.392 . S
C3350 C3353 1.511 . S
C3351 C3347 1.376 . S
C3351 C3350 1.392 . S
C3351 H3363 0.929 . S
C3352 C3348 1.531 . S
C3352 H3364 0.960 . S
C3352 H3365 0.962 . S
C3352 H3366 0.960 . S
C3353 C3350 1.511 . S
C3353 H3367 0.961 . S
C3353 H3368 0.961 . S
C3353 H3369 0.961 . S
C3354 C3355 1.370 . S
C3354 C3356 1.363 . S
C3354 H3370 0.931 . S
C3355 C3354 1.370 . S
C3355 C3359 1.408 . S
C3356 C3354 1.363 . S
C3356 C3357 1.370 . S
C3356 C3360 1.524 . S
C3357 C3349 1.503 . S
C3357 C3356 1.370 . S
C3357 C3358 1.403 . S
C3358 C3357 1.403 . S
C3358 C3359 1.404 . S
C3358 C3361 1.539 . S
C3359 C3355 1.408 . S
C3359 C3358 1.404 . S
C3359 H3371 0.930 . S
C3360 C3356 1.524 . S
C3360 H3372 0.956 . S
C3360 H3373 0.961 . S
C3360 H3374 0.961 . S
C3361 C3358 1.539 . S
C3361 H3375 0.958 . S
C3361 H3376 0.961 . S
C3361 H3377 0.960 . S
H3362 C3346 0.931 . S
H3363 C3351 0.929 . S
H3364 C3352 0.960 . S
H3365 C3352 0.962 . S
H3366 C3352 0.960 . S
H3367 C3353 0.961 . S
H3368 C3353 0.961 . S
H3369 C3353 0.961 . S
H3370 C3354 0.931 . S
H3371 C3359 0.930 . S
H3372 C3360 0.956 . S
H3373 C3360 0.961 . S
H3374 C3360 0.961 . S
H3375 C3361 0.958 . S
H3376 C3361 0.961 . S
H3377 C3361 0.960 . S
C3378 C3379 1.391 . S
C3378 C3380 1.394 . S
C3378 H3394 0.931 . S
C3379 C3378 1.391 . S
C3379 C3383 1.376 . S
C3380 C3378 1.394 . S
C3380 C3381 1.369 . S
C3380 C3384 1.531 . S
C3381 C3380 1.369 . S
C3381 C3382 1.410 . S
C3381 C3389 1.503 . S
C3382 C3381 1.410 . S
C3382 C3383 1.392 . S
C3382 C3385 1.511 . S
C3383 C3379 1.376 . S
C3383 C3382 1.392 . S
C3383 H3395 0.929 . S
C3384 C3380 1.531 . S
C3384 H3396 0.960 . S
C3384 H3397 0.962 . S
C3384 H3398 0.960 . S
C3385 C3382 1.511 . S
C3385 H3399 0.961 . S
C3385 H3400 0.961 . S
C3385 H3401 0.961 . S
C3386 C3387 1.370 . S
C3386 C3388 1.363 . S
C3386 H3402 0.931 . S
C3387 C3386 1.370 . S
C3387 C3391 1.408 . S
C3388 C3386 1.363 . S
C3388 C3389 1.370 . S
C3388 C3392 1.524 . S
C3389 C3381 1.503 . S
C3389 C3388 1.370 . S
C3389 C3390 1.403 . S
C3390 C3389 1.403 . S
C3390 C3391 1.404 . S
C3390 C3393 1.539 . S
C3391 C3387 1.408 . S
C3391 C3390 1.404 . S
C3391 H3403 0.930 . S
C3392 C3388 1.524 . S
C3392 H3404 0.956 . S
C3392 H3405 0.961 . S
C3392 H3406 0.961 . S
C3393 C3390 1.539 . S
C3393 H3407 0.958 . S
C3393 H3408 0.961 . S
C3393 H3409 0.960 . S
H3394 C3378 0.931 . S
H3395 C3383 0.929 . S
H3396 C3384 0.960 . S
H3397 C3384 0.962 . S
H3398 C3384 0.960 . S
H3399 C3385 0.961 . S
H3400 C3385 0.961 . S
H3401 C3385 0.961 . S
H3402 C3386 0.931 . S
H3403 C3391 0.930 . S
H3404 C3392 0.956 . S
H3405 C3392 0.961 . S
H3406 C3392 0.961 . S
H3407 C3393 0.958 . S
H3408 C3393 0.961 . S
H3409 C3393 0.960 . S
C3410 C3411 1.391 . S
C3410 C3412 1.394 . S
C3410 H3426 0.931 . S
C3411 C3410 1.391 . S
C3411 C3415 1.376 . S
C3412 C3410 1.394 . S
C3412 C3413 1.369 . S
C3412 C3416 1.531 . S
C3413 C3412 1.369 . S
C3413 C3414 1.410 . S
C3413 C3421 1.503 . S
C3414 C3413 1.410 . S
C3414 C3415 1.392 . S
C3414 C3417 1.511 . S
C3415 C3411 1.376 . S
C3415 C3414 1.392 . S
C3415 H3427 0.929 . S
C3416 C3412 1.531 . S
C3416 H3428 0.960 . S
C3416 H3429 0.962 . S
C3416 H3430 0.960 . S
C3417 C3414 1.511 . S
C3417 H3431 0.961 . S
C3417 H3432 0.961 . S
C3417 H3433 0.961 . S
C3418 C3419 1.370 . S
C3418 C3420 1.363 . S
C3418 H3434 0.931 . S
C3419 C3418 1.370 . S
C3419 C3423 1.408 . S
C3420 C3418 1.363 . S
C3420 C3421 1.370 . S
C3420 C3424 1.524 . S
C3421 C3413 1.503 . S
C3421 C3420 1.370 . S
C3421 C3422 1.403 . S
C3422 C3421 1.403 . S
C3422 C3423 1.404 . S
C3422 C3425 1.539 . S
C3423 C3419 1.408 . S
C3423 C3422 1.404 . S
C3423 H3435 0.930 . S
C3424 C3420 1.524 . S
C3424 H3436 0.956 . S
C3424 H3437 0.961 . S
C3424 H3438 0.961 . S
C3425 C3422 1.539 . S
C3425 H3439 0.958 . S
C3425 H3440 0.961 . S
C3425 H3441 0.960 . S
H3426 C3410 0.931 . S
H3427 C3415 0.929 . S
H3428 C3416 0.960 . S
H3429 C3416 0.962 . S
H3430 C3416 0.960 . S
H3431 C3417 0.961 . S
H3432 C3417 0.961 . S
H3433 C3417 0.961 . S
H3434 C3418 0.931 . S
H3435 C3423 0.930 . S
H3436 C3424 0.956 . S
H3437 C3424 0.961 . S
H3438 C3424 0.961 . S
H3439 C3425 0.958 . S
H3440 C3425 0.961 . S
H3441 C3425 0.960 . S
C3442 C3443 1.391 . S
C3442 C3444 1.394 . S
C3442 H3458 0.931 . S
C3443 C3442 1.391 . S
C3443 C3447 1.376 . S
C3444 C3442 1.394 . S
C3444 C3445 1.369 . S
C3444 C3448 1.531 . S
C3445 C3444 1.369 . S
C3445 C3446 1.410 . S
C3445 C3453 1.503 . S
C3446 C3445 1.410 . S
C3446 C3447 1.392 . S
C3446 C3449 1.511 . S
C3447 C3443 1.376 . S
C3447 C3446 1.392 . S
C3447 H3459 0.929 . S
C3448 C3444 1.531 . S
C3448 H3460 0.960 . S
C3448 H3461 0.962 . S
C3448 H3462 0.960 . S
C3449 C3446 1.511 . S
C3449 H3463 0.961 . S
C3449 H3464 0.961 . S
C3449 H3465 0.961 . S
C3450 C3451 1.370 . S
C3450 C3452 1.363 . S
C3450 H3466 0.931 . S
C3451 C3450 1.370 . S
C3451 C3455 1.408 . S
C3452 C3450 1.363 . S
C3452 C3453 1.370 . S
C3452 C3456 1.524 . S
C3453 C3445 1.503 . S
C3453 C3452 1.370 . S
C3453 C3454 1.403 . S
C3454 C3453 1.403 . S
C3454 C3455 1.404 . S
C3454 C3457 1.539 . S
C3455 C3451 1.408 . S
C3455 C3454 1.404 . S
C3455 H3467 0.930 . S
C3456 C3452 1.524 . S
C3456 H3468 0.956 . S
C3456 H3469 0.961 . S
C3456 H3470 0.961 . S
C3457 C3454 1.539 . S
C3457 H3471 0.958 . S
C3457 H3472 0.961 . S
C3457 H3473 0.960 . S
H3458 C3442 0.931 . S
H3459 C3447 0.929 . S
H3460 C3448 0.960 . S
H3461 C3448 0.962 . S
H3462 C3448 0.960 . S
H3463 C3449 0.961 . S
H3464 C3449 0.961 . S
H3465 C3449 0.961 . S
H3466 C3450 0.931 . S
H3467 C3455 0.930 . S
H3468 C3456 0.956 . S
H3469 C3456 0.961 . S
H3470 C3456 0.961 . S
H3471 C3457 0.958 . S
H3472 C3457 0.961 . S
H3473 C3457 0.960 . S
C1459 C1233 1.802 . S
C1467 C18 1.843 . S
C1491 C99 1.816 . S
C1499 C1314 1.841 . S
C1523 C1395 1.801 . S
C1531 C180 1.846 . S
C1555 C504 1.805 . S
C1563 C261 1.841 . S
C1587 C342 1.795 . S
C1595 C585 1.848 . S
C1619 C423 1.864 . S
C1627 C666 1.819 . S
C1651 C990 1.798 . S
C1659 C747 1.847 . S
C1683 C828 1.800 . S
C1691 C1071 1.844 . S
C1715 C909 1.832 . S
C1723 C1152 1.830 . S
C1747 C619 0.722 . S
C1755 C59 0.759 . S
C1779 C700 0.832 . S
C1787 C140 0.805 . S
C1811 C538 0.656 . S
C1819 C221 0.780 . S
C1843 C302 0.740 . S
C1851 C1348 0.744 . S
C1875 C1429 0.758 . S
C1883 C383 0.760 . S
C1907 C464 0.864 . S
C1915 C1267 0.730 . S
C1939 C1105 0.811 . S
C1947 C545 0.810 . S
C1971 C1186 0.868 . S
C1979 C626 0.786 . S
C2003 C1024 0.824 . S
C2011 C707 0.807 . S
C2035 C376 0.872 . S
C2043 C788 0.770 . S
C2067 C869 0.793 . S
C2075 C457 0.718 . S
C2099 C950 0.720 . S
C2107 C295 0.805 . S
C2131 C133 0.820 . S
C2139 C1031 0.808 . S
C2163 C1112 0.743 . S
C2171 C214 0.806 . S
C2195 C52 0.690 . S
C2203 C1193 0.816 . S
C2227 C862 0.820 . S
C2235 C1274 0.799 . S
C2259 C1355 0.783 . S
C2267 C943 0.722 . S
C2291 C1436 0.727 . S
C2299 C781 0.806 . S
C2323 C374 3.144 . S
C2331 C37 2.945 . S
C2355 C455 3.151 . S
C2363 C118 2.944 1_545 S
C2387 C293 3.149 . S
C2395 C199 2.942 1_655 S
C2419 C131 3.156 . S
C2427 C280 2.955 . S
C2451 C361 2.925 1_565 S
C2459 C212 3.157 . S
C2483 C442 2.922 1_455 S
C2491 C50 3.154 . S
C2515 C860 3.155 . S
C2523 C523 2.951 . S
C2547 C604 2.963 . S
C2555 C941 3.157 . S
C2579 C779 3.157 . S
C2587 C685 2.958 . S
C2611 C766 2.940 . S
C2619 C617 3.154 . S
C2643 C698 3.153 . S
C2651 C847 2.960 . S
C2675 C928 2.921 . S
C2683 C536 3.155 . S
C2707 C1346 3.152 . S
C2715 C1009 2.946 . S
C2739 C1090 2.923 . S
C2747 C1427 3.155 . S
C2771 C1171 2.940 . S
C2779 C1265 3.154 . S
C2803 C1103 3.153 . S
C2811 C1252 2.960 . S
C2835 C1184 3.154 . S
C2843 C1333 2.946 . S
C2867 C1414 2.951 . S
C2875 C1022 3.155 . S
C2899 C34 1.547 . S
C2907 C907 1.529 . S
C2931 C745 1.494 . S
C2939 C115 1.546 . S
C2963 C196 1.533 . S
C2971 C826 1.522 . S
C2995 C277 1.581 . S
C3003 C1150 1.539 . S
C3027 C358 1.574 . S
C3035 C988 1.532 . S
C3059 C439 1.520 . S
C3067 C1069 1.512 . S
C3091 C520 1.564 1_455 S
C3099 C1393 1.542 . S
C3123 C601 1.540 . S
C3131 C1231 1.519 . S
C3155 C682 1.530 1_565 S
C3163 C1312 1.515 . S
C3187 C178 1.540 . S
C3195 C763 1.565 . S
C3219 C16 1.561 . S
C3227 C844 1.565 . S
C3251 C925 1.524 . S
C3259 C97 1.512 . S
C3283 C421 1.552 . S
C3291 C1006 1.562 . S
C3315 C1087 1.521 . S
C3323 C259 1.512 . S
C3347 C340 1.534 . S
C3355 C1168 1.555 . S
C3379 C1249 1.531 1_655 S
C3387 C664 1.512 . S
C3411 C1330 1.551 . S
C3419 C502 1.519 . S
C3443 C583 1.508 . S
C3451 C1411 1.556 1_545 S
