# Generated by pormake.
# Topology gsi, (4)-cn, num edge types: 1
# Building blocks:
#     Node 0, Type 0, BuildingBlock: KUFVIS_clean_sbu_0, # of connection points: 4
#     Node 1, Type 0, BuildingBlock: KUFVIS_clean_sbu_0, # of connection points: 4
#     Node 2, Type 0, BuildingBlock: KUFVIS_clean_sbu_0, # of connection points: 4
#     Node 3, Type 0, BuildingBlock: KUFVIS_clean_sbu_0, # of connection points: 4
#     Node 4, Type 0, BuildingBlock: KUFVIS_clean_sbu_0, # of connection points: 4
#     Node 5, Type 0, BuildingBlock: KUFVIS_clean_sbu_0, # of connection points: 4
#     Node 6, Type 0, BuildingBlock: KUFVIS_clean_sbu_0, # of connection points: 4
#     Node 7, Type 0, BuildingBlock: KUFVIS_clean_sbu_0, # of connection points: 4
#     Node 8, Type 0, BuildingBlock: KUFVIS_clean_sbu_0, # of connection points: 4
#     Node 9, Type 0, BuildingBlock: KUFVIS_clean_sbu_0, # of connection points: 4
#     Node 10, Type 0, BuildingBlock: KUFVIS_clean_sbu_0, # of connection points: 4
#     Node 11, Type 0, BuildingBlock: KUFVIS_clean_sbu_0, # of connection points: 4
#     Node 12, Type 0, BuildingBlock: KUFVIS_clean_sbu_0, # of connection points: 4
#     Node 13, Type 0, BuildingBlock: KUFVIS_clean_sbu_0, # of connection points: 4
#     Node 14, Type 0, BuildingBlock: KUFVIS_clean_sbu_0, # of connection points: 4
#     Node 15, Type 0, BuildingBlock: KUFVIS_clean_sbu_0, # of connection points: 4
#     Edge 16, Type (0, 0), BuildingBlock: XIVTED_clean_linker_0, # of connection points: 2
#     Edge 17, Type (0, 0), BuildingBlock: XIVTED_clean_linker_0, # of connection points: 2
#     Edge 18, Type (0, 0), BuildingBlock: XIVTED_clean_linker_0, # of connection points: 2
#     Edge 19, Type (0, 0), BuildingBlock: XIVTED_clean_linker_0, # of connection points: 2
#     Edge 20, Type (0, 0), BuildingBlock: XIVTED_clean_linker_0, # of connection points: 2
#     Edge 21, Type (0, 0), BuildingBlock: XIVTED_clean_linker_0, # of connection points: 2
#     Edge 22, Type (0, 0), BuildingBlock: XIVTED_clean_linker_0, # of connection points: 2
#     Edge 23, Type (0, 0), BuildingBlock: XIVTED_clean_linker_0, # of connection points: 2
#     Edge 24, Type (0, 0), BuildingBlock: XIVTED_clean_linker_0, # of connection points: 2
#     Edge 25, Type (0, 0), BuildingBlock: XIVTED_clean_linker_0, # of connection points: 2
#     Edge 26, Type (0, 0), BuildingBlock: XIVTED_clean_linker_0, # of connection points: 2
#     Edge 27, Type (0, 0), BuildingBlock: XIVTED_clean_linker_0, # of connection points: 2
#     Edge 28, Type (0, 0), BuildingBlock: XIVTED_clean_linker_0, # of connection points: 2
#     Edge 29, Type (0, 0), BuildingBlock: XIVTED_clean_linker_0, # of connection points: 2
#     Edge 30, Type (0, 0), BuildingBlock: XIVTED_clean_linker_0, # of connection points: 2
#     Edge 31, Type (0, 0), BuildingBlock: XIVTED_clean_linker_0, # of connection points: 2
#     Edge 32, Type (0, 0), BuildingBlock: XIVTED_clean_linker_0, # of connection points: 2
#     Edge 33, Type (0, 0), BuildingBlock: XIVTED_clean_linker_0, # of connection points: 2
#     Edge 34, Type (0, 0), BuildingBlock: XIVTED_clean_linker_0, # of connection points: 2
#     Edge 35, Type (0, 0), BuildingBlock: XIVTED_clean_linker_0, # of connection points: 2
#     Edge 36, Type (0, 0), BuildingBlock: XIVTED_clean_linker_0, # of connection points: 2
#     Edge 37, Type (0, 0), BuildingBlock: XIVTED_clean_linker_0, # of connection points: 2
#     Edge 38, Type (0, 0), BuildingBlock: XIVTED_clean_linker_0, # of connection points: 2
#     Edge 39, Type (0, 0), BuildingBlock: XIVTED_clean_linker_0, # of connection points: 2
#     Edge 40, Type (0, 0), BuildingBlock: XIVTED_clean_linker_0, # of connection points: 2
#     Edge 41, Type (0, 0), BuildingBlock: XIVTED_clean_linker_0, # of connection points: 2
#     Edge 42, Type (0, 0), BuildingBlock: XIVTED_clean_linker_0, # of connection points: 2
#     Edge 43, Type (0, 0), BuildingBlock: XIVTED_clean_linker_0, # of connection points: 2
#     Edge 44, Type (0, 0), BuildingBlock: XIVTED_clean_linker_0, # of connection points: 2
#     Edge 45, Type (0, 0), BuildingBlock: XIVTED_clean_linker_0, # of connection points: 2
#     Edge 46, Type (0, 0), BuildingBlock: XIVTED_clean_linker_0, # of connection points: 2
#     Edge 47, Type (0, 0), BuildingBlock: XIVTED_clean_linker_0, # of connection points: 2
# Relax obj value: 0.113
# Max RMSD: 0.169
# Mean RMSD: 0.121
data_MOF--net-gsi--node1-KUFVIS_clean_sbu_0--edge1-XIVTED_clean_linker_0
_symmetry_space_group_name_H-M    P1
_symmetry_Int_Tables_number       1
_symmetry_cell_setting            triclinic
loop_
_symmetry_equiv_pos_as_xyz
'x, y, z'
_cell_length_a     42.593482
_cell_length_b     41.173972
_cell_length_c     41.261716
_cell_angle_alpha  92.398273
_cell_angle_beta   91.797368
_cell_angle_gamma 96.527853
loop_
_atom_site_label
_atom_site_type_symbol
_atom_site_fract_x
_atom_site_fract_y
_atom_site_fract_z
_atom_type_partial_charge
Mn0 Mn 0.15888 0.16008 0.13809 0.0
Mn1 Mn 0.1521 0.16949 0.21897 0.0
C2 C 0.18709 0.20466 0.16709 0.0
C3 C 0.1843 0.1395 0.09318 0.0
C4 C 0.10051 0.18204 0.17023 0.0
O5 O 0.14126 0.1139 0.15163 0.0
O6 O 0.14481 0.12237 0.20623 0.0
C7 C 0.20871 0.13896 0.23898 0.0
N8 N 0.19144 0.16481 0.24059 0.0
C9 C 0.23188 0.19697 0.27373 0.0
C10 C 0.25029 0.17083 0.27211 0.0
C11 C 0.23857 0.14163 0.25486 0.0
C12 C 0.2025 0.19302 0.25715 0.0
H13 H 0.20006 0.11679 0.22509 0.0
C14 C 0.13974 0.1037 0.18059 0.0
O15 O 0.15553 0.14694 0.0907 0.0
O16 O 0.19772 0.14263 0.12196 0.0
N17 N 0.15898 0.21428 0.23448 0.0
C18 C 0.14036 0.23868 0.23007 0.0
C19 C 0.14846 0.2693 0.24625 0.0
C20 C 0.17554 0.27452 0.26688 0.0
C21 C 0.19432 0.24908 0.27101 0.0
C22 C 0.18485 0.21893 0.25461 0.0
H23 H 0.11936 0.23489 0.21449 0.0
O24 O 0.18155 0.20595 0.13609 0.0
O25 O 0.17533 0.17794 0.17966 0.0
O26 O 0.11621 0.17835 0.14471 0.0
O27 O 0.11088 0.17612 0.19852 0.0
C28 C 0.22273 0.25285 0.28971 0.0
C29 C 0.24213 0.22736 0.2898 0.0
H30 H 0.27369 0.17307 0.28346 0.0
H31 H 0.25272 0.12143 0.2534 0.0
H32 H 0.13386 0.28883 0.24281 0.0
H33 H 0.18198 0.2983 0.27902 0.0
H34 H 0.23066 0.27583 0.30277 0.0
H35 H 0.26531 0.23187 0.30145 0.0
Mn36 Mn 0.85923 0.34314 0.15635 0.0
Mn37 Mn 0.87234 0.33488 0.23645 0.0
C38 C 0.83126 0.30085 0.18306 0.0
C39 C 0.83113 0.36369 0.11345 0.0
C40 C 0.91808 0.31675 0.18556 0.0
O41 O 0.8798 0.38895 0.17237 0.0
O42 O 0.88382 0.38105 0.22615 0.0
C43 C 0.82164 0.37312 0.25812 0.0
N44 N 0.83605 0.34527 0.25887 0.0
C45 C 0.79519 0.31911 0.29091 0.0
C46 C 0.77959 0.3473 0.28991 0.0
C47 C 0.79301 0.37451 0.27372 0.0
C48 C 0.82331 0.31893 0.27436 0.0
H49 H 0.83143 0.39375 0.2449 0.0
C50 C 0.88634 0.39929 0.20183 0.0
O51 O 0.8592 0.35496 0.10975 0.0
O52 O 0.82012 0.36192 0.14233 0.0
N53 N 0.86169 0.29126 0.25003 0.0
C54 C 0.87672 0.26422 0.24411 0.0
C55 C 0.86657 0.23505 0.25907 0.0
C56 C 0.84118 0.234 0.28004 0.0
C57 C 0.82607 0.2621 0.28567 0.0
C58 C 0.83747 0.2906 0.27043 0.0
H59 H 0.89638 0.26487 0.22821 0.0
O60 O 0.8344 0.29815 0.15191 0.0
O61 O 0.84546 0.32736 0.19714 0.0
O62 O 0.90139 0.32298 0.16077 0.0
O63 O 0.9101 0.32237 0.21468 0.0
C64 C 0.79941 0.26264 0.30484 0.0
C65 C 0.78317 0.29059 0.30619 0.0
H66 H 0.7569 0.34809 0.30072 0.0
H67 H 0.781 0.39627 0.27276 0.0
H68 H 0.87828 0.21342 0.25443 0.0
H69 H 0.83314 0.21135 0.29123 0.0
H70 H 0.79025 0.24112 0.31727 0.0
H71 H 0.76099 0.28944 0.31827 0.0
Mn72 Mn 0.16763 0.87258 0.34816 0.0
Mn73 Mn 0.16594 0.79462 0.37246 0.0
C74 C 0.20376 0.83907 0.32919 0.0
C75 C 0.15294 0.91208 0.31294 0.0
C76 C 0.19253 0.85376 0.41477 0.0
O77 O 0.12292 0.86321 0.3653 0.0
O78 O 0.12467 0.81083 0.37885 0.0
C79 C 0.11962 0.76158 0.32325 0.0
N80 N 0.14873 0.76429 0.33842 0.0
C81 C 0.16253 0.71702 0.30821 0.0
C82 C 0.13264 0.71362 0.29238 0.0
C83 C 0.11115 0.73608 0.29985 0.0
C84 C 0.16965 0.74292 0.3313 0.0
H85 H 0.10298 0.77871 0.32901 0.0
C86 C 0.11021 0.83617 0.37587 0.0
O87 O 0.16338 0.91974 0.34245 0.0
O88 O 0.14959 0.88119 0.30415 0.0
N89 N 0.20441 0.77539 0.36719 0.0
C90 C 0.23302 0.78348 0.38292 0.0
C91 C 0.25761 0.76416 0.37719 0.0
C92 C 0.25236 0.73649 0.35578 0.0
C93 C 0.22265 0.72849 0.34012 0.0
C94 C 0.19908 0.74867 0.34672 0.0
H95 H 0.23708 0.80457 0.39959 0.0
O96 O 0.21002 0.87065 0.32908 0.0
O97 O 0.17671 0.8279 0.34044 0.0
O98 O 0.18818 0.87535 0.3943 0.0
O99 O 0.18441 0.82324 0.40922 0.0
C100 C 0.21569 0.70167 0.3177 0.0
C101 C 0.18571 0.69603 0.30164 0.0
H102 H 0.12603 0.69402 0.27428 0.0
H103 H 0.08808 0.73369 0.28766 0.0
H104 H 0.28052 0.77052 0.38931 0.0
H105 H 0.27133 0.72167 0.35135 0.0
H106 H 0.23341 0.68555 0.31222 0.0
H107 H 0.18084 0.6757 0.28401 0.0
Mn108 Mn 0.84729 0.66247 0.3594 0.0
Mn109 Mn 0.8596 0.6784 0.28054 0.0
C110 C 0.82515 0.70479 0.33574 0.0
C111 C 0.81856 0.63725 0.40102 0.0
C112 C 0.90703 0.70187 0.3348 0.0
O113 O 0.86232 0.61982 0.34158 0.0
O114 O 0.87171 0.63468 0.29047 0.0
C115 C 0.81033 0.62764 0.25218 0.0
N116 N 0.82338 0.65945 0.25498 0.0
C117 C 0.78548 0.67529 0.21593 0.0
C118 C 0.77177 0.64266 0.21248 0.0
C119 C 0.78416 0.61877 0.23081 0.0
C120 C 0.81134 0.68271 0.23782 0.0
H121 H 0.8198 0.60916 0.26613 0.0
C122 C 0.87158 0.61418 0.3129 0.0
O123 O 0.84824 0.64834 0.40516 0.0
O124 O 0.80614 0.63887 0.37209 0.0
N125 N 0.84898 0.71954 0.26615 0.0
C126 C 0.86462 0.75 0.27261 0.0
C127 C 0.85516 0.77668 0.25623 0.0
C128 C 0.83009 0.77173 0.23298 0.0
C129 C 0.81474 0.7401 0.22628 0.0
C130 C 0.82526 0.71443 0.24332 0.0
H131 H 0.88406 0.75397 0.29025 0.0
O132 O 0.82953 0.70487 0.36698 0.0
O133 O 0.83351 0.67988 0.31904 0.0
O134 O 0.89191 0.68752 0.35744 0.0
O135 O 0.89718 0.69973 0.30517 0.0
C136 C 0.78925 0.73308 0.20354 0.0
C137 C 0.77444 0.70075 0.19859 0.0
H138 H 0.75166 0.6357 0.19593 0.0
H139 H 0.77364 0.59356 0.22838 0.0
H140 H 0.86718 0.80101 0.2615 0.0
H141 H 0.82273 0.79241 0.22054 0.0
H142 H 0.78059 0.75243 0.19002 0.0
H143 H 0.75455 0.69574 0.1814 0.0
Mn144 Mn 0.36022 0.84151 0.65481 0.0
Mn145 Mn 0.37482 0.83116 0.73443 0.0
C146 C 0.33234 0.79899 0.68134 0.0
C147 C 0.33163 0.86261 0.61269 0.0
C148 C 0.41821 0.81167 0.68176 0.0
O149 O 0.38127 0.88686 0.671 0.0
O150 O 0.38956 0.87673 0.72371 0.0
C151 C 0.32781 0.8743 0.75605 0.0
N152 N 0.33977 0.84502 0.75699 0.0
C153 C 0.29606 0.8221 0.7875 0.0
C154 C 0.28306 0.85184 0.78633 0.0
C155 C 0.29916 0.87814 0.77083 0.0
C156 C 0.32436 0.81953 0.77179 0.0
H157 H 0.3395 0.89432 0.74331 0.0
C158 C 0.39047 0.89602 0.70015 0.0
O159 O 0.35963 0.85391 0.60846 0.0
O160 O 0.321 0.86061 0.64172 0.0
N161 N 0.36116 0.78852 0.74917 0.0
C162 C 0.37566 0.76078 0.74623 0.0
C163 C 0.36334 0.73255 0.76156 0.0
C164 C 0.33662 0.73333 0.78048 0.0
C165 C 0.32276 0.76247 0.78415 0.0
C166 C 0.33631 0.78991 0.76852 0.0
H167 H 0.39695 0.76045 0.73305 0.0
O168 O 0.33515 0.79674 0.65012 0.0
O169 O 0.34702 0.82513 0.69566 0.0
O170 O 0.40226 0.82127 0.65799 0.0
O171 O 0.41056 0.81466 0.71141 0.0
C172 C 0.29555 0.76514 0.80203 0.0
C173 C 0.28142 0.79444 0.80237 0.0
H174 H 0.26043 0.8546 0.79663 0.0
H175 H 0.28918 0.90111 0.76972 0.0
H176 H 0.3746 0.71035 0.75905 0.0
H177 H 0.32696 0.71146 0.79208 0.0
H178 H 0.28453 0.74437 0.8144 0.0
H179 H 0.25894 0.79508 0.81356 0.0
Mn180 Mn 0.86327 0.85989 0.8632 0.0
Mn181 Mn 0.83204 0.78804 0.89162 0.0
C182 C 0.84594 0.8154 0.82738 0.0
C183 C 0.86236 0.91212 0.84265 0.0
C184 C 0.90208 0.80908 0.89282 0.0
O185 O 0.85001 0.87428 0.9086 0.0
O186 O 0.83281 0.82405 0.92482 0.0
C187 C 0.76663 0.80418 0.89986 0.0
N188 N 0.787 0.78384 0.88793 0.0
C189 C 0.74478 0.74065 0.87631 0.0
C190 C 0.72322 0.76114 0.88824 0.0
C191 C 0.73415 0.79323 0.89963 0.0
C192 C 0.77655 0.75358 0.87545 0.0
H193 H 0.77517 0.82831 0.90992 0.0
C194 C 0.83859 0.85498 0.92987 0.0
O195 O 0.88735 0.90328 0.85684 0.0
O196 O 0.83707 0.89113 0.8417 0.0
N197 N 0.829 0.75001 0.86314 0.0
C198 C 0.85283 0.73379 0.85173 0.0
C199 C 0.84601 0.70139 0.83934 0.0
C200 C 0.81506 0.68556 0.84017 0.0
C201 C 0.79097 0.70266 0.85232 0.0
C202 C 0.79894 0.73537 0.86293 0.0
H203 H 0.87695 0.74529 0.85271 0.0
O204 O 0.86791 0.83797 0.81974 0.0
O205 O 0.83501 0.81893 0.85623 0.0
O206 O 0.89988 0.83735 0.88224 0.0
O207 O 0.8781 0.78843 0.89662 0.0
C208 C 0.75942 0.68849 0.85471 0.0
C209 C 0.73622 0.70764 0.86612 0.0
H210 H 0.6983 0.75242 0.88904 0.0
H211 H 0.7177 0.80913 0.90905 0.0
H212 H 0.86476 0.6883 0.83017 0.0
H213 H 0.81009 0.66023 0.83152 0.0
H214 H 0.7526 0.66308 0.8472 0.0
H215 H 0.71193 0.69671 0.86706 0.0
Mn216 Mn 0.15355 0.67592 0.86795 0.0
Mn217 Mn 0.18609 0.74963 0.89847 0.0
C218 C 0.17056 0.71728 0.83335 0.0
C219 C 0.1549 0.6225 0.84687 0.0
C220 C 0.11586 0.7293 0.89599 0.0
O221 O 0.16775 0.66485 0.91361 0.0
O222 O 0.1855 0.7162 0.93156 0.0
C223 C 0.25131 0.73327 0.91058 0.0
N224 N 0.2311 0.75279 0.89723 0.0
C225 C 0.27391 0.79382 0.8868 0.0
C226 C 0.29527 0.77416 0.9003 0.0
C227 C 0.28395 0.74352 0.9118 0.0
C228 C 0.24188 0.7815 0.88464 0.0
H229 H 0.24258 0.71033 0.92063 0.0
C230 C 0.17986 0.68553 0.93575 0.0
O231 O 0.12971 0.63175 0.85953 0.0
O232 O 0.17986 0.64384 0.84783 0.0
N233 N 0.18925 0.78508 0.8699 0.0
C234 C 0.16561 0.80053 0.85669 0.0
C235 C 0.17301 0.83107 0.84314 0.0
C236 C 0.20438 0.84607 0.84468 0.0
C237 C 0.22821 0.82996 0.85897 0.0
C238 C 0.21965 0.79883 0.87051 0.0
H239 H 0.14127 0.78981 0.85691 0.0
O240 O 0.14796 0.69448 0.82453 0.0
O241 O 0.18191 0.71599 0.86281 0.0
O242 O 0.11752 0.70003 0.88551 0.0
O243 O 0.14011 0.75018 0.90086 0.0
C244 C 0.26004 0.84377 0.86281 0.0
C245 C 0.28297 0.8255 0.8762 0.0
H246 H 0.32036 0.78244 0.90216 0.0
H247 H 0.30025 0.72825 0.92238 0.0
H248 H 0.15444 0.84347 0.83241 0.0
H249 H 0.20987 0.87004 0.83504 0.0
H250 H 0.26725 0.86821 0.85504 0.0
H251 H 0.30748 0.83604 0.87821 0.0
Mn252 Mn 0.85842 0.16072 0.66914 0.0
Mn253 Mn 0.90115 0.19402 0.73524 0.0
C254 C 0.83376 0.18355 0.71209 0.0
C255 C 0.83205 0.16297 0.61893 0.0
C256 C 0.8857 0.12084 0.72234 0.0
O257 O 0.90268 0.17083 0.65141 0.0
O258 O 0.92883 0.19237 0.69738 0.0
C259 C 0.91865 0.26141 0.71403 0.0
N260 N 0.9047 0.24078 0.73571 0.0
C261 C 0.89173 0.2861 0.76952 0.0
C262 C 0.90609 0.30778 0.74762 0.0
C263 C 0.91957 0.29537 0.71974 0.0
C264 C 0.89184 0.25249 0.76275 0.0
H265 H 0.92902 0.25208 0.69254 0.0
C266 C 0.92756 0.18455 0.6669 0.0
O267 O 0.84104 0.13586 0.62875 0.0
O268 O 0.84054 0.18919 0.63712 0.0
N269 N 0.87658 0.1979 0.77301 0.0
C270 C 0.86113 0.17377 0.79012 0.0
C271 C 0.84507 0.18215 0.81791 0.0
C272 C 0.84515 0.21519 0.82787 0.0
C273 C 0.86109 0.23958 0.80982 0.0
C274 C 0.87687 0.22977 0.78245 0.0
H275 H 0.86087 0.14833 0.78254 0.0
O276 O 0.81853 0.16062 0.69322 0.0
O277 O 0.86336 0.19142 0.7062 0.0
O278 O 0.8708 0.12246 0.69532 0.0
O279 O 0.89869 0.14611 0.73856 0.0
C280 C 0.86136 0.27326 0.81753 0.0
C281 C 0.87664 0.29651 0.79738 0.0
H282 H 0.9066 0.33399 0.75178 0.0
H283 H 0.93058 0.31194 0.70265 0.0
H284 H 0.83262 0.16319 0.8316 0.0
H285 H 0.83273 0.22156 0.84929 0.0
H286 H 0.84936 0.28156 0.83856 0.0
H287 H 0.87617 0.32234 0.80323 0.0
Mn288 Mn 0.17573 0.36908 0.66735 0.0
Mn289 Mn 0.1383 0.33464 0.7309 0.0
C290 C 0.20407 0.35211 0.71116 0.0
C291 C 0.20053 0.36685 0.61758 0.0
C292 C 0.14491 0.40748 0.72069 0.0
O293 O 0.13129 0.35343 0.64777 0.0
O294 O 0.1094 0.33055 0.69196 0.0
C295 C 0.1297 0.26538 0.70632 0.0
N296 N 0.14121 0.28855 0.72952 0.0
C297 C 0.16166 0.24797 0.76206 0.0
C298 C 0.14993 0.22371 0.73854 0.0
C299 C 0.13394 0.23247 0.71052 0.0
C300 C 0.15666 0.28037 0.75658 0.0
H301 H 0.11742 0.27193 0.68476 0.0
C302 C 0.10839 0.33761 0.66202 0.0
O303 O 0.18925 0.39312 0.62813 0.0
O304 O 0.19552 0.34126 0.63488 0.0
N305 N 0.16427 0.33628 0.76984 0.0
C306 C 0.17593 0.36282 0.78921 0.0
C307 C 0.19338 0.35832 0.81779 0.0
C308 C 0.19853 0.32662 0.82626 0.0
C309 C 0.18615 0.29968 0.80608 0.0
C310 C 0.16878 0.30564 0.77798 0.0
H311 H 0.17208 0.38726 0.78286 0.0
O312 O 0.21699 0.37473 0.69322 0.0
O313 O 0.17502 0.34097 0.70347 0.0
O314 O 0.15991 0.40631 0.69451 0.0
O315 O 0.13476 0.38204 0.73556 0.0
C316 C 0.1909 0.26719 0.81241 0.0
C317 C 0.17873 0.24137 0.79038 0.0
H318 H 0.15331 0.19832 0.7416 0.0
H319 H 0.12491 0.2139 0.69218 0.0
H320 H 0.20291 0.37926 0.83321 0.0
H321 H 0.21223 0.32328 0.84819 0.0
H322 H 0.20437 0.26186 0.83385 0.0
H323 H 0.18303 0.21657 0.79522 0.0
Mn324 Mn 0.65223 0.1744 0.37022 0.0
Mn325 Mn 0.68666 0.24707 0.40154 0.0
C326 C 0.67134 0.21541 0.33604 0.0
C327 C 0.65239 0.12077 0.34915 0.0
C328 C 0.616 0.22899 0.39815 0.0
O329 O 0.66521 0.16273 0.41614 0.0
O330 O 0.68514 0.21341 0.43435 0.0
C331 C 0.75128 0.22914 0.41381 0.0
N332 N 0.73161 0.2492 0.40046 0.0
C333 C 0.77519 0.28957 0.39066 0.0
C334 C 0.79602 0.26933 0.40414 0.0
C335 C 0.78403 0.23875 0.41533 0.0
C336 C 0.74301 0.27787 0.38819 0.0
H337 H 0.74202 0.20626 0.42366 0.0
C338 C 0.67812 0.18288 0.43836 0.0
O339 O 0.62729 0.13083 0.36126 0.0
O340 O 0.67788 0.1414 0.35062 0.0
N341 N 0.6907 0.28264 0.37316 0.0
C342 C 0.6675 0.2986 0.35982 0.0
C343 C 0.67553 0.32924 0.34669 0.0
C344 C 0.70708 0.34372 0.3487 0.0
C345 C 0.73048 0.32696 0.36292 0.0
C346 C 0.72127 0.29582 0.3741 0.0
H347 H 0.64301 0.28829 0.35978 0.0
O348 O 0.64822 0.19336 0.32674 0.0
O349 O 0.68189 0.21362 0.36572 0.0
O350 O 0.61667 0.19979 0.38696 0.0
O351 O 0.64089 0.24879 0.40392 0.0
C352 C 0.76248 0.34012 0.36702 0.0
C353 C 0.78492 0.32123 0.38037 0.0
H354 H 0.82119 0.27711 0.40624 0.0
H355 H 0.79992 0.22305 0.42592 0.0
H356 H 0.6573 0.34211 0.33596 0.0
H357 H 0.71304 0.36778 0.33941 0.0
H358 H 0.77021 0.36451 0.35942 0.0
H359 H 0.80956 0.33128 0.38259 0.0
Mn360 Mn 0.66071 0.65625 0.63978 0.0
Mn361 Mn 0.65127 0.67038 0.71976 0.0
C362 C 0.68886 0.70164 0.66749 0.0
C363 C 0.68688 0.63368 0.59647 0.0
C364 C 0.60194 0.68141 0.66829 0.0
O365 O 0.64169 0.61101 0.65514 0.0
O366 O 0.64234 0.62305 0.70917 0.0
C367 C 0.70601 0.63874 0.74302 0.0
N368 N 0.68957 0.66523 0.74306 0.0
C369 C 0.73014 0.69753 0.7759 0.0
C370 C 0.74778 0.67076 0.77574 0.0
C371 C 0.73555 0.64117 0.75949 0.0
C372 C 0.70113 0.69383 0.75864 0.0
H373 H 0.69699 0.61626 0.72978 0.0
C374 C 0.638 0.60279 0.68463 0.0
O375 O 0.65824 0.6412 0.59296 0.0
O376 O 0.69961 0.63744 0.62557 0.0
N377 N 0.65931 0.71564 0.73326 0.0
C378 C 0.64174 0.74049 0.72695 0.0
C379 C 0.65038 0.77159 0.74197 0.0
C380 C 0.67688 0.77679 0.76343 0.0
C381 C 0.69455 0.75085 0.76951 0.0
C382 C 0.68456 0.72027 0.75421 0.0
H383 H 0.62115 0.73667 0.71075 0.0
O384 O 0.68428 0.70149 0.63624 0.0
O385 O 0.67616 0.67586 0.68104 0.0
O386 O 0.61839 0.6758 0.64377 0.0
O387 O 0.61106 0.67742 0.69746 0.0
C388 C 0.72243 0.75446 0.78907 0.0
C389 C 0.74087 0.72825 0.79106 0.0
H390 H 0.77101 0.67279 0.7874 0.0
H391 H 0.74912 0.62048 0.7592 0.0
H392 H 0.63664 0.79149 0.73702 0.0
H393 H 0.68375 0.80091 0.77465 0.0
H394 H 0.73078 0.77779 0.80127 0.0
H395 H 0.76374 0.73245 0.80342 0.0
Mn396 Mn 0.66922 0.36915 0.84698 0.0
Mn397 Mn 0.66963 0.29306 0.87556 0.0
C398 C 0.70696 0.33614 0.83066 0.0
C399 C 0.65295 0.40633 0.80987 0.0
C400 C 0.69298 0.35482 0.91546 0.0
O401 O 0.6242 0.35867 0.86303 0.0
O402 O 0.62721 0.30734 0.87918 0.0
C403 C 0.62604 0.25474 0.82709 0.0
N404 N 0.65475 0.26004 0.84307 0.0
C405 C 0.67095 0.21076 0.81881 0.0
C406 C 0.64152 0.20471 0.80212 0.0
C407 C 0.61905 0.22691 0.80614 0.0
C408 C 0.67666 0.23903 0.83912 0.0
H409 H 0.60856 0.27153 0.83045 0.0
C410 C 0.61192 0.33176 0.87421 0.0
O411 O 0.66238 0.41538 0.83938 0.0
O412 O 0.6522 0.3754 0.80187 0.0
N413 N 0.70936 0.27583 0.87304 0.0
C414 C 0.73745 0.2867 0.88874 0.0
C415 C 0.76302 0.26814 0.88593 0.0
C416 C 0.75922 0.23835 0.86757 0.0
C417 C 0.73004 0.22763 0.85178 0.0
C418 C 0.70557 0.24736 0.85508 0.0
H419 H 0.7403 0.30932 0.90328 0.0
O420 O 0.71232 0.36775 0.82919 0.0
O421 O 0.67998 0.32479 0.8419 0.0
O422 O 0.68871 0.37503 0.89361 0.0
O423 O 0.68572 0.32406 0.91134 0.0
C424 C 0.72434 0.19827 0.83267 0.0
C425 C 0.69491 0.18997 0.81595 0.0
H426 H 0.63599 0.1832 0.78605 0.0
H427 H 0.59631 0.22244 0.79331 0.0
H428 H 0.7855 0.27661 0.89813 0.0
H429 H 0.77886 0.22395 0.86569 0.0
H430 H 0.74271 0.18228 0.83002 0.0
H431 H 0.6911 0.16774 0.80068 0.0
Mn432 Mn 0.34705 0.15957 0.85768 0.0
Mn433 Mn 0.35939 0.17645 0.77898 0.0
C434 C 0.32589 0.20299 0.83478 0.0
C435 C 0.31773 0.13463 0.89898 0.0
C436 C 0.40792 0.19662 0.83346 0.0
O437 O 0.36151 0.1168 0.83911 0.0
O438 O 0.36821 0.1311 0.7873 0.0
C439 C 0.30707 0.13016 0.74913 0.0
N440 N 0.32225 0.16106 0.75305 0.0
C441 C 0.28608 0.18126 0.71489 0.0
C442 C 0.27023 0.14956 0.71024 0.0
C443 C 0.28069 0.12394 0.72758 0.0
C444 C 0.31209 0.18599 0.73687 0.0
H445 H 0.31503 0.11047 0.76235 0.0
C446 C 0.36866 0.11062 0.80975 0.0
O447 O 0.34762 0.14476 0.90315 0.0
O448 O 0.30544 0.13674 0.87006 0.0
N449 N 0.35161 0.21922 0.76657 0.0
C450 C 0.36869 0.24863 0.77471 0.0
C451 C 0.361 0.27689 0.75983 0.0
C452 C 0.33613 0.2746 0.73638 0.0
C453 C 0.31916 0.24404 0.72806 0.0
C454 C 0.32793 0.21672 0.74368 0.0
H455 H 0.38792 0.25059 0.79258 0.0
O456 O 0.33017 0.20244 0.86598 0.0
O457 O 0.33378 0.17811 0.81774 0.0
O458 O 0.39192 0.18358 0.85615 0.0
O459 O 0.39832 0.19446 0.80374 0.0
C460 C 0.29365 0.23969 0.70514 0.0
C461 C 0.27694 0.20837 0.69877 0.0
H462 H 0.24992 0.14466 0.69359 0.0
H463 H 0.26849 0.09943 0.72427 0.0
H464 H 0.37421 0.30038 0.76641 0.0
H465 H 0.33014 0.29647 0.7251 0.0
H466 H 0.28634 0.26037 0.69267 0.0
H467 H 0.257 0.20545 0.68153 0.0
Mn468 Mn 0.36322 0.36111 0.36281 0.0
Mn469 Mn 0.3332 0.28843 0.39038 0.0
C470 C 0.34576 0.31709 0.32642 0.0
C471 C 0.36151 0.41363 0.34321 0.0
C472 C 0.40305 0.31059 0.39134 0.0
O473 O 0.35023 0.37455 0.40858 0.0
O474 O 0.33344 0.32392 0.42408 0.0
C475 C 0.26737 0.30289 0.39941 0.0
N476 N 0.28813 0.2833 0.38692 0.0
C477 C 0.24668 0.23938 0.37498 0.0
C478 C 0.22473 0.25911 0.38746 0.0
C479 C 0.23507 0.29119 0.39929 0.0
C480 C 0.27822 0.25306 0.37404 0.0
H481 H 0.2755 0.327 0.40982 0.0
C482 C 0.33894 0.35484 0.42957 0.0
O483 O 0.38677 0.40484 0.35692 0.0
O484 O 0.33642 0.39238 0.3422 0.0
N485 N 0.33076 0.25093 0.36125 0.0
C486 C 0.35488 0.23556 0.34924 0.0
C487 C 0.34863 0.20333 0.33622 0.0
C488 C 0.31796 0.18678 0.33701 0.0
C489 C 0.29357 0.20302 0.34981 0.0
C490 C 0.30095 0.23563 0.36102 0.0
H491 H 0.37881 0.24758 0.35022 0.0
O492 O 0.36754 0.33994 0.31892 0.0
O493 O 0.33533 0.31996 0.35554 0.0
O494 O 0.40033 0.33883 0.38096 0.0
O495 O 0.37937 0.28959 0.39521 0.0
C496 C 0.26229 0.18808 0.35222 0.0
C497 C 0.23874 0.20642 0.36427 0.0
H498 H 0.19995 0.2498 0.38834 0.0
H499 H 0.21832 0.3065 0.40915 0.0
H500 H 0.36761 0.1909 0.32656 0.0
H501 H 0.31344 0.16159 0.32785 0.0
H502 H 0.25592 0.16274 0.3442 0.0
H503 H 0.21464 0.19492 0.36523 0.0
Mn504 Mn 0.35622 0.66298 0.17088 0.0
Mn505 Mn 0.3988 0.6966 0.23691 0.0
C506 C 0.3316 0.6863 0.2136 0.0
C507 C 0.33048 0.6658 0.12043 0.0
C508 C 0.38314 0.62332 0.22443 0.0
O509 O 0.40069 0.6724 0.15343 0.0
O510 O 0.42667 0.69476 0.1992 0.0
C511 C 0.41604 0.76383 0.21516 0.0
N512 N 0.40198 0.74335 0.23691 0.0
C513 C 0.38741 0.78882 0.26943 0.0
C514 C 0.40183 0.81035 0.24743 0.0
C515 C 0.41619 0.79779 0.22018 0.0
C516 C 0.3883 0.75521 0.26336 0.0
H517 H 0.42702 0.75438 0.19412 0.0
C518 C 0.42553 0.68632 0.16885 0.0
O519 O 0.33872 0.63838 0.13032 0.0
O520 O 0.33924 0.69182 0.13878 0.0
N521 N 0.37392 0.70067 0.27446 0.0
C522 C 0.35882 0.67661 0.29192 0.0
C523 C 0.34224 0.68512 0.31931 0.0
C524 C 0.34138 0.71822 0.32848 0.0
C525 C 0.35695 0.74254 0.31008 0.0
C526 C 0.37339 0.73261 0.28321 0.0
H527 H 0.35925 0.65111 0.28493 0.0
O528 O 0.31613 0.66356 0.19473 0.0
O529 O 0.36124 0.69369 0.20773 0.0
O530 O 0.36807 0.62479 0.19746 0.0
O531 O 0.39639 0.64865 0.24043 0.0
C532 C 0.35623 0.77625 0.31695 0.0
C533 C 0.37146 0.79937 0.29666 0.0
H534 H 0.40175 0.83655 0.25105 0.0
H535 H 0.42726 0.81424 0.20302 0.0
H536 H 0.33011 0.6662 0.33329 0.0
H537 H 0.32857 0.7247 0.3496 0.0
H538 H 0.34359 0.78463 0.33749 0.0
H539 H 0.37032 0.8252 0.3019 0.0
Mn540 Mn 0.67459 0.86924 0.16641 0.0
Mn541 Mn 0.63757 0.8344 0.23003 0.0
C542 C 0.70317 0.85214 0.20996 0.0
C543 C 0.69927 0.86785 0.1165 0.0
C544 C 0.64427 0.90729 0.22054 0.0
O545 O 0.63018 0.85335 0.14689 0.0
O546 O 0.6083 0.83129 0.19143 0.0
C547 C 0.62813 0.76558 0.20411 0.0
N548 N 0.63997 0.78822 0.22768 0.0
C549 C 0.66003 0.74671 0.25926 0.0
C550 C 0.64795 0.72298 0.23536 0.0
C551 C 0.63198 0.73248 0.20764 0.0
C552 C 0.65542 0.77933 0.25444 0.0
H553 H 0.61587 0.77268 0.18277 0.0
C554 C 0.60717 0.83807 0.16143 0.0
O555 O 0.68769 0.89381 0.12741 0.0
O556 O 0.69465 0.84202 0.13353 0.0
N557 N 0.66373 0.83501 0.26873 0.0
C558 C 0.67559 0.86108 0.28862 0.0
C559 C 0.69295 0.85582 0.31704 0.0
C560 C 0.69775 0.82383 0.32485 0.0
C561 C 0.68511 0.79737 0.30416 0.0
C562 C 0.66787 0.8041 0.27625 0.0
H563 H 0.67198 0.88574 0.2828 0.0
O564 O 0.71589 0.87501 0.19217 0.0
O565 O 0.67416 0.84082 0.20233 0.0
O566 O 0.65856 0.90615 0.1939 0.0
O567 O 0.63462 0.88183 0.23561 0.0
C568 C 0.68947 0.76464 0.30983 0.0
C569 C 0.67702 0.73934 0.28735 0.0
H570 H 0.651 0.69744 0.23791 0.0
H571 H 0.62268 0.71433 0.18902 0.0
H572 H 0.70266 0.87637 0.33286 0.0
H573 H 0.71138 0.81989 0.34665 0.0
H574 H 0.70284 0.75872 0.33112 0.0
H575 H 0.68102 0.71435 0.29169 0.0
H576 H 0.24271 0.18441 0.18494 0.0
H577 H 0.29127 0.33701 0.3051 0.0
H578 H 0.19401 0.27048 0.18479 0.0
H579 H 0.35392 0.26408 0.28575 0.0
H580 H 0.25781 0.31539 0.25807 0.0
H581 H 0.28619 0.21494 0.21741 0.0
C582 C 0.24144 0.20996 0.19154 0.0
C583 C 0.21449 0.22482 0.18312 0.0
C584 C 0.27885 0.30403 0.26398 0.0
C585 C 0.26391 0.25984 0.22059 0.0
C586 C 0.29762 0.316 0.29114 0.0
C587 C 0.32467 0.30148 0.29986 0.0
C588 C 0.28649 0.27648 0.24602 0.0
C589 C 0.33261 0.27515 0.28041 0.0
C590 C 0.26634 0.22744 0.20989 0.0
C591 C 0.21417 0.25807 0.19148 0.0
N592 N 0.31322 0.26301 0.25475 0.0
N593 N 0.23821 0.27432 0.21047 0.0
H594 H 0.81926 0.23503 0.19354 0.0
H595 H 0.72304 0.18838 0.31923 0.0
H596 H 0.78046 0.32671 0.20537 0.0
H597 H 0.66795 0.2658 0.2945 0.0
H598 H 0.75712 0.20167 0.27434 0.0
H599 H 0.77604 0.20897 0.22492 0.0
C600 C 0.80147 0.24952 0.20266 0.0
C601 C 0.80391 0.28317 0.19817 0.0
C602 C 0.73749 0.21569 0.27818 0.0
C603 C 0.75482 0.25409 0.23436 0.0
C604 C 0.71846 0.20855 0.30439 0.0
C605 C 0.69334 0.2267 0.31103 0.0
C606 C 0.73203 0.24197 0.25892 0.0
C607 C 0.68772 0.25192 0.29066 0.0
C608 C 0.77693 0.23481 0.22083 0.0
C609 C 0.77986 0.30084 0.20943 0.0
N610 N 0.70738 0.2593 0.26589 0.0
N611 N 0.75652 0.2862 0.22731 0.0
H612 H 0.34066 0.75233 0.21353 0.0
H613 H 0.18339 0.79134 0.28397 0.0
H614 H 0.28086 0.67249 0.25181 0.0
H615 H 0.26813 0.84071 0.33155 0.0
H616 H 0.21536 0.75339 0.25624 0.0
H617 H 0.31092 0.79123 0.24271 0.0
C618 C 0.32172 0.74306 0.22875 0.0
C619 C 0.31417 0.70932 0.23188 0.0
C620 C 0.2268 0.7725 0.27286 0.0
C621 C 0.27888 0.75332 0.26284 0.0
C622 C 0.20873 0.79391 0.28872 0.0
C623 C 0.22318 0.81787 0.31117 0.0
C624 C 0.25955 0.77606 0.2787 0.0
C625 C 0.2562 0.82175 0.3151 0.0
C626 C 0.30467 0.76519 0.24494 0.0
C627 C 0.28794 0.69839 0.24974 0.0
N628 N 0.27347 0.80083 0.29904 0.0
N629 N 0.27099 0.72045 0.26453 0.0
H630 H 0.8332 0.7716 0.34361 0.0
H631 H 0.70511 0.78767 0.20188 0.0
H632 H 0.77301 0.69092 0.29681 0.0
H633 H 0.74707 0.8721 0.25953 0.0
H634 H 0.73332 0.75274 0.23541 0.0
H635 H 0.80349 0.80993 0.3142 0.0
C636 C 0.81356 0.76211 0.32731 0.0
C637 C 0.80621 0.72831 0.32124 0.0
C638 C 0.7366 0.77888 0.24088 0.0
C639 C 0.77231 0.77136 0.28825 0.0
C640 C 0.72046 0.79879 0.22174 0.0
C641 C 0.72306 0.83249 0.22885 0.0
C642 C 0.75607 0.79278 0.26707 0.0
C643 C 0.74408 0.84599 0.25393 0.0
C644 C 0.7967 0.78385 0.31061 0.0
C645 C 0.78011 0.7169 0.30093 0.0
N646 N 0.75972 0.82595 0.27252 0.0
N647 N 0.76433 0.73839 0.28482 0.0
H648 H 0.31843 0.73411 0.69512 0.0
H649 H 0.16489 0.76865 0.79365 0.0
H650 H 0.28176 0.8274 0.69995 0.0
H651 H 0.22171 0.69115 0.81322 0.0
H652 H 0.19956 0.78493 0.74898 0.0
H653 H 0.27365 0.71116 0.72674 0.0
C654 C 0.30061 0.74948 0.70234 0.0
C655 C 0.304 0.78275 0.69593 0.0
C656 C 0.20427 0.76423 0.76297 0.0
C657 C 0.25294 0.75698 0.73132 0.0
C658 C 0.18488 0.75539 0.78873 0.0
C659 C 0.1915 0.72956 0.80785 0.0
C660 C 0.22954 0.74618 0.75569 0.0
C661 C 0.21662 0.71196 0.79959 0.0
C662 C 0.27513 0.7365 0.7203 0.0
C663 C 0.28018 0.80173 0.70525 0.0
N664 N 0.23465 0.72049 0.77408 0.0
N665 N 0.25581 0.7887 0.72277 0.0
H666 H 0.69655 0.7682 0.68104 0.0
H667 H 0.85639 0.76194 0.78854 0.0
H668 H 0.74325 0.68135 0.68935 0.0
H669 H 0.79119 0.83319 0.80403 0.0
H670 H 0.82256 0.73761 0.74215 0.0
H671 H 0.73971 0.79902 0.71472 0.0
C672 C 0.71618 0.75586 0.68952 0.0
C673 C 0.71604 0.72214 0.68354 0.0
C674 C 0.81583 0.75873 0.75559 0.0
C675 C 0.76547 0.75693 0.72117 0.0
C676 C 0.83479 0.77217 0.78231 0.0
C677 C 0.82566 0.79857 0.80081 0.0
C678 C 0.78833 0.77273 0.74668 0.0
C679 C 0.79834 0.81206 0.79094 0.0
C680 C 0.74078 0.77334 0.70863 0.0
C681 C 0.74222 0.70722 0.69437 0.0
N682 N 0.78073 0.79912 0.7645 0.0
N683 N 0.76574 0.72461 0.71294 0.0
H684 H 0.77161 0.3409 0.83041 0.0
H685 H 0.78108 0.16758 0.74656 0.0
H686 H 0.68714 0.28455 0.78955 0.0
H687 H 0.84339 0.24989 0.7168 0.0
H688 H 0.7494 0.20588 0.7741 0.0
H689 H 0.80349 0.30363 0.80106 0.0
C690 C 0.75988 0.32049 0.81556 0.0
C691 C 0.72683 0.3147 0.81341 0.0
C692 C 0.77078 0.21532 0.7627 0.0
C693 C 0.76267 0.27237 0.78053 0.0
C694 C 0.78868 0.19361 0.74687 0.0
C695 C 0.81595 0.20564 0.73119 0.0
C696 C 0.7808 0.249 0.76358 0.0
C697 C 0.82389 0.23964 0.73073 0.0
C698 C 0.77795 0.29935 0.79898 0.0
C699 C 0.71259 0.28867 0.7931 0.0
N700 N 0.80683 0.26024 0.74737 0.0
N701 N 0.73057 0.268 0.77786 0.0
H702 H 0.20556 0.28765 0.70277 0.0
H703 H 0.33458 0.26982 0.84306 0.0
H704 H 0.24806 0.37157 0.76082 0.0
H705 H 0.27345 0.18984 0.79629 0.0
H706 H 0.30489 0.30863 0.81428 0.0
H707 H 0.23373 0.25235 0.73584 0.0
C708 C 0.22099 0.29857 0.72264 0.0
C709 C 0.22378 0.33224 0.72997 0.0
C710 C 0.29789 0.2826 0.81056 0.0
C711 C 0.25684 0.2921 0.76764 0.0
C712 C 0.31474 0.26059 0.8269 0.0
C713 C 0.30709 0.22685 0.82067 0.0
C714 C 0.2732 0.27042 0.78841 0.0
C715 C 0.28077 0.21577 0.80053 0.0
C716 C 0.23713 0.27845 0.74153 0.0
C717 C 0.24493 0.34549 0.75505 0.0
N718 N 0.265 0.2375 0.7848 0.0
N719 N 0.26062 0.32524 0.77335 0.0
H720 H 0.1854 0.97264 0.31227 0.0
H721 H 0.08742 0.06285 0.19576 0.0
H722 H 0.11084 0.90989 0.26033 0.0
H723 H 0.18767 0.06655 0.18305 0.0
H724 H 0.08879 1.0115 0.22436 0.0
H725 H 0.18053 0.01438 0.27239 0.0
C726 C 0.16776 0.96777 0.29265 0.0
C727 C 0.14845 0.93778 0.28963 0.0
C728 C 0.11021 0.02304 0.21427 0.0
C729 C 0.14256 0.98567 0.24423 0.0
C730 C 0.10939 0.05204 0.19769 0.0
C731 C 0.13735 0.0684 0.18631 0.0
C732 C 0.1394 1.01135 0.22059 0.0
C733 C 0.16551 0.05423 0.19075 0.0
C734 C 0.16522 0.99147 0.26981 0.0
C735 C 0.1262 0.93271 0.26345 0.0
N736 N 0.16598 0.02701 0.20826 0.0
N737 N 0.12349 0.95665 0.24191 0.0
H738 H 0.93723 0.43496 0.23312 0.0
H739 H 0.83117 0.55826 0.31089 0.0
H740 H 0.84353 0.44208 0.19383 0.0
H741 H 0.92591 0.59615 0.28787 0.0
H742 H 0.83746 0.50733 0.27967 0.0
H743 H 0.93638 0.48829 0.26239 0.0
C744 C 0.91701 0.44838 0.22971 0.0
C745 C 0.89078 0.43469 0.21029 0.0
C746 C 0.85705 0.52661 0.28204 0.0
C747 C 0.88874 0.494 0.24543 0.0
C748 C 0.85369 0.55532 0.3003 0.0
C749 C 0.8783 0.58105 0.30245 0.0
C750 C 0.88543 0.52341 0.26643 0.0
C751 C 0.90664 0.57655 0.28722 0.0
C752 C 0.91637 0.47845 0.24673 0.0
C753 C 0.86458 0.45232 0.20776 0.0
N754 N 0.90957 0.54816 0.26997 0.0
N755 N 0.86392 0.48073 0.22569 0.0
H756 H 0.33682 0.12751 0.96213 0.0
H757 H 0.16321 0.13228 0.02935 0.0
H758 H 0.25298 0.12343 0.89998 0.0
H759 H 0.24629 0.12785 0.09082 0.0
H760 H 0.1948 0.12443 0.98165 0.0
H761 H 0.30348 0.12263 1.00925 0.0
C762 C 0.31137 0.12504 0.95831 0.0
C763 C 0.29774 0.12603 0.92698 0.0
C764 C 0.20606 0.12482 1.00558 0.0
C765 C 0.25928 0.12099 0.98107 0.0
C766 C 0.188 0.12927 0.03286 0.0
C767 C 0.20211 0.13091 0.0642 0.0
C768 C 0.23859 0.12221 1.00956 0.0
C769 C 0.23438 0.12684 0.06718 0.0
C770 C 0.2923 0.12238 0.98529 0.0
C771 C 0.26458 0.12279 0.92363 0.0
N772 N 0.25153 0.123 0.04027 0.0
N773 N 0.24653 0.12081 0.95032 0.0
H774 H 0.84883 0.37719 0.05143 0.0
H775 H 0.67645 0.33896 0.97632 0.0
H776 H 0.76751 0.36747 0.11153 0.0
H777 H 0.74881 0.39459 0.92437 0.0
H778 H 0.70967 0.34844 0.02609 0.0
H779 H 0.81368 0.38298 1.0042 0.0
C780 C 0.82367 0.37673 0.05478 0.0
C781 C 0.81109 0.37167 0.08547 0.0
C782 C 0.71807 0.35918 1.00399 0.0
C783 C 0.77078 0.3777 0.03151 0.0
C784 C 0.69908 0.35386 0.97565 0.0
C785 C 0.70981 0.36635 0.94639 0.0
C786 C 0.7485 0.3762 1.00287 0.0
C787 C 0.73953 0.38502 0.94662 0.0
C788 C 0.80365 0.38012 0.02785 0.0
C789 C 0.77828 0.37129 0.08837 0.0
N790 N 0.75815 0.38887 0.97432 0.0
N791 N 0.75925 0.37369 0.06169 0.0
H792 H 0.34888 0.87851 0.55117 0.0
H793 H 0.17838 0.83217 0.47449 0.0
H794 H 0.26762 0.86348 0.61091 0.0
H795 H 0.24668 0.89607 0.42536 0.0
H796 H 0.21149 0.84134 0.52435 0.0
H797 H 0.31331 0.8835 0.50404 0.0
C798 C 0.32362 0.87674 0.55447 0.0
C799 C 0.3112 0.87044 0.585 0.0
C800 C 0.219 0.85383 0.50284 0.0
C801 C 0.27049 0.87543 0.53118 0.0
C802 C 0.20013 0.84861 0.47443 0.0
C803 C 0.20975 0.86359 0.44593 0.0
C804 C 0.24825 0.87334 0.50252 0.0
C805 C 0.23829 0.88441 0.447 0.0
C806 C 0.30338 0.87966 0.52761 0.0
C807 C 0.27826 0.86835 0.58787 0.0
N808 N 0.25689 0.88821 0.47471 0.0
N809 N 0.25905 0.87025 0.56122 0.0
H810 H 0.74954 0.62405 0.59551 0.0
H811 H 0.75431 0.6207 0.40124 0.0
H812 H 0.66698 0.62503 0.53243 0.0
H813 H 0.83768 0.6326 0.46467 0.0
H814 H 0.72158 0.61319 0.44865 0.0
H815 H 0.78144 0.61818 0.54775 0.0
C816 C 0.73799 0.62252 0.57164 0.0
C817 C 0.7055 0.62525 0.56804 0.0
C818 C 0.74705 0.61707 0.45219 0.0
C819 C 0.74205 0.61879 0.51308 0.0
C820 C 0.7658 0.6212 0.42508 0.0
C821 C 0.79885 0.62751 0.42892 0.0
C822 C 0.76138 0.61921 0.48349 0.0
C823 C 0.81232 0.62795 0.46049 0.0
C824 C 0.75628 0.61932 0.54434 0.0
C825 C 0.69193 0.62317 0.53643 0.0
N826 N 0.79356 0.62414 0.48651 0.0
N827 N 0.71027 0.62032 0.51023 0.0
H828 H 0.9577 0.2978 0.23277 0.0
H829 H 0.07361 0.2109 0.11812 0.0
H830 H 0.94329 0.29443 0.12853 0.0
H831 H 0.05949 0.19026 0.21872 0.0
H832 H 0.02925 0.2444 0.11977 0.0
H833 H 0.99993 0.26346 0.22671 0.0
C834 C 0.96352 0.29015 0.20847 0.0
C835 C 0.94654 0.29911 0.18113 0.0
C836 C 0.03578 0.23219 0.1413 0.0
C837 C 0.99542 0.25906 0.17406 0.0
C838 C 0.06097 0.21288 0.14035 0.0
C839 C 0.07061 0.19775 0.16838 0.0
C840 C 0.02043 0.23668 0.17055 0.0
C841 C 0.05331 0.2015 0.19651 0.0
C842 C 0.98764 0.27021 0.20507 0.0
C843 C 0.95561 0.28821 0.15034 0.0
N844 N 0.02947 0.22076 0.19692 0.0
N845 N 0.97943 0.26873 0.14762 0.0
H846 H 0.94138 0.74258 0.29479 0.0
H847 H 0.07819 0.80428 0.42326 0.0
H848 H 0.9381 0.7147 0.39453 0.0
H849 H 0.06454 0.85116 0.3333 0.0
H850 H 0.02512 0.77478 0.41595 0.0
H851 H 0.98582 0.78343 0.30958 0.0
C852 C 0.95002 0.74486 0.31983 0.0
C853 C 0.93586 0.72486 0.3434 0.0
C854 C 0.03329 0.79223 0.39826 0.0
C855 C 0.98706 0.77217 0.36055 0.0
C856 C 0.06342 0.80941 0.40266 0.0
C857 C 0.07569 0.8302 0.37885 0.0
C858 C 0.01564 0.79536 0.3695 0.0
C859 C 0.05585 0.8356 0.35237 0.0
C860 C 0.9753 0.76854 0.32831 0.0
C861 C 0.94828 0.72933 0.37546 0.0
N862 N 0.02707 0.81765 0.34798 0.0
N863 N 0.9733 0.75233 0.38303 0.0
H864 H 0.54738 0.66851 0.70038 0.0
H865 H 0.47655 0.8319 0.65762 0.0
H866 H 0.58975 0.73006 0.62782 0.0
H867 H 0.41873 0.74645 0.6874 0.0
H868 H 0.52033 0.79811 0.64936 0.0
H869 H 0.50165 0.69948 0.69962 0.0
C870 C 0.54676 0.68822 0.68386 0.0
C871 C 0.57218 0.69646 0.66384 0.0
C872 C 0.49799 0.78688 0.65775 0.0
C873 C 0.52037 0.73286 0.66367 0.0
C874 C 0.47315 0.80612 0.66252 0.0
C875 C 0.44447 0.79216 0.67449 0.0
C876 C 0.49399 0.75365 0.66523 0.0
C877 C 0.44098 0.75858 0.67994 0.0
C878 C 0.52072 0.70597 0.6835 0.0
C879 C 0.57036 0.72257 0.64322 0.0
N880 N 0.46549 0.74061 0.67569 0.0
N881 N 0.54511 0.74022 0.64401 0.0
H882 H 0.92222 0.1046 0.77381 0.0
H883 H 0.82003 0.93204 0.79787 0.0
H884 H 0.84637 0.06408 0.70709 0.0
H885 H 0.90901 0.96344 0.84877 0.0
H886 H 0.82656 0.98201 0.76704 0.0
H887 H 0.91588 0.05425 0.80336 0.0
C888 C 0.90446 0.08499 0.7651 0.0
C889 C 0.88491 0.08869 0.73775 0.0
C890 C 0.84458 0.97797 0.78504 0.0
C891 C 0.87705 0.03093 0.77208 0.0
C892 C 0.84073 0.94959 0.80284 0.0
C893 C 0.86397 0.94354 0.826 0.0
C894 C 0.87173 1.0006 0.79066 0.0
C895 C 0.89048 0.96702 0.83117 0.0
C896 C 0.90077 0.05623 0.7821 0.0
C897 C 0.86219 0.06233 0.72783 0.0
N898 N 0.89359 0.99443 0.81372 0.0
N899 N 0.85872 0.03473 0.74512 0.0
H900 H 0.19838 0.60168 0.80564 0.0
H901 H 0.10769 0.42238 0.77121 0.0
H902 H 0.1093 0.57004 0.84792 0.0
H903 H 0.17784 0.46656 0.70818 0.0
H904 H 0.10994 0.47454 0.80235 0.0
H905 H 0.19425 0.54994 0.77345 0.0
C906 C 0.17812 0.58371 0.80842 0.0
C907 C 0.15417 0.59017 0.82954 0.0
C908 C 0.1246 0.47287 0.78151 0.0
C909 C 0.14919 0.53099 0.79263 0.0
C910 C 0.12327 0.44311 0.76363 0.0
C911 C 0.14255 0.43998 0.73692 0.0
C912 C 0.14573 0.49961 0.773 0.0
C913 C 0.16237 0.46776 0.72841 0.0
C914 C 0.17564 0.55431 0.78983 0.0
C915 C 0.12831 0.56608 0.83193 0.0
N916 N 0.16367 0.49625 0.74658 0.0
N917 N 0.12654 0.53754 0.81377 0.0
H918 H 0.70862 0.91564 0.07196 0.0
H919 H 0.84845 0.83184 0.9891 0.0
H920 H 0.73844 0.82307 0.09759 0.0
H921 H 0.80076 0.90393 0.94056 0.0
H922 H 0.8156 0.83786 0.03584 0.0
H923 H 0.74724 0.91884 0.02878 0.0
C924 C 0.72309 0.89589 0.06837 0.0
C925 C 0.72011 0.86891 0.0883 0.0
C926 C 0.81264 0.85288 0.01528 0.0
C927 C 0.76486 0.87294 0.03967 0.0
C928 C 0.83176 0.84984 0.9888 0.0
C929 C 0.82742 0.86754 0.96101 0.0
C930 C 0.78874 0.87365 0.01404 0.0
C931 C 0.80514 0.89019 0.96172 0.0
C932 C 0.7452 0.89785 0.04385 0.0
C933 C 0.73965 0.84418 0.08269 0.0
N934 N 0.78624 0.89229 0.98768 0.0
N935 N 0.76124 0.8469 0.0591 0.0
H936 H 0.20846 0.6299 0.94575 0.0
H937 H 0.30193 0.71792 0.10087 0.0
H938 H 0.18376 0.71755 0.9947 0.0
H939 H 0.30775 0.6159 0.07627 0.0
H940 H 0.2608 0.71824 0.05866 0.0
H941 H 0.24479 0.62254 0.99176 0.0
C942 C 0.2098 0.6469 0.96664 0.0
C943 C 0.19319 0.67447 0.96637 0.0
C944 C 0.27102 0.69572 0.06241 0.0
C945 C 0.23535 0.66692 0.0182 0.0
C946 C 0.29482 0.69562 0.08633 0.0
C947 C 0.30839 0.66685 0.09213 0.0
C948 C 0.26074 0.66692 0.04376 0.0
C949 C 0.29796 0.63865 0.07256 0.0
C950 C 0.23085 0.64295 0.99266 0.0
C951 C 0.19628 0.69608 0.9938 0.0
N952 N 0.27477 0.63939 0.04914 0.0
N953 N 0.2173 0.69213 0.01827 0.0
H954 H 0.67865 0.21241 0.49822 0.0
H955 H 0.81213 0.11321 0.57375 0.0
H956 H 0.70903 0.1287 0.44711 0.0
H957 H 0.79886 0.21277 0.60165 0.0
H958 H 0.7694 0.11261 0.53215 0.0
H959 H 0.7151 0.20494 0.5433 0.0
C960 C 0.6923 0.19175 0.49699 0.0
C961 C 0.69085 0.17117 0.46889 0.0
C962 C 0.776 0.13456 0.54735 0.0
C963 C 0.73358 0.16315 0.51999 0.0
C964 C 0.80048 0.13502 0.57093 0.0
C965 C 0.80923 0.16318 0.5911 0.0
C966 C 0.75985 0.16223 0.54439 0.0
C967 C 0.79315 0.19062 0.58654 0.0
C968 C 0.71347 0.18779 0.52252 0.0
C969 C 0.70922 0.14491 0.46848 0.0
N970 N 0.76918 0.18936 0.56388 0.0
N971 N 0.73028 0.14192 0.49349 0.0
H972 H 0.23691 0.3198 0.59802 0.0
H973 H 0.30362 0.40581 0.4412 0.0
H974 H 0.21265 0.41499 0.57373 0.0
H975 H 0.34575 0.32892 0.48807 0.0
H976 H 0.27043 0.4116 0.4885 0.0
H977 H 0.27515 0.3225 0.55526 0.0
C978 C 0.23938 0.34117 0.58346 0.0
C979 C 0.22141 0.36714 0.58944 0.0
C980 C 0.28752 0.39404 0.4887 0.0
C981 C 0.26566 0.37062 0.54037 0.0
C982 C 0.30679 0.3911 0.46196 0.0
C983 C 0.32748 0.36689 0.4608 0.0
C984 C 0.28888 0.37236 0.51407 0.0
C985 C 0.33007 0.34787 0.48799 0.0
C986 C 0.26152 0.34288 0.55921 0.0
C987 C 0.22595 0.39436 0.56988 0.0
N988 N 0.3107 0.35065 0.51318 0.0
N989 N 0.24753 0.39535 0.5461 0.0
H990 H 0.05783 0.69218 0.89508 0.0
H991 H 0.96006 0.84633 0.89329 0.0
H992 H 0.10163 0.79203 0.90703 0.0
H993 H 0.91696 0.74761 0.90516 0.0
H994 H 0.01217 0.82702 0.89802 0.0
H995 H 1.00594 0.71194 0.89838 0.0
C996 C 0.05661 0.71821 0.89863 0.0
C997 C 0.08425 0.74042 0.90065 0.0
C998 C 0.99129 0.80966 0.89987 0.0
C999 C 0.02481 0.76326 0.90413 0.0
C1000 C 0.96149 0.82067 0.89715 0.0
C1001 C 0.93395 0.7986 0.89868 0.0
C1002 C 0.99364 0.77626 0.90376 0.0
C1003 C 0.93742 0.7656 0.90378 0.0
C1004 C 0.02694 0.72949 0.90055 0.0
C1005 C 0.08107 0.77392 0.90533 0.0
N1006 N 0.96664 0.75542 0.90582 0.0
N1007 N 0.05194 0.7843 0.90661 0.0
H1008 H 0.04708 0.35087 0.66132 0.0
H1009 H 0.92482 0.22702 0.6188 0.0
H1010 H 0.10804 0.28287 0.62374 0.0
H1011 H 0.99061 0.17939 0.67636 0.0
H1012 H 0.96859 0.26733 0.60406 0.0
H1013 H 1.00123 0.30996 0.64852 0.0
C1014 C 0.0506 0.32796 0.64884 0.0
C1015 C 0.08124 0.32044 0.64287 0.0
C1016 C 0.9735 0.24726 0.61886 0.0
C1017 C 0.0294 0.27304 0.6301 0.0
C1018 C 0.94872 0.224 0.62692 0.0
C1019 C 0.95423 0.19964 0.64855 0.0
C1020 C 1.00403 0.24554 0.63193 0.0
C1021 C 0.98548 0.19756 0.65933 0.0
C1022 C 0.02453 0.30454 0.64183 0.0
C1023 C 0.08469 0.2898 0.62799 0.0
N1024 N 1.00922 0.22036 0.65104 0.0
N1025 N 0.05921 0.26674 0.6232 0.0
H1026 H 0.60502 0.29061 0.41912 0.0
H1027 H 0.4604 0.34861 0.3903 0.0
H1028 H 0.55605 0.19653 0.38714 0.0
H1029 H 0.41916 0.24972 0.40467 0.0
H1030 H 0.51283 0.33063 0.39526 0.0
H1031 H 0.5545 0.31258 0.42178 0.0
C1032 C 0.58365 0.27448 0.41263 0.0
C1033 C 0.58498 0.24163 0.40252 0.0
C1034 C 0.49241 0.31296 0.39814 0.0
C1035 C 0.52671 0.26716 0.40463 0.0
C1036 C 0.46233 0.32322 0.39502 0.0
C1037 C 0.43518 0.30074 0.39717 0.0
C1038 C 0.49547 0.27991 0.40341 0.0
C1039 C 0.43932 0.26804 0.403 0.0
C1040 C 0.55472 0.28725 0.4138 0.0
C1041 C 0.55631 0.22202 0.39482 0.0
N1042 N 0.46884 0.25859 0.4056 0.0
N1043 N 0.52838 0.23511 0.39596 0.0
H1044 H 0.59601 0.57994 0.7282 0.0
H1045 H 0.65756 0.40446 0.74327 0.0
H1046 H 0.66355 0.54758 0.66202 0.0
H1047 H 0.62994 0.46416 0.82342 0.0
H1048 H 0.64811 0.44839 0.70641 0.0
H1049 H 0.59465 0.52815 0.75499 0.0
C1050 C 0.60985 0.56144 0.71864 0.0
C1051 C 0.62998 0.56815 0.69286 0.0
C1052 C 0.64383 0.45158 0.73202 0.0
C1053 C 0.62911 0.50884 0.72409 0.0
C1054 C 0.64905 0.42654 0.75301 0.0
C1055 C 0.6446 0.43074 0.78649 0.0
C1056 C 0.63331 0.48055 0.74456 0.0
C1057 C 0.63383 0.45993 0.79786 0.0
C1058 C 0.60931 0.532 0.73419 0.0
C1059 C 0.64751 0.54329 0.68162 0.0
N1060 N 0.62848 0.48355 0.77699 0.0
N1061 N 0.64704 0.5148 0.69763 0.0
H1062 H 0.42539 0.08527 0.80787 0.0
H1063 H 0.3574 0.94423 0.67876 0.0
H1064 H 0.32588 0.06169 0.7848 0.0
H1065 H 0.43283 0.92718 0.74581 0.0
H1066 H 0.35384 0.99701 0.70739 0.0
H1067 H 0.4355 0.03446 0.77791 0.0
C1068 C 0.40567 0.06901 0.79714 0.0
C1069 C 0.37472 0.07731 0.79913 0.0
C1070 C 0.37165 0.98199 0.71533 0.0
C1071 C 0.38622 0.02078 0.76339 0.0
C1072 C 0.37411 0.95217 0.69863 0.0
C1073 C 0.39561 0.93137 0.70975 0.0
C1074 C 0.39123 0.9914 0.74295 0.0
C1075 C 0.41607 0.94261 0.73633 0.0
C1076 C 0.41147 0.04038 0.77977 0.0
C1077 C 0.35005 0.05607 0.78394 0.0
N1078 N 0.41334 0.97183 0.75213 0.0
N1079 N 0.35634 0.02904 0.76637 0.0
H1080 H 0.43841 0.20827 0.89342 0.0
H1081 H 0.56711 0.34621 0.83022 0.0
H1082 H 0.44424 0.23613 0.79379 0.0
H1083 H 0.57883 0.2983 0.91999 0.0
H1084 H 0.51432 0.31584 0.82222 0.0
H1085 H 0.484 0.24864 0.90782 0.0
C1086 C 0.4493 0.22266 0.87452 0.0
C1087 C 0.43742 0.21853 0.84227 0.0
C1088 C 0.52815 0.31259 0.84408 0.0
C1089 C 0.48909 0.26542 0.85885 0.0
C1090 C 0.55801 0.33042 0.84895 0.0
C1091 C 0.57731 0.32467 0.87577 0.0
C1092 C 0.51759 0.28912 0.86631 0.0
C1093 C 0.56462 0.30336 0.89896 0.0
C1094 C 0.47518 0.24588 0.88284 0.0
C1095 C 0.4525 0.23819 0.81895 0.0
N1096 N 0.53573 0.28599 0.8935 0.0
N1097 N 0.47741 0.26079 0.82772 0.0
H1098 H 0.41947 0.60731 0.27619 0.0
H1099 H 0.31874 0.43362 0.29895 0.0
H1100 H 0.34404 0.56642 0.20913 0.0
H1101 H 0.40756 0.46547 0.35001 0.0
H1102 H 0.32468 0.48402 0.26874 0.0
H1103 H 0.41337 0.55686 0.30559 0.0
C1104 C 0.40184 0.58762 0.26738 0.0
C1105 C 0.38235 0.59123 0.23996 0.0
C1106 C 0.34279 0.47998 0.28665 0.0
C1107 C 0.37479 0.53335 0.27411 0.0
C1108 C 0.33927 0.45136 0.3041 0.0
C1109 C 0.36266 0.44531 0.32709 0.0
C1110 C 0.36975 0.50285 0.29246 0.0
C1111 C 0.38893 0.46904 0.33251 0.0
C1112 C 0.39829 0.5588 0.2843 0.0
C1113 C 0.35981 0.56475 0.22993 0.0
N1114 N 0.39173 0.49667 0.31539 0.0
N1115 N 0.35649 0.53709 0.24712 0.0
H1116 H 0.60635 0.06878 0.3509 0.0
H1117 H 0.67605 0.96654 0.20668 0.0
H1118 H 0.69499 0.09935 0.30727 0.0
H1119 H 0.60868 0.92216 0.27246 0.0
H1120 H 0.67793 0.01821 0.23841 0.0
H1121 H 0.60251 0.01714 0.31845 0.0
C1122 C 0.62511 0.06453 0.33466 0.0
C1123 C 0.65111 0.08835 0.33188 0.0
C1124 C 0.6626 0.9972 0.24577 0.0
C1125 C 0.64649 0.02965 0.29422 0.0
C1126 C 0.66125 0.96771 0.22747 0.0
C1127 C 0.64216 0.93981 0.23685 0.0
C1128 C 0.64449 0.99904 0.27349 0.0
C1129 C 0.62377 0.94295 0.26429 0.0
C1130 C 0.62286 0.03509 0.31613 0.0
C1131 C 0.67466 0.08158 0.31037 0.0
N1132 N 0.62539 0.97199 0.28162 0.0
N1133 N 0.67167 0.05299 0.29218 0.0
H1134 H 0.60744 0.78649 0.11883 0.0
H1135 H 0.48764 0.67584 0.17487 0.0
H1136 H 0.54509 0.84775 0.16534 0.0
H1137 H 0.42433 0.73271 0.12464 0.0
H1138 H 0.53264 0.71356 0.15828 0.0
H1139 H 0.56253 0.74383 0.1084 0.0
C1140 C 0.58396 0.79173 0.12509 0.0
C1141 C 0.57982 0.82081 0.14262 0.0
C1142 C 0.50895 0.71699 0.14984 0.0
C1143 C 0.52874 0.77225 0.13106 0.0
C1144 C 0.48337 0.69541 0.15913 0.0
C1145 C 0.45237 0.70076 0.1504 0.0
C1146 C 0.50331 0.74484 0.13298 0.0
C1147 C 0.44797 0.7273 0.13108 0.0
C1148 C 0.55854 0.7672 0.11961 0.0
C1149 C 0.54912 0.82587 0.15134 0.0
N1150 N 0.47308 0.74903 0.12393 0.0
N1151 N 0.52474 0.80169 0.14571 0.0
loop_
_geom_bond_atom_site_label_1
_geom_bond_atom_site_label_2
_geom_bond_distance
_geom_bond_site_symmetry_2
_ccdc_geom_bond_type
Mn0 O5 2.095 . S
Mn0 O15 2.162 . S
Mn0 O16 2.297 . S
Mn0 O24 2.385 . S
Mn0 O25 2.209 . S
Mn0 O26 2.094 . S
Mn1 O6 2.121 . S
Mn1 N8 2.257 . S
Mn1 N17 2.282 . S
Mn1 O25 2.215 . S
Mn1 O27 2.117 . S
C2 O24 1.234 . S
C2 O25 1.283 . S
C3 O15 1.281 . S
C3 O16 1.236 . S
C4 O26 1.240 . S
C4 O27 1.264 . S
O5 Mn0 2.095 . S
O5 C14 1.250 . S
O6 Mn1 2.121 . S
O6 C14 1.258 . S
C7 N8 1.326 . S
C7 C11 1.460 . S
C7 H13 0.929 . S
N8 Mn1 2.257 . S
N8 C7 1.326 . S
N8 C12 1.362 . S
C9 C10 1.258 . S
C9 C12 1.431 . S
C9 C29 1.449 . S
C10 C9 1.258 . S
C10 C11 1.477 . S
C10 H30 0.931 . S
C11 C7 1.460 . S
C11 C10 1.477 . S
C11 H31 0.930 . S
C12 N8 1.362 . S
C12 C9 1.431 . S
C12 C22 1.476 . S
H13 C7 0.929 . S
C14 O5 1.250 . S
C14 O6 1.258 . S
O15 Mn0 2.162 . S
O15 C3 1.281 . S
O16 Mn0 2.297 . S
O16 C3 1.236 . S
N17 Mn1 2.282 . S
N17 C18 1.328 . S
N17 C22 1.318 . S
C18 N17 1.328 . S
C18 C19 1.457 . S
C18 H23 0.929 . S
C19 C18 1.457 . S
C19 C20 1.291 . S
C19 H32 0.931 . S
C20 C19 1.291 . S
C20 C21 1.373 . S
C20 H33 0.929 . S
C21 C20 1.373 . S
C21 C22 1.396 . S
C21 C28 1.403 . S
C22 C12 1.476 . S
C22 N17 1.318 . S
C22 C21 1.396 . S
H23 C18 0.929 . S
O24 Mn0 2.385 . S
O24 C2 1.234 . S
O25 Mn0 2.209 . S
O25 Mn1 2.215 . S
O25 C2 1.283 . S
O26 Mn0 2.094 . S
O26 C4 1.240 . S
O27 Mn1 2.117 . S
O27 C4 1.264 . S
C28 C21 1.403 . S
C28 C29 1.399 . S
C28 H34 0.929 . S
C29 C9 1.449 . S
C29 C28 1.399 . S
C29 H35 0.930 . S
H30 C10 0.931 . S
H31 C11 0.930 . S
H32 C19 0.931 . S
H33 C20 0.929 . S
H34 C28 0.929 . S
H35 C29 0.930 . S
Mn36 O41 2.095 . S
Mn36 O51 2.162 . S
Mn36 O52 2.297 . S
Mn36 O60 2.385 . S
Mn36 O61 2.209 . S
Mn36 O62 2.094 . S
Mn37 O42 2.121 . S
Mn37 N44 2.257 . S
Mn37 N53 2.282 . S
Mn37 O61 2.215 . S
Mn37 O63 2.117 . S
C38 O60 1.234 . S
C38 O61 1.283 . S
C39 O51 1.281 . S
C39 O52 1.236 . S
C40 O62 1.240 . S
C40 O63 1.264 . S
O41 Mn36 2.095 . S
O41 C50 1.250 . S
O42 Mn37 2.121 . S
O42 C50 1.258 . S
C43 N44 1.326 . S
C43 C47 1.460 . S
C43 H49 0.929 . S
N44 Mn37 2.257 . S
N44 C43 1.326 . S
N44 C48 1.362 . S
C45 C46 1.258 . S
C45 C48 1.431 . S
C45 C65 1.449 . S
C46 C45 1.258 . S
C46 C47 1.477 . S
C46 H66 0.931 . S
C47 C43 1.460 . S
C47 C46 1.477 . S
C47 H67 0.930 . S
C48 N44 1.362 . S
C48 C45 1.431 . S
C48 C58 1.476 . S
H49 C43 0.929 . S
C50 O41 1.250 . S
C50 O42 1.258 . S
O51 Mn36 2.162 . S
O51 C39 1.281 . S
O52 Mn36 2.297 . S
O52 C39 1.236 . S
N53 Mn37 2.282 . S
N53 C54 1.328 . S
N53 C58 1.318 . S
C54 N53 1.328 . S
C54 C55 1.457 . S
C54 H59 0.929 . S
C55 C54 1.457 . S
C55 C56 1.291 . S
C55 H68 0.931 . S
C56 C55 1.291 . S
C56 C57 1.373 . S
C56 H69 0.929 . S
C57 C56 1.373 . S
C57 C58 1.396 . S
C57 C64 1.403 . S
C58 C48 1.476 . S
C58 N53 1.318 . S
C58 C57 1.396 . S
H59 C54 0.929 . S
O60 Mn36 2.385 . S
O60 C38 1.234 . S
O61 Mn36 2.209 . S
O61 Mn37 2.215 . S
O61 C38 1.283 . S
O62 Mn36 2.094 . S
O62 C40 1.240 . S
O63 Mn37 2.117 . S
O63 C40 1.264 . S
C64 C57 1.403 . S
C64 C65 1.399 . S
C64 H70 0.929 . S
C65 C45 1.449 . S
C65 C64 1.399 . S
C65 H71 0.930 . S
H66 C46 0.931 . S
H67 C47 0.930 . S
H68 C55 0.931 . S
H69 C56 0.929 . S
H70 C64 0.929 . S
H71 C65 0.930 . S
Mn72 O77 2.095 . S
Mn72 O87 2.162 . S
Mn72 O88 2.297 . S
Mn72 O96 2.385 . S
Mn72 O97 2.209 . S
Mn72 O98 2.094 . S
Mn73 O78 2.121 . S
Mn73 N80 2.257 . S
Mn73 N89 2.282 . S
Mn73 O97 2.215 . S
Mn73 O99 2.117 . S
C74 O96 1.234 . S
C74 O97 1.283 . S
C75 O87 1.281 . S
C75 O88 1.236 . S
C76 O98 1.240 . S
C76 O99 1.264 . S
O77 Mn72 2.095 . S
O77 C86 1.250 . S
O78 Mn73 2.121 . S
O78 C86 1.258 . S
C79 N80 1.326 . S
C79 C83 1.460 . S
C79 H85 0.929 . S
N80 Mn73 2.257 . S
N80 C79 1.326 . S
N80 C84 1.362 . S
C81 C82 1.258 . S
C81 C84 1.431 . S
C81 C101 1.449 . S
C82 C81 1.258 . S
C82 C83 1.477 . S
C82 H102 0.931 . S
C83 C79 1.460 . S
C83 C82 1.477 . S
C83 H103 0.930 . S
C84 N80 1.362 . S
C84 C81 1.431 . S
C84 C94 1.476 . S
H85 C79 0.929 . S
C86 O77 1.250 . S
C86 O78 1.258 . S
O87 Mn72 2.162 . S
O87 C75 1.281 . S
O88 Mn72 2.297 . S
O88 C75 1.236 . S
N89 Mn73 2.282 . S
N89 C90 1.328 . S
N89 C94 1.318 . S
C90 N89 1.328 . S
C90 C91 1.457 . S
C90 H95 0.929 . S
C91 C90 1.457 . S
C91 C92 1.291 . S
C91 H104 0.931 . S
C92 C91 1.291 . S
C92 C93 1.373 . S
C92 H105 0.929 . S
C93 C92 1.373 . S
C93 C94 1.396 . S
C93 C100 1.403 . S
C94 C84 1.476 . S
C94 N89 1.318 . S
C94 C93 1.396 . S
H95 C90 0.929 . S
O96 Mn72 2.385 . S
O96 C74 1.234 . S
O97 Mn72 2.209 . S
O97 Mn73 2.215 . S
O97 C74 1.283 . S
O98 Mn72 2.094 . S
O98 C76 1.240 . S
O99 Mn73 2.117 . S
O99 C76 1.264 . S
C100 C93 1.403 . S
C100 C101 1.399 . S
C100 H106 0.929 . S
C101 C81 1.449 . S
C101 C100 1.399 . S
C101 H107 0.930 . S
H102 C82 0.931 . S
H103 C83 0.930 . S
H104 C91 0.931 . S
H105 C92 0.929 . S
H106 C100 0.929 . S
H107 C101 0.930 . S
Mn108 O113 2.095 . S
Mn108 O123 2.162 . S
Mn108 O124 2.297 . S
Mn108 O132 2.385 . S
Mn108 O133 2.209 . S
Mn108 O134 2.094 . S
Mn109 O114 2.121 . S
Mn109 N116 2.257 . S
Mn109 N125 2.282 . S
Mn109 O133 2.215 . S
Mn109 O135 2.117 . S
C110 O132 1.234 . S
C110 O133 1.283 . S
C111 O123 1.281 . S
C111 O124 1.236 . S
C112 O134 1.240 . S
C112 O135 1.264 . S
O113 Mn108 2.095 . S
O113 C122 1.250 . S
O114 Mn109 2.121 . S
O114 C122 1.258 . S
C115 N116 1.326 . S
C115 C119 1.460 . S
C115 H121 0.929 . S
N116 Mn109 2.257 . S
N116 C115 1.326 . S
N116 C120 1.362 . S
C117 C118 1.258 . S
C117 C120 1.431 . S
C117 C137 1.449 . S
C118 C117 1.258 . S
C118 C119 1.477 . S
C118 H138 0.931 . S
C119 C115 1.460 . S
C119 C118 1.477 . S
C119 H139 0.930 . S
C120 N116 1.362 . S
C120 C117 1.431 . S
C120 C130 1.476 . S
H121 C115 0.929 . S
C122 O113 1.250 . S
C122 O114 1.258 . S
O123 Mn108 2.162 . S
O123 C111 1.281 . S
O124 Mn108 2.297 . S
O124 C111 1.236 . S
N125 Mn109 2.282 . S
N125 C126 1.328 . S
N125 C130 1.318 . S
C126 N125 1.328 . S
C126 C127 1.457 . S
C126 H131 0.929 . S
C127 C126 1.457 . S
C127 C128 1.291 . S
C127 H140 0.931 . S
C128 C127 1.291 . S
C128 C129 1.373 . S
C128 H141 0.929 . S
C129 C128 1.373 . S
C129 C130 1.396 . S
C129 C136 1.403 . S
C130 C120 1.476 . S
C130 N125 1.318 . S
C130 C129 1.396 . S
H131 C126 0.929 . S
O132 Mn108 2.385 . S
O132 C110 1.234 . S
O133 Mn108 2.209 . S
O133 Mn109 2.215 . S
O133 C110 1.283 . S
O134 Mn108 2.094 . S
O134 C112 1.240 . S
O135 Mn109 2.117 . S
O135 C112 1.264 . S
C136 C129 1.403 . S
C136 C137 1.399 . S
C136 H142 0.929 . S
C137 C117 1.449 . S
C137 C136 1.399 . S
C137 H143 0.930 . S
H138 C118 0.931 . S
H139 C119 0.930 . S
H140 C127 0.931 . S
H141 C128 0.929 . S
H142 C136 0.929 . S
H143 C137 0.930 . S
Mn144 O149 2.095 . S
Mn144 O159 2.162 . S
Mn144 O160 2.297 . S
Mn144 O168 2.385 . S
Mn144 O169 2.209 . S
Mn144 O170 2.094 . S
Mn145 O150 2.121 . S
Mn145 N152 2.257 . S
Mn145 N161 2.282 . S
Mn145 O169 2.215 . S
Mn145 O171 2.117 . S
C146 O168 1.234 . S
C146 O169 1.283 . S
C147 O159 1.281 . S
C147 O160 1.236 . S
C148 O170 1.240 . S
C148 O171 1.264 . S
O149 Mn144 2.095 . S
O149 C158 1.250 . S
O150 Mn145 2.121 . S
O150 C158 1.258 . S
C151 N152 1.326 . S
C151 C155 1.460 . S
C151 H157 0.929 . S
N152 Mn145 2.257 . S
N152 C151 1.326 . S
N152 C156 1.362 . S
C153 C154 1.258 . S
C153 C156 1.431 . S
C153 C173 1.449 . S
C154 C153 1.258 . S
C154 C155 1.477 . S
C154 H174 0.931 . S
C155 C151 1.460 . S
C155 C154 1.477 . S
C155 H175 0.930 . S
C156 N152 1.362 . S
C156 C153 1.431 . S
C156 C166 1.476 . S
H157 C151 0.929 . S
C158 O149 1.250 . S
C158 O150 1.258 . S
O159 Mn144 2.162 . S
O159 C147 1.281 . S
O160 Mn144 2.297 . S
O160 C147 1.236 . S
N161 Mn145 2.282 . S
N161 C162 1.328 . S
N161 C166 1.318 . S
C162 N161 1.328 . S
C162 C163 1.457 . S
C162 H167 0.929 . S
C163 C162 1.457 . S
C163 C164 1.291 . S
C163 H176 0.931 . S
C164 C163 1.291 . S
C164 C165 1.373 . S
C164 H177 0.929 . S
C165 C164 1.373 . S
C165 C166 1.396 . S
C165 C172 1.403 . S
C166 C156 1.476 . S
C166 N161 1.318 . S
C166 C165 1.396 . S
H167 C162 0.929 . S
O168 Mn144 2.385 . S
O168 C146 1.234 . S
O169 Mn144 2.209 . S
O169 Mn145 2.215 . S
O169 C146 1.283 . S
O170 Mn144 2.094 . S
O170 C148 1.240 . S
O171 Mn145 2.117 . S
O171 C148 1.264 . S
C172 C165 1.403 . S
C172 C173 1.399 . S
C172 H178 0.929 . S
C173 C153 1.449 . S
C173 C172 1.399 . S
C173 H179 0.930 . S
H174 C154 0.931 . S
H175 C155 0.930 . S
H176 C163 0.931 . S
H177 C164 0.929 . S
H178 C172 0.929 . S
H179 C173 0.930 . S
Mn180 O185 2.095 . S
Mn180 O195 2.162 . S
Mn180 O196 2.297 . S
Mn180 O204 2.385 . S
Mn180 O205 2.209 . S
Mn180 O206 2.094 . S
Mn181 O186 2.121 . S
Mn181 N188 2.257 . S
Mn181 N197 2.282 . S
Mn181 O205 2.215 . S
Mn181 O207 2.117 . S
C182 O204 1.234 . S
C182 O205 1.283 . S
C183 O195 1.281 . S
C183 O196 1.236 . S
C184 O206 1.240 . S
C184 O207 1.264 . S
O185 Mn180 2.095 . S
O185 C194 1.250 . S
O186 Mn181 2.121 . S
O186 C194 1.258 . S
C187 N188 1.326 . S
C187 C191 1.460 . S
C187 H193 0.929 . S
N188 Mn181 2.257 . S
N188 C187 1.326 . S
N188 C192 1.362 . S
C189 C190 1.258 . S
C189 C192 1.431 . S
C189 C209 1.449 . S
C190 C189 1.258 . S
C190 C191 1.477 . S
C190 H210 0.931 . S
C191 C187 1.460 . S
C191 C190 1.477 . S
C191 H211 0.930 . S
C192 N188 1.362 . S
C192 C189 1.431 . S
C192 C202 1.476 . S
H193 C187 0.929 . S
C194 O185 1.250 . S
C194 O186 1.258 . S
O195 Mn180 2.162 . S
O195 C183 1.281 . S
O196 Mn180 2.297 . S
O196 C183 1.236 . S
N197 Mn181 2.282 . S
N197 C198 1.328 . S
N197 C202 1.318 . S
C198 N197 1.328 . S
C198 C199 1.457 . S
C198 H203 0.929 . S
C199 C198 1.457 . S
C199 C200 1.291 . S
C199 H212 0.931 . S
C200 C199 1.291 . S
C200 C201 1.373 . S
C200 H213 0.929 . S
C201 C200 1.373 . S
C201 C202 1.396 . S
C201 C208 1.403 . S
C202 C192 1.476 . S
C202 N197 1.318 . S
C202 C201 1.396 . S
H203 C198 0.929 . S
O204 Mn180 2.385 . S
O204 C182 1.234 . S
O205 Mn180 2.209 . S
O205 Mn181 2.215 . S
O205 C182 1.283 . S
O206 Mn180 2.094 . S
O206 C184 1.240 . S
O207 Mn181 2.117 . S
O207 C184 1.264 . S
C208 C201 1.403 . S
C208 C209 1.399 . S
C208 H214 0.929 . S
C209 C189 1.449 . S
C209 C208 1.399 . S
C209 H215 0.930 . S
H210 C190 0.931 . S
H211 C191 0.930 . S
H212 C199 0.931 . S
H213 C200 0.929 . S
H214 C208 0.929 . S
H215 C209 0.930 . S
Mn216 O221 2.095 . S
Mn216 O231 2.162 . S
Mn216 O232 2.297 . S
Mn216 O240 2.385 . S
Mn216 O241 2.209 . S
Mn216 O242 2.094 . S
Mn217 O222 2.121 . S
Mn217 N224 2.257 . S
Mn217 N233 2.282 . S
Mn217 O241 2.215 . S
Mn217 O243 2.117 . S
C218 O240 1.234 . S
C218 O241 1.283 . S
C219 O231 1.281 . S
C219 O232 1.236 . S
C220 O242 1.240 . S
C220 O243 1.264 . S
O221 Mn216 2.095 . S
O221 C230 1.250 . S
O222 Mn217 2.121 . S
O222 C230 1.258 . S
C223 N224 1.326 . S
C223 C227 1.460 . S
C223 H229 0.929 . S
N224 Mn217 2.257 . S
N224 C223 1.326 . S
N224 C228 1.362 . S
C225 C226 1.258 . S
C225 C228 1.431 . S
C225 C245 1.449 . S
C226 C225 1.258 . S
C226 C227 1.477 . S
C226 H246 0.931 . S
C227 C223 1.460 . S
C227 C226 1.477 . S
C227 H247 0.930 . S
C228 N224 1.362 . S
C228 C225 1.431 . S
C228 C238 1.476 . S
H229 C223 0.929 . S
C230 O221 1.250 . S
C230 O222 1.258 . S
O231 Mn216 2.162 . S
O231 C219 1.281 . S
O232 Mn216 2.297 . S
O232 C219 1.236 . S
N233 Mn217 2.282 . S
N233 C234 1.328 . S
N233 C238 1.318 . S
C234 N233 1.328 . S
C234 C235 1.457 . S
C234 H239 0.929 . S
C235 C234 1.457 . S
C235 C236 1.291 . S
C235 H248 0.931 . S
C236 C235 1.291 . S
C236 C237 1.373 . S
C236 H249 0.929 . S
C237 C236 1.373 . S
C237 C238 1.396 . S
C237 C244 1.403 . S
C238 C228 1.476 . S
C238 N233 1.318 . S
C238 C237 1.396 . S
H239 C234 0.929 . S
O240 Mn216 2.385 . S
O240 C218 1.234 . S
O241 Mn216 2.209 . S
O241 Mn217 2.215 . S
O241 C218 1.283 . S
O242 Mn216 2.094 . S
O242 C220 1.240 . S
O243 Mn217 2.117 . S
O243 C220 1.264 . S
C244 C237 1.403 . S
C244 C245 1.399 . S
C244 H250 0.929 . S
C245 C225 1.449 . S
C245 C244 1.399 . S
C245 H251 0.930 . S
H246 C226 0.931 . S
H247 C227 0.930 . S
H248 C235 0.931 . S
H249 C236 0.929 . S
H250 C244 0.929 . S
H251 C245 0.930 . S
Mn252 O257 2.095 . S
Mn252 O267 2.162 . S
Mn252 O268 2.297 . S
Mn252 O276 2.385 . S
Mn252 O277 2.209 . S
Mn252 O278 2.094 . S
Mn253 O258 2.121 . S
Mn253 N260 2.257 . S
Mn253 N269 2.282 . S
Mn253 O277 2.215 . S
Mn253 O279 2.117 . S
C254 O276 1.234 . S
C254 O277 1.283 . S
C255 O267 1.281 . S
C255 O268 1.236 . S
C256 O278 1.240 . S
C256 O279 1.264 . S
O257 Mn252 2.095 . S
O257 C266 1.250 . S
O258 Mn253 2.121 . S
O258 C266 1.258 . S
C259 N260 1.326 . S
C259 C263 1.460 . S
C259 H265 0.929 . S
N260 Mn253 2.257 . S
N260 C259 1.326 . S
N260 C264 1.362 . S
C261 C262 1.258 . S
C261 C264 1.431 . S
C261 C281 1.449 . S
C262 C261 1.258 . S
C262 C263 1.477 . S
C262 H282 0.931 . S
C263 C259 1.460 . S
C263 C262 1.477 . S
C263 H283 0.930 . S
C264 N260 1.362 . S
C264 C261 1.431 . S
C264 C274 1.476 . S
H265 C259 0.929 . S
C266 O257 1.250 . S
C266 O258 1.258 . S
O267 Mn252 2.162 . S
O267 C255 1.281 . S
O268 Mn252 2.297 . S
O268 C255 1.236 . S
N269 Mn253 2.282 . S
N269 C270 1.328 . S
N269 C274 1.318 . S
C270 N269 1.328 . S
C270 C271 1.457 . S
C270 H275 0.929 . S
C271 C270 1.457 . S
C271 C272 1.291 . S
C271 H284 0.931 . S
C272 C271 1.291 . S
C272 C273 1.373 . S
C272 H285 0.929 . S
C273 C272 1.373 . S
C273 C274 1.396 . S
C273 C280 1.403 . S
C274 C264 1.476 . S
C274 N269 1.318 . S
C274 C273 1.396 . S
H275 C270 0.929 . S
O276 Mn252 2.385 . S
O276 C254 1.234 . S
O277 Mn252 2.209 . S
O277 Mn253 2.215 . S
O277 C254 1.283 . S
O278 Mn252 2.094 . S
O278 C256 1.240 . S
O279 Mn253 2.117 . S
O279 C256 1.264 . S
C280 C273 1.403 . S
C280 C281 1.399 . S
C280 H286 0.929 . S
C281 C261 1.449 . S
C281 C280 1.399 . S
C281 H287 0.930 . S
H282 C262 0.931 . S
H283 C263 0.930 . S
H284 C271 0.931 . S
H285 C272 0.929 . S
H286 C280 0.929 . S
H287 C281 0.930 . S
Mn288 O293 2.095 . S
Mn288 O303 2.162 . S
Mn288 O304 2.297 . S
Mn288 O312 2.385 . S
Mn288 O313 2.209 . S
Mn288 O314 2.094 . S
Mn289 O294 2.121 . S
Mn289 N296 2.257 . S
Mn289 N305 2.282 . S
Mn289 O313 2.215 . S
Mn289 O315 2.117 . S
C290 O312 1.234 . S
C290 O313 1.283 . S
C291 O303 1.281 . S
C291 O304 1.236 . S
C292 O314 1.240 . S
C292 O315 1.264 . S
O293 Mn288 2.095 . S
O293 C302 1.250 . S
O294 Mn289 2.121 . S
O294 C302 1.258 . S
C295 N296 1.326 . S
C295 C299 1.460 . S
C295 H301 0.929 . S
N296 Mn289 2.257 . S
N296 C295 1.326 . S
N296 C300 1.362 . S
C297 C298 1.258 . S
C297 C300 1.431 . S
C297 C317 1.449 . S
C298 C297 1.258 . S
C298 C299 1.477 . S
C298 H318 0.931 . S
C299 C295 1.460 . S
C299 C298 1.477 . S
C299 H319 0.930 . S
C300 N296 1.362 . S
C300 C297 1.431 . S
C300 C310 1.476 . S
H301 C295 0.929 . S
C302 O293 1.250 . S
C302 O294 1.258 . S
O303 Mn288 2.162 . S
O303 C291 1.281 . S
O304 Mn288 2.297 . S
O304 C291 1.236 . S
N305 Mn289 2.282 . S
N305 C306 1.328 . S
N305 C310 1.318 . S
C306 N305 1.328 . S
C306 C307 1.457 . S
C306 H311 0.929 . S
C307 C306 1.457 . S
C307 C308 1.291 . S
C307 H320 0.931 . S
C308 C307 1.291 . S
C308 C309 1.373 . S
C308 H321 0.929 . S
C309 C308 1.373 . S
C309 C310 1.396 . S
C309 C316 1.403 . S
C310 C300 1.476 . S
C310 N305 1.318 . S
C310 C309 1.396 . S
H311 C306 0.929 . S
O312 Mn288 2.385 . S
O312 C290 1.234 . S
O313 Mn288 2.209 . S
O313 Mn289 2.215 . S
O313 C290 1.283 . S
O314 Mn288 2.094 . S
O314 C292 1.240 . S
O315 Mn289 2.117 . S
O315 C292 1.264 . S
C316 C309 1.403 . S
C316 C317 1.399 . S
C316 H322 0.929 . S
C317 C297 1.449 . S
C317 C316 1.399 . S
C317 H323 0.930 . S
H318 C298 0.931 . S
H319 C299 0.930 . S
H320 C307 0.931 . S
H321 C308 0.929 . S
H322 C316 0.929 . S
H323 C317 0.930 . S
Mn324 O329 2.095 . S
Mn324 O339 2.162 . S
Mn324 O340 2.297 . S
Mn324 O348 2.385 . S
Mn324 O349 2.209 . S
Mn324 O350 2.094 . S
Mn325 O330 2.121 . S
Mn325 N332 2.257 . S
Mn325 N341 2.282 . S
Mn325 O349 2.215 . S
Mn325 O351 2.117 . S
C326 O348 1.234 . S
C326 O349 1.283 . S
C327 O339 1.281 . S
C327 O340 1.236 . S
C328 O350 1.240 . S
C328 O351 1.264 . S
O329 Mn324 2.095 . S
O329 C338 1.250 . S
O330 Mn325 2.121 . S
O330 C338 1.258 . S
C331 N332 1.326 . S
C331 C335 1.460 . S
C331 H337 0.929 . S
N332 Mn325 2.257 . S
N332 C331 1.326 . S
N332 C336 1.362 . S
C333 C334 1.258 . S
C333 C336 1.431 . S
C333 C353 1.449 . S
C334 C333 1.258 . S
C334 C335 1.477 . S
C334 H354 0.931 . S
C335 C331 1.460 . S
C335 C334 1.477 . S
C335 H355 0.930 . S
C336 N332 1.362 . S
C336 C333 1.431 . S
C336 C346 1.476 . S
H337 C331 0.929 . S
C338 O329 1.250 . S
C338 O330 1.258 . S
O339 Mn324 2.162 . S
O339 C327 1.281 . S
O340 Mn324 2.297 . S
O340 C327 1.236 . S
N341 Mn325 2.282 . S
N341 C342 1.328 . S
N341 C346 1.318 . S
C342 N341 1.328 . S
C342 C343 1.457 . S
C342 H347 0.929 . S
C343 C342 1.457 . S
C343 C344 1.291 . S
C343 H356 0.931 . S
C344 C343 1.291 . S
C344 C345 1.373 . S
C344 H357 0.929 . S
C345 C344 1.373 . S
C345 C346 1.396 . S
C345 C352 1.403 . S
C346 C336 1.476 . S
C346 N341 1.318 . S
C346 C345 1.396 . S
H347 C342 0.929 . S
O348 Mn324 2.385 . S
O348 C326 1.234 . S
O349 Mn324 2.209 . S
O349 Mn325 2.215 . S
O349 C326 1.283 . S
O350 Mn324 2.094 . S
O350 C328 1.240 . S
O351 Mn325 2.117 . S
O351 C328 1.264 . S
C352 C345 1.403 . S
C352 C353 1.399 . S
C352 H358 0.929 . S
C353 C333 1.449 . S
C353 C352 1.399 . S
C353 H359 0.930 . S
H354 C334 0.931 . S
H355 C335 0.930 . S
H356 C343 0.931 . S
H357 C344 0.929 . S
H358 C352 0.929 . S
H359 C353 0.930 . S
Mn360 O365 2.095 . S
Mn360 O375 2.162 . S
Mn360 O376 2.297 . S
Mn360 O384 2.385 . S
Mn360 O385 2.209 . S
Mn360 O386 2.094 . S
Mn361 O366 2.121 . S
Mn361 N368 2.257 . S
Mn361 N377 2.282 . S
Mn361 O385 2.215 . S
Mn361 O387 2.117 . S
C362 O384 1.234 . S
C362 O385 1.283 . S
C363 O375 1.281 . S
C363 O376 1.236 . S
C364 O386 1.240 . S
C364 O387 1.264 . S
O365 Mn360 2.095 . S
O365 C374 1.250 . S
O366 Mn361 2.121 . S
O366 C374 1.258 . S
C367 N368 1.326 . S
C367 C371 1.460 . S
C367 H373 0.929 . S
N368 Mn361 2.257 . S
N368 C367 1.326 . S
N368 C372 1.362 . S
C369 C370 1.258 . S
C369 C372 1.431 . S
C369 C389 1.449 . S
C370 C369 1.258 . S
C370 C371 1.477 . S
C370 H390 0.931 . S
C371 C367 1.460 . S
C371 C370 1.477 . S
C371 H391 0.930 . S
C372 N368 1.362 . S
C372 C369 1.431 . S
C372 C382 1.476 . S
H373 C367 0.929 . S
C374 O365 1.250 . S
C374 O366 1.258 . S
O375 Mn360 2.162 . S
O375 C363 1.281 . S
O376 Mn360 2.297 . S
O376 C363 1.236 . S
N377 Mn361 2.282 . S
N377 C378 1.328 . S
N377 C382 1.318 . S
C378 N377 1.328 . S
C378 C379 1.457 . S
C378 H383 0.929 . S
C379 C378 1.457 . S
C379 C380 1.291 . S
C379 H392 0.931 . S
C380 C379 1.291 . S
C380 C381 1.373 . S
C380 H393 0.929 . S
C381 C380 1.373 . S
C381 C382 1.396 . S
C381 C388 1.403 . S
C382 C372 1.476 . S
C382 N377 1.318 . S
C382 C381 1.396 . S
H383 C378 0.929 . S
O384 Mn360 2.385 . S
O384 C362 1.234 . S
O385 Mn360 2.209 . S
O385 Mn361 2.215 . S
O385 C362 1.283 . S
O386 Mn360 2.094 . S
O386 C364 1.240 . S
O387 Mn361 2.117 . S
O387 C364 1.264 . S
C388 C381 1.403 . S
C388 C389 1.399 . S
C388 H394 0.929 . S
C389 C369 1.449 . S
C389 C388 1.399 . S
C389 H395 0.930 . S
H390 C370 0.931 . S
H391 C371 0.930 . S
H392 C379 0.931 . S
H393 C380 0.929 . S
H394 C388 0.929 . S
H395 C389 0.930 . S
Mn396 O401 2.095 . S
Mn396 O411 2.162 . S
Mn396 O412 2.297 . S
Mn396 O420 2.385 . S
Mn396 O421 2.209 . S
Mn396 O422 2.094 . S
Mn397 O402 2.121 . S
Mn397 N404 2.257 . S
Mn397 N413 2.282 . S
Mn397 O421 2.215 . S
Mn397 O423 2.117 . S
C398 O420 1.234 . S
C398 O421 1.283 . S
C399 O411 1.281 . S
C399 O412 1.236 . S
C400 O422 1.240 . S
C400 O423 1.264 . S
O401 Mn396 2.095 . S
O401 C410 1.250 . S
O402 Mn397 2.121 . S
O402 C410 1.258 . S
C403 N404 1.326 . S
C403 C407 1.460 . S
C403 H409 0.929 . S
N404 Mn397 2.257 . S
N404 C403 1.326 . S
N404 C408 1.362 . S
C405 C406 1.258 . S
C405 C408 1.431 . S
C405 C425 1.449 . S
C406 C405 1.258 . S
C406 C407 1.477 . S
C406 H426 0.931 . S
C407 C403 1.460 . S
C407 C406 1.477 . S
C407 H427 0.930 . S
C408 N404 1.362 . S
C408 C405 1.431 . S
C408 C418 1.476 . S
H409 C403 0.929 . S
C410 O401 1.250 . S
C410 O402 1.258 . S
O411 Mn396 2.162 . S
O411 C399 1.281 . S
O412 Mn396 2.297 . S
O412 C399 1.236 . S
N413 Mn397 2.282 . S
N413 C414 1.328 . S
N413 C418 1.318 . S
C414 N413 1.328 . S
C414 C415 1.457 . S
C414 H419 0.929 . S
C415 C414 1.457 . S
C415 C416 1.291 . S
C415 H428 0.931 . S
C416 C415 1.291 . S
C416 C417 1.373 . S
C416 H429 0.929 . S
C417 C416 1.373 . S
C417 C418 1.396 . S
C417 C424 1.403 . S
C418 C408 1.476 . S
C418 N413 1.318 . S
C418 C417 1.396 . S
H419 C414 0.929 . S
O420 Mn396 2.385 . S
O420 C398 1.234 . S
O421 Mn396 2.209 . S
O421 Mn397 2.215 . S
O421 C398 1.283 . S
O422 Mn396 2.094 . S
O422 C400 1.240 . S
O423 Mn397 2.117 . S
O423 C400 1.264 . S
C424 C417 1.403 . S
C424 C425 1.399 . S
C424 H430 0.929 . S
C425 C405 1.449 . S
C425 C424 1.399 . S
C425 H431 0.930 . S
H426 C406 0.931 . S
H427 C407 0.930 . S
H428 C415 0.931 . S
H429 C416 0.929 . S
H430 C424 0.929 . S
H431 C425 0.930 . S
Mn432 O437 2.095 . S
Mn432 O447 2.162 . S
Mn432 O448 2.297 . S
Mn432 O456 2.385 . S
Mn432 O457 2.209 . S
Mn432 O458 2.094 . S
Mn433 O438 2.121 . S
Mn433 N440 2.257 . S
Mn433 N449 2.282 . S
Mn433 O457 2.215 . S
Mn433 O459 2.117 . S
C434 O456 1.234 . S
C434 O457 1.283 . S
C435 O447 1.281 . S
C435 O448 1.236 . S
C436 O458 1.240 . S
C436 O459 1.264 . S
O437 Mn432 2.095 . S
O437 C446 1.250 . S
O438 Mn433 2.121 . S
O438 C446 1.258 . S
C439 N440 1.326 . S
C439 C443 1.460 . S
C439 H445 0.929 . S
N440 Mn433 2.257 . S
N440 C439 1.326 . S
N440 C444 1.362 . S
C441 C442 1.258 . S
C441 C444 1.431 . S
C441 C461 1.449 . S
C442 C441 1.258 . S
C442 C443 1.477 . S
C442 H462 0.931 . S
C443 C439 1.460 . S
C443 C442 1.477 . S
C443 H463 0.930 . S
C444 N440 1.362 . S
C444 C441 1.431 . S
C444 C454 1.476 . S
H445 C439 0.929 . S
C446 O437 1.250 . S
C446 O438 1.258 . S
O447 Mn432 2.162 . S
O447 C435 1.281 . S
O448 Mn432 2.297 . S
O448 C435 1.236 . S
N449 Mn433 2.282 . S
N449 C450 1.328 . S
N449 C454 1.318 . S
C450 N449 1.328 . S
C450 C451 1.457 . S
C450 H455 0.929 . S
C451 C450 1.457 . S
C451 C452 1.291 . S
C451 H464 0.931 . S
C452 C451 1.291 . S
C452 C453 1.373 . S
C452 H465 0.929 . S
C453 C452 1.373 . S
C453 C454 1.396 . S
C453 C460 1.403 . S
C454 C444 1.476 . S
C454 N449 1.318 . S
C454 C453 1.396 . S
H455 C450 0.929 . S
O456 Mn432 2.385 . S
O456 C434 1.234 . S
O457 Mn432 2.209 . S
O457 Mn433 2.215 . S
O457 C434 1.283 . S
O458 Mn432 2.094 . S
O458 C436 1.240 . S
O459 Mn433 2.117 . S
O459 C436 1.264 . S
C460 C453 1.403 . S
C460 C461 1.399 . S
C460 H466 0.929 . S
C461 C441 1.449 . S
C461 C460 1.399 . S
C461 H467 0.930 . S
H462 C442 0.931 . S
H463 C443 0.930 . S
H464 C451 0.931 . S
H465 C452 0.929 . S
H466 C460 0.929 . S
H467 C461 0.930 . S
Mn468 O473 2.095 . S
Mn468 O483 2.162 . S
Mn468 O484 2.297 . S
Mn468 O492 2.385 . S
Mn468 O493 2.209 . S
Mn468 O494 2.094 . S
Mn469 O474 2.121 . S
Mn469 N476 2.257 . S
Mn469 N485 2.282 . S
Mn469 O493 2.215 . S
Mn469 O495 2.117 . S
C470 O492 1.234 . S
C470 O493 1.283 . S
C471 O483 1.281 . S
C471 O484 1.236 . S
C472 O494 1.240 . S
C472 O495 1.264 . S
O473 Mn468 2.095 . S
O473 C482 1.250 . S
O474 Mn469 2.121 . S
O474 C482 1.258 . S
C475 N476 1.326 . S
C475 C479 1.460 . S
C475 H481 0.929 . S
N476 Mn469 2.257 . S
N476 C475 1.326 . S
N476 C480 1.362 . S
C477 C478 1.258 . S
C477 C480 1.431 . S
C477 C497 1.449 . S
C478 C477 1.258 . S
C478 C479 1.477 . S
C478 H498 0.931 . S
C479 C475 1.460 . S
C479 C478 1.477 . S
C479 H499 0.930 . S
C480 N476 1.362 . S
C480 C477 1.431 . S
C480 C490 1.476 . S
H481 C475 0.929 . S
C482 O473 1.250 . S
C482 O474 1.258 . S
O483 Mn468 2.162 . S
O483 C471 1.281 . S
O484 Mn468 2.297 . S
O484 C471 1.236 . S
N485 Mn469 2.282 . S
N485 C486 1.328 . S
N485 C490 1.318 . S
C486 N485 1.328 . S
C486 C487 1.457 . S
C486 H491 0.929 . S
C487 C486 1.457 . S
C487 C488 1.291 . S
C487 H500 0.931 . S
C488 C487 1.291 . S
C488 C489 1.373 . S
C488 H501 0.929 . S
C489 C488 1.373 . S
C489 C490 1.396 . S
C489 C496 1.403 . S
C490 C480 1.476 . S
C490 N485 1.318 . S
C490 C489 1.396 . S
H491 C486 0.929 . S
O492 Mn468 2.385 . S
O492 C470 1.234 . S
O493 Mn468 2.209 . S
O493 Mn469 2.215 . S
O493 C470 1.283 . S
O494 Mn468 2.094 . S
O494 C472 1.240 . S
O495 Mn469 2.117 . S
O495 C472 1.264 . S
C496 C489 1.403 . S
C496 C497 1.399 . S
C496 H502 0.929 . S
C497 C477 1.449 . S
C497 C496 1.399 . S
C497 H503 0.930 . S
H498 C478 0.931 . S
H499 C479 0.930 . S
H500 C487 0.931 . S
H501 C488 0.929 . S
H502 C496 0.929 . S
H503 C497 0.930 . S
Mn504 O509 2.095 . S
Mn504 O519 2.162 . S
Mn504 O520 2.297 . S
Mn504 O528 2.385 . S
Mn504 O529 2.209 . S
Mn504 O530 2.094 . S
Mn505 O510 2.121 . S
Mn505 N512 2.257 . S
Mn505 N521 2.282 . S
Mn505 O529 2.215 . S
Mn505 O531 2.117 . S
C506 O528 1.234 . S
C506 O529 1.283 . S
C507 O519 1.281 . S
C507 O520 1.236 . S
C508 O530 1.240 . S
C508 O531 1.264 . S
O509 Mn504 2.095 . S
O509 C518 1.250 . S
O510 Mn505 2.121 . S
O510 C518 1.258 . S
C511 N512 1.326 . S
C511 C515 1.460 . S
C511 H517 0.929 . S
N512 Mn505 2.257 . S
N512 C511 1.326 . S
N512 C516 1.362 . S
C513 C514 1.258 . S
C513 C516 1.431 . S
C513 C533 1.449 . S
C514 C513 1.258 . S
C514 C515 1.477 . S
C514 H534 0.931 . S
C515 C511 1.460 . S
C515 C514 1.477 . S
C515 H535 0.930 . S
C516 N512 1.362 . S
C516 C513 1.431 . S
C516 C526 1.476 . S
H517 C511 0.929 . S
C518 O509 1.250 . S
C518 O510 1.258 . S
O519 Mn504 2.162 . S
O519 C507 1.281 . S
O520 Mn504 2.297 . S
O520 C507 1.236 . S
N521 Mn505 2.282 . S
N521 C522 1.328 . S
N521 C526 1.318 . S
C522 N521 1.328 . S
C522 C523 1.457 . S
C522 H527 0.929 . S
C523 C522 1.457 . S
C523 C524 1.291 . S
C523 H536 0.931 . S
C524 C523 1.291 . S
C524 C525 1.373 . S
C524 H537 0.929 . S
C525 C524 1.373 . S
C525 C526 1.396 . S
C525 C532 1.403 . S
C526 C516 1.476 . S
C526 N521 1.318 . S
C526 C525 1.396 . S
H527 C522 0.929 . S
O528 Mn504 2.385 . S
O528 C506 1.234 . S
O529 Mn504 2.209 . S
O529 Mn505 2.215 . S
O529 C506 1.283 . S
O530 Mn504 2.094 . S
O530 C508 1.240 . S
O531 Mn505 2.117 . S
O531 C508 1.264 . S
C532 C525 1.403 . S
C532 C533 1.399 . S
C532 H538 0.929 . S
C533 C513 1.449 . S
C533 C532 1.399 . S
C533 H539 0.930 . S
H534 C514 0.931 . S
H535 C515 0.930 . S
H536 C523 0.931 . S
H537 C524 0.929 . S
H538 C532 0.929 . S
H539 C533 0.930 . S
Mn540 O545 2.095 . S
Mn540 O555 2.162 . S
Mn540 O556 2.297 . S
Mn540 O564 2.385 . S
Mn540 O565 2.209 . S
Mn540 O566 2.094 . S
Mn541 O546 2.121 . S
Mn541 N548 2.257 . S
Mn541 N557 2.282 . S
Mn541 O565 2.215 . S
Mn541 O567 2.117 . S
C542 O564 1.234 . S
C542 O565 1.283 . S
C543 O555 1.281 . S
C543 O556 1.236 . S
C544 O566 1.240 . S
C544 O567 1.264 . S
O545 Mn540 2.095 . S
O545 C554 1.250 . S
O546 Mn541 2.121 . S
O546 C554 1.258 . S
C547 N548 1.326 . S
C547 C551 1.460 . S
C547 H553 0.929 . S
N548 Mn541 2.257 . S
N548 C547 1.326 . S
N548 C552 1.362 . S
C549 C550 1.258 . S
C549 C552 1.431 . S
C549 C569 1.449 . S
C550 C549 1.258 . S
C550 C551 1.477 . S
C550 H570 0.931 . S
C551 C547 1.460 . S
C551 C550 1.477 . S
C551 H571 0.930 . S
C552 N548 1.362 . S
C552 C549 1.431 . S
C552 C562 1.476 . S
H553 C547 0.929 . S
C554 O545 1.250 . S
C554 O546 1.258 . S
O555 Mn540 2.162 . S
O555 C543 1.281 . S
O556 Mn540 2.297 . S
O556 C543 1.236 . S
N557 Mn541 2.282 . S
N557 C558 1.328 . S
N557 C562 1.318 . S
C558 N557 1.328 . S
C558 C559 1.457 . S
C558 H563 0.929 . S
C559 C558 1.457 . S
C559 C560 1.291 . S
C559 H572 0.931 . S
C560 C559 1.291 . S
C560 C561 1.373 . S
C560 H573 0.929 . S
C561 C560 1.373 . S
C561 C562 1.396 . S
C561 C568 1.403 . S
C562 C552 1.476 . S
C562 N557 1.318 . S
C562 C561 1.396 . S
H563 C558 0.929 . S
O564 Mn540 2.385 . S
O564 C542 1.234 . S
O565 Mn540 2.209 . S
O565 Mn541 2.215 . S
O565 C542 1.283 . S
O566 Mn540 2.094 . S
O566 C544 1.240 . S
O567 Mn541 2.117 . S
O567 C544 1.264 . S
C568 C561 1.403 . S
C568 C569 1.399 . S
C568 H574 0.929 . S
C569 C549 1.449 . S
C569 C568 1.399 . S
C569 H575 0.930 . S
H570 C550 0.931 . S
H571 C551 0.930 . S
H572 C559 0.931 . S
H573 C560 0.929 . S
H574 C568 0.929 . S
H575 C569 0.930 . S
H576 C582 0.930 . S
H577 C586 0.930 . S
H578 C591 0.929 . S
H579 C589 0.929 . S
H580 C584 0.929 . S
H581 C590 0.929 . S
C582 H576 0.930 . S
C582 C583 1.367 . S
C582 C590 1.378 . S
C583 C582 1.367 . S
C583 C591 1.433 . S
C584 H580 0.929 . S
C584 C586 1.378 . S
C584 C588 1.350 . S
C585 C588 1.463 . S
C585 C590 1.350 . S
C585 N593 1.427 . S
C586 H577 0.930 . S
C586 C584 1.378 . S
C586 C587 1.367 . S
C587 C586 1.367 . S
C587 C589 1.433 . S
C588 C584 1.350 . S
C588 C585 1.463 . S
C588 N592 1.427 . S
C589 H579 0.929 . S
C589 C587 1.433 . S
C589 N592 1.384 . S
C590 H581 0.929 . S
C590 C582 1.378 . S
C590 C585 1.350 . S
C591 H578 0.929 . S
C591 C583 1.433 . S
C591 N593 1.384 . S
N592 C588 1.427 . S
N592 C589 1.384 . S
N593 C585 1.427 . S
N593 C591 1.384 . S
H594 C600 0.930 . S
H595 C604 0.930 . S
H596 C609 0.929 . S
H597 C607 0.929 . S
H598 C602 0.929 . S
H599 C608 0.929 . S
C600 H594 0.930 . S
C600 C601 1.367 . S
C600 C608 1.378 . S
C601 C600 1.367 . S
C601 C609 1.433 . S
C602 H598 0.929 . S
C602 C604 1.378 . S
C602 C606 1.350 . S
C603 C606 1.463 . S
C603 C608 1.350 . S
C603 N611 1.427 . S
C604 H595 0.930 . S
C604 C602 1.378 . S
C604 C605 1.367 . S
C605 C604 1.367 . S
C605 C607 1.433 . S
C606 C602 1.350 . S
C606 C603 1.463 . S
C606 N610 1.427 . S
C607 H597 0.929 . S
C607 C605 1.433 . S
C607 N610 1.384 . S
C608 H599 0.929 . S
C608 C600 1.378 . S
C608 C603 1.350 . S
C609 H596 0.929 . S
C609 C601 1.433 . S
C609 N611 1.384 . S
N610 C606 1.427 . S
N610 C607 1.384 . S
N611 C603 1.427 . S
N611 C609 1.384 . S
H612 C618 0.930 . S
H613 C622 0.930 . S
H614 C627 0.929 . S
H615 C625 0.929 . S
H616 C620 0.929 . S
H617 C626 0.929 . S
C618 H612 0.930 . S
C618 C619 1.367 . S
C618 C626 1.378 . S
C619 C618 1.367 . S
C619 C627 1.433 . S
C620 H616 0.929 . S
C620 C622 1.378 . S
C620 C624 1.350 . S
C621 C624 1.463 . S
C621 C626 1.350 . S
C621 N629 1.427 . S
C622 H613 0.930 . S
C622 C620 1.378 . S
C622 C623 1.367 . S
C623 C622 1.367 . S
C623 C625 1.433 . S
C624 C620 1.350 . S
C624 C621 1.463 . S
C624 N628 1.427 . S
C625 H615 0.929 . S
C625 C623 1.433 . S
C625 N628 1.384 . S
C626 H617 0.929 . S
C626 C618 1.378 . S
C626 C621 1.350 . S
C627 H614 0.929 . S
C627 C619 1.433 . S
C627 N629 1.384 . S
N628 C624 1.427 . S
N628 C625 1.384 . S
N629 C621 1.427 . S
N629 C627 1.384 . S
H630 C636 0.930 . S
H631 C640 0.930 . S
H632 C645 0.929 . S
H633 C643 0.929 . S
H634 C638 0.929 . S
H635 C644 0.929 . S
C636 H630 0.930 . S
C636 C637 1.367 . S
C636 C644 1.378 . S
C637 C636 1.367 . S
C637 C645 1.433 . S
C638 H634 0.929 . S
C638 C640 1.378 . S
C638 C642 1.350 . S
C639 C642 1.463 . S
C639 C644 1.350 . S
C639 N647 1.427 . S
C640 H631 0.930 . S
C640 C638 1.378 . S
C640 C641 1.367 . S
C641 C640 1.367 . S
C641 C643 1.433 . S
C642 C638 1.350 . S
C642 C639 1.463 . S
C642 N646 1.427 . S
C643 H633 0.929 . S
C643 C641 1.433 . S
C643 N646 1.384 . S
C644 H635 0.929 . S
C644 C636 1.378 . S
C644 C639 1.350 . S
C645 H632 0.929 . S
C645 C637 1.433 . S
C645 N647 1.384 . S
N646 C642 1.427 . S
N646 C643 1.384 . S
N647 C639 1.427 . S
N647 C645 1.384 . S
H648 C654 0.930 . S
H649 C658 0.930 . S
H650 C663 0.929 . S
H651 C661 0.929 . S
H652 C656 0.929 . S
H653 C662 0.929 . S
C654 H648 0.930 . S
C654 C655 1.367 . S
C654 C662 1.378 . S
C655 C654 1.367 . S
C655 C663 1.433 . S
C656 H652 0.929 . S
C656 C658 1.378 . S
C656 C660 1.350 . S
C657 C660 1.463 . S
C657 C662 1.350 . S
C657 N665 1.427 . S
C658 H649 0.930 . S
C658 C656 1.378 . S
C658 C659 1.367 . S
C659 C658 1.367 . S
C659 C661 1.433 . S
C660 C656 1.350 . S
C660 C657 1.463 . S
C660 N664 1.427 . S
C661 H651 0.929 . S
C661 C659 1.433 . S
C661 N664 1.384 . S
C662 H653 0.929 . S
C662 C654 1.378 . S
C662 C657 1.350 . S
C663 H650 0.929 . S
C663 C655 1.433 . S
C663 N665 1.384 . S
N664 C660 1.427 . S
N664 C661 1.384 . S
N665 C657 1.427 . S
N665 C663 1.384 . S
H666 C672 0.930 . S
H667 C676 0.930 . S
H668 C681 0.929 . S
H669 C679 0.929 . S
H670 C674 0.929 . S
H671 C680 0.929 . S
C672 H666 0.930 . S
C672 C673 1.367 . S
C672 C680 1.378 . S
C673 C672 1.367 . S
C673 C681 1.433 . S
C674 H670 0.929 . S
C674 C676 1.378 . S
C674 C678 1.350 . S
C675 C678 1.463 . S
C675 C680 1.350 . S
C675 N683 1.427 . S
C676 H667 0.930 . S
C676 C674 1.378 . S
C676 C677 1.367 . S
C677 C676 1.367 . S
C677 C679 1.433 . S
C678 C674 1.350 . S
C678 C675 1.463 . S
C678 N682 1.427 . S
C679 H669 0.929 . S
C679 C677 1.433 . S
C679 N682 1.384 . S
C680 H671 0.929 . S
C680 C672 1.378 . S
C680 C675 1.350 . S
C681 H668 0.929 . S
C681 C673 1.433 . S
C681 N683 1.384 . S
N682 C678 1.427 . S
N682 C679 1.384 . S
N683 C675 1.427 . S
N683 C681 1.384 . S
H684 C690 0.930 . S
H685 C694 0.930 . S
H686 C699 0.929 . S
H687 C697 0.929 . S
H688 C692 0.929 . S
H689 C698 0.929 . S
C690 H684 0.930 . S
C690 C691 1.367 . S
C690 C698 1.378 . S
C691 C690 1.367 . S
C691 C699 1.433 . S
C692 H688 0.929 . S
C692 C694 1.378 . S
C692 C696 1.350 . S
C693 C696 1.463 . S
C693 C698 1.350 . S
C693 N701 1.427 . S
C694 H685 0.930 . S
C694 C692 1.378 . S
C694 C695 1.367 . S
C695 C694 1.367 . S
C695 C697 1.433 . S
C696 C692 1.350 . S
C696 C693 1.463 . S
C696 N700 1.427 . S
C697 H687 0.929 . S
C697 C695 1.433 . S
C697 N700 1.384 . S
C698 H689 0.929 . S
C698 C690 1.378 . S
C698 C693 1.350 . S
C699 H686 0.929 . S
C699 C691 1.433 . S
C699 N701 1.384 . S
N700 C696 1.427 . S
N700 C697 1.384 . S
N701 C693 1.427 . S
N701 C699 1.384 . S
H702 C708 0.930 . S
H703 C712 0.930 . S
H704 C717 0.929 . S
H705 C715 0.929 . S
H706 C710 0.929 . S
H707 C716 0.929 . S
C708 H702 0.930 . S
C708 C709 1.367 . S
C708 C716 1.378 . S
C709 C708 1.367 . S
C709 C717 1.433 . S
C710 H706 0.929 . S
C710 C712 1.378 . S
C710 C714 1.350 . S
C711 C714 1.463 . S
C711 C716 1.350 . S
C711 N719 1.427 . S
C712 H703 0.930 . S
C712 C710 1.378 . S
C712 C713 1.367 . S
C713 C712 1.367 . S
C713 C715 1.433 . S
C714 C710 1.350 . S
C714 C711 1.463 . S
C714 N718 1.427 . S
C715 H705 0.929 . S
C715 C713 1.433 . S
C715 N718 1.384 . S
C716 H707 0.929 . S
C716 C708 1.378 . S
C716 C711 1.350 . S
C717 H704 0.929 . S
C717 C709 1.433 . S
C717 N719 1.384 . S
N718 C714 1.427 . S
N718 C715 1.384 . S
N719 C711 1.427 . S
N719 C717 1.384 . S
H720 C726 0.930 . S
H721 C730 0.930 . S
H722 C735 0.929 . S
H723 C733 0.929 . S
H724 C728 0.932 . S
H725 C734 0.929 . S
C726 H720 0.930 . S
C726 C727 1.367 . S
C726 C734 1.378 . S
C727 C726 1.367 . S
C727 C735 1.433 . S
C728 H724 0.932 . S
C728 C730 1.378 . S
C728 C732 1.350 . S
C729 C732 1.463 1_565 S
C729 C734 1.350 . S
C729 N737 1.427 . S
C730 H721 0.930 . S
C730 C728 1.378 . S
C730 C731 1.367 . S
C731 C730 1.367 . S
C731 C733 1.433 . S
C732 C728 1.350 . S
C732 C729 1.463 1_545 S
C732 N736 1.427 . S
C733 H723 0.929 . S
C733 C731 1.433 . S
C733 N736 1.384 . S
C734 H725 0.929 . S
C734 C726 1.378 . S
C734 C729 1.350 . S
C735 H722 0.929 . S
C735 C727 1.433 . S
C735 N737 1.384 . S
N736 C732 1.427 . S
N736 C733 1.384 . S
N737 C729 1.427 . S
N737 C735 1.384 . S
H738 C744 0.930 . S
H739 C748 0.930 . S
H740 C753 0.929 . S
H741 C751 0.929 . S
H742 C746 0.929 . S
H743 C752 0.929 . S
C744 H738 0.930 . S
C744 C745 1.367 . S
C744 C752 1.378 . S
C745 C744 1.367 . S
C745 C753 1.433 . S
C746 H742 0.929 . S
C746 C748 1.378 . S
C746 C750 1.350 . S
C747 C750 1.463 . S
C747 C752 1.350 . S
C747 N755 1.427 . S
C748 H739 0.930 . S
C748 C746 1.378 . S
C748 C749 1.367 . S
C749 C748 1.367 . S
C749 C751 1.433 . S
C750 C746 1.350 . S
C750 C747 1.463 . S
C750 N754 1.427 . S
C751 H741 0.929 . S
C751 C749 1.433 . S
C751 N754 1.384 . S
C752 H743 0.929 . S
C752 C744 1.378 . S
C752 C747 1.350 . S
C753 H740 0.929 . S
C753 C745 1.433 . S
C753 N755 1.384 . S
N754 C750 1.427 . S
N754 C751 1.384 . S
N755 C747 1.427 . S
N755 C753 1.384 . S
H756 C762 0.930 . S
H757 C766 0.930 . S
H758 C771 0.929 . S
H759 C769 0.929 . S
H760 C764 0.929 . S
H761 C770 0.929 . S
C762 H756 0.930 . S
C762 C763 1.367 . S
C762 C770 1.378 . S
C763 C762 1.367 . S
C763 C771 1.433 . S
C764 H760 0.929 . S
C764 C766 1.378 . S
C764 C768 1.350 . S
C765 C768 1.463 1_556 S
C765 C770 1.350 . S
C765 N773 1.427 . S
C766 H757 0.930 . S
C766 C764 1.378 . S
C766 C767 1.367 . S
C767 C766 1.367 . S
C767 C769 1.433 . S
C768 C764 1.350 . S
C768 C765 1.463 1_554 S
C768 N772 1.427 . S
C769 H759 0.929 . S
C769 C767 1.433 . S
C769 N772 1.384 . S
C770 H761 0.929 . S
C770 C762 1.378 . S
C770 C765 1.350 . S
C771 H758 0.929 . S
C771 C763 1.433 . S
C771 N773 1.384 . S
N772 C768 1.427 . S
N772 C769 1.384 . S
N773 C765 1.427 . S
N773 C771 1.384 . S
H774 C780 0.930 . S
H775 C784 0.930 . S
H776 C789 0.929 . S
H777 C787 0.929 . S
H778 C782 0.929 . S
H779 C788 0.929 . S
C780 H774 0.930 . S
C780 C781 1.367 . S
C780 C788 1.378 . S
C781 C780 1.367 . S
C781 C789 1.433 . S
C782 H778 0.929 . S
C782 C784 1.378 . S
C782 C786 1.350 . S
C783 C786 1.463 1_554 S
C783 C788 1.350 . S
C783 N791 1.427 . S
C784 H775 0.930 . S
C784 C782 1.378 . S
C784 C785 1.367 . S
C785 C784 1.367 . S
C785 C787 1.433 . S
C786 C782 1.350 . S
C786 C783 1.463 1_556 S
C786 N790 1.427 . S
C787 H777 0.929 . S
C787 C785 1.433 . S
C787 N790 1.384 . S
C788 H779 0.929 . S
C788 C780 1.378 . S
C788 C783 1.350 . S
C789 H776 0.929 . S
C789 C781 1.433 . S
C789 N791 1.384 . S
N790 C786 1.427 . S
N790 C787 1.384 . S
N791 C783 1.427 . S
N791 C789 1.384 . S
H792 C798 0.930 . S
H793 C802 0.930 . S
H794 C807 0.929 . S
H795 C805 0.929 . S
H796 C800 0.929 . S
H797 C806 0.929 . S
C798 H792 0.930 . S
C798 C799 1.367 . S
C798 C806 1.378 . S
C799 C798 1.367 . S
C799 C807 1.433 . S
C800 H796 0.929 . S
C800 C802 1.378 . S
C800 C804 1.350 . S
C801 C804 1.463 . S
C801 C806 1.350 . S
C801 N809 1.427 . S
C802 H793 0.930 . S
C802 C800 1.378 . S
C802 C803 1.367 . S
C803 C802 1.367 . S
C803 C805 1.433 . S
C804 C800 1.350 . S
C804 C801 1.463 . S
C804 N808 1.427 . S
C805 H795 0.929 . S
C805 C803 1.433 . S
C805 N808 1.384 . S
C806 H797 0.929 . S
C806 C798 1.378 . S
C806 C801 1.350 . S
C807 H794 0.929 . S
C807 C799 1.433 . S
C807 N809 1.384 . S
N808 C804 1.427 . S
N808 C805 1.384 . S
N809 C801 1.427 . S
N809 C807 1.384 . S
H810 C816 0.930 . S
H811 C820 0.930 . S
H812 C825 0.929 . S
H813 C823 0.929 . S
H814 C818 0.929 . S
H815 C824 0.929 . S
C816 H810 0.930 . S
C816 C817 1.367 . S
C816 C824 1.378 . S
C817 C816 1.367 . S
C817 C825 1.433 . S
C818 H814 0.929 . S
C818 C820 1.378 . S
C818 C822 1.350 . S
C819 C822 1.463 . S
C819 C824 1.350 . S
C819 N827 1.427 . S
C820 H811 0.930 . S
C820 C818 1.378 . S
C820 C821 1.367 . S
C821 C820 1.367 . S
C821 C823 1.433 . S
C822 C818 1.350 . S
C822 C819 1.463 . S
C822 N826 1.427 . S
C823 H813 0.929 . S
C823 C821 1.433 . S
C823 N826 1.384 . S
C824 H815 0.929 . S
C824 C816 1.378 . S
C824 C819 1.350 . S
C825 H812 0.929 . S
C825 C817 1.433 . S
C825 N827 1.384 . S
N826 C822 1.427 . S
N826 C823 1.384 . S
N827 C819 1.427 . S
N827 C825 1.384 . S
H828 C834 0.930 . S
H829 C838 0.930 . S
H830 C843 0.929 . S
H831 C841 0.929 . S
H832 C836 0.929 . S
H833 C842 0.929 . S
C834 H828 0.930 . S
C834 C835 1.367 . S
C834 C842 1.378 . S
C835 C834 1.367 . S
C835 C843 1.433 . S
C836 H832 0.929 . S
C836 C838 1.378 . S
C836 C840 1.350 . S
C837 C840 1.463 1_655 S
C837 C842 1.350 . S
C837 N845 1.427 . S
C838 H829 0.930 . S
C838 C836 1.378 . S
C838 C839 1.367 . S
C839 C838 1.367 . S
C839 C841 1.433 . S
C840 C836 1.350 . S
C840 C837 1.463 1_455 S
C840 N844 1.427 . S
C841 H831 0.929 . S
C841 C839 1.433 . S
C841 N844 1.384 . S
C842 H833 0.929 . S
C842 C834 1.378 . S
C842 C837 1.350 . S
C843 H830 0.929 . S
C843 C835 1.433 . S
C843 N845 1.384 . S
N844 C840 1.427 . S
N844 C841 1.384 . S
N845 C837 1.427 . S
N845 C843 1.384 . S
H846 C852 0.930 . S
H847 C856 0.930 . S
H848 C861 0.929 . S
H849 C859 0.929 . S
H850 C854 0.929 . S
H851 C860 0.929 . S
C852 H846 0.930 . S
C852 C853 1.367 . S
C852 C860 1.378 . S
C853 C852 1.367 . S
C853 C861 1.433 . S
C854 H850 0.929 . S
C854 C856 1.378 . S
C854 C858 1.350 . S
C855 C858 1.463 1_655 S
C855 C860 1.350 . S
C855 N863 1.427 . S
C856 H847 0.930 . S
C856 C854 1.378 . S
C856 C857 1.367 . S
C857 C856 1.367 . S
C857 C859 1.433 . S
C858 C854 1.350 . S
C858 C855 1.463 1_455 S
C858 N862 1.427 . S
C859 H849 0.929 . S
C859 C857 1.433 . S
C859 N862 1.384 . S
C860 H851 0.929 . S
C860 C852 1.378 . S
C860 C855 1.350 . S
C861 H848 0.929 . S
C861 C853 1.433 . S
C861 N863 1.384 . S
N862 C858 1.427 . S
N862 C859 1.384 . S
N863 C855 1.427 . S
N863 C861 1.384 . S
H864 C870 0.930 . S
H865 C874 0.930 . S
H866 C879 0.929 . S
H867 C877 0.929 . S
H868 C872 0.929 . S
H869 C878 0.929 . S
C870 H864 0.930 . S
C870 C871 1.367 . S
C870 C878 1.378 . S
C871 C870 1.367 . S
C871 C879 1.433 . S
C872 H868 0.929 . S
C872 C874 1.378 . S
C872 C876 1.350 . S
C873 C876 1.463 . S
C873 C878 1.350 . S
C873 N881 1.427 . S
C874 H865 0.930 . S
C874 C872 1.378 . S
C874 C875 1.367 . S
C875 C874 1.367 . S
C875 C877 1.433 . S
C876 C872 1.350 . S
C876 C873 1.463 . S
C876 N880 1.427 . S
C877 H867 0.929 . S
C877 C875 1.433 . S
C877 N880 1.384 . S
C878 H869 0.929 . S
C878 C870 1.378 . S
C878 C873 1.350 . S
C879 H866 0.929 . S
C879 C871 1.433 . S
C879 N881 1.384 . S
N880 C876 1.427 . S
N880 C877 1.384 . S
N881 C873 1.427 . S
N881 C879 1.384 . S
H882 C888 0.930 . S
H883 C892 0.930 . S
H884 C897 0.929 . S
H885 C895 0.929 . S
H886 C890 0.929 . S
H887 C896 0.929 . S
C888 H882 0.930 . S
C888 C889 1.367 . S
C888 C896 1.378 . S
C889 C888 1.367 . S
C889 C897 1.433 . S
C890 H886 0.929 . S
C890 C892 1.378 . S
C890 C894 1.350 1_565 S
C891 C894 1.463 . S
C891 C896 1.350 . S
C891 N899 1.427 . S
C892 H883 0.930 . S
C892 C890 1.378 . S
C892 C893 1.367 . S
C893 C892 1.367 . S
C893 C895 1.433 . S
C894 C890 1.350 1_545 S
C894 C891 1.463 . S
C894 N898 1.427 1_545 S
C895 H885 0.929 . S
C895 C893 1.433 . S
C895 N898 1.384 . S
C896 H887 0.929 . S
C896 C888 1.378 . S
C896 C891 1.350 . S
C897 H884 0.929 . S
C897 C889 1.433 . S
C897 N899 1.384 . S
N898 C894 1.427 1_565 S
N898 C895 1.384 . S
N899 C891 1.427 . S
N899 C897 1.384 . S
H900 C906 0.930 . S
H901 C910 0.930 . S
H902 C915 0.929 . S
H903 C913 0.929 . S
H904 C908 0.929 . S
H905 C914 0.929 . S
C906 H900 0.930 . S
C906 C907 1.367 . S
C906 C914 1.378 . S
C907 C906 1.367 . S
C907 C915 1.433 . S
C908 H904 0.929 . S
C908 C910 1.378 . S
C908 C912 1.350 . S
C909 C912 1.463 . S
C909 C914 1.350 . S
C909 N917 1.427 . S
C910 H901 0.930 . S
C910 C908 1.378 . S
C910 C911 1.367 . S
C911 C910 1.367 . S
C911 C913 1.433 . S
C912 C908 1.350 . S
C912 C909 1.463 . S
C912 N916 1.427 . S
C913 H903 0.929 . S
C913 C911 1.433 . S
C913 N916 1.384 . S
C914 H905 0.929 . S
C914 C906 1.378 . S
C914 C909 1.350 . S
C915 H902 0.929 . S
C915 C907 1.433 . S
C915 N917 1.384 . S
N916 C912 1.427 . S
N916 C913 1.384 . S
N917 C909 1.427 . S
N917 C915 1.384 . S
H918 C924 0.930 . S
H919 C928 0.930 . S
H920 C933 0.929 . S
H921 C931 0.929 . S
H922 C926 0.929 1_554 S
H923 C932 0.929 1_556 S
C924 H918 0.930 . S
C924 C925 1.367 . S
C924 C932 1.378 . S
C925 C924 1.367 . S
C925 C933 1.433 . S
C926 H922 0.929 1_556 S
C926 C928 1.378 . S
C926 C930 1.350 . S
C927 C930 1.463 1_554 S
C927 C932 1.350 . S
C927 N935 1.427 . S
C928 H919 0.930 . S
C928 C926 1.378 . S
C928 C929 1.367 . S
C929 C928 1.367 . S
C929 C931 1.433 . S
C930 C926 1.350 . S
C930 C927 1.463 1_556 S
C930 N934 1.427 . S
C931 H921 0.929 . S
C931 C929 1.433 . S
C931 N934 1.384 . S
C932 H923 0.929 1_554 S
C932 C924 1.378 . S
C932 C927 1.350 . S
C933 H920 0.929 . S
C933 C925 1.433 . S
C933 N935 1.384 . S
N934 C930 1.427 . S
N934 C931 1.384 . S
N935 C927 1.427 . S
N935 C933 1.384 . S
H936 C942 0.930 . S
H937 C946 0.930 . S
H938 C951 0.929 . S
H939 C949 0.929 . S
H940 C944 0.929 . S
H941 C950 0.929 . S
C942 H936 0.930 . S
C942 C943 1.367 . S
C942 C950 1.378 . S
C943 C942 1.367 . S
C943 C951 1.433 . S
C944 H940 0.929 . S
C944 C946 1.378 . S
C944 C948 1.350 . S
C945 C948 1.463 1_556 S
C945 C950 1.350 . S
C945 N953 1.427 . S
C946 H937 0.930 . S
C946 C944 1.378 . S
C946 C947 1.367 . S
C947 C946 1.367 . S
C947 C949 1.433 . S
C948 C944 1.350 . S
C948 C945 1.463 1_554 S
C948 N952 1.427 . S
C949 H939 0.929 . S
C949 C947 1.433 . S
C949 N952 1.384 . S
C950 H941 0.929 . S
C950 C942 1.378 . S
C950 C945 1.350 . S
C951 H938 0.929 . S
C951 C943 1.433 . S
C951 N953 1.384 . S
N952 C948 1.427 . S
N952 C949 1.384 . S
N953 C945 1.427 . S
N953 C951 1.384 . S
H954 C960 0.930 . S
H955 C964 0.930 . S
H956 C969 0.929 . S
H957 C967 0.929 . S
H958 C962 0.929 . S
H959 C968 0.929 . S
C960 H954 0.930 . S
C960 C961 1.367 . S
C960 C968 1.378 . S
C961 C960 1.367 . S
C961 C969 1.433 . S
C962 H958 0.929 . S
C962 C964 1.378 . S
C962 C966 1.350 . S
C963 C966 1.463 . S
C963 C968 1.350 . S
C963 N971 1.427 . S
C964 H955 0.930 . S
C964 C962 1.378 . S
C964 C965 1.367 . S
C965 C964 1.367 . S
C965 C967 1.433 . S
C966 C962 1.350 . S
C966 C963 1.463 . S
C966 N970 1.427 . S
C967 H957 0.929 . S
C967 C965 1.433 . S
C967 N970 1.384 . S
C968 H959 0.929 . S
C968 C960 1.378 . S
C968 C963 1.350 . S
C969 H956 0.929 . S
C969 C961 1.433 . S
C969 N971 1.384 . S
N970 C966 1.427 . S
N970 C967 1.384 . S
N971 C963 1.427 . S
N971 C969 1.384 . S
H972 C978 0.930 . S
H973 C982 0.930 . S
H974 C987 0.929 . S
H975 C985 0.929 . S
H976 C980 0.929 . S
H977 C986 0.929 . S
C978 H972 0.930 . S
C978 C979 1.367 . S
C978 C986 1.378 . S
C979 C978 1.367 . S
C979 C987 1.433 . S
C980 H976 0.929 . S
C980 C982 1.378 . S
C980 C984 1.350 . S
C981 C984 1.463 . S
C981 C986 1.350 . S
C981 N989 1.427 . S
C982 H973 0.930 . S
C982 C980 1.378 . S
C982 C983 1.367 . S
C983 C982 1.367 . S
C983 C985 1.433 . S
C984 C980 1.350 . S
C984 C981 1.463 . S
C984 N988 1.427 . S
C985 H975 0.929 . S
C985 C983 1.433 . S
C985 N988 1.384 . S
C986 H977 0.929 . S
C986 C978 1.378 . S
C986 C981 1.350 . S
C987 H974 0.929 . S
C987 C979 1.433 . S
C987 N989 1.384 . S
N988 C984 1.427 . S
N988 C985 1.384 . S
N989 C981 1.427 . S
N989 C987 1.384 . S
H990 C996 0.930 . S
H991 C1000 0.930 . S
H992 C1005 0.929 . S
H993 C1003 0.929 . S
H994 C998 0.929 . S
H995 C1004 0.929 . S
C996 H990 0.930 . S
C996 C997 1.367 . S
C996 C1004 1.378 . S
C997 C996 1.367 . S
C997 C1005 1.433 . S
C998 H994 0.929 . S
C998 C1000 1.378 . S
C998 C1002 1.350 . S
C999 C1002 1.463 1_455 S
C999 C1004 1.350 . S
C999 N1007 1.427 . S
C1000 H991 0.930 . S
C1000 C998 1.378 . S
C1000 C1001 1.367 . S
C1001 C1000 1.367 . S
C1001 C1003 1.433 . S
C1002 C998 1.350 . S
C1002 C999 1.463 1_655 S
C1002 N1006 1.427 . S
C1003 H993 0.929 . S
C1003 C1001 1.433 . S
C1003 N1006 1.384 . S
C1004 H995 0.929 . S
C1004 C996 1.378 . S
C1004 C999 1.350 . S
C1005 H992 0.929 . S
C1005 C997 1.433 . S
C1005 N1007 1.384 . S
N1006 C1002 1.427 . S
N1006 C1003 1.384 . S
N1007 C999 1.427 . S
N1007 C1005 1.384 . S
H1008 C1014 0.930 . S
H1009 C1018 0.930 . S
H1010 C1023 0.929 . S
H1011 C1021 0.929 . S
H1012 C1016 0.929 . S
H1013 C1022 0.929 . S
C1014 H1008 0.930 . S
C1014 C1015 1.367 . S
C1014 C1022 1.378 . S
C1015 C1014 1.367 . S
C1015 C1023 1.433 . S
C1016 H1012 0.929 . S
C1016 C1018 1.378 . S
C1016 C1020 1.350 . S
C1017 C1020 1.463 1_455 S
C1017 C1022 1.350 . S
C1017 N1025 1.427 . S
C1018 H1009 0.930 . S
C1018 C1016 1.378 . S
C1018 C1019 1.367 . S
C1019 C1018 1.367 . S
C1019 C1021 1.433 . S
C1020 C1016 1.350 . S
C1020 C1017 1.463 1_655 S
C1020 N1024 1.427 . S
C1021 H1011 0.929 . S
C1021 C1019 1.433 . S
C1021 N1024 1.384 . S
C1022 H1013 0.929 . S
C1022 C1014 1.378 . S
C1022 C1017 1.350 . S
C1023 H1010 0.929 . S
C1023 C1015 1.433 . S
C1023 N1025 1.384 . S
N1024 C1020 1.427 . S
N1024 C1021 1.384 . S
N1025 C1017 1.427 . S
N1025 C1023 1.384 . S
H1026 C1032 0.930 . S
H1027 C1036 0.930 . S
H1028 C1041 0.929 . S
H1029 C1039 0.929 . S
H1030 C1034 0.929 . S
H1031 C1040 0.929 . S
C1032 H1026 0.930 . S
C1032 C1033 1.367 . S
C1032 C1040 1.378 . S
C1033 C1032 1.367 . S
C1033 C1041 1.433 . S
C1034 H1030 0.929 . S
C1034 C1036 1.378 . S
C1034 C1038 1.350 . S
C1035 C1038 1.463 . S
C1035 C1040 1.350 . S
C1035 N1043 1.427 . S
C1036 H1027 0.930 . S
C1036 C1034 1.378 . S
C1036 C1037 1.367 . S
C1037 C1036 1.367 . S
C1037 C1039 1.433 . S
C1038 C1034 1.350 . S
C1038 C1035 1.463 . S
C1038 N1042 1.427 . S
C1039 H1029 0.929 . S
C1039 C1037 1.433 . S
C1039 N1042 1.384 . S
C1040 H1031 0.929 . S
C1040 C1032 1.378 . S
C1040 C1035 1.350 . S
C1041 H1028 0.929 . S
C1041 C1033 1.433 . S
C1041 N1043 1.384 . S
N1042 C1038 1.427 . S
N1042 C1039 1.384 . S
N1043 C1035 1.427 . S
N1043 C1041 1.384 . S
H1044 C1050 0.930 . S
H1045 C1054 0.930 . S
H1046 C1059 0.929 . S
H1047 C1057 0.929 . S
H1048 C1052 0.929 . S
H1049 C1058 0.929 . S
C1050 H1044 0.930 . S
C1050 C1051 1.367 . S
C1050 C1058 1.378 . S
C1051 C1050 1.367 . S
C1051 C1059 1.433 . S
C1052 H1048 0.929 . S
C1052 C1054 1.378 . S
C1052 C1056 1.350 . S
C1053 C1056 1.463 . S
C1053 C1058 1.350 . S
C1053 N1061 1.427 . S
C1054 H1045 0.930 . S
C1054 C1052 1.378 . S
C1054 C1055 1.367 . S
C1055 C1054 1.367 . S
C1055 C1057 1.433 . S
C1056 C1052 1.350 . S
C1056 C1053 1.463 . S
C1056 N1060 1.427 . S
C1057 H1047 0.929 . S
C1057 C1055 1.433 . S
C1057 N1060 1.384 . S
C1058 H1049 0.929 . S
C1058 C1050 1.378 . S
C1058 C1053 1.350 . S
C1059 H1046 0.929 . S
C1059 C1051 1.433 . S
C1059 N1061 1.384 . S
N1060 C1056 1.427 . S
N1060 C1057 1.384 . S
N1061 C1053 1.427 . S
N1061 C1059 1.384 . S
H1062 C1068 0.930 . S
H1063 C1072 0.930 . S
H1064 C1077 0.929 . S
H1065 C1075 0.929 . S
H1066 C1070 0.929 . S
H1067 C1076 0.929 . S
C1068 H1062 0.930 . S
C1068 C1069 1.367 . S
C1068 C1076 1.378 . S
C1069 C1068 1.367 . S
C1069 C1077 1.433 . S
C1070 H1066 0.929 . S
C1070 C1072 1.378 . S
C1070 C1074 1.350 . S
C1071 C1074 1.463 1_545 S
C1071 C1076 1.350 . S
C1071 N1079 1.427 . S
C1072 H1063 0.930 . S
C1072 C1070 1.378 . S
C1072 C1073 1.367 . S
C1073 C1072 1.367 . S
C1073 C1075 1.433 . S
C1074 C1070 1.350 . S
C1074 C1071 1.463 1_565 S
C1074 N1078 1.427 . S
C1075 H1065 0.929 . S
C1075 C1073 1.433 . S
C1075 N1078 1.384 . S
C1076 H1067 0.929 . S
C1076 C1068 1.378 . S
C1076 C1071 1.350 . S
C1077 H1064 0.929 . S
C1077 C1069 1.433 . S
C1077 N1079 1.384 . S
N1078 C1074 1.427 . S
N1078 C1075 1.384 . S
N1079 C1071 1.427 . S
N1079 C1077 1.384 . S
H1080 C1086 0.930 . S
H1081 C1090 0.930 . S
H1082 C1095 0.929 . S
H1083 C1093 0.929 . S
H1084 C1088 0.929 . S
H1085 C1094 0.929 . S
C1086 H1080 0.930 . S
C1086 C1087 1.367 . S
C1086 C1094 1.378 . S
C1087 C1086 1.367 . S
C1087 C1095 1.433 . S
C1088 H1084 0.929 . S
C1088 C1090 1.378 . S
C1088 C1092 1.350 . S
C1089 C1092 1.463 . S
C1089 C1094 1.350 . S
C1089 N1097 1.427 . S
C1090 H1081 0.930 . S
C1090 C1088 1.378 . S
C1090 C1091 1.367 . S
C1091 C1090 1.367 . S
C1091 C1093 1.433 . S
C1092 C1088 1.350 . S
C1092 C1089 1.463 . S
C1092 N1096 1.427 . S
C1093 H1083 0.929 . S
C1093 C1091 1.433 . S
C1093 N1096 1.384 . S
C1094 H1085 0.929 . S
C1094 C1086 1.378 . S
C1094 C1089 1.350 . S
C1095 H1082 0.929 . S
C1095 C1087 1.433 . S
C1095 N1097 1.384 . S
N1096 C1092 1.427 . S
N1096 C1093 1.384 . S
N1097 C1089 1.427 . S
N1097 C1095 1.384 . S
H1098 C1104 0.930 . S
H1099 C1108 0.930 . S
H1100 C1113 0.929 . S
H1101 C1111 0.929 . S
H1102 C1106 0.929 . S
H1103 C1112 0.929 . S
C1104 H1098 0.930 . S
C1104 C1105 1.367 . S
C1104 C1112 1.378 . S
C1105 C1104 1.367 . S
C1105 C1113 1.433 . S
C1106 H1102 0.929 . S
C1106 C1108 1.378 . S
C1106 C1110 1.350 . S
C1107 C1110 1.463 . S
C1107 C1112 1.350 . S
C1107 N1115 1.427 . S
C1108 H1099 0.930 . S
C1108 C1106 1.378 . S
C1108 C1109 1.367 . S
C1109 C1108 1.367 . S
C1109 C1111 1.433 . S
C1110 C1106 1.350 . S
C1110 C1107 1.463 . S
C1110 N1114 1.427 . S
C1111 H1101 0.929 . S
C1111 C1109 1.433 . S
C1111 N1114 1.384 . S
C1112 H1103 0.929 . S
C1112 C1104 1.378 . S
C1112 C1107 1.350 . S
C1113 H1100 0.929 . S
C1113 C1105 1.433 . S
C1113 N1115 1.384 . S
N1114 C1110 1.427 . S
N1114 C1111 1.384 . S
N1115 C1107 1.427 . S
N1115 C1113 1.384 . S
H1116 C1122 0.930 . S
H1117 C1126 0.930 . S
H1118 C1131 0.929 . S
H1119 C1129 0.929 . S
H1120 C1124 0.931 1_545 S
H1121 C1130 0.929 1_565 S
C1122 H1116 0.930 . S
C1122 C1123 1.367 . S
C1122 C1130 1.378 . S
C1123 C1122 1.367 . S
C1123 C1131 1.433 . S
C1124 H1120 0.931 1_565 S
C1124 C1126 1.378 . S
C1124 C1128 1.350 . S
C1125 C1128 1.463 1_545 S
C1125 C1130 1.350 . S
C1125 N1133 1.427 . S
C1126 H1117 0.930 . S
C1126 C1124 1.378 . S
C1126 C1127 1.367 . S
C1127 C1126 1.367 . S
C1127 C1129 1.433 . S
C1128 C1124 1.350 . S
C1128 C1125 1.463 1_565 S
C1128 N1132 1.427 . S
C1129 H1119 0.929 . S
C1129 C1127 1.433 . S
C1129 N1132 1.384 . S
C1130 H1121 0.929 1_545 S
C1130 C1122 1.378 . S
C1130 C1125 1.350 . S
C1131 H1118 0.929 . S
C1131 C1123 1.433 . S
C1131 N1133 1.384 . S
N1132 C1128 1.427 . S
N1132 C1129 1.384 . S
N1133 C1125 1.427 . S
N1133 C1131 1.384 . S
H1134 C1140 0.930 . S
H1135 C1144 0.930 . S
H1136 C1149 0.929 . S
H1137 C1147 0.929 . S
H1138 C1142 0.929 . S
H1139 C1148 0.929 . S
C1140 H1134 0.930 . S
C1140 C1141 1.367 . S
C1140 C1148 1.378 . S
C1141 C1140 1.367 . S
C1141 C1149 1.433 . S
C1142 H1138 0.929 . S
C1142 C1144 1.378 . S
C1142 C1146 1.350 . S
C1143 C1146 1.463 . S
C1143 C1148 1.350 . S
C1143 N1151 1.427 . S
C1144 H1135 0.930 . S
C1144 C1142 1.378 . S
C1144 C1145 1.367 . S
C1145 C1144 1.367 . S
C1145 C1147 1.433 . S
C1146 C1142 1.350 . S
C1146 C1143 1.463 . S
C1146 N1150 1.427 . S
C1147 H1137 0.929 . S
C1147 C1145 1.433 . S
C1147 N1150 1.384 . S
C1148 H1139 0.929 . S
C1148 C1140 1.378 . S
C1148 C1143 1.350 . S
C1149 H1136 0.929 . S
C1149 C1141 1.433 . S
C1149 N1151 1.384 . S
N1150 C1146 1.427 . S
N1150 C1147 1.384 . S
N1151 C1143 1.427 . S
N1151 C1149 1.384 . S
C583 C2 1.245 . S
C587 C470 1.244 . S
C601 C38 0.998 . S
C605 C326 0.999 . S
C619 C506 1.032 . S
C623 C74 1.032 . S
C637 C110 1.222 . S
C641 C542 1.227 . S
C655 C146 0.999 . S
C659 C218 0.997 . S
C673 C362 1.245 . S
C677 C182 1.245 . S
C691 C398 1.029 . S
C695 C254 1.029 . S
C709 C290 1.227 . S
C713 C434 1.222 . S
C727 C75 1.632 . S
C731 C14 1.529 . S
C745 C50 1.656 . S
C749 C122 1.649 . S
C763 C435 1.653 . S
C767 C3 1.651 . S
C781 C39 1.727 . S
C785 C400 1.721 . S
C799 C147 1.726 . S
C803 C76 1.723 . S
C817 C363 1.651 . S
C821 C111 1.653 . S
C835 C40 1.780 . S
C839 C4 1.771 . S
C853 C112 0.989 . S
C857 C86 0.941 . S
C871 C364 1.772 . S
C875 C148 1.784 . S
C889 C256 1.673 . S
C893 C183 1.677 . S
C907 C219 1.268 . S
C911 C292 1.266 . S
C925 C543 1.685 . S
C929 C194 1.571 . S
C943 C230 1.392 . S
C947 C507 1.472 . S
C961 C338 1.386 . S
C965 C255 1.473 . S
C979 C291 1.688 . S
C983 C482 1.580 . S
C997 C220 1.688 . S
C1001 C184 1.693 . S
C1015 C302 1.699 . S
C1019 C266 1.735 . S
C1033 C328 1.689 . S
C1037 C472 1.688 . S
C1051 C374 1.518 . S
C1055 C399 1.633 . S
C1069 C446 1.646 . S
C1073 C158 1.656 . S
C1087 C436 1.000 . S
C1091 C410 0.958 . S
C1105 C508 1.672 . S
C1109 C471 1.676 . S
C1123 C327 1.272 . S
C1127 C544 1.271 . S
C1141 C554 1.711 . S
C1145 C518 1.723 . S
