# Generated by pormake.
# Topology soh, (5)-cn, num edge types: 1
# Building blocks:
#     Node 0, Type 0, BuildingBlock: XOMCOT_clean_sbu_1, # of connection points: 5
#     Node 1, Type 0, BuildingBlock: XOMCOT_clean_sbu_1, # of connection points: 5
#     Node 2, Type 0, BuildingBlock: XOMCOT_clean_sbu_1, # of connection points: 5
#     Node 3, Type 0, BuildingBlock: XOMCOT_clean_sbu_1, # of connection points: 5
#     Node 4, Type 0, BuildingBlock: XOMCOT_clean_sbu_1, # of connection points: 5
#     Node 5, Type 0, BuildingBlock: XOMCOT_clean_sbu_1, # of connection points: 5
#     Node 6, Type 0, BuildingBlock: XOMCOT_clean_sbu_1, # of connection points: 5
#     Node 7, Type 0, BuildingBlock: XOMCOT_clean_sbu_1, # of connection points: 5
#     Node 8, Type 0, BuildingBlock: XOMCOT_clean_sbu_1, # of connection points: 5
#     Node 9, Type 0, BuildingBlock: XOMCOT_clean_sbu_1, # of connection points: 5
#     Node 10, Type 0, BuildingBlock: XOMCOT_clean_sbu_1, # of connection points: 5
#     Node 11, Type 0, BuildingBlock: XOMCOT_clean_sbu_1, # of connection points: 5
#     Node 12, Type 0, BuildingBlock: XOMCOT_clean_sbu_1, # of connection points: 5
#     Node 13, Type 0, BuildingBlock: XOMCOT_clean_sbu_1, # of connection points: 5
#     Node 14, Type 0, BuildingBlock: XOMCOT_clean_sbu_1, # of connection points: 5
#     Node 15, Type 0, BuildingBlock: XOMCOT_clean_sbu_1, # of connection points: 5
#     Node 16, Type 0, BuildingBlock: XOMCOT_clean_sbu_1, # of connection points: 5
#     Node 17, Type 0, BuildingBlock: XOMCOT_clean_sbu_1, # of connection points: 5
#     Node 18, Type 0, BuildingBlock: XOMCOT_clean_sbu_1, # of connection points: 5
#     Node 19, Type 0, BuildingBlock: XOMCOT_clean_sbu_1, # of connection points: 5
#     Node 20, Type 0, BuildingBlock: XOMCOT_clean_sbu_1, # of connection points: 5
#     Node 21, Type 0, BuildingBlock: XOMCOT_clean_sbu_1, # of connection points: 5
#     Node 22, Type 0, BuildingBlock: XOMCOT_clean_sbu_1, # of connection points: 5
#     Node 23, Type 0, BuildingBlock: XOMCOT_clean_sbu_1, # of connection points: 5
#     Node 24, Type 0, BuildingBlock: XOMCOT_clean_sbu_1, # of connection points: 5
#     Node 25, Type 0, BuildingBlock: XOMCOT_clean_sbu_1, # of connection points: 5
#     Node 26, Type 0, BuildingBlock: XOMCOT_clean_sbu_1, # of connection points: 5
#     Node 27, Type 0, BuildingBlock: XOMCOT_clean_sbu_1, # of connection points: 5
#     Node 28, Type 0, BuildingBlock: XOMCOT_clean_sbu_1, # of connection points: 5
#     Node 29, Type 0, BuildingBlock: XOMCOT_clean_sbu_1, # of connection points: 5
#     Node 30, Type 0, BuildingBlock: XOMCOT_clean_sbu_1, # of connection points: 5
#     Node 31, Type 0, BuildingBlock: XOMCOT_clean_sbu_1, # of connection points: 5
#     Edge 32, Type (0, 0), None
#     Edge 33, Type (0, 0), None
#     Edge 34, Type (0, 0), None
#     Edge 35, Type (0, 0), None
#     Edge 36, Type (0, 0), None
#     Edge 37, Type (0, 0), None
#     Edge 38, Type (0, 0), None
#     Edge 39, Type (0, 0), None
#     Edge 40, Type (0, 0), None
#     Edge 41, Type (0, 0), None
#     Edge 42, Type (0, 0), None
#     Edge 43, Type (0, 0), None
#     Edge 44, Type (0, 0), None
#     Edge 45, Type (0, 0), None
#     Edge 46, Type (0, 0), None
#     Edge 47, Type (0, 0), None
#     Edge 48, Type (0, 0), None
#     Edge 49, Type (0, 0), None
#     Edge 50, Type (0, 0), None
#     Edge 51, Type (0, 0), None
#     Edge 52, Type (0, 0), None
#     Edge 53, Type (0, 0), None
#     Edge 54, Type (0, 0), None
#     Edge 55, Type (0, 0), None
#     Edge 56, Type (0, 0), None
#     Edge 57, Type (0, 0), None
#     Edge 58, Type (0, 0), None
#     Edge 59, Type (0, 0), None
#     Edge 60, Type (0, 0), None
#     Edge 61, Type (0, 0), None
#     Edge 62, Type (0, 0), None
#     Edge 63, Type (0, 0), None
#     Edge 64, Type (0, 0), None
#     Edge 65, Type (0, 0), None
#     Edge 66, Type (0, 0), None
#     Edge 67, Type (0, 0), None
#     Edge 68, Type (0, 0), None
#     Edge 69, Type (0, 0), None
#     Edge 70, Type (0, 0), None
#     Edge 71, Type (0, 0), None
#     Edge 72, Type (0, 0), None
#     Edge 73, Type (0, 0), None
#     Edge 74, Type (0, 0), None
#     Edge 75, Type (0, 0), None
#     Edge 76, Type (0, 0), None
#     Edge 77, Type (0, 0), None
#     Edge 78, Type (0, 0), None
#     Edge 79, Type (0, 0), None
#     Edge 80, Type (0, 0), None
#     Edge 81, Type (0, 0), None
#     Edge 82, Type (0, 0), None
#     Edge 83, Type (0, 0), None
#     Edge 84, Type (0, 0), None
#     Edge 85, Type (0, 0), None
#     Edge 86, Type (0, 0), None
#     Edge 87, Type (0, 0), None
#     Edge 88, Type (0, 0), None
#     Edge 89, Type (0, 0), None
#     Edge 90, Type (0, 0), None
#     Edge 91, Type (0, 0), None
#     Edge 92, Type (0, 0), None
#     Edge 93, Type (0, 0), None
#     Edge 94, Type (0, 0), None
#     Edge 95, Type (0, 0), None
#     Edge 96, Type (0, 0), None
#     Edge 97, Type (0, 0), None
#     Edge 98, Type (0, 0), None
#     Edge 99, Type (0, 0), None
#     Edge 100, Type (0, 0), None
#     Edge 101, Type (0, 0), None
#     Edge 102, Type (0, 0), None
#     Edge 103, Type (0, 0), None
#     Edge 104, Type (0, 0), None
#     Edge 105, Type (0, 0), None
#     Edge 106, Type (0, 0), None
#     Edge 107, Type (0, 0), None
#     Edge 108, Type (0, 0), None
#     Edge 109, Type (0, 0), None
#     Edge 110, Type (0, 0), None
#     Edge 111, Type (0, 0), None
# Relax obj value: 0.279
# Max RMSD: 0.194
# Mean RMSD: 0.194
data_MOF--net-soh--node1-XOMCOT_clean_sbu_1--edge1-none
_symmetry_space_group_name_H-M    P1
_symmetry_Int_Tables_number       1
_symmetry_cell_setting            triclinic
loop_
_symmetry_equiv_pos_as_xyz
'x, y, z'
_cell_length_a     34.284361
_cell_length_b     22.355591
_cell_length_c     25.10099
_cell_angle_alpha  89.431206
_cell_angle_beta   89.911673
_cell_angle_gamma 90.042812
loop_
_atom_site_label
_atom_site_type_symbol
_atom_site_fract_x
_atom_site_fract_y
_atom_site_fract_z
_atom_type_partial_charge
C0 C 0.33823 0.38392 0.23962 0.0
C1 C 0.32606 0.40115 0.28948 0.0
N2 N 0.3574 0.40117 0.32157 0.0
N3 N 0.37687 0.37261 0.24127 0.0
C4 C 0.3878 0.38441 0.29163 0.0
H5 H 0.31964 0.3746 0.20593 0.0
Co6 Co 0.40497 0.32614 0.19457 0.0
C7 C 0.47848 0.40354 0.20013 0.0
O8 O 0.47454 0.42297 0.15095 0.0
N9 N 0.43318 0.27574 0.14892 0.0
C10 C 0.47924 0.22509 0.10561 0.0
C11 C 0.47015 0.27828 0.12989 0.0
C12 C 0.42031 0.22082 0.13495 0.0
N13 N 0.44776 0.18962 0.10895 0.0
O14 O 0.40912 0.26673 0.24998 0.0
H15 H 0.49034 0.31457 0.13513 0.0
H16 H 0.3922 0.20274 0.14622 0.0
O17 O 0.45416 0.36534 0.2194 0.0
C18 C 0.37647 0.23984 0.25547 0.0
O19 O 0.34819 0.25203 0.22185 0.0
N20 N 0.3957 0.38258 0.13912 0.0
C21 C 0.36802 0.45927 0.05924 0.0
C22 C 0.38205 0.48226 0.10718 0.0
C23 C 0.39506 0.44307 0.14715 0.0
C24 C 0.38067 0.35982 0.09315 0.0
C25 C 0.36736 0.39742 0.0523 0.0
H26 H 0.40465 0.46137 0.18464 0.0
H27 H 0.37802 0.3121 0.08818 0.0
H28 H 0.4163 0.37404 0.3077 0.0
H29 H 0.29649 0.40945 0.30165 0.0
H30 H 0.50694 0.21286 0.08816 0.0
H31 H 0.38347 0.53008 0.11341 0.0
H32 H 0.357 0.37832 0.01541 0.0
C33 C 0.1564 0.9462 0.24514 0.0
C34 C 0.16954 0.92407 0.29339 0.0
N35 N 0.13844 0.91793 0.32573 0.0
N36 N 0.11731 0.95333 0.24751 0.0
C37 C 1.10722 0.93554 0.29717 0.0
H38 H 0.17436 0.95974 0.21166 0.0
Co39 Co 1.0866 0.99783 0.20084 0.0
C40 C 1.01749 0.91085 0.20269 0.0
O41 O 1.02487 0.88972 0.15515 0.0
N42 N 1.05589 0.04674 0.15552 0.0
C43 C 1.00852 0.08891 0.1072 0.0
C44 C 1.02044 0.03765 0.13322 0.0
C45 C 1.06505 0.10382 0.14162 0.0
N46 N 1.03663 0.13004 0.11286 0.0
O47 O 1.07758 0.05203 0.25734 0.0
H48 H 1.00364 0.9971 0.13556 0.0
H49 H 1.0916 0.12627 0.15311 0.0
O50 O 1.03929 0.95166 0.22259 0.0
C51 C 1.10579 0.08853 0.26243 0.0
O52 O 0.13478 0.08718 0.22821 0.0
N53 N 1.09934 0.94563 0.14417 0.0
C54 C 0.12353 0.87499 0.05948 0.0
C55 C 0.11673 0.84916 0.10959 0.0
C56 C 1.10477 0.88541 0.15165 0.0
C57 C 1.10891 0.97148 0.09632 0.0
C58 C 0.11982 0.93675 0.053 0.0
H59 H 1.09878 0.8647 0.18991 0.0
H60 H 1.10827 1.0194 0.09111 0.0
H61 H 1.07814 0.94018 0.3134 0.0
H62 H 0.19952 0.91545 0.30437 0.0
H63 H 0.98169 0.09508 0.08543 0.0
H64 H 0.11895 0.80121 0.1156 0.0
H65 H 0.12515 0.95796 0.01465 0.0
C66 C 0.33503 0.93265 0.96465 0.0
C67 C 0.32369 0.91448 0.91475 0.0
N68 N 0.35518 0.91665 0.88285 0.0
N69 N 0.37338 0.94628 0.96341 0.0
C70 C 0.38495 0.93528 0.91307 0.0
H71 H 0.316 0.9404 -0.0017 0.0
Co72 Co 0.40046 0.99309 0.01126 0.0
C73 C 0.47344 0.91467 0.00811 0.0
O74 O 0.46646 0.89002 0.05478 0.0
N75 N 0.42794 0.04337 0.05763 0.0
C76 C 0.47309 0.08705 0.10789 0.0
C77 C 0.46168 1.03448 0.08454 0.0
C78 C 0.41897 0.10142 0.06638 0.0
N79 N 0.44614 0.12857 0.0962 0.0
O80 O 0.40608 0.05193 0.95595 0.0
H81 H 0.47771 0.99322 0.08674 0.0
H82 H 0.39393 0.12406 0.04957 0.0
O83 O 0.45034 0.9546 -0.01096 0.0
C84 C 0.37351 0.07842 0.949 0.0
O85 O 0.34444 0.06613 -0.01853 0.0
N86 N 0.38992 0.93697 0.06674 0.0
C87 C 0.36334 0.8614 0.14809 0.0
C88 C 0.37494 0.83789 0.09919 0.0
C89 C 0.38762 0.87656 0.05861 0.0
C90 C 0.3765 0.96031 0.11346 0.0
C91 C 0.36403 0.92321 0.15514 0.0
H92 H 0.39619 0.85777 0.02082 0.0
H93 H 0.37484 1.00812 0.11868 0.0
H94 H 0.41334 0.94723 0.89733 0.0
H95 H 0.29451 0.90356 0.90241 0.0
H96 H 0.49899 0.09412 0.13139 0.0
H97 H 0.37516 0.79005 0.09286 0.0
H98 H 0.3553 0.94264 0.19269 0.0
C99 C 0.1547 0.37411 0.96259 0.0
C100 C 0.16827 0.39568 0.91422 0.0
N101 N 0.13737 0.40164 0.88166 0.0
N102 N 1.1156 0.36711 0.9599 0.0
C103 C 1.10594 0.38449 0.9101 0.0
H104 H 0.17238 0.36064 -0.00373 0.0
Co105 Co 1.08405 0.32263 0.00556 0.0
C106 C 1.01427 0.40831 0.00304 0.0
O107 O 1.01869 0.42392 0.05296 0.0
N108 N 1.05279 0.27342 0.05026 0.0
C109 C 1.00514 0.22682 0.09522 0.0
C110 C 1.01563 0.27838 0.06822 0.0
C111 C 1.06414 0.21834 0.06716 0.0
N112 N 1.03575 0.18959 0.09412 0.0
O113 O 1.07596 0.26825 0.94875 0.0
H114 H 0.99644 0.31565 0.06132 0.0
H115 H 1.0923 0.19892 0.05873 0.0
O116 O 1.03733 0.36973 -0.01776 0.0
C117 C 1.10438 0.23197 0.9444 0.0
O118 O 0.13276 0.2336 -0.02058 0.0
N119 N 1.09594 0.37475 0.06232 0.0
C120 C 0.12148 0.44513 0.14638 0.0
C121 C 1.1125 0.47143 0.0971 0.0
C122 C 1.09987 0.43528 0.05533 0.0
C123 C 1.10711 0.34866 0.10934 0.0
C124 C 0.11877 0.3832 0.15238 0.0
H125 H 1.09281 0.45605 0.01746 0.0
H126 H 1.10748 0.30071 0.11392 0.0
H127 H 1.07698 0.37966 0.89363 0.0
H128 H 0.19835 0.40392 0.90331 0.0
H129 H 0.97739 0.21739 0.11404 0.0
H130 H 1.11385 0.51951 0.09152 0.0
H131 H 0.12564 0.36165 0.19008 0.0
C132 C 0.89448 0.68542 0.7174 0.0
C133 C 0.90666 0.66819 0.66754 0.0
N134 N 0.87532 0.66817 0.63545 0.0
N135 N 0.85585 0.69673 0.71576 0.0
C136 C 0.84491 0.68493 0.6654 0.0
H137 H 0.91308 0.69474 0.75109 0.0
Co138 Co 0.82774 0.7432 0.76245 0.0
C139 C 0.75424 0.6658 0.75689 0.0
O140 O 0.75817 0.64636 0.80607 0.0
N141 N 0.79954 0.7936 0.8081 0.0
C142 C 0.75347 0.84425 0.85142 0.0
C143 C 0.76256 0.79106 0.82713 0.0
C144 C 0.8124 0.84852 0.82208 0.0
N145 N 0.78495 0.87972 0.84808 0.0
O146 O 0.8236 0.80261 0.70705 0.0
H147 H 0.74237 0.75477 0.82189 0.0
H148 H 0.84052 0.8666 0.8108 0.0
O149 O 0.77855 0.704 0.73762 0.0
C150 C 0.85625 0.8295 0.70155 0.0
O151 O 0.88453 0.81731 0.73517 0.0
N152 N 0.83701 0.68676 0.8179 0.0
C153 C 0.8647 0.61007 0.89778 0.0
C154 C 0.85066 0.58708 0.84984 0.0
C155 C 0.83765 0.62627 0.80988 0.0
C156 C 0.85204 0.70952 0.86387 0.0
C157 C 0.86535 0.67192 0.90473 0.0
H158 H 0.82806 0.60797 0.77238 0.0
H159 H 0.8547 0.75724 0.86885 0.0
H160 H 0.81641 0.6953 0.64932 0.0
H161 H 0.93622 0.65989 0.65537 0.0
H162 H 0.72578 0.85648 0.86887 0.0
H163 H 0.84924 0.53926 0.84361 0.0
H164 H 0.87572 0.69101 0.94161 0.0
C165 C 1.07632 0.12314 0.71188 0.0
C166 C 1.06317 0.14527 0.66364 0.0
N167 N 1.09428 0.15141 0.63129 0.0
N168 N 1.1154 0.11601 0.70952 0.0
C169 C 0.1255 0.1338 0.65986 0.0
H170 H 1.05836 0.1096 0.74536 0.0
Co171 Co 0.14612 0.0715 0.75618 0.0
C172 C 0.21522 0.15849 0.75433 0.0
O173 O 0.20785 0.17962 0.80187 0.0
N174 N 0.17682 1.0226 0.80151 0.0
C175 C 0.2242 0.98043 0.84982 0.0
C176 C 0.21227 1.03169 0.82381 0.0
C177 C 0.16766 0.96552 0.8154 0.0
N178 N 0.19608 0.9393 0.84416 0.0
O179 O 0.15514 1.01731 0.69968 0.0
H180 H 0.22907 0.07224 0.82147 0.0
H181 H 0.14111 0.94307 0.80391 0.0
O182 O 0.19342 0.11768 0.73443 0.0
C183 C 0.12693 0.98081 0.69459 0.0
O184 O 1.09794 0.98216 0.72881 0.0
N185 N 0.13337 0.12371 0.81285 0.0
C186 C 1.10918 0.19434 0.89754 0.0
C187 C 1.11599 0.22018 0.84743 0.0
C188 C 0.12794 0.18393 0.80537 0.0
C189 C 0.1238 0.09785 0.8607 0.0
C190 C 1.1129 0.13259 0.90403 0.0
H191 H 0.13393 0.20464 0.76711 0.0
H192 H 0.12444 0.04994 0.86591 0.0
H193 H 0.15457 0.12916 0.64362 0.0
H194 H 1.03319 0.15389 0.65265 0.0
H195 H 0.25102 0.97426 0.8716 0.0
H196 H 1.11376 0.26812 0.84142 0.0
H197 H 1.10756 0.11138 0.94237 0.0
C198 C 0.89768 0.13669 -0.00763 0.0
C199 C 0.90903 0.15486 0.04227 0.0
N200 N 0.87753 0.15269 0.07417 0.0
N201 N 0.85933 0.12306 -0.00638 0.0
C202 C 0.84777 0.13406 0.04395 0.0
H203 H 0.91671 0.12894 0.95873 0.0
Co204 Co 0.83225 0.07625 0.94576 0.0
C205 C 0.75927 0.15467 0.94891 0.0
O206 O 0.76626 0.17932 0.90225 0.0
N207 N 0.80477 1.02597 0.89939 0.0
C208 C 0.75962 0.98229 0.84913 0.0
C209 C 0.77104 0.03486 0.87248 0.0
C210 C 0.81375 0.96792 0.89064 0.0
N211 N 0.78657 0.94077 0.86083 0.0
O212 O 0.82664 1.01741 0.00107 0.0
H213 H 0.755 0.07612 0.87028 0.0
H214 H 0.83878 0.94528 0.90745 0.0
O215 O 0.78237 0.11474 0.96798 0.0
C216 C 0.8592 0.99092 0.00802 0.0
O217 O 0.88827 1.00321 0.97555 0.0
N218 N 0.8428 0.13237 0.89029 0.0
C219 C 0.86937 0.20793 0.80893 0.0
C220 C 0.85777 0.23145 0.85784 0.0
C221 C 0.8451 0.19278 0.89842 0.0
C222 C 0.85622 0.10903 0.84357 0.0
C223 C 0.86868 0.14613 0.80189 0.0
H224 H 0.83653 0.21157 0.9362 0.0
H225 H 0.85787 0.06122 0.83834 0.0
H226 H 0.81937 0.12211 0.05969 0.0
H227 H 0.9382 0.16579 0.05461 0.0
H228 H 0.73372 0.97522 0.82563 0.0
H229 H 0.85755 0.27929 0.86416 0.0
H230 H 0.87741 0.1267 0.76433 0.0
C231 C 1.07802 0.69522 -0.00557 0.0
C232 C 1.06444 0.67366 0.0428 0.0
N233 N 1.09535 0.6677 0.07536 0.0
N234 N 0.11711 0.70223 -0.00288 0.0
C235 C 0.12678 0.68485 0.04692 0.0
H236 H 1.06033 0.7087 0.96075 0.0
Co237 Co 0.14867 0.74671 0.95146 0.0
C238 C 0.21845 0.66102 0.95398 0.0
O239 O 0.21403 0.64542 0.90406 0.0
N240 N 0.17993 0.79592 0.90676 0.0
C241 C 0.22757 0.84251 0.8618 0.0
C242 C 0.21709 0.79096 0.88881 0.0
C243 C 0.16857 0.851 0.88986 0.0
N244 N 0.19696 0.87975 0.8629 0.0
O245 O 0.15675 0.80109 0.00827 0.0
H246 H 0.23628 0.75369 0.8957 0.0
H247 H 0.14042 0.87042 0.89829 0.0
O248 O 0.19538 0.69961 0.97478 0.0
C249 C 0.12834 0.83736 0.01262 0.0
O250 O 1.09995 0.83574 0.9776 0.0
N251 N 0.13677 0.69459 0.8947 0.0
C252 C 1.11124 0.62421 0.81064 0.0
C253 C 0.12022 0.59791 0.85992 0.0
C254 C 0.13285 0.63405 0.90169 0.0
C255 C 0.12561 0.72067 0.84768 0.0
C256 C 1.11394 0.68614 0.80464 0.0
H257 H 0.13991 0.61329 0.93956 0.0
H258 H 0.12523 0.76863 0.8431 0.0
H259 H 0.15574 0.68967 0.06339 0.0
H260 H 1.03436 0.66542 0.05371 0.0
H261 H 0.25533 0.85195 0.84298 0.0
H262 H 0.11886 0.54983 0.8655 0.0
H263 H 1.10707 0.70768 0.76694 0.0
C264 C 0.33866 0.9132 0.7429 0.0
C265 C 0.32754 0.93051 0.79322 0.0
N266 N 0.35572 0.91318 0.82701 0.0
N267 N 0.37363 0.88527 0.74551 0.0
C268 C 0.38329 0.88645 0.79767 0.0
H269 H 0.3207 0.91601 0.7076 0.0
Co270 Co 0.39261 0.83217 0.6946 0.0
C271 C 0.47049 0.89648 0.72378 0.0
O272 O 0.45972 0.92616 0.76614 0.0
N273 N 0.41064 0.77764 0.64464 0.0
C274 C 0.44654 0.73175 0.58323 0.0
C275 C 0.43845 0.78578 0.60691 0.0
C276 C 0.40171 0.71886 0.64259 0.0
N277 N 0.4232 0.69059 0.60595 0.0
O278 O 0.40081 0.77396 0.74973 0.0
H279 H 0.45285 0.82787 0.5984 0.0
H280 H 0.38103 0.69656 0.66856 0.0
O281 O 0.44633 0.86278 0.69943 0.0
C282 C 0.36767 0.75242 0.76291 0.0
O283 O 0.33643 0.77058 0.73716 0.0
N284 N 0.38122 0.88719 0.64037 0.0
C285 C 0.35935 0.96351 0.55791 0.0
C286 C 0.38823 0.98058 0.59405 0.0
C287 C 0.39824 0.94221 0.63581 0.0
C288 C 0.35209 0.87071 0.60653 0.0
C289 C 0.34047 0.90857 0.56482 0.0
H290 H 0.41945 0.95713 0.66435 0.0
H291 H 0.33806 0.8277 0.6118 0.0
H292 H 0.40782 0.86267 0.81474 0.0
H293 H 0.30042 0.95161 0.80432 0.0
H294 H 0.46822 0.72301 0.55293 0.0
H295 H 0.40307 1.02321 0.58983 0.0
H296 H 0.31821 0.89414 0.53718 0.0
C297 C 0.15571 0.44445 0.74631 0.0
C298 C 0.16882 0.42246 0.79474 0.0
N299 N 0.13764 0.41668 0.82702 0.0
N300 N 0.11665 0.45191 0.74874 0.0
C301 C 1.10655 0.43432 0.79838 0.0
H302 H 0.17369 0.45788 0.71282 0.0
Co303 Co 1.085 0.49644 0.70353 0.0
C304 C 1.0149 0.41278 0.7032 0.0
O305 O 1.01663 0.40643 0.65127 0.0
N306 N 1.05343 0.54569 0.65912 0.0
C307 C 1.00499 0.59455 0.61822 0.0
C308 C 1.01486 0.54441 0.6473 0.0
C309 C 1.06593 0.59825 0.63757 0.0
N310 N 1.03712 0.62815 0.61255 0.0
O311 O 1.07689 0.55041 0.76062 0.0
H312 H 0.99402 0.51193 0.6612 0.0
H313 H 1.09517 0.61557 0.6421 0.0
O314 O 1.03909 0.44741 0.72683 0.0
C315 C 1.10519 0.58713 0.76367 0.0
O316 O 0.13263 0.58617 0.72715 0.0
N317 N 1.09689 0.4448 0.64672 0.0
C318 C 0.11983 0.37404 0.56175 0.0
C319 C 1.10937 0.34757 0.61044 0.0
C320 C 1.09824 0.38393 0.65281 0.0
C321 C 1.10983 0.47082 0.60051 0.0
C322 C 0.12033 0.4362 0.55695 0.0
H323 H 1.09018 0.36317 0.69034 0.0
H324 H 1.11239 0.51868 0.59699 0.0
H325 H 1.07753 0.43939 0.81466 0.0
H326 H 0.19877 0.41384 0.8059 0.0
H327 H 0.97636 0.60612 0.60345 0.0
H328 H 1.1085 0.29935 0.61511 0.0
H329 H 0.12856 0.4578 0.51975 0.0
C330 C 0.34116 0.40521 0.46167 0.0
C331 C 0.32975 0.38785 0.41148 0.0
N332 N 0.35776 0.40537 0.37735 0.0
N333 N 0.37611 0.43332 0.45856 0.0
C334 C 0.38545 0.43223 0.4063 0.0
H335 H 0.32344 0.40223 0.49726 0.0
Co336 Co 0.39567 0.48646 0.50893 0.0
C337 C 0.4749 0.42562 0.47634 0.0
O338 O 0.46607 0.40105 0.43069 0.0
N339 N 0.41402 0.54116 0.55844 0.0
C340 C 0.45059 0.59004 0.61711 0.0
C341 C 0.44389 0.53558 0.59334 0.0
C342 C 0.40242 0.59865 0.5625 0.0
N343 N 0.42422 0.62871 0.59755 0.0
O344 O 0.40298 0.54495 0.45381 0.0
H345 H 0.46058 0.49516 0.59976 0.0
H346 H 0.37958 0.61896 0.53888 0.0
O347 O 0.44944 0.45564 0.50223 0.0
C348 C 0.36953 0.56651 0.44252 0.0
O349 O 0.3389 0.54755 0.46934 0.0
N350 N 0.38503 0.43145 0.56335 0.0
C351 C 0.3632 0.3549 0.64581 0.0
C352 C 0.39272 0.33858 0.61021 0.0
C353 C 0.40274 0.37707 0.56843 0.0
C354 C 0.35545 0.44729 0.59679 0.0
C355 C 0.3438 0.40927 0.63842 0.0
H356 H 0.42446 0.36272 0.54024 0.0
H357 H 0.34094 0.48982 0.5911 0.0
H358 H 0.40972 0.45638 0.38882 0.0
H359 H 0.30263 0.36647 0.40069 0.0
H360 H 0.47347 0.6009 0.64508 0.0
H361 H 0.40796 0.29636 0.61473 0.0
H362 H 0.32102 0.42312 0.66559 0.0
C363 C 0.15733 0.8743 0.46053 0.0
C364 C 0.17 0.89704 0.41219 0.0
N365 N 0.13866 0.90257 0.38033 0.0
N366 N 0.11831 0.86619 0.45869 0.0
C367 C 1.10777 0.88406 0.40927 0.0
H368 H 0.17561 0.86099 0.49367 0.0
Co369 Co 1.08808 0.82064 0.50541 0.0
C370 C 1.01863 0.90668 0.50545 0.0
O371 O 1.02639 0.92737 0.55301 0.0
N372 N 1.05774 0.77086 0.5507 0.0
C373 C 1.01067 0.72914 0.60004 0.0
C374 C 1.02265 0.78029 0.57403 0.0
C375 C 1.06666 0.71351 0.56399 0.0
N376 N 1.03839 0.68758 0.59349 0.0
O377 O 1.07937 0.76671 0.4486 0.0
H378 H 1.00613 0.82105 0.57262 0.0
H379 H 1.0929 0.69079 0.55158 0.0
O380 O 1.04037 0.86633 0.48463 0.0
C381 C 1.10837 0.73188 0.44274 0.0
O382 O 0.1374 0.73422 0.47672 0.0
N383 N 1.10062 0.87255 0.56231 0.0
C384 C 0.12314 0.94322 0.64762 0.0
C385 C 0.11696 0.96914 0.59746 0.0
C386 C 1.10586 0.93286 0.55507 0.0
C387 C 1.10988 0.84663 0.6102 0.0
C388 C 0.11991 0.88138 0.65386 0.0
H389 H 1.10006 0.9537 0.51684 0.0
H390 H 1.10949 0.79868 0.61525 0.0
H391 H 1.07866 0.87875 0.39343 0.0
H392 H 0.19983 0.90644 0.40079 0.0
H393 H 0.98401 0.72326 0.62242 0.0
H394 H 0.1189 1.01715 0.59165 0.0
H395 H 0.12489 0.86013 0.69225 0.0
C396 C 0.89406 0.15614 0.21412 0.0
C397 C 0.90518 0.13883 0.16381 0.0
N398 N 0.87699 0.15616 0.13001 0.0
N399 N 0.85909 0.18407 0.21151 0.0
C400 C 0.84942 0.18289 0.15935 0.0
H401 H 0.91202 0.15333 0.24942 0.0
Co402 Co 0.84011 0.23717 0.26242 0.0
C403 C 0.76222 0.17286 0.23324 0.0
O404 O 0.77299 0.14318 0.19089 0.0
N405 N 0.82207 0.2917 0.31238 0.0
C406 C 0.78618 0.33759 0.37379 0.0
C407 C 0.79426 0.28356 0.35012 0.0
C408 C 0.83101 0.35048 0.31443 0.0
N409 N 0.80951 0.37875 0.35107 0.0
O410 O 0.83191 0.29538 0.20729 0.0
H411 H 0.77986 0.24147 0.35862 0.0
H412 H 0.85169 0.37278 0.28846 0.0
O413 O 0.78639 0.20656 0.2576 0.0
C414 C 0.86504 0.31692 0.19412 0.0
O415 O 0.89628 0.29876 0.21987 0.0
N416 N 0.85149 0.18215 0.31665 0.0
C417 C 0.87337 0.10582 0.39911 0.0
C418 C 0.84449 0.08876 0.36298 0.0
C419 C 0.83448 0.12713 0.32122 0.0
C420 C 0.88062 0.19863 0.3505 0.0
C421 C 0.89224 0.16076 0.3922 0.0
H422 H 0.81326 0.11221 0.29267 0.0
H423 H 0.89466 0.24164 0.34523 0.0
H424 H 0.82489 0.20667 0.14228 0.0
H425 H 0.93229 0.11772 0.15271 0.0
H426 H 0.76449 0.34633 0.40409 0.0
H427 H 0.82964 0.04613 0.36719 0.0
H428 H 0.91451 0.17519 0.41984 0.0
C429 C 1.077 0.62489 0.21071 0.0
C430 C 1.0639 0.64688 0.16228 0.0
N431 N 1.09508 0.65266 0.13 0.0
N432 N 1.11606 0.61743 0.20828 0.0
C433 C 0.12616 0.63502 0.15865 0.0
H434 H 1.05902 0.61146 0.2442 0.0
Co435 Co 0.14772 0.5729 0.25349 0.0
C436 C 0.21781 0.65656 0.25382 0.0
O437 O 0.21608 0.66291 0.30575 0.0
N438 N 0.17929 0.52364 0.2979 0.0
C439 C 0.22773 0.47479 0.3388 0.0
C440 C 0.21785 0.52493 0.30972 0.0
C441 C 0.16678 0.47109 0.31945 0.0
N442 N 0.19559 0.44118 0.34447 0.0
O443 O 0.15583 0.51893 0.1964 0.0
H444 H 0.23869 0.55741 0.29582 0.0
H445 H 0.13754 0.45377 0.31492 0.0
O446 O 0.19363 0.62193 0.23019 0.0
C447 C 0.12753 0.48221 0.19335 0.0
O448 O 1.10008 0.48316 0.22987 0.0
N449 N 0.13582 0.62454 0.3103 0.0
C450 C 1.11288 0.69529 0.39527 0.0
C451 C 0.12335 0.72177 0.34659 0.0
C452 C 0.13447 0.6854 0.30421 0.0
C453 C 0.12288 0.59852 0.35651 0.0
C454 C 1.11238 0.63314 0.40007 0.0
H455 H 0.14253 0.70617 0.26669 0.0
H456 H 0.12032 0.55065 0.36003 0.0
H457 H 0.15518 0.62994 0.14236 0.0
H458 H 1.03395 0.6555 0.15112 0.0
H459 H 0.25635 0.46322 0.35358 0.0
H460 H 0.12421 0.76999 0.34192 0.0
H461 H 1.10415 0.61154 0.43727 0.0
C462 C 0.89155 0.66413 0.49535 0.0
C463 C 0.90296 0.68149 0.54554 0.0
N464 N 0.87495 0.66397 0.57967 0.0
N465 N 0.8566 0.63602 0.49846 0.0
C466 C 0.84726 0.63711 0.55072 0.0
H467 H 0.90928 0.66712 0.45976 0.0
Co468 Co 0.83705 0.58288 0.44809 0.0
C469 C 0.75781 0.64372 0.48069 0.0
O470 O 0.76664 0.66829 0.52633 0.0
N471 N 0.81869 0.52818 0.39858 0.0
C472 C 0.78213 0.4793 0.33991 0.0
C473 C 0.78883 0.53376 0.36368 0.0
C474 C 0.83029 0.47069 0.39452 0.0
N475 N 0.8085 0.44063 0.35947 0.0
O476 O 0.82973 0.52439 0.50321 0.0
H477 H 0.77214 0.57418 0.35726 0.0
H478 H 0.85313 0.45038 0.41814 0.0
O479 O 0.78327 0.61369 0.45479 0.0
C480 C 0.86318 0.50283 0.51451 0.0
O481 O 0.89381 0.5218 0.48769 0.0
N482 N 0.84769 0.63789 0.39367 0.0
C483 C 0.86952 0.71444 0.31121 0.0
C484 C 0.83999 0.73075 0.34682 0.0
C485 C 0.82998 0.69227 0.38859 0.0
C486 C 0.87727 0.62205 0.36023 0.0
C487 C 0.88892 0.66007 0.3186 0.0
H488 H 0.80825 0.70662 0.41678 0.0
H489 H 0.89178 0.57952 0.36592 0.0
H490 H 0.82299 0.61296 0.5682 0.0
H491 H 0.93009 0.70287 0.55633 0.0
H492 H 0.75925 0.46844 0.31195 0.0
H493 H 0.82475 0.77298 0.34229 0.0
H494 H 0.91169 0.64622 0.29143 0.0
C495 C 1.07538 0.19504 0.49649 0.0
C496 C 1.06272 0.17229 0.54483 0.0
N497 N 1.09406 0.16676 0.57669 0.0
N498 N 1.1144 0.20315 0.49833 0.0
C499 C 0.12494 0.18528 0.54775 0.0
H500 H 1.05711 0.20835 0.46335 0.0
Co501 Co 0.14464 0.24869 0.45161 0.0
C502 C 0.21408 0.16266 0.45157 0.0
O503 O 0.20633 0.14197 0.40402 0.0
N504 N 0.17497 0.29848 0.40632 0.0
C505 C 0.22205 0.3402 0.35698 0.0
C506 C 0.21006 0.28905 0.38299 0.0
C507 C 0.16606 0.35582 0.39303 0.0
N508 N 0.19433 0.38175 0.36353 0.0
O509 O 0.15335 0.30262 0.50842 0.0
H510 H 0.22659 0.24829 0.38441 0.0
H511 H 0.13981 0.37854 0.40544 0.0
O512 O 0.19235 0.203 0.47239 0.0
C513 C 0.12434 0.33745 0.51428 0.0
O514 O 1.09531 0.33512 0.4803 0.0
N515 N 0.13209 0.19678 0.39471 0.0
C516 C 1.10957 0.12612 0.3094 0.0
C517 C 1.11575 0.1002 0.35956 0.0
C518 C 0.12686 0.13647 0.40195 0.0
C519 C 0.12284 0.22271 0.34682 0.0
C520 C 1.1128 0.18796 0.30317 0.0
H521 H 0.13266 0.11563 0.44018 0.0
H522 H 0.12322 0.27066 0.34177 0.0
H523 H 0.15405 0.19059 0.56359 0.0
H524 H 1.03288 0.1629 0.55623 0.0
H525 H 0.24871 0.34608 0.3346 0.0
H526 H 1.11382 0.05219 0.36537 0.0
H527 H 1.10782 0.2092 0.26477 0.0
C528 C 0.83891 0.39636 0.7417 0.0
C529 C 0.8266 0.41243 0.79189 0.0
N530 N 0.85761 0.40823 0.82428 0.0
N531 N 0.87716 0.38167 0.74351 0.0
C532 C 0.88776 0.39028 0.79442 0.0
H533 H 0.8202 0.38915 0.70771 0.0
Co534 Co 0.90097 0.33025 0.69649 0.0
C535 C 0.98241 0.38411 0.73272 0.0
O536 O 0.98364 0.37918 0.78481 0.0
N537 N 0.92412 0.27671 0.64941 0.0
C538 C 0.95649 0.23532 0.582 0.0
C539 C 0.94613 0.28848 0.60569 0.0
C540 C 0.92208 0.21641 0.652 0.0
N541 N 0.94186 0.19083 0.61222 0.0
O542 O 0.90768 0.27432 0.75414 0.0
H543 H 0.95361 0.33284 0.59142 0.0
H544 H 0.90554 0.19122 0.68114 0.0
O545 O 0.95274 0.36582 0.70672 0.0
C546 C 0.87535 0.24764 0.76299 0.0
O547 O 0.84585 0.25734 0.73075 0.0
N548 N 0.89088 0.38429 0.64105 0.0
C549 C 0.8695 0.46339 0.56046 0.0
C550 C 0.89667 0.48036 0.59894 0.0
C551 C 0.9064 0.44057 0.63969 0.0
C552 C 0.86357 0.36754 0.60464 0.0
C553 C 0.85226 0.40677 0.56372 0.0
H554 H 0.92596 0.4556 0.67041 0.0
H555 H 0.85055 0.32352 0.60749 0.0
H556 H 0.91498 0.37514 0.81117 0.0
H557 H 0.79707 0.42237 0.80426 0.0
H558 H 0.97293 0.2297 0.54556 0.0
H559 H 0.9102 0.52421 0.59755 0.0
H560 H 0.83136 0.39242 0.53414 0.0
C561 C 0.64574 0.93526 0.73977 0.0
C562 C 0.65761 0.9167 0.78973 0.0
N563 N 0.62623 0.91712 0.8219 0.0
N564 N 0.60714 0.94713 0.74117 0.0
C565 C 0.59602 0.93479 0.79169 0.0
H566 H 0.66451 0.94449 0.70599 0.0
Co567 Co 0.57869 0.99423 0.69397 0.0
C568 C 0.50769 0.91154 0.69705 0.0
O569 O 0.51421 0.88997 0.64944 0.0
N570 N 0.54987 0.04498 0.64866 0.0
C571 C 0.50317 0.09275 0.6034 0.0
C572 C 0.51383 0.03943 0.62718 0.0
C573 C 0.56072 0.10174 0.63658 0.0
N574 N 0.5328 0.1313 0.60956 0.0
O575 O 0.57159 0.05041 0.7501 0.0
H576 H 0.49559 1.0003 0.62961 0.0
H577 H 0.58784 0.12181 0.6492 0.0
O578 O 0.5302 0.9518 0.71613 0.0
C579 C 0.60301 0.07965 0.75756 0.0
O580 O 0.63279 0.07069 0.72564 0.0
N581 N 0.59031 0.94098 0.63724 0.0
C582 C 0.61823 0.8708 0.55389 0.0
C583 C 0.60812 0.84447 0.60282 0.0
C584 C 0.59439 0.88043 0.64421 0.0
C585 C 0.60223 0.96707 0.59044 0.0
C586 C 0.61511 0.93267 0.54782 0.0
H587 H 0.58675 0.85946 0.68182 0.0
H588 H 0.60253 1.01506 0.58577 0.0
H589 H 0.56751 0.94531 0.80759 0.0
H590 H 0.68702 0.90664 0.80196 0.0
H591 H 0.47587 0.10263 0.58362 0.0
H592 H 0.60968 0.79645 0.60852 0.0
H593 H 0.62266 0.95434 0.51038 0.0
C594 C 0.84693 0.91291 0.46741 0.0
C595 C 0.83523 0.89708 0.41691 0.0
N596 N 0.86452 0.91097 0.38354 0.0
N597 N 0.88319 0.93684 0.46502 0.0
C598 C 0.89303 0.93456 0.41303 0.0
H599 H 0.82857 0.91259 0.50245 0.0
Co600 Co 0.90442 0.98942 0.51433 0.0
C601 C 0.98048 0.92162 0.4817 0.0
O602 O 0.96835 0.89216 0.43997 0.0
N603 N 0.92506 0.04357 0.56296 0.0
C604 C 0.9556 0.08525 0.63168 0.0
C605 C 0.94579 1.03201 0.60777 0.0
C606 C 0.92318 0.10389 0.56 0.0
N607 N 0.94194 0.12963 0.60058 0.0
O608 O 0.91289 0.04614 0.45788 0.0
H609 H 0.95304 0.98774 0.62241 0.0
H610 H 0.90763 0.12889 0.52976 0.0
O611 O 0.95735 0.95582 0.50751 0.0
C612 C 0.87974 0.06893 0.44672 0.0
O613 O 0.84927 0.05348 0.47557 0.0
N614 N 0.89194 0.93614 0.56973 0.0
C615 C 0.86579 0.86426 0.65342 0.0
C616 C 0.89682 0.84573 0.62111 0.0
C617 C 0.90907 0.8819 0.57865 0.0
C618 C 0.86117 0.95421 0.60015 0.0
C619 C 0.84737 0.91862 0.64226 0.0
H620 H 0.93219 0.8661 0.55329 0.0
H621 H 0.84735 0.99672 0.5916 0.0
H622 H 0.91831 0.95649 0.3959 0.0
H623 H 0.80709 0.87983 0.40538 0.0
H624 H 0.9711 0.09102 0.6688 0.0
H625 H 0.91156 0.80364 0.62878 0.0
H626 H 0.82356 0.9343 0.66685 0.0
C627 C 0.6529 0.37507 0.46482 0.0
C628 C 0.66617 0.392 0.41495 0.0
N629 N 0.63481 0.39868 0.38335 0.0
N630 N 0.61359 0.37094 0.46366 0.0
C631 C 0.60346 0.38636 0.41359 0.0
H632 H 0.6708 0.36093 0.49807 0.0
Co633 Co 0.58254 0.32658 0.5095 0.0
C634 C 0.51161 0.40907 0.50367 0.0
O635 O 0.51654 0.42727 0.55275 0.0
N636 N 0.55148 0.27737 0.55427 0.0
C637 C 0.50279 0.22976 0.59613 0.0
C638 C 0.51414 0.2823 0.57158 0.0
C639 C 0.56224 0.22154 0.56969 0.0
N640 N 0.53314 0.1921 0.59459 0.0
O641 O 0.57721 0.2693 0.45352 0.0
H642 H 0.49521 0.31997 0.56537 0.0
H643 H 0.59016 0.20168 0.56065 0.0
O644 O 0.53488 0.37012 0.48377 0.0
C645 C 0.60713 0.23566 0.44997 0.0
O646 O 0.63475 0.23979 0.48593 0.0
N647 N 0.59219 0.38178 0.56511 0.0
C648 C 0.61352 0.45843 0.64714 0.0
C649 C 0.60627 0.48112 0.59605 0.0
C650 C 0.59606 0.44193 0.55532 0.0
C651 C 0.60148 0.35906 0.61423 0.0
C652 C 0.61128 0.39679 0.65616 0.0
H653 H 0.59015 0.46028 0.51615 0.0
H654 H 0.60159 0.31141 0.62141 0.0
H655 H 0.57431 0.38138 0.39779 0.0
H656 H 0.69625 0.39539 0.40215 0.0
H657 H 0.47445 0.21961 0.61296 0.0
H658 H 0.6072 0.52883 0.58808 0.0
H659 H 0.61666 0.37802 0.69544 0.0
C660 C 0.39381 0.67298 0.21533 0.0
C661 C 0.40612 0.6569 0.16514 0.0
N662 N 0.37511 0.66111 0.13274 0.0
N663 N 0.35555 0.68767 0.21351 0.0
C664 C 0.34496 0.67905 0.16261 0.0
H665 H 0.41251 0.68019 0.24932 0.0
Co666 Co 0.33174 0.73908 0.26054 0.0
C667 C 0.2503 0.68522 0.22431 0.0
O668 O 0.24907 0.69015 0.17221 0.0
N669 N 0.30859 0.79262 0.30762 0.0
C670 C 0.27622 0.83402 0.37502 0.0
C671 C 0.28658 0.78086 0.35133 0.0
C672 C 0.31064 0.85293 0.30503 0.0
N673 N 0.29086 0.87851 0.3448 0.0
O674 O 0.32503 0.79501 0.20288 0.0
H675 H 0.2791 0.7365 0.3656 0.0
H676 H 0.32717 0.87812 0.27588 0.0
O677 O 0.27998 0.70352 0.2503 0.0
C678 C 0.35736 0.8217 0.19403 0.0
O679 O 0.38687 0.812 0.22628 0.0
N680 N 0.34183 0.68504 0.31597 0.0
C681 C 0.36322 0.60595 0.39657 0.0
C682 C 0.33605 0.58898 0.35809 0.0
C683 C 0.32632 0.62877 0.31733 0.0
C684 C 0.36915 0.7018 0.35239 0.0
C685 C 0.38045 0.66257 0.3933 0.0
H686 H 0.30675 0.61374 0.28661 0.0
H687 H 0.38217 0.74582 0.34953 0.0
H688 H 0.31774 0.6942 0.14585 0.0
H689 H 0.43565 0.64697 0.15276 0.0
H690 H 0.25978 0.83964 0.41146 0.0
H691 H 0.32252 0.54512 0.35947 0.0
H692 H 0.40135 0.67692 0.42288 0.0
C693 C 0.58698 0.13408 0.21726 0.0
C694 C 0.5751 0.15264 0.1673 0.0
N695 N 0.60649 0.15222 0.13513 0.0
N696 N 0.62557 0.12221 0.21586 0.0
C697 C 0.63669 0.13455 0.16533 0.0
H698 H 0.56821 0.12485 0.25103 0.0
Co699 Co 0.65402 0.07511 0.26306 0.0
C700 C 0.72502 0.1578 0.25997 0.0
O701 O 0.7185 0.17937 0.30758 0.0
N702 N 0.68284 1.02436 0.30837 0.0
C703 C 0.72954 0.97659 0.35362 0.0
C704 C 0.71888 1.02991 0.32984 0.0
C705 C 0.67199 0.9676 0.32045 0.0
N706 N 0.69992 0.93805 0.34746 0.0
O707 O 0.66112 1.01893 0.20693 0.0
H708 H 0.73713 0.06905 0.32741 0.0
H709 H 0.64487 0.94753 0.30782 0.0
O710 O 0.70251 0.11754 0.2409 0.0
C711 C 0.6297 0.9897 0.19946 0.0
O712 O 0.59992 0.99865 0.23138 0.0
N713 N 0.64241 0.12836 0.31979 0.0
C714 C 0.61449 0.19854 0.40314 0.0
C715 C 0.62459 0.22488 0.3542 0.0
C716 C 0.63832 0.18891 0.31281 0.0
C717 C 0.63048 0.10227 0.36658 0.0
C718 C 0.61761 0.13666 0.40921 0.0
H719 H 0.64596 0.20989 0.27521 0.0
H720 H 0.63018 0.05428 0.37125 0.0
H721 H 0.66521 0.12404 0.14944 0.0
H722 H 0.54569 0.1627 0.15506 0.0
H723 H 0.75684 0.96671 0.3734 0.0
H724 H 0.62303 0.27289 0.34851 0.0
H725 H 0.61005 0.115 0.44665 0.0
C726 C 0.38579 0.15643 0.48962 0.0
C727 C 0.39748 0.17226 0.54011 0.0
N728 N 0.3682 0.15836 0.57349 0.0
N729 N 0.34952 0.13249 0.492 0.0
C730 C 0.33969 0.13478 0.544 0.0
H731 H 0.40415 0.15674 0.45457 0.0
Co732 Co 0.32829 0.07992 0.4427 0.0
C733 C 0.25223 0.14772 0.47532 0.0
O734 O 0.26436 0.17717 0.51706 0.0
N735 N 0.30766 1.02577 0.39406 0.0
C736 C 0.27712 0.98409 0.32534 0.0
C737 C 0.28692 0.03733 0.34925 0.0
C738 C 0.30954 0.96545 0.39702 0.0
N739 N 0.29077 0.93971 0.35644 0.0
O740 O 0.31982 1.0232 0.49915 0.0
H741 H 0.27968 0.0816 0.33461 0.0
H742 H 0.32508 0.94044 0.42726 0.0
O743 O 0.27537 0.11352 0.44952 0.0
C744 C 0.35298 1.00041 0.51031 0.0
O745 O 0.38345 1.01585 0.48146 0.0
N746 N 0.34077 0.13319 0.38729 0.0
C747 C 0.36692 0.20508 0.3036 0.0
C748 C 0.33589 0.22361 0.33591 0.0
C749 C 0.32364 0.18743 0.37837 0.0
C750 C 0.37155 0.11513 0.35687 0.0
C751 C 0.38534 0.15072 0.31477 0.0
H752 H 0.30053 0.20324 0.40373 0.0
H753 H 0.38536 0.07262 0.36542 0.0
H754 H 0.31441 0.11284 0.56112 0.0
H755 H 0.42562 0.18951 0.55165 0.0
H756 H 0.26161 0.97832 0.28822 0.0
H757 H 0.32116 0.2657 0.32824 0.0
H758 H 0.40916 0.13503 0.29017 0.0
C759 C 0.57982 0.69427 0.4922 0.0
C760 C 0.56654 0.67734 0.54208 0.0
N761 N 0.59791 0.67066 0.57368 0.0
N762 N 0.61912 0.6984 0.49336 0.0
C763 C 0.62926 0.68298 0.54343 0.0
H764 H 0.56192 0.70842 0.45895 0.0
Co765 Co 0.65018 0.74276 0.44753 0.0
C766 C 0.72111 0.66027 0.45335 0.0
O767 O 0.71618 0.64207 0.40428 0.0
N768 N 0.68123 0.79197 0.40275 0.0
C769 C 0.72993 0.83958 0.36089 0.0
C770 C 0.71858 0.78704 0.38544 0.0
C771 C 0.67047 0.8478 0.38733 0.0
N772 N 0.69958 0.87725 0.36243 0.0
O773 O 0.65551 0.80004 0.5035 0.0
H774 H 0.73751 0.74937 0.39165 0.0
H775 H 0.64255 0.86766 0.39637 0.0
O776 O 0.69784 0.69922 0.47325 0.0
C777 C 0.62558 0.83368 0.50705 0.0
O778 O 0.59796 0.82955 0.4711 0.0
N779 N 0.64053 0.68756 0.39191 0.0
C780 C 0.6192 0.61092 0.30988 0.0
C781 C 0.62645 0.58822 0.36097 0.0
C782 C 0.63665 0.62741 0.4017 0.0
C783 C 0.63123 0.71028 0.3428 0.0
C784 C 0.62144 0.67255 0.30086 0.0
H785 H 0.64256 0.60906 0.44087 0.0
H786 H 0.63113 0.75793 0.33562 0.0
H787 H 0.65841 0.68796 0.55923 0.0
H788 H 0.53647 0.67395 0.55487 0.0
H789 H 0.75826 0.84973 0.34406 0.0
H790 H 0.62551 0.54051 0.36894 0.0
H791 H 0.61606 0.69132 0.26158 0.0
C792 C 0.84635 0.90844 0.24408 0.0
C793 C 0.83506 0.9242 0.29484 0.0
N794 N 0.86433 0.90925 0.32774 0.0
N795 N 0.88233 0.88353 0.24587 0.0
C796 C 0.89244 0.88522 0.29775 0.0
H797 H 0.82784 0.90941 0.20925 0.0
Co798 Co 0.90241 0.83033 0.19616 0.0
C799 C 0.97953 0.89616 0.22744 0.0
O800 O 0.96761 0.92683 0.26863 0.0
N801 N 0.92174 0.77571 0.14714 0.0
C802 C 0.95322 0.73295 0.07966 0.0
C803 C 0.94481 0.78637 0.10423 0.0
C804 C 0.91675 0.71578 0.14818 0.0
N805 N 0.93591 0.68939 0.10823 0.0
O806 O 0.90996 0.77288 0.25226 0.0
H807 H 0.95491 0.83014 0.09167 0.0
H808 H 0.89924 0.69164 0.17704 0.0
O809 O 0.95604 0.86189 0.20234 0.0
C810 C 0.87637 0.7517 0.26388 0.0
O811 O 0.84609 0.76881 0.23555 0.0
N812 N 0.89092 0.88419 0.14113 0.0
C813 C 0.86743 0.95616 0.05641 0.0
C814 C 0.89799 0.97411 0.08963 0.0
C815 C 0.90888 0.93792 0.13262 0.0
C816 C 0.86038 0.86692 0.11003 0.0
C817 C 0.8479 0.90261 0.06735 0.0
H818 H 0.93165 0.95327 0.15866 0.0
H819 H 0.84586 0.82486 0.11832 0.0
H820 H 0.91759 0.86262 0.31439 0.0
H821 H 0.80718 0.94214 0.30688 0.0
H822 H 0.97057 0.72646 0.04414 0.0
H823 H 0.9134 1.01576 0.08226 0.0
H824 H 0.8243 0.88755 0.04214 0.0
C825 C 0.65133 0.41191 0.24353 0.0
C826 C 0.66351 0.39357 0.29342 0.0
N827 N 0.63438 0.40519 0.32761 0.0
N828 N 0.61482 0.43453 0.24692 0.0
C829 C 0.6053 0.4294 0.29887 0.0
H830 H 0.66922 0.41351 0.20802 0.0
Co831 Co 0.5926 0.4867 0.19768 0.0
C832 C 0.51408 0.42047 0.22981 0.0
O833 O 0.52149 0.39585 0.27636 0.0
N834 N 0.5715 0.54115 0.14896 0.0
C835 C 0.53254 0.58783 0.0909 0.0
C836 C 0.54173 0.53354 0.11432 0.0
C837 C 0.58068 0.59978 0.14493 0.0
N838 N 0.55731 0.62853 0.11043 0.0
O839 O 0.58436 0.54293 0.25382 0.0
H840 H 0.5271 0.49157 0.10734 0.0
H841 H 0.60308 0.62165 0.16786 0.0
O842 O 0.5401 0.45158 0.20557 0.0
C843 C 0.61599 0.57023 0.26477 0.0
O844 O 0.6474 0.55934 0.23647 0.0
N845 N 0.6032 0.43285 0.14308 0.0
C846 C 0.62018 0.35565 0.06053 0.0
C847 C 0.59654 0.33682 0.10283 0.0
C848 C 0.58901 0.37575 0.14439 0.0
C849 C 0.62765 0.45114 0.10318 0.0
C850 C 0.63663 0.4129 0.06112 0.0
H851 H 0.57186 0.3597 0.17765 0.0
H852 H 0.63975 0.49583 0.10367 0.0
H853 H 0.5796 0.44922 0.31637 0.0
H854 H 0.69186 0.37589 0.30404 0.0
H855 H 0.50939 0.59698 0.0627 0.0
H856 H 0.58371 0.29246 0.10348 0.0
H857 H 0.65486 0.42859 0.02857 0.0
C858 C 0.84061 0.41362 0.96401 0.0
C859 C 0.82848 0.39778 0.91369 0.0
N860 N 0.85786 0.41061 0.88006 0.0
N861 N 0.87719 0.43627 0.96114 0.0
C862 C 0.88688 0.43321 0.90926 0.0
H863 H 0.82248 0.41432 -0.00071 0.0
Co864 Co 0.89895 0.48842 0.0096 0.0
C865 C 0.97866 0.42811 0.97452 0.0
O866 O 0.97192 0.40901 0.92618 0.0
N867 N 0.92002 0.54238 0.05782 0.0
C868 C 0.95346 0.58435 0.12384 0.0
C869 C 0.9442 0.53121 0.09935 0.0
C870 C 0.9152 0.60233 0.05752 0.0
N871 N 0.93547 0.62823 0.09663 0.0
O872 O 0.90492 0.54642 0.9529 0.0
H873 H 0.95443 0.48725 0.11107 0.0
H874 H 0.89705 0.62685 0.02983 0.0
O875 O 0.95211 0.45554 0.00068 0.0
C876 C 0.87165 0.56996 0.94332 0.0
O877 O 0.84183 0.55549 0.97373 0.0
N878 N 0.88928 0.43336 0.06451 0.0
C879 C 0.87019 0.35535 0.14715 0.0
C880 C 0.89728 0.33866 0.10832 0.0
C881 C 0.90585 0.37788 0.06654 0.0
C882 C 0.86182 0.44954 0.10104 0.0
C883 C 0.85163 0.41084 0.14293 0.0
H884 H 0.92555 0.36321 0.0358 0.0
H885 H 0.848 0.49291 0.09774 0.0
H886 H 0.91213 0.45481 0.89188 0.0
H887 H 0.79999 0.38139 0.90235 0.0
H888 H 0.97187 0.59044 0.15835 0.0
H889 H 0.91172 0.29556 0.11031 0.0
H890 H 0.83068 0.4249 0.17261 0.0
C891 C 0.64352 0.91118 0.96185 0.0
C892 C 0.65484 0.92824 0.91117 0.0
N893 N 0.62597 0.91312 0.87784 0.0
N894 N 0.60774 0.88567 0.95995 0.0
C895 C 0.59778 0.88809 0.90787 0.0
H896 H 0.66177 0.91234 -0.00309 0.0
Co897 Co 0.58762 0.83275 0.01124 0.0
C898 C 0.51113 0.90167 -0.01782 0.0
O899 O 0.52246 0.93333 0.94068 0.0
N900 N 0.56858 0.77814 0.06137 0.0
C901 C 0.53104 0.72975 0.12024 0.0
C902 C 0.53879 0.78434 0.09634 0.0
C903 C 0.5792 0.72015 0.06564 0.0
N904 N 0.55669 0.69035 0.10066 0.0
O905 O 0.57751 0.77625 0.95657 0.0
H906 H 0.52291 0.82536 0.10284 0.0
H907 H 0.60183 0.69943 0.04219 0.0
O908 O 0.53476 0.86622 0.00609 0.0
C909 C 0.60952 0.75161 0.94329 0.0
O910 O 0.64175 0.76699 0.96788 0.0
N911 N 0.60049 0.88584 0.06548 0.0
C912 C 0.62305 0.95629 0.15049 0.0
C913 C 0.59474 0.97665 0.11452 0.0
C914 C 0.58432 0.94112 0.0715 0.0
C915 C 0.62919 0.86639 0.09904 0.0
C916 C 0.64107 0.90118 0.14207 0.0
H917 H 0.56322 0.95817 0.04346 0.0
H918 H 0.64246 0.82314 0.09277 0.0
H919 H 0.57241 0.86626 0.89139 0.0
H920 H 0.68252 0.9476 0.89951 0.0
H921 H 0.50812 0.71942 0.14857 0.0
H922 H 0.58045 1.01938 0.12005 0.0
H923 H 0.66286 0.88423 0.16952 0.0
C924 C 0.38637 0.1609 0.71294 0.0
C925 C 0.39766 0.14514 0.66219 0.0
N926 N 0.36839 0.16009 0.62928 0.0
N927 N 0.35039 0.18581 0.71115 0.0
C928 C 0.34027 0.18412 0.65927 0.0
H929 H 0.40487 0.15992 0.74777 0.0
Co930 Co 0.3303 0.23901 0.76086 0.0
C931 C 0.25319 0.17318 0.72958 0.0
O932 O 0.2651 0.14251 0.68839 0.0
N933 N 0.31097 0.29363 0.80988 0.0
C934 C 0.27949 0.33639 0.87736 0.0
C935 C 0.28791 0.28297 0.85279 0.0
C936 C 0.31596 0.35356 0.80884 0.0
N937 N 0.2968 0.37994 0.84879 0.0
O938 O 0.32275 0.29646 0.70476 0.0
H939 H 0.27781 0.2392 0.86535 0.0
H940 H 0.33347 0.3777 0.77998 0.0
O941 O 0.27668 0.20745 0.75468 0.0
C942 C 0.35634 0.31764 0.69315 0.0
O943 O 0.38662 0.30053 0.72147 0.0
N944 N 0.34179 0.18515 0.8159 0.0
C945 C 0.36529 0.11318 0.90061 0.0
C946 C 0.33472 0.09523 0.86739 0.0
C947 C 0.32383 0.13142 0.82441 0.0
C948 C 0.37234 0.20241 0.84699 0.0
C949 C 0.38482 0.16673 0.88967 0.0
H950 H 0.30106 0.11607 0.79837 0.0
H951 H 0.38686 0.24448 0.8387 0.0
H952 H 0.31512 0.20672 0.64263 0.0
H953 H 0.42554 0.1272 0.65014 0.0
H954 H 0.26214 0.34288 0.91288 0.0
H955 H 0.31932 0.05358 0.87476 0.0
H956 H 0.40841 0.18179 0.91489 0.0
C957 C 0.58138 0.65744 0.71349 0.0
C958 C 0.56921 0.67578 0.6636 0.0
N959 N 0.59833 0.66415 0.62941 0.0
N960 N 0.61789 0.63482 0.7101 0.0
C961 C 0.62742 0.63994 0.65816 0.0
H962 H 0.56349 0.65584 0.749 0.0
Co963 Co 0.64011 0.58264 0.75934 0.0
C964 C 0.71863 0.64887 0.72721 0.0
O965 O 0.71123 0.6735 0.68067 0.0
N966 N 0.66121 0.52819 0.80806 0.0
C967 C 0.70017 0.48152 0.86612 0.0
C968 C 0.69098 0.5358 0.84271 0.0
C969 C 0.65203 0.46956 0.81209 0.0
N970 N 0.6754 0.44081 0.84659 0.0
O971 O 0.64835 0.52641 0.7032 0.0
H972 H 0.70561 0.57778 0.84969 0.0
H973 H 0.62964 0.44769 0.78916 0.0
O974 O 0.69262 0.61776 0.75146 0.0
C975 C 0.61672 0.49911 0.69225 0.0
O976 O 0.58531 0.51001 0.72055 0.0
N977 N 0.62951 0.63649 0.81394 0.0
C978 C 0.61253 0.71368 0.8965 0.0
C979 C 0.63617 0.73252 0.8542 0.0
C980 C 0.6437 0.69359 0.81263 0.0
C981 C 0.60507 0.6182 0.85384 0.0
C982 C 0.59609 0.65643 0.89591 0.0
H983 H 0.66085 0.70964 0.77938 0.0
H984 H 0.59296 0.57351 0.85335 0.0
H985 H 0.65312 0.62012 0.64065 0.0
H986 H 0.54085 0.69345 0.65299 0.0
H987 H 0.72332 0.47237 0.89433 0.0
H988 H 0.64901 0.77688 0.85355 0.0
H989 H 0.57785 0.64075 0.92845 0.0
C990 C 0.39211 0.65572 -0.00699 0.0
C991 C 0.40424 0.67155 0.04333 0.0
N992 N 0.37486 0.65873 0.07696 0.0
N993 N 0.35552 0.63307 -0.00412 0.0
C994 C 0.34583 0.63613 0.04776 0.0
H995 H 0.41023 0.65502 0.95773 0.0
Co996 Co 0.33376 0.58092 0.94743 0.0
C997 C 0.25406 0.64122 -0.0175 0.0
O998 O 0.2608 0.66032 0.03085 0.0
N999 N 0.3127 0.52696 0.89921 0.0
C1000 C 0.27925 0.48499 0.83318 0.0
C1001 C 0.28852 0.53813 0.85767 0.0
C1002 C 0.31751 0.46701 0.89951 0.0
N1003 N 0.29725 0.44111 0.86039 0.0
O1004 O 0.32779 0.52292 0.00412 0.0
H1005 H 0.27829 0.58209 0.84596 0.0
H1006 H 0.33567 0.44249 0.9272 0.0
O1007 O 0.2806 0.6138 0.95634 0.0
C1008 C 0.36107 0.49938 0.0137 0.0
O1009 O 0.39089 0.51385 -0.01671 0.0
N1010 N 0.34344 0.63598 0.89251 0.0
C1011 C 0.36252 0.71399 0.80987 0.0
C1012 C 0.33543 0.73067 0.8487 0.0
C1013 C 0.32687 0.69146 0.89049 0.0
C1014 C 0.3709 0.6198 0.85598 0.0
C1015 C 0.38108 0.6585 0.81409 0.0
H1016 H 0.30717 0.70613 0.92122 0.0
H1017 H 0.38472 0.57643 0.85929 0.0
H1018 H 0.32059 0.61453 0.06514 0.0
H1019 H 0.43273 0.68795 0.05467 0.0
H1020 H 0.26085 0.4789 0.79867 0.0
H1021 H 0.32099 0.77378 0.84671 0.0
H1022 H 0.40204 0.64444 0.78441 0.0
C1023 C 0.58919 0.15816 -0.00482 0.0
C1024 C 0.57787 0.1411 0.04585 0.0
N1025 N 0.60675 0.15622 0.07918 0.0
N1026 N 0.62497 0.18367 -0.00292 0.0
C1027 C 0.63493 0.18125 0.04915 0.0
H1028 H 0.57094 0.157 0.96011 0.0
Co1029 Co 0.64509 0.23659 0.94579 0.0
C1030 C 0.72158 0.16767 0.97484 0.0
O1031 O 0.71026 0.13601 0.01634 0.0
N1032 N 0.66413 0.2912 0.89565 0.0
C1033 C 0.70167 0.33959 0.83678 0.0
C1034 C 0.69392 0.285 0.86068 0.0
C1035 C 0.65352 0.34919 0.89139 0.0
N1036 N 0.67602 0.37899 0.85636 0.0
O1037 O 0.6552 0.29309 0.00046 0.0
H1038 H 0.7098 0.24398 0.85418 0.0
H1039 H 0.63089 0.36991 0.91484 0.0
O1040 O 0.69795 0.20312 0.95093 0.0
C1041 C 0.6232 0.31773 0.01374 0.0
O1042 O 0.59096 0.30235 -0.01086 0.0
N1043 N 0.63223 0.1835 0.89154 0.0
C1044 C 0.60967 0.11306 0.80653 0.0
C1045 C 0.63798 0.09269 0.8425 0.0
C1046 C 0.6484 0.12822 0.88552 0.0
C1047 C 0.60353 0.20295 0.85798 0.0
C1048 C 0.59165 0.16816 0.81496 0.0
H1049 H 0.6695 0.11117 0.91357 0.0
H1050 H 0.59025 0.2462 0.86425 0.0
H1051 H 0.66031 0.20308 0.06563 0.0
H1052 H 0.55019 0.12174 0.05751 0.0
H1053 H 0.72459 0.34992 0.80844 0.0
H1054 H 0.65226 0.04996 0.83698 0.0
H1055 H 0.56985 0.18512 0.78751 0.0
loop_
_geom_bond_atom_site_label_1
_geom_bond_atom_site_label_2
_geom_bond_distance
_geom_bond_site_symmetry_2
_ccdc_geom_bond_type
C0 C1 1.351 . S
C0 N3 1.368 . S
C0 H5 0.931 . S
C1 C0 1.351 . S
C1 N2 1.373 . S
C1 H29 0.930 . S
N2 C1 1.373 . S
N2 C4 1.340 . S
N3 C0 1.368 . S
N3 C4 1.321 . S
N3 Co6 2.135 . S
C4 N2 1.340 . S
C4 N3 1.321 . S
C4 H28 0.930 . S
H5 C0 0.931 . S
Co6 N3 2.135 . S
Co6 N9 2.121 . S
Co6 O14 2.055 . S
Co6 O17 2.039 . S
Co6 N20 2.140 . S
C7 O8 1.227 . S
C7 O17 1.265 . S
O8 C7 1.227 . S
N9 Co6 2.121 . S
N9 C11 1.375 . S
N9 C12 1.313 . S
C10 C11 1.338 . S
C10 N13 1.377 . S
C10 H30 0.930 . S
C11 N9 1.375 . S
C11 C10 1.338 . S
C11 H15 0.931 . S
C12 N9 1.313 . S
C12 N13 1.344 . S
C12 H16 0.930 . S
N13 C10 1.377 . S
N13 C12 1.344 . S
O14 Co6 2.055 . S
O14 C18 1.253 . S
H15 C11 0.931 . S
H16 C12 0.930 . S
O17 Co6 2.039 . S
O17 C7 1.265 . S
C18 O14 1.253 . S
C18 O19 1.227 . S
O19 C18 1.227 . S
N20 Co6 2.140 . S
N20 C23 1.346 . S
N20 C24 1.345 . S
C21 C22 1.387 . S
C21 C25 1.391 . S
C22 C21 1.387 . S
C22 C23 1.369 . S
C22 H31 0.929 . S
C23 N20 1.346 . S
C23 C22 1.369 . S
C23 H26 0.928 . S
C24 N20 1.345 . S
C24 C25 1.371 . S
C24 H27 0.931 . S
C25 C21 1.391 . S
C25 C24 1.371 . S
C25 H32 0.930 . S
H26 C23 0.928 . S
H27 C24 0.931 . S
H28 C4 0.930 . S
H29 C1 0.930 . S
H30 C10 0.930 . S
H31 C22 0.929 . S
H32 C25 0.930 . S
C33 C34 1.351 . S
C33 N36 1.368 . S
C33 H38 0.955 . S
C34 C33 1.351 . S
C34 N35 1.373 . S
C34 H62 0.915 1_655 S
N35 C34 1.373 . S
N35 C37 1.340 . S
N36 C33 1.368 . S
N36 C37 1.321 . S
N36 Co39 2.135 . S
C37 N35 1.340 . S
C37 N36 1.321 . S
C37 H61 0.930 . S
H38 C33 0.955 . S
Co39 N36 2.135 . S
Co39 N42 2.121 1_565 S
Co39 O47 2.055 1_565 S
Co39 O50 2.039 . S
Co39 N53 2.140 . S
C40 O41 1.227 . S
C40 O50 1.265 . S
O41 C40 1.227 . S
N42 Co39 2.121 1_545 S
N42 C44 1.375 . S
N42 C45 1.313 . S
C43 C44 1.338 . S
C43 N46 1.377 . S
C43 H63 0.930 . S
C44 N42 1.375 . S
C44 C43 1.338 . S
C44 H48 0.931 1_545 S
C45 N42 1.313 . S
C45 N46 1.344 . S
C45 H49 0.930 . S
N46 C43 1.377 . S
N46 C45 1.344 . S
O47 Co39 2.055 1_545 S
O47 C51 1.253 . S
H48 C44 0.931 1_565 S
H49 C45 0.930 . S
O50 Co39 2.039 . S
O50 C40 1.265 . S
C51 O47 1.253 . S
C51 O52 1.227 . S
O52 C51 1.227 . S
N53 Co39 2.140 . S
N53 C56 1.346 . S
N53 C57 1.345 . S
C54 C55 1.387 1_455 S
C54 C58 1.391 . S
C55 C54 1.387 1_655 S
C55 C56 1.369 . S
C55 H64 0.929 . S
C56 N53 1.346 . S
C56 C55 1.369 . S
C56 H59 0.928 . S
C57 N53 1.345 . S
C57 C58 1.371 1_655 S
C57 H60 0.931 . S
C58 C54 1.391 . S
C58 C57 1.371 1_455 S
C58 H65 0.930 . S
H59 C56 0.928 . S
H60 C57 0.931 . S
H61 C37 0.930 . S
H62 C34 0.915 1_455 S
H63 C43 0.930 . S
H64 C55 0.929 . S
H65 C58 0.930 . S
C66 C67 1.351 . S
C66 N69 1.368 . S
C66 H71 0.931 . S
C67 C66 1.351 . S
C67 N68 1.373 . S
C67 H95 0.930 . S
N68 C67 1.373 . S
N68 C70 1.340 . S
N69 C66 1.368 . S
N69 C70 1.321 . S
N69 Co72 2.135 1_556 S
C70 N68 1.340 . S
C70 N69 1.321 . S
C70 H94 0.930 . S
H71 C66 0.931 . S
Co72 N69 2.135 1_554 S
Co72 N75 2.121 1_565 S
Co72 O80 2.055 1_564 S
Co72 O83 2.039 1_554 S
Co72 N86 2.140 . S
C73 O74 1.227 . S
C73 O83 1.265 1_554 S
O74 C73 1.227 . S
N75 Co72 2.121 1_545 S
N75 C77 1.375 . S
N75 C78 1.313 . S
C76 C77 1.338 . S
C76 N79 1.377 . S
C76 H96 0.930 . S
C77 N75 1.375 . S
C77 C76 1.338 . S
C77 H81 0.931 1_545 S
C78 N75 1.313 . S
C78 N79 1.344 . S
C78 H82 0.930 . S
N79 C76 1.377 . S
N79 C78 1.344 . S
O80 Co72 2.055 1_546 S
O80 C84 1.253 . S
H81 C77 0.931 1_565 S
H82 C78 0.930 . S
O83 Co72 2.039 1_556 S
O83 C73 1.265 1_556 S
C84 O80 1.253 . S
C84 O85 1.227 . S
O85 C84 1.227 . S
N86 Co72 2.140 . S
N86 C89 1.346 . S
N86 C90 1.345 . S
C87 C88 1.387 . S
C87 C91 1.391 . S
C88 C87 1.387 . S
C88 C89 1.369 . S
C88 H97 0.929 . S
C89 N86 1.346 . S
C89 C88 1.369 . S
C89 H92 0.928 . S
C90 N86 1.345 . S
C90 C91 1.371 . S
C90 H93 0.931 . S
C91 C87 1.391 . S
C91 C90 1.371 . S
C91 H98 0.930 . S
H92 C89 0.928 . S
H93 C90 0.931 . S
H94 C70 0.930 . S
H95 C67 0.930 . S
H96 C76 0.930 . S
H97 C88 0.929 . S
H98 C91 0.930 . S
C99 C100 1.351 . S
C99 N102 1.368 . S
C99 H104 0.955 . S
C100 C99 1.351 . S
C100 N101 1.373 . S
C100 H128 0.915 1_655 S
N101 C100 1.373 . S
N101 C103 1.340 . S
N102 C99 1.368 . S
N102 C103 1.321 . S
N102 Co105 2.135 1_556 S
C103 N101 1.340 . S
C103 N102 1.321 . S
C103 H127 0.930 . S
H104 C99 0.955 . S
Co105 N102 2.135 1_554 S
Co105 N108 2.121 . S
Co105 O113 2.055 1_554 S
Co105 O116 2.039 1_554 S
Co105 N119 2.140 . S
C106 O107 1.227 . S
C106 O116 1.265 1_554 S
O107 C106 1.227 . S
N108 Co105 2.121 . S
N108 C110 1.375 . S
N108 C111 1.313 . S
C109 C110 1.338 . S
C109 N112 1.377 . S
C109 H129 0.930 . S
C110 N108 1.375 . S
C110 C109 1.338 . S
C110 H114 0.931 . S
C111 N108 1.313 . S
C111 N112 1.344 . S
C111 H115 0.930 . S
N112 C109 1.377 . S
N112 C111 1.344 . S
O113 Co105 2.055 1_556 S
O113 C117 1.253 . S
H114 C110 0.931 . S
H115 C111 0.930 . S
O116 Co105 2.039 1_556 S
O116 C106 1.265 1_556 S
C117 O113 1.253 . S
C117 O118 1.227 . S
O118 C117 1.227 . S
N119 Co105 2.140 . S
N119 C122 1.346 . S
N119 C123 1.345 . S
C120 C121 1.387 1_455 S
C120 C124 1.391 . S
C121 C120 1.387 1_655 S
C121 C122 1.369 . S
C121 H130 0.929 . S
C122 N119 1.346 . S
C122 C121 1.369 . S
C122 H125 0.928 . S
C123 N119 1.345 . S
C123 C124 1.371 1_655 S
C123 H126 0.931 . S
C124 C120 1.391 . S
C124 C123 1.371 1_455 S
C124 H131 0.930 . S
H125 C122 0.928 . S
H126 C123 0.931 . S
H127 C103 0.930 . S
H128 C100 0.915 1_455 S
H129 C109 0.930 . S
H130 C121 0.929 . S
H131 C124 0.930 . S
C132 C133 1.351 . S
C132 N135 1.368 . S
C132 H137 0.931 . S
C133 C132 1.351 . S
C133 N134 1.373 . S
C133 H161 0.930 . S
N134 C133 1.373 . S
N134 C136 1.340 . S
N135 C132 1.368 . S
N135 C136 1.321 . S
N135 Co138 2.135 . S
C136 N134 1.340 . S
C136 N135 1.321 . S
C136 H160 0.930 . S
H137 C132 0.931 . S
Co138 N135 2.135 . S
Co138 N141 2.121 . S
Co138 O146 2.055 . S
Co138 O149 2.039 . S
Co138 N152 2.140 . S
C139 O140 1.227 . S
C139 O149 1.265 . S
O140 C139 1.227 . S
N141 Co138 2.121 . S
N141 C143 1.375 . S
N141 C144 1.313 . S
C142 C143 1.338 . S
C142 N145 1.377 . S
C142 H162 0.930 . S
C143 N141 1.375 . S
C143 C142 1.338 . S
C143 H147 0.931 . S
C144 N141 1.313 . S
C144 N145 1.344 . S
C144 H148 0.930 . S
N145 C142 1.377 . S
N145 C144 1.344 . S
O146 Co138 2.055 . S
O146 C150 1.253 . S
H147 C143 0.931 . S
H148 C144 0.930 . S
O149 Co138 2.039 . S
O149 C139 1.265 . S
C150 O146 1.253 . S
C150 O151 1.227 . S
O151 C150 1.227 . S
N152 Co138 2.140 . S
N152 C155 1.346 . S
N152 C156 1.345 . S
C153 C154 1.387 . S
C153 C157 1.391 . S
C154 C153 1.387 . S
C154 C155 1.369 . S
C154 H163 0.929 . S
C155 N152 1.346 . S
C155 C154 1.369 . S
C155 H158 0.928 . S
C156 N152 1.345 . S
C156 C157 1.371 . S
C156 H159 0.931 . S
C157 C153 1.391 . S
C157 C156 1.371 . S
C157 H164 0.930 . S
H158 C155 0.928 . S
H159 C156 0.931 . S
H160 C136 0.930 . S
H161 C133 0.930 . S
H162 C142 0.930 . S
H163 C154 0.929 . S
H164 C157 0.930 . S
C165 C166 1.351 . S
C165 N168 1.368 . S
C165 H170 0.955 . S
C166 C165 1.351 . S
C166 N167 1.373 . S
C166 H194 0.915 1_455 S
N167 C166 1.373 . S
N167 C169 1.340 . S
N168 C165 1.368 . S
N168 C169 1.321 . S
N168 Co171 2.135 . S
C169 N167 1.340 . S
C169 N168 1.321 . S
C169 H193 0.930 . S
H170 C165 0.955 . S
Co171 N168 2.135 . S
Co171 N174 2.121 1_545 S
Co171 O179 2.055 1_545 S
Co171 O182 2.039 . S
Co171 N185 2.140 . S
C172 O173 1.227 . S
C172 O182 1.265 . S
O173 C172 1.227 . S
N174 Co171 2.121 1_565 S
N174 C176 1.375 . S
N174 C177 1.313 . S
C175 C176 1.338 . S
C175 N178 1.377 . S
C175 H195 0.930 . S
C176 N174 1.375 . S
C176 C175 1.338 . S
C176 H180 0.931 1_565 S
C177 N174 1.313 . S
C177 N178 1.344 . S
C177 H181 0.930 . S
N178 C175 1.377 . S
N178 C177 1.344 . S
O179 Co171 2.055 1_565 S
O179 C183 1.253 . S
H180 C176 0.931 1_545 S
H181 C177 0.930 . S
O182 Co171 2.039 . S
O182 C172 1.265 . S
C183 O179 1.253 . S
C183 O184 1.227 . S
O184 C183 1.227 . S
N185 Co171 2.140 . S
N185 C188 1.346 . S
N185 C189 1.345 . S
C186 C187 1.387 1_655 S
C186 C190 1.391 . S
C187 C186 1.387 1_455 S
C187 C188 1.369 . S
C187 H196 0.929 . S
C188 N185 1.346 . S
C188 C187 1.369 . S
C188 H191 0.928 . S
C189 N185 1.345 . S
C189 C190 1.371 1_455 S
C189 H192 0.931 . S
C190 C186 1.391 . S
C190 C189 1.371 1_655 S
C190 H197 0.930 . S
H191 C188 0.928 . S
H192 C189 0.931 . S
H193 C169 0.930 . S
H194 C166 0.915 1_655 S
H195 C175 0.930 . S
H196 C187 0.929 . S
H197 C190 0.930 . S
C198 C199 1.351 . S
C198 N201 1.368 . S
C198 H203 0.931 . S
C199 C198 1.351 . S
C199 N200 1.373 . S
C199 H227 0.930 . S
N200 C199 1.373 . S
N200 C202 1.340 . S
N201 C198 1.368 . S
N201 C202 1.321 . S
N201 Co204 2.135 1_554 S
C202 N200 1.340 . S
C202 N201 1.321 . S
C202 H226 0.930 . S
H203 C198 0.931 . S
Co204 N201 2.135 1_556 S
Co204 N207 2.121 1_545 S
Co204 O212 2.055 1_546 S
Co204 O215 2.039 1_556 S
Co204 N218 2.140 . S
C205 O206 1.227 . S
C205 O215 1.265 1_556 S
O206 C205 1.227 . S
N207 Co204 2.121 1_565 S
N207 C209 1.375 . S
N207 C210 1.313 . S
C208 C209 1.338 . S
C208 N211 1.377 . S
C208 H228 0.930 . S
C209 N207 1.375 . S
C209 C208 1.338 . S
C209 H213 0.931 1_565 S
C210 N207 1.313 . S
C210 N211 1.344 . S
C210 H214 0.930 . S
N211 C208 1.377 . S
N211 C210 1.344 . S
O212 Co204 2.055 1_564 S
O212 C216 1.253 . S
H213 C209 0.931 1_545 S
H214 C210 0.930 . S
O215 Co204 2.039 1_554 S
O215 C205 1.265 1_554 S
C216 O212 1.253 . S
C216 O217 1.227 . S
O217 C216 1.227 . S
N218 Co204 2.140 . S
N218 C221 1.346 . S
N218 C222 1.345 . S
C219 C220 1.387 . S
C219 C223 1.391 . S
C220 C219 1.387 . S
C220 C221 1.369 . S
C220 H229 0.929 . S
C221 N218 1.346 . S
C221 C220 1.369 . S
C221 H224 0.928 . S
C222 N218 1.345 . S
C222 C223 1.371 . S
C222 H225 0.931 . S
C223 C219 1.391 . S
C223 C222 1.371 . S
C223 H230 0.930 . S
H224 C221 0.928 . S
H225 C222 0.931 . S
H226 C202 0.930 . S
H227 C199 0.930 . S
H228 C208 0.930 . S
H229 C220 0.929 . S
H230 C223 0.930 . S
C231 C232 1.351 . S
C231 N234 1.368 . S
C231 H236 0.955 . S
C232 C231 1.351 . S
C232 N233 1.373 . S
C232 H260 0.915 1_455 S
N233 C232 1.373 . S
N233 C235 1.340 . S
N234 C231 1.368 . S
N234 C235 1.321 . S
N234 Co237 2.135 1_554 S
C235 N233 1.340 . S
C235 N234 1.321 . S
C235 H259 0.930 . S
H236 C231 0.955 . S
Co237 N234 2.135 1_556 S
Co237 N240 2.121 . S
Co237 O245 2.055 1_556 S
Co237 O248 2.039 1_556 S
Co237 N251 2.140 . S
C238 O239 1.227 . S
C238 O248 1.265 1_556 S
O239 C238 1.227 . S
N240 Co237 2.121 . S
N240 C242 1.375 . S
N240 C243 1.313 . S
C241 C242 1.338 . S
C241 N244 1.377 . S
C241 H261 0.930 . S
C242 N240 1.375 . S
C242 C241 1.338 . S
C242 H246 0.931 . S
C243 N240 1.313 . S
C243 N244 1.344 . S
C243 H247 0.930 . S
N244 C241 1.377 . S
N244 C243 1.344 . S
O245 Co237 2.055 1_554 S
O245 C249 1.253 . S
H246 C242 0.931 . S
H247 C243 0.930 . S
O248 Co237 2.039 1_554 S
O248 C238 1.265 1_554 S
C249 O245 1.253 . S
C249 O250 1.227 . S
O250 C249 1.227 . S
N251 Co237 2.140 . S
N251 C254 1.346 . S
N251 C255 1.345 . S
C252 C253 1.387 1_655 S
C252 C256 1.391 . S
C253 C252 1.387 1_455 S
C253 C254 1.369 . S
C253 H262 0.929 . S
C254 N251 1.346 . S
C254 C253 1.369 . S
C254 H257 0.928 . S
C255 N251 1.345 . S
C255 C256 1.371 1_455 S
C255 H258 0.931 . S
C256 C252 1.391 . S
C256 C255 1.371 1_655 S
C256 H263 0.930 . S
H257 C254 0.928 . S
H258 C255 0.931 . S
H259 C235 0.930 . S
H260 C232 0.915 1_655 S
H261 C241 0.930 . S
H262 C253 0.929 . S
H263 C256 0.930 . S
C264 C265 1.351 . S
C264 N267 1.368 . S
C264 H269 0.931 . S
C265 C264 1.351 . S
C265 N266 1.373 . S
C265 H293 0.930 . S
N266 C265 1.373 . S
N266 C268 1.340 . S
N267 C264 1.368 . S
N267 C268 1.321 . S
N267 Co270 2.135 . S
C268 N266 1.340 . S
C268 N267 1.321 . S
C268 H292 0.930 . S
H269 C264 0.931 . S
Co270 N267 2.135 . S
Co270 N273 2.121 . S
Co270 O278 2.055 . S
Co270 O281 2.039 . S
Co270 N284 2.140 . S
C271 O272 1.227 . S
C271 O281 1.265 . S
O272 C271 1.227 . S
N273 Co270 2.121 . S
N273 C275 1.375 . S
N273 C276 1.313 . S
C274 C275 1.338 . S
C274 N277 1.377 . S
C274 H294 0.930 . S
C275 N273 1.375 . S
C275 C274 1.338 . S
C275 H279 0.931 . S
C276 N273 1.313 . S
C276 N277 1.344 . S
C276 H280 0.930 . S
N277 C274 1.377 . S
N277 C276 1.344 . S
O278 Co270 2.055 . S
O278 C282 1.253 . S
H279 C275 0.931 . S
H280 C276 0.930 . S
O281 Co270 2.039 . S
O281 C271 1.265 . S
C282 O278 1.253 . S
C282 O283 1.227 . S
O283 C282 1.227 . S
N284 Co270 2.140 . S
N284 C287 1.346 . S
N284 C288 1.345 . S
C285 C286 1.387 . S
C285 C289 1.391 . S
C286 C285 1.387 . S
C286 C287 1.369 . S
C286 H295 0.929 . S
C287 N284 1.346 . S
C287 C286 1.369 . S
C287 H290 0.928 . S
C288 N284 1.345 . S
C288 C289 1.371 . S
C288 H291 0.931 . S
C289 C285 1.391 . S
C289 C288 1.371 . S
C289 H296 0.930 . S
H290 C287 0.928 . S
H291 C288 0.931 . S
H292 C268 0.930 . S
H293 C265 0.930 . S
H294 C274 0.930 . S
H295 C286 0.929 . S
H296 C289 0.930 . S
C297 C298 1.351 . S
C297 N300 1.368 . S
C297 H302 0.955 . S
C298 C297 1.351 . S
C298 N299 1.373 . S
C298 H326 0.915 1_655 S
N299 C298 1.373 . S
N299 C301 1.340 . S
N300 C297 1.368 . S
N300 C301 1.321 . S
N300 Co303 2.135 . S
C301 N299 1.340 . S
C301 N300 1.321 . S
C301 H325 0.930 . S
H302 C297 0.955 . S
Co303 N300 2.135 . S
Co303 N306 2.121 . S
Co303 O311 2.055 . S
Co303 O314 2.039 . S
Co303 N317 2.140 . S
C304 O305 1.227 . S
C304 O314 1.265 . S
O305 C304 1.227 . S
N306 Co303 2.121 . S
N306 C308 1.375 . S
N306 C309 1.313 . S
C307 C308 1.338 . S
C307 N310 1.377 . S
C307 H327 0.930 . S
C308 N306 1.375 . S
C308 C307 1.338 . S
C308 H312 0.931 . S
C309 N306 1.313 . S
C309 N310 1.344 . S
C309 H313 0.930 . S
N310 C307 1.377 . S
N310 C309 1.344 . S
O311 Co303 2.055 . S
O311 C315 1.253 . S
H312 C308 0.931 . S
H313 C309 0.930 . S
O314 Co303 2.039 . S
O314 C304 1.265 . S
C315 O311 1.253 . S
C315 O316 1.227 . S
O316 C315 1.227 . S
N317 Co303 2.140 . S
N317 C320 1.346 . S
N317 C321 1.345 . S
C318 C319 1.387 1_455 S
C318 C322 1.391 . S
C319 C318 1.387 1_655 S
C319 C320 1.369 . S
C319 H328 0.929 . S
C320 N317 1.346 . S
C320 C319 1.369 . S
C320 H323 0.928 . S
C321 N317 1.345 . S
C321 C322 1.371 1_655 S
C321 H324 0.931 . S
C322 C318 1.391 . S
C322 C321 1.371 1_455 S
C322 H329 0.930 . S
H323 C320 0.928 . S
H324 C321 0.931 . S
H325 C301 0.930 . S
H326 C298 0.915 1_455 S
H327 C307 0.930 . S
H328 C319 0.929 . S
H329 C322 0.930 . S
C330 C331 1.351 . S
C330 N333 1.368 . S
C330 H335 0.931 . S
C331 C330 1.351 . S
C331 N332 1.373 . S
C331 H359 0.930 . S
N332 C331 1.373 . S
N332 C334 1.340 . S
N333 C330 1.368 . S
N333 C334 1.321 . S
N333 Co336 2.135 . S
C334 N332 1.340 . S
C334 N333 1.321 . S
C334 H358 0.930 . S
H335 C330 0.931 . S
Co336 N333 2.135 . S
Co336 N339 2.121 . S
Co336 O344 2.055 . S
Co336 O347 2.039 . S
Co336 N350 2.140 . S
C337 O338 1.227 . S
C337 O347 1.265 . S
O338 C337 1.227 . S
N339 Co336 2.121 . S
N339 C341 1.375 . S
N339 C342 1.313 . S
C340 C341 1.338 . S
C340 N343 1.377 . S
C340 H360 0.930 . S
C341 N339 1.375 . S
C341 C340 1.338 . S
C341 H345 0.931 . S
C342 N339 1.313 . S
C342 N343 1.344 . S
C342 H346 0.930 . S
N343 C340 1.377 . S
N343 C342 1.344 . S
O344 Co336 2.055 . S
O344 C348 1.253 . S
H345 C341 0.931 . S
H346 C342 0.930 . S
O347 Co336 2.039 . S
O347 C337 1.265 . S
C348 O344 1.253 . S
C348 O349 1.227 . S
O349 C348 1.227 . S
N350 Co336 2.140 . S
N350 C353 1.346 . S
N350 C354 1.345 . S
C351 C352 1.387 . S
C351 C355 1.391 . S
C352 C351 1.387 . S
C352 C353 1.369 . S
C352 H361 0.929 . S
C353 N350 1.346 . S
C353 C352 1.369 . S
C353 H356 0.928 . S
C354 N350 1.345 . S
C354 C355 1.371 . S
C354 H357 0.931 . S
C355 C351 1.391 . S
C355 C354 1.371 . S
C355 H362 0.930 . S
H356 C353 0.928 . S
H357 C354 0.931 . S
H358 C334 0.930 . S
H359 C331 0.930 . S
H360 C340 0.930 . S
H361 C352 0.929 . S
H362 C355 0.930 . S
C363 C364 1.351 . S
C363 N366 1.368 . S
C363 H368 0.955 . S
C364 C363 1.351 . S
C364 N365 1.373 . S
C364 H392 0.915 1_655 S
N365 C364 1.373 . S
N365 C367 1.340 . S
N366 C363 1.368 . S
N366 C367 1.321 . S
N366 Co369 2.135 . S
C367 N365 1.340 . S
C367 N366 1.321 . S
C367 H391 0.930 . S
H368 C363 0.955 . S
Co369 N366 2.135 . S
Co369 N372 2.121 . S
Co369 O377 2.055 . S
Co369 O380 2.039 . S
Co369 N383 2.140 . S
C370 O371 1.227 . S
C370 O380 1.265 . S
O371 C370 1.227 . S
N372 Co369 2.121 . S
N372 C374 1.375 . S
N372 C375 1.313 . S
C373 C374 1.338 . S
C373 N376 1.377 . S
C373 H393 0.930 . S
C374 N372 1.375 . S
C374 C373 1.338 . S
C374 H378 0.931 . S
C375 N372 1.313 . S
C375 N376 1.344 . S
C375 H379 0.930 . S
N376 C373 1.377 . S
N376 C375 1.344 . S
O377 Co369 2.055 . S
O377 C381 1.253 . S
H378 C374 0.931 . S
H379 C375 0.930 . S
O380 Co369 2.039 . S
O380 C370 1.265 . S
C381 O377 1.253 . S
C381 O382 1.227 . S
O382 C381 1.227 . S
N383 Co369 2.140 . S
N383 C386 1.346 . S
N383 C387 1.345 . S
C384 C385 1.387 1_455 S
C384 C388 1.391 . S
C385 C384 1.387 1_655 S
C385 C386 1.369 . S
C385 H394 0.929 . S
C386 N383 1.346 . S
C386 C385 1.369 . S
C386 H389 0.928 . S
C387 N383 1.345 . S
C387 C388 1.371 1_655 S
C387 H390 0.931 . S
C388 C384 1.391 . S
C388 C387 1.371 1_455 S
C388 H395 0.930 . S
H389 C386 0.928 . S
H390 C387 0.931 . S
H391 C367 0.930 . S
H392 C364 0.915 1_455 S
H393 C373 0.930 . S
H394 C385 0.929 . S
H395 C388 0.930 . S
C396 C397 1.351 . S
C396 N399 1.368 . S
C396 H401 0.931 . S
C397 C396 1.351 . S
C397 N398 1.373 . S
C397 H425 0.930 . S
N398 C397 1.373 . S
N398 C400 1.340 . S
N399 C396 1.368 . S
N399 C400 1.321 . S
N399 Co402 2.135 . S
C400 N398 1.340 . S
C400 N399 1.321 . S
C400 H424 0.930 . S
H401 C396 0.931 . S
Co402 N399 2.135 . S
Co402 N405 2.121 . S
Co402 O410 2.055 . S
Co402 O413 2.039 . S
Co402 N416 2.140 . S
C403 O404 1.227 . S
C403 O413 1.265 . S
O404 C403 1.227 . S
N405 Co402 2.121 . S
N405 C407 1.375 . S
N405 C408 1.313 . S
C406 C407 1.338 . S
C406 N409 1.377 . S
C406 H426 0.930 . S
C407 N405 1.375 . S
C407 C406 1.338 . S
C407 H411 0.931 . S
C408 N405 1.313 . S
C408 N409 1.344 . S
C408 H412 0.930 . S
N409 C406 1.377 . S
N409 C408 1.344 . S
O410 Co402 2.055 . S
O410 C414 1.253 . S
H411 C407 0.931 . S
H412 C408 0.930 . S
O413 Co402 2.039 . S
O413 C403 1.265 . S
C414 O410 1.253 . S
C414 O415 1.227 . S
O415 C414 1.227 . S
N416 Co402 2.140 . S
N416 C419 1.346 . S
N416 C420 1.345 . S
C417 C418 1.387 . S
C417 C421 1.391 . S
C418 C417 1.387 . S
C418 C419 1.369 . S
C418 H427 0.929 . S
C419 N416 1.346 . S
C419 C418 1.369 . S
C419 H422 0.928 . S
C420 N416 1.345 . S
C420 C421 1.371 . S
C420 H423 0.931 . S
C421 C417 1.391 . S
C421 C420 1.371 . S
C421 H428 0.930 . S
H422 C419 0.928 . S
H423 C420 0.931 . S
H424 C400 0.930 . S
H425 C397 0.930 . S
H426 C406 0.930 . S
H427 C418 0.929 . S
H428 C421 0.930 . S
C429 C430 1.351 . S
C429 N432 1.368 . S
C429 H434 0.955 . S
C430 C429 1.351 . S
C430 N431 1.373 . S
C430 H458 0.915 1_455 S
N431 C430 1.373 . S
N431 C433 1.340 . S
N432 C429 1.368 . S
N432 C433 1.321 . S
N432 Co435 2.135 . S
C433 N431 1.340 . S
C433 N432 1.321 . S
C433 H457 0.930 . S
H434 C429 0.955 . S
Co435 N432 2.135 . S
Co435 N438 2.121 . S
Co435 O443 2.055 . S
Co435 O446 2.039 . S
Co435 N449 2.140 . S
C436 O437 1.227 . S
C436 O446 1.265 . S
O437 C436 1.227 . S
N438 Co435 2.121 . S
N438 C440 1.375 . S
N438 C441 1.313 . S
C439 C440 1.338 . S
C439 N442 1.377 . S
C439 H459 0.930 . S
C440 N438 1.375 . S
C440 C439 1.338 . S
C440 H444 0.931 . S
C441 N438 1.313 . S
C441 N442 1.344 . S
C441 H445 0.930 . S
N442 C439 1.377 . S
N442 C441 1.344 . S
O443 Co435 2.055 . S
O443 C447 1.253 . S
H444 C440 0.931 . S
H445 C441 0.930 . S
O446 Co435 2.039 . S
O446 C436 1.265 . S
C447 O443 1.253 . S
C447 O448 1.227 . S
O448 C447 1.227 . S
N449 Co435 2.140 . S
N449 C452 1.346 . S
N449 C453 1.345 . S
C450 C451 1.387 1_655 S
C450 C454 1.391 . S
C451 C450 1.387 1_455 S
C451 C452 1.369 . S
C451 H460 0.929 . S
C452 N449 1.346 . S
C452 C451 1.369 . S
C452 H455 0.928 . S
C453 N449 1.345 . S
C453 C454 1.371 1_455 S
C453 H456 0.931 . S
C454 C450 1.391 . S
C454 C453 1.371 1_655 S
C454 H461 0.930 . S
H455 C452 0.928 . S
H456 C453 0.931 . S
H457 C433 0.930 . S
H458 C430 0.915 1_655 S
H459 C439 0.930 . S
H460 C451 0.929 . S
H461 C454 0.930 . S
C462 C463 1.351 . S
C462 N465 1.368 . S
C462 H467 0.931 . S
C463 C462 1.351 . S
C463 N464 1.373 . S
C463 H491 0.930 . S
N464 C463 1.373 . S
N464 C466 1.340 . S
N465 C462 1.368 . S
N465 C466 1.321 . S
N465 Co468 2.135 . S
C466 N464 1.340 . S
C466 N465 1.321 . S
C466 H490 0.930 . S
H467 C462 0.931 . S
Co468 N465 2.135 . S
Co468 N471 2.121 . S
Co468 O476 2.055 . S
Co468 O479 2.039 . S
Co468 N482 2.140 . S
C469 O470 1.227 . S
C469 O479 1.265 . S
O470 C469 1.227 . S
N471 Co468 2.121 . S
N471 C473 1.375 . S
N471 C474 1.313 . S
C472 C473 1.338 . S
C472 N475 1.377 . S
C472 H492 0.930 . S
C473 N471 1.375 . S
C473 C472 1.338 . S
C473 H477 0.931 . S
C474 N471 1.313 . S
C474 N475 1.344 . S
C474 H478 0.930 . S
N475 C472 1.377 . S
N475 C474 1.344 . S
O476 Co468 2.055 . S
O476 C480 1.253 . S
H477 C473 0.931 . S
H478 C474 0.930 . S
O479 Co468 2.039 . S
O479 C469 1.265 . S
C480 O476 1.253 . S
C480 O481 1.227 . S
O481 C480 1.227 . S
N482 Co468 2.140 . S
N482 C485 1.346 . S
N482 C486 1.345 . S
C483 C484 1.387 . S
C483 C487 1.391 . S
C484 C483 1.387 . S
C484 C485 1.369 . S
C484 H493 0.929 . S
C485 N482 1.346 . S
C485 C484 1.369 . S
C485 H488 0.928 . S
C486 N482 1.345 . S
C486 C487 1.371 . S
C486 H489 0.931 . S
C487 C483 1.391 . S
C487 C486 1.371 . S
C487 H494 0.930 . S
H488 C485 0.928 . S
H489 C486 0.931 . S
H490 C466 0.930 . S
H491 C463 0.930 . S
H492 C472 0.930 . S
H493 C484 0.929 . S
H494 C487 0.930 . S
C495 C496 1.351 . S
C495 N498 1.368 . S
C495 H500 0.955 . S
C496 C495 1.351 . S
C496 N497 1.373 . S
C496 H524 0.915 1_455 S
N497 C496 1.373 . S
N497 C499 1.340 . S
N498 C495 1.368 . S
N498 C499 1.321 . S
N498 Co501 2.135 . S
C499 N497 1.340 . S
C499 N498 1.321 . S
C499 H523 0.930 . S
H500 C495 0.955 . S
Co501 N498 2.135 . S
Co501 N504 2.121 . S
Co501 O509 2.055 . S
Co501 O512 2.039 . S
Co501 N515 2.140 . S
C502 O503 1.227 . S
C502 O512 1.265 . S
O503 C502 1.227 . S
N504 Co501 2.121 . S
N504 C506 1.375 . S
N504 C507 1.313 . S
C505 C506 1.338 . S
C505 N508 1.377 . S
C505 H525 0.930 . S
C506 N504 1.375 . S
C506 C505 1.338 . S
C506 H510 0.931 . S
C507 N504 1.313 . S
C507 N508 1.344 . S
C507 H511 0.930 . S
N508 C505 1.377 . S
N508 C507 1.344 . S
O509 Co501 2.055 . S
O509 C513 1.253 . S
H510 C506 0.931 . S
H511 C507 0.930 . S
O512 Co501 2.039 . S
O512 C502 1.265 . S
C513 O509 1.253 . S
C513 O514 1.227 . S
O514 C513 1.227 . S
N515 Co501 2.140 . S
N515 C518 1.346 . S
N515 C519 1.345 . S
C516 C517 1.387 1_655 S
C516 C520 1.391 . S
C517 C516 1.387 1_455 S
C517 C518 1.369 . S
C517 H526 0.929 . S
C518 N515 1.346 . S
C518 C517 1.369 . S
C518 H521 0.928 . S
C519 N515 1.345 . S
C519 C520 1.371 1_455 S
C519 H522 0.931 . S
C520 C516 1.391 . S
C520 C519 1.371 1_655 S
C520 H527 0.930 . S
H521 C518 0.928 . S
H522 C519 0.931 . S
H523 C499 0.930 . S
H524 C496 0.915 1_655 S
H525 C505 0.930 . S
H526 C517 0.929 . S
H527 C520 0.930 . S
C528 C529 1.351 . S
C528 N531 1.368 . S
C528 H533 0.931 . S
C529 C528 1.351 . S
C529 N530 1.373 . S
C529 H557 0.930 . S
N530 C529 1.373 . S
N530 C532 1.340 . S
N531 C528 1.368 . S
N531 C532 1.321 . S
N531 Co534 2.135 . S
C532 N530 1.340 . S
C532 N531 1.321 . S
C532 H556 0.930 . S
H533 C528 0.931 . S
Co534 N531 2.135 . S
Co534 N537 2.121 . S
Co534 O542 2.055 . S
Co534 O545 2.039 . S
Co534 N548 2.140 . S
C535 O536 1.227 . S
C535 O545 1.265 . S
O536 C535 1.227 . S
N537 Co534 2.121 . S
N537 C539 1.375 . S
N537 C540 1.313 . S
C538 C539 1.338 . S
C538 N541 1.377 . S
C538 H558 0.930 . S
C539 N537 1.375 . S
C539 C538 1.338 . S
C539 H543 0.931 . S
C540 N537 1.313 . S
C540 N541 1.344 . S
C540 H544 0.930 . S
N541 C538 1.377 . S
N541 C540 1.344 . S
O542 Co534 2.055 . S
O542 C546 1.253 . S
H543 C539 0.931 . S
H544 C540 0.930 . S
O545 Co534 2.039 . S
O545 C535 1.265 . S
C546 O542 1.253 . S
C546 O547 1.227 . S
O547 C546 1.227 . S
N548 Co534 2.140 . S
N548 C551 1.346 . S
N548 C552 1.345 . S
C549 C550 1.387 . S
C549 C553 1.391 . S
C550 C549 1.387 . S
C550 C551 1.369 . S
C550 H559 0.929 . S
C551 N548 1.346 . S
C551 C550 1.369 . S
C551 H554 0.928 . S
C552 N548 1.345 . S
C552 C553 1.371 . S
C552 H555 0.931 . S
C553 C549 1.391 . S
C553 C552 1.371 . S
C553 H560 0.930 . S
H554 C551 0.928 . S
H555 C552 0.931 . S
H556 C532 0.930 . S
H557 C529 0.930 . S
H558 C538 0.930 . S
H559 C550 0.929 . S
H560 C553 0.930 . S
C561 C562 1.351 . S
C561 N564 1.368 . S
C561 H566 0.931 . S
C562 C561 1.351 . S
C562 N563 1.373 . S
C562 H590 0.930 . S
N563 C562 1.373 . S
N563 C565 1.340 . S
N564 C561 1.368 . S
N564 C565 1.321 . S
N564 Co567 2.135 . S
C565 N563 1.340 . S
C565 N564 1.321 . S
C565 H589 0.930 . S
H566 C561 0.931 . S
Co567 N564 2.135 . S
Co567 N570 2.121 1_565 S
Co567 O575 2.055 1_565 S
Co567 O578 2.039 . S
Co567 N581 2.140 . S
C568 O569 1.227 . S
C568 O578 1.265 . S
O569 C568 1.227 . S
N570 Co567 2.121 1_545 S
N570 C572 1.375 . S
N570 C573 1.313 . S
C571 C572 1.338 . S
C571 N574 1.377 . S
C571 H591 0.930 . S
C572 N570 1.375 . S
C572 C571 1.338 . S
C572 H576 0.931 1_545 S
C573 N570 1.313 . S
C573 N574 1.344 . S
C573 H577 0.930 . S
N574 C571 1.377 . S
N574 C573 1.344 . S
O575 Co567 2.055 1_545 S
O575 C579 1.253 . S
H576 C572 0.931 1_565 S
H577 C573 0.930 . S
O578 Co567 2.039 . S
O578 C568 1.265 . S
C579 O575 1.253 . S
C579 O580 1.227 . S
O580 C579 1.227 . S
N581 Co567 2.140 . S
N581 C584 1.346 . S
N581 C585 1.345 . S
C582 C583 1.387 . S
C582 C586 1.391 . S
C583 C582 1.387 . S
C583 C584 1.369 . S
C583 H592 0.929 . S
C584 N581 1.346 . S
C584 C583 1.369 . S
C584 H587 0.928 . S
C585 N581 1.345 . S
C585 C586 1.371 . S
C585 H588 0.931 . S
C586 C582 1.391 . S
C586 C585 1.371 . S
C586 H593 0.930 . S
H587 C584 0.928 . S
H588 C585 0.931 . S
H589 C565 0.930 . S
H590 C562 0.930 . S
H591 C571 0.930 . S
H592 C583 0.929 . S
H593 C586 0.930 . S
C594 C595 1.351 . S
C594 N597 1.368 . S
C594 H599 0.931 . S
C595 C594 1.351 . S
C595 N596 1.373 . S
C595 H623 0.930 . S
N596 C595 1.373 . S
N596 C598 1.340 . S
N597 C594 1.368 . S
N597 C598 1.321 . S
N597 Co600 2.135 . S
C598 N596 1.340 . S
C598 N597 1.321 . S
C598 H622 0.930 . S
H599 C594 0.931 . S
Co600 N597 2.135 . S
Co600 N603 2.121 1_565 S
Co600 O608 2.055 1_565 S
Co600 O611 2.039 . S
Co600 N614 2.140 . S
C601 O602 1.227 . S
C601 O611 1.265 . S
O602 C601 1.227 . S
N603 Co600 2.121 1_545 S
N603 C605 1.375 . S
N603 C606 1.313 . S
C604 C605 1.338 . S
C604 N607 1.377 . S
C604 H624 0.930 . S
C605 N603 1.375 . S
C605 C604 1.338 . S
C605 H609 0.931 1_545 S
C606 N603 1.313 . S
C606 N607 1.344 . S
C606 H610 0.930 . S
N607 C604 1.377 . S
N607 C606 1.344 . S
O608 Co600 2.055 1_545 S
O608 C612 1.253 . S
H609 C605 0.931 1_565 S
H610 C606 0.930 . S
O611 Co600 2.039 . S
O611 C601 1.265 . S
C612 O608 1.253 . S
C612 O613 1.227 . S
O613 C612 1.227 . S
N614 Co600 2.140 . S
N614 C617 1.346 . S
N614 C618 1.345 . S
C615 C616 1.387 . S
C615 C619 1.391 . S
C616 C615 1.387 . S
C616 C617 1.369 . S
C616 H625 0.929 . S
C617 N614 1.346 . S
C617 C616 1.369 . S
C617 H620 0.928 . S
C618 N614 1.345 . S
C618 C619 1.371 . S
C618 H621 0.931 . S
C619 C615 1.391 . S
C619 C618 1.371 . S
C619 H626 0.930 . S
H620 C617 0.928 . S
H621 C618 0.931 . S
H622 C598 0.930 . S
H623 C595 0.930 . S
H624 C604 0.930 . S
H625 C616 0.929 . S
H626 C619 0.930 . S
C627 C628 1.351 . S
C627 N630 1.368 . S
C627 H632 0.931 . S
C628 C627 1.351 . S
C628 N629 1.373 . S
C628 H656 0.930 . S
N629 C628 1.373 . S
N629 C631 1.340 . S
N630 C627 1.368 . S
N630 C631 1.321 . S
N630 Co633 2.135 . S
C631 N629 1.340 . S
C631 N630 1.321 . S
C631 H655 0.930 . S
H632 C627 0.931 . S
Co633 N630 2.135 . S
Co633 N636 2.121 . S
Co633 O641 2.055 . S
Co633 O644 2.039 . S
Co633 N647 2.140 . S
C634 O635 1.227 . S
C634 O644 1.265 . S
O635 C634 1.227 . S
N636 Co633 2.121 . S
N636 C638 1.375 . S
N636 C639 1.313 . S
C637 C638 1.338 . S
C637 N640 1.377 . S
C637 H657 0.930 . S
C638 N636 1.375 . S
C638 C637 1.338 . S
C638 H642 0.931 . S
C639 N636 1.313 . S
C639 N640 1.344 . S
C639 H643 0.930 . S
N640 C637 1.377 . S
N640 C639 1.344 . S
O641 Co633 2.055 . S
O641 C645 1.253 . S
H642 C638 0.931 . S
H643 C639 0.930 . S
O644 Co633 2.039 . S
O644 C634 1.265 . S
C645 O641 1.253 . S
C645 O646 1.227 . S
O646 C645 1.227 . S
N647 Co633 2.140 . S
N647 C650 1.346 . S
N647 C651 1.345 . S
C648 C649 1.387 . S
C648 C652 1.391 . S
C649 C648 1.387 . S
C649 C650 1.369 . S
C649 H658 0.929 . S
C650 N647 1.346 . S
C650 C649 1.369 . S
C650 H653 0.928 . S
C651 N647 1.345 . S
C651 C652 1.371 . S
C651 H654 0.931 . S
C652 C648 1.391 . S
C652 C651 1.371 . S
C652 H659 0.930 . S
H653 C650 0.928 . S
H654 C651 0.931 . S
H655 C631 0.930 . S
H656 C628 0.930 . S
H657 C637 0.930 . S
H658 C649 0.929 . S
H659 C652 0.930 . S
C660 C661 1.351 . S
C660 N663 1.368 . S
C660 H665 0.931 . S
C661 C660 1.351 . S
C661 N662 1.373 . S
C661 H689 0.930 . S
N662 C661 1.373 . S
N662 C664 1.340 . S
N663 C660 1.368 . S
N663 C664 1.321 . S
N663 Co666 2.135 . S
C664 N662 1.340 . S
C664 N663 1.321 . S
C664 H688 0.930 . S
H665 C660 0.931 . S
Co666 N663 2.135 . S
Co666 N669 2.121 . S
Co666 O674 2.055 . S
Co666 O677 2.039 . S
Co666 N680 2.140 . S
C667 O668 1.227 . S
C667 O677 1.265 . S
O668 C667 1.227 . S
N669 Co666 2.121 . S
N669 C671 1.375 . S
N669 C672 1.313 . S
C670 C671 1.338 . S
C670 N673 1.377 . S
C670 H690 0.930 . S
C671 N669 1.375 . S
C671 C670 1.338 . S
C671 H675 0.931 . S
C672 N669 1.313 . S
C672 N673 1.344 . S
C672 H676 0.930 . S
N673 C670 1.377 . S
N673 C672 1.344 . S
O674 Co666 2.055 . S
O674 C678 1.253 . S
H675 C671 0.931 . S
H676 C672 0.930 . S
O677 Co666 2.039 . S
O677 C667 1.265 . S
C678 O674 1.253 . S
C678 O679 1.227 . S
O679 C678 1.227 . S
N680 Co666 2.140 . S
N680 C683 1.346 . S
N680 C684 1.345 . S
C681 C682 1.387 . S
C681 C685 1.391 . S
C682 C681 1.387 . S
C682 C683 1.369 . S
C682 H691 0.929 . S
C683 N680 1.346 . S
C683 C682 1.369 . S
C683 H686 0.928 . S
C684 N680 1.345 . S
C684 C685 1.371 . S
C684 H687 0.931 . S
C685 C681 1.391 . S
C685 C684 1.371 . S
C685 H692 0.930 . S
H686 C683 0.928 . S
H687 C684 0.931 . S
H688 C664 0.930 . S
H689 C661 0.930 . S
H690 C670 0.930 . S
H691 C682 0.929 . S
H692 C685 0.930 . S
C693 C694 1.351 . S
C693 N696 1.368 . S
C693 H698 0.931 . S
C694 C693 1.351 . S
C694 N695 1.373 . S
C694 H722 0.930 . S
N695 C694 1.373 . S
N695 C697 1.340 . S
N696 C693 1.368 . S
N696 C697 1.321 . S
N696 Co699 2.135 . S
C697 N695 1.340 . S
C697 N696 1.321 . S
C697 H721 0.930 . S
H698 C693 0.931 . S
Co699 N696 2.135 . S
Co699 N702 2.121 1_545 S
Co699 O707 2.055 1_545 S
Co699 O710 2.039 . S
Co699 N713 2.140 . S
C700 O701 1.227 . S
C700 O710 1.265 . S
O701 C700 1.227 . S
N702 Co699 2.121 1_565 S
N702 C704 1.375 . S
N702 C705 1.313 . S
C703 C704 1.338 . S
C703 N706 1.377 . S
C703 H723 0.930 . S
C704 N702 1.375 . S
C704 C703 1.338 . S
C704 H708 0.931 1_565 S
C705 N702 1.313 . S
C705 N706 1.344 . S
C705 H709 0.930 . S
N706 C703 1.377 . S
N706 C705 1.344 . S
O707 Co699 2.055 1_565 S
O707 C711 1.253 . S
H708 C704 0.931 1_545 S
H709 C705 0.930 . S
O710 Co699 2.039 . S
O710 C700 1.265 . S
C711 O707 1.253 . S
C711 O712 1.227 . S
O712 C711 1.227 . S
N713 Co699 2.140 . S
N713 C716 1.346 . S
N713 C717 1.345 . S
C714 C715 1.387 . S
C714 C718 1.391 . S
C715 C714 1.387 . S
C715 C716 1.369 . S
C715 H724 0.929 . S
C716 N713 1.346 . S
C716 C715 1.369 . S
C716 H719 0.928 . S
C717 N713 1.345 . S
C717 C718 1.371 . S
C717 H720 0.931 . S
C718 C714 1.391 . S
C718 C717 1.371 . S
C718 H725 0.930 . S
H719 C716 0.928 . S
H720 C717 0.931 . S
H721 C697 0.930 . S
H722 C694 0.930 . S
H723 C703 0.930 . S
H724 C715 0.929 . S
H725 C718 0.930 . S
C726 C727 1.351 . S
C726 N729 1.368 . S
C726 H731 0.931 . S
C727 C726 1.351 . S
C727 N728 1.373 . S
C727 H755 0.930 . S
N728 C727 1.373 . S
N728 C730 1.340 . S
N729 C726 1.368 . S
N729 C730 1.321 . S
N729 Co732 2.135 . S
C730 N728 1.340 . S
C730 N729 1.321 . S
C730 H754 0.930 . S
H731 C726 0.931 . S
Co732 N729 2.135 . S
Co732 N735 2.121 1_545 S
Co732 O740 2.055 1_545 S
Co732 O743 2.039 . S
Co732 N746 2.140 . S
C733 O734 1.227 . S
C733 O743 1.265 . S
O734 C733 1.227 . S
N735 Co732 2.121 1_565 S
N735 C737 1.375 . S
N735 C738 1.313 . S
C736 C737 1.338 . S
C736 N739 1.377 . S
C736 H756 0.930 . S
C737 N735 1.375 . S
C737 C736 1.338 . S
C737 H741 0.931 1_565 S
C738 N735 1.313 . S
C738 N739 1.344 . S
C738 H742 0.930 . S
N739 C736 1.377 . S
N739 C738 1.344 . S
O740 Co732 2.055 1_565 S
O740 C744 1.253 . S
H741 C737 0.931 1_545 S
H742 C738 0.930 . S
O743 Co732 2.039 . S
O743 C733 1.265 . S
C744 O740 1.253 . S
C744 O745 1.227 . S
O745 C744 1.227 . S
N746 Co732 2.140 . S
N746 C749 1.346 . S
N746 C750 1.345 . S
C747 C748 1.387 . S
C747 C751 1.391 . S
C748 C747 1.387 . S
C748 C749 1.369 . S
C748 H757 0.929 . S
C749 N746 1.346 . S
C749 C748 1.369 . S
C749 H752 0.928 . S
C750 N746 1.345 . S
C750 C751 1.371 . S
C750 H753 0.931 . S
C751 C747 1.391 . S
C751 C750 1.371 . S
C751 H758 0.930 . S
H752 C749 0.928 . S
H753 C750 0.931 . S
H754 C730 0.930 . S
H755 C727 0.930 . S
H756 C736 0.930 . S
H757 C748 0.929 . S
H758 C751 0.930 . S
C759 C760 1.351 . S
C759 N762 1.368 . S
C759 H764 0.931 . S
C760 C759 1.351 . S
C760 N761 1.373 . S
C760 H788 0.930 . S
N761 C760 1.373 . S
N761 C763 1.340 . S
N762 C759 1.368 . S
N762 C763 1.321 . S
N762 Co765 2.135 . S
C763 N761 1.340 . S
C763 N762 1.321 . S
C763 H787 0.930 . S
H764 C759 0.931 . S
Co765 N762 2.135 . S
Co765 N768 2.121 . S
Co765 O773 2.055 . S
Co765 O776 2.039 . S
Co765 N779 2.140 . S
C766 O767 1.227 . S
C766 O776 1.265 . S
O767 C766 1.227 . S
N768 Co765 2.121 . S
N768 C770 1.375 . S
N768 C771 1.313 . S
C769 C770 1.338 . S
C769 N772 1.377 . S
C769 H789 0.930 . S
C770 N768 1.375 . S
C770 C769 1.338 . S
C770 H774 0.931 . S
C771 N768 1.313 . S
C771 N772 1.344 . S
C771 H775 0.930 . S
N772 C769 1.377 . S
N772 C771 1.344 . S
O773 Co765 2.055 . S
O773 C777 1.253 . S
H774 C770 0.931 . S
H775 C771 0.930 . S
O776 Co765 2.039 . S
O776 C766 1.265 . S
C777 O773 1.253 . S
C777 O778 1.227 . S
O778 C777 1.227 . S
N779 Co765 2.140 . S
N779 C782 1.346 . S
N779 C783 1.345 . S
C780 C781 1.387 . S
C780 C784 1.391 . S
C781 C780 1.387 . S
C781 C782 1.369 . S
C781 H790 0.929 . S
C782 N779 1.346 . S
C782 C781 1.369 . S
C782 H785 0.928 . S
C783 N779 1.345 . S
C783 C784 1.371 . S
C783 H786 0.931 . S
C784 C780 1.391 . S
C784 C783 1.371 . S
C784 H791 0.930 . S
H785 C782 0.928 . S
H786 C783 0.931 . S
H787 C763 0.930 . S
H788 C760 0.930 . S
H789 C769 0.930 . S
H790 C781 0.929 . S
H791 C784 0.930 . S
C792 C793 1.351 . S
C792 N795 1.368 . S
C792 H797 0.931 . S
C793 C792 1.351 . S
C793 N794 1.373 . S
C793 H821 0.930 . S
N794 C793 1.373 . S
N794 C796 1.340 . S
N795 C792 1.368 . S
N795 C796 1.321 . S
N795 Co798 2.135 . S
C796 N794 1.340 . S
C796 N795 1.321 . S
C796 H820 0.930 . S
H797 C792 0.931 . S
Co798 N795 2.135 . S
Co798 N801 2.121 . S
Co798 O806 2.055 . S
Co798 O809 2.039 . S
Co798 N812 2.140 . S
C799 O800 1.227 . S
C799 O809 1.265 . S
O800 C799 1.227 . S
N801 Co798 2.121 . S
N801 C803 1.375 . S
N801 C804 1.313 . S
C802 C803 1.338 . S
C802 N805 1.377 . S
C802 H822 0.930 . S
C803 N801 1.375 . S
C803 C802 1.338 . S
C803 H807 0.931 . S
C804 N801 1.313 . S
C804 N805 1.344 . S
C804 H808 0.930 . S
N805 C802 1.377 . S
N805 C804 1.344 . S
O806 Co798 2.055 . S
O806 C810 1.253 . S
H807 C803 0.931 . S
H808 C804 0.930 . S
O809 Co798 2.039 . S
O809 C799 1.265 . S
C810 O806 1.253 . S
C810 O811 1.227 . S
O811 C810 1.227 . S
N812 Co798 2.140 . S
N812 C815 1.346 . S
N812 C816 1.345 . S
C813 C814 1.387 . S
C813 C817 1.391 . S
C814 C813 1.387 . S
C814 C815 1.369 . S
C814 H823 0.929 . S
C815 N812 1.346 . S
C815 C814 1.369 . S
C815 H818 0.928 . S
C816 N812 1.345 . S
C816 C817 1.371 . S
C816 H819 0.931 . S
C817 C813 1.391 . S
C817 C816 1.371 . S
C817 H824 0.930 . S
H818 C815 0.928 . S
H819 C816 0.931 . S
H820 C796 0.930 . S
H821 C793 0.930 . S
H822 C802 0.930 . S
H823 C814 0.929 . S
H824 C817 0.930 . S
C825 C826 1.351 . S
C825 N828 1.368 . S
C825 H830 0.931 . S
C826 C825 1.351 . S
C826 N827 1.373 . S
C826 H854 0.930 . S
N827 C826 1.373 . S
N827 C829 1.340 . S
N828 C825 1.368 . S
N828 C829 1.321 . S
N828 Co831 2.135 . S
C829 N827 1.340 . S
C829 N828 1.321 . S
C829 H853 0.930 . S
H830 C825 0.931 . S
Co831 N828 2.135 . S
Co831 N834 2.121 . S
Co831 O839 2.055 . S
Co831 O842 2.039 . S
Co831 N845 2.140 . S
C832 O833 1.227 . S
C832 O842 1.265 . S
O833 C832 1.227 . S
N834 Co831 2.121 . S
N834 C836 1.375 . S
N834 C837 1.313 . S
C835 C836 1.338 . S
C835 N838 1.377 . S
C835 H855 0.930 . S
C836 N834 1.375 . S
C836 C835 1.338 . S
C836 H840 0.931 . S
C837 N834 1.313 . S
C837 N838 1.344 . S
C837 H841 0.930 . S
N838 C835 1.377 . S
N838 C837 1.344 . S
O839 Co831 2.055 . S
O839 C843 1.253 . S
H840 C836 0.931 . S
H841 C837 0.930 . S
O842 Co831 2.039 . S
O842 C832 1.265 . S
C843 O839 1.253 . S
C843 O844 1.227 . S
O844 C843 1.227 . S
N845 Co831 2.140 . S
N845 C848 1.346 . S
N845 C849 1.345 . S
C846 C847 1.387 . S
C846 C850 1.391 . S
C847 C846 1.387 . S
C847 C848 1.369 . S
C847 H856 0.929 . S
C848 N845 1.346 . S
C848 C847 1.369 . S
C848 H851 0.928 . S
C849 N845 1.345 . S
C849 C850 1.371 . S
C849 H852 0.931 . S
C850 C846 1.391 . S
C850 C849 1.371 . S
C850 H857 0.930 . S
H851 C848 0.928 . S
H852 C849 0.931 . S
H853 C829 0.930 . S
H854 C826 0.930 . S
H855 C835 0.930 . S
H856 C847 0.929 . S
H857 C850 0.930 . S
C858 C859 1.351 . S
C858 N861 1.368 . S
C858 H863 0.931 . S
C859 C858 1.351 . S
C859 N860 1.373 . S
C859 H887 0.930 . S
N860 C859 1.373 . S
N860 C862 1.340 . S
N861 C858 1.368 . S
N861 C862 1.321 . S
N861 Co864 2.135 1_556 S
C862 N860 1.340 . S
C862 N861 1.321 . S
C862 H886 0.930 . S
H863 C858 0.931 . S
Co864 N861 2.135 1_554 S
Co864 N867 2.121 . S
Co864 O872 2.055 1_554 S
Co864 O875 2.039 1_554 S
Co864 N878 2.140 . S
C865 O866 1.227 . S
C865 O875 1.265 1_554 S
O866 C865 1.227 . S
N867 Co864 2.121 . S
N867 C869 1.375 . S
N867 C870 1.313 . S
C868 C869 1.338 . S
C868 N871 1.377 . S
C868 H888 0.930 . S
C869 N867 1.375 . S
C869 C868 1.338 . S
C869 H873 0.931 . S
C870 N867 1.313 . S
C870 N871 1.344 . S
C870 H874 0.930 . S
N871 C868 1.377 . S
N871 C870 1.344 . S
O872 Co864 2.055 1_556 S
O872 C876 1.253 . S
H873 C869 0.931 . S
H874 C870 0.930 . S
O875 Co864 2.039 1_556 S
O875 C865 1.265 1_556 S
C876 O872 1.253 . S
C876 O877 1.227 . S
O877 C876 1.227 . S
N878 Co864 2.140 . S
N878 C881 1.346 . S
N878 C882 1.345 . S
C879 C880 1.387 . S
C879 C883 1.391 . S
C880 C879 1.387 . S
C880 C881 1.369 . S
C880 H889 0.929 . S
C881 N878 1.346 . S
C881 C880 1.369 . S
C881 H884 0.928 . S
C882 N878 1.345 . S
C882 C883 1.371 . S
C882 H885 0.931 . S
C883 C879 1.391 . S
C883 C882 1.371 . S
C883 H890 0.930 . S
H884 C881 0.928 . S
H885 C882 0.931 . S
H886 C862 0.930 . S
H887 C859 0.930 . S
H888 C868 0.930 . S
H889 C880 0.929 . S
H890 C883 0.930 . S
C891 C892 1.351 . S
C891 N894 1.368 . S
C891 H896 0.931 . S
C892 C891 1.351 . S
C892 N893 1.373 . S
C892 H920 0.930 . S
N893 C892 1.373 . S
N893 C895 1.340 . S
N894 C891 1.368 . S
N894 C895 1.321 . S
N894 Co897 2.135 1_556 S
C895 N893 1.340 . S
C895 N894 1.321 . S
C895 H919 0.930 . S
H896 C891 0.931 . S
Co897 N894 2.135 1_554 S
Co897 N900 2.121 . S
Co897 O905 2.055 1_554 S
Co897 O908 2.039 1_554 S
Co897 N911 2.140 . S
C898 O899 1.227 . S
C898 O908 1.265 1_554 S
O899 C898 1.227 . S
N900 Co897 2.121 . S
N900 C902 1.375 . S
N900 C903 1.313 . S
C901 C902 1.338 . S
C901 N904 1.377 . S
C901 H921 0.930 . S
C902 N900 1.375 . S
C902 C901 1.338 . S
C902 H906 0.931 . S
C903 N900 1.313 . S
C903 N904 1.344 . S
C903 H907 0.930 . S
N904 C901 1.377 . S
N904 C903 1.344 . S
O905 Co897 2.055 1_556 S
O905 C909 1.253 . S
H906 C902 0.931 . S
H907 C903 0.930 . S
O908 Co897 2.039 1_556 S
O908 C898 1.265 1_556 S
C909 O905 1.253 . S
C909 O910 1.227 . S
O910 C909 1.227 . S
N911 Co897 2.140 . S
N911 C914 1.346 . S
N911 C915 1.345 . S
C912 C913 1.387 . S
C912 C916 1.391 . S
C913 C912 1.387 . S
C913 C914 1.369 . S
C913 H922 0.929 . S
C914 N911 1.346 . S
C914 C913 1.369 . S
C914 H917 0.928 . S
C915 N911 1.345 . S
C915 C916 1.371 . S
C915 H918 0.931 . S
C916 C912 1.391 . S
C916 C915 1.371 . S
C916 H923 0.930 . S
H917 C914 0.928 . S
H918 C915 0.931 . S
H919 C895 0.930 . S
H920 C892 0.930 . S
H921 C901 0.930 . S
H922 C913 0.929 . S
H923 C916 0.930 . S
C924 C925 1.351 . S
C924 N927 1.368 . S
C924 H929 0.931 . S
C925 C924 1.351 . S
C925 N926 1.373 . S
C925 H953 0.930 . S
N926 C925 1.373 . S
N926 C928 1.340 . S
N927 C924 1.368 . S
N927 C928 1.321 . S
N927 Co930 2.135 . S
C928 N926 1.340 . S
C928 N927 1.321 . S
C928 H952 0.930 . S
H929 C924 0.931 . S
Co930 N927 2.135 . S
Co930 N933 2.121 . S
Co930 O938 2.055 . S
Co930 O941 2.039 . S
Co930 N944 2.140 . S
C931 O932 1.227 . S
C931 O941 1.265 . S
O932 C931 1.227 . S
N933 Co930 2.121 . S
N933 C935 1.375 . S
N933 C936 1.313 . S
C934 C935 1.338 . S
C934 N937 1.377 . S
C934 H954 0.930 . S
C935 N933 1.375 . S
C935 C934 1.338 . S
C935 H939 0.931 . S
C936 N933 1.313 . S
C936 N937 1.344 . S
C936 H940 0.930 . S
N937 C934 1.377 . S
N937 C936 1.344 . S
O938 Co930 2.055 . S
O938 C942 1.253 . S
H939 C935 0.931 . S
H940 C936 0.930 . S
O941 Co930 2.039 . S
O941 C931 1.265 . S
C942 O938 1.253 . S
C942 O943 1.227 . S
O943 C942 1.227 . S
N944 Co930 2.140 . S
N944 C947 1.346 . S
N944 C948 1.345 . S
C945 C946 1.387 . S
C945 C949 1.391 . S
C946 C945 1.387 . S
C946 C947 1.369 . S
C946 H955 0.929 . S
C947 N944 1.346 . S
C947 C946 1.369 . S
C947 H950 0.928 . S
C948 N944 1.345 . S
C948 C949 1.371 . S
C948 H951 0.931 . S
C949 C945 1.391 . S
C949 C948 1.371 . S
C949 H956 0.930 . S
H950 C947 0.928 . S
H951 C948 0.931 . S
H952 C928 0.930 . S
H953 C925 0.930 . S
H954 C934 0.930 . S
H955 C946 0.929 . S
H956 C949 0.930 . S
C957 C958 1.351 . S
C957 N960 1.368 . S
C957 H962 0.931 . S
C958 C957 1.351 . S
C958 N959 1.373 . S
C958 H986 0.930 . S
N959 C958 1.373 . S
N959 C961 1.340 . S
N960 C957 1.368 . S
N960 C961 1.321 . S
N960 Co963 2.135 . S
C961 N959 1.340 . S
C961 N960 1.321 . S
C961 H985 0.930 . S
H962 C957 0.931 . S
Co963 N960 2.135 . S
Co963 N966 2.121 . S
Co963 O971 2.055 . S
Co963 O974 2.039 . S
Co963 N977 2.140 . S
C964 O965 1.227 . S
C964 O974 1.265 . S
O965 C964 1.227 . S
N966 Co963 2.121 . S
N966 C968 1.375 . S
N966 C969 1.313 . S
C967 C968 1.338 . S
C967 N970 1.377 . S
C967 H987 0.930 . S
C968 N966 1.375 . S
C968 C967 1.338 . S
C968 H972 0.931 . S
C969 N966 1.313 . S
C969 N970 1.344 . S
C969 H973 0.930 . S
N970 C967 1.377 . S
N970 C969 1.344 . S
O971 Co963 2.055 . S
O971 C975 1.253 . S
H972 C968 0.931 . S
H973 C969 0.930 . S
O974 Co963 2.039 . S
O974 C964 1.265 . S
C975 O971 1.253 . S
C975 O976 1.227 . S
O976 C975 1.227 . S
N977 Co963 2.140 . S
N977 C980 1.346 . S
N977 C981 1.345 . S
C978 C979 1.387 . S
C978 C982 1.391 . S
C979 C978 1.387 . S
C979 C980 1.369 . S
C979 H988 0.929 . S
C980 N977 1.346 . S
C980 C979 1.369 . S
C980 H983 0.928 . S
C981 N977 1.345 . S
C981 C982 1.371 . S
C981 H984 0.931 . S
C982 C978 1.391 . S
C982 C981 1.371 . S
C982 H989 0.930 . S
H983 C980 0.928 . S
H984 C981 0.931 . S
H985 C961 0.930 . S
H986 C958 0.930 . S
H987 C967 0.930 . S
H988 C979 0.929 . S
H989 C982 0.930 . S
C990 C991 1.351 . S
C990 N993 1.368 . S
C990 H995 0.931 . S
C991 C990 1.351 . S
C991 N992 1.373 . S
C991 H1019 0.930 . S
N992 C991 1.373 . S
N992 C994 1.340 . S
N993 C990 1.368 . S
N993 C994 1.321 . S
N993 Co996 2.135 1_554 S
C994 N992 1.340 . S
C994 N993 1.321 . S
C994 H1018 0.930 . S
H995 C990 0.931 . S
Co996 N993 2.135 1_556 S
Co996 N999 2.121 . S
Co996 O1004 2.055 1_556 S
Co996 O1007 2.039 1_556 S
Co996 N1010 2.140 . S
C997 O998 1.227 . S
C997 O1007 1.265 1_556 S
O998 C997 1.227 . S
N999 Co996 2.121 . S
N999 C1001 1.375 . S
N999 C1002 1.313 . S
C1000 C1001 1.338 . S
C1000 N1003 1.377 . S
C1000 H1020 0.930 . S
C1001 N999 1.375 . S
C1001 C1000 1.338 . S
C1001 H1005 0.931 . S
C1002 N999 1.313 . S
C1002 N1003 1.344 . S
C1002 H1006 0.930 . S
N1003 C1000 1.377 . S
N1003 C1002 1.344 . S
O1004 Co996 2.055 1_554 S
O1004 C1008 1.253 . S
H1005 C1001 0.931 . S
H1006 C1002 0.930 . S
O1007 Co996 2.039 1_554 S
O1007 C997 1.265 1_554 S
C1008 O1004 1.253 . S
C1008 O1009 1.227 . S
O1009 C1008 1.227 . S
N1010 Co996 2.140 . S
N1010 C1013 1.346 . S
N1010 C1014 1.345 . S
C1011 C1012 1.387 . S
C1011 C1015 1.391 . S
C1012 C1011 1.387 . S
C1012 C1013 1.369 . S
C1012 H1021 0.929 . S
C1013 N1010 1.346 . S
C1013 C1012 1.369 . S
C1013 H1016 0.928 . S
C1014 N1010 1.345 . S
C1014 C1015 1.371 . S
C1014 H1017 0.931 . S
C1015 C1011 1.391 . S
C1015 C1014 1.371 . S
C1015 H1022 0.930 . S
H1016 C1013 0.928 . S
H1017 C1014 0.931 . S
H1018 C994 0.930 . S
H1019 C991 0.930 . S
H1020 C1000 0.930 . S
H1021 C1012 0.929 . S
H1022 C1015 0.930 . S
C1023 C1024 1.351 . S
C1023 N1026 1.368 . S
C1023 H1028 0.931 . S
C1024 C1023 1.351 . S
C1024 N1025 1.373 . S
C1024 H1052 0.930 . S
N1025 C1024 1.373 . S
N1025 C1027 1.340 . S
N1026 C1023 1.368 . S
N1026 C1027 1.321 . S
N1026 Co1029 2.135 1_554 S
C1027 N1025 1.340 . S
C1027 N1026 1.321 . S
C1027 H1051 0.930 . S
H1028 C1023 0.931 . S
Co1029 N1026 2.135 1_556 S
Co1029 N1032 2.121 . S
Co1029 O1037 2.055 1_556 S
Co1029 O1040 2.039 1_556 S
Co1029 N1043 2.140 . S
C1030 O1031 1.227 . S
C1030 O1040 1.265 1_556 S
O1031 C1030 1.227 . S
N1032 Co1029 2.121 . S
N1032 C1034 1.375 . S
N1032 C1035 1.313 . S
C1033 C1034 1.338 . S
C1033 N1036 1.377 . S
C1033 H1053 0.930 . S
C1034 N1032 1.375 . S
C1034 C1033 1.338 . S
C1034 H1038 0.931 . S
C1035 N1032 1.313 . S
C1035 N1036 1.344 . S
C1035 H1039 0.930 . S
N1036 C1033 1.377 . S
N1036 C1035 1.344 . S
O1037 Co1029 2.055 1_554 S
O1037 C1041 1.253 . S
H1038 C1034 0.931 . S
H1039 C1035 0.930 . S
O1040 Co1029 2.039 1_554 S
O1040 C1030 1.265 1_554 S
C1041 O1037 1.253 . S
C1041 O1042 1.227 . S
O1042 C1041 1.227 . S
N1043 Co1029 2.140 . S
N1043 C1046 1.346 . S
N1043 C1047 1.345 . S
C1044 C1045 1.387 . S
C1044 C1048 1.391 . S
C1045 C1044 1.387 . S
C1045 C1046 1.369 . S
C1045 H1054 0.929 . S
C1046 N1043 1.346 . S
C1046 C1045 1.369 . S
C1046 H1049 0.928 . S
C1047 N1043 1.345 . S
C1047 C1048 1.371 . S
C1047 H1050 0.931 . S
C1048 C1044 1.391 . S
C1048 C1047 1.371 . S
C1048 H1055 0.930 . S
H1049 C1046 0.928 . S
H1050 C1047 0.931 . S
H1051 C1027 0.930 . S
H1052 C1024 0.930 . S
H1053 C1033 0.930 . S
H1054 C1045 0.929 . S
H1055 C1048 0.930 . S
N2 N332 1.264 . S
N365 N35 1.264 . S
N266 N68 1.264 . S
N101 N299 1.264 . S
N134 N464 1.264 . S
N167 N497 1.264 . S
N398 N200 1.264 . S
N431 N233 1.264 . S
N860 N530 1.264 . S
N893 N563 1.264 . S
N596 N794 1.264 . S
N827 N629 1.264 . S
N662 N992 1.264 . S
N1025 N695 1.264 . S
N728 N926 1.264 . S
N761 N959 1.264 . S
C7 C832 2.467 . S
C40 C799 2.467 . S
C73 C898 2.467 . S
C106 C865 2.467 . S
C139 C964 2.467 . S
C172 C931 2.467 . S
C1030 C205 2.467 . S
C238 C997 2.467 . S
C568 C271 2.467 . S
C304 C535 2.467 . S
C337 C634 2.467 . S
C601 C370 2.467 . S
C700 C403 2.467 . S
C667 C436 2.467 . S
C469 C766 2.467 . S
C733 C502 2.467 . S
N79 N13 1.305 . S
N46 N112 1.305 . S
N211 N145 1.305 . S
N178 N244 1.305 . S
N277 N343 1.305 . S
N310 N376 1.305 . S
N475 N409 1.305 . S
N508 N442 1.305 . S
N607 N541 1.305 . S
N574 N640 1.305 . S
N673 N739 1.305 . S
N706 N772 1.305 . S
N871 N805 1.305 . S
N838 N904 1.305 . S
N937 N1003 1.305 . S
N1036 N970 1.305 . S
C747 C18 2.337 . S
C516 C51 2.337 . S
C84 C945 2.337 . S
C186 C117 2.337 . S
C150 C615 2.337 . S
C183 C384 2.337 . S
C813 C216 2.337 . S
C249 C54 2.337 . S
C282 C1011 2.337 . S
C252 C315 2.337 . S
C348 C681 2.337 . S
C381 C450 2.337 . S
C879 C414 2.337 . S
C447 C120 2.337 . S
C549 C480 2.337 . S
C318 C513 2.337 . S
C219 C546 2.337 . S
C579 C1044 2.337 . S
C612 C417 2.337 . S
C645 C714 2.337 . S
C678 C87 2.337 . S
C711 C912 2.337 . S
C285 C744 2.337 . S
C582 C777 2.337 . S
C483 C810 2.337 . S
C843 C780 2.337 . S
C153 C876 2.337 . S
C978 C909 2.337 . S
C942 C351 2.337 . S
C975 C648 2.337 . S
C21 C1008 2.337 . S
C1041 C846 2.337 . S
