# Generated by pormake.
# Topology npo, (4)-cn, num edge types: 1
# Building blocks:
#     Node 0, Type 0, BuildingBlock: UXUYUI_clean_sbu_0, # of connection points: 4
#     Node 1, Type 0, BuildingBlock: UXUYUI_clean_sbu_0, # of connection points: 4
#     Node 2, Type 0, BuildingBlock: UXUYUI_clean_sbu_0, # of connection points: 4
#     Node 3, Type 0, BuildingBlock: UXUYUI_clean_sbu_0, # of connection points: 4
#     Node 4, Type 0, BuildingBlock: UXUYUI_clean_sbu_0, # of connection points: 4
#     Node 5, Type 0, BuildingBlock: UXUYUI_clean_sbu_0, # of connection points: 4
#     Edge 6, Type (0, 0), BuildingBlock: EZIPEK_clean_linker_0, # of connection points: 2
#     Edge 7, Type (0, 0), BuildingBlock: EZIPEK_clean_linker_0, # of connection points: 2
#     Edge 8, Type (0, 0), BuildingBlock: EZIPEK_clean_linker_0, # of connection points: 2
#     Edge 9, Type (0, 0), BuildingBlock: EZIPEK_clean_linker_0, # of connection points: 2
#     Edge 10, Type (0, 0), BuildingBlock: EZIPEK_clean_linker_0, # of connection points: 2
#     Edge 11, Type (0, 0), BuildingBlock: EZIPEK_clean_linker_0, # of connection points: 2
#     Edge 12, Type (0, 0), BuildingBlock: EZIPEK_clean_linker_0, # of connection points: 2
#     Edge 13, Type (0, 0), BuildingBlock: EZIPEK_clean_linker_0, # of connection points: 2
#     Edge 14, Type (0, 0), BuildingBlock: EZIPEK_clean_linker_0, # of connection points: 2
#     Edge 15, Type (0, 0), BuildingBlock: EZIPEK_clean_linker_0, # of connection points: 2
#     Edge 16, Type (0, 0), BuildingBlock: EZIPEK_clean_linker_0, # of connection points: 2
#     Edge 17, Type (0, 0), BuildingBlock: EZIPEK_clean_linker_0, # of connection points: 2
# Relax obj value: 0.320
# Max RMSD: 0.247
# Mean RMSD: 0.247
data_MOF--net-npo--node1-UXUYUI_clean_sbu_0--edge1-EZIPEK_clean_linker_0
_symmetry_space_group_name_H-M    P1
_symmetry_Int_Tables_number       1
_symmetry_cell_setting            triclinic
loop_
_symmetry_equiv_pos_as_xyz
'x, y, z'
_cell_length_a     50.171789
_cell_length_b     50.111678
_cell_length_c     31.130817
_cell_angle_alpha  89.982623
_cell_angle_beta   89.963273
_cell_angle_gamma 120.05219
loop_
_atom_site_label
_atom_site_type_symbol
_atom_site_fract_x
_atom_site_fract_y
_atom_site_fract_z
_atom_type_partial_charge
Li0 Li 0.53647 0.12171 0.24153 0.0
Li1 Li 0.587 0.12328 0.24589 0.0
Li2 Li 0.54173 0.08234 0.20981 0.0
Li3 Li 0.54049 0.08356 0.28527 0.0
C4 C 0.56344 0.14753 0.1694 0.0
N5 N 0.558 0.19109 0.12169 0.0
C6 C 0.58746 0.17813 0.16866 0.0
C7 C 0.53686 0.139 0.14529 0.0
C8 C 0.58422 0.19983 0.14447 0.0
C9 C 0.53448 0.16138 0.12156 0.0
C10 C 0.56664 0.13449 0.33433 0.0
C11 C 0.59306 0.13796 0.40054 0.0
N12 N 0.57195 0.1422 0.42231 0.0
C13 C 0.54525 0.13896 0.35727 0.0
C14 C 0.59081 0.13407 0.356 0.0
C15 C 0.54831 0.14277 0.40179 0.0
C16 C 0.4902 0.13821 0.2289 0.0
N17 N 0.52008 0.14832 0.23936 0.0
C18 C 0.53056 0.20009 0.2453 0.0
C19 C 0.54015 0.17846 0.24796 0.0
C20 C 0.50003 0.19041 0.2341 0.0
C21 C 0.47953 0.15912 0.22609 0.0
H22 H 0.47478 0.11403 0.22246 0.0
H23 H 0.56373 0.18566 0.25632 0.0
C24 C 0.65059 0.14072 0.24045 0.0
N25 N 0.6299 0.1501 0.2486 0.0
C26 C 0.68214 0.16209 0.24089 0.0
C27 C 0.67021 0.20189 0.25931 0.0
C28 C 0.63904 0.17982 0.25872 0.0
C29 C 0.692 0.1931 0.24971 0.0
H30 H 0.64264 0.11681 0.23328 0.0
H31 H 0.62198 0.18641 0.26558 0.0
C32 C 0.48211 0.05111 0.2319 0.0
N33 N 0.43181 0.99768 0.20203 0.0
C34 C 0.47166 0.02335 0.25408 0.0
C35 C 0.46676 0.05174 0.19478 0.0
C36 C 0.44621 0.99659 0.23844 0.0
C37 C 0.44148 0.02446 0.18008 0.0
C38 C 0.57212 0.05447 0.23231 0.0
C39 C 0.55475 0.0245 0.24837 0.0
C40 C 0.59067 0.06 0.19609 0.0
C41 C 0.55618 0.00047 0.22779 0.0
C42 C 0.59139 0.03533 0.17636 0.0
N43 N 0.57428 0.00633 0.19249 0.0
C44 C 0.54308 0.07138 0.12218 0.0
C45 C 0.51352 0.02536 0.16202 0.0
C46 C 0.53681 0.05471 0.08416 0.0
N47 N 0.5311 0.05664 0.16004 0.0
C48 C 0.50659 0.00774 0.12468 0.0
C49 C 0.51823 0.02264 0.08536 0.0
H50 H 0.55773 0.09611 0.12145 0.0
H51 H 0.50506 0.014 0.19252 0.0
C52 C 0.50336 0.06058 0.35843 0.0
N53 N 0.52865 0.06312 0.33852 0.0
C54 C 0.49494 0.04717 0.39905 0.0
C55 C 0.53874 0.0392 0.39761 0.0
C56 C 0.54643 0.05297 0.35715 0.0
C57 C 0.51279 0.03635 0.41877 0.0
H58 H 0.49 0.06932 0.34286 0.0
H59 H 0.56675 0.05591 0.34076 0.0
O60 O 0.56572 0.12608 0.19394 0.0
O61 O 0.56362 0.13 0.29093 0.0
O62 O 0.50686 0.07759 0.24688 0.0
O63 O 0.5707 0.07822 0.25168 0.0
H64 H 0.60831 0.18511 0.18671 0.0
H65 H 0.51814 0.1154 0.1453 0.0
H66 H 0.60255 0.22363 0.14385 0.0
H67 H 0.5139 0.15514 0.10313 0.0
H68 H 0.61154 0.13752 0.41781 0.0
H69 H 0.52636 0.13922 0.34086 0.0
H70 H 0.60744 0.13046 0.33863 0.0
H71 H 0.53186 0.14611 0.42004 0.0
H72 H 0.54677 0.22415 0.25176 0.0
H73 H 0.4558 0.15114 0.21752 0.0
H74 H 0.6986 0.15472 0.23377 0.0
H75 H 0.67728 0.22567 0.26654 0.0
H76 H 0.48327 0.02233 0.28274 0.0
H77 H 0.47439 0.073 0.17732 0.0
H78 H 0.438 0.97492 0.25514 0.0
H79 H 0.42955 0.02457 0.1512 0.0
H80 H 0.54001 0.01976 0.27609 0.0
H81 H 0.60386 0.08298 0.18282 0.0
H82 H 0.54276 0.97714 0.23975 0.0
H83 H 0.60542 0.03921 0.14808 0.0
H84 H 0.54625 0.06667 0.0541 0.0
H85 H 0.49238 0.98289 0.12636 0.0
H86 H 0.47484 0.04526 0.41493 0.0
H87 H 0.55293 0.03112 0.41241 0.0
Li88 Li 0.44812 0.53713 0.78714 0.0
Li89 Li 0.45379 0.58111 0.74369 0.0
Li90 Li 0.40579 0.53413 0.74805 0.0
Li91 Li 0.446 0.53514 0.7068 0.0
C92 C 0.40617 0.55755 0.82448 0.0
N93 N 0.35981 0.54693 0.88187 0.0
C94 C 0.3966 0.57921 0.82928 0.0
C95 C 0.39221 0.53052 0.84899 0.0
C96 C 0.37312 0.57341 0.85844 0.0
C97 C 0.36881 0.52557 0.87779 0.0
C98 C 0.50841 0.58093 0.76663 0.0
C99 C 0.56271 0.60036 0.77692 0.0
N100 N 0.56214 0.61597 0.81231 0.0
C101 C 0.50837 0.59721 0.80308 0.0
C102 C 0.53578 0.5825 0.75341 0.0
C103 C 0.53576 0.61478 0.82574 0.0
C104 C 0.46783 0.50335 0.8387 0.0
N105 N 0.46098 0.52639 0.83834 0.0
C106 C 0.47083 0.53476 0.91358 0.0
C107 C 0.46265 0.54229 0.87461 0.0
C108 C 0.47772 0.51095 0.91501 0.0
C109 C 0.47646 0.49524 0.87705 0.0
H110 H 0.46636 0.49119 0.80929 0.0
H111 H 0.45738 0.5607 0.87336 0.0
C112 C 0.44947 0.63317 0.73839 0.0
N113 N 0.47108 0.62445 0.73938 0.0
C114 C 0.45825 0.66422 0.73586 0.0
C115 C 0.51155 0.67691 0.73379 0.0
C116 C 0.50168 0.64544 0.73613 0.0
C117 C 0.48958 0.68638 0.73395 0.0
H118 H 0.42532 0.61584 0.73949 0.0
H119 H 0.51841 0.63791 0.7353 0.0
C120 C 0.3941 0.4749 0.74752 0.0
N121 N 0.34189 0.41735 0.74428 0.0
C122 C 0.37602 0.4654 0.71043 0.0
C123 C 0.38584 0.45509 0.78284 0.0
C124 C 0.34963 0.43624 0.70948 0.0
C125 C 0.3593 0.42608 0.78059 0.0
C126 C 0.43683 0.57609 0.6595 0.0
C127 C 0.41732 0.57911 0.63035 0.0
C128 C 0.46841 0.59052 0.65084 0.0
C129 C 0.42972 0.59652 0.59305 0.0
C130 C 0.4799 0.60772 0.61318 0.0
N131 N 0.46049 0.61035 0.5853 0.0
C132 C 0.35434 0.53811 0.72855 0.0
C133 C 0.34181 0.4953 0.7738 0.0
C134 C 0.32418 0.53229 0.7305 0.0
N135 N 0.36263 0.5198 0.7501 0.0
C136 C 0.31128 0.48862 0.77664 0.0
C137 C 0.30247 0.50749 0.75506 0.0
H138 H 0.37148 0.55789 0.71096 0.0
H139 H 0.34901 0.48165 0.79186 0.0
C140 C 0.48114 0.51863 0.65264 0.0
N141 N 0.45513 0.52054 0.65594 0.0
C142 C 0.48866 0.5102 0.61364 0.0
C143 C 0.44245 0.50586 0.58254 0.0
C144 C 0.43563 0.51392 0.62216 0.0
C145 C 0.46932 0.50414 0.578 0.0
H146 H 0.49623 0.52413 0.68005 0.0
H147 H 0.41512 0.51565 0.62571 0.0
O148 O 0.42898 0.56266 0.79586 0.0
O149 O 0.4818 0.56305 0.74428 0.0
O150 O 0.42001 0.50331 0.74917 0.0
O151 O 0.42483 0.55902 0.69614 0.0
H152 H 0.40723 0.60033 0.81087 0.0
H153 H 0.39902 0.51329 0.8453 0.0
H154 H 0.36544 0.58995 0.8624 0.0
H155 H 0.35769 0.50467 0.89674 0.0
H156 H 0.58406 0.60177 0.76706 0.0
H157 H 0.48752 0.59655 0.81359 0.0
H158 H 0.5362 0.57 0.72531 0.0
H159 H 0.53605 0.6275 0.85397 0.0
H160 H 0.47172 0.54732 0.94237 0.0
H161 H 0.48178 0.4768 0.8773 0.0
H162 H 0.44082 0.67095 0.73576 0.0
H163 H 0.53591 0.69364 0.73207 0.0
H164 H 0.38209 0.48053 0.68292 0.0
H165 H 0.39968 0.46213 0.81175 0.0
H166 H 0.33528 0.42864 0.6811 0.0
H167 H 0.35253 0.41053 0.80772 0.0
H168 H 0.39282 0.56802 0.63641 0.0
H169 H 0.48397 0.58848 0.67277 0.0
H170 H 0.41486 0.59902 0.57022 0.0
H171 H 0.50427 0.61897 0.6061 0.0
H172 H 0.318 0.54747 0.71402 0.0
H173 H 0.295 0.46962 0.79642 0.0
H174 H 0.50956 0.509 0.61098 0.0
H175 H 0.42712 0.50131 0.55557 0.0
Li176 Li 0.86775 0.45526 0.24863 0.0
Li177 Li 0.91155 0.45448 0.28915 0.0
Li178 Li 0.91041 0.45628 0.21111 0.0
Li179 Li 0.87533 0.41101 0.24694 0.0
C180 C 0.9288 0.51356 0.22846 0.0
N181 N 0.96297 0.56427 0.17664 0.0
C182 C 0.96091 0.52792 0.22811 0.0
C183 C 0.91405 0.52509 0.20271 0.0
C184 C 0.97778 0.55348 0.20158 0.0
C185 C 0.93175 0.55076 0.17671 0.0
C186 C 0.84269 0.40417 0.3175 0.0
C187 C 0.82434 0.35884 0.36193 0.0
N188 N 0.79491 0.35257 0.35583 0.0
C189 C 0.81228 0.3974 0.31199 0.0
C190 C 0.84879 0.38482 0.34289 0.0
C191 C 0.78845 0.37116 0.3315 0.0
C192 C 0.81354 0.45393 0.22515 0.0
N193 N 0.83875 0.46849 0.25073 0.0
C194 C 0.81952 0.49873 0.28301 0.0
C195 C 0.84238 0.49074 0.27902 0.0
C196 C 0.79293 0.48341 0.25773 0.0
C197 C 0.79016 0.46113 0.22812 0.0
H198 H 0.81121 0.43604 0.20346 0.0
H199 H 0.8627 0.50172 0.29906 0.0
C200 C 0.96556 0.48626 0.3402 0.0
N201 N 0.9344 0.46812 0.34058 0.0
C202 C 0.98172 0.49636 0.37885 0.0
C203 C 0.93343 0.46813 0.4172 0.0
C204 C 0.91821 0.45913 0.37794 0.0
C205 C 0.9655 0.48711 0.41783 0.0
H206 H 0.97779 0.49288 0.30995 0.0
H207 H 0.89343 0.44497 0.37725 0.0
C208 C 0.86191 0.41512 0.16069 0.0
N209 N 0.85434 0.38446 0.08389 0.0
C210 C 0.87774 0.39924 0.15309 0.0
C211 C 0.84223 0.41542 0.12918 0.0
C212 C 0.87361 0.38388 0.1141 0.0
C213 C 0.8387 0.39977 0.09058 0.0
C214 C 0.93201 0.41166 0.25821 0.0
C215 C 0.94344 0.40042 0.22631 0.0
C216 C 0.93261 0.40375 0.30113 0.0
C217 C 0.95476 0.38099 0.23782 0.0
C218 C 0.94417 0.38431 0.31134 0.0
N219 N 0.95487 0.3734 0.27973 0.0
C220 C 0.9625 0.474 0.15796 0.0
C221 C 0.92245 0.48002 0.12748 0.0
C222 C 0.97927 0.48375 0.11975 0.0
N223 N 0.93455 0.47207 0.16083 0.0
C224 C 0.93827 0.48962 0.08865 0.0
C225 C 0.96682 0.49123 0.08459 0.0
H226 H 0.9715 0.46758 0.18515 0.0
H227 H 0.90025 0.47843 0.13089 0.0
C228 C 0.82093 0.35795 0.23209 0.0
N229 N 0.85023 0.36702 0.24444 0.0
C230 C 0.79855 0.32691 0.23207 0.0
C231 C 0.837 0.31457 0.25585 0.0
C232 C 0.85873 0.34608 0.25574 0.0
C233 C 0.80645 0.30497 0.24466 0.0
H234 H 0.81473 0.37505 0.2235 0.0
H235 H 0.88199 0.35358 0.26561 0.0
O236 O 0.9118 0.48782 0.25296 0.0
O237 O 0.8663 0.42948 0.29796 0.0
O238 O 0.86598 0.43081 0.19838 0.0
O239 O 0.92131 0.4311 0.24743 0.0
H240 H 0.97265 0.5191 0.24755 0.0
H241 H 0.88919 0.5141 0.20235 0.0
H242 H 0.00264 0.56467 0.20069 0.0
H243 H 0.92064 0.55984 0.15642 0.0
H244 H 0.82874 0.3436 0.38144 0.0
H245 H 0.80706 0.41207 0.29258 0.0
H246 H 0.87212 0.38964 0.34757 0.0
H247 H 0.7648 0.36555 0.32725 0.0
H248 H 0.8221 0.51597 0.30621 0.0
H249 H 0.76974 0.44889 0.2084 0.0
H250 H 0.00653 0.51104 0.37846 0.0
H251 H 0.92033 0.46069 0.44681 0.0
H252 H 0.89304 0.39878 0.17701 0.0
H253 H 0.82998 0.4278 0.13434 0.0
H254 H 0.88576 0.37153 0.10784 0.0
H255 H 0.82358 0.39985 0.06589 0.0
H256 H 0.94365 0.40667 0.19298 0.0
H257 H 0.9241 0.41228 0.32631 0.0
H258 H 0.96354 0.37203 0.21343 0.0
H259 H 0.94461 0.37789 0.3444 0.0
H260 H 0.00133 0.48485 0.11728 0.0
H261 H 0.92824 0.49536 0.06192 0.0
H262 H 0.7751 0.32009 0.2232 0.0
H263 H 0.84366 0.29799 0.26559 0.0
Li264 Li 0.46397 0.92201 0.71131 0.0
Li265 Li 0.46533 0.91589 0.786 0.0
Li266 Li 0.47055 0.87909 0.74047 0.0
Li267 Li 0.4211 0.87934 0.74986 0.0
C268 C 0.52347 0.94853 0.76338 0.0
N269 N 0.57179 0.99713 0.80568 0.0
C270 C 0.53324 0.97888 0.75101 0.0
C271 C 0.53834 0.94289 0.79717 0.0
C272 C 0.55775 0.00313 0.77277 0.0
C273 C 0.56267 0.96778 0.81823 0.0
C274 C 0.4348 0.9466 0.77575 0.0
C275 C 0.41838 0.96406 0.83715 0.0
N276 N 0.43376 0.99333 0.82146 0.0
C277 C 0.4503 0.97682 0.76011 0.0
C278 C 0.4185 0.9401 0.81441 0.0
C279 C 0.44952 0.00012 0.78373 0.0
C280 C 0.45217 0.9538 0.6464 0.0
N281 N 0.47343 0.94716 0.66227 0.0
C282 C 0.50701 0.97215 0.60307 0.0
C283 C 0.50047 0.95597 0.64168 0.0
C284 C 0.48529 0.97886 0.58571 0.0
C285 C 0.4577 0.96981 0.60773 0.0
H286 H 0.43064 0.94593 0.66324 0.0
H287 H 0.51659 0.94976 0.6548 0.0
C288 C 0.47503 0.91834 0.87484 0.0
N289 N 0.47884 0.93639 0.8401 0.0
C290 C 0.48228 0.93113 0.91584 0.0
C291 C 0.49858 0.98116 0.88449 0.0
C292 C 0.49114 0.96741 0.84406 0.0
C293 C 0.49368 0.96275 0.92074 0.0
H294 H 0.46605 0.89391 0.87086 0.0
H295 H 0.49474 0.98145 0.81601 0.0
C296 C 0.43415 0.87517 0.65448 0.0
N297 N 0.42046 0.87246 0.56816 0.0
C298 C 0.40739 0.87488 0.64128 0.0
C299 C 0.454 0.87418 0.62387 0.0
C300 C 0.40088 0.87352 0.59745 0.0
C301 C 0.44666 0.87279 0.58034 0.0
C302 C 0.4232 0.84597 0.81408 0.0
C303 C 0.41903 0.81669 0.80599 0.0
C304 C 0.40412 0.84932 0.84368 0.0
C305 C 0.39552 0.79116 0.8272 0.0
C306 C 0.38092 0.82324 0.86433 0.0
N307 N 0.3771 0.79493 0.85567 0.0
C308 C 0.51171 0.85589 0.75096 0.0
C309 C 0.46753 0.82651 0.70763 0.0
C310 C 0.51906 0.83245 0.74933 0.0
N311 N 0.48588 0.85209 0.73114 0.0
C312 C 0.47384 0.80246 0.70547 0.0
C313 C 0.49928 0.805 0.72762 0.0
H314 H 0.52573 0.8764 0.76963 0.0
H315 H 0.44695 0.82402 0.69271 0.0
C316 C 0.35786 0.85949 0.76694 0.0
N317 N 0.37823 0.85168 0.75081 0.0
C318 C 0.32667 0.83728 0.77019 0.0
C319 C 0.33821 0.79991 0.73911 0.0
C320 C 0.36902 0.82278 0.73633 0.0
C321 C 0.31686 0.80709 0.7566 0.0
H322 H 0.36588 0.88272 0.77799 0.0
H323 H 0.38585 0.81738 0.72366 0.0
O324 O 0.49928 0.92451 0.74279 0.0
O325 O 0.43522 0.92348 0.75296 0.0
O326 O 0.44094 0.87653 0.6972 0.0
O327 O 0.44586 0.87126 0.79324 0.0
H328 H 0.52179 0.9837 0.72528 0.0
H329 H 0.53075 0.91959 0.80763 0.0
H330 H 0.56546 0.02673 0.76366 0.0
H331 H 0.57419 0.96377 0.8447 0.0
H332 H 0.4061 0.95941 0.86731 0.0
H333 H 0.46311 0.9823 0.73034 0.0
H334 H 0.40642 0.91689 0.82703 0.0
H335 H 0.46156 0.02364 0.77214 0.0
H336 H 0.52836 0.97866 0.58635 0.0
H337 H 0.44047 0.97452 0.59466 0.0
H338 H 0.47852 0.9165 0.94347 0.0
H339 H 0.50761 0.00575 0.88756 0.0
H340 H 0.3919 0.87585 0.66463 0.0
H341 H 0.47489 0.87455 0.63366 0.0
H342 H 0.38029 0.87333 0.58672 0.0
H343 H 0.46181 0.87205 0.55624 0.0
H344 H 0.4337 0.81363 0.78352 0.0
H345 H 0.40711 0.87181 0.85051 0.0
H346 H 0.39193 0.76834 0.82106 0.0
H347 H 0.3659 0.8255 0.88715 0.0
H348 H 0.53885 0.83491 0.76675 0.0
H349 H 0.45816 0.78147 0.68858 0.0
H350 H 0.31054 0.8433 0.78389 0.0
H351 H 0.33115 0.77672 0.72848 0.0
Li352 Li 0.53173 0.44863 0.28569 0.0
Li353 Li 0.5277 0.40509 0.24512 0.0
Li354 Li 0.57562 0.45312 0.24843 0.0
Li355 Li 0.53429 0.45 0.2078 0.0
C356 C 0.57488 0.43301 0.32737 0.0
N357 N 0.62107 0.45022 0.38766 0.0
C358 C 0.58479 0.4125 0.33933 0.0
C359 C 0.58842 0.46225 0.3462 0.0
C360 C 0.6082 0.42165 0.36982 0.0
C361 C 0.61173 0.47051 0.3766 0.0
C362 C 0.47228 0.40273 0.26664 0.0
C363 C 0.41778 0.38137 0.27814 0.0
N364 N 0.4192 0.36537 0.31251 0.0
C365 C 0.47318 0.38604 0.30206 0.0
C366 C 0.44437 0.40038 0.25454 0.0
C367 C 0.44611 0.36729 0.32484 0.0
C368 C 0.51091 0.48185 0.33651 0.0
N369 N 0.51803 0.459 0.33648 0.0
C370 C 0.50778 0.45061 0.41166 0.0
C371 C 0.51626 0.44317 0.37287 0.0
C372 C 0.50061 0.47425 0.41279 0.0
C373 C 0.50187 0.48982 0.37467 0.0
H374 H 0.51248 0.49398 0.30702 0.0
H375 H 0.52175 0.4249 0.37191 0.0
C376 C 0.53326 0.35367 0.24895 0.0
N377 N 0.51175 0.36204 0.24196 0.0
C378 C 0.52538 0.3229 0.24608 0.0
C379 C 0.4734 0.30983 0.22735 0.0
C380 C 0.48228 0.34102 0.23093 0.0
C381 C 0.4952 0.30072 0.23524 0.0
H382 H 0.55672 0.37112 0.25593 0.0
H383 H 0.46587 0.34847 0.22422 0.0
C384 C 0.58035 0.50955 0.22642 0.0
N385 N 0.61882 0.56236 0.18066 0.0
C386 C 0.59821 0.50848 0.19273 0.0
C387 C 0.58207 0.53749 0.23687 0.0
C388 C 0.61751 0.53541 0.16997 0.0
C389 C 0.60166 0.56394 0.21335 0.0
C390 C 0.54601 0.40917 0.16172 0.0
C391 C 0.56642 0.40465 0.13641 0.0
C392 C 0.51491 0.39492 0.1503 0.0
C393 C 0.55539 0.38599 0.09995 0.0
C394 C 0.50478 0.37645 0.1136 0.0
N395 N 0.52506 0.37239 0.0894 0.0
C396 C 0.62673 0.44735 0.23851 0.0
C397 C 0.63932 0.49611 0.26751 0.0
C398 C 0.65722 0.45444 0.24166 0.0
N399 N 0.61842 0.46803 0.25147 0.0
C400 C 0.67024 0.50421 0.27126 0.0
C401 C 0.67919 0.48305 0.25835 0.0
H402 H 0.60942 0.42506 0.22654 0.0
H403 H 0.63188 0.51188 0.27818 0.0
C404 C 0.49943 0.46734 0.15472 0.0
N405 N 0.5245 0.4637 0.15633 0.0
C406 C 0.49136 0.47581 0.11619 0.0
C407 C 0.5351 0.47664 0.08203 0.0
C408 C 0.54247 0.4685 0.12115 0.0
C409 C 0.50921 0.4802 0.07932 0.0
H410 H 0.48556 0.46332 0.18321 0.0
H411 H 0.56231 0.46551 0.12319 0.0
O412 O 0.55266 0.42491 0.29657 0.0
O413 O 0.49847 0.42156 0.24395 0.0
O414 O 0.56108 0.48352 0.24914 0.0
O415 O 0.55656 0.42708 0.19782 0.0
H416 H 0.57456 0.38975 0.32532 0.0
H417 H 0.58138 0.4786 0.33689 0.0
H418 H 0.61615 0.40605 0.37928 0.0
H419 H 0.62251 0.49312 0.39122 0.0
H420 H 0.39603 0.37936 0.26914 0.0
H421 H 0.49448 0.38737 0.31183 0.0
H422 H 0.44329 0.41318 0.22721 0.0
H423 H 0.44649 0.35425 0.3523 0.0
H424 H 0.50689 0.43814 0.44057 0.0
H425 H 0.49634 0.50811 0.37466 0.0
H426 H 0.54274 0.31646 0.25163 0.0
H427 H 0.45003 0.2931 0.21832 0.0
H428 H 0.59725 0.48711 0.18417 0.0
H429 H 0.56836 0.53869 0.26287 0.0
H430 H 0.63144 0.53489 0.14381 0.0
H431 H 0.60321 0.58572 0.22107 0.0
H432 H 0.59055 0.41545 0.14489 0.0
H433 H 0.49871 0.39803 0.16948 0.0
H434 H 0.57094 0.3823 0.08007 0.0
H435 H 0.48079 0.3653 0.10438 0.0
H436 H 0.66359 0.43765 0.23178 0.0
H437 H 0.68682 0.52636 0.28459 0.0
H438 H 0.47124 0.47847 0.11493 0.0
H439 H 0.54929 0.47993 0.05407 0.0
Li440 Li 0.08226 0.5511 0.79121 0.0
Li441 Li 0.1191 0.54317 0.7459 0.0
Li442 Li 0.12238 0.59294 0.74959 0.0
Li443 Li 0.08243 0.55226 0.71013 0.0
C444 C 0.15263 0.58927 0.81847 0.0
N445 N 0.20557 0.63088 0.86114 0.0
C446 C 0.18141 0.59541 0.80343 0.0
C447 C 0.15074 0.60435 0.8551 0.0
C448 C 0.20792 0.61652 0.82547 0.0
C449 C 0.17779 0.62534 0.87622 0.0
C450 C 0.07009 0.48848 0.75474 0.0
C451 C 0.07288 0.44502 0.72687 0.0
N452 N 0.0653 0.43154 0.76631 0.0
C453 C 0.06207 0.47407 0.79489 0.0
C454 C 0.07528 0.47372 0.72033 0.0
C455 C 0.05984 0.44533 0.80012 0.0
C456 C 0.03124 0.53627 0.84536 0.0
N457 N 0.05992 0.53988 0.8431 0.0
C458 C 0.0586 0.52764 0.91744 0.0
C459 C 0.07372 0.53567 0.87795 0.0
C460 C 0.02921 0.52421 0.92079 0.0
C461 C 0.01538 0.52856 0.8844 0.0
H462 H 0.02086 0.53963 0.81694 0.0
H463 H 0.09643 0.53841 0.87494 0.0
C464 C 0.1641 0.53098 0.71363 0.0
N465 N 0.14381 0.52442 0.74637 0.0
C466 C 0.18671 0.5227 0.71652 0.0
C467 C 0.16652 0.50012 0.78619 0.0
C468 C 0.14431 0.50898 0.78204 0.0
C469 C 0.18849 0.50787 0.75361 0.0
H470 H 0.16397 0.54429 0.68647 0.0
H471 H 0.12856 0.50504 0.80818 0.0
C472 C 0.07827 0.60744 0.75541 0.0
N473 N 0.0796 0.66307 0.76282 0.0
C474 C 0.08914 0.62857 0.72148 0.0
C475 C 0.06798 0.61459 0.79308 0.0
C476 C 0.0897 0.65658 0.72588 0.0
C477 C 0.06882 0.64283 0.79619 0.0
C478 C 0.12807 0.57379 0.65502 0.0
C479 C 0.13525 0.60124 0.63391 0.0
C480 C 0.12124 0.5476 0.63088 0.0
C481 C 0.1353 0.60195 0.58904 0.0
C482 C 0.12154 0.54924 0.58608 0.0
N483 N 0.12848 0.57615 0.56625 0.0
C484 C 0.17746 0.64534 0.72722 0.0
C485 C 0.15104 0.65485 0.78298 0.0
C486 C 0.20186 0.6755 0.72966 0.0
N487 N 0.15255 0.63569 0.75329 0.0
C488 C 0.17494 0.68536 0.78637 0.0
C489 C 0.20072 0.6957 0.75964 0.0
H490 H 0.17881 0.6293 0.7054 0.0
H491 H 0.13179 0.64628 0.80486 0.0
C492 C 0.03807 0.51049 0.65204 0.0
N493 N 0.05677 0.54096 0.66065 0.0
C494 C 0.02177 0.50126 0.61347 0.0
C495 C 0.04385 0.55493 0.59376 0.0
C496 C 0.05916 0.5631 0.63306 0.0
C497 C 0.02524 0.52369 0.58351 0.0
H498 H 0.03637 0.49335 0.67465 0.0
H499 H 0.0739 0.58711 0.64072 0.0
O500 O 0.12641 0.56865 0.79738 0.0
O501 O 0.07284 0.51685 0.74914 0.0
O502 O 0.07742 0.57981 0.75172 0.0
O503 O 0.12765 0.57252 0.69901 0.0
H504 H 0.18331 0.58417 0.77489 0.0
H505 H 0.12864 0.60005 0.86692 0.0
H506 H 0.23035 0.62152 0.81419 0.0
H507 H 0.17671 0.63725 0.90456 0.0
H508 H 0.07705 0.43346 0.70059 0.0
H509 H 0.05769 0.48495 0.82179 0.0
H510 H 0.08127 0.48438 0.68898 0.0
H511 H 0.0538 0.434 0.83108 0.0
H512 H 0.06968 0.52427 0.9451 0.0
H513 H 0.99261 0.52589 0.88625 0.0
H514 H 0.20368 0.52929 0.69118 0.0
H515 H 0.16768 0.489 0.8154 0.0
H516 H 0.09775 0.62374 0.69247 0.0
H517 H 0.05966 0.59867 0.81979 0.0
H518 H 0.09831 0.67324 0.7 0.0
H519 H 0.06101 0.64868 0.8252 0.0
H520 H 0.14024 0.62168 0.65187 0.0
H521 H 0.1156 0.52616 0.64654 0.0
H522 H 0.14062 0.62298 0.57234 0.0
H523 H 0.11622 0.52911 0.56706 0.0
H524 H 0.22179 0.68282 0.70916 0.0
H525 H 0.1738 0.70043 0.81033 0.0
H526 H 0.00737 0.47694 0.60646 0.0
H527 H 0.04686 0.57274 0.57129 0.0
C528 C 0.495 0.23005 0.19207 0.0
C529 C 0.49014 0.21363 0.23106 0.0
C530 C 0.47741 0.249 0.26783 0.0
C531 C 0.48747 0.26821 0.23103 0.0
N532 N 0.50419 0.27733 0.15728 0.0
N533 N 0.47542 0.20563 0.30564 0.0
C534 C 0.49522 0.25851 0.19255 0.0
C535 C 0.48035 0.22224 0.26868 0.0
N536 N 0.49967 0.21842 0.15489 0.0
N537 N 0.46543 0.25669 0.30195 0.0
H538 H 0.47616 0.1852 0.30674 0.0
H539 H 0.47182 0.21253 0.33555 0.0
H540 H 0.46344 0.27643 0.30223 0.0
H541 H 0.45526 0.24252 0.32847 0.0
H542 H 0.50094 0.22779 0.12463 0.0
H543 H 0.49995 0.19775 0.15389 0.0
H544 H 0.51367 0.27364 0.12976 0.0
H545 H 0.50315 0.29761 0.15611 0.0
C546 C 0.26738 0.52316 0.78882 0.0
C547 C 0.27127 0.50323 0.76053 0.0
C548 C 0.21777 0.4808 0.7367 0.0
C549 C 0.21559 0.50398 0.75989 0.0
N550 N 0.23903 0.54925 0.80511 0.0
N551 N 0.25122 0.46366 0.70626 0.0
C552 C 0.24044 0.5255 0.78566 0.0
C553 C 0.24661 0.48189 0.73443 0.0
N554 N 0.28948 0.53974 0.81879 0.0
N555 N 0.19218 0.45773 0.7172 0.0
H556 H 0.27181 0.46331 0.70466 0.0
H557 H 0.23536 0.45019 0.68283 0.0
H558 H 0.17079 0.45648 0.71837 0.0
H559 H 0.19143 0.43855 0.70307 0.0
H560 H 0.28665 0.55233 0.84318 0.0
H561 H 0.30958 0.53859 0.82176 0.0
H562 H 0.25783 0.56771 0.81989 0.0
H563 H 0.21972 0.55191 0.80382 0.0
C564 C 0.73945 0.22959 0.20841 0.0
C565 C 0.72501 0.217 0.2484 0.0
C566 C 0.76793 0.25911 0.28694 0.0
C567 C 0.78193 0.27219 0.2469 0.0
N568 N 0.78605 0.26629 0.17095 0.0
N569 N 0.72868 0.21438 0.32517 0.0
C570 C 0.76935 0.25605 0.20806 0.0
C571 C 0.74046 0.22998 0.28755 0.0
N572 N 0.72389 0.21743 0.17091 0.0
N573 N 0.77985 0.27531 0.32407 0.0
H574 H 0.70852 0.19295 0.32635 0.0
H575 H 0.74021 0.22119 0.35444 0.0
H576 H 0.8004 0.29633 0.32507 0.0
H577 H 0.76857 0.26883 0.35357 0.0
H578 H 0.73167 0.22782 0.14104 0.0
H579 H 0.70212 0.19776 0.16979 0.0
H580 H 0.77945 0.25412 0.14215 0.0
H581 H 0.80806 0.28569 0.17006 0.0
C582 C 0.49425 0.76024 0.77021 0.0
C583 C 0.50291 0.77752 0.73144 0.0
C584 C 0.50702 0.73642 0.69498 0.0
C585 C 0.49875 0.71943 0.73393 0.0
N586 N 0.4928 0.71826 0.81078 0.0
N587 N 0.5244 0.78584 0.66024 0.0
C588 C 0.49523 0.73249 0.77232 0.0
C589 C 0.51163 0.76682 0.69487 0.0
N590 N 0.48319 0.7692 0.80409 0.0
N591 N 0.50893 0.72296 0.65781 0.0
H592 H 0.52804 0.80824 0.65945 0.0
H593 H 0.53384 0.78051 0.63411 0.0
H594 H 0.50622 0.70093 0.65685 0.0
H595 H 0.5113 0.73279 0.62757 0.0
H596 H 0.4731 0.7555 0.83108 0.0
H597 H 0.4817 0.78921 0.804 0.0
H598 H 0.49319 0.72819 0.84033 0.0
H599 H 0.49343 0.69781 0.8133 0.0
C600 C 0.73318 0.50563 0.23073 0.0
C601 C 0.71124 0.4897 0.26353 0.0
C602 C 0.7452 0.47371 0.29669 0.0
C603 C 0.76694 0.48913 0.26341 0.0
N604 N 0.78555 0.52565 0.20517 0.0
N605 N 0.69892 0.46552 0.33315 0.0
C606 C 0.76221 0.50714 0.23255 0.0
C607 C 0.71823 0.47613 0.29846 0.0
N608 N 0.72565 0.51796 0.19687 0.0
N609 N 0.74954 0.45541 0.32511 0.0
H610 H 0.67888 0.4669 0.33511 0.0
H611 H 0.70404 0.45796 0.36145 0.0
H612 H 0.76927 0.45345 0.32538 0.0
H613 H 0.73281 0.44063 0.34676 0.0
H614 H 0.7391 0.52661 0.16935 0.0
H615 H 0.70495 0.51808 0.19525 0.0
H616 H 0.78467 0.54149 0.18445 0.0
H617 H 0.80702 0.52705 0.20582 0.0
C618 C 0.26266 0.77633 0.72952 0.0
C619 C 0.28457 0.78221 0.76222 0.0
C620 C 0.24944 0.73322 0.79717 0.0
C621 C 0.22763 0.72708 0.76414 0.0
N622 N 0.20982 0.74509 0.70516 0.0
N623 N 0.29645 0.77092 0.83246 0.0
C624 C 0.23307 0.74951 0.73236 0.0
C625 C 0.27707 0.76216 0.79792 0.0
N626 N 0.27065 0.79568 0.69494 0.0
N627 N 0.24452 0.7108 0.82634 0.0
H628 H 0.31688 0.79207 0.83379 0.0
H629 H 0.29104 0.75869 0.86122 0.0
H630 H 0.2243 0.68948 0.82737 0.0
H631 H 0.26118 0.71247 0.84782 0.0
H632 H 0.2571 0.79083 0.66756 0.0
H633 H 0.29179 0.81607 0.69264 0.0
H634 H 0.21131 0.76173 0.68374 0.0
H635 H 0.18791 0.72559 0.70666 0.0
C636 C 0.52778 0.98565 0.98481 0.0
C637 C 0.49931 0.97644 0.96408 0.0
C638 C 0.48283 0.99682 0.02346 0.0
C639 C 0.51078 0.0049 0.04498 0.0
N640 N 0.5575 0.00263 0.0507 0.0
N641 N 0.44762 0.96809 0.96574 0.0
C642 C 0.53257 0.99795 0.02701 0.0
C643 C 0.47615 0.98045 0.98409 0.0
N644 N 0.5505 0.9835 0.96356 0.0
N645 N 0.46324 0.00577 0.03995 0.0
H646 H 0.44206 0.95646 0.93642 0.0
H647 H 0.42873 0.96725 0.98094 0.0
H648 H 0.46696 0.01712 0.06932 0.0
H649 H 0.44435 0.00385 0.02337 0.0
H650 H 0.57294 0.99295 0.9749 0.0
H651 H 0.54754 0.97401 0.93289 0.0
H652 H 0.5726 0.99517 0.04129 0.0
H653 H 0.56178 0.01187 0.08164 0.0
C654 C 0.46431 0.46106 0.47498 0.0
C655 C 0.49205 0.48259 0.45423 0.0
C656 C 0.50311 0.51952 0.5125 0.0
C657 C 0.47737 0.49662 0.53556 0.0
N658 N 0.43647 0.44375 0.54217 0.0
N659 N 0.54081 0.53018 0.45678 0.0
C660 C 0.45876 0.46683 0.51775 0.0
C661 C 0.5123 0.51129 0.47392 0.0
N662 N 0.44288 0.43552 0.45338 0.0
N663 N 0.51816 0.54936 0.52662 0.0
H664 H 0.54865 0.52486 0.42883 0.0
H665 H 0.55772 0.54976 0.47238 0.0
H666 H 0.51186 0.55647 0.55441 0.0
H667 H 0.53499 0.56756 0.50865 0.0
H668 H 0.42092 0.42066 0.46538 0.0
H669 H 0.44592 0.43078 0.42171 0.0
H670 H 0.42439 0.42082 0.53234 0.0
H671 H 0.43203 0.44694 0.57393 0.0
C672 C 0.0189 0.53935 0.99289 0.0
C673 C 0.01293 0.51585 0.96257 0.0
C674 C 0.97837 0.47616 0.01341 0.0
C675 C 0.9831 0.49976 0.04284 0.0
N676 N 0.00479 0.55356 0.06018 0.0
N677 N 0.98511 0.4625 0.94101 0.0
C678 C 0.00254 0.53133 0.03247 0.0
C679 C 0.99211 0.48439 0.97201 0.0
N680 N 0.04067 0.56923 0.98404 0.0
N681 N 0.96116 0.4459 0.02547 0.0
H682 H 0.99562 0.4675 0.91087 0.0
H683 H 0.96759 0.43967 0.94386 0.0
H684 H 0.94973 0.43895 0.05489 0.0
H685 H 0.95959 0.4276 0.00767 0.0
H686 H 0.04877 0.58699 0.00645 0.0
H687 H 0.05216 0.57616 0.95466 0.0
H688 H 0.01569 0.57692 0.05268 0.0
H689 H 0.9941 0.54853 0.0902 0.0
C690 C 0.51662 0.04043 0.49893 0.0
C691 C 0.50434 0.02189 0.46172 0.0
C692 C 0.4796 0.97519 0.5058 0.0
C693 C 0.49082 0.99381 0.54314 0.0
N694 N 0.51579 0.04384 0.57668 0.0
N695 N 0.4705 0.97268 0.42901 0.0
C696 C 0.50809 0.0264 0.54013 0.0
C697 C 0.48467 0.98955 0.46496 0.0
N698 N 0.53704 0.0713 0.49472 0.0
N699 N 0.46499 0.94379 0.5094 0.0
H700 H 0.47433 0.98231 0.39833 0.0
H701 H 0.45325 0.94962 0.42975 0.0
H702 H 0.46017 0.93244 0.53889 0.0
H703 H 0.45943 0.92895 0.48332 0.0
H704 H 0.54955 0.08554 0.52017 0.0
H705 H 0.54304 0.0825 0.46508 0.0
H706 H 0.52555 0.0677 0.57673 0.0
H707 H 0.51035 0.03422 0.6074 0.0
C708 C 0.51422 0.52363 0.97672 0.0
C709 C 0.48606 0.50256 0.95654 0.0
C710 C 0.4743 0.46572 0.01523 0.0
C711 C 0.50077 0.48812 0.03751 0.0
N712 N 0.54309 0.54034 0.04315 0.0
N713 N 0.43653 0.45593 0.96 0.0
C714 C 0.51997 0.51767 0.01929 0.0
C715 C 0.46529 0.47422 0.97672 0.0
N716 N 0.53587 0.54884 0.95471 0.0
N717 N 0.45837 0.43605 0.02999 0.0
H718 H 0.42891 0.46142 0.932 0.0
H719 H 0.4193 0.43672 0.97591 0.0
H720 H 0.46438 0.42879 0.0579 0.0
H721 H 0.44094 0.41804 0.01255 0.0
H722 H 0.55807 0.56327 0.96616 0.0
H723 H 0.53266 0.55375 0.9232 0.0
H724 H 0.55575 0.56322 0.03315 0.0
H725 H 0.54777 0.53695 0.07469 0.0
C726 C 0.98735 0.52202 0.5294 0.0
C727 C 0.01018 0.51454 0.54085 0.0
C728 C 0.00225 0.48715 0.47273 0.0
C729 C 0.9818 0.4974 0.45952 0.0
N730 N 0.96015 0.53029 0.47151 0.0
N731 N 0.04434 0.49597 0.51953 0.0
C732 C 0.97589 0.51655 0.48677 0.0
C733 C 0.01911 0.49882 0.51138 0.0
N734 N 0.97577 0.5333 0.55959 0.0
N735 N 0.00469 0.46538 0.44936 0.0
H736 H 0.05775 0.50477 0.54709 0.0
H737 H 0.05369 0.48756 0.49705 0.0
H738 H 0.99227 0.45574 0.42124 0.0
H739 H 0.01681 0.45479 0.46003 0.0
H740 H 0.95688 0.53616 0.554 0.0
H741 H 0.98307 0.53699 0.5915 0.0
H742 H 0.95787 0.54689 0.48867 0.0
H743 H 0.95202 0.52746 0.44005 0.0
loop_
_geom_bond_atom_site_label_1
_geom_bond_atom_site_label_2
_geom_bond_distance
_geom_bond_site_symmetry_2
_ccdc_geom_bond_type
Li0 N17 1.990 . S
Li0 O60 1.956 . S
Li0 O61 1.970 . S
Li0 O62 1.961 . S
Li1 N25 1.990 . S
Li1 O60 1.970 . S
Li1 O61 1.956 . S
Li1 O63 1.961 . S
Li2 N47 1.990 . S
Li2 O60 1.961 . S
Li2 O62 1.956 . S
Li2 O63 1.970 . S
Li3 N53 1.990 . S
Li3 O61 1.961 . S
Li3 O62 1.970 . S
Li3 O63 1.956 . S
C4 C6 1.348 . S
C4 C7 1.356 . S
C4 O60 1.325 . S
N5 C8 1.314 . S
N5 C9 1.279 . S
C6 C4 1.348 . S
C6 C8 1.353 . S
C6 H64 0.929 . S
C7 C4 1.356 . S
C7 C9 1.358 . S
C7 H65 0.930 . S
C8 N5 1.314 . S
C8 C6 1.353 . S
C8 H66 0.930 . S
C9 N5 1.279 . S
C9 C7 1.358 . S
C9 H67 0.930 . S
C10 C13 1.348 . S
C10 C14 1.356 . S
C10 O61 1.325 . S
C11 N12 1.279 . S
C11 C14 1.358 . S
C11 H68 0.930 . S
N12 C11 1.279 . S
N12 C15 1.314 . S
C13 C10 1.348 . S
C13 C15 1.353 . S
C13 H69 0.929 . S
C14 C10 1.356 . S
C14 C11 1.358 . S
C14 H70 0.930 . S
C15 N12 1.314 . S
C15 C13 1.353 . S
C15 H71 0.930 . S
C16 N17 1.314 . S
C16 C21 1.353 . S
C16 H22 0.930 . S
N17 Li0 1.990 . S
N17 C16 1.314 . S
N17 C19 1.279 . S
C18 C19 1.358 . S
C18 C20 1.356 . S
C18 H72 0.930 . S
C19 N17 1.279 . S
C19 C18 1.358 . S
C19 H23 0.930 . S
C20 C18 1.356 . S
C20 C21 1.348 . S
C21 C16 1.353 . S
C21 C20 1.348 . S
C21 H73 0.929 . S
H22 C16 0.930 . S
H23 C19 0.930 . S
C24 N25 1.314 . S
C24 C26 1.353 . S
C24 H30 0.930 . S
N25 Li1 1.990 . S
N25 C24 1.314 . S
N25 C28 1.279 . S
C26 C24 1.353 . S
C26 C29 1.348 . S
C26 H74 0.929 . S
C27 C28 1.358 . S
C27 C29 1.356 . S
C27 H75 0.930 . S
C28 N25 1.279 . S
C28 C27 1.358 . S
C28 H31 0.930 . S
C29 C26 1.348 . S
C29 C27 1.356 . S
H30 C24 0.930 . S
H31 C28 0.930 . S
C32 C34 1.348 . S
C32 C35 1.356 . S
C32 O62 1.325 . S
N33 C36 1.314 . S
N33 C37 1.279 . S
C34 C32 1.348 . S
C34 C36 1.353 . S
C34 H76 0.929 . S
C35 C32 1.356 . S
C35 C37 1.358 . S
C35 H77 0.930 . S
C36 N33 1.314 . S
C36 C34 1.353 . S
C36 H78 0.930 . S
C37 N33 1.279 . S
C37 C35 1.358 . S
C37 H79 0.930 . S
C38 C39 1.348 . S
C38 C40 1.356 . S
C38 O63 1.325 . S
C39 C38 1.348 . S
C39 C41 1.353 . S
C39 H80 0.929 . S
C40 C38 1.356 . S
C40 C42 1.358 . S
C40 H81 0.930 . S
C41 C39 1.353 . S
C41 N43 1.314 . S
C41 H82 0.930 . S
C42 C40 1.358 . S
C42 N43 1.279 . S
C42 H83 0.930 . S
N43 C41 1.314 . S
N43 C42 1.279 . S
C44 C46 1.353 . S
C44 N47 1.314 . S
C44 H50 0.930 . S
C45 N47 1.279 . S
C45 C48 1.358 . S
C45 H51 0.930 . S
C46 C44 1.353 . S
C46 C49 1.348 . S
C46 H84 0.929 . S
N47 Li2 1.990 . S
N47 C44 1.314 . S
N47 C45 1.279 . S
C48 C45 1.358 . S
C48 C49 1.356 . S
C48 H85 0.930 . S
C49 C46 1.348 . S
C49 C48 1.356 . S
H50 C44 0.930 . S
H51 C45 0.930 . S
C52 N53 1.314 . S
C52 C54 1.353 . S
C52 H58 0.930 . S
N53 Li3 1.990 . S
N53 C52 1.314 . S
N53 C56 1.279 . S
C54 C52 1.353 . S
C54 C57 1.348 . S
C54 H86 0.929 . S
C55 C56 1.358 . S
C55 C57 1.356 . S
C55 H87 0.930 . S
C56 N53 1.279 . S
C56 C55 1.358 . S
C56 H59 0.930 . S
C57 C54 1.348 . S
C57 C55 1.356 . S
H58 C52 0.930 . S
H59 C56 0.930 . S
O60 Li0 1.956 . S
O60 Li1 1.970 . S
O60 Li2 1.961 . S
O60 C4 1.325 . S
O61 Li0 1.970 . S
O61 Li1 1.956 . S
O61 Li3 1.961 . S
O61 C10 1.325 . S
O62 Li0 1.961 . S
O62 Li2 1.956 . S
O62 Li3 1.970 . S
O62 C32 1.325 . S
O63 Li1 1.961 . S
O63 Li2 1.970 . S
O63 Li3 1.956 . S
O63 C38 1.325 . S
H64 C6 0.929 . S
H65 C7 0.930 . S
H66 C8 0.930 . S
H67 C9 0.930 . S
H68 C11 0.930 . S
H69 C13 0.929 . S
H70 C14 0.930 . S
H71 C15 0.930 . S
H72 C18 0.930 . S
H73 C21 0.929 . S
H74 C26 0.929 . S
H75 C27 0.930 . S
H76 C34 0.929 . S
H77 C35 0.930 . S
H78 C36 0.930 . S
H79 C37 0.930 . S
H80 C39 0.929 . S
H81 C40 0.930 . S
H82 C41 0.930 . S
H83 C42 0.930 . S
H84 C46 0.929 . S
H85 C48 0.930 . S
H86 C54 0.929 . S
H87 C55 0.930 . S
Li88 N105 1.990 . S
Li88 O148 1.956 . S
Li88 O149 1.970 . S
Li88 O150 1.961 . S
Li89 N113 1.990 . S
Li89 O148 1.970 . S
Li89 O149 1.956 . S
Li89 O151 1.961 . S
Li90 N135 1.990 . S
Li90 O148 1.961 . S
Li90 O150 1.956 . S
Li90 O151 1.970 . S
Li91 N141 1.990 . S
Li91 O149 1.961 . S
Li91 O150 1.970 . S
Li91 O151 1.956 . S
C92 C94 1.348 . S
C92 C95 1.356 . S
C92 O148 1.325 . S
N93 C96 1.314 . S
N93 C97 1.279 . S
C94 C92 1.348 . S
C94 C96 1.353 . S
C94 H152 0.929 . S
C95 C92 1.356 . S
C95 C97 1.358 . S
C95 H153 0.930 . S
C96 N93 1.314 . S
C96 C94 1.353 . S
C96 H154 0.930 . S
C97 N93 1.279 . S
C97 C95 1.358 . S
C97 H155 0.930 . S
C98 C101 1.348 . S
C98 C102 1.356 . S
C98 O149 1.325 . S
C99 N100 1.279 . S
C99 C102 1.358 . S
C99 H156 0.930 . S
N100 C99 1.279 . S
N100 C103 1.314 . S
C101 C98 1.348 . S
C101 C103 1.353 . S
C101 H157 0.929 . S
C102 C98 1.356 . S
C102 C99 1.358 . S
C102 H158 0.930 . S
C103 N100 1.314 . S
C103 C101 1.353 . S
C103 H159 0.930 . S
C104 N105 1.314 . S
C104 C109 1.353 . S
C104 H110 0.930 . S
N105 Li88 1.990 . S
N105 C104 1.314 . S
N105 C107 1.279 . S
C106 C107 1.358 . S
C106 C108 1.356 . S
C106 H160 0.930 . S
C107 N105 1.279 . S
C107 C106 1.358 . S
C107 H111 0.930 . S
C108 C106 1.356 . S
C108 C109 1.348 . S
C109 C104 1.353 . S
C109 C108 1.348 . S
C109 H161 0.929 . S
H110 C104 0.930 . S
H111 C107 0.930 . S
C112 N113 1.314 . S
C112 C114 1.353 . S
C112 H118 0.930 . S
N113 Li89 1.990 . S
N113 C112 1.314 . S
N113 C116 1.279 . S
C114 C112 1.353 . S
C114 C117 1.348 . S
C114 H162 0.929 . S
C115 C116 1.358 . S
C115 C117 1.356 . S
C115 H163 0.930 . S
C116 N113 1.279 . S
C116 C115 1.358 . S
C116 H119 0.930 . S
C117 C114 1.348 . S
C117 C115 1.356 . S
H118 C112 0.930 . S
H119 C116 0.930 . S
C120 C122 1.348 . S
C120 C123 1.356 . S
C120 O150 1.325 . S
N121 C124 1.314 . S
N121 C125 1.279 . S
C122 C120 1.348 . S
C122 C124 1.353 . S
C122 H164 0.929 . S
C123 C120 1.356 . S
C123 C125 1.358 . S
C123 H165 0.930 . S
C124 N121 1.314 . S
C124 C122 1.353 . S
C124 H166 0.930 . S
C125 N121 1.279 . S
C125 C123 1.358 . S
C125 H167 0.930 . S
C126 C127 1.348 . S
C126 C128 1.356 . S
C126 O151 1.325 . S
C127 C126 1.348 . S
C127 C129 1.353 . S
C127 H168 0.929 . S
C128 C126 1.356 . S
C128 C130 1.358 . S
C128 H169 0.930 . S
C129 C127 1.353 . S
C129 N131 1.314 . S
C129 H170 0.930 . S
C130 C128 1.358 . S
C130 N131 1.279 . S
C130 H171 0.930 . S
N131 C129 1.314 . S
N131 C130 1.279 . S
C132 C134 1.353 . S
C132 N135 1.314 . S
C132 H138 0.930 . S
C133 N135 1.279 . S
C133 C136 1.358 . S
C133 H139 0.930 . S
C134 C132 1.353 . S
C134 C137 1.348 . S
C134 H172 0.929 . S
N135 Li90 1.990 . S
N135 C132 1.314 . S
N135 C133 1.279 . S
C136 C133 1.358 . S
C136 C137 1.356 . S
C136 H173 0.930 . S
C137 C134 1.348 . S
C137 C136 1.356 . S
H138 C132 0.930 . S
H139 C133 0.930 . S
C140 N141 1.314 . S
C140 C142 1.353 . S
C140 H146 0.930 . S
N141 Li91 1.990 . S
N141 C140 1.314 . S
N141 C144 1.279 . S
C142 C140 1.353 . S
C142 C145 1.348 . S
C142 H174 0.929 . S
C143 C144 1.358 . S
C143 C145 1.356 . S
C143 H175 0.930 . S
C144 N141 1.279 . S
C144 C143 1.358 . S
C144 H147 0.930 . S
C145 C142 1.348 . S
C145 C143 1.356 . S
H146 C140 0.930 . S
H147 C144 0.930 . S
O148 Li88 1.956 . S
O148 Li89 1.970 . S
O148 Li90 1.961 . S
O148 C92 1.325 . S
O149 Li88 1.970 . S
O149 Li89 1.956 . S
O149 Li91 1.961 . S
O149 C98 1.325 . S
O150 Li88 1.961 . S
O150 Li90 1.956 . S
O150 Li91 1.970 . S
O150 C120 1.325 . S
O151 Li89 1.961 . S
O151 Li90 1.970 . S
O151 Li91 1.956 . S
O151 C126 1.325 . S
H152 C94 0.929 . S
H153 C95 0.930 . S
H154 C96 0.930 . S
H155 C97 0.930 . S
H156 C99 0.930 . S
H157 C101 0.929 . S
H158 C102 0.930 . S
H159 C103 0.930 . S
H160 C106 0.930 . S
H161 C109 0.929 . S
H162 C114 0.929 . S
H163 C115 0.930 . S
H164 C122 0.929 . S
H165 C123 0.930 . S
H166 C124 0.930 . S
H167 C125 0.930 . S
H168 C127 0.929 . S
H169 C128 0.930 . S
H170 C129 0.930 . S
H171 C130 0.930 . S
H172 C134 0.929 . S
H173 C136 0.930 . S
H174 C142 0.929 . S
H175 C143 0.930 . S
Li176 N193 1.990 . S
Li176 O236 1.956 . S
Li176 O237 1.970 . S
Li176 O238 1.961 . S
Li177 N201 1.990 . S
Li177 O236 1.970 . S
Li177 O237 1.956 . S
Li177 O239 1.961 . S
Li178 N223 1.990 . S
Li178 O236 1.961 . S
Li178 O238 1.956 . S
Li178 O239 1.970 . S
Li179 N229 1.990 . S
Li179 O237 1.961 . S
Li179 O238 1.970 . S
Li179 O239 1.956 . S
C180 C182 1.348 . S
C180 C183 1.356 . S
C180 O236 1.325 . S
N181 C184 1.314 . S
N181 C185 1.279 . S
C182 C180 1.348 . S
C182 C184 1.353 . S
C182 H240 0.929 . S
C183 C180 1.356 . S
C183 C185 1.358 . S
C183 H241 0.930 . S
C184 N181 1.314 . S
C184 C182 1.353 . S
C184 H242 0.930 . S
C185 N181 1.279 . S
C185 C183 1.358 . S
C185 H243 0.930 . S
C186 C189 1.348 . S
C186 C190 1.356 . S
C186 O237 1.325 . S
C187 N188 1.279 . S
C187 C190 1.358 . S
C187 H244 0.930 . S
N188 C187 1.279 . S
N188 C191 1.314 . S
C189 C186 1.348 . S
C189 C191 1.353 . S
C189 H245 0.929 . S
C190 C186 1.356 . S
C190 C187 1.358 . S
C190 H246 0.930 . S
C191 N188 1.314 . S
C191 C189 1.353 . S
C191 H247 0.930 . S
C192 N193 1.314 . S
C192 C197 1.353 . S
C192 H198 0.930 . S
N193 Li176 1.990 . S
N193 C192 1.314 . S
N193 C195 1.279 . S
C194 C195 1.358 . S
C194 C196 1.356 . S
C194 H248 0.930 . S
C195 N193 1.279 . S
C195 C194 1.358 . S
C195 H199 0.930 . S
C196 C194 1.356 . S
C196 C197 1.348 . S
C197 C192 1.353 . S
C197 C196 1.348 . S
C197 H249 0.929 . S
H198 C192 0.930 . S
H199 C195 0.930 . S
C200 N201 1.314 . S
C200 C202 1.353 . S
C200 H206 0.930 . S
N201 Li177 1.990 . S
N201 C200 1.314 . S
N201 C204 1.279 . S
C202 C200 1.353 . S
C202 C205 1.348 . S
C202 H250 0.929 1_655 S
C203 C204 1.358 . S
C203 C205 1.356 . S
C203 H251 0.930 . S
C204 N201 1.279 . S
C204 C203 1.358 . S
C204 H207 0.930 . S
C205 C202 1.348 . S
C205 C203 1.356 . S
H206 C200 0.930 . S
H207 C204 0.930 . S
C208 C210 1.348 . S
C208 C211 1.356 . S
C208 O238 1.325 . S
N209 C212 1.314 . S
N209 C213 1.279 . S
C210 C208 1.348 . S
C210 C212 1.353 . S
C210 H252 0.929 . S
C211 C208 1.356 . S
C211 C213 1.358 . S
C211 H253 0.930 . S
C212 N209 1.314 . S
C212 C210 1.353 . S
C212 H254 0.930 . S
C213 N209 1.279 . S
C213 C211 1.358 . S
C213 H255 0.930 . S
C214 C215 1.348 . S
C214 C216 1.356 . S
C214 O239 1.325 . S
C215 C214 1.348 . S
C215 C217 1.353 . S
C215 H256 0.929 . S
C216 C214 1.356 . S
C216 C218 1.358 . S
C216 H257 0.930 . S
C217 C215 1.353 . S
C217 N219 1.314 . S
C217 H258 0.930 . S
C218 C216 1.358 . S
C218 N219 1.279 . S
C218 H259 0.930 . S
N219 C217 1.314 . S
N219 C218 1.279 . S
C220 C222 1.353 . S
C220 N223 1.314 . S
C220 H226 0.930 . S
C221 N223 1.279 . S
C221 C224 1.358 . S
C221 H227 0.930 . S
C222 C220 1.353 . S
C222 C225 1.348 . S
C222 H260 0.929 1_655 S
N223 Li178 1.990 . S
N223 C220 1.314 . S
N223 C221 1.279 . S
C224 C221 1.358 . S
C224 C225 1.356 . S
C224 H261 0.930 . S
C225 C222 1.348 . S
C225 C224 1.356 . S
H226 C220 0.930 . S
H227 C221 0.930 . S
C228 N229 1.314 . S
C228 C230 1.353 . S
C228 H234 0.930 . S
N229 Li179 1.990 . S
N229 C228 1.314 . S
N229 C232 1.279 . S
C230 C228 1.353 . S
C230 C233 1.348 . S
C230 H262 0.929 . S
C231 C232 1.358 . S
C231 C233 1.356 . S
C231 H263 0.930 . S
C232 N229 1.279 . S
C232 C231 1.358 . S
C232 H235 0.930 . S
C233 C230 1.348 . S
C233 C231 1.356 . S
H234 C228 0.930 . S
H235 C232 0.930 . S
O236 Li176 1.956 . S
O236 Li177 1.970 . S
O236 Li178 1.961 . S
O236 C180 1.325 . S
O237 Li176 1.970 . S
O237 Li177 1.956 . S
O237 Li179 1.961 . S
O237 C186 1.325 . S
O238 Li176 1.961 . S
O238 Li178 1.956 . S
O238 Li179 1.970 . S
O238 C208 1.325 . S
O239 Li177 1.961 . S
O239 Li178 1.970 . S
O239 Li179 1.956 . S
O239 C214 1.325 . S
H240 C182 0.929 . S
H241 C183 0.930 . S
H242 C184 0.930 . S
H243 C185 0.930 . S
H244 C187 0.930 . S
H245 C189 0.929 . S
H246 C190 0.930 . S
H247 C191 0.930 . S
H248 C194 0.930 . S
H249 C197 0.929 . S
H250 C202 0.929 1_455 S
H251 C203 0.930 . S
H252 C210 0.929 . S
H253 C211 0.930 . S
H254 C212 0.930 . S
H255 C213 0.930 . S
H256 C215 0.929 . S
H257 C216 0.930 . S
H258 C217 0.930 . S
H259 C218 0.930 . S
H260 C222 0.929 1_455 S
H261 C224 0.930 . S
H262 C230 0.929 . S
H263 C231 0.930 . S
Li264 N281 1.990 . S
Li264 O324 1.956 . S
Li264 O325 1.970 . S
Li264 O326 1.961 . S
Li265 N289 1.990 . S
Li265 O324 1.970 . S
Li265 O325 1.956 . S
Li265 O327 1.961 . S
Li266 N311 1.990 . S
Li266 O324 1.961 . S
Li266 O326 1.956 . S
Li266 O327 1.970 . S
Li267 N317 1.990 . S
Li267 O325 1.961 . S
Li267 O326 1.970 . S
Li267 O327 1.956 . S
C268 C270 1.348 . S
C268 C271 1.356 . S
C268 O324 1.325 . S
N269 C272 1.314 . S
N269 C273 1.279 . S
C270 C268 1.348 . S
C270 C272 1.353 . S
C270 H328 0.929 . S
C271 C268 1.356 . S
C271 C273 1.358 . S
C271 H329 0.930 . S
C272 N269 1.314 . S
C272 C270 1.353 . S
C272 H330 0.930 . S
C273 N269 1.279 . S
C273 C271 1.358 . S
C273 H331 0.930 . S
C274 C277 1.348 . S
C274 C278 1.356 . S
C274 O325 1.325 . S
C275 N276 1.279 . S
C275 C278 1.358 . S
C275 H332 0.930 . S
N276 C275 1.279 . S
N276 C279 1.314 . S
C277 C274 1.348 . S
C277 C279 1.353 . S
C277 H333 0.929 . S
C278 C274 1.356 . S
C278 C275 1.358 . S
C278 H334 0.930 . S
C279 N276 1.314 . S
C279 C277 1.353 . S
C279 H335 0.930 . S
C280 N281 1.314 . S
C280 C285 1.353 . S
C280 H286 0.930 . S
N281 Li264 1.990 . S
N281 C280 1.314 . S
N281 C283 1.279 . S
C282 C283 1.358 . S
C282 C284 1.356 . S
C282 H336 0.930 . S
C283 N281 1.279 . S
C283 C282 1.358 . S
C283 H287 0.930 . S
C284 C282 1.356 . S
C284 C285 1.348 . S
C285 C280 1.353 . S
C285 C284 1.348 . S
C285 H337 0.929 . S
H286 C280 0.930 . S
H287 C283 0.930 . S
C288 N289 1.314 . S
C288 C290 1.353 . S
C288 H294 0.930 . S
N289 Li265 1.990 . S
N289 C288 1.314 . S
N289 C292 1.279 . S
C290 C288 1.353 . S
C290 C293 1.348 . S
C290 H338 0.929 . S
C291 C292 1.358 . S
C291 C293 1.356 . S
C291 H339 0.930 . S
C292 N289 1.279 . S
C292 C291 1.358 . S
C292 H295 0.930 . S
C293 C290 1.348 . S
C293 C291 1.356 . S
H294 C288 0.930 . S
H295 C292 0.930 . S
C296 C298 1.348 . S
C296 C299 1.356 . S
C296 O326 1.325 . S
N297 C300 1.314 . S
N297 C301 1.279 . S
C298 C296 1.348 . S
C298 C300 1.353 . S
C298 H340 0.929 . S
C299 C296 1.356 . S
C299 C301 1.358 . S
C299 H341 0.930 . S
C300 N297 1.314 . S
C300 C298 1.353 . S
C300 H342 0.930 . S
C301 N297 1.279 . S
C301 C299 1.358 . S
C301 H343 0.930 . S
C302 C303 1.348 . S
C302 C304 1.356 . S
C302 O327 1.325 . S
C303 C302 1.348 . S
C303 C305 1.353 . S
C303 H344 0.929 . S
C304 C302 1.356 . S
C304 C306 1.358 . S
C304 H345 0.930 . S
C305 C303 1.353 . S
C305 N307 1.314 . S
C305 H346 0.930 . S
C306 C304 1.358 . S
C306 N307 1.279 . S
C306 H347 0.930 . S
N307 C305 1.314 . S
N307 C306 1.279 . S
C308 C310 1.353 . S
C308 N311 1.314 . S
C308 H314 0.930 . S
C309 N311 1.279 . S
C309 C312 1.358 . S
C309 H315 0.930 . S
C310 C308 1.353 . S
C310 C313 1.348 . S
C310 H348 0.929 . S
N311 Li266 1.990 . S
N311 C308 1.314 . S
N311 C309 1.279 . S
C312 C309 1.358 . S
C312 C313 1.356 . S
C312 H349 0.930 . S
C313 C310 1.348 . S
C313 C312 1.356 . S
H314 C308 0.930 . S
H315 C309 0.930 . S
C316 N317 1.314 . S
C316 C318 1.353 . S
C316 H322 0.930 . S
N317 Li267 1.990 . S
N317 C316 1.314 . S
N317 C320 1.279 . S
C318 C316 1.353 . S
C318 C321 1.348 . S
C318 H350 0.929 . S
C319 C320 1.358 . S
C319 C321 1.356 . S
C319 H351 0.930 . S
C320 N317 1.279 . S
C320 C319 1.358 . S
C320 H323 0.930 . S
C321 C318 1.348 . S
C321 C319 1.356 . S
H322 C316 0.930 . S
H323 C320 0.930 . S
O324 Li264 1.956 . S
O324 Li265 1.970 . S
O324 Li266 1.961 . S
O324 C268 1.325 . S
O325 Li264 1.970 . S
O325 Li265 1.956 . S
O325 Li267 1.961 . S
O325 C274 1.325 . S
O326 Li264 1.961 . S
O326 Li266 1.956 . S
O326 Li267 1.970 . S
O326 C296 1.325 . S
O327 Li265 1.961 . S
O327 Li266 1.970 . S
O327 Li267 1.956 . S
O327 C302 1.325 . S
H328 C270 0.929 . S
H329 C271 0.930 . S
H330 C272 0.930 . S
H331 C273 0.930 . S
H332 C275 0.930 . S
H333 C277 0.929 . S
H334 C278 0.930 . S
H335 C279 0.930 . S
H336 C282 0.930 . S
H337 C285 0.929 . S
H338 C290 0.929 . S
H339 C291 0.930 . S
H340 C298 0.929 . S
H341 C299 0.930 . S
H342 C300 0.930 . S
H343 C301 0.930 . S
H344 C303 0.929 . S
H345 C304 0.930 . S
H346 C305 0.930 . S
H347 C306 0.930 . S
H348 C310 0.929 . S
H349 C312 0.930 . S
H350 C318 0.929 . S
H351 C319 0.930 . S
Li352 N369 1.990 . S
Li352 O412 1.956 . S
Li352 O413 1.970 . S
Li352 O414 1.961 . S
Li353 N377 1.990 . S
Li353 O412 1.970 . S
Li353 O413 1.956 . S
Li353 O415 1.961 . S
Li354 N399 1.990 . S
Li354 O412 1.961 . S
Li354 O414 1.956 . S
Li354 O415 1.970 . S
Li355 N405 1.990 . S
Li355 O413 1.961 . S
Li355 O414 1.970 . S
Li355 O415 1.956 . S
C356 C358 1.348 . S
C356 C359 1.356 . S
C356 O412 1.325 . S
N357 C360 1.314 . S
N357 C361 1.279 . S
C358 C356 1.348 . S
C358 C360 1.353 . S
C358 H416 0.929 . S
C359 C356 1.356 . S
C359 C361 1.358 . S
C359 H417 0.930 . S
C360 N357 1.314 . S
C360 C358 1.353 . S
C360 H418 0.930 . S
C361 N357 1.279 . S
C361 C359 1.358 . S
C361 H419 0.930 . S
C362 C365 1.348 . S
C362 C366 1.356 . S
C362 O413 1.325 . S
C363 N364 1.279 . S
C363 C366 1.358 . S
C363 H420 0.930 . S
N364 C363 1.279 . S
N364 C367 1.314 . S
C365 C362 1.348 . S
C365 C367 1.353 . S
C365 H421 0.929 . S
C366 C362 1.356 . S
C366 C363 1.358 . S
C366 H422 0.930 . S
C367 N364 1.314 . S
C367 C365 1.353 . S
C367 H423 0.930 . S
C368 N369 1.314 . S
C368 C373 1.353 . S
C368 H374 0.930 . S
N369 Li352 1.990 . S
N369 C368 1.314 . S
N369 C371 1.279 . S
C370 C371 1.358 . S
C370 C372 1.356 . S
C370 H424 0.930 . S
C371 N369 1.279 . S
C371 C370 1.358 . S
C371 H375 0.930 . S
C372 C370 1.356 . S
C372 C373 1.348 . S
C373 C368 1.353 . S
C373 C372 1.348 . S
C373 H425 0.929 . S
H374 C368 0.930 . S
H375 C371 0.930 . S
C376 N377 1.314 . S
C376 C378 1.353 . S
C376 H382 0.930 . S
N377 Li353 1.990 . S
N377 C376 1.314 . S
N377 C380 1.279 . S
C378 C376 1.353 . S
C378 C381 1.348 . S
C378 H426 0.929 . S
C379 C380 1.358 . S
C379 C381 1.356 . S
C379 H427 0.930 . S
C380 N377 1.279 . S
C380 C379 1.358 . S
C380 H383 0.930 . S
C381 C378 1.348 . S
C381 C379 1.356 . S
H382 C376 0.930 . S
H383 C380 0.930 . S
C384 C386 1.348 . S
C384 C387 1.356 . S
C384 O414 1.325 . S
N385 C388 1.314 . S
N385 C389 1.279 . S
C386 C384 1.348 . S
C386 C388 1.353 . S
C386 H428 0.929 . S
C387 C384 1.356 . S
C387 C389 1.358 . S
C387 H429 0.930 . S
C388 N385 1.314 . S
C388 C386 1.353 . S
C388 H430 0.930 . S
C389 N385 1.279 . S
C389 C387 1.358 . S
C389 H431 0.930 . S
C390 C391 1.348 . S
C390 C392 1.356 . S
C390 O415 1.325 . S
C391 C390 1.348 . S
C391 C393 1.353 . S
C391 H432 0.929 . S
C392 C390 1.356 . S
C392 C394 1.358 . S
C392 H433 0.930 . S
C393 C391 1.353 . S
C393 N395 1.314 . S
C393 H434 0.930 . S
C394 C392 1.358 . S
C394 N395 1.279 . S
C394 H435 0.930 . S
N395 C393 1.314 . S
N395 C394 1.279 . S
C396 C398 1.353 . S
C396 N399 1.314 . S
C396 H402 0.930 . S
C397 N399 1.279 . S
C397 C400 1.358 . S
C397 H403 0.930 . S
C398 C396 1.353 . S
C398 C401 1.348 . S
C398 H436 0.929 . S
N399 Li354 1.990 . S
N399 C396 1.314 . S
N399 C397 1.279 . S
C400 C397 1.358 . S
C400 C401 1.356 . S
C400 H437 0.930 . S
C401 C398 1.348 . S
C401 C400 1.356 . S
H402 C396 0.930 . S
H403 C397 0.930 . S
C404 N405 1.314 . S
C404 C406 1.353 . S
C404 H410 0.930 . S
N405 Li355 1.990 . S
N405 C404 1.314 . S
N405 C408 1.279 . S
C406 C404 1.353 . S
C406 C409 1.348 . S
C406 H438 0.929 . S
C407 C408 1.358 . S
C407 C409 1.356 . S
C407 H439 0.930 . S
C408 N405 1.279 . S
C408 C407 1.358 . S
C408 H411 0.930 . S
C409 C406 1.348 . S
C409 C407 1.356 . S
H410 C404 0.930 . S
H411 C408 0.930 . S
O412 Li352 1.956 . S
O412 Li353 1.970 . S
O412 Li354 1.961 . S
O412 C356 1.325 . S
O413 Li352 1.970 . S
O413 Li353 1.956 . S
O413 Li355 1.961 . S
O413 C362 1.325 . S
O414 Li352 1.961 . S
O414 Li354 1.956 . S
O414 Li355 1.970 . S
O414 C384 1.325 . S
O415 Li353 1.961 . S
O415 Li354 1.970 . S
O415 Li355 1.956 . S
O415 C390 1.325 . S
H416 C358 0.929 . S
H417 C359 0.930 . S
H418 C360 0.930 . S
H419 C361 0.930 . S
H420 C363 0.930 . S
H421 C365 0.929 . S
H422 C366 0.930 . S
H423 C367 0.930 . S
H424 C370 0.930 . S
H425 C373 0.929 . S
H426 C378 0.929 . S
H427 C379 0.930 . S
H428 C386 0.929 . S
H429 C387 0.930 . S
H430 C388 0.930 . S
H431 C389 0.930 . S
H432 C391 0.929 . S
H433 C392 0.930 . S
H434 C393 0.930 . S
H435 C394 0.930 . S
H436 C398 0.929 . S
H437 C400 0.930 . S
H438 C406 0.929 . S
H439 C407 0.930 . S
Li440 N457 1.990 . S
Li440 O500 1.956 . S
Li440 O501 1.970 . S
Li440 O502 1.961 . S
Li441 N465 1.990 . S
Li441 O500 1.970 . S
Li441 O501 1.956 . S
Li441 O503 1.961 . S
Li442 N487 1.990 . S
Li442 O500 1.961 . S
Li442 O502 1.956 . S
Li442 O503 1.970 . S
Li443 N493 1.990 . S
Li443 O501 1.961 . S
Li443 O502 1.970 . S
Li443 O503 1.956 . S
C444 C446 1.348 . S
C444 C447 1.356 . S
C444 O500 1.325 . S
N445 C448 1.314 . S
N445 C449 1.279 . S
C446 C444 1.348 . S
C446 C448 1.353 . S
C446 H504 0.929 . S
C447 C444 1.356 . S
C447 C449 1.358 . S
C447 H505 0.930 . S
C448 N445 1.314 . S
C448 C446 1.353 . S
C448 H506 0.930 . S
C449 N445 1.279 . S
C449 C447 1.358 . S
C449 H507 0.930 . S
C450 C453 1.348 . S
C450 C454 1.356 . S
C450 O501 1.325 . S
C451 N452 1.279 . S
C451 C454 1.358 . S
C451 H508 0.930 . S
N452 C451 1.279 . S
N452 C455 1.314 . S
C453 C450 1.348 . S
C453 C455 1.353 . S
C453 H509 0.929 . S
C454 C450 1.356 . S
C454 C451 1.358 . S
C454 H510 0.930 . S
C455 N452 1.314 . S
C455 C453 1.353 . S
C455 H511 0.930 . S
C456 N457 1.314 . S
C456 C461 1.353 . S
C456 H462 0.930 . S
N457 Li440 1.990 . S
N457 C456 1.314 . S
N457 C459 1.279 . S
C458 C459 1.358 . S
C458 C460 1.356 . S
C458 H512 0.930 . S
C459 N457 1.279 . S
C459 C458 1.358 . S
C459 H463 0.930 . S
C460 C458 1.356 . S
C460 C461 1.348 . S
C461 C456 1.353 . S
C461 C460 1.348 . S
C461 H513 0.929 1_455 S
H462 C456 0.930 . S
H463 C459 0.930 . S
C464 N465 1.314 . S
C464 C466 1.353 . S
C464 H470 0.930 . S
N465 Li441 1.990 . S
N465 C464 1.314 . S
N465 C468 1.279 . S
C466 C464 1.353 . S
C466 C469 1.348 . S
C466 H514 0.929 . S
C467 C468 1.358 . S
C467 C469 1.356 . S
C467 H515 0.930 . S
C468 N465 1.279 . S
C468 C467 1.358 . S
C468 H471 0.930 . S
C469 C466 1.348 . S
C469 C467 1.356 . S
H470 C464 0.930 . S
H471 C468 0.930 . S
C472 C474 1.348 . S
C472 C475 1.356 . S
C472 O502 1.325 . S
N473 C476 1.314 . S
N473 C477 1.279 . S
C474 C472 1.348 . S
C474 C476 1.353 . S
C474 H516 0.929 . S
C475 C472 1.356 . S
C475 C477 1.358 . S
C475 H517 0.930 . S
C476 N473 1.314 . S
C476 C474 1.353 . S
C476 H518 0.930 . S
C477 N473 1.279 . S
C477 C475 1.358 . S
C477 H519 0.930 . S
C478 C479 1.348 . S
C478 C480 1.356 . S
C478 O503 1.325 . S
C479 C478 1.348 . S
C479 C481 1.353 . S
C479 H520 0.929 . S
C480 C478 1.356 . S
C480 C482 1.358 . S
C480 H521 0.930 . S
C481 C479 1.353 . S
C481 N483 1.314 . S
C481 H522 0.930 . S
C482 C480 1.358 . S
C482 N483 1.279 . S
C482 H523 0.930 . S
N483 C481 1.314 . S
N483 C482 1.279 . S
C484 C486 1.353 . S
C484 N487 1.314 . S
C484 H490 0.930 . S
C485 N487 1.279 . S
C485 C488 1.358 . S
C485 H491 0.930 . S
C486 C484 1.353 . S
C486 C489 1.348 . S
C486 H524 0.929 . S
N487 Li442 1.990 . S
N487 C484 1.314 . S
N487 C485 1.279 . S
C488 C485 1.358 . S
C488 C489 1.356 . S
C488 H525 0.930 . S
C489 C486 1.348 . S
C489 C488 1.356 . S
H490 C484 0.930 . S
H491 C485 0.930 . S
C492 N493 1.314 . S
C492 C494 1.353 . S
C492 H498 0.930 . S
N493 Li443 1.990 . S
N493 C492 1.314 . S
N493 C496 1.279 . S
C494 C492 1.353 . S
C494 C497 1.348 . S
C494 H526 0.929 1_455 S
C495 C496 1.358 . S
C495 C497 1.356 . S
C495 H527 0.930 . S
C496 N493 1.279 . S
C496 C495 1.358 . S
C496 H499 0.930 . S
C497 C494 1.348 . S
C497 C495 1.356 . S
H498 C492 0.930 . S
H499 C496 0.930 . S
O500 Li440 1.956 . S
O500 Li441 1.970 . S
O500 Li442 1.961 . S
O500 C444 1.325 . S
O501 Li440 1.970 . S
O501 Li441 1.956 . S
O501 Li443 1.961 . S
O501 C450 1.325 . S
O502 Li440 1.961 . S
O502 Li442 1.956 . S
O502 Li443 1.970 . S
O502 C472 1.325 . S
O503 Li441 1.961 . S
O503 Li442 1.970 . S
O503 Li443 1.956 . S
O503 C478 1.325 . S
H504 C446 0.929 . S
H505 C447 0.930 . S
H506 C448 0.930 . S
H507 C449 0.930 . S
H508 C451 0.930 . S
H509 C453 0.929 . S
H510 C454 0.930 . S
H511 C455 0.930 . S
H512 C458 0.930 . S
H513 C461 0.929 1_655 S
H514 C466 0.929 . S
H515 C467 0.930 . S
H516 C474 0.929 . S
H517 C475 0.930 . S
H518 C476 0.930 . S
H519 C477 0.930 . S
H520 C479 0.929 . S
H521 C480 0.930 . S
H522 C481 0.930 . S
H523 C482 0.930 . S
H524 C486 0.929 . S
H525 C488 0.930 . S
H526 C494 0.929 1_655 S
H527 C495 0.930 . S
C528 C529 1.363 . S
C528 C534 1.379 . S
C528 N536 1.356 . S
C529 C528 1.363 . S
C529 C535 1.363 . S
C530 C531 1.363 . S
C530 C535 1.379 . S
C530 N537 1.356 . S
C531 C530 1.363 . S
C531 C534 1.363 . S
N532 C534 1.356 . S
N532 H544 0.984 . S
N532 H545 0.985 . S
N533 C535 1.356 . S
N533 H538 0.984 . S
N533 H539 0.985 . S
C534 C528 1.379 . S
C534 C531 1.363 . S
C534 N532 1.356 . S
C535 C529 1.363 . S
C535 C530 1.379 . S
C535 N533 1.356 . S
N536 C528 1.356 . S
N536 H542 0.984 . S
N536 H543 0.984 . S
N537 C530 1.356 . S
N537 H540 0.984 . S
N537 H541 0.985 . S
H538 N533 0.984 . S
H539 N533 0.985 . S
H540 N537 0.984 . S
H541 N537 0.985 . S
H542 N536 0.984 . S
H543 N536 0.984 . S
H544 N532 0.984 . S
H545 N532 0.985 . S
C546 C547 1.363 . S
C546 C552 1.379 . S
C546 N554 1.356 . S
C547 C546 1.363 . S
C547 C553 1.363 . S
C548 C549 1.363 . S
C548 C553 1.379 . S
C548 N555 1.356 . S
C549 C548 1.363 . S
C549 C552 1.363 . S
N550 C552 1.356 . S
N550 H562 0.984 . S
N550 H563 0.985 . S
N551 C553 1.356 . S
N551 H556 0.984 . S
N551 H557 0.985 . S
C552 C546 1.379 . S
C552 C549 1.363 . S
C552 N550 1.356 . S
C553 C547 1.363 . S
C553 C548 1.379 . S
C553 N551 1.356 . S
N554 C546 1.356 . S
N554 H560 0.984 . S
N554 H561 0.984 . S
N555 C548 1.356 . S
N555 H558 0.984 . S
N555 H559 0.985 . S
H556 N551 0.984 . S
H557 N551 0.985 . S
H558 N555 0.984 . S
H559 N555 0.985 . S
H560 N554 0.984 . S
H561 N554 0.984 . S
H562 N550 0.984 . S
H563 N550 0.985 . S
C564 C565 1.363 . S
C564 C570 1.379 . S
C564 N572 1.356 . S
C565 C564 1.363 . S
C565 C571 1.363 . S
C566 C567 1.363 . S
C566 C571 1.379 . S
C566 N573 1.356 . S
C567 C566 1.363 . S
C567 C570 1.363 . S
N568 C570 1.356 . S
N568 H580 0.984 . S
N568 H581 0.985 . S
N569 C571 1.356 . S
N569 H574 0.984 . S
N569 H575 0.985 . S
C570 C564 1.379 . S
C570 C567 1.363 . S
C570 N568 1.356 . S
C571 C565 1.363 . S
C571 C566 1.379 . S
C571 N569 1.356 . S
N572 C564 1.356 . S
N572 H578 0.984 . S
N572 H579 0.984 . S
N573 C566 1.356 . S
N573 H576 0.984 . S
N573 H577 0.985 . S
H574 N569 0.984 . S
H575 N569 0.985 . S
H576 N573 0.984 . S
H577 N573 0.985 . S
H578 N572 0.984 . S
H579 N572 0.984 . S
H580 N568 0.984 . S
H581 N568 0.985 . S
C582 C583 1.363 . S
C582 C588 1.379 . S
C582 N590 1.356 . S
C583 C582 1.363 . S
C583 C589 1.363 . S
C584 C585 1.363 . S
C584 C589 1.379 . S
C584 N591 1.356 . S
C585 C584 1.363 . S
C585 C588 1.363 . S
N586 C588 1.356 . S
N586 H598 0.984 . S
N586 H599 0.985 . S
N587 C589 1.356 . S
N587 H592 0.984 . S
N587 H593 0.985 . S
C588 C582 1.379 . S
C588 C585 1.363 . S
C588 N586 1.356 . S
C589 C583 1.363 . S
C589 C584 1.379 . S
C589 N587 1.356 . S
N590 C582 1.356 . S
N590 H596 0.984 . S
N590 H597 0.984 . S
N591 C584 1.356 . S
N591 H594 0.984 . S
N591 H595 0.985 . S
H592 N587 0.984 . S
H593 N587 0.985 . S
H594 N591 0.984 . S
H595 N591 0.985 . S
H596 N590 0.984 . S
H597 N590 0.984 . S
H598 N586 0.984 . S
H599 N586 0.985 . S
C600 C601 1.363 . S
C600 C606 1.379 . S
C600 N608 1.356 . S
C601 C600 1.363 . S
C601 C607 1.363 . S
C602 C603 1.363 . S
C602 C607 1.379 . S
C602 N609 1.356 . S
C603 C602 1.363 . S
C603 C606 1.363 . S
N604 C606 1.356 . S
N604 H616 0.984 . S
N604 H617 0.985 . S
N605 C607 1.356 . S
N605 H610 0.984 . S
N605 H611 0.985 . S
C606 C600 1.379 . S
C606 C603 1.363 . S
C606 N604 1.356 . S
C607 C601 1.363 . S
C607 C602 1.379 . S
C607 N605 1.356 . S
N608 C600 1.356 . S
N608 H614 0.984 . S
N608 H615 0.984 . S
N609 C602 1.356 . S
N609 H612 0.984 . S
N609 H613 0.985 . S
H610 N605 0.984 . S
H611 N605 0.985 . S
H612 N609 0.984 . S
H613 N609 0.985 . S
H614 N608 0.984 . S
H615 N608 0.984 . S
H616 N604 0.984 . S
H617 N604 0.985 . S
C618 C619 1.363 . S
C618 C624 1.379 . S
C618 N626 1.356 . S
C619 C618 1.363 . S
C619 C625 1.363 . S
C620 C621 1.363 . S
C620 C625 1.379 . S
C620 N627 1.356 . S
C621 C620 1.363 . S
C621 C624 1.363 . S
N622 C624 1.356 . S
N622 H634 0.984 . S
N622 H635 0.985 . S
N623 C625 1.356 . S
N623 H628 0.984 . S
N623 H629 0.985 . S
C624 C618 1.379 . S
C624 C621 1.363 . S
C624 N622 1.356 . S
C625 C619 1.363 . S
C625 C620 1.379 . S
C625 N623 1.356 . S
N626 C618 1.356 . S
N626 H632 0.984 . S
N626 H633 0.984 . S
N627 C620 1.356 . S
N627 H630 0.984 . S
N627 H631 0.985 . S
H628 N623 0.984 . S
H629 N623 0.985 . S
H630 N627 0.984 . S
H631 N627 0.985 . S
H632 N626 0.984 . S
H633 N626 0.984 . S
H634 N622 0.984 . S
H635 N622 0.985 . S
C636 C637 1.363 1_545 S
C636 C642 1.379 1_556 S
C636 N644 1.356 . S
C637 C636 1.363 1_565 S
C637 C643 1.363 . S
C638 C639 1.363 1_565 S
C638 C643 1.379 1_554 S
C638 N645 1.356 . S
C639 C638 1.363 1_545 S
C639 C642 1.363 . S
N640 C642 1.356 . S
N640 H652 0.984 . S
N640 H653 0.985 . S
N641 C643 1.356 . S
N641 H646 0.984 . S
N641 H647 0.985 . S
C642 C636 1.379 1_554 S
C642 C639 1.363 . S
C642 N640 1.356 . S
C643 C637 1.363 . S
C643 C638 1.379 1_556 S
C643 N641 1.356 . S
N644 C636 1.356 . S
N644 H650 0.984 . S
N644 H651 0.984 . S
N645 C638 1.356 . S
N645 H648 0.984 . S
N645 H649 0.985 . S
H646 N641 0.984 . S
H647 N641 0.985 . S
H648 N645 0.984 . S
H649 N645 0.985 . S
H650 N644 0.984 . S
H651 N644 0.984 . S
H652 N640 0.984 . S
H653 N640 0.985 . S
C654 C655 1.363 . S
C654 C660 1.379 . S
C654 N662 1.356 . S
C655 C654 1.363 . S
C655 C661 1.363 . S
C656 C657 1.363 . S
C656 C661 1.379 . S
C656 N663 1.356 . S
C657 C656 1.363 . S
C657 C660 1.363 . S
N658 C660 1.356 . S
N658 H670 0.984 . S
N658 H671 0.985 . S
N659 C661 1.356 . S
N659 H664 0.984 . S
N659 H665 0.985 . S
C660 C654 1.379 . S
C660 C657 1.363 . S
C660 N658 1.356 . S
C661 C655 1.363 . S
C661 C656 1.379 . S
C661 N659 1.356 . S
N662 C654 1.356 . S
N662 H668 0.984 . S
N662 H669 0.984 . S
N663 C656 1.356 . S
N663 H666 0.984 . S
N663 H667 0.985 . S
H664 N659 0.984 . S
H665 N659 0.985 . S
H666 N663 0.984 . S
H667 N663 0.985 . S
H668 N662 0.984 . S
H669 N662 0.984 . S
H670 N658 0.984 . S
H671 N658 0.985 . S
C672 C673 1.363 . S
C672 C678 1.379 1_556 S
C672 N680 1.356 . S
C673 C672 1.363 . S
C673 C679 1.363 1_455 S
C674 C675 1.363 . S
C674 C679 1.379 1_554 S
C674 N681 1.356 . S
C675 C674 1.363 . S
C675 C678 1.363 1_655 S
N676 C678 1.356 . S
N676 H688 0.984 . S
N676 H689 0.985 . S
N677 C679 1.356 . S
N677 H682 0.984 . S
N677 H683 0.985 . S
C678 C672 1.379 1_554 S
C678 C675 1.363 1_455 S
C678 N676 1.356 . S
C679 C673 1.363 1_655 S
C679 C674 1.379 1_556 S
C679 N677 1.356 . S
N680 C672 1.356 . S
N680 H686 0.984 . S
N680 H687 0.984 . S
N681 C674 1.356 . S
N681 H684 0.984 . S
N681 H685 0.985 . S
H682 N677 0.984 . S
H683 N677 0.985 . S
H684 N681 0.984 . S
H685 N681 0.985 . S
H686 N680 0.984 . S
H687 N680 0.984 . S
H688 N676 0.984 . S
H689 N676 0.985 . S
C690 C691 1.363 . S
C690 C696 1.379 . S
C690 N698 1.356 . S
C691 C690 1.363 . S
C691 C697 1.363 1_545 S
C692 C693 1.363 . S
C692 C697 1.379 . S
C692 N699 1.356 . S
C693 C692 1.363 . S
C693 C696 1.363 1_565 S
N694 C696 1.356 . S
N694 H706 0.984 . S
N694 H707 0.985 . S
N695 C697 1.356 . S
N695 H700 0.984 . S
N695 H701 0.985 . S
C696 C690 1.379 . S
C696 C693 1.363 1_545 S
C696 N694 1.356 . S
C697 C691 1.363 1_565 S
C697 C692 1.379 . S
C697 N695 1.356 . S
N698 C690 1.356 . S
N698 H704 0.984 . S
N698 H705 0.984 . S
N699 C692 1.356 . S
N699 H702 0.984 . S
N699 H703 0.985 . S
H700 N695 0.984 . S
H701 N695 0.985 . S
H702 N699 0.984 . S
H703 N699 0.985 . S
H704 N698 0.984 . S
H705 N698 0.984 . S
H706 N694 0.984 . S
H707 N694 0.985 . S
C708 C709 1.363 . S
C708 C714 1.379 1_556 S
C708 N716 1.356 . S
C709 C708 1.363 . S
C709 C715 1.363 . S
C710 C711 1.363 . S
C710 C715 1.379 1_554 S
C710 N717 1.356 . S
C711 C710 1.363 . S
C711 C714 1.363 . S
N712 C714 1.356 . S
N712 H724 0.984 . S
N712 H725 0.985 . S
N713 C715 1.356 . S
N713 H718 0.984 . S
N713 H719 0.985 . S
C714 C708 1.379 1_554 S
C714 C711 1.363 . S
C714 N712 1.356 . S
C715 C709 1.363 . S
C715 C710 1.379 1_556 S
C715 N713 1.356 . S
N716 C708 1.356 . S
N716 H722 0.984 . S
N716 H723 0.984 . S
N717 C710 1.356 . S
N717 H720 0.984 . S
N717 H721 0.985 . S
H718 N713 0.984 . S
H719 N713 0.985 . S
H720 N717 0.984 . S
H721 N717 0.985 . S
H722 N716 0.984 . S
H723 N716 0.984 . S
H724 N712 0.984 . S
H725 N712 0.985 . S
C726 C727 1.363 1_655 S
C726 C732 1.379 . S
C726 N734 1.356 . S
C727 C726 1.363 1_455 S
C727 C733 1.363 . S
C728 C729 1.363 1_455 S
C728 C733 1.379 . S
C728 N735 1.356 . S
C729 C728 1.363 1_655 S
C729 C732 1.363 . S
N730 C732 1.356 . S
N730 H742 0.984 . S
N730 H743 0.985 . S
N731 C733 1.356 . S
N731 H736 0.984 . S
N731 H737 0.985 . S
C732 C726 1.379 . S
C732 C729 1.363 . S
C732 N730 1.356 . S
C733 C727 1.363 . S
C733 C728 1.379 . S
C733 N731 1.356 . S
N734 C726 1.356 . S
N734 H740 0.984 . S
N734 H741 0.984 1_655 S
N735 C728 1.356 . S
N735 H738 0.984 1_455 S
N735 H739 0.985 . S
H736 N731 0.984 . S
H737 N731 0.985 . S
H738 N735 0.984 1_655 S
H739 N735 0.985 . S
H740 N734 0.984 . S
H741 N734 0.984 1_455 S
H742 N730 0.984 . S
H743 N730 0.985 . S
C529 C20 1.082 . S
C531 C381 1.085 . S
C547 C137 1.086 . S
C549 C469 1.086 . S
C565 C29 1.081 . S
C567 C233 1.084 . S
C583 C313 1.082 . S
C585 C117 1.085 . S
C601 C401 1.086 . S
C603 C196 1.086 . S
C619 C321 1.081 . S
C621 C489 1.084 . S
C637 C293 1.326 . S
C639 C49 1.326 . S
C655 C372 1.332 . S
C657 C145 1.331 . S
C673 C460 1.331 . S
C675 C225 1.331 . S
C691 C57 1.326 . S
C693 C284 1.326 . S
C709 C108 1.332 . S
C711 C409 1.331 . S
C727 C497 1.331 . S
C729 C205 1.331 . S
