# Generated by pormake.
# Topology afw, (4)-cn, num edge types: 1
# Building blocks:
#     Node 0, Type 0, BuildingBlock: ICAMEG_clean_sbu_1, # of connection points: 4
#     Node 1, Type 0, BuildingBlock: ICAMEG_clean_sbu_1, # of connection points: 4
#     Node 2, Type 0, BuildingBlock: ICAMEG_clean_sbu_1, # of connection points: 4
#     Node 3, Type 0, BuildingBlock: ICAMEG_clean_sbu_1, # of connection points: 4
#     Node 4, Type 0, BuildingBlock: ICAMEG_clean_sbu_1, # of connection points: 4
#     Node 5, Type 0, BuildingBlock: ICAMEG_clean_sbu_1, # of connection points: 4
#     Node 6, Type 0, BuildingBlock: ICAMEG_clean_sbu_1, # of connection points: 4
#     Node 7, Type 0, BuildingBlock: ICAMEG_clean_sbu_1, # of connection points: 4
#     Node 8, Type 0, BuildingBlock: ICAMEG_clean_sbu_1, # of connection points: 4
#     Edge 9, Type (0, 0), BuildingBlock: EYOCIG_clean_linker_4, # of connection points: 2
#     Edge 10, Type (0, 0), BuildingBlock: EYOCIG_clean_linker_4, # of connection points: 2
#     Edge 11, Type (0, 0), BuildingBlock: EYOCIG_clean_linker_4, # of connection points: 2
#     Edge 12, Type (0, 0), BuildingBlock: EYOCIG_clean_linker_4, # of connection points: 2
#     Edge 13, Type (0, 0), BuildingBlock: EYOCIG_clean_linker_4, # of connection points: 2
#     Edge 14, Type (0, 0), BuildingBlock: EYOCIG_clean_linker_4, # of connection points: 2
#     Edge 15, Type (0, 0), BuildingBlock: EYOCIG_clean_linker_4, # of connection points: 2
#     Edge 16, Type (0, 0), BuildingBlock: EYOCIG_clean_linker_4, # of connection points: 2
#     Edge 17, Type (0, 0), BuildingBlock: EYOCIG_clean_linker_4, # of connection points: 2
#     Edge 18, Type (0, 0), BuildingBlock: EYOCIG_clean_linker_4, # of connection points: 2
#     Edge 19, Type (0, 0), BuildingBlock: EYOCIG_clean_linker_4, # of connection points: 2
#     Edge 20, Type (0, 0), BuildingBlock: EYOCIG_clean_linker_4, # of connection points: 2
#     Edge 21, Type (0, 0), BuildingBlock: EYOCIG_clean_linker_4, # of connection points: 2
#     Edge 22, Type (0, 0), BuildingBlock: EYOCIG_clean_linker_4, # of connection points: 2
#     Edge 23, Type (0, 0), BuildingBlock: EYOCIG_clean_linker_4, # of connection points: 2
#     Edge 24, Type (0, 0), BuildingBlock: EYOCIG_clean_linker_4, # of connection points: 2
#     Edge 25, Type (0, 0), BuildingBlock: EYOCIG_clean_linker_4, # of connection points: 2
#     Edge 26, Type (0, 0), BuildingBlock: EYOCIG_clean_linker_4, # of connection points: 2
# Relax obj value: 0.099
# Max RMSD: 0.141
# Mean RMSD: 0.141
data_MOF--net-afw--node1-ICAMEG_clean_sbu_1--edge1-EYOCIG_clean_linker_4
_symmetry_space_group_name_H-M    P1
_symmetry_Int_Tables_number       1
_symmetry_cell_setting            triclinic
loop_
_symmetry_equiv_pos_as_xyz
'x, y, z'
_cell_length_a     36.915768
_cell_length_b     37.038716
_cell_length_c     27.47959
_cell_angle_alpha  89.902887
_cell_angle_beta   89.865816
_cell_angle_gamma 119.99775
loop_
_atom_site_label
_atom_site_type_symbol
_atom_site_fract_x
_atom_site_fract_y
_atom_site_fract_z
_atom_type_partial_charge
Co0 Co 0.01057 0.18782 0.09027 0.0
Co1 Co -0.00069 0.18241 0.96517 0.0
O2 O 0.00487 0.21024 0.02775 0.0
C3 C 0.93795 0.19902 0.112 0.0
O4 O 0.91949 0.17815 0.07248 0.0
C5 C 0.07167 0.26619 0.94336 0.0
O6 O 0.09027 0.2637 0.98278 0.0
O7 O 0.04975 0.17736 0.97883 0.0
O8 O 0.04695 0.1685 0.06008 0.0
H9 H 0.99527 0.07191 0.85561 0.0
H10 H 0.02939 0.27535 0.08386 0.0
O11 O 0.9745 0.20674 0.12319 0.0
H12 H 0.16025 0.28354 0.13926 0.0
H13 H 0.03077 0.19071 0.27178 0.0
H14 H 0.00854 0.11004 0.12124 0.0
H15 H 0.09737 0.21538 0.12416 0.0
H16 H 0.02407 0.21846 0.19275 0.0
O17 O 0.03511 0.23745 0.9323 0.0
H18 H 0.00193 0.10709 0.93393 0.0
H19 H 0.98552 0.19982 0.86281 0.0
H20 H 0.01538 0.08127 0.19946 0.0
H21 H 0.09148 0.34419 0.09888 0.0
H22 H 0.02659 0.12171 0.27544 0.0
H23 H 0.15752 0.34856 0.12673 0.0
O24 O 0.96037 0.1324 0.07653 0.0
H25 H 0.91759 0.25736 0.957 0.0
H26 H 0.91258 0.12318 0.93136 0.0
H27 H 0.84942 0.12827 0.91649 0.0
H28 H 0.85171 0.19576 0.92921 0.0
H29 H 0.97997 0.2508 0.97179 0.0
H30 H 0.97898 0.16579 0.78368 0.0
H31 H 0.9837 0.10127 0.77976 0.0
O32 O 0.96324 0.12664 0.99527 0.0
C33 C 0.06178 0.16852 1.01829 0.0
C34 C 0.99305 0.09995 0.85686 0.0
C35 C 0.98397 0.15267 0.81649 0.0
N36 N 0.99386 0.15533 0.90302 0.0
C37 C 0.99671 0.11996 0.90113 0.0
C38 C 0.98779 0.17185 0.8614 0.0
C39 C 0.9866 0.11646 0.81432 0.0
C40 C 0.05794 0.27702 0.09631 0.0
N41 N 0.05968 0.24141 0.1034 0.0
C42 C 0.09303 0.31608 0.1046 0.0
C43 C 0.13008 0.31851 0.12017 0.0
C44 C 0.13165 0.28204 0.12719 0.0
C45 C 0.09596 0.24353 0.11847 0.0
C46 C 0.02594 0.17282 0.23891 0.0
C47 C 0.01361 0.12792 0.15411 0.0
C48 C 0.02203 0.18832 0.19406 0.0
N49 N 0.01616 0.166 0.15235 0.0
C50 C 0.01736 0.11142 0.19831 0.0
C51 C 0.02361 0.13411 0.24094 0.0
C52 C 0.94849 0.11168 0.03706 0.0
C53 C 0.91624 0.22781 0.9512 0.0
C54 C 0.9138 0.15263 0.93712 0.0
C55 C 0.87795 0.15534 0.92854 0.0
C56 C 0.87927 0.19322 0.93566 0.0
N57 N 0.94999 0.18675 0.95217 0.0
C58 C 0.95148 0.22395 0.95936 0.0
Co59 Co 0.83359 0.83202 0.96502 0.0
Co60 Co 0.82636 0.83564 0.0902 0.0
O61 O 0.80486 0.80855 0.02712 0.0
C62 C 0.74952 0.82002 0.94316 0.0
O63 O 0.75137 0.84026 0.98307 0.0
C64 C 0.8153 0.7519 0.11049 0.0
O65 O 0.83685 0.75511 0.07109 0.0
O66 O 0.88224 0.84147 0.07666 0.0
O67 O 0.88917 0.85158 0.99559 0.0
H68 H 0.93147 0.94516 0.20178 0.0
H69 H 0.76526 0.74408 0.96984 0.0
O70 O 0.77874 0.81292 0.93176 0.0
H71 H 0.88943 0.73838 0.91427 0.0
H72 H 0.85282 0.83184 0.78347 0.0
H73 H 0.90933 0.91071 0.93546 0.0
H74 H 0.89386 0.80593 0.93065 0.0
H75 H 0.81768 0.80273 0.862 0.0
O76 O 0.80713 0.78026 0.12208 0.0
H77 H 0.90381 0.91096 0.12281 0.0
H78 H 0.79409 0.81662 0.19224 0.0
H79 H 0.9456 0.94084 0.85775 0.0
H80 H 0.75935 0.67583 0.95352 0.0
H81 H 0.91734 0.90131 0.78104 0.0
H82 H 0.82176 0.67272 0.92558 0.0
O83 O 0.83813 0.88694 0.97977 0.0
H84 H 0.66935 0.75924 0.09701 0.0
H85 H 0.79787 0.89375 0.12507 0.0
H86 H 0.72913 0.88773 0.13987 0.0
H87 H 0.66425 0.82006 0.12593 0.0
H88 H 0.73877 0.76675 0.08233 0.0
H89 H 0.8207 0.84965 0.27199 0.0
H90 H 0.88979 0.91448 0.27709 0.0
O91 O 0.84603 0.89172 0.06111 0.0
C92 C 0.9036 0.85114 0.03739 0.0
C93 C 0.90126 0.91698 0.20001 0.0
C94 C 0.83912 0.86335 0.23942 0.0
N95 N 0.84726 0.86198 0.15283 0.0
C96 C 0.88539 0.89752 0.15538 0.0
C97 C 0.82426 0.84473 0.19416 0.0
C98 C 0.87789 0.89973 0.24226 0.0
C99 C 0.79247 0.74295 0.95736 0.0
N100 N 0.82977 0.77892 0.95093 0.0
C101 C 0.78897 0.70423 0.94833 0.0
C102 C 0.82402 0.70251 0.9327 0.0
C103 C 0.862 0.73934 0.92637 0.0
C104 C 0.86433 0.77749 0.93581 0.0
C105 C 0.86546 0.84934 0.81666 0.0
C106 C 0.89694 0.89322 0.90227 0.0
C107 C 0.84565 0.83306 0.86124 0.0
N108 N 0.86157 0.85488 0.90335 0.0
C109 C 0.91757 0.91049 0.85836 0.0
C110 C 0.90168 0.88831 0.81532 0.0
C111 C 0.84651 0.90714 1.01959 0.0
C112 C 0.6974 0.78886 0.10335 0.0
C113 C 0.76978 0.86424 0.11878 0.0
C114 C 0.73095 0.86099 0.12732 0.0
C115 C 0.69456 0.82301 0.11952 0.0
N116 N 0.7723 0.83055 0.10311 0.0
C117 C 0.73677 0.79325 0.09525 0.0
Co118 Co 0.17916 0.00638 0.09403 0.0
Co119 Co 0.18589 0.01573 0.9687 0.0
O120 O 0.20774 0.01095 0.03202 0.0
C121 C 0.26326 0.07852 0.115 0.0
O122 O 0.26129 0.09658 0.07479 0.0
C123 C 0.19744 0.94316 0.94982 0.0
O124 O 0.17604 0.92512 0.98942 0.0
O125 O 0.13028 0.96573 0.983 0.0
O126 O 0.1235 0.97005 0.06389 0.0
H127 H 0.07983 0.01818 0.85641 0.0
H128 H 0.24762 0.9867 0.09008 0.0
O129 O 0.23408 0.04239 0.12689 0.0
H130 H 0.12387 0.85778 0.14788 0.0
H131 H 0.16053 0.98918 0.27588 0.0
H132 H 0.10339 0.00969 0.12296 0.0
H133 H 0.11918 0.92058 0.12998 0.0
H134 H 0.19543 0.99418 0.19747 0.0
O135 O 0.20542 0.97953 0.93769 0.0
H136 H 0.10796 0.01275 0.93568 0.0
H137 H 0.21785 0.02802 0.86659 0.0
H138 H 0.06735 0.00456 0.20053 0.0
H139 H 0.25379 0.92467 0.10789 0.0
H140 H 0.09593 0.99423 0.27772 0.0
H141 H 0.19159 0.85961 0.13696 0.0
O142 O 0.17442 0.05651 0.07813 0.0
H143 H 0.34285 0.09681 0.9611 0.0
H144 H 0.21358 0.1017 0.93215 0.0
H145 H 0.28201 0.16435 0.91641 0.0
H146 H 0.34726 0.16211 0.93079 0.0
H147 H 0.27373 0.03494 0.9767 0.0
H148 H 0.19076 0.03333 0.78655 0.0
H149 H 0.12134 0.02855 0.78112 0.0
O150 O 0.16588 0.05216 0.99688 0.0
C151 C 0.10903 0.95454 0.02236 0.0
C152 C 0.11017 0.02042 0.85831 0.0
C153 C 0.1724 0.02887 0.8191 0.0
N154 N 0.16462 0.02033 0.90584 0.0
C155 C 0.12631 0.01746 0.90312 0.0
C156 C 0.18754 0.02575 0.86453 0.0
C157 C 0.13346 0.0262 0.81608 0.0
C158 C 0.2205 0.95857 0.10304 0.0
N159 N 0.18317 0.95734 0.10925 0.0
C160 C 0.22414 0.92352 0.11292 0.0
C161 C 0.18922 0.88701 0.12917 0.0
C162 C 0.15121 0.88596 0.13528 0.0
C163 C 0.14872 0.92159 0.12499 0.0
C164 C 0.14775 0.99363 0.24248 0.0
C165 C 0.11592 0.00499 0.15636 0.0
C166 C 0.16742 0.99658 0.19797 0.0
N167 N 0.15133 0.00198 0.15561 0.0
C168 C 0.09542 0.0022 0.20019 0.0
C169 C 0.11149 0.99645 0.24349 0.0
C170 C 0.16561 0.06766 0.03802 0.0
C171 C 0.31464 0.09813 0.95456 0.0
C172 C 0.24184 0.10051 0.93864 0.0
C173 C 0.28049 0.13606 0.92956 0.0
C174 C 0.31709 0.13478 0.93761 0.0
N175 N 0.23969 0.06463 0.95508 0.0
C176 C 0.27543 0.06317 0.96318 0.0
Co177 Co 0.66796 0.51567 0.29935 0.0
Co178 Co 0.67941 0.523 0.42437 0.0
O179 O 0.67358 0.54446 0.36122 0.0
C180 C 0.74003 0.59934 0.27634 0.0
O181 O 0.7587 0.59748 0.31604 0.0
C182 C 0.60695 0.53463 0.44545 0.0
O183 O 0.58821 0.51305 0.40643 0.0
O184 O 0.629 0.46748 0.41161 0.0
O185 O 0.63196 0.46038 0.33059 0.0
H186 H 0.68389 0.41797 0.53659 0.0
H187 H 0.64841 0.58401 0.30393 0.0
O188 O 0.70361 0.57024 0.26543 0.0
H189 H 0.51802 0.46048 0.25017 0.0
H190 H 0.64758 0.49613 0.11809 0.0
H191 H 0.67062 0.43991 0.27032 0.0
H192 H 0.58127 0.4558 0.26605 0.0
H193 H 0.65407 0.5314 0.19632 0.0
O194 O 0.64363 0.54265 0.45649 0.0
H195 H 0.67697 0.4455 0.45751 0.0
H196 H 0.69349 0.55543 0.52605 0.0
H197 H 0.66402 0.40351 0.19294 0.0
H198 H 0.58593 0.59017 0.28811 0.0
H199 H 0.6524 0.43162 0.11611 0.0
H200 H 0.52014 0.52807 0.26107 0.0
O201 O 0.71845 0.51092 0.3137 0.0
H202 H 0.76092 0.67947 0.42938 0.0
H203 H 0.76627 0.55077 0.4582 0.0
H204 H 0.82941 0.61904 0.4719 0.0
H205 H 0.82695 0.68401 0.45758 0.0
H206 H 0.69856 0.61051 0.4158 0.0
H207 H 0.70029 0.52894 0.6059 0.0
H208 H 0.69565 0.45981 0.6115 0.0
O209 O 0.71545 0.50287 0.39507 0.0
C210 C 0.61711 0.44614 0.37257 0.0
C211 C 0.68607 0.44819 0.5346 0.0
C212 C 0.69522 0.51044 0.57351 0.0
N213 N 0.68508 0.50215 0.48708 0.0
C214 C 0.68227 0.46399 0.4899 0.0
C215 C 0.69125 0.52523 0.5282 0.0
C216 C 0.69263 0.47166 0.57662 0.0
C217 C 0.61996 0.55694 0.29185 0.0
N218 N 0.61856 0.51968 0.28565 0.0
C219 C 0.58466 0.56058 0.28309 0.0
C220 C 0.54773 0.52571 0.26798 0.0
C221 C 0.54652 0.48777 0.26188 0.0
C222 C 0.58241 0.48529 0.27103 0.0
C223 C 0.65259 0.48355 0.15134 0.0
C224 C 0.66538 0.45224 0.23708 0.0
C225 C 0.65638 0.50344 0.19574 0.0
N226 N 0.66248 0.4876 0.23792 0.0
C227 C 0.66176 0.43154 0.19335 0.0
C228 C 0.65528 0.44735 0.15025 0.0
C229 C 0.73028 0.50233 0.35347 0.0
C230 C 0.76235 0.65139 0.43589 0.0
C231 C 0.76498 0.5789 0.45175 0.0
C232 C 0.80081 0.61747 0.45967 0.0
C233 C 0.7994 0.65391 0.45165 0.0
N234 N 0.72871 0.57669 0.43647 0.0
C235 C 0.72712 0.61227 0.42841 0.0
Co236 Co 0.49922 0.16595 0.30254 0.0
Co237 Co 0.49252 0.17008 0.42771 0.0
O238 O 0.47058 0.14287 0.36479 0.0
C239 C 0.41537 0.15463 0.28078 0.0
O240 O 0.41749 0.17516 0.32052 0.0
C241 C 0.4805 0.08604 0.44845 0.0
O242 O 0.50188 0.08884 0.40903 0.0
O243 O 0.54805 0.17508 0.414 0.0
O244 O 0.55479 0.1851 0.33291 0.0
H245 H 0.59877 0.27925 0.53869 0.0
H246 H 0.43037 0.07827 0.30783 0.0
O247 O 0.44437 0.14719 0.26944 0.0
H248 H 0.55365 0.0711 0.25194 0.0
H249 H 0.51794 0.16507 0.12096 0.0
H250 H 0.57531 0.24416 0.27263 0.0
H251 H 0.55881 0.139 0.26809 0.0
H252 H 0.48284 0.13638 0.19963 0.0
O253 O 0.47272 0.11471 0.45985 0.0
H254 H 0.57062 0.24493 0.45989 0.0
H255 H 0.46049 0.15176 0.52987 0.0
H256 H 0.61155 0.27386 0.19479 0.0
H257 H 0.42373 0.00969 0.29176 0.0
H258 H 0.58286 0.23422 0.11823 0.0
H259 H 0.4857 0.00583 0.26366 0.0
O260 O 0.50434 0.22114 0.31711 0.0
H261 H 0.33557 0.09546 0.43512 0.0
H262 H 0.46521 0.22916 0.46242 0.0
H263 H 0.39693 0.22415 0.47736 0.0
H264 H 0.33149 0.15689 0.4638 0.0
H265 H 0.40454 0.10194 0.42029 0.0
H266 H 0.4876 0.18492 0.60944 0.0
H267 H 0.55715 0.24923 0.61418 0.0
O268 O 0.51278 0.22617 0.39837 0.0
C269 C 0.56926 0.18448 0.37463 0.0
C270 C 0.56838 0.2513 0.53708 0.0
C271 C 0.50601 0.19833 0.57679 0.0
N272 N 0.51384 0.19652 0.4902 0.0
C273 C 0.55223 0.23177 0.49254 0.0
C274 C 0.49087 0.17964 0.53163 0.0
C275 C 0.54503 0.23442 0.57942 0.0
C276 C 0.45738 0.07682 0.29528 0.0
N277 N 0.49484 0.11258 0.28863 0.0
C278 C 0.45348 0.03792 0.28639 0.0
C279 C 0.48827 0.03577 0.27068 0.0
C280 C 0.52641 0.07238 0.26412 0.0
C281 C 0.52916 0.11073 0.27342 0.0
C282 C 0.53077 0.18262 0.15408 0.0
C283 C 0.56273 0.22662 0.23951 0.0
C284 C 0.51098 0.16658 0.19873 0.0
N285 N 0.52714 0.18847 0.24075 0.0
C286 C 0.58334 0.24365 0.19552 0.0
C287 C 0.56721 0.22141 0.15257 0.0
C288 C 0.51319 0.24152 0.35684 0.0
C289 C 0.36386 0.1249 0.44129 0.0
C290 C 0.43687 0.19981 0.45629 0.0
C291 C 0.3983 0.19715 0.46491 0.0
C292 C 0.3616 0.15939 0.45732 0.0
N293 N 0.43883 0.16579 0.44075 0.0
C294 C 0.40299 0.12871 0.43311 0.0
Co295 Co 0.84963 0.34684 0.29928 0.0
Co296 Co 0.84637 0.33706 0.42456 0.0
O297 O 0.87331 0.34203 0.36124 0.0
C298 C 0.86139 0.27474 0.27795 0.0
O299 O 0.84113 0.25658 0.31811 0.0
C300 C 0.93066 0.40948 0.44382 0.0
O301 O 0.92758 0.42772 0.40436 0.0
O302 O 0.84106 0.38716 0.41053 0.0
O303 O 0.83035 0.38311 0.32963 0.0
H304 H 0.73733 0.33422 0.53698 0.0
H305 H 0.93778 0.36642 0.30325 0.0
O306 O 0.86851 0.31091 0.26621 0.0
H307 H 0.94379 0.49561 0.24615 0.0
H308 H 0.8491 0.36475 0.11753 0.0
H309 H 0.77072 0.34375 0.27045 0.0
H310 H 0.87597 0.43278 0.26375 0.0
H311 H 0.87858 0.35937 0.19586 0.0
O312 O 0.90207 0.37307 0.45573 0.0
H313 H 0.77132 0.34001 0.4577 0.0
H314 H 0.86547 0.32431 0.52656 0.0
H315 H 0.74023 0.34927 0.19297 0.0
H316 H 0.0063 0.42847 0.28572 0.0
H317 H 0.77951 0.35985 0.11578 0.0
H318 H 0.00958 0.49367 0.257 0.0
O319 O 0.79449 0.29669 0.31496 0.0
H320 H 0.92179 0.25578 0.43156 0.0
H321 H 0.78755 0.25095 0.46066 0.0
H322 H 0.79296 0.18818 0.47598 0.0
H323 H 0.86048 0.19039 0.46152 0.0
H324 H 0.91491 0.31777 0.41638 0.0
H325 H 0.83265 0.31864 0.60661 0.0
H326 H 0.76802 0.32345 0.61215 0.0
O327 O 0.78994 0.30078 0.39623 0.0
C328 C 0.83127 0.39851 0.37122 0.0
C329 C 0.76543 0.33197 0.53502 0.0
C330 C 0.81895 0.32328 0.5741 0.0
N331 N 0.82019 0.33224 0.48743 0.0
C332 C 0.78477 0.33513 0.49021 0.0
C333 C 0.83745 0.32661 0.52868 0.0
C334 C 0.78268 0.32596 0.57719 0.0
C335 C 0.93897 0.3946 0.29044 0.0
N336 N 0.90294 0.3959 0.28426 0.0
C337 C 0.97785 0.42967 0.28072 0.0
C338 C 0.97967 0.46626 0.26466 0.0
C339 C 0.94277 0.46738 0.25859 0.0
C340 C 0.90446 0.43172 0.26872 0.0
C341 C 0.83171 0.3602 0.15093 0.0
C342 C 0.78811 0.34856 0.23705 0.0
C343 C 0.8482 0.35702 0.19539 0.0
N344 N 0.82651 0.35149 0.23775 0.0
C345 C 0.77063 0.35156 0.19327 0.0
C346 C 0.79267 0.35746 0.14997 0.0
C347 C 0.77431 0.28542 0.35504 0.0
C348 C 0.89223 0.25447 0.43813 0.0
C349 C 0.81701 0.25213 0.45414 0.0
C350 C 0.8199 0.21651 0.46298 0.0
C351 C 0.85781 0.21777 0.45488 0.0
N352 N 0.85097 0.28805 0.43789 0.0
C353 C 0.88819 0.2895 0.42975 0.0
Co354 Co 0.34392 0.85349 0.76055 0.0
Co355 Co 0.33203 0.84959 0.6356 0.0
O356 O 0.33807 0.87676 0.69875 0.0
C357 C 0.27194 0.86529 0.78404 0.0
O358 O 0.25308 0.84483 0.74446 0.0
C359 C 0.40439 0.93348 0.61426 0.0
O360 O 0.42326 0.93054 0.65319 0.0
O361 O 0.38249 0.8443 0.64808 0.0
O362 O 0.37979 0.83411 0.7291 0.0
H363 H 0.32706 0.74018 0.52334 0.0
H364 H 0.36346 0.94132 0.75597 0.0
O365 O 0.30842 0.87249 0.7947 0.0
H366 H 0.49407 0.94767 0.80891 0.0
H367 H 0.36511 0.85411 0.94167 0.0
H368 H 0.34136 0.77503 0.78952 0.0
H369 H 0.43075 0.87997 0.79337 0.0
H370 H 0.35823 0.88295 0.86353 0.0
O371 O 0.36769 0.90495 0.60335 0.0
H372 H 0.33433 0.77456 0.60239 0.0
H373 H 0.31759 0.86812 0.534 0.0
H374 H 0.34836 0.74517 0.86682 0.0
H375 H 0.426 0.00972 0.77147 0.0
H376 H 0.36033 0.78481 0.94362 0.0
H377 H 0.49192 0.01316 0.79808 0.0
O378 O 0.29335 0.79842 0.74641 0.0
H379 H 0.25049 0.92483 0.63116 0.0
H380 H 0.24505 0.79084 0.60216 0.0
H381 H 0.18185 0.7962 0.58884 0.0
H382 H 0.18436 0.8636 0.60326 0.0
H383 H 0.3129 0.918 0.64437 0.0
H384 H 0.31044 0.83491 0.45417 0.0
H385 H 0.31501 0.77038 0.44851 0.0
O386 O 0.29609 0.79352 0.66502 0.0
C387 C 0.39452 0.83476 0.68705 0.0
C388 C 0.32491 0.76824 0.52535 0.0
C389 C 0.31564 0.82143 0.48653 0.0
N390 N 0.32613 0.82316 0.57289 0.0
C391 C 0.32891 0.7878 0.57003 0.0
C392 C 0.31981 0.84015 0.53183 0.0
C393 C 0.31818 0.78521 0.48338 0.0
C394 C 0.39196 0.94259 0.76788 0.0
N395 N 0.39338 0.90671 0.77403 0.0
C396 C 0.4273 0.98139 0.77645 0.0
C397 C 0.46429 0.98331 0.79132 0.0
C398 C 0.46552 0.94657 0.79738 0.0
C399 C 0.42959 0.90833 0.78842 0.0
C400 C 0.35995 0.83656 0.90844 0.0
C401 C 0.34676 0.79256 0.82275 0.0
C402 C 0.35592 0.85269 0.86409 0.0
N403 N 0.34964 0.83081 0.82193 0.0
C404 C 0.3506 0.77545 0.86643 0.0
C405 C 0.35728 0.79768 0.90951 0.0
C406 C 0.28137 0.77813 0.70666 0.0
C407 C 0.24904 0.89533 0.62462 0.0
C408 C 0.24636 0.82025 0.60865 0.0
C409 C 0.21049 0.82311 0.60095 0.0
C410 C 0.21193 0.86095 0.60902 0.0
N411 N 0.28269 0.85416 0.62377 0.0
C412 C 0.2843 0.89132 0.63188 0.0
Co413 Co 0.16699 0.49891 0.63162 0.0
Co414 Co 0.15979 0.5024 0.75677 0.0
O415 O 0.13824 0.47533 0.69369 0.0
C416 C 0.08283 0.48657 0.60944 0.0
O417 O 0.08452 0.5069 0.64921 0.0
C418 C 0.14845 0.41857 0.77734 0.0
O419 O 0.17014 0.42166 0.73811 0.0
O420 O 0.21558 0.50798 0.74321 0.0
O421 O 0.22257 0.51866 0.66224 0.0
H422 H 0.26512 0.61177 0.86831 0.0
H423 H 0.09896 0.41084 0.63639 0.0
O424 O 0.11216 0.47958 0.59827 0.0
H425 H 0.22351 0.40583 0.58092 0.0
H426 H 0.18654 0.49893 0.45011 0.0
H427 H 0.24256 0.5778 0.60219 0.0
H428 H 0.22758 0.47321 0.59728 0.0
H429 H 0.15134 0.46968 0.52857 0.0
O430 O 0.14033 0.44701 0.78869 0.0
H431 H 0.23741 0.57755 0.78936 0.0
H432 H 0.12749 0.48354 0.8588 0.0
H433 H 0.2789 0.60808 0.52456 0.0
H434 H 0.0934 0.34275 0.6201 0.0
H435 H 0.25089 0.56855 0.4478 0.0
H436 H 0.15601 0.33998 0.59221 0.0
O437 O 0.17124 0.5537 0.64642 0.0
H438 H 0.00279 0.42656 0.76343 0.0
H439 H 0.13162 0.56077 0.79163 0.0
H440 H 0.063 0.55505 0.80634 0.0
H441 H -0.00203 0.48753 0.79234 0.0
H442 H 0.07209 0.43376 0.74883 0.0
H443 H 0.15416 0.51658 0.93854 0.0
H444 H 0.22338 0.58126 0.94362 0.0
O445 O 0.17965 0.5585 0.72768 0.0
C446 C 0.23697 0.51791 0.70396 0.0
C447 C 0.23486 0.58365 0.86655 0.0
C448 C 0.17261 0.5302 0.90597 0.0
N449 N 0.18076 0.52873 0.81939 0.0
C450 C 0.21896 0.56418 0.82193 0.0
C451 C 0.15772 0.51158 0.86072 0.0
C452 C 0.21145 0.5665 0.90879 0.0
C453 C 0.12625 0.40987 0.62393 0.0
N454 N 0.16346 0.44594 0.61752 0.0
C455 C 0.12295 0.37123 0.61491 0.0
C456 C 0.15811 0.3697 0.59932 0.0
C457 C 0.19599 0.40663 0.593 0.0
C458 C 0.19813 0.44469 0.60243 0.0
C459 C 0.19908 0.51643 0.48332 0.0
C460 C 0.23027 0.56031 0.56898 0.0
C461 C 0.17922 0.50007 0.52786 0.0
N462 N 0.19501 0.5219 0.56999 0.0
C463 C 0.25094 0.57767 0.52511 0.0
C464 C 0.23519 0.55549 0.48205 0.0
C465 C 0.17985 0.57391 0.68626 0.0
C466 C 0.0309 0.45611 0.7698 0.0
C467 C 0.10346 0.53132 0.78531 0.0
C468 C 0.0647 0.52824 0.79381 0.0
C469 C 0.02822 0.49035 0.78596 0.0
N470 N 0.10583 0.49754 0.76964 0.0
C471 C 0.07021 0.46033 0.76175 0.0
Co472 Co 0.51298 0.67245 0.75711 0.0
Co473 Co 0.51824 0.68249 0.63186 0.0
O474 O 0.54093 0.67751 0.69449 0.0
C475 C 0.59719 0.74457 0.77765 0.0
O476 O 0.59477 0.76291 0.73791 0.0
C477 C 0.53037 0.61053 0.61116 0.0
O478 O 0.50936 0.59207 0.65083 0.0
O479 O 0.46297 0.63214 0.64653 0.0
O480 O 0.45703 0.63627 0.72759 0.0
H481 H 0.41046 0.68474 0.52241 0.0
H482 H 0.58148 0.65295 0.751 0.0
O483 O 0.5682 0.70829 0.78939 0.0
H484 H 0.45845 0.5235 0.80897 0.0
H485 H 0.49622 0.65389 0.93899 0.0
H486 H 0.43746 0.67544 0.788 0.0
H487 H 0.45347 0.58637 0.79265 0.0
H488 H 0.53034 0.65954 0.85984 0.0
O489 O 0.53786 0.64684 0.59958 0.0
H490 H 0.43965 0.67907 0.60081 0.0
H491 H 0.54907 0.69563 0.5292 0.0
H492 H 0.40219 0.66967 0.86635 0.0
H493 H 0.58795 0.59085 0.7672 0.0
H494 H 0.43158 0.65881 0.94256 0.0
H495 H 0.5261 0.52553 0.79636 0.0
O496 O 0.50799 0.72262 0.7424 0.0
H497 H 0.67509 0.76465 0.62201 0.0
H498 H 0.5449 0.76853 0.59642 0.0
H499 H 0.61289 0.8316 0.58027 0.0
H500 H 0.67861 0.82988 0.59296 0.0
H501 H 0.60639 0.70235 0.63805 0.0
H502 H 0.52092 0.7012 0.45 0.0
H503 H 0.4512 0.6959 0.44629 0.0
O504 O 0.49818 0.71843 0.66135 0.0
C505 C 0.44213 0.62083 0.68617 0.0
C506 C 0.44093 0.68721 0.52357 0.0
C507 C 0.5029 0.69639 0.48293 0.0
N508 N 0.49614 0.68728 0.56966 0.0
C509 C 0.45767 0.68412 0.56788 0.0
C510 C 0.51863 0.69312 0.52788 0.0
C511 C 0.46378 0.69343 0.48087 0.0
C512 C 0.55453 0.6247 0.764 0.0
N513 N 0.51724 0.62336 0.77114 0.0
C514 C 0.55833 0.58962 0.77297 0.0
C515 C 0.5236 0.55296 0.78927 0.0
C516 C 0.48563 0.55179 0.79633 0.0
C517 C 0.48298 0.58747 0.78693 0.0
C518 C 0.48308 0.65857 0.90602 0.0
C519 C 0.45034 0.67051 0.82097 0.0
C520 C 0.50231 0.66189 0.8611 0.0
N521 N 0.48577 0.66757 0.81927 0.0
C522 C 0.43028 0.66737 0.86525 0.0
C523 C 0.44681 0.66131 0.908 0.0
C524 C 0.49849 0.7338 0.70276 0.0
C525 C 0.64667 0.76576 0.61621 0.0
C526 C 0.57336 0.76756 0.60217 0.0
C527 C 0.61177 0.80335 0.59287 0.0
C528 C 0.64863 0.80236 0.59997 0.0
N529 N 0.5717 0.73173 0.61791 0.0
C530 C 0.6077 0.73055 0.62508 0.0
C531 C 0.13713 0.11994 0.03202 0.0
C532 C 0.15064 0.09667 0.03851 0.0
C533 C 0.11515 0.14122 0.02219 0.0
C534 C 0.09137 0.15424 1.01636 0.0
C535 C 0.87431 0.98772 0.02421 0.0
C536 C 0.86115 0.951 1.01835 0.0
C537 C 0.89587 0.03098 0.03346 0.0
C538 C 0.91934 0.06779 0.03901 0.0
C539 C 0.98463 0.87959 0.03453 0.0
C540 C 0.94762 0.86602 0.03971 0.0
C541 C 0.02816 0.9015 0.0258 0.0
C542 C 0.0651 0.92512 0.02043 0.0
C543 C 0.80397 0.45179 0.36747 0.0
C544 C 0.81707 0.4281 0.37318 0.0
C545 C 0.7826 0.47375 0.35802 0.0
C546 C 0.75927 0.48729 0.3521 0.0
C547 C 0.54189 0.32227 0.36113 0.0
C548 C 0.5283 0.28546 0.35543 0.0
C549 C 0.56388 0.36557 0.37012 0.0
C550 C 0.58759 0.40237 0.37527 0.0
C551 C 0.65001 0.21173 0.37077 0.0
C552 C 0.61315 0.19867 0.37662 0.0
C553 C 0.69337 0.23308 0.36091 0.0
C554 C 0.73024 0.25638 0.35445 0.0
C555 C 0.44785 0.80737 0.68934 0.0
C556 C 0.42408 0.82049 0.6842 0.0
C557 C 0.46989 0.78603 0.6984 0.0
C558 C 0.48352 0.76279 0.7042 0.0
C559 C 0.22882 0.6975 0.70176 0.0
C560 C 0.25223 0.73422 0.70802 0.0
C561 C 0.20738 0.65438 0.69163 0.0
C562 C 0.19429 0.61773 0.68521 0.0
C563 C 0.31791 0.54608 0.70041 0.0
C564 C 0.28095 0.53258 0.70612 0.0
C565 C 0.36131 0.56787 0.69084 0.0
C566 C 0.39818 0.59143 0.6848 0.0
C567 C 0.1084 0.32699 0.87881 0.0
C568 C 0.09341 0.3002 0.90971 0.0
C569 C 0.12376 0.35735 0.84131 0.0
C570 C 0.13592 0.3843 0.81058 0.0
C571 C 0.68877 0.79592 0.87877 0.0
C572 C 0.71553 0.80768 0.9096 0.0
C573 C 0.65842 0.78096 0.84141 0.0
C574 C 0.63149 0.7662 0.81077 0.0
C575 C 0.23624 0.89013 0.84901 0.0
C576 C 0.25078 0.87802 0.81794 0.0
C577 C 0.22139 0.90564 0.88645 0.0
C578 C 0.20958 0.92089 0.91696 0.0
C579 C 0.35452 0.13038 0.2165 0.0
C580 C 0.38129 0.14226 0.24732 0.0
C581 C 0.32421 0.1152 0.17908 0.0
C582 C 0.29741 0.10026 0.1483 0.0
C583 C 0.90112 0.22316 0.17629 0.0
C584 C 0.91612 0.21132 0.14547 0.0
C585 C 0.88585 0.23825 0.21374 0.0
C586 C 0.87389 0.2531 0.24457 0.0
C587 C 0.77608 0.66011 0.21162 0.0
C588 C 0.76137 0.63334 0.24258 0.0
C589 C 0.79112 0.69055 0.17422 0.0
C590 C 0.80303 0.71759 0.14362 0.0
C591 C 0.02221 0.46193 0.54481 0.0
C592 C 0.04888 0.47396 0.57577 0.0
C593 C 0.99194 0.44661 0.50737 0.0
C594 C 0.96498 0.43155 0.47679 0.0
C595 C 0.57025 0.559 0.50962 0.0
C596 C 0.58518 0.54702 0.47887 0.0
C597 C 0.555 0.57411 0.54706 0.0
C598 C 0.54293 0.5889 0.57783 0.0
C599 C 0.44084 0.99456 0.55002 0.0
C600 C 0.42603 0.96764 0.5808 0.0
C601 C 0.45598 0.02495 0.51258 0.0
C602 C 0.46801 0.05187 0.48182 0.0
loop_
_geom_bond_atom_site_label_1
_geom_bond_atom_site_label_2
_geom_bond_distance
_geom_bond_site_symmetry_2
_ccdc_geom_bond_type
Co0 O2 2.143 . S
Co0 O8 2.074 . S
Co0 O11 2.093 1_455 S
Co0 O24 2.097 1_455 S
Co0 N41 2.151 . S
Co0 N49 2.214 . S
Co1 O2 2.160 1_556 S
Co1 O7 2.058 . S
Co1 O17 2.057 . S
Co1 O32 2.037 1_455 S
Co1 N36 2.145 1_455 S
Co1 N57 2.257 1_455 S
O2 Co0 2.143 . S
O2 Co1 2.160 1_554 S
C3 O4 1.278 . S
C3 O11 1.224 . S
O4 C3 1.278 . S
C5 O6 1.245 . S
C5 O17 1.232 . S
O6 C5 1.245 . S
O7 Co1 2.058 . S
O7 C33 1.269 1_556 S
O8 Co0 2.074 . S
O8 C33 1.257 . S
H9 C34 0.930 . S
H10 C40 0.930 . S
O11 Co0 2.093 1_655 S
O11 C3 1.224 . S
H12 C44 0.929 . S
H13 C46 0.930 . S
H14 C47 0.930 . S
H15 C45 0.929 . S
H16 C48 0.928 . S
O17 Co1 2.057 . S
O17 C5 1.232 . S
H18 C37 0.929 . S
H19 C38 0.929 . S
H20 C50 0.931 . S
H21 C42 0.929 . S
H22 C51 0.930 . S
H23 C43 0.931 . S
O24 Co0 2.097 1_655 S
O24 C52 1.214 . S
H25 C53 0.929 . S
H26 C54 0.929 . S
H27 C55 0.930 . S
H28 C56 0.929 . S
H29 C58 0.930 . S
H30 C35 0.930 1_455 S
H31 C39 0.930 . S
O32 Co1 2.037 1_655 S
O32 C52 1.234 1_556 S
C33 O7 1.269 1_554 S
C33 O8 1.257 . S
C34 H9 0.930 . S
C34 C37 1.388 . S
C34 C39 1.418 . S
C35 H30 0.930 1_655 S
C35 C38 1.404 1_655 S
C35 C39 1.353 . S
N36 Co1 2.145 1_655 S
N36 C37 1.397 . S
N36 C38 1.334 1_655 S
C37 H18 0.929 . S
C37 C34 1.388 . S
C37 N36 1.397 . S
C38 H19 0.929 . S
C38 C35 1.404 1_455 S
C38 N36 1.334 1_455 S
C39 H31 0.930 . S
C39 C34 1.418 . S
C39 C35 1.353 . S
C40 H10 0.930 . S
C40 N41 1.330 . S
C40 C42 1.446 . S
N41 Co0 2.151 . S
N41 C40 1.330 . S
N41 C45 1.418 . S
C42 H21 0.929 . S
C42 C40 1.446 . S
C42 C43 1.332 . S
C43 H23 0.931 . S
C43 C42 1.332 . S
C43 C44 1.267 . S
C44 H12 0.929 . S
C44 C43 1.267 . S
C44 C45 1.251 . S
C45 H15 0.929 . S
C45 N41 1.418 . S
C45 C44 1.251 . S
C46 H13 0.930 . S
C46 C48 1.406 . S
C46 C51 1.261 . S
C47 H14 0.930 . S
C47 N49 1.325 . S
C47 C50 1.357 . S
C48 H16 0.928 . S
C48 C46 1.406 . S
C48 N49 1.261 . S
N49 Co0 2.214 . S
N49 C47 1.325 . S
N49 C48 1.261 . S
C50 H20 0.931 . S
C50 C47 1.357 . S
C50 C51 1.312 . S
C51 H22 0.930 . S
C51 C46 1.261 . S
C51 C50 1.312 . S
C52 O24 1.214 . S
C52 O32 1.234 1_554 S
C53 H25 0.929 . S
C53 C56 1.391 . S
C53 C58 1.391 . S
C54 H26 0.929 . S
C54 C55 1.390 . S
C54 N57 1.391 . S
C55 H27 0.930 . S
C55 C54 1.390 . S
C55 C56 1.392 . S
C56 H28 0.929 . S
C56 C53 1.391 . S
C56 C55 1.392 . S
N57 Co1 2.257 1_655 S
N57 C54 1.391 . S
N57 C58 1.388 . S
C58 H29 0.930 . S
C58 C53 1.391 . S
C58 N57 1.388 . S
Co59 O61 2.143 1_556 S
Co59 O67 2.074 . S
Co59 O70 2.093 . S
Co59 O83 2.097 . S
Co59 N100 2.151 . S
Co59 N108 2.214 . S
Co60 O61 2.160 . S
Co60 O66 2.058 . S
Co60 O76 2.057 . S
Co60 O91 2.037 . S
Co60 N95 2.145 . S
Co60 N116 2.257 . S
O61 Co59 2.143 1_554 S
O61 Co60 2.160 . S
C62 O63 1.278 . S
C62 O70 1.224 . S
O63 C62 1.278 . S
C64 O65 1.245 . S
C64 O76 1.232 . S
O65 C64 1.245 . S
O66 Co60 2.058 . S
O66 C92 1.269 . S
O67 Co59 2.074 . S
O67 C92 1.257 1_556 S
H68 C93 0.930 . S
H69 C99 0.930 . S
O70 Co59 2.093 . S
O70 C62 1.224 . S
H71 C103 0.929 . S
H72 C105 0.930 . S
H73 C106 0.930 . S
H74 C104 0.929 . S
H75 C107 0.928 . S
O76 Co60 2.057 . S
O76 C64 1.232 . S
H77 C96 0.929 . S
H78 C97 0.929 . S
H79 C109 0.931 . S
H80 C101 0.929 . S
H81 C110 0.930 . S
H82 C102 0.931 . S
O83 Co59 2.097 . S
O83 C111 1.214 1_556 S
H84 C112 0.929 . S
H85 C113 0.929 . S
H86 C114 0.930 . S
H87 C115 0.929 . S
H88 C117 0.930 . S
H89 C94 0.930 . S
H90 C98 0.930 . S
O91 Co60 2.037 . S
O91 C111 1.234 . S
C92 O66 1.269 . S
C92 O67 1.257 1_554 S
C93 H68 0.930 . S
C93 C96 1.388 . S
C93 C98 1.418 . S
C94 H89 0.930 . S
C94 C97 1.404 . S
C94 C98 1.353 . S
N95 Co60 2.145 . S
N95 C96 1.397 . S
N95 C97 1.334 . S
C96 H77 0.929 . S
C96 C93 1.388 . S
C96 N95 1.397 . S
C97 H78 0.929 . S
C97 C94 1.404 . S
C97 N95 1.334 . S
C98 H90 0.930 . S
C98 C93 1.418 . S
C98 C94 1.353 . S
C99 H69 0.930 . S
C99 N100 1.330 . S
C99 C101 1.446 . S
N100 Co59 2.151 . S
N100 C99 1.330 . S
N100 C104 1.418 . S
C101 H80 0.929 . S
C101 C99 1.446 . S
C101 C102 1.332 . S
C102 H82 0.931 . S
C102 C101 1.332 . S
C102 C103 1.267 . S
C103 H71 0.929 . S
C103 C102 1.267 . S
C103 C104 1.251 . S
C104 H74 0.929 . S
C104 N100 1.418 . S
C104 C103 1.251 . S
C105 H72 0.930 . S
C105 C107 1.406 . S
C105 C110 1.261 . S
C106 H73 0.930 . S
C106 N108 1.325 . S
C106 C109 1.357 . S
C107 H75 0.928 . S
C107 C105 1.406 . S
C107 N108 1.261 . S
N108 Co59 2.214 . S
N108 C106 1.325 . S
N108 C107 1.261 . S
C109 H79 0.931 . S
C109 C106 1.357 . S
C109 C110 1.312 . S
C110 H81 0.930 . S
C110 C105 1.261 . S
C110 C109 1.312 . S
C111 O83 1.214 1_554 S
C111 O91 1.234 . S
C112 H84 0.929 . S
C112 C115 1.391 . S
C112 C117 1.391 . S
C113 H85 0.929 . S
C113 C114 1.390 . S
C113 N116 1.391 . S
C114 H86 0.930 . S
C114 C113 1.390 . S
C114 C115 1.392 . S
C115 H87 0.929 . S
C115 C112 1.391 . S
C115 C114 1.392 . S
N116 Co60 2.257 . S
N116 C113 1.391 . S
N116 C117 1.388 . S
C117 H88 0.930 . S
C117 C112 1.391 . S
C117 N116 1.388 . S
Co118 O120 2.143 . S
Co118 O126 2.074 1_545 S
Co118 O129 2.093 . S
Co118 O142 2.097 . S
Co118 N159 2.151 1_545 S
Co118 N167 2.214 . S
Co119 O120 2.160 1_556 S
Co119 O125 2.058 1_545 S
Co119 O135 2.057 1_545 S
Co119 O150 2.037 . S
Co119 N154 2.145 . S
Co119 N175 2.257 . S
O120 Co118 2.143 . S
O120 Co119 2.160 1_554 S
C121 O122 1.278 . S
C121 O129 1.224 . S
O122 C121 1.278 . S
C123 O124 1.245 . S
C123 O135 1.232 . S
O124 C123 1.245 . S
O125 Co119 2.058 1_565 S
O125 C151 1.269 1_556 S
O126 Co118 2.074 1_565 S
O126 C151 1.257 . S
H127 C152 0.930 . S
H128 C158 0.930 . S
O129 Co118 2.093 . S
O129 C121 1.224 . S
H130 C162 0.929 . S
H131 C164 0.930 1_565 S
H132 C165 0.930 . S
H133 C163 0.929 . S
H134 C166 0.928 1_565 S
O135 Co119 2.057 1_565 S
O135 C123 1.232 . S
H136 C155 0.929 . S
H137 C156 0.929 . S
H138 C168 0.931 . S
H139 C160 0.929 . S
H140 C169 0.930 . S
H141 C161 0.931 . S
O142 Co118 2.097 . S
O142 C170 1.214 . S
H143 C171 0.929 . S
H144 C172 0.929 . S
H145 C173 0.930 . S
H146 C174 0.929 . S
H147 C176 0.930 . S
H148 C153 0.930 . S
H149 C157 0.930 . S
O150 Co119 2.037 . S
O150 C170 1.234 1_556 S
C151 O125 1.269 1_554 S
C151 O126 1.257 . S
C152 H127 0.930 . S
C152 C155 1.388 . S
C152 C157 1.418 . S
C153 H148 0.930 . S
C153 C156 1.404 . S
C153 C157 1.353 . S
N154 Co119 2.145 . S
N154 C155 1.397 . S
N154 C156 1.334 . S
C155 H136 0.929 . S
C155 C152 1.388 . S
C155 N154 1.397 . S
C156 H137 0.929 . S
C156 C153 1.404 . S
C156 N154 1.334 . S
C157 H149 0.930 . S
C157 C152 1.418 . S
C157 C153 1.353 . S
C158 H128 0.930 . S
C158 N159 1.330 . S
C158 C160 1.446 . S
N159 Co118 2.151 1_565 S
N159 C158 1.330 . S
N159 C163 1.418 . S
C160 H139 0.929 . S
C160 C158 1.446 . S
C160 C161 1.332 . S
C161 H141 0.931 . S
C161 C160 1.332 . S
C161 C162 1.267 . S
C162 H130 0.929 . S
C162 C161 1.267 . S
C162 C163 1.251 . S
C163 H133 0.929 . S
C163 N159 1.418 . S
C163 C162 1.251 . S
C164 H131 0.930 1_545 S
C164 C166 1.406 . S
C164 C169 1.261 . S
C165 H132 0.930 . S
C165 N167 1.325 . S
C165 C168 1.357 . S
C166 H134 0.928 1_545 S
C166 C164 1.406 . S
C166 N167 1.261 . S
N167 Co118 2.214 . S
N167 C165 1.325 . S
N167 C166 1.261 . S
C168 H138 0.931 . S
C168 C165 1.357 . S
C168 C169 1.312 . S
C169 H140 0.930 . S
C169 C164 1.261 . S
C169 C168 1.312 . S
C170 O142 1.214 . S
C170 O150 1.234 1_554 S
C171 H143 0.929 . S
C171 C174 1.391 . S
C171 C176 1.391 . S
C172 H144 0.929 . S
C172 C173 1.390 . S
C172 N175 1.391 . S
C173 H145 0.930 . S
C173 C172 1.390 . S
C173 C174 1.392 . S
C174 H146 0.929 . S
C174 C171 1.391 . S
C174 C173 1.392 . S
N175 Co119 2.257 . S
N175 C172 1.391 . S
N175 C176 1.388 . S
C176 H147 0.930 . S
C176 C171 1.391 . S
C176 N175 1.388 . S
Co177 O179 2.143 . S
Co177 O185 2.074 . S
Co177 O188 2.093 . S
Co177 O201 2.097 . S
Co177 N218 2.151 . S
Co177 N226 2.214 . S
Co178 O179 2.160 . S
Co178 O184 2.058 . S
Co178 O194 2.057 . S
Co178 O209 2.037 . S
Co178 N213 2.145 . S
Co178 N234 2.257 . S
O179 Co177 2.143 . S
O179 Co178 2.160 . S
C180 O181 1.278 . S
C180 O188 1.224 . S
O181 C180 1.278 . S
C182 O183 1.245 . S
C182 O194 1.232 . S
O183 C182 1.245 . S
O184 Co178 2.058 . S
O184 C210 1.269 . S
O185 Co177 2.074 . S
O185 C210 1.257 . S
H186 C211 0.930 . S
H187 C217 0.930 . S
O188 Co177 2.093 . S
O188 C180 1.224 . S
H189 C221 0.929 . S
H190 C223 0.930 . S
H191 C224 0.930 . S
H192 C222 0.929 . S
H193 C225 0.928 . S
O194 Co178 2.057 . S
O194 C182 1.232 . S
H195 C214 0.929 . S
H196 C215 0.929 . S
H197 C227 0.931 . S
H198 C219 0.929 . S
H199 C228 0.930 . S
H200 C220 0.931 . S
O201 Co177 2.097 . S
O201 C229 1.214 . S
H202 C230 0.929 . S
H203 C231 0.929 . S
H204 C232 0.930 . S
H205 C233 0.929 . S
H206 C235 0.930 . S
H207 C212 0.930 . S
H208 C216 0.930 . S
O209 Co178 2.037 . S
O209 C229 1.234 . S
C210 O184 1.269 . S
C210 O185 1.257 . S
C211 H186 0.930 . S
C211 C214 1.388 . S
C211 C216 1.418 . S
C212 H207 0.930 . S
C212 C215 1.404 . S
C212 C216 1.353 . S
N213 Co178 2.145 . S
N213 C214 1.397 . S
N213 C215 1.334 . S
C214 H195 0.929 . S
C214 C211 1.388 . S
C214 N213 1.397 . S
C215 H196 0.929 . S
C215 C212 1.404 . S
C215 N213 1.334 . S
C216 H208 0.930 . S
C216 C211 1.418 . S
C216 C212 1.353 . S
C217 H187 0.930 . S
C217 N218 1.330 . S
C217 C219 1.446 . S
N218 Co177 2.151 . S
N218 C217 1.330 . S
N218 C222 1.418 . S
C219 H198 0.929 . S
C219 C217 1.446 . S
C219 C220 1.332 . S
C220 H200 0.931 . S
C220 C219 1.332 . S
C220 C221 1.267 . S
C221 H189 0.929 . S
C221 C220 1.267 . S
C221 C222 1.251 . S
C222 H192 0.929 . S
C222 N218 1.418 . S
C222 C221 1.251 . S
C223 H190 0.930 . S
C223 C225 1.406 . S
C223 C228 1.261 . S
C224 H191 0.930 . S
C224 N226 1.325 . S
C224 C227 1.357 . S
C225 H193 0.928 . S
C225 C223 1.406 . S
C225 N226 1.261 . S
N226 Co177 2.214 . S
N226 C224 1.325 . S
N226 C225 1.261 . S
C227 H197 0.931 . S
C227 C224 1.357 . S
C227 C228 1.312 . S
C228 H199 0.930 . S
C228 C223 1.261 . S
C228 C227 1.312 . S
C229 O201 1.214 . S
C229 O209 1.234 . S
C230 H202 0.929 . S
C230 C233 1.391 . S
C230 C235 1.391 . S
C231 H203 0.929 . S
C231 C232 1.390 . S
C231 N234 1.391 . S
C232 H204 0.930 . S
C232 C231 1.390 . S
C232 C233 1.392 . S
C233 H205 0.929 . S
C233 C230 1.391 . S
C233 C232 1.392 . S
N234 Co178 2.257 . S
N234 C231 1.391 . S
N234 C235 1.388 . S
C235 H206 0.930 . S
C235 C230 1.391 . S
C235 N234 1.388 . S
Co236 O238 2.143 . S
Co236 O244 2.074 . S
Co236 O247 2.093 . S
Co236 O260 2.097 . S
Co236 N277 2.151 . S
Co236 N285 2.214 . S
Co237 O238 2.160 . S
Co237 O243 2.058 . S
Co237 O253 2.057 . S
Co237 O268 2.037 . S
Co237 N272 2.145 . S
Co237 N293 2.257 . S
O238 Co236 2.143 . S
O238 Co237 2.160 . S
C239 O240 1.278 . S
C239 O247 1.224 . S
O240 C239 1.278 . S
C241 O242 1.245 . S
C241 O253 1.232 . S
O242 C241 1.245 . S
O243 Co237 2.058 . S
O243 C269 1.269 . S
O244 Co236 2.074 . S
O244 C269 1.257 . S
H245 C270 0.930 . S
H246 C276 0.930 . S
O247 Co236 2.093 . S
O247 C239 1.224 . S
H248 C280 0.929 . S
H249 C282 0.930 . S
H250 C283 0.930 . S
H251 C281 0.929 . S
H252 C284 0.928 . S
O253 Co237 2.057 . S
O253 C241 1.232 . S
H254 C273 0.929 . S
H255 C274 0.929 . S
H256 C286 0.931 . S
H257 C278 0.929 . S
H258 C287 0.930 . S
H259 C279 0.931 . S
O260 Co236 2.097 . S
O260 C288 1.214 . S
H261 C289 0.929 . S
H262 C290 0.929 . S
H263 C291 0.930 . S
H264 C292 0.929 . S
H265 C294 0.930 . S
H266 C271 0.930 . S
H267 C275 0.930 . S
O268 Co237 2.037 . S
O268 C288 1.234 . S
C269 O243 1.269 . S
C269 O244 1.257 . S
C270 H245 0.930 . S
C270 C273 1.388 . S
C270 C275 1.418 . S
C271 H266 0.930 . S
C271 C274 1.404 . S
C271 C275 1.353 . S
N272 Co237 2.145 . S
N272 C273 1.397 . S
N272 C274 1.334 . S
C273 H254 0.929 . S
C273 C270 1.388 . S
C273 N272 1.397 . S
C274 H255 0.929 . S
C274 C271 1.404 . S
C274 N272 1.334 . S
C275 H267 0.930 . S
C275 C270 1.418 . S
C275 C271 1.353 . S
C276 H246 0.930 . S
C276 N277 1.330 . S
C276 C278 1.446 . S
N277 Co236 2.151 . S
N277 C276 1.330 . S
N277 C281 1.418 . S
C278 H257 0.929 . S
C278 C276 1.446 . S
C278 C279 1.332 . S
C279 H259 0.931 . S
C279 C278 1.332 . S
C279 C280 1.267 . S
C280 H248 0.929 . S
C280 C279 1.267 . S
C280 C281 1.251 . S
C281 H251 0.929 . S
C281 N277 1.418 . S
C281 C280 1.251 . S
C282 H249 0.930 . S
C282 C284 1.406 . S
C282 C287 1.261 . S
C283 H250 0.930 . S
C283 N285 1.325 . S
C283 C286 1.357 . S
C284 H252 0.928 . S
C284 C282 1.406 . S
C284 N285 1.261 . S
N285 Co236 2.214 . S
N285 C283 1.325 . S
N285 C284 1.261 . S
C286 H256 0.931 . S
C286 C283 1.357 . S
C286 C287 1.312 . S
C287 H258 0.930 . S
C287 C282 1.261 . S
C287 C286 1.312 . S
C288 O260 1.214 . S
C288 O268 1.234 . S
C289 H261 0.929 . S
C289 C292 1.391 . S
C289 C294 1.391 . S
C290 H262 0.929 . S
C290 C291 1.390 . S
C290 N293 1.391 . S
C291 H263 0.930 . S
C291 C290 1.390 . S
C291 C292 1.392 . S
C292 H264 0.929 . S
C292 C289 1.391 . S
C292 C291 1.392 . S
N293 Co237 2.257 . S
N293 C290 1.391 . S
N293 C294 1.388 . S
C294 H265 0.930 . S
C294 C289 1.391 . S
C294 N293 1.388 . S
Co295 O297 2.143 . S
Co295 O303 2.074 . S
Co295 O306 2.093 . S
Co295 O319 2.097 . S
Co295 N336 2.151 . S
Co295 N344 2.214 . S
Co296 O297 2.160 . S
Co296 O302 2.058 . S
Co296 O312 2.057 . S
Co296 O327 2.037 . S
Co296 N331 2.145 . S
Co296 N352 2.257 . S
O297 Co295 2.143 . S
O297 Co296 2.160 . S
C298 O299 1.278 . S
C298 O306 1.224 . S
O299 C298 1.278 . S
C300 O301 1.245 . S
C300 O312 1.232 . S
O301 C300 1.245 . S
O302 Co296 2.058 . S
O302 C328 1.269 . S
O303 Co295 2.074 . S
O303 C328 1.257 . S
H304 C329 0.930 . S
H305 C335 0.930 . S
O306 Co295 2.093 . S
O306 C298 1.224 . S
H307 C339 0.929 . S
H308 C341 0.930 . S
H309 C342 0.930 . S
H310 C340 0.929 . S
H311 C343 0.928 . S
O312 Co296 2.057 . S
O312 C300 1.232 . S
H313 C332 0.929 . S
H314 C333 0.929 . S
H315 C345 0.931 . S
H316 C337 0.929 . S
H317 C346 0.930 . S
H318 C338 0.931 . S
O319 Co295 2.097 . S
O319 C347 1.214 . S
H320 C348 0.929 . S
H321 C349 0.929 . S
H322 C350 0.930 . S
H323 C351 0.929 . S
H324 C353 0.930 . S
H325 C330 0.930 . S
H326 C334 0.930 . S
O327 Co296 2.037 . S
O327 C347 1.234 . S
C328 O302 1.269 . S
C328 O303 1.257 . S
C329 H304 0.930 . S
C329 C332 1.388 . S
C329 C334 1.418 . S
C330 H325 0.930 . S
C330 C333 1.404 . S
C330 C334 1.353 . S
N331 Co296 2.145 . S
N331 C332 1.397 . S
N331 C333 1.334 . S
C332 H313 0.929 . S
C332 C329 1.388 . S
C332 N331 1.397 . S
C333 H314 0.929 . S
C333 C330 1.404 . S
C333 N331 1.334 . S
C334 H326 0.930 . S
C334 C329 1.418 . S
C334 C330 1.353 . S
C335 H305 0.930 . S
C335 N336 1.330 . S
C335 C337 1.446 . S
N336 Co295 2.151 . S
N336 C335 1.330 . S
N336 C340 1.418 . S
C337 H316 0.929 . S
C337 C335 1.446 . S
C337 C338 1.332 . S
C338 H318 0.931 . S
C338 C337 1.332 . S
C338 C339 1.267 . S
C339 H307 0.929 . S
C339 C338 1.267 . S
C339 C340 1.251 . S
C340 H310 0.929 . S
C340 N336 1.418 . S
C340 C339 1.251 . S
C341 H308 0.930 . S
C341 C343 1.406 . S
C341 C346 1.261 . S
C342 H309 0.930 . S
C342 N344 1.325 . S
C342 C345 1.357 . S
C343 H311 0.928 . S
C343 C341 1.406 . S
C343 N344 1.261 . S
N344 Co295 2.214 . S
N344 C342 1.325 . S
N344 C343 1.261 . S
C345 H315 0.931 . S
C345 C342 1.357 . S
C345 C346 1.312 . S
C346 H317 0.930 . S
C346 C341 1.261 . S
C346 C345 1.312 . S
C347 O319 1.214 . S
C347 O327 1.234 . S
C348 H320 0.929 . S
C348 C351 1.391 . S
C348 C353 1.391 . S
C349 H321 0.929 . S
C349 C350 1.390 . S
C349 N352 1.391 . S
C350 H322 0.930 . S
C350 C349 1.390 . S
C350 C351 1.392 . S
C351 H323 0.929 . S
C351 C348 1.391 . S
C351 C350 1.392 . S
N352 Co296 2.257 . S
N352 C349 1.391 . S
N352 C353 1.388 . S
C353 H324 0.930 . S
C353 C348 1.391 . S
C353 N352 1.388 . S
Co354 O356 2.143 . S
Co354 O362 2.074 . S
Co354 O365 2.093 . S
Co354 O378 2.097 . S
Co354 N395 2.151 . S
Co354 N403 2.214 . S
Co355 O356 2.160 . S
Co355 O361 2.058 . S
Co355 O371 2.057 . S
Co355 O386 2.037 . S
Co355 N390 2.145 . S
Co355 N411 2.257 . S
O356 Co354 2.143 . S
O356 Co355 2.160 . S
C357 O358 1.278 . S
C357 O365 1.224 . S
O358 C357 1.278 . S
C359 O360 1.245 . S
C359 O371 1.232 . S
O360 C359 1.245 . S
O361 Co355 2.058 . S
O361 C387 1.269 . S
O362 Co354 2.074 . S
O362 C387 1.257 . S
H363 C388 0.930 . S
H364 C394 0.930 . S
O365 Co354 2.093 . S
O365 C357 1.224 . S
H366 C398 0.929 . S
H367 C400 0.930 . S
H368 C401 0.930 . S
H369 C399 0.929 . S
H370 C402 0.928 . S
O371 Co355 2.057 . S
O371 C359 1.232 . S
H372 C391 0.929 . S
H373 C392 0.929 . S
H374 C404 0.931 . S
H375 C396 0.922 1_545 S
H376 C405 0.930 . S
H377 C397 0.931 . S
O378 Co354 2.097 . S
O378 C406 1.214 . S
H379 C407 0.929 . S
H380 C408 0.929 . S
H381 C409 0.930 . S
H382 C410 0.929 . S
H383 C412 0.930 . S
H384 C389 0.930 . S
H385 C393 0.930 . S
O386 Co355 2.037 . S
O386 C406 1.234 . S
C387 O361 1.269 . S
C387 O362 1.257 . S
C388 H363 0.930 . S
C388 C391 1.388 . S
C388 C393 1.418 . S
C389 H384 0.930 . S
C389 C392 1.404 . S
C389 C393 1.353 . S
N390 Co355 2.145 . S
N390 C391 1.397 . S
N390 C392 1.334 . S
C391 H372 0.929 . S
C391 C388 1.388 . S
C391 N390 1.397 . S
C392 H373 0.929 . S
C392 C389 1.404 . S
C392 N390 1.334 . S
C393 H385 0.930 . S
C393 C388 1.418 . S
C393 C389 1.353 . S
C394 H364 0.930 . S
C394 N395 1.330 . S
C394 C396 1.446 . S
N395 Co354 2.151 . S
N395 C394 1.330 . S
N395 C399 1.418 . S
C396 H375 0.922 1_565 S
C396 C394 1.446 . S
C396 C397 1.332 . S
C397 H377 0.931 . S
C397 C396 1.332 . S
C397 C398 1.267 . S
C398 H366 0.929 . S
C398 C397 1.267 . S
C398 C399 1.251 . S
C399 H369 0.929 . S
C399 N395 1.418 . S
C399 C398 1.251 . S
C400 H367 0.930 . S
C400 C402 1.406 . S
C400 C405 1.261 . S
C401 H368 0.930 . S
C401 N403 1.325 . S
C401 C404 1.357 . S
C402 H370 0.928 . S
C402 C400 1.406 . S
C402 N403 1.261 . S
N403 Co354 2.214 . S
N403 C401 1.325 . S
N403 C402 1.261 . S
C404 H374 0.931 . S
C404 C401 1.357 . S
C404 C405 1.312 . S
C405 H376 0.930 . S
C405 C400 1.261 . S
C405 C404 1.312 . S
C406 O378 1.214 . S
C406 O386 1.234 . S
C407 H379 0.929 . S
C407 C410 1.391 . S
C407 C412 1.391 . S
C408 H380 0.929 . S
C408 C409 1.390 . S
C408 N411 1.391 . S
C409 H381 0.930 . S
C409 C408 1.390 . S
C409 C410 1.392 . S
C410 H382 0.929 . S
C410 C407 1.391 . S
C410 C409 1.392 . S
N411 Co355 2.257 . S
N411 C408 1.391 . S
N411 C412 1.388 . S
C412 H383 0.930 . S
C412 C407 1.391 . S
C412 N411 1.388 . S
Co413 O415 2.143 . S
Co413 O421 2.074 . S
Co413 O424 2.093 . S
Co413 O437 2.097 . S
Co413 N454 2.151 . S
Co413 N462 2.214 . S
Co414 O415 2.160 . S
Co414 O420 2.058 . S
Co414 O430 2.057 . S
Co414 O445 2.037 . S
Co414 N449 2.145 . S
Co414 N470 2.257 . S
O415 Co413 2.143 . S
O415 Co414 2.160 . S
C416 O417 1.278 . S
C416 O424 1.224 . S
O417 C416 1.278 . S
C418 O419 1.245 . S
C418 O430 1.232 . S
O419 C418 1.245 . S
O420 Co414 2.058 . S
O420 C446 1.269 . S
O421 Co413 2.074 . S
O421 C446 1.257 . S
H422 C447 0.930 . S
H423 C453 0.930 . S
O424 Co413 2.093 . S
O424 C416 1.224 . S
H425 C457 0.929 . S
H426 C459 0.930 . S
H427 C460 0.930 . S
H428 C458 0.929 . S
H429 C461 0.928 . S
O430 Co414 2.057 . S
O430 C418 1.232 . S
H431 C450 0.929 . S
H432 C451 0.929 . S
H433 C463 0.931 . S
H434 C455 0.929 . S
H435 C464 0.930 . S
H436 C456 0.931 . S
O437 Co413 2.097 . S
O437 C465 1.214 . S
H438 C466 0.929 . S
H439 C467 0.929 . S
H440 C468 0.930 . S
H441 C469 0.929 . S
H442 C471 0.930 . S
H443 C448 0.930 . S
H444 C452 0.930 . S
O445 Co414 2.037 . S
O445 C465 1.234 . S
C446 O420 1.269 . S
C446 O421 1.257 . S
C447 H422 0.930 . S
C447 C450 1.388 . S
C447 C452 1.418 . S
C448 H443 0.930 . S
C448 C451 1.404 . S
C448 C452 1.353 . S
N449 Co414 2.145 . S
N449 C450 1.397 . S
N449 C451 1.334 . S
C450 H431 0.929 . S
C450 C447 1.388 . S
C450 N449 1.397 . S
C451 H432 0.929 . S
C451 C448 1.404 . S
C451 N449 1.334 . S
C452 H444 0.930 . S
C452 C447 1.418 . S
C452 C448 1.353 . S
C453 H423 0.930 . S
C453 N454 1.330 . S
C453 C455 1.446 . S
N454 Co413 2.151 . S
N454 C453 1.330 . S
N454 C458 1.418 . S
C455 H434 0.929 . S
C455 C453 1.446 . S
C455 C456 1.332 . S
C456 H436 0.931 . S
C456 C455 1.332 . S
C456 C457 1.267 . S
C457 H425 0.929 . S
C457 C456 1.267 . S
C457 C458 1.251 . S
C458 H428 0.929 . S
C458 N454 1.418 . S
C458 C457 1.251 . S
C459 H426 0.930 . S
C459 C461 1.406 . S
C459 C464 1.261 . S
C460 H427 0.930 . S
C460 N462 1.325 . S
C460 C463 1.357 . S
C461 H429 0.928 . S
C461 C459 1.406 . S
C461 N462 1.261 . S
N462 Co413 2.214 . S
N462 C460 1.325 . S
N462 C461 1.261 . S
C463 H433 0.931 . S
C463 C460 1.357 . S
C463 C464 1.312 . S
C464 H435 0.930 . S
C464 C459 1.261 . S
C464 C463 1.312 . S
C465 O437 1.214 . S
C465 O445 1.234 . S
C466 H438 0.929 . S
C466 C469 1.391 . S
C466 C471 1.391 . S
C467 H439 0.929 . S
C467 C468 1.390 . S
C467 N470 1.391 . S
C468 H440 0.930 . S
C468 C467 1.390 . S
C468 C469 1.392 . S
C469 H441 0.929 . S
C469 C466 1.391 . S
C469 C468 1.392 . S
N470 Co414 2.257 . S
N470 C467 1.391 . S
N470 C471 1.388 . S
C471 H442 0.930 . S
C471 C466 1.391 . S
C471 N470 1.388 . S
Co472 O474 2.143 . S
Co472 O480 2.074 . S
Co472 O483 2.093 . S
Co472 O496 2.097 . S
Co472 N513 2.151 . S
Co472 N521 2.214 . S
Co473 O474 2.160 . S
Co473 O479 2.058 . S
Co473 O489 2.057 . S
Co473 O504 2.037 . S
Co473 N508 2.145 . S
Co473 N529 2.257 . S
O474 Co472 2.143 . S
O474 Co473 2.160 . S
C475 O476 1.278 . S
C475 O483 1.224 . S
O476 C475 1.278 . S
C477 O478 1.245 . S
C477 O489 1.232 . S
O478 C477 1.245 . S
O479 Co473 2.058 . S
O479 C505 1.269 . S
O480 Co472 2.074 . S
O480 C505 1.257 . S
H481 C506 0.930 . S
H482 C512 0.930 . S
O483 Co472 2.093 . S
O483 C475 1.224 . S
H484 C516 0.929 . S
H485 C518 0.930 . S
H486 C519 0.930 . S
H487 C517 0.929 . S
H488 C520 0.928 . S
O489 Co473 2.057 . S
O489 C477 1.232 . S
H490 C509 0.929 . S
H491 C510 0.929 . S
H492 C522 0.931 . S
H493 C514 0.929 . S
H494 C523 0.930 . S
H495 C515 0.931 . S
O496 Co472 2.097 . S
O496 C524 1.214 . S
H497 C525 0.929 . S
H498 C526 0.929 . S
H499 C527 0.930 . S
H500 C528 0.929 . S
H501 C530 0.930 . S
H502 C507 0.930 . S
H503 C511 0.930 . S
O504 Co473 2.037 . S
O504 C524 1.234 . S
C505 O479 1.269 . S
C505 O480 1.257 . S
C506 H481 0.930 . S
C506 C509 1.388 . S
C506 C511 1.418 . S
C507 H502 0.930 . S
C507 C510 1.404 . S
C507 C511 1.353 . S
N508 Co473 2.145 . S
N508 C509 1.397 . S
N508 C510 1.334 . S
C509 H490 0.929 . S
C509 C506 1.388 . S
C509 N508 1.397 . S
C510 H491 0.929 . S
C510 C507 1.404 . S
C510 N508 1.334 . S
C511 H503 0.930 . S
C511 C506 1.418 . S
C511 C507 1.353 . S
C512 H482 0.930 . S
C512 N513 1.330 . S
C512 C514 1.446 . S
N513 Co472 2.151 . S
N513 C512 1.330 . S
N513 C517 1.418 . S
C514 H493 0.929 . S
C514 C512 1.446 . S
C514 C515 1.332 . S
C515 H495 0.931 . S
C515 C514 1.332 . S
C515 C516 1.267 . S
C516 H484 0.929 . S
C516 C515 1.267 . S
C516 C517 1.251 . S
C517 H487 0.929 . S
C517 N513 1.418 . S
C517 C516 1.251 . S
C518 H485 0.930 . S
C518 C520 1.406 . S
C518 C523 1.261 . S
C519 H486 0.930 . S
C519 N521 1.325 . S
C519 C522 1.357 . S
C520 H488 0.928 . S
C520 C518 1.406 . S
C520 N521 1.261 . S
N521 Co472 2.214 . S
N521 C519 1.325 . S
N521 C520 1.261 . S
C522 H492 0.931 . S
C522 C519 1.357 . S
C522 C523 1.312 . S
C523 H494 0.930 . S
C523 C518 1.261 . S
C523 C522 1.312 . S
C524 O496 1.214 . S
C524 O504 1.234 . S
C525 H497 0.929 . S
C525 C528 1.391 . S
C525 C530 1.391 . S
C526 H498 0.929 . S
C526 C527 1.390 . S
C526 N529 1.391 . S
C527 H499 0.930 . S
C527 C526 1.390 . S
C527 C528 1.392 . S
C528 H500 0.929 . S
C528 C525 1.391 . S
C528 C527 1.392 . S
N529 Co473 2.257 . S
N529 C526 1.391 . S
N529 C530 1.388 . S
C530 H501 0.930 . S
C530 C525 1.391 . S
C530 N529 1.388 . S
C531 C532 1.170 . S
C531 C533 1.380 . S
C532 C531 1.170 . S
C533 C531 1.380 . S
C533 C534 1.170 . S
C534 C533 1.170 . S
C535 C536 1.170 . S
C535 C537 1.380 1_565 S
C536 C535 1.170 . S
C537 C535 1.380 1_545 S
C537 C538 1.170 . S
C538 C537 1.170 . S
C539 C540 1.170 . S
C539 C541 1.380 1_655 S
C540 C539 1.170 . S
C541 C539 1.380 1_455 S
C541 C542 1.170 . S
C542 C541 1.170 . S
C543 C544 1.170 . S
C543 C545 1.380 . S
C544 C543 1.170 . S
C545 C543 1.380 . S
C545 C546 1.170 . S
C546 C545 1.170 . S
C547 C548 1.170 . S
C547 C549 1.380 . S
C548 C547 1.170 . S
C549 C547 1.380 . S
C549 C550 1.170 . S
C550 C549 1.170 . S
C551 C552 1.170 . S
C551 C553 1.380 . S
C552 C551 1.170 . S
C553 C551 1.380 . S
C553 C554 1.170 . S
C554 C553 1.170 . S
C555 C556 1.170 . S
C555 C557 1.380 . S
C556 C555 1.170 . S
C557 C555 1.380 . S
C557 C558 1.170 . S
C558 C557 1.170 . S
C559 C560 1.170 . S
C559 C561 1.380 . S
C560 C559 1.170 . S
C561 C559 1.380 . S
C561 C562 1.170 . S
C562 C561 1.170 . S
C563 C564 1.170 . S
C563 C565 1.380 . S
C564 C563 1.170 . S
C565 C563 1.380 . S
C565 C566 1.170 . S
C566 C565 1.170 . S
C567 C568 1.170 . S
C567 C569 1.380 . S
C568 C567 1.170 . S
C569 C567 1.380 . S
C569 C570 1.170 . S
C570 C569 1.170 . S
C571 C572 1.170 . S
C571 C573 1.380 . S
C572 C571 1.170 . S
C573 C571 1.380 . S
C573 C574 1.170 . S
C574 C573 1.170 . S
C575 C576 1.170 . S
C575 C577 1.380 . S
C576 C575 1.170 . S
C577 C575 1.380 . S
C577 C578 1.170 . S
C578 C577 1.170 . S
C579 C580 1.170 . S
C579 C581 1.380 . S
C580 C579 1.170 . S
C581 C579 1.380 . S
C581 C582 1.170 . S
C582 C581 1.170 . S
C583 C584 1.170 . S
C583 C585 1.380 . S
C584 C583 1.170 . S
C585 C583 1.380 . S
C585 C586 1.170 . S
C586 C585 1.170 . S
C587 C588 1.170 . S
C587 C589 1.380 . S
C588 C587 1.170 . S
C589 C587 1.380 . S
C589 C590 1.170 . S
C590 C589 1.170 . S
C591 C592 1.170 . S
C591 C593 1.380 1_455 S
C592 C591 1.170 . S
C593 C591 1.380 1_655 S
C593 C594 1.170 . S
C594 C593 1.170 . S
C595 C596 1.170 . S
C595 C597 1.380 . S
C596 C595 1.170 . S
C597 C595 1.380 . S
C597 C598 1.170 . S
C598 C597 1.170 . S
C599 C600 1.170 . S
C599 C601 1.380 1_565 S
C600 C599 1.170 . S
C601 C599 1.380 1_545 S
C601 C602 1.170 . S
C602 C601 1.170 . S
C532 C170 1.292 . S
C534 C33 1.302 . S
C536 C111 1.301 . S
C538 C52 1.288 . S
C540 C92 1.295 . S
C542 C151 1.279 . S
C544 C328 1.299 . S
C546 C229 1.289 . S
C548 C288 1.299 . S
C550 C210 1.276 . S
C552 C269 1.285 . S
C554 C347 1.307 . S
C556 C387 1.280 . S
C558 C524 1.304 . S
C560 C406 1.305 . S
C562 C465 1.289 . S
C564 C446 1.283 . S
C566 C505 1.300 . S
C568 C5 1.495 . S
C570 C418 1.492 . S
C572 C62 1.485 . S
C574 C475 1.494 . S
C576 C357 1.496 . S
C578 C123 1.498 . S
C580 C239 1.488 . S
C582 C121 1.495 . S
C584 C3 1.495 . S
C586 C298 1.487 . S
C588 C180 1.495 . S
C590 C64 1.501 . S
C592 C416 1.492 . S
C594 C300 1.501 . S
C596 C182 1.493 . S
C598 C477 1.493 . S
C600 C359 1.498 . S
C602 C241 1.502 . S
