# Generated by pormake.
# Topology umu, (4)-cn, num edge types: 1
# Building blocks:
#     Node 0, Type 0, BuildingBlock: NAHDIM_clean_sbu_0, # of connection points: 4
#     Node 1, Type 0, BuildingBlock: NAHDIM_clean_sbu_0, # of connection points: 4
#     Node 2, Type 0, BuildingBlock: NAHDIM_clean_sbu_0, # of connection points: 4
#     Node 3, Type 0, BuildingBlock: NAHDIM_clean_sbu_0, # of connection points: 4
#     Node 4, Type 0, BuildingBlock: NAHDIM_clean_sbu_0, # of connection points: 4
#     Node 5, Type 0, BuildingBlock: NAHDIM_clean_sbu_0, # of connection points: 4
#     Node 6, Type 0, BuildingBlock: NAHDIM_clean_sbu_0, # of connection points: 4
#     Node 7, Type 0, BuildingBlock: NAHDIM_clean_sbu_0, # of connection points: 4
#     Node 8, Type 0, BuildingBlock: NAHDIM_clean_sbu_0, # of connection points: 4
#     Node 9, Type 0, BuildingBlock: NAHDIM_clean_sbu_0, # of connection points: 4
#     Node 10, Type 0, BuildingBlock: NAHDIM_clean_sbu_0, # of connection points: 4
#     Node 11, Type 0, BuildingBlock: NAHDIM_clean_sbu_0, # of connection points: 4
#     Node 12, Type 0, BuildingBlock: NAHDIM_clean_sbu_0, # of connection points: 4
#     Node 13, Type 0, BuildingBlock: NAHDIM_clean_sbu_0, # of connection points: 4
#     Node 14, Type 0, BuildingBlock: NAHDIM_clean_sbu_0, # of connection points: 4
#     Node 15, Type 0, BuildingBlock: NAHDIM_clean_sbu_0, # of connection points: 4
#     Node 16, Type 0, BuildingBlock: NAHDIM_clean_sbu_0, # of connection points: 4
#     Node 17, Type 0, BuildingBlock: NAHDIM_clean_sbu_0, # of connection points: 4
#     Node 18, Type 0, BuildingBlock: NAHDIM_clean_sbu_0, # of connection points: 4
#     Node 19, Type 0, BuildingBlock: NAHDIM_clean_sbu_0, # of connection points: 4
#     Node 20, Type 0, BuildingBlock: NAHDIM_clean_sbu_0, # of connection points: 4
#     Node 21, Type 0, BuildingBlock: NAHDIM_clean_sbu_0, # of connection points: 4
#     Node 22, Type 0, BuildingBlock: NAHDIM_clean_sbu_0, # of connection points: 4
#     Node 23, Type 0, BuildingBlock: NAHDIM_clean_sbu_0, # of connection points: 4
#     Node 24, Type 0, BuildingBlock: NAHDIM_clean_sbu_0, # of connection points: 4
#     Node 25, Type 0, BuildingBlock: NAHDIM_clean_sbu_0, # of connection points: 4
#     Node 26, Type 0, BuildingBlock: NAHDIM_clean_sbu_0, # of connection points: 4
#     Node 27, Type 0, BuildingBlock: NAHDIM_clean_sbu_0, # of connection points: 4
#     Node 28, Type 0, BuildingBlock: NAHDIM_clean_sbu_0, # of connection points: 4
#     Node 29, Type 0, BuildingBlock: NAHDIM_clean_sbu_0, # of connection points: 4
#     Node 30, Type 0, BuildingBlock: NAHDIM_clean_sbu_0, # of connection points: 4
#     Node 31, Type 0, BuildingBlock: NAHDIM_clean_sbu_0, # of connection points: 4
#     Edge 32, Type (0, 0), None
#     Edge 33, Type (0, 0), None
#     Edge 34, Type (0, 0), None
#     Edge 35, Type (0, 0), None
#     Edge 36, Type (0, 0), None
#     Edge 37, Type (0, 0), None
#     Edge 38, Type (0, 0), None
#     Edge 39, Type (0, 0), None
#     Edge 40, Type (0, 0), None
#     Edge 41, Type (0, 0), None
#     Edge 42, Type (0, 0), None
#     Edge 43, Type (0, 0), None
#     Edge 44, Type (0, 0), None
#     Edge 45, Type (0, 0), None
#     Edge 46, Type (0, 0), None
#     Edge 47, Type (0, 0), None
#     Edge 48, Type (0, 0), None
#     Edge 49, Type (0, 0), None
#     Edge 50, Type (0, 0), None
#     Edge 51, Type (0, 0), None
#     Edge 52, Type (0, 0), None
#     Edge 53, Type (0, 0), None
#     Edge 54, Type (0, 0), None
#     Edge 55, Type (0, 0), None
#     Edge 56, Type (0, 0), None
#     Edge 57, Type (0, 0), None
#     Edge 58, Type (0, 0), None
#     Edge 59, Type (0, 0), None
#     Edge 60, Type (0, 0), None
#     Edge 61, Type (0, 0), None
#     Edge 62, Type (0, 0), None
#     Edge 63, Type (0, 0), None
#     Edge 64, Type (0, 0), None
#     Edge 65, Type (0, 0), None
#     Edge 66, Type (0, 0), None
#     Edge 67, Type (0, 0), None
#     Edge 68, Type (0, 0), None
#     Edge 69, Type (0, 0), None
#     Edge 70, Type (0, 0), None
#     Edge 71, Type (0, 0), None
#     Edge 72, Type (0, 0), None
#     Edge 73, Type (0, 0), None
#     Edge 74, Type (0, 0), None
#     Edge 75, Type (0, 0), None
#     Edge 76, Type (0, 0), None
#     Edge 77, Type (0, 0), None
#     Edge 78, Type (0, 0), None
#     Edge 79, Type (0, 0), None
#     Edge 80, Type (0, 0), None
#     Edge 81, Type (0, 0), None
#     Edge 82, Type (0, 0), None
#     Edge 83, Type (0, 0), None
#     Edge 84, Type (0, 0), None
#     Edge 85, Type (0, 0), None
#     Edge 86, Type (0, 0), None
#     Edge 87, Type (0, 0), None
#     Edge 88, Type (0, 0), None
#     Edge 89, Type (0, 0), None
#     Edge 90, Type (0, 0), None
#     Edge 91, Type (0, 0), None
#     Edge 92, Type (0, 0), None
#     Edge 93, Type (0, 0), None
#     Edge 94, Type (0, 0), None
#     Edge 95, Type (0, 0), None
# Relax obj value: 0.133
# Max RMSD: 0.106
# Mean RMSD: 0.106
data_MOF--net-umu--node1-NAHDIM_clean_sbu_0--edge1-none
_symmetry_space_group_name_H-M    P1
_symmetry_Int_Tables_number       1
_symmetry_cell_setting            triclinic
loop_
_symmetry_equiv_pos_as_xyz
'x, y, z'
_cell_length_a     40.260311
_cell_length_b     40.277647
_cell_length_c     10.279292
_cell_angle_alpha  90.006622
_cell_angle_beta   89.99776
_cell_angle_gamma 90.000364
loop_
_atom_site_label
_atom_site_type_symbol
_atom_site_fract_x
_atom_site_fract_y
_atom_site_fract_z
_atom_type_partial_charge
C0 C 0.16522 0.10746 0.90593 0.0
O1 O 0.19673 0.09904 0.90571 0.0
O2 O 0.21712 0.1495 0.17602 0.0
Zn3 Zn 0.19419 0.16543 0.01114 0.0
O4 O 0.22725 0.16661 0.86581 0.0
C5 C 0.17266 0.22444 0.1518 0.0
O6 O 0.17167 0.20451 0.25279 0.0
O7 O 0.15673 0.13545 0.95262 0.0
C8 C 0.22217 0.18555 0.76907 0.0
O9 O 0.19531 0.20399 0.7648 0.0
C10 C 0.24655 0.15952 0.19892 0.0
O11 O 0.2617 0.17824 0.11282 0.0
O12 O 0.1796 0.21279 0.04018 0.0
C13 C 0.14463 0.91414 0.1558 0.0
O14 O 0.15308 0.94563 0.15548 0.0
O15 O 0.10262 0.96607 0.42597 0.0
Zn16 Zn 0.08668 0.94316 0.26109 0.0
O17 O 0.08551 0.97619 0.11575 0.0
C18 C 0.02764 0.92166 0.40176 0.0
O19 O 0.04759 0.92066 0.50273 0.0
O20 O 0.11664 0.90568 0.20259 0.0
C21 C 0.06658 0.97111 0.01898 0.0
O22 O 0.04813 0.94425 0.0147 0.0
C23 C 0.0926 0.99549 0.44887 0.0
O24 O 0.07385 0.01062 0.36279 0.0
O25 O 0.03929 0.92859 0.29014 0.0
C26 C 0.3379 0.89353 0.40591 0.0
O27 O 0.30639 0.90195 0.4057 0.0
O28 O 0.286 0.8515 0.67599 0.0
Zn29 Zn 0.30893 0.83557 0.51111 0.0
O30 O 0.27588 0.83438 0.36577 0.0
C31 C 0.33046 0.77657 0.65176 0.0
O32 O 0.33145 0.79651 0.75274 0.0
O33 O 0.3464 0.86555 0.45259 0.0
C34 C 0.28096 0.81545 0.26901 0.0
O35 O 0.30783 0.79701 0.26472 0.0
C36 C 0.25658 0.84146 0.6989 0.0
O37 O 0.24144 0.82272 0.61282 0.0
O38 O 0.32353 0.78821 0.54014 0.0
C39 C 0.35849 0.08685 0.65585 0.0
O40 O 0.35004 0.05536 0.65551 0.0
O41 O 0.40049 0.03492 0.92601 0.0
Zn42 Zn 0.41644 0.05783 0.76115 0.0
O43 O 0.41761 0.0248 0.61578 0.0
C44 C 0.47548 0.07933 0.90184 0.0
O45 O 0.45553 0.08033 1.00282 0.0
O46 O 0.38648 0.09531 0.70266 0.0
C47 C 0.43655 0.02988 0.51902 0.0
O48 O 0.45499 0.05674 0.51475 0.0
C49 C 0.41052 0.0055 0.94889 0.0
O50 O 0.42927 0.99037 0.8628 0.0
O51 O 0.46383 0.0724 0.79021 0.0
C52 C 0.16806 0.88925 0.10614 0.0
O53 O 0.19914 0.89762 0.08558 0.0
O54 O 0.21387 0.83244 0.85395 0.0
Zn55 Zn 0.19496 0.8268 0.03632 0.0
O56 O 0.23123 0.8324 0.16705 0.0
C57 C 0.17282 0.76051 0.96201 0.0
O58 O 0.17203 0.77277 0.84371 0.0
O59 O 0.15892 0.85953 0.08474 0.0
C60 C 0.25612 0.8131 0.16593 0.0
O61 O 0.25873 0.79028 0.07524 0.0
C62 C 0.24141 0.84647 0.82757 0.0
O63 O 0.25825 0.86133 0.92016 0.0
O64 O 0.17985 0.77934 0.05733 0.0
C65 C 0.36277 0.91697 0.35623 0.0
O66 O 0.35437 0.94803 0.33579 0.0
O67 O 0.41955 0.96281 0.10391 0.0
Zn68 Zn 0.42522 0.94391 0.28627 0.0
O69 O 0.4196 0.98017 0.41703 0.0
C70 C 0.49154 0.92182 0.21191 0.0
O71 O 0.47927 0.92103 0.09362 0.0
O72 O 0.3925 0.90786 0.33471 0.0
C73 C 0.43889 0.00506 0.41592 0.0
O74 O 0.46172 0.00766 0.32523 0.0
C75 C 0.40551 0.99034 0.07756 0.0
O76 O 0.39066 0.00718 0.17016 0.0
O77 O 0.4727 0.92884 0.30725 0.0
C78 C 0.33507 0.11174 0.60618 0.0
O79 O 0.30399 0.10336 0.58562 0.0
O80 O 0.28926 0.16853 0.35396 0.0
Zn81 Zn 0.30817 0.17418 0.53633 0.0
O82 O 0.2719 0.16859 0.66707 0.0
C83 C 0.3303 0.24046 0.46199 0.0
O84 O 0.33109 0.22819 0.34369 0.0
O85 O 0.34421 0.14145 0.58477 0.0
C86 C 0.24701 0.18789 0.66599 0.0
O87 O 0.24441 0.21071 0.57532 0.0
C88 C 0.26171 0.15451 0.32759 0.0
O89 O 0.24486 0.13968 0.42019 0.0
O90 O 0.32328 0.22164 0.55732 0.0
C91 C 0.14035 0.08402 0.85625 0.0
O92 O 0.14876 0.05296 0.83577 0.0
O93 O 0.08357 0.03818 0.60394 0.0
Zn94 Zn 0.07791 0.05708 0.78631 0.0
O95 O 0.08353 0.02082 0.91703 0.0
C96 C 0.01159 0.07917 0.71199 0.0
O97 O 0.02386 0.07997 0.5937 0.0
O98 O 0.11062 0.09313 0.83476 0.0
C99 C 0.06423 0.99593 0.91591 0.0
O100 O 0.0414 0.99333 0.82522 0.0
C101 C 0.09761 0.01065 0.57755 0.0
O102 O 0.11246 0.99381 0.67013 0.0
O103 O 0.03042 0.07215 0.80732 0.0
C104 C 0.8379 0.89353 0.22722 0.0
O105 O 0.80639 0.90195 0.22744 0.0
O106 O 0.786 0.85149 0.95713 0.0
Zn107 Zn 0.80893 0.83556 0.12201 0.0
O108 O 0.77587 0.83438 0.26735 0.0
C109 C 0.83046 0.77655 0.98136 0.0
O110 O 0.83145 0.79648 0.88037 0.0
O111 O 0.84639 0.86554 0.18053 0.0
C112 C 0.78095 0.81544 0.36408 0.0
O113 O 0.80781 0.797 0.36835 0.0
C114 C 0.75657 0.84148 0.93423 0.0
O115 O 0.74142 0.82275 0.02034 0.0
O116 O 0.82352 0.7882 0.09298 0.0
C117 C 0.85849 0.08685 0.97734 0.0
O118 O 0.85004 0.05536 0.97766 0.0
O119 O 0.9005 0.03492 0.70718 0.0
Zn120 Zn 0.91644 0.05783 0.87205 0.0
O121 O 0.91761 0.0248 0.01739 0.0
C122 C 0.97548 0.07933 0.73138 0.0
O123 O 0.95554 0.08034 0.63039 0.0
O124 O 0.88648 0.09531 0.93055 0.0
C125 C 0.93655 0.02988 0.11416 0.0
O126 O 0.95499 0.05674 0.11844 0.0
C127 C 0.91053 0.0055 0.68427 0.0
O128 O 0.92927 0.99037 0.77035 0.0
O129 O 0.96383 0.0724 0.843 0.0
C130 C 0.66522 0.10746 0.72724 0.0
O131 O 0.69673 0.09904 0.72744 0.0
O132 O 0.71712 0.14949 0.45716 0.0
Zn133 Zn 0.69419 0.16542 0.62204 0.0
O134 O 0.72724 0.16661 0.76738 0.0
C135 C 0.67266 0.22442 0.4814 0.0
O136 O 0.67167 0.20448 0.38042 0.0
O137 O 0.65673 0.13544 0.68056 0.0
C138 C 0.72217 0.18554 0.86414 0.0
O139 O 0.6953 0.20398 0.86843 0.0
C140 C 0.74655 0.15953 0.43425 0.0
O141 O 0.76168 0.17827 0.52034 0.0
O142 O 0.6796 0.21278 0.59302 0.0
C143 C 0.64463 0.91414 0.47729 0.0
O144 O 0.65308 0.94563 0.47763 0.0
O145 O 0.60263 0.96607 0.20713 0.0
Zn146 Zn 0.58668 0.94316 0.37198 0.0
O147 O 0.58551 0.97619 0.51735 0.0
C148 C 0.52764 0.92166 0.2313 0.0
O149 O 0.54759 0.92066 0.1303 0.0
O150 O 0.61664 0.90568 0.43048 0.0
C151 C 0.56657 0.97111 0.61412 0.0
O152 O 0.54813 0.94425 0.61839 0.0
C153 C 0.5926 0.99549 0.18424 0.0
O154 O 0.57385 0.01062 0.27034 0.0
O155 O 0.53929 0.92859 0.34293 0.0
C156 C 0.83507 0.11174 0.02701 0.0
O157 O 0.80398 0.10337 0.04756 0.0
O158 O 0.78925 0.16855 0.2792 0.0
Zn159 Zn 0.80817 0.17419 0.09684 0.0
O160 O 0.77189 0.16859 0.96611 0.0
C161 C 0.8303 0.24048 0.17115 0.0
O162 O 0.83109 0.22822 0.28945 0.0
O163 O 0.8442 0.14145 0.0484 0.0
C164 C 0.747 0.18788 0.96722 0.0
O165 O 0.7444 0.2107 0.05791 0.0
C166 C 0.76171 0.15452 0.30558 0.0
O167 O 0.74487 0.13966 0.21299 0.0
O168 O 0.82327 0.22165 0.07583 0.0
C169 C 0.64035 0.08402 0.77691 0.0
O170 O 0.64875 0.05295 0.79735 0.0
O171 O 0.58357 0.03818 0.02922 0.0
Zn172 Zn 0.5779 0.05708 0.84687 0.0
O173 O 0.58352 0.02082 0.71611 0.0
C174 C 0.51158 0.07917 0.92123 0.0
O175 O 0.52385 0.07997 0.03953 0.0
O176 O 0.61062 0.09313 0.79843 0.0
C177 C 0.56423 0.99593 0.71721 0.0
O178 O 0.5414 0.99333 0.80791 0.0
C179 C 0.59761 0.01065 0.05558 0.0
O180 O 0.61246 0.99381 0.96298 0.0
O181 O 0.53042 0.07215 0.82589 0.0
C182 C 0.66805 0.88925 0.52697 0.0
O183 O 0.69913 0.89763 0.54753 0.0
O184 O 0.71386 0.83247 0.77919 0.0
Zn185 Zn 0.69495 0.82681 0.59682 0.0
O186 O 0.73122 0.83241 0.46609 0.0
C187 C 0.67282 0.76053 0.67118 0.0
O188 O 0.67204 0.7728 0.78947 0.0
O189 O 0.65891 0.85954 0.54838 0.0
C190 C 0.75611 0.8131 0.46717 0.0
O191 O 0.75871 0.79028 0.55783 0.0
C192 C 0.74141 0.84648 0.80556 0.0
O193 O 0.75826 0.86131 0.71296 0.0
O194 O 0.67984 0.77935 0.57584 0.0
C195 C 0.86277 0.91697 0.2769 0.0
O196 O 0.85437 0.94803 0.29737 0.0
O197 O 0.91956 0.96281 0.52921 0.0
Zn198 Zn 0.92522 0.94391 0.34683 0.0
O199 O 0.9196 0.98017 0.21611 0.0
C200 C 0.99154 0.92182 0.42115 0.0
O201 O 0.97927 0.92102 0.53945 0.0
O202 O 0.8925 0.90786 0.29838 0.0
C203 C 0.93889 0.00506 0.21723 0.0
O204 O 0.96172 0.00766 0.30792 0.0
C205 C 0.90552 0.99034 0.55559 0.0
O206 O 0.89066 0.00718 0.46301 0.0
O207 O 0.9727 0.92884 0.32583 0.0
C208 C 0.66522 0.60746 0.40594 0.0
O209 O 0.69673 0.59904 0.40572 0.0
O210 O 0.71712 0.6495 0.67604 0.0
Zn211 Zn 0.69419 0.66543 0.51116 0.0
O212 O 0.72725 0.66661 0.36582 0.0
C213 C 0.67266 0.72444 0.65181 0.0
O214 O 0.67167 0.70451 0.75282 0.0
O215 O 0.65673 0.63545 0.45264 0.0
C216 C 0.72218 0.68555 0.26908 0.0
O217 O 0.69531 0.70399 0.26482 0.0
C218 C 0.74655 0.65951 0.69893 0.0
O219 O 0.76171 0.67824 0.61283 0.0
O220 O 0.6796 0.71279 0.54019 0.0
C221 C 0.64463 0.41414 0.65582 0.0
O222 O 0.65308 0.44563 0.6555 0.0
O223 O 0.60262 0.46607 0.92599 0.0
Zn224 Zn 0.58668 0.44316 0.76111 0.0
O225 O 0.58551 0.47619 0.61577 0.0
C226 C 0.52764 0.42166 0.90178 0.0
O227 O 0.54759 0.42066 1.00275 0.0
O228 O 0.61664 0.40568 0.70261 0.0
C229 C 0.56658 0.47111 0.519 0.0
O230 O 0.54813 0.44425 0.51472 0.0
C231 C 0.5926 0.49549 0.9489 0.0
O232 O 0.57385 0.51062 0.86281 0.0
O233 O 0.53929 0.42859 0.79016 0.0
C234 C 0.8379 0.39353 0.90592 0.0
O235 O 0.80639 0.40195 0.90572 0.0
O236 O 0.786 0.3515 0.176 0.0
Zn237 Zn 0.80893 0.33557 0.01112 0.0
O238 O 0.77588 0.33438 0.86579 0.0
C239 C 0.83046 0.27657 0.15177 0.0
O240 O 0.83146 0.2965 0.25277 0.0
O241 O 0.8464 0.36555 0.95261 0.0
C242 C 0.78096 0.31545 0.76903 0.0
O243 O 0.80783 0.29701 0.76474 0.0
C244 C 0.75658 0.34146 0.19891 0.0
O245 O 0.74144 0.32272 0.11283 0.0
O246 O 0.82353 0.28821 0.04014 0.0
C247 C 0.85849 0.58685 0.15587 0.0
O248 O 0.85004 0.55536 0.15554 0.0
O249 O 0.9005 0.53492 0.42603 0.0
Zn250 Zn 0.91644 0.55783 0.26118 0.0
O251 O 0.91762 0.5248 0.11581 0.0
C252 C 0.97548 0.57933 0.40186 0.0
O253 O 0.95553 0.58033 0.50284 0.0
O254 O 0.88648 0.59531 0.20268 0.0
C255 C 0.93655 0.52988 0.01904 0.0
O256 O 0.95499 0.55674 0.01477 0.0
C257 C 0.91052 0.5055 0.44892 0.0
O258 O 0.92927 0.49037 0.36282 0.0
O259 O 0.96383 0.5724 0.29023 0.0
C260 C 0.66806 0.38925 0.60616 0.0
O261 O 0.69914 0.39762 0.58561 0.0
O262 O 0.71387 0.33244 0.35396 0.0
Zn263 Zn 0.69496 0.3268 0.53633 0.0
O264 O 0.73123 0.3324 0.66706 0.0
C265 C 0.67282 0.26051 0.46201 0.0
O266 O 0.67203 0.27277 0.3437 0.0
O267 O 0.65892 0.35953 0.58476 0.0
C268 C 0.75612 0.3131 0.66595 0.0
O269 O 0.75872 0.29028 0.57526 0.0
C270 C 0.74141 0.34647 0.32759 0.0
O271 O 0.75825 0.36133 0.42017 0.0
O272 O 0.67985 0.27934 0.55734 0.0
C273 C 0.86277 0.41697 0.85625 0.0
O274 O 0.85437 0.44803 0.83581 0.0
O275 O 0.91955 0.46281 0.60394 0.0
Zn276 Zn 0.92522 0.44391 0.7863 0.0
O277 O 0.9196 0.48017 0.91705 0.0
C278 C 0.99154 0.42182 0.71194 0.0
O279 O 0.97927 0.42103 0.59365 0.0
O280 O 0.8925 0.40786 0.83473 0.0
C281 C 0.9389 0.50506 0.91595 0.0
O282 O 0.96172 0.50766 0.82525 0.0
C283 C 0.90551 0.49034 0.57758 0.0
O284 O 0.89066 0.50718 0.67018 0.0
O285 O 0.97271 0.42884 0.80727 0.0
C286 C 0.83507 0.61174 0.1062 0.0
O287 O 0.80399 0.60336 0.08564 0.0
O288 O 0.78926 0.66852 0.85397 0.0
Zn289 Zn 0.80817 0.67418 0.03634 0.0
O290 O 0.7719 0.66859 0.16708 0.0
C291 C 0.8303 0.74046 0.96198 0.0
O292 O 0.83109 0.72819 0.84368 0.0
O293 O 0.84421 0.64145 0.08479 0.0
C294 C 0.74701 0.68789 0.166 0.0
O295 O 0.74441 0.71071 0.07534 0.0
C296 C 0.76171 0.65451 0.82761 0.0
O297 O 0.74486 0.63968 0.9202 0.0
O298 O 0.82328 0.72164 0.05732 0.0
C299 C 0.64035 0.58402 0.35626 0.0
O300 O 0.64876 0.55296 0.33579 0.0
O301 O 0.58357 0.53818 0.10396 0.0
Zn302 Zn 0.57791 0.55708 0.28633 0.0
O303 O 0.58353 0.52082 0.41706 0.0
C304 C 0.51159 0.57917 0.21202 0.0
O305 O 0.52386 0.57997 0.09372 0.0
O306 O 0.61062 0.59313 0.33478 0.0
C307 C 0.56423 0.49593 0.41593 0.0
O308 O 0.5414 0.49333 0.32524 0.0
C309 C 0.59761 0.51065 0.07757 0.0
O310 O 0.61246 0.49381 0.17015 0.0
O311 O 0.53042 0.57215 0.30734 0.0
C312 C 0.3379 0.39353 0.72724 0.0
O313 O 0.30639 0.40195 0.72746 0.0
O314 O 0.286 0.35149 0.45714 0.0
Zn315 Zn 0.30893 0.33556 0.62202 0.0
O316 O 0.27587 0.33438 0.76736 0.0
C317 C 0.33046 0.27655 0.48136 0.0
O318 O 0.33145 0.29648 0.38035 0.0
O319 O 0.34639 0.36554 0.68054 0.0
C320 C 0.28095 0.31544 0.86409 0.0
O321 O 0.30781 0.297 0.86836 0.0
C322 C 0.25657 0.34147 0.43424 0.0
O323 O 0.24142 0.32275 0.52034 0.0
O324 O 0.32353 0.2882 0.59298 0.0
C325 C 0.35849 0.58685 0.47736 0.0
O326 O 0.35004 0.55536 0.47768 0.0
O327 O 0.4005 0.53492 0.2072 0.0
Zn328 Zn 0.41644 0.55783 0.37207 0.0
O329 O 0.41761 0.5248 0.51742 0.0
C330 C 0.47548 0.57933 0.2314 0.0
O331 O 0.45554 0.58034 0.13041 0.0
O332 O 0.38648 0.59531 0.43057 0.0
C333 C 0.43655 0.52988 0.61418 0.0
O334 O 0.45499 0.55674 0.61846 0.0
C335 C 0.41052 0.5055 0.18429 0.0
O336 O 0.42927 0.49037 0.27037 0.0
O337 O 0.46383 0.5724 0.34302 0.0
C338 C 0.16522 0.60746 0.22726 0.0
O339 O 0.19673 0.59904 0.22746 0.0
O340 O 0.21712 0.64949 0.95717 0.0
Zn341 Zn 0.19419 0.66542 0.12205 0.0
O342 O 0.22724 0.66661 0.26739 0.0
C343 C 0.17266 0.72442 0.9814 0.0
O344 O 0.17167 0.70448 0.8804 0.0
O345 O 0.15673 0.63544 0.18057 0.0
C346 C 0.22217 0.68554 0.36415 0.0
O347 O 0.1953 0.70398 0.36844 0.0
C348 C 0.24655 0.65953 0.93426 0.0
O349 O 0.26168 0.67827 0.02034 0.0
O350 O 0.17959 0.71278 0.09302 0.0
C351 C 0.14463 0.41414 0.97731 0.0
O352 O 0.15308 0.44563 0.97765 0.0
O353 O 0.10263 0.46607 0.70715 0.0
Zn354 Zn 0.08668 0.44316 0.87201 0.0
O355 O 0.08551 0.47619 0.01738 0.0
C356 C 0.02764 0.42166 0.73132 0.0
O357 O 0.04759 0.42066 0.63032 0.0
O358 O 0.11664 0.40568 0.9305 0.0
C359 C 0.06657 0.47111 0.11414 0.0
O360 O 0.04813 0.44425 0.11841 0.0
C361 C 0.0926 0.49549 0.68427 0.0
O362 O 0.07385 0.51062 0.77037 0.0
O363 O 0.03929 0.42859 0.84295 0.0
C364 C 0.33507 0.61174 0.52702 0.0
O365 O 0.30398 0.60337 0.54758 0.0
O366 O 0.28925 0.66855 0.77921 0.0
Zn367 Zn 0.30817 0.67419 0.59684 0.0
O368 O 0.27189 0.66859 0.46611 0.0
C369 C 0.3303 0.74048 0.67116 0.0
O370 O 0.33109 0.72823 0.78946 0.0
O371 O 0.3442 0.64146 0.54842 0.0
C372 C 0.247 0.68789 0.46723 0.0
O373 O 0.2444 0.71071 0.55792 0.0
C374 C 0.26171 0.65452 0.80559 0.0
O375 O 0.24487 0.63966 0.713 0.0
O376 O 0.32327 0.72165 0.57583 0.0
C377 C 0.14035 0.58402 0.27693 0.0
O378 O 0.14875 0.55296 0.29738 0.0
O379 O 0.08357 0.53818 0.52925 0.0
Zn380 Zn 0.0779 0.55708 0.34689 0.0
O381 O 0.08352 0.52082 0.21613 0.0
C382 C 0.01159 0.57917 0.42125 0.0
O383 O 0.02385 0.57997 0.53955 0.0
O384 O 0.11062 0.59313 0.29845 0.0
C385 C 0.06423 0.49593 0.21724 0.0
O386 O 0.0414 0.49333 0.30793 0.0
C387 C 0.09761 0.51065 0.5556 0.0
O388 O 0.11246 0.49381 0.463 0.0
O389 O 0.03042 0.57215 0.32592 0.0
C390 C 0.16805 0.38925 0.02699 0.0
O391 O 0.19913 0.39763 0.04754 0.0
O392 O 0.21386 0.33246 0.2792 0.0
Zn393 Zn 0.19495 0.32681 0.09683 0.0
O394 O 0.23122 0.3324 0.9661 0.0
C395 C 0.17282 0.26053 0.17118 0.0
O396 O 0.17203 0.27279 0.28948 0.0
O397 O 0.15891 0.35954 0.04839 0.0
C398 C 0.25611 0.3131 0.96718 0.0
O399 O 0.25871 0.29028 0.05784 0.0
C400 C 0.24141 0.34648 0.30557 0.0
O401 O 0.25826 0.36131 0.21297 0.0
O402 O 0.17984 0.27935 0.07584 0.0
C403 C 0.36277 0.41697 0.77692 0.0
O404 O 0.35437 0.44803 0.79739 0.0
O405 O 0.41956 0.46281 0.02923 0.0
Zn406 Zn 0.42522 0.44391 0.84685 0.0
O407 O 0.4196 0.48017 0.71613 0.0
C408 C 0.49154 0.42182 0.92117 0.0
O409 O 0.47927 0.42102 0.03947 0.0
O410 O 0.3925 0.40786 0.7984 0.0
C411 C 0.43889 0.50506 0.71725 0.0
O412 O 0.46172 0.50766 0.80794 0.0
C413 C 0.40552 0.49034 0.05561 0.0
O414 O 0.39066 0.50718 0.96303 0.0
O415 O 0.4727 0.42884 0.82585 0.0
loop_
_geom_bond_atom_site_label_1
_geom_bond_atom_site_label_2
_geom_bond_distance
_geom_bond_site_symmetry_2
_ccdc_geom_bond_type
C0 O1 1.160 . S
C0 O7 1.185 1_554 S
O1 C0 1.160 . S
O2 Zn3 1.899 . S
O2 C10 1.284 . S
Zn3 O2 1.899 . S
Zn3 O4 2.032 1_554 S
Zn3 O7 2.085 1_554 S
Zn3 O12 1.977 . S
O4 Zn3 2.032 1_556 S
O4 C8 1.278 . S
C5 O6 1.203 . S
C5 O12 1.267 . S
O6 C5 1.203 . S
O7 C0 1.185 1_556 S
O7 Zn3 2.085 1_556 S
C8 O4 1.278 . S
C8 O9 1.211 . S
O9 C8 1.211 . S
C10 O2 1.284 . S
C10 O11 1.273 . S
O11 C10 1.273 . S
O12 Zn3 1.977 . S
O12 C5 1.267 . S
C13 O14 1.160 . S
C13 O20 1.185 . S
O14 C13 1.160 . S
O15 Zn16 1.899 . S
O15 C23 1.284 . S
Zn16 O15 1.899 . S
Zn16 O17 2.032 . S
Zn16 O20 2.086 . S
Zn16 O25 1.977 . S
O17 Zn16 2.032 . S
O17 C21 1.278 . S
C18 O19 1.203 . S
C18 O25 1.267 . S
O19 C18 1.203 . S
O20 C13 1.185 . S
O20 Zn16 2.086 . S
C21 O17 1.278 . S
C21 O22 1.211 1_565 S
O22 C21 1.211 1_545 S
C23 O15 1.284 . S
C23 O24 1.273 1_565 S
O24 C23 1.273 1_545 S
O25 Zn16 1.977 . S
O25 C18 1.267 . S
C26 O27 1.160 . S
C26 O33 1.185 . S
O27 C26 1.160 . S
O28 Zn29 1.899 . S
O28 C36 1.284 . S
Zn29 O28 1.899 . S
Zn29 O30 2.032 . S
Zn29 O33 2.086 . S
Zn29 O38 1.977 . S
O30 Zn29 2.032 . S
O30 C34 1.278 . S
C31 O32 1.203 . S
C31 O38 1.267 . S
O32 C31 1.203 . S
O33 C26 1.185 . S
O33 Zn29 2.086 . S
C34 O30 1.278 . S
C34 O35 1.211 . S
O35 C34 1.211 . S
C36 O28 1.284 . S
C36 O37 1.273 . S
O37 C36 1.273 . S
O38 Zn29 1.977 . S
O38 C31 1.267 . S
C39 O40 1.160 . S
C39 O46 1.185 . S
O40 C39 1.160 . S
O41 Zn42 1.899 . S
O41 C49 1.284 1_556 S
Zn42 O41 1.899 . S
Zn42 O43 2.032 . S
Zn42 O46 2.086 . S
Zn42 O51 1.977 . S
O43 Zn42 2.032 . S
O43 C47 1.278 . S
C44 O45 1.203 . S
C44 O51 1.267 . S
O45 C44 1.203 . S
O46 C39 1.185 . S
O46 Zn42 2.086 . S
C47 O43 1.278 . S
C47 O48 1.211 1_545 S
O48 C47 1.211 1_565 S
C49 O41 1.284 1_554 S
C49 O50 1.273 1_544 S
O50 C49 1.273 1_566 S
O51 Zn42 1.977 . S
O51 C44 1.267 . S
C52 O53 1.160 . S
C52 O59 1.185 . S
O53 C52 1.160 . S
O54 Zn55 1.899 1_556 S
O54 C62 1.284 . S
Zn55 O54 1.899 1_554 S
Zn55 O56 2.032 . S
Zn55 O59 2.086 . S
Zn55 O64 1.977 . S
O56 Zn55 2.032 . S
O56 C60 1.278 . S
C57 O58 1.203 1_554 S
C57 O64 1.267 . S
O58 C57 1.203 1_556 S
O59 C52 1.185 . S
O59 Zn55 2.086 . S
C60 O56 1.278 . S
C60 O61 1.211 . S
O61 C60 1.211 . S
C62 O54 1.284 . S
C62 O63 1.273 . S
O63 C62 1.273 . S
O64 Zn55 1.977 . S
O64 C57 1.267 . S
C65 O66 1.160 . S
C65 O72 1.185 . S
O66 C65 1.160 . S
O67 Zn68 1.899 . S
O67 C75 1.284 . S
Zn68 O67 1.899 . S
Zn68 O69 2.032 . S
Zn68 O72 2.086 . S
Zn68 O77 1.977 . S
O69 Zn68 2.032 . S
O69 C73 1.278 . S
C70 O71 1.203 . S
C70 O77 1.267 . S
O71 C70 1.203 . S
O72 C65 1.185 . S
O72 Zn68 2.086 . S
C73 O69 1.278 . S
C73 O74 1.211 1_565 S
O74 C73 1.211 1_545 S
C75 O67 1.284 . S
C75 O76 1.273 1_565 S
O76 C75 1.273 1_545 S
O77 Zn68 1.977 . S
O77 C70 1.267 . S
C78 O79 1.160 . S
C78 O85 1.185 . S
O79 C78 1.160 . S
O80 Zn81 1.899 . S
O80 C88 1.284 . S
Zn81 O80 1.899 . S
Zn81 O82 2.032 . S
Zn81 O85 2.086 . S
Zn81 O90 1.977 . S
O82 Zn81 2.032 . S
O82 C86 1.278 . S
C83 O84 1.203 . S
C83 O90 1.267 . S
O84 C83 1.203 . S
O85 C78 1.185 . S
O85 Zn81 2.086 . S
C86 O82 1.278 . S
C86 O87 1.211 . S
O87 C86 1.211 . S
C88 O80 1.284 . S
C88 O89 1.273 . S
O89 C88 1.273 . S
O90 Zn81 1.977 . S
O90 C83 1.267 . S
C91 O92 1.160 . S
C91 O98 1.185 . S
O92 C91 1.160 . S
O93 Zn94 1.899 . S
O93 C101 1.284 . S
Zn94 O93 1.899 . S
Zn94 O95 2.032 . S
Zn94 O98 2.086 . S
Zn94 O103 1.977 . S
O95 Zn94 2.032 . S
O95 C99 1.278 1_556 S
C96 O97 1.203 . S
C96 O103 1.267 . S
O97 C96 1.203 . S
O98 C91 1.185 . S
O98 Zn94 2.086 . S
C99 O95 1.278 1_554 S
C99 O100 1.210 1_544 S
O100 C99 1.210 1_566 S
C101 O93 1.284 . S
C101 O102 1.273 1_545 S
O102 C101 1.273 1_565 S
O103 Zn94 1.977 . S
O103 C96 1.267 . S
C104 O105 1.160 . S
C104 O111 1.185 . S
O105 C104 1.160 . S
O106 Zn107 1.899 1_556 S
O106 C114 1.284 . S
Zn107 O106 1.899 1_554 S
Zn107 O108 2.032 . S
Zn107 O111 2.086 . S
Zn107 O116 1.977 . S
O108 Zn107 2.032 . S
O108 C112 1.278 . S
C109 O110 1.203 1_554 S
C109 O116 1.267 . S
O110 C109 1.203 1_556 S
O111 C104 1.185 . S
O111 Zn107 2.086 . S
C112 O108 1.278 . S
C112 O113 1.211 . S
O113 C112 1.211 . S
C114 O106 1.284 . S
C114 O115 1.273 . S
O115 C114 1.273 . S
O116 Zn107 1.977 . S
O116 C109 1.267 . S
C117 O118 1.160 . S
C117 O124 1.185 . S
O118 C117 1.160 . S
O119 Zn120 1.899 . S
O119 C127 1.284 . S
Zn120 O119 1.899 . S
Zn120 O121 2.032 . S
Zn120 O124 2.086 . S
Zn120 O129 1.977 . S
O121 Zn120 2.032 . S
O121 C125 1.278 1_556 S
C122 O123 1.203 . S
C122 O129 1.267 . S
O123 C122 1.203 . S
O124 C117 1.185 . S
O124 Zn120 2.086 . S
C125 O121 1.278 1_554 S
C125 O126 1.210 1_544 S
O126 C125 1.210 1_566 S
C127 O119 1.284 . S
C127 O128 1.273 1_545 S
O128 C127 1.273 1_565 S
O129 Zn120 1.977 . S
O129 C122 1.267 . S
C130 O131 1.160 . S
C130 O137 1.185 . S
O131 C130 1.160 . S
O132 Zn133 1.899 . S
O132 C140 1.284 . S
Zn133 O132 1.899 . S
Zn133 O134 2.032 . S
Zn133 O137 2.086 . S
Zn133 O142 1.977 . S
O134 Zn133 2.032 . S
O134 C138 1.278 . S
C135 O136 1.203 . S
C135 O142 1.267 . S
O136 C135 1.203 . S
O137 C130 1.185 . S
O137 Zn133 2.086 . S
C138 O134 1.278 . S
C138 O139 1.211 . S
O139 C138 1.211 . S
C140 O132 1.284 . S
C140 O141 1.273 . S
O141 C140 1.273 . S
O142 Zn133 1.977 . S
O142 C135 1.267 . S
C143 O144 1.160 . S
C143 O150 1.185 . S
O144 C143 1.160 . S
O145 Zn146 1.899 . S
O145 C153 1.284 . S
Zn146 O145 1.899 . S
Zn146 O147 2.032 . S
Zn146 O150 2.086 . S
Zn146 O155 1.977 . S
O147 Zn146 2.032 . S
O147 C151 1.278 . S
C148 O149 1.203 . S
C148 O155 1.267 . S
O149 C148 1.203 . S
O150 C143 1.185 . S
O150 Zn146 2.086 . S
C151 O147 1.278 . S
C151 O152 1.211 1_565 S
O152 C151 1.211 1_545 S
C153 O145 1.284 . S
C153 O154 1.273 1_565 S
O154 C153 1.273 1_545 S
O155 Zn146 1.977 . S
O155 C148 1.267 . S
C156 O157 1.160 . S
C156 O163 1.185 1_554 S
O157 C156 1.160 . S
O158 Zn159 1.899 . S
O158 C166 1.284 . S
Zn159 O158 1.899 . S
Zn159 O160 2.032 1_554 S
Zn159 O163 2.085 1_554 S
Zn159 O168 1.977 . S
O160 Zn159 2.032 1_556 S
O160 C164 1.278 . S
C161 O162 1.203 . S
C161 O168 1.267 . S
O162 C161 1.203 . S
O163 C156 1.185 1_556 S
O163 Zn159 2.085 1_556 S
C164 O160 1.278 . S
C164 O165 1.211 . S
O165 C164 1.211 . S
C166 O158 1.284 . S
C166 O167 1.273 . S
O167 C166 1.273 . S
O168 Zn159 1.977 . S
O168 C161 1.267 . S
C169 O170 1.160 . S
C169 O176 1.185 . S
O170 C169 1.160 . S
O171 Zn172 1.899 . S
O171 C179 1.284 1_556 S
Zn172 O171 1.899 . S
Zn172 O173 2.032 . S
Zn172 O176 2.086 . S
Zn172 O181 1.977 . S
O173 Zn172 2.032 . S
O173 C177 1.278 . S
C174 O175 1.203 . S
C174 O181 1.267 . S
O175 C174 1.203 . S
O176 C169 1.185 . S
O176 Zn172 2.086 . S
C177 O173 1.278 . S
C177 O178 1.211 1_545 S
O178 C177 1.211 1_565 S
C179 O171 1.284 1_554 S
C179 O180 1.273 1_544 S
O180 C179 1.273 1_566 S
O181 Zn172 1.977 . S
O181 C174 1.267 . S
C182 O183 1.160 . S
C182 O189 1.185 . S
O183 C182 1.160 . S
O184 Zn185 1.899 . S
O184 C192 1.284 . S
Zn185 O184 1.899 . S
Zn185 O186 2.032 . S
Zn185 O189 2.086 . S
Zn185 O194 1.977 . S
O186 Zn185 2.032 . S
O186 C190 1.278 . S
C187 O188 1.203 . S
C187 O194 1.267 . S
O188 C187 1.203 . S
O189 C182 1.185 . S
O189 Zn185 2.086 . S
C190 O186 1.278 . S
C190 O191 1.211 . S
O191 C190 1.211 . S
C192 O184 1.284 . S
C192 O193 1.273 . S
O193 C192 1.273 . S
O194 Zn185 1.977 . S
O194 C187 1.267 . S
C195 O196 1.160 . S
C195 O202 1.185 . S
O196 C195 1.160 . S
O197 Zn198 1.899 . S
O197 C205 1.284 . S
Zn198 O197 1.899 . S
Zn198 O199 2.032 . S
Zn198 O202 2.086 . S
Zn198 O207 1.977 . S
O199 Zn198 2.032 . S
O199 C203 1.278 . S
C200 O201 1.203 . S
C200 O207 1.267 . S
O201 C200 1.203 . S
O202 C195 1.185 . S
O202 Zn198 2.086 . S
C203 O199 1.278 . S
C203 O204 1.211 1_565 S
O204 C203 1.211 1_545 S
C205 O197 1.284 . S
C205 O206 1.273 1_565 S
O206 C205 1.273 1_545 S
O207 Zn198 1.977 . S
O207 C200 1.267 . S
C208 O209 1.160 . S
C208 O215 1.185 . S
O209 C208 1.160 . S
O210 Zn211 1.899 . S
O210 C218 1.284 . S
Zn211 O210 1.899 . S
Zn211 O212 2.032 . S
Zn211 O215 2.086 . S
Zn211 O220 1.977 . S
O212 Zn211 2.032 . S
O212 C216 1.278 . S
C213 O214 1.203 . S
C213 O220 1.267 . S
O214 C213 1.203 . S
O215 C208 1.185 . S
O215 Zn211 2.086 . S
C216 O212 1.278 . S
C216 O217 1.211 . S
O217 C216 1.211 . S
C218 O210 1.284 . S
C218 O219 1.273 . S
O219 C218 1.273 . S
O220 Zn211 1.977 . S
O220 C213 1.267 . S
C221 O222 1.160 . S
C221 O228 1.185 . S
O222 C221 1.160 . S
O223 Zn224 1.899 . S
O223 C231 1.284 1_556 S
Zn224 O223 1.899 . S
Zn224 O225 2.032 . S
Zn224 O228 2.086 . S
Zn224 O233 1.977 . S
O225 Zn224 2.032 . S
O225 C229 1.278 . S
C226 O227 1.203 . S
C226 O233 1.267 . S
O227 C226 1.203 . S
O228 C221 1.185 . S
O228 Zn224 2.086 . S
C229 O225 1.278 . S
C229 O230 1.211 . S
O230 C229 1.211 . S
C231 O223 1.284 1_554 S
C231 O232 1.273 1_554 S
O232 C231 1.273 1_556 S
O233 Zn224 1.977 . S
O233 C226 1.267 . S
C234 O235 1.160 . S
C234 O241 1.185 1_554 S
O235 C234 1.160 . S
O236 Zn237 1.899 . S
O236 C244 1.284 . S
Zn237 O236 1.899 . S
Zn237 O238 2.032 1_554 S
Zn237 O241 2.085 1_554 S
Zn237 O246 1.977 . S
O238 Zn237 2.032 1_556 S
O238 C242 1.278 . S
C239 O240 1.203 . S
C239 O246 1.267 . S
O240 C239 1.203 . S
O241 C234 1.185 1_556 S
O241 Zn237 2.085 1_556 S
C242 O238 1.278 . S
C242 O243 1.211 . S
O243 C242 1.211 . S
C244 O236 1.284 . S
C244 O245 1.273 . S
O245 C244 1.273 . S
O246 Zn237 1.977 . S
O246 C239 1.267 . S
C247 O248 1.160 . S
C247 O254 1.185 . S
O248 C247 1.160 . S
O249 Zn250 1.899 . S
O249 C257 1.284 . S
Zn250 O249 1.899 . S
Zn250 O251 2.032 . S
Zn250 O254 2.086 . S
Zn250 O259 1.977 . S
O251 Zn250 2.032 . S
O251 C255 1.278 . S
C252 O253 1.203 . S
C252 O259 1.267 . S
O253 C252 1.203 . S
O254 C247 1.185 . S
O254 Zn250 2.086 . S
C255 O251 1.278 . S
C255 O256 1.211 . S
O256 C255 1.211 . S
C257 O249 1.284 . S
C257 O258 1.273 . S
O258 C257 1.273 . S
O259 Zn250 1.977 . S
O259 C252 1.267 . S
C260 O261 1.160 . S
C260 O267 1.185 . S
O261 C260 1.160 . S
O262 Zn263 1.899 . S
O262 C270 1.284 . S
Zn263 O262 1.899 . S
Zn263 O264 2.032 . S
Zn263 O267 2.086 . S
Zn263 O272 1.977 . S
O264 Zn263 2.032 . S
O264 C268 1.278 . S
C265 O266 1.203 . S
C265 O272 1.267 . S
O266 C265 1.203 . S
O267 C260 1.185 . S
O267 Zn263 2.086 . S
C268 O264 1.278 . S
C268 O269 1.211 . S
O269 C268 1.211 . S
C270 O262 1.284 . S
C270 O271 1.273 . S
O271 C270 1.273 . S
O272 Zn263 1.977 . S
O272 C265 1.267 . S
C273 O274 1.160 . S
C273 O280 1.185 . S
O274 C273 1.160 . S
O275 Zn276 1.899 . S
O275 C283 1.284 . S
Zn276 O275 1.899 . S
Zn276 O277 2.032 . S
Zn276 O280 2.086 . S
Zn276 O285 1.977 . S
O277 Zn276 2.032 . S
O277 C281 1.278 1_556 S
C278 O279 1.203 . S
C278 O285 1.267 . S
O279 C278 1.203 . S
O280 C273 1.185 . S
O280 Zn276 2.086 . S
C281 O277 1.278 1_554 S
C281 O282 1.210 1_554 S
O282 C281 1.210 1_556 S
C283 O275 1.284 . S
C283 O284 1.273 . S
O284 C283 1.273 . S
O285 Zn276 1.977 . S
O285 C278 1.267 . S
C286 O287 1.160 . S
C286 O293 1.185 . S
O287 C286 1.160 . S
O288 Zn289 1.899 1_556 S
O288 C296 1.284 . S
Zn289 O288 1.899 1_554 S
Zn289 O290 2.032 . S
Zn289 O293 2.086 . S
Zn289 O298 1.977 . S
O290 Zn289 2.032 . S
O290 C294 1.278 . S
C291 O292 1.203 1_554 S
C291 O298 1.267 . S
O292 C291 1.203 1_556 S
O293 C286 1.185 . S
O293 Zn289 2.086 . S
C294 O290 1.278 . S
C294 O295 1.211 . S
O295 C294 1.211 . S
C296 O288 1.284 . S
C296 O297 1.273 . S
O297 C296 1.273 . S
O298 Zn289 1.977 . S
O298 C291 1.267 . S
C299 O300 1.160 . S
C299 O306 1.185 . S
O300 C299 1.160 . S
O301 Zn302 1.899 . S
O301 C309 1.284 . S
Zn302 O301 1.899 . S
Zn302 O303 2.032 . S
Zn302 O306 2.086 . S
Zn302 O311 1.977 . S
O303 Zn302 2.032 . S
O303 C307 1.278 . S
C304 O305 1.203 . S
C304 O311 1.267 . S
O305 C304 1.203 . S
O306 C299 1.185 . S
O306 Zn302 2.086 . S
C307 O303 1.278 . S
C307 O308 1.211 . S
O308 C307 1.211 . S
C309 O301 1.284 . S
C309 O310 1.273 . S
O310 C309 1.273 . S
O311 Zn302 1.977 . S
O311 C304 1.267 . S
C312 O313 1.160 . S
C312 O319 1.185 . S
O313 C312 1.160 . S
O314 Zn315 1.899 . S
O314 C322 1.284 . S
Zn315 O314 1.899 . S
Zn315 O316 2.032 . S
Zn315 O319 2.086 . S
Zn315 O324 1.977 . S
O316 Zn315 2.032 . S
O316 C320 1.278 . S
C317 O318 1.203 . S
C317 O324 1.267 . S
O318 C317 1.203 . S
O319 C312 1.185 . S
O319 Zn315 2.086 . S
C320 O316 1.278 . S
C320 O321 1.211 . S
O321 C320 1.211 . S
C322 O314 1.284 . S
C322 O323 1.273 . S
O323 C322 1.273 . S
O324 Zn315 1.977 . S
O324 C317 1.267 . S
C325 O326 1.160 . S
C325 O332 1.185 . S
O326 C325 1.160 . S
O327 Zn328 1.899 . S
O327 C335 1.284 . S
Zn328 O327 1.899 . S
Zn328 O329 2.032 . S
Zn328 O332 2.086 . S
Zn328 O337 1.977 . S
O329 Zn328 2.032 . S
O329 C333 1.278 . S
C330 O331 1.203 . S
C330 O337 1.267 . S
O331 C330 1.203 . S
O332 C325 1.185 . S
O332 Zn328 2.086 . S
C333 O329 1.278 . S
C333 O334 1.211 . S
O334 C333 1.211 . S
C335 O327 1.284 . S
C335 O336 1.273 . S
O336 C335 1.273 . S
O337 Zn328 1.977 . S
O337 C330 1.267 . S
C338 O339 1.160 . S
C338 O345 1.185 . S
O339 C338 1.160 . S
O340 Zn341 1.899 1_556 S
O340 C348 1.284 . S
Zn341 O340 1.899 1_554 S
Zn341 O342 2.032 . S
Zn341 O345 2.086 . S
Zn341 O350 1.977 . S
O342 Zn341 2.032 . S
O342 C346 1.278 . S
C343 O344 1.203 1_554 S
C343 O350 1.267 . S
O344 C343 1.203 1_556 S
O345 C338 1.185 . S
O345 Zn341 2.086 . S
C346 O342 1.278 . S
C346 O347 1.211 . S
O347 C346 1.211 . S
C348 O340 1.284 . S
C348 O349 1.273 . S
O349 C348 1.273 . S
O350 Zn341 1.977 . S
O350 C343 1.267 . S
C351 O352 1.160 . S
C351 O358 1.185 . S
O352 C351 1.160 . S
O353 Zn354 1.899 . S
O353 C361 1.284 . S
Zn354 O353 1.899 . S
Zn354 O355 2.032 . S
Zn354 O358 2.086 . S
Zn354 O363 1.977 . S
O355 Zn354 2.032 . S
O355 C359 1.278 1_556 S
C356 O357 1.203 . S
C356 O363 1.267 . S
O357 C356 1.203 . S
O358 C351 1.185 . S
O358 Zn354 2.086 . S
C359 O355 1.278 1_554 S
C359 O360 1.210 1_554 S
O360 C359 1.210 1_556 S
C361 O353 1.284 . S
C361 O362 1.273 . S
O362 C361 1.273 . S
O363 Zn354 1.977 . S
O363 C356 1.267 . S
C364 O365 1.160 . S
C364 O371 1.185 . S
O365 C364 1.160 . S
O366 Zn367 1.899 . S
O366 C374 1.284 . S
Zn367 O366 1.899 . S
Zn367 O368 2.032 . S
Zn367 O371 2.086 . S
Zn367 O376 1.977 . S
O368 Zn367 2.032 . S
O368 C372 1.278 . S
C369 O370 1.203 . S
C369 O376 1.267 . S
O370 C369 1.203 . S
O371 C364 1.185 . S
O371 Zn367 2.086 . S
C372 O368 1.278 . S
C372 O373 1.211 . S
O373 C372 1.211 . S
C374 O366 1.284 . S
C374 O375 1.273 . S
O375 C374 1.273 . S
O376 Zn367 1.977 . S
O376 C369 1.267 . S
C377 O378 1.160 . S
C377 O384 1.185 . S
O378 C377 1.160 . S
O379 Zn380 1.899 . S
O379 C387 1.284 . S
Zn380 O379 1.899 . S
Zn380 O381 2.032 . S
Zn380 O384 2.086 . S
Zn380 O389 1.977 . S
O381 Zn380 2.032 . S
O381 C385 1.278 . S
C382 O383 1.203 . S
C382 O389 1.267 . S
O383 C382 1.203 . S
O384 C377 1.185 . S
O384 Zn380 2.086 . S
C385 O381 1.278 . S
C385 O386 1.211 . S
O386 C385 1.211 . S
C387 O379 1.284 . S
C387 O388 1.273 . S
O388 C387 1.273 . S
O389 Zn380 1.977 . S
O389 C382 1.267 . S
C390 O391 1.160 . S
C390 O397 1.185 1_554 S
O391 C390 1.160 . S
O392 Zn393 1.899 . S
O392 C400 1.284 . S
Zn393 O392 1.899 . S
Zn393 O394 2.032 1_554 S
Zn393 O397 2.085 1_554 S
Zn393 O402 1.977 . S
O394 Zn393 2.032 1_556 S
O394 C398 1.278 . S
C395 O396 1.203 . S
C395 O402 1.267 . S
O396 C395 1.203 . S
O397 C390 1.185 1_556 S
O397 Zn393 2.085 1_556 S
C398 O394 1.278 . S
C398 O399 1.211 . S
O399 C398 1.211 . S
C400 O392 1.284 . S
C400 O401 1.273 . S
O401 C400 1.273 . S
O402 Zn393 1.977 . S
O402 C395 1.267 . S
C403 O404 1.160 . S
C403 O410 1.185 . S
O404 C403 1.160 . S
O405 Zn406 1.899 . S
O405 C413 1.284 1_556 S
Zn406 O405 1.899 . S
Zn406 O407 2.032 . S
Zn406 O410 2.086 . S
Zn406 O415 1.977 . S
O407 Zn406 2.032 . S
O407 C411 1.278 . S
C408 O409 1.203 . S
C408 O415 1.267 . S
O409 C408 1.203 . S
O410 C403 1.185 . S
O410 Zn406 2.086 . S
C411 O407 1.278 . S
C411 O412 1.211 . S
O412 C411 1.211 . S
C413 O405 1.284 1_554 S
C413 O414 1.273 1_554 S
O414 C413 1.273 1_556 S
O415 Zn406 1.977 . S
O415 C408 1.267 . S
C91 C0 1.940 1_556 S
C13 C52 1.940 . S
C65 C26 1.939 . S
C39 C78 1.940 . S
C104 C195 1.940 . S
C117 C156 1.940 1_556 S
C130 C169 1.940 . S
C143 C182 1.939 . S
C208 C299 1.939 . S
C221 C260 1.940 . S
C273 C234 1.939 1_556 S
C286 C247 1.940 . S
C312 C403 1.940 . S
C364 C325 1.939 . S
C377 C338 1.940 . S
C351 C390 1.939 1_556 S
C8 C86 0.888 . S
C21 C99 0.888 1_565 S
C60 C34 0.888 . S
C47 C73 0.888 1_545 S
C112 C190 0.888 . S
C125 C203 0.888 1_545 S
C164 C138 0.888 . S
C177 C151 0.888 1_545 S
C216 C294 0.888 . S
C307 C229 0.888 . S
C268 C242 0.888 . S
C255 C281 0.888 . S
C320 C398 0.888 . S
C333 C411 0.888 . S
C372 C346 0.888 . S
C385 C359 0.888 . S
C5 C395 1.258 . S
C18 C200 1.258 1_455 S
C31 C369 1.258 . S
C44 C174 1.258 . S
C57 C343 1.258 . S
C70 C148 1.258 . S
C83 C317 1.258 . S
C122 C96 1.258 1_655 S
C291 C109 1.258 . S
C135 C265 1.258 . S
C239 C161 1.258 . S
C213 C187 1.258 . S
C226 C408 1.258 . S
C252 C382 1.258 1_655 S
C278 C356 1.258 1_655 S
C330 C304 1.258 . S
C10 C88 1.537 . S
C23 C101 1.537 1_565 S
C62 C36 1.537 . S
C49 C75 1.537 1_545 S
C114 C192 1.537 . S
C127 C205 1.537 1_545 S
C166 C140 1.537 . S
C153 C179 1.537 1_565 S
C296 C218 1.537 . S
C309 C231 1.537 . S
C270 C244 1.537 . S
C283 C257 1.537 . S
C400 C322 1.537 . S
C413 C335 1.537 . S
C348 C374 1.537 . S
C387 C361 1.537 . S
