# Generated by pormake.
# Topology vmb, (5)-cn, num edge types: 1
# Building blocks:
#     Node 0, Type 0, BuildingBlock: XOMCOT_clean_sbu_1, # of connection points: 5
#     Node 1, Type 0, BuildingBlock: XOMCOT_clean_sbu_1, # of connection points: 5
#     Node 2, Type 0, BuildingBlock: XOMCOT_clean_sbu_1, # of connection points: 5
#     Node 3, Type 0, BuildingBlock: XOMCOT_clean_sbu_1, # of connection points: 5
#     Node 4, Type 0, BuildingBlock: XOMCOT_clean_sbu_1, # of connection points: 5
#     Node 5, Type 0, BuildingBlock: XOMCOT_clean_sbu_1, # of connection points: 5
#     Node 6, Type 0, BuildingBlock: XOMCOT_clean_sbu_1, # of connection points: 5
#     Node 7, Type 0, BuildingBlock: XOMCOT_clean_sbu_1, # of connection points: 5
#     Edge 8, Type (0, 0), BuildingBlock: UVAHIK_clean_linker_0, # of connection points: 2
#     Edge 9, Type (0, 0), BuildingBlock: UVAHIK_clean_linker_0, # of connection points: 2
#     Edge 10, Type (0, 0), BuildingBlock: UVAHIK_clean_linker_0, # of connection points: 2
#     Edge 11, Type (0, 0), BuildingBlock: UVAHIK_clean_linker_0, # of connection points: 2
#     Edge 12, Type (0, 0), BuildingBlock: UVAHIK_clean_linker_0, # of connection points: 2
#     Edge 13, Type (0, 0), BuildingBlock: UVAHIK_clean_linker_0, # of connection points: 2
#     Edge 14, Type (0, 0), BuildingBlock: UVAHIK_clean_linker_0, # of connection points: 2
#     Edge 15, Type (0, 0), BuildingBlock: UVAHIK_clean_linker_0, # of connection points: 2
#     Edge 16, Type (0, 0), BuildingBlock: UVAHIK_clean_linker_0, # of connection points: 2
#     Edge 17, Type (0, 0), BuildingBlock: UVAHIK_clean_linker_0, # of connection points: 2
#     Edge 18, Type (0, 0), BuildingBlock: UVAHIK_clean_linker_0, # of connection points: 2
#     Edge 19, Type (0, 0), BuildingBlock: UVAHIK_clean_linker_0, # of connection points: 2
#     Edge 20, Type (0, 0), BuildingBlock: UVAHIK_clean_linker_0, # of connection points: 2
#     Edge 21, Type (0, 0), BuildingBlock: UVAHIK_clean_linker_0, # of connection points: 2
#     Edge 22, Type (0, 0), BuildingBlock: UVAHIK_clean_linker_0, # of connection points: 2
#     Edge 23, Type (0, 0), BuildingBlock: UVAHIK_clean_linker_0, # of connection points: 2
#     Edge 24, Type (0, 0), BuildingBlock: UVAHIK_clean_linker_0, # of connection points: 2
#     Edge 25, Type (0, 0), BuildingBlock: UVAHIK_clean_linker_0, # of connection points: 2
#     Edge 26, Type (0, 0), BuildingBlock: UVAHIK_clean_linker_0, # of connection points: 2
#     Edge 27, Type (0, 0), BuildingBlock: UVAHIK_clean_linker_0, # of connection points: 2
# Relax obj value: 0.089
# Max RMSD: 0.129
# Mean RMSD: 0.129
data_MOF--net-vmb--node1-XOMCOT_clean_sbu_1--edge1-UVAHIK_clean_linker_0
_symmetry_space_group_name_H-M    P1
_symmetry_Int_Tables_number       1
_symmetry_cell_setting            triclinic
loop_
_symmetry_equiv_pos_as_xyz
'x, y, z'
_cell_length_a     48.105155
_cell_length_b     59.366903
_cell_length_c     34.916896
_cell_angle_alpha  90.00573
_cell_angle_beta   118.78455
_cell_angle_gamma 90.052832
loop_
_atom_site_label
_atom_site_type_symbol
_atom_site_fract_x
_atom_site_fract_y
_atom_site_fract_z
_atom_type_partial_charge
C0 C 0.21762 0.07617 0.29356 0.0
C1 C 0.18511 0.07652 0.27397 0.0
N2 N 0.1762 0.06654 0.30096 0.0
N3 N 0.22931 0.06618 0.33293 0.0
C4 C 0.20344 0.06027 0.33652 0.0
H5 H 0.23201 0.08349 0.28068 0.0
Co6 Co 0.27277 0.0657 0.37094 0.0
C7 C 0.28161 0.05317 0.45724 0.0
O8 O 0.30378 0.06869 0.47332 0.0
N9 N 0.318 0.06523 0.40878 0.0
C10 C 0.36888 0.07438 0.45147 0.0
C11 C 0.33849 0.08246 0.42858 0.0
C12 C 0.33709 0.04679 0.42052 0.0
N13 N 0.36807 0.05193 0.44627 0.0
O14 O 0.27525 0.03801 0.34502 0.0
H15 H 0.33242 0.09998 0.42748 0.0
H16 H 0.32847 0.02982 0.41043 0.0
O17 O 0.26654 0.04977 0.41587 0.0
C18 C 0.28488 0.04256 0.31766 0.0
O19 O 0.2935 0.06336 0.31571 0.0
N20 N 0.26861 0.09417 0.39068 0.0
C21 C 0.25783 0.13898 0.40307 0.0
C22 C 0.24704 0.12155 0.41968 0.0
C23 C 0.2521 0.09917 0.41234 0.0
C24 C 0.277 0.11091 0.37156 0.0
C25 C 0.27267 0.13345 0.37832 0.0
H26 H 0.24161 0.08608 0.42264 0.0
H27 H 0.28742 0.10664 0.35111 0.0
H28 H 0.20449 0.05263 0.36533 0.0
H29 H 0.16919 0.08395 0.24262 0.0
H30 H 0.39007 0.0844 0.46958 0.0
H31 H 0.23458 0.12516 0.43783 0.0
H32 H 0.2802 0.14641 0.36345 0.0
C33 C 0.81005 0.07951 0.20872 0.0
C34 C 0.84256 0.07929 0.2278 0.0
N35 N 0.85078 0.06738 0.20202 0.0
N36 N 0.79772 0.06798 0.17082 0.0
C37 C 0.82318 0.06055 0.16769 0.0
H38 H 0.79613 0.08838 0.22067 0.0
Co39 Co 0.75424 0.06797 0.13272 0.0
C40 C 0.74474 0.05113 0.04875 0.0
O41 O 0.72384 0.06736 0.03103 0.0
N42 N 0.70909 0.068 0.09479 0.0
C43 C 0.65843 0.07718 0.05101 0.0
C44 C 0.68889 0.08521 0.07407 0.0
C45 C 0.6898 0.04967 0.08365 0.0
N46 N 0.65895 0.05482 0.05714 0.0
O47 O 0.75018 0.04245 0.16305 0.0
H48 H 0.6952 0.10265 0.07481 0.0
H49 H 0.69822 0.03275 0.09461 0.0
O50 O 0.75951 0.04875 0.09041 0.0
C51 C 0.74037 0.04982 0.18873 0.0
O52 O 0.73277 0.07124 0.18636 0.0
N53 N 0.76001 0.09466 0.10856 0.0
C54 C 0.77492 0.13755 0.09097 0.0
C55 C 0.78458 0.11822 0.07743 0.0
C56 C 0.77752 0.09692 0.08742 0.0
C57 C 0.75233 0.11324 0.12437 0.0
C58 C 0.75866 0.13481 0.11491 0.0
H59 H 0.78756 0.08244 0.07994 0.0
H60 H 0.74114 0.11122 0.14462 0.0
H61 H 0.8216 0.05156 0.13974 0.0
H62 H 0.85894 0.08779 0.2577 0.0
H63 H 0.63738 0.08718 0.03208 0.0
H64 H 0.79858 0.1195 0.0608 0.0
H65 H 0.75099 0.14917 0.12652 0.0
C66 C 0.80543 0.89842 0.68672 0.0
C67 C 0.83756 0.89483 0.70582 0.0
N68 N 0.85039 0.91086 0.69176 0.0
N69 N 0.79782 0.91672 0.66084 0.0
C70 C 0.82575 0.92402 0.66469 0.0
H71 H 0.78848 0.88787 0.69025 0.0
Co72 Co 0.75605 0.92586 0.62426 0.0
C73 C 0.76357 0.96805 0.58668 0.0
O74 O 0.74629 0.97862 0.60086 0.0
N75 N 0.71376 0.93473 0.58675 0.0
C76 C 0.66969 0.94245 0.52504 0.0
C77 C 0.70096 0.93641 0.54289 0.0
C78 C 0.68963 0.94006 0.59477 0.0
N79 N 0.66249 0.94474 0.55759 0.0
O80 O 0.75981 0.94739 0.66723 0.0
H81 H 0.71363 0.93345 0.52484 0.0
H82 H 0.69167 0.9402 0.627 0.0
O83 O 0.77016 0.94731 0.59578 0.0
C84 C 0.75505 0.93778 0.69619 0.0
O85 O 0.7463 0.91652 0.69046 0.0
N86 N 0.75246 0.90342 0.58494 0.0
C87 C 0.74808 0.86554 0.53532 0.0
C88 C 0.76692 0.884 0.53701 0.0
C89 C 0.7691 0.90271 0.56248 0.0
C90 C 0.73366 0.88589 0.5832 0.0
C91 C 0.73104 0.86678 0.5585 0.0
H92 H 0.78492 0.91621 0.56506 0.0
H93 H 0.72132 0.88655 0.60215 0.0
H94 H 0.82785 0.93804 0.64645 0.0
H95 H 0.85036 0.8812 0.72788 0.0
H96 H 0.65357 0.9453 0.49071 0.0
H97 H 0.78038 0.88384 0.51953 0.0
H98 H 0.7168 0.85278 0.55906 0.0
C99 C 0.22624 0.89138 0.82423 0.0
C100 C 0.19413 0.88768 0.8007 0.0
N101 N 0.17899 0.90655 0.8017 0.0
N102 N 0.23176 0.91241 0.84107 0.0
C103 C 0.20236 0.92152 0.82488 0.0
H104 H 0.2441 0.87925 0.8283 0.0
Co105 Co 0.27155 0.92655 0.87744 0.0
C106 C 0.23352 0.93685 0.9227 0.0
O107 O 0.2203 0.9168 0.91276 0.0
N108 N 0.31077 0.94064 0.91247 0.0
C109 C 0.35202 0.95587 0.96998 0.0
C110 C 0.32125 0.94876 0.9533 0.0
C111 C 0.33569 0.94331 0.90487 0.0
N112 N 0.36114 0.95245 0.93962 0.0
O113 O 0.25961 0.95041 0.83572 0.0
H114 H 0.30791 0.94901 0.97079 0.0
H115 H 0.33555 0.93795 0.87514 0.0
O116 O 0.25332 0.94259 0.9097 0.0
C117 C 0.26161 0.94323 0.80272 0.0
O118 O 0.27164 0.92256 0.80354 0.0
N119 N 0.28518 0.90205 0.91678 0.0
C120 C 0.30363 0.86201 0.96417 0.0
C121 C 0.29607 0.881 0.98114 0.0
C122 C 0.28756 0.90102 0.95738 0.0
C123 C 0.29625 0.88465 0.90249 0.0
C124 C 0.30494 0.86426 0.92512 0.0
H125 H 0.28316 0.91545 0.97223 0.0
H126 H 0.29727 0.88638 0.87236 0.0
H127 H 0.19819 0.93853 0.83202 0.0
H128 H 0.18288 0.87211 0.78451 0.0
H129 H 0.36674 0.96291 0.00218 0.0
H130 H 0.29647 0.88034 0.01241 0.0
H131 H 0.31138 0.8502 0.91124 0.0
C132 C 0.71804 0.5767 0.28851 0.0
C133 C 0.68553 0.57691 0.2695 0.0
N134 N 0.67715 0.56727 0.29734 0.0
N135 N 0.7302 0.56719 0.32836 0.0
C136 C 0.70466 0.56138 0.3328 0.0
H137 H 0.73211 0.58368 0.27482 0.0
Co138 Co 0.77368 0.56654 0.36566 0.0
C139 C 0.78339 0.55561 0.45311 0.0
O140 O 0.80575 0.57102 0.46821 0.0
N141 N 0.81894 0.56582 0.4029 0.0
C142 C 0.87007 0.57466 0.44434 0.0
C143 C 0.83988 0.583 0.42083 0.0
C144 C 0.83756 0.54714 0.41637 0.0
N145 N 0.86868 0.5521 0.44141 0.0
O146 O 0.7751 0.53815 0.34121 0.0
H147 H 0.83429 0.60066 0.41793 0.0
H148 H 0.8285 0.53014 0.40804 0.0
O149 O 0.76784 0.55181 0.4119 0.0
C150 C 0.78634 0.54016 0.31499 0.0
O151 O 0.79826 0.55966 0.31233 0.0
N152 N 0.77033 0.59555 0.3841 0.0
C153 C 0.76206 0.64082 0.39687 0.0
C154 C 0.75095 0.62393 0.41416 0.0
C155 C 0.75466 0.60134 0.40654 0.0
C156 C 0.77864 0.61177 0.36389 0.0
C157 C 0.77557 0.63453 0.3708 0.0
H158 H 0.74404 0.5887 0.4176 0.0
H159 H 0.78827 0.6069 0.34277 0.0
H160 H 0.70613 0.554 0.36206 0.0
H161 H 0.66925 0.58395 0.23793 0.0
H162 H 0.89154 0.58455 0.46129 0.0
H163 H 0.73945 0.62812 0.43334 0.0
H164 H 0.78326 0.64706 0.35536 0.0
C165 C 0.31251 0.57771 0.21203 0.0
C166 C 0.34495 0.57738 0.23033 0.0
N167 N 0.3525 0.56723 0.20214 0.0
N168 N 0.29954 0.56801 0.17225 0.0
C169 C 0.32458 0.5616 0.16709 0.0
H170 H 0.29908 0.58551 0.22592 0.0
Co171 Co 0.25595 0.56913 0.13544 0.0
C172 C 0.24337 0.55242 0.0498 0.0
O173 O 0.22242 0.56869 0.03319 0.0
N174 N 0.21081 0.57043 0.09921 0.0
C175 C 0.16049 0.58141 0.05966 0.0
C176 C 0.19146 0.58847 0.08249 0.0
C177 C 0.19059 0.5526 0.08616 0.0
N178 N 0.15988 0.55883 0.06202 0.0
O179 O 0.25123 0.54351 0.16512 0.0
H180 H 0.19873 0.60584 0.08639 0.0
H181 H 0.1983 0.53531 0.09414 0.0
O182 O 0.25933 0.54998 0.0914 0.0
C183 C 0.24212 0.55081 0.19164 0.0
O184 O 0.23543 0.57235 0.19052 0.0
N185 N 0.26239 0.59581 0.1118 0.0
C186 C 0.27744 0.63858 0.09386 0.0
C187 C 0.28427 0.61924 0.07682 0.0
C188 C 0.27743 0.59797 0.08725 0.0
C189 C 0.2576 0.61432 0.1309 0.0
C190 C 0.26435 0.63585 0.12181 0.0
H191 H 0.2855 0.58346 0.0769 0.0
H192 H 0.24858 0.61226 0.15371 0.0
H193 H 0.32246 0.55427 0.13742 0.0
H194 H 0.36176 0.58468 0.26139 0.0
H195 H 0.13989 0.5922 0.04366 0.0
H196 H 0.29519 0.62045 0.05607 0.0
H197 H 0.26008 0.65016 0.13749 0.0
C198 C 0.30441 0.39602 0.68683 0.0
C199 C 0.33655 0.39229 0.70663 0.0
N200 N 0.35001 0.40891 0.69483 0.0
N201 N 0.29745 0.41492 0.66266 0.0
C202 C 0.32575 0.42252 0.66836 0.0
H203 H 0.287 0.38521 0.68875 0.0
Co204 Co 0.25603 0.42463 0.62598 0.0
C205 C 0.26516 0.466 0.58768 0.0
O206 O 0.24882 0.47726 0.60253 0.0
N207 N 0.21409 0.43408 0.58841 0.0
C208 C 0.17019 0.44192 0.5266 0.0
C209 C 0.20144 0.43581 0.54458 0.0
C210 C 0.18992 0.43943 0.5963 0.0
N211 N 0.16288 0.44418 0.55905 0.0
O212 O 0.2606 0.44679 0.66832 0.0
H213 H 0.21413 0.43267 0.52663 0.0
H214 H 0.19182 0.4394 0.62846 0.0
O215 O 0.27079 0.44516 0.59667 0.0
C216 C 0.25602 0.43797 0.69809 0.0
O217 O 0.24762 0.41667 0.69417 0.0
N218 N 0.25145 0.40166 0.58713 0.0
C219 C 0.24375 0.36379 0.53597 0.0
C220 C 0.26466 0.3811 0.5391 0.0
C221 C 0.26844 0.39984 0.5653 0.0
C222 C 0.23101 0.38511 0.58448 0.0
C223 C 0.22668 0.36605 0.55894 0.0
H224 H 0.28559 0.41251 0.5688 0.0
H225 H 0.21844 0.3866 0.60304 0.0
H226 H 0.32842 0.43713 0.65191 0.0
H227 H 0.34896 0.37822 0.72762 0.0
H228 H 0.1541 0.4447 0.49223 0.0
H229 H 0.27831 0.38006 0.52195 0.0
H230 H 0.21091 0.3529 0.55846 0.0
C231 C 0.72437 0.39736 0.8118 0.0
C232 C 0.69224 0.39338 0.79199 0.0
N233 N 0.67853 0.41004 0.80323 0.0
N234 N 0.73102 0.41642 0.83559 0.0
C235 C 0.70257 0.4239 0.8294 0.0
H236 H 0.74196 0.38669 0.81011 0.0
Co237 Co 0.77198 0.42727 0.87231 0.0
C238 C 0.75701 0.46337 0.91802 0.0
O239 O 0.76711 0.4791 0.90121 0.0
N240 N 0.81314 0.43807 0.90984 0.0
C241 C 0.857 0.44571 0.97183 0.0
C242 C 0.82619 0.43849 0.95382 0.0
C243 C 0.83661 0.44532 0.90186 0.0
N244 N 0.86365 0.44996 0.93926 0.0
O245 O 0.76378 0.45235 0.83407 0.0
H246 H 0.81423 0.43337 0.97187 0.0
H247 H 0.83427 0.4465 0.86951 0.0
O248 O 0.75701 0.44285 0.90741 0.0
C249 C 0.76616 0.44534 0.80128 0.0
O250 O 0.77505 0.42441 0.80128 0.0
N251 N 0.7803 0.40159 0.9068 0.0
C252 C 0.79264 0.36059 0.95038 0.0
C253 C 0.76871 0.37478 0.94842 0.0
C254 C 0.76258 0.39513 0.92586 0.0
C255 C 0.80362 0.38802 0.90831 0.0
C256 C 0.8103 0.36743 0.93013 0.0
H257 H 0.74278 0.40519 0.92215 0.0
H258 H 0.81671 0.39307 0.89177 0.0
H259 H 0.69967 0.43866 0.84527 0.0
H260 H 0.68002 0.37912 0.77139 0.0
H261 H 0.87333 0.44767 0.00636 0.0
H262 H 0.75396 0.36975 0.96256 0.0
H263 H 0.82885 0.35685 0.93076 0.0
C264 C 0.21508 0.94121 0.97822 0.0
C265 C 0.23268 0.94954 0.95869 0.0
C266 C 0.2192 0.9502 0.01762 0.0
C267 C 0.28064 0.9777 0.11516 0.0
H268 H 0.21337 0.99105 0.14274 0.0
C269 C 0.30122 0.03027 0.26365 0.0
C270 C 0.28323 0.0262 0.28483 0.0
C271 C 0.29591 0.0179 0.22687 0.0
C272 C 0.23245 0.98695 0.13585 0.0
H273 H 0.26619 0.9753 0.96326 0.0
H274 H 0.27353 0.99084 0.0322 0.0
H275 H 0.20007 0.97744 0.06978 0.0
H276 H 0.24673 0.00515 0.28566 0.0
H277 H 0.23758 0.98311 0.22112 0.0
H278 H 0.31307 0.98703 0.18096 0.0
C279 C 0.25703 0.97703 0.01737 0.0
C280 C 0.2248 0.97934 0.09396 0.0
C281 C 0.25269 0.96819 0.97776 0.0
C282 C 0.26103 0.00855 0.27003 0.0
C283 C 0.25556 0.99615 0.23283 0.0
C284 C 0.28829 0.98509 0.15703 0.0
C285 C 0.2411 0.96764 0.03837 0.0
C286 C 0.24883 0.97509 0.08297 0.0
C287 C 0.27243 0.00111 0.21021 0.0
C288 C 0.2643 0.99027 0.16767 0.0
H289 H 0.19925 0.92697 0.96427 0.0
H290 H 0.20652 0.94269 0.03297 0.0
H291 H 0.29969 0.97399 0.10796 0.0
H292 H 0.31857 0.04374 0.27441 0.0
H293 H 0.30913 0.0224 0.21016 0.0
C294 C 0.72232 0.0432 0.24322 0.0
C295 C 0.74101 0.03625 0.22453 0.0
C296 C 0.72724 0.03428 0.28285 0.0
C297 C 0.76239 0.98872 0.3624 0.0
H298 H 0.76858 0.03528 0.44424 0.0
C299 C 0.78858 0.96741 0.53818 0.0
C300 C 0.76895 0.9782 0.55207 0.0
C301 C 0.78939 0.97466 0.50063 0.0
C302 C 0.76673 0.02205 0.42177 0.0
H303 H 0.77806 0.01333 0.23103 0.0
H304 H 0.78658 -0.00261 0.30091 0.0
H305 H 0.75988 0.04574 0.3719 0.0
H306 H 0.7361 0.00584 0.53869 0.0
H307 H 0.7374 0.01843 0.47331 0.0
H308 H 0.7684 0.96497 0.41199 0.0
C309 C 0.76818 0.00988 0.28466 0.0
C310 C 0.76176 0.02804 0.38032 0.0
C311 C 0.76321 0.01889 0.24466 0.0
C312 C 0.75158 -0.0028 0.52905 0.0
C313 C 0.75235 0.00443 0.49149 0.0
C314 C 0.76719 0.98268 0.40394 0.0
C315 C 0.75104 0.01819 0.30487 0.0
C316 C 0.75887 0.01145 0.34987 0.0
C317 C 0.77067 0.99291 0.47621 0.0
C318 C 0.76881 -0.00071 0.43381 0.0
H319 H 0.70475 0.05636 0.22816 0.0
H320 H 0.7131 0.04056 0.29707 0.0
H321 H 0.76023 0.97561 0.33955 0.0
H322 H 0.80267 0.95294 0.5556 0.0
H323 H 0.80427 0.96571 0.4903 0.0
C324 C 0.76072 0.97293 0.73972 0.0
C325 C 0.76034 0.94935 0.73662 0.0
C326 C 0.76438 0.98333 0.77795 0.0
C327 C 0.75552 0.97104 0.87603 0.0
H328 H 0.79843 0.02838 0.91623 0.0
C329 C 0.76582 0.01654 0.02952 0.0
C330 C 0.75427 0.03869 0.02032 0.0
C331 C 0.77204 0.00472 0.99964 0.0
C332 C 0.78652 0.01228 0.90547 0.0
H333 H 0.76507 0.91819 0.77172 0.0
H334 H 0.77241 0.93616 0.83828 0.0
H335 H 0.79836 0.00969 0.85387 0.0
H336 H 0.742 0.0663 0.97422 0.0
H337 H 0.75319 0.04595 0.92296 0.0
H338 H 0.74353 0.97379 0.92752 0.0
C339 C 0.76878 0.94674 0.81101 0.0
C340 C 0.78623 0.00167 0.86952 0.0
C341 C 0.7647 0.93642 0.77279 0.0
C342 C 0.75051 0.04913 0.98199 0.0
C343 C 0.75723 0.03756 0.95276 0.0
C344 C 0.7561 0.98154 0.91221 0.0
C345 C 0.76813 0.97031 0.81394 0.0
C346 C 0.77024 0.98109 0.85383 0.0
C347 C 0.76752 0.01513 0.96079 0.0
C348 C 0.77107 0.00248 0.92677 0.0
H349 H 0.7574 0.9833 0.71231 0.0
H350 H 0.76341 0.00153 0.7788 0.0
H351 H 0.7425 0.9554 0.86457 0.0
H352 H 0.76897 0.00816 0.0589 0.0
H353 H 0.78005 0.98742 0.0066 0.0
C354 C 0.2604 0.97964 0.76547 0.0
C355 C 0.25213 0.95684 0.7631 0.0
C356 C 0.25627 0.99098 0.72784 0.0
C357 C 0.25 0.97765 0.62013 0.0
H358 H 0.23623 0.0419 0.60124 0.0
C359 C 0.25163 0.02344 0.47428 0.0
C360 C 0.27177 0.04231 0.487 0.0
C361 C 0.24334 0.01337 0.50375 0.0
C362 C 0.23998 0.0239 0.60605 0.0
H363 H 0.23067 0.92849 0.71963 0.0
H364 H 0.22205 0.9484 0.65399 0.0
H365 H 0.23155 0.02408 0.66095 0.0
H366 H 0.29815 0.0658 0.54015 0.0
H367 H 0.28365 0.0484 0.59079 0.0
H368 H 0.25879 0.97757 0.56556 0.0
C369 C 0.23297 0.9574 0.68478 0.0
C370 C 0.23748 0.01371 0.6404 0.0
C371 C 0.23765 0.94603 0.72232 0.0
C372 C 0.28276 0.05118 0.52923 0.0
C373 C 0.27419 0.04136 0.55825 0.0
C374 C 0.25219 0.9878 0.5856 0.0
C375 C 0.24336 0.97975 0.68722 0.0
C376 C 0.24304 0.9905 0.64841 0.0
C377 C 0.25462 0.02226 0.54607 0.0
C378 C 0.24788 0.0111 0.57876 0.0
H379 H 0.27179 0.98825 0.79668 0.0
H380 H 0.26474 0.00815 0.73112 0.0
H381 H 0.25508 0.95982 0.62564 0.0
H382 H 0.24269 0.0163 0.44191 0.0
H383 H 0.22815 -0.00136 0.4935 0.0
C384 C 0.75052 0.51468 0.25482 0.0
C385 C 0.78119 0.52296 0.28205 0.0
C386 C 0.74362 0.50372 0.21572 0.0
C387 C 0.7365 0.50386 0.12274 0.0
H388 H 0.78788 0.45739 0.10959 0.0
C389 C 0.75148 0.49094 0.9687 0.0
C390 C 0.7511 0.46861 0.95502 0.0
C391 C 0.74989 0.49544 0.007 0.0
C392 C 0.7731 0.47022 0.11273 0.0
H393 H 0.82909 0.5251 0.29193 0.0
H394 H 0.81746 0.505 0.22474 0.0
H395 H 0.7958 0.46672 0.18242 0.0
H396 H 0.74733 0.43362 0.97014 0.0
H397 H 0.74493 0.4415 0.03666 0.0
H398 H 0.71487 0.50812 0.05321 0.0
C399 C 0.79869 0.50716 0.23316 0.0
C400 C 0.77769 0.47555 0.15434 0.0
C401 C 0.80537 0.51858 0.27157 0.0
C402 C 0.74774 0.45101 0.97949 0.0
C403 C 0.74652 0.45548 0.01785 0.0
C404 C 0.73229 0.4988 0.08114 0.0
C405 C 0.76751 0.50046 0.20403 0.0
C406 C 0.7597 0.49259 0.15977 0.0
C407 C 0.74825 0.47768 0.03249 0.0
C408 C 0.75082 0.48211 0.07584 0.0
H409 H 0.7314 0.51828 0.26194 0.0
H410 H 0.71942 0.49866 0.19374 0.0
H411 H 0.72262 0.51728 0.12618 0.0
H412 H 0.754 0.5049 0.95063 0.0
H413 H 0.75141 0.51274 0.01771 0.0
C414 C 0.22523 0.54427 0.2474 0.0
C415 C 0.24271 0.53694 0.22712 0.0
C416 C 0.23031 0.53485 0.28673 0.0
C417 C 0.26244 0.48752 0.36219 0.0
H418 H 0.27472 0.53312 0.44866 0.0
C419 C 0.28851 0.46396 0.53718 0.0
C420 C 0.27068 0.47576 0.55286 0.0
C421 C 0.28946 0.47125 0.49974 0.0
C422 C 0.27115 0.52015 0.42489 0.0
H423 H 0.27766 0.51288 0.23048 0.0
H424 H 0.28636 0.49603 0.2998 0.0
H425 H 0.26596 0.54444 0.3767 0.0
H426 H 0.24115 0.50513 0.54265 0.0
H427 H 0.24264 0.51778 0.47749 0.0
H428 H 0.26668 0.46321 0.41006 0.0
C429 C 0.26884 0.50923 0.28503 0.0
C430 C 0.26618 0.52664 0.38368 0.0
C431 C 0.26376 0.51876 0.24535 0.0
C432 C 0.25522 0.49568 0.53163 0.0
C433 C 0.25613 0.50295 0.49419 0.0
C434 C 0.26721 0.48099 0.40349 0.0
C435 C 0.253 0.51785 0.30684 0.0
C436 C 0.26108 0.51044 0.35158 0.0
C437 C 0.27268 0.49057 0.47721 0.0
C438 C 0.27098 0.49727 0.43503 0.0
H439 H 0.20855 0.55806 0.23384 0.0
H440 H 0.21717 0.54143 0.30223 0.0
H441 H 0.25855 0.4747 0.33803 0.0
H442 H 0.30108 0.44871 0.55313 0.0
H443 H 0.30295 0.46157 0.48807 0.0
C444 C 0.25236 0.55324 0.9858 0.0
C445 C 0.25264 0.54089 0.02027 0.0
C446 C 0.25771 0.54267 0.95439 0.0
C447 C 0.28548 0.48985 0.92662 0.0
H448 H 0.23048 0.51037 0.80813 0.0
C449 C 0.26174 0.43907 0.77286 0.0
C450 C 0.26033 0.45076 0.73693 0.0
C451 C 0.26476 0.45067 0.80939 0.0
C452 C 0.24635 0.50468 0.84104 0.0
H453 H 0.26017 0.50801 0.05028 0.0
H454 H 0.26852 0.48905 0.99404 0.0
H455 H 0.22827 0.52873 0.86877 0.0
H456 H 0.26157 0.4838 0.71146 0.0
H457 H 0.26644 0.50426 0.77547 0.0
H458 H 0.30266 0.46521 0.89817 0.0
C459 C 0.26465 0.50707 0.99177 0.0
C460 C 0.24515 0.5152 0.87595 0.0
C461 C 0.25979 0.51784 0.0239 0.0
C462 C 0.26253 0.47436 0.73861 0.0
C463 C 0.26521 0.48603 0.77514 0.0
C464 C 0.28648 0.47917 0.89153 0.0
C465 C 0.26287 0.51933 0.95602 0.0
C466 C 0.2647 0.50797 0.91923 0.0
C467 C 0.26616 0.47428 0.81079 0.0
C468 C 0.26684 0.48645 0.84837 0.0
H469 H 0.2476 0.57118 0.98278 0.0
H470 H 0.25724 0.55282 0.92832 0.0
H471 H 0.30113 0.484 0.95948 0.0
H472 H 0.26029 0.42086 0.77275 0.0
H473 H 0.26504 0.44116 0.83605 0.0
C474 C 0.76663 0.48189 0.76545 0.0
C475 C 0.75755 0.45923 0.76228 0.0
C476 C 0.76278 0.49347 0.72817 0.0
C477 C 0.7554 0.48071 0.61965 0.0
H478 H 0.74209 0.54505 0.60176 0.0
C479 C 0.75406 0.52624 0.47197 0.0
C480 C 0.77418 0.5451 0.48379 0.0
C481 C 0.74656 0.51633 0.50232 0.0
C482 C 0.74574 0.52704 0.60633 0.0
H483 H 0.73497 0.43141 0.71781 0.0
H484 H 0.72689 0.45172 0.65286 0.0
H485 H 0.73832 0.52712 0.66211 0.0
H486 H 0.80128 0.56879 0.5362 0.0
H487 H 0.78814 0.55164 0.58846 0.0
H488 H 0.76315 0.48069 0.56421 0.0
C489 C 0.73824 0.46041 0.68397 0.0
C490 C 0.74375 0.51678 0.64102 0.0
C491 C 0.74264 0.44881 0.72113 0.0
C492 C 0.78589 0.55417 0.526 0.0
C493 C 0.77811 0.54449 0.55594 0.0
C494 C 0.7571 0.49092 0.58483 0.0
C495 C 0.74935 0.4826 0.68716 0.0
C496 C 0.74903 0.49352 0.64852 0.0
C497 C 0.75864 0.52536 0.54467 0.0
C498 C 0.75285 0.51424 0.57824 0.0
H499 H 0.77833 0.4902 0.79697 0.0
H500 H 0.77177 0.5105 0.73195 0.0
H501 H 0.76029 0.46285 0.6248 0.0
H502 H 0.74458 0.51895 0.43965 0.0
H503 H 0.73139 0.5016 0.49275 0.0
C504 C 0.62947 0.96588 0.5822 0.0
C505 C 0.63197 0.95128 0.55235 0.0
C506 C 0.59978 0.97432 0.57372 0.0
C507 C 0.51914 0.98397 0.48013 0.0
H508 H 0.49686 -0.00254 0.57055 0.0
C509 C 0.39538 0.01844 0.43775 0.0
C510 C 0.39526 0.03719 0.46225 0.0
C511 C 0.42308 0.00575 0.45096 0.0
C512 C 0.50279 0.99385 0.54494 0.0
H513 H 0.60528 0.93282 0.49197 0.0
H514 H 0.5537 0.94688 0.47774 0.0
H515 H 0.5476 0.97938 0.59005 0.0
H516 H 0.42362 0.05649 0.52112 0.0
H517 H 0.47183 0.03448 0.54407 0.0
H518 H 0.47451 -0.0015 0.43509 0.0
C519 C 0.57455 0.95258 0.50689 0.0
C520 C 0.53194 0.98355 0.55614 0.0
C521 C 0.60412 0.94439 0.51512 0.0
C522 C 0.42304 0.04232 0.50125 0.0
C523 C 0.45062 0.02955 0.51462 0.0
C524 C 0.49 0.99411 0.46895 0.0
C525 C 0.57196 0.96814 0.5354 0.0
C526 C 0.54059 0.97855 0.52388 0.0
C527 C 0.4512 0.01139 0.4892 0.0
C528 C 0.48149 -0.00068 0.50119 0.0
H529 H 0.65058 0.97156 0.611 0.0
H530 H 0.59882 0.98636 0.59634 0.0
H531 H 0.52514 0.9809 0.45441 0.0
H532 H 0.37445 0.01412 0.40747 0.0
H533 H 0.42261 0.9917 0.43087 0.0
C534 C 0.39642 0.9692 0.91399 0.0
C535 C 0.39232 0.95708 0.94542 0.0
C536 C 0.4267 0.97682 0.92327 0.0
C537 C 0.50531 0.98929 0.01969 0.0
H538 H 0.5323 -0.00209 0.93251 0.0
C539 C 0.6307 0.0221 0.06639 0.0
C540 C 0.63165 0.04015 0.041 0.0
C541 C 0.60284 0.00951 0.05273 0.0
C542 C 0.52504 0.99562 0.9572 0.0
H543 H 0.41655 0.94197 0.00959 0.0
H544 H 0.46928 0.9542 0.02516 0.0
H545 H 0.48114 0.98006 0.9118 0.0
H546 H 0.60472 0.05829 0.98027 0.0
H547 H 0.55622 0.03629 0.95633 0.0
H548 H 0.54914 0.00479 0.06502 0.0
C549 C 0.44929 0.95878 0.99408 0.0
C550 C 0.49564 0.98547 0.9453 0.0
C551 C 0.41912 0.95155 0.98507 0.0
C552 C 0.6046 0.04464 0.00076 0.0
C553 C 0.5769 0.03191 0.98686 0.0
C554 C 0.53474 -0.00082 0.0316 0.0
C555 C 0.45347 0.97219 0.96399 0.0
C556 C 0.48526 0.98225 0.97637 0.0
C557 C 0.57545 0.0145 0.01311 0.0
C558 C 0.54492 0.00262 0.00051 0.0
H559 H 0.37603 0.97379 0.88332 0.0
H560 H 0.42881 0.98719 0.89931 0.0
H561 H 0.498 0.98771 0.04443 0.0
H562 H 0.65107 0.01831 0.09764 0.0
H563 H 0.60258 0.99606 0.07351 0.0
C564 C 0.9233 0.54244 0.49731 0.0
C565 C 0.89551 0.53701 0.45858 0.0
C566 C 0.95069 0.52937 0.51159 0.0
C567 C 0.9898 0.49248 0.46798 0.0
H568 H 0.04734 0.4792 0.5898 0.0
C569 C 0.10456 0.44319 0.51664 0.0
C570 C 0.13225 0.45051 0.55359 0.0
C571 C 0.07483 0.45121 0.50803 0.0
C572 C 0.0317 0.48295 0.55568 0.0
H573 H 0.87439 0.51311 0.40526 0.0
H574 H 0.92227 0.49015 0.43019 0.0
H575 H 0.99652 0.49742 0.5693 0.0
H576 H 0.15048 0.47138 0.61143 0.0
H577 H 0.09847 0.48597 0.59606 0.0
H578 H 0.02505 0.4788 0.45419 0.0
C579 C 0.92288 0.50466 0.4494 0.0
C580 C 1.0025 0.49332 0.54392 0.0
C581 C 0.89535 0.51765 0.43533 0.0
C582 C 0.12948 0.46538 0.58285 0.0
C583 C 0.09964 0.47368 0.57397 0.0
C584 C 0.01899 0.48229 0.47972 0.0
C585 C 0.95105 0.51061 0.48729 0.0
C586 C 0.98124 0.49829 0.49991 0.0
C587 C 0.07196 0.46707 0.53586 0.0
C588 C 0.04044 0.4774 0.52374 0.0
H589 H 0.92405 0.55712 0.51619 0.0
H590 H 0.97196 0.53453 0.54073 0.0
H591 H 0.97433 0.49648 0.43391 0.0
H592 H 0.10596 0.4314 0.49396 0.0
H593 H 0.0541 0.44518 0.4791 0.0
C594 C 0.10402 0.55146 0.00706 0.0
C595 C 0.13184 0.54482 0.04469 0.0
C596 C 0.07595 0.53906 0.99222 0.0
C597 C 0.03589 0.50084 0.03285 0.0
H598 H 0.97748 0.49053 0.91007 0.0
C599 C 0.92203 0.44969 0.98075 0.0
C600 C 0.89396 0.45739 0.94488 0.0
C601 C 0.95145 0.45856 0.98976 0.0
C602 C 0.99336 0.49346 0.94446 0.0
H603 H 0.15207 0.51954 0.09554 0.0
H604 H 0.10305 0.4978 0.0696 0.0
H605 H 0.02841 0.50896 0.93173 0.0
H606 H 0.87479 0.47985 0.88931 0.0
H607 H 0.92633 0.49588 0.9054 0.0
H608 H 1.00085 0.48598 0.04583 0.0
C609 C 0.10295 0.51273 0.05171 0.0
C610 C 0.02262 0.50397 0.95689 0.0
C611 C 0.13114 0.52505 0.06636 0.0
C612 C 0.89608 0.47356 0.91704 0.0
C613 C 0.92564 0.48269 0.92633 0.0
C614 C 1.00667 0.49049 0.02047 0.0
C615 C 0.07488 0.51977 0.01481 0.0
C616 C 0.04425 0.50779 0.00127 0.0
C617 C 0.95367 0.47564 0.96345 0.0
C618 C 0.98495 0.48659 0.97611 0.0
H619 H 0.10386 0.56644 0.9893 0.0
H620 H 0.05478 0.54506 0.96389 0.0
H621 H 0.05164 0.50393 0.06724 0.0
H622 H 0.92118 0.43691 0.00228 0.0
H623 H 0.97246 0.45218 0.01781 0.0
C624 C 0.12396 0.0838 0.27703 0.0
C625 C 0.1442 0.06519 0.29401 0.0
C626 C 0.09215 0.08231 0.26672 0.0
C627 C 0.03346 0.0466 0.28089 0.0
H628 H 0.97388 0.0832 0.18403 0.0
C629 C 0.89437 0.04427 0.20424 0.0
C630 C 0.88238 0.06527 0.20781 0.0
C631 C 0.92604 0.04224 0.2132 0.0
C632 C 0.99025 0.07282 0.21101 0.0
H633 H 0.14735 0.03049 0.31433 0.0
H634 H 0.09118 0.02739 0.29471 0.0
H635 H 0.02962 0.0831 0.20299 0.0
H636 H 0.8934 0.10063 0.22193 0.0
H637 H 0.94821 0.0973 0.23581 0.0
H638 H 0.99324 0.03599 0.2876 0.0
C639 C 0.09999 0.04341 0.29026 0.0
C640 C 0.02236 0.07292 0.22236 0.0
C641 C 0.13216 0.0451 0.30147 0.0
C642 C 0.9022 0.08427 0.21918 0.0
C643 C 0.93344 0.08236 0.22701 0.0
C644 C 1.0011 0.04617 0.26887 0.0
C645 C 0.07936 0.06194 0.27208 0.0
C646 C 0.04467 0.06028 0.25819 0.0
C647 C 0.9458 0.06132 0.22461 0.0
C648 C 0.97935 0.05964 0.23438 0.0
H649 H 0.13286 0.09959 0.27167 0.0
H650 H 0.07762 0.09724 0.25441 0.0
H651 H 0.04972 0.03676 0.30883 0.0
H652 H 0.8795 0.02941 0.19574 0.0
H653 H 0.93506 0.02585 0.21102 0.0
C654 C 0.12702 0.88977 0.78384 0.0
C655 C 0.14543 0.90887 0.78728 0.0
C656 C 0.09516 0.89187 0.77294 0.0
C657 C 0.02525 0.92902 0.72204 0.0
H658 H 0.99699 0.89233 0.78864 0.0
C659 C 0.89676 0.93302 0.69959 0.0
C660 C 0.88312 0.91231 0.70127 0.0
C661 C 0.92879 0.93427 0.71 0.0
C662 C 1.00433 0.90254 0.76936 0.0
H663 H 0.1441 0.94522 0.78058 0.0
H664 H 0.08815 0.94889 0.76156 0.0
H665 H 0.05242 0.89155 0.80633 0.0
H666 H 0.89232 0.87653 0.71322 0.0
H667 H 0.94758 0.87865 0.73104 0.0
H668 H 0.97683 0.93975 0.68466 0.0
C669 C 0.09864 0.93226 0.76735 0.0
C670 C 0.03619 0.90211 0.77959 0.0
C671 C 0.13076 0.93016 0.77856 0.0
C672 C 0.90211 0.89286 0.71266 0.0
C673 C 0.93393 0.89409 0.72292 0.0
C674 C 0.99319 0.92939 0.71166 0.0
C675 C 0.08062 0.91312 0.76509 0.0
C676 C 0.04699 0.91502 0.75563 0.0
C677 C 0.94788 0.91481 0.72226 0.0
C678 C 0.98223 0.91583 0.73474 0.0
H679 H 0.13738 0.87311 0.7908 0.0
H680 H 0.08188 0.87674 0.77085 0.0
H681 H 0.03279 0.93911 0.70287 0.0
H682 H 0.88288 0.94834 0.69115 0.0
H683 H 0.93877 0.95053 0.70936 0.0
C684 C 0.4027 0.58533 0.21757 0.0
C685 C 0.38388 0.5659 0.20702 0.0
C686 C 0.43437 0.58407 0.22712 0.0
C687 C 0.49507 0.54596 0.22304 0.0
H688 H 0.55257 0.58909 0.30766 0.0
C689 C 0.63416 0.54578 0.30054 0.0
C690 C 0.64542 0.56579 0.29133 0.0
C691 C 0.60248 0.54412 0.29167 0.0
C692 C 0.53678 0.5769 0.2841 0.0
H693 H 0.3829 0.52994 0.1974 0.0
H694 H 0.4389 0.52731 0.21586 0.0
H695 H 0.49689 0.58904 0.28895 0.0
H696 H 0.63301 0.59987 0.26715 0.0
H697 H 0.57815 0.59729 0.25331 0.0
H698 H 0.53584 0.53354 0.21971 0.0
C699 C 0.4291 0.54373 0.21566 0.0
C700 C 0.50469 0.577 0.27285 0.0
C701 C 0.39704 0.54514 0.20512 0.0
C702 C 0.6248 0.58424 0.27428 0.0
C703 C 0.59352 0.58279 0.26649 0.0
C704 C 0.52742 0.5456 0.23506 0.0
C705 C 0.44842 0.56318 0.22758 0.0
C706 C 0.48311 0.56189 0.24137 0.0
C707 C 0.58194 0.56266 0.27464 0.0
C708 C 0.54841 0.56135 0.2651 0.0
H709 H 0.39284 0.60154 0.21878 0.0
H710 H 0.44785 0.59956 0.23449 0.0
H711 H 0.47937 0.53417 0.19847 0.0
H712 H 0.64963 0.53132 0.31346 0.0
H713 H 0.59407 0.52845 0.29835 0.0
C714 C 0.62744 0.39182 0.78541 0.0
C715 C 0.64562 0.41149 0.7927 0.0
C716 C 0.59576 0.39302 0.77597 0.0
C717 C 0.52613 0.4303 0.73292 0.0
H718 H 0.49667 0.38804 0.79023 0.0
C719 C 0.39719 0.43159 0.70782 0.0
C720 C 0.38299 0.41058 0.70573 0.0
C721 C 0.42941 0.43302 0.71935 0.0
C722 C 0.50432 0.39981 0.77347 0.0
H723 H 0.64445 0.44793 0.79516 0.0
H724 H 0.58884 0.45006 0.77844 0.0
H725 H 0.55226 0.38811 0.8084 0.0
H726 H 0.39133 0.37456 0.71233 0.0
H727 H 0.44693 0.37696 0.73174 0.0
H728 H 0.47798 0.44169 0.6973 0.0
C729 C 0.59927 0.43369 0.78009 0.0
C730 C 0.53628 0.39988 0.78403 0.0
C731 C 0.63117 0.43246 0.79 0.0
C732 C 0.4016 0.39105 0.71463 0.0
C733 C 0.43362 0.39246 0.72586 0.0
C734 C 0.494 0.43013 0.72208 0.0
C735 C 0.58127 0.41394 0.77326 0.0
C736 C 0.54753 0.41492 0.76354 0.0
C737 C 0.44812 0.41345 0.72883 0.0
C738 C 0.48259 0.41466 0.74182 0.0
H739 H 0.63785 0.37538 0.78773 0.0
H740 H 0.5825 0.3775 0.77044 0.0
H741 H 0.53401 0.442 0.71633 0.0
H742 H 0.38357 0.44696 0.70142 0.0
H743 H 0.43977 0.4495 0.72164 0.0
C744 C 0.26844 0.33307 0.51315 0.0
C745 C 0.24121 0.3428 0.51137 0.0
C746 C 0.26668 0.31224 0.49359 0.0
C747 C 0.22131 0.26028 0.46606 0.0
H748 H 0.26735 0.24617 0.40353 0.0
C749 C 0.22368 0.17036 0.40493 0.0
C750 C 0.25307 0.16286 0.4105 0.0
C751 C 0.21928 0.19299 0.41153 0.0
C752 C 0.25457 0.24981 0.42122 0.0
H753 H 0.19043 0.33882 0.48553 0.0
H754 H 0.18756 0.30216 0.4521 0.0
H755 H 0.26475 0.28509 0.42409 0.0
H756 H 0.301 0.17297 0.42785 0.0
H757 H 0.29364 0.21233 0.44036 0.0
H758 H 0.2121 0.225 0.46483 0.0
C759 C 0.21026 0.31065 0.46897 0.0
C760 C 0.25298 0.27209 0.43279 0.0
C761 C 0.21196 0.33158 0.48823 0.0
C762 C 0.27798 0.17837 0.42283 0.0
C763 C 0.27368 0.20094 0.42975 0.0
C764 C 0.2231 0.23798 0.45482 0.0
C765 C 0.2377 0.30063 0.4721 0.0
C766 C 0.23673 0.27748 0.45587 0.0
C767 C 0.24427 0.20853 0.42415 0.0
C768 C 0.24018 0.23243 0.4329 0.0
H769 H 0.29143 0.34105 0.53125 0.0
H770 H 0.28828 0.30477 0.49698 0.0
H771 H 0.20897 0.26393 0.48437 0.0
H772 H 0.20395 0.15878 0.39482 0.0
H773 H 0.19622 0.19835 0.40639 0.0
C774 C 0.79946 0.31897 0.94859 0.0
C775 C 0.79761 0.33811 0.97086 0.0
C776 C 0.80165 0.29753 0.96616 0.0
C777 C 0.78383 0.26726 0.0441 0.0
H778 H 0.82977 0.21882 0.02481 0.0
C779 C 0.79069 0.17787 0.11217 0.0
C780 C 0.78247 0.16041 0.08131 0.0
C781 C 0.79624 0.19962 0.1023 0.0
C782 C 0.81682 0.23221 0.03032 0.0
H783 H 0.79792 0.35002 0.0297 0.0
H784 H 0.80258 0.31257 0.06111 0.0
H785 H 0.83387 0.2571 0.00243 0.0
H786 H 0.77431 0.15214 0.01615 0.0
H787 H 0.78465 0.19011 0.99932 0.0
H788 H 0.76691 0.2423 0.07211 0.0
C789 C 0.80151 0.31404 0.02952 0.0
C790 C 0.81906 0.25411 0.01743 0.0
C791 C 0.79897 0.33548 0.01168 0.0
C792 C 0.78091 0.1651 0.04084 0.0
C793 C 0.78679 0.18684 0.03116 0.0
C794 C 0.78189 0.24543 0.05741 0.0
C795 C 0.80234 0.29477 0.00661 0.0
C796 C 0.8022 0.27184 0.02355 0.0
C797 C 0.79408 0.20434 0.06159 0.0
C798 C 0.798 0.22766 0.05009 0.0
H799 H 0.79803 0.32052 0.91677 0.0
H800 H 0.80167 0.28309 0.94721 0.0
H801 H 0.77006 0.28037 0.04864 0.0
H802 H 0.79287 0.17475 0.14406 0.0
H803 H 0.80224 0.21278 0.12653 0.0
C804 C 0.73146 0.67346 0.4032 0.0
C805 C 0.75951 0.66489 0.4057 0.0
C806 C 0.72949 0.69611 0.41246 0.0
C807 C 0.77945 0.74328 0.47499 0.0
H808 H 0.70578 0.77997 0.40329 0.0
C809 C 0.77622 0.83654 0.51441 0.0
C810 C 0.74801 0.84446 0.51237 0.0
C811 C 0.77702 0.81568 0.49662 0.0
C812 C 0.7264 0.76988 0.42383 0.0
H813 H 0.80739 0.6732 0.4197 0.0
H814 H 0.80393 0.71277 0.43588 0.0
H815 H 0.70812 0.74113 0.38178 0.0
H816 H 0.6981 0.83712 0.48794 0.0
H817 H 0.69978 0.80032 0.45834 0.0
H818 H 0.79747 0.77158 0.51771 0.0
C819 C 0.78352 0.70198 0.42681 0.0
C820 C 0.72773 0.74768 0.41147 0.0
C821 C 0.78541 0.67941 0.41724 0.0
C822 C 0.72034 0.83136 0.4907 0.0
C823 C 0.72121 0.81038 0.47321 0.0
C824 C 0.77804 0.76535 0.4875 0.0
C825 C 0.75563 0.71052 0.42476 0.0
C826 C 0.75427 0.73418 0.43701 0.0
C827 C 0.74973 0.80211 0.47675 0.0
C828 C 0.75149 0.77893 0.46214 0.0
H829 H 0.71103 0.66268 0.39395 0.0
H830 H 0.70778 0.70224 0.41095 0.0
H831 H 0.79997 0.73312 0.49566 0.0
H832 H 0.79808 0.84604 0.5312 0.0
H833 H 0.79925 0.80999 0.4992 0.0
C834 C 0.28741 0.833 0.00127 0.0
C835 C 0.30809 0.83977 0.98563 0.0
C836 C 0.28958 0.81149 0.01842 0.0
C837 C 0.31727 0.75442 0.01389 0.0
H838 H 0.2976 0.74402 0.10792 0.0
C839 C 0.31229 0.66558 0.0805 0.0
C840 C 0.28472 0.66146 0.08386 0.0
C841 C 0.31923 0.68728 0.07198 0.0
C842 C 0.30314 0.74669 0.08163 0.0
H843 H 0.34799 0.82954 0.97702 0.0
H844 H 0.35198 0.79182 0.00745 0.0
H845 H 0.30404 0.78246 0.08892 0.0
H846 H 0.24245 0.67691 0.07969 0.0
H847 H 0.25496 0.71474 0.06581 0.0
H848 H 0.31609 0.71852 0.00659 0.0
C849 C 0.33377 0.80312 0.00579 0.0
C850 C 0.30676 0.76868 0.07068 0.0
C851 C 0.33152 0.82469 0.98842 0.0
C852 C 0.26421 0.67952 0.07825 0.0
C853 C 0.27132 0.7012 0.07024 0.0
C854 C 0.31391 0.73237 0.02515 0.0
C855 C 0.31257 0.7962 0.02054 0.0
C856 C 0.31301 0.77283 0.03591 0.0
C857 C 0.29893 0.7053 0.06717 0.0
C858 C 0.30601 0.72837 0.05838 0.0
H859 H 0.2687 0.84404 0.99879 0.0
H860 H 0.27242 0.80659 0.02857 0.0
H861 H 0.32177 0.75702 0.98667 0.0
H862 H 0.32886 0.65214 0.08528 0.0
H863 H 0.34074 0.69006 0.06995 0.0
loop_
_geom_bond_atom_site_label_1
_geom_bond_atom_site_label_2
_geom_bond_distance
_geom_bond_site_symmetry_2
_ccdc_geom_bond_type
C0 C1 1.351 . S
C0 N3 1.368 . S
C0 H5 0.931 . S
C1 C0 1.351 . S
C1 N2 1.373 . S
C1 H29 0.930 . S
N2 C1 1.373 . S
N2 C4 1.340 . S
N3 C0 1.368 . S
N3 C4 1.321 . S
N3 Co6 2.135 . S
C4 N2 1.340 . S
C4 N3 1.321 . S
C4 H28 0.930 . S
H5 C0 0.931 . S
Co6 N3 2.135 . S
Co6 N9 2.121 . S
Co6 O14 2.055 . S
Co6 O17 2.039 . S
Co6 N20 2.140 . S
C7 O8 1.227 . S
C7 O17 1.265 . S
O8 C7 1.227 . S
N9 Co6 2.121 . S
N9 C11 1.375 . S
N9 C12 1.313 . S
C10 C11 1.338 . S
C10 N13 1.377 . S
C10 H30 0.930 . S
C11 N9 1.375 . S
C11 C10 1.338 . S
C11 H15 0.931 . S
C12 N9 1.313 . S
C12 N13 1.344 . S
C12 H16 0.930 . S
N13 C10 1.377 . S
N13 C12 1.344 . S
O14 Co6 2.055 . S
O14 C18 1.253 . S
H15 C11 0.931 . S
H16 C12 0.930 . S
O17 Co6 2.039 . S
O17 C7 1.265 . S
C18 O14 1.253 . S
C18 O19 1.227 . S
O19 C18 1.227 . S
N20 Co6 2.140 . S
N20 C23 1.346 . S
N20 C24 1.345 . S
C21 C22 1.387 . S
C21 C25 1.391 . S
C22 C21 1.387 . S
C22 C23 1.369 . S
C22 H31 0.929 . S
C23 N20 1.346 . S
C23 C22 1.369 . S
C23 H26 0.928 . S
C24 N20 1.345 . S
C24 C25 1.371 . S
C24 H27 0.931 . S
C25 C21 1.391 . S
C25 C24 1.371 . S
C25 H32 0.930 . S
H26 C23 0.928 . S
H27 C24 0.931 . S
H28 C4 0.930 . S
H29 C1 0.930 . S
H30 C10 0.930 . S
H31 C22 0.929 . S
H32 C25 0.930 . S
C33 C34 1.351 . S
C33 N36 1.368 . S
C33 H38 0.931 . S
C34 C33 1.351 . S
C34 N35 1.373 . S
C34 H62 0.930 . S
N35 C34 1.373 . S
N35 C37 1.340 . S
N36 C33 1.368 . S
N36 C37 1.321 . S
N36 Co39 2.135 . S
C37 N35 1.340 . S
C37 N36 1.321 . S
C37 H61 0.930 . S
H38 C33 0.931 . S
Co39 N36 2.135 . S
Co39 N42 2.121 . S
Co39 O47 2.055 . S
Co39 O50 2.039 . S
Co39 N53 2.140 . S
C40 O41 1.227 . S
C40 O50 1.265 . S
O41 C40 1.227 . S
N42 Co39 2.121 . S
N42 C44 1.375 . S
N42 C45 1.313 . S
C43 C44 1.338 . S
C43 N46 1.377 . S
C43 H63 0.930 1_554 S
C44 N42 1.375 . S
C44 C43 1.338 . S
C44 H48 0.931 1_554 S
C45 N42 1.313 . S
C45 N46 1.344 . S
C45 H49 0.930 . S
N46 C43 1.377 . S
N46 C45 1.344 . S
O47 Co39 2.055 . S
O47 C51 1.253 . S
H48 C44 0.931 1_556 S
H49 C45 0.930 . S
O50 Co39 2.039 . S
O50 C40 1.265 . S
C51 O47 1.253 . S
C51 O52 1.227 . S
O52 C51 1.227 . S
N53 Co39 2.140 . S
N53 C56 1.346 . S
N53 C57 1.345 . S
C54 C55 1.387 . S
C54 C58 1.391 . S
C55 C54 1.387 . S
C55 C56 1.369 . S
C55 H64 0.929 . S
C56 N53 1.346 . S
C56 C55 1.369 . S
C56 H59 0.928 . S
C57 N53 1.345 . S
C57 C58 1.371 . S
C57 H60 0.931 . S
C58 C54 1.391 . S
C58 C57 1.371 . S
C58 H65 0.930 . S
H59 C56 0.928 . S
H60 C57 0.931 . S
H61 C37 0.930 . S
H62 C34 0.930 . S
H63 C43 0.930 1_556 S
H64 C55 0.929 . S
H65 C58 0.930 . S
C66 C67 1.351 . S
C66 N69 1.368 . S
C66 H71 0.931 . S
C67 C66 1.351 . S
C67 N68 1.373 . S
C67 H95 0.930 . S
N68 C67 1.373 . S
N68 C70 1.340 . S
N69 C66 1.368 . S
N69 C70 1.321 . S
N69 Co72 2.135 . S
C70 N68 1.340 . S
C70 N69 1.321 . S
C70 H94 0.930 . S
H71 C66 0.931 . S
Co72 N69 2.135 . S
Co72 N75 2.121 . S
Co72 O80 2.055 . S
Co72 O83 2.039 . S
Co72 N86 2.140 . S
C73 O74 1.227 . S
C73 O83 1.265 . S
O74 C73 1.227 . S
N75 Co72 2.121 . S
N75 C77 1.375 . S
N75 C78 1.313 . S
C76 C77 1.338 . S
C76 N79 1.377 . S
C76 H96 0.930 . S
C77 N75 1.375 . S
C77 C76 1.338 . S
C77 H81 0.931 . S
C78 N75 1.313 . S
C78 N79 1.344 . S
C78 H82 0.930 . S
N79 C76 1.377 . S
N79 C78 1.344 . S
O80 Co72 2.055 . S
O80 C84 1.253 . S
H81 C77 0.931 . S
H82 C78 0.930 . S
O83 Co72 2.039 . S
O83 C73 1.265 . S
C84 O80 1.253 . S
C84 O85 1.227 . S
O85 C84 1.227 . S
N86 Co72 2.140 . S
N86 C89 1.346 . S
N86 C90 1.345 . S
C87 C88 1.387 . S
C87 C91 1.391 . S
C88 C87 1.387 . S
C88 C89 1.369 . S
C88 H97 0.929 . S
C89 N86 1.346 . S
C89 C88 1.369 . S
C89 H92 0.928 . S
C90 N86 1.345 . S
C90 C91 1.371 . S
C90 H93 0.931 . S
C91 C87 1.391 . S
C91 C90 1.371 . S
C91 H98 0.930 . S
H92 C89 0.928 . S
H93 C90 0.931 . S
H94 C70 0.930 . S
H95 C67 0.930 . S
H96 C76 0.930 . S
H97 C88 0.929 . S
H98 C91 0.930 . S
C99 C100 1.351 . S
C99 N102 1.368 . S
C99 H104 0.931 . S
C100 C99 1.351 . S
C100 N101 1.373 . S
C100 H128 0.930 . S
N101 C100 1.373 . S
N101 C103 1.340 . S
N102 C99 1.368 . S
N102 C103 1.321 . S
N102 Co105 2.135 . S
C103 N101 1.340 . S
C103 N102 1.321 . S
C103 H127 0.930 . S
H104 C99 0.931 . S
Co105 N102 2.135 . S
Co105 N108 2.121 . S
Co105 O113 2.055 . S
Co105 O116 2.039 . S
Co105 N119 2.140 . S
C106 O107 1.227 . S
C106 O116 1.265 . S
O107 C106 1.227 . S
N108 Co105 2.121 . S
N108 C110 1.375 . S
N108 C111 1.313 . S
C109 C110 1.338 . S
C109 N112 1.377 . S
C109 H129 0.930 1_556 S
C110 N108 1.375 . S
C110 C109 1.338 . S
C110 H114 0.931 1_556 S
C111 N108 1.313 . S
C111 N112 1.344 . S
C111 H115 0.930 . S
N112 C109 1.377 . S
N112 C111 1.344 . S
O113 Co105 2.055 . S
O113 C117 1.253 . S
H114 C110 0.931 1_554 S
H115 C111 0.930 . S
O116 Co105 2.039 . S
O116 C106 1.265 . S
C117 O113 1.253 . S
C117 O118 1.227 . S
O118 C117 1.227 . S
N119 Co105 2.140 . S
N119 C122 1.346 . S
N119 C123 1.345 . S
C120 C121 1.387 . S
C120 C124 1.391 . S
C121 C120 1.387 . S
C121 C122 1.369 . S
C121 H130 0.929 . S
C122 N119 1.346 . S
C122 C121 1.369 . S
C122 H125 0.928 . S
C123 N119 1.345 . S
C123 C124 1.371 . S
C123 H126 0.931 . S
C124 C120 1.391 . S
C124 C123 1.371 . S
C124 H131 0.930 . S
H125 C122 0.928 . S
H126 C123 0.931 . S
H127 C103 0.930 . S
H128 C100 0.930 . S
H129 C109 0.930 1_554 S
H130 C121 0.929 . S
H131 C124 0.930 . S
C132 C133 1.351 . S
C132 N135 1.368 . S
C132 H137 0.931 . S
C133 C132 1.351 . S
C133 N134 1.373 . S
C133 H161 0.930 . S
N134 C133 1.373 . S
N134 C136 1.340 . S
N135 C132 1.368 . S
N135 C136 1.321 . S
N135 Co138 2.135 . S
C136 N134 1.340 . S
C136 N135 1.321 . S
C136 H160 0.930 . S
H137 C132 0.931 . S
Co138 N135 2.135 . S
Co138 N141 2.121 . S
Co138 O146 2.055 . S
Co138 O149 2.039 . S
Co138 N152 2.140 . S
C139 O140 1.227 . S
C139 O149 1.265 . S
O140 C139 1.227 . S
N141 Co138 2.121 . S
N141 C143 1.375 . S
N141 C144 1.313 . S
C142 C143 1.338 . S
C142 N145 1.377 . S
C142 H162 0.930 . S
C143 N141 1.375 . S
C143 C142 1.338 . S
C143 H147 0.931 . S
C144 N141 1.313 . S
C144 N145 1.344 . S
C144 H148 0.930 . S
N145 C142 1.377 . S
N145 C144 1.344 . S
O146 Co138 2.055 . S
O146 C150 1.253 . S
H147 C143 0.931 . S
H148 C144 0.930 . S
O149 Co138 2.039 . S
O149 C139 1.265 . S
C150 O146 1.253 . S
C150 O151 1.227 . S
O151 C150 1.227 . S
N152 Co138 2.140 . S
N152 C155 1.346 . S
N152 C156 1.345 . S
C153 C154 1.387 . S
C153 C157 1.391 . S
C154 C153 1.387 . S
C154 C155 1.369 . S
C154 H163 0.929 . S
C155 N152 1.346 . S
C155 C154 1.369 . S
C155 H158 0.928 . S
C156 N152 1.345 . S
C156 C157 1.371 . S
C156 H159 0.931 . S
C157 C153 1.391 . S
C157 C156 1.371 . S
C157 H164 0.930 . S
H158 C155 0.928 . S
H159 C156 0.931 . S
H160 C136 0.930 . S
H161 C133 0.930 . S
H162 C142 0.930 . S
H163 C154 0.929 . S
H164 C157 0.930 . S
C165 C166 1.351 . S
C165 N168 1.368 . S
C165 H170 0.931 . S
C166 C165 1.351 . S
C166 N167 1.373 . S
C166 H194 0.930 . S
N167 C166 1.373 . S
N167 C169 1.340 . S
N168 C165 1.368 . S
N168 C169 1.321 . S
N168 Co171 2.135 . S
C169 N167 1.340 . S
C169 N168 1.321 . S
C169 H193 0.930 . S
H170 C165 0.931 . S
Co171 N168 2.135 . S
Co171 N174 2.121 . S
Co171 O179 2.055 . S
Co171 O182 2.039 . S
Co171 N185 2.140 . S
C172 O173 1.227 . S
C172 O182 1.265 . S
O173 C172 1.227 . S
N174 Co171 2.121 . S
N174 C176 1.375 . S
N174 C177 1.313 . S
C175 C176 1.338 . S
C175 N178 1.377 . S
C175 H195 0.930 1_554 S
C176 N174 1.375 . S
C176 C175 1.338 . S
C176 H180 0.931 1_554 S
C177 N174 1.313 . S
C177 N178 1.344 . S
C177 H181 0.930 . S
N178 C175 1.377 . S
N178 C177 1.344 . S
O179 Co171 2.055 . S
O179 C183 1.253 . S
H180 C176 0.931 1_556 S
H181 C177 0.930 . S
O182 Co171 2.039 . S
O182 C172 1.265 . S
C183 O179 1.253 . S
C183 O184 1.227 . S
O184 C183 1.227 . S
N185 Co171 2.140 . S
N185 C188 1.346 . S
N185 C189 1.345 . S
C186 C187 1.387 . S
C186 C190 1.391 . S
C187 C186 1.387 . S
C187 C188 1.369 . S
C187 H196 0.929 . S
C188 N185 1.346 . S
C188 C187 1.369 . S
C188 H191 0.928 . S
C189 N185 1.345 . S
C189 C190 1.371 . S
C189 H192 0.931 . S
C190 C186 1.391 . S
C190 C189 1.371 . S
C190 H197 0.930 . S
H191 C188 0.928 . S
H192 C189 0.931 . S
H193 C169 0.930 . S
H194 C166 0.930 . S
H195 C175 0.930 1_556 S
H196 C187 0.929 . S
H197 C190 0.930 . S
C198 C199 1.351 . S
C198 N201 1.368 . S
C198 H203 0.931 . S
C199 C198 1.351 . S
C199 N200 1.373 . S
C199 H227 0.930 . S
N200 C199 1.373 . S
N200 C202 1.340 . S
N201 C198 1.368 . S
N201 C202 1.321 . S
N201 Co204 2.135 . S
C202 N200 1.340 . S
C202 N201 1.321 . S
C202 H226 0.930 . S
H203 C198 0.931 . S
Co204 N201 2.135 . S
Co204 N207 2.121 . S
Co204 O212 2.055 . S
Co204 O215 2.039 . S
Co204 N218 2.140 . S
C205 O206 1.227 . S
C205 O215 1.265 . S
O206 C205 1.227 . S
N207 Co204 2.121 . S
N207 C209 1.375 . S
N207 C210 1.313 . S
C208 C209 1.338 . S
C208 N211 1.377 . S
C208 H228 0.930 . S
C209 N207 1.375 . S
C209 C208 1.338 . S
C209 H213 0.931 . S
C210 N207 1.313 . S
C210 N211 1.344 . S
C210 H214 0.930 . S
N211 C208 1.377 . S
N211 C210 1.344 . S
O212 Co204 2.055 . S
O212 C216 1.253 . S
H213 C209 0.931 . S
H214 C210 0.930 . S
O215 Co204 2.039 . S
O215 C205 1.265 . S
C216 O212 1.253 . S
C216 O217 1.227 . S
O217 C216 1.227 . S
N218 Co204 2.140 . S
N218 C221 1.346 . S
N218 C222 1.345 . S
C219 C220 1.387 . S
C219 C223 1.391 . S
C220 C219 1.387 . S
C220 C221 1.369 . S
C220 H229 0.929 . S
C221 N218 1.346 . S
C221 C220 1.369 . S
C221 H224 0.928 . S
C222 N218 1.345 . S
C222 C223 1.371 . S
C222 H225 0.931 . S
C223 C219 1.391 . S
C223 C222 1.371 . S
C223 H230 0.930 . S
H224 C221 0.928 . S
H225 C222 0.931 . S
H226 C202 0.930 . S
H227 C199 0.930 . S
H228 C208 0.930 . S
H229 C220 0.929 . S
H230 C223 0.930 . S
C231 C232 1.351 . S
C231 N234 1.368 . S
C231 H236 0.931 . S
C232 C231 1.351 . S
C232 N233 1.373 . S
C232 H260 0.930 . S
N233 C232 1.373 . S
N233 C235 1.340 . S
N234 C231 1.368 . S
N234 C235 1.321 . S
N234 Co237 2.135 . S
C235 N233 1.340 . S
C235 N234 1.321 . S
C235 H259 0.930 . S
H236 C231 0.931 . S
Co237 N234 2.135 . S
Co237 N240 2.121 . S
Co237 O245 2.055 . S
Co237 O248 2.039 . S
Co237 N251 2.140 . S
C238 O239 1.227 . S
C238 O248 1.265 . S
O239 C238 1.227 . S
N240 Co237 2.121 . S
N240 C242 1.375 . S
N240 C243 1.313 . S
C241 C242 1.338 . S
C241 N244 1.377 . S
C241 H261 0.930 1_556 S
C242 N240 1.375 . S
C242 C241 1.338 . S
C242 H246 0.931 1_556 S
C243 N240 1.313 . S
C243 N244 1.344 . S
C243 H247 0.930 . S
N244 C241 1.377 . S
N244 C243 1.344 . S
O245 Co237 2.055 . S
O245 C249 1.253 . S
H246 C242 0.931 1_554 S
H247 C243 0.930 . S
O248 Co237 2.039 . S
O248 C238 1.265 . S
C249 O245 1.253 . S
C249 O250 1.227 . S
O250 C249 1.227 . S
N251 Co237 2.140 . S
N251 C254 1.346 . S
N251 C255 1.345 . S
C252 C253 1.387 . S
C252 C256 1.391 . S
C253 C252 1.387 . S
C253 C254 1.369 . S
C253 H262 0.929 . S
C254 N251 1.346 . S
C254 C253 1.369 . S
C254 H257 0.928 . S
C255 N251 1.345 . S
C255 C256 1.371 . S
C255 H258 0.931 . S
C256 C252 1.391 . S
C256 C255 1.371 . S
C256 H263 0.930 . S
H257 C254 0.928 . S
H258 C255 0.931 . S
H259 C235 0.930 . S
H260 C232 0.930 . S
H261 C241 0.930 1_554 S
H262 C253 0.929 . S
H263 C256 0.930 . S
C264 C265 1.354 1_556 S
C264 C266 1.307 1_556 S
C264 H289 0.965 . S
C265 C264 1.354 1_554 S
C265 C281 1.349 . S
C266 C264 1.307 1_554 S
C266 C285 1.429 . S
C266 H290 0.950 1_565 S
C267 C284 1.574 . S
C267 C286 1.368 . S
C267 H291 0.949 . S
H268 C272 0.949 . S
C269 C270 1.349 . S
C269 C271 1.327 . S
C269 H292 0.950 . S
C270 C269 1.349 . S
C270 C282 1.349 . S
C271 C269 1.327 . S
C271 C287 1.429 . S
C271 H293 0.950 1_545 S
C272 H268 0.949 . S
C272 C280 1.574 . S
C272 C288 1.368 . S
H273 C281 0.950 . S
H274 C279 0.950 . S
H275 C280 0.949 . S
H276 C282 0.950 . S
H277 C283 0.950 . S
H278 C284 0.949 . S
C279 H274 0.950 . S
C279 C281 1.327 . S
C279 C285 1.429 . S
C280 C272 1.574 . S
C280 H275 0.949 . S
C280 C286 1.368 1_545 S
C281 C265 1.349 . S
C281 H273 0.950 . S
C281 C279 1.327 . S
C282 C270 1.349 . S
C282 H276 0.950 . S
C282 C283 1.327 . S
C283 H277 0.950 . S
C283 C282 1.327 . S
C283 C287 1.429 . S
C284 C267 1.574 . S
C284 H278 0.949 . S
C284 C288 1.368 1_565 S
C285 C266 1.429 . S
C285 C279 1.429 . S
C285 C286 1.523 . S
C286 C267 1.368 . S
C286 C280 1.368 1_565 S
C286 C285 1.523 . S
C287 C271 1.429 . S
C287 C283 1.429 . S
C287 C288 1.523 . S
C288 C272 1.368 . S
C288 C284 1.368 1_545 S
C288 C287 1.523 . S
H289 C264 0.965 . S
H290 C266 0.950 1_545 S
H291 C267 0.949 . S
H292 C269 0.950 . S
H293 C271 0.950 1_565 S
C294 C295 1.349 . S
C294 C296 1.327 . S
C294 H319 0.950 . S
C295 C294 1.349 . S
C295 C311 1.349 . S
C296 C294 1.327 . S
C296 C315 1.429 . S
C296 H320 0.950 . S
C297 C314 1.574 . S
C297 C316 1.368 1_565 S
C297 H321 0.949 . S
H298 C302 0.949 . S
C299 C300 1.349 . S
C299 C301 1.327 . S
C299 H322 0.950 . S
C300 C299 1.349 . S
C300 C312 1.349 . S
C301 C299 1.327 . S
C301 C317 1.429 . S
C301 H323 0.950 . S
C302 H298 0.949 . S
C302 C310 1.574 . S
C302 C318 1.368 1_545 S
H303 C311 0.950 . S
H304 C309 0.950 1_565 S
H305 C310 0.949 . S
H306 C312 0.950 . S
H307 C313 0.950 1_545 S
H308 C314 0.949 . S
C309 H304 0.950 1_545 S
C309 C311 1.327 . S
C309 C315 1.429 . S
C310 C302 1.574 . S
C310 H305 0.949 . S
C310 C316 1.368 . S
C311 C295 1.349 . S
C311 H303 0.950 . S
C311 C309 1.327 . S
C312 C300 1.349 . S
C312 H306 0.950 . S
C312 C313 1.327 . S
C313 H307 0.950 1_565 S
C313 C312 1.327 . S
C313 C317 1.429 . S
C314 C297 1.574 . S
C314 H308 0.949 . S
C314 C318 1.368 . S
C315 C296 1.429 . S
C315 C309 1.429 . S
C315 C316 1.523 . S
C316 C297 1.368 1_545 S
C316 C310 1.368 . S
C316 C315 1.523 . S
C317 C301 1.429 . S
C317 C313 1.429 . S
C317 C318 1.523 . S
C318 C302 1.368 1_565 S
C318 C314 1.368 . S
C318 C317 1.523 . S
H319 C294 0.950 . S
H320 C296 0.950 . S
H321 C297 0.949 . S
H322 C299 0.950 . S
H323 C301 0.950 . S
C324 C325 1.349 . S
C324 C326 1.327 . S
C324 H349 0.950 . S
C325 C324 1.349 . S
C325 C341 1.349 . S
C326 C324 1.327 . S
C326 C345 1.429 . S
C326 H350 0.950 1_565 S
C327 C344 1.574 . S
C327 C346 1.368 . S
C327 H351 0.949 . S
H328 C332 0.949 . S
C329 C330 1.349 . S
C329 C331 1.348 . S
C329 H352 0.963 1_556 S
C330 C329 1.349 . S
C330 C342 1.349 . S
C331 C329 1.348 . S
C331 C347 1.457 . S
C331 H353 0.901 1_545 S
C332 H328 0.949 . S
C332 C340 1.574 . S
C332 C348 1.368 . S
H333 C341 0.950 . S
H334 C339 0.950 . S
H335 C340 0.949 . S
H336 C342 0.950 . S
H337 C343 0.950 . S
H338 C344 0.949 . S
C339 H334 0.950 . S
C339 C341 1.327 . S
C339 C345 1.429 . S
C340 C332 1.574 . S
C340 H335 0.949 . S
C340 C346 1.368 1_545 S
C341 C325 1.349 . S
C341 H333 0.950 . S
C341 C339 1.327 . S
C342 C330 1.349 . S
C342 H336 0.950 . S
C342 C343 1.327 . S
C343 H337 0.950 . S
C343 C342 1.327 . S
C343 C347 1.429 . S
C344 C327 1.574 . S
C344 H338 0.949 . S
C344 C348 1.368 1_565 S
C345 C326 1.429 . S
C345 C339 1.429 . S
C345 C346 1.523 . S
C346 C327 1.368 . S
C346 C340 1.368 1_565 S
C346 C345 1.523 . S
C347 C331 1.457 . S
C347 C343 1.429 . S
C347 C348 1.523 . S
C348 C332 1.368 . S
C348 C344 1.368 1_545 S
C348 C347 1.523 . S
H349 C324 0.950 . S
H350 C326 0.950 1_545 S
H351 C327 0.949 . S
H352 C329 0.963 1_554 S
H353 C331 0.901 1_565 S
C354 C355 1.349 . S
C354 C356 1.327 . S
C354 H379 0.950 . S
C355 C354 1.349 . S
C355 C371 1.349 . S
C356 C354 1.327 . S
C356 C375 1.429 . S
C356 H380 0.950 1_565 S
C357 C374 1.574 . S
C357 C376 1.368 . S
C357 H381 0.949 . S
H358 C362 0.949 . S
C359 C360 1.349 . S
C359 C361 1.327 . S
C359 H382 0.950 . S
C360 C359 1.349 . S
C360 C372 1.349 . S
C361 C359 1.327 . S
C361 C377 1.429 . S
C361 H383 0.950 1_545 S
C362 H358 0.949 . S
C362 C370 1.574 . S
C362 C378 1.368 . S
H363 C371 0.950 . S
H364 C369 0.950 . S
H365 C370 0.949 . S
H366 C372 0.950 . S
H367 C373 0.950 . S
H368 C374 0.949 . S
C369 H364 0.950 . S
C369 C371 1.327 . S
C369 C375 1.429 . S
C370 C362 1.574 . S
C370 H365 0.949 . S
C370 C376 1.368 1_545 S
C371 C355 1.349 . S
C371 H363 0.950 . S
C371 C369 1.327 . S
C372 C360 1.349 . S
C372 H366 0.950 . S
C372 C373 1.327 . S
C373 H367 0.950 . S
C373 C372 1.327 . S
C373 C377 1.429 . S
C374 C357 1.574 . S
C374 H368 0.949 . S
C374 C378 1.368 1_565 S
C375 C356 1.429 . S
C375 C369 1.429 . S
C375 C376 1.523 . S
C376 C357 1.368 . S
C376 C370 1.368 1_565 S
C376 C375 1.523 . S
C377 C361 1.429 . S
C377 C373 1.429 . S
C377 C378 1.523 . S
C378 C362 1.368 . S
C378 C374 1.368 1_545 S
C378 C377 1.523 . S
H379 C354 0.950 . S
H380 C356 0.950 1_545 S
H381 C357 0.949 . S
H382 C359 0.950 . S
H383 C361 0.950 1_565 S
C384 C385 1.349 . S
C384 C386 1.327 . S
C384 H409 0.950 . S
C385 C384 1.349 . S
C385 C401 1.349 . S
C386 C384 1.327 . S
C386 C405 1.429 . S
C386 H410 0.950 . S
C387 C404 1.574 . S
C387 C406 1.368 . S
C387 H411 0.949 . S
H388 C392 0.949 . S
C389 C390 1.349 . S
C389 C391 1.327 . S
C389 H412 0.950 . S
C390 C389 1.349 . S
C390 C402 1.349 . S
C391 C389 1.327 . S
C391 C407 1.429 . S
C391 H413 0.950 . S
C392 H388 0.949 . S
C392 C400 1.574 . S
C392 C408 1.368 . S
H393 C401 0.950 . S
H394 C399 0.950 . S
H395 C400 0.949 . S
H396 C402 0.950 1_556 S
H397 C403 0.950 . S
H398 C404 0.949 . S
C399 H394 0.950 . S
C399 C401 1.327 . S
C399 C405 1.429 . S
C400 C392 1.574 . S
C400 H395 0.949 . S
C400 C406 1.368 . S
C401 C385 1.349 . S
C401 H393 0.950 . S
C401 C399 1.327 . S
C402 C390 1.349 . S
C402 H396 0.950 1_554 S
C402 C403 1.327 . S
C403 H397 0.950 . S
C403 C402 1.327 . S
C403 C407 1.429 . S
C404 C387 1.574 . S
C404 H398 0.949 . S
C404 C408 1.368 . S
C405 C386 1.429 . S
C405 C399 1.429 . S
C405 C406 1.523 . S
C406 C387 1.368 . S
C406 C400 1.368 . S
C406 C405 1.523 . S
C407 C391 1.429 . S
C407 C403 1.429 . S
C407 C408 1.523 . S
C408 C392 1.368 . S
C408 C404 1.368 . S
C408 C407 1.523 . S
H409 C384 0.950 . S
H410 C386 0.950 . S
H411 C387 0.949 . S
H412 C389 0.950 . S
H413 C391 0.950 . S
C414 C415 1.349 . S
C414 C416 1.327 . S
C414 H439 0.950 . S
C415 C414 1.349 . S
C415 C431 1.349 . S
C416 C414 1.327 . S
C416 C435 1.429 . S
C416 H440 0.950 . S
C417 C434 1.574 . S
C417 C436 1.368 . S
C417 H441 0.949 . S
H418 C422 0.949 . S
C419 C420 1.349 . S
C419 C421 1.327 . S
C419 H442 0.950 . S
C420 C419 1.349 . S
C420 C432 1.349 . S
C421 C419 1.327 . S
C421 C437 1.429 . S
C421 H443 0.950 . S
C422 H418 0.949 . S
C422 C430 1.574 . S
C422 C438 1.368 . S
H423 C431 0.950 . S
H424 C429 0.950 . S
H425 C430 0.949 . S
H426 C432 0.950 . S
H427 C433 0.950 . S
H428 C434 0.949 . S
C429 H424 0.950 . S
C429 C431 1.327 . S
C429 C435 1.429 . S
C430 C422 1.574 . S
C430 H425 0.949 . S
C430 C436 1.368 . S
C431 C415 1.349 . S
C431 H423 0.950 . S
C431 C429 1.327 . S
C432 C420 1.349 . S
C432 H426 0.950 . S
C432 C433 1.327 . S
C433 H427 0.950 . S
C433 C432 1.327 . S
C433 C437 1.429 . S
C434 C417 1.574 . S
C434 H428 0.949 . S
C434 C438 1.368 . S
C435 C416 1.429 . S
C435 C429 1.429 . S
C435 C436 1.523 . S
C436 C417 1.368 . S
C436 C430 1.368 . S
C436 C435 1.523 . S
C437 C421 1.429 . S
C437 C433 1.429 . S
C437 C438 1.523 . S
C438 C422 1.368 . S
C438 C434 1.368 . S
C438 C437 1.523 . S
H439 C414 0.950 . S
H440 C416 0.950 . S
H441 C417 0.949 . S
H442 C419 0.950 . S
H443 C421 0.950 . S
C444 C445 1.349 . S
C444 C446 1.327 . S
C444 H469 0.950 . S
C445 C444 1.349 . S
C445 C461 1.349 . S
C446 C444 1.327 . S
C446 C465 1.429 . S
C446 H470 0.950 . S
C447 C464 1.574 . S
C447 C466 1.368 . S
C447 H471 0.949 . S
H448 C452 0.949 . S
C449 C450 1.349 . S
C449 C451 1.327 . S
C449 H472 0.950 . S
C450 C449 1.349 . S
C450 C462 1.349 . S
C451 C449 1.327 . S
C451 C467 1.429 . S
C451 H473 0.950 . S
C452 H448 0.949 . S
C452 C460 1.574 . S
C452 C468 1.368 . S
H453 C461 0.950 1_554 S
H454 C459 0.950 . S
H455 C460 0.949 . S
H456 C462 0.950 . S
H457 C463 0.950 . S
H458 C464 0.949 . S
C459 H454 0.950 . S
C459 C461 1.327 . S
C459 C465 1.429 . S
C460 C452 1.574 . S
C460 H455 0.949 . S
C460 C466 1.368 . S
C461 C445 1.349 . S
C461 H453 0.950 1_556 S
C461 C459 1.327 . S
C462 C450 1.349 . S
C462 H456 0.950 . S
C462 C463 1.327 . S
C463 H457 0.950 . S
C463 C462 1.327 . S
C463 C467 1.429 . S
C464 C447 1.574 . S
C464 H458 0.949 . S
C464 C468 1.368 . S
C465 C446 1.429 . S
C465 C459 1.429 . S
C465 C466 1.523 . S
C466 C447 1.368 . S
C466 C460 1.368 . S
C466 C465 1.523 . S
C467 C451 1.429 . S
C467 C463 1.429 . S
C467 C468 1.523 . S
C468 C452 1.368 . S
C468 C464 1.368 . S
C468 C467 1.523 . S
H469 C444 0.950 . S
H470 C446 0.950 . S
H471 C447 0.949 . S
H472 C449 0.950 . S
H473 C451 0.950 . S
C474 C475 1.349 . S
C474 C476 1.327 . S
C474 H499 0.950 . S
C475 C474 1.349 . S
C475 C491 1.349 . S
C476 C474 1.327 . S
C476 C495 1.429 . S
C476 H500 0.950 . S
C477 C494 1.574 . S
C477 C496 1.368 . S
C477 H501 0.949 . S
H478 C482 0.949 . S
C479 C480 1.349 . S
C479 C481 1.327 . S
C479 H502 0.950 . S
C480 C479 1.349 . S
C480 C492 1.349 . S
C481 C479 1.327 . S
C481 C497 1.429 . S
C481 H503 0.950 . S
C482 H478 0.949 . S
C482 C490 1.574 . S
C482 C498 1.368 . S
H483 C491 0.950 . S
H484 C489 0.950 . S
H485 C490 0.949 . S
H486 C492 0.950 . S
H487 C493 0.950 . S
H488 C494 0.949 . S
C489 H484 0.950 . S
C489 C491 1.327 . S
C489 C495 1.429 . S
C490 C482 1.574 . S
C490 H485 0.949 . S
C490 C496 1.368 . S
C491 C475 1.349 . S
C491 H483 0.950 . S
C491 C489 1.327 . S
C492 C480 1.349 . S
C492 H486 0.950 . S
C492 C493 1.327 . S
C493 H487 0.950 . S
C493 C492 1.327 . S
C493 C497 1.429 . S
C494 C477 1.574 . S
C494 H488 0.949 . S
C494 C498 1.368 . S
C495 C476 1.429 . S
C495 C489 1.429 . S
C495 C496 1.523 . S
C496 C477 1.368 . S
C496 C490 1.368 . S
C496 C495 1.523 . S
C497 C481 1.429 . S
C497 C493 1.429 . S
C497 C498 1.523 . S
C498 C482 1.368 . S
C498 C494 1.368 . S
C498 C497 1.523 . S
H499 C474 0.950 . S
H500 C476 0.950 . S
H501 C477 0.949 . S
H502 C479 0.950 . S
H503 C481 0.950 . S
C504 C505 1.349 . S
C504 C506 1.327 . S
C504 H529 0.950 . S
C505 C504 1.349 . S
C505 C521 1.349 . S
C506 C504 1.327 . S
C506 C525 1.429 . S
C506 H530 0.950 . S
C507 C524 1.574 . S
C507 C526 1.368 . S
C507 H531 0.949 . S
H508 C512 0.949 . S
C509 C510 1.349 . S
C509 C511 1.327 . S
C509 H532 0.950 . S
C510 C509 1.349 . S
C510 C522 1.349 . S
C511 C509 1.327 . S
C511 C527 1.429 . S
C511 H533 0.950 . S
C512 H508 0.949 . S
C512 C520 1.574 . S
C512 C528 1.368 . S
H513 C521 0.950 . S
H514 C519 0.950 . S
H515 C520 0.949 . S
H516 C522 0.950 . S
H517 C523 0.950 . S
H518 C524 0.949 . S
C519 H514 0.950 . S
C519 C521 1.327 . S
C519 C525 1.429 . S
C520 C512 1.574 . S
C520 H515 0.949 . S
C520 C526 1.368 1_545 S
C521 C505 1.349 . S
C521 H513 0.950 . S
C521 C519 1.327 . S
C522 C510 1.349 . S
C522 H516 0.950 . S
C522 C523 1.327 . S
C523 H517 0.950 . S
C523 C522 1.327 . S
C523 C527 1.429 . S
C524 C507 1.574 . S
C524 H518 0.949 . S
C524 C528 1.368 1_565 S
C525 C506 1.429 . S
C525 C519 1.429 . S
C525 C526 1.523 . S
C526 C507 1.368 . S
C526 C520 1.368 1_565 S
C526 C525 1.523 . S
C527 C511 1.429 . S
C527 C523 1.429 . S
C527 C528 1.523 . S
C528 C512 1.368 . S
C528 C524 1.368 1_545 S
C528 C527 1.523 . S
H529 C504 0.950 . S
H530 C506 0.950 . S
H531 C507 0.949 . S
H532 C509 0.950 . S
H533 C511 0.950 . S
C534 C535 1.349 . S
C534 C536 1.327 . S
C534 H559 0.950 . S
C535 C534 1.349 . S
C535 C551 1.349 1_556 S
C536 C534 1.327 . S
C536 C555 1.429 . S
C536 H560 0.950 . S
C537 C554 1.574 1_565 S
C537 C556 1.368 1_554 S
C537 H561 0.949 . S
H538 C542 0.949 . S
C539 C540 1.349 . S
C539 C541 1.327 . S
C539 H562 0.950 . S
C540 C539 1.349 . S
C540 C552 1.349 1_554 S
C541 C539 1.327 . S
C541 C557 1.429 . S
C541 H563 0.950 . S
C542 H538 0.949 . S
C542 C550 1.574 1_545 S
C542 C558 1.368 1_556 S
H543 C551 0.950 . S
H544 C549 0.950 . S
H545 C550 0.949 . S
H546 C552 0.950 . S
H547 C553 0.950 . S
H548 C554 0.949 . S
C549 H544 0.950 . S
C549 C551 1.327 . S
C549 C555 1.429 1_554 S
C550 C542 1.574 1_565 S
C550 H545 0.949 . S
C550 C556 1.368 . S
C551 C535 1.349 1_554 S
C551 H543 0.950 . S
C551 C549 1.327 . S
C552 C540 1.349 1_556 S
C552 H546 0.950 . S
C552 C553 1.327 . S
C553 H547 0.950 . S
C553 C552 1.327 . S
C553 C557 1.429 1_556 S
C554 C537 1.574 1_545 S
C554 H548 0.949 . S
C554 C558 1.368 . S
C555 C536 1.429 . S
C555 C549 1.429 1_556 S
C555 C556 1.523 . S
C556 C537 1.368 1_556 S
C556 C550 1.368 . S
C556 C555 1.523 . S
C557 C541 1.429 . S
C557 C553 1.429 1_554 S
C557 C558 1.523 . S
C558 C542 1.368 1_554 S
C558 C554 1.368 . S
C558 C557 1.523 . S
H559 C534 0.950 . S
H560 C536 0.950 . S
H561 C537 0.949 . S
H562 C539 0.950 . S
H563 C541 0.950 . S
C564 C565 1.349 . S
C564 C566 1.327 . S
C564 H589 0.950 . S
C565 C564 1.349 . S
C565 C581 1.349 . S
C566 C564 1.327 . S
C566 C585 1.429 . S
C566 H590 0.950 . S
C567 C584 1.574 1_655 S
C567 C586 1.368 . S
C567 H591 0.949 . S
H568 C572 0.949 . S
C569 C570 1.349 . S
C569 C571 1.327 . S
C569 H592 0.950 . S
C570 C569 1.349 . S
C570 C582 1.349 . S
C571 C569 1.327 . S
C571 C587 1.429 . S
C571 H593 0.950 . S
C572 H568 0.949 . S
C572 C580 1.574 1_455 S
C572 C588 1.368 . S
H573 C581 0.950 . S
H574 C579 0.950 . S
H575 C580 0.949 . S
H576 C582 0.950 . S
H577 C583 0.950 . S
H578 C584 0.949 . S
C579 H574 0.950 . S
C579 C581 1.327 . S
C579 C585 1.429 . S
C580 C572 1.574 1_655 S
C580 H575 0.949 . S
C580 C586 1.368 . S
C581 C565 1.349 . S
C581 H573 0.950 . S
C581 C579 1.327 . S
C582 C570 1.349 . S
C582 H576 0.950 . S
C582 C583 1.327 . S
C583 H577 0.950 . S
C583 C582 1.327 . S
C583 C587 1.429 . S
C584 C567 1.574 1_455 S
C584 H578 0.949 . S
C584 C588 1.368 . S
C585 C566 1.429 . S
C585 C579 1.429 . S
C585 C586 1.523 . S
C586 C567 1.368 . S
C586 C580 1.368 . S
C586 C585 1.523 . S
C587 C571 1.429 . S
C587 C583 1.429 . S
C587 C588 1.523 . S
C588 C572 1.368 . S
C588 C584 1.368 . S
C588 C587 1.523 . S
H589 C564 0.950 . S
H590 C566 0.950 . S
H591 C567 0.949 . S
H592 C569 0.950 . S
H593 C571 0.950 . S
C594 C595 1.349 1_556 S
C594 C596 1.327 . S
C594 H619 0.950 . S
C595 C594 1.349 1_554 S
C595 C611 1.349 . S
C596 C594 1.327 . S
C596 C615 1.429 1_556 S
C596 H620 0.950 . S
C597 C614 1.574 1_455 S
C597 C616 1.368 . S
C597 H621 0.949 . S
H598 C602 0.949 . S
C599 C600 1.349 1_554 S
C599 C601 1.327 . S
C599 H622 0.950 . S
C600 C599 1.349 1_556 S
C600 C612 1.349 . S
C601 C599 1.327 . S
C601 C617 1.429 1_554 S
C601 H623 0.950 . S
C602 H598 0.949 . S
C602 C610 1.574 1_655 S
C602 C618 1.368 . S
H603 C611 0.950 . S
H604 C609 0.950 . S
H605 C610 0.949 . S
H606 C612 0.950 . S
H607 C613 0.950 . S
H608 C614 0.949 . S
C609 H604 0.950 . S
C609 C611 1.327 . S
C609 C615 1.429 . S
C610 C602 1.574 1_455 S
C610 H605 0.949 . S
C610 C616 1.368 1_556 S
C611 C595 1.349 . S
C611 H603 0.950 . S
C611 C609 1.327 . S
C612 C600 1.349 . S
C612 H606 0.950 . S
C612 C613 1.327 . S
C613 H607 0.950 . S
C613 C612 1.327 . S
C613 C617 1.429 . S
C614 C597 1.574 1_655 S
C614 H608 0.949 . S
C614 C618 1.368 1_554 S
C615 C596 1.429 1_554 S
C615 C609 1.429 . S
C615 C616 1.523 . S
C616 C597 1.368 . S
C616 C610 1.368 1_554 S
C616 C615 1.523 . S
C617 C601 1.429 1_556 S
C617 C613 1.429 . S
C617 C618 1.523 . S
C618 C602 1.368 . S
C618 C614 1.368 1_556 S
C618 C617 1.523 . S
H619 C594 0.950 . S
H620 C596 0.950 . S
H621 C597 0.949 . S
H622 C599 0.950 . S
H623 C601 0.950 . S
C624 C625 1.349 . S
C624 C626 1.327 . S
C624 H649 0.950 . S
C625 C624 1.349 . S
C625 C641 1.349 . S
C626 C624 1.327 . S
C626 C645 1.429 . S
C626 H650 0.950 . S
C627 C644 1.574 1_455 S
C627 C646 1.368 . S
C627 H651 0.949 . S
H628 C632 0.949 . S
C629 C630 1.349 . S
C629 C631 1.327 . S
C629 H652 0.950 . S
C630 C629 1.349 . S
C630 C642 1.349 . S
C631 C629 1.327 . S
C631 C647 1.429 . S
C631 H653 0.950 . S
C632 H628 0.949 . S
C632 C640 1.574 1_655 S
C632 C648 1.368 . S
H633 C641 0.950 . S
H634 C639 0.950 . S
H635 C640 0.949 . S
H636 C642 0.950 . S
H637 C643 0.950 . S
H638 C644 0.949 . S
C639 H634 0.950 . S
C639 C641 1.327 . S
C639 C645 1.429 . S
C640 C632 1.574 1_455 S
C640 H635 0.949 . S
C640 C646 1.368 . S
C641 C625 1.349 . S
C641 H633 0.950 . S
C641 C639 1.327 . S
C642 C630 1.349 . S
C642 H636 0.950 . S
C642 C643 1.327 . S
C643 H637 0.950 . S
C643 C642 1.327 . S
C643 C647 1.429 . S
C644 C627 1.574 1_655 S
C644 H638 0.949 . S
C644 C648 1.368 . S
C645 C626 1.429 . S
C645 C639 1.429 . S
C645 C646 1.523 . S
C646 C627 1.368 . S
C646 C640 1.368 . S
C646 C645 1.523 . S
C647 C631 1.429 . S
C647 C643 1.429 . S
C647 C648 1.523 . S
C648 C632 1.368 . S
C648 C644 1.368 . S
C648 C647 1.523 . S
H649 C624 0.950 . S
H650 C626 0.950 . S
H651 C627 0.949 . S
H652 C629 0.950 . S
H653 C631 0.950 . S
C654 C655 1.349 . S
C654 C656 1.327 . S
C654 H679 0.950 . S
C655 C654 1.349 . S
C655 C671 1.349 . S
C656 C654 1.327 . S
C656 C675 1.429 . S
C656 H680 0.950 . S
C657 C674 1.574 1_455 S
C657 C676 1.368 . S
C657 H681 0.949 . S
H658 C662 0.949 . S
C659 C660 1.349 . S
C659 C661 1.327 . S
C659 H682 0.950 . S
C660 C659 1.349 . S
C660 C672 1.349 . S
C661 C659 1.327 . S
C661 C677 1.429 . S
C661 H683 0.950 . S
C662 H658 0.949 . S
C662 C670 1.574 1_655 S
C662 C678 1.368 . S
H663 C671 0.950 . S
H664 C669 0.950 . S
H665 C670 0.949 . S
H666 C672 0.950 . S
H667 C673 0.950 . S
H668 C674 0.949 . S
C669 H664 0.950 . S
C669 C671 1.327 . S
C669 C675 1.429 . S
C670 C662 1.574 1_455 S
C670 H665 0.949 . S
C670 C676 1.368 . S
C671 C655 1.349 . S
C671 H663 0.950 . S
C671 C669 1.327 . S
C672 C660 1.349 . S
C672 H666 0.950 . S
C672 C673 1.327 . S
C673 H667 0.950 . S
C673 C672 1.327 . S
C673 C677 1.429 . S
C674 C657 1.574 1_655 S
C674 H668 0.949 . S
C674 C678 1.368 . S
C675 C656 1.429 . S
C675 C669 1.429 . S
C675 C676 1.523 . S
C676 C657 1.368 . S
C676 C670 1.368 . S
C676 C675 1.523 . S
C677 C661 1.429 . S
C677 C673 1.429 . S
C677 C678 1.523 . S
C678 C662 1.368 . S
C678 C674 1.368 . S
C678 C677 1.523 . S
H679 C654 0.950 . S
H680 C656 0.950 . S
H681 C657 0.949 . S
H682 C659 0.950 . S
H683 C661 0.950 . S
C684 C685 1.349 . S
C684 C686 1.327 . S
C684 H709 0.950 . S
C685 C684 1.349 . S
C685 C701 1.349 . S
C686 C684 1.327 . S
C686 C705 1.429 . S
C686 H710 0.950 . S
C687 C704 1.574 . S
C687 C706 1.368 . S
C687 H711 0.949 . S
H688 C692 0.949 . S
C689 C690 1.349 . S
C689 C691 1.327 . S
C689 H712 0.950 . S
C690 C689 1.349 . S
C690 C702 1.349 . S
C691 C689 1.327 . S
C691 C707 1.429 . S
C691 H713 0.950 . S
C692 H688 0.949 . S
C692 C700 1.574 . S
C692 C708 1.368 . S
H693 C701 0.950 . S
H694 C699 0.950 . S
H695 C700 0.949 . S
H696 C702 0.950 . S
H697 C703 0.950 . S
H698 C704 0.949 . S
C699 H694 0.950 . S
C699 C701 1.327 . S
C699 C705 1.429 . S
C700 C692 1.574 . S
C700 H695 0.949 . S
C700 C706 1.368 . S
C701 C685 1.349 . S
C701 H693 0.950 . S
C701 C699 1.327 . S
C702 C690 1.349 . S
C702 H696 0.950 . S
C702 C703 1.327 . S
C703 H697 0.950 . S
C703 C702 1.327 . S
C703 C707 1.429 . S
C704 C687 1.574 . S
C704 H698 0.949 . S
C704 C708 1.368 . S
C705 C686 1.429 . S
C705 C699 1.429 . S
C705 C706 1.523 . S
C706 C687 1.368 . S
C706 C700 1.368 . S
C706 C705 1.523 . S
C707 C691 1.429 . S
C707 C703 1.429 . S
C707 C708 1.523 . S
C708 C692 1.368 . S
C708 C704 1.368 . S
C708 C707 1.523 . S
H709 C684 0.950 . S
H710 C686 0.950 . S
H711 C687 0.949 . S
H712 C689 0.950 . S
H713 C691 0.950 . S
C714 C715 1.349 . S
C714 C716 1.327 . S
C714 H739 0.950 . S
C715 C714 1.349 . S
C715 C731 1.349 . S
C716 C714 1.327 . S
C716 C735 1.429 . S
C716 H740 0.950 . S
C717 C734 1.574 . S
C717 C736 1.368 . S
C717 H741 0.949 . S
H718 C722 0.949 . S
C719 C720 1.349 . S
C719 C721 1.327 . S
C719 H742 0.950 . S
C720 C719 1.349 . S
C720 C732 1.349 . S
C721 C719 1.327 . S
C721 C737 1.429 . S
C721 H743 0.950 . S
C722 H718 0.949 . S
C722 C730 1.574 . S
C722 C738 1.368 . S
H723 C731 0.950 . S
H724 C729 0.950 . S
H725 C730 0.949 . S
H726 C732 0.950 . S
H727 C733 0.950 . S
H728 C734 0.949 . S
C729 H724 0.950 . S
C729 C731 1.327 . S
C729 C735 1.429 . S
C730 C722 1.574 . S
C730 H725 0.949 . S
C730 C736 1.368 . S
C731 C715 1.349 . S
C731 H723 0.950 . S
C731 C729 1.327 . S
C732 C720 1.349 . S
C732 H726 0.950 . S
C732 C733 1.327 . S
C733 H727 0.950 . S
C733 C732 1.327 . S
C733 C737 1.429 . S
C734 C717 1.574 . S
C734 H728 0.949 . S
C734 C738 1.368 . S
C735 C716 1.429 . S
C735 C729 1.429 . S
C735 C736 1.523 . S
C736 C717 1.368 . S
C736 C730 1.368 . S
C736 C735 1.523 . S
C737 C721 1.429 . S
C737 C733 1.429 . S
C737 C738 1.523 . S
C738 C722 1.368 . S
C738 C734 1.368 . S
C738 C737 1.523 . S
H739 C714 0.950 . S
H740 C716 0.950 . S
H741 C717 0.949 . S
H742 C719 0.950 . S
H743 C721 0.950 . S
C744 C745 1.349 . S
C744 C746 1.327 . S
C744 H769 0.950 . S
C745 C744 1.349 . S
C745 C761 1.349 . S
C746 C744 1.327 . S
C746 C765 1.429 . S
C746 H770 0.950 . S
C747 C764 1.574 . S
C747 C766 1.368 . S
C747 H771 0.949 . S
H748 C752 0.949 . S
C749 C750 1.349 . S
C749 C751 1.327 . S
C749 H772 0.950 . S
C750 C749 1.349 . S
C750 C762 1.349 . S
C751 C749 1.327 . S
C751 C767 1.429 . S
C751 H773 0.950 . S
C752 H748 0.949 . S
C752 C760 1.574 . S
C752 C768 1.368 . S
H753 C761 0.950 . S
H754 C759 0.950 . S
H755 C760 0.949 . S
H756 C762 0.950 . S
H757 C763 0.950 . S
H758 C764 0.949 . S
C759 H754 0.950 . S
C759 C761 1.327 . S
C759 C765 1.429 . S
C760 C752 1.574 . S
C760 H755 0.949 . S
C760 C766 1.368 . S
C761 C745 1.349 . S
C761 H753 0.950 . S
C761 C759 1.327 . S
C762 C750 1.349 . S
C762 H756 0.950 . S
C762 C763 1.327 . S
C763 H757 0.950 . S
C763 C762 1.327 . S
C763 C767 1.429 . S
C764 C747 1.574 . S
C764 H758 0.949 . S
C764 C768 1.368 . S
C765 C746 1.429 . S
C765 C759 1.429 . S
C765 C766 1.523 . S
C766 C747 1.368 . S
C766 C760 1.368 . S
C766 C765 1.523 . S
C767 C751 1.429 . S
C767 C763 1.429 . S
C767 C768 1.523 . S
C768 C752 1.368 . S
C768 C764 1.368 . S
C768 C767 1.523 . S
H769 C744 0.950 . S
H770 C746 0.950 . S
H771 C747 0.949 . S
H772 C749 0.950 . S
H773 C751 0.950 . S
C774 C775 1.349 . S
C774 C776 1.327 . S
C774 H799 0.950 . S
C775 C774 1.349 . S
C775 C791 1.349 . S
C776 C774 1.327 . S
C776 C795 1.429 . S
C776 H800 0.950 . S
C777 C794 1.573 1_556 S
C777 C796 1.369 . S
C777 H801 0.953 . S
H778 C782 0.953 . S
C779 C780 1.349 . S
C779 C781 1.327 . S
C779 H802 0.950 . S
C780 C779 1.349 . S
C780 C792 1.349 . S
C781 C779 1.327 . S
C781 C797 1.429 . S
C781 H803 0.950 . S
C782 H778 0.953 . S
C782 C790 1.573 1_554 S
C782 C798 1.369 . S
H783 C791 0.950 . S
H784 C789 0.950 . S
H785 C790 0.949 . S
H786 C792 0.950 . S
H787 C793 0.950 . S
H788 C794 0.949 . S
C789 H784 0.950 . S
C789 C791 1.327 . S
C789 C795 1.429 . S
C790 C782 1.573 1_556 S
C790 H785 0.949 . S
C790 C796 1.368 . S
C791 C775 1.349 . S
C791 H783 0.950 . S
C791 C789 1.327 . S
C792 C780 1.349 . S
C792 H786 0.950 . S
C792 C793 1.327 . S
C793 H787 0.950 . S
C793 C792 1.327 . S
C793 C797 1.429 . S
C794 C777 1.573 1_554 S
C794 H788 0.949 . S
C794 C798 1.368 . S
C795 C776 1.429 . S
C795 C789 1.429 . S
C795 C796 1.523 . S
C796 C777 1.369 . S
C796 C790 1.368 . S
C796 C795 1.523 . S
C797 C781 1.429 . S
C797 C793 1.429 . S
C797 C798 1.523 . S
C798 C782 1.369 . S
C798 C794 1.368 . S
C798 C797 1.523 . S
H799 C774 0.950 . S
H800 C776 0.950 . S
H801 C777 0.953 . S
H802 C779 0.950 . S
H803 C781 0.950 . S
C804 C805 1.349 . S
C804 C806 1.327 . S
C804 H829 0.950 . S
C805 C804 1.349 . S
C805 C821 1.349 . S
C806 C804 1.327 . S
C806 C825 1.429 . S
C806 H830 0.950 . S
C807 C824 1.574 . S
C807 C826 1.368 . S
C807 H831 0.949 . S
H808 C812 0.949 . S
C809 C810 1.349 . S
C809 C811 1.327 . S
C809 H832 0.950 . S
C810 C809 1.349 . S
C810 C822 1.349 . S
C811 C809 1.327 . S
C811 C827 1.429 . S
C811 H833 0.950 . S
C812 H808 0.949 . S
C812 C820 1.574 . S
C812 C828 1.368 . S
H813 C821 0.950 . S
H814 C819 0.950 . S
H815 C820 0.949 . S
H816 C822 0.950 . S
H817 C823 0.950 . S
H818 C824 0.949 . S
C819 H814 0.950 . S
C819 C821 1.327 . S
C819 C825 1.429 . S
C820 C812 1.574 . S
C820 H815 0.949 . S
C820 C826 1.368 . S
C821 C805 1.349 . S
C821 H813 0.950 . S
C821 C819 1.327 . S
C822 C810 1.349 . S
C822 H816 0.950 . S
C822 C823 1.327 . S
C823 H817 0.950 . S
C823 C822 1.327 . S
C823 C827 1.429 . S
C824 C807 1.574 . S
C824 H818 0.949 . S
C824 C828 1.368 . S
C825 C806 1.429 . S
C825 C819 1.429 . S
C825 C826 1.523 . S
C826 C807 1.368 . S
C826 C820 1.368 . S
C826 C825 1.523 . S
C827 C811 1.429 . S
C827 C823 1.429 . S
C827 C828 1.523 . S
C828 C812 1.368 . S
C828 C824 1.368 . S
C828 C827 1.523 . S
H829 C804 0.950 . S
H830 C806 0.950 . S
H831 C807 0.949 . S
H832 C809 0.950 . S
H833 C811 0.950 . S
C834 C835 1.349 . S
C834 C836 1.327 . S
C834 H859 0.950 . S
C835 C834 1.349 . S
C835 C851 1.349 . S
C836 C834 1.327 . S
C836 C855 1.429 . S
C836 H860 0.950 . S
C837 C854 1.568 1_556 S
C837 C856 1.367 . S
C837 H861 0.956 . S
H838 C842 0.956 . S
C839 C840 1.349 . S
C839 C841 1.327 . S
C839 H862 0.950 . S
C840 C839 1.349 . S
C840 C852 1.349 . S
C841 C839 1.327 . S
C841 C857 1.429 . S
C841 H863 0.950 . S
C842 H838 0.956 . S
C842 C850 1.568 1_554 S
C842 C858 1.367 . S
H843 C851 0.950 . S
H844 C849 0.950 . S
H845 C850 0.949 . S
H846 C852 0.950 . S
H847 C853 0.950 . S
H848 C854 0.949 . S
C849 H844 0.950 . S
C849 C851 1.327 . S
C849 C855 1.429 . S
C850 C842 1.568 1_556 S
C850 H845 0.949 . S
C850 C856 1.368 . S
C851 C835 1.349 . S
C851 H843 0.950 . S
C851 C849 1.327 . S
C852 C840 1.349 . S
C852 H846 0.950 . S
C852 C853 1.327 . S
C853 H847 0.950 . S
C853 C852 1.327 . S
C853 C857 1.429 . S
C854 C837 1.568 1_554 S
C854 H848 0.949 . S
C854 C858 1.368 . S
C855 C836 1.429 . S
C855 C849 1.429 . S
C855 C856 1.523 . S
C856 C837 1.367 . S
C856 C850 1.368 . S
C856 C855 1.523 . S
C857 C841 1.429 . S
C857 C853 1.429 . S
C857 C858 1.523 . S
C858 C842 1.367 . S
C858 C854 1.368 . S
C858 C857 1.523 . S
H859 C834 0.950 . S
H860 C836 0.950 . S
H861 C837 0.956 . S
H862 C839 0.950 . S
H863 C841 0.950 . S
C265 C106 0.881 1_554 S
C270 C18 0.886 . S
C295 C51 0.886 . S
C300 C73 0.881 . S
C325 C84 0.886 . S
C330 C40 0.881 1_556 S
C355 C117 0.886 . S
C360 C7 0.881 . S
C385 C150 0.886 . S
C390 C238 0.881 1_554 S
C415 C183 0.886 . S
C420 C205 0.881 . S
C445 C172 0.881 1_556 S
C450 C216 0.886 . S
C475 C249 0.886 . S
C480 C139 0.881 . S
C505 N79 2.061 . S
C510 N13 2.061 . S
C535 N112 2.061 . S
C540 N46 2.061 . S
C565 N145 2.061 . S
C570 N211 2.061 . S
C595 N178 2.061 . S
C600 N244 2.061 . S
C625 N2 1.107 . S
C630 N35 1.107 . S
C655 N101 1.107 . S
C660 N68 1.107 . S
C685 N167 1.107 . S
C690 N134 1.107 . S
C715 N233 1.107 . S
C720 N200 1.107 . S
C745 C219 1.581 . S
C750 C21 1.581 . S
C775 C252 1.581 . S
C780 C54 1.581 . S
C805 C153 1.581 . S
C810 C87 1.581 . S
C835 C120 1.581 . S
C840 C186 1.581 . S
