# Generated by pormake.
# Topology vby, (6)-cn, num edge types: 1
# Building blocks:
#     Node 0, Type 0, BuildingBlock: KUMBUR_clean_sbu_1, # of connection points: 6
#     Node 1, Type 0, BuildingBlock: KUMBUR_clean_sbu_1, # of connection points: 6
#     Node 2, Type 0, BuildingBlock: KUMBUR_clean_sbu_1, # of connection points: 6
#     Node 3, Type 0, BuildingBlock: KUMBUR_clean_sbu_1, # of connection points: 6
#     Node 4, Type 0, BuildingBlock: KUMBUR_clean_sbu_1, # of connection points: 6
#     Node 5, Type 0, BuildingBlock: KUMBUR_clean_sbu_1, # of connection points: 6
#     Node 6, Type 0, BuildingBlock: KUMBUR_clean_sbu_1, # of connection points: 6
#     Node 7, Type 0, BuildingBlock: KUMBUR_clean_sbu_1, # of connection points: 6
#     Edge 8, Type (0, 0), BuildingBlock: XIVTED_clean_linker_0, # of connection points: 2
#     Edge 9, Type (0, 0), BuildingBlock: XIVTED_clean_linker_0, # of connection points: 2
#     Edge 10, Type (0, 0), BuildingBlock: XIVTED_clean_linker_0, # of connection points: 2
#     Edge 11, Type (0, 0), BuildingBlock: XIVTED_clean_linker_0, # of connection points: 2
#     Edge 12, Type (0, 0), BuildingBlock: XIVTED_clean_linker_0, # of connection points: 2
#     Edge 13, Type (0, 0), BuildingBlock: XIVTED_clean_linker_0, # of connection points: 2
#     Edge 14, Type (0, 0), BuildingBlock: XIVTED_clean_linker_0, # of connection points: 2
#     Edge 15, Type (0, 0), BuildingBlock: XIVTED_clean_linker_0, # of connection points: 2
#     Edge 16, Type (0, 0), BuildingBlock: XIVTED_clean_linker_0, # of connection points: 2
#     Edge 17, Type (0, 0), BuildingBlock: XIVTED_clean_linker_0, # of connection points: 2
#     Edge 18, Type (0, 0), BuildingBlock: XIVTED_clean_linker_0, # of connection points: 2
#     Edge 19, Type (0, 0), BuildingBlock: XIVTED_clean_linker_0, # of connection points: 2
#     Edge 20, Type (0, 0), BuildingBlock: XIVTED_clean_linker_0, # of connection points: 2
#     Edge 21, Type (0, 0), BuildingBlock: XIVTED_clean_linker_0, # of connection points: 2
#     Edge 22, Type (0, 0), BuildingBlock: XIVTED_clean_linker_0, # of connection points: 2
#     Edge 23, Type (0, 0), BuildingBlock: XIVTED_clean_linker_0, # of connection points: 2
#     Edge 24, Type (0, 0), BuildingBlock: XIVTED_clean_linker_0, # of connection points: 2
#     Edge 25, Type (0, 0), BuildingBlock: XIVTED_clean_linker_0, # of connection points: 2
#     Edge 26, Type (0, 0), BuildingBlock: XIVTED_clean_linker_0, # of connection points: 2
#     Edge 27, Type (0, 0), BuildingBlock: XIVTED_clean_linker_0, # of connection points: 2
#     Edge 28, Type (0, 0), BuildingBlock: XIVTED_clean_linker_0, # of connection points: 2
#     Edge 29, Type (0, 0), BuildingBlock: XIVTED_clean_linker_0, # of connection points: 2
#     Edge 30, Type (0, 0), BuildingBlock: XIVTED_clean_linker_0, # of connection points: 2
#     Edge 31, Type (0, 0), BuildingBlock: XIVTED_clean_linker_0, # of connection points: 2
# Relax obj value: 0.189
# Max RMSD: 0.308
# Mean RMSD: 0.217
data_MOF--net-vby--node1-KUMBUR_clean_sbu_1--edge1-XIVTED_clean_linker_0
_symmetry_space_group_name_H-M    P1
_symmetry_Int_Tables_number       1
_symmetry_cell_setting            triclinic
loop_
_symmetry_equiv_pos_as_xyz
'x, y, z'
_cell_length_a     15.152515
_cell_length_b     99.630397
_cell_length_c     29.503736
_cell_angle_alpha  100.83012
_cell_angle_beta   94.270445
_cell_angle_gamma 90.195877
loop_
_atom_site_label
_atom_site_type_symbol
_atom_site_fract_x
_atom_site_fract_y
_atom_site_fract_z
_atom_type_partial_charge
Tb0 Tb 0.09138 0.40075 0.03258 0.0
C1 C 0.89273 0.34348 0.98542 0.0
N2 N 0.94302 0.35063 0.02226 0.0
C3 C 0.83978 0.34504 0.07391 0.0
C4 C 0.81133 0.33741 0.99126 0.0
C5 C 0.92019 0.35088 0.06633 0.0
C6 C 0.78454 0.33842 0.03618 0.0
C7 C 0.87336 0.3351 0.90264 0.0
C8 C 0.92338 0.34239 0.94177 0.0
C9 C 0.791 0.32929 0.90804 0.0
C10 C 0.76009 0.33043 0.95224 0.0
Tb11 Tb 0.07379 0.3593 0.00577 0.0
N12 N 1.00383 0.348 0.938 0.0
C13 C 0.90857 0.33362 0.85947 0.0
C14 C 0.04067 0.34589 0.89642 0.0
C15 C 0.99299 0.33892 0.85645 0.0
H16 H 0.96372 0.35563 0.09553 0.0
H17 H 1.02188 0.33746 0.82345 0.0
H18 H 0.15531 0.40054 0.92498 0.0
H19 H 0.2558 0.41708 0.20234 0.0
H20 H 0.10745 0.34938 0.8941 0.0
H21 H 0.87219 0.3281 0.82852 0.0
H22 H 0.13349 0.40672 0.14669 0.0
H23 H 0.82081 0.34554 0.10882 0.0
H24 H 0.75137 0.3237 0.87834 0.0
H25 H 0.69702 0.32575 0.95593 0.0
H26 H 0.28993 0.4063 0.89129 0.0
H27 H 0.72236 0.3339 0.04217 0.0
H28 H 0.39232 0.42514 0.174 0.0
N29 N 0.21159 0.40495 0.99458 0.0
C30 C 0.28119 0.41101 0.02328 0.0
C31 C 0.28892 0.40744 0.92846 0.0
C32 C 0.35847 0.41512 0.00536 0.0
C33 C 0.21311 0.40372 0.94776 0.0
C34 C 0.36218 0.41305 0.95733 0.0
N35 N 0.20195 0.40834 0.0875 0.0
C36 C 0.19366 0.40986 0.13391 0.0
C37 C 0.34664 0.41905 0.10167 0.0
C38 C 0.27556 0.41298 0.07109 0.0
C39 C 0.33918 0.4205 0.14937 0.0
C40 C 0.26239 0.41588 0.16553 0.0
H41 H 0.42042 0.41605 0.94222 0.0
H42 H 0.489 0.42448 0.02258 0.0
H43 H 0.47856 0.42793 0.10672 0.0
O44 O 0.04618 0.41849 0.07475 0.0
O45 O 0.20114 0.38733 0.04995 0.0
O46 O 0.19605 0.36886 0.99071 0.0
O47 O 0.07732 0.41872 0.00509 0.0
O48 O 0.0328 0.39196 0.08603 0.0
O49 O 0.09731 0.37058 0.07726 0.0
O50 O 0.1081 0.33882 0.98362 0.0
O51 O 0.94591 0.36976 0.01087 0.0
O52 O 0.95204 0.39371 0.02205 0.0
O53 O 0.1484 0.34931 0.05246 0.0
O54 O 0.11189 0.37047 0.95297 0.0
O55 O 0.03872 0.39087 0.96301 0.0
C56 C 0.24192 0.37823 0.02068 0.0
C57 C 0.98056 0.4357 0.03792 0.0
C58 C 0.94039 0.459 0.03006 0.0
C59 C 0.85058 0.45524 0.02935 0.0
C60 C 0.89082 0.43213 0.03678 0.0
C61 C 0.82621 0.4419 0.03257 0.0
C62 C 1.00492 0.44908 0.0344 0.0
C63 C 0.05242 0.38053 0.10061 0.0
C64 C 0.05101 0.42586 0.04299 0.0
C65 C 0.42923 0.42124 0.0358 0.0
C66 C 0.42322 0.42324 0.08376 0.0
C67 C 0.90864 0.38185 0.01509 0.0
C68 C 0.23433 0.33052 0.01956 0.0
C69 C 0.3128 0.30901 0.01813 0.0
C70 C 0.39041 0.31556 0.0093 0.0
C71 C 0.31234 0.33685 0.01088 0.0
C72 C 0.23486 0.31665 0.0233 0.0
C73 C 0.39005 0.32938 0.00588 0.0
C74 C 0.06183 0.37946 0.9366 0.0
C75 C 0.15039 0.33788 0.02268 0.0
H76 H 0.79906 0.46255 0.02561 0.0
H77 H 0.87091 0.42185 0.03923 0.0
H78 H 0.75689 0.43912 0.0317 0.0
H79 H 0.07455 0.4518 0.03575 0.0
H80 H 0.45182 0.31007 0.00576 0.0
H81 H 0.31289 0.34749 0.00769 0.0
H82 H 0.17401 0.31175 0.0294 0.0
H83 H 0.45026 0.33432 0.99927 0.0
Tb84 Tb 0.9578 0.61384 0.00726 0.0
C85 C 0.1404 0.67264 0.04421 0.0
N86 N 0.08786 0.66537 0.06665 0.0
C87 C 0.18001 0.67237 0.13699 0.0
C88 C 0.21698 0.67963 0.06696 0.0
C89 C 0.10498 0.66552 0.11288 0.0
C90 C 0.23669 0.67936 0.11388 0.0
C91 C 0.17213 0.67975 0.97283 0.0
C92 C 0.1182 0.67268 0.99778 0.0
C93 C 0.24888 0.68669 0.99525 0.0
C94 C 0.27117 0.68664 0.04221 0.0
Tb95 Tb 0.96444 0.6554 0.02414 0.0
N96 N 0.04379 0.66578 0.97715 0.0
C97 C 0.14704 0.67968 0.92617 0.0
C98 C 1.01685 0.66624 0.93227 0.0
C99 C 0.06871 0.67297 0.90591 0.0
H100 H 0.06013 0.66072 0.13174 0.0
H101 H 0.04754 0.67316 0.87018 0.0
H102 H 0.92632 0.60826 0.88966 0.0
H103 H 0.76055 0.59961 0.1354 0.0
H104 H 0.95403 0.66176 0.91714 0.0
H105 H 0.18679 0.68496 0.90575 0.0
H106 H 0.89254 0.60923 0.10729 0.0
H107 H 0.19353 0.67237 0.17354 0.0
H108 H 0.29125 0.69216 0.97664 0.0
H109 H 0.33041 0.69206 0.05907 0.0
H110 H 0.80303 0.60161 0.83166 0.0
H111 H 0.29477 0.68465 0.13268 0.0
H112 H 0.63094 0.5916 0.08073 0.0
N113 N 0.85025 0.60777 0.94763 0.0
C114 C 0.77361 0.60291 0.96071 0.0
C115 C 0.79312 0.60225 0.86796 0.0
C116 C 0.70245 0.59814 0.92792 0.0
C117 C 0.86253 0.60656 0.90153 0.0
C118 C 0.71222 0.59824 0.88124 0.0
N119 N 0.83641 0.60696 0.03802 0.0
C120 C 0.83572 0.60585 0.08345 0.0
C121 C 0.69092 0.59662 0.02149 0.0
C122 C 0.76752 0.6021 0.00698 0.0
C123 C 0.68854 0.59579 0.06827 0.0
C124 C 0.76147 0.60035 0.09931 0.0
H125 H 0.65915 0.59467 0.85501 0.0
H126 H 0.5697 0.58936 0.91769 0.0
H127 H 0.55964 0.58805 0.99955 0.0
O128 O 1.00855 0.59914 0.04462 0.0
O129 O 0.84727 0.62682 0.03392 0.0
O130 O 0.84482 0.64386 0.9923 0.0
O131 O 0.97959 0.59391 0.97111 0.0
O132 O 1.01473 0.62515 0.07368 0.0
O133 O 0.94284 0.64605 0.08455 0.0
O134 O 0.91093 0.67361 0.00796 0.0
O135 O 0.09608 0.64589 0.0257 0.0
O136 O 0.0937 0.62183 0.00747 0.0
O137 O 0.89085 0.66784 0.07299 0.0
O138 O 0.92766 0.6422 0.95735 0.0
O139 O 1.00761 0.62251 0.95077 0.0
C140 C 0.80269 0.63553 0.01313 0.0
C141 C 0.0746 0.57913 0.00563 0.0
C142 C 0.11446 0.55539 0.00704 0.0
C143 C 0.20304 0.55885 1.00224 0.0
C144 C 0.16297 0.58239 1.00094 0.0
C145 C 0.22685 0.57224 0.99918 0.0
C146 C 0.05069 0.56569 0.00846 0.0
C147 C 0.98389 0.63595 0.10026 0.0
C148 C 1.00508 0.58942 0.00843 0.0
C149 C 0.62501 0.59301 0.94243 0.0
C150 C 0.61939 0.5922 0.98903 0.0
C151 C 0.13519 0.63391 0.01714 0.0
C152 C 0.90741 0.69164 0.07228 0.0
C153 C 0.90118 0.71639 0.07538 0.0
C154 C 0.95278 0.71843 0.11774 0.0
C155 C 0.95865 0.69404 0.11483 0.0
C156 C 0.87952 0.70291 0.05236 0.0
C157 C 0.98167 0.70734 0.13709 0.0
C158 C 0.98135 0.63347 0.93502 0.0
C159 C 0.88255 0.6775 0.04867 0.0
H160 H 0.25432 0.55129 1.00161 0.0
H161 H 0.18234 0.59271 0.99878 0.0
H162 H 0.29525 0.57477 0.99573 0.0
H163 H 0.9818 0.56326 0.01142 0.0
H164 H 0.97099 0.72868 0.13586 0.0
H165 H 0.98053 0.68567 0.13121 0.0
H166 H 0.83967 0.70123 0.01966 0.0
H167 H 1.02148 0.70905 0.16973 0.0
Tb168 Tb 0.07794 0.65503 0.53826 0.0
C169 C 0.2568 0.60122 0.46856 0.0
N170 N 0.17879 0.60579 0.45172 0.0
C171 C 0.21725 0.59809 0.37395 0.0
C172 C 0.31915 0.5951 0.43831 0.0
C173 C 0.15751 0.60416 0.40524 0.0
C174 C 0.29838 0.59354 0.39053 0.0
C175 C 0.35806 0.59928 0.53474 0.0
C176 C 0.27584 0.6033 0.51645 0.0
C177 C 0.42002 0.59308 0.50463 0.0
C178 C 0.40053 0.59095 0.45662 0.0
Tb179 Tb 0.08409 0.61356 0.50618 0.0
N180 N 0.21469 0.60949 0.54485 0.0
C181 C 0.37563 0.60158 0.58281 0.0
C182 C 0.23003 0.61109 0.59178 0.0
C183 C 0.31115 0.60743 0.61139 0.0
H184 H 0.09373 0.60719 0.39216 0.0
H185 H 0.32317 0.60885 0.64862 0.0
H186 H 0.13913 0.66391 0.65068 0.0
H187 H 0.79857 0.66896 0.43347 0.0
H188 H 0.17957 0.61464 0.61454 0.0
H189 H 0.4381 0.59867 0.5982 0.0
H190 H 0.94366 0.65857 0.44757 0.0
H191 H 0.20032 0.5968 0.33708 0.0
H192 H 0.4834 0.5899 0.51815 0.0
H193 H 0.44927 0.58622 0.43391 0.0
H194 H 0.07233 0.67563 0.72102 0.0
H195 H 0.3445 0.58886 0.36616 0.0
H196 H 0.71904 0.68071 0.49959 0.0
N197 N 1.02565 0.66599 0.60573 0.0
C198 C 0.94503 0.67177 0.60139 0.0
C199 C 0.03548 0.67451 0.68762 0.0
C200 C 0.90547 0.67892 0.64032 0.0
C201 C 0.07256 0.66767 0.64783 0.0
C202 C 0.95126 0.68006 0.68392 0.0
N203 N 0.94328 0.66372 0.52084 0.0
C204 C 0.90868 0.66348 0.47656 0.0
C205 C 0.82093 0.67703 0.55109 0.0
C206 C 0.90327 0.67086 0.55743 0.0
C207 C 0.78235 0.67611 0.50595 0.0
C208 C 0.82691 0.66944 0.46852 0.0
H209 H 0.92308 0.68545 0.71475 0.0
H210 H 0.79082 0.69039 0.6639 0.0
H211 H 0.7168 0.68871 0.58578 0.0
O212 O 0.1375 0.66585 0.49321 0.0
O213 O 0.94789 0.64458 0.53127 0.0
O214 O 0.94736 0.6206 0.51315 0.0
O215 O 0.12417 0.67515 0.56411 0.0
O216 O 0.08537 0.6448 0.46601 0.0
O217 O 1.0173 0.62322 0.45258 0.0
O218 O 0.07707 0.59546 0.5328 0.0
O219 O 0.19151 0.62707 0.49168 0.0
O220 O 0.20293 0.64508 0.55276 0.0
O221 O 1.02567 0.59594 0.46331 0.0
O222 O 0.04632 0.62268 0.57526 0.0
O223 O 0.125 0.64294 0.58949 0.0
C224 C 0.90756 0.6325 0.52292 0.0
C225 C 0.23497 0.68445 0.52663 0.0
C226 C 0.31067 0.70607 0.52379 0.0
C227 C 0.39188 0.69997 0.53371 0.0
C228 C 0.31641 0.67862 0.53638 0.0
C229 C 0.3945 0.68636 0.53974 0.0
C230 C 0.2324 0.69808 0.52009 0.0
C231 C 0.04012 0.63458 0.43924 0.0
C232 C 0.15103 0.67684 0.52482 0.0
C233 C 0.82246 0.68488 0.63437 0.0
C234 C 0.78034 0.68395 0.58987 0.0
C235 C 0.24023 0.63611 0.5217 0.0
C236 C 0.97011 0.57854 0.49951 0.0
C237 C 0.93124 0.5552 0.50701 0.0
C238 C 0.84191 0.55899 0.50823 0.0
C239 C 0.88096 0.58214 0.50117 0.0
C240 C 0.99491 0.56513 0.50264 0.0
C241 C 0.81722 0.57236 0.50545 0.0
C242 C 0.0738 0.63405 0.6031 0.0
C243 C 0.03945 0.58844 0.49469 0.0
H244 H 0.45347 0.70576 0.53766 0.0
H245 H 0.31938 0.66818 0.54173 0.0
H246 H 0.45736 0.68185 0.54754 0.0
H247 H 0.16897 0.70241 0.51192 0.0
H248 H 0.7912 0.55168 0.51203 0.0
H249 H 0.86081 0.59244 0.49912 0.0
H250 H 0.06395 0.56239 0.501 0.0
H251 H 0.74837 0.57516 0.50674 0.0
Tb252 Tb 0.95553 0.40039 0.52517 0.0
C253 C 0.13497 0.34248 0.50303 0.0
N254 N 0.08291 0.34917 0.47532 0.0
C255 C 0.17532 0.34207 0.41295 0.0
C256 C 0.21208 0.33587 0.48744 0.0
C257 C 0.09955 0.34853 0.4301 0.0
C258 C 0.23243 0.33585 0.44189 0.0
C259 C 0.16323 0.33581 0.57752 0.0
C260 C 0.11076 0.34247 0.54737 0.0
C261 C 0.24136 0.32942 0.5626 0.0
C262 C 0.26565 0.32943 0.51763 0.0
Tb263 Tb 0.95951 0.35886 0.50621 0.0
N264 N 0.03446 0.34867 0.56038 0.0
C265 C 0.13475 0.33557 0.62143 0.0
C266 C 1.00384 0.34778 0.60212 0.0
C267 C 0.05425 0.34147 0.63359 0.0
H268 H 0.0546 0.35303 0.40733 0.0
H269 H 0.03043 0.34101 0.66696 0.0
H270 H 0.94257 0.40622 0.6415 0.0
H271 H 0.73816 0.41331 0.38789 0.0
H272 H 0.93983 0.35174 0.61095 0.0
H273 H 0.17327 0.33059 0.64572 0.0
H274 H 0.8741 0.40401 0.42151 0.0
H275 H 0.1893 0.34181 0.37736 0.0
H276 H 0.2828 0.32429 0.58534 0.0
H277 H 0.32551 0.32434 0.50643 0.0
H278 H 0.82865 0.41307 0.69522 0.0
H279 H 0.29106 0.33085 0.42851 0.0
H280 H 0.61803 0.42165 0.43788 0.0
N281 N 0.85712 0.40644 0.58064 0.0
C282 C 0.77881 0.41117 0.56445 0.0
C283 C 0.81296 0.41227 0.6584 0.0
C284 C 0.71316 0.41606 0.59462 0.0
C285 C 0.87682 0.40784 0.62734 0.0
C286 C 0.73024 0.41619 0.64193 0.0
N287 N 0.82922 0.40671 0.48915 0.0
C288 C 0.82127 0.40749 0.44329 0.0
C289 C 0.68713 0.41707 0.49997 0.0
C290 C 0.76557 0.41171 0.51761 0.0
C291 C 0.6773 0.41758 0.45272 0.0
C292 C 0.74483 0.41282 0.42432 0.0
H293 H 0.68155 0.41987 0.66622 0.0
H294 H 0.58274 0.42485 0.59967 0.0
H295 H 0.56002 0.42572 0.51688 0.0
O296 O 0.99773 0.41564 0.49054 0.0
O297 O 0.84083 0.38683 0.49425 0.0
O298 O 0.84264 0.36933 0.53414 0.0
O299 O 0.98546 0.42017 0.56372 0.0
O300 O 1.00477 0.39006 0.46038 0.0
O301 O 0.93371 0.36876 0.44595 0.0
O302 O 0.91134 0.3392 0.51144 0.0
O303 O 0.09035 0.36891 0.50841 0.0
O304 O 0.09204 0.39289 0.52969 0.0
O305 O 0.88134 0.34777 0.4494 0.0
O306 O 0.92916 0.3716 0.57163 0.0
O307 O 1.01199 0.39143 0.58334 0.0
C308 C 0.7984 0.3783 0.51447 0.0
C309 C 0.07363 0.43545 0.5325 0.0
C310 C 0.1151 0.4593 0.53314 0.0
C311 C 0.2047 0.4558 0.53892 0.0
C312 C 0.16302 0.43218 0.53815 0.0
C313 C 0.22821 0.44236 0.54146 0.0
C314 C 0.05005 0.44897 0.53024 0.0
C315 C 0.97753 0.37864 0.43268 0.0
C316 C 1.00267 0.42508 0.52752 0.0
C317 C 0.63389 0.4211 0.57696 0.0
C318 C 0.62108 0.42166 0.52984 0.0
C319 C 0.13147 0.38094 0.51974 0.0
C320 C 0.82285 0.32475 0.44749 0.0
C321 C 0.77213 0.30121 0.44691 0.0
C322 C 0.73746 0.30045 0.40082 0.0
C323 C 0.78602 0.32364 0.40184 0.0
C324 C 0.81538 0.3135 0.47007 0.0
C325 C 0.74384 0.31158 0.37878 0.0
C326 C 0.98472 0.38047 0.59754 0.0
C327 C 0.87364 0.33732 0.46969 0.0
H328 H 0.25684 0.46338 0.54066 0.0
H329 H 0.18218 0.4218 0.53975 0.0
H330 H 0.29735 0.43981 0.54562 0.0
H331 H 0.98054 0.4514 0.52643 0.0
H332 H 0.70644 0.29114 0.38119 0.0
H333 H 0.79119 0.33203 0.38349 0.0
H334 H 0.84313 0.31433 0.50541 0.0
H335 H 0.71689 0.31079 0.34333 0.0
Tb336 Tb 0.58373 0.90002 0.02437 0.0
C337 C 0.42705 0.84345 0.05341 0.0
N338 N 0.50766 0.84953 0.06693 0.0
C339 C 0.50314 0.8433 0.14142 0.0
C340 C 0.37993 0.8374 0.08401 0.0
C341 C 0.54784 0.84899 0.10954 0.0
C342 C 0.41838 0.83762 0.1288 0.0
C343 C 0.31077 0.8364 0.99223 0.0
C344 C 0.39292 0.84291 0.00813 0.0
C345 C 0.26252 0.83064 0.0229 0.0
C346 C 0.29697 0.83115 0.06869 0.0
Tb347 Tb 0.5723 0.8587 0.01193 0.0
N348 N 0.44017 0.84898 0.97983 0.0
C349 C 0.28007 0.83583 0.94593 0.0
C350 C 0.41314 0.84778 0.93398 0.0
C351 C 0.33198 0.8414 0.91657 0.0
H352 H 0.6148 0.85283 0.1188 0.0
H353 H 0.30969 0.84072 0.88049 0.0
H354 H 0.64293 0.90287 0.9214 0.0
H355 H 0.75161 0.91327 0.19674 0.0
H356 H 0.45358 0.85186 0.91101 0.0
H357 H 0.21722 0.83091 0.93233 0.0
H358 H 0.62438 0.90631 0.14152 0.0
H359 H 0.53448 0.84316 0.17551 0.0
H360 H 0.19893 0.82566 0.01145 0.0
H361 H 0.25951 0.82651 0.09177 0.0
H362 H 0.77324 0.91158 0.88916 0.0
H363 H 0.38422 0.83312 0.15344 0.0
H364 H 0.89323 0.9197 0.16952 0.0
N365 N 0.70329 0.90592 0.99001 0.0
C366 C 0.77422 0.91093 0.01933 0.0
C367 C 0.77456 0.91136 0.92574 0.0
C368 C 0.84988 0.91596 1.00248 0.0
C369 C 0.70127 0.90636 0.94394 0.0
C370 C 0.84935 0.91612 0.95508 0.0
N371 N 0.69562 0.90626 0.08153 0.0
C372 C 0.68695 0.90784 0.12809 0.0
C373 C 0.84467 0.91562 0.09731 0.0
C374 C 0.77124 0.91073 0.06624 0.0
C375 C 0.83832 0.91602 0.14456 0.0
C376 C 0.75868 0.91231 0.16003 0.0
H377 H 0.90618 0.91993 0.94083 0.0
H378 H 0.98252 0.92437 0.02097 0.0
H379 H 0.97803 0.92408 0.10392 0.0
O380 O 0.56482 0.92022 0.05949 0.0
O381 O 0.6897 0.88607 0.99708 0.0
O382 O 0.69669 0.86943 0.04062 0.0
O383 O 0.53482 0.91454 0.98613 0.0
O384 O 0.5363 0.89214 0.08285 0.0
O385 O 0.6153 0.8724 0.07669 0.0
O386 O 0.64431 0.84676 0.96091 0.0
O387 O 0.44273 0.86878 0.00873 0.0
O388 O 0.44725 0.89277 0.02826 0.0
O389 O 0.60924 0.83892 0.02028 0.0
O390 O 0.58561 0.86711 0.94888 0.0
O391 O 0.52107 0.88862 0.95947 0.0
C392 C 0.7367 0.87793 0.01942 0.0
C393 C 0.46919 0.9347 0.0235 0.0
C394 C 0.43074 0.9585 0.02145 0.0
C395 C 0.34055 0.95452 0.01689 0.0
C396 C 0.37936 0.93102 0.01927 0.0
C397 C 0.31538 0.94095 0.01633 0.0
C398 C 0.49441 0.9484 0.02554 0.0
C399 C 0.56251 0.88127 0.09903 0.0
C400 C 0.53894 0.92445 0.02173 0.0
C401 C 0.9235 0.92056 0.03329 0.0
C402 C 0.92103 0.92034 0.08051 0.0
C403 C 0.40469 0.88079 0.01853 0.0
C404 C 0.73565 0.82954 0.98564 0.0
C405 C 0.81537 0.80852 0.9922 0.0
C406 C 0.89529 0.81541 0.98909 0.0
C407 C 0.81621 0.83622 0.98302 0.0
C408 C 0.7357 0.81573 0.99053 0.0
C409 C 0.89553 0.82915 0.98476 0.0
C410 C 0.54666 0.87735 0.93313 0.0
C411 C 0.65025 0.83652 0.9827 0.0
H412 H 0.28903 0.96177 0.01261 0.0
H413 H 0.35896 0.92048 0.0174 0.0
H414 H 0.24591 0.93806 0.01255 0.0
H415 H 0.56429 0.95106 0.0297 0.0
H416 H 0.95786 0.81024 0.99086 0.0
H417 H 0.81784 0.84684 0.97949 0.0
H418 H 0.67337 0.81056 0.99239 0.0
H419 H 0.95757 0.83436 0.9828 0.0
Tb420 Tb 0.46475 0.11341 0.00703 0.0
C421 C 0.64682 0.17223 0.04253 0.0
N422 N 0.59715 0.16491 0.06618 0.0
C423 C 0.69557 0.1717 0.13432 0.0
C424 C 0.72506 0.17913 0.06342 0.0
C425 C 0.61875 0.16494 0.112 0.0
C426 C 0.74942 0.17873 0.10984 0.0
C427 C 0.67042 0.17959 0.97055 0.0
C428 C 0.61984 0.17242 0.99674 0.0
C429 C 0.74901 0.1864 0.99103 0.0
C430 C 0.7762 0.18618 0.03737 0.0
Tb431 Tb 0.47102 0.15491 0.02663 0.0
N432 N 0.54372 0.16567 0.97805 0.0
C433 C 0.64009 0.17978 0.9247 0.0
C434 C 0.51153 0.16643 0.93415 0.0
C435 C 0.5599 0.17327 0.90656 0.0
H436 H 0.57641 0.15998 0.13175 0.0
H437 H 0.53468 0.17366 0.87155 0.0
H438 H 0.42391 0.10921 0.88996 0.0
H439 H 0.27829 0.09818 0.1374 0.0
H440 H 0.44749 0.16205 0.92071 0.0
H441 H 0.67714 0.18514 0.90336 0.0
H442 H 0.40732 0.10812 0.10765 0.0
H443 H 0.7128 0.17158 0.17051 0.0
H444 H 0.78893 0.19193 0.97142 0.0
H445 H 0.83672 0.19152 0.05275 0.0
H446 H 0.29683 0.10301 0.83411 0.0
H447 H 0.80895 0.18393 0.12723 0.0
H448 H 0.14571 0.09041 0.08464 0.0
N449 N 0.35323 0.10792 0.94918 0.0
C450 C 0.27826 0.10282 0.96324 0.0
C451 C 0.28999 0.10321 0.8705 0.0
C452 C 0.20503 0.0983 0.93156 0.0
C453 C 0.36161 0.10727 0.90294 0.0
C454 C 0.21088 0.09891 0.88493 0.0
N455 N 0.34643 0.1063 0.03947 0.0
C456 C 0.34911 0.10487 0.08469 0.0
C457 C 0.2009 0.09592 0.02484 0.0
C458 C 0.27581 0.10159 0.00941 0.0
C459 C 0.20196 0.09475 0.07148 0.0
C460 C 0.27656 0.09918 0.10145 0.0
H461 H 0.1561 0.09555 0.85954 0.0
H462 H 0.07252 0.08946 0.92315 0.0
H463 H 0.06897 0.08738 1.00473 0.0
O464 O 0.52167 0.09842 0.0417 0.0
O465 O 0.35609 0.12637 0.03616 0.0
O466 O 0.35077 0.14352 0.99509 0.0
O467 O 0.47964 0.09356 0.96932 0.0
O468 O 0.52382 0.12413 0.0737 0.0
O469 O 0.45467 0.14526 0.08706 0.0
O470 O 0.41645 0.17345 0.01419 0.0
O471 O 0.60275 0.14542 0.02781 0.0
O472 O 0.60014 0.12145 0.0054 0.0
O473 O 0.39808 0.16657 0.0776 0.0
O474 O 0.43314 0.14193 0.95957 0.0
O475 O 0.51322 0.12229 0.95079 0.0
C476 C 0.30995 0.13504 0.01589 0.0
C477 C 0.57879 0.07826 0.99758 0.0
C478 C 0.615 0.05414 0.9946 0.0
C479 C 0.69483 0.05658 0.97549 0.0
C480 C 0.65852 0.08046 0.97885 0.0
C481 C 0.71654 0.06965 0.96818 0.0
C482 C 0.55821 0.06525 0.00618 0.0
C483 C 0.49662 0.13502 0.1014 0.0
C484 C 0.51155 0.08885 0.00513 0.0
C485 C 0.12937 0.09293 0.94704 0.0
C486 C 0.12746 0.09168 0.99347 0.0
C487 C 0.64175 0.1335 0.0169 0.0
C488 C 0.41367 0.19059 0.08105 0.0
C489 C 0.40654 0.21549 0.0885 0.0
C490 C 0.45976 0.21695 0.13027 0.0
C491 C 0.46631 0.19241 0.12311 0.0
C492 C 0.38458 0.20223 0.06358 0.0
C493 C 0.48972 0.2055 0.14723 0.0
C494 C 0.4875 0.13349 0.93651 0.0
C495 C 0.38881 0.17668 0.05531 0.0
H496 H 0.73991 0.04837 0.9651 0.0
H497 H 0.67499 0.09043 0.97182 0.0
H498 H 0.77784 0.07132 0.95326 0.0
H499 H 0.49687 0.06384 0.0215 0.0
H500 H 0.47845 0.22702 0.1498 0.0
H501 H 0.48905 0.18374 0.13765 0.0
H502 H 0.34357 0.20098 0.0313 0.0
H503 H 0.5307 0.20677 0.17945 0.0
Tb504 Tb 0.60097 0.15583 0.53514 0.0
C505 C 0.77897 0.10309 0.47506 0.0
N506 N 0.70225 0.10823 0.45853 0.0
C507 C 0.74932 0.10276 0.3813 0.0
C508 C 0.84527 0.09815 0.44538 0.0
C509 C 0.68478 0.10728 0.41186 0.0
C510 C 0.83042 0.09836 0.39818 0.0
C511 C 0.86777 0.09683 0.53993 0.0
C512 C 0.79038 0.10237 0.52185 0.0
C513 C 0.93422 0.09211 0.51048 0.0
C514 C 0.92314 0.09281 0.46341 0.0
Tb515 Tb 0.60209 0.11418 0.51306 0.0
N516 N 0.72655 0.10755 0.54997 0.0
C517 C 0.8764 0.09636 0.58722 0.0
C518 C 0.73348 0.10686 0.59592 0.0
C519 C 0.80887 0.10137 0.61528 0.0
H520 H 0.62013 0.10929 0.3973 0.0
H521 H 0.81468 0.10093 0.65175 0.0
H522 H 0.57267 0.16333 0.64813 0.0
H523 H 0.43381 0.1731 0.38878 0.0
H524 H 0.68058 0.11049 0.61743 0.0
H525 H 0.93485 0.09217 0.60239 0.0
H526 H 0.55248 0.16188 0.4288 0.0
H527 H 0.73539 0.10228 0.3445 0.0
H528 H 0.99443 0.08789 0.52376 0.0
H529 H 0.97473 0.089 0.44107 0.0
H530 H 0.46254 0.17495 0.69798 0.0
H531 H 0.87967 0.09465 0.37426 0.0
H532 H 0.31494 0.18499 0.43287 0.0
N533 N 0.50369 0.16631 0.58538 0.0
C534 C 0.43781 0.17322 0.56637 0.0
C535 C 0.45372 0.1743 0.66089 0.0
C536 C 0.37454 0.1804 0.59376 0.0
C537 C 0.5149 0.16734 0.63225 0.0
C538 C 0.38247 0.1807 0.64151 0.0
N539 N 0.49719 0.16619 0.494 0.0
C540 C 0.49887 0.16642 0.44797 0.0
C541 C 0.36677 0.18007 0.49805 0.0
C542 C 0.43439 0.17314 0.51917 0.0
C543 C 0.36591 0.17982 0.45044 0.0
C544 C 0.43265 0.17305 0.42539 0.0
H545 H 0.33545 0.18616 0.66382 0.0
H546 H 0.25698 0.19271 0.59324 0.0
H547 H 0.24977 0.19235 0.50941 0.0
O548 O 0.64623 0.17415 0.518 0.0
O549 O 0.46794 0.14621 0.52918 0.0
O550 O 0.46649 0.12214 0.51292 0.0
O551 O 0.69483 0.168 0.58127 0.0
O552 O 0.62325 0.14392 0.46693 0.0
O553 O 0.54539 0.12343 0.45545 0.0
O554 O 0.56214 0.09836 0.54578 0.0
O555 O 0.71918 0.12722 0.54282 0.0
O556 O 0.71222 0.14471 0.50337 0.0
O557 O 0.56781 0.09487 0.47209 0.0
O558 O 0.55368 0.12436 0.57804 0.0
O559 O 0.63153 0.14504 0.59315 0.0
C560 C 0.42697 0.13414 0.52035 0.0
C561 C 0.68507 0.19199 0.58178 0.0
C562 C 0.69809 0.21664 0.58325 0.0
C563 C 0.678 0.21913 0.62978 0.0
C564 C 0.66541 0.19483 0.62839 0.0
C565 C 0.66129 0.2083 0.65198 0.0
C566 C 0.70059 0.203 0.55921 0.0
C567 C 0.57058 0.13452 0.44113 0.0
C568 C 0.69369 0.1777 0.55699 0.0
C569 C 0.30644 0.18719 0.57279 0.0
C570 C 0.30246 0.187 0.52505 0.0
C571 C 0.75912 0.13603 0.52287 0.0
C572 C 0.48347 0.07896 0.50276 0.0
C573 C 0.44326 0.05513 0.50319 0.0
C574 C 0.35365 0.05838 0.49551 0.0
C575 C 0.39408 0.08201 0.49535 0.0
C576 C 0.50767 0.06558 0.50652 0.0
C577 C 0.3295 0.07171 0.49164 0.0
C578 C 0.58315 0.13558 0.60615 0.0
C579 C 0.55394 0.0894 0.50762 0.0
H580 H 0.67446 0.22949 0.64892 0.0
H581 H 0.65425 0.18667 0.64695 0.0
H582 H 0.64581 0.21036 0.68784 0.0
H583 H 0.71669 0.20095 0.52339 0.0
H584 H 0.30201 0.0507 0.49329 0.0
H585 H 0.37444 0.09229 0.4926 0.0
H586 H 0.57721 0.06331 0.51174 0.0
H587 H 0.26034 0.07408 0.48606 0.0
Tb588 Tb 0.45974 0.90013 0.5246 0.0
C589 C 0.63308 0.84169 0.4866 0.0
N590 N 0.57489 0.8485 0.46225 0.0
C591 C 0.65141 0.84123 0.39383 0.0
C592 C 0.70556 0.83491 0.46596 0.0
C593 C 0.58066 0.84785 0.41594 0.0
C594 C 0.71479 0.83487 0.41907 0.0
C595 C 0.6789 0.83485 0.55923 0.0
C596 C 0.6198 0.84169 0.53257 0.0
C597 C 0.75243 0.82829 0.53916 0.0
C598 C 0.76566 0.8283 0.49262 0.0
Tb599 Tb 0.46098 0.85858 0.50136 0.0
N600 N 0.54803 0.84818 0.55078 0.0
C601 C 0.66167 0.83468 0.60506 0.0
C602 C 0.5281 0.84731 0.59455 0.0
C603 C 0.58541 0.84081 0.62261 0.0
H604 H 0.53031 0.85224 0.39578 0.0
H605 H 0.57002 0.84036 0.65754 0.0
H606 H 0.44764 0.90531 0.64084 0.0
H607 H 0.24293 0.91429 0.38933 0.0
H608 H 0.467 0.85133 0.60761 0.0
H609 H 0.70557 0.82956 0.62677 0.0
H610 H 0.37841 0.9046 0.4219 0.0
H611 H 0.65649 0.84092 0.35725 0.0
H612 H 0.79885 0.82303 0.55917 0.0
H613 H 0.82209 0.82308 0.47747 0.0
H614 H 0.33433 0.91198 0.69514 0.0
H615 H 0.76945 0.82974 0.40184 0.0
H616 H 0.1233 0.92244 0.43989 0.0
N617 N 0.36195 0.90601 0.58048 0.0
C618 C 0.28382 0.91095 0.56488 0.0
C619 C 0.31846 0.91143 0.65844 0.0
C620 C 0.21858 0.91574 0.59541 0.0
C621 C 0.38193 0.90711 0.62704 0.0
C622 C 0.23588 0.91556 0.6425 0.0
N623 N 0.3337 0.90688 0.48949 0.0
C624 C 0.32579 0.90799 0.44391 0.0
C625 C 0.19226 0.91737 0.50127 0.0
C626 C 0.27043 0.91179 0.51831 0.0
C627 C 0.18237 0.9182 0.45428 0.0
C628 C 0.24962 0.91355 0.42555 0.0
H629 H 0.1875 0.91914 0.66707 0.0
H630 H 0.08866 0.92466 0.60133 0.0
H631 H 0.0657 0.92608 0.51898 0.0
O632 O 0.50501 0.91537 0.49079 0.0
O633 O 0.3439 0.88695 0.49316 0.0
O634 O 0.3471 0.86928 0.532 0.0
O635 O 0.4896 0.91983 0.56374 0.0
O636 O 0.50767 0.89014 0.45925 0.0
O637 O 0.43384 0.86904 0.44234 0.0
O638 O 0.41639 0.83909 0.50937 0.0
O639 O 0.59214 0.86844 0.50174 0.0
O640 O 0.5952 0.89217 0.53024 0.0
O641 O 0.37152 0.84761 0.44888 0.0
O642 O 0.4346 0.87072 0.56853 0.0
O643 O 0.51634 0.89073 0.58171 0.0
C644 C 0.30196 0.87824 0.51277 0.0
C645 C 0.57852 0.93531 0.53372 0.0
C646 C 0.61829 0.9592 0.53413 0.0
C647 C 0.70784 0.95602 0.54245 0.0
C648 C 0.66785 0.93233 0.54184 0.0
C649 C 0.73216 0.9427 0.54629 0.0
C650 C 0.55412 0.94869 0.53008 0.0
C651 C 0.47895 0.87902 0.43032 0.0
C652 C 0.50841 0.92478 0.52786 0.0
C653 C 0.13952 0.92098 0.57834 0.0
C654 C 0.12657 0.92185 0.53147 0.0
C655 C 0.63404 0.88031 0.51677 0.0
C656 C 0.31425 0.82479 0.45226 0.0
C657 C 0.2727 0.80108 0.45409 0.0
C658 C 0.20577 0.80158 0.41884 0.0
C659 C 0.2475 0.8249 0.41671 0.0
C660 C 0.32728 0.81275 0.47064 0.0
C661 C 0.19372 0.81337 0.4002 0.0
C662 C 0.48957 0.87959 0.59499 0.0
C663 C 0.36841 0.83731 0.47033 0.0
H664 H 0.75935 0.96375 0.5452 0.0
H665 H 0.68762 0.92205 0.54454 0.0
H666 H 0.80129 0.94038 0.55239 0.0
H667 H 0.4846 0.9509 0.52435 0.0
H668 H 0.16347 0.79274 0.40516 0.0
H669 H 0.23616 0.83397 0.40192 0.0
H670 H 0.37881 0.81249 0.49797 0.0
H671 H 0.1423 0.81358 0.37285 0.0
H672 H 0.36406 0.3897 0.09134 0.0
H673 H 0.79074 0.36469 0.95706 0.0
H674 H 0.34598 0.3672 0.95108 0.0
H675 H 0.80165 0.39907 0.07037 0.0
H676 H 0.6296 0.36354 0.95907 0.0
H677 H 0.52511 0.39152 0.08893 0.0
C678 C 0.39374 0.38527 0.05984 0.0
C679 C 0.34068 0.37863 0.02092 0.0
C680 C 0.667 0.37138 0.98341 0.0
C681 C 0.52624 0.38011 0.01865 0.0
C682 C 0.75921 0.37197 0.98252 0.0
C683 C 0.81005 0.38191 0.01384 0.0
C684 C 0.6246 0.38073 0.01623 0.0
C685 C 0.7651 0.39129 0.0454 0.0
C686 C 0.4859 0.38623 0.05863 0.0
C687 C 0.38377 0.37253 0.98182 0.0
N688 N 0.67518 0.3904 0.04608 0.0
N689 N 0.47366 0.37338 0.98174 0.0
H690 H 0.25401 0.61615 0.04767 0.0
H691 H 0.68167 0.64704 0.9578 0.0
H692 H 0.2411 0.65179 0.98454 0.0
H693 H 0.69841 0.62585 0.07262 0.0
H694 H 0.51947 0.64681 0.95874 0.0
H695 H 0.41635 0.61689 0.04739 0.0
C696 C 0.28523 0.62414 0.0338 0.0
C697 C 0.23369 0.63407 0.01682 0.0
C698 C 0.55881 0.64213 0.98353 0.0
C699 C 0.41955 0.63488 0.01582 0.0
C700 C 0.65148 0.64228 0.9831 0.0
C701 C 0.7042 0.63612 0.01441 0.0
C702 C 0.51814 0.63562 0.01513 0.0
C703 C 0.6608 0.63024 0.04664 0.0
C704 C 0.37788 0.6246 0.03386 0.0
C705 C 0.27802 0.64416 0.99911 0.0
N706 N 0.57073 0.62998 0.04582 0.0
N707 N 0.36801 0.64426 0.9988 0.0
H708 H 0.80897 0.64921 0.58318 0.0
H709 H 0.33982 0.62486 0.45039 0.0
H710 H 0.78226 0.61582 0.46653 0.0
H711 H 0.36618 0.64724 0.59083 0.0
H712 H 0.50115 0.62309 0.45169 0.0
H713 H 0.64758 0.65044 0.58243 0.0
C714 C 0.76909 0.64219 0.55716 0.0
C715 C 0.80943 0.63253 0.52444 0.0
C716 C 0.47172 0.62836 0.48227 0.0
C717 C 0.6236 0.63376 0.52369 0.0
C718 C 0.3794 0.62931 0.48169 0.0
C719 C 0.33877 0.6359 0.52097 0.0
C720 C 0.52469 0.63442 0.52201 0.0
C721 C 0.39417 0.64196 0.55982 0.0
C722 C 0.67679 0.64281 0.55704 0.0
C723 C 0.75409 0.62342 0.49242 0.0
N724 N 0.48399 0.64111 0.55931 0.0
N725 N 0.66415 0.62433 0.49257 0.0
H726 H 0.67858 0.38783 0.45369 0.0
H727 H 0.24511 0.36383 0.55643 0.0
H728 H 0.69182 0.36844 0.5727 0.0
H729 H 0.24268 0.39794 0.48578 0.0
H730 H 0.40638 0.36287 0.55424 0.0
H731 H 0.51749 0.38936 0.45677 0.0
C732 C 0.64784 0.38405 0.48084 0.0
C733 C 0.69959 0.37843 0.5139 0.0
C734 C 0.37074 0.37059 0.53929 0.0
C735 C 0.51391 0.37945 0.51614 0.0
C736 C 0.27846 0.37106 0.54013 0.0
C737 C 0.23003 0.38088 0.52084 0.0
C738 C 0.4155 0.37991 0.5184 0.0
C739 C 0.27735 0.39023 0.50122 0.0
C740 C 0.55566 0.38482 0.48232 0.0
C741 C 0.65508 0.37301 0.54676 0.0
N742 N 0.36722 0.38943 0.50009 0.0
N743 N 0.56511 0.37362 0.54697 0.0
H744 H 0.83694 0.88603 0.95525 0.0
H745 H 0.30456 0.86506 0.0622 0.0
H746 H 0.86188 0.8688 0.07886 0.0
H747 H 0.28106 0.89629 0.97929 0.0
H748 H 0.14288 0.8638 0.06158 0.0
H749 H 0.99847 0.88752 0.95656 0.0
C750 C 0.87631 0.88269 0.98301 0.0
C751 C 0.83523 0.87774 0.0179 0.0
C752 C 0.17288 0.87095 0.04354 0.0
C753 C 1.02145 0.87876 0.01832 0.0
C754 C 0.26528 0.87156 0.04344 0.0
C755 C 0.30653 0.88062 0.02012 0.0
C756 C 0.12054 0.87939 0.01973 0.0
C757 C 0.25212 0.88915 0.9977 0.0
C758 C 0.96875 0.88345 0.98352 0.0
C759 C 0.89028 0.87288 0.05158 0.0
N760 N 0.16206 0.88824 0.99767 0.0
N761 N 0.98029 0.87349 0.05093 0.0
H762 H 0.20799 0.12489 0.07532 0.0
H763 H 0.74514 0.15173 0.9847 0.0
H764 H 0.18641 0.14649 0.96155 0.0
H765 H 0.76284 0.11573 0.04578 0.0
H766 H 0.90689 0.15254 0.98512 0.0
H767 H 0.04637 0.12383 0.07382 0.0
C768 C 0.16938 0.12928 0.04962 0.0
C769 C 0.21143 0.13537 0.0175 0.0
C770 C 0.8755 0.14447 0.99848 0.0
C771 C 1.02519 0.13485 0.01725 0.0
C772 C 0.78306 0.14409 0.99877 0.0
C773 C 0.74011 0.13378 0.01596 0.0
C774 C 0.92617 0.13456 0.01612 0.0
C775 C 0.79301 0.12388 0.0323 0.0
C776 C 0.0769 0.12876 0.04907 0.0
C777 C 0.1573 0.14153 0.98666 0.0
N778 N 0.88311 0.12459 0.03242 0.0
N779 N 0.06725 0.14115 0.98738 0.0
H780 H 0.31814 0.11633 0.55171 0.0
H781 H 0.86232 0.14728 0.46626 0.0
H782 H 0.31045 0.15166 0.48697 0.0
H783 H 0.88216 0.12588 0.58054 0.0
H784 H 1.02427 0.14684 0.4651 0.0
H785 H 0.15602 0.11699 0.55295 0.0
C786 C 0.28241 0.12421 0.53764 0.0
C787 C 0.32832 0.13408 0.51975 0.0
C788 C 0.99303 0.14216 0.49023 0.0
C789 C 0.14241 0.13482 0.52067 0.0
C790 C 0.9005 0.14243 0.491 0.0
C791 C 0.85787 0.13628 0.52281 0.0
C792 C 0.04375 0.13557 0.52115 0.0
C793 C 0.91144 0.13026 0.55423 0.0
C794 C 0.18993 0.12463 0.53864 0.0
C795 C 0.27826 0.14406 0.50205 0.0
N796 N 1.0011 0.12991 0.55229 0.0
N797 N 0.1883 0.14413 0.5027 0.0
H798 H 0.74728 0.86233 0.54922 0.0
H799 H 0.18212 0.88844 0.45368 0.0
H800 H 0.74615 0.89816 0.48724 0.0
H801 H 0.19484 0.86737 0.56871 0.0
H802 H 1.02102 0.88981 0.45663 0.0
H803 H 0.90866 0.8615 0.54745 0.0
C804 C 0.78088 0.86995 0.53482 0.0
C805 C 0.73272 0.88022 0.51785 0.0
C806 C 0.05906 0.88493 0.48136 0.0
C807 C 0.91848 0.8794 0.51593 0.0
C808 C 0.15129 0.88426 0.47998 0.0
C809 C 0.20299 0.87822 0.51202 0.0
C810 C 1.01705 0.87904 0.51393 0.0
C811 C 0.15822 0.87228 0.54363 0.0
C812 C 0.87327 0.86956 0.53427 0.0
C813 C 0.78051 0.89008 0.5008 0.0
N814 N 0.06814 0.8728 0.5437 0.0
N815 N 0.87047 0.88935 0.49983 0.0
H816 H 0.99222 0.54727 0.06151 0.0
H817 H 0.07075 0.46704 0.98031 0.0
H818 H 0.17724 0.53092 0.96172 0.0
H819 H 0.87064 0.48336 0.07109 0.0
H820 H 0.11388 0.49034 0.97499 0.0
H821 H 0.9492 0.52401 0.06666 0.0
C822 C 1.02354 0.53882 0.0404 0.0
C823 C 0.08846 0.54117 0.01096 0.0
C824 C 0.06048 0.48884 0.99606 0.0
C825 C 0.04008 0.51433 0.01736 0.0
C826 C 0.0361 0.47552 0.99934 0.0
C827 C 0.96688 0.47318 0.02624 0.0
C828 C 1.01572 0.49999 0.01999 0.0
C829 C 0.92364 0.48462 0.04951 0.0
C830 C 0.9992 0.5255 0.04361 0.0
C831 C 0.12776 0.5297 0.98532 0.0
N832 N 0.94887 0.49749 0.04593 0.0
N833 N 0.10297 0.51682 0.9891 0.0
H834 H 0.19159 0.48363 0.58017 0.0
H835 H 0.8479 0.53098 0.46528 0.0
H836 H 0.97974 0.46775 0.4779 0.0
H837 H 0.07566 0.5469 0.55627 0.0
H838 H 0.89231 0.50778 0.47162 0.0
H839 H 0.14838 0.50683 0.5734 0.0
C840 C 0.13632 0.48497 0.55608 0.0
C841 C 0.08939 0.4736 0.52961 0.0
C842 C 0.93267 0.51634 0.49019 0.0
C843 C 0.03862 0.5003 0.52218 0.0
C844 C 0.90703 0.52962 0.4868 0.0
C845 C 0.95795 0.54097 0.51031 0.0
C846 C 1.0097 0.51432 0.51755 0.0
C847 C 0.03476 0.53849 0.5371 0.0
C848 C 0.11134 0.49826 0.55244 0.0
C849 C 1.01726 0.47611 0.49962 0.0
N850 N 0.05806 0.52547 0.54009 0.0
N851 N 0.99419 0.48914 0.49679 0.0
H852 H 0.34269 0.98259 0.05062 0.0
H853 H 0.72381 0.03328 0.01379 0.0
H854 H 0.58261 0.9677 0.98917 0.0
H855 H 0.44743 0.04252 0.99006 0.0
H856 H 0.68011 0.01021 0.02128 0.0
H857 H 0.38707 1.00579 0.04503 0.0
C858 C 0.4044 0.98407 0.03583 0.0
C859 C 0.45843 0.97292 0.02024 0.0
C860 C 0.62936 0.01737 0.0146 0.0
C861 C 0.5109 0.99971 0.01552 0.0
C862 C 0.6541 0.03056 0.00995 0.0
C863 C 0.5896 0.04007 1.00107 0.0
C864 C 0.53942 0.01367 0.01143 0.0
C865 C 0.50008 0.03582 0.99786 0.0
C866 C 0.42984 0.99738 0.03302 0.0
C867 C 0.53904 0.9758 1.00268 0.0
N868 N 0.47778 0.02301 1.00329 0.0
N869 N 0.56289 0.98887 1.00107 0.0
H870 H 0.57378 0.04741 0.56265 0.0
H871 H 0.48842 0.96692 0.47426 0.0
H872 H 0.37322 0.03048 0.45533 0.0
H873 H 0.68738 0.98387 0.58245 0.0
H874 H 0.44509 0.99006 0.46711 0.0
H875 H 0.61702 0.02427 0.56982 0.0
C876 C 0.53904 0.03885 0.54034 0.0
C877 C 0.46968 0.04099 0.5082 0.0
C878 C 0.49826 0.98873 0.49242 0.0
C879 C 0.51849 0.01431 0.51678 0.0
C880 C 0.52278 0.97548 0.49678 0.0
C881 C 0.59173 0.97334 0.52915 0.0
C882 C 0.54286 1.00003 0.52056 0.0
C883 C 0.63466 0.98494 0.55661 0.0
C884 C 0.56351 0.0256 0.5447 0.0
C885 C 0.42629 0.0294 0.48097 0.0
N886 N 0.60951 0.99774 0.55172 0.0
N887 N 0.45144 0.0166 0.48584 0.0
H888 H 0.3928 0.28747 0.96481 0.0
H889 H 0.31397 0.23616 0.13581 0.0
H890 H 0.23514 0.29705 0.08215 0.0
H891 H 0.42715 0.22335 0.00524 0.0
H892 H 0.27849 0.25815 0.11435 0.0
H893 H 0.4019 0.2638 0.97669 0.0
C894 C 0.35997 0.2846 0.99304 0.0
C895 C 0.31384 0.29434 0.02281 0.0
C896 C 0.3102 0.25052 0.09004 0.0
C897 C 0.3239 0.2672 0.03655 0.0
C898 C 0.33041 0.23796 0.10231 0.0
C899 C 0.37394 0.22797 0.07236 0.0
C900 C 0.33505 0.25328 0.04774 0.0
C901 C 0.39339 0.23078 0.02926 0.0
C902 C 0.36469 0.27105 0.99959 0.0
C903 C 0.2712 0.28993 0.05823 0.0
N904 N 0.37495 0.24326 0.01848 0.0
N905 N 0.27805 0.27677 0.06437 0.0
H906 H 0.90859 0.78716 0.94659 0.0
H907 H 0.80076 0.73702 0.11676 0.0
H908 H 0.72324 0.79668 0.05162 0.0
H909 H 0.93339 0.72356 0.99247 0.0
H910 H 0.7677 0.75864 0.09172 0.0
H911 H 0.91633 0.76374 0.9611 0.0
C912 C 0.86934 0.78432 0.97264 0.0
C913 C 0.81576 0.79397 0.99821 0.0
C914 C 0.80307 0.75093 0.06952 0.0
C915 C 0.82445 0.76713 0.01508 0.0
C916 C 0.82183 0.73858 0.08381 0.0
C917 C 0.86992 0.72853 0.05665 0.0
C918 C 0.83417 0.75341 0.02811 0.0
C919 C 0.89579 0.73104 0.01427 0.0
C920 C 0.87337 0.77091 0.98069 0.0
C921 C 0.76525 0.78961 0.03098 0.0
N922 N 0.87871 0.74332 1.00158 0.0
N923 N 0.77162 0.7766 0.03881 0.0
H924 H 0.1831 0.72519 0.54911 0.0
H925 H 0.42487 0.78656 0.46283 0.0
H926 H 0.43123 0.72059 0.48507 0.0
H927 H 0.1474 0.78615 0.48586 0.0
H928 H 0.43784 0.76381 0.48354 0.0
H929 H 0.17746 0.74877 0.53719 0.0
C930 C 0.23628 0.72905 0.5323 0.0
C931 C 0.30747 0.72069 0.51778 0.0
C932 C 0.3743 0.76876 0.48441 0.0
C933 C 0.30223 0.74801 0.50512 0.0
C934 C 0.3671 0.78177 0.47298 0.0
C935 C 0.28484 0.7882 0.47238 0.0
C936 C 0.29895 0.76222 0.49592 0.0
C937 C 0.21186 0.78149 0.48546 0.0
C938 C 0.23324 0.7426 0.52585 0.0
C939 C 0.37543 0.72657 0.49741 0.0
N940 N 0.22057 0.76889 0.49661 0.0
N941 N 0.37108 0.73981 0.49169 0.0
H942 H 0.89059 0.29184 0.50978 0.0
H943 H 0.62393 0.22178 0.50068 0.0
H944 H 0.63403 0.28258 0.43601 0.0
H945 H 0.81179 0.23838 0.61456 0.0
H946 H 0.6442 0.24239 0.46784 0.0
H947 H 0.87713 0.27102 0.54205 0.0
C948 C 0.83121 0.28556 0.50054 0.0
C949 C 0.76378 0.28903 0.46957 0.0
C950 C 0.68127 0.24149 0.49993 0.0
C951 C 0.74937 0.26493 0.50553 0.0
C952 C 0.67023 0.22969 0.51842 0.0
C953 C 0.71586 0.22842 0.5605 0.0
C954 C 0.73944 0.252 0.52326 0.0
C955 C 0.77469 0.23903 0.58225 0.0
C956 C 0.82398 0.2736 0.51874 0.0
C957 C 0.68902 0.28025 0.45863 0.0
N958 N 0.78494 0.25036 0.56339 0.0
N959 N 0.68424 0.26862 0.47622 0.0
H960 H 0.90709 0.38874 0.14676 0.0
H961 H 0.85371 0.36958 0.36132 0.0
H962 H 0.16424 0.37115 0.16393 0.0
H963 H 0.11944 0.38613 0.39146 0.0
H964 H 0.86652 0.36982 0.27878 0.0
H965 H 0.88299 0.38745 0.22746 0.0
C966 C 0.95836 0.38465 0.16764 0.0
C967 C 0.03751 0.38 0.14897 0.0
C968 C 0.92177 0.3734 0.30362 0.0
C969 C 1.01095 0.37861 0.24049 0.0
C970 C 0.91485 0.37315 0.3504 0.0
C971 C 0.98552 0.37793 0.3829 0.0
C972 C 1.00064 0.37813 0.28943 0.0
C973 C 0.06332 0.3825 0.36729 0.0
C974 C 0.94433 0.38381 0.21329 0.0
C975 C 0.10203 0.37473 0.17714 0.0
N976 N 0.06924 0.38236 0.32146 0.0
N977 N 0.08787 0.37436 0.22184 0.0
H978 H 0.85728 0.64329 0.16101 0.0
H979 H 0.16517 0.64213 0.38743 0.0
H980 H 0.12481 0.62895 0.15296 0.0
H981 H 0.89516 0.62748 0.37813 0.0
H982 H 0.15078 0.64249 0.30429 0.0
H983 H 0.86865 0.64267 0.24435 0.0
C984 C 0.91852 0.64014 0.17696 0.0
C985 C 0.99033 0.63618 0.15044 0.0
C986 C 0.09477 0.63921 0.32053 0.0
C987 C 1.00399 0.63565 0.24495 0.0
C988 C 0.10269 0.63907 0.36781 0.0
C989 C 0.03109 0.63477 0.38934 0.0
C990 C 1.01394 0.63541 0.29496 0.0
C991 C 0.9518 0.63079 0.3625 0.0
C992 C 0.92465 0.63969 0.22418 0.0
C993 C 0.06799 0.63203 0.17238 0.0
N994 N 0.94485 0.63135 0.31659 0.0
N995 N 0.07321 0.63202 0.21857 0.0
H996 H 0.85766 0.63831 0.86852 0.0
H997 H 0.19683 0.6412 0.67667 0.0
H998 H 0.1343 0.62977 0.89151 0.0
H999 H 0.92345 0.62892 0.64165 0.0
H1000 H 0.17505 0.64148 0.75869 0.0
H1001 H 0.88051 0.63919 0.78764 0.0
C1002 C 0.92325 0.63667 0.85641 0.0
C1003 C 0.99434 0.63396 0.88636 0.0
C1004 C 0.11992 0.63877 0.73299 0.0
C1005 C 1.02108 0.63511 0.79454 0.0
C1006 C 0.13211 0.63871 0.68644 0.0
C1007 C 0.06165 0.63506 0.65271 0.0
C1008 C 0.03636 0.6354 0.74573 0.0
C1009 C 0.97934 0.63175 0.66681 0.0
C1010 C 0.93618 0.63714 0.8104 0.0
C1011 C 0.07793 0.63182 0.86918 0.0
N1012 N 0.96871 0.63208 0.71233 0.0
N1013 N 0.0893 0.63255 0.82437 0.0
H1014 H 0.85688 0.37629 0.65336 0.0
H1015 H 0.18185 0.37122 0.87279 0.0
H1016 H 0.13701 0.38414 0.65444 0.0
H1017 H 0.9171 0.38638 0.88628 0.0
H1018 H 0.16412 0.37144 0.78945 0.0
H1019 H 0.87529 0.37568 0.73622 0.0
C1020 C 0.92232 0.37784 0.67119 0.0
C1021 C 0.9957 0.38027 0.64741 0.0
C1022 C 0.10996 0.37467 0.81072 0.0
C1023 C 1.01727 0.37937 0.74153 0.0
C1024 C 0.11965 0.37443 0.858 0.0
C1025 C 0.05049 0.37872 0.88611 0.0
C1026 C 0.02998 0.37898 0.79145 0.0
C1027 C 0.97181 0.383 0.8656 0.0
C1028 C 0.93266 0.37754 0.71832 0.0
C1029 C 0.07897 0.38231 0.67188 0.0
N1030 N 0.96333 0.38292 0.81935 0.0
N1031 N 0.08781 0.38168 0.71769 0.0
H1032 H 0.40646 0.88272 0.13944 0.0
H1033 H 0.62337 0.88779 0.39463 0.0
H1034 H 0.68719 0.87865 0.16779 0.0
H1035 H 0.36471 0.86929 0.35467 0.0
H1036 H 0.64386 0.88793 0.31315 0.0
H1037 H 0.38456 0.88126 0.22031 0.0
C1038 C 0.4633 0.88162 0.16293 0.0
C1039 C 0.54861 0.88081 0.14746 0.0
C1040 C 0.58279 0.88379 0.32221 0.0
C1041 C 0.52456 0.87931 0.23916 0.0
C1042 C 0.57093 0.88376 0.36857 0.0
C1043 C 0.49225 0.87853 0.38111 0.0
C1044 C 0.51459 0.87886 0.28831 0.0
C1045 C 0.42648 0.87334 0.34617 0.0
C1046 C 0.45081 0.88067 0.20869 0.0
C1047 C 0.6204 0.87926 0.1787 0.0
N1048 N 0.43864 0.87378 0.30121 0.0
N1049 N 0.60689 0.87869 0.22329 0.0
H1050 H 0.6357 0.12504 0.14753 0.0
H1051 H 0.69527 0.14151 0.38794 0.0
H1052 H 0.38608 0.14503 0.16886 0.0
H1053 H 0.42366 0.12772 0.3808 0.0
H1054 H 0.67952 0.14169 0.30487 0.0
H1055 H 0.65568 0.12478 0.23058 0.0
C1056 C 0.58519 0.12939 0.16978 0.0
C1057 C 0.50955 0.13518 0.15158 0.0
C1058 C 0.62355 0.13857 0.32148 0.0
C1059 C 0.53149 0.13476 0.24612 0.0
C1060 C 0.63221 0.13855 0.36879 0.0
C1061 C 0.56062 0.13453 0.39098 0.0
C1062 C 0.54225 0.1348 0.29631 0.0
C1063 C 0.48045 0.13075 0.36465 0.0
C1064 C 0.59683 0.12929 0.21703 0.0
C1065 C 0.44589 0.14064 0.18181 0.0
N1066 N 0.47297 0.13112 0.31857 0.0
N1067 N 0.4578 0.14017 0.22772 0.0
H1068 H 0.36387 0.13815 0.86973 0.0
H1069 H 0.70303 0.14397 0.68049 0.0
H1070 H 0.64218 0.13107 0.89451 0.0
H1071 H 0.43543 0.12881 0.64378 0.0
H1072 H 0.68085 0.14401 0.7624 0.0
H1073 H 0.38786 0.13948 0.78929 0.0
C1074 C 0.43006 0.13695 0.85812 0.0
C1075 C 0.50127 0.13448 0.88837 0.0
C1076 C 0.62713 0.14072 0.73631 0.0
C1077 C 0.52928 0.13614 0.79715 0.0
C1078 C 0.63954 0.14077 0.68982 0.0
C1079 C 0.57093 0.13634 0.65565 0.0
C1080 C 0.54497 0.13652 0.74849 0.0
C1081 C 0.49004 0.1322 0.66924 0.0
C1082 C 0.44365 0.13766 0.81238 0.0
C1083 C 0.58572 0.13291 0.87188 0.0
N1084 N 0.47902 0.13248 0.71467 0.0
N1085 N 0.59768 0.13387 0.82732 0.0
H1086 H 0.35871 0.8754 0.64883 0.0
H1087 H 0.66606 0.8677 0.87057 0.0
H1088 H 0.63985 0.88295 0.65362 0.0
H1089 H 0.40983 0.8862 0.88204 0.0
H1090 H 0.65452 0.8684 0.78736 0.0
H1091 H 0.37292 0.87458 0.73156 0.0
C1092 C 0.42348 0.87683 0.66744 0.0
C1093 C 0.49834 0.87927 0.64479 0.0
C1094 C 0.60093 0.87225 0.80822 0.0
C1095 C 0.51511 0.87809 0.73868 0.0
C1096 C 0.60702 0.87174 0.85537 0.0
C1097 C 0.53852 0.87685 0.88283 0.0
C1098 C 0.52483 0.87757 0.78849 0.0
C1099 C 0.46398 0.88218 0.86187 0.0
C1100 C 0.43142 0.87642 0.71448 0.0
C1101 C 0.58072 0.88114 0.67023 0.0
N1102 N 0.45865 0.88228 0.81576 0.0
N1103 N 0.58724 0.88036 0.71595 0.0
loop_
_geom_bond_atom_site_label_1
_geom_bond_atom_site_label_2
_geom_bond_distance
_geom_bond_site_symmetry_2
_ccdc_geom_bond_type
Tb0 N29 2.617 1_554 S
Tb0 N35 2.572 . S
Tb0 O44 2.465 . S
Tb0 O45 2.387 . S
Tb0 O47 2.428 1_554 S
Tb0 O48 2.308 . S
Tb0 O52 2.349 1_455 S
Tb0 O55 2.393 1_554 S
Tb0 C64 2.802 . S
C1 N2 1.379 . S
C1 C4 1.416 . S
C1 C8 1.424 . S
N2 C1 1.379 . S
N2 C5 1.334 . S
N2 Tb11 2.617 1_655 S
C3 C5 1.390 . S
C3 C6 1.339 . S
C3 H23 0.930 . S
C4 C1 1.416 . S
C4 C6 1.416 . S
C4 C10 1.448 . S
C5 N2 1.334 . S
C5 C3 1.390 . S
C5 H16 0.930 1_655 S
C6 C3 1.339 . S
C6 C4 1.416 . S
C6 H27 0.930 . S
C7 C8 1.413 1_556 S
C7 C9 1.427 1_556 S
C7 C13 1.416 . S
C8 C1 1.424 . S
C8 C7 1.413 1_554 S
C8 N12 1.361 1_554 S
C9 C7 1.427 1_554 S
C9 C10 1.328 . S
C9 H24 0.929 . S
C10 C4 1.448 . S
C10 C9 1.328 . S
C10 H25 0.930 . S
Tb11 N2 2.617 1_455 S
Tb11 N12 2.572 1_454 S
Tb11 O46 2.349 . S
Tb11 O49 2.393 . S
Tb11 O50 2.465 1_554 S
Tb11 O51 2.387 1_455 S
Tb11 O53 2.428 . S
Tb11 O54 2.308 1_554 S
Tb11 C75 2.802 . S
N12 C8 1.361 1_556 S
N12 Tb11 2.572 1_656 S
N12 C14 1.340 . S
C13 C7 1.416 . S
C13 C15 1.332 . S
C13 H21 0.931 . S
C14 N12 1.340 . S
C14 C15 1.407 . S
C14 H20 0.930 . S
C15 C13 1.332 . S
C15 C14 1.407 . S
C15 H17 0.929 . S
H16 C5 0.930 1_455 S
H17 C15 0.929 . S
H18 C33 0.930 . S
H19 C40 0.929 . S
H20 C14 0.930 . S
H21 C13 0.931 . S
H22 C36 0.930 . S
H23 C3 0.930 . S
H24 C9 0.929 . S
H25 C10 0.930 . S
H26 C31 0.930 . S
H27 C6 0.930 . S
H28 C39 0.931 . S
N29 Tb0 2.617 1_556 S
N29 C30 1.379 . S
N29 C33 1.334 . S
C30 N29 1.379 . S
C30 C32 1.416 . S
C30 C38 1.424 1_556 S
C31 H26 0.930 . S
C31 C33 1.390 . S
C31 C34 1.339 . S
C32 C30 1.416 . S
C32 C34 1.416 . S
C32 C65 1.448 . S
C33 H18 0.930 . S
C33 N29 1.334 . S
C33 C31 1.390 . S
C34 C31 1.339 . S
C34 C32 1.416 . S
C34 H41 0.930 . S
N35 Tb0 2.572 . S
N35 C36 1.340 . S
N35 C38 1.361 . S
C36 H22 0.930 . S
C36 N35 1.340 . S
C36 C40 1.407 . S
C37 C38 1.413 . S
C37 C39 1.416 . S
C37 C66 1.427 . S
C38 C30 1.424 1_554 S
C38 N35 1.361 . S
C38 C37 1.413 . S
C39 H28 0.931 . S
C39 C37 1.416 . S
C39 C40 1.332 . S
C40 H19 0.929 . S
C40 C36 1.407 . S
C40 C39 1.332 . S
H41 C34 0.930 . S
H42 C65 0.930 . S
H43 C66 0.929 . S
O44 Tb0 2.465 . S
O44 C64 1.264 . S
O45 Tb0 2.387 . S
O45 C56 1.264 . S
O46 Tb11 2.349 . S
O46 C56 1.243 . S
O47 Tb0 2.428 1_556 S
O47 C64 1.256 1_556 S
O48 Tb0 2.308 . S
O48 C63 1.266 . S
O49 Tb11 2.393 . S
O49 C63 1.248 . S
O50 Tb11 2.465 1_556 S
O50 C75 1.264 1_556 S
O51 Tb11 2.387 1_655 S
O51 C67 1.264 . S
O52 Tb0 2.349 1_655 S
O52 C67 1.243 . S
O53 Tb11 2.428 . S
O53 C75 1.256 . S
O54 Tb11 2.308 1_556 S
O54 C74 1.266 . S
O55 Tb0 2.393 1_556 S
O55 C74 1.248 . S
C56 O45 1.264 . S
C56 O46 1.243 . S
C57 C60 1.399 1_554 S
C57 C62 1.383 . S
C57 C64 1.496 1_655 S
C58 C59 1.399 . S
C58 C62 1.389 . S
C59 C58 1.399 . S
C59 C61 1.392 . S
C59 H76 0.929 . S
C60 C57 1.399 1_556 S
C60 C61 1.392 1_556 S
C60 H77 0.929 . S
C61 C59 1.392 . S
C61 C60 1.392 1_554 S
C61 H78 0.917 1_554 S
C62 C57 1.383 . S
C62 C58 1.389 . S
C62 H79 0.931 . S
C63 O48 1.266 . S
C63 O49 1.248 . S
C64 Tb0 2.802 . S
C64 O44 1.264 . S
C64 O47 1.256 1_554 S
C64 C57 1.496 1_455 S
C65 C32 1.448 . S
C65 H42 0.930 . S
C65 C66 1.328 1_556 S
C66 C37 1.427 . S
C66 H43 0.929 . S
C66 C65 1.328 1_554 S
C67 O51 1.264 . S
C67 O52 1.243 . S
C68 C71 1.399 1_556 S
C68 C72 1.383 . S
C68 C75 1.496 1_556 S
C69 C70 1.399 . S
C69 C72 1.389 . S
C70 C69 1.399 . S
C70 C73 1.380 1_556 S
C70 H80 0.929 . S
C71 C68 1.399 1_554 S
C71 C73 1.392 . S
C71 H81 0.929 . S
C72 C68 1.383 . S
C72 C69 1.389 . S
C72 H82 0.931 . S
C73 C70 1.380 1_554 S
C73 C71 1.392 . S
C73 H83 0.929 . S
C74 O54 1.266 . S
C74 O55 1.248 . S
C75 Tb11 2.802 . S
C75 O50 1.264 1_554 S
C75 O53 1.256 . S
C75 C68 1.496 1_554 S
H76 C59 0.929 . S
H77 C60 0.929 . S
H78 C61 0.917 1_556 S
H79 C62 0.931 . S
H80 C70 0.929 . S
H81 C71 0.929 . S
H82 C72 0.931 . S
H83 C73 0.929 . S
Tb84 N113 2.617 . S
Tb84 N119 2.572 1_556 S
Tb84 O128 2.465 1_556 S
Tb84 O129 2.387 . S
Tb84 O131 2.428 . S
Tb84 O132 2.308 1_556 S
Tb84 O136 2.349 1_656 S
Tb84 O139 2.393 . S
Tb84 C148 2.802 . S
C85 N86 1.379 . S
C85 C88 1.416 . S
C85 C92 1.424 . S
N86 C85 1.379 . S
N86 C89 1.334 . S
N86 Tb95 2.617 1_455 S
C87 C89 1.390 . S
C87 C90 1.339 . S
C87 H107 0.930 . S
C88 C85 1.416 . S
C88 C90 1.416 . S
C88 C94 1.448 . S
C89 N86 1.334 . S
C89 C87 1.390 . S
C89 H100 0.930 . S
C90 C87 1.339 . S
C90 C88 1.416 . S
C90 H111 0.930 . S
C91 C92 1.413 . S
C91 C93 1.427 . S
C91 C97 1.416 1_554 S
C92 C85 1.424 . S
C92 C91 1.413 . S
C92 N96 1.361 . S
C93 C91 1.427 . S
C93 C94 1.328 . S
C93 H108 0.929 . S
C94 C88 1.448 . S
C94 C93 1.328 . S
C94 H109 0.930 . S
Tb95 N86 2.617 1_655 S
Tb95 N96 2.572 1_655 S
Tb95 O130 2.349 . S
Tb95 O133 2.393 . S
Tb95 O134 2.465 . S
Tb95 O135 2.387 1_655 S
Tb95 O137 2.428 . S
Tb95 O138 2.308 1_554 S
Tb95 C159 2.802 . S
N96 C92 1.361 . S
N96 Tb95 2.572 1_455 S
N96 C98 1.340 1_554 S
C97 C91 1.416 1_556 S
C97 C99 1.332 . S
C97 H105 0.931 . S
C98 N96 1.340 1_556 S
C98 C99 1.407 . S
C98 H104 0.930 . S
C99 C97 1.332 . S
C99 C98 1.407 . S
C99 H101 0.929 . S
H100 C89 0.930 . S
H101 C99 0.929 . S
H102 C117 0.930 . S
H103 C124 0.929 . S
H104 C98 0.930 . S
H105 C97 0.931 . S
H106 C120 0.930 . S
H107 C87 0.930 . S
H108 C93 0.929 . S
H109 C94 0.930 . S
H110 C115 0.930 . S
H111 C90 0.930 . S
H112 C123 0.931 . S
N113 Tb84 2.617 . S
N113 C114 1.379 . S
N113 C117 1.334 . S
C114 N113 1.379 . S
C114 C116 1.416 . S
C114 C122 1.424 . S
C115 H110 0.930 . S
C115 C117 1.390 . S
C115 C118 1.339 . S
C116 C114 1.416 . S
C116 C118 1.416 . S
C116 C149 1.448 . S
C117 H102 0.930 . S
C117 N113 1.334 . S
C117 C115 1.390 . S
C118 C115 1.339 . S
C118 C116 1.416 . S
C118 H125 0.930 . S
N119 Tb84 2.572 1_554 S
N119 C120 1.340 . S
N119 C122 1.361 1_554 S
C120 H106 0.930 . S
C120 N119 1.340 . S
C120 C124 1.407 . S
C121 C122 1.413 . S
C121 C123 1.416 1_556 S
C121 C150 1.427 . S
C122 C114 1.424 . S
C122 N119 1.361 1_556 S
C122 C121 1.413 . S
C123 H112 0.931 . S
C123 C121 1.416 1_554 S
C123 C124 1.332 . S
C124 H103 0.929 . S
C124 C120 1.407 . S
C124 C123 1.332 . S
H125 C118 0.930 . S
H126 C149 0.930 . S
H127 C150 0.929 . S
O128 Tb84 2.465 1_554 S
O128 C148 1.264 1_554 S
O129 Tb84 2.387 . S
O129 C140 1.264 1_556 S
O130 Tb95 2.349 . S
O130 C140 1.243 . S
O131 Tb84 2.428 . S
O131 C148 1.256 . S
O132 Tb84 2.308 1_554 S
O132 C147 1.266 . S
O133 Tb95 2.393 . S
O133 C147 1.248 . S
O134 Tb95 2.465 . S
O134 C159 1.264 . S
O135 Tb95 2.387 1_455 S
O135 C151 1.264 . S
O136 Tb84 2.349 1_454 S
O136 C151 1.243 . S
O137 Tb95 2.428 . S
O137 C159 1.256 . S
O138 Tb95 2.308 1_556 S
O138 C158 1.266 . S
O139 Tb84 2.393 . S
O139 C158 1.248 . S
C140 O129 1.264 1_554 S
C140 O130 1.243 . S
C141 C144 1.399 . S
C141 C146 1.383 1_556 S
C141 C148 1.496 1_455 S
C142 C143 1.399 1_554 S
C142 C146 1.389 . S
C143 C142 1.399 1_556 S
C143 C145 1.380 . S
C143 H160 0.929 . S
C144 C141 1.399 . S
C144 C145 1.392 . S
C144 H161 0.929 . S
C145 C143 1.380 . S
C145 C144 1.392 . S
C145 H162 0.929 . S
C146 C141 1.383 1_554 S
C146 C142 1.389 . S
C146 H163 0.931 . S
C147 O132 1.266 . S
C147 O133 1.248 . S
C148 Tb84 2.802 . S
C148 O128 1.264 1_556 S
C148 O131 1.256 . S
C148 C141 1.496 1_655 S
C149 C116 1.448 . S
C149 H126 0.930 . S
C149 C150 1.328 . S
C150 C121 1.427 . S
C150 H127 0.929 . S
C150 C149 1.328 . S
C151 O135 1.264 . S
C151 O136 1.243 . S
C152 C155 1.399 . S
C152 C156 1.361 1_554 S
C152 C159 1.496 . S
C153 C154 1.389 1_556 S
C153 C156 1.391 . S
C154 C153 1.389 1_554 S
C154 C157 1.380 . S
C154 H164 0.929 . S
C155 C152 1.399 . S
C155 C157 1.392 . S
C155 H165 0.929 . S
C156 C152 1.361 1_556 S
C156 C153 1.391 . S
C156 H166 0.949 . S
C157 C154 1.380 . S
C157 C155 1.392 . S
C157 H167 0.929 . S
C158 O138 1.266 . S
C158 O139 1.248 . S
C159 Tb95 2.802 . S
C159 O134 1.264 . S
C159 O137 1.256 . S
C159 C152 1.496 . S
H160 C143 0.929 . S
H161 C144 0.929 . S
H162 C145 0.929 . S
H163 C146 0.931 . S
H164 C154 0.929 . S
H165 C155 0.929 . S
H166 C156 0.949 . S
H167 C157 0.929 . S
Tb168 N197 2.617 1_455 S
Tb168 N203 2.572 1_455 S
Tb168 O212 2.465 . S
Tb168 O213 2.387 1_455 S
Tb168 O215 2.428 . S
Tb168 O216 2.308 . S
Tb168 O220 2.349 . S
Tb168 O223 2.393 . S
Tb168 C232 2.802 . S
C169 N170 1.379 . S
C169 C172 1.416 . S
C169 C176 1.424 . S
N170 C169 1.379 . S
N170 C173 1.334 . S
N170 Tb179 2.617 . S
C171 C173 1.390 . S
C171 C174 1.339 . S
C171 H191 0.930 . S
C172 C169 1.416 . S
C172 C174 1.416 . S
C172 C178 1.448 . S
C173 N170 1.334 . S
C173 C171 1.390 . S
C173 H184 0.930 . S
C174 C171 1.339 . S
C174 C172 1.416 . S
C174 H195 0.930 . S
C175 C176 1.413 . S
C175 C177 1.427 . S
C175 C181 1.416 . S
C176 C169 1.424 . S
C176 C175 1.413 . S
C176 N180 1.361 . S
C177 C175 1.427 . S
C177 C178 1.328 . S
C177 H192 0.929 . S
C178 C172 1.448 . S
C178 C177 1.328 . S
C178 H193 0.930 . S
Tb179 N170 2.617 . S
Tb179 N180 2.572 . S
Tb179 O214 2.349 1_455 S
Tb179 O217 2.393 . S
Tb179 O218 2.465 . S
Tb179 O219 2.387 . S
Tb179 O221 2.428 . S
Tb179 O222 2.308 . S
Tb179 C243 2.802 1_455 S
N180 C176 1.361 . S
N180 Tb179 2.572 . S
N180 C182 1.340 . S
C181 C175 1.416 . S
C181 C183 1.332 . S
C181 H189 0.931 . S
C182 N180 1.340 . S
C182 C183 1.407 . S
C182 H188 0.930 . S
C183 C181 1.332 . S
C183 C182 1.407 . S
C183 H185 0.929 . S
H184 C173 0.930 . S
H185 C183 0.929 . S
H186 C201 0.930 1_455 S
H187 C208 0.929 . S
H188 C182 0.930 . S
H189 C181 0.931 . S
H190 C204 0.930 . S
H191 C171 0.930 . S
H192 C177 0.929 . S
H193 C178 0.930 . S
H194 C199 0.930 . S
H195 C174 0.930 . S
H196 C207 0.931 . S
N197 Tb168 2.617 1_655 S
N197 C198 1.379 . S
N197 C201 1.334 . S
C198 N197 1.379 . S
C198 C200 1.416 . S
C198 C206 1.424 . S
C199 H194 0.930 . S
C199 C201 1.390 . S
C199 C202 1.339 . S
C200 C198 1.416 . S
C200 C202 1.416 . S
C200 C233 1.448 . S
C201 H186 0.930 1_655 S
C201 N197 1.334 . S
C201 C199 1.390 . S
C202 C199 1.339 . S
C202 C200 1.416 . S
C202 H209 0.930 . S
N203 Tb168 2.572 1_655 S
N203 C204 1.340 . S
N203 C206 1.361 . S
C204 H190 0.930 . S
C204 N203 1.340 . S
C204 C208 1.407 . S
C205 C206 1.413 . S
C205 C207 1.416 . S
C205 C234 1.427 . S
C206 C198 1.424 . S
C206 N203 1.361 . S
C206 C205 1.413 . S
C207 H196 0.931 . S
C207 C205 1.416 . S
C207 C208 1.332 . S
C208 H187 0.929 . S
C208 C204 1.407 . S
C208 C207 1.332 . S
H209 C202 0.930 . S
H210 C233 0.930 . S
H211 C234 0.929 . S
O212 Tb168 2.465 . S
O212 C232 1.264 . S
O213 Tb168 2.387 1_655 S
O213 C224 1.264 . S
O214 Tb179 2.349 1_655 S
O214 C224 1.243 . S
O215 Tb168 2.428 . S
O215 C232 1.256 . S
O216 Tb168 2.308 . S
O216 C231 1.266 . S
O217 Tb179 2.393 . S
O217 C231 1.248 . S
O218 Tb179 2.465 . S
O218 C243 1.264 1_455 S
O219 Tb179 2.387 . S
O219 C235 1.264 . S
O220 Tb168 2.349 . S
O220 C235 1.243 . S
O221 Tb179 2.428 . S
O221 C243 1.256 1_455 S
O222 Tb179 2.308 . S
O222 C242 1.266 . S
O223 Tb168 2.393 . S
O223 C242 1.248 . S
C224 O213 1.264 . S
C224 O214 1.243 . S
C225 C228 1.399 . S
C225 C230 1.383 . S
C225 C232 1.496 . S
C226 C227 1.399 . S
C226 C230 1.389 . S
C227 C226 1.399 . S
C227 C229 1.380 . S
C227 H244 0.929 . S
C228 C225 1.399 . S
C228 C229 1.392 . S
C228 H245 0.929 . S
C229 C227 1.380 . S
C229 C228 1.392 . S
C229 H246 0.929 . S
C230 C225 1.383 . S
C230 C226 1.389 . S
C230 H247 0.931 . S
C231 O216 1.266 . S
C231 O217 1.248 . S
C232 Tb168 2.802 . S
C232 O212 1.264 . S
C232 O215 1.256 . S
C232 C225 1.496 . S
C233 C200 1.448 . S
C233 H210 0.930 . S
C233 C234 1.328 . S
C234 C205 1.427 . S
C234 H211 0.929 . S
C234 C233 1.328 . S
C235 O219 1.264 . S
C235 O220 1.243 . S
C236 C239 1.399 . S
C236 C240 1.383 . S
C236 C243 1.496 . S
C237 C238 1.399 . S
C237 C240 1.389 . S
C238 C237 1.399 . S
C238 C241 1.380 . S
C238 H248 0.929 . S
C239 C236 1.399 . S
C239 C241 1.392 . S
C239 H249 0.929 . S
C240 C236 1.383 . S
C240 C237 1.389 . S
C240 H250 0.931 . S
C241 C238 1.380 . S
C241 C239 1.392 . S
C241 H251 0.929 . S
C242 O222 1.266 . S
C242 O223 1.248 . S
C243 Tb179 2.802 1_655 S
C243 O218 1.264 1_655 S
C243 O221 1.256 1_655 S
C243 C236 1.496 . S
H244 C227 0.929 . S
H245 C228 0.929 . S
H246 C229 0.929 . S
H247 C230 0.931 . S
H248 C238 0.929 . S
H249 C239 0.929 . S
H250 C240 0.931 . S
H251 C241 0.929 . S
Tb252 N281 2.617 . S
Tb252 N287 2.572 . S
Tb252 O296 2.465 . S
Tb252 O297 2.387 . S
Tb252 O299 2.428 . S
Tb252 O300 2.308 . S
Tb252 O304 2.349 1_655 S
Tb252 O307 2.393 . S
Tb252 C316 2.802 1_655 S
C253 N254 1.379 . S
C253 C256 1.416 . S
C253 C260 1.424 . S
N254 C253 1.379 . S
N254 C257 1.334 . S
N254 Tb263 2.617 1_455 S
C255 C257 1.390 . S
C255 C258 1.339 . S
C255 H275 0.930 . S
C256 C253 1.416 . S
C256 C258 1.416 . S
C256 C262 1.448 . S
C257 N254 1.334 . S
C257 C255 1.390 . S
C257 H268 0.930 1_455 S
C258 C255 1.339 . S
C258 C256 1.416 . S
C258 H279 0.930 . S
C259 C260 1.413 . S
C259 C261 1.427 . S
C259 C265 1.416 . S
C260 C253 1.424 . S
C260 C259 1.413 . S
C260 N264 1.361 . S
C261 C259 1.427 . S
C261 C262 1.328 . S
C261 H276 0.929 . S
C262 C256 1.448 . S
C262 C261 1.328 . S
C262 H277 0.930 . S
Tb263 N254 2.617 1_655 S
Tb263 N264 2.572 1_655 S
Tb263 O298 2.349 . S
Tb263 O301 2.393 . S
Tb263 O302 2.465 . S
Tb263 O303 2.387 1_655 S
Tb263 O305 2.428 . S
Tb263 O306 2.308 . S
Tb263 C327 2.802 . S
N264 C260 1.361 . S
N264 Tb263 2.572 1_455 S
N264 C266 1.340 . S
C265 C259 1.416 . S
C265 C267 1.332 . S
C265 H273 0.931 . S
C266 N264 1.340 . S
C266 C267 1.407 . S
C266 H272 0.930 . S
C267 C265 1.332 . S
C267 C266 1.407 . S
C267 H269 0.929 . S
H268 C257 0.930 1_655 S
H269 C267 0.929 . S
H270 C285 0.930 . S
H271 C292 0.929 . S
H272 C266 0.930 . S
H273 C265 0.931 . S
H274 C288 0.930 . S
H275 C255 0.930 . S
H276 C261 0.929 . S
H277 C262 0.930 . S
H278 C283 0.930 . S
H279 C258 0.930 . S
H280 C291 0.931 . S
N281 Tb252 2.617 . S
N281 C282 1.379 . S
N281 C285 1.334 . S
C282 N281 1.379 . S
C282 C284 1.416 . S
C282 C290 1.424 . S
C283 H278 0.930 . S
C283 C285 1.390 . S
C283 C286 1.339 . S
C284 C282 1.416 . S
C284 C286 1.416 . S
C284 C317 1.448 . S
C285 H270 0.930 . S
C285 N281 1.334 . S
C285 C283 1.390 . S
C286 C283 1.339 . S
C286 C284 1.416 . S
C286 H293 0.930 . S
N287 Tb252 2.572 . S
N287 C288 1.340 . S
N287 C290 1.361 . S
C288 H274 0.930 . S
C288 N287 1.340 . S
C288 C292 1.407 . S
C289 C290 1.413 . S
C289 C291 1.416 . S
C289 C318 1.427 . S
C290 C282 1.424 . S
C290 N287 1.361 . S
C290 C289 1.413 . S
C291 H280 0.931 . S
C291 C289 1.416 . S
C291 C292 1.332 . S
C292 H271 0.929 . S
C292 C288 1.407 . S
C292 C291 1.332 . S
H293 C286 0.930 . S
H294 C317 0.930 . S
H295 C318 0.929 . S
O296 Tb252 2.465 . S
O296 C316 1.264 1_655 S
O297 Tb252 2.387 . S
O297 C308 1.264 . S
O298 Tb263 2.349 . S
O298 C308 1.243 . S
O299 Tb252 2.428 . S
O299 C316 1.256 1_655 S
O300 Tb252 2.308 . S
O300 C315 1.266 . S
O301 Tb263 2.393 . S
O301 C315 1.248 . S
O302 Tb263 2.465 . S
O302 C327 1.264 . S
O303 Tb263 2.387 1_455 S
O303 C319 1.264 . S
O304 Tb252 2.349 1_455 S
O304 C319 1.243 . S
O305 Tb263 2.428 . S
O305 C327 1.256 . S
O306 Tb263 2.308 . S
O306 C326 1.266 . S
O307 Tb252 2.393 . S
O307 C326 1.248 . S
C308 O297 1.264 . S
C308 O298 1.243 . S
C309 C312 1.399 . S
C309 C314 1.383 . S
C309 C316 1.496 . S
C310 C311 1.399 . S
C310 C314 1.389 . S
C311 C310 1.399 . S
C311 C313 1.380 . S
C311 H328 0.929 . S
C312 C309 1.399 . S
C312 C313 1.392 . S
C312 H329 0.929 . S
C313 C311 1.380 . S
C313 C312 1.392 . S
C313 H330 0.929 . S
C314 C309 1.383 . S
C314 C310 1.389 . S
C314 H331 0.931 . S
C315 O300 1.266 . S
C315 O301 1.248 . S
C316 Tb252 2.802 1_455 S
C316 O296 1.264 1_455 S
C316 O299 1.256 1_455 S
C316 C309 1.496 . S
C317 C284 1.448 . S
C317 H294 0.930 . S
C317 C318 1.328 . S
C318 C289 1.427 . S
C318 H295 0.929 . S
C318 C317 1.328 . S
C319 O303 1.264 . S
C319 O304 1.243 . S
C320 C323 1.399 . S
C320 C324 1.383 . S
C320 C327 1.496 . S
C321 C322 1.399 . S
C321 C324 1.389 . S
C322 C321 1.399 . S
C322 C325 1.380 . S
C322 H332 0.929 . S
C323 C320 1.399 . S
C323 C325 1.392 . S
C323 H333 0.929 . S
C324 C320 1.383 . S
C324 C321 1.389 . S
C324 H334 0.931 . S
C325 C322 1.380 . S
C325 C323 1.392 . S
C325 H335 0.929 . S
C326 O306 1.266 . S
C326 O307 1.248 . S
C327 Tb263 2.802 . S
C327 O302 1.264 . S
C327 O305 1.256 . S
C327 C320 1.496 . S
H328 C311 0.929 . S
H329 C312 0.929 . S
H330 C313 0.929 . S
H331 C314 0.931 . S
H332 C322 0.929 . S
H333 C323 0.929 . S
H334 C324 0.931 . S
H335 C325 0.929 . S
Tb336 N365 2.617 1_554 S
Tb336 N371 2.572 . S
Tb336 O380 2.465 . S
Tb336 O381 2.387 . S
Tb336 O383 2.428 1_554 S
Tb336 O384 2.308 . S
Tb336 O388 2.349 . S
Tb336 O391 2.393 1_554 S
Tb336 C400 2.802 . S
C337 N338 1.379 . S
C337 C340 1.416 . S
C337 C344 1.424 . S
N338 C337 1.379 . S
N338 C341 1.334 . S
N338 Tb347 2.617 . S
C339 C341 1.390 . S
C339 C342 1.339 . S
C339 H359 0.930 . S
C340 C337 1.416 . S
C340 C342 1.416 . S
C340 C346 1.448 . S
C341 N338 1.334 . S
C341 C339 1.390 . S
C341 H352 0.930 . S
C342 C339 1.339 . S
C342 C340 1.416 . S
C342 H363 0.930 . S
C343 C344 1.413 1_556 S
C343 C345 1.427 1_556 S
C343 C349 1.416 . S
C344 C337 1.424 . S
C344 C343 1.413 1_554 S
C344 N348 1.361 1_554 S
C345 C343 1.427 1_554 S
C345 C346 1.328 . S
C345 H360 0.929 . S
C346 C340 1.448 . S
C346 C345 1.328 . S
C346 H361 0.930 . S
Tb347 N338 2.617 . S
Tb347 N348 2.572 1_554 S
Tb347 O382 2.349 . S
Tb347 O385 2.393 . S
Tb347 O386 2.465 1_554 S
Tb347 O387 2.387 . S
Tb347 O389 2.428 . S
Tb347 O390 2.308 1_554 S
Tb347 C411 2.802 . S
N348 C344 1.361 1_556 S
N348 Tb347 2.572 1_556 S
N348 C350 1.340 . S
C349 C343 1.416 . S
C349 C351 1.332 . S
C349 H357 0.931 . S
C350 N348 1.340 . S
C350 C351 1.407 . S
C350 H356 0.930 . S
C351 C349 1.332 . S
C351 C350 1.407 . S
C351 H353 0.929 . S
H352 C341 0.930 . S
H353 C351 0.929 . S
H354 C369 0.930 . S
H355 C376 0.929 . S
H356 C350 0.930 . S
H357 C349 0.931 . S
H358 C372 0.930 . S
H359 C339 0.930 . S
H360 C345 0.929 . S
H361 C346 0.930 . S
H362 C367 0.930 . S
H363 C342 0.930 . S
H364 C375 0.931 . S
N365 Tb336 2.617 1_556 S
N365 C366 1.379 . S
N365 C369 1.334 . S
C366 N365 1.379 . S
C366 C368 1.416 . S
C366 C374 1.424 1_556 S
C367 H362 0.930 . S
C367 C369 1.390 . S
C367 C370 1.339 . S
C368 C366 1.416 . S
C368 C370 1.416 . S
C368 C401 1.448 . S
C369 H354 0.930 . S
C369 N365 1.334 . S
C369 C367 1.390 . S
C370 C367 1.339 . S
C370 C368 1.416 . S
C370 H377 0.930 . S
N371 Tb336 2.572 . S
N371 C372 1.340 . S
N371 C374 1.361 . S
C372 H358 0.930 . S
C372 N371 1.340 . S
C372 C376 1.407 . S
C373 C374 1.413 . S
C373 C375 1.416 . S
C373 C402 1.427 . S
C374 C366 1.424 1_554 S
C374 N371 1.361 . S
C374 C373 1.413 . S
C375 H364 0.931 . S
C375 C373 1.416 . S
C375 C376 1.332 . S
C376 H355 0.929 . S
C376 C372 1.407 . S
C376 C375 1.332 . S
H377 C370 0.930 . S
H378 C401 0.930 . S
H379 C402 0.929 . S
O380 Tb336 2.465 . S
O380 C400 1.264 . S
O381 Tb336 2.387 . S
O381 C392 1.264 . S
O382 Tb347 2.349 . S
O382 C392 1.243 . S
O383 Tb336 2.428 1_556 S
O383 C400 1.256 1_556 S
O384 Tb336 2.308 . S
O384 C399 1.266 . S
O385 Tb347 2.393 . S
O385 C399 1.248 . S
O386 Tb347 2.465 1_556 S
O386 C411 1.264 1_556 S
O387 Tb347 2.387 . S
O387 C403 1.264 . S
O388 Tb336 2.349 . S
O388 C403 1.243 . S
O389 Tb347 2.428 . S
O389 C411 1.256 . S
O390 Tb347 2.308 1_556 S
O390 C410 1.266 . S
O391 Tb336 2.393 1_556 S
O391 C410 1.248 . S
C392 O381 1.264 . S
C392 O382 1.243 . S
C393 C396 1.399 1_554 S
C393 C398 1.383 . S
C393 C400 1.496 . S
C394 C395 1.399 . S
C394 C398 1.389 . S
C395 C394 1.399 . S
C395 C397 1.391 . S
C395 H412 0.929 . S
C396 C393 1.399 1_556 S
C396 C397 1.392 1_556 S
C396 H413 0.929 . S
C397 C395 1.391 . S
C397 C396 1.392 1_554 S
C397 H414 0.918 1_554 S
C398 C393 1.383 . S
C398 C394 1.389 . S
C398 H415 0.931 . S
C399 O384 1.266 . S
C399 O385 1.248 . S
C400 Tb336 2.802 . S
C400 O380 1.264 . S
C400 O383 1.256 1_554 S
C400 C393 1.496 . S
C401 C368 1.448 . S
C401 H378 0.930 . S
C401 C402 1.328 1_556 S
C402 C373 1.427 . S
C402 H379 0.929 . S
C402 C401 1.328 1_554 S
C403 O387 1.264 . S
C403 O388 1.243 . S
C404 C407 1.399 1_556 S
C404 C408 1.383 . S
C404 C411 1.496 1_556 S
C405 C406 1.399 . S
C405 C408 1.389 . S
C406 C405 1.399 . S
C406 C409 1.380 1_556 S
C406 H416 0.929 . S
C407 C404 1.399 1_554 S
C407 C409 1.392 . S
C407 H417 0.929 . S
C408 C404 1.383 . S
C408 C405 1.389 . S
C408 H418 0.931 . S
C409 C406 1.380 1_554 S
C409 C407 1.392 . S
C409 H419 0.929 . S
C410 O390 1.266 . S
C410 O391 1.248 . S
C411 Tb347 2.802 . S
C411 O386 1.264 1_554 S
C411 O389 1.256 . S
C411 C404 1.496 1_554 S
H412 C395 0.929 . S
H413 C396 0.929 . S
H414 C397 0.918 1_556 S
H415 C398 0.931 . S
H416 C406 0.929 . S
H417 C407 0.929 . S
H418 C408 0.931 . S
H419 C409 0.929 . S
Tb420 N449 2.617 . S
Tb420 N455 2.572 1_556 S
Tb420 O464 2.465 1_556 S
Tb420 O465 2.387 . S
Tb420 O467 2.428 . S
Tb420 O468 2.308 1_556 S
Tb420 O472 2.349 1_556 S
Tb420 O475 2.393 . S
Tb420 C484 2.802 . S
C421 N422 1.379 . S
C421 C424 1.416 . S
C421 C428 1.424 . S
N422 C421 1.379 . S
N422 C425 1.334 . S
N422 Tb431 2.617 . S
C423 C425 1.390 . S
C423 C426 1.339 . S
C423 H443 0.930 . S
C424 C421 1.416 . S
C424 C426 1.416 . S
C424 C430 1.448 . S
C425 N422 1.334 . S
C425 C423 1.390 . S
C425 H436 0.930 . S
C426 C423 1.339 . S
C426 C424 1.416 . S
C426 H447 0.930 . S
C427 C428 1.413 . S
C427 C429 1.427 . S
C427 C433 1.416 1_554 S
C428 C421 1.424 . S
C428 C427 1.413 . S
C428 N432 1.361 . S
C429 C427 1.427 . S
C429 C430 1.328 . S
C429 H444 0.929 . S
C430 C424 1.448 . S
C430 C429 1.328 . S
C430 H445 0.930 . S
Tb431 N422 2.617 . S
Tb431 N432 2.572 . S
Tb431 O466 2.349 . S
Tb431 O469 2.393 . S
Tb431 O470 2.465 . S
Tb431 O471 2.387 . S
Tb431 O473 2.428 . S
Tb431 O474 2.308 1_554 S
Tb431 C495 2.802 . S
N432 C428 1.361 . S
N432 Tb431 2.572 . S
N432 C434 1.340 1_554 S
C433 C427 1.416 1_556 S
C433 C435 1.332 . S
C433 H441 0.931 . S
C434 N432 1.340 1_556 S
C434 C435 1.407 . S
C434 H440 0.930 . S
C435 C433 1.332 . S
C435 C434 1.407 . S
C435 H437 0.929 . S
H436 C425 0.930 . S
H437 C435 0.929 . S
H438 C453 0.930 . S
H439 C460 0.929 . S
H440 C434 0.930 . S
H441 C433 0.931 . S
H442 C456 0.930 . S
H443 C423 0.930 . S
H444 C429 0.929 . S
H445 C430 0.930 . S
H446 C451 0.930 . S
H447 C426 0.930 . S
H448 C459 0.931 . S
N449 Tb420 2.617 . S
N449 C450 1.379 . S
N449 C453 1.334 . S
C450 N449 1.379 . S
C450 C452 1.416 . S
C450 C458 1.424 . S
C451 H446 0.930 . S
C451 C453 1.390 . S
C451 C454 1.339 . S
C452 C450 1.416 . S
C452 C454 1.416 . S
C452 C485 1.448 . S
C453 H438 0.930 . S
C453 N449 1.334 . S
C453 C451 1.390 . S
C454 C451 1.339 . S
C454 C452 1.416 . S
C454 H461 0.930 . S
N455 Tb420 2.572 1_554 S
N455 C456 1.340 . S
N455 C458 1.361 1_554 S
C456 H442 0.930 . S
C456 N455 1.340 . S
C456 C460 1.407 . S
C457 C458 1.413 . S
C457 C459 1.416 1_556 S
C457 C486 1.427 . S
C458 C450 1.424 . S
C458 N455 1.361 1_556 S
C458 C457 1.413 . S
C459 H448 0.931 . S
C459 C457 1.416 1_554 S
C459 C460 1.332 . S
C460 H439 0.929 . S
C460 C456 1.407 . S
C460 C459 1.332 . S
H461 C454 0.930 . S
H462 C485 0.930 . S
H463 C486 0.929 . S
O464 Tb420 2.465 1_554 S
O464 C484 1.264 1_554 S
O465 Tb420 2.387 . S
O465 C476 1.264 1_556 S
O466 Tb431 2.349 . S
O466 C476 1.243 . S
O467 Tb420 2.428 . S
O467 C484 1.256 . S
O468 Tb420 2.308 1_554 S
O468 C483 1.266 . S
O469 Tb431 2.393 . S
O469 C483 1.248 . S
O470 Tb431 2.465 . S
O470 C495 1.264 . S
O471 Tb431 2.387 . S
O471 C487 1.264 . S
O472 Tb420 2.349 1_554 S
O472 C487 1.243 . S
O473 Tb431 2.428 . S
O473 C495 1.256 . S
O474 Tb431 2.308 1_556 S
O474 C494 1.266 . S
O475 Tb420 2.393 . S
O475 C494 1.248 . S
C476 O465 1.264 1_554 S
C476 O466 1.243 . S
C477 C480 1.399 . S
C477 C482 1.383 1_556 S
C477 C484 1.496 . S
C478 C479 1.399 1_554 S
C478 C482 1.389 . S
C479 C478 1.399 1_556 S
C479 C481 1.380 . S
C479 H496 0.929 . S
C480 C477 1.399 . S
C480 C481 1.392 . S
C480 H497 0.929 . S
C481 C479 1.380 . S
C481 C480 1.392 . S
C481 H498 0.929 . S
C482 C477 1.383 1_554 S
C482 C478 1.389 . S
C482 H499 0.931 . S
C483 O468 1.266 . S
C483 O469 1.248 . S
C484 Tb420 2.802 . S
C484 O464 1.264 1_556 S
C484 O467 1.256 . S
C484 C477 1.496 . S
C485 C452 1.448 . S
C485 H462 0.930 . S
C485 C486 1.328 . S
C486 C457 1.427 . S
C486 H463 0.929 . S
C486 C485 1.328 . S
C487 O471 1.264 . S
C487 O472 1.243 . S
C488 C491 1.399 . S
C488 C492 1.363 1_554 S
C488 C495 1.496 . S
C489 C490 1.390 1_556 S
C489 C492 1.391 . S
C490 C489 1.390 1_554 S
C490 C493 1.380 . S
C490 H500 0.929 . S
C491 C488 1.399 . S
C491 C493 1.392 . S
C491 H501 0.929 . S
C492 C488 1.363 1_556 S
C492 C489 1.391 . S
C492 H502 0.948 . S
C493 C490 1.380 . S
C493 C491 1.392 . S
C493 H503 0.929 . S
C494 O474 1.266 . S
C494 O475 1.248 . S
C495 Tb431 2.802 . S
C495 O470 1.264 . S
C495 O473 1.256 . S
C495 C488 1.496 . S
H496 C479 0.929 . S
H497 C480 0.929 . S
H498 C481 0.929 . S
H499 C482 0.931 . S
H500 C490 0.929 . S
H501 C491 0.929 . S
H502 C492 0.948 . S
H503 C493 0.929 . S
Tb504 N533 2.617 . S
Tb504 N539 2.572 . S
Tb504 O548 2.465 . S
Tb504 O549 2.387 . S
Tb504 O551 2.428 . S
Tb504 O552 2.308 . S
Tb504 O556 2.349 . S
Tb504 O559 2.393 . S
Tb504 C568 2.802 . S
C505 N506 1.379 . S
C505 C508 1.416 . S
C505 C512 1.424 . S
N506 C505 1.379 . S
N506 C509 1.334 . S
N506 Tb515 2.617 . S
C507 C509 1.390 . S
C507 C510 1.339 . S
C507 H527 0.930 . S
C508 C505 1.416 . S
C508 C510 1.416 . S
C508 C514 1.448 . S
C509 N506 1.334 . S
C509 C507 1.390 . S
C509 H520 0.930 . S
C510 C507 1.339 . S
C510 C508 1.416 . S
C510 H531 0.930 . S
C511 C512 1.413 . S
C511 C513 1.427 . S
C511 C517 1.416 . S
C512 C505 1.424 . S
C512 C511 1.413 . S
C512 N516 1.361 . S
C513 C511 1.427 . S
C513 C514 1.328 . S
C513 H528 0.929 . S
C514 C508 1.448 . S
C514 C513 1.328 . S
C514 H529 0.930 . S
Tb515 N506 2.617 . S
Tb515 N516 2.572 . S
Tb515 O550 2.349 . S
Tb515 O553 2.393 . S
Tb515 O554 2.465 . S
Tb515 O555 2.387 . S
Tb515 O557 2.428 . S
Tb515 O558 2.308 . S
Tb515 C579 2.802 . S
N516 C512 1.361 . S
N516 Tb515 2.572 . S
N516 C518 1.340 . S
C517 C511 1.416 . S
C517 C519 1.332 . S
C517 H525 0.931 . S
C518 N516 1.340 . S
C518 C519 1.407 . S
C518 H524 0.930 . S
C519 C517 1.332 . S
C519 C518 1.407 . S
C519 H521 0.929 . S
H520 C509 0.930 . S
H521 C519 0.929 . S
H522 C537 0.930 . S
H523 C544 0.929 . S
H524 C518 0.930 . S
H525 C517 0.931 . S
H526 C540 0.930 . S
H527 C507 0.930 . S
H528 C513 0.929 . S
H529 C514 0.930 . S
H530 C535 0.930 . S
H531 C510 0.930 . S
H532 C543 0.931 . S
N533 Tb504 2.617 . S
N533 C534 1.379 . S
N533 C537 1.334 . S
C534 N533 1.379 . S
C534 C536 1.416 . S
C534 C542 1.424 . S
C535 H530 0.930 . S
C535 C537 1.390 . S
C535 C538 1.339 . S
C536 C534 1.416 . S
C536 C538 1.416 . S
C536 C569 1.448 . S
C537 H522 0.930 . S
C537 N533 1.334 . S
C537 C535 1.390 . S
C538 C535 1.339 . S
C538 C536 1.416 . S
C538 H545 0.930 . S
N539 Tb504 2.572 . S
N539 C540 1.340 . S
N539 C542 1.361 . S
C540 H526 0.930 . S
C540 N539 1.340 . S
C540 C544 1.407 . S
C541 C542 1.413 . S
C541 C543 1.416 . S
C541 C570 1.427 . S
C542 C534 1.424 . S
C542 N539 1.361 . S
C542 C541 1.413 . S
C543 H532 0.931 . S
C543 C541 1.416 . S
C543 C544 1.332 . S
C544 H523 0.929 . S
C544 C540 1.407 . S
C544 C543 1.332 . S
H545 C538 0.930 . S
H546 C569 0.930 . S
H547 C570 0.929 . S
O548 Tb504 2.465 . S
O548 C568 1.264 . S
O549 Tb504 2.387 . S
O549 C560 1.264 . S
O550 Tb515 2.349 . S
O550 C560 1.243 . S
O551 Tb504 2.428 . S
O551 C568 1.256 . S
O552 Tb504 2.308 . S
O552 C567 1.266 . S
O553 Tb515 2.393 . S
O553 C567 1.248 . S
O554 Tb515 2.465 . S
O554 C579 1.264 . S
O555 Tb515 2.387 . S
O555 C571 1.264 . S
O556 Tb504 2.349 . S
O556 C571 1.243 . S
O557 Tb515 2.428 . S
O557 C579 1.256 . S
O558 Tb515 2.308 . S
O558 C578 1.266 . S
O559 Tb504 2.393 . S
O559 C578 1.248 . S
C560 O549 1.264 . S
C560 O550 1.243 . S
C561 C564 1.399 . S
C561 C566 1.383 . S
C561 C568 1.496 . S
C562 C563 1.399 . S
C562 C566 1.389 . S
C563 C562 1.399 . S
C563 C565 1.380 . S
C563 H580 0.929 . S
C564 C561 1.399 . S
C564 C565 1.392 . S
C564 H581 0.929 . S
C565 C563 1.380 . S
C565 C564 1.392 . S
C565 H582 0.929 . S
C566 C561 1.383 . S
C566 C562 1.389 . S
C566 H583 0.931 . S
C567 O552 1.266 . S
C567 O553 1.248 . S
C568 Tb504 2.802 . S
C568 O548 1.264 . S
C568 O551 1.256 . S
C568 C561 1.496 . S
C569 C536 1.448 . S
C569 H546 0.930 . S
C569 C570 1.328 . S
C570 C541 1.427 . S
C570 H547 0.929 . S
C570 C569 1.328 . S
C571 O555 1.264 . S
C571 O556 1.243 . S
C572 C575 1.399 . S
C572 C576 1.383 . S
C572 C579 1.496 . S
C573 C574 1.399 . S
C573 C576 1.389 . S
C574 C573 1.399 . S
C574 C577 1.380 . S
C574 H584 0.929 . S
C575 C572 1.399 . S
C575 C577 1.392 . S
C575 H585 0.929 . S
C576 C572 1.383 . S
C576 C573 1.389 . S
C576 H586 0.931 . S
C577 C574 1.380 . S
C577 C575 1.392 . S
C577 H587 0.929 . S
C578 O558 1.266 . S
C578 O559 1.248 . S
C579 Tb515 2.802 . S
C579 O554 1.264 . S
C579 O557 1.256 . S
C579 C572 1.496 . S
H580 C563 0.929 . S
H581 C564 0.929 . S
H582 C565 0.929 . S
H583 C566 0.931 . S
H584 C574 0.929 . S
H585 C575 0.929 . S
H586 C576 0.931 . S
H587 C577 0.929 . S
Tb588 N617 2.617 . S
Tb588 N623 2.572 . S
Tb588 O632 2.465 . S
Tb588 O633 2.387 . S
Tb588 O635 2.428 . S
Tb588 O636 2.308 . S
Tb588 O640 2.349 . S
Tb588 O643 2.393 . S
Tb588 C652 2.802 . S
C589 N590 1.379 . S
C589 C592 1.416 . S
C589 C596 1.424 . S
N590 C589 1.379 . S
N590 C593 1.334 . S
N590 Tb599 2.617 . S
C591 C593 1.390 . S
C591 C594 1.339 . S
C591 H611 0.930 . S
C592 C589 1.416 . S
C592 C594 1.416 . S
C592 C598 1.448 . S
C593 N590 1.334 . S
C593 C591 1.390 . S
C593 H604 0.930 . S
C594 C591 1.339 . S
C594 C592 1.416 . S
C594 H615 0.930 . S
C595 C596 1.413 . S
C595 C597 1.427 . S
C595 C601 1.416 . S
C596 C589 1.424 . S
C596 C595 1.413 . S
C596 N600 1.361 . S
C597 C595 1.427 . S
C597 C598 1.328 . S
C597 H612 0.929 . S
C598 C592 1.448 . S
C598 C597 1.328 . S
C598 H613 0.930 . S
Tb599 N590 2.617 . S
Tb599 N600 2.572 . S
Tb599 O634 2.349 . S
Tb599 O637 2.393 . S
Tb599 O638 2.465 . S
Tb599 O639 2.387 . S
Tb599 O641 2.428 . S
Tb599 O642 2.308 . S
Tb599 C663 2.802 . S
N600 C596 1.361 . S
N600 Tb599 2.572 . S
N600 C602 1.340 . S
C601 C595 1.416 . S
C601 C603 1.332 . S
C601 H609 0.931 . S
C602 N600 1.340 . S
C602 C603 1.407 . S
C602 H608 0.930 . S
C603 C601 1.332 . S
C603 C602 1.407 . S
C603 H605 0.929 . S
H604 C593 0.930 . S
H605 C603 0.929 . S
H606 C621 0.930 . S
H607 C628 0.929 . S
H608 C602 0.930 . S
H609 C601 0.931 . S
H610 C624 0.930 . S
H611 C591 0.930 . S
H612 C597 0.929 . S
H613 C598 0.930 . S
H614 C619 0.930 . S
H615 C594 0.930 . S
H616 C627 0.931 . S
N617 Tb588 2.617 . S
N617 C618 1.379 . S
N617 C621 1.334 . S
C618 N617 1.379 . S
C618 C620 1.416 . S
C618 C626 1.424 . S
C619 H614 0.930 . S
C619 C621 1.390 . S
C619 C622 1.339 . S
C620 C618 1.416 . S
C620 C622 1.416 . S
C620 C653 1.448 . S
C621 H606 0.930 . S
C621 N617 1.334 . S
C621 C619 1.390 . S
C622 C619 1.339 . S
C622 C620 1.416 . S
C622 H629 0.930 . S
N623 Tb588 2.572 . S
N623 C624 1.340 . S
N623 C626 1.361 . S
C624 H610 0.930 . S
C624 N623 1.340 . S
C624 C628 1.407 . S
C625 C626 1.413 . S
C625 C627 1.416 . S
C625 C654 1.427 . S
C626 C618 1.424 . S
C626 N623 1.361 . S
C626 C625 1.413 . S
C627 H616 0.931 . S
C627 C625 1.416 . S
C627 C628 1.332 . S
C628 H607 0.929 . S
C628 C624 1.407 . S
C628 C627 1.332 . S
H629 C622 0.930 . S
H630 C653 0.930 . S
H631 C654 0.929 . S
O632 Tb588 2.465 . S
O632 C652 1.264 . S
O633 Tb588 2.387 . S
O633 C644 1.264 . S
O634 Tb599 2.349 . S
O634 C644 1.243 . S
O635 Tb588 2.428 . S
O635 C652 1.256 . S
O636 Tb588 2.308 . S
O636 C651 1.266 . S
O637 Tb599 2.393 . S
O637 C651 1.248 . S
O638 Tb599 2.465 . S
O638 C663 1.264 . S
O639 Tb599 2.387 . S
O639 C655 1.264 . S
O640 Tb588 2.349 . S
O640 C655 1.243 . S
O641 Tb599 2.428 . S
O641 C663 1.256 . S
O642 Tb599 2.308 . S
O642 C662 1.266 . S
O643 Tb588 2.393 . S
O643 C662 1.248 . S
C644 O633 1.264 . S
C644 O634 1.243 . S
C645 C648 1.399 . S
C645 C650 1.383 . S
C645 C652 1.496 . S
C646 C647 1.399 . S
C646 C650 1.389 . S
C647 C646 1.399 . S
C647 C649 1.380 . S
C647 H664 0.929 . S
C648 C645 1.399 . S
C648 C649 1.392 . S
C648 H665 0.929 . S
C649 C647 1.380 . S
C649 C648 1.392 . S
C649 H666 0.929 . S
C650 C645 1.383 . S
C650 C646 1.389 . S
C650 H667 0.931 . S
C651 O636 1.266 . S
C651 O637 1.248 . S
C652 Tb588 2.802 . S
C652 O632 1.264 . S
C652 O635 1.256 . S
C652 C645 1.496 . S
C653 C620 1.448 . S
C653 H630 0.930 . S
C653 C654 1.328 . S
C654 C625 1.427 . S
C654 H631 0.929 . S
C654 C653 1.328 . S
C655 O639 1.264 . S
C655 O640 1.243 . S
C656 C659 1.399 . S
C656 C660 1.383 . S
C656 C663 1.496 . S
C657 C658 1.399 . S
C657 C660 1.389 . S
C658 C657 1.399 . S
C658 C661 1.380 . S
C658 H668 0.929 . S
C659 C656 1.399 . S
C659 C661 1.392 . S
C659 H669 0.929 . S
C660 C656 1.383 . S
C660 C657 1.389 . S
C660 H670 0.931 . S
C661 C658 1.380 . S
C661 C659 1.392 . S
C661 H671 0.929 . S
C662 O642 1.266 . S
C662 O643 1.248 . S
C663 Tb599 2.802 . S
C663 O638 1.264 . S
C663 O641 1.256 . S
C663 C656 1.496 . S
H664 C647 0.929 . S
H665 C648 0.929 . S
H666 C649 0.929 . S
H667 C650 0.931 . S
H668 C658 0.929 . S
H669 C659 0.929 . S
H670 C660 0.931 . S
H671 C661 0.929 . S
H672 C678 0.930 . S
H673 C682 0.930 . S
H674 C687 0.929 . S
H675 C685 0.929 . S
H676 C680 0.929 . S
H677 C686 0.929 . S
C678 H672 0.930 . S
C678 C679 1.367 . S
C678 C686 1.378 . S
C679 C678 1.367 . S
C679 C687 1.433 1_554 S
C680 H676 0.929 . S
C680 C682 1.378 . S
C680 C684 1.350 1_556 S
C681 C684 1.463 . S
C681 C686 1.350 . S
C681 N689 1.427 1_554 S
C682 H673 0.930 . S
C682 C680 1.378 . S
C682 C683 1.367 1_556 S
C683 C682 1.367 1_554 S
C683 C685 1.433 . S
C684 C680 1.350 1_554 S
C684 C681 1.463 . S
C684 N688 1.427 . S
C685 H675 0.929 . S
C685 C683 1.433 . S
C685 N688 1.384 . S
C686 H677 0.929 . S
C686 C678 1.378 . S
C686 C681 1.350 . S
C687 H674 0.929 . S
C687 C679 1.433 1_556 S
C687 N689 1.384 . S
N688 C684 1.427 . S
N688 C685 1.384 . S
N689 C681 1.427 1_556 S
N689 C687 1.384 . S
H690 C696 0.930 . S
H691 C700 0.930 . S
H692 C705 0.929 . S
H693 C703 0.929 . S
H694 C698 0.929 . S
H695 C704 0.929 . S
C696 H690 0.930 . S
C696 C697 1.367 . S
C696 C704 1.378 . S
C697 C696 1.367 . S
C697 C705 1.433 1_554 S
C698 H694 0.929 . S
C698 C700 1.378 . S
C698 C702 1.350 1_556 S
C699 C702 1.463 . S
C699 C704 1.350 . S
C699 N707 1.427 1_554 S
C700 H691 0.930 . S
C700 C698 1.378 . S
C700 C701 1.367 1_556 S
C701 C700 1.367 1_554 S
C701 C703 1.433 . S
C702 C698 1.350 1_554 S
C702 C699 1.463 . S
C702 N706 1.427 . S
C703 H693 0.929 . S
C703 C701 1.433 . S
C703 N706 1.384 . S
C704 H695 0.929 . S
C704 C696 1.378 . S
C704 C699 1.350 . S
C705 H692 0.929 . S
C705 C697 1.433 1_556 S
C705 N707 1.384 . S
N706 C702 1.427 . S
N706 C703 1.384 . S
N707 C699 1.427 1_556 S
N707 C705 1.384 . S
H708 C714 0.930 . S
H709 C718 0.930 . S
H710 C723 0.929 . S
H711 C721 0.929 . S
H712 C716 0.929 . S
H713 C722 0.929 . S
C714 H708 0.930 . S
C714 C715 1.367 . S
C714 C722 1.378 . S
C715 C714 1.367 . S
C715 C723 1.433 . S
C716 H712 0.929 . S
C716 C718 1.378 . S
C716 C720 1.350 . S
C717 C720 1.463 . S
C717 C722 1.350 . S
C717 N725 1.427 . S
C718 H709 0.930 . S
C718 C716 1.378 . S
C718 C719 1.367 . S
C719 C718 1.367 . S
C719 C721 1.433 . S
C720 C716 1.350 . S
C720 C717 1.463 . S
C720 N724 1.427 . S
C721 H711 0.929 . S
C721 C719 1.433 . S
C721 N724 1.384 . S
C722 H713 0.929 . S
C722 C714 1.378 . S
C722 C717 1.350 . S
C723 H710 0.929 . S
C723 C715 1.433 . S
C723 N725 1.384 . S
N724 C720 1.427 . S
N724 C721 1.384 . S
N725 C717 1.427 . S
N725 C723 1.384 . S
H726 C732 0.930 . S
H727 C736 0.930 . S
H728 C741 0.929 . S
H729 C739 0.929 . S
H730 C734 0.929 . S
H731 C740 0.929 . S
C732 H726 0.930 . S
C732 C733 1.367 . S
C732 C740 1.378 . S
C733 C732 1.367 . S
C733 C741 1.433 . S
C734 H730 0.929 . S
C734 C736 1.378 . S
C734 C738 1.350 . S
C735 C738 1.463 . S
C735 C740 1.350 . S
C735 N743 1.427 . S
C736 H727 0.930 . S
C736 C734 1.378 . S
C736 C737 1.367 . S
C737 C736 1.367 . S
C737 C739 1.433 . S
C738 C734 1.350 . S
C738 C735 1.463 . S
C738 N742 1.427 . S
C739 H729 0.929 . S
C739 C737 1.433 . S
C739 N742 1.384 . S
C740 H731 0.929 . S
C740 C732 1.378 . S
C740 C735 1.350 . S
C741 H728 0.929 . S
C741 C733 1.433 . S
C741 N743 1.384 . S
N742 C738 1.427 . S
N742 C739 1.384 . S
N743 C735 1.427 . S
N743 C741 1.384 . S
H744 C750 0.930 . S
H745 C754 0.930 . S
H746 C759 0.929 . S
H747 C757 0.929 . S
H748 C752 0.929 . S
H749 C758 0.929 . S
C750 H744 0.930 . S
C750 C751 1.367 1_556 S
C750 C758 1.378 . S
C751 C750 1.367 1_554 S
C751 C759 1.433 . S
C752 H748 0.929 . S
C752 C754 1.378 . S
C752 C756 1.350 . S
C753 C756 1.463 . S
C753 C758 1.350 1_454 S
C753 N761 1.427 1_455 S
C754 H745 0.930 . S
C754 C752 1.378 . S
C754 C755 1.367 . S
C755 C754 1.367 . S
C755 C757 1.433 1_554 S
C756 C752 1.350 . S
C756 C753 1.463 . S
C756 N760 1.427 1_554 S
C757 H747 0.929 . S
C757 C755 1.433 1_556 S
C757 N760 1.384 . S
C758 H749 0.929 . S
C758 C750 1.378 . S
C758 C753 1.350 1_656 S
C759 H746 0.929 . S
C759 C751 1.433 . S
C759 N761 1.384 . S
N760 C756 1.427 1_556 S
N760 C757 1.384 . S
N761 C753 1.427 1_655 S
N761 C759 1.384 . S
H762 C768 0.930 . S
H763 C772 0.930 . S
H764 C777 0.929 . S
H765 C775 0.929 . S
H766 C770 0.929 . S
H767 C776 0.929 . S
C768 H762 0.930 . S
C768 C769 1.367 . S
C768 C776 1.378 . S
C769 C768 1.367 . S
C769 C777 1.433 1_554 S
C770 H766 0.929 . S
C770 C772 1.378 . S
C770 C774 1.350 1_556 S
C771 C774 1.463 . S
C771 C776 1.350 1_655 S
C771 N779 1.427 1_654 S
C772 H763 0.930 . S
C772 C770 1.378 . S
C772 C773 1.367 1_556 S
C773 C772 1.367 1_554 S
C773 C775 1.433 . S
C774 C770 1.350 1_554 S
C774 C771 1.463 . S
C774 N778 1.427 . S
C775 H765 0.929 . S
C775 C773 1.433 . S
C775 N778 1.384 . S
C776 H767 0.929 . S
C776 C768 1.378 . S
C776 C771 1.350 1_455 S
C777 H764 0.929 . S
C777 C769 1.433 1_556 S
C777 N779 1.384 . S
N778 C774 1.427 . S
N778 C775 1.384 . S
N779 C771 1.427 1_456 S
N779 C777 1.384 . S
H780 C786 0.930 . S
H781 C790 0.930 . S
H782 C795 0.929 . S
H783 C793 0.929 . S
H784 C788 0.929 1_455 S
H785 C794 0.929 . S
C786 H780 0.930 . S
C786 C787 1.367 . S
C786 C794 1.378 . S
C787 C786 1.367 . S
C787 C795 1.433 . S
C788 H784 0.929 1_655 S
C788 C790 1.378 . S
C788 C792 1.350 1_655 S
C789 C792 1.463 . S
C789 C794 1.350 . S
C789 N797 1.427 . S
C790 H781 0.930 . S
C790 C788 1.378 . S
C790 C791 1.367 . S
C791 C790 1.367 . S
C791 C793 1.433 . S
C792 C788 1.350 1_455 S
C792 C789 1.463 . S
C792 N796 1.427 1_455 S
C793 H783 0.929 . S
C793 C791 1.433 . S
C793 N796 1.384 . S
C794 H785 0.929 . S
C794 C786 1.378 . S
C794 C789 1.350 . S
C795 H782 0.929 . S
C795 C787 1.433 . S
C795 N797 1.384 . S
N796 C792 1.427 1_655 S
N796 C793 1.384 . S
N797 C789 1.427 . S
N797 C795 1.384 . S
H798 C804 0.930 . S
H799 C808 0.930 . S
H800 C813 0.929 . S
H801 C811 0.929 . S
H802 C806 0.929 . S
H803 C812 0.929 . S
C804 H798 0.930 . S
C804 C805 1.367 . S
C804 C812 1.378 . S
C805 C804 1.367 . S
C805 C813 1.433 . S
C806 H802 0.929 . S
C806 C808 1.378 . S
C806 C810 1.350 1_455 S
C807 C810 1.463 . S
C807 C812 1.350 . S
C807 N815 1.427 . S
C808 H799 0.930 . S
C808 C806 1.378 . S
C808 C809 1.367 . S
C809 C808 1.367 . S
C809 C811 1.433 . S
C810 C806 1.350 1_655 S
C810 C807 1.463 . S
C810 N814 1.427 1_655 S
C811 H801 0.929 . S
C811 C809 1.433 . S
C811 N814 1.384 . S
C812 H803 0.929 . S
C812 C804 1.378 . S
C812 C807 1.350 . S
C813 H800 0.929 . S
C813 C805 1.433 . S
C813 N815 1.384 . S
N814 C810 1.427 1_455 S
N814 C811 1.384 . S
N815 C807 1.427 . S
N815 C813 1.384 . S
H816 C822 0.930 . S
H817 C826 0.930 . S
H818 C831 0.925 1_556 S
H819 C829 0.929 . S
H820 C824 0.929 1_455 S
H821 C830 0.929 1_655 S
C822 H816 0.930 . S
C822 C823 1.367 . S
C822 C830 1.378 . S
C823 C822 1.367 . S
C823 C831 1.433 . S
C824 H820 0.929 1_655 S
C824 C826 1.378 . S
C824 C828 1.350 . S
C825 C828 1.463 1_455 S
C825 C830 1.350 . S
C825 N833 1.427 . S
C826 H817 0.930 . S
C826 C824 1.378 . S
C826 C827 1.367 . S
C827 C826 1.367 . S
C827 C829 1.433 . S
C828 C824 1.350 . S
C828 C825 1.463 1_655 S
C828 N832 1.427 . S
C829 H819 0.929 . S
C829 C827 1.433 . S
C829 N832 1.384 . S
C830 H821 0.929 1_455 S
C830 C822 1.378 . S
C830 C825 1.350 . S
C831 H818 0.925 1_554 S
C831 C823 1.433 . S
C831 N833 1.384 . S
N832 C828 1.427 . S
N832 C829 1.384 . S
N833 C825 1.427 . S
N833 C831 1.384 . S
H834 C840 0.930 . S
H835 C844 0.930 . S
H836 C849 0.929 . S
H837 C847 0.929 . S
H838 C842 0.929 . S
H839 C848 0.929 . S
C840 H834 0.930 . S
C840 C841 1.367 . S
C840 C848 1.378 . S
C841 C840 1.367 . S
C841 C849 1.433 . S
C842 H838 0.929 . S
C842 C844 1.378 . S
C842 C846 1.350 . S
C843 C846 1.463 1_455 S
C843 C848 1.350 . S
C843 N851 1.427 1_455 S
C844 H835 0.930 . S
C844 C842 1.378 . S
C844 C845 1.367 . S
C845 C844 1.367 . S
C845 C847 1.433 . S
C846 C842 1.350 . S
C846 C843 1.463 1_655 S
C846 N850 1.427 1_655 S
C847 H837 0.929 . S
C847 C845 1.433 . S
C847 N850 1.384 1_655 S
C848 H839 0.929 . S
C848 C840 1.378 . S
C848 C843 1.350 . S
C849 H836 0.929 . S
C849 C841 1.433 . S
C849 N851 1.384 1_455 S
N850 C846 1.427 1_455 S
N850 C847 1.384 1_455 S
N851 C843 1.427 1_655 S
N851 C849 1.384 1_655 S
H852 C858 0.930 . S
H853 C862 0.930 . S
H854 C867 0.929 . S
H855 C865 0.929 . S
H856 C860 0.929 . S
H857 C866 0.929 1_545 S
C858 H852 0.930 . S
C858 C859 1.367 . S
C858 C866 1.378 . S
C859 C858 1.367 . S
C859 C867 1.433 . S
C860 H856 0.929 . S
C860 C862 1.378 . S
C860 C864 1.350 . S
C861 C864 1.463 1_565 S
C861 C866 1.350 . S
C861 N869 1.427 . S
C862 H853 0.930 . S
C862 C860 1.378 . S
C862 C863 1.367 . S
C863 C862 1.367 . S
C863 C865 1.433 . S
C864 C860 1.350 . S
C864 C861 1.463 1_545 S
C864 N868 1.427 . S
C865 H855 0.929 . S
C865 C863 1.433 . S
C865 N868 1.384 . S
C866 H857 0.929 1_565 S
C866 C858 1.378 . S
C866 C861 1.350 . S
C867 H854 0.929 . S
C867 C859 1.433 . S
C867 N869 1.384 . S
N868 C864 1.427 . S
N868 C865 1.384 . S
N869 C861 1.427 . S
N869 C867 1.384 . S
H870 C876 0.930 . S
H871 C880 0.930 . S
H872 C885 0.929 . S
H873 C883 0.929 . S
H874 C878 0.929 . S
H875 C884 0.929 . S
C876 H870 0.930 . S
C876 C877 1.367 . S
C876 C884 1.378 . S
C877 C876 1.367 . S
C877 C885 1.433 . S
C878 H874 0.929 . S
C878 C880 1.378 . S
C878 C882 1.350 . S
C879 C882 1.463 1_545 S
C879 C884 1.350 . S
C879 N887 1.427 . S
C880 H871 0.930 . S
C880 C878 1.378 . S
C880 C881 1.367 . S
C881 C880 1.367 . S
C881 C883 1.433 . S
C882 C878 1.350 . S
C882 C879 1.463 1_565 S
C882 N886 1.427 . S
C883 H873 0.929 . S
C883 C881 1.433 . S
C883 N886 1.384 . S
C884 H875 0.929 . S
C884 C876 1.378 . S
C884 C879 1.350 . S
C885 H872 0.929 . S
C885 C877 1.433 . S
C885 N887 1.384 . S
N886 C882 1.427 . S
N886 C883 1.384 . S
N887 C879 1.427 . S
N887 C885 1.384 . S
H888 C894 0.930 . S
H889 C898 0.930 . S
H890 C903 0.929 . S
H891 C901 0.929 . S
H892 C896 0.929 1_554 S
H893 C902 0.929 . S
C894 H888 0.930 . S
C894 C895 1.367 . S
C894 C902 1.378 . S
C895 C894 1.367 . S
C895 C903 1.433 . S
C896 H892 0.929 1_556 S
C896 C898 1.378 1_556 S
C896 C900 1.350 . S
C897 C900 1.463 . S
C897 C902 1.350 . S
C897 N905 1.427 . S
C898 H889 0.930 . S
C898 C896 1.378 1_554 S
C898 C899 1.367 1_554 S
C899 C898 1.367 1_556 S
C899 C901 1.433 . S
C900 C896 1.350 . S
C900 C897 1.463 . S
C900 N904 1.427 . S
C901 H891 0.929 . S
C901 C899 1.433 . S
C901 N904 1.384 . S
C902 H893 0.929 . S
C902 C894 1.378 . S
C902 C897 1.350 . S
C903 H890 0.929 . S
C903 C895 1.433 . S
C903 N905 1.384 . S
N904 C900 1.427 . S
N904 C901 1.384 . S
N905 C897 1.427 . S
N905 C903 1.384 . S
H906 C912 0.930 . S
H907 C916 0.930 1_554 S
H908 C921 0.929 . S
H909 C919 0.929 . S
H910 C914 0.929 1_554 S
H911 C920 0.929 . S
C912 H906 0.930 . S
C912 C913 1.367 . S
C912 C920 1.378 . S
C913 C912 1.367 . S
C913 C921 1.433 . S
C914 H910 0.929 1_556 S
C914 C916 1.378 . S
C914 C918 1.350 . S
C915 C918 1.463 . S
C915 C920 1.350 . S
C915 N923 1.427 . S
C916 H907 0.930 1_556 S
C916 C914 1.378 . S
C916 C917 1.367 . S
C917 C916 1.367 . S
C917 C919 1.433 . S
C918 C914 1.350 . S
C918 C915 1.463 . S
C918 N922 1.427 . S
C919 H909 0.929 . S
C919 C917 1.433 . S
C919 N922 1.384 . S
C920 H911 0.929 . S
C920 C912 1.378 . S
C920 C915 1.350 . S
C921 H908 0.929 . S
C921 C913 1.433 . S
C921 N923 1.384 . S
N922 C918 1.427 . S
N922 C919 1.384 . S
N923 C915 1.427 . S
N923 C921 1.384 . S
H924 C930 0.930 . S
H925 C934 0.930 . S
H926 C939 0.929 . S
H927 C937 0.929 . S
H928 C932 0.929 . S
H929 C938 0.929 . S
C930 H924 0.930 . S
C930 C931 1.367 . S
C930 C938 1.378 . S
C931 C930 1.367 . S
C931 C939 1.433 . S
C932 H928 0.929 . S
C932 C934 1.378 . S
C932 C936 1.350 . S
C933 C936 1.463 . S
C933 C938 1.350 . S
C933 N941 1.427 . S
C934 H925 0.930 . S
C934 C932 1.378 . S
C934 C935 1.367 . S
C935 C934 1.367 . S
C935 C937 1.433 . S
C936 C932 1.350 . S
C936 C933 1.463 . S
C936 N940 1.427 . S
C937 H927 0.929 . S
C937 C935 1.433 . S
C937 N940 1.384 . S
C938 H929 0.929 . S
C938 C930 1.378 . S
C938 C933 1.350 . S
C939 H926 0.929 . S
C939 C931 1.433 . S
C939 N941 1.384 . S
N940 C936 1.427 . S
N940 C937 1.384 . S
N941 C933 1.427 . S
N941 C939 1.384 . S
H942 C948 0.930 . S
H943 C952 0.930 . S
H944 C957 0.929 . S
H945 C955 0.929 . S
H946 C950 0.929 . S
H947 C956 0.929 . S
C948 H942 0.930 . S
C948 C949 1.367 . S
C948 C956 1.378 . S
C949 C948 1.367 . S
C949 C957 1.433 . S
C950 H946 0.929 . S
C950 C952 1.378 . S
C950 C954 1.350 . S
C951 C954 1.463 . S
C951 C956 1.350 . S
C951 N959 1.427 . S
C952 H943 0.930 . S
C952 C950 1.378 . S
C952 C953 1.367 . S
C953 C952 1.367 . S
C953 C955 1.433 . S
C954 C950 1.350 . S
C954 C951 1.463 . S
C954 N958 1.427 . S
C955 H945 0.929 . S
C955 C953 1.433 . S
C955 N958 1.384 . S
C956 H947 0.929 . S
C956 C948 1.378 . S
C956 C951 1.350 . S
C957 H944 0.929 . S
C957 C949 1.433 . S
C957 N959 1.384 . S
N958 C954 1.427 . S
N958 C955 1.384 . S
N959 C951 1.427 . S
N959 C957 1.384 . S
H960 C966 0.930 . S
H961 C970 0.930 . S
H962 C975 0.929 . S
H963 C973 0.929 . S
H964 C968 0.929 . S
H965 C974 0.929 . S
C966 H960 0.930 . S
C966 C967 1.367 . S
C966 C974 1.378 . S
C967 C966 1.367 . S
C967 C975 1.433 . S
C968 H964 0.929 . S
C968 C970 1.378 . S
C968 C972 1.350 . S
C969 C972 1.463 1_455 S
C969 C974 1.350 . S
C969 N977 1.427 . S
C970 H961 0.930 . S
C970 C968 1.378 . S
C970 C971 1.367 . S
C971 C970 1.367 . S
C971 C973 1.433 . S
C972 C968 1.350 . S
C972 C969 1.463 1_655 S
C972 N976 1.427 . S
C973 H963 0.929 . S
C973 C971 1.433 . S
C973 N976 1.384 . S
C974 H965 0.929 . S
C974 C966 1.378 . S
C974 C969 1.350 . S
C975 H962 0.929 . S
C975 C967 1.433 . S
C975 N977 1.384 . S
N976 C972 1.427 . S
N976 C973 1.384 . S
N977 C969 1.427 . S
N977 C975 1.384 . S
H978 C984 0.930 . S
H979 C988 0.930 . S
H980 C993 0.929 . S
H981 C991 0.929 . S
H982 C986 0.929 . S
H983 C992 0.929 . S
C984 H978 0.930 . S
C984 C985 1.367 . S
C984 C992 1.378 . S
C985 C984 1.367 . S
C985 C993 1.433 1_655 S
C986 H982 0.929 . S
C986 C988 1.378 . S
C986 C990 1.350 . S
C987 C990 1.463 1_655 S
C987 C992 1.350 . S
C987 N995 1.427 1_655 S
C988 H979 0.930 . S
C988 C986 1.378 . S
C988 C989 1.367 . S
C989 C988 1.367 . S
C989 C991 1.433 1_455 S
C990 C986 1.350 . S
C990 C987 1.463 1_455 S
C990 N994 1.427 1_455 S
C991 H981 0.929 . S
C991 C989 1.433 1_655 S
C991 N994 1.384 . S
C992 H983 0.929 . S
C992 C984 1.378 . S
C992 C987 1.350 . S
C993 H980 0.929 . S
C993 C985 1.433 1_455 S
C993 N995 1.384 . S
N994 C990 1.427 1_655 S
N994 C991 1.384 . S
N995 C987 1.427 1_455 S
N995 C993 1.384 . S
H996 C1002 0.930 . S
H997 C1006 0.930 . S
H998 C1011 0.929 . S
H999 C1009 0.929 . S
H1000 C1004 0.929 . S
H1001 C1010 0.929 . S
C1002 H996 0.930 . S
C1002 C1003 1.367 . S
C1002 C1010 1.378 . S
C1003 C1002 1.367 . S
C1003 C1011 1.433 1_655 S
C1004 H1000 0.929 . S
C1004 C1006 1.378 . S
C1004 C1008 1.350 . S
C1005 C1008 1.463 1_655 S
C1005 C1010 1.350 . S
C1005 N1013 1.427 1_655 S
C1006 H997 0.930 . S
C1006 C1004 1.378 . S
C1006 C1007 1.367 . S
C1007 C1006 1.367 . S
C1007 C1009 1.433 1_455 S
C1008 C1004 1.350 . S
C1008 C1005 1.463 1_455 S
C1008 N1012 1.427 1_455 S
C1009 H999 0.929 . S
C1009 C1007 1.433 1_655 S
C1009 N1012 1.384 . S
C1010 H1001 0.929 . S
C1010 C1002 1.378 . S
C1010 C1005 1.350 . S
C1011 H998 0.929 . S
C1011 C1003 1.433 1_455 S
C1011 N1013 1.384 . S
N1012 C1008 1.427 1_655 S
N1012 C1009 1.384 . S
N1013 C1005 1.427 1_455 S
N1013 C1011 1.384 . S
H1014 C1020 0.930 . S
H1015 C1024 0.930 . S
H1016 C1029 0.929 . S
H1017 C1027 0.929 . S
H1018 C1022 0.929 . S
H1019 C1028 0.929 . S
C1020 H1014 0.930 . S
C1020 C1021 1.367 . S
C1020 C1028 1.378 . S
C1021 C1020 1.367 . S
C1021 C1029 1.433 1_655 S
C1022 H1018 0.929 . S
C1022 C1024 1.378 . S
C1022 C1026 1.350 . S
C1023 C1026 1.463 1_655 S
C1023 C1028 1.350 . S
C1023 N1031 1.427 1_655 S
C1024 H1015 0.930 . S
C1024 C1022 1.378 . S
C1024 C1025 1.367 . S
C1025 C1024 1.367 . S
C1025 C1027 1.433 1_455 S
C1026 C1022 1.350 . S
C1026 C1023 1.463 1_455 S
C1026 N1030 1.427 1_455 S
C1027 H1017 0.929 . S
C1027 C1025 1.433 1_655 S
C1027 N1030 1.384 . S
C1028 H1019 0.929 . S
C1028 C1020 1.378 . S
C1028 C1023 1.350 . S
C1029 H1016 0.929 . S
C1029 C1021 1.433 1_455 S
C1029 N1031 1.384 . S
N1030 C1026 1.427 1_655 S
N1030 C1027 1.384 . S
N1031 C1023 1.427 1_455 S
N1031 C1029 1.384 . S
H1032 C1038 0.930 . S
H1033 C1042 0.930 . S
H1034 C1047 0.929 . S
H1035 C1045 0.929 . S
H1036 C1040 0.929 . S
H1037 C1046 0.929 . S
C1038 H1032 0.930 . S
C1038 C1039 1.367 . S
C1038 C1046 1.378 . S
C1039 C1038 1.367 . S
C1039 C1047 1.433 . S
C1040 H1036 0.929 . S
C1040 C1042 1.378 . S
C1040 C1044 1.350 . S
C1041 C1044 1.463 . S
C1041 C1046 1.350 . S
C1041 N1049 1.427 . S
C1042 H1033 0.930 . S
C1042 C1040 1.378 . S
C1042 C1043 1.367 . S
C1043 C1042 1.367 . S
C1043 C1045 1.433 . S
C1044 C1040 1.350 . S
C1044 C1041 1.463 . S
C1044 N1048 1.427 . S
C1045 H1035 0.929 . S
C1045 C1043 1.433 . S
C1045 N1048 1.384 . S
C1046 H1037 0.929 . S
C1046 C1038 1.378 . S
C1046 C1041 1.350 . S
C1047 H1034 0.929 . S
C1047 C1039 1.433 . S
C1047 N1049 1.384 . S
N1048 C1044 1.427 . S
N1048 C1045 1.384 . S
N1049 C1041 1.427 . S
N1049 C1047 1.384 . S
H1050 C1056 0.930 . S
H1051 C1060 0.930 . S
H1052 C1065 0.929 . S
H1053 C1063 0.929 . S
H1054 C1058 0.929 . S
H1055 C1064 0.929 . S
C1056 H1050 0.930 . S
C1056 C1057 1.367 . S
C1056 C1064 1.378 . S
C1057 C1056 1.367 . S
C1057 C1065 1.433 . S
C1058 H1054 0.929 . S
C1058 C1060 1.378 . S
C1058 C1062 1.350 . S
C1059 C1062 1.463 . S
C1059 C1064 1.350 . S
C1059 N1067 1.427 . S
C1060 H1051 0.930 . S
C1060 C1058 1.378 . S
C1060 C1061 1.367 . S
C1061 C1060 1.367 . S
C1061 C1063 1.433 . S
C1062 C1058 1.350 . S
C1062 C1059 1.463 . S
C1062 N1066 1.427 . S
C1063 H1053 0.929 . S
C1063 C1061 1.433 . S
C1063 N1066 1.384 . S
C1064 H1055 0.929 . S
C1064 C1056 1.378 . S
C1064 C1059 1.350 . S
C1065 H1052 0.929 . S
C1065 C1057 1.433 . S
C1065 N1067 1.384 . S
N1066 C1062 1.427 . S
N1066 C1063 1.384 . S
N1067 C1059 1.427 . S
N1067 C1065 1.384 . S
H1068 C1074 0.930 . S
H1069 C1078 0.930 . S
H1070 C1083 0.929 . S
H1071 C1081 0.929 . S
H1072 C1076 0.929 . S
H1073 C1082 0.929 . S
C1074 H1068 0.930 . S
C1074 C1075 1.367 . S
C1074 C1082 1.378 . S
C1075 C1074 1.367 . S
C1075 C1083 1.433 . S
C1076 H1072 0.929 . S
C1076 C1078 1.378 . S
C1076 C1080 1.350 . S
C1077 C1080 1.463 . S
C1077 C1082 1.350 . S
C1077 N1085 1.427 . S
C1078 H1069 0.930 . S
C1078 C1076 1.378 . S
C1078 C1079 1.367 . S
C1079 C1078 1.367 . S
C1079 C1081 1.433 . S
C1080 C1076 1.350 . S
C1080 C1077 1.463 . S
C1080 N1084 1.427 . S
C1081 H1071 0.929 . S
C1081 C1079 1.433 . S
C1081 N1084 1.384 . S
C1082 H1073 0.929 . S
C1082 C1074 1.378 . S
C1082 C1077 1.350 . S
C1083 H1070 0.929 . S
C1083 C1075 1.433 . S
C1083 N1085 1.384 . S
N1084 C1080 1.427 . S
N1084 C1081 1.384 . S
N1085 C1077 1.427 . S
N1085 C1083 1.384 . S
H1086 C1092 0.930 . S
H1087 C1096 0.930 . S
H1088 C1101 0.929 . S
H1089 C1099 0.929 . S
H1090 C1094 0.929 . S
H1091 C1100 0.929 . S
C1092 H1086 0.930 . S
C1092 C1093 1.367 . S
C1092 C1100 1.378 . S
C1093 C1092 1.367 . S
C1093 C1101 1.433 . S
C1094 H1090 0.929 . S
C1094 C1096 1.378 . S
C1094 C1098 1.350 . S
C1095 C1098 1.463 . S
C1095 C1100 1.350 . S
C1095 N1103 1.427 . S
C1096 H1087 0.930 . S
C1096 C1094 1.378 . S
C1096 C1097 1.367 . S
C1097 C1096 1.367 . S
C1097 C1099 1.433 . S
C1098 C1094 1.350 . S
C1098 C1095 1.463 . S
C1098 N1102 1.427 . S
C1099 H1089 0.929 . S
C1099 C1097 1.433 . S
C1099 N1102 1.384 . S
C1100 H1091 0.929 . S
C1100 C1092 1.378 . S
C1100 C1095 1.350 . S
C1101 H1088 0.929 . S
C1101 C1093 1.433 . S
C1101 N1103 1.384 . S
N1102 C1098 1.427 . S
N1102 C1099 1.384 . S
N1103 C1095 1.427 . S
N1103 C1101 1.384 . S
C679 C56 1.961 . S
C683 C67 1.961 . S
C697 C151 1.968 . S
C701 C140 1.968 . S
C715 C224 1.952 . S
C719 C235 1.952 . S
C733 C308 1.953 . S
C737 C319 1.953 . S
C751 C392 1.957 . S
C755 C403 1.957 . S
C769 C476 1.966 . S
C773 C487 1.966 . S
C787 C560 1.957 . S
C791 C571 1.957 . S
C805 C655 1.954 . S
C809 C644 1.954 . S
C823 C142 2.284 . S
C827 C58 1.955 . S
C841 C310 1.960 . S
C845 C237 1.960 . S
C859 C394 1.974 . S
C863 C478 2.279 . S
C877 C573 1.976 . S
C881 C646 1.976 . S
C895 C69 1.513 . S
C899 C489 1.775 . S
C913 C405 1.512 . S
C917 C153 1.777 . S
C931 C226 1.442 . S
C935 C657 1.442 . S
C949 C321 1.455 . S
C953 C562 1.455 . S
C967 C63 1.692 . S
C971 C315 1.749 . S
C985 C147 1.498 . S
C989 C231 1.481 . S
C1003 C158 1.633 . S
C1007 C242 1.679 . S
C1021 C326 1.575 . S
C1025 C74 1.512 . S
C1039 C399 1.691 . S
C1043 C651 1.749 . S
C1057 C483 1.510 . S
C1061 C567 1.488 . S
C1075 C494 1.625 . S
C1079 C578 1.673 . S
C1093 C662 1.580 . S
C1097 C410 1.496 . S
