# Generated by pormake.
# Topology lon, (4)-cn, num edge types: 1
# Building blocks:
#     Node 0, Type 0, BuildingBlock: UXUYUI_clean_sbu_0, # of connection points: 4
#     Node 1, Type 0, BuildingBlock: UXUYUI_clean_sbu_0, # of connection points: 4
#     Node 2, Type 0, BuildingBlock: UXUYUI_clean_sbu_0, # of connection points: 4
#     Node 3, Type 0, BuildingBlock: UXUYUI_clean_sbu_0, # of connection points: 4
#     Edge 4, Type (0, 0), BuildingBlock: UVAHIK_clean_linker_0, # of connection points: 2
#     Edge 5, Type (0, 0), BuildingBlock: UVAHIK_clean_linker_0, # of connection points: 2
#     Edge 6, Type (0, 0), BuildingBlock: UVAHIK_clean_linker_0, # of connection points: 2
#     Edge 7, Type (0, 0), BuildingBlock: UVAHIK_clean_linker_0, # of connection points: 2
#     Edge 8, Type (0, 0), BuildingBlock: UVAHIK_clean_linker_0, # of connection points: 2
#     Edge 9, Type (0, 0), BuildingBlock: UVAHIK_clean_linker_0, # of connection points: 2
#     Edge 10, Type (0, 0), BuildingBlock: UVAHIK_clean_linker_0, # of connection points: 2
#     Edge 11, Type (0, 0), BuildingBlock: UVAHIK_clean_linker_0, # of connection points: 2
# Relax obj value: 0.000
# Max RMSD: 0.004
# Mean RMSD: 0.003
data_MOF--net-lon--node1-UXUYUI_clean_sbu_0--edge1-UVAHIK_clean_linker_0
_symmetry_space_group_name_H-M    P1
_symmetry_Int_Tables_number       1
_symmetry_cell_setting            triclinic
loop_
_symmetry_equiv_pos_as_xyz
'x, y, z'
_cell_length_a     43.838641
_cell_length_b     43.765635
_cell_length_c     71.507906
_cell_angle_alpha  90.157711
_cell_angle_beta   90.082683
_cell_angle_gamma 120.089
loop_
_atom_site_label
_atom_site_type_symbol
_atom_site_fract_x
_atom_site_fract_y
_atom_site_fract_z
_atom_type_partial_charge
Li0 Li 0.34166 0.67441 0.08816 0.0
Li1 Li 0.36234 0.65566 0.06075 0.0
Li2 Li 0.36003 0.70946 0.06089 0.0
Li3 Li 0.30547 0.65524 0.06034 0.0
C4 C 0.41752 0.73006 0.08019 0.0
N5 N 0.47354 0.79778 0.08524 0.0
C6 C 0.44792 0.74221 0.06938 0.0
C7 C 0.41566 0.75233 0.09364 0.0
C8 C 0.47594 0.77655 0.07211 0.0
C9 C 0.44426 0.78647 0.09598 0.0
C10 C 0.31615 0.60617 0.091 0.0
C11 C 0.2811 0.56386 0.11463 0.0
N12 N 0.31096 0.56716 0.12239 0.0
C13 C 0.34648 0.60903 0.09917 0.0
C14 C 0.28317 0.58333 0.09875 0.0
C15 C 0.34331 0.58912 0.11504 0.0
C16 C 0.30851 0.66353 0.12327 0.0
N17 N 0.33979 0.67351 0.11476 0.0
C18 C 0.36808 0.68028 0.14429 0.0
C19 C 0.36927 0.68165 0.1248 0.0
C20 C 0.3361 0.66995 0.15357 0.0
C21 C 0.30601 0.66143 0.14275 0.0
H22 H 0.2854 0.65677 0.11487 0.0
H23 H 0.39371 0.68906 0.11764 0.0
C24 C 0.41523 0.65042 0.04097 0.0
N25 N 0.38597 0.63207 0.05165 0.0
C26 C 0.43291 0.63385 0.03382 0.0
C27 C 0.38937 0.5795 0.0483 0.0
C28 C 0.37258 0.59713 0.05518 0.0
C29 C 0.42008 0.59791 0.03752 0.0
H30 H 0.42453 0.67782 0.0378 0.0
H31 H 0.34867 0.58281 0.06321 0.0
C32 C 0.30006 0.71316 0.06948 0.0
N33 N 0.26404 0.74537 0.05607 0.0
C34 C 0.29909 0.71864 0.05028 0.0
C35 C 0.28269 0.72404 0.08184 0.0
C36 C 0.28074 0.73497 0.04378 0.0
C37 C 0.26463 0.7403 0.0748 0.0
C38 C 0.3341 0.65117 0.02583 0.0
C39 C 0.34361 0.66476 0.00778 0.0
C40 C 0.31501 0.61458 0.02844 0.0
C41 C 0.33382 0.64154 0.99259 0.0
C42 C 0.30574 0.59224 0.01289 0.0
N43 N 0.31525 0.60606 0.99544 0.0
C44 C 0.40155 0.76378 0.03541 0.0
C45 C 0.38367 0.78291 0.06214 0.0
C46 C 0.41977 0.79824 0.02854 0.0
N47 N 0.38402 0.75685 0.05191 0.0
C48 C 0.40179 0.81776 0.05589 0.0
C49 C 0.42013 0.82577 0.03887 0.0
H50 H 0.40158 0.74253 0.02766 0.0
H51 H 0.36953 0.77663 0.07523 0.0
C52 C 0.23169 0.6149 0.06421 0.0
N53 N 0.2578 0.63193 0.05147 0.0
C54 C 0.19637 0.59751 0.05859 0.0
C55 C 0.21542 0.61642 0.02691 0.0
C56 C 0.2503 0.6336 0.03316 0.0
C57 C 0.18791 0.59786 0.03966 0.0
H58 H 0.23833 0.61506 0.07878 0.0
H59 H 0.27128 0.64856 0.02338 0.0
O60 O 0.38941 0.69684 0.0774 0.0
O61 O 0.31894 0.62637 0.07581 0.0
O62 O 0.31767 0.69708 0.07628 0.0
O63 O 0.34389 0.67378 0.04079 0.0
H64 H 0.44985 0.72542 0.05891 0.0
H65 H 0.39211 0.74363 0.10191 0.0
H66 H 0.49956 0.78633 0.06378 0.0
H67 H 0.44307 0.80405 0.10624 0.0
H68 H 0.25575 0.54615 0.1208 0.0
H69 H 0.37227 0.62687 0.09347 0.0
H70 H 0.25941 0.58063 0.0926 0.0
H71 H 0.36659 0.59127 0.12157 0.0
H72 H 0.39208 0.68758 0.15197 0.0
H73 H 0.28065 0.65271 0.14921 0.0
H74 H 0.45603 0.64886 0.02522 0.0
H75 H 0.37859 0.55183 0.05156 0.0
H76 H 0.31235 0.71045 0.04046 0.0
H77 H 0.28317 0.71994 0.09674 0.0
H78 H 0.27978 0.73937 0.02897 0.0
H79 H 0.25108 0.74886 0.08422 0.0
H80 H 0.35839 0.693 0.00552 0.0
H81 H 0.30728 0.60345 0.04225 0.0
H82 H 0.34099 0.65172 0.97854 0.0
H83 H 0.29097 0.5639 0.0147 0.0
H84 H 0.43388 0.80338 0.01545 0.0
H85 H 0.40113 0.83817 0.06418 0.0
H86 H 0.17596 0.58361 0.0689 0.0
H87 H 0.21003 0.61811 0.01228 0.0
Li88 Li 0.65867 0.36139 0.56182 0.0
Li89 Li 0.71272 0.35719 0.5621 0.0
Li90 Li 0.65628 0.3032 0.56135 0.0
Li91 Li 0.67574 0.33975 0.58854 0.0
C92 C 0.69589 0.3555 0.52675 0.0
N93 N 0.7398 0.38611 0.49645 0.0
C94 C 0.71442 0.39222 0.52474 0.0
C95 C 0.69944 0.33435 0.51325 0.0
C96 C 0.73656 0.40719 0.50935 0.0
C97 C 0.72181 0.35033 0.49805 0.0
C98 C 0.71553 0.40744 0.59311 0.0
C99 C 0.75923 0.42917 0.61769 0.0
N100 N 0.74245 0.44456 0.62607 0.0
C101 C 0.69884 0.42365 0.6019 0.0
C102 C 0.74605 0.41031 0.60101 0.0
C103 C 0.71281 0.44223 0.61858 0.0
C104 C 0.61922 0.39583 0.56597 0.0
N105 N 0.63569 0.38594 0.55327 0.0
C106 C 0.61708 0.40894 0.52825 0.0
C107 C 0.6345 0.39166 0.53468 0.0
C108 C 0.60033 0.42008 0.54106 0.0
C109 C 0.60138 0.41314 0.56015 0.0
H110 H 0.61963 0.38994 0.58061 0.0
H111 H 0.64659 0.38234 0.52478 0.0
C112 C 0.77152 0.3594 0.54426 0.0
N113 N 0.75998 0.37913 0.55319 0.0
C114 C 0.80559 0.37545 0.53689 0.0
C115 C 0.81536 0.43163 0.54842 0.0
C116 C 0.78102 0.41459 0.55532 0.0
C117 C 0.82812 0.41213 0.53893 0.0
H118 H 0.754 0.33127 0.54258 0.0
H119 H 0.771 0.42974 0.56225 0.0
C120 C 0.5944 0.30445 0.57113 0.0
N121 N 0.5255 0.27597 0.55903 0.0
C122 C 0.56707 0.29328 0.58409 0.0
C123 C 0.58669 0.30123 0.55199 0.0
C124 C 0.5324 0.2789 0.5777 0.0
C125 C 0.55169 0.28675 0.54616 0.0
C126 C 0.69049 0.28495 0.58709 0.0
C127 C 0.65774 0.26514 0.59578 0.0
C128 C 0.7156 0.27433 0.58861 0.0
C129 C 0.65071 0.23503 0.60587 0.0
C130 C 0.70756 0.24406 0.59884 0.0
N131 N 0.67555 0.2252 0.60718 0.0
C132 C 0.65066 0.24516 0.54132 0.0
C133 C 0.59885 0.23184 0.55799 0.0
C134 C 0.63514 0.21041 0.53475 0.0
N135 N 0.63225 0.25534 0.55248 0.0
C136 C 0.5822 0.19699 0.55162 0.0
C137 C 0.6003 0.18576 0.53981 0.0
H138 H 0.67768 0.26395 0.53778 0.0
H139 H 0.58509 0.23981 0.56752 0.0
C140 C 0.64926 0.34147 0.62432 0.0
N141 N 0.67529 0.33926 0.61523 0.0
C142 C 0.64848 0.34162 0.64385 0.0
C143 C 0.70131 0.33726 0.64424 0.0
C144 C 0.70107 0.33719 0.62473 0.0
C145 C 0.67474 0.33945 0.65408 0.0
H146 H 0.62921 0.34326 0.61638 0.0
H147 H 0.72171 0.33591 0.61714 0.0
O148 O 0.6749 0.34046 0.54203 0.0
O149 O 0.70175 0.38833 0.57703 0.0
O150 O 0.62847 0.31904 0.57729 0.0
O151 O 0.69814 0.31447 0.57701 0.0
H152 H 0.71215 0.40899 0.53514 0.0
H153 H 0.68509 0.30592 0.51447 0.0
H154 H 0.75129 0.43557 0.50772 0.0
H155 H 0.7249 0.33428 0.48753 0.0
H156 H 0.78267 0.43137 0.62404 0.0
H157 H 0.67527 0.42176 0.59598 0.0
H158 H 0.75906 0.39755 0.59452 0.0
H159 H 0.70006 0.45475 0.62558 0.0
H160 H 0.61619 0.41295 0.51337 0.0
H161 H 0.58883 0.42124 0.57051 0.0
H162 H 0.81391 0.35934 0.52942 0.0
H163 H 0.83176 0.4598 0.55064 0.0
H164 H 0.5726 0.29568 0.59895 0.0
H165 H 0.60739 0.3097 0.54171 0.0
H166 H 0.51099 0.27011 0.58759 0.0
H167 H 0.54535 0.28407 0.53141 0.0
H168 H 0.63792 0.27285 0.59479 0.0
H169 H 0.74104 0.28935 0.58193 0.0
H170 H 0.62549 0.21947 0.61266 0.0
H171 H 0.72675 0.23554 0.60013 0.0
H172 H 0.65052 0.20284 0.52609 0.0
H173 H 0.55529 0.17914 0.55586 0.0
H174 H 0.62731 0.343 0.65085 0.0
H175 H 0.72241 0.33615 0.65152 0.0
Li176 Li 0.35845 0.70922 0.44972 0.0
Li177 Li 0.34185 0.67228 0.42133 0.0
Li178 Li 0.30355 0.65344 0.45014 0.0
Li179 Li 0.35856 0.65161 0.44975 0.0
C180 C 0.31452 0.72402 0.43063 0.0
N181 N 0.31183 0.78515 0.42541 0.0
C182 C 0.32514 0.74204 0.41363 0.0
C183 C 0.30209 0.73682 0.44487 0.0
C184 C 0.32367 0.77296 0.41129 0.0
C185 C 0.30108 0.76786 0.442 0.0
C186 C 0.41713 0.704 0.42453 0.0
C187 C 0.45356 0.68731 0.40704 0.0
N188 N 0.47669 0.72196 0.40358 0.0
C189 C 0.44146 0.73947 0.42098 0.0
C190 C 0.42337 0.67771 0.41765 0.0
C191 C 0.47133 0.748 0.41029 0.0
C192 C 0.38829 0.76293 0.47722 0.0
N193 N 0.38281 0.75681 0.45854 0.0
C194 C 0.41267 0.81882 0.45244 0.0
C195 C 0.39492 0.78388 0.44615 0.0
C196 C 0.41866 0.82609 0.47169 0.0
C197 C 0.40628 0.79747 0.48413 0.0
H198 H 0.37901 0.74096 0.48677 0.0
H199 H 0.39087 0.77835 0.43133 0.0
C200 C 0.31153 0.64699 0.38601 0.0
N201 N 0.34132 0.67199 0.39466 0.0
C202 C 0.30924 0.64555 0.3665 0.0
C203 C 0.36832 0.69571 0.36517 0.0
C204 C 0.36932 0.69636 0.38468 0.0
C205 C 0.33795 0.67009 0.35577 0.0
H206 H 0.28944 0.62825 0.3943 0.0
H207 H 0.39236 0.71655 0.39181 0.0
C208 C 0.32459 0.66254 0.48598 0.0
N209 N 0.28845 0.64213 0.51943 0.0
C210 C 0.32394 0.63522 0.49637 0.0
C211 C 0.30727 0.6798 0.49272 0.0
C212 C 0.30543 0.62522 0.51323 0.0
C213 C 0.28901 0.66899 0.50962 0.0
C214 C 0.31077 0.59351 0.42687 0.0
C215 C 0.28377 0.56193 0.43424 0.0
C216 C 0.33152 0.59247 0.41234 0.0
C217 C 0.27853 0.52981 0.42724 0.0
C218 C 0.32543 0.55982 0.4057 0.0
N219 N 0.29932 0.52943 0.41325 0.0
C220 C 0.23339 0.63969 0.45271 0.0
C221 C 0.24526 0.60114 0.47041 0.0
C222 C 0.19837 0.62217 0.45871 0.0
N223 N 0.25602 0.62906 0.4587 0.0
C224 C 0.21065 0.58317 0.47697 0.0
C225 C 0.18653 0.59353 0.4711 0.0
H226 H 0.24245 0.6616 0.44314 0.0
H227 H 0.2636 0.59282 0.47471 0.0
C228 C 0.41738 0.64713 0.46188 0.0
N229 N 0.38199 0.62793 0.45896 0.0
C230 C 0.43562 0.6309 0.46866 0.0
C231 C 0.38052 0.57559 0.4698 0.0
C232 C 0.36337 0.5929 0.46298 0.0
C233 C 0.41718 0.5946 0.47267 0.0
H234 H 0.43144 0.67514 0.45901 0.0
H235 H 0.33514 0.57843 0.4611 0.0
O236 O 0.31604 0.69388 0.43323 0.0
O237 O 0.38772 0.69526 0.43494 0.0
O238 O 0.34224 0.67243 0.46935 0.0
O239 O 0.31616 0.62518 0.43356 0.0
H240 H 0.33465 0.73241 0.40243 0.0
H241 H 0.29344 0.723 0.45803 0.0
H242 H 0.33201 0.7873 0.39826 0.0
H243 H 0.29173 0.77819 0.45295 0.0
H244 H 0.45867 0.66721 0.40162 0.0
H245 H 0.43724 0.76018 0.42632 0.0
H246 H 0.40537 0.65023 0.42066 0.0
H247 H 0.49025 0.77532 0.40733 0.0
H248 H 0.42131 0.83986 0.4423 0.0
H249 H 0.41087 0.80164 0.49904 0.0
H250 H 0.28501 0.62575 0.35995 0.0
H251 H 0.39127 0.71497 0.35757 0.0
H252 H 0.33739 0.62174 0.49142 0.0
H253 H 0.3078 0.70119 0.48493 0.0
H254 H 0.30452 0.60397 0.52136 0.0
H255 H 0.27529 0.68196 0.51493 0.0
H256 H 0.26719 0.56222 0.44534 0.0
H257 H 0.35183 0.61654 0.40609 0.0
H258 H 0.25791 0.50518 0.43292 0.0
H259 H 0.34136 0.55866 0.39449 0.0
H260 H 0.18071 0.63072 0.45345 0.0
H261 H 0.20306 0.56162 0.48667 0.0
H262 H 0.46378 0.64673 0.47101 0.0
H263 H 0.36525 0.54756 0.47265 0.0
Li264 Li 0.65467 0.30147 0.94966 0.0
Li265 Li 0.65726 0.35885 0.94999 0.0
Li266 Li 0.67664 0.33929 0.92148 0.0
Li267 Li 0.71234 0.35911 0.95014 0.0
C268 C 0.59817 0.29219 0.92551 0.0
N269 N 0.53564 0.24042 0.90991 0.0
C270 C 0.56605 0.28858 0.93125 0.0
C271 C 0.59848 0.26984 0.91162 0.0
C272 C 0.53472 0.26213 0.92326 0.0
C273 C 0.56661 0.24375 0.90395 0.0
C274 C 0.66232 0.34497 0.98558 0.0
C275 C 0.66478 0.38508 0.00952 0.0
N276 N 0.63612 0.35803 0.01786 0.0
C277 C 0.63306 0.31752 0.99446 0.0
C278 C 0.67851 0.37898 0.99323 0.0
C279 C 0.62016 0.32467 0.01074 0.0
C280 C 0.65083 0.24006 0.9641 0.0
N281 N 0.63076 0.25411 0.95864 0.0
C282 C 0.57802 0.20063 0.96636 0.0
C283 C 0.59502 0.23533 0.95985 0.0
C284 C 0.598 0.18518 0.97195 0.0
C285 C 0.63495 0.2055 0.9708 0.0
H286 H 0.67925 0.25579 0.96326 0.0
H287 H 0.57962 0.24728 0.9559 0.0
C288 C 0.64698 0.41736 0.95443 0.0
N289 N 0.63328 0.38256 0.95841 0.0
C290 C 0.63015 0.43542 0.96063 0.0
C291 C 0.58518 0.3814 0.97475 0.0
C292 C 0.60286 0.36439 0.96825 0.0
C293 C 0.59881 0.41744 0.97098 0.0
H294 H 0.67091 0.43108 0.94635 0.0
H295 H 0.59242 0.33668 0.97115 0.0
C296 C 0.70698 0.29463 0.92489 0.0
N297 N 0.72399 0.25181 0.90421 0.0
C298 C 0.74215 0.30592 0.92059 0.0
C299 C 0.68055 0.26126 0.91896 0.0
C300 C 0.7502 0.28399 0.91003 0.0
C301 C 0.68965 0.24008 0.90845 0.0
C302 C 0.7291 0.41813 0.93159 0.0
C303 C 0.74768 0.42637 0.91475 0.0
C304 C 0.74222 0.4421 0.94649 0.0
C305 C 0.7794 0.4583 0.9132 0.0
C306 C 0.77406 0.47373 0.9444 0.0
N307 N 0.79185 0.4811 0.92794 0.0
C308 C 0.65112 0.34132 0.88566 0.0
C309 C 0.70394 0.33896 0.88532 0.0
C310 C 0.65031 0.34152 0.86614 0.0
N311 N 0.67743 0.33962 0.89481 0.0
C312 C 0.70419 0.33911 0.86579 0.0
C313 C 0.67704 0.34027 0.85593 0.0
H314 H 0.63065 0.34238 0.89355 0.0
H315 H 0.7252 0.33886 0.89287 0.0
C316 C 0.76527 0.38513 0.97815 0.0
N317 N 0.75956 0.38228 0.95937 0.0
C318 C 0.79963 0.40241 0.98525 0.0
C319 C 0.82158 0.41333 0.95356 0.0
C320 C 0.78682 0.39567 0.94709 0.0
C321 C 0.8284 0.41691 0.97289 0.0
H322 H 0.74314 0.37386 0.98762 0.0
H323 H 0.78158 0.39289 0.93223 0.0
O324 O 0.62907 0.31794 0.93326 0.0
O325 O 0.67503 0.33857 0.96949 0.0
O326 O 0.69872 0.3158 0.93528 0.0
O327 O 0.69821 0.3868 0.93344 0.0
H328 H 0.56527 0.30587 0.94181 0.0
H329 H 0.62305 0.27288 0.90658 0.0
H330 H 0.50967 0.25889 0.92767 0.0
H331 H 0.56651 0.22625 0.89321 0.0
H332 H 0.67689 0.41132 0.01552 0.0
H333 H 0.62028 0.29103 0.98876 0.0
H334 H 0.70126 0.40048 0.98659 0.0
H335 H 0.59741 0.30372 0.01771 0.0
H336 H 0.5495 0.186 0.96683 0.0
H337 H 0.65151 0.19504 0.97527 0.0
H338 H 0.6413 0.46304 0.95713 0.0
H339 H 0.56133 0.36656 0.98284 0.0
H340 H 0.76303 0.33142 0.92525 0.0
H341 H 0.65334 0.25153 0.92263 0.0
H342 H 0.77728 0.29254 0.90648 0.0
H343 H 0.66942 0.21424 0.90375 0.0
H344 H 0.73782 0.40823 0.90305 0.0
H345 H 0.72812 0.43619 0.95959 0.0
H346 H 0.79415 0.46494 0.90028 0.0
H347 H 0.78465 0.49239 0.95586 0.0
H348 H 0.62876 0.34221 0.85913 0.0
H349 H 0.72573 0.3389 0.85851 0.0
H350 H 0.80356 0.40397 1.00025 0.0
H351 H 0.84283 0.42443 0.94349 0.0
C352 C 0.31275 0.67803 0.18423 0.0
C353 C 0.33427 0.6682 0.17438 0.0
C354 C 0.31155 0.67697 0.20377 0.0
C355 C 0.33401 0.63989 0.24491 0.0
H356 H 0.32709 0.71336 0.27161 0.0
C357 C 0.31858 0.63687 0.32522 0.0
C358 C 0.3362 0.66919 0.33494 0.0
C359 C 0.31707 0.63608 0.30568 0.0
C360 C 0.3294 0.69282 0.26441 0.0
H361 H 0.37084 0.64875 0.17753 0.0
H362 H 0.36997 0.64844 0.21149 0.0
H363 H 0.32781 0.71357 0.23765 0.0
H364 H 0.36562 0.72613 0.33154 0.0
H365 H 0.36436 0.72471 0.2976 0.0
H366 H 0.33722 0.62007 0.27168 0.0
C367 C 0.35345 0.65635 0.20413 0.0
C368 C 0.32924 0.69261 0.24487 0.0
C369 C 0.35438 0.65707 0.1846 0.0
C370 C 0.35226 0.7007 0.32459 0.0
C371 C 0.35105 0.6999 0.30506 0.0
C372 C 0.33453 0.6403 0.26446 0.0
C373 C 0.33207 0.66635 0.214 0.0
C374 C 0.3316 0.66618 0.23484 0.0
C375 C 0.3334 0.66759 0.29532 0.0
C376 C 0.3323 0.66681 0.27448 0.0
H377 H 0.29718 0.68712 0.17689 0.0
H378 H 0.29437 0.68437 0.21083 0.0
H379 H 0.33537 0.61881 0.23771 0.0
H380 H 0.30626 0.61203 0.33267 0.0
H381 H 0.30283 0.6107 0.29871 0.0
C382 C 0.6658 0.36178 0.68485 0.0
C383 C 0.67452 0.33949 0.67487 0.0
C384 C 0.66594 0.362 0.7044 0.0
C385 C 0.70236 0.33912 0.74512 0.0
H386 H 0.62751 0.34239 0.77224 0.0
C387 C 0.68587 0.31861 0.82497 0.0
C388 C 0.67671 0.34035 0.83514 0.0
C389 C 0.68557 0.31866 0.80542 0.0
C390 C 0.64883 0.34188 0.76488 0.0
H391 H 0.68951 0.29941 0.67769 0.0
H392 H 0.68984 0.29988 0.71176 0.0
H393 H 0.62701 0.34225 0.73813 0.0
H394 H 0.66057 0.37962 0.83272 0.0
H395 H 0.66011 0.37975 0.79862 0.0
H396 H 0.72422 0.33881 0.77184 0.0
C397 C 0.68343 0.31759 0.70446 0.0
C398 C 0.64853 0.34179 0.74533 0.0
C399 C 0.68325 0.31733 0.68492 0.0
C400 C 0.66724 0.36215 0.82531 0.0
C401 C 0.66697 0.36223 0.80576 0.0
C402 C 0.70268 0.33925 0.76466 0.0
C403 C 0.67484 0.33997 0.71443 0.0
C404 C 0.67526 0.34034 0.73522 0.0
C405 C 0.67614 0.34048 0.79558 0.0
C406 C 0.67589 0.34057 0.77478 0.0
H407 H 0.65947 0.37956 0.67755 0.0
H408 H 0.65967 0.3799 0.71167 0.0
H409 H 0.72364 0.33855 0.73775 0.0
H410 H 0.69276 0.3011 0.83211 0.0
H411 H 0.69222 0.30117 0.79802 0.0
C412 C 0.47554 0.59662 0.03037 0.0
C413 C 0.43852 0.57969 0.03017 0.0
C414 C 0.49285 0.57925 0.02376 0.0
C415 C 0.47871 0.49004 0.01416 0.0
H416 H 0.5637 0.54061 0.98458 0.0
C417 C 0.54341 0.41947 0.97713 0.0
C418 C 0.5804 0.43612 0.97772 0.0
C419 C 0.52611 0.43704 0.98343 0.0
C420 C 0.54021 0.52621 0.99299 0.0
H421 H 0.39072 0.53149 0.02243 0.0
H422 H 0.42091 0.50123 0.01089 0.0
H423 H 0.53349 0.57123 0.99561 0.0
H424 H 0.62816 0.48417 0.98569 0.0
H425 H 0.59797 0.51484 0.99664 0.0
H426 H 0.48542 0.44504 0.01154 0.0
C427 C 0.43654 0.52772 0.01647 0.0
C428 C 0.52289 0.54376 0.99932 0.0
C429 C 0.41924 0.54508 0.02308 0.0
C430 C 0.59967 0.47077 0.98476 0.0
C431 C 0.58237 0.48836 0.99104 0.0
C432 C 0.49601 0.4725 0.00783 0.0
C433 C 0.47355 0.54455 0.01678 0.0
C434 C 0.49193 0.52589 0.00998 0.0
C435 C 0.54538 0.4717 0.99046 0.0
C436 C 0.52697 0.49037 0.99717 0.0
H437 H 0.49116 0.62308 0.03599 0.0
H438 H 0.52136 0.5928 0.02445 0.0
H439 H 0.45525 0.47564 0.0226 0.0
H440 H 0.52778 0.39301 0.97151 0.0
H441 H 0.49762 0.42365 0.98252 0.0
C442 C 0.13113 0.59283 0.48117 0.0
C443 C 0.14933 0.57451 0.47778 0.0
C444 C 0.09624 0.57499 0.4874 0.0
C445 C 0.01774 0.48477 0.49151 0.0
H446 H 0.98661 0.5314 0.52643 0.0
C447 C 0.8848 0.41319 0.53131 0.0
C448 C 0.8646 0.43004 0.53122 0.0
C449 C 0.91924 0.43036 0.52438 0.0
C450 C 0.99491 0.51817 0.51659 0.0
H451 H 0.14451 0.52265 0.47818 0.0
H452 H 0.08454 0.49199 0.48991 0.0
H453 H 0.04739 0.56212 0.51552 0.0
H454 H 0.86485 0.47801 0.52317 0.0
H455 H 0.92526 0.5082 0.51172 0.0
H456 H 0.96525 0.44043 0.49311 0.0
C457 C 0.09692 0.52007 0.48734 0.0
C458 C 0.02971 0.5358 0.51024 0.0
C459 C 0.13166 0.53784 0.48088 0.0
C460 C 0.87976 0.46443 0.52391 0.0
C461 C 0.91433 0.48174 0.51724 0.0
C462 C 0.98306 0.46697 0.49808 0.0
C463 C 0.07868 0.53838 0.49066 0.0
C464 C 0.0416 0.51942 0.49754 0.0
C465 C 0.93443 0.46491 0.51745 0.0
C466 C 0.97128 0.48357 0.51061 0.0
H467 H 0.1439 0.62112 0.4792 0.0
H468 H 0.08299 0.58998 0.48951 0.0
H469 H 0.02564 0.47148 0.48149 0.0
H470 H 0.87432 0.38697 0.53707 0.0
H471 H 0.93431 0.41691 0.52485 0.0
C472 C 0.55008 0.13505 0.99019 0.0
C473 C 0.58041 0.14824 0.979 0.0
C474 C 0.53336 0.10029 0.99667 0.0
C475 C 0.52608 0.01329 0.98774 0.0
H476 H 0.48526 0.99235 0.03737 0.0
C477 C 0.4367 0.87017 0.01315 0.0
C478 C 0.43946 0.86264 0.03196 0.0
C479 C 0.45441 0.90498 0.00673 0.0
C480 C 0.49682 0.99772 0.02354 0.0
H481 H 0.61675 0.13487 0.96578 0.0
H482 H 0.58838 0.07474 0.97762 0.0
H483 H 0.51599 0.05306 0.02643 0.0
H484 H 0.46362 0.88556 0.05867 0.0
H485 H 0.49507 0.94624 0.04743 0.0
H486 H 0.50788 0.95808 0.98509 0.0
C487 C 0.57711 0.09109 0.98113 0.0
C488 C 0.51404 0.03255 0.01715 0.0
C489 C 0.5937 0.12579 0.97455 0.0
C490 C 0.4606 0.89062 0.04416 0.0
C491 C 0.47853 0.9254 0.03771 0.0
C492 C 0.50906 0.97848 0.99418 0.0
C493 C 0.54666 0.07785 0.99224 0.0
C494 C 0.52878 0.04079 0.99914 0.0
C495 C 0.47553 0.93307 0.01893 0.0
C496 C 0.4941 0.97022 0.01214 0.0
H497 H 0.53933 0.15166 0.99413 0.0
H498 H 0.50973 0.09092 1.00499 0.0
H499 H 0.53673 0.01853 0.97371 0.0
H500 H 0.42025 0.84917 1.00348 0.0
H501 H 0.45097 0.90989 0.99226 0.0
C502 C 0.54891 0.43046 0.54206 0.0
C503 C 0.58165 0.43852 0.53445 0.0
C504 C 0.53113 0.44744 0.53558 0.0
C505 C 0.52592 0.49682 0.49503 0.0
H506 H 0.47858 0.52709 0.52991 0.0
C507 C 0.46906 0.58496 0.47263 0.0
C508 C 0.43604 0.57674 0.47991 0.0
C509 C 0.48676 0.56812 0.47939 0.0
C510 C 0.49134 0.51845 0.51997 0.0
H511 H 0.62176 0.47135 0.51437 0.0
H512 H 0.59082 0.501 0.5031 0.0
H513 H 0.5096 0.49773 0.54158 0.0
H514 H 0.39597 0.54466 0.50019 0.0
H515 H 0.42656 0.51481 0.51173 0.0
H516 H 0.50768 0.51752 0.47342 0.0
C517 C 0.57857 0.4811 0.51385 0.0
C518 C 0.50912 0.50162 0.52666 0.0
C519 C 0.59631 0.46412 0.52031 0.0
C520 C 0.42118 0.55133 0.49413 0.0
C521 C 0.43891 0.53452 0.50091 0.0
C522 C 0.50816 0.51364 0.48834 0.0
C523 C 0.54571 0.47288 0.52135 0.0
C524 C 0.52666 0.49065 0.51427 0.0
C525 C 0.47189 0.54269 0.4936 0.0
C526 C 0.49069 0.5247 0.50073 0.0
H527 H 0.53665 0.41051 0.55278 0.0
H528 H 0.50564 0.44014 0.54148 0.0
H529 H 0.53866 0.48818 0.48507 0.0
H530 H 0.4811 0.60415 0.46154 0.0
H531 H 0.5123 0.5753 0.47359 0.0
C532 C 0.12441 0.58106 0.04348 0.0
C533 C 0.15067 0.57908 0.0332 0.0
C534 C 0.08946 0.56375 0.03717 0.0
C535 C 0.03541 0.52466 0.99445 0.0
H536 H 0.95855 0.47835 0.02975 0.0
C537 C 0.89164 0.43169 0.97106 0.0
C538 C 0.86527 0.43553 0.9801 0.0
C539 C 0.92633 0.44943 0.97769 0.0
C540 C 0.97974 0.49146 0.01975 0.0
H541 H 0.16071 0.55669 0.0085 0.0
H542 H 0.09979 0.52615 0.99762 0.0
H543 H 0.0193 0.50865 0.04109 0.0
H544 H 0.85497 0.46142 1.00315 0.0
H545 H 0.91547 0.49201 0.01484 0.0
H546 H 0.9958 0.50708 0.9731 0.0
C547 C 0.10625 0.54173 0.01032 0.0
C548 C 0.01455 0.50888 0.02623 0.0
C549 C 0.14117 0.55917 0.01657 0.0
C550 C 0.87445 0.45739 0.99601 0.0
C551 C 0.90913 0.47499 1.0027 0.0
C552 C 1.00063 0.50708 0.98796 0.0
C553 C 0.07996 0.54391 0.02049 0.0
C554 C 0.04284 0.52564 0.01366 0.0
C555 C 0.93547 0.47129 0.99357 0.0
C556 C 0.97241 0.49023 1.00053 0.0
H557 H 0.13099 0.59655 0.05622 0.0
H558 H 0.07002 0.56644 0.04521 0.0
H559 H 0.05648 0.53784 0.98439 0.0
H560 H 0.88543 0.41457 0.95898 0.0
H561 H 0.94593 0.44563 0.97052 0.0
C562 C 0.58918 0.14073 0.51473 0.0
C563 C 0.58294 0.14857 0.53294 0.0
C564 C 0.5722 0.10588 0.50818 0.0
C565 C 0.49302 0.01983 0.51524 0.0
H566 H 0.54507 0.98221 0.48964 0.0
C567 C 0.42826 0.87226 0.49573 0.0
C568 C 0.43787 0.86318 0.47874 0.0
C569 C 0.44635 0.90701 0.50238 0.0
C570 C 0.52999 0.9924 0.4965 0.0
H571 H 0.55461 0.12541 0.55871 0.0
H572 H 0.5244 0.06487 0.54707 0.0
H573 H 0.57599 0.04308 0.50093 0.0
H574 H 0.47454 0.88389 0.45553 0.0
H575 H 0.50495 0.94458 0.46667 0.0
H576 H 0.4469 0.96967 0.51051 0.0
C577 C 0.54226 0.08582 0.53785 0.0
C578 C 0.54778 0.02726 0.50303 0.0
C579 C 0.5595 0.12058 0.54447 0.0
C580 C 0.466 0.88988 0.46854 0.0
C581 C 0.48386 0.9247 0.4751 0.0
C582 C 0.47515 0.98513 0.50854 0.0
C583 C 0.54834 0.07813 0.51962 0.0
C584 C 0.5295 0.04126 0.51253 0.0
C585 C 0.47433 0.93374 0.49212 0.0
C586 C 0.4934 0.97087 0.49914 0.0
H587 H 0.60662 0.16158 0.50535 0.0
H588 H 0.57713 0.10073 0.494 0.0
H589 H 0.47818 0.03011 0.5223 0.0
H590 H 0.40647 0.85259 0.50387 0.0
H591 H 0.43853 0.91279 0.51567 0.0
loop_
_geom_bond_atom_site_label_1
_geom_bond_atom_site_label_2
_geom_bond_distance
_geom_bond_site_symmetry_2
_ccdc_geom_bond_type
Li0 N17 1.990 . S
Li0 O60 1.956 . S
Li0 O61 1.970 . S
Li0 O62 1.961 . S
Li1 N25 1.990 . S
Li1 O60 1.970 . S
Li1 O61 1.956 . S
Li1 O63 1.961 . S
Li2 N47 1.990 . S
Li2 O60 1.961 . S
Li2 O62 1.956 . S
Li2 O63 1.970 . S
Li3 N53 1.990 . S
Li3 O61 1.961 . S
Li3 O62 1.970 . S
Li3 O63 1.956 . S
C4 C6 1.348 . S
C4 C7 1.356 . S
C4 O60 1.325 . S
N5 C8 1.314 . S
N5 C9 1.279 . S
C6 C4 1.348 . S
C6 C8 1.353 . S
C6 H64 0.929 . S
C7 C4 1.356 . S
C7 C9 1.358 . S
C7 H65 0.930 . S
C8 N5 1.314 . S
C8 C6 1.353 . S
C8 H66 0.930 . S
C9 N5 1.279 . S
C9 C7 1.358 . S
C9 H67 0.930 . S
C10 C13 1.348 . S
C10 C14 1.356 . S
C10 O61 1.325 . S
C11 N12 1.279 . S
C11 C14 1.358 . S
C11 H68 0.930 . S
N12 C11 1.279 . S
N12 C15 1.314 . S
C13 C10 1.348 . S
C13 C15 1.353 . S
C13 H69 0.929 . S
C14 C10 1.356 . S
C14 C11 1.358 . S
C14 H70 0.930 . S
C15 N12 1.314 . S
C15 C13 1.353 . S
C15 H71 0.930 . S
C16 N17 1.314 . S
C16 C21 1.353 . S
C16 H22 0.930 . S
N17 Li0 1.990 . S
N17 C16 1.314 . S
N17 C19 1.279 . S
C18 C19 1.358 . S
C18 C20 1.356 . S
C18 H72 0.930 . S
C19 N17 1.279 . S
C19 C18 1.358 . S
C19 H23 0.930 . S
C20 C18 1.356 . S
C20 C21 1.348 . S
C21 C16 1.353 . S
C21 C20 1.348 . S
C21 H73 0.929 . S
H22 C16 0.930 . S
H23 C19 0.930 . S
C24 N25 1.314 . S
C24 C26 1.353 . S
C24 H30 0.930 . S
N25 Li1 1.990 . S
N25 C24 1.314 . S
N25 C28 1.279 . S
C26 C24 1.353 . S
C26 C29 1.348 . S
C26 H74 0.929 . S
C27 C28 1.358 . S
C27 C29 1.356 . S
C27 H75 0.930 . S
C28 N25 1.279 . S
C28 C27 1.358 . S
C28 H31 0.930 . S
C29 C26 1.348 . S
C29 C27 1.356 . S
H30 C24 0.930 . S
H31 C28 0.930 . S
C32 C34 1.348 . S
C32 C35 1.356 . S
C32 O62 1.325 . S
N33 C36 1.314 . S
N33 C37 1.279 . S
C34 C32 1.348 . S
C34 C36 1.353 . S
C34 H76 0.929 . S
C35 C32 1.356 . S
C35 C37 1.358 . S
C35 H77 0.930 . S
C36 N33 1.314 . S
C36 C34 1.353 . S
C36 H78 0.930 . S
C37 N33 1.279 . S
C37 C35 1.358 . S
C37 H79 0.930 . S
C38 C39 1.348 . S
C38 C40 1.356 . S
C38 O63 1.325 . S
C39 C38 1.348 . S
C39 C41 1.353 1_554 S
C39 H80 0.929 . S
C40 C38 1.356 . S
C40 C42 1.358 1_554 S
C40 H81 0.930 . S
C41 C39 1.353 1_556 S
C41 N43 1.314 . S
C41 H82 0.930 . S
C42 C40 1.358 1_556 S
C42 N43 1.279 . S
C42 H83 0.930 . S
N43 C41 1.314 . S
N43 C42 1.279 . S
C44 C46 1.353 . S
C44 N47 1.314 . S
C44 H50 0.930 . S
C45 N47 1.279 . S
C45 C48 1.358 . S
C45 H51 0.930 . S
C46 C44 1.353 . S
C46 C49 1.348 . S
C46 H84 0.929 . S
N47 Li2 1.990 . S
N47 C44 1.314 . S
N47 C45 1.279 . S
C48 C45 1.358 . S
C48 C49 1.356 . S
C48 H85 0.930 . S
C49 C46 1.348 . S
C49 C48 1.356 . S
H50 C44 0.930 . S
H51 C45 0.930 . S
C52 N53 1.314 . S
C52 C54 1.353 . S
C52 H58 0.930 . S
N53 Li3 1.990 . S
N53 C52 1.314 . S
N53 C56 1.279 . S
C54 C52 1.353 . S
C54 C57 1.348 . S
C54 H86 0.929 . S
C55 C56 1.358 . S
C55 C57 1.356 . S
C55 H87 0.930 . S
C56 N53 1.279 . S
C56 C55 1.358 . S
C56 H59 0.930 . S
C57 C54 1.348 . S
C57 C55 1.356 . S
H58 C52 0.930 . S
H59 C56 0.930 . S
O60 Li0 1.956 . S
O60 Li1 1.970 . S
O60 Li2 1.961 . S
O60 C4 1.325 . S
O61 Li0 1.970 . S
O61 Li1 1.956 . S
O61 Li3 1.961 . S
O61 C10 1.325 . S
O62 Li0 1.961 . S
O62 Li2 1.956 . S
O62 Li3 1.970 . S
O62 C32 1.325 . S
O63 Li1 1.961 . S
O63 Li2 1.970 . S
O63 Li3 1.956 . S
O63 C38 1.325 . S
H64 C6 0.929 . S
H65 C7 0.930 . S
H66 C8 0.930 . S
H67 C9 0.930 . S
H68 C11 0.930 . S
H69 C13 0.929 . S
H70 C14 0.930 . S
H71 C15 0.930 . S
H72 C18 0.930 . S
H73 C21 0.929 . S
H74 C26 0.929 . S
H75 C27 0.930 . S
H76 C34 0.929 . S
H77 C35 0.930 . S
H78 C36 0.930 . S
H79 C37 0.930 . S
H80 C39 0.929 . S
H81 C40 0.930 . S
H82 C41 0.930 . S
H83 C42 0.930 . S
H84 C46 0.929 . S
H85 C48 0.930 . S
H86 C54 0.929 . S
H87 C55 0.930 . S
Li88 N105 1.990 . S
Li88 O148 1.956 . S
Li88 O149 1.970 . S
Li88 O150 1.961 . S
Li89 N113 1.990 . S
Li89 O148 1.970 . S
Li89 O149 1.956 . S
Li89 O151 1.961 . S
Li90 N135 1.990 . S
Li90 O148 1.961 . S
Li90 O150 1.956 . S
Li90 O151 1.970 . S
Li91 N141 1.990 . S
Li91 O149 1.961 . S
Li91 O150 1.970 . S
Li91 O151 1.956 . S
C92 C94 1.348 . S
C92 C95 1.356 . S
C92 O148 1.325 . S
N93 C96 1.314 . S
N93 C97 1.279 . S
C94 C92 1.348 . S
C94 C96 1.353 . S
C94 H152 0.929 . S
C95 C92 1.356 . S
C95 C97 1.358 . S
C95 H153 0.930 . S
C96 N93 1.314 . S
C96 C94 1.353 . S
C96 H154 0.930 . S
C97 N93 1.279 . S
C97 C95 1.358 . S
C97 H155 0.930 . S
C98 C101 1.348 . S
C98 C102 1.356 . S
C98 O149 1.325 . S
C99 N100 1.279 . S
C99 C102 1.358 . S
C99 H156 0.930 . S
N100 C99 1.279 . S
N100 C103 1.314 . S
C101 C98 1.348 . S
C101 C103 1.353 . S
C101 H157 0.929 . S
C102 C98 1.356 . S
C102 C99 1.358 . S
C102 H158 0.930 . S
C103 N100 1.314 . S
C103 C101 1.353 . S
C103 H159 0.930 . S
C104 N105 1.314 . S
C104 C109 1.353 . S
C104 H110 0.930 . S
N105 Li88 1.990 . S
N105 C104 1.314 . S
N105 C107 1.279 . S
C106 C107 1.358 . S
C106 C108 1.356 . S
C106 H160 0.930 . S
C107 N105 1.279 . S
C107 C106 1.358 . S
C107 H111 0.930 . S
C108 C106 1.356 . S
C108 C109 1.348 . S
C109 C104 1.353 . S
C109 C108 1.348 . S
C109 H161 0.929 . S
H110 C104 0.930 . S
H111 C107 0.930 . S
C112 N113 1.314 . S
C112 C114 1.353 . S
C112 H118 0.930 . S
N113 Li89 1.990 . S
N113 C112 1.314 . S
N113 C116 1.279 . S
C114 C112 1.353 . S
C114 C117 1.348 . S
C114 H162 0.929 . S
C115 C116 1.358 . S
C115 C117 1.356 . S
C115 H163 0.930 . S
C116 N113 1.279 . S
C116 C115 1.358 . S
C116 H119 0.930 . S
C117 C114 1.348 . S
C117 C115 1.356 . S
H118 C112 0.930 . S
H119 C116 0.930 . S
C120 C122 1.348 . S
C120 C123 1.356 . S
C120 O150 1.325 . S
N121 C124 1.314 . S
N121 C125 1.279 . S
C122 C120 1.348 . S
C122 C124 1.353 . S
C122 H164 0.929 . S
C123 C120 1.356 . S
C123 C125 1.358 . S
C123 H165 0.930 . S
C124 N121 1.314 . S
C124 C122 1.353 . S
C124 H166 0.930 . S
C125 N121 1.279 . S
C125 C123 1.358 . S
C125 H167 0.930 . S
C126 C127 1.348 . S
C126 C128 1.356 . S
C126 O151 1.325 . S
C127 C126 1.348 . S
C127 C129 1.353 . S
C127 H168 0.929 . S
C128 C126 1.356 . S
C128 C130 1.358 . S
C128 H169 0.930 . S
C129 C127 1.353 . S
C129 N131 1.314 . S
C129 H170 0.930 . S
C130 C128 1.358 . S
C130 N131 1.279 . S
C130 H171 0.930 . S
N131 C129 1.314 . S
N131 C130 1.279 . S
C132 C134 1.353 . S
C132 N135 1.314 . S
C132 H138 0.930 . S
C133 N135 1.279 . S
C133 C136 1.358 . S
C133 H139 0.930 . S
C134 C132 1.353 . S
C134 C137 1.348 . S
C134 H172 0.929 . S
N135 Li90 1.990 . S
N135 C132 1.314 . S
N135 C133 1.279 . S
C136 C133 1.358 . S
C136 C137 1.356 . S
C136 H173 0.930 . S
C137 C134 1.348 . S
C137 C136 1.356 . S
H138 C132 0.930 . S
H139 C133 0.930 . S
C140 N141 1.314 . S
C140 C142 1.353 . S
C140 H146 0.930 . S
N141 Li91 1.990 . S
N141 C140 1.314 . S
N141 C144 1.279 . S
C142 C140 1.353 . S
C142 C145 1.348 . S
C142 H174 0.929 . S
C143 C144 1.358 . S
C143 C145 1.356 . S
C143 H175 0.930 . S
C144 N141 1.279 . S
C144 C143 1.358 . S
C144 H147 0.930 . S
C145 C142 1.348 . S
C145 C143 1.356 . S
H146 C140 0.930 . S
H147 C144 0.930 . S
O148 Li88 1.956 . S
O148 Li89 1.970 . S
O148 Li90 1.961 . S
O148 C92 1.325 . S
O149 Li88 1.970 . S
O149 Li89 1.956 . S
O149 Li91 1.961 . S
O149 C98 1.325 . S
O150 Li88 1.961 . S
O150 Li90 1.956 . S
O150 Li91 1.970 . S
O150 C120 1.325 . S
O151 Li89 1.961 . S
O151 Li90 1.970 . S
O151 Li91 1.956 . S
O151 C126 1.325 . S
H152 C94 0.929 . S
H153 C95 0.930 . S
H154 C96 0.930 . S
H155 C97 0.930 . S
H156 C99 0.930 . S
H157 C101 0.929 . S
H158 C102 0.930 . S
H159 C103 0.930 . S
H160 C106 0.930 . S
H161 C109 0.929 . S
H162 C114 0.929 . S
H163 C115 0.930 . S
H164 C122 0.929 . S
H165 C123 0.930 . S
H166 C124 0.930 . S
H167 C125 0.930 . S
H168 C127 0.929 . S
H169 C128 0.930 . S
H170 C129 0.930 . S
H171 C130 0.930 . S
H172 C134 0.929 . S
H173 C136 0.930 . S
H174 C142 0.929 . S
H175 C143 0.930 . S
Li176 N193 1.990 . S
Li176 O236 1.956 . S
Li176 O237 1.970 . S
Li176 O238 1.961 . S
Li177 N201 1.990 . S
Li177 O236 1.970 . S
Li177 O237 1.956 . S
Li177 O239 1.961 . S
Li178 N223 1.990 . S
Li178 O236 1.961 . S
Li178 O238 1.956 . S
Li178 O239 1.970 . S
Li179 N229 1.990 . S
Li179 O237 1.961 . S
Li179 O238 1.970 . S
Li179 O239 1.956 . S
C180 C182 1.348 . S
C180 C183 1.356 . S
C180 O236 1.325 . S
N181 C184 1.314 . S
N181 C185 1.279 . S
C182 C180 1.348 . S
C182 C184 1.353 . S
C182 H240 0.929 . S
C183 C180 1.356 . S
C183 C185 1.358 . S
C183 H241 0.930 . S
C184 N181 1.314 . S
C184 C182 1.353 . S
C184 H242 0.930 . S
C185 N181 1.279 . S
C185 C183 1.358 . S
C185 H243 0.930 . S
C186 C189 1.348 . S
C186 C190 1.356 . S
C186 O237 1.325 . S
C187 N188 1.279 . S
C187 C190 1.358 . S
C187 H244 0.930 . S
N188 C187 1.279 . S
N188 C191 1.314 . S
C189 C186 1.348 . S
C189 C191 1.353 . S
C189 H245 0.929 . S
C190 C186 1.356 . S
C190 C187 1.358 . S
C190 H246 0.930 . S
C191 N188 1.314 . S
C191 C189 1.353 . S
C191 H247 0.930 . S
C192 N193 1.314 . S
C192 C197 1.353 . S
C192 H198 0.930 . S
N193 Li176 1.990 . S
N193 C192 1.314 . S
N193 C195 1.279 . S
C194 C195 1.358 . S
C194 C196 1.356 . S
C194 H248 0.930 . S
C195 N193 1.279 . S
C195 C194 1.358 . S
C195 H199 0.930 . S
C196 C194 1.356 . S
C196 C197 1.348 . S
C197 C192 1.353 . S
C197 C196 1.348 . S
C197 H249 0.929 . S
H198 C192 0.930 . S
H199 C195 0.930 . S
C200 N201 1.314 . S
C200 C202 1.353 . S
C200 H206 0.930 . S
N201 Li177 1.990 . S
N201 C200 1.314 . S
N201 C204 1.279 . S
C202 C200 1.353 . S
C202 C205 1.348 . S
C202 H250 0.929 . S
C203 C204 1.358 . S
C203 C205 1.356 . S
C203 H251 0.930 . S
C204 N201 1.279 . S
C204 C203 1.358 . S
C204 H207 0.930 . S
C205 C202 1.348 . S
C205 C203 1.356 . S
H206 C200 0.930 . S
H207 C204 0.930 . S
C208 C210 1.348 . S
C208 C211 1.356 . S
C208 O238 1.325 . S
N209 C212 1.314 . S
N209 C213 1.279 . S
C210 C208 1.348 . S
C210 C212 1.353 . S
C210 H252 0.929 . S
C211 C208 1.356 . S
C211 C213 1.358 . S
C211 H253 0.930 . S
C212 N209 1.314 . S
C212 C210 1.353 . S
C212 H254 0.930 . S
C213 N209 1.279 . S
C213 C211 1.358 . S
C213 H255 0.930 . S
C214 C215 1.348 . S
C214 C216 1.356 . S
C214 O239 1.325 . S
C215 C214 1.348 . S
C215 C217 1.353 . S
C215 H256 0.929 . S
C216 C214 1.356 . S
C216 C218 1.358 . S
C216 H257 0.930 . S
C217 C215 1.353 . S
C217 N219 1.314 . S
C217 H258 0.930 . S
C218 C216 1.358 . S
C218 N219 1.279 . S
C218 H259 0.930 . S
N219 C217 1.314 . S
N219 C218 1.279 . S
C220 C222 1.353 . S
C220 N223 1.314 . S
C220 H226 0.930 . S
C221 N223 1.279 . S
C221 C224 1.358 . S
C221 H227 0.930 . S
C222 C220 1.353 . S
C222 C225 1.348 . S
C222 H260 0.929 . S
N223 Li178 1.990 . S
N223 C220 1.314 . S
N223 C221 1.279 . S
C224 C221 1.358 . S
C224 C225 1.356 . S
C224 H261 0.930 . S
C225 C222 1.348 . S
C225 C224 1.356 . S
H226 C220 0.930 . S
H227 C221 0.930 . S
C228 N229 1.314 . S
C228 C230 1.353 . S
C228 H234 0.930 . S
N229 Li179 1.990 . S
N229 C228 1.314 . S
N229 C232 1.279 . S
C230 C228 1.353 . S
C230 C233 1.348 . S
C230 H262 0.929 . S
C231 C232 1.358 . S
C231 C233 1.356 . S
C231 H263 0.930 . S
C232 N229 1.279 . S
C232 C231 1.358 . S
C232 H235 0.930 . S
C233 C230 1.348 . S
C233 C231 1.356 . S
H234 C228 0.930 . S
H235 C232 0.930 . S
O236 Li176 1.956 . S
O236 Li177 1.970 . S
O236 Li178 1.961 . S
O236 C180 1.325 . S
O237 Li176 1.970 . S
O237 Li177 1.956 . S
O237 Li179 1.961 . S
O237 C186 1.325 . S
O238 Li176 1.961 . S
O238 Li178 1.956 . S
O238 Li179 1.970 . S
O238 C208 1.325 . S
O239 Li177 1.961 . S
O239 Li178 1.970 . S
O239 Li179 1.956 . S
O239 C214 1.325 . S
H240 C182 0.929 . S
H241 C183 0.930 . S
H242 C184 0.930 . S
H243 C185 0.930 . S
H244 C187 0.930 . S
H245 C189 0.929 . S
H246 C190 0.930 . S
H247 C191 0.930 . S
H248 C194 0.930 . S
H249 C197 0.929 . S
H250 C202 0.929 . S
H251 C203 0.930 . S
H252 C210 0.929 . S
H253 C211 0.930 . S
H254 C212 0.930 . S
H255 C213 0.930 . S
H256 C215 0.929 . S
H257 C216 0.930 . S
H258 C217 0.930 . S
H259 C218 0.930 . S
H260 C222 0.929 . S
H261 C224 0.930 . S
H262 C230 0.929 . S
H263 C231 0.930 . S
Li264 N281 1.990 . S
Li264 O324 1.956 . S
Li264 O325 1.970 . S
Li264 O326 1.961 . S
Li265 N289 1.990 . S
Li265 O324 1.970 . S
Li265 O325 1.956 . S
Li265 O327 1.961 . S
Li266 N311 1.990 . S
Li266 O324 1.961 . S
Li266 O326 1.956 . S
Li266 O327 1.970 . S
Li267 N317 1.990 . S
Li267 O325 1.961 . S
Li267 O326 1.970 . S
Li267 O327 1.956 . S
C268 C270 1.348 . S
C268 C271 1.356 . S
C268 O324 1.325 . S
N269 C272 1.314 . S
N269 C273 1.279 . S
C270 C268 1.348 . S
C270 C272 1.353 . S
C270 H328 0.929 . S
C271 C268 1.356 . S
C271 C273 1.358 . S
C271 H329 0.930 . S
C272 N269 1.314 . S
C272 C270 1.353 . S
C272 H330 0.930 . S
C273 N269 1.279 . S
C273 C271 1.358 . S
C273 H331 0.930 . S
C274 C277 1.348 . S
C274 C278 1.356 . S
C274 O325 1.325 . S
C275 N276 1.279 . S
C275 C278 1.358 1_554 S
C275 H332 0.930 . S
N276 C275 1.279 . S
N276 C279 1.314 . S
C277 C274 1.348 . S
C277 C279 1.353 1_556 S
C277 H333 0.929 . S
C278 C274 1.356 . S
C278 C275 1.358 1_556 S
C278 H334 0.930 . S
C279 N276 1.314 . S
C279 C277 1.353 1_554 S
C279 H335 0.930 . S
C280 N281 1.314 . S
C280 C285 1.353 . S
C280 H286 0.930 . S
N281 Li264 1.990 . S
N281 C280 1.314 . S
N281 C283 1.279 . S
C282 C283 1.358 . S
C282 C284 1.356 . S
C282 H336 0.930 . S
C283 N281 1.279 . S
C283 C282 1.358 . S
C283 H287 0.930 . S
C284 C282 1.356 . S
C284 C285 1.348 . S
C285 C280 1.353 . S
C285 C284 1.348 . S
C285 H337 0.929 . S
H286 C280 0.930 . S
H287 C283 0.930 . S
C288 N289 1.314 . S
C288 C290 1.353 . S
C288 H294 0.930 . S
N289 Li265 1.990 . S
N289 C288 1.314 . S
N289 C292 1.279 . S
C290 C288 1.353 . S
C290 C293 1.348 . S
C290 H338 0.929 . S
C291 C292 1.358 . S
C291 C293 1.356 . S
C291 H339 0.930 . S
C292 N289 1.279 . S
C292 C291 1.358 . S
C292 H295 0.930 . S
C293 C290 1.348 . S
C293 C291 1.356 . S
H294 C288 0.930 . S
H295 C292 0.930 . S
C296 C298 1.348 . S
C296 C299 1.356 . S
C296 O326 1.325 . S
N297 C300 1.314 . S
N297 C301 1.279 . S
C298 C296 1.348 . S
C298 C300 1.353 . S
C298 H340 0.929 . S
C299 C296 1.356 . S
C299 C301 1.358 . S
C299 H341 0.930 . S
C300 N297 1.314 . S
C300 C298 1.353 . S
C300 H342 0.930 . S
C301 N297 1.279 . S
C301 C299 1.358 . S
C301 H343 0.930 . S
C302 C303 1.348 . S
C302 C304 1.356 . S
C302 O327 1.325 . S
C303 C302 1.348 . S
C303 C305 1.353 . S
C303 H344 0.929 . S
C304 C302 1.356 . S
C304 C306 1.358 . S
C304 H345 0.930 . S
C305 C303 1.353 . S
C305 N307 1.314 . S
C305 H346 0.930 . S
C306 C304 1.358 . S
C306 N307 1.279 . S
C306 H347 0.930 . S
N307 C305 1.314 . S
N307 C306 1.279 . S
C308 C310 1.353 . S
C308 N311 1.314 . S
C308 H314 0.930 . S
C309 N311 1.279 . S
C309 C312 1.358 . S
C309 H315 0.930 . S
C310 C308 1.353 . S
C310 C313 1.348 . S
C310 H348 0.929 . S
N311 Li266 1.990 . S
N311 C308 1.314 . S
N311 C309 1.279 . S
C312 C309 1.358 . S
C312 C313 1.356 . S
C312 H349 0.930 . S
C313 C310 1.348 . S
C313 C312 1.356 . S
H314 C308 0.930 . S
H315 C309 0.930 . S
C316 N317 1.314 . S
C316 C318 1.353 . S
C316 H322 0.930 . S
N317 Li267 1.990 . S
N317 C316 1.314 . S
N317 C320 1.279 . S
C318 C316 1.353 . S
C318 C321 1.348 . S
C318 H350 0.929 . S
C319 C320 1.358 . S
C319 C321 1.356 . S
C319 H351 0.930 . S
C320 N317 1.279 . S
C320 C319 1.358 . S
C320 H323 0.930 . S
C321 C318 1.348 . S
C321 C319 1.356 . S
H322 C316 0.930 . S
H323 C320 0.930 . S
O324 Li264 1.956 . S
O324 Li265 1.970 . S
O324 Li266 1.961 . S
O324 C268 1.325 . S
O325 Li264 1.970 . S
O325 Li265 1.956 . S
O325 Li267 1.961 . S
O325 C274 1.325 . S
O326 Li264 1.961 . S
O326 Li266 1.956 . S
O326 Li267 1.970 . S
O326 C296 1.325 . S
O327 Li265 1.961 . S
O327 Li266 1.970 . S
O327 Li267 1.956 . S
O327 C302 1.325 . S
H328 C270 0.929 . S
H329 C271 0.930 . S
H330 C272 0.930 . S
H331 C273 0.930 . S
H332 C275 0.930 . S
H333 C277 0.929 . S
H334 C278 0.930 . S
H335 C279 0.930 . S
H336 C282 0.930 . S
H337 C285 0.929 . S
H338 C290 0.929 . S
H339 C291 0.930 . S
H340 C298 0.929 . S
H341 C299 0.930 . S
H342 C300 0.930 . S
H343 C301 0.930 . S
H344 C303 0.929 . S
H345 C304 0.930 . S
H346 C305 0.930 . S
H347 C306 0.930 . S
H348 C310 0.929 . S
H349 C312 0.930 . S
H350 C318 0.929 . S
H351 C319 0.930 . S
C352 C353 1.349 . S
C352 C354 1.327 . S
C352 H377 0.950 . S
C353 C352 1.349 . S
C353 C369 1.349 . S
C354 C352 1.327 . S
C354 C373 1.429 . S
C354 H378 0.950 . S
C355 C372 1.574 . S
C355 C374 1.368 . S
C355 H379 0.949 . S
H356 C360 0.949 . S
C357 C358 1.349 . S
C357 C359 1.327 . S
C357 H380 0.950 . S
C358 C357 1.349 . S
C358 C370 1.349 . S
C359 C357 1.327 . S
C359 C375 1.429 . S
C359 H381 0.950 . S
C360 H356 0.949 . S
C360 C368 1.574 . S
C360 C376 1.368 . S
H361 C369 0.950 . S
H362 C367 0.950 . S
H363 C368 0.949 . S
H364 C370 0.950 . S
H365 C371 0.950 . S
H366 C372 0.949 . S
C367 H362 0.950 . S
C367 C369 1.327 . S
C367 C373 1.429 . S
C368 C360 1.574 . S
C368 H363 0.949 . S
C368 C374 1.368 . S
C369 C353 1.349 . S
C369 H361 0.950 . S
C369 C367 1.327 . S
C370 C358 1.349 . S
C370 H364 0.950 . S
C370 C371 1.327 . S
C371 H365 0.950 . S
C371 C370 1.327 . S
C371 C375 1.429 . S
C372 C355 1.574 . S
C372 H366 0.949 . S
C372 C376 1.368 . S
C373 C354 1.429 . S
C373 C367 1.429 . S
C373 C374 1.523 . S
C374 C355 1.368 . S
C374 C368 1.368 . S
C374 C373 1.523 . S
C375 C359 1.429 . S
C375 C371 1.429 . S
C375 C376 1.523 . S
C376 C360 1.368 . S
C376 C372 1.368 . S
C376 C375 1.523 . S
H377 C352 0.950 . S
H378 C354 0.950 . S
H379 C355 0.949 . S
H380 C357 0.950 . S
H381 C359 0.950 . S
C382 C383 1.349 . S
C382 C384 1.327 . S
C382 H407 0.950 . S
C383 C382 1.349 . S
C383 C399 1.349 . S
C384 C382 1.327 . S
C384 C403 1.429 . S
C384 H408 0.950 . S
C385 C402 1.574 . S
C385 C404 1.368 . S
C385 H409 0.949 . S
H386 C390 0.949 . S
C387 C388 1.349 . S
C387 C389 1.327 . S
C387 H410 0.950 . S
C388 C387 1.349 . S
C388 C400 1.349 . S
C389 C387 1.327 . S
C389 C405 1.429 . S
C389 H411 0.950 . S
C390 H386 0.949 . S
C390 C398 1.574 . S
C390 C406 1.368 . S
H391 C399 0.950 . S
H392 C397 0.950 . S
H393 C398 0.949 . S
H394 C400 0.950 . S
H395 C401 0.950 . S
H396 C402 0.949 . S
C397 H392 0.950 . S
C397 C399 1.327 . S
C397 C403 1.429 . S
C398 C390 1.574 . S
C398 H393 0.949 . S
C398 C404 1.368 . S
C399 C383 1.349 . S
C399 H391 0.950 . S
C399 C397 1.327 . S
C400 C388 1.349 . S
C400 H394 0.950 . S
C400 C401 1.327 . S
C401 H395 0.950 . S
C401 C400 1.327 . S
C401 C405 1.429 . S
C402 C385 1.574 . S
C402 H396 0.949 . S
C402 C406 1.368 . S
C403 C384 1.429 . S
C403 C397 1.429 . S
C403 C404 1.523 . S
C404 C385 1.368 . S
C404 C398 1.368 . S
C404 C403 1.523 . S
C405 C389 1.429 . S
C405 C401 1.429 . S
C405 C406 1.523 . S
C406 C390 1.368 . S
C406 C402 1.368 . S
C406 C405 1.523 . S
H407 C382 0.950 . S
H408 C384 0.950 . S
H409 C385 0.949 . S
H410 C387 0.950 . S
H411 C389 0.950 . S
C412 C413 1.349 . S
C412 C414 1.327 . S
C412 H437 0.950 . S
C413 C412 1.349 . S
C413 C429 1.349 . S
C414 C412 1.327 . S
C414 C433 1.429 . S
C414 H438 0.950 . S
C415 C432 1.574 . S
C415 C434 1.368 . S
C415 H439 0.949 . S
H416 C420 0.949 . S
C417 C418 1.349 . S
C417 C419 1.327 . S
C417 H440 0.950 . S
C418 C417 1.349 . S
C418 C430 1.349 . S
C419 C417 1.327 . S
C419 C435 1.429 . S
C419 H441 0.950 . S
C420 H416 0.949 . S
C420 C428 1.574 . S
C420 C436 1.368 . S
H421 C429 0.950 . S
H422 C427 0.950 . S
H423 C428 0.949 . S
H424 C430 0.950 . S
H425 C431 0.950 . S
H426 C432 0.949 . S
C427 H422 0.950 . S
C427 C429 1.327 . S
C427 C433 1.429 . S
C428 C420 1.574 . S
C428 H423 0.949 . S
C428 C434 1.368 1_556 S
C429 C413 1.349 . S
C429 H421 0.950 . S
C429 C427 1.327 . S
C430 C418 1.349 . S
C430 H424 0.950 . S
C430 C431 1.327 . S
C431 H425 0.950 . S
C431 C430 1.327 . S
C431 C435 1.429 . S
C432 C415 1.574 . S
C432 H426 0.949 . S
C432 C436 1.368 1_554 S
C433 C414 1.429 . S
C433 C427 1.429 . S
C433 C434 1.523 . S
C434 C415 1.368 . S
C434 C428 1.368 1_554 S
C434 C433 1.523 . S
C435 C419 1.429 . S
C435 C431 1.429 . S
C435 C436 1.523 . S
C436 C420 1.368 . S
C436 C432 1.368 1_556 S
C436 C435 1.523 . S
H437 C412 0.950 . S
H438 C414 0.950 . S
H439 C415 0.949 . S
H440 C417 0.950 . S
H441 C419 0.950 . S
C442 C443 1.349 . S
C442 C444 1.327 . S
C442 H467 0.950 . S
C443 C442 1.349 . S
C443 C459 1.349 . S
C444 C442 1.327 . S
C444 C463 1.429 . S
C444 H468 0.950 . S
C445 C462 1.574 1_455 S
C445 C464 1.368 . S
C445 H469 0.949 . S
H446 C450 0.949 . S
C447 C448 1.349 . S
C447 C449 1.327 . S
C447 H470 0.950 . S
C448 C447 1.349 . S
C448 C460 1.349 . S
C449 C447 1.327 . S
C449 C465 1.429 . S
C449 H471 0.950 . S
C450 H446 0.949 . S
C450 C458 1.574 1_655 S
C450 C466 1.368 . S
H451 C459 0.950 . S
H452 C457 0.950 . S
H453 C458 0.949 . S
H454 C460 0.950 . S
H455 C461 0.950 . S
H456 C462 0.949 . S
C457 H452 0.950 . S
C457 C459 1.327 . S
C457 C463 1.429 . S
C458 C450 1.574 1_455 S
C458 H453 0.949 . S
C458 C464 1.368 . S
C459 C443 1.349 . S
C459 H451 0.950 . S
C459 C457 1.327 . S
C460 C448 1.349 . S
C460 H454 0.950 . S
C460 C461 1.327 . S
C461 H455 0.950 . S
C461 C460 1.327 . S
C461 C465 1.429 . S
C462 C445 1.574 1_655 S
C462 H456 0.949 . S
C462 C466 1.368 . S
C463 C444 1.429 . S
C463 C457 1.429 . S
C463 C464 1.523 . S
C464 C445 1.368 . S
C464 C458 1.368 . S
C464 C463 1.523 . S
C465 C449 1.429 . S
C465 C461 1.429 . S
C465 C466 1.523 . S
C466 C450 1.368 . S
C466 C462 1.368 . S
C466 C465 1.523 . S
H467 C442 0.950 . S
H468 C444 0.950 . S
H469 C445 0.949 . S
H470 C447 0.950 . S
H471 C449 0.950 . S
C472 C473 1.349 . S
C472 C474 1.327 . S
C472 H497 0.950 . S
C473 C472 1.349 . S
C473 C489 1.349 . S
C474 C472 1.327 . S
C474 C493 1.429 . S
C474 H498 0.950 1_556 S
C475 C492 1.574 1_545 S
C475 C494 1.368 . S
C475 H499 0.949 . S
H476 C480 0.949 . S
C477 C478 1.349 . S
C477 C479 1.327 . S
C477 H500 0.950 . S
C478 C477 1.349 . S
C478 C490 1.349 . S
C479 C477 1.327 . S
C479 C495 1.429 . S
C479 H501 0.950 1_554 S
C480 H476 0.949 . S
C480 C488 1.574 1_565 S
C480 C496 1.368 . S
H481 C489 0.950 . S
H482 C487 0.950 . S
H483 C488 0.949 . S
H484 C490 0.950 . S
H485 C491 0.950 . S
H486 C492 0.949 . S
C487 H482 0.950 . S
C487 C489 1.327 . S
C487 C493 1.429 . S
C488 C480 1.574 1_545 S
C488 H483 0.949 . S
C488 C494 1.368 1_554 S
C489 C473 1.349 . S
C489 H481 0.950 . S
C489 C487 1.327 . S
C490 C478 1.349 . S
C490 H484 0.950 . S
C490 C491 1.327 . S
C491 H485 0.950 . S
C491 C490 1.327 . S
C491 C495 1.429 . S
C492 C475 1.574 1_565 S
C492 H486 0.949 . S
C492 C496 1.368 1_556 S
C493 C474 1.429 . S
C493 C487 1.429 . S
C493 C494 1.523 . S
C494 C475 1.368 . S
C494 C488 1.368 1_556 S
C494 C493 1.523 . S
C495 C479 1.429 . S
C495 C491 1.429 . S
C495 C496 1.523 . S
C496 C480 1.368 . S
C496 C492 1.368 1_554 S
C496 C495 1.523 . S
H497 C472 0.950 . S
H498 C474 0.950 1_554 S
H499 C475 0.949 . S
H500 C477 0.950 . S
H501 C479 0.950 1_556 S
C502 C503 1.349 . S
C502 C504 1.327 . S
C502 H527 0.950 . S
C503 C502 1.349 . S
C503 C519 1.349 . S
C504 C502 1.327 . S
C504 C523 1.429 . S
C504 H528 0.950 . S
C505 C522 1.574 . S
C505 C524 1.368 . S
C505 H529 0.949 . S
H506 C510 0.949 . S
C507 C508 1.349 . S
C507 C509 1.327 . S
C507 H530 0.950 . S
C508 C507 1.349 . S
C508 C520 1.349 . S
C509 C507 1.327 . S
C509 C525 1.429 . S
C509 H531 0.950 . S
C510 H506 0.949 . S
C510 C518 1.574 . S
C510 C526 1.368 . S
H511 C519 0.950 . S
H512 C517 0.950 . S
H513 C518 0.949 . S
H514 C520 0.950 . S
H515 C521 0.950 . S
H516 C522 0.949 . S
C517 H512 0.950 . S
C517 C519 1.327 . S
C517 C523 1.429 . S
C518 C510 1.574 . S
C518 H513 0.949 . S
C518 C524 1.368 . S
C519 C503 1.349 . S
C519 H511 0.950 . S
C519 C517 1.327 . S
C520 C508 1.349 . S
C520 H514 0.950 . S
C520 C521 1.327 . S
C521 H515 0.950 . S
C521 C520 1.327 . S
C521 C525 1.429 . S
C522 C505 1.574 . S
C522 H516 0.949 . S
C522 C526 1.368 . S
C523 C504 1.429 . S
C523 C517 1.429 . S
C523 C524 1.523 . S
C524 C505 1.368 . S
C524 C518 1.368 . S
C524 C523 1.523 . S
C525 C509 1.429 . S
C525 C521 1.429 . S
C525 C526 1.523 . S
C526 C510 1.368 . S
C526 C522 1.368 . S
C526 C525 1.523 . S
H527 C502 0.950 . S
H528 C504 0.950 . S
H529 C505 0.949 . S
H530 C507 0.950 . S
H531 C509 0.950 . S
C532 C533 1.349 . S
C532 C534 1.327 . S
C532 H557 0.950 . S
C533 C532 1.349 . S
C533 C549 1.349 . S
C534 C532 1.327 . S
C534 C553 1.429 . S
C534 H558 0.950 . S
C535 C552 1.574 1_455 S
C535 C554 1.368 1_556 S
C535 H559 0.949 . S
H536 C540 0.949 . S
C537 C538 1.349 . S
C537 C539 1.327 . S
C537 H560 0.950 . S
C538 C537 1.349 . S
C538 C550 1.349 . S
C539 C537 1.327 . S
C539 C555 1.429 . S
C539 H561 0.950 . S
C540 H536 0.949 . S
C540 C548 1.574 1_655 S
C540 C556 1.368 1_554 S
H541 C549 0.937 1_556 S
H542 C547 0.950 1_556 S
H543 C548 0.949 . S
H544 C550 0.921 1_554 S
H545 C551 0.950 1_554 S
H546 C552 0.949 . S
C547 H542 0.950 1_554 S
C547 C549 1.327 . S
C547 C553 1.429 . S
C548 C540 1.574 1_455 S
C548 H543 0.949 . S
C548 C554 1.368 . S
C549 C533 1.349 . S
C549 H541 0.937 1_554 S
C549 C547 1.327 . S
C550 C538 1.349 . S
C550 H544 0.921 1_556 S
C550 C551 1.327 . S
C551 H545 0.950 1_556 S
C551 C550 1.327 . S
C551 C555 1.429 . S
C552 C535 1.574 1_655 S
C552 H546 0.949 . S
C552 C556 1.368 . S
C553 C534 1.429 . S
C553 C547 1.429 . S
C553 C554 1.523 . S
C554 C535 1.368 1_554 S
C554 C548 1.368 . S
C554 C553 1.523 . S
C555 C539 1.429 . S
C555 C551 1.429 . S
C555 C556 1.523 . S
C556 C540 1.368 1_556 S
C556 C552 1.368 . S
C556 C555 1.523 . S
H557 C532 0.950 . S
H558 C534 0.950 . S
H559 C535 0.949 . S
H560 C537 0.950 . S
H561 C539 0.950 . S
C562 C563 1.349 . S
C562 C564 1.327 . S
C562 H587 0.950 . S
C563 C562 1.349 . S
C563 C579 1.349 . S
C564 C562 1.327 . S
C564 C583 1.429 . S
C564 H588 0.950 . S
C565 C582 1.574 1_545 S
C565 C584 1.368 . S
C565 H589 0.949 . S
H566 C570 0.949 . S
C567 C568 1.349 . S
C567 C569 1.327 . S
C567 H590 0.950 . S
C568 C567 1.349 . S
C568 C580 1.349 . S
C569 C567 1.327 . S
C569 C585 1.429 . S
C569 H591 0.950 . S
C570 H566 0.949 . S
C570 C578 1.574 1_565 S
C570 C586 1.368 . S
H571 C579 0.950 . S
H572 C577 0.950 . S
H573 C578 0.949 . S
H574 C580 0.950 . S
H575 C581 0.950 . S
H576 C582 0.949 . S
C577 H572 0.950 . S
C577 C579 1.327 . S
C577 C583 1.429 . S
C578 C570 1.574 1_545 S
C578 H573 0.949 . S
C578 C584 1.368 . S
C579 C563 1.349 . S
C579 H571 0.950 . S
C579 C577 1.327 . S
C580 C568 1.349 . S
C580 H574 0.950 . S
C580 C581 1.327 . S
C581 H575 0.950 . S
C581 C580 1.327 . S
C581 C585 1.429 . S
C582 C565 1.574 1_565 S
C582 H576 0.949 . S
C582 C586 1.368 . S
C583 C564 1.429 . S
C583 C577 1.429 . S
C583 C584 1.523 . S
C584 C565 1.368 . S
C584 C578 1.368 . S
C584 C583 1.523 . S
C585 C569 1.429 . S
C585 C581 1.429 . S
C585 C586 1.523 . S
C586 C570 1.368 . S
C586 C582 1.368 . S
C586 C585 1.523 . S
H587 C562 0.950 . S
H588 C564 0.950 . S
H589 C565 0.949 . S
H590 C567 0.950 . S
H591 C569 0.950 . S
C353 C20 1.500 . S
C358 C205 1.500 . S
C383 C145 1.500 . S
C388 C313 1.500 . S
C413 C29 1.493 . S
C418 C293 1.493 . S
C443 C225 1.507 . S
C448 C117 1.507 . S
C473 C284 1.514 . S
C478 C49 1.514 . S
C503 C108 1.507 . S
C508 C233 1.507 . S
C533 C57 1.493 . S
C538 C321 1.493 . S
C563 C137 1.486 . S
C568 C196 1.486 . S
