# Generated by pormake.
# Topology snl, (6)-cn, num edge types: 1
# Building blocks:
#     Node 0, Type 0, BuildingBlock: BETFAJ_clean_sbu_0, # of connection points: 6
#     Node 1, Type 0, BuildingBlock: BETFAJ_clean_sbu_0, # of connection points: 6
#     Node 2, Type 0, BuildingBlock: BETFAJ_clean_sbu_0, # of connection points: 6
#     Node 3, Type 0, BuildingBlock: BETFAJ_clean_sbu_0, # of connection points: 6
#     Node 4, Type 0, BuildingBlock: BETFAJ_clean_sbu_0, # of connection points: 6
#     Node 5, Type 0, BuildingBlock: BETFAJ_clean_sbu_0, # of connection points: 6
#     Node 6, Type 0, BuildingBlock: BETFAJ_clean_sbu_0, # of connection points: 6
#     Node 7, Type 0, BuildingBlock: BETFAJ_clean_sbu_0, # of connection points: 6
#     Node 8, Type 0, BuildingBlock: BETFAJ_clean_sbu_0, # of connection points: 6
#     Node 9, Type 0, BuildingBlock: BETFAJ_clean_sbu_0, # of connection points: 6
#     Node 10, Type 0, BuildingBlock: BETFAJ_clean_sbu_0, # of connection points: 6
#     Node 11, Type 0, BuildingBlock: BETFAJ_clean_sbu_0, # of connection points: 6
#     Node 12, Type 0, BuildingBlock: BETFAJ_clean_sbu_0, # of connection points: 6
#     Node 13, Type 0, BuildingBlock: BETFAJ_clean_sbu_0, # of connection points: 6
#     Node 14, Type 0, BuildingBlock: BETFAJ_clean_sbu_0, # of connection points: 6
#     Node 15, Type 0, BuildingBlock: BETFAJ_clean_sbu_0, # of connection points: 6
#     Edge 16, Type (0, 0), BuildingBlock: UVAHIK_clean_linker_0, # of connection points: 2
#     Edge 17, Type (0, 0), BuildingBlock: UVAHIK_clean_linker_0, # of connection points: 2
#     Edge 18, Type (0, 0), BuildingBlock: UVAHIK_clean_linker_0, # of connection points: 2
#     Edge 19, Type (0, 0), BuildingBlock: UVAHIK_clean_linker_0, # of connection points: 2
#     Edge 20, Type (0, 0), BuildingBlock: UVAHIK_clean_linker_0, # of connection points: 2
#     Edge 21, Type (0, 0), BuildingBlock: UVAHIK_clean_linker_0, # of connection points: 2
#     Edge 22, Type (0, 0), BuildingBlock: UVAHIK_clean_linker_0, # of connection points: 2
#     Edge 23, Type (0, 0), BuildingBlock: UVAHIK_clean_linker_0, # of connection points: 2
#     Edge 24, Type (0, 0), BuildingBlock: UVAHIK_clean_linker_0, # of connection points: 2
#     Edge 25, Type (0, 0), BuildingBlock: UVAHIK_clean_linker_0, # of connection points: 2
#     Edge 26, Type (0, 0), BuildingBlock: UVAHIK_clean_linker_0, # of connection points: 2
#     Edge 27, Type (0, 0), BuildingBlock: UVAHIK_clean_linker_0, # of connection points: 2
#     Edge 28, Type (0, 0), BuildingBlock: UVAHIK_clean_linker_0, # of connection points: 2
#     Edge 29, Type (0, 0), BuildingBlock: UVAHIK_clean_linker_0, # of connection points: 2
#     Edge 30, Type (0, 0), BuildingBlock: UVAHIK_clean_linker_0, # of connection points: 2
#     Edge 31, Type (0, 0), BuildingBlock: UVAHIK_clean_linker_0, # of connection points: 2
#     Edge 32, Type (0, 0), BuildingBlock: UVAHIK_clean_linker_0, # of connection points: 2
#     Edge 33, Type (0, 0), BuildingBlock: UVAHIK_clean_linker_0, # of connection points: 2
#     Edge 34, Type (0, 0), BuildingBlock: UVAHIK_clean_linker_0, # of connection points: 2
#     Edge 35, Type (0, 0), BuildingBlock: UVAHIK_clean_linker_0, # of connection points: 2
#     Edge 36, Type (0, 0), BuildingBlock: UVAHIK_clean_linker_0, # of connection points: 2
#     Edge 37, Type (0, 0), BuildingBlock: UVAHIK_clean_linker_0, # of connection points: 2
#     Edge 38, Type (0, 0), BuildingBlock: UVAHIK_clean_linker_0, # of connection points: 2
#     Edge 39, Type (0, 0), BuildingBlock: UVAHIK_clean_linker_0, # of connection points: 2
#     Edge 40, Type (0, 0), BuildingBlock: UVAHIK_clean_linker_0, # of connection points: 2
#     Edge 41, Type (0, 0), BuildingBlock: UVAHIK_clean_linker_0, # of connection points: 2
#     Edge 42, Type (0, 0), BuildingBlock: UVAHIK_clean_linker_0, # of connection points: 2
#     Edge 43, Type (0, 0), BuildingBlock: UVAHIK_clean_linker_0, # of connection points: 2
#     Edge 44, Type (0, 0), BuildingBlock: UVAHIK_clean_linker_0, # of connection points: 2
#     Edge 45, Type (0, 0), BuildingBlock: UVAHIK_clean_linker_0, # of connection points: 2
#     Edge 46, Type (0, 0), BuildingBlock: UVAHIK_clean_linker_0, # of connection points: 2
#     Edge 47, Type (0, 0), BuildingBlock: UVAHIK_clean_linker_0, # of connection points: 2
#     Edge 48, Type (0, 0), BuildingBlock: UVAHIK_clean_linker_0, # of connection points: 2
#     Edge 49, Type (0, 0), BuildingBlock: UVAHIK_clean_linker_0, # of connection points: 2
#     Edge 50, Type (0, 0), BuildingBlock: UVAHIK_clean_linker_0, # of connection points: 2
#     Edge 51, Type (0, 0), BuildingBlock: UVAHIK_clean_linker_0, # of connection points: 2
#     Edge 52, Type (0, 0), BuildingBlock: UVAHIK_clean_linker_0, # of connection points: 2
#     Edge 53, Type (0, 0), BuildingBlock: UVAHIK_clean_linker_0, # of connection points: 2
#     Edge 54, Type (0, 0), BuildingBlock: UVAHIK_clean_linker_0, # of connection points: 2
#     Edge 55, Type (0, 0), BuildingBlock: UVAHIK_clean_linker_0, # of connection points: 2
#     Edge 56, Type (0, 0), BuildingBlock: UVAHIK_clean_linker_0, # of connection points: 2
#     Edge 57, Type (0, 0), BuildingBlock: UVAHIK_clean_linker_0, # of connection points: 2
#     Edge 58, Type (0, 0), BuildingBlock: UVAHIK_clean_linker_0, # of connection points: 2
#     Edge 59, Type (0, 0), BuildingBlock: UVAHIK_clean_linker_0, # of connection points: 2
#     Edge 60, Type (0, 0), BuildingBlock: UVAHIK_clean_linker_0, # of connection points: 2
#     Edge 61, Type (0, 0), BuildingBlock: UVAHIK_clean_linker_0, # of connection points: 2
#     Edge 62, Type (0, 0), BuildingBlock: UVAHIK_clean_linker_0, # of connection points: 2
#     Edge 63, Type (0, 0), BuildingBlock: UVAHIK_clean_linker_0, # of connection points: 2
# Relax obj value: 0.186
# Max RMSD: 0.248
# Mean RMSD: 0.216
data_MOF--net-snl--node1-BETFAJ_clean_sbu_0--edge1-UVAHIK_clean_linker_0
_symmetry_space_group_name_H-M    P1
_symmetry_Int_Tables_number       1
_symmetry_cell_setting            triclinic
loop_
_symmetry_equiv_pos_as_xyz
'x, y, z'
_cell_length_a     74.808737
_cell_length_b     74.981295
_cell_length_c     30.550653
_cell_angle_alpha  102.88959
_cell_angle_beta   89.951076
_cell_angle_gamma 89.95494
loop_
_atom_site_label
_atom_site_type_symbol
_atom_site_fract_x
_atom_site_fract_y
_atom_site_fract_z
_atom_type_partial_charge
Sm0 Sm 0.14447 0.62621 0.1133 0.0
Sm1 Sm 0.13002 0.63219 0.20502 0.0
C2 C 0.15215 0.61507 0.02642 0.0
C3 C 0.1477 0.61792 0.98119 0.0
C4 C 0.14316 0.60278 0.94694 0.0
C5 C 0.14056 0.60473 0.90286 0.0
C6 C 0.14254 0.62189 0.89191 0.0
C7 C 0.14669 0.63713 0.92652 0.0
C8 C 0.14922 0.63519 0.97067 0.0
C9 C 0.14318 0.66292 0.15559 0.0
C10 C 0.10096 0.63268 0.1304 0.0
C11 C 0.12174 0.64168 0.29184 0.0
C12 C 0.12621 0.6386 0.33688 0.0
C13 C 0.13112 0.65358 0.3712 0.0
C14 C 0.13376 0.65148 0.41512 0.0
C15 C 0.13146 0.63433 0.4259 0.0
C16 C 0.12693 0.61924 0.39124 0.0
C17 C 0.12434 0.62134 0.34723 0.0
C18 C 0.13132 0.59579 0.15895 0.0
C19 C 0.17334 0.62806 0.1919 0.0
O20 O 0.14026 0.60703 0.04681 0.0
O21 O 0.16075 0.62811 0.05383 0.0
O22 O 0.13102 0.65141 0.15709 0.0
O23 O 0.15628 0.65524 0.13065 0.0
O24 O 0.11328 0.6238 0.10259 0.0
O25 O 0.1054 0.64092 0.17157 0.0
O26 O 0.13325 0.65065 0.27273 0.0
O27 O 0.11383 0.62848 0.26325 0.0
O28 O 0.14356 0.60738 0.16058 0.0
O29 O 0.11782 0.60307 0.18299 0.0
O30 O 0.1603 0.63612 0.21801 0.0
O31 O 0.17002 0.61978 0.14979 0.0
H32 H 0.14206 0.5893 0.95406 0.0
H33 H 0.13757 0.59265 0.87707 0.0
H34 H 0.14807 0.65059 0.91945 0.0
H35 H 0.15268 0.64715 0.99633 0.0
H36 H 0.13247 0.66707 0.36426 0.0
H37 H 0.13703 0.66345 0.44094 0.0
H38 H 0.12529 0.60578 0.39816 0.0
H39 H 0.12056 0.6095 0.32156 0.0
Sm40 Sm 0.6443 0.88472 0.41011 0.0
Sm41 Sm 0.62994 0.87864 0.31827 0.0
C42 C 0.65197 0.89598 0.49691 0.0
C43 C 0.64752 0.89334 0.54234 0.0
C44 C 0.64205 0.90844 0.57567 0.0
C45 C 0.6395 0.90679 0.62 0.0
C46 C 0.64245 0.88999 0.63218 0.0
C47 C 0.64748 0.87475 0.59844 0.0
C48 C 0.64999 0.87639 0.55405 0.0
C49 C 0.64287 0.84798 0.36807 0.0
C50 C 0.60081 0.87848 0.39317 0.0
C51 C 0.6217 0.86889 0.23151 0.0
C52 C 0.62625 0.87169 0.18624 0.0
C53 C 0.63212 0.85674 0.15299 0.0
C54 C 0.63474 0.85847 0.10876 0.0
C55 C 0.63146 0.8752 0.09656 0.0
C56 C 0.62602 0.89031 0.13018 0.0
C57 C 0.62342 0.88857 0.17449 0.0
C58 C 0.63122 0.91505 0.36393 0.0
C59 C 0.67325 0.88278 0.33149 0.0
O60 O 0.64013 0.90404 0.47641 0.0
O61 O 0.66053 0.88284 0.46962 0.0
O62 O 0.6308 0.85958 0.36651 0.0
O63 O 0.65598 0.85557 0.39302 0.0
O64 O 0.61313 0.88731 0.42093 0.0
O65 O 0.60525 0.87018 0.35201 0.0
O66 O 0.6331 0.85989 0.2509 0.0
O67 O 0.61386 0.88226 0.25983 0.0
O68 O 0.64345 0.90344 0.36255 0.0
O69 O 0.61777 0.9078 0.33976 0.0
O70 O 0.66025 0.87472 0.30533 0.0
O71 O 0.66988 0.89106 0.3736 0.0
H72 H 0.64011 0.92166 0.56762 0.0
H73 H 0.63532 0.91875 0.64482 0.0
H74 H 0.65007 0.86164 0.60655 0.0
H75 H 0.65429 0.86449 0.5292 0.0
H76 H 0.63432 0.84354 0.16101 0.0
H77 H 0.63922 0.84661 0.08402 0.0
H78 H 0.62319 0.90335 0.12202 0.0
H79 H 0.61878 0.90036 0.19921 0.0
Sm80 Sm 0.3751 0.39723 0.67197 0.0
Sm81 Sm 0.37878 0.37712 0.5674 0.0
C82 C 0.36164 0.408 0.75407 0.0
C83 C 0.36429 0.40578 0.80064 0.0
C84 C 0.34929 0.40546 0.82802 0.0
C85 C 0.35123 0.40323 0.87208 0.0
C86 C 0.36827 0.40124 0.88998 0.0
C87 C 0.38333 0.40161 0.86238 0.0
C88 C 0.38136 0.4038 0.81814 0.0
C89 C 0.411 0.39154 0.64981 0.0
C90 C 0.38184 0.35234 0.63984 0.0
C91 C 0.38727 0.36672 0.48088 0.0
C92 C 0.38524 0.37197 0.43699 0.0
C93 C 0.40047 0.3729 0.4107 0.0
C94 C 0.39893 0.37653 0.36779 0.0
C95 C 0.38206 0.37924 0.34987 0.0
C96 C 0.36681 0.3786 0.37662 0.0
C97 C 0.36838 0.37504 0.41967 0.0
C98 C 0.34502 0.37909 0.60548 0.0
C99 C 0.37388 0.42238 0.59558 0.0
O100 O 0.35591 0.39359 0.72489 0.0
O101 O 0.37357 0.41746 0.73732 0.0
O102 O 0.39773 0.38698 0.62434 0.0
O103 O 0.40526 0.39958 0.68943 0.0
O104 O 0.37386 0.36589 0.6687 0.0
O105 O 0.3882 0.35441 0.60091 0.0
O106 O 0.39773 0.37683 0.51081 0.0
O107 O 0.37309 0.3609 0.49864 0.0
O108 O 0.35673 0.39145 0.61258 0.0
O109 O 0.35054 0.36519 0.57492 0.0
O110 O 0.37713 0.40738 0.56446 0.0
O111 O 0.37163 0.42216 0.63871 0.0
H112 H 0.33598 0.40697 0.81527 0.0
H113 H 0.33933 0.40329 0.89233 0.0
H114 H 0.39665 0.39992 0.87472 0.0
H115 H 0.39316 0.40386 0.79757 0.0
H116 H 0.41362 0.37046 0.42306 0.0
H117 H 0.41096 0.37668 0.34814 0.0
H118 H 0.35363 0.38087 0.36429 0.0
H119 H 0.35636 0.37447 0.43911 0.0
Sm120 Sm 0.87472 0.11349 0.85267 0.0
Sm121 Sm 0.87786 0.13407 0.95662 0.0
C122 C 0.86145 0.10234 0.77052 0.0
C123 C 0.8641 0.10464 0.72396 0.0
C124 C 0.84916 0.10441 0.69612 0.0
C125 C 0.85115 0.10641 0.65185 0.0
C126 C 0.86818 0.10869 0.63416 0.0
C127 C 0.88316 0.10907 0.66239 0.0
C128 C 0.88114 0.10707 0.7068 0.0
C129 C 0.91052 0.11911 0.87526 0.0
C130 C 0.8816 0.15845 0.88352 0.0
C131 C 0.88507 0.1451 0.04377 0.0
C132 C 0.88383 0.13952 0.0875 0.0
C133 C 0.89938 0.13909 0.11298 0.0
C134 C 0.89847 0.13543 0.15598 0.0
C135 C 0.88194 0.13217 0.17488 0.0
C136 C 0.86639 0.1322 0.14884 0.0
C137 C 0.86732 0.13583 0.10574 0.0
C138 C 0.84453 0.13217 0.91661 0.0
C139 C 0.87376 0.0887 0.92962 0.0
O140 O 0.85529 0.11655 0.79972 0.0
O141 O 0.87365 0.0932 0.78738 0.0
O142 O 0.89722 0.12385 0.90062 0.0
O143 O 0.90489 0.11093 0.83568 0.0
O144 O 0.87386 0.14477 0.85459 0.0
O145 O 0.88753 0.15664 0.92303 0.0
O146 O 0.89673 0.13664 0.0143 0.0
O147 O 0.87023 0.14906 0.02528 0.0
O148 O 0.856 0.11957 0.91139 0.0
O149 O 0.8502 0.14652 0.94542 0.0
O150 O 0.87692 0.10383 0.96038 0.0
O151 O 0.87134 0.08876 0.88649 0.0
H152 H 0.83587 0.10269 0.70869 0.0
H153 H 0.83926 0.10639 0.63166 0.0
H154 H 0.8965 0.11062 0.65 0.0
H155 H 0.89289 0.10737 0.72763 0.0
H156 H 0.91229 0.14192 0.0999 0.0
H157 H 0.91078 0.13521 0.17447 0.0
H158 H 0.85339 0.12995 0.16222 0.0
H159 H 0.85504 0.13612 0.08715 0.0
Sm160 Sm 0.14464 0.38495 0.90864 0.0
Sm161 Sm 0.12992 0.37919 0.81688 0.0
C162 C 0.1526 0.39602 0.99535 0.0
C163 C 0.14805 0.39354 0.04081 0.0
C164 C 0.14621 0.40902 0.07607 0.0
C165 C 0.14354 0.40717 0.1202 0.0
C166 C 0.14272 0.38974 0.13018 0.0
C167 C 0.14415 0.37421 0.09457 0.0
C168 C 0.14677 0.37609 0.05035 0.0
C169 C 0.14308 0.34832 0.86586 0.0
C170 C 0.10101 0.37888 0.89245 0.0
C171 C 0.12144 0.36967 0.73022 0.0
C172 C 0.12609 0.37231 0.68491 0.0
C173 C 0.12813 0.35689 0.64956 0.0
C174 C 0.13091 0.35884 0.60555 0.0
C175 C 0.13165 0.3763 0.59576 0.0
C176 C 0.12999 0.39177 0.63146 0.0
C177 C 0.12725 0.3898 0.67556 0.0
C178 C 0.13132 0.41548 0.86339 0.0
C179 C 0.17335 0.38314 0.82941 0.0
O180 O 0.141 0.40442 0.97501 0.0
O181 O 0.16071 0.38255 0.96802 0.0
O182 O 0.13098 0.35997 0.8648 0.0
O183 O 0.15629 0.35583 0.89057 0.0
O184 O 0.11352 0.38735 0.92018 0.0
O185 O 0.10517 0.37091 0.85084 0.0
O186 O 0.13256 0.36032 0.74942 0.0
O187 O 0.11408 0.38335 0.75859 0.0
O188 O 0.14356 0.40383 0.86147 0.0
O189 O 0.11782 0.40833 0.83928 0.0
O190 O 0.16021 0.37532 0.80332 0.0
O191 O 0.17016 0.39121 0.87177 0.0
H192 H 0.14728 0.42262 0.06962 0.0
H193 H 0.1427 0.41943 0.14671 0.0
H194 H 0.14332 0.36059 0.10087 0.0
H195 H 0.14809 0.36388 0.0238 0.0
H196 H 0.12714 0.34326 0.65582 0.0
H197 H 0.13191 0.34661 0.57897 0.0
H198 H 0.13073 0.40542 0.6253 0.0
H199 H 0.12576 0.40196 0.70215 0.0
Sm200 Sm 0.87559 0.89652 0.17348 0.0
Sm201 Sm 0.87831 0.87686 0.0687 0.0
C202 C 0.86239 0.90762 0.25568 0.0
C203 C 0.86495 0.90535 0.30217 0.0
C204 C 0.84996 0.90587 0.33003 0.0
C205 C 0.85182 0.90364 0.3741 0.0
C206 C 0.86877 0.90083 0.39146 0.0
C207 C 0.88381 0.90034 0.36337 0.0
C208 C 0.88192 0.90252 0.31912 0.0
C209 C 0.91119 0.88977 0.15033 0.0
C210 C 0.88194 0.85152 0.14049 0.0
C211 C 0.88625 0.86639 0.98191 0.0
C212 C 0.88445 0.87183 0.93825 0.0
C213 C 0.89969 0.87201 0.91151 0.0
C214 C 0.89829 0.87576 0.86872 0.0
C215 C 0.88156 0.87934 0.85142 0.0
C216 C 0.86631 0.87949 0.87865 0.0
C217 C 0.86774 0.8758 0.92158 0.0
C218 C 0.84486 0.87906 0.10817 0.0
C219 C 0.87459 0.92216 0.09791 0.0
O220 O 0.85629 0.89337 0.22658 0.0
O221 O 0.87461 0.91674 0.23885 0.0
O222 O 0.89781 0.88599 0.12483 0.0
O223 O 0.90578 0.8977 0.19035 0.0
O224 O 0.87473 0.86515 0.17079 0.0
O225 O 0.88737 0.85369 0.10082 0.0
O226 O 0.89715 0.87595 0.01162 0.0
O227 O 0.87184 0.86117 0.99994 0.0
O228 O 0.8567 0.89131 0.11509 0.0
O229 O 0.85008 0.86519 0.07711 0.0
O230 O 0.87709 0.90716 0.06625 0.0
O231 O 0.87285 0.9218 0.1411 0.0
H232 H 0.83674 0.90804 0.31767 0.0
H233 H 0.83996 0.90437 0.39477 0.0
H234 H 0.89704 0.89799 0.37534 0.0
H235 H 0.89368 0.90192 0.29814 0.0
H236 H 0.91271 0.86887 0.9234 0.0
H237 H 0.91029 0.8753 0.84866 0.0
H238 H 0.85325 0.88244 0.86676 0.0
H239 H 0.85573 0.87583 0.94142 0.0
Sm240 Sm 0.37451 0.61377 0.35005 0.0
Sm241 Sm 0.37824 0.63377 0.45476 0.0
C242 C 0.36101 0.60299 0.26806 0.0
C243 C 0.36366 0.60518 0.22149 0.0
C244 C 0.34872 0.60485 0.19363 0.0
C245 C 0.35067 0.60707 0.14955 0.0
C246 C 0.36766 0.60969 0.13213 0.0
C247 C 0.38267 0.60997 0.16021 0.0
C248 C 0.38069 0.60779 0.20447 0.0
C249 C 0.41038 0.61949 0.37198 0.0
C250 C 0.38109 0.65865 0.38247 0.0
C251 C 0.38678 0.64416 0.54121 0.0
C252 C 0.38483 0.6389 0.58508 0.0
C253 C 0.40001 0.63863 0.61192 0.0
C254 C 0.3985 0.63499 0.65482 0.0
C255 C 0.3817 0.63159 0.67217 0.0
C256 C 0.36652 0.63155 0.64485 0.0
C257 C 0.36806 0.63513 0.60181 0.0
C258 C 0.34445 0.63171 0.41701 0.0
C259 C 0.37362 0.58849 0.42624 0.0
O260 O 0.3553 0.61742 0.29725 0.0
O261 O 0.37296 0.59352 0.28474 0.0
O262 O 0.39711 0.624 0.39751 0.0
O263 O 0.40467 0.61148 0.33235 0.0
O264 O 0.37312 0.64512 0.35361 0.0
O265 O 0.38752 0.65653 0.42127 0.0
O266 O 0.39727 0.6341 0.51117 0.0
O267 O 0.37252 0.64991 0.5236 0.0
O268 O 0.35624 0.6194 0.40972 0.0
O269 O 0.34991 0.6456 0.44761 0.0
O270 O 0.3769 0.60346 0.45742 0.0
O271 O 0.37116 0.58881 0.38324 0.0
H272 H 0.33546 0.60286 0.20602 0.0
H273 H 0.33883 0.6065 0.12893 0.0
H274 H 0.39594 0.61217 0.14825 0.0
H275 H 0.39242 0.60824 0.22542 0.0
H276 H 0.41308 0.6416 0.59999 0.0
H277 H 0.41047 0.63537 0.67491 0.0
H278 H 0.3534 0.62874 0.65673 0.0
H279 H 0.35609 0.63516 0.58191 0.0
Sm280 Sm 0.64518 0.12708 0.6126 0.0
Sm281 Sm 0.63034 0.13206 0.70416 0.0
C282 C 0.65315 0.11653 0.5258 0.0
C283 C 0.6483 0.11879 0.48033 0.0
C284 C 0.64397 0.10327 0.44696 0.0
C285 C 0.6412 0.10466 0.40255 0.0
C286 C 0.6428 0.12162 0.39034 0.0
C287 C 0.64665 0.13725 0.42412 0.0
C288 C 0.64937 0.13586 0.4686 0.0
C289 C 0.64377 0.16349 0.65724 0.0
C290 C 0.60158 0.13325 0.62882 0.0
C291 C 0.6216 0.14139 0.79059 0.0
C292 C 0.62621 0.13884 0.83597 0.0
C293 C 0.63078 0.15417 0.86966 0.0
C294 C 0.63341 0.15255 0.91394 0.0
C295 C 0.63143 0.13555 0.92572 0.0
C296 C 0.62734 0.12009 0.89165 0.0
C297 C 0.62474 0.12172 0.84728 0.0
C298 C 0.63136 0.0961 0.65583 0.0
C299 C 0.67389 0.12733 0.69174 0.0
O300 O 0.6421 0.10757 0.5462 0.0
O301 O 0.66079 0.13031 0.55314 0.0
O302 O 0.63163 0.15184 0.65764 0.0
O303 O 0.65696 0.1561 0.63221 0.0
O304 O 0.61407 0.12494 0.60068 0.0
O305 O 0.60575 0.14083 0.67061 0.0
O306 O 0.63261 0.15092 0.77154 0.0
O307 O 0.6144 0.12766 0.7621 0.0
O308 O 0.64375 0.10761 0.6583 0.0
O309 O 0.61789 0.1032 0.68034 0.0
O310 O 0.66063 0.13401 0.71897 0.0
O311 O 0.67102 0.12108 0.64834 0.0
H312 H 0.64311 0.08995 0.45506 0.0
H313 H 0.63795 0.09239 0.37767 0.0
H314 H 0.64816 0.15051 0.41598 0.0
H315 H 0.65277 0.14809 0.4935 0.0
H316 H 0.63193 0.16754 0.86193 0.0
H317 H 0.63685 0.16469 0.93907 0.0
H318 H 0.62555 0.10682 0.8995 0.0
H319 H 0.62115 0.10963 0.82215 0.0
Sm320 Sm 0.88232 0.37832 0.81636 0.0
Sm321 Sm 0.86744 0.38436 0.9082 0.0
C322 C 0.8908 0.36852 0.7297 0.0
C323 C 0.8862 0.3711 0.68429 0.0
C324 C 0.88168 0.3558 0.65049 0.0
C325 C 0.87903 0.35746 0.60622 0.0
C326 C 0.88093 0.37449 0.59454 0.0
C327 C 0.885 0.38992 0.62873 0.0
C328 C 0.88763 0.38825 0.67308 0.0
C329 C 0.88106 0.41469 0.86223 0.0
C330 C 0.83889 0.3827 0.82886 0.0
C331 C 0.85942 0.39549 0.99489 0.0
C332 C 0.86387 0.39301 0.04045 0.0
C333 C 0.86805 0.40839 0.07435 0.0
C334 C 0.87058 0.40678 0.1187 0.0
C335 C 0.8689 0.38971 0.13034 0.0
C336 C 0.86517 0.37421 0.09603 0.0
C337 C 0.86268 0.37583 0.0516 0.0
C338 C 0.86896 0.34771 0.8656 0.0
C339 C 0.9111 0.37819 0.8922 0.0
O340 O 0.87961 0.35934 0.74916 0.0
O341 O 0.89833 0.38211 0.75791 0.0
O342 O 0.86878 0.40314 0.8608 0.0
O343 O 0.89452 0.4074 0.83802 0.0
O344 O 0.85201 0.37472 0.80285 0.0
O345 O 0.84205 0.3908 0.87118 0.0
O346 O 0.87108 0.40381 0.97453 0.0
O347 O 0.85122 0.38212 0.96753 0.0
O348 O 0.88113 0.35929 0.86467 0.0
O349 O 0.85571 0.3553 0.89011 0.0
O350 O 0.89854 0.38674 0.91978 0.0
O351 O 0.90701 0.37009 0.85065 0.0
H352 H 0.88056 0.34241 0.65813 0.0
H353 H 0.87561 0.34533 0.58104 0.0
H354 H 0.88674 0.40323 0.62101 0.0
H355 H 0.89118 0.40033 0.69829 0.0
H356 H 0.869 0.42179 0.06669 0.0
H357 H 0.87375 0.41896 0.14396 0.0
H358 H 0.8636 0.36088 0.10368 0.0
H359 H 0.85941 0.3637 0.02627 0.0
Sm360 Sm 0.38125 0.13229 0.70429 0.0
Sm361 Sm 0.36672 0.12622 0.61217 0.0
C362 C 0.38958 0.14212 0.79096 0.0
C363 C 0.38505 0.13944 0.83632 0.0
C364 C 0.38032 0.15467 0.87015 0.0
C365 C 0.37773 0.15295 0.91439 0.0
C366 C 0.37991 0.13594 0.926 0.0
C367 C 0.38418 0.12057 0.89178 0.0
C368 C 0.38675 0.1223 0.84746 0.0
C369 C 0.37989 0.0959 0.65856 0.0
C370 C 0.33789 0.12821 0.69128 0.0
C371 C 0.3589 0.11494 0.52547 0.0
C372 C 0.3634 0.11741 0.47994 0.0
C373 C 0.36775 0.10203 0.44615 0.0
C374 C 0.37031 0.10363 0.40179 0.0
C375 C 0.36849 0.12066 0.39006 0.0
C376 C 0.36459 0.13616 0.42427 0.0
C377 C 0.36208 0.13456 0.4687 0.0
C378 C 0.36816 0.16288 0.65459 0.0
C379 C 0.41027 0.13252 0.62898 0.0
O380 O 0.37821 0.15114 0.77156 0.0
O381 O 0.39732 0.12865 0.76271 0.0
O382 O 0.36771 0.10756 0.65981 0.0
O383 O 0.39332 0.10309 0.68289 0.0
O384 O 0.35095 0.13617 0.7174 0.0
O385 O 0.34117 0.11999 0.64906 0.0
O386 O 0.37061 0.10672 0.54599 0.0
O387 O 0.35056 0.12827 0.55268 0.0
O388 O 0.38028 0.15128 0.65586 0.0
O389 O 0.35503 0.15534 0.62967 0.0
O390 O 0.39791 0.12378 0.60117 0.0
O391 O 0.4059 0.1407 0.6703 0.0
H392 H 0.37898 0.16805 0.86254 0.0
H393 H 0.37414 0.16502 0.93961 0.0
H394 H 0.38614 0.10729 0.89947 0.0
H395 H 0.39048 0.11029 0.82221 0.0
H396 H 0.36881 0.08865 0.45389 0.0
H397 H 0.37361 0.09145 0.37659 0.0
H398 H 0.36291 0.14947 0.41653 0.0
H399 H 0.35868 0.14668 0.49396 0.0
Sm400 Sm 0.6327 0.63372 0.45194 0.0
Sm401 Sm 0.63616 0.61332 0.34758 0.0
C402 C 0.62484 0.64441 0.53881 0.0
C403 C 0.62657 0.63897 0.58255 0.0
C404 C 0.61133 0.63891 0.60938 0.0
C405 C 0.6127 0.63522 0.65227 0.0
C406 C 0.62941 0.63157 0.66964 0.0
C407 C 0.64464 0.6313 0.64233 0.0
C408 C 0.64325 0.63493 0.5993 0.0
C409 C 0.66609 0.63247 0.41244 0.0
C410 C 0.63786 0.58846 0.42443 0.0
C411 C 0.64953 0.60244 0.26539 0.0
C412 C 0.64691 0.60477 0.2189 0.0
C413 C 0.66187 0.60441 0.19099 0.0
C414 C 0.65994 0.6067 0.14696 0.0
C415 C 0.64296 0.60942 0.12963 0.0
C416 C 0.62795 0.60975 0.15778 0.0
C417 C 0.62991 0.6075 0.20198 0.0
C418 C 0.60032 0.61865 0.37045 0.0
C419 C 0.62889 0.65819 0.37905 0.0
O420 O 0.61378 0.63505 0.50915 0.0
O421 O 0.63934 0.64937 0.52063 0.0
O422 O 0.6548 0.61969 0.40637 0.0
O423 O 0.66028 0.64649 0.44221 0.0
O424 O 0.63459 0.60351 0.4554 0.0
O425 O 0.64 0.58859 0.38124 0.0
O426 O 0.65547 0.61671 0.29466 0.0
O427 O 0.63745 0.59314 0.28211 0.0
O428 O 0.61363 0.62341 0.39561 0.0
O429 O 0.60596 0.61058 0.33076 0.0
O430 O 0.63683 0.64463 0.35009 0.0
O431 O 0.62279 0.6562 0.4183 0.0
H432 H 0.59833 0.6421 0.59748 0.0
H433 H 0.60069 0.63577 0.67236 0.0
H434 H 0.6577 0.6283 0.65421 0.0
H435 H 0.65527 0.63481 0.57946 0.0
H436 H 0.67512 0.60232 0.20329 0.0
H437 H 0.67179 0.60608 0.12629 0.0
H438 H 0.61469 0.61203 0.1459 0.0
H439 H 0.61816 0.60798 0.22296 0.0
Sm440 Sm 0.13326 0.8771 0.06573 0.0
Sm441 Sm 0.13639 0.89713 0.17037 0.0
C442 C 0.125 0.86654 0.97915 0.0
C443 C 0.127 0.87177 0.93524 0.0
C444 C 0.11172 0.87297 0.90936 0.0
C445 C 0.11321 0.87661 0.86646 0.0
C446 C 0.13006 0.87907 0.84813 0.0
C447 C 0.14537 0.87817 0.87444 0.0
C448 C 0.14386 0.87458 0.91749 0.0
C449 C 0.16693 0.87966 0.10398 0.0
C450 C 0.13693 0.92245 0.09426 0.0
C451 C 0.14955 0.90828 0.25258 0.0
C452 C 0.14696 0.90599 0.29912 0.0
C453 C 0.162 0.90553 0.32622 0.0
C454 C 0.16012 0.90325 0.37026 0.0
C455 C 0.14309 0.90136 0.38841 0.0
C456 C 0.12799 0.90187 0.3611 0.0
C457 C 0.1299 0.90409 0.31687 0.0
C458 C 0.10073 0.88993 0.14832 0.0
C459 C 0.13069 0.85218 0.13801 0.0
O460 O 0.11439 0.87655 1.00895 0.0
O461 O 0.13923 0.86088 0.99708 0.0
O462 O 0.15498 0.89183 0.11127 0.0
O463 O 0.16168 0.8657 0.07329 0.0
O464 O 0.13422 0.90739 0.06296 0.0
O465 O 0.139 0.92224 0.13743 0.0
O466 O 0.15569 0.89404 0.22347 0.0
O467 O 0.13736 0.91742 0.23569 0.0
O468 O 0.11405 0.88623 0.12257 0.0
O469 O 0.10624 0.89797 0.1881 0.0
O470 O 0.13851 0.86582 0.16687 0.0
O471 O 0.12425 0.85421 0.09913 0.0
H472 H 0.09857 0.87073 0.92204 0.0
H473 H 0.10114 0.87697 0.84714 0.0
H474 H 0.15855 0.88024 0.86178 0.0
H475 H 0.15591 0.8738 0.93658 0.0
H476 H 0.17529 0.90697 0.31328 0.0
H477 H 0.17204 0.9032 0.3903 0.0
H478 H 0.11469 0.90025 0.37366 0.0
H479 H 0.11807 0.90426 0.29654 0.0
Sm480 Sm 0.88072 0.63171 0.20233 0.0
Sm481 Sm 0.86647 0.62426 0.10255 0.0
C482 C 0.88836 0.64295 0.28904 0.0
C483 C 0.88403 0.64 0.33423 0.0
C484 C 0.88152 0.65523 0.36983 0.0
C485 C 0.87889 0.653 0.41368 0.0
C486 C 0.87876 0.63545 0.42308 0.0
C487 C 0.88083 0.62015 0.38706 0.0
C488 C 0.88344 0.6224 0.34312 0.0
C489 C 0.88033 0.5957 0.15464 0.0
C490 C 0.83707 0.62755 0.18535 0.0
C491 C 0.85833 0.60782 0.01884 0.0
C492 C 0.86098 0.61034 0.9726 0.0
C493 C 0.86243 0.59495 0.937 0.0
C494 C 0.86426 0.59696 0.89272 0.0
C495 C 0.86465 0.61446 0.88297 0.0
C496 C 0.86345 0.62989 0.91896 0.0
C497 C 0.86166 0.62785 0.96328 0.0
C498 C 0.87221 0.6615 0.13119 0.0
C499 C 0.90923 0.6321 0.12526 0.0
O500 O 0.87621 0.65077 0.26879 0.0
O501 O 0.89723 0.63007 0.26157 0.0
O502 O 0.86838 0.60748 0.15451 0.0
O503 O 0.89298 0.6025 0.18242 0.0
O504 O 0.85046 0.63121 0.21413 0.0
O505 O 0.83964 0.62375 0.14118 0.0
O506 O 0.87248 0.60355 0.0397 0.0
O507 O 0.84774 0.61952 0.04497 0.0
O508 O 0.87474 0.64962 0.15406 0.0
O509 O 0.86636 0.65369 0.09166 0.0
O510 O 0.89768 0.62194 0.09734 0.0
O511 O 0.90426 0.64097 0.16569 0.0
H512 H 0.8819 0.66893 0.36384 0.0
H513 H 0.87702 0.66509 0.44029 0.0
H514 H 0.88096 0.60644 0.39296 0.0
H515 H 0.88535 0.61038 0.31631 0.0
H516 H 0.86202 0.58131 0.94344 0.0
H517 H 0.86547 0.58477 0.86613 0.0
H518 H 0.86351 0.64357 0.91287 0.0
H519 H 0.86061 0.63996 0.9902 0.0
Sm520 Sm 0.13279 0.13417 0.95444 0.0
Sm521 Sm 0.13627 0.11411 0.8498 0.0
C522 C 0.12438 0.14461 0.041 0.0
C523 C 0.12635 0.13934 0.08486 0.0
C524 C 0.1111 0.13857 0.11122 0.0
C525 C 0.1126 0.13492 0.15412 0.0
C526 C 0.12943 0.13203 0.17194 0.0
C527 C 0.14469 0.13249 0.14511 0.0
C528 C 0.14317 0.13607 0.10208 0.0
C529 C 0.16652 0.13203 0.9163 0.0
C530 C 0.13726 0.08887 0.92601 0.0
C531 C 0.14963 0.10323 0.76762 0.0
C532 C 0.14699 0.10547 0.72108 0.0
C533 C 0.16198 0.10561 0.69357 0.0
C534 C 0.16005 0.10785 0.64952 0.0
C535 C 0.14302 0.11002 0.63177 0.0
C536 C 0.12796 0.10983 0.65949 0.0
C537 C 0.12993 0.10763 0.70373 0.0
C538 C 0.10045 0.12 0.87237 0.0
C539 C 0.12974 0.15901 0.88207 0.0
O540 O 0.11383 0.13461 0.0111 0.0
O541 O 0.13862 0.1503 0.0232 0.0
O542 O 0.15475 0.11971 0.90902 0.0
O543 O 0.16107 0.14593 0.94694 0.0
O544 O 0.13413 0.10387 0.95723 0.0
O545 O 0.13958 0.08914 0.88294 0.0
O546 O 0.15547 0.1176 0.79676 0.0
O547 O 0.13763 0.09388 0.78444 0.0
O548 O 0.11378 0.12445 0.89765 0.0
O549 O 0.10607 0.11195 0.83264 0.0
O550 O 0.13763 0.14544 0.85309 0.0
O551 O 0.12344 0.15695 0.92107 0.0
H552 H 0.09798 0.14115 0.09894 0.0
H553 H 0.10057 0.13491 0.17384 0.0
H554 H 0.15785 0.13008 0.15737 0.0
H555 H 0.1552 0.13651 0.08258 0.0
H556 H 0.17527 0.10396 0.70621 0.0
H557 H 0.17194 0.10764 0.62916 0.0
H558 H 0.11466 0.11167 0.64725 0.0
H559 H 0.11814 0.10772 0.72439 0.0
Sm560 Sm 0.63351 0.37744 0.56779 0.0
Sm561 Sm 0.637 0.39766 0.67216 0.0
C562 C 0.62515 0.36694 0.48125 0.0
C563 C 0.62685 0.37227 0.43734 0.0
C564 C 0.61135 0.37436 0.41304 0.0
C565 C 0.6125 0.37795 0.37002 0.0
C566 C 0.62922 0.37946 0.34993 0.0
C567 C 0.64476 0.37774 0.37475 0.0
C568 C 0.64359 0.37418 0.41788 0.0
C569 C 0.66722 0.37937 0.60585 0.0
C570 C 0.6382 0.42272 0.59559 0.0
C571 C 0.65032 0.40856 0.7543 0.0
C572 C 0.64757 0.40653 0.80101 0.0
C573 C 0.66255 0.40536 0.82784 0.0
C574 C 0.66051 0.40351 0.87219 0.0
C575 C 0.64339 0.40279 0.89098 0.0
C576 C 0.62836 0.40384 0.86378 0.0
C577 C 0.63043 0.40568 0.81928 0.0
C578 C 0.60115 0.39194 0.64997 0.0
C579 C 0.63038 0.35274 0.64042 0.0
O580 O 0.61444 0.37667 0.5113 0.0
O581 O 0.63955 0.3615 0.49889 0.0
O582 O 0.65554 0.3918 0.61298 0.0
O583 O 0.66168 0.36544 0.57546 0.0
O584 O 0.63501 0.40768 0.56458 0.0
O585 O 0.64045 0.42254 0.63873 0.0
O586 O 0.65605 0.39406 0.72536 0.0
O587 O 0.63849 0.41804 0.73725 0.0
O588 O 0.61444 0.38738 0.62452 0.0
O589 O 0.60682 0.40002 0.68957 0.0
O590 O 0.63826 0.36634 0.66928 0.0
O591 O 0.62415 0.35473 0.60133 0.0
H592 H 0.59826 0.37293 0.4271 0.0
H593 H 0.60023 0.3795 0.35247 0.0
H594 H 0.65788 0.37862 0.36038 0.0
H595 H 0.65582 0.37259 0.43556 0.0
H596 H 0.6759 0.40586 0.8144 0.0
H597 H 0.6724 0.4024 0.89157 0.0
H598 H 0.61497 0.40351 0.87706 0.0
H599 H 0.61864 0.40648 0.79924 0.0
Sm600 Sm 0.3804 0.87882 0.319 0.0
Sm601 Sm 0.36597 0.88499 0.41125 0.0
C602 C 0.38865 0.86892 0.23225 0.0
C603 C 0.38413 0.8717 0.18696 0.0
C604 C 0.3786 0.85667 0.15355 0.0
C605 C 0.376 0.85841 0.10933 0.0
C606 C 0.37898 0.87523 0.09732 0.0
C607 C 0.38408 0.89041 0.13112 0.0
C608 C 0.38665 0.88866 0.17541 0.0
C609 C 0.37919 0.91524 0.36463 0.0
C610 C 0.33708 0.88321 0.33258 0.0
C611 C 0.35827 0.89627 0.49806 0.0
C612 C 0.36277 0.89366 0.54346 0.0
C613 C 0.36797 0.90882 0.57688 0.0
C614 C 0.37056 0.90717 0.62118 0.0
C615 C 0.36791 0.89031 0.63324 0.0
C616 C 0.36315 0.875 0.59941 0.0
C617 C 0.36061 0.87665 0.55504 0.0
C618 C 0.36733 0.8483 0.3689 0.0
C619 C 0.40947 0.87861 0.394 0.0
O620 O 0.3772 0.86002 0.25175 0.0
O621 O 0.39653 0.88227 0.26045 0.0
O622 O 0.36698 0.90366 0.3636 0.0
O623 O 0.39257 0.90795 0.34011 0.0
O624 O 0.35007 0.87512 0.30627 0.0
O625 O 0.34045 0.89143 0.37471 0.0
O626 O 0.37005 0.90437 0.47747 0.0
O627 O 0.34977 0.88308 0.47084 0.0
O628 O 0.37946 0.85986 0.36747 0.0
O629 O 0.35422 0.85592 0.39394 0.0
O630 O 0.39714 0.88744 0.42186 0.0
O631 O 0.40505 0.87034 0.35282 0.0
H632 H 0.37664 0.84342 0.16144 0.0
H633 H 0.37178 0.8465 0.08445 0.0
H634 H 0.38667 0.90352 0.1231 0.0
H635 H 0.39102 0.90051 0.20029 0.0
H636 H 0.36967 0.92209 0.5689 0.0
H637 H 0.37453 0.91918 0.64607 0.0
H638 H 0.36082 0.86184 0.60743 0.0
H639 H 0.35653 0.86469 0.53011 0.0
C640 C 0.12767 0.61408 0.81593 0.0
C641 C 0.14091 0.6237 0.84437 0.0
C642 C 0.12659 0.61529 0.7709 0.0
C643 C 0.14098 0.64369 0.69172 0.0
H644 H 0.13037 0.59992 0.601 0.0
C645 C 0.14654 0.64183 0.50165 0.0
C646 C 0.13316 0.6324 0.47335 0.0
C647 C 0.14765 0.64059 0.54665 0.0
C648 C 0.13316 0.61233 0.6259 0.0
H649 H 0.16349 0.64206 0.84732 0.0
H650 H 0.16163 0.64413 0.76898 0.0
H651 H 0.13171 0.59836 0.67976 0.0
H652 H 0.11038 0.61431 0.47064 0.0
H653 H 0.11232 0.61215 0.54891 0.0
H654 H 0.14246 0.65764 0.63783 0.0
C655 C 0.15187 0.63587 0.78162 0.0
C656 C 0.13391 0.61144 0.67117 0.0
C657 C 0.15293 0.63469 0.82666 0.0
C658 C 0.12104 0.62153 0.49117 0.0
C659 C 0.12215 0.6203 0.53616 0.0
C660 C 0.14025 0.64457 0.64644 0.0
C661 C 0.13873 0.62612 0.75303 0.0
C662 C 0.13783 0.62711 0.70474 0.0
C663 C 0.13541 0.6299 0.56462 0.0
C664 C 0.13632 0.6289 0.61288 0.0
H665 H 0.11803 0.60569 0.82856 0.0
H666 H 0.11609 0.60784 0.75019 0.0
H667 H 0.14376 0.6561 0.7166 0.0
H668 H 0.15627 0.65011 0.48896 0.0
H669 H 0.15824 0.64792 0.56728 0.0
C670 C 0.64012 0.89249 0.03765 0.0
C671 C 0.63307 0.87667 0.04874 0.0
C672 C 0.64124 0.89394 0.99278 0.0
C673 C 0.64115 0.86604 0.87574 0.0
H674 H 0.62955 0.91217 0.84512 0.0
C675 C 0.6337 0.87282 0.6913 0.0
C676 C 0.6409 0.88856 0.68006 0.0
C677 C 0.63266 0.87139 0.73619 0.0
C678 C 0.63303 0.89923 0.8531 0.0
H679 H 0.62141 0.85007 0.02092 0.0
H680 H 0.6234 0.85258 0.94298 0.0
H681 H 0.6282 0.90966 0.92326 0.0
H682 H 0.65291 0.91501 0.70769 0.0
H683 H 0.65099 0.91254 0.78568 0.0
H684 H 0.64595 0.85561 0.80555 0.0
C685 C 0.62836 0.86376 0.9689 0.0
C686 C 0.63227 0.8978 0.89799 0.0
C687 C 0.62723 0.86232 0.01371 0.0
C688 C 0.64696 0.90283 0.715 0.0
C689 C 0.64589 0.90141 0.75983 0.0
C690 C 0.6419 0.86747 0.83085 0.0
C691 C 0.63534 0.8796 0.95778 0.0
C692 C 0.63631 0.88118 0.90995 0.0
C693 C 0.63877 0.88565 0.77106 0.0
C694 C 0.63785 0.88409 0.8189 0.0
H695 H 0.64497 0.90371 0.06363 0.0
H696 H 0.64694 0.90623 0.9855 0.0
H697 H 0.64464 0.85311 0.88371 0.0
H698 H 0.62867 0.86166 0.66544 0.0
H699 H 0.62686 0.85917 0.74359 0.0
C700 C 0.36661 0.37381 0.2745 0.0
C701 C 0.38041 0.38219 0.3031 0.0
C702 C 0.36543 0.37601 0.23019 0.0
C703 C 0.38066 0.40561 0.15433 0.0
H704 H 0.36758 0.36384 0.06021 0.0
C705 C 0.38406 0.40744 0.96514 0.0
C706 C 0.37021 0.39878 0.93712 0.0
C707 C 0.38555 0.40544 1.0096 0.0
C708 C 0.37106 0.37573 0.08606 0.0
H709 H 0.40358 0.39986 0.30725 0.0
H710 H 0.40166 0.4035 0.23001 0.0
H711 H 0.36945 0.36057 0.13764 0.0
H712 H 0.34729 0.38085 0.93419 0.0
H713 H 0.3497 0.37763 0.01152 0.0
H714 H 0.38223 0.42078 0.1027 0.0
C715 C 0.39166 0.39528 0.24191 0.0
C716 C 0.37212 0.37385 0.13063 0.0
C717 C 0.39287 0.39303 0.28618 0.0
C718 C 0.35801 0.38793 0.95478 0.0
C719 C 0.35952 0.38589 0.99913 0.0
C720 C 0.37958 0.4075 0.10973 0.0
C721 C 0.37798 0.38671 0.21313 0.0
C722 C 0.3769 0.38876 0.16548 0.0
C723 C 0.37328 0.39465 0.02731 0.0
C724 C 0.37472 0.3926 0.0749 0.0
H725 H 0.35687 0.36521 0.28604 0.0
H726 H 0.35458 0.36937 0.20934 0.0
H727 H 0.38413 0.41748 0.18022 0.0
H728 H 0.39363 0.41603 0.95296 0.0
H729 H 0.39645 0.41224 0.02999 0.0
C730 C 0.88279 0.12282 0.57509 0.0
C731 C 0.87021 0.11066 0.58656 0.0
C732 C 0.88438 0.12488 0.53069 0.0
C733 C 0.87325 0.10215 0.41223 0.0
H734 H 0.88111 0.1505 0.39035 0.0
C735 C 0.86869 0.11674 0.23336 0.0
C736 C 0.8809 0.12926 0.22188 0.0
C737 C 0.86761 0.11428 0.27751 0.0
C738 C 0.87914 0.13685 0.39571 0.0
H739 H 0.84971 0.09083 0.55934 0.0
H740 H 0.85221 0.09469 0.48254 0.0
H741 H 0.87902 0.14656 0.46721 0.0
H742 H 0.90141 0.14912 0.24882 0.0
H743 H 0.89981 0.14453 0.3251 0.0
H744 H 0.87334 0.09244 0.34071 0.0
C745 C 0.86099 0.10256 0.50778 0.0
C746 C 0.87794 0.13458 0.43998 0.0
C747 C 0.85939 0.10051 0.55213 0.0
C748 C 0.892 0.13918 0.25597 0.0
C749 C 0.89091 0.13673 0.30008 0.0
C750 C 0.87445 0.10442 0.36794 0.0
C751 C 0.87347 0.11482 0.49634 0.0
C752 C 0.87496 0.1172 0.44897 0.0
C753 C 0.87867 0.12427 0.31161 0.0
C754 C 0.8774 0.12181 0.35896 0.0
H755 H 0.89126 0.131 0.60056 0.0
H756 H 0.89429 0.1343 0.52326 0.0
H757 H 0.87124 0.08851 0.41762 0.0
H758 H 0.86003 0.1087 0.20811 0.0
H759 H 0.85788 0.1047 0.28501 0.0
C760 C 0.12975 0.3996 0.20817 0.0
C761 C 0.14097 0.38785 0.17768 0.0
C762 C 0.12869 0.3983 0.25314 0.0
C763 C 0.13827 0.36709 0.32935 0.0
H764 H 0.13597 0.41169 0.42224 0.0
C765 C 0.14484 0.36659 0.51798 0.0
C766 C 0.13351 0.37827 0.54834 0.0
C767 C 0.14597 0.36791 0.47303 0.0
C768 C 0.13641 0.39908 0.39676 0.0
H769 H 0.15995 0.36552 0.17107 0.0
H770 H 0.15812 0.36327 0.2493 0.0
H771 H 0.13719 0.41347 0.3436 0.0
H772 H 0.11442 0.40049 0.55476 0.0
H773 H 0.1164 0.4028 0.47658 0.0
H774 H 0.1375 0.3527 0.38252 0.0
C775 C 0.14991 0.37333 0.23831 0.0
C776 C 0.13709 0.4001 0.35155 0.0
C777 C 0.15095 0.37462 0.19333 0.0
C778 C 0.12351 0.39146 0.53261 0.0
C779 C 0.12463 0.39278 0.48766 0.0
C780 C 0.13759 0.36607 0.37456 0.0
C781 C 0.13884 0.38523 0.26894 0.0
C782 C 0.13802 0.38412 0.31718 0.0
C783 C 0.13579 0.38094 0.45715 0.0
C784 C 0.13665 0.38205 0.40892 0.0
H785 H 0.12166 0.40977 0.19721 0.0
H786 H 0.11977 0.40748 0.27546 0.0
H787 H 0.1387 0.35447 0.30388 0.0
H788 H 0.15295 0.35646 0.529 0.0
H789 H 0.15495 0.35879 0.45079 0.0
C790 C 0.89293 0.89258 0.78743 0.0
C791 C 0.88001 0.88235 0.80473 0.0
C792 C 0.89182 0.89481 0.74314 0.0
C793 C 0.87154 0.87396 0.63254 0.0
H794 H 0.88341 0.92033 0.60364 0.0
C795 C 0.85797 0.88817 0.45674 0.0
C796 C 0.87062 0.89841 0.4386 0.0
C797 C 0.8594 0.88619 0.50113 0.0
C798 C 0.88026 0.9072 0.61096 0.0
H799 H 0.85576 0.86644 0.78844 0.0
H800 H 0.85366 0.87055 0.71167 0.0
H801 H 0.88513 0.91718 0.68131 0.0
H802 H 0.89475 0.91461 0.45354 0.0
H803 H 0.89742 0.91092 0.53069 0.0
H804 H 0.86668 0.86397 0.56227 0.0
C805 C 0.86478 0.87673 0.73223 0.0
C806 C 0.88123 0.9054 0.65562 0.0
C807 C 0.86586 0.87456 0.77656 0.0
C808 C 0.88484 0.9065 0.46613 0.0
C809 C 0.88625 0.90456 0.51063 0.0
C810 C 0.87058 0.87576 0.58792 0.0
C811 C 0.87779 0.8868 0.71477 0.0
C812 C 0.87683 0.88877 0.6671 0.0
C813 C 0.87352 0.8944 0.52883 0.0
C814 C 0.87487 0.89242 0.57644 0.0
H815 H 0.90392 0.89894 0.8082 0.0
H816 H 0.90217 0.90253 0.73088 0.0
H817 H 0.86837 0.86084 0.63984 0.0
H818 H 0.84695 0.88154 0.4365 0.0
H819 H 0.84923 0.87843 0.51394 0.0
C820 C 0.39289 0.61835 0.73637 0.0
C821 C 0.38005 0.62862 0.71893 0.0
C822 C 0.39165 0.61611 0.78066 0.0
C823 C 0.37099 0.63684 0.89116 0.0
H824 H 0.3829 0.59044 0.91987 0.0
C825 C 0.35703 0.62247 0.06682 0.0
C826 C 0.36961 0.61215 0.08498 0.0
C827 C 0.35857 0.62449 0.02246 0.0
C828 C 0.37973 0.60358 0.91263 0.0
H829 H 0.35579 0.64461 0.73504 0.0
H830 H 0.35347 0.64046 0.81176 0.0
H831 H 0.38486 0.5937 0.84233 0.0
H832 H 0.39372 0.59585 0.07004 0.0
H833 H 0.39657 0.59964 0.99301 0.0
H834 H 0.36589 0.64674 0.96139 0.0
C835 C 0.36463 0.63426 0.79132 0.0
C836 C 0.38085 0.60545 0.86801 0.0
C837 C 0.36584 0.63645 0.747 0.0
C838 C 0.38386 0.60403 0.05747 0.0
C839 C 0.38537 0.60602 0.013 0.0
C840 C 0.36989 0.63498 0.93574 0.0
C841 C 0.37756 0.62413 0.80891 0.0
C842 C 0.37644 0.6221 0.85657 0.0
C843 C 0.37273 0.61626 0.99478 0.0
C844 C 0.3742 0.61831 0.94718 0.0
H845 H 0.40392 0.61195 0.71572 0.0
H846 H 0.40195 0.60833 0.79298 0.0
H847 H 0.36781 0.64998 0.88392 0.0
H848 H 0.346 0.62912 0.08701 0.0
H849 H 0.34845 0.63232 1.00966 0.0
C850 C 0.64131 0.11897 0.98499 0.0
C851 C 0.63297 0.13413 0.97354 0.0
C852 C 0.64239 0.11756 0.02987 0.0
C853 C 0.62148 0.13492 0.14147 0.0
H854 H 0.66479 0.11687 0.18625 0.0
C855 C 0.63263 0.13787 0.3307 0.0
C856 C 0.64114 0.12286 0.34239 0.0
C857 C 0.63151 0.13917 0.28575 0.0
C858 C 0.65251 0.12174 0.1742 0.0
H859 H 0.61905 0.1596 1.00071 0.0
H860 H 0.62128 0.15734 0.07877 0.0
H861 H 0.66319 0.11921 0.10803 0.0
H862 H 0.6553 0.0975 0.31555 0.0
H863 H 0.65297 0.09955 0.23736 0.0
H864 H 0.61079 0.13744 0.20761 0.0
C865 C 0.62685 0.14643 0.05303 0.0
C866 C 0.6516 0.12308 0.12928 0.0
C867 C 0.62578 0.14784 1.00821 0.0
C868 C 0.64843 0.10915 0.30787 0.0
C869 C 0.64732 0.11045 0.26297 0.0
C870 C 0.62239 0.13357 0.18638 0.0
C871 C 0.63512 0.13125 0.06449 0.0
C872 C 0.63608 0.12971 0.11231 0.0
C873 C 0.6389 0.1255 0.25128 0.0
C874 C 0.63792 0.12696 0.20338 0.0
H875 H 0.64712 0.10822 0.95926 0.0
H876 H 0.64872 0.1056 0.03738 0.0
H877 H 0.60921 0.13981 0.12943 0.0
H878 H 0.62672 0.14861 0.35628 0.0
H879 H 0.62508 0.15106 0.27809 0.0
C880 C 0.86321 0.40184 0.21302 0.0
C881 C 0.87045 0.38821 0.17819 0.0
C882 C 0.86433 0.40036 0.25781 0.0
C883 C 0.88928 0.37677 0.3336 0.0
H884 H 0.84882 0.39143 0.41291 0.0
C885 C 0.88636 0.3623 0.51181 0.0
C886 C 0.87929 0.376 0.54672 0.0
C887 C 0.88518 0.36378 0.46703 0.0
C888 C 0.86033 0.38746 0.3914 0.0
H889 H 0.88475 0.36239 0.16373 0.0
H890 H 0.88641 0.35963 0.24168 0.0
H891 H 0.84705 0.39395 0.33485 0.0
H892 H 0.86522 0.40195 0.56139 0.0
H893 H 0.86344 0.40469 0.4834 0.0
H894 H 0.90256 0.37027 0.39015 0.0
C895 C 0.88001 0.37159 0.23436 0.0
C896 C 0.85932 0.38891 0.34654 0.0
C897 C 0.87888 0.37307 0.18951 0.0
C898 C 0.87096 0.39121 0.53552 0.0
C899 C 0.86976 0.39268 0.49067 0.0
C900 C 0.89029 0.37531 0.37845 0.0
C901 C 0.87271 0.3852 0.26915 0.0
C902 C 0.87378 0.38359 0.31699 0.0
C903 C 0.87691 0.37901 0.45581 0.0
C904 C 0.87583 0.38063 0.40799 0.0
H905 H 0.8564 0.41358 0.20568 0.0
H906 H 0.85874 0.41121 0.28364 0.0
H907 H 0.9008 0.37281 0.31212 0.0
H908 H 0.89309 0.35049 0.51908 0.0
H909 H 0.89066 0.35288 0.44113 0.0
C910 C 0.37833 0.13731 0.33081 0.0
C911 C 0.37003 0.12213 0.34219 0.0
C912 C 0.37942 0.13878 0.28595 0.0
C913 C 0.35876 0.12131 0.17399 0.0
H914 H 0.40179 0.14021 0.13003 0.0
C915 C 0.37022 0.1191 0.98499 0.0
C916 C 0.37835 0.1344 0.97378 0.0
C917 C 0.36909 0.1176 0.02983 0.0
C918 C 0.38958 0.13509 0.14184 0.0
H919 H 0.35619 0.09666 0.31485 0.0
H920 H 0.35847 0.099 0.23685 0.0
H921 H 0.40015 0.13764 0.20807 0.0
H922 H 0.39187 0.16003 1.00136 0.0
H923 H 0.38958 0.1576 0.0793 0.0
H924 H 0.3482 0.11874 0.10772 0.0
C925 C 0.36398 0.1099 0.26263 0.0
C926 C 0.38864 0.13362 0.18668 0.0
C927 C 0.3629 0.10843 0.30744 0.0
C928 C 0.3853 0.14816 1.00866 0.0
C929 C 0.3842 0.14665 0.05342 0.0
C930 C 0.3597 0.12276 0.12913 0.0
C931 C 0.37221 0.12511 0.25124 0.0
C932 C 0.37322 0.12671 0.20341 0.0
C933 C 0.37612 0.13133 0.06465 0.0
C934 C 0.37512 0.12969 0.11243 0.0
H935 H 0.38412 0.14805 0.35655 0.0
H936 H 0.3857 0.15078 0.27857 0.0
H937 H 0.34654 0.11621 0.18579 0.0
H938 H 0.36458 0.1083 0.95913 0.0
H939 H 0.36293 0.10552 0.03712 0.0
C940 C 0.65369 0.62214 0.06423 0.0
C941 C 0.64104 0.61192 0.08249 0.0
C942 C 0.65217 0.6242 0.0199 0.0
C943 C 0.63081 0.60355 0.91019 0.0
H944 H 0.64326 0.6498 0.88145 0.0
C945 C 0.61795 0.61854 0.73398 0.0
C946 C 0.63094 0.62861 0.71645 0.0
C947 C 0.61911 0.61628 0.77827 0.0
C948 C 0.63992 0.63671 0.88868 0.0
H949 H 0.61682 0.59585 0.06768 0.0
H950 H 0.614 0.5997 0.99072 0.0
H951 H 0.64512 0.64652 0.95887 0.0
H952 H 0.65537 0.64425 0.73245 0.0
H953 H 0.65755 0.64009 0.80916 0.0
H954 H 0.62558 0.59377 0.83993 0.0
C955 C 0.62524 0.60598 1.01062 0.0
C956 C 0.64099 0.63481 0.93325 0.0
C957 C 0.62674 0.60394 0.05507 0.0
C958 C 0.64521 0.63624 0.74446 0.0
C959 C 0.64633 0.63404 0.78879 0.0
C960 C 0.62972 0.60545 0.86559 0.0
C961 C 0.63796 0.61611 0.99231 0.0
C962 C 0.63651 0.61819 0.94472 0.0
C963 C 0.63326 0.6241 0.80646 0.0
C964 C 0.63432 0.62205 0.85412 0.0
H965 H 0.66477 0.62869 0.08434 0.0
H966 H 0.66234 0.63194 1.00704 0.0
H967 H 0.6275 0.59045 0.91744 0.0
H968 H 0.60686 0.6123 0.71338 0.0
H969 H 0.6087 0.60866 0.79065 0.0
C970 C 0.12748 0.90766 0.46387 0.0
C971 C 0.14122 0.89887 0.43553 0.0
C972 C 0.12606 0.90563 0.50832 0.0
C973 C 0.14042 0.87566 0.58421 0.0
H974 H 0.12803 0.91754 0.67889 0.0
C975 C 0.14527 0.87348 0.77237 0.0
C976 C 0.13164 0.88206 0.80137 0.0
C977 C 0.14638 0.87571 0.72808 0.0
C978 C 0.13131 0.90564 0.65286 0.0
H979 H 0.16399 0.88068 0.43199 0.0
H980 H 0.1617 0.87739 0.50932 0.0
H981 H 0.12978 0.92088 0.60138 0.0
H982 H 0.10869 0.90009 0.80626 0.0
H983 H 0.11047 0.90378 0.72904 0.0
H984 H 0.14196 0.86042 0.63563 0.0
C985 C 0.15191 0.88578 0.49718 0.0
C986 C 0.1323 0.90755 0.60827 0.0
C987 C 0.15336 0.88785 0.45284 0.0
C988 C 0.11927 0.89311 0.78488 0.0
C989 C 0.12041 0.89539 0.74061 0.0
C990 C 0.13943 0.87375 0.62877 0.0
C991 C 0.13828 0.89468 0.52568 0.0
C992 C 0.13692 0.8926 0.57326 0.0
C993 C 0.13391 0.88663 0.71143 0.0
C994 C 0.1349 0.88871 0.66381 0.0
H995 H 0.11796 0.91637 0.45195 0.0
H996 H 0.11526 0.91255 0.52899 0.0
H997 H 0.1437 0.86374 0.55821 0.0
H998 H 0.15494 0.86472 0.78359 0.0
H999 H 0.1571 0.86892 0.70691 0.0
C1000 C 0.8571 0.6045 0.80056 0.0
C1001 C 0.86609 0.61657 0.83551 0.0
C1002 C 0.85839 0.60646 0.75612 0.0
C1003 C 0.88636 0.62767 0.68075 0.0
H1004 H 0.84464 0.61939 0.60366 0.0
C1005 C 0.88567 0.64537 0.50574 0.0
C1006 C 0.87702 0.63321 0.47035 0.0
C1007 C 0.88425 0.64325 0.55 0.0
C1008 C 0.85649 0.62155 0.62452 0.0
H1009 H 0.88365 0.64015 0.85049 0.0
H1010 H 0.88557 0.64382 0.77334 0.0
H1011 H 0.84235 0.616 0.68101 0.0
H1012 H 0.85991 0.6093 0.45433 0.0
H1013 H 0.85768 0.60543 0.53139 0.0
H1014 H 0.90048 0.63327 0.62431 0.0
C1015 C 0.87767 0.63266 0.78021 0.0
C1016 C 0.85517 0.6196 0.66899 0.0
C1017 C 0.87639 0.63069 0.82467 0.0
C1018 C 0.86688 0.61885 0.48057 0.0
C1019 C 0.86544 0.61675 0.52491 0.0
C1020 C 0.88766 0.62964 0.63632 0.0
C1021 C 0.8687 0.62057 0.74527 0.0
C1022 C 0.87009 0.62265 0.69778 0.0
C1023 C 0.87414 0.6289 0.56026 0.0
C1024 C 0.87275 0.62664 0.60757 0.0
H1025 H 0.84886 0.5936 0.80753 0.0
H1026 H 0.85144 0.59676 0.73017 0.0
H1027 H 0.89822 0.62982 0.70155 0.0
H1028 H 0.89378 0.65645 0.49923 0.0
H1029 H 0.89097 0.65301 0.5763 0.0
C1030 C 0.15339 0.12321 0.56688 0.0
C1031 C 0.14109 0.11249 0.58464 0.0
C1032 C 0.15189 0.12525 0.52254 0.0
C1033 C 0.13162 0.10381 0.41211 0.0
H1034 H 0.14216 0.15064 0.38406 0.0
C1035 C 0.11848 0.11836 0.23569 0.0
C1036 C 0.13105 0.12906 0.2187 0.0
C1037 C 0.11967 0.11611 0.27996 0.0
C1038 C 0.13937 0.13739 0.39112 0.0
H1039 H 0.11751 0.09547 0.569 0.0
H1040 H 0.11471 0.09927 0.49197 0.0
H1041 H 0.14399 0.14737 0.46151 0.0
H1042 H 0.15475 0.14581 0.23562 0.0
H1043 H 0.15699 0.14165 0.31233 0.0
H1044 H 0.12699 0.09385 0.34165 0.0
C1045 C 0.12567 0.10597 0.51228 0.0
C1046 C 0.14042 0.13551 0.43569 0.0
C1047 C 0.12715 0.10397 0.55674 0.0
C1048 C 0.14493 0.13731 0.24722 0.0
C1049 C 0.14608 0.13511 0.29153 0.0
C1050 C 0.13057 0.1057 0.3675 0.0
C1051 C 0.13804 0.11662 0.49447 0.0
C1052 C 0.13661 0.11868 0.44688 0.0
C1053 C 0.13342 0.12455 0.30867 0.0
C1054 C 0.13447 0.1225 0.35631 0.0
H1055 H 0.16418 0.13018 0.58739 0.0
H1056 H 0.16179 0.13341 0.51006 0.0
H1057 H 0.12886 0.09056 0.41918 0.0
H1058 H 0.10771 0.11164 0.21468 0.0
H1059 H 0.10958 0.108 0.29193 0.0
C1060 C 0.61833 0.37362 0.26967 0.0
C1061 C 0.6304 0.38234 0.30296 0.0
C1062 C 0.61949 0.37608 0.2256 0.0
C1063 C 0.63843 0.40692 0.15715 0.0
H1064 H 0.62995 0.36559 0.05781 0.0
C1065 C 0.65308 0.40999 0.97231 0.0
C1066 C 0.64133 0.40093 0.93861 0.0
C1067 C 0.65146 0.40797 0.01668 0.0
C1068 C 0.63214 0.37736 0.08507 0.0
H1069 H 0.65312 0.40073 0.3154 0.0
H1070 H 0.65536 0.40473 0.2385 0.0
H1071 H 0.62783 0.36161 0.13464 0.0
H1072 H 0.61858 0.3826 0.92587 0.0
H1073 H 0.61553 0.37939 1.00324 0.0
H1074 H 0.64277 0.42266 0.10755 0.0
C1075 C 0.64483 0.39611 0.24663 0.0
C1076 C 0.63093 0.37508 0.12931 0.0
C1077 C 0.64367 0.39363 0.29075 0.0
C1078 C 0.6278 0.38993 0.95081 0.0
C1079 C 0.62618 0.3879 0.99522 0.0
C1080 C 0.63964 0.40921 0.1129 0.0
C1081 C 0.63277 0.38733 0.21333 0.0
C1082 C 0.63406 0.38981 0.16605 0.0
C1083 C 0.63804 0.39684 0.02882 0.0
C1084 C 0.63653 0.39446 0.07615 0.0
H1085 H 0.60806 0.36463 0.27744 0.0
H1086 H 0.60982 0.36925 0.20119 0.0
H1087 H 0.64065 0.41868 0.18443 0.0
H1088 H 0.66353 0.41878 0.96453 0.0
H1089 H 0.66097 0.41495 0.04134 0.0
C1090 C 0.38355 0.86253 0.01449 0.0
C1091 C 0.3774 0.87673 0.04953 0.0
C1092 C 0.38243 0.864 0.9697 0.0
C1093 C 0.37791 0.89804 0.899 0.0
H1094 H 0.36505 0.85569 0.80627 0.0
C1095 C 0.36316 0.90299 0.71605 0.0
C1096 C 0.36949 0.88885 0.68109 0.0
C1097 C 0.36426 0.90155 0.76086 0.0
C1098 C 0.36887 0.8676 0.83165 0.0
H1099 H 0.36496 0.90355 0.06445 0.0
H1100 H 0.36301 0.90611 0.98636 0.0
H1101 H 0.36638 0.85313 0.88437 0.0
H1102 H 0.38223 0.86218 0.66639 0.0
H1103 H 0.38409 0.85964 0.7445 0.0
H1104 H 0.38038 0.91252 0.84626 0.0
C1105 C 0.36894 0.89392 0.99363 0.0
C1106 C 0.36963 0.86614 0.87651 0.0
C1107 C 0.37005 0.89244 0.03847 0.0
C1108 C 0.37699 0.87323 0.69228 0.0
C1109 C 0.37805 0.87177 0.73713 0.0
C1110 C 0.37714 0.89951 0.85414 0.0
C1111 C 0.37515 0.87973 0.95863 0.0
C1112 C 0.37417 0.88134 0.91082 0.0
C1113 C 0.37167 0.8859 0.77203 0.0
C1114 C 0.37262 0.8843 0.81984 0.0
H1115 H 0.3896 0.85038 0.02168 0.0
H1116 H 0.38762 0.85293 0.94379 0.0
H1117 H 0.38175 0.90996 0.92436 0.0
H1118 H 0.35699 0.91508 0.70878 0.0
H1119 H 0.35894 0.91257 0.78672 0.0
C1120 C 0.15507 0.69481 0.17033 0.0
C1121 C 0.14031 0.68295 0.16503 0.0
C1122 C 0.15267 0.71362 0.17422 0.0
C1123 C 0.12447 0.74535 0.13449 0.0
H1124 H 0.14458 0.78306 0.22938 0.0
C1125 C 0.11619 0.82156 0.13072 0.0
C1126 C 0.13 0.83375 0.1481 0.0
C1127 C 0.1161 0.80371 0.1376 0.0
C1128 C 0.1391 0.77277 0.20212 0.0
H1129 H 0.11142 0.68147 0.1604 0.0
H1130 H 0.10727 0.71438 0.16561 0.0
H1131 H 0.14725 0.75097 0.23299 0.0
H1132 H 0.15455 0.83683 0.18647 0.0
H1133 H 0.15503 0.80552 0.19646 0.0
H1134 H 0.11728 0.76665 0.10184 0.0
C1135 C 0.12066 0.70909 0.16749 0.0
C1136 C 0.1405 0.75437 0.20456 0.0
C1137 C 0.12303 0.69032 0.16475 0.0
C1138 C 0.14362 0.82779 0.17303 0.0
C1139 C 0.1438 0.80977 0.17895 0.0
C1140 C 0.12343 0.76367 0.13145 0.0
C1141 C 0.13548 0.72089 0.17178 0.0
C1142 C 0.13321 0.74048 0.17075 0.0
C1143 C 0.13011 0.79734 0.16098 0.0
C1144 C 0.13075 0.77775 0.16517 0.0
H1145 H 0.16852 0.68947 0.17057 0.0
H1146 H 0.16431 0.72239 0.17725 0.0
H1147 H 0.11895 0.73488 0.10763 0.0
H1148 H 0.10539 0.82584 0.11177 0.0
H1149 H 0.105 0.79493 0.1243 0.0
C1150 C 0.57067 0.8641 0.38206 0.0
C1151 C 0.58171 0.87797 0.4064 0.0
C1152 C 0.55219 0.86467 0.38841 0.0
C1153 C 0.51458 0.88545 0.46119 0.0
H1154 H 0.48891 0.8737 0.3482 0.0
C1155 C 0.43642 0.89205 0.4399 0.0
C1156 C 0.42856 0.87806 0.40713 0.0
C1157 C 0.4551 0.89265 0.446 0.0
C1158 C 0.4958 0.87684 0.38017 0.0
H1159 H 0.58202 0.90287 0.45848 0.0
H1160 H 0.54938 0.90396 0.46952 0.0
H1161 H 0.52131 0.87368 0.34803 0.0
H1162 H 0.43401 0.85301 0.35775 0.0
H1163 H 0.46612 0.85388 0.36883 0.0
H1164 H 0.48871 0.88858 0.49309 0.0
C1165 C 0.55518 0.89258 0.44554 0.0
C1166 C 0.51445 0.87684 0.38007 0.0
C1167 C 0.57387 0.89195 0.43928 0.0
C1168 C 0.43961 0.86416 0.38276 0.0
C1169 C 0.45809 0.86471 0.38896 0.0
C1170 C 0.49574 0.88546 0.46129 0.0
C1171 C 0.54409 0.87922 0.41905 0.0
C1172 C 0.52414 0.88072 0.42049 0.0
C1173 C 0.46619 0.87926 0.41946 0.0
C1174 C 0.48614 0.88074 0.42069 0.0
H1175 H 0.57626 0.85296 0.35696 0.0
H1176 H 0.54416 0.85387 0.36832 0.0
H1177 H 0.52163 0.88856 0.49292 0.0
H1178 H 0.42827 0.90299 0.45911 0.0
H1179 H 0.46091 0.90404 0.46988 0.0
C1180 C 0.36899 0.32794 0.67492 0.0
C1181 C 0.38257 0.33387 0.64977 0.0
C1182 C 0.36873 0.30989 0.68054 0.0
C1183 C 0.38869 0.26367 0.63175 0.0
H1184 H 0.3649 0.25086 0.73329 0.0
C1185 C 0.3885 0.1901 0.6639 0.0
C1186 C 0.37117 0.18289 0.66415 0.0
C1187 C 0.39103 0.20886 0.66685 0.0
C1188 C 0.37164 0.25429 0.70485 0.0
H1189 H 0.40703 0.32583 0.61271 0.0
H1190 H 0.4073 0.29483 0.62471 0.0
H1191 H 0.36787 0.28299 0.73034 0.0
H1192 H 0.343 0.18968 0.66982 0.0
H1193 H 0.34748 0.22259 0.67689 0.0
H1194 H 0.39286 0.23484 0.60727 0.0
C1195 C 0.39629 0.30369 0.63844 0.0
C1196 C 0.37321 0.27272 0.7028 0.0
C1197 C 0.39627 0.32159 0.63188 0.0
C1198 C 0.3565 0.1949 0.6696 0.0
C1199 C 0.35905 0.2137 0.67371 0.0
C1200 C 0.38748 0.2453 0.63441 0.0
C1201 C 0.3823 0.29737 0.66203 0.0
C1202 C 0.38154 0.27774 0.66585 0.0
C1203 C 0.3763 0.22081 0.67134 0.0
C1204 C 0.37875 0.24041 0.67066 0.0
H1205 H 0.35813 0.33705 0.68873 0.0
H1206 H 0.35752 0.30568 0.69821 0.0
H1207 H 0.39482 0.26668 0.60214 0.0
H1208 H 0.40005 0.18114 0.65945 0.0
H1209 H 0.40446 0.21402 0.66502 0.0
C1210 C 0.93608 0.13138 0.92832 0.0
C1211 C 0.92977 0.12076 0.88734 0.0
C1212 C 0.95458 0.13246 0.93761 0.0
C1213 C 0.99636 0.10656 0.90459 0.0
H1214 H 0.02184 0.15267 0.93592 0.0
C1215 C 0.06871 0.11233 0.85365 0.0
C1216 C 0.08122 0.12158 0.88484 0.0
C1217 C 0.0505 0.11303 0.86362 0.0
C1218 C 0.01488 0.13968 0.92806 0.0
H1219 H 0.93788 0.1031 0.82414 0.0
H1220 H 0.96959 0.10478 0.84039 0.0
H1221 H 0.98892 0.15246 0.93651 0.0
H1222 H 0.08434 0.13926 0.95087 0.0
H1223 H 0.05201 0.14079 0.96828 0.0
H1224 H 0.02205 0.09377 0.89424 0.0
C1225 C 0.96047 0.11222 0.86554 0.0
C1226 C 0.99605 0.13956 0.9284 0.0
C1227 C 0.94223 0.11134 0.85613 0.0
C1228 C 0.075 0.1319 0.9263 0.0
C1229 C 0.05655 0.13283 0.93615 0.0
C1230 C 0.01502 0.10668 0.90422 0.0
C1231 C 0.96694 0.12267 0.90639 0.0
C1232 C 0.98661 0.12301 0.91498 0.0
C1233 C 0.04413 0.12317 0.90499 0.0
C1234 C 0.02453 0.12325 0.91428 0.0
H1235 H 0.92679 0.13887 0.95289 0.0
H1236 H 0.95919 0.14067 0.96935 0.0
H1237 H 0.9895 0.09355 0.89492 0.0
H1238 H 0.07298 0.10431 0.82131 0.0
H1239 H 0.04132 0.10569 0.83856 0.0
C1240 C 0.15469 0.31629 0.85054 0.0
C1241 C 0.14003 0.32832 0.85632 0.0
C1242 C 0.15214 0.2975 0.84656 0.0
C1243 C 0.12387 0.26599 0.88675 0.0
H1244 H 0.14331 0.2282 0.79078 0.0
C1245 C 0.11529 0.18975 0.89013 0.0
C1246 C 0.12897 0.17747 0.87209 0.0
C1247 C 0.11521 0.20763 0.88342 0.0
C1248 C 0.13802 0.2385 0.81833 0.0
H1249 H 0.11117 0.33012 0.86177 0.0
H1250 H 0.10676 0.29725 0.85641 0.0
H1251 H 0.14618 0.2603 0.78746 0.0
H1252 H 0.15331 0.17427 0.83274 0.0
H1253 H 0.15382 0.2056 0.82301 0.0
H1254 H 0.11669 0.24468 0.91938 0.0
C1255 C 0.12019 0.30239 0.85421 0.0
C1256 C 0.13953 0.25692 0.81607 0.0
C1257 C 0.12271 0.32115 0.85703 0.0
C1258 C 0.14247 0.18337 0.84668 0.0
C1259 C 0.14267 0.20141 0.84091 0.0
C1260 C 0.12272 0.24765 0.88961 0.0
C1261 C 0.1349 0.29042 0.84941 0.0
C1262 C 0.13249 0.27083 0.85028 0.0
C1263 C 0.12912 0.21393 0.85953 0.0
C1264 C 0.12981 0.23354 0.85551 0.0
H1265 H 0.16818 0.32148 0.84997 0.0
H1266 H 0.16371 0.28859 0.84313 0.0
H1267 H 0.11854 0.27648 0.91391 0.0
H1268 H 0.10459 0.18553 0.9095 0.0
H1269 H 0.10422 0.2165 0.89726 0.0
C1270 C 0.06944 0.88731 0.17308 0.0
C1271 C 0.08163 0.88579 0.13745 0.0
C1272 C 0.05125 0.8842 0.16499 0.0
C1273 C 0.01531 0.88587 0.08554 0.0
H1274 H 0.98975 0.8595 0.16179 0.0
C1275 C 0.93666 0.88096 0.09459 0.0
C1276 C 0.93029 0.88575 0.13902 0.0
C1277 C 0.95509 0.87811 0.08601 0.0
C1278 C 0.99666 0.86684 0.14006 0.0
H1279 H 0.08424 0.87982 0.06506 0.0
H1280 H 0.05196 0.87462 0.05064 0.0
H1281 H 0.02231 0.85949 0.16147 0.0
H1282 H 0.93816 0.89104 0.20901 0.0
H1283 H 0.9698 0.88586 0.19423 0.0
H1284 H 0.98943 0.89379 0.06558 0.0
C1285 C 0.05671 0.87812 0.08497 0.0
C1286 C 0.01533 0.86684 0.13988 0.0
C1287 C 0.07515 0.88101 0.09316 0.0
C1288 C 0.94259 0.88734 0.17439 0.0
C1289 C 0.96077 0.88426 0.16591 0.0
C1290 C 0.99649 0.88587 0.08573 0.0
C1291 C 0.04457 0.87961 0.12095 0.0
C1292 C 0.02492 0.8769 0.11395 0.0
C1293 C 0.96733 0.87964 0.12173 0.0
C1294 C 0.98698 0.87691 0.11432 0.0
H1295 H 0.07396 0.89101 0.20761 0.0
H1296 H 0.04231 0.88577 0.19351 0.0
H1297 H 0.02229 0.89378 0.06526 0.0
H1298 H 0.92749 0.87972 0.06669 0.0
H1299 H 0.95975 0.87458 0.05158 0.0
C1300 C 0.39548 0.68939 0.39036 0.0
C1301 C 0.38175 0.67715 0.37267 0.0
C1302 C 0.39546 0.70731 0.38393 0.0
C1303 C 0.37217 0.73843 0.3203 0.0
H1304 H 0.39208 0.77617 0.41555 0.0
C1305 C 0.3556 0.81634 0.35412 0.0
C1306 C 0.37029 0.82828 0.3593 0.0
C1307 C 0.35812 0.79752 0.34992 0.0
C1308 C 0.38663 0.76575 0.38848 0.0
H1309 H 0.35722 0.67406 0.3342 0.0
H1310 H 0.35654 0.70546 0.32497 0.0
H1311 H 0.39405 0.74431 0.42046 0.0
H1312 H 0.39918 0.8299 0.36345 0.0
H1313 H 0.40355 0.79699 0.35771 0.0
H1314 H 0.36378 0.76035 0.29012 0.0
C1315 C 0.3678 0.7012 0.34238 0.0
C1316 C 0.38784 0.74737 0.39102 0.0
C1317 C 0.3681 0.68313 0.34785 0.0
C1318 C 0.38762 0.82099 0.35921 0.0
C1319 C 0.39011 0.80221 0.35616 0.0
C1320 C 0.37059 0.75687 0.31839 0.0
C1321 C 0.3814 0.71369 0.36068 0.0
C1322 C 0.38061 0.73334 0.35702 0.0
C1323 C 0.37537 0.79033 0.35193 0.0
C1324 C 0.3778 0.7707 0.35248 0.0
H1325 H 0.40629 0.6851 0.40928 0.0
H1326 H 0.40649 0.71614 0.3975 0.0
H1327 H 0.36676 0.7282 0.29284 0.0
H1328 H 0.34211 0.82161 0.35416 0.0
H1329 H 0.34653 0.78868 0.34693 0.0
C1330 C 0.57145 0.14771 0.63996 0.0
C1331 C 0.58254 0.13392 0.61531 0.0
C1332 C 0.55297 0.14714 0.63362 0.0
C1333 C 0.51538 0.12637 0.56076 0.0
H1334 H 0.48974 0.13783 0.67395 0.0
C1335 C 0.43727 0.11925 0.58271 0.0
C1336 C 0.42934 0.13317 0.61561 0.0
C1337 C 0.45595 0.11876 0.57641 0.0
C1338 C 0.49662 0.13476 0.64192 0.0
H1339 H 0.58294 0.1092 0.56271 0.0
H1340 H 0.55031 0.10811 0.5517 0.0
H1341 H 0.52214 0.13803 0.67389 0.0
H1342 H 0.43466 0.15823 0.66501 0.0
H1343 H 0.46676 0.15755 0.6536 0.0
H1344 H 0.4895 0.1231 0.52905 0.0
C1345 C 0.55607 0.11943 0.57588 0.0
C1346 C 0.51527 0.13489 0.64188 0.0
C1347 C 0.57475 0.12006 0.58211 0.0
C1348 C 0.44032 0.14713 0.6399 0.0
C1349 C 0.45879 0.14669 0.63352 0.0
C1350 C 0.49654 0.12624 0.56081 0.0
C1351 C 0.54491 0.13267 0.60271 0.0
C1352 C 0.52496 0.13111 0.6014 0.0
C1353 C 0.46698 0.1322 0.60289 0.0
C1354 C 0.48694 0.13085 0.60148 0.0
H1355 H 0.57701 0.15875 0.66533 0.0
H1356 H 0.54491 0.15788 0.65397 0.0
H1357 H 0.52242 0.12333 0.52897 0.0
H1358 H 0.42918 0.10827 0.56354 0.0
H1359 H 0.46182 0.10742 0.55243 0.0
C1360 C 0.86901 0.18273 0.84754 0.0
C1361 C 0.88248 0.17682 0.87301 0.0
C1362 C 0.86886 0.20074 0.84158 0.0
C1363 C 0.88891 0.24694 0.88993 0.0
H1364 H 0.86544 0.25963 0.78792 0.0
C1365 C 0.88921 0.3204 0.8571 0.0
C1366 C 0.87193 0.32768 0.85621 0.0
C1367 C 0.89164 0.30164 0.8544 0.0
C1368 C 0.87208 0.25624 0.8165 0.0
H1369 H 0.90685 0.18484 0.9103 0.0
H1370 H 0.90732 0.21574 0.89768 0.0
H1371 H 0.8682 0.22754 0.79139 0.0
H1372 H 0.84376 0.32101 0.84967 0.0
H1373 H 0.84809 0.2881 0.84307 0.0
H1374 H 0.8932 0.27576 0.91404 0.0
C1375 C 0.89631 0.20691 0.88395 0.0
C1376 C 0.87354 0.23783 0.81884 0.0
C1377 C 0.89619 0.18906 0.89086 0.0
C1378 C 0.85723 0.31574 0.85038 0.0
C1379 C 0.85969 0.29693 0.84654 0.0
C1380 C 0.88782 0.26528 0.88697 0.0
C1381 C 0.88243 0.21323 0.86007 0.0
C1382 C 0.88176 0.23285 0.85596 0.0
C1383 C 0.87688 0.28975 0.84956 0.0
C1384 C 0.8792 0.27014 0.85056 0.0
H1385 H 0.85815 0.17365 0.83378 0.0
H1386 H 0.85772 0.20494 0.82367 0.0
H1387 H 0.89495 0.24397 0.91966 0.0
H1388 H 0.90078 0.32931 0.86186 0.0
H1389 H 0.90504 0.29643 0.85673 0.0
C1390 C 0.65456 0.81597 0.35331 0.0
C1391 C 0.63988 0.82796 0.35839 0.0
C1392 C 0.65198 0.79714 0.34879 0.0
C1393 C 0.62328 0.7653 0.38627 0.0
H1394 H 0.64318 0.72793 0.29005 0.0
C1395 C 0.61433 0.68885 0.38684 0.0
C1396 C 0.6281 0.67664 0.36907 0.0
C1397 C 0.61434 0.7068 0.38058 0.0
C1398 C 0.63775 0.73811 0.31767 0.0
H1399 H 0.61098 0.82968 0.36206 0.0
H1400 H 0.60652 0.79676 0.3558 0.0
H1401 H 0.64627 0.76014 0.28807 0.0
H1402 H 0.65267 0.6736 0.33066 0.0
H1403 H 0.65332 0.70503 0.32171 0.0
H1404 H 0.61573 0.74374 0.4177 0.0
C1405 C 0.61998 0.80195 0.35456 0.0
C1406 C 0.6394 0.75659 0.31617 0.0
C1407 C 0.62253 0.82073 0.35792 0.0
C1408 C 0.64175 0.68266 0.34431 0.0
C1409 C 0.64204 0.70075 0.33902 0.0
C1410 C 0.622 0.74688 0.3884 0.0
C1411 C 0.6347 0.79 0.35038 0.0
C1412 C 0.63219 0.77035 0.35048 0.0
C1413 C 0.62842 0.71322 0.35747 0.0
C1414 C 0.62924 0.73292 0.35418 0.0
H1415 H 0.66807 0.8212 0.35362 0.0
H1416 H 0.66355 0.78825 0.34585 0.0
H1417 H 0.61782 0.77567 0.41349 0.0
H1418 H 0.60353 0.68454 0.40575 0.0
H1419 H 0.60329 0.71562 0.39424 0.0
C1420 C 0.88076 0.69025 0.10954 0.0
C1421 C 0.87658 0.68123 0.1439 0.0
C1422 C 0.88372 0.70907 0.11905 0.0
C1423 C 0.87066 0.75158 0.19178 0.0
H1424 H 0.91135 0.77097 0.13886 0.0
C1425 C 0.87723 0.82917 0.19061 0.0
C1426 C 0.88344 0.83292 0.15007 0.0
C1427 C 0.87808 0.81134 0.19801 0.0
C1428 C 0.89983 0.76584 0.15367 0.0
H1429 H 0.87229 0.68485 0.21542 0.0
H1430 H 0.87693 0.71835 0.23216 0.0
H1431 H 0.90996 0.73841 0.13774 0.0
H1432 H 0.89554 0.82068 0.08574 0.0
H1433 H 0.89671 0.78996 0.09816 0.0
H1434 H 0.86001 0.77884 0.2054 0.0
C1435 C 0.87815 0.71058 0.19786 0.0
C1436 C 0.89913 0.74718 0.15336 0.0
C1437 C 0.8756 0.69148 0.18839 0.0
C1438 C 0.89069 0.81845 0.1175 0.0
C1439 C 0.8915 0.80073 0.12481 0.0
C1440 C 0.87125 0.7703 0.19166 0.0
C1441 C 0.88223 0.71952 0.16312 0.0
C1442 C 0.88434 0.73974 0.17128 0.0
C1443 C 0.8852 0.79684 0.16508 0.0
C1444 C 0.8856 0.77758 0.17131 0.0
H1445 H 0.88162 0.68272 0.07493 0.0
H1446 H 0.88667 0.71556 0.09155 0.0
H1447 H 0.85903 0.74618 0.20552 0.0
H1448 H 0.87156 0.83996 0.2165 0.0
H1449 H 0.87321 0.80893 0.22956 0.0
C1450 C 0.62336 0.19069 0.66617 0.0
C1451 C 0.64068 0.1835 0.66711 0.0
C1452 C 0.62083 0.20945 0.66903 0.0
C1453 C 0.64011 0.25495 0.70725 0.0
H1454 H 0.6174 0.2671 0.60374 0.0
C1455 C 0.64306 0.32843 0.67616 0.0
C1456 C 0.6296 0.33431 0.65061 0.0
C1457 C 0.64326 0.31042 0.68208 0.0
C1458 C 0.6234 0.26416 0.63356 0.0
H1459 H 0.66881 0.19034 0.67395 0.0
H1460 H 0.6643 0.22324 0.68086 0.0
H1461 H 0.61925 0.23532 0.60941 0.0
H1462 H 0.60529 0.32622 0.61311 0.0
H1463 H 0.6049 0.2953 0.62561 0.0
H1464 H 0.64385 0.28367 0.73239 0.0
C1465 C 0.65275 0.21434 0.67723 0.0
C1466 C 0.62454 0.24583 0.63655 0.0
C1467 C 0.65532 0.19554 0.67323 0.0
C1468 C 0.61595 0.32202 0.6326 0.0
C1469 C 0.61587 0.30416 0.63945 0.0
C1470 C 0.6386 0.27335 0.70487 0.0
C1471 C 0.63552 0.22142 0.67409 0.0
C1472 C 0.63311 0.24101 0.67309 0.0
C1473 C 0.62974 0.29789 0.66346 0.0
C1474 C 0.63044 0.27829 0.66762 0.0
H1475 H 0.61184 0.18171 0.66117 0.0
H1476 H 0.60741 0.21459 0.66661 0.0
H1477 H 0.64671 0.25159 0.73593 0.0
H1478 H 0.65388 0.33754 0.69009 0.0
H1479 H 0.65438 0.30625 0.70009 0.0
C1480 C 0.93724 0.391 0.94192 0.0
C1481 C 0.93005 0.37762 0.90658 0.0
C1482 C 0.95569 0.39129 0.95123 0.0
C1483 C 0.99677 0.36235 0.93002 0.0
H1484 H 0.02228 0.40812 0.94103 0.0
C1485 C 0.07066 0.36473 0.88208 0.0
C1486 C 0.08206 0.37819 0.90677 0.0
C1487 C 0.0524 0.36476 0.8916 0.0
C1488 C 0.01537 0.39527 0.93886 0.0
H1489 H 0.93652 0.35368 0.85458 0.0
H1490 H 0.96826 0.3541 0.87085 0.0
H1491 H 0.98955 0.408 0.94097 0.0
H1492 H 0.08315 0.4021 0.96164 0.0
H1493 H 0.05095 0.40225 0.97829 0.0
H1494 H 0.02246 0.34952 0.92653 0.0
C1495 C 0.95983 0.36438 0.89156 0.0
C1496 C 0.99658 0.3952 0.93883 0.0
C1497 C 0.94157 0.36422 0.88199 0.0
C1498 C 0.07474 0.39148 0.94217 0.0
C1499 C 0.05629 0.39165 0.95143 0.0
C1500 C 0.01547 0.36242 0.93005 0.0
C1501 C 0.96724 0.37804 0.92585 0.0
C1502 C 0.98704 0.37865 0.93302 0.0
C1503 C 0.04486 0.37833 0.92596 0.0
C1504 C 0.02505 0.37879 0.93308 0.0
H1505 H 0.92875 0.40158 0.96131 0.0
H1506 H 0.96093 0.40195 0.97804 0.0
H1507 H 0.9899 0.3494 0.92649 0.0
H1508 H 0.07581 0.35425 0.85462 0.0
H1509 H 0.04406 0.35444 0.87083 0.0
C1510 C 0.43597 0.63131 0.42533 0.0
C1511 C 0.42964 0.62098 0.38405 0.0
C1512 C 0.45445 0.63219 0.43473 0.0
C1513 C 0.49596 0.606 0.40163 0.0
H1514 H 0.52197 0.65179 0.43344 0.0
C1515 C 0.56861 0.61077 0.35189 0.0
C1516 C 0.58109 0.62023 0.38286 0.0
C1517 C 0.55039 0.6116 0.36168 0.0
C1518 C 0.51487 0.63889 0.42545 0.0
H1519 H 0.43769 0.60364 0.32039 0.0
H1520 H 0.4694 0.60495 0.33686 0.0
H1521 H 0.48905 0.65198 0.43375 0.0
H1522 H 0.58415 0.63834 0.44835 0.0
H1523 H 0.5518 0.64004 0.46548 0.0
H1524 H 0.52151 0.59289 0.39157 0.0
C1525 C 0.46029 0.61233 0.36213 0.0
C1526 C 0.49604 0.639 0.42563 0.0
C1527 C 0.44206 0.61166 0.35261 0.0
C1528 C 0.57483 0.63082 0.42397 0.0
C1529 C 0.55636 0.63185 0.43365 0.0
C1530 C 0.51463 0.60589 0.40148 0.0
C1531 C 0.46678 0.62248 0.40329 0.0
C1532 C 0.48641 0.62256 0.41205 0.0
C1533 C 0.54397 0.62203 0.40267 0.0
C1534 C 0.52434 0.62234 0.41169 0.0
H1535 H 0.4267 0.63872 0.45009 0.0
H1536 H 0.45908 0.64018 0.46671 0.0
H1537 H 0.48896 0.59309 0.39181 0.0
H1538 H 0.57292 0.60255 0.31982 0.0
H1539 H 0.54124 0.60413 0.33672 0.0
C1540 C 0.43665 0.37971 0.59641 0.0
C1541 C 0.43027 0.39 0.63774 0.0
C1542 C 0.45515 0.37879 0.58705 0.0
C1543 C 0.4967 0.40482 0.6208 0.0
H1544 H 0.52264 0.35899 0.58718 0.0
C1545 C 0.56942 0.39954 0.66937 0.0
C1546 C 0.58188 0.39032 0.6379 0.0
C1547 C 0.55118 0.39875 0.65988 0.0
C1548 C 0.51556 0.37191 0.5957 0.0
H1549 H 0.43828 0.40722 0.70153 0.0
H1550 H 0.47 0.40583 0.68517 0.0
H1551 H 0.48972 0.35892 0.58712 0.0
H1552 H 0.58488 0.37263 0.57183 0.0
H1553 H 0.5525 0.37098 0.55522 0.0
H1554 H 0.52227 0.41781 0.63114 0.0
C1555 C 0.46092 0.39852 0.65981 0.0
C1556 C 0.49672 0.37186 0.59567 0.0
C1557 C 0.44267 0.39923 0.66927 0.0
C1558 C 0.57558 0.37997 0.59661 0.0
C1559 C 0.55709 0.37897 0.58723 0.0
C1560 C 0.51537 0.40486 0.62084 0.0
C1561 C 0.46746 0.38842 0.61859 0.0
C1562 C 0.48712 0.3883 0.60987 0.0
C1563 C 0.54471 0.38859 0.6187 0.0
C1564 C 0.52506 0.38838 0.60994 0.0
H1565 H 0.4274 0.37237 0.57157 0.0
H1566 H 0.4598 0.37085 0.55502 0.0
H1567 H 0.48972 0.41774 0.63108 0.0
H1568 H 0.57375 0.40758 0.7016 0.0
H1569 H 0.54205 0.40605 0.6852 0.0
C1570 C 0.07084 0.64721 0.14154 0.0
C1571 C 0.08187 0.63327 0.11725 0.0
C1572 C 0.05237 0.64674 0.13521 0.0
C1573 C 0.01483 0.62579 0.06223 0.0
H1574 H 0.98877 0.6384 0.17469 0.0
C1575 C 0.93675 0.61876 0.08145 0.0
C1576 C 0.92851 0.63275 0.11356 0.0
C1577 C 0.95547 0.61835 0.0762 0.0
C1578 C 0.99576 0.63503 0.14285 0.0
H1579 H 0.08213 0.60833 0.06532 0.0
H1580 H 0.04951 0.60739 0.05434 0.0
H1581 H 0.02116 0.63849 0.17539 0.0
H1582 H 0.93339 0.65797 0.16282 0.0
H1583 H 0.96559 0.65741 0.15322 0.0
H1584 H 0.98909 0.6223 0.02991 0.0
C1585 C 0.05532 0.61876 0.07825 0.0
C1586 C 0.01442 0.63508 0.14325 0.0
C1587 C 0.074 0.6193 0.08447 0.0
C1588 C 0.93926 0.64681 0.13828 0.0
C1589 C 0.9578 0.64644 0.13295 0.0
C1590 C 0.99599 0.62573 0.06183 0.0
C1591 C 0.04423 0.63221 0.10464 0.0
C1592 C 0.02427 0.63084 0.10301 0.0
C1593 C 0.96626 0.63193 0.10295 0.0
C1594 C 0.98624 0.63072 0.1022 0.0
H1595 H 0.07646 0.65834 0.16657 0.0
H1596 H 0.04436 0.65762 0.1552 0.0
H1597 H 0.02198 0.62241 0.03062 0.0
H1598 H 0.92885 0.6077 0.06195 0.0
H1599 H 0.96153 0.60698 0.05272 0.0
C1600 C 0.14767 0.56938 0.11037 0.0
C1601 C 0.1316 0.57712 0.12974 0.0
C1602 C 0.14786 0.55187 0.08199 0.0
C1603 C 0.11977 0.51912 1.00509 0.0
H1604 H 0.15365 0.48249 0.02423 0.0
C1605 C 0.11579 0.44431 0.90228 0.0
C1606 C 0.13163 0.43413 0.89273 0.0
C1607 C 0.11591 0.46169 0.93119 0.0
C1608 C 0.14428 0.49258 0.01768 0.0
H1609 H 0.10311 0.57269 0.13418 0.0
H1610 H 0.10337 0.54228 0.08378 0.0
H1611 H 0.15386 0.51286 0.07386 0.0
H1612 H 0.16008 0.43423 0.90554 0.0
H1613 H 0.16055 0.46481 0.95421 0.0
H1614 H 0.11051 0.49928 0.94814 0.0
C1615 C 0.11584 0.54968 0.09089 0.0
C1616 C 0.14436 0.51 0.04645 0.0
C1617 C 0.11571 0.56704 0.11993 0.0
C1618 C 0.14764 0.44176 0.91236 0.0
C1619 C 0.14784 0.45928 0.94069 0.0
C1620 C 0.11988 0.50182 0.9758 0.0
C1621 C 0.13192 0.54188 0.07165 0.0
C1622 C 0.13203 0.52343 0.04067 0.0
C1623 C 0.13195 0.46952 0.95082 0.0
C1624 C 0.13207 0.48819 0.98173 0.0
H1625 H 0.16012 0.57686 0.1172 0.0
H1626 H 0.16043 0.54628 0.06744 0.0
H1627 H 0.11025 0.52926 0.99942 0.0
H1628 H 0.10319 0.4387 0.88804 0.0
H1629 H 0.1033 0.4688 0.93867 0.0
C1630 C 0.70463 0.89547 0.33157 0.0
C1631 C 0.69154 0.88271 0.31206 0.0
C1632 C 0.72144 0.89573 0.311 0.0
C1633 C 0.74452 0.87851 0.20019 0.0
H1634 H 0.78772 0.89198 0.26959 0.0
C1635 C 0.81519 0.8657 0.12195 0.0
C1636 C 0.82751 0.88015 0.13245 0.0
C1637 C 0.7988 0.86662 0.14467 0.0
C1638 C 0.77574 0.88831 0.24974 0.0
H1639 H 0.68621 0.85973 0.25657 0.0
H1640 H 0.71538 0.85967 0.22206 0.0
H1641 H 0.75904 0.89222 0.30819 0.0
H1642 H 0.83221 0.90701 0.17484 0.0
H1643 H 0.80378 0.90841 0.21544 0.0
H1644 H 0.76132 0.87413 0.1419 0.0
C1645 C 0.71263 0.87001 0.25218 0.0
C1646 C 0.75923 0.88851 0.27186 0.0
C1647 C 0.69584 0.86993 0.2723 0.0
C1648 C 0.82309 0.89555 0.1663 0.0
C1649 C 0.80681 0.89635 0.1896 0.0
C1650 C 0.761 0.87807 0.17823 0.0
C1651 C 0.72565 0.88309 0.27066 0.0
C1652 C 0.74334 0.88348 0.24744 0.0
C1653 C 0.79441 0.88193 0.17888 0.0
C1654 C 0.77685 0.88286 0.20266 0.0
H1655 H 0.70173 0.90555 0.3621 0.0
H1656 H 0.73095 0.90614 0.32624 0.0
H1657 H 0.73265 0.87505 0.17983 0.0
H1658 H 0.81818 0.85364 0.09605 0.0
H1659 H 0.78963 0.85522 0.1358 0.0
C1660 C 0.37164 0.43907 0.53327 0.0
C1661 C 0.37237 0.43978 0.57973 0.0
C1662 C 0.37095 0.45503 0.51695 0.0
C1663 C 0.36103 0.50483 0.54914 0.0
H1664 H 0.38789 0.50573 0.44094 0.0
C1665 C 0.37279 0.57148 0.4882 0.0
C1666 C 0.37228 0.57101 0.44182 0.0
C1667 C 0.37197 0.55542 0.50409 0.0
C1668 C 0.38011 0.50565 0.47079 0.0
H1669 H 0.37263 0.45815 0.64543 0.0
H1670 H 0.37165 0.48622 0.61682 0.0
H1671 H 0.38847 0.47845 0.47179 0.0
H1672 H 0.37037 0.55297 0.37588 0.0
H1673 H 0.36893 0.52473 0.40377 0.0
H1674 H 0.35284 0.53214 0.54831 0.0
C1675 C 0.37144 0.47314 0.59302 0.0
C1676 C 0.38044 0.48997 0.48864 0.0
C1677 C 0.37207 0.45705 0.60951 0.0
C1678 C 0.37081 0.55389 0.41174 0.0
C1679 C 0.37008 0.5377 0.42777 0.0
C1680 C 0.36073 0.52053 0.53135 0.0
C1681 C 0.37106 0.47234 0.54641 0.0
C1682 C 0.3709 0.4893 0.52807 0.0
C1683 C 0.37066 0.53827 0.47424 0.0
C1684 C 0.37031 0.52119 0.49197 0.0
H1685 H 0.37161 0.42609 0.50905 0.0
H1686 H 0.37021 0.45374 0.48098 0.0
H1687 H 0.35328 0.50478 0.57906 0.0
H1688 H 0.37391 0.58432 0.51269 0.0
H1689 H 0.37275 0.55646 0.53997 0.0
C1690 C 0.82101 0.1142 0.86698 0.0
C1691 C 0.82763 0.13117 0.89063 0.0
C1692 C 0.80493 0.11317 0.84296 0.0
C1693 C 0.77422 0.13958 0.78739 0.0
H1694 H 0.73817 0.10505 0.80708 0.0
C1695 C 0.70759 0.12555 0.68485 0.0
C1696 C 0.69205 0.12651 0.71126 0.0
C1697 C 0.72461 0.12561 0.70443 0.0
C1698 C 0.74813 0.11473 0.8011 0.0
H1699 H 0.82281 0.16038 0.90675 0.0
H1700 H 0.79487 0.15862 0.86404 0.0
H1701 H 0.76704 0.10632 0.8453 0.0
H1702 H 0.68229 0.12787 0.77884 0.0
H1703 H 0.71181 0.12747 0.81243 0.0
H1704 H 0.75527 0.14793 0.74301 0.0
C1705 C 0.80206 0.14611 0.86437 0.0
C1706 C 0.7647 0.11539 0.82281 0.0
C1707 C 0.81799 0.14711 0.88906 0.0
C1708 C 0.69395 0.12717 0.75744 0.0
C1709 C 0.71088 0.12685 0.77673 0.0
C1710 C 0.75775 0.13868 0.76498 0.0
C1711 C 0.79524 0.12911 0.84134 0.0
C1712 C 0.77789 0.12796 0.81665 0.0
C1713 C 0.72644 0.12621 0.75062 0.0
C1714 C 0.74442 0.12639 0.772 0.0
H1715 H 0.82817 0.10168 0.86741 0.0
H1716 H 0.80012 0.09989 0.82532 0.0
H1717 H 0.78414 0.14934 0.7817 0.0
H1718 H 0.70661 0.12509 0.64925 0.0
H1719 H 0.73635 0.12503 0.68338 0.0
C1720 C 0.86473 0.5698 0.10262 0.0
C1721 C 0.88043 0.57716 0.12472 0.0
C1722 C 0.86475 0.55228 0.07438 0.0
C1723 C 0.89337 0.51853 1.00224 0.0
H1724 H 0.85814 0.48287 0.01965 0.0
C1725 C 0.89679 0.44335 0.90119 0.0
C1726 C 0.88084 0.43343 0.8911 0.0
C1727 C 0.89673 0.46082 0.92967 0.0
C1728 C 0.8679 0.49267 0.01352 0.0
H1729 H 0.90854 0.5721 0.13392 0.0
H1730 H 0.90868 0.54163 0.08353 0.0
H1731 H 0.85789 0.51344 0.0682 0.0
H1732 H 0.85227 0.43412 0.90241 0.0
H1733 H 0.85192 0.46488 0.95011 0.0
H1734 H 0.90304 0.49824 0.94663 0.0
C1735 C 0.89632 0.54936 0.08854 0.0
C1736 C 0.8678 0.51021 0.04172 0.0
C1737 C 0.89622 0.56674 0.11752 0.0
C1738 C 0.86479 0.44143 0.9097 0.0
C1739 C 0.86466 0.45906 0.9375 0.0
C1740 C 0.89327 0.50112 0.97343 0.0
C1741 C 0.88056 0.54188 0.06687 0.0
C1742 C 0.88058 0.5233 0.03657 0.0
C1743 C 0.88065 0.46904 0.94824 0.0
C1744 C 0.88059 0.48782 0.97869 0.0
H1745 H 0.85238 0.57755 0.10741 0.0
H1746 H 0.85244 0.54694 0.05789 0.0
H1747 H 0.90327 0.52841 0.99714 0.0
H1748 H 0.90941 0.43744 0.88776 0.0
H1749 H 0.90941 0.4677 0.93764 0.0
C1750 C 0.18837 0.11567 0.85825 0.0
C1751 C 0.18387 0.13107 0.89206 0.0
C1752 C 0.20461 0.11496 0.83485 0.0
C1753 C 0.25032 0.13352 0.84562 0.0
H1754 H 0.2521 0.11896 0.7157 0.0
C1755 C 0.3154 0.14122 0.75061 0.0
C1756 C 0.31962 0.12837 0.7109 0.0
C1757 C 0.29864 0.14124 0.77094 0.0
C1758 C 0.25197 0.12278 0.75201 0.0
H1759 H 0.19307 0.15765 0.92827 0.0
H1760 H 0.22158 0.15623 0.88832 0.0
H1761 H 0.2235 0.11926 0.75463 0.0
H1762 H 0.3093 0.10549 0.6612 0.0
H1763 H 0.28014 0.10506 0.69744 0.0
H1764 H 0.27867 0.13657 0.84368 0.0
C1765 C 0.21247 0.14476 0.87958 0.0
C1766 C 0.2355 0.12302 0.77433 0.0
C1767 C 0.19611 0.1456 0.90241 0.0
C1768 C 0.30647 0.11563 0.69167 0.0
C1769 C 0.28969 0.11546 0.71247 0.0
C1770 C 0.26678 0.13303 0.82346 0.0
C1771 C 0.21692 0.12946 0.84539 0.0
C1772 C 0.23445 0.1286 0.82141 0.0
C1773 C 0.28556 0.12819 0.75275 0.0
C1774 C 0.2679 0.1279 0.77622 0.0
H1775 H 0.17932 0.10415 0.84979 0.0
H1776 H 0.20769 0.1029 0.80904 0.0
H1777 H 0.25006 0.13757 0.88194 0.0
H1778 H 0.32508 0.15142 0.76612 0.0
H1779 H 0.29596 0.15165 0.80099 0.0
C1780 C 0.64056 0.55387 0.4105 0.0
C1781 C 0.63939 0.57107 0.44037 0.0
C1782 C 0.64134 0.53774 0.42681 0.0
C1783 C 0.65122 0.52072 0.53035 0.0
H1784 H 0.62292 0.47889 0.47235 0.0
C1785 C 0.64012 0.45738 0.60935 0.0
C1786 C 0.63961 0.44011 0.57963 0.0
C1787 C 0.64068 0.47347 0.5928 0.0
C1788 C 0.6311 0.49034 0.48876 0.0
H1789 H 0.63841 0.5846 0.51117 0.0
H1790 H 0.63966 0.55684 0.53897 0.0
H1791 H 0.62345 0.5061 0.44126 0.0
H1792 H 0.63991 0.4264 0.50893 0.0
H1793 H 0.64118 0.45402 0.48075 0.0
H1794 H 0.65887 0.50495 0.57788 0.0
C1795 C 0.64015 0.55568 0.50302 0.0
C1796 C 0.63142 0.50598 0.47078 0.0
C1797 C 0.63929 0.57169 0.48684 0.0
C1798 C 0.64005 0.43938 0.53314 0.0
C1799 C 0.64067 0.45533 0.51675 0.0
C1800 C 0.65095 0.50505 0.5483 0.0
C1801 C 0.6411 0.53845 0.47337 0.0
C1802 C 0.64143 0.52143 0.49136 0.0
C1803 C 0.64078 0.47265 0.54617 0.0
C1804 C 0.64088 0.4896 0.52777 0.0
H1805 H 0.64068 0.55283 0.37457 0.0
H1806 H 0.64222 0.52472 0.40294 0.0
H1807 H 0.65928 0.53225 0.54687 0.0
H1808 H 0.63978 0.4585 0.6453 0.0
H1809 H 0.64065 0.48656 0.61658 0.0
C1810 C 0.31436 0.87026 0.27384 0.0
C1811 C 0.31876 0.88313 0.31341 0.0
C1812 C 0.29741 0.87017 0.25445 0.0
C1813 C 0.25903 0.89932 0.24416 0.0
H1814 H 0.2341 0.85333 0.20311 0.0
C1815 C 0.18842 0.89607 0.16269 0.0
C1816 C 0.18407 0.88061 0.12906 0.0
C1817 C 0.20432 0.89666 0.18734 0.0
C1818 C 0.24093 0.8663 0.21361 0.0
H1819 H 0.30864 0.90606 0.36352 0.0
H1820 H 0.27899 0.90613 0.32892 0.0
H1821 H 0.2625 0.85387 0.24222 0.0
H1822 H 0.1933 0.85387 0.09393 0.0
H1823 H 0.22128 0.85512 0.13521 0.0
H1824 H 0.23787 0.91172 0.21425 0.0
C1825 C 0.28875 0.89603 0.3132 0.0
C1826 C 0.25721 0.8666 0.23641 0.0
C1827 C 0.30569 0.89593 0.33315 0.0
C1828 C 0.19618 0.86593 0.11989 0.0
C1829 C 0.21219 0.86661 0.14404 0.0
C1830 C 0.24284 0.899 0.22075 0.0
C1831 C 0.28441 0.8831 0.27363 0.0
C1832 C 0.26654 0.88308 0.25173 0.0
C1833 C 0.21649 0.88192 0.17849 0.0
C1834 C 0.23356 0.88245 0.20475 0.0
H1835 H 0.32405 0.86016 0.2577 0.0
H1836 H 0.29459 0.86013 0.2238 0.0
H1837 H 0.26596 0.91222 0.25511 0.0
H1838 H 0.17942 0.90768 0.17035 0.0
H1839 H 0.20689 0.90862 0.2138 0.0
C1840 C 0.64756 0.94153 0.41202 0.0
C1841 C 0.63154 0.93384 0.39258 0.0
C1842 C 0.64779 0.95916 0.43976 0.0
C1843 C 0.61994 1.00183 0.47345 0.0
H1844 H 0.65385 0.01324 0.57161 0.0
C1845 C 0.61574 0.06741 0.61649 0.0
C1846 C 0.63164 0.07747 0.62637 0.0
C1847 C 0.61588 0.05004 0.58757 0.0
C1848 C 0.64437 0.01028 0.54416 0.0
H1849 H 0.60312 0.93842 0.38759 0.0
H1850 H 0.60327 0.96874 0.43725 0.0
H1851 H 0.65359 0.98271 0.52278 0.0
H1852 H 0.66017 0.07719 0.61396 0.0
H1853 H 0.66049 0.04657 0.56438 0.0
H1854 H 0.61036 0.02934 0.49625 0.0
C1855 C 0.61587 0.96157 0.43005 0.0
C1856 C 0.64426 0.99277 0.51584 0.0
C1857 C 0.61572 0.94408 0.4017 0.0
C1858 C 0.64772 0.06972 0.60708 0.0
C1859 C 0.64791 0.05219 0.57881 0.0
C1860 C 0.61985 0.01923 0.50228 0.0
C1861 C 0.63192 0.96946 0.44951 0.0
C1862 C 0.63207 0.98823 0.47989 0.0
C1863 C 0.63197 0.04219 0.56851 0.0
C1864 C 0.63209 0.02367 0.53789 0.0
H1865 H 0.65999 0.93396 0.4055 0.0
H1866 H 0.6605 0.96473 0.45315 0.0
H1867 H 0.61058 0.99918 0.44576 0.0
H1868 H 0.60314 0.07307 0.63068 0.0
H1869 H 0.60341 0.04263 0.58048 0.0
C1870 C 0.20482 0.39557 0.82911 0.0
C1871 C 0.1916 0.38295 0.80969 0.0
C1872 C 0.22162 0.39569 0.80836 0.0
C1873 C 0.2446 0.37814 0.69739 0.0
H1874 H 0.28781 0.39176 0.76663 0.0
C1875 C 0.31542 0.36548 0.61919 0.0
C1876 C 0.32763 0.38004 0.62959 0.0
C1877 C 0.29902 0.36631 0.64186 0.0
C1878 C 0.27583 0.38803 0.74682 0.0
H1879 H 0.18602 0.36007 0.75415 0.0
H1880 H 0.21518 0.35974 0.71938 0.0
H1881 H 0.25915 0.39209 0.8053 0.0
H1882 H 0.3321 0.40699 0.67177 0.0
H1883 H 0.30367 0.40822 0.71226 0.0
H1884 H 0.26141 0.37359 0.63906 0.0
C1885 C 0.21255 0.3701 0.74954 0.0
C1886 C 0.25933 0.38829 0.76898 0.0
C1887 C 0.19576 0.37017 0.76981 0.0
C1888 C 0.32307 0.39545 0.66329 0.0
C1889 C 0.30679 0.39615 0.68654 0.0
C1890 C 0.2611 0.37761 0.67538 0.0
C1891 C 0.22571 0.38303 0.76796 0.0
C1892 C 0.24342 0.38325 0.74463 0.0
C1893 C 0.29451 0.38163 0.67594 0.0
C1894 C 0.27694 0.38249 0.69975 0.0
H1895 H 0.20204 0.40565 0.85972 0.0
H1896 H 0.23122 0.40601 0.82357 0.0
H1897 H 0.23274 0.37465 0.67704 0.0
H1898 H 0.31851 0.35342 0.59342 0.0
H1899 H 0.28993 0.35483 0.63307 0.0
C1900 C 0.87239 0.93923 0.0363 0.0
C1901 C 0.87334 0.93972 0.08264 0.0
C1902 C 0.87183 0.95531 0.02046 0.0
C1903 C 0.86253 1.00521 0.05406 0.0
H1904 H 0.88862 0.00608 0.94474 0.0
C1905 C 0.87347 0.07189 0.99208 0.0
C1906 C 0.87267 0.0713 0.94566 0.0
C1907 C 0.8729 0.05587 1.00827 0.0
C1908 C 0.88105 0.00602 0.97494 0.0
H1909 H 0.87416 0.95784 0.14862 0.0
H1910 H 0.87339 0.98613 0.12084 0.0
H1911 H 0.88934 0.97874 0.97527 0.0
H1912 H 0.87048 0.05309 0.88 0.0
H1913 H 0.86944 0.02498 0.90837 0.0
H1914 H 0.8544 0.03261 0.05383 0.0
C1915 C 0.87292 0.97313 0.09678 0.0
C1916 C 0.88147 0.9903 0.9926 0.0
C1917 C 0.87342 0.9569 0.11278 0.0
C1918 C 0.87115 0.05411 0.91588 0.0
C1919 C 0.87065 0.03798 0.93219 0.0
C1920 C 0.86215 0.02097 0.03644 0.0
C1921 C 0.87228 0.97253 0.05028 0.0
C1922 C 0.87217 0.98961 0.03237 0.0
C1923 C 0.87154 0.03866 0.97869 0.0
C1924 C 0.87142 0.02161 0.99661 0.0
H1925 H 0.87207 0.92634 0.01178 0.0
H1926 H 0.87089 0.95419 0.98458 0.0
H1927 H 0.85498 1.00516 0.0843 0.0
H1928 H 0.87465 0.08479 0.01633 0.0
H1929 H 0.87389 0.057 0.04415 0.0
C1930 C 0.20473 0.61536 0.19235 0.0
C1931 C 0.19161 0.62821 0.21143 0.0
C1932 C 0.2215 0.61518 0.21314 0.0
C1933 C 0.24433 0.6329 0.32398 0.0
H1934 H 0.28766 0.61884 0.2553 0.0
C1935 C 0.31491 0.64536 0.40296 0.0
C1936 C 0.32712 0.63077 0.39277 0.0
C1937 C 0.29858 0.64454 0.38008 0.0
C1938 C 0.27565 0.62269 0.27495 0.0
H1939 H 0.18618 0.65142 0.2663 0.0
H1940 H 0.21528 0.65162 0.30114 0.0
H1941 H 0.2591 0.61855 0.21629 0.0
H1942 H 0.33167 0.60379 0.35078 0.0
H1943 H 0.30336 0.60256 0.30998 0.0
H1944 H 0.26098 0.63749 0.38249 0.0
C1945 C 0.21259 0.64115 0.27124 0.0
C1946 C 0.2592 0.62246 0.2526 0.0
C1947 C 0.19584 0.64115 0.25093 0.0
C1948 C 0.32263 0.61534 0.3591 0.0
C1949 C 0.30642 0.61465 0.33567 0.0
C1950 C 0.26075 0.63338 0.34618 0.0
C1951 C 0.22563 0.62799 0.25324 0.0
C1952 C 0.24326 0.62768 0.27675 0.0
C1953 C 0.29414 0.6292 0.34603 0.0
C1954 C 0.27664 0.62836 0.32201 0.0
H1955 H 0.20189 0.60516 0.16204 0.0
H1956 H 0.23103 0.6047 0.19827 0.0
H1957 H 0.23242 0.63652 0.34416 0.0
H1958 H 0.31796 0.65744 0.4287 0.0
H1959 H 0.28949 0.65604 0.38868 0.0
C1960 C 0.39497 0.94397 0.4031 0.0
C1961 C 0.37903 0.93393 0.39376 0.0
C1962 C 0.39495 0.96136 0.43203 0.0
C1963 C 0.36665 1.00115 0.47656 0.0
H1964 H 0.40066 0.01193 0.57451 0.0
C1965 C 0.36358 0.06954 0.60998 0.0
C1966 C 0.3796 0.07718 0.62954 0.0
C1967 C 0.36336 0.05199 0.58184 0.0
C1968 C 0.39125 0.00938 0.54694 0.0
H1969 H 0.35057 0.93427 0.40703 0.0
H1970 H 0.35046 0.9649 0.45656 0.0
H1971 H 0.4008 0.9819 0.52348 0.0
H1972 H 0.40802 0.07259 0.63436 0.0
H1973 H 0.40788 0.04241 0.58402 0.0
H1974 H 0.35746 0.0287 0.49858 0.0
C1975 C 0.36297 0.95926 0.44174 0.0
C1976 C 0.39129 0.99205 0.51781 0.0
C1977 C 0.36305 0.94172 0.4135 0.0
C1978 C 0.39542 0.06697 0.62016 0.0
C1979 C 0.39528 0.04955 0.59141 0.0
C1980 C 0.36681 0.01861 0.50517 0.0
C1981 C 0.37895 0.96922 0.4516 0.0
C1982 C 0.37895 0.98771 0.48238 0.0
C1983 C 0.37923 0.04171 0.57181 0.0
C1984 C 0.37908 0.02302 0.541 0.0
H1985 H 0.40751 0.93828 0.38857 0.0
H1986 H 0.40745 0.96874 0.43878 0.0
H1987 H 0.3571 0.99828 0.44926 0.0
H1988 H 0.35115 0.07709 0.61669 0.0
H1989 H 0.35064 0.04646 0.56839 0.0
C1990 C 0.80319 0.62631 0.178 0.0
C1991 C 0.81869 0.62746 0.2046 0.0
C1992 C 0.78609 0.62695 0.19769 0.0
C1993 C 0.76342 0.64155 0.30917 0.0
H1994 H 0.72411 0.61173 0.25156 0.0
C1995 C 0.68902 0.61591 0.35786 0.0
C1996 C 0.68287 0.63219 0.38616 0.0
C1997 C 0.70491 0.61565 0.33325 0.0
C1998 C 0.73496 0.62008 0.26834 0.0
H1999 H 0.82812 0.62956 0.27283 0.0
H2000 H 0.79878 0.63031 0.30635 0.0
H2001 H 0.75299 0.61031 0.21344 0.0
H2002 H 0.6884 0.66105 0.4101 0.0
H2003 H 0.71588 0.66076 0.3669 0.0
H2004 H 0.74578 0.65086 0.36463 0.0
C2005 C 0.79965 0.62943 0.27055 0.0
C2006 C 0.7515 0.61943 0.24613 0.0
C2007 C 0.8166 0.62887 0.25107 0.0
C2008 C 0.69286 0.64824 0.38893 0.0
C2009 C 0.7087 0.64803 0.36421 0.0
C2010 C 0.74697 0.64215 0.33135 0.0
C2011 C 0.7841 0.62873 0.24442 0.0
C2012 C 0.76605 0.63001 0.26647 0.0
C2013 C 0.71508 0.6317 0.33623 0.0
C2014 C 0.73248 0.63135 0.31149 0.0
H2015 H 0.80425 0.62522 0.14215 0.0
H2016 H 0.77445 0.62645 0.17642 0.0
H2017 H 0.77413 0.65017 0.32575 0.0
H2018 H 0.68162 0.60329 0.35502 0.0
H2019 H 0.70941 0.60276 0.31264 0.0
C2020 C 0.13971 0.05424 0.91144 0.0
C2021 C 0.13852 0.07139 0.94157 0.0
C2022 C 0.14032 0.03804 0.92745 0.0
C2023 C 0.14982 0.0207 0.03067 0.0
H2024 H 0.12146 0.97905 0.97185 0.0
C2025 C 0.1385 0.95715 0.10853 0.0
C2026 C 0.13808 0.93992 0.07859 0.0
C2027 C 0.13902 0.9733 0.09225 0.0
C2028 C 0.12966 0.99045 0.98849 0.0
H2029 H 0.13729 0.08472 0.01248 0.0
H2030 H 0.13825 0.05683 0.03973 0.0
H2031 H 0.12219 0.00636 0.94116 0.0
H2032 H 0.13843 0.92637 1.00776 0.0
H2033 H 0.13963 0.9541 0.98005 0.0
H2034 H 0.1573 1.00479 0.078 0.0
C2035 C 0.13889 0.05578 1.00383 0.0
C2036 C 0.13008 0.00614 0.97073 0.0
C2037 C 0.13819 0.07186 0.98797 0.0
C2038 C 0.13851 0.93931 0.03214 0.0
C2039 C 0.13909 0.95532 0.01602 0.0
C2040 C 0.14943 1.00498 0.04837 0.0
C2041 C 0.1399 0.03862 0.97394 0.0
C2042 C 0.14012 0.02153 0.99163 0.0
C2043 C 0.13917 0.97258 0.04567 0.0
C2044 C 0.13935 0.9896 0.02755 0.0
H2045 H 0.14001 0.05332 0.87557 0.0
H2046 H 0.14125 0.02506 0.90341 0.0
H2047 H 0.15789 0.03219 0.04741 0.0
H2048 H 0.13817 0.95817 0.14444 0.0
H2049 H 0.13895 0.98634 0.11618 0.0
C2050 C 0.69683 0.36568 0.61929 0.0
C2051 C 0.68461 0.38026 0.62986 0.0
C2052 C 0.71323 0.36646 0.64184 0.0
C2053 C 0.73644 0.38804 0.74673 0.0
H2054 H 0.77952 0.37461 0.67663 0.0
C2055 C 0.80745 0.39528 0.82864 0.0
C2056 C 0.82066 0.38263 0.80911 0.0
C2057 C 0.79066 0.39549 0.80796 0.0
C2058 C 0.76766 0.37811 0.69706 0.0
H2059 H 0.68013 0.40718 0.67226 0.0
H2060 H 0.70857 0.40832 0.71255 0.0
H2061 H 0.75083 0.37366 0.63886 0.0
H2062 H 0.82622 0.35978 0.75341 0.0
H2063 H 0.79709 0.3596 0.71874 0.0
H2064 H 0.75313 0.392 0.80509 0.0
C2065 C 0.70545 0.39628 0.68677 0.0
C2066 C 0.75116 0.37765 0.67518 0.0
C2067 C 0.68917 0.39563 0.66363 0.0
C2068 C 0.8165 0.36991 0.76916 0.0
C2069 C 0.79972 0.36992 0.74895 0.0
C2070 C 0.75295 0.38824 0.76878 0.0
C2071 C 0.71774 0.38174 0.67598 0.0
C2072 C 0.73532 0.38254 0.69966 0.0
C2073 C 0.78657 0.38288 0.76751 0.0
C2074 C 0.76885 0.38317 0.7443 0.0
H2075 H 0.69374 0.35365 0.59346 0.0
H2076 H 0.72233 0.35497 0.63291 0.0
H2077 H 0.72447 0.39178 0.76664 0.0
H2078 H 0.81023 0.40532 0.8593 0.0
H2079 H 0.78107 0.40583 0.82327 0.0
loop_
_geom_bond_atom_site_label_1
_geom_bond_atom_site_label_2
_geom_bond_distance
_geom_bond_site_symmetry_2
_ccdc_geom_bond_type
Sm0 C2 2.846 1_554 S
Sm0 O20 2.530 1_554 S
Sm0 O21 2.450 . S
Sm0 O22 2.681 . S
Sm0 O23 2.464 . S
Sm0 O24 2.396 . S
Sm0 O28 2.386 . S
Sm0 O31 2.408 . S
Sm1 C11 2.846 . S
Sm1 O22 2.386 . S
Sm1 O25 2.408 . S
Sm1 O26 2.543 . S
Sm1 O27 2.450 . S
Sm1 O28 2.681 . S
Sm1 O29 2.464 . S
Sm1 O30 2.396 . S
C2 Sm0 2.846 1_556 S
C2 C3 1.506 . S
C2 O20 1.272 . S
C2 O21 1.242 1_556 S
C3 C2 1.506 . S
C3 C4 1.358 . S
C3 C8 1.382 . S
C4 C3 1.358 . S
C4 C5 1.385 . S
C4 H32 0.930 . S
C5 C4 1.385 . S
C5 C6 1.395 . S
C5 H33 0.929 . S
C6 C5 1.395 . S
C6 C7 1.335 . S
C7 C6 1.335 . S
C7 C8 1.398 . S
C7 H34 0.930 . S
C8 C3 1.382 . S
C8 C7 1.398 . S
C8 H35 0.929 . S
C9 O22 1.271 . S
C9 O23 1.251 . S
C10 O24 1.252 . S
C10 O25 1.272 . S
C11 Sm1 2.846 . S
C11 C12 1.506 . S
C11 O26 1.261 . S
C11 O27 1.242 . S
C12 C11 1.506 . S
C12 C13 1.358 . S
C12 C17 1.382 . S
C13 C12 1.358 . S
C13 C14 1.385 . S
C13 H36 0.930 . S
C14 C13 1.385 . S
C14 C15 1.395 . S
C14 H37 0.929 . S
C15 C14 1.395 . S
C15 C16 1.335 . S
C16 C15 1.335 . S
C16 C17 1.398 . S
C16 H38 0.930 . S
C17 C12 1.382 . S
C17 C16 1.398 . S
C17 H39 0.929 . S
C18 O28 1.271 . S
C18 O29 1.251 . S
C19 O30 1.252 . S
C19 O31 1.272 . S
O20 Sm0 2.530 1_556 S
O20 C2 1.272 . S
O21 Sm0 2.450 . S
O21 C2 1.242 1_554 S
O22 Sm0 2.681 . S
O22 Sm1 2.386 . S
O22 C9 1.271 . S
O23 Sm0 2.464 . S
O23 C9 1.251 . S
O24 Sm0 2.396 . S
O24 C10 1.252 . S
O25 Sm1 2.408 . S
O25 C10 1.272 . S
O26 Sm1 2.543 . S
O26 C11 1.261 . S
O27 Sm1 2.450 . S
O27 C11 1.242 . S
O28 Sm0 2.386 . S
O28 Sm1 2.681 . S
O28 C18 1.271 . S
O29 Sm1 2.464 . S
O29 C18 1.251 . S
O30 Sm1 2.396 . S
O30 C19 1.252 . S
O31 Sm0 2.408 . S
O31 C19 1.272 . S
H32 C4 0.930 . S
H33 C5 0.929 . S
H34 C7 0.930 . S
H35 C8 0.929 . S
H36 C13 0.930 . S
H37 C14 0.929 . S
H38 C16 0.930 . S
H39 C17 0.929 . S
Sm40 C42 2.846 . S
Sm40 O60 2.543 . S
Sm40 O61 2.450 . S
Sm40 O62 2.681 . S
Sm40 O63 2.464 . S
Sm40 O64 2.396 . S
Sm40 O68 2.386 . S
Sm40 O71 2.408 . S
Sm41 C51 2.846 . S
Sm41 O62 2.386 . S
Sm41 O65 2.408 . S
Sm41 O66 2.543 . S
Sm41 O67 2.450 . S
Sm41 O68 2.681 . S
Sm41 O69 2.464 . S
Sm41 O70 2.396 . S
C42 Sm40 2.846 . S
C42 C43 1.506 . S
C42 O60 1.261 . S
C42 O61 1.242 . S
C43 C42 1.506 . S
C43 C44 1.358 . S
C43 C48 1.382 . S
C44 C43 1.358 . S
C44 C45 1.385 . S
C44 H72 0.930 . S
C45 C44 1.385 . S
C45 C46 1.395 . S
C45 H73 0.929 . S
C46 C45 1.395 . S
C46 C47 1.335 . S
C47 C46 1.335 . S
C47 C48 1.398 . S
C47 H74 0.930 . S
C48 C43 1.382 . S
C48 C47 1.398 . S
C48 H75 0.929 . S
C49 O62 1.271 . S
C49 O63 1.251 . S
C50 O64 1.252 . S
C50 O65 1.272 . S
C51 Sm41 2.846 . S
C51 C52 1.506 . S
C51 O66 1.261 . S
C51 O67 1.242 . S
C52 C51 1.506 . S
C52 C53 1.358 . S
C52 C57 1.382 . S
C53 C52 1.358 . S
C53 C54 1.385 . S
C53 H76 0.930 . S
C54 C53 1.385 . S
C54 C55 1.395 . S
C54 H77 0.929 . S
C55 C54 1.395 . S
C55 C56 1.335 . S
C56 C55 1.335 . S
C56 C57 1.398 . S
C56 H78 0.930 . S
C57 C52 1.382 . S
C57 C56 1.398 . S
C57 H79 0.929 . S
C58 O68 1.271 . S
C58 O69 1.251 . S
C59 O70 1.252 . S
C59 O71 1.272 . S
O60 Sm40 2.543 . S
O60 C42 1.261 . S
O61 Sm40 2.450 . S
O61 C42 1.242 . S
O62 Sm40 2.681 . S
O62 Sm41 2.386 . S
O62 C49 1.271 . S
O63 Sm40 2.464 . S
O63 C49 1.251 . S
O64 Sm40 2.396 . S
O64 C50 1.252 . S
O65 Sm41 2.408 . S
O65 C50 1.272 . S
O66 Sm41 2.543 . S
O66 C51 1.261 . S
O67 Sm41 2.450 . S
O67 C51 1.242 . S
O68 Sm40 2.386 . S
O68 Sm41 2.681 . S
O68 C58 1.271 . S
O69 Sm41 2.464 . S
O69 C58 1.251 . S
O70 Sm41 2.396 . S
O70 C59 1.252 . S
O71 Sm40 2.408 . S
O71 C59 1.272 . S
H72 C44 0.930 . S
H73 C45 0.929 . S
H74 C47 0.930 . S
H75 C48 0.929 . S
H76 C53 0.930 . S
H77 C54 0.929 . S
H78 C56 0.930 . S
H79 C57 0.929 . S
Sm80 C82 2.846 . S
Sm80 O100 2.543 . S
Sm80 O101 2.450 . S
Sm80 O102 2.681 . S
Sm80 O103 2.464 . S
Sm80 O104 2.396 . S
Sm80 O108 2.386 . S
Sm80 O111 2.408 . S
Sm81 C91 2.846 . S
Sm81 O102 2.386 . S
Sm81 O105 2.408 . S
Sm81 O106 2.543 . S
Sm81 O107 2.450 . S
Sm81 O108 2.681 . S
Sm81 O109 2.464 . S
Sm81 O110 2.396 . S
C82 Sm80 2.846 . S
C82 C83 1.506 . S
C82 O100 1.261 . S
C82 O101 1.242 . S
C83 C82 1.506 . S
C83 C84 1.358 . S
C83 C88 1.382 . S
C84 C83 1.358 . S
C84 C85 1.385 . S
C84 H112 0.930 . S
C85 C84 1.385 . S
C85 C86 1.395 . S
C85 H113 0.929 . S
C86 C85 1.395 . S
C86 C87 1.335 . S
C87 C86 1.335 . S
C87 C88 1.398 . S
C87 H114 0.930 . S
C88 C83 1.382 . S
C88 C87 1.398 . S
C88 H115 0.929 . S
C89 O102 1.271 . S
C89 O103 1.251 . S
C90 O104 1.252 . S
C90 O105 1.272 . S
C91 Sm81 2.846 . S
C91 C92 1.506 . S
C91 O106 1.261 . S
C91 O107 1.242 . S
C92 C91 1.506 . S
C92 C93 1.358 . S
C92 C97 1.382 . S
C93 C92 1.358 . S
C93 C94 1.385 . S
C93 H116 0.930 . S
C94 C93 1.385 . S
C94 C95 1.395 . S
C94 H117 0.929 . S
C95 C94 1.395 . S
C95 C96 1.335 . S
C96 C95 1.335 . S
C96 C97 1.398 . S
C96 H118 0.930 . S
C97 C92 1.382 . S
C97 C96 1.398 . S
C97 H119 0.929 . S
C98 O108 1.271 . S
C98 O109 1.251 . S
C99 O110 1.252 . S
C99 O111 1.272 . S
O100 Sm80 2.543 . S
O100 C82 1.261 . S
O101 Sm80 2.450 . S
O101 C82 1.242 . S
O102 Sm80 2.681 . S
O102 Sm81 2.386 . S
O102 C89 1.271 . S
O103 Sm80 2.464 . S
O103 C89 1.251 . S
O104 Sm80 2.396 . S
O104 C90 1.252 . S
O105 Sm81 2.408 . S
O105 C90 1.272 . S
O106 Sm81 2.543 . S
O106 C91 1.261 . S
O107 Sm81 2.450 . S
O107 C91 1.242 . S
O108 Sm80 2.386 . S
O108 Sm81 2.681 . S
O108 C98 1.271 . S
O109 Sm81 2.464 . S
O109 C98 1.251 . S
O110 Sm81 2.396 . S
O110 C99 1.252 . S
O111 Sm80 2.408 . S
O111 C99 1.272 . S
H112 C84 0.930 . S
H113 C85 0.929 . S
H114 C87 0.930 . S
H115 C88 0.929 . S
H116 C93 0.930 . S
H117 C94 0.929 . S
H118 C96 0.930 . S
H119 C97 0.929 . S
Sm120 C122 2.846 . S
Sm120 O140 2.543 . S
Sm120 O141 2.450 . S
Sm120 O142 2.681 . S
Sm120 O143 2.464 . S
Sm120 O144 2.396 . S
Sm120 O148 2.386 . S
Sm120 O151 2.408 . S
Sm121 C131 2.846 1_556 S
Sm121 O142 2.386 . S
Sm121 O145 2.408 . S
Sm121 O146 2.543 . S
Sm121 O147 2.450 1_556 S
Sm121 O148 2.681 . S
Sm121 O149 2.464 . S
Sm121 O150 2.396 . S
C122 Sm120 2.846 . S
C122 C123 1.506 . S
C122 O140 1.261 . S
C122 O141 1.242 . S
C123 C122 1.506 . S
C123 C124 1.358 . S
C123 C128 1.382 . S
C124 C123 1.358 . S
C124 C125 1.385 . S
C124 H152 0.930 . S
C125 C124 1.385 . S
C125 C126 1.395 . S
C125 H153 0.929 . S
C126 C125 1.395 . S
C126 C127 1.335 . S
C127 C126 1.335 . S
C127 C128 1.398 . S
C127 H154 0.930 . S
C128 C123 1.382 . S
C128 C127 1.398 . S
C128 H155 0.929 . S
C129 O142 1.271 . S
C129 O143 1.251 . S
C130 O144 1.252 . S
C130 O145 1.272 . S
C131 Sm121 2.846 1_554 S
C131 C132 1.506 . S
C131 O146 1.261 1_554 S
C131 O147 1.242 . S
C132 C131 1.506 . S
C132 C133 1.358 . S
C132 C137 1.382 . S
C133 C132 1.358 . S
C133 C134 1.385 . S
C133 H156 0.930 . S
C134 C133 1.385 . S
C134 C135 1.395 . S
C134 H157 0.929 . S
C135 C134 1.395 . S
C135 C136 1.335 . S
C136 C135 1.335 . S
C136 C137 1.398 . S
C136 H158 0.930 . S
C137 C132 1.382 . S
C137 C136 1.398 . S
C137 H159 0.929 . S
C138 O148 1.271 . S
C138 O149 1.251 . S
C139 O150 1.252 . S
C139 O151 1.272 . S
O140 Sm120 2.543 . S
O140 C122 1.261 . S
O141 Sm120 2.450 . S
O141 C122 1.242 . S
O142 Sm120 2.681 . S
O142 Sm121 2.386 . S
O142 C129 1.271 . S
O143 Sm120 2.464 . S
O143 C129 1.251 . S
O144 Sm120 2.396 . S
O144 C130 1.252 . S
O145 Sm121 2.408 . S
O145 C130 1.272 . S
O146 Sm121 2.543 . S
O146 C131 1.261 1_556 S
O147 Sm121 2.450 1_554 S
O147 C131 1.242 . S
O148 Sm120 2.386 . S
O148 Sm121 2.681 . S
O148 C138 1.271 . S
O149 Sm121 2.464 . S
O149 C138 1.251 . S
O150 Sm121 2.396 . S
O150 C139 1.252 . S
O151 Sm120 2.408 . S
O151 C139 1.272 . S
H152 C124 0.930 . S
H153 C125 0.929 . S
H154 C127 0.930 . S
H155 C128 0.929 . S
H156 C133 0.930 . S
H157 C134 0.929 . S
H158 C136 0.930 . S
H159 C137 0.929 . S
Sm160 C162 2.846 1_556 S
Sm160 O180 2.530 1_556 S
Sm160 O181 2.450 . S
Sm160 O182 2.681 . S
Sm160 O183 2.464 . S
Sm160 O184 2.396 . S
Sm160 O188 2.386 . S
Sm160 O191 2.408 . S
Sm161 C171 2.846 . S
Sm161 O182 2.386 . S
Sm161 O185 2.408 . S
Sm161 O186 2.543 . S
Sm161 O187 2.450 . S
Sm161 O188 2.681 . S
Sm161 O189 2.464 . S
Sm161 O190 2.396 . S
C162 Sm160 2.846 1_554 S
C162 C163 1.506 . S
C162 O180 1.272 . S
C162 O181 1.242 1_554 S
C163 C162 1.506 . S
C163 C164 1.358 . S
C163 C168 1.382 . S
C164 C163 1.358 . S
C164 C165 1.385 . S
C164 H192 0.930 . S
C165 C164 1.385 . S
C165 C166 1.395 . S
C165 H193 0.929 . S
C166 C165 1.395 . S
C166 C167 1.335 . S
C167 C166 1.335 . S
C167 C168 1.398 . S
C167 H194 0.930 . S
C168 C163 1.382 . S
C168 C167 1.398 . S
C168 H195 0.929 . S
C169 O182 1.271 . S
C169 O183 1.251 . S
C170 O184 1.252 . S
C170 O185 1.272 . S
C171 Sm161 2.846 . S
C171 C172 1.506 . S
C171 O186 1.261 . S
C171 O187 1.242 . S
C172 C171 1.506 . S
C172 C173 1.358 . S
C172 C177 1.382 . S
C173 C172 1.358 . S
C173 C174 1.385 . S
C173 H196 0.930 . S
C174 C173 1.385 . S
C174 C175 1.395 . S
C174 H197 0.929 . S
C175 C174 1.395 . S
C175 C176 1.335 . S
C176 C175 1.335 . S
C176 C177 1.398 . S
C176 H198 0.930 . S
C177 C172 1.382 . S
C177 C176 1.398 . S
C177 H199 0.929 . S
C178 O188 1.271 . S
C178 O189 1.251 . S
C179 O190 1.252 . S
C179 O191 1.272 . S
O180 Sm160 2.530 1_554 S
O180 C162 1.272 . S
O181 Sm160 2.450 . S
O181 C162 1.242 1_556 S
O182 Sm160 2.681 . S
O182 Sm161 2.386 . S
O182 C169 1.271 . S
O183 Sm160 2.464 . S
O183 C169 1.251 . S
O184 Sm160 2.396 . S
O184 C170 1.252 . S
O185 Sm161 2.408 . S
O185 C170 1.272 . S
O186 Sm161 2.543 . S
O186 C171 1.261 . S
O187 Sm161 2.450 . S
O187 C171 1.242 . S
O188 Sm160 2.386 . S
O188 Sm161 2.681 . S
O188 C178 1.271 . S
O189 Sm161 2.464 . S
O189 C178 1.251 . S
O190 Sm161 2.396 . S
O190 C179 1.252 . S
O191 Sm160 2.408 . S
O191 C179 1.272 . S
H192 C164 0.930 . S
H193 C165 0.929 . S
H194 C167 0.930 . S
H195 C168 0.929 . S
H196 C173 0.930 . S
H197 C174 0.929 . S
H198 C176 0.930 . S
H199 C177 0.929 . S
Sm200 C202 2.846 . S
Sm200 O220 2.543 . S
Sm200 O221 2.450 . S
Sm200 O222 2.681 . S
Sm200 O223 2.464 . S
Sm200 O224 2.396 . S
Sm200 O228 2.386 . S
Sm200 O231 2.408 . S
Sm201 C211 2.846 1_554 S
Sm201 O222 2.386 . S
Sm201 O225 2.408 . S
Sm201 O226 2.543 . S
Sm201 O227 2.450 1_554 S
Sm201 O228 2.681 . S
Sm201 O229 2.464 . S
Sm201 O230 2.396 . S
C202 Sm200 2.846 . S
C202 C203 1.506 . S
C202 O220 1.261 . S
C202 O221 1.242 . S
C203 C202 1.506 . S
C203 C204 1.358 . S
C203 C208 1.382 . S
C204 C203 1.358 . S
C204 C205 1.385 . S
C204 H232 0.930 . S
C205 C204 1.385 . S
C205 C206 1.395 . S
C205 H233 0.929 . S
C206 C205 1.395 . S
C206 C207 1.335 . S
C207 C206 1.335 . S
C207 C208 1.398 . S
C207 H234 0.930 . S
C208 C203 1.382 . S
C208 C207 1.398 . S
C208 H235 0.929 . S
C209 O222 1.271 . S
C209 O223 1.251 . S
C210 O224 1.252 . S
C210 O225 1.272 . S
C211 Sm201 2.846 1_556 S
C211 C212 1.506 . S
C211 O226 1.261 1_556 S
C211 O227 1.242 . S
C212 C211 1.506 . S
C212 C213 1.358 . S
C212 C217 1.382 . S
C213 C212 1.358 . S
C213 C214 1.385 . S
C213 H236 0.930 . S
C214 C213 1.385 . S
C214 C215 1.395 . S
C214 H237 0.929 . S
C215 C214 1.395 . S
C215 C216 1.335 . S
C216 C215 1.335 . S
C216 C217 1.398 . S
C216 H238 0.930 . S
C217 C212 1.382 . S
C217 C216 1.398 . S
C217 H239 0.929 . S
C218 O228 1.271 . S
C218 O229 1.251 . S
C219 O230 1.252 . S
C219 O231 1.272 . S
O220 Sm200 2.543 . S
O220 C202 1.261 . S
O221 Sm200 2.450 . S
O221 C202 1.242 . S
O222 Sm200 2.681 . S
O222 Sm201 2.386 . S
O222 C209 1.271 . S
O223 Sm200 2.464 . S
O223 C209 1.251 . S
O224 Sm200 2.396 . S
O224 C210 1.252 . S
O225 Sm201 2.408 . S
O225 C210 1.272 . S
O226 Sm201 2.543 . S
O226 C211 1.261 1_554 S
O227 Sm201 2.450 1_556 S
O227 C211 1.242 . S
O228 Sm200 2.386 . S
O228 Sm201 2.681 . S
O228 C218 1.271 . S
O229 Sm201 2.464 . S
O229 C218 1.251 . S
O230 Sm201 2.396 . S
O230 C219 1.252 . S
O231 Sm200 2.408 . S
O231 C219 1.272 . S
H232 C204 0.930 . S
H233 C205 0.929 . S
H234 C207 0.930 . S
H235 C208 0.929 . S
H236 C213 0.930 . S
H237 C214 0.929 . S
H238 C216 0.930 . S
H239 C217 0.929 . S
Sm240 C242 2.846 . S
Sm240 O260 2.543 . S
Sm240 O261 2.450 . S
Sm240 O262 2.681 . S
Sm240 O263 2.464 . S
Sm240 O264 2.396 . S
Sm240 O268 2.386 . S
Sm240 O271 2.408 . S
Sm241 C251 2.846 . S
Sm241 O262 2.386 . S
Sm241 O265 2.408 . S
Sm241 O266 2.543 . S
Sm241 O267 2.450 . S
Sm241 O268 2.681 . S
Sm241 O269 2.464 . S
Sm241 O270 2.396 . S
C242 Sm240 2.846 . S
C242 C243 1.506 . S
C242 O260 1.261 . S
C242 O261 1.242 . S
C243 C242 1.506 . S
C243 C244 1.358 . S
C243 C248 1.382 . S
C244 C243 1.358 . S
C244 C245 1.385 . S
C244 H272 0.930 . S
C245 C244 1.385 . S
C245 C246 1.395 . S
C245 H273 0.929 . S
C246 C245 1.395 . S
C246 C247 1.335 . S
C247 C246 1.335 . S
C247 C248 1.398 . S
C247 H274 0.930 . S
C248 C243 1.382 . S
C248 C247 1.398 . S
C248 H275 0.929 . S
C249 O262 1.271 . S
C249 O263 1.251 . S
C250 O264 1.252 . S
C250 O265 1.272 . S
C251 Sm241 2.846 . S
C251 C252 1.506 . S
C251 O266 1.261 . S
C251 O267 1.242 . S
C252 C251 1.506 . S
C252 C253 1.358 . S
C252 C257 1.382 . S
C253 C252 1.358 . S
C253 C254 1.385 . S
C253 H276 0.930 . S
C254 C253 1.385 . S
C254 C255 1.395 . S
C254 H277 0.929 . S
C255 C254 1.395 . S
C255 C256 1.335 . S
C256 C255 1.335 . S
C256 C257 1.398 . S
C256 H278 0.930 . S
C257 C252 1.382 . S
C257 C256 1.398 . S
C257 H279 0.929 . S
C258 O268 1.271 . S
C258 O269 1.251 . S
C259 O270 1.252 . S
C259 O271 1.272 . S
O260 Sm240 2.543 . S
O260 C242 1.261 . S
O261 Sm240 2.450 . S
O261 C242 1.242 . S
O262 Sm240 2.681 . S
O262 Sm241 2.386 . S
O262 C249 1.271 . S
O263 Sm240 2.464 . S
O263 C249 1.251 . S
O264 Sm240 2.396 . S
O264 C250 1.252 . S
O265 Sm241 2.408 . S
O265 C250 1.272 . S
O266 Sm241 2.543 . S
O266 C251 1.261 . S
O267 Sm241 2.450 . S
O267 C251 1.242 . S
O268 Sm240 2.386 . S
O268 Sm241 2.681 . S
O268 C258 1.271 . S
O269 Sm241 2.464 . S
O269 C258 1.251 . S
O270 Sm241 2.396 . S
O270 C259 1.252 . S
O271 Sm240 2.408 . S
O271 C259 1.272 . S
H272 C244 0.930 . S
H273 C245 0.929 . S
H274 C247 0.930 . S
H275 C248 0.929 . S
H276 C253 0.930 . S
H277 C254 0.929 . S
H278 C256 0.930 . S
H279 C257 0.929 . S
Sm280 C282 2.846 . S
Sm280 O300 2.543 . S
Sm280 O301 2.450 . S
Sm280 O302 2.681 . S
Sm280 O303 2.464 . S
Sm280 O304 2.396 . S
Sm280 O308 2.386 . S
Sm280 O311 2.408 . S
Sm281 C291 2.846 . S
Sm281 O302 2.386 . S
Sm281 O305 2.408 . S
Sm281 O306 2.543 . S
Sm281 O307 2.450 . S
Sm281 O308 2.681 . S
Sm281 O309 2.464 . S
Sm281 O310 2.396 . S
C282 Sm280 2.846 . S
C282 C283 1.506 . S
C282 O300 1.261 . S
C282 O301 1.242 . S
C283 C282 1.506 . S
C283 C284 1.358 . S
C283 C288 1.382 . S
C284 C283 1.358 . S
C284 C285 1.385 . S
C284 H312 0.930 . S
C285 C284 1.385 . S
C285 C286 1.395 . S
C285 H313 0.929 . S
C286 C285 1.395 . S
C286 C287 1.335 . S
C287 C286 1.335 . S
C287 C288 1.398 . S
C287 H314 0.930 . S
C288 C283 1.382 . S
C288 C287 1.398 . S
C288 H315 0.929 . S
C289 O302 1.271 . S
C289 O303 1.251 . S
C290 O304 1.252 . S
C290 O305 1.272 . S
C291 Sm281 2.846 . S
C291 C292 1.506 . S
C291 O306 1.261 . S
C291 O307 1.242 . S
C292 C291 1.506 . S
C292 C293 1.358 . S
C292 C297 1.382 . S
C293 C292 1.358 . S
C293 C294 1.385 . S
C293 H316 0.930 . S
C294 C293 1.385 . S
C294 C295 1.395 . S
C294 H317 0.929 . S
C295 C294 1.395 . S
C295 C296 1.335 . S
C296 C295 1.335 . S
C296 C297 1.398 . S
C296 H318 0.930 . S
C297 C292 1.382 . S
C297 C296 1.398 . S
C297 H319 0.929 . S
C298 O308 1.271 . S
C298 O309 1.251 . S
C299 O310 1.252 . S
C299 O311 1.272 . S
O300 Sm280 2.543 . S
O300 C282 1.261 . S
O301 Sm280 2.450 . S
O301 C282 1.242 . S
O302 Sm280 2.681 . S
O302 Sm281 2.386 . S
O302 C289 1.271 . S
O303 Sm280 2.464 . S
O303 C289 1.251 . S
O304 Sm280 2.396 . S
O304 C290 1.252 . S
O305 Sm281 2.408 . S
O305 C290 1.272 . S
O306 Sm281 2.543 . S
O306 C291 1.261 . S
O307 Sm281 2.450 . S
O307 C291 1.242 . S
O308 Sm280 2.386 . S
O308 Sm281 2.681 . S
O308 C298 1.271 . S
O309 Sm281 2.464 . S
O309 C298 1.251 . S
O310 Sm281 2.396 . S
O310 C299 1.252 . S
O311 Sm280 2.408 . S
O311 C299 1.272 . S
H312 C284 0.930 . S
H313 C285 0.929 . S
H314 C287 0.930 . S
H315 C288 0.929 . S
H316 C293 0.930 . S
H317 C294 0.929 . S
H318 C296 0.930 . S
H319 C297 0.929 . S
Sm320 C322 2.846 . S
Sm320 O340 2.543 . S
Sm320 O341 2.450 . S
Sm320 O342 2.681 . S
Sm320 O343 2.464 . S
Sm320 O344 2.396 . S
Sm320 O348 2.386 . S
Sm320 O351 2.408 . S
Sm321 C331 2.846 1_556 S
Sm321 O342 2.386 . S
Sm321 O345 2.408 . S
Sm321 O346 2.530 1_556 S
Sm321 O347 2.450 . S
Sm321 O348 2.681 . S
Sm321 O349 2.464 . S
Sm321 O350 2.396 . S
C322 Sm320 2.846 . S
C322 C323 1.506 . S
C322 O340 1.261 . S
C322 O341 1.242 . S
C323 C322 1.506 . S
C323 C324 1.358 . S
C323 C328 1.382 . S
C324 C323 1.358 . S
C324 C325 1.385 . S
C324 H352 0.930 . S
C325 C324 1.385 . S
C325 C326 1.395 . S
C325 H353 0.929 . S
C326 C325 1.395 . S
C326 C327 1.335 . S
C327 C326 1.335 . S
C327 C328 1.398 . S
C327 H354 0.930 . S
C328 C323 1.382 . S
C328 C327 1.398 . S
C328 H355 0.929 . S
C329 O342 1.271 . S
C329 O343 1.251 . S
C330 O344 1.252 . S
C330 O345 1.272 . S
C331 Sm321 2.846 1_554 S
C331 C332 1.506 . S
C331 O346 1.272 . S
C331 O347 1.242 1_554 S
C332 C331 1.506 . S
C332 C333 1.358 . S
C332 C337 1.382 . S
C333 C332 1.358 . S
C333 C334 1.385 . S
C333 H356 0.930 . S
C334 C333 1.385 . S
C334 C335 1.395 . S
C334 H357 0.929 . S
C335 C334 1.395 . S
C335 C336 1.335 . S
C336 C335 1.335 . S
C336 C337 1.398 . S
C336 H358 0.930 . S
C337 C332 1.382 . S
C337 C336 1.398 . S
C337 H359 0.929 . S
C338 O348 1.271 . S
C338 O349 1.251 . S
C339 O350 1.252 . S
C339 O351 1.272 . S
O340 Sm320 2.543 . S
O340 C322 1.261 . S
O341 Sm320 2.450 . S
O341 C322 1.242 . S
O342 Sm320 2.681 . S
O342 Sm321 2.386 . S
O342 C329 1.271 . S
O343 Sm320 2.464 . S
O343 C329 1.251 . S
O344 Sm320 2.396 . S
O344 C330 1.252 . S
O345 Sm321 2.408 . S
O345 C330 1.272 . S
O346 Sm321 2.530 1_554 S
O346 C331 1.272 . S
O347 Sm321 2.450 . S
O347 C331 1.242 1_556 S
O348 Sm320 2.386 . S
O348 Sm321 2.681 . S
O348 C338 1.271 . S
O349 Sm321 2.464 . S
O349 C338 1.251 . S
O350 Sm321 2.396 . S
O350 C339 1.252 . S
O351 Sm320 2.408 . S
O351 C339 1.272 . S
H352 C324 0.930 . S
H353 C325 0.929 . S
H354 C327 0.930 . S
H355 C328 0.929 . S
H356 C333 0.930 . S
H357 C334 0.929 . S
H358 C336 0.930 . S
H359 C337 0.929 . S
Sm360 C362 2.846 . S
Sm360 O380 2.543 . S
Sm360 O381 2.450 . S
Sm360 O382 2.681 . S
Sm360 O383 2.464 . S
Sm360 O384 2.396 . S
Sm360 O388 2.386 . S
Sm360 O391 2.408 . S
Sm361 C371 2.846 . S
Sm361 O382 2.386 . S
Sm361 O385 2.408 . S
Sm361 O386 2.543 . S
Sm361 O387 2.450 . S
Sm361 O388 2.681 . S
Sm361 O389 2.464 . S
Sm361 O390 2.396 . S
C362 Sm360 2.846 . S
C362 C363 1.506 . S
C362 O380 1.261 . S
C362 O381 1.242 . S
C363 C362 1.506 . S
C363 C364 1.358 . S
C363 C368 1.382 . S
C364 C363 1.358 . S
C364 C365 1.385 . S
C364 H392 0.930 . S
C365 C364 1.385 . S
C365 C366 1.395 . S
C365 H393 0.929 . S
C366 C365 1.395 . S
C366 C367 1.335 . S
C367 C366 1.335 . S
C367 C368 1.398 . S
C367 H394 0.930 . S
C368 C363 1.382 . S
C368 C367 1.398 . S
C368 H395 0.929 . S
C369 O382 1.271 . S
C369 O383 1.251 . S
C370 O384 1.252 . S
C370 O385 1.272 . S
C371 Sm361 2.846 . S
C371 C372 1.506 . S
C371 O386 1.261 . S
C371 O387 1.242 . S
C372 C371 1.506 . S
C372 C373 1.358 . S
C372 C377 1.382 . S
C373 C372 1.358 . S
C373 C374 1.385 . S
C373 H396 0.930 . S
C374 C373 1.385 . S
C374 C375 1.395 . S
C374 H397 0.929 . S
C375 C374 1.395 . S
C375 C376 1.335 . S
C376 C375 1.335 . S
C376 C377 1.398 . S
C376 H398 0.930 . S
C377 C372 1.382 . S
C377 C376 1.398 . S
C377 H399 0.929 . S
C378 O388 1.271 . S
C378 O389 1.251 . S
C379 O390 1.252 . S
C379 O391 1.272 . S
O380 Sm360 2.543 . S
O380 C362 1.261 . S
O381 Sm360 2.450 . S
O381 C362 1.242 . S
O382 Sm360 2.681 . S
O382 Sm361 2.386 . S
O382 C369 1.271 . S
O383 Sm360 2.464 . S
O383 C369 1.251 . S
O384 Sm360 2.396 . S
O384 C370 1.252 . S
O385 Sm361 2.408 . S
O385 C370 1.272 . S
O386 Sm361 2.543 . S
O386 C371 1.261 . S
O387 Sm361 2.450 . S
O387 C371 1.242 . S
O388 Sm360 2.386 . S
O388 Sm361 2.681 . S
O388 C378 1.271 . S
O389 Sm361 2.464 . S
O389 C378 1.251 . S
O390 Sm361 2.396 . S
O390 C379 1.252 . S
O391 Sm360 2.408 . S
O391 C379 1.272 . S
H392 C364 0.930 . S
H393 C365 0.929 . S
H394 C367 0.930 . S
H395 C368 0.929 . S
H396 C373 0.930 . S
H397 C374 0.929 . S
H398 C376 0.930 . S
H399 C377 0.929 . S
Sm400 C402 2.846 . S
Sm400 O420 2.543 . S
Sm400 O421 2.450 . S
Sm400 O422 2.681 . S
Sm400 O423 2.464 . S
Sm400 O424 2.396 . S
Sm400 O428 2.386 . S
Sm400 O431 2.408 . S
Sm401 C411 2.846 . S
Sm401 O422 2.386 . S
Sm401 O425 2.408 . S
Sm401 O426 2.543 . S
Sm401 O427 2.450 . S
Sm401 O428 2.681 . S
Sm401 O429 2.464 . S
Sm401 O430 2.396 . S
C402 Sm400 2.846 . S
C402 C403 1.506 . S
C402 O420 1.261 . S
C402 O421 1.242 . S
C403 C402 1.506 . S
C403 C404 1.358 . S
C403 C408 1.382 . S
C404 C403 1.358 . S
C404 C405 1.385 . S
C404 H432 0.930 . S
C405 C404 1.385 . S
C405 C406 1.395 . S
C405 H433 0.929 . S
C406 C405 1.395 . S
C406 C407 1.335 . S
C407 C406 1.335 . S
C407 C408 1.398 . S
C407 H434 0.930 . S
C408 C403 1.382 . S
C408 C407 1.398 . S
C408 H435 0.929 . S
C409 O422 1.271 . S
C409 O423 1.251 . S
C410 O424 1.252 . S
C410 O425 1.272 . S
C411 Sm401 2.846 . S
C411 C412 1.506 . S
C411 O426 1.261 . S
C411 O427 1.242 . S
C412 C411 1.506 . S
C412 C413 1.358 . S
C412 C417 1.382 . S
C413 C412 1.358 . S
C413 C414 1.385 . S
C413 H436 0.930 . S
C414 C413 1.385 . S
C414 C415 1.395 . S
C414 H437 0.929 . S
C415 C414 1.395 . S
C415 C416 1.335 . S
C416 C415 1.335 . S
C416 C417 1.398 . S
C416 H438 0.930 . S
C417 C412 1.382 . S
C417 C416 1.398 . S
C417 H439 0.929 . S
C418 O428 1.271 . S
C418 O429 1.251 . S
C419 O430 1.252 . S
C419 O431 1.272 . S
O420 Sm400 2.543 . S
O420 C402 1.261 . S
O421 Sm400 2.450 . S
O421 C402 1.242 . S
O422 Sm400 2.681 . S
O422 Sm401 2.386 . S
O422 C409 1.271 . S
O423 Sm400 2.464 . S
O423 C409 1.251 . S
O424 Sm400 2.396 . S
O424 C410 1.252 . S
O425 Sm401 2.408 . S
O425 C410 1.272 . S
O426 Sm401 2.543 . S
O426 C411 1.261 . S
O427 Sm401 2.450 . S
O427 C411 1.242 . S
O428 Sm400 2.386 . S
O428 Sm401 2.681 . S
O428 C418 1.271 . S
O429 Sm401 2.464 . S
O429 C418 1.251 . S
O430 Sm401 2.396 . S
O430 C419 1.252 . S
O431 Sm400 2.408 . S
O431 C419 1.272 . S
H432 C404 0.930 . S
H433 C405 0.929 . S
H434 C407 0.930 . S
H435 C408 0.929 . S
H436 C413 0.930 . S
H437 C414 0.929 . S
H438 C416 0.930 . S
H439 C417 0.929 . S
Sm440 C442 2.846 1_554 S
Sm440 O460 2.543 . S
Sm440 O461 2.450 1_554 S
Sm440 O462 2.681 . S
Sm440 O463 2.464 . S
Sm440 O464 2.396 . S
Sm440 O468 2.386 . S
Sm440 O471 2.408 . S
Sm441 C451 2.846 . S
Sm441 O462 2.386 . S
Sm441 O465 2.408 . S
Sm441 O466 2.543 . S
Sm441 O467 2.450 . S
Sm441 O468 2.681 . S
Sm441 O469 2.464 . S
Sm441 O470 2.396 . S
C442 Sm440 2.846 1_556 S
C442 C443 1.506 . S
C442 O460 1.261 1_556 S
C442 O461 1.242 . S
C443 C442 1.506 . S
C443 C444 1.358 . S
C443 C448 1.382 . S
C444 C443 1.358 . S
C444 C445 1.385 . S
C444 H472 0.930 . S
C445 C444 1.385 . S
C445 C446 1.395 . S
C445 H473 0.929 . S
C446 C445 1.395 . S
C446 C447 1.335 . S
C447 C446 1.335 . S
C447 C448 1.398 . S
C447 H474 0.930 . S
C448 C443 1.382 . S
C448 C447 1.398 . S
C448 H475 0.929 . S
C449 O462 1.271 . S
C449 O463 1.251 . S
C450 O464 1.252 . S
C450 O465 1.272 . S
C451 Sm441 2.846 . S
C451 C452 1.506 . S
C451 O466 1.261 . S
C451 O467 1.242 . S
C452 C451 1.506 . S
C452 C453 1.358 . S
C452 C457 1.382 . S
C453 C452 1.358 . S
C453 C454 1.385 . S
C453 H476 0.930 . S
C454 C453 1.385 . S
C454 C455 1.395 . S
C454 H477 0.929 . S
C455 C454 1.395 . S
C455 C456 1.335 . S
C456 C455 1.335 . S
C456 C457 1.398 . S
C456 H478 0.930 . S
C457 C452 1.382 . S
C457 C456 1.398 . S
C457 H479 0.929 . S
C458 O468 1.271 . S
C458 O469 1.251 . S
C459 O470 1.252 . S
C459 O471 1.272 . S
O460 Sm440 2.543 . S
O460 C442 1.261 1_554 S
O461 Sm440 2.450 1_556 S
O461 C442 1.242 . S
O462 Sm440 2.681 . S
O462 Sm441 2.386 . S
O462 C449 1.271 . S
O463 Sm440 2.464 . S
O463 C449 1.251 . S
O464 Sm440 2.396 . S
O464 C450 1.252 . S
O465 Sm441 2.408 . S
O465 C450 1.272 . S
O466 Sm441 2.543 . S
O466 C451 1.261 . S
O467 Sm441 2.450 . S
O467 C451 1.242 . S
O468 Sm440 2.386 . S
O468 Sm441 2.681 . S
O468 C458 1.271 . S
O469 Sm441 2.464 . S
O469 C458 1.251 . S
O470 Sm441 2.396 . S
O470 C459 1.252 . S
O471 Sm440 2.408 . S
O471 C459 1.272 . S
H472 C444 0.930 . S
H473 C445 0.929 . S
H474 C447 0.930 . S
H475 C448 0.929 . S
H476 C453 0.930 . S
H477 C454 0.929 . S
H478 C456 0.930 . S
H479 C457 0.929 . S
Sm480 C482 2.846 . S
Sm480 O500 2.543 . S
Sm480 O501 2.450 . S
Sm480 O502 2.681 . S
Sm480 O503 2.464 . S
Sm480 O504 2.396 . S
Sm480 O508 2.386 . S
Sm480 O511 2.408 . S
Sm481 C491 2.846 1_554 S
Sm481 O502 2.386 . S
Sm481 O505 2.408 . S
Sm481 O506 2.530 1_554 S
Sm481 O507 2.450 . S
Sm481 O508 2.681 . S
Sm481 O509 2.464 . S
Sm481 O510 2.396 . S
C482 Sm480 2.846 . S
C482 C483 1.506 . S
C482 O500 1.261 . S
C482 O501 1.242 . S
C483 C482 1.506 . S
C483 C484 1.358 . S
C483 C488 1.382 . S
C484 C483 1.358 . S
C484 C485 1.385 . S
C484 H512 0.930 . S
C485 C484 1.385 . S
C485 C486 1.395 . S
C485 H513 0.929 . S
C486 C485 1.395 . S
C486 C487 1.335 . S
C487 C486 1.335 . S
C487 C488 1.398 . S
C487 H514 0.930 . S
C488 C483 1.382 . S
C488 C487 1.398 . S
C488 H515 0.929 . S
C489 O502 1.271 . S
C489 O503 1.251 . S
C490 O504 1.252 . S
C490 O505 1.272 . S
C491 Sm481 2.846 1_556 S
C491 C492 1.506 . S
C491 O506 1.272 . S
C491 O507 1.242 1_556 S
C492 C491 1.506 . S
C492 C493 1.358 . S
C492 C497 1.382 . S
C493 C492 1.358 . S
C493 C494 1.385 . S
C493 H516 0.930 . S
C494 C493 1.385 . S
C494 C495 1.395 . S
C494 H517 0.929 . S
C495 C494 1.395 . S
C495 C496 1.335 . S
C496 C495 1.335 . S
C496 C497 1.398 . S
C496 H518 0.930 . S
C497 C492 1.382 . S
C497 C496 1.398 . S
C497 H519 0.929 . S
C498 O508 1.271 . S
C498 O509 1.251 . S
C499 O510 1.252 . S
C499 O511 1.272 . S
O500 Sm480 2.543 . S
O500 C482 1.261 . S
O501 Sm480 2.450 . S
O501 C482 1.242 . S
O502 Sm480 2.681 . S
O502 Sm481 2.386 . S
O502 C489 1.271 . S
O503 Sm480 2.464 . S
O503 C489 1.251 . S
O504 Sm480 2.396 . S
O504 C490 1.252 . S
O505 Sm481 2.408 . S
O505 C490 1.272 . S
O506 Sm481 2.530 1_556 S
O506 C491 1.272 . S
O507 Sm481 2.450 . S
O507 C491 1.242 1_554 S
O508 Sm480 2.386 . S
O508 Sm481 2.681 . S
O508 C498 1.271 . S
O509 Sm481 2.464 . S
O509 C498 1.251 . S
O510 Sm481 2.396 . S
O510 C499 1.252 . S
O511 Sm480 2.408 . S
O511 C499 1.272 . S
H512 C484 0.930 . S
H513 C485 0.929 . S
H514 C487 0.930 . S
H515 C488 0.929 . S
H516 C493 0.930 . S
H517 C494 0.929 . S
H518 C496 0.930 . S
H519 C497 0.929 . S
Sm520 C522 2.846 1_556 S
Sm520 O540 2.543 . S
Sm520 O541 2.450 1_556 S
Sm520 O542 2.681 . S
Sm520 O543 2.464 . S
Sm520 O544 2.396 . S
Sm520 O548 2.386 . S
Sm520 O551 2.408 . S
Sm521 C531 2.846 . S
Sm521 O542 2.386 . S
Sm521 O545 2.408 . S
Sm521 O546 2.543 . S
Sm521 O547 2.450 . S
Sm521 O548 2.681 . S
Sm521 O549 2.464 . S
Sm521 O550 2.396 . S
C522 Sm520 2.846 1_554 S
C522 C523 1.506 . S
C522 O540 1.261 1_554 S
C522 O541 1.242 . S
C523 C522 1.506 . S
C523 C524 1.358 . S
C523 C528 1.382 . S
C524 C523 1.358 . S
C524 C525 1.385 . S
C524 H552 0.930 . S
C525 C524 1.385 . S
C525 C526 1.395 . S
C525 H553 0.929 . S
C526 C525 1.395 . S
C526 C527 1.335 . S
C527 C526 1.335 . S
C527 C528 1.398 . S
C527 H554 0.930 . S
C528 C523 1.382 . S
C528 C527 1.398 . S
C528 H555 0.929 . S
C529 O542 1.271 . S
C529 O543 1.251 . S
C530 O544 1.252 . S
C530 O545 1.272 . S
C531 Sm521 2.846 . S
C531 C532 1.506 . S
C531 O546 1.261 . S
C531 O547 1.242 . S
C532 C531 1.506 . S
C532 C533 1.358 . S
C532 C537 1.382 . S
C533 C532 1.358 . S
C533 C534 1.385 . S
C533 H556 0.930 . S
C534 C533 1.385 . S
C534 C535 1.395 . S
C534 H557 0.929 . S
C535 C534 1.395 . S
C535 C536 1.335 . S
C536 C535 1.335 . S
C536 C537 1.398 . S
C536 H558 0.930 . S
C537 C532 1.382 . S
C537 C536 1.398 . S
C537 H559 0.929 . S
C538 O548 1.271 . S
C538 O549 1.251 . S
C539 O550 1.252 . S
C539 O551 1.272 . S
O540 Sm520 2.543 . S
O540 C522 1.261 1_556 S
O541 Sm520 2.450 1_554 S
O541 C522 1.242 . S
O542 Sm520 2.681 . S
O542 Sm521 2.386 . S
O542 C529 1.271 . S
O543 Sm520 2.464 . S
O543 C529 1.251 . S
O544 Sm520 2.396 . S
O544 C530 1.252 . S
O545 Sm521 2.408 . S
O545 C530 1.272 . S
O546 Sm521 2.543 . S
O546 C531 1.261 . S
O547 Sm521 2.450 . S
O547 C531 1.242 . S
O548 Sm520 2.386 . S
O548 Sm521 2.681 . S
O548 C538 1.271 . S
O549 Sm521 2.464 . S
O549 C538 1.251 . S
O550 Sm521 2.396 . S
O550 C539 1.252 . S
O551 Sm520 2.408 . S
O551 C539 1.272 . S
H552 C524 0.930 . S
H553 C525 0.929 . S
H554 C527 0.930 . S
H555 C528 0.929 . S
H556 C533 0.930 . S
H557 C534 0.929 . S
H558 C536 0.930 . S
H559 C537 0.929 . S
Sm560 C562 2.846 . S
Sm560 O580 2.543 . S
Sm560 O581 2.450 . S
Sm560 O582 2.681 . S
Sm560 O583 2.464 . S
Sm560 O584 2.396 . S
Sm560 O588 2.386 . S
Sm560 O591 2.408 . S
Sm561 C571 2.846 . S
Sm561 O582 2.386 . S
Sm561 O585 2.408 . S
Sm561 O586 2.543 . S
Sm561 O587 2.450 . S
Sm561 O588 2.681 . S
Sm561 O589 2.464 . S
Sm561 O590 2.396 . S
C562 Sm560 2.846 . S
C562 C563 1.506 . S
C562 O580 1.261 . S
C562 O581 1.242 . S
C563 C562 1.506 . S
C563 C564 1.358 . S
C563 C568 1.382 . S
C564 C563 1.358 . S
C564 C565 1.385 . S
C564 H592 0.930 . S
C565 C564 1.385 . S
C565 C566 1.395 . S
C565 H593 0.929 . S
C566 C565 1.395 . S
C566 C567 1.335 . S
C567 C566 1.335 . S
C567 C568 1.398 . S
C567 H594 0.930 . S
C568 C563 1.382 . S
C568 C567 1.398 . S
C568 H595 0.929 . S
C569 O582 1.271 . S
C569 O583 1.251 . S
C570 O584 1.252 . S
C570 O585 1.272 . S
C571 Sm561 2.846 . S
C571 C572 1.506 . S
C571 O586 1.261 . S
C571 O587 1.242 . S
C572 C571 1.506 . S
C572 C573 1.358 . S
C572 C577 1.382 . S
C573 C572 1.358 . S
C573 C574 1.385 . S
C573 H596 0.930 . S
C574 C573 1.385 . S
C574 C575 1.395 . S
C574 H597 0.929 . S
C575 C574 1.395 . S
C575 C576 1.335 . S
C576 C575 1.335 . S
C576 C577 1.398 . S
C576 H598 0.930 . S
C577 C572 1.382 . S
C577 C576 1.398 . S
C577 H599 0.929 . S
C578 O588 1.271 . S
C578 O589 1.251 . S
C579 O590 1.252 . S
C579 O591 1.272 . S
O580 Sm560 2.543 . S
O580 C562 1.261 . S
O581 Sm560 2.450 . S
O581 C562 1.242 . S
O582 Sm560 2.681 . S
O582 Sm561 2.386 . S
O582 C569 1.271 . S
O583 Sm560 2.464 . S
O583 C569 1.251 . S
O584 Sm560 2.396 . S
O584 C570 1.252 . S
O585 Sm561 2.408 . S
O585 C570 1.272 . S
O586 Sm561 2.543 . S
O586 C571 1.261 . S
O587 Sm561 2.450 . S
O587 C571 1.242 . S
O588 Sm560 2.386 . S
O588 Sm561 2.681 . S
O588 C578 1.271 . S
O589 Sm561 2.464 . S
O589 C578 1.251 . S
O590 Sm561 2.396 . S
O590 C579 1.252 . S
O591 Sm560 2.408 . S
O591 C579 1.272 . S
H592 C564 0.930 . S
H593 C565 0.929 . S
H594 C567 0.930 . S
H595 C568 0.929 . S
H596 C573 0.930 . S
H597 C574 0.929 . S
H598 C576 0.930 . S
H599 C577 0.929 . S
Sm600 C602 2.846 . S
Sm600 O620 2.543 . S
Sm600 O621 2.450 . S
Sm600 O622 2.681 . S
Sm600 O623 2.464 . S
Sm600 O624 2.396 . S
Sm600 O628 2.386 . S
Sm600 O631 2.408 . S
Sm601 C611 2.846 . S
Sm601 O622 2.386 . S
Sm601 O625 2.408 . S
Sm601 O626 2.543 . S
Sm601 O627 2.450 . S
Sm601 O628 2.681 . S
Sm601 O629 2.464 . S
Sm601 O630 2.396 . S
C602 Sm600 2.846 . S
C602 C603 1.506 . S
C602 O620 1.261 . S
C602 O621 1.242 . S
C603 C602 1.506 . S
C603 C604 1.358 . S
C603 C608 1.382 . S
C604 C603 1.358 . S
C604 C605 1.385 . S
C604 H632 0.930 . S
C605 C604 1.385 . S
C605 C606 1.395 . S
C605 H633 0.929 . S
C606 C605 1.395 . S
C606 C607 1.335 . S
C607 C606 1.335 . S
C607 C608 1.398 . S
C607 H634 0.930 . S
C608 C603 1.382 . S
C608 C607 1.398 . S
C608 H635 0.929 . S
C609 O622 1.271 . S
C609 O623 1.251 . S
C610 O624 1.252 . S
C610 O625 1.272 . S
C611 Sm601 2.846 . S
C611 C612 1.506 . S
C611 O626 1.261 . S
C611 O627 1.242 . S
C612 C611 1.506 . S
C612 C613 1.358 . S
C612 C617 1.382 . S
C613 C612 1.358 . S
C613 C614 1.385 . S
C613 H636 0.930 . S
C614 C613 1.385 . S
C614 C615 1.395 . S
C614 H637 0.929 . S
C615 C614 1.395 . S
C615 C616 1.335 . S
C616 C615 1.335 . S
C616 C617 1.398 . S
C616 H638 0.930 . S
C617 C612 1.382 . S
C617 C616 1.398 . S
C617 H639 0.929 . S
C618 O628 1.271 . S
C618 O629 1.251 . S
C619 O630 1.252 . S
C619 O631 1.272 . S
O620 Sm600 2.543 . S
O620 C602 1.261 . S
O621 Sm600 2.450 . S
O621 C602 1.242 . S
O622 Sm600 2.681 . S
O622 Sm601 2.386 . S
O622 C609 1.271 . S
O623 Sm600 2.464 . S
O623 C609 1.251 . S
O624 Sm600 2.396 . S
O624 C610 1.252 . S
O625 Sm601 2.408 . S
O625 C610 1.272 . S
O626 Sm601 2.543 . S
O626 C611 1.261 . S
O627 Sm601 2.450 . S
O627 C611 1.242 . S
O628 Sm600 2.386 . S
O628 Sm601 2.681 . S
O628 C618 1.271 . S
O629 Sm601 2.464 . S
O629 C618 1.251 . S
O630 Sm601 2.396 . S
O630 C619 1.252 . S
O631 Sm600 2.408 . S
O631 C619 1.272 . S
H632 C604 0.930 . S
H633 C605 0.929 . S
H634 C607 0.930 . S
H635 C608 0.929 . S
H636 C613 0.930 . S
H637 C614 0.929 . S
H638 C616 0.930 . S
H639 C617 0.929 . S
C640 C641 1.349 . S
C640 C642 1.327 . S
C640 H665 0.950 . S
C641 C640 1.349 . S
C641 C657 1.349 . S
C642 C640 1.327 . S
C642 C661 1.429 . S
C642 H666 0.950 . S
C643 C660 1.574 . S
C643 C662 1.368 . S
C643 H667 0.949 . S
H644 C648 0.949 . S
C645 C646 1.349 . S
C645 C647 1.327 . S
C645 H668 0.950 . S
C646 C645 1.349 . S
C646 C658 1.349 . S
C647 C645 1.327 . S
C647 C663 1.429 . S
C647 H669 0.950 . S
C648 H644 0.949 . S
C648 C656 1.574 . S
C648 C664 1.368 . S
H649 C657 0.950 . S
H650 C655 0.950 . S
H651 C656 0.949 . S
H652 C658 0.950 . S
H653 C659 0.950 . S
H654 C660 0.949 . S
C655 H650 0.950 . S
C655 C657 1.327 . S
C655 C661 1.429 . S
C656 C648 1.574 . S
C656 H651 0.949 . S
C656 C662 1.368 . S
C657 C641 1.349 . S
C657 H649 0.950 . S
C657 C655 1.327 . S
C658 C646 1.349 . S
C658 H652 0.950 . S
C658 C659 1.327 . S
C659 H653 0.950 . S
C659 C658 1.327 . S
C659 C663 1.429 . S
C660 C643 1.574 . S
C660 H654 0.949 . S
C660 C664 1.368 . S
C661 C642 1.429 . S
C661 C655 1.429 . S
C661 C662 1.523 . S
C662 C643 1.368 . S
C662 C656 1.368 . S
C662 C661 1.523 . S
C663 C647 1.429 . S
C663 C659 1.429 . S
C663 C664 1.523 . S
C664 C648 1.368 . S
C664 C660 1.368 . S
C664 C663 1.523 . S
H665 C640 0.950 . S
H666 C642 0.950 . S
H667 C643 0.949 . S
H668 C645 0.950 . S
H669 C647 0.950 . S
C670 C671 1.349 . S
C670 C672 1.327 1_554 S
C670 H695 0.950 . S
C671 C670 1.349 . S
C671 C687 1.349 . S
C672 C670 1.327 1_556 S
C672 C691 1.429 . S
C672 H696 0.950 . S
C673 C690 1.574 . S
C673 C692 1.368 . S
C673 H697 0.949 . S
H674 C678 0.949 . S
C675 C676 1.349 . S
C675 C677 1.327 . S
C675 H698 0.950 . S
C676 C675 1.349 . S
C676 C688 1.349 . S
C677 C675 1.327 . S
C677 C693 1.429 . S
C677 H699 0.950 . S
C678 H674 0.949 . S
C678 C686 1.574 . S
C678 C694 1.368 . S
H679 C687 0.950 . S
H680 C685 0.950 . S
H681 C686 0.949 . S
H682 C688 0.950 . S
H683 C689 0.950 . S
H684 C690 0.949 . S
C685 H680 0.950 . S
C685 C687 1.327 1_556 S
C685 C691 1.429 . S
C686 C678 1.574 . S
C686 H681 0.949 . S
C686 C692 1.368 . S
C687 C671 1.349 . S
C687 H679 0.950 . S
C687 C685 1.327 1_554 S
C688 C676 1.349 . S
C688 H682 0.950 . S
C688 C689 1.327 . S
C689 H683 0.950 . S
C689 C688 1.327 . S
C689 C693 1.429 . S
C690 C673 1.574 . S
C690 H684 0.949 . S
C690 C694 1.368 . S
C691 C672 1.429 . S
C691 C685 1.429 . S
C691 C692 1.523 . S
C692 C673 1.368 . S
C692 C686 1.368 . S
C692 C691 1.523 . S
C693 C677 1.429 . S
C693 C689 1.429 . S
C693 C694 1.523 . S
C694 C678 1.368 . S
C694 C690 1.368 . S
C694 C693 1.523 . S
H695 C670 0.950 . S
H696 C672 0.950 . S
H697 C673 0.949 . S
H698 C675 0.950 . S
H699 C677 0.950 . S
C700 C701 1.349 . S
C700 C702 1.327 . S
C700 H725 0.950 . S
C701 C700 1.349 . S
C701 C717 1.349 . S
C702 C700 1.327 . S
C702 C721 1.429 . S
C702 H726 0.950 . S
C703 C720 1.574 . S
C703 C722 1.368 . S
C703 H727 0.949 . S
H704 C708 0.949 . S
C705 C706 1.349 . S
C705 C707 1.327 1_556 S
C705 H728 0.950 . S
C706 C705 1.349 . S
C706 C718 1.349 . S
C707 C705 1.327 1_554 S
C707 C723 1.429 . S
C707 H729 0.950 . S
C708 H704 0.949 . S
C708 C716 1.574 . S
C708 C724 1.368 . S
H709 C717 0.950 . S
H710 C715 0.950 . S
H711 C716 0.949 . S
H712 C718 0.950 . S
H713 C719 0.950 . S
H714 C720 0.949 . S
C715 H710 0.950 . S
C715 C717 1.327 . S
C715 C721 1.429 . S
C716 C708 1.574 . S
C716 H711 0.949 . S
C716 C722 1.368 . S
C717 C701 1.349 . S
C717 H709 0.950 . S
C717 C715 1.327 . S
C718 C706 1.349 . S
C718 H712 0.950 . S
C718 C719 1.327 1_556 S
C719 H713 0.950 . S
C719 C718 1.327 1_554 S
C719 C723 1.429 . S
C720 C703 1.574 . S
C720 H714 0.949 . S
C720 C724 1.368 . S
C721 C702 1.429 . S
C721 C715 1.429 . S
C721 C722 1.523 . S
C722 C703 1.368 . S
C722 C716 1.368 . S
C722 C721 1.523 . S
C723 C707 1.429 . S
C723 C719 1.429 . S
C723 C724 1.523 . S
C724 C708 1.368 . S
C724 C720 1.368 . S
C724 C723 1.523 . S
H725 C700 0.950 . S
H726 C702 0.950 . S
H727 C703 0.949 . S
H728 C705 0.950 . S
H729 C707 0.950 . S
C730 C731 1.349 . S
C730 C732 1.327 . S
C730 H755 0.950 . S
C731 C730 1.349 . S
C731 C747 1.349 . S
C732 C730 1.327 . S
C732 C751 1.429 . S
C732 H756 0.950 . S
C733 C750 1.574 . S
C733 C752 1.368 . S
C733 H757 0.949 . S
H734 C738 0.949 . S
C735 C736 1.349 . S
C735 C737 1.327 . S
C735 H758 0.950 . S
C736 C735 1.349 . S
C736 C748 1.349 . S
C737 C735 1.327 . S
C737 C753 1.429 . S
C737 H759 0.950 . S
C738 H734 0.949 . S
C738 C746 1.574 . S
C738 C754 1.368 . S
H739 C747 0.950 . S
H740 C745 0.950 . S
H741 C746 0.949 . S
H742 C748 0.950 . S
H743 C749 0.950 . S
H744 C750 0.949 . S
C745 H740 0.950 . S
C745 C747 1.327 . S
C745 C751 1.429 . S
C746 C738 1.574 . S
C746 H741 0.949 . S
C746 C752 1.368 . S
C747 C731 1.349 . S
C747 H739 0.950 . S
C747 C745 1.327 . S
C748 C736 1.349 . S
C748 H742 0.950 . S
C748 C749 1.327 . S
C749 H743 0.950 . S
C749 C748 1.327 . S
C749 C753 1.429 . S
C750 C733 1.574 . S
C750 H744 0.949 . S
C750 C754 1.368 . S
C751 C732 1.429 . S
C751 C745 1.429 . S
C751 C752 1.523 . S
C752 C733 1.368 . S
C752 C746 1.368 . S
C752 C751 1.523 . S
C753 C737 1.429 . S
C753 C749 1.429 . S
C753 C754 1.523 . S
C754 C738 1.368 . S
C754 C750 1.368 . S
C754 C753 1.523 . S
H755 C730 0.950 . S
H756 C732 0.950 . S
H757 C733 0.949 . S
H758 C735 0.950 . S
H759 C737 0.950 . S
C760 C761 1.349 . S
C760 C762 1.327 . S
C760 H785 0.950 . S
C761 C760 1.349 . S
C761 C777 1.349 . S
C762 C760 1.327 . S
C762 C781 1.429 . S
C762 H786 0.950 . S
C763 C780 1.574 . S
C763 C782 1.368 . S
C763 H787 0.949 . S
H764 C768 0.949 . S
C765 C766 1.349 . S
C765 C767 1.327 . S
C765 H788 0.950 . S
C766 C765 1.349 . S
C766 C778 1.349 . S
C767 C765 1.327 . S
C767 C783 1.429 . S
C767 H789 0.950 . S
C768 H764 0.949 . S
C768 C776 1.574 . S
C768 C784 1.368 . S
H769 C777 0.950 . S
H770 C775 0.950 . S
H771 C776 0.949 . S
H772 C778 0.950 . S
H773 C779 0.950 . S
H774 C780 0.949 . S
C775 H770 0.950 . S
C775 C777 1.327 . S
C775 C781 1.429 . S
C776 C768 1.574 . S
C776 H771 0.949 . S
C776 C782 1.368 . S
C777 C761 1.349 . S
C777 H769 0.950 . S
C777 C775 1.327 . S
C778 C766 1.349 . S
C778 H772 0.950 . S
C778 C779 1.327 . S
C779 H773 0.950 . S
C779 C778 1.327 . S
C779 C783 1.429 . S
C780 C763 1.574 . S
C780 H774 0.949 . S
C780 C784 1.368 . S
C781 C762 1.429 . S
C781 C775 1.429 . S
C781 C782 1.523 . S
C782 C763 1.368 . S
C782 C776 1.368 . S
C782 C781 1.523 . S
C783 C767 1.429 . S
C783 C779 1.429 . S
C783 C784 1.523 . S
C784 C768 1.368 . S
C784 C780 1.368 . S
C784 C783 1.523 . S
H785 C760 0.950 . S
H786 C762 0.950 . S
H787 C763 0.949 . S
H788 C765 0.950 . S
H789 C767 0.950 . S
C790 C791 1.349 . S
C790 C792 1.327 . S
C790 H815 0.950 . S
C791 C790 1.349 . S
C791 C807 1.349 . S
C792 C790 1.327 . S
C792 C811 1.429 . S
C792 H816 0.950 . S
C793 C810 1.574 . S
C793 C812 1.368 . S
C793 H817 0.949 . S
H794 C798 0.949 . S
C795 C796 1.349 . S
C795 C797 1.327 . S
C795 H818 0.950 . S
C796 C795 1.349 . S
C796 C808 1.349 . S
C797 C795 1.327 . S
C797 C813 1.429 . S
C797 H819 0.950 . S
C798 H794 0.949 . S
C798 C806 1.574 . S
C798 C814 1.368 . S
H799 C807 0.950 . S
H800 C805 0.950 . S
H801 C806 0.949 . S
H802 C808 0.950 . S
H803 C809 0.950 . S
H804 C810 0.949 . S
C805 H800 0.950 . S
C805 C807 1.327 . S
C805 C811 1.429 . S
C806 C798 1.574 . S
C806 H801 0.949 . S
C806 C812 1.368 . S
C807 C791 1.349 . S
C807 H799 0.950 . S
C807 C805 1.327 . S
C808 C796 1.349 . S
C808 H802 0.950 . S
C808 C809 1.327 . S
C809 H803 0.950 . S
C809 C808 1.327 . S
C809 C813 1.429 . S
C810 C793 1.574 . S
C810 H804 0.949 . S
C810 C814 1.368 . S
C811 C792 1.429 . S
C811 C805 1.429 . S
C811 C812 1.523 . S
C812 C793 1.368 . S
C812 C806 1.368 . S
C812 C811 1.523 . S
C813 C797 1.429 . S
C813 C809 1.429 . S
C813 C814 1.523 . S
C814 C798 1.368 . S
C814 C810 1.368 . S
C814 C813 1.523 . S
H815 C790 0.950 . S
H816 C792 0.950 . S
H817 C793 0.949 . S
H818 C795 0.950 . S
H819 C797 0.950 . S
C820 C821 1.349 . S
C820 C822 1.327 . S
C820 H845 0.950 . S
C821 C820 1.349 . S
C821 C837 1.349 . S
C822 C820 1.327 . S
C822 C841 1.429 . S
C822 H846 0.950 . S
C823 C840 1.574 . S
C823 C842 1.368 . S
C823 H847 0.949 . S
H824 C828 0.949 . S
C825 C826 1.349 . S
C825 C827 1.327 1_554 S
C825 H848 0.950 . S
C826 C825 1.349 . S
C826 C838 1.349 . S
C827 C825 1.327 1_556 S
C827 C843 1.429 . S
C827 H849 0.950 . S
C828 H824 0.949 . S
C828 C836 1.574 . S
C828 C844 1.368 . S
H829 C837 0.950 . S
H830 C835 0.950 . S
H831 C836 0.949 . S
H832 C838 0.950 . S
H833 C839 0.950 . S
H834 C840 0.949 . S
C835 H830 0.950 . S
C835 C837 1.327 . S
C835 C841 1.429 . S
C836 C828 1.574 . S
C836 H831 0.949 . S
C836 C842 1.368 . S
C837 C821 1.349 . S
C837 H829 0.950 . S
C837 C835 1.327 . S
C838 C826 1.349 . S
C838 H832 0.950 . S
C838 C839 1.327 1_554 S
C839 H833 0.950 . S
C839 C838 1.327 1_556 S
C839 C843 1.429 . S
C840 C823 1.574 . S
C840 H834 0.949 . S
C840 C844 1.368 . S
C841 C822 1.429 . S
C841 C835 1.429 . S
C841 C842 1.523 . S
C842 C823 1.368 . S
C842 C836 1.368 . S
C842 C841 1.523 . S
C843 C827 1.429 . S
C843 C839 1.429 . S
C843 C844 1.523 . S
C844 C828 1.368 . S
C844 C840 1.368 . S
C844 C843 1.523 . S
H845 C820 0.950 . S
H846 C822 0.950 . S
H847 C823 0.949 . S
H848 C825 0.950 . S
H849 C827 0.950 . S
C850 C851 1.349 . S
C850 C852 1.327 1_556 S
C850 H875 0.950 . S
C851 C850 1.349 . S
C851 C867 1.349 . S
C852 C850 1.327 1_554 S
C852 C871 1.429 . S
C852 H876 0.950 . S
C853 C870 1.574 . S
C853 C872 1.368 . S
C853 H877 0.949 . S
H854 C858 0.949 . S
C855 C856 1.349 . S
C855 C857 1.327 . S
C855 H878 0.950 . S
C856 C855 1.349 . S
C856 C868 1.349 . S
C857 C855 1.327 . S
C857 C873 1.429 . S
C857 H879 0.950 . S
C858 H854 0.949 . S
C858 C866 1.574 . S
C858 C874 1.368 . S
H859 C867 0.950 . S
H860 C865 0.950 . S
H861 C866 0.949 . S
H862 C868 0.950 . S
H863 C869 0.950 . S
H864 C870 0.949 . S
C865 H860 0.950 . S
C865 C867 1.327 1_554 S
C865 C871 1.429 . S
C866 C858 1.574 . S
C866 H861 0.949 . S
C866 C872 1.368 . S
C867 C851 1.349 . S
C867 H859 0.950 . S
C867 C865 1.327 1_556 S
C868 C856 1.349 . S
C868 H862 0.950 . S
C868 C869 1.327 . S
C869 H863 0.950 . S
C869 C868 1.327 . S
C869 C873 1.429 . S
C870 C853 1.574 . S
C870 H864 0.949 . S
C870 C874 1.368 . S
C871 C852 1.429 . S
C871 C865 1.429 . S
C871 C872 1.523 . S
C872 C853 1.368 . S
C872 C866 1.368 . S
C872 C871 1.523 . S
C873 C857 1.429 . S
C873 C869 1.429 . S
C873 C874 1.523 . S
C874 C858 1.368 . S
C874 C870 1.368 . S
C874 C873 1.523 . S
H875 C850 0.950 . S
H876 C852 0.950 . S
H877 C853 0.949 . S
H878 C855 0.950 . S
H879 C857 0.950 . S
C880 C881 1.349 . S
C880 C882 1.327 . S
C880 H905 0.950 . S
C881 C880 1.349 . S
C881 C897 1.349 . S
C882 C880 1.327 . S
C882 C901 1.429 . S
C882 H906 0.950 . S
C883 C900 1.574 . S
C883 C902 1.368 . S
C883 H907 0.949 . S
H884 C888 0.949 . S
C885 C886 1.349 . S
C885 C887 1.327 . S
C885 H908 0.950 . S
C886 C885 1.349 . S
C886 C898 1.349 . S
C887 C885 1.327 . S
C887 C903 1.429 . S
C887 H909 0.950 . S
C888 H884 0.949 . S
C888 C896 1.574 . S
C888 C904 1.368 . S
H889 C897 0.950 . S
H890 C895 0.950 . S
H891 C896 0.949 . S
H892 C898 0.950 . S
H893 C899 0.950 . S
H894 C900 0.949 . S
C895 H890 0.950 . S
C895 C897 1.327 . S
C895 C901 1.429 . S
C896 C888 1.574 . S
C896 H891 0.949 . S
C896 C902 1.368 . S
C897 C881 1.349 . S
C897 H889 0.950 . S
C897 C895 1.327 . S
C898 C886 1.349 . S
C898 H892 0.950 . S
C898 C899 1.327 . S
C899 H893 0.950 . S
C899 C898 1.327 . S
C899 C903 1.429 . S
C900 C883 1.574 . S
C900 H894 0.949 . S
C900 C904 1.368 . S
C901 C882 1.429 . S
C901 C895 1.429 . S
C901 C902 1.523 . S
C902 C883 1.368 . S
C902 C896 1.368 . S
C902 C901 1.523 . S
C903 C887 1.429 . S
C903 C899 1.429 . S
C903 C904 1.523 . S
C904 C888 1.368 . S
C904 C900 1.368 . S
C904 C903 1.523 . S
H905 C880 0.950 . S
H906 C882 0.950 . S
H907 C883 0.949 . S
H908 C885 0.950 . S
H909 C887 0.950 . S
C910 C911 1.349 . S
C910 C912 1.327 . S
C910 H935 0.950 . S
C911 C910 1.349 . S
C911 C927 1.349 . S
C912 C910 1.327 . S
C912 C931 1.429 . S
C912 H936 0.950 . S
C913 C930 1.574 . S
C913 C932 1.368 . S
C913 H937 0.949 . S
H914 C918 0.949 . S
C915 C916 1.349 . S
C915 C917 1.327 1_556 S
C915 H938 0.950 . S
C916 C915 1.349 . S
C916 C928 1.349 . S
C917 C915 1.327 1_554 S
C917 C933 1.429 . S
C917 H939 0.950 . S
C918 H914 0.949 . S
C918 C926 1.574 . S
C918 C934 1.368 . S
H919 C927 0.950 . S
H920 C925 0.950 . S
H921 C926 0.949 . S
H922 C928 0.950 . S
H923 C929 0.950 . S
H924 C930 0.949 . S
C925 H920 0.950 . S
C925 C927 1.327 . S
C925 C931 1.429 . S
C926 C918 1.574 . S
C926 H921 0.949 . S
C926 C932 1.368 . S
C927 C911 1.349 . S
C927 H919 0.950 . S
C927 C925 1.327 . S
C928 C916 1.349 . S
C928 H922 0.950 . S
C928 C929 1.327 1_556 S
C929 H923 0.950 . S
C929 C928 1.327 1_554 S
C929 C933 1.429 . S
C930 C913 1.574 . S
C930 H924 0.949 . S
C930 C934 1.368 . S
C931 C912 1.429 . S
C931 C925 1.429 . S
C931 C932 1.523 . S
C932 C913 1.368 . S
C932 C926 1.368 . S
C932 C931 1.523 . S
C933 C917 1.429 . S
C933 C929 1.429 . S
C933 C934 1.523 . S
C934 C918 1.368 . S
C934 C930 1.368 . S
C934 C933 1.523 . S
H935 C910 0.950 . S
H936 C912 0.950 . S
H937 C913 0.949 . S
H938 C915 0.950 . S
H939 C917 0.950 . S
C940 C941 1.349 . S
C940 C942 1.327 1_554 S
C940 H965 0.950 . S
C941 C940 1.349 . S
C941 C957 1.349 . S
C942 C940 1.327 1_556 S
C942 C961 1.429 . S
C942 H966 0.950 . S
C943 C960 1.574 . S
C943 C962 1.368 . S
C943 H967 0.949 . S
H944 C948 0.949 . S
C945 C946 1.349 . S
C945 C947 1.327 . S
C945 H968 0.950 . S
C946 C945 1.349 . S
C946 C958 1.349 . S
C947 C945 1.327 . S
C947 C963 1.429 . S
C947 H969 0.950 . S
C948 H944 0.949 . S
C948 C956 1.574 . S
C948 C964 1.368 . S
H949 C957 0.950 . S
H950 C955 0.950 . S
H951 C956 0.949 . S
H952 C958 0.950 . S
H953 C959 0.950 . S
H954 C960 0.949 . S
C955 H950 0.950 . S
C955 C957 1.327 1_556 S
C955 C961 1.429 . S
C956 C948 1.574 . S
C956 H951 0.949 . S
C956 C962 1.368 . S
C957 C941 1.349 . S
C957 H949 0.950 . S
C957 C955 1.327 1_554 S
C958 C946 1.349 . S
C958 H952 0.950 . S
C958 C959 1.327 . S
C959 H953 0.950 . S
C959 C958 1.327 . S
C959 C963 1.429 . S
C960 C943 1.574 . S
C960 H954 0.949 . S
C960 C964 1.368 . S
C961 C942 1.429 . S
C961 C955 1.429 . S
C961 C962 1.523 . S
C962 C943 1.368 . S
C962 C956 1.368 . S
C962 C961 1.523 . S
C963 C947 1.429 . S
C963 C959 1.429 . S
C963 C964 1.523 . S
C964 C948 1.368 . S
C964 C960 1.368 . S
C964 C963 1.523 . S
H965 C940 0.950 . S
H966 C942 0.950 . S
H967 C943 0.949 . S
H968 C945 0.950 . S
H969 C947 0.950 . S
C970 C971 1.349 . S
C970 C972 1.327 . S
C970 H995 0.950 . S
C971 C970 1.349 . S
C971 C987 1.349 . S
C972 C970 1.327 . S
C972 C991 1.429 . S
C972 H996 0.950 . S
C973 C990 1.574 . S
C973 C992 1.368 . S
C973 H997 0.949 . S
H974 C978 0.949 . S
C975 C976 1.349 . S
C975 C977 1.327 . S
C975 H998 0.950 . S
C976 C975 1.349 . S
C976 C988 1.349 . S
C977 C975 1.327 . S
C977 C993 1.429 . S
C977 H999 0.950 . S
C978 H974 0.949 . S
C978 C986 1.574 . S
C978 C994 1.368 . S
H979 C987 0.950 . S
H980 C985 0.950 . S
H981 C986 0.949 . S
H982 C988 0.950 . S
H983 C989 0.950 . S
H984 C990 0.949 . S
C985 H980 0.950 . S
C985 C987 1.327 . S
C985 C991 1.429 . S
C986 C978 1.574 . S
C986 H981 0.949 . S
C986 C992 1.368 . S
C987 C971 1.349 . S
C987 H979 0.950 . S
C987 C985 1.327 . S
C988 C976 1.349 . S
C988 H982 0.950 . S
C988 C989 1.327 . S
C989 H983 0.950 . S
C989 C988 1.327 . S
C989 C993 1.429 . S
C990 C973 1.574 . S
C990 H984 0.949 . S
C990 C994 1.368 . S
C991 C972 1.429 . S
C991 C985 1.429 . S
C991 C992 1.523 . S
C992 C973 1.368 . S
C992 C986 1.368 . S
C992 C991 1.523 . S
C993 C977 1.429 . S
C993 C989 1.429 . S
C993 C994 1.523 . S
C994 C978 1.368 . S
C994 C990 1.368 . S
C994 C993 1.523 . S
H995 C970 0.950 . S
H996 C972 0.950 . S
H997 C973 0.949 . S
H998 C975 0.950 . S
H999 C977 0.950 . S
C1000 C1001 1.349 . S
C1000 C1002 1.327 . S
C1000 H1025 0.950 . S
C1001 C1000 1.349 . S
C1001 C1017 1.349 . S
C1002 C1000 1.327 . S
C1002 C1021 1.429 . S
C1002 H1026 0.950 . S
C1003 C1020 1.574 . S
C1003 C1022 1.368 . S
C1003 H1027 0.949 . S
H1004 C1008 0.949 . S
C1005 C1006 1.349 . S
C1005 C1007 1.327 . S
C1005 H1028 0.950 . S
C1006 C1005 1.349 . S
C1006 C1018 1.349 . S
C1007 C1005 1.327 . S
C1007 C1023 1.429 . S
C1007 H1029 0.950 . S
C1008 H1004 0.949 . S
C1008 C1016 1.574 . S
C1008 C1024 1.368 . S
H1009 C1017 0.950 . S
H1010 C1015 0.950 . S
H1011 C1016 0.949 . S
H1012 C1018 0.950 . S
H1013 C1019 0.950 . S
H1014 C1020 0.949 . S
C1015 H1010 0.950 . S
C1015 C1017 1.327 . S
C1015 C1021 1.429 . S
C1016 C1008 1.574 . S
C1016 H1011 0.949 . S
C1016 C1022 1.368 . S
C1017 C1001 1.349 . S
C1017 H1009 0.950 . S
C1017 C1015 1.327 . S
C1018 C1006 1.349 . S
C1018 H1012 0.950 . S
C1018 C1019 1.327 . S
C1019 H1013 0.950 . S
C1019 C1018 1.327 . S
C1019 C1023 1.429 . S
C1020 C1003 1.574 . S
C1020 H1014 0.949 . S
C1020 C1024 1.368 . S
C1021 C1002 1.429 . S
C1021 C1015 1.429 . S
C1021 C1022 1.523 . S
C1022 C1003 1.368 . S
C1022 C1016 1.368 . S
C1022 C1021 1.523 . S
C1023 C1007 1.429 . S
C1023 C1019 1.429 . S
C1023 C1024 1.523 . S
C1024 C1008 1.368 . S
C1024 C1020 1.368 . S
C1024 C1023 1.523 . S
H1025 C1000 0.950 . S
H1026 C1002 0.950 . S
H1027 C1003 0.949 . S
H1028 C1005 0.950 . S
H1029 C1007 0.950 . S
C1030 C1031 1.349 . S
C1030 C1032 1.327 . S
C1030 H1055 0.950 . S
C1031 C1030 1.349 . S
C1031 C1047 1.349 . S
C1032 C1030 1.327 . S
C1032 C1051 1.429 . S
C1032 H1056 0.950 . S
C1033 C1050 1.574 . S
C1033 C1052 1.368 . S
C1033 H1057 0.949 . S
H1034 C1038 0.949 . S
C1035 C1036 1.349 . S
C1035 C1037 1.327 . S
C1035 H1058 0.950 . S
C1036 C1035 1.349 . S
C1036 C1048 1.349 . S
C1037 C1035 1.327 . S
C1037 C1053 1.429 . S
C1037 H1059 0.950 . S
C1038 H1034 0.949 . S
C1038 C1046 1.574 . S
C1038 C1054 1.368 . S
H1039 C1047 0.950 . S
H1040 C1045 0.950 . S
H1041 C1046 0.949 . S
H1042 C1048 0.950 . S
H1043 C1049 0.950 . S
H1044 C1050 0.949 . S
C1045 H1040 0.950 . S
C1045 C1047 1.327 . S
C1045 C1051 1.429 . S
C1046 C1038 1.574 . S
C1046 H1041 0.949 . S
C1046 C1052 1.368 . S
C1047 C1031 1.349 . S
C1047 H1039 0.950 . S
C1047 C1045 1.327 . S
C1048 C1036 1.349 . S
C1048 H1042 0.950 . S
C1048 C1049 1.327 . S
C1049 H1043 0.950 . S
C1049 C1048 1.327 . S
C1049 C1053 1.429 . S
C1050 C1033 1.574 . S
C1050 H1044 0.949 . S
C1050 C1054 1.368 . S
C1051 C1032 1.429 . S
C1051 C1045 1.429 . S
C1051 C1052 1.523 . S
C1052 C1033 1.368 . S
C1052 C1046 1.368 . S
C1052 C1051 1.523 . S
C1053 C1037 1.429 . S
C1053 C1049 1.429 . S
C1053 C1054 1.523 . S
C1054 C1038 1.368 . S
C1054 C1050 1.368 . S
C1054 C1053 1.523 . S
H1055 C1030 0.950 . S
H1056 C1032 0.950 . S
H1057 C1033 0.949 . S
H1058 C1035 0.950 . S
H1059 C1037 0.950 . S
C1060 C1061 1.349 . S
C1060 C1062 1.327 . S
C1060 H1085 0.950 . S
C1061 C1060 1.349 . S
C1061 C1077 1.349 . S
C1062 C1060 1.327 . S
C1062 C1081 1.429 . S
C1062 H1086 0.950 . S
C1063 C1080 1.574 . S
C1063 C1082 1.368 . S
C1063 H1087 0.949 . S
H1064 C1068 0.949 . S
C1065 C1066 1.349 . S
C1065 C1067 1.327 1_556 S
C1065 H1088 0.950 . S
C1066 C1065 1.349 . S
C1066 C1078 1.349 . S
C1067 C1065 1.327 1_554 S
C1067 C1083 1.429 . S
C1067 H1089 0.950 . S
C1068 H1064 0.949 . S
C1068 C1076 1.574 . S
C1068 C1084 1.368 . S
H1069 C1077 0.950 . S
H1070 C1075 0.950 . S
H1071 C1076 0.949 . S
H1072 C1078 0.950 . S
H1073 C1079 0.950 . S
H1074 C1080 0.949 . S
C1075 H1070 0.950 . S
C1075 C1077 1.327 . S
C1075 C1081 1.429 . S
C1076 C1068 1.574 . S
C1076 H1071 0.949 . S
C1076 C1082 1.368 . S
C1077 C1061 1.349 . S
C1077 H1069 0.950 . S
C1077 C1075 1.327 . S
C1078 C1066 1.349 . S
C1078 H1072 0.950 . S
C1078 C1079 1.327 1_556 S
C1079 H1073 0.950 . S
C1079 C1078 1.327 1_554 S
C1079 C1083 1.429 . S
C1080 C1063 1.574 . S
C1080 H1074 0.949 . S
C1080 C1084 1.368 . S
C1081 C1062 1.429 . S
C1081 C1075 1.429 . S
C1081 C1082 1.523 . S
C1082 C1063 1.368 . S
C1082 C1076 1.368 . S
C1082 C1081 1.523 . S
C1083 C1067 1.429 . S
C1083 C1079 1.429 . S
C1083 C1084 1.523 . S
C1084 C1068 1.368 . S
C1084 C1080 1.368 . S
C1084 C1083 1.523 . S
H1085 C1060 0.950 . S
H1086 C1062 0.950 . S
H1087 C1063 0.949 . S
H1088 C1065 0.950 . S
H1089 C1067 0.950 . S
C1090 C1091 1.349 . S
C1090 C1092 1.327 1_554 S
C1090 H1115 0.950 . S
C1091 C1090 1.349 . S
C1091 C1107 1.349 . S
C1092 C1090 1.327 1_556 S
C1092 C1111 1.429 . S
C1092 H1116 0.950 . S
C1093 C1110 1.574 . S
C1093 C1112 1.368 . S
C1093 H1117 0.949 . S
H1094 C1098 0.949 . S
C1095 C1096 1.349 . S
C1095 C1097 1.327 . S
C1095 H1118 0.950 . S
C1096 C1095 1.349 . S
C1096 C1108 1.349 . S
C1097 C1095 1.327 . S
C1097 C1113 1.429 . S
C1097 H1119 0.950 . S
C1098 H1094 0.949 . S
C1098 C1106 1.574 . S
C1098 C1114 1.368 . S
H1099 C1107 0.950 . S
H1100 C1105 0.950 . S
H1101 C1106 0.949 . S
H1102 C1108 0.950 . S
H1103 C1109 0.950 . S
H1104 C1110 0.949 . S
C1105 H1100 0.950 . S
C1105 C1107 1.327 1_556 S
C1105 C1111 1.429 . S
C1106 C1098 1.574 . S
C1106 H1101 0.949 . S
C1106 C1112 1.368 . S
C1107 C1091 1.349 . S
C1107 H1099 0.950 . S
C1107 C1105 1.327 1_554 S
C1108 C1096 1.349 . S
C1108 H1102 0.950 . S
C1108 C1109 1.327 . S
C1109 H1103 0.950 . S
C1109 C1108 1.327 . S
C1109 C1113 1.429 . S
C1110 C1093 1.574 . S
C1110 H1104 0.949 . S
C1110 C1114 1.368 . S
C1111 C1092 1.429 . S
C1111 C1105 1.429 . S
C1111 C1112 1.523 . S
C1112 C1093 1.368 . S
C1112 C1106 1.368 . S
C1112 C1111 1.523 . S
C1113 C1097 1.429 . S
C1113 C1109 1.429 . S
C1113 C1114 1.523 . S
C1114 C1098 1.368 . S
C1114 C1110 1.368 . S
C1114 C1113 1.523 . S
H1115 C1090 0.950 . S
H1116 C1092 0.950 . S
H1117 C1093 0.949 . S
H1118 C1095 0.950 . S
H1119 C1097 0.950 . S
C1120 C1121 1.349 . S
C1120 C1122 1.327 . S
C1120 H1145 0.950 . S
C1121 C1120 1.349 . S
C1121 C1137 1.349 . S
C1122 C1120 1.327 . S
C1122 C1141 1.429 . S
C1122 H1146 0.950 . S
C1123 C1140 1.574 . S
C1123 C1142 1.368 . S
C1123 H1147 0.949 . S
H1124 C1128 0.949 . S
C1125 C1126 1.349 . S
C1125 C1127 1.327 . S
C1125 H1148 0.950 . S
C1126 C1125 1.349 . S
C1126 C1138 1.349 . S
C1127 C1125 1.327 . S
C1127 C1143 1.429 . S
C1127 H1149 0.950 . S
C1128 H1124 0.949 . S
C1128 C1136 1.574 . S
C1128 C1144 1.368 . S
H1129 C1137 0.950 . S
H1130 C1135 0.950 . S
H1131 C1136 0.949 . S
H1132 C1138 0.950 . S
H1133 C1139 0.950 . S
H1134 C1140 0.949 . S
C1135 H1130 0.950 . S
C1135 C1137 1.327 . S
C1135 C1141 1.429 . S
C1136 C1128 1.574 . S
C1136 H1131 0.949 . S
C1136 C1142 1.368 . S
C1137 C1121 1.349 . S
C1137 H1129 0.950 . S
C1137 C1135 1.327 . S
C1138 C1126 1.349 . S
C1138 H1132 0.950 . S
C1138 C1139 1.327 . S
C1139 H1133 0.950 . S
C1139 C1138 1.327 . S
C1139 C1143 1.429 . S
C1140 C1123 1.574 . S
C1140 H1134 0.949 . S
C1140 C1144 1.368 . S
C1141 C1122 1.429 . S
C1141 C1135 1.429 . S
C1141 C1142 1.523 . S
C1142 C1123 1.368 . S
C1142 C1136 1.368 . S
C1142 C1141 1.523 . S
C1143 C1127 1.429 . S
C1143 C1139 1.429 . S
C1143 C1144 1.523 . S
C1144 C1128 1.368 . S
C1144 C1140 1.368 . S
C1144 C1143 1.523 . S
H1145 C1120 0.950 . S
H1146 C1122 0.950 . S
H1147 C1123 0.949 . S
H1148 C1125 0.950 . S
H1149 C1127 0.950 . S
C1150 C1151 1.349 . S
C1150 C1152 1.327 . S
C1150 H1175 0.950 . S
C1151 C1150 1.349 . S
C1151 C1167 1.349 . S
C1152 C1150 1.327 . S
C1152 C1171 1.429 . S
C1152 H1176 0.950 . S
C1153 C1170 1.574 . S
C1153 C1172 1.368 . S
C1153 H1177 0.949 . S
H1154 C1158 0.949 . S
C1155 C1156 1.349 . S
C1155 C1157 1.327 . S
C1155 H1178 0.950 . S
C1156 C1155 1.349 . S
C1156 C1168 1.349 . S
C1157 C1155 1.327 . S
C1157 C1173 1.429 . S
C1157 H1179 0.950 . S
C1158 H1154 0.949 . S
C1158 C1166 1.574 . S
C1158 C1174 1.368 . S
H1159 C1167 0.950 . S
H1160 C1165 0.950 . S
H1161 C1166 0.949 . S
H1162 C1168 0.950 . S
H1163 C1169 0.950 . S
H1164 C1170 0.949 . S
C1165 H1160 0.950 . S
C1165 C1167 1.327 . S
C1165 C1171 1.429 . S
C1166 C1158 1.574 . S
C1166 H1161 0.949 . S
C1166 C1172 1.368 . S
C1167 C1151 1.349 . S
C1167 H1159 0.950 . S
C1167 C1165 1.327 . S
C1168 C1156 1.349 . S
C1168 H1162 0.950 . S
C1168 C1169 1.327 . S
C1169 H1163 0.950 . S
C1169 C1168 1.327 . S
C1169 C1173 1.429 . S
C1170 C1153 1.574 . S
C1170 H1164 0.949 . S
C1170 C1174 1.368 . S
C1171 C1152 1.429 . S
C1171 C1165 1.429 . S
C1171 C1172 1.523 . S
C1172 C1153 1.368 . S
C1172 C1166 1.368 . S
C1172 C1171 1.523 . S
C1173 C1157 1.429 . S
C1173 C1169 1.429 . S
C1173 C1174 1.523 . S
C1174 C1158 1.368 . S
C1174 C1170 1.368 . S
C1174 C1173 1.523 . S
H1175 C1150 0.950 . S
H1176 C1152 0.950 . S
H1177 C1153 0.949 . S
H1178 C1155 0.950 . S
H1179 C1157 0.950 . S
C1180 C1181 1.349 . S
C1180 C1182 1.327 . S
C1180 H1205 0.950 . S
C1181 C1180 1.349 . S
C1181 C1197 1.349 . S
C1182 C1180 1.327 . S
C1182 C1201 1.429 . S
C1182 H1206 0.950 . S
C1183 C1200 1.574 . S
C1183 C1202 1.368 . S
C1183 H1207 0.949 . S
H1184 C1188 0.949 . S
C1185 C1186 1.349 . S
C1185 C1187 1.327 . S
C1185 H1208 0.950 . S
C1186 C1185 1.349 . S
C1186 C1198 1.349 . S
C1187 C1185 1.327 . S
C1187 C1203 1.429 . S
C1187 H1209 0.950 . S
C1188 H1184 0.949 . S
C1188 C1196 1.574 . S
C1188 C1204 1.368 . S
H1189 C1197 0.950 . S
H1190 C1195 0.950 . S
H1191 C1196 0.949 . S
H1192 C1198 0.950 . S
H1193 C1199 0.950 . S
H1194 C1200 0.949 . S
C1195 H1190 0.950 . S
C1195 C1197 1.327 . S
C1195 C1201 1.429 . S
C1196 C1188 1.574 . S
C1196 H1191 0.949 . S
C1196 C1202 1.368 . S
C1197 C1181 1.349 . S
C1197 H1189 0.950 . S
C1197 C1195 1.327 . S
C1198 C1186 1.349 . S
C1198 H1192 0.950 . S
C1198 C1199 1.327 . S
C1199 H1193 0.950 . S
C1199 C1198 1.327 . S
C1199 C1203 1.429 . S
C1200 C1183 1.574 . S
C1200 H1194 0.949 . S
C1200 C1204 1.368 . S
C1201 C1182 1.429 . S
C1201 C1195 1.429 . S
C1201 C1202 1.523 . S
C1202 C1183 1.368 . S
C1202 C1196 1.368 . S
C1202 C1201 1.523 . S
C1203 C1187 1.429 . S
C1203 C1199 1.429 . S
C1203 C1204 1.523 . S
C1204 C1188 1.368 . S
C1204 C1200 1.368 . S
C1204 C1203 1.523 . S
H1205 C1180 0.950 . S
H1206 C1182 0.950 . S
H1207 C1183 0.949 . S
H1208 C1185 0.950 . S
H1209 C1187 0.950 . S
C1210 C1211 1.349 . S
C1210 C1212 1.327 . S
C1210 H1235 0.950 . S
C1211 C1210 1.349 . S
C1211 C1227 1.349 . S
C1212 C1210 1.327 . S
C1212 C1231 1.429 . S
C1212 H1236 0.950 . S
C1213 C1230 1.574 1_655 S
C1213 C1232 1.368 . S
C1213 H1237 0.949 . S
H1214 C1218 0.949 . S
C1215 C1216 1.349 . S
C1215 C1217 1.327 . S
C1215 H1238 0.950 . S
C1216 C1215 1.349 . S
C1216 C1228 1.349 . S
C1217 C1215 1.327 . S
C1217 C1233 1.429 . S
C1217 H1239 0.950 . S
C1218 H1214 0.949 . S
C1218 C1226 1.574 1_455 S
C1218 C1234 1.368 . S
H1219 C1227 0.950 . S
H1220 C1225 0.950 . S
H1221 C1226 0.949 . S
H1222 C1228 0.950 . S
H1223 C1229 0.950 . S
H1224 C1230 0.949 . S
C1225 H1220 0.950 . S
C1225 C1227 1.327 . S
C1225 C1231 1.429 . S
C1226 C1218 1.574 1_655 S
C1226 H1221 0.949 . S
C1226 C1232 1.368 . S
C1227 C1211 1.349 . S
C1227 H1219 0.950 . S
C1227 C1225 1.327 . S
C1228 C1216 1.349 . S
C1228 H1222 0.950 . S
C1228 C1229 1.327 . S
C1229 H1223 0.950 . S
C1229 C1228 1.327 . S
C1229 C1233 1.429 . S
C1230 C1213 1.574 1_455 S
C1230 H1224 0.949 . S
C1230 C1234 1.368 . S
C1231 C1212 1.429 . S
C1231 C1225 1.429 . S
C1231 C1232 1.523 . S
C1232 C1213 1.368 . S
C1232 C1226 1.368 . S
C1232 C1231 1.523 . S
C1233 C1217 1.429 . S
C1233 C1229 1.429 . S
C1233 C1234 1.523 . S
C1234 C1218 1.368 . S
C1234 C1230 1.368 . S
C1234 C1233 1.523 . S
H1235 C1210 0.950 . S
H1236 C1212 0.950 . S
H1237 C1213 0.949 . S
H1238 C1215 0.950 . S
H1239 C1217 0.950 . S
C1240 C1241 1.349 . S
C1240 C1242 1.327 . S
C1240 H1265 0.950 . S
C1241 C1240 1.349 . S
C1241 C1257 1.349 . S
C1242 C1240 1.327 . S
C1242 C1261 1.429 . S
C1242 H1266 0.950 . S
C1243 C1260 1.574 . S
C1243 C1262 1.368 . S
C1243 H1267 0.949 . S
H1244 C1248 0.949 . S
C1245 C1246 1.349 . S
C1245 C1247 1.327 . S
C1245 H1268 0.950 . S
C1246 C1245 1.349 . S
C1246 C1258 1.349 . S
C1247 C1245 1.327 . S
C1247 C1263 1.429 . S
C1247 H1269 0.950 . S
C1248 H1244 0.949 . S
C1248 C1256 1.574 . S
C1248 C1264 1.368 . S
H1249 C1257 0.950 . S
H1250 C1255 0.950 . S
H1251 C1256 0.949 . S
H1252 C1258 0.950 . S
H1253 C1259 0.950 . S
H1254 C1260 0.949 . S
C1255 H1250 0.950 . S
C1255 C1257 1.327 . S
C1255 C1261 1.429 . S
C1256 C1248 1.574 . S
C1256 H1251 0.949 . S
C1256 C1262 1.368 . S
C1257 C1241 1.349 . S
C1257 H1249 0.950 . S
C1257 C1255 1.327 . S
C1258 C1246 1.349 . S
C1258 H1252 0.950 . S
C1258 C1259 1.327 . S
C1259 H1253 0.950 . S
C1259 C1258 1.327 . S
C1259 C1263 1.429 . S
C1260 C1243 1.574 . S
C1260 H1254 0.949 . S
C1260 C1264 1.368 . S
C1261 C1242 1.429 . S
C1261 C1255 1.429 . S
C1261 C1262 1.523 . S
C1262 C1243 1.368 . S
C1262 C1256 1.368 . S
C1262 C1261 1.523 . S
C1263 C1247 1.429 . S
C1263 C1259 1.429 . S
C1263 C1264 1.523 . S
C1264 C1248 1.368 . S
C1264 C1260 1.368 . S
C1264 C1263 1.523 . S
H1265 C1240 0.950 . S
H1266 C1242 0.950 . S
H1267 C1243 0.949 . S
H1268 C1245 0.950 . S
H1269 C1247 0.950 . S
C1270 C1271 1.349 . S
C1270 C1272 1.327 . S
C1270 H1295 0.950 . S
C1271 C1270 1.349 . S
C1271 C1287 1.349 . S
C1272 C1270 1.327 . S
C1272 C1291 1.429 . S
C1272 H1296 0.950 . S
C1273 C1290 1.574 1_455 S
C1273 C1292 1.368 . S
C1273 H1297 0.949 . S
H1274 C1278 0.949 . S
C1275 C1276 1.349 . S
C1275 C1277 1.327 . S
C1275 H1298 0.950 . S
C1276 C1275 1.349 . S
C1276 C1288 1.349 . S
C1277 C1275 1.327 . S
C1277 C1293 1.429 . S
C1277 H1299 0.950 . S
C1278 H1274 0.949 . S
C1278 C1286 1.574 1_655 S
C1278 C1294 1.368 . S
H1279 C1287 0.950 . S
H1280 C1285 0.950 . S
H1281 C1286 0.949 . S
H1282 C1288 0.950 . S
H1283 C1289 0.950 . S
H1284 C1290 0.949 . S
C1285 H1280 0.950 . S
C1285 C1287 1.327 . S
C1285 C1291 1.429 . S
C1286 C1278 1.574 1_455 S
C1286 H1281 0.949 . S
C1286 C1292 1.368 . S
C1287 C1271 1.349 . S
C1287 H1279 0.950 . S
C1287 C1285 1.327 . S
C1288 C1276 1.349 . S
C1288 H1282 0.950 . S
C1288 C1289 1.327 . S
C1289 H1283 0.950 . S
C1289 C1288 1.327 . S
C1289 C1293 1.429 . S
C1290 C1273 1.574 1_655 S
C1290 H1284 0.949 . S
C1290 C1294 1.368 . S
C1291 C1272 1.429 . S
C1291 C1285 1.429 . S
C1291 C1292 1.523 . S
C1292 C1273 1.368 . S
C1292 C1286 1.368 . S
C1292 C1291 1.523 . S
C1293 C1277 1.429 . S
C1293 C1289 1.429 . S
C1293 C1294 1.523 . S
C1294 C1278 1.368 . S
C1294 C1290 1.368 . S
C1294 C1293 1.523 . S
H1295 C1270 0.950 . S
H1296 C1272 0.950 . S
H1297 C1273 0.949 . S
H1298 C1275 0.950 . S
H1299 C1277 0.950 . S
C1300 C1301 1.349 . S
C1300 C1302 1.327 . S
C1300 H1325 0.950 . S
C1301 C1300 1.349 . S
C1301 C1317 1.349 . S
C1302 C1300 1.327 . S
C1302 C1321 1.429 . S
C1302 H1326 0.950 . S
C1303 C1320 1.574 . S
C1303 C1322 1.368 . S
C1303 H1327 0.949 . S
H1304 C1308 0.949 . S
C1305 C1306 1.349 . S
C1305 C1307 1.327 . S
C1305 H1328 0.950 . S
C1306 C1305 1.349 . S
C1306 C1318 1.349 . S
C1307 C1305 1.327 . S
C1307 C1323 1.429 . S
C1307 H1329 0.950 . S
C1308 H1304 0.949 . S
C1308 C1316 1.574 . S
C1308 C1324 1.368 . S
H1309 C1317 0.950 . S
H1310 C1315 0.950 . S
H1311 C1316 0.949 . S
H1312 C1318 0.950 . S
H1313 C1319 0.950 . S
H1314 C1320 0.949 . S
C1315 H1310 0.950 . S
C1315 C1317 1.327 . S
C1315 C1321 1.429 . S
C1316 C1308 1.574 . S
C1316 H1311 0.949 . S
C1316 C1322 1.368 . S
C1317 C1301 1.349 . S
C1317 H1309 0.950 . S
C1317 C1315 1.327 . S
C1318 C1306 1.349 . S
C1318 H1312 0.950 . S
C1318 C1319 1.327 . S
C1319 H1313 0.950 . S
C1319 C1318 1.327 . S
C1319 C1323 1.429 . S
C1320 C1303 1.574 . S
C1320 H1314 0.949 . S
C1320 C1324 1.368 . S
C1321 C1302 1.429 . S
C1321 C1315 1.429 . S
C1321 C1322 1.523 . S
C1322 C1303 1.368 . S
C1322 C1316 1.368 . S
C1322 C1321 1.523 . S
C1323 C1307 1.429 . S
C1323 C1319 1.429 . S
C1323 C1324 1.523 . S
C1324 C1308 1.368 . S
C1324 C1320 1.368 . S
C1324 C1323 1.523 . S
H1325 C1300 0.950 . S
H1326 C1302 0.950 . S
H1327 C1303 0.949 . S
H1328 C1305 0.950 . S
H1329 C1307 0.950 . S
C1330 C1331 1.349 . S
C1330 C1332 1.327 . S
C1330 H1355 0.950 . S
C1331 C1330 1.349 . S
C1331 C1347 1.349 . S
C1332 C1330 1.327 . S
C1332 C1351 1.429 . S
C1332 H1356 0.950 . S
C1333 C1350 1.574 . S
C1333 C1352 1.368 . S
C1333 H1357 0.949 . S
H1334 C1338 0.949 . S
C1335 C1336 1.349 . S
C1335 C1337 1.327 . S
C1335 H1358 0.950 . S
C1336 C1335 1.349 . S
C1336 C1348 1.349 . S
C1337 C1335 1.327 . S
C1337 C1353 1.429 . S
C1337 H1359 0.950 . S
C1338 H1334 0.949 . S
C1338 C1346 1.574 . S
C1338 C1354 1.368 . S
H1339 C1347 0.950 . S
H1340 C1345 0.950 . S
H1341 C1346 0.949 . S
H1342 C1348 0.950 . S
H1343 C1349 0.950 . S
H1344 C1350 0.949 . S
C1345 H1340 0.950 . S
C1345 C1347 1.327 . S
C1345 C1351 1.429 . S
C1346 C1338 1.574 . S
C1346 H1341 0.949 . S
C1346 C1352 1.368 . S
C1347 C1331 1.349 . S
C1347 H1339 0.950 . S
C1347 C1345 1.327 . S
C1348 C1336 1.349 . S
C1348 H1342 0.950 . S
C1348 C1349 1.327 . S
C1349 H1343 0.950 . S
C1349 C1348 1.327 . S
C1349 C1353 1.429 . S
C1350 C1333 1.574 . S
C1350 H1344 0.949 . S
C1350 C1354 1.368 . S
C1351 C1332 1.429 . S
C1351 C1345 1.429 . S
C1351 C1352 1.523 . S
C1352 C1333 1.368 . S
C1352 C1346 1.368 . S
C1352 C1351 1.523 . S
C1353 C1337 1.429 . S
C1353 C1349 1.429 . S
C1353 C1354 1.523 . S
C1354 C1338 1.368 . S
C1354 C1350 1.368 . S
C1354 C1353 1.523 . S
H1355 C1330 0.950 . S
H1356 C1332 0.950 . S
H1357 C1333 0.949 . S
H1358 C1335 0.950 . S
H1359 C1337 0.950 . S
C1360 C1361 1.349 . S
C1360 C1362 1.327 . S
C1360 H1385 0.950 . S
C1361 C1360 1.349 . S
C1361 C1377 1.349 . S
C1362 C1360 1.327 . S
C1362 C1381 1.429 . S
C1362 H1386 0.950 . S
C1363 C1380 1.574 . S
C1363 C1382 1.368 . S
C1363 H1387 0.949 . S
H1364 C1368 0.949 . S
C1365 C1366 1.349 . S
C1365 C1367 1.327 . S
C1365 H1388 0.950 . S
C1366 C1365 1.349 . S
C1366 C1378 1.349 . S
C1367 C1365 1.327 . S
C1367 C1383 1.429 . S
C1367 H1389 0.950 . S
C1368 H1364 0.949 . S
C1368 C1376 1.574 . S
C1368 C1384 1.368 . S
H1369 C1377 0.950 . S
H1370 C1375 0.950 . S
H1371 C1376 0.949 . S
H1372 C1378 0.950 . S
H1373 C1379 0.950 . S
H1374 C1380 0.949 . S
C1375 H1370 0.950 . S
C1375 C1377 1.327 . S
C1375 C1381 1.429 . S
C1376 C1368 1.574 . S
C1376 H1371 0.949 . S
C1376 C1382 1.368 . S
C1377 C1361 1.349 . S
C1377 H1369 0.950 . S
C1377 C1375 1.327 . S
C1378 C1366 1.349 . S
C1378 H1372 0.950 . S
C1378 C1379 1.327 . S
C1379 H1373 0.950 . S
C1379 C1378 1.327 . S
C1379 C1383 1.429 . S
C1380 C1363 1.574 . S
C1380 H1374 0.949 . S
C1380 C1384 1.368 . S
C1381 C1362 1.429 . S
C1381 C1375 1.429 . S
C1381 C1382 1.523 . S
C1382 C1363 1.368 . S
C1382 C1376 1.368 . S
C1382 C1381 1.523 . S
C1383 C1367 1.429 . S
C1383 C1379 1.429 . S
C1383 C1384 1.523 . S
C1384 C1368 1.368 . S
C1384 C1380 1.368 . S
C1384 C1383 1.523 . S
H1385 C1360 0.950 . S
H1386 C1362 0.950 . S
H1387 C1363 0.949 . S
H1388 C1365 0.950 . S
H1389 C1367 0.950 . S
C1390 C1391 1.349 . S
C1390 C1392 1.327 . S
C1390 H1415 0.950 . S
C1391 C1390 1.349 . S
C1391 C1407 1.349 . S
C1392 C1390 1.327 . S
C1392 C1411 1.429 . S
C1392 H1416 0.950 . S
C1393 C1410 1.574 . S
C1393 C1412 1.368 . S
C1393 H1417 0.949 . S
H1394 C1398 0.949 . S
C1395 C1396 1.349 . S
C1395 C1397 1.327 . S
C1395 H1418 0.950 . S
C1396 C1395 1.349 . S
C1396 C1408 1.349 . S
C1397 C1395 1.327 . S
C1397 C1413 1.429 . S
C1397 H1419 0.950 . S
C1398 H1394 0.949 . S
C1398 C1406 1.574 . S
C1398 C1414 1.368 . S
H1399 C1407 0.950 . S
H1400 C1405 0.950 . S
H1401 C1406 0.949 . S
H1402 C1408 0.950 . S
H1403 C1409 0.950 . S
H1404 C1410 0.949 . S
C1405 H1400 0.950 . S
C1405 C1407 1.327 . S
C1405 C1411 1.429 . S
C1406 C1398 1.574 . S
C1406 H1401 0.949 . S
C1406 C1412 1.368 . S
C1407 C1391 1.349 . S
C1407 H1399 0.950 . S
C1407 C1405 1.327 . S
C1408 C1396 1.349 . S
C1408 H1402 0.950 . S
C1408 C1409 1.327 . S
C1409 H1403 0.950 . S
C1409 C1408 1.327 . S
C1409 C1413 1.429 . S
C1410 C1393 1.574 . S
C1410 H1404 0.949 . S
C1410 C1414 1.368 . S
C1411 C1392 1.429 . S
C1411 C1405 1.429 . S
C1411 C1412 1.523 . S
C1412 C1393 1.368 . S
C1412 C1406 1.368 . S
C1412 C1411 1.523 . S
C1413 C1397 1.429 . S
C1413 C1409 1.429 . S
C1413 C1414 1.523 . S
C1414 C1398 1.368 . S
C1414 C1410 1.368 . S
C1414 C1413 1.523 . S
H1415 C1390 0.950 . S
H1416 C1392 0.950 . S
H1417 C1393 0.949 . S
H1418 C1395 0.950 . S
H1419 C1397 0.950 . S
C1420 C1421 1.349 . S
C1420 C1422 1.327 . S
C1420 H1445 0.950 . S
C1421 C1420 1.349 . S
C1421 C1437 1.349 . S
C1422 C1420 1.327 . S
C1422 C1441 1.429 . S
C1422 H1446 0.950 . S
C1423 C1440 1.574 . S
C1423 C1442 1.368 . S
C1423 H1447 0.949 . S
H1424 C1428 0.949 . S
C1425 C1426 1.349 . S
C1425 C1427 1.327 . S
C1425 H1448 0.950 . S
C1426 C1425 1.349 . S
C1426 C1438 1.349 . S
C1427 C1425 1.327 . S
C1427 C1443 1.429 . S
C1427 H1449 0.950 . S
C1428 H1424 0.949 . S
C1428 C1436 1.574 . S
C1428 C1444 1.368 . S
H1429 C1437 0.950 . S
H1430 C1435 0.950 . S
H1431 C1436 0.949 . S
H1432 C1438 0.950 . S
H1433 C1439 0.950 . S
H1434 C1440 0.949 . S
C1435 H1430 0.950 . S
C1435 C1437 1.327 . S
C1435 C1441 1.429 . S
C1436 C1428 1.574 . S
C1436 H1431 0.949 . S
C1436 C1442 1.368 . S
C1437 C1421 1.349 . S
C1437 H1429 0.950 . S
C1437 C1435 1.327 . S
C1438 C1426 1.349 . S
C1438 H1432 0.950 . S
C1438 C1439 1.327 . S
C1439 H1433 0.950 . S
C1439 C1438 1.327 . S
C1439 C1443 1.429 . S
C1440 C1423 1.574 . S
C1440 H1434 0.949 . S
C1440 C1444 1.368 . S
C1441 C1422 1.429 . S
C1441 C1435 1.429 . S
C1441 C1442 1.523 . S
C1442 C1423 1.368 . S
C1442 C1436 1.368 . S
C1442 C1441 1.523 . S
C1443 C1427 1.429 . S
C1443 C1439 1.429 . S
C1443 C1444 1.523 . S
C1444 C1428 1.368 . S
C1444 C1440 1.368 . S
C1444 C1443 1.523 . S
H1445 C1420 0.950 . S
H1446 C1422 0.950 . S
H1447 C1423 0.949 . S
H1448 C1425 0.950 . S
H1449 C1427 0.950 . S
C1450 C1451 1.349 . S
C1450 C1452 1.327 . S
C1450 H1475 0.950 . S
C1451 C1450 1.349 . S
C1451 C1467 1.349 . S
C1452 C1450 1.327 . S
C1452 C1471 1.429 . S
C1452 H1476 0.950 . S
C1453 C1470 1.574 . S
C1453 C1472 1.368 . S
C1453 H1477 0.949 . S
H1454 C1458 0.949 . S
C1455 C1456 1.349 . S
C1455 C1457 1.327 . S
C1455 H1478 0.950 . S
C1456 C1455 1.349 . S
C1456 C1468 1.349 . S
C1457 C1455 1.327 . S
C1457 C1473 1.429 . S
C1457 H1479 0.950 . S
C1458 H1454 0.949 . S
C1458 C1466 1.574 . S
C1458 C1474 1.368 . S
H1459 C1467 0.950 . S
H1460 C1465 0.950 . S
H1461 C1466 0.949 . S
H1462 C1468 0.950 . S
H1463 C1469 0.950 . S
H1464 C1470 0.949 . S
C1465 H1460 0.950 . S
C1465 C1467 1.327 . S
C1465 C1471 1.429 . S
C1466 C1458 1.574 . S
C1466 H1461 0.949 . S
C1466 C1472 1.368 . S
C1467 C1451 1.349 . S
C1467 H1459 0.950 . S
C1467 C1465 1.327 . S
C1468 C1456 1.349 . S
C1468 H1462 0.950 . S
C1468 C1469 1.327 . S
C1469 H1463 0.950 . S
C1469 C1468 1.327 . S
C1469 C1473 1.429 . S
C1470 C1453 1.574 . S
C1470 H1464 0.949 . S
C1470 C1474 1.368 . S
C1471 C1452 1.429 . S
C1471 C1465 1.429 . S
C1471 C1472 1.523 . S
C1472 C1453 1.368 . S
C1472 C1466 1.368 . S
C1472 C1471 1.523 . S
C1473 C1457 1.429 . S
C1473 C1469 1.429 . S
C1473 C1474 1.523 . S
C1474 C1458 1.368 . S
C1474 C1470 1.368 . S
C1474 C1473 1.523 . S
H1475 C1450 0.950 . S
H1476 C1452 0.950 . S
H1477 C1453 0.949 . S
H1478 C1455 0.950 . S
H1479 C1457 0.950 . S
C1480 C1481 1.349 . S
C1480 C1482 1.327 . S
C1480 H1505 0.950 . S
C1481 C1480 1.349 . S
C1481 C1497 1.349 . S
C1482 C1480 1.327 . S
C1482 C1501 1.429 . S
C1482 H1506 0.950 . S
C1483 C1500 1.574 1_655 S
C1483 C1502 1.368 . S
C1483 H1507 0.949 . S
H1484 C1488 0.949 . S
C1485 C1486 1.349 . S
C1485 C1487 1.327 . S
C1485 H1508 0.950 . S
C1486 C1485 1.349 . S
C1486 C1498 1.349 . S
C1487 C1485 1.327 . S
C1487 C1503 1.429 . S
C1487 H1509 0.950 . S
C1488 H1484 0.949 . S
C1488 C1496 1.574 1_455 S
C1488 C1504 1.368 . S
H1489 C1497 0.950 . S
H1490 C1495 0.950 . S
H1491 C1496 0.949 . S
H1492 C1498 0.950 . S
H1493 C1499 0.950 . S
H1494 C1500 0.949 . S
C1495 H1490 0.950 . S
C1495 C1497 1.327 . S
C1495 C1501 1.429 . S
C1496 C1488 1.574 1_655 S
C1496 H1491 0.949 . S
C1496 C1502 1.368 . S
C1497 C1481 1.349 . S
C1497 H1489 0.950 . S
C1497 C1495 1.327 . S
C1498 C1486 1.349 . S
C1498 H1492 0.950 . S
C1498 C1499 1.327 . S
C1499 H1493 0.950 . S
C1499 C1498 1.327 . S
C1499 C1503 1.429 . S
C1500 C1483 1.574 1_455 S
C1500 H1494 0.949 . S
C1500 C1504 1.368 . S
C1501 C1482 1.429 . S
C1501 C1495 1.429 . S
C1501 C1502 1.523 . S
C1502 C1483 1.368 . S
C1502 C1496 1.368 . S
C1502 C1501 1.523 . S
C1503 C1487 1.429 . S
C1503 C1499 1.429 . S
C1503 C1504 1.523 . S
C1504 C1488 1.368 . S
C1504 C1500 1.368 . S
C1504 C1503 1.523 . S
H1505 C1480 0.950 . S
H1506 C1482 0.950 . S
H1507 C1483 0.949 . S
H1508 C1485 0.950 . S
H1509 C1487 0.950 . S
C1510 C1511 1.349 . S
C1510 C1512 1.327 . S
C1510 H1535 0.950 . S
C1511 C1510 1.349 . S
C1511 C1527 1.349 . S
C1512 C1510 1.327 . S
C1512 C1531 1.429 . S
C1512 H1536 0.950 . S
C1513 C1530 1.574 . S
C1513 C1532 1.368 . S
C1513 H1537 0.949 . S
H1514 C1518 0.949 . S
C1515 C1516 1.349 . S
C1515 C1517 1.327 . S
C1515 H1538 0.950 . S
C1516 C1515 1.349 . S
C1516 C1528 1.349 . S
C1517 C1515 1.327 . S
C1517 C1533 1.429 . S
C1517 H1539 0.950 . S
C1518 H1514 0.949 . S
C1518 C1526 1.574 . S
C1518 C1534 1.368 . S
H1519 C1527 0.950 . S
H1520 C1525 0.950 . S
H1521 C1526 0.949 . S
H1522 C1528 0.950 . S
H1523 C1529 0.950 . S
H1524 C1530 0.949 . S
C1525 H1520 0.950 . S
C1525 C1527 1.327 . S
C1525 C1531 1.429 . S
C1526 C1518 1.574 . S
C1526 H1521 0.949 . S
C1526 C1532 1.368 . S
C1527 C1511 1.349 . S
C1527 H1519 0.950 . S
C1527 C1525 1.327 . S
C1528 C1516 1.349 . S
C1528 H1522 0.950 . S
C1528 C1529 1.327 . S
C1529 H1523 0.950 . S
C1529 C1528 1.327 . S
C1529 C1533 1.429 . S
C1530 C1513 1.574 . S
C1530 H1524 0.949 . S
C1530 C1534 1.368 . S
C1531 C1512 1.429 . S
C1531 C1525 1.429 . S
C1531 C1532 1.523 . S
C1532 C1513 1.368 . S
C1532 C1526 1.368 . S
C1532 C1531 1.523 . S
C1533 C1517 1.429 . S
C1533 C1529 1.429 . S
C1533 C1534 1.523 . S
C1534 C1518 1.368 . S
C1534 C1530 1.368 . S
C1534 C1533 1.523 . S
H1535 C1510 0.950 . S
H1536 C1512 0.950 . S
H1537 C1513 0.949 . S
H1538 C1515 0.950 . S
H1539 C1517 0.950 . S
C1540 C1541 1.349 . S
C1540 C1542 1.327 . S
C1540 H1565 0.950 . S
C1541 C1540 1.349 . S
C1541 C1557 1.349 . S
C1542 C1540 1.327 . S
C1542 C1561 1.429 . S
C1542 H1566 0.950 . S
C1543 C1560 1.574 . S
C1543 C1562 1.368 . S
C1543 H1567 0.949 . S
H1544 C1548 0.949 . S
C1545 C1546 1.349 . S
C1545 C1547 1.327 . S
C1545 H1568 0.950 . S
C1546 C1545 1.349 . S
C1546 C1558 1.349 . S
C1547 C1545 1.327 . S
C1547 C1563 1.429 . S
C1547 H1569 0.950 . S
C1548 H1544 0.949 . S
C1548 C1556 1.574 . S
C1548 C1564 1.368 . S
H1549 C1557 0.950 . S
H1550 C1555 0.950 . S
H1551 C1556 0.949 . S
H1552 C1558 0.950 . S
H1553 C1559 0.950 . S
H1554 C1560 0.949 . S
C1555 H1550 0.950 . S
C1555 C1557 1.327 . S
C1555 C1561 1.429 . S
C1556 C1548 1.574 . S
C1556 H1551 0.949 . S
C1556 C1562 1.368 . S
C1557 C1541 1.349 . S
C1557 H1549 0.950 . S
C1557 C1555 1.327 . S
C1558 C1546 1.349 . S
C1558 H1552 0.950 . S
C1558 C1559 1.327 . S
C1559 H1553 0.950 . S
C1559 C1558 1.327 . S
C1559 C1563 1.429 . S
C1560 C1543 1.574 . S
C1560 H1554 0.949 . S
C1560 C1564 1.368 . S
C1561 C1542 1.429 . S
C1561 C1555 1.429 . S
C1561 C1562 1.523 . S
C1562 C1543 1.368 . S
C1562 C1556 1.368 . S
C1562 C1561 1.523 . S
C1563 C1547 1.429 . S
C1563 C1559 1.429 . S
C1563 C1564 1.523 . S
C1564 C1548 1.368 . S
C1564 C1560 1.368 . S
C1564 C1563 1.523 . S
H1565 C1540 0.950 . S
H1566 C1542 0.950 . S
H1567 C1543 0.949 . S
H1568 C1545 0.950 . S
H1569 C1547 0.950 . S
C1570 C1571 1.349 . S
C1570 C1572 1.327 . S
C1570 H1595 0.950 . S
C1571 C1570 1.349 . S
C1571 C1587 1.349 . S
C1572 C1570 1.327 . S
C1572 C1591 1.429 . S
C1572 H1596 0.950 . S
C1573 C1590 1.574 1_455 S
C1573 C1592 1.368 . S
C1573 H1597 0.949 . S
H1574 C1578 0.949 . S
C1575 C1576 1.349 . S
C1575 C1577 1.327 . S
C1575 H1598 0.950 . S
C1576 C1575 1.349 . S
C1576 C1588 1.349 . S
C1577 C1575 1.327 . S
C1577 C1593 1.429 . S
C1577 H1599 0.950 . S
C1578 H1574 0.949 . S
C1578 C1586 1.574 1_655 S
C1578 C1594 1.368 . S
H1579 C1587 0.950 . S
H1580 C1585 0.950 . S
H1581 C1586 0.949 . S
H1582 C1588 0.950 . S
H1583 C1589 0.950 . S
H1584 C1590 0.949 . S
C1585 H1580 0.950 . S
C1585 C1587 1.327 . S
C1585 C1591 1.429 . S
C1586 C1578 1.574 1_455 S
C1586 H1581 0.949 . S
C1586 C1592 1.368 . S
C1587 C1571 1.349 . S
C1587 H1579 0.950 . S
C1587 C1585 1.327 . S
C1588 C1576 1.349 . S
C1588 H1582 0.950 . S
C1588 C1589 1.327 . S
C1589 H1583 0.950 . S
C1589 C1588 1.327 . S
C1589 C1593 1.429 . S
C1590 C1573 1.574 1_655 S
C1590 H1584 0.949 . S
C1590 C1594 1.368 . S
C1591 C1572 1.429 . S
C1591 C1585 1.429 . S
C1591 C1592 1.523 . S
C1592 C1573 1.368 . S
C1592 C1586 1.368 . S
C1592 C1591 1.523 . S
C1593 C1577 1.429 . S
C1593 C1589 1.429 . S
C1593 C1594 1.523 . S
C1594 C1578 1.368 . S
C1594 C1590 1.368 . S
C1594 C1593 1.523 . S
H1595 C1570 0.950 . S
H1596 C1572 0.950 . S
H1597 C1573 0.949 . S
H1598 C1575 0.950 . S
H1599 C1577 0.950 . S
C1600 C1601 1.349 . S
C1600 C1602 1.327 . S
C1600 H1625 0.950 . S
C1601 C1600 1.349 . S
C1601 C1617 1.349 . S
C1602 C1600 1.327 . S
C1602 C1621 1.429 . S
C1602 H1626 0.950 . S
C1603 C1620 1.574 . S
C1603 C1622 1.368 1_556 S
C1603 H1627 0.949 . S
H1604 C1608 0.949 . S
C1605 C1606 1.349 . S
C1605 C1607 1.327 . S
C1605 H1628 0.950 . S
C1606 C1605 1.349 . S
C1606 C1618 1.349 . S
C1607 C1605 1.327 . S
C1607 C1623 1.429 . S
C1607 H1629 0.950 . S
C1608 H1604 0.949 . S
C1608 C1616 1.574 . S
C1608 C1624 1.368 1_554 S
H1609 C1617 0.950 . S
H1610 C1615 0.950 1_556 S
H1611 C1616 0.949 . S
H1612 C1618 0.950 . S
H1613 C1619 0.950 1_554 S
H1614 C1620 0.949 . S
C1615 H1610 0.950 1_554 S
C1615 C1617 1.327 . S
C1615 C1621 1.429 . S
C1616 C1608 1.574 . S
C1616 H1611 0.949 . S
C1616 C1622 1.368 . S
C1617 C1601 1.349 . S
C1617 H1609 0.950 . S
C1617 C1615 1.327 . S
C1618 C1606 1.349 . S
C1618 H1612 0.950 . S
C1618 C1619 1.327 . S
C1619 H1613 0.950 1_556 S
C1619 C1618 1.327 . S
C1619 C1623 1.429 . S
C1620 C1603 1.574 . S
C1620 H1614 0.949 . S
C1620 C1624 1.368 . S
C1621 C1602 1.429 . S
C1621 C1615 1.429 . S
C1621 C1622 1.523 . S
C1622 C1603 1.368 1_554 S
C1622 C1616 1.368 . S
C1622 C1621 1.523 . S
C1623 C1607 1.429 . S
C1623 C1619 1.429 . S
C1623 C1624 1.523 . S
C1624 C1608 1.368 1_556 S
C1624 C1620 1.368 . S
C1624 C1623 1.523 . S
H1625 C1600 0.950 . S
H1626 C1602 0.950 . S
H1627 C1603 0.949 . S
H1628 C1605 0.950 . S
H1629 C1607 0.950 . S
C1630 C1631 1.349 . S
C1630 C1632 1.327 . S
C1630 H1655 0.950 . S
C1631 C1630 1.349 . S
C1631 C1647 1.349 . S
C1632 C1630 1.327 . S
C1632 C1651 1.429 . S
C1632 H1656 0.950 . S
C1633 C1650 1.574 . S
C1633 C1652 1.368 . S
C1633 H1657 0.949 . S
H1634 C1638 0.949 . S
C1635 C1636 1.349 . S
C1635 C1637 1.327 . S
C1635 H1658 0.950 . S
C1636 C1635 1.349 . S
C1636 C1648 1.349 . S
C1637 C1635 1.327 . S
C1637 C1653 1.429 . S
C1637 H1659 0.950 . S
C1638 H1634 0.949 . S
C1638 C1646 1.574 . S
C1638 C1654 1.368 . S
H1639 C1647 0.950 . S
H1640 C1645 0.950 . S
H1641 C1646 0.949 . S
H1642 C1648 0.950 . S
H1643 C1649 0.950 . S
H1644 C1650 0.949 . S
C1645 H1640 0.950 . S
C1645 C1647 1.327 . S
C1645 C1651 1.429 . S
C1646 C1638 1.574 . S
C1646 H1641 0.949 . S
C1646 C1652 1.368 . S
C1647 C1631 1.349 . S
C1647 H1639 0.950 . S
C1647 C1645 1.327 . S
C1648 C1636 1.349 . S
C1648 H1642 0.950 . S
C1648 C1649 1.327 . S
C1649 H1643 0.950 . S
C1649 C1648 1.327 . S
C1649 C1653 1.429 . S
C1650 C1633 1.574 . S
C1650 H1644 0.949 . S
C1650 C1654 1.368 . S
C1651 C1632 1.429 . S
C1651 C1645 1.429 . S
C1651 C1652 1.523 . S
C1652 C1633 1.368 . S
C1652 C1646 1.368 . S
C1652 C1651 1.523 . S
C1653 C1637 1.429 . S
C1653 C1649 1.429 . S
C1653 C1654 1.523 . S
C1654 C1638 1.368 . S
C1654 C1650 1.368 . S
C1654 C1653 1.523 . S
H1655 C1630 0.950 . S
H1656 C1632 0.950 . S
H1657 C1633 0.949 . S
H1658 C1635 0.950 . S
H1659 C1637 0.950 . S
C1660 C1661 1.349 . S
C1660 C1662 1.327 . S
C1660 H1685 0.950 . S
C1661 C1660 1.349 . S
C1661 C1677 1.349 . S
C1662 C1660 1.327 . S
C1662 C1681 1.429 . S
C1662 H1686 0.950 . S
C1663 C1680 1.574 . S
C1663 C1682 1.368 . S
C1663 H1687 0.949 . S
H1664 C1668 0.949 . S
C1665 C1666 1.349 . S
C1665 C1667 1.327 . S
C1665 H1688 0.950 . S
C1666 C1665 1.349 . S
C1666 C1678 1.349 . S
C1667 C1665 1.327 . S
C1667 C1683 1.429 . S
C1667 H1689 0.950 . S
C1668 H1664 0.949 . S
C1668 C1676 1.574 . S
C1668 C1684 1.368 . S
H1669 C1677 0.950 . S
H1670 C1675 0.950 . S
H1671 C1676 0.949 . S
H1672 C1678 0.950 . S
H1673 C1679 0.950 . S
H1674 C1680 0.949 . S
C1675 H1670 0.950 . S
C1675 C1677 1.327 . S
C1675 C1681 1.429 . S
C1676 C1668 1.574 . S
C1676 H1671 0.949 . S
C1676 C1682 1.368 . S
C1677 C1661 1.349 . S
C1677 H1669 0.950 . S
C1677 C1675 1.327 . S
C1678 C1666 1.349 . S
C1678 H1672 0.950 . S
C1678 C1679 1.327 . S
C1679 H1673 0.950 . S
C1679 C1678 1.327 . S
C1679 C1683 1.429 . S
C1680 C1663 1.574 . S
C1680 H1674 0.949 . S
C1680 C1684 1.368 . S
C1681 C1662 1.429 . S
C1681 C1675 1.429 . S
C1681 C1682 1.523 . S
C1682 C1663 1.368 . S
C1682 C1676 1.368 . S
C1682 C1681 1.523 . S
C1683 C1667 1.429 . S
C1683 C1679 1.429 . S
C1683 C1684 1.523 . S
C1684 C1668 1.368 . S
C1684 C1680 1.368 . S
C1684 C1683 1.523 . S
H1685 C1660 0.950 . S
H1686 C1662 0.950 . S
H1687 C1663 0.949 . S
H1688 C1665 0.950 . S
H1689 C1667 0.950 . S
C1690 C1691 1.349 . S
C1690 C1692 1.327 . S
C1690 H1715 0.950 . S
C1691 C1690 1.349 . S
C1691 C1707 1.349 . S
C1692 C1690 1.327 . S
C1692 C1711 1.429 . S
C1692 H1716 0.950 . S
C1693 C1710 1.574 . S
C1693 C1712 1.368 . S
C1693 H1717 0.949 . S
H1694 C1698 0.949 . S
C1695 C1696 1.349 . S
C1695 C1697 1.327 . S
C1695 H1718 0.950 . S
C1696 C1695 1.349 . S
C1696 C1708 1.349 . S
C1697 C1695 1.327 . S
C1697 C1713 1.429 . S
C1697 H1719 0.950 . S
C1698 H1694 0.949 . S
C1698 C1706 1.574 . S
C1698 C1714 1.368 . S
H1699 C1707 0.950 . S
H1700 C1705 0.950 . S
H1701 C1706 0.949 . S
H1702 C1708 0.950 . S
H1703 C1709 0.950 . S
H1704 C1710 0.949 . S
C1705 H1700 0.950 . S
C1705 C1707 1.327 . S
C1705 C1711 1.429 . S
C1706 C1698 1.574 . S
C1706 H1701 0.949 . S
C1706 C1712 1.368 . S
C1707 C1691 1.349 . S
C1707 H1699 0.950 . S
C1707 C1705 1.327 . S
C1708 C1696 1.349 . S
C1708 H1702 0.950 . S
C1708 C1709 1.327 . S
C1709 H1703 0.950 . S
C1709 C1708 1.327 . S
C1709 C1713 1.429 . S
C1710 C1693 1.574 . S
C1710 H1704 0.949 . S
C1710 C1714 1.368 . S
C1711 C1692 1.429 . S
C1711 C1705 1.429 . S
C1711 C1712 1.523 . S
C1712 C1693 1.368 . S
C1712 C1706 1.368 . S
C1712 C1711 1.523 . S
C1713 C1697 1.429 . S
C1713 C1709 1.429 . S
C1713 C1714 1.523 . S
C1714 C1698 1.368 . S
C1714 C1710 1.368 . S
C1714 C1713 1.523 . S
H1715 C1690 0.950 . S
H1716 C1692 0.950 . S
H1717 C1693 0.949 . S
H1718 C1695 0.950 . S
H1719 C1697 0.950 . S
C1720 C1721 1.349 . S
C1720 C1722 1.327 . S
C1720 H1745 0.950 . S
C1721 C1720 1.349 . S
C1721 C1737 1.349 . S
C1722 C1720 1.327 . S
C1722 C1741 1.429 . S
C1722 H1746 0.950 . S
C1723 C1740 1.574 . S
C1723 C1742 1.368 1_556 S
C1723 H1747 0.949 . S
H1724 C1728 0.949 . S
C1725 C1726 1.349 . S
C1725 C1727 1.327 . S
C1725 H1748 0.950 . S
C1726 C1725 1.349 . S
C1726 C1738 1.349 . S
C1727 C1725 1.327 . S
C1727 C1743 1.429 . S
C1727 H1749 0.950 . S
C1728 H1724 0.949 . S
C1728 C1736 1.574 . S
C1728 C1744 1.368 1_554 S
H1729 C1737 0.950 . S
H1730 C1735 0.950 1_556 S
H1731 C1736 0.949 . S
H1732 C1738 0.950 . S
H1733 C1739 0.950 1_554 S
H1734 C1740 0.949 . S
C1735 H1730 0.950 1_554 S
C1735 C1737 1.327 . S
C1735 C1741 1.429 . S
C1736 C1728 1.574 . S
C1736 H1731 0.949 . S
C1736 C1742 1.368 . S
C1737 C1721 1.349 . S
C1737 H1729 0.950 . S
C1737 C1735 1.327 . S
C1738 C1726 1.349 . S
C1738 H1732 0.950 . S
C1738 C1739 1.327 . S
C1739 H1733 0.950 1_556 S
C1739 C1738 1.327 . S
C1739 C1743 1.429 . S
C1740 C1723 1.574 . S
C1740 H1734 0.949 . S
C1740 C1744 1.368 . S
C1741 C1722 1.429 . S
C1741 C1735 1.429 . S
C1741 C1742 1.523 . S
C1742 C1723 1.368 1_554 S
C1742 C1736 1.368 . S
C1742 C1741 1.523 . S
C1743 C1727 1.429 . S
C1743 C1739 1.429 . S
C1743 C1744 1.523 . S
C1744 C1728 1.368 1_556 S
C1744 C1740 1.368 . S
C1744 C1743 1.523 . S
H1745 C1720 0.950 . S
H1746 C1722 0.950 . S
H1747 C1723 0.949 . S
H1748 C1725 0.950 . S
H1749 C1727 0.950 . S
C1750 C1751 1.349 . S
C1750 C1752 1.327 . S
C1750 H1775 0.950 . S
C1751 C1750 1.349 . S
C1751 C1767 1.349 . S
C1752 C1750 1.327 . S
C1752 C1771 1.429 . S
C1752 H1776 0.950 . S
C1753 C1770 1.574 . S
C1753 C1772 1.368 . S
C1753 H1777 0.949 . S
H1754 C1758 0.949 . S
C1755 C1756 1.349 . S
C1755 C1757 1.327 . S
C1755 H1778 0.950 . S
C1756 C1755 1.349 . S
C1756 C1768 1.349 . S
C1757 C1755 1.327 . S
C1757 C1773 1.429 . S
C1757 H1779 0.950 . S
C1758 H1754 0.949 . S
C1758 C1766 1.574 . S
C1758 C1774 1.368 . S
H1759 C1767 0.950 . S
H1760 C1765 0.950 . S
H1761 C1766 0.949 . S
H1762 C1768 0.950 . S
H1763 C1769 0.950 . S
H1764 C1770 0.949 . S
C1765 H1760 0.950 . S
C1765 C1767 1.327 . S
C1765 C1771 1.429 . S
C1766 C1758 1.574 . S
C1766 H1761 0.949 . S
C1766 C1772 1.368 . S
C1767 C1751 1.349 . S
C1767 H1759 0.950 . S
C1767 C1765 1.327 . S
C1768 C1756 1.349 . S
C1768 H1762 0.950 . S
C1768 C1769 1.327 . S
C1769 H1763 0.950 . S
C1769 C1768 1.327 . S
C1769 C1773 1.429 . S
C1770 C1753 1.574 . S
C1770 H1764 0.949 . S
C1770 C1774 1.368 . S
C1771 C1752 1.429 . S
C1771 C1765 1.429 . S
C1771 C1772 1.523 . S
C1772 C1753 1.368 . S
C1772 C1766 1.368 . S
C1772 C1771 1.523 . S
C1773 C1757 1.429 . S
C1773 C1769 1.429 . S
C1773 C1774 1.523 . S
C1774 C1758 1.368 . S
C1774 C1770 1.368 . S
C1774 C1773 1.523 . S
H1775 C1750 0.950 . S
H1776 C1752 0.950 . S
H1777 C1753 0.949 . S
H1778 C1755 0.950 . S
H1779 C1757 0.950 . S
C1780 C1781 1.349 . S
C1780 C1782 1.327 . S
C1780 H1805 0.950 . S
C1781 C1780 1.349 . S
C1781 C1797 1.349 . S
C1782 C1780 1.327 . S
C1782 C1801 1.429 . S
C1782 H1806 0.950 . S
C1783 C1800 1.574 . S
C1783 C1802 1.368 . S
C1783 H1807 0.949 . S
H1784 C1788 0.949 . S
C1785 C1786 1.349 . S
C1785 C1787 1.327 . S
C1785 H1808 0.950 . S
C1786 C1785 1.349 . S
C1786 C1798 1.349 . S
C1787 C1785 1.327 . S
C1787 C1803 1.429 . S
C1787 H1809 0.950 . S
C1788 H1784 0.949 . S
C1788 C1796 1.574 . S
C1788 C1804 1.368 . S
H1789 C1797 0.950 . S
H1790 C1795 0.950 . S
H1791 C1796 0.949 . S
H1792 C1798 0.950 . S
H1793 C1799 0.950 . S
H1794 C1800 0.949 . S
C1795 H1790 0.950 . S
C1795 C1797 1.327 . S
C1795 C1801 1.429 . S
C1796 C1788 1.574 . S
C1796 H1791 0.949 . S
C1796 C1802 1.368 . S
C1797 C1781 1.349 . S
C1797 H1789 0.950 . S
C1797 C1795 1.327 . S
C1798 C1786 1.349 . S
C1798 H1792 0.950 . S
C1798 C1799 1.327 . S
C1799 H1793 0.950 . S
C1799 C1798 1.327 . S
C1799 C1803 1.429 . S
C1800 C1783 1.574 . S
C1800 H1794 0.949 . S
C1800 C1804 1.368 . S
C1801 C1782 1.429 . S
C1801 C1795 1.429 . S
C1801 C1802 1.523 . S
C1802 C1783 1.368 . S
C1802 C1796 1.368 . S
C1802 C1801 1.523 . S
C1803 C1787 1.429 . S
C1803 C1799 1.429 . S
C1803 C1804 1.523 . S
C1804 C1788 1.368 . S
C1804 C1800 1.368 . S
C1804 C1803 1.523 . S
H1805 C1780 0.950 . S
H1806 C1782 0.950 . S
H1807 C1783 0.949 . S
H1808 C1785 0.950 . S
H1809 C1787 0.950 . S
C1810 C1811 1.349 . S
C1810 C1812 1.327 . S
C1810 H1835 0.950 . S
C1811 C1810 1.349 . S
C1811 C1827 1.349 . S
C1812 C1810 1.327 . S
C1812 C1831 1.429 . S
C1812 H1836 0.950 . S
C1813 C1830 1.574 . S
C1813 C1832 1.368 . S
C1813 H1837 0.949 . S
H1814 C1818 0.949 . S
C1815 C1816 1.349 . S
C1815 C1817 1.327 . S
C1815 H1838 0.950 . S
C1816 C1815 1.349 . S
C1816 C1828 1.349 . S
C1817 C1815 1.327 . S
C1817 C1833 1.429 . S
C1817 H1839 0.950 . S
C1818 H1814 0.949 . S
C1818 C1826 1.574 . S
C1818 C1834 1.368 . S
H1819 C1827 0.950 . S
H1820 C1825 0.950 . S
H1821 C1826 0.949 . S
H1822 C1828 0.950 . S
H1823 C1829 0.950 . S
H1824 C1830 0.949 . S
C1825 H1820 0.950 . S
C1825 C1827 1.327 . S
C1825 C1831 1.429 . S
C1826 C1818 1.574 . S
C1826 H1821 0.949 . S
C1826 C1832 1.368 . S
C1827 C1811 1.349 . S
C1827 H1819 0.950 . S
C1827 C1825 1.327 . S
C1828 C1816 1.349 . S
C1828 H1822 0.950 . S
C1828 C1829 1.327 . S
C1829 H1823 0.950 . S
C1829 C1828 1.327 . S
C1829 C1833 1.429 . S
C1830 C1813 1.574 . S
C1830 H1824 0.949 . S
C1830 C1834 1.368 . S
C1831 C1812 1.429 . S
C1831 C1825 1.429 . S
C1831 C1832 1.523 . S
C1832 C1813 1.368 . S
C1832 C1826 1.368 . S
C1832 C1831 1.523 . S
C1833 C1817 1.429 . S
C1833 C1829 1.429 . S
C1833 C1834 1.523 . S
C1834 C1818 1.368 . S
C1834 C1830 1.368 . S
C1834 C1833 1.523 . S
H1835 C1810 0.950 . S
H1836 C1812 0.950 . S
H1837 C1813 0.949 . S
H1838 C1815 0.950 . S
H1839 C1817 0.950 . S
C1840 C1841 1.349 . S
C1840 C1842 1.327 . S
C1840 H1865 0.950 . S
C1841 C1840 1.349 . S
C1841 C1857 1.349 . S
C1842 C1840 1.327 . S
C1842 C1861 1.429 . S
C1842 H1866 0.950 . S
C1843 C1860 1.574 1_565 S
C1843 C1862 1.368 . S
C1843 H1867 0.949 . S
H1844 C1848 0.949 . S
C1845 C1846 1.349 . S
C1845 C1847 1.327 . S
C1845 H1868 0.950 . S
C1846 C1845 1.349 . S
C1846 C1858 1.349 . S
C1847 C1845 1.327 . S
C1847 C1863 1.429 . S
C1847 H1869 0.950 . S
C1848 H1844 0.949 . S
C1848 C1856 1.574 1_545 S
C1848 C1864 1.368 . S
H1849 C1857 0.950 . S
H1850 C1855 0.950 . S
H1851 C1856 0.949 . S
H1852 C1858 0.950 . S
H1853 C1859 0.950 . S
H1854 C1860 0.949 . S
C1855 H1850 0.950 . S
C1855 C1857 1.327 . S
C1855 C1861 1.429 . S
C1856 C1848 1.574 1_565 S
C1856 H1851 0.949 . S
C1856 C1862 1.368 . S
C1857 C1841 1.349 . S
C1857 H1849 0.950 . S
C1857 C1855 1.327 . S
C1858 C1846 1.349 . S
C1858 H1852 0.950 . S
C1858 C1859 1.327 . S
C1859 H1853 0.950 . S
C1859 C1858 1.327 . S
C1859 C1863 1.429 . S
C1860 C1843 1.574 1_545 S
C1860 H1854 0.949 . S
C1860 C1864 1.368 . S
C1861 C1842 1.429 . S
C1861 C1855 1.429 . S
C1861 C1862 1.523 . S
C1862 C1843 1.368 . S
C1862 C1856 1.368 . S
C1862 C1861 1.523 . S
C1863 C1847 1.429 . S
C1863 C1859 1.429 . S
C1863 C1864 1.523 . S
C1864 C1848 1.368 . S
C1864 C1860 1.368 . S
C1864 C1863 1.523 . S
H1865 C1840 0.950 . S
H1866 C1842 0.950 . S
H1867 C1843 0.949 . S
H1868 C1845 0.950 . S
H1869 C1847 0.950 . S
C1870 C1871 1.349 . S
C1870 C1872 1.327 . S
C1870 H1895 0.950 . S
C1871 C1870 1.349 . S
C1871 C1887 1.349 . S
C1872 C1870 1.327 . S
C1872 C1891 1.429 . S
C1872 H1896 0.950 . S
C1873 C1890 1.574 . S
C1873 C1892 1.368 . S
C1873 H1897 0.949 . S
H1874 C1878 0.949 . S
C1875 C1876 1.349 . S
C1875 C1877 1.327 . S
C1875 H1898 0.950 . S
C1876 C1875 1.349 . S
C1876 C1888 1.349 . S
C1877 C1875 1.327 . S
C1877 C1893 1.429 . S
C1877 H1899 0.950 . S
C1878 H1874 0.949 . S
C1878 C1886 1.574 . S
C1878 C1894 1.368 . S
H1879 C1887 0.950 . S
H1880 C1885 0.950 . S
H1881 C1886 0.949 . S
H1882 C1888 0.950 . S
H1883 C1889 0.950 . S
H1884 C1890 0.949 . S
C1885 H1880 0.950 . S
C1885 C1887 1.327 . S
C1885 C1891 1.429 . S
C1886 C1878 1.574 . S
C1886 H1881 0.949 . S
C1886 C1892 1.368 . S
C1887 C1871 1.349 . S
C1887 H1879 0.950 . S
C1887 C1885 1.327 . S
C1888 C1876 1.349 . S
C1888 H1882 0.950 . S
C1888 C1889 1.327 . S
C1889 H1883 0.950 . S
C1889 C1888 1.327 . S
C1889 C1893 1.429 . S
C1890 C1873 1.574 . S
C1890 H1884 0.949 . S
C1890 C1894 1.368 . S
C1891 C1872 1.429 . S
C1891 C1885 1.429 . S
C1891 C1892 1.523 . S
C1892 C1873 1.368 . S
C1892 C1886 1.368 . S
C1892 C1891 1.523 . S
C1893 C1877 1.429 . S
C1893 C1889 1.429 . S
C1893 C1894 1.523 . S
C1894 C1878 1.368 . S
C1894 C1890 1.368 . S
C1894 C1893 1.523 . S
H1895 C1870 0.950 . S
H1896 C1872 0.950 . S
H1897 C1873 0.949 . S
H1898 C1875 0.950 . S
H1899 C1877 0.950 . S
C1900 C1901 1.349 . S
C1900 C1902 1.327 . S
C1900 H1925 0.950 . S
C1901 C1900 1.349 . S
C1901 C1917 1.349 . S
C1902 C1900 1.327 . S
C1902 C1921 1.429 . S
C1902 H1926 0.950 1_554 S
C1903 C1920 1.574 . S
C1903 C1922 1.368 1_545 S
C1903 H1927 0.949 . S
H1904 C1908 0.949 . S
C1905 C1906 1.349 . S
C1905 C1907 1.327 . S
C1905 H1928 0.950 . S
C1906 C1905 1.349 . S
C1906 C1918 1.349 . S
C1907 C1905 1.327 . S
C1907 C1923 1.429 . S
C1907 H1929 0.950 1_556 S
C1908 H1904 0.949 . S
C1908 C1916 1.574 . S
C1908 C1924 1.368 1_565 S
H1909 C1917 0.950 . S
H1910 C1915 0.950 . S
H1911 C1916 0.949 . S
H1912 C1918 0.950 . S
H1913 C1919 0.950 . S
H1914 C1920 0.949 . S
C1915 H1910 0.950 . S
C1915 C1917 1.327 . S
C1915 C1921 1.429 . S
C1916 C1908 1.574 . S
C1916 H1911 0.949 . S
C1916 C1922 1.368 1_556 S
C1917 C1901 1.349 . S
C1917 H1909 0.950 . S
C1917 C1915 1.327 . S
C1918 C1906 1.349 . S
C1918 H1912 0.950 . S
C1918 C1919 1.327 . S
C1919 H1913 0.950 . S
C1919 C1918 1.327 . S
C1919 C1923 1.429 . S
C1920 C1903 1.574 . S
C1920 H1914 0.949 . S
C1920 C1924 1.368 1_554 S
C1921 C1902 1.429 . S
C1921 C1915 1.429 . S
C1921 C1922 1.523 . S
C1922 C1903 1.368 1_565 S
C1922 C1916 1.368 1_554 S
C1922 C1921 1.523 . S
C1923 C1907 1.429 . S
C1923 C1919 1.429 . S
C1923 C1924 1.523 . S
C1924 C1908 1.368 1_545 S
C1924 C1920 1.368 1_556 S
C1924 C1923 1.523 . S
H1925 C1900 0.950 . S
H1926 C1902 0.950 1_556 S
H1927 C1903 0.949 . S
H1928 C1905 0.950 . S
H1929 C1907 0.950 1_554 S
C1930 C1931 1.349 . S
C1930 C1932 1.327 . S
C1930 H1955 0.950 . S
C1931 C1930 1.349 . S
C1931 C1947 1.349 . S
C1932 C1930 1.327 . S
C1932 C1951 1.429 . S
C1932 H1956 0.950 . S
C1933 C1950 1.574 . S
C1933 C1952 1.368 . S
C1933 H1957 0.949 . S
H1934 C1938 0.949 . S
C1935 C1936 1.349 . S
C1935 C1937 1.327 . S
C1935 H1958 0.950 . S
C1936 C1935 1.349 . S
C1936 C1948 1.349 . S
C1937 C1935 1.327 . S
C1937 C1953 1.429 . S
C1937 H1959 0.950 . S
C1938 H1934 0.949 . S
C1938 C1946 1.574 . S
C1938 C1954 1.368 . S
H1939 C1947 0.950 . S
H1940 C1945 0.950 . S
H1941 C1946 0.949 . S
H1942 C1948 0.950 . S
H1943 C1949 0.950 . S
H1944 C1950 0.949 . S
C1945 H1940 0.950 . S
C1945 C1947 1.327 . S
C1945 C1951 1.429 . S
C1946 C1938 1.574 . S
C1946 H1941 0.949 . S
C1946 C1952 1.368 . S
C1947 C1931 1.349 . S
C1947 H1939 0.950 . S
C1947 C1945 1.327 . S
C1948 C1936 1.349 . S
C1948 H1942 0.950 . S
C1948 C1949 1.327 . S
C1949 H1943 0.950 . S
C1949 C1948 1.327 . S
C1949 C1953 1.429 . S
C1950 C1933 1.574 . S
C1950 H1944 0.949 . S
C1950 C1954 1.368 . S
C1951 C1932 1.429 . S
C1951 C1945 1.429 . S
C1951 C1952 1.523 . S
C1952 C1933 1.368 . S
C1952 C1946 1.368 . S
C1952 C1951 1.523 . S
C1953 C1937 1.429 . S
C1953 C1949 1.429 . S
C1953 C1954 1.523 . S
C1954 C1938 1.368 . S
C1954 C1950 1.368 . S
C1954 C1953 1.523 . S
H1955 C1930 0.950 . S
H1956 C1932 0.950 . S
H1957 C1933 0.949 . S
H1958 C1935 0.950 . S
H1959 C1937 0.950 . S
C1960 C1961 1.349 . S
C1960 C1962 1.327 . S
C1960 H1985 0.950 . S
C1961 C1960 1.349 . S
C1961 C1977 1.349 . S
C1962 C1960 1.327 . S
C1962 C1981 1.429 . S
C1962 H1986 0.950 . S
C1963 C1980 1.574 1_565 S
C1963 C1982 1.368 . S
C1963 H1987 0.949 . S
H1964 C1968 0.949 . S
C1965 C1966 1.349 . S
C1965 C1967 1.327 . S
C1965 H1988 0.950 . S
C1966 C1965 1.349 . S
C1966 C1978 1.349 . S
C1967 C1965 1.327 . S
C1967 C1983 1.429 . S
C1967 H1989 0.950 . S
C1968 H1964 0.949 . S
C1968 C1976 1.574 1_545 S
C1968 C1984 1.368 . S
H1969 C1977 0.950 . S
H1970 C1975 0.950 . S
H1971 C1976 0.949 . S
H1972 C1978 0.950 . S
H1973 C1979 0.950 . S
H1974 C1980 0.949 . S
C1975 H1970 0.950 . S
C1975 C1977 1.327 . S
C1975 C1981 1.429 . S
C1976 C1968 1.574 1_565 S
C1976 H1971 0.949 . S
C1976 C1982 1.368 . S
C1977 C1961 1.349 . S
C1977 H1969 0.950 . S
C1977 C1975 1.327 . S
C1978 C1966 1.349 . S
C1978 H1972 0.950 . S
C1978 C1979 1.327 . S
C1979 H1973 0.950 . S
C1979 C1978 1.327 . S
C1979 C1983 1.429 . S
C1980 C1963 1.574 1_545 S
C1980 H1974 0.949 . S
C1980 C1984 1.368 . S
C1981 C1962 1.429 . S
C1981 C1975 1.429 . S
C1981 C1982 1.523 . S
C1982 C1963 1.368 . S
C1982 C1976 1.368 . S
C1982 C1981 1.523 . S
C1983 C1967 1.429 . S
C1983 C1979 1.429 . S
C1983 C1984 1.523 . S
C1984 C1968 1.368 . S
C1984 C1980 1.368 . S
C1984 C1983 1.523 . S
H1985 C1960 0.950 . S
H1986 C1962 0.950 . S
H1987 C1963 0.949 . S
H1988 C1965 0.950 . S
H1989 C1967 0.950 . S
C1990 C1991 1.349 . S
C1990 C1992 1.327 . S
C1990 H2015 0.950 . S
C1991 C1990 1.349 . S
C1991 C2007 1.349 . S
C1992 C1990 1.327 . S
C1992 C2011 1.429 . S
C1992 H2016 0.950 . S
C1993 C2010 1.574 . S
C1993 C2012 1.368 . S
C1993 H2017 0.949 . S
H1994 C1998 0.949 . S
C1995 C1996 1.349 . S
C1995 C1997 1.327 . S
C1995 H2018 0.950 . S
C1996 C1995 1.349 . S
C1996 C2008 1.349 . S
C1997 C1995 1.327 . S
C1997 C2013 1.429 . S
C1997 H2019 0.950 . S
C1998 H1994 0.949 . S
C1998 C2006 1.574 . S
C1998 C2014 1.368 . S
H1999 C2007 0.950 . S
H2000 C2005 0.950 . S
H2001 C2006 0.949 . S
H2002 C2008 0.950 . S
H2003 C2009 0.950 . S
H2004 C2010 0.949 . S
C2005 H2000 0.950 . S
C2005 C2007 1.327 . S
C2005 C2011 1.429 . S
C2006 C1998 1.574 . S
C2006 H2001 0.949 . S
C2006 C2012 1.368 . S
C2007 C1991 1.349 . S
C2007 H1999 0.950 . S
C2007 C2005 1.327 . S
C2008 C1996 1.349 . S
C2008 H2002 0.950 . S
C2008 C2009 1.327 . S
C2009 H2003 0.950 . S
C2009 C2008 1.327 . S
C2009 C2013 1.429 . S
C2010 C1993 1.574 . S
C2010 H2004 0.949 . S
C2010 C2014 1.368 . S
C2011 C1992 1.429 . S
C2011 C2005 1.429 . S
C2011 C2012 1.523 . S
C2012 C1993 1.368 . S
C2012 C2006 1.368 . S
C2012 C2011 1.523 . S
C2013 C1997 1.429 . S
C2013 C2009 1.429 . S
C2013 C2014 1.523 . S
C2014 C1998 1.368 . S
C2014 C2010 1.368 . S
C2014 C2013 1.523 . S
H2015 C1990 0.950 . S
H2016 C1992 0.950 . S
H2017 C1993 0.949 . S
H2018 C1995 0.950 . S
H2019 C1997 0.950 . S
C2020 C2021 1.349 . S
C2020 C2022 1.327 . S
C2020 H2045 0.950 . S
C2021 C2020 1.349 . S
C2021 C2037 1.349 . S
C2022 C2020 1.327 . S
C2022 C2041 1.429 . S
C2022 H2046 0.950 . S
C2023 C2040 1.574 1_545 S
C2023 C2042 1.368 1_554 S
C2023 H2047 0.949 . S
H2024 C2028 0.949 . S
C2025 C2026 1.349 . S
C2025 C2027 1.327 . S
C2025 H2048 0.950 . S
C2026 C2025 1.349 . S
C2026 C2038 1.349 . S
C2027 C2025 1.327 . S
C2027 C2043 1.429 . S
C2027 H2049 0.950 . S
C2028 H2024 0.949 . S
C2028 C2036 1.574 1_565 S
C2028 C2044 1.368 1_556 S
H2029 C2037 0.950 . S
H2030 C2035 0.950 . S
H2031 C2036 0.949 . S
H2032 C2038 0.950 . S
H2033 C2039 0.950 . S
H2034 C2040 0.949 . S
C2035 H2030 0.950 . S
C2035 C2037 1.327 . S
C2035 C2041 1.429 . S
C2036 C2028 1.574 1_545 S
C2036 H2031 0.949 . S
C2036 C2042 1.368 . S
C2037 C2021 1.349 . S
C2037 H2029 0.950 . S
C2037 C2035 1.327 . S
C2038 C2026 1.349 . S
C2038 H2032 0.950 . S
C2038 C2039 1.327 . S
C2039 H2033 0.950 . S
C2039 C2038 1.327 . S
C2039 C2043 1.429 . S
C2040 C2023 1.574 1_565 S
C2040 H2034 0.949 . S
C2040 C2044 1.368 . S
C2041 C2022 1.429 . S
C2041 C2035 1.429 . S
C2041 C2042 1.523 . S
C2042 C2023 1.368 1_556 S
C2042 C2036 1.368 . S
C2042 C2041 1.523 . S
C2043 C2027 1.429 . S
C2043 C2039 1.429 . S
C2043 C2044 1.523 . S
C2044 C2028 1.368 1_554 S
C2044 C2040 1.368 . S
C2044 C2043 1.523 . S
H2045 C2020 0.950 . S
H2046 C2022 0.950 . S
H2047 C2023 0.949 . S
H2048 C2025 0.950 . S
H2049 C2027 0.950 . S
C2050 C2051 1.349 . S
C2050 C2052 1.327 . S
C2050 H2075 0.950 . S
C2051 C2050 1.349 . S
C2051 C2067 1.349 . S
C2052 C2050 1.327 . S
C2052 C2071 1.429 . S
C2052 H2076 0.950 . S
C2053 C2070 1.574 . S
C2053 C2072 1.368 . S
C2053 H2077 0.949 . S
H2054 C2058 0.949 . S
C2055 C2056 1.349 . S
C2055 C2057 1.327 . S
C2055 H2078 0.950 . S
C2056 C2055 1.349 . S
C2056 C2068 1.349 . S
C2057 C2055 1.327 . S
C2057 C2073 1.429 . S
C2057 H2079 0.950 . S
C2058 H2054 0.949 . S
C2058 C2066 1.574 . S
C2058 C2074 1.368 . S
H2059 C2067 0.950 . S
H2060 C2065 0.950 . S
H2061 C2066 0.949 . S
H2062 C2068 0.950 . S
H2063 C2069 0.950 . S
H2064 C2070 0.949 . S
C2065 H2060 0.950 . S
C2065 C2067 1.327 . S
C2065 C2071 1.429 . S
C2066 C2058 1.574 . S
C2066 H2061 0.949 . S
C2066 C2072 1.368 . S
C2067 C2051 1.349 . S
C2067 H2059 0.950 . S
C2067 C2065 1.327 . S
C2068 C2056 1.349 . S
C2068 H2062 0.950 . S
C2068 C2069 1.327 . S
C2069 H2063 0.950 . S
C2069 C2068 1.327 . S
C2069 C2073 1.429 . S
C2070 C2053 1.574 . S
C2070 H2064 0.949 . S
C2070 C2074 1.368 . S
C2071 C2052 1.429 . S
C2071 C2065 1.429 . S
C2071 C2072 1.523 . S
C2072 C2053 1.368 . S
C2072 C2066 1.368 . S
C2072 C2071 1.523 . S
C2073 C2057 1.429 . S
C2073 C2069 1.429 . S
C2073 C2074 1.523 . S
C2074 C2058 1.368 . S
C2074 C2070 1.368 . S
C2074 C2073 1.523 . S
H2075 C2050 0.950 . S
H2076 C2052 0.950 . S
H2077 C2053 0.949 . S
H2078 C2055 0.950 . S
H2079 C2057 0.950 . S
C641 C6 1.856 . S
C646 C15 1.856 . S
C671 C55 1.856 . S
C676 C46 1.856 . S
C701 C95 1.524 . S
C706 C86 1.524 . S
C731 C126 1.524 . S
C736 C135 1.524 . S
C761 C166 1.856 . S
C766 C175 1.856 . S
C791 C215 1.524 . S
C796 C206 1.524 . S
C821 C255 1.524 . S
C826 C246 1.524 . S
C851 C295 1.856 . S
C856 C286 1.856 . S
C881 C335 1.856 . S
C886 C326 1.856 . S
C911 C375 1.856 . S
C916 C366 1.856 . S
C941 C415 1.524 . S
C946 C406 1.524 . S
C971 C455 1.524 . S
C976 C446 1.524 . S
C1001 C495 1.856 . S
C1006 C486 1.856 . S
C1031 C535 1.524 . S
C1036 C526 1.524 . S
C1061 C566 1.524 . S
C1066 C575 1.524 . S
C1091 C606 1.856 . S
C1096 C615 1.856 . S
C1121 C9 1.640 . S
C1126 C459 1.712 . S
C1151 C50 1.658 . S
C1156 C619 1.658 . S
C1181 C90 1.712 . S
C1186 C378 1.640 . S
C1211 C129 1.771 . S
C1216 C538 1.771 . S
C1241 C169 1.640 . S
C1246 C539 1.712 . S
C1271 C458 1.771 . S
C1276 C209 1.771 . S
C1301 C250 1.712 . S
C1306 C618 1.640 . S
C1331 C290 1.658 . S
C1336 C379 1.658 . S
C1361 C130 1.712 . S
C1366 C338 1.640 . S
C1391 C49 1.640 . S
C1396 C419 1.712 . S
C1421 C498 1.640 . S
C1426 C210 1.712 . S
C1451 C289 1.640 . S
C1456 C579 1.712 . S
C1481 C339 1.658 . S
C1486 C170 1.658 . S
C1511 C249 1.771 . S
C1516 C418 1.771 . S
C1541 C89 1.771 . S
C1546 C578 1.771 . S
C1571 C10 1.658 . S
C1576 C499 1.658 . S
C1601 C18 1.214 . S
C1606 C178 1.214 . S
C1631 C59 1.704 . S
C1636 C218 1.702 . S
C1661 C99 2.127 . S
C1666 C259 2.127 . S
C1691 C138 1.702 . S
C1696 C299 1.704 . S
C1721 C489 1.214 . S
C1726 C329 1.214 . S
C1751 C529 1.702 . S
C1756 C370 1.704 . S
C1781 C410 2.127 . S
C1786 C570 2.127 . S
C1811 C610 1.704 . S
C1816 C449 1.702 . S
C1841 C58 1.214 . S
C1846 C298 1.214 . S
C1871 C179 1.704 . S
C1876 C98 1.702 . S
C1901 C219 2.127 . S
C1906 C139 2.127 . S
C1931 C19 1.704 . S
C1936 C258 1.702 . S
C1961 C609 1.214 . S
C1966 C369 1.214 . S
C1991 C490 1.704 . S
C1996 C409 1.702 . S
C2021 C530 2.127 . S
C2026 C450 2.127 . S
C2051 C569 1.702 . S
C2056 C330 1.704 . S
