# Generated by pormake.
# Topology wle, (5)-cn, num edge types: 1
# Building blocks:
#     Node 0, Type 0, BuildingBlock: BEQFEK_clean_sbu_0, # of connection points: 5
#     Node 1, Type 0, BuildingBlock: BEQFEK_clean_sbu_0, # of connection points: 5
#     Node 2, Type 0, BuildingBlock: BEQFEK_clean_sbu_0, # of connection points: 5
#     Node 3, Type 0, BuildingBlock: BEQFEK_clean_sbu_0, # of connection points: 5
#     Node 4, Type 0, BuildingBlock: BEQFEK_clean_sbu_0, # of connection points: 5
#     Node 5, Type 0, BuildingBlock: BEQFEK_clean_sbu_0, # of connection points: 5
#     Node 6, Type 0, BuildingBlock: BEQFEK_clean_sbu_0, # of connection points: 5
#     Node 7, Type 0, BuildingBlock: BEQFEK_clean_sbu_0, # of connection points: 5
#     Node 8, Type 0, BuildingBlock: BEQFEK_clean_sbu_0, # of connection points: 5
#     Node 9, Type 0, BuildingBlock: BEQFEK_clean_sbu_0, # of connection points: 5
#     Node 10, Type 0, BuildingBlock: BEQFEK_clean_sbu_0, # of connection points: 5
#     Node 11, Type 0, BuildingBlock: BEQFEK_clean_sbu_0, # of connection points: 5
#     Node 12, Type 0, BuildingBlock: BEQFEK_clean_sbu_0, # of connection points: 5
#     Node 13, Type 0, BuildingBlock: BEQFEK_clean_sbu_0, # of connection points: 5
#     Node 14, Type 0, BuildingBlock: BEQFEK_clean_sbu_0, # of connection points: 5
#     Node 15, Type 0, BuildingBlock: BEQFEK_clean_sbu_0, # of connection points: 5
#     Node 16, Type 0, BuildingBlock: BEQFEK_clean_sbu_0, # of connection points: 5
#     Node 17, Type 0, BuildingBlock: BEQFEK_clean_sbu_0, # of connection points: 5
#     Node 18, Type 0, BuildingBlock: BEQFEK_clean_sbu_0, # of connection points: 5
#     Node 19, Type 0, BuildingBlock: BEQFEK_clean_sbu_0, # of connection points: 5
#     Node 20, Type 0, BuildingBlock: BEQFEK_clean_sbu_0, # of connection points: 5
#     Node 21, Type 0, BuildingBlock: BEQFEK_clean_sbu_0, # of connection points: 5
#     Node 22, Type 0, BuildingBlock: BEQFEK_clean_sbu_0, # of connection points: 5
#     Node 23, Type 0, BuildingBlock: BEQFEK_clean_sbu_0, # of connection points: 5
#     Node 24, Type 0, BuildingBlock: BEQFEK_clean_sbu_0, # of connection points: 5
#     Node 25, Type 0, BuildingBlock: BEQFEK_clean_sbu_0, # of connection points: 5
#     Node 26, Type 0, BuildingBlock: BEQFEK_clean_sbu_0, # of connection points: 5
#     Node 27, Type 0, BuildingBlock: BEQFEK_clean_sbu_0, # of connection points: 5
#     Node 28, Type 0, BuildingBlock: BEQFEK_clean_sbu_0, # of connection points: 5
#     Node 29, Type 0, BuildingBlock: BEQFEK_clean_sbu_0, # of connection points: 5
#     Node 30, Type 0, BuildingBlock: BEQFEK_clean_sbu_0, # of connection points: 5
#     Node 31, Type 0, BuildingBlock: BEQFEK_clean_sbu_0, # of connection points: 5
#     Node 32, Type 0, BuildingBlock: BEQFEK_clean_sbu_0, # of connection points: 5
#     Node 33, Type 0, BuildingBlock: BEQFEK_clean_sbu_0, # of connection points: 5
#     Node 34, Type 0, BuildingBlock: BEQFEK_clean_sbu_0, # of connection points: 5
#     Node 35, Type 0, BuildingBlock: BEQFEK_clean_sbu_0, # of connection points: 5
#     Edge 36, Type (0, 0), BuildingBlock: CIFDUS_clean_linker_0, # of connection points: 2
#     Edge 37, Type (0, 0), BuildingBlock: CIFDUS_clean_linker_0, # of connection points: 2
#     Edge 38, Type (0, 0), BuildingBlock: CIFDUS_clean_linker_0, # of connection points: 2
#     Edge 39, Type (0, 0), BuildingBlock: CIFDUS_clean_linker_0, # of connection points: 2
#     Edge 40, Type (0, 0), BuildingBlock: CIFDUS_clean_linker_0, # of connection points: 2
#     Edge 41, Type (0, 0), BuildingBlock: CIFDUS_clean_linker_0, # of connection points: 2
#     Edge 42, Type (0, 0), BuildingBlock: CIFDUS_clean_linker_0, # of connection points: 2
#     Edge 43, Type (0, 0), BuildingBlock: CIFDUS_clean_linker_0, # of connection points: 2
#     Edge 44, Type (0, 0), BuildingBlock: CIFDUS_clean_linker_0, # of connection points: 2
#     Edge 45, Type (0, 0), BuildingBlock: CIFDUS_clean_linker_0, # of connection points: 2
#     Edge 46, Type (0, 0), BuildingBlock: CIFDUS_clean_linker_0, # of connection points: 2
#     Edge 47, Type (0, 0), BuildingBlock: CIFDUS_clean_linker_0, # of connection points: 2
#     Edge 48, Type (0, 0), BuildingBlock: CIFDUS_clean_linker_0, # of connection points: 2
#     Edge 49, Type (0, 0), BuildingBlock: CIFDUS_clean_linker_0, # of connection points: 2
#     Edge 50, Type (0, 0), BuildingBlock: CIFDUS_clean_linker_0, # of connection points: 2
#     Edge 51, Type (0, 0), BuildingBlock: CIFDUS_clean_linker_0, # of connection points: 2
#     Edge 52, Type (0, 0), BuildingBlock: CIFDUS_clean_linker_0, # of connection points: 2
#     Edge 53, Type (0, 0), BuildingBlock: CIFDUS_clean_linker_0, # of connection points: 2
#     Edge 54, Type (0, 0), BuildingBlock: CIFDUS_clean_linker_0, # of connection points: 2
#     Edge 55, Type (0, 0), BuildingBlock: CIFDUS_clean_linker_0, # of connection points: 2
#     Edge 56, Type (0, 0), BuildingBlock: CIFDUS_clean_linker_0, # of connection points: 2
#     Edge 57, Type (0, 0), BuildingBlock: CIFDUS_clean_linker_0, # of connection points: 2
#     Edge 58, Type (0, 0), BuildingBlock: CIFDUS_clean_linker_0, # of connection points: 2
#     Edge 59, Type (0, 0), BuildingBlock: CIFDUS_clean_linker_0, # of connection points: 2
#     Edge 60, Type (0, 0), BuildingBlock: CIFDUS_clean_linker_0, # of connection points: 2
#     Edge 61, Type (0, 0), BuildingBlock: CIFDUS_clean_linker_0, # of connection points: 2
#     Edge 62, Type (0, 0), BuildingBlock: CIFDUS_clean_linker_0, # of connection points: 2
#     Edge 63, Type (0, 0), BuildingBlock: CIFDUS_clean_linker_0, # of connection points: 2
#     Edge 64, Type (0, 0), BuildingBlock: CIFDUS_clean_linker_0, # of connection points: 2
#     Edge 65, Type (0, 0), BuildingBlock: CIFDUS_clean_linker_0, # of connection points: 2
#     Edge 66, Type (0, 0), BuildingBlock: CIFDUS_clean_linker_0, # of connection points: 2
#     Edge 67, Type (0, 0), BuildingBlock: CIFDUS_clean_linker_0, # of connection points: 2
#     Edge 68, Type (0, 0), BuildingBlock: CIFDUS_clean_linker_0, # of connection points: 2
#     Edge 69, Type (0, 0), BuildingBlock: CIFDUS_clean_linker_0, # of connection points: 2
#     Edge 70, Type (0, 0), BuildingBlock: CIFDUS_clean_linker_0, # of connection points: 2
#     Edge 71, Type (0, 0), BuildingBlock: CIFDUS_clean_linker_0, # of connection points: 2
#     Edge 72, Type (0, 0), BuildingBlock: CIFDUS_clean_linker_0, # of connection points: 2
#     Edge 73, Type (0, 0), BuildingBlock: CIFDUS_clean_linker_0, # of connection points: 2
#     Edge 74, Type (0, 0), BuildingBlock: CIFDUS_clean_linker_0, # of connection points: 2
#     Edge 75, Type (0, 0), BuildingBlock: CIFDUS_clean_linker_0, # of connection points: 2
#     Edge 76, Type (0, 0), BuildingBlock: CIFDUS_clean_linker_0, # of connection points: 2
#     Edge 77, Type (0, 0), BuildingBlock: CIFDUS_clean_linker_0, # of connection points: 2
#     Edge 78, Type (0, 0), BuildingBlock: CIFDUS_clean_linker_0, # of connection points: 2
#     Edge 79, Type (0, 0), BuildingBlock: CIFDUS_clean_linker_0, # of connection points: 2
#     Edge 80, Type (0, 0), BuildingBlock: CIFDUS_clean_linker_0, # of connection points: 2
#     Edge 81, Type (0, 0), BuildingBlock: CIFDUS_clean_linker_0, # of connection points: 2
#     Edge 82, Type (0, 0), BuildingBlock: CIFDUS_clean_linker_0, # of connection points: 2
#     Edge 83, Type (0, 0), BuildingBlock: CIFDUS_clean_linker_0, # of connection points: 2
#     Edge 84, Type (0, 0), BuildingBlock: CIFDUS_clean_linker_0, # of connection points: 2
#     Edge 85, Type (0, 0), BuildingBlock: CIFDUS_clean_linker_0, # of connection points: 2
#     Edge 86, Type (0, 0), BuildingBlock: CIFDUS_clean_linker_0, # of connection points: 2
#     Edge 87, Type (0, 0), BuildingBlock: CIFDUS_clean_linker_0, # of connection points: 2
#     Edge 88, Type (0, 0), BuildingBlock: CIFDUS_clean_linker_0, # of connection points: 2
#     Edge 89, Type (0, 0), BuildingBlock: CIFDUS_clean_linker_0, # of connection points: 2
#     Edge 90, Type (0, 0), BuildingBlock: CIFDUS_clean_linker_0, # of connection points: 2
#     Edge 91, Type (0, 0), BuildingBlock: CIFDUS_clean_linker_0, # of connection points: 2
#     Edge 92, Type (0, 0), BuildingBlock: CIFDUS_clean_linker_0, # of connection points: 2
#     Edge 93, Type (0, 0), BuildingBlock: CIFDUS_clean_linker_0, # of connection points: 2
#     Edge 94, Type (0, 0), BuildingBlock: CIFDUS_clean_linker_0, # of connection points: 2
#     Edge 95, Type (0, 0), BuildingBlock: CIFDUS_clean_linker_0, # of connection points: 2
#     Edge 96, Type (0, 0), BuildingBlock: CIFDUS_clean_linker_0, # of connection points: 2
#     Edge 97, Type (0, 0), BuildingBlock: CIFDUS_clean_linker_0, # of connection points: 2
#     Edge 98, Type (0, 0), BuildingBlock: CIFDUS_clean_linker_0, # of connection points: 2
#     Edge 99, Type (0, 0), BuildingBlock: CIFDUS_clean_linker_0, # of connection points: 2
#     Edge 100, Type (0, 0), BuildingBlock: CIFDUS_clean_linker_0, # of connection points: 2
#     Edge 101, Type (0, 0), BuildingBlock: CIFDUS_clean_linker_0, # of connection points: 2
#     Edge 102, Type (0, 0), BuildingBlock: CIFDUS_clean_linker_0, # of connection points: 2
#     Edge 103, Type (0, 0), BuildingBlock: CIFDUS_clean_linker_0, # of connection points: 2
#     Edge 104, Type (0, 0), BuildingBlock: CIFDUS_clean_linker_0, # of connection points: 2
#     Edge 105, Type (0, 0), BuildingBlock: CIFDUS_clean_linker_0, # of connection points: 2
#     Edge 106, Type (0, 0), BuildingBlock: CIFDUS_clean_linker_0, # of connection points: 2
#     Edge 107, Type (0, 0), BuildingBlock: CIFDUS_clean_linker_0, # of connection points: 2
#     Edge 108, Type (0, 0), BuildingBlock: CIFDUS_clean_linker_0, # of connection points: 2
#     Edge 109, Type (0, 0), BuildingBlock: CIFDUS_clean_linker_0, # of connection points: 2
#     Edge 110, Type (0, 0), BuildingBlock: CIFDUS_clean_linker_0, # of connection points: 2
#     Edge 111, Type (0, 0), BuildingBlock: CIFDUS_clean_linker_0, # of connection points: 2
#     Edge 112, Type (0, 0), BuildingBlock: CIFDUS_clean_linker_0, # of connection points: 2
#     Edge 113, Type (0, 0), BuildingBlock: CIFDUS_clean_linker_0, # of connection points: 2
#     Edge 114, Type (0, 0), BuildingBlock: CIFDUS_clean_linker_0, # of connection points: 2
#     Edge 115, Type (0, 0), BuildingBlock: CIFDUS_clean_linker_0, # of connection points: 2
#     Edge 116, Type (0, 0), BuildingBlock: CIFDUS_clean_linker_0, # of connection points: 2
#     Edge 117, Type (0, 0), BuildingBlock: CIFDUS_clean_linker_0, # of connection points: 2
#     Edge 118, Type (0, 0), BuildingBlock: CIFDUS_clean_linker_0, # of connection points: 2
#     Edge 119, Type (0, 0), BuildingBlock: CIFDUS_clean_linker_0, # of connection points: 2
#     Edge 120, Type (0, 0), BuildingBlock: CIFDUS_clean_linker_0, # of connection points: 2
#     Edge 121, Type (0, 0), BuildingBlock: CIFDUS_clean_linker_0, # of connection points: 2
#     Edge 122, Type (0, 0), BuildingBlock: CIFDUS_clean_linker_0, # of connection points: 2
#     Edge 123, Type (0, 0), BuildingBlock: CIFDUS_clean_linker_0, # of connection points: 2
#     Edge 124, Type (0, 0), BuildingBlock: CIFDUS_clean_linker_0, # of connection points: 2
#     Edge 125, Type (0, 0), BuildingBlock: CIFDUS_clean_linker_0, # of connection points: 2
# Relax obj value: 0.562
# Max RMSD: 0.260
# Mean RMSD: 0.256
data_MOF--net-wle--node1-BEQFEK_clean_sbu_0--edge1-CIFDUS_clean_linker_0
_symmetry_space_group_name_H-M    P1
_symmetry_Int_Tables_number       1
_symmetry_cell_setting            triclinic
loop_
_symmetry_equiv_pos_as_xyz
'x, y, z'
_cell_length_a     84.336388
_cell_length_b     84.275403
_cell_length_c     25.743925
_cell_angle_alpha  90.071281
_cell_angle_beta   89.909573
_cell_angle_gamma 119.93647
loop_
_atom_site_label
_atom_site_type_symbol
_atom_site_fract_x
_atom_site_fract_y
_atom_site_fract_z
_atom_type_partial_charge
Co0 Co 0.27384 0.08366 0.0409 0.0
Co1 Co 0.24959 0.09731 0.09523 0.0
C2 C 0.29088 0.11921 0.09701 0.0
O3 O 0.29233 0.10709 0.07141 0.0
O4 O 0.27525 0.11722 0.10784 0.0
C5 C 0.30286 0.07647 0.01896 0.0
O6 O 0.30927 0.08452 0.06393 0.0
C7 C 0.2372 0.10764 0.18746 0.0
C8 C 0.21549 0.1126 0.15782 0.0
C9 C 0.2252 0.11352 0.20214 0.0
N10 N 0.2346 0.10318 0.13693 0.0
N11 N 0.22145 0.10596 0.11944 0.0
C12 C 0.2524 0.10836 0.2192 0.0
H13 H 0.25899 0.10161 0.19851 0.0
H14 H 0.24706 0.10153 0.25715 0.0
H15 H 0.26274 0.12287 0.22699 0.0
C16 C 0.25216 0.05161 0.10746 0.0
N17 N 0.25698 0.06856 0.09114 0.0
N18 N 0.24652 0.07405 0.11378 0.0
C19 C 0.23461 0.06062 0.14533 0.0
C20 C 0.23786 0.04607 0.14235 0.0
C21 C 0.26114 0.0411 0.08964 0.0
H22 H 0.27618 0.04972 0.09411 0.0
H23 H 0.25627 0.02823 0.11191 0.0
H24 H 0.25823 0.03785 0.04774 0.0
O25 O 0.26058 0.08776 0.98496 0.0
O26 O 0.24266 0.0969 0.02143 0.0
H27 H 0.20855 0.04703 0.18524 0.0
H28 H 0.22502 0.06911 0.21057 0.0
C29 C 0.21945 0.06103 0.17446 0.0
H30 H 0.21342 0.06761 0.15053 0.0
H31 H 0.2171 0.1041 0.08085 0.0
O32 O 0.28687 0.07271 0.00554 0.0
C33 C 0.24855 0.09259 0.98136 0.0
Co34 Co 0.90823 0.18878 0.07342 0.0
Co35 Co 0.90094 0.15165 0.12166 0.0
C36 C 0.87351 0.16501 0.1278 0.0
O37 O 0.88403 0.17999 0.10471 0.0
O38 O 0.87833 0.15308 0.13535 0.0
C39 C 0.91114 0.22381 0.05549 0.0
O40 O 0.90179 0.2204 0.09892 0.0
C41 C 0.89671 0.13238 0.21725 0.0
C42 C 0.89688 0.10719 0.19466 0.0
C43 C 0.89572 0.1167 0.23713 0.0
N44 N 0.89888 0.13254 0.1656 0.0
N45 N 0.89903 0.11746 0.15211 0.0
C46 C 0.89427 0.14641 0.24648 0.0
H47 H 0.88035 0.13979 0.26373 0.0
H48 H 0.89618 0.15775 0.22069 0.0
H49 H 0.90425 0.15213 0.27878 0.0
C50 C 0.94008 0.20341 0.14322 0.0
N51 N 0.92481 0.1895 0.12264 0.0
N52 N 0.9224 0.17386 0.14082 0.0
C53 C 0.93641 0.17736 0.17278 0.0
C54 C 0.94779 0.19613 0.17601 0.0
C55 C 0.94671 0.22319 0.13249 0.0
H56 H 0.93545 0.2261 0.13973 0.0
H57 H 0.9586 0.23231 0.15714 0.0
H58 H 0.95062 0.22608 0.09094 0.0
O59 O 0.90633 0.17256 0.01587 0.0
O60 O 0.90193 0.1461 0.04693 0.0
H61 H 0.95496 0.16864 0.20056 0.0
H62 H 0.93371 0.15935 0.23498 0.0
C63 C 0.94003 0.16317 0.19589 0.0
H64 H 0.93434 0.15084 0.17087 0.0
H65 H 0.90037 0.11408 0.11401 0.0
O66 O 0.91634 0.21276 0.04057 0.0
C67 C 0.90414 0.15664 0.00874 0.0
Co68 Co 0.81701 0.7293 0.04841 0.0
Co69 Co 0.85136 0.75375 0.11745 0.0
C70 C 0.83767 0.71371 0.10259 0.0
O71 O 0.82488 0.71228 0.07338 0.0
O72 O 0.84921 0.72905 0.12242 0.0
C73 C 0.78316 0.69793 0.02117 0.0
O74 O 0.78535 0.69198 0.06625 0.0
C75 C 0.87277 0.76435 0.21242 0.0
C76 C 0.89104 0.79419 0.2037 0.0
C77 C 0.88635 0.77966 0.23715 0.0
N78 N 0.86949 0.76942 0.16618 0.0
N79 N 0.88052 0.78728 0.16094 0.0
C80 C 0.86215 0.74538 0.23408 0.0
H81 H 0.86906 0.73762 0.22299 0.0
H82 H 0.84805 0.73825 0.21812 0.0
H83 H 0.86155 0.7457 0.27713 0.0
C84 C 0.79925 0.74168 0.12491 0.0
N85 N 0.81399 0.74158 0.10523 0.0
N86 N 0.82841 0.75199 0.13406 0.0
C87 C 0.82325 0.75911 0.17307 0.0
C88 C 0.80461 0.75267 0.16886 0.0
C89 C 0.78033 0.73061 0.1034 0.0
H90 H 0.77574 0.71587 0.10811 0.0
H91 H 0.77041 0.73351 0.12345 0.0
H92 H 0.78049 0.73339 0.06123 0.0
O93 O 0.83517 0.7469 -0.00058 0.0
O94 O 0.85989 0.76414 0.04672 0.0
H95 H 0.82961 0.77926 0.23391 0.0
H96 H 0.84039 0.76547 0.2399 0.0
C97 C 0.83607 0.77261 0.21205 0.0
H98 H 0.84834 0.78339 0.19199 0.0
H99 H 0.88067 0.79479 0.12857 0.0
O100 O 0.79436 0.71433 0.00792 0.0
C101 C 0.85162 0.75991 0.00318 0.0
Co102 Co 0.07937 0.26724 0.43104 0.0
Co103 Co 0.09088 0.24456 0.36057 0.0
C104 C 0.11646 0.28447 0.38219 0.0
O105 O 0.10459 0.28562 0.41012 0.0
O106 O 0.11308 0.26932 0.36181 0.0
C107 C 0.07396 0.29621 0.46866 0.0
O108 O 0.08355 0.30507 0.42757 0.0
C109 C 0.10535 0.23616 0.2694 0.0
C110 C 0.09489 0.20641 0.27654 0.0
C111 C 0.10578 0.2216 0.2464 0.0
N112 N 0.09489 0.23007 0.31198 0.0
N113 N 0.08863 0.21226 0.3162 0.0
C114 C 0.11406 0.2554 0.24973 0.0
H115 H 0.10647 0.26219 0.26378 0.0
H116 H 0.11443 0.25562 0.20661 0.0
H117 H 0.12835 0.26311 0.26398 0.0
C118 C 0.05032 0.25551 0.35212 0.0
N119 N 0.06533 0.25605 0.3717 0.0
N120 N 0.07017 0.24653 0.34163 0.0
C121 C 0.0584 0.23971 0.30155 0.0
C122 C 0.04553 0.24527 0.30684 0.0
C123 C 0.04093 0.26475 0.37646 0.0
H124 H 0.05062 0.27969 0.37829 0.0
H125 H 0.02866 0.26231 0.35419 0.0
H126 H 0.03694 0.25974 0.41686 0.0
O127 O 0.07925 0.24865 0.47718 0.0
O128 O 0.08721 0.23222 0.42796 0.0
H129 H 0.05924 0.21557 0.28062 0.0
H130 H 0.04657 0.22141 0.23564 0.0
C131 C 0.05875 0.22706 0.26127 0.0
H132 H 0.07126 0.23458 0.23726 0.0
H133 H 0.0802 0.20414 0.34632 0.0
O134 O 0.0694 0.27952 0.47438 0.0
C135 C 0.08236 0.23547 0.47154 0.0
Co136 Co 0.72674 0.80482 0.43801 0.0
Co137 Co 0.74873 0.83956 0.36976 0.0
C138 C 0.70816 0.82262 0.38418 0.0
O139 O 0.70742 0.8101 0.41352 0.0
O140 O 0.72328 0.83485 0.36496 0.0
C141 C 0.69823 0.77042 0.47549 0.0
O142 O 0.68943 0.77104 0.43416 0.0
C143 C 0.75941 0.8616 0.27645 0.0
C144 C 0.78458 0.88667 0.30112 0.0
C145 C 0.77261 0.87877 0.26007 0.0
N146 N 0.7634 0.85925 0.32509 0.0
N147 N 0.77854 0.87418 0.33961 0.0
C148 C 0.7423 0.8484 0.24843 0.0
H149 H 0.7328 0.85393 0.24755 0.0
H150 H 0.73551 0.8349 0.26819 0.0
H151 H 0.7455 0.84671 0.20768 0.0
C152 C 0.74179 0.78952 0.36076 0.0
N153 N 0.74005 0.80333 0.38081 0.0
N154 N 0.74974 0.81819 0.3528 0.0
C155 C 0.7582 0.81438 0.3145 0.0
C156 C 0.75326 0.79605 0.3178 0.0
C157 C 0.73193 0.77035 0.38119 0.0
H158 H 0.71723 0.76588 0.38621 0.0
H159 H 0.73329 0.76069 0.35478 0.0
H160 H 0.73751 0.77006 0.41996 0.0
O161 O 0.74331 0.82386 0.48782 0.0
O162 O 0.75851 0.84843 0.43868 0.0
H163 H 0.78001 0.84156 0.2976 0.0
H164 H 0.78105 0.82381 0.26134 0.0
C165 C 0.77172 0.82828 0.27754 0.0
H166 H 0.76426 0.83021 0.24498 0.0
H167 H 0.7844 0.87611 0.37641 0.0
O168 O 0.71499 0.78237 0.48063 0.0
C169 C 0.75524 0.84067 0.48261 0.0
Co170 Co 0.18662 0.9202 0.4261 0.0
Co171 Co 0.14883 0.91111 0.37991 0.0
C172 C 0.16407 0.88518 0.37136 0.0
O173 O 0.17905 0.89621 0.39376 0.0
O174 O 0.15155 0.88928 0.36504 0.0
C175 C 0.22197 0.92471 0.45292 0.0
O176 O 0.21932 0.91349 0.41417 0.0
C177 C 0.12624 0.90394 0.28976 0.0
C178 C 0.10043 0.9008 0.32105 0.0
C179 C 0.10874 0.8997 0.27577 0.0
N180 N 0.12836 0.90768 0.34068 0.0
N181 N 0.11299 0.90606 0.35925 0.0
C182 C 0.1399 0.90207 0.25695 0.0
H183 H 0.15271 0.90626 0.27881 0.0
H184 H 0.14319 0.91073 0.22178 0.0
H185 H 0.13397 0.88764 0.24402 0.0
C186 C 0.19923 0.95289 0.36122 0.0
N187 N 0.18599 0.93661 0.37867 0.0
N188 N 0.1701 0.93322 0.35984 0.0
C189 C 0.17277 0.94744 0.3298 0.0
C190 C 0.19128 0.96025 0.32973 0.0
C191 C 0.21905 0.96103 0.37448 0.0
H192 H 0.22116 0.9656 0.41559 0.0
H193 H 0.22314 0.95046 0.37044 0.0
H194 H 0.22783 0.97287 0.34916 0.0
O195 O 0.17046 0.91706 0.48458 0.0
O196 O 0.14367 0.9118 0.45457 0.0
H197 H 0.14562 0.94363 0.33026 0.0
H198 H 0.16241 0.96405 0.29689 0.0
C199 C 0.15786 0.94945 0.30483 0.0
H200 H 0.1541 0.94196 0.26737 0.0
H201 H 0.11079 0.90765 0.39835 0.0
O202 O 0.21061 0.93019 0.4602 0.0
C203 C 0.15439 0.91425 0.49229 0.0
Co204 Co 0.72988 0.91239 0.92786 0.0
Co205 Co 0.75359 0.90074 0.86208 0.0
C206 C 0.71249 0.87831 0.863 0.0
O207 O 0.71076 0.88939 0.8932 0.0
O208 O 0.72821 0.88126 0.84895 0.0
C209 C 0.70214 0.92025 0.96907 0.0
O210 O 0.69179 0.9108 0.92978 0.0
C211 C 0.76592 0.88924 0.77193 0.0
C212 C 0.7914 0.89075 0.8001 0.0
C213 C 0.77957 0.88555 0.75834 0.0
N214 N 0.76947 0.89651 0.81966 0.0
N215 N 0.78483 0.89759 0.8362 0.0
C216 C 0.74895 0.88444 0.74176 0.0
H217 H 0.7393 0.86951 0.74513 0.0
H218 H 0.74229 0.89202 0.75677 0.0
H219 H 0.75228 0.88763 0.7 0.0
C220 C 0.75149 0.94666 0.86726 0.0
N221 N 0.74666 0.92928 0.87919 0.0
N222 N 0.75634 0.92418 0.85078 0.0
C223 C 0.76736 0.93799 0.81897 0.0
C224 C 0.7648 0.9528 0.8286 0.0
C225 C 0.74434 0.95741 0.89512 0.0
H226 H 0.7437 0.95469 0.93742 0.0
H227 H 0.73024 0.95289 0.88149 0.0
H228 H 0.75309 0.97233 0.88838 0.0
O229 O 0.74326 0.90633 0.97946 0.0
O230 O 0.76024 0.89831 0.93297 0.0
H231 H 0.79054 0.93554 0.79724 0.0
H232 H 0.78495 0.94817 0.75084 0.0
C233 C 0.77924 0.93648 0.77823 0.0
H234 H 0.77106 0.92382 0.75545 0.0
H235 H 0.79039 0.90223 0.87303 0.0
O236 O 0.71841 0.92317 0.97174 0.0
C237 C 0.75494 0.90103 0.97643 0.0
Co238 Co 0.07956 0.82 0.95664 0.0
Co239 Co 0.09337 0.85338 0.88176 0.0
C240 C 0.11461 0.83392 0.89517 0.0
O241 O 0.10275 0.82261 0.92707 0.0
O242 O 0.11282 0.84675 0.87502 0.0
C243 C 0.06828 0.78358 0.99436 0.0
O244 O 0.07432 0.78115 0.94967 0.0
C245 C 0.1064 0.87608 0.78856 0.0
C246 C 0.09326 0.89309 0.79564 0.0
C247 C 0.10432 0.8895 0.76382 0.0
N248 N 0.09705 0.87191 0.83333 0.0
N249 N 0.08937 0.88224 0.83768 0.0
C250 C 0.11539 0.86595 0.76746 0.0
H251 H 0.10783 0.85144 0.7801 0.0
H252 H 0.11596 0.86645 0.7244 0.0
H253 H 0.12956 0.87236 0.78266 0.0
C254 C 0.04643 0.80623 0.89077 0.0
N255 N 0.06372 0.81877 0.90352 0.0
N256 N 0.06994 0.83245 0.87038 0.0
C257 C 0.05706 0.82872 0.83413 0.0
C258 C 0.04161 0.81215 0.84629 0.0
C259 C 0.03454 0.78962 0.92267 0.0
H260 H 0.03748 0.79282 0.96453 0.0
H261 H 0.03761 0.77863 0.91254 0.0
H262 H 0.01982 0.7846 0.91551 0.0
O263 O 0.08468 0.84044 0.00314 0.0
O264 O 0.09485 0.8644 0.9508 0.0
H265 H 0.05884 0.85217 0.79645 0.0
H266 H 0.05 0.83212 0.75555 0.0
C267 C 0.06005 0.84002 0.78638 0.0
H268 H 0.07391 0.84469 0.77071 0.0
H269 H 0.08104 0.8815 0.86869 0.0
O270 O 0.06835 0.79846 0.00248 0.0
C271 C 0.09066 0.85739 0.9959 0.0
Co272 Co 0.17813 0.26639 0.90858 0.0
Co273 Co 0.14169 0.24251 0.84813 0.0
C274 C 0.15836 0.28343 0.85714 0.0
O275 O 0.17223 0.28522 0.88218 0.0
O276 O 0.14559 0.2677 0.84292 0.0
C277 C 0.21454 0.29446 0.94328 0.0
O278 O 0.21454 0.3046 0.90455 0.0
C279 C 0.11355 0.22982 0.76797 0.0
C280 C 0.09828 0.19987 0.7807 0.0
C281 C 0.0989 0.21369 0.75042 0.0
N282 N 0.12122 0.22593 0.80779 0.0
N283 N 0.11196 0.20801 0.81556 0.0
C284 C 0.12093 0.24845 0.74466 0.0
H285 H 0.1144 0.25547 0.76422 0.0
H286 H 0.13595 0.25665 0.75008 0.0
H287 H 0.11771 0.24753 0.70258 0.0
C288 C 0.19083 0.24746 0.83606 0.0
N289 N 0.17812 0.25129 0.85411 0.0
N290 N 0.16302 0.24212 0.82685 0.0
C291 C 0.16586 0.23276 0.7891 0.0
C292 C 0.18348 0.23554 0.79406 0.0
C293 C 0.20895 0.25385 0.86168 0.0
H294 H 0.20761 0.25463 0.90431 0.0
H295 H 0.21883 0.26777 0.84731 0.0
H296 H 0.21436 0.24453 0.85326 0.0
O297 O 0.16037 0.25125 0.96202 0.0
O298 O 0.13479 0.23345 0.91945 0.0
H299 H 0.14173 0.2088 0.76283 0.0
H300 H 0.15893 0.22005 0.71306 0.0
C301 C 0.15227 0.22226 0.74731 0.0
H302 H 0.14543 0.2299 0.73453 0.0
H303 H 0.11516 0.20132 0.84422 0.0
O304 O 0.20128 0.27822 0.94798 0.0
C305 C 0.14379 0.23848 0.96149 0.0
Co306 Co 0.91608 0.72397 0.56553 0.0
Co307 Co 0.90438 0.75035 0.61668 0.0
C308 C 0.87888 0.70963 0.61048 0.0
O309 O 0.89097 0.70675 0.59006 0.0
O310 O 0.88227 0.72578 0.62094 0.0
C311 C 0.92234 0.69372 0.55248 0.0
O312 O 0.91379 0.68821 0.59722 0.0
C313 C 0.88872 0.76206 0.69874 0.0
C314 C 0.9021 0.79202 0.68818 0.0
C315 C 0.88971 0.77771 0.71891 0.0
N316 N 0.89985 0.76669 0.65736 0.0
N317 N 0.90774 0.78463 0.65094 0.0
C318 C 0.8787 0.74327 0.72187 0.0
H319 H 0.88631 0.73589 0.71486 0.0
H320 H 0.87672 0.7439 0.76431 0.0
H321 H 0.86503 0.73557 0.70356 0.0
C322 C 0.94593 0.74156 0.6423 0.0
N323 N 0.93048 0.73914 0.61996 0.0
N324 N 0.92508 0.74952 0.64341 0.0
C325 C 0.93659 0.75837 0.68297 0.0
C326 C 0.95033 0.75379 0.68327 0.0
C327 C 0.95689 0.73336 0.62192 0.0
H328 H 0.95583 0.73228 0.57901 0.0
H329 H 0.95133 0.71938 0.63818 0.0
H330 H 0.97152 0.74172 0.6328 0.0
O331 O 0.91512 0.73879 0.5084 0.0
O332 O 0.90807 0.75862 0.54277 0.0
H333 H 0.93661 0.783 0.70333 0.0
H334 H 0.9425 0.77288 0.75655 0.0
C335 C 0.93371 0.76994 0.72182 0.0
H336 H 0.91931 0.76268 0.735 0.0
H337 H 0.91727 0.79188 0.62183 0.0
O338 O 0.92587 0.7092 0.53476 0.0
C339 C 0.91209 0.75205 0.50356 0.0
Co340 Co 0.27 0.18663 0.53782 0.0
Co341 Co 0.2442 0.15246 0.60474 0.0
C342 C 0.28457 0.1664 0.59895 0.0
O343 O 0.28736 0.17985 0.57019 0.0
O344 O 0.26852 0.15475 0.61387 0.0
C345 C 0.2993 0.22294 0.51753 0.0
O346 O 0.30399 0.22219 0.56572 0.0
C347 C 0.23235 0.12999 0.69717 0.0
C348 C 0.20236 0.11313 0.68809 0.0
C349 C 0.2167 0.11661 0.72098 0.0
N350 N 0.22768 0.13428 0.65179 0.0
N351 N 0.20973 0.12412 0.64634 0.0
C352 C 0.25123 0.13981 0.7197 0.0
H353 H 0.25859 0.1543 0.70684 0.0
H354 H 0.25079 0.13939 0.76279 0.0
H355 H 0.25887 0.13304 0.70618 0.0
C356 C 0.25251 0.2032 0.6011 0.0
N357 N 0.25522 0.18923 0.58823 0.0
N358 N 0.24518 0.17514 0.61845 0.0
C359 C 0.23634 0.17995 0.65311 0.0
C360 C 0.24046 0.19781 0.64285 0.0
C361 C 0.26007 0.22068 0.57102 0.0
H362 H 0.26104 0.21807 0.52925 0.0
H363 H 0.27401 0.23042 0.58549 0.0
H364 H 0.25136 0.22703 0.57539 0.0
O365 O 0.25453 0.16801 0.4861 0.0
O366 O 0.23578 0.14366 0.53303 0.0
H367 H 0.2119 0.15697 0.68234 0.0
H368 H 0.22262 0.17593 0.72745 0.0
C369 C 0.22516 0.16805 0.69731 0.0
H370 H 0.23252 0.1618 0.71597 0.0
H371 H 0.20249 0.12487 0.61449 0.0
O372 O 0.28486 0.20951 0.49916 0.0
C373 C 0.24146 0.15155 0.48929 0.0
Co374 Co 0.80971 0.08 0.54828 0.0
Co375 Co 0.84471 0.09406 0.61698 0.0
C376 C 0.82743 0.11727 0.59818 0.0
O377 O 0.81474 0.10475 0.57085 0.0
O378 O 0.84012 0.11508 0.61756 0.0
C379 C 0.77324 0.07002 0.51304 0.0
O380 O 0.77195 0.07786 0.55575 0.0
C381 C 0.86791 0.10866 0.70904 0.0
C382 C 0.88418 0.09468 0.7065 0.0
C383 C 0.88096 0.10654 0.73592 0.0
N384 N 0.86361 0.09855 0.66554 0.0
N385 N 0.87356 0.09042 0.66385 0.0
C386 C 0.85792 0.11811 0.72774 0.0
H387 H 0.86496 0.13234 0.71277 0.0
H388 H 0.84364 0.11094 0.71329 0.0
H389 H 0.85772 0.1186 0.7708 0.0
C390 C 0.79515 0.04954 0.62361 0.0
N391 N 0.80845 0.06575 0.60565 0.0
N392 N 0.82281 0.07201 0.63627 0.0
C393 C 0.81877 0.06026 0.67622 0.0
C394 C 0.80117 0.04551 0.66925 0.0
C395 C 0.77772 0.03761 0.59495 0.0
H396 H 0.78023 0.0391 0.5525 0.0
H397 H 0.76762 0.04195 0.60453 0.0
H398 H 0.77191 0.02299 0.60551 0.0
O399 O 0.82843 0.08171 0.50049 0.0
O400 O 0.85382 0.09192 0.54675 0.0
H401 H 0.84254 0.06174 0.71071 0.0
H402 H 0.82354 0.05462 0.75516 0.0
C403 C 0.83098 0.06376 0.7221 0.0
H404 H 0.83651 0.07803 0.7354 0.0
H405 H 0.87257 0.0814 0.63457 0.0
O406 O 0.78739 0.06868 0.50566 0.0
C407 C 0.84521 0.08642 0.50393 0.0
Co408 Co 0.94005 0.41699 0.4179 0.0
Co409 Co 0.91274 0.42718 0.46918 0.0
C410 C 0.95327 0.45416 0.4611 0.0
O411 O 0.95684 0.44246 0.44111 0.0
O412 O 0.93691 0.45 0.47182 0.0
C413 C 0.97024 0.41061 0.39618 0.0
O414 O 0.97808 0.42041 0.43789 0.0
C415 C 0.90111 0.44184 0.55306 0.0
C416 C 0.87127 0.42928 0.54191 0.0
C417 C 0.88562 0.441 0.57358 0.0
N418 N 0.89638 0.43123 0.51062 0.0
N419 N 0.87851 0.42382 0.5038 0.0
C420 C 0.91993 0.45147 0.57602 0.0
H421 H 0.92771 0.46535 0.55887 0.0
H422 H 0.9272 0.44385 0.56733 0.0
H423 H 0.91939 0.45299 0.61872 0.0
C424 C 0.92405 0.38732 0.49516 0.0
N425 N 0.92565 0.40249 0.47309 0.0
N426 N 0.91464 0.40709 0.49648 0.0
C427 C 0.90611 0.39526 0.53576 0.0
C428 C 0.9117 0.38225 0.53605 0.0
C429 C 0.93282 0.37702 0.47379 0.0
H430 H 0.93292 0.3775 0.43077 0.0
H431 H 0.9472 0.38357 0.48748 0.0
H432 H 0.92548 0.36247 0.48605 0.0
O433 O 0.92436 0.41683 0.36213 0.0
O434 O 0.9037 0.42273 0.39611 0.0
H435 H 0.8808 0.39422 0.55348 0.0
H436 H 0.89012 0.38749 0.607 0.0
C437 C 0.89354 0.39696 0.57365 0.0
H438 H 0.90023 0.41107 0.58917 0.0
H439 H 0.87123 0.4148 0.47372 0.0
O440 O 0.95422 0.4071 0.38434 0.0
C441 C 0.9105 0.41886 0.3572 0.0
Co442 Co 0.58057 0.52251 0.38943 0.0
Co443 Co 0.57559 0.488 0.44901 0.0
C444 C 0.54673 0.49927 0.44983 0.0
O445 O 0.55637 0.51346 0.42242 0.0
O446 O 0.55246 0.48831 0.46138 0.0
C447 C 0.58169 0.55639 0.36615 0.0
O448 O 0.57367 0.55388 0.41159 0.0
C449 C 0.57107 0.46938 0.54588 0.0
C450 C 0.57482 0.44595 0.52629 0.0
C451 C 0.57118 0.45442 0.56699 0.0
N452 N 0.57494 0.47017 0.49518 0.0
N453 N 0.5773 0.45619 0.48351 0.0
C454 C 0.56599 0.482 0.57269 0.0
H455 H 0.55086 0.47517 0.5757 0.0
H456 H 0.57103 0.4949 0.55049 0.0
H457 H 0.57167 0.48512 0.61263 0.0
C458 C 0.61308 0.54086 0.458 0.0
N459 N 0.59812 0.52589 0.43985 0.0
N460 N 0.59626 0.51128 0.46399 0.0
C461 C 0.61013 0.51652 0.4979 0.0
C462 C 0.62095 0.53536 0.4958 0.0
C463 C 0.61932 0.55998 0.44036 0.0
H464 H 0.60891 0.56375 0.45144 0.0
H465 H 0.63265 0.56992 0.45799 0.0
H466 H 0.62053 0.56067 0.3974 0.0
O467 O 0.57919 0.50499 0.33588 0.0
O468 O 0.57641 0.48058 0.37682 0.0
H469 H 0.60989 0.49107 0.50784 0.0
H470 H 0.62846 0.51033 0.54034 0.0
C471 C 0.61378 0.50382 0.52972 0.0
H472 H 0.60573 0.50042 0.56616 0.0
H473 H 0.58018 0.45342 0.44624 0.0
O474 O 0.5868 0.54526 0.35129 0.0
C475 C 0.57779 0.48923 0.33503 0.0
Co476 Co 0.48129 0.06278 0.38818 0.0
Co477 Co 0.51625 0.08311 0.45694 0.0
C478 C 0.49743 0.04239 0.44099 0.0
O479 O 0.48492 0.04239 0.41329 0.0
O480 O 0.51045 0.05724 0.45918 0.0
C481 C 0.44457 0.03675 0.3575 0.0
O482 O 0.44377 0.02906 0.40254 0.0
C483 C 0.53846 0.09048 0.54927 0.0
C484 C 0.55838 0.1201 0.54333 0.0
C485 C 0.553 0.10487 0.57449 0.0
N486 N 0.53541 0.09678 0.50487 0.0
N487 N 0.54746 0.11446 0.50113 0.0
C488 C 0.52617 0.0716 0.57002 0.0
H489 H 0.51211 0.066 0.55458 0.0
H490 H 0.52565 0.07166 0.6131 0.0
H491 H 0.53153 0.06255 0.55779 0.0
C492 C 0.46848 0.0818 0.45907 0.0
N493 N 0.4808 0.07702 0.44387 0.0
N494 N 0.49526 0.08501 0.47421 0.0
C495 C 0.49232 0.09464 0.51096 0.0
C496 C 0.47536 0.09314 0.50226 0.0
C497 C 0.45144 0.07708 0.42935 0.0
H498 H 0.45396 0.07699 0.38712 0.0
H499 H 0.44051 0.06318 0.44077 0.0
H500 H 0.44669 0.08698 0.43715 0.0
O501 O 0.5007 0.07865 0.33945 0.0
O502 O 0.52574 0.09347 0.38739 0.0
H503 H 0.51741 0.11694 0.53937 0.0
H504 H 0.49874 0.10855 0.58551 0.0
C505 C 0.50524 0.10454 0.55465 0.0
H506 H 0.50979 0.09554 0.57239 0.0
H507 H 0.54791 0.12276 0.47048 0.0
O508 O 0.45876 0.05181 0.34631 0.0
C509 C 0.51762 0.09027 0.34383 0.0
Co510 Co 0.75463 0.60403 0.74857 0.0
Co511 Co 0.76171 0.57625 0.68618 0.0
C512 C 0.78916 0.61653 0.6895 0.0
O513 O 0.77881 0.62001 0.7174 0.0
O514 O 0.78436 0.60022 0.67596 0.0
C515 C 0.75326 0.63645 0.77313 0.0
O516 O 0.76153 0.64205 0.72804 0.0
C517 C 0.76986 0.5635 0.59161 0.0
C518 C 0.77028 0.53861 0.61613 0.0
C519 C 0.77377 0.55029 0.57446 0.0
N520 N 0.76412 0.55978 0.64096 0.0
N521 N 0.76408 0.5447 0.6553 0.0
C522 C 0.77423 0.58092 0.5644 0.0
H523 H 0.76813 0.58812 0.58524 0.0
H524 H 0.76896 0.57799 0.52403 0.0
H525 H 0.78931 0.58996 0.56249 0.0
C526 C 0.72323 0.59024 0.67655 0.0
N527 N 0.73794 0.59008 0.69605 0.0
N528 N 0.74067 0.57815 0.67019 0.0
C529 C 0.72761 0.57018 0.63366 0.0
C530 C 0.71633 0.57776 0.63604 0.0
C531 C 0.71688 0.60306 0.6943 0.0
H532 H 0.72794 0.61735 0.68755 0.0
H533 H 0.70446 0.60083 0.67334 0.0
H534 H 0.71411 0.60134 0.73666 0.0
O535 O 0.75645 0.58798 0.80128 0.0
O536 O 0.76085 0.56777 0.75784 0.0
H537 H 0.71101 0.54666 0.58532 0.0
H538 H 0.73424 0.56092 0.56402 0.0
C539 C 0.72539 0.555 0.59865 0.0
H540 H 0.72942 0.54601 0.61917 0.0
H541 H 0.76094 0.53924 0.69272 0.0
O542 O 0.74775 0.62006 0.78722 0.0
C543 C 0.75879 0.57418 0.80043 0.0
Co544 Co 0.3907 0.14787 0.74158 0.0
Co545 Co 0.41782 0.18155 0.67433 0.0
C546 C 0.37757 0.1688 0.678 0.0
O547 O 0.3743 0.15532 0.7073 0.0
O548 O 0.39381 0.18018 0.6636 0.0
C549 C 0.36019 0.11229 0.76705 0.0
O550 O 0.35452 0.11263 0.71976 0.0
C551 C 0.43133 0.20396 0.58123 0.0
C552 C 0.46138 0.21838 0.59074 0.0
C553 C 0.44758 0.2161 0.5573 0.0
N554 N 0.43515 0.19911 0.62706 0.0
N555 N 0.45315 0.20784 0.63277 0.0
C556 C 0.4125 0.19601 0.55892 0.0
H557 H 0.4058 0.20331 0.57563 0.0
H558 H 0.40424 0.18129 0.56913 0.0
H559 H 0.41292 0.19751 0.51603 0.0
C560 C 0.40727 0.12998 0.68071 0.0
N561 N 0.40521 0.14443 0.6924 0.0
N562 N 0.4158 0.15826 0.66199 0.0
C563 C 0.42437 0.15279 0.62836 0.0
C564 C 0.41949 0.13477 0.63958 0.0
C565 C 0.39888 0.11258 0.71141 0.0
H566 H 0.3982 0.11554 0.75306 0.0
H567 H 0.38476 0.1034 0.69729 0.0
H568 H 0.40687 0.10544 0.70743 0.0
O569 O 0.40643 0.16653 0.79224 0.0
O570 O 0.42653 0.19041 0.74631 0.0
H571 H 0.44955 0.17479 0.59927 0.0
H572 H 0.43811 0.15581 0.55463 0.0
C573 C 0.43606 0.1642 0.58417 0.0
H574 H 0.42941 0.17108 0.56486 0.0
H575 H 0.45983 0.20635 0.66488 0.0
O576 O 0.37537 0.12552 0.7824 0.0
C577 C 0.42018 0.18262 0.78985 0.0
Co578 Co 0.84872 0.2439 0.77101 0.0
Co579 Co 0.81557 0.23206 0.69629 0.0
C580 C 0.8345 0.21031 0.70189 0.0
O581 O 0.84562 0.22137 0.73558 0.0
O582 O 0.82184 0.21261 0.68296 0.0
C583 C 0.88543 0.25402 0.80209 0.0
O584 O 0.88719 0.24944 0.75451 0.0
C585 C 0.79217 0.22126 0.60423 0.0
C586 C 0.77682 0.23596 0.61578 0.0
C587 C 0.77934 0.22473 0.5817 0.0
N588 N 0.79714 0.23006 0.64987 0.0
N589 N 0.78778 0.23867 0.65688 0.0
C590 C 0.80075 0.21106 0.58091 0.0
H591 H 0.79495 0.19749 0.59998 0.0
H592 H 0.81572 0.21866 0.58793 0.0
H593 H 0.79816 0.209 0.53851 0.0
C594 C 0.86203 0.27903 0.71518 0.0
N595 N 0.84997 0.26116 0.72272 0.0
N596 N 0.83659 0.25572 0.68887 0.0
C597 C 0.84018 0.26973 0.65688 0.0
C598 C 0.85618 0.28512 0.67315 0.0
C599 C 0.87783 0.29024 0.7505 0.0
H600 H 0.87432 0.28509 0.79089 0.0
H601 H 0.88975 0.289 0.73786 0.0
H602 H 0.88166 0.30489 0.74968 0.0
O603 O 0.82848 0.23788 0.81914 0.0
O604 O 0.80467 0.2288 0.76664 0.0
H605 H 0.81738 0.26957 0.62002 0.0
H606 H 0.83766 0.27875 0.58024 0.0
C607 C 0.82929 0.26807 0.60921 0.0
H608 H 0.82432 0.25449 0.59101 0.0
H609 H 0.78926 0.24682 0.68912 0.0
O610 O 0.87069 0.25359 0.81498 0.0
C611 C 0.81154 0.23196 0.812 0.0
Co612 Co 0.38944 0.25112 0.25472 0.0
Co613 Co 0.41255 0.2386 0.18917 0.0
C614 C 0.37193 0.21443 0.20381 0.0
O615 O 0.37078 0.2266 0.23002 0.0
O616 O 0.38729 0.21716 0.18695 0.0
C617 C 0.36104 0.25908 0.27623 0.0
O618 O 0.3558 0.25289 0.22882 0.0
C619 C 0.42081 0.22358 0.098 0.0
C620 C 0.45055 0.23417 0.10374 0.0
C621 C 0.4353 0.22335 0.07371 0.0
N622 N 0.42701 0.23392 0.14095 0.0
N623 N 0.44484 0.24025 0.14422 0.0
C624 C 0.40159 0.21512 0.0784 0.0
H625 H 0.39528 0.22334 0.0907 0.0
H626 H 0.40123 0.21406 0.03538 0.0
H627 H 0.39352 0.20111 0.09452 0.0
C628 C 0.40655 0.28249 0.1832 0.0
N629 N 0.40328 0.26597 0.19936 0.0
N630 N 0.41248 0.26049 0.17026 0.0
C631 C 0.42148 0.27317 0.13328 0.0
C632 C 0.41814 0.28761 0.14053 0.0
C633 C 0.40025 0.29385 0.21168 0.0
H634 H 0.40004 0.29147 0.25406 0.0
H635 H 0.38615 0.2898 0.19906 0.0
H636 H 0.40931 0.30867 0.20391 0.0
O637 O 0.40582 0.24932 0.30486 0.0
O638 O 0.42301 0.24093 0.26036 0.0
H639 H 0.44535 0.2727 0.10743 0.0
H640 H 0.43587 0.28137 0.05956 0.0
C641 C 0.43252 0.27115 0.09087 0.0
H642 H 0.42467 0.25732 0.07354 0.0
H643 H 0.45311 0.24875 0.17403 0.0
O644 O 0.37601 0.26093 0.29302 0.0
C645 C 0.41859 0.24547 0.30295 0.0
Co646 Co 0.7444 0.13943 0.25682 0.0
Co647 Co 0.75363 0.17632 0.20338 0.0
C648 C 0.77998 0.16148 0.20558 0.0
O649 O 0.76897 0.1467 0.22894 0.0
O650 O 0.77556 0.17356 0.19555 0.0
C651 C 0.73846 0.10376 0.28718 0.0
O652 O 0.74873 0.10514 0.24706 0.0
C653 C 0.76275 0.19726 0.109 0.0
C654 C 0.7648 0.2234 0.13286 0.0
C655 C 0.76711 0.21441 0.09097 0.0
N656 N 0.7578 0.19598 0.15899 0.0
N657 N 0.75882 0.21155 0.17304 0.0
C658 C 0.76555 0.18321 0.08128 0.0
H659 H 0.78036 0.18888 0.07348 0.0
H660 H 0.76033 0.17054 0.10473 0.0
H661 H 0.75837 0.17976 0.04338 0.0
C662 C 0.71347 0.12515 0.1841 0.0
N663 N 0.72887 0.13895 0.20432 0.0
N664 N 0.73232 0.15448 0.1825 0.0
C665 C 0.71909 0.151 0.1476 0.0
C666 C 0.70691 0.13235 0.1473 0.0
C667 C 0.70536 0.10554 0.19991 0.0
H668 H 0.71592 0.10142 0.1968 0.0
H669 H 0.69344 0.09636 0.17539 0.0
H670 H 0.701 0.10406 0.24115 0.0
O671 O 0.74627 0.15652 0.31136 0.0
O672 O 0.75164 0.18271 0.27614 0.0
H673 H 0.72229 0.17788 0.14131 0.0
H674 H 0.7029 0.16022 0.1063 0.0
C675 C 0.71732 0.16527 0.11773 0.0
H676 H 0.72566 0.16861 0.08183 0.0
H677 H 0.75625 0.21439 0.21064 0.0
O678 O 0.73419 0.11604 0.29446 0.0
C679 C 0.7487 0.1726 0.31575 0.0
Co680 Co 0.86198 0.60947 0.27038 0.0
Co681 Co 0.82966 0.58944 0.19177 0.0
C682 C 0.84708 0.62973 0.20962 0.0
O683 O 0.85824 0.62952 0.24258 0.0
O684 O 0.83517 0.61508 0.18744 0.0
C685 C 0.89801 0.63607 0.30298 0.0
O686 O 0.89931 0.64249 0.25572 0.0
C687 C 0.80523 0.5801 0.10212 0.0
C688 C 0.78911 0.54991 0.10648 0.0
C689 C 0.79097 0.56484 0.07906 0.0
N690 N 0.81141 0.5746 0.14227 0.0
N691 N 0.80173 0.55652 0.14467 0.0
C692 C 0.81343 0.59953 0.08452 0.0
H693 H 0.80671 0.60601 0.10588 0.0
H694 H 0.82832 0.60714 0.09261 0.0
H695 H 0.81121 0.60026 0.04231 0.0
C696 C 0.87828 0.59297 0.2017 0.0
N697 N 0.86472 0.59619 0.2153 0.0
N698 N 0.8514 0.58846 0.1811 0.0
C699 C 0.85631 0.58062 0.14364 0.0
C700 C 0.87343 0.58303 0.15567 0.0
C701 C 0.89486 0.59819 0.23422 0.0
H702 H 0.89145 0.59775 0.27599 0.0
H703 H 0.90557 0.61237 0.22432 0.0
H704 H 0.9004 0.58888 0.22712 0.0
O705 O 0.84143 0.5929 0.3157 0.0
O706 O 0.81854 0.57923 0.25979 0.0
H707 H 0.83398 0.55809 0.10513 0.0
H708 H 0.85379 0.57105 0.06431 0.0
C709 C 0.84528 0.57203 0.09569 0.0
H710 H 0.83927 0.58028 0.08144 0.0
H711 H 0.80366 0.54869 0.17267 0.0
O712 O 0.88367 0.62132 0.31565 0.0
C713 C 0.82472 0.58162 0.30582 0.0
Co714 Co 0.57047 0.04584 0.92049 0.0
Co715 Co 0.56118 0.07524 0.96024 0.0
C716 C 0.53461 0.03443 0.96912 0.0
O717 O 0.54575 0.03012 0.94907 0.0
O718 O 0.53885 0.05114 0.97429 0.0
C719 C 0.57559 0.01446 0.90681 0.0
O720 O 0.56462 0.00726 0.94689 0.0
C721 C 0.55341 0.09226 0.04546 0.0
C722 C 0.55353 0.11628 0.01069 0.0
C723 C 0.55097 0.1069 0.05688 0.0
N724 N 0.55765 0.09304 0.99508 0.0
N725 N 0.55782 0.10748 0.9743 0.0
C726 C 0.55009 0.07677 0.08074 0.0
H727 H 0.55437 0.06764 0.06206 0.0
H728 H 0.55772 0.08212 0.11761 0.0
H729 H 0.53531 0.06878 0.09045 0.0
C730 C 0.60116 0.065 0.99314 0.0
N731 N 0.58581 0.06265 0.97037 0.0
N732 N 0.58236 0.07546 0.98638 0.0
C733 C 0.59563 0.08656 0.01963 0.0
C734 C 0.60774 0.08012 0.02532 0.0
C735 C 0.60925 0.05299 0.98392 0.0
H736 H 0.59865 0.03851 0.99073 0.0
H737 H 0.62111 0.05664 0.00973 0.0
H738 H 0.61368 0.05427 0.94278 0.0
O739 O 0.56938 0.05892 0.8586 0.0
O740 O 0.56387 0.08072 0.88528 0.0
H741 H 0.61229 0.11369 0.05144 0.0
H742 H 0.58971 0.10083 0.07825 0.0
C743 C 0.59777 0.10395 0.04188 0.0
H744 H 0.59282 0.1105 0.01396 0.0
H745 H 0.56044 0.11107 0.93517 0.0
O746 O 0.5804 0.03073 0.89329 0.0
C747 C 0.5671 0.07244 0.84905 0.0
Co748 Co 0.93991 0.51579 0.89875 0.0
Co749 Co 0.91766 0.48164 0.97003 0.0
C750 C 0.95806 0.49808 0.95784 0.0
O751 O 0.95849 0.51015 0.92711 0.0
O752 O 0.94302 0.48583 0.97768 0.0
C753 C 0.96807 0.55218 0.87107 0.0
O754 O 0.97442 0.55243 0.91783 0.0
C755 C 0.90523 0.4577 0.06126 0.0
C756 C 0.87514 0.44335 0.05208 0.0
C757 C 0.88894 0.44528 0.0849 0.0
N758 N 0.90129 0.46297 0.01627 0.0
N759 N 0.8833 0.45413 0.01055 0.0
C760 C 0.92409 0.46598 0.08353 0.0
H761 H 0.93198 0.48079 0.07419 0.0
H762 H 0.92374 0.46414 0.12628 0.0
H763 H 0.9312 0.45924 0.0657 0.0
C764 C 0.92213 0.53094 0.96597 0.0
N765 N 0.92595 0.51775 0.95267 0.0
N766 N 0.9172 0.50366 0.98406 0.0
C767 C 0.90797 0.5077 0.01945 0.0
C768 C 0.91054 0.52496 0.0087 0.0
C769 C 0.92816 0.5481 0.93536 0.0
H770 H 0.92811 0.54524 0.8933 0.0
H771 H 0.94235 0.55831 0.94671 0.0
H772 H 0.91917 0.55399 0.94258 0.0
O773 O 0.92356 0.49685 0.84978 0.0
O774 O 0.90805 0.47235 0.89935 0.0
H775 H 0.88413 0.48443 0.04998 0.0
H776 H 0.89491 0.50339 0.09467 0.0
C777 C 0.89746 0.49563 0.0641 0.0
H778 H 0.90526 0.48964 0.08159 0.0
H779 H 0.87657 0.45601 0.97926 0.0
O780 O 0.95308 0.53839 0.85717 0.0
C781 C 0.91148 0.4801 0.85514 0.0
Co782 Co 0.47874 0.41625 0.87554 0.0
Co783 Co 0.51522 0.43266 0.93823 0.0
C784 C 0.4947 0.45311 0.92556 0.0
O785 O 0.48192 0.44004 0.90011 0.0
O786 O 0.50849 0.45211 0.94117 0.0
C787 C 0.44091 0.40362 0.85455 0.0
O788 O 0.44088 0.40997 0.90119 0.0
C789 C 0.53956 0.4503 0.02563 0.0
C790 C 0.56031 0.44176 0.01757 0.0
C791 C 0.55526 0.45211 0.04778 0.0
N792 N 0.53548 0.43958 0.98354 0.0
N793 N 0.54796 0.43453 0.97875 0.0
C794 C 0.52771 0.45733 0.04704 0.0
H795 H 0.51319 0.44802 0.0366 0.0
H796 H 0.52896 0.45867 0.08995 0.0
H797 H 0.53223 0.47108 0.03055 0.0
C798 C 0.46835 0.38564 0.94828 0.0
N799 N 0.48009 0.40256 0.93096 0.0
N800 N 0.49509 0.40971 0.95914 0.0
C801 C 0.49309 0.39774 -0.00323 0.0
C802 C 0.47611 0.38202 0.99091 0.0
C803 C 0.45095 0.37265 0.92098 0.0
H804 H 0.45269 0.37484 0.87844 0.0
H805 H 0.43991 0.37528 0.93391 0.0
H806 H 0.44681 0.35819 0.92943 0.0
O807 O 0.49712 0.41968 0.82349 0.0
O808 O 0.52327 0.43095 0.86679 0.0
H809 H 0.5187 0.40106 0.02218 0.0
H810 H 0.50097 0.39184 0.07131 0.0
C811 C 0.50686 0.40168 0.03869 0.0
H812 H 0.51183 0.41563 0.05418 0.0
H813 H 0.54796 0.42602 0.94925 0.0
O814 O 0.45522 0.40373 0.8387 0.0
C815 C 0.51418 0.42531 0.82477 0.0
Co816 Co 0.60091 0.75394 0.7374 0.0
Co817 Co 0.57609 0.76301 0.80728 0.0
C818 C 0.6165 0.78931 0.79602 0.0
O819 O 0.61874 0.7783 0.76701 0.0
O820 O 0.60072 0.78517 0.81317 0.0
C821 C 0.62937 0.74633 0.70167 0.0
O822 O 0.63792 0.75351 0.74554 0.0
C823 C 0.56495 0.77432 0.90057 0.0
C824 C 0.53477 0.75978 0.8948 0.0
C825 C 0.54931 0.7715 0.92592 0.0
N826 N 0.56005 0.76486 0.85596 0.0
N827 N 0.54199 0.75626 0.85246 0.0
C828 C 0.5841 0.78428 0.92111 0.0
H829 H 0.591 0.79855 0.90652 0.0
H830 H 0.59182 0.77757 0.90772 0.0
H831 H 0.58422 0.78468 0.96421 0.0
C832 C 0.58498 0.72085 0.8035 0.0
N833 N 0.58715 0.73723 0.78993 0.0
N834 N 0.57741 0.74142 0.82111 0.0
C835 C 0.5693 0.72813 0.85708 0.0
C836 C 0.57363 0.71452 0.84678 0.0
C837 C 0.59236 0.7109 0.77263 0.0
H838 H 0.59188 0.71346 0.73061 0.0
H839 H 0.60684 0.71607 0.78368 0.0
H840 H 0.58442 0.69592 0.77958 0.0
O841 O 0.5845 0.75651 0.68911 0.0
O842 O 0.56624 0.76257 0.73676 0.0
H843 H 0.54503 0.72636 0.88894 0.0
H844 H 0.55683 0.71907 0.93306 0.0
C845 C 0.55864 0.72907 0.9024 0.0
H846 H 0.56597 0.74292 0.91972 0.0
H847 H 0.53457 0.7477 0.8217 0.0
O848 O 0.61393 0.745 0.69332 0.0
C849 C 0.57137 0.75975 0.69288 0.0
Co850 Co 0.24046 0.85167 0.72711 0.0
Co851 Co 0.22707 0.81771 0.79903 0.0
C852 C 0.20518 0.83675 0.7864 0.0
O853 O 0.21691 0.84829 0.75473 0.0
O854 O 0.20736 0.82412 0.80641 0.0
C855 C 0.25049 0.88745 0.68504 0.0
O856 O 0.24213 0.88939 0.72562 0.0
C857 C 0.21686 0.7964 0.89423 0.0
C858 C 0.21561 0.77072 0.86857 0.0
C859 C 0.21268 0.77914 0.9106 0.0
N860 N 0.22222 0.79828 0.84461 0.0
N861 N 0.22167 0.78299 0.82955 0.0
C862 C 0.21407 0.81016 0.92349 0.0
H863 H 0.19918 0.80507 0.9272 0.0
H864 H 0.22066 0.82351 0.90291 0.0
H865 H 0.21979 0.81196 0.96323 0.0
C866 C 0.27282 0.86583 0.79502 0.0
N867 N 0.25583 0.85289 0.78152 0.0
N868 N 0.25046 0.83846 0.81158 0.0
C869 C 0.264 0.84175 0.84516 0.0
C870 C 0.27856 0.85921 0.83577 0.0
C871 C 0.28315 0.88416 0.76938 0.0
H872 H 0.27443 0.89057 0.76818 0.0
H873 H 0.29601 0.89343 0.79024 0.0
H874 H 0.28635 0.88233 0.72874 0.0
O875 O 0.23661 0.83177 0.67969 0.0
O876 O 0.22649 0.8075 0.73044 0.0
H877 H 0.25777 0.81438 0.86295 0.0
H878 H 0.27747 0.8319 0.89685 0.0
C879 C 0.26359 0.8279 0.88232 0.0
H880 H 0.25475 0.82658 0.91584 0.0
H881 H 0.2248 0.78067 0.79208 0.0
O882 O 0.25208 0.8733 0.68155 0.0
C883 C 0.23116 0.81488 0.68608 0.0
Co884 Co 0.14696 0.3953 0.72991 0.0
Co885 Co 0.1819 0.42116 0.79352 0.0
C886 C 0.16564 0.37982 0.79154 0.0
O887 O 0.15234 0.37733 0.76267 0.0
O888 O 0.17789 0.39589 0.80505 0.0
C889 C 0.11195 0.36627 0.69364 0.0
O890 O 0.11205 0.35741 0.7355 0.0
C891 C 0.19895 0.43334 0.8933 0.0
C892 C 0.22577 0.4575 0.87551 0.0
C893 C 0.21499 0.44655 0.91586 0.0
N894 N 0.1999 0.43649 0.84211 0.0
N895 N 0.21588 0.45109 0.83155 0.0
C896 C 0.18376 0.41681 0.91912 0.0
H897 H 0.18886 0.40753 0.93132 0.0
H898 H 0.17201 0.4094 0.89237 0.0
H899 H 0.17917 0.42091 0.95449 0.0
C900 C 0.13114 0.41282 0.79469 0.0
N901 N 0.14513 0.41048 0.77981 0.0
N902 N 0.16003 0.42206 0.80508 0.0
C903 C 0.15603 0.43245 0.83625 0.0
C904 C 0.1376 0.42677 0.83112 0.0
C905 C 0.11195 0.40143 0.77545 0.0
H906 H 0.10788 0.38674 0.77764 0.0
H907 H 0.10216 0.40376 0.79842 0.0
H908 H 0.11134 0.40478 0.73409 0.0
O909 O 0.16627 0.41036 0.67954 0.0
O910 O 0.19134 0.42956 0.72262 0.0
H911 H 0.16515 0.45859 0.87333 0.0
H912 H 0.17152 0.44375 0.90568 0.0
C913 C 0.16979 0.44851 0.86711 0.0
H914 H 0.18315 0.45537 0.84676 0.0
H915 H 0.22027 0.45627 0.79424 0.0
O916 O 0.12478 0.3826 0.68677 0.0
C917 C 0.1828 0.42332 0.68009 0.0
Co918 Co 0.40822 0.93094 0.11474 0.0
Co919 Co 0.41558 0.90352 0.05095 0.0
C920 C 0.4425 0.94445 0.05548 0.0
O921 O 0.43222 0.94813 0.08309 0.0
O922 O 0.43754 0.92805 0.0427 0.0
C923 C 0.40416 0.96134 0.14764 0.0
O924 O 0.41256 0.96886 0.10382 0.0
C925 C 0.42428 0.89508 0.95073 0.0
C926 C 0.4204 0.86728 0.95778 0.0
C927 C 0.42593 0.88182 0.92365 0.0
N928 N 0.41818 0.88889 -0.00126 0.0
N929 N 0.41571 0.87216 0.0028 0.0
C930 C 0.42812 0.91336 0.93084 0.0
H931 H 0.41949 0.91789 0.95139 0.0
H932 H 0.42557 0.91275 0.8884 0.0
H933 H 0.4427 0.92358 0.93794 0.0
C934 C 0.37495 0.91466 0.05013 0.0
N935 N 0.39111 0.91648 0.06425 0.0
N936 N 0.39384 0.90451 0.03874 0.0
C937 C 0.37939 0.89458 0.00762 0.0
C938 C 0.36701 0.90074 0.01371 0.0
C939 C 0.36754 0.92627 0.07083 0.0
H940 H 0.37819 0.9409 0.06774 0.0
H941 H 0.35519 0.92401 0.04937 0.0
H942 H 0.36413 0.9231 0.11257 0.0
O943 O 0.41074 0.91463 0.16456 0.0
O944 O 0.41568 0.89446 0.1221 0.0
H945 H 0.36234 0.8696 0.96478 0.0
H946 H 0.38523 0.88368 0.94001 0.0
C947 C 0.37687 0.87859 0.97586 0.0
H948 H 0.38156 0.87046 -0.00184 0.0
H949 H 0.41122 0.86424 0.03651 0.0
O950 O 0.39998 0.94494 0.15736 0.0
C951 C 0.41336 0.90101 0.16426 0.0
Co952 Co 0.06478 0.47865 0.12862 0.0
Co953 Co 0.08505 0.51155 0.05278 0.0
C954 C 0.04399 0.492 0.06597 0.0
O955 O 0.04418 0.48087 0.09911 0.0
O956 O 0.05879 0.50445 0.0456 0.0
C957 C 0.03953 0.44348 0.17281 0.0
O958 O 0.0299 0.44102 0.13042 0.0
C959 C 0.09427 0.52813 0.95052 0.0
C960 C 0.11836 0.5553 0.96598 0.0
C961 C 0.10682 0.5443 0.92698 0.0
N962 N 0.09833 0.52927 0.00117 0.0
N963 N 0.11283 0.54549 0.01025 0.0
C964 C 0.07774 0.51246 0.92633 0.0
H965 H 0.06746 0.5167 0.91827 0.0
H966 H 0.07164 0.50044 0.9527 0.0
H967 H 0.08141 0.50863 0.88882 0.0
C968 C 0.08282 0.46344 0.06314 0.0
N969 N 0.07909 0.47674 0.07569 0.0
N970 N 0.08821 0.49084 0.0446 0.0
C971 C 0.09825 0.48702 0.01155 0.0
C972 C 0.09501 0.46951 0.02191 0.0
C973 C 0.0743 0.44515 0.08919 0.0
H974 H 0.05921 0.4388 0.08793 0.0
H975 H 0.07825 0.4358 0.07025 0.0
H976 H 0.07849 0.44702 0.1306 0.0
O977 O 0.08036 0.49978 0.17327 0.0
O978 O 0.09466 0.52351 0.12032 0.0
H979 H 0.12222 0.49651 0.96285 0.0
H980 H 0.10446 0.50018 0.93745 0.0
C981 C 0.11175 0.50029 0.97334 0.0
H982 H 0.11873 0.5143 0.98984 0.0
H983 H 0.11868 0.55002 0.04683 0.0
O984 O 0.05507 0.45781 0.17704 0.0
C985 C 0.09155 0.51667 0.16565 0.0
Co986 Co 0.51742 0.58019 0.09328 0.0
Co987 Co 0.4803 0.56592 0.03355 0.0
C988 C 0.50054 0.54485 0.03475 0.0
O989 O 0.51354 0.5573 0.06115 0.0
O990 O 0.48656 0.54612 0.02272 0.0
C991 C 0.55402 0.58869 0.11713 0.0
O992 O 0.55351 0.58196 0.0707 0.0
C993 C 0.4568 0.55232 0.94204 0.0
C994 C 0.43818 0.56347 0.95143 0.0
C995 C 0.44283 0.55358 0.91795 0.0
N996 N 0.46039 0.56107 0.98789 0.0
N997 N 0.44905 0.56754 0.9936 0.0
C998 C 0.468 0.5448 0.91897 0.0
H999 H 0.46328 0.53098 0.93527 0.0
H1000 H 0.48264 0.55374 0.92903 0.0
H1001 H 0.46657 0.54363 0.87609 0.0
C1002 C 0.528 0.61296 0.02933 0.0
N1003 N 0.51611 0.59565 0.04351 0.0
N1004 N 0.50092 0.58947 0.01646 0.0
C1005 C 0.503 0.60255 0.98249 0.0
C1006 C 0.5201 0.61797 0.99002 0.0
C1007 C 0.54582 0.6248 0.05629 0.0
H1008 H 0.54451 0.62137 0.09821 0.0
H1009 H 0.55641 0.62216 0.03943 0.0
H1010 H 0.55029 0.63954 0.05192 0.0
O1011 O 0.49909 0.57505 0.14644 0.0
O1012 O 0.47235 0.56558 0.10794 0.0
H1013 H 0.4776 0.60029 0.95933 0.0
H1014 H 0.49543 0.61062 0.91085 0.0
C1015 C 0.48937 0.59994 0.94133 0.0
H1016 H 0.48441 0.58651 0.92229 0.0
H1017 H 0.44919 0.5753 0.02538 0.0
O1018 O 0.54082 0.59088 0.13146 0.0
C1019 C 0.48213 0.56977 0.14896 0.0
Co1020 Co 0.05731 0.58094 0.60007 0.0
Co1021 Co 0.08491 0.57169 0.54587 0.0
C1022 C 0.04443 0.54602 0.54113 0.0
O1023 O 0.04087 0.55686 0.56645 0.0
O1024 O 0.06083 0.5501 0.53185 0.0
C1025 C 0.02578 0.58486 0.61913 0.0
O1026 O 0.0202 0.57692 0.57362 0.0
C1027 C 0.09931 0.56189 0.45764 0.0
C1028 C 0.12593 0.56604 0.48509 0.0
C1029 C 0.11416 0.56024 0.44303 0.0
N1030 N 0.10218 0.56872 0.5059 0.0
N1031 N 0.11816 0.57128 0.5222 0.0
C1032 C 0.08199 0.55578 0.42771 0.0
H1033 H 0.07484 0.56304 0.44147 0.0
H1034 H 0.08483 0.55827 0.38555 0.0
H1035 H 0.07287 0.54085 0.43351 0.0
C1036 C 0.0779 0.61491 0.53831 0.0
N1037 N 0.07403 0.59796 0.55217 0.0
N1038 N 0.0852 0.59378 0.52785 0.0
C1039 C 0.09618 0.60773 0.4963 0.0
C1040 C 0.09209 0.62172 0.5023 0.0
C1041 C 0.0693 0.62486 0.56309 0.0
H1042 H 0.06665 0.6212 0.60478 0.0
H1043 H 0.05599 0.62064 0.54394 0.0
H1044 H 0.07817 0.63992 0.55959 0.0
O1045 O 0.07104 0.57803 0.65732 0.0
O1046 O 0.09098 0.57171 0.61993 0.0
H1047 H 0.12073 0.6068 0.48184 0.0
H1048 H 0.11566 0.61892 0.43232 0.0
C1049 C 0.10969 0.60718 0.45949 0.0
H1050 H 0.10269 0.59463 0.43569 0.0
H1051 H 0.12351 0.57609 0.55912 0.0
O1052 O 0.04173 0.58917 0.63451 0.0
C1053 C 0.08404 0.57456 0.66029 0.0
Co1054 Co 0.418 0.46983 0.59071 0.0
Co1055 Co 0.42428 0.50531 0.53351 0.0
C1056 C 0.45315 0.49411 0.53665 0.0
O1057 O 0.44274 0.47926 0.5606 0.0
O1058 O 0.44782 0.50544 0.52574 0.0
C1059 C 0.41338 0.43386 0.60797 0.0
O1060 O 0.41999 0.43541 0.56083 0.0
C1061 C 0.43415 0.5288 0.4424 0.0
C1062 C 0.41724 0.54197 0.4495 0.0
C1063 C 0.42949 0.54036 0.41717 0.0
N1064 N 0.42511 0.52368 0.4878 0.0
N1065 N 0.41517 0.53178 0.49218 0.0
C1066 C 0.44507 0.52079 0.42032 0.0
H1067 H 0.45923 0.52857 0.43546 0.0
H1068 H 0.43901 0.50626 0.43213 0.0
H1069 H 0.44563 0.52162 0.37728 0.0
C1070 C 0.38528 0.45283 0.52399 0.0
N1071 N 0.40107 0.46731 0.53994 0.0
N1072 N 0.40422 0.48193 0.51339 0.0
C1073 C 0.3909 0.47695 0.47762 0.0
C1074 C 0.37831 0.45842 0.48368 0.0
C1075 C 0.37624 0.4346 0.55058 0.0
H1076 H 0.37893 0.43643 0.5929 0.0
H1077 H 0.38196 0.42622 0.535 0.0
H1078 H 0.36123 0.42716 0.5443 0.0
O1079 O 0.41855 0.48622 0.6451 0.0
O1080 O 0.42176 0.51139 0.60791 0.0
H1081 H 0.3874 0.49932 0.45362 0.0
H1082 H 0.38097 0.48171 0.40479 0.0
C1083 C 0.39085 0.48939 0.43618 0.0
H1084 H 0.40457 0.49696 0.41825 0.0
H1085 H 0.40641 0.52977 0.52326 0.0
O1086 O 0.411 0.44656 0.62592 0.0
C1087 C 0.41973 0.50182 0.64843 0.0
Co1088 Co 0.52214 0.93991 0.61116 0.0
Co1089 Co 0.48562 0.9163 0.55103 0.0
C1090 C 0.50639 0.958 0.54808 0.0
O1091 O 0.51926 0.95904 0.57634 0.0
O1092 O 0.49259 0.94251 0.53645 0.0
C1093 C 0.55861 0.96678 0.64428 0.0
O1094 O 0.55936 0.9755 0.60127 0.0
C1095 C 0.46602 0.9036 0.45366 0.0
C1096 C 0.43995 0.87926 0.47646 0.0
C1097 C 0.44969 0.88969 0.43405 0.0
N1098 N 0.46616 0.9013 0.50518 0.0
N1099 N 0.45056 0.88671 0.51869 0.0
C1100 C 0.48077 0.9196 0.4248 0.0
H1101 H 0.49329 0.92686 0.44887 0.0
H1102 H 0.48417 0.91512 0.38804 0.0
H1103 H 0.47583 0.9292 0.41482 0.0
C1104 C 0.53428 0.91946 0.54535 0.0
N1105 N 0.52129 0.92294 0.56277 0.0
N1106 N 0.50582 0.91245 0.53822 0.0
C1107 C 0.50848 0.90163 0.50487 0.0
C1108 C 0.5266 0.9059 0.50787 0.0
C1109 C 0.55393 0.9301 0.56143 0.0
H1110 H 0.55897 0.94493 0.55629 0.0
H1111 H 0.56268 0.9263 0.5385 0.0
H1112 H 0.55504 0.92767 0.60327 0.0
O1113 O 0.50286 0.92786 0.66376 0.0
O1114 O 0.47664 0.90974 0.62393 0.0
H1115 H 0.49755 0.87626 0.46229 0.0
H1116 H 0.49271 0.89297 0.43506 0.0
C1117 C 0.49395 0.88692 0.47196 0.0
H1118 H 0.48064 0.88042 0.49254 0.0
H1119 H 0.44713 0.8819 0.55672 0.0
O1120 O 0.54481 0.95109 0.65245 0.0
C1121 C 0.48583 0.91633 0.66542 0.0
Co1122 Co 0.24742 0.38579 0.22143 0.0
Co1123 Co 0.23298 0.40759 0.28577 0.0
C1124 C 0.21082 0.36679 0.27497 0.0
O1125 O 0.22321 0.36619 0.24797 0.0
O1126 O 0.21274 0.38197 0.29079 0.0
C1127 C 0.25427 0.35768 0.18228 0.0
O1128 O 0.24395 0.34778 0.22111 0.0
C1129 C 0.21708 0.41804 0.37128 0.0
C1130 C 0.23072 0.44812 0.36281 0.0
C1131 C 0.21825 0.43361 0.39273 0.0
N1132 N 0.22821 0.42294 0.32988 0.0
N1133 N 0.23623 0.44094 0.32474 0.0
C1134 C 0.20672 0.39903 0.39267 0.0
H1135 H 0.19304 0.39184 0.37416 0.0
H1136 H 0.21405 0.39146 0.38434 0.0
H1137 H 0.20476 0.39923 0.43526 0.0
C1138 C 0.2789 0.40537 0.29299 0.0
N1139 N 0.26202 0.4007 0.27623 0.0
N1140 N 0.25536 0.40889 0.3052 0.0
C1141 C 0.26741 0.41832 0.34302 0.0
C1142 C 0.28292 0.41675 0.33603 0.0
C1143 C 0.29136 0.40034 0.26516 0.0
H1144 H 0.28846 0.39901 0.22293 0.0
H1145 H 0.28894 0.38693 0.27987 0.0
H1146 H 0.30593 0.41076 0.27144 0.0
O1147 O 0.2445 0.40124 0.17031 0.0
O1148 O 0.23455 0.41712 0.21445 0.0
H1149 H 0.26558 0.44096 0.37365 0.0
H1150 H 0.27271 0.42985 0.42058 0.0
C1151 C 0.26359 0.42758 0.38701 0.0
H1152 H 0.24926 0.41899 0.40015 0.0
H1153 H 0.24576 0.44837 0.2958 0.0
O1154 O 0.25892 0.37449 0.18 0.0
C1155 C 0.23961 0.41323 0.17211 0.0
Co1156 Co 0.60995 0.85955 0.24588 0.0
Co1157 Co 0.5857 0.82159 0.29947 0.0
C1158 C 0.62679 0.83892 0.29149 0.0
O1159 O 0.62834 0.85295 0.26822 0.0
O1160 O 0.61117 0.82581 0.30515 0.0
C1161 C 0.63929 0.89424 0.21102 0.0
O1162 O 0.64891 0.89183 0.24706 0.0
C1163 C 0.57343 0.79737 0.38866 0.0
C1164 C 0.54734 0.77387 0.362 0.0
C1165 C 0.5591 0.78064 0.40394 0.0
N1166 N 0.57028 0.80065 0.33994 0.0
N1167 N 0.55465 0.78658 0.3241 0.0
C1168 C 0.5903 0.80971 0.41896 0.0
H1169 H 0.59723 0.82374 0.4024 0.0
H1170 H 0.58684 0.81016 0.46035 0.0
H1171 H 0.59982 0.80422 0.41726 0.0
C1172 C 0.5926 0.87122 0.3254 0.0
N1173 N 0.59524 0.85842 0.30223 0.0
N1174 N 0.58471 0.84242 0.32438 0.0
C1175 C 0.57491 0.84458 0.36232 0.0
C1176 C 0.57973 0.86288 0.36444 0.0
C1177 C 0.60235 0.89099 0.31032 0.0
H1178 H 0.6171 0.89581 0.30447 0.0
H1179 H 0.6007 0.89955 0.34024 0.0
H1180 H 0.59675 0.89251 0.27286 0.0
O1181 O 0.59457 0.84291 0.19093 0.0
O1182 O 0.57682 0.81586 0.22693 0.0
H1183 H 0.55053 0.8333 0.41004 0.0
H1184 H 0.56638 0.82561 0.42538 0.0
C1185 C 0.56012 0.82928 0.39313 0.0
H1186 H 0.5523 0.81711 0.36809 0.0
H1187 H 0.54904 0.78558 0.28731 0.0
O1188 O 0.62212 0.88342 0.20955 0.0
C1189 C 0.582 0.82629 0.18742 0.0
Co1190 Co 0.14073 0.7558 0.24386 0.0
Co1191 Co 0.17505 0.76458 0.31006 0.0
C1192 C 0.16209 0.79161 0.30109 0.0
O1193 O 0.14841 0.78079 0.27313 0.0
O1194 O 0.17349 0.78701 0.31723 0.0
C1195 C 0.10441 0.74883 0.21456 0.0
O1196 O 0.10396 0.75606 0.2594 0.0
C1197 C 0.20212 0.77682 0.39248 0.0
C1198 C 0.21495 0.75972 0.38061 0.0
C1199 C 0.21557 0.77356 0.41088 0.0
N1200 N 0.19399 0.7657 0.3521 0.0
N1201 N 0.20176 0.75556 0.34484 0.0
C1202 C 0.19639 0.78957 0.41499 0.0
H1203 H 0.18142 0.78375 0.41062 0.0
H1204 H 0.20006 0.79227 0.45672 0.0
H1205 H 0.20356 0.80277 0.39386 0.0
C1206 C 0.1243 0.72283 0.31171 0.0
N1207 N 0.13822 0.73918 0.29664 0.0
N1208 N 0.15236 0.74375 0.32701 0.0
C1209 C 0.14763 0.73105 0.36438 0.0
C1210 C 0.12975 0.71708 0.3555 0.0
C1211 C 0.10692 0.71232 0.28156 0.0
H1212 H 0.10949 0.71564 0.23967 0.0
H1213 H 0.09685 0.71621 0.29533 0.0
H1214 H 0.10103 0.69735 0.28654 0.0
O1215 O 0.15863 0.75755 0.19205 0.0
O1216 O 0.18289 0.7635 0.2392 0.0
H1217 H 0.16964 0.7289 0.3982 0.0
H1218 H 0.15147 0.7247 0.44325 0.0
C1219 C 0.15961 0.73312 0.40978 0.0
H1220 H 0.16723 0.74763 0.42219 0.0
H1221 H 0.19793 0.74567 0.3158 0.0
O1222 O 0.11813 0.74712 0.20336 0.0
C1223 C 0.17493 0.76063 0.19564 0.0
H1224 H 0.36829 0.10737 0.86563 0.0
H1225 H 0.32394 0.08696 0.75515 0.0
H1226 H 0.30206 0.07026 0.82428 0.0
H1227 H 0.29522 0.06658 0.91743 0.0
H1228 H 0.33951 0.08883 0.02836 0.0
H1229 H 0.3617 0.09921 0.95758 0.0
C1230 C 0.35387 0.09898 0.85644 0.0
C1231 C 0.3477 0.09881 0.80556 0.0
C1232 C 0.34132 0.08984 0.89659 0.0
C1233 C 0.32904 0.08755 0.7941 0.0
C1234 C 0.3165 0.07804 0.83369 0.0
C1235 C 0.30972 0.07327 0.92627 0.0
C1236 C 0.31569 0.07738 0.97816 0.0
C1237 C 0.32242 0.07985 0.88538 0.0
C1238 C 0.33452 0.08575 0.98881 0.0
C1239 C 0.34724 0.09182 0.9483 0.0
H1240 H 0.88531 0.26315 0.90311 0.0
H1241 H 0.91347 0.24658 0.79483 0.0
H1242 H 0.9275 0.23932 0.86695 0.0
H1243 H 0.92634 0.23154 0.95907 0.0
H1244 H 0.89613 0.24585 0.06663 0.0
H1245 H 0.88868 0.26049 -0.0034 0.0
C1246 C 0.89486 0.25836 0.8952 0.0
C1247 C 0.89791 0.25488 0.84371 0.0
C1248 C 0.90231 0.25355 0.93681 0.0
C1249 C 0.91065 0.2491 0.8341 0.0
C1250 C 0.91859 0.24483 0.87537 0.0
C1251 C 0.9185 0.23825 0.96753 0.0
C1252 C 0.91133 0.23711 0.01771 0.0
C1253 C 0.91368 0.24602 0.92673 0.0
C1254 C 0.90155 0.24623 0.02819 0.0
C1255 C 0.89719 0.25452 0.98806 0.0
H1256 H 0.78055 0.70435 0.91878 0.0
H1257 H 0.75854 0.66159 0.03453 0.0
H1258 H 0.74432 0.63854 0.96653 0.0
H1259 H 0.74278 0.63036 0.87457 0.0
H1260 H 0.76649 0.67308 0.75892 0.0
H1261 H 0.77507 0.69626 0.8265 0.0
C1262 C 0.7723 0.69003 0.9293 0.0
C1263 C 0.77095 0.68469 0.98166 0.0
C1264 C 0.76463 0.67679 0.8899 0.0
C1265 C 0.76003 0.66608 0.99451 0.0
C1266 C 0.75194 0.65286 0.9556 0.0
C1267 C 0.74946 0.64472 0.86393 0.0
C1268 C 0.75434 0.64997 0.81183 0.0
C1269 C 0.75487 0.65801 0.90314 0.0
C1270 C 0.76279 0.66864 0.79877 0.0
C1271 C 0.76778 0.68193 0.83745 0.0
H1272 H 0.08583 0.33022 0.68887 0.0
H1273 H 0.11134 0.37987 0.59791 0.0
H1274 H 0.09842 0.36224 0.51884 0.0
H1275 H 0.08536 0.33258 0.47463 0.0
H1276 H 0.06051 0.28288 0.56539 0.0
H1277 H 0.06728 0.30068 0.64509 0.0
C1278 C 0.08818 0.33723 0.65194 0.0
C1279 C 0.10001 0.35626 0.64919 0.0
C1280 C 0.08101 0.32698 0.60631 0.0
C1281 C 0.10259 0.36518 0.60111 0.0
C1282 C 0.09526 0.3551 0.55571 0.0
C1283 C 0.08099 0.32561 0.51173 0.0
C1284 C 0.07299 0.30647 0.51408 0.0
C1285 C 0.0853 0.33594 0.55761 0.0
C1286 C 0.06704 0.29764 0.56242 0.0
C1287 C 0.07099 0.30782 0.60817 0.0
H1288 H 0.66491 0.75424 0.69716 0.0
H1289 H 0.61513 0.73144 0.60722 0.0
H1290 H 0.6321 0.73344 0.52862 0.0
H1291 H 0.66157 0.74725 0.48357 0.0
H1292 H 0.71153 0.77098 0.57283 0.0
H1293 H 0.69395 0.76252 0.65328 0.0
C1294 C 0.65771 0.74929 0.66062 0.0
C1295 C 0.63889 0.74324 0.65786 0.0
C1296 C 0.66761 0.75081 0.61515 0.0
C1297 C 0.62971 0.73656 0.61031 0.0
C1298 C 0.63939 0.73772 0.5652 0.0
C1299 C 0.66862 0.75013 0.52057 0.0
C1300 C 0.68783 0.76024 0.52209 0.0
C1301 C 0.65846 0.7457 0.56678 0.0
C1302 C 0.69673 0.76351 0.57042 0.0
C1303 C 0.68669 0.75878 0.61659 0.0
H1304 H 0.24583 0.91701 0.67371 0.0
H1305 H 0.26222 0.88311 0.58992 0.0
H1306 H 0.25847 0.89508 0.50778 0.0
H1307 H 0.24398 0.90973 0.46046 0.0
H1308 H 0.22707 0.94321 0.54426 0.0
H1309 H 0.23807 0.93726 0.62513 0.0
C1310 C 0.24906 0.91261 0.63758 0.0
C1311 C 0.25363 0.8987 0.63796 0.0
C1312 C 0.24655 0.9193 0.59022 0.0
C1313 C 0.25824 0.89349 0.59081 0.0
C1314 C 0.25604 0.90029 0.54364 0.0
C1315 C 0.2432 0.91618 0.49611 0.0
C1316 C 0.23409 0.9263 0.49656 0.0
C1317 C 0.24916 0.91236 0.54287 0.0
C1318 C 0.23361 0.93495 0.54293 0.0
C1319 C 0.23982 0.93148 0.5894 0.0
H1320 H 0.67576 0.91733 0.19636 0.0
H1321 H 0.62364 0.89462 0.1183 0.0
H1322 H 0.63908 0.90375 0.03458 0.0
H1323 H 0.66685 0.91237 0.98333 0.0
H1324 H 0.71891 0.93481 0.06167 0.0
H1325 H 0.70404 0.9319 0.14496 0.0
C1326 C 0.66778 0.91482 0.16118 0.0
C1327 C 0.64857 0.90481 0.16363 0.0
C1328 C 0.67672 0.91978 0.11289 0.0
C1329 C 0.63846 0.90203 0.11768 0.0
C1330 C 0.64728 0.90714 0.06957 0.0
C1331 C 0.67502 0.91706 0.01844 0.0
C1332 C 0.69388 0.92324 0.01628 0.0
C1333 C 0.66634 0.91511 0.06659 0.0
C1334 C 0.70429 0.92962 0.06213 0.0
C1335 C 0.69579 0.92792 0.10999 0.0
H1336 H 0.0761 0.75595 -0.00077 0.0
H1337 H 0.05633 0.78525 0.09176 0.0
H1338 H 0.06247 0.77349 0.171 0.0
H1339 H 0.0798 0.76081 0.21309 0.0
H1340 H 0.10078 0.73266 0.12019 0.0
H1341 H 0.08746 0.73769 0.04246 0.0
C1342 C 0.07262 0.75933 0.03663 0.0
C1343 C 0.06637 0.77195 0.0396 0.0
C1344 C 0.0767 0.75297 0.0822 0.0
C1345 C 0.06159 0.7759 0.08838 0.0
C1346 C 0.06516 0.76924 0.13384 0.0
C1347 C 0.08099 0.75529 0.17613 0.0
C1348 C 0.09177 0.74693 0.17217 0.0
C1349 C 0.07374 0.75869 0.1312 0.0
C1350 C 0.09291 0.73957 0.12411 0.0
C1351 C 0.08535 0.74249 0.07951 0.0
H1352 H 0.24164 0.33001 0.95474 0.0
H1353 H 0.21493 0.27793 0.03406 0.0
H1354 H 0.22829 0.29305 0.11604 0.0
H1355 H 0.24208 0.32139 0.1672 0.0
H1356 H 0.26848 0.37352 0.08819 0.0
H1357 H 0.26116 0.35802 0.00448 0.0
C1358 C 0.23913 0.32191 0.98967 0.0
C1359 C 0.2268 0.30295 0.98843 0.0
C1360 C 0.24662 0.33072 0.03712 0.0
C1361 C 0.22404 0.29262 0.03394 0.0
C1362 C 0.23163 0.30126 0.08106 0.0
C1363 C 0.2467 0.32937 0.13175 0.0
C1364 C 0.25525 0.34856 0.13407 0.0
C1365 C 0.2421 0.32038 0.08352 0.0
C1366 C 0.26151 0.3587 0.08769 0.0
C1367 C 0.25724 0.34984 0.03961 0.0
H1368 H 0.93812 0.70058 0.45699 0.0
H1369 H 0.90799 0.65686 0.56654 0.0
H1370 H 0.90098 0.63428 0.4981 0.0
H1371 H 0.89773 0.62753 0.40485 0.0
H1372 H 0.92593 0.67147 0.29458 0.0
H1373 H 0.93967 0.6933 0.36568 0.0
C1374 C 0.9304 0.6861 0.46625 0.0
C1375 C 0.9231 0.68043 0.51643 0.0
C1376 C 0.92583 0.67321 0.42632 0.0
C1377 C 0.91352 0.66163 0.52806 0.0
C1378 C 0.90939 0.64868 0.48881 0.0
C1379 C 0.90724 0.64181 0.39631 0.0
C1380 C 0.91034 0.64795 0.34448 0.0
C1381 C 0.91456 0.65439 0.43733 0.0
C1382 C 0.92303 0.66642 0.33411 0.0
C1383 C 0.93082 0.67894 0.37478 0.0
H1384 H 0.36696 0.26897 0.37787 0.0
H1385 H 0.32487 0.24779 0.26031 0.0
H1386 H 0.30139 0.23779 0.32744 0.0
H1387 H 0.29299 0.22912 0.41839 0.0
H1388 H 0.33514 0.24834 0.5356 0.0
H1389 H 0.35838 0.26532 0.46982 0.0
C1390 C 0.35267 0.26259 0.36681 0.0
C1391 C 0.34765 0.25859 0.31426 0.0
C1392 C 0.33923 0.25623 0.40564 0.0
C1393 C 0.32911 0.25074 0.30052 0.0
C1394 C 0.31565 0.24489 0.33894 0.0
C1395 C 0.30722 0.23736 0.42976 0.0
C1396 C 0.31241 0.23702 0.48149 0.0
C1397 C 0.32055 0.24659 0.39154 0.0
C1398 C 0.33081 0.24812 0.49589 0.0
C1399 C 0.34413 0.25777 0.45822 0.0
H1400 H 0.74592 0.07829 0.50633 0.0
H1401 H 0.77408 0.05635 0.41751 0.0
H1402 H 0.76223 0.06159 0.33718 0.0
H1403 H 0.74988 0.07874 0.29236 0.0
H1404 H 0.72233 0.10133 0.38123 0.0
H1405 H 0.72754 0.08909 0.46085 0.0
C1406 C 0.74903 0.07415 0.46955 0.0
C1407 C 0.76141 0.06759 0.46785 0.0
C1408 C 0.74252 0.07759 0.42323 0.0
C1409 C 0.76495 0.06189 0.41991 0.0
C1410 C 0.75823 0.06494 0.3738 0.0
C1411 C 0.74455 0.08054 0.32891 0.0
C1412 C 0.73635 0.09151 0.33101 0.0
C1413 C 0.74795 0.07382 0.3749 0.0
C1414 C 0.72911 0.09331 0.37856 0.0
C1415 C 0.73215 0.08638 0.4243 0.0
H1416 H 0.00507 0.41439 0.18235 0.0
H1417 H 0.05411 0.44855 0.27025 0.0
H1418 H 0.037 0.43784 0.35108 0.0
H1419 H 0.00714 0.42451 0.39446 0.0
H1420 H 0.958 0.39116 0.30611 0.0
H1421 H 0.97617 0.39543 0.22837 0.0
C1422 C 0.01213 0.4191 0.21919 0.0
C1423 C 0.03066 0.43274 0.22015 0.0
C1424 C 0.00212 0.41324 0.26564 0.0
C1425 C 0.03971 0.43836 0.26828 0.0
C1426 C 0.02992 0.4323 0.31466 0.0
C1427 C 0.00043 0.41771 0.35863 0.0
C1428 C 0.98124 0.40812 0.35564 0.0
C1429 C 0.01093 0.42062 0.31358 0.0
C1430 C 0.97277 0.39904 0.30916 0.0
C1431 C 0.98314 0.40153 0.26452 0.0
H1432 H 0.59409 0.56235 0.26643 0.0
H1433 H 0.56756 0.57909 0.37991 0.0
H1434 H 0.55975 0.59418 0.31203 0.0
H1435 H 0.55552 0.59749 0.2194 0.0
H1436 H 0.58027 0.5789 0.10544 0.0
H1437 H 0.59407 0.57011 0.17468 0.0
C1438 C 0.58694 0.56963 0.27658 0.0
C1439 C 0.58102 0.56919 0.32802 0.0
C1440 C 0.582 0.57781 0.23712 0.0
C1441 C 0.57205 0.57897 0.34054 0.0
C1442 C 0.56751 0.58755 0.30168 0.0
C1443 C 0.56429 0.59192 0.20957 0.0
C1444 C 0.56646 0.58843 0.15728 0.0
C1445 C 0.57165 0.58628 0.24957 0.0
C1446 C 0.57813 0.5815 0.14533 0.0
C1447 C 0.58595 0.57635 0.18496 0.0
H1448 H 0.41753 0.00104 0.35977 0.0
H1449 H 0.44353 0.0482 0.25901 0.0
H1450 H 0.42992 0.02867 0.18337 0.0
H1451 H 0.41623 0.99791 0.14558 0.0
H1452 H 0.39127 0.9507 0.24636 0.0
H1453 H 0.39852 0.97055 0.32191 0.0
C1454 C 0.41981 0.00713 0.32143 0.0
C1455 C 0.432 0.02596 0.31496 0.0
C1456 C 0.41236 0.99576 0.27786 0.0
C1457 C 0.43452 0.03366 0.26505 0.0
C1458 C 0.4268 0.02249 0.22164 0.0
C1459 C 0.41195 0.99193 0.18392 0.0
C1460 C 0.40376 0.97289 0.1904 0.0
C1461 C 0.41658 0.00344 0.22744 0.0
C1462 C 0.39795 0.96535 0.24028 0.0
C1463 C 0.40216 0.9767 0.28365 0.0
H1464 H 0.55657 0.95424 0.74264 0.0
H1465 H 0.58697 0.00217 0.64675 0.0
H1466 H 0.59901 0.02113 0.72433 0.0
H1467 H 0.59482 0.02487 0.81662 0.0
H1468 H 0.56147 0.97732 0.91115 0.0
H1469 H 0.55708 0.95741 0.83715 0.0
C1470 C 0.56621 0.96876 0.73858 0.0
C1471 C 0.57037 0.97689 0.68895 0.0
C1472 C 0.57233 0.9797 0.78326 0.0
C1473 C 0.58323 0.99562 0.68447 0.0
C1474 C 0.59005 0.0065 0.72887 0.0
C1475 C 0.58697 0.01013 0.8215 0.0
C1476 C 0.57796 0.00261 0.86886 0.0
C1477 C 0.58373 -0.00116 0.77818 0.0
C1478 C 0.56826 0.98349 0.87486 0.0
C1479 C 0.56563 0.97209 0.83241 0.0
H1480 H 0.95961 0.55408 0.77026 0.0
H1481 H 0.00356 0.57975 0.88159 0.0
H1482 H 0.02524 0.59564 0.81142 0.0
H1483 H 0.03245 0.59723 0.71872 0.0
H1484 H 0.98876 0.56974 0.60745 0.0
H1485 H 0.96624 0.55999 0.67731 0.0
C1486 C 0.97386 0.56346 0.77936 0.0
C1487 C 0.98003 0.56532 0.83101 0.0
C1488 C 0.98636 0.57209 0.73871 0.0
C1489 C -0.00153 0.57782 0.84214 0.0
C1490 C 0.01091 0.58686 0.80197 0.0
C1491 C 0.01798 0.58948 0.70951 0.0
C1492 C 0.01233 0.58379 0.65805 0.0
C1493 C 0.00514 0.58333 0.75005 0.0
C1494 C 0.99352 0.57408 0.64676 0.0
C1495 C 0.98062 0.56838 0.68678 0.0
H1496 H 0.43835 0.39253 0.75437 0.0
H1497 H 0.41299 0.41104 0.86654 0.0
H1498 H 0.39823 0.41833 0.79655 0.0
H1499 H 0.39885 0.42631 0.70486 0.0
H1500 H 0.42665 0.41044 0.59321 0.0
H1501 H 0.4338 0.39494 0.66147 0.0
C1502 C 0.4292 0.3977 0.76365 0.0
C1503 C 0.4273 0.40187 0.81546 0.0
C1504 C 0.42146 0.40266 0.72316 0.0
C1505 C 0.41499 0.40805 0.82693 0.0
C1506 C 0.40665 0.41237 0.78685 0.0
C1507 C 0.4061 0.41908 0.69519 0.0
C1508 C 0.41276 0.42005 0.64444 0.0
C1509 C 0.41079 0.41084 0.73492 0.0
C1510 C 0.42166 0.41019 0.63217 0.0
C1511 C 0.42585 0.40141 0.67127 0.0
H1512 H 0.29342 0.14779 0.15369 0.0
H1513 H 0.32632 0.1279 0.0805 0.0
H1514 H 0.35412 0.15513 0.10898 0.0
H1515 H 0.36915 0.18471 0.15356 0.0
H1516 H 0.3365 0.20515 0.22487 0.0
H1517 H 0.30859 0.17742 0.19898 0.0
C1518 C 0.30666 0.1494 0.14391 0.0
C1519 C 0.30771 0.1358 0.11475 0.0
C1520 C 0.32267 0.16515 0.16028 0.0
C1521 C 0.32503 0.13813 0.10273 0.0
C1522 C 0.34098 0.15371 0.11905 0.0
C1523 C 0.35597 0.18319 0.16324 0.0
C1524 C 0.35501 0.19713 0.19066 0.0
C1525 C 0.33996 0.16733 0.14764 0.0
C1526 C 0.33771 0.19469 0.20369 0.0
C1527 C 0.32171 0.17885 0.18876 0.0
H1528 H 0.79475 0.13935 0.21951 0.0
H1529 H 0.80617 0.19105 0.15289 0.0
H1530 H 0.83592 0.19659 0.12341 0.0
H1531 H 0.85865 0.18688 0.1158 0.0
H1532 H 0.84763 0.13526 0.18182 0.0
H1533 H 0.81779 0.12964 0.21213 0.0
C1534 C 0.80375 0.15184 0.19863 0.0
C1535 C 0.79817 0.16475 0.1886 0.0
C1536 C 0.82092 0.15498 0.18153 0.0
C1537 C 0.81005 0.18086 0.16137 0.0
C1538 C 0.8271 0.18406 0.14437 0.0
C1539 C 0.84976 0.17438 0.13683 0.0
C1540 C 0.8554 0.16151 0.14635 0.0
C1541 C 0.83266 0.17122 0.15414 0.0
C1542 C 0.84364 0.1454 0.17374 0.0
C1543 C 0.82657 0.14217 0.19116 0.0
H1544 H 0.82689 0.6351 0.13754 0.0
H1545 H 0.86972 0.66406 0.24999 0.0
H1546 H 0.87117 0.69284 0.22563 0.0
H1547 H 0.85982 0.70961 0.17278 0.0
H1548 H 0.81683 0.67978 0.06089 0.0
H1549 H 0.81611 0.65152 0.08436 0.0
C1550 C 0.83657 0.64763 0.15684 0.0
C1551 C 0.8481 0.6473 0.19565 0.0
C1552 C 0.83737 0.66404 0.14254 0.0
C1553 C 0.8606 0.66384 0.22004 0.0
C1554 C 0.86147 0.68032 0.20606 0.0
C1555 C 0.85036 0.69696 0.15338 0.0
C1556 C 0.83837 0.6969 0.11524 0.0
C1557 C 0.84987 0.68057 0.16736 0.0
C1558 C 0.82621 0.68032 0.09048 0.0
C1559 C 0.82573 0.66409 0.10391 0.0
H1560 H 0.14506 0.28755 0.32441 0.0
H1561 H 0.12716 0.31951 0.41211 0.0
H1562 H 0.15459 0.34758 0.38606 0.0
H1563 H 0.18294 0.36309 0.33623 0.0
H1564 H 0.2012 0.33153 0.24838 0.0
H1565 H 0.17404 0.30322 0.27579 0.0
C1566 C 0.14713 0.30063 0.33788 0.0
C1567 C 0.13393 0.30134 0.36989 0.0
C1568 C 0.16287 0.3168 0.32228 0.0
C1569 C 0.13702 0.31847 0.38744 0.0
C1570 C 0.15268 0.33457 0.37237 0.0
C1571 C 0.18108 0.35008 0.3231 0.0
C1572 C 0.19416 0.34953 0.29024 0.0
C1573 C 0.16557 0.3339 0.33937 0.0
C1574 C 0.19137 0.33242 0.27358 0.0
C1575 C 0.17586 0.31621 0.28937 0.0
H1576 H 0.70478 0.8472 0.32361 0.0
H1577 H 0.67315 0.7987 0.4164 0.0
H1578 H 0.6452 0.79927 0.39532 0.0
H1579 H 0.62974 0.81366 0.35095 0.0
H1580 H 0.66169 0.86235 0.25903 0.0
H1581 H 0.68944 0.86149 0.27943 0.0
C1582 C 0.6918 0.83673 0.33934 0.0
C1583 C 0.69114 0.82295 0.37166 0.0
C1584 C 0.67578 0.83714 0.32718 0.0
C1585 C 0.67412 0.80951 0.39151 0.0
C1586 C 0.65811 0.8098 0.37944 0.0
C1587 C 0.64275 0.82405 0.33521 0.0
C1588 C 0.64355 0.83803 0.30344 0.0
C1589 C 0.65877 0.82357 0.34733 0.0
C1590 C 0.6606 0.85143 0.28365 0.0
C1591 C 0.67652 0.85097 0.29528 0.0
H1592 H 0.18705 0.87149 0.38091 0.0
H1593 H 0.13411 0.85823 0.32054 0.0
H1594 H 0.12882 0.82825 0.29266 0.0
H1595 H 0.13905 0.80546 0.28686 0.0
H1596 H 0.19222 0.8194 0.3471 0.0
H1597 H 0.19746 0.84929 0.37356 0.0
C1598 C 0.17435 0.86209 0.36156 0.0
C1599 C 0.161 0.86715 0.35309 0.0
C1600 C 0.17136 0.84488 0.3457 0.0
C1601 C 0.14464 0.85473 0.3278 0.0
C1602 C 0.14158 0.83755 0.31179 0.0
C1603 C 0.1518 0.81505 0.30563 0.0
C1604 C 0.16511 0.81 0.31541 0.0
C1605 C 0.15482 0.83242 0.32076 0.0
C1606 C 0.18158 0.82269 0.33971 0.0
C1607 C 0.18466 0.8399 0.35472 0.0
H1608 H 0.67633 0.86683 0.88169 0.0
H1609 H 0.71184 0.85132 0.80295 0.0
H1610 H 0.68549 0.82287 0.77459 0.0
H1611 H 0.65242 0.80185 0.77365 0.0
H1612 H 0.61666 0.81717 0.85143 0.0
H1613 H 0.64298 0.84602 0.8786 0.0
C1614 C 0.67831 0.85726 0.85821 0.0
C1615 C 0.69612 0.86131 0.84464 0.0
C1616 C 0.66302 0.84075 0.84197 0.0
C1617 C 0.69835 0.84869 0.81403 0.0
C1618 C 0.68326 0.83233 0.79778 0.0
C1619 C 0.65034 0.8115 0.7964 0.0
C1620 C 0.63253 0.80716 0.81086 0.0
C1621 C 0.66554 0.82815 0.81176 0.0
C1622 C 0.63018 0.81995 0.84024 0.0
C1623 C 0.64525 0.83654 0.8557 0.0
H1624 H 0.14173 0.85459 0.82624 0.0
H1625 H 0.12365 0.80883 0.93116 0.0
H1626 H 0.14987 0.80556 0.90659 0.0
H1627 H 0.17801 0.81572 0.8554 0.0
H1628 H 0.19577 0.86143 0.75022 0.0
H1629 H 0.16955 0.86456 0.77477 0.0
C1630 C 0.14346 0.84388 0.84381 0.0
C1631 C 0.13066 0.832 0.88059 0.0
C1632 C 0.15853 0.84202 0.82938 0.0
C1633 C 0.13324 0.81821 0.90281 0.0
C1634 C 0.14825 0.81631 0.88874 0.0
C1635 C 0.17614 0.82635 0.83769 0.0
C1636 C 0.18893 0.8383 0.80091 0.0
C1637 C 0.16099 0.82813 0.85203 0.0
C1638 C 0.18623 0.85201 0.77859 0.0
C1639 C 0.17121 0.85384 0.79263 0.0
H1640 H 0.18316 0.31961 0.87597 0.0
H1641 H 0.13025 0.28423 0.80742 0.0
H1642 H 0.12791 0.31067 0.78142 0.0
H1643 H 0.14084 0.3438 0.77678 0.0
H1644 H 0.19341 0.37962 0.84644 0.0
H1645 H 0.1958 0.3531 0.87349 0.0
C1646 C 0.1711 0.31767 0.85547 0.0
C1647 C 0.15699 0.29984 0.8433 0.0
C1648 C 0.16974 0.33305 0.84076 0.0
C1649 C 0.14144 0.29769 0.81689 0.0
C1650 C 0.14004 0.31285 0.80205 0.0
C1651 C 0.15285 0.34587 0.7979 0.0
C1652 C 0.16695 0.36373 0.80922 0.0
C1653 C 0.15413 0.33059 0.8135 0.0
C1654 C 0.18234 0.36605 0.837 0.0
C1655 C 0.18373 0.35087 0.8525 0.0
H1656 H 0.79993 0.65265 0.69015 0.0
H1657 H 0.818 0.61468 0.64715 0.0
H1658 H 0.84726 0.64012 0.61763 0.0
H1659 H 0.86789 0.67321 0.60578 0.0
H1660 H 0.84893 0.71075 0.64566 0.0
H1661 H 0.81984 0.68535 0.67466 0.0
C1662 C 0.81028 0.64991 0.6745 0.0
C1663 C 0.80686 0.63182 0.67137 0.0
C1664 C 0.82692 0.66452 0.65706 0.0
C1665 C 0.82032 0.6285 0.65021 0.0
C1666 C 0.83704 0.64303 0.6333 0.0
C1667 C 0.85737 0.67584 0.62055 0.0
C1668 C 0.86077 0.69394 0.62437 0.0
C1669 C 0.84052 0.66111 0.63671 0.0
C1670 C 0.84689 0.69704 0.64327 0.0
C1671 C 0.83018 0.6825 0.65969 0.0
H1672 H 0.3212 0.19057 0.58808 0.0
H1673 H 0.28298 0.13689 0.64754 0.0
H1674 H 0.30819 0.13307 0.6778 0.0
H1675 H 0.34106 0.14481 0.6876 0.0
H1676 H 0.37948 0.19835 0.62787 0.0
H1677 H 0.35427 0.20225 0.5973 0.0
C1678 C 0.31838 0.17802 0.60753 0.0
C1679 C 0.30015 0.16413 0.61587 0.0
C1680 C 0.333 0.17583 0.62475 0.0
C1681 C 0.29681 0.14795 0.64116 0.0
C1682 C 0.31125 0.14569 0.65836 0.0
C1683 C 0.34396 0.15737 0.66801 0.0
C1684 C 0.36219 0.17122 0.65995 0.0
C1685 C 0.32939 0.15955 0.65053 0.0
C1686 C 0.36562 0.18736 0.63426 0.0
C1687 C 0.35119 0.18965 0.61686 0.0
H1688 H 0.81237 0.18281 0.63536 0.0
H1689 H 0.86061 0.2018 0.73061 0.0
H1690 H 0.86307 0.17521 0.70531 0.0
H1691 H 0.85113 0.14617 0.65813 0.0
H1692 H 0.8026 0.12686 0.56403 0.0
H1693 H 0.80083 0.15407 0.58653 0.0
C1694 C 0.82347 0.18121 0.65048 0.0
C1695 C 0.83623 0.19434 0.68506 0.0
C1696 C 0.82479 0.16581 0.63595 0.0
C1697 C 0.85053 0.19194 0.70413 0.0
C1698 C 0.85197 0.17672 0.68965 0.0
C1699 C 0.84017 0.14788 0.64238 0.0
C1700 C 0.82698 0.13435 0.60959 0.0
C1701 C 0.83911 0.1635 0.65589 0.0
C1702 C 0.81294 0.13696 0.58943 0.0
C1703 C 0.81189 0.15254 0.60235 0.0
H1704 H 0.98993 0.46665 0.45717 0.0
H1705 H 0.95062 0.48353 0.49486 0.0
H1706 H 0.97522 0.51331 0.52317 0.0
H1707 H 0.00789 0.53437 0.53943 0.0
H1708 H 0.04718 0.51764 0.49989 0.0
H1709 H 0.02261 0.48813 0.46993 0.0
C1710 C 0.98672 0.47686 0.47125 0.0
C1711 C 0.96839 0.4727 0.47452 0.0
C1712 C 0.00095 0.49403 0.48732 0.0
C1713 C 0.96456 0.48619 0.49269 0.0
C1714 C 0.97864 0.50328 0.50879 0.0
C1715 C 0.01108 0.52428 0.52428 0.0
C1716 C 0.02936 0.52824 0.52225 0.0
C1717 C 0.99688 0.50729 0.50681 0.0
C1718 C 0.03324 0.51502 0.502 0.0
C1719 C 0.01919 0.49809 0.48485 0.0
H1720 H 0.53224 0.52175 0.44553 0.0
H1721 H 0.5206 0.46843 0.49883 0.0
H1722 H 0.49083 0.46225 0.53112 0.0
H1723 H 0.46791 0.47181 0.54328 0.0
H1724 H 0.48006 0.52552 0.49218 0.0
H1725 H 0.50976 0.53164 0.46001 0.0
C1726 C 0.52319 0.50875 0.46407 0.0
C1727 C 0.52864 0.49554 0.46937 0.0
C1728 C 0.50614 0.50532 0.48298 0.0
C1729 C 0.51677 0.47884 0.49403 0.0
C1730 C 0.49973 0.47529 0.51257 0.0
C1731 C 0.47707 0.48489 0.5253 0.0
C1732 C 0.47159 0.49808 0.51964 0.0
C1733 C 0.49425 0.48841 0.50717 0.0
C1734 C 0.48373 0.51498 0.49639 0.0
C1735 C 0.50078 0.51854 0.4781 0.0
H1736 H 0.48166 0.96201 0.48856 0.0
H1737 H 0.5339 0.99293 0.56545 0.0
H1738 H 0.53588 0.02143 0.5377 0.0
H1739 H 0.52272 0.03774 0.49355 0.0
H1740 H 0.47035 0.00741 0.4174 0.0
H1741 H 0.46864 0.97861 0.44249 0.0
C1742 C 0.49349 0.97497 0.49916 0.0
C1743 C 0.50755 0.97522 0.52934 0.0
C1744 C 0.49457 0.99147 0.48319 0.0
C1745 C 0.52281 0.99221 0.54246 0.0
C1746 C 0.52399 0.00858 0.52659 0.0
C1747 C 0.51089 0.02486 0.48242 0.0
C1748 C 0.49664 0.02482 0.45391 0.0
C1749 C 0.50992 0.00838 0.49728 0.0
C1750 C 0.48153 0.00792 0.4394 0.0
C1751 C 0.48052 0.99141 0.45384 0.0
H1752 H 0.45644 0.9814 0.06432 0.0
H1753 H 0.46897 0.94098 0.00448 0.0
H1754 H 0.49827 0.96514 0.97219 0.0
H1755 H 0.52042 0.99763 0.96082 0.0
H1756 H 0.50819 0.0383 0.02012 0.0
H1757 H 0.47874 0.01414 0.05254 0.0
C1758 C 0.46559 0.97787 0.04436 0.0
C1759 C 0.46044 0.95936 0.03692 0.0
C1760 C 0.4825 0.99187 0.02562 0.0
C1761 C 0.47249 0.95508 0.01072 0.0
C1762 C 0.4893 0.9689 0.99219 0.0
C1763 C 0.51133 0.00126 0.98076 0.0
C1764 C 0.51655 0.01978 0.98789 0.0
C1765 C 0.49443 0.98732 -0.00063 0.0
C1766 C 0.50454 0.02416 0.01387 0.0
C1767 C 0.48769 0.01035 0.03256 0.0
H1768 H 0.03832 0.5126 0.99489 0.0
H1769 H 0.00969 0.46789 0.10266 0.0
H1770 H 0.98065 0.46557 0.07814 0.0
H1771 H 0.96335 0.47646 0.02684 0.0
H1772 H 0.99221 0.52134 0.91968 0.0
H1773 H 0.02108 0.52325 0.94325 0.0
C1774 C 0.02575 0.50233 0.01312 0.0
C1775 C 0.02628 0.49049 0.05074 0.0
C1776 C 0.00907 0.50106 -0.00109 0.0
C1777 C 0.00977 0.47723 0.07366 0.0
C1778 C 0.99312 0.47588 0.05965 0.0
C1779 C 0.97592 0.48662 0.00848 0.0
C1780 C 0.9755 0.49872 0.9715 0.0
C1781 C 0.99259 0.48775 0.0224 0.0
C1782 C 0.99202 0.51183 0.94827 0.0
C1783 C 0.0086 0.51296 0.96175 0.0
H1784 H 0.47506 0.51432 0.98287 0.0
H1785 H 0.52969 0.53953 0.04643 0.0
H1786 H 0.53285 0.51386 0.01651 0.0
H1787 H 0.5203 0.48434 0.97259 0.0
H1788 H 0.46557 0.45854 0.91001 0.0
H1789 H 0.4625 0.4846 0.93802 0.0
C1790 C 0.48769 0.51426 0.98996 0.0
C1791 C 0.5021 0.52893 0.01683 0.0
C1792 C 0.48948 0.49941 0.97251 0.0
C1793 C 0.51831 0.52847 0.026 0.0
C1794 C 0.52019 0.5138 0.00877 0.0
C1795 C 0.50764 0.48431 0.96526 0.0
C1796 C 0.49315 0.46937 0.93964 0.0
C1797 C 0.50587 0.4992 0.98206 0.0
C1798 C 0.47698 0.46982 0.92968 0.0
C1799 C 0.47517 0.4847 0.94587 0.0
H1800 H 0.22257 0.10168 0.95566 0.0
H1801 H 0.25895 0.08477 0.88933 0.0
H1802 H 0.24976 0.08792 0.80251 0.0
H1803 H 0.23411 0.09861 0.7452 0.0
H1804 H 0.19856 0.11666 0.80877 0.0
H1805 H 0.20423 0.10944 0.89691 0.0
C1806 C 0.22836 0.09855 0.92221 0.0
C1807 C 0.24167 0.09331 0.92915 0.0
C1808 C 0.22308 0.10048 0.87193 0.0
C1809 C 0.24886 0.08907 0.88534 0.0
C1810 C 0.24359 0.09081 0.83552 0.0
C1811 C 0.22729 0.10051 0.77842 0.0
C1812 C 0.21605 0.10814 0.77123 0.0
C1813 C 0.23107 0.0969 0.8284 0.0
C1814 C 0.20717 0.11063 0.81392 0.0
C1815 C 0.21061 0.10672 0.86414 0.0
H1816 H 0.89719 0.12294 0.97414 0.0
H1817 H 0.90948 0.17653 0.92084 0.0
H1818 H 0.90516 0.16611 0.83147 0.0
H1819 H 0.8953 0.14129 0.76858 0.0
H1820 H 0.88263 0.08757 0.8194 0.0
H1821 H 0.89009 0.09858 0.90927 0.0
C1822 C 0.89911 0.13237 0.94294 0.0
C1823 C 0.90336 0.1504 0.95451 0.0
C1824 C 0.89653 0.12628 0.89109 0.0
C1825 C 0.90598 0.1625 0.91342 0.0
C1826 C 0.90353 0.15659 0.86208 0.0
C1827 C 0.89435 0.13208 0.7994 0.0
C1828 C 0.88818 0.11366 0.78803 0.0
C1829 C 0.89839 0.13844 0.85059 0.0
C1830 C 0.88734 0.10184 0.82766 0.0
C1831 C 0.89146 0.1081 0.87896 0.0
H1832 H 0.90495 0.79188 0.81203 0.0
H1833 H 0.85351 0.76413 0.7309 0.0
H1834 H 0.8369 0.7583 0.81303 0.0
H1835 H 0.83715 0.75722 0.90758 0.0
H1836 H 0.88851 0.78312 0.99022 0.0
H1837 H 0.90507 0.79385 0.90801 0.0
C1838 C 0.89013 0.78513 0.81257 0.0
C1839 C 0.88035 0.77857 0.766 0.0
C1840 C 0.88071 0.78123 0.86014 0.0
C1841 C 0.86118 0.76944 0.76659 0.0
C1842 C 0.85173 0.76597 0.81346 0.0
C1843 C 0.85196 0.76542 0.90781 0.0
C1844 C 0.86158 0.76907 0.95495 0.0
C1845 C 0.86136 0.77118 0.86052 0.0
C1846 C 0.88076 0.77998 0.95447 0.0
C1847 C 0.89025 0.78607 0.90744 0.0
H1848 H 0.06746 0.23496 0.56496 0.0
H1849 H 0.09571 0.21194 0.4815 0.0
H1850 H 0.09978 0.1992 0.56225 0.0
H1851 H 0.10036 0.19978 0.65797 0.0
H1852 H 0.07437 0.22508 0.74077 0.0
H1853 H 0.06394 0.23144 0.6589 0.0
C1854 C 0.07426 0.22691 0.56425 0.0
C1855 C 0.0817 0.2248 0.51766 0.0
C1856 C 0.07693 0.22005 0.6108 0.0
C1857 C 0.09008 0.21398 0.51709 0.0
C1858 C 0.09246 0.20673 0.56324 0.0
C1859 C 0.09177 0.20599 0.65779 0.0
C1860 C 0.08794 0.2119 0.70458 0.0
C1861 C 0.08664 0.21037 0.61055 0.0
C1862 C 0.0772 0.22031 0.70472 0.0
C1863 C 0.07146 0.22411 0.65804 0.0
H1864 H 0.78812 0.89859 0.66164 0.0
H1865 H 0.76973 0.84978 0.75312 0.0
H1866 H 0.76196 0.83118 0.67392 0.0
H1867 H 0.75662 0.82869 0.57966 0.0
H1868 H 0.77489 0.87786 0.4887 0.0
H1869 H 0.78672 0.89652 0.56658 0.0
C1870 C 0.78295 0.88395 0.6638 0.0
C1871 C 0.77952 0.87541 0.71229 0.0
C1872 C 0.77824 0.87345 0.61841 0.0
C1873 C 0.77262 0.85649 0.71562 0.0
C1874 C 0.76802 0.8459 0.67053 0.0
C1875 C 0.7634 0.84349 0.57684 0.0
C1876 C 0.76455 0.85184 0.5287 0.0
C1877 C 0.77015 0.85418 0.62181 0.0
C1878 C 0.77366 0.87106 0.52541 0.0
C1879 C 0.78042 0.88177 0.56991 0.0
H1880 H 0.13904 0.90452 0.73191 0.0
H1881 H 0.08528 0.89166 0.6814 0.0
H1882 H 0.09638 0.89968 0.5917 0.0
H1883 H 0.12075 0.90708 0.52695 0.0
H1884 H 0.17434 0.91935 0.57982 0.0
H1885 H 0.16392 0.91481 0.66924 0.0
C1886 C 0.12987 0.90372 0.70119 0.0
C1887 C 0.11142 0.89731 0.71241 0.0
C1888 C 0.13625 0.90801 0.65019 0.0
C1889 C 0.09958 0.89657 0.67308 0.0
C1890 C 0.10589 0.901 0.62194 0.0
C1891 C 0.13018 0.90893 0.55808 0.0
C1892 C 0.14819 0.91323 0.54649 0.0
C1893 C 0.12409 0.90622 0.60983 0.0
C1894 C 0.16031 0.91579 0.58738 0.0
C1895 C 0.15441 0.91324 0.63869 0.0
H1896 H 0.77734 0.86921 0.16459 0.0
H1897 H 0.76719 0.90757 0.24803 0.0
H1898 H 0.76177 0.91888 0.16605 0.0
H1899 H 0.75711 0.91559 0.07163 0.0
H1900 H 0.76805 0.87761 0.98814 0.0
H1901 H 0.77617 0.86844 0.06921 0.0
C1902 C 0.77425 0.88026 0.16437 0.0
C1903 C 0.77251 0.88758 0.21141 0.0
C1904 C 0.77116 0.88658 0.11741 0.0
C1905 C 0.76862 0.90191 0.21167 0.0
C1906 C 0.76542 0.90824 0.16504 0.0
C1907 C 0.76142 0.90542 0.07125 0.0
C1908 C 0.76173 0.89706 0.02436 0.0
C1909 C 0.76619 0.90033 0.11782 0.0
C1910 C 0.76765 0.88416 0.02397 0.0
C1911 C 0.77224 0.87888 0.07023 0.0
H1912 H 0.11939 0.91386 0.17964 0.0
H1913 H 0.07822 0.86675 0.2621 0.0
H1914 H 0.06761 0.84975 0.18045 0.0
H1915 H 0.07304 0.84706 0.08809 0.0
H1916 H 0.11451 0.89406 0.00537 0.0
H1917 H 0.12209 0.91242 0.08471 0.0
C1918 C 0.10792 0.89996 0.17935 0.0
C1919 C 0.09974 0.89136 0.22637 0.0
C1920 C 0.10219 0.89023 0.13253 0.0
C1921 C 0.08466 0.87355 0.22603 0.0
C1922 C 0.07874 0.8638 0.17954 0.0
C1923 C 0.08361 0.86138 0.08734 0.0
C1924 C 0.09347 0.86913 0.04138 0.0
C1925 C 0.08788 0.87179 0.13293 0.0
C1926 C 0.10683 0.88778 0.04049 0.0
C1927 C 0.1112 0.89825 0.08581 0.0
H1928 H 0.15876 0.24656 0.05752 0.0
H1929 H 0.10811 0.21181 0.97688 0.0
H1930 H 0.0922 0.20116 0.05987 0.0
H1931 H 0.09201 0.20476 0.155 0.0
H1932 H 0.14231 0.24119 0.23383 0.0
H1933 H 0.15916 0.24799 0.15191 0.0
C1934 C 0.14428 0.2365 0.05794 0.0
C1935 C 0.13459 0.23023 0.0111 0.0
C1936 C 0.13517 0.23076 0.10554 0.0
C1937 C 0.11587 0.21702 0.01245 0.0
C1938 C 0.10674 0.21092 0.05986 0.0
C1939 C 0.10673 0.21377 0.15405 0.0
C1940 C 0.11605 0.22249 0.19964 0.0
C1941 C 0.11615 0.21811 0.10659 0.0
C1942 C 0.13502 0.23438 0.19868 0.0
C1943 C 0.14459 0.23832 0.15199 0.0
H1944 H 0.90329 0.77796 0.47365 0.0
H1945 H 0.92018 0.74077 0.41342 0.0
H1946 H 0.91537 0.74757 0.32527 0.0
H1947 H 0.90318 0.76131 0.2655 0.0
H1948 H 0.88643 0.79866 0.323 0.0
H1949 H 0.89458 0.79481 0.41189 0.0
C1950 C 0.90618 0.77157 0.44122 0.0
C1951 C 0.91176 0.75862 0.45042 0.0
C1952 C 0.90332 0.77549 0.39011 0.0
C1953 C 0.91563 0.75061 0.40779 0.0
C1954 C 0.91288 0.75446 0.35716 0.0
C1955 C 0.90166 0.76883 0.29754 0.0
C1956 C 0.89416 0.7801 0.28844 0.0
C1957 C 0.90623 0.76644 0.34799 0.0
C1958 C 0.89227 0.78994 0.32962 0.0
C1959 C 0.8968 0.78763 0.38028 0.0
H1960 H 0.21832 0.09831 0.29767 0.0
H1961 H 0.2326 0.14835 0.21649 0.0
H1962 H 0.23755 0.16451 0.29932 0.0
H1963 H 0.24074 0.16491 0.39421 0.0
H1964 H 0.22563 0.11463 0.47582 0.0
H1965 H 0.21782 0.09792 0.39352 0.0
C1966 C 0.22228 0.11269 0.29845 0.0
C1967 C 0.22532 0.12228 0.25162 0.0
C1968 C 0.22502 0.1218 0.34609 0.0
C1969 C 0.2302 0.1408 0.25243 0.0
C1970 C 0.23311 0.15002 0.29964 0.0
C1971 C 0.23551 0.15025 0.39398 0.0
C1972 C 0.23399 0.14105 0.44085 0.0
C1973 C 0.23101 0.14075 0.34664 0.0
C1974 C 0.22693 0.12202 0.44019 0.0
C1975 C 0.22257 0.11248 0.39315 0.0
H1976 H 0.88041 0.11025 0.47594 0.0
H1977 H 0.83087 0.06284 0.42335 0.0
H1978 H 0.84372 0.06627 0.33643 0.0
H1979 H 0.86693 0.0856 0.27236 0.0
H1980 H 0.91553 0.13426 0.32281 0.0
H1981 H 0.90541 0.12749 0.41337 0.0
C1982 C 0.87268 0.10042 0.44574 0.0
C1983 C 0.8547 0.08644 0.45573 0.0
C1984 C 0.87991 0.10288 0.39521 0.0
C1985 C 0.8447 0.07384 0.41627 0.0
C1986 C 0.85201 0.07581 0.36654 0.0
C1987 C 0.87548 0.09439 0.30348 0.0
C1988 C 0.89174 0.11048 0.29141 0.0
C1989 C 0.86928 0.0907 0.35505 0.0
C1990 C 0.90277 0.12192 0.3316 0.0
C1991 C 0.89699 0.11806 0.38324 0.0
H1992 H 0.88754 0.43094 0.32365 0.0
H1993 H 0.91798 0.40519 0.27106 0.0
H1994 H 0.91202 0.40924 0.18125 0.0
H1995 H 0.90198 0.42389 0.11769 0.0
H1996 H 0.87161 0.44972 0.16797 0.0
H1997 H 0.87347 0.44168 0.25853 0.0
C1998 C 0.89252 0.42587 0.29255 0.0
C1999 C 0.90354 0.41816 0.30411 0.0
C2000 C 0.88921 0.42842 0.24056 0.0
C2001 C 0.90976 0.41151 0.26333 0.0
C2002 C 0.90638 0.41382 0.21183 0.0
C2003 C 0.89545 0.42736 0.14856 0.0
C2004 C 0.88684 0.43744 0.13698 0.0
C2005 C 0.89674 0.42285 0.20004 0.0
C2006 C 0.87829 0.44188 0.17659 0.0
C2007 C 0.87947 0.43741 0.2282 0.0
H2008 H 0.58095 0.50413 0.23979 0.0
H2009 H 0.57207 0.4547 0.31589 0.0
H2010 H 0.56676 0.43941 0.23171 0.0
H2011 H 0.56128 0.43915 0.13724 0.0
H2012 H 0.5684 0.48815 0.06345 0.0
H2013 H 0.57802 0.50468 0.1459 0.0
C2014 C 0.57804 0.49006 0.23812 0.0
C2015 C 0.57666 0.48051 0.28419 0.0
C2016 C 0.57467 0.48129 0.1899 0.0
C2017 C 0.57307 0.46235 0.28106 0.0
C2018 C 0.57 0.45357 0.23294 0.0
C2019 C 0.5654 0.45356 0.13932 0.0
C2020 C 0.56421 0.46254 0.09492 0.0
C2021 C 0.57031 0.46277 0.18722 0.0
C2022 C 0.56927 0.48109 0.09755 0.0
C2023 C 0.57466 0.49047 0.14459 0.0
H2024 H 0.56843 0.11436 0.14847 0.0
H2025 H 0.51872 0.10551 0.07572 0.0
H2026 H 0.5044 0.10189 0.16106 0.0
H2027 H 0.50459 0.09612 0.25438 0.0
H2028 H 0.55417 0.10424 0.32712 0.0
H2029 H 0.57016 0.11349 0.24376 0.0
C2030 C 0.55464 0.11214 0.15171 0.0
C2031 C 0.54447 0.10999 0.10659 0.0
C2032 C 0.54645 0.10964 0.20061 0.0
C2033 C 0.5267 0.10725 0.11038 0.0
C2034 C 0.5185 0.10499 0.15901 0.0
C2035 C 0.51898 0.1002 0.25209 0.0
C2036 C 0.52811 0.09912 0.2964 0.0
C2037 C 0.52799 0.10533 0.20413 0.0
C2038 C 0.54683 0.10482 0.29335 0.0
C2039 C 0.55595 0.11003 0.24572 0.0
H2040 H 0.75492 0.58428 0.89742 0.0
H2041 H 0.76779 0.54741 0.81521 0.0
H2042 H 0.77656 0.53916 0.8968 0.0
H2043 H 0.78455 0.54572 0.98967 0.0
H2044 H 0.77315 0.58387 0.06964 0.0
H2045 H 0.75966 0.58823 0.99088 0.0
C2046 C 0.75939 0.57424 0.89729 0.0
C2047 C 0.76101 0.56675 0.85015 0.0
C2048 C 0.76483 0.56991 0.94398 0.0
C2049 C 0.76659 0.55355 0.8509 0.0
C2050 C 0.77167 0.54886 0.89753 0.0
C2051 C 0.77872 0.55464 0.98983 0.0
C2052 C 0.78002 0.5647 0.03461 0.0
C2053 C 0.77144 0.55743 0.94402 0.0
C2054 C 0.77249 0.57625 0.03499 0.0
C2055 C 0.76481 0.57874 0.9901 0.0
H2056 H 0.41134 0.16892 0.88718 0.0
H2057 H 0.44645 0.21877 0.80354 0.0
H2058 H 0.45618 0.23562 0.88569 0.0
H2059 H 0.45206 0.23665 0.98094 0.0
H2060 H 0.41541 0.18683 0.06182 0.0
H2061 H 0.40902 0.16942 0.98112 0.0
C2062 C 0.42126 0.18345 0.88669 0.0
C2063 C 0.42795 0.1926 0.83914 0.0
C2064 C 0.42647 0.19305 0.93371 0.0
C2065 C 0.44097 0.21139 0.83956 0.0
C2066 C 0.44651 0.22105 0.88652 0.0
C2067 C 0.44303 0.22192 0.98072 0.0
C2068 C 0.43419 0.21291 0.02676 0.0
C2069 C 0.439 0.2121 0.93377 0.0
C2070 C 0.42231 0.19392 0.02651 0.0
C2071 C 0.41861 0.18401 0.98046 0.0
H2072 H 0.82132 0.24912 0.90481 0.0
H2073 H 0.77521 0.20692 0.82116 0.0
H2074 H 0.75651 0.1989 0.89999 0.0
H2075 H 0.75429 0.20215 0.99451 0.0
H2076 H 0.80029 0.2446 0.07743 0.0
H2077 H 0.81799 0.25466 -0.00329 0.0
C2078 C 0.80713 0.23826 0.90382 0.0
C2079 C 0.7997 0.2284 0.85768 0.0
C2080 C 0.79649 0.23385 0.94899 0.0
C2081 C 0.78122 0.21462 0.85642 0.0
C2082 C 0.77056 0.21001 0.90144 0.0
C2083 C 0.76812 0.21373 0.9945 0.0
C2084 C 0.77617 0.22253 0.04142 0.0
C2085 C 0.77818 0.21927 0.94816 0.0
C2086 C 0.79391 0.23772 0.04141 0.0
C2087 C 0.80404 0.24334 0.99548 0.0
H2088 H 0.43965 0.22981 0.32333 0.0
H2089 H 0.41754 0.2612 0.39386 0.0
H2090 H 0.42747 0.25723 0.47888 0.0
H2091 H 0.43825 0.24117 0.53465 0.0
H2092 H 0.45959 0.20897 0.46688 0.0
H2093 H 0.45452 0.21715 0.37932 0.0
C2094 C 0.43734 0.23607 0.35718 0.0
C2095 C 0.42751 0.24544 0.35231 0.0
C2096 C 0.4429 0.23353 0.4065 0.0
C2097 C 0.42474 0.25359 0.39654 0.0
C2098 C 0.43044 0.25137 0.4453 0.0
C2099 C 0.44231 0.23648 0.50053 0.0
C2100 C 0.44932 0.22465 0.50649 0.0
C2101 C 0.43892 0.24084 0.45092 0.0
C2102 C 0.45437 0.21832 0.46262 0.0
C2103 C 0.45128 0.22283 0.41277 0.0
H2104 H 0.7613 0.20806 0.34573 0.0
H2105 H 0.73724 0.15282 0.40477 0.0
H2106 H 0.74264 0.16424 0.49333 0.0
H2107 H 0.75781 0.18992 0.55356 0.0
H2108 H 0.7823 0.24521 0.49685 0.0
H2109 H 0.77294 0.23386 0.40782 0.0
C2110 C 0.75694 0.19853 0.378 0.0
C2111 C 0.74925 0.17967 0.36859 0.0
C2112 C 0.76028 0.2052 0.4292 0.0
C2113 C 0.74352 0.16745 0.41084 0.0
C2114 C 0.74658 0.17394 0.46161 0.0
C2115 C 0.76068 0.19939 0.52166 0.0
C2116 C 0.77073 0.21824 0.53089 0.0
C2117 C 0.75551 0.19278 0.47112 0.0
C2118 C 0.77447 0.23059 0.49 0.0
C2119 C 0.76925 0.2241 0.43928 0.0
H2120 H 0.76299 0.54928 0.47561 0.0
H2121 H 0.80781 0.55477 0.56885 0.0
H2122 H 0.82763 0.56386 0.49207 0.0
H2123 H 0.83298 0.57377 0.40076 0.0
H2124 H 0.78788 0.56782 0.30732 0.0
H2125 H 0.76731 0.55529 0.3817 0.0
C2126 C 0.777 0.5521 0.47859 0.0
C2127 C 0.7841 0.55154 0.52726 0.0
C2128 C 0.78827 0.55747 0.43454 0.0
C2129 C 0.80215 0.55507 0.53134 0.0
C2130 C 0.81349 0.56042 0.48766 0.0
C2131 C 0.81861 0.56955 0.39663 0.0
C2132 C 0.81201 0.57199 0.34899 0.0
C2133 C 0.80684 0.56225 0.43943 0.0
C2134 C 0.7933 0.56616 0.34374 0.0
C2135 C 0.78154 0.55903 0.38625 0.0
H2136 H 0.56276 0.08087 0.60803 0.0
H2137 H 0.55828 0.1274 0.65651 0.0
H2138 H 0.56368 0.12231 0.74703 0.0
H2139 H 0.56603 0.10232 0.81273 0.0
H2140 H 0.56972 0.05529 0.76254 0.0
H2141 H 0.56814 0.0628 0.67229 0.0
C2142 C 0.56321 0.09 0.6385 0.0
C2143 C 0.55986 0.10425 0.62637 0.0
C2144 C 0.56587 0.08671 0.69005 0.0
C2145 C 0.56082 0.11631 0.66545 0.0
C2146 C 0.56372 0.11328 0.71707 0.0
C2147 C 0.56662 0.0938 0.78204 0.0
C2148 C 0.56768 0.0781 0.79449 0.0
C2149 C 0.56565 0.09815 0.72998 0.0
C2150 C 0.56871 0.06735 0.7542 0.0
C2151 C 0.56783 0.07163 0.70248 0.0
H2152 H 0.87657 0.42546 0.66803 0.0
H2153 H 0.89501 0.47631 0.58665 0.0
H2154 H 0.90307 0.49304 0.66904 0.0
H2155 H 0.90895 0.49351 0.76205 0.0
H2156 H 0.89193 0.44283 0.84387 0.0
H2157 H 0.87904 0.42561 0.76362 0.0
C2158 C 0.88167 0.4401 0.66888 0.0
C2159 C 0.88496 0.44974 0.62206 0.0
C2160 C 0.88691 0.44963 0.71619 0.0
C2161 C 0.89209 0.46872 0.62271 0.0
C2162 C 0.8969 0.47826 0.66963 0.0
C2163 C 0.90226 0.47868 0.7625 0.0
C2164 C 0.90172 0.46948 0.80856 0.0
C2165 C 0.89506 0.46893 0.71631 0.0
C2166 C 0.89268 0.45025 0.80875 0.0
C2167 C 0.88533 0.44039 0.7629 0.0
H2168 H 0.53881 0.42606 0.59433 0.0
H2169 H 0.58999 0.46824 0.65634 0.0
H2170 H 0.57737 0.46127 0.74464 0.0
H2171 H 0.55044 0.44601 0.80183 0.0
H2172 H 0.49854 0.40559 0.73736 0.0
H2173 H 0.5127 0.40887 0.65256 0.0
C2174 C 0.54728 0.43326 0.62755 0.0
C2175 C 0.56524 0.44742 0.61967 0.0
C2176 C 0.53968 0.42971 0.67752 0.0
C2177 C 0.57615 0.4571 0.66226 0.0
C2178 C 0.56888 0.45323 0.71245 0.0
C2179 C 0.54233 0.43771 0.76941 0.0
C2180 C 0.52345 0.42577 0.77567 0.0
C2181 C 0.55046 0.44 0.7203 0.0
C2182 C 0.51307 0.4151 0.73333 0.0
C2183 C 0.52114 0.41692 0.68482 0.0
H2184 H 0.5501 0.78881 0.49648 0.0
H2185 H 0.56513 0.75254 0.4213 0.0
H2186 H 0.568 0.7409 0.50589 0.0
H2187 H 0.56993 0.74402 0.60048 0.0
H2188 H 0.55506 0.7804 0.67654 0.0
H2189 H 0.54787 0.78873 0.5923 0.0
C2190 C 0.55357 0.77805 0.49899 0.0
C2191 C 0.55746 0.77146 0.45351 0.0
C2192 C 0.55527 0.77158 0.54762 0.0
C2193 C 0.56202 0.75763 0.45629 0.0
C2194 C 0.56374 0.75109 0.50448 0.0
C2195 C 0.56481 0.75354 0.59868 0.0
C2196 C 0.56331 0.76184 0.64439 0.0
C2197 C 0.56095 0.75839 0.55033 0.0
C2198 C 0.55637 0.77389 0.64176 0.0
C2199 C 0.5524 0.77875 0.59363 0.0
H2200 H 0.20949 0.75824 0.50491 0.0
H2201 H 0.24422 0.80772 0.4203 0.0
H2202 H 0.25411 0.82506 0.50152 0.0
H2203 H 0.24823 0.82687 0.59367 0.0
H2204 H 0.21191 0.77762 0.67804 0.0
H2205 H 0.20725 0.75933 0.59993 0.0
C2206 C 0.21985 0.77264 0.50483 0.0
C2207 C 0.22636 0.78181 0.45753 0.0
C2208 C 0.22468 0.78259 0.55131 0.0
C2209 C 0.23938 0.80051 0.45686 0.0
C2210 C 0.24476 0.81041 0.50307 0.0
C2211 C 0.23944 0.81211 0.59507 0.0
C2212 C 0.23004 0.80364 0.64098 0.0
C2213 C 0.23673 0.80175 0.55011 0.0
C2214 C 0.21907 0.78447 0.64278 0.0
C2215 C 0.21642 0.77401 0.59822 0.0
H2216 H 0.23396 0.45042 0.48302 0.0
H2217 H 0.18189 0.41766 0.40791 0.0
H2218 H 0.16605 0.41339 0.49076 0.0
H2219 H 0.16734 0.41582 0.58488 0.0
H2220 H 0.2194 0.44681 0.66235 0.0
H2221 H 0.23499 0.45516 0.57817 0.0
C2222 C 0.21914 0.44279 0.48495 0.0
C2223 C 0.20898 0.43438 0.44005 0.0
C2224 C 0.21021 0.43986 0.53303 0.0
C2225 C 0.18983 0.42425 0.4424 0.0
C2226 C 0.18083 0.42173 0.48965 0.0
C2227 C 0.18209 0.42454 0.58354 0.0
C2228 C 0.19222 0.43042 0.62986 0.0
C2229 C 0.19093 0.42895 0.53536 0.0
C2230 C 0.21129 0.44196 0.62725 0.0
C2231 C 0.22022 0.44671 0.57915 0.0
H2232 H 0.4187 0.88794 0.40073 0.0
H2233 H 0.46615 0.88607 0.34734 0.0
H2234 H 0.45741 0.88652 0.25685 0.0
H2235 H 0.43819 0.89127 0.19362 0.0
H2236 H 0.39211 0.89547 0.24846 0.0
H2237 H 0.39799 0.88982 0.33744 0.0
C2238 C 0.42689 0.88731 0.36912 0.0
C2239 C 0.44318 0.88739 0.38012 0.0
C2240 C 0.42199 0.88799 0.3175 0.0
C2241 C 0.45378 0.88653 0.3393 0.0
C2242 C 0.44874 0.88668 0.28772 0.0
C2243 C 0.4292 0.89043 0.22498 0.0
C2244 C 0.41477 0.89375 0.21486 0.0
C2245 C 0.43316 0.88797 0.27636 0.0
C2246 C 0.40332 0.89296 0.25568 0.0
C2247 C 0.40673 0.88983 0.3065 0.0
H2248 H 0.09797 0.50652 0.25931 0.0
H2249 H 0.10508 0.55351 0.17304 0.0
H2250 H 0.11576 0.57229 0.25156 0.0
H2251 H 0.11892 0.57406 0.34679 0.0
H2252 H 0.1115 0.52707 0.43291 0.0
H2253 H 0.10546 0.50954 0.35216 0.0
C2254 C 0.10206 0.52092 0.25762 0.0
C2255 C 0.1004 0.52856 0.21087 0.0
C2256 C 0.10815 0.53158 0.30277 0.0
C2257 C 0.10611 0.54732 0.20878 0.0
C2258 C 0.11217 0.55803 0.25363 0.0
C2259 C 0.11653 0.56016 0.34734 0.0
C2260 C 0.11559 0.55172 0.39501 0.0
C2261 C 0.1127 0.55016 0.30108 0.0
C2262 C 0.1124 0.53374 0.39619 0.0
C2263 C 0.10876 0.52371 0.35022 0.0
H2264 H 0.46384 0.56308 0.38722 0.0
H2265 H 0.40855 0.53393 0.33034 0.0
H2266 H 0.41972 0.5416 0.24042 0.0
H2267 H 0.4458 0.55385 0.17806 0.0
H2268 H 0.50093 0.58286 0.23873 0.0
H2269 H 0.48927 0.57811 0.32659 0.0
C2270 C 0.45427 0.55881 0.35504 0.0
C2271 C 0.43552 0.54805 0.36481 0.0
C2272 C 0.46079 0.56302 0.30402 0.0
C2273 C 0.4231 0.54243 0.3233 0.0
C2274 C 0.4295 0.54665 0.27202 0.0
C2275 C 0.45521 0.55932 0.21049 0.0
C2276 C 0.47423 0.56838 0.20147 0.0
C2277 C 0.4484 0.55651 0.2618 0.0
C2278 C 0.48623 0.57553 0.24413 0.0
C2279 C 0.47961 0.57288 0.29469 0.0
H2280 H 0.1005 0.57102 0.8966 0.0
H2281 H 0.11136 0.52942 0.83874 0.0
H2282 H 0.10717 0.53657 0.7492 0.0
H2283 H 0.09792 0.55298 0.68853 0.0
H2284 H 0.08425 0.59256 0.74797 0.0
H2285 H 0.09216 0.58807 0.83583 0.0
C2286 C 0.10221 0.56379 0.86411 0.0
C2287 C 0.10624 0.54982 0.87345 0.0
C2288 C 0.09917 0.56754 0.81331 0.0
C2289 C 0.10822 0.54023 0.83177 0.0
C2290 C 0.10581 0.54429 0.78085 0.0
C2291 C 0.09695 0.5608 0.72068 0.0
C2292 C 0.09052 0.57306 0.71205 0.0
C2293 C 0.10092 0.55768 0.77126 0.0
C2294 C 0.08908 0.58296 0.75394 0.0
C2295 C 0.0936 0.58041 0.80409 0.0
H2296 H 0.42527 0.51861 0.88736 0.0
H2297 H 0.44472 0.57344 0.83219 0.0
H2298 H 0.43775 0.56219 0.74225 0.0
H2299 H 0.42925 0.53686 0.67902 0.0
H2300 H 0.40963 0.4821 0.73753 0.0
H2301 H 0.41331 0.49315 0.82605 0.0
C2302 C 0.42757 0.52798 0.85558 0.0
C2303 C 0.43546 0.54672 0.86578 0.0
C2304 C 0.42369 0.52144 0.80449 0.0
C2305 C 0.43849 0.55889 0.8248 0.0
C2306 C 0.43465 0.55247 0.7735 0.0
C2307 C 0.4255 0.52733 0.71114 0.0
C2308 C 0.41953 0.50874 0.70134 0.0
C2309 C 0.42771 0.53379 0.76271 0.0
C2310 C 0.4146 0.49656 0.7436 0.0
C2311 C 0.41666 0.50282 0.79449 0.0
H2312 H 0.45929 0.90867 0.89728 0.0
H2313 H 0.41262 0.86024 0.83701 0.0
H2314 H 0.42696 0.86646 0.75047 0.0
H2315 H 0.45253 0.88676 0.69155 0.0
H2316 H 0.49915 0.9348 0.75559 0.0
H2317 H 0.48499 0.92777 0.84085 0.0
C2318 C 0.45227 0.8995 0.86509 0.0
C2319 C 0.4349 0.88422 0.87282 0.0
C2320 C 0.46055 0.90319 0.81612 0.0
C2321 C 0.42605 0.87213 0.83151 0.0
C2322 C 0.43419 0.87576 0.78216 0.0
C2323 C 0.45955 0.89565 0.72422 0.0
C2324 C 0.47685 0.91133 0.71697 0.0
C2325 C 0.45138 0.89142 0.77384 0.0
C2326 C 0.48586 0.92262 0.75986 0.0
C2327 C 0.47778 0.91865 0.80879 0.0
H2328 H 0.21974 0.42972 0.14972 0.0
H2329 H 0.25962 0.41731 0.08538 0.0
H2330 H 0.25764 0.42959 0.00156 0.0
H2331 H 0.24199 0.44046 0.944 0.0
H2332 H 0.20021 0.45036 0.00545 0.0
H2333 H 0.20568 0.44283 0.09318 0.0
C2334 C 0.22818 0.42998 0.11753 0.0
C2335 C 0.23964 0.42245 0.12349 0.0
C2336 C 0.2266 0.4366 0.06895 0.0
C2337 C 0.25049 0.4228 0.08148 0.0
C2338 C 0.24941 0.42987 0.03358 0.0
C2339 C 0.2345 0.44144 0.97701 0.0
C2340 C 0.22084 0.44598 0.96903 0.0
C2341 C 0.23718 0.43634 0.02652 0.0
C2342 C 0.21085 0.44691 0.01136 0.0
C2343 C 0.2139 0.44251 0.06123 0.0
H2344 H 0.56555 0.80687 0.95143 0.0
H2345 H 0.53238 0.75268 0.01388 0.0
H2346 H 0.53811 0.7652 0.10247 0.0
H2347 H 0.55621 0.79122 0.16154 0.0
H2348 H 0.59003 0.84524 0.09664 0.0
H2349 H 0.58035 0.83315 0.00964 0.0
C2350 C 0.55924 0.79792 0.98455 0.0
C2351 C 0.54872 0.779 0.97687 0.0
C2352 C 0.56299 0.80515 0.0348 0.0
C2353 C 0.54047 0.76736 0.01942 0.0
C2354 C 0.54392 0.77449 0.06989 0.0
C2355 C 0.56126 0.80037 0.12842 0.0
C2356 C 0.57412 0.81903 0.13567 0.0
C2357 C 0.55575 0.79331 0.07807 0.0
C2358 C 0.58035 0.83076 0.09231 0.0
C2359 C 0.57481 0.82389 0.0424 0.0
H2360 H 0.22808 0.78761 0.00498 0.0
H2361 H 0.1779 0.75193 0.92466 0.0
H2362 H 0.16171 0.7414 0.00771 0.0
H2363 H 0.16136 0.74528 0.1021 0.0
H2364 H 0.21181 0.78064 0.18256 0.0
H2365 H 0.22857 0.78819 0.10052 0.0
C2366 C 0.21369 0.77725 0.00611 0.0
C2367 C 0.20401 0.77054 0.95968 0.0
C2368 C 0.20459 0.77136 0.05371 0.0
C2369 C 0.18546 0.75713 0.96056 0.0
C2370 C 0.17624 0.75123 0.00781 0.0
C2371 C 0.17606 0.75443 0.10165 0.0
C2372 C 0.18532 0.76264 0.1479 0.0
C2373 C 0.18557 0.75869 0.0545 0.0
C2374 C 0.2044 0.77421 0.14724 0.0
C2375 C 0.21397 0.77861 0.10039 0.0
H2376 H 0.19231 0.96553 0.22673 0.0
H2377 H 0.21068 0.99396 0.37266 0.0
H2378 H 0.22642 0.02343 0.32716 0.0
H2379 H 0.23527 0.04088 0.24545 0.0
H2380 H 0.21852 0.01233 0.09929 0.0
H2381 H 0.20176 0.98294 0.14489 0.0
C2382 C 0.19974 0.97825 0.24824 0.0
C2383 C 0.20043 0.97785 0.30252 0.0
C2384 C 0.20901 0.99495 0.2218 0.0
C2385 C 0.21012 0.99419 0.33064 0.0
C2386 C 0.21906 0.01093 0.30473 0.0
C2387 C 0.2279 0.02816 0.22391 0.0
C2388 C 0.22798 0.0285 0.16955 0.0
C2389 C 0.21866 0.01146 0.25032 0.0
C2390 C 0.21858 0.01214 0.14137 0.0
C2391 C 0.20902 0.99545 0.16734 0.0
H2392 H 0.98205 0.21994 0.14361 0.0
H2393 H 0.94998 0.19335 0.27975 0.0
H2394 H 0.97758 0.20734 0.33345 0.0
H2395 H 0.01097 0.22567 0.34039 0.0
H2396 H 0.04341 0.25115 0.20408 0.0
H2397 H 0.01558 0.23919 0.15118 0.0
C2398 C 0.98121 0.21751 0.18517 0.0
C2399 C 0.96423 0.20583 0.20817 0.0
C2400 C 0.99714 0.2253 0.21538 0.0
C2401 C 0.96306 0.20238 0.26169 0.0
C2402 C 0.97878 0.21033 0.29223 0.0
C2403 C 0.01181 0.22875 0.29921 0.0
C2404 C 0.02895 0.23924 0.27575 0.0
C2405 C 0.99589 0.2216 0.26934 0.0
C2406 C 0.03018 0.24306 0.22246 0.0
C2407 C 0.01434 0.23624 0.19243 0.0
H2408 H 0.76861 0.77578 0.34533 0.0
H2409 H 0.75148 0.79459 0.21275 0.0
H2410 H 0.76484 0.78155 0.15406 0.0
H2411 H 0.7837 0.76716 0.14105 0.0
H2412 H 0.80091 0.74834 0.27337 0.0
H2413 H 0.78513 0.75888 0.33192 0.0
C2414 C 0.76751 0.77664 0.30357 0.0
C2415 C 0.75923 0.78614 0.28309 0.0
C2416 C 0.77534 0.76926 0.27025 0.0
C2417 C 0.75799 0.78743 0.22907 0.0
C2418 C 0.7656 0.78 0.19562 0.0
C2419 C 0.78361 0.76505 0.18264 0.0
C2420 C 0.79336 0.75707 0.20321 0.0
C2421 C 0.77464 0.77123 0.21581 0.0
C2422 C 0.79349 0.75457 0.25705 0.0
C2423 C 0.7845 0.76058 0.29039 0.0
H2424 H 0.81573 0.02604 0.70984 0.0
H2425 H 0.76526 0.02713 0.69929 0.0
H2426 H 0.74933 0.99831 0.74751 0.0
H2427 H 0.7498 0.9724 0.79061 0.0
H2428 H 0.80131 0.97402 0.81155 0.0
H2429 H 0.817 0.00253 0.76227 0.0
C2430 C 0.80135 0.02023 0.71917 0.0
C2431 C 0.79167 0.02864 0.70089 0.0
C2432 C 0.79252 0.00418 0.74868 0.0
C2433 C 0.77293 0.02071 0.71219 0.0
C2434 C 0.76386 0.00433 0.74008 0.0
C2435 C 0.7645 0.9792 0.78514 0.0
C2436 C 0.77436 0.97099 0.80357 0.0
C2437 C 0.77351 0.99589 0.75824 0.0
C2438 C 0.79339 0.97988 0.79634 0.0
C2439 C 0.80237 0.9962 0.76845 0.0
H2440 H 0.97169 0.78917 0.71067 0.0
H2441 H 0.96587 0.73571 0.73007 0.0
H2442 H 0.99389 0.74902 0.78212 0.0
H2443 H 0.02037 0.7762 0.82051 0.0
H2444 H 0.02315 0.82863 0.81095 0.0
H2445 H 0.99563 0.81531 0.75752 0.0
C2446 C 0.97628 0.78034 0.72733 0.0
C2447 C 0.96677 0.76152 0.71662 0.0
C2448 C 0.99182 0.78793 0.7589 0.0
C2449 C 0.97316 0.75032 0.73722 0.0
C2450 C 0.98907 0.75789 0.76728 0.0
C2451 C 0.01473 0.78459 0.80751 0.0
C2452 C 0.02393 0.80342 0.81864 0.0
C2453 C -0.00145 0.77671 0.77821 0.0
C2454 C 0.01655 0.81419 0.80153 0.0
C2455 C 0.00079 0.80659 0.77127 0.0
H2456 H 0.20519 0.18491 0.66961 0.0
H2457 H 0.25817 0.23383 0.67278 0.0
H2458 H 0.24498 0.25035 0.71692 0.0
H2459 H 0.21836 0.25039 0.75709 0.0
H2460 H 0.16693 0.1997 0.76629 0.0
H2461 H 0.17955 0.18424 0.71542 0.0
C2462 C 0.21393 0.1991 0.68078 0.0
C2463 C 0.23262 0.2081 0.66838 0.0
C2464 C 0.2065 0.20815 0.70838 0.0
C2465 C 0.24368 0.22665 0.68154 0.0
C2466 C 0.23618 0.23604 0.70714 0.0
C2467 C 0.21001 0.23592 0.74847 0.0
C2468 C 0.19164 0.22629 0.76461 0.0
C2469 C 0.21762 0.22686 0.72124 0.0
C2470 C 0.18094 0.20756 0.75292 0.0
C2471 C 0.18818 0.19865 0.72425 0.0
H2472 H 0.89217 0.30962 0.65583 0.0
H2473 H 0.83809 0.30283 0.64451 0.0
H2474 H 0.85049 0.33224 0.60053 0.0
H2475 H 0.87637 0.3588 0.56038 0.0
H2476 H 0.93104 0.36818 0.5828 0.0
H2477 H 0.91877 0.33874 0.62761 0.0
C2478 C 0.88318 0.31476 0.64473 0.0
C2479 C 0.86421 0.30387 0.65206 0.0
C2480 C 0.89048 0.33202 0.62121 0.0
C2481 C 0.85269 0.31069 0.6375 0.0
C2482 C 0.85976 0.32756 0.61278 0.0
C2483 C 0.88566 0.35469 0.57643 0.0
C2484 C 0.90455 0.36554 0.56811 0.0
C2485 C 0.87859 0.33818 0.60367 0.0
C2486 C 0.91639 0.35983 0.58805 0.0
C2487 C 0.9094 0.34309 0.61384 0.0
H2488 H 0.68175 0.56662 0.66612 0.0
H2489 H 0.71605 0.57897 0.53085 0.0
H2490 H 0.68943 0.56907 0.47415 0.0
H2491 H 0.65598 0.55423 0.46376 0.0
H2492 H 0.62165 0.54022 0.59938 0.0
H2493 H 0.64865 0.55384 0.65566 0.0
C2494 C 0.68335 0.56744 0.62421 0.0
C2495 C 0.70063 0.57345 0.60233 0.0
C2496 C 0.668 0.56149 0.59218 0.0
C2497 C 0.70271 0.57426 0.54816 0.0
C2498 C 0.68756 0.56865 0.51588 0.0
C2499 C 0.65458 0.55465 0.50557 0.0
C2500 C 0.63711 0.54654 0.52786 0.0
C2501 C 0.67009 0.5619 0.53749 0.0
C2502 C 0.63514 0.54665 0.5819 0.0
C2503 C 0.65051 0.55428 0.61391 0.0
H2504 H 0.4548 0.14643 0.61645 0.0
H2505 H 0.40096 0.09875 0.61013 0.0
H2506 H 0.41367 0.08116 0.56973 0.0
H2507 H 0.44019 0.0798 0.53406 0.0
H2508 H 0.49292 0.1291 0.52912 0.0
H2509 H 0.48055 0.14576 0.5755 0.0
C2510 C 0.44579 0.13227 0.60543 0.0
C2511 C 0.42699 0.12391 0.61588 0.0
C2512 C 0.45303 0.12259 0.58025 0.0
C2513 C 0.41554 0.10541 0.60285 0.0
C2514 C 0.42277 0.09542 0.57943 0.0
C2515 C 0.44888 0.09422 0.54279 0.0
C2516 C 0.4675 0.10314 0.52916 0.0
C2517 C 0.44149 0.10393 0.56756 0.0
C2518 C 0.47866 0.12181 0.54064 0.0
C2519 C 0.47158 0.13139 0.56673 0.0
H2520 H 0.45364 0.30915 0.11338 0.0
H2521 H 0.40082 0.30543 0.10562 0.0
H2522 H 0.41447 0.33518 0.0622 0.0
H2523 H 0.4414 0.36198 0.02586 0.0
H2524 H 0.49329 0.36355 0.02256 0.0
H2525 H 0.48011 0.33488 0.07132 0.0
C2526 C 0.44508 0.31471 0.10128 0.0
C2527 C 0.42629 0.30518 0.11242 0.0
C2528 C 0.4529 0.33145 0.07488 0.0
C2529 C 0.41538 0.31268 0.09778 0.0
C2530 C 0.42315 0.32961 0.07284 0.0
C2531 C 0.44975 0.35593 0.03536 0.0
C2532 C 0.46829 0.36489 0.02118 0.0
C2533 C 0.44189 0.33907 0.06114 0.0
C2534 C 0.47906 0.35708 0.03421 0.0
C2535 C 0.4715 0.34061 0.06155 0.0
H2536 H 0.64199 0.09505 0.98846 0.0
H2537 H 0.61076 0.08404 0.12959 0.0
H2538 H 0.63903 0.09869 0.18084 0.0
H2539 H 0.67266 0.11518 0.18464 0.0
H2540 H 0.70392 0.12829 0.043 0.0
H2541 H 0.67564 0.11225 0.99208 0.0
C2542 C 0.64152 0.09581 0.03047 0.0
C2543 C 0.62461 0.08845 0.05579 0.0
C2544 C 0.65774 0.10461 0.05915 0.0
C2545 C 0.62382 0.08963 0.1099 0.0
C2546 C 0.6399 0.09797 0.13898 0.0
C2547 C 0.67314 0.11437 0.14264 0.0
C2548 C 0.69005 0.12258 0.11711 0.0
C2549 C 0.65692 0.10557 0.11395 0.0
C2550 C 0.69085 0.12187 0.06288 0.0
C2551 C 0.67477 0.11275 0.034 0.0
H2552 H 0.85926 0.54862 0.11975 0.0
H2553 H 0.90977 0.60002 0.13043 0.0
H2554 H 0.92598 0.58662 0.08549 0.0
H2555 H 0.92556 0.55997 0.0436 0.0
H2556 H 0.8743 0.50947 0.0283 0.0
H2557 H 0.85844 0.5229 0.07381 0.0
C2558 C 0.87376 0.55697 0.11147 0.0
C2559 C 0.88333 0.57524 0.12807 0.0
C2560 C 0.88279 0.54933 0.08481 0.0
C2561 C 0.90219 0.58583 0.11832 0.0
C2562 C 0.91141 0.57822 0.09241 0.0
C2563 C 0.9109 0.55205 0.0499 0.0
C2564 C 0.9011 0.53374 0.03348 0.0
C2565 C 0.90183 0.55996 0.0755 0.0
C2566 C 0.88213 0.5235 0.04168 0.0
C2567 C 0.87306 0.53118 0.06744 0.0
H2568 H 0.55472 0.63977 0.95412 0.0
H2569 H 0.50234 0.63675 0.96967 0.0
H2570 H 0.51399 0.66576 0.92368 0.0
H2571 H 0.53892 0.69172 0.87836 0.0
H2572 H 0.59264 0.69742 0.87476 0.0
H2573 H 0.58065 0.66752 0.91659 0.0
C2574 C 0.54596 0.64561 0.94807 0.0
C2575 C 0.52761 0.63599 0.96431 0.0
C2576 C 0.55297 0.66268 0.92358 0.0
C2577 C 0.51637 0.64365 0.95608 0.0
C2578 C 0.52305 0.6603 0.93021 0.0
C2579 C 0.54809 0.68661 0.88769 0.0
C2580 C 0.56661 0.69672 0.87349 0.0
C2581 C 0.5413 0.66988 0.91368 0.0
C2582 C 0.57824 0.68972 0.88464 0.0
C2583 C 0.57143 0.67271 0.90887 0.0
H2584 H 0.36028 0.8967 0.91112 0.0
H2585 H 0.33396 0.88847 0.06009 0.0
H2586 H 0.304 0.87514 0.0178 0.0
H2587 H 0.28536 0.86511 0.93822 0.0
H2588 H 0.31173 0.87302 0.78944 0.0
H2589 H 0.34174 0.88724 0.83159 0.0
C2590 C 0.34793 0.89198 0.93407 0.0
C2591 C 0.34912 0.89349 0.9883 0.0
C2592 C 0.33088 0.88429 0.90955 0.0
C2593 C 0.33321 0.88752 0.0181 0.0
C2594 C 0.31615 0.87984 0.99402 0.0
C2595 C 0.29774 0.86999 0.91531 0.0
C2596 C 0.29655 0.86815 0.86114 0.0
C2597 C 0.31482 0.87805 0.9398 0.0
C2598 C 0.31251 0.87451 0.83132 0.0
C2599 C 0.32959 0.88255 0.85534 0.0
H2600 H 0.13616 0.43017 0.93455 0.0
H2601 H 0.11638 0.43948 0.79008 0.0
H2602 H 0.1007 0.45302 0.83707 0.0
H2603 H 0.09374 0.46323 0.91922 0.0
H2604 H 0.11383 0.45423 0.06355 0.0
H2605 H 0.12833 0.43943 0.01688 0.0
C2606 C 0.12836 0.43517 0.9136 0.0
C2607 C 0.12734 0.43395 0.85927 0.0
C2608 C 0.11954 0.44294 0.9408 0.0
C2609 C 0.11715 0.44023 0.83209 0.0
C2610 C 0.1083 0.44802 0.85885 0.0
C2611 C 0.10127 0.45794 0.94021 0.0
C2612 C 0.10281 0.4597 0.99439 0.0
C2613 C 0.10956 0.44959 0.91314 0.0
C2614 C 0.11243 0.4528 0.02172 0.0
C2615 C 0.12075 0.44445 0.9951 0.0
H2616 H 0.14374 0.69672 0.3933 0.0
H2617 H 0.09314 0.69747 0.37963 0.0
H2618 H 0.07671 0.66747 0.42162 0.0
H2619 H 0.07697 0.64094 0.46166 0.0
H2620 H 0.1288 0.64412 0.49176 0.0
H2621 H 0.14473 0.6731 0.44512 0.0
C2622 C 0.12923 0.69069 0.40087 0.0
C2623 C 0.11971 0.69935 0.38317 0.0
C2624 C 0.12014 0.67413 0.42789 0.0
C2625 C 0.10075 0.69091 0.39177 0.0
C2626 C 0.09138 0.67385 0.41629 0.0
C2627 C 0.09177 0.64815 0.45876 0.0
C2628 C 0.10166 0.64012 0.47848 0.0
C2629 C 0.10096 0.66532 0.43443 0.0
C2630 C 0.12083 0.64966 0.47486 0.0
C2631 C 0.12997 0.66629 0.44867 0.0
H2632 H 0.30529 0.40385 0.36701 0.0
H2633 H 0.30001 0.45223 0.36761 0.0
H2634 H 0.32801 0.46861 0.418 0.0
H2635 H 0.35399 0.46929 0.46128 0.0
H2636 H 0.36286 0.42333 0.44667 0.0
H2637 H 0.33333 0.40572 0.40271 0.0
C2638 C 0.31043 0.41805 0.37753 0.0
C2639 C 0.30039 0.42668 0.36462 0.0
C2640 C 0.3271 0.42774 0.40411 0.0
C2641 C 0.30714 0.44506 0.37871 0.0
C2642 C 0.32325 0.45451 0.40704 0.0
C2643 C 0.34968 0.45556 0.44747 0.0
C2644 C 0.3606 0.44765 0.45683 0.0
C2645 C 0.33332 0.44599 0.41987 0.0
C2646 C 0.35455 0.42964 0.4403 0.0
C2647 C 0.33777 0.41963 0.41485 0.0
H2648 H 0.56209 0.8806 0.33497 0.0
H2649 H 0.57941 0.86299 0.46962 0.0
H2650 H 0.56473 0.87518 0.52677 0.0
H2651 H 0.54621 0.89015 0.53783 0.0
H2652 H 0.52782 0.90653 0.40284 0.0
H2653 H 0.54352 0.89544 0.34599 0.0
C2654 C 0.56275 0.87966 0.37686 0.0
C2655 C 0.57183 0.87115 0.39849 0.0
C2656 C 0.55398 0.88632 0.40911 0.0
C2657 C 0.57247 0.86962 0.45258 0.0
C2658 C 0.56408 0.87652 0.48507 0.0
C2659 C 0.54577 0.89131 0.49595 0.0
C2660 C 0.53601 0.89909 0.47419 0.0
C2661 C 0.55468 0.88478 0.46373 0.0
C2662 C 0.53524 0.90044 0.42006 0.0
C2663 C 0.54425 0.8942 0.3877 0.0
loop_
_geom_bond_atom_site_label_1
_geom_bond_atom_site_label_2
_geom_bond_distance
_geom_bond_site_symmetry_2
_ccdc_geom_bond_type
Co0 O3 1.970 . S
Co0 N17 1.989 . S
Co0 O25 1.967 . S
Co0 O32 1.920 . S
Co1 O4 1.966 . S
Co1 N10 2.022 . S
Co1 N18 1.993 . S
Co1 O26 1.941 . S
C2 O3 1.258 . S
C2 O4 1.263 . S
O3 Co0 1.970 . S
O3 C2 1.258 . S
O4 Co1 1.966 . S
O4 C2 1.263 . S
C5 O6 1.235 . S
C5 O32 1.289 . S
O6 C5 1.235 . S
C7 C9 1.400 . S
C7 N10 1.351 . S
C7 C12 1.501 . S
C8 C9 1.387 . S
C8 N11 1.341 . S
C9 C7 1.400 . S
C9 C8 1.387 . S
N10 Co1 2.022 . S
N10 C7 1.351 . S
N10 N11 1.365 . S
N11 C8 1.341 . S
N11 N10 1.365 . S
N11 H31 0.862 . S
C12 C7 1.501 . S
C12 H13 0.961 . S
C12 H14 0.961 . S
C12 H15 0.960 . S
H13 C12 0.961 . S
H14 C12 0.961 . S
H15 C12 0.960 . S
C16 N17 1.342 . S
C16 C20 1.401 . S
C16 C21 1.499 . S
N17 Co0 1.989 . S
N17 C16 1.342 . S
N17 N18 1.388 . S
N18 Co1 1.993 . S
N18 N17 1.388 . S
N18 C19 1.346 . S
C19 N18 1.346 . S
C19 C20 1.396 . S
C19 C29 1.510 . S
C20 C16 1.401 . S
C20 C19 1.396 . S
C21 C16 1.499 . S
C21 H22 0.959 . S
C21 H23 0.960 . S
C21 H24 0.961 . S
H22 C21 0.959 . S
H23 C21 0.960 . S
H24 C21 0.961 . S
O25 Co0 1.967 . S
O25 C33 1.258 . S
O26 Co1 1.941 . S
O26 C33 1.266 . S
H27 C29 0.959 . S
H28 C29 0.961 . S
C29 C19 1.510 . S
C29 H27 0.959 . S
C29 H28 0.961 . S
C29 H30 0.960 . S
H30 C29 0.960 . S
H31 N11 0.862 . S
O32 Co0 1.920 . S
O32 C5 1.289 . S
C33 O25 1.258 . S
C33 O26 1.266 . S
Co34 O37 1.970 . S
Co34 N51 1.989 . S
Co34 O59 1.967 . S
Co34 O66 1.920 . S
Co35 O38 1.966 . S
Co35 N44 2.022 . S
Co35 N52 1.993 . S
Co35 O60 1.941 . S
C36 O37 1.258 . S
C36 O38 1.263 . S
O37 Co34 1.970 . S
O37 C36 1.258 . S
O38 Co35 1.966 . S
O38 C36 1.263 . S
C39 O40 1.235 . S
C39 O66 1.289 . S
O40 C39 1.235 . S
C41 C43 1.400 . S
C41 N44 1.351 . S
C41 C46 1.501 . S
C42 C43 1.387 . S
C42 N45 1.341 . S
C43 C41 1.400 . S
C43 C42 1.387 . S
N44 Co35 2.022 . S
N44 C41 1.351 . S
N44 N45 1.365 . S
N45 C42 1.341 . S
N45 N44 1.365 . S
N45 H65 0.862 . S
C46 C41 1.501 . S
C46 H47 0.961 . S
C46 H48 0.961 . S
C46 H49 0.960 . S
H47 C46 0.961 . S
H48 C46 0.961 . S
H49 C46 0.960 . S
C50 N51 1.342 . S
C50 C54 1.401 . S
C50 C55 1.499 . S
N51 Co34 1.989 . S
N51 C50 1.342 . S
N51 N52 1.388 . S
N52 Co35 1.993 . S
N52 N51 1.388 . S
N52 C53 1.346 . S
C53 N52 1.346 . S
C53 C54 1.396 . S
C53 C63 1.510 . S
C54 C50 1.401 . S
C54 C53 1.396 . S
C55 C50 1.499 . S
C55 H56 0.959 . S
C55 H57 0.960 . S
C55 H58 0.961 . S
H56 C55 0.959 . S
H57 C55 0.960 . S
H58 C55 0.961 . S
O59 Co34 1.967 . S
O59 C67 1.258 . S
O60 Co35 1.941 . S
O60 C67 1.266 . S
H61 C63 0.959 . S
H62 C63 0.961 . S
C63 C53 1.510 . S
C63 H61 0.959 . S
C63 H62 0.961 . S
C63 H64 0.960 . S
H64 C63 0.960 . S
H65 N45 0.862 . S
O66 Co34 1.920 . S
O66 C39 1.289 . S
C67 O59 1.258 . S
C67 O60 1.266 . S
Co68 O71 1.970 . S
Co68 N85 1.989 . S
Co68 O93 1.967 . S
Co68 O100 1.920 . S
Co69 O72 1.966 . S
Co69 N78 2.022 . S
Co69 N86 1.993 . S
Co69 O94 1.941 . S
C70 O71 1.258 . S
C70 O72 1.263 . S
O71 Co68 1.970 . S
O71 C70 1.258 . S
O72 Co69 1.966 . S
O72 C70 1.263 . S
C73 O74 1.235 . S
C73 O100 1.289 . S
O74 C73 1.235 . S
C75 C77 1.400 . S
C75 N78 1.351 . S
C75 C80 1.501 . S
C76 C77 1.387 . S
C76 N79 1.341 . S
C77 C75 1.400 . S
C77 C76 1.387 . S
N78 Co69 2.022 . S
N78 C75 1.351 . S
N78 N79 1.365 . S
N79 C76 1.341 . S
N79 N78 1.365 . S
N79 H99 0.862 . S
C80 C75 1.501 . S
C80 H81 0.961 . S
C80 H82 0.961 . S
C80 H83 0.960 . S
H81 C80 0.961 . S
H82 C80 0.961 . S
H83 C80 0.960 . S
C84 N85 1.342 . S
C84 C88 1.401 . S
C84 C89 1.499 . S
N85 Co68 1.989 . S
N85 C84 1.342 . S
N85 N86 1.388 . S
N86 Co69 1.993 . S
N86 N85 1.388 . S
N86 C87 1.346 . S
C87 N86 1.346 . S
C87 C88 1.396 . S
C87 C97 1.510 . S
C88 C84 1.401 . S
C88 C87 1.396 . S
C89 C84 1.499 . S
C89 H90 0.959 . S
C89 H91 0.960 . S
C89 H92 0.961 . S
H90 C89 0.959 . S
H91 C89 0.960 . S
H92 C89 0.961 . S
O93 Co68 1.967 . S
O93 C101 1.258 . S
O94 Co69 1.941 . S
O94 C101 1.266 . S
H95 C97 0.959 . S
H96 C97 0.961 . S
C97 C87 1.510 . S
C97 H95 0.959 . S
C97 H96 0.961 . S
C97 H98 0.960 . S
H98 C97 0.960 . S
H99 N79 0.862 . S
O100 Co68 1.920 . S
O100 C73 1.289 . S
C101 O93 1.258 . S
C101 O94 1.266 . S
Co102 O105 1.970 . S
Co102 N119 1.989 . S
Co102 O127 1.967 . S
Co102 O134 1.920 . S
Co103 O106 1.966 . S
Co103 N112 2.022 . S
Co103 N120 1.993 . S
Co103 O128 1.941 . S
C104 O105 1.258 . S
C104 O106 1.263 . S
O105 Co102 1.970 . S
O105 C104 1.258 . S
O106 Co103 1.966 . S
O106 C104 1.263 . S
C107 O108 1.235 . S
C107 O134 1.289 . S
O108 C107 1.235 . S
C109 C111 1.400 . S
C109 N112 1.351 . S
C109 C114 1.501 . S
C110 C111 1.387 . S
C110 N113 1.341 . S
C111 C109 1.400 . S
C111 C110 1.387 . S
N112 Co103 2.022 . S
N112 C109 1.351 . S
N112 N113 1.365 . S
N113 C110 1.341 . S
N113 N112 1.365 . S
N113 H133 0.862 . S
C114 C109 1.501 . S
C114 H115 0.961 . S
C114 H116 0.961 . S
C114 H117 0.960 . S
H115 C114 0.961 . S
H116 C114 0.961 . S
H117 C114 0.960 . S
C118 N119 1.342 . S
C118 C122 1.401 . S
C118 C123 1.499 . S
N119 Co102 1.989 . S
N119 C118 1.342 . S
N119 N120 1.388 . S
N120 Co103 1.993 . S
N120 N119 1.388 . S
N120 C121 1.346 . S
C121 N120 1.346 . S
C121 C122 1.396 . S
C121 C131 1.510 . S
C122 C118 1.401 . S
C122 C121 1.396 . S
C123 C118 1.499 . S
C123 H124 0.959 . S
C123 H125 0.960 . S
C123 H126 0.961 . S
H124 C123 0.959 . S
H125 C123 0.960 . S
H126 C123 0.961 . S
O127 Co102 1.967 . S
O127 C135 1.258 . S
O128 Co103 1.941 . S
O128 C135 1.266 . S
H129 C131 0.959 . S
H130 C131 0.961 . S
C131 C121 1.510 . S
C131 H129 0.959 . S
C131 H130 0.961 . S
C131 H132 0.960 . S
H132 C131 0.960 . S
H133 N113 0.862 . S
O134 Co102 1.920 . S
O134 C107 1.289 . S
C135 O127 1.258 . S
C135 O128 1.266 . S
Co136 O139 1.970 . S
Co136 N153 1.989 . S
Co136 O161 1.967 . S
Co136 O168 1.920 . S
Co137 O140 1.966 . S
Co137 N146 2.022 . S
Co137 N154 1.993 . S
Co137 O162 1.941 . S
C138 O139 1.258 . S
C138 O140 1.263 . S
O139 Co136 1.970 . S
O139 C138 1.258 . S
O140 Co137 1.966 . S
O140 C138 1.263 . S
C141 O142 1.235 . S
C141 O168 1.289 . S
O142 C141 1.235 . S
C143 C145 1.400 . S
C143 N146 1.351 . S
C143 C148 1.501 . S
C144 C145 1.387 . S
C144 N147 1.341 . S
C145 C143 1.400 . S
C145 C144 1.387 . S
N146 Co137 2.022 . S
N146 C143 1.351 . S
N146 N147 1.365 . S
N147 C144 1.341 . S
N147 N146 1.365 . S
N147 H167 0.862 . S
C148 C143 1.501 . S
C148 H149 0.961 . S
C148 H150 0.961 . S
C148 H151 0.960 . S
H149 C148 0.961 . S
H150 C148 0.961 . S
H151 C148 0.960 . S
C152 N153 1.342 . S
C152 C156 1.401 . S
C152 C157 1.499 . S
N153 Co136 1.989 . S
N153 C152 1.342 . S
N153 N154 1.388 . S
N154 Co137 1.993 . S
N154 N153 1.388 . S
N154 C155 1.346 . S
C155 N154 1.346 . S
C155 C156 1.396 . S
C155 C165 1.510 . S
C156 C152 1.401 . S
C156 C155 1.396 . S
C157 C152 1.499 . S
C157 H158 0.959 . S
C157 H159 0.960 . S
C157 H160 0.961 . S
H158 C157 0.959 . S
H159 C157 0.960 . S
H160 C157 0.961 . S
O161 Co136 1.967 . S
O161 C169 1.258 . S
O162 Co137 1.941 . S
O162 C169 1.266 . S
H163 C165 0.959 . S
H164 C165 0.961 . S
C165 C155 1.510 . S
C165 H163 0.959 . S
C165 H164 0.961 . S
C165 H166 0.960 . S
H166 C165 0.960 . S
H167 N147 0.862 . S
O168 Co136 1.920 . S
O168 C141 1.289 . S
C169 O161 1.258 . S
C169 O162 1.266 . S
Co170 O173 1.970 . S
Co170 N187 1.989 . S
Co170 O195 1.967 . S
Co170 O202 1.920 . S
Co171 O174 1.966 . S
Co171 N180 2.022 . S
Co171 N188 1.993 . S
Co171 O196 1.941 . S
C172 O173 1.258 . S
C172 O174 1.263 . S
O173 Co170 1.970 . S
O173 C172 1.258 . S
O174 Co171 1.966 . S
O174 C172 1.263 . S
C175 O176 1.235 . S
C175 O202 1.289 . S
O176 C175 1.235 . S
C177 C179 1.400 . S
C177 N180 1.351 . S
C177 C182 1.501 . S
C178 C179 1.387 . S
C178 N181 1.341 . S
C179 C177 1.400 . S
C179 C178 1.387 . S
N180 Co171 2.022 . S
N180 C177 1.351 . S
N180 N181 1.365 . S
N181 C178 1.341 . S
N181 N180 1.365 . S
N181 H201 0.862 . S
C182 C177 1.501 . S
C182 H183 0.961 . S
C182 H184 0.961 . S
C182 H185 0.960 . S
H183 C182 0.961 . S
H184 C182 0.961 . S
H185 C182 0.960 . S
C186 N187 1.342 . S
C186 C190 1.401 . S
C186 C191 1.499 . S
N187 Co170 1.989 . S
N187 C186 1.342 . S
N187 N188 1.388 . S
N188 Co171 1.993 . S
N188 N187 1.388 . S
N188 C189 1.346 . S
C189 N188 1.346 . S
C189 C190 1.396 . S
C189 C199 1.510 . S
C190 C186 1.401 . S
C190 C189 1.396 . S
C191 C186 1.499 . S
C191 H192 0.959 . S
C191 H193 0.960 . S
C191 H194 0.961 . S
H192 C191 0.959 . S
H193 C191 0.960 . S
H194 C191 0.961 . S
O195 Co170 1.967 . S
O195 C203 1.258 . S
O196 Co171 1.941 . S
O196 C203 1.266 . S
H197 C199 0.959 . S
H198 C199 0.961 . S
C199 C189 1.510 . S
C199 H197 0.959 . S
C199 H198 0.961 . S
C199 H200 0.960 . S
H200 C199 0.960 . S
H201 N181 0.862 . S
O202 Co170 1.920 . S
O202 C175 1.289 . S
C203 O195 1.258 . S
C203 O196 1.266 . S
Co204 O207 1.970 . S
Co204 N221 1.989 . S
Co204 O229 1.967 . S
Co204 O236 1.920 . S
Co205 O208 1.966 . S
Co205 N214 2.022 . S
Co205 N222 1.993 . S
Co205 O230 1.941 . S
C206 O207 1.258 . S
C206 O208 1.263 . S
O207 Co204 1.970 . S
O207 C206 1.258 . S
O208 Co205 1.966 . S
O208 C206 1.263 . S
C209 O210 1.235 . S
C209 O236 1.289 . S
O210 C209 1.235 . S
C211 C213 1.400 . S
C211 N214 1.351 . S
C211 C216 1.501 . S
C212 C213 1.387 . S
C212 N215 1.341 . S
C213 C211 1.400 . S
C213 C212 1.387 . S
N214 Co205 2.022 . S
N214 C211 1.351 . S
N214 N215 1.365 . S
N215 C212 1.341 . S
N215 N214 1.365 . S
N215 H235 0.862 . S
C216 C211 1.501 . S
C216 H217 0.961 . S
C216 H218 0.961 . S
C216 H219 0.960 . S
H217 C216 0.961 . S
H218 C216 0.961 . S
H219 C216 0.960 . S
C220 N221 1.342 . S
C220 C224 1.401 . S
C220 C225 1.499 . S
N221 Co204 1.989 . S
N221 C220 1.342 . S
N221 N222 1.388 . S
N222 Co205 1.993 . S
N222 N221 1.388 . S
N222 C223 1.346 . S
C223 N222 1.346 . S
C223 C224 1.396 . S
C223 C233 1.510 . S
C224 C220 1.401 . S
C224 C223 1.396 . S
C225 C220 1.499 . S
C225 H226 0.959 . S
C225 H227 0.960 . S
C225 H228 0.961 . S
H226 C225 0.959 . S
H227 C225 0.960 . S
H228 C225 0.961 . S
O229 Co204 1.967 . S
O229 C237 1.258 . S
O230 Co205 1.941 . S
O230 C237 1.266 . S
H231 C233 0.959 . S
H232 C233 0.961 . S
C233 C223 1.510 . S
C233 H231 0.959 . S
C233 H232 0.961 . S
C233 H234 0.960 . S
H234 C233 0.960 . S
H235 N215 0.862 . S
O236 Co204 1.920 . S
O236 C209 1.289 . S
C237 O229 1.258 . S
C237 O230 1.266 . S
Co238 O241 1.970 . S
Co238 N255 1.989 . S
Co238 O263 1.967 . S
Co238 O270 1.920 . S
Co239 O242 1.966 . S
Co239 N248 2.022 . S
Co239 N256 1.993 . S
Co239 O264 1.941 . S
C240 O241 1.258 . S
C240 O242 1.263 . S
O241 Co238 1.970 . S
O241 C240 1.258 . S
O242 Co239 1.966 . S
O242 C240 1.263 . S
C243 O244 1.235 . S
C243 O270 1.289 . S
O244 C243 1.235 . S
C245 C247 1.400 . S
C245 N248 1.351 . S
C245 C250 1.501 . S
C246 C247 1.387 . S
C246 N249 1.341 . S
C247 C245 1.400 . S
C247 C246 1.387 . S
N248 Co239 2.022 . S
N248 C245 1.351 . S
N248 N249 1.365 . S
N249 C246 1.341 . S
N249 N248 1.365 . S
N249 H269 0.862 . S
C250 C245 1.501 . S
C250 H251 0.961 . S
C250 H252 0.961 . S
C250 H253 0.960 . S
H251 C250 0.961 . S
H252 C250 0.961 . S
H253 C250 0.960 . S
C254 N255 1.342 . S
C254 C258 1.401 . S
C254 C259 1.499 . S
N255 Co238 1.989 . S
N255 C254 1.342 . S
N255 N256 1.388 . S
N256 Co239 1.993 . S
N256 N255 1.388 . S
N256 C257 1.346 . S
C257 N256 1.346 . S
C257 C258 1.396 . S
C257 C267 1.510 . S
C258 C254 1.401 . S
C258 C257 1.396 . S
C259 C254 1.499 . S
C259 H260 0.959 . S
C259 H261 0.960 . S
C259 H262 0.961 . S
H260 C259 0.959 . S
H261 C259 0.960 . S
H262 C259 0.961 . S
O263 Co238 1.967 . S
O263 C271 1.258 . S
O264 Co239 1.941 . S
O264 C271 1.266 . S
H265 C267 0.959 . S
H266 C267 0.961 . S
C267 C257 1.510 . S
C267 H265 0.959 . S
C267 H266 0.961 . S
C267 H268 0.960 . S
H268 C267 0.960 . S
H269 N249 0.862 . S
O270 Co238 1.920 . S
O270 C243 1.289 . S
C271 O263 1.258 . S
C271 O264 1.266 . S
Co272 O275 1.970 . S
Co272 N289 1.989 . S
Co272 O297 1.967 . S
Co272 O304 1.920 . S
Co273 O276 1.966 . S
Co273 N282 2.022 . S
Co273 N290 1.993 . S
Co273 O298 1.941 . S
C274 O275 1.258 . S
C274 O276 1.263 . S
O275 Co272 1.970 . S
O275 C274 1.258 . S
O276 Co273 1.966 . S
O276 C274 1.263 . S
C277 O278 1.235 . S
C277 O304 1.289 . S
O278 C277 1.235 . S
C279 C281 1.400 . S
C279 N282 1.351 . S
C279 C284 1.501 . S
C280 C281 1.387 . S
C280 N283 1.341 . S
C281 C279 1.400 . S
C281 C280 1.387 . S
N282 Co273 2.022 . S
N282 C279 1.351 . S
N282 N283 1.365 . S
N283 C280 1.341 . S
N283 N282 1.365 . S
N283 H303 0.862 . S
C284 C279 1.501 . S
C284 H285 0.961 . S
C284 H286 0.961 . S
C284 H287 0.960 . S
H285 C284 0.961 . S
H286 C284 0.961 . S
H287 C284 0.960 . S
C288 N289 1.342 . S
C288 C292 1.401 . S
C288 C293 1.499 . S
N289 Co272 1.989 . S
N289 C288 1.342 . S
N289 N290 1.388 . S
N290 Co273 1.993 . S
N290 N289 1.388 . S
N290 C291 1.346 . S
C291 N290 1.346 . S
C291 C292 1.396 . S
C291 C301 1.510 . S
C292 C288 1.401 . S
C292 C291 1.396 . S
C293 C288 1.499 . S
C293 H294 0.959 . S
C293 H295 0.960 . S
C293 H296 0.961 . S
H294 C293 0.959 . S
H295 C293 0.960 . S
H296 C293 0.961 . S
O297 Co272 1.967 . S
O297 C305 1.258 . S
O298 Co273 1.941 . S
O298 C305 1.266 . S
H299 C301 0.959 . S
H300 C301 0.961 . S
C301 C291 1.510 . S
C301 H299 0.959 . S
C301 H300 0.961 . S
C301 H302 0.960 . S
H302 C301 0.960 . S
H303 N283 0.862 . S
O304 Co272 1.920 . S
O304 C277 1.289 . S
C305 O297 1.258 . S
C305 O298 1.266 . S
Co306 O309 1.970 . S
Co306 N323 1.989 . S
Co306 O331 1.967 . S
Co306 O338 1.920 . S
Co307 O310 1.966 . S
Co307 N316 2.022 . S
Co307 N324 1.993 . S
Co307 O332 1.941 . S
C308 O309 1.258 . S
C308 O310 1.263 . S
O309 Co306 1.970 . S
O309 C308 1.258 . S
O310 Co307 1.966 . S
O310 C308 1.263 . S
C311 O312 1.235 . S
C311 O338 1.289 . S
O312 C311 1.235 . S
C313 C315 1.400 . S
C313 N316 1.351 . S
C313 C318 1.501 . S
C314 C315 1.387 . S
C314 N317 1.341 . S
C315 C313 1.400 . S
C315 C314 1.387 . S
N316 Co307 2.022 . S
N316 C313 1.351 . S
N316 N317 1.365 . S
N317 C314 1.341 . S
N317 N316 1.365 . S
N317 H337 0.862 . S
C318 C313 1.501 . S
C318 H319 0.961 . S
C318 H320 0.961 . S
C318 H321 0.960 . S
H319 C318 0.961 . S
H320 C318 0.961 . S
H321 C318 0.960 . S
C322 N323 1.342 . S
C322 C326 1.401 . S
C322 C327 1.499 . S
N323 Co306 1.989 . S
N323 C322 1.342 . S
N323 N324 1.388 . S
N324 Co307 1.993 . S
N324 N323 1.388 . S
N324 C325 1.346 . S
C325 N324 1.346 . S
C325 C326 1.396 . S
C325 C335 1.510 . S
C326 C322 1.401 . S
C326 C325 1.396 . S
C327 C322 1.499 . S
C327 H328 0.959 . S
C327 H329 0.960 . S
C327 H330 0.961 . S
H328 C327 0.959 . S
H329 C327 0.960 . S
H330 C327 0.961 . S
O331 Co306 1.967 . S
O331 C339 1.258 . S
O332 Co307 1.941 . S
O332 C339 1.266 . S
H333 C335 0.959 . S
H334 C335 0.961 . S
C335 C325 1.510 . S
C335 H333 0.959 . S
C335 H334 0.961 . S
C335 H336 0.960 . S
H336 C335 0.960 . S
H337 N317 0.862 . S
O338 Co306 1.920 . S
O338 C311 1.289 . S
C339 O331 1.258 . S
C339 O332 1.266 . S
Co340 O343 1.970 . S
Co340 N357 1.989 . S
Co340 O365 1.967 . S
Co340 O372 1.920 . S
Co341 O344 1.966 . S
Co341 N350 2.022 . S
Co341 N358 1.993 . S
Co341 O366 1.941 . S
C342 O343 1.258 . S
C342 O344 1.263 . S
O343 Co340 1.970 . S
O343 C342 1.258 . S
O344 Co341 1.966 . S
O344 C342 1.263 . S
C345 O346 1.235 . S
C345 O372 1.289 . S
O346 C345 1.235 . S
C347 C349 1.400 . S
C347 N350 1.351 . S
C347 C352 1.501 . S
C348 C349 1.387 . S
C348 N351 1.341 . S
C349 C347 1.400 . S
C349 C348 1.387 . S
N350 Co341 2.022 . S
N350 C347 1.351 . S
N350 N351 1.365 . S
N351 C348 1.341 . S
N351 N350 1.365 . S
N351 H371 0.862 . S
C352 C347 1.501 . S
C352 H353 0.961 . S
C352 H354 0.961 . S
C352 H355 0.960 . S
H353 C352 0.961 . S
H354 C352 0.961 . S
H355 C352 0.960 . S
C356 N357 1.342 . S
C356 C360 1.401 . S
C356 C361 1.499 . S
N357 Co340 1.989 . S
N357 C356 1.342 . S
N357 N358 1.388 . S
N358 Co341 1.993 . S
N358 N357 1.388 . S
N358 C359 1.346 . S
C359 N358 1.346 . S
C359 C360 1.396 . S
C359 C369 1.510 . S
C360 C356 1.401 . S
C360 C359 1.396 . S
C361 C356 1.499 . S
C361 H362 0.959 . S
C361 H363 0.960 . S
C361 H364 0.961 . S
H362 C361 0.959 . S
H363 C361 0.960 . S
H364 C361 0.961 . S
O365 Co340 1.967 . S
O365 C373 1.258 . S
O366 Co341 1.941 . S
O366 C373 1.266 . S
H367 C369 0.959 . S
H368 C369 0.961 . S
C369 C359 1.510 . S
C369 H367 0.959 . S
C369 H368 0.961 . S
C369 H370 0.960 . S
H370 C369 0.960 . S
H371 N351 0.862 . S
O372 Co340 1.920 . S
O372 C345 1.289 . S
C373 O365 1.258 . S
C373 O366 1.266 . S
Co374 O377 1.970 . S
Co374 N391 1.989 . S
Co374 O399 1.967 . S
Co374 O406 1.920 . S
Co375 O378 1.966 . S
Co375 N384 2.022 . S
Co375 N392 1.993 . S
Co375 O400 1.941 . S
C376 O377 1.258 . S
C376 O378 1.263 . S
O377 Co374 1.970 . S
O377 C376 1.258 . S
O378 Co375 1.966 . S
O378 C376 1.263 . S
C379 O380 1.235 . S
C379 O406 1.289 . S
O380 C379 1.235 . S
C381 C383 1.400 . S
C381 N384 1.351 . S
C381 C386 1.501 . S
C382 C383 1.387 . S
C382 N385 1.341 . S
C383 C381 1.400 . S
C383 C382 1.387 . S
N384 Co375 2.022 . S
N384 C381 1.351 . S
N384 N385 1.365 . S
N385 C382 1.341 . S
N385 N384 1.365 . S
N385 H405 0.862 . S
C386 C381 1.501 . S
C386 H387 0.961 . S
C386 H388 0.961 . S
C386 H389 0.960 . S
H387 C386 0.961 . S
H388 C386 0.961 . S
H389 C386 0.960 . S
C390 N391 1.342 . S
C390 C394 1.401 . S
C390 C395 1.499 . S
N391 Co374 1.989 . S
N391 C390 1.342 . S
N391 N392 1.388 . S
N392 Co375 1.993 . S
N392 N391 1.388 . S
N392 C393 1.346 . S
C393 N392 1.346 . S
C393 C394 1.396 . S
C393 C403 1.510 . S
C394 C390 1.401 . S
C394 C393 1.396 . S
C395 C390 1.499 . S
C395 H396 0.959 . S
C395 H397 0.960 . S
C395 H398 0.961 . S
H396 C395 0.959 . S
H397 C395 0.960 . S
H398 C395 0.961 . S
O399 Co374 1.967 . S
O399 C407 1.258 . S
O400 Co375 1.941 . S
O400 C407 1.266 . S
H401 C403 0.959 . S
H402 C403 0.961 . S
C403 C393 1.510 . S
C403 H401 0.959 . S
C403 H402 0.961 . S
C403 H404 0.960 . S
H404 C403 0.960 . S
H405 N385 0.862 . S
O406 Co374 1.920 . S
O406 C379 1.289 . S
C407 O399 1.258 . S
C407 O400 1.266 . S
Co408 O411 1.970 . S
Co408 N425 1.989 . S
Co408 O433 1.967 . S
Co408 O440 1.920 . S
Co409 O412 1.966 . S
Co409 N418 2.022 . S
Co409 N426 1.993 . S
Co409 O434 1.941 . S
C410 O411 1.258 . S
C410 O412 1.263 . S
O411 Co408 1.970 . S
O411 C410 1.258 . S
O412 Co409 1.966 . S
O412 C410 1.263 . S
C413 O414 1.235 . S
C413 O440 1.289 . S
O414 C413 1.235 . S
C415 C417 1.400 . S
C415 N418 1.351 . S
C415 C420 1.501 . S
C416 C417 1.387 . S
C416 N419 1.341 . S
C417 C415 1.400 . S
C417 C416 1.387 . S
N418 Co409 2.022 . S
N418 C415 1.351 . S
N418 N419 1.365 . S
N419 C416 1.341 . S
N419 N418 1.365 . S
N419 H439 0.862 . S
C420 C415 1.501 . S
C420 H421 0.961 . S
C420 H422 0.961 . S
C420 H423 0.960 . S
H421 C420 0.961 . S
H422 C420 0.961 . S
H423 C420 0.960 . S
C424 N425 1.342 . S
C424 C428 1.401 . S
C424 C429 1.499 . S
N425 Co408 1.989 . S
N425 C424 1.342 . S
N425 N426 1.388 . S
N426 Co409 1.993 . S
N426 N425 1.388 . S
N426 C427 1.346 . S
C427 N426 1.346 . S
C427 C428 1.396 . S
C427 C437 1.510 . S
C428 C424 1.401 . S
C428 C427 1.396 . S
C429 C424 1.499 . S
C429 H430 0.959 . S
C429 H431 0.960 . S
C429 H432 0.961 . S
H430 C429 0.959 . S
H431 C429 0.960 . S
H432 C429 0.961 . S
O433 Co408 1.967 . S
O433 C441 1.258 . S
O434 Co409 1.941 . S
O434 C441 1.266 . S
H435 C437 0.959 . S
H436 C437 0.961 . S
C437 C427 1.510 . S
C437 H435 0.959 . S
C437 H436 0.961 . S
C437 H438 0.960 . S
H438 C437 0.960 . S
H439 N419 0.862 . S
O440 Co408 1.920 . S
O440 C413 1.289 . S
C441 O433 1.258 . S
C441 O434 1.266 . S
Co442 O445 1.970 . S
Co442 N459 1.989 . S
Co442 O467 1.967 . S
Co442 O474 1.920 . S
Co443 O446 1.966 . S
Co443 N452 2.022 . S
Co443 N460 1.993 . S
Co443 O468 1.941 . S
C444 O445 1.258 . S
C444 O446 1.263 . S
O445 Co442 1.970 . S
O445 C444 1.258 . S
O446 Co443 1.966 . S
O446 C444 1.263 . S
C447 O448 1.235 . S
C447 O474 1.289 . S
O448 C447 1.235 . S
C449 C451 1.400 . S
C449 N452 1.351 . S
C449 C454 1.501 . S
C450 C451 1.387 . S
C450 N453 1.341 . S
C451 C449 1.400 . S
C451 C450 1.387 . S
N452 Co443 2.022 . S
N452 C449 1.351 . S
N452 N453 1.365 . S
N453 C450 1.341 . S
N453 N452 1.365 . S
N453 H473 0.862 . S
C454 C449 1.501 . S
C454 H455 0.961 . S
C454 H456 0.961 . S
C454 H457 0.960 . S
H455 C454 0.961 . S
H456 C454 0.961 . S
H457 C454 0.960 . S
C458 N459 1.342 . S
C458 C462 1.401 . S
C458 C463 1.499 . S
N459 Co442 1.989 . S
N459 C458 1.342 . S
N459 N460 1.388 . S
N460 Co443 1.993 . S
N460 N459 1.388 . S
N460 C461 1.346 . S
C461 N460 1.346 . S
C461 C462 1.396 . S
C461 C471 1.510 . S
C462 C458 1.401 . S
C462 C461 1.396 . S
C463 C458 1.499 . S
C463 H464 0.959 . S
C463 H465 0.960 . S
C463 H466 0.961 . S
H464 C463 0.959 . S
H465 C463 0.960 . S
H466 C463 0.961 . S
O467 Co442 1.967 . S
O467 C475 1.258 . S
O468 Co443 1.941 . S
O468 C475 1.266 . S
H469 C471 0.959 . S
H470 C471 0.961 . S
C471 C461 1.510 . S
C471 H469 0.959 . S
C471 H470 0.961 . S
C471 H472 0.960 . S
H472 C471 0.960 . S
H473 N453 0.862 . S
O474 Co442 1.920 . S
O474 C447 1.289 . S
C475 O467 1.258 . S
C475 O468 1.266 . S
Co476 O479 1.970 . S
Co476 N493 1.989 . S
Co476 O501 1.967 . S
Co476 O508 1.920 . S
Co477 O480 1.966 . S
Co477 N486 2.022 . S
Co477 N494 1.993 . S
Co477 O502 1.941 . S
C478 O479 1.258 . S
C478 O480 1.263 . S
O479 Co476 1.970 . S
O479 C478 1.258 . S
O480 Co477 1.966 . S
O480 C478 1.263 . S
C481 O482 1.235 . S
C481 O508 1.289 . S
O482 C481 1.235 . S
C483 C485 1.400 . S
C483 N486 1.351 . S
C483 C488 1.501 . S
C484 C485 1.387 . S
C484 N487 1.341 . S
C485 C483 1.400 . S
C485 C484 1.387 . S
N486 Co477 2.022 . S
N486 C483 1.351 . S
N486 N487 1.365 . S
N487 C484 1.341 . S
N487 N486 1.365 . S
N487 H507 0.862 . S
C488 C483 1.501 . S
C488 H489 0.961 . S
C488 H490 0.961 . S
C488 H491 0.960 . S
H489 C488 0.961 . S
H490 C488 0.961 . S
H491 C488 0.960 . S
C492 N493 1.342 . S
C492 C496 1.401 . S
C492 C497 1.499 . S
N493 Co476 1.989 . S
N493 C492 1.342 . S
N493 N494 1.388 . S
N494 Co477 1.993 . S
N494 N493 1.388 . S
N494 C495 1.346 . S
C495 N494 1.346 . S
C495 C496 1.396 . S
C495 C505 1.510 . S
C496 C492 1.401 . S
C496 C495 1.396 . S
C497 C492 1.499 . S
C497 H498 0.959 . S
C497 H499 0.960 . S
C497 H500 0.961 . S
H498 C497 0.959 . S
H499 C497 0.960 . S
H500 C497 0.961 . S
O501 Co476 1.967 . S
O501 C509 1.258 . S
O502 Co477 1.941 . S
O502 C509 1.266 . S
H503 C505 0.959 . S
H504 C505 0.961 . S
C505 C495 1.510 . S
C505 H503 0.959 . S
C505 H504 0.961 . S
C505 H506 0.960 . S
H506 C505 0.960 . S
H507 N487 0.862 . S
O508 Co476 1.920 . S
O508 C481 1.289 . S
C509 O501 1.258 . S
C509 O502 1.266 . S
Co510 O513 1.970 . S
Co510 N527 1.989 . S
Co510 O535 1.967 . S
Co510 O542 1.920 . S
Co511 O514 1.966 . S
Co511 N520 2.022 . S
Co511 N528 1.993 . S
Co511 O536 1.941 . S
C512 O513 1.258 . S
C512 O514 1.263 . S
O513 Co510 1.970 . S
O513 C512 1.258 . S
O514 Co511 1.966 . S
O514 C512 1.263 . S
C515 O516 1.235 . S
C515 O542 1.289 . S
O516 C515 1.235 . S
C517 C519 1.400 . S
C517 N520 1.351 . S
C517 C522 1.501 . S
C518 C519 1.387 . S
C518 N521 1.341 . S
C519 C517 1.400 . S
C519 C518 1.387 . S
N520 Co511 2.022 . S
N520 C517 1.351 . S
N520 N521 1.365 . S
N521 C518 1.341 . S
N521 N520 1.365 . S
N521 H541 0.862 . S
C522 C517 1.501 . S
C522 H523 0.961 . S
C522 H524 0.961 . S
C522 H525 0.960 . S
H523 C522 0.961 . S
H524 C522 0.961 . S
H525 C522 0.960 . S
C526 N527 1.342 . S
C526 C530 1.401 . S
C526 C531 1.499 . S
N527 Co510 1.989 . S
N527 C526 1.342 . S
N527 N528 1.388 . S
N528 Co511 1.993 . S
N528 N527 1.388 . S
N528 C529 1.346 . S
C529 N528 1.346 . S
C529 C530 1.396 . S
C529 C539 1.510 . S
C530 C526 1.401 . S
C530 C529 1.396 . S
C531 C526 1.499 . S
C531 H532 0.959 . S
C531 H533 0.960 . S
C531 H534 0.961 . S
H532 C531 0.959 . S
H533 C531 0.960 . S
H534 C531 0.961 . S
O535 Co510 1.967 . S
O535 C543 1.258 . S
O536 Co511 1.941 . S
O536 C543 1.266 . S
H537 C539 0.959 . S
H538 C539 0.961 . S
C539 C529 1.510 . S
C539 H537 0.959 . S
C539 H538 0.961 . S
C539 H540 0.960 . S
H540 C539 0.960 . S
H541 N521 0.862 . S
O542 Co510 1.920 . S
O542 C515 1.289 . S
C543 O535 1.258 . S
C543 O536 1.266 . S
Co544 O547 1.970 . S
Co544 N561 1.989 . S
Co544 O569 1.967 . S
Co544 O576 1.920 . S
Co545 O548 1.966 . S
Co545 N554 2.022 . S
Co545 N562 1.993 . S
Co545 O570 1.941 . S
C546 O547 1.258 . S
C546 O548 1.263 . S
O547 Co544 1.970 . S
O547 C546 1.258 . S
O548 Co545 1.966 . S
O548 C546 1.263 . S
C549 O550 1.235 . S
C549 O576 1.289 . S
O550 C549 1.235 . S
C551 C553 1.400 . S
C551 N554 1.351 . S
C551 C556 1.501 . S
C552 C553 1.387 . S
C552 N555 1.341 . S
C553 C551 1.400 . S
C553 C552 1.387 . S
N554 Co545 2.022 . S
N554 C551 1.351 . S
N554 N555 1.365 . S
N555 C552 1.341 . S
N555 N554 1.365 . S
N555 H575 0.862 . S
C556 C551 1.501 . S
C556 H557 0.961 . S
C556 H558 0.961 . S
C556 H559 0.960 . S
H557 C556 0.961 . S
H558 C556 0.961 . S
H559 C556 0.960 . S
C560 N561 1.342 . S
C560 C564 1.401 . S
C560 C565 1.499 . S
N561 Co544 1.989 . S
N561 C560 1.342 . S
N561 N562 1.388 . S
N562 Co545 1.993 . S
N562 N561 1.388 . S
N562 C563 1.346 . S
C563 N562 1.346 . S
C563 C564 1.396 . S
C563 C573 1.510 . S
C564 C560 1.401 . S
C564 C563 1.396 . S
C565 C560 1.499 . S
C565 H566 0.959 . S
C565 H567 0.960 . S
C565 H568 0.961 . S
H566 C565 0.959 . S
H567 C565 0.960 . S
H568 C565 0.961 . S
O569 Co544 1.967 . S
O569 C577 1.258 . S
O570 Co545 1.941 . S
O570 C577 1.266 . S
H571 C573 0.959 . S
H572 C573 0.961 . S
C573 C563 1.510 . S
C573 H571 0.959 . S
C573 H572 0.961 . S
C573 H574 0.960 . S
H574 C573 0.960 . S
H575 N555 0.862 . S
O576 Co544 1.920 . S
O576 C549 1.289 . S
C577 O569 1.258 . S
C577 O570 1.266 . S
Co578 O581 1.970 . S
Co578 N595 1.989 . S
Co578 O603 1.967 . S
Co578 O610 1.920 . S
Co579 O582 1.966 . S
Co579 N588 2.022 . S
Co579 N596 1.993 . S
Co579 O604 1.941 . S
C580 O581 1.258 . S
C580 O582 1.263 . S
O581 Co578 1.970 . S
O581 C580 1.258 . S
O582 Co579 1.966 . S
O582 C580 1.263 . S
C583 O584 1.235 . S
C583 O610 1.289 . S
O584 C583 1.235 . S
C585 C587 1.400 . S
C585 N588 1.351 . S
C585 C590 1.501 . S
C586 C587 1.387 . S
C586 N589 1.341 . S
C587 C585 1.400 . S
C587 C586 1.387 . S
N588 Co579 2.022 . S
N588 C585 1.351 . S
N588 N589 1.365 . S
N589 C586 1.341 . S
N589 N588 1.365 . S
N589 H609 0.862 . S
C590 C585 1.501 . S
C590 H591 0.961 . S
C590 H592 0.961 . S
C590 H593 0.960 . S
H591 C590 0.961 . S
H592 C590 0.961 . S
H593 C590 0.960 . S
C594 N595 1.342 . S
C594 C598 1.401 . S
C594 C599 1.499 . S
N595 Co578 1.989 . S
N595 C594 1.342 . S
N595 N596 1.388 . S
N596 Co579 1.993 . S
N596 N595 1.388 . S
N596 C597 1.346 . S
C597 N596 1.346 . S
C597 C598 1.396 . S
C597 C607 1.510 . S
C598 C594 1.401 . S
C598 C597 1.396 . S
C599 C594 1.499 . S
C599 H600 0.959 . S
C599 H601 0.960 . S
C599 H602 0.961 . S
H600 C599 0.959 . S
H601 C599 0.960 . S
H602 C599 0.961 . S
O603 Co578 1.967 . S
O603 C611 1.258 . S
O604 Co579 1.941 . S
O604 C611 1.266 . S
H605 C607 0.959 . S
H606 C607 0.961 . S
C607 C597 1.510 . S
C607 H605 0.959 . S
C607 H606 0.961 . S
C607 H608 0.960 . S
H608 C607 0.960 . S
H609 N589 0.862 . S
O610 Co578 1.920 . S
O610 C583 1.289 . S
C611 O603 1.258 . S
C611 O604 1.266 . S
Co612 O615 1.970 . S
Co612 N629 1.989 . S
Co612 O637 1.967 . S
Co612 O644 1.920 . S
Co613 O616 1.966 . S
Co613 N622 2.022 . S
Co613 N630 1.993 . S
Co613 O638 1.941 . S
C614 O615 1.258 . S
C614 O616 1.263 . S
O615 Co612 1.970 . S
O615 C614 1.258 . S
O616 Co613 1.966 . S
O616 C614 1.263 . S
C617 O618 1.235 . S
C617 O644 1.289 . S
O618 C617 1.235 . S
C619 C621 1.400 1_554 S
C619 N622 1.351 . S
C619 C624 1.501 . S
C620 C621 1.387 . S
C620 N623 1.341 1_556 S
C621 C619 1.400 1_556 S
C621 C620 1.387 . S
N622 Co613 2.022 . S
N622 C619 1.351 . S
N622 N623 1.365 . S
N623 C620 1.341 1_554 S
N623 N622 1.365 . S
N623 H643 0.862 . S
C624 C619 1.501 . S
C624 H625 0.961 . S
C624 H626 0.961 1_554 S
C624 H627 0.960 1_554 S
H625 C624 0.961 . S
H626 C624 0.961 1_556 S
H627 C624 0.960 1_556 S
C628 N629 1.342 . S
C628 C632 1.401 . S
C628 C633 1.499 . S
N629 Co612 1.989 . S
N629 C628 1.342 . S
N629 N630 1.388 . S
N630 Co613 1.993 . S
N630 N629 1.388 . S
N630 C631 1.346 . S
C631 N630 1.346 . S
C631 C632 1.396 . S
C631 C641 1.510 . S
C632 C628 1.401 . S
C632 C631 1.396 . S
C633 C628 1.499 . S
C633 H634 0.959 . S
C633 H635 0.960 . S
C633 H636 0.961 . S
H634 C633 0.959 . S
H635 C633 0.960 . S
H636 C633 0.961 . S
O637 Co612 1.967 . S
O637 C645 1.258 . S
O638 Co613 1.941 . S
O638 C645 1.266 . S
H639 C641 0.959 . S
H640 C641 0.961 . S
C641 C631 1.510 . S
C641 H639 0.959 . S
C641 H640 0.961 . S
C641 H642 0.960 . S
H642 C641 0.960 . S
H643 N623 0.862 . S
O644 Co612 1.920 . S
O644 C617 1.289 . S
C645 O637 1.258 . S
C645 O638 1.266 . S
Co646 O649 1.970 . S
Co646 N663 1.989 . S
Co646 O671 1.967 . S
Co646 O678 1.920 . S
Co647 O650 1.966 . S
Co647 N656 2.022 . S
Co647 N664 1.993 . S
Co647 O672 1.941 . S
C648 O649 1.258 . S
C648 O650 1.263 . S
O649 Co646 1.970 . S
O649 C648 1.258 . S
O650 Co647 1.966 . S
O650 C648 1.263 . S
C651 O652 1.235 . S
C651 O678 1.289 . S
O652 C651 1.235 . S
C653 C655 1.400 1_554 S
C653 N656 1.351 . S
C653 C658 1.501 . S
C654 C655 1.387 . S
C654 N657 1.341 1_556 S
C655 C653 1.400 1_556 S
C655 C654 1.387 . S
N656 Co647 2.022 . S
N656 C653 1.351 . S
N656 N657 1.365 . S
N657 C654 1.341 1_554 S
N657 N656 1.365 . S
N657 H677 0.862 . S
C658 C653 1.501 . S
C658 H659 0.961 . S
C658 H660 0.961 1_554 S
C658 H661 0.960 1_554 S
H659 C658 0.961 . S
H660 C658 0.961 1_556 S
H661 C658 0.960 1_556 S
C662 N663 1.342 . S
C662 C666 1.401 . S
C662 C667 1.499 . S
N663 Co646 1.989 . S
N663 C662 1.342 . S
N663 N664 1.388 . S
N664 Co647 1.993 . S
N664 N663 1.388 . S
N664 C665 1.346 . S
C665 N664 1.346 . S
C665 C666 1.396 . S
C665 C675 1.510 . S
C666 C662 1.401 . S
C666 C665 1.396 . S
C667 C662 1.499 . S
C667 H668 0.959 . S
C667 H669 0.960 . S
C667 H670 0.961 . S
H668 C667 0.959 . S
H669 C667 0.960 . S
H670 C667 0.961 . S
O671 Co646 1.967 . S
O671 C679 1.258 . S
O672 Co647 1.941 . S
O672 C679 1.266 . S
H673 C675 0.959 . S
H674 C675 0.961 . S
C675 C665 1.510 . S
C675 H673 0.959 . S
C675 H674 0.961 . S
C675 H676 0.960 . S
H676 C675 0.960 . S
H677 N657 0.862 . S
O678 Co646 1.920 . S
O678 C651 1.289 . S
C679 O671 1.258 . S
C679 O672 1.266 . S
Co680 O683 1.970 . S
Co680 N697 1.989 . S
Co680 O705 1.967 . S
Co680 O712 1.920 . S
Co681 O684 1.966 . S
Co681 N690 2.022 . S
Co681 N698 1.993 . S
Co681 O706 1.941 . S
C682 O683 1.258 . S
C682 O684 1.263 . S
O683 Co680 1.970 . S
O683 C682 1.258 . S
O684 Co681 1.966 . S
O684 C682 1.263 . S
C685 O686 1.235 . S
C685 O712 1.289 . S
O686 C685 1.235 . S
C687 C689 1.400 1_554 S
C687 N690 1.351 . S
C687 C692 1.501 . S
C688 C689 1.387 . S
C688 N691 1.341 1_556 S
C689 C687 1.400 1_556 S
C689 C688 1.387 . S
N690 Co681 2.022 . S
N690 C687 1.351 . S
N690 N691 1.365 . S
N691 C688 1.341 1_554 S
N691 N690 1.365 . S
N691 H711 0.862 . S
C692 C687 1.501 . S
C692 H693 0.961 . S
C692 H694 0.961 1_554 S
C692 H695 0.960 1_554 S
H693 C692 0.961 . S
H694 C692 0.961 1_556 S
H695 C692 0.960 1_556 S
C696 N697 1.342 . S
C696 C700 1.401 . S
C696 C701 1.499 . S
N697 Co680 1.989 . S
N697 C696 1.342 . S
N697 N698 1.388 . S
N698 Co681 1.993 . S
N698 N697 1.388 . S
N698 C699 1.346 . S
C699 N698 1.346 . S
C699 C700 1.396 . S
C699 C709 1.510 . S
C700 C696 1.401 . S
C700 C699 1.396 . S
C701 C696 1.499 . S
C701 H702 0.959 . S
C701 H703 0.960 . S
C701 H704 0.961 . S
H702 C701 0.959 . S
H703 C701 0.960 . S
H704 C701 0.961 . S
O705 Co680 1.967 . S
O705 C713 1.258 . S
O706 Co681 1.941 . S
O706 C713 1.266 . S
H707 C709 0.959 . S
H708 C709 0.961 . S
C709 C699 1.510 . S
C709 H707 0.959 . S
C709 H708 0.961 . S
C709 H710 0.960 . S
H710 C709 0.960 . S
H711 N691 0.862 . S
O712 Co680 1.920 . S
O712 C685 1.289 . S
C713 O705 1.258 . S
C713 O706 1.266 . S
Co714 O717 1.970 . S
Co714 N731 1.989 . S
Co714 O739 1.967 . S
Co714 O746 1.920 . S
Co715 O718 1.966 . S
Co715 N724 2.022 . S
Co715 N732 1.993 . S
Co715 O740 1.941 1_554 S
C716 O717 1.258 1_554 S
C716 O718 1.263 . S
O717 Co714 1.970 . S
O717 C716 1.258 1_556 S
O718 Co715 1.966 . S
O718 C716 1.263 . S
C719 O720 1.235 . S
C719 O746 1.289 . S
O720 C719 1.235 . S
C721 C723 1.400 . S
C721 N724 1.351 . S
C721 C726 1.501 . S
C722 C723 1.387 . S
C722 N725 1.341 . S
C723 C721 1.400 . S
C723 C722 1.387 . S
N724 Co715 2.022 . S
N724 C721 1.351 . S
N724 N725 1.365 . S
N725 C722 1.341 . S
N725 N724 1.365 . S
N725 H745 0.862 . S
C726 C721 1.501 . S
C726 H727 0.961 . S
C726 H728 0.961 . S
C726 H729 0.960 . S
H727 C726 0.961 . S
H728 C726 0.961 . S
H729 C726 0.960 . S
C730 N731 1.342 . S
C730 C734 1.401 1_556 S
C730 C735 1.499 . S
N731 Co714 1.989 . S
N731 C730 1.342 . S
N731 N732 1.388 1_556 S
N732 Co715 1.993 . S
N732 N731 1.388 1_554 S
N732 C733 1.346 . S
C733 N732 1.346 . S
C733 C734 1.396 . S
C733 C743 1.510 . S
C734 C730 1.401 1_554 S
C734 C733 1.396 . S
C735 C730 1.499 . S
C735 H736 0.959 . S
C735 H737 0.960 . S
C735 H738 0.961 . S
H736 C735 0.959 . S
H737 C735 0.960 . S
H738 C735 0.961 . S
O739 Co714 1.967 . S
O739 C747 1.258 . S
O740 Co715 1.941 1_556 S
O740 C747 1.266 . S
H741 C743 0.959 . S
H742 C743 0.961 . S
C743 C733 1.510 . S
C743 H741 0.959 . S
C743 H742 0.961 . S
C743 H744 0.960 . S
H744 C743 0.960 . S
H745 N725 0.862 . S
O746 Co714 1.920 . S
O746 C719 1.289 . S
C747 O739 1.258 . S
C747 O740 1.266 . S
Co748 O751 1.970 . S
Co748 N765 1.989 . S
Co748 O773 1.967 . S
Co748 O780 1.920 . S
Co749 O752 1.966 . S
Co749 N758 2.022 . S
Co749 N766 1.993 . S
Co749 O774 1.941 1_554 S
C750 O751 1.258 1_554 S
C750 O752 1.263 . S
O751 Co748 1.970 . S
O751 C750 1.258 1_556 S
O752 Co749 1.966 . S
O752 C750 1.263 . S
C753 O754 1.235 . S
C753 O780 1.289 . S
O754 C753 1.235 . S
C755 C757 1.400 . S
C755 N758 1.351 . S
C755 C760 1.501 . S
C756 C757 1.387 . S
C756 N759 1.341 . S
C757 C755 1.400 . S
C757 C756 1.387 . S
N758 Co749 2.022 . S
N758 C755 1.351 . S
N758 N759 1.365 . S
N759 C756 1.341 . S
N759 N758 1.365 . S
N759 H779 0.862 . S
C760 C755 1.501 . S
C760 H761 0.961 . S
C760 H762 0.961 . S
C760 H763 0.960 . S
H761 C760 0.961 . S
H762 C760 0.961 . S
H763 C760 0.960 . S
C764 N765 1.342 . S
C764 C768 1.401 1_556 S
C764 C769 1.499 . S
N765 Co748 1.989 . S
N765 C764 1.342 . S
N765 N766 1.388 1_556 S
N766 Co749 1.993 . S
N766 N765 1.388 1_554 S
N766 C767 1.346 . S
C767 N766 1.346 . S
C767 C768 1.396 . S
C767 C777 1.510 . S
C768 C764 1.401 1_554 S
C768 C767 1.396 . S
C769 C764 1.499 . S
C769 H770 0.959 . S
C769 H771 0.960 . S
C769 H772 0.961 . S
H770 C769 0.959 . S
H771 C769 0.960 . S
H772 C769 0.961 . S
O773 Co748 1.967 . S
O773 C781 1.258 . S
O774 Co749 1.941 1_556 S
O774 C781 1.266 . S
H775 C777 0.959 . S
H776 C777 0.961 . S
C777 C767 1.510 . S
C777 H775 0.959 . S
C777 H776 0.961 . S
C777 H778 0.960 . S
H778 C777 0.960 . S
H779 N759 0.862 . S
O780 Co748 1.920 . S
O780 C753 1.289 . S
C781 O773 1.258 . S
C781 O774 1.266 . S
Co782 O785 1.970 . S
Co782 N799 1.989 . S
Co782 O807 1.967 . S
Co782 O814 1.920 . S
Co783 O786 1.966 . S
Co783 N792 2.022 . S
Co783 N800 1.993 . S
Co783 O808 1.941 1_554 S
C784 O785 1.258 1_554 S
C784 O786 1.263 . S
O785 Co782 1.970 . S
O785 C784 1.258 1_556 S
O786 Co783 1.966 . S
O786 C784 1.263 . S
C787 O788 1.235 . S
C787 O814 1.289 . S
O788 C787 1.235 . S
C789 C791 1.400 . S
C789 N792 1.351 . S
C789 C794 1.501 . S
C790 C791 1.387 . S
C790 N793 1.341 . S
C791 C789 1.400 . S
C791 C790 1.387 . S
N792 Co783 2.022 . S
N792 C789 1.351 . S
N792 N793 1.365 . S
N793 C790 1.341 . S
N793 N792 1.365 . S
N793 H813 0.862 . S
C794 C789 1.501 . S
C794 H795 0.961 . S
C794 H796 0.961 . S
C794 H797 0.960 . S
H795 C794 0.961 . S
H796 C794 0.961 . S
H797 C794 0.960 . S
C798 N799 1.342 . S
C798 C802 1.401 1_556 S
C798 C803 1.499 . S
N799 Co782 1.989 . S
N799 C798 1.342 . S
N799 N800 1.388 1_556 S
N800 Co783 1.993 . S
N800 N799 1.388 1_554 S
N800 C801 1.346 . S
C801 N800 1.346 . S
C801 C802 1.396 . S
C801 C811 1.510 . S
C802 C798 1.401 1_554 S
C802 C801 1.396 . S
C803 C798 1.499 . S
C803 H804 0.959 . S
C803 H805 0.960 . S
C803 H806 0.961 . S
H804 C803 0.959 . S
H805 C803 0.960 . S
H806 C803 0.961 . S
O807 Co782 1.967 . S
O807 C815 1.258 . S
O808 Co783 1.941 1_556 S
O808 C815 1.266 . S
H809 C811 0.959 . S
H810 C811 0.961 . S
C811 C801 1.510 . S
C811 H809 0.959 . S
C811 H810 0.961 . S
C811 H812 0.960 . S
H812 C811 0.960 . S
H813 N793 0.862 . S
O814 Co782 1.920 . S
O814 C787 1.289 . S
C815 O807 1.258 . S
C815 O808 1.266 . S
Co816 O819 1.970 . S
Co816 N833 1.989 . S
Co816 O841 1.967 . S
Co816 O848 1.920 . S
Co817 O820 1.966 . S
Co817 N826 2.022 . S
Co817 N834 1.993 . S
Co817 O842 1.941 . S
C818 O819 1.258 . S
C818 O820 1.263 . S
O819 Co816 1.970 . S
O819 C818 1.258 . S
O820 Co817 1.966 . S
O820 C818 1.263 . S
C821 O822 1.235 . S
C821 O848 1.289 . S
O822 C821 1.235 . S
C823 C825 1.400 1_556 S
C823 N826 1.351 . S
C823 C828 1.501 . S
C824 C825 1.387 . S
C824 N827 1.341 1_554 S
C825 C823 1.400 1_554 S
C825 C824 1.387 . S
N826 Co817 2.022 . S
N826 C823 1.351 . S
N826 N827 1.365 . S
N827 C824 1.341 1_556 S
N827 N826 1.365 . S
N827 H847 0.862 . S
C828 C823 1.501 . S
C828 H829 0.961 . S
C828 H830 0.961 1_556 S
C828 H831 0.960 1_556 S
H829 C828 0.961 . S
H830 C828 0.961 1_554 S
H831 C828 0.960 1_554 S
C832 N833 1.342 . S
C832 C836 1.401 . S
C832 C837 1.499 . S
N833 Co816 1.989 . S
N833 C832 1.342 . S
N833 N834 1.388 . S
N834 Co817 1.993 . S
N834 N833 1.388 . S
N834 C835 1.346 . S
C835 N834 1.346 . S
C835 C836 1.396 . S
C835 C845 1.510 . S
C836 C832 1.401 . S
C836 C835 1.396 . S
C837 C832 1.499 . S
C837 H838 0.959 . S
C837 H839 0.960 . S
C837 H840 0.961 . S
H838 C837 0.959 . S
H839 C837 0.960 . S
H840 C837 0.961 . S
O841 Co816 1.967 . S
O841 C849 1.258 . S
O842 Co817 1.941 . S
O842 C849 1.266 . S
H843 C845 0.959 . S
H844 C845 0.961 . S
C845 C835 1.510 . S
C845 H843 0.959 . S
C845 H844 0.961 . S
C845 H846 0.960 . S
H846 C845 0.960 . S
H847 N827 0.862 . S
O848 Co816 1.920 . S
O848 C821 1.289 . S
C849 O841 1.258 . S
C849 O842 1.266 . S
Co850 O853 1.970 . S
Co850 N867 1.989 . S
Co850 O875 1.967 . S
Co850 O882 1.920 . S
Co851 O854 1.966 . S
Co851 N860 2.022 . S
Co851 N868 1.993 . S
Co851 O876 1.941 . S
C852 O853 1.258 . S
C852 O854 1.263 . S
O853 Co850 1.970 . S
O853 C852 1.258 . S
O854 Co851 1.966 . S
O854 C852 1.263 . S
C855 O856 1.235 . S
C855 O882 1.289 . S
O856 C855 1.235 . S
C857 C859 1.400 1_556 S
C857 N860 1.351 . S
C857 C862 1.501 . S
C858 C859 1.387 . S
C858 N861 1.341 1_554 S
C859 C857 1.400 1_554 S
C859 C858 1.387 . S
N860 Co851 2.022 . S
N860 C857 1.351 . S
N860 N861 1.365 . S
N861 C858 1.341 1_556 S
N861 N860 1.365 . S
N861 H881 0.862 . S
C862 C857 1.501 . S
C862 H863 0.961 . S
C862 H864 0.961 1_556 S
C862 H865 0.960 1_556 S
H863 C862 0.961 . S
H864 C862 0.961 1_554 S
H865 C862 0.960 1_554 S
C866 N867 1.342 . S
C866 C870 1.401 . S
C866 C871 1.499 . S
N867 Co850 1.989 . S
N867 C866 1.342 . S
N867 N868 1.388 . S
N868 Co851 1.993 . S
N868 N867 1.388 . S
N868 C869 1.346 . S
C869 N868 1.346 . S
C869 C870 1.396 . S
C869 C879 1.510 . S
C870 C866 1.401 . S
C870 C869 1.396 . S
C871 C866 1.499 . S
C871 H872 0.959 . S
C871 H873 0.960 . S
C871 H874 0.961 . S
H872 C871 0.959 . S
H873 C871 0.960 . S
H874 C871 0.961 . S
O875 Co850 1.967 . S
O875 C883 1.258 . S
O876 Co851 1.941 . S
O876 C883 1.266 . S
H877 C879 0.959 . S
H878 C879 0.961 . S
C879 C869 1.510 . S
C879 H877 0.959 . S
C879 H878 0.961 . S
C879 H880 0.960 . S
H880 C879 0.960 . S
H881 N861 0.862 . S
O882 Co850 1.920 . S
O882 C855 1.289 . S
C883 O875 1.258 . S
C883 O876 1.266 . S
Co884 O887 1.970 . S
Co884 N901 1.989 . S
Co884 O909 1.967 . S
Co884 O916 1.920 . S
Co885 O888 1.966 . S
Co885 N894 2.022 . S
Co885 N902 1.993 . S
Co885 O910 1.941 . S
C886 O887 1.258 . S
C886 O888 1.263 . S
O887 Co884 1.970 . S
O887 C886 1.258 . S
O888 Co885 1.966 . S
O888 C886 1.263 . S
C889 O890 1.235 . S
C889 O916 1.289 . S
O890 C889 1.235 . S
C891 C893 1.400 1_556 S
C891 N894 1.351 . S
C891 C896 1.501 . S
C892 C893 1.387 . S
C892 N895 1.341 1_554 S
C893 C891 1.400 1_554 S
C893 C892 1.387 . S
N894 Co885 2.022 . S
N894 C891 1.351 . S
N894 N895 1.365 . S
N895 C892 1.341 1_556 S
N895 N894 1.365 . S
N895 H915 0.862 . S
C896 C891 1.501 . S
C896 H897 0.961 . S
C896 H898 0.961 1_556 S
C896 H899 0.960 1_556 S
H897 C896 0.961 . S
H898 C896 0.961 1_554 S
H899 C896 0.960 1_554 S
C900 N901 1.342 . S
C900 C904 1.401 . S
C900 C905 1.499 . S
N901 Co884 1.989 . S
N901 C900 1.342 . S
N901 N902 1.388 . S
N902 Co885 1.993 . S
N902 N901 1.388 . S
N902 C903 1.346 . S
C903 N902 1.346 . S
C903 C904 1.396 . S
C903 C913 1.510 . S
C904 C900 1.401 . S
C904 C903 1.396 . S
C905 C900 1.499 . S
C905 H906 0.959 . S
C905 H907 0.960 . S
C905 H908 0.961 . S
H906 C905 0.959 . S
H907 C905 0.960 . S
H908 C905 0.961 . S
O909 Co884 1.967 . S
O909 C917 1.258 . S
O910 Co885 1.941 . S
O910 C917 1.266 . S
H911 C913 0.959 . S
H912 C913 0.961 . S
C913 C903 1.510 . S
C913 H911 0.959 . S
C913 H912 0.961 . S
C913 H914 0.960 . S
H914 C913 0.960 . S
H915 N895 0.862 . S
O916 Co884 1.920 . S
O916 C889 1.289 . S
C917 O909 1.258 . S
C917 O910 1.266 . S
Co918 O921 1.970 . S
Co918 N935 1.989 . S
Co918 O943 1.967 . S
Co918 O950 1.920 . S
Co919 O922 1.966 . S
Co919 N928 2.022 . S
Co919 N936 1.993 . S
Co919 O944 1.941 1_556 S
C920 O921 1.258 1_556 S
C920 O922 1.263 . S
O921 Co918 1.970 . S
O921 C920 1.258 1_554 S
O922 Co919 1.966 . S
O922 C920 1.263 . S
C923 O924 1.235 . S
C923 O950 1.289 . S
O924 C923 1.235 . S
C925 C927 1.400 . S
C925 N928 1.351 . S
C925 C930 1.501 . S
C926 C927 1.387 . S
C926 N929 1.341 . S
C927 C925 1.400 . S
C927 C926 1.387 . S
N928 Co919 2.022 . S
N928 C925 1.351 . S
N928 N929 1.365 . S
N929 C926 1.341 . S
N929 N928 1.365 . S
N929 H949 0.862 . S
C930 C925 1.501 . S
C930 H931 0.961 . S
C930 H932 0.961 . S
C930 H933 0.960 . S
H931 C930 0.961 . S
H932 C930 0.961 . S
H933 C930 0.960 . S
C934 N935 1.342 . S
C934 C938 1.401 1_554 S
C934 C939 1.499 . S
N935 Co918 1.989 . S
N935 C934 1.342 . S
N935 N936 1.388 1_554 S
N936 Co919 1.993 . S
N936 N935 1.388 1_556 S
N936 C937 1.346 . S
C937 N936 1.346 . S
C937 C938 1.396 . S
C937 C947 1.510 . S
C938 C934 1.401 1_556 S
C938 C937 1.396 . S
C939 C934 1.499 . S
C939 H940 0.959 . S
C939 H941 0.960 . S
C939 H942 0.961 . S
H940 C939 0.959 . S
H941 C939 0.960 . S
H942 C939 0.961 . S
O943 Co918 1.967 . S
O943 C951 1.258 . S
O944 Co919 1.941 1_554 S
O944 C951 1.266 . S
H945 C947 0.959 . S
H946 C947 0.961 . S
C947 C937 1.510 . S
C947 H945 0.959 . S
C947 H946 0.961 . S
C947 H948 0.960 . S
H948 C947 0.960 . S
H949 N929 0.862 . S
O950 Co918 1.920 . S
O950 C923 1.289 . S
C951 O943 1.258 . S
C951 O944 1.266 . S
Co952 O955 1.970 . S
Co952 N969 1.989 . S
Co952 O977 1.967 . S
Co952 O984 1.920 . S
Co953 O956 1.966 . S
Co953 N962 2.022 . S
Co953 N970 1.993 . S
Co953 O978 1.941 1_556 S
C954 O955 1.258 1_556 S
C954 O956 1.263 . S
O955 Co952 1.970 . S
O955 C954 1.258 1_554 S
O956 Co953 1.966 . S
O956 C954 1.263 . S
C957 O958 1.235 . S
C957 O984 1.289 . S
O958 C957 1.235 . S
C959 C961 1.400 . S
C959 N962 1.351 . S
C959 C964 1.501 . S
C960 C961 1.387 . S
C960 N963 1.341 . S
C961 C959 1.400 . S
C961 C960 1.387 . S
N962 Co953 2.022 . S
N962 C959 1.351 . S
N962 N963 1.365 . S
N963 C960 1.341 . S
N963 N962 1.365 . S
N963 H983 0.862 . S
C964 C959 1.501 . S
C964 H965 0.961 . S
C964 H966 0.961 . S
C964 H967 0.960 . S
H965 C964 0.961 . S
H966 C964 0.961 . S
H967 C964 0.960 . S
C968 N969 1.342 . S
C968 C972 1.401 1_554 S
C968 C973 1.499 . S
N969 Co952 1.989 . S
N969 C968 1.342 . S
N969 N970 1.388 1_554 S
N970 Co953 1.993 . S
N970 N969 1.388 1_556 S
N970 C971 1.346 . S
C971 N970 1.346 . S
C971 C972 1.396 . S
C971 C981 1.510 . S
C972 C968 1.401 1_556 S
C972 C971 1.396 . S
C973 C968 1.499 . S
C973 H974 0.959 . S
C973 H975 0.960 . S
C973 H976 0.961 . S
H974 C973 0.959 . S
H975 C973 0.960 . S
H976 C973 0.961 . S
O977 Co952 1.967 . S
O977 C985 1.258 . S
O978 Co953 1.941 1_554 S
O978 C985 1.266 . S
H979 C981 0.959 . S
H980 C981 0.961 . S
C981 C971 1.510 . S
C981 H979 0.959 . S
C981 H980 0.961 . S
C981 H982 0.960 . S
H982 C981 0.960 . S
H983 N963 0.862 . S
O984 Co952 1.920 . S
O984 C957 1.289 . S
C985 O977 1.258 . S
C985 O978 1.266 . S
Co986 O989 1.970 . S
Co986 N1003 1.989 . S
Co986 O1011 1.967 . S
Co986 O1018 1.920 . S
Co987 O990 1.966 . S
Co987 N996 2.022 . S
Co987 N1004 1.993 . S
Co987 O1012 1.941 1_556 S
C988 O989 1.258 1_556 S
C988 O990 1.263 . S
O989 Co986 1.970 . S
O989 C988 1.258 1_554 S
O990 Co987 1.966 . S
O990 C988 1.263 . S
C991 O992 1.235 . S
C991 O1018 1.289 . S
O992 C991 1.235 . S
C993 C995 1.400 . S
C993 N996 1.351 . S
C993 C998 1.501 . S
C994 C995 1.387 . S
C994 N997 1.341 . S
C995 C993 1.400 . S
C995 C994 1.387 . S
N996 Co987 2.022 . S
N996 C993 1.351 . S
N996 N997 1.365 . S
N997 C994 1.341 . S
N997 N996 1.365 . S
N997 H1017 0.862 . S
C998 C993 1.501 . S
C998 H999 0.961 . S
C998 H1000 0.961 . S
C998 H1001 0.960 . S
H999 C998 0.961 . S
H1000 C998 0.961 . S
H1001 C998 0.960 . S
C1002 N1003 1.342 . S
C1002 C1006 1.401 1_554 S
C1002 C1007 1.499 . S
N1003 Co986 1.989 . S
N1003 C1002 1.342 . S
N1003 N1004 1.388 1_554 S
N1004 Co987 1.993 . S
N1004 N1003 1.388 1_556 S
N1004 C1005 1.346 . S
C1005 N1004 1.346 . S
C1005 C1006 1.396 . S
C1005 C1015 1.510 . S
C1006 C1002 1.401 1_556 S
C1006 C1005 1.396 . S
C1007 C1002 1.499 . S
C1007 H1008 0.959 . S
C1007 H1009 0.960 . S
C1007 H1010 0.961 . S
H1008 C1007 0.959 . S
H1009 C1007 0.960 . S
H1010 C1007 0.961 . S
O1011 Co986 1.967 . S
O1011 C1019 1.258 . S
O1012 Co987 1.941 1_554 S
O1012 C1019 1.266 . S
H1013 C1015 0.959 . S
H1014 C1015 0.961 . S
C1015 C1005 1.510 . S
C1015 H1013 0.959 . S
C1015 H1014 0.961 . S
C1015 H1016 0.960 . S
H1016 C1015 0.960 . S
H1017 N997 0.862 . S
O1018 Co986 1.920 . S
O1018 C991 1.289 . S
C1019 O1011 1.258 . S
C1019 O1012 1.266 . S
Co1020 O1023 1.970 . S
Co1020 N1037 1.989 . S
Co1020 O1045 1.967 . S
Co1020 O1052 1.920 . S
Co1021 O1024 1.966 . S
Co1021 N1030 2.022 . S
Co1021 N1038 1.993 . S
Co1021 O1046 1.941 . S
C1022 O1023 1.258 . S
C1022 O1024 1.263 . S
O1023 Co1020 1.970 . S
O1023 C1022 1.258 . S
O1024 Co1021 1.966 . S
O1024 C1022 1.263 . S
C1025 O1026 1.235 . S
C1025 O1052 1.289 . S
O1026 C1025 1.235 . S
C1027 C1029 1.400 . S
C1027 N1030 1.351 . S
C1027 C1032 1.501 . S
C1028 C1029 1.387 . S
C1028 N1031 1.341 . S
C1029 C1027 1.400 . S
C1029 C1028 1.387 . S
N1030 Co1021 2.022 . S
N1030 C1027 1.351 . S
N1030 N1031 1.365 . S
N1031 C1028 1.341 . S
N1031 N1030 1.365 . S
N1031 H1051 0.862 . S
C1032 C1027 1.501 . S
C1032 H1033 0.961 . S
C1032 H1034 0.961 . S
C1032 H1035 0.960 . S
H1033 C1032 0.961 . S
H1034 C1032 0.961 . S
H1035 C1032 0.960 . S
C1036 N1037 1.342 . S
C1036 C1040 1.401 . S
C1036 C1041 1.499 . S
N1037 Co1020 1.989 . S
N1037 C1036 1.342 . S
N1037 N1038 1.388 . S
N1038 Co1021 1.993 . S
N1038 N1037 1.388 . S
N1038 C1039 1.346 . S
C1039 N1038 1.346 . S
C1039 C1040 1.396 . S
C1039 C1049 1.510 . S
C1040 C1036 1.401 . S
C1040 C1039 1.396 . S
C1041 C1036 1.499 . S
C1041 H1042 0.959 . S
C1041 H1043 0.960 . S
C1041 H1044 0.961 . S
H1042 C1041 0.959 . S
H1043 C1041 0.960 . S
H1044 C1041 0.961 . S
O1045 Co1020 1.967 . S
O1045 C1053 1.258 . S
O1046 Co1021 1.941 . S
O1046 C1053 1.266 . S
H1047 C1049 0.959 . S
H1048 C1049 0.961 . S
C1049 C1039 1.510 . S
C1049 H1047 0.959 . S
C1049 H1048 0.961 . S
C1049 H1050 0.960 . S
H1050 C1049 0.960 . S
H1051 N1031 0.862 . S
O1052 Co1020 1.920 . S
O1052 C1025 1.289 . S
C1053 O1045 1.258 . S
C1053 O1046 1.266 . S
Co1054 O1057 1.970 . S
Co1054 N1071 1.989 . S
Co1054 O1079 1.967 . S
Co1054 O1086 1.920 . S
Co1055 O1058 1.966 . S
Co1055 N1064 2.022 . S
Co1055 N1072 1.993 . S
Co1055 O1080 1.941 . S
C1056 O1057 1.258 . S
C1056 O1058 1.263 . S
O1057 Co1054 1.970 . S
O1057 C1056 1.258 . S
O1058 Co1055 1.966 . S
O1058 C1056 1.263 . S
C1059 O1060 1.235 . S
C1059 O1086 1.289 . S
O1060 C1059 1.235 . S
C1061 C1063 1.400 . S
C1061 N1064 1.351 . S
C1061 C1066 1.501 . S
C1062 C1063 1.387 . S
C1062 N1065 1.341 . S
C1063 C1061 1.400 . S
C1063 C1062 1.387 . S
N1064 Co1055 2.022 . S
N1064 C1061 1.351 . S
N1064 N1065 1.365 . S
N1065 C1062 1.341 . S
N1065 N1064 1.365 . S
N1065 H1085 0.862 . S
C1066 C1061 1.501 . S
C1066 H1067 0.961 . S
C1066 H1068 0.961 . S
C1066 H1069 0.960 . S
H1067 C1066 0.961 . S
H1068 C1066 0.961 . S
H1069 C1066 0.960 . S
C1070 N1071 1.342 . S
C1070 C1074 1.401 . S
C1070 C1075 1.499 . S
N1071 Co1054 1.989 . S
N1071 C1070 1.342 . S
N1071 N1072 1.388 . S
N1072 Co1055 1.993 . S
N1072 N1071 1.388 . S
N1072 C1073 1.346 . S
C1073 N1072 1.346 . S
C1073 C1074 1.396 . S
C1073 C1083 1.510 . S
C1074 C1070 1.401 . S
C1074 C1073 1.396 . S
C1075 C1070 1.499 . S
C1075 H1076 0.959 . S
C1075 H1077 0.960 . S
C1075 H1078 0.961 . S
H1076 C1075 0.959 . S
H1077 C1075 0.960 . S
H1078 C1075 0.961 . S
O1079 Co1054 1.967 . S
O1079 C1087 1.258 . S
O1080 Co1055 1.941 . S
O1080 C1087 1.266 . S
H1081 C1083 0.959 . S
H1082 C1083 0.961 . S
C1083 C1073 1.510 . S
C1083 H1081 0.959 . S
C1083 H1082 0.961 . S
C1083 H1084 0.960 . S
H1084 C1083 0.960 . S
H1085 N1065 0.862 . S
O1086 Co1054 1.920 . S
O1086 C1059 1.289 . S
C1087 O1079 1.258 . S
C1087 O1080 1.266 . S
Co1088 O1091 1.970 . S
Co1088 N1105 1.989 . S
Co1088 O1113 1.967 . S
Co1088 O1120 1.920 . S
Co1089 O1092 1.966 . S
Co1089 N1098 2.022 . S
Co1089 N1106 1.993 . S
Co1089 O1114 1.941 . S
C1090 O1091 1.258 . S
C1090 O1092 1.263 . S
O1091 Co1088 1.970 . S
O1091 C1090 1.258 . S
O1092 Co1089 1.966 . S
O1092 C1090 1.263 . S
C1093 O1094 1.235 . S
C1093 O1120 1.289 . S
O1094 C1093 1.235 . S
C1095 C1097 1.400 . S
C1095 N1098 1.351 . S
C1095 C1100 1.501 . S
C1096 C1097 1.387 . S
C1096 N1099 1.341 . S
C1097 C1095 1.400 . S
C1097 C1096 1.387 . S
N1098 Co1089 2.022 . S
N1098 C1095 1.351 . S
N1098 N1099 1.365 . S
N1099 C1096 1.341 . S
N1099 N1098 1.365 . S
N1099 H1119 0.862 . S
C1100 C1095 1.501 . S
C1100 H1101 0.961 . S
C1100 H1102 0.961 . S
C1100 H1103 0.960 . S
H1101 C1100 0.961 . S
H1102 C1100 0.961 . S
H1103 C1100 0.960 . S
C1104 N1105 1.342 . S
C1104 C1108 1.401 . S
C1104 C1109 1.499 . S
N1105 Co1088 1.989 . S
N1105 C1104 1.342 . S
N1105 N1106 1.388 . S
N1106 Co1089 1.993 . S
N1106 N1105 1.388 . S
N1106 C1107 1.346 . S
C1107 N1106 1.346 . S
C1107 C1108 1.396 . S
C1107 C1117 1.510 . S
C1108 C1104 1.401 . S
C1108 C1107 1.396 . S
C1109 C1104 1.499 . S
C1109 H1110 0.959 . S
C1109 H1111 0.960 . S
C1109 H1112 0.961 . S
H1110 C1109 0.959 . S
H1111 C1109 0.960 . S
H1112 C1109 0.961 . S
O1113 Co1088 1.967 . S
O1113 C1121 1.258 . S
O1114 Co1089 1.941 . S
O1114 C1121 1.266 . S
H1115 C1117 0.959 . S
H1116 C1117 0.961 . S
C1117 C1107 1.510 . S
C1117 H1115 0.959 . S
C1117 H1116 0.961 . S
C1117 H1118 0.960 . S
H1118 C1117 0.960 . S
H1119 N1099 0.862 . S
O1120 Co1088 1.920 . S
O1120 C1093 1.289 . S
C1121 O1113 1.258 . S
C1121 O1114 1.266 . S
Co1122 O1125 1.970 . S
Co1122 N1139 1.989 . S
Co1122 O1147 1.967 . S
Co1122 O1154 1.920 . S
Co1123 O1126 1.966 . S
Co1123 N1132 2.022 . S
Co1123 N1140 1.993 . S
Co1123 O1148 1.941 . S
C1124 O1125 1.258 . S
C1124 O1126 1.263 . S
O1125 Co1122 1.970 . S
O1125 C1124 1.258 . S
O1126 Co1123 1.966 . S
O1126 C1124 1.263 . S
C1127 O1128 1.235 . S
C1127 O1154 1.289 . S
O1128 C1127 1.235 . S
C1129 C1131 1.400 . S
C1129 N1132 1.351 . S
C1129 C1134 1.501 . S
C1130 C1131 1.387 . S
C1130 N1133 1.341 . S
C1131 C1129 1.400 . S
C1131 C1130 1.387 . S
N1132 Co1123 2.022 . S
N1132 C1129 1.351 . S
N1132 N1133 1.365 . S
N1133 C1130 1.341 . S
N1133 N1132 1.365 . S
N1133 H1153 0.862 . S
C1134 C1129 1.501 . S
C1134 H1135 0.961 . S
C1134 H1136 0.961 . S
C1134 H1137 0.960 . S
H1135 C1134 0.961 . S
H1136 C1134 0.961 . S
H1137 C1134 0.960 . S
C1138 N1139 1.342 . S
C1138 C1142 1.401 . S
C1138 C1143 1.499 . S
N1139 Co1122 1.989 . S
N1139 C1138 1.342 . S
N1139 N1140 1.388 . S
N1140 Co1123 1.993 . S
N1140 N1139 1.388 . S
N1140 C1141 1.346 . S
C1141 N1140 1.346 . S
C1141 C1142 1.396 . S
C1141 C1151 1.510 . S
C1142 C1138 1.401 . S
C1142 C1141 1.396 . S
C1143 C1138 1.499 . S
C1143 H1144 0.959 . S
C1143 H1145 0.960 . S
C1143 H1146 0.961 . S
H1144 C1143 0.959 . S
H1145 C1143 0.960 . S
H1146 C1143 0.961 . S
O1147 Co1122 1.967 . S
O1147 C1155 1.258 . S
O1148 Co1123 1.941 . S
O1148 C1155 1.266 . S
H1149 C1151 0.959 . S
H1150 C1151 0.961 . S
C1151 C1141 1.510 . S
C1151 H1149 0.959 . S
C1151 H1150 0.961 . S
C1151 H1152 0.960 . S
H1152 C1151 0.960 . S
H1153 N1133 0.862 . S
O1154 Co1122 1.920 . S
O1154 C1127 1.289 . S
C1155 O1147 1.258 . S
C1155 O1148 1.266 . S
Co1156 O1159 1.970 . S
Co1156 N1173 1.989 . S
Co1156 O1181 1.967 . S
Co1156 O1188 1.920 . S
Co1157 O1160 1.966 . S
Co1157 N1166 2.022 . S
Co1157 N1174 1.993 . S
Co1157 O1182 1.941 . S
C1158 O1159 1.258 . S
C1158 O1160 1.263 . S
O1159 Co1156 1.970 . S
O1159 C1158 1.258 . S
O1160 Co1157 1.966 . S
O1160 C1158 1.263 . S
C1161 O1162 1.235 . S
C1161 O1188 1.289 . S
O1162 C1161 1.235 . S
C1163 C1165 1.400 . S
C1163 N1166 1.351 . S
C1163 C1168 1.501 . S
C1164 C1165 1.387 . S
C1164 N1167 1.341 . S
C1165 C1163 1.400 . S
C1165 C1164 1.387 . S
N1166 Co1157 2.022 . S
N1166 C1163 1.351 . S
N1166 N1167 1.365 . S
N1167 C1164 1.341 . S
N1167 N1166 1.365 . S
N1167 H1187 0.862 . S
C1168 C1163 1.501 . S
C1168 H1169 0.961 . S
C1168 H1170 0.961 . S
C1168 H1171 0.960 . S
H1169 C1168 0.961 . S
H1170 C1168 0.961 . S
H1171 C1168 0.960 . S
C1172 N1173 1.342 . S
C1172 C1176 1.401 . S
C1172 C1177 1.499 . S
N1173 Co1156 1.989 . S
N1173 C1172 1.342 . S
N1173 N1174 1.388 . S
N1174 Co1157 1.993 . S
N1174 N1173 1.388 . S
N1174 C1175 1.346 . S
C1175 N1174 1.346 . S
C1175 C1176 1.396 . S
C1175 C1185 1.510 . S
C1176 C1172 1.401 . S
C1176 C1175 1.396 . S
C1177 C1172 1.499 . S
C1177 H1178 0.959 . S
C1177 H1179 0.960 . S
C1177 H1180 0.961 . S
H1178 C1177 0.959 . S
H1179 C1177 0.960 . S
H1180 C1177 0.961 . S
O1181 Co1156 1.967 . S
O1181 C1189 1.258 . S
O1182 Co1157 1.941 . S
O1182 C1189 1.266 . S
H1183 C1185 0.959 . S
H1184 C1185 0.961 . S
C1185 C1175 1.510 . S
C1185 H1183 0.959 . S
C1185 H1184 0.961 . S
C1185 H1186 0.960 . S
H1186 C1185 0.960 . S
H1187 N1167 0.862 . S
O1188 Co1156 1.920 . S
O1188 C1161 1.289 . S
C1189 O1181 1.258 . S
C1189 O1182 1.266 . S
Co1190 O1193 1.970 . S
Co1190 N1207 1.989 . S
Co1190 O1215 1.967 . S
Co1190 O1222 1.920 . S
Co1191 O1194 1.966 . S
Co1191 N1200 2.022 . S
Co1191 N1208 1.993 . S
Co1191 O1216 1.941 . S
C1192 O1193 1.258 . S
C1192 O1194 1.263 . S
O1193 Co1190 1.970 . S
O1193 C1192 1.258 . S
O1194 Co1191 1.966 . S
O1194 C1192 1.263 . S
C1195 O1196 1.235 . S
C1195 O1222 1.289 . S
O1196 C1195 1.235 . S
C1197 C1199 1.400 . S
C1197 N1200 1.351 . S
C1197 C1202 1.501 . S
C1198 C1199 1.387 . S
C1198 N1201 1.341 . S
C1199 C1197 1.400 . S
C1199 C1198 1.387 . S
N1200 Co1191 2.022 . S
N1200 C1197 1.351 . S
N1200 N1201 1.365 . S
N1201 C1198 1.341 . S
N1201 N1200 1.365 . S
N1201 H1221 0.862 . S
C1202 C1197 1.501 . S
C1202 H1203 0.961 . S
C1202 H1204 0.961 . S
C1202 H1205 0.960 . S
H1203 C1202 0.961 . S
H1204 C1202 0.961 . S
H1205 C1202 0.960 . S
C1206 N1207 1.342 . S
C1206 C1210 1.401 . S
C1206 C1211 1.499 . S
N1207 Co1190 1.989 . S
N1207 C1206 1.342 . S
N1207 N1208 1.388 . S
N1208 Co1191 1.993 . S
N1208 N1207 1.388 . S
N1208 C1209 1.346 . S
C1209 N1208 1.346 . S
C1209 C1210 1.396 . S
C1209 C1219 1.510 . S
C1210 C1206 1.401 . S
C1210 C1209 1.396 . S
C1211 C1206 1.499 . S
C1211 H1212 0.959 . S
C1211 H1213 0.960 . S
C1211 H1214 0.961 . S
H1212 C1211 0.959 . S
H1213 C1211 0.960 . S
H1214 C1211 0.961 . S
O1215 Co1190 1.967 . S
O1215 C1223 1.258 . S
O1216 Co1191 1.941 . S
O1216 C1223 1.266 . S
H1217 C1219 0.959 . S
H1218 C1219 0.961 . S
C1219 C1209 1.510 . S
C1219 H1217 0.959 . S
C1219 H1218 0.961 . S
C1219 H1220 0.960 . S
H1220 C1219 0.960 . S
H1221 N1201 0.862 . S
O1222 Co1190 1.920 . S
O1222 C1195 1.289 . S
C1223 O1215 1.258 . S
C1223 O1216 1.266 . S
H1224 C1230 0.930 . S
H1225 C1233 0.930 . S
H1226 C1234 0.930 . S
H1227 C1235 0.930 . S
H1228 C1238 0.930 . S
H1229 C1239 0.930 . S
C1230 H1224 0.930 . S
C1230 C1231 1.355 . S
C1230 C1232 1.415 . S
C1231 C1230 1.355 . S
C1231 C1233 1.419 . S
C1232 C1230 1.415 . S
C1232 C1237 1.425 . S
C1232 C1239 1.409 . S
C1233 H1225 0.930 . S
C1233 C1231 1.419 . S
C1233 C1234 1.362 . S
C1234 H1226 0.930 . S
C1234 C1233 1.362 . S
C1234 C1237 1.409 . S
C1235 H1227 0.930 . S
C1235 C1236 1.355 1_556 S
C1235 C1237 1.415 . S
C1236 C1235 1.355 1_554 S
C1236 C1238 1.419 . S
C1237 C1232 1.425 . S
C1237 C1234 1.409 . S
C1237 C1235 1.415 . S
C1238 H1228 0.930 . S
C1238 C1236 1.419 . S
C1238 C1239 1.362 1_554 S
C1239 H1229 0.930 . S
C1239 C1232 1.409 . S
C1239 C1238 1.362 1_556 S
H1240 C1246 0.930 . S
H1241 C1249 0.930 . S
H1242 C1250 0.930 . S
H1243 C1251 0.930 . S
H1244 C1254 0.930 . S
H1245 C1255 0.930 . S
C1246 H1240 0.930 . S
C1246 C1247 1.355 . S
C1246 C1248 1.415 . S
C1247 C1246 1.355 . S
C1247 C1249 1.419 . S
C1248 C1246 1.415 . S
C1248 C1253 1.425 . S
C1248 C1255 1.409 . S
C1249 H1241 0.930 . S
C1249 C1247 1.419 . S
C1249 C1250 1.362 . S
C1250 H1242 0.930 . S
C1250 C1249 1.362 . S
C1250 C1253 1.409 . S
C1251 H1243 0.930 . S
C1251 C1252 1.355 1_556 S
C1251 C1253 1.415 . S
C1252 C1251 1.355 1_554 S
C1252 C1254 1.419 . S
C1253 C1248 1.425 . S
C1253 C1250 1.409 . S
C1253 C1251 1.415 . S
C1254 H1244 0.930 . S
C1254 C1252 1.419 . S
C1254 C1255 1.362 1_554 S
C1255 H1245 0.930 . S
C1255 C1248 1.409 . S
C1255 C1254 1.362 1_556 S
H1256 C1262 0.930 . S
H1257 C1265 0.930 1_554 S
H1258 C1266 0.930 . S
H1259 C1267 0.930 . S
H1260 C1270 0.930 . S
H1261 C1271 0.930 . S
C1262 H1256 0.930 . S
C1262 C1263 1.355 1_556 S
C1262 C1264 1.415 . S
C1263 C1262 1.355 1_554 S
C1263 C1265 1.419 1_554 S
C1264 C1262 1.415 . S
C1264 C1269 1.425 . S
C1264 C1271 1.409 . S
C1265 H1257 0.930 1_556 S
C1265 C1263 1.419 1_556 S
C1265 C1266 1.362 . S
C1266 H1258 0.930 . S
C1266 C1265 1.362 . S
C1266 C1269 1.409 . S
C1267 H1259 0.930 . S
C1267 C1268 1.355 . S
C1267 C1269 1.415 . S
C1268 C1267 1.355 . S
C1268 C1270 1.419 . S
C1269 C1264 1.425 . S
C1269 C1266 1.409 . S
C1269 C1267 1.415 . S
C1270 H1260 0.930 . S
C1270 C1268 1.419 . S
C1270 C1271 1.362 . S
C1271 H1261 0.930 . S
C1271 C1264 1.409 . S
C1271 C1270 1.362 . S
H1272 C1278 0.930 . S
H1273 C1281 0.930 . S
H1274 C1282 0.930 . S
H1275 C1283 0.930 . S
H1276 C1286 0.930 . S
H1277 C1287 0.930 . S
C1278 H1272 0.930 . S
C1278 C1279 1.355 . S
C1278 C1280 1.415 . S
C1279 C1278 1.355 . S
C1279 C1281 1.419 . S
C1280 C1278 1.415 . S
C1280 C1285 1.425 . S
C1280 C1287 1.409 . S
C1281 H1273 0.930 . S
C1281 C1279 1.419 . S
C1281 C1282 1.362 . S
C1282 H1274 0.930 . S
C1282 C1281 1.362 . S
C1282 C1285 1.409 . S
C1283 H1275 0.930 . S
C1283 C1284 1.355 . S
C1283 C1285 1.415 . S
C1284 C1283 1.355 . S
C1284 C1286 1.419 . S
C1285 C1280 1.425 . S
C1285 C1282 1.409 . S
C1285 C1283 1.415 . S
C1286 H1276 0.930 . S
C1286 C1284 1.419 . S
C1286 C1287 1.362 . S
C1287 H1277 0.930 . S
C1287 C1280 1.409 . S
C1287 C1286 1.362 . S
H1288 C1294 0.930 . S
H1289 C1297 0.930 . S
H1290 C1298 0.930 . S
H1291 C1299 0.930 . S
H1292 C1302 0.930 . S
H1293 C1303 0.930 . S
C1294 H1288 0.930 . S
C1294 C1295 1.355 . S
C1294 C1296 1.415 . S
C1295 C1294 1.355 . S
C1295 C1297 1.419 . S
C1296 C1294 1.415 . S
C1296 C1301 1.425 . S
C1296 C1303 1.409 . S
C1297 H1289 0.930 . S
C1297 C1295 1.419 . S
C1297 C1298 1.362 . S
C1298 H1290 0.930 . S
C1298 C1297 1.362 . S
C1298 C1301 1.409 . S
C1299 H1291 0.930 . S
C1299 C1300 1.355 . S
C1299 C1301 1.415 . S
C1300 C1299 1.355 . S
C1300 C1302 1.419 . S
C1301 C1296 1.425 . S
C1301 C1298 1.409 . S
C1301 C1299 1.415 . S
C1302 H1292 0.930 . S
C1302 C1300 1.419 . S
C1302 C1303 1.362 . S
C1303 H1293 0.930 . S
C1303 C1296 1.409 . S
C1303 C1302 1.362 . S
H1304 C1310 0.930 . S
H1305 C1313 0.930 . S
H1306 C1314 0.930 . S
H1307 C1315 0.930 . S
H1308 C1318 0.930 . S
H1309 C1319 0.930 . S
C1310 H1304 0.930 . S
C1310 C1311 1.355 . S
C1310 C1312 1.415 . S
C1311 C1310 1.355 . S
C1311 C1313 1.419 . S
C1312 C1310 1.415 . S
C1312 C1317 1.425 . S
C1312 C1319 1.409 . S
C1313 H1305 0.930 . S
C1313 C1311 1.419 . S
C1313 C1314 1.362 . S
C1314 H1306 0.930 . S
C1314 C1313 1.362 . S
C1314 C1317 1.409 . S
C1315 H1307 0.930 . S
C1315 C1316 1.355 . S
C1315 C1317 1.415 . S
C1316 C1315 1.355 . S
C1316 C1318 1.419 . S
C1317 C1312 1.425 . S
C1317 C1314 1.409 . S
C1317 C1315 1.415 . S
C1318 H1308 0.930 . S
C1318 C1316 1.419 . S
C1318 C1319 1.362 . S
C1319 H1309 0.930 . S
C1319 C1312 1.409 . S
C1319 C1318 1.362 . S
H1320 C1326 0.930 . S
H1321 C1329 0.930 . S
H1322 C1330 0.930 . S
H1323 C1331 0.930 1_556 S
H1324 C1334 0.930 . S
H1325 C1335 0.930 . S
C1326 H1320 0.930 . S
C1326 C1327 1.355 . S
C1326 C1328 1.415 . S
C1327 C1326 1.355 . S
C1327 C1329 1.419 . S
C1328 C1326 1.415 . S
C1328 C1333 1.425 . S
C1328 C1335 1.409 . S
C1329 H1321 0.930 . S
C1329 C1327 1.419 . S
C1329 C1330 1.362 . S
C1330 H1322 0.930 . S
C1330 C1329 1.362 . S
C1330 C1333 1.409 . S
C1331 H1323 0.930 1_554 S
C1331 C1332 1.355 . S
C1331 C1333 1.415 . S
C1332 C1331 1.355 . S
C1332 C1334 1.420 . S
C1333 C1328 1.425 . S
C1333 C1330 1.409 . S
C1333 C1331 1.415 . S
C1334 H1324 0.930 . S
C1334 C1332 1.420 . S
C1334 C1335 1.362 . S
C1335 H1325 0.930 . S
C1335 C1328 1.409 . S
C1335 C1334 1.362 . S
H1336 C1342 0.930 . S
H1337 C1345 0.930 . S
H1338 C1346 0.930 . S
H1339 C1347 0.930 . S
H1340 C1350 0.930 . S
H1341 C1351 0.930 . S
C1342 H1336 0.930 . S
C1342 C1343 1.355 1_554 S
C1342 C1344 1.415 . S
C1343 C1342 1.355 1_556 S
C1343 C1345 1.419 1_556 S
C1344 C1342 1.415 . S
C1344 C1349 1.425 . S
C1344 C1351 1.409 . S
C1345 H1337 0.930 . S
C1345 C1343 1.419 1_554 S
C1345 C1346 1.362 . S
C1346 H1338 0.930 . S
C1346 C1345 1.362 . S
C1346 C1349 1.409 . S
C1347 H1339 0.930 . S
C1347 C1348 1.355 . S
C1347 C1349 1.415 . S
C1348 C1347 1.355 . S
C1348 C1350 1.419 . S
C1349 C1344 1.425 . S
C1349 C1346 1.409 . S
C1349 C1347 1.415 . S
C1350 H1340 0.930 . S
C1350 C1348 1.419 . S
C1350 C1351 1.362 . S
C1351 H1341 0.930 . S
C1351 C1344 1.409 . S
C1351 C1350 1.362 . S
H1352 C1358 0.930 1_556 S
H1353 C1361 0.930 . S
H1354 C1362 0.930 . S
H1355 C1363 0.930 . S
H1356 C1366 0.930 . S
H1357 C1367 0.930 . S
C1358 H1352 0.930 1_554 S
C1358 C1359 1.353 1_554 S
C1358 C1360 1.415 . S
C1359 C1358 1.353 1_556 S
C1359 C1361 1.416 1_556 S
C1360 C1358 1.415 . S
C1360 C1365 1.425 . S
C1360 C1367 1.409 . S
C1361 H1353 0.930 . S
C1361 C1359 1.416 1_554 S
C1361 C1362 1.362 . S
C1362 H1354 0.930 . S
C1362 C1361 1.362 . S
C1362 C1365 1.409 . S
C1363 H1355 0.930 . S
C1363 C1364 1.355 . S
C1363 C1365 1.415 . S
C1364 C1363 1.355 . S
C1364 C1366 1.419 . S
C1365 C1360 1.425 . S
C1365 C1362 1.409 . S
C1365 C1363 1.415 . S
C1366 H1356 0.930 . S
C1366 C1364 1.419 . S
C1366 C1367 1.362 . S
C1367 H1357 0.930 . S
C1367 C1360 1.409 . S
C1367 C1366 1.362 . S
H1368 C1374 0.930 . S
H1369 C1377 0.930 . S
H1370 C1378 0.930 . S
H1371 C1379 0.930 . S
H1372 C1382 0.930 . S
H1373 C1383 0.930 . S
C1374 H1368 0.930 . S
C1374 C1375 1.355 . S
C1374 C1376 1.415 . S
C1375 C1374 1.355 . S
C1375 C1377 1.419 . S
C1376 C1374 1.415 . S
C1376 C1381 1.425 . S
C1376 C1383 1.409 . S
C1377 H1369 0.930 . S
C1377 C1375 1.419 . S
C1377 C1378 1.362 . S
C1378 H1370 0.930 . S
C1378 C1377 1.362 . S
C1378 C1381 1.409 . S
C1379 H1371 0.930 . S
C1379 C1380 1.355 . S
C1379 C1381 1.415 . S
C1380 C1379 1.355 . S
C1380 C1382 1.419 . S
C1381 C1376 1.425 . S
C1381 C1378 1.409 . S
C1381 C1379 1.415 . S
C1382 H1372 0.930 . S
C1382 C1380 1.419 . S
C1382 C1383 1.362 . S
C1383 H1373 0.930 . S
C1383 C1376 1.409 . S
C1383 C1382 1.362 . S
H1384 C1390 0.930 . S
H1385 C1393 0.930 . S
H1386 C1394 0.930 . S
H1387 C1395 0.930 . S
H1388 C1398 0.930 . S
H1389 C1399 0.930 . S
C1390 H1384 0.930 . S
C1390 C1391 1.355 . S
C1390 C1392 1.415 . S
C1391 C1390 1.355 . S
C1391 C1393 1.419 . S
C1392 C1390 1.415 . S
C1392 C1397 1.425 . S
C1392 C1399 1.409 . S
C1393 H1385 0.930 . S
C1393 C1391 1.419 . S
C1393 C1394 1.362 . S
C1394 H1386 0.930 . S
C1394 C1393 1.362 . S
C1394 C1397 1.409 . S
C1395 H1387 0.930 . S
C1395 C1396 1.355 . S
C1395 C1397 1.415 . S
C1396 C1395 1.355 . S
C1396 C1398 1.419 . S
C1397 C1392 1.425 . S
C1397 C1394 1.409 . S
C1397 C1395 1.415 . S
C1398 H1388 0.930 . S
C1398 C1396 1.419 . S
C1398 C1399 1.362 . S
C1399 H1389 0.930 . S
C1399 C1392 1.409 . S
C1399 C1398 1.362 . S
H1400 C1406 0.930 . S
H1401 C1409 0.930 . S
H1402 C1410 0.930 . S
H1403 C1411 0.930 . S
H1404 C1414 0.930 . S
H1405 C1415 0.930 . S
C1406 H1400 0.930 . S
C1406 C1407 1.355 . S
C1406 C1408 1.415 . S
C1407 C1406 1.355 . S
C1407 C1409 1.419 . S
C1408 C1406 1.415 . S
C1408 C1413 1.425 . S
C1408 C1415 1.409 . S
C1409 H1401 0.930 . S
C1409 C1407 1.419 . S
C1409 C1410 1.362 . S
C1410 H1402 0.930 . S
C1410 C1409 1.362 . S
C1410 C1413 1.409 . S
C1411 H1403 0.930 . S
C1411 C1412 1.355 . S
C1411 C1413 1.415 . S
C1412 C1411 1.355 . S
C1412 C1414 1.419 . S
C1413 C1408 1.425 . S
C1413 C1410 1.409 . S
C1413 C1411 1.415 . S
C1414 H1404 0.930 . S
C1414 C1412 1.419 . S
C1414 C1415 1.362 . S
C1415 H1405 0.930 . S
C1415 C1408 1.409 . S
C1415 C1414 1.362 . S
H1416 C1422 0.930 1_655 S
H1417 C1425 0.930 . S
H1418 C1426 0.930 . S
H1419 C1427 0.933 . S
H1420 C1430 0.930 . S
H1421 C1431 0.930 . S
C1422 H1416 0.930 1_455 S
C1422 C1423 1.355 . S
C1422 C1424 1.415 1_455 S
C1423 C1422 1.355 . S
C1423 C1425 1.419 . S
C1424 C1422 1.415 1_655 S
C1424 C1429 1.425 1_655 S
C1424 C1431 1.409 . S
C1425 H1417 0.930 . S
C1425 C1423 1.419 . S
C1425 C1426 1.362 . S
C1426 H1418 0.930 . S
C1426 C1425 1.362 . S
C1426 C1429 1.409 . S
C1427 H1419 0.933 . S
C1427 C1428 1.349 1_455 S
C1427 C1429 1.416 . S
C1428 C1427 1.349 1_655 S
C1428 C1430 1.419 . S
C1429 C1424 1.425 1_455 S
C1429 C1426 1.409 . S
C1429 C1427 1.416 . S
C1430 H1420 0.930 . S
C1430 C1428 1.419 . S
C1430 C1431 1.362 . S
C1431 H1421 0.930 . S
C1431 C1424 1.409 . S
C1431 C1430 1.362 . S
H1432 C1438 0.930 . S
H1433 C1441 0.930 . S
H1434 C1442 0.930 . S
H1435 C1443 0.930 . S
H1436 C1446 0.930 . S
H1437 C1447 0.930 . S
C1438 H1432 0.930 . S
C1438 C1439 1.355 . S
C1438 C1440 1.415 . S
C1439 C1438 1.355 . S
C1439 C1441 1.419 . S
C1440 C1438 1.415 . S
C1440 C1445 1.425 . S
C1440 C1447 1.409 . S
C1441 H1433 0.930 . S
C1441 C1439 1.419 . S
C1441 C1442 1.362 . S
C1442 H1434 0.930 . S
C1442 C1441 1.362 . S
C1442 C1445 1.409 . S
C1443 H1435 0.930 . S
C1443 C1444 1.355 . S
C1443 C1445 1.415 . S
C1444 C1443 1.355 . S
C1444 C1446 1.419 . S
C1445 C1440 1.425 . S
C1445 C1442 1.409 . S
C1445 C1443 1.415 . S
C1446 H1436 0.930 . S
C1446 C1444 1.419 . S
C1446 C1447 1.362 . S
C1447 H1437 0.930 . S
C1447 C1440 1.409 . S
C1447 C1446 1.362 . S
H1448 C1454 0.930 . S
H1449 C1457 0.930 . S
H1450 C1458 0.930 . S
H1451 C1459 0.930 1_545 S
H1452 C1462 0.930 . S
H1453 C1463 0.930 . S
C1454 H1448 0.930 . S
C1454 C1455 1.354 1_565 S
C1454 C1456 1.415 . S
C1455 C1454 1.354 1_545 S
C1455 C1457 1.419 . S
C1456 C1454 1.415 . S
C1456 C1461 1.425 1_565 S
C1456 C1463 1.409 . S
C1457 H1449 0.930 . S
C1457 C1455 1.419 . S
C1457 C1458 1.362 . S
C1458 H1450 0.930 . S
C1458 C1457 1.362 . S
C1458 C1461 1.409 . S
C1459 H1451 0.930 1_565 S
C1459 C1460 1.355 . S
C1459 C1461 1.415 1_565 S
C1460 C1459 1.355 . S
C1460 C1462 1.419 . S
C1461 C1456 1.425 1_545 S
C1461 C1458 1.409 . S
C1461 C1459 1.415 1_545 S
C1462 H1452 0.930 . S
C1462 C1460 1.419 . S
C1462 C1463 1.362 . S
C1463 H1453 0.930 . S
C1463 C1456 1.409 . S
C1463 C1462 1.362 . S
H1464 C1470 0.930 . S
H1465 C1473 0.928 1_545 S
H1466 C1474 0.930 . S
H1467 C1475 0.930 . S
H1468 C1478 0.952 . S
H1469 C1479 0.930 . S
C1470 H1464 0.930 . S
C1470 C1471 1.355 . S
C1470 C1472 1.415 . S
C1471 C1470 1.355 . S
C1471 C1473 1.424 . S
C1472 C1470 1.415 . S
C1472 C1477 1.425 1_565 S
C1472 C1479 1.409 . S
C1473 H1465 0.928 1_565 S
C1473 C1471 1.424 . S
C1473 C1474 1.359 1_565 S
C1474 H1466 0.930 . S
C1474 C1473 1.359 1_545 S
C1474 C1477 1.409 . S
C1475 H1467 0.930 . S
C1475 C1476 1.355 . S
C1475 C1477 1.415 . S
C1476 C1475 1.355 . S
C1476 C1478 1.419 . S
C1477 C1472 1.425 1_545 S
C1477 C1474 1.409 . S
C1477 C1475 1.415 . S
C1478 H1468 0.952 . S
C1478 C1476 1.419 . S
C1478 C1479 1.362 1_545 S
C1479 H1469 0.930 . S
C1479 C1472 1.409 . S
C1479 C1478 1.362 1_565 S
H1480 C1486 0.930 . S
H1481 C1489 0.939 . S
H1482 C1490 0.930 . S
H1483 C1491 0.930 . S
H1484 C1494 0.930 . S
H1485 C1495 0.930 . S
C1486 H1480 0.930 . S
C1486 C1487 1.355 . S
C1486 C1488 1.415 . S
C1487 C1486 1.355 . S
C1487 C1489 1.382 1_655 S
C1488 C1486 1.415 . S
C1488 C1493 1.425 1_655 S
C1488 C1495 1.409 . S
C1489 H1481 0.939 . S
C1489 C1487 1.382 1_455 S
C1489 C1490 1.392 . S
C1490 H1482 0.930 . S
C1490 C1489 1.392 . S
C1490 C1493 1.409 . S
C1491 H1483 0.930 . S
C1491 C1492 1.355 . S
C1491 C1493 1.415 . S
C1492 C1491 1.355 . S
C1492 C1494 1.419 1_455 S
C1493 C1488 1.425 1_455 S
C1493 C1490 1.409 . S
C1493 C1491 1.415 . S
C1494 H1484 0.930 . S
C1494 C1492 1.419 1_655 S
C1494 C1495 1.362 . S
C1495 H1485 0.930 . S
C1495 C1488 1.409 . S
C1495 C1494 1.362 . S
H1496 C1502 0.930 . S
H1497 C1505 0.930 . S
H1498 C1506 0.930 . S
H1499 C1507 0.930 . S
H1500 C1510 0.930 . S
H1501 C1511 0.930 . S
C1502 H1496 0.930 . S
C1502 C1503 1.355 . S
C1502 C1504 1.415 . S
C1503 C1502 1.355 . S
C1503 C1505 1.419 . S
C1504 C1502 1.415 . S
C1504 C1509 1.425 . S
C1504 C1511 1.409 . S
C1505 H1497 0.930 . S
C1505 C1503 1.419 . S
C1505 C1506 1.362 . S
C1506 H1498 0.930 . S
C1506 C1505 1.362 . S
C1506 C1509 1.409 . S
C1507 H1499 0.930 . S
C1507 C1508 1.355 . S
C1507 C1509 1.415 . S
C1508 C1507 1.355 . S
C1508 C1510 1.419 . S
C1509 C1504 1.425 . S
C1509 C1506 1.409 . S
C1509 C1507 1.415 . S
C1510 H1500 0.930 . S
C1510 C1508 1.419 . S
C1510 C1511 1.362 . S
C1511 H1501 0.930 . S
C1511 C1504 1.409 . S
C1511 C1510 1.362 . S
H1512 C1518 0.930 . S
H1513 C1521 0.930 . S
H1514 C1522 0.930 . S
H1515 C1523 0.930 . S
H1516 C1526 0.930 . S
H1517 C1527 0.930 . S
C1518 H1512 0.930 . S
C1518 C1519 1.355 . S
C1518 C1520 1.415 . S
C1519 C1518 1.355 . S
C1519 C1521 1.419 . S
C1520 C1518 1.415 . S
C1520 C1525 1.425 . S
C1520 C1527 1.409 . S
C1521 H1513 0.930 . S
C1521 C1519 1.419 . S
C1521 C1522 1.362 . S
C1522 H1514 0.930 . S
C1522 C1521 1.362 . S
C1522 C1525 1.409 . S
C1523 H1515 0.930 . S
C1523 C1524 1.355 . S
C1523 C1525 1.415 . S
C1524 C1523 1.355 . S
C1524 C1526 1.419 . S
C1525 C1520 1.425 . S
C1525 C1522 1.409 . S
C1525 C1523 1.415 . S
C1526 H1516 0.930 . S
C1526 C1524 1.419 . S
C1526 C1527 1.362 . S
C1527 H1517 0.930 . S
C1527 C1520 1.409 . S
C1527 C1526 1.362 . S
H1528 C1534 0.930 . S
H1529 C1537 0.930 . S
H1530 C1538 0.930 . S
H1531 C1539 0.930 . S
H1532 C1542 0.930 . S
H1533 C1543 0.930 . S
C1534 H1528 0.930 . S
C1534 C1535 1.355 . S
C1534 C1536 1.415 . S
C1535 C1534 1.355 . S
C1535 C1537 1.419 . S
C1536 C1534 1.415 . S
C1536 C1541 1.425 . S
C1536 C1543 1.409 . S
C1537 H1529 0.930 . S
C1537 C1535 1.419 . S
C1537 C1538 1.362 . S
C1538 H1530 0.930 . S
C1538 C1537 1.362 . S
C1538 C1541 1.409 . S
C1539 H1531 0.930 . S
C1539 C1540 1.355 . S
C1539 C1541 1.415 . S
C1540 C1539 1.355 . S
C1540 C1542 1.419 . S
C1541 C1536 1.425 . S
C1541 C1538 1.409 . S
C1541 C1539 1.415 . S
C1542 H1532 0.930 . S
C1542 C1540 1.419 . S
C1542 C1543 1.362 . S
C1543 H1533 0.930 . S
C1543 C1536 1.409 . S
C1543 C1542 1.362 . S
H1544 C1550 0.930 . S
H1545 C1553 0.930 . S
H1546 C1554 0.930 . S
H1547 C1555 0.930 . S
H1548 C1558 0.930 . S
H1549 C1559 0.930 . S
C1550 H1544 0.930 . S
C1550 C1551 1.355 . S
C1550 C1552 1.415 . S
C1551 C1550 1.355 . S
C1551 C1553 1.419 . S
C1552 C1550 1.415 . S
C1552 C1557 1.425 . S
C1552 C1559 1.409 . S
C1553 H1545 0.930 . S
C1553 C1551 1.419 . S
C1553 C1554 1.362 . S
C1554 H1546 0.930 . S
C1554 C1553 1.362 . S
C1554 C1557 1.409 . S
C1555 H1547 0.930 . S
C1555 C1556 1.355 . S
C1555 C1557 1.415 . S
C1556 C1555 1.355 . S
C1556 C1558 1.419 . S
C1557 C1552 1.425 . S
C1557 C1554 1.409 . S
C1557 C1555 1.415 . S
C1558 H1548 0.930 . S
C1558 C1556 1.419 . S
C1558 C1559 1.362 . S
C1559 H1549 0.930 . S
C1559 C1552 1.409 . S
C1559 C1558 1.362 . S
H1560 C1566 0.930 . S
H1561 C1569 0.930 . S
H1562 C1570 0.930 . S
H1563 C1571 0.930 . S
H1564 C1574 0.930 . S
H1565 C1575 0.930 . S
C1566 H1560 0.930 . S
C1566 C1567 1.355 . S
C1566 C1568 1.415 . S
C1567 C1566 1.355 . S
C1567 C1569 1.419 . S
C1568 C1566 1.415 . S
C1568 C1573 1.425 . S
C1568 C1575 1.409 . S
C1569 H1561 0.930 . S
C1569 C1567 1.419 . S
C1569 C1570 1.362 . S
C1570 H1562 0.930 . S
C1570 C1569 1.362 . S
C1570 C1573 1.409 . S
C1571 H1563 0.930 . S
C1571 C1572 1.355 . S
C1571 C1573 1.415 . S
C1572 C1571 1.355 . S
C1572 C1574 1.419 . S
C1573 C1568 1.425 . S
C1573 C1570 1.409 . S
C1573 C1571 1.415 . S
C1574 H1564 0.930 . S
C1574 C1572 1.419 . S
C1574 C1575 1.362 . S
C1575 H1565 0.930 . S
C1575 C1568 1.409 . S
C1575 C1574 1.362 . S
H1576 C1582 0.930 . S
H1577 C1585 0.930 . S
H1578 C1586 0.930 . S
H1579 C1587 0.930 . S
H1580 C1590 0.930 . S
H1581 C1591 0.930 . S
C1582 H1576 0.930 . S
C1582 C1583 1.355 . S
C1582 C1584 1.415 . S
C1583 C1582 1.355 . S
C1583 C1585 1.419 . S
C1584 C1582 1.415 . S
C1584 C1589 1.425 . S
C1584 C1591 1.409 . S
C1585 H1577 0.930 . S
C1585 C1583 1.419 . S
C1585 C1586 1.362 . S
C1586 H1578 0.930 . S
C1586 C1585 1.362 . S
C1586 C1589 1.409 . S
C1587 H1579 0.930 . S
C1587 C1588 1.355 . S
C1587 C1589 1.415 . S
C1588 C1587 1.355 . S
C1588 C1590 1.419 . S
C1589 C1584 1.425 . S
C1589 C1586 1.409 . S
C1589 C1587 1.415 . S
C1590 H1580 0.930 . S
C1590 C1588 1.419 . S
C1590 C1591 1.362 . S
C1591 H1581 0.930 . S
C1591 C1584 1.409 . S
C1591 C1590 1.362 . S
H1592 C1598 0.930 . S
H1593 C1601 0.930 . S
H1594 C1602 0.930 . S
H1595 C1603 0.930 . S
H1596 C1606 0.930 . S
H1597 C1607 0.930 . S
C1598 H1592 0.930 . S
C1598 C1599 1.355 . S
C1598 C1600 1.415 . S
C1599 C1598 1.355 . S
C1599 C1601 1.419 . S
C1600 C1598 1.415 . S
C1600 C1605 1.425 . S
C1600 C1607 1.409 . S
C1601 H1593 0.930 . S
C1601 C1599 1.419 . S
C1601 C1602 1.362 . S
C1602 H1594 0.930 . S
C1602 C1601 1.362 . S
C1602 C1605 1.409 . S
C1603 H1595 0.930 . S
C1603 C1604 1.355 . S
C1603 C1605 1.415 . S
C1604 C1603 1.355 . S
C1604 C1606 1.419 . S
C1605 C1600 1.425 . S
C1605 C1602 1.409 . S
C1605 C1603 1.415 . S
C1606 H1596 0.930 . S
C1606 C1604 1.419 . S
C1606 C1607 1.362 . S
C1607 H1597 0.930 . S
C1607 C1600 1.409 . S
C1607 C1606 1.362 . S
H1608 C1614 0.930 . S
H1609 C1617 0.930 . S
H1610 C1618 0.930 . S
H1611 C1619 0.930 . S
H1612 C1622 0.930 . S
H1613 C1623 0.930 . S
C1614 H1608 0.930 . S
C1614 C1615 1.355 . S
C1614 C1616 1.415 . S
C1615 C1614 1.355 . S
C1615 C1617 1.419 . S
C1616 C1614 1.415 . S
C1616 C1621 1.425 . S
C1616 C1623 1.409 . S
C1617 H1609 0.930 . S
C1617 C1615 1.419 . S
C1617 C1618 1.362 . S
C1618 H1610 0.930 . S
C1618 C1617 1.362 . S
C1618 C1621 1.409 . S
C1619 H1611 0.930 . S
C1619 C1620 1.355 . S
C1619 C1621 1.415 . S
C1620 C1619 1.355 . S
C1620 C1622 1.419 . S
C1621 C1616 1.425 . S
C1621 C1618 1.409 . S
C1621 C1619 1.415 . S
C1622 H1612 0.930 . S
C1622 C1620 1.419 . S
C1622 C1623 1.362 . S
C1623 H1613 0.930 . S
C1623 C1616 1.409 . S
C1623 C1622 1.362 . S
H1624 C1630 0.930 . S
H1625 C1633 0.930 . S
H1626 C1634 0.930 . S
H1627 C1635 0.930 . S
H1628 C1638 0.930 . S
H1629 C1639 0.930 . S
C1630 H1624 0.930 . S
C1630 C1631 1.355 . S
C1630 C1632 1.415 . S
C1631 C1630 1.355 . S
C1631 C1633 1.419 . S
C1632 C1630 1.415 . S
C1632 C1637 1.425 . S
C1632 C1639 1.409 . S
C1633 H1625 0.930 . S
C1633 C1631 1.419 . S
C1633 C1634 1.362 . S
C1634 H1626 0.930 . S
C1634 C1633 1.362 . S
C1634 C1637 1.409 . S
C1635 H1627 0.930 . S
C1635 C1636 1.355 . S
C1635 C1637 1.415 . S
C1636 C1635 1.355 . S
C1636 C1638 1.419 . S
C1637 C1632 1.425 . S
C1637 C1634 1.409 . S
C1637 C1635 1.415 . S
C1638 H1628 0.930 . S
C1638 C1636 1.419 . S
C1638 C1639 1.362 . S
C1639 H1629 0.930 . S
C1639 C1632 1.409 . S
C1639 C1638 1.362 . S
H1640 C1646 0.930 . S
H1641 C1649 0.930 . S
H1642 C1650 0.930 . S
H1643 C1651 0.930 . S
H1644 C1654 0.930 . S
H1645 C1655 0.930 . S
C1646 H1640 0.930 . S
C1646 C1647 1.355 . S
C1646 C1648 1.415 . S
C1647 C1646 1.355 . S
C1647 C1649 1.419 . S
C1648 C1646 1.415 . S
C1648 C1653 1.425 . S
C1648 C1655 1.409 . S
C1649 H1641 0.930 . S
C1649 C1647 1.419 . S
C1649 C1650 1.362 . S
C1650 H1642 0.930 . S
C1650 C1649 1.362 . S
C1650 C1653 1.409 . S
C1651 H1643 0.930 . S
C1651 C1652 1.355 . S
C1651 C1653 1.415 . S
C1652 C1651 1.355 . S
C1652 C1654 1.419 . S
C1653 C1648 1.425 . S
C1653 C1650 1.409 . S
C1653 C1651 1.415 . S
C1654 H1644 0.930 . S
C1654 C1652 1.419 . S
C1654 C1655 1.362 . S
C1655 H1645 0.930 . S
C1655 C1648 1.409 . S
C1655 C1654 1.362 . S
H1656 C1662 0.930 . S
H1657 C1665 0.930 . S
H1658 C1666 0.930 . S
H1659 C1667 0.930 . S
H1660 C1670 0.930 . S
H1661 C1671 0.930 . S
C1662 H1656 0.930 . S
C1662 C1663 1.355 . S
C1662 C1664 1.415 . S
C1663 C1662 1.355 . S
C1663 C1665 1.419 . S
C1664 C1662 1.415 . S
C1664 C1669 1.425 . S
C1664 C1671 1.409 . S
C1665 H1657 0.930 . S
C1665 C1663 1.419 . S
C1665 C1666 1.362 . S
C1666 H1658 0.930 . S
C1666 C1665 1.362 . S
C1666 C1669 1.409 . S
C1667 H1659 0.930 . S
C1667 C1668 1.355 . S
C1667 C1669 1.415 . S
C1668 C1667 1.355 . S
C1668 C1670 1.419 . S
C1669 C1664 1.425 . S
C1669 C1666 1.409 . S
C1669 C1667 1.415 . S
C1670 H1660 0.930 . S
C1670 C1668 1.419 . S
C1670 C1671 1.362 . S
C1671 H1661 0.930 . S
C1671 C1664 1.409 . S
C1671 C1670 1.362 . S
H1672 C1678 0.930 . S
H1673 C1681 0.930 . S
H1674 C1682 0.930 . S
H1675 C1683 0.930 . S
H1676 C1686 0.930 . S
H1677 C1687 0.930 . S
C1678 H1672 0.930 . S
C1678 C1679 1.355 . S
C1678 C1680 1.415 . S
C1679 C1678 1.355 . S
C1679 C1681 1.419 . S
C1680 C1678 1.415 . S
C1680 C1685 1.425 . S
C1680 C1687 1.409 . S
C1681 H1673 0.930 . S
C1681 C1679 1.419 . S
C1681 C1682 1.362 . S
C1682 H1674 0.930 . S
C1682 C1681 1.362 . S
C1682 C1685 1.409 . S
C1683 H1675 0.930 . S
C1683 C1684 1.355 . S
C1683 C1685 1.415 . S
C1684 C1683 1.355 . S
C1684 C1686 1.419 . S
C1685 C1680 1.425 . S
C1685 C1682 1.409 . S
C1685 C1683 1.415 . S
C1686 H1676 0.930 . S
C1686 C1684 1.419 . S
C1686 C1687 1.362 . S
C1687 H1677 0.930 . S
C1687 C1680 1.409 . S
C1687 C1686 1.362 . S
H1688 C1694 0.930 . S
H1689 C1697 0.930 . S
H1690 C1698 0.930 . S
H1691 C1699 0.930 . S
H1692 C1702 0.930 . S
H1693 C1703 0.930 . S
C1694 H1688 0.930 . S
C1694 C1695 1.355 . S
C1694 C1696 1.415 . S
C1695 C1694 1.355 . S
C1695 C1697 1.419 . S
C1696 C1694 1.415 . S
C1696 C1701 1.425 . S
C1696 C1703 1.409 . S
C1697 H1689 0.930 . S
C1697 C1695 1.419 . S
C1697 C1698 1.362 . S
C1698 H1690 0.930 . S
C1698 C1697 1.362 . S
C1698 C1701 1.409 . S
C1699 H1691 0.930 . S
C1699 C1700 1.355 . S
C1699 C1701 1.415 . S
C1700 C1699 1.355 . S
C1700 C1702 1.419 . S
C1701 C1696 1.425 . S
C1701 C1698 1.409 . S
C1701 C1699 1.415 . S
C1702 H1692 0.930 . S
C1702 C1700 1.419 . S
C1702 C1703 1.362 . S
C1703 H1693 0.930 . S
C1703 C1696 1.409 . S
C1703 C1702 1.362 . S
H1704 C1710 0.930 . S
H1705 C1713 0.930 . S
H1706 C1714 0.929 . S
H1707 C1715 0.930 . S
H1708 C1718 0.930 . S
H1709 C1719 0.929 . S
C1710 H1704 0.930 . S
C1710 C1711 1.355 . S
C1710 C1712 1.415 . S
C1711 C1710 1.355 . S
C1711 C1713 1.419 . S
C1712 C1710 1.415 . S
C1712 C1717 1.425 1_655 S
C1712 C1719 1.409 . S
C1713 H1705 0.930 . S
C1713 C1711 1.419 . S
C1713 C1714 1.363 1_655 S
C1714 H1706 0.929 . S
C1714 C1713 1.363 1_455 S
C1714 C1717 1.409 . S
C1715 H1707 0.930 . S
C1715 C1716 1.355 . S
C1715 C1717 1.415 . S
C1716 C1715 1.355 . S
C1716 C1718 1.419 . S
C1717 C1712 1.425 1_455 S
C1717 C1714 1.409 . S
C1717 C1715 1.415 . S
C1718 H1708 0.930 . S
C1718 C1716 1.419 . S
C1718 C1719 1.363 1_455 S
C1719 H1709 0.929 . S
C1719 C1712 1.409 . S
C1719 C1718 1.363 1_655 S
H1720 C1726 0.930 . S
H1721 C1729 0.930 . S
H1722 C1730 0.930 . S
H1723 C1731 0.930 . S
H1724 C1734 0.930 . S
H1725 C1735 0.930 . S
C1726 H1720 0.930 . S
C1726 C1727 1.355 . S
C1726 C1728 1.415 . S
C1727 C1726 1.355 . S
C1727 C1729 1.419 . S
C1728 C1726 1.415 . S
C1728 C1733 1.425 . S
C1728 C1735 1.409 . S
C1729 H1721 0.930 . S
C1729 C1727 1.419 . S
C1729 C1730 1.362 . S
C1730 H1722 0.930 . S
C1730 C1729 1.362 . S
C1730 C1733 1.409 . S
C1731 H1723 0.930 . S
C1731 C1732 1.355 . S
C1731 C1733 1.415 . S
C1732 C1731 1.355 . S
C1732 C1734 1.419 . S
C1733 C1728 1.425 . S
C1733 C1730 1.409 . S
C1733 C1731 1.415 . S
C1734 H1724 0.930 . S
C1734 C1732 1.419 . S
C1734 C1735 1.362 . S
C1735 H1725 0.930 . S
C1735 C1728 1.409 . S
C1735 C1734 1.362 . S
H1736 C1742 0.930 . S
H1737 C1745 0.930 . S
H1738 C1746 0.930 . S
H1739 C1747 0.930 . S
H1740 C1750 0.930 . S
H1741 C1751 0.930 . S
C1742 H1736 0.930 . S
C1742 C1743 1.355 . S
C1742 C1744 1.415 1_565 S
C1743 C1742 1.355 . S
C1743 C1745 1.419 . S
C1744 C1742 1.415 1_545 S
C1744 C1749 1.425 1_545 S
C1744 C1751 1.409 . S
C1745 H1737 0.930 . S
C1745 C1743 1.419 . S
C1745 C1746 1.362 . S
C1746 H1738 0.930 . S
C1746 C1745 1.362 . S
C1746 C1749 1.409 . S
C1747 H1739 0.930 . S
C1747 C1748 1.355 . S
C1747 C1749 1.415 1_545 S
C1748 C1747 1.355 . S
C1748 C1750 1.419 . S
C1749 C1744 1.425 1_565 S
C1749 C1746 1.409 . S
C1749 C1747 1.415 1_565 S
C1750 H1740 0.930 . S
C1750 C1748 1.419 . S
C1750 C1751 1.362 . S
C1751 H1741 0.930 . S
C1751 C1744 1.409 . S
C1751 C1750 1.362 . S
H1752 C1758 0.930 . S
H1753 C1761 0.930 . S
H1754 C1762 0.930 . S
H1755 C1763 0.930 . S
H1756 C1766 0.930 . S
H1757 C1767 0.930 . S
C1758 H1752 0.930 . S
C1758 C1759 1.355 1_554 S
C1758 C1760 1.415 . S
C1759 C1758 1.355 1_556 S
C1759 C1761 1.419 . S
C1760 C1758 1.415 . S
C1760 C1765 1.425 1_564 S
C1760 C1767 1.409 . S
C1761 H1753 0.930 . S
C1761 C1759 1.419 . S
C1761 C1762 1.362 1_565 S
C1762 H1754 0.930 . S
C1762 C1761 1.362 1_545 S
C1762 C1765 1.409 . S
C1763 H1755 0.930 . S
C1763 C1764 1.355 1_556 S
C1763 C1765 1.415 . S
C1764 C1763 1.355 1_554 S
C1764 C1766 1.419 . S
C1765 C1760 1.425 1_546 S
C1765 C1762 1.409 . S
C1765 C1763 1.415 . S
C1766 H1756 0.930 . S
C1766 C1764 1.419 . S
C1766 C1767 1.362 1_545 S
C1767 H1757 0.930 . S
C1767 C1760 1.409 . S
C1767 C1766 1.362 1_565 S
H1768 C1774 0.930 . S
H1769 C1777 0.930 . S
H1770 C1778 0.930 . S
H1771 C1779 0.930 . S
H1772 C1782 0.930 . S
H1773 C1783 0.930 . S
C1774 H1768 0.930 . S
C1774 C1775 1.355 1_554 S
C1774 C1776 1.415 . S
C1775 C1774 1.355 1_556 S
C1775 C1777 1.419 . S
C1776 C1774 1.415 . S
C1776 C1781 1.425 1_454 S
C1776 C1783 1.409 . S
C1777 H1769 0.930 . S
C1777 C1775 1.419 . S
C1777 C1778 1.362 1_455 S
C1778 H1770 0.930 . S
C1778 C1777 1.362 1_655 S
C1778 C1781 1.409 . S
C1779 H1771 0.930 . S
C1779 C1780 1.355 1_556 S
C1779 C1781 1.415 . S
C1780 C1779 1.355 1_554 S
C1780 C1782 1.419 . S
C1781 C1776 1.425 1_656 S
C1781 C1778 1.409 . S
C1781 C1779 1.415 . S
C1782 H1772 0.930 . S
C1782 C1780 1.419 . S
C1782 C1783 1.362 1_655 S
C1783 H1773 0.930 . S
C1783 C1776 1.409 . S
C1783 C1782 1.362 1_455 S
H1784 C1790 0.930 . S
H1785 C1793 0.930 . S
H1786 C1794 0.930 . S
H1787 C1795 0.930 . S
H1788 C1798 0.930 . S
H1789 C1799 0.930 . S
C1790 H1784 0.930 . S
C1790 C1791 1.355 . S
C1790 C1792 1.415 . S
C1791 C1790 1.355 . S
C1791 C1793 1.419 1_556 S
C1792 C1790 1.415 . S
C1792 C1797 1.425 1_556 S
C1792 C1799 1.409 . S
C1793 H1785 0.930 . S
C1793 C1791 1.419 1_554 S
C1793 C1794 1.362 . S
C1794 H1786 0.930 . S
C1794 C1793 1.362 . S
C1794 C1797 1.409 . S
C1795 H1787 0.930 . S
C1795 C1796 1.355 . S
C1795 C1797 1.415 . S
C1796 C1795 1.355 . S
C1796 C1798 1.419 1_554 S
C1797 C1792 1.425 1_554 S
C1797 C1794 1.409 . S
C1797 C1795 1.415 . S
C1798 H1788 0.930 . S
C1798 C1796 1.419 1_556 S
C1798 C1799 1.362 . S
C1799 H1789 0.930 . S
C1799 C1792 1.409 . S
C1799 C1798 1.362 . S
H1800 C1806 0.930 . S
H1801 C1809 0.930 . S
H1802 C1810 0.930 . S
H1803 C1811 0.930 . S
H1804 C1814 0.930 . S
H1805 C1815 0.930 1_554 S
C1806 H1800 0.930 . S
C1806 C1807 1.355 . S
C1806 C1808 1.415 . S
C1807 C1806 1.355 . S
C1807 C1809 1.419 . S
C1808 C1806 1.415 . S
C1808 C1813 1.425 1_554 S
C1808 C1815 1.409 1_554 S
C1809 H1801 0.930 . S
C1809 C1807 1.419 . S
C1809 C1810 1.362 1_554 S
C1810 H1802 0.930 . S
C1810 C1809 1.362 1_556 S
C1810 C1813 1.409 . S
C1811 H1803 0.930 . S
C1811 C1812 1.355 . S
C1811 C1813 1.415 . S
C1812 C1811 1.355 . S
C1812 C1814 1.419 . S
C1813 C1808 1.425 1_556 S
C1813 C1810 1.409 . S
C1813 C1811 1.415 . S
C1814 H1804 0.930 . S
C1814 C1812 1.419 . S
C1814 C1815 1.362 . S
C1815 H1805 0.930 1_556 S
C1815 C1808 1.409 1_556 S
C1815 C1814 1.362 . S
H1816 C1822 0.930 . S
H1817 C1825 0.930 . S
H1818 C1826 0.930 . S
H1819 C1827 0.930 . S
H1820 C1830 0.930 . S
H1821 C1831 0.930 1_554 S
C1822 H1816 0.930 . S
C1822 C1823 1.355 . S
C1822 C1824 1.415 1_554 S
C1823 C1822 1.355 . S
C1823 C1825 1.419 . S
C1824 C1822 1.415 1_556 S
C1824 C1829 1.425 . S
C1824 C1831 1.409 . S
C1825 H1817 0.930 . S
C1825 C1823 1.419 . S
C1825 C1826 1.362 1_554 S
C1826 H1818 0.930 . S
C1826 C1825 1.362 1_556 S
C1826 C1829 1.409 . S
C1827 H1819 0.930 . S
C1827 C1828 1.355 . S
C1827 C1829 1.415 . S
C1828 C1827 1.355 . S
C1828 C1830 1.419 . S
C1829 C1824 1.425 . S
C1829 C1826 1.409 . S
C1829 C1827 1.415 . S
C1830 H1820 0.930 . S
C1830 C1828 1.419 . S
C1830 C1831 1.362 . S
C1831 H1821 0.930 1_556 S
C1831 C1824 1.409 . S
C1831 C1830 1.362 . S
H1832 C1838 0.930 . S
H1833 C1841 0.930 . S
H1834 C1842 0.930 . S
H1835 C1843 0.930 . S
H1836 C1846 0.930 . S
H1837 C1847 0.930 . S
C1838 H1832 0.930 . S
C1838 C1839 1.355 . S
C1838 C1840 1.415 . S
C1839 C1838 1.355 . S
C1839 C1841 1.419 . S
C1840 C1838 1.415 . S
C1840 C1845 1.425 . S
C1840 C1847 1.409 1_556 S
C1841 H1833 0.930 . S
C1841 C1839 1.419 . S
C1841 C1842 1.362 . S
C1842 H1834 0.930 . S
C1842 C1841 1.362 . S
C1842 C1845 1.409 . S
C1843 H1835 0.930 . S
C1843 C1844 1.355 . S
C1843 C1845 1.415 1_554 S
C1844 C1843 1.355 . S
C1844 C1846 1.419 . S
C1845 C1840 1.425 . S
C1845 C1842 1.409 . S
C1845 C1843 1.415 1_556 S
C1846 H1836 0.930 . S
C1846 C1844 1.419 . S
C1846 C1847 1.362 . S
C1847 H1837 0.930 . S
C1847 C1840 1.409 1_554 S
C1847 C1846 1.362 . S
H1848 C1854 0.930 . S
H1849 C1857 0.930 . S
H1850 C1858 0.930 . S
H1851 C1859 0.930 . S
H1852 C1862 0.930 . S
H1853 C1863 0.930 . S
C1854 H1848 0.930 . S
C1854 C1855 1.355 . S
C1854 C1856 1.415 . S
C1855 C1854 1.355 . S
C1855 C1857 1.419 . S
C1856 C1854 1.415 . S
C1856 C1861 1.425 . S
C1856 C1863 1.409 . S
C1857 H1849 0.930 . S
C1857 C1855 1.419 . S
C1857 C1858 1.362 . S
C1858 H1850 0.930 . S
C1858 C1857 1.362 . S
C1858 C1861 1.409 . S
C1859 H1851 0.930 . S
C1859 C1860 1.355 . S
C1859 C1861 1.415 . S
C1860 C1859 1.355 . S
C1860 C1862 1.419 . S
C1861 C1856 1.425 . S
C1861 C1858 1.409 . S
C1861 C1859 1.415 . S
C1862 H1852 0.930 . S
C1862 C1860 1.419 . S
C1862 C1863 1.362 . S
C1863 H1853 0.930 . S
C1863 C1856 1.409 . S
C1863 C1862 1.362 . S
H1864 C1870 0.930 . S
H1865 C1873 0.930 . S
H1866 C1874 0.930 . S
H1867 C1875 0.930 . S
H1868 C1878 0.930 . S
H1869 C1879 0.930 . S
C1870 H1864 0.930 . S
C1870 C1871 1.355 . S
C1870 C1872 1.415 . S
C1871 C1870 1.355 . S
C1871 C1873 1.419 . S
C1872 C1870 1.415 . S
C1872 C1877 1.425 . S
C1872 C1879 1.409 . S
C1873 H1865 0.930 . S
C1873 C1871 1.419 . S
C1873 C1874 1.362 . S
C1874 H1866 0.930 . S
C1874 C1873 1.362 . S
C1874 C1877 1.409 . S
C1875 H1867 0.930 . S
C1875 C1876 1.355 . S
C1875 C1877 1.415 . S
C1876 C1875 1.355 . S
C1876 C1878 1.419 . S
C1877 C1872 1.425 . S
C1877 C1874 1.409 . S
C1877 C1875 1.415 . S
C1878 H1868 0.930 . S
C1878 C1876 1.419 . S
C1878 C1879 1.362 . S
C1879 H1869 0.930 . S
C1879 C1872 1.409 . S
C1879 C1878 1.362 . S
H1880 C1886 0.930 . S
H1881 C1889 0.930 . S
H1882 C1890 0.930 . S
H1883 C1891 0.930 . S
H1884 C1894 0.930 . S
H1885 C1895 0.930 . S
C1886 H1880 0.930 . S
C1886 C1887 1.355 . S
C1886 C1888 1.415 . S
C1887 C1886 1.355 . S
C1887 C1889 1.419 . S
C1888 C1886 1.415 . S
C1888 C1893 1.425 . S
C1888 C1895 1.409 . S
C1889 H1881 0.930 . S
C1889 C1887 1.419 . S
C1889 C1890 1.362 . S
C1890 H1882 0.930 . S
C1890 C1889 1.362 . S
C1890 C1893 1.409 . S
C1891 H1883 0.930 . S
C1891 C1892 1.355 . S
C1891 C1893 1.415 . S
C1892 C1891 1.355 . S
C1892 C1894 1.419 . S
C1893 C1888 1.425 . S
C1893 C1890 1.409 . S
C1893 C1891 1.415 . S
C1894 H1884 0.930 . S
C1894 C1892 1.419 . S
C1894 C1895 1.362 . S
C1895 H1885 0.930 . S
C1895 C1888 1.409 . S
C1895 C1894 1.362 . S
H1896 C1902 0.930 . S
H1897 C1905 0.930 . S
H1898 C1906 0.930 . S
H1899 C1907 0.930 . S
H1900 C1910 0.930 . S
H1901 C1911 0.930 . S
C1902 H1896 0.930 . S
C1902 C1903 1.355 . S
C1902 C1904 1.415 . S
C1903 C1902 1.355 . S
C1903 C1905 1.419 . S
C1904 C1902 1.415 . S
C1904 C1909 1.425 . S
C1904 C1911 1.409 1_554 S
C1905 H1897 0.930 . S
C1905 C1903 1.419 . S
C1905 C1906 1.362 . S
C1906 H1898 0.930 . S
C1906 C1905 1.362 . S
C1906 C1909 1.409 . S
C1907 H1899 0.930 . S
C1907 C1908 1.355 . S
C1907 C1909 1.415 1_556 S
C1908 C1907 1.355 . S
C1908 C1910 1.419 . S
C1909 C1904 1.425 . S
C1909 C1906 1.409 . S
C1909 C1907 1.415 1_554 S
C1910 H1900 0.930 . S
C1910 C1908 1.419 . S
C1910 C1911 1.362 . S
C1911 H1901 0.930 . S
C1911 C1904 1.409 1_556 S
C1911 C1910 1.362 . S
H1912 C1918 0.930 . S
H1913 C1921 0.930 . S
H1914 C1922 0.930 . S
H1915 C1923 0.930 . S
H1916 C1926 0.930 . S
H1917 C1927 0.930 . S
C1918 H1912 0.930 . S
C1918 C1919 1.355 . S
C1918 C1920 1.415 . S
C1919 C1918 1.355 . S
C1919 C1921 1.419 . S
C1920 C1918 1.415 . S
C1920 C1925 1.425 . S
C1920 C1927 1.409 1_554 S
C1921 H1913 0.930 . S
C1921 C1919 1.419 . S
C1921 C1922 1.362 . S
C1922 H1914 0.930 . S
C1922 C1921 1.362 . S
C1922 C1925 1.409 . S
C1923 H1915 0.930 . S
C1923 C1924 1.355 . S
C1923 C1925 1.415 1_556 S
C1924 C1923 1.355 . S
C1924 C1926 1.419 . S
C1925 C1920 1.425 . S
C1925 C1922 1.409 . S
C1925 C1923 1.415 1_554 S
C1926 H1916 0.930 . S
C1926 C1924 1.419 . S
C1926 C1927 1.362 . S
C1927 H1917 0.930 . S
C1927 C1920 1.409 1_556 S
C1927 C1926 1.362 . S
H1928 C1934 0.930 . S
H1929 C1937 0.930 . S
H1930 C1938 0.930 . S
H1931 C1939 0.930 . S
H1932 C1942 0.930 . S
H1933 C1943 0.930 . S
C1934 H1928 0.930 . S
C1934 C1935 1.355 . S
C1934 C1936 1.415 1_556 S
C1935 C1934 1.355 . S
C1935 C1937 1.419 . S
C1936 C1934 1.415 1_554 S
C1936 C1941 1.425 . S
C1936 C1943 1.409 . S
C1937 H1929 0.930 . S
C1937 C1935 1.419 . S
C1937 C1938 1.362 . S
C1938 H1930 0.930 . S
C1938 C1937 1.362 . S
C1938 C1941 1.409 1_556 S
C1939 H1931 0.930 . S
C1939 C1940 1.355 . S
C1939 C1941 1.415 . S
C1940 C1939 1.355 . S
C1940 C1942 1.419 . S
C1941 C1936 1.425 . S
C1941 C1938 1.409 1_554 S
C1941 C1939 1.415 . S
C1942 H1932 0.930 . S
C1942 C1940 1.419 . S
C1942 C1943 1.362 . S
C1943 H1933 0.930 . S
C1943 C1936 1.409 . S
C1943 C1942 1.362 . S
H1944 C1950 0.930 . S
H1945 C1953 0.930 . S
H1946 C1954 0.930 . S
H1947 C1955 0.930 . S
H1948 C1958 0.930 . S
H1949 C1959 0.930 . S
C1950 H1944 0.930 . S
C1950 C1951 1.355 . S
C1950 C1952 1.415 . S
C1951 C1950 1.355 . S
C1951 C1953 1.419 . S
C1952 C1950 1.415 . S
C1952 C1957 1.425 . S
C1952 C1959 1.409 . S
C1953 H1945 0.930 . S
C1953 C1951 1.419 . S
C1953 C1954 1.362 . S
C1954 H1946 0.930 . S
C1954 C1953 1.362 . S
C1954 C1957 1.409 . S
C1955 H1947 0.930 . S
C1955 C1956 1.355 . S
C1955 C1957 1.415 . S
C1956 C1955 1.355 . S
C1956 C1958 1.419 . S
C1957 C1952 1.425 . S
C1957 C1954 1.409 . S
C1957 C1955 1.415 . S
C1958 H1948 0.930 . S
C1958 C1956 1.419 . S
C1958 C1959 1.362 . S
C1959 H1949 0.930 . S
C1959 C1952 1.409 . S
C1959 C1958 1.362 . S
H1960 C1966 0.930 . S
H1961 C1969 0.930 . S
H1962 C1970 0.930 . S
H1963 C1971 0.930 . S
H1964 C1974 0.930 . S
H1965 C1975 0.930 . S
C1966 H1960 0.930 . S
C1966 C1967 1.355 . S
C1966 C1968 1.415 . S
C1967 C1966 1.355 . S
C1967 C1969 1.419 . S
C1968 C1966 1.415 . S
C1968 C1973 1.425 . S
C1968 C1975 1.409 . S
C1969 H1961 0.930 . S
C1969 C1967 1.419 . S
C1969 C1970 1.362 . S
C1970 H1962 0.930 . S
C1970 C1969 1.362 . S
C1970 C1973 1.409 . S
C1971 H1963 0.930 . S
C1971 C1972 1.355 . S
C1971 C1973 1.415 . S
C1972 C1971 1.355 . S
C1972 C1974 1.419 . S
C1973 C1968 1.425 . S
C1973 C1970 1.409 . S
C1973 C1971 1.415 . S
C1974 H1964 0.930 . S
C1974 C1972 1.419 . S
C1974 C1975 1.362 . S
C1975 H1965 0.930 . S
C1975 C1968 1.409 . S
C1975 C1974 1.362 . S
H1976 C1982 0.930 . S
H1977 C1985 0.930 . S
H1978 C1986 0.930 . S
H1979 C1987 0.930 . S
H1980 C1990 0.930 . S
H1981 C1991 0.930 . S
C1982 H1976 0.930 . S
C1982 C1983 1.355 . S
C1982 C1984 1.415 . S
C1983 C1982 1.355 . S
C1983 C1985 1.419 . S
C1984 C1982 1.415 . S
C1984 C1989 1.425 . S
C1984 C1991 1.409 . S
C1985 H1977 0.930 . S
C1985 C1983 1.419 . S
C1985 C1986 1.362 . S
C1986 H1978 0.930 . S
C1986 C1985 1.362 . S
C1986 C1989 1.409 . S
C1987 H1979 0.930 . S
C1987 C1988 1.355 . S
C1987 C1989 1.415 . S
C1988 C1987 1.355 . S
C1988 C1990 1.419 . S
C1989 C1984 1.425 . S
C1989 C1986 1.409 . S
C1989 C1987 1.415 . S
C1990 H1980 0.930 . S
C1990 C1988 1.419 . S
C1990 C1991 1.362 . S
C1991 H1981 0.930 . S
C1991 C1984 1.409 . S
C1991 C1990 1.362 . S
H1992 C1998 0.930 . S
H1993 C2001 0.930 . S
H1994 C2002 0.930 . S
H1995 C2003 0.930 . S
H1996 C2006 0.930 . S
H1997 C2007 0.930 . S
C1998 H1992 0.930 . S
C1998 C1999 1.355 . S
C1998 C2000 1.415 . S
C1999 C1998 1.355 . S
C1999 C2001 1.419 . S
C2000 C1998 1.415 . S
C2000 C2005 1.425 . S
C2000 C2007 1.409 . S
C2001 H1993 0.930 . S
C2001 C1999 1.419 . S
C2001 C2002 1.362 . S
C2002 H1994 0.930 . S
C2002 C2001 1.362 . S
C2002 C2005 1.409 . S
C2003 H1995 0.930 . S
C2003 C2004 1.355 . S
C2003 C2005 1.415 . S
C2004 C2003 1.355 . S
C2004 C2006 1.419 . S
C2005 C2000 1.425 . S
C2005 C2002 1.409 . S
C2005 C2003 1.415 . S
C2006 H1996 0.930 . S
C2006 C2004 1.419 . S
C2006 C2007 1.362 . S
C2007 H1997 0.930 . S
C2007 C2000 1.409 . S
C2007 C2006 1.362 . S
H2008 C2014 0.930 . S
H2009 C2017 0.930 . S
H2010 C2018 0.930 . S
H2011 C2019 0.930 . S
H2012 C2022 0.930 . S
H2013 C2023 0.930 . S
C2014 H2008 0.930 . S
C2014 C2015 1.355 . S
C2014 C2016 1.415 . S
C2015 C2014 1.355 . S
C2015 C2017 1.419 . S
C2016 C2014 1.415 . S
C2016 C2021 1.425 . S
C2016 C2023 1.409 . S
C2017 H2009 0.930 . S
C2017 C2015 1.419 . S
C2017 C2018 1.362 . S
C2018 H2010 0.930 . S
C2018 C2017 1.362 . S
C2018 C2021 1.409 . S
C2019 H2011 0.930 . S
C2019 C2020 1.355 . S
C2019 C2021 1.415 . S
C2020 C2019 1.355 . S
C2020 C2022 1.419 . S
C2021 C2016 1.425 . S
C2021 C2018 1.409 . S
C2021 C2019 1.415 . S
C2022 H2012 0.930 . S
C2022 C2020 1.419 . S
C2022 C2023 1.362 . S
C2023 H2013 0.930 . S
C2023 C2016 1.409 . S
C2023 C2022 1.362 . S
H2024 C2030 0.930 . S
H2025 C2033 0.930 . S
H2026 C2034 0.930 . S
H2027 C2035 0.930 . S
H2028 C2038 0.930 . S
H2029 C2039 0.930 . S
C2030 H2024 0.930 . S
C2030 C2031 1.355 . S
C2030 C2032 1.415 . S
C2031 C2030 1.355 . S
C2031 C2033 1.419 . S
C2032 C2030 1.415 . S
C2032 C2037 1.425 . S
C2032 C2039 1.409 . S
C2033 H2025 0.930 . S
C2033 C2031 1.419 . S
C2033 C2034 1.362 . S
C2034 H2026 0.930 . S
C2034 C2033 1.362 . S
C2034 C2037 1.409 . S
C2035 H2027 0.930 . S
C2035 C2036 1.355 . S
C2035 C2037 1.415 . S
C2036 C2035 1.355 . S
C2036 C2038 1.419 . S
C2037 C2032 1.425 . S
C2037 C2034 1.409 . S
C2037 C2035 1.415 . S
C2038 H2028 0.930 . S
C2038 C2036 1.419 . S
C2038 C2039 1.362 . S
C2039 H2029 0.930 . S
C2039 C2032 1.409 . S
C2039 C2038 1.362 . S
H2040 C2046 0.930 . S
H2041 C2049 0.930 . S
H2042 C2050 0.930 . S
H2043 C2051 0.930 . S
H2044 C2054 0.930 . S
H2045 C2055 0.930 . S
C2046 H2040 0.930 . S
C2046 C2047 1.355 . S
C2046 C2048 1.415 . S
C2047 C2046 1.355 . S
C2047 C2049 1.419 . S
C2048 C2046 1.415 . S
C2048 C2053 1.425 . S
C2048 C2055 1.409 . S
C2049 H2041 0.930 . S
C2049 C2047 1.419 . S
C2049 C2050 1.362 . S
C2050 H2042 0.930 . S
C2050 C2049 1.362 . S
C2050 C2053 1.409 . S
C2051 H2043 0.930 . S
C2051 C2052 1.355 . S
C2051 C2053 1.415 . S
C2052 C2051 1.355 . S
C2052 C2054 1.419 . S
C2053 C2048 1.425 . S
C2053 C2050 1.409 . S
C2053 C2051 1.415 . S
C2054 H2044 0.930 . S
C2054 C2052 1.419 . S
C2054 C2055 1.362 . S
C2055 H2045 0.930 . S
C2055 C2048 1.409 . S
C2055 C2054 1.362 . S
H2056 C2062 0.930 . S
H2057 C2065 0.930 . S
H2058 C2066 0.930 . S
H2059 C2067 0.930 . S
H2060 C2070 0.930 . S
H2061 C2071 0.930 . S
C2062 H2056 0.930 . S
C2062 C2063 1.355 . S
C2062 C2064 1.415 . S
C2063 C2062 1.355 . S
C2063 C2065 1.419 . S
C2064 C2062 1.415 . S
C2064 C2069 1.425 . S
C2064 C2071 1.409 . S
C2065 H2057 0.930 . S
C2065 C2063 1.419 . S
C2065 C2066 1.362 . S
C2066 H2058 0.930 . S
C2066 C2065 1.362 . S
C2066 C2069 1.409 . S
C2067 H2059 0.930 . S
C2067 C2068 1.355 . S
C2067 C2069 1.415 . S
C2068 C2067 1.355 . S
C2068 C2070 1.419 . S
C2069 C2064 1.425 . S
C2069 C2066 1.409 . S
C2069 C2067 1.415 . S
C2070 H2060 0.930 . S
C2070 C2068 1.419 . S
C2070 C2071 1.362 . S
C2071 H2061 0.930 . S
C2071 C2064 1.409 . S
C2071 C2070 1.362 . S
H2072 C2078 0.930 . S
H2073 C2081 0.930 . S
H2074 C2082 0.930 . S
H2075 C2083 0.930 . S
H2076 C2086 0.930 . S
H2077 C2087 0.930 . S
C2078 H2072 0.930 . S
C2078 C2079 1.355 . S
C2078 C2080 1.415 . S
C2079 C2078 1.355 . S
C2079 C2081 1.419 . S
C2080 C2078 1.415 . S
C2080 C2085 1.425 . S
C2080 C2087 1.409 . S
C2081 H2073 0.930 . S
C2081 C2079 1.419 . S
C2081 C2082 1.362 . S
C2082 H2074 0.930 . S
C2082 C2081 1.362 . S
C2082 C2085 1.409 . S
C2083 H2075 0.930 . S
C2083 C2084 1.355 . S
C2083 C2085 1.415 . S
C2084 C2083 1.355 . S
C2084 C2086 1.419 . S
C2085 C2080 1.425 . S
C2085 C2082 1.409 . S
C2085 C2083 1.415 . S
C2086 H2076 0.930 . S
C2086 C2084 1.419 . S
C2086 C2087 1.362 . S
C2087 H2077 0.930 . S
C2087 C2080 1.409 . S
C2087 C2086 1.362 . S
H2088 C2094 0.930 . S
H2089 C2097 0.930 . S
H2090 C2098 0.930 . S
H2091 C2099 0.930 . S
H2092 C2102 0.930 . S
H2093 C2103 0.930 . S
C2094 H2088 0.930 . S
C2094 C2095 1.355 . S
C2094 C2096 1.415 . S
C2095 C2094 1.355 . S
C2095 C2097 1.419 . S
C2096 C2094 1.415 . S
C2096 C2101 1.425 . S
C2096 C2103 1.409 . S
C2097 H2089 0.930 . S
C2097 C2095 1.419 . S
C2097 C2098 1.362 . S
C2098 H2090 0.930 . S
C2098 C2097 1.362 . S
C2098 C2101 1.409 . S
C2099 H2091 0.930 . S
C2099 C2100 1.355 . S
C2099 C2101 1.415 . S
C2100 C2099 1.355 . S
C2100 C2102 1.419 . S
C2101 C2096 1.425 . S
C2101 C2098 1.409 . S
C2101 C2099 1.415 . S
C2102 H2092 0.930 . S
C2102 C2100 1.419 . S
C2102 C2103 1.362 . S
C2103 H2093 0.930 . S
C2103 C2096 1.409 . S
C2103 C2102 1.362 . S
H2104 C2110 0.930 . S
H2105 C2113 0.930 . S
H2106 C2114 0.930 . S
H2107 C2115 0.930 . S
H2108 C2118 0.930 . S
H2109 C2119 0.930 . S
C2110 H2104 0.930 . S
C2110 C2111 1.355 . S
C2110 C2112 1.415 . S
C2111 C2110 1.355 . S
C2111 C2113 1.419 . S
C2112 C2110 1.415 . S
C2112 C2117 1.425 . S
C2112 C2119 1.409 . S
C2113 H2105 0.930 . S
C2113 C2111 1.419 . S
C2113 C2114 1.362 . S
C2114 H2106 0.930 . S
C2114 C2113 1.362 . S
C2114 C2117 1.409 . S
C2115 H2107 0.930 . S
C2115 C2116 1.355 . S
C2115 C2117 1.415 . S
C2116 C2115 1.355 . S
C2116 C2118 1.419 . S
C2117 C2112 1.425 . S
C2117 C2114 1.409 . S
C2117 C2115 1.415 . S
C2118 H2108 0.930 . S
C2118 C2116 1.419 . S
C2118 C2119 1.362 . S
C2119 H2109 0.930 . S
C2119 C2112 1.409 . S
C2119 C2118 1.362 . S
H2120 C2126 0.930 . S
H2121 C2129 0.930 . S
H2122 C2130 0.930 . S
H2123 C2131 0.930 . S
H2124 C2134 0.930 . S
H2125 C2135 0.930 . S
C2126 H2120 0.930 . S
C2126 C2127 1.355 . S
C2126 C2128 1.415 . S
C2127 C2126 1.355 . S
C2127 C2129 1.419 . S
C2128 C2126 1.415 . S
C2128 C2133 1.425 . S
C2128 C2135 1.409 . S
C2129 H2121 0.930 . S
C2129 C2127 1.419 . S
C2129 C2130 1.362 . S
C2130 H2122 0.930 . S
C2130 C2129 1.362 . S
C2130 C2133 1.409 . S
C2131 H2123 0.930 . S
C2131 C2132 1.355 . S
C2131 C2133 1.415 . S
C2132 C2131 1.355 . S
C2132 C2134 1.419 . S
C2133 C2128 1.425 . S
C2133 C2130 1.409 . S
C2133 C2131 1.415 . S
C2134 H2124 0.930 . S
C2134 C2132 1.419 . S
C2134 C2135 1.362 . S
C2135 H2125 0.930 . S
C2135 C2128 1.409 . S
C2135 C2134 1.362 . S
H2136 C2142 0.930 . S
H2137 C2145 0.930 . S
H2138 C2146 0.930 . S
H2139 C2147 0.930 . S
H2140 C2150 0.930 . S
H2141 C2151 0.930 . S
C2142 H2136 0.930 . S
C2142 C2143 1.355 . S
C2142 C2144 1.415 . S
C2143 C2142 1.355 . S
C2143 C2145 1.419 . S
C2144 C2142 1.415 . S
C2144 C2149 1.425 . S
C2144 C2151 1.409 . S
C2145 H2137 0.930 . S
C2145 C2143 1.419 . S
C2145 C2146 1.362 . S
C2146 H2138 0.930 . S
C2146 C2145 1.362 . S
C2146 C2149 1.409 . S
C2147 H2139 0.930 . S
C2147 C2148 1.355 . S
C2147 C2149 1.415 . S
C2148 C2147 1.355 . S
C2148 C2150 1.419 . S
C2149 C2144 1.425 . S
C2149 C2146 1.409 . S
C2149 C2147 1.415 . S
C2150 H2140 0.930 . S
C2150 C2148 1.419 . S
C2150 C2151 1.362 . S
C2151 H2141 0.930 . S
C2151 C2144 1.409 . S
C2151 C2150 1.362 . S
H2152 C2158 0.930 . S
H2153 C2161 0.930 . S
H2154 C2162 0.930 . S
H2155 C2163 0.930 . S
H2156 C2166 0.930 . S
H2157 C2167 0.930 . S
C2158 H2152 0.930 . S
C2158 C2159 1.355 . S
C2158 C2160 1.415 . S
C2159 C2158 1.355 . S
C2159 C2161 1.419 . S
C2160 C2158 1.415 . S
C2160 C2165 1.425 . S
C2160 C2167 1.409 . S
C2161 H2153 0.930 . S
C2161 C2159 1.419 . S
C2161 C2162 1.362 . S
C2162 H2154 0.930 . S
C2162 C2161 1.362 . S
C2162 C2165 1.409 . S
C2163 H2155 0.930 . S
C2163 C2164 1.355 . S
C2163 C2165 1.415 . S
C2164 C2163 1.355 . S
C2164 C2166 1.419 . S
C2165 C2160 1.425 . S
C2165 C2162 1.409 . S
C2165 C2163 1.415 . S
C2166 H2156 0.930 . S
C2166 C2164 1.419 . S
C2166 C2167 1.362 . S
C2167 H2157 0.930 . S
C2167 C2160 1.409 . S
C2167 C2166 1.362 . S
H2168 C2174 0.930 . S
H2169 C2177 0.930 . S
H2170 C2178 0.930 . S
H2171 C2179 0.930 . S
H2172 C2182 0.930 . S
H2173 C2183 0.930 . S
C2174 H2168 0.930 . S
C2174 C2175 1.355 . S
C2174 C2176 1.415 . S
C2175 C2174 1.355 . S
C2175 C2177 1.419 . S
C2176 C2174 1.415 . S
C2176 C2181 1.425 . S
C2176 C2183 1.409 . S
C2177 H2169 0.930 . S
C2177 C2175 1.419 . S
C2177 C2178 1.362 . S
C2178 H2170 0.930 . S
C2178 C2177 1.362 . S
C2178 C2181 1.409 . S
C2179 H2171 0.930 . S
C2179 C2180 1.355 . S
C2179 C2181 1.415 . S
C2180 C2179 1.355 . S
C2180 C2182 1.419 . S
C2181 C2176 1.425 . S
C2181 C2178 1.409 . S
C2181 C2179 1.415 . S
C2182 H2172 0.930 . S
C2182 C2180 1.419 . S
C2182 C2183 1.362 . S
C2183 H2173 0.930 . S
C2183 C2176 1.409 . S
C2183 C2182 1.362 . S
H2184 C2190 0.930 . S
H2185 C2193 0.930 . S
H2186 C2194 0.930 . S
H2187 C2195 0.930 . S
H2188 C2198 0.930 . S
H2189 C2199 0.930 . S
C2190 H2184 0.930 . S
C2190 C2191 1.355 . S
C2190 C2192 1.415 . S
C2191 C2190 1.355 . S
C2191 C2193 1.419 . S
C2192 C2190 1.415 . S
C2192 C2197 1.425 . S
C2192 C2199 1.409 . S
C2193 H2185 0.930 . S
C2193 C2191 1.419 . S
C2193 C2194 1.362 . S
C2194 H2186 0.930 . S
C2194 C2193 1.362 . S
C2194 C2197 1.409 . S
C2195 H2187 0.930 . S
C2195 C2196 1.355 . S
C2195 C2197 1.415 . S
C2196 C2195 1.355 . S
C2196 C2198 1.419 . S
C2197 C2192 1.425 . S
C2197 C2194 1.409 . S
C2197 C2195 1.415 . S
C2198 H2188 0.930 . S
C2198 C2196 1.419 . S
C2198 C2199 1.362 . S
C2199 H2189 0.930 . S
C2199 C2192 1.409 . S
C2199 C2198 1.362 . S
H2200 C2206 0.930 . S
H2201 C2209 0.930 . S
H2202 C2210 0.930 . S
H2203 C2211 0.930 . S
H2204 C2214 0.930 . S
H2205 C2215 0.930 . S
C2206 H2200 0.930 . S
C2206 C2207 1.355 . S
C2206 C2208 1.415 . S
C2207 C2206 1.355 . S
C2207 C2209 1.419 . S
C2208 C2206 1.415 . S
C2208 C2213 1.425 . S
C2208 C2215 1.409 . S
C2209 H2201 0.930 . S
C2209 C2207 1.419 . S
C2209 C2210 1.362 . S
C2210 H2202 0.930 . S
C2210 C2209 1.362 . S
C2210 C2213 1.409 . S
C2211 H2203 0.930 . S
C2211 C2212 1.355 . S
C2211 C2213 1.415 . S
C2212 C2211 1.355 . S
C2212 C2214 1.419 . S
C2213 C2208 1.425 . S
C2213 C2210 1.409 . S
C2213 C2211 1.415 . S
C2214 H2204 0.930 . S
C2214 C2212 1.419 . S
C2214 C2215 1.362 . S
C2215 H2205 0.930 . S
C2215 C2208 1.409 . S
C2215 C2214 1.362 . S
H2216 C2222 0.930 . S
H2217 C2225 0.930 . S
H2218 C2226 0.930 . S
H2219 C2227 0.930 . S
H2220 C2230 0.930 . S
H2221 C2231 0.930 . S
C2222 H2216 0.930 . S
C2222 C2223 1.355 . S
C2222 C2224 1.415 . S
C2223 C2222 1.355 . S
C2223 C2225 1.419 . S
C2224 C2222 1.415 . S
C2224 C2229 1.425 . S
C2224 C2231 1.409 . S
C2225 H2217 0.930 . S
C2225 C2223 1.419 . S
C2225 C2226 1.362 . S
C2226 H2218 0.930 . S
C2226 C2225 1.362 . S
C2226 C2229 1.409 . S
C2227 H2219 0.930 . S
C2227 C2228 1.355 . S
C2227 C2229 1.415 . S
C2228 C2227 1.355 . S
C2228 C2230 1.419 . S
C2229 C2224 1.425 . S
C2229 C2226 1.409 . S
C2229 C2227 1.415 . S
C2230 H2220 0.930 . S
C2230 C2228 1.419 . S
C2230 C2231 1.362 . S
C2231 H2221 0.930 . S
C2231 C2224 1.409 . S
C2231 C2230 1.362 . S
H2232 C2238 0.930 . S
H2233 C2241 0.930 . S
H2234 C2242 0.930 . S
H2235 C2243 0.930 . S
H2236 C2246 0.930 . S
H2237 C2247 0.930 . S
C2238 H2232 0.930 . S
C2238 C2239 1.355 . S
C2238 C2240 1.415 . S
C2239 C2238 1.355 . S
C2239 C2241 1.419 . S
C2240 C2238 1.415 . S
C2240 C2245 1.425 . S
C2240 C2247 1.409 . S
C2241 H2233 0.930 . S
C2241 C2239 1.419 . S
C2241 C2242 1.362 . S
C2242 H2234 0.930 . S
C2242 C2241 1.362 . S
C2242 C2245 1.409 . S
C2243 H2235 0.930 . S
C2243 C2244 1.355 . S
C2243 C2245 1.415 . S
C2244 C2243 1.355 . S
C2244 C2246 1.419 . S
C2245 C2240 1.425 . S
C2245 C2242 1.409 . S
C2245 C2243 1.415 . S
C2246 H2236 0.930 . S
C2246 C2244 1.419 . S
C2246 C2247 1.362 . S
C2247 H2237 0.930 . S
C2247 C2240 1.409 . S
C2247 C2246 1.362 . S
H2248 C2254 0.930 . S
H2249 C2257 0.930 . S
H2250 C2258 0.930 . S
H2251 C2259 0.930 . S
H2252 C2262 0.930 . S
H2253 C2263 0.930 . S
C2254 H2248 0.930 . S
C2254 C2255 1.355 . S
C2254 C2256 1.415 . S
C2255 C2254 1.355 . S
C2255 C2257 1.419 . S
C2256 C2254 1.415 . S
C2256 C2261 1.425 . S
C2256 C2263 1.409 . S
C2257 H2249 0.930 . S
C2257 C2255 1.419 . S
C2257 C2258 1.362 . S
C2258 H2250 0.930 . S
C2258 C2257 1.362 . S
C2258 C2261 1.409 . S
C2259 H2251 0.930 . S
C2259 C2260 1.355 . S
C2259 C2261 1.415 . S
C2260 C2259 1.355 . S
C2260 C2262 1.419 . S
C2261 C2256 1.425 . S
C2261 C2258 1.409 . S
C2261 C2259 1.415 . S
C2262 H2252 0.930 . S
C2262 C2260 1.419 . S
C2262 C2263 1.362 . S
C2263 H2253 0.930 . S
C2263 C2256 1.409 . S
C2263 C2262 1.362 . S
H2264 C2270 0.930 . S
H2265 C2273 0.930 . S
H2266 C2274 0.930 . S
H2267 C2275 0.930 . S
H2268 C2278 0.930 . S
H2269 C2279 0.930 . S
C2270 H2264 0.930 . S
C2270 C2271 1.355 . S
C2270 C2272 1.415 . S
C2271 C2270 1.355 . S
C2271 C2273 1.419 . S
C2272 C2270 1.415 . S
C2272 C2277 1.425 . S
C2272 C2279 1.409 . S
C2273 H2265 0.930 . S
C2273 C2271 1.419 . S
C2273 C2274 1.362 . S
C2274 H2266 0.930 . S
C2274 C2273 1.362 . S
C2274 C2277 1.409 . S
C2275 H2267 0.930 . S
C2275 C2276 1.355 . S
C2275 C2277 1.415 . S
C2276 C2275 1.355 . S
C2276 C2278 1.419 . S
C2277 C2272 1.425 . S
C2277 C2274 1.409 . S
C2277 C2275 1.415 . S
C2278 H2268 0.930 . S
C2278 C2276 1.419 . S
C2278 C2279 1.362 . S
C2279 H2269 0.930 . S
C2279 C2272 1.409 . S
C2279 C2278 1.362 . S
H2280 C2286 0.930 . S
H2281 C2289 0.930 . S
H2282 C2290 0.930 . S
H2283 C2291 0.930 . S
H2284 C2294 0.930 . S
H2285 C2295 0.930 . S
C2286 H2280 0.930 . S
C2286 C2287 1.355 . S
C2286 C2288 1.415 . S
C2287 C2286 1.355 . S
C2287 C2289 1.419 . S
C2288 C2286 1.415 . S
C2288 C2293 1.425 . S
C2288 C2295 1.409 . S
C2289 H2281 0.930 . S
C2289 C2287 1.419 . S
C2289 C2290 1.362 . S
C2290 H2282 0.930 . S
C2290 C2289 1.362 . S
C2290 C2293 1.409 . S
C2291 H2283 0.930 . S
C2291 C2292 1.355 . S
C2291 C2293 1.415 . S
C2292 C2291 1.355 . S
C2292 C2294 1.419 . S
C2293 C2288 1.425 . S
C2293 C2290 1.409 . S
C2293 C2291 1.415 . S
C2294 H2284 0.930 . S
C2294 C2292 1.419 . S
C2294 C2295 1.362 . S
C2295 H2285 0.930 . S
C2295 C2288 1.409 . S
C2295 C2294 1.362 . S
H2296 C2302 0.930 . S
H2297 C2305 0.930 . S
H2298 C2306 0.930 . S
H2299 C2307 0.930 . S
H2300 C2310 0.930 . S
H2301 C2311 0.930 . S
C2302 H2296 0.930 . S
C2302 C2303 1.355 . S
C2302 C2304 1.415 . S
C2303 C2302 1.355 . S
C2303 C2305 1.419 . S
C2304 C2302 1.415 . S
C2304 C2309 1.425 . S
C2304 C2311 1.409 . S
C2305 H2297 0.930 . S
C2305 C2303 1.419 . S
C2305 C2306 1.362 . S
C2306 H2298 0.930 . S
C2306 C2305 1.362 . S
C2306 C2309 1.409 . S
C2307 H2299 0.930 . S
C2307 C2308 1.355 . S
C2307 C2309 1.415 . S
C2308 C2307 1.355 . S
C2308 C2310 1.419 . S
C2309 C2304 1.425 . S
C2309 C2306 1.409 . S
C2309 C2307 1.415 . S
C2310 H2300 0.930 . S
C2310 C2308 1.419 . S
C2310 C2311 1.362 . S
C2311 H2301 0.930 . S
C2311 C2304 1.409 . S
C2311 C2310 1.362 . S
H2312 C2318 0.930 . S
H2313 C2321 0.930 . S
H2314 C2322 0.930 . S
H2315 C2323 0.930 . S
H2316 C2326 0.930 . S
H2317 C2327 0.930 . S
C2318 H2312 0.930 . S
C2318 C2319 1.355 . S
C2318 C2320 1.415 . S
C2319 C2318 1.355 . S
C2319 C2321 1.419 . S
C2320 C2318 1.415 . S
C2320 C2325 1.425 . S
C2320 C2327 1.409 . S
C2321 H2313 0.930 . S
C2321 C2319 1.419 . S
C2321 C2322 1.362 . S
C2322 H2314 0.930 . S
C2322 C2321 1.362 . S
C2322 C2325 1.409 . S
C2323 H2315 0.930 . S
C2323 C2324 1.355 . S
C2323 C2325 1.415 . S
C2324 C2323 1.355 . S
C2324 C2326 1.419 . S
C2325 C2320 1.425 . S
C2325 C2322 1.409 . S
C2325 C2323 1.415 . S
C2326 H2316 0.930 . S
C2326 C2324 1.419 . S
C2326 C2327 1.362 . S
C2327 H2317 0.930 . S
C2327 C2320 1.409 . S
C2327 C2326 1.362 . S
H2328 C2334 0.930 . S
H2329 C2337 0.930 . S
H2330 C2338 0.930 . S
H2331 C2339 0.930 . S
H2332 C2342 0.930 . S
H2333 C2343 0.930 . S
C2334 H2328 0.930 . S
C2334 C2335 1.355 . S
C2334 C2336 1.415 . S
C2335 C2334 1.355 . S
C2335 C2337 1.419 . S
C2336 C2334 1.415 . S
C2336 C2341 1.425 . S
C2336 C2343 1.409 . S
C2337 H2329 0.930 . S
C2337 C2335 1.419 . S
C2337 C2338 1.362 . S
C2338 H2330 0.930 . S
C2338 C2337 1.362 . S
C2338 C2341 1.409 . S
C2339 H2331 0.930 . S
C2339 C2340 1.355 . S
C2339 C2341 1.415 . S
C2340 C2339 1.355 . S
C2340 C2342 1.419 . S
C2341 C2336 1.425 . S
C2341 C2338 1.409 . S
C2341 C2339 1.415 . S
C2342 H2332 0.930 . S
C2342 C2340 1.419 . S
C2342 C2343 1.362 . S
C2343 H2333 0.930 . S
C2343 C2336 1.409 . S
C2343 C2342 1.362 . S
H2344 C2350 0.930 . S
H2345 C2353 0.930 . S
H2346 C2354 0.930 . S
H2347 C2355 0.930 . S
H2348 C2358 0.930 . S
H2349 C2359 0.930 . S
C2350 H2344 0.930 . S
C2350 C2351 1.355 . S
C2350 C2352 1.415 . S
C2351 C2350 1.355 . S
C2351 C2353 1.419 . S
C2352 C2350 1.415 . S
C2352 C2357 1.425 . S
C2352 C2359 1.409 . S
C2353 H2345 0.930 . S
C2353 C2351 1.419 . S
C2353 C2354 1.362 . S
C2354 H2346 0.930 . S
C2354 C2353 1.362 . S
C2354 C2357 1.409 . S
C2355 H2347 0.930 . S
C2355 C2356 1.355 . S
C2355 C2357 1.415 . S
C2356 C2355 1.355 . S
C2356 C2358 1.419 . S
C2357 C2352 1.425 . S
C2357 C2354 1.409 . S
C2357 C2355 1.415 . S
C2358 H2348 0.930 . S
C2358 C2356 1.419 . S
C2358 C2359 1.362 . S
C2359 H2349 0.930 . S
C2359 C2352 1.409 . S
C2359 C2358 1.362 . S
H2360 C2366 0.930 . S
H2361 C2369 0.930 . S
H2362 C2370 0.930 . S
H2363 C2371 0.930 . S
H2364 C2374 0.930 . S
H2365 C2375 0.930 . S
C2366 H2360 0.930 . S
C2366 C2367 1.355 . S
C2366 C2368 1.415 . S
C2367 C2366 1.355 . S
C2367 C2369 1.419 . S
C2368 C2366 1.415 . S
C2368 C2373 1.425 . S
C2368 C2375 1.409 . S
C2369 H2361 0.930 . S
C2369 C2367 1.419 . S
C2369 C2370 1.362 . S
C2370 H2362 0.930 . S
C2370 C2369 1.362 . S
C2370 C2373 1.409 . S
C2371 H2363 0.930 . S
C2371 C2372 1.355 . S
C2371 C2373 1.415 . S
C2372 C2371 1.355 . S
C2372 C2374 1.419 . S
C2373 C2368 1.425 . S
C2373 C2370 1.409 . S
C2373 C2371 1.415 . S
C2374 H2364 0.930 . S
C2374 C2372 1.419 . S
C2374 C2375 1.362 . S
C2375 H2365 0.930 . S
C2375 C2368 1.409 . S
C2375 C2374 1.362 . S
H2376 C2382 0.930 . S
H2377 C2385 0.930 . S
H2378 C2386 0.913 1_545 S
H2379 C2387 0.930 . S
H2380 C2390 0.930 . S
H2381 C2391 0.883 1_565 S
C2382 H2376 0.930 . S
C2382 C2383 1.355 . S
C2382 C2384 1.415 . S
C2383 C2382 1.355 . S
C2383 C2385 1.419 . S
C2384 C2382 1.415 . S
C2384 C2389 1.425 1_565 S
C2384 C2391 1.394 1_565 S
C2385 H2377 0.930 . S
C2385 C2383 1.419 . S
C2385 C2386 1.386 . S
C2386 H2378 0.913 1_565 S
C2386 C2385 1.386 . S
C2386 C2389 1.403 1_565 S
C2387 H2379 0.930 . S
C2387 C2388 1.355 . S
C2387 C2389 1.415 . S
C2388 C2387 1.355 . S
C2388 C2390 1.419 . S
C2389 C2384 1.425 1_545 S
C2389 C2386 1.403 1_545 S
C2389 C2387 1.415 . S
C2390 H2380 0.930 . S
C2390 C2388 1.419 . S
C2390 C2391 1.427 . S
C2391 H2381 0.883 1_545 S
C2391 C2384 1.394 1_545 S
C2391 C2390 1.427 . S
H2392 C2398 0.930 . S
H2393 C2401 0.930 . S
H2394 C2402 0.930 . S
H2395 C2403 0.930 . S
H2396 C2406 0.930 . S
H2397 C2407 0.930 . S
C2398 H2392 0.930 . S
C2398 C2399 1.355 . S
C2398 C2400 1.411 . S
C2399 C2398 1.355 . S
C2399 C2401 1.419 . S
C2400 C2398 1.411 . S
C2400 C2405 1.429 . S
C2400 C2407 1.412 1_655 S
C2401 H2393 0.930 . S
C2401 C2399 1.419 . S
C2401 C2402 1.362 . S
C2402 H2394 0.930 . S
C2402 C2401 1.362 . S
C2402 C2405 1.429 . S
C2403 H2395 0.930 . S
C2403 C2404 1.355 . S
C2403 C2405 1.393 1_455 S
C2404 C2403 1.355 . S
C2404 C2406 1.419 . S
C2405 C2400 1.429 . S
C2405 C2402 1.429 . S
C2405 C2403 1.393 1_655 S
C2406 H2396 0.930 . S
C2406 C2404 1.419 . S
C2406 C2407 1.362 . S
C2407 H2397 0.930 . S
C2407 C2400 1.412 1_455 S
C2407 C2406 1.362 . S
H2408 C2414 0.930 . S
H2409 C2417 0.930 . S
H2410 C2418 0.930 . S
H2411 C2419 0.930 . S
H2412 C2422 0.930 . S
H2413 C2423 0.930 . S
C2414 H2408 0.930 . S
C2414 C2415 1.355 . S
C2414 C2416 1.415 . S
C2415 C2414 1.355 . S
C2415 C2417 1.419 . S
C2416 C2414 1.415 . S
C2416 C2421 1.425 . S
C2416 C2423 1.409 . S
C2417 H2409 0.930 . S
C2417 C2415 1.419 . S
C2417 C2418 1.362 . S
C2418 H2410 0.930 . S
C2418 C2417 1.362 . S
C2418 C2421 1.409 . S
C2419 H2411 0.930 . S
C2419 C2420 1.355 . S
C2419 C2421 1.415 . S
C2420 C2419 1.355 . S
C2420 C2422 1.419 . S
C2421 C2416 1.425 . S
C2421 C2418 1.409 . S
C2421 C2419 1.415 . S
C2422 H2412 0.930 . S
C2422 C2420 1.419 . S
C2422 C2423 1.362 . S
C2423 H2413 0.930 . S
C2423 C2416 1.409 . S
C2423 C2422 1.362 . S
H2424 C2430 0.930 . S
H2425 C2433 0.930 . S
H2426 C2434 0.930 . S
H2427 C2435 0.930 . S
H2428 C2438 0.930 . S
H2429 C2439 0.930 . S
C2430 H2424 0.930 . S
C2430 C2431 1.355 . S
C2430 C2432 1.415 . S
C2431 C2430 1.355 . S
C2431 C2433 1.419 . S
C2432 C2430 1.415 . S
C2432 C2437 1.425 1_545 S
C2432 C2439 1.409 1_545 S
C2433 H2425 0.930 . S
C2433 C2431 1.419 . S
C2433 C2434 1.362 . S
C2434 H2426 0.930 . S
C2434 C2433 1.362 . S
C2434 C2437 1.409 1_545 S
C2435 H2427 0.930 . S
C2435 C2436 1.355 . S
C2435 C2437 1.415 . S
C2436 C2435 1.355 . S
C2436 C2438 1.419 . S
C2437 C2432 1.425 1_565 S
C2437 C2434 1.409 1_565 S
C2437 C2435 1.415 . S
C2438 H2428 0.930 . S
C2438 C2436 1.419 . S
C2438 C2439 1.362 . S
C2439 H2429 0.930 . S
C2439 C2432 1.409 1_565 S
C2439 C2438 1.362 . S
H2440 C2446 0.930 . S
H2441 C2449 0.930 . S
H2442 C2450 0.930 1_455 S
H2443 C2451 0.930 . S
H2444 C2454 0.930 . S
H2445 C2455 0.930 1_655 S
C2446 H2440 0.930 . S
C2446 C2447 1.355 . S
C2446 C2448 1.415 . S
C2447 C2446 1.355 . S
C2447 C2449 1.419 . S
C2448 C2446 1.415 . S
C2448 C2453 1.425 1_655 S
C2448 C2455 1.409 1_655 S
C2449 H2441 0.930 . S
C2449 C2447 1.419 . S
C2449 C2450 1.362 . S
C2450 H2442 0.930 1_655 S
C2450 C2449 1.362 . S
C2450 C2453 1.409 1_655 S
C2451 H2443 0.930 . S
C2451 C2452 1.355 . S
C2451 C2453 1.415 . S
C2452 C2451 1.355 . S
C2452 C2454 1.419 . S
C2453 C2448 1.425 1_455 S
C2453 C2450 1.409 1_455 S
C2453 C2451 1.415 . S
C2454 H2444 0.930 . S
C2454 C2452 1.419 . S
C2454 C2455 1.362 . S
C2455 H2445 0.930 1_455 S
C2455 C2448 1.409 1_455 S
C2455 C2454 1.362 . S
H2456 C2462 0.930 . S
H2457 C2465 0.930 . S
H2458 C2466 0.930 . S
H2459 C2467 0.930 . S
H2460 C2470 0.930 . S
H2461 C2471 0.930 . S
C2462 H2456 0.930 . S
C2462 C2463 1.355 . S
C2462 C2464 1.415 . S
C2463 C2462 1.355 . S
C2463 C2465 1.419 . S
C2464 C2462 1.415 . S
C2464 C2469 1.425 . S
C2464 C2471 1.409 . S
C2465 H2457 0.930 . S
C2465 C2463 1.419 . S
C2465 C2466 1.362 . S
C2466 H2458 0.930 . S
C2466 C2465 1.362 . S
C2466 C2469 1.409 . S
C2467 H2459 0.930 . S
C2467 C2468 1.355 . S
C2467 C2469 1.415 . S
C2468 C2467 1.355 . S
C2468 C2470 1.419 . S
C2469 C2464 1.425 . S
C2469 C2466 1.409 . S
C2469 C2467 1.415 . S
C2470 H2460 0.930 . S
C2470 C2468 1.419 . S
C2470 C2471 1.362 . S
C2471 H2461 0.930 . S
C2471 C2464 1.409 . S
C2471 C2470 1.362 . S
H2472 C2478 0.930 . S
H2473 C2481 0.930 . S
H2474 C2482 0.930 . S
H2475 C2483 0.930 . S
H2476 C2486 0.930 . S
H2477 C2487 0.930 . S
C2478 H2472 0.930 . S
C2478 C2479 1.355 . S
C2478 C2480 1.415 . S
C2479 C2478 1.355 . S
C2479 C2481 1.419 . S
C2480 C2478 1.415 . S
C2480 C2485 1.425 . S
C2480 C2487 1.409 . S
C2481 H2473 0.930 . S
C2481 C2479 1.419 . S
C2481 C2482 1.362 . S
C2482 H2474 0.930 . S
C2482 C2481 1.362 . S
C2482 C2485 1.409 . S
C2483 H2475 0.930 . S
C2483 C2484 1.355 . S
C2483 C2485 1.415 . S
C2484 C2483 1.355 . S
C2484 C2486 1.419 . S
C2485 C2480 1.425 . S
C2485 C2482 1.409 . S
C2485 C2483 1.415 . S
C2486 H2476 0.930 . S
C2486 C2484 1.419 . S
C2486 C2487 1.362 . S
C2487 H2477 0.930 . S
C2487 C2480 1.409 . S
C2487 C2486 1.362 . S
H2488 C2494 0.930 . S
H2489 C2497 0.930 . S
H2490 C2498 0.930 . S
H2491 C2499 0.930 . S
H2492 C2502 0.930 . S
H2493 C2503 0.930 . S
C2494 H2488 0.930 . S
C2494 C2495 1.355 . S
C2494 C2496 1.415 . S
C2495 C2494 1.355 . S
C2495 C2497 1.419 . S
C2496 C2494 1.415 . S
C2496 C2501 1.425 . S
C2496 C2503 1.409 . S
C2497 H2489 0.930 . S
C2497 C2495 1.419 . S
C2497 C2498 1.362 . S
C2498 H2490 0.930 . S
C2498 C2497 1.362 . S
C2498 C2501 1.409 . S
C2499 H2491 0.930 . S
C2499 C2500 1.355 . S
C2499 C2501 1.415 . S
C2500 C2499 1.355 . S
C2500 C2502 1.419 . S
C2501 C2496 1.425 . S
C2501 C2498 1.409 . S
C2501 C2499 1.415 . S
C2502 H2492 0.930 . S
C2502 C2500 1.419 . S
C2502 C2503 1.362 . S
C2503 H2493 0.930 . S
C2503 C2496 1.409 . S
C2503 C2502 1.362 . S
H2504 C2510 0.930 . S
H2505 C2513 0.930 . S
H2506 C2514 0.930 . S
H2507 C2515 0.930 . S
H2508 C2518 0.930 . S
H2509 C2519 0.930 . S
C2510 H2504 0.930 . S
C2510 C2511 1.355 . S
C2510 C2512 1.415 . S
C2511 C2510 1.355 . S
C2511 C2513 1.419 . S
C2512 C2510 1.415 . S
C2512 C2517 1.425 . S
C2512 C2519 1.409 . S
C2513 H2505 0.930 . S
C2513 C2511 1.419 . S
C2513 C2514 1.362 . S
C2514 H2506 0.930 . S
C2514 C2513 1.362 . S
C2514 C2517 1.409 . S
C2515 H2507 0.930 . S
C2515 C2516 1.355 . S
C2515 C2517 1.415 . S
C2516 C2515 1.355 . S
C2516 C2518 1.419 . S
C2517 C2512 1.425 . S
C2517 C2514 1.409 . S
C2517 C2515 1.415 . S
C2518 H2508 0.930 . S
C2518 C2516 1.419 . S
C2518 C2519 1.362 . S
C2519 H2509 0.930 . S
C2519 C2512 1.409 . S
C2519 C2518 1.362 . S
H2520 C2526 0.930 . S
H2521 C2529 0.930 . S
H2522 C2530 0.930 . S
H2523 C2531 0.930 . S
H2524 C2534 0.930 1_556 S
H2525 C2535 0.930 . S
C2526 H2520 0.930 . S
C2526 C2527 1.355 . S
C2526 C2528 1.415 . S
C2527 C2526 1.355 . S
C2527 C2529 1.419 . S
C2528 C2526 1.415 . S
C2528 C2533 1.425 . S
C2528 C2535 1.409 . S
C2529 H2521 0.930 . S
C2529 C2527 1.419 . S
C2529 C2530 1.362 . S
C2530 H2522 0.930 . S
C2530 C2529 1.362 . S
C2530 C2533 1.409 . S
C2531 H2523 0.930 . S
C2531 C2532 1.355 . S
C2531 C2533 1.415 . S
C2532 C2531 1.355 . S
C2532 C2534 1.419 . S
C2533 C2528 1.425 . S
C2533 C2530 1.409 . S
C2533 C2531 1.415 . S
C2534 H2524 0.930 1_554 S
C2534 C2532 1.419 . S
C2534 C2535 1.362 . S
C2535 H2525 0.930 . S
C2535 C2528 1.409 . S
C2535 C2534 1.362 . S
H2536 C2542 0.930 1_556 S
H2537 C2545 0.930 . S
H2538 C2546 0.930 . S
H2539 C2547 0.930 . S
H2540 C2550 0.930 . S
H2541 C2551 0.930 1_556 S
C2542 H2536 0.930 1_554 S
C2542 C2543 1.355 . S
C2542 C2544 1.415 . S
C2543 C2542 1.355 . S
C2543 C2545 1.419 . S
C2544 C2542 1.415 . S
C2544 C2549 1.425 . S
C2544 C2551 1.409 . S
C2545 H2537 0.930 . S
C2545 C2543 1.419 . S
C2545 C2546 1.362 . S
C2546 H2538 0.930 . S
C2546 C2545 1.362 . S
C2546 C2549 1.409 . S
C2547 H2539 0.930 . S
C2547 C2548 1.355 . S
C2547 C2549 1.415 . S
C2548 C2547 1.355 . S
C2548 C2550 1.419 . S
C2549 C2544 1.425 . S
C2549 C2546 1.409 . S
C2549 C2547 1.415 . S
C2550 H2540 0.930 . S
C2550 C2548 1.419 . S
C2550 C2551 1.362 . S
C2551 H2541 0.930 1_554 S
C2551 C2544 1.409 . S
C2551 C2550 1.362 . S
H2552 C2558 0.930 . S
H2553 C2561 0.930 . S
H2554 C2562 0.930 . S
H2555 C2563 0.930 . S
H2556 C2566 0.930 1_556 S
H2557 C2567 0.930 . S
C2558 H2552 0.930 . S
C2558 C2559 1.355 . S
C2558 C2560 1.415 . S
C2559 C2558 1.355 . S
C2559 C2561 1.419 . S
C2560 C2558 1.415 . S
C2560 C2565 1.425 . S
C2560 C2567 1.409 . S
C2561 H2553 0.930 . S
C2561 C2559 1.419 . S
C2561 C2562 1.362 . S
C2562 H2554 0.930 . S
C2562 C2561 1.362 . S
C2562 C2565 1.409 . S
C2563 H2555 0.930 . S
C2563 C2564 1.355 . S
C2563 C2565 1.415 . S
C2564 C2563 1.355 . S
C2564 C2566 1.419 . S
C2565 C2560 1.425 . S
C2565 C2562 1.409 . S
C2565 C2563 1.415 . S
C2566 H2556 0.930 1_554 S
C2566 C2564 1.419 . S
C2566 C2567 1.362 . S
C2567 H2557 0.930 . S
C2567 C2560 1.409 . S
C2567 C2566 1.362 . S
H2568 C2574 0.930 1_554 S
H2569 C2577 0.930 . S
H2570 C2578 0.930 . S
H2571 C2579 0.930 . S
H2572 C2582 0.930 . S
H2573 C2583 0.930 . S
C2574 H2568 0.930 1_556 S
C2574 C2575 1.355 . S
C2574 C2576 1.415 . S
C2575 C2574 1.355 . S
C2575 C2577 1.419 . S
C2576 C2574 1.415 . S
C2576 C2581 1.425 . S
C2576 C2583 1.409 . S
C2577 H2569 0.930 . S
C2577 C2575 1.419 . S
C2577 C2578 1.362 . S
C2578 H2570 0.930 . S
C2578 C2577 1.362 . S
C2578 C2581 1.409 . S
C2579 H2571 0.930 . S
C2579 C2580 1.355 . S
C2579 C2581 1.415 . S
C2580 C2579 1.355 . S
C2580 C2582 1.419 . S
C2581 C2576 1.425 . S
C2581 C2578 1.409 . S
C2581 C2579 1.415 . S
C2582 H2572 0.930 . S
C2582 C2580 1.419 . S
C2582 C2583 1.362 . S
C2583 H2573 0.930 . S
C2583 C2576 1.409 . S
C2583 C2582 1.362 . S
H2584 C2590 0.930 . S
H2585 C2593 0.930 . S
H2586 C2594 0.930 1_554 S
H2587 C2595 0.930 . S
H2588 C2598 0.930 . S
H2589 C2599 0.930 . S
C2590 H2584 0.930 . S
C2590 C2591 1.355 . S
C2590 C2592 1.415 . S
C2591 C2590 1.355 . S
C2591 C2593 1.419 1_556 S
C2592 C2590 1.415 . S
C2592 C2597 1.425 . S
C2592 C2599 1.409 . S
C2593 H2585 0.930 . S
C2593 C2591 1.419 1_554 S
C2593 C2594 1.362 1_554 S
C2594 H2586 0.930 1_556 S
C2594 C2593 1.362 1_556 S
C2594 C2597 1.409 . S
C2595 H2587 0.930 . S
C2595 C2596 1.355 . S
C2595 C2597 1.415 . S
C2596 C2595 1.355 . S
C2596 C2598 1.419 . S
C2597 C2592 1.425 . S
C2597 C2594 1.409 . S
C2597 C2595 1.415 . S
C2598 H2588 0.930 . S
C2598 C2596 1.419 . S
C2598 C2599 1.362 . S
C2599 H2589 0.930 . S
C2599 C2592 1.409 . S
C2599 C2598 1.362 . S
H2600 C2606 0.930 . S
H2601 C2609 0.930 . S
H2602 C2610 0.930 . S
H2603 C2611 0.930 . S
H2604 C2614 0.930 . S
H2605 C2615 0.930 1_554 S
C2606 H2600 0.930 . S
C2606 C2607 1.355 . S
C2606 C2608 1.415 . S
C2607 C2606 1.355 . S
C2607 C2609 1.419 . S
C2608 C2606 1.415 . S
C2608 C2613 1.425 . S
C2608 C2615 1.409 . S
C2609 H2601 0.930 . S
C2609 C2607 1.419 . S
C2609 C2610 1.362 . S
C2610 H2602 0.930 . S
C2610 C2609 1.362 . S
C2610 C2613 1.409 . S
C2611 H2603 0.930 . S
C2611 C2612 1.355 . S
C2611 C2613 1.415 . S
C2612 C2611 1.355 . S
C2612 C2614 1.419 1_556 S
C2613 C2608 1.425 . S
C2613 C2610 1.409 . S
C2613 C2611 1.415 . S
C2614 H2604 0.930 . S
C2614 C2612 1.419 1_554 S
C2614 C2615 1.362 1_554 S
C2615 H2605 0.930 1_556 S
C2615 C2608 1.409 . S
C2615 C2614 1.362 1_556 S
H2616 C2622 0.930 . S
H2617 C2625 0.930 . S
H2618 C2626 0.930 . S
H2619 C2627 0.930 . S
H2620 C2630 0.930 . S
H2621 C2631 0.930 . S
C2622 H2616 0.930 . S
C2622 C2623 1.355 . S
C2622 C2624 1.415 . S
C2623 C2622 1.355 . S
C2623 C2625 1.419 . S
C2624 C2622 1.415 . S
C2624 C2629 1.425 . S
C2624 C2631 1.409 . S
C2625 H2617 0.930 . S
C2625 C2623 1.419 . S
C2625 C2626 1.362 . S
C2626 H2618 0.930 . S
C2626 C2625 1.362 . S
C2626 C2629 1.409 . S
C2627 H2619 0.930 . S
C2627 C2628 1.355 . S
C2627 C2629 1.415 . S
C2628 C2627 1.355 . S
C2628 C2630 1.419 . S
C2629 C2624 1.425 . S
C2629 C2626 1.409 . S
C2629 C2627 1.415 . S
C2630 H2620 0.930 . S
C2630 C2628 1.419 . S
C2630 C2631 1.362 . S
C2631 H2621 0.930 . S
C2631 C2624 1.409 . S
C2631 C2630 1.362 . S
H2632 C2638 0.930 . S
H2633 C2641 0.930 . S
H2634 C2642 0.930 . S
H2635 C2643 0.930 . S
H2636 C2646 0.930 . S
H2637 C2647 0.930 . S
C2638 H2632 0.930 . S
C2638 C2639 1.355 . S
C2638 C2640 1.415 . S
C2639 C2638 1.355 . S
C2639 C2641 1.419 . S
C2640 C2638 1.415 . S
C2640 C2645 1.425 . S
C2640 C2647 1.409 . S
C2641 H2633 0.930 . S
C2641 C2639 1.419 . S
C2641 C2642 1.362 . S
C2642 H2634 0.930 . S
C2642 C2641 1.362 . S
C2642 C2645 1.409 . S
C2643 H2635 0.930 . S
C2643 C2644 1.355 . S
C2643 C2645 1.415 . S
C2644 C2643 1.355 . S
C2644 C2646 1.419 . S
C2645 C2640 1.425 . S
C2645 C2642 1.409 . S
C2645 C2643 1.415 . S
C2646 H2636 0.930 . S
C2646 C2644 1.419 . S
C2646 C2647 1.362 . S
C2647 H2637 0.930 . S
C2647 C2640 1.409 . S
C2647 C2646 1.362 . S
H2648 C2654 0.930 . S
H2649 C2657 0.930 . S
H2650 C2658 0.930 . S
H2651 C2659 0.930 . S
H2652 C2662 0.930 . S
H2653 C2663 0.930 . S
C2654 H2648 0.930 . S
C2654 C2655 1.355 . S
C2654 C2656 1.415 . S
C2655 C2654 1.355 . S
C2655 C2657 1.419 . S
C2656 C2654 1.415 . S
C2656 C2661 1.425 . S
C2656 C2663 1.409 . S
C2657 H2649 0.930 . S
C2657 C2655 1.419 . S
C2657 C2658 1.362 . S
C2658 H2650 0.930 . S
C2658 C2657 1.362 . S
C2658 C2661 1.409 . S
C2659 H2651 0.930 . S
C2659 C2660 1.355 . S
C2659 C2661 1.415 . S
C2660 C2659 1.355 . S
C2660 C2662 1.419 . S
C2661 C2656 1.425 . S
C2661 C2658 1.409 . S
C2661 C2659 1.415 . S
C2662 H2652 0.930 . S
C2662 C2660 1.419 . S
C2662 C2663 1.362 . S
C2663 H2653 0.930 . S
C2663 C2656 1.409 . S
C2663 C2662 1.362 . S
C1231 C549 1.394 . S
C1236 C5 1.414 . S
C1247 C583 1.418 . S
C1252 C39 1.393 . S
C1263 C73 1.440 . S
C1268 C515 1.382 . S
C1279 C889 1.431 . S
C1284 C107 1.417 . S
C1295 C821 1.439 . S
C1300 C141 1.405 . S
C1311 C855 1.409 . S
C1316 C175 1.437 . S
C1327 C1161 1.433 . S
C1332 C209 1.404 1_554 S
C1343 C243 1.439 . S
C1348 C1195 1.382 . S
C1359 C277 1.443 . S
C1364 C1127 1.394 . S
C1375 C311 1.428 . S
C1380 C685 1.390 . S
C1391 C617 1.409 . S
C1396 C345 1.407 . S
C1407 C379 1.445 . S
C1412 C651 1.389 . S
C1423 C957 1.349 . S
C1428 C413 1.357 . S
C1439 C447 1.323 . S
C1444 C991 1.327 . S
C1455 C481 1.347 . S
C1460 C923 1.358 . S
C1471 C1093 1.307 . S
C1476 C719 1.355 . S
C1487 C753 1.325 . S
C1492 C1025 1.326 . S
C1503 C787 1.319 . S
C1508 C1059 1.332 . S
C1519 C2 0.613 . S
C1524 C614 0.614 . S
C1535 C648 0.585 . S
C1540 C36 0.587 . S
C1551 C682 0.728 . S
C1556 C70 0.726 . S
C1567 C104 0.707 . S
C1572 C1124 0.708 . S
C1583 C138 0.726 . S
C1588 C1158 0.727 . S
C1599 C172 0.693 . S
C1604 C1192 0.693 . S
C1615 C206 0.702 . S
C1620 C818 0.702 . S
C1631 C240 0.737 . S
C1636 C852 0.740 . S
C1647 C274 0.576 . S
C1652 C886 0.575 . S
C1663 C512 0.713 . S
C1668 C308 0.713 . S
C1679 C342 0.713 . S
C1684 C546 0.714 . S
C1695 C580 0.604 . S
C1700 C376 0.604 . S
C1711 C410 0.779 . S
C1716 C1022 0.779 . S
C1727 C444 0.693 . S
C1732 C1056 0.693 . S
C1743 C1090 0.661 . S
C1748 C478 0.661 . S
C1759 C920 0.805 . S
C1764 C716 0.806 . S
C1775 C954 0.780 . S
C1780 C750 0.781 . S
C1791 C988 0.718 . S
C1796 C784 0.719 . S
C1807 C33 1.210 . S
C1812 C349 1.243 . S
C1823 C67 1.245 . S
C1828 C383 1.231 . S
C1839 C315 1.199 . S
C1844 C101 1.248 . S
C1855 C135 1.229 . S
C1860 C281 1.174 . S
C1871 C213 1.191 . S
C1876 C169 1.195 . S
C1887 C247 1.246 . S
C1892 C203 1.213 . S
C1903 C145 1.173 . S
C1908 C237 1.203 . S
C1919 C179 1.198 . S
C1924 C271 1.186 . S
C1935 C305 1.249 . S
C1940 C111 1.208 . S
C1951 C339 1.246 . S
C1956 C77 1.237 . S
C1967 C9 1.174 . S
C1972 C373 1.228 . S
C1983 C407 1.201 . S
C1988 C43 1.237 . S
C1999 C441 1.301 . S
C2004 C757 1.275 . S
C2015 C475 1.254 . S
C2020 C791 1.284 . S
C2031 C723 1.233 . S
C2036 C509 1.295 . S
C2047 C543 1.224 . S
C2052 C689 1.171 . S
C2063 C577 1.241 . S
C2068 C621 1.181 . S
C2079 C611 1.192 . S
C2084 C655 1.198 . S
C2095 C645 1.213 . S
C2100 C553 1.247 . S
C2111 C679 1.261 . S
C2116 C587 1.238 . S
C2127 C519 1.182 . S
C2132 C713 1.232 . S
C2143 C485 1.171 . S
C2148 C747 1.129 . S
C2159 C417 1.100 . S
C2164 C781 1.138 . S
C2175 C451 1.172 . S
C2180 C815 1.163 . S
C2191 C1165 1.210 . S
C2196 C849 1.262 . S
C2207 C1199 1.183 . S
C2212 C883 1.238 . S
C2223 C1131 1.183 . S
C2228 C917 1.240 . S
C2239 C1097 1.171 . S
C2244 C951 1.129 . S
C2255 C985 1.159 . S
C2260 C1029 1.098 . S
C2271 C1063 1.167 . S
C2276 C1019 1.168 . S
C2287 C961 1.287 . S
C2292 C1053 1.297 . S
C2303 C995 1.257 . S
C2308 C1087 1.305 . S
C2319 C927 1.281 . S
C2324 C1121 1.256 . S
C2335 C1155 1.208 . S
C2340 C893 1.242 . S
C2351 C825 1.232 . S
C2356 C1189 1.247 . S
C2367 C859 1.170 . S
C2372 C1223 1.220 . S
C2383 C190 1.076 . S
C2388 C20 1.076 . S
C2399 C54 1.054 . S
C2404 C122 1.051 . S
C2415 C156 1.049 . S
C2420 C88 1.049 . S
C2431 C394 1.060 . S
C2436 C224 1.065 . S
C2447 C326 1.072 . S
C2452 C258 1.075 . S
C2463 C360 1.062 . S
C2468 C292 1.067 . S
C2479 C598 1.071 . S
C2484 C428 1.065 . S
C2495 C530 1.064 . S
C2500 C462 1.060 . S
C2511 C564 1.065 . S
C2516 C496 1.066 . S
C2527 C632 1.104 . S
C2532 C802 1.108 . S
C2543 C734 1.072 . S
C2548 C666 1.077 . S
C2559 C700 1.104 . S
C2564 C768 1.108 . S
C2575 C1006 1.090 . S
C2580 C836 1.087 . S
C2591 C938 1.096 . S
C2596 C870 1.102 . S
C2607 C904 1.105 . S
C2612 C972 1.108 . S
C2623 C1210 1.086 . S
C2628 C1040 1.090 . S
C2639 C1142 1.081 . S
C2644 C1074 1.076 . S
C2655 C1176 1.065 . S
C2660 C1108 1.066 . S
