# Generated by pormake.
# Topology umj, (4)-cn, num edge types: 1
# Building blocks:
#     Node 0, Type 0, BuildingBlock: QUQFOY_clean_sbu_1, # of connection points: 4
#     Node 1, Type 0, BuildingBlock: QUQFOY_clean_sbu_1, # of connection points: 4
#     Node 2, Type 0, BuildingBlock: QUQFOY_clean_sbu_1, # of connection points: 4
#     Node 3, Type 0, BuildingBlock: QUQFOY_clean_sbu_1, # of connection points: 4
#     Node 4, Type 0, BuildingBlock: QUQFOY_clean_sbu_1, # of connection points: 4
#     Node 5, Type 0, BuildingBlock: QUQFOY_clean_sbu_1, # of connection points: 4
#     Node 6, Type 0, BuildingBlock: QUQFOY_clean_sbu_1, # of connection points: 4
#     Node 7, Type 0, BuildingBlock: QUQFOY_clean_sbu_1, # of connection points: 4
#     Node 8, Type 0, BuildingBlock: QUQFOY_clean_sbu_1, # of connection points: 4
#     Node 9, Type 0, BuildingBlock: QUQFOY_clean_sbu_1, # of connection points: 4
#     Node 10, Type 0, BuildingBlock: QUQFOY_clean_sbu_1, # of connection points: 4
#     Node 11, Type 0, BuildingBlock: QUQFOY_clean_sbu_1, # of connection points: 4
#     Edge 12, Type (0, 0), BuildingBlock: OJICUG_clean_linker_0, # of connection points: 2
#     Edge 13, Type (0, 0), BuildingBlock: OJICUG_clean_linker_0, # of connection points: 2
#     Edge 14, Type (0, 0), BuildingBlock: OJICUG_clean_linker_0, # of connection points: 2
#     Edge 15, Type (0, 0), BuildingBlock: OJICUG_clean_linker_0, # of connection points: 2
#     Edge 16, Type (0, 0), BuildingBlock: OJICUG_clean_linker_0, # of connection points: 2
#     Edge 17, Type (0, 0), BuildingBlock: OJICUG_clean_linker_0, # of connection points: 2
#     Edge 18, Type (0, 0), BuildingBlock: OJICUG_clean_linker_0, # of connection points: 2
#     Edge 19, Type (0, 0), BuildingBlock: OJICUG_clean_linker_0, # of connection points: 2
#     Edge 20, Type (0, 0), BuildingBlock: OJICUG_clean_linker_0, # of connection points: 2
#     Edge 21, Type (0, 0), BuildingBlock: OJICUG_clean_linker_0, # of connection points: 2
#     Edge 22, Type (0, 0), BuildingBlock: OJICUG_clean_linker_0, # of connection points: 2
#     Edge 23, Type (0, 0), BuildingBlock: OJICUG_clean_linker_0, # of connection points: 2
#     Edge 24, Type (0, 0), BuildingBlock: OJICUG_clean_linker_0, # of connection points: 2
#     Edge 25, Type (0, 0), BuildingBlock: OJICUG_clean_linker_0, # of connection points: 2
#     Edge 26, Type (0, 0), BuildingBlock: OJICUG_clean_linker_0, # of connection points: 2
#     Edge 27, Type (0, 0), BuildingBlock: OJICUG_clean_linker_0, # of connection points: 2
#     Edge 28, Type (0, 0), BuildingBlock: OJICUG_clean_linker_0, # of connection points: 2
#     Edge 29, Type (0, 0), BuildingBlock: OJICUG_clean_linker_0, # of connection points: 2
#     Edge 30, Type (0, 0), BuildingBlock: OJICUG_clean_linker_0, # of connection points: 2
#     Edge 31, Type (0, 0), BuildingBlock: OJICUG_clean_linker_0, # of connection points: 2
#     Edge 32, Type (0, 0), BuildingBlock: OJICUG_clean_linker_0, # of connection points: 2
#     Edge 33, Type (0, 0), BuildingBlock: OJICUG_clean_linker_0, # of connection points: 2
#     Edge 34, Type (0, 0), BuildingBlock: OJICUG_clean_linker_0, # of connection points: 2
#     Edge 35, Type (0, 0), BuildingBlock: OJICUG_clean_linker_0, # of connection points: 2
# Relax obj value: 0.082
# Max RMSD: 0.260
# Mean RMSD: 0.260
data_MOF--net-umj--node1-QUQFOY_clean_sbu_1--edge1-OJICUG_clean_linker_0
_symmetry_space_group_name_H-M    P1
_symmetry_Int_Tables_number       1
_symmetry_cell_setting            triclinic
loop_
_symmetry_equiv_pos_as_xyz
'x, y, z'
_cell_length_a     21.528966
_cell_length_b     21.52917
_cell_length_c     61.012955
_cell_angle_alpha  89.970839
_cell_angle_beta   90.019688
_cell_angle_gamma 120.00148
loop_
_atom_site_label
_atom_site_type_symbol
_atom_site_fract_x
_atom_site_fract_y
_atom_site_fract_z
_atom_type_partial_charge
O0 O 0.98966 0.25444 0.13956 0.0
Cd1 Cd 1.00316 0.26771 0.10711 0.0
Cd2 Cd 0.13436 0.30485 0.11023 0.0
O3 O 0.1067 0.32848 0.14173 0.0
O4 O 0.95415 0.31705 0.09243 0.0
O5 O 0.06544 0.3752 0.10479 0.0
C6 C 1.01295 0.3773 0.09555 0.0
C7 C 0.17897 0.36554 0.07661 0.0
C8 C 0.04478 0.29439 0.15095 0.0
C9 C 0.0557 0.16157 0.09691 0.0
O10 O 0.11146 0.2028 0.10786 0.0
O11 O 1.01034 0.18161 0.09198 0.0
O12 O 0.22229 0.37557 0.09271 0.0
O13 O 0.11162 0.32332 0.07977 0.0
O14 O 0.74957 0.97852 0.47303 0.0
Cd15 Cd 0.74945 0.991 0.44052 0.0
Cd16 Cd 0.84378 0.12219 0.44339 0.0
O17 O 0.79252 0.09559 0.47489 0.0
O18 O 0.65085 0.94143 0.42601 0.0
O19 O 0.70433 0.05324 0.4379 0.0
C20 C 0.64952 1.00038 0.42888 0.0
C21 C 0.82856 0.16698 0.4097 0.0
C22 C 0.76472 0.03391 0.48427 0.0
C23 C 0.90777 0.04269 0.43026 0.0
O24 O 0.92249 0.09858 0.44116 0.0
O25 O 0.84234 0.99746 0.42536 0.0
O26 O 0.8621 0.21028 0.42577 0.0
O27 O 0.80261 0.09955 0.41295 0.0
O28 O 0.78952 0.74426 0.8064 0.0
Cd29 Cd 0.77652 0.74459 0.77393 0.0
Cd30 Cd 0.73947 0.83874 0.77705 0.0
O31 O 0.71538 0.78713 0.80851 0.0
O32 O 0.72737 0.64626 0.75926 0.0
O33 O 0.66907 0.69936 0.7715 0.0
C34 C 0.66708 0.64479 0.7623 0.0
C35 C 0.67892 0.82321 0.74344 0.0
C36 C 0.74938 0.75924 0.81776 0.0
C37 C 0.88278 0.9032 0.76373 0.0
O38 O 0.84164 0.91773 0.77472 0.0
O39 O 0.86266 0.83781 0.75878 0.0
O40 O 0.66906 0.85651 0.75956 0.0
O41 O 0.72089 0.79776 0.74658 0.0
O42 O 0.06597 0.77879 0.13973 0.0
Cd43 Cd 0.05331 0.76622 0.10722 0.0
Cd44 Cd 0.92219 0.72951 0.1102 0.0
O45 O 0.9489 0.70475 0.14168 0.0
O46 O 0.10278 0.71717 0.09268 0.0
O47 O 0.99099 0.65887 0.1046 0.0
C48 C 0.0438 0.6569 0.09556 0.0
C49 C 0.87683 0.66953 0.07655 0.0
C50 C 1.01064 0.7386 0.15101 0.0
C51 C 1.00177 0.87298 0.097 0.0
O52 O 0.94599 0.83189 0.10796 0.0
O53 O 0.04689 0.85268 0.09205 0.0
O54 O 0.83378 0.65995 0.09268 0.0
O55 O 0.94435 0.71077 0.07973 0.0
O56 O 0.30137 0.05459 0.47297 0.0
Cd57 Cd 0.301 0.04098 0.44052 0.0
Cd58 Cd 0.20682 0.90986 0.44373 0.0
O59 O 0.2583 0.93756 0.47521 0.0
O60 O 0.39929 0.08994 0.42583 0.0
O61 O 0.34614 0.97866 0.43819 0.0
C62 C 0.40071 0.03113 0.42894 0.0
C63 C 0.22226 0.86468 0.41015 0.0
C64 C 0.28622 0.99952 0.4844 0.0
C65 C 0.14239 0.98868 0.43034 0.0
O66 O 0.12784 0.93302 0.44136 0.0
O67 O 0.20777 0.0339 0.42537 0.0
O68 O 0.18899 0.8216 0.4263 0.0
O69 O 0.24778 0.93211 0.41325 0.0
O70 O 0.26522 0.2961 0.80624 0.0
Cd71 Cd 0.27808 0.29615 0.77375 0.0
Cd72 Cd 0.31483 0.2018 0.77674 0.0
O73 O 0.33916 0.25296 0.80825 0.0
O74 O 0.32727 0.3947 0.75921 0.0
O75 O 0.38547 0.3412 0.77123 0.0
C76 C 0.38752 0.396 0.76216 0.0
C77 C 0.37498 0.21689 0.74309 0.0
C78 C 0.30523 0.2808 0.81756 0.0
C79 C 0.1714 0.13782 0.76352 0.0
O80 O 0.21254 0.1231 0.77445 0.0
O81 O 0.19164 0.20325 0.75858 0.0
O82 O 0.38465 0.18338 0.7592 0.0
O83 O 0.33354 0.24292 0.74627 0.0
O84 O 0.78776 0.05633 0.58979 0.0
Cd85 Cd 0.77506 0.04375 0.62229 0.0
Cd86 Cd 0.7382 0.91257 0.61943 0.0
O87 O 0.71376 0.93924 0.58789 0.0
O88 O 0.72601 0.09324 0.63681 0.0
O89 O 0.66767 0.98151 0.62485 0.0
C90 C 0.66572 0.03431 0.63391 0.0
C91 C 0.67804 0.86786 0.65309 0.0
C92 C 0.74765 1.00093 0.57852 0.0
C93 C 0.88166 0.99199 0.6326 0.0
O94 O 0.84047 0.93607 0.62172 0.0
O95 O 0.86148 0.03726 0.63747 0.0
O96 O 0.66826 0.82453 0.63703 0.0
O97 O 0.71964 0.93528 0.64985 0.0
O98 O 0.75065 0.78076 0.92331 0.0
Cd99 Cd 0.75074 0.76773 0.95579 0.0
Cd100 Cd 0.84513 0.73103 0.9527 0.0
O101 O 0.7938 0.70686 0.92121 0.0
O102 O 0.65225 0.71851 0.97035 0.0
O103 O 0.70568 0.66034 0.95828 0.0
C104 C 0.65092 0.65827 0.96737 0.0
C105 C 0.83024 0.67052 0.98627 0.0
C106 C 0.7659 0.74083 0.91195 0.0
C107 C 0.90908 0.87439 0.966 0.0
O108 O 0.92378 0.83334 0.95502 0.0
O109 O 0.84367 0.85408 0.97096 0.0
O110 O 0.86371 0.66108 0.97012 0.0
O111 O 0.80416 0.71196 0.98317 0.0
O112 O 0.98863 0.73939 0.25653 0.0
Cd113 Cd 1.00118 0.73921 0.28903 0.0
Cd114 Cd 0.13231 0.83358 0.28614 0.0
O115 O 0.10571 0.78248 0.25461 0.0
O116 O 0.95165 0.6406 0.30353 0.0
O117 O 0.06346 0.69412 0.29162 0.0
C118 C 1.01061 0.63929 0.30064 0.0
C119 C 0.17718 0.8184 0.31983 0.0
C120 C 0.044 0.75468 0.24526 0.0
C121 C 0.05275 0.89748 0.2993 0.0
O122 O 0.10865 0.91225 0.2884 0.0
O123 O 1.00755 0.83203 0.3042 0.0
O124 O 0.22045 0.85198 0.30375 0.0
O125 O 0.10973 0.79235 0.31658 0.0
O126 O 0.26349 0.98028 0.58997 0.0
Cd127 Cd 0.27664 0.99381 0.62243 0.0
Cd128 Cd 0.31358 0.12493 0.6192 0.0
O129 O 0.33759 0.09729 0.58775 0.0
O130 O 0.32592 0.94474 0.6371 0.0
O131 O 0.38408 0.05612 0.62482 0.0
C132 C 0.38617 1.00357 0.63402 0.0
C133 C 0.3741 0.17027 0.65279 0.0
C134 C 0.30355 0.03533 0.57856 0.0
C135 C 0.17029 0.04601 0.63255 0.0
O136 O 0.21138 0.10163 0.62151 0.0
O137 O 0.19048 1.00084 0.63756 0.0
O138 O 0.38385 0.21329 0.63662 0.0
O139 O 0.33232 0.10281 0.6497 0.0
O140 O 0.30233 0.25657 0.92309 0.0
Cd141 Cd 0.30218 0.26938 0.95557 0.0
Cd142 Cd 0.20803 0.30643 0.95256 0.0
O143 O 0.25946 0.33074 0.92108 0.0
O144 O 0.4006 0.31844 0.9702 0.0
O145 O 0.34742 0.37681 0.95805 0.0
C146 C 0.40205 0.37875 0.96721 0.0
C147 C 0.22369 0.36661 0.98624 0.0
C148 C 0.28729 0.29679 0.91178 0.0
C149 C 0.14364 0.16304 0.9658 0.0
O150 O 0.12905 0.20424 0.95485 0.0
O151 O 0.20905 0.18314 0.97072 0.0
O152 O 0.19031 0.37663 0.97017 0.0
O153 O 0.24918 0.32473 0.98301 0.0
O154 O 0.06445 0.29105 0.25651 0.0
Cd155 Cd 0.05096 0.29065 0.28898 0.0
Cd156 Cd 0.9198 0.19648 0.28579 0.0
O157 O 0.94743 0.24811 0.25433 0.0
O158 O 0.10006 0.38895 0.30366 0.0
O159 O 0.98871 0.33585 0.29136 0.0
C160 C 0.04125 0.39041 0.30058 0.0
C161 C 0.87464 0.21191 0.31937 0.0
C162 C 1.00936 0.27603 0.24512 0.0
C163 C 0.99865 0.13204 0.29915 0.0
O164 O 0.94299 0.11751 0.28814 0.0
O165 O 0.04388 0.19741 0.30412 0.0
O166 O 0.83154 0.17863 0.30323 0.0
O167 O 0.94207 0.2374 0.31627 0.0
C168 C 0.9581 0.26005 0.20716 0.0
C169 C 1.01793 0.28819 0.22108 0.0
H170 H 0.9197 0.24035 0.17415 0.0
C171 C 0.08704 0.32418 0.21169 0.0
H172 H 0.90424 0.23226 0.21381 0.0
C173 C 0.09609 0.32902 0.18892 0.0
C174 C 0.03625 0.2977 0.175 0.0
H175 H 0.13449 0.3471 0.22193 0.0
H176 H 0.14995 0.35506 0.18228 0.0
C177 C 0.96715 0.26461 0.18439 0.0
C178 C 0.78123 0.08617 0.52209 0.0
C179 C 0.75287 0.02598 0.50833 0.0
H180 H 0.80141 0.12542 0.55501 0.0
C181 C 0.71697 0.95712 0.5179 0.0
H182 H 0.80895 0.13986 0.51531 0.0
C183 C 0.71245 0.94866 0.54069 0.0
C184 C 0.74399 1.00886 0.55446 0.0
H185 H 0.6939 0.90941 0.50778 0.0
H186 H 0.68648 0.89498 0.54747 0.0
C187 C 0.77698 0.07771 0.54489 0.0
C188 C 0.77885 0.71118 0.85123 0.0
C189 C 0.74567 0.74706 0.8418 0.0
H190 H 0.8108 0.68038 0.88069 0.0
C191 C 0.71376 0.77505 0.85568 0.0
H192 H 0.80355 0.68839 0.84103 0.0
C193 C 0.7181 0.77045 0.87845 0.0
C194 C 0.75417 0.73748 0.88789 0.0
H195 H 0.68762 0.80274 0.849 0.0
H196 H 0.69474 0.7946 0.88867 0.0
C197 C 0.78291 0.70631 0.87401 0.0
C198 C 0.95857 0.70284 0.18886 0.0
C199 C 1.0187 0.73472 0.17507 0.0
H200 H 0.91945 0.68376 0.22179 0.0
C201 C 0.08761 0.76778 0.1846 0.0
H202 H 0.90486 0.6768 0.18211 0.0
C203 C 0.09616 0.77176 0.20739 0.0
C204 C 0.03602 0.74306 0.22119 0.0
H205 H 0.13527 0.79247 0.17446 0.0
H206 H 0.14987 0.79955 0.21415 0.0
C207 C 0.96713 0.70709 0.21165 0.0
C208 C 0.33872 0.08645 0.54057 0.0
C209 C 0.30708 0.02668 0.55452 0.0
H210 H 0.35731 0.12471 0.50754 0.0
C211 C 0.27396 0.95753 0.54516 0.0
H212 H 0.3648 0.14034 0.54719 0.0
C213 C 0.26968 0.94839 0.5224 0.0
C214 C 0.29814 1.00816 0.50845 0.0
H215 H 0.24946 0.91013 0.55543 0.0
H216 H 0.24185 0.8945 0.51578 0.0
C217 C 0.33417 0.07731 0.51781 0.0
C218 C 0.27575 0.3284 0.85111 0.0
C219 C 0.3087 0.2924 0.84162 0.0
H220 H 0.2436 0.3587 0.88061 0.0
C221 C 0.33997 0.26361 0.85546 0.0
H222 H 0.25154 0.3518 0.84093 0.0
C223 C 0.33521 0.26755 0.87825 0.0
C224 C 0.29935 0.30065 0.88773 0.0
H225 H 0.36589 0.23578 0.84874 0.0
H226 H 0.35807 0.2428 0.88842 0.0
C227 C 0.27128 0.33262 0.87389 0.0
C228 C 0.15595 0.39689 0.03937 0.0
C229 C 0.20373 0.39239 0.05419 0.0
H230 H 0.12595 0.39429 1.00572 0.0
C231 C 0.26714 0.39765 0.04615 0.0
H232 H 0.10686 0.39362 0.0452 0.0
C233 C 0.27767 0.39745 1.02354 0.0
C234 C 0.22542 0.39295 1.0087 0.0
H235 H 0.30481 0.3943 0.05718 0.0
H236 H 0.32372 0.39459 1.01769 0.0
C237 C 0.16696 0.39766 1.01675 0.0
C238 C 0.88573 0.2551 0.37928 0.0
C239 C 0.82721 0.19178 0.38723 0.0
H240 H 0.9462 0.31166 0.35092 0.0
C241 C 0.77523 0.14416 0.37231 0.0
H242 H 0.92651 0.29266 0.39038 0.0
C243 C 0.7861 0.15522 0.34971 0.0
C244 C 0.84957 0.21357 0.34177 0.0
H245 H 0.72913 0.09515 0.37807 0.0
H246 H 0.74863 0.11432 0.33862 0.0
C247 C 0.89706 0.26569 0.35668 0.0
C248 C 0.64761 0.76929 0.70615 0.0
C249 C 0.65221 0.82146 0.72103 0.0
H250 H 0.65017 0.74219 0.67248 0.0
C251 C 0.64713 0.8798 0.71305 0.0
H252 H 0.65074 0.72333 0.71195 0.0
C253 C 0.64738 0.89078 0.69044 0.0
C254 C 0.65177 0.8431 0.67555 0.0
H255 H 0.65054 0.92073 0.72411 0.0
H256 H 0.65034 0.93979 0.68464 0.0
C257 C 0.64691 0.7798 0.68355 0.0
C258 C 0.78823 0.6387 0.04628 0.0
C259 C 0.85168 0.64349 0.0541 0.0
H260 H 0.73115 0.64254 1.01804 0.0
C261 C 0.89904 0.63913 0.03908 0.0
H262 H 0.75086 0.64193 0.05745 0.0
C263 C 0.88758 0.63892 1.0165 0.0
C264 C 0.82907 0.644 1.00868 0.0
H265 H 0.94814 0.64203 0.04474 0.0
H266 H 0.92826 0.6423 1.00533 0.0
C267 C 0.77724 0.63942 1.0237 0.0
C268 C 0.26533 0.87569 0.35023 0.0
C269 C 0.20202 0.81713 0.3423 0.0
H270 H 0.32192 0.93623 0.37856 0.0
C271 C 0.15444 0.76517 0.35724 0.0
H272 H 0.30286 0.91647 0.33912 0.0
C273 C 0.16554 0.77609 0.37984 0.0
C274 C 0.22389 0.83959 0.38775 0.0
H275 H 0.10544 0.71904 0.35149 0.0
H276 H 0.12468 0.73862 0.39094 0.0
C277 C 0.27595 0.88707 0.37283 0.0
C278 C 0.40528 0.14805 0.69016 0.0
C279 C 0.40071 0.19546 0.67519 0.0
H280 H 0.40272 0.11879 0.72389 0.0
C281 C 0.40578 0.25896 0.68307 0.0
H282 H 0.40216 0.0989 0.68446 0.0
C283 C 0.40553 0.26996 0.70566 0.0
C284 C 0.40115 0.21808 0.72064 0.0
H285 H 0.40239 0.29636 0.67193 0.0
H286 H 0.40259 0.31609 0.71137 0.0
C287 C 0.40598 0.15952 0.71275 0.0
C288 C 0.96794 0.52487 0.08952 0.0
C289 C 0.03665 0.5864 0.09052 0.0
H290 H 0.90628 0.4099 0.08993 0.0
C291 C 0.09713 0.5781 0.0896 0.0
H292 H 0.92021 0.52971 0.08994 0.0
C293 C 0.08898 0.50941 0.08972 0.0
C294 C 1.02024 0.44787 0.09052 0.0
H295 H 0.15063 0.62438 0.09027 0.0
H296 H 0.13669 0.50457 0.09028 0.0
C297 C 0.95979 0.45619 0.0894 0.0
C298 C 0.51733 0.94695 0.423 0.0
C299 C 0.58611 1.00746 0.42386 0.0
H300 H 0.40424 0.90736 0.42376 0.0
C301 C 0.59326 0.07615 0.42282 0.0
H302 H 0.51015 0.89348 0.42372 0.0
C303 C 0.53271 0.08427 0.42272 0.0
C304 C 0.46396 0.02382 0.4239 0.0
H305 H 0.64582 0.12389 0.42319 0.0
H306 H 0.53992 0.13778 0.42321 0.0
C307 C 0.45678 0.95508 0.42314 0.0
C308 C 0.51961 0.4522 0.75625 0.0
C309 C 0.45806 0.45936 0.75716 0.0
H310 H 0.63458 0.50554 0.75675 0.0
C311 C 0.46636 0.52814 0.75619 0.0
H312 H 0.51479 0.39965 0.7567 0.0
C313 C 0.53503 0.58869 0.75634 0.0
C314 C 0.59658 0.5815 0.75723 0.0
H315 H 0.42006 0.53534 0.7568 0.0
H316 H 0.53985 0.64123 0.75687 0.0
C317 C 0.58829 0.51275 0.75616 0.0
C318 C 0.5183 0.07955 0.63984 0.0
C319 C 0.45673 1.01082 0.63904 0.0
H320 H 0.63326 0.14116 0.63925 0.0
C321 C 0.46503 0.95035 0.64011 0.0
H322 H 0.51348 0.12728 0.63929 0.0
C323 C 0.5337 0.95847 0.63996 0.0
C324 C 0.59524 0.02718 0.63897 0.0
H325 H 0.41872 0.89685 0.63958 0.0
H326 H 0.5385 0.91073 0.63952 0.0
C327 C 0.58697 0.08767 0.63992 0.0
C328 C 0.45823 0.51078 0.9732 0.0
C329 C 0.46538 0.44922 0.97228 0.0
H330 H 0.51161 0.62575 0.97278 0.0
C331 C 0.53413 0.45748 0.97331 0.0
H332 H 0.40569 0.50598 0.9727 0.0
C333 C 0.5947 0.52615 0.97324 0.0
C334 C 0.58756 0.58771 0.97237 0.0
H335 H 0.54131 0.41117 0.97269 0.0
H336 H 0.64724 0.53094 0.97276 0.0
C337 C 0.51879 0.57944 0.97337 0.0
C338 C 0.9572 0.50711 0.30657 0.0
C339 C 1.01771 0.57588 0.30566 0.0
H340 H 0.91756 0.39402 0.30586 0.0
C341 C 0.0864 0.58301 0.30664 0.0
H342 H 0.90372 0.49995 0.3059 0.0
C343 C 0.0945 0.52244 0.30675 0.0
C344 C 0.03401 0.4537 0.30563 0.0
H345 H 0.13415 0.63555 0.30623 0.0
H346 H 0.14799 0.52962 0.30621 0.0
C347 C 0.96529 0.44655 0.30643 0.0
C348 C 0.97134 0.03051 0.09075 0.0
C349 C 0.04175 0.08842 0.09182 0.0
H350 H 0.90355 0.91634 0.09154 0.0
C351 C 0.09912 0.07455 0.0911 0.0
H352 H 0.92611 0.03945 0.09131 0.0
C353 C 0.08632 1.00407 0.09091 0.0
C354 C 1.01588 0.94617 0.09187 0.0
H355 H 0.15409 0.11825 0.09174 0.0
H356 H 0.13152 0.99512 0.09159 0.0
C357 C 0.95853 0.96004 0.09099 0.0
C358 C 0.03809 0.08589 0.42429 0.0
C359 C 0.96685 0.02856 0.42517 0.0
H360 H 0.14991 0.11828 0.42466 0.0
C361 C 0.95431 0.95811 0.42426 0.0
H362 H 0.04938 0.14088 0.42482 0.0
C363 C 1.01196 0.94529 0.42449 0.0
C364 C 0.08321 1.00265 0.42521 0.0
H365 H 0.90014 0.91292 0.42494 0.0
H366 H 1.00068 0.89032 0.42516 0.0
C367 C 0.09574 0.07307 0.4241 0.0
C368 C 0.08426 1.00752 0.75756 0.0
C369 C 0.09816 0.07876 0.75845 0.0
H370 H 1.00484 0.89571 0.75796 0.0
C371 C 0.04025 0.0913 0.75758 0.0
H372 H 0.12797 0.99624 0.75804 0.0
C373 C 0.96978 0.03364 0.75786 0.0
C374 C 0.9559 0.96239 0.75858 0.0
H375 H 0.04923 0.14546 0.75828 0.0
H376 H 0.92609 0.04492 0.75857 0.0
C377 C 1.01378 0.94987 0.75741 0.0
C378 C 0.96878 0.94882 0.63862 0.0
C379 C 0.95488 1.00615 0.6377 0.0
H380 H 0.04821 0.91643 0.63828 0.0
C381 C 1.01278 0.0766 0.63859 0.0
H382 H 0.92508 0.89383 0.63812 0.0
C383 C 0.08326 0.08942 0.63836 0.0
C384 C 0.09715 0.03206 0.63767 0.0
H385 H 1.00382 0.12179 0.63788 0.0
H386 H 0.12695 0.14439 0.63766 0.0
C387 C 0.03926 0.96165 0.63882 0.0
C388 C 0.03938 0.96154 0.97195 0.0
C389 C 0.96814 0.94761 0.97108 0.0
H390 H 0.15119 0.04098 0.97154 0.0
C391 C 0.95557 1.0055 0.97196 0.0
H392 H 0.05068 0.91784 0.97146 0.0
C393 C 1.01322 0.07599 0.97168 0.0
C394 C 0.08447 0.08989 0.97095 0.0
H395 H 0.9014 0.99651 0.97127 0.0
H396 H 1.00191 0.11966 0.97097 0.0
C397 C 0.09702 0.03202 0.9721 0.0
C398 C 0.09587 0.02776 0.30528 0.0
C399 C 0.03855 0.95652 0.30438 0.0
H400 H 0.12823 0.13957 0.30492 0.0
C401 C 0.96809 0.94395 0.30524 0.0
H402 H 0.15087 0.03907 0.3048 0.0
C403 C 0.95525 1.00159 0.30499 0.0
C404 C 1.0126 0.07285 0.30429 0.0
H405 H 0.92291 0.88978 0.30453 0.0
H406 H 0.90028 0.99029 0.30427 0.0
C407 C 0.08302 0.0854 0.30545 0.0
loop_
_geom_bond_atom_site_label_1
_geom_bond_atom_site_label_2
_geom_bond_distance
_geom_bond_site_symmetry_2
_ccdc_geom_bond_type
O0 Cd1 2.223 1_455 S
O0 C8 1.315 . S
Cd1 O0 2.223 1_655 S
Cd1 O4 2.297 . S
Cd1 O5 2.439 1_655 S
Cd1 O11 2.240 1_655 S
Cd2 O3 2.240 . S
Cd2 O10 2.223 . S
Cd2 O12 2.297 . S
Cd2 O13 2.439 . S
O3 Cd2 2.240 . S
O3 C8 1.279 . S
O4 Cd1 2.297 . S
O4 C6 1.247 . S
O5 Cd1 2.439 1_455 S
O5 C6 1.208 1_455 S
C6 O4 1.247 . S
C6 O5 1.208 1_655 S
C7 O12 1.247 . S
C7 O13 1.208 . S
C8 O0 1.315 . S
C8 O3 1.279 . S
C9 O10 1.315 . S
C9 O11 1.279 . S
O10 Cd2 2.223 . S
O10 C9 1.315 . S
O11 Cd1 2.240 1_455 S
O11 C9 1.279 . S
O12 Cd2 2.297 . S
O12 C7 1.247 . S
O13 Cd2 2.439 . S
O13 C7 1.208 . S
O14 Cd15 2.223 1_545 S
O14 C22 1.315 . S
Cd15 O14 2.223 1_565 S
Cd15 O18 2.297 . S
Cd15 O19 2.439 1_565 S
Cd15 O25 2.240 1_565 S
Cd16 O17 2.240 . S
Cd16 O24 2.223 . S
Cd16 O26 2.297 . S
Cd16 O27 2.439 . S
O17 Cd16 2.240 . S
O17 C22 1.279 . S
O18 Cd15 2.297 . S
O18 C20 1.247 . S
O19 Cd15 2.439 1_545 S
O19 C20 1.208 1_545 S
C20 O18 1.247 . S
C20 O19 1.208 1_565 S
C21 O26 1.247 . S
C21 O27 1.208 . S
C22 O14 1.315 . S
C22 O17 1.279 . S
C23 O24 1.315 . S
C23 O25 1.279 . S
O24 Cd16 2.223 . S
O24 C23 1.315 . S
O25 Cd15 2.240 1_545 S
O25 C23 1.279 . S
O26 Cd16 2.297 . S
O26 C21 1.247 . S
O27 Cd16 2.439 . S
O27 C21 1.208 . S
O28 Cd29 2.223 . S
O28 C36 1.315 . S
Cd29 O28 2.223 . S
Cd29 O32 2.297 . S
Cd29 O33 2.439 . S
Cd29 O39 2.240 . S
Cd30 O31 2.240 . S
Cd30 O38 2.223 . S
Cd30 O40 2.297 . S
Cd30 O41 2.439 . S
O31 Cd30 2.240 . S
O31 C36 1.279 . S
O32 Cd29 2.297 . S
O32 C34 1.247 . S
O33 Cd29 2.439 . S
O33 C34 1.208 . S
C34 O32 1.247 . S
C34 O33 1.208 . S
C35 O40 1.247 . S
C35 O41 1.208 . S
C36 O28 1.315 . S
C36 O31 1.279 . S
C37 O38 1.315 . S
C37 O39 1.279 . S
O38 Cd30 2.223 . S
O38 C37 1.315 . S
O39 Cd29 2.240 . S
O39 C37 1.279 . S
O40 Cd30 2.297 . S
O40 C35 1.247 . S
O41 Cd30 2.439 . S
O41 C35 1.208 . S
O42 Cd43 2.223 1_655 S
O42 C50 1.315 . S
Cd43 O42 2.223 1_455 S
Cd43 O46 2.297 . S
Cd43 O47 2.439 1_455 S
Cd43 O53 2.240 1_455 S
Cd44 O45 2.240 . S
Cd44 O52 2.223 . S
Cd44 O54 2.297 . S
Cd44 O55 2.439 . S
O45 Cd44 2.240 . S
O45 C50 1.279 . S
O46 Cd43 2.297 . S
O46 C48 1.247 . S
O47 Cd43 2.439 1_655 S
O47 C48 1.208 1_655 S
C48 O46 1.247 . S
C48 O47 1.208 1_455 S
C49 O54 1.247 . S
C49 O55 1.208 . S
C50 O42 1.315 . S
C50 O45 1.279 . S
C51 O52 1.315 . S
C51 O53 1.279 . S
O52 Cd44 2.223 . S
O52 C51 1.315 . S
O53 Cd43 2.240 1_655 S
O53 C51 1.279 . S
O54 Cd44 2.297 . S
O54 C49 1.247 . S
O55 Cd44 2.439 . S
O55 C49 1.208 . S
O56 Cd57 2.223 1_565 S
O56 C64 1.315 . S
Cd57 O56 2.223 1_545 S
Cd57 O60 2.297 . S
Cd57 O61 2.439 1_545 S
Cd57 O67 2.240 1_545 S
Cd58 O59 2.240 . S
Cd58 O66 2.223 . S
Cd58 O68 2.297 . S
Cd58 O69 2.439 . S
O59 Cd58 2.240 . S
O59 C64 1.279 . S
O60 Cd57 2.297 . S
O60 C62 1.247 . S
O61 Cd57 2.439 1_565 S
O61 C62 1.208 1_565 S
C62 O60 1.247 . S
C62 O61 1.208 1_545 S
C63 O68 1.247 . S
C63 O69 1.208 . S
C64 O56 1.315 . S
C64 O59 1.279 . S
C65 O66 1.315 . S
C65 O67 1.279 . S
O66 Cd58 2.223 . S
O66 C65 1.315 . S
O67 Cd57 2.240 1_565 S
O67 C65 1.279 . S
O68 Cd58 2.297 . S
O68 C63 1.247 . S
O69 Cd58 2.439 . S
O69 C63 1.208 . S
O70 Cd71 2.223 . S
O70 C78 1.315 . S
Cd71 O70 2.223 . S
Cd71 O74 2.297 . S
Cd71 O75 2.439 . S
Cd71 O81 2.240 . S
Cd72 O73 2.240 . S
Cd72 O80 2.223 . S
Cd72 O82 2.297 . S
Cd72 O83 2.439 . S
O73 Cd72 2.240 . S
O73 C78 1.279 . S
O74 Cd71 2.297 . S
O74 C76 1.247 . S
O75 Cd71 2.439 . S
O75 C76 1.208 . S
C76 O74 1.247 . S
C76 O75 1.208 . S
C77 O82 1.247 . S
C77 O83 1.208 . S
C78 O70 1.315 . S
C78 O73 1.279 . S
C79 O80 1.315 . S
C79 O81 1.279 . S
O80 Cd72 2.223 . S
O80 C79 1.315 . S
O81 Cd71 2.240 . S
O81 C79 1.279 . S
O82 Cd72 2.297 . S
O82 C77 1.247 . S
O83 Cd72 2.439 . S
O83 C77 1.208 . S
O84 Cd85 2.223 1_565 S
O84 C92 1.315 . S
Cd85 O84 2.223 1_545 S
Cd85 O88 2.297 . S
Cd85 O89 2.439 1_545 S
Cd85 O95 2.240 1_545 S
Cd86 O87 2.240 . S
Cd86 O94 2.223 . S
Cd86 O96 2.297 . S
Cd86 O97 2.439 . S
O87 Cd86 2.240 . S
O87 C92 1.279 . S
O88 Cd85 2.297 . S
O88 C90 1.247 . S
O89 Cd85 2.439 1_565 S
O89 C90 1.208 1_565 S
C90 O88 1.247 . S
C90 O89 1.208 1_545 S
C91 O96 1.247 . S
C91 O97 1.208 . S
C92 O84 1.315 . S
C92 O87 1.279 . S
C93 O94 1.315 . S
C93 O95 1.279 . S
O94 Cd86 2.223 . S
O94 C93 1.315 . S
O95 Cd85 2.240 1_565 S
O95 C93 1.279 . S
O96 Cd86 2.297 . S
O96 C91 1.247 . S
O97 Cd86 2.439 . S
O97 C91 1.208 . S
O98 Cd99 2.223 . S
O98 C106 1.315 . S
Cd99 O98 2.223 . S
Cd99 O102 2.297 . S
Cd99 O103 2.439 . S
Cd99 O109 2.240 . S
Cd100 O101 2.240 . S
Cd100 O108 2.223 . S
Cd100 O110 2.297 . S
Cd100 O111 2.439 . S
O101 Cd100 2.240 . S
O101 C106 1.279 . S
O102 Cd99 2.297 . S
O102 C104 1.247 . S
O103 Cd99 2.439 . S
O103 C104 1.208 . S
C104 O102 1.247 . S
C104 O103 1.208 . S
C105 O110 1.247 . S
C105 O111 1.208 . S
C106 O98 1.315 . S
C106 O101 1.279 . S
C107 O108 1.315 . S
C107 O109 1.279 . S
O108 Cd100 2.223 . S
O108 C107 1.315 . S
O109 Cd99 2.240 . S
O109 C107 1.279 . S
O110 Cd100 2.297 . S
O110 C105 1.247 . S
O111 Cd100 2.439 . S
O111 C105 1.208 . S
O112 Cd113 2.223 1_455 S
O112 C120 1.315 . S
Cd113 O112 2.223 1_655 S
Cd113 O116 2.297 . S
Cd113 O117 2.439 1_655 S
Cd113 O123 2.240 1_655 S
Cd114 O115 2.240 . S
Cd114 O122 2.223 . S
Cd114 O124 2.297 . S
Cd114 O125 2.439 . S
O115 Cd114 2.240 . S
O115 C120 1.279 . S
O116 Cd113 2.297 . S
O116 C118 1.247 . S
O117 Cd113 2.439 1_455 S
O117 C118 1.208 1_455 S
C118 O116 1.247 . S
C118 O117 1.208 1_655 S
C119 O124 1.247 . S
C119 O125 1.208 . S
C120 O112 1.315 . S
C120 O115 1.279 . S
C121 O122 1.315 . S
C121 O123 1.279 . S
O122 Cd114 2.223 . S
O122 C121 1.315 . S
O123 Cd113 2.240 1_455 S
O123 C121 1.279 . S
O124 Cd114 2.297 . S
O124 C119 1.247 . S
O125 Cd114 2.439 . S
O125 C119 1.208 . S
O126 Cd127 2.223 1_545 S
O126 C134 1.315 . S
Cd127 O126 2.223 1_565 S
Cd127 O130 2.297 . S
Cd127 O131 2.439 1_565 S
Cd127 O137 2.240 1_565 S
Cd128 O129 2.240 . S
Cd128 O136 2.223 . S
Cd128 O138 2.297 . S
Cd128 O139 2.439 . S
O129 Cd128 2.240 . S
O129 C134 1.279 . S
O130 Cd127 2.297 . S
O130 C132 1.247 . S
O131 Cd127 2.439 1_545 S
O131 C132 1.208 1_545 S
C132 O130 1.247 . S
C132 O131 1.208 1_565 S
C133 O138 1.247 . S
C133 O139 1.208 . S
C134 O126 1.315 . S
C134 O129 1.279 . S
C135 O136 1.315 . S
C135 O137 1.279 . S
O136 Cd128 2.223 . S
O136 C135 1.315 . S
O137 Cd127 2.240 1_545 S
O137 C135 1.279 . S
O138 Cd128 2.297 . S
O138 C133 1.247 . S
O139 Cd128 2.439 . S
O139 C133 1.208 . S
O140 Cd141 2.223 . S
O140 C148 1.315 . S
Cd141 O140 2.223 . S
Cd141 O144 2.297 . S
Cd141 O145 2.439 . S
Cd141 O151 2.240 . S
Cd142 O143 2.240 . S
Cd142 O150 2.223 . S
Cd142 O152 2.297 . S
Cd142 O153 2.439 . S
O143 Cd142 2.240 . S
O143 C148 1.279 . S
O144 Cd141 2.297 . S
O144 C146 1.247 . S
O145 Cd141 2.439 . S
O145 C146 1.208 . S
C146 O144 1.247 . S
C146 O145 1.208 . S
C147 O152 1.247 . S
C147 O153 1.208 . S
C148 O140 1.315 . S
C148 O143 1.279 . S
C149 O150 1.315 . S
C149 O151 1.279 . S
O150 Cd142 2.223 . S
O150 C149 1.315 . S
O151 Cd141 2.240 . S
O151 C149 1.279 . S
O152 Cd142 2.297 . S
O152 C147 1.247 . S
O153 Cd142 2.439 . S
O153 C147 1.208 . S
O154 Cd155 2.223 1_655 S
O154 C162 1.315 . S
Cd155 O154 2.223 1_455 S
Cd155 O158 2.297 . S
Cd155 O159 2.439 1_455 S
Cd155 O165 2.240 1_455 S
Cd156 O157 2.240 . S
Cd156 O164 2.223 . S
Cd156 O166 2.297 . S
Cd156 O167 2.439 . S
O157 Cd156 2.240 . S
O157 C162 1.279 . S
O158 Cd155 2.297 . S
O158 C160 1.247 . S
O159 Cd155 2.439 1_655 S
O159 C160 1.208 1_655 S
C160 O158 1.247 . S
C160 O159 1.208 1_455 S
C161 O166 1.247 . S
C161 O167 1.208 . S
C162 O154 1.315 . S
C162 O157 1.279 . S
C163 O164 1.315 . S
C163 O165 1.279 . S
O164 Cd156 2.223 . S
O164 C163 1.315 . S
O165 Cd155 2.240 1_655 S
O165 C163 1.279 . S
O166 Cd156 2.297 . S
O166 C161 1.247 . S
O167 Cd156 2.439 . S
O167 C161 1.208 . S
C168 C169 1.387 . S
C168 H172 0.950 . S
C168 C177 1.390 . S
C169 C168 1.387 . S
C169 C171 1.387 1_655 S
H170 C177 0.950 . S
C171 C169 1.387 1_455 S
C171 C173 1.390 . S
C171 H175 0.950 . S
H172 C168 0.950 . S
C173 C171 1.390 . S
C173 C174 1.387 . S
C173 H176 0.950 . S
C174 C173 1.387 . S
C174 C177 1.387 1_455 S
H175 C171 0.950 . S
H176 C173 0.950 . S
C177 C168 1.390 . S
C177 H170 0.950 . S
C177 C174 1.387 1_655 S
C178 C179 1.387 . S
C178 H182 0.950 . S
C178 C187 1.390 1_545 S
C179 C178 1.387 . S
C179 C181 1.387 . S
H180 C187 0.950 . S
C181 C179 1.387 . S
C181 C183 1.390 1_545 S
C181 H185 0.950 . S
H182 C178 0.950 . S
C183 C181 1.390 1_565 S
C183 C184 1.387 . S
C183 H186 0.950 . S
C184 C183 1.387 . S
C184 C187 1.387 . S
H185 C181 0.950 . S
H186 C183 0.950 . S
C187 C178 1.390 1_565 S
C187 H180 0.950 . S
C187 C184 1.387 . S
C188 C189 1.387 . S
C188 H192 0.950 . S
C188 C197 1.390 . S
C189 C188 1.387 . S
C189 C191 1.387 . S
H190 C197 0.950 . S
C191 C189 1.387 . S
C191 C193 1.390 . S
C191 H195 0.950 . S
H192 C188 0.950 . S
C193 C191 1.390 . S
C193 C194 1.387 . S
C193 H196 0.950 . S
C194 C193 1.387 . S
C194 C197 1.387 . S
H195 C191 0.950 . S
H196 C193 0.950 . S
C197 C188 1.390 . S
C197 H190 0.950 . S
C197 C194 1.387 . S
C198 C199 1.387 . S
C198 H202 0.950 . S
C198 C207 1.390 . S
C199 C198 1.387 . S
C199 C201 1.387 1_655 S
H200 C207 0.950 . S
C201 C199 1.387 1_455 S
C201 C203 1.390 . S
C201 H205 0.950 . S
H202 C198 0.950 . S
C203 C201 1.390 . S
C203 C204 1.387 . S
C203 H206 0.950 . S
C204 C203 1.387 . S
C204 C207 1.387 1_455 S
H205 C201 0.950 . S
H206 C203 0.950 . S
C207 C198 1.390 . S
C207 H200 0.950 . S
C207 C204 1.387 1_655 S
C208 C209 1.387 . S
C208 H212 0.950 . S
C208 C217 1.390 1_545 S
C209 C208 1.387 . S
C209 C211 1.387 . S
H210 C217 0.950 . S
C211 C209 1.387 . S
C211 C213 1.390 1_545 S
C211 H215 0.950 . S
H212 C208 0.950 . S
C213 C211 1.390 1_565 S
C213 C214 1.387 . S
C213 H216 0.950 . S
C214 C213 1.387 . S
C214 C217 1.387 . S
H215 C211 0.950 . S
H216 C213 0.950 . S
C217 C208 1.390 1_565 S
C217 H210 0.950 . S
C217 C214 1.387 . S
C218 C219 1.387 . S
C218 H222 0.950 . S
C218 C227 1.390 . S
C219 C218 1.387 . S
C219 C221 1.387 . S
H220 C227 0.950 . S
C221 C219 1.387 . S
C221 C223 1.390 . S
C221 H225 0.950 . S
H222 C218 0.950 . S
C223 C221 1.390 . S
C223 C224 1.387 . S
C223 H226 0.950 . S
C224 C223 1.387 . S
C224 C227 1.387 . S
H225 C221 0.950 . S
H226 C223 0.950 . S
C227 C218 1.390 . S
C227 H220 0.950 . S
C227 C224 1.387 . S
C228 C229 1.387 . S
C228 H232 0.950 . S
C228 C237 1.390 1_554 S
C229 C228 1.387 . S
C229 C231 1.387 . S
H230 C237 0.950 . S
C231 C229 1.387 . S
C231 C233 1.390 1_554 S
C231 H235 0.950 . S
H232 C228 0.950 . S
C233 C231 1.390 1_556 S
C233 C234 1.387 . S
C233 H236 0.950 . S
C234 C233 1.387 . S
C234 C237 1.387 . S
H235 C231 0.950 . S
H236 C233 0.950 . S
C237 C228 1.390 1_556 S
C237 H230 0.950 . S
C237 C234 1.387 . S
C238 C239 1.387 . S
C238 H242 0.950 . S
C238 C247 1.390 . S
C239 C238 1.387 . S
C239 C241 1.387 . S
H240 C247 0.950 . S
C241 C239 1.387 . S
C241 C243 1.390 . S
C241 H245 0.950 . S
H242 C238 0.950 . S
C243 C241 1.390 . S
C243 C244 1.387 . S
C243 H246 0.950 . S
C244 C243 1.387 . S
C244 C247 1.387 . S
H245 C241 0.950 . S
H246 C243 0.950 . S
C247 C238 1.390 . S
C247 H240 0.950 . S
C247 C244 1.387 . S
C248 C249 1.387 . S
C248 H252 0.950 . S
C248 C257 1.390 . S
C249 C248 1.387 . S
C249 C251 1.387 . S
H250 C257 0.950 . S
C251 C249 1.387 . S
C251 C253 1.390 . S
C251 H255 0.950 . S
H252 C248 0.950 . S
C253 C251 1.390 . S
C253 C254 1.387 . S
C253 H256 0.950 . S
C254 C253 1.387 . S
C254 C257 1.387 . S
H255 C251 0.950 . S
H256 C253 0.950 . S
C257 C248 1.390 . S
C257 H250 0.950 . S
C257 C254 1.387 . S
C258 C259 1.387 . S
C258 H262 0.950 . S
C258 C267 1.390 1_554 S
C259 C258 1.387 . S
C259 C261 1.387 . S
H260 C267 0.950 . S
C261 C259 1.387 . S
C261 C263 1.390 1_554 S
C261 H265 0.950 . S
H262 C258 0.950 . S
C263 C261 1.390 1_556 S
C263 C264 1.387 . S
C263 H266 0.950 . S
C264 C263 1.387 . S
C264 C267 1.387 . S
H265 C261 0.950 . S
H266 C263 0.950 . S
C267 C258 1.390 1_556 S
C267 H260 0.950 . S
C267 C264 1.387 . S
C268 C269 1.387 . S
C268 H272 0.950 . S
C268 C277 1.390 . S
C269 C268 1.387 . S
C269 C271 1.387 . S
H270 C277 0.950 . S
C271 C269 1.387 . S
C271 C273 1.390 . S
C271 H275 0.950 . S
H272 C268 0.950 . S
C273 C271 1.390 . S
C273 C274 1.387 . S
C273 H276 0.950 . S
C274 C273 1.387 . S
C274 C277 1.387 . S
H275 C271 0.950 . S
H276 C273 0.950 . S
C277 C268 1.390 . S
C277 H270 0.950 . S
C277 C274 1.387 . S
C278 C279 1.387 . S
C278 H282 0.950 . S
C278 C287 1.390 . S
C279 C278 1.387 . S
C279 C281 1.387 . S
H280 C287 0.950 . S
C281 C279 1.387 . S
C281 C283 1.390 . S
C281 H285 0.950 . S
H282 C278 0.950 . S
C283 C281 1.390 . S
C283 C284 1.387 . S
C283 H286 0.950 . S
C284 C283 1.387 . S
C284 C287 1.387 . S
H285 C281 0.950 . S
H286 C283 0.950 . S
C287 C278 1.390 . S
C287 H280 0.950 . S
C287 C284 1.387 . S
C288 C289 1.387 . S
C288 H292 0.950 . S
C288 C297 1.390 1_455 S
C289 C288 1.387 . S
C289 C291 1.387 . S
H290 C297 0.950 . S
C291 C289 1.387 . S
C291 C293 1.390 1_455 S
C291 H295 0.950 . S
H292 C288 0.950 . S
C293 C291 1.390 1_655 S
C293 C294 1.387 . S
C293 H296 0.950 . S
C294 C293 1.387 . S
C294 C297 1.387 . S
H295 C291 0.950 . S
H296 C293 0.950 . S
C297 C288 1.390 1_655 S
C297 H290 0.950 . S
C297 C294 1.387 . S
C298 C299 1.387 . S
C298 H302 0.950 . S
C298 C307 1.390 1_565 S
C299 C298 1.387 . S
C299 C301 1.387 . S
H300 C307 0.950 . S
C301 C299 1.387 . S
C301 C303 1.390 1_565 S
C301 H305 0.950 . S
H302 C298 0.950 . S
C303 C301 1.390 1_545 S
C303 C304 1.387 . S
C303 H306 0.950 . S
C304 C303 1.387 . S
C304 C307 1.387 . S
H305 C301 0.950 . S
H306 C303 0.950 . S
C307 C298 1.390 1_545 S
C307 H300 0.950 . S
C307 C304 1.387 . S
C308 C309 1.387 . S
C308 H312 0.950 . S
C308 C317 1.390 . S
C309 C308 1.387 . S
C309 C311 1.387 . S
H310 C317 0.950 . S
C311 C309 1.387 . S
C311 C313 1.390 . S
C311 H315 0.950 . S
H312 C308 0.950 . S
C313 C311 1.390 . S
C313 C314 1.387 . S
C313 H316 0.950 . S
C314 C313 1.387 . S
C314 C317 1.387 . S
H315 C311 0.950 . S
H316 C313 0.950 . S
C317 C308 1.390 . S
C317 H310 0.950 . S
C317 C314 1.387 . S
C318 C319 1.386 . S
C318 H322 0.949 . S
C318 C327 1.393 1_565 S
C319 C318 1.386 . S
C319 C321 1.387 . S
H320 C327 0.950 . S
C321 C319 1.387 . S
C321 C323 1.389 . S
C321 H325 0.950 . S
H322 C318 0.949 . S
C323 C321 1.389 . S
C323 C324 1.388 1_565 S
C323 H326 0.949 . S
C324 C323 1.388 1_545 S
C324 C327 1.387 . S
H325 C321 0.950 . S
H326 C323 0.949 . S
C327 C318 1.393 1_545 S
C327 H320 0.950 . S
C327 C324 1.387 . S
C328 C329 1.387 . S
C328 H332 0.950 . S
C328 C337 1.390 . S
C329 C328 1.387 . S
C329 C331 1.387 . S
H330 C337 0.950 . S
C331 C329 1.387 . S
C331 C333 1.390 . S
C331 H335 0.950 . S
H332 C328 0.950 . S
C333 C331 1.390 . S
C333 C334 1.387 . S
C333 H336 0.950 . S
C334 C333 1.387 . S
C334 C337 1.387 . S
H335 C331 0.950 . S
H336 C333 0.950 . S
C337 C328 1.390 . S
C337 H330 0.950 . S
C337 C334 1.387 . S
C338 C339 1.387 . S
C338 H342 0.950 . S
C338 C347 1.390 1_655 S
C339 C338 1.387 . S
C339 C341 1.387 . S
H340 C347 0.950 . S
C341 C339 1.387 . S
C341 C343 1.390 1_655 S
C341 H345 0.950 . S
H342 C338 0.950 . S
C343 C341 1.390 1_455 S
C343 C344 1.387 . S
C343 H346 0.950 . S
C344 C343 1.387 . S
C344 C347 1.387 . S
H345 C341 0.950 . S
H346 C343 0.950 . S
C347 C338 1.390 1_455 S
C347 H340 0.950 . S
C347 C344 1.387 . S
C348 C349 1.387 . S
C348 H352 0.948 . S
C348 C357 1.388 1_645 S
C349 C348 1.387 . S
C349 C351 1.387 . S
H350 C357 0.948 . S
C351 C349 1.387 . S
C351 C353 1.388 1_645 S
C351 H355 0.948 . S
H352 C348 0.948 . S
C353 C351 1.388 1_465 S
C353 C354 1.387 . S
C353 H356 0.948 . S
C354 C353 1.387 . S
C354 C357 1.387 . S
H355 C351 0.948 . S
H356 C353 0.948 . S
C357 C348 1.388 1_465 S
C357 H350 0.948 . S
C357 C354 1.387 . S
C358 C359 1.388 . S
C358 H362 0.950 . S
C358 C367 1.390 1_655 S
C359 C358 1.388 . S
C359 C361 1.388 1_545 S
H360 C367 0.950 . S
C361 C359 1.388 1_565 S
C361 C363 1.390 1_655 S
C361 H365 0.950 . S
H362 C358 0.950 . S
C363 C361 1.390 1_455 S
C363 C364 1.388 1_565 S
C363 H366 0.950 . S
C364 C363 1.388 1_545 S
C364 C367 1.391 . S
H365 C361 0.950 . S
H366 C363 0.950 . S
C367 C358 1.390 1_455 S
C367 H360 0.950 . S
C367 C364 1.391 . S
C368 C369 1.387 . S
C368 H372 0.950 . S
C368 C377 1.390 1_445 S
C369 C368 1.387 . S
C369 C371 1.387 . S
H370 C377 0.950 . S
C371 C369 1.387 . S
C371 C373 1.390 1_445 S
C371 H375 0.950 . S
H372 C368 0.950 . S
C373 C371 1.390 1_665 S
C373 C374 1.387 . S
C373 H376 0.950 . S
C374 C373 1.387 . S
C374 C377 1.387 . S
H375 C371 0.950 . S
H376 C373 0.950 . S
C377 C368 1.390 1_665 S
C377 H370 0.950 . S
C377 C374 1.387 . S
C378 C379 1.388 . S
C378 H382 0.950 . S
C378 C387 1.390 1_655 S
C379 C378 1.388 . S
C379 C381 1.387 1_565 S
H380 C387 0.950 . S
C381 C379 1.387 1_545 S
C381 C383 1.390 1_655 S
C381 H385 0.950 . S
H382 C378 0.950 . S
C383 C381 1.390 1_455 S
C383 C384 1.384 1_545 S
C383 H386 0.950 . S
C384 C383 1.384 1_565 S
C384 C387 1.387 . S
H385 C381 0.950 . S
H386 C383 0.950 . S
C387 C378 1.390 1_455 S
C387 H380 0.950 . S
C387 C384 1.387 . S
C388 C389 1.387 . S
C388 H392 0.950 . S
C388 C397 1.390 1_665 S
C389 C388 1.387 . S
C389 C391 1.387 . S
H390 C397 0.950 . S
C391 C389 1.387 . S
C391 C393 1.390 1_665 S
C391 H395 0.950 . S
H392 C388 0.950 . S
C393 C391 1.390 1_445 S
C393 C394 1.387 . S
C393 H396 0.950 . S
C394 C393 1.387 . S
C394 C397 1.387 . S
H395 C391 0.950 . S
H396 C393 0.950 . S
C397 C388 1.390 1_445 S
C397 H390 0.950 . S
C397 C394 1.387 . S
C398 C399 1.388 . S
C398 H402 0.952 . S
C398 C407 1.393 1_665 S
C399 C398 1.388 . S
C399 C401 1.388 . S
H400 C407 0.952 . S
C401 C399 1.388 . S
C401 C403 1.393 1_665 S
C401 H405 0.952 . S
H402 C398 0.952 . S
C403 C401 1.393 1_445 S
C403 C404 1.388 . S
C403 H406 0.952 . S
C404 C403 1.388 . S
C404 C407 1.388 . S
H405 C401 0.952 . S
H406 C403 0.952 . S
C407 C398 1.393 1_445 S
C407 H400 0.952 . S
C407 C404 1.388 . S
C169 C162 1.413 . S
C174 C8 1.412 . S
C179 C22 1.418 . S
C184 C92 1.418 . S
C189 C36 1.415 . S
C194 C106 1.415 . S
C199 C50 1.414 . S
C204 C120 1.413 . S
C209 C134 1.415 . S
C214 C64 1.415 . S
C219 C78 1.416 . S
C224 C148 1.417 . S
C229 C7 1.911 . S
C234 C147 1.911 . S
C239 C21 1.910 . S
C244 C161 1.909 . S
C249 C35 1.909 . S
C254 C91 1.909 . S
C259 C49 1.908 . S
C264 C105 1.908 . S
C269 C119 1.908 . S
C274 C63 1.907 . S
C279 C133 1.909 . S
C284 C77 1.909 . S
C289 C48 1.533 . S
C294 C6 1.533 . S
C299 C20 1.533 . S
C304 C62 1.533 . S
C309 C76 1.533 . S
C314 C34 1.533 . S
C319 C132 1.533 . S
C324 C90 1.533 . S
C329 C146 1.533 . S
C334 C104 1.533 . S
C339 C118 1.533 . S
C344 C160 1.533 . S
C349 C9 1.356 1_655 S
C354 C51 1.357 1_455 S
C359 C23 1.354 . S
C364 C65 1.349 1_545 S
C369 C79 1.356 . S
C374 C37 1.356 . S
C379 C93 1.356 . S
C384 C135 1.357 1_565 S
C389 C107 1.356 . S
C394 C149 1.356 . S
C399 C121 1.350 1_655 S
C404 C163 1.356 1_455 S
