# Generated by pormake.
# Topology smc, (6)-cn, num edge types: 1
# Building blocks:
#     Node 0, Type 0, BuildingBlock: KUMBOL_clean_sbu_0, # of connection points: 6
#     Node 1, Type 0, BuildingBlock: KUMBOL_clean_sbu_0, # of connection points: 6
#     Node 2, Type 0, BuildingBlock: KUMBOL_clean_sbu_0, # of connection points: 6
#     Node 3, Type 0, BuildingBlock: KUMBOL_clean_sbu_0, # of connection points: 6
#     Node 4, Type 0, BuildingBlock: KUMBOL_clean_sbu_0, # of connection points: 6
#     Node 5, Type 0, BuildingBlock: KUMBOL_clean_sbu_0, # of connection points: 6
#     Node 6, Type 0, BuildingBlock: KUMBOL_clean_sbu_0, # of connection points: 6
#     Node 7, Type 0, BuildingBlock: KUMBOL_clean_sbu_0, # of connection points: 6
#     Node 8, Type 0, BuildingBlock: KUMBOL_clean_sbu_0, # of connection points: 6
#     Edge 9, Type (0, 0), BuildingBlock: KIFKEQ_clean_linker_1, # of connection points: 2
#     Edge 10, Type (0, 0), BuildingBlock: KIFKEQ_clean_linker_1, # of connection points: 2
#     Edge 11, Type (0, 0), BuildingBlock: KIFKEQ_clean_linker_1, # of connection points: 2
#     Edge 12, Type (0, 0), BuildingBlock: KIFKEQ_clean_linker_1, # of connection points: 2
#     Edge 13, Type (0, 0), BuildingBlock: KIFKEQ_clean_linker_1, # of connection points: 2
#     Edge 14, Type (0, 0), BuildingBlock: KIFKEQ_clean_linker_1, # of connection points: 2
#     Edge 15, Type (0, 0), BuildingBlock: KIFKEQ_clean_linker_1, # of connection points: 2
#     Edge 16, Type (0, 0), BuildingBlock: KIFKEQ_clean_linker_1, # of connection points: 2
#     Edge 17, Type (0, 0), BuildingBlock: KIFKEQ_clean_linker_1, # of connection points: 2
#     Edge 18, Type (0, 0), BuildingBlock: KIFKEQ_clean_linker_1, # of connection points: 2
#     Edge 19, Type (0, 0), BuildingBlock: KIFKEQ_clean_linker_1, # of connection points: 2
#     Edge 20, Type (0, 0), BuildingBlock: KIFKEQ_clean_linker_1, # of connection points: 2
#     Edge 21, Type (0, 0), BuildingBlock: KIFKEQ_clean_linker_1, # of connection points: 2
#     Edge 22, Type (0, 0), BuildingBlock: KIFKEQ_clean_linker_1, # of connection points: 2
#     Edge 23, Type (0, 0), BuildingBlock: KIFKEQ_clean_linker_1, # of connection points: 2
#     Edge 24, Type (0, 0), BuildingBlock: KIFKEQ_clean_linker_1, # of connection points: 2
#     Edge 25, Type (0, 0), BuildingBlock: KIFKEQ_clean_linker_1, # of connection points: 2
#     Edge 26, Type (0, 0), BuildingBlock: KIFKEQ_clean_linker_1, # of connection points: 2
#     Edge 27, Type (0, 0), BuildingBlock: KIFKEQ_clean_linker_1, # of connection points: 2
#     Edge 28, Type (0, 0), BuildingBlock: KIFKEQ_clean_linker_1, # of connection points: 2
#     Edge 29, Type (0, 0), BuildingBlock: KIFKEQ_clean_linker_1, # of connection points: 2
#     Edge 30, Type (0, 0), BuildingBlock: KIFKEQ_clean_linker_1, # of connection points: 2
#     Edge 31, Type (0, 0), BuildingBlock: KIFKEQ_clean_linker_1, # of connection points: 2
#     Edge 32, Type (0, 0), BuildingBlock: KIFKEQ_clean_linker_1, # of connection points: 2
#     Edge 33, Type (0, 0), BuildingBlock: KIFKEQ_clean_linker_1, # of connection points: 2
#     Edge 34, Type (0, 0), BuildingBlock: KIFKEQ_clean_linker_1, # of connection points: 2
#     Edge 35, Type (0, 0), BuildingBlock: KIFKEQ_clean_linker_1, # of connection points: 2
# Relax obj value: 0.110
# Max RMSD: 0.287
# Mean RMSD: 0.287
data_MOF--net-smc--node1-KUMBOL_clean_sbu_0--edge1-KIFKEQ_clean_linker_1
_symmetry_space_group_name_H-M    P1
_symmetry_Int_Tables_number       1
_symmetry_cell_setting            triclinic
loop_
_symmetry_equiv_pos_as_xyz
'x, y, z'
_cell_length_a     38.495575
_cell_length_b     38.468098
_cell_length_c     41.516212
_cell_angle_alpha  89.99839
_cell_angle_beta   89.957413
_cell_angle_gamma 120.06865
loop_
_atom_site_label
_atom_site_type_symbol
_atom_site_fract_x
_atom_site_fract_y
_atom_site_fract_z
_atom_type_partial_charge
Gd0 Gd 0.99894 0.40126 0.01508 0.0
Gd1 Gd 0.06384 0.50605 0.99148 0.0
C2 C 1.01571 0.5862 0.02723 0.0
C3 C 1.00455 0.61164 0.97715 0.0
C4 C 0.02892 0.56412 0.97622 0.0
C5 C 0.02875 0.56331 0.00972 0.0
C6 C 1.01719 0.58873 0.95971 0.0
C7 C 1.00359 0.6102 0.01079 0.0
C8 C 1.01488 0.58415 0.06085 0.0
C9 C 0.02683 0.55973 0.07631 0.0
N10 N 0.04027 0.53949 0.02516 0.0
C11 C 0.03958 0.53765 0.0581 0.0
H12 H 0.04807 0.51887 0.07088 0.0
C13 C 0.04459 0.54433 0.92695 0.0
N14 N 0.04054 0.54108 0.95977 0.0
C15 C 0.0331 0.56806 0.90965 0.0
C16 C 1.01892 0.59003 0.92607 0.0
H17 H 0.0574 0.52911 0.91389 0.0
H18 H 0.99341 0.62782 0.0239 0.0
H19 H 0.03965 0.36878 0.95911 0.0
H20 H 1.00489 0.60111 0.07507 0.0
H21 H 0.0261 0.55778 0.10233 0.0
H22 H 0.99538 0.63056 0.96482 0.0
H23 H 0.95607 0.38242 0.08813 0.0
H24 H 0.08757 0.30354 0.00678 0.0
H25 H 0.07594 0.33136 0.9569 0.0
H26 H 0.04358 0.29598 0.11593 0.0
H27 H 0.03586 0.56991 0.88368 0.0
H28 H 1.01023 0.6086 0.9126 0.0
H29 H 0.07586 0.29099 0.0663 0.0
H30 H 0.95786 0.35023 0.13915 0.0
N31 N 0.03155 0.36346 0.00998 0.0
C32 C 0.07159 0.32003 0.00795 0.0
C33 C 0.06501 0.33561 0.97974 0.0
C34 C 0.0562 0.32468 0.03713 0.0
C35 C 0.03561 0.34639 0.03727 0.0
C36 C 0.04442 0.35695 0.98115 0.0
N37 N 0.99635 0.36859 0.06384 0.0
C38 C 1.01719 0.34877 0.06506 0.0
C39 C 0.97488 0.34981 0.11855 0.0
C40 C 0.99815 0.33136 0.12075 0.0
C41 C 0.97381 0.36787 0.0896 0.0
C42 C 1.01916 0.33009 0.09366 0.0
H43 H 0.99897 0.31744 0.1432 0.0
O44 O 0.93418 0.37003 0.02302 0.0
O45 O 1.00103 0.45848 1.00083 0.0
O46 O 0.08352 0.49404 0.04204 0.0
O47 O 0.03674 0.42861 0.05857 0.0
O48 O 0.96695 0.42906 0.04082 0.0
O49 O 0.95906 0.34789 0.98735 0.0
O50 O 0.11863 0.53967 0.96389 0.0
O51 O 0.06292 0.44925 1.00262 0.0
O52 O 1.00284 0.40459 0.96105 0.0
O53 O 0.02483 0.47137 0.94764 0.0
O54 O 0.09267 0.47903 0.96131 0.0
O55 O 0.11184 0.5654 0.00775 0.0
C56 C 0.97723 0.4589 0.02161 0.0
C57 C 0.04131 0.31014 0.0941 0.0
C58 C 0.05974 0.30737 0.06585 0.0
C59 C 0.92663 0.34183 1.00226 0.0
C60 C 0.89754 0.30019 0.01232 0.0
C61 C 0.91109 0.2747 0.0237 0.0
C62 C 0.85573 0.28547 0.01017 0.0
C63 C 0.82791 0.24535 0.01867 0.0
C64 C 0.88361 0.23508 0.03221 0.0
C65 C 0.84237 0.2204 0.02954 0.0
C66 C 0.06877 0.46382 0.06366 0.0
C67 C 0.08596 0.44966 0.98029 0.0
C68 C 0.13318 0.57185 0.9817 0.0
C69 C 0.14814 0.61106 0.96426 0.0
C70 C 0.14088 0.6105 0.93098 0.0
C71 C 0.1712 0.64907 0.97964 0.0
C72 C 0.18507 0.68541 0.9619 0.0
C73 C 0.15377 0.64588 0.91378 0.0
C74 C 0.17543 0.68286 0.929 0.0
C75 C 1.00731 0.43243 0.94025 0.0
H76 H 0.94291 0.28534 0.02581 0.0
H77 H 0.84492 0.30494 1.00156 0.0
H78 H 0.89434 0.21558 0.04082 0.0
H79 H 0.82163 0.18952 0.03621 0.0
H80 H 0.12558 0.58259 0.91778 0.0
H81 H 0.17832 0.65035 0.005 0.0
H82 H 0.14752 0.64464 0.88826 0.0
H83 H 0.18588 0.70975 0.91456 0.0
Gd84 Gd 0.65384 0.60696 0.01592 0.0
Gd85 Gd 0.5486 0.56522 0.99278 0.0
C86 C 0.46869 0.4368 0.02883 0.0
C87 C 0.44246 0.40014 0.97888 0.0
C88 C 0.49051 0.472 0.97774 0.0
C89 C 0.49165 0.4727 0.01121 0.0
C90 C 0.46554 0.43563 0.96134 0.0
C91 C 0.44422 0.40067 0.01251 0.0
C92 C 0.47106 0.4381 0.06242 0.0
C93 C 0.4958 0.47451 0.07776 0.0
N94 N 0.51577 0.50809 0.02653 0.0
C95 C 0.51786 0.50931 0.05945 0.0
H96 H 0.53673 0.53661 0.07214 0.0
C97 C 0.51014 0.50736 0.9284 0.0
N98 N 0.51354 0.50665 0.96121 0.0
C99 C 0.48613 0.47208 0.9112 0.0
C100 C 0.46401 0.43597 0.92771 0.0
H101 H 0.52535 0.53538 0.91527 0.0
H102 H 0.4265 0.37291 0.02569 0.0
H103 H 0.68438 0.6782 0.95829 0.0
H104 H 0.45406 0.41117 0.07673 0.0
H105 H 0.49797 0.47581 0.10377 0.0
H106 H 0.42319 0.37204 0.96664 0.0
H107 H 0.6758 0.58696 0.08922 0.0
H108 H 0.74437 0.79329 1.00382 0.0
H109 H 0.71837 0.75185 0.95461 0.0
H110 H 0.75431 0.7616 0.11391 0.0
H111 H 0.48412 0.47294 0.88524 0.0
H112 H 0.44517 0.40868 0.91432 0.0
H113 H 0.7572 0.79662 0.06345 0.0
H114 H 0.70721 0.62328 0.13972 0.0
N115 N 0.68948 0.67736 0.00934 0.0
C116 C 0.72931 0.76085 0.00563 0.0
C117 C 0.71477 0.73757 0.9778 0.0
C118 C 0.72556 0.74201 0.03528 0.0
C119 C 0.70559 0.69969 0.03628 0.0
C120 C 0.69544 0.69568 0.98004 0.0
N121 N 0.68644 0.63956 0.06401 0.0
C122 C 0.7042 0.68016 0.06454 0.0
C123 C 0.70643 0.63963 0.11878 0.0
C124 C 0.72271 0.68122 0.12027 0.0
C125 C 0.68889 0.61921 0.09014 0.0
C126 C 0.7224 0.70213 0.09277 0.0
H127 H 0.73631 0.69699 0.14248 0.0
O128 O 0.68817 0.57693 0.0257 0.0
O129 O 0.59697 0.55129 1.0022 0.0
O130 O 0.56005 0.59744 0.04303 0.0
O131 O 0.6245 0.61348 0.06002 0.0
O132 O 0.62768 0.547 0.04138 0.0
O133 O 0.70594 0.61964 0.98683 0.0
O134 O 0.51492 0.58664 0.96562 0.0
O135 O 0.60518 0.62191 1.00372 0.0
O136 O 0.65013 0.60548 0.96188 0.0
O137 O 0.58314 0.56119 0.94865 0.0
O138 O 0.57541 0.61972 0.96153 0.0
O139 O 0.4891 0.55329 0.00911 0.0
C140 C 0.59732 0.52723 0.02273 0.0
C141 C 0.74054 0.74418 0.09238 0.0
C142 C 0.74215 0.7641 0.06366 0.0
C143 C 0.71449 0.59596 1.00322 0.0
C144 C 0.75722 0.61146 0.01152 0.0
C145 C 0.78147 0.65153 0.02119 0.0
C146 C 0.7744 0.58649 0.00881 0.0
C147 C 0.81579 0.60196 0.01476 0.0
C148 C 0.82222 0.66681 0.02735 0.0
C149 C 0.83933 0.64243 0.02394 0.0
C150 C 0.58962 0.61114 0.06506 0.0
C151 C 0.60418 0.64332 0.98064 0.0
C152 C 0.48271 0.56863 0.98334 0.0
C153 C 0.4436 0.54458 0.96577 0.0
C154 C 0.44433 0.53773 0.93253 0.0
C155 C 0.40553 0.53001 0.98097 0.0
C156 C 0.36931 0.50769 0.96309 0.0
C157 C 0.40905 0.51535 0.91523 0.0
C158 C 0.37202 0.50033 0.93028 0.0
C159 C 0.62207 0.58236 0.94115 0.0
H160 H 0.76897 0.67113 0.02367 0.0
H161 H 0.75586 0.55547 1.0014 0.0
H162 H 0.84072 0.69783 0.03467 0.0
H163 H 0.87104 0.65513 0.0289 0.0
H164 H 0.4723 0.55017 0.91945 0.0
H165 H 0.4041 0.53602 0.00628 0.0
H166 H 0.41044 0.51019 0.88974 0.0
H167 H 0.3452 0.48391 0.91578 0.0
Gd168 Gd 0.44521 0.05544 0.01797 0.0
Gd169 Gd 0.4905 0.99481 0.99588 0.0
C170 C 0.61458 0.04764 0.04288 0.0
C171 C 0.65918 0.07452 0.99701 0.0
C172 C 0.58679 0.04444 0.98978 0.0
C173 C 0.58105 0.03602 0.02249 0.0
C174 C 0.62616 0.06388 0.97684 0.0
C175 C 0.65344 0.06666 0.02995 0.0
C176 C 0.60828 0.04025 0.07588 0.0
C177 C 0.56939 0.02145 0.08793 0.0
N178 N 0.54306 0.01774 0.03458 0.0
C179 C 0.53712 1.01001 0.06696 0.0
H180 H 0.5079 0.99432 0.07743 0.0
C181 C 0.55961 0.03931 0.93785 0.0
N182 N 0.55423 0.03362 0.97058 0.0
C183 C 0.59798 0.05945 0.92432 0.0
C184 C 0.63142 0.07199 0.94389 0.0
H185 H 0.53493 0.02638 0.92116 0.0
H186 H 0.67933 0.07559 0.04528 0.0
H187 H 0.37876 0.0164 0.95702 0.0
H188 H 0.63323 0.04891 0.09223 0.0
H189 H 0.56411 0.01521 0.11345 0.0
H190 H 0.6894 0.08905 0.98736 0.0
H191 H 0.45939 0.09404 0.09238 0.0
H192 H 0.26037 0.96051 0.99661 0.0
H193 H 0.30556 0.97814 0.94955 0.0
H194 H 0.28331 0.99638 0.1083 0.0
H195 H 0.60164 0.06398 0.89853 0.0
H196 H 0.66111 0.08702 0.9332 0.0
H197 H 0.25237 0.96674 0.05608 0.0
H198 H 0.41913 0.0867 0.14107 0.0
N199 N 0.37556 0.02027 0.008 0.0
C200 C 0.29258 0.97751 1.00007 0.0
C201 C 0.31799 0.98751 0.97345 0.0
C202 C 0.30905 0.99092 0.03068 0.0
C203 C 0.35119 1.01306 0.0338 0.0
C204 C 0.35962 1.0093 0.97783 0.0
N205 N 0.40897 0.05304 0.06454 0.0
C206 C 0.36843 0.0301 0.06301 0.0
C207 C 0.40451 0.07046 0.11931 0.0
C208 C 0.36292 0.04498 0.11869 0.0
C209 C 0.42717 0.07473 0.0917 0.0
C210 C 0.34428 0.02503 0.09013 0.0
H211 H 0.34543 0.04173 0.1401 0.0
O212 O 0.47391 0.11925 0.02979 0.0
O213 O 0.50256 0.05684 0.00503 0.0
O214 O 0.45344 0.97111 0.0441 0.0
O215 O 0.43542 0.0179 0.06152 0.0
O216 O 0.50319 0.088 0.04592 0.0
O217 O 0.43356 0.09578 0.98926 0.0
O218 O 0.49305 0.95157 0.9635 0.0
O219 O 0.43264 0.99266 0.00492 0.0
O220 O 0.45075 0.05724 0.96431 0.0
O221 O 0.48249 0.02167 0.94866 0.0
O222 O 0.43451 0.95998 0.96642 0.0
O223 O 0.49397 0.94316 0.01452 0.0
C224 C 0.52486 0.08022 0.02694 0.0
C225 C 0.30238 1.00107 0.08764 0.0
C226 C 0.28478 0.98413 0.05793 0.0
C227 C 0.45621 0.12735 0.00674 0.0
C228 C 0.44039 0.15434 0.01462 0.0
C229 C 0.40004 0.13844 0.02338 0.0
C230 C 0.46552 0.19649 0.01224 0.0
C231 C 0.45002 0.22244 0.01764 0.0
C232 C 0.38469 0.16396 0.02903 0.0
C233 C 0.4093 0.20555 0.02595 0.0
C234 C 0.43774 0.98534 0.06598 0.0
C235 C 0.41088 0.9678 0.9831 0.0
C236 C 0.49848 0.93133 0.9862 0.0
C237 C 0.533 0.92391 0.98183 0.0
C238 C 0.56736 0.95247 0.96527 0.0
C239 C 0.53216 0.8885 0.9931 0.0
C240 C 0.56618 0.8835 0.98891 0.0
C241 C 0.60095 0.94819 0.96195 0.0
C242 C 0.60056 0.91427 0.97386 0.0
C243 C 0.46671 0.04486 0.94231 0.0
H244 H 0.38031 0.10627 0.02553 0.0
H245 H 0.49673 0.20898 0.00546 0.0
H246 H 0.35347 0.15144 0.03565 0.0
H247 H 0.39658 0.22463 0.03046 0.0
H248 H 0.56828 0.978 0.95413 0.0
H249 H 0.50546 0.86515 0.00479 0.0
H250 H 0.6272 0.97098 0.94941 0.0
H251 H 0.6268 0.91129 0.97004 0.0
Gd252 Gd 0.66285 0.73193 0.34662 0.0
Gd253 Gd 0.72724 0.83762 0.3258 0.0
C254 C 0.67604 0.91572 0.36004 0.0
C255 C 0.66727 0.94235 0.30966 0.0
C256 C 0.6923 0.89536 0.3095 0.0
C257 C 0.69034 0.89358 0.34297 0.0
C258 C 0.68114 0.92019 0.29263 0.0
C259 C 0.66452 0.93995 0.34323 0.0
C260 C 0.6734 0.9127 0.39359 0.0
C261 C 0.68483 0.88812 0.40942 0.0
N262 N 0.70135 0.86957 0.35879 0.0
C263 C 0.69889 0.86682 0.39166 0.0
H264 H 0.70702 0.84801 0.40475 0.0
C265 C 0.71068 0.87707 0.26075 0.0
N266 N 0.70507 0.87303 0.29341 0.0
C267 C 0.69983 0.90107 0.24311 0.0
C268 C 0.68461 0.92242 0.25907 0.0
H269 H 0.72409 0.86212 0.24812 0.0
H270 H 0.6534 0.957 0.35599 0.0
H271 H 0.70782 0.70139 0.2928 0.0
H272 H 0.6624 0.92906 0.40747 0.0
H273 H 0.68273 0.88544 0.4354 0.0
H274 H 0.6585 0.96142 0.29705 0.0
H275 H 0.61361 0.70821 0.41695 0.0
H276 H 0.75736 0.63967 0.34353 0.0
H277 H 0.7469 0.66681 0.29275 0.0
H278 H 0.70528 0.62763 0.45043 0.0
H279 H 0.70383 0.90356 0.21724 0.0
H280 H 0.67639 0.94117 0.24534 0.0
H281 H 0.74208 0.62562 0.40258 0.0
H282 H 0.61265 0.67497 0.46815 0.0
N283 N 0.69749 0.69583 0.34344 0.0
C284 C 0.7403 0.65509 0.34376 0.0
C285 C 0.73436 0.67026 0.31505 0.0
C286 C 0.72271 0.65855 0.37217 0.0
C287 C 0.70089 0.67901 0.37112 0.0
C288 C 0.71216 0.69 0.31524 0.0
N289 N 0.65785 0.69806 0.39527 0.0
C290 C 0.68012 0.67988 0.39788 0.0
C291 C 0.63194 0.67632 0.44864 0.0
C292 C 0.65668 0.65969 0.45241 0.0
C293 C 0.63245 0.69499 0.41958 0.0
C294 C 0.68064 0.66067 0.42665 0.0
H295 H 0.65629 0.6453 0.47495 0.0
O296 O 0.59756 0.69855 0.35175 0.0
O297 O 0.66432 0.789 0.3327 0.0
O298 O 0.74526 0.82504 0.3769 0.0
O299 O 0.69623 0.75984 0.39203 0.0
O300 O 0.62765 0.75735 0.37084 0.0
O301 O 0.62594 0.67985 0.31654 0.0
O302 O 0.7833 0.87172 0.2999 0.0
O303 O 0.72724 0.78097 0.33675 0.0
O304 O 0.67195 0.73787 0.29289 0.0
O305 O 0.68875 0.80369 0.28135 0.0
O306 O 0.75798 0.81254 0.29595 0.0
O307 O 0.77371 0.8975 0.34257 0.0
C308 C 0.63888 0.78808 0.35248 0.0
C309 C 0.70408 0.64214 0.42842 0.0
C310 C 0.72507 0.64105 0.4012 0.0
C311 C 0.59226 0.67163 0.33044 0.0
C312 C 0.56418 0.62909 0.33917 0.0
C313 C 0.57916 0.60435 0.34939 0.0
C314 C 0.52207 0.61267 0.33665 0.0
C315 C 0.49541 0.57153 0.34331 0.0
C316 C 0.55296 0.56388 0.35621 0.0
C317 C 0.51154 0.54751 0.35298 0.0
C318 C 0.72836 0.79474 0.39835 0.0
C319 C 0.7509 0.78264 0.31443 0.0
C320 C 0.79657 0.90398 0.31746 0.0
C321 C 0.81231 0.94302 0.2996 0.0
C322 C 0.80658 0.94213 0.26605 0.0
C323 C 0.83484 0.9812 0.31486 0.0
C324 C 0.84958 0.01733 0.29667 0.0
C325 C 0.82029 0.97733 0.24842 0.0
C326 C 0.84134 1.01445 0.26349 0.0
C327 C 0.6751 0.76565 0.2726 0.0
H328 H 0.61117 0.61623 0.35184 0.0
H329 H 0.51019 0.63157 0.32891 0.0
H330 H 0.56484 0.54501 0.36394 0.0
H331 H 0.49194 0.51599 0.35847 0.0
H332 H 0.7919 0.91409 0.25299 0.0
H333 H 0.84091 0.98277 0.34045 0.0
H334 H 0.81517 0.97581 0.22269 0.0
H335 H 0.85244 0.04122 0.24878 0.0
Gd336 Gd 0.31709 0.93933 0.34879 0.0
Gd337 Gd 0.21181 0.8996 0.32645 0.0
C338 C 0.13175 0.76882 0.35659 0.0
C339 C 0.10635 0.73589 0.30512 0.0
C340 C 0.15365 0.80787 0.30721 0.0
C341 C 0.15462 0.80602 0.34064 0.0
C342 C 0.12896 0.77279 0.28923 0.0
C343 C 0.10786 0.73389 0.33867 0.0
C344 C 0.13358 0.76769 0.39017 0.0
C345 C 0.1576 0.80303 0.40712 0.0
N346 N 0.17829 0.84026 0.35752 0.0
C347 C 0.17968 0.83919 0.39042 0.0
H348 H 0.19805 0.86571 0.40423 0.0
C349 C 0.17235 0.84724 0.25982 0.0
N350 N 0.17627 0.84382 0.29227 0.0
C351 C 0.14851 0.81335 0.24108 0.0
C352 C 0.12709 0.77585 0.25579 0.0
H353 H 0.18756 0.87637 0.24827 0.0
H354 H 0.09031 0.70513 0.35055 0.0
H355 H 0.3489 1.01288 0.29317 0.0
H356 H 0.11662 0.7397 0.40322 0.0
H357 H 0.15924 0.80245 0.43312 0.0
H358 H 0.08745 0.70869 0.29165 0.0
H359 H 0.33957 0.91577 0.42041 0.0
H360 H 0.41115 0.12608 0.34147 0.0
H361 H 0.38441 0.08674 0.29136 0.0
H362 H 0.42116 0.08939 0.45 0.0
H363 H 0.14623 0.81628 0.21535 0.0
H364 H 0.10844 0.74962 0.24122 0.0
H365 H 0.42425 0.12677 0.40089 0.0
H366 H 0.37238 0.94969 0.47132 0.0
N367 N 0.35369 1.00995 0.34408 0.0
C368 C 0.39534 0.09356 0.34246 0.0
C369 C 0.38041 0.07147 0.31413 0.0
C370 C 0.39117 0.07343 0.37153 0.0
C371 C 0.37025 0.03106 0.37146 0.0
C372 C 0.36018 0.02947 0.3153 0.0
N373 N 0.35041 0.96964 0.39724 0.0
C374 C 0.36877 1.01022 0.39894 0.0
C375 C 0.37142 0.96707 0.45119 0.0
C376 C 0.38829 1.00863 0.45397 0.0
C377 C 0.35304 0.94799 0.42232 0.0
C378 C 0.3878 0.03087 0.42746 0.0
H379 H 0.40252 0.02335 0.47635 0.0
O380 O 0.35028 0.9076 0.3563 0.0
O381 O 0.25964 0.88446 0.33478 0.0
O382 O 0.22344 0.92863 0.37792 0.0
O383 O 0.28829 0.94459 0.39368 0.0
O384 O 0.29052 0.87867 0.37311 0.0
O385 O 0.36913 0.95268 0.31928 0.0
O386 O 0.17856 0.92377 0.30234 0.0
O387 O 0.26895 0.95561 0.33792 0.0
O388 O 0.31254 0.93978 0.29483 0.0
O389 O 0.24557 0.89492 0.28207 0.0
O390 O 0.23882 0.95543 0.29646 0.0
O391 O 0.15217 0.8861 0.3438 0.0
C392 C 0.25987 0.85963 0.35461 0.0
C393 C 0.40675 0.07297 0.42822 0.0
C394 C 0.40846 0.09423 0.40027 0.0
C395 C 0.37704 0.9277 0.33438 0.0
C396 C 0.41961 0.94219 0.34288 0.0
C397 C 0.44415 0.98177 0.35359 0.0
C398 C 0.43633 0.91684 0.33949 0.0
C399 C 0.47757 0.93153 0.34582 0.0
C400 C 0.48467 0.99625 0.36012 0.0
C401 C 0.50133 0.97156 0.35605 0.0
C402 C 0.25323 0.94148 0.39967 0.0
C403 C 0.26835 0.97792 0.31538 0.0
C404 C 0.1461 0.90394 0.31957 0.0
C405 C 0.10716 0.88176 0.30141 0.0
C406 C 0.10838 0.87988 0.26758 0.0
C407 C 0.0688 0.8641 0.31674 0.0
C408 C 0.03282 0.84389 0.29821 0.0
C409 C 0.0734 0.85986 0.24956 0.0
C410 C 0.03615 0.84203 0.26459 0.0
C411 C 0.28439 0.91632 0.27429 0.0
H412 H 0.43205 1.00164 0.35664 0.0
H413 H 0.4176 0.88618 0.33131 0.0
H414 H 0.50337 0.02689 0.36825 0.0
H415 H 0.53288 0.98367 0.36134 0.0
H416 H 0.13655 0.89437 0.25465 0.0
H417 H 0.06698 0.86602 0.34266 0.0
H418 H 0.07517 0.85865 0.22359 0.0
H419 H 1.00961 0.82755 0.24955 0.0
Gd420 Gd 0.11094 0.38841 0.34694 0.0
Gd421 Gd 0.15226 0.32395 0.3256 0.0
C422 C 0.28055 0.37465 0.36197 0.0
C423 C 0.31732 0.38408 0.31219 0.0
C424 C 0.24536 0.35929 0.31081 0.0
C425 C 0.24463 0.36071 0.34427 0.0
C426 C 0.28179 0.37063 0.29455 0.0
C427 C 0.31676 0.38633 0.34577 0.0
C428 C 0.27921 0.37677 0.39552 0.0
C429 C 0.24276 0.36525 0.41072 0.0
N430 N 0.20919 0.34951 0.35948 0.0
C431 C 0.20793 0.35156 0.39234 0.0
H432 H 0.18058 0.3435 0.40487 0.0
C433 C 0.21 0.34165 0.26146 0.0
N434 N 0.2107 0.34681 0.29413 0.0
C435 C 0.24533 0.35277 0.2444 0.0
C436 C 0.28148 0.36773 0.26097 0.0
H437 H 0.18197 0.32829 0.24837 0.0
H438 H 0.34454 0.39716 0.35901 0.0
H439 H 0.03822 0.34591 0.29084 0.0
H440 H 0.30616 0.38748 0.40987 0.0
H441 H 0.24146 0.36703 0.43667 0.0
H442 H 0.34548 0.39293 0.30006 0.0
H443 H 0.13412 0.43196 0.41974 0.0
H444 H 0.92449 0.29759 0.33789 0.0
H445 H 0.96446 0.30881 0.28833 0.0
H446 H 0.9598 0.34347 0.44672 0.0
H447 H 0.24452 0.34916 0.21851 0.0
H448 H 0.30882 0.37612 0.24769 0.0
H449 H 0.92305 0.31021 0.39716 0.0
H450 H 0.09954 0.43044 0.47038 0.0
N451 N 0.0405 0.35482 0.34159 0.0
C452 C 0.95698 0.31391 0.33919 0.0
C453 C 0.97943 0.32025 0.31116 0.0
C454 C 0.97673 0.32995 0.36835 0.0
C455 C 1.01907 0.35096 0.36867 0.0
C456 C 1.02137 0.3413 0.31274 0.0
N457 N 0.08028 0.39113 0.39536 0.0
C458 C 0.03958 0.36997 0.3964 0.0
C459 C 0.08233 0.41313 0.4498 0.0
C460 C 0.04058 0.38959 0.45183 0.0
C461 C 0.1018 0.41406 0.42107 0.0
C462 C 1.0186 0.36814 0.42478 0.0
H463 H 0.02558 0.38887 0.47412 0.0
O464 O 0.14146 0.45323 0.35493 0.0
O465 O 0.16644 0.3867 0.33361 0.0
O466 O 0.12046 0.30509 0.37616 0.0
O467 O 0.10043 0.35132 0.39091 0.0
O468 O 0.17118 0.4229 0.37196 0.0
O469 O 0.09781 0.42669 0.31683 0.0
O470 O 0.13095 0.26793 0.29974 0.0
O471 O 0.09591 0.32443 0.33573 0.0
O472 O 0.11095 0.38311 0.29306 0.0
O473 O 0.15691 0.36218 0.28101 0.0
O474 O 0.09671 0.29385 0.29516 0.0
O475 O 0.16525 0.27742 0.34295 0.0
C476 C 0.19079 0.41186 0.35358 0.0
C477 C 0.97648 0.34563 0.42505 0.0
C478 C 0.95557 0.32663 0.39686 0.0
C479 C 0.12175 0.45957 0.33248 0.0
C480 C 0.10617 0.48682 0.34053 0.0
C481 C 0.066 0.47094 0.34989 0.0
C482 C 0.13122 0.52904 0.33806 0.0
C483 C 0.11576 0.55498 0.34398 0.0
C484 C 0.05073 0.49641 0.35602 0.0
C485 C 0.0752 0.53797 0.35288 0.0
C486 C 0.10426 0.31989 0.39699 0.0
C487 C 0.07371 0.30084 0.31349 0.0
C488 C 0.14957 0.25465 0.31772 0.0
C489 C 0.17341 0.23909 0.30037 0.0
C490 C 0.17882 0.24495 0.26686 0.0
C491 C 0.18899 0.21667 0.31598 0.0
C492 C 0.21071 0.20198 0.29811 0.0
C493 C 0.20033 0.23109 0.24953 0.0
C494 C 0.21612 0.21 0.26486 0.0
C495 C 0.13509 0.37901 0.27286 0.0
H496 H 0.04631 0.4388 0.35218 0.0
H497 H 0.16231 0.54156 0.3309 0.0
H498 H 1.01965 0.48384 0.36312 0.0
H499 H 0.06251 0.55698 0.35787 0.0
H500 H 0.16587 0.25984 0.25358 0.0
H501 H 0.1843 0.21075 0.34158 0.0
H502 H 0.20424 0.2362 0.2238 0.0
H503 H 0.23182 0.19888 0.25027 0.0
Gd504 Gd 0.32669 0.05882 0.67918 0.0
Gd505 Gd 0.38224 0.1671 0.66287 0.0
C506 C 0.32441 0.23199 0.71275 0.0
C507 C 0.30186 0.2551 0.66739 0.0
C508 C 0.33232 0.21347 0.65853 0.0
C509 C 0.33795 0.21254 0.69143 0.0
C510 C 0.31411 0.23486 0.64627 0.0
C511 C 0.30666 0.25338 0.70054 0.0
C512 C 0.32864 0.22911 0.74585 0.0
C513 C 0.34587 0.20719 0.75713 0.0
N514 N 0.35538 0.19168 0.70272 0.0
C515 C 0.35924 0.18884 0.73527 0.0
H516 H 0.37256 0.17279 0.74528 0.0
C517 C 0.3431 0.19812 0.60565 0.0
N518 N 0.34529 0.19435 0.63841 0.0
C519 C 0.324 0.21764 0.59265 0.0
C520 C 0.30924 0.23591 0.61303 0.0
H521 H 0.35799 0.18829 0.58903 0.0
H522 H 0.29638 0.2686 0.71658 0.0
H523 H 0.37849 0.03998 0.62275 0.0
H524 H 0.31843 0.2434 0.7629 0.0
H525 H 0.34914 0.20458 0.78277 0.0
H526 H 0.28843 0.27207 0.65832 0.0
H527 H 0.27917 0.02942 0.75023 0.0
H528 H 0.43103 0.97736 0.66746 0.0
H529 H 0.42095 1.00929 0.61942 0.0
H530 H 0.37571 0.95153 0.77405 0.0
H531 H 0.32209 0.2199 0.56679 0.0
H532 H 0.29521 0.25178 0.60283 0.0
H533 H 0.41421 0.95618 0.72527 0.0
H534 H 0.28017 0.99315 0.79892 0.0
N535 N 0.36549 0.02736 0.67272 0.0
C536 C 0.41236 0.99099 0.66916 0.0
C537 C 0.4067 1.00893 0.642 0.0
C538 C 0.39282 0.98973 0.69791 0.0
C539 C 0.36894 1.00804 0.69882 0.0
C540 C 0.38256 0.02648 0.64409 0.0
N541 N 0.32391 0.02242 0.72577 0.0
C542 C 0.34718 1.00515 0.72613 0.0
C543 C 0.29937 0.99653 0.77869 0.0
C544 C 0.32487 0.98054 0.78011 0.0
C545 C 0.29886 0.01703 0.75104 0.0
C546 C 0.34879 0.98426 0.75347 0.0
H547 H 0.32529 0.96476 0.80159 0.0
O548 O 0.26148 0.02321 0.68317 0.0
O549 O 0.32227 0.11376 0.6692 0.0
O550 O 0.40501 0.1518 0.71092 0.0
O551 O 0.36186 0.08398 0.72406 0.0
O552 O 0.28891 0.07846 0.70733 0.0
O553 O 0.29234 1.00697 0.64821 0.0
O554 O 0.42685 0.21383 0.63171 0.0
O555 O 0.38823 0.11302 0.66869 0.0
O556 O 0.33479 0.06729 0.62582 0.0
O557 O 0.34877 0.13282 0.61674 0.0
O558 O 0.41911 0.151 0.63092 0.0
O559 O 0.43201 0.22248 0.68299 0.0
C560 C 0.29688 0.10952 0.69033 0.0
C561 C 0.37374 0.96734 0.75317 0.0
C562 C 0.3957 0.97006 0.72542 0.0
C563 C 0.25794 0.9973 0.66152 0.0
C564 C 0.2304 0.95446 0.6693 0.0
C565 C 0.24553 0.92919 0.6775 0.0
C566 C 0.18836 0.93843 0.66801 0.0
C567 C 0.16175 0.8972 0.6739 0.0
C568 C 0.21934 0.88848 0.68355 0.0
C569 C 0.17784 0.8725 0.68153 0.0
C570 C 0.39214 0.1198 0.7308 0.0
C571 C 0.41358 0.11945 0.64633 0.0
C572 C 0.44617 0.23895 0.65499 0.0
C573 C 0.45587 0.2816 0.65026 0.0
C574 C 0.4268 0.28923 0.63708 0.0
C575 C 0.49423 0.31509 0.65754 0.0
C576 C 0.50193 0.35489 0.65222 0.0
C577 C 0.43398 0.3281 0.63268 0.0
C578 C 0.47116 0.3607 0.64031 0.0
C579 C 0.33664 0.0955 0.60682 0.0
H580 H 0.27759 0.94083 0.67904 0.0
H581 H 0.17644 0.9578 0.66181 0.0
H582 H 0.23126 0.86915 0.68973 0.0
H583 H 0.15821 0.84082 0.68636 0.0
H584 H 0.39859 0.26533 0.62934 0.0
H585 H 0.51782 0.31031 0.66675 0.0
H586 H 0.41077 0.33294 0.62269 0.0
H587 H 0.47634 0.39074 0.63605 0.0
Gd588 Gd 0.98385 0.27174 0.68424 0.0
Gd589 Gd 0.87918 0.22971 0.66009 0.0
C590 C 0.80447 0.10558 0.70689 0.0
C591 C 0.78828 0.06087 0.66128 0.0
C592 C 0.8312 0.13328 0.65412 0.0
C593 C 0.82738 0.13911 0.68664 0.0
C594 C 0.81143 0.09388 0.64123 0.0
C595 C 0.78504 0.06666 0.69404 0.0
C596 C 0.80173 0.11193 0.73964 0.0
C597 C 0.82078 0.1509 0.75153 0.0
N598 N 0.84657 0.17716 0.69866 0.0
C599 C 0.84249 0.18316 0.73068 0.0
H600 H 0.85445 0.21242 0.74089 0.0
C601 C 0.85515 0.16038 0.60241 0.0
N602 N 0.85387 0.1658 0.63505 0.0
C603 C 0.83698 0.12198 0.58895 0.0
C604 C 0.81523 0.08857 0.60844 0.0
H605 H 0.86771 0.18509 0.5857 0.0
H606 H 0.76737 0.04079 0.70927 0.0
H607 H 1.01474 0.34116 0.62519 0.0
H608 H 0.78464 0.08699 0.75588 0.0
H609 H 0.81813 0.15624 0.77678 0.0
H610 H 0.77279 0.03061 0.65167 0.0
H611 H 1.00633 0.25346 0.75796 0.0
H612 H 0.07774 0.45763 0.66827 0.0
H613 H 0.05106 0.41476 0.61988 0.0
H614 H 0.08683 0.4289 0.77929 0.0
H615 H 0.83861 0.11829 0.56325 0.0
H616 H 0.80068 0.05885 0.59779 0.0
H617 H 0.09019 0.4626 0.728 0.0
H618 H 0.0385 0.29111 0.80783 0.0
N619 N 1.02007 0.34186 0.67627 0.0
C620 C 0.06189 0.42523 0.67079 0.0
C621 C 0.04698 0.40114 0.64342 0.0
C622 C 0.05758 0.40722 0.70091 0.0
C623 C 0.03679 0.36492 0.70279 0.0
C624 C 0.02635 0.35929 0.64658 0.0
N625 N 1.01717 0.30549 0.73176 0.0
C626 C 0.03541 0.34613 0.73146 0.0
C627 C 0.03765 0.30694 0.78657 0.0
C628 C 0.05436 0.34862 0.78725 0.0
C629 C 1.01966 0.28575 0.7583 0.0
C630 C 0.0541 0.36884 0.75929 0.0
H631 H 0.06828 0.36498 0.80916 0.0
O632 O 1.01505 0.23873 0.69447 0.0
O633 O 0.92749 0.21557 0.66971 0.0
O634 O 0.8927 0.26616 0.70866 0.0
O635 O 0.95544 0.27986 0.72804 0.0
O636 O 0.95558 0.21312 0.71151 0.0
O637 O 0.03755 0.28427 0.6575 0.0
O638 O 0.83583 0.22918 0.62612 0.0
O639 O 0.93536 0.28662 0.67065 0.0
O640 O 0.98198 0.26866 0.63045 0.0
O641 O 0.91516 0.23728 0.61361 0.0
O642 O 0.90293 0.28659 0.63131 0.0
O643 O 0.82388 0.22742 0.67677 0.0
C644 C 0.92684 0.1924 0.69166 0.0
C645 C 0.07275 0.41091 0.75806 0.0
C646 C 0.07458 0.43008 0.72888 0.0
C647 C 0.04306 0.25809 0.67326 0.0
C648 C 0.08454 0.26996 0.68284 0.0
C649 C 0.11102 0.30903 0.69372 0.0
C650 C 0.0982 0.2421 0.68025 0.0
C651 C 0.13832 0.25364 0.68771 0.0
C652 C 0.15069 0.32046 0.70126 0.0
C653 C 0.16437 0.29312 0.69806 0.0
C654 C 0.9214 0.27949 0.73158 0.0
C655 C 0.93376 0.30935 0.64892 0.0
C656 C 0.80926 0.22408 0.6479 0.0
C657 C 0.76711 0.19063 0.64209 0.0
C658 C 0.7609 0.15579 0.62608 0.0
C659 C 0.73279 0.19312 0.65128 0.0
C660 C 0.6935 0.16046 0.64518 0.0
C661 C 0.72253 0.12347 0.62093 0.0
C662 C 0.68911 0.12565 0.63054 0.0
C663 C 0.95428 0.253 0.60795 0.0
H664 H 0.10112 0.33078 0.69611 0.0
H665 H 0.07793 0.21181 0.67193 0.0
H666 H 0.17102 0.35073 0.70946 0.0
H667 H 0.19532 0.30271 0.7039 0.0
H668 H 0.78562 0.15354 0.6168 0.0
H669 H 0.73654 0.22013 0.66267 0.0
H670 H 0.71869 0.09684 0.60883 0.0
H671 H 0.6595 0.10038 0.62563 0.0
Gd672 Gd 0.77768 0.72116 0.67777 0.0
Gd673 Gd 0.8207 0.65788 0.65837 0.0
C674 C 0.94758 0.70696 0.69772 0.0
C675 C 0.98573 0.71568 0.64887 0.0
C676 C 0.91422 0.69274 0.64579 0.0
C677 C 0.91236 0.69384 0.67921 0.0
C678 C 0.95104 0.70353 0.6304 0.0
C679 C 0.9841 0.71774 0.68239 0.0
C680 C 0.94528 0.70926 0.73116 0.0
C681 C 0.90863 0.69887 0.74547 0.0
N682 N 0.87658 0.68328 0.69357 0.0
C683 C 0.8745 0.68588 0.72633 0.0
H684 H 0.84712 0.67894 0.73826 0.0
C685 C 0.88086 0.67732 0.59557 0.0
N686 N 0.88032 0.68135 0.62831 0.0
C687 C 0.91664 0.68805 0.57936 0.0
C688 C 0.95197 0.70149 0.59682 0.0
H689 H 0.85342 0.66484 0.58174 0.0
H690 H 1.01132 0.72779 0.69627 0.0
H691 H 0.70444 0.67479 0.6222 0.0
H692 H 0.97168 0.71939 0.74612 0.0
H693 H 0.90662 0.701 0.77134 0.0
H694 H 1.01414 0.7239 0.63742 0.0
H695 H 0.80104 0.76734 0.74943 0.0
H696 H 0.59109 0.62847 0.66933 0.0
H697 H 0.6308 0.63682 0.62013 0.0
H698 H 0.62677 0.68063 0.77654 0.0
H699 H 0.91677 0.68516 0.55344 0.0
H700 H 0.97964 0.70951 0.5842 0.0
H701 H 0.58988 0.64468 0.7278 0.0
H702 H 0.7666 0.76828 0.7994 0.0
N703 N 0.70715 0.68686 0.67252 0.0
C704 C 0.62357 0.64512 0.67047 0.0
C705 C 0.64588 0.64982 0.64265 0.0
C706 C 0.64347 0.66306 0.69918 0.0
C707 C 0.68581 0.68434 0.69935 0.0
C708 C 0.68782 0.67138 0.64401 0.0
N709 N 0.74711 0.72563 0.72559 0.0
C710 C 0.70642 0.70467 0.72667 0.0
C711 C 0.74933 0.75006 0.77919 0.0
C712 C 0.70756 0.72684 0.78131 0.0
C713 C 0.76872 0.74955 0.75084 0.0
C714 C 0.68551 0.70419 0.75472 0.0
H715 H 0.69262 0.72723 0.80332 0.0
O716 O 0.80992 0.78632 0.68347 0.0
O717 O 0.83359 0.72009 0.66512 0.0
O718 O 0.7883 0.63946 0.70894 0.0
O719 O 0.76685 0.685 0.72245 0.0
O720 O 0.83762 0.75614 0.70334 0.0
O721 O 0.76341 0.75858 0.64758 0.0
O722 O 0.80002 0.60252 0.63173 0.0
O723 O 0.76376 0.65733 0.6677 0.0
O724 O 0.7765 0.71304 0.62403 0.0
O725 O 0.826 0.69648 0.6137 0.0
O726 O 0.76582 0.62695 0.62737 0.0
O727 O 0.83324 0.61095 0.67542 0.0
C728 C 0.85755 0.74528 0.68516 0.0
C729 C 0.64339 0.68172 0.75512 0.0
C730 C 0.6224 0.6612 0.72739 0.0
C731 C 0.78887 0.79201 0.66187 0.0
C732 C 0.77499 0.82049 0.67038 0.0
C733 C 0.73471 0.80628 0.67864 0.0
C734 C 0.80208 0.86243 0.66972 0.0
C735 C 0.7886 0.88976 0.67637 0.0
C736 C 0.72139 0.83325 0.68537 0.0
C737 C 0.74799 0.87464 0.684 0.0
C738 C 0.77137 0.65411 0.72928 0.0
C739 C 0.74224 0.6334 0.64539 0.0
C740 C 0.81821 0.58884 0.64975 0.0
C741 C 0.84257 0.57397 0.63245 0.0
C742 C 0.84953 0.58136 0.59919 0.0
C743 C 0.85719 0.55067 0.64785 0.0
C744 C 0.87967 0.53681 0.63016 0.0
C745 C 0.87211 0.56856 0.58207 0.0
C746 C 0.88717 0.54674 0.59733 0.0
C747 C 0.80191 0.71027 0.60438 0.0
H748 H 0.71346 0.77433 0.67967 0.0
H749 H 0.8333 0.87375 0.66353 0.0
H750 H 0.69023 0.82202 0.69155 0.0
H751 H 0.73692 0.89497 0.68922 0.0
H752 H 0.83702 0.59667 0.58593 0.0
H753 H 0.85104 0.54332 0.67317 0.0
H754 H 0.87735 0.57497 0.55657 0.0
H755 H 0.90367 0.53635 0.58295 0.0
H756 H 0.34043 0.55024 0.99607 0.0
H757 H 0.30393 0.43225 0.95887 0.0
H758 H 0.26988 0.53007 0.00529 0.0
H759 H 0.23369 0.41191 0.96817 0.0
H760 H 0.11802 0.41653 0.94077 0.0
H761 H 0.18577 0.42625 0.94272 0.0
H762 H 0.20665 0.48946 0.03291 0.0
H763 H 0.13962 0.48053 0.03021 0.0
C764 C 0.31747 0.5196 0.99087 0.0
C765 C 0.32802 0.49299 0.97664 0.0
C766 C 0.27683 0.50796 0.99599 0.0
C767 C 0.24561 0.46939 0.98699 0.0
C768 C 0.25653 0.44207 0.97476 0.0
C769 C 0.29697 0.45365 0.96973 0.0
C770 C 0.13644 0.43089 0.96173 0.0
C771 C 0.12207 0.44558 0.98629 0.0
C772 C 0.17559 0.43682 0.96279 0.0
C773 C 0.20215 0.45867 0.98807 0.0
C774 C 0.18741 0.47254 0.01302 0.0
C775 C 0.1482 0.46635 0.01197 0.0
H776 H 0.51639 0.80722 0.96685 0.0
H777 H 0.6197 0.87574 0.02727 0.0
H778 H 0.52948 0.75111 0.96753 0.0
H779 H 0.63295 0.81973 0.02801 0.0
H780 H 0.62209 0.69075 0.03572 0.0
H781 H 0.60986 0.74727 0.04315 0.0
H782 H 0.58406 0.7441 0.94172 0.0
H783 H 0.59599 0.68823 0.93455 0.0
C784 C 0.54103 0.80977 0.98123 0.0
C785 C 0.56677 0.84589 0.99716 0.0
C786 C 0.54903 0.77787 0.98121 0.0
C787 C 0.58282 0.78109 0.99733 0.0
C788 C 0.60675 0.81607 0.01533 0.0
C789 C 0.599 0.84813 0.01503 0.0
C790 C 0.61435 0.70257 0.01505 0.0
C791 C 0.60903 0.68419 0.98474 0.0
C792 C 0.60721 0.73491 0.01925 0.0
C793 C 0.5944 0.74935 0.99322 0.0
C794 C 0.59237 0.73294 0.96256 0.0
C795 C 0.59984 0.70119 0.95837 0.0
H796 H 0.34825 0.93615 0.94125 0.0
H797 H 0.38434 0.91457 0.03359 0.0
H798 H 0.28956 0.86868 0.94221 0.0
H799 H 0.32567 0.8478 0.0352 0.0
H800 H 0.25498 0.71402 0.99705 0.0
H801 H 0.30501 0.78454 0.00728 0.0
H802 H 0.22523 0.82118 0.9665 0.0
H803 H 0.17555 0.75099 0.9564 0.0
C804 C 0.34253 0.91793 0.96265 0.0
C805 C 0.36993 0.93238 0.98839 0.0
C806 C 0.30897 0.87889 0.9631 0.0
C807 C 0.30241 0.8524 0.98891 0.0
C808 C 0.32939 0.86709 0.01494 0.0
C809 C 0.36269 0.90624 0.01451 0.0
C810 C 0.24764 0.73705 0.99124 0.0
C811 C 0.21124 0.72666 0.97572 0.0
C812 C 0.27645 0.77766 0.99694 0.0
C813 C 0.26964 0.80897 0.98723 0.0
C814 C 0.23209 0.79822 0.9737 0.0
C815 C 0.20339 0.75781 0.96814 0.0
H816 H 0.52174 0.27239 0.04746 0.0
H817 H 0.43558 0.27341 0.98177 0.0
H818 H 0.55953 0.34611 0.04707 0.0
H819 H 0.47362 0.34679 0.98074 0.0
H820 H 0.58063 0.47362 0.07097 0.0
H821 H 0.54843 0.40048 0.06761 0.0
H822 H 0.53829 0.40695 0.96451 0.0
H823 H 0.57127 0.48045 0.96801 0.0
C824 C 0.51124 0.28837 0.03256 0.0
C825 C 0.47559 0.26706 0.01476 0.0
C826 C 0.53267 0.33061 0.03252 0.0
C827 C 0.51942 0.3526 0.01415 0.0
C828 C 0.4847 0.33108 0.99526 0.0
C829 C 0.46284 0.28896 0.99586 0.0
C830 C 0.57156 0.45938 0.04758 0.0
C831 C 0.57724 0.48268 0.0199 0.0
C832 C 0.55332 0.41745 0.04561 0.0
C833 C 0.54054 0.3976 0.0158 0.0
C834 C 0.54724 0.42109 0.98792 0.0
C835 C 0.56594 0.46318 0.98991 0.0
H836 H 0.5792 0.11049 0.07556 0.0
H837 H 0.56934 0.1161 0.97258 0.0
H838 H 0.65183 0.15506 0.07197 0.0
H839 H 0.64208 0.16141 0.96873 0.0
H840 H 0.7766 0.19391 0.97352 0.0
H841 H 0.70319 0.15875 0.97389 0.0
H842 H 0.70594 0.22183 0.0608 0.0
H843 H 0.77955 0.25737 0.05985 0.0
C844 C 0.59266 0.12153 0.05214 0.0
C845 C 0.56885 0.10853 0.02426 0.0
C846 C 0.63432 0.14741 0.05004 0.0
C847 C 0.65326 0.16177 0.01999 0.0
C848 C 0.62889 0.15043 0.99223 0.0
C849 C 0.58718 0.1244 0.99438 0.0
C850 C 0.76139 0.20077 0.99228 0.0
C851 C 0.78371 0.22859 0.01649 0.0
C852 C 0.71925 0.18054 0.99262 0.0
C853 C 0.69824 0.1868 0.01767 0.0
C854 C 0.72085 0.21563 0.04139 0.0
C855 C 0.76305 0.23636 0.04072 0.0
H856 H 0.93981 0.47559 0.06947 0.0
H857 H 0.9562 0.48413 0.96651 0.0
H858 H 0.89792 0.50662 0.06554 0.0
H859 H 0.91493 0.51618 0.96248 0.0
H860 H 0.88206 0.61782 0.97939 0.0
H861 H 0.91867 0.58108 0.97888 0.0
H862 H 0.83147 0.49332 0.04404 0.0
H863 H 0.79431 0.52983 0.04395 0.0
C864 C 0.93454 0.48428 0.04596 0.0
C865 C 0.95242 0.4786 0.01844 0.0
C866 C 0.91031 0.50186 0.04367 0.0
C867 C 0.90302 0.5141 0.0137 0.0
C868 C 0.92022 0.50758 0.986 0.0
C869 C 0.94408 0.48944 0.98829 0.0
C870 C 0.87041 0.59036 0.99326 0.0
C871 C 0.83523 0.57676 0.01172 0.0
C872 C 0.89142 0.56926 0.99295 0.0
C873 C 0.87841 0.53441 0.0117 0.0
C874 C 0.84266 0.52027 0.02959 0.0
C875 C 0.82113 0.54096 0.02934 0.0
H876 H 0.79045 0.78342 0.37019 0.0
H877 H 0.7909 0.76832 0.26764 0.0
H878 H 0.85906 0.79408 0.37348 0.0
H879 H 0.85797 0.7766 0.27079 0.0
H880 H 0.96912 0.76921 0.28632 0.0
H881 H 0.89811 0.74576 0.29523 0.0
H882 H 0.92938 0.85308 0.34943 0.0
H883 H 1.00106 0.87726 0.33976 0.0
C884 C 0.80471 0.7812 0.34858 0.0
C885 C 0.78529 0.77535 0.31872 0.0
C886 C 0.84411 0.78755 0.35034 0.0
C887 C 0.8644 0.78671 0.32232 0.0
C888 C 0.84345 0.77746 0.29289 0.0
C889 C 0.80478 0.77238 0.29109 0.0
C890 C 0.96104 0.78754 0.30079 0.0
C891 C 0.99107 0.82544 0.312 0.0
C892 C 0.92019 0.77407 0.3058 0.0
C893 C 0.90782 0.79768 0.32267 0.0
C894 C 0.93778 0.83402 0.33639 0.0
C895 C 0.97895 0.84783 0.33101 0.0
H896 H 0.17275 0.13382 0.33646 0.0
H897 H 0.28571 0.21227 0.28987 0.0
H898 H 0.19504 0.08488 0.34638 0.0
H899 H 0.30728 0.16328 0.29892 0.0
H900 H 0.28669 0.03443 0.2694 0.0
H901 H 0.27823 0.09323 0.27222 0.0
H902 H 0.25137 0.07187 0.37359 0.0
H903 H 0.26219 1.01401 0.37074 0.0
C904 C 0.20275 0.14127 0.32926 0.0
C905 C 0.22719 0.177 0.3121 0.0
C906 C 0.21549 0.11308 0.33477 0.0
C907 C 0.2528 0.11981 0.32301 0.0
C908 C 0.2782 0.15677 0.30793 0.0
C909 C 0.26579 0.18496 0.30285 0.0
C910 C 0.28057 0.0432 0.29258 0.0
C911 C 0.27528 0.01951 0.31996 0.0
C912 C 0.27534 0.07677 0.29417 0.0
C913 C 0.26348 0.08711 0.32304 0.0
C914 C 0.26003 0.06459 0.35086 0.0
C915 C 0.26656 0.03163 0.34938 0.0
H916 H 1.01001 0.26769 0.27262 0.0
H917 H 0.04888 0.24896 0.36481 0.0
H918 H 0.95181 0.19994 0.27484 0.0
H919 H 0.99056 0.18178 0.36769 0.0
H920 H 0.91952 0.04694 0.33182 0.0
H921 H 0.96931 0.11778 0.34108 0.0
H922 H 0.88846 0.15272 0.29977 0.0
H923 H 0.83914 0.0822 0.29049 0.0
C924 C 1.00511 0.24988 0.29414 0.0
C925 C 0.03325 0.26498 0.31934 0.0
C926 C 0.97178 0.21075 0.29538 0.0
C927 C 0.96608 0.18494 0.32153 0.0
C928 C 0.9937 0.20046 0.34713 0.0
C929 C 0.02681 0.23972 0.34593 0.0
C930 C 0.9119 0.06968 0.32573 0.0
C931 C 0.87531 0.05872 0.31032 0.0
C932 C 0.94057 0.11048 0.33086 0.0
C933 C 0.93342 0.14141 0.32067 0.0
C934 C 0.89562 0.13009 0.30732 0.0
C935 C 0.86709 0.0895 0.30228 0.0
H936 H 0.23299 0.81448 0.29897 0.0
H937 H 0.24435 0.80453 0.40133 0.0
H938 H 0.20079 0.74114 0.29383 0.0
H939 H 0.21309 0.73164 0.3963 0.0
H940 H 0.0997 0.60618 0.30995 0.0
H941 H 0.13666 0.6796 0.31021 0.0
H942 H 0.22529 0.6788 0.37329 0.0
H943 H 0.18846 0.60507 0.37254 0.0
C944 C 0.22825 0.79658 0.32039 0.0
C945 C 0.23991 0.81516 0.35072 0.0
C946 C 0.21003 0.75457 0.31746 0.0
C947 C 0.20423 0.73027 0.34467 0.0
C948 C 0.21729 0.74923 0.37478 0.0
C949 C 0.23499 0.79103 0.37771 0.0
C950 C 0.12737 0.6217 0.32355 0.0
C951 C 0.14109 0.59971 0.34127 0.0
C952 C 0.14862 0.66386 0.32366 0.0
C953 C 0.18378 0.68534 0.34206 0.0
C954 C 0.19808 0.66332 0.35914 0.0
C955 C 0.1772 0.62106 0.3585 0.0
H956 H 0.23625 0.43093 0.29814 0.0
H957 H 0.24565 0.45141 0.4006 0.0
H958 H 0.30949 0.47217 0.29316 0.0
H959 H 0.31858 0.49306 0.39576 0.0
H960 H 0.44598 0.59433 0.37279 0.0
H961 H 0.37227 0.55788 0.37368 0.0
H962 H 0.37049 0.46952 0.30863 0.0
H963 H 0.44385 0.50543 0.30835 0.0
C964 C 0.25402 0.44395 0.31963 0.0
C965 C 0.23528 0.43675 0.34992 0.0
C966 C 0.296 0.46778 0.31679 0.0
C967 C 0.32021 0.48602 0.34408 0.0
C968 C 0.3011 0.47989 0.37417 0.0
C969 C 0.25926 0.45577 0.377 0.0
C970 C 0.42975 0.56742 0.35836 0.0
C971 C 0.45079 0.55278 0.34053 0.0
C972 C 0.3875 0.54627 0.35908 0.0
C973 C 0.36518 0.51034 0.34151 0.0
C974 C 0.38641 0.49687 0.32252 0.0
C975 C 0.42854 0.5175 0.32234 0.0
H976 H 0.45501 0.85817 0.37333 0.0
H977 H 0.54444 0.9481 0.31096 0.0
H978 H 0.4921 0.82159 0.37313 0.0
H979 H 0.58105 0.91136 0.3102 0.0
H980 H 0.62029 0.81575 0.29735 0.0
H981 H 0.57893 0.84772 0.29308 0.0
H982 H 0.55735 0.83365 0.39555 0.0
H983 H 0.59924 0.80268 0.39974 0.0
C984 C 0.48216 0.8697 0.35909 0.0
C985 C 0.49673 0.90608 0.34219 0.0
C986 C 0.50368 0.84898 0.35919 0.0
C987 C 0.53996 0.86367 0.3419 0.0
C988 C 0.5534 0.89907 0.32381 0.0
C989 C 0.53237 0.92018 0.32425 0.0
C990 C 0.60716 0.82007 0.31898 0.0
C991 C 0.61422 0.80797 0.34906 0.0
C992 C 0.58322 0.83816 0.31654 0.0
C993 C 0.56467 0.84339 0.34399 0.0
C994 C 0.57074 0.82991 0.37384 0.0
C995 C 0.59501 0.81236 0.37629 0.0
H996 H 0.66035 0.19487 0.60849 0.0
H997 H 0.63981 0.12377 0.694 0.0
H998 H 0.59065 0.18025 0.61006 0.0
H999 H 0.57004 0.10913 0.69588 0.0
H1000 H 0.45802 0.12806 0.70045 0.0
H1001 H 0.52582 0.13874 0.70322 0.0
H1002 H 0.52368 0.1205 0.60054 0.0
H1003 H 0.45489 0.10833 0.59842 0.0
C1004 C 0.64128 0.17732 0.6283 0.0
C1005 C 0.65589 0.16144 0.65164 0.0
C1006 C 0.60106 0.16819 0.62887 0.0
C1007 C 0.57434 0.14295 0.65285 0.0
C1008 C 0.58962 0.12873 0.67712 0.0
C1009 C 0.62974 0.13748 0.6763 0.0
C1010 C 0.47079 0.12362 0.67895 0.0
C1011 C 0.44994 0.11528 0.64961 0.0
C1012 C 0.51034 0.13083 0.68029 0.0
C1013 C 0.53069 0.13102 0.65205 0.0
C1014 C 0.50934 0.12125 0.62277 0.0
C1015 C 0.46962 0.11359 0.62159 0.0
H1016 H 0.96711 0.37375 0.60863 0.0
H1017 H 0.90508 0.3343 0.69916 0.0
H1018 H 0.95879 0.43265 0.61021 0.0
H1019 H 0.89762 0.39315 0.70148 0.0
H1020 H 0.83711 0.46598 0.66402 0.0
H1021 H 0.85681 0.41535 0.67367 0.0
H1022 H 0.97461 0.49604 0.63519 0.0
H1023 H 0.95479 0.54627 0.62558 0.0
C1024 C 0.9537 0.3787 0.62981 0.0
C1025 C 0.93935 0.35023 0.65486 0.0
C1026 C 0.94851 0.41241 0.63062 0.0
C1027 C 0.92756 0.41812 0.65609 0.0
C1028 C 0.91394 0.3901 0.68146 0.0
C1029 C 0.9194 0.35662 0.68065 0.0
C1030 C 0.86759 0.47336 0.65862 0.0
C1031 C 0.89422 0.51022 0.6439 0.0
C1032 C 0.87895 0.44421 0.66398 0.0
C1033 C 0.91726 0.45112 0.65473 0.0
C1034 C 0.94464 0.48908 0.64201 0.0
C1035 C 0.93335 0.51812 0.63677 0.0
H1036 H 0.68272 0.59451 0.60156 0.0
H1037 H 0.71413 0.58683 0.69956 0.0
H1038 H 0.62593 0.52575 0.60531 0.0
H1039 H 0.65717 0.51929 0.70404 0.0
H1040 H 0.52746 0.40613 0.7034 0.0
H1041 H 0.58307 0.47579 0.70369 0.0
H1042 H 0.61884 0.45834 0.60925 0.0
H1043 H 0.56322 0.3888 0.60923 0.0
C1044 C 0.6765 0.57886 0.6244 0.0
C1045 C 0.70201 0.5973 0.65086 0.0
C1046 C 0.64436 0.53917 0.62642 0.0
C1047 C 0.63696 0.51665 0.65497 0.0
C1048 C 0.6614 0.53572 0.68182 0.0
C1049 C 0.69374 0.57518 0.67959 0.0
C1050 C 0.54825 0.41682 0.68332 0.0
C1051 C 0.54175 0.39166 0.65672 0.0
C1052 C 0.57983 0.4569 0.68326 0.0
C1053 C 0.60519 0.47306 0.65626 0.0
C1054 C 0.59955 0.44725 0.63022 0.0
C1055 C 0.56825 0.40711 0.63046 0.0
H1056 H 0.84865 0.93645 0.71854 0.0
H1057 H 0.78899 0.94302 0.63297 0.0
H1058 H 0.88679 1.0101 0.7214 0.0
H1059 H 0.82757 0.01642 0.63514 0.0
H1060 H 0.90006 0.13617 0.73903 0.0
H1061 H 0.87221 0.06361 0.73389 0.0
H1062 H 0.89338 0.0774 0.63128 0.0
H1063 H 0.92092 0.15005 0.63665 0.0
C1064 C 0.84436 0.95374 0.69999 0.0
C1065 C 0.81605 0.93409 0.67546 0.0
C1066 C 0.86589 0.99593 0.70174 0.0
C1067 C 0.86003 0.01947 0.67872 0.0
C1068 C 0.83297 0.99954 0.65333 0.0
C1069 C 0.81087 0.95743 0.65199 0.0
C1070 C 0.89884 0.12361 0.71542 0.0
C1071 C 0.91113 0.1485 0.68809 0.0
C1072 C 0.88316 0.08203 0.71245 0.0
C1073 C 0.88006 0.06431 0.68209 0.0
C1074 C 0.89452 0.08973 0.65496 0.0
C1075 C 0.9102 0.13136 0.65797 0.0
H1076 H 0.9029 0.76415 0.62996 0.0
H1077 H 0.9123 0.78404 0.7325 0.0
H1078 H 0.97612 0.80378 0.62513 0.0
H1079 H 0.98542 0.8238 0.7279 0.0
H1080 H 0.1146 0.92102 0.70566 0.0
H1081 H 0.04103 0.88697 0.70699 0.0
H1082 H 0.03514 0.79893 0.63938 0.0
H1083 H 0.10831 0.83236 0.63874 0.0
C1084 C 0.92069 0.77672 0.6515 0.0
C1085 C 0.90197 0.76981 0.68177 0.0
C1086 C 0.96267 0.79959 0.64877 0.0
C1087 C 0.98694 0.81693 0.67615 0.0
C1088 C 0.96788 0.81127 0.70623 0.0
C1089 C 0.92596 0.78824 0.70894 0.0
C1090 C 0.09747 0.89458 0.6909 0.0
C1091 C 0.11725 0.87927 0.67222 0.0
C1092 C 0.05531 0.87482 0.69185 0.0
C1093 C 0.03189 0.8397 0.67365 0.0
C1094 C 0.05192 0.82558 0.65389 0.0
C1095 C 0.09394 0.84477 0.6535 0.0
H1096 H 0.26269 0.12772 0.73992 0.0
H1097 H 0.2648 0.12363 0.6363 0.0
H1098 H 0.2192 0.15695 0.73743 0.0
H1099 H 0.22009 0.15163 0.63345 0.0
H1100 H 0.18989 0.2543 0.64253 0.0
H1101 H 0.22213 0.21352 0.64097 0.0
H1102 H 0.15567 0.14957 0.7258 0.0
H1103 H 0.12285 0.19014 0.72661 0.0
C1104 C 0.25345 0.13277 0.71657 0.0
C1105 C 0.26848 0.12503 0.68833 0.0
C1106 C 0.22813 0.14919 0.71507 0.0
C1107 C 0.21622 0.1573 0.68519 0.0
C1108 C 0.22924 0.14687 0.65691 0.0
C1109 C 0.25491 0.1308 0.65848 0.0
C1110 C 0.18176 0.23102 0.66047 0.0
C1111 C 0.15386 0.2253 0.68464 0.0
C1112 C 0.20031 0.20759 0.6597 0.0
C1113 C 0.19242 0.17859 0.6837 0.0
C1114 C 0.16333 0.17208 0.70728 0.0
C1115 C 0.14416 0.19503 0.70764 0.0
H1116 H 0.12116 0.34203 0.21346 0.0
H1117 H 0.15173 0.45434 0.25902 0.0
H1118 H 0.11081 0.3674 0.16234 0.0
H1119 H 0.14361 0.48077 0.20808 0.0
H1120 H 0.07411 0.49644 0.12373 0.0
H1121 H 0.09534 0.47794 0.17329 0.0
H1122 H 0.13367 0.40822 0.11753 0.0
H1123 H 0.11025 0.42492 0.06893 0.0
C1124 C 0.12709 0.37266 0.21223 0.0
C1125 C 0.13765 0.39626 0.2402 0.0
C1126 C 0.12108 0.38742 0.18287 0.0
C1127 C 0.12596 0.4264 0.18063 0.0
C1128 C 0.13849 0.45042 0.20854 0.0
C1129 C 0.14381 0.43546 0.23781 0.0
C1130 C 0.08862 0.47857 0.12208 0.0
C1131 C 0.09237 0.46396 0.09209 0.0
C1132 C 0.10061 0.46753 0.1506 0.0
C1133 C 0.11649 0.44131 0.14994 0.0
C1134 C 0.12135 0.42797 0.11959 0.0
C1135 C 0.109 0.43864 0.09134 0.0
H1136 H 0.70752 0.7318 0.23549 0.0
H1137 H 0.61652 0.76564 0.23403 0.0
H1138 H 0.68122 0.69429 0.18574 0.0
H1139 H 0.58874 0.7266 0.18415 0.0
H1140 H 0.57282 0.67203 0.07801 0.0
H1141 H 0.5946 0.71468 0.12639 0.0
H1142 H 0.62485 0.63231 0.17176 0.0
H1143 H 0.6049 0.59137 0.12339 0.0
C1144 C 0.68224 0.73184 0.22406 0.0
C1145 C 0.66446 0.7521 0.23856 0.0
C1146 C 0.66657 0.70966 0.19571 0.0
C1147 C 0.63189 0.70612 0.18108 0.0
C1148 C 0.61534 0.72836 0.19459 0.0
C1149 C 0.63143 0.75106 0.22307 0.0
C1150 C 0.58308 0.66257 0.09869 0.0
C1151 C 0.58721 0.62826 0.0967 0.0
C1152 C 0.59588 0.68721 0.12645 0.0
C1153 C 0.61289 0.67792 0.1529 0.0
C1154 C 0.6134 0.64156 0.1517 0.0
C1155 C 0.60106 0.61742 0.1241 0.0
H1156 H 0.35707 0.94418 0.07058 0.0
H1157 H 0.46379 0.97811 0.126 0.0
H1158 H 0.31625 0.92002 0.11885 0.0
H1159 H 0.42345 0.95613 0.17515 0.0
H1160 H 0.34271 0.8993 0.26031 0.0
H1161 H 0.37743 0.90767 0.2094 0.0
H1162 H 0.29808 0.94208 0.16395 0.0
H1163 H 0.26209 0.93137 0.215 0.0
C1164 C 0.37168 0.94478 0.09301 0.0
C1165 C 0.41358 0.96102 0.09399 0.0
C1166 C 0.34827 0.93198 0.12109 0.0
C1167 C 0.36603 0.936 0.15151 0.0
C1168 C 0.40805 0.95147 0.15239 0.0
C1169 C 0.43146 0.96388 0.12406 0.0
C1170 C 0.33205 0.90764 0.23916 0.0
C1171 C 0.29929 0.91415 0.24162 0.0
C1172 C 0.35244 0.9131 0.20991 0.0
C1173 C 0.34137 0.92619 0.1821 0.0
C1174 C 0.30751 0.93141 0.1844 0.0
C1175 C 0.2866 0.92521 0.21373 0.0
H1176 H 0.48569 0.11994 0.92461 0.0
H1177 H 0.44402 1.00198 0.88518 0.0
H1178 H 0.47489 0.1431 0.87311 0.0
H1179 H 0.43105 0.02429 0.8336 0.0
H1180 H 0.42847 0.07593 0.73786 0.0
H1181 H 0.45248 0.06063 0.78662 0.0
H1182 H 0.42629 0.14162 0.83953 0.0
H1183 H 0.40418 0.15846 0.78965 0.0
C1184 C 0.47453 0.09897 0.90465 0.0
C1185 C 0.46607 0.05915 0.90898 0.0
C1186 C 0.46774 0.11216 0.87507 0.0
C1187 C 0.4515 0.08579 0.84873 0.0
C1188 C 0.44416 0.04605 0.85285 0.0
C1189 C 0.45163 0.03302 0.8825 0.0
C1190 C 0.42945 0.0919 0.75961 0.0
C1191 C 0.41571 0.11968 0.75934 0.0
C1192 C 0.4424 0.08228 0.78801 0.0
C1193 C 0.44119 0.09929 0.81768 0.0
C1194 C 0.42851 0.12812 0.81733 0.0
C1195 C 0.41597 0.13818 0.78856 0.0
H1196 H 0.93227 0.37272 0.92678 0.0
H1197 H 0.04385 0.45539 0.88062 0.0
H1198 H 0.9056 0.33818 0.87591 0.0
H1199 H 1.01838 0.41951 0.82959 0.0
H1200 H 0.96111 0.36028 0.73641 0.0
H1201 H 0.97804 0.4008 0.78482 0.0
H1202 H 0.90774 0.29302 0.84096 0.0
H1203 H 0.8889 0.25305 0.79165 0.0
C1204 C 0.95099 0.38381 0.90547 0.0
C1205 C 0.99003 0.41712 0.90769 0.0
C1206 C 0.93588 0.36353 0.87621 0.0
C1207 C 0.95965 0.37522 0.84813 0.0
C1208 C 0.99852 0.40957 0.85023 0.0
C1209 C 1.01336 0.4304 0.87956 0.0
C1210 C 0.94717 0.3455 0.75882 0.0
C1211 C 0.92147 0.30355 0.75971 0.0
C1212 C 0.95804 0.36874 0.78701 0.0
C1213 C 0.94462 0.35074 0.81745 0.0
C1214 C 0.91818 0.30864 0.81824 0.0
C1215 C 0.90691 0.28544 0.78982 0.0
H1216 H 0.79879 0.64444 0.78842 0.0
H1217 H 0.69126 0.61767 0.73682 0.0
H1218 H 0.76015 0.62261 0.83857 0.0
H1219 H 0.65207 0.59309 0.78561 0.0
H1220 H 0.59921 0.59897 0.88295 0.0
H1221 H 0.63465 0.61172 0.83162 0.0
H1222 H 0.71519 0.57667 0.87399 0.0
H1223 H 0.68113 0.56674 0.92546 0.0
C1224 C 0.7666 0.63206 0.78751 0.0
C1225 C 0.74802 0.63136 0.75826 0.0
C1226 C 0.74414 0.6196 0.81641 0.0
C1227 C 0.70237 0.60592 0.81684 0.0
C1228 C 0.68394 0.60394 0.78708 0.0
C1229 C 0.70642 0.61708 0.7586 0.0
C1230 C 0.62389 0.59313 0.88094 0.0
C1231 C 0.63698 0.58137 0.90818 0.0
C1232 C 0.64453 0.60048 0.85137 0.0
C1233 C 0.67852 0.59558 0.848 0.0
C1234 C 0.69012 0.58192 0.87521 0.0
C1235 C 0.67006 0.57548 0.90479 0.0
H1236 H 0.80862 0.82359 0.41527 0.0
H1237 H 0.689 0.76711 0.45468 0.0
H1238 H 0.83137 0.80248 0.46296 0.0
H1239 H 0.71141 0.74708 0.50208 0.0
H1240 H 0.74132 0.67052 0.56221 0.0
H1241 H 0.72844 0.69656 0.51287 0.0
H1242 H 0.84341 0.80505 0.52214 0.0
H1243 H 0.85655 0.7779 0.57145 0.0
C1244 C 0.78734 0.80751 0.43432 0.0
C1245 C 0.74659 0.79605 0.43056 0.0
C1246 C 0.80036 0.79523 0.46172 0.0
C1247 C 0.77296 0.77152 0.48606 0.0
C1248 C 0.73323 0.76373 0.48347 0.0
C1249 C 0.7204 0.7758 0.45634 0.0
C1250 C 0.76448 0.6993 0.55306 0.0
C1251 C 0.80034 0.72165 0.57034 0.0
C1252 C 0.75682 0.71473 0.52504 0.0
C1253 C 0.7844 0.75355 0.51363 0.0
C1254 C 0.8214 0.77511 0.52998 0.0
C1255 C 0.82916 0.75941 0.55812 0.0
H1256 H 0.27815 0.92704 0.45613 0.0
H1257 H 0.22513 0.99337 0.41676 0.0
H1258 H 0.29783 0.96854 0.5041 0.0
H1259 H 0.24623 0.03648 0.46485 0.0
H1260 H 0.27071 0.08554 0.5733 0.0
H1261 H 0.24333 0.04588 0.52372 0.0
H1262 H 0.34951 0.03533 0.51531 0.0
H1263 H 0.37568 0.07349 0.56494 0.0
C1264 C 0.27011 0.95024 0.45793 0.0
C1265 C 0.25107 0.95745 0.43201 0.0
C1266 C 0.28202 0.97461 0.48536 0.0
C1267 C 0.27536 1.00729 0.48801 0.0
C1268 C 0.25265 1.01214 0.46353 0.0
C1269 C 0.24043 0.98731 0.43588 0.0
C1270 C 0.28866 0.07585 0.5601 0.0
C1271 C 0.32569 0.08323 0.57269 0.0
C1272 C 0.27282 0.05276 0.53183 0.0
C1273 C 0.2936 0.03633 0.5157 0.0
C1274 C 0.33189 0.04625 0.52738 0.0
C1275 C 0.34741 0.06889 0.55556 0.0
H1276 H 1.01277 0.23666 0.59249 0.0
H1277 H 0.93306 0.27149 0.54918 0.0
H1278 H 0.0469 0.24561 0.54135 0.0
H1279 H 0.9685 0.28245 0.49772 0.0
H1280 H 0.02394 0.27988 0.40315 0.0
H1281 H 0.98451 0.25806 0.45229 0.0
H1282 H 0.09301 0.29441 0.50683 0.0
H1283 H 0.13203 0.31439 0.45683 0.0
C1284 C 1.00235 0.24608 0.57182 0.0
C1285 C 0.97004 0.25326 0.57499 0.0
C1286 C 0.02235 0.25171 0.5424 0.0
C1287 C 1.01126 0.26539 0.515 0.0
C1288 C 0.97793 0.27139 0.51792 0.0
C1289 C 0.9574 0.26512 0.54748 0.0
C1290 C 0.03911 0.2812 0.42546 0.0
C1291 C 0.08097 0.29699 0.42576 0.0
C1292 C 1.01653 0.26971 0.45396 0.0
C1293 C 0.03511 0.27443 0.48408 0.0
C1294 C 0.07707 0.28936 0.4843 0.0
C1295 C 0.09967 0.30058 0.45554 0.0
loop_
_geom_bond_atom_site_label_1
_geom_bond_atom_site_label_2
_geom_bond_distance
_geom_bond_site_symmetry_2
_ccdc_geom_bond_type
Gd0 N31 2.661 1_654 S
Gd0 N37 2.616 . S
Gd0 O44 2.545 . S
Gd0 O45 2.606 . S
Gd0 O47 2.429 1_655 S
Gd0 O48 2.545 . S
Gd0 O49 2.412 1_554 S
Gd0 O51 2.362 1_655 S
Gd0 O52 2.324 1_554 S
Gd0 C59 2.828 . S
Gd1 N10 2.661 1_556 S
Gd1 N14 2.601 . S
Gd1 O45 2.362 1_456 S
Gd1 O46 2.324 1_556 S
Gd1 O50 2.545 . S
Gd1 O51 2.606 1_556 S
Gd1 O53 2.429 . S
Gd1 O54 2.545 . S
Gd1 O55 2.412 1_556 S
Gd1 C68 2.828 . S
C2 C5 1.417 1_554 S
C2 C7 1.431 1_554 S
C2 C8 1.412 . S
C3 C6 1.437 . S
C3 C7 1.317 . S
C3 H22 0.929 . S
C4 C5 1.430 . S
C4 C6 1.424 . S
C4 N14 1.345 1_655 S
C5 C2 1.417 1_556 S
C5 C4 1.430 . S
C5 N10 1.350 1_656 S
C6 C3 1.437 . S
C6 C4 1.424 . S
C6 C16 1.399 . S
C7 C2 1.431 1_556 S
C7 C3 1.317 . S
C7 H18 0.930 . S
C8 C2 1.412 . S
C8 C9 1.355 . S
C8 H20 0.930 . S
C9 C8 1.355 . S
C9 C11 1.402 . S
C9 H21 0.930 . S
N10 Gd1 2.661 1_554 S
N10 C5 1.350 1_454 S
N10 C11 1.307 1_455 S
C11 C9 1.402 . S
C11 N10 1.307 1_655 S
C11 H12 0.930 1_655 S
H12 C11 0.930 1_455 S
C13 N14 1.334 . S
C13 C15 1.394 . S
C13 H17 0.930 . S
N14 Gd1 2.601 . S
N14 C4 1.345 1_455 S
N14 C13 1.334 . S
C15 C13 1.394 . S
C15 C16 1.334 1_455 S
C15 H27 0.930 . S
C16 C6 1.399 . S
C16 C15 1.334 1_655 S
C16 H28 0.947 . S
H17 C13 0.930 . S
H18 C7 0.930 . S
H19 C36 0.930 . S
H20 C8 0.930 . S
H21 C9 0.930 . S
H22 C3 0.929 . S
H23 C41 0.930 . S
H24 C32 0.930 . S
H25 C33 0.930 . S
H26 C57 0.929 . S
H27 C15 0.930 . S
H28 C16 0.947 . S
H29 C58 0.930 . S
H30 C39 0.930 . S
N31 Gd0 2.661 1_456 S
N31 C35 1.350 1_556 S
N31 C36 1.307 . S
C32 H24 0.930 . S
C32 C33 1.355 . S
C32 C34 1.412 . S
C33 H25 0.930 . S
C33 C32 1.355 . S
C33 C36 1.402 . S
C34 C32 1.412 . S
C34 C35 1.417 1_556 S
C34 C58 1.431 1_556 S
C35 N31 1.350 1_554 S
C35 C34 1.417 1_554 S
C35 C38 1.426 . S
C36 H19 0.930 . S
C36 N31 1.307 . S
C36 C33 1.402 . S
N37 Gd0 2.616 . S
N37 C38 1.342 1_655 S
N37 C41 1.339 . S
C38 C35 1.426 . S
C38 N37 1.342 1_455 S
C38 C42 1.413 . S
C39 H30 0.930 . S
C39 C40 1.359 1_655 S
C39 C41 1.394 . S
C40 C39 1.359 1_455 S
C40 C42 1.391 . S
C40 H43 0.929 . S
C41 H23 0.930 . S
C41 N37 1.339 . S
C41 C39 1.394 . S
C42 C38 1.413 . S
C42 C40 1.391 . S
C42 C57 1.437 . S
H43 C40 0.929 . S
O44 Gd0 2.545 . S
O44 C59 1.258 . S
O45 Gd0 2.606 . S
O45 Gd1 2.362 1_654 S
O45 C56 1.284 . S
O46 Gd1 2.324 1_554 S
O46 C66 1.254 . S
O47 Gd0 2.429 1_455 S
O47 C66 1.268 . S
O48 Gd0 2.545 . S
O48 C56 1.250 . S
O49 Gd0 2.412 1_556 S
O49 C59 1.252 1_556 S
O50 Gd1 2.545 . S
O50 C68 1.258 . S
O51 Gd0 2.362 1_455 S
O51 Gd1 2.606 1_554 S
O51 C67 1.284 1_554 S
O52 Gd0 2.324 1_556 S
O52 C75 1.254 . S
O53 Gd1 2.429 . S
O53 C75 1.268 1_455 S
O54 Gd1 2.545 . S
O54 C67 1.250 . S
O55 Gd1 2.412 1_554 S
O55 C68 1.252 1_554 S
C56 O45 1.284 . S
C56 O48 1.250 . S
C57 H26 0.929 . S
C57 C42 1.437 . S
C57 C58 1.317 . S
C58 H29 0.930 . S
C58 C34 1.431 1_554 S
C58 C57 1.317 . S
C59 Gd0 2.828 . S
C59 O44 1.258 . S
C59 O49 1.252 1_554 S
C59 C60 1.497 . S
C60 C59 1.497 . S
C60 C61 1.395 . S
C60 C62 1.380 1_554 S
C61 C60 1.395 . S
C61 C64 1.398 . S
C61 H76 0.930 . S
C62 C60 1.380 1_556 S
C62 C63 1.391 . S
C62 H77 0.930 . S
C63 C62 1.391 . S
C63 C65 1.387 1_556 S
C64 C61 1.398 . S
C64 C65 1.380 . S
C64 H78 0.930 . S
C65 C63 1.387 1_554 S
C65 C64 1.380 . S
C65 H79 0.930 . S
C66 O46 1.254 . S
C66 O47 1.268 . S
C67 O51 1.284 1_556 S
C67 O54 1.250 . S
C68 Gd1 2.828 . S
C68 O50 1.258 . S
C68 O55 1.252 1_556 S
C68 C69 1.497 . S
C69 C68 1.497 . S
C69 C70 1.395 . S
C69 C71 1.380 1_556 S
C70 C69 1.395 . S
C70 C73 1.398 . S
C70 H80 0.930 . S
C71 C69 1.380 1_554 S
C71 C72 1.391 . S
C71 H81 0.930 . S
C72 C71 1.391 . S
C72 C74 1.387 1_554 S
C73 C70 1.398 . S
C73 C74 1.380 . S
C73 H82 0.930 . S
C74 C72 1.387 1_556 S
C74 C73 1.380 . S
C74 H83 0.930 . S
C75 O52 1.254 . S
C75 O53 1.268 1_655 S
H76 C61 0.930 . S
H77 C62 0.930 . S
H78 C64 0.930 . S
H79 C65 0.930 . S
H80 C70 0.930 . S
H81 C71 0.930 . S
H82 C73 0.930 . S
H83 C74 0.930 . S
Gd84 N115 2.661 1_554 S
Gd84 N121 2.601 . S
Gd84 O128 2.545 . S
Gd84 O129 2.606 . S
Gd84 O131 2.429 . S
Gd84 O132 2.545 . S
Gd84 O133 2.412 1_554 S
Gd84 O135 2.362 . S
Gd84 O136 2.324 1_554 S
Gd84 C143 2.828 . S
Gd85 N94 2.661 1_556 S
Gd85 N98 2.601 . S
Gd85 O129 2.362 1_556 S
Gd85 O130 2.324 1_556 S
Gd85 O134 2.545 . S
Gd85 O135 2.606 1_556 S
Gd85 O137 2.429 . S
Gd85 O138 2.545 . S
Gd85 O139 2.412 1_556 S
Gd85 C152 2.828 . S
C86 C89 1.417 1_554 S
C86 C91 1.431 1_554 S
C86 C92 1.412 . S
C87 C90 1.437 . S
C87 C91 1.317 . S
C87 H106 0.929 . S
C88 C89 1.426 . S
C88 C90 1.413 . S
C88 N98 1.359 . S
C89 C86 1.417 1_556 S
C89 C88 1.426 . S
C89 N94 1.350 1_556 S
C90 C87 1.437 . S
C90 C88 1.413 . S
C90 C100 1.391 . S
C91 C86 1.431 1_556 S
C91 C87 1.317 . S
C91 H102 0.930 . S
C92 C86 1.412 . S
C92 C93 1.355 . S
C92 H104 0.930 . S
C93 C92 1.355 . S
C93 C95 1.402 . S
C93 H105 0.930 . S
N94 Gd85 2.661 1_554 S
N94 C89 1.350 1_554 S
N94 C95 1.307 . S
C95 C93 1.402 . S
C95 N94 1.307 . S
C95 H96 0.930 . S
H96 C95 0.930 . S
C97 N98 1.334 . S
C97 C99 1.394 . S
C97 H101 0.930 . S
N98 Gd85 2.601 . S
N98 C88 1.359 . S
N98 C97 1.334 . S
C99 C97 1.394 . S
C99 C100 1.359 . S
C99 H111 0.930 . S
C100 C90 1.391 . S
C100 C99 1.359 . S
C100 H112 0.929 . S
H101 C97 0.930 . S
H102 C91 0.930 . S
H103 C120 0.930 . S
H104 C92 0.930 . S
H105 C93 0.930 . S
H106 C87 0.929 . S
H107 C125 0.930 . S
H108 C116 0.930 . S
H109 C117 0.930 . S
H110 C141 0.929 . S
H111 C99 0.930 . S
H112 C100 0.929 . S
H113 C142 0.930 . S
H114 C123 0.930 . S
N115 Gd84 2.661 1_556 S
N115 C119 1.350 1_556 S
N115 C120 1.307 . S
C116 H108 0.930 . S
C116 C117 1.355 . S
C116 C118 1.412 . S
C117 H109 0.930 . S
C117 C116 1.355 . S
C117 C120 1.402 . S
C118 C116 1.412 . S
C118 C119 1.417 1_556 S
C118 C142 1.431 1_556 S
C119 N115 1.350 1_554 S
C119 C118 1.417 1_554 S
C119 C122 1.426 . S
C120 H103 0.930 . S
C120 N115 1.307 . S
C120 C117 1.402 . S
N121 Gd84 2.601 . S
N121 C122 1.359 . S
N121 C125 1.334 . S
C122 C119 1.426 . S
C122 N121 1.359 . S
C122 C126 1.413 . S
C123 H114 0.930 . S
C123 C124 1.359 . S
C123 C125 1.394 . S
C124 C123 1.359 . S
C124 C126 1.391 . S
C124 H127 0.929 . S
C125 H107 0.930 . S
C125 N121 1.334 . S
C125 C123 1.394 . S
C126 C122 1.413 . S
C126 C124 1.391 . S
C126 C141 1.437 . S
H127 C124 0.929 . S
O128 Gd84 2.545 . S
O128 C143 1.258 . S
O129 Gd84 2.606 . S
O129 Gd85 2.362 1_554 S
O129 C140 1.284 . S
O130 Gd85 2.324 1_554 S
O130 C150 1.254 . S
O131 Gd84 2.429 . S
O131 C150 1.268 . S
O132 Gd84 2.545 . S
O132 C140 1.250 . S
O133 Gd84 2.412 1_556 S
O133 C143 1.252 1_556 S
O134 Gd85 2.545 . S
O134 C152 1.258 . S
O135 Gd84 2.362 . S
O135 Gd85 2.606 1_554 S
O135 C151 1.284 1_554 S
O136 Gd84 2.324 1_556 S
O136 C159 1.254 . S
O137 Gd85 2.429 . S
O137 C159 1.268 . S
O138 Gd85 2.545 . S
O138 C151 1.250 . S
O139 Gd85 2.412 1_554 S
O139 C152 1.252 1_554 S
C140 O129 1.284 . S
C140 O132 1.250 . S
C141 H110 0.929 . S
C141 C126 1.437 . S
C141 C142 1.317 . S
C142 H113 0.930 . S
C142 C118 1.431 1_554 S
C142 C141 1.317 . S
C143 Gd84 2.828 . S
C143 O128 1.258 . S
C143 O133 1.252 1_554 S
C143 C144 1.497 . S
C144 C143 1.497 . S
C144 C145 1.395 . S
C144 C146 1.380 1_554 S
C145 C144 1.395 . S
C145 C148 1.398 . S
C145 H160 0.930 . S
C146 C144 1.380 1_556 S
C146 C147 1.391 . S
C146 H161 0.930 . S
C147 C146 1.391 . S
C147 C149 1.387 1_556 S
C148 C145 1.398 . S
C148 C149 1.380 . S
C148 H162 0.930 . S
C149 C147 1.387 1_554 S
C149 C148 1.380 . S
C149 H163 0.930 . S
C150 O130 1.254 . S
C150 O131 1.268 . S
C151 O135 1.284 1_556 S
C151 O138 1.250 . S
C152 Gd85 2.828 . S
C152 O134 1.258 . S
C152 O139 1.252 1_556 S
C152 C153 1.497 . S
C153 C152 1.497 . S
C153 C154 1.395 . S
C153 C155 1.380 1_556 S
C154 C153 1.395 . S
C154 C157 1.398 . S
C154 H164 0.930 . S
C155 C153 1.380 1_554 S
C155 C156 1.391 . S
C155 H165 0.930 . S
C156 C155 1.391 . S
C156 C158 1.387 1_554 S
C157 C154 1.398 . S
C157 C158 1.380 . S
C157 H166 0.930 . S
C158 C156 1.387 1_556 S
C158 C157 1.380 . S
C158 H167 0.930 . S
C159 O136 1.254 . S
C159 O137 1.268 . S
H160 C145 0.930 . S
H161 C146 0.930 . S
H162 C148 0.930 . S
H163 C149 0.930 . S
H164 C154 0.930 . S
H165 C155 0.930 . S
H166 C157 0.930 . S
H167 C158 0.930 . S
Gd168 N199 2.661 1_554 S
Gd168 N205 2.601 . S
Gd168 O212 2.545 . S
Gd168 O213 2.606 . S
Gd168 O215 2.429 . S
Gd168 O216 2.545 . S
Gd168 O217 2.412 1_554 S
Gd168 O219 2.362 1_545 S
Gd168 O220 2.324 1_554 S
Gd168 C227 2.828 . S
Gd169 N178 2.661 1_566 S
Gd169 N182 2.601 . S
Gd169 O213 2.362 1_566 S
Gd169 O214 2.324 1_556 S
Gd169 O218 2.545 . S
Gd169 O219 2.606 1_556 S
Gd169 O221 2.417 1_565 S
Gd169 O222 2.545 . S
Gd169 O223 2.412 1_556 S
Gd169 C236 2.828 . S
C170 C173 1.417 1_554 S
C170 C175 1.431 1_554 S
C170 C176 1.412 . S
C171 C174 1.437 . S
C171 C175 1.317 . S
C171 H190 0.929 . S
C172 C173 1.426 . S
C172 C174 1.413 . S
C172 N182 1.359 1_545 S
C173 C170 1.417 1_556 S
C173 C172 1.426 . S
C173 N178 1.350 1_556 S
C174 C171 1.437 . S
C174 C172 1.413 . S
C174 C184 1.391 . S
C175 C170 1.431 1_556 S
C175 C171 1.317 . S
C175 H186 0.930 . S
C176 C170 1.412 . S
C176 C177 1.355 . S
C176 H188 0.930 . S
C177 C176 1.355 . S
C177 C179 1.402 . S
C177 H189 0.930 . S
N178 Gd169 2.661 1_544 S
N178 C173 1.350 1_554 S
N178 C179 1.307 . S
C179 C177 1.402 . S
C179 N178 1.307 . S
C179 H180 0.930 . S
H180 C179 0.930 . S
C181 N182 1.334 . S
C181 C183 1.394 . S
C181 H185 0.930 . S
N182 Gd169 2.601 . S
N182 C172 1.359 1_565 S
N182 C181 1.334 . S
C183 C181 1.394 . S
C183 C184 1.359 1_565 S
C183 H195 0.930 . S
C184 C174 1.391 . S
C184 C183 1.359 1_545 S
C184 H196 0.929 . S
H185 C181 0.930 . S
H186 C175 0.930 . S
H187 C204 0.931 1_545 S
H188 C176 0.930 . S
H189 C177 0.930 . S
H190 C171 0.929 . S
H191 C209 0.930 . S
H192 C200 0.930 . S
H193 C201 0.930 . S
H194 C225 0.929 . S
H195 C183 0.930 . S
H196 C184 0.929 . S
H197 C226 0.930 . S
H198 C207 0.930 . S
N199 Gd168 2.661 1_556 S
N199 C203 1.350 1_546 S
N199 C204 1.307 1_545 S
C200 H192 0.930 . S
C200 C201 1.355 . S
C200 C202 1.412 . S
C201 H193 0.930 . S
C201 C200 1.355 . S
C201 C204 1.402 . S
C202 C200 1.412 . S
C202 C203 1.417 1_556 S
C202 C226 1.431 1_556 S
C203 N199 1.350 1_564 S
C203 C202 1.417 1_554 S
C203 C206 1.426 . S
C204 H187 0.931 1_565 S
C204 N199 1.307 1_565 S
C204 C201 1.402 . S
N205 Gd168 2.601 . S
N205 C206 1.359 1_545 S
N205 C209 1.334 . S
C206 C203 1.426 . S
C206 N205 1.359 1_565 S
C206 C210 1.413 . S
C207 H198 0.930 . S
C207 C208 1.359 1_545 S
C207 C209 1.394 . S
C208 C207 1.359 1_565 S
C208 C210 1.391 . S
C208 H211 0.929 . S
C209 H191 0.930 . S
C209 N205 1.334 . S
C209 C207 1.394 . S
C210 C206 1.413 . S
C210 C208 1.391 . S
C210 C225 1.437 . S
H211 C208 0.929 . S
O212 Gd168 2.545 . S
O212 C227 1.258 . S
O213 Gd168 2.606 . S
O213 Gd169 2.362 1_544 S
O213 C224 1.284 . S
O214 Gd169 2.324 1_554 S
O214 C234 1.254 . S
O215 Gd168 2.429 . S
O215 C234 1.268 1_545 S
O216 Gd168 2.545 . S
O216 C224 1.250 . S
O217 Gd168 2.412 1_556 S
O217 C227 1.252 1_556 S
O218 Gd169 2.545 . S
O218 C236 1.258 . S
O219 Gd168 2.362 1_565 S
O219 Gd169 2.606 1_554 S
O219 C235 1.284 1_554 S
O220 Gd168 2.324 1_556 S
O220 C243 1.254 . S
O221 Gd169 2.417 1_545 S
O221 C243 1.290 . S
O222 Gd169 2.545 . S
O222 C235 1.250 . S
O223 Gd169 2.412 1_554 S
O223 C236 1.252 1_554 S
C224 O213 1.284 . S
C224 O216 1.250 . S
C225 H194 0.929 . S
C225 C210 1.437 . S
C225 C226 1.317 . S
C226 H197 0.930 . S
C226 C202 1.431 1_554 S
C226 C225 1.317 . S
C227 Gd168 2.828 . S
C227 O212 1.258 . S
C227 O217 1.252 1_554 S
C227 C228 1.497 . S
C228 C227 1.497 . S
C228 C229 1.395 . S
C228 C230 1.380 1_554 S
C229 C228 1.395 . S
C229 C232 1.398 . S
C229 H244 0.930 . S
C230 C228 1.380 1_556 S
C230 C231 1.391 . S
C230 H245 0.930 . S
C231 C230 1.391 . S
C231 C233 1.387 1_556 S
C232 C229 1.398 . S
C232 C233 1.380 . S
C232 H246 0.930 . S
C233 C231 1.387 1_554 S
C233 C232 1.380 . S
C233 H247 0.930 . S
C234 O214 1.254 . S
C234 O215 1.268 1_565 S
C235 O219 1.284 1_556 S
C235 O222 1.250 . S
C236 Gd169 2.828 . S
C236 O218 1.258 . S
C236 O223 1.252 1_556 S
C236 C237 1.497 . S
C237 C236 1.497 . S
C237 C238 1.395 . S
C237 C239 1.380 1_556 S
C238 C237 1.395 . S
C238 C241 1.398 . S
C238 H248 0.930 . S
C239 C237 1.380 1_554 S
C239 C240 1.391 . S
C239 H249 0.930 . S
C240 C239 1.391 . S
C240 C242 1.387 1_554 S
C241 C238 1.398 . S
C241 C242 1.380 . S
C241 H250 0.930 . S
C242 C240 1.387 1_556 S
C242 C241 1.380 . S
C242 H251 0.930 . S
C243 O220 1.254 . S
C243 O221 1.290 . S
H244 C229 0.930 . S
H245 C230 0.930 . S
H246 C232 0.930 . S
H247 C233 0.930 . S
H248 C238 0.930 . S
H249 C239 0.930 . S
H250 C241 0.930 . S
H251 C242 0.930 . S
Gd252 N283 2.661 . S
Gd252 N289 2.601 . S
Gd252 O296 2.545 . S
Gd252 O297 2.606 . S
Gd252 O299 2.429 . S
Gd252 O300 2.545 . S
Gd252 O301 2.412 . S
Gd252 O303 2.362 . S
Gd252 O304 2.324 . S
Gd252 C311 2.828 . S
Gd253 N262 2.661 . S
Gd253 N266 2.601 . S
Gd253 O297 2.362 . S
Gd253 O298 2.324 . S
Gd253 O302 2.545 . S
Gd253 O303 2.606 . S
Gd253 O305 2.429 . S
Gd253 O306 2.545 . S
Gd253 O307 2.412 . S
Gd253 C320 2.828 . S
C254 C257 1.417 . S
C254 C259 1.431 . S
C254 C260 1.412 . S
C255 C258 1.437 . S
C255 C259 1.317 . S
C255 H274 0.929 . S
C256 C257 1.426 . S
C256 C258 1.413 . S
C256 N266 1.359 . S
C257 C254 1.417 . S
C257 C256 1.426 . S
C257 N262 1.350 . S
C258 C255 1.437 . S
C258 C256 1.413 . S
C258 C268 1.391 . S
C259 C254 1.431 . S
C259 C255 1.317 . S
C259 H270 0.930 . S
C260 C254 1.412 . S
C260 C261 1.355 . S
C260 H272 0.930 . S
C261 C260 1.355 . S
C261 C263 1.402 . S
C261 H273 0.930 . S
N262 Gd253 2.661 . S
N262 C257 1.350 . S
N262 C263 1.307 . S
C263 C261 1.402 . S
C263 N262 1.307 . S
C263 H264 0.930 . S
H264 C263 0.930 . S
C265 N266 1.334 . S
C265 C267 1.394 . S
C265 H269 0.930 . S
N266 Gd253 2.601 . S
N266 C256 1.359 . S
N266 C265 1.334 . S
C267 C265 1.394 . S
C267 C268 1.359 . S
C267 H279 0.930 . S
C268 C258 1.391 . S
C268 C267 1.359 . S
C268 H280 0.929 . S
H269 C265 0.930 . S
H270 C259 0.930 . S
H271 C288 0.930 . S
H272 C260 0.930 . S
H273 C261 0.930 . S
H274 C255 0.929 . S
H275 C293 0.930 . S
H276 C284 0.930 . S
H277 C285 0.930 . S
H278 C309 0.929 . S
H279 C267 0.930 . S
H280 C268 0.929 . S
H281 C310 0.930 . S
H282 C291 0.930 . S
N283 Gd252 2.661 . S
N283 C287 1.350 . S
N283 C288 1.307 . S
C284 H276 0.930 . S
C284 C285 1.355 . S
C284 C286 1.412 . S
C285 H277 0.930 . S
C285 C284 1.355 . S
C285 C288 1.402 . S
C286 C284 1.412 . S
C286 C287 1.417 . S
C286 C310 1.431 . S
C287 N283 1.350 . S
C287 C286 1.417 . S
C287 C290 1.426 . S
C288 H271 0.930 . S
C288 N283 1.307 . S
C288 C285 1.402 . S
N289 Gd252 2.601 . S
N289 C290 1.359 . S
N289 C293 1.334 . S
C290 C287 1.426 . S
C290 N289 1.359 . S
C290 C294 1.413 . S
C291 H282 0.930 . S
C291 C292 1.359 . S
C291 C293 1.394 . S
C292 C291 1.359 . S
C292 C294 1.391 . S
C292 H295 0.929 . S
C293 H275 0.930 . S
C293 N289 1.334 . S
C293 C291 1.394 . S
C294 C290 1.413 . S
C294 C292 1.391 . S
C294 C309 1.437 . S
H295 C292 0.929 . S
O296 Gd252 2.545 . S
O296 C311 1.258 . S
O297 Gd252 2.606 . S
O297 Gd253 2.362 . S
O297 C308 1.284 . S
O298 Gd253 2.324 . S
O298 C318 1.254 . S
O299 Gd252 2.429 . S
O299 C318 1.268 . S
O300 Gd252 2.545 . S
O300 C308 1.250 . S
O301 Gd252 2.412 . S
O301 C311 1.252 . S
O302 Gd253 2.545 . S
O302 C320 1.258 . S
O303 Gd252 2.362 . S
O303 Gd253 2.606 . S
O303 C319 1.284 . S
O304 Gd252 2.324 . S
O304 C327 1.254 . S
O305 Gd253 2.429 . S
O305 C327 1.268 . S
O306 Gd253 2.545 . S
O306 C319 1.250 . S
O307 Gd253 2.412 . S
O307 C320 1.252 . S
C308 O297 1.284 . S
C308 O300 1.250 . S
C309 H278 0.929 . S
C309 C294 1.437 . S
C309 C310 1.317 . S
C310 H281 0.930 . S
C310 C286 1.431 . S
C310 C309 1.317 . S
C311 Gd252 2.828 . S
C311 O296 1.258 . S
C311 O301 1.252 . S
C311 C312 1.497 . S
C312 C311 1.497 . S
C312 C313 1.395 . S
C312 C314 1.380 . S
C313 C312 1.395 . S
C313 C316 1.398 . S
C313 H328 0.930 . S
C314 C312 1.380 . S
C314 C315 1.391 . S
C314 H329 0.930 . S
C315 C314 1.391 . S
C315 C317 1.387 . S
C316 C313 1.398 . S
C316 C317 1.380 . S
C316 H330 0.930 . S
C317 C315 1.387 . S
C317 C316 1.380 . S
C317 H331 0.930 . S
C318 O298 1.254 . S
C318 O299 1.268 . S
C319 O303 1.284 . S
C319 O306 1.250 . S
C320 Gd253 2.828 . S
C320 O302 1.258 . S
C320 O307 1.252 . S
C320 C321 1.497 . S
C321 C320 1.497 . S
C321 C322 1.395 . S
C321 C323 1.380 . S
C322 C321 1.395 . S
C322 C325 1.398 1_565 S
C322 H332 0.930 . S
C323 C321 1.380 . S
C323 C324 1.391 1_565 S
C323 H333 0.930 . S
C324 C323 1.391 1_545 S
C324 C326 1.387 . S
C325 C322 1.398 1_545 S
C325 C326 1.380 . S
C325 H334 0.930 . S
C326 C324 1.387 . S
C326 C325 1.380 . S
C326 H335 0.930 . S
C327 O304 1.254 . S
C327 O305 1.268 . S
H328 C313 0.930 . S
H329 C314 0.930 . S
H330 C316 0.930 . S
H331 C317 0.930 . S
H332 C322 0.930 . S
H333 C323 0.930 . S
H334 C325 0.930 . S
H335 C326 0.930 . S
Gd336 N367 2.661 . S
Gd336 N373 2.601 . S
Gd336 O380 2.545 . S
Gd336 O381 2.606 . S
Gd336 O383 2.429 . S
Gd336 O384 2.545 . S
Gd336 O385 2.412 . S
Gd336 O387 2.362 . S
Gd336 O388 2.324 . S
Gd336 C395 2.828 . S
Gd337 N346 2.661 . S
Gd337 N350 2.601 . S
Gd337 O381 2.362 . S
Gd337 O382 2.324 . S
Gd337 O386 2.545 . S
Gd337 O387 2.606 . S
Gd337 O389 2.429 . S
Gd337 O390 2.545 . S
Gd337 O391 2.412 . S
Gd337 C404 2.828 . S
C338 C341 1.417 . S
C338 C343 1.431 . S
C338 C344 1.412 . S
C339 C342 1.437 . S
C339 C343 1.317 . S
C339 H358 0.929 . S
C340 C341 1.426 . S
C340 C342 1.413 . S
C340 N350 1.359 . S
C341 C338 1.417 . S
C341 C340 1.426 . S
C341 N346 1.350 . S
C342 C339 1.437 . S
C342 C340 1.413 . S
C342 C352 1.391 . S
C343 C338 1.431 . S
C343 C339 1.317 . S
C343 H354 0.930 . S
C344 C338 1.412 . S
C344 C345 1.355 . S
C344 H356 0.930 . S
C345 C344 1.355 . S
C345 C347 1.402 . S
C345 H357 0.930 . S
N346 Gd337 2.661 . S
N346 C341 1.350 . S
N346 C347 1.307 . S
C347 C345 1.402 . S
C347 N346 1.307 . S
C347 H348 0.930 . S
H348 C347 0.930 . S
C349 N350 1.334 . S
C349 C351 1.394 . S
C349 H353 0.930 . S
N350 Gd337 2.601 . S
N350 C340 1.359 . S
N350 C349 1.334 . S
C351 C349 1.394 . S
C351 C352 1.359 . S
C351 H363 0.930 . S
C352 C342 1.391 . S
C352 C351 1.359 . S
C352 H364 0.929 . S
H353 C349 0.930 . S
H354 C343 0.930 . S
H355 C372 0.930 . S
H356 C344 0.930 . S
H357 C345 0.930 . S
H358 C339 0.929 . S
H359 C377 0.930 . S
H360 C368 0.930 . S
H361 C369 0.930 . S
H362 C393 0.929 . S
H363 C351 0.930 . S
H364 C352 0.929 . S
H365 C394 0.930 . S
H366 C375 0.930 . S
N367 Gd336 2.661 . S
N367 C371 1.350 . S
N367 C372 1.307 . S
C368 H360 0.930 . S
C368 C369 1.355 . S
C368 C370 1.412 . S
C369 H361 0.930 . S
C369 C368 1.355 . S
C369 C372 1.402 1_545 S
C370 C368 1.412 . S
C370 C371 1.417 1_545 S
C370 C394 1.431 . S
C371 N367 1.350 . S
C371 C370 1.417 1_565 S
C371 C374 1.426 . S
C372 H355 0.930 . S
C372 N367 1.307 . S
C372 C369 1.402 1_565 S
N373 Gd336 2.601 . S
N373 C374 1.359 . S
N373 C377 1.334 . S
C374 C371 1.426 . S
C374 N373 1.359 . S
C374 C378 1.413 1_565 S
C375 H366 0.930 . S
C375 C376 1.359 1_565 S
C375 C377 1.394 . S
C376 C375 1.359 1_545 S
C376 C378 1.391 . S
C376 H379 0.929 . S
C377 H359 0.930 . S
C377 N373 1.334 . S
C377 C375 1.394 . S
C378 C374 1.413 1_545 S
C378 C376 1.391 . S
C378 C393 1.437 . S
H379 C376 0.929 . S
O380 Gd336 2.545 . S
O380 C395 1.258 . S
O381 Gd336 2.606 . S
O381 Gd337 2.362 . S
O381 C392 1.284 . S
O382 Gd337 2.324 . S
O382 C402 1.254 . S
O383 Gd336 2.429 . S
O383 C402 1.268 . S
O384 Gd336 2.545 . S
O384 C392 1.250 . S
O385 Gd336 2.412 . S
O385 C395 1.252 . S
O386 Gd337 2.545 . S
O386 C404 1.258 . S
O387 Gd336 2.362 . S
O387 Gd337 2.606 . S
O387 C403 1.284 . S
O388 Gd336 2.324 . S
O388 C411 1.254 . S
O389 Gd337 2.429 . S
O389 C411 1.268 . S
O390 Gd337 2.545 . S
O390 C403 1.250 . S
O391 Gd337 2.412 . S
O391 C404 1.252 . S
C392 O381 1.284 . S
C392 O384 1.250 . S
C393 H362 0.929 . S
C393 C378 1.437 . S
C393 C394 1.317 . S
C394 H365 0.930 . S
C394 C370 1.431 . S
C394 C393 1.317 . S
C395 Gd336 2.828 . S
C395 O380 1.258 . S
C395 O385 1.252 . S
C395 C396 1.497 . S
C396 C395 1.497 . S
C396 C397 1.395 . S
C396 C398 1.380 . S
C397 C396 1.395 . S
C397 C400 1.398 . S
C397 H412 0.930 . S
C398 C396 1.380 . S
C398 C399 1.391 . S
C398 H413 0.930 . S
C399 C398 1.391 . S
C399 C401 1.387 . S
C400 C397 1.398 . S
C400 C401 1.380 . S
C400 H414 0.930 . S
C401 C399 1.387 . S
C401 C400 1.380 . S
C401 H415 0.930 . S
C402 O382 1.254 . S
C402 O383 1.268 . S
C403 O387 1.284 . S
C403 O390 1.250 . S
C404 Gd337 2.828 . S
C404 O386 1.258 . S
C404 O391 1.252 . S
C404 C405 1.497 . S
C405 C404 1.497 . S
C405 C406 1.395 . S
C405 C407 1.380 . S
C406 C405 1.395 . S
C406 C409 1.398 1_455 S
C406 H416 0.930 . S
C407 C405 1.380 . S
C407 C408 1.391 1_455 S
C407 H417 0.930 . S
C408 C407 1.391 1_655 S
C408 C410 1.387 . S
C409 C406 1.398 1_655 S
C409 C410 1.380 . S
C409 H418 0.930 . S
C410 C408 1.387 . S
C410 C409 1.380 . S
C410 H419 0.930 . S
C411 O388 1.254 . S
C411 O389 1.268 . S
H412 C397 0.930 . S
H413 C398 0.930 . S
H414 C400 0.930 . S
H415 C401 0.930 . S
H416 C406 0.930 . S
H417 C407 0.930 . S
H418 C409 0.930 . S
H419 C410 0.930 . S
Gd420 N451 2.661 . S
Gd420 N457 2.601 . S
Gd420 O464 2.545 . S
Gd420 O465 2.606 . S
Gd420 O467 2.429 . S
Gd420 O468 2.545 . S
Gd420 O469 2.412 . S
Gd420 O471 2.362 . S
Gd420 O472 2.324 . S
Gd420 C479 2.828 . S
Gd421 N430 2.661 . S
Gd421 N434 2.601 . S
Gd421 O465 2.362 . S
Gd421 O466 2.324 . S
Gd421 O470 2.545 . S
Gd421 O471 2.606 . S
Gd421 O473 2.429 . S
Gd421 O474 2.545 . S
Gd421 O475 2.412 . S
Gd421 C488 2.828 . S
C422 C425 1.417 . S
C422 C427 1.431 . S
C422 C428 1.412 . S
C423 C426 1.437 . S
C423 C427 1.317 . S
C423 H442 0.929 . S
C424 C425 1.426 . S
C424 C426 1.413 . S
C424 N434 1.359 . S
C425 C422 1.417 . S
C425 C424 1.426 . S
C425 N430 1.350 . S
C426 C423 1.437 . S
C426 C424 1.413 . S
C426 C436 1.391 . S
C427 C422 1.431 . S
C427 C423 1.317 . S
C427 H438 0.930 . S
C428 C422 1.412 . S
C428 C429 1.355 . S
C428 H440 0.930 . S
C429 C428 1.355 . S
C429 C431 1.402 . S
C429 H441 0.930 . S
N430 Gd421 2.661 . S
N430 C425 1.350 . S
N430 C431 1.307 . S
C431 C429 1.402 . S
C431 N430 1.307 . S
C431 H432 0.930 . S
H432 C431 0.930 . S
C433 N434 1.334 . S
C433 C435 1.394 . S
C433 H437 0.930 . S
N434 Gd421 2.601 . S
N434 C424 1.359 . S
N434 C433 1.334 . S
C435 C433 1.394 . S
C435 C436 1.359 . S
C435 H447 0.930 . S
C436 C426 1.391 . S
C436 C435 1.359 . S
C436 H448 0.929 . S
H437 C433 0.930 . S
H438 C427 0.930 . S
H439 C456 0.930 . S
H440 C428 0.930 . S
H441 C429 0.930 . S
H442 C423 0.929 . S
H443 C461 0.930 . S
H444 C452 0.930 . S
H445 C453 0.930 . S
H446 C477 0.929 . S
H447 C435 0.930 . S
H448 C436 0.929 . S
H449 C478 0.930 . S
H450 C459 0.930 . S
N451 Gd420 2.661 . S
N451 C455 1.350 . S
N451 C456 1.307 . S
C452 H444 0.930 . S
C452 C453 1.355 1_655 S
C452 C454 1.412 . S
C453 H445 0.930 . S
C453 C452 1.355 1_455 S
C453 C456 1.402 . S
C454 C452 1.412 . S
C454 C455 1.417 1_655 S
C454 C478 1.431 . S
C455 N451 1.350 . S
C455 C454 1.417 1_455 S
C455 C458 1.426 . S
C456 H439 0.930 . S
C456 N451 1.307 . S
C456 C453 1.402 . S
N457 Gd420 2.601 . S
N457 C458 1.359 . S
N457 C461 1.334 . S
C458 C455 1.426 . S
C458 N457 1.359 . S
C458 C462 1.413 1_455 S
C459 H450 0.930 . S
C459 C460 1.359 1_455 S
C459 C461 1.394 . S
C460 C459 1.359 1_655 S
C460 C462 1.391 . S
C460 H463 0.929 . S
C461 H443 0.930 . S
C461 N457 1.334 . S
C461 C459 1.394 . S
C462 C458 1.413 1_655 S
C462 C460 1.391 . S
C462 C477 1.437 . S
H463 C460 0.929 . S
O464 Gd420 2.545 . S
O464 C479 1.258 . S
O465 Gd420 2.606 . S
O465 Gd421 2.362 . S
O465 C476 1.284 . S
O466 Gd421 2.324 . S
O466 C486 1.254 . S
O467 Gd420 2.429 . S
O467 C486 1.268 . S
O468 Gd420 2.545 . S
O468 C476 1.250 . S
O469 Gd420 2.412 . S
O469 C479 1.252 . S
O470 Gd421 2.545 . S
O470 C488 1.258 . S
O471 Gd420 2.362 . S
O471 Gd421 2.606 . S
O471 C487 1.284 . S
O472 Gd420 2.324 . S
O472 C495 1.254 . S
O473 Gd421 2.429 . S
O473 C495 1.268 . S
O474 Gd421 2.545 . S
O474 C487 1.250 . S
O475 Gd421 2.412 . S
O475 C488 1.252 . S
C476 O465 1.284 . S
C476 O468 1.250 . S
C477 H446 0.929 . S
C477 C462 1.437 . S
C477 C478 1.317 . S
C478 H449 0.930 . S
C478 C454 1.431 . S
C478 C477 1.317 . S
C479 Gd420 2.828 . S
C479 O464 1.258 . S
C479 O469 1.252 . S
C479 C480 1.497 . S
C480 C479 1.497 . S
C480 C481 1.395 . S
C480 C482 1.380 . S
C481 C480 1.395 . S
C481 C484 1.398 . S
C481 H496 0.930 . S
C482 C480 1.380 . S
C482 C483 1.391 . S
C482 H497 0.930 . S
C483 C482 1.391 . S
C483 C485 1.387 . S
C484 C481 1.398 . S
C484 C485 1.380 . S
C484 H498 0.930 . S
C485 C483 1.387 . S
C485 C484 1.380 . S
C485 H499 0.930 . S
C486 O466 1.254 . S
C486 O467 1.268 . S
C487 O471 1.284 . S
C487 O474 1.250 . S
C488 Gd421 2.828 . S
C488 O470 1.258 . S
C488 O475 1.252 . S
C488 C489 1.497 . S
C489 C488 1.497 . S
C489 C490 1.395 . S
C489 C491 1.380 . S
C490 C489 1.395 . S
C490 C493 1.398 . S
C490 H500 0.930 . S
C491 C489 1.380 . S
C491 C492 1.391 . S
C491 H501 0.930 . S
C492 C491 1.391 . S
C492 C494 1.387 . S
C493 C490 1.398 . S
C493 C494 1.380 . S
C493 H502 0.930 . S
C494 C492 1.387 . S
C494 C493 1.380 . S
C494 H503 0.930 . S
C495 O472 1.254 . S
C495 O473 1.268 . S
H496 C481 0.930 . S
H497 C482 0.930 . S
H498 C484 0.930 . S
H499 C485 0.930 . S
H500 C490 0.930 . S
H501 C491 0.930 . S
H502 C493 0.930 . S
H503 C494 0.930 . S
Gd504 N535 2.661 . S
Gd504 N541 2.601 . S
Gd504 O548 2.545 . S
Gd504 O549 2.606 . S
Gd504 O551 2.429 . S
Gd504 O552 2.545 . S
Gd504 O553 2.412 . S
Gd504 O555 2.362 . S
Gd504 O556 2.324 . S
Gd504 C563 2.828 . S
Gd505 N514 2.661 . S
Gd505 N518 2.601 . S
Gd505 O549 2.362 . S
Gd505 O550 2.324 . S
Gd505 O554 2.545 . S
Gd505 O555 2.606 . S
Gd505 O557 2.429 . S
Gd505 O558 2.545 . S
Gd505 O559 2.412 . S
Gd505 C572 2.828 . S
C506 C509 1.417 . S
C506 C511 1.431 . S
C506 C512 1.412 . S
C507 C510 1.437 . S
C507 C511 1.317 . S
C507 H526 0.929 . S
C508 C509 1.426 . S
C508 C510 1.413 . S
C508 N518 1.359 . S
C509 C506 1.417 . S
C509 C508 1.426 . S
C509 N514 1.350 . S
C510 C507 1.437 . S
C510 C508 1.413 . S
C510 C520 1.391 . S
C511 C506 1.431 . S
C511 C507 1.317 . S
C511 H522 0.930 . S
C512 C506 1.412 . S
C512 C513 1.355 . S
C512 H524 0.930 . S
C513 C512 1.355 . S
C513 C515 1.402 . S
C513 H525 0.930 . S
N514 Gd505 2.661 . S
N514 C509 1.350 . S
N514 C515 1.307 . S
C515 C513 1.402 . S
C515 N514 1.307 . S
C515 H516 0.930 . S
H516 C515 0.930 . S
C517 N518 1.334 . S
C517 C519 1.394 . S
C517 H521 0.930 . S
N518 Gd505 2.601 . S
N518 C508 1.359 . S
N518 C517 1.334 . S
C519 C517 1.394 . S
C519 C520 1.359 . S
C519 H531 0.930 . S
C520 C510 1.391 . S
C520 C519 1.359 . S
C520 H532 0.929 . S
H521 C517 0.930 . S
H522 C511 0.930 . S
H523 C540 0.930 . S
H524 C512 0.930 . S
H525 C513 0.930 . S
H526 C507 0.929 . S
H527 C545 0.930 . S
H528 C536 0.932 1_565 S
H529 C537 0.930 . S
H530 C561 0.929 . S
H531 C519 0.930 . S
H532 C520 0.929 . S
H533 C562 0.930 . S
H534 C543 0.930 . S
N535 Gd504 2.661 . S
N535 C539 1.350 . S
N535 C540 1.307 . S
C536 H528 0.932 1_545 S
C536 C537 1.355 . S
C536 C538 1.412 . S
C537 H529 0.930 . S
C537 C536 1.355 . S
C537 C540 1.402 . S
C538 C536 1.412 . S
C538 C539 1.417 . S
C538 C562 1.431 1_545 S
C539 N535 1.350 . S
C539 C538 1.417 . S
C539 C542 1.426 . S
C540 H523 0.930 . S
C540 N535 1.307 . S
C540 C537 1.402 . S
N541 Gd504 2.601 . S
N541 C542 1.359 . S
N541 C545 1.334 . S
C542 C539 1.426 . S
C542 N541 1.359 . S
C542 C546 1.413 . S
C543 H534 0.930 . S
C543 C544 1.332 1_545 S
C543 C545 1.394 . S
C544 C543 1.332 1_565 S
C544 C546 1.394 1_565 S
C544 H547 0.954 . S
C545 H527 0.930 . S
C545 N541 1.334 . S
C545 C543 1.394 . S
C546 C542 1.413 . S
C546 C544 1.394 1_545 S
C546 C561 1.437 1_545 S
H547 C544 0.954 . S
O548 Gd504 2.545 . S
O548 C563 1.258 . S
O549 Gd504 2.606 . S
O549 Gd505 2.362 . S
O549 C560 1.284 . S
O550 Gd505 2.324 . S
O550 C570 1.254 . S
O551 Gd504 2.429 . S
O551 C570 1.268 . S
O552 Gd504 2.545 . S
O552 C560 1.250 . S
O553 Gd504 2.412 . S
O553 C563 1.252 . S
O554 Gd505 2.545 . S
O554 C572 1.258 . S
O555 Gd504 2.362 . S
O555 Gd505 2.606 . S
O555 C571 1.284 . S
O556 Gd504 2.324 . S
O556 C579 1.254 . S
O557 Gd505 2.429 . S
O557 C579 1.268 . S
O558 Gd505 2.545 . S
O558 C571 1.250 . S
O559 Gd505 2.412 . S
O559 C572 1.252 . S
C560 O549 1.284 . S
C560 O552 1.250 . S
C561 H530 0.929 . S
C561 C546 1.437 1_565 S
C561 C562 1.317 . S
C562 H533 0.930 . S
C562 C538 1.431 1_565 S
C562 C561 1.317 . S
C563 Gd504 2.828 . S
C563 O548 1.258 . S
C563 O553 1.252 . S
C563 C564 1.497 1_545 S
C564 C563 1.497 1_565 S
C564 C565 1.395 . S
C564 C566 1.380 . S
C565 C564 1.395 . S
C565 C568 1.398 . S
C565 H580 0.930 . S
C566 C564 1.380 . S
C566 C567 1.391 . S
C566 H581 0.930 . S
C567 C566 1.391 . S
C567 C569 1.387 . S
C568 C565 1.398 . S
C568 C569 1.380 . S
C568 H582 0.930 . S
C569 C567 1.387 . S
C569 C568 1.380 . S
C569 H583 0.930 . S
C570 O550 1.254 . S
C570 O551 1.268 . S
C571 O555 1.284 . S
C571 O558 1.250 . S
C572 Gd505 2.828 . S
C572 O554 1.258 . S
C572 O559 1.252 . S
C572 C573 1.497 . S
C573 C572 1.497 . S
C573 C574 1.395 . S
C573 C575 1.380 . S
C574 C573 1.395 . S
C574 C577 1.398 . S
C574 H584 0.930 . S
C575 C573 1.380 . S
C575 C576 1.391 . S
C575 H585 0.930 . S
C576 C575 1.391 . S
C576 C578 1.387 . S
C577 C574 1.398 . S
C577 C578 1.380 . S
C577 H586 0.930 . S
C578 C576 1.387 . S
C578 C577 1.380 . S
C578 H587 0.930 . S
C579 O556 1.254 . S
C579 O557 1.268 . S
H580 C565 0.930 . S
H581 C566 0.930 . S
H582 C568 0.930 . S
H583 C569 0.930 . S
H584 C574 0.930 . S
H585 C575 0.930 . S
H586 C577 0.930 . S
H587 C578 0.930 . S
Gd588 N619 2.661 . S
Gd588 N625 2.601 . S
Gd588 O632 2.545 . S
Gd588 O633 2.606 . S
Gd588 O635 2.429 . S
Gd588 O636 2.545 . S
Gd588 O637 2.412 . S
Gd588 O639 2.362 . S
Gd588 O640 2.324 . S
Gd588 C647 2.828 1_655 S
Gd589 N598 2.661 . S
Gd589 N602 2.601 . S
Gd589 O633 2.362 . S
Gd589 O634 2.324 . S
Gd589 O638 2.545 . S
Gd589 O639 2.606 . S
Gd589 O641 2.429 . S
Gd589 O642 2.545 . S
Gd589 O643 2.412 . S
Gd589 C656 2.828 . S
C590 C593 1.417 . S
C590 C595 1.431 . S
C590 C596 1.412 . S
C591 C594 1.437 . S
C591 C595 1.317 . S
C591 H610 0.929 1_545 S
C592 C593 1.426 . S
C592 C594 1.413 . S
C592 N602 1.359 . S
C593 C590 1.417 . S
C593 C592 1.426 . S
C593 N598 1.350 . S
C594 C591 1.437 . S
C594 C592 1.413 . S
C594 C604 1.391 . S
C595 C590 1.431 . S
C595 C591 1.317 . S
C595 H606 0.930 1_545 S
C596 C590 1.412 . S
C596 C597 1.355 . S
C596 H608 0.930 . S
C597 C596 1.355 . S
C597 C599 1.402 . S
C597 H609 0.930 . S
N598 Gd589 2.661 . S
N598 C593 1.350 . S
N598 C599 1.307 . S
C599 C597 1.402 . S
C599 N598 1.307 . S
C599 H600 0.930 . S
H600 C599 0.930 . S
C601 N602 1.334 . S
C601 C603 1.394 . S
C601 H605 0.930 . S
N602 Gd589 2.601 . S
N602 C592 1.359 . S
N602 C601 1.334 . S
C603 C601 1.394 . S
C603 C604 1.359 . S
C603 H615 0.930 . S
C604 C594 1.391 . S
C604 C603 1.359 . S
C604 H616 0.929 . S
H605 C601 0.930 . S
H606 C595 0.930 1_565 S
H607 C624 0.930 . S
H608 C596 0.930 . S
H609 C597 0.930 . S
H610 C591 0.929 1_565 S
H611 C629 0.930 . S
H612 C620 0.930 . S
H613 C621 0.930 . S
H614 C645 0.929 . S
H615 C603 0.930 . S
H616 C604 0.929 . S
H617 C646 0.930 . S
H618 C627 0.930 . S
N619 Gd588 2.661 . S
N619 C623 1.350 . S
N619 C624 1.307 . S
C620 H612 0.930 . S
C620 C621 1.355 1_455 S
C620 C622 1.412 . S
C621 H613 0.930 . S
C621 C620 1.355 1_655 S
C621 C624 1.402 . S
C622 C620 1.412 . S
C622 C623 1.417 1_455 S
C622 C646 1.431 . S
C623 N619 1.350 . S
C623 C622 1.417 1_655 S
C623 C626 1.426 . S
C624 H607 0.930 . S
C624 N619 1.307 . S
C624 C621 1.402 . S
N625 Gd588 2.601 . S
N625 C626 1.359 . S
N625 C629 1.334 . S
C626 C623 1.426 . S
C626 N625 1.359 . S
C626 C630 1.413 1_655 S
C627 H618 0.930 . S
C627 C628 1.359 1_655 S
C627 C629 1.394 . S
C628 C627 1.359 1_455 S
C628 C630 1.391 . S
C628 H631 0.929 . S
C629 H611 0.930 . S
C629 N625 1.334 . S
C629 C627 1.394 . S
C630 C626 1.413 1_455 S
C630 C628 1.391 . S
C630 C645 1.437 . S
H631 C628 0.929 . S
O632 Gd588 2.545 . S
O632 C647 1.258 1_655 S
O633 Gd588 2.606 . S
O633 Gd589 2.362 . S
O633 C644 1.284 . S
O634 Gd589 2.324 . S
O634 C654 1.254 . S
O635 Gd588 2.429 . S
O635 C654 1.268 . S
O636 Gd588 2.545 . S
O636 C644 1.250 . S
O637 Gd588 2.412 . S
O637 C647 1.252 1_655 S
O638 Gd589 2.545 . S
O638 C656 1.258 . S
O639 Gd588 2.362 . S
O639 Gd589 2.606 . S
O639 C655 1.284 . S
O640 Gd588 2.324 . S
O640 C663 1.254 . S
O641 Gd589 2.429 . S
O641 C663 1.268 . S
O642 Gd589 2.545 . S
O642 C655 1.250 . S
O643 Gd589 2.412 . S
O643 C656 1.252 . S
C644 O633 1.284 . S
C644 O636 1.250 . S
C645 H614 0.929 . S
C645 C630 1.437 . S
C645 C646 1.317 . S
C646 H617 0.930 . S
C646 C622 1.431 . S
C646 C645 1.317 . S
C647 Gd588 2.828 1_455 S
C647 O632 1.258 1_455 S
C647 O637 1.252 1_455 S
C647 C648 1.497 . S
C648 C647 1.497 . S
C648 C649 1.395 . S
C648 C650 1.380 . S
C649 C648 1.395 . S
C649 C652 1.398 . S
C649 H664 0.930 . S
C650 C648 1.380 . S
C650 C651 1.391 . S
C650 H665 0.930 . S
C651 C650 1.391 . S
C651 C653 1.387 . S
C652 C649 1.398 . S
C652 C653 1.380 . S
C652 H666 0.930 . S
C653 C651 1.387 . S
C653 C652 1.380 . S
C653 H667 0.930 . S
C654 O634 1.254 . S
C654 O635 1.268 . S
C655 O639 1.284 . S
C655 O642 1.250 . S
C656 Gd589 2.828 . S
C656 O638 1.258 . S
C656 O643 1.252 . S
C656 C657 1.497 . S
C657 C656 1.497 . S
C657 C658 1.395 . S
C657 C659 1.380 . S
C658 C657 1.395 . S
C658 C661 1.398 . S
C658 H668 0.930 . S
C659 C657 1.380 . S
C659 C660 1.391 . S
C659 H669 0.930 . S
C660 C659 1.391 . S
C660 C662 1.387 . S
C661 C658 1.398 . S
C661 C662 1.380 . S
C661 H670 0.930 . S
C662 C660 1.387 . S
C662 C661 1.380 . S
C662 H671 0.930 . S
C663 O640 1.254 . S
C663 O641 1.268 . S
H664 C649 0.930 . S
H665 C650 0.930 . S
H666 C652 0.930 . S
H667 C653 0.930 . S
H668 C658 0.930 . S
H669 C659 0.930 . S
H670 C661 0.930 . S
H671 C662 0.930 . S
Gd672 N703 2.661 . S
Gd672 N709 2.601 . S
Gd672 O716 2.545 . S
Gd672 O717 2.606 . S
Gd672 O719 2.429 . S
Gd672 O720 2.545 . S
Gd672 O721 2.412 . S
Gd672 O723 2.362 . S
Gd672 O724 2.324 . S
Gd672 C731 2.828 . S
Gd673 N682 2.661 . S
Gd673 N686 2.601 . S
Gd673 O717 2.362 . S
Gd673 O718 2.324 . S
Gd673 O722 2.545 . S
Gd673 O723 2.606 . S
Gd673 O725 2.429 . S
Gd673 O726 2.545 . S
Gd673 O727 2.412 . S
Gd673 C740 2.828 . S
C674 C677 1.417 . S
C674 C679 1.431 1_655 S
C674 C680 1.412 . S
C675 C678 1.437 1_455 S
C675 C679 1.317 . S
C675 H694 0.929 . S
C676 C677 1.426 . S
C676 C678 1.413 . S
C676 N686 1.359 . S
C677 C674 1.417 . S
C677 C676 1.426 . S
C677 N682 1.350 . S
C678 C675 1.437 1_655 S
C678 C676 1.413 . S
C678 C688 1.391 . S
C679 C674 1.431 1_455 S
C679 C675 1.317 . S
C679 H690 0.930 . S
C680 C674 1.412 . S
C680 C681 1.355 . S
C680 H692 0.930 1_655 S
C681 C680 1.355 . S
C681 C683 1.402 . S
C681 H693 0.930 . S
N682 Gd673 2.661 . S
N682 C677 1.350 . S
N682 C683 1.307 . S
C683 C681 1.402 . S
C683 N682 1.307 . S
C683 H684 0.930 . S
H684 C683 0.930 . S
C685 N686 1.334 . S
C685 C687 1.394 . S
C685 H689 0.930 . S
N686 Gd673 2.601 . S
N686 C676 1.359 . S
N686 C685 1.334 . S
C687 C685 1.394 . S
C687 C688 1.359 . S
C687 H699 0.930 . S
C688 C678 1.391 . S
C688 C687 1.359 . S
C688 H700 0.929 . S
H689 C685 0.930 . S
H690 C679 0.930 . S
H691 C708 0.930 . S
H692 C680 0.930 1_455 S
H693 C681 0.930 . S
H694 C675 0.929 . S
H695 C713 0.930 . S
H696 C704 0.930 . S
H697 C705 0.930 . S
H698 C729 0.929 . S
H699 C687 0.930 . S
H700 C688 0.929 . S
H701 C730 0.930 . S
H702 C711 0.930 . S
N703 Gd672 2.661 . S
N703 C707 1.350 . S
N703 C708 1.307 . S
C704 H696 0.930 . S
C704 C705 1.355 . S
C704 C706 1.412 . S
C705 H697 0.930 . S
C705 C704 1.355 . S
C705 C708 1.402 . S
C706 C704 1.412 . S
C706 C707 1.417 . S
C706 C730 1.431 . S
C707 N703 1.350 . S
C707 C706 1.417 . S
C707 C710 1.426 . S
C708 H691 0.930 . S
C708 N703 1.307 . S
C708 C705 1.402 . S
N709 Gd672 2.601 . S
N709 C710 1.359 . S
N709 C713 1.334 . S
C710 C707 1.426 . S
C710 N709 1.359 . S
C710 C714 1.413 . S
C711 H702 0.930 . S
C711 C712 1.359 . S
C711 C713 1.394 . S
C712 C711 1.359 . S
C712 C714 1.391 . S
C712 H715 0.929 . S
C713 H695 0.930 . S
C713 N709 1.334 . S
C713 C711 1.394 . S
C714 C710 1.413 . S
C714 C712 1.391 . S
C714 C729 1.437 . S
H715 C712 0.929 . S
O716 Gd672 2.545 . S
O716 C731 1.258 . S
O717 Gd672 2.606 . S
O717 Gd673 2.362 . S
O717 C728 1.284 . S
O718 Gd673 2.324 . S
O718 C738 1.254 . S
O719 Gd672 2.429 . S
O719 C738 1.268 . S
O720 Gd672 2.545 . S
O720 C728 1.250 . S
O721 Gd672 2.412 . S
O721 C731 1.252 . S
O722 Gd673 2.545 . S
O722 C740 1.258 . S
O723 Gd672 2.362 . S
O723 Gd673 2.606 . S
O723 C739 1.284 . S
O724 Gd672 2.324 . S
O724 C747 1.254 . S
O725 Gd673 2.429 . S
O725 C747 1.268 . S
O726 Gd673 2.545 . S
O726 C739 1.250 . S
O727 Gd673 2.412 . S
O727 C740 1.252 . S
C728 O717 1.284 . S
C728 O720 1.250 . S
C729 H698 0.929 . S
C729 C714 1.437 . S
C729 C730 1.317 . S
C730 H701 0.930 . S
C730 C706 1.431 . S
C730 C729 1.317 . S
C731 Gd672 2.828 . S
C731 O716 1.258 . S
C731 O721 1.252 . S
C731 C732 1.497 . S
C732 C731 1.497 . S
C732 C733 1.395 . S
C732 C734 1.380 . S
C733 C732 1.395 . S
C733 C736 1.398 . S
C733 H748 0.930 . S
C734 C732 1.380 . S
C734 C735 1.391 . S
C734 H749 0.930 . S
C735 C734 1.391 . S
C735 C737 1.387 . S
C736 C733 1.398 . S
C736 C737 1.380 . S
C736 H750 0.930 . S
C737 C735 1.387 . S
C737 C736 1.380 . S
C737 H751 0.930 . S
C738 O718 1.254 . S
C738 O719 1.268 . S
C739 O723 1.284 . S
C739 O726 1.250 . S
C740 Gd673 2.828 . S
C740 O722 1.258 . S
C740 O727 1.252 . S
C740 C741 1.497 . S
C741 C740 1.497 . S
C741 C742 1.395 . S
C741 C743 1.380 . S
C742 C741 1.395 . S
C742 C745 1.398 . S
C742 H752 0.930 . S
C743 C741 1.380 . S
C743 C744 1.391 . S
C743 H753 0.930 . S
C744 C743 1.391 . S
C744 C746 1.387 . S
C745 C742 1.398 . S
C745 C746 1.380 . S
C745 H754 0.930 . S
C746 C744 1.387 . S
C746 C745 1.380 . S
C746 H755 0.930 . S
C747 O724 1.254 . S
C747 O725 1.268 . S
H748 C733 0.930 . S
H749 C734 0.930 . S
H750 C736 0.930 . S
H751 C737 0.930 . S
H752 C742 0.930 . S
H753 C743 0.930 . S
H754 C745 0.930 . S
H755 C746 0.930 . S
H756 C764 0.950 . S
H757 C769 0.950 . S
H758 C766 0.950 . S
H759 C768 0.950 . S
H760 C770 0.946 1_556 S
H761 C772 0.952 . S
H762 C774 0.950 . S
H763 C775 0.950 . S
C764 H756 0.950 . S
C764 C765 1.386 . S
C764 C766 1.391 . S
C765 C764 1.386 . S
C765 C769 1.393 . S
C766 H758 0.950 . S
C766 C764 1.391 . S
C766 C767 1.400 . S
C767 C766 1.400 . S
C767 C768 1.398 . S
C767 C773 1.491 . S
C768 H759 0.950 . S
C768 C767 1.398 . S
C768 C769 1.391 . S
C769 H757 0.950 . S
C769 C765 1.393 . S
C769 C768 1.391 . S
C770 H760 0.946 1_554 S
C770 C771 1.388 . S
C770 C772 1.393 . S
C771 C770 1.388 . S
C771 C775 1.393 . S
C772 H761 0.952 . S
C772 C770 1.393 . S
C772 C773 1.400 . S
C773 C767 1.491 . S
C773 C772 1.400 . S
C773 C774 1.398 . S
C774 H762 0.950 . S
C774 C773 1.398 . S
C774 C775 1.391 . S
C775 H763 0.950 . S
C775 C771 1.393 . S
C775 C774 1.391 . S
H776 C784 0.950 . S
H777 C789 0.950 . S
H778 C786 0.950 . S
H779 C788 0.950 . S
H780 C790 0.950 . S
H781 C792 0.950 . S
H782 C794 0.950 . S
H783 C795 0.950 . S
C784 H776 0.950 . S
C784 C785 1.386 1_556 S
C784 C786 1.391 . S
C785 C784 1.386 1_554 S
C785 C789 1.393 . S
C786 H778 0.950 . S
C786 C784 1.391 . S
C786 C787 1.400 1_556 S
C787 C786 1.400 1_554 S
C787 C788 1.398 . S
C787 C793 1.491 . S
C788 H779 0.950 . S
C788 C787 1.398 . S
C788 C789 1.391 . S
C789 H777 0.950 . S
C789 C785 1.393 . S
C789 C788 1.391 . S
C790 H780 0.950 . S
C790 C791 1.386 . S
C790 C792 1.391 . S
C791 C790 1.386 . S
C791 C795 1.393 1_554 S
C792 H781 0.950 . S
C792 C790 1.391 . S
C792 C793 1.400 . S
C793 C787 1.491 . S
C793 C792 1.400 . S
C793 C794 1.398 1_554 S
C794 H782 0.950 . S
C794 C793 1.398 1_556 S
C794 C795 1.391 . S
C795 H783 0.950 . S
C795 C791 1.393 1_556 S
C795 C794 1.391 . S
H796 C804 0.950 . S
H797 C809 0.950 . S
H798 C806 0.950 1_556 S
H799 C808 0.950 . S
H800 C810 0.950 . S
H801 C812 0.950 . S
H802 C814 0.950 . S
H803 C815 0.950 . S
C804 H796 0.950 . S
C804 C805 1.386 1_556 S
C804 C806 1.391 1_556 S
C805 C804 1.386 1_554 S
C805 C809 1.393 . S
C806 H798 0.950 1_554 S
C806 C804 1.391 1_554 S
C806 C807 1.400 . S
C807 C806 1.400 . S
C807 C808 1.398 . S
C807 C813 1.491 . S
C808 H799 0.950 . S
C808 C807 1.398 . S
C808 C809 1.391 . S
C809 H797 0.950 . S
C809 C805 1.393 . S
C809 C808 1.391 . S
C810 H800 0.950 . S
C810 C811 1.386 . S
C810 C812 1.391 . S
C811 C810 1.386 . S
C811 C815 1.393 . S
C812 H801 0.950 . S
C812 C810 1.391 . S
C812 C813 1.400 . S
C813 C807 1.491 . S
C813 C812 1.400 . S
C813 C814 1.398 . S
C814 H802 0.950 . S
C814 C813 1.398 . S
C814 C815 1.391 . S
C815 H803 0.950 . S
C815 C811 1.393 . S
C815 C814 1.391 . S
H816 C824 0.950 . S
H817 C829 0.950 1_554 S
H818 C826 0.950 . S
H819 C828 0.947 1_554 S
H820 C830 0.950 . S
H821 C832 0.950 . S
H822 C834 0.950 . S
H823 C835 0.950 . S
C824 H816 0.950 . S
C824 C825 1.386 . S
C824 C826 1.391 . S
C825 C824 1.386 . S
C825 C829 1.393 . S
C826 H818 0.950 . S
C826 C824 1.391 . S
C826 C827 1.400 . S
C827 C826 1.400 . S
C827 C828 1.401 . S
C827 C833 1.491 . S
C828 H819 0.947 1_556 S
C828 C827 1.401 . S
C828 C829 1.392 . S
C829 H817 0.950 1_556 S
C829 C825 1.393 . S
C829 C828 1.392 . S
C830 H820 0.950 . S
C830 C831 1.386 . S
C830 C832 1.391 . S
C831 C830 1.386 . S
C831 C835 1.393 1_554 S
C832 H821 0.950 . S
C832 C830 1.391 . S
C832 C833 1.400 1_554 S
C833 C827 1.491 . S
C833 C832 1.400 1_556 S
C833 C834 1.398 . S
C834 H822 0.950 . S
C834 C833 1.398 . S
C834 C835 1.391 . S
C835 H823 0.950 . S
C835 C831 1.393 1_556 S
C835 C834 1.391 . S
H836 C844 0.950 . S
H837 C849 0.950 . S
H838 C846 0.950 . S
H839 C848 0.950 . S
H840 C850 0.950 . S
H841 C852 0.950 . S
H842 C854 0.950 . S
H843 C855 0.950 . S
C844 H836 0.950 . S
C844 C845 1.386 . S
C844 C846 1.391 . S
C845 C844 1.386 . S
C845 C849 1.393 1_554 S
C846 H838 0.950 . S
C846 C844 1.391 . S
C846 C847 1.400 1_554 S
C847 C846 1.400 1_556 S
C847 C848 1.398 . S
C847 C853 1.491 . S
C848 H839 0.950 . S
C848 C847 1.398 . S
C848 C849 1.391 . S
C849 H837 0.950 . S
C849 C845 1.393 1_556 S
C849 C848 1.391 . S
C850 H840 0.950 . S
C850 C851 1.386 . S
C850 C852 1.391 . S
C851 C850 1.386 . S
C851 C855 1.393 1_556 S
C852 H841 0.950 . S
C852 C850 1.391 . S
C852 C853 1.400 . S
C853 C847 1.491 . S
C853 C852 1.400 . S
C853 C854 1.398 1_556 S
C854 H842 0.950 . S
C854 C853 1.398 1_554 S
C854 C855 1.391 . S
C855 H843 0.950 . S
C855 C851 1.393 1_554 S
C855 C854 1.391 . S
H856 C864 0.950 . S
H857 C869 0.950 . S
H858 C866 0.950 . S
H859 C868 0.950 . S
H860 C870 0.950 . S
H861 C872 0.950 . S
H862 C874 0.950 . S
H863 C875 0.950 . S
C864 H856 0.950 . S
C864 C865 1.386 . S
C864 C866 1.391 . S
C865 C864 1.386 . S
C865 C869 1.393 1_554 S
C866 H858 0.950 . S
C866 C864 1.391 . S
C866 C867 1.400 1_554 S
C867 C866 1.400 1_556 S
C867 C868 1.398 . S
C867 C873 1.491 . S
C868 H859 0.950 . S
C868 C867 1.398 . S
C868 C869 1.391 . S
C869 H857 0.950 . S
C869 C865 1.393 1_556 S
C869 C868 1.391 . S
C870 H860 0.950 . S
C870 C871 1.386 . S
C870 C872 1.391 . S
C871 C870 1.386 . S
C871 C875 1.393 1_556 S
C872 H861 0.950 . S
C872 C870 1.391 . S
C872 C873 1.400 . S
C873 C867 1.491 . S
C873 C872 1.400 . S
C873 C874 1.398 1_556 S
C874 H862 0.950 . S
C874 C873 1.398 1_554 S
C874 C875 1.391 . S
C875 H863 0.950 . S
C875 C871 1.393 1_554 S
C875 C874 1.391 . S
H876 C884 0.950 . S
H877 C889 0.950 . S
H878 C886 0.950 . S
H879 C888 0.950 . S
H880 C890 0.950 . S
H881 C892 0.950 . S
H882 C894 0.950 . S
H883 C895 0.950 . S
C884 H876 0.950 . S
C884 C885 1.386 . S
C884 C886 1.391 . S
C885 C884 1.386 . S
C885 C889 1.393 . S
C886 H878 0.950 . S
C886 C884 1.391 . S
C886 C887 1.400 . S
C887 C886 1.400 . S
C887 C888 1.398 . S
C887 C893 1.491 . S
C888 H879 0.950 . S
C888 C887 1.398 . S
C888 C889 1.391 . S
C889 H877 0.950 . S
C889 C885 1.393 . S
C889 C888 1.391 . S
C890 H880 0.950 . S
C890 C891 1.386 . S
C890 C892 1.391 . S
C891 C890 1.386 . S
C891 C895 1.393 . S
C892 H881 0.950 . S
C892 C890 1.391 . S
C892 C893 1.400 . S
C893 C887 1.491 . S
C893 C892 1.400 . S
C893 C894 1.398 . S
C894 H882 0.950 . S
C894 C893 1.398 . S
C894 C895 1.391 . S
C895 H883 0.950 . S
C895 C891 1.393 . S
C895 C894 1.391 . S
H896 C904 0.950 . S
H897 C909 0.950 . S
H898 C906 0.950 . S
H899 C908 0.950 . S
H900 C910 0.950 . S
H901 C912 0.950 . S
H902 C914 0.950 . S
H903 C915 0.950 . S
C904 H896 0.950 . S
C904 C905 1.386 . S
C904 C906 1.391 . S
C905 C904 1.386 . S
C905 C909 1.393 . S
C906 H898 0.950 . S
C906 C904 1.391 . S
C906 C907 1.400 . S
C907 C906 1.400 . S
C907 C908 1.398 . S
C907 C913 1.491 . S
C908 H899 0.950 . S
C908 C907 1.398 . S
C908 C909 1.391 . S
C909 H897 0.950 . S
C909 C905 1.393 . S
C909 C908 1.391 . S
C910 H900 0.950 . S
C910 C911 1.388 1_545 S
C910 C912 1.389 . S
C911 C910 1.388 1_565 S
C911 C915 1.393 . S
C912 H901 0.950 . S
C912 C910 1.389 . S
C912 C913 1.400 . S
C913 C907 1.491 . S
C913 C912 1.400 . S
C913 C914 1.398 1_545 S
C914 H902 0.950 . S
C914 C913 1.398 1_565 S
C914 C915 1.391 . S
C915 H903 0.950 . S
C915 C911 1.393 . S
C915 C914 1.391 . S
H916 C924 0.950 . S
H917 C929 0.950 . S
H918 C926 0.950 . S
H919 C928 0.950 . S
H920 C930 0.950 . S
H921 C932 0.950 . S
H922 C934 0.950 . S
H923 C935 0.950 . S
C924 H916 0.950 . S
C924 C925 1.386 . S
C924 C926 1.391 1_455 S
C925 C924 1.386 . S
C925 C929 1.393 . S
C926 H918 0.950 . S
C926 C924 1.391 1_655 S
C926 C927 1.400 . S
C927 C926 1.400 . S
C927 C928 1.398 1_655 S
C927 C933 1.491 . S
C928 H919 0.950 . S
C928 C927 1.398 1_455 S
C928 C929 1.391 . S
C929 H917 0.950 . S
C929 C925 1.393 . S
C929 C928 1.391 . S
C930 H920 0.950 . S
C930 C931 1.386 . S
C930 C932 1.391 . S
C931 C930 1.386 . S
C931 C935 1.393 . S
C932 H921 0.950 . S
C932 C930 1.391 . S
C932 C933 1.400 . S
C933 C927 1.491 . S
C933 C932 1.400 . S
C933 C934 1.398 . S
C934 H922 0.950 . S
C934 C933 1.398 . S
C934 C935 1.391 . S
C935 H923 0.950 . S
C935 C931 1.393 . S
C935 C934 1.391 . S
H936 C944 0.950 . S
H937 C949 0.950 . S
H938 C946 0.950 . S
H939 C948 0.950 . S
H940 C950 0.950 . S
H941 C952 0.950 . S
H942 C954 0.950 . S
H943 C955 0.950 . S
C944 H936 0.950 . S
C944 C945 1.386 . S
C944 C946 1.391 . S
C945 C944 1.386 . S
C945 C949 1.393 . S
C946 H938 0.950 . S
C946 C944 1.391 . S
C946 C947 1.400 . S
C947 C946 1.400 . S
C947 C948 1.398 . S
C947 C953 1.491 . S
C948 H939 0.950 . S
C948 C947 1.398 . S
C948 C949 1.391 . S
C949 H937 0.950 . S
C949 C945 1.393 . S
C949 C948 1.391 . S
C950 H940 0.950 . S
C950 C951 1.386 . S
C950 C952 1.391 . S
C951 C950 1.386 . S
C951 C955 1.393 . S
C952 H941 0.950 . S
C952 C950 1.391 . S
C952 C953 1.400 . S
C953 C947 1.491 . S
C953 C952 1.400 . S
C953 C954 1.398 . S
C954 H942 0.950 . S
C954 C953 1.398 . S
C954 C955 1.391 . S
C955 H943 0.950 . S
C955 C951 1.393 . S
C955 C954 1.391 . S
H956 C964 0.950 . S
H957 C969 0.950 . S
H958 C966 0.950 . S
H959 C968 0.950 . S
H960 C970 0.950 . S
H961 C972 0.950 . S
H962 C974 0.950 . S
H963 C975 0.950 . S
C964 H956 0.950 . S
C964 C965 1.386 . S
C964 C966 1.391 . S
C965 C964 1.386 . S
C965 C969 1.393 . S
C966 H958 0.950 . S
C966 C964 1.391 . S
C966 C967 1.400 . S
C967 C966 1.400 . S
C967 C968 1.398 . S
C967 C973 1.491 . S
C968 H959 0.950 . S
C968 C967 1.398 . S
C968 C969 1.391 . S
C969 H957 0.950 . S
C969 C965 1.393 . S
C969 C968 1.391 . S
C970 H960 0.950 . S
C970 C971 1.386 . S
C970 C972 1.391 . S
C971 C970 1.386 . S
C971 C975 1.393 . S
C972 H961 0.950 . S
C972 C970 1.391 . S
C972 C973 1.400 . S
C973 C967 1.491 . S
C973 C972 1.400 . S
C973 C974 1.398 . S
C974 H962 0.950 . S
C974 C973 1.398 . S
C974 C975 1.391 . S
C975 H963 0.950 . S
C975 C971 1.393 . S
C975 C974 1.391 . S
H976 C984 0.950 . S
H977 C989 0.950 . S
H978 C986 0.950 . S
H979 C988 0.950 . S
H980 C990 0.950 . S
H981 C992 0.950 . S
H982 C994 0.950 . S
H983 C995 0.950 . S
C984 H976 0.950 . S
C984 C985 1.386 . S
C984 C986 1.391 . S
C985 C984 1.386 . S
C985 C989 1.393 . S
C986 H978 0.950 . S
C986 C984 1.391 . S
C986 C987 1.400 . S
C987 C986 1.400 . S
C987 C988 1.398 . S
C987 C993 1.491 . S
C988 H979 0.950 . S
C988 C987 1.398 . S
C988 C989 1.391 . S
C989 H977 0.950 . S
C989 C985 1.393 . S
C989 C988 1.391 . S
C990 H980 0.950 . S
C990 C991 1.386 . S
C990 C992 1.391 . S
C991 C990 1.386 . S
C991 C995 1.393 . S
C992 H981 0.950 . S
C992 C990 1.391 . S
C992 C993 1.400 . S
C993 C987 1.491 . S
C993 C992 1.400 . S
C993 C994 1.398 . S
C994 H982 0.950 . S
C994 C993 1.398 . S
C994 C995 1.391 . S
C995 H983 0.950 . S
C995 C991 1.393 . S
C995 C994 1.391 . S
H996 C1004 0.950 . S
H997 C1009 0.950 . S
H998 C1006 0.950 . S
H999 C1008 0.950 . S
H1000 C1010 0.950 . S
H1001 C1012 0.950 . S
H1002 C1014 0.950 . S
H1003 C1015 0.950 . S
C1004 H996 0.950 . S
C1004 C1005 1.386 . S
C1004 C1006 1.391 . S
C1005 C1004 1.386 . S
C1005 C1009 1.393 . S
C1006 H998 0.950 . S
C1006 C1004 1.391 . S
C1006 C1007 1.400 . S
C1007 C1006 1.400 . S
C1007 C1008 1.398 . S
C1007 C1013 1.491 . S
C1008 H999 0.950 . S
C1008 C1007 1.398 . S
C1008 C1009 1.391 . S
C1009 H997 0.950 . S
C1009 C1005 1.393 . S
C1009 C1008 1.391 . S
C1010 H1000 0.950 . S
C1010 C1011 1.386 . S
C1010 C1012 1.391 . S
C1011 C1010 1.386 . S
C1011 C1015 1.393 . S
C1012 H1001 0.950 . S
C1012 C1010 1.391 . S
C1012 C1013 1.400 . S
C1013 C1007 1.491 . S
C1013 C1012 1.400 . S
C1013 C1014 1.398 . S
C1014 H1002 0.950 . S
C1014 C1013 1.398 . S
C1014 C1015 1.391 . S
C1015 H1003 0.950 . S
C1015 C1011 1.393 . S
C1015 C1014 1.391 . S
H1016 C1024 0.950 . S
H1017 C1029 0.950 . S
H1018 C1026 0.950 . S
H1019 C1028 0.950 . S
H1020 C1030 0.950 . S
H1021 C1032 0.950 . S
H1022 C1034 0.950 . S
H1023 C1035 0.950 . S
C1024 H1016 0.950 . S
C1024 C1025 1.386 . S
C1024 C1026 1.391 . S
C1025 C1024 1.386 . S
C1025 C1029 1.393 . S
C1026 H1018 0.950 . S
C1026 C1024 1.391 . S
C1026 C1027 1.400 . S
C1027 C1026 1.400 . S
C1027 C1028 1.398 . S
C1027 C1033 1.491 . S
C1028 H1019 0.950 . S
C1028 C1027 1.398 . S
C1028 C1029 1.391 . S
C1029 H1017 0.950 . S
C1029 C1025 1.393 . S
C1029 C1028 1.391 . S
C1030 H1020 0.950 . S
C1030 C1031 1.386 . S
C1030 C1032 1.391 . S
C1031 C1030 1.386 . S
C1031 C1035 1.393 . S
C1032 H1021 0.950 . S
C1032 C1030 1.391 . S
C1032 C1033 1.400 . S
C1033 C1027 1.491 . S
C1033 C1032 1.400 . S
C1033 C1034 1.398 . S
C1034 H1022 0.950 . S
C1034 C1033 1.398 . S
C1034 C1035 1.391 . S
C1035 H1023 0.950 . S
C1035 C1031 1.393 . S
C1035 C1034 1.391 . S
H1036 C1044 0.950 . S
H1037 C1049 0.950 . S
H1038 C1046 0.950 . S
H1039 C1048 0.950 . S
H1040 C1050 0.950 . S
H1041 C1052 0.950 . S
H1042 C1054 0.950 . S
H1043 C1055 0.950 . S
C1044 H1036 0.950 . S
C1044 C1045 1.386 . S
C1044 C1046 1.391 . S
C1045 C1044 1.386 . S
C1045 C1049 1.393 . S
C1046 H1038 0.950 . S
C1046 C1044 1.391 . S
C1046 C1047 1.400 . S
C1047 C1046 1.400 . S
C1047 C1048 1.398 . S
C1047 C1053 1.491 . S
C1048 H1039 0.950 . S
C1048 C1047 1.398 . S
C1048 C1049 1.391 . S
C1049 H1037 0.950 . S
C1049 C1045 1.393 . S
C1049 C1048 1.391 . S
C1050 H1040 0.950 . S
C1050 C1051 1.386 . S
C1050 C1052 1.391 . S
C1051 C1050 1.386 . S
C1051 C1055 1.393 . S
C1052 H1041 0.950 . S
C1052 C1050 1.391 . S
C1052 C1053 1.400 . S
C1053 C1047 1.491 . S
C1053 C1052 1.400 . S
C1053 C1054 1.398 . S
C1054 H1042 0.950 . S
C1054 C1053 1.398 . S
C1054 C1055 1.391 . S
C1055 H1043 0.950 . S
C1055 C1051 1.393 . S
C1055 C1054 1.391 . S
H1056 C1064 0.950 . S
H1057 C1069 0.950 . S
H1058 C1066 0.950 . S
H1059 C1068 0.950 . S
H1060 C1070 0.950 . S
H1061 C1072 0.950 . S
H1062 C1074 0.950 . S
H1063 C1075 0.950 . S
C1064 H1056 0.950 . S
C1064 C1065 1.386 . S
C1064 C1066 1.391 . S
C1065 C1064 1.386 . S
C1065 C1069 1.393 . S
C1066 H1058 0.950 . S
C1066 C1064 1.391 . S
C1066 C1067 1.400 . S
C1067 C1066 1.400 . S
C1067 C1068 1.398 . S
C1067 C1073 1.491 1_565 S
C1068 H1059 0.950 . S
C1068 C1067 1.398 . S
C1068 C1069 1.391 . S
C1069 H1057 0.950 . S
C1069 C1065 1.393 . S
C1069 C1068 1.391 . S
C1070 H1060 0.950 . S
C1070 C1071 1.386 . S
C1070 C1072 1.391 . S
C1071 C1070 1.386 . S
C1071 C1075 1.393 . S
C1072 H1061 0.950 . S
C1072 C1070 1.391 . S
C1072 C1073 1.400 . S
C1073 C1067 1.491 1_545 S
C1073 C1072 1.400 . S
C1073 C1074 1.398 . S
C1074 H1062 0.950 . S
C1074 C1073 1.398 . S
C1074 C1075 1.391 . S
C1075 H1063 0.950 . S
C1075 C1071 1.393 . S
C1075 C1074 1.391 . S
H1076 C1084 0.950 . S
H1077 C1089 0.950 . S
H1078 C1086 0.950 . S
H1079 C1088 0.950 . S
H1080 C1090 0.950 . S
H1081 C1092 0.950 . S
H1082 C1094 0.950 . S
H1083 C1095 0.950 . S
C1084 H1076 0.950 . S
C1084 C1085 1.386 . S
C1084 C1086 1.391 . S
C1085 C1084 1.386 . S
C1085 C1089 1.393 . S
C1086 H1078 0.950 . S
C1086 C1084 1.391 . S
C1086 C1087 1.400 . S
C1087 C1086 1.400 . S
C1087 C1088 1.398 . S
C1087 C1093 1.491 1_655 S
C1088 H1079 0.950 . S
C1088 C1087 1.398 . S
C1088 C1089 1.391 . S
C1089 H1077 0.950 . S
C1089 C1085 1.393 . S
C1089 C1088 1.391 . S
C1090 H1080 0.950 . S
C1090 C1091 1.386 . S
C1090 C1092 1.391 . S
C1091 C1090 1.386 . S
C1091 C1095 1.393 . S
C1092 H1081 0.950 . S
C1092 C1090 1.391 . S
C1092 C1093 1.400 . S
C1093 C1087 1.491 1_455 S
C1093 C1092 1.400 . S
C1093 C1094 1.398 . S
C1094 H1082 0.950 . S
C1094 C1093 1.398 . S
C1094 C1095 1.391 . S
C1095 H1083 0.950 . S
C1095 C1091 1.393 . S
C1095 C1094 1.391 . S
H1096 C1104 0.950 . S
H1097 C1109 0.950 . S
H1098 C1106 0.950 . S
H1099 C1108 0.950 . S
H1100 C1110 0.950 . S
H1101 C1112 0.950 . S
H1102 C1114 0.950 . S
H1103 C1115 0.950 . S
C1104 H1096 0.950 . S
C1104 C1105 1.386 . S
C1104 C1106 1.391 . S
C1105 C1104 1.386 . S
C1105 C1109 1.393 . S
C1106 H1098 0.950 . S
C1106 C1104 1.391 . S
C1106 C1107 1.400 . S
C1107 C1106 1.400 . S
C1107 C1108 1.398 . S
C1107 C1113 1.491 . S
C1108 H1099 0.950 . S
C1108 C1107 1.398 . S
C1108 C1109 1.391 . S
C1109 H1097 0.950 . S
C1109 C1105 1.393 . S
C1109 C1108 1.391 . S
C1110 H1100 0.950 . S
C1110 C1111 1.386 . S
C1110 C1112 1.391 . S
C1111 C1110 1.386 . S
C1111 C1115 1.393 . S
C1112 H1101 0.950 . S
C1112 C1110 1.391 . S
C1112 C1113 1.400 . S
C1113 C1107 1.491 . S
C1113 C1112 1.400 . S
C1113 C1114 1.398 . S
C1114 H1102 0.950 . S
C1114 C1113 1.398 . S
C1114 C1115 1.391 . S
C1115 H1103 0.950 . S
C1115 C1111 1.393 . S
C1115 C1114 1.391 . S
H1116 C1124 0.950 . S
H1117 C1129 0.950 . S
H1118 C1126 0.950 . S
H1119 C1128 0.950 . S
H1120 C1130 0.950 . S
H1121 C1132 0.950 . S
H1122 C1134 0.950 . S
H1123 C1135 0.950 . S
C1124 H1116 0.950 . S
C1124 C1125 1.386 . S
C1124 C1126 1.391 . S
C1125 C1124 1.386 . S
C1125 C1129 1.393 . S
C1126 H1118 0.950 . S
C1126 C1124 1.391 . S
C1126 C1127 1.400 . S
C1127 C1126 1.400 . S
C1127 C1128 1.398 . S
C1127 C1133 1.491 . S
C1128 H1119 0.950 . S
C1128 C1127 1.398 . S
C1128 C1129 1.391 . S
C1129 H1117 0.950 . S
C1129 C1125 1.393 . S
C1129 C1128 1.391 . S
C1130 H1120 0.950 . S
C1130 C1131 1.386 . S
C1130 C1132 1.391 . S
C1131 C1130 1.386 . S
C1131 C1135 1.393 . S
C1132 H1121 0.950 . S
C1132 C1130 1.391 . S
C1132 C1133 1.400 . S
C1133 C1127 1.491 . S
C1133 C1132 1.400 . S
C1133 C1134 1.398 . S
C1134 H1122 0.950 . S
C1134 C1133 1.398 . S
C1134 C1135 1.391 . S
C1135 H1123 0.950 . S
C1135 C1131 1.393 . S
C1135 C1134 1.391 . S
H1136 C1144 0.950 . S
H1137 C1149 0.950 . S
H1138 C1146 0.950 . S
H1139 C1148 0.950 . S
H1140 C1150 0.950 . S
H1141 C1152 0.950 . S
H1142 C1154 0.950 . S
H1143 C1155 0.950 . S
C1144 H1136 0.950 . S
C1144 C1145 1.386 . S
C1144 C1146 1.391 . S
C1145 C1144 1.386 . S
C1145 C1149 1.393 . S
C1146 H1138 0.950 . S
C1146 C1144 1.391 . S
C1146 C1147 1.400 . S
C1147 C1146 1.400 . S
C1147 C1148 1.398 . S
C1147 C1153 1.491 . S
C1148 H1139 0.950 . S
C1148 C1147 1.398 . S
C1148 C1149 1.391 . S
C1149 H1137 0.950 . S
C1149 C1145 1.393 . S
C1149 C1148 1.391 . S
C1150 H1140 0.950 . S
C1150 C1151 1.386 . S
C1150 C1152 1.391 . S
C1151 C1150 1.386 . S
C1151 C1155 1.393 . S
C1152 H1141 0.950 . S
C1152 C1150 1.391 . S
C1152 C1153 1.400 . S
C1153 C1147 1.491 . S
C1153 C1152 1.400 . S
C1153 C1154 1.398 . S
C1154 H1142 0.950 . S
C1154 C1153 1.398 . S
C1154 C1155 1.391 . S
C1155 H1143 0.950 . S
C1155 C1151 1.393 . S
C1155 C1154 1.391 . S
H1156 C1164 0.950 . S
H1157 C1169 0.950 . S
H1158 C1166 0.950 . S
H1159 C1168 0.950 . S
H1160 C1170 0.950 . S
H1161 C1172 0.950 . S
H1162 C1174 0.950 . S
H1163 C1175 0.950 . S
C1164 H1156 0.950 . S
C1164 C1165 1.386 . S
C1164 C1166 1.391 . S
C1165 C1164 1.386 . S
C1165 C1169 1.393 . S
C1166 H1158 0.950 . S
C1166 C1164 1.391 . S
C1166 C1167 1.400 . S
C1167 C1166 1.400 . S
C1167 C1168 1.398 . S
C1167 C1173 1.491 . S
C1168 H1159 0.950 . S
C1168 C1167 1.398 . S
C1168 C1169 1.391 . S
C1169 H1157 0.950 . S
C1169 C1165 1.393 . S
C1169 C1168 1.391 . S
C1170 H1160 0.950 . S
C1170 C1171 1.386 . S
C1170 C1172 1.391 . S
C1171 C1170 1.386 . S
C1171 C1175 1.393 . S
C1172 H1161 0.950 . S
C1172 C1170 1.391 . S
C1172 C1173 1.400 . S
C1173 C1167 1.491 . S
C1173 C1172 1.400 . S
C1173 C1174 1.398 . S
C1174 H1162 0.950 . S
C1174 C1173 1.398 . S
C1174 C1175 1.391 . S
C1175 H1163 0.950 . S
C1175 C1171 1.393 . S
C1175 C1174 1.391 . S
H1176 C1184 0.950 . S
H1177 C1189 0.950 . S
H1178 C1186 0.950 . S
H1179 C1188 0.950 . S
H1180 C1190 0.950 . S
H1181 C1192 0.950 . S
H1182 C1194 0.950 . S
H1183 C1195 0.950 . S
C1184 H1176 0.950 . S
C1184 C1185 1.386 . S
C1184 C1186 1.391 . S
C1185 C1184 1.386 . S
C1185 C1189 1.393 . S
C1186 H1178 0.950 . S
C1186 C1184 1.391 . S
C1186 C1187 1.400 . S
C1187 C1186 1.400 . S
C1187 C1188 1.398 . S
C1187 C1193 1.491 . S
C1188 H1179 0.950 . S
C1188 C1187 1.398 . S
C1188 C1189 1.391 . S
C1189 H1177 0.950 . S
C1189 C1185 1.393 . S
C1189 C1188 1.391 . S
C1190 H1180 0.950 . S
C1190 C1191 1.386 . S
C1190 C1192 1.391 . S
C1191 C1190 1.386 . S
C1191 C1195 1.393 . S
C1192 H1181 0.950 . S
C1192 C1190 1.391 . S
C1192 C1193 1.400 . S
C1193 C1187 1.491 . S
C1193 C1192 1.400 . S
C1193 C1194 1.398 . S
C1194 H1182 0.950 . S
C1194 C1193 1.398 . S
C1194 C1195 1.391 . S
C1195 H1183 0.950 . S
C1195 C1191 1.393 . S
C1195 C1194 1.391 . S
H1196 C1204 0.950 . S
H1197 C1209 0.950 . S
H1198 C1206 0.950 . S
H1199 C1208 0.950 . S
H1200 C1210 0.950 . S
H1201 C1212 0.950 . S
H1202 C1214 0.950 . S
H1203 C1215 0.950 . S
C1204 H1196 0.950 . S
C1204 C1205 1.386 . S
C1204 C1206 1.391 . S
C1205 C1204 1.386 . S
C1205 C1209 1.393 . S
C1206 H1198 0.950 . S
C1206 C1204 1.391 . S
C1206 C1207 1.400 . S
C1207 C1206 1.400 . S
C1207 C1208 1.398 . S
C1207 C1213 1.491 . S
C1208 H1199 0.950 . S
C1208 C1207 1.398 . S
C1208 C1209 1.391 . S
C1209 H1197 0.950 . S
C1209 C1205 1.393 . S
C1209 C1208 1.391 . S
C1210 H1200 0.950 . S
C1210 C1211 1.386 . S
C1210 C1212 1.391 . S
C1211 C1210 1.386 . S
C1211 C1215 1.393 . S
C1212 H1201 0.950 . S
C1212 C1210 1.391 . S
C1212 C1213 1.400 . S
C1213 C1207 1.491 . S
C1213 C1212 1.400 . S
C1213 C1214 1.398 . S
C1214 H1202 0.950 . S
C1214 C1213 1.398 . S
C1214 C1215 1.391 . S
C1215 H1203 0.950 . S
C1215 C1211 1.393 . S
C1215 C1214 1.391 . S
H1216 C1224 0.950 . S
H1217 C1229 0.950 . S
H1218 C1226 0.950 . S
H1219 C1228 0.950 . S
H1220 C1230 0.950 . S
H1221 C1232 0.950 . S
H1222 C1234 0.950 . S
H1223 C1235 0.950 . S
C1224 H1216 0.950 . S
C1224 C1225 1.386 . S
C1224 C1226 1.391 . S
C1225 C1224 1.386 . S
C1225 C1229 1.393 . S
C1226 H1218 0.950 . S
C1226 C1224 1.391 . S
C1226 C1227 1.400 . S
C1227 C1226 1.400 . S
C1227 C1228 1.398 . S
C1227 C1233 1.491 . S
C1228 H1219 0.950 . S
C1228 C1227 1.398 . S
C1228 C1229 1.391 . S
C1229 H1217 0.950 . S
C1229 C1225 1.393 . S
C1229 C1228 1.391 . S
C1230 H1220 0.950 . S
C1230 C1231 1.386 . S
C1230 C1232 1.391 . S
C1231 C1230 1.386 . S
C1231 C1235 1.393 . S
C1232 H1221 0.950 . S
C1232 C1230 1.391 . S
C1232 C1233 1.400 . S
C1233 C1227 1.491 . S
C1233 C1232 1.400 . S
C1233 C1234 1.398 . S
C1234 H1222 0.950 . S
C1234 C1233 1.398 . S
C1234 C1235 1.391 . S
C1235 H1223 0.950 . S
C1235 C1231 1.393 . S
C1235 C1234 1.391 . S
H1236 C1244 0.950 . S
H1237 C1249 0.950 . S
H1238 C1246 0.950 . S
H1239 C1248 0.950 . S
H1240 C1250 0.950 . S
H1241 C1252 0.950 . S
H1242 C1254 0.950 . S
H1243 C1255 0.950 . S
C1244 H1236 0.950 . S
C1244 C1245 1.386 . S
C1244 C1246 1.391 . S
C1245 C1244 1.386 . S
C1245 C1249 1.393 . S
C1246 H1238 0.950 . S
C1246 C1244 1.391 . S
C1246 C1247 1.400 . S
C1247 C1246 1.400 . S
C1247 C1248 1.398 . S
C1247 C1253 1.491 . S
C1248 H1239 0.950 . S
C1248 C1247 1.398 . S
C1248 C1249 1.391 . S
C1249 H1237 0.950 . S
C1249 C1245 1.393 . S
C1249 C1248 1.391 . S
C1250 H1240 0.950 . S
C1250 C1251 1.386 . S
C1250 C1252 1.391 . S
C1251 C1250 1.386 . S
C1251 C1255 1.393 . S
C1252 H1241 0.950 . S
C1252 C1250 1.391 . S
C1252 C1253 1.400 . S
C1253 C1247 1.491 . S
C1253 C1252 1.400 . S
C1253 C1254 1.398 . S
C1254 H1242 0.950 . S
C1254 C1253 1.398 . S
C1254 C1255 1.391 . S
C1255 H1243 0.950 . S
C1255 C1251 1.393 . S
C1255 C1254 1.391 . S
H1256 C1264 0.950 . S
H1257 C1269 0.950 . S
H1258 C1266 0.950 . S
H1259 C1268 0.955 . S
H1260 C1270 0.950 . S
H1261 C1272 0.950 . S
H1262 C1274 0.950 1_565 S
H1263 C1275 0.950 . S
C1264 H1256 0.950 . S
C1264 C1265 1.386 . S
C1264 C1266 1.391 . S
C1265 C1264 1.386 . S
C1265 C1269 1.393 . S
C1266 H1258 0.950 . S
C1266 C1264 1.391 . S
C1266 C1267 1.400 . S
C1267 C1266 1.400 . S
C1267 C1268 1.398 . S
C1267 C1273 1.491 1_565 S
C1268 H1259 0.955 . S
C1268 C1267 1.398 . S
C1268 C1269 1.391 . S
C1269 H1257 0.950 . S
C1269 C1265 1.393 . S
C1269 C1268 1.391 . S
C1270 H1260 0.950 . S
C1270 C1271 1.386 . S
C1270 C1272 1.391 . S
C1271 C1270 1.386 . S
C1271 C1275 1.393 . S
C1272 H1261 0.950 . S
C1272 C1270 1.391 . S
C1272 C1273 1.400 . S
C1273 C1267 1.491 1_545 S
C1273 C1272 1.400 . S
C1273 C1274 1.398 . S
C1274 H1262 0.950 1_545 S
C1274 C1273 1.398 . S
C1274 C1275 1.391 . S
C1275 H1263 0.950 . S
C1275 C1271 1.393 . S
C1275 C1274 1.391 . S
H1276 C1284 0.950 . S
H1277 C1289 0.950 . S
H1278 C1286 0.950 . S
H1279 C1288 0.950 . S
H1280 C1290 0.950 . S
H1281 C1292 0.950 1_655 S
H1282 C1294 0.950 . S
H1283 C1295 0.950 . S
C1284 H1276 0.950 . S
C1284 C1285 1.386 . S
C1284 C1286 1.391 1_655 S
C1285 C1284 1.386 . S
C1285 C1289 1.393 . S
C1286 H1278 0.950 . S
C1286 C1284 1.391 1_455 S
C1286 C1287 1.400 1_455 S
C1287 C1286 1.400 1_655 S
C1287 C1288 1.398 . S
C1287 C1293 1.491 1_655 S
C1288 H1279 0.950 . S
C1288 C1287 1.398 . S
C1288 C1289 1.391 . S
C1289 H1277 0.950 . S
C1289 C1285 1.393 . S
C1289 C1288 1.391 . S
C1290 H1280 0.950 . S
C1290 C1291 1.386 . S
C1290 C1292 1.391 . S
C1291 C1290 1.386 . S
C1291 C1295 1.393 . S
C1292 H1281 0.950 1_455 S
C1292 C1290 1.391 . S
C1292 C1293 1.400 . S
C1293 C1287 1.491 1_455 S
C1293 C1292 1.400 . S
C1293 C1294 1.398 . S
C1294 H1282 0.950 . S
C1294 C1293 1.398 . S
C1294 C1295 1.391 . S
C1295 H1283 0.950 . S
C1295 C1291 1.393 . S
C1295 C1294 1.391 . S
C765 C156 1.150 . S
C771 C67 1.344 1_554 S
C785 C240 1.147 . S
C791 C151 1.323 1_554 S
C805 C235 1.328 1_554 S
C811 C72 1.191 . S
C825 C231 1.191 . S
C831 C140 1.318 . S
C845 C224 1.332 . S
C851 C63 1.190 . S
C865 C56 1.334 . S
C871 C147 1.176 . S
C885 C319 1.344 . S
C891 C408 1.150 . S
C905 C492 1.159 . S
C911 C403 1.351 . S
C925 C487 1.322 . S
C931 C324 1.181 . S
C945 C392 1.322 . S
C951 C483 1.199 . S
C965 C476 1.326 . S
C971 C315 1.147 . S
C985 C399 1.179 . S
C991 C308 1.334 . S
C1005 C660 1.162 . S
C1011 C571 1.318 . S
C1025 C655 1.327 . S
C1031 C744 1.189 . S
C1045 C739 1.320 . S
C1051 C576 1.153 . S
C1065 C735 1.183 . S
C1071 C644 1.316 . S
C1085 C728 1.326 . S
C1091 C567 1.147 . S
C1105 C560 1.331 . S
C1111 C651 1.192 . S
C1125 C495 2.556 . S
C1131 C66 2.635 . S
C1145 C327 2.568 . S
C1151 C150 2.622 . S
C1165 C234 2.637 . S
C1171 C411 2.564 . S
C1185 C243 2.576 . S
C1191 C570 2.622 . S
C1205 C75 2.572 . S
C1211 C654 2.621 . S
C1225 C738 2.625 . S
C1231 C159 2.577 . S
C1245 C318 2.635 . S
C1251 C747 2.568 . S
C1265 C402 2.624 . S
C1271 C579 2.565 . S
C1285 C663 2.577 . S
C1291 C486 2.625 . S
