# Generated by pormake.
# Topology som, (6)-cn, num edge types: 1
# Building blocks:
#     Node 0, Type 0, BuildingBlock: FUNLAD_clean_sbu_0, # of connection points: 6
#     Node 1, Type 0, BuildingBlock: FUNLAD_clean_sbu_0, # of connection points: 6
#     Node 2, Type 0, BuildingBlock: FUNLAD_clean_sbu_0, # of connection points: 6
#     Node 3, Type 0, BuildingBlock: FUNLAD_clean_sbu_0, # of connection points: 6
#     Node 4, Type 0, BuildingBlock: FUNLAD_clean_sbu_0, # of connection points: 6
#     Node 5, Type 0, BuildingBlock: FUNLAD_clean_sbu_0, # of connection points: 6
#     Node 6, Type 0, BuildingBlock: FUNLAD_clean_sbu_0, # of connection points: 6
#     Node 7, Type 0, BuildingBlock: FUNLAD_clean_sbu_0, # of connection points: 6
#     Node 8, Type 0, BuildingBlock: FUNLAD_clean_sbu_0, # of connection points: 6
#     Node 9, Type 0, BuildingBlock: FUNLAD_clean_sbu_0, # of connection points: 6
#     Node 10, Type 0, BuildingBlock: FUNLAD_clean_sbu_0, # of connection points: 6
#     Node 11, Type 0, BuildingBlock: FUNLAD_clean_sbu_0, # of connection points: 6
#     Node 12, Type 0, BuildingBlock: FUNLAD_clean_sbu_0, # of connection points: 6
#     Node 13, Type 0, BuildingBlock: FUNLAD_clean_sbu_0, # of connection points: 6
#     Node 14, Type 0, BuildingBlock: FUNLAD_clean_sbu_0, # of connection points: 6
#     Node 15, Type 0, BuildingBlock: FUNLAD_clean_sbu_0, # of connection points: 6
#     Node 16, Type 0, BuildingBlock: FUNLAD_clean_sbu_0, # of connection points: 6
#     Node 17, Type 0, BuildingBlock: FUNLAD_clean_sbu_0, # of connection points: 6
#     Node 18, Type 0, BuildingBlock: FUNLAD_clean_sbu_0, # of connection points: 6
#     Node 19, Type 0, BuildingBlock: FUNLAD_clean_sbu_0, # of connection points: 6
#     Node 20, Type 0, BuildingBlock: FUNLAD_clean_sbu_0, # of connection points: 6
#     Node 21, Type 0, BuildingBlock: FUNLAD_clean_sbu_0, # of connection points: 6
#     Node 22, Type 0, BuildingBlock: FUNLAD_clean_sbu_0, # of connection points: 6
#     Node 23, Type 0, BuildingBlock: FUNLAD_clean_sbu_0, # of connection points: 6
#     Node 24, Type 0, BuildingBlock: FUNLAD_clean_sbu_0, # of connection points: 6
#     Node 25, Type 0, BuildingBlock: FUNLAD_clean_sbu_0, # of connection points: 6
#     Node 26, Type 0, BuildingBlock: FUNLAD_clean_sbu_0, # of connection points: 6
#     Node 27, Type 0, BuildingBlock: FUNLAD_clean_sbu_0, # of connection points: 6
#     Node 28, Type 0, BuildingBlock: FUNLAD_clean_sbu_0, # of connection points: 6
#     Node 29, Type 0, BuildingBlock: FUNLAD_clean_sbu_0, # of connection points: 6
#     Node 30, Type 0, BuildingBlock: FUNLAD_clean_sbu_0, # of connection points: 6
#     Node 31, Type 0, BuildingBlock: FUNLAD_clean_sbu_0, # of connection points: 6
#     Edge 32, Type (0, 0), None
#     Edge 33, Type (0, 0), None
#     Edge 34, Type (0, 0), None
#     Edge 35, Type (0, 0), None
#     Edge 36, Type (0, 0), None
#     Edge 37, Type (0, 0), None
#     Edge 38, Type (0, 0), None
#     Edge 39, Type (0, 0), None
#     Edge 40, Type (0, 0), None
#     Edge 41, Type (0, 0), None
#     Edge 42, Type (0, 0), None
#     Edge 43, Type (0, 0), None
#     Edge 44, Type (0, 0), None
#     Edge 45, Type (0, 0), None
#     Edge 46, Type (0, 0), None
#     Edge 47, Type (0, 0), None
#     Edge 48, Type (0, 0), None
#     Edge 49, Type (0, 0), None
#     Edge 50, Type (0, 0), None
#     Edge 51, Type (0, 0), None
#     Edge 52, Type (0, 0), None
#     Edge 53, Type (0, 0), None
#     Edge 54, Type (0, 0), None
#     Edge 55, Type (0, 0), None
#     Edge 56, Type (0, 0), None
#     Edge 57, Type (0, 0), None
#     Edge 58, Type (0, 0), None
#     Edge 59, Type (0, 0), None
#     Edge 60, Type (0, 0), None
#     Edge 61, Type (0, 0), None
#     Edge 62, Type (0, 0), None
#     Edge 63, Type (0, 0), None
#     Edge 64, Type (0, 0), None
#     Edge 65, Type (0, 0), None
#     Edge 66, Type (0, 0), None
#     Edge 67, Type (0, 0), None
#     Edge 68, Type (0, 0), None
#     Edge 69, Type (0, 0), None
#     Edge 70, Type (0, 0), None
#     Edge 71, Type (0, 0), None
#     Edge 72, Type (0, 0), None
#     Edge 73, Type (0, 0), None
#     Edge 74, Type (0, 0), None
#     Edge 75, Type (0, 0), None
#     Edge 76, Type (0, 0), None
#     Edge 77, Type (0, 0), None
#     Edge 78, Type (0, 0), None
#     Edge 79, Type (0, 0), None
#     Edge 80, Type (0, 0), None
#     Edge 81, Type (0, 0), None
#     Edge 82, Type (0, 0), None
#     Edge 83, Type (0, 0), None
#     Edge 84, Type (0, 0), None
#     Edge 85, Type (0, 0), None
#     Edge 86, Type (0, 0), None
#     Edge 87, Type (0, 0), None
#     Edge 88, Type (0, 0), None
#     Edge 89, Type (0, 0), None
#     Edge 90, Type (0, 0), None
#     Edge 91, Type (0, 0), None
#     Edge 92, Type (0, 0), None
#     Edge 93, Type (0, 0), None
#     Edge 94, Type (0, 0), None
#     Edge 95, Type (0, 0), None
#     Edge 96, Type (0, 0), None
#     Edge 97, Type (0, 0), None
#     Edge 98, Type (0, 0), None
#     Edge 99, Type (0, 0), None
#     Edge 100, Type (0, 0), None
#     Edge 101, Type (0, 0), None
#     Edge 102, Type (0, 0), None
#     Edge 103, Type (0, 0), None
#     Edge 104, Type (0, 0), None
#     Edge 105, Type (0, 0), None
#     Edge 106, Type (0, 0), None
#     Edge 107, Type (0, 0), None
#     Edge 108, Type (0, 0), None
#     Edge 109, Type (0, 0), None
#     Edge 110, Type (0, 0), None
#     Edge 111, Type (0, 0), None
#     Edge 112, Type (0, 0), None
#     Edge 113, Type (0, 0), None
#     Edge 114, Type (0, 0), None
#     Edge 115, Type (0, 0), None
#     Edge 116, Type (0, 0), None
#     Edge 117, Type (0, 0), None
#     Edge 118, Type (0, 0), None
#     Edge 119, Type (0, 0), None
#     Edge 120, Type (0, 0), None
#     Edge 121, Type (0, 0), None
#     Edge 122, Type (0, 0), None
#     Edge 123, Type (0, 0), None
#     Edge 124, Type (0, 0), None
#     Edge 125, Type (0, 0), None
#     Edge 126, Type (0, 0), None
#     Edge 127, Type (0, 0), None
# Relax obj value: 0.013
# Max RMSD: 0.076
# Mean RMSD: 0.076
data_MOF--net-som--node1-FUNLAD_clean_sbu_0--edge1-none
_symmetry_space_group_name_H-M    P1
_symmetry_Int_Tables_number       1
_symmetry_cell_setting            triclinic
loop_
_symmetry_equiv_pos_as_xyz
'x, y, z'
_cell_length_a     6.874454
_cell_length_b     27.033367
_cell_length_c     106.61667
_cell_angle_alpha  90.000599
_cell_angle_beta   90.000045
_cell_angle_gamma 89.998893
loop_
_atom_site_label
_atom_site_type_symbol
_atom_site_fract_x
_atom_site_fract_y
_atom_site_fract_z
_atom_type_partial_charge
C0 C 0.36918 0.47006 0.0872 0.0
N1 N -0.01155 0.47218 0.11691 0.0
C2 C 0.07921 0.43255 0.1222 0.0
C3 C 0.11893 0.43168 0.13501 0.0
C4 C 0.0691 0.47247 0.14246 0.0
C5 C -0.0257 0.51282 0.13685 0.0
C6 C 0.9336 0.51173 0.12399 0.0
Zn7 Zn -0.02736 0.47367 0.09768 0.0
C8 C 0.0544 0.57353 0.08724 0.0
N9 N -0.0278 0.47409 0.05742 0.0
C10 C 0.10635 0.44687 0.05107 0.0
C11 C 0.83649 0.50124 0.05119 0.0
C12 C 0.83035 0.5011 0.0381 0.0
C13 C 0.96894 0.47392 0.03123 0.0
C14 C 0.10928 0.44686 0.03797 0.0
Zn15 Zn -0.02586 0.4736 0.07669 0.0
O16 O 0.27645 0.46674 0.09741 0.0
C17 C 0.88495 0.37411 0.08688 0.0
O18 O 0.27988 0.46828 0.07681 0.0
H19 H 0.73149 0.52291 0.05637 0.0
H20 H 0.12739 0.40211 0.11641 0.0
H21 H 0.21224 0.42513 0.05614 0.0
O22 O 0.91485 0.39634 0.09721 0.0
O23 O 0.92302 0.39595 0.0766 0.0
H24 H 0.86323 0.54307 0.11962 0.0
O25 O 0.67014 0.47904 0.07712 0.0
O26 O 0.66752 0.48067 0.09782 0.0
O27 O 0.02217 0.55125 0.07694 0.0
O28 O 0.02704 0.55107 0.09757 0.0
C29 C 0.57799 0.47737 0.08741 0.0
H30 H 0.19366 0.40008 0.139 0.0
H31 H 0.93233 0.54478 0.14235 0.0
H32 H 0.71613 0.52176 0.03349 0.0
H33 H 0.22225 0.42611 0.03326 0.0
C34 C 0.81691 0.72832 0.08686 0.0
N35 N 0.19753 0.72597 0.11671 0.0
C36 C 0.10423 0.76526 0.12198 0.0
C37 C 0.06446 0.76608 0.1348 0.0
C38 C 0.11691 0.72558 0.14227 0.0
C39 C 0.21427 0.68558 0.13668 0.0
C40 C 0.2549 0.68671 0.12382 0.0
Zn41 Zn 0.21354 0.72445 0.09748 0.0
C42 C 0.12799 0.6246 0.0872 0.0
N43 N 0.2136 0.72384 0.05725 0.0
C44 C 0.14167 0.76351 0.05091 0.0
C45 C 0.28677 0.6841 0.05101 0.0
C46 C 0.28729 0.683 0.03791 0.0
C47 C 0.21704 0.72382 0.03106 0.0
C48 C 0.14467 0.7646 0.03782 0.0
Zn49 Zn 0.21177 0.7244 0.07649 0.0
O50 O 0.9095 0.73088 0.0971 0.0
C51 C 0.30484 0.82387 0.0868 0.0
O52 O 0.90635 0.73125 0.07647 0.0
H53 H 0.34439 0.65298 0.05618 0.0
H54 H 0.05416 0.79544 0.11617 0.0
H55 H 0.08258 0.79464 0.05601 0.0
O56 O 0.27031 0.8019 0.0971 0.0
O57 O 0.27011 0.80186 0.07651 0.0
H58 H 0.32725 0.65562 0.11946 0.0
O59 O 0.51565 0.71748 0.0768 0.0
O60 O 0.51882 0.71791 0.09752 0.0
O61 O 0.15653 0.64693 0.07687 0.0
O62 O 0.16038 0.64694 0.09748 0.0
C63 C 0.60806 0.7204 0.08708 0.0
H64 H -0.01227 0.79742 0.13876 0.0
H65 H 0.25828 0.65384 0.1422 0.0
H66 H 0.34076 0.65009 0.03328 0.0
H67 H 0.09251 0.79751 0.03313 0.0
C68 C 0.37019 0.72785 0.21111 0.0
N69 N -0.01052 0.72585 0.18138 0.0
C70 C 0.08024 0.76547 0.17609 0.0
C71 C 0.11996 0.76634 0.16327 0.0
C72 C 0.07014 0.72556 0.15583 0.0
C73 C -0.02468 0.68521 0.16143 0.0
C74 C 0.93462 0.6863 0.1743 0.0
Zn75 Zn -0.02633 0.7243 0.20062 0.0
C76 C 0.05468 0.6244 0.21104 0.0
N77 N -0.02683 0.72377 0.24089 0.0
C78 C 0.10731 0.75097 0.24725 0.0
C79 C 0.83728 0.69666 0.24711 0.0
C80 C 0.83092 0.69684 0.26021 0.0
C81 C 0.96944 0.72402 0.26709 0.0
C82 C 0.10999 0.75102 0.26035 0.0
Zn83 Zn -0.02484 0.7243 0.22162 0.0
O84 O 0.27746 0.73118 0.20089 0.0
C85 C 0.88668 0.82383 0.21145 0.0
O86 O 0.2809 0.72957 0.2215 0.0
H87 H 0.73227 0.67501 0.24194 0.0
H88 H 0.12842 0.79591 0.18188 0.0
H89 H 0.21334 0.77269 0.24218 0.0
O90 O 0.91635 0.80163 0.20112 0.0
O91 O 0.92452 0.80193 0.22173 0.0
H92 H 0.86423 0.65496 0.17867 0.0
O93 O 0.67117 0.71892 0.22118 0.0
O94 O 0.66855 0.71737 0.20048 0.0
O95 O 0.0227 0.64667 0.22135 0.0
O96 O 0.0276 0.64691 0.20072 0.0
C97 C 0.57902 0.7206 0.21089 0.0
H98 H 0.1947 0.79794 0.15929 0.0
H99 H 0.93332 0.65325 0.15593 0.0
H100 H 0.71655 0.67621 0.26481 0.0
H101 H 0.22291 0.77177 0.26506 0.0
C102 C 0.81581 0.4696 0.21141 0.0
N103 N 0.19651 0.47196 0.18156 0.0
C104 C 0.10287 0.43272 0.1763 0.0
C105 C 0.06305 0.43194 0.16348 0.0
C106 C 0.11581 0.47242 0.15601 0.0
C107 C 0.2135 0.51237 0.1616 0.0
C108 C 0.25416 0.5112 0.17446 0.0
Zn109 Zn 0.21261 0.47343 0.20079 0.0
C110 C 0.12763 0.57329 0.21108 0.0
N111 N 0.21274 0.47402 0.24101 0.0
C112 C 0.14134 0.43433 0.24736 0.0
C113 C 0.28604 0.51378 0.24724 0.0
C114 C 0.28715 0.5149 0.26034 0.0
C115 C 0.21743 0.47406 0.2672 0.0
C116 C 0.145 0.43324 0.26045 0.0
Zn117 Zn 0.21048 0.47348 0.22177 0.0
O118 O 0.90851 0.467 0.20117 0.0
C119 C 0.30289 0.37399 0.21145 0.0
O120 O 0.90513 0.46674 0.2218 0.0
H121 H 0.34338 0.5449 0.24206 0.0
H122 H 0.05261 0.40256 0.18211 0.0
H123 H 0.0822 0.40316 0.24228 0.0
O124 O 0.26927 0.39597 0.20115 0.0
O125 O 0.26787 0.39603 0.22174 0.0
H126 H 0.32679 0.54224 0.17882 0.0
O127 O 0.51441 0.48027 0.22146 0.0
O128 O 0.51782 0.47996 0.20074 0.0
O129 O 0.15598 0.55094 0.2214 0.0
O130 O 0.15968 0.55093 0.2008 0.0
C131 C 0.60695 0.47744 0.21118 0.0
H132 H -0.01393 0.40065 0.15952 0.0
H133 H 0.25775 0.54408 0.15608 0.0
H134 H 0.34066 0.54782 0.26496 0.0
H135 H 0.09328 0.40031 0.26515 0.0
C136 C 0.35998 0.47038 0.96116 0.0
N137 N 0.96529 0.47384 0.991 0.0
C138 C 0.03797 0.43408 0.99726 0.0
C139 C 0.03775 0.43298 1.01036 0.0
C140 C 0.96728 0.47382 1.01719 0.0
C141 C 0.89543 0.51461 1.01041 0.0
C142 C 0.89312 0.51351 0.99732 0.0
Zn143 Zn 0.96385 0.47435 0.97175 0.0
C144 C 0.05528 0.57381 0.96142 0.0
N145 N 0.94944 0.4758 0.93151 0.0
C146 C 0.00664 0.4365 0.92441 0.0
C147 C 0.85665 0.51515 0.92623 0.0
C148 C 0.81738 0.51599 0.9134 0.0
C149 C 0.86968 0.47546 0.90594 0.0
C150 C 0.96639 0.43538 0.91154 0.0
Zn151 Zn 0.96531 0.47432 0.95075 0.0
O152 O 0.26767 0.46761 0.97144 0.0
C153 C 0.88153 0.37449 0.96106 0.0
O154 O 0.27063 0.46784 0.95072 0.0
H155 H 0.80666 0.54536 0.93203 0.0
H156 H 0.09572 0.40294 0.9921 0.0
H157 H 0.07863 0.40538 0.92878 0.0
O158 O 0.91005 0.39691 0.97137 0.0
O159 O 0.91273 0.39682 0.95076 0.0
H160 H 0.83428 0.54465 0.99221 0.0
O161 O 0.66133 0.48071 0.95112 0.0
O162 O 0.6584 0.48102 0.97175 0.0
O163 O 0.02141 0.55178 0.95112 0.0
O164 O 0.02093 0.5518 0.97171 0.0
C165 C 0.56885 0.47816 0.96136 0.0
H166 H 0.0908 0.40006 1.015 0.0
H167 H 0.84309 0.54753 1.01509 0.0
H168 H 0.74117 0.54737 0.90942 0.0
H169 H 0.01023 0.40362 0.90603 0.0
C170 C 0.33023 0.2275 0.96117 0.0
N171 N 0.72469 0.2241 0.99101 0.0
C172 C 0.65194 0.26388 0.99726 0.0
C173 C 0.65147 0.26499 1.01035 0.0
C174 C 0.72127 0.22412 1.0172 0.0
C175 C 0.79318 0.18329 1.01044 0.0
C176 C 0.79623 0.18439 0.99735 0.0
Zn177 Zn 0.72656 0.22355 0.97177 0.0
C178 C 0.63495 0.12407 0.96145 0.0
N179 N 0.74085 0.22201 0.93156 0.0
C180 C 0.68328 0.26122 0.92445 0.0
C181 C 0.83461 0.18275 0.92631 0.0
C182 C 0.87471 0.18193 0.9135 0.0
C183 C 0.8221 0.22239 0.90602 0.0
C184 C 0.72423 0.26236 0.91159 0.0
Zn185 Zn 0.72468 0.22354 0.95078 0.0
O186 O 0.42269 0.23025 0.97146 0.0
C187 C 0.80868 0.32339 0.96107 0.0
O188 O 0.41942 0.23006 0.95073 0.0
H189 H 0.88484 0.15262 0.93213 0.0
H190 H 0.59458 0.29504 0.99209 0.0
H191 H 0.61056 0.29228 0.92879 0.0
O192 O 0.78018 0.30101 0.97139 0.0
O193 O 0.77744 0.30103 0.95078 0.0
H194 H 0.85508 0.15322 0.99226 0.0
O195 O 0.02873 0.21711 0.95116 0.0
O196 O 0.03195 0.21693 0.97179 0.0
O197 O 0.66825 0.14609 0.95114 0.0
O198 O 0.66984 0.1461 0.97173 0.0
C199 C 0.12136 0.21972 0.9614 0.0
H200 H 0.59839 0.29793 1.01499 0.0
H201 H 0.84498 0.15034 1.01513 0.0
H202 H 0.95182 0.15064 0.90954 0.0
H203 H 0.6801 0.29405 0.90606 0.0
C204 C 0.36103 0.2273 0.83744 0.0
N205 N 0.96677 0.22411 0.80745 0.0
C206 C 0.1025 0.25124 0.80122 0.0
C207 C 0.10863 0.25108 0.78813 0.0
C208 C -0.02998 0.22389 0.78126 0.0
C209 C 0.82967 0.19686 0.788 0.0
C210 C 0.83261 0.19689 0.8011 0.0
Zn211 Zn 0.96487 0.22359 0.82671 0.0
C212 C 0.05339 0.12407 0.83689 0.0
N213 N 0.95051 0.22207 0.86693 0.0
C214 C 0.00542 0.26161 0.87402 0.0
C215 C 0.85947 0.18246 0.87221 0.0
C216 C 0.81941 0.18162 0.88502 0.0
C217 C 0.86921 0.22241 0.89247 0.0
C218 C 0.96438 0.26272 0.88687 0.0
Zn219 Zn 0.9664 0.2236 0.84771 0.0
O220 O 0.26886 0.22898 0.82715 0.0
C221 C 0.88536 0.3235 0.83729 0.0
O222 O 0.27151 0.23054 0.84785 0.0
H223 H 0.81126 0.15204 0.86642 0.0
H224 H 0.20755 0.2729 0.80639 0.0
H225 H 0.07604 0.29292 0.86965 0.0
O226 O 0.91727 0.30123 0.82698 0.0
O227 O 0.9125 0.30099 0.84762 0.0
H228 H 0.72671 0.17515 0.80618 0.0
O229 O 0.66259 0.21674 0.84744 0.0
O230 O 0.65914 0.21832 0.82683 0.0
O231 O 0.02372 0.14628 0.84722 0.0
O232 O 0.01555 0.14595 0.82661 0.0
C233 C 0.56985 0.22005 0.83723 0.0
H234 H 0.22286 0.27173 0.78351 0.0
H235 H 0.71669 0.1761 0.78329 0.0
H236 H 0.74444 0.15005 0.889 0.0
H237 H 0.00635 0.29467 0.89238 0.0
C238 C 0.3331 0.47046 0.83718 0.0
N239 N 0.72718 0.47389 0.80733 0.0
C240 C 0.65364 0.43415 0.80111 0.0
C241 C 0.65225 0.43305 0.78801 0.0
C242 C 0.72193 0.47389 0.78114 0.0
C243 C 0.79464 0.51468 0.78789 0.0
C244 C 0.79856 0.51357 0.80098 0.0
Zn245 Zn 0.72952 0.47442 0.82658 0.0
C246 C 0.63717 0.57391 0.8369 0.0
N247 N 0.74354 0.47591 0.86681 0.0
C248 C 0.68656 0.43656 0.8739 0.0
C249 C 0.8362 0.51525 0.8721 0.0
C250 C 0.87559 0.51606 0.88492 0.0
C251 C 0.82352 0.47547 0.89238 0.0
C252 C 0.72693 0.4354 0.88677 0.0
Zn253 Zn 0.72749 0.47447 0.84757 0.0
O254 O 0.4256 0.46763 0.8269 0.0
C255 C 0.81242 0.37461 0.83726 0.0
O256 O 0.42225 0.46792 0.84762 0.0
H257 H 0.88598 0.54551 0.8663 0.0
H258 H 0.5963 0.40303 0.80629 0.0
H259 H 0.61465 0.40544 0.86953 0.0
O260 O 0.78394 0.39696 0.82694 0.0
O261 O 0.7805 0.39696 0.84755 0.0
H262 H 0.85785 0.54472 0.80606 0.0
O263 O 0.03156 0.48092 0.84719 0.0
O264 O 0.03489 0.48113 0.82655 0.0
O265 O 0.67075 0.55194 0.84721 0.0
O266 O 0.67222 0.55185 0.82662 0.0
C267 C 0.12423 0.47831 0.83695 0.0
H268 H 0.59853 0.40015 0.78339 0.0
H269 H 0.84636 0.5476 0.78319 0.0
H270 H 0.95168 0.54745 0.88891 0.0
H271 H 0.68325 0.4036 0.89228 0.0
C272 C 0.37081 0.96976 0.58699 0.0
N273 N -0.00967 0.97194 0.61685 0.0
C274 C 0.0832 0.93258 0.62212 0.0
C275 C 0.12306 0.93174 0.63494 0.0
C276 C 0.07128 0.9723 0.64241 0.0
C277 C -0.02563 0.01238 0.63682 0.0
C278 C 0.93352 0.01125 0.62396 0.0
Zn279 Zn -0.02566 0.97352 0.5976 0.0
C280 C 0.0579 0.07343 0.58734 0.0
N281 N -0.02552 -0.02578 0.55735 0.0
C282 C 0.04676 0.93455 0.55103 0.0
C283 C 0.90172 0.01396 0.55109 0.0
C284 C 0.90182 0.01502 0.53799 0.0
C285 C -0.02772 -0.02583 0.53115 0.0
C286 C 0.04435 0.93342 0.53794 0.0
Zn287 Zn -0.02419 0.97363 0.5766 0.0
O288 O 0.27833 0.96715 0.59723 0.0
C289 C 0.88444 0.8741 0.58688 0.0
O290 O 0.28126 0.96698 0.5766 0.0
H291 H 0.84395 0.0451 0.55624 0.0
H292 H 0.13289 0.90235 0.61631 0.0
H293 H 0.10573 0.90343 0.55614 0.0
O294 O 0.9183 0.89606 0.59719 0.0
O295 O 0.9188 0.89619 0.5766 0.0
H296 H 0.86147 0.04239 0.6196 0.0
O297 O 0.67199 -0.01964 0.57691 0.0
O298 O 0.66903 -0.02001 0.59764 0.0
O299 O 0.02947 0.05108 0.57701 0.0
O300 O 0.0268 0.05103 0.59762 0.0
C301 C 0.57969 -0.02248 0.5872 0.0
H302 H 0.19939 0.90035 0.6389 0.0
H303 H 0.93086 0.04416 0.64234 0.0
H304 H 0.84862 0.04792 0.53334 0.0
H305 H 0.09673 0.90049 0.53327 0.0
C306 C 0.81763 0.22823 0.58704 0.0
N307 N 0.19813 0.22594 0.61689 0.0
C308 C 0.10523 0.2653 0.62216 0.0
C309 C 0.06532 0.26613 0.63498 0.0
C310 C 0.1171 0.22557 0.64244 0.0
C311 C 0.21399 0.18548 0.63686 0.0
C312 C 0.25488 0.18662 0.624 0.0
Zn313 Zn 0.21426 0.22443 0.59765 0.0
C314 C 0.13051 0.12455 0.58735 0.0
N315 N 0.2143 0.22385 0.55741 0.0
C316 C 0.14266 0.26354 0.55108 0.0
C317 C 0.28715 0.18407 0.55117 0.0
C318 C 0.2876 0.18296 0.53807 0.0
C319 C 0.21773 0.22382 0.53122 0.0
C320 C 0.14572 0.26464 0.53799 0.0
Zn321 Zn 0.21245 0.22439 0.57666 0.0
O322 O 0.91023 0.23087 0.59728 0.0
C323 C 0.30392 0.32389 0.58696 0.0
O324 O 0.90705 0.23098 0.57664 0.0
H325 H 0.3446 0.15292 0.55634 0.0
H326 H 0.05556 0.29552 0.61635 0.0
H327 H 0.08372 0.29471 0.55617 0.0
O328 O 0.27076 0.30191 0.59728 0.0
O329 O 0.26896 0.30182 0.57669 0.0
H330 H 0.32692 0.15548 0.61964 0.0
O331 O 0.51632 0.21773 0.57697 0.0
O332 O 0.51953 0.2179 0.5977 0.0
O333 O 0.15908 0.14696 0.57704 0.0
O334 O 0.16148 0.1469 0.59765 0.0
C335 C 0.60875 0.22046 0.58726 0.0
H336 H -0.011 0.29752 0.63894 0.0
H337 H 0.25746 0.1537 0.64238 0.0
H338 H 0.34076 0.15002 0.53344 0.0
H339 H 0.09385 0.29758 0.5333 0.0
C340 C 0.36976 0.22822 0.7114 0.0
N341 N -0.01074 0.22593 0.68155 0.0
C342 C 0.08213 0.26529 0.67628 0.0
C343 C 0.12201 0.26613 0.66346 0.0
C344 C 0.07023 0.22557 0.656 0.0
C345 C -0.02666 0.18548 0.66158 0.0
C346 C 0.93248 0.18661 0.67444 0.0
Zn347 Zn -0.02673 0.22438 0.70079 0.0
C348 C 0.05761 0.12452 0.71107 0.0
N349 N -0.02656 0.2238 0.74103 0.0
C350 C 0.04561 0.26348 0.74735 0.0
C351 C 0.90089 0.18403 0.74729 0.0
C352 C 0.90119 0.18293 0.76039 0.0
C353 C -0.02837 0.22378 0.76722 0.0
C354 C 0.0434 0.26457 0.76044 0.0
Zn355 Zn -0.02523 0.22436 0.72178 0.0
O356 O 0.27727 0.23081 0.70115 0.0
C357 C 0.88267 0.32384 0.71148 0.0
O358 O 0.28023 0.23106 0.72179 0.0
H359 H 0.84317 0.15288 0.74214 0.0
H360 H 0.13181 0.29552 0.68209 0.0
H361 H 0.10438 0.29462 0.74224 0.0
O362 O 0.91676 0.30185 0.70117 0.0
O363 O 0.91728 0.30181 0.72176 0.0
H364 H 0.86046 0.15548 0.6788 0.0
O365 O 0.67095 0.21757 0.72148 0.0
O366 O 0.66796 0.21787 0.70075 0.0
O367 O 0.02894 0.1469 0.72139 0.0
O368 O 0.02621 0.14688 0.70078 0.0
C369 C 0.57863 0.22039 0.71119 0.0
H370 H 0.19832 0.29752 0.6595 0.0
H371 H 0.92986 0.1537 0.65606 0.0
H372 H 0.84821 0.15001 0.76504 0.0
H373 H 0.09573 0.2975 0.76511 0.0
C374 C 0.81873 0.96975 0.71138 0.0
N375 N 0.19915 0.97202 0.68152 0.0
C376 C 0.10657 0.93261 0.67625 0.0
C377 C 0.06673 0.93174 0.66343 0.0
C378 C 0.1182 0.97232 0.65596 0.0
C379 C 0.21477 0.01246 0.66155 0.0
C380 C 0.25561 0.01136 0.67441 0.0
Zn381 Zn 0.21519 0.97358 0.70077 0.0
C382 C 0.13086 0.07344 0.71106 0.0
N383 N 0.21515 -0.02582 0.74101 0.0
C384 C 0.14298 0.93451 0.74733 0.0
C385 C 0.28786 0.01393 0.74727 0.0
C386 C 0.28773 0.01503 0.76037 0.0
C387 C 0.21732 -0.02581 0.7672 0.0
C388 C 0.14538 0.9334 0.76042 0.0
Zn389 Zn 0.21374 0.97362 0.72176 0.0
O390 O 0.91121 0.96714 0.70114 0.0
C391 C 0.30587 0.87414 0.71147 0.0
O392 O 0.90827 0.96691 0.72177 0.0
H393 H 0.3456 0.04508 0.74211 0.0
H394 H 0.05711 0.90236 0.68206 0.0
H395 H 0.08409 0.90338 0.74223 0.0
O396 O 0.27179 0.89611 0.70116 0.0
O397 O 0.2712 0.89618 0.72175 0.0
H398 H 0.32739 0.04254 0.67877 0.0
O399 O 0.51755 -0.0196 0.72146 0.0
O400 O 0.52052 -0.01989 0.70073 0.0
O401 O 0.15961 0.05106 0.72138 0.0
O402 O 0.16217 0.0511 0.70077 0.0
C403 C 0.60986 -0.02242 0.71117 0.0
H404 H -0.00935 0.90031 0.65947 0.0
H405 H 0.25801 0.04426 0.65603 0.0
H406 H 0.34084 0.04794 0.76501 0.0
H407 H 0.09307 0.90048 0.7651 0.0
C408 C 0.36092 0.97061 0.46092 0.0
N409 N 0.96669 0.97373 0.49092 0.0
C410 C 0.10255 0.94661 0.49715 0.0
C411 C 0.1089 0.94681 0.51024 0.0
C412 C -0.02961 -0.02599 0.51712 0.0
C413 C 0.82987 0.00101 0.51037 0.0
C414 C 0.83258 0.00094 0.49728 0.0
Zn415 Zn 0.96476 -0.0257 0.47165 0.0
C416 C 0.05391 0.07385 0.46151 0.0
N417 N 0.95032 -0.02402 0.43142 0.0
C418 C 0.00482 0.93642 0.42433 0.0
C419 C 0.85951 0.01564 0.42615 0.0
C420 C 0.8192 0.01649 0.41333 0.0
C421 C 0.86851 -0.02432 0.40588 0.0
C422 C 0.96353 0.93533 0.41147 0.0
Zn423 Zn 0.96629 -0.02563 0.45066 0.0
O424 O 0.26876 0.96888 0.47121 0.0
C425 C 0.88473 0.87443 0.46105 0.0
O426 O 0.27141 0.96739 0.45051 0.0
H427 H 0.81164 0.04608 0.43194 0.0
H428 H 0.20758 0.92496 0.49197 0.0
H429 H 0.07526 0.90507 0.42869 0.0
O430 O 0.91684 0.89665 0.47136 0.0
O431 O 0.91201 0.89697 0.45073 0.0
H432 H 0.7266 0.02267 0.49221 0.0
O433 O 0.66248 -0.01872 0.45093 0.0
O434 O 0.65902 -0.02039 0.47154 0.0
O435 O 0.02402 0.05171 0.45117 0.0
O436 O 0.01581 0.05194 0.47178 0.0
C437 C 0.56974 -0.0221 0.46114 0.0
H438 H 0.22326 0.92619 0.51485 0.0
H439 H 0.71695 0.02177 0.51509 0.0
H440 H 0.74436 0.0481 0.40936 0.0
H441 H 0.00518 0.90335 0.40597 0.0
C442 C 0.33152 0.72752 0.46117 0.0
N443 N 0.72598 0.7241 0.49101 0.0
C444 C 0.65272 0.76383 0.49725 0.0
C445 C 0.6522 0.76494 0.51035 0.0
C446 C 0.72255 0.72413 0.5172 0.0
C447 C 0.79501 0.68336 0.51044 0.0
C448 C 0.79801 0.68445 0.49735 0.0
Zn449 Zn 0.72779 0.72354 0.47177 0.0
C450 C 0.63485 0.62405 0.46147 0.0
N451 N 0.7421 0.72196 0.43152 0.0
C452 C 0.68551 0.76132 0.42443 0.0
C453 C 0.8345 0.68256 0.42624 0.0
C454 C 0.87406 0.68173 0.41342 0.0
C455 C 0.82245 0.72233 0.40596 0.0
C456 C 0.72606 0.76245 0.41156 0.0
Zn457 Zn 0.72608 0.72347 0.45078 0.0
O458 O 0.42391 0.73042 0.47146 0.0
C459 C 0.81139 0.82334 0.46107 0.0
O460 O 0.42079 0.73001 0.45073 0.0
H461 H 0.884 0.65228 0.43204 0.0
H462 H 0.59501 0.79494 0.49208 0.0
H463 H 0.61382 0.79249 0.42879 0.0
O464 O 0.78278 0.80099 0.47139 0.0
O465 O 0.77926 0.80101 0.45078 0.0
H466 H 0.85718 0.65332 0.49225 0.0
O467 O 0.0301 0.71702 0.45115 0.0
O468 O 0.03322 0.71673 0.47178 0.0
O469 O 0.66925 0.64598 0.45116 0.0
O470 O 0.66966 0.6461 0.47175 0.0
C471 C 0.12267 0.71962 0.46139 0.0
H472 H 0.59867 0.79783 0.51498 0.0
H473 H 0.84725 0.65045 0.51513 0.0
H474 H 0.95 0.6503 0.40944 0.0
H475 H 0.6827 0.79427 0.40605 0.0
C476 C 0.35987 0.72759 0.33717 0.0
N477 N 0.96516 0.7242 0.30732 0.0
C478 C 0.03791 0.76394 0.30106 0.0
C479 C 0.03789 0.76502 0.28796 0.0
C480 C 0.96751 0.72417 0.28112 0.0
C481 C 0.89548 0.6834 0.28791 0.0
C482 C 0.89301 0.68452 0.301 0.0
Zn483 Zn 0.96375 0.72364 0.32657 0.0
C484 C 0.0558 0.62415 0.33687 0.0
N485 N 0.94925 0.72203 0.36683 0.0
C486 C 0.006 0.76136 0.37393 0.0
C487 C 0.85672 0.68264 0.3721 0.0
C488 C 0.8172 0.68177 0.38493 0.0
C489 C 0.86898 0.72234 0.39239 0.0
C490 C 0.9655 0.76246 0.3868 0.0
Zn491 Zn 0.96518 0.72359 0.34757 0.0
O492 O 0.26757 0.73042 0.32688 0.0
C493 C 0.88091 0.82346 0.33729 0.0
O494 O 0.27051 0.73011 0.34761 0.0
H495 H 0.80708 0.65239 0.3663 0.0
H496 H 0.09561 0.79509 0.30621 0.0
H497 H 0.07779 0.79252 0.36957 0.0
O498 O 0.90967 0.80109 0.32697 0.0
O499 O 0.91221 0.80111 0.34758 0.0
H500 H 0.83409 0.6534 0.3061 0.0
O501 O 0.66121 0.71715 0.3472 0.0
O502 O 0.65829 0.71694 0.32657 0.0
O503 O 0.02172 0.64611 0.34718 0.0
O504 O 0.02117 0.64619 0.32659 0.0
C505 C 0.56873 0.71976 0.33696 0.0
H506 H 0.09106 0.79792 0.28331 0.0
H507 H 0.84316 0.65048 0.28323 0.0
H508 H 0.74115 0.65035 0.3889 0.0
H509 H 0.00899 0.79425 0.39231 0.0
C510 C 0.32868 0.97041 0.33716 0.0
N511 N 0.72351 0.9738 0.30733 0.0
C512 C 0.65103 0.93402 0.30107 0.0
C513 C 0.65144 0.9329 0.28797 0.0
C514 C 0.72188 0.97375 0.28114 0.0
C515 C 0.79354 0.01456 0.28792 0.0
C516 C 0.79569 0.01347 0.30101 0.0
Zn517 Zn 0.72484 -0.02562 0.32657 0.0
C518 C 0.63264 0.07385 0.33687 0.0
N519 N 0.73943 -0.02399 0.36679 0.0
C520 C 0.68226 0.93678 0.37391 0.0
C521 C 0.83291 0.01532 0.37204 0.0
C522 C 0.87317 0.01617 0.38485 0.0
C523 C 0.82104 -0.02431 0.39234 0.0
C524 C 0.72338 0.93568 0.38677 0.0
Zn525 Zn 0.7233 -0.0256 0.34756 0.0
O526 O 0.42102 0.96758 0.32687 0.0
C527 C 0.80767 0.87454 0.33729 0.0
O528 O 0.41799 0.96789 0.3476 0.0
H529 H 0.88285 0.04547 0.36622 0.0
H530 H 0.5933 0.90287 0.30623 0.0
H531 H 0.60978 0.90567 0.36957 0.0
O532 O 0.77905 0.89692 0.32697 0.0
O533 O 0.77622 0.89689 0.34758 0.0
H534 H 0.85443 0.04462 0.30612 0.0
O535 O 0.02729 -0.01917 0.34719 0.0
O536 O 0.0303 -0.01891 0.32656 0.0
O537 O 0.66677 0.05187 0.34717 0.0
O538 O 0.66729 0.05183 0.32658 0.0
C539 C 0.11982 -0.02176 0.33695 0.0
H540 H 0.59854 0.89997 0.28333 0.0
H541 H 0.84585 0.04748 0.28325 0.0
H542 H 0.95012 0.04751 0.38879 0.0
H543 H 0.67959 0.90396 0.39231 0.0
C544 C 0.87383 0.46967 0.58693 0.0
N545 N 0.49291 0.4722 0.61676 0.0
C546 C 0.58661 0.433 0.62204 0.0
C547 C 0.6256 0.43219 0.63487 0.0
C548 C 0.57195 0.47262 0.64233 0.0
C549 C 0.47438 0.51256 0.63673 0.0
C550 C 0.43454 0.5114 0.62385 0.0
Zn551 Zn 0.47703 0.47357 0.59755 0.0
C552 C 0.56176 0.57334 0.58722 0.0
N553 N 0.47676 0.47392 0.55734 0.0
C554 C 0.54805 0.43422 0.55098 0.0
C555 C 0.40339 0.51368 0.55111 0.0
C556 C 0.40221 0.51481 0.53802 0.0
C557 C 0.47186 0.47397 0.53115 0.0
C558 C 0.54428 0.43314 0.5379 0.0
Zn559 Zn 0.47916 0.47347 0.57657 0.0
O560 O 0.78113 0.46717 0.59717 0.0
C561 C 0.38727 0.37405 0.58694 0.0
O562 O 0.78451 0.46676 0.57654 0.0
H563 H 0.34605 0.5448 0.55629 0.0
H564 H 0.63744 0.40288 0.61624 0.0
H565 H 0.60719 0.40306 0.55606 0.0
O566 O 0.42073 0.39613 0.59723 0.0
O567 O 0.42204 0.39602 0.57664 0.0
H568 H 0.36186 0.54241 0.61948 0.0
O569 O 0.17524 0.48025 0.57688 0.0
O570 O 0.17183 0.48006 0.5976 0.0
O571 O 0.53353 0.55093 0.5769 0.0
O572 O 0.52971 0.55105 0.59751 0.0
C573 C 0.08269 0.47748 0.58716 0.0
H574 H 0.70254 0.40093 0.63885 0.0
H575 H 0.42953 0.54422 0.64224 0.0
H576 H 0.3487 0.54774 0.5334 0.0
H577 H 0.59594 0.40021 0.53319 0.0
C578 C 0.31874 0.72787 0.58719 0.0
N579 N 0.6997 0.72578 0.61686 0.0
C580 C 0.60762 0.76523 0.62214 0.0
C581 C 0.56786 0.76606 0.63495 0.0
C582 C 0.61918 0.72541 0.6424 0.0
C583 C 0.71537 0.68524 0.63681 0.0
C584 C 0.75596 0.68637 0.62395 0.0
Zn585 Zn 0.71551 0.7243 0.59766 0.0
C586 C 0.63456 0.62445 0.58724 0.0
N587 N 0.71585 0.72389 0.55743 0.0
C588 C 0.58182 0.75106 0.55105 0.0
C589 C 0.85193 0.69677 0.55122 0.0
C590 C 0.85864 0.69691 0.53813 0.0
C591 C 0.72022 0.72404 0.53124 0.0
C592 C 0.57944 0.75105 0.53795 0.0
Zn593 Zn 0.71354 0.72438 0.57669 0.0
O594 O 0.41162 0.73118 0.59739 0.0
C595 C 0.80167 0.82388 0.58689 0.0
O596 O 0.40789 0.72958 0.57679 0.0
H597 H 0.9568 0.67513 0.55641 0.0
H598 H 0.55844 0.79554 0.61634 0.0
H599 H 0.4756 0.77277 0.55611 0.0
O600 O 0.77277 0.80159 0.59722 0.0
O601 O 0.76355 0.80204 0.57661 0.0
H602 H 0.82738 0.65517 0.61958 0.0
O603 O 0.0176 0.71909 0.57713 0.0
O604 O 0.02054 0.71735 0.59782 0.0
O605 O 0.66639 0.64672 0.57694 0.0
O606 O 0.66168 0.64696 0.59757 0.0
C607 C 0.10992 0.72067 0.58741 0.0
H608 H 0.49203 0.79751 0.63893 0.0
H609 H 0.75848 0.65341 0.64232 0.0
H610 H -0.02682 0.67628 0.53354 0.0
H611 H 0.46656 0.77176 0.53322 0.0
C612 C 0.87294 0.728 0.71116 0.0
N613 N 0.49191 0.72584 0.68148 0.0
C614 C 0.58389 0.7653 0.67621 0.0
C615 C 0.62369 0.7661 0.66339 0.0
C616 C 0.57253 0.72543 0.65595 0.0
C617 C 0.47645 0.68525 0.66154 0.0
C618 C 0.43581 0.6864 0.67441 0.0
Zn619 Zn 0.47602 0.7244 0.70068 0.0
C620 C 0.55794 0.62456 0.71111 0.0
N621 N 0.47568 0.72394 0.7409 0.0
C622 C 0.60935 0.75114 0.7473 0.0
C623 C 0.33965 0.69672 0.74708 0.0
C624 C 0.33254 0.6968 0.76017 0.0
C625 C 0.47056 0.72396 0.76709 0.0
C626 C 0.61136 0.75107 0.7604 0.0
Zn627 Zn 0.4783 0.72447 0.72166 0.0
O628 O 0.77995 0.73128 0.70096 0.0
C629 C 0.38925 0.82396 0.71145 0.0
O630 O 0.7839 0.72978 0.72157 0.0
H631 H 0.23513 0.67504 0.74187 0.0
H632 H 0.63294 0.79563 0.682 0.0
H633 H 0.71556 0.77292 0.74226 0.0
O634 O 0.41848 0.80171 0.70112 0.0
O635 O 0.42755 0.80212 0.72173 0.0
H636 H 0.36446 0.6552 0.67878 0.0
O637 O 0.17417 0.71908 0.72121 0.0
O638 O 0.17103 0.71744 0.70052 0.0
O639 O 0.52632 0.64681 0.72142 0.0
O640 O 0.53001 0.64705 0.70079 0.0
C641 C 0.08175 0.72073 0.71093 0.0
H642 H 0.69943 0.79755 0.65941 0.0
H643 H 0.43345 0.65339 0.65604 0.0
H644 H 0.21803 0.6761 0.76474 0.0
H645 H 0.72394 0.77181 0.76515 0.0
C646 C 0.31576 0.46998 0.71116 0.0
N647 N 0.69691 0.47218 0.68145 0.0
C648 C 0.60586 0.43265 0.67614 0.0
C649 C 0.56681 0.43185 0.66332 0.0
C650 C 0.61763 0.47262 0.65589 0.0
C651 C 0.71261 0.51288 0.66152 0.0
C652 C 0.75264 0.51172 0.67439 0.0
Zn653 Zn 0.71261 0.47357 0.70067 0.0
C654 C 0.63075 0.57343 0.71111 0.0
N655 N 0.71311 0.47405 0.74092 0.0
C656 C 0.57944 0.44688 0.74732 0.0
C657 C 0.84935 0.50123 0.74709 0.0
C658 C 0.8567 0.50112 0.76018 0.0
C659 C 0.71876 0.47397 0.76711 0.0
C660 C 0.57772 0.44691 0.76042 0.0
Zn661 Zn 0.71043 0.47353 0.72166 0.0
O662 O 0.4087 0.46668 0.70095 0.0
C663 C 0.79936 0.37402 0.71145 0.0
O664 O 0.40482 0.46822 0.72156 0.0
H665 H 0.95388 0.5229 0.74188 0.0
H666 H 0.55711 0.40223 0.68192 0.0
H667 H 0.47304 0.42515 0.74229 0.0
O668 O 0.77014 0.39626 0.70112 0.0
O669 O 0.7611 0.39589 0.72173 0.0
H670 H 0.82331 0.54297 0.67879 0.0
O671 O 0.01456 0.47891 0.7212 0.0
O672 O 0.01762 0.48054 0.70051 0.0
O673 O 0.66245 0.55118 0.72142 0.0
O674 O 0.65859 0.55093 0.70079 0.0
C675 C 0.10694 0.47725 0.71092 0.0
H676 H 0.49196 0.40032 0.65931 0.0
H677 H 0.75532 0.54481 0.65604 0.0
H678 H -0.02861 0.52179 0.76474 0.0
H679 H 0.46517 0.42618 0.76518 0.0
C680 C 0.85773 0.47067 0.46096 0.0
N681 N 0.46385 0.47396 0.49093 0.0
C682 C 0.59985 0.44672 0.49711 0.0
C683 C 0.60696 0.44678 0.5102 0.0
C684 C 0.46897 0.47394 0.51712 0.0
C685 C 0.32818 0.50107 0.51043 0.0
C686 C 0.33019 0.50115 0.49733 0.0
Zn687 Zn 0.4612 0.47446 0.47168 0.0
C688 C 0.55091 0.57392 0.46146 0.0
N689 N 0.44759 0.47575 0.43151 0.0
C690 C 0.5037 0.4363 0.42443 0.0
C691 C 0.35594 0.51524 0.42622 0.0
C692 C 0.31652 0.51607 0.4134 0.0
C693 C 0.36773 0.47539 0.40596 0.0
C694 C 0.46343 0.43518 0.41157 0.0
Zn695 Zn 0.46343 0.47434 0.45071 0.0
O696 O 0.76532 0.46901 0.47124 0.0
C697 C 0.3808 0.37453 0.46116 0.0
O698 O 0.76844 0.46732 0.45055 0.0
H699 H 0.30691 0.54559 0.43201 0.0
H700 H 0.70433 0.42503 0.4919 0.0
H701 H 0.5748 0.40508 0.42881 0.0
O702 O 0.41274 0.3968 0.47146 0.0
O703 O 0.40894 0.39697 0.45083 0.0
H704 H 0.22398 0.52294 0.4923 0.0
O705 O 0.15951 0.48128 0.45098 0.0
O706 O 0.15558 0.47983 0.47159 0.0
O707 O 0.52145 0.55166 0.45114 0.0
O708 O 0.51237 0.55212 0.47174 0.0
C709 C 0.06653 0.478 0.46119 0.0
H710 H 0.72147 0.42606 0.51476 0.0
H711 H 0.2156 0.5218 0.51519 0.0
H712 H 0.24105 0.54755 0.40942 0.0
H713 H 0.50645 0.40331 0.40606 0.0
C714 C 0.83041 0.22731 0.46102 0.0
N715 N 0.22448 0.22406 0.491 0.0
C716 C 0.08869 0.25128 0.4972 0.0
C717 C 0.08196 0.25114 0.51029 0.0
C718 C 0.22008 0.22391 0.51719 0.0
C719 C 0.36059 0.1968 0.51047 0.0
C720 C 0.35822 0.1968 0.49738 0.0
Zn721 Zn 0.22677 0.22355 0.47174 0.0
C722 C 0.13718 0.12406 0.46154 0.0
N723 N 0.24058 0.22212 0.43155 0.0
C724 C 0.18439 0.26156 0.42447 0.0
C725 C 0.33224 0.18263 0.42626 0.0
C726 C 0.37164 0.18181 0.41344 0.0
C727 C 0.3204 0.22248 0.40599 0.0
C728 C 0.22464 0.26268 0.4116 0.0
Zn729 Zn 0.22489 0.2236 0.45076 0.0
O730 O 0.92269 0.22908 0.4713 0.0
C731 C 0.30736 0.32344 0.46117 0.0
O732 O 0.91983 0.23054 0.45061 0.0
H733 H 0.38132 0.15229 0.43205 0.0
H734 H -0.01594 0.27299 0.49201 0.0
H735 H 0.11326 0.29278 0.42885 0.0
O736 O 0.27561 0.30122 0.47149 0.0
O737 O 0.27903 0.30095 0.45086 0.0
H738 H 0.4642 0.17501 0.49232 0.0
O739 O 0.52876 0.21673 0.45103 0.0
O740 O 0.53244 0.21811 0.47164 0.0
O741 O 0.16736 0.14629 0.45121 0.0
O742 O 0.17507 0.14588 0.47182 0.0
C743 C 0.62161 0.21997 0.46124 0.0
H744 H 0.96764 0.27185 0.51488 0.0
H745 H 0.47323 0.17601 0.51521 0.0
H746 H 0.44715 0.15033 0.40945 0.0
H747 H 0.18157 0.29455 0.4061 0.0
C748 C 0.85676 0.22725 0.33743 0.0
N749 N 0.46293 0.22406 0.30744 0.0
C750 C 0.5991 0.25127 0.30127 0.0
C751 C 0.60645 0.25117 0.28818 0.0
C752 C 0.46853 0.22401 0.28126 0.0
C753 C 0.32754 0.19693 0.28794 0.0
C754 C 0.32929 0.19688 0.30103 0.0
Zn755 Zn 0.46022 0.22352 0.3267 0.0
C756 C 0.54925 0.12403 0.33689 0.0
N757 N 0.44661 0.22212 0.36689 0.0
C758 C 0.50273 0.26157 0.37396 0.0
C759 C 0.35494 0.18263 0.37217 0.0
C760 C 0.3155 0.18181 0.38499 0.0
C761 C 0.3667 0.22249 0.39244 0.0
C762 C 0.46244 0.26269 0.38683 0.0
Zn763 Zn 0.46246 0.22357 0.34768 0.0
O764 O 0.76435 0.22891 0.32715 0.0
C765 C 0.38056 0.32343 0.33724 0.0
O766 O 0.76747 0.23054 0.34784 0.0
H767 H 0.30592 0.15229 0.36638 0.0
H768 H 0.70359 0.27294 0.30648 0.0
H769 H 0.57386 0.29279 0.36958 0.0
O770 O 0.41224 0.30117 0.32693 0.0
O771 O 0.40843 0.30094 0.34756 0.0
H772 H 0.22295 0.17513 0.30607 0.0
O773 O 0.15855 0.21669 0.3474 0.0
O774 O 0.15461 0.21821 0.32679 0.0
O775 O 0.52002 0.14626 0.34723 0.0
O776 O 0.51093 0.14588 0.32662 0.0
C777 C 0.06557 0.21998 0.33719 0.0
H778 H 0.72109 0.27185 0.28362 0.0
H779 H 0.21501 0.1762 0.28318 0.0
H780 H 0.24001 0.15033 0.38898 0.0
H781 H 0.50548 0.29456 0.39233 0.0
C782 C 0.83157 0.47073 0.33741 0.0
N783 N 0.22551 0.47394 0.30742 0.0
C784 C 0.08944 0.44673 0.30124 0.0
C785 C 0.0823 0.44683 0.28815 0.0
C786 C 0.22031 0.474 0.28124 0.0
C787 C 0.36115 0.50109 0.28793 0.0
C788 C 0.35919 0.50113 0.30103 0.0
Zn789 Zn 0.22811 0.47446 0.32668 0.0
C790 C 0.13912 0.57396 0.33689 0.0
N791 N 0.24163 0.47584 0.36686 0.0
C792 C 0.18518 0.43642 0.37393 0.0
C793 C 0.33358 0.51529 0.37215 0.0
C794 C 0.37302 0.51608 0.38497 0.0
C795 C 0.3215 0.47542 0.39241 0.0
C796 C 0.22545 0.43526 0.3868 0.0
Zn797 Zn 0.22586 0.47441 0.34766 0.0
O798 O 0.92397 0.46906 0.32713 0.0
C799 C 0.30775 0.37456 0.33724 0.0
O800 O 0.92087 0.46746 0.34782 0.0
H801 H 0.38283 0.54561 0.36636 0.0
H802 H -0.01512 0.42506 0.30645 0.0
H803 H 0.11381 0.40524 0.36955 0.0
O804 O 0.27615 0.3968 0.32692 0.0
O805 O 0.2798 0.39706 0.34755 0.0
H806 H 0.46544 0.5229 0.30607 0.0
O807 O 0.52979 0.48128 0.34738 0.0
O808 O 0.5337 0.47978 0.32677 0.0
O809 O 0.16839 0.55172 0.34722 0.0
O810 O 0.17736 0.55212 0.32661 0.0
C811 C 0.62276 0.478 0.33717 0.0
H812 H 0.96775 0.42615 0.28358 0.0
H813 H 0.47374 0.52183 0.28318 0.0
H814 H 0.44874 0.54752 0.38895 0.0
H815 H 0.18216 0.40342 0.3923 0.0
C816 C 0.87314 0.96992 0.08716 0.0
N817 N 0.49219 0.972 0.11685 0.0
C818 C 0.58396 0.93249 0.12212 0.0
C819 C 0.62403 0.93169 0.13494 0.0
C820 C 0.57333 0.97239 0.14239 0.0
C821 C 0.47737 0.0126 0.13679 0.0
C822 C 0.43648 0.01146 0.12393 0.0
Zn823 Zn 0.47622 0.97351 0.09764 0.0
C824 C 0.55867 0.0734 0.08724 0.0
N825 N 0.47584 -0.0259 0.05741 0.0
C826 C 0.60945 0.94691 0.05101 0.0
C827 C 0.33969 0.00131 0.05124 0.0
C828 C 0.33236 0.00119 0.03815 0.0
C829 C 0.47027 -0.02599 0.03123 0.0
C830 C 0.61124 0.94694 0.03791 0.0
Zn831 Zn 0.47849 0.97352 0.07667 0.0
O832 O 0.78015 0.96658 0.09736 0.0
C833 C 0.38882 0.874 0.08684 0.0
O834 O 0.7841 0.96816 0.07676 0.0
H835 H 0.2352 0.02299 0.05645 0.0
H836 H 0.63269 0.90214 0.11633 0.0
H837 H 0.71575 0.92514 0.05604 0.0
O838 O 0.41827 0.89619 0.09718 0.0
O839 O 0.42739 0.89587 0.07657 0.0
H840 H 0.36528 0.04269 0.11957 0.0
O841 O 0.17436 -0.02105 0.07712 0.0
O842 O 0.17122 -0.01949 0.09781 0.0
O843 O 0.52684 0.05118 0.07692 0.0
O844 O 0.53059 0.05088 0.09755 0.0
C845 C 0.08194 -0.02276 0.0874 0.0
H846 H 0.69965 0.9002 0.13891 0.0
H847 H 0.43469 0.04448 0.1423 0.0
H848 H 0.21773 0.02187 0.03359 0.0
H849 H 0.72376 0.92619 0.03315 0.0
C850 C 0.31742 0.22798 0.0872 0.0
N851 N 0.69844 0.22581 0.1169 0.0
C852 C 0.60762 0.2654 0.12221 0.0
C853 C 0.5684 0.26622 0.13504 0.0
C854 C 0.6188 0.22544 0.14247 0.0
C855 C 0.71359 0.18513 0.13684 0.0
C856 C 0.75379 0.18626 0.12397 0.0
Zn857 Zn 0.7141 0.22437 0.09768 0.0
C858 C 0.63188 0.1245 0.08725 0.0
N859 N 0.71456 0.22389 0.05743 0.0
C860 C 0.58078 0.25114 0.05105 0.0
C861 C 0.85037 0.19668 0.05122 0.0
C862 C 0.85708 0.19681 0.03813 0.0
C863 C 0.71893 0.22403 0.03124 0.0
C864 C 0.57841 0.25113 0.03796 0.0
Zn865 Zn 0.71229 0.2244 0.07669 0.0
O866 O 0.41025 0.23125 0.09741 0.0
C867 C 0.80173 0.3239 0.08688 0.0
O868 O 0.40662 0.22981 0.0768 0.0
H869 H 0.95504 0.17498 0.05642 0.0
H870 H 0.55912 0.29583 0.11643 0.0
H871 H 0.47478 0.27291 0.05611 0.0
O872 O 0.77169 0.3017 0.09721 0.0
O873 O 0.76377 0.30204 0.0766 0.0
H874 H 0.82426 0.15497 0.11958 0.0
O875 O 0.01637 0.2189 0.07713 0.0
O876 O 0.01917 0.21741 0.09783 0.0
O877 O 0.66371 0.14675 0.07694 0.0
O878 O 0.65994 0.14698 0.09757 0.0
C879 C 0.10861 0.22065 0.08742 0.0
H880 H 0.49368 0.29779 0.13904 0.0
H881 H 0.75599 0.15318 0.14233 0.0
H882 H -0.02859 0.17611 0.03354 0.0
H883 H 0.46575 0.27192 0.03322 0.0
C884 C 0.87402 0.22829 0.21143 0.0
N885 N 0.49318 0.22584 0.18159 0.0
C886 C 0.58665 0.26509 0.17632 0.0
C887 C 0.6259 0.2659 0.16349 0.0
C888 C 0.57275 0.22545 0.15603 0.0
C889 C 0.47534 0.18547 0.16163 0.0
C890 C 0.43524 0.18661 0.1745 0.0
Zn891 Zn 0.47723 0.22441 0.20082 0.0
C892 C 0.56245 0.12459 0.21112 0.0
N893 N 0.47696 0.22393 0.24104 0.0
C894 C 0.54822 0.26363 0.24739 0.0
C895 C 0.40352 0.18418 0.24726 0.0
C896 C 0.40214 0.18308 0.26036 0.0
C897 C 0.4717 0.22393 0.26722 0.0
C898 C 0.54428 0.26474 0.26048 0.0
Zn899 Zn 0.47933 0.22442 0.2218 0.0
O900 O 0.78132 0.23086 0.20119 0.0
C901 C 0.38684 0.32388 0.21146 0.0
O902 O 0.78469 0.23117 0.22183 0.0
H903 H 0.34625 0.15305 0.24208 0.0
H904 H 0.63713 0.29524 0.18212 0.0
H905 H 0.60742 0.29479 0.24231 0.0
O906 O 0.42049 0.30187 0.20116 0.0
O907 O 0.42187 0.30187 0.22175 0.0
H908 H 0.36274 0.15557 0.17886 0.0
O909 O 0.17541 0.21761 0.22148 0.0
O910 O 0.17201 0.21787 0.20076 0.0
O911 O 0.53398 0.14696 0.22145 0.0
O912 O 0.5303 0.14691 0.20084 0.0
C913 C 0.08287 0.22043 0.21121 0.0
H914 H 0.7027 0.2972 0.15952 0.0
H915 H 0.43084 0.15378 0.15611 0.0
H916 H 0.34853 0.15017 0.26498 0.0
H917 H 0.5959 0.29767 0.26518 0.0
C918 C 0.32037 0.97006 0.21115 0.0
N919 N 0.70119 0.97211 0.18147 0.0
C920 C 0.60936 0.93261 0.1762 0.0
C921 C 0.56945 0.93175 0.16339 0.0
C922 C 0.62033 0.97241 0.15593 0.0
C923 C 0.71632 0.01263 0.16152 0.0
C924 C 0.75707 0.01154 0.17438 0.0
Zn925 Zn 0.71696 0.97364 0.20068 0.0
C926 C 0.63565 0.0735 0.2111 0.0
N927 N 0.71727 -0.02595 0.24092 0.0
C928 C 0.58314 0.94681 0.24726 0.0
C929 C 0.85292 0.0012 0.24715 0.0
C930 C 0.85899 0.00104 0.26024 0.0
C931 C 0.72038 0.97384 0.26711 0.0
C932 C 0.58012 0.94678 0.26036 0.0
Zn933 Zn 0.71537 0.97357 0.22166 0.0
O934 O 0.41313 0.96678 0.20094 0.0
C935 C 0.80401 0.87408 0.21147 0.0
O936 O 0.40965 0.96828 0.22155 0.0
H937 H 0.95792 0.02288 0.24198 0.0
H938 H 0.56044 0.90229 0.182 0.0
H939 H 0.47732 0.92505 0.24219 0.0
O940 O 0.77429 0.89634 0.20114 0.0
O941 O 0.76619 0.89592 0.22175 0.0
H942 H 0.82827 0.04278 0.17874 0.0
O943 O 0.01938 -0.02103 0.22123 0.0
O944 O 0.02205 -0.01942 0.20053 0.0
O945 O 0.6676 0.05123 0.2214 0.0
O946 O 0.66299 0.05101 0.20077 0.0
C947 C 0.11156 -0.02269 0.21094 0.0
H948 H 0.49377 0.90026 0.15942 0.0
H949 H 0.75912 0.04448 0.156 0.0
H950 H -0.02683 0.0217 0.26486 0.0
H951 H 0.46714 0.92602 0.26507 0.0
C952 C 0.85618 0.97049 0.96118 0.0
N953 N 0.46201 0.9739 0.99101 0.0
C954 C 0.53547 0.93416 0.99724 0.0
C955 C 0.53678 0.93307 1.01033 0.0
C956 C 0.46713 0.97392 1.01719 0.0
C957 C 0.39452 0.01471 1.01045 0.0
C958 C 0.39063 0.01359 0.99736 0.0
Zn959 Zn 0.45971 -0.02557 0.97177 0.0
C960 C 0.55155 0.07392 0.96145 0.0
N961 N 0.4458 -0.02406 0.93157 0.0
C962 C 0.5038 0.93673 0.92447 0.0
C963 C 0.35204 0.01515 0.9263 0.0
C964 C 0.31244 0.01594 0.91348 0.0
C965 C 0.36554 -0.02451 0.90602 0.0
C966 C 0.46334 0.93555 0.9116 0.0
Zn967 Zn 0.46185 -0.02553 0.95079 0.0
O968 O 0.76363 0.96767 0.97145 0.0
C969 C 0.37735 0.87462 0.96107 0.0
O970 O 0.76705 0.96799 0.95073 0.0
H971 H 0.30154 0.0453 0.93211 0.0
H972 H 0.59281 0.90303 0.99205 0.0
H973 H 0.57655 0.90571 0.92883 0.0
O974 O 0.40549 0.89697 0.9714 0.0
O975 O 0.4093 0.89699 0.95079 0.0
H976 H 0.33137 0.04474 0.99228 0.0
O977 O 0.15775 -0.01914 0.95117 0.0
O978 O 0.15436 -0.01887 0.9718 0.0
O979 O 0.5181 0.05192 0.95114 0.0
O980 O 0.51677 0.05187 0.97173 0.0
C981 C 0.06504 -0.02171 0.96141 0.0
H982 H 0.59041 0.90016 1.01495 0.0
H983 H 0.34283 0.04765 1.01515 0.0
H984 H 0.23538 0.04721 0.90951 0.0
H985 H 0.50784 0.90387 0.90608 0.0
C986 C 0.82965 0.72725 0.96085 0.0
N987 N 0.22371 0.72405 0.99083 0.0
C988 C 0.0876 0.75116 0.99704 0.0
C989 C 0.08091 0.75102 1.01013 0.0
C990 C 0.21936 0.7239 1.01703 0.0
C991 C 0.36016 0.6969 1.01031 0.0
C992 C 0.35778 0.69689 0.99721 0.0
Zn993 Zn 0.226 0.72355 0.97158 0.0
C994 C 0.13801 0.62404 0.96138 0.0
N995 N 0.23993 0.72216 0.93138 0.0
C996 C 0.18447 0.76168 0.9243 0.0
C997 C 0.3311 0.68261 0.92608 0.0
C998 C 0.37066 0.68178 0.91327 0.0
C999 C 0.32019 0.72253 0.90583 0.0
C1000 C 0.22499 0.76281 0.91144 0.0
Zn1001 Zn 0.2241 0.72361 0.95059 0.0
O1002 O 0.92194 0.72881 0.97113 0.0
C1003 C 0.30479 0.82349 0.96103 0.0
O1004 O 0.91906 0.73057 0.95044 0.0
H1005 H 0.37969 0.6522 0.93187 0.0
H1006 H -0.0173 0.77279 0.99185 0.0
H1007 H 0.11372 0.79296 0.92868 0.0
O1008 O 0.2729 0.80119 0.97133 0.0
O1009 O 0.27794 0.80099 0.9507 0.0
H1010 H 0.46403 0.67519 0.99216 0.0
O1011 O 0.52797 0.71673 0.95086 0.0
O1012 O 0.53165 0.71839 0.97147 0.0
O1013 O 0.16678 0.64629 0.95105 0.0
O1014 O 0.17621 0.64592 0.97166 0.0
C1015 C 0.62082 0.72006 0.96107 0.0
H1016 H 0.96636 0.77165 1.01472 0.0
H1017 H 0.47305 0.67619 1.01504 0.0
H1018 H 0.44568 0.65023 0.90927 0.0
H1019 H 0.18255 0.79474 0.90594 0.0
C1020 C 0.85716 0.72747 0.83713 0.0
N1021 N 0.46298 0.72396 0.80731 0.0
C1022 C 0.53623 0.76373 0.80108 0.0
C1023 C 0.53733 0.76486 0.78799 0.0
C1024 C 0.4677 0.72401 0.78112 0.0
C1025 C 0.39537 0.68318 0.78787 0.0
C1026 C 0.39169 0.68426 0.80096 0.0
Zn1027 Zn 0.46067 0.72347 0.82654 0.0
C1028 C 0.55323 0.62402 0.83688 0.0
N1029 N 0.4468 0.72207 0.86673 0.0
C1030 C 0.50478 0.76128 0.87382 0.0
C1031 C 0.35306 0.68285 0.87199 0.0
C1032 C 0.31347 0.68205 0.88481 0.0
C1033 C 0.36658 0.72251 0.89227 0.0
C1034 C 0.46434 0.76245 0.88669 0.0
Zn1035 Zn 0.46284 0.7235 0.84751 0.0
O1036 O 0.7646 0.73029 0.82685 0.0
C1037 C 0.37758 0.8233 0.83721 0.0
O1038 O 0.76805 0.73003 0.84757 0.0
H1039 H 0.30255 0.65271 0.86619 0.0
H1040 H 0.59352 0.79486 0.80626 0.0
H1041 H 0.5775 0.7923 0.86946 0.0
O1042 O 0.40596 0.80094 0.82689 0.0
O1043 O 0.40982 0.80098 0.8475 0.0
H1044 H 0.33262 0.65309 0.80604 0.0
O1045 O 0.15874 0.71706 0.84714 0.0
O1046 O 0.15533 0.71671 0.8265 0.0
O1047 O 0.51956 0.64605 0.84718 0.0
O1048 O 0.51821 0.64601 0.82659 0.0
C1049 C 0.06601 0.71961 0.8369 0.0
H1050 H 0.59075 0.79779 0.78337 0.0
H1051 H 0.34373 0.65024 0.78316 0.0
H1052 H 0.23643 0.65078 0.88878 0.0
H1053 H 0.50882 0.79414 0.89221 0.0
C1054 C 0.82848 0.97058 0.83742 0.0
N1055 N 0.22266 0.97384 0.80743 0.0
C1056 C 0.08685 0.94671 0.8012 0.0
C1057 C 0.08056 0.94688 0.78811 0.0
C1058 C 0.21911 -0.02593 0.78124 0.0
C1059 C 0.35958 0.00109 0.78798 0.0
C1060 C 0.35679 0.00105 0.80107 0.0
Zn1061 Zn 0.22465 -0.02568 0.82669 0.0
C1062 C 0.13605 0.07381 0.83688 0.0
N1063 N 0.23886 -0.02425 0.86691 0.0
C1064 C 0.18367 0.93622 0.87398 0.0
C1065 C 0.32975 0.01535 0.8722 0.0
C1066 C 0.36927 0.01621 0.88502 0.0
C1067 C 0.31909 -0.02456 0.89246 0.0
C1068 C 0.22417 0.93512 0.88685 0.0
Zn1069 Zn 0.22312 -0.02574 0.84768 0.0
O1070 O 0.92064 0.96893 0.82713 0.0
C1071 C 0.30439 0.8744 0.83725 0.0
O1072 O 0.91801 0.96731 0.84782 0.0
H1073 H 0.37817 0.04577 0.86641 0.0
H1074 H -0.01814 0.92504 0.80638 0.0
H1075 H 0.11316 0.9049 0.86961 0.0
O1076 O 0.27234 0.89667 0.82695 0.0
O1077 O 0.27717 0.89688 0.84758 0.0
H1078 H 0.46276 0.02278 0.80615 0.0
O1079 O 0.52693 -0.01886 0.84742 0.0
O1080 O 0.53037 -0.0204 0.82681 0.0
O1081 O 0.16573 0.05157 0.84721 0.0
O1082 O 0.1739 0.05196 0.8266 0.0
C1083 C 0.61966 -0.02216 0.8372 0.0
H1084 H 0.96625 0.92624 0.7835 0.0
H1085 H 0.47252 0.02184 0.78327 0.0
H1086 H 0.44408 0.04779 0.88901 0.0
H1087 H 0.18194 0.90318 0.89235 0.0
loop_
_geom_bond_atom_site_label_1
_geom_bond_atom_site_label_2
_geom_bond_distance
_geom_bond_site_symmetry_2
_ccdc_geom_bond_type
C0 O16 1.251 . S
C0 O18 1.254 . S
N1 C2 1.333 . S
N1 C6 1.307 1_455 S
N1 Zn7 2.020 . S
C2 N1 1.333 . S
C2 C3 1.379 . S
C2 H20 0.952 . S
C3 C2 1.379 . S
C3 C4 1.390 . S
C3 H30 0.949 . S
C4 C3 1.390 . S
C4 C5 1.357 1_455 S
C5 C4 1.357 1_655 S
C5 C6 1.370 . S
C5 H31 0.950 . S
C6 N1 1.307 1_655 S
C6 C5 1.370 . S
C6 H24 0.948 . S
Zn7 N1 2.020 . S
Zn7 O16 2.039 . S
Zn7 O22 2.034 . S
Zn7 O26 2.025 1_455 S
Zn7 O28 2.024 . S
C8 O27 1.246 . S
C8 O28 1.249 . S
N9 C10 1.307 . S
N9 C11 1.333 1_455 S
N9 Zn15 2.020 . S
C10 N9 1.307 . S
C10 C14 1.370 . S
C10 H21 0.948 . S
C11 N9 1.333 1_655 S
C11 C12 1.379 . S
C11 H19 0.952 . S
C12 C11 1.379 . S
C12 C13 1.390 . S
C12 H32 0.949 . S
C13 C12 1.390 . S
C13 C14 1.357 1_655 S
C14 C10 1.370 . S
C14 C13 1.357 1_455 S
C14 H33 0.950 . S
Zn15 N9 2.020 . S
Zn15 O18 2.025 . S
Zn15 O23 2.024 1_455 S
Zn15 O25 2.039 1_455 S
Zn15 O27 2.034 . S
O16 C0 1.251 . S
O16 Zn7 2.039 . S
C17 O22 1.246 1_655 S
C17 O23 1.249 . S
O18 C0 1.254 . S
O18 Zn15 2.025 . S
H19 C11 0.952 . S
H20 C2 0.952 . S
H21 C10 0.948 . S
O22 Zn7 2.034 . S
O22 C17 1.246 1_455 S
O23 Zn15 2.024 1_655 S
O23 C17 1.249 . S
H24 C6 0.948 . S
O25 Zn15 2.039 1_655 S
O25 C29 1.251 . S
O26 Zn7 2.025 1_655 S
O26 C29 1.254 . S
O27 C8 1.246 . S
O27 Zn15 2.034 . S
O28 Zn7 2.024 . S
O28 C8 1.249 . S
C29 O25 1.251 . S
C29 O26 1.254 . S
H30 C3 0.949 . S
H31 C5 0.950 . S
H32 C12 0.949 . S
H33 C14 0.950 . S
C34 O50 1.251 . S
C34 O52 1.254 . S
N35 C36 1.333 . S
N35 C40 1.307 . S
N35 Zn41 2.020 . S
C36 N35 1.333 . S
C36 C37 1.379 . S
C36 H54 0.952 1_455 S
C37 C36 1.379 . S
C37 C38 1.390 . S
C37 H64 0.949 1_455 S
C38 C37 1.390 . S
C38 C39 1.357 . S
C39 C38 1.357 . S
C39 C40 1.370 . S
C39 H65 0.950 . S
C40 N35 1.307 . S
C40 C39 1.370 . S
C40 H58 0.948 . S
Zn41 N35 2.020 . S
Zn41 O50 2.039 1_455 S
Zn41 O56 2.034 . S
Zn41 O60 2.025 . S
Zn41 O62 2.024 . S
C42 O61 1.246 . S
C42 O62 1.249 . S
N43 C44 1.307 . S
N43 C45 1.333 . S
N43 Zn49 2.020 . S
C44 N43 1.307 . S
C44 C48 1.370 . S
C44 H55 0.948 1_455 S
C45 N43 1.333 . S
C45 C46 1.379 . S
C45 H53 0.952 . S
C46 C45 1.379 . S
C46 C47 1.390 . S
C46 H66 0.949 . S
C47 C46 1.390 . S
C47 C48 1.357 . S
C48 C44 1.370 . S
C48 C47 1.357 . S
C48 H67 0.950 . S
Zn49 N43 2.020 . S
Zn49 O52 2.025 1_455 S
Zn49 O57 2.024 . S
Zn49 O59 2.039 . S
Zn49 O61 2.034 . S
O50 C34 1.251 . S
O50 Zn41 2.039 1_655 S
C51 O56 1.246 . S
C51 O57 1.249 . S
O52 C34 1.254 . S
O52 Zn49 2.025 1_655 S
H53 C45 0.952 . S
H54 C36 0.952 1_655 S
H55 C44 0.948 1_655 S
O56 Zn41 2.034 . S
O56 C51 1.246 . S
O57 Zn49 2.024 . S
O57 C51 1.249 . S
H58 C40 0.948 . S
O59 Zn49 2.039 . S
O59 C63 1.251 . S
O60 Zn41 2.025 . S
O60 C63 1.254 . S
O61 C42 1.246 . S
O61 Zn49 2.034 . S
O62 Zn41 2.024 . S
O62 C42 1.249 . S
C63 O59 1.251 . S
C63 O60 1.254 . S
H64 C37 0.949 1_655 S
H65 C39 0.950 . S
H66 C46 0.949 . S
H67 C48 0.950 . S
C68 O84 1.251 . S
C68 O86 1.254 . S
N69 C70 1.333 . S
N69 C74 1.307 1_455 S
N69 Zn75 2.020 . S
C70 N69 1.333 . S
C70 C71 1.379 . S
C70 H88 0.952 . S
C71 C70 1.379 . S
C71 C72 1.390 . S
C71 H98 0.949 . S
C72 C71 1.390 . S
C72 C73 1.357 1_455 S
C73 C72 1.357 1_655 S
C73 C74 1.370 . S
C73 H99 0.950 . S
C74 N69 1.307 1_655 S
C74 C73 1.370 . S
C74 H92 0.948 . S
Zn75 N69 2.020 . S
Zn75 O84 2.039 . S
Zn75 O90 2.034 . S
Zn75 O94 2.025 1_455 S
Zn75 O96 2.024 . S
C76 O95 1.246 . S
C76 O96 1.249 . S
N77 C78 1.307 . S
N77 C79 1.333 1_455 S
N77 Zn83 2.020 . S
C78 N77 1.307 . S
C78 C82 1.370 . S
C78 H89 0.948 . S
C79 N77 1.333 1_655 S
C79 C80 1.379 . S
C79 H87 0.952 . S
C80 C79 1.379 . S
C80 C81 1.390 . S
C80 H100 0.949 . S
C81 C80 1.390 . S
C81 C82 1.357 1_655 S
C82 C78 1.370 . S
C82 C81 1.357 1_455 S
C82 H101 0.950 . S
Zn83 N77 2.020 . S
Zn83 O86 2.025 . S
Zn83 O91 2.024 1_455 S
Zn83 O93 2.039 1_455 S
Zn83 O95 2.034 . S
O84 C68 1.251 . S
O84 Zn75 2.039 . S
C85 O90 1.246 1_655 S
C85 O91 1.249 . S
O86 C68 1.254 . S
O86 Zn83 2.025 . S
H87 C79 0.952 . S
H88 C70 0.952 . S
H89 C78 0.948 . S
O90 Zn75 2.034 . S
O90 C85 1.246 1_455 S
O91 Zn83 2.024 1_655 S
O91 C85 1.249 . S
H92 C74 0.948 . S
O93 Zn83 2.039 1_655 S
O93 C97 1.251 . S
O94 Zn75 2.025 1_655 S
O94 C97 1.254 . S
O95 C76 1.246 . S
O95 Zn83 2.034 . S
O96 Zn75 2.024 . S
O96 C76 1.249 . S
C97 O93 1.251 . S
C97 O94 1.254 . S
H98 C71 0.949 . S
H99 C73 0.950 . S
H100 C80 0.949 . S
H101 C82 0.950 . S
C102 O118 1.251 . S
C102 O120 1.254 . S
N103 C104 1.333 . S
N103 C108 1.307 . S
N103 Zn109 2.020 . S
C104 N103 1.333 . S
C104 C105 1.379 . S
C104 H122 0.952 1_455 S
C105 C104 1.379 . S
C105 C106 1.390 . S
C105 H132 0.949 1_455 S
C106 C105 1.390 . S
C106 C107 1.357 . S
C107 C106 1.357 . S
C107 C108 1.370 . S
C107 H133 0.950 . S
C108 N103 1.307 . S
C108 C107 1.370 . S
C108 H126 0.948 . S
Zn109 N103 2.020 . S
Zn109 O118 2.039 1_455 S
Zn109 O124 2.034 . S
Zn109 O128 2.025 . S
Zn109 O130 2.024 . S
C110 O129 1.246 . S
C110 O130 1.249 . S
N111 C112 1.307 . S
N111 C113 1.333 . S
N111 Zn117 2.020 . S
C112 N111 1.307 . S
C112 C116 1.370 . S
C112 H123 0.948 1_455 S
C113 N111 1.333 . S
C113 C114 1.379 . S
C113 H121 0.952 . S
C114 C113 1.379 . S
C114 C115 1.390 . S
C114 H134 0.949 . S
C115 C114 1.390 . S
C115 C116 1.357 . S
C116 C112 1.370 . S
C116 C115 1.357 . S
C116 H135 0.950 . S
Zn117 N111 2.020 . S
Zn117 O120 2.025 1_455 S
Zn117 O125 2.024 . S
Zn117 O127 2.039 . S
Zn117 O129 2.034 . S
O118 C102 1.251 . S
O118 Zn109 2.039 1_655 S
C119 O124 1.246 . S
C119 O125 1.249 . S
O120 C102 1.254 . S
O120 Zn117 2.025 1_655 S
H121 C113 0.952 . S
H122 C104 0.952 1_655 S
H123 C112 0.948 1_655 S
O124 Zn109 2.034 . S
O124 C119 1.246 . S
O125 Zn117 2.024 . S
O125 C119 1.249 . S
H126 C108 0.948 . S
O127 Zn117 2.039 . S
O127 C131 1.251 . S
O128 Zn109 2.025 . S
O128 C131 1.254 . S
O129 C110 1.246 . S
O129 Zn117 2.034 . S
O130 Zn109 2.024 . S
O130 C110 1.249 . S
C131 O127 1.251 . S
C131 O128 1.254 . S
H132 C105 0.949 1_655 S
H133 C107 0.950 . S
H134 C114 0.949 . S
H135 C116 0.950 . S
C136 O152 1.251 . S
C136 O154 1.254 . S
N137 C138 1.333 1_655 S
N137 C142 1.307 . S
N137 Zn143 2.020 . S
C138 N137 1.333 1_455 S
C138 C139 1.379 . S
C138 H156 0.952 . S
C139 C138 1.379 . S
C139 C140 1.390 . S
C139 H166 0.949 . S
C140 C139 1.390 . S
C140 C141 1.357 1_455 S
C141 C140 1.357 1_655 S
C141 C142 1.370 . S
C141 H167 0.950 . S
C142 N137 1.307 . S
C142 C141 1.370 . S
C142 H160 0.948 . S
Zn143 N137 2.020 . S
Zn143 O152 2.039 1_655 S
Zn143 O158 2.034 . S
Zn143 O162 2.025 . S
Zn143 O164 2.024 1_655 S
C144 O163 1.246 1_455 S
C144 O164 1.249 . S
N145 C146 1.307 1_655 S
N145 C147 1.333 . S
N145 Zn151 2.020 . S
C146 N145 1.307 1_455 S
C146 C150 1.370 . S
C146 H157 0.948 . S
C147 N145 1.333 . S
C147 C148 1.379 . S
C147 H155 0.952 . S
C148 C147 1.379 . S
C148 C149 1.390 . S
C148 H168 0.949 . S
C149 C148 1.390 . S
C149 C150 1.357 1_655 S
C150 C146 1.370 . S
C150 C149 1.357 1_455 S
C150 H169 0.950 . S
Zn151 N145 2.020 . S
Zn151 O154 2.025 1_655 S
Zn151 O159 2.024 . S
Zn151 O161 2.039 . S
Zn151 O163 2.034 . S
O152 C136 1.251 . S
O152 Zn143 2.039 1_455 S
C153 O158 1.246 . S
C153 O159 1.249 . S
O154 C136 1.254 . S
O154 Zn151 2.025 1_455 S
H155 C147 0.952 . S
H156 C138 0.952 . S
H157 C146 0.948 . S
O158 Zn143 2.034 . S
O158 C153 1.246 . S
O159 Zn151 2.024 . S
O159 C153 1.249 . S
H160 C142 0.948 . S
O161 Zn151 2.039 . S
O161 C165 1.251 . S
O162 Zn143 2.025 . S
O162 C165 1.254 . S
O163 C144 1.246 1_655 S
O163 Zn151 2.034 . S
O164 Zn143 2.024 1_455 S
O164 C144 1.249 . S
C165 O161 1.251 . S
C165 O162 1.254 . S
H166 C139 0.949 . S
H167 C141 0.950 . S
H168 C148 0.949 . S
H169 C150 0.950 . S
C170 O186 1.251 . S
C170 O188 1.254 . S
N171 C172 1.333 . S
N171 C176 1.307 . S
N171 Zn177 2.020 . S
C172 N171 1.333 . S
C172 C173 1.379 . S
C172 H190 0.952 . S
C173 C172 1.379 . S
C173 C174 1.390 . S
C173 H200 0.949 . S
C174 C173 1.390 . S
C174 C175 1.357 . S
C175 C174 1.357 . S
C175 C176 1.370 . S
C175 H201 0.950 . S
C176 N171 1.307 . S
C176 C175 1.370 . S
C176 H194 0.948 1_655 S
Zn177 N171 2.020 . S
Zn177 O186 2.039 . S
Zn177 O192 2.034 . S
Zn177 O196 2.025 1_655 S
Zn177 O198 2.024 . S
C178 O197 1.246 . S
C178 O198 1.249 . S
N179 C180 1.307 . S
N179 C181 1.333 . S
N179 Zn185 2.020 . S
C180 N179 1.307 . S
C180 C184 1.370 . S
C180 H191 0.948 . S
C181 N179 1.333 . S
C181 C182 1.379 . S
C181 H189 0.952 1_655 S
C182 C181 1.379 . S
C182 C183 1.390 . S
C182 H202 0.949 1_655 S
C183 C182 1.390 . S
C183 C184 1.357 . S
C184 C180 1.370 . S
C184 C183 1.357 . S
C184 H203 0.950 . S
Zn185 N179 2.020 . S
Zn185 O188 2.025 . S
Zn185 O193 2.024 . S
Zn185 O195 2.039 1_655 S
Zn185 O197 2.034 . S
O186 C170 1.251 . S
O186 Zn177 2.039 . S
C187 O192 1.246 . S
C187 O193 1.249 . S
O188 C170 1.254 . S
O188 Zn185 2.025 . S
H189 C181 0.952 1_455 S
H190 C172 0.952 . S
H191 C180 0.948 . S
O192 Zn177 2.034 . S
O192 C187 1.246 . S
O193 Zn185 2.024 . S
O193 C187 1.249 . S
H194 C176 0.948 1_455 S
O195 Zn185 2.039 1_455 S
O195 C199 1.251 . S
O196 Zn177 2.025 1_455 S
O196 C199 1.254 . S
O197 C178 1.246 . S
O197 Zn185 2.034 . S
O198 Zn177 2.024 . S
O198 C178 1.249 . S
C199 O195 1.251 . S
C199 O196 1.254 . S
H200 C173 0.949 . S
H201 C175 0.950 . S
H202 C182 0.949 1_455 S
H203 C184 0.950 . S
C204 O220 1.251 . S
C204 O222 1.254 . S
N205 C206 1.333 1_655 S
N205 C210 1.307 . S
N205 Zn211 2.020 . S
C206 N205 1.333 1_455 S
C206 C207 1.379 . S
C206 H224 0.952 . S
C207 C206 1.379 . S
C207 C208 1.390 . S
C207 H234 0.949 . S
C208 C207 1.390 . S
C208 C209 1.357 1_455 S
C209 C208 1.357 1_655 S
C209 C210 1.370 . S
C209 H235 0.950 . S
C210 N205 1.307 . S
C210 C209 1.370 . S
C210 H228 0.948 . S
Zn211 N205 2.020 . S
Zn211 O220 2.039 1_655 S
Zn211 O226 2.034 . S
Zn211 O230 2.025 . S
Zn211 O232 2.024 1_655 S
C212 O231 1.246 1_455 S
C212 O232 1.249 . S
N213 C214 1.307 1_655 S
N213 C215 1.333 . S
N213 Zn219 2.020 . S
C214 N213 1.307 1_455 S
C214 C218 1.370 . S
C214 H225 0.948 . S
C215 N213 1.333 . S
C215 C216 1.379 . S
C215 H223 0.952 . S
C216 C215 1.379 . S
C216 C217 1.390 . S
C216 H236 0.949 . S
C217 C216 1.390 . S
C217 C218 1.357 1_655 S
C218 C214 1.370 . S
C218 C217 1.357 1_455 S
C218 H237 0.950 . S
Zn219 N213 2.020 . S
Zn219 O222 2.025 1_655 S
Zn219 O227 2.024 . S
Zn219 O229 2.039 . S
Zn219 O231 2.034 . S
O220 C204 1.251 . S
O220 Zn211 2.039 1_455 S
C221 O226 1.246 . S
C221 O227 1.249 . S
O222 C204 1.254 . S
O222 Zn219 2.025 1_455 S
H223 C215 0.952 . S
H224 C206 0.952 . S
H225 C214 0.948 . S
O226 Zn211 2.034 . S
O226 C221 1.246 . S
O227 Zn219 2.024 . S
O227 C221 1.249 . S
H228 C210 0.948 . S
O229 Zn219 2.039 . S
O229 C233 1.251 . S
O230 Zn211 2.025 . S
O230 C233 1.254 . S
O231 C212 1.246 1_655 S
O231 Zn219 2.034 . S
O232 Zn211 2.024 1_455 S
O232 C212 1.249 . S
C233 O229 1.251 . S
C233 O230 1.254 . S
H234 C207 0.949 . S
H235 C209 0.950 . S
H236 C216 0.949 . S
H237 C218 0.950 . S
C238 O254 1.251 . S
C238 O256 1.254 . S
N239 C240 1.333 . S
N239 C244 1.307 . S
N239 Zn245 2.020 . S
C240 N239 1.333 . S
C240 C241 1.379 . S
C240 H258 0.952 . S
C241 C240 1.379 . S
C241 C242 1.390 . S
C241 H268 0.949 . S
C242 C241 1.390 . S
C242 C243 1.357 . S
C243 C242 1.357 . S
C243 C244 1.370 . S
C243 H269 0.950 . S
C244 N239 1.307 . S
C244 C243 1.370 . S
C244 H262 0.948 1_655 S
Zn245 N239 2.020 . S
Zn245 O254 2.039 . S
Zn245 O260 2.034 . S
Zn245 O264 2.025 1_655 S
Zn245 O266 2.024 . S
C246 O265 1.246 . S
C246 O266 1.249 . S
N247 C248 1.307 . S
N247 C249 1.333 . S
N247 Zn253 2.020 . S
C248 N247 1.307 . S
C248 C252 1.370 . S
C248 H259 0.948 . S
C249 N247 1.333 . S
C249 C250 1.379 . S
C249 H257 0.952 1_655 S
C250 C249 1.379 . S
C250 C251 1.390 . S
C250 H270 0.949 1_655 S
C251 C250 1.390 . S
C251 C252 1.357 . S
C252 C248 1.370 . S
C252 C251 1.357 . S
C252 H271 0.950 . S
Zn253 N247 2.020 . S
Zn253 O256 2.025 . S
Zn253 O261 2.024 . S
Zn253 O263 2.039 1_655 S
Zn253 O265 2.034 . S
O254 C238 1.251 . S
O254 Zn245 2.039 . S
C255 O260 1.246 . S
C255 O261 1.249 . S
O256 C238 1.254 . S
O256 Zn253 2.025 . S
H257 C249 0.952 1_455 S
H258 C240 0.952 . S
H259 C248 0.948 . S
O260 Zn245 2.034 . S
O260 C255 1.246 . S
O261 Zn253 2.024 . S
O261 C255 1.249 . S
H262 C244 0.948 1_455 S
O263 Zn253 2.039 1_455 S
O263 C267 1.251 . S
O264 Zn245 2.025 1_455 S
O264 C267 1.254 . S
O265 C246 1.246 . S
O265 Zn253 2.034 . S
O266 Zn245 2.024 . S
O266 C246 1.249 . S
C267 O263 1.251 . S
C267 O264 1.254 . S
H268 C241 0.949 . S
H269 C243 0.950 . S
H270 C250 0.949 1_455 S
H271 C252 0.950 . S
C272 O288 1.251 . S
C272 O290 1.254 . S
N273 C274 1.333 . S
N273 C278 1.307 1_465 S
N273 Zn279 2.021 . S
C274 N273 1.333 . S
C274 C275 1.379 . S
C274 H292 0.952 . S
C275 C274 1.379 . S
C275 C276 1.390 . S
C275 H302 0.949 . S
C276 C275 1.390 . S
C276 C277 1.357 1_465 S
C277 C276 1.357 1_645 S
C277 C278 1.370 . S
C277 H303 0.950 . S
C278 N273 1.307 1_645 S
C278 C277 1.370 . S
C278 H296 0.948 . S
Zn279 N273 2.021 . S
Zn279 O288 2.041 . S
Zn279 O294 2.055 . S
Zn279 O298 2.024 1_465 S
Zn279 O300 2.003 1_565 S
C280 O299 1.246 . S
C280 O300 1.249 . S
N281 C282 1.307 . S
N281 C283 1.333 1_465 S
N281 Zn287 2.020 . S
C282 N281 1.307 . S
C282 C286 1.370 . S
C282 H293 0.948 . S
C283 N281 1.333 1_645 S
C283 C284 1.379 . S
C283 H291 0.952 . S
C284 C283 1.379 . S
C284 C285 1.390 . S
C284 H304 0.949 . S
C285 C284 1.390 . S
C285 C286 1.357 1_645 S
C286 C282 1.370 . S
C286 C285 1.357 1_465 S
C286 H305 0.950 . S
Zn287 N281 2.020 . S
Zn287 O290 2.025 . S
Zn287 O295 2.024 1_455 S
Zn287 O297 2.039 1_465 S
Zn287 O299 2.034 1_565 S
O288 C272 1.251 . S
O288 Zn279 2.041 . S
C289 O294 1.246 1_655 S
C289 O295 1.249 . S
O290 C272 1.254 . S
O290 Zn287 2.025 . S
H291 C283 0.952 . S
H292 C274 0.952 . S
H293 C282 0.948 . S
O294 Zn279 2.055 . S
O294 C289 1.246 1_455 S
O295 Zn287 2.024 1_655 S
O295 C289 1.249 . S
H296 C278 0.948 . S
O297 Zn287 2.039 1_645 S
O297 C301 1.251 . S
O298 Zn279 2.024 1_645 S
O298 C301 1.254 . S
O299 C280 1.246 . S
O299 Zn287 2.034 1_545 S
O300 Zn279 2.003 1_545 S
O300 C280 1.249 . S
C301 O297 1.251 . S
C301 O298 1.254 . S
H302 C275 0.949 . S
H303 C277 0.950 . S
H304 C284 0.949 . S
H305 C286 0.950 . S
C306 O322 1.251 . S
C306 O324 1.254 . S
N307 C308 1.333 . S
N307 C312 1.307 . S
N307 Zn313 2.020 . S
C308 N307 1.333 . S
C308 C309 1.379 . S
C308 H326 0.952 1_455 S
C309 C308 1.379 . S
C309 C310 1.390 . S
C309 H336 0.949 1_455 S
C310 C309 1.390 . S
C310 C311 1.357 . S
C311 C310 1.357 . S
C311 C312 1.370 . S
C311 H337 0.950 . S
C312 N307 1.307 . S
C312 C311 1.370 . S
C312 H330 0.948 . S
Zn313 N307 2.020 . S
Zn313 O322 2.039 1_455 S
Zn313 O328 2.034 . S
Zn313 O332 2.025 . S
Zn313 O334 2.024 . S
C314 O333 1.246 . S
C314 O334 1.249 . S
N315 C316 1.307 . S
N315 C317 1.333 . S
N315 Zn321 2.020 . S
C316 N315 1.307 . S
C316 C320 1.370 . S
C316 H327 0.948 1_455 S
C317 N315 1.333 . S
C317 C318 1.379 . S
C317 H325 0.952 . S
C318 C317 1.379 . S
C318 C319 1.390 . S
C318 H338 0.949 . S
C319 C318 1.390 . S
C319 C320 1.357 . S
C320 C316 1.370 . S
C320 C319 1.357 . S
C320 H339 0.950 . S
Zn321 N315 2.020 . S
Zn321 O324 2.025 1_455 S
Zn321 O329 2.024 . S
Zn321 O331 2.039 . S
Zn321 O333 2.034 . S
O322 C306 1.251 . S
O322 Zn313 2.039 1_655 S
C323 O328 1.246 . S
C323 O329 1.249 . S
O324 C306 1.254 . S
O324 Zn321 2.025 1_655 S
H325 C317 0.952 . S
H326 C308 0.952 1_655 S
H327 C316 0.948 1_655 S
O328 Zn313 2.034 . S
O328 C323 1.246 . S
O329 Zn321 2.024 . S
O329 C323 1.249 . S
H330 C312 0.948 . S
O331 Zn321 2.039 . S
O331 C335 1.251 . S
O332 Zn313 2.025 . S
O332 C335 1.254 . S
O333 C314 1.246 . S
O333 Zn321 2.034 . S
O334 Zn313 2.024 . S
O334 C314 1.249 . S
C335 O331 1.251 . S
C335 O332 1.254 . S
H336 C309 0.949 1_655 S
H337 C311 0.950 . S
H338 C318 0.949 . S
H339 C320 0.950 . S
C340 O356 1.251 . S
C340 O358 1.254 . S
N341 C342 1.333 . S
N341 C346 1.307 1_455 S
N341 Zn347 2.020 . S
C342 N341 1.333 . S
C342 C343 1.379 . S
C342 H360 0.952 . S
C343 C342 1.379 . S
C343 C344 1.390 . S
C343 H370 0.949 . S
C344 C343 1.390 . S
C344 C345 1.357 1_455 S
C345 C344 1.357 1_655 S
C345 C346 1.370 . S
C345 H371 0.950 . S
C346 N341 1.307 1_655 S
C346 C345 1.370 . S
C346 H364 0.948 . S
Zn347 N341 2.020 . S
Zn347 O356 2.039 . S
Zn347 O362 2.034 . S
Zn347 O366 2.025 1_455 S
Zn347 O368 2.024 . S
C348 O367 1.246 . S
C348 O368 1.249 . S
N349 C350 1.307 . S
N349 C351 1.333 1_455 S
N349 Zn355 2.020 . S
C350 N349 1.307 . S
C350 C354 1.370 . S
C350 H361 0.948 . S
C351 N349 1.333 1_655 S
C351 C352 1.379 . S
C351 H359 0.952 . S
C352 C351 1.379 . S
C352 C353 1.390 . S
C352 H372 0.949 . S
C353 C352 1.390 . S
C353 C354 1.357 1_655 S
C354 C350 1.370 . S
C354 C353 1.357 1_455 S
C354 H373 0.950 . S
Zn355 N349 2.020 . S
Zn355 O358 2.025 . S
Zn355 O363 2.024 1_455 S
Zn355 O365 2.039 1_455 S
Zn355 O367 2.034 . S
O356 C340 1.251 . S
O356 Zn347 2.039 . S
C357 O362 1.246 1_655 S
C357 O363 1.249 . S
O358 C340 1.254 . S
O358 Zn355 2.025 . S
H359 C351 0.952 . S
H360 C342 0.952 . S
H361 C350 0.948 . S
O362 Zn347 2.034 . S
O362 C357 1.246 1_455 S
O363 Zn355 2.024 1_655 S
O363 C357 1.249 . S
H364 C346 0.948 . S
O365 Zn355 2.039 1_655 S
O365 C369 1.251 . S
O366 Zn347 2.025 1_655 S
O366 C369 1.254 . S
O367 C348 1.246 . S
O367 Zn355 2.034 . S
O368 Zn347 2.024 . S
O368 C348 1.249 . S
C369 O365 1.251 . S
C369 O366 1.254 . S
H370 C343 0.949 . S
H371 C345 0.950 . S
H372 C352 0.949 . S
H373 C354 0.950 . S
C374 O390 1.251 . S
C374 O392 1.254 . S
N375 C376 1.333 . S
N375 C380 1.307 1_565 S
N375 Zn381 2.021 . S
C376 N375 1.333 . S
C376 C377 1.379 . S
C376 H394 0.952 1_455 S
C377 C376 1.379 . S
C377 C378 1.390 . S
C377 H404 0.949 1_455 S
C378 C377 1.390 . S
C378 C379 1.357 1_565 S
C379 C378 1.357 1_545 S
C379 C380 1.370 . S
C379 H405 0.950 . S
C380 N375 1.307 1_545 S
C380 C379 1.370 . S
C380 H398 0.948 . S
Zn381 N375 2.021 . S
Zn381 O390 2.041 1_455 S
Zn381 O396 2.055 . S
Zn381 O400 2.024 1_565 S
Zn381 O402 2.003 1_565 S
C382 O401 1.246 . S
C382 O402 1.249 . S
N383 C384 1.307 . S
N383 C385 1.333 1_565 S
N383 Zn389 2.020 . S
C384 N383 1.307 . S
C384 C388 1.370 . S
C384 H395 0.948 1_455 S
C385 N383 1.333 1_545 S
C385 C386 1.379 . S
C385 H393 0.952 . S
C386 C385 1.379 . S
C386 C387 1.390 . S
C386 H406 0.949 . S
C387 C386 1.390 . S
C387 C388 1.357 1_545 S
C388 C384 1.370 . S
C388 C387 1.357 1_565 S
C388 H407 0.950 . S
Zn389 N383 2.020 . S
Zn389 O392 2.025 1_455 S
Zn389 O397 2.024 . S
Zn389 O399 2.039 1_565 S
Zn389 O401 2.034 1_565 S
O390 C374 1.251 . S
O390 Zn381 2.041 1_655 S
C391 O396 1.246 . S
C391 O397 1.249 . S
O392 C374 1.254 . S
O392 Zn389 2.025 1_655 S
H393 C385 0.952 . S
H394 C376 0.952 1_655 S
H395 C384 0.948 1_655 S
O396 Zn381 2.055 . S
O396 C391 1.246 . S
O397 Zn389 2.024 . S
O397 C391 1.249 . S
H398 C380 0.948 . S
O399 Zn389 2.039 1_545 S
O399 C403 1.251 . S
O400 Zn381 2.024 1_545 S
O400 C403 1.254 . S
O401 C382 1.246 . S
O401 Zn389 2.034 1_545 S
O402 Zn381 2.003 1_545 S
O402 C382 1.249 . S
C403 O399 1.251 . S
C403 O400 1.254 . S
H404 C377 0.949 1_655 S
H405 C379 0.950 . S
H406 C386 0.949 . S
H407 C388 0.950 . S
C408 O424 1.251 . S
C408 O426 1.254 . S
N409 C410 1.333 1_645 S
N409 C414 1.307 . S
N409 Zn415 2.020 . S
C410 N409 1.333 1_465 S
C410 C411 1.379 . S
C410 H428 0.952 . S
C411 C410 1.379 . S
C411 C412 1.390 . S
C411 H438 0.949 . S
C412 C411 1.390 . S
C412 C413 1.357 1_465 S
C413 C412 1.357 1_645 S
C413 C414 1.370 . S
C413 H439 0.950 . S
C414 N409 1.307 . S
C414 C413 1.370 . S
C414 H432 0.948 . S
Zn415 N409 2.020 . S
Zn415 O424 2.039 1_645 S
Zn415 O430 2.034 1_545 S
Zn415 O434 2.025 . S
Zn415 O436 2.024 1_655 S
C416 O435 1.246 1_455 S
C416 O436 1.249 . S
N417 C418 1.307 1_645 S
N417 C419 1.333 . S
N417 Zn423 2.021 . S
C418 N417 1.307 1_465 S
C418 C422 1.370 . S
C418 H429 0.948 . S
C419 N417 1.333 . S
C419 C420 1.379 . S
C419 H427 0.952 . S
C420 C419 1.379 . S
C420 C421 1.390 . S
C420 H440 0.949 . S
C421 C420 1.390 . S
C421 C422 1.357 1_645 S
C422 C418 1.370 . S
C422 C421 1.357 1_465 S
C422 H441 0.950 . S
Zn423 N417 2.021 . S
Zn423 O426 2.024 1_645 S
Zn423 O431 2.003 1_545 S
Zn423 O433 2.041 . S
Zn423 O435 2.055 . S
O424 C408 1.251 . S
O424 Zn415 2.039 1_465 S
C425 O430 1.246 . S
C425 O431 1.249 . S
O426 C408 1.254 . S
O426 Zn423 2.024 1_465 S
H427 C419 0.952 . S
H428 C410 0.952 . S
H429 C418 0.948 . S
O430 Zn415 2.034 1_565 S
O430 C425 1.246 . S
O431 Zn423 2.003 1_565 S
O431 C425 1.249 . S
H432 C414 0.948 . S
O433 Zn423 2.041 . S
O433 C437 1.251 . S
O434 Zn415 2.025 . S
O434 C437 1.254 . S
O435 C416 1.246 1_655 S
O435 Zn423 2.055 . S
O436 Zn415 2.024 1_455 S
O436 C416 1.249 . S
C437 O433 1.251 . S
C437 O434 1.254 . S
H438 C411 0.949 . S
H439 C413 0.950 . S
H440 C420 0.949 . S
H441 C422 0.950 . S
C442 O458 1.251 . S
C442 O460 1.254 . S
N443 C444 1.333 . S
N443 C448 1.307 . S
N443 Zn449 2.020 . S
C444 N443 1.333 . S
C444 C445 1.379 . S
C444 H462 0.952 . S
C445 C444 1.379 . S
C445 C446 1.390 . S
C445 H472 0.949 . S
C446 C445 1.390 . S
C446 C447 1.357 . S
C447 C446 1.357 . S
C447 C448 1.370 . S
C447 H473 0.950 . S
C448 N443 1.307 . S
C448 C447 1.370 . S
C448 H466 0.948 1_655 S
Zn449 N443 2.020 . S
Zn449 O458 2.039 . S
Zn449 O464 2.034 . S
Zn449 O468 2.025 1_655 S
Zn449 O470 2.024 . S
C450 O469 1.246 . S
C450 O470 1.249 . S
N451 C452 1.307 . S
N451 C453 1.333 . S
N451 Zn457 2.020 . S
C452 N451 1.307 . S
C452 C456 1.370 . S
C452 H463 0.948 . S
C453 N451 1.333 . S
C453 C454 1.379 . S
C453 H461 0.952 1_655 S
C454 C453 1.379 . S
C454 C455 1.390 . S
C454 H474 0.949 1_655 S
C455 C454 1.390 . S
C455 C456 1.357 . S
C456 C452 1.370 . S
C456 C455 1.357 . S
C456 H475 0.950 . S
Zn457 N451 2.020 . S
Zn457 O460 2.025 . S
Zn457 O465 2.024 . S
Zn457 O467 2.039 1_655 S
Zn457 O469 2.034 . S
O458 C442 1.251 . S
O458 Zn449 2.039 . S
C459 O464 1.246 . S
C459 O465 1.249 . S
O460 C442 1.254 . S
O460 Zn457 2.025 . S
H461 C453 0.952 1_455 S
H462 C444 0.952 . S
H463 C452 0.948 . S
O464 Zn449 2.034 . S
O464 C459 1.246 . S
O465 Zn457 2.024 . S
O465 C459 1.249 . S
H466 C448 0.948 1_455 S
O467 Zn457 2.039 1_455 S
O467 C471 1.251 . S
O468 Zn449 2.025 1_455 S
O468 C471 1.254 . S
O469 C450 1.246 . S
O469 Zn457 2.034 . S
O470 Zn449 2.024 . S
O470 C450 1.249 . S
C471 O467 1.251 . S
C471 O468 1.254 . S
H472 C445 0.949 . S
H473 C447 0.950 . S
H474 C454 0.949 1_455 S
H475 C456 0.950 . S
C476 O492 1.251 . S
C476 O494 1.254 . S
N477 C478 1.333 1_655 S
N477 C482 1.307 . S
N477 Zn483 2.020 . S
C478 N477 1.333 1_455 S
C478 C479 1.379 . S
C478 H496 0.952 . S
C479 C478 1.379 . S
C479 C480 1.390 . S
C479 H506 0.949 . S
C480 C479 1.390 . S
C480 C481 1.357 1_455 S
C481 C480 1.357 1_655 S
C481 C482 1.370 . S
C481 H507 0.950 . S
C482 N477 1.307 . S
C482 C481 1.370 . S
C482 H500 0.948 . S
Zn483 N477 2.020 . S
Zn483 O492 2.039 1_655 S
Zn483 O498 2.034 . S
Zn483 O502 2.025 . S
Zn483 O504 2.024 1_655 S
C484 O503 1.246 1_455 S
C484 O504 1.249 . S
N485 C486 1.307 1_655 S
N485 C487 1.333 . S
N485 Zn491 2.020 . S
C486 N485 1.307 1_455 S
C486 C490 1.370 . S
C486 H497 0.948 . S
C487 N485 1.333 . S
C487 C488 1.379 . S
C487 H495 0.952 . S
C488 C487 1.379 . S
C488 C489 1.390 . S
C488 H508 0.949 . S
C489 C488 1.390 . S
C489 C490 1.357 1_655 S
C490 C486 1.370 . S
C490 C489 1.357 1_455 S
C490 H509 0.950 . S
Zn491 N485 2.020 . S
Zn491 O494 2.025 1_655 S
Zn491 O499 2.024 . S
Zn491 O501 2.039 . S
Zn491 O503 2.034 . S
O492 C476 1.251 . S
O492 Zn483 2.039 1_455 S
C493 O498 1.246 . S
C493 O499 1.249 . S
O494 C476 1.254 . S
O494 Zn491 2.025 1_455 S
H495 C487 0.952 . S
H496 C478 0.952 . S
H497 C486 0.948 . S
O498 Zn483 2.034 . S
O498 C493 1.246 . S
O499 Zn491 2.024 . S
O499 C493 1.249 . S
H500 C482 0.948 . S
O501 Zn491 2.039 . S
O501 C505 1.251 . S
O502 Zn483 2.025 . S
O502 C505 1.254 . S
O503 C484 1.246 1_655 S
O503 Zn491 2.034 . S
O504 Zn483 2.024 1_455 S
O504 C484 1.249 . S
C505 O501 1.251 . S
C505 O502 1.254 . S
H506 C479 0.949 . S
H507 C481 0.950 . S
H508 C488 0.949 . S
H509 C490 0.950 . S
C510 O526 1.251 . S
C510 O528 1.254 . S
N511 C512 1.333 1_545 S
N511 C516 1.307 . S
N511 Zn517 2.020 . S
C512 N511 1.333 1_565 S
C512 C513 1.379 . S
C512 H530 0.952 . S
C513 C512 1.379 . S
C513 C514 1.390 . S
C513 H540 0.949 . S
C514 C513 1.390 . S
C514 C515 1.357 1_565 S
C515 C514 1.357 1_545 S
C515 C516 1.370 . S
C515 H541 0.950 . S
C516 N511 1.307 . S
C516 C515 1.370 . S
C516 H534 0.948 1_655 S
Zn517 N511 2.020 . S
Zn517 O526 2.039 1_545 S
Zn517 O532 2.034 1_545 S
Zn517 O536 2.025 1_655 S
Zn517 O538 2.024 . S
C518 O537 1.246 . S
C518 O538 1.249 . S
N519 C520 1.307 1_545 S
N519 C521 1.333 . S
N519 Zn525 2.021 . S
C520 N519 1.307 1_565 S
C520 C524 1.370 . S
C520 H531 0.948 . S
C521 N519 1.333 . S
C521 C522 1.379 . S
C521 H529 0.952 1_655 S
C522 C521 1.379 . S
C522 C523 1.390 . S
C522 H542 0.949 1_655 S
C523 C522 1.390 . S
C523 C524 1.357 1_545 S
C524 C520 1.370 . S
C524 C523 1.357 1_565 S
C524 H543 0.950 . S
Zn525 N519 2.021 . S
Zn525 O528 2.024 1_545 S
Zn525 O533 2.003 1_545 S
Zn525 O535 2.041 1_655 S
Zn525 O537 2.055 . S
O526 C510 1.251 . S
O526 Zn517 2.039 1_565 S
C527 O532 1.246 . S
C527 O533 1.249 . S
O528 C510 1.254 . S
O528 Zn525 2.024 1_565 S
H529 C521 0.952 1_455 S
H530 C512 0.952 . S
H531 C520 0.948 . S
O532 Zn517 2.034 1_565 S
O532 C527 1.246 . S
O533 Zn525 2.003 1_565 S
O533 C527 1.249 . S
H534 C516 0.948 1_455 S
O535 Zn525 2.041 1_455 S
O535 C539 1.251 . S
O536 Zn517 2.025 1_455 S
O536 C539 1.254 . S
O537 C518 1.246 . S
O537 Zn525 2.055 . S
O538 Zn517 2.024 . S
O538 C518 1.249 . S
C539 O535 1.251 . S
C539 O536 1.254 . S
H540 C513 0.949 . S
H541 C515 0.950 . S
H542 C522 0.949 1_455 S
H543 C524 0.950 . S
C544 O560 1.251 . S
C544 O562 1.254 . S
N545 C546 1.333 . S
N545 C550 1.307 . S
N545 Zn551 2.020 . S
C546 N545 1.333 . S
C546 C547 1.379 . S
C546 H564 0.952 . S
C547 C546 1.379 . S
C547 C548 1.390 . S
C547 H574 0.949 . S
C548 C547 1.390 . S
C548 C549 1.357 . S
C549 C548 1.357 . S
C549 C550 1.370 . S
C549 H575 0.950 . S
C550 N545 1.307 . S
C550 C549 1.370 . S
C550 H568 0.948 . S
Zn551 N545 2.020 . S
Zn551 O560 2.039 . S
Zn551 O566 2.034 . S
Zn551 O570 2.025 . S
Zn551 O572 2.024 . S
C552 O571 1.246 . S
C552 O572 1.249 . S
N553 C554 1.307 . S
N553 C555 1.333 . S
N553 Zn559 2.020 . S
C554 N553 1.307 . S
C554 C558 1.370 . S
C554 H565 0.948 . S
C555 N553 1.333 . S
C555 C556 1.379 . S
C555 H563 0.952 . S
C556 C555 1.379 . S
C556 C557 1.390 . S
C556 H576 0.949 . S
C557 C556 1.390 . S
C557 C558 1.357 . S
C558 C554 1.370 . S
C558 C557 1.357 . S
C558 H577 0.950 . S
Zn559 N553 2.020 . S
Zn559 O562 2.025 . S
Zn559 O567 2.024 . S
Zn559 O569 2.039 . S
Zn559 O571 2.034 . S
O560 C544 1.251 . S
O560 Zn551 2.039 . S
C561 O566 1.246 . S
C561 O567 1.249 . S
O562 C544 1.254 . S
O562 Zn559 2.025 . S
H563 C555 0.952 . S
H564 C546 0.952 . S
H565 C554 0.948 . S
O566 Zn551 2.034 . S
O566 C561 1.246 . S
O567 Zn559 2.024 . S
O567 C561 1.249 . S
H568 C550 0.948 . S
O569 Zn559 2.039 . S
O569 C573 1.251 . S
O570 Zn551 2.025 . S
O570 C573 1.254 . S
O571 C552 1.246 . S
O571 Zn559 2.034 . S
O572 Zn551 2.024 . S
O572 C552 1.249 . S
C573 O569 1.251 . S
C573 O570 1.254 . S
H574 C547 0.949 . S
H575 C549 0.950 . S
H576 C556 0.949 . S
H577 C558 0.950 . S
C578 O594 1.251 . S
C578 O596 1.254 . S
N579 C580 1.333 . S
N579 C584 1.307 . S
N579 Zn585 2.020 . S
C580 N579 1.333 . S
C580 C581 1.379 . S
C580 H598 0.952 . S
C581 C580 1.379 . S
C581 C582 1.390 . S
C581 H608 0.949 . S
C582 C581 1.390 . S
C582 C583 1.357 . S
C583 C582 1.357 . S
C583 C584 1.370 . S
C583 H609 0.950 . S
C584 N579 1.307 . S
C584 C583 1.370 . S
C584 H602 0.948 . S
Zn585 N579 2.020 . S
Zn585 O594 2.039 . S
Zn585 O600 2.034 . S
Zn585 O604 2.025 1_655 S
Zn585 O606 2.024 . S
C586 O605 1.246 . S
C586 O606 1.249 . S
N587 C588 1.307 . S
N587 C589 1.333 . S
N587 Zn593 2.020 . S
C588 N587 1.307 . S
C588 C592 1.370 . S
C588 H599 0.948 . S
C589 N587 1.333 . S
C589 C590 1.379 . S
C589 H597 0.952 . S
C590 C589 1.379 . S
C590 C591 1.390 . S
C590 H610 0.949 1_655 S
C591 C590 1.390 . S
C591 C592 1.357 . S
C592 C588 1.370 . S
C592 C591 1.357 . S
C592 H611 0.950 . S
Zn593 N587 2.020 . S
Zn593 O596 2.025 . S
Zn593 O601 2.024 . S
Zn593 O603 2.039 1_655 S
Zn593 O605 2.034 . S
O594 C578 1.251 . S
O594 Zn585 2.039 . S
C595 O600 1.246 . S
C595 O601 1.249 . S
O596 C578 1.254 . S
O596 Zn593 2.025 . S
H597 C589 0.952 . S
H598 C580 0.952 . S
H599 C588 0.948 . S
O600 Zn585 2.034 . S
O600 C595 1.246 . S
O601 Zn593 2.024 . S
O601 C595 1.249 . S
H602 C584 0.948 . S
O603 Zn593 2.039 1_455 S
O603 C607 1.251 . S
O604 Zn585 2.025 1_455 S
O604 C607 1.254 . S
O605 C586 1.246 . S
O605 Zn593 2.034 . S
O606 Zn585 2.024 . S
O606 C586 1.249 . S
C607 O603 1.251 . S
C607 O604 1.254 . S
H608 C581 0.949 . S
H609 C583 0.950 . S
H610 C590 0.949 1_455 S
H611 C592 0.950 . S
C612 O628 1.251 . S
C612 O630 1.254 . S
N613 C614 1.333 . S
N613 C618 1.307 . S
N613 Zn619 2.020 . S
C614 N613 1.333 . S
C614 C615 1.379 . S
C614 H632 0.952 . S
C615 C614 1.379 . S
C615 C616 1.390 . S
C615 H642 0.949 . S
C616 C615 1.390 . S
C616 C617 1.357 . S
C617 C616 1.357 . S
C617 C618 1.370 . S
C617 H643 0.950 . S
C618 N613 1.307 . S
C618 C617 1.370 . S
C618 H636 0.948 . S
Zn619 N613 2.020 . S
Zn619 O628 2.039 . S
Zn619 O634 2.034 . S
Zn619 O638 2.025 . S
Zn619 O640 2.024 . S
C620 O639 1.246 . S
C620 O640 1.249 . S
N621 C622 1.307 . S
N621 C623 1.333 . S
N621 Zn627 2.020 . S
C622 N621 1.307 . S
C622 C626 1.370 . S
C622 H633 0.948 . S
C623 N621 1.333 . S
C623 C624 1.379 . S
C623 H631 0.952 . S
C624 C623 1.379 . S
C624 C625 1.390 . S
C624 H644 0.949 . S
C625 C624 1.390 . S
C625 C626 1.357 . S
C626 C622 1.370 . S
C626 C625 1.357 . S
C626 H645 0.950 . S
Zn627 N621 2.020 . S
Zn627 O630 2.025 . S
Zn627 O635 2.024 . S
Zn627 O637 2.039 . S
Zn627 O639 2.034 . S
O628 C612 1.251 . S
O628 Zn619 2.039 . S
C629 O634 1.246 . S
C629 O635 1.249 . S
O630 C612 1.254 . S
O630 Zn627 2.025 . S
H631 C623 0.952 . S
H632 C614 0.952 . S
H633 C622 0.948 . S
O634 Zn619 2.034 . S
O634 C629 1.246 . S
O635 Zn627 2.024 . S
O635 C629 1.249 . S
H636 C618 0.948 . S
O637 Zn627 2.039 . S
O637 C641 1.251 . S
O638 Zn619 2.025 . S
O638 C641 1.254 . S
O639 C620 1.246 . S
O639 Zn627 2.034 . S
O640 Zn619 2.024 . S
O640 C620 1.249 . S
C641 O637 1.251 . S
C641 O638 1.254 . S
H642 C615 0.949 . S
H643 C617 0.950 . S
H644 C624 0.949 . S
H645 C626 0.950 . S
C646 O662 1.251 . S
C646 O664 1.254 . S
N647 C648 1.333 . S
N647 C652 1.307 . S
N647 Zn653 2.020 . S
C648 N647 1.333 . S
C648 C649 1.379 . S
C648 H666 0.952 . S
C649 C648 1.379 . S
C649 C650 1.390 . S
C649 H676 0.949 . S
C650 C649 1.390 . S
C650 C651 1.357 . S
C651 C650 1.357 . S
C651 C652 1.370 . S
C651 H677 0.950 . S
C652 N647 1.307 . S
C652 C651 1.370 . S
C652 H670 0.948 . S
Zn653 N647 2.020 . S
Zn653 O662 2.039 . S
Zn653 O668 2.034 . S
Zn653 O672 2.025 1_655 S
Zn653 O674 2.024 . S
C654 O673 1.246 . S
C654 O674 1.249 . S
N655 C656 1.307 . S
N655 C657 1.333 . S
N655 Zn661 2.020 . S
C656 N655 1.307 . S
C656 C660 1.370 . S
C656 H667 0.948 . S
C657 N655 1.333 . S
C657 C658 1.379 . S
C657 H665 0.952 . S
C658 C657 1.379 . S
C658 C659 1.390 . S
C658 H678 0.949 1_655 S
C659 C658 1.390 . S
C659 C660 1.357 . S
C660 C656 1.370 . S
C660 C659 1.357 . S
C660 H679 0.950 . S
Zn661 N655 2.020 . S
Zn661 O664 2.025 . S
Zn661 O669 2.024 . S
Zn661 O671 2.039 1_655 S
Zn661 O673 2.034 . S
O662 C646 1.251 . S
O662 Zn653 2.039 . S
C663 O668 1.246 . S
C663 O669 1.249 . S
O664 C646 1.254 . S
O664 Zn661 2.025 . S
H665 C657 0.952 . S
H666 C648 0.952 . S
H667 C656 0.948 . S
O668 Zn653 2.034 . S
O668 C663 1.246 . S
O669 Zn661 2.024 . S
O669 C663 1.249 . S
H670 C652 0.948 . S
O671 Zn661 2.039 1_455 S
O671 C675 1.251 . S
O672 Zn653 2.025 1_455 S
O672 C675 1.254 . S
O673 C654 1.246 . S
O673 Zn661 2.034 . S
O674 Zn653 2.024 . S
O674 C654 1.249 . S
C675 O671 1.251 . S
C675 O672 1.254 . S
H676 C649 0.949 . S
H677 C651 0.950 . S
H678 C658 0.949 1_455 S
H679 C660 0.950 . S
C680 O696 1.251 . S
C680 O698 1.254 . S
N681 C682 1.333 . S
N681 C686 1.307 . S
N681 Zn687 2.020 . S
C682 N681 1.333 . S
C682 C683 1.379 . S
C682 H700 0.952 . S
C683 C682 1.379 . S
C683 C684 1.390 . S
C683 H710 0.949 . S
C684 C683 1.390 . S
C684 C685 1.357 . S
C685 C684 1.357 . S
C685 C686 1.370 . S
C685 H711 0.950 . S
C686 N681 1.307 . S
C686 C685 1.370 . S
C686 H704 0.948 . S
Zn687 N681 2.020 . S
Zn687 O696 2.039 . S
Zn687 O702 2.034 . S
Zn687 O706 2.025 . S
Zn687 O708 2.024 . S
C688 O707 1.246 . S
C688 O708 1.249 . S
N689 C690 1.307 . S
N689 C691 1.333 . S
N689 Zn695 2.020 . S
C690 N689 1.307 . S
C690 C694 1.370 . S
C690 H701 0.948 . S
C691 N689 1.333 . S
C691 C692 1.379 . S
C691 H699 0.952 . S
C692 C691 1.379 . S
C692 C693 1.390 . S
C692 H712 0.949 . S
C693 C692 1.390 . S
C693 C694 1.357 . S
C694 C690 1.370 . S
C694 C693 1.357 . S
C694 H713 0.950 . S
Zn695 N689 2.020 . S
Zn695 O698 2.025 . S
Zn695 O703 2.024 . S
Zn695 O705 2.039 . S
Zn695 O707 2.034 . S
O696 C680 1.251 . S
O696 Zn687 2.039 . S
C697 O702 1.246 . S
C697 O703 1.249 . S
O698 C680 1.254 . S
O698 Zn695 2.025 . S
H699 C691 0.952 . S
H700 C682 0.952 . S
H701 C690 0.948 . S
O702 Zn687 2.034 . S
O702 C697 1.246 . S
O703 Zn695 2.024 . S
O703 C697 1.249 . S
H704 C686 0.948 . S
O705 Zn695 2.039 . S
O705 C709 1.251 . S
O706 Zn687 2.025 . S
O706 C709 1.254 . S
O707 C688 1.246 . S
O707 Zn695 2.034 . S
O708 Zn687 2.024 . S
O708 C688 1.249 . S
C709 O705 1.251 . S
C709 O706 1.254 . S
H710 C683 0.949 . S
H711 C685 0.950 . S
H712 C692 0.949 . S
H713 C694 0.950 . S
C714 O730 1.251 . S
C714 O732 1.254 . S
N715 C716 1.333 . S
N715 C720 1.307 . S
N715 Zn721 2.020 . S
C716 N715 1.333 . S
C716 C717 1.379 . S
C716 H734 0.952 . S
C717 C716 1.379 . S
C717 C718 1.390 . S
C717 H744 0.949 1_455 S
C718 C717 1.390 . S
C718 C719 1.357 . S
C719 C718 1.357 . S
C719 C720 1.370 . S
C719 H745 0.950 . S
C720 N715 1.307 . S
C720 C719 1.370 . S
C720 H738 0.948 . S
Zn721 N715 2.020 . S
Zn721 O730 2.039 1_455 S
Zn721 O736 2.034 . S
Zn721 O740 2.025 . S
Zn721 O742 2.024 . S
C722 O741 1.246 . S
C722 O742 1.249 . S
N723 C724 1.307 . S
N723 C725 1.333 . S
N723 Zn729 2.020 . S
C724 N723 1.307 . S
C724 C728 1.370 . S
C724 H735 0.948 . S
C725 N723 1.333 . S
C725 C726 1.379 . S
C725 H733 0.952 . S
C726 C725 1.379 . S
C726 C727 1.390 . S
C726 H746 0.949 . S
C727 C726 1.390 . S
C727 C728 1.357 . S
C728 C724 1.370 . S
C728 C727 1.357 . S
C728 H747 0.950 . S
Zn729 N723 2.020 . S
Zn729 O732 2.025 1_455 S
Zn729 O737 2.024 . S
Zn729 O739 2.039 . S
Zn729 O741 2.034 . S
O730 C714 1.251 . S
O730 Zn721 2.039 1_655 S
C731 O736 1.246 . S
C731 O737 1.249 . S
O732 C714 1.254 . S
O732 Zn729 2.025 1_655 S
H733 C725 0.952 . S
H734 C716 0.952 . S
H735 C724 0.948 . S
O736 Zn721 2.034 . S
O736 C731 1.246 . S
O737 Zn729 2.024 . S
O737 C731 1.249 . S
H738 C720 0.948 . S
O739 Zn729 2.039 . S
O739 C743 1.251 . S
O740 Zn721 2.025 . S
O740 C743 1.254 . S
O741 C722 1.246 . S
O741 Zn729 2.034 . S
O742 Zn721 2.024 . S
O742 C722 1.249 . S
C743 O739 1.251 . S
C743 O740 1.254 . S
H744 C717 0.949 1_655 S
H745 C719 0.950 . S
H746 C726 0.949 . S
H747 C728 0.950 . S
C748 O764 1.251 . S
C748 O766 1.254 . S
N749 C750 1.333 . S
N749 C754 1.307 . S
N749 Zn755 2.020 . S
C750 N749 1.333 . S
C750 C751 1.379 . S
C750 H768 0.952 . S
C751 C750 1.379 . S
C751 C752 1.390 . S
C751 H778 0.949 . S
C752 C751 1.390 . S
C752 C753 1.357 . S
C753 C752 1.357 . S
C753 C754 1.370 . S
C753 H779 0.950 . S
C754 N749 1.307 . S
C754 C753 1.370 . S
C754 H772 0.948 . S
Zn755 N749 2.020 . S
Zn755 O764 2.039 . S
Zn755 O770 2.034 . S
Zn755 O774 2.025 . S
Zn755 O776 2.024 . S
C756 O775 1.246 . S
C756 O776 1.249 . S
N757 C758 1.307 . S
N757 C759 1.333 . S
N757 Zn763 2.020 . S
C758 N757 1.307 . S
C758 C762 1.370 . S
C758 H769 0.948 . S
C759 N757 1.333 . S
C759 C760 1.379 . S
C759 H767 0.952 . S
C760 C759 1.379 . S
C760 C761 1.390 . S
C760 H780 0.949 . S
C761 C760 1.390 . S
C761 C762 1.357 . S
C762 C758 1.370 . S
C762 C761 1.357 . S
C762 H781 0.950 . S
Zn763 N757 2.020 . S
Zn763 O766 2.025 . S
Zn763 O771 2.024 . S
Zn763 O773 2.039 . S
Zn763 O775 2.034 . S
O764 C748 1.251 . S
O764 Zn755 2.039 . S
C765 O770 1.246 . S
C765 O771 1.249 . S
O766 C748 1.254 . S
O766 Zn763 2.025 . S
H767 C759 0.952 . S
H768 C750 0.952 . S
H769 C758 0.948 . S
O770 Zn755 2.034 . S
O770 C765 1.246 . S
O771 Zn763 2.024 . S
O771 C765 1.249 . S
H772 C754 0.948 . S
O773 Zn763 2.039 . S
O773 C777 1.251 . S
O774 Zn755 2.025 . S
O774 C777 1.254 . S
O775 C756 1.246 . S
O775 Zn763 2.034 . S
O776 Zn755 2.024 . S
O776 C756 1.249 . S
C777 O773 1.251 . S
C777 O774 1.254 . S
H778 C751 0.949 . S
H779 C753 0.950 . S
H780 C760 0.949 . S
H781 C762 0.950 . S
C782 O798 1.251 . S
C782 O800 1.254 . S
N783 C784 1.333 . S
N783 C788 1.307 . S
N783 Zn789 2.020 . S
C784 N783 1.333 . S
C784 C785 1.379 . S
C784 H802 0.952 . S
C785 C784 1.379 . S
C785 C786 1.390 . S
C785 H812 0.949 1_455 S
C786 C785 1.390 . S
C786 C787 1.357 . S
C787 C786 1.357 . S
C787 C788 1.370 . S
C787 H813 0.950 . S
C788 N783 1.307 . S
C788 C787 1.370 . S
C788 H806 0.948 . S
Zn789 N783 2.020 . S
Zn789 O798 2.039 1_455 S
Zn789 O804 2.034 . S
Zn789 O808 2.025 . S
Zn789 O810 2.024 . S
C790 O809 1.246 . S
C790 O810 1.249 . S
N791 C792 1.307 . S
N791 C793 1.333 . S
N791 Zn797 2.020 . S
C792 N791 1.307 . S
C792 C796 1.370 . S
C792 H803 0.948 . S
C793 N791 1.333 . S
C793 C794 1.379 . S
C793 H801 0.952 . S
C794 C793 1.379 . S
C794 C795 1.390 . S
C794 H814 0.949 . S
C795 C794 1.390 . S
C795 C796 1.357 . S
C796 C792 1.370 . S
C796 C795 1.357 . S
C796 H815 0.950 . S
Zn797 N791 2.020 . S
Zn797 O800 2.025 1_455 S
Zn797 O805 2.024 . S
Zn797 O807 2.039 . S
Zn797 O809 2.034 . S
O798 C782 1.251 . S
O798 Zn789 2.039 1_655 S
C799 O804 1.246 . S
C799 O805 1.249 . S
O800 C782 1.254 . S
O800 Zn797 2.025 1_655 S
H801 C793 0.952 . S
H802 C784 0.952 . S
H803 C792 0.948 . S
O804 Zn789 2.034 . S
O804 C799 1.246 . S
O805 Zn797 2.024 . S
O805 C799 1.249 . S
H806 C788 0.948 . S
O807 Zn797 2.039 . S
O807 C811 1.251 . S
O808 Zn789 2.025 . S
O808 C811 1.254 . S
O809 C790 1.246 . S
O809 Zn797 2.034 . S
O810 Zn789 2.024 . S
O810 C790 1.249 . S
C811 O807 1.251 . S
C811 O808 1.254 . S
H812 C785 0.949 1_655 S
H813 C787 0.950 . S
H814 C794 0.949 . S
H815 C796 0.950 . S
C816 O832 1.251 . S
C816 O834 1.254 . S
N817 C818 1.333 . S
N817 C822 1.307 1_565 S
N817 Zn823 2.021 . S
C818 N817 1.333 . S
C818 C819 1.379 . S
C818 H836 0.952 . S
C819 C818 1.379 . S
C819 C820 1.390 . S
C819 H846 0.949 . S
C820 C819 1.390 . S
C820 C821 1.357 1_565 S
C821 C820 1.357 1_545 S
C821 C822 1.370 . S
C821 H847 0.950 . S
C822 N817 1.307 1_545 S
C822 C821 1.370 . S
C822 H840 0.948 . S
Zn823 N817 2.021 . S
Zn823 O832 2.041 . S
Zn823 O838 2.055 . S
Zn823 O842 2.024 1_565 S
Zn823 O844 2.003 1_565 S
C824 O843 1.246 . S
C824 O844 1.249 . S
N825 C826 1.307 . S
N825 C827 1.333 1_565 S
N825 Zn831 2.020 . S
C826 N825 1.307 . S
C826 C830 1.370 . S
C826 H837 0.948 . S
C827 N825 1.333 1_545 S
C827 C828 1.379 . S
C827 H835 0.952 . S
C828 C827 1.379 . S
C828 C829 1.390 . S
C828 H848 0.949 . S
C829 C828 1.390 . S
C829 C830 1.357 1_545 S
C830 C826 1.370 . S
C830 C829 1.357 1_565 S
C830 H849 0.950 . S
Zn831 N825 2.020 . S
Zn831 O834 2.025 . S
Zn831 O839 2.024 . S
Zn831 O841 2.039 1_565 S
Zn831 O843 2.034 1_565 S
O832 C816 1.251 . S
O832 Zn823 2.041 . S
C833 O838 1.246 . S
C833 O839 1.249 . S
O834 C816 1.254 . S
O834 Zn831 2.025 . S
H835 C827 0.952 . S
H836 C818 0.952 . S
H837 C826 0.948 . S
O838 Zn823 2.055 . S
O838 C833 1.246 . S
O839 Zn831 2.024 . S
O839 C833 1.249 . S
H840 C822 0.948 . S
O841 Zn831 2.039 1_545 S
O841 C845 1.251 . S
O842 Zn823 2.024 1_545 S
O842 C845 1.254 . S
O843 C824 1.246 . S
O843 Zn831 2.034 1_545 S
O844 Zn823 2.003 1_545 S
O844 C824 1.249 . S
C845 O841 1.251 . S
C845 O842 1.254 . S
H846 C819 0.949 . S
H847 C821 0.950 . S
H848 C828 0.949 . S
H849 C830 0.950 . S
C850 O866 1.251 . S
C850 O868 1.254 . S
N851 C852 1.333 . S
N851 C856 1.307 . S
N851 Zn857 2.020 . S
C852 N851 1.333 . S
C852 C853 1.379 . S
C852 H870 0.952 . S
C853 C852 1.379 . S
C853 C854 1.390 . S
C853 H880 0.949 . S
C854 C853 1.390 . S
C854 C855 1.357 . S
C855 C854 1.357 . S
C855 C856 1.370 . S
C855 H881 0.950 . S
C856 N851 1.307 . S
C856 C855 1.370 . S
C856 H874 0.948 . S
Zn857 N851 2.020 . S
Zn857 O866 2.039 . S
Zn857 O872 2.034 . S
Zn857 O876 2.025 1_655 S
Zn857 O878 2.024 . S
C858 O877 1.246 . S
C858 O878 1.249 . S
N859 C860 1.307 . S
N859 C861 1.333 . S
N859 Zn865 2.020 . S
C860 N859 1.307 . S
C860 C864 1.370 . S
C860 H871 0.948 . S
C861 N859 1.333 . S
C861 C862 1.379 . S
C861 H869 0.952 . S
C862 C861 1.379 . S
C862 C863 1.390 . S
C862 H882 0.949 1_655 S
C863 C862 1.390 . S
C863 C864 1.357 . S
C864 C860 1.370 . S
C864 C863 1.357 . S
C864 H883 0.950 . S
Zn865 N859 2.020 . S
Zn865 O868 2.025 . S
Zn865 O873 2.024 . S
Zn865 O875 2.039 1_655 S
Zn865 O877 2.034 . S
O866 C850 1.251 . S
O866 Zn857 2.039 . S
C867 O872 1.246 . S
C867 O873 1.249 . S
O868 C850 1.254 . S
O868 Zn865 2.025 . S
H869 C861 0.952 . S
H870 C852 0.952 . S
H871 C860 0.948 . S
O872 Zn857 2.034 . S
O872 C867 1.246 . S
O873 Zn865 2.024 . S
O873 C867 1.249 . S
H874 C856 0.948 . S
O875 Zn865 2.039 1_455 S
O875 C879 1.251 . S
O876 Zn857 2.025 1_455 S
O876 C879 1.254 . S
O877 C858 1.246 . S
O877 Zn865 2.034 . S
O878 Zn857 2.024 . S
O878 C858 1.249 . S
C879 O875 1.251 . S
C879 O876 1.254 . S
H880 C853 0.949 . S
H881 C855 0.950 . S
H882 C862 0.949 1_455 S
H883 C864 0.950 . S
C884 O900 1.251 . S
C884 O902 1.254 . S
N885 C886 1.333 . S
N885 C890 1.307 . S
N885 Zn891 2.020 . S
C886 N885 1.333 . S
C886 C887 1.379 . S
C886 H904 0.952 . S
C887 C886 1.379 . S
C887 C888 1.390 . S
C887 H914 0.949 . S
C888 C887 1.390 . S
C888 C889 1.357 . S
C889 C888 1.357 . S
C889 C890 1.370 . S
C889 H915 0.950 . S
C890 N885 1.307 . S
C890 C889 1.370 . S
C890 H908 0.948 . S
Zn891 N885 2.020 . S
Zn891 O900 2.039 . S
Zn891 O906 2.034 . S
Zn891 O910 2.025 . S
Zn891 O912 2.024 . S
C892 O911 1.246 . S
C892 O912 1.249 . S
N893 C894 1.307 . S
N893 C895 1.333 . S
N893 Zn899 2.020 . S
C894 N893 1.307 . S
C894 C898 1.370 . S
C894 H905 0.948 . S
C895 N893 1.333 . S
C895 C896 1.379 . S
C895 H903 0.952 . S
C896 C895 1.379 . S
C896 C897 1.390 . S
C896 H916 0.949 . S
C897 C896 1.390 . S
C897 C898 1.357 . S
C898 C894 1.370 . S
C898 C897 1.357 . S
C898 H917 0.950 . S
Zn899 N893 2.020 . S
Zn899 O902 2.025 . S
Zn899 O907 2.024 . S
Zn899 O909 2.039 . S
Zn899 O911 2.034 . S
O900 C884 1.251 . S
O900 Zn891 2.039 . S
C901 O906 1.246 . S
C901 O907 1.249 . S
O902 C884 1.254 . S
O902 Zn899 2.025 . S
H903 C895 0.952 . S
H904 C886 0.952 . S
H905 C894 0.948 . S
O906 Zn891 2.034 . S
O906 C901 1.246 . S
O907 Zn899 2.024 . S
O907 C901 1.249 . S
H908 C890 0.948 . S
O909 Zn899 2.039 . S
O909 C913 1.251 . S
O910 Zn891 2.025 . S
O910 C913 1.254 . S
O911 C892 1.246 . S
O911 Zn899 2.034 . S
O912 Zn891 2.024 . S
O912 C892 1.249 . S
C913 O909 1.251 . S
C913 O910 1.254 . S
H914 C887 0.949 . S
H915 C889 0.950 . S
H916 C896 0.949 . S
H917 C898 0.950 . S
C918 O934 1.251 . S
C918 O936 1.254 . S
N919 C920 1.333 . S
N919 C924 1.307 1_565 S
N919 Zn925 2.021 . S
C920 N919 1.333 . S
C920 C921 1.379 . S
C920 H938 0.952 . S
C921 C920 1.379 . S
C921 C922 1.390 . S
C921 H948 0.949 . S
C922 C921 1.390 . S
C922 C923 1.357 1_565 S
C923 C922 1.357 1_545 S
C923 C924 1.370 . S
C923 H949 0.950 . S
C924 N919 1.307 1_545 S
C924 C923 1.370 . S
C924 H942 0.948 . S
Zn925 N919 2.021 . S
Zn925 O934 2.041 . S
Zn925 O940 2.055 . S
Zn925 O944 2.024 1_665 S
Zn925 O946 2.003 1_565 S
C926 O945 1.246 . S
C926 O946 1.249 . S
N927 C928 1.307 . S
N927 C929 1.333 1_565 S
N927 Zn933 2.020 . S
C928 N927 1.307 . S
C928 C932 1.370 . S
C928 H939 0.948 . S
C929 N927 1.333 1_545 S
C929 C930 1.379 . S
C929 H937 0.952 . S
C930 C929 1.379 . S
C930 C931 1.390 . S
C930 H950 0.949 1_655 S
C931 C930 1.390 . S
C931 C932 1.357 1_545 S
C932 C928 1.370 . S
C932 C931 1.357 1_565 S
C932 H951 0.950 . S
Zn933 N927 2.020 . S
Zn933 O936 2.025 . S
Zn933 O941 2.024 . S
Zn933 O943 2.039 1_665 S
Zn933 O945 2.034 1_565 S
O934 C918 1.251 . S
O934 Zn925 2.041 . S
C935 O940 1.246 . S
C935 O941 1.249 . S
O936 C918 1.254 . S
O936 Zn933 2.025 . S
H937 C929 0.952 . S
H938 C920 0.952 . S
H939 C928 0.948 . S
O940 Zn925 2.055 . S
O940 C935 1.246 . S
O941 Zn933 2.024 . S
O941 C935 1.249 . S
H942 C924 0.948 . S
O943 Zn933 2.039 1_445 S
O943 C947 1.251 . S
O944 Zn925 2.024 1_445 S
O944 C947 1.254 . S
O945 C926 1.246 . S
O945 Zn933 2.034 1_545 S
O946 Zn925 2.003 1_545 S
O946 C926 1.249 . S
C947 O943 1.251 . S
C947 O944 1.254 . S
H948 C921 0.949 . S
H949 C923 0.950 . S
H950 C930 0.949 1_455 S
H951 C932 0.950 . S
C952 O968 1.251 . S
C952 O970 1.254 . S
N953 C954 1.333 1_545 S
N953 C958 1.307 . S
N953 Zn959 2.020 . S
C954 N953 1.333 1_565 S
C954 C955 1.379 . S
C954 H972 0.952 . S
C955 C954 1.379 . S
C955 C956 1.390 . S
C955 H982 0.949 . S
C956 C955 1.390 . S
C956 C957 1.357 1_565 S
C957 C956 1.357 1_545 S
C957 C958 1.370 . S
C957 H983 0.950 . S
C958 N953 1.307 . S
C958 C957 1.370 . S
C958 H976 0.948 . S
Zn959 N953 2.020 . S
Zn959 O968 2.039 1_545 S
Zn959 O974 2.034 1_545 S
Zn959 O978 2.025 . S
Zn959 O980 2.024 . S
C960 O979 1.246 . S
C960 O980 1.249 . S
N961 C962 1.307 1_545 S
N961 C963 1.333 . S
N961 Zn967 2.021 . S
C962 N961 1.307 1_565 S
C962 C966 1.370 . S
C962 H973 0.948 . S
C963 N961 1.333 . S
C963 C964 1.379 . S
C963 H971 0.952 . S
C964 C963 1.379 . S
C964 C965 1.390 . S
C964 H984 0.949 . S
C965 C964 1.390 . S
C965 C966 1.357 1_545 S
C966 C962 1.370 . S
C966 C965 1.357 1_565 S
C966 H985 0.950 . S
Zn967 N961 2.021 . S
Zn967 O970 2.024 1_545 S
Zn967 O975 2.003 1_545 S
Zn967 O977 2.041 . S
Zn967 O979 2.055 . S
O968 C952 1.251 . S
O968 Zn959 2.039 1_565 S
C969 O974 1.246 . S
C969 O975 1.249 . S
O970 C952 1.254 . S
O970 Zn967 2.024 1_565 S
H971 C963 0.952 . S
H972 C954 0.952 . S
H973 C962 0.948 . S
O974 Zn959 2.034 1_565 S
O974 C969 1.246 . S
O975 Zn967 2.003 1_565 S
O975 C969 1.249 . S
H976 C958 0.948 . S
O977 Zn967 2.041 . S
O977 C981 1.251 . S
O978 Zn959 2.025 . S
O978 C981 1.254 . S
O979 C960 1.246 . S
O979 Zn967 2.055 . S
O980 Zn959 2.024 . S
O980 C960 1.249 . S
C981 O977 1.251 . S
C981 O978 1.254 . S
H982 C955 0.949 . S
H983 C957 0.950 . S
H984 C964 0.949 . S
H985 C966 0.950 . S
C986 O1002 1.251 . S
C986 O1004 1.254 . S
N987 C988 1.333 . S
N987 C992 1.307 . S
N987 Zn993 2.020 . S
C988 N987 1.333 . S
C988 C989 1.379 . S
C988 H1006 0.952 . S
C989 C988 1.379 . S
C989 C990 1.390 . S
C989 H1016 0.949 1_455 S
C990 C989 1.390 . S
C990 C991 1.357 . S
C991 C990 1.357 . S
C991 C992 1.370 . S
C991 H1017 0.950 . S
C992 N987 1.307 . S
C992 C991 1.370 . S
C992 H1010 0.948 . S
Zn993 N987 2.020 . S
Zn993 O1002 2.039 1_455 S
Zn993 O1008 2.034 . S
Zn993 O1012 2.025 . S
Zn993 O1014 2.024 . S
C994 O1013 1.246 . S
C994 O1014 1.249 . S
N995 C996 1.307 . S
N995 C997 1.333 . S
N995 Zn1001 2.020 . S
C996 N995 1.307 . S
C996 C1000 1.370 . S
C996 H1007 0.948 . S
C997 N995 1.333 . S
C997 C998 1.379 . S
C997 H1005 0.952 . S
C998 C997 1.379 . S
C998 C999 1.390 . S
C998 H1018 0.949 . S
C999 C998 1.390 . S
C999 C1000 1.357 . S
C1000 C996 1.370 . S
C1000 C999 1.357 . S
C1000 H1019 0.950 . S
Zn1001 N995 2.020 . S
Zn1001 O1004 2.025 1_455 S
Zn1001 O1009 2.024 . S
Zn1001 O1011 2.039 . S
Zn1001 O1013 2.034 . S
O1002 C986 1.251 . S
O1002 Zn993 2.039 1_655 S
C1003 O1008 1.246 . S
C1003 O1009 1.249 . S
O1004 C986 1.254 . S
O1004 Zn1001 2.025 1_655 S
H1005 C997 0.952 . S
H1006 C988 0.952 . S
H1007 C996 0.948 . S
O1008 Zn993 2.034 . S
O1008 C1003 1.246 . S
O1009 Zn1001 2.024 . S
O1009 C1003 1.249 . S
H1010 C992 0.948 . S
O1011 Zn1001 2.039 . S
O1011 C1015 1.251 . S
O1012 Zn993 2.025 . S
O1012 C1015 1.254 . S
O1013 C994 1.246 . S
O1013 Zn1001 2.034 . S
O1014 Zn993 2.024 . S
O1014 C994 1.249 . S
C1015 O1011 1.251 . S
C1015 O1012 1.254 . S
H1016 C989 0.949 1_655 S
H1017 C991 0.950 . S
H1018 C998 0.949 . S
H1019 C1000 0.950 . S
C1020 O1036 1.251 . S
C1020 O1038 1.254 . S
N1021 C1022 1.333 . S
N1021 C1026 1.307 . S
N1021 Zn1027 2.020 . S
C1022 N1021 1.333 . S
C1022 C1023 1.379 . S
C1022 H1040 0.952 . S
C1023 C1022 1.379 . S
C1023 C1024 1.390 . S
C1023 H1050 0.949 . S
C1024 C1023 1.390 . S
C1024 C1025 1.357 . S
C1025 C1024 1.357 . S
C1025 C1026 1.370 . S
C1025 H1051 0.950 . S
C1026 N1021 1.307 . S
C1026 C1025 1.370 . S
C1026 H1044 0.948 . S
Zn1027 N1021 2.020 . S
Zn1027 O1036 2.039 . S
Zn1027 O1042 2.034 . S
Zn1027 O1046 2.025 . S
Zn1027 O1048 2.024 . S
C1028 O1047 1.246 . S
C1028 O1048 1.249 . S
N1029 C1030 1.307 . S
N1029 C1031 1.333 . S
N1029 Zn1035 2.020 . S
C1030 N1029 1.307 . S
C1030 C1034 1.370 . S
C1030 H1041 0.948 . S
C1031 N1029 1.333 . S
C1031 C1032 1.379 . S
C1031 H1039 0.952 . S
C1032 C1031 1.379 . S
C1032 C1033 1.390 . S
C1032 H1052 0.949 . S
C1033 C1032 1.390 . S
C1033 C1034 1.357 . S
C1034 C1030 1.370 . S
C1034 C1033 1.357 . S
C1034 H1053 0.950 . S
Zn1035 N1029 2.020 . S
Zn1035 O1038 2.025 . S
Zn1035 O1043 2.024 . S
Zn1035 O1045 2.039 . S
Zn1035 O1047 2.034 . S
O1036 C1020 1.251 . S
O1036 Zn1027 2.039 . S
C1037 O1042 1.246 . S
C1037 O1043 1.249 . S
O1038 C1020 1.254 . S
O1038 Zn1035 2.025 . S
H1039 C1031 0.952 . S
H1040 C1022 0.952 . S
H1041 C1030 0.948 . S
O1042 Zn1027 2.034 . S
O1042 C1037 1.246 . S
O1043 Zn1035 2.024 . S
O1043 C1037 1.249 . S
H1044 C1026 0.948 . S
O1045 Zn1035 2.039 . S
O1045 C1049 1.251 . S
O1046 Zn1027 2.025 . S
O1046 C1049 1.254 . S
O1047 C1028 1.246 . S
O1047 Zn1035 2.034 . S
O1048 Zn1027 2.024 . S
O1048 C1028 1.249 . S
C1049 O1045 1.251 . S
C1049 O1046 1.254 . S
H1050 C1023 0.949 . S
H1051 C1025 0.950 . S
H1052 C1032 0.949 . S
H1053 C1034 0.950 . S
C1054 O1070 1.251 . S
C1054 O1072 1.254 . S
N1055 C1056 1.333 1_545 S
N1055 C1060 1.307 . S
N1055 Zn1061 2.020 . S
C1056 N1055 1.333 1_565 S
C1056 C1057 1.379 . S
C1056 H1074 0.952 . S
C1057 C1056 1.379 . S
C1057 C1058 1.390 . S
C1057 H1084 0.949 1_455 S
C1058 C1057 1.390 . S
C1058 C1059 1.357 1_565 S
C1059 C1058 1.357 1_545 S
C1059 C1060 1.370 . S
C1059 H1085 0.950 . S
C1060 N1055 1.307 . S
C1060 C1059 1.370 . S
C1060 H1078 0.948 . S
Zn1061 N1055 2.020 . S
Zn1061 O1070 2.039 1_445 S
Zn1061 O1076 2.034 1_545 S
Zn1061 O1080 2.025 . S
Zn1061 O1082 2.024 . S
C1062 O1081 1.246 . S
C1062 O1082 1.249 . S
N1063 C1064 1.307 1_545 S
N1063 C1065 1.333 . S
N1063 Zn1069 2.021 . S
C1064 N1063 1.307 1_565 S
C1064 C1068 1.370 . S
C1064 H1075 0.948 . S
C1065 N1063 1.333 . S
C1065 C1066 1.379 . S
C1065 H1073 0.952 . S
C1066 C1065 1.379 . S
C1066 C1067 1.390 . S
C1066 H1086 0.949 . S
C1067 C1066 1.390 . S
C1067 C1068 1.357 1_545 S
C1068 C1064 1.370 . S
C1068 C1067 1.357 1_565 S
C1068 H1087 0.950 . S
Zn1069 N1063 2.021 . S
Zn1069 O1072 2.024 1_445 S
Zn1069 O1077 2.003 1_545 S
Zn1069 O1079 2.041 . S
Zn1069 O1081 2.055 . S
O1070 C1054 1.251 . S
O1070 Zn1061 2.039 1_665 S
C1071 O1076 1.246 . S
C1071 O1077 1.249 . S
O1072 C1054 1.254 . S
O1072 Zn1069 2.024 1_665 S
H1073 C1065 0.952 . S
H1074 C1056 0.952 . S
H1075 C1064 0.948 . S
O1076 Zn1061 2.034 1_565 S
O1076 C1071 1.246 . S
O1077 Zn1069 2.003 1_565 S
O1077 C1071 1.249 . S
H1078 C1060 0.948 . S
O1079 Zn1069 2.041 . S
O1079 C1083 1.251 . S
O1080 Zn1061 2.025 . S
O1080 C1083 1.254 . S
O1081 C1062 1.246 . S
O1081 Zn1069 2.055 . S
O1082 Zn1061 2.024 . S
O1082 C1062 1.249 . S
C1083 O1079 1.251 . S
C1083 O1080 1.254 . S
H1084 C1057 0.949 1_655 S
H1085 C1059 0.950 . S
H1086 C1066 0.949 . S
H1087 C1068 0.950 . S
C17 C867 1.780 . S
C833 C51 1.781 . S
C935 C85 1.779 . S
C119 C901 1.781 . S
C144 C994 1.780 . S
C178 C960 1.781 . S
C212 C1062 1.779 . S
C1028 C246 1.781 . S
C289 C595 1.780 . S
C323 C561 1.782 . S
C357 C663 1.780 . S
C629 C391 1.780 . S
C416 C722 1.780 . S
C450 C688 1.782 . S
C790 C484 1.780 . S
C518 C756 1.780 . S
C4 C106 1.576 . S
C38 C72 1.576 . S
C251 C149 1.576 . S
C217 C183 1.576 . S
C276 C378 1.576 . S
C310 C344 1.576 . S
C421 C523 1.576 . S
C489 C455 1.576 . S
C548 C650 1.576 . S
C582 C616 1.575 . S
C795 C693 1.576 . S
C727 C761 1.576 . S
C922 C820 1.576 . S
C854 C888 1.576 . S
C1067 C965 1.576 . S
C1033 C999 1.575 . S
C42 C8 1.573 . S
C76 C110 1.573 . S
C187 C153 1.573 . S
C255 C221 1.573 . S
C280 C314 1.573 . S
C348 C382 1.574 . S
C459 C425 1.573 . S
C493 C527 1.574 . S
C552 C586 1.572 . S
C654 C620 1.573 . S
C697 C731 1.572 . S
C765 C799 1.573 . S
C824 C858 1.574 . S
C892 C926 1.574 . S
C1003 C969 1.574 . S
C1037 C1071 1.574 . S
C29 C0 1.392 . S
C63 C34 1.392 . S
C97 C68 1.392 . S
C102 C131 1.392 . S
C165 C136 1.392 . S
C170 C199 1.392 . S
C233 C204 1.392 . S
C267 C238 1.392 . S
C272 C301 1.392 1_565 S
C335 C306 1.392 . S
C369 C340 1.392 . S
C374 C403 1.392 1_565 S
C437 C408 1.392 1_545 S
C442 C471 1.392 . S
C476 C505 1.392 . S
C539 C510 1.392 1_545 S
C573 C544 1.392 1_455 S
C578 C607 1.392 . S
C612 C641 1.392 1_655 S
C675 C646 1.392 . S
C680 C709 1.392 1_655 S
C714 C743 1.392 . S
C777 C748 1.392 1_455 S
C782 C811 1.392 . S
C816 C845 1.392 1_665 S
C879 C850 1.392 . S
C884 C913 1.392 1_655 S
C918 C947 1.392 1_565 S
C952 C981 1.392 1_665 S
C986 C1015 1.392 . S
C1049 C1020 1.392 1_455 S
C1083 C1054 1.392 1_545 S
C13 C140 1.512 1_654 S
C990 C47 1.513 1_556 S
C480 C81 1.512 1_455 S
C115 C786 1.512 . S
C174 C863 1.512 1_556 S
C208 C353 1.511 1_455 S
C242 C659 1.512 . S
C285 C412 1.512 1_645 S
C718 C319 1.512 . S
C1058 C387 1.513 1_565 S
C446 C591 1.512 . S
C931 C514 1.513 1_545 S
C557 C684 1.511 . S
C1024 C625 1.511 . S
C752 C897 1.512 . S
C829 C956 1.512 1_544 S
