# Generated by pormake.
# Topology acs-a, (4)-cn, num edge types: 1
# Building blocks:
#     Node 0, Type 0, BuildingBlock: GALJAG_clean_sbu_0, # of connection points: 4
#     Node 1, Type 0, BuildingBlock: GALJAG_clean_sbu_0, # of connection points: 4
#     Node 2, Type 0, BuildingBlock: GALJAG_clean_sbu_0, # of connection points: 4
#     Node 3, Type 0, BuildingBlock: GALJAG_clean_sbu_0, # of connection points: 4
#     Node 4, Type 0, BuildingBlock: GALJAG_clean_sbu_0, # of connection points: 4
#     Node 5, Type 0, BuildingBlock: GALJAG_clean_sbu_0, # of connection points: 4
#     Node 6, Type 0, BuildingBlock: GALJAG_clean_sbu_0, # of connection points: 4
#     Node 7, Type 0, BuildingBlock: GALJAG_clean_sbu_0, # of connection points: 4
#     Node 8, Type 0, BuildingBlock: GALJAG_clean_sbu_0, # of connection points: 4
#     Node 9, Type 0, BuildingBlock: GALJAG_clean_sbu_0, # of connection points: 4
#     Node 10, Type 0, BuildingBlock: GALJAG_clean_sbu_0, # of connection points: 4
#     Node 11, Type 0, BuildingBlock: GALJAG_clean_sbu_0, # of connection points: 4
#     Edge 12, Type (0, 0), BuildingBlock: AJUNOK_clean_linker_0, # of connection points: 2
#     Edge 13, Type (0, 0), BuildingBlock: AJUNOK_clean_linker_0, # of connection points: 2
#     Edge 14, Type (0, 0), BuildingBlock: AJUNOK_clean_linker_0, # of connection points: 2
#     Edge 15, Type (0, 0), BuildingBlock: AJUNOK_clean_linker_0, # of connection points: 2
#     Edge 16, Type (0, 0), BuildingBlock: AJUNOK_clean_linker_0, # of connection points: 2
#     Edge 17, Type (0, 0), BuildingBlock: AJUNOK_clean_linker_0, # of connection points: 2
#     Edge 18, Type (0, 0), BuildingBlock: AJUNOK_clean_linker_0, # of connection points: 2
#     Edge 19, Type (0, 0), BuildingBlock: AJUNOK_clean_linker_0, # of connection points: 2
#     Edge 20, Type (0, 0), BuildingBlock: AJUNOK_clean_linker_0, # of connection points: 2
#     Edge 21, Type (0, 0), BuildingBlock: AJUNOK_clean_linker_0, # of connection points: 2
#     Edge 22, Type (0, 0), BuildingBlock: AJUNOK_clean_linker_0, # of connection points: 2
#     Edge 23, Type (0, 0), BuildingBlock: AJUNOK_clean_linker_0, # of connection points: 2
#     Edge 24, Type (0, 0), BuildingBlock: AJUNOK_clean_linker_0, # of connection points: 2
#     Edge 25, Type (0, 0), BuildingBlock: AJUNOK_clean_linker_0, # of connection points: 2
#     Edge 26, Type (0, 0), BuildingBlock: AJUNOK_clean_linker_0, # of connection points: 2
#     Edge 27, Type (0, 0), BuildingBlock: AJUNOK_clean_linker_0, # of connection points: 2
#     Edge 28, Type (0, 0), BuildingBlock: AJUNOK_clean_linker_0, # of connection points: 2
#     Edge 29, Type (0, 0), BuildingBlock: AJUNOK_clean_linker_0, # of connection points: 2
#     Edge 30, Type (0, 0), BuildingBlock: AJUNOK_clean_linker_0, # of connection points: 2
#     Edge 31, Type (0, 0), BuildingBlock: AJUNOK_clean_linker_0, # of connection points: 2
#     Edge 32, Type (0, 0), BuildingBlock: AJUNOK_clean_linker_0, # of connection points: 2
#     Edge 33, Type (0, 0), BuildingBlock: AJUNOK_clean_linker_0, # of connection points: 2
#     Edge 34, Type (0, 0), BuildingBlock: AJUNOK_clean_linker_0, # of connection points: 2
#     Edge 35, Type (0, 0), BuildingBlock: AJUNOK_clean_linker_0, # of connection points: 2
# Relax obj value: 0.468
# Max RMSD: 0.205
# Mean RMSD: 0.201
data_MOF--net-acs-a--node1-GALJAG_clean_sbu_0--edge1-AJUNOK_clean_linker_0
_symmetry_space_group_name_H-M    P1
_symmetry_Int_Tables_number       1
_symmetry_cell_setting            triclinic
loop_
_symmetry_equiv_pos_as_xyz
'x, y, z'
_cell_length_a     38.871776
_cell_length_b     39.133939
_cell_length_c     21.881571
_cell_angle_alpha  89.988262
_cell_angle_beta   89.965562
_cell_angle_gamma 120.47534
loop_
_atom_site_label
_atom_site_type_symbol
_atom_site_fract_x
_atom_site_fract_y
_atom_site_fract_z
_atom_type_partial_charge
In0 In 0.58739 0.15146 0.01528 0.0
O1 O 0.61795 0.17731 0.10698 0.0
O2 O 0.5568 0.15924 0.09847 0.0
C3 C 0.65908 0.18645 0.95987 0.0
C4 C 0.55428 0.07238 0.00947 0.0
C5 C 0.54864 0.18585 0.96817 0.0
O6 O 0.65432 0.17856 0.01618 0.0
O7 O 0.62708 0.17469 0.93041 0.0
O8 O 0.58618 0.20206 0.9671 0.0
O9 O 0.53049 0.15176 0.99194 0.0
C10 C 0.58713 0.17369 0.13226 0.0
O11 O 0.54928 0.09204 0.96853 0.0
O12 O 0.57784 0.09283 0.05134 0.0
In13 In 0.41409 0.57582 0.49222 0.0
O14 O 0.40443 0.60091 0.58112 0.0
O15 O 0.39129 0.54121 0.57998 0.0
C16 C 0.45677 0.65142 0.45523 0.0
C17 C 0.45847 0.54132 0.48189 0.0
C18 C 0.34091 0.54603 0.44147 0.0
O19 O 0.45379 0.64111 0.51061 0.0
O20 O 0.43942 0.62311 0.41773 0.0
O21 O 0.34748 0.53125 0.48791 0.0
O22 O 0.3718 0.5746 0.41834 0.0
C23 C 0.3923 0.569 0.61043 0.0
O24 O 0.42652 0.52936 0.45241 0.0
O25 O 0.46957 0.57263 0.51171 0.0
In26 In 0.81917 0.41031 0.99162 0.0
O27 O 0.87972 0.42985 0.94882 0.0
O28 O 0.87314 0.47216 0.99967 0.0
C29 C 0.79049 0.33707 0.94458 0.0
C30 C 0.80936 0.39275 0.11151 0.0
C31 C 0.77115 0.43871 0.96206 0.0
O32 O 0.78895 0.36417 0.9156 0.0
O33 O 0.80771 0.34767 0.99557 0.0
O34 O 0.78758 0.44387 0.01356 0.0
O35 O 0.78068 0.42077 0.92379 0.0
C36 C 0.89638 0.46408 0.97179 0.0
O37 O 0.78112 0.38887 0.07816 0.0
O38 O 0.84202 0.40476 0.08399 0.0
In39 In 0.42233 0.83123 0.49663 0.0
O40 O 0.47592 0.89267 0.48174 0.0
O41 O 0.4184 0.88554 0.47182 0.0
C42 C 0.46189 0.79599 0.45428 0.0
C43 C 0.42035 0.82343 0.61926 0.0
C44 C 0.34597 0.78982 0.45904 0.0
O45 O 0.44155 0.80471 0.41959 0.0
O46 O 0.46363 0.80693 0.50885 0.0
O47 O 0.35618 0.80579 0.511 0.0
O48 O 0.37461 0.79539 0.42503 0.0
C49 C 0.45551 0.90903 0.4739 0.0
O50 O 0.40201 0.79392 0.58424 0.0
O51 O 0.43924 0.85635 0.59223 0.0
In52 In 0.54119 0.38136 0.0145 0.0
O53 O 0.51365 0.37941 0.10649 0.0
O54 O 0.56513 0.37365 0.10566 0.0
C55 C 0.51252 0.30713 0.97217 0.0
C56 C 0.50292 0.42062 0.98927 0.0
C57 C 0.61769 0.42155 0.97663 0.0
O58 O 0.50955 0.31473 0.02715 0.0
O59 O 0.52803 0.33698 0.93749 0.0
O60 O 0.6072 0.42413 0.03022 0.0
O61 O 0.58923 0.39991 0.94128 0.0
C62 C 0.53872 0.37524 0.13714 0.0
O63 O 0.5399 0.43786 0.99915 0.0
O64 O 0.48568 0.38333 0.98763 0.0
In65 In 0.15125 0.57422 0.48959 0.0
O66 O 0.09274 0.56586 0.45304 0.0
O67 O 0.09271 0.5155 0.48843 0.0
C68 C 0.19544 0.65055 0.45408 0.0
C69 C 0.1548 0.5835 0.61167 0.0
C70 C 0.19412 0.54313 0.44587 0.0
O71 O 0.18312 0.62242 0.41629 0.0
O72 O 0.1843 0.63999 0.50822 0.0
O73 O 0.18024 0.53667 0.49952 0.0
O74 O 0.18433 0.56341 0.41323 0.0
C75 C 0.07248 0.52986 0.46797 0.0
O76 O 0.1774 0.57434 0.58347 0.0
O77 O 0.13086 0.58771 0.57811 0.0
In78 In 0.82192 0.40145 0.49562 0.0
O79 O 0.8797 0.46048 0.49207 0.0
O80 O 0.88277 0.41069 0.52233 0.0
C81 C 0.7832 0.43866 0.53199 0.0
C82 C 0.80962 0.38647 0.37524 0.0
C83 C 0.78028 0.32934 0.54768 0.0
O84 O 0.79302 0.42029 0.56895 0.0
O85 O 0.79501 0.43998 0.47788 0.0
O86 O 0.79058 0.3344 0.49234 0.0
O87 O 0.79324 0.3609 0.57802 0.0
C88 C 0.90153 0.44681 0.5075 0.0
O89 O 0.83971 0.38987 0.40273 0.0
O90 O 0.78505 0.38964 0.40899 0.0
In91 In 0.42093 0.8244 0.00726 0.0
O92 O 0.42352 0.88271 0.01753 0.0
O93 O 0.47592 0.88152 0.04021 0.0
C94 C 0.3446 0.7925 0.04317 0.0
C95 C 0.42164 0.81914 0.88454 0.0
C96 C 0.45052 0.77924 0.04736 0.0
O97 O 0.37192 0.79837 0.08031 0.0
O98 O 0.35617 0.80306 0.98899 0.0
O99 O 0.45949 0.79669 0.99649 0.0
O100 O 0.42785 0.7861 0.07974 0.0
C101 C 0.4597 0.90209 0.03234 0.0
O102 O 0.39821 0.78997 0.91748 0.0
O103 O 0.44479 0.85024 0.91377 0.0
In104 In 0.55576 0.39637 0.52289 0.0
O105 O 0.50528 0.40674 0.5477 0.0
O106 O 0.56268 0.45737 0.53524 0.0
C107 C 0.51637 0.32395 0.57546 0.0
C108 C 0.54643 0.38295 0.40171 0.0
C109 C 0.63462 0.43187 0.54558 0.0
O110 O 0.54084 0.35435 0.6051 0.0
O111 O 0.51178 0.33056 0.52068 0.0
O112 O 0.62039 0.43284 0.49431 0.0
O113 O 0.60884 0.41347 0.58664 0.0
C114 C 0.5259 0.44386 0.54277 0.0
O115 O 0.5686 0.37473 0.43301 0.0
O116 O 0.52939 0.39762 0.43169 0.0
In117 In 0.14577 0.59036 0.99815 0.0
O118 O 0.08644 0.53326 0.00405 0.0
O119 O 0.08697 0.58656 0.02323 0.0
C120 C 0.18296 0.55414 0.04559 0.0
C121 C 0.15476 0.59646 0.8758 0.0
C122 C 0.18934 0.66531 0.03788 0.0
O123 O 0.1634 0.54332 0.9964 0.0
O124 O 0.18209 0.58216 0.07259 0.0
O125 O 0.18335 0.65603 0.98213 0.0
O126 O 0.17177 0.63656 0.07456 0.0
C127 C 0.06645 0.54968 0.01496 0.0
O128 O 0.12881 0.60065 0.90389 0.0
O129 O 0.17718 0.59013 0.90976 0.0
In130 In 0.55073 0.15483 0.51203 0.0
O131 O 0.54185 0.17821 0.42095 0.0
O132 O 0.58781 0.16444 0.42626 0.0
C133 C 0.50723 0.17991 0.5726 0.0
C134 C 0.51319 0.07531 0.51404 0.0
C135 C 0.6246 0.19936 0.55721 0.0
O136 O 0.50297 0.17138 0.51654 0.0
O137 O 0.53171 0.17293 0.59964 0.0
O138 O 0.61074 0.1636 0.54214 0.0
O139 O 0.60097 0.21228 0.55025 0.0
C140 C 0.56928 0.17623 0.39352 0.0
O141 O 0.53922 0.09645 0.55297 0.0
O142 O 0.50403 0.09413 0.4774 0.0
In143 In 0.38669 0.55341 0.99437 0.0
O144 O 0.44147 0.54716 0.99853 0.0
O145 O 0.38565 0.49597 0.01725 0.0
C146 C 0.43146 0.62743 0.03799 0.0
C147 C 0.377 0.55637 0.87305 0.0
C148 C 0.31393 0.53004 0.0408 0.0
O149 O 0.40647 0.59912 0.07084 0.0
O150 O 0.43483 0.61778 0.98425 0.0
O151 O 0.31984 0.52642 0.98523 0.0
O152 O 0.34455 0.54362 0.07409 0.0
C153 C 0.42259 0.51057 0.00942 0.0
O154 O 0.38737 0.58596 0.90731 0.0
O155 O 0.37106 0.52544 0.90029 0.0
C156 C 0.60986 0.1831 0.30123 0.0
C157 C 0.57644 0.18259 0.32704 0.0
C158 C 0.61435 0.18268 0.23781 0.0
C159 C 0.58533 0.18124 0.19794 0.0
H160 H 0.63206 0.18234 0.33022 0.0
H161 H 0.63971 0.18139 0.22012 0.0
S162 S 0.49498 0.18476 0.24197 0.0
N163 N 0.51594 0.1848 0.30761 0.0
N164 N 0.52418 0.18351 0.18828 0.0
C165 C 0.55305 0.18322 0.22295 0.0
C166 C 0.54867 0.18407 0.28758 0.0
C167 C 0.39606 0.59885 0.7129 0.0
C168 C 0.38287 0.56494 0.6763 0.0
C169 C 0.39234 0.59573 0.77667 0.0
C170 C 0.37529 0.5586 0.80586 0.0
H171 H 0.41091 0.62811 0.69245 0.0
H172 H 0.40445 0.62273 0.80332 0.0
S173 S 0.33033 0.46047 0.72978 0.0
N174 N 0.34789 0.49284 0.67323 0.0
N175 N 0.34095 0.48701 0.79291 0.0
C176 C 0.35965 0.52435 0.76946 0.0
C177 C 0.36343 0.52752 0.70468 0.0
C178 C 0.83693 0.38576 0.20995 0.0
C179 C 0.80572 0.3861 0.17812 0.0
C180 C 0.83688 0.38401 0.27369 0.0
C181 C 0.80575 0.3828 0.30813 0.0
H182 H 0.86221 0.38788 0.18557 0.0
H183 H 0.86222 0.38499 0.29608 0.0
S184 S 0.71532 0.37987 0.24652 0.0
N185 N 0.74148 0.38249 0.18538 0.0
N186 N 0.74148 0.37944 0.30564 0.0
C187 C 0.77339 0.38132 0.27686 0.0
C188 C 0.77335 0.3829 0.21169 0.0
C189 C 0.4444 0.85387 0.78477 0.0
C190 C 0.42125 0.81824 0.81698 0.0
C191 C 0.44386 0.85495 0.72102 0.0
C192 C 0.42029 0.82043 0.68664 0.0
H193 H 0.46285 0.88144 0.80894 0.0
H194 H 0.46206 0.88328 0.69861 0.0
S195 S 0.35507 0.71916 0.74868 0.0
N196 N 0.37458 0.74726 0.80979 0.0
N197 N 0.37375 0.74925 0.68939 0.0
C198 C 0.39734 0.78438 0.71805 0.0
C199 C 0.39776 0.7833 0.78335 0.0
C200 C 0.56891 0.37139 0.30072 0.0
C201 C 0.54195 0.3777 0.33481 0.0
C202 C 0.56715 0.36978 0.23672 0.0
C203 C 0.53821 0.37413 0.20468 0.0
H204 H 0.59223 0.36879 0.32345 0.0
H205 H 0.58911 0.36581 0.21222 0.0
S206 S 0.45865 0.38797 0.27321 0.0
N207 N 0.48401 0.38599 0.33218 0.0
N208 N 0.48055 0.38275 0.21222 0.0
C209 C 0.51018 0.379 0.23846 0.0
C210 C 0.5121 0.38084 0.30346 0.0
C211 C 0.18039 0.58027 0.71517 0.0
C212 C 0.15624 0.5892 0.6786 0.0
C213 C 0.18071 0.58383 0.77896 0.0
C214 C 0.15684 0.59643 0.80837 0.0
H215 H 0.19868 0.56976 0.69453 0.0
H216 H 0.19904 0.57575 0.80541 0.0
S217 S 0.0908 0.6266 0.73301 0.0
N218 N 0.10965 0.61348 0.67629 0.0
N219 N 0.11026 0.62014 0.79584 0.0
C220 C 0.13357 0.60667 0.77217 0.0
C221 C 0.13322 0.60306 0.70737 0.0
C222 C 0.54379 0.00815 0.04925 0.0
C223 C 0.53066 0.02893 0.01285 0.0
C224 C 0.52035 0.96699 0.05651 0.0
C225 C 0.48264 0.9456 0.02887 0.0
H226 H 0.57245 0.02376 0.07208 0.0
H227 H 0.53177 0.95187 0.08392 0.0
S228 S 0.43447 0.98647 0.92974 0.0
N229 N 0.47773 0.02528 0.94897 0.0
N230 N 0.43323 0.94818 0.96355 0.0
C231 C 0.46903 0.96618 0.99286 0.0
C232 C 0.49321 0.00783 0.98448 0.0
C233 C 0.51297 0.53267 0.52459 0.0
C234 C 0.47696 0.51691 0.49165 0.0
C235 C 0.52832 0.50867 0.54248 0.0
C236 C 0.50767 0.46797 0.52933 0.0
H237 H 0.52919 0.56369 0.53739 0.0
H238 H 0.55637 0.52196 0.56707 0.0
S239 S 0.41388 0.41271 0.4402 0.0
N240 N 0.42241 0.4585 0.44344 0.0
N241 N 0.45086 0.41328 0.47809 0.0
C242 C 0.47205 0.45195 0.49551 0.0
C243 C 0.45685 0.47649 0.47624 0.0
C244 C 0.00422 0.49163 0.97673 0.0
C245 C 0.02289 0.52857 0.00648 0.0
C246 C 0.96367 0.47216 0.9624 0.0
C247 C 0.94006 0.48863 0.9779 0.0
H248 H 0.02112 0.4777 0.96363 0.0
H249 H 0.95058 0.44341 0.94052 0.0
S250 S 0.97472 0.58515 0.05523 0.0
N251 N 0.01508 0.58146 0.04982 0.0
N252 N 0.93835 0.54445 0.02376 0.0
C253 C 0.95838 0.52582 0.00708 0.0
C254 C -0.0001 0.54584 0.02129 0.0
C255 C 0.46336 0.0092 0.47262 0.0
C256 C 0.49859 0.03282 0.50585 0.0
C257 C 0.45029 0.96935 0.46042 0.0
C258 C 0.47252 0.9521 0.4798 0.0
H259 H 0.44559 0.02149 0.45629 0.0
H260 H 0.42241 0.95186 0.43613 0.0
S261 S 0.56768 0.00181 0.56659 0.0
N262 N 0.55589 0.03647 0.55702 0.0
N263 N 0.53176 0.96176 0.53313 0.0
C264 C 0.50825 0.97565 0.51201 0.0
C265 C 0.52112 0.01597 0.52546 0.0
C266 C 0.48359 0.50565 0.99979 0.0
C267 C 0.44187 0.4865 0.00572 0.0
C268 C 0.50286 0.48401 0.99209 0.0
C269 C 0.48114 0.44238 0.9897 0.0
H270 H 0.50165 0.5377 1.00114 0.0
H271 H 0.53513 0.50014 0.98883 0.0
S272 S 0.37108 0.37793 1.00099 0.0
N273 N 0.3792 0.42348 0.00728 0.0
N274 N 0.41551 0.38267 0.99272 0.0
C275 C 0.43931 0.42277 0.99462 0.0
C276 C 0.41965 0.44486 0.00286 0.0
C277 C 0.96749 0.45069 0.51025 0.0
C278 C 0.94524 0.46928 0.49905 0.0
C279 C 0.00835 0.46991 0.49739 0.0
C280 C 0.02854 0.50845 0.47275 0.0
H281 H 0.95323 0.42091 0.52877 0.0
H282 H 0.02433 0.45462 0.50787 0.0
S283 S 0.9838 0.5699 0.43378 0.0
N284 N 0.94628 0.52829 0.46103 0.0
N285 N 0.02312 0.56436 0.43674 0.0
C286 C 0.00659 0.52724 0.46063 0.0
C287 C 0.96497 0.50774 0.47399 0.0
C288 C 0.54721 0.24045 0.91295 0.0
C289 C 0.52899 0.20862 0.95425 0.0
C290 C 0.53732 0.2702 0.91279 0.0
C291 C 0.50971 0.26943 0.95514 0.0
H292 H 0.57145 0.24402 0.88402 0.0
H293 H 0.55465 0.29597 0.88413 0.0
S294 S 0.44823 0.18858 0.06411 0.0
N295 N 0.47728 0.17456 0.03103 0.0
N296 N 0.45961 0.23127 0.03207 0.0
C297 C 0.48803 0.2355 0.99156 0.0
C298 C 0.49752 0.2048 0.99083 0.0
C299 C 0.26782 0.50857 0.4608 0.0
C300 C 0.30013 0.53691 0.4258 0.0
C301 C 0.23156 0.50801 0.46239 0.0
C302 C 0.22621 0.5354 0.42834 0.0
H303 H 0.27156 0.48889 0.49137 0.0
H304 H 0.20871 0.48802 0.49397 0.0
S305 S 0.2988 0.61043 0.32025 0.0
N306 N 0.32238 0.58902 0.3492 0.0
N307 N 0.25397 0.58762 0.35157 0.0
C308 C 0.25649 0.5606 0.38748 0.0
C309 C 0.29362 0.56145 0.38625 0.0
C310 C 0.73285 0.28269 0.88915 0.0
C311 C 0.76543 0.2947 0.92891 0.0
C312 C 0.69963 0.24426 0.89261 0.0
C313 C 0.6982 0.21708 0.93611 0.0
H314 H 0.73088 0.30415 0.86034 0.0
H315 H 0.67328 0.23767 0.86654 0.0
S316 S 0.78126 0.23006 0.03505 0.0
N317 N 0.79848 0.27339 1.00097 0.0
N318 N 0.73575 0.20136 0.008 0.0
C319 C 0.73315 0.22672 0.96839 0.0
C320 C 0.76698 0.26565 0.96464 0.0
C321 C 0.49605 0.75915 0.48083 0.0
C322 C 0.47388 0.76689 0.43801 0.0
C323 C 0.49456 0.72273 0.48139 0.0
C324 C 0.47116 0.69307 0.43884 0.0
H325 H 0.51127 0.77961 0.51804 0.0
H326 H 0.50865 0.71642 0.51896 0.0
S327 S 0.41704 0.70309 0.30687 0.0
N328 N 0.43503 0.74548 0.34409 0.0
N329 N 0.43251 0.67691 0.34488 0.0
C330 C 0.45409 0.70278 0.3901 0.0
C331 C 0.45542 0.73992 0.3897 0.0
C332 C 0.68955 0.45875 0.00444 0.0
C333 C 0.65993 0.43616 0.96111 0.0
C334 C 0.7275 0.46321 1.00057 0.0
C335 C 0.73716 0.44515 0.95332 0.0
H336 H 0.68253 0.47055 0.04425 0.0
H337 H 0.74826 0.47823 0.03763 0.0
S338 S 0.67325 0.39091 0.82065 0.0
N339 N 0.64503 0.40166 0.8635 0.0
N340 N 0.71654 0.40998 0.85636 0.0
C341 C 0.70952 0.42671 0.90565 0.0
C342 C 0.67076 0.4222 0.90954 0.0
C343 C 0.25712 0.69739 0.39752 0.0
C344 C 0.22762 0.69119 0.44055 0.0
C345 C 0.29485 0.73188 0.39946 0.0
C346 C 0.30393 0.76098 0.44442 0.0
H347 H 0.25253 0.67393 0.36633 0.0
H348 H 0.31794 0.73394 0.36928 0.0
S349 S 0.23319 0.763 0.55614 0.0
N350 N 0.20716 0.72001 0.52082 0.0
N351 N 0.27789 0.78493 0.52431 0.0
C352 C 0.27295 0.7573 0.48211 0.0
C353 C 0.23472 0.72228 0.48018 0.0
C354 C 0.72612 0.42976 0.59582 0.0
C355 C 0.75229 0.44873 0.54652 0.0
C356 C 0.6891 0.42775 0.59891 0.0
C357 C 0.67725 0.44467 0.5528 0.0
H358 H 0.73252 0.41325 0.62915 0.0
H359 H 0.6684 0.40992 0.6346 0.0
S360 S 0.73951 0.5066 0.42362 0.0
N361 N 0.76724 0.49138 0.45776 0.0
N362 N 0.69775 0.48768 0.46357 0.0
C363 C 0.70526 0.46794 0.50782 0.0
C364 C 0.74285 0.46998 0.50469 0.0
C365 C 0.27429 0.76739 0.01446 0.0
C366 C 0.30172 0.76886 0.05772 0.0
C367 C 0.23502 0.73577 0.01364 0.0
C368 C 0.222 0.7047 0.05609 0.0
H369 H 0.28415 0.78868 0.97737 0.0
H370 H 0.21608 0.73356 0.97572 0.0
S371 S 0.27888 0.70089 0.1893 0.0
N372 N 0.31087 0.74154 0.15216 0.0
N373 N 0.23663 0.6818 0.15061 0.0
C374 C 0.24717 0.70909 0.10528 0.0
C375 C 0.28737 0.74138 0.10607 0.0
C376 C 0.52256 0.23826 0.63651 0.0
C377 C 0.49594 0.20804 0.59682 0.0
C378 C 0.52543 0.27547 0.63642 0.0
C379 C 0.50162 0.28311 0.59686 0.0
H380 H 0.54486 0.2351 0.66148 0.0
H381 H 0.54965 0.29946 0.66152 0.0
S382 S 0.4179 0.20947 0.50174 0.0
N383 N 0.43837 0.18485 0.53024 0.0
N384 N 0.44362 0.2547 0.53025 0.0
C385 C 0.47026 0.25106 0.56578 0.0
C386 C 0.46736 0.21333 0.56586 0.0
C387 C 0.20871 0.50822 0.03095 0.0
C388 C 0.21107 0.54077 0.06212 0.0
C389 C 0.24114 0.50207 0.02982 0.0
C390 C 0.27673 0.52793 0.06047 0.0
H391 H 0.18295 0.48929 0.00301 0.0
H392 H 0.23947 0.47883 1.0008 0.0
S393 S 0.29624 0.61425 0.15562 0.0
N394 N 0.25027 0.59647 0.13023 0.0
N395 N 0.31108 0.58448 0.12851 0.0
C396 C 0.27795 0.55789 0.09737 0.0
C397 C 0.24502 0.56443 0.09814 0.0
C398 C 0.67795 0.26046 0.6063 0.0
C399 C 0.66696 0.22632 0.5714 0.0
C400 C 0.71721 0.2924 0.60556 0.0
C401 C 0.74626 0.29147 0.56842 0.0
H402 H 0.65547 0.2637 0.63062 0.0
H403 H 0.72356 0.31947 0.62873 0.0
S404 S 0.73419 0.20611 0.47787 0.0
N405 N 0.68949 0.19082 0.50702 0.0
N406 N 0.76312 0.25161 0.50383 0.0
C407 C 0.73666 0.25589 0.53883 0.0
C408 C 0.69689 0.22303 0.54071 0.0
C409 C 0.42814 0.67888 0.10021 0.0
C410 C 0.44776 0.66929 0.05525 0.0
C411 C 0.43292 0.71683 0.10263 0.0
C412 C 0.45749 0.74619 0.06018 0.0
H413 H 0.40594 0.65604 0.12964 0.0
H414 H 0.41423 0.72179 0.13381 0.0
S415 S 0.52427 0.73907 0.94627 0.0
N416 N 0.49922 0.69439 0.97688 0.0
N417 N 0.5084 0.7658 0.98157 0.0
C418 C 0.48158 0.73855 0.02124 0.0
C419 C 0.47664 0.69995 0.01868 0.0
loop_
_geom_bond_atom_site_label_1
_geom_bond_atom_site_label_2
_geom_bond_distance
_geom_bond_site_symmetry_2
_ccdc_geom_bond_type
In0 O1 2.296 . S
In0 O2 2.328 . S
In0 O6 2.266 1_554 S
In0 O7 2.324 1_554 S
In0 O8 2.265 1_554 S
In0 O9 2.326 . S
In0 O11 2.293 1_554 S
In0 O12 2.326 . S
O1 In0 2.296 . S
O1 C10 1.240 . S
O2 In0 2.328 . S
O2 C10 1.252 . S
C3 O6 1.252 . S
C3 O7 1.260 . S
C4 O11 1.240 . S
C4 O12 1.252 1_556 S
C5 O8 1.252 . S
C5 O9 1.260 1_556 S
O6 In0 2.266 1_556 S
O6 C3 1.252 . S
O7 In0 2.324 1_556 S
O7 C3 1.260 . S
O8 In0 2.265 1_556 S
O8 C5 1.252 . S
O9 In0 2.326 . S
O9 C5 1.260 1_554 S
C10 O1 1.240 . S
C10 O2 1.252 . S
O11 In0 2.293 1_556 S
O11 C4 1.240 . S
O12 In0 2.326 . S
O12 C4 1.252 1_554 S
In13 O14 2.294 . S
In13 O15 2.326 . S
In13 O19 2.266 . S
In13 O20 2.326 . S
In13 O21 2.266 . S
In13 O22 2.326 . S
In13 O24 2.294 . S
In13 O25 2.326 . S
O14 In13 2.294 . S
O14 C23 1.240 . S
O15 In13 2.326 . S
O15 C23 1.252 . S
C16 O19 1.252 . S
C16 O20 1.260 . S
C17 O24 1.240 . S
C17 O25 1.252 . S
C18 O21 1.252 . S
C18 O22 1.260 . S
O19 In13 2.266 . S
O19 C16 1.252 . S
O20 In13 2.326 . S
O20 C16 1.260 . S
O21 In13 2.266 . S
O21 C18 1.252 . S
O22 In13 2.326 . S
O22 C18 1.260 . S
C23 O14 1.240 . S
C23 O15 1.252 . S
O24 In13 2.294 . S
O24 C17 1.240 . S
O25 In13 2.326 . S
O25 C17 1.252 . S
In26 O27 2.293 1_554 S
In26 O28 2.326 . S
In26 O32 2.265 1_554 S
In26 O33 2.326 . S
In26 O34 2.266 1_554 S
In26 O35 2.324 1_554 S
In26 O37 2.296 . S
In26 O38 2.328 . S
O27 In26 2.293 1_556 S
O27 C36 1.240 . S
O28 In26 2.326 . S
O28 C36 1.252 1_554 S
C29 O32 1.252 . S
C29 O33 1.260 1_556 S
C30 O37 1.240 . S
C30 O38 1.252 . S
C31 O34 1.252 . S
C31 O35 1.260 . S
O32 In26 2.265 1_556 S
O32 C29 1.252 . S
O33 In26 2.326 . S
O33 C29 1.260 1_554 S
O34 In26 2.266 1_556 S
O34 C31 1.252 . S
O35 In26 2.324 1_556 S
O35 C31 1.260 . S
C36 O27 1.240 . S
C36 O28 1.252 1_556 S
O37 In26 2.296 . S
O37 C30 1.240 . S
O38 In26 2.328 . S
O38 C30 1.252 . S
In39 O40 2.294 . S
In39 O41 2.326 . S
In39 O45 2.266 . S
In39 O46 2.326 . S
In39 O47 2.266 . S
In39 O48 2.326 . S
In39 O50 2.294 . S
In39 O51 2.326 . S
O40 In39 2.294 . S
O40 C49 1.240 . S
O41 In39 2.326 . S
O41 C49 1.252 . S
C42 O45 1.252 . S
C42 O46 1.260 . S
C43 O50 1.240 . S
C43 O51 1.252 . S
C44 O47 1.252 . S
C44 O48 1.260 . S
O45 In39 2.266 . S
O45 C42 1.252 . S
O46 In39 2.326 . S
O46 C42 1.260 . S
O47 In39 2.266 . S
O47 C44 1.252 . S
O48 In39 2.326 . S
O48 C44 1.260 . S
C49 O40 1.240 . S
C49 O41 1.252 . S
O50 In39 2.294 . S
O50 C43 1.240 . S
O51 In39 2.326 . S
O51 C43 1.252 . S
In52 O53 2.296 . S
In52 O54 2.328 . S
In52 O58 2.266 1_554 S
In52 O59 2.324 1_554 S
In52 O60 2.265 1_554 S
In52 O61 2.326 . S
In52 O63 2.293 1_554 S
In52 O64 2.326 . S
O53 In52 2.296 . S
O53 C62 1.240 . S
O54 In52 2.328 . S
O54 C62 1.252 . S
C55 O58 1.252 . S
C55 O59 1.260 . S
C56 O63 1.240 . S
C56 O64 1.252 1_556 S
C57 O60 1.252 . S
C57 O61 1.260 1_556 S
O58 In52 2.266 1_556 S
O58 C55 1.252 . S
O59 In52 2.324 1_556 S
O59 C55 1.260 . S
O60 In52 2.265 1_556 S
O60 C57 1.252 . S
O61 In52 2.326 . S
O61 C57 1.260 1_554 S
C62 O53 1.240 . S
C62 O54 1.252 . S
O63 In52 2.293 1_556 S
O63 C56 1.240 . S
O64 In52 2.326 . S
O64 C56 1.252 1_554 S
In65 O66 2.294 . S
In65 O67 2.326 . S
In65 O71 2.266 . S
In65 O72 2.326 . S
In65 O73 2.266 . S
In65 O74 2.326 . S
In65 O76 2.294 . S
In65 O77 2.326 . S
O66 In65 2.294 . S
O66 C75 1.240 . S
O67 In65 2.326 . S
O67 C75 1.252 . S
C68 O71 1.252 . S
C68 O72 1.260 . S
C69 O76 1.240 . S
C69 O77 1.252 . S
C70 O73 1.252 . S
C70 O74 1.260 . S
O71 In65 2.266 . S
O71 C68 1.252 . S
O72 In65 2.326 . S
O72 C68 1.260 . S
O73 In65 2.266 . S
O73 C70 1.252 . S
O74 In65 2.326 . S
O74 C70 1.260 . S
C75 O66 1.240 . S
C75 O67 1.252 . S
O76 In65 2.294 . S
O76 C69 1.240 . S
O77 In65 2.326 . S
O77 C69 1.252 . S
In78 O79 2.294 . S
In78 O80 2.326 . S
In78 O84 2.266 . S
In78 O85 2.326 . S
In78 O86 2.266 . S
In78 O87 2.326 . S
In78 O89 2.294 . S
In78 O90 2.326 . S
O79 In78 2.294 . S
O79 C88 1.240 . S
O80 In78 2.326 . S
O80 C88 1.252 . S
C81 O84 1.252 . S
C81 O85 1.260 . S
C82 O89 1.240 . S
C82 O90 1.252 . S
C83 O86 1.252 . S
C83 O87 1.260 . S
O84 In78 2.266 . S
O84 C81 1.252 . S
O85 In78 2.326 . S
O85 C81 1.260 . S
O86 In78 2.266 . S
O86 C83 1.252 . S
O87 In78 2.326 . S
O87 C83 1.260 . S
C88 O79 1.240 . S
C88 O80 1.252 . S
O89 In78 2.294 . S
O89 C82 1.240 . S
O90 In78 2.326 . S
O90 C82 1.252 . S
In91 O92 2.293 1_556 S
In91 O93 2.326 . S
In91 O97 2.265 1_556 S
In91 O98 2.326 . S
In91 O99 2.266 1_556 S
In91 O100 2.324 1_556 S
In91 O102 2.296 . S
In91 O103 2.328 . S
O92 In91 2.293 1_554 S
O92 C101 1.240 . S
O93 In91 2.326 . S
O93 C101 1.252 1_556 S
C94 O97 1.252 . S
C94 O98 1.260 1_554 S
C95 O102 1.240 . S
C95 O103 1.252 . S
C96 O99 1.252 . S
C96 O100 1.260 . S
O97 In91 2.265 1_554 S
O97 C94 1.252 . S
O98 In91 2.326 . S
O98 C94 1.260 1_556 S
O99 In91 2.266 1_554 S
O99 C96 1.252 . S
O100 In91 2.324 1_554 S
O100 C96 1.260 . S
C101 O92 1.240 . S
C101 O93 1.252 1_554 S
O102 In91 2.296 . S
O102 C95 1.240 . S
O103 In91 2.328 . S
O103 C95 1.252 . S
In104 O105 2.294 . S
In104 O106 2.326 . S
In104 O110 2.266 . S
In104 O111 2.326 . S
In104 O112 2.266 . S
In104 O113 2.326 . S
In104 O115 2.294 . S
In104 O116 2.326 . S
O105 In104 2.294 . S
O105 C114 1.240 . S
O106 In104 2.326 . S
O106 C114 1.252 . S
C107 O110 1.252 . S
C107 O111 1.260 . S
C108 O115 1.240 . S
C108 O116 1.252 . S
C109 O112 1.252 . S
C109 O113 1.260 . S
O110 In104 2.266 . S
O110 C107 1.252 . S
O111 In104 2.326 . S
O111 C107 1.260 . S
O112 In104 2.266 . S
O112 C109 1.252 . S
O113 In104 2.326 . S
O113 C109 1.260 . S
C114 O105 1.240 . S
C114 O106 1.252 . S
O115 In104 2.294 . S
O115 C108 1.240 . S
O116 In104 2.326 . S
O116 C108 1.252 . S
In117 O118 2.293 1_556 S
In117 O119 2.326 . S
In117 O123 2.265 1_556 S
In117 O124 2.326 . S
In117 O125 2.266 1_556 S
In117 O126 2.324 1_556 S
In117 O128 2.296 . S
In117 O129 2.328 . S
O118 In117 2.293 1_554 S
O118 C127 1.240 . S
O119 In117 2.326 . S
O119 C127 1.252 1_556 S
C120 O123 1.252 . S
C120 O124 1.260 1_554 S
C121 O128 1.240 . S
C121 O129 1.252 . S
C122 O125 1.252 . S
C122 O126 1.260 . S
O123 In117 2.265 1_554 S
O123 C120 1.252 . S
O124 In117 2.326 . S
O124 C120 1.260 1_556 S
O125 In117 2.266 1_554 S
O125 C122 1.252 . S
O126 In117 2.324 1_554 S
O126 C122 1.260 . S
C127 O118 1.240 . S
C127 O119 1.252 1_554 S
O128 In117 2.296 . S
O128 C121 1.240 . S
O129 In117 2.328 . S
O129 C121 1.252 . S
In130 O131 2.294 . S
In130 O132 2.326 . S
In130 O136 2.266 . S
In130 O137 2.326 . S
In130 O138 2.266 . S
In130 O139 2.326 . S
In130 O141 2.294 . S
In130 O142 2.326 . S
O131 In130 2.294 . S
O131 C140 1.240 . S
O132 In130 2.326 . S
O132 C140 1.252 . S
C133 O136 1.252 . S
C133 O137 1.260 . S
C134 O141 1.240 . S
C134 O142 1.252 . S
C135 O138 1.252 . S
C135 O139 1.260 . S
O136 In130 2.266 . S
O136 C133 1.252 . S
O137 In130 2.326 . S
O137 C133 1.260 . S
O138 In130 2.266 . S
O138 C135 1.252 . S
O139 In130 2.326 . S
O139 C135 1.260 . S
C140 O131 1.240 . S
C140 O132 1.252 . S
O141 In130 2.294 . S
O141 C134 1.240 . S
O142 In130 2.326 . S
O142 C134 1.252 . S
In143 O144 2.293 1_556 S
In143 O145 2.326 . S
In143 O149 2.265 1_556 S
In143 O150 2.326 . S
In143 O151 2.266 1_556 S
In143 O152 2.324 1_556 S
In143 O154 2.296 . S
In143 O155 2.328 . S
O144 In143 2.293 1_554 S
O144 C153 1.240 . S
O145 In143 2.326 . S
O145 C153 1.252 1_556 S
C146 O149 1.252 . S
C146 O150 1.260 1_554 S
C147 O154 1.240 . S
C147 O155 1.252 . S
C148 O151 1.252 . S
C148 O152 1.260 . S
O149 In143 2.265 1_554 S
O149 C146 1.252 . S
O150 In143 2.326 . S
O150 C146 1.260 1_556 S
O151 In143 2.266 1_554 S
O151 C148 1.252 . S
O152 In143 2.324 1_554 S
O152 C148 1.260 . S
C153 O144 1.240 . S
C153 O145 1.252 1_554 S
O154 In143 2.296 . S
O154 C147 1.240 . S
O155 In143 2.328 . S
O155 C147 1.252 . S
C156 C157 1.369 . S
C156 C158 1.419 . S
C156 H160 0.930 . S
C157 C156 1.369 . S
C157 C166 1.429 . S
C158 C156 1.419 . S
C158 C159 1.363 . S
C158 H161 0.929 . S
C159 C158 1.363 . S
C159 C165 1.428 . S
H160 C156 0.930 . S
H161 C158 0.929 . S
S162 N163 1.613 . S
S162 N164 1.610 . S
N163 S162 1.613 . S
N163 C166 1.350 . S
N164 S162 1.610 . S
N164 C165 1.351 . S
C165 C159 1.428 . S
C165 N164 1.351 . S
C165 C166 1.434 . S
C166 C157 1.429 . S
C166 N163 1.350 . S
C166 C165 1.434 . S
C167 C168 1.369 . S
C167 C169 1.419 . S
C167 H171 0.930 . S
C168 C167 1.369 . S
C168 C177 1.429 . S
C169 C167 1.419 . S
C169 C170 1.363 . S
C169 H172 0.929 . S
C170 C169 1.363 . S
C170 C176 1.428 . S
H171 C167 0.930 . S
H172 C169 0.929 . S
S173 N174 1.613 . S
S173 N175 1.610 . S
N174 S173 1.613 . S
N174 C177 1.350 . S
N175 S173 1.610 . S
N175 C176 1.351 . S
C176 C170 1.428 . S
C176 N175 1.351 . S
C176 C177 1.434 . S
C177 C168 1.429 . S
C177 N174 1.350 . S
C177 C176 1.434 . S
C178 C179 1.369 . S
C178 C180 1.419 . S
C178 H182 0.930 . S
C179 C178 1.369 . S
C179 C188 1.429 . S
C180 C178 1.419 . S
C180 C181 1.363 . S
C180 H183 0.929 . S
C181 C180 1.363 . S
C181 C187 1.428 . S
H182 C178 0.930 . S
H183 C180 0.929 . S
S184 N185 1.613 . S
S184 N186 1.610 . S
N185 S184 1.613 . S
N185 C188 1.350 . S
N186 S184 1.610 . S
N186 C187 1.351 . S
C187 C181 1.428 . S
C187 N186 1.351 . S
C187 C188 1.434 . S
C188 C179 1.429 . S
C188 N185 1.350 . S
C188 C187 1.434 . S
C189 C190 1.369 . S
C189 C191 1.419 . S
C189 H193 0.930 . S
C190 C189 1.369 . S
C190 C199 1.429 . S
C191 C189 1.419 . S
C191 C192 1.363 . S
C191 H194 0.929 . S
C192 C191 1.363 . S
C192 C198 1.428 . S
H193 C189 0.930 . S
H194 C191 0.929 . S
S195 N196 1.613 . S
S195 N197 1.610 . S
N196 S195 1.613 . S
N196 C199 1.350 . S
N197 S195 1.610 . S
N197 C198 1.351 . S
C198 C192 1.428 . S
C198 N197 1.351 . S
C198 C199 1.434 . S
C199 C190 1.429 . S
C199 N196 1.350 . S
C199 C198 1.434 . S
C200 C201 1.369 . S
C200 C202 1.419 . S
C200 H204 0.930 . S
C201 C200 1.369 . S
C201 C210 1.429 . S
C202 C200 1.419 . S
C202 C203 1.363 . S
C202 H205 0.929 . S
C203 C202 1.363 . S
C203 C209 1.428 . S
H204 C200 0.930 . S
H205 C202 0.929 . S
S206 N207 1.613 . S
S206 N208 1.610 . S
N207 S206 1.613 . S
N207 C210 1.350 . S
N208 S206 1.610 . S
N208 C209 1.351 . S
C209 C203 1.428 . S
C209 N208 1.351 . S
C209 C210 1.434 . S
C210 C201 1.429 . S
C210 N207 1.350 . S
C210 C209 1.434 . S
C211 C212 1.369 . S
C211 C213 1.419 . S
C211 H215 0.930 . S
C212 C211 1.369 . S
C212 C221 1.429 . S
C213 C211 1.419 . S
C213 C214 1.363 . S
C213 H216 0.929 . S
C214 C213 1.363 . S
C214 C220 1.428 . S
H215 C211 0.930 . S
H216 C213 0.929 . S
S217 N218 1.613 . S
S217 N219 1.610 . S
N218 S217 1.613 . S
N218 C221 1.350 . S
N219 S217 1.610 . S
N219 C220 1.351 . S
C220 C214 1.428 . S
C220 N219 1.351 . S
C220 C221 1.434 . S
C221 C212 1.429 . S
C221 N218 1.350 . S
C221 C220 1.434 . S
C222 C223 1.369 . S
C222 C224 1.425 1_545 S
C222 H226 0.930 . S
C223 C222 1.369 . S
C223 C232 1.429 1_556 S
C224 C222 1.425 1_565 S
C224 C225 1.356 1_556 S
C224 H227 0.930 . S
C225 C224 1.356 1_554 S
C225 C231 1.428 . S
H226 C222 0.930 . S
H227 C224 0.930 . S
S228 N229 1.613 . S
S228 N230 1.610 1_545 S
N229 S228 1.613 . S
N229 C232 1.350 . S
N230 S228 1.610 1_565 S
N230 C231 1.351 . S
C231 C225 1.428 . S
C231 N230 1.351 . S
C231 C232 1.434 1_565 S
C232 C223 1.429 1_554 S
C232 N229 1.350 . S
C232 C231 1.434 1_545 S
C233 C234 1.369 . S
C233 C235 1.419 . S
C233 H237 0.930 . S
C234 C233 1.369 . S
C234 C243 1.429 . S
C235 C233 1.419 . S
C235 C236 1.363 . S
C235 H238 0.929 . S
C236 C235 1.363 . S
C236 C242 1.428 . S
H237 C233 0.930 . S
H238 C235 0.929 . S
S239 N240 1.613 . S
S239 N241 1.610 . S
N240 S239 1.613 . S
N240 C243 1.350 . S
N241 S239 1.610 . S
N241 C242 1.351 . S
C242 C236 1.428 . S
C242 N241 1.351 . S
C242 C243 1.434 . S
C243 C234 1.429 . S
C243 N240 1.350 . S
C243 C242 1.434 . S
C244 C245 1.369 . S
C244 C246 1.419 1_454 S
C244 H248 0.930 . S
C245 C244 1.369 . S
C245 C254 1.429 . S
C246 C244 1.419 1_656 S
C246 C247 1.363 . S
C246 H249 0.929 . S
C247 C246 1.363 . S
C247 C253 1.428 . S
H248 C244 0.930 . S
H249 C246 0.929 . S
S250 N251 1.613 1_655 S
S250 N252 1.619 . S
N251 S250 1.613 1_455 S
N251 C254 1.350 . S
N252 S250 1.619 . S
N252 C253 1.350 1_554 S
C253 C247 1.428 . S
C253 N252 1.350 1_556 S
C253 C254 1.434 1_656 S
C254 C245 1.429 . S
C254 N251 1.350 . S
C254 C253 1.434 1_454 S
C255 C256 1.369 . S
C255 C257 1.419 1_545 S
C255 H259 0.930 . S
C256 C255 1.369 . S
C256 C265 1.429 . S
C257 C255 1.419 1_565 S
C257 C258 1.363 . S
C257 H260 0.929 . S
C258 C257 1.363 . S
C258 C264 1.428 . S
H259 C255 0.930 . S
H260 C257 0.929 . S
S261 N262 1.613 1_565 S
S261 N263 1.610 . S
N262 S261 1.613 1_545 S
N262 C265 1.350 . S
N263 S261 1.610 . S
N263 C264 1.351 . S
C264 C258 1.428 . S
C264 N263 1.351 . S
C264 C265 1.434 1_565 S
C265 C256 1.429 . S
C265 N262 1.350 . S
C265 C264 1.434 1_545 S
C266 C267 1.369 1_556 S
C266 C268 1.419 . S
C266 H270 0.930 . S
C267 C266 1.369 1_554 S
C267 C276 1.429 . S
C268 C266 1.419 . S
C268 C269 1.363 . S
C268 H271 0.929 . S
C269 C268 1.363 . S
C269 C275 1.428 1_556 S
H270 C266 0.930 . S
H271 C268 0.929 . S
S272 N273 1.613 . S
S272 N274 1.610 . S
N273 S272 1.613 . S
N273 C276 1.350 . S
N274 S272 1.610 . S
N274 C275 1.351 . S
C275 C269 1.428 1_554 S
C275 N274 1.351 . S
C275 C276 1.434 . S
C276 C267 1.429 . S
C276 N273 1.350 . S
C276 C275 1.434 . S
C277 C278 1.397 . S
C277 C279 1.393 1_655 S
C277 H281 0.928 1_655 S
C278 C277 1.397 . S
C278 C287 1.429 . S
C279 C277 1.393 1_455 S
C279 C280 1.363 . S
C279 H282 0.929 . S
C280 C279 1.363 . S
C280 C286 1.403 1_455 S
H281 C277 0.928 1_455 S
H282 C279 0.929 . S
S283 N284 1.613 . S
S283 N285 1.610 . S
N284 S283 1.613 . S
N284 C287 1.350 . S
N285 S283 1.610 . S
N285 C286 1.356 . S
C286 C280 1.403 1_655 S
C286 N285 1.356 . S
C286 C287 1.457 . S
C287 C278 1.429 . S
C287 N284 1.350 . S
C287 C286 1.457 . S
C288 C289 1.369 . S
C288 C290 1.419 . S
C288 H292 0.930 . S
C289 C288 1.369 . S
C289 C298 1.429 1_556 S
C290 C288 1.419 . S
C290 C291 1.363 . S
C290 H293 0.929 . S
C291 C290 1.363 . S
C291 C297 1.428 . S
H292 C288 0.930 . S
H293 C290 0.929 . S
S294 N295 1.613 . S
S294 N296 1.610 . S
N295 S294 1.613 . S
N295 C298 1.350 . S
N296 S294 1.610 . S
N296 C297 1.351 1_554 S
C297 C291 1.428 . S
C297 N296 1.351 1_556 S
C297 C298 1.434 1_556 S
C298 C289 1.429 1_554 S
C298 N295 1.350 . S
C298 C297 1.434 1_554 S
C299 C300 1.369 . S
C299 C301 1.419 . S
C299 H303 0.930 . S
C300 C299 1.369 . S
C300 C309 1.429 . S
C301 C299 1.419 . S
C301 C302 1.363 . S
C301 H304 0.929 . S
C302 C301 1.363 . S
C302 C308 1.428 . S
H303 C299 0.930 . S
H304 C301 0.929 . S
S305 N306 1.613 . S
S305 N307 1.610 . S
N306 S305 1.613 . S
N306 C309 1.350 . S
N307 S305 1.610 . S
N307 C308 1.351 . S
C308 C302 1.428 . S
C308 N307 1.351 . S
C308 C309 1.434 . S
C309 C300 1.429 . S
C309 N306 1.350 . S
C309 C308 1.434 . S
C310 C311 1.369 . S
C310 C312 1.419 . S
C310 H314 0.930 . S
C311 C310 1.369 . S
C311 C320 1.429 1_556 S
C312 C310 1.419 . S
C312 C313 1.363 . S
C312 H315 0.929 . S
C313 C312 1.363 . S
C313 C319 1.428 . S
H314 C310 0.930 . S
H315 C312 0.929 . S
S316 N317 1.613 . S
S316 N318 1.610 . S
N317 S316 1.613 . S
N317 C320 1.350 . S
N318 S316 1.610 . S
N318 C319 1.351 1_554 S
C319 C313 1.428 . S
C319 N318 1.351 1_556 S
C319 C320 1.434 1_556 S
C320 C311 1.429 1_554 S
C320 N317 1.350 . S
C320 C319 1.434 1_554 S
C321 C322 1.369 . S
C321 C323 1.419 . S
C321 H325 0.930 . S
C322 C321 1.369 . S
C322 C331 1.429 . S
C323 C321 1.419 . S
C323 C324 1.363 . S
C323 H326 0.929 . S
C324 C323 1.363 . S
C324 C330 1.428 . S
H325 C321 0.930 . S
H326 C323 0.929 . S
S327 N328 1.613 . S
S327 N329 1.610 . S
N328 S327 1.613 . S
N328 C331 1.350 . S
N329 S327 1.610 . S
N329 C330 1.351 . S
C330 C324 1.428 . S
C330 N329 1.351 . S
C330 C331 1.434 . S
C331 C322 1.429 . S
C331 N328 1.350 . S
C331 C330 1.434 . S
C332 C333 1.369 . S
C332 C334 1.419 . S
C332 H336 0.930 . S
C333 C332 1.369 . S
C333 C342 1.429 . S
C334 C332 1.419 . S
C334 C335 1.363 . S
C334 H337 0.929 . S
C335 C334 1.363 . S
C335 C341 1.428 . S
H336 C332 0.930 . S
H337 C334 0.929 . S
S338 N339 1.613 . S
S338 N340 1.610 . S
N339 S338 1.613 . S
N339 C342 1.350 1_554 S
N340 S338 1.610 . S
N340 C341 1.351 1_554 S
C341 C335 1.428 . S
C341 N340 1.351 1_556 S
C341 C342 1.434 . S
C342 C333 1.429 . S
C342 N339 1.350 1_556 S
C342 C341 1.434 . S
C343 C344 1.369 . S
C343 C345 1.419 . S
C343 H347 0.930 . S
C344 C343 1.369 . S
C344 C353 1.429 . S
C345 C343 1.419 . S
C345 C346 1.363 . S
C345 H348 0.929 . S
C346 C345 1.363 . S
C346 C352 1.428 . S
H347 C343 0.930 . S
H348 C345 0.929 . S
S349 N350 1.613 . S
S349 N351 1.610 . S
N350 S349 1.613 . S
N350 C353 1.350 . S
N351 S349 1.610 . S
N351 C352 1.351 . S
C352 C346 1.428 . S
C352 N351 1.351 . S
C352 C353 1.434 . S
C353 C344 1.429 . S
C353 N350 1.350 . S
C353 C352 1.434 . S
C354 C355 1.369 . S
C354 C356 1.419 . S
C354 H358 0.930 . S
C355 C354 1.369 . S
C355 C364 1.429 . S
C356 C354 1.419 . S
C356 C357 1.363 . S
C356 H359 0.929 . S
C357 C356 1.363 . S
C357 C363 1.428 . S
H358 C354 0.930 . S
H359 C356 0.929 . S
S360 N361 1.613 . S
S360 N362 1.610 . S
N361 S360 1.613 . S
N361 C364 1.350 . S
N362 S360 1.610 . S
N362 C363 1.351 . S
C363 C357 1.428 . S
C363 N362 1.351 . S
C363 C364 1.434 . S
C364 C355 1.429 . S
C364 N361 1.350 . S
C364 C363 1.434 . S
C365 C366 1.369 . S
C365 C367 1.419 . S
C365 H369 0.930 1_554 S
C366 C365 1.369 . S
C366 C375 1.429 . S
C367 C365 1.419 . S
C367 C368 1.363 . S
C367 H370 0.929 1_554 S
C368 C367 1.363 . S
C368 C374 1.428 . S
H369 C365 0.930 1_556 S
H370 C367 0.929 1_556 S
S371 N372 1.613 . S
S371 N373 1.610 . S
N372 S371 1.613 . S
N372 C375 1.350 . S
N373 S371 1.610 . S
N373 C374 1.351 . S
C374 C368 1.428 . S
C374 N373 1.351 . S
C374 C375 1.434 . S
C375 C366 1.429 . S
C375 N372 1.350 . S
C375 C374 1.434 . S
C376 C377 1.369 . S
C376 C378 1.419 . S
C376 H380 0.930 . S
C377 C376 1.369 . S
C377 C386 1.429 . S
C378 C376 1.419 . S
C378 C379 1.363 . S
C378 H381 0.929 . S
C379 C378 1.363 . S
C379 C385 1.428 . S
H380 C376 0.930 . S
H381 C378 0.929 . S
S382 N383 1.613 . S
S382 N384 1.610 . S
N383 S382 1.613 . S
N383 C386 1.350 . S
N384 S382 1.610 . S
N384 C385 1.351 . S
C385 C379 1.428 . S
C385 N384 1.351 . S
C385 C386 1.434 . S
C386 C377 1.429 . S
C386 N383 1.350 . S
C386 C385 1.434 . S
C387 C388 1.369 . S
C387 C389 1.419 . S
C387 H391 0.930 . S
C388 C387 1.369 . S
C388 C397 1.429 . S
C389 C387 1.419 . S
C389 C390 1.363 . S
C389 H392 0.929 . S
C390 C389 1.363 . S
C390 C396 1.428 . S
H391 C387 0.930 . S
H392 C389 0.929 . S
S393 N394 1.613 . S
S393 N395 1.610 . S
N394 S393 1.613 . S
N394 C397 1.350 . S
N395 S393 1.610 . S
N395 C396 1.351 . S
C396 C390 1.428 . S
C396 N395 1.351 . S
C396 C397 1.434 . S
C397 C388 1.429 . S
C397 N394 1.350 . S
C397 C396 1.434 . S
C398 C399 1.369 . S
C398 C400 1.419 . S
C398 H402 0.930 . S
C399 C398 1.369 . S
C399 C408 1.429 . S
C400 C398 1.419 . S
C400 C401 1.363 . S
C400 H403 0.929 . S
C401 C400 1.363 . S
C401 C407 1.428 . S
H402 C398 0.930 . S
H403 C400 0.929 . S
S404 N405 1.613 . S
S404 N406 1.610 . S
N405 S404 1.613 . S
N405 C408 1.350 . S
N406 S404 1.610 . S
N406 C407 1.351 . S
C407 C401 1.428 . S
C407 N406 1.351 . S
C407 C408 1.434 . S
C408 C399 1.429 . S
C408 N405 1.350 . S
C408 C407 1.434 . S
C409 C410 1.369 . S
C409 C411 1.419 . S
C409 H413 0.930 . S
C410 C409 1.369 . S
C410 C419 1.429 1_554 S
C411 C409 1.419 . S
C411 C412 1.363 . S
C411 H414 0.929 . S
C412 C411 1.363 . S
C412 C418 1.428 . S
H413 C409 0.930 . S
H414 C411 0.929 . S
S415 N416 1.613 . S
S415 N417 1.610 . S
N416 S415 1.613 . S
N416 C419 1.350 . S
N417 S415 1.610 . S
N417 C418 1.351 1_556 S
C418 C412 1.428 . S
C418 N417 1.351 1_554 S
C418 C419 1.434 1_554 S
C419 C410 1.429 1_556 S
C419 N416 1.350 . S
C419 C418 1.434 1_556 S
C157 C140 1.691 . S
C159 C10 1.688 . S
C168 C23 1.692 . S
C170 C147 1.686 . S
C179 C30 1.688 . S
C181 C82 1.691 . S
C190 C95 1.687 . S
C192 C43 1.688 . S
C201 C108 1.693 . S
C203 C62 1.684 . S
C212 C69 1.694 . S
C214 C121 1.684 . S
C223 C4 1.255 . S
C225 C101 1.259 . S
C234 C17 1.310 . S
C236 C114 1.297 . S
C245 C127 1.266 . S
C247 C36 1.255 . S
C256 C134 1.299 . S
C258 C49 1.299 . S
C267 C153 1.268 . S
C269 C56 1.259 . S
C278 C88 1.295 . S
C280 C75 1.304 . S
C289 C5 1.407 . S
C291 C55 1.287 . S
C300 C18 1.450 . S
C302 C70 1.322 . S
C311 C29 1.414 . S
C313 C3 1.292 . S
C322 C42 1.438 . S
C324 C16 1.324 . S
C333 C57 1.419 . S
C335 C31 1.291 . S
C344 C68 1.445 . S
C346 C44 1.322 . S
C355 C81 1.440 . S
C357 C109 1.318 . S
C366 C94 1.414 . S
C368 C122 1.302 . S
C377 C133 1.328 . S
C379 C107 1.453 . S
C388 C120 1.405 . S
C390 C148 1.287 . S
C399 C135 1.446 . S
C401 C83 1.324 . S
C410 C146 1.419 . S
C412 C96 1.292 . S
