# Generated by pormake.
# Topology soe, (5)-cn, num edge types: 1
# Building blocks:
#     Node 0, Type 0, BuildingBlock: BEQFEK_clean_sbu_0, # of connection points: 5
#     Node 1, Type 0, BuildingBlock: BEQFEK_clean_sbu_0, # of connection points: 5
#     Node 2, Type 0, BuildingBlock: BEQFEK_clean_sbu_0, # of connection points: 5
#     Node 3, Type 0, BuildingBlock: BEQFEK_clean_sbu_0, # of connection points: 5
#     Node 4, Type 0, BuildingBlock: BEQFEK_clean_sbu_0, # of connection points: 5
#     Node 5, Type 0, BuildingBlock: BEQFEK_clean_sbu_0, # of connection points: 5
#     Node 6, Type 0, BuildingBlock: BEQFEK_clean_sbu_0, # of connection points: 5
#     Node 7, Type 0, BuildingBlock: BEQFEK_clean_sbu_0, # of connection points: 5
#     Edge 8, Type (0, 0), BuildingBlock: KIFKEQ_clean_linker_1, # of connection points: 2
#     Edge 9, Type (0, 0), BuildingBlock: KIFKEQ_clean_linker_1, # of connection points: 2
#     Edge 10, Type (0, 0), BuildingBlock: KIFKEQ_clean_linker_1, # of connection points: 2
#     Edge 11, Type (0, 0), BuildingBlock: KIFKEQ_clean_linker_1, # of connection points: 2
#     Edge 12, Type (0, 0), BuildingBlock: KIFKEQ_clean_linker_1, # of connection points: 2
#     Edge 13, Type (0, 0), BuildingBlock: KIFKEQ_clean_linker_1, # of connection points: 2
#     Edge 14, Type (0, 0), BuildingBlock: KIFKEQ_clean_linker_1, # of connection points: 2
#     Edge 15, Type (0, 0), BuildingBlock: KIFKEQ_clean_linker_1, # of connection points: 2
#     Edge 16, Type (0, 0), BuildingBlock: KIFKEQ_clean_linker_1, # of connection points: 2
#     Edge 17, Type (0, 0), BuildingBlock: KIFKEQ_clean_linker_1, # of connection points: 2
#     Edge 18, Type (0, 0), BuildingBlock: KIFKEQ_clean_linker_1, # of connection points: 2
#     Edge 19, Type (0, 0), BuildingBlock: KIFKEQ_clean_linker_1, # of connection points: 2
#     Edge 20, Type (0, 0), BuildingBlock: KIFKEQ_clean_linker_1, # of connection points: 2
#     Edge 21, Type (0, 0), BuildingBlock: KIFKEQ_clean_linker_1, # of connection points: 2
#     Edge 22, Type (0, 0), BuildingBlock: KIFKEQ_clean_linker_1, # of connection points: 2
#     Edge 23, Type (0, 0), BuildingBlock: KIFKEQ_clean_linker_1, # of connection points: 2
#     Edge 24, Type (0, 0), BuildingBlock: KIFKEQ_clean_linker_1, # of connection points: 2
#     Edge 25, Type (0, 0), BuildingBlock: KIFKEQ_clean_linker_1, # of connection points: 2
#     Edge 26, Type (0, 0), BuildingBlock: KIFKEQ_clean_linker_1, # of connection points: 2
#     Edge 27, Type (0, 0), BuildingBlock: KIFKEQ_clean_linker_1, # of connection points: 2
# Relax obj value: 0.157
# Max RMSD: 0.230
# Mean RMSD: 0.171
data_MOF--net-soe--node1-BEQFEK_clean_sbu_0--edge1-KIFKEQ_clean_linker_1
_symmetry_space_group_name_H-M    P1
_symmetry_Int_Tables_number       1
_symmetry_cell_setting            triclinic
loop_
_symmetry_equiv_pos_as_xyz
'x, y, z'
_cell_length_a     59.645501
_cell_length_b     40.177336
_cell_length_c     19.257551
_cell_angle_alpha  89.480941
_cell_angle_beta   90.623455
_cell_angle_gamma 92.945373
loop_
_atom_site_label
_atom_site_type_symbol
_atom_site_fract_x
_atom_site_fract_y
_atom_site_fract_z
_atom_type_partial_charge
Co0 Co 0.12182 0.0004 0.18312 0.0
Co1 Co 0.12679 0.029 0.03277 0.0
C2 C 0.1612 0.98549 0.09723 0.0
O3 O 0.14993 0.9812 0.15254 0.0
O4 O 0.15411 0.00333 0.04753 0.0
C5 C 0.13208 0.98455 0.31853 0.0
O6 O 0.15197 0.99249 0.29283 0.0
C7 C 0.12753 0.01831 0.88492 0.0
C8 C 0.12164 0.06805 0.8406 0.0
C9 C 0.12475 0.03525 0.8226 0.0
N10 N 0.12605 0.04002 0.93697 0.0
N11 N 0.12274 0.06981 0.91036 0.0
C12 C 0.12947 0.98164 0.89618 0.0
H13 H 0.12371 0.97421 0.94893 0.0
H14 H 0.1195 0.96724 0.85664 0.0
H15 H 0.14735 0.97559 0.89187 0.0
C16 C 0.07719 0.97685 0.12729 0.0
N17 N 0.09788 0.99144 0.11987 0.0
N18 N 0.0997 0.00439 0.05707 0.0
C19 C 0.08002 0.99893 0.02284 0.0
C20 C 0.06515 0.98102 0.06587 0.0
C21 C 0.06911 0.95998 0.19258 0.0
H22 H 0.08283 0.94605 0.21661 0.0
H23 H 0.05438 0.94266 0.18224 0.0
H24 H 0.06428 0.97917 0.2299 0.0
O25 O 0.12681 0.04924 0.19376 0.0
O26 O 0.13002 0.07049 0.08735 0.0
H27 H 0.05618 0.01569 0.94598 0.0
H28 H 0.08122 -0.00097 0.91193 0.0
C29 C 0.07455 0.01429 0.95392 0.0
H30 H 0.08237 0.03983 0.95039 0.0
H31 H 0.12071 0.0911 0.93982 0.0
O32 O 0.11508 0.98417 0.27811 0.0
C33 C 0.12973 0.07415 0.15295 0.0
Co34 Co 0.36438 0.911 0.18362 0.0
Co35 Co 0.35955 0.88541 0.03146 0.0
C36 C 0.3224 0.91995 0.10292 0.0
O37 O 0.33399 0.92513 0.15804 0.0
O38 O 0.33036 0.90482 0.05164 0.0
C39 C 0.36103 0.94355 0.31666 0.0
O40 O 0.34351 0.9578 0.29009 0.0
C41 C 0.35685 0.8978 0.88197 0.0
C42 C 0.36675 0.84992 0.83935 0.0
C43 C 0.36122 0.88187 0.82011 0.0
N44 N 0.36018 0.87646 0.93481 0.0
N45 N 0.36586 0.84778 0.909 0.0
C46 C 0.3493 0.93243 0.89155 0.0
H47 H 0.34044 0.93453 0.94134 0.0
H48 H 0.36414 0.95021 0.89288 0.0
H49 H 0.33804 0.93951 0.8482 0.0
C50 C 0.40652 0.94212 0.12788 0.0
N51 N 0.38642 0.92572 0.11925 0.0
N52 N 0.38469 0.91457 0.05527 0.0
C53 C 0.40374 0.92354 0.02118 0.0
C54 C 0.41806 0.94152 0.06584 0.0
C55 C 0.41521 0.9553 0.19592 0.0
H56 H 0.4024 0.97053 0.21985 0.0
H57 H 0.4311 0.97059 0.1895 0.0
H58 H 0.41819 0.93406 0.23152 0.0
O59 O 0.36387 0.86194 0.19068 0.0
O60 O 0.36117 0.84258 0.08327 0.0
H61 H 0.40479 0.88399 0.94743 0.0
H62 H 0.4279 0.91459 0.94088 0.0
C63 C 0.40967 0.9109 0.95113 0.0
H64 H 0.40044 0.92452 0.91057 0.0
H65 H 0.36965 0.82701 0.93903 0.0
O66 O 0.37246 0.92534 0.27851 0.0
C67 C 0.36276 0.8377 0.14855 0.0
Co68 Co 0.13809 0.37837 0.32101 0.0
Co69 Co 0.14482 0.35217 0.47328 0.0
C70 C 0.17958 0.39729 0.40166 0.0
O71 O 0.16765 0.39926 0.34667 0.0
O72 O 0.17278 0.37992 0.45376 0.0
C73 C 0.14138 0.40959 0.18497 0.0
O74 O 0.15952 0.42546 0.2096 0.0
C75 C 0.1491 0.36172 0.62313 0.0
C76 C 0.13496 0.31365 0.66407 0.0
C77 C 0.14297 0.34514 0.68395 0.0
N78 N 0.14463 0.34109 0.56963 0.0
N79 N 0.13667 0.31214 0.59453 0.0
C80 C 0.15621 0.39779 0.61492 0.0
H81 H 0.15167 0.40694 0.56233 0.0
H82 H 0.14834 0.41297 0.65495 0.0
H83 H 0.17471 0.40074 0.62153 0.0
C84 C 0.09636 0.40191 0.38127 0.0
N85 N 0.1162 0.38751 0.38708 0.0
N86 N 0.11852 0.37553 0.4505 0.0
C87 C 0.09992 0.38147 0.4867 0.0
C88 C 0.08538 0.39843 0.4442 0.0
C89 C 0.08748 0.41606 0.31502 0.0
H90 H 0.08435 0.39561 0.27723 0.0
H91 H 0.10029 0.43389 0.29243 0.0
H92 H 0.07164 0.42876 0.32327 0.0
O93 O 0.14019 0.3298 0.31377 0.0
O94 O 0.14481 0.3099 0.42037 0.0
H95 H 0.0986 0.3435 0.56548 0.0
H96 H 0.07845 0.37497 0.57676 0.0
C97 C 0.09575 0.37043 0.5601 0.0
H98 H 0.10756 0.38451 0.59507 0.0
H99 H 0.13123 0.29198 0.56377 0.0
O100 O 0.12928 0.39134 0.2255 0.0
C101 C 0.14265 0.30543 0.35521 0.0
Co102 Co 0.37477 0.53248 0.31638 0.0
Co103 Co 0.36903 0.55774 0.46802 0.0
C104 C 0.33438 0.51153 0.39833 0.0
O105 O 0.34578 0.51023 0.34296 0.0
O106 O 0.34142 0.52897 0.44985 0.0
C107 C 0.37141 0.50091 0.18156 0.0
O108 O 0.35347 0.48461 0.20579 0.0
C109 C 0.36531 0.54803 0.61776 0.0
C110 C 0.38014 0.59568 0.65792 0.0
C111 C 0.37176 0.56436 0.67831 0.0
N112 N 0.3699 0.56864 0.56388 0.0
N113 N 0.37831 0.59734 0.58824 0.0
C114 C 0.35768 0.51215 0.6103 0.0
H115 H 0.36282 0.50259 0.5593 0.0
H116 H 0.36465 0.4968 0.65276 0.0
H117 H 0.33909 0.50995 0.61299 0.0
C118 C 0.4171 0.5092 0.37664 0.0
N119 N 0.39742 0.5239 0.38212 0.0
N120 N 0.39552 0.53543 0.44544 0.0
C121 C 0.41425 0.52889 0.48198 0.0
C122 C 0.42844 0.51202 0.4397 0.0
C123 C 0.42527 0.49468 0.31092 0.0
H124 H 0.42741 0.51475 0.27122 0.0
H125 H 0.41245 0.4761 0.29083 0.0
H126 H 0.44148 0.48274 0.31887 0.0
O127 O 0.37153 0.58096 0.30748 0.0
O128 O 0.36755 0.59995 0.41408 0.0
H129 H 0.41613 0.56534 0.56249 0.0
H130 H 0.43571 0.53288 0.57372 0.0
C131 C 0.41853 0.53839 0.55612 0.0
H132 H 0.40645 0.52413 0.58964 0.0
H133 H 0.38389 0.61742 0.5571 0.0
O134 O 0.38323 0.51976 0.22178 0.0
C135 C 0.36887 0.60489 0.34882 0.0
Co136 Co 0.86332 0.87645 0.97293 0.0
Co137 Co 0.87193 0.90025 0.81995 0.0
C138 C 0.83174 0.9206 0.89955 0.0
O139 O 0.83776 0.90449 0.95323 0.0
O140 O 0.84347 0.92138 0.84452 0.0
C141 C 0.84328 0.85949 0.106 0.0
O142 O 0.82467 0.87013 0.07862 0.0
C143 C 0.86275 0.90031 0.67001 0.0
C144 C 0.89679 0.91082 0.62837 0.0
C145 C 0.87486 0.90212 0.60893 0.0
N146 N 0.877 0.90707 0.72323 0.0
N147 N 0.8972 0.91419 0.69781 0.0
C148 C 0.83878 0.88826 0.67859 0.0
H149 H 0.83577 0.87922 0.73248 0.0
H150 H 0.83425 0.8681 0.64114 0.0
H151 H 0.82782 0.90923 0.66774 0.0
C152 C 0.8633 0.80997 0.90612 0.0
N153 N 0.86493 0.84353 0.90376 0.0
N154 N 0.86953 0.85347 0.83985 0.0
C155 C 0.87157 0.82638 0.79997 0.0
C156 C 0.8673 0.79803 0.84019 0.0
C157 C 0.85766 0.79006 0.97012 0.0
H158 H 0.87286 0.7893 0.00375 0.0
H159 H 0.84453 0.80225 -0.0004 0.0
H160 H 0.85176 0.76419 0.95719 0.0
O161 O 0.89217 0.903 0.9773 0.0
O162 O 0.89855 0.9205 0.86965 0.0
H163 H 0.89286 0.84773 0.72027 0.0
H164 H 0.88759 0.80349 0.71352 0.0
C165 C 0.87997 0.82719 0.72693 0.0
H166 H 0.86578 0.83085 0.69054 0.0
H167 H 0.91153 0.91928 0.72821 0.0
O168 O 0.86048 0.8576 0.06804 0.0
C169 C 0.90447 0.91879 0.93324 0.0
Co170 Co 0.63345 0.01871 0.81841 0.0
Co171 Co 0.64084 0.04693 0.96836 0.0
C172 C 0.67579 0.00794 0.89499 0.0
O173 O 0.66344 0.0028 0.84145 0.0
O174 O 0.66898 0.02449 0.9461 0.0
C175 C 0.63542 0.98736 0.68408 0.0
O176 O 0.65295 0.97272 0.70947 0.0
C177 C 0.64291 0.03447 0.1178 0.0
C178 C 0.63839 0.08438 0.16095 0.0
C179 C 0.64054 0.05127 0.18006 0.0
N180 N 0.64169 0.05653 0.06514 0.0
N181 N 0.63922 0.08638 0.09125 0.0
C182 C 0.64667 0.99832 0.10729 0.0
H183 H 0.65444 0.9944 0.05623 0.0
H184 H 0.6303 0.98392 0.10785 0.0
H185 H 0.65758 0.98873 0.14919 0.0
C186 C 0.59173 0.98986 0.88211 0.0
N187 N 0.61197 0.00621 0.88651 0.0
N188 N 0.61433 0.01992 0.94809 0.0
C189 C 0.59525 0.01379 0.98403 0.0
C190 C 0.58034 0.99411 0.94391 0.0
C191 C 0.58339 0.97163 0.81879 0.0
H192 H 0.59752 0.95985 0.79319 0.0
H193 H 0.57017 0.95225 0.83216 0.0
H194 H 0.57633 0.98965 0.78155 0.0
O195 O 0.63533 0.06787 0.80958 0.0
O196 O 0.64012 0.08918 0.91488 0.0
H197 H 0.59834 0.05646 0.05067 0.0
H198 H 0.57155 0.03406 0.05469 0.0
C199 C 0.58987 0.03129 0.04976 0.0
H200 H 0.59572 0.0167 0.09498 0.0
H201 H 0.63754 0.10794 0.06143 0.0
O202 O 0.62398 0.00484 0.72382 0.0
C203 C 0.63773 0.09289 0.84951 0.0
Co204 Co 0.87775 0.49323 0.69179 0.0
Co205 Co 0.8767 0.51747 0.53668 0.0
C206 C 0.83799 0.47767 0.60137 0.0
O207 O 0.84845 0.47435 0.65878 0.0
O208 O 0.84692 0.49398 0.5509 0.0
C209 C 0.88133 0.45526 0.82693 0.0
O210 O 0.88108 0.42622 0.79616 0.0
C211 C 0.87437 0.50426 0.38816 0.0
C212 C 0.89135 0.54944 0.34295 0.0
C213 C 0.88176 0.51839 0.32607 0.0
N214 N 0.87958 0.52581 0.43951 0.0
N215 N 0.88938 0.55303 0.41207 0.0
C216 C 0.86482 0.46952 0.39991 0.0
H217 H 0.86915 0.46073 0.45296 0.0
H218 H 0.87115 0.45225 0.36084 0.0
H219 H 0.84627 0.4694 0.39498 0.0
C220 C 0.92074 0.46566 0.64538 0.0
N221 N 0.90157 0.48138 0.63398 0.0
N222 N 0.90084 0.49137 0.56861 0.0
C223 C 0.91941 0.48194 0.53639 0.0
C224 C 0.93246 0.46515 0.58361 0.0
C225 C 0.92779 0.45182 0.71407 0.0
H226 H 0.92376 0.46915 0.7561 0.0
H227 H 0.91836 0.42771 0.72321 0.0
H228 H 0.94598 0.44736 0.71552 0.0
O229 O 0.87667 0.54195 0.69382 0.0
O230 O 0.87723 0.56102 0.58554 0.0
H231 H 0.92368 0.51841 0.45529 0.0
H232 H 0.9434 0.48613 0.45235 0.0
C233 C 0.92574 0.49144 0.46356 0.0
H234 H 0.91465 0.4772 0.42671 0.0
H235 H 0.89553 0.57346 0.44086 0.0
O236 O 0.88089 0.48202 0.79148 0.0
C237 C 0.87674 0.56607 0.65071 0.0
Co238 Co 0.63273 0.39714 0.68844 0.0
Co239 Co 0.6329 0.375 0.53302 0.0
C240 C 0.67283 0.41097 0.59955 0.0
O241 O 0.66265 0.41378 0.65677 0.0
O242 O 0.6633 0.39638 0.5479 0.0
C243 C 0.63134 0.43574 0.82047 0.0
O244 O 0.63311 0.46438 0.78712 0.0
C245 C 0.63544 0.38863 0.38442 0.0
C246 C 0.6164 0.34524 0.3394 0.0
C247 C 0.62737 0.37539 0.3223 0.0
N248 N 0.62934 0.36745 0.436 0.0
N249 N 0.61828 0.34129 0.40872 0.0
C250 C 0.6466 0.42238 0.39583 0.0
H251 H 0.66506 0.42049 0.39279 0.0
H252 H 0.64256 0.43165 0.44812 0.0
H253 H 0.64128 0.44036 0.35553 0.0
C254 C 0.59083 0.42853 0.64079 0.0
N255 N 0.60943 0.41164 0.62975 0.0
N256 N 0.60976 0.4026 0.56414 0.0
C257 C 0.59155 0.41398 0.53131 0.0
C258 C 0.57912 0.43091 0.57851 0.0
C259 C 0.58423 0.44153 0.70973 0.0
H260 H 0.58791 0.42324 0.75125 0.0
H261 H 0.59419 0.46503 0.72026 0.0
H262 H 0.56618 0.44689 0.71057 0.0
O263 O 0.63159 0.34825 0.69075 0.0
O264 O 0.63134 0.33095 0.58175 0.0
H265 H 0.58555 0.3792 0.44888 0.0
H266 H 0.56775 0.41396 0.44515 0.0
C267 C 0.58495 0.40632 0.45771 0.0
H268 H 0.59687 0.41971 0.42221 0.0
H269 H 0.61128 0.32136 0.43769 0.0
O270 O 0.63026 0.40848 0.78748 0.0
C271 C 0.63106 0.32484 0.64677 0.0
H272 H 0.29301 0.91425 0.99291 0.0
H273 H 0.29833 0.94844 0.20498 0.0
H274 H 0.25365 0.92777 0.98935 0.0
H275 H 0.25909 0.9625 0.2008 0.0
H276 H 0.19094 0.99125 0.98972 0.0
H277 H 0.22987 0.97548 0.98963 0.0
H278 H 0.22192 0.93407 0.19621 0.0
H279 H 0.18316 0.95031 0.197 0.0
C280 C 0.28586 0.92486 0.03865 0.0
C281 C 0.29886 0.93014 0.09935 0.0
C282 C 0.26329 0.93273 0.03645 0.0
C283 C 0.25317 0.94598 0.09493 0.0
C284 C 0.26626 0.95176 0.15524 0.0
C285 C 0.28883 0.94396 0.15742 0.0
C286 C 0.19741 0.97848 0.03489 0.0
C287 C 0.18392 0.97226 0.09354 0.0
C288 C 0.21973 0.96937 0.03474 0.0
C289 C 0.22908 0.95386 0.09323 0.0
C290 C 0.21536 0.94658 0.15086 0.0
C291 C 0.19305 0.95563 0.151 0.0
H292 H 0.21014 0.39925 0.50926 0.0
H293 H 0.20006 0.43482 0.29918 0.0
H294 H 0.24785 0.42592 0.51032 0.0
H295 H 0.23746 0.46185 0.30093 0.0
H296 H 0.31343 0.47341 0.2976 0.0
H297 H 0.27624 0.44568 0.30093 0.0
H298 H 0.26743 0.48122 0.50941 0.0
H299 H 0.3049 0.50856 0.50678 0.0
C300 C 0.21588 0.41289 0.46348 0.0
C301 C 0.20208 0.41472 0.404 0.0
C302 C 0.23746 0.4283 0.46425 0.0
C303 C 0.2457 0.4458 0.40554 0.0
C304 C 0.23176 0.44806 0.34657 0.0
C305 C 0.21023 0.43273 0.34579 0.0
C306 C 0.30365 0.47522 0.34437 0.0
C307 C 0.31215 0.49338 0.4018 0.0
C308 C 0.28225 0.45949 0.34606 0.0
C309 C 0.2688 0.46149 0.4052 0.0
C310 C 0.27744 0.47902 0.46325 0.0
C311 C 0.29888 0.49482 0.46156 0.0
H312 H 0.69635 0.97234 0.79546 0.0
H313 H 0.70753 0.01583 0.99822 0.0
H314 H 0.73447 0.95332 0.79713 0.0
H315 H 0.74581 0.99745 -0.00095 0.0
H316 H 0.80311 0.92527 0.00853 0.0
H317 H 0.76579 0.94684 0.00742 0.0
H318 H 0.77335 0.97425 0.79117 0.0
H319 H 0.81062 0.95184 0.79167 0.0
C320 C 0.70692 0.97791 0.84037 0.0
C321 C 0.69881 0.99557 0.89678 0.0
C322 C 0.72887 0.96725 0.84102 0.0
C323 C 0.74326 0.97399 0.89806 0.0
C324 C 0.73512 0.99153 0.95459 0.0
C325 C 0.71316 0.00217 0.95399 0.0
C326 C 0.79693 0.93607 0.96075 0.0
C327 C 0.80989 0.93668 0.90009 0.0
C328 C 0.77553 0.94863 0.96026 0.0
C329 C 0.76651 0.96215 0.89915 0.0
C330 C 0.77966 0.96353 0.83887 0.0
C331 C 0.80112 0.95095 0.83932 0.0
H332 H 0.80899 0.48383 0.49102 0.0
H333 H 0.81327 0.44271 0.69879 0.0
H334 H 0.76888 0.46843 0.48739 0.0
H335 H 0.7734 0.42687 0.69443 0.0
H336 H 0.70105 0.40623 0.48894 0.0
H337 H 0.74129 0.42067 0.48594 0.0
H338 H 0.73882 0.45682 0.69614 0.0
H339 H 0.69883 0.44195 0.69982 0.0
C340 C 0.80147 0.47113 0.53554 0.0
C341 C 0.81433 0.46481 0.59548 0.0
C342 C 0.7785 0.46224 0.53333 0.0
C343 C 0.76792 0.44688 0.591 0.0
C344 C 0.78096 0.43936 0.64974 0.0
C345 C 0.80388 0.44821 0.65198 0.0
C346 C 0.70906 0.41748 0.53436 0.0
C347 C 0.69672 0.42269 0.59483 0.0
C348 C 0.73211 0.42581 0.53252 0.0
C349 C 0.74328 0.43946 0.59111 0.0
C350 C 0.73079 0.44565 0.65067 0.0
C351 C 0.7078 0.43737 0.65253 0.0
H352 H 0.92292 0.91855 0.06401 0.0
H353 H 0.93735 0.94904 0.85261 0.0
H354 H 0.96146 0.93397 0.09785 0.0
H355 H 0.97582 0.96512 0.887 0.0
H356 H 0.04836 0.94857 0.95227 0.0
H357 H 0.00902 0.93614 0.92152 0.0
H358 H 0.9889 0.98034 0.11338 0.0
H359 H 0.02839 0.99254 0.14397 0.0
C360 C 0.93419 0.92903 0.02489 0.0
C361 C 0.92702 0.93234 0.9554 0.0
C362 C 0.95631 0.93798 0.04445 0.0
C363 C 0.97181 0.95045 0.99502 0.0
C364 C 0.96441 0.95498 0.92611 0.0
C365 C 0.94228 0.94605 0.90651 0.0
C366 C 0.03548 0.9555 0.98782 0.0
C367 C 0.04133 0.97142 0.05045 0.0
C368 C 0.01296 0.94864 0.97007 0.0
C369 C 0.99577 0.95755 0.01465 0.0
C370 C 0.00171 0.97292 0.07811 0.0
C371 C 0.02429 0.97981 0.0958 0.0
H372 H 0.43509 0.99072 0.98167 0.0
H373 H 0.45427 0.91219 0.12033 0.0
H374 H 0.47445 0.00334 0.95346 0.0
H375 H 0.49358 0.92296 0.08944 0.0
H376 H 0.56433 0.9687 0.06622 0.0
H377 H 0.52537 0.95798 0.09937 0.0
H378 H 0.5041 0.98425 0.89134 0.0
H379 H 0.54296 0.99784 0.86076 0.0
C380 C 0.44789 0.9763 0.00619 0.0
C381 C 0.44192 0.95086 0.05363 0.0
C382 C 0.47042 0.98311 0.98941 0.0
C383 C 0.48739 0.96401 0.01854 0.0
C384 C 0.48118 0.93864 0.0667 0.0
C385 C 0.45868 0.93232 0.08441 0.0
C386 C 0.55126 0.97232 0.02781 0.0
C387 C 0.55672 0.98412 0.96094 0.0
C388 C 0.52888 0.96582 0.04651 0.0
C389 C 0.51136 0.97032 0.99828 0.0
C390 C 0.51698 0.98113 0.93055 0.0
C391 C 0.53936 0.98825 0.91236 0.0
H392 H 0.07027 0.46062 0.45739 0.0
H393 H 0.04945 0.35643 0.47011 0.0
H394 H 0.03292 0.47549 0.4951 0.0
H395 H 0.01215 0.371 0.50794 0.0
H396 H 0.94173 0.41594 0.49525 0.0
H397 H 0.97879 0.39913 0.46008 0.0
H398 H 0.00999 0.46959 0.60421 0.0
H399 H 0.97278 0.48636 0.63893 0.0
C400 C 0.05755 0.44102 0.46776 0.0
C401 C 0.06248 0.4075 0.46101 0.0
C402 C 0.03634 0.44942 0.48992 0.0
C403 C 0.0197 0.42437 0.50497 0.0
C404 C 0.02459 0.39081 0.49644 0.0
C405 C 0.04585 0.38247 0.47489 0.0
C406 C 0.95657 0.42727 0.52014 0.0
C407 C 0.9546 0.45204 0.5702 0.0
C408 C 0.97772 0.41776 0.50006 0.0
C409 C 0.99727 0.4332 0.52915 0.0
C410 C 0.99521 0.45754 0.58043 0.0
C411 C 0.97401 0.46683 0.60093 0.0
H412 H 0.44165 0.44845 0.44797 0.0
H413 H 0.46544 0.55082 0.47289 0.0
H414 H 0.47846 0.4299 0.48549 0.0
H415 H 0.50226 0.53253 0.51048 0.0
H416 H 0.5711 0.48303 0.49354 0.0
H417 H 0.53456 0.50346 0.45931 0.0
H418 H 0.50173 0.43092 0.59626 0.0
H419 H 0.53841 0.41062 0.63019 0.0
C420 C 0.45488 0.46687 0.4611 0.0
C421 C 0.45095 0.50093 0.45774 0.0
C422 C 0.47581 0.45635 0.4831 0.0
C423 C 0.49315 0.4798 0.50134 0.0
C424 C 0.48924 0.51394 0.49647 0.0
C425 C 0.46826 0.5244 0.47513 0.0
C426 C 0.55603 0.47197 0.51701 0.0
C427 C 0.55737 0.44564 0.5649 0.0
C428 C 0.53518 0.48356 0.4975 0.0
C429 C 0.51532 0.46866 0.52491 0.0
C430 C 0.51677 0.44263 0.57384 0.0
C431 C 0.53767 0.43128 0.59385 0.0
H432 H 0.09874 0.05493 0.71488 0.0
H433 H 0.14978 0.98643 0.76855 0.0
H434 H 0.09875 0.03557 0.59528 0.0
H435 H 0.14901 0.96589 0.65004 0.0
H436 H 0.16517 0.98202 0.41624 0.0
H437 H 0.16173 0.98899 0.5406 0.0
H438 H 0.08954 0.98867 0.51817 0.0
H439 H 0.09303 0.98242 0.39269 0.0
C440 C 0.10969 0.03535 0.70134 0.0
C441 C 0.12403 0.02189 0.75134 0.0
C442 C 0.1095 0.02395 0.63308 0.0
C443 C 0.12375 -0.00102 0.61329 0.0
C444 C 0.13784 0.98517 0.66366 0.0
C445 C 0.13806 0.99663 0.73188 0.0
C446 C 0.14852 0.98286 0.43784 0.0
C447 C 0.1294 0.98217 0.39455 0.0
C448 C 0.14653 0.98664 0.50933 0.0
C449 C 0.12537 0.98976 0.53918 0.0
C450 C 0.10611 0.98691 0.49643 0.0
C451 C 0.10809 0.98307 0.4247 0.0
H452 H 0.39104 0.90708 0.38807 0.0
H453 H 0.33876 0.97623 0.41753 0.0
H454 H 0.39166 0.89547 0.51228 0.0
H455 H 0.33991 0.96484 0.54284 0.0
H456 H 0.37087 0.94648 0.7733 0.0
H457 H 0.37175 0.96629 0.65331 0.0
H458 H 0.35576 0.86628 0.58251 0.0
H459 H 0.35346 0.84652 0.70245 0.0
C460 C 0.38002 0.9204 0.42108 0.0
C461 C 0.36457 0.94222 0.39272 0.0
C462 C 0.38038 0.91361 0.49212 0.0
C463 C 0.36562 0.92895 0.53637 0.0
C464 C 0.35139 0.95271 0.50928 0.0
C465 C 0.35076 0.95918 0.43776 0.0
C466 C 0.36663 0.92883 0.73272 0.0
C467 C 0.36134 0.89499 0.74792 0.0
C468 C 0.36751 0.94021 0.66391 0.0
C469 C 0.36382 0.91776 0.60925 0.0
C470 C 0.35876 0.88399 0.62412 0.0
C471 C 0.35744 0.87275 0.6927 0.0
H472 H 0.10639 0.34268 0.76581 0.0
H473 H 0.1755 0.37945 0.75867 0.0
H474 H 0.10313 0.36454 0.88252 0.0
H475 H 0.17297 0.39953 0.87752 0.0
H476 H 0.11419 0.36396 0.11672 0.0
H477 H 0.11359 0.35191 0.99409 0.0
H478 H 0.15955 0.4369 0.95688 0.0
H479 H 0.16115 0.4477 0.0814 0.0
C480 C 0.12095 0.35526 0.78984 0.0
C481 C 0.14123 0.35922 0.75394 0.0
C482 C 0.11917 0.36768 0.85688 0.0
C483 C 0.13785 0.38354 0.89042 0.0
C484 C 0.15808 0.38799 0.85344 0.0
C485 C 0.15967 0.37624 0.78557 0.0
C486 C 0.12391 0.38046 0.0824 0.0
C487 C 0.13788 0.40665 0.10901 0.0
C488 C 0.12349 0.37363 0.01152 0.0
C489 C 0.13666 0.39322 0.96491 0.0
C490 C 0.14959 0.42072 0.99116 0.0
C491 C 0.15033 0.42719 0.06251 0.0
H492 H 0.39955 0.54517 0.1133 0.0
H493 H 0.35128 0.46298 0.07837 0.0
H494 H 0.40068 0.55664 0.99014 0.0
H495 H 0.35337 0.47321 0.95341 0.0
H496 H 0.33857 0.5316 0.75192 0.0
H497 H 0.34065 0.51133 0.87164 0.0
H498 H 0.41112 0.54293 0.88012 0.0
H499 H 0.40835 0.56502 0.76236 0.0
C500 C 0.38962 0.52888 0.07905 0.0
C501 C 0.37513 0.50336 0.10581 0.0
C502 C 0.39036 0.53536 0.00788 0.0
C503 C 0.37697 0.51607 0.96121 0.0
C504 C 0.36352 0.48914 0.98774 0.0
C505 C 0.36248 0.48301 0.05935 0.0
C506 C 0.35444 0.53403 0.77978 0.0
C507 C 0.37322 0.55017 0.74883 0.0
C508 C 0.35576 0.52215 0.84812 0.0
C509 C 0.37605 0.52563 0.88626 0.0
C510 C 0.39506 0.54056 0.85345 0.0
C511 C 0.39355 0.55312 0.78588 0.0
H512 H 0.81062 0.86122 0.20502 0.0
H513 H 0.882 0.85283 0.17999 0.0
H514 H 0.81612 0.86582 0.33045 0.0
H515 H 0.88766 0.85917 0.30359 0.0
H516 H 0.8943 0.85607 0.5318 0.0
H517 H 0.88424 0.83811 0.41471 0.0
H518 H 0.82982 0.90537 0.41147 0.0
H519 H 0.83925 0.92152 0.53082 0.0
C520 C 0.82744 0.85999 0.22632 0.0
C521 C 0.84586 0.85684 0.1824 0.0
C522 C 0.83064 0.863 0.2982 0.0
C523 C 0.85237 0.86328 0.3276 0.0
C524 C 0.87062 0.85857 0.2836 0.0
C525 C 0.86738 0.8551 0.21218 0.0
C526 C 0.88008 0.86672 0.50597 0.0
C527 C 0.86767 0.89039 0.53955 0.0
C528 C 0.87434 0.85659 0.43873 0.0
C529 C 0.85642 0.87063 0.40266 0.0
C530 C 0.84356 0.89365 0.43754 0.0
C531 C 0.84902 0.90318 0.50567 0.0
H532 H 0.60957 0.0309 0.61424 0.0
H533 H 0.65465 0.95169 0.58173 0.0
H534 H 0.61008 0.04374 0.49039 0.0
H535 H 0.65464 0.96434 0.45688 0.0
H536 H 0.62597 0.98834 0.22768 0.0
H537 H 0.62358 0.96897 0.34764 0.0
H538 H 0.64697 0.06635 0.41802 0.0
H539 H 0.65079 0.08546 0.29799 0.0
C540 C 0.61916 0.01567 0.58058 0.0
C541 C 0.63226 0.99043 0.608 0.0
C542 C 0.61953 0.02321 0.50975 0.0
C543 C 0.6326 0.00526 0.46469 0.0
C544 C 0.64446 0.97852 0.49093 0.0
C545 C 0.64445 0.97132 0.56221 0.0
C546 C 0.6315 0.00539 0.26804 0.0
C547 C 0.63933 0.03827 0.25252 0.0
C548 C 0.62975 0.99431 0.33697 0.0
C549 C 0.6351 0.01619 0.39164 0.0
C550 C 0.64265 0.04907 0.37651 0.0
C551 C 0.64484 0.05993 0.30778 0.0
H552 H 0.91636 0.51713 0.23603 0.0
H553 H 0.84655 0.48581 0.25994 0.0
H554 H 0.91562 0.49467 0.11797 0.0
H555 H 0.84569 0.46407 0.14116 0.0
H556 H 0.85434 0.49407 0.89805 0.0
H557 H 0.85379 0.50314 0.02319 0.0
H558 H 0.90532 0.43262 0.05239 0.0
H559 H 0.9053 0.42251 0.92621 0.0
C560 C 0.90094 0.50518 0.21608 0.0
C561 C 0.88151 0.50311 0.25672 0.0
C562 C 0.90059 0.4921 0.14907 0.0
C563 C 0.88066 0.47747 0.12114 0.0
C564 C 0.86129 0.47499 0.16209 0.0
C565 C 0.86178 0.48739 0.22973 0.0
C566 C 0.86529 0.48008 0.93133 0.0
C567 C 0.87989 0.45764 0.90291 0.0
C568 C 0.86488 0.48516 0.00275 0.0
C569 C 0.87947 0.46852 0.04698 0.0
C570 C 0.89387 0.44559 0.01896 0.0
C571 C 0.89382 0.43977 0.94724 0.0
H572 H 0.59319 0.38005 0.22925 0.0
H573 H 0.66397 0.40451 0.25815 0.0
H574 H 0.5952 0.4022 0.11029 0.0
H575 H 0.66606 0.42598 0.13857 0.0
H576 H 0.65704 0.39589 0.89673 0.0
H577 H 0.65707 0.38781 0.02254 0.0
H578 H 0.60788 0.46221 0.04177 0.0
H579 H 0.60846 0.47124 0.91491 0.0
C580 C 0.6091 0.39047 0.21021 0.0
C581 C 0.62842 0.39068 0.25249 0.0
C582 C 0.61019 0.40339 0.14266 0.0
C583 C 0.63074 0.41597 0.11591 0.0
C584 C 0.65001 0.41665 0.15854 0.0
C585 C 0.64881 0.40441 0.22665 0.0
C586 C 0.64655 0.41096 0.928 0.0
C587 C 0.63273 0.43414 0.89664 0.0
C588 C 0.64665 0.40645 -0.00022 0.0
C589 C 0.63251 0.42444 0.04139 0.0
C590 C 0.61897 0.44818 0.01038 0.0
C591 C 0.61934 0.4534 0.9383 0.0
H592 H 0.12183 0.09276 0.28613 0.0
H593 H 0.14465 0.1318 0.08785 0.0
H594 H 0.12596 0.14829 0.33523 0.0
H595 H 0.14967 0.1872 0.1377 0.0
H596 H 0.13041 0.28647 0.22421 0.0
H597 H 0.1281 0.2308 0.17655 0.0
H598 H 0.15212 0.19135 0.37169 0.0
H599 H 0.15358 0.2473 0.42055 0.0
C600 C 0.12794 0.11316 0.25314 0.0
C601 C 0.13278 0.10788 0.18291 0.0
C602 C 0.13048 0.14501 0.28151 0.0
C603 C 0.13814 0.17233 0.24054 0.0
C604 C 0.14334 0.16689 0.17053 0.0
C605 C 0.14056 0.13509 0.14194 0.0
C606 C 0.1353 0.26599 0.25707 0.0
C607 C 0.14217 0.27137 0.32632 0.0
C608 C 0.13412 0.23399 0.22945 0.0
C609 C 0.14001 0.20648 0.27005 0.0
C610 C 0.14715 0.21188 0.33918 0.0
C611 C 0.14812 0.24397 0.36713 0.0
H612 H 0.37458 0.81906 0.27983 0.0
H613 H 0.35251 0.77874 0.08184 0.0
H614 H 0.37587 0.76309 0.3276 0.0
H615 H 0.35295 0.72252 0.13056 0.0
H616 H 0.37935 0.62611 0.21764 0.0
H617 H 0.37779 0.68199 0.16933 0.0
H618 H 0.35297 0.71662 0.36459 0.0
H619 H 0.3554 0.66079 0.41386 0.0
C620 C 0.3698 0.79822 0.24657 0.0
C621 C 0.36344 0.80339 0.17693 0.0
C622 C 0.37039 0.76606 0.27422 0.0
C623 C 0.36442 0.73818 0.23318 0.0
C624 C 0.35798 0.74336 0.16347 0.0
C625 C 0.35762 0.7756 0.13555 0.0
C626 C 0.37354 0.64563 0.25035 0.0
C627 C 0.36754 0.63898 0.31973 0.0
C628 C 0.3725 0.67769 0.22241 0.0
C629 C 0.3652 0.70391 0.26287 0.0
C630 C 0.35902 0.69718 0.33217 0.0
C631 C 0.36029 0.66513 0.3604 0.0
H632 H 0.89017 0.74717 0.89692 0.0
H633 H 0.84517 0.77107 0.729 0.0
H634 H 0.89305 0.69112 0.85029 0.0
H635 H 0.84772 0.71506 0.68254 0.0
H636 H 0.877 0.62538 0.5781 0.0
H637 H 0.87464 0.6813 0.62556 0.0
H638 H 0.87119 0.63961 0.83301 0.0
H639 H 0.87407 0.5842 0.78628 0.0
C640 C 0.88062 0.74014 0.8507 0.0
C641 C 0.86746 0.76321 0.81644 0.0
C642 C 0.88228 0.70816 0.82382 0.0
C643 C 0.87074 0.6987 0.76233 0.0
C644 C 0.85718 0.72173 0.72914 0.0
C645 C 0.85557 0.75366 0.75595 0.0
C646 C 0.87583 0.62821 0.63381 0.0
C647 C 0.87574 0.60028 0.67824 0.0
C648 C 0.87434 0.66021 0.661 0.0
C649 C 0.8727 0.6649 0.73313 0.0
C650 C 0.87275 0.63696 0.77737 0.0
C651 C 0.87427 0.60511 0.75034 0.0
H652 H 0.62501 0.10961 0.71771 0.0
H653 H 0.64899 0.15269 0.91129 0.0
H654 H 0.62274 0.16501 0.66735 0.0
H655 H 0.64754 0.20821 0.85997 0.0
H656 H 0.61958 0.30285 0.7761 0.0
H657 H 0.6211 0.24686 0.82347 0.0
H658 H 0.64439 0.21236 0.62617 0.0
H659 H 0.64204 0.26853 0.57783 0.0
C660 C 0.63003 0.13092 0.74938 0.0
C661 C 0.63712 0.12672 0.8187 0.0
C662 C 0.62884 0.16273 0.72026 0.0
C663 C 0.6349 0.19116 0.75951 0.0
C664 C 0.64232 0.18691 0.82857 0.0
C665 C 0.6433 0.15507 0.85795 0.0
C666 C 0.62494 0.28331 0.7426 0.0
C667 C 0.63077 0.29015 0.6732 0.0
C668 C 0.62599 0.2512 0.77003 0.0
C669 C 0.63315 0.2251 0.72904 0.0
C670 C 0.63861 0.23179 0.65912 0.0
C671 C 0.63731 0.26398 0.63136 0.0
loop_
_geom_bond_atom_site_label_1
_geom_bond_atom_site_label_2
_geom_bond_distance
_geom_bond_site_symmetry_2
_ccdc_geom_bond_type
Co0 O3 1.970 1_545 S
Co0 N17 1.989 1_545 S
Co0 O25 1.967 . S
Co0 O32 1.920 . S
Co1 O4 1.966 . S
Co1 N10 2.022 1_554 S
Co1 N18 1.993 . S
Co1 O26 1.941 . S
C2 O3 1.255 1_545 S
C2 O4 1.271 . S
O3 Co0 1.970 1_565 S
O3 C2 1.255 1_565 S
O4 Co1 1.966 . S
O4 C2 1.271 . S
C5 O6 1.235 . S
C5 O32 1.289 1_565 S
O6 C5 1.235 . S
C7 C9 1.400 . S
C7 N10 1.351 . S
C7 C12 1.501 1_545 S
C8 C9 1.387 . S
C8 N11 1.341 . S
C9 C7 1.400 . S
C9 C8 1.387 . S
N10 Co1 2.022 1_556 S
N10 C7 1.351 . S
N10 N11 1.365 . S
N11 C8 1.341 . S
N11 N10 1.365 . S
N11 H31 0.862 . S
C12 C7 1.501 1_565 S
C12 H13 0.961 . S
C12 H14 0.961 . S
C12 H15 0.960 1_565 S
H13 C12 0.961 . S
H14 C12 0.961 . S
H15 C12 0.960 1_545 S
C16 N17 1.342 . S
C16 C20 1.401 . S
C16 C21 1.499 . S
N17 Co0 1.989 1_565 S
N17 C16 1.342 . S
N17 N18 1.388 1_565 S
N18 Co1 1.993 . S
N18 N17 1.388 1_545 S
N18 C19 1.346 1_545 S
C19 N18 1.346 1_565 S
C19 C20 1.396 . S
C19 C29 1.510 1_554 S
C20 C16 1.401 . S
C20 C19 1.396 . S
C21 C16 1.499 . S
C21 H22 0.959 . S
C21 H23 0.960 . S
C21 H24 0.961 . S
H22 C21 0.959 . S
H23 C21 0.960 . S
H24 C21 0.961 . S
O25 Co0 1.967 . S
O25 C33 1.258 . S
O26 Co1 1.941 . S
O26 C33 1.266 . S
H27 C29 0.959 1_545 S
H28 C29 0.961 . S
C29 C19 1.510 1_556 S
C29 H27 0.959 1_565 S
C29 H28 0.961 . S
C29 H30 0.960 . S
H30 C29 0.960 . S
H31 N11 0.862 . S
O32 Co0 1.920 . S
O32 C5 1.289 1_545 S
C33 O25 1.258 . S
C33 O26 1.266 . S
Co34 O37 1.970 . S
Co34 N51 1.989 . S
Co34 O59 1.967 . S
Co34 O66 1.920 . S
Co35 O38 1.966 . S
Co35 N44 2.022 1_554 S
Co35 N52 1.993 . S
Co35 O60 1.941 . S
C36 O37 1.258 . S
C36 O38 1.263 . S
O37 Co34 1.970 . S
O37 C36 1.258 . S
O38 Co35 1.966 . S
O38 C36 1.263 . S
C39 O40 1.235 . S
C39 O66 1.289 . S
O40 C39 1.235 . S
C41 C43 1.400 . S
C41 N44 1.351 . S
C41 C46 1.501 . S
C42 C43 1.387 . S
C42 N45 1.341 . S
C43 C41 1.400 . S
C43 C42 1.387 . S
N44 Co35 2.022 1_556 S
N44 C41 1.351 . S
N44 N45 1.365 . S
N45 C42 1.341 . S
N45 N44 1.365 . S
N45 H65 0.862 . S
C46 C41 1.501 . S
C46 H47 0.961 . S
C46 H48 0.961 . S
C46 H49 0.960 . S
H47 C46 0.961 . S
H48 C46 0.961 . S
H49 C46 0.960 . S
C50 N51 1.342 . S
C50 C54 1.401 . S
C50 C55 1.499 . S
N51 Co34 1.989 . S
N51 C50 1.342 . S
N51 N52 1.388 . S
N52 Co35 1.993 . S
N52 N51 1.388 . S
N52 C53 1.346 . S
C53 N52 1.346 . S
C53 C54 1.396 . S
C53 C63 1.510 1_554 S
C54 C50 1.401 . S
C54 C53 1.396 . S
C55 C50 1.499 . S
C55 H56 0.959 . S
C55 H57 0.960 . S
C55 H58 0.961 . S
H56 C55 0.959 . S
H57 C55 0.960 . S
H58 C55 0.961 . S
O59 Co34 1.967 . S
O59 C67 1.258 . S
O60 Co35 1.941 . S
O60 C67 1.266 . S
H61 C63 0.959 . S
H62 C63 0.961 . S
C63 C53 1.510 1_556 S
C63 H61 0.959 . S
C63 H62 0.961 . S
C63 H64 0.960 . S
H64 C63 0.960 . S
H65 N45 0.862 . S
O66 Co34 1.920 . S
O66 C39 1.289 . S
C67 O59 1.258 . S
C67 O60 1.266 . S
Co68 O71 1.970 . S
Co68 N85 1.989 . S
Co68 O93 1.967 . S
Co68 O100 1.920 . S
Co69 O72 1.966 . S
Co69 N78 2.022 . S
Co69 N86 1.993 . S
Co69 O94 1.941 . S
C70 O71 1.258 . S
C70 O72 1.263 . S
O71 Co68 1.970 . S
O71 C70 1.258 . S
O72 Co69 1.966 . S
O72 C70 1.263 . S
C73 O74 1.235 . S
C73 O100 1.289 . S
O74 C73 1.235 . S
C75 C77 1.400 . S
C75 N78 1.351 . S
C75 C80 1.501 . S
C76 C77 1.387 . S
C76 N79 1.341 . S
C77 C75 1.400 . S
C77 C76 1.387 . S
N78 Co69 2.022 . S
N78 C75 1.351 . S
N78 N79 1.365 . S
N79 C76 1.341 . S
N79 N78 1.365 . S
N79 H99 0.862 . S
C80 C75 1.501 . S
C80 H81 0.961 . S
C80 H82 0.961 . S
C80 H83 0.960 . S
H81 C80 0.961 . S
H82 C80 0.961 . S
H83 C80 0.960 . S
C84 N85 1.342 . S
C84 C88 1.401 . S
C84 C89 1.499 . S
N85 Co68 1.989 . S
N85 C84 1.342 . S
N85 N86 1.388 . S
N86 Co69 1.993 . S
N86 N85 1.388 . S
N86 C87 1.346 . S
C87 N86 1.346 . S
C87 C88 1.396 . S
C87 C97 1.510 . S
C88 C84 1.401 . S
C88 C87 1.396 . S
C89 C84 1.499 . S
C89 H90 0.959 . S
C89 H91 0.960 . S
C89 H92 0.961 . S
H90 C89 0.959 . S
H91 C89 0.960 . S
H92 C89 0.961 . S
O93 Co68 1.967 . S
O93 C101 1.258 . S
O94 Co69 1.941 . S
O94 C101 1.266 . S
H95 C97 0.959 . S
H96 C97 0.961 . S
C97 C87 1.510 . S
C97 H95 0.959 . S
C97 H96 0.961 . S
C97 H98 0.960 . S
H98 C97 0.960 . S
H99 N79 0.862 . S
O100 Co68 1.920 . S
O100 C73 1.289 . S
C101 O93 1.258 . S
C101 O94 1.266 . S
Co102 O105 1.970 . S
Co102 N119 1.989 . S
Co102 O127 1.967 . S
Co102 O134 1.920 . S
Co103 O106 1.966 . S
Co103 N112 2.022 . S
Co103 N120 1.993 . S
Co103 O128 1.941 . S
C104 O105 1.258 . S
C104 O106 1.263 . S
O105 Co102 1.970 . S
O105 C104 1.258 . S
O106 Co103 1.966 . S
O106 C104 1.263 . S
C107 O108 1.235 . S
C107 O134 1.289 . S
O108 C107 1.235 . S
C109 C111 1.400 . S
C109 N112 1.351 . S
C109 C114 1.501 . S
C110 C111 1.387 . S
C110 N113 1.341 . S
C111 C109 1.400 . S
C111 C110 1.387 . S
N112 Co103 2.022 . S
N112 C109 1.351 . S
N112 N113 1.365 . S
N113 C110 1.341 . S
N113 N112 1.365 . S
N113 H133 0.862 . S
C114 C109 1.501 . S
C114 H115 0.961 . S
C114 H116 0.961 . S
C114 H117 0.960 . S
H115 C114 0.961 . S
H116 C114 0.961 . S
H117 C114 0.960 . S
C118 N119 1.342 . S
C118 C122 1.401 . S
C118 C123 1.499 . S
N119 Co102 1.989 . S
N119 C118 1.342 . S
N119 N120 1.388 . S
N120 Co103 1.993 . S
N120 N119 1.388 . S
N120 C121 1.346 . S
C121 N120 1.346 . S
C121 C122 1.396 . S
C121 C131 1.510 . S
C122 C118 1.401 . S
C122 C121 1.396 . S
C123 C118 1.499 . S
C123 H124 0.959 . S
C123 H125 0.960 . S
C123 H126 0.961 . S
H124 C123 0.959 . S
H125 C123 0.960 . S
H126 C123 0.961 . S
O127 Co102 1.967 . S
O127 C135 1.258 . S
O128 Co103 1.941 . S
O128 C135 1.266 . S
H129 C131 0.959 . S
H130 C131 0.961 . S
C131 C121 1.510 . S
C131 H129 0.959 . S
C131 H130 0.961 . S
C131 H132 0.960 . S
H132 C131 0.960 . S
H133 N113 0.862 . S
O134 Co102 1.920 . S
O134 C107 1.289 . S
C135 O127 1.258 . S
C135 O128 1.266 . S
Co136 O139 1.970 . S
Co136 N153 1.989 . S
Co136 O161 1.967 . S
Co136 O168 1.920 1_556 S
Co137 O140 1.966 . S
Co137 N146 2.022 . S
Co137 N154 1.993 . S
Co137 O162 1.941 . S
C138 O139 1.258 . S
C138 O140 1.263 . S
O139 Co136 1.970 . S
O139 C138 1.258 . S
O140 Co137 1.966 . S
O140 C138 1.263 . S
C141 O142 1.235 . S
C141 O168 1.289 . S
O142 C141 1.235 . S
C143 C145 1.400 . S
C143 N146 1.351 . S
C143 C148 1.501 . S
C144 C145 1.387 . S
C144 N147 1.341 . S
C145 C143 1.400 . S
C145 C144 1.387 . S
N146 Co137 2.022 . S
N146 C143 1.351 . S
N146 N147 1.365 . S
N147 C144 1.341 . S
N147 N146 1.365 . S
N147 H167 0.862 . S
C148 C143 1.501 . S
C148 H149 0.961 . S
C148 H150 0.961 . S
C148 H151 0.960 . S
H149 C148 0.961 . S
H150 C148 0.961 . S
H151 C148 0.960 . S
C152 N153 1.342 . S
C152 C156 1.401 . S
C152 C157 1.499 . S
N153 Co136 1.989 . S
N153 C152 1.342 . S
N153 N154 1.388 . S
N154 Co137 1.993 . S
N154 N153 1.388 . S
N154 C155 1.346 . S
C155 N154 1.346 . S
C155 C156 1.396 . S
C155 C165 1.510 . S
C156 C152 1.401 . S
C156 C155 1.396 . S
C157 C152 1.499 . S
C157 H158 0.959 . S
C157 H159 0.960 . S
C157 H160 0.961 . S
H158 C157 0.959 . S
H159 C157 0.960 . S
H160 C157 0.961 . S
O161 Co136 1.967 . S
O161 C169 1.258 . S
O162 Co137 1.941 . S
O162 C169 1.266 . S
H163 C165 0.959 . S
H164 C165 0.961 . S
C165 C155 1.510 . S
C165 H163 0.959 . S
C165 H164 0.961 . S
C165 H166 0.960 . S
H166 C165 0.960 . S
H167 N147 0.862 . S
O168 Co136 1.920 1_554 S
O168 C141 1.289 . S
C169 O161 1.258 . S
C169 O162 1.266 . S
Co170 O173 1.970 . S
Co170 N187 1.989 . S
Co170 O195 1.967 . S
Co170 O202 1.920 . S
Co171 O174 1.971 . S
Co171 N180 2.006 1_556 S
Co171 N188 1.998 . S
Co171 O196 1.948 . S
C172 O173 1.258 . S
C172 O174 1.263 . S
O173 Co170 1.970 . S
O173 C172 1.258 . S
O174 Co171 1.971 . S
O174 C172 1.263 . S
C175 O176 1.235 1_545 S
C175 O202 1.289 . S
O176 C175 1.235 1_565 S
C177 C179 1.400 . S
C177 N180 1.351 . S
C177 C182 1.501 . S
C178 C179 1.387 . S
C178 N181 1.341 . S
C179 C177 1.400 . S
C179 C178 1.387 . S
N180 Co171 2.006 1_554 S
N180 C177 1.351 . S
N180 N181 1.365 . S
N181 C178 1.341 . S
N181 N180 1.365 . S
N181 H201 0.862 . S
C182 C177 1.501 . S
C182 H183 0.961 . S
C182 H184 0.961 . S
C182 H185 0.960 . S
H183 C182 0.961 . S
H184 C182 0.961 . S
H185 C182 0.960 . S
C186 N187 1.342 . S
C186 C190 1.401 . S
C186 C191 1.499 . S
N187 Co170 1.989 . S
N187 C186 1.342 . S
N187 N188 1.388 . S
N188 Co171 1.998 . S
N188 N187 1.388 . S
N188 C189 1.340 1_556 S
C189 N188 1.340 1_554 S
C189 C190 1.387 1_554 S
C189 C199 1.523 . S
C190 C186 1.401 . S
C190 C189 1.387 1_556 S
C191 C186 1.499 . S
C191 H192 0.959 . S
C191 H193 0.960 . S
C191 H194 0.961 . S
H192 C191 0.959 . S
H193 C191 0.960 . S
H194 C191 0.961 . S
O195 Co170 1.967 . S
O195 C203 1.258 . S
O196 Co171 1.948 . S
O196 C203 1.266 . S
H197 C199 0.959 . S
H198 C199 0.961 . S
C199 C189 1.523 . S
C199 H197 0.959 . S
C199 H198 0.961 . S
C199 H200 0.960 . S
H200 C199 0.960 . S
H201 N181 0.862 . S
O202 Co170 1.920 . S
O202 C175 1.289 . S
C203 O195 1.258 . S
C203 O196 1.266 . S
Co204 O207 1.970 . S
Co204 N221 1.989 . S
Co204 O229 1.967 . S
Co204 O236 1.920 . S
Co205 O208 1.966 . S
Co205 N214 2.022 . S
Co205 N222 1.993 . S
Co205 O230 1.941 . S
C206 O207 1.258 . S
C206 O208 1.263 . S
O207 Co204 1.970 . S
O207 C206 1.258 . S
O208 Co205 1.966 . S
O208 C206 1.263 . S
C209 O210 1.235 . S
C209 O236 1.289 . S
O210 C209 1.235 . S
C211 C213 1.400 . S
C211 N214 1.351 . S
C211 C216 1.501 . S
C212 C213 1.387 . S
C212 N215 1.341 . S
C213 C211 1.400 . S
C213 C212 1.387 . S
N214 Co205 2.022 . S
N214 C211 1.351 . S
N214 N215 1.365 . S
N215 C212 1.341 . S
N215 N214 1.365 . S
N215 H235 0.862 . S
C216 C211 1.501 . S
C216 H217 0.961 . S
C216 H218 0.961 . S
C216 H219 0.960 . S
H217 C216 0.961 . S
H218 C216 0.961 . S
H219 C216 0.960 . S
C220 N221 1.342 . S
C220 C224 1.401 . S
C220 C225 1.499 . S
N221 Co204 1.989 . S
N221 C220 1.342 . S
N221 N222 1.388 . S
N222 Co205 1.993 . S
N222 N221 1.388 . S
N222 C223 1.346 . S
C223 N222 1.346 . S
C223 C224 1.396 . S
C223 C233 1.510 . S
C224 C220 1.401 . S
C224 C223 1.396 . S
C225 C220 1.499 . S
C225 H226 0.959 . S
C225 H227 0.960 . S
C225 H228 0.961 . S
H226 C225 0.959 . S
H227 C225 0.960 . S
H228 C225 0.961 . S
O229 Co204 1.967 . S
O229 C237 1.258 . S
O230 Co205 1.941 . S
O230 C237 1.266 . S
H231 C233 0.959 . S
H232 C233 0.961 . S
C233 C223 1.510 . S
C233 H231 0.959 . S
C233 H232 0.961 . S
C233 H234 0.960 . S
H234 C233 0.960 . S
H235 N215 0.862 . S
O236 Co204 1.920 . S
O236 C209 1.289 . S
C237 O229 1.258 . S
C237 O230 1.266 . S
Co238 O241 1.970 . S
Co238 N255 1.989 . S
Co238 O263 1.967 . S
Co238 O270 1.920 . S
Co239 O242 1.966 . S
Co239 N248 2.022 . S
Co239 N256 1.993 . S
Co239 O264 1.941 . S
C240 O241 1.258 . S
C240 O242 1.263 . S
O241 Co238 1.970 . S
O241 C240 1.258 . S
O242 Co239 1.966 . S
O242 C240 1.263 . S
C243 O244 1.235 . S
C243 O270 1.289 . S
O244 C243 1.235 . S
C245 C247 1.400 . S
C245 N248 1.351 . S
C245 C250 1.501 . S
C246 C247 1.387 . S
C246 N249 1.341 . S
C247 C245 1.400 . S
C247 C246 1.387 . S
N248 Co239 2.022 . S
N248 C245 1.351 . S
N248 N249 1.365 . S
N249 C246 1.341 . S
N249 N248 1.365 . S
N249 H269 0.862 . S
C250 C245 1.501 . S
C250 H251 0.961 . S
C250 H252 0.961 . S
C250 H253 0.960 . S
H251 C250 0.961 . S
H252 C250 0.961 . S
H253 C250 0.960 . S
C254 N255 1.342 . S
C254 C258 1.401 . S
C254 C259 1.499 . S
N255 Co238 1.989 . S
N255 C254 1.342 . S
N255 N256 1.388 . S
N256 Co239 1.993 . S
N256 N255 1.388 . S
N256 C257 1.346 . S
C257 N256 1.346 . S
C257 C258 1.396 . S
C257 C267 1.510 . S
C258 C254 1.401 . S
C258 C257 1.396 . S
C259 C254 1.499 . S
C259 H260 0.959 . S
C259 H261 0.960 . S
C259 H262 0.961 . S
H260 C259 0.959 . S
H261 C259 0.960 . S
H262 C259 0.961 . S
O263 Co238 1.967 . S
O263 C271 1.258 . S
O264 Co239 1.941 . S
O264 C271 1.266 . S
H265 C267 0.959 . S
H266 C267 0.961 . S
C267 C257 1.510 . S
C267 H265 0.959 . S
C267 H266 0.961 . S
C267 H268 0.960 . S
H268 C267 0.960 . S
H269 N249 0.862 . S
O270 Co238 1.920 . S
O270 C243 1.289 . S
C271 O263 1.258 . S
C271 O264 1.266 . S
H272 C280 0.950 . S
H273 C285 0.950 . S
H274 C282 0.950 . S
H275 C284 0.949 1_545 S
H276 C286 0.950 . S
H277 C288 0.938 1_545 S
H278 C290 0.950 . S
H279 C291 0.950 . S
C280 H272 0.950 . S
C280 C281 1.386 . S
C280 C282 1.391 . S
C281 C280 1.386 . S
C281 C285 1.393 . S
C282 H274 0.950 . S
C282 C280 1.391 . S
C282 C283 1.400 . S
C283 C282 1.400 . S
C283 C284 1.398 . S
C283 C289 1.491 . S
C284 H275 0.949 1_565 S
C284 C283 1.398 . S
C284 C285 1.391 . S
C285 H273 0.950 . S
C285 C281 1.393 . S
C285 C284 1.391 . S
C286 H276 0.950 . S
C286 C287 1.386 1_545 S
C286 C288 1.385 1_545 S
C287 C286 1.386 1_565 S
C287 C291 1.393 . S
C288 H277 0.938 1_565 S
C288 C286 1.385 1_565 S
C288 C289 1.419 . S
C289 C283 1.491 . S
C289 C288 1.419 . S
C289 C290 1.398 . S
C290 H278 0.950 . S
C290 C289 1.398 . S
C290 C291 1.391 . S
C291 H279 0.950 . S
C291 C287 1.393 . S
C291 C290 1.391 . S
H292 C300 0.950 . S
H293 C305 0.950 . S
H294 C302 0.950 . S
H295 C304 0.950 . S
H296 C306 0.950 . S
H297 C308 0.950 . S
H298 C310 0.950 . S
H299 C311 0.950 . S
C300 H292 0.950 . S
C300 C301 1.386 . S
C300 C302 1.391 . S
C301 C300 1.386 . S
C301 C305 1.393 . S
C302 H294 0.950 . S
C302 C300 1.391 . S
C302 C303 1.400 . S
C303 C302 1.400 . S
C303 C304 1.398 . S
C303 C309 1.491 . S
C304 H295 0.950 . S
C304 C303 1.398 . S
C304 C305 1.391 . S
C305 H293 0.950 . S
C305 C301 1.393 . S
C305 C304 1.391 . S
C306 H296 0.950 . S
C306 C307 1.386 . S
C306 C308 1.391 . S
C307 C306 1.386 . S
C307 C311 1.393 . S
C308 H297 0.950 . S
C308 C306 1.391 . S
C308 C309 1.400 . S
C309 C303 1.491 . S
C309 C308 1.400 . S
C309 C310 1.398 . S
C310 H298 0.950 . S
C310 C309 1.398 . S
C310 C311 1.391 . S
C311 H299 0.950 . S
C311 C307 1.393 . S
C311 C310 1.391 . S
H312 C320 0.950 1_565 S
H313 C325 0.950 . S
H314 C322 0.950 . S
H315 C324 0.950 . S
H316 C326 0.950 . S
H317 C328 0.950 . S
H318 C330 0.950 . S
H319 C331 0.950 . S
C320 H312 0.950 1_545 S
C320 C321 1.385 . S
C320 C322 1.392 1_545 S
C321 C320 1.385 . S
C321 C325 1.393 . S
C322 H314 0.950 . S
C322 C320 1.392 1_565 S
C322 C323 1.400 . S
C323 C322 1.400 . S
C323 C324 1.398 1_565 S
C323 C329 1.491 . S
C324 H315 0.950 . S
C324 C323 1.398 1_545 S
C324 C325 1.391 . S
C325 H313 0.950 . S
C325 C321 1.393 . S
C325 C324 1.391 . S
C326 H316 0.950 . S
C326 C327 1.386 . S
C326 C328 1.391 . S
C327 C326 1.386 . S
C327 C331 1.393 . S
C328 H317 0.950 . S
C328 C326 1.391 . S
C328 C329 1.400 . S
C329 C323 1.491 . S
C329 C328 1.400 . S
C329 C330 1.398 . S
C330 H318 0.950 . S
C330 C329 1.398 . S
C330 C331 1.391 . S
C331 H319 0.950 . S
C331 C327 1.393 . S
C331 C330 1.391 . S
H332 C340 0.950 . S
H333 C345 0.950 . S
H334 C342 0.950 . S
H335 C344 0.950 . S
H336 C346 0.950 . S
H337 C348 0.950 . S
H338 C350 0.950 . S
H339 C351 0.950 . S
C340 H332 0.950 . S
C340 C341 1.386 . S
C340 C342 1.391 . S
C341 C340 1.386 . S
C341 C345 1.393 . S
C342 H334 0.950 . S
C342 C340 1.391 . S
C342 C343 1.400 . S
C343 C342 1.400 . S
C343 C344 1.398 . S
C343 C349 1.491 . S
C344 H335 0.950 . S
C344 C343 1.398 . S
C344 C345 1.391 . S
C345 H333 0.950 . S
C345 C341 1.393 . S
C345 C344 1.391 . S
C346 H336 0.950 . S
C346 C347 1.386 . S
C346 C348 1.391 . S
C347 C346 1.386 . S
C347 C351 1.393 . S
C348 H337 0.950 . S
C348 C346 1.391 . S
C348 C349 1.400 . S
C349 C343 1.491 . S
C349 C348 1.400 . S
C349 C350 1.398 . S
C350 H338 0.950 . S
C350 C349 1.398 . S
C350 C351 1.391 . S
C351 H339 0.950 . S
C351 C347 1.393 . S
C351 C350 1.391 . S
H352 C360 0.950 1_554 S
H353 C365 0.950 . S
H354 C362 0.950 . S
H355 C364 0.950 . S
H356 C366 0.950 . S
H357 C368 0.950 . S
H358 C370 0.950 . S
H359 C371 0.950 . S
C360 H352 0.950 1_556 S
C360 C361 1.386 . S
C360 C362 1.391 1_556 S
C361 C360 1.386 . S
C361 C365 1.393 . S
C362 H354 0.950 . S
C362 C360 1.391 1_554 S
C362 C363 1.400 1_554 S
C363 C362 1.400 1_556 S
C363 C364 1.398 . S
C363 C369 1.491 1_556 S
C364 H355 0.950 . S
C364 C363 1.398 . S
C364 C365 1.391 . S
C365 H353 0.950 . S
C365 C361 1.393 . S
C365 C364 1.391 . S
C366 H356 0.950 . S
C366 C367 1.386 1_556 S
C366 C368 1.391 . S
C367 C366 1.386 1_554 S
C367 C371 1.393 . S
C368 H357 0.950 . S
C368 C366 1.391 . S
C368 C369 1.400 1_456 S
C369 C363 1.491 1_554 S
C369 C368 1.400 1_654 S
C369 C370 1.398 . S
C370 H358 0.950 . S
C370 C369 1.398 . S
C370 C371 1.391 1_655 S
C371 H359 0.950 . S
C371 C367 1.393 . S
C371 C370 1.391 1_455 S
H372 C380 0.950 . S
H373 C385 0.950 . S
H374 C382 0.950 1_546 S
H375 C384 0.950 . S
H376 C386 0.950 . S
H377 C388 0.950 . S
H378 C390 0.950 . S
H379 C391 0.950 . S
C380 H372 0.950 . S
C380 C381 1.386 . S
C380 C382 1.391 . S
C381 C380 1.386 . S
C381 C385 1.393 . S
C382 H374 0.950 1_564 S
C382 C380 1.391 . S
C382 C383 1.400 . S
C383 C382 1.400 . S
C383 C384 1.398 . S
C383 C389 1.491 . S
C384 H375 0.950 . S
C384 C383 1.398 . S
C384 C385 1.391 . S
C385 H373 0.950 . S
C385 C381 1.393 . S
C385 C384 1.391 . S
C386 H376 0.950 . S
C386 C387 1.386 1_564 S
C386 C388 1.391 . S
C387 C386 1.386 1_546 S
C387 C391 1.393 . S
C388 H377 0.950 . S
C388 C386 1.391 . S
C388 C389 1.400 . S
C389 C383 1.491 . S
C389 C388 1.400 . S
C389 C390 1.398 1_564 S
C390 H378 0.950 . S
C390 C389 1.398 1_546 S
C390 C391 1.391 . S
C391 H379 0.950 . S
C391 C387 1.393 . S
C391 C390 1.391 . S
H392 C400 0.950 . S
H393 C405 0.950 . S
H394 C402 0.950 . S
H395 C404 0.950 . S
H396 C406 0.950 . S
H397 C408 0.950 . S
H398 C410 0.950 . S
H399 C411 0.950 . S
C400 H392 0.950 . S
C400 C401 1.386 . S
C400 C402 1.391 . S
C401 C400 1.386 . S
C401 C405 1.393 . S
C402 H394 0.950 . S
C402 C400 1.391 . S
C402 C403 1.400 . S
C403 C402 1.400 . S
C403 C404 1.398 . S
C403 C409 1.491 1_455 S
C404 H395 0.950 . S
C404 C403 1.398 . S
C404 C405 1.391 . S
C405 H393 0.950 . S
C405 C401 1.393 . S
C405 C404 1.391 . S
C406 H396 0.950 . S
C406 C407 1.386 . S
C406 C408 1.391 . S
C407 C406 1.386 . S
C407 C411 1.393 . S
C408 H397 0.950 . S
C408 C406 1.391 . S
C408 C409 1.400 . S
C409 C403 1.491 1_655 S
C409 C408 1.400 . S
C409 C410 1.398 . S
C410 H398 0.950 . S
C410 C409 1.398 . S
C410 C411 1.391 . S
C411 H399 0.950 . S
C411 C407 1.393 . S
C411 C410 1.391 . S
H412 C420 0.950 . S
H413 C425 0.950 . S
H414 C422 0.950 . S
H415 C424 0.950 . S
H416 C426 0.950 . S
H417 C428 0.950 . S
H418 C430 0.950 . S
H419 C431 0.950 . S
C420 H412 0.950 . S
C420 C421 1.386 . S
C420 C422 1.391 . S
C421 C420 1.386 . S
C421 C425 1.393 . S
C422 H414 0.950 . S
C422 C420 1.391 . S
C422 C423 1.400 . S
C423 C422 1.400 . S
C423 C424 1.398 . S
C423 C429 1.491 . S
C424 H415 0.950 . S
C424 C423 1.398 . S
C424 C425 1.391 . S
C425 H413 0.950 . S
C425 C421 1.393 . S
C425 C424 1.391 . S
C426 H416 0.950 . S
C426 C427 1.386 . S
C426 C428 1.391 . S
C427 C426 1.386 . S
C427 C431 1.393 . S
C428 H417 0.950 . S
C428 C426 1.391 . S
C428 C429 1.400 . S
C429 C423 1.491 . S
C429 C428 1.400 . S
C429 C430 1.398 . S
C430 H418 0.950 . S
C430 C429 1.398 . S
C430 C431 1.391 . S
C431 H419 0.950 . S
C431 C427 1.393 . S
C431 C430 1.391 . S
H432 C440 0.950 . S
H433 C445 0.950 . S
H434 C442 0.950 . S
H435 C444 0.950 . S
H436 C446 0.950 . S
H437 C448 0.950 1_545 S
H438 C450 0.950 . S
H439 C451 0.950 . S
C440 H432 0.950 . S
C440 C441 1.386 1_565 S
C440 C442 1.391 . S
C441 C440 1.386 1_545 S
C441 C445 1.393 . S
C442 H434 0.950 . S
C442 C440 1.391 . S
C442 C443 1.400 . S
C443 C442 1.400 . S
C443 C444 1.398 1_565 S
C443 C449 1.491 . S
C444 H435 0.950 . S
C444 C443 1.398 1_545 S
C444 C445 1.391 . S
C445 H433 0.950 . S
C445 C441 1.393 . S
C445 C444 1.391 . S
C446 H436 0.950 . S
C446 C447 1.386 . S
C446 C448 1.391 . S
C447 C446 1.386 . S
C447 C451 1.393 . S
C448 H437 0.950 1_565 S
C448 C446 1.391 . S
C448 C449 1.400 . S
C449 C443 1.491 . S
C449 C448 1.400 . S
C449 C450 1.398 . S
C450 H438 0.950 . S
C450 C449 1.398 . S
C450 C451 1.391 . S
C451 H439 0.950 . S
C451 C447 1.393 . S
C451 C450 1.391 . S
H452 C460 0.950 . S
H453 C465 0.950 . S
H454 C462 0.950 . S
H455 C464 0.950 . S
H456 C466 0.950 . S
H457 C468 0.950 . S
H458 C470 0.950 . S
H459 C471 0.950 . S
C460 H452 0.950 . S
C460 C461 1.386 . S
C460 C462 1.391 . S
C461 C460 1.386 . S
C461 C465 1.393 . S
C462 H454 0.950 . S
C462 C460 1.391 . S
C462 C463 1.400 . S
C463 C462 1.400 . S
C463 C464 1.398 . S
C463 C469 1.491 . S
C464 H455 0.950 . S
C464 C463 1.398 . S
C464 C465 1.391 . S
C465 H453 0.950 . S
C465 C461 1.393 . S
C465 C464 1.391 . S
C466 H456 0.950 . S
C466 C467 1.386 . S
C466 C468 1.391 . S
C467 C466 1.386 . S
C467 C471 1.393 . S
C468 H457 0.950 . S
C468 C466 1.391 . S
C468 C469 1.400 . S
C469 C463 1.491 . S
C469 C468 1.400 . S
C469 C470 1.398 . S
C470 H458 0.950 . S
C470 C469 1.398 . S
C470 C471 1.391 . S
C471 H459 0.950 . S
C471 C467 1.393 . S
C471 C470 1.391 . S
H472 C480 0.950 . S
H473 C485 0.950 . S
H474 C482 0.950 . S
H475 C484 0.950 . S
H476 C486 0.950 . S
H477 C488 0.944 1_556 S
H478 C490 0.950 . S
H479 C491 0.950 . S
C480 H472 0.950 . S
C480 C481 1.386 . S
C480 C482 1.391 . S
C481 C480 1.386 . S
C481 C485 1.393 . S
C482 H474 0.950 . S
C482 C480 1.391 . S
C482 C483 1.400 . S
C483 C482 1.400 . S
C483 C484 1.398 . S
C483 C489 1.491 . S
C484 H475 0.950 . S
C484 C483 1.398 . S
C484 C485 1.391 . S
C485 H473 0.950 . S
C485 C481 1.393 . S
C485 C484 1.391 . S
C486 H476 0.950 . S
C486 C487 1.386 . S
C486 C488 1.391 . S
C487 C486 1.386 . S
C487 C491 1.393 . S
C488 H477 0.944 1_554 S
C488 C486 1.391 . S
C488 C489 1.400 1_554 S
C489 C483 1.491 . S
C489 C488 1.400 1_556 S
C489 C490 1.398 . S
C490 H478 0.950 . S
C490 C489 1.398 . S
C490 C491 1.391 1_556 S
C491 H479 0.950 . S
C491 C487 1.393 . S
C491 C490 1.391 1_554 S
H492 C500 0.950 . S
H493 C505 0.950 . S
H494 C502 0.950 1_556 S
H495 C504 0.950 1_556 S
H496 C506 0.950 . S
H497 C508 0.950 . S
H498 C510 0.950 . S
H499 C511 0.950 . S
C500 H492 0.950 . S
C500 C501 1.386 . S
C500 C502 1.391 . S
C501 C500 1.386 . S
C501 C505 1.393 . S
C502 H494 0.950 1_554 S
C502 C500 1.391 . S
C502 C503 1.400 1_554 S
C503 C502 1.400 1_556 S
C503 C504 1.398 1_556 S
C503 C509 1.491 . S
C504 H495 0.950 1_554 S
C504 C503 1.398 1_554 S
C504 C505 1.391 . S
C505 H493 0.950 . S
C505 C501 1.393 . S
C505 C504 1.391 . S
C506 H496 0.950 . S
C506 C507 1.386 . S
C506 C508 1.391 . S
C507 C506 1.386 . S
C507 C511 1.393 . S
C508 H497 0.950 . S
C508 C506 1.391 . S
C508 C509 1.400 . S
C509 C503 1.491 . S
C509 C508 1.400 . S
C509 C510 1.398 . S
C510 H498 0.950 . S
C510 C509 1.398 . S
C510 C511 1.391 . S
C511 H499 0.950 . S
C511 C507 1.393 . S
C511 C510 1.391 . S
H512 C520 0.950 . S
H513 C525 0.950 . S
H514 C522 0.950 . S
H515 C524 0.950 . S
H516 C526 0.950 . S
H517 C528 0.950 . S
H518 C530 0.950 . S
H519 C531 0.950 . S
C520 H512 0.950 . S
C520 C521 1.386 . S
C520 C522 1.391 . S
C521 C520 1.386 . S
C521 C525 1.393 . S
C522 H514 0.950 . S
C522 C520 1.391 . S
C522 C523 1.400 . S
C523 C522 1.400 . S
C523 C524 1.398 . S
C523 C529 1.491 . S
C524 H515 0.950 . S
C524 C523 1.398 . S
C524 C525 1.391 . S
C525 H513 0.950 . S
C525 C521 1.393 . S
C525 C524 1.391 . S
C526 H516 0.950 . S
C526 C527 1.386 . S
C526 C528 1.391 . S
C527 C526 1.386 . S
C527 C531 1.393 . S
C528 H517 0.950 . S
C528 C526 1.391 . S
C528 C529 1.400 . S
C529 C523 1.491 . S
C529 C528 1.400 . S
C529 C530 1.398 . S
C530 H518 0.950 . S
C530 C529 1.398 . S
C530 C531 1.391 . S
C531 H519 0.950 . S
C531 C527 1.393 . S
C531 C530 1.391 . S
H532 C540 0.950 . S
H533 C545 0.963 . S
H534 C542 0.950 . S
H535 C544 0.950 1_565 S
H536 C546 0.950 1_565 S
H537 C548 0.950 1_565 S
H538 C550 0.950 . S
H539 C551 0.950 . S
C540 H532 0.950 . S
C540 C541 1.386 . S
C540 C542 1.391 . S
C541 C540 1.386 . S
C541 C545 1.381 1_545 S
C542 H534 0.950 . S
C542 C540 1.391 . S
C542 C543 1.400 . S
C543 C542 1.400 . S
C543 C544 1.398 . S
C543 C549 1.491 . S
C544 H535 0.950 1_545 S
C544 C543 1.398 . S
C544 C545 1.389 1_545 S
C545 H533 0.963 . S
C545 C541 1.381 1_565 S
C545 C544 1.389 1_565 S
C546 H536 0.950 1_545 S
C546 C547 1.386 . S
C546 C548 1.391 . S
C547 C546 1.386 . S
C547 C551 1.393 . S
C548 H537 0.950 1_545 S
C548 C546 1.391 . S
C548 C549 1.400 . S
C549 C543 1.491 . S
C549 C548 1.400 . S
C549 C550 1.398 . S
C550 H538 0.950 . S
C550 C549 1.398 . S
C550 C551 1.391 . S
C551 H539 0.950 . S
C551 C547 1.393 . S
C551 C550 1.391 . S
H552 C560 0.950 . S
H553 C565 0.950 . S
H554 C562 0.950 . S
H555 C564 0.950 . S
H556 C566 0.950 . S
H557 C568 0.950 1_554 S
H558 C570 0.950 . S
H559 C571 0.950 . S
C560 H552 0.950 . S
C560 C561 1.386 . S
C560 C562 1.391 . S
C561 C560 1.386 . S
C561 C565 1.393 . S
C562 H554 0.950 . S
C562 C560 1.391 . S
C562 C563 1.400 . S
C563 C562 1.400 . S
C563 C564 1.398 . S
C563 C569 1.491 . S
C564 H555 0.950 . S
C564 C563 1.398 . S
C564 C565 1.391 . S
C565 H553 0.950 . S
C565 C561 1.393 . S
C565 C564 1.391 . S
C566 H556 0.950 . S
C566 C567 1.386 . S
C566 C568 1.391 . S
C567 C566 1.386 . S
C567 C571 1.393 . S
C568 H557 0.950 1_556 S
C568 C566 1.391 . S
C568 C569 1.400 1_556 S
C569 C563 1.491 . S
C569 C568 1.400 1_554 S
C569 C570 1.398 . S
C570 H558 0.950 . S
C570 C569 1.398 . S
C570 C571 1.391 1_554 S
C571 H559 0.950 . S
C571 C567 1.393 . S
C571 C570 1.391 1_556 S
H572 C580 0.950 . S
H573 C585 0.950 . S
H574 C582 0.950 . S
H575 C584 0.950 . S
H576 C586 0.950 . S
H577 C588 0.950 1_554 S
H578 C590 0.950 . S
H579 C591 0.950 . S
C580 H572 0.950 . S
C580 C581 1.386 . S
C580 C582 1.391 . S
C581 C580 1.386 . S
C581 C585 1.393 . S
C582 H574 0.950 . S
C582 C580 1.391 . S
C582 C583 1.400 . S
C583 C582 1.400 . S
C583 C584 1.398 . S
C583 C589 1.491 . S
C584 H575 0.950 . S
C584 C583 1.398 . S
C584 C585 1.391 . S
C585 H573 0.950 . S
C585 C581 1.393 . S
C585 C584 1.391 . S
C586 H576 0.950 . S
C586 C587 1.386 . S
C586 C588 1.391 . S
C587 C586 1.386 . S
C587 C591 1.393 . S
C588 H577 0.950 1_556 S
C588 C586 1.391 . S
C588 C589 1.400 1_556 S
C589 C583 1.491 . S
C589 C588 1.400 1_554 S
C589 C590 1.398 . S
C590 H578 0.950 . S
C590 C589 1.398 . S
C590 C591 1.391 1_554 S
C591 H579 0.950 . S
C591 C587 1.393 . S
C591 C590 1.391 1_556 S
H592 C600 0.950 . S
H593 C605 0.950 . S
H594 C602 0.950 . S
H595 C604 0.950 . S
H596 C606 0.950 . S
H597 C608 0.950 . S
H598 C610 0.950 . S
H599 C611 0.950 . S
C600 H592 0.950 . S
C600 C601 1.386 . S
C600 C602 1.391 . S
C601 C600 1.386 . S
C601 C605 1.393 . S
C602 H594 0.950 . S
C602 C600 1.391 . S
C602 C603 1.400 . S
C603 C602 1.400 . S
C603 C604 1.398 . S
C603 C609 1.491 . S
C604 H595 0.950 . S
C604 C603 1.398 . S
C604 C605 1.391 . S
C605 H593 0.950 . S
C605 C601 1.393 . S
C605 C604 1.391 . S
C606 H596 0.950 . S
C606 C607 1.386 . S
C606 C608 1.391 . S
C607 C606 1.386 . S
C607 C611 1.393 . S
C608 H597 0.950 . S
C608 C606 1.391 . S
C608 C609 1.400 . S
C609 C603 1.491 . S
C609 C608 1.400 . S
C609 C610 1.398 . S
C610 H598 0.950 . S
C610 C609 1.398 . S
C610 C611 1.391 . S
C611 H599 0.950 . S
C611 C607 1.393 . S
C611 C610 1.391 . S
H612 C620 0.950 . S
H613 C625 0.950 . S
H614 C622 0.950 . S
H615 C624 0.950 . S
H616 C626 0.950 . S
H617 C628 0.950 . S
H618 C630 0.950 . S
H619 C631 0.950 . S
C620 H612 0.950 . S
C620 C621 1.386 . S
C620 C622 1.391 . S
C621 C620 1.386 . S
C621 C625 1.393 . S
C622 H614 0.950 . S
C622 C620 1.391 . S
C622 C623 1.400 . S
C623 C622 1.400 . S
C623 C624 1.398 . S
C623 C629 1.491 . S
C624 H615 0.950 . S
C624 C623 1.398 . S
C624 C625 1.391 . S
C625 H613 0.950 . S
C625 C621 1.393 . S
C625 C624 1.391 . S
C626 H616 0.950 . S
C626 C627 1.386 . S
C626 C628 1.391 . S
C627 C626 1.386 . S
C627 C631 1.393 . S
C628 H617 0.950 . S
C628 C626 1.391 . S
C628 C629 1.400 . S
C629 C623 1.491 . S
C629 C628 1.400 . S
C629 C630 1.398 . S
C630 H618 0.950 . S
C630 C629 1.398 . S
C630 C631 1.391 . S
C631 H619 0.950 . S
C631 C627 1.393 . S
C631 C630 1.391 . S
H632 C640 0.950 . S
H633 C645 0.950 . S
H634 C642 0.950 . S
H635 C644 0.950 . S
H636 C646 0.950 . S
H637 C648 0.950 . S
H638 C650 0.950 . S
H639 C651 0.950 . S
C640 H632 0.950 . S
C640 C641 1.386 . S
C640 C642 1.391 . S
C641 C640 1.386 . S
C641 C645 1.393 . S
C642 H634 0.950 . S
C642 C640 1.391 . S
C642 C643 1.400 . S
C643 C642 1.400 . S
C643 C644 1.398 . S
C643 C649 1.491 . S
C644 H635 0.950 . S
C644 C643 1.398 . S
C644 C645 1.391 . S
C645 H633 0.950 . S
C645 C641 1.393 . S
C645 C644 1.391 . S
C646 H636 0.950 . S
C646 C647 1.386 . S
C646 C648 1.391 . S
C647 C646 1.386 . S
C647 C651 1.393 . S
C648 H637 0.950 . S
C648 C646 1.391 . S
C648 C649 1.400 . S
C649 C643 1.491 . S
C649 C648 1.400 . S
C649 C650 1.398 . S
C650 H638 0.950 . S
C650 C649 1.398 . S
C650 C651 1.391 . S
C651 H639 0.950 . S
C651 C647 1.393 . S
C651 C650 1.391 . S
H652 C660 0.950 . S
H653 C665 0.950 . S
H654 C662 0.950 . S
H655 C664 0.950 . S
H656 C666 0.950 . S
H657 C668 0.950 . S
H658 C670 0.950 . S
H659 C671 0.950 . S
C660 H652 0.950 . S
C660 C661 1.386 . S
C660 C662 1.391 . S
C661 C660 1.386 . S
C661 C665 1.393 . S
C662 H654 0.950 . S
C662 C660 1.391 . S
C662 C663 1.400 . S
C663 C662 1.400 . S
C663 C664 1.398 . S
C663 C669 1.491 . S
C664 H655 0.950 . S
C664 C663 1.398 . S
C664 C665 1.391 . S
C665 H653 0.950 . S
C665 C661 1.393 . S
C665 C664 1.391 . S
C666 H656 0.950 . S
C666 C667 1.386 . S
C666 C668 1.391 . S
C667 C666 1.386 . S
C667 C671 1.393 . S
C668 H657 0.950 . S
C668 C666 1.391 . S
C668 C669 1.400 . S
C669 C663 1.491 . S
C669 C668 1.400 . S
C669 C670 1.398 . S
C670 H658 0.950 . S
C670 C669 1.398 . S
C670 C671 1.391 . S
C671 H659 0.950 . S
C671 C667 1.393 . S
C671 C670 1.391 . S
C281 C36 1.811 . S
C287 C2 1.807 1_565 S
C301 C70 1.444 . S
C307 C104 1.444 . S
C321 C172 1.732 . S
C327 C138 1.716 . S
C341 C206 1.131 . S
C347 C240 1.128 . S
C361 C169 1.769 . S
C367 C20 1.784 . S
C381 C54 1.744 . S
C387 C190 1.744 . S
C401 C88 1.220 . S
C407 C224 1.219 . S
C421 C122 1.578 . S
C427 C258 1.578 . S
C441 C9 1.241 . S
C447 C5 1.289 . S
C461 C39 1.260 . S
C467 C43 1.220 . S
C481 C77 1.235 . S
C487 C73 1.281 . S
C501 C107 1.256 . S
C507 C111 1.209 . S
C521 C141 1.304 . S
C527 C145 1.241 . S
C541 C175 1.282 . S
C547 C179 1.241 . S
C561 C213 1.227 . S
C567 C209 1.252 . S
C581 C247 1.270 . S
C587 C243 1.285 . S
C601 C33 1.625 . S
C607 C101 1.618 . S
C621 C67 1.853 . S
C627 C135 1.854 . S
C641 C156 1.417 . S
C647 C237 1.425 . S
C661 C203 1.368 . S
C667 C271 1.382 . S
