# Generated by pormake.
# Topology vbr, (6)-cn, num edge types: 1
# Building blocks:
#     Node 0, Type 0, BuildingBlock: IZENUY_clean_sbu_0, # of connection points: 6
#     Node 1, Type 0, BuildingBlock: IZENUY_clean_sbu_0, # of connection points: 6
#     Node 2, Type 0, BuildingBlock: IZENUY_clean_sbu_0, # of connection points: 6
#     Node 3, Type 0, BuildingBlock: IZENUY_clean_sbu_0, # of connection points: 6
#     Node 4, Type 0, BuildingBlock: IZENUY_clean_sbu_0, # of connection points: 6
#     Node 5, Type 0, BuildingBlock: IZENUY_clean_sbu_0, # of connection points: 6
#     Node 6, Type 0, BuildingBlock: IZENUY_clean_sbu_0, # of connection points: 6
#     Node 7, Type 0, BuildingBlock: IZENUY_clean_sbu_0, # of connection points: 6
#     Node 8, Type 0, BuildingBlock: IZENUY_clean_sbu_0, # of connection points: 6
#     Node 9, Type 0, BuildingBlock: IZENUY_clean_sbu_0, # of connection points: 6
#     Node 10, Type 0, BuildingBlock: IZENUY_clean_sbu_0, # of connection points: 6
#     Node 11, Type 0, BuildingBlock: IZENUY_clean_sbu_0, # of connection points: 6
#     Node 12, Type 0, BuildingBlock: IZENUY_clean_sbu_0, # of connection points: 6
#     Node 13, Type 0, BuildingBlock: IZENUY_clean_sbu_0, # of connection points: 6
#     Node 14, Type 0, BuildingBlock: IZENUY_clean_sbu_0, # of connection points: 6
#     Node 15, Type 0, BuildingBlock: IZENUY_clean_sbu_0, # of connection points: 6
#     Edge 16, Type (0, 0), BuildingBlock: MIFKUJ_clean_linker_0, # of connection points: 2
#     Edge 17, Type (0, 0), BuildingBlock: MIFKUJ_clean_linker_0, # of connection points: 2
#     Edge 18, Type (0, 0), BuildingBlock: MIFKUJ_clean_linker_0, # of connection points: 2
#     Edge 19, Type (0, 0), BuildingBlock: MIFKUJ_clean_linker_0, # of connection points: 2
#     Edge 20, Type (0, 0), BuildingBlock: MIFKUJ_clean_linker_0, # of connection points: 2
#     Edge 21, Type (0, 0), BuildingBlock: MIFKUJ_clean_linker_0, # of connection points: 2
#     Edge 22, Type (0, 0), BuildingBlock: MIFKUJ_clean_linker_0, # of connection points: 2
#     Edge 23, Type (0, 0), BuildingBlock: MIFKUJ_clean_linker_0, # of connection points: 2
#     Edge 24, Type (0, 0), BuildingBlock: MIFKUJ_clean_linker_0, # of connection points: 2
#     Edge 25, Type (0, 0), BuildingBlock: MIFKUJ_clean_linker_0, # of connection points: 2
#     Edge 26, Type (0, 0), BuildingBlock: MIFKUJ_clean_linker_0, # of connection points: 2
#     Edge 27, Type (0, 0), BuildingBlock: MIFKUJ_clean_linker_0, # of connection points: 2
#     Edge 28, Type (0, 0), BuildingBlock: MIFKUJ_clean_linker_0, # of connection points: 2
#     Edge 29, Type (0, 0), BuildingBlock: MIFKUJ_clean_linker_0, # of connection points: 2
#     Edge 30, Type (0, 0), BuildingBlock: MIFKUJ_clean_linker_0, # of connection points: 2
#     Edge 31, Type (0, 0), BuildingBlock: MIFKUJ_clean_linker_0, # of connection points: 2
#     Edge 32, Type (0, 0), BuildingBlock: MIFKUJ_clean_linker_0, # of connection points: 2
#     Edge 33, Type (0, 0), BuildingBlock: MIFKUJ_clean_linker_0, # of connection points: 2
#     Edge 34, Type (0, 0), BuildingBlock: MIFKUJ_clean_linker_0, # of connection points: 2
#     Edge 35, Type (0, 0), BuildingBlock: MIFKUJ_clean_linker_0, # of connection points: 2
#     Edge 36, Type (0, 0), BuildingBlock: MIFKUJ_clean_linker_0, # of connection points: 2
#     Edge 37, Type (0, 0), BuildingBlock: MIFKUJ_clean_linker_0, # of connection points: 2
#     Edge 38, Type (0, 0), BuildingBlock: MIFKUJ_clean_linker_0, # of connection points: 2
#     Edge 39, Type (0, 0), BuildingBlock: MIFKUJ_clean_linker_0, # of connection points: 2
#     Edge 40, Type (0, 0), BuildingBlock: MIFKUJ_clean_linker_0, # of connection points: 2
#     Edge 41, Type (0, 0), BuildingBlock: MIFKUJ_clean_linker_0, # of connection points: 2
#     Edge 42, Type (0, 0), BuildingBlock: MIFKUJ_clean_linker_0, # of connection points: 2
#     Edge 43, Type (0, 0), BuildingBlock: MIFKUJ_clean_linker_0, # of connection points: 2
#     Edge 44, Type (0, 0), BuildingBlock: MIFKUJ_clean_linker_0, # of connection points: 2
#     Edge 45, Type (0, 0), BuildingBlock: MIFKUJ_clean_linker_0, # of connection points: 2
#     Edge 46, Type (0, 0), BuildingBlock: MIFKUJ_clean_linker_0, # of connection points: 2
#     Edge 47, Type (0, 0), BuildingBlock: MIFKUJ_clean_linker_0, # of connection points: 2
#     Edge 48, Type (0, 0), BuildingBlock: MIFKUJ_clean_linker_0, # of connection points: 2
#     Edge 49, Type (0, 0), BuildingBlock: MIFKUJ_clean_linker_0, # of connection points: 2
#     Edge 50, Type (0, 0), BuildingBlock: MIFKUJ_clean_linker_0, # of connection points: 2
#     Edge 51, Type (0, 0), BuildingBlock: MIFKUJ_clean_linker_0, # of connection points: 2
#     Edge 52, Type (0, 0), BuildingBlock: MIFKUJ_clean_linker_0, # of connection points: 2
#     Edge 53, Type (0, 0), BuildingBlock: MIFKUJ_clean_linker_0, # of connection points: 2
#     Edge 54, Type (0, 0), BuildingBlock: MIFKUJ_clean_linker_0, # of connection points: 2
#     Edge 55, Type (0, 0), BuildingBlock: MIFKUJ_clean_linker_0, # of connection points: 2
#     Edge 56, Type (0, 0), BuildingBlock: MIFKUJ_clean_linker_0, # of connection points: 2
#     Edge 57, Type (0, 0), BuildingBlock: MIFKUJ_clean_linker_0, # of connection points: 2
#     Edge 58, Type (0, 0), BuildingBlock: MIFKUJ_clean_linker_0, # of connection points: 2
#     Edge 59, Type (0, 0), BuildingBlock: MIFKUJ_clean_linker_0, # of connection points: 2
#     Edge 60, Type (0, 0), BuildingBlock: MIFKUJ_clean_linker_0, # of connection points: 2
#     Edge 61, Type (0, 0), BuildingBlock: MIFKUJ_clean_linker_0, # of connection points: 2
#     Edge 62, Type (0, 0), BuildingBlock: MIFKUJ_clean_linker_0, # of connection points: 2
#     Edge 63, Type (0, 0), BuildingBlock: MIFKUJ_clean_linker_0, # of connection points: 2
# Relax obj value: 0.289
# Max RMSD: 0.272
# Mean RMSD: 0.272
data_MOF--net-vbr--node1-IZENUY_clean_sbu_0--edge1-MIFKUJ_clean_linker_0
_symmetry_space_group_name_H-M    P1
_symmetry_Int_Tables_number       1
_symmetry_cell_setting            triclinic
loop_
_symmetry_equiv_pos_as_xyz
'x, y, z'
_cell_length_a     55.758083
_cell_length_b     36.747241
_cell_length_c     69.954067
_cell_angle_alpha  90.010575
_cell_angle_beta   90.034575
_cell_angle_gamma 90.034155
loop_
_atom_site_label
_atom_site_type_symbol
_atom_site_fract_x
_atom_site_fract_y
_atom_site_fract_z
_atom_type_partial_charge
Fe0 Fe 0.34547 0.16447 0.1088 0.0
Fe1 Fe 0.34277 0.09394 0.13255 0.0
O2 O 0.32921 0.13442 0.1238 0.0
Fe3 Fe 0.29898 0.14483 0.12964 0.0
O4 O 0.28988 0.14343 0.10458 0.0
O5 O 0.31942 0.17858 0.09501 0.0
O6 O 0.34961 0.12938 0.09111 0.0
C7 C 0.35763 0.09775 0.09373 0.0
C8 C 0.32155 0.21451 0.12999 0.0
O9 O 0.36009 0.08493 0.11049 0.0
C10 C 0.31523 0.12104 0.16423 0.0
O11 O 0.37466 0.15537 0.11955 0.0
O12 O 0.3676 0.11851 0.1436 0.0
O13 O 0.30315 0.19437 0.12877 0.0
O14 O 0.34193 0.20232 0.12537 0.0
C15 C 0.29761 0.06802 0.12564 0.0
O16 O 0.32709 0.0959 0.15599 0.0
O17 O 0.30625 0.14693 0.15476 0.0
C18 C 0.38116 0.14063 0.13501 0.0
O19 O 0.31964 0.06559 0.1221 0.0
O20 O 0.28883 0.09735 0.13193 0.0
C21 C 0.29977 0.16255 0.09181 0.0
Fe22 Fe 0.21547 0.85767 0.62974 0.0
Fe23 Fe 0.17025 0.83886 0.60689 0.0
O24 O 0.1855 0.86788 0.62313 0.0
Fe25 Fe 0.17092 0.907 0.63249 0.0
O26 O 0.19391 0.93703 0.62337 0.0
O27 O 0.22506 0.90534 0.63279 0.0
O28 O 0.22587 0.86036 0.60515 0.0
C29 C 0.21707 0.8415 0.59181 0.0
C30 C 0.19803 0.87931 0.66432 0.0
O31 O 0.19709 0.82575 0.59368 0.0
C32 C 0.13306 0.85962 0.63246 0.0
O33 O 0.21153 0.80816 0.62806 0.0
O34 O 0.17305 0.79994 0.62276 0.0
O35 O 0.18571 0.90414 0.65627 0.0
O36 O 0.20726 0.85406 0.65459 0.0
C37 C 0.15781 0.90602 0.59311 0.0
O38 O 0.14035 0.84707 0.61669 0.0
O39 O 0.14629 0.88019 0.64234 0.0
C40 C 0.1932 0.78768 0.62793 0.0
O41 O 0.16691 0.87527 0.58993 0.0
O42 O 0.15433 0.9172 0.61011 0.0
C43 C 0.21596 0.93492 0.62703 0.0
Fe44 Fe 0.33756 0.90168 0.87975 0.0
Fe45 Fe 0.29512 0.84806 0.88008 0.0
O46 O 0.32468 0.85977 0.88713 0.0
Fe47 Fe 0.34105 0.82939 0.90188 0.0
O48 O 0.34325 0.86296 0.92058 0.0
O49 O 0.35386 0.9094 0.90252 0.0
O50 O 0.31333 0.92775 0.89019 0.0
C51 C 0.29147 0.92424 0.88608 0.0
C52 C 0.37715 0.85762 0.87732 0.0
O53 O 0.28373 0.89489 0.87897 0.0
C54 C 0.31994 0.78036 0.87841 0.0
O55 O 0.32284 0.90131 0.85586 0.0
O56 O 0.30341 0.84907 0.85518 0.0
O57 O 0.37054 0.84164 0.89241 0.0
O58 O 0.36326 0.87932 0.86877 0.0
C59 C 0.29412 0.82504 0.91694 0.0
O60 O 0.30082 0.79886 0.87953 0.0
O61 O 0.33961 0.79333 0.8842 0.0
C62 C 0.31177 0.87652 0.84665 0.0
O63 O 0.28495 0.84631 0.90482 0.0
O64 O 0.31471 0.81158 0.91431 0.0
C65 C 0.35125 0.89487 0.9189 0.0
Fe66 Fe 0.17208 0.17541 0.4013 0.0
Fe67 Fe 0.17339 0.1022 0.37984 0.0
O68 O 0.18751 0.1434 0.38687 0.0
Fe69 Fe 0.21739 0.15268 0.3798 0.0
O70 O 0.22761 0.15434 0.40457 0.0
O71 O 0.199 0.19165 0.41366 0.0
O72 O 0.16891 0.14255 0.42029 0.0
C73 C 0.16025 0.11097 0.41885 0.0
C74 C 0.19494 0.22234 0.37763 0.0
O75 O 0.15683 0.09647 0.40257 0.0
C76 C 0.19953 0.12498 0.34657 0.0
O77 O 0.14219 0.16489 0.39185 0.0
O78 O 0.14846 0.12596 0.36858 0.0
O79 O 0.21335 0.20226 0.379 0.0
O80 O 0.17476 0.21086 0.38325 0.0
C81 C 0.21858 0.07639 0.38641 0.0
O82 O 0.18819 0.10078 0.35599 0.0
O83 O 0.20895 0.15185 0.3549 0.0
C84 C 0.13505 0.14853 0.37698 0.0
O85 O 0.19671 0.07478 0.39067 0.0
O86 O 0.22722 0.10484 0.37892 0.0
C87 C 0.2191 0.17666 0.41649 0.0
Fe88 Fe 0.67259 0.91253 0.87766 0.0
Fe89 Fe 0.66602 0.84764 0.90466 0.0
O90 O 0.68446 0.87324 0.88897 0.0
Fe91 Fe 0.71473 0.86068 0.88488 0.0
O92 O 0.72597 0.90471 0.89336 0.0
O93 O 0.70103 0.93682 0.87607 0.0
O94 O 0.66826 0.93422 0.90089 0.0
C95 C 0.65702 0.92007 0.91473 0.0
C96 C 0.69774 0.88266 0.84821 0.0
O97 O 0.64982 0.88745 0.91372 0.0
C98 C 0.69334 0.79323 0.88538 0.0
O99 O 0.64146 0.89624 0.87694 0.0
O100 O 0.64377 0.83944 0.88612 0.0
O101 O 0.71455 0.87609 0.85994 0.0
O102 O 0.67722 0.89287 0.85393 0.0
C103 C 0.70843 0.84506 0.92446 0.0
O104 O 0.67936 0.80372 0.89852 0.0
O105 O 0.70613 0.81575 0.87625 0.0
C106 C 0.63259 0.86459 0.87772 0.0
O107 O 0.68652 0.85348 0.92453 0.0
O108 O 0.71998 0.84275 0.90895 0.0
C109 C 0.72007 0.93453 0.88573 0.0
Fe110 Fe 0.84783 0.15703 0.40559 0.0
Fe111 Fe 0.79725 0.14172 0.38931 0.0
O112 O 0.82812 0.13074 0.39112 0.0
Fe113 Fe 0.8393 0.092 0.3787 0.0
O114 O 0.8461 0.07011 0.40141 0.0
O115 O 0.86486 0.1172 0.41399 0.0
O116 O 0.82961 0.15179 0.42676 0.0
C117 C 0.80747 0.15769 0.42822 0.0
C118 C 0.87913 0.14042 0.37705 0.0
O119 O 0.79407 0.15862 0.41369 0.0
C120 C 0.81044 0.12107 0.35131 0.0
O121 O 0.83356 0.20068 0.39998 0.0
O122 O 0.8036 0.18727 0.38056 0.0
O123 O 0.87019 0.10885 0.37625 0.0
O124 O 0.86825 0.16532 0.38583 0.0
C125 C 0.79346 0.06773 0.38988 0.0
O126 O 0.7951 0.12707 0.36435 0.0
O127 O 0.83185 0.1121 0.35544 0.0
C128 C 0.81721 0.21037 0.38846 0.0
O129 O 0.78808 0.09701 0.39823 0.0
O130 O 0.81112 0.06666 0.37866 0.0
C131 C 0.85822 0.08421 0.41478 0.0
Fe132 Fe 0.67643 0.0974 0.13686 0.0
Fe133 Fe 0.66852 0.15915 0.10799 0.0
O134 O 0.68776 0.13509 0.12378 0.0
Fe135 Fe 0.71827 0.14751 0.12622 0.0
O136 O 0.72866 0.10234 0.11889 0.0
O137 O 0.70477 0.07292 0.13828 0.0
O138 O 0.67066 0.07314 0.1145 0.0
C139 C 0.65857 0.08582 0.1007 0.0
C140 C 0.70354 0.13085 0.16426 0.0
O141 O 0.65157 0.11858 0.10093 0.0
C142 C 0.69728 0.21517 0.12445 0.0
O143 O 0.64543 0.11416 0.13813 0.0
O144 O 0.64753 0.16974 0.12706 0.0
O145 O 0.7195 0.13554 0.15157 0.0
O146 O 0.68267 0.11975 0.15975 0.0
C147 C 0.7097 0.15845 0.08651 0.0
O148 O 0.68243 0.20361 0.11217 0.0
O149 O 0.71056 0.19345 0.13363 0.0
C150 C 0.63656 0.14567 0.13648 0.0
O151 O 0.68769 0.1508 0.08748 0.0
O152 O 0.72215 0.16223 0.10148 0.0
C153 C 0.72315 0.07369 0.12782 0.0
Fe154 Fe 0.84694 0.84808 0.61053 0.0
Fe155 Fe 0.7961 0.86344 0.62639 0.0
O156 O 0.82701 0.87448 0.62467 0.0
Fe157 Fe 0.83819 0.91327 0.637 0.0
O158 O 0.84498 0.93502 0.61428 0.0
O159 O 0.86422 0.88788 0.60233 0.0
O160 O 0.82902 0.85357 0.58914 0.0
C161 C 0.80687 0.8477 0.58742 0.0
C162 C 0.87784 0.86511 0.63915 0.0
O163 O 0.79315 0.847 0.60181 0.0
C164 C 0.81012 0.88159 0.66431 0.0
O165 O 0.83256 0.80437 0.61595 0.0
O166 O 0.80235 0.81787 0.63499 0.0
O167 O 0.86903 0.89673 0.63932 0.0
O168 O 0.86695 0.8398 0.63069 0.0
C169 C 0.79299 0.93782 0.62539 0.0
O170 O 0.79416 0.87731 0.65152 0.0
O171 O 0.83101 0.89293 0.66013 0.0
C172 C 0.81613 0.79478 0.62738 0.0
O173 O 0.78682 0.90826 0.61767 0.0
O174 O 0.81009 0.93845 0.63712 0.0
C175 C 0.85747 0.92082 0.60114 0.0
Fe176 Fe 0.84863 0.66074 0.1078 0.0
Fe177 Fe 0.84233 0.59659 0.13544 0.0
O178 O 0.83016 0.63472 0.12328 0.0
Fe179 Fe 0.79944 0.64568 0.12621 0.0
O180 O 0.79505 0.66311 0.10195 0.0
O181 O 0.82922 0.65292 0.0874 0.0
O182 O 0.86622 0.62161 0.09959 0.0
C183 C 0.85982 0.58858 0.09882 0.0
C184 C 0.81924 0.71404 0.12603 0.0
O185 O 0.8486 0.57438 0.11263 0.0
C186 C 0.81432 0.62485 0.1637 0.0
O187 O 0.86984 0.67091 0.1268 0.0
O188 O 0.87299 0.61487 0.13713 0.0
O189 O 0.80662 0.69106 0.13499 0.0
O190 O 0.83386 0.70404 0.1132 0.0
C191 C 0.79636 0.57147 0.12509 0.0
O192 O 0.83561 0.61657 0.1589 0.0
O193 O 0.79834 0.63048 0.15113 0.0
C194 C 0.88136 0.64681 0.13576 0.0
O195 O 0.81444 0.57067 0.13594 0.0
O196 O 0.78991 0.60103 0.11743 0.0
C197 C 0.80719 0.66033 0.08677 0.0
Fe198 Fe 0.66414 0.34491 0.60964 0.0
Fe199 Fe 0.67108 0.41439 0.63353 0.0
O200 O 0.68327 0.37477 0.62259 0.0
Fe201 Fe 0.71456 0.366 0.62437 0.0
O202 O 0.71754 0.34507 0.60078 0.0
O203 O 0.68166 0.34886 0.58799 0.0
O204 O 0.64535 0.38152 0.60004 0.0
C205 C 0.65052 0.41477 0.59766 0.0
C206 C 0.69641 0.29678 0.62873 0.0
O207 O 0.6622 0.43213 0.61021 0.0
C208 C 0.70203 0.39193 0.66147 0.0
O209 O 0.64456 0.33789 0.63005 0.0
O210 O 0.64105 0.3953 0.63768 0.0
O211 O 0.70961 0.32177 0.63538 0.0
O212 O 0.68002 0.30355 0.61672 0.0
C213 C 0.71546 0.43987 0.61965 0.0
O214 O 0.68025 0.3988 0.6574 0.0
O215 O 0.71717 0.38518 0.64843 0.0
C216 C 0.63306 0.36311 0.63807 0.0
O217 O 0.69821 0.44185 0.63127 0.0
O218 O 0.72229 0.40944 0.61332 0.0
C219 C 0.70385 0.34351 0.58642 0.0
Fe220 Fe 0.84617 0.34832 0.90398 0.0
Fe221 Fe 0.83876 0.41202 0.8762 0.0
O222 O 0.82713 0.37369 0.88858 0.0
Fe223 Fe 0.79647 0.36214 0.88591 0.0
O224 O 0.79237 0.3459 0.91039 0.0
O225 O 0.82696 0.35544 0.92455 0.0
O226 O 0.86321 0.38828 0.91198 0.0
C227 C 0.85619 0.42103 0.91276 0.0
C228 C 0.81691 0.2939 0.88643 0.0
O229 O 0.8445 0.43472 0.89901 0.0
C230 C 0.81139 0.38095 0.84813 0.0
O231 O 0.86736 0.33881 0.88484 0.0
O232 O 0.86969 0.39502 0.87476 0.0
O233 O 0.80376 0.31649 0.8777 0.0
O234 O 0.832 0.30435 0.89882 0.0
C235 C 0.79252 0.43634 0.88592 0.0
O236 O 0.83238 0.39127 0.85284 0.0
O237 O 0.79539 0.37579 0.86077 0.0
C238 C 0.87857 0.36343 0.87602 0.0
O239 O 0.81063 0.43697 0.87518 0.0
O240 O 0.78649 0.40709 0.89409 0.0
C241 C 0.80488 0.34841 0.9254 0.0
Fe242 Fe 0.66654 0.65835 0.40415 0.0
Fe243 Fe 0.67551 0.59261 0.3778 0.0
O244 O 0.68646 0.63162 0.39013 0.0
Fe245 Fe 0.71742 0.64271 0.38852 0.0
O246 O 0.72009 0.6612 0.41262 0.0
O247 O 0.6846 0.65389 0.42563 0.0
O248 O 0.64927 0.61899 0.41274 0.0
C249 C 0.6551 0.58564 0.41358 0.0
C250 C 0.69706 0.7109 0.38633 0.0
O251 O 0.66754 0.57122 0.40047 0.0
C252 C 0.70498 0.62232 0.35063 0.0
O253 O 0.64625 0.66599 0.38419 0.0
O254 O 0.64482 0.60953 0.3745 0.0
O255 O 0.71105 0.68768 0.379 0.0
O256 O 0.68086 0.7017 0.39808 0.0
C257 C 0.72026 0.5685 0.391 0.0
O258 O 0.68373 0.61211 0.35452 0.0
O259 O 0.72028 0.62687 0.36383 0.0
C260 C 0.63567 0.64093 0.37526 0.0
O261 O 0.70358 0.56724 0.37885 0.0
O262 O 0.72638 0.59855 0.39826 0.0
C263 C 0.70662 0.66103 0.42709 0.0
Fe264 Fe 0.17271 0.40061 0.88328 0.0
Fe265 Fe 0.16848 0.32978 0.90688 0.0
O266 O 0.1857 0.3604 0.89287 0.0
Fe267 Fe 0.21655 0.35065 0.88906 0.0
O268 O 0.22661 0.39786 0.88651 0.0
O269 O 0.19508 0.42965 0.89435 0.0
O270 O 0.15423 0.41032 0.90478 0.0
C271 C 0.15491 0.39657 0.9215 0.0
C272 C 0.20336 0.37237 0.85331 0.0
O273 O 0.16217 0.36455 0.92419 0.0
C274 C 0.19511 0.28048 0.88764 0.0
O275 O 0.14842 0.37615 0.87147 0.0
O276 O 0.14012 0.33781 0.8946 0.0
O277 O 0.21182 0.34727 0.86366 0.0
O278 O 0.18991 0.39719 0.86038 0.0
C279 C 0.21194 0.33512 0.92688 0.0
O280 O 0.17412 0.29214 0.89049 0.0
O281 O 0.21296 0.30113 0.89044 0.0
C282 C 0.13433 0.35383 0.87933 0.0
O283 O 0.19351 0.31697 0.92234 0.0
O284 O 0.22289 0.35392 0.91455 0.0
C285 C 0.21731 0.4273 0.89195 0.0
Fe286 Fe 0.29788 0.6506 0.38694 0.0
Fe287 Fe 0.34155 0.59931 0.38219 0.0
O288 O 0.32874 0.64055 0.39081 0.0
Fe289 Fe 0.34641 0.67205 0.40406 0.0
O290 O 0.32172 0.68818 0.4188 0.0
O291 O 0.29188 0.65136 0.41255 0.0
O292 O 0.28725 0.60344 0.38671 0.0
C293 C 0.29671 0.57383 0.39178 0.0
C294 C 0.32077 0.71949 0.38263 0.0
O295 O 0.31906 0.57122 0.39362 0.0
C296 C 0.38041 0.64475 0.37735 0.0
O297 O 0.30175 0.64984 0.36138 0.0
O298 O 0.32445 0.60045 0.3593 0.0
O299 O 0.34151 0.70791 0.38663 0.0
O300 O 0.30239 0.70014 0.38593 0.0
C301 C 0.35895 0.60655 0.42044 0.0
O302 O 0.36599 0.6225 0.36982 0.0
O303 O 0.37481 0.66163 0.39238 0.0
C304 C 0.31031 0.62376 0.3518 0.0
O305 O 0.35983 0.59146 0.40404 0.0
O306 O 0.35188 0.63887 0.42238 0.0
C307 C 0.30315 0.6714 0.4241 0.0
Fe308 Fe 0.1743 0.59119 0.13543 0.0
Fe309 Fe 0.16821 0.65841 0.10982 0.0
O310 O 0.18668 0.63007 0.12412 0.0
Fe311 Fe 0.21763 0.64012 0.12676 0.0
O312 O 0.22648 0.59659 0.11636 0.0
O313 O 0.20169 0.56387 0.13371 0.0
O314 O 0.16578 0.57191 0.11236 0.0
C315 C 0.15364 0.58789 0.09961 0.0
C316 C 0.20428 0.61514 0.16381 0.0
O317 O 0.14901 0.62145 0.10107 0.0
C318 C 0.19896 0.70865 0.12894 0.0
O319 O 0.14431 0.61121 0.13892 0.0
O320 O 0.14817 0.66795 0.12963 0.0
O321 O 0.21975 0.6218 0.15103 0.0
O322 O 0.18277 0.60779 0.15926 0.0
C323 C 0.20859 0.65868 0.08796 0.0
O324 O 0.18442 0.70046 0.11571 0.0
O325 O 0.21109 0.68438 0.13731 0.0
C326 C 0.13654 0.64363 0.13837 0.0
O327 O 0.18663 0.65086 0.08887 0.0
O328 O 0.22117 0.66053 0.10298 0.0
C329 C 0.21967 0.56608 0.1227 0.0
Fe330 Fe 0.33748 0.41038 0.63662 0.0
Fe331 Fe 0.34589 0.34522 0.61002 0.0
O332 O 0.32636 0.37146 0.62446 0.0
Fe333 Fe 0.29559 0.35977 0.62643 0.0
O334 O 0.2862 0.40353 0.61658 0.0
O335 O 0.30924 0.43554 0.63564 0.0
O336 O 0.34498 0.43199 0.61394 0.0
C337 C 0.35694 0.41761 0.60059 0.0
C338 C 0.30814 0.38252 0.66417 0.0
O339 O 0.36333 0.38456 0.60165 0.0
C340 C 0.31617 0.29214 0.62829 0.0
O341 O 0.36828 0.39307 0.63961 0.0
O342 O 0.36622 0.33664 0.62976 0.0
O343 O 0.29284 0.37644 0.65109 0.0
O344 O 0.3296 0.391 0.65998 0.0
C345 C 0.30582 0.34313 0.58753 0.0
O346 O 0.33134 0.30162 0.61572 0.0
O347 O 0.30276 0.31536 0.63626 0.0
C348 C 0.3772 0.36143 0.6386 0.0
O349 O 0.32757 0.35163 0.589 0.0
O350 O 0.29274 0.3405 0.60224 0.0
C351 C 0.2921 0.43372 0.62384 0.0
H352 H 0.32061 0.17555 0.05791 0.0
H353 H 0.30291 0.20684 0.03065 0.0
H354 H 0.23359 0.2035 0.05788 0.0
H355 H 0.25141 0.17221 0.08564 0.0
H356 H 0.23803 0.19157 0.0133 0.0
H357 H 0.25693 0.27416 0.06561 0.0
H358 H 0.28393 0.2966 0.09098 0.0
H359 H 0.33724 0.32289 0.04894 0.0
H360 H 0.31076 0.29996 0.02335 0.0
H361 H 0.18657 0.32586 0.95915 0.0
H362 H 0.20119 0.30235 0.98956 0.0
H363 H 0.27383 0.30691 0.96857 0.0
H364 H 0.2592 0.3312 0.93791 0.0
H365 H 0.26616 0.32002 0.01127 0.0
H366 H 0.25264 0.23265 0.96062 0.0
H367 H 0.22807 0.21329 0.93311 0.0
H368 H 0.16779 0.19637 0.97023 0.0
H369 H 0.19198 0.21618 0.99797 0.0
C370 C 0.30146 0.18063 0.05791 0.0
C371 C 0.28738 0.17199 0.07394 0.0
C372 C 0.29142 0.19847 0.04234 0.0
C373 C 0.26713 0.2079 0.0425 0.0
C374 C 0.25244 0.1964 0.05765 0.0
C375 C 0.26257 0.17847 0.0734 0.0
C376 C 0.25819 0.23328 0.02783 0.0
C377 C 0.24376 0.21978 0.01306 0.0
C378 C 0.26641 0.26978 0.02727 0.0
C379 C 0.28195 0.28499 0.04258 0.0
C380 C 0.27447 0.28451 0.06178 0.0
C381 C 0.28967 0.29734 0.07621 0.0
C382 C 0.31232 0.31098 0.07157 0.0
C383 C 0.31971 0.31221 0.0525 0.0
C384 C 0.30461 0.29934 0.03803 0.0
C385 C 0.20574 0.32293 0.96121 0.0
C386 C 0.22178 0.32963 0.94615 0.0
C387 C 0.21404 0.30973 0.97861 0.0
C388 C 0.23849 0.30252 0.98113 0.0
C389 C 0.25488 0.31249 0.96682 0.0
C390 C 0.24654 0.32617 0.94934 0.0
C391 C 0.24588 0.27835 0.99691 0.0
C392 C 0.26015 0.29195 0.01173 0.0
C393 C 0.23786 0.24179 0.99742 0.0
C394 C 0.22404 0.22606 0.98131 0.0
C395 C 0.23417 0.22459 0.96292 0.0
C396 C 0.22032 0.21369 0.94729 0.0
C397 C 0.19635 0.20389 0.94991 0.0
C398 C 0.18635 0.20412 0.96823 0.0
C399 C 0.20014 0.2151 0.98393 0.0
H400 H 0.18554 0.19637 0.93771 0.0
H401 H 0.32418 0.32053 0.08274 0.0
H402 H 0.25619 0.67348 0.43615 0.0
H403 H 0.24184 0.69946 0.46651 0.0
H404 H 0.31496 0.7134 0.48529 0.0
H405 H 0.3293 0.68782 0.45526 0.0
H406 H 0.25158 0.68624 0.5076 0.0
H407 H 0.31821 0.80444 0.49937 0.0
H408 H 0.34214 0.83358 0.47398 0.0
H409 H 0.2894 0.80302 0.43227 0.0
H410 H 0.26469 0.77486 0.45747 0.0
H411 H 0.25433 0.79454 0.5919 0.0
H412 H 0.27045 0.7628 0.56377 0.0
H413 H 0.22704 0.83028 0.52702 0.0
H414 H 0.2106 0.86139 0.55513 0.0
H415 H 0.27388 0.81673 0.51293 0.0
H416 H 0.20676 0.7542 0.54135 0.0
H417 H 0.18431 0.72153 0.56636 0.0
H418 H 0.23761 0.63731 0.56683 0.0
H419 H 0.26115 0.67045 0.54273 0.0
C420 C 0.26909 0.68125 0.44699 0.0
C421 C 0.2938 0.67953 0.44328 0.0
C422 C 0.26092 0.69602 0.46426 0.0
C423 C 0.27743 0.70897 0.47784 0.0
C424 C 0.30202 0.7041 0.4748 0.0
C425 C 0.31014 0.68961 0.45764 0.0
C426 C 0.2694 0.73128 0.49413 0.0
C427 C 0.2564 0.71475 0.50886 0.0
C428 C 0.27577 0.76848 0.49553 0.0
C429 C 0.28972 0.78717 0.48033 0.0
C430 C 0.31157 0.80429 0.48482 0.0
C431 C 0.32525 0.82068 0.47045 0.0
C432 C 0.31727 0.82014 0.45152 0.0
C433 C 0.29549 0.8035 0.44694 0.0
C434 C 0.28163 0.78735 0.46127 0.0
C435 C 0.24904 0.80343 0.57775 0.0
C436 C 0.23171 0.83075 0.57547 0.0
C437 C 0.25797 0.78507 0.56177 0.0
C438 C 0.24969 0.79403 0.54341 0.0
C439 C 0.23362 0.82307 0.5411 0.0
C440 C 0.22442 0.84098 0.55707 0.0
C441 C 0.2563 0.77162 0.5267 0.0
C442 C 0.26906 0.7882 0.5118 0.0
C443 C 0.24977 0.7344 0.52524 0.0
C444 C 0.23598 0.71525 0.5404 0.0
C445 C 0.21404 0.72919 0.54711 0.0
C446 C 0.2011 0.71056 0.56116 0.0
C447 C 0.20963 0.67751 0.56831 0.0
C448 C 0.23117 0.66313 0.56149 0.0
C449 C 0.24439 0.68194 0.54771 0.0
H450 H 0.19945 0.66288 0.579 0.0
H451 H 0.32797 0.83263 0.4404 0.0
H452 H 0.24747 0.70282 0.08367 0.0
H453 H 0.25952 0.73588 0.05509 0.0
H454 H 0.20392 0.68183 0.02281 0.0
H455 H 0.19097 0.64988 0.05171 0.0
H456 H 0.2766 0.7208 0.02302 0.0
H457 H 0.18157 0.73701 0.98833 0.0
H458 H 0.13956 0.7421 0.99901 0.0
H459 H 0.16312 0.7813 0.0537 0.0
H460 H 0.20521 0.77766 0.04317 0.0
H461 H 0.29187 0.75523 0.92819 0.0
H462 H 0.27403 0.73128 0.95736 0.0
H463 H 0.24709 0.83811 0.97132 0.0
H464 H 0.2646 0.86223 0.94153 0.0
H465 H 0.216 0.78368 0.98284 0.0
H466 H 0.2972 0.81393 0.99113 0.0
H467 H 0.34017 0.81755 0.98317 0.0
H468 H 0.34578 0.7012 0.98692 0.0
H469 H 0.3027 0.69693 0.99467 0.0
C470 C 0.23793 0.69764 0.07045 0.0
C471 C 0.21813 0.67395 0.06997 0.0
C472 C 0.24483 0.71667 0.05411 0.0
C473 C 0.23232 0.71201 0.03686 0.0
C474 C 0.21341 0.68672 0.03608 0.0
C475 C 0.20617 0.66819 0.05254 0.0
C476 C 0.23909 0.73365 0.01976 0.0
C477 C 0.2633 0.73455 0.01432 0.0
C478 C 0.22194 0.75304 0.00877 0.0
C479 C 0.19659 0.75666 0.01499 0.0
C480 C 0.17779 0.74706 1.00257 0.0
C481 C 0.15395 0.74975 0.0086 0.0
C482 C 0.14868 0.76205 0.02702 0.0
C483 C 0.16723 0.77192 0.03942 0.0
C484 C 0.19108 0.76956 0.03342 0.0
C485 C 0.28181 0.77352 0.93733 0.0
C486 C 0.27981 0.81061 0.93285 0.0
C487 C 0.27163 0.75983 0.95396 0.0
C488 C 0.2598 0.78312 0.96671 0.0
C489 C 0.25633 0.81979 0.96169 0.0
C490 C 0.26627 0.83351 0.94474 0.0
C491 C 0.2532 0.76926 0.98587 0.0
C492 C 0.22917 0.77002 0.99171 0.0
C493 C 0.27064 0.75286 0.99778 0.0
C494 C 0.29668 0.75513 0.99339 0.0
C495 C 0.30757 0.78912 0.99018 0.0
C496 C 0.33195 0.79129 0.9857 0.0
C497 C 0.3457 0.75961 0.98451 0.0
C498 C 0.3351 0.72572 0.98785 0.0
C499 C 0.3107 0.72342 0.99232 0.0
H500 H 0.36458 0.76131 0.98103 0.0
H501 H 0.13022 0.76392 0.0317 0.0
H502 H 0.3287 0.34644 0.55301 0.0
H503 H 0.31608 0.31896 0.52286 0.0
H504 H 0.25062 0.28199 0.54936 0.0
H505 H 0.26298 0.30968 0.57959 0.0
H506 H 0.30779 0.2484 0.51472 0.0
H507 H 0.20631 0.28073 0.51546 0.0
H508 H 0.17873 0.32799 0.52745 0.0
H509 H 0.23547 0.40696 0.52545 0.0
H510 H 0.26328 0.36031 0.5132 0.0
H511 H 0.23994 0.14137 0.44666 0.0
H512 H 0.25802 0.17042 0.47495 0.0
H513 H 0.25009 0.27563 0.44826 0.0
H514 H 0.23134 0.24688 0.42051 0.0
H515 H 0.23062 0.27598 0.48257 0.0
H516 H 0.30525 0.23742 0.45509 0.0
H517 H 0.33398 0.19338 0.44159 0.0
H518 H 0.33342 0.13315 0.49418 0.0
H519 H 0.30442 0.17658 0.50791 0.0
C520 C 0.31148 0.33281 0.55241 0.0
C521 C 0.29686 0.33024 0.56876 0.0
C522 C 0.30438 0.31693 0.53518 0.0
C523 C 0.28246 0.29836 0.53386 0.0
C524 C 0.26754 0.29646 0.55 0.0
C525 C 0.27461 0.31238 0.56727 0.0
C526 C 0.27545 0.28047 0.51568 0.0
C527 C 0.29091 0.2544 0.50768 0.0
C528 C 0.25355 0.28853 0.50641 0.0
C529 C 0.23693 0.31691 0.51362 0.0
C530 C 0.21287 0.30821 0.51753 0.0
C531 C 0.1972 0.33488 0.52437 0.0
C532 C 0.20536 0.37042 0.52728 0.0
C533 C 0.22919 0.37939 0.52328 0.0
C534 C 0.24493 0.35282 0.51641 0.0
C535 C 0.24265 0.17057 0.44676 0.0
C536 C 0.23433 0.19204 0.43158 0.0
C537 C 0.2529 0.18715 0.46287 0.0
C538 C 0.25518 0.22527 0.46377 0.0
C539 C 0.24817 0.24629 0.448 0.0
C540 C 0.23766 0.22987 0.43213 0.0
C541 C 0.26293 0.24383 0.48157 0.0
C542 C 0.2475 0.26989 0.4896 0.0
C543 C 0.28501 0.23614 0.49066 0.0
C544 C 0.30248 0.21005 0.48246 0.0
C545 C 0.3111 0.21461 0.46372 0.0
C546 C 0.32746 0.1898 0.45604 0.0
C547 C 0.33547 0.16043 0.467 0.0
C548 C 0.32717 0.15588 0.48569 0.0
C549 C 0.31079 0.18061 0.49344 0.0
H550 H 0.34814 0.14125 0.46102 0.0
H551 H 0.19321 0.39102 0.53259 0.0
H552 H 0.68644 0.82929 0.95845 0.0
H553 H 0.70368 0.79726 0.98572 0.0
H554 H 0.7728 0.7967 0.95803 0.0
H555 H 0.75555 0.8279 0.93043 0.0
H556 H 0.76228 0.73088 0.97121 0.0
H557 H 0.76035 0.85249 0.99693 0.0
H558 H 0.74055 0.91077 1.00453 0.0
H559 H 0.69074 0.85521 0.04109 0.0
H560 H 0.71001 0.79653 0.03352 0.0
H561 H 0.8299 0.67398 0.05275 0.0
H562 H 0.81302 0.70417 0.0247 0.0
H563 H 0.74334 0.70527 0.05147 0.0
H564 H 0.76012 0.67576 0.07971 0.0
H565 H 0.75455 0.77093 0.03863 0.0
H566 H 0.75629 0.64957 0.01327 0.0
H567 H 0.77506 0.59079 1.0052 0.0
H568 H 0.82454 0.64509 0.96784 0.0
H569 H 0.80636 0.70431 0.97594 0.0
C570 C 0.70541 0.82294 0.95827 0.0
C571 C 0.7196 0.83111 0.94221 0.0
C572 C 0.71525 0.8046 0.9739 0.0
C573 C 0.73957 0.79466 0.97396 0.0
C574 C 0.75397 0.80394 0.95826 0.0
C575 C 0.7441 0.822 0.94254 0.0
C576 C 0.74974 0.77325 0.99003 0.0
C577 C 0.76093 0.73988 0.98594 0.0
C578 C 0.7474 0.78456 0.00927 0.0
C579 C 0.73647 0.82004 0.01448 0.0
C580 C 0.74512 0.85268 0.00654 0.0
C581 C 0.73399 0.88578 0.01083 0.0
C582 C 0.71429 0.88661 0.02315 0.0
C583 C 0.70593 0.85446 0.03147 0.0
C584 C 0.71697 0.82129 0.02721 0.0
C585 C 0.81089 0.68002 0.05254 0.0
C586 C 0.7964 0.67269 0.06855 0.0
C587 C 0.80126 0.69727 0.03647 0.0
C588 C 0.77691 0.70704 0.036 0.0
C589 C 0.7622 0.6982 0.05158 0.0
C590 C 0.77182 0.68117 0.06768 0.0
C591 C 0.76707 0.7285 0.01983 0.0
C592 C 0.75596 0.76192 0.0239 0.0
C593 C 0.76946 0.71719 1.00059 0.0
C594 C 0.78013 0.68147 0.9954 0.0
C595 C 0.7713 0.64903 1.00345 0.0
C596 C 0.78184 0.61563 0.99887 0.0
C597 C 0.80109 0.61425 0.98612 0.0
C598 C 0.8097 0.64623 0.97778 0.0
C599 C 0.79927 0.67972 0.98236 0.0
H600 H 0.80927 0.58838 0.98262 0.0
H601 H 0.70546 0.91213 0.02623 0.0
H602 H 0.75031 0.34448 0.57425 0.0
H603 H 0.76697 0.31333 0.54632 0.0
H604 H 0.69613 0.27754 0.53022 0.0
H605 H 0.67919 0.30936 0.55784 0.0
H606 H 0.73182 0.22083 0.53396 0.0
H607 H 0.71845 0.33373 0.50265 0.0
H608 H 0.71996 0.39996 0.4973 0.0
H609 H 0.79689 0.39618 0.49581 0.0
H610 H 0.79587 0.32994 0.50151 0.0
H611 H 0.76095 0.15457 0.44004 0.0
H612 H 0.74365 0.1842 0.46819 0.0
H613 H 0.81411 0.21938 0.4857 0.0
H614 H 0.83165 0.18911 0.45784 0.0
H615 H 0.77773 0.27624 0.48071 0.0
H616 H 0.79137 0.16328 0.51257 0.0
H617 H 0.78969 0.09688 0.51735 0.0
H618 H 0.71274 0.10088 0.518 0.0
H619 H 0.71394 0.16729 0.51289 0.0
C620 C 0.73823 0.33059 0.56455 0.0
C621 C 0.71346 0.32933 0.56823 0.0
C622 C 0.74776 0.31288 0.54862 0.0
C623 C 0.73274 0.29316 0.53631 0.0
C624 C 0.70795 0.29269 0.5396 0.0
C625 C 0.69833 0.31102 0.55531 0.0
C626 C 0.74324 0.27096 0.52085 0.0
C627 C 0.7417 0.23293 0.52224 0.0
C628 C 0.75634 0.28688 0.50573 0.0
C629 C 0.75709 0.32689 0.50278 0.0
C630 C 0.73571 0.34706 0.50146 0.0
C631 C 0.73647 0.3846 0.49829 0.0
C632 C 0.75851 0.40229 0.49626 0.0
C633 C 0.77983 0.38245 0.49742 0.0
C634 C 0.77917 0.3449 0.50062 0.0
C635 C 0.7728 0.16792 0.45012 0.0
C636 C 0.79761 0.16971 0.44672 0.0
C637 C 0.76291 0.18477 0.46616 0.0
C638 C 0.77765 0.20406 0.47886 0.0
C639 C 0.80252 0.2046 0.47597 0.0
C640 C 0.81249 0.18714 0.46014 0.0
C641 C 0.76679 0.2262 0.49417 0.0
C642 C 0.76811 0.26422 0.49262 0.0
C643 C 0.75359 0.21027 0.50921 0.0
C644 C 0.75275 0.17024 0.51206 0.0
C645 C 0.77407 0.14997 0.51348 0.0
C646 C 0.77321 0.11233 0.51631 0.0
C647 C 0.75112 0.09465 0.51791 0.0
C648 C 0.72984 0.1146 0.51672 0.0
C649 C 0.7306 0.15225 0.51385 0.0
H650 H 0.75049 0.06551 0.52012 0.0
H651 H 0.75906 0.43134 0.49375 0.0
H652 H 0.75671 0.17251 0.07861 0.0
H653 H 0.77266 0.20448 0.05084 0.0
H654 H 0.70235 0.20494 0.02512 0.0
H655 H 0.6862 0.17252 0.05281 0.0
H656 H 0.73708 0.19523 0.99859 0.0
H657 H 0.72135 0.27608 0.05026 0.0
H658 H 0.72373 0.29873 0.08327 0.0
H659 H 0.79967 0.31428 0.07736 0.0
H660 H 0.7979 0.29047 0.04441 0.0
H661 H 0.75755 0.33733 0.93354 0.0
H662 H 0.74088 0.30648 0.96144 0.0
H663 H 0.81145 0.30002 0.98647 0.0
H664 H 0.82832 0.33122 0.95867 0.0
H665 H 0.7758 0.31373 0.01332 0.0
H666 H 0.79042 0.22995 0.9612 0.0
H667 H 0.78621 0.20958 0.92779 0.0
H668 H 0.70982 0.20299 0.93457 0.0
H669 H 0.71351 0.22395 0.96796 0.0
C670 C 0.74468 0.17878 0.06691 0.0
C671 C 0.72008 0.17055 0.0681 0.0
C672 C 0.75383 0.19721 0.05108 0.0
C673 C 0.73855 0.20798 0.03619 0.0
C674 C 0.71439 0.19722 0.03657 0.0
C675 C 0.7052 0.17866 0.05242 0.0
C676 C 0.74746 0.23243 0.02089 0.0
C677 C 0.74532 0.22128 1.00181 0.0
C678 C 0.75838 0.26637 0.02513 0.0
C679 C 0.75954 0.28098 0.04492 0.0
C680 C 0.73862 0.28391 0.05604 0.0
C681 C 0.73986 0.29698 0.07477 0.0
C682 C 0.76184 0.30787 0.08247 0.0
C683 C 0.78265 0.30573 0.07141 0.0
C684 C 0.78156 0.29234 0.05271 0.0
C685 C 0.7695 0.32995 0.94511 0.0
C686 C 0.79433 0.33624 0.94373 0.0
C687 C 0.75994 0.31224 0.96103 0.0
C688 C 0.77503 0.30024 0.97578 0.0
C689 C 0.79954 0.30882 0.97514 0.0
C690 C 0.80914 0.32664 0.95923 0.0
C691 C 0.76559 0.27633 0.99109 0.0
C692 C 0.76761 0.28762 0.01016 0.0
C693 C 0.75436 0.24269 0.98686 0.0
C694 C 0.75222 0.22891 0.967 0.0
C695 C 0.77271 0.22433 0.95554 0.0
C696 C 0.77042 0.21268 0.93661 0.0
C697 C 0.74776 0.2052 0.92905 0.0
C698 C 0.72735 0.20894 0.94045 0.0
C699 C 0.72953 0.22068 0.95937 0.0
H700 H 0.74597 0.19661 0.91435 0.0
H701 H 0.76273 0.31806 0.09697 0.0
H702 H 0.7531 0.66122 0.43897 0.0
H703 H 0.77009 0.69434 0.46602 0.0
H704 H 0.69926 0.72948 0.48254 0.0
H705 H 0.68211 0.69621 0.45544 0.0
H706 H 0.72883 0.78527 0.48244 0.0
H707 H 0.7312 0.66749 0.51213 0.0
H708 H 0.73929 0.60151 0.51375 0.0
H709 H 0.81412 0.62147 0.50367 0.0
H710 H 0.80628 0.6875 0.50166 0.0
H711 H 0.7601 0.84607 0.57578 0.0
H712 H 0.7441 0.81824 0.54669 0.0
H713 H 0.81593 0.79361 0.52792 0.0
H714 H 0.83213 0.8218 0.55684 0.0
H715 H 0.78673 0.73342 0.52879 0.0
H716 H 0.78506 0.8512 0.50059 0.0
H717 H 0.77699 0.91695 0.49771 0.0
H718 H 0.70173 0.89751 0.50576 0.0
H719 H 0.70933 0.83151 0.50839 0.0
C720 C 0.74108 0.67532 0.44862 0.0
C721 C 0.71625 0.67582 0.44519 0.0
C722 C 0.75081 0.69417 0.46412 0.0
C723 C 0.73593 0.71403 0.4765 0.0
C724 C 0.71108 0.71419 0.47324 0.0
C725 C 0.70127 0.69487 0.45787 0.0
C726 C 0.74656 0.73642 0.49203 0.0
C727 C 0.74123 0.77376 0.49272 0.0
C728 C 0.76317 0.72179 0.50525 0.0
C729 C 0.76805 0.68223 0.50638 0.0
C730 C 0.74928 0.65766 0.50996 0.0
C731 C 0.75384 0.62032 0.51103 0.0
C732 C 0.77719 0.60728 0.50871 0.0
C733 C 0.79603 0.63159 0.5054 0.0
C734 C 0.79153 0.66897 0.5043 0.0
C735 C 0.77251 0.83537 0.56528 0.0
C736 C 0.79736 0.83593 0.56867 0.0
C737 C 0.76335 0.81968 0.54862 0.0
C738 C 0.77885 0.80389 0.53517 0.0
C739 C 0.80369 0.80569 0.53813 0.0
C740 C 0.8129 0.82188 0.55465 0.0
C741 C 0.76892 0.78211 0.5192 0.0
C742 C 0.77437 0.74488 0.51845 0.0
C743 C 0.75246 0.79686 0.50596 0.0
C744 C 0.74779 0.8365 0.5049 0.0
C745 C 0.76681 0.86098 0.50189 0.0
C746 C 0.76231 0.89825 0.50019 0.0
C747 C 0.73888 0.91143 0.50169 0.0
C748 C 0.71988 0.88728 0.50467 0.0
C749 C 0.72425 0.84992 0.50616 0.0
H750 H 0.73547 0.94033 0.50048 0.0
H751 H 0.78071 0.57837 0.50956 0.0
H752 H 0.35874 0.86661 0.95445 0.0
H753 H 0.36522 0.89926 0.9843 0.0
H754 H 0.36422 1.00131 0.95386 0.0
H755 H 0.35829 0.96853 0.92363 0.0
H756 H 0.39738 1.00266 0.98212 0.0
H757 H 0.31415 0.96918 0.97705 0.0
H758 H 0.28038 0.92671 0.97233 0.0
H759 H 0.30252 0.86544 0.02151 0.0
H760 H 0.33665 0.90725 0.02638 0.0
H761 H 0.36245 0.12097 0.0569 0.0
H762 H 0.36651 0.08417 0.02816 0.0
H763 H 0.36916 0.98683 0.06252 0.0
H764 H 0.3648 0.02371 0.0916 0.0
H765 H 0.33743 0.98036 0.03322 0.0
H766 H 0.41889 0.01764 0.03987 0.0
H767 H 0.45175 0.06155 0.04483 0.0
H768 H 0.43269 0.11654 0.99285 0.0
H769 H 0.39939 0.07339 0.98776 0.0
C770 C 0.36014 0.896 0.954 0.0
C771 C 0.35776 0.91497 0.93661 0.0
C772 C 0.36378 0.91466 0.97115 0.0
C773 C 0.3647 0.95283 0.97145 0.0
C774 C 0.36347 0.97185 0.95402 0.0
C775 C 0.36006 0.9531 0.93674 0.0
C776 C 0.3657 0.97272 0.99002 0.0
C777 C 0.38415 0.99806 0.99322 0.0
C778 C 0.34876 0.96611 1.00474 0.0
C779 C 0.32807 0.9412 1.00199 0.0
C780 C 0.3119 0.94654 0.9868 0.0
C781 C 0.29269 0.9226 0.98411 0.0
C782 C 0.28931 0.89343 0.99662 0.0
C783 C 0.30515 0.8881 0.01185 0.0
C784 C 0.32442 0.91191 0.01459 0.0
C785 C 0.36425 0.09177 0.05846 0.0
C786 C 0.36336 0.07534 0.07663 0.0
C787 C 0.36665 0.07073 0.04194 0.0
C788 C 0.36832 0.0327 0.04312 0.0
C789 C 0.36797 0.01615 0.06125 0.0
C790 C 0.36566 0.03728 0.07787 0.0
C791 C 0.36906 0.01045 0.02532 0.0
C792 C 0.35084 0.98472 0.02222 0.0
C793 C 0.38616 0.01681 0.01071 0.0
C794 C 0.4065 0.04239 0.0135 0.0
C795 C 0.4216 0.03923 0.02955 0.0
C796 C 0.44032 0.06398 0.03239 0.0
C797 C 0.44429 0.09185 0.01918 0.0
C798 C 0.42959 0.09495 1.00308 0.0
C799 C 0.41079 0.07033 1.0002 0.0
H800 H 0.45877 0.11101 0.02141 0.0
H801 H 0.2744 0.87499 0.99455 0.0
H802 H 0.15546 0.98065 0.59055 0.0
H803 H 0.15125 0.01687 0.56123 0.0
H804 H 0.1416 0.91836 0.52853 0.0
H805 H 0.14639 0.88233 0.55749 0.0
H806 H 0.17412 0.95849 0.51235 0.0
H807 H 0.09498 0.98095 0.53732 0.0
H808 H 0.06559 1.0007 0.56152 0.0
H809 H 0.09597 0.1081 0.56125 0.0
H810 H 0.12576 0.08886 0.53722 0.0
H811 H 0.14732 0.03906 0.42283 0.0
H812 H 0.14214 0.00507 0.45269 0.0
H813 H 0.15554 0.10289 0.48505 0.0
H814 H 0.16048 0.13702 0.45545 0.0
H815 H 0.12024 0.06374 0.50137 0.0
H816 H 0.19955 0.04192 0.47756 0.0
H817 H 0.2305 0.02285 0.45448 0.0
H818 H 0.20107 0.91487 0.45352 0.0
H819 H 0.16963 0.93348 0.47633 0.0
C820 C 0.15191 0.96687 0.57716 0.0
C821 C 0.1513 0.92865 0.57634 0.0
C822 C 0.14951 0.98756 0.56039 0.0
C823 C 0.14608 0.97039 0.54259 0.0
C824 C 0.1444 0.93231 0.542 0.0
C825 C 0.14706 0.91172 0.55862 0.0
C826 C 0.14592 0.99144 0.52435 0.0
C827 C 0.162 0.98109 0.50986 0.0
C828 C 0.13071 0.02172 0.52124 0.0
C829 C 0.11274 0.03336 0.53561 0.0
C830 C 0.09551 0.00871 0.54253 0.0
C831 C 0.07875 0.01983 0.55619 0.0
C832 C 0.07895 0.05561 0.56295 0.0
C833 C 0.09585 0.08038 0.55602 0.0
C834 C 0.11266 0.0694 0.54236 0.0
C835 C 0.14881 0.05345 0.43629 0.0
C836 C 0.15444 0.09077 0.43668 0.0
C837 C 0.14597 0.03394 0.45336 0.0
C838 C 0.14875 0.05133 0.47115 0.0
C839 C 0.15332 0.08885 0.47155 0.0
C840 C 0.15623 0.10831 0.45454 0.0
C841 C 0.14813 0.03031 0.48934 0.0
C842 C 0.13212 0.04085 0.50383 0.0
C843 C 0.16348 1.00024 0.49254 0.0
C844 C 0.18207 0.98921 0.4785 0.0
C845 C 0.19949 0.01422 0.47226 0.0
C846 C 0.21716 0.00348 0.45925 0.0
C847 C 0.21775 0.96768 0.45255 0.0
C848 C 0.20058 0.9426 0.45873 0.0
C849 C 0.18282 0.95323 0.47168 0.0
H850 H 0.2316 0.95931 0.44268 0.0
H851 H 0.06597 0.06416 0.57353 0.0
H852 H 0.63419 0.89625 0.94683 0.0
H853 H 0.63272 0.92518 0.97802 0.0
H854 H 0.67038 0.01844 0.95561 0.0
H855 H 0.67256 0.98899 0.92417 0.0
H856 H 0.68912 0.99927 0.98885 0.0
H857 H 0.60992 0.02224 0.96646 0.0
H858 H 0.57053 0.00764 0.95237 0.0
H859 H 0.55567 0.93466 0.99881 0.0
H860 H 0.59513 0.94844 0.01305 0.0
H861 H 0.6272 0.10095 0.07194 0.0
H862 H 0.62525 0.07281 0.04049 0.0
H863 H 0.678 0.99357 0.05779 0.0
H864 H 0.6805 0.02228 0.08941 0.0
H865 H 0.61386 0.00954 0.02627 0.0
H866 H 0.71547 0.97725 0.01786 0.0
H867 H 0.75415 0.99821 0.03096 0.0
H868 H 0.7234 0.10254 0.04355 0.0
H869 H 0.68462 0.08243 0.03032 0.0
C870 C 0.64189 0.92317 0.94835 0.0
C871 C 0.65336 0.94037 0.93287 0.0
C872 C 0.64099 0.93973 0.96628 0.0
C873 C 0.65123 0.97417 0.9692 0.0
C874 C 0.66234 0.99184 0.95372 0.0
C875 C 0.66338 0.97513 0.9357 0.0
C876 C 0.65088 0.99091 0.9886 0.0
C877 C 0.67266 1.00158 0.99702 0.0
C878 C 0.62937 0.99445 0.99922 0.0
C879 C 0.60557 0.98616 0.99074 0.0
C880 C 0.59833 0.00288 0.9736 0.0
C881 C 0.57597 0.99478 0.96559 0.0
C882 C 0.56062 0.97018 0.97467 0.0
C883 C 0.56758 0.95369 0.99179 0.0
C884 C 0.58993 0.96167 0.99985 0.0
C885 C 0.63815 0.07717 0.06923 0.0
C886 C 0.6541 0.064 0.08321 0.0
C887 C 0.63698 0.06106 0.05119 0.0
C888 C 0.65178 0.03146 0.04662 0.0
C889 C 0.66672 0.0168 0.06089 0.0
C890 C 0.66792 0.03298 0.07903 0.0
C891 C 0.65214 0.01731 0.02667 0.0
C892 C 0.63035 0.00712 0.01814 0.0
C893 C 0.67356 0.01521 0.0158 0.0
C894 C 0.69697 0.028 0.02343 0.0
C895 C 0.71695 0.00467 0.02341 0.0
C896 C 0.7389 0.01642 0.03086 0.0
C897 C 0.74117 0.0516 0.03822 0.0
C898 C 0.72155 0.07521 0.03799 0.0
C899 C 0.69956 0.06361 0.03054 0.0
H900 H 0.75816 0.06062 0.04403 0.0
H901 H 0.54332 0.96394 0.96845 0.0
H902 H 0.83761 0.98526 0.58952 0.0
H903 H 0.84075 0.01336 0.55792 0.0
H904 H 0.89132 0.93098 0.54067 0.0
H905 H 0.88833 0.90262 0.57222 0.0
H906 H 0.90277 1.00213 0.52708 0.0
H907 H 0.83488 0.9191 0.529 0.0
H908 H 0.79718 0.89578 0.54268 0.0
H909 H 0.76385 0.99978 0.53437 0.0
H910 H 0.80142 0.02391 0.52069 0.0
H911 H 0.89127 0.03309 0.4263 0.0
H912 H 0.89381 0.00407 0.45802 0.0
H913 H 0.83185 0.06529 0.47638 0.0
H914 H 0.82862 0.09206 0.44473 0.0
H915 H 0.82735 1.00205 0.4894 0.0
H916 H 0.89219 0.08763 0.48896 0.0
H917 H 0.92925 0.11651 0.47714 0.0
H918 H 0.96744 0.01607 0.48459 0.0
H919 H 0.93049 0.98643 0.49622 0.0
C920 C 0.84984 0.97355 0.57918 0.0
C921 C 0.86265 0.94156 0.58341 0.0
C922 C 0.85149 0.98954 0.56107 0.0
C923 C 0.86602 0.97394 0.54687 0.0
C924 C 0.87995 0.94338 0.5514 0.0
C925 C 0.87819 0.9272 0.56946 0.0
C926 C 0.86534 0.98788 0.52694 0.0
C927 C 0.88638 1.00177 0.51871 0.0
C928 C 0.84381 0.98814 0.51622 0.0
C929 C 0.82105 0.97342 0.52403 0.0
C930 C 0.81958 0.93709 0.53022 0.0
C931 C 0.79825 0.92374 0.53803 0.0
C932 C 0.77823 0.94637 0.53963 0.0
C933 C 0.77942 0.98234 0.53323 0.0
C934 C 0.80071 0.99586 0.52541 0.0
C935 C 0.87821 0.03996 0.43716 0.0
C936 C 0.85999 0.06518 0.43325 0.0
C937 C 0.87974 0.0237 0.45531 0.0
C938 C 0.86326 0.03291 0.46981 0.0
C939 C 0.84485 0.05767 0.46558 0.0
C940 C 0.84316 0.07337 0.44751 0.0
C941 C 0.86479 0.01701 0.48941 0.0
C942 C 0.84385 1.00248 0.49763 0.0
C943 C 0.88629 0.01702 0.50025 0.0
C944 C 0.90852 0.0347 0.49324 0.0
C945 C 0.90845 0.07162 0.48792 0.0
C946 C 0.92944 0.08814 0.48128 0.0
C947 C 0.95067 0.06811 0.48005 0.0
C948 C 0.95097 0.03153 0.48551 0.0
C949 C 0.93001 0.01486 0.49213 0.0
H950 H 0.96691 0.08095 0.47492 0.0
H951 H 0.76172 0.93589 0.54563 0.0
H952 H 0.84618 0.51842 0.09024 0.0
H953 H 0.84806 0.48821 0.05905 0.0
H954 H 0.88231 0.58304 0.03503 0.0
H955 H 0.88118 0.61278 0.06607 0.0
H956 H 0.82751 0.50413 0.02675 0.0
H957 H 0.91773 0.56177 0.9981 0.0
H958 H 0.95751 0.57943 0.01049 0.0
H959 H 0.94843 0.50742 0.05828 0.0
H960 H 0.90876 0.48897 0.04605 0.0
H961 H 0.83223 0.4817 0.92548 0.0
H962 H 0.83442 0.50908 0.95744 0.0
H963 H 0.89013 0.43325 0.97299 0.0
H964 H 0.88813 0.406 0.94123 0.0
H965 H 0.90052 0.4985 0.98638 0.0
H966 H 0.83287 0.41957 0.98606 0.0
H967 H 0.79383 0.394 0.97642 0.0
H968 H 0.75925 0.49499 0.98992 0.0
H969 H 0.79817 0.52166 0.99921 0.0
C970 C 0.85462 0.53249 0.07842 0.0
C971 C 0.86375 0.56793 0.08079 0.0
C972 C 0.85549 0.51531 0.06053 0.0
C973 C 0.86551 0.53315 0.04463 0.0
C974 C 0.87493 0.56829 0.04708 0.0
C975 C 0.87424 0.58534 0.06492 0.0
C976 C 0.86531 0.51587 0.02532 0.0
C977 C 0.84348 0.50294 0.01792 0.0
C978 C 0.8862 0.51362 0.01386 0.0
C979 C 0.91017 0.52426 0.02124 0.0
C980 C 0.92427 0.5496 0.01121 0.0
C981 C 0.94679 0.55977 0.01821 0.0
C982 C 0.95546 0.54465 0.03519 0.0
C983 C 0.94165 0.51922 0.04517 0.0
C984 C 0.91914 0.50893 0.03822 0.0
C985 C 0.8453 0.47139 0.93558 0.0
C986 C 0.86007 0.44172 0.93075 0.0
C987 C 0.84634 0.48679 0.95393 0.0
C988 C 0.86222 0.47291 0.96774 0.0
C989 C 0.87769 0.4444 0.96263 0.0
C990 C 0.87654 0.42886 0.94442 0.0
C991 C 0.86263 0.48745 0.98764 0.0
C992 C 0.88451 0.49989 0.99515 0.0
C993 C 0.84188 0.48834 0.99935 0.0
C994 C 0.81857 0.47285 0.99304 0.0
C995 C 0.81704 0.4366 0.98666 0.0
C996 C 0.79492 0.42186 0.98128 0.0
C997 C 0.77414 0.44294 0.98239 0.0
C998 C 0.77541 0.47881 0.98892 0.0
C999 C 0.79751 0.49377 0.99422 0.0
H1000 H 0.75702 0.43141 0.97829 0.0
H1001 H 0.97289 0.55258 0.04059 0.0
H1002 H 0.62701 0.60751 0.44351 0.0
H1003 H 0.6213 0.57694 0.47413 0.0
H1004 H 0.66266 0.4855 0.45411 0.0
H1005 H 0.66858 0.51597 0.42328 0.0
H1006 H 0.62029 0.4668 0.47665 0.0
H1007 H 0.68977 0.54919 0.47952 0.0
H1008 H 0.70885 0.60969 0.47694 0.0
H1009 H 0.65948 0.65261 0.51825 0.0
H1010 H 0.63989 0.59267 0.52086 0.0
H1011 H 0.65183 0.38203 0.56307 0.0
H1012 H 0.64862 0.40991 0.53177 0.0
H1013 H 0.63255 0.51333 0.5582 0.0
H1014 H 0.63838 0.48582 0.58984 0.0
H1015 H 0.65911 0.52751 0.53194 0.0
H1016 H 0.58952 0.45347 0.53172 0.0
H1017 H 0.56544 0.39772 0.53584 0.0
H1018 H 0.60568 0.34505 0.49145 0.0
H1019 H 0.6303 0.40027 0.48728 0.0
C1020 C 0.6346 0.58063 0.44542 0.0
C1021 C 0.64839 0.56434 0.43088 0.0
C1022 C 0.63134 0.56323 0.463 0.0
C1023 C 0.6418 0.52916 0.46651 0.0
C1024 C 0.65444 0.51182 0.45171 0.0
C1025 C 0.65779 0.52929 0.43408 0.0
C1026 C 0.64094 0.51291 0.48598 0.0
C1027 C 0.62893 0.47978 0.48876 0.0
C1028 C 0.65127 0.53069 0.50193 0.0
C1029 C 0.66324 0.56656 0.50026 0.0
C1030 C 0.68287 0.57161 0.48792 0.0
C1031 C 0.69377 0.60578 0.48646 0.0
C1032 C 0.68529 0.63488 0.49739 0.0
C1033 C 0.66597 0.63 0.50979 0.0
C1034 C 0.65498 0.59598 0.51127 0.0
C1035 C 0.64735 0.41066 0.56225 0.0
C1036 C 0.64516 0.4317 0.57894 0.0
C1037 C 0.64525 0.42661 0.54422 0.0
C1038 C 0.63965 0.46372 0.54232 0.0
C1039 C 0.63684 0.48464 0.55909 0.0
C1040 C 0.63998 0.46892 0.57721 0.0
C1041 C 0.63836 0.481 0.52293 0.0
C1042 C 0.65013 0.51435 0.52004 0.0
C1043 C 0.62691 0.46408 0.50707 0.0
C1044 C 0.61188 0.43097 0.50928 0.0
C1045 C 0.59332 0.42995 0.5229 0.0
C1046 C 0.57957 0.39843 0.52524 0.0
C1047 C 0.58405 0.36785 0.51393 0.0
C1048 C 0.60224 0.36876 0.5002 0.0
C1049 C 0.61608 0.40018 0.49783 0.0
H1050 H 0.57341 0.34347 0.51578 0.0
H1051 H 0.69368 0.66123 0.49638 0.0
H1052 H 0.15411 0.51426 0.09278 0.0
H1053 H 0.14786 0.48358 0.06214 0.0
H1054 H 0.13151 0.58651 0.03557 0.0
H1055 H 0.13673 0.61715 0.06627 0.0
H1056 H 0.10555 0.53267 0.01894 0.0
H1057 H 0.18843 0.55437 0.03328 0.0
H1058 H 0.2221 0.55368 0.05616 0.0
H1059 H 0.21808 0.43714 0.05932 0.0
H1060 H 0.18424 0.43718 0.03652 0.0
H1061 H 0.14446 0.47019 0.92445 0.0
H1062 H 0.13956 0.50548 0.95415 0.0
H1063 H 0.14717 0.40723 0.98723 0.0
H1064 H 0.15156 0.37206 0.95811 0.0
H1065 H 0.17783 0.4633 0.99928 0.0
H1066 H 0.09431 0.44404 0.98294 0.0
H1067 H 0.05928 0.44835 0.96152 0.0
H1068 H 0.06496 0.56488 0.96165 0.0
H1069 H 0.10034 0.56123 0.98278 0.0
C1070 C 0.14866 0.53027 0.08053 0.0
C1071 C 0.14618 0.56822 0.08199 0.0
C1072 C 0.14515 0.51272 0.06298 0.0
C1073 C 0.13976 0.53284 0.04639 0.0
C1074 C 0.13573 0.57037 0.04808 0.0
C1075 C 0.13882 0.58787 0.0657 0.0
C1076 C 0.14104 0.51544 0.02714 0.0
C1077 C 0.12143 0.51783 0.01455 0.0
C1078 C 0.16183 0.49636 0.02125 0.0
C1079 C 0.18377 0.49578 0.03327 0.0
C1080 C 0.19488 0.52857 0.03873 0.0
C1081 C 0.21391 0.52832 0.05174 0.0
C1082 C 0.22213 0.49541 0.05927 0.0
C1083 C 0.21164 0.46262 0.0535 0.0
C1084 C 0.1926 0.46272 0.04047 0.0
C1085 C 0.14463 0.45607 0.93804 0.0
C1086 C 0.14852 0.41824 0.93878 0.0
C1087 C 0.14195 0.47628 0.955 0.0
C1088 C 0.14324 0.45899 0.97293 0.0
C1089 C 0.14635 0.42122 0.97361 0.0
C1090 C 0.14877 0.40111 0.95682 0.0
C1091 C 0.14213 0.47979 0.99119 0.0
C1092 C 0.16195 0.47826 1.00359 0.0
C1093 C 0.12168 0.50012 0.99667 0.0
C1094 C 0.10014 0.50234 0.98427 0.0
C1095 C 0.08821 0.47058 0.97828 0.0
C1096 C 0.06828 0.4729 0.9662 0.0
C1097 C 0.05994 0.50686 0.96019 0.0
C1098 C 0.07147 0.53858 0.96629 0.0
C1099 C 0.09146 0.53641 0.97832 0.0
H1100 H 0.04451 0.5086 0.95084 0.0
H1101 H 0.23661 0.49536 0.06958 0.0
H1102 H 0.36953 0.39036 0.56578 0.0
H1103 H 0.37273 0.42261 0.53555 0.0
H1104 H 0.3588 0.5243 0.56437 0.0
H1105 H 0.35427 0.49161 0.59469 0.0
H1106 H 0.33492 0.52482 0.5338 0.0
H1107 H 0.41693 0.49708 0.54584 0.0
H1108 H 0.45197 0.45908 0.55382 0.0
H1109 H 0.43969 0.39396 0.50379 0.0
H1110 H 0.40437 0.43129 0.49563 0.0
H1111 H 0.36728 0.6349 0.45579 0.0
H1112 H 0.37024 0.60268 0.48606 0.0
H1113 H 0.36658 0.5 0.45639 0.0
H1114 H 0.36353 0.5323 0.42567 0.0
H1115 H 0.40013 0.50124 0.48717 0.0
H1116 H 0.31714 0.53342 0.47598 0.0
H1117 H 0.28432 0.57615 0.46859 0.0
H1118 H 0.30165 0.63903 0.51845 0.0
H1119 H 0.335 0.59718 0.52587 0.0
C1120 C 0.36757 0.41969 0.56581 0.0
C1121 C 0.36197 0.43841 0.58278 0.0
C1122 C 0.36948 0.43822 0.54842 0.0
C1123 C 0.36654 0.47619 0.54755 0.0
C1124 C 0.36127 0.49507 0.56455 0.0
C1125 C 0.35886 0.47638 0.58195 0.0
C1126 C 0.36793 0.49574 0.52878 0.0
C1127 C 0.34944 0.51999 0.5238 0.0
C1128 C 0.3866 0.48928 0.5154 0.0
C1129 C 0.40787 0.4668 0.52022 0.0
C1130 C 0.4216 0.4745 0.53661 0.0
C1131 C 0.44153 0.45311 0.54115 0.0
C1132 C 0.44802 0.42408 0.52934 0.0
C1133 C 0.43463 0.41644 0.51293 0.0
C1134 C 0.41467 0.43773 0.50833 0.0
C1135 C 0.36743 0.60542 0.45555 0.0
C1136 C 0.365 0.58621 0.43821 0.0
C1137 C 0.36904 0.58705 0.47296 0.0
C1138 C 0.36815 0.54896 0.47356 0.0
C1139 C 0.36715 0.52946 0.45626 0.0
C1140 C 0.36551 0.54794 0.4387 0.0
C1141 C 0.36719 0.52992 0.49235 0.0
C1142 C 0.38571 0.5059 0.49728 0.0
C1143 C 0.34885 0.53719 0.50584 0.0
C1144 C 0.32863 0.56219 0.50146 0.0
C1145 C 0.31407 0.55648 0.48531 0.0
C1146 C 0.29538 0.58056 0.4811 0.0
C1147 C 0.2909 0.61026 0.49305 0.0
C1148 C 0.30513 0.61599 0.50922 0.0
C1149 C 0.32392 0.59208 0.51344 0.0
H1150 H 0.27639 0.62878 0.4898 0.0
H1151 H 0.46345 0.40754 0.53289 0.0
H1152 H 0.31319 0.05895 0.18626 0.0
H1153 H 0.2947 0.05251 0.21795 0.0
H1154 H 0.28101 0.168 0.21931 0.0
H1155 H 0.29953 0.17463 0.18796 0.0
H1156 H 0.29609 0.14393 0.25359 0.0
H1157 H 0.23937 0.10495 0.20496 0.0
H1158 H 0.22569 0.06558 0.17856 0.0
H1159 H 0.22948 0.97222 0.21529 0.0
H1160 H 0.24407 0.01079 0.24173 0.0
H1161 H 0.20656 0.17636 0.31932 0.0
H1162 H 0.22619 0.16867 0.28841 0.0
H1163 H 0.22948 0.0527 0.29752 0.0
H1164 H 0.20906 0.06025 0.32842 0.0
H1165 H 0.22275 0.06821 0.25968 0.0
H1166 H 0.27739 0.10479 0.30835 0.0
H1167 H 0.29188 0.14201 0.33533 0.0
H1168 H 0.29297 0.23665 0.29934 0.0
H1169 H 0.27812 0.2001 0.27221 0.0
C1170 C 0.30671 0.08305 0.19351 0.0
C1171 C 0.30779 0.11732 0.18454 0.0
C1172 C 0.29593 0.07928 0.21155 0.0
C1173 C 0.28611 0.1097 0.22092 0.0
C1174 C 0.28834 0.14409 0.21238 0.0
C1175 C 0.29894 0.14784 0.1944 0.0
C1176 C 0.27264 0.10622 0.23925 0.0
C1177 C 0.28 0.12748 0.25485 0.0
C1178 C 0.25204 0.08381 0.24119 0.0
C1179 C 0.24316 0.06072 0.22526 0.0
C1180 C 0.2376 0.07596 0.20735 0.0
C1181 C 0.22972 0.05377 0.19236 0.0
C1182 C 0.2269 0.01638 0.19521 0.0
C1183 C 0.23189 1.00113 0.21306 0.0
C1184 C 0.24003 0.02312 0.22803 0.0
C1185 C 0.2109 0.14911 0.31453 0.0
C1186 C 0.20634 0.11894 0.32633 0.0
C1187 C 0.22229 0.14474 0.2969 0.0
C1188 C 0.22996 0.11021 0.29083 0.0
C1189 C 0.22391 0.07965 0.30194 0.0
C1190 C 0.21213 0.08397 0.31955 0.0
C1191 C 0.24582 0.10688 0.27373 0.0
C1192 C 0.23899 0.08431 0.25845 0.0
C1193 C 0.26712 0.12775 0.27209 0.0
C1194 C 0.27649 0.14973 0.28828 0.0
C1195 C 0.28061 0.13357 0.30621 0.0
C1196 C 0.28888 0.15455 0.32153 0.0
C1197 C 0.29331 0.19168 0.31906 0.0
C1198 C 0.28953 0.20789 0.30124 0.0
C1199 C 0.28121 0.18704 0.28588 0.0
H1200 H 0.29969 0.20789 0.33094 0.0
H1201 H 0.2207 0.99924 0.18364 0.0
H1202 H 0.31436 0.93926 0.82489 0.0
H1203 H 0.29497 0.95015 0.7938 0.0
H1204 H 0.27148 0.83845 0.79224 0.0
H1205 H 0.29093 0.82711 0.8228 0.0
H1206 H 0.29799 0.91204 0.75584 0.0
H1207 H 0.21083 0.84347 0.78311 0.0
H1208 H 0.1896 0.83494 0.81372 0.0
H1209 H 0.22156 0.93273 0.83571 0.0
H1210 H 0.2426 0.94221 0.80513 0.0
H1211 H 0.22795 0.83431 0.68418 0.0
H1212 H 0.24643 0.84489 0.71517 0.0
H1213 H 0.20534 0.94331 0.7219 0.0
H1214 H 0.18689 0.93346 0.69034 0.0
H1215 H 0.2097 0.89364 0.75636 0.0
H1216 H 0.25626 0.96004 0.71135 0.0
H1217 H 0.27734 0.96933 0.68077 0.0
H1218 H 0.32612 0.88284 0.69457 0.0
H1219 H 0.30502 0.87254 0.72508 0.0
C1220 C 0.30558 0.9168 0.8177 0.0
C1221 C 0.3041 0.88236 0.82648 0.0
C1222 C 0.29445 0.92312 0.79996 0.0
C1223 C 0.28149 0.89521 0.79087 0.0
C1224 C 0.28114 0.86046 0.79911 0.0
C1225 C 0.29235 0.85406 0.81663 0.0
C1226 C 0.26699 0.90214 0.7734 0.0
C1227 C 0.27867 0.90851 0.75597 0.0
C1228 C 0.2417 0.89826 0.77363 0.0
C1229 C 0.22842 0.89338 0.79185 0.0
C1230 C 0.21318 0.8633 0.79441 0.0
C1231 C 0.2012 0.85828 0.81177 0.0
C1232 C 0.20427 0.88322 0.82666 0.0
C1233 C 0.21924 0.91336 0.82419 0.0
C1234 C 0.2312 0.91855 0.80685 0.0
C1235 C 0.22249 0.85808 0.69223 0.0
C1236 C 0.20597 0.88319 0.68458 0.0
C1237 C 0.23319 0.86409 0.70998 0.0
C1238 C 0.2275 0.89508 0.72072 0.0
C1239 C 0.21004 0.91927 0.71377 0.0
C1240 C 0.19948 0.91354 0.69575 0.0
C1241 C 0.2408 0.90229 0.73875 0.0
C1242 C 0.22892 0.89816 0.75628 0.0
C1243 C 0.26584 0.90887 0.73863 0.0
C1244 C 0.27894 0.91536 0.72047 0.0
C1245 C 0.27137 0.94281 0.70781 0.0
C1246 C 0.28333 0.94828 0.69049 0.0
C1247 C 0.30303 0.92665 0.68571 0.0
C1248 C 0.31085 0.89957 0.69828 0.0
C1249 C 0.29891 0.89393 0.71561 0.0
H1250 H 0.31226 0.9309 0.67229 0.0
H1251 H 0.19503 0.87922 0.8401 0.0
H1252 H 0.7782 0.83288 0.67804 0.0
H1253 H 0.75958 0.83186 0.70959 0.0
H1254 H 0.80474 0.92102 0.7274 0.0
H1255 H 0.82405 0.92138 0.69579 0.0
H1256 H 0.79733 0.87205 0.75632 0.0
H1257 H 0.74901 0.93321 0.70925 0.0
H1258 H 0.72791 0.936 0.67834 0.0
H1259 H 0.67986 0.85163 0.69657 0.0
H1260 H 0.70162 0.84657 0.72714 0.0
H1261 H 0.73 0.93004 0.83441 0.0
H1262 H 0.7483 0.93026 0.80269 0.0
H1263 H 0.70107 0.84333 0.78517 0.0
H1264 H 0.68218 0.84387 0.81704 0.0
H1265 H 0.70912 0.89059 0.75595 0.0
H1266 H 0.75736 0.82465 0.80048 0.0
H1267 H 0.77949 0.81485 0.83057 0.0
H1268 H 0.82639 0.90392 0.81707 0.0
H1269 H 0.80429 0.91462 0.78702 0.0
C1270 C 0.78449 0.85185 0.6888 0.0
C1271 C 0.80239 0.87749 0.68442 0.0
C1272 C 0.77375 0.85133 0.7068 0.0
C1273 C 0.78026 0.87703 0.7207 0.0
C1274 C 0.79927 0.90114 0.71683 0.0
C1275 C 0.81034 0.9013 0.6988 0.0
C1276 C 0.76616 0.88012 0.73869 0.0
C1277 C 0.77811 0.87662 0.75623 0.0
C1278 C 0.74089 0.88503 0.73857 0.0
C1279 C 0.72714 0.88926 0.72048 0.0
C1280 C 0.73408 0.91501 0.70665 0.0
C1281 C 0.72203 0.91694 0.68915 0.0
C1282 C 0.70246 0.89423 0.68555 0.0
C1283 C 0.69501 0.86926 0.69938 0.0
C1284 C 0.70731 0.86666 0.71676 0.0
C1285 C 0.72312 0.91164 0.8236 0.0
C1286 C 0.70468 0.88703 0.82804 0.0
C1287 C 0.73371 0.91155 0.80555 0.0
C1288 C 0.72649 0.88622 0.79167 0.0
C1289 C 0.70703 0.863 0.79569 0.0
C1290 C 0.69618 0.86338 0.81381 0.0
C1291 C 0.74033 0.88267 0.77356 0.0
C1292 C 0.72835 0.88611 0.75601 0.0
C1293 C 0.76552 0.87723 0.77362 0.0
C1294 C 0.77903 0.87065 0.79158 0.0
C1295 C 0.77229 0.84231 0.80399 0.0
C1296 C 0.78483 0.83657 0.82103 0.0
C1297 C 0.8043 0.8588 0.82575 0.0
C1298 C 0.81129 0.88675 0.81341 0.0
C1299 C 0.79877 0.89265 0.79636 0.0
H1300 H 0.81399 0.85432 0.83895 0.0
H1301 H 0.69309 0.89593 0.67202 0.0
H1302 H 0.74555 0.15863 0.1773 0.0
H1303 H 0.76234 0.1548 0.20923 0.0
H1304 H 0.69733 0.10463 0.22961 0.0
H1305 H 0.68022 0.10754 0.19713 0.0
H1306 H 0.71986 0.16355 0.254 0.0
H1307 H 0.73808 0.05043 0.22302 0.0
H1308 H 0.75235 0.01263 0.19622 0.0
H1309 H 0.82229 0.06079 0.2008 0.0
H1310 H 0.8083 0.09949 0.22738 0.0
H1311 H 0.76541 0.10267 0.34089 0.0
H1312 H 0.74759 0.10314 0.30927 0.0
H1313 H 0.81563 0.13384 0.28479 0.0
H1314 H 0.83402 0.1328 0.31692 0.0
H1315 H 0.79112 0.084 0.26225 0.0
H1316 H 0.77357 0.19776 0.29218 0.0
H1317 H 0.75976 0.23817 0.31807 0.0
H1318 H 0.68932 0.19132 0.31475 0.0
H1319 H 0.70281 0.1502 0.28903 0.0
C1320 C 0.73458 0.14689 0.18849 0.0
C1321 C 0.71156 0.13289 0.18451 0.0
C1322 C 0.74431 0.14477 0.20678 0.0
C1323 C 0.73126 0.12895 0.22168 0.0
C1324 C 0.70773 0.11676 0.2182 0.0
C1325 C 0.69797 0.11851 0.19968 0.0
C1326 C 0.74293 0.12429 0.24059 0.0
C1327 C 0.73513 0.14565 0.25595 0.0
C1328 C 0.76342 0.1019 0.24283 0.0
C1329 C 0.77206 0.07814 0.22709 0.0
C1330 C 0.75645 0.05321 0.21821 0.0
C1331 C 0.76449 0.03158 0.20307 0.0
C1332 C 0.7882 0.03436 0.19679 0.0
C1333 C 0.80392 0.0587 0.20567 0.0
C1334 C 0.79595 0.08048 0.22079 0.0
C1335 C 0.77675 0.10951 0.32884 0.0
C1336 C 0.8011 0.11842 0.33148 0.0
C1337 C 0.76645 0.10974 0.31071 0.0
C1338 C 0.78006 0.11942 0.29468 0.0
C1339 C 0.80472 0.1266 0.29702 0.0
C1340 C 0.81522 0.12603 0.31533 0.0
C1341 C 0.76796 0.12312 0.2758 0.0
C1342 C 0.77575 0.10174 0.26039 0.0
C1343 C 0.74752 0.14572 0.27344 0.0
C1344 C 0.73926 0.17067 0.28878 0.0
C1345 C 0.75518 0.19589 0.29706 0.0
C1346 C 0.7474 0.21895 0.31169 0.0
C1347 C 0.72369 0.21726 0.31807 0.0
C1348 C 0.70769 0.19257 0.3098 0.0
C1349 C 0.71538 0.1694 0.29518 0.0
H1350 H 0.71771 0.23513 0.32941 0.0
H1351 H 0.79439 0.0176 0.18506 0.0
H1352 H 0.68568 0.59358 0.31724 0.0
H1353 H 0.70411 0.5941 0.28526 0.0
H1354 H 0.76322 0.6574 0.30718 0.0
H1355 H 0.74488 0.65769 0.33864 0.0
H1356 H 0.75235 0.68152 0.27327 0.0
H1357 H 0.7669 0.5638 0.30081 0.0
H1358 H 0.75588 0.5051 0.31547 0.0
H1359 H 0.71494 0.47693 0.26559 0.0
H1360 H 0.72547 0.53573 0.25074 0.0
H1361 H 0.83633 0.64681 0.19729 0.0
H1362 H 0.81849 0.646 0.2296 0.0
H1363 H 0.75536 0.59337 0.20706 0.0
H1364 H 0.7728 0.59437 0.17517 0.0
H1365 H 0.76902 0.56371 0.24134 0.0
H1366 H 0.75514 0.6826 0.21405 0.0
H1367 H 0.76765 0.74074 0.19953 0.0
H1368 H 0.8091 0.76619 0.24953 0.0
H1369 H 0.79713 0.70787 0.26423 0.0
C1370 C 0.70241 0.60802 0.31513 0.0
C1371 C 0.71388 0.62521 0.3306 0.0
C1372 C 0.71306 0.60808 0.29688 0.0
C1373 C 0.73535 0.62531 0.29381 0.0
C1374 C 0.74614 0.64381 0.30908 0.0
C1375 C 0.7356 0.64374 0.32716 0.0
C1376 C 0.7481 0.62328 0.27502 0.0
C1377 C 0.75617 0.65568 0.26643 0.0
C1378 C 0.75306 0.5897 0.26588 0.0
C1379 C 0.74675 0.55432 0.27476 0.0
C1380 C 0.75539 0.54521 0.29303 0.0
C1381 C 0.74926 0.51191 0.30137 0.0
C1382 C 0.73466 0.48735 0.29149 0.0
C1383 C 0.72621 0.49601 0.27324 0.0
C1384 C 0.73226 0.52931 0.26485 0.0
C1385 C 0.81883 0.63463 0.19938 0.0
C1386 C 0.8059 0.62094 0.18371 0.0
C1387 C 0.80858 0.63434 0.21777 0.0
C1388 C 0.78544 0.6199 0.22074 0.0
C1389 C 0.77316 0.60469 0.2052 0.0
C1390 C 0.78315 0.60545 0.18693 0.0
C1391 C 0.77322 0.62186 0.23968 0.0
C1392 C 0.76523 0.58949 0.24826 0.0
C1393 C 0.76849 0.65543 0.24887 0.0
C1394 C 0.77546 0.69068 0.24015 0.0
C1395 C 0.76707 0.70046 0.22189 0.0
C1396 C 0.77404 0.73347 0.21363 0.0
C1397 C 0.78921 0.7571 0.22358 0.0
C1398 C 0.79738 0.74782 0.24183 0.0
C1399 C 0.79051 0.7148 0.25013 0.0
H1400 H 0.7946 0.78264 0.21716 0.0
H1401 H 0.72994 0.46157 0.29796 0.0
H1402 H 0.76955 0.35314 0.83481 0.0
H1403 H 0.75285 0.35675 0.803 0.0
H1404 H 0.81742 0.40872 0.78278 0.0
H1405 H 0.83419 0.40655 0.81538 0.0
H1406 H 0.77957 0.44267 0.76865 0.0
H1407 H 0.80271 0.31858 0.77085 0.0
H1408 H 0.80655 0.25674 0.78415 0.0
H1409 H 0.72997 0.24461 0.78361 0.0
H1410 H 0.72562 0.3066 0.77056 0.0
H1411 H 0.74601 0.41666 0.67132 0.0
H1412 H 0.76488 0.41671 0.70267 0.0
H1413 H 0.69943 0.37639 0.72781 0.0
H1414 H 0.68023 0.37619 0.69601 0.0
H1415 H 0.73957 0.33653 0.73848 0.0
H1416 H 0.71801 0.46337 0.7358 0.0
H1417 H 0.71632 0.52438 0.72119 0.0
H1418 H 0.79324 0.52957 0.72067 0.0
H1419 H 0.79541 0.46833 0.73501 0.0
C1420 C 0.78047 0.36519 0.82368 0.0
C1421 C 0.80332 0.37966 0.8278 0.0
C1422 C 0.77085 0.36697 0.80532 0.0
C1423 C 0.78389 0.3825 0.79027 0.0
C1424 C 0.80697 0.39645 0.79412 0.0
C1425 C 0.81664 0.39495 0.81273 0.0
C1426 C 0.77268 0.38514 0.77088 0.0
C1427 C 0.77122 0.41929 0.76191 0.0
C1428 C 0.76132 0.35484 0.76212 0.0
C1429 C 0.76384 0.31739 0.76985 0.0
C1430 C 0.78667 0.30283 0.77369 0.0
C1431 C 0.78894 0.26773 0.78117 0.0
C1432 C 0.76852 0.24678 0.78476 0.0
C1433 C 0.74577 0.26087 0.78083 0.0
C1434 C 0.74339 0.29598 0.77337 0.0
C1435 C 0.73545 0.40813 0.68352 0.0
C1436 C 0.71161 0.3962 0.68116 0.0
C1437 C 0.74629 0.40838 0.70151 0.0
C1438 C 0.73362 0.39668 0.71768 0.0
C1439 C 0.70956 0.3856 0.71552 0.0
C1440 C 0.69854 0.38571 0.69741 0.0
C1441 C 0.74614 0.39408 0.73649 0.0
C1442 C 0.74794 0.35986 0.74527 0.0
C1443 C 0.75815 0.42416 0.74486 0.0
C1444 C 0.75686 0.46113 0.73637 0.0
C1445 C 0.73457 0.47741 0.73246 0.0
C1446 C 0.73353 0.51206 0.72425 0.0
C1447 C 0.75466 0.53085 0.72002 0.0
C1448 C 0.77688 0.51503 0.72401 0.0
C1449 C 0.77803 0.48035 0.73218 0.0
H1450 H 0.75382 0.55763 0.71362 0.0
H1451 H 0.77031 0.21962 0.79056 0.0
H1452 H 0.18515 0.41076 0.82241 0.0
H1453 H 0.20286 0.41585 0.7902 0.0
H1454 H 0.26169 0.34756 0.80771 0.0
H1455 H 0.24412 0.34159 0.83936 0.0
H1456 H 0.27565 0.41331 0.78755 0.0
H1457 H 0.22205 0.3097 0.78247 0.0
H1458 H 0.18274 0.27924 0.78473 0.0
H1459 H 0.15322 0.35476 0.74423 0.0
H1460 H 0.19232 0.38601 0.74195 0.0
H1461 H 0.33151 0.36792 0.69825 0.0
H1462 H 0.31406 0.36879 0.73054 0.0
H1463 H 0.24689 0.40651 0.70709 0.0
H1464 H 0.26378 0.40391 0.67511 0.0
H1465 H 0.23649 0.3585 0.73079 0.0
H1466 H 0.28847 0.46197 0.73428 0.0
H1467 H 0.32655 0.49587 0.73207 0.0
H1468 H 0.35758 0.42704 0.77506 0.0
H1469 H 0.31976 0.39241 0.77735 0.0
C1470 C 0.20178 0.39672 0.81933 0.0
C1471 C 0.21301 0.37551 0.83348 0.0
C1472 C 0.21191 0.39969 0.80095 0.0
C1473 C 0.23368 0.38215 0.79657 0.0
C1474 C 0.24498 0.36143 0.81074 0.0
C1475 C 0.23471 0.35785 0.82885 0.0
C1476 C 0.24469 0.38443 0.77719 0.0
C1477 C 0.26719 0.4012 0.77511 0.0
C1478 C 0.23347 0.36929 0.76091 0.0
C1479 C 0.21001 0.35045 0.76222 0.0
C1480 C 0.20712 0.32002 0.77419 0.0
C1481 C 0.18489 0.30257 0.77544 0.0
C1482 C 0.16547 0.31513 0.76468 0.0
C1483 C 0.16827 0.34511 0.75259 0.0
C1484 C 0.19045 0.36269 0.75131 0.0
C1485 C 0.3131 0.37661 0.70008 0.0
C1486 C 0.29902 0.38558 0.6841 0.0
C1487 C 0.3031 0.37728 0.71857 0.0
C1488 C 0.27904 0.38795 0.72145 0.0
C1489 C 0.26534 0.39781 0.70543 0.0
C1490 C 0.2751 0.39641 0.68707 0.0
C1491 C 0.26761 0.38776 0.74088 0.0
C1492 C 0.24501 0.3711 0.74306 0.0
C1493 C 0.2786 0.40363 0.75718 0.0
C1494 C 0.30136 0.42436 0.75583 0.0
C1495 C 0.30347 0.45389 0.74315 0.0
C1496 C 0.325 0.47326 0.7419 0.0
C1497 C 0.34449 0.46355 0.75337 0.0
C1498 C 0.34248 0.43449 0.76616 0.0
C1499 C 0.321 0.415 0.76745 0.0
H1500 H 0.36114 0.47859 0.75239 0.0
H1501 H 0.14828 0.30157 0.76566 0.0
H1502 H 0.25057 0.6092 0.17561 0.0
H1503 H 0.26617 0.60521 0.20793 0.0
H1504 H 0.19426 0.60965 0.2304 0.0
H1505 H 0.17819 0.61357 0.1976 0.0
H1506 H 0.22682 0.65745 0.24874 0.0
H1507 H 0.22356 0.53117 0.2318 0.0
H1508 H 0.23081 0.47771 0.2113 0.0
H1509 H 0.3068 0.49479 0.21557 0.0
H1510 H 0.30002 0.54871 0.23587 0.0
H1511 H 0.26339 0.62797 0.34301 0.0
H1512 H 0.2441 0.62032 0.31206 0.0
H1513 H 0.3128 0.59749 0.28635 0.0
H1514 H 0.33214 0.60321 0.31795 0.0
H1515 H 0.28003 0.55696 0.26991 0.0
H1516 H 0.28464 0.68431 0.28408 0.0
H1517 H 0.27908 0.73939 0.30373 0.0
H1518 H 0.20284 0.723 0.3032 0.0
H1519 H 0.20796 0.66749 0.28378 0.0
C1520 C 0.23788 0.60926 0.18733 0.0
C1521 C 0.21301 0.61181 0.1839 0.0
C1522 C 0.24693 0.60672 0.20588 0.0
C1523 C 0.23145 0.60673 0.22164 0.0
C1524 C 0.20656 0.6094 0.21842 0.0
C1525 C 0.19739 0.61156 0.19969 0.0
C1526 C 0.24168 0.60533 0.24134 0.0
C1527 C 0.23805 0.63513 0.25353 0.0
C1528 C 0.25711 0.57685 0.24733 0.0
C1529 C 0.26126 0.54418 0.23526 0.0
C1530 C 0.24182 0.5237 0.22826 0.0
C1531 C 0.24584 0.49328 0.21669 0.0
C1532 C 0.26924 0.48289 0.2121 0.0
C1533 C 0.28868 0.50287 0.21913 0.0
C1534 C 0.28475 0.53334 0.23069 0.0
C1535 C 0.27443 0.62124 0.33077 0.0
C1536 C 0.29937 0.61695 0.3328 0.0
C1537 C 0.26337 0.61699 0.31302 0.0
C1538 C 0.277 0.60957 0.29661 0.0
C1539 C 0.30186 0.60366 0.29871 0.0
C1540 C 0.31294 0.60703 0.31672 0.0
C1541 C 0.26522 0.60918 0.27736 0.0
C1542 C 0.26865 0.57916 0.26522 0.0
C1543 C 0.24987 0.63776 0.27125 0.0
C1544 C 0.2467 0.67155 0.28261 0.0
C1545 C 0.26669 0.69235 0.28823 0.0
C1546 C 0.26362 0.72365 0.29933 0.0
C1547 C 0.24063 0.73464 0.30475 0.0
C1548 C 0.22064 0.71443 0.29901 0.0
C1549 C 0.22361 0.68307 0.28794 0.0
H1550 H 0.23829 0.75885 0.31337 0.0
H1551 H 0.27232 0.45934 0.20313 0.0
H1552 H 0.41092 0.19616 0.12526 0.0
H1553 H 0.45411 0.19997 0.13007 0.0
H1554 H 0.45246 0.10059 0.1628 0.0
H1555 H 0.40883 0.0967 0.15818 0.0
H1556 H 0.48552 0.15061 0.17726 0.0
H1557 H 0.46682 0.09572 0.11729 0.0
H1558 H 0.44696 0.08985 0.08593 0.0
H1559 H 0.48022 0.18896 0.06712 0.0
H1560 H 0.5 0.19574 0.09849 0.0
H1561 H 0.60834 0.10203 0.15878 0.0
H1562 H 0.56491 0.10543 0.163 0.0
H1563 H 0.56312 0.2046 0.1301 0.0
H1564 H 0.60661 0.2014 0.12575 0.0
H1565 H 0.5317 0.15338 0.11665 0.0
H1566 H 0.55162 0.20588 0.17758 0.0
H1567 H 0.57178 0.20848 0.20893 0.0
H1568 H 0.53691 0.10933 0.22577 0.0
H1569 H 0.51679 0.10585 0.1944 0.0
C1570 C 0.41961 0.17534 0.13376 0.0
C1571 C 0.40644 0.14584 0.14112 0.0
C1572 C 0.44436 0.17756 0.13646 0.0
C1573 C 0.45662 0.15016 0.14643 0.0
C1574 C 0.44338 0.12193 0.15496 0.0
C1575 C 0.41844 0.11977 0.15233 0.0
C1576 C 0.48331 0.14987 0.14654 0.0
C1577 C 0.49566 0.15078 0.16403 0.0
C1578 C 0.49654 0.15043 0.12925 0.0
C1579 C 0.48472 0.14643 0.11033 0.0
C1580 C 0.46975 0.11643 0.10653 0.0
C1581 C 0.45852 0.11291 0.08874 0.0
C1582 C 0.46228 0.13906 0.07456 0.0
C1583 C 0.4773 0.16875 0.07813 0.0
C1584 C 0.48854 0.17244 0.09591 0.0
C1585 C 0.59881 0.12498 0.15274 0.0
C1586 C 0.61102 0.15133 0.14182 0.0
C1587 C 0.57394 0.12692 0.15522 0.0
C1588 C 0.56071 0.15525 0.14686 0.0
C1589 C 0.57295 0.18245 0.13665 0.0
C1590 C 0.59786 0.18068 0.13427 0.0
C1591 C 0.53401 0.15481 0.14736 0.0
C1592 C 0.52162 0.15344 0.12991 0.0
C1593 C 0.52086 0.15332 0.16467 0.0
C1594 C 0.53287 0.15543 0.18356 0.0
C1595 C 0.5484 0.18446 0.1879 0.0
C1596 C 0.55979 0.18613 0.20569 0.0
C1597 C 0.55567 0.15904 0.21932 0.0
C1598 C 0.54011 0.13028 0.2152 0.0
C1599 C 0.52868 0.12847 0.19742 0.0
H1600 H 0.56451 0.16038 0.23308 0.0
H1601 H 0.45359 0.13627 0.0608 0.0
H1602 H 0.09667 0.84332 0.60818 0.0
H1603 H 0.05416 0.8391 0.61499 0.0
H1604 H 0.06823 0.8586 0.67483 0.0
H1605 H 0.11119 0.86507 0.66777 0.0
H1606 H 0.02678 0.79839 0.63264 0.0
H1607 H 0.02005 0.89871 0.69584 0.0
H1608 H 0.04108 0.95244 0.70885 0.0
H1609 H 0.06702 0.97899 0.65277 0.0
H1610 H 0.04593 0.92569 0.63942 0.0
H1611 H 0.90152 0.80316 0.65094 0.0
H1612 H 0.94475 0.7964 0.6567 0.0
H1613 H 0.95515 0.90986 0.64284 0.0
H1614 H 0.91229 0.91714 0.6386 0.0
H1615 H 0.98475 0.89668 0.66768 0.0
H1616 H 0.96347 0.83226 0.6098 0.0
H1617 H 0.94209 0.78623 0.59055 0.0
H1618 H 0.97187 0.70106 0.62524 0.0
H1619 H 0.99322 0.74668 0.64482 0.0
C1620 C 0.09084 0.84659 0.62285 0.0
C1621 C 0.10738 0.8547 0.63743 0.0
C1622 C 0.06639 0.84399 0.62676 0.0
C1623 C 0.0577 0.84877 0.64542 0.0
C1624 C 0.07429 0.85555 0.66022 0.0
C1625 C 0.09887 0.85906 0.65621 0.0
C1626 C 0.03122 0.84785 0.64885 0.0
C1627 C 0.01765 0.81985 0.64041 0.0
C1628 C 0.01904 0.87582 0.65884 0.0
C1629 C 0.03172 0.90795 0.66671 0.0
C1630 C 0.03024 0.91605 0.68631 0.0
C1631 C 0.04216 0.94643 0.69373 0.0
C1632 C 0.05547 0.96902 0.68166 0.0
C1633 C 0.0568 0.96138 0.66212 0.0
C1634 C 0.04489 0.93108 0.65462 0.0
C1635 C 0.91309 0.82669 0.64947 0.0
C1636 C 0.90348 0.86064 0.64432 0.0
C1637 C 0.93784 0.82279 0.6526 0.0
C1638 C 0.95354 0.85244 0.64984 0.0
C1639 C 0.94368 0.88649 0.64522 0.0
C1640 C 0.91902 0.89062 0.64271 0.0
C1641 C 0.98023 0.84827 0.6506 0.0
C1642 C 0.99388 0.87499 0.66008 0.0
C1643 C 0.99245 0.82028 0.64063 0.0
C1644 C 0.97966 0.79285 0.6289 0.0
C1645 C 0.96532 0.80372 0.61338 0.0
C1646 C 0.95323 0.77772 0.60241 0.0
C1647 C 0.95556 0.74075 0.60671 0.0
C1648 C 0.97004 0.72971 0.62196 0.0
C1649 C 0.98213 0.75561 0.63299 0.0
H1650 H 0.94619 0.72066 0.59821 0.0
H1651 H 0.06469 0.9925 0.68744 0.0
H1652 H 0.60267 0.80732 0.88628 0.0
H1653 H 0.55941 0.80372 0.8809 0.0
H1654 H 0.5614 0.90639 0.85104 0.0
H1655 H 0.60451 0.91055 0.85673 0.0
H1656 H 0.52735 0.90773 0.87659 0.0
H1657 H 0.55036 0.82375 0.82772 0.0
H1658 H 0.57105 0.77047 0.81406 0.0
H1659 H 0.53267 0.69989 0.85223 0.0
H1660 H 0.51198 0.75281 0.8663 0.0
H1661 H 0.4033 0.90282 0.85382 0.0
H1662 H 0.44676 0.90143 0.8484 0.0
H1663 H 0.45224 0.80416 0.88259 0.0
H1664 H 0.40902 0.80523 0.88798 0.0
H1665 H 0.48229 0.80137 0.85167 0.0
H1666 H 0.46275 0.88521 0.90242 0.0
H1667 H 0.44214 0.93803 0.91666 0.0
H1668 H 0.47454 0.00851 0.87507 0.0
H1669 H 0.49506 0.95596 0.8604 0.0
C1670 C 0.594 0.82882 0.87826 0.0
C1671 C 0.60711 0.85933 0.87203 0.0
C1672 C 0.5692 0.82669 0.87514 0.0
C1673 C 0.55704 0.85475 0.86549 0.0
C1674 C 0.57029 0.88447 0.85859 0.0
C1675 C 0.595 0.88674 0.86181 0.0
C1676 C 0.53036 0.85452 0.86383 0.0
C1677 C 0.51758 0.88473 0.87074 0.0
C1678 C 0.51743 0.82423 0.85665 0.0
C1679 C 0.52976 0.79231 0.84817 0.0
C1680 C 0.54646 0.7969 0.8333 0.0
C1681 C 0.55816 0.76675 0.82546 0.0
C1682 C 0.55322 0.73183 0.8323 0.0
C1683 C 0.5365 0.72696 0.84695 0.0
C1684 C 0.52475 0.75702 0.85485 0.0
C1685 C 0.41369 0.88077 0.85987 0.0
C1686 C 0.40269 0.85436 0.8715 0.0
C1687 C 0.43855 0.88009 0.85684 0.0
C1688 C 0.45282 0.85294 0.8653 0.0
C1689 C 0.44165 0.8254 0.87595 0.0
C1690 C 0.41691 0.82618 0.87908 0.0
C1691 C 0.47948 0.85453 0.86441 0.0
C1692 C 0.49219 0.82454 0.85717 0.0
C1693 C 0.4924 0.88498 0.87131 0.0
C1694 C 0.4802 0.91661 0.88018 0.0
C1695 C 0.46532 0.91193 0.89622 0.0
C1696 C 0.45368 0.94182 0.90438 0.0
C1697 C 0.45697 0.97659 0.89674 0.0
C1698 C 0.47197 0.98155 0.88094 0.0
C1699 C 0.4836 0.95173 0.8727 0.0
H1700 H 0.44796 0.9997 0.90308 0.0
H1701 H 0.5623 0.70852 0.82622 0.0
H1702 H 0.90878 0.19817 0.38517 0.0
H1703 H 0.95203 0.20197 0.38009 0.0
H1704 H 0.95066 0.09866 0.35081 0.0
H1705 H 0.90749 0.09424 0.35628 0.0
H1706 H 0.98463 0.0979 0.37623 0.0
H1707 H 0.96193 0.18169 0.32725 0.0
H1708 H 0.94123 0.23473 0.31335 0.0
H1709 H 0.9787 0.30578 0.35189 0.0
H1710 H 0.9994 0.25311 0.36621 0.0
H1711 H 0.10858 0.10391 0.35341 0.0
H1712 H 0.0651 0.10527 0.34827 0.0
H1713 H 0.05983 0.20174 0.3831 0.0
H1714 H 0.10315 0.20068 0.38826 0.0
H1715 H 0.02952 0.20488 0.35193 0.0
H1716 H 0.04914 0.12075 0.40249 0.0
H1717 H 0.06988 0.06795 0.41663 0.0
H1718 H 0.03773 0.9976 0.3748 0.0
H1719 H 0.01709 0.05014 0.36022 0.0
C1720 C 0.91756 0.17656 0.37732 0.0
C1721 C 0.90457 0.14582 0.37121 0.0
C1722 C 0.94238 0.17881 0.37437 0.0
C1723 C 0.95476 0.15067 0.36497 0.0
C1724 C 0.94164 0.12069 0.35816 0.0
C1725 C 0.91687 0.11828 0.36123 0.0
C1726 C 0.98151 0.15114 0.36353 0.0
C1727 C 0.99436 0.12105 0.37052 0.0
C1728 C 0.99441 0.18161 0.35654 0.0
C1729 C 0.98207 0.21339 0.34791 0.0
C1730 C 0.96563 0.2086 0.33286 0.0
C1731 C 0.95392 0.23861 0.32489 0.0
C1732 C 0.9586 0.2736 0.33176 0.0
C1733 C 0.97507 0.27866 0.34659 0.0
C1734 C 0.98682 0.24874 0.35463 0.0
C1735 C 0.09825 0.1258 0.35969 0.0
C1736 C 0.10939 0.152 0.3714 0.0
C1737 C 0.07336 0.12645 0.35681 0.0
C1738 C 0.05912 0.15335 0.3655 0.0
C1739 C 0.07038 0.18068 0.37627 0.0
C1740 C 0.09519 0.17992 0.37927 0.0
C1741 C 0.03243 0.1517 0.36459 0.0
C1742 C 0.01966 0.18159 0.35732 0.0
C1743 C 0.01954 0.12106 0.37131 0.0
C1744 C 0.0318 0.08942 0.38013 0.0
C1745 C 0.04665 0.09406 0.39621 0.0
C1746 C 0.05836 0.06418 0.40432 0.0
C1747 C 0.05518 0.02946 0.39658 0.0
C1748 C 0.04022 0.02453 0.38075 0.0
C1749 C 0.02851 0.05434 0.37257 0.0
H1750 H 0.06426 0.00635 0.40288 0.0
H1751 H 0.94951 0.29679 0.32557 0.0
H1752 H 0.91174 0.60111 0.15496 0.0
H1753 H 0.95485 0.60804 0.15969 0.0
H1754 H 0.9522 0.7142 0.13352 0.0
H1755 H 0.90898 0.70732 0.12851 0.0
H1756 H 0.98692 0.6737 0.11796 0.0
H1757 H 0.96338 0.70401 0.18165 0.0
H1758 H 0.94225 0.69601 0.21232 0.0
H1759 H 0.97991 0.59579 0.22198 0.0
H1760 H 1.00103 0.60292 0.19124 0.0
H1761 H 0.11021 0.70595 0.13281 0.0
H1762 H 0.06695 0.71347 0.13687 0.0
H1763 H 0.06202 0.60532 0.16041 0.0
H1764 H 0.10528 0.59759 0.15655 0.0
H1765 H 0.03121 0.65246 0.17848 0.0
H1766 H 0.05133 0.61856 0.11405 0.0
H1767 H 0.07252 0.62477 0.08329 0.0
H1768 H 0.04077 0.73001 0.0749 0.0
H1769 H 0.0197 0.72467 0.1058 0.0
C1770 C 0.92019 0.62624 0.15048 0.0
C1771 C 0.90679 0.65359 0.14128 0.0
C1772 C 0.94491 0.63022 0.15327 0.0
C1773 C 0.95687 0.66172 0.14704 0.0
C1774 C 0.94342 0.68963 0.13845 0.0
C1775 C 0.91865 0.68571 0.13568 0.0
C1776 C 0.98355 0.66424 0.14824 0.0
C1777 C 0.99655 0.66985 0.13129 0.0
C1778 C 0.99625 0.6582 0.16551 0.0
C1779 C 0.98365 0.65387 0.18405 0.0
C1780 C 0.96703 0.68012 0.19024 0.0
C1781 C 0.95507 0.67577 0.20765 0.0
C1782 C 0.9597 0.64537 0.21907 0.0
C1783 C 0.97633 0.61931 0.21312 0.0
C1784 C 0.98832 0.62352 0.19571 0.0
C1785 C 0.10006 0.684 0.13923 0.0
C1786 C 0.11129 0.65096 0.14414 0.0
C1787 C 0.07526 0.68831 0.14146 0.0
C1788 C 0.06113 0.65972 0.14862 0.0
C1789 C 0.0725 0.62771 0.15478 0.0
C1790 C 0.09728 0.62333 0.15251 0.0
C1791 C 0.03444 0.66191 0.14823 0.0
C1792 C 0.0215 0.65691 0.16525 0.0
C1793 C 0.02172 0.66829 0.13101 0.0
C1794 C 0.03417 0.67141 0.11234 0.0
C1795 C 0.04902 0.64315 0.10572 0.0
C1796 C 0.06099 0.6465 0.08825 0.0
C1797 C 0.05804 0.67781 0.07717 0.0
C1798 C 0.04307 0.7058 0.08352 0.0
C1799 C 0.03111 0.70264 0.10101 0.0
H1800 H 0.06732 0.68036 0.06365 0.0
H1801 H 0.95042 0.64205 0.23255 0.0
H1802 H 0.60537 0.30211 0.63247 0.0
H1803 H 0.562 0.29659 0.6368 0.0
H1804 H 0.55962 0.40463 0.66074 0.0
H1805 H 0.60298 0.41039 0.65655 0.0
H1806 H 0.52835 0.35874 0.6791 0.0
H1807 H 0.54719 0.39313 0.61482 0.0
H1808 H 0.56709 0.38803 0.58346 0.0
H1809 H 0.53398 0.2839 0.57445 0.0
H1810 H 0.51416 0.28813 0.60591 0.0
H1811 H 0.40743 0.40906 0.65689 0.0
H1812 H 0.4508 0.40353 0.66104 0.0
H1813 H 0.44871 0.29607 0.63635 0.0
H1814 H 0.40533 0.30137 0.63206 0.0
H1815 H 0.48231 0.33836 0.61932 0.0
H1816 H 0.46069 0.30794 0.68371 0.0
H1817 H 0.44041 0.31655 0.71469 0.0
H1818 H 0.47818 0.41717 0.72307 0.0
H1819 H 0.49845 0.40942 0.692 0.0
C1820 C 0.59576 0.32445 0.63904 0.0
C1821 C 0.60773 0.35687 0.64399 0.0
C1822 C 0.57089 0.32131 0.6414 0.0
C1823 C 0.55745 0.35045 0.64879 0.0
C1824 C 0.56956 0.38185 0.65494 0.0
C1825 C 0.5944 0.3851 0.6525 0.0
C1826 C 0.53072 0.3493 0.64879 0.0
C1827 C 0.51826 0.35451 0.66602 0.0
C1828 C 0.51751 0.34342 0.63175 0.0
C1829 C 0.52942 0.34075 0.61283 0.0
C1830 C 0.54433 0.36898 0.60623 0.0
C1831 C 0.55556 0.36628 0.58842 0.0
C1832 C 0.55186 0.33561 0.57699 0.0
C1833 C 0.53687 0.30761 0.58333 0.0
C1834 C 0.52563 0.31015 0.60115 0.0
C1835 C 0.41608 0.38393 0.65267 0.0
C1836 C 0.40278 0.35573 0.64407 0.0
C1837 C 0.44094 0.38079 0.65508 0.0
C1838 C 0.4531 0.34936 0.64901 0.0
C1839 C 0.43977 0.32062 0.6411 0.0
C1840 C 0.41489 0.32365 0.63876 0.0
C1841 C 0.47983 0.34754 0.64967 0.0
C1842 C 0.49233 0.34206 0.63248 0.0
C1843 C 0.49302 0.35359 0.6667 0.0
C1844 C 0.48094 0.35824 0.68544 0.0
C1845 C 0.46454 0.33205 0.69208 0.0
C1846 C 0.45307 0.33675 0.70968 0.0
C1847 C 0.45796 0.36743 0.72082 0.0
C1848 C 0.47439 0.39343 0.71441 0.0
C1849 C 0.48589 0.38888 0.69682 0.0
H1850 H 0.44906 0.37102 0.73443 0.0
H1851 H 0.56054 0.3336 0.56319 0.0
H1852 H 0.10801 0.40216 0.85793 0.0
H1853 H 0.06453 0.40109 0.8526 0.0
H1854 H 0.06002 0.29702 0.88083 0.0
H1855 H 0.10332 0.29796 0.88627 0.0
H1856 H 0.0292 0.30135 0.84972 0.0
H1857 H 0.04897 0.37005 0.90586 0.0
H1858 H 0.06961 0.41775 0.92445 0.0
H1859 H 0.03782 0.50013 0.88907 0.0
H1860 H 0.01726 0.45285 0.87007 0.0
H1861 H 0.9073 0.30378 0.88277 0.0
H1862 H 0.95079 0.29955 0.87854 0.0
H1863 H 0.9517 0.40688 0.85365 0.0
H1864 H 0.90839 0.41147 0.85794 0.0
H1865 H 0.98458 0.4014 0.88133 0.0
H1866 H 0.96214 0.33042 0.82655 0.0
H1867 H 0.9412 0.28118 0.80935 0.0
H1868 H 0.97748 0.20144 0.84364 0.0
H1869 H 0.99842 0.25024 0.86123 0.0
C1870 C 0.09786 0.37863 0.86257 0.0
C1871 C 0.10914 0.35025 0.87263 0.0
C1872 C 0.07297 0.37817 0.85964 0.0
C1873 C 0.05895 0.34919 0.86655 0.0
C1874 C 0.07042 0.3197 0.87541 0.0
C1875 C 0.0952 0.32033 0.87854 0.0
C1876 C 0.03226 0.35084 0.866 0.0
C1877 C 0.01941 0.3231 0.8567 0.0
C1878 C 0.01946 0.37936 0.875 0.0
C1879 C 0.03182 0.40788 0.88638 0.0
C1880 C 0.04656 0.39832 0.90192 0.0
C1881 C 0.05821 0.42527 0.91256 0.0
C1882 C 0.05509 0.46193 0.90791 0.0
C1883 C 0.04026 0.47171 0.89263 0.0
C1884 C 0.0286 0.44485 0.88192 0.0
C1885 C 0.91666 0.32623 0.87606 0.0
C1886 C 0.90424 0.35805 0.87079 0.0
C1887 C 0.94159 0.32376 0.87364 0.0
C1888 C 0.95462 0.35292 0.86577 0.0
C1889 C 0.94212 0.38408 0.85983 0.0
C1890 C 0.91727 0.38657 0.86223 0.0
C1891 C 0.98137 0.35205 0.86487 0.0
C1892 C 0.99428 0.37986 0.87408 0.0
C1893 C 0.99416 0.32342 0.85593 0.0
C1894 C 0.98169 0.29401 0.84532 0.0
C1895 C 0.96552 0.30239 0.83052 0.0
C1896 C 0.95368 0.27456 0.82068 0.0
C1897 C 0.95796 0.23821 0.82543 0.0
C1898 C 0.97416 0.22961 0.83999 0.0
C1899 C 0.98604 0.25735 0.84988 0.0
H1900 H 0.94877 0.2167 0.8178 0.0
H1901 H 0.06412 0.48276 0.91616 0.0
H1902 H 0.41204 0.69966 0.38439 0.0
H1903 H 0.45504 0.70059 0.3781 0.0
H1904 H 0.44949 0.5973 0.34917 0.0
H1905 H 0.40617 0.59612 0.35551 0.0
H1906 H 0.48471 0.59718 0.37636 0.0
H1907 H 0.46259 0.67417 0.32418 0.0
H1908 H 0.4423 0.72572 0.30847 0.0
H1909 H 0.48117 0.80083 0.34389 0.0
H1910 H 0.50145 0.7497 0.36001 0.0
H1911 H 0.60781 0.59362 0.35471 0.0
H1912 H 0.56457 0.59656 0.34944 0.0
H1913 H 0.5622 0.70128 0.37718 0.0
H1914 H 0.60562 0.69884 0.38227 0.0
H1915 H 0.53083 0.69889 0.34761 0.0
H1916 H 0.54955 0.62427 0.4018 0.0
H1917 H 0.56975 0.57425 0.41891 0.0
H1918 H 0.53669 0.49636 0.38145 0.0
H1919 H 0.51661 0.54602 0.3639 0.0
C1920 C 0.41983 0.6774 0.37636 0.0
C1921 C 0.40559 0.64777 0.37048 0.0
C1922 C 0.44448 0.67805 0.37271 0.0
C1923 C 0.4556 0.64909 0.3631 0.0
C1924 C 0.44133 0.62001 0.35659 0.0
C1925 C 0.41653 0.61948 0.3601 0.0
C1926 C 0.48227 0.64811 0.36127 0.0
C1927 C 0.49475 0.61903 0.36967 0.0
C1928 C 0.4955 0.6772 0.35314 0.0
C1929 C 0.48342 0.70805 0.34341 0.0
C1930 C 0.46668 0.70166 0.32873 0.0
C1931 C 0.45521 0.73082 0.31973 0.0
C1932 C 0.46041 0.76653 0.3252 0.0
C1933 C 0.47715 0.77315 0.33966 0.0
C1934 C 0.48866 0.74409 0.34872 0.0
C1935 C 0.59822 0.61763 0.35941 0.0
C1936 C 0.61027 0.64582 0.36912 0.0
C1937 C 0.57342 0.61918 0.35645 0.0
C1938 C 0.55997 0.64877 0.36328 0.0
C1939 C 0.57212 0.67805 0.37187 0.0
C1940 C 0.59701 0.67661 0.37477 0.0
C1941 C 0.5332 0.64796 0.36269 0.0
C1942 C 0.52075 0.67678 0.354 0.0
C1943 C 0.51994 0.61883 0.37075 0.0
C1944 C 0.53179 0.58889 0.3814 0.0
C1945 C 0.54673 0.5965 0.39712 0.0
C1946 C 0.55814 0.56822 0.40691 0.0
C1947 C 0.55455 0.53216 0.40124 0.0
C1948 C 0.53949 0.52431 0.3858 0.0
C1949 C 0.52808 0.55251 0.37593 0.0
H1950 H 0.5634 0.5103 0.40883 0.0
H1951 H 0.4515 0.78906 0.31822 0.0
H1952 H 0.25957 0.05081 0.14858 0.0
H1953 H 0.23846 0.99225 0.1504 0.0
H1954 H 0.28138 0.95116 0.10395 0.0
H1955 H 0.303 0.0092 0.10235 0.0
H1956 H 0.22731 0.93674 0.10334 0.0
H1957 H 0.29952 0.9285 0.14303 0.0
H1958 H 0.32522 0.95075 0.16925 0.0
H1959 H 0.26742 0.93634 0.20903 0.0
H1960 H 0.24109 0.91506 0.18291 0.0
H1961 H 0.21755 0.74878 0.10058 0.0
H1962 H 0.23084 0.81183 0.10155 0.0
H1963 H 0.20983 0.8188 0.16088 0.0
H1964 H 0.19828 0.75406 0.16019 0.0
H1965 H 0.24746 0.85532 0.15762 0.0
H1966 H 0.17578 0.8589 0.12136 0.0
H1967 H 0.14631 0.842 0.09659 0.0
H1968 H 0.19696 0.86936 0.05268 0.0
H1969 H 0.22682 0.88617 0.07718 0.0
C1970 C 0.26423 0.02948 0.13855 0.0
C1971 C 0.28292 0.03451 0.12529 0.0
C1972 C 0.25224 0.99607 0.13968 0.0
C1973 C 0.25844 0.96747 0.12734 0.0
C1974 C 0.27634 0.97298 0.11356 0.0
C1975 C 0.28869 0.00605 0.11269 0.0
C1976 C 0.24732 0.93107 0.12941 0.0
C1977 C 0.23175 0.91873 0.11511 0.0
C1978 C 0.25235 0.90842 0.14524 0.0
C1979 C 0.26827 0.92059 0.16098 0.0
C1980 C 0.2922 0.93047 0.15733 0.0
C1981 C 0.30687 0.94293 0.17217 0.0
C1982 C 0.29789 0.9452 0.19077 0.0
C1983 C 0.27426 0.93483 0.19458 0.0
C1984 C 0.25946 0.92258 0.17977 0.0
C1985 C 0.21586 0.76379 0.11384 0.0
C1986 C 0.20678 0.74685 0.13027 0.0
C1987 C 0.22318 0.80005 0.11435 0.0
C1988 C 0.22061 0.82082 0.13111 0.0
C1989 C 0.21183 0.80362 0.14771 0.0
C1990 C 0.20518 0.76674 0.14734 0.0
C1991 C 0.22771 0.86006 0.13116 0.0
C1992 C 0.24257 0.87317 0.14591 0.0
C1993 C 0.22143 0.88389 0.11597 0.0
C1994 C 0.20358 0.87367 0.10113 0.0
C1995 C 0.18068 0.86114 0.10642 0.0
C1996 C 0.1639 0.85163 0.09243 0.0
C1997 C 0.16975 0.85469 0.07308 0.0
C1998 C 0.19243 0.86713 0.06768 0.0
C1999 C 0.20928 0.87673 0.08161 0.0
H2000 H 0.15668 0.84751 0.06227 0.0
H2001 H 0.30927 0.95483 0.20225 0.0
H2002 H 0.20386 1.0005 0.61147 0.0
H2003 H 0.22641 0.0573 0.61271 0.0
H2004 H 0.28352 0.00329 0.64313 0.0
H2005 H 0.26086 0.94613 0.64216 0.0
H2006 H 0.2725 0.06792 0.65952 0.0
H2007 H 0.29093 0.02588 0.59676 0.0
H2008 H 0.28232 1.00176 0.56458 0.0
H2009 H 0.24105 0.09718 0.55149 0.0
H2010 H 0.24912 0.12165 0.5837 0.0
H2011 H 0.33986 0.23438 0.61238 0.0
H2012 H 0.32881 0.17016 0.61384 0.0
H2013 H 0.27039 0.19617 0.65184 0.0
H2014 H 0.28148 0.26046 0.65066 0.0
H2015 H 0.28865 0.14084 0.60125 0.0
H2016 H 0.25758 0.123 0.68001 0.0
H2017 H 0.26846 0.1454 0.71211 0.0
H2018 H 0.34026 0.16665 0.69296 0.0
H2019 H 0.32992 0.1439 0.66083 0.0
C2020 C 0.22128 1.00054 0.61834 0.0
C2021 C 0.23056 0.96868 0.62667 0.0
C2022 C 0.23421 0.03306 0.61897 0.0
C2023 C 0.25676 0.03452 0.62786 0.0
C2024 C 0.26617 0.00277 0.63615 0.0
C2025 C 0.25326 0.97008 0.63547 0.0
C2026 C 0.27008 0.06952 0.6288 0.0
C2027 C 0.27616 0.08382 0.64678 0.0
C2028 C 0.27527 0.08997 0.61216 0.0
C2029 C 0.27051 0.07548 0.59271 0.0
C2030 C 0.27989 0.04161 0.58707 0.0
C2031 C 0.27512 0.02789 0.56881 0.0
C2032 C 0.26111 0.04789 0.55601 0.0
C2033 C 0.25189 0.08171 0.56142 0.0
C2034 C 0.25659 0.09554 0.57967 0.0
C2035 C 0.32489 0.22646 0.62132 0.0
C2036 C 0.31148 0.25274 0.63132 0.0
C2037 C 0.31855 0.18967 0.62208 0.0
C2038 C 0.29878 0.17825 0.63294 0.0
C2039 C 0.28591 0.2042 0.64354 0.0
C2040 C 0.29224 0.24104 0.6428 0.0
C2041 C 0.2905 0.13979 0.63201 0.0
C2042 C 0.28526 0.12487 0.614 0.0
C2043 C 0.28642 0.11863 0.64861 0.0
C2044 C 0.29289 0.13203 0.66795 0.0
C2045 C 0.27572 0.1323 0.68267 0.0
C2046 C 0.28179 0.14509 0.70087 0.0
C2047 C 0.30502 0.15754 0.70455 0.0
C2048 C 0.32225 0.15713 0.69006 0.0
C2049 C 0.31628 0.14434 0.67185 0.0
H2050 H 0.30967 0.16745 0.71865 0.0
H2051 H 0.25743 0.03722 0.54189 0.0
H2052 H 0.16403 0.2264 0.87542 0.0
H2053 H 0.1732 0.16124 0.87157 0.0
H2054 H 0.24531 0.18083 0.89159 0.0
H2055 H 0.23671 0.24499 0.89466 0.0
H2056 H 0.2471 0.14061 0.86138 0.0
H2057 H 0.19708 0.13634 0.92102 0.0
H2058 H 0.15877 0.14445 0.93839 0.0
H2059 H 0.1221 0.0814 0.89579 0.0
H2060 H 0.16016 0.07253 0.87837 0.0
H2061 H 0.30181 0.99109 0.901 0.0
H2062 H 0.27827 0.04669 0.89809 0.0
H2063 H 0.22209 0.98733 0.86937 0.0
H2064 H 0.24556 0.93118 0.87222 0.0
H2065 H 0.20502 0.04147 0.8959 0.0
H2066 H 0.25622 0.0315 0.84212 0.0
H2067 H 0.29416 0.01921 0.82525 0.0
H2068 H 0.32763 0.10872 0.85439 0.0
H2069 H 0.29 0.12112 0.87172 0.0
C2070 C 0.18182 0.21664 0.8789 0.0
C2071 C 0.19969 0.24101 0.8851 0.0
C2072 C 0.18701 0.17939 0.87684 0.0
C2073 C 0.20999 0.16598 0.88131 0.0
C2074 C 0.22755 0.19038 0.8878 0.0
C2075 C 0.22256 0.22728 0.88953 0.0
C2076 C 0.21669 0.12701 0.87903 0.0
C2077 C 0.23786 0.11901 0.86897 0.0
C2078 C 0.20408 0.09825 0.88801 0.0
C2079 C 0.1813 0.1042 0.89833 0.0
C2080 C 0.18078 0.12448 0.91534 0.0
C2081 C 0.15917 0.12912 0.9252 0.0
C2082 C 0.13803 0.11374 0.91811 0.0
C2083 C 0.13846 0.09342 0.90123 0.0
C2084 C 0.16004 0.08846 0.89141 0.0
C2085 C 0.28433 0.98962 0.89427 0.0
C2086 C 0.27572 0.95672 0.88666 0.0
C2087 C 0.2709 0.02146 0.89261 0.0
C2088 C 0.24862 0.02117 0.88327 0.0
C2089 C 0.23927 0.98809 0.87659 0.0
C2090 C 0.25275 0.95608 0.87822 0.0
C2091 C 0.23622 0.05609 0.87948 0.0
C2092 C 0.21398 0.06305 0.88808 0.0
C2093 C 0.24771 0.08395 0.86898 0.0
C2094 C 0.27028 0.07714 0.85829 0.0
C2095 C 0.2717 0.04845 0.84501 0.0
C2096 C 0.29316 0.04146 0.83536 0.0
C2097 C 0.3133 0.06316 0.83875 0.0
C2098 C 0.312 0.09194 0.85177 0.0
C2099 C 0.2906 0.09899 0.8615 0.0
H2100 H 0.3299 0.05771 0.83128 0.0
H2101 H 0.12133 0.11743 0.92575 0.0
H2102 H 0.3392 0.77584 0.40305 0.0
H2103 H 0.32502 0.83885 0.40283 0.0
H2104 H 0.27949 0.81448 0.35454 0.0
H2105 H 0.29246 0.75086 0.35568 0.0
H2106 H 0.32347 0.89564 0.38247 0.0
H2107 H 0.22822 0.85803 0.3561 0.0
H2108 H 0.20081 0.80523 0.35624 0.0
H2109 H 0.23487 0.76436 0.40695 0.0
H2110 H 0.26223 0.81714 0.40718 0.0
H2111 H 0.25819 0.05905 0.36524 0.0
H2112 H 0.27886 1.00052 0.36381 0.0
H2113 H 0.23235 0.95874 0.40796 0.0
H2114 H 0.21112 0.01682 0.40897 0.0
H2115 H 0.2351 0.91094 0.38288 0.0
H2116 H 0.29483 0.9813 0.41489 0.0
H2117 H 0.32233 0.033 0.41999 0.0
H2118 H 0.35903 0.00751 0.36773 0.0
H2119 H 0.33154 0.95591 0.36219 0.0
C2120 C 0.32662 0.78425 0.39211 0.0
C2121 C 0.31694 0.75866 0.37933 0.0
C2122 C 0.31842 0.82026 0.39203 0.0
C2123 C 0.30066 0.8314 0.379 0.0
C2124 C 0.2926 0.80643 0.36515 0.0
C2125 C 0.30023 0.77019 0.36561 0.0
C2126 C 0.28941 0.86811 0.3808 0.0
C2127 C 0.30415 0.89898 0.38252 0.0
C2128 C 0.26416 0.87266 0.3814 0.0
C2129 C 0.24743 0.84126 0.38154 0.0
C2130 C 0.22977 0.83783 0.36731 0.0
C2131 C 0.21426 0.80791 0.36731 0.0
C2132 C 0.21614 0.78139 0.38156 0.0
C2133 C 0.23347 0.78483 0.39589 0.0
C2134 C 0.24899 0.81471 0.39595 0.0
C2135 C 0.25266 0.03759 0.37489 0.0
C2136 C 0.23305 0.04261 0.38725 0.0
C2137 C 0.26454 0.00407 0.3741 0.0
C2138 C 0.25745 0.97511 0.38597 0.0
C2139 C 0.23825 0.98053 0.39868 0.0
C2140 C 0.22614 0.01381 0.39928 0.0
C2141 C 0.26913 0.93865 0.38455 0.0
C2142 C 0.25444 0.90775 0.38282 0.0
C2143 C 0.29438 0.93404 0.38473 0.0
C2144 C 0.31099 0.96496 0.38804 0.0
C2145 C 0.30866 0.98687 0.40442 0.0
C2146 C 0.32426 0.01613 0.4074 0.0
C2147 C 0.34237 0.02359 0.39417 0.0
C2148 C 0.34497 1.00173 0.37796 0.0
C2149 C 0.3294 0.97245 0.3749 0.0
H2150 H 0.35443 0.04625 0.3965 0.0
H2151 H 0.20415 0.75823 0.38151 0.0
H2152 H 0.83758 0.23785 0.90628 0.0
H2153 H 0.82612 0.17388 0.90604 0.0
H2154 H 0.77431 0.19557 0.86166 0.0
H2155 H 0.78527 0.25996 0.86214 0.0
H2156 H 0.75406 0.1589 0.88862 0.0
H2157 H 0.82774 0.14547 0.85422 0.0
H2158 H 0.87112 0.15222 0.84837 0.0
H2159 H 0.88648 0.09111 0.89923 0.0
H2160 H 0.84317 0.08441 0.90553 0.0
H2161 H 0.72134 0.98826 0.85942 0.0
H2162 H 0.74328 0.04521 0.86063 0.0
H2163 H 0.77739 0.0118 0.91309 0.0
H2164 H 0.75517 0.95363 0.91198 0.0
H2165 H 0.8082 0.0521 0.88478 0.0
H2166 H 0.735 0.06465 0.91953 0.0
H2167 H 0.69167 0.05694 0.92523 0.0
H2168 H 0.676 0.12022 0.87516 0.0
H2169 H 0.71928 0.12784 0.86899 0.0
C2170 C 0.82401 0.22902 0.89621 0.0
C2171 C 0.81227 0.25425 0.88428 0.0
C2172 C 0.81756 0.19223 0.89603 0.0
C2173 C 0.79941 0.17968 0.88377 0.0
C2174 C 0.78831 0.20455 0.87132 0.0
C2175 C 0.79466 0.24141 0.87155 0.0
C2176 C 0.79063 0.14141 0.88499 0.0
C2177 C 0.766 0.13572 0.8878 0.0
C2178 C 0.80617 0.11086 0.88425 0.0
C2179 C 0.83221 0.11476 0.88045 0.0
C2180 C 0.84037 0.13372 0.86424 0.0
C2181 C 0.86494 0.13749 0.86083 0.0
C2182 C 0.88155 0.12219 0.87345 0.0
C2183 C 0.8736 0.10299 0.88948 0.0
C2184 C 0.84904 0.09917 0.89297 0.0
C2185 C 0.73363 0.99266 0.8712 0.0
C2186 C 0.73619 0.96663 0.88582 0.0
C2187 C 0.74625 0.02527 0.8718 0.0
C2188 C 0.76167 0.03295 0.88707 0.0
C2189 C 0.76549 0.00632 0.90119 0.0
C2190 C 0.7528 0.97322 0.90056 0.0
C2191 C 0.77184 0.07016 0.88865 0.0
C2192 C 0.79655 0.07557 0.88617 0.0
C2193 C 0.75649 0.10067 0.88997 0.0
C2194 C 0.7304 0.09656 0.89371 0.0
C2195 C 0.72232 0.07669 0.90965 0.0
C2196 C 0.69777 0.07236 0.91298 0.0
C2197 C 0.68109 0.088 0.90054 0.0
C2198 C 0.68895 0.1081 0.88478 0.0
C2199 C 0.71349 0.11247 0.88137 0.0
H2200 H 0.66209 0.0846 0.90313 0.0
H2201 H 0.90057 0.12515 0.87078 0.0
H2202 H 0.78737 0.01722 0.36222 0.0
H2203 H 0.76398 0.96146 0.36346 0.0
H2204 H 0.74032 0.98829 0.42043 0.0
H2205 H 0.76391 0.04513 0.41923 0.0
H2206 H 0.75809 0.91618 0.41644 0.0
H2207 H 0.70026 0.99245 0.38681 0.0
H2208 H 0.68552 0.03846 0.36402 0.0
H2209 H 0.70336 0.9683 0.31706 0.0
H2210 H 0.71855 0.92206 0.33955 0.0
H2211 H 0.6662 0.76786 0.3913 0.0
H2212 H 0.67639 0.83271 0.39279 0.0
H2213 H 0.74971 0.80754 0.37849 0.0
H2214 H 0.73963 0.74281 0.3766 0.0
H2215 H 0.6992 0.88278 0.36611 0.0
H2216 H 0.78336 0.85778 0.41372 0.0
H2217 H 0.79795 0.81133 0.43635 0.0
H2218 H 0.72546 0.77911 0.44825 0.0
H2219 H 0.71041 0.82662 0.42664 0.0
C2220 C 0.7771 0.01152 0.37502 0.0
C2221 C 0.77755 0.03551 0.39069 0.0
C2222 C 0.76361 0.97967 0.37564 0.0
C2223 C 0.75029 0.97082 0.39197 0.0
C2224 C 0.75043 0.99477 0.40766 0.0
C2225 C 0.76377 0.0272 0.40694 0.0
C2226 C 0.73736 0.93552 0.39255 0.0
C2227 C 0.74501 0.90896 0.4056 0.0
C2228 C 0.72008 0.9263 0.37851 0.0
C2229 C 0.71065 0.95381 0.36489 0.0
C2230 C 0.70117 0.9869 0.37162 0.0
C2231 C 0.69272 0.01302 0.35875 0.0
C2232 C 0.69353 0.00633 0.33911 0.0
C2233 C 0.70273 0.97344 0.33229 0.0
C2234 C 0.71123 0.94723 0.34509 0.0
C2235 C 0.68438 0.77623 0.38806 0.0
C2236 C 0.70213 0.7502 0.38388 0.0
C2237 C 0.69014 0.81326 0.38891 0.0
C2238 C 0.71384 0.82477 0.386 0.0
C2239 C 0.73135 0.79909 0.38092 0.0
C2240 C 0.72552 0.76214 0.37973 0.0
C2241 C 0.72072 0.86318 0.38947 0.0
C2242 C 0.71197 0.89018 0.37716 0.0
C2243 C 0.73685 0.87284 0.40429 0.0
C2244 C 0.74575 0.84551 0.41827 0.0
C2245 C 0.77051 0.84113 0.42136 0.0
C2246 C 0.77888 0.81467 0.4341 0.0
C2247 C 0.76266 0.79228 0.44377 0.0
C2248 C 0.73804 0.79656 0.44087 0.0
C2249 C 0.72958 0.82334 0.42841 0.0
H2250 H 0.76919 0.77164 0.4535 0.0
H2251 H 0.687 0.0266 0.32917 0.0
H2252 H 0.75639 0.05144 0.10097 0.0
H2253 H 0.77895 0.99384 0.10105 0.0
H2254 H 0.74775 0.96602 0.15558 0.0
H2255 H 0.72587 0.02301 0.15576 0.0
H2256 H 0.7918 0.94414 0.15538 0.0
H2257 H 0.72439 0.93469 0.11368 0.0
H2258 H 0.69821 0.95199 0.08678 0.0
H2259 H 0.75557 0.93173 0.04728 0.0
H2260 H 0.78231 0.91498 0.07404 0.0
H2261 H 0.79074 0.74839 0.15265 0.0
H2262 H 0.77975 0.81301 0.15348 0.0
H2263 H 0.82491 0.83333 0.10462 0.0
H2264 H 0.83615 0.7693 0.10374 0.0
H2265 H 0.77761 0.8605 0.10085 0.0
H2266 H 0.84314 0.86264 0.14642 0.0
H2267 H 0.86426 0.84133 0.17531 0.0
H2268 H 0.8035 0.87019 0.2098 0.0
H2269 H 0.78191 0.89134 0.18108 0.0
C2270 C 0.75473 0.03322 0.11307 0.0
C2271 C 0.73909 0.0415 0.12819 0.0
C2272 C 0.7675 1.00028 0.11308 0.0
C2273 C 0.76477 0.9753 0.12821 0.0
C2274 C 0.75016 0.98465 0.14373 0.0
C2275 C 0.73746 0.01724 0.14371 0.0
C2276 C 0.77556 0.9383 0.12756 0.0
C2277 C 0.78868 0.92589 0.14344 0.0
C2278 C 0.77144 0.9143 0.11205 0.0
C2279 C 0.75546 0.92414 0.09588 0.0
C2280 C 0.73151 0.93427 0.09928 0.0
C2281 C 0.71657 0.94396 0.08407 0.0
C2282 C 0.72528 0.94315 0.06537 0.0
C2283 C 0.74891 0.9325 0.06181 0.0
C2284 C 0.76398 0.92294 0.07699 0.0
C2285 C 0.79857 0.76669 0.14224 0.0
C2286 C 0.8143 0.75354 0.12812 0.0
C2287 C 0.79228 0.80359 0.14273 0.0
C2288 C 0.80151 0.8279 0.12907 0.0
C2289 C 0.81755 0.81501 0.11525 0.0
C2290 C 0.82403 0.77834 0.11486 0.0
C2291 C 0.79376 0.86649 0.12865 0.0
C2292 C 0.78111 0.87905 0.1126 0.0
C2293 C 0.79766 0.89023 0.14425 0.0
C2294 C 0.81085 0.87833 0.16158 0.0
C2295 C 0.83424 0.86428 0.16015 0.0
C2296 C 0.8463 0.85226 0.1765 0.0
C2297 C 0.83521 0.85434 0.19437 0.0
C2298 C 0.81207 0.8686 0.19595 0.0
C2299 C 0.79993 0.88067 0.17964 0.0
H2300 H 0.84455 0.84495 0.20701 0.0
H2301 H 0.71365 0.95067 0.05366 0.0
H2302 H 0.74021 0.26865 0.63832 0.0
H2303 H 0.75225 0.20462 0.63689 0.0
H2304 H 0.67927 0.17354 0.62463 0.0
H2305 H 0.66713 0.23755 0.62576 0.0
H2306 H 0.70428 0.12512 0.6502 0.0
H2307 H 0.71283 0.18327 0.58986 0.0
H2308 H 0.72622 0.23172 0.56809 0.0
H2309 H 0.79971 0.20386 0.5791 0.0
H2310 H 0.78678 0.15647 0.60183 0.0
H2311 H 0.74454 0.94791 0.61877 0.0
H2312 H 0.72314 0.00667 0.61807 0.0
H2313 H 0.79047 0.06321 0.62473 0.0
H2314 H 0.81161 0.00534 0.62545 0.0
H2315 H 0.7626 0.09662 0.59879 0.0
H2316 H 0.75415 0.04793 0.6631 0.0
H2317 H 0.7411 0.00498 0.68813 0.0
H2318 H 0.66808 0.01558 0.66941 0.0
H2319 H 0.68074 0.05849 0.6442 0.0
C2320 C 0.72661 0.24814 0.63582 0.0
C2321 C 0.70275 0.25816 0.63204 0.0
C2322 C 0.73354 0.2116 0.63488 0.0
C2323 C 0.71669 0.18447 0.63038 0.0
C2324 C 0.69254 0.19409 0.62804 0.0
C2325 C 0.68566 0.23066 0.62868 0.0
C2326 C 0.72464 0.14661 0.62666 0.0
C2327 C 0.71672 0.1187 0.63877 0.0
C2328 C 0.74091 0.13841 0.61174 0.0
C2329 C 0.7488 0.16651 0.59778 0.0
C2330 C 0.73186 0.18774 0.58787 0.0
C2331 C 0.73938 0.21505 0.57534 0.0
C2332 C 0.76381 0.22079 0.57214 0.0
C2333 C 0.78078 0.19938 0.58159 0.0
C2334 C 0.77336 0.1724 0.59439 0.0
C2335 C 0.75468 0.97298 0.61975 0.0
C2336 C 0.77969 0.97212 0.62228 0.0
C2337 C 0.74248 0.00646 0.61951 0.0
C2338 C 0.7552 0.03936 0.62155 0.0
C2339 C 0.78024 0.0383 0.62316 0.0
C2340 C 0.7923 0.00515 0.62363 0.0
C2341 C 0.74288 0.07518 0.62275 0.0
C2342 C 0.74988 0.10285 0.61005 0.0
C2343 C 0.72583 0.08317 0.63715 0.0
C2344 C 0.71842 0.056 0.65163 0.0
C2345 C 0.73536 0.04073 0.66417 0.0
C2346 C 0.72802 0.01657 0.67845 0.0
C2347 C 0.70377 0.00758 0.68035 0.0
C2348 C 0.68685 0.02257 0.66791 0.0
C2349 C 0.69409 0.04682 0.65364 0.0
H2350 H 0.69808 0.98909 0.6915 0.0
H2351 H 0.76961 0.24179 0.56233 0.0
H2352 H 0.73116 0.25089 0.14584 0.0
H2353 H 0.74077 0.31574 0.14522 0.0
H2354 H 0.68286 0.33462 0.10558 0.0
H2355 H 0.67317 0.26974 0.10596 0.0
H2356 H 0.72573 0.36593 0.09379 0.0
H2357 H 0.67668 0.36488 0.14954 0.0
H2358 H 0.66252 0.34314 0.1809 0.0
H2359 H 0.73118 0.36745 0.20564 0.0
H2360 H 0.74589 0.38883 0.17435 0.0
H2361 H 0.75642 0.55821 0.10251 0.0
H2362 H 0.73277 0.50154 0.10113 0.0
H2363 H 0.77983 0.45288 0.14286 0.0
H2364 H 0.80316 0.5083 0.14436 0.0
H2365 H 0.73338 0.44219 0.15193 0.0
H2366 H 0.78497 0.4326 0.09673 0.0
H2367 H 0.8017 0.45084 0.06554 0.0
H2368 H 0.73179 0.44299 0.0401 0.0
H2369 H 0.71456 0.42533 0.07125 0.0
C2370 C 0.72022 0.26883 0.1372 0.0
C2371 C 0.70142 0.25498 0.12594 0.0
C2372 C 0.72573 0.30594 0.13686 0.0
C2373 C 0.71248 0.33 0.12537 0.0
C2374 C 0.6933 0.31651 0.11452 0.0
C2375 C 0.68777 0.27939 0.11484 0.0
C2376 C 0.7195 0.36888 0.12414 0.0
C2377 C 0.72704 0.38285 0.10643 0.0
C2378 C 0.72125 0.39089 0.14065 0.0
C2379 C 0.71243 0.37828 0.15955 0.0
C2380 C 0.68882 0.36536 0.16163 0.0
C2381 C 0.68069 0.35314 0.1794 0.0
C2382 C 0.69595 0.35387 0.19525 0.0
C2383 C 0.71937 0.3669 0.19335 0.0
C2384 C 0.72761 0.37913 0.1756 0.0
C2385 C 0.76164 0.53538 0.11136 0.0
C2386 C 0.78164 0.53794 0.12357 0.0
C2387 C 0.74818 0.50306 0.11054 0.0
C2388 C 0.75453 0.47306 0.12197 0.0
C2389 C 0.77448 0.47572 0.13404 0.0
C2390 C 0.78788 0.50758 0.13479 0.0
C2391 C 0.74075 0.43853 0.12176 0.0
C2392 C 0.73177 0.42545 0.13922 0.0
C2393 C 0.73812 0.41712 0.10508 0.0
C2394 C 0.74839 0.42831 0.08641 0.0
C2395 C 0.7731 0.43526 0.08455 0.0
C2396 C 0.78269 0.44537 0.06686 0.0
C2397 C 0.7678 0.44823 0.05086 0.0
C2398 C 0.74329 0.44091 0.05252 0.0
C2399 C 0.73359 0.43088 0.0702 0.0
H2400 H 0.77526 0.45599 0.03717 0.0
H2401 H 0.68962 0.34438 0.20899 0.0
H2402 H 0.76401 0.44775 0.61371 0.0
H2403 H 0.78649 0.50545 0.61296 0.0
H2404 H 0.72004 0.56509 0.61682 0.0
H2405 H 0.69774 0.50804 0.61765 0.0
H2406 H 0.75102 0.59749 0.59225 0.0
H2407 H 0.75108 0.54732 0.65571 0.0
H2408 H 0.75896 0.49976 0.67975 0.0
H2409 H 0.83443 0.50641 0.66808 0.0
H2410 H 0.82691 0.55331 0.64353 0.0
H2411 H 0.77355 0.76428 0.63811 0.0
H2412 H 0.76182 0.70041 0.63542 0.0
H2413 H 0.83357 0.67219 0.61804 0.0
H2414 H 0.84542 0.73643 0.62018 0.0
H2415 H 0.80571 0.62149 0.64686 0.0
H2416 H 0.80302 0.68031 0.58507 0.0
H2417 H 0.7917 0.73002 0.56328 0.0
H2418 H 0.71717 0.70828 0.57366 0.0
H2419 H 0.72807 0.65957 0.5963 0.0
C2420 C 0.75426 0.47324 0.61395 0.0
C2421 C 0.72917 0.47351 0.61585 0.0
C2422 C 0.76709 0.50611 0.61365 0.0
C2423 C 0.75493 0.53956 0.61504 0.0
C2424 C 0.72981 0.53968 0.61575 0.0
C2425 C 0.71709 0.50704 0.61629 0.0
C2426 C 0.76803 0.57455 0.61712 0.0
C2427 C 0.76305 0.60267 0.60414 0.0
C2428 C 0.7838 0.58127 0.63263 0.0
C2429 C 0.7884 0.55345 0.64757 0.0
C2430 C 0.76934 0.53839 0.65812 0.0
C2431 C 0.77373 0.51156 0.67185 0.0
C2432 C 0.79718 0.50002 0.67542 0.0
C2433 C 0.81627 0.51531 0.66527 0.0
C2434 C 0.81195 0.54196 0.65141 0.0
C2435 C 0.78703 0.74447 0.63412 0.0
C2436 C 0.81041 0.75551 0.62924 0.0
C2437 C 0.78025 0.70798 0.63254 0.0
C2438 C 0.79679 0.68173 0.62641 0.0
C2439 C 0.82057 0.69212 0.6228 0.0
C2440 C 0.82727 0.72881 0.62399 0.0
C2441 C 0.78846 0.64433 0.62208 0.0
C2442 C 0.79418 0.61595 0.6347 0.0
C2443 C 0.77299 0.63749 0.60643 0.0
C2444 C 0.7664 0.66653 0.59261 0.0
C2445 C 0.78422 0.68645 0.58295 0.0
C2446 C 0.77787 0.71443 0.5704 0.0
C2447 C 0.75372 0.72224 0.56703 0.0
C2448 C 0.73588 0.70221 0.57629 0.0
C2449 C 0.74214 0.6745 0.58905 0.0
H2450 H 0.74879 0.74375 0.55724 0.0
H2451 H 0.80055 0.4793 0.68608 0.0
H2452 H 0.72565 0.75845 0.86194 0.0
H2453 H 0.73582 0.69367 0.86195 0.0
H2454 H 0.681 0.67339 0.90408 0.0
H2455 H 0.67072 0.73786 0.90422 0.0
H2456 H 0.72365 0.64365 0.9145 0.0
H2457 H 0.67335 0.64339 0.85914 0.0
H2458 H 0.65886 0.66444 0.82772 0.0
H2459 H 0.72719 0.63937 0.80271 0.0
H2460 H 0.74221 0.61865 0.83403 0.0
H2461 H 0.75256 0.45097 0.90836 0.0
H2462 H 0.72887 0.50766 0.90867 0.0
H2463 H 0.7753 0.55311 0.86553 0.0
H2464 H 0.79855 0.49771 0.86502 0.0
H2465 H 0.72937 0.56554 0.85688 0.0
H2466 H 0.78146 0.57504 0.9122 0.0
H2467 H 0.7976 0.55634 0.94355 0.0
H2468 H 0.7275 0.5658 0.96838 0.0
H2469 H 0.71084 0.584 0.9371 0.0
C2470 C 0.71547 0.74015 0.87096 0.0
C2471 C 0.69743 0.75352 0.88312 0.0
C2472 C 0.7213 0.70309 0.87095 0.0
C2473 C 0.70916 0.67867 0.88303 0.0
C2474 C 0.69065 0.69173 0.89471 0.0
C2475 C 0.68475 0.72866 0.89468 0.0
C2476 C 0.71667 0.63995 0.88425 0.0
C2477 C 0.72443 0.62628 0.90197 0.0
C2478 C 0.71798 0.61746 0.86789 0.0
C2479 C 0.70896 0.62968 0.84898 0.0
C2480 C 0.68535 0.6426 0.84697 0.0
C2481 C 0.67703 0.65444 0.82917 0.0
C2482 C 0.69211 0.6533 0.81324 0.0
C2483 C 0.71553 0.64025 0.81506 0.0
C2484 C 0.72394 0.6284 0.83283 0.0
C2485 C 0.75758 0.47306 0.89893 0.0
C2486 C 0.77746 0.46964 0.88668 0.0
C2487 C 0.74409 0.50541 0.89914 0.0
C2488 C 0.75031 0.5346 0.88706 0.0
C2489 C 0.77001 0.53094 0.87485 0.0
C2490 C 0.78341 0.49908 0.87469 0.0
C2491 C 0.73698 0.5696 0.88701 0.0
C2492 C 0.7281 0.58263 0.86949 0.0
C2493 C 0.73487 0.5916 0.90352 0.0
C2494 C 0.74484 0.58032 0.92226 0.0
C2495 C 0.76943 0.57272 0.9243 0.0
C2496 C 0.77868 0.56228 0.94205 0.0
C2497 C 0.76354 0.55971 0.95789 0.0
C2498 C 0.73916 0.56766 0.95606 0.0
C2499 C 0.7298 0.57802 0.93833 0.0
H2500 H 0.77073 0.55181 0.97161 0.0
H2501 H 0.68563 0.66249 0.79947 0.0
H2502 H 0.70274 0.50029 0.38826 0.0
H2503 H 0.72409 0.44303 0.3915 0.0
H2504 H 0.78888 0.50103 0.40601 0.0
H2505 H 0.7673 0.5593 0.40269 0.0
H2506 H 0.79642 0.44878 0.37827 0.0
H2507 H 0.7622 0.45212 0.43983 0.0
H2508 H 0.73102 0.46131 0.46432 0.0
H2509 H 0.68959 0.37401 0.44034 0.0
H2510 H 0.72029 0.36469 0.41546 0.0
H2511 H 0.84563 0.26854 0.3979 0.0
H2512 H 0.83352 0.33244 0.4006 0.0
H2513 H 0.76307 0.30496 0.37969 0.0
H2514 H 0.77506 0.24122 0.37665 0.0
H2515 H 0.76428 0.34477 0.41555 0.0
H2516 H 0.79765 0.34898 0.35144 0.0
H2517 H 0.8298 0.34079 0.32764 0.0
H2518 H 0.87486 0.41479 0.3588 0.0
H2519 H 0.84306 0.42302 0.38295 0.0
C2520 C 0.7215 0.50102 0.39231 0.0
C2521 C 0.73339 0.53435 0.39511 0.0
C2522 C 0.73366 0.46815 0.39428 0.0
C2523 C 0.75805 0.46763 0.39913 0.0
C2524 C 0.77001 0.50083 0.40231 0.0
C2525 C 0.75768 0.53402 0.40052 0.0
C2526 C 0.77085 0.43215 0.39965 0.0
C2527 C 0.78979 0.42625 0.38678 0.0
C2528 C 0.76207 0.40262 0.41062 0.0
C2529 C 0.74353 0.40788 0.42565 0.0
C2530 C 0.74636 0.43506 0.43966 0.0
C2531 C 0.72876 0.44029 0.45362 0.0
C2532 C 0.70831 0.41834 0.45385 0.0
C2533 C 0.70544 0.39103 0.44014 0.0
C2534 C 0.72295 0.38573 0.4261 0.0
C2535 C 0.8277 0.27619 0.39353 0.0
C2536 C 0.81132 0.24969 0.38706 0.0
C2537 C 0.82081 0.31271 0.39513 0.0
C2538 C 0.79735 0.32334 0.3905 0.0
C2539 C 0.78122 0.29724 0.38344 0.0
C2540 C 0.78819 0.26086 0.38156 0.0
C2541 C 0.78919 0.3613 0.39372 0.0
C2542 C 0.77116 0.36752 0.40733 0.0
C2543 C 0.79904 0.39115 0.38365 0.0
C2544 C 0.8181 0.38625 0.36913 0.0
C2545 C 0.8145 0.36322 0.35332 0.0
C2546 C 0.83264 0.35864 0.33974 0.0
C2547 C 0.85439 0.37716 0.34174 0.0
C2548 C 0.85802 0.4004 0.35729 0.0
C2549 C 0.83994 0.40505 0.37092 0.0
H2550 H 0.86841 0.37358 0.33121 0.0
H2551 H 0.69471 0.42244 0.46467 0.0
H2552 H 0.29044 0.74492 0.85379 0.0
H2553 H 0.27811 0.68115 0.85579 0.0
H2554 H 0.3293 0.66353 0.90115 0.0
H2555 H 0.34251 0.72684 0.89847 0.0
H2556 H 0.32455 0.60327 0.88229 0.0
H2557 H 0.27053 0.68661 0.91108 0.0
H2558 H 0.24441 0.74063 0.91315 0.0
H2559 H 0.19974 0.69797 0.86845 0.0
H2560 H 0.22573 0.64384 0.86593 0.0
H2561 H 0.21176 0.48611 0.91532 0.0
H2562 H 0.23453 0.54308 0.91469 0.0
H2563 H 0.27705 0.50176 0.86787 0.0
H2564 H 0.25547 0.4441 0.86946 0.0
H2565 H 0.23656 0.59217 0.89109 0.0
H2566 H 0.32979 0.54282 0.86302 0.0
H2567 H 0.35688 0.49033 0.86703 0.0
H2568 H 0.32489 0.46652 0.92143 0.0
H2569 H 0.29783 0.51913 0.91787 0.0
C2570 C 0.29963 0.72703 0.86369 0.0
C2571 C 0.31737 0.74072 0.87598 0.0
C2572 C 0.29243 0.69073 0.86498 0.0
C2573 C 0.30223 0.66784 0.87905 0.0
C2574 C 0.32136 0.68069 0.89026 0.0
C2575 C 0.32898 0.71685 0.88866 0.0
C2576 C 0.29096 0.63205 0.88327 0.0
C2577 C 0.30531 0.60074 0.88419 0.0
C2578 C 0.26599 0.62892 0.88664 0.0
C2579 C 0.25019 0.6613 0.8882 0.0
C2580 C 0.25521 0.68884 0.90161 0.0
C2581 C 0.24044 0.71947 0.90288 0.0
C2582 C 0.22049 0.72277 0.89091 0.0
C2583 C 0.21522 0.69539 0.87769 0.0
C2584 C 0.22994 0.6647 0.87635 0.0
C2585 C 0.2263 0.48908 0.90517 0.0
C2586 C 0.23201 0.46069 0.89256 0.0
C2587 C 0.23925 0.52168 0.90474 0.0
C2588 C 0.25779 0.52686 0.89135 0.0
C2589 C 0.26343 0.49831 0.87875 0.0
C2590 C 0.25097 0.46536 0.87957 0.0
C2591 C 0.27002 0.56284 0.88969 0.0
C2592 C 0.25582 0.5944 0.88928 0.0
C2593 C 0.29526 0.56628 0.88775 0.0
C2594 C 0.31163 0.53475 0.89008 0.0
C2595 C 0.32861 0.52648 0.87587 0.0
C2596 C 0.34394 0.49668 0.87806 0.0
C2597 C 0.34256 0.47504 0.89444 0.0
C2598 C 0.32589 0.48322 0.90871 0.0
C2599 C 0.31052 0.513 0.9066 0.0
H2600 H 0.35444 0.45197 0.8961 0.0
H2601 H 0.20909 0.74652 0.89191 0.0
H2602 H 0.31207 0.50332 0.39071 0.0
H2603 H 0.28761 0.44866 0.38699 0.0
H2604 H 0.22328 0.51323 0.39058 0.0
H2605 H 0.24767 0.56856 0.39388 0.0
H2606 H 0.22591 0.4399 0.41271 0.0
H2607 H 0.23215 0.49491 0.35079 0.0
H2608 H 0.25395 0.52498 0.32451 0.0
H2609 H 0.29822 0.43033 0.31759 0.0
H2610 H 0.27703 0.39997 0.34413 0.0
H2611 H 0.16377 0.27935 0.38412 0.0
H2612 H 0.17385 0.34432 0.38443 0.0
H2613 H 0.24526 0.31913 0.36475 0.0
H2614 H 0.23516 0.25485 0.3638 0.0
H2615 H 0.23155 0.37999 0.34927 0.0
H2616 H 0.22892 0.3285 0.41362 0.0
H2617 H 0.20903 0.29967 0.44129 0.0
H2618 H 0.15906 0.38817 0.44441 0.0
H2619 H 0.17826 0.41723 0.41654 0.0
C2620 C 0.29273 0.50599 0.39103 0.0
C2621 C 0.28183 0.54039 0.39249 0.0
C2622 C 0.27879 0.47469 0.38885 0.0
C2623 C 0.2537 0.47705 0.38837 0.0
C2624 C 0.24264 0.51097 0.3909 0.0
C2625 C 0.25661 0.54249 0.39275 0.0
C2626 C 0.23939 0.44411 0.38401 0.0
C2627 C 0.22663 0.42707 0.39875 0.0
C2628 C 0.24063 0.42745 0.36583 0.0
C2629 C 0.25313 0.44528 0.34958 0.0
C2630 C 0.24668 0.48061 0.34379 0.0
C2631 C 0.2589 0.49771 0.32882 0.0
C2632 C 0.27748 0.4796 0.31941 0.0
C2633 C 0.28383 0.44433 0.32491 0.0
C2634 C 0.27171 0.42716 0.33991 0.0
C2635 C 0.1814 0.28777 0.37938 0.0
C2636 C 0.19876 0.26179 0.37418 0.0
C2637 C 0.18722 0.32492 0.37974 0.0
C2638 C 0.21053 0.33662 0.37507 0.0
C2639 C 0.22722 0.3109 0.36855 0.0
C2640 C 0.22141 0.274 0.36807 0.0
C2641 C 0.21846 0.37489 0.37815 0.0
C2642 C 0.23022 0.39303 0.36314 0.0
C2643 C 0.21634 0.39248 0.39614 0.0
C2644 C 0.20483 0.37481 0.41284 0.0
C2645 C 0.21356 0.34166 0.42011 0.0
C2646 C 0.20245 0.3253 0.43583 0.0
C2647 C 0.18283 0.34204 0.44457 0.0
C2648 C 0.17424 0.37519 0.43761 0.0
C2649 C 0.1852 0.3916 0.42184 0.0
H2650 H 0.1743 0.32934 0.45677 0.0
H2651 H 0.28693 0.49288 0.30783 0.0
H2652 H 0.26742 0.56059 0.1124 0.0
H2653 H 0.29223 0.50522 0.11311 0.0
H2654 H 0.22971 0.44153 0.12721 0.0
H2655 H 0.20509 0.49615 0.12662 0.0
H2656 H 0.26642 0.43368 0.15333 0.0
H2657 H 0.25814 0.4258 0.08181 0.0
H2658 H 0.264 0.44946 0.04902 0.0
H2659 H 0.33768 0.47305 0.06175 0.0
H2660 H 0.33243 0.44861 0.09437 0.0
H2661 H 0.28125 0.24792 0.14292 0.0
H2662 H 0.27194 0.31237 0.14252 0.0
H2663 H 0.34348 0.33641 0.12272 0.0
H2664 H 0.35281 0.27109 0.12254 0.0
H2665 H 0.31278 0.37274 0.1021 0.0
H2666 H 0.3244 0.36175 0.16827 0.0
H2667 H 0.32174 0.33659 0.20086 0.0
H2668 H 0.24555 0.35335 0.20085 0.0
H2669 H 0.24764 0.37802 0.16813 0.0
C2670 C 0.25893 0.53464 0.11525 0.0
C2671 C 0.23436 0.53285 0.11978 0.0
C2672 C 0.27312 0.50302 0.11563 0.0
C2673 C 0.26286 0.46926 0.1204 0.0
C2674 C 0.23808 0.4673 0.12369 0.0
C2675 C 0.22402 0.49863 0.12338 0.0
C2676 C 0.27772 0.43635 0.12396 0.0
C2677 C 0.27644 0.42014 0.1421 0.0
C2678 C 0.29204 0.4199 0.10973 0.0
C2679 C 0.29482 0.43591 0.09051 0.0
C2680 C 0.27551 0.43632 0.07761 0.0
C2681 C 0.27875 0.44968 0.05907 0.0
C2682 C 0.30109 0.46309 0.05339 0.0
C2683 C 0.32035 0.46282 0.06618 0.0
C2684 C 0.3173 0.44904 0.08465 0.0
C2685 C 0.29523 0.26682 0.13877 0.0
C2686 C 0.31781 0.2542 0.13277 0.0
C2687 C 0.28989 0.30388 0.13867 0.0
C2688 C 0.30707 0.32952 0.13284 0.0
C2689 C 0.32995 0.31721 0.12738 0.0
C2690 C 0.33532 0.27987 0.12742 0.0
C2691 C 0.30011 0.36857 0.13115 0.0
C2692 C 0.30306 0.38624 0.11348 0.0
C2693 C 0.28765 0.38674 0.14598 0.0
C2694 C 0.28619 0.37159 0.16565 0.0
C2695 C 0.30704 0.35979 0.17514 0.0
C2696 C 0.30564 0.34565 0.19366 0.0
C2697 C 0.28349 0.34333 0.20291 0.0
C2698 C 0.2627 0.35517 0.19366 0.0
C2699 C 0.26399 0.36928 0.17513 0.0
H2700 H 0.28245 0.3324 0.21725 0.0
H2701 H 0.30352 0.47351 0.03905 0.0
H2702 H 0.16323 0.73213 0.61636 0.0
H2703 H 0.17395 0.6677 0.61277 0.0
H2704 H 0.24312 0.68916 0.63797 0.0
H2705 H 0.23263 0.75305 0.64171 0.0
H2706 H 0.24607 0.65574 0.60269 0.0
H2707 H 0.20164 0.64222 0.66205 0.0
H2708 H 0.16553 0.64677 0.68226 0.0
H2709 H 0.12697 0.57778 0.64336 0.0
H2710 H 0.16279 0.57322 0.62278 0.0
H2711 H 0.30551 0.50277 0.63185 0.0
H2712 H 0.28244 0.55821 0.62844 0.0
H2713 H 0.22347 0.49729 0.6045 0.0
H2714 H 0.24671 0.44063 0.60814 0.0
H2715 H 0.20871 0.54686 0.63217 0.0
H2716 H 0.25396 0.55128 0.57542 0.0
H2717 H 0.28951 0.54548 0.55469 0.0
H2718 H 0.32462 0.63101 0.58577 0.0
H2719 H 0.28946 0.63701 0.60688 0.0
C2720 C 0.18047 0.72292 0.6216 0.0
C2721 C 0.19714 0.74784 0.62921 0.0
C2722 C 0.18659 0.68612 0.61945 0.0
C2723 C 0.20943 0.67377 0.62491 0.0
C2724 C 0.2255 0.6982 0.63347 0.0
C2725 C 0.21941 0.73473 0.63567 0.0
C2726 C 0.21757 0.63618 0.6207 0.0
C2727 C 0.23789 0.63189 0.60909 0.0
C2728 C 0.20625 0.605 0.62839 0.0
C2729 C 0.18478 0.60777 0.64076 0.0
C2730 C 0.18539 0.62831 0.65771 0.0
C2731 C 0.165 0.63083 0.66925 0.0
C2732 C 0.14394 0.61269 0.66406 0.0
C2733 C 0.14327 0.59189 0.64734 0.0
C2734 C 0.16361 0.58931 0.63574 0.0
C2735 C 0.28767 0.50091 0.62578 0.0
C2736 C 0.27793 0.46716 0.62033 0.0
C2737 C 0.27453 0.5328 0.62372 0.0
C2738 C 0.25133 0.53202 0.61602 0.0
C2739 C 0.24141 0.49848 0.61041 0.0
C2740 C 0.25472 0.46623 0.61241 0.0
C2741 C 0.2377 0.56662 0.61465 0.0
C2742 C 0.21645 0.5705 0.62522 0.0
C2743 C 0.24787 0.59749 0.60567 0.0
C2744 C 0.26907 0.5944 0.59285 0.0
C2745 C 0.26931 0.5687 0.57793 0.0
C2746 C 0.28939 0.56541 0.56609 0.0
C2747 C 0.30933 0.58777 0.56896 0.0
C2748 C 0.30916 0.61367 0.58358 0.0
C2749 C 0.28913 0.61709 0.59547 0.0
H2750 H 0.32493 0.58499 0.55989 0.0
H2751 H 0.12818 0.61466 0.67302 0.0
loop_
_geom_bond_atom_site_label_1
_geom_bond_atom_site_label_2
_geom_bond_distance
_geom_bond_site_symmetry_2
_ccdc_geom_bond_type
Fe0 O2 1.918 . S
Fe0 O5 1.997 . S
Fe0 O6 2.002 . S
Fe0 O11 1.976 . S
Fe0 O14 1.996 . S
Fe1 O2 1.918 . S
Fe1 O9 1.997 . S
Fe1 O12 1.996 . S
Fe1 O16 1.976 . S
Fe1 O19 2.002 . S
O2 Fe0 1.918 . S
O2 Fe1 1.918 . S
O2 Fe3 1.918 . S
Fe3 O2 1.918 . S
Fe3 O4 2.002 . S
Fe3 O13 1.976 . S
Fe3 O17 1.996 . S
Fe3 O20 1.997 . S
O4 Fe3 2.002 . S
O4 C21 1.295 . S
O5 Fe0 1.997 . S
O5 C21 1.235 . S
O6 Fe0 2.002 . S
O6 C7 1.295 . S
C7 O6 1.295 . S
C7 O9 1.235 . S
C8 O13 1.287 . S
C8 O14 1.255 . S
O9 Fe1 1.997 . S
O9 C7 1.235 . S
C10 O16 1.287 . S
C10 O17 1.255 . S
O11 Fe0 1.976 . S
O11 C18 1.287 . S
O12 Fe1 1.996 . S
O12 C18 1.255 . S
O13 Fe3 1.976 . S
O13 C8 1.287 . S
O14 Fe0 1.996 . S
O14 C8 1.255 . S
C15 O19 1.295 . S
C15 O20 1.235 . S
O16 Fe1 1.976 . S
O16 C10 1.287 . S
O17 Fe3 1.996 . S
O17 C10 1.255 . S
C18 O11 1.287 . S
C18 O12 1.255 . S
O19 Fe1 2.002 . S
O19 C15 1.295 . S
O20 Fe3 1.997 . S
O20 C15 1.235 . S
C21 O4 1.295 . S
C21 O5 1.235 . S
Fe22 O24 1.918 . S
Fe22 O27 1.997 . S
Fe22 O28 2.002 . S
Fe22 O33 1.976 . S
Fe22 O36 1.996 . S
Fe23 O24 1.918 . S
Fe23 O31 1.997 . S
Fe23 O34 1.996 . S
Fe23 O38 1.976 . S
Fe23 O41 2.002 . S
O24 Fe22 1.918 . S
O24 Fe23 1.918 . S
O24 Fe25 1.918 . S
Fe25 O24 1.918 . S
Fe25 O26 2.002 . S
Fe25 O35 1.976 . S
Fe25 O39 1.996 . S
Fe25 O42 1.997 . S
O26 Fe25 2.002 . S
O26 C43 1.295 . S
O27 Fe22 1.997 . S
O27 C43 1.235 . S
O28 Fe22 2.002 . S
O28 C29 1.295 . S
C29 O28 1.295 . S
C29 O31 1.235 . S
C30 O35 1.287 . S
C30 O36 1.255 . S
O31 Fe23 1.997 . S
O31 C29 1.235 . S
C32 O38 1.287 . S
C32 O39 1.255 . S
O33 Fe22 1.976 . S
O33 C40 1.287 . S
O34 Fe23 1.996 . S
O34 C40 1.255 . S
O35 Fe25 1.976 . S
O35 C30 1.287 . S
O36 Fe22 1.996 . S
O36 C30 1.255 . S
C37 O41 1.295 . S
C37 O42 1.235 . S
O38 Fe23 1.976 . S
O38 C32 1.287 . S
O39 Fe25 1.996 . S
O39 C32 1.255 . S
C40 O33 1.287 . S
C40 O34 1.255 . S
O41 Fe23 2.002 . S
O41 C37 1.295 . S
O42 Fe25 1.997 . S
O42 C37 1.235 . S
C43 O26 1.295 . S
C43 O27 1.235 . S
Fe44 O46 1.918 . S
Fe44 O49 1.997 . S
Fe44 O50 2.002 . S
Fe44 O55 1.976 . S
Fe44 O58 1.996 . S
Fe45 O46 1.918 . S
Fe45 O53 1.997 . S
Fe45 O56 1.996 . S
Fe45 O60 1.976 . S
Fe45 O63 2.002 . S
O46 Fe44 1.918 . S
O46 Fe45 1.918 . S
O46 Fe47 1.918 . S
Fe47 O46 1.918 . S
Fe47 O48 2.002 . S
Fe47 O57 1.976 . S
Fe47 O61 1.996 . S
Fe47 O64 1.997 . S
O48 Fe47 2.002 . S
O48 C65 1.295 . S
O49 Fe44 1.997 . S
O49 C65 1.235 . S
O50 Fe44 2.002 . S
O50 C51 1.295 . S
C51 O50 1.295 . S
C51 O53 1.235 . S
C52 O57 1.287 . S
C52 O58 1.255 . S
O53 Fe45 1.997 . S
O53 C51 1.235 . S
C54 O60 1.287 . S
C54 O61 1.255 . S
O55 Fe44 1.976 . S
O55 C62 1.287 . S
O56 Fe45 1.996 . S
O56 C62 1.255 . S
O57 Fe47 1.976 . S
O57 C52 1.287 . S
O58 Fe44 1.996 . S
O58 C52 1.255 . S
C59 O63 1.295 . S
C59 O64 1.235 . S
O60 Fe45 1.976 . S
O60 C54 1.287 . S
O61 Fe47 1.996 . S
O61 C54 1.255 . S
C62 O55 1.287 . S
C62 O56 1.255 . S
O63 Fe45 2.002 . S
O63 C59 1.295 . S
O64 Fe47 1.997 . S
O64 C59 1.235 . S
C65 O48 1.295 . S
C65 O49 1.235 . S
Fe66 O68 1.918 . S
Fe66 O71 1.997 . S
Fe66 O72 2.002 . S
Fe66 O77 1.976 . S
Fe66 O80 1.996 . S
Fe67 O68 1.918 . S
Fe67 O75 1.997 . S
Fe67 O78 1.996 . S
Fe67 O82 1.976 . S
Fe67 O85 2.002 . S
O68 Fe66 1.918 . S
O68 Fe67 1.918 . S
O68 Fe69 1.918 . S
Fe69 O68 1.918 . S
Fe69 O70 2.002 . S
Fe69 O79 1.976 . S
Fe69 O83 1.996 . S
Fe69 O86 1.997 . S
O70 Fe69 2.002 . S
O70 C87 1.295 . S
O71 Fe66 1.997 . S
O71 C87 1.235 . S
O72 Fe66 2.002 . S
O72 C73 1.295 . S
C73 O72 1.295 . S
C73 O75 1.235 . S
C74 O79 1.287 . S
C74 O80 1.255 . S
O75 Fe67 1.997 . S
O75 C73 1.235 . S
C76 O82 1.287 . S
C76 O83 1.255 . S
O77 Fe66 1.976 . S
O77 C84 1.287 . S
O78 Fe67 1.996 . S
O78 C84 1.255 . S
O79 Fe69 1.976 . S
O79 C74 1.287 . S
O80 Fe66 1.996 . S
O80 C74 1.255 . S
C81 O85 1.295 . S
C81 O86 1.235 . S
O82 Fe67 1.976 . S
O82 C76 1.287 . S
O83 Fe69 1.996 . S
O83 C76 1.255 . S
C84 O77 1.287 . S
C84 O78 1.255 . S
O85 Fe67 2.002 . S
O85 C81 1.295 . S
O86 Fe69 1.997 . S
O86 C81 1.235 . S
C87 O70 1.295 . S
C87 O71 1.235 . S
Fe88 O90 1.918 . S
Fe88 O93 1.997 . S
Fe88 O94 2.002 . S
Fe88 O99 1.976 . S
Fe88 O102 1.996 . S
Fe89 O90 1.918 . S
Fe89 O97 1.997 . S
Fe89 O100 1.996 . S
Fe89 O104 1.976 . S
Fe89 O107 2.002 . S
O90 Fe88 1.918 . S
O90 Fe89 1.918 . S
O90 Fe91 1.918 . S
Fe91 O90 1.918 . S
Fe91 O92 2.002 . S
Fe91 O101 1.976 . S
Fe91 O105 1.996 . S
Fe91 O108 1.997 . S
O92 Fe91 2.002 . S
O92 C109 1.295 . S
O93 Fe88 1.997 . S
O93 C109 1.235 . S
O94 Fe88 2.002 . S
O94 C95 1.295 . S
C95 O94 1.295 . S
C95 O97 1.235 . S
C96 O101 1.287 . S
C96 O102 1.255 . S
O97 Fe89 1.997 . S
O97 C95 1.235 . S
C98 O104 1.287 . S
C98 O105 1.255 . S
O99 Fe88 1.976 . S
O99 C106 1.287 . S
O100 Fe89 1.996 . S
O100 C106 1.255 . S
O101 Fe91 1.976 . S
O101 C96 1.287 . S
O102 Fe88 1.996 . S
O102 C96 1.255 . S
C103 O107 1.295 . S
C103 O108 1.235 . S
O104 Fe89 1.976 . S
O104 C98 1.287 . S
O105 Fe91 1.996 . S
O105 C98 1.255 . S
C106 O99 1.287 . S
C106 O100 1.255 . S
O107 Fe89 2.002 . S
O107 C103 1.295 . S
O108 Fe91 1.997 . S
O108 C103 1.235 . S
C109 O92 1.295 . S
C109 O93 1.235 . S
Fe110 O112 1.918 . S
Fe110 O115 1.997 . S
Fe110 O116 2.002 . S
Fe110 O121 1.976 . S
Fe110 O124 1.996 . S
Fe111 O112 1.918 . S
Fe111 O119 1.997 . S
Fe111 O122 1.996 . S
Fe111 O126 1.976 . S
Fe111 O129 2.002 . S
O112 Fe110 1.918 . S
O112 Fe111 1.918 . S
O112 Fe113 1.918 . S
Fe113 O112 1.918 . S
Fe113 O114 2.002 . S
Fe113 O123 1.976 . S
Fe113 O127 1.996 . S
Fe113 O130 1.997 . S
O114 Fe113 2.002 . S
O114 C131 1.295 . S
O115 Fe110 1.997 . S
O115 C131 1.235 . S
O116 Fe110 2.002 . S
O116 C117 1.295 . S
C117 O116 1.295 . S
C117 O119 1.235 . S
C118 O123 1.287 . S
C118 O124 1.255 . S
O119 Fe111 1.997 . S
O119 C117 1.235 . S
C120 O126 1.287 . S
C120 O127 1.255 . S
O121 Fe110 1.976 . S
O121 C128 1.287 . S
O122 Fe111 1.996 . S
O122 C128 1.255 . S
O123 Fe113 1.976 . S
O123 C118 1.287 . S
O124 Fe110 1.996 . S
O124 C118 1.255 . S
C125 O129 1.295 . S
C125 O130 1.235 . S
O126 Fe111 1.976 . S
O126 C120 1.287 . S
O127 Fe113 1.996 . S
O127 C120 1.255 . S
C128 O121 1.287 . S
C128 O122 1.255 . S
O129 Fe111 2.002 . S
O129 C125 1.295 . S
O130 Fe113 1.997 . S
O130 C125 1.235 . S
C131 O114 1.295 . S
C131 O115 1.235 . S
Fe132 O134 1.918 . S
Fe132 O137 1.997 . S
Fe132 O138 2.002 . S
Fe132 O143 1.976 . S
Fe132 O146 1.996 . S
Fe133 O134 1.918 . S
Fe133 O141 1.997 . S
Fe133 O144 1.996 . S
Fe133 O148 1.976 . S
Fe133 O151 2.002 . S
O134 Fe132 1.918 . S
O134 Fe133 1.918 . S
O134 Fe135 1.918 . S
Fe135 O134 1.918 . S
Fe135 O136 2.002 . S
Fe135 O145 1.976 . S
Fe135 O149 1.996 . S
Fe135 O152 1.997 . S
O136 Fe135 2.002 . S
O136 C153 1.295 . S
O137 Fe132 1.997 . S
O137 C153 1.235 . S
O138 Fe132 2.002 . S
O138 C139 1.295 . S
C139 O138 1.295 . S
C139 O141 1.235 . S
C140 O145 1.287 . S
C140 O146 1.255 . S
O141 Fe133 1.997 . S
O141 C139 1.235 . S
C142 O148 1.287 . S
C142 O149 1.255 . S
O143 Fe132 1.976 . S
O143 C150 1.287 . S
O144 Fe133 1.996 . S
O144 C150 1.255 . S
O145 Fe135 1.976 . S
O145 C140 1.287 . S
O146 Fe132 1.996 . S
O146 C140 1.255 . S
C147 O151 1.295 . S
C147 O152 1.235 . S
O148 Fe133 1.976 . S
O148 C142 1.287 . S
O149 Fe135 1.996 . S
O149 C142 1.255 . S
C150 O143 1.287 . S
C150 O144 1.255 . S
O151 Fe133 2.002 . S
O151 C147 1.295 . S
O152 Fe135 1.997 . S
O152 C147 1.235 . S
C153 O136 1.295 . S
C153 O137 1.235 . S
Fe154 O156 1.918 . S
Fe154 O159 1.997 . S
Fe154 O160 2.002 . S
Fe154 O165 1.976 . S
Fe154 O168 1.996 . S
Fe155 O156 1.918 . S
Fe155 O163 1.997 . S
Fe155 O166 1.996 . S
Fe155 O170 1.976 . S
Fe155 O173 2.002 . S
O156 Fe154 1.918 . S
O156 Fe155 1.918 . S
O156 Fe157 1.918 . S
Fe157 O156 1.918 . S
Fe157 O158 2.002 . S
Fe157 O167 1.976 . S
Fe157 O171 1.996 . S
Fe157 O174 1.997 . S
O158 Fe157 2.002 . S
O158 C175 1.295 . S
O159 Fe154 1.997 . S
O159 C175 1.235 . S
O160 Fe154 2.002 . S
O160 C161 1.295 . S
C161 O160 1.295 . S
C161 O163 1.235 . S
C162 O167 1.287 . S
C162 O168 1.255 . S
O163 Fe155 1.997 . S
O163 C161 1.235 . S
C164 O170 1.287 . S
C164 O171 1.255 . S
O165 Fe154 1.976 . S
O165 C172 1.287 . S
O166 Fe155 1.996 . S
O166 C172 1.255 . S
O167 Fe157 1.976 . S
O167 C162 1.287 . S
O168 Fe154 1.996 . S
O168 C162 1.255 . S
C169 O173 1.295 . S
C169 O174 1.235 . S
O170 Fe155 1.976 . S
O170 C164 1.287 . S
O171 Fe157 1.996 . S
O171 C164 1.255 . S
C172 O165 1.287 . S
C172 O166 1.255 . S
O173 Fe155 2.002 . S
O173 C169 1.295 . S
O174 Fe157 1.997 . S
O174 C169 1.235 . S
C175 O158 1.295 . S
C175 O159 1.235 . S
Fe176 O178 1.918 . S
Fe176 O181 1.997 . S
Fe176 O182 2.002 . S
Fe176 O187 1.976 . S
Fe176 O190 1.996 . S
Fe177 O178 1.918 . S
Fe177 O185 1.997 . S
Fe177 O188 1.996 . S
Fe177 O192 1.976 . S
Fe177 O195 2.002 . S
O178 Fe176 1.918 . S
O178 Fe177 1.918 . S
O178 Fe179 1.918 . S
Fe179 O178 1.918 . S
Fe179 O180 2.002 . S
Fe179 O189 1.976 . S
Fe179 O193 1.996 . S
Fe179 O196 1.997 . S
O180 Fe179 2.002 . S
O180 C197 1.295 . S
O181 Fe176 1.997 . S
O181 C197 1.235 . S
O182 Fe176 2.002 . S
O182 C183 1.295 . S
C183 O182 1.295 . S
C183 O185 1.235 . S
C184 O189 1.287 . S
C184 O190 1.255 . S
O185 Fe177 1.997 . S
O185 C183 1.235 . S
C186 O192 1.287 . S
C186 O193 1.255 . S
O187 Fe176 1.976 . S
O187 C194 1.287 . S
O188 Fe177 1.996 . S
O188 C194 1.255 . S
O189 Fe179 1.976 . S
O189 C184 1.287 . S
O190 Fe176 1.996 . S
O190 C184 1.255 . S
C191 O195 1.295 . S
C191 O196 1.235 . S
O192 Fe177 1.976 . S
O192 C186 1.287 . S
O193 Fe179 1.996 . S
O193 C186 1.255 . S
C194 O187 1.287 . S
C194 O188 1.255 . S
O195 Fe177 2.002 . S
O195 C191 1.295 . S
O196 Fe179 1.997 . S
O196 C191 1.235 . S
C197 O180 1.295 . S
C197 O181 1.235 . S
Fe198 O200 1.918 . S
Fe198 O203 1.997 . S
Fe198 O204 2.002 . S
Fe198 O209 1.976 . S
Fe198 O212 1.996 . S
Fe199 O200 1.918 . S
Fe199 O207 1.997 . S
Fe199 O210 1.996 . S
Fe199 O214 1.976 . S
Fe199 O217 2.002 . S
O200 Fe198 1.918 . S
O200 Fe199 1.918 . S
O200 Fe201 1.918 . S
Fe201 O200 1.918 . S
Fe201 O202 2.002 . S
Fe201 O211 1.976 . S
Fe201 O215 1.996 . S
Fe201 O218 1.997 . S
O202 Fe201 2.002 . S
O202 C219 1.295 . S
O203 Fe198 1.997 . S
O203 C219 1.235 . S
O204 Fe198 2.002 . S
O204 C205 1.295 . S
C205 O204 1.295 . S
C205 O207 1.235 . S
C206 O211 1.287 . S
C206 O212 1.255 . S
O207 Fe199 1.997 . S
O207 C205 1.235 . S
C208 O214 1.287 . S
C208 O215 1.255 . S
O209 Fe198 1.976 . S
O209 C216 1.287 . S
O210 Fe199 1.996 . S
O210 C216 1.255 . S
O211 Fe201 1.976 . S
O211 C206 1.287 . S
O212 Fe198 1.996 . S
O212 C206 1.255 . S
C213 O217 1.295 . S
C213 O218 1.235 . S
O214 Fe199 1.976 . S
O214 C208 1.287 . S
O215 Fe201 1.996 . S
O215 C208 1.255 . S
C216 O209 1.287 . S
C216 O210 1.255 . S
O217 Fe199 2.002 . S
O217 C213 1.295 . S
O218 Fe201 1.997 . S
O218 C213 1.235 . S
C219 O202 1.295 . S
C219 O203 1.235 . S
Fe220 O222 1.918 . S
Fe220 O225 1.997 . S
Fe220 O226 2.002 . S
Fe220 O231 1.976 . S
Fe220 O234 1.996 . S
Fe221 O222 1.918 . S
Fe221 O229 1.997 . S
Fe221 O232 1.996 . S
Fe221 O236 1.976 . S
Fe221 O239 2.002 . S
O222 Fe220 1.918 . S
O222 Fe221 1.918 . S
O222 Fe223 1.918 . S
Fe223 O222 1.918 . S
Fe223 O224 2.002 . S
Fe223 O233 1.976 . S
Fe223 O237 1.996 . S
Fe223 O240 1.997 . S
O224 Fe223 2.002 . S
O224 C241 1.295 . S
O225 Fe220 1.997 . S
O225 C241 1.235 . S
O226 Fe220 2.002 . S
O226 C227 1.295 . S
C227 O226 1.295 . S
C227 O229 1.235 . S
C228 O233 1.287 . S
C228 O234 1.255 . S
O229 Fe221 1.997 . S
O229 C227 1.235 . S
C230 O236 1.287 . S
C230 O237 1.255 . S
O231 Fe220 1.976 . S
O231 C238 1.287 . S
O232 Fe221 1.996 . S
O232 C238 1.255 . S
O233 Fe223 1.976 . S
O233 C228 1.287 . S
O234 Fe220 1.996 . S
O234 C228 1.255 . S
C235 O239 1.295 . S
C235 O240 1.235 . S
O236 Fe221 1.976 . S
O236 C230 1.287 . S
O237 Fe223 1.996 . S
O237 C230 1.255 . S
C238 O231 1.287 . S
C238 O232 1.255 . S
O239 Fe221 2.002 . S
O239 C235 1.295 . S
O240 Fe223 1.997 . S
O240 C235 1.235 . S
C241 O224 1.295 . S
C241 O225 1.235 . S
Fe242 O244 1.918 . S
Fe242 O247 1.997 . S
Fe242 O248 2.002 . S
Fe242 O253 1.976 . S
Fe242 O256 1.996 . S
Fe243 O244 1.918 . S
Fe243 O251 1.997 . S
Fe243 O254 1.996 . S
Fe243 O258 1.976 . S
Fe243 O261 2.002 . S
O244 Fe242 1.918 . S
O244 Fe243 1.918 . S
O244 Fe245 1.918 . S
Fe245 O244 1.918 . S
Fe245 O246 2.002 . S
Fe245 O255 1.976 . S
Fe245 O259 1.996 . S
Fe245 O262 1.997 . S
O246 Fe245 2.002 . S
O246 C263 1.295 . S
O247 Fe242 1.997 . S
O247 C263 1.235 . S
O248 Fe242 2.002 . S
O248 C249 1.295 . S
C249 O248 1.295 . S
C249 O251 1.235 . S
C250 O255 1.287 . S
C250 O256 1.255 . S
O251 Fe243 1.997 . S
O251 C249 1.235 . S
C252 O258 1.287 . S
C252 O259 1.255 . S
O253 Fe242 1.976 . S
O253 C260 1.287 . S
O254 Fe243 1.996 . S
O254 C260 1.255 . S
O255 Fe245 1.976 . S
O255 C250 1.287 . S
O256 Fe242 1.996 . S
O256 C250 1.255 . S
C257 O261 1.295 . S
C257 O262 1.235 . S
O258 Fe243 1.976 . S
O258 C252 1.287 . S
O259 Fe245 1.996 . S
O259 C252 1.255 . S
C260 O253 1.287 . S
C260 O254 1.255 . S
O261 Fe243 2.002 . S
O261 C257 1.295 . S
O262 Fe245 1.997 . S
O262 C257 1.235 . S
C263 O246 1.295 . S
C263 O247 1.235 . S
Fe264 O266 1.918 . S
Fe264 O269 1.997 . S
Fe264 O270 2.002 . S
Fe264 O275 1.976 . S
Fe264 O278 1.996 . S
Fe265 O266 1.918 . S
Fe265 O273 1.997 . S
Fe265 O276 1.996 . S
Fe265 O280 1.976 . S
Fe265 O283 2.002 . S
O266 Fe264 1.918 . S
O266 Fe265 1.918 . S
O266 Fe267 1.918 . S
Fe267 O266 1.918 . S
Fe267 O268 2.002 . S
Fe267 O277 1.976 . S
Fe267 O281 1.996 . S
Fe267 O284 1.997 . S
O268 Fe267 2.002 . S
O268 C285 1.295 . S
O269 Fe264 1.997 . S
O269 C285 1.235 . S
O270 Fe264 2.002 . S
O270 C271 1.295 . S
C271 O270 1.295 . S
C271 O273 1.235 . S
C272 O277 1.287 . S
C272 O278 1.255 . S
O273 Fe265 1.997 . S
O273 C271 1.235 . S
C274 O280 1.287 . S
C274 O281 1.255 . S
O275 Fe264 1.976 . S
O275 C282 1.287 . S
O276 Fe265 1.996 . S
O276 C282 1.255 . S
O277 Fe267 1.976 . S
O277 C272 1.287 . S
O278 Fe264 1.996 . S
O278 C272 1.255 . S
C279 O283 1.295 . S
C279 O284 1.235 . S
O280 Fe265 1.976 . S
O280 C274 1.287 . S
O281 Fe267 1.996 . S
O281 C274 1.255 . S
C282 O275 1.287 . S
C282 O276 1.255 . S
O283 Fe265 2.002 . S
O283 C279 1.295 . S
O284 Fe267 1.997 . S
O284 C279 1.235 . S
C285 O268 1.295 . S
C285 O269 1.235 . S
Fe286 O288 1.918 . S
Fe286 O291 1.997 . S
Fe286 O292 2.002 . S
Fe286 O297 1.976 . S
Fe286 O300 1.996 . S
Fe287 O288 1.918 . S
Fe287 O295 1.997 . S
Fe287 O298 1.996 . S
Fe287 O302 1.976 . S
Fe287 O305 2.002 . S
O288 Fe286 1.918 . S
O288 Fe287 1.918 . S
O288 Fe289 1.918 . S
Fe289 O288 1.918 . S
Fe289 O290 2.002 . S
Fe289 O299 1.976 . S
Fe289 O303 1.996 . S
Fe289 O306 1.997 . S
O290 Fe289 2.002 . S
O290 C307 1.295 . S
O291 Fe286 1.997 . S
O291 C307 1.235 . S
O292 Fe286 2.002 . S
O292 C293 1.295 . S
C293 O292 1.295 . S
C293 O295 1.235 . S
C294 O299 1.287 . S
C294 O300 1.255 . S
O295 Fe287 1.997 . S
O295 C293 1.235 . S
C296 O302 1.287 . S
C296 O303 1.255 . S
O297 Fe286 1.976 . S
O297 C304 1.287 . S
O298 Fe287 1.996 . S
O298 C304 1.255 . S
O299 Fe289 1.976 . S
O299 C294 1.287 . S
O300 Fe286 1.996 . S
O300 C294 1.255 . S
C301 O305 1.295 . S
C301 O306 1.235 . S
O302 Fe287 1.976 . S
O302 C296 1.287 . S
O303 Fe289 1.996 . S
O303 C296 1.255 . S
C304 O297 1.287 . S
C304 O298 1.255 . S
O305 Fe287 2.002 . S
O305 C301 1.295 . S
O306 Fe289 1.997 . S
O306 C301 1.235 . S
C307 O290 1.295 . S
C307 O291 1.235 . S
Fe308 O310 1.918 . S
Fe308 O313 1.997 . S
Fe308 O314 2.002 . S
Fe308 O319 1.976 . S
Fe308 O322 1.996 . S
Fe309 O310 1.918 . S
Fe309 O317 1.997 . S
Fe309 O320 1.996 . S
Fe309 O324 1.976 . S
Fe309 O327 2.002 . S
O310 Fe308 1.918 . S
O310 Fe309 1.918 . S
O310 Fe311 1.918 . S
Fe311 O310 1.918 . S
Fe311 O312 2.002 . S
Fe311 O321 1.976 . S
Fe311 O325 1.996 . S
Fe311 O328 1.997 . S
O312 Fe311 2.002 . S
O312 C329 1.295 . S
O313 Fe308 1.997 . S
O313 C329 1.235 . S
O314 Fe308 2.002 . S
O314 C315 1.295 . S
C315 O314 1.295 . S
C315 O317 1.235 . S
C316 O321 1.287 . S
C316 O322 1.255 . S
O317 Fe309 1.997 . S
O317 C315 1.235 . S
C318 O324 1.287 . S
C318 O325 1.255 . S
O319 Fe308 1.976 . S
O319 C326 1.287 . S
O320 Fe309 1.996 . S
O320 C326 1.255 . S
O321 Fe311 1.976 . S
O321 C316 1.287 . S
O322 Fe308 1.996 . S
O322 C316 1.255 . S
C323 O327 1.295 . S
C323 O328 1.235 . S
O324 Fe309 1.976 . S
O324 C318 1.287 . S
O325 Fe311 1.996 . S
O325 C318 1.255 . S
C326 O319 1.287 . S
C326 O320 1.255 . S
O327 Fe309 2.002 . S
O327 C323 1.295 . S
O328 Fe311 1.997 . S
O328 C323 1.235 . S
C329 O312 1.295 . S
C329 O313 1.235 . S
Fe330 O332 1.918 . S
Fe330 O335 1.997 . S
Fe330 O336 2.002 . S
Fe330 O341 1.976 . S
Fe330 O344 1.996 . S
Fe331 O332 1.918 . S
Fe331 O339 1.997 . S
Fe331 O342 1.996 . S
Fe331 O346 1.976 . S
Fe331 O349 2.002 . S
O332 Fe330 1.918 . S
O332 Fe331 1.918 . S
O332 Fe333 1.918 . S
Fe333 O332 1.918 . S
Fe333 O334 2.002 . S
Fe333 O343 1.976 . S
Fe333 O347 1.996 . S
Fe333 O350 1.997 . S
O334 Fe333 2.002 . S
O334 C351 1.295 . S
O335 Fe330 1.997 . S
O335 C351 1.235 . S
O336 Fe330 2.002 . S
O336 C337 1.295 . S
C337 O336 1.295 . S
C337 O339 1.235 . S
C338 O343 1.287 . S
C338 O344 1.255 . S
O339 Fe331 1.997 . S
O339 C337 1.235 . S
C340 O346 1.287 . S
C340 O347 1.255 . S
O341 Fe330 1.976 . S
O341 C348 1.287 . S
O342 Fe331 1.996 . S
O342 C348 1.255 . S
O343 Fe333 1.976 . S
O343 C338 1.287 . S
O344 Fe330 1.996 . S
O344 C338 1.255 . S
C345 O349 1.295 . S
C345 O350 1.235 . S
O346 Fe331 1.976 . S
O346 C340 1.287 . S
O347 Fe333 1.996 . S
O347 C340 1.255 . S
C348 O341 1.287 . S
C348 O342 1.255 . S
O349 Fe331 2.002 . S
O349 C345 1.295 . S
O350 Fe333 1.997 . S
O350 C345 1.235 . S
C351 O334 1.295 . S
C351 O335 1.235 . S
H352 C370 0.951 . S
H353 C372 0.951 . S
H354 C374 0.950 . S
H355 C375 0.950 . S
H356 C377 0.950 . S
H357 C380 0.950 . S
H358 C381 0.950 . S
H359 C383 0.950 . S
H360 C384 0.950 1_556 S
H361 C385 0.951 . S
H362 C387 0.951 . S
H363 C389 0.950 . S
H364 C390 0.950 . S
H365 C392 0.950 . S
H366 C395 0.950 . S
H367 C396 0.950 . S
H368 C398 0.950 . S
H369 C399 0.950 1_554 S
C370 H352 0.951 . S
C370 C371 1.366 . S
C370 C372 1.388 . S
C371 C370 1.366 . S
C371 C375 1.385 . S
C372 H353 0.951 . S
C372 C370 1.388 . S
C372 C373 1.366 . S
C373 C372 1.366 . S
C373 C374 1.414 . S
C373 C376 1.499 . S
C374 H354 0.950 . S
C374 C373 1.414 . S
C374 C375 1.374 . S
C375 H355 0.950 . S
C375 C371 1.385 . S
C375 C374 1.374 . S
C376 C373 1.499 . S
C376 C377 1.373 . S
C376 C378 1.389 . S
C377 H356 0.950 . S
C377 C376 1.373 . S
C377 C393 1.377 1_554 S
C378 C376 1.389 . S
C378 C379 1.524 . S
C378 C392 1.377 1_554 S
C379 C378 1.524 . S
C379 C380 1.397 . S
C379 C384 1.363 . S
C380 H357 0.950 . S
C380 C379 1.397 . S
C380 C381 1.334 . S
C381 H358 0.950 . S
C381 C380 1.334 . S
C381 C382 1.287 . S
C382 C381 1.287 . S
C382 C383 1.524 . S
C382 H401 0.913 . S
C383 H359 0.950 . S
C383 C382 1.524 . S
C383 C384 1.415 . S
C384 H360 0.950 1_554 S
C384 C379 1.363 . S
C384 C383 1.415 . S
C385 H361 0.951 . S
C385 C386 1.366 . S
C385 C387 1.388 . S
C386 C385 1.366 . S
C386 C390 1.385 . S
C387 H362 0.951 . S
C387 C385 1.388 . S
C387 C388 1.366 . S
C388 C387 1.366 . S
C388 C389 1.414 . S
C388 C391 1.499 . S
C389 H363 0.950 . S
C389 C388 1.414 . S
C389 C390 1.374 . S
C390 H364 0.950 . S
C390 C386 1.385 . S
C390 C389 1.374 . S
C391 C388 1.499 . S
C391 C392 1.373 . S
C391 C393 1.389 . S
C392 H365 0.950 . S
C392 C378 1.377 1_556 S
C392 C391 1.373 . S
C393 C377 1.377 1_556 S
C393 C391 1.389 . S
C393 C394 1.524 . S
C394 C393 1.524 . S
C394 C395 1.397 . S
C394 C399 1.363 . S
C395 H366 0.950 . S
C395 C394 1.397 . S
C395 C396 1.334 . S
C396 H367 0.950 . S
C396 C395 1.334 . S
C396 C397 1.287 . S
C397 C396 1.287 . S
C397 C398 1.524 . S
C397 H400 0.999 . S
C398 H368 0.950 . S
C398 C397 1.524 . S
C398 C399 1.415 . S
C399 H369 0.950 1_556 S
C399 C394 1.363 . S
C399 C398 1.415 . S
H400 C397 0.999 . S
H401 C382 0.913 . S
H402 C420 0.951 . S
H403 C422 0.951 . S
H404 C424 0.950 . S
H405 C425 0.950 . S
H406 C427 0.950 . S
H407 C430 0.950 . S
H408 C431 0.950 . S
H409 C433 0.950 . S
H410 C434 0.950 . S
H411 C435 0.951 . S
H412 C437 0.951 . S
H413 C439 0.950 . S
H414 C440 0.950 . S
H415 C442 0.950 . S
H416 C445 0.950 . S
H417 C446 0.950 . S
H418 C448 0.950 . S
H419 C449 0.950 . S
C420 H402 0.951 . S
C420 C421 1.366 . S
C420 C422 1.388 . S
C421 C420 1.366 . S
C421 C425 1.385 . S
C422 H403 0.951 . S
C422 C420 1.388 . S
C422 C423 1.366 . S
C423 C422 1.366 . S
C423 C424 1.414 . S
C423 C426 1.499 . S
C424 H404 0.950 . S
C424 C423 1.414 . S
C424 C425 1.374 . S
C425 H405 0.950 . S
C425 C421 1.385 . S
C425 C424 1.374 . S
C426 C423 1.499 . S
C426 C427 1.373 . S
C426 C428 1.389 . S
C427 H406 0.950 . S
C427 C426 1.373 . S
C427 C443 1.377 . S
C428 C426 1.389 . S
C428 C429 1.524 . S
C428 C442 1.377 . S
C429 C428 1.524 . S
C429 C430 1.397 . S
C429 C434 1.363 . S
C430 H407 0.950 . S
C430 C429 1.397 . S
C430 C431 1.334 . S
C431 H408 0.950 . S
C431 C430 1.334 . S
C431 C432 1.287 . S
C432 C431 1.287 . S
C432 C433 1.524 . S
C432 H451 0.913 . S
C433 H409 0.950 . S
C433 C432 1.524 . S
C433 C434 1.415 . S
C434 H410 0.950 . S
C434 C429 1.363 . S
C434 C433 1.415 . S
C435 H411 0.951 . S
C435 C436 1.366 . S
C435 C437 1.388 . S
C436 C435 1.366 . S
C436 C440 1.385 . S
C437 H412 0.951 . S
C437 C435 1.388 . S
C437 C438 1.366 . S
C438 C437 1.366 . S
C438 C439 1.414 . S
C438 C441 1.499 . S
C439 H413 0.950 . S
C439 C438 1.414 . S
C439 C440 1.374 . S
C440 H414 0.950 . S
C440 C436 1.385 . S
C440 C439 1.374 . S
C441 C438 1.499 . S
C441 C442 1.373 . S
C441 C443 1.389 . S
C442 H415 0.950 . S
C442 C428 1.377 . S
C442 C441 1.373 . S
C443 C427 1.377 . S
C443 C441 1.389 . S
C443 C444 1.524 . S
C444 C443 1.524 . S
C444 C445 1.397 . S
C444 C449 1.363 . S
C445 H416 0.950 . S
C445 C444 1.397 . S
C445 C446 1.334 . S
C446 H417 0.950 . S
C446 C445 1.334 . S
C446 C447 1.287 . S
C447 C446 1.287 . S
C447 C448 1.524 . S
C447 H450 0.999 . S
C448 H418 0.950 . S
C448 C447 1.524 . S
C448 C449 1.415 . S
C449 H419 0.950 . S
C449 C444 1.363 . S
C449 C448 1.415 . S
H450 C447 0.999 . S
H451 C432 0.913 . S
H452 C470 0.951 . S
H453 C472 0.951 . S
H454 C474 0.950 . S
H455 C475 0.950 . S
H456 C477 0.950 . S
H457 C480 0.950 . S
H458 C481 0.950 . S
H459 C483 0.950 . S
H460 C484 0.950 . S
H461 C485 0.951 . S
H462 C487 0.951 . S
H463 C489 0.950 . S
H464 C490 0.950 . S
H465 C492 0.950 . S
H466 C495 0.950 . S
H467 C496 0.950 . S
H468 C498 0.950 . S
H469 C499 0.950 . S
C470 H452 0.951 . S
C470 C471 1.366 . S
C470 C472 1.388 . S
C471 C470 1.366 . S
C471 C475 1.385 . S
C472 H453 0.951 . S
C472 C470 1.388 . S
C472 C473 1.366 . S
C473 C472 1.366 . S
C473 C474 1.414 . S
C473 C476 1.499 . S
C474 H454 0.950 . S
C474 C473 1.414 . S
C474 C475 1.374 . S
C475 H455 0.950 . S
C475 C471 1.385 . S
C475 C474 1.374 . S
C476 C473 1.499 . S
C476 C477 1.373 . S
C476 C478 1.389 . S
C477 H456 0.950 . S
C477 C476 1.373 . S
C477 C493 1.377 1_554 S
C478 C476 1.389 . S
C478 C479 1.524 . S
C478 C492 1.377 1_554 S
C479 C478 1.524 . S
C479 C480 1.397 . S
C479 C484 1.363 . S
C480 H457 0.950 . S
C480 C479 1.397 . S
C480 C481 1.334 . S
C481 H458 0.950 . S
C481 C480 1.334 . S
C481 C482 1.287 . S
C482 C481 1.287 . S
C482 C483 1.524 . S
C482 H501 0.913 . S
C483 H459 0.950 . S
C483 C482 1.524 . S
C483 C484 1.415 . S
C484 H460 0.950 . S
C484 C479 1.363 . S
C484 C483 1.415 . S
C485 H461 0.951 . S
C485 C486 1.366 . S
C485 C487 1.388 . S
C486 C485 1.366 . S
C486 C490 1.385 . S
C487 H462 0.951 . S
C487 C485 1.388 . S
C487 C488 1.366 . S
C488 C487 1.366 . S
C488 C489 1.414 . S
C488 C491 1.499 . S
C489 H463 0.950 . S
C489 C488 1.414 . S
C489 C490 1.374 . S
C490 H464 0.950 . S
C490 C486 1.385 . S
C490 C489 1.374 . S
C491 C488 1.499 . S
C491 C492 1.373 . S
C491 C493 1.389 . S
C492 H465 0.950 . S
C492 C478 1.377 1_556 S
C492 C491 1.373 . S
C493 C477 1.377 1_556 S
C493 C491 1.389 . S
C493 C494 1.524 . S
C494 C493 1.524 . S
C494 C495 1.397 . S
C494 C499 1.363 . S
C495 H466 0.950 . S
C495 C494 1.397 . S
C495 C496 1.334 . S
C496 H467 0.950 . S
C496 C495 1.334 . S
C496 C497 1.287 . S
C497 C496 1.287 . S
C497 C498 1.524 . S
C497 H500 0.999 . S
C498 H468 0.950 . S
C498 C497 1.524 . S
C498 C499 1.415 . S
C499 H469 0.950 . S
C499 C494 1.363 . S
C499 C498 1.415 . S
H500 C497 0.999 . S
H501 C482 0.913 . S
H502 C520 0.951 . S
H503 C522 0.951 . S
H504 C524 0.950 . S
H505 C525 0.950 . S
H506 C527 0.950 . S
H507 C530 0.950 . S
H508 C531 0.950 . S
H509 C533 0.950 . S
H510 C534 0.950 . S
H511 C535 0.951 . S
H512 C537 0.951 . S
H513 C539 0.950 . S
H514 C540 0.950 . S
H515 C542 0.950 . S
H516 C545 0.950 . S
H517 C546 0.950 . S
H518 C548 0.950 . S
H519 C549 0.950 . S
C520 H502 0.951 . S
C520 C521 1.366 . S
C520 C522 1.388 . S
C521 C520 1.366 . S
C521 C525 1.385 . S
C522 H503 0.951 . S
C522 C520 1.388 . S
C522 C523 1.366 . S
C523 C522 1.366 . S
C523 C524 1.414 . S
C523 C526 1.499 . S
C524 H504 0.950 . S
C524 C523 1.414 . S
C524 C525 1.374 . S
C525 H505 0.950 . S
C525 C521 1.385 . S
C525 C524 1.374 . S
C526 C523 1.499 . S
C526 C527 1.373 . S
C526 C528 1.389 . S
C527 H506 0.950 . S
C527 C526 1.373 . S
C527 C543 1.377 . S
C528 C526 1.389 . S
C528 C529 1.524 . S
C528 C542 1.377 . S
C529 C528 1.524 . S
C529 C530 1.397 . S
C529 C534 1.363 . S
C530 H507 0.950 . S
C530 C529 1.397 . S
C530 C531 1.334 . S
C531 H508 0.950 . S
C531 C530 1.334 . S
C531 C532 1.287 . S
C532 C531 1.287 . S
C532 C533 1.524 . S
C532 H551 0.913 . S
C533 H509 0.950 . S
C533 C532 1.524 . S
C533 C534 1.415 . S
C534 H510 0.950 . S
C534 C529 1.363 . S
C534 C533 1.415 . S
C535 H511 0.951 . S
C535 C536 1.366 . S
C535 C537 1.388 . S
C536 C535 1.366 . S
C536 C540 1.385 . S
C537 H512 0.951 . S
C537 C535 1.388 . S
C537 C538 1.366 . S
C538 C537 1.366 . S
C538 C539 1.414 . S
C538 C541 1.499 . S
C539 H513 0.950 . S
C539 C538 1.414 . S
C539 C540 1.374 . S
C540 H514 0.950 . S
C540 C536 1.385 . S
C540 C539 1.374 . S
C541 C538 1.499 . S
C541 C542 1.373 . S
C541 C543 1.389 . S
C542 H515 0.950 . S
C542 C528 1.377 . S
C542 C541 1.373 . S
C543 C527 1.377 . S
C543 C541 1.389 . S
C543 C544 1.524 . S
C544 C543 1.524 . S
C544 C545 1.397 . S
C544 C549 1.363 . S
C545 H516 0.950 . S
C545 C544 1.397 . S
C545 C546 1.334 . S
C546 H517 0.950 . S
C546 C545 1.334 . S
C546 C547 1.287 . S
C547 C546 1.287 . S
C547 C548 1.524 . S
C547 H550 0.999 . S
C548 H518 0.950 . S
C548 C547 1.524 . S
C548 C549 1.415 . S
C549 H519 0.950 . S
C549 C544 1.363 . S
C549 C548 1.415 . S
H550 C547 0.999 . S
H551 C532 0.913 . S
H552 C570 0.951 . S
H553 C572 0.951 . S
H554 C574 0.950 . S
H555 C575 0.950 . S
H556 C577 0.950 . S
H557 C580 0.950 . S
H558 C581 0.950 . S
H559 C583 0.950 . S
H560 C584 0.950 . S
H561 C585 0.951 . S
H562 C587 0.951 . S
H563 C589 0.950 . S
H564 C590 0.950 . S
H565 C592 0.950 . S
H566 C595 0.950 . S
H567 C596 0.950 . S
H568 C598 0.950 . S
H569 C599 0.950 . S
C570 H552 0.951 . S
C570 C571 1.366 . S
C570 C572 1.388 . S
C571 C570 1.366 . S
C571 C575 1.385 . S
C572 H553 0.951 . S
C572 C570 1.388 . S
C572 C573 1.366 . S
C573 C572 1.366 . S
C573 C574 1.414 . S
C573 C576 1.499 . S
C574 H554 0.950 . S
C574 C573 1.414 . S
C574 C575 1.374 . S
C575 H555 0.950 . S
C575 C571 1.385 . S
C575 C574 1.374 . S
C576 C573 1.499 . S
C576 C577 1.373 . S
C576 C578 1.413 . S
C577 H556 0.950 . S
C577 C576 1.373 . S
C577 C593 1.331 1_556 S
C578 C576 1.413 . S
C578 C579 1.523 1_556 S
C578 C592 1.353 1_556 S
C579 C578 1.523 1_554 S
C579 C580 1.389 1_554 S
C579 C584 1.374 . S
C580 H557 0.950 . S
C580 C579 1.389 1_556 S
C580 C581 1.334 . S
C581 H558 0.950 . S
C581 C580 1.334 . S
C581 C582 1.287 1_556 S
C582 C581 1.287 1_554 S
C582 C583 1.524 . S
C582 H601 0.913 . S
C583 H559 0.950 . S
C583 C582 1.524 . S
C583 C584 1.415 . S
C584 H560 0.950 . S
C584 C579 1.374 . S
C584 C583 1.415 . S
C585 H561 0.951 . S
C585 C586 1.366 . S
C585 C587 1.388 . S
C586 C585 1.366 . S
C586 C590 1.385 . S
C587 H562 0.951 . S
C587 C585 1.388 . S
C587 C588 1.366 . S
C588 C587 1.366 . S
C588 C589 1.414 . S
C588 C591 1.499 . S
C589 H563 0.950 . S
C589 C588 1.414 . S
C589 C590 1.374 . S
C590 H564 0.950 . S
C590 C586 1.385 . S
C590 C589 1.374 . S
C591 C588 1.499 . S
C591 C592 1.373 . S
C591 C593 1.434 . S
C592 H565 0.950 . S
C592 C578 1.353 1_554 S
C592 C591 1.373 . S
C593 C577 1.331 1_554 S
C593 C591 1.434 . S
C593 C594 1.523 1_554 S
C594 C593 1.523 1_556 S
C594 C595 1.396 1_556 S
C594 C599 1.364 . S
C595 H566 0.950 . S
C595 C594 1.396 1_554 S
C595 C596 1.334 . S
C596 H567 0.950 . S
C596 C595 1.334 . S
C596 C597 1.287 1_554 S
C597 C596 1.287 1_556 S
C597 C598 1.524 . S
C597 H600 0.999 . S
C598 H568 0.950 . S
C598 C597 1.524 . S
C598 C599 1.415 . S
C599 H569 0.950 . S
C599 C594 1.364 . S
C599 C598 1.415 . S
H600 C597 0.999 . S
H601 C582 0.913 . S
H602 C620 0.951 . S
H603 C622 0.951 . S
H604 C624 0.950 . S
H605 C625 0.950 . S
H606 C627 0.950 . S
H607 C630 0.950 . S
H608 C631 0.950 . S
H609 C633 0.950 . S
H610 C634 0.950 . S
H611 C635 0.951 . S
H612 C637 0.951 . S
H613 C639 0.950 . S
H614 C640 0.950 . S
H615 C642 0.950 . S
H616 C645 0.950 . S
H617 C646 0.950 . S
H618 C648 0.950 . S
H619 C649 0.950 . S
C620 H602 0.951 . S
C620 C621 1.366 . S
C620 C622 1.388 . S
C621 C620 1.366 . S
C621 C625 1.385 . S
C622 H603 0.951 . S
C622 C620 1.388 . S
C622 C623 1.366 . S
C623 C622 1.366 . S
C623 C624 1.414 . S
C623 C626 1.499 . S
C624 H604 0.950 . S
C624 C623 1.414 . S
C624 C625 1.374 . S
C625 H605 0.950 . S
C625 C621 1.385 . S
C625 C624 1.374 . S
C626 C623 1.499 . S
C626 C627 1.373 . S
C626 C628 1.389 . S
C627 H606 0.950 . S
C627 C626 1.373 . S
C627 C643 1.377 . S
C628 C626 1.389 . S
C628 C629 1.524 . S
C628 C642 1.377 . S
C629 C628 1.524 . S
C629 C630 1.397 . S
C629 C634 1.363 . S
C630 H607 0.950 . S
C630 C629 1.397 . S
C630 C631 1.334 . S
C631 H608 0.950 . S
C631 C630 1.334 . S
C631 C632 1.287 . S
C632 C631 1.287 . S
C632 C633 1.524 . S
C632 H651 0.913 . S
C633 H609 0.950 . S
C633 C632 1.524 . S
C633 C634 1.415 . S
C634 H610 0.950 . S
C634 C629 1.363 . S
C634 C633 1.415 . S
C635 H611 0.951 . S
C635 C636 1.366 . S
C635 C637 1.388 . S
C636 C635 1.366 . S
C636 C640 1.385 . S
C637 H612 0.951 . S
C637 C635 1.388 . S
C637 C638 1.366 . S
C638 C637 1.366 . S
C638 C639 1.414 . S
C638 C641 1.499 . S
C639 H613 0.950 . S
C639 C638 1.414 . S
C639 C640 1.374 . S
C640 H614 0.950 . S
C640 C636 1.385 . S
C640 C639 1.374 . S
C641 C638 1.499 . S
C641 C642 1.373 . S
C641 C643 1.389 . S
C642 H615 0.950 . S
C642 C628 1.377 . S
C642 C641 1.373 . S
C643 C627 1.377 . S
C643 C641 1.389 . S
C643 C644 1.524 . S
C644 C643 1.524 . S
C644 C645 1.397 . S
C644 C649 1.363 . S
C645 H616 0.950 . S
C645 C644 1.397 . S
C645 C646 1.334 . S
C646 H617 0.950 . S
C646 C645 1.334 . S
C646 C647 1.287 . S
C647 C646 1.287 . S
C647 C648 1.524 . S
C647 H650 0.999 . S
C648 H618 0.950 . S
C648 C647 1.524 . S
C648 C649 1.415 . S
C649 H619 0.950 . S
C649 C644 1.363 . S
C649 C648 1.415 . S
H650 C647 0.999 . S
H651 C632 0.913 . S
H652 C670 0.951 . S
H653 C672 0.951 . S
H654 C674 0.950 . S
H655 C675 0.950 . S
H656 C677 0.950 . S
H657 C680 0.950 . S
H658 C681 0.950 . S
H659 C683 0.950 . S
H660 C684 0.950 . S
H661 C685 0.951 . S
H662 C687 0.951 . S
H663 C689 0.950 . S
H664 C690 0.950 . S
H665 C692 0.950 . S
H666 C695 0.950 . S
H667 C696 0.950 . S
H668 C698 0.950 . S
H669 C699 0.950 . S
C670 H652 0.951 . S
C670 C671 1.366 . S
C670 C672 1.388 . S
C671 C670 1.366 . S
C671 C675 1.385 . S
C672 H653 0.951 . S
C672 C670 1.388 . S
C672 C673 1.366 . S
C673 C672 1.366 . S
C673 C674 1.414 . S
C673 C676 1.499 . S
C674 H654 0.950 . S
C674 C673 1.414 . S
C674 C675 1.374 . S
C675 H655 0.950 . S
C675 C671 1.385 . S
C675 C674 1.374 . S
C676 C673 1.499 . S
C676 C677 1.373 . S
C676 C678 1.389 . S
C677 H656 0.950 . S
C677 C676 1.373 . S
C677 C693 1.377 1_554 S
C678 C676 1.389 . S
C678 C679 1.524 . S
C678 C692 1.377 1_554 S
C679 C678 1.524 . S
C679 C680 1.397 . S
C679 C684 1.363 . S
C680 H657 0.950 . S
C680 C679 1.397 . S
C680 C681 1.334 . S
C681 H658 0.950 . S
C681 C680 1.334 . S
C681 C682 1.287 . S
C682 C681 1.287 . S
C682 C683 1.524 . S
C682 H701 0.913 . S
C683 H659 0.950 . S
C683 C682 1.524 . S
C683 C684 1.415 . S
C684 H660 0.950 . S
C684 C679 1.363 . S
C684 C683 1.415 . S
C685 H661 0.951 . S
C685 C686 1.366 . S
C685 C687 1.388 . S
C686 C685 1.366 . S
C686 C690 1.385 . S
C687 H662 0.951 . S
C687 C685 1.388 . S
C687 C688 1.366 . S
C688 C687 1.366 . S
C688 C689 1.414 . S
C688 C691 1.499 . S
C689 H663 0.950 . S
C689 C688 1.414 . S
C689 C690 1.374 . S
C690 H664 0.950 . S
C690 C686 1.385 . S
C690 C689 1.374 . S
C691 C688 1.499 . S
C691 C692 1.373 . S
C691 C693 1.389 . S
C692 H665 0.950 . S
C692 C678 1.377 1_556 S
C692 C691 1.373 . S
C693 C677 1.377 1_556 S
C693 C691 1.389 . S
C693 C694 1.524 . S
C694 C693 1.524 . S
C694 C695 1.397 . S
C694 C699 1.363 . S
C695 H666 0.950 . S
C695 C694 1.397 . S
C695 C696 1.334 . S
C696 H667 0.950 . S
C696 C695 1.334 . S
C696 C697 1.287 . S
C697 C696 1.287 . S
C697 C698 1.524 . S
C697 H700 0.999 . S
C698 H668 0.950 . S
C698 C697 1.524 . S
C698 C699 1.415 . S
C699 H669 0.950 . S
C699 C694 1.363 . S
C699 C698 1.415 . S
H700 C697 0.999 . S
H701 C682 0.913 . S
H702 C720 0.951 . S
H703 C722 0.951 . S
H704 C724 0.950 . S
H705 C725 0.950 . S
H706 C727 0.950 . S
H707 C730 0.950 . S
H708 C731 0.950 . S
H709 C733 0.950 . S
H710 C734 0.950 . S
H711 C735 0.951 . S
H712 C737 0.951 . S
H713 C739 0.950 . S
H714 C740 0.950 . S
H715 C742 0.950 . S
H716 C745 0.950 . S
H717 C746 0.950 . S
H718 C748 0.950 . S
H719 C749 0.950 . S
C720 H702 0.951 . S
C720 C721 1.366 . S
C720 C722 1.388 . S
C721 C720 1.366 . S
C721 C725 1.385 . S
C722 H703 0.951 . S
C722 C720 1.388 . S
C722 C723 1.366 . S
C723 C722 1.366 . S
C723 C724 1.414 . S
C723 C726 1.499 . S
C724 H704 0.950 . S
C724 C723 1.414 . S
C724 C725 1.374 . S
C725 H705 0.950 . S
C725 C721 1.385 . S
C725 C724 1.374 . S
C726 C723 1.499 . S
C726 C727 1.373 . S
C726 C728 1.389 . S
C727 H706 0.950 . S
C727 C726 1.373 . S
C727 C743 1.377 . S
C728 C726 1.389 . S
C728 C729 1.524 . S
C728 C742 1.377 . S
C729 C728 1.524 . S
C729 C730 1.397 . S
C729 C734 1.363 . S
C730 H707 0.950 . S
C730 C729 1.397 . S
C730 C731 1.334 . S
C731 H708 0.950 . S
C731 C730 1.334 . S
C731 C732 1.287 . S
C732 C731 1.287 . S
C732 C733 1.524 . S
C732 H751 0.913 . S
C733 H709 0.950 . S
C733 C732 1.524 . S
C733 C734 1.415 . S
C734 H710 0.950 . S
C734 C729 1.363 . S
C734 C733 1.415 . S
C735 H711 0.951 . S
C735 C736 1.366 . S
C735 C737 1.388 . S
C736 C735 1.366 . S
C736 C740 1.385 . S
C737 H712 0.951 . S
C737 C735 1.388 . S
C737 C738 1.366 . S
C738 C737 1.366 . S
C738 C739 1.414 . S
C738 C741 1.499 . S
C739 H713 0.950 . S
C739 C738 1.414 . S
C739 C740 1.374 . S
C740 H714 0.950 . S
C740 C736 1.385 . S
C740 C739 1.374 . S
C741 C738 1.499 . S
C741 C742 1.373 . S
C741 C743 1.389 . S
C742 H715 0.950 . S
C742 C728 1.377 . S
C742 C741 1.373 . S
C743 C727 1.377 . S
C743 C741 1.389 . S
C743 C744 1.524 . S
C744 C743 1.524 . S
C744 C745 1.397 . S
C744 C749 1.363 . S
C745 H716 0.950 . S
C745 C744 1.397 . S
C745 C746 1.334 . S
C746 H717 0.950 . S
C746 C745 1.334 . S
C746 C747 1.287 . S
C747 C746 1.287 . S
C747 C748 1.524 . S
C747 H750 0.999 . S
C748 H718 0.950 . S
C748 C747 1.524 . S
C748 C749 1.415 . S
C749 H719 0.950 . S
C749 C744 1.363 . S
C749 C748 1.415 . S
H750 C747 0.999 . S
H751 C732 0.913 . S
H752 C770 0.951 . S
H753 C772 0.951 . S
H754 C774 0.950 . S
H755 C775 0.950 . S
H756 C777 0.950 . S
H757 C780 0.950 . S
H758 C781 0.950 . S
H759 C783 0.950 . S
H760 C784 0.950 . S
H761 C785 0.951 . S
H762 C787 0.951 . S
H763 C789 0.950 . S
H764 C790 0.950 . S
H765 C792 0.950 . S
H766 C795 0.950 . S
H767 C796 0.950 . S
H768 C798 0.950 . S
H769 C799 0.950 . S
C770 H752 0.951 . S
C770 C771 1.366 . S
C770 C772 1.388 . S
C771 C770 1.366 . S
C771 C775 1.385 . S
C772 H753 0.951 . S
C772 C770 1.388 . S
C772 C773 1.366 . S
C773 C772 1.366 . S
C773 C774 1.414 . S
C773 C776 1.499 . S
C774 H754 0.950 . S
C774 C773 1.414 . S
C774 C775 1.374 . S
C775 H755 0.950 . S
C775 C771 1.385 . S
C775 C774 1.374 . S
C776 C773 1.499 . S
C776 C777 1.373 1_565 S
C776 C778 1.389 . S
C777 H756 0.950 . S
C777 C776 1.373 1_545 S
C777 C793 1.377 1_556 S
C778 C776 1.389 . S
C778 C779 1.524 . S
C778 C792 1.377 1_556 S
C779 C778 1.524 . S
C779 C780 1.397 . S
C779 C784 1.363 1_556 S
C780 H757 0.950 . S
C780 C779 1.397 . S
C780 C781 1.334 . S
C781 H758 0.950 . S
C781 C780 1.334 . S
C781 C782 1.287 . S
C782 C781 1.287 . S
C782 C783 1.524 1_556 S
C782 H801 0.913 . S
C783 H759 0.950 . S
C783 C782 1.524 1_554 S
C783 C784 1.415 . S
C784 H760 0.950 . S
C784 C779 1.363 1_554 S
C784 C783 1.415 . S
C785 H761 0.951 . S
C785 C786 1.366 . S
C785 C787 1.388 . S
C786 C785 1.366 . S
C786 C790 1.385 . S
C787 H762 0.951 . S
C787 C785 1.388 . S
C787 C788 1.366 . S
C788 C787 1.366 . S
C788 C789 1.414 . S
C788 C791 1.499 . S
C789 H763 0.950 . S
C789 C788 1.414 . S
C789 C790 1.374 . S
C790 H764 0.950 . S
C790 C786 1.385 . S
C790 C789 1.374 . S
C791 C788 1.499 . S
C791 C792 1.373 1_545 S
C791 C793 1.389 . S
C792 H765 0.950 . S
C792 C778 1.377 1_554 S
C792 C791 1.373 1_565 S
C793 C777 1.377 1_554 S
C793 C791 1.389 . S
C793 C794 1.524 . S
C794 C793 1.524 . S
C794 C795 1.397 . S
C794 C799 1.363 1_554 S
C795 H766 0.950 . S
C795 C794 1.397 . S
C795 C796 1.334 . S
C796 H767 0.950 . S
C796 C795 1.334 . S
C796 C797 1.287 . S
C797 C796 1.287 . S
C797 C798 1.524 1_554 S
C797 H800 0.999 . S
C798 H768 0.950 . S
C798 C797 1.524 1_556 S
C798 C799 1.415 . S
C799 H769 0.950 . S
C799 C794 1.363 1_556 S
C799 C798 1.415 . S
H800 C797 0.999 . S
H801 C782 0.913 . S
H802 C820 0.951 . S
H803 C822 0.951 . S
H804 C824 0.950 . S
H805 C825 0.950 . S
H806 C827 0.950 . S
H807 C830 0.950 1_565 S
H808 C831 0.950 . S
H809 C833 0.950 . S
H810 C834 0.950 . S
H811 C835 0.951 . S
H812 C837 0.951 . S
H813 C839 0.950 . S
H814 C840 0.950 . S
H815 C842 0.950 . S
H816 C845 0.950 1_545 S
H817 C846 0.950 . S
H818 C848 0.950 . S
H819 C849 0.950 . S
C820 H802 0.951 . S
C820 C821 1.366 . S
C820 C822 1.388 . S
C821 C820 1.366 . S
C821 C825 1.385 . S
C822 H803 0.951 . S
C822 C820 1.388 . S
C822 C823 1.366 . S
C823 C822 1.366 . S
C823 C824 1.414 . S
C823 C826 1.499 . S
C824 H804 0.950 . S
C824 C823 1.414 . S
C824 C825 1.374 . S
C825 H805 0.950 . S
C825 C821 1.385 . S
C825 C824 1.374 . S
C826 C823 1.499 . S
C826 C827 1.373 . S
C826 C828 1.389 1_565 S
C827 H806 0.950 . S
C827 C826 1.373 . S
C827 C843 1.377 . S
C828 C826 1.389 1_545 S
C828 C829 1.524 . S
C828 C842 1.377 . S
C829 C828 1.524 . S
C829 C830 1.397 . S
C829 C834 1.363 . S
C830 H807 0.950 1_545 S
C830 C829 1.397 . S
C830 C831 1.334 . S
C831 H808 0.950 . S
C831 C830 1.334 . S
C831 C832 1.287 . S
C832 C831 1.287 . S
C832 C833 1.524 . S
C832 H851 0.913 . S
C833 H809 0.950 . S
C833 C832 1.524 . S
C833 C834 1.415 . S
C834 H810 0.950 . S
C834 C829 1.363 . S
C834 C833 1.415 . S
C835 H811 0.951 . S
C835 C836 1.366 . S
C835 C837 1.388 . S
C836 C835 1.366 . S
C836 C840 1.385 . S
C837 H812 0.951 . S
C837 C835 1.388 . S
C837 C838 1.366 . S
C838 C837 1.366 . S
C838 C839 1.414 . S
C838 C841 1.499 . S
C839 H813 0.950 . S
C839 C838 1.414 . S
C839 C840 1.374 . S
C840 H814 0.950 . S
C840 C836 1.385 . S
C840 C839 1.374 . S
C841 C838 1.499 . S
C841 C842 1.373 . S
C841 C843 1.389 1_545 S
C842 H815 0.950 . S
C842 C828 1.377 . S
C842 C841 1.373 . S
C843 C827 1.377 . S
C843 C841 1.389 1_565 S
C843 C844 1.524 . S
C844 C843 1.524 . S
C844 C845 1.397 . S
C844 C849 1.363 . S
C845 H816 0.950 1_565 S
C845 C844 1.397 . S
C845 C846 1.334 . S
C846 H817 0.950 . S
C846 C845 1.334 . S
C846 C847 1.287 . S
C847 C846 1.287 . S
C847 C848 1.524 . S
C847 H850 0.999 . S
C848 H818 0.950 . S
C848 C847 1.524 . S
C848 C849 1.415 . S
C849 H819 0.950 . S
C849 C844 1.363 . S
C849 C848 1.415 . S
H850 C847 0.999 . S
H851 C832 0.913 . S
H852 C870 0.951 . S
H853 C872 0.951 . S
H854 C874 0.950 . S
H855 C875 0.950 . S
H856 C877 0.950 . S
H857 C880 0.950 1_545 S
H858 C881 0.950 . S
H859 C883 0.950 . S
H860 C884 0.950 1_554 S
H861 C885 0.951 . S
H862 C887 0.951 . S
H863 C889 0.950 . S
H864 C890 0.950 . S
H865 C892 0.950 . S
H866 C895 0.950 1_565 S
H867 C896 0.950 . S
H868 C898 0.950 . S
H869 C899 0.950 1_556 S
C870 H852 0.951 . S
C870 C871 1.366 . S
C870 C872 1.388 . S
C871 C870 1.366 . S
C871 C875 1.385 . S
C872 H853 0.951 . S
C872 C870 1.388 . S
C872 C873 1.366 . S
C873 C872 1.366 . S
C873 C874 1.414 . S
C873 C876 1.499 . S
C874 H854 0.950 . S
C874 C873 1.414 . S
C874 C875 1.374 . S
C875 H855 0.950 . S
C875 C871 1.385 . S
C875 C874 1.374 . S
C876 C873 1.499 . S
C876 C877 1.373 . S
C876 C878 1.389 . S
C877 H856 0.950 . S
C877 C876 1.373 . S
C877 C893 1.377 1_566 S
C878 C876 1.389 . S
C878 C879 1.524 . S
C878 C892 1.377 1_566 S
C879 C878 1.524 . S
C879 C880 1.397 . S
C879 C884 1.363 . S
C880 H857 0.950 1_565 S
C880 C879 1.397 . S
C880 C881 1.334 . S
C881 H858 0.950 . S
C881 C880 1.334 . S
C881 C882 1.287 . S
C882 C881 1.287 . S
C882 C883 1.524 . S
C882 H901 0.913 . S
C883 H859 0.950 . S
C883 C882 1.524 . S
C883 C884 1.415 . S
C884 H860 0.950 1_556 S
C884 C879 1.363 . S
C884 C883 1.415 . S
C885 H861 0.951 . S
C885 C886 1.366 . S
C885 C887 1.388 . S
C886 C885 1.366 . S
C886 C890 1.385 . S
C887 H862 0.951 . S
C887 C885 1.388 . S
C887 C888 1.366 . S
C888 C887 1.366 . S
C888 C889 1.414 . S
C888 C891 1.499 . S
C889 H863 0.950 . S
C889 C888 1.414 . S
C889 C890 1.374 . S
C890 H864 0.950 . S
C890 C886 1.385 . S
C890 C889 1.374 . S
C891 C888 1.499 . S
C891 C892 1.373 . S
C891 C893 1.389 . S
C892 H865 0.950 . S
C892 C878 1.377 1_544 S
C892 C891 1.373 . S
C893 C877 1.377 1_544 S
C893 C891 1.389 . S
C893 C894 1.524 . S
C894 C893 1.524 . S
C894 C895 1.397 . S
C894 C899 1.363 . S
C895 H866 0.950 1_545 S
C895 C894 1.397 . S
C895 C896 1.334 . S
C896 H867 0.950 . S
C896 C895 1.334 . S
C896 C897 1.287 . S
C897 C896 1.287 . S
C897 C898 1.524 . S
C897 H900 0.999 . S
C898 H868 0.950 . S
C898 C897 1.524 . S
C898 C899 1.415 . S
C899 H869 0.950 1_554 S
C899 C894 1.363 . S
C899 C898 1.415 . S
H900 C897 0.999 . S
H901 C882 0.913 . S
H902 C920 0.951 . S
H903 C922 0.951 . S
H904 C924 0.950 . S
H905 C925 0.950 . S
H906 C927 0.950 . S
H907 C930 0.950 . S
H908 C931 0.950 . S
H909 C933 0.950 . S
H910 C934 0.950 . S
H911 C935 0.951 . S
H912 C937 0.951 . S
H913 C939 0.950 . S
H914 C940 0.950 . S
H915 C942 0.950 . S
H916 C945 0.950 . S
H917 C946 0.950 . S
H918 C948 0.950 . S
H919 C949 0.950 . S
C920 H902 0.951 . S
C920 C921 1.366 . S
C920 C922 1.388 . S
C921 C920 1.366 . S
C921 C925 1.385 . S
C922 H903 0.951 . S
C922 C920 1.388 . S
C922 C923 1.366 . S
C923 C922 1.366 . S
C923 C924 1.414 . S
C923 C926 1.499 . S
C924 H904 0.950 . S
C924 C923 1.414 . S
C924 C925 1.374 . S
C925 H905 0.950 . S
C925 C921 1.385 . S
C925 C924 1.374 . S
C926 C923 1.499 . S
C926 C927 1.368 1_565 S
C926 C928 1.389 . S
C927 H906 0.950 . S
C927 C926 1.368 1_545 S
C927 C943 1.382 . S
C928 C926 1.389 . S
C928 C929 1.524 . S
C928 C942 1.382 . S
C929 C928 1.524 . S
C929 C930 1.397 . S
C929 C934 1.363 . S
C930 H907 0.950 . S
C930 C929 1.397 . S
C930 C931 1.334 . S
C931 H908 0.950 . S
C931 C930 1.334 . S
C931 C932 1.287 . S
C932 C931 1.287 . S
C932 C933 1.524 . S
C932 H951 0.913 . S
C933 H909 0.950 . S
C933 C932 1.524 . S
C933 C934 1.415 . S
C934 H910 0.950 . S
C934 C929 1.363 . S
C934 C933 1.415 . S
C935 H911 0.951 . S
C935 C936 1.366 . S
C935 C937 1.388 . S
C936 C935 1.366 . S
C936 C940 1.385 . S
C937 H912 0.951 . S
C937 C935 1.388 . S
C937 C938 1.366 . S
C938 C937 1.366 . S
C938 C939 1.414 . S
C938 C941 1.499 . S
C939 H913 0.950 . S
C939 C938 1.414 . S
C939 C940 1.374 . S
C940 H914 0.950 . S
C940 C936 1.385 . S
C940 C939 1.374 . S
C941 C938 1.499 . S
C941 C942 1.368 1_545 S
C941 C943 1.389 . S
C942 H915 0.950 . S
C942 C928 1.382 . S
C942 C941 1.368 1_565 S
C943 C927 1.382 . S
C943 C941 1.389 . S
C943 C944 1.524 . S
C944 C943 1.524 . S
C944 C945 1.397 . S
C944 C949 1.363 . S
C945 H916 0.950 . S
C945 C944 1.397 . S
C945 C946 1.334 . S
C946 H917 0.950 . S
C946 C945 1.334 . S
C946 C947 1.287 . S
C947 C946 1.287 . S
C947 C948 1.524 . S
C947 H950 0.999 . S
C948 H918 0.950 . S
C948 C947 1.524 . S
C948 C949 1.415 . S
C949 H919 0.950 . S
C949 C944 1.363 . S
C949 C948 1.415 . S
H950 C947 0.999 . S
H951 C932 0.913 . S
H952 C970 0.951 . S
H953 C972 0.951 . S
H954 C974 0.950 . S
H955 C975 0.950 . S
H956 C977 0.950 . S
H957 C980 0.950 . S
H958 C981 0.950 . S
H959 C983 0.950 . S
H960 C984 0.950 . S
H961 C985 0.951 . S
H962 C987 0.951 . S
H963 C989 0.950 . S
H964 C990 0.950 . S
H965 C992 0.950 . S
H966 C995 0.950 . S
H967 C996 0.950 . S
H968 C998 0.950 . S
H969 C999 0.950 . S
C970 H952 0.951 . S
C970 C971 1.366 . S
C970 C972 1.388 . S
C971 C970 1.366 . S
C971 C975 1.385 . S
C972 H953 0.951 . S
C972 C970 1.388 . S
C972 C973 1.366 . S
C973 C972 1.366 . S
C973 C974 1.414 . S
C973 C976 1.499 . S
C974 H954 0.950 . S
C974 C973 1.414 . S
C974 C975 1.374 . S
C975 H955 0.950 . S
C975 C971 1.385 . S
C975 C974 1.374 . S
C976 C973 1.499 . S
C976 C977 1.373 . S
C976 C978 1.389 . S
C977 H956 0.950 . S
C977 C976 1.373 . S
C977 C993 1.377 1_554 S
C978 C976 1.389 . S
C978 C979 1.524 . S
C978 C992 1.377 1_554 S
C979 C978 1.524 . S
C979 C980 1.397 . S
C979 C984 1.363 . S
C980 H957 0.950 . S
C980 C979 1.397 . S
C980 C981 1.334 . S
C981 H958 0.950 . S
C981 C980 1.334 . S
C981 C982 1.287 . S
C982 C981 1.287 . S
C982 C983 1.524 . S
C982 H1001 0.913 . S
C983 H959 0.950 . S
C983 C982 1.524 . S
C983 C984 1.415 . S
C984 H960 0.950 . S
C984 C979 1.363 . S
C984 C983 1.415 . S
C985 H961 0.951 . S
C985 C986 1.366 . S
C985 C987 1.388 . S
C986 C985 1.366 . S
C986 C990 1.385 . S
C987 H962 0.951 . S
C987 C985 1.388 . S
C987 C988 1.366 . S
C988 C987 1.366 . S
C988 C989 1.414 . S
C988 C991 1.499 . S
C989 H963 0.950 . S
C989 C988 1.414 . S
C989 C990 1.374 . S
C990 H964 0.950 . S
C990 C986 1.385 . S
C990 C989 1.374 . S
C991 C988 1.499 . S
C991 C992 1.373 . S
C991 C993 1.389 . S
C992 H965 0.950 . S
C992 C978 1.377 1_556 S
C992 C991 1.373 . S
C993 C977 1.377 1_556 S
C993 C991 1.389 . S
C993 C994 1.524 . S
C994 C993 1.524 . S
C994 C995 1.397 . S
C994 C999 1.363 . S
C995 H966 0.950 . S
C995 C994 1.397 . S
C995 C996 1.334 . S
C996 H967 0.950 . S
C996 C995 1.334 . S
C996 C997 1.287 . S
C997 C996 1.287 . S
C997 C998 1.524 . S
C997 H1000 0.999 . S
C998 H968 0.950 . S
C998 C997 1.524 . S
C998 C999 1.415 . S
C999 H969 0.950 . S
C999 C994 1.363 . S
C999 C998 1.415 . S
H1000 C997 0.999 . S
H1001 C982 0.913 . S
H1002 C1020 0.951 . S
H1003 C1022 0.951 . S
H1004 C1024 0.950 . S
H1005 C1025 0.950 . S
H1006 C1027 0.950 . S
H1007 C1030 0.950 . S
H1008 C1031 0.950 . S
H1009 C1033 0.950 . S
H1010 C1034 0.950 . S
H1011 C1035 0.951 . S
H1012 C1037 0.951 . S
H1013 C1039 0.950 . S
H1014 C1040 0.950 . S
H1015 C1042 0.950 . S
H1016 C1045 0.950 . S
H1017 C1046 0.950 . S
H1018 C1048 0.950 . S
H1019 C1049 0.950 . S
C1020 H1002 0.951 . S
C1020 C1021 1.366 . S
C1020 C1022 1.388 . S
C1021 C1020 1.366 . S
C1021 C1025 1.385 . S
C1022 H1003 0.951 . S
C1022 C1020 1.388 . S
C1022 C1023 1.366 . S
C1023 C1022 1.366 . S
C1023 C1024 1.414 . S
C1023 C1026 1.499 . S
C1024 H1004 0.950 . S
C1024 C1023 1.414 . S
C1024 C1025 1.374 . S
C1025 H1005 0.950 . S
C1025 C1021 1.385 . S
C1025 C1024 1.374 . S
C1026 C1023 1.499 . S
C1026 C1027 1.373 . S
C1026 C1028 1.389 . S
C1027 H1006 0.950 . S
C1027 C1026 1.373 . S
C1027 C1043 1.377 . S
C1028 C1026 1.389 . S
C1028 C1029 1.524 . S
C1028 C1042 1.377 . S
C1029 C1028 1.524 . S
C1029 C1030 1.397 . S
C1029 C1034 1.363 . S
C1030 H1007 0.950 . S
C1030 C1029 1.397 . S
C1030 C1031 1.334 . S
C1031 H1008 0.950 . S
C1031 C1030 1.334 . S
C1031 C1032 1.287 . S
C1032 C1031 1.287 . S
C1032 C1033 1.524 . S
C1032 H1051 0.913 . S
C1033 H1009 0.950 . S
C1033 C1032 1.524 . S
C1033 C1034 1.415 . S
C1034 H1010 0.950 . S
C1034 C1029 1.363 . S
C1034 C1033 1.415 . S
C1035 H1011 0.951 . S
C1035 C1036 1.366 . S
C1035 C1037 1.388 . S
C1036 C1035 1.366 . S
C1036 C1040 1.385 . S
C1037 H1012 0.951 . S
C1037 C1035 1.388 . S
C1037 C1038 1.366 . S
C1038 C1037 1.366 . S
C1038 C1039 1.414 . S
C1038 C1041 1.499 . S
C1039 H1013 0.950 . S
C1039 C1038 1.414 . S
C1039 C1040 1.374 . S
C1040 H1014 0.950 . S
C1040 C1036 1.385 . S
C1040 C1039 1.374 . S
C1041 C1038 1.499 . S
C1041 C1042 1.373 . S
C1041 C1043 1.389 . S
C1042 H1015 0.950 . S
C1042 C1028 1.377 . S
C1042 C1041 1.373 . S
C1043 C1027 1.377 . S
C1043 C1041 1.389 . S
C1043 C1044 1.524 . S
C1044 C1043 1.524 . S
C1044 C1045 1.397 . S
C1044 C1049 1.363 . S
C1045 H1016 0.950 . S
C1045 C1044 1.397 . S
C1045 C1046 1.334 . S
C1046 H1017 0.950 . S
C1046 C1045 1.334 . S
C1046 C1047 1.287 . S
C1047 C1046 1.287 . S
C1047 C1048 1.524 . S
C1047 H1050 0.999 . S
C1048 H1018 0.950 . S
C1048 C1047 1.524 . S
C1048 C1049 1.415 . S
C1049 H1019 0.950 . S
C1049 C1044 1.363 . S
C1049 C1048 1.415 . S
H1050 C1047 0.999 . S
H1051 C1032 0.913 . S
H1052 C1070 0.951 . S
H1053 C1072 0.951 . S
H1054 C1074 0.950 . S
H1055 C1075 0.950 . S
H1056 C1077 0.950 . S
H1057 C1080 0.950 . S
H1058 C1081 0.950 . S
H1059 C1083 0.950 . S
H1060 C1084 0.950 . S
H1061 C1085 0.951 . S
H1062 C1087 0.951 . S
H1063 C1089 0.950 . S
H1064 C1090 0.950 . S
H1065 C1092 0.950 . S
H1066 C1095 0.950 . S
H1067 C1096 0.950 . S
H1068 C1098 0.950 . S
H1069 C1099 0.950 . S
C1070 H1052 0.951 . S
C1070 C1071 1.366 . S
C1070 C1072 1.388 . S
C1071 C1070 1.366 . S
C1071 C1075 1.385 . S
C1072 H1053 0.951 . S
C1072 C1070 1.388 . S
C1072 C1073 1.366 . S
C1073 C1072 1.366 . S
C1073 C1074 1.414 . S
C1073 C1076 1.499 . S
C1074 H1054 0.950 . S
C1074 C1073 1.414 . S
C1074 C1075 1.374 . S
C1075 H1055 0.950 . S
C1075 C1071 1.385 . S
C1075 C1074 1.374 . S
C1076 C1073 1.499 . S
C1076 C1077 1.373 . S
C1076 C1078 1.389 . S
C1077 H1056 0.950 . S
C1077 C1076 1.373 . S
C1077 C1093 1.377 1_554 S
C1078 C1076 1.389 . S
C1078 C1079 1.524 . S
C1078 C1092 1.377 1_554 S
C1079 C1078 1.524 . S
C1079 C1080 1.397 . S
C1079 C1084 1.363 . S
C1080 H1057 0.950 . S
C1080 C1079 1.397 . S
C1080 C1081 1.334 . S
C1081 H1058 0.950 . S
C1081 C1080 1.334 . S
C1081 C1082 1.287 . S
C1082 C1081 1.287 . S
C1082 C1083 1.524 . S
C1082 H1101 0.913 . S
C1083 H1059 0.950 . S
C1083 C1082 1.524 . S
C1083 C1084 1.415 . S
C1084 H1060 0.950 . S
C1084 C1079 1.363 . S
C1084 C1083 1.415 . S
C1085 H1061 0.951 . S
C1085 C1086 1.366 . S
C1085 C1087 1.388 . S
C1086 C1085 1.366 . S
C1086 C1090 1.385 . S
C1087 H1062 0.951 . S
C1087 C1085 1.388 . S
C1087 C1088 1.366 . S
C1088 C1087 1.366 . S
C1088 C1089 1.414 . S
C1088 C1091 1.499 . S
C1089 H1063 0.950 . S
C1089 C1088 1.414 . S
C1089 C1090 1.374 . S
C1090 H1064 0.950 . S
C1090 C1086 1.385 . S
C1090 C1089 1.374 . S
C1091 C1088 1.499 . S
C1091 C1092 1.373 . S
C1091 C1093 1.389 . S
C1092 H1065 0.950 . S
C1092 C1078 1.377 1_556 S
C1092 C1091 1.373 . S
C1093 C1077 1.377 1_556 S
C1093 C1091 1.389 . S
C1093 C1094 1.524 . S
C1094 C1093 1.524 . S
C1094 C1095 1.397 . S
C1094 C1099 1.363 . S
C1095 H1066 0.950 . S
C1095 C1094 1.397 . S
C1095 C1096 1.334 . S
C1096 H1067 0.950 . S
C1096 C1095 1.334 . S
C1096 C1097 1.287 . S
C1097 C1096 1.287 . S
C1097 C1098 1.524 . S
C1097 H1100 0.999 . S
C1098 H1068 0.950 . S
C1098 C1097 1.524 . S
C1098 C1099 1.415 . S
C1099 H1069 0.950 . S
C1099 C1094 1.363 . S
C1099 C1098 1.415 . S
H1100 C1097 0.999 . S
H1101 C1082 0.913 . S
H1102 C1120 0.951 . S
H1103 C1122 0.951 . S
H1104 C1124 0.950 . S
H1105 C1125 0.950 . S
H1106 C1127 0.950 . S
H1107 C1130 0.950 . S
H1108 C1131 0.950 . S
H1109 C1133 0.950 . S
H1110 C1134 0.950 . S
H1111 C1135 0.951 . S
H1112 C1137 0.951 . S
H1113 C1139 0.950 . S
H1114 C1140 0.950 . S
H1115 C1142 0.950 . S
H1116 C1145 0.950 . S
H1117 C1146 0.950 . S
H1118 C1148 0.950 . S
H1119 C1149 0.950 . S
C1120 H1102 0.951 . S
C1120 C1121 1.366 . S
C1120 C1122 1.388 . S
C1121 C1120 1.366 . S
C1121 C1125 1.385 . S
C1122 H1103 0.951 . S
C1122 C1120 1.388 . S
C1122 C1123 1.366 . S
C1123 C1122 1.366 . S
C1123 C1124 1.414 . S
C1123 C1126 1.499 . S
C1124 H1104 0.950 . S
C1124 C1123 1.414 . S
C1124 C1125 1.374 . S
C1125 H1105 0.950 . S
C1125 C1121 1.385 . S
C1125 C1124 1.374 . S
C1126 C1123 1.499 . S
C1126 C1127 1.373 . S
C1126 C1128 1.389 . S
C1127 H1106 0.950 . S
C1127 C1126 1.373 . S
C1127 C1143 1.377 . S
C1128 C1126 1.389 . S
C1128 C1129 1.524 . S
C1128 C1142 1.377 . S
C1129 C1128 1.524 . S
C1129 C1130 1.397 . S
C1129 C1134 1.363 . S
C1130 H1107 0.950 . S
C1130 C1129 1.397 . S
C1130 C1131 1.334 . S
C1131 H1108 0.950 . S
C1131 C1130 1.334 . S
C1131 C1132 1.287 . S
C1132 C1131 1.287 . S
C1132 C1133 1.524 . S
C1132 H1151 0.913 . S
C1133 H1109 0.950 . S
C1133 C1132 1.524 . S
C1133 C1134 1.415 . S
C1134 H1110 0.950 . S
C1134 C1129 1.363 . S
C1134 C1133 1.415 . S
C1135 H1111 0.951 . S
C1135 C1136 1.366 . S
C1135 C1137 1.388 . S
C1136 C1135 1.366 . S
C1136 C1140 1.385 . S
C1137 H1112 0.951 . S
C1137 C1135 1.388 . S
C1137 C1138 1.366 . S
C1138 C1137 1.366 . S
C1138 C1139 1.414 . S
C1138 C1141 1.499 . S
C1139 H1113 0.950 . S
C1139 C1138 1.414 . S
C1139 C1140 1.374 . S
C1140 H1114 0.950 . S
C1140 C1136 1.385 . S
C1140 C1139 1.374 . S
C1141 C1138 1.499 . S
C1141 C1142 1.373 . S
C1141 C1143 1.389 . S
C1142 H1115 0.950 . S
C1142 C1128 1.377 . S
C1142 C1141 1.373 . S
C1143 C1127 1.377 . S
C1143 C1141 1.389 . S
C1143 C1144 1.524 . S
C1144 C1143 1.524 . S
C1144 C1145 1.397 . S
C1144 C1149 1.363 . S
C1145 H1116 0.950 . S
C1145 C1144 1.397 . S
C1145 C1146 1.334 . S
C1146 H1117 0.950 . S
C1146 C1145 1.334 . S
C1146 C1147 1.287 . S
C1147 C1146 1.287 . S
C1147 C1148 1.524 . S
C1147 H1150 0.999 . S
C1148 H1118 0.950 . S
C1148 C1147 1.524 . S
C1148 C1149 1.415 . S
C1149 H1119 0.950 . S
C1149 C1144 1.363 . S
C1149 C1148 1.415 . S
H1150 C1147 0.999 . S
H1151 C1132 0.913 . S
H1152 C1170 0.951 . S
H1153 C1172 0.951 . S
H1154 C1174 0.950 . S
H1155 C1175 0.950 . S
H1156 C1177 0.950 . S
H1157 C1180 0.950 . S
H1158 C1181 0.950 . S
H1159 C1183 0.954 . S
H1160 C1184 0.950 . S
H1161 C1185 0.951 . S
H1162 C1187 0.951 . S
H1163 C1189 0.950 . S
H1164 C1190 0.950 . S
H1165 C1192 0.950 . S
H1166 C1195 0.950 . S
H1167 C1196 0.950 . S
H1168 C1198 0.950 . S
H1169 C1199 0.950 . S
C1170 H1152 0.951 . S
C1170 C1171 1.366 . S
C1170 C1172 1.388 . S
C1171 C1170 1.366 . S
C1171 C1175 1.385 . S
C1172 H1153 0.951 . S
C1172 C1170 1.388 . S
C1172 C1173 1.366 . S
C1173 C1172 1.366 . S
C1173 C1174 1.414 . S
C1173 C1176 1.499 . S
C1174 H1154 0.950 . S
C1174 C1173 1.414 . S
C1174 C1175 1.374 . S
C1175 H1155 0.950 . S
C1175 C1171 1.385 . S
C1175 C1174 1.374 . S
C1176 C1173 1.499 . S
C1176 C1177 1.373 . S
C1176 C1178 1.389 . S
C1177 H1156 0.950 . S
C1177 C1176 1.373 . S
C1177 C1193 1.377 . S
C1178 C1176 1.389 . S
C1178 C1179 1.524 . S
C1178 C1192 1.377 . S
C1179 C1178 1.524 . S
C1179 C1180 1.397 . S
C1179 C1184 1.363 . S
C1180 H1157 0.950 . S
C1180 C1179 1.397 . S
C1180 C1181 1.334 . S
C1181 H1158 0.950 . S
C1181 C1180 1.334 . S
C1181 C1182 1.287 . S
C1182 C1181 1.287 . S
C1182 C1183 1.524 . S
C1182 H1201 0.913 . S
C1183 H1159 0.954 . S
C1183 C1182 1.524 . S
C1183 C1184 1.415 . S
C1184 H1160 0.950 . S
C1184 C1179 1.363 . S
C1184 C1183 1.415 . S
C1185 H1161 0.951 . S
C1185 C1186 1.366 . S
C1185 C1187 1.388 . S
C1186 C1185 1.366 . S
C1186 C1190 1.385 . S
C1187 H1162 0.951 . S
C1187 C1185 1.388 . S
C1187 C1188 1.366 . S
C1188 C1187 1.366 . S
C1188 C1189 1.414 . S
C1188 C1191 1.499 . S
C1189 H1163 0.950 . S
C1189 C1188 1.414 . S
C1189 C1190 1.374 . S
C1190 H1164 0.950 . S
C1190 C1186 1.385 . S
C1190 C1189 1.374 . S
C1191 C1188 1.499 . S
C1191 C1192 1.373 . S
C1191 C1193 1.389 . S
C1192 H1165 0.950 . S
C1192 C1178 1.377 . S
C1192 C1191 1.373 . S
C1193 C1177 1.377 . S
C1193 C1191 1.389 . S
C1193 C1194 1.524 . S
C1194 C1193 1.524 . S
C1194 C1195 1.397 . S
C1194 C1199 1.363 . S
C1195 H1166 0.950 . S
C1195 C1194 1.397 . S
C1195 C1196 1.334 . S
C1196 H1167 0.950 . S
C1196 C1195 1.334 . S
C1196 C1197 1.287 . S
C1197 C1196 1.287 . S
C1197 C1198 1.524 . S
C1197 H1200 0.999 . S
C1198 H1168 0.950 . S
C1198 C1197 1.524 . S
C1198 C1199 1.415 . S
C1199 H1169 0.950 . S
C1199 C1194 1.363 . S
C1199 C1198 1.415 . S
H1200 C1197 0.999 . S
H1201 C1182 0.913 . S
H1202 C1220 0.951 . S
H1203 C1222 0.951 . S
H1204 C1224 0.950 . S
H1205 C1225 0.950 . S
H1206 C1227 0.950 . S
H1207 C1230 0.950 . S
H1208 C1231 0.950 . S
H1209 C1233 0.950 . S
H1210 C1234 0.950 . S
H1211 C1235 0.951 . S
H1212 C1237 0.951 . S
H1213 C1239 0.950 . S
H1214 C1240 0.950 . S
H1215 C1242 0.950 . S
H1216 C1245 0.950 . S
H1217 C1246 0.950 . S
H1218 C1248 0.950 . S
H1219 C1249 0.950 . S
C1220 H1202 0.951 . S
C1220 C1221 1.366 . S
C1220 C1222 1.388 . S
C1221 C1220 1.366 . S
C1221 C1225 1.385 . S
C1222 H1203 0.951 . S
C1222 C1220 1.388 . S
C1222 C1223 1.366 . S
C1223 C1222 1.366 . S
C1223 C1224 1.414 . S
C1223 C1226 1.499 . S
C1224 H1204 0.950 . S
C1224 C1223 1.414 . S
C1224 C1225 1.374 . S
C1225 H1205 0.950 . S
C1225 C1221 1.385 . S
C1225 C1224 1.374 . S
C1226 C1223 1.499 . S
C1226 C1227 1.373 . S
C1226 C1228 1.389 . S
C1227 H1206 0.950 . S
C1227 C1226 1.373 . S
C1227 C1243 1.377 . S
C1228 C1226 1.389 . S
C1228 C1229 1.524 . S
C1228 C1242 1.377 . S
C1229 C1228 1.524 . S
C1229 C1230 1.397 . S
C1229 C1234 1.363 . S
C1230 H1207 0.950 . S
C1230 C1229 1.397 . S
C1230 C1231 1.334 . S
C1231 H1208 0.950 . S
C1231 C1230 1.334 . S
C1231 C1232 1.287 . S
C1232 C1231 1.287 . S
C1232 C1233 1.524 . S
C1232 H1251 0.913 . S
C1233 H1209 0.950 . S
C1233 C1232 1.524 . S
C1233 C1234 1.415 . S
C1234 H1210 0.950 . S
C1234 C1229 1.363 . S
C1234 C1233 1.415 . S
C1235 H1211 0.951 . S
C1235 C1236 1.366 . S
C1235 C1237 1.388 . S
C1236 C1235 1.366 . S
C1236 C1240 1.385 . S
C1237 H1212 0.951 . S
C1237 C1235 1.388 . S
C1237 C1238 1.366 . S
C1238 C1237 1.366 . S
C1238 C1239 1.414 . S
C1238 C1241 1.499 . S
C1239 H1213 0.950 . S
C1239 C1238 1.414 . S
C1239 C1240 1.374 . S
C1240 H1214 0.950 . S
C1240 C1236 1.385 . S
C1240 C1239 1.374 . S
C1241 C1238 1.499 . S
C1241 C1242 1.373 . S
C1241 C1243 1.389 . S
C1242 H1215 0.950 . S
C1242 C1228 1.377 . S
C1242 C1241 1.373 . S
C1243 C1227 1.377 . S
C1243 C1241 1.389 . S
C1243 C1244 1.524 . S
C1244 C1243 1.524 . S
C1244 C1245 1.397 . S
C1244 C1249 1.363 . S
C1245 H1216 0.950 . S
C1245 C1244 1.397 . S
C1245 C1246 1.334 . S
C1246 H1217 0.950 . S
C1246 C1245 1.334 . S
C1246 C1247 1.287 . S
C1247 C1246 1.287 . S
C1247 C1248 1.524 . S
C1247 H1250 0.999 . S
C1248 H1218 0.950 . S
C1248 C1247 1.524 . S
C1248 C1249 1.415 . S
C1249 H1219 0.950 . S
C1249 C1244 1.363 . S
C1249 C1248 1.415 . S
H1250 C1247 0.999 . S
H1251 C1232 0.913 . S
H1252 C1270 0.951 . S
H1253 C1272 0.951 . S
H1254 C1274 0.950 . S
H1255 C1275 0.950 . S
H1256 C1277 0.950 . S
H1257 C1280 0.950 . S
H1258 C1281 0.950 . S
H1259 C1283 0.950 . S
H1260 C1284 0.950 . S
H1261 C1285 0.951 . S
H1262 C1287 0.951 . S
H1263 C1289 0.950 . S
H1264 C1290 0.950 . S
H1265 C1292 0.950 . S
H1266 C1295 0.950 . S
H1267 C1296 0.950 . S
H1268 C1298 0.950 . S
H1269 C1299 0.950 . S
C1270 H1252 0.951 . S
C1270 C1271 1.366 . S
C1270 C1272 1.388 . S
C1271 C1270 1.366 . S
C1271 C1275 1.385 . S
C1272 H1253 0.951 . S
C1272 C1270 1.388 . S
C1272 C1273 1.366 . S
C1273 C1272 1.366 . S
C1273 C1274 1.414 . S
C1273 C1276 1.499 . S
C1274 H1254 0.950 . S
C1274 C1273 1.414 . S
C1274 C1275 1.374 . S
C1275 H1255 0.950 . S
C1275 C1271 1.385 . S
C1275 C1274 1.374 . S
C1276 C1273 1.499 . S
C1276 C1277 1.373 . S
C1276 C1278 1.389 . S
C1277 H1256 0.950 . S
C1277 C1276 1.373 . S
C1277 C1293 1.377 . S
C1278 C1276 1.389 . S
C1278 C1279 1.524 . S
C1278 C1292 1.377 . S
C1279 C1278 1.524 . S
C1279 C1280 1.397 . S
C1279 C1284 1.363 . S
C1280 H1257 0.950 . S
C1280 C1279 1.397 . S
C1280 C1281 1.334 . S
C1281 H1258 0.950 . S
C1281 C1280 1.334 . S
C1281 C1282 1.287 . S
C1282 C1281 1.287 . S
C1282 C1283 1.524 . S
C1282 H1301 0.913 . S
C1283 H1259 0.950 . S
C1283 C1282 1.524 . S
C1283 C1284 1.415 . S
C1284 H1260 0.950 . S
C1284 C1279 1.363 . S
C1284 C1283 1.415 . S
C1285 H1261 0.951 . S
C1285 C1286 1.366 . S
C1285 C1287 1.388 . S
C1286 C1285 1.366 . S
C1286 C1290 1.385 . S
C1287 H1262 0.951 . S
C1287 C1285 1.388 . S
C1287 C1288 1.366 . S
C1288 C1287 1.366 . S
C1288 C1289 1.414 . S
C1288 C1291 1.499 . S
C1289 H1263 0.950 . S
C1289 C1288 1.414 . S
C1289 C1290 1.374 . S
C1290 H1264 0.950 . S
C1290 C1286 1.385 . S
C1290 C1289 1.374 . S
C1291 C1288 1.499 . S
C1291 C1292 1.373 . S
C1291 C1293 1.389 . S
C1292 H1265 0.950 . S
C1292 C1278 1.377 . S
C1292 C1291 1.373 . S
C1293 C1277 1.377 . S
C1293 C1291 1.389 . S
C1293 C1294 1.524 . S
C1294 C1293 1.524 . S
C1294 C1295 1.397 . S
C1294 C1299 1.363 . S
C1295 H1266 0.950 . S
C1295 C1294 1.397 . S
C1295 C1296 1.334 . S
C1296 H1267 0.950 . S
C1296 C1295 1.334 . S
C1296 C1297 1.287 . S
C1297 C1296 1.287 . S
C1297 C1298 1.524 . S
C1297 H1300 0.999 . S
C1298 H1268 0.950 . S
C1298 C1297 1.524 . S
C1298 C1299 1.415 . S
C1299 H1269 0.950 . S
C1299 C1294 1.363 . S
C1299 C1298 1.415 . S
H1300 C1297 0.999 . S
H1301 C1282 0.913 . S
H1302 C1320 0.951 . S
H1303 C1322 0.951 . S
H1304 C1324 0.950 . S
H1305 C1325 0.950 . S
H1306 C1327 0.950 . S
H1307 C1330 0.950 . S
H1308 C1331 0.950 . S
H1309 C1333 0.950 . S
H1310 C1334 0.950 . S
H1311 C1335 0.951 . S
H1312 C1337 0.951 . S
H1313 C1339 0.950 . S
H1314 C1340 0.950 . S
H1315 C1342 0.950 . S
H1316 C1345 0.950 . S
H1317 C1346 0.950 . S
H1318 C1348 0.950 . S
H1319 C1349 0.950 . S
C1320 H1302 0.951 . S
C1320 C1321 1.366 . S
C1320 C1322 1.388 . S
C1321 C1320 1.366 . S
C1321 C1325 1.385 . S
C1322 H1303 0.951 . S
C1322 C1320 1.388 . S
C1322 C1323 1.366 . S
C1323 C1322 1.366 . S
C1323 C1324 1.414 . S
C1323 C1326 1.499 . S
C1324 H1304 0.950 . S
C1324 C1323 1.414 . S
C1324 C1325 1.374 . S
C1325 H1305 0.950 . S
C1325 C1321 1.385 . S
C1325 C1324 1.374 . S
C1326 C1323 1.499 . S
C1326 C1327 1.373 . S
C1326 C1328 1.389 . S
C1327 H1306 0.950 . S
C1327 C1326 1.373 . S
C1327 C1343 1.377 . S
C1328 C1326 1.389 . S
C1328 C1329 1.524 . S
C1328 C1342 1.377 . S
C1329 C1328 1.524 . S
C1329 C1330 1.397 . S
C1329 C1334 1.363 . S
C1330 H1307 0.950 . S
C1330 C1329 1.397 . S
C1330 C1331 1.334 . S
C1331 H1308 0.950 . S
C1331 C1330 1.334 . S
C1331 C1332 1.287 . S
C1332 C1331 1.287 . S
C1332 C1333 1.524 . S
C1332 H1351 0.913 . S
C1333 H1309 0.950 . S
C1333 C1332 1.524 . S
C1333 C1334 1.415 . S
C1334 H1310 0.950 . S
C1334 C1329 1.363 . S
C1334 C1333 1.415 . S
C1335 H1311 0.951 . S
C1335 C1336 1.366 . S
C1335 C1337 1.388 . S
C1336 C1335 1.366 . S
C1336 C1340 1.385 . S
C1337 H1312 0.951 . S
C1337 C1335 1.388 . S
C1337 C1338 1.366 . S
C1338 C1337 1.366 . S
C1338 C1339 1.414 . S
C1338 C1341 1.499 . S
C1339 H1313 0.950 . S
C1339 C1338 1.414 . S
C1339 C1340 1.374 . S
C1340 H1314 0.950 . S
C1340 C1336 1.385 . S
C1340 C1339 1.374 . S
C1341 C1338 1.499 . S
C1341 C1342 1.373 . S
C1341 C1343 1.389 . S
C1342 H1315 0.950 . S
C1342 C1328 1.377 . S
C1342 C1341 1.373 . S
C1343 C1327 1.377 . S
C1343 C1341 1.389 . S
C1343 C1344 1.524 . S
C1344 C1343 1.524 . S
C1344 C1345 1.397 . S
C1344 C1349 1.363 . S
C1345 H1316 0.950 . S
C1345 C1344 1.397 . S
C1345 C1346 1.334 . S
C1346 H1317 0.950 . S
C1346 C1345 1.334 . S
C1346 C1347 1.287 . S
C1347 C1346 1.287 . S
C1347 C1348 1.524 . S
C1347 H1350 0.999 . S
C1348 H1318 0.950 . S
C1348 C1347 1.524 . S
C1348 C1349 1.415 . S
C1349 H1319 0.950 . S
C1349 C1344 1.363 . S
C1349 C1348 1.415 . S
H1350 C1347 0.999 . S
H1351 C1332 0.913 . S
H1352 C1370 0.951 . S
H1353 C1372 0.951 . S
H1354 C1374 0.950 . S
H1355 C1375 0.950 . S
H1356 C1377 0.950 . S
H1357 C1380 0.950 . S
H1358 C1381 0.950 . S
H1359 C1383 0.950 . S
H1360 C1384 0.950 . S
H1361 C1385 0.951 . S
H1362 C1387 0.951 . S
H1363 C1389 0.950 . S
H1364 C1390 0.950 . S
H1365 C1392 0.950 . S
H1366 C1395 0.950 . S
H1367 C1396 0.950 . S
H1368 C1398 0.950 . S
H1369 C1399 0.950 . S
C1370 H1352 0.951 . S
C1370 C1371 1.366 . S
C1370 C1372 1.388 . S
C1371 C1370 1.366 . S
C1371 C1375 1.385 . S
C1372 H1353 0.951 . S
C1372 C1370 1.388 . S
C1372 C1373 1.366 . S
C1373 C1372 1.366 . S
C1373 C1374 1.414 . S
C1373 C1376 1.499 . S
C1374 H1354 0.950 . S
C1374 C1373 1.414 . S
C1374 C1375 1.374 . S
C1375 H1355 0.950 . S
C1375 C1371 1.385 . S
C1375 C1374 1.374 . S
C1376 C1373 1.499 . S
C1376 C1377 1.373 . S
C1376 C1378 1.389 . S
C1377 H1356 0.950 . S
C1377 C1376 1.373 . S
C1377 C1393 1.377 . S
C1378 C1376 1.389 . S
C1378 C1379 1.524 . S
C1378 C1392 1.377 . S
C1379 C1378 1.524 . S
C1379 C1380 1.397 . S
C1379 C1384 1.363 . S
C1380 H1357 0.950 . S
C1380 C1379 1.397 . S
C1380 C1381 1.334 . S
C1381 H1358 0.950 . S
C1381 C1380 1.334 . S
C1381 C1382 1.287 . S
C1382 C1381 1.287 . S
C1382 C1383 1.524 . S
C1382 H1401 0.913 . S
C1383 H1359 0.950 . S
C1383 C1382 1.524 . S
C1383 C1384 1.415 . S
C1384 H1360 0.950 . S
C1384 C1379 1.363 . S
C1384 C1383 1.415 . S
C1385 H1361 0.951 . S
C1385 C1386 1.366 . S
C1385 C1387 1.388 . S
C1386 C1385 1.366 . S
C1386 C1390 1.385 . S
C1387 H1362 0.951 . S
C1387 C1385 1.388 . S
C1387 C1388 1.366 . S
C1388 C1387 1.366 . S
C1388 C1389 1.414 . S
C1388 C1391 1.499 . S
C1389 H1363 0.950 . S
C1389 C1388 1.414 . S
C1389 C1390 1.374 . S
C1390 H1364 0.950 . S
C1390 C1386 1.385 . S
C1390 C1389 1.374 . S
C1391 C1388 1.499 . S
C1391 C1392 1.373 . S
C1391 C1393 1.389 . S
C1392 H1365 0.950 . S
C1392 C1378 1.377 . S
C1392 C1391 1.373 . S
C1393 C1377 1.377 . S
C1393 C1391 1.389 . S
C1393 C1394 1.524 . S
C1394 C1393 1.524 . S
C1394 C1395 1.397 . S
C1394 C1399 1.363 . S
C1395 H1366 0.950 . S
C1395 C1394 1.397 . S
C1395 C1396 1.334 . S
C1396 H1367 0.950 . S
C1396 C1395 1.334 . S
C1396 C1397 1.287 . S
C1397 C1396 1.287 . S
C1397 C1398 1.524 . S
C1397 H1400 0.999 . S
C1398 H1368 0.950 . S
C1398 C1397 1.524 . S
C1398 C1399 1.415 . S
C1399 H1369 0.950 . S
C1399 C1394 1.363 . S
C1399 C1398 1.415 . S
H1400 C1397 0.999 . S
H1401 C1382 0.913 . S
H1402 C1420 0.951 . S
H1403 C1422 0.951 . S
H1404 C1424 0.950 . S
H1405 C1425 0.950 . S
H1406 C1427 0.950 . S
H1407 C1430 0.950 . S
H1408 C1431 0.950 . S
H1409 C1433 0.950 . S
H1410 C1434 0.950 . S
H1411 C1435 0.951 . S
H1412 C1437 0.951 . S
H1413 C1439 0.950 . S
H1414 C1440 0.950 . S
H1415 C1442 0.950 . S
H1416 C1445 0.950 . S
H1417 C1446 0.950 . S
H1418 C1448 0.950 . S
H1419 C1449 0.950 . S
C1420 H1402 0.951 . S
C1420 C1421 1.366 . S
C1420 C1422 1.388 . S
C1421 C1420 1.366 . S
C1421 C1425 1.385 . S
C1422 H1403 0.951 . S
C1422 C1420 1.388 . S
C1422 C1423 1.366 . S
C1423 C1422 1.366 . S
C1423 C1424 1.414 . S
C1423 C1426 1.499 . S
C1424 H1404 0.950 . S
C1424 C1423 1.414 . S
C1424 C1425 1.374 . S
C1425 H1405 0.950 . S
C1425 C1421 1.385 . S
C1425 C1424 1.374 . S
C1426 C1423 1.499 . S
C1426 C1427 1.373 . S
C1426 C1428 1.389 . S
C1427 H1406 0.950 . S
C1427 C1426 1.373 . S
C1427 C1443 1.377 . S
C1428 C1426 1.389 . S
C1428 C1429 1.524 . S
C1428 C1442 1.377 . S
C1429 C1428 1.524 . S
C1429 C1430 1.397 . S
C1429 C1434 1.363 . S
C1430 H1407 0.950 . S
C1430 C1429 1.397 . S
C1430 C1431 1.334 . S
C1431 H1408 0.950 . S
C1431 C1430 1.334 . S
C1431 C1432 1.287 . S
C1432 C1431 1.287 . S
C1432 C1433 1.524 . S
C1432 H1451 0.913 . S
C1433 H1409 0.950 . S
C1433 C1432 1.524 . S
C1433 C1434 1.415 . S
C1434 H1410 0.950 . S
C1434 C1429 1.363 . S
C1434 C1433 1.415 . S
C1435 H1411 0.951 . S
C1435 C1436 1.366 . S
C1435 C1437 1.388 . S
C1436 C1435 1.366 . S
C1436 C1440 1.385 . S
C1437 H1412 0.951 . S
C1437 C1435 1.388 . S
C1437 C1438 1.366 . S
C1438 C1437 1.366 . S
C1438 C1439 1.414 . S
C1438 C1441 1.499 . S
C1439 H1413 0.950 . S
C1439 C1438 1.414 . S
C1439 C1440 1.374 . S
C1440 H1414 0.950 . S
C1440 C1436 1.385 . S
C1440 C1439 1.374 . S
C1441 C1438 1.499 . S
C1441 C1442 1.373 . S
C1441 C1443 1.389 . S
C1442 H1415 0.950 . S
C1442 C1428 1.377 . S
C1442 C1441 1.373 . S
C1443 C1427 1.377 . S
C1443 C1441 1.389 . S
C1443 C1444 1.524 . S
C1444 C1443 1.524 . S
C1444 C1445 1.397 . S
C1444 C1449 1.363 . S
C1445 H1416 0.950 . S
C1445 C1444 1.397 . S
C1445 C1446 1.334 . S
C1446 H1417 0.950 . S
C1446 C1445 1.334 . S
C1446 C1447 1.287 . S
C1447 C1446 1.287 . S
C1447 C1448 1.524 . S
C1447 H1450 0.999 . S
C1448 H1418 0.950 . S
C1448 C1447 1.524 . S
C1448 C1449 1.415 . S
C1449 H1419 0.950 . S
C1449 C1444 1.363 . S
C1449 C1448 1.415 . S
H1450 C1447 0.999 . S
H1451 C1432 0.913 . S
H1452 C1470 0.951 . S
H1453 C1472 0.951 . S
H1454 C1474 0.950 . S
H1455 C1475 0.950 . S
H1456 C1477 0.950 . S
H1457 C1480 0.950 . S
H1458 C1481 0.950 . S
H1459 C1483 0.950 . S
H1460 C1484 0.950 . S
H1461 C1485 0.951 . S
H1462 C1487 0.951 . S
H1463 C1489 0.950 . S
H1464 C1490 0.950 . S
H1465 C1492 0.950 . S
H1466 C1495 0.950 . S
H1467 C1496 0.950 . S
H1468 C1498 0.950 . S
H1469 C1499 0.950 . S
C1470 H1452 0.951 . S
C1470 C1471 1.366 . S
C1470 C1472 1.388 . S
C1471 C1470 1.366 . S
C1471 C1475 1.385 . S
C1472 H1453 0.951 . S
C1472 C1470 1.388 . S
C1472 C1473 1.366 . S
C1473 C1472 1.366 . S
C1473 C1474 1.414 . S
C1473 C1476 1.499 . S
C1474 H1454 0.950 . S
C1474 C1473 1.414 . S
C1474 C1475 1.374 . S
C1475 H1455 0.950 . S
C1475 C1471 1.385 . S
C1475 C1474 1.374 . S
C1476 C1473 1.499 . S
C1476 C1477 1.373 . S
C1476 C1478 1.389 . S
C1477 H1456 0.950 . S
C1477 C1476 1.373 . S
C1477 C1493 1.377 . S
C1478 C1476 1.389 . S
C1478 C1479 1.524 . S
C1478 C1492 1.377 . S
C1479 C1478 1.524 . S
C1479 C1480 1.397 . S
C1479 C1484 1.363 . S
C1480 H1457 0.950 . S
C1480 C1479 1.397 . S
C1480 C1481 1.334 . S
C1481 H1458 0.950 . S
C1481 C1480 1.334 . S
C1481 C1482 1.287 . S
C1482 C1481 1.287 . S
C1482 C1483 1.524 . S
C1482 H1501 0.913 . S
C1483 H1459 0.950 . S
C1483 C1482 1.524 . S
C1483 C1484 1.415 . S
C1484 H1460 0.950 . S
C1484 C1479 1.363 . S
C1484 C1483 1.415 . S
C1485 H1461 0.951 . S
C1485 C1486 1.366 . S
C1485 C1487 1.388 . S
C1486 C1485 1.366 . S
C1486 C1490 1.385 . S
C1487 H1462 0.951 . S
C1487 C1485 1.388 . S
C1487 C1488 1.366 . S
C1488 C1487 1.366 . S
C1488 C1489 1.414 . S
C1488 C1491 1.499 . S
C1489 H1463 0.950 . S
C1489 C1488 1.414 . S
C1489 C1490 1.374 . S
C1490 H1464 0.950 . S
C1490 C1486 1.385 . S
C1490 C1489 1.374 . S
C1491 C1488 1.499 . S
C1491 C1492 1.373 . S
C1491 C1493 1.389 . S
C1492 H1465 0.950 . S
C1492 C1478 1.377 . S
C1492 C1491 1.373 . S
C1493 C1477 1.377 . S
C1493 C1491 1.389 . S
C1493 C1494 1.524 . S
C1494 C1493 1.524 . S
C1494 C1495 1.397 . S
C1494 C1499 1.363 . S
C1495 H1466 0.950 . S
C1495 C1494 1.397 . S
C1495 C1496 1.334 . S
C1496 H1467 0.950 . S
C1496 C1495 1.334 . S
C1496 C1497 1.287 . S
C1497 C1496 1.287 . S
C1497 C1498 1.524 . S
C1497 H1500 0.999 . S
C1498 H1468 0.950 . S
C1498 C1497 1.524 . S
C1498 C1499 1.415 . S
C1499 H1469 0.950 . S
C1499 C1494 1.363 . S
C1499 C1498 1.415 . S
H1500 C1497 0.999 . S
H1501 C1482 0.913 . S
H1502 C1520 0.951 . S
H1503 C1522 0.951 . S
H1504 C1524 0.950 . S
H1505 C1525 0.950 . S
H1506 C1527 0.950 . S
H1507 C1530 0.950 . S
H1508 C1531 0.950 . S
H1509 C1533 0.950 . S
H1510 C1534 0.950 . S
H1511 C1535 0.951 . S
H1512 C1537 0.951 . S
H1513 C1539 0.950 . S
H1514 C1540 0.950 . S
H1515 C1542 0.950 . S
H1516 C1545 0.950 . S
H1517 C1546 0.950 . S
H1518 C1548 0.950 . S
H1519 C1549 0.950 . S
C1520 H1502 0.951 . S
C1520 C1521 1.366 . S
C1520 C1522 1.388 . S
C1521 C1520 1.366 . S
C1521 C1525 1.385 . S
C1522 H1503 0.951 . S
C1522 C1520 1.388 . S
C1522 C1523 1.366 . S
C1523 C1522 1.366 . S
C1523 C1524 1.414 . S
C1523 C1526 1.499 . S
C1524 H1504 0.950 . S
C1524 C1523 1.414 . S
C1524 C1525 1.374 . S
C1525 H1505 0.950 . S
C1525 C1521 1.385 . S
C1525 C1524 1.374 . S
C1526 C1523 1.499 . S
C1526 C1527 1.373 . S
C1526 C1528 1.389 . S
C1527 H1506 0.950 . S
C1527 C1526 1.373 . S
C1527 C1543 1.377 . S
C1528 C1526 1.389 . S
C1528 C1529 1.524 . S
C1528 C1542 1.377 . S
C1529 C1528 1.524 . S
C1529 C1530 1.397 . S
C1529 C1534 1.363 . S
C1530 H1507 0.950 . S
C1530 C1529 1.397 . S
C1530 C1531 1.334 . S
C1531 H1508 0.950 . S
C1531 C1530 1.334 . S
C1531 C1532 1.287 . S
C1532 C1531 1.287 . S
C1532 C1533 1.524 . S
C1532 H1551 0.913 . S
C1533 H1509 0.950 . S
C1533 C1532 1.524 . S
C1533 C1534 1.415 . S
C1534 H1510 0.950 . S
C1534 C1529 1.363 . S
C1534 C1533 1.415 . S
C1535 H1511 0.951 . S
C1535 C1536 1.366 . S
C1535 C1537 1.388 . S
C1536 C1535 1.366 . S
C1536 C1540 1.385 . S
C1537 H1512 0.951 . S
C1537 C1535 1.388 . S
C1537 C1538 1.366 . S
C1538 C1537 1.366 . S
C1538 C1539 1.414 . S
C1538 C1541 1.499 . S
C1539 H1513 0.950 . S
C1539 C1538 1.414 . S
C1539 C1540 1.374 . S
C1540 H1514 0.950 . S
C1540 C1536 1.385 . S
C1540 C1539 1.374 . S
C1541 C1538 1.499 . S
C1541 C1542 1.373 . S
C1541 C1543 1.389 . S
C1542 H1515 0.950 . S
C1542 C1528 1.377 . S
C1542 C1541 1.373 . S
C1543 C1527 1.377 . S
C1543 C1541 1.389 . S
C1543 C1544 1.524 . S
C1544 C1543 1.524 . S
C1544 C1545 1.397 . S
C1544 C1549 1.363 . S
C1545 H1516 0.950 . S
C1545 C1544 1.397 . S
C1545 C1546 1.334 . S
C1546 H1517 0.950 . S
C1546 C1545 1.334 . S
C1546 C1547 1.287 . S
C1547 C1546 1.287 . S
C1547 C1548 1.524 . S
C1547 H1550 0.999 . S
C1548 H1518 0.950 . S
C1548 C1547 1.524 . S
C1548 C1549 1.415 . S
C1549 H1519 0.950 . S
C1549 C1544 1.363 . S
C1549 C1548 1.415 . S
H1550 C1547 0.999 . S
H1551 C1532 0.913 . S
H1552 C1570 0.951 . S
H1553 C1572 0.951 . S
H1554 C1574 0.950 . S
H1555 C1575 0.950 . S
H1556 C1577 0.950 . S
H1557 C1580 0.950 . S
H1558 C1581 0.950 . S
H1559 C1583 0.950 . S
H1560 C1584 0.950 . S
H1561 C1585 0.951 . S
H1562 C1587 0.951 . S
H1563 C1589 0.950 . S
H1564 C1590 0.950 . S
H1565 C1592 0.950 . S
H1566 C1595 0.950 . S
H1567 C1596 0.950 . S
H1568 C1598 0.950 . S
H1569 C1599 0.950 . S
C1570 H1552 0.951 . S
C1570 C1571 1.366 . S
C1570 C1572 1.388 . S
C1571 C1570 1.366 . S
C1571 C1575 1.385 . S
C1572 H1553 0.951 . S
C1572 C1570 1.388 . S
C1572 C1573 1.366 . S
C1573 C1572 1.366 . S
C1573 C1574 1.414 . S
C1573 C1576 1.499 . S
C1574 H1554 0.950 . S
C1574 C1573 1.414 . S
C1574 C1575 1.374 . S
C1575 H1555 0.950 . S
C1575 C1571 1.385 . S
C1575 C1574 1.374 . S
C1576 C1573 1.499 . S
C1576 C1577 1.373 . S
C1576 C1578 1.389 . S
C1577 H1556 0.950 . S
C1577 C1576 1.373 . S
C1577 C1593 1.377 . S
C1578 C1576 1.389 . S
C1578 C1579 1.524 . S
C1578 C1592 1.377 . S
C1579 C1578 1.524 . S
C1579 C1580 1.397 . S
C1579 C1584 1.363 . S
C1580 H1557 0.950 . S
C1580 C1579 1.397 . S
C1580 C1581 1.334 . S
C1581 H1558 0.950 . S
C1581 C1580 1.334 . S
C1581 C1582 1.287 . S
C1582 C1581 1.287 . S
C1582 C1583 1.524 . S
C1582 H1601 0.913 . S
C1583 H1559 0.950 . S
C1583 C1582 1.524 . S
C1583 C1584 1.415 . S
C1584 H1560 0.950 . S
C1584 C1579 1.363 . S
C1584 C1583 1.415 . S
C1585 H1561 0.951 . S
C1585 C1586 1.366 . S
C1585 C1587 1.388 . S
C1586 C1585 1.366 . S
C1586 C1590 1.385 . S
C1587 H1562 0.951 . S
C1587 C1585 1.388 . S
C1587 C1588 1.366 . S
C1588 C1587 1.366 . S
C1588 C1589 1.414 . S
C1588 C1591 1.499 . S
C1589 H1563 0.950 . S
C1589 C1588 1.414 . S
C1589 C1590 1.374 . S
C1590 H1564 0.950 . S
C1590 C1586 1.385 . S
C1590 C1589 1.374 . S
C1591 C1588 1.499 . S
C1591 C1592 1.373 . S
C1591 C1593 1.389 . S
C1592 H1565 0.950 . S
C1592 C1578 1.377 . S
C1592 C1591 1.373 . S
C1593 C1577 1.377 . S
C1593 C1591 1.389 . S
C1593 C1594 1.524 . S
C1594 C1593 1.524 . S
C1594 C1595 1.397 . S
C1594 C1599 1.363 . S
C1595 H1566 0.950 . S
C1595 C1594 1.397 . S
C1595 C1596 1.334 . S
C1596 H1567 0.950 . S
C1596 C1595 1.334 . S
C1596 C1597 1.287 . S
C1597 C1596 1.287 . S
C1597 C1598 1.524 . S
C1597 H1600 0.999 . S
C1598 H1568 0.950 . S
C1598 C1597 1.524 . S
C1598 C1599 1.415 . S
C1599 H1569 0.950 . S
C1599 C1594 1.363 . S
C1599 C1598 1.415 . S
H1600 C1597 0.999 . S
H1601 C1582 0.913 . S
H1602 C1620 0.951 . S
H1603 C1622 0.951 . S
H1604 C1624 0.950 . S
H1605 C1625 0.950 . S
H1606 C1627 0.950 . S
H1607 C1630 0.950 . S
H1608 C1631 0.950 . S
H1609 C1633 0.950 . S
H1610 C1634 0.950 . S
H1611 C1635 0.951 . S
H1612 C1637 0.951 . S
H1613 C1639 0.950 . S
H1614 C1640 0.950 . S
H1615 C1642 0.950 . S
H1616 C1645 0.950 . S
H1617 C1646 0.950 . S
H1618 C1648 0.950 . S
H1619 C1649 0.950 . S
C1620 H1602 0.951 . S
C1620 C1621 1.366 . S
C1620 C1622 1.388 . S
C1621 C1620 1.366 . S
C1621 C1625 1.385 . S
C1622 H1603 0.951 . S
C1622 C1620 1.388 . S
C1622 C1623 1.366 . S
C1623 C1622 1.366 . S
C1623 C1624 1.414 . S
C1623 C1626 1.499 . S
C1624 H1604 0.950 . S
C1624 C1623 1.414 . S
C1624 C1625 1.374 . S
C1625 H1605 0.950 . S
C1625 C1621 1.385 . S
C1625 C1624 1.374 . S
C1626 C1623 1.499 . S
C1626 C1627 1.373 . S
C1626 C1628 1.389 . S
C1627 H1606 0.950 . S
C1627 C1626 1.373 . S
C1627 C1643 1.377 1_455 S
C1628 C1626 1.389 . S
C1628 C1629 1.524 . S
C1628 C1642 1.377 1_455 S
C1629 C1628 1.524 . S
C1629 C1630 1.397 . S
C1629 C1634 1.363 . S
C1630 H1607 0.950 . S
C1630 C1629 1.397 . S
C1630 C1631 1.334 . S
C1631 H1608 0.950 . S
C1631 C1630 1.334 . S
C1631 C1632 1.287 . S
C1632 C1631 1.287 . S
C1632 C1633 1.524 . S
C1632 H1651 0.913 . S
C1633 H1609 0.950 . S
C1633 C1632 1.524 . S
C1633 C1634 1.415 . S
C1634 H1610 0.950 . S
C1634 C1629 1.363 . S
C1634 C1633 1.415 . S
C1635 H1611 0.951 . S
C1635 C1636 1.366 . S
C1635 C1637 1.388 . S
C1636 C1635 1.366 . S
C1636 C1640 1.385 . S
C1637 H1612 0.951 . S
C1637 C1635 1.388 . S
C1637 C1638 1.366 . S
C1638 C1637 1.366 . S
C1638 C1639 1.414 . S
C1638 C1641 1.499 . S
C1639 H1613 0.950 . S
C1639 C1638 1.414 . S
C1639 C1640 1.374 . S
C1640 H1614 0.950 . S
C1640 C1636 1.385 . S
C1640 C1639 1.374 . S
C1641 C1638 1.499 . S
C1641 C1642 1.373 . S
C1641 C1643 1.389 . S
C1642 H1615 0.950 . S
C1642 C1628 1.377 1_655 S
C1642 C1641 1.373 . S
C1643 C1627 1.377 1_655 S
C1643 C1641 1.389 . S
C1643 C1644 1.524 . S
C1644 C1643 1.524 . S
C1644 C1645 1.397 . S
C1644 C1649 1.363 . S
C1645 H1616 0.950 . S
C1645 C1644 1.397 . S
C1645 C1646 1.334 . S
C1646 H1617 0.950 . S
C1646 C1645 1.334 . S
C1646 C1647 1.287 . S
C1647 C1646 1.287 . S
C1647 C1648 1.524 . S
C1647 H1650 0.999 . S
C1648 H1618 0.950 . S
C1648 C1647 1.524 . S
C1648 C1649 1.415 . S
C1649 H1619 0.950 . S
C1649 C1644 1.363 . S
C1649 C1648 1.415 . S
H1650 C1647 0.999 . S
H1651 C1632 0.913 . S
H1652 C1670 0.951 . S
H1653 C1672 0.951 . S
H1654 C1674 0.950 . S
H1655 C1675 0.950 . S
H1656 C1677 0.950 . S
H1657 C1680 0.950 . S
H1658 C1681 0.950 . S
H1659 C1683 0.950 . S
H1660 C1684 0.950 . S
H1661 C1685 0.951 . S
H1662 C1687 0.951 . S
H1663 C1689 0.950 . S
H1664 C1690 0.950 . S
H1665 C1692 0.950 . S
H1666 C1695 0.950 . S
H1667 C1696 0.950 . S
H1668 C1698 0.950 . S
H1669 C1699 0.950 . S
C1670 H1652 0.951 . S
C1670 C1671 1.366 . S
C1670 C1672 1.388 . S
C1671 C1670 1.366 . S
C1671 C1675 1.385 . S
C1672 H1653 0.951 . S
C1672 C1670 1.388 . S
C1672 C1673 1.366 . S
C1673 C1672 1.366 . S
C1673 C1674 1.414 . S
C1673 C1676 1.499 . S
C1674 H1654 0.950 . S
C1674 C1673 1.414 . S
C1674 C1675 1.374 . S
C1675 H1655 0.950 . S
C1675 C1671 1.385 . S
C1675 C1674 1.374 . S
C1676 C1673 1.499 . S
C1676 C1677 1.373 . S
C1676 C1678 1.389 . S
C1677 H1656 0.950 . S
C1677 C1676 1.373 . S
C1677 C1693 1.377 . S
C1678 C1676 1.389 . S
C1678 C1679 1.524 . S
C1678 C1692 1.377 . S
C1679 C1678 1.524 . S
C1679 C1680 1.397 . S
C1679 C1684 1.363 . S
C1680 H1657 0.950 . S
C1680 C1679 1.397 . S
C1680 C1681 1.334 . S
C1681 H1658 0.950 . S
C1681 C1680 1.334 . S
C1681 C1682 1.287 . S
C1682 C1681 1.287 . S
C1682 C1683 1.524 . S
C1682 H1701 0.913 . S
C1683 H1659 0.950 . S
C1683 C1682 1.524 . S
C1683 C1684 1.415 . S
C1684 H1660 0.950 . S
C1684 C1679 1.363 . S
C1684 C1683 1.415 . S
C1685 H1661 0.951 . S
C1685 C1686 1.366 . S
C1685 C1687 1.388 . S
C1686 C1685 1.366 . S
C1686 C1690 1.385 . S
C1687 H1662 0.951 . S
C1687 C1685 1.388 . S
C1687 C1688 1.366 . S
C1688 C1687 1.366 . S
C1688 C1689 1.414 . S
C1688 C1691 1.499 . S
C1689 H1663 0.950 . S
C1689 C1688 1.414 . S
C1689 C1690 1.374 . S
C1690 H1664 0.950 . S
C1690 C1686 1.385 . S
C1690 C1689 1.374 . S
C1691 C1688 1.499 . S
C1691 C1692 1.373 . S
C1691 C1693 1.389 . S
C1692 H1665 0.950 . S
C1692 C1678 1.377 . S
C1692 C1691 1.373 . S
C1693 C1677 1.377 . S
C1693 C1691 1.389 . S
C1693 C1694 1.524 . S
C1694 C1693 1.524 . S
C1694 C1695 1.397 . S
C1694 C1699 1.363 . S
C1695 H1666 0.950 . S
C1695 C1694 1.397 . S
C1695 C1696 1.334 . S
C1696 H1667 0.950 . S
C1696 C1695 1.334 . S
C1696 C1697 1.287 . S
C1697 C1696 1.287 . S
C1697 C1698 1.524 . S
C1697 H1700 0.999 . S
C1698 H1668 0.950 . S
C1698 C1697 1.524 . S
C1698 C1699 1.415 . S
C1699 H1669 0.950 . S
C1699 C1694 1.363 . S
C1699 C1698 1.415 . S
H1700 C1697 0.999 . S
H1701 C1682 0.913 . S
H1702 C1720 0.951 . S
H1703 C1722 0.951 . S
H1704 C1724 0.950 . S
H1705 C1725 0.950 . S
H1706 C1727 0.950 . S
H1707 C1730 0.950 . S
H1708 C1731 0.950 . S
H1709 C1733 0.950 . S
H1710 C1734 0.950 . S
H1711 C1735 0.951 . S
H1712 C1737 0.951 . S
H1713 C1739 0.950 . S
H1714 C1740 0.950 . S
H1715 C1742 0.950 . S
H1716 C1745 0.950 . S
H1717 C1746 0.950 . S
H1718 C1748 0.950 . S
H1719 C1749 0.950 . S
C1720 H1702 0.951 . S
C1720 C1721 1.366 . S
C1720 C1722 1.388 . S
C1721 C1720 1.366 . S
C1721 C1725 1.385 . S
C1722 H1703 0.951 . S
C1722 C1720 1.388 . S
C1722 C1723 1.366 . S
C1723 C1722 1.366 . S
C1723 C1724 1.414 . S
C1723 C1726 1.499 . S
C1724 H1704 0.950 . S
C1724 C1723 1.414 . S
C1724 C1725 1.374 . S
C1725 H1705 0.950 . S
C1725 C1721 1.385 . S
C1725 C1724 1.374 . S
C1726 C1723 1.499 . S
C1726 C1727 1.373 . S
C1726 C1728 1.389 . S
C1727 H1706 0.950 . S
C1727 C1726 1.373 . S
C1727 C1743 1.377 1_655 S
C1728 C1726 1.389 . S
C1728 C1729 1.524 . S
C1728 C1742 1.377 1_655 S
C1729 C1728 1.524 . S
C1729 C1730 1.397 . S
C1729 C1734 1.363 . S
C1730 H1707 0.950 . S
C1730 C1729 1.397 . S
C1730 C1731 1.334 . S
C1731 H1708 0.950 . S
C1731 C1730 1.334 . S
C1731 C1732 1.287 . S
C1732 C1731 1.287 . S
C1732 C1733 1.524 . S
C1732 H1751 0.913 . S
C1733 H1709 0.950 . S
C1733 C1732 1.524 . S
C1733 C1734 1.415 . S
C1734 H1710 0.950 . S
C1734 C1729 1.363 . S
C1734 C1733 1.415 . S
C1735 H1711 0.951 . S
C1735 C1736 1.366 . S
C1735 C1737 1.388 . S
C1736 C1735 1.366 . S
C1736 C1740 1.385 . S
C1737 H1712 0.951 . S
C1737 C1735 1.388 . S
C1737 C1738 1.366 . S
C1738 C1737 1.366 . S
C1738 C1739 1.414 . S
C1738 C1741 1.499 . S
C1739 H1713 0.950 . S
C1739 C1738 1.414 . S
C1739 C1740 1.374 . S
C1740 H1714 0.950 . S
C1740 C1736 1.385 . S
C1740 C1739 1.374 . S
C1741 C1738 1.499 . S
C1741 C1742 1.373 . S
C1741 C1743 1.389 . S
C1742 H1715 0.950 . S
C1742 C1728 1.377 1_455 S
C1742 C1741 1.373 . S
C1743 C1727 1.377 1_455 S
C1743 C1741 1.389 . S
C1743 C1744 1.524 . S
C1744 C1743 1.524 . S
C1744 C1745 1.397 . S
C1744 C1749 1.363 . S
C1745 H1716 0.950 . S
C1745 C1744 1.397 . S
C1745 C1746 1.334 . S
C1746 H1717 0.950 . S
C1746 C1745 1.334 . S
C1746 C1747 1.287 . S
C1747 C1746 1.287 . S
C1747 C1748 1.524 . S
C1747 H1750 0.999 . S
C1748 H1718 0.950 . S
C1748 C1747 1.524 . S
C1748 C1749 1.415 . S
C1749 H1719 0.950 . S
C1749 C1744 1.363 . S
C1749 C1748 1.415 . S
H1750 C1747 0.999 . S
H1751 C1732 0.913 . S
H1752 C1770 0.951 . S
H1753 C1772 0.951 . S
H1754 C1774 0.950 . S
H1755 C1775 0.950 . S
H1756 C1777 0.950 . S
H1757 C1780 0.950 . S
H1758 C1781 0.950 . S
H1759 C1783 0.950 . S
H1760 C1784 0.950 . S
H1761 C1785 0.951 . S
H1762 C1787 0.951 . S
H1763 C1789 0.950 . S
H1764 C1790 0.950 . S
H1765 C1792 0.950 . S
H1766 C1795 0.950 . S
H1767 C1796 0.950 . S
H1768 C1798 0.950 . S
H1769 C1799 0.950 . S
C1770 H1752 0.951 . S
C1770 C1771 1.366 . S
C1770 C1772 1.388 . S
C1771 C1770 1.366 . S
C1771 C1775 1.385 . S
C1772 H1753 0.951 . S
C1772 C1770 1.388 . S
C1772 C1773 1.366 . S
C1773 C1772 1.366 . S
C1773 C1774 1.414 . S
C1773 C1776 1.499 . S
C1774 H1754 0.950 . S
C1774 C1773 1.414 . S
C1774 C1775 1.374 . S
C1775 H1755 0.950 . S
C1775 C1771 1.385 . S
C1775 C1774 1.374 . S
C1776 C1773 1.499 . S
C1776 C1777 1.373 . S
C1776 C1778 1.389 . S
C1777 H1756 0.950 . S
C1777 C1776 1.373 . S
C1777 C1793 1.377 1_655 S
C1778 C1776 1.389 . S
C1778 C1779 1.524 . S
C1778 C1792 1.377 1_655 S
C1779 C1778 1.524 . S
C1779 C1780 1.397 . S
C1779 C1784 1.363 . S
C1780 H1757 0.950 . S
C1780 C1779 1.397 . S
C1780 C1781 1.334 . S
C1781 H1758 0.950 . S
C1781 C1780 1.334 . S
C1781 C1782 1.287 . S
C1782 C1781 1.287 . S
C1782 C1783 1.524 . S
C1782 H1801 0.913 . S
C1783 H1759 0.950 . S
C1783 C1782 1.524 . S
C1783 C1784 1.415 . S
C1784 H1760 0.950 . S
C1784 C1779 1.363 . S
C1784 C1783 1.415 . S
C1785 H1761 0.951 . S
C1785 C1786 1.366 . S
C1785 C1787 1.388 . S
C1786 C1785 1.366 . S
C1786 C1790 1.385 . S
C1787 H1762 0.951 . S
C1787 C1785 1.388 . S
C1787 C1788 1.366 . S
C1788 C1787 1.366 . S
C1788 C1789 1.414 . S
C1788 C1791 1.499 . S
C1789 H1763 0.950 . S
C1789 C1788 1.414 . S
C1789 C1790 1.374 . S
C1790 H1764 0.950 . S
C1790 C1786 1.385 . S
C1790 C1789 1.374 . S
C1791 C1788 1.499 . S
C1791 C1792 1.373 . S
C1791 C1793 1.389 . S
C1792 H1765 0.950 . S
C1792 C1778 1.377 1_455 S
C1792 C1791 1.373 . S
C1793 C1777 1.377 1_455 S
C1793 C1791 1.389 . S
C1793 C1794 1.524 . S
C1794 C1793 1.524 . S
C1794 C1795 1.397 . S
C1794 C1799 1.363 . S
C1795 H1766 0.950 . S
C1795 C1794 1.397 . S
C1795 C1796 1.334 . S
C1796 H1767 0.950 . S
C1796 C1795 1.334 . S
C1796 C1797 1.287 . S
C1797 C1796 1.287 . S
C1797 C1798 1.524 . S
C1797 H1800 0.999 . S
C1798 H1768 0.950 . S
C1798 C1797 1.524 . S
C1798 C1799 1.415 . S
C1799 H1769 0.950 . S
C1799 C1794 1.363 . S
C1799 C1798 1.415 . S
H1800 C1797 0.999 . S
H1801 C1782 0.913 . S
H1802 C1820 0.951 . S
H1803 C1822 0.951 . S
H1804 C1824 0.950 . S
H1805 C1825 0.950 . S
H1806 C1827 0.950 . S
H1807 C1830 0.950 . S
H1808 C1831 0.950 . S
H1809 C1833 0.950 . S
H1810 C1834 0.950 . S
H1811 C1835 0.951 . S
H1812 C1837 0.951 . S
H1813 C1839 0.950 . S
H1814 C1840 0.950 . S
H1815 C1842 0.950 . S
H1816 C1845 0.950 . S
H1817 C1846 0.950 . S
H1818 C1848 0.950 . S
H1819 C1849 0.950 . S
C1820 H1802 0.951 . S
C1820 C1821 1.366 . S
C1820 C1822 1.388 . S
C1821 C1820 1.366 . S
C1821 C1825 1.385 . S
C1822 H1803 0.951 . S
C1822 C1820 1.388 . S
C1822 C1823 1.366 . S
C1823 C1822 1.366 . S
C1823 C1824 1.414 . S
C1823 C1826 1.499 . S
C1824 H1804 0.950 . S
C1824 C1823 1.414 . S
C1824 C1825 1.374 . S
C1825 H1805 0.950 . S
C1825 C1821 1.385 . S
C1825 C1824 1.374 . S
C1826 C1823 1.499 . S
C1826 C1827 1.373 . S
C1826 C1828 1.389 . S
C1827 H1806 0.950 . S
C1827 C1826 1.373 . S
C1827 C1843 1.377 . S
C1828 C1826 1.389 . S
C1828 C1829 1.524 . S
C1828 C1842 1.377 . S
C1829 C1828 1.524 . S
C1829 C1830 1.397 . S
C1829 C1834 1.363 . S
C1830 H1807 0.950 . S
C1830 C1829 1.397 . S
C1830 C1831 1.334 . S
C1831 H1808 0.950 . S
C1831 C1830 1.334 . S
C1831 C1832 1.287 . S
C1832 C1831 1.287 . S
C1832 C1833 1.524 . S
C1832 H1851 0.913 . S
C1833 H1809 0.950 . S
C1833 C1832 1.524 . S
C1833 C1834 1.415 . S
C1834 H1810 0.950 . S
C1834 C1829 1.363 . S
C1834 C1833 1.415 . S
C1835 H1811 0.951 . S
C1835 C1836 1.366 . S
C1835 C1837 1.388 . S
C1836 C1835 1.366 . S
C1836 C1840 1.385 . S
C1837 H1812 0.951 . S
C1837 C1835 1.388 . S
C1837 C1838 1.366 . S
C1838 C1837 1.366 . S
C1838 C1839 1.414 . S
C1838 C1841 1.499 . S
C1839 H1813 0.950 . S
C1839 C1838 1.414 . S
C1839 C1840 1.374 . S
C1840 H1814 0.950 . S
C1840 C1836 1.385 . S
C1840 C1839 1.374 . S
C1841 C1838 1.499 . S
C1841 C1842 1.373 . S
C1841 C1843 1.389 . S
C1842 H1815 0.950 . S
C1842 C1828 1.377 . S
C1842 C1841 1.373 . S
C1843 C1827 1.377 . S
C1843 C1841 1.389 . S
C1843 C1844 1.524 . S
C1844 C1843 1.524 . S
C1844 C1845 1.397 . S
C1844 C1849 1.363 . S
C1845 H1816 0.950 . S
C1845 C1844 1.397 . S
C1845 C1846 1.334 . S
C1846 H1817 0.950 . S
C1846 C1845 1.334 . S
C1846 C1847 1.287 . S
C1847 C1846 1.287 . S
C1847 C1848 1.524 . S
C1847 H1850 0.999 . S
C1848 H1818 0.950 . S
C1848 C1847 1.524 . S
C1848 C1849 1.415 . S
C1849 H1819 0.950 . S
C1849 C1844 1.363 . S
C1849 C1848 1.415 . S
H1850 C1847 0.999 . S
H1851 C1832 0.913 . S
H1852 C1870 0.951 . S
H1853 C1872 0.951 . S
H1854 C1874 0.950 . S
H1855 C1875 0.950 . S
H1856 C1877 0.950 . S
H1857 C1880 0.950 . S
H1858 C1881 0.950 . S
H1859 C1883 0.950 . S
H1860 C1884 0.950 . S
H1861 C1885 0.951 . S
H1862 C1887 0.951 . S
H1863 C1889 0.950 . S
H1864 C1890 0.950 . S
H1865 C1892 0.950 . S
H1866 C1895 0.950 . S
H1867 C1896 0.950 . S
H1868 C1898 0.950 . S
H1869 C1899 0.950 . S
C1870 H1852 0.951 . S
C1870 C1871 1.366 . S
C1870 C1872 1.388 . S
C1871 C1870 1.366 . S
C1871 C1875 1.385 . S
C1872 H1853 0.951 . S
C1872 C1870 1.388 . S
C1872 C1873 1.366 . S
C1873 C1872 1.366 . S
C1873 C1874 1.414 . S
C1873 C1876 1.499 . S
C1874 H1854 0.950 . S
C1874 C1873 1.414 . S
C1874 C1875 1.374 . S
C1875 H1855 0.950 . S
C1875 C1871 1.385 . S
C1875 C1874 1.374 . S
C1876 C1873 1.499 . S
C1876 C1877 1.373 . S
C1876 C1878 1.389 . S
C1877 H1856 0.950 . S
C1877 C1876 1.373 . S
C1877 C1893 1.377 1_455 S
C1878 C1876 1.389 . S
C1878 C1879 1.524 . S
C1878 C1892 1.377 1_455 S
C1879 C1878 1.524 . S
C1879 C1880 1.397 . S
C1879 C1884 1.363 . S
C1880 H1857 0.950 . S
C1880 C1879 1.397 . S
C1880 C1881 1.334 . S
C1881 H1858 0.950 . S
C1881 C1880 1.334 . S
C1881 C1882 1.287 . S
C1882 C1881 1.287 . S
C1882 C1883 1.524 . S
C1882 H1901 0.913 . S
C1883 H1859 0.950 . S
C1883 C1882 1.524 . S
C1883 C1884 1.415 . S
C1884 H1860 0.950 . S
C1884 C1879 1.363 . S
C1884 C1883 1.415 . S
C1885 H1861 0.951 . S
C1885 C1886 1.366 . S
C1885 C1887 1.388 . S
C1886 C1885 1.366 . S
C1886 C1890 1.385 . S
C1887 H1862 0.951 . S
C1887 C1885 1.388 . S
C1887 C1888 1.366 . S
C1888 C1887 1.366 . S
C1888 C1889 1.414 . S
C1888 C1891 1.499 . S
C1889 H1863 0.950 . S
C1889 C1888 1.414 . S
C1889 C1890 1.374 . S
C1890 H1864 0.950 . S
C1890 C1886 1.385 . S
C1890 C1889 1.374 . S
C1891 C1888 1.499 . S
C1891 C1892 1.373 . S
C1891 C1893 1.389 . S
C1892 H1865 0.950 . S
C1892 C1878 1.377 1_655 S
C1892 C1891 1.373 . S
C1893 C1877 1.377 1_655 S
C1893 C1891 1.389 . S
C1893 C1894 1.524 . S
C1894 C1893 1.524 . S
C1894 C1895 1.397 . S
C1894 C1899 1.363 . S
C1895 H1866 0.950 . S
C1895 C1894 1.397 . S
C1895 C1896 1.334 . S
C1896 H1867 0.950 . S
C1896 C1895 1.334 . S
C1896 C1897 1.287 . S
C1897 C1896 1.287 . S
C1897 C1898 1.524 . S
C1897 H1900 0.999 . S
C1898 H1868 0.950 . S
C1898 C1897 1.524 . S
C1898 C1899 1.415 . S
C1899 H1869 0.950 . S
C1899 C1894 1.363 . S
C1899 C1898 1.415 . S
H1900 C1897 0.999 . S
H1901 C1882 0.913 . S
H1902 C1920 0.951 . S
H1903 C1922 0.951 . S
H1904 C1924 0.950 . S
H1905 C1925 0.950 . S
H1906 C1927 0.950 . S
H1907 C1930 0.950 . S
H1908 C1931 0.950 . S
H1909 C1933 0.950 . S
H1910 C1934 0.950 . S
H1911 C1935 0.951 . S
H1912 C1937 0.951 . S
H1913 C1939 0.950 . S
H1914 C1940 0.950 . S
H1915 C1942 0.950 . S
H1916 C1945 0.950 . S
H1917 C1946 0.950 . S
H1918 C1948 0.950 . S
H1919 C1949 0.950 . S
C1920 H1902 0.951 . S
C1920 C1921 1.366 . S
C1920 C1922 1.388 . S
C1921 C1920 1.366 . S
C1921 C1925 1.385 . S
C1922 H1903 0.951 . S
C1922 C1920 1.388 . S
C1922 C1923 1.366 . S
C1923 C1922 1.366 . S
C1923 C1924 1.414 . S
C1923 C1926 1.499 . S
C1924 H1904 0.950 . S
C1924 C1923 1.414 . S
C1924 C1925 1.374 . S
C1925 H1905 0.950 . S
C1925 C1921 1.385 . S
C1925 C1924 1.374 . S
C1926 C1923 1.499 . S
C1926 C1927 1.373 . S
C1926 C1928 1.389 . S
C1927 H1906 0.950 . S
C1927 C1926 1.373 . S
C1927 C1943 1.377 . S
C1928 C1926 1.389 . S
C1928 C1929 1.524 . S
C1928 C1942 1.377 . S
C1929 C1928 1.524 . S
C1929 C1930 1.397 . S
C1929 C1934 1.363 . S
C1930 H1907 0.950 . S
C1930 C1929 1.397 . S
C1930 C1931 1.334 . S
C1931 H1908 0.950 . S
C1931 C1930 1.334 . S
C1931 C1932 1.287 . S
C1932 C1931 1.287 . S
C1932 C1933 1.524 . S
C1932 H1951 0.913 . S
C1933 H1909 0.950 . S
C1933 C1932 1.524 . S
C1933 C1934 1.415 . S
C1934 H1910 0.950 . S
C1934 C1929 1.363 . S
C1934 C1933 1.415 . S
C1935 H1911 0.951 . S
C1935 C1936 1.366 . S
C1935 C1937 1.388 . S
C1936 C1935 1.366 . S
C1936 C1940 1.385 . S
C1937 H1912 0.951 . S
C1937 C1935 1.388 . S
C1937 C1938 1.366 . S
C1938 C1937 1.366 . S
C1938 C1939 1.414 . S
C1938 C1941 1.499 . S
C1939 H1913 0.950 . S
C1939 C1938 1.414 . S
C1939 C1940 1.374 . S
C1940 H1914 0.950 . S
C1940 C1936 1.385 . S
C1940 C1939 1.374 . S
C1941 C1938 1.499 . S
C1941 C1942 1.373 . S
C1941 C1943 1.389 . S
C1942 H1915 0.950 . S
C1942 C1928 1.377 . S
C1942 C1941 1.373 . S
C1943 C1927 1.377 . S
C1943 C1941 1.389 . S
C1943 C1944 1.524 . S
C1944 C1943 1.524 . S
C1944 C1945 1.397 . S
C1944 C1949 1.363 . S
C1945 H1916 0.950 . S
C1945 C1944 1.397 . S
C1945 C1946 1.334 . S
C1946 H1917 0.950 . S
C1946 C1945 1.334 . S
C1946 C1947 1.287 . S
C1947 C1946 1.287 . S
C1947 C1948 1.524 . S
C1947 H1950 0.999 . S
C1948 H1918 0.950 . S
C1948 C1947 1.524 . S
C1948 C1949 1.415 . S
C1949 H1919 0.950 . S
C1949 C1944 1.363 . S
C1949 C1948 1.415 . S
H1950 C1947 0.999 . S
H1951 C1932 0.913 . S
H1952 C1970 0.951 . S
H1953 C1972 0.951 . S
H1954 C1974 0.950 1_565 S
H1955 C1975 0.950 . S
H1956 C1977 0.950 . S
H1957 C1980 0.950 . S
H1958 C1981 0.950 . S
H1959 C1983 0.950 . S
H1960 C1984 0.950 . S
H1961 C1985 0.951 . S
H1962 C1987 0.951 . S
H1963 C1989 0.950 . S
H1964 C1990 0.950 . S
H1965 C1992 0.950 . S
H1966 C1995 0.950 . S
H1967 C1996 0.950 . S
H1968 C1998 0.950 . S
H1969 C1999 0.950 . S
C1970 H1952 0.951 . S
C1970 C1971 1.366 . S
C1970 C1972 1.388 . S
C1971 C1970 1.366 . S
C1971 C1975 1.385 . S
C1972 H1953 0.951 . S
C1972 C1970 1.388 . S
C1972 C1973 1.366 1_545 S
C1973 C1972 1.366 1_565 S
C1973 C1974 1.414 1_565 S
C1973 C1976 1.499 . S
C1974 H1954 0.950 1_545 S
C1974 C1973 1.414 1_545 S
C1974 C1975 1.374 . S
C1975 H1955 0.950 . S
C1975 C1971 1.385 . S
C1975 C1974 1.374 . S
C1976 C1973 1.499 . S
C1976 C1977 1.373 . S
C1976 C1978 1.389 . S
C1977 H1956 0.950 . S
C1977 C1976 1.373 . S
C1977 C1993 1.377 . S
C1978 C1976 1.389 . S
C1978 C1979 1.524 . S
C1978 C1992 1.377 . S
C1979 C1978 1.524 . S
C1979 C1980 1.397 . S
C1979 C1984 1.363 . S
C1980 H1957 0.950 . S
C1980 C1979 1.397 . S
C1980 C1981 1.334 . S
C1981 H1958 0.950 . S
C1981 C1980 1.334 . S
C1981 C1982 1.287 . S
C1982 C1981 1.287 . S
C1982 C1983 1.524 . S
C1982 H2001 0.913 . S
C1983 H1959 0.950 . S
C1983 C1982 1.524 . S
C1983 C1984 1.415 . S
C1984 H1960 0.950 . S
C1984 C1979 1.363 . S
C1984 C1983 1.415 . S
C1985 H1961 0.951 . S
C1985 C1986 1.366 . S
C1985 C1987 1.388 . S
C1986 C1985 1.366 . S
C1986 C1990 1.385 . S
C1987 H1962 0.951 . S
C1987 C1985 1.388 . S
C1987 C1988 1.366 . S
C1988 C1987 1.366 . S
C1988 C1989 1.414 . S
C1988 C1991 1.499 . S
C1989 H1963 0.950 . S
C1989 C1988 1.414 . S
C1989 C1990 1.374 . S
C1990 H1964 0.950 . S
C1990 C1986 1.385 . S
C1990 C1989 1.374 . S
C1991 C1988 1.499 . S
C1991 C1992 1.373 . S
C1991 C1993 1.389 . S
C1992 H1965 0.950 . S
C1992 C1978 1.377 . S
C1992 C1991 1.373 . S
C1993 C1977 1.377 . S
C1993 C1991 1.389 . S
C1993 C1994 1.524 . S
C1994 C1993 1.524 . S
C1994 C1995 1.397 . S
C1994 C1999 1.363 . S
C1995 H1966 0.950 . S
C1995 C1994 1.397 . S
C1995 C1996 1.334 . S
C1996 H1967 0.950 . S
C1996 C1995 1.334 . S
C1996 C1997 1.287 . S
C1997 C1996 1.287 . S
C1997 C1998 1.524 . S
C1997 H2000 0.999 . S
C1998 H1968 0.950 . S
C1998 C1997 1.524 . S
C1998 C1999 1.415 . S
C1999 H1969 0.950 . S
C1999 C1994 1.363 . S
C1999 C1998 1.415 . S
H2000 C1997 0.999 . S
H2001 C1982 0.913 . S
H2002 C2020 0.951 . S
H2003 C2022 0.951 1_545 S
H2004 C2024 0.950 . S
H2005 C2025 0.950 . S
H2006 C2027 0.950 . S
H2007 C2030 0.950 1_565 S
H2008 C2031 0.950 . S
H2009 C2033 0.950 . S
H2010 C2034 0.950 . S
H2011 C2035 0.951 . S
H2012 C2037 0.951 . S
H2013 C2039 0.950 . S
H2014 C2040 0.950 . S
H2015 C2042 0.950 . S
H2016 C2045 0.950 . S
H2017 C2046 0.950 . S
H2018 C2048 0.950 . S
H2019 C2049 0.950 . S
C2020 H2002 0.951 . S
C2020 C2021 1.366 . S
C2020 C2022 1.388 . S
C2021 C2020 1.366 . S
C2021 C2025 1.385 . S
C2022 H2003 0.951 1_565 S
C2022 C2020 1.388 . S
C2022 C2023 1.366 1_565 S
C2023 C2022 1.366 1_545 S
C2023 C2024 1.414 1_545 S
C2023 C2026 1.499 . S
C2024 H2004 0.950 . S
C2024 C2023 1.414 1_565 S
C2024 C2025 1.374 . S
C2025 H2005 0.950 . S
C2025 C2021 1.385 . S
C2025 C2024 1.374 . S
C2026 C2023 1.499 . S
C2026 C2027 1.373 . S
C2026 C2028 1.389 . S
C2027 H2006 0.950 . S
C2027 C2026 1.373 . S
C2027 C2043 1.377 . S
C2028 C2026 1.389 . S
C2028 C2029 1.524 . S
C2028 C2042 1.377 . S
C2029 C2028 1.524 . S
C2029 C2030 1.397 . S
C2029 C2034 1.363 . S
C2030 H2007 0.950 1_545 S
C2030 C2029 1.397 . S
C2030 C2031 1.334 1_545 S
C2031 H2008 0.950 . S
C2031 C2030 1.334 1_565 S
C2031 C2032 1.287 . S
C2032 C2031 1.287 . S
C2032 C2033 1.524 1_565 S
C2032 H2051 0.913 . S
C2033 H2009 0.950 . S
C2033 C2032 1.524 1_545 S
C2033 C2034 1.415 . S
C2034 H2010 0.950 . S
C2034 C2029 1.363 . S
C2034 C2033 1.415 . S
C2035 H2011 0.951 . S
C2035 C2036 1.366 . S
C2035 C2037 1.388 . S
C2036 C2035 1.366 . S
C2036 C2040 1.385 . S
C2037 H2012 0.951 . S
C2037 C2035 1.388 . S
C2037 C2038 1.366 . S
C2038 C2037 1.366 . S
C2038 C2039 1.414 . S
C2038 C2041 1.499 . S
C2039 H2013 0.950 . S
C2039 C2038 1.414 . S
C2039 C2040 1.374 . S
C2040 H2014 0.950 . S
C2040 C2036 1.385 . S
C2040 C2039 1.374 . S
C2041 C2038 1.499 . S
C2041 C2042 1.373 . S
C2041 C2043 1.389 . S
C2042 H2015 0.950 . S
C2042 C2028 1.377 . S
C2042 C2041 1.373 . S
C2043 C2027 1.377 . S
C2043 C2041 1.389 . S
C2043 C2044 1.524 . S
C2044 C2043 1.524 . S
C2044 C2045 1.397 . S
C2044 C2049 1.363 . S
C2045 H2016 0.950 . S
C2045 C2044 1.397 . S
C2045 C2046 1.334 . S
C2046 H2017 0.950 . S
C2046 C2045 1.334 . S
C2046 C2047 1.287 . S
C2047 C2046 1.287 . S
C2047 C2048 1.524 . S
C2047 H2050 0.999 . S
C2048 H2018 0.950 . S
C2048 C2047 1.524 . S
C2048 C2049 1.415 . S
C2049 H2019 0.950 . S
C2049 C2044 1.363 . S
C2049 C2048 1.415 . S
H2050 C2047 0.999 . S
H2051 C2032 0.913 . S
H2052 C2070 0.951 . S
H2053 C2072 0.951 . S
H2054 C2074 0.950 . S
H2055 C2075 0.950 . S
H2056 C2077 0.950 . S
H2057 C2080 0.950 . S
H2058 C2081 0.950 . S
H2059 C2083 0.950 . S
H2060 C2084 0.950 . S
H2061 C2085 0.951 . S
H2062 C2087 0.951 1_545 S
H2063 C2089 0.950 . S
H2064 C2090 0.950 . S
H2065 C2092 0.950 . S
H2066 C2095 0.950 . S
H2067 C2096 0.950 . S
H2068 C2098 0.950 . S
H2069 C2099 0.950 . S
C2070 H2052 0.951 . S
C2070 C2071 1.366 . S
C2070 C2072 1.388 . S
C2071 C2070 1.366 . S
C2071 C2075 1.385 . S
C2072 H2053 0.951 . S
C2072 C2070 1.388 . S
C2072 C2073 1.366 . S
C2073 C2072 1.366 . S
C2073 C2074 1.414 . S
C2073 C2076 1.499 . S
C2074 H2054 0.950 . S
C2074 C2073 1.414 . S
C2074 C2075 1.374 . S
C2075 H2055 0.950 . S
C2075 C2071 1.385 . S
C2075 C2074 1.374 . S
C2076 C2073 1.499 . S
C2076 C2077 1.373 . S
C2076 C2078 1.389 . S
C2077 H2056 0.950 . S
C2077 C2076 1.373 . S
C2077 C2093 1.377 . S
C2078 C2076 1.389 . S
C2078 C2079 1.524 . S
C2078 C2092 1.377 . S
C2079 C2078 1.524 . S
C2079 C2080 1.397 . S
C2079 C2084 1.363 . S
C2080 H2057 0.950 . S
C2080 C2079 1.397 . S
C2080 C2081 1.334 . S
C2081 H2058 0.950 . S
C2081 C2080 1.334 . S
C2081 C2082 1.287 . S
C2082 C2081 1.287 . S
C2082 C2083 1.524 . S
C2082 H2101 0.913 . S
C2083 H2059 0.950 . S
C2083 C2082 1.524 . S
C2083 C2084 1.415 . S
C2084 H2060 0.950 . S
C2084 C2079 1.363 . S
C2084 C2083 1.415 . S
C2085 H2061 0.951 . S
C2085 C2086 1.366 . S
C2085 C2087 1.388 . S
C2086 C2085 1.366 . S
C2086 C2090 1.385 . S
C2087 H2062 0.951 1_565 S
C2087 C2085 1.388 . S
C2087 C2088 1.366 1_565 S
C2088 C2087 1.366 1_545 S
C2088 C2089 1.414 1_545 S
C2088 C2091 1.499 . S
C2089 H2063 0.950 . S
C2089 C2088 1.414 1_565 S
C2089 C2090 1.374 . S
C2090 H2064 0.950 . S
C2090 C2086 1.385 . S
C2090 C2089 1.374 . S
C2091 C2088 1.499 . S
C2091 C2092 1.373 . S
C2091 C2093 1.389 . S
C2092 H2065 0.950 . S
C2092 C2078 1.377 . S
C2092 C2091 1.373 . S
C2093 C2077 1.377 . S
C2093 C2091 1.389 . S
C2093 C2094 1.524 . S
C2094 C2093 1.524 . S
C2094 C2095 1.397 . S
C2094 C2099 1.363 . S
C2095 H2066 0.950 . S
C2095 C2094 1.397 . S
C2095 C2096 1.334 . S
C2096 H2067 0.950 . S
C2096 C2095 1.334 . S
C2096 C2097 1.287 . S
C2097 C2096 1.287 . S
C2097 C2098 1.524 . S
C2097 H2100 0.999 . S
C2098 H2068 0.950 . S
C2098 C2097 1.524 . S
C2098 C2099 1.415 . S
C2099 H2069 0.950 . S
C2099 C2094 1.363 . S
C2099 C2098 1.415 . S
H2100 C2097 0.999 . S
H2101 C2082 0.913 . S
H2102 C2120 0.951 . S
H2103 C2122 0.951 . S
H2104 C2124 0.950 . S
H2105 C2125 0.950 . S
H2106 C2127 0.950 . S
H2107 C2130 0.950 . S
H2108 C2131 0.950 . S
H2109 C2133 0.950 . S
H2110 C2134 0.950 . S
H2111 C2135 0.951 . S
H2112 C2137 0.935 1_565 S
H2113 C2139 0.950 . S
H2114 C2140 0.950 . S
H2115 C2142 0.950 . S
H2116 C2145 0.950 . S
H2117 C2146 0.950 . S
H2118 C2148 0.950 . S
H2119 C2149 0.950 . S
C2120 H2102 0.951 . S
C2120 C2121 1.366 . S
C2120 C2122 1.388 . S
C2121 C2120 1.366 . S
C2121 C2125 1.385 . S
C2122 H2103 0.951 . S
C2122 C2120 1.388 . S
C2122 C2123 1.366 . S
C2123 C2122 1.366 . S
C2123 C2124 1.414 . S
C2123 C2126 1.499 . S
C2124 H2104 0.950 . S
C2124 C2123 1.414 . S
C2124 C2125 1.374 . S
C2125 H2105 0.950 . S
C2125 C2121 1.385 . S
C2125 C2124 1.374 . S
C2126 C2123 1.499 . S
C2126 C2127 1.373 . S
C2126 C2128 1.389 . S
C2127 H2106 0.950 . S
C2127 C2126 1.373 . S
C2127 C2143 1.377 . S
C2128 C2126 1.389 . S
C2128 C2129 1.524 . S
C2128 C2142 1.377 . S
C2129 C2128 1.524 . S
C2129 C2130 1.397 . S
C2129 C2134 1.363 . S
C2130 H2107 0.950 . S
C2130 C2129 1.397 . S
C2130 C2131 1.334 . S
C2131 H2108 0.950 . S
C2131 C2130 1.334 . S
C2131 C2132 1.287 . S
C2132 C2131 1.287 . S
C2132 C2133 1.524 . S
C2132 H2151 0.913 . S
C2133 H2109 0.950 . S
C2133 C2132 1.524 . S
C2133 C2134 1.415 . S
C2134 H2110 0.950 . S
C2134 C2129 1.363 . S
C2134 C2133 1.415 . S
C2135 H2111 0.951 . S
C2135 C2136 1.366 . S
C2135 C2137 1.388 . S
C2136 C2135 1.366 . S
C2136 C2140 1.385 . S
C2137 H2112 0.935 1_545 S
C2137 C2135 1.388 . S
C2137 C2138 1.366 1_545 S
C2138 C2137 1.366 1_565 S
C2138 C2139 1.414 1_565 S
C2138 C2141 1.499 . S
C2139 H2113 0.950 . S
C2139 C2138 1.414 1_545 S
C2139 C2140 1.374 . S
C2140 H2114 0.950 . S
C2140 C2136 1.385 . S
C2140 C2139 1.374 . S
C2141 C2138 1.499 . S
C2141 C2142 1.373 . S
C2141 C2143 1.389 . S
C2142 H2115 0.950 . S
C2142 C2128 1.377 . S
C2142 C2141 1.373 . S
C2143 C2127 1.377 . S
C2143 C2141 1.389 . S
C2143 C2144 1.524 . S
C2144 C2143 1.524 . S
C2144 C2145 1.397 1_565 S
C2144 C2149 1.363 . S
C2145 H2116 0.950 . S
C2145 C2144 1.397 1_545 S
C2145 C2146 1.334 . S
C2146 H2117 0.950 . S
C2146 C2145 1.334 . S
C2146 C2147 1.287 . S
C2147 C2146 1.287 . S
C2147 C2148 1.524 1_545 S
C2147 H2150 0.999 . S
C2148 H2118 0.950 . S
C2148 C2147 1.524 1_565 S
C2148 C2149 1.415 . S
C2149 H2119 0.950 . S
C2149 C2144 1.363 . S
C2149 C2148 1.415 . S
H2150 C2147 0.999 . S
H2151 C2132 0.913 . S
H2152 C2170 0.951 . S
H2153 C2172 0.951 . S
H2154 C2174 0.950 . S
H2155 C2175 0.950 . S
H2156 C2177 0.950 . S
H2157 C2180 0.950 . S
H2158 C2181 0.950 . S
H2159 C2183 0.950 . S
H2160 C2184 0.950 . S
H2161 C2185 0.951 . S
H2162 C2187 0.951 . S
H2163 C2189 0.950 1_545 S
H2164 C2190 0.950 . S
H2165 C2192 0.950 . S
H2166 C2195 0.950 . S
H2167 C2196 0.950 . S
H2168 C2198 0.950 . S
H2169 C2199 0.950 . S
C2170 H2152 0.951 . S
C2170 C2171 1.366 . S
C2170 C2172 1.388 . S
C2171 C2170 1.366 . S
C2171 C2175 1.385 . S
C2172 H2153 0.951 . S
C2172 C2170 1.388 . S
C2172 C2173 1.366 . S
C2173 C2172 1.366 . S
C2173 C2174 1.414 . S
C2173 C2176 1.499 . S
C2174 H2154 0.950 . S
C2174 C2173 1.414 . S
C2174 C2175 1.374 . S
C2175 H2155 0.950 . S
C2175 C2171 1.385 . S
C2175 C2174 1.374 . S
C2176 C2173 1.499 . S
C2176 C2177 1.373 . S
C2176 C2178 1.389 . S
C2177 H2156 0.950 . S
C2177 C2176 1.373 . S
C2177 C2193 1.377 . S
C2178 C2176 1.389 . S
C2178 C2179 1.524 . S
C2178 C2192 1.377 . S
C2179 C2178 1.524 . S
C2179 C2180 1.397 . S
C2179 C2184 1.363 . S
C2180 H2157 0.950 . S
C2180 C2179 1.397 . S
C2180 C2181 1.334 . S
C2181 H2158 0.950 . S
C2181 C2180 1.334 . S
C2181 C2182 1.287 . S
C2182 C2181 1.287 . S
C2182 C2183 1.524 . S
C2182 H2201 0.913 . S
C2183 H2159 0.950 . S
C2183 C2182 1.524 . S
C2183 C2184 1.415 . S
C2184 H2160 0.950 . S
C2184 C2179 1.363 . S
C2184 C2183 1.415 . S
C2185 H2161 0.951 . S
C2185 C2186 1.366 . S
C2185 C2187 1.388 . S
C2186 C2185 1.366 . S
C2186 C2190 1.385 . S
C2187 H2162 0.951 . S
C2187 C2185 1.388 . S
C2187 C2188 1.366 1_565 S
C2188 C2187 1.366 1_545 S
C2188 C2189 1.414 1_545 S
C2188 C2191 1.499 . S
C2189 H2163 0.950 1_565 S
C2189 C2188 1.414 1_565 S
C2189 C2190 1.374 . S
C2190 H2164 0.950 . S
C2190 C2186 1.385 . S
C2190 C2189 1.374 . S
C2191 C2188 1.499 . S
C2191 C2192 1.373 . S
C2191 C2193 1.389 . S
C2192 H2165 0.950 . S
C2192 C2178 1.377 . S
C2192 C2191 1.373 . S
C2193 C2177 1.377 . S
C2193 C2191 1.389 . S
C2193 C2194 1.524 . S
C2194 C2193 1.524 . S
C2194 C2195 1.397 . S
C2194 C2199 1.363 . S
C2195 H2166 0.950 . S
C2195 C2194 1.397 . S
C2195 C2196 1.334 . S
C2196 H2167 0.950 . S
C2196 C2195 1.334 . S
C2196 C2197 1.287 . S
C2197 C2196 1.287 . S
C2197 C2198 1.524 . S
C2197 H2200 0.999 . S
C2198 H2168 0.950 . S
C2198 C2197 1.524 . S
C2198 C2199 1.415 . S
C2199 H2169 0.950 . S
C2199 C2194 1.363 . S
C2199 C2198 1.415 . S
H2200 C2197 0.999 . S
H2201 C2182 0.913 . S
H2202 C2220 0.951 . S
H2203 C2222 0.951 . S
H2204 C2224 0.950 1_565 S
H2205 C2225 0.950 . S
H2206 C2227 0.950 . S
H2207 C2230 0.950 . S
H2208 C2231 0.950 . S
H2209 C2233 0.950 . S
H2210 C2234 0.950 . S
H2211 C2235 0.951 . S
H2212 C2237 0.951 . S
H2213 C2239 0.950 . S
H2214 C2240 0.950 . S
H2215 C2242 0.950 . S
H2216 C2245 0.950 . S
H2217 C2246 0.950 . S
H2218 C2248 0.950 . S
H2219 C2249 0.950 . S
C2220 H2202 0.951 . S
C2220 C2221 1.366 . S
C2220 C2222 1.388 . S
C2221 C2220 1.366 . S
C2221 C2225 1.385 . S
C2222 H2203 0.951 . S
C2222 C2220 1.388 . S
C2222 C2223 1.366 1_545 S
C2223 C2222 1.366 1_565 S
C2223 C2224 1.414 1_565 S
C2223 C2226 1.499 . S
C2224 H2204 0.950 1_545 S
C2224 C2223 1.414 1_545 S
C2224 C2225 1.374 . S
C2225 H2205 0.950 . S
C2225 C2221 1.385 . S
C2225 C2224 1.374 . S
C2226 C2223 1.499 . S
C2226 C2227 1.373 . S
C2226 C2228 1.389 . S
C2227 H2206 0.950 . S
C2227 C2226 1.373 . S
C2227 C2243 1.377 . S
C2228 C2226 1.389 . S
C2228 C2229 1.524 . S
C2228 C2242 1.377 . S
C2229 C2228 1.524 . S
C2229 C2230 1.397 1_565 S
C2229 C2234 1.363 . S
C2230 H2207 0.950 . S
C2230 C2229 1.397 1_545 S
C2230 C2231 1.334 . S
C2231 H2208 0.950 . S
C2231 C2230 1.334 . S
C2231 C2232 1.287 . S
C2232 C2231 1.287 . S
C2232 C2233 1.524 . S
C2232 H2251 0.913 . S
C2233 H2209 0.950 . S
C2233 C2232 1.524 . S
C2233 C2234 1.415 1_545 S
C2234 H2210 0.950 . S
C2234 C2229 1.363 . S
C2234 C2233 1.415 1_565 S
C2235 H2211 0.951 . S
C2235 C2236 1.366 . S
C2235 C2237 1.388 . S
C2236 C2235 1.366 . S
C2236 C2240 1.385 . S
C2237 H2212 0.951 . S
C2237 C2235 1.388 . S
C2237 C2238 1.366 . S
C2238 C2237 1.366 . S
C2238 C2239 1.414 . S
C2238 C2241 1.499 . S
C2239 H2213 0.950 . S
C2239 C2238 1.414 . S
C2239 C2240 1.374 . S
C2240 H2214 0.950 . S
C2240 C2236 1.385 . S
C2240 C2239 1.374 . S
C2241 C2238 1.499 . S
C2241 C2242 1.373 . S
C2241 C2243 1.389 . S
C2242 H2215 0.950 . S
C2242 C2228 1.377 . S
C2242 C2241 1.373 . S
C2243 C2227 1.377 . S
C2243 C2241 1.389 . S
C2243 C2244 1.524 . S
C2244 C2243 1.524 . S
C2244 C2245 1.397 . S
C2244 C2249 1.363 . S
C2245 H2216 0.950 . S
C2245 C2244 1.397 . S
C2245 C2246 1.334 . S
C2246 H2217 0.950 . S
C2246 C2245 1.334 . S
C2246 C2247 1.287 . S
C2247 C2246 1.287 . S
C2247 C2248 1.524 . S
C2247 H2250 0.999 . S
C2248 H2218 0.950 . S
C2248 C2247 1.524 . S
C2248 C2249 1.415 . S
C2249 H2219 0.950 . S
C2249 C2244 1.363 . S
C2249 C2248 1.415 . S
H2250 C2247 0.999 . S
H2251 C2232 0.913 . S
H2252 C2270 0.951 . S
H2253 C2272 0.951 . S
H2254 C2274 0.950 . S
H2255 C2275 0.950 . S
H2256 C2277 0.950 . S
H2257 C2280 0.950 . S
H2258 C2281 0.950 . S
H2259 C2283 0.950 . S
H2260 C2284 0.950 . S
H2261 C2285 0.951 . S
H2262 C2287 0.951 . S
H2263 C2289 0.950 . S
H2264 C2290 0.950 . S
H2265 C2292 0.950 . S
H2266 C2295 0.950 . S
H2267 C2296 0.950 . S
H2268 C2298 0.950 . S
H2269 C2299 0.950 . S
C2270 H2252 0.951 . S
C2270 C2271 1.366 . S
C2270 C2272 1.388 . S
C2271 C2270 1.366 . S
C2271 C2275 1.385 . S
C2272 H2253 0.951 . S
C2272 C2270 1.388 . S
C2272 C2273 1.366 1_545 S
C2273 C2272 1.366 1_565 S
C2273 C2274 1.414 1_565 S
C2273 C2276 1.499 . S
C2274 H2254 0.950 . S
C2274 C2273 1.414 1_545 S
C2274 C2275 1.374 . S
C2275 H2255 0.950 . S
C2275 C2271 1.385 . S
C2275 C2274 1.374 . S
C2276 C2273 1.499 . S
C2276 C2277 1.373 . S
C2276 C2278 1.389 . S
C2277 H2256 0.950 . S
C2277 C2276 1.373 . S
C2277 C2293 1.377 . S
C2278 C2276 1.389 . S
C2278 C2279 1.524 . S
C2278 C2292 1.377 . S
C2279 C2278 1.524 . S
C2279 C2280 1.397 . S
C2279 C2284 1.363 . S
C2280 H2257 0.950 . S
C2280 C2279 1.397 . S
C2280 C2281 1.334 . S
C2281 H2258 0.950 . S
C2281 C2280 1.334 . S
C2281 C2282 1.287 . S
C2282 C2281 1.287 . S
C2282 C2283 1.524 . S
C2282 H2301 0.913 . S
C2283 H2259 0.950 . S
C2283 C2282 1.524 . S
C2283 C2284 1.415 . S
C2284 H2260 0.950 . S
C2284 C2279 1.363 . S
C2284 C2283 1.415 . S
C2285 H2261 0.951 . S
C2285 C2286 1.366 . S
C2285 C2287 1.388 . S
C2286 C2285 1.366 . S
C2286 C2290 1.385 . S
C2287 H2262 0.951 . S
C2287 C2285 1.388 . S
C2287 C2288 1.366 . S
C2288 C2287 1.366 . S
C2288 C2289 1.414 . S
C2288 C2291 1.499 . S
C2289 H2263 0.950 . S
C2289 C2288 1.414 . S
C2289 C2290 1.374 . S
C2290 H2264 0.950 . S
C2290 C2286 1.385 . S
C2290 C2289 1.374 . S
C2291 C2288 1.499 . S
C2291 C2292 1.373 . S
C2291 C2293 1.389 . S
C2292 H2265 0.950 . S
C2292 C2278 1.377 . S
C2292 C2291 1.373 . S
C2293 C2277 1.377 . S
C2293 C2291 1.389 . S
C2293 C2294 1.524 . S
C2294 C2293 1.524 . S
C2294 C2295 1.397 . S
C2294 C2299 1.363 . S
C2295 H2266 0.950 . S
C2295 C2294 1.397 . S
C2295 C2296 1.334 . S
C2296 H2267 0.950 . S
C2296 C2295 1.334 . S
C2296 C2297 1.287 . S
C2297 C2296 1.287 . S
C2297 C2298 1.524 . S
C2297 H2300 0.999 . S
C2298 H2268 0.950 . S
C2298 C2297 1.524 . S
C2298 C2299 1.415 . S
C2299 H2269 0.950 . S
C2299 C2294 1.363 . S
C2299 C2298 1.415 . S
H2300 C2297 0.999 . S
H2301 C2282 0.913 . S
H2302 C2320 0.951 . S
H2303 C2322 0.951 . S
H2304 C2324 0.950 . S
H2305 C2325 0.950 . S
H2306 C2327 0.950 . S
H2307 C2330 0.950 . S
H2308 C2331 0.950 . S
H2309 C2333 0.950 . S
H2310 C2334 0.950 . S
H2311 C2335 0.951 . S
H2312 C2337 0.951 . S
H2313 C2339 0.950 1_545 S
H2314 C2340 0.950 . S
H2315 C2342 0.950 . S
H2316 C2345 0.950 . S
H2317 C2346 0.950 . S
H2318 C2348 0.950 1_565 S
H2319 C2349 0.950 . S
C2320 H2302 0.951 . S
C2320 C2321 1.366 . S
C2320 C2322 1.388 . S
C2321 C2320 1.366 . S
C2321 C2325 1.385 . S
C2322 H2303 0.951 . S
C2322 C2320 1.388 . S
C2322 C2323 1.366 . S
C2323 C2322 1.366 . S
C2323 C2324 1.414 . S
C2323 C2326 1.499 . S
C2324 H2304 0.950 . S
C2324 C2323 1.414 . S
C2324 C2325 1.374 . S
C2325 H2305 0.950 . S
C2325 C2321 1.385 . S
C2325 C2324 1.374 . S
C2326 C2323 1.499 . S
C2326 C2327 1.373 . S
C2326 C2328 1.389 . S
C2327 H2306 0.950 . S
C2327 C2326 1.373 . S
C2327 C2343 1.377 . S
C2328 C2326 1.389 . S
C2328 C2329 1.524 . S
C2328 C2342 1.377 . S
C2329 C2328 1.524 . S
C2329 C2330 1.397 . S
C2329 C2334 1.363 . S
C2330 H2307 0.950 . S
C2330 C2329 1.397 . S
C2330 C2331 1.334 . S
C2331 H2308 0.950 . S
C2331 C2330 1.334 . S
C2331 C2332 1.287 . S
C2332 C2331 1.287 . S
C2332 C2333 1.524 . S
C2332 H2351 0.913 . S
C2333 H2309 0.950 . S
C2333 C2332 1.524 . S
C2333 C2334 1.415 . S
C2334 H2310 0.950 . S
C2334 C2329 1.363 . S
C2334 C2333 1.415 . S
C2335 H2311 0.951 . S
C2335 C2336 1.366 . S
C2335 C2337 1.388 . S
C2336 C2335 1.366 . S
C2336 C2340 1.385 . S
C2337 H2312 0.951 . S
C2337 C2335 1.388 . S
C2337 C2338 1.366 1_565 S
C2338 C2337 1.366 1_545 S
C2338 C2339 1.414 1_545 S
C2338 C2341 1.499 . S
C2339 H2313 0.950 1_565 S
C2339 C2338 1.414 1_565 S
C2339 C2340 1.374 . S
C2340 H2314 0.950 . S
C2340 C2336 1.385 . S
C2340 C2339 1.374 . S
C2341 C2338 1.499 . S
C2341 C2342 1.373 . S
C2341 C2343 1.389 . S
C2342 H2315 0.950 . S
C2342 C2328 1.377 . S
C2342 C2341 1.373 . S
C2343 C2327 1.377 . S
C2343 C2341 1.389 . S
C2343 C2344 1.524 . S
C2344 C2343 1.524 . S
C2344 C2345 1.397 . S
C2344 C2349 1.363 . S
C2345 H2316 0.950 . S
C2345 C2344 1.397 . S
C2345 C2346 1.334 1_545 S
C2346 H2317 0.950 . S
C2346 C2345 1.334 1_565 S
C2346 C2347 1.287 . S
C2347 C2346 1.287 . S
C2347 C2348 1.524 1_565 S
C2347 H2350 0.999 . S
C2348 H2318 0.950 1_545 S
C2348 C2347 1.524 1_545 S
C2348 C2349 1.415 . S
C2349 H2319 0.950 . S
C2349 C2344 1.363 . S
C2349 C2348 1.415 . S
H2350 C2347 0.999 . S
H2351 C2332 0.913 . S
H2352 C2370 0.951 . S
H2353 C2372 0.951 . S
H2354 C2374 0.950 . S
H2355 C2375 0.950 . S
H2356 C2377 0.950 . S
H2357 C2380 0.950 . S
H2358 C2381 0.950 . S
H2359 C2383 0.950 . S
H2360 C2384 0.950 . S
H2361 C2385 0.951 . S
H2362 C2387 0.951 . S
H2363 C2389 0.950 . S
H2364 C2390 0.950 . S
H2365 C2392 0.950 . S
H2366 C2395 0.950 . S
H2367 C2396 0.950 . S
H2368 C2398 0.950 . S
H2369 C2399 0.950 . S
C2370 H2352 0.951 . S
C2370 C2371 1.366 . S
C2370 C2372 1.388 . S
C2371 C2370 1.366 . S
C2371 C2375 1.385 . S
C2372 H2353 0.951 . S
C2372 C2370 1.388 . S
C2372 C2373 1.366 . S
C2373 C2372 1.366 . S
C2373 C2374 1.414 . S
C2373 C2376 1.499 . S
C2374 H2354 0.950 . S
C2374 C2373 1.414 . S
C2374 C2375 1.374 . S
C2375 H2355 0.950 . S
C2375 C2371 1.385 . S
C2375 C2374 1.374 . S
C2376 C2373 1.499 . S
C2376 C2377 1.373 . S
C2376 C2378 1.389 . S
C2377 H2356 0.950 . S
C2377 C2376 1.373 . S
C2377 C2393 1.377 . S
C2378 C2376 1.389 . S
C2378 C2379 1.524 . S
C2378 C2392 1.377 . S
C2379 C2378 1.524 . S
C2379 C2380 1.397 . S
C2379 C2384 1.363 . S
C2380 H2357 0.950 . S
C2380 C2379 1.397 . S
C2380 C2381 1.334 . S
C2381 H2358 0.950 . S
C2381 C2380 1.334 . S
C2381 C2382 1.287 . S
C2382 C2381 1.287 . S
C2382 C2383 1.524 . S
C2382 H2401 0.913 . S
C2383 H2359 0.950 . S
C2383 C2382 1.524 . S
C2383 C2384 1.415 . S
C2384 H2360 0.950 . S
C2384 C2379 1.363 . S
C2384 C2383 1.415 . S
C2385 H2361 0.951 . S
C2385 C2386 1.366 . S
C2385 C2387 1.388 . S
C2386 C2385 1.366 . S
C2386 C2390 1.385 . S
C2387 H2362 0.951 . S
C2387 C2385 1.388 . S
C2387 C2388 1.366 . S
C2388 C2387 1.366 . S
C2388 C2389 1.414 . S
C2388 C2391 1.499 . S
C2389 H2363 0.950 . S
C2389 C2388 1.414 . S
C2389 C2390 1.374 . S
C2390 H2364 0.950 . S
C2390 C2386 1.385 . S
C2390 C2389 1.374 . S
C2391 C2388 1.499 . S
C2391 C2392 1.373 . S
C2391 C2393 1.389 . S
C2392 H2365 0.950 . S
C2392 C2378 1.377 . S
C2392 C2391 1.373 . S
C2393 C2377 1.377 . S
C2393 C2391 1.389 . S
C2393 C2394 1.524 . S
C2394 C2393 1.524 . S
C2394 C2395 1.397 . S
C2394 C2399 1.363 . S
C2395 H2366 0.950 . S
C2395 C2394 1.397 . S
C2395 C2396 1.334 . S
C2396 H2367 0.950 . S
C2396 C2395 1.334 . S
C2396 C2397 1.287 . S
C2397 C2396 1.287 . S
C2397 C2398 1.524 . S
C2397 H2400 0.999 . S
C2398 H2368 0.950 . S
C2398 C2397 1.524 . S
C2398 C2399 1.415 . S
C2399 H2369 0.950 . S
C2399 C2394 1.363 . S
C2399 C2398 1.415 . S
H2400 C2397 0.999 . S
H2401 C2382 0.913 . S
H2402 C2420 0.951 . S
H2403 C2422 0.951 . S
H2404 C2424 0.950 . S
H2405 C2425 0.950 . S
H2406 C2427 0.950 . S
H2407 C2430 0.950 . S
H2408 C2431 0.950 . S
H2409 C2433 0.950 . S
H2410 C2434 0.950 . S
H2411 C2435 0.951 . S
H2412 C2437 0.951 . S
H2413 C2439 0.950 . S
H2414 C2440 0.950 . S
H2415 C2442 0.950 . S
H2416 C2445 0.950 . S
H2417 C2446 0.950 . S
H2418 C2448 0.950 . S
H2419 C2449 0.950 . S
C2420 H2402 0.951 . S
C2420 C2421 1.366 . S
C2420 C2422 1.388 . S
C2421 C2420 1.366 . S
C2421 C2425 1.385 . S
C2422 H2403 0.951 . S
C2422 C2420 1.388 . S
C2422 C2423 1.366 . S
C2423 C2422 1.366 . S
C2423 C2424 1.414 . S
C2423 C2426 1.499 . S
C2424 H2404 0.950 . S
C2424 C2423 1.414 . S
C2424 C2425 1.374 . S
C2425 H2405 0.950 . S
C2425 C2421 1.385 . S
C2425 C2424 1.374 . S
C2426 C2423 1.499 . S
C2426 C2427 1.373 . S
C2426 C2428 1.389 . S
C2427 H2406 0.950 . S
C2427 C2426 1.373 . S
C2427 C2443 1.377 . S
C2428 C2426 1.389 . S
C2428 C2429 1.524 . S
C2428 C2442 1.377 . S
C2429 C2428 1.524 . S
C2429 C2430 1.397 . S
C2429 C2434 1.363 . S
C2430 H2407 0.950 . S
C2430 C2429 1.397 . S
C2430 C2431 1.334 . S
C2431 H2408 0.950 . S
C2431 C2430 1.334 . S
C2431 C2432 1.287 . S
C2432 C2431 1.287 . S
C2432 C2433 1.524 . S
C2432 H2451 0.913 . S
C2433 H2409 0.950 . S
C2433 C2432 1.524 . S
C2433 C2434 1.415 . S
C2434 H2410 0.950 . S
C2434 C2429 1.363 . S
C2434 C2433 1.415 . S
C2435 H2411 0.951 . S
C2435 C2436 1.366 . S
C2435 C2437 1.388 . S
C2436 C2435 1.366 . S
C2436 C2440 1.385 . S
C2437 H2412 0.951 . S
C2437 C2435 1.388 . S
C2437 C2438 1.366 . S
C2438 C2437 1.366 . S
C2438 C2439 1.414 . S
C2438 C2441 1.499 . S
C2439 H2413 0.950 . S
C2439 C2438 1.414 . S
C2439 C2440 1.374 . S
C2440 H2414 0.950 . S
C2440 C2436 1.385 . S
C2440 C2439 1.374 . S
C2441 C2438 1.499 . S
C2441 C2442 1.373 . S
C2441 C2443 1.389 . S
C2442 H2415 0.950 . S
C2442 C2428 1.377 . S
C2442 C2441 1.373 . S
C2443 C2427 1.377 . S
C2443 C2441 1.389 . S
C2443 C2444 1.524 . S
C2444 C2443 1.524 . S
C2444 C2445 1.397 . S
C2444 C2449 1.363 . S
C2445 H2416 0.950 . S
C2445 C2444 1.397 . S
C2445 C2446 1.334 . S
C2446 H2417 0.950 . S
C2446 C2445 1.334 . S
C2446 C2447 1.287 . S
C2447 C2446 1.287 . S
C2447 C2448 1.524 . S
C2447 H2450 0.999 . S
C2448 H2418 0.950 . S
C2448 C2447 1.524 . S
C2448 C2449 1.415 . S
C2449 H2419 0.950 . S
C2449 C2444 1.363 . S
C2449 C2448 1.415 . S
H2450 C2447 0.999 . S
H2451 C2432 0.913 . S
H2452 C2470 0.951 . S
H2453 C2472 0.951 . S
H2454 C2474 0.950 . S
H2455 C2475 0.950 . S
H2456 C2477 0.950 . S
H2457 C2480 0.950 . S
H2458 C2481 0.950 . S
H2459 C2483 0.950 . S
H2460 C2484 0.950 . S
H2461 C2485 0.951 . S
H2462 C2487 0.951 . S
H2463 C2489 0.950 . S
H2464 C2490 0.950 . S
H2465 C2492 0.950 . S
H2466 C2495 0.950 . S
H2467 C2496 0.950 . S
H2468 C2498 0.950 . S
H2469 C2499 0.950 . S
C2470 H2452 0.951 . S
C2470 C2471 1.366 . S
C2470 C2472 1.388 . S
C2471 C2470 1.366 . S
C2471 C2475 1.385 . S
C2472 H2453 0.951 . S
C2472 C2470 1.388 . S
C2472 C2473 1.366 . S
C2473 C2472 1.366 . S
C2473 C2474 1.414 . S
C2473 C2476 1.499 . S
C2474 H2454 0.950 . S
C2474 C2473 1.414 . S
C2474 C2475 1.374 . S
C2475 H2455 0.950 . S
C2475 C2471 1.385 . S
C2475 C2474 1.374 . S
C2476 C2473 1.499 . S
C2476 C2477 1.373 . S
C2476 C2478 1.389 . S
C2477 H2456 0.950 . S
C2477 C2476 1.373 . S
C2477 C2493 1.377 . S
C2478 C2476 1.389 . S
C2478 C2479 1.524 . S
C2478 C2492 1.377 . S
C2479 C2478 1.524 . S
C2479 C2480 1.397 . S
C2479 C2484 1.363 . S
C2480 H2457 0.950 . S
C2480 C2479 1.397 . S
C2480 C2481 1.334 . S
C2481 H2458 0.950 . S
C2481 C2480 1.334 . S
C2481 C2482 1.287 . S
C2482 C2481 1.287 . S
C2482 C2483 1.524 . S
C2482 H2501 0.913 . S
C2483 H2459 0.950 . S
C2483 C2482 1.524 . S
C2483 C2484 1.415 . S
C2484 H2460 0.950 . S
C2484 C2479 1.363 . S
C2484 C2483 1.415 . S
C2485 H2461 0.951 . S
C2485 C2486 1.366 . S
C2485 C2487 1.388 . S
C2486 C2485 1.366 . S
C2486 C2490 1.385 . S
C2487 H2462 0.951 . S
C2487 C2485 1.388 . S
C2487 C2488 1.366 . S
C2488 C2487 1.366 . S
C2488 C2489 1.414 . S
C2488 C2491 1.499 . S
C2489 H2463 0.950 . S
C2489 C2488 1.414 . S
C2489 C2490 1.374 . S
C2490 H2464 0.950 . S
C2490 C2486 1.385 . S
C2490 C2489 1.374 . S
C2491 C2488 1.499 . S
C2491 C2492 1.373 . S
C2491 C2493 1.389 . S
C2492 H2465 0.950 . S
C2492 C2478 1.377 . S
C2492 C2491 1.373 . S
C2493 C2477 1.377 . S
C2493 C2491 1.389 . S
C2493 C2494 1.524 . S
C2494 C2493 1.524 . S
C2494 C2495 1.397 . S
C2494 C2499 1.363 . S
C2495 H2466 0.950 . S
C2495 C2494 1.397 . S
C2495 C2496 1.334 . S
C2496 H2467 0.950 . S
C2496 C2495 1.334 . S
C2496 C2497 1.287 . S
C2497 C2496 1.287 . S
C2497 C2498 1.524 . S
C2497 H2500 0.999 . S
C2498 H2468 0.950 . S
C2498 C2497 1.524 . S
C2498 C2499 1.415 . S
C2499 H2469 0.950 . S
C2499 C2494 1.363 . S
C2499 C2498 1.415 . S
H2500 C2497 0.999 . S
H2501 C2482 0.913 . S
H2502 C2520 0.951 . S
H2503 C2522 0.951 . S
H2504 C2524 0.950 . S
H2505 C2525 0.950 . S
H2506 C2527 0.950 . S
H2507 C2530 0.950 . S
H2508 C2531 0.950 . S
H2509 C2533 0.950 . S
H2510 C2534 0.950 . S
H2511 C2535 0.951 . S
H2512 C2537 0.951 . S
H2513 C2539 0.950 . S
H2514 C2540 0.950 . S
H2515 C2542 0.950 . S
H2516 C2545 0.950 . S
H2517 C2546 0.950 . S
H2518 C2548 0.950 . S
H2519 C2549 0.950 . S
C2520 H2502 0.951 . S
C2520 C2521 1.366 . S
C2520 C2522 1.388 . S
C2521 C2520 1.366 . S
C2521 C2525 1.385 . S
C2522 H2503 0.951 . S
C2522 C2520 1.388 . S
C2522 C2523 1.366 . S
C2523 C2522 1.366 . S
C2523 C2524 1.414 . S
C2523 C2526 1.499 . S
C2524 H2504 0.950 . S
C2524 C2523 1.414 . S
C2524 C2525 1.374 . S
C2525 H2505 0.950 . S
C2525 C2521 1.385 . S
C2525 C2524 1.374 . S
C2526 C2523 1.499 . S
C2526 C2527 1.373 . S
C2526 C2528 1.389 . S
C2527 H2506 0.950 . S
C2527 C2526 1.373 . S
C2527 C2543 1.377 . S
C2528 C2526 1.389 . S
C2528 C2529 1.524 . S
C2528 C2542 1.377 . S
C2529 C2528 1.524 . S
C2529 C2530 1.397 . S
C2529 C2534 1.363 . S
C2530 H2507 0.950 . S
C2530 C2529 1.397 . S
C2530 C2531 1.334 . S
C2531 H2508 0.950 . S
C2531 C2530 1.334 . S
C2531 C2532 1.287 . S
C2532 C2531 1.287 . S
C2532 C2533 1.524 . S
C2532 H2551 0.913 . S
C2533 H2509 0.950 . S
C2533 C2532 1.524 . S
C2533 C2534 1.415 . S
C2534 H2510 0.950 . S
C2534 C2529 1.363 . S
C2534 C2533 1.415 . S
C2535 H2511 0.951 . S
C2535 C2536 1.366 . S
C2535 C2537 1.388 . S
C2536 C2535 1.366 . S
C2536 C2540 1.385 . S
C2537 H2512 0.951 . S
C2537 C2535 1.388 . S
C2537 C2538 1.366 . S
C2538 C2537 1.366 . S
C2538 C2539 1.414 . S
C2538 C2541 1.499 . S
C2539 H2513 0.950 . S
C2539 C2538 1.414 . S
C2539 C2540 1.374 . S
C2540 H2514 0.950 . S
C2540 C2536 1.385 . S
C2540 C2539 1.374 . S
C2541 C2538 1.499 . S
C2541 C2542 1.373 . S
C2541 C2543 1.389 . S
C2542 H2515 0.950 . S
C2542 C2528 1.377 . S
C2542 C2541 1.373 . S
C2543 C2527 1.377 . S
C2543 C2541 1.389 . S
C2543 C2544 1.524 . S
C2544 C2543 1.524 . S
C2544 C2545 1.397 . S
C2544 C2549 1.363 . S
C2545 H2516 0.950 . S
C2545 C2544 1.397 . S
C2545 C2546 1.334 . S
C2546 H2517 0.950 . S
C2546 C2545 1.334 . S
C2546 C2547 1.287 . S
C2547 C2546 1.287 . S
C2547 C2548 1.524 . S
C2547 H2550 0.999 . S
C2548 H2518 0.950 . S
C2548 C2547 1.524 . S
C2548 C2549 1.415 . S
C2549 H2519 0.950 . S
C2549 C2544 1.363 . S
C2549 C2548 1.415 . S
H2550 C2547 0.999 . S
H2551 C2532 0.913 . S
H2552 C2570 0.951 . S
H2553 C2572 0.951 . S
H2554 C2574 0.950 . S
H2555 C2575 0.950 . S
H2556 C2577 0.950 . S
H2557 C2580 0.950 . S
H2558 C2581 0.950 . S
H2559 C2583 0.950 . S
H2560 C2584 0.950 . S
H2561 C2585 0.951 . S
H2562 C2587 0.951 . S
H2563 C2589 0.950 . S
H2564 C2590 0.950 . S
H2565 C2592 0.950 . S
H2566 C2595 0.950 . S
H2567 C2596 0.950 . S
H2568 C2598 0.950 . S
H2569 C2599 0.950 . S
C2570 H2552 0.951 . S
C2570 C2571 1.366 . S
C2570 C2572 1.388 . S
C2571 C2570 1.366 . S
C2571 C2575 1.385 . S
C2572 H2553 0.951 . S
C2572 C2570 1.388 . S
C2572 C2573 1.366 . S
C2573 C2572 1.366 . S
C2573 C2574 1.414 . S
C2573 C2576 1.499 . S
C2574 H2554 0.950 . S
C2574 C2573 1.414 . S
C2574 C2575 1.374 . S
C2575 H2555 0.950 . S
C2575 C2571 1.385 . S
C2575 C2574 1.374 . S
C2576 C2573 1.499 . S
C2576 C2577 1.373 . S
C2576 C2578 1.389 . S
C2577 H2556 0.950 . S
C2577 C2576 1.373 . S
C2577 C2593 1.377 . S
C2578 C2576 1.389 . S
C2578 C2579 1.524 . S
C2578 C2592 1.377 . S
C2579 C2578 1.524 . S
C2579 C2580 1.397 . S
C2579 C2584 1.363 . S
C2580 H2557 0.950 . S
C2580 C2579 1.397 . S
C2580 C2581 1.334 . S
C2581 H2558 0.950 . S
C2581 C2580 1.334 . S
C2581 C2582 1.287 . S
C2582 C2581 1.287 . S
C2582 C2583 1.524 . S
C2582 H2601 0.913 . S
C2583 H2559 0.950 . S
C2583 C2582 1.524 . S
C2583 C2584 1.415 . S
C2584 H2560 0.950 . S
C2584 C2579 1.363 . S
C2584 C2583 1.415 . S
C2585 H2561 0.951 . S
C2585 C2586 1.366 . S
C2585 C2587 1.388 . S
C2586 C2585 1.366 . S
C2586 C2590 1.385 . S
C2587 H2562 0.951 . S
C2587 C2585 1.388 . S
C2587 C2588 1.366 . S
C2588 C2587 1.366 . S
C2588 C2589 1.414 . S
C2588 C2591 1.499 . S
C2589 H2563 0.950 . S
C2589 C2588 1.414 . S
C2589 C2590 1.374 . S
C2590 H2564 0.950 . S
C2590 C2586 1.385 . S
C2590 C2589 1.374 . S
C2591 C2588 1.499 . S
C2591 C2592 1.373 . S
C2591 C2593 1.389 . S
C2592 H2565 0.950 . S
C2592 C2578 1.377 . S
C2592 C2591 1.373 . S
C2593 C2577 1.377 . S
C2593 C2591 1.389 . S
C2593 C2594 1.524 . S
C2594 C2593 1.524 . S
C2594 C2595 1.397 . S
C2594 C2599 1.363 . S
C2595 H2566 0.950 . S
C2595 C2594 1.397 . S
C2595 C2596 1.334 . S
C2596 H2567 0.950 . S
C2596 C2595 1.334 . S
C2596 C2597 1.287 . S
C2597 C2596 1.287 . S
C2597 C2598 1.524 . S
C2597 H2600 0.999 . S
C2598 H2568 0.950 . S
C2598 C2597 1.524 . S
C2598 C2599 1.415 . S
C2599 H2569 0.950 . S
C2599 C2594 1.363 . S
C2599 C2598 1.415 . S
H2600 C2597 0.999 . S
H2601 C2582 0.913 . S
H2602 C2620 0.951 . S
H2603 C2622 0.951 . S
H2604 C2624 0.950 . S
H2605 C2625 0.950 . S
H2606 C2627 0.950 . S
H2607 C2630 0.950 . S
H2608 C2631 0.950 . S
H2609 C2633 0.950 . S
H2610 C2634 0.950 . S
H2611 C2635 0.951 . S
H2612 C2637 0.951 . S
H2613 C2639 0.950 . S
H2614 C2640 0.950 . S
H2615 C2642 0.950 . S
H2616 C2645 0.950 . S
H2617 C2646 0.950 . S
H2618 C2648 0.950 . S
H2619 C2649 0.950 . S
C2620 H2602 0.951 . S
C2620 C2621 1.366 . S
C2620 C2622 1.388 . S
C2621 C2620 1.366 . S
C2621 C2625 1.385 . S
C2622 H2603 0.951 . S
C2622 C2620 1.388 . S
C2622 C2623 1.366 . S
C2623 C2622 1.366 . S
C2623 C2624 1.414 . S
C2623 C2626 1.499 . S
C2624 H2604 0.950 . S
C2624 C2623 1.414 . S
C2624 C2625 1.374 . S
C2625 H2605 0.950 . S
C2625 C2621 1.385 . S
C2625 C2624 1.374 . S
C2626 C2623 1.499 . S
C2626 C2627 1.373 . S
C2626 C2628 1.389 . S
C2627 H2606 0.950 . S
C2627 C2626 1.373 . S
C2627 C2643 1.377 . S
C2628 C2626 1.389 . S
C2628 C2629 1.524 . S
C2628 C2642 1.377 . S
C2629 C2628 1.524 . S
C2629 C2630 1.397 . S
C2629 C2634 1.363 . S
C2630 H2607 0.950 . S
C2630 C2629 1.397 . S
C2630 C2631 1.334 . S
C2631 H2608 0.950 . S
C2631 C2630 1.334 . S
C2631 C2632 1.287 . S
C2632 C2631 1.287 . S
C2632 C2633 1.524 . S
C2632 H2651 0.913 . S
C2633 H2609 0.950 . S
C2633 C2632 1.524 . S
C2633 C2634 1.415 . S
C2634 H2610 0.950 . S
C2634 C2629 1.363 . S
C2634 C2633 1.415 . S
C2635 H2611 0.951 . S
C2635 C2636 1.366 . S
C2635 C2637 1.388 . S
C2636 C2635 1.366 . S
C2636 C2640 1.385 . S
C2637 H2612 0.951 . S
C2637 C2635 1.388 . S
C2637 C2638 1.366 . S
C2638 C2637 1.366 . S
C2638 C2639 1.414 . S
C2638 C2641 1.499 . S
C2639 H2613 0.950 . S
C2639 C2638 1.414 . S
C2639 C2640 1.374 . S
C2640 H2614 0.950 . S
C2640 C2636 1.385 . S
C2640 C2639 1.374 . S
C2641 C2638 1.499 . S
C2641 C2642 1.373 . S
C2641 C2643 1.389 . S
C2642 H2615 0.950 . S
C2642 C2628 1.377 . S
C2642 C2641 1.373 . S
C2643 C2627 1.377 . S
C2643 C2641 1.389 . S
C2643 C2644 1.524 . S
C2644 C2643 1.524 . S
C2644 C2645 1.397 . S
C2644 C2649 1.363 . S
C2645 H2616 0.950 . S
C2645 C2644 1.397 . S
C2645 C2646 1.334 . S
C2646 H2617 0.950 . S
C2646 C2645 1.334 . S
C2646 C2647 1.287 . S
C2647 C2646 1.287 . S
C2647 C2648 1.524 . S
C2647 H2650 0.999 . S
C2648 H2618 0.950 . S
C2648 C2647 1.524 . S
C2648 C2649 1.415 . S
C2649 H2619 0.950 . S
C2649 C2644 1.363 . S
C2649 C2648 1.415 . S
H2650 C2647 0.999 . S
H2651 C2632 0.913 . S
H2652 C2670 0.951 . S
H2653 C2672 0.951 . S
H2654 C2674 0.950 . S
H2655 C2675 0.950 . S
H2656 C2677 0.950 . S
H2657 C2680 0.950 . S
H2658 C2681 0.950 . S
H2659 C2683 0.950 . S
H2660 C2684 0.950 . S
H2661 C2685 0.951 . S
H2662 C2687 0.951 . S
H2663 C2689 0.950 . S
H2664 C2690 0.950 . S
H2665 C2692 0.950 . S
H2666 C2695 0.950 . S
H2667 C2696 0.950 . S
H2668 C2698 0.950 . S
H2669 C2699 0.950 . S
C2670 H2652 0.951 . S
C2670 C2671 1.366 . S
C2670 C2672 1.388 . S
C2671 C2670 1.366 . S
C2671 C2675 1.385 . S
C2672 H2653 0.951 . S
C2672 C2670 1.388 . S
C2672 C2673 1.366 . S
C2673 C2672 1.366 . S
C2673 C2674 1.414 . S
C2673 C2676 1.499 . S
C2674 H2654 0.950 . S
C2674 C2673 1.414 . S
C2674 C2675 1.374 . S
C2675 H2655 0.950 . S
C2675 C2671 1.385 . S
C2675 C2674 1.374 . S
C2676 C2673 1.499 . S
C2676 C2677 1.373 . S
C2676 C2678 1.389 . S
C2677 H2656 0.950 . S
C2677 C2676 1.373 . S
C2677 C2693 1.377 . S
C2678 C2676 1.389 . S
C2678 C2679 1.524 . S
C2678 C2692 1.377 . S
C2679 C2678 1.524 . S
C2679 C2680 1.397 . S
C2679 C2684 1.363 . S
C2680 H2657 0.950 . S
C2680 C2679 1.397 . S
C2680 C2681 1.334 . S
C2681 H2658 0.950 . S
C2681 C2680 1.334 . S
C2681 C2682 1.287 . S
C2682 C2681 1.287 . S
C2682 C2683 1.524 . S
C2682 H2701 0.913 . S
C2683 H2659 0.950 . S
C2683 C2682 1.524 . S
C2683 C2684 1.415 . S
C2684 H2660 0.950 . S
C2684 C2679 1.363 . S
C2684 C2683 1.415 . S
C2685 H2661 0.951 . S
C2685 C2686 1.366 . S
C2685 C2687 1.388 . S
C2686 C2685 1.366 . S
C2686 C2690 1.385 . S
C2687 H2662 0.951 . S
C2687 C2685 1.388 . S
C2687 C2688 1.366 . S
C2688 C2687 1.366 . S
C2688 C2689 1.414 . S
C2688 C2691 1.499 . S
C2689 H2663 0.950 . S
C2689 C2688 1.414 . S
C2689 C2690 1.374 . S
C2690 H2664 0.950 . S
C2690 C2686 1.385 . S
C2690 C2689 1.374 . S
C2691 C2688 1.499 . S
C2691 C2692 1.373 . S
C2691 C2693 1.389 . S
C2692 H2665 0.950 . S
C2692 C2678 1.377 . S
C2692 C2691 1.373 . S
C2693 C2677 1.377 . S
C2693 C2691 1.389 . S
C2693 C2694 1.524 . S
C2694 C2693 1.524 . S
C2694 C2695 1.397 . S
C2694 C2699 1.363 . S
C2695 H2666 0.950 . S
C2695 C2694 1.397 . S
C2695 C2696 1.334 . S
C2696 H2667 0.950 . S
C2696 C2695 1.334 . S
C2696 C2697 1.287 . S
C2697 C2696 1.287 . S
C2697 C2698 1.524 . S
C2697 H2700 0.999 . S
C2698 H2668 0.950 . S
C2698 C2697 1.524 . S
C2698 C2699 1.415 . S
C2699 H2669 0.950 . S
C2699 C2694 1.363 . S
C2699 C2698 1.415 . S
H2700 C2697 0.999 . S
H2701 C2682 0.913 . S
H2702 C2720 0.951 . S
H2703 C2722 0.951 . S
H2704 C2724 0.950 . S
H2705 C2725 0.950 . S
H2706 C2727 0.950 . S
H2707 C2730 0.950 . S
H2708 C2731 0.950 . S
H2709 C2733 0.950 . S
H2710 C2734 0.950 . S
H2711 C2735 0.951 . S
H2712 C2737 0.951 . S
H2713 C2739 0.950 . S
H2714 C2740 0.950 . S
H2715 C2742 0.950 . S
H2716 C2745 0.950 . S
H2717 C2746 0.950 . S
H2718 C2748 0.950 . S
H2719 C2749 0.950 . S
C2720 H2702 0.951 . S
C2720 C2721 1.366 . S
C2720 C2722 1.388 . S
C2721 C2720 1.366 . S
C2721 C2725 1.385 . S
C2722 H2703 0.951 . S
C2722 C2720 1.388 . S
C2722 C2723 1.366 . S
C2723 C2722 1.366 . S
C2723 C2724 1.414 . S
C2723 C2726 1.499 . S
C2724 H2704 0.950 . S
C2724 C2723 1.414 . S
C2724 C2725 1.374 . S
C2725 H2705 0.950 . S
C2725 C2721 1.385 . S
C2725 C2724 1.374 . S
C2726 C2723 1.499 . S
C2726 C2727 1.373 . S
C2726 C2728 1.389 . S
C2727 H2706 0.950 . S
C2727 C2726 1.373 . S
C2727 C2743 1.377 . S
C2728 C2726 1.389 . S
C2728 C2729 1.524 . S
C2728 C2742 1.377 . S
C2729 C2728 1.524 . S
C2729 C2730 1.397 . S
C2729 C2734 1.363 . S
C2730 H2707 0.950 . S
C2730 C2729 1.397 . S
C2730 C2731 1.334 . S
C2731 H2708 0.950 . S
C2731 C2730 1.334 . S
C2731 C2732 1.287 . S
C2732 C2731 1.287 . S
C2732 C2733 1.524 . S
C2732 H2751 0.913 . S
C2733 H2709 0.950 . S
C2733 C2732 1.524 . S
C2733 C2734 1.415 . S
C2734 H2710 0.950 . S
C2734 C2729 1.363 . S
C2734 C2733 1.415 . S
C2735 H2711 0.951 . S
C2735 C2736 1.366 . S
C2735 C2737 1.388 . S
C2736 C2735 1.366 . S
C2736 C2740 1.385 . S
C2737 H2712 0.951 . S
C2737 C2735 1.388 . S
C2737 C2738 1.366 . S
C2738 C2737 1.366 . S
C2738 C2739 1.414 . S
C2738 C2741 1.499 . S
C2739 H2713 0.950 . S
C2739 C2738 1.414 . S
C2739 C2740 1.374 . S
C2740 H2714 0.950 . S
C2740 C2736 1.385 . S
C2740 C2739 1.374 . S
C2741 C2738 1.499 . S
C2741 C2742 1.373 . S
C2741 C2743 1.389 . S
C2742 H2715 0.950 . S
C2742 C2728 1.377 . S
C2742 C2741 1.373 . S
C2743 C2727 1.377 . S
C2743 C2741 1.389 . S
C2743 C2744 1.524 . S
C2744 C2743 1.524 . S
C2744 C2745 1.397 . S
C2744 C2749 1.363 . S
C2745 H2716 0.950 . S
C2745 C2744 1.397 . S
C2745 C2746 1.334 . S
C2746 H2717 0.950 . S
C2746 C2745 1.334 . S
C2746 C2747 1.287 . S
C2747 C2746 1.287 . S
C2747 C2748 1.524 . S
C2747 H2750 0.999 . S
C2748 H2718 0.950 . S
C2748 C2747 1.524 . S
C2748 C2749 1.415 . S
C2749 H2719 0.950 . S
C2749 C2744 1.363 . S
C2749 C2748 1.415 . S
H2750 C2747 0.999 . S
H2751 C2732 0.913 . S
C371 C21 0.680 . S
C386 C279 0.682 . S
C421 C307 0.681 . S
C436 C29 0.679 . S
C471 C323 0.681 . S
C486 C59 0.679 . S
C521 C345 0.679 . S
C536 C87 0.678 . S
C571 C103 0.680 . S
C586 C197 0.678 . S
C621 C219 0.678 . S
C636 C117 0.680 . S
C671 C147 0.680 . S
C686 C241 0.678 . S
C721 C263 0.678 . S
C736 C161 0.680 . S
C771 C65 1.472 . S
C786 C7 1.472 . S
C821 C37 1.472 . S
C836 C73 1.472 . S
C871 C95 1.464 . S
C886 C139 1.465 . S
C921 C175 1.465 . S
C936 C131 1.464 . S
C971 C183 1.472 . S
C986 C227 1.472 . S
C1021 C249 1.472 . S
C1036 C205 1.472 . S
C1071 C315 1.465 . S
C1086 C271 1.464 . S
C1121 C337 1.464 . S
C1136 C301 1.465 . S
C1171 C10 1.808 . S
C1186 C76 1.808 . S
C1221 C62 1.808 . S
C1236 C30 1.808 . S
C1271 C164 1.824 . S
C1286 C96 1.824 . S
C1321 C140 1.824 . S
C1336 C120 1.824 . S
C1371 C252 1.808 . S
C1386 C186 1.808 . S
C1421 C230 1.808 . S
C1436 C208 1.808 . S
C1471 C272 1.824 . S
C1486 C338 1.824 . S
C1521 C316 1.824 . S
C1536 C304 1.824 . S
C1571 C18 1.405 . S
C1586 C150 1.404 . S
C1621 C32 1.405 . S
C1636 C162 1.404 . S
C1671 C106 1.404 . S
C1686 C52 1.405 . S
C1721 C118 1.404 . S
C1736 C84 1.405 . S
C1771 C194 1.404 . S
C1786 C326 1.405 . S
C1821 C216 1.405 . S
C1836 C348 1.404 . S
C1871 C282 1.405 . S
C1886 C238 1.404 . S
C1921 C296 1.404 . S
C1936 C260 1.405 . S
C1971 C15 1.286 . S
C1986 C318 1.273 . S
C2021 C43 1.285 . S
C2036 C340 1.273 . S
C2071 C274 1.273 . S
C2086 C51 1.286 . S
C2121 C294 1.274 . S
C2136 C81 1.285 . S
C2171 C228 1.277 . S
C2186 C109 1.291 . S
C2221 C125 1.290 . S
C2236 C250 1.278 . S
C2271 C153 1.291 . S
C2286 C184 1.277 . S
C2321 C206 1.278 . S
C2336 C169 1.291 . S
C2371 C142 1.273 . S
C2386 C191 1.285 . S
C2421 C213 1.285 . S
C2436 C172 1.274 . S
C2471 C98 1.273 . S
C2486 C235 1.285 . S
C2521 C257 1.285 . S
C2536 C128 1.273 . S
C2571 C54 1.278 . S
C2586 C285 1.290 . S
C2621 C293 1.291 . S
C2636 C74 1.277 . S
C2671 C329 1.290 . S
C2686 C8 1.277 . S
C2721 C40 1.277 . S
C2736 C351 1.291 . S
