# Generated by pormake.
# Topology sni, (6)-cn, num edge types: 1
# Building blocks:
#     Node 0, Type 0, BuildingBlock: IZENUY_clean_sbu_0, # of connection points: 6
#     Node 1, Type 0, BuildingBlock: IZENUY_clean_sbu_0, # of connection points: 6
#     Node 2, Type 0, BuildingBlock: IZENUY_clean_sbu_0, # of connection points: 6
#     Node 3, Type 0, BuildingBlock: IZENUY_clean_sbu_0, # of connection points: 6
#     Node 4, Type 0, BuildingBlock: IZENUY_clean_sbu_0, # of connection points: 6
#     Node 5, Type 0, BuildingBlock: IZENUY_clean_sbu_0, # of connection points: 6
#     Node 6, Type 0, BuildingBlock: IZENUY_clean_sbu_0, # of connection points: 6
#     Node 7, Type 0, BuildingBlock: IZENUY_clean_sbu_0, # of connection points: 6
#     Edge 8, Type (0, 0), BuildingBlock: MIFKUJ_clean_linker_0, # of connection points: 2
#     Edge 9, Type (0, 0), BuildingBlock: MIFKUJ_clean_linker_0, # of connection points: 2
#     Edge 10, Type (0, 0), BuildingBlock: MIFKUJ_clean_linker_0, # of connection points: 2
#     Edge 11, Type (0, 0), BuildingBlock: MIFKUJ_clean_linker_0, # of connection points: 2
#     Edge 12, Type (0, 0), BuildingBlock: MIFKUJ_clean_linker_0, # of connection points: 2
#     Edge 13, Type (0, 0), BuildingBlock: MIFKUJ_clean_linker_0, # of connection points: 2
#     Edge 14, Type (0, 0), BuildingBlock: MIFKUJ_clean_linker_0, # of connection points: 2
#     Edge 15, Type (0, 0), BuildingBlock: MIFKUJ_clean_linker_0, # of connection points: 2
#     Edge 16, Type (0, 0), BuildingBlock: MIFKUJ_clean_linker_0, # of connection points: 2
#     Edge 17, Type (0, 0), BuildingBlock: MIFKUJ_clean_linker_0, # of connection points: 2
#     Edge 18, Type (0, 0), BuildingBlock: MIFKUJ_clean_linker_0, # of connection points: 2
#     Edge 19, Type (0, 0), BuildingBlock: MIFKUJ_clean_linker_0, # of connection points: 2
#     Edge 20, Type (0, 0), BuildingBlock: MIFKUJ_clean_linker_0, # of connection points: 2
#     Edge 21, Type (0, 0), BuildingBlock: MIFKUJ_clean_linker_0, # of connection points: 2
#     Edge 22, Type (0, 0), BuildingBlock: MIFKUJ_clean_linker_0, # of connection points: 2
#     Edge 23, Type (0, 0), BuildingBlock: MIFKUJ_clean_linker_0, # of connection points: 2
#     Edge 24, Type (0, 0), BuildingBlock: MIFKUJ_clean_linker_0, # of connection points: 2
#     Edge 25, Type (0, 0), BuildingBlock: MIFKUJ_clean_linker_0, # of connection points: 2
#     Edge 26, Type (0, 0), BuildingBlock: MIFKUJ_clean_linker_0, # of connection points: 2
#     Edge 27, Type (0, 0), BuildingBlock: MIFKUJ_clean_linker_0, # of connection points: 2
#     Edge 28, Type (0, 0), BuildingBlock: MIFKUJ_clean_linker_0, # of connection points: 2
#     Edge 29, Type (0, 0), BuildingBlock: MIFKUJ_clean_linker_0, # of connection points: 2
#     Edge 30, Type (0, 0), BuildingBlock: MIFKUJ_clean_linker_0, # of connection points: 2
#     Edge 31, Type (0, 0), BuildingBlock: MIFKUJ_clean_linker_0, # of connection points: 2
# Relax obj value: 0.128
# Max RMSD: 0.110
# Mean RMSD: 0.110
data_MOF--net-sni--node1-IZENUY_clean_sbu_0--edge1-MIFKUJ_clean_linker_0
_symmetry_space_group_name_H-M    P1
_symmetry_Int_Tables_number       1
_symmetry_cell_setting            triclinic
loop_
_symmetry_equiv_pos_as_xyz
'x, y, z'
_cell_length_a     53.295191
_cell_length_b     53.297538
_cell_length_c     25.6369
_cell_angle_alpha  90.067879
_cell_angle_beta   90.116553
_cell_angle_gamma 89.974453
loop_
_atom_site_label
_atom_site_type_symbol
_atom_site_fract_x
_atom_site_fract_y
_atom_site_fract_z
_atom_type_partial_charge
Fe0 Fe 0.63746 0.17994 0.99706 0.0
Fe1 Fe 0.67826 0.13889 0.00202 0.0
O2 O 0.64623 0.14787 0.99989 0.0
Fe3 Fe 0.62267 0.12455 0.00062 0.0
O4 O 0.6114 0.13416 0.93727 0.0
O5 O 0.60947 0.17436 0.95635 0.0
O6 O 0.65471 0.18458 0.93698 0.0
C7 C 0.67763 0.1796 0.93033 0.0
C8 C 0.60139 0.16267 0.06327 0.0
O9 O 0.68915 0.16477 0.9607 0.0
C10 C 0.65461 0.10604 0.07391 0.0
O11 O 0.66394 0.19115 0.03657 0.0
O12 O 0.68375 0.15691 0.06115 0.0
O13 O 0.59917 0.1438 0.0338 0.0
O14 O 0.61947 0.17768 0.05746 0.0
C15 C 0.65993 0.1023 0.93726 0.0
O16 O 0.67283 0.1115 0.04421 0.0
O17 O 0.63274 0.11378 0.06405 0.0
C18 C 0.6791 0.17999 0.06677 0.0
O19 O 0.67535 0.1201 0.94262 0.0
O20 O 0.64133 0.10053 0.96749 0.0
C21 C 0.6035 0.15596 0.9274 0.0
Fe22 Fe 0.87914 0.62361 0.99802 0.0
Fe23 Fe 0.86453 0.67914 0.99707 0.0
O24 O 0.85568 0.64705 0.99944 0.0
Fe25 Fe 0.82357 0.6383 0.00308 0.0
O26 O 0.82929 0.61033 0.04372 0.0
O27 O 0.86971 0.61188 0.06092 0.0
O28 O 0.90291 0.64231 0.03212 0.0
C29 C 0.90105 0.66111 0.062 0.0
C30 C 0.84091 0.60269 0.93488 0.0
O31 O 0.88324 0.67651 0.05642 0.0
C32 C 0.82352 0.67951 0.93245 0.0
O33 O 0.88994 0.63392 0.93499 0.0
O34 O 0.89211 0.67392 0.95521 0.0
O35 O 0.82535 0.6201 0.94296 0.0
O36 O 0.86007 0.60031 0.96359 0.0
C37 C 0.82385 0.67884 0.06892 0.0
O38 O 0.8466 0.68411 0.9379 0.0
O39 O 0.81227 0.66472 0.96327 0.0
C40 C 0.89781 0.65572 0.92559 0.0
O41 O 0.83851 0.69016 0.03803 0.0
O42 O 0.81922 0.65578 0.06318 0.0
C43 C 0.84802 0.60402 0.07145 0.0
Fe44 Fe 0.3233 0.86499 0.00357 0.0
Fe45 Fe 0.36447 0.82445 0.99626 0.0
O46 O 0.35548 0.85649 0.00088 0.0
Fe47 Fe 0.37878 0.88016 0.00316 0.0
O48 O 0.36835 0.89047 0.06646 0.0
O49 O 0.3282 0.89204 0.04704 0.0
O50 O 0.31841 0.84645 0.06189 0.0
C51 C 0.32321 0.82338 0.06631 0.0
C52 C 0.34091 0.90234 0.94015 0.0
O53 O 0.33806 0.81256 0.03499 0.0
C54 C 0.39876 0.84942 0.92927 0.0
O55 O 0.31263 0.83934 0.96112 0.0
O56 O 0.34721 0.82041 0.93573 0.0
O57 O 0.3599 0.90408 0.96965 0.0
O58 O 0.32577 0.8843 0.94519 0.0
C59 C 0.3997 0.84174 0.06562 0.0
O60 O 0.39243 0.83063 0.95648 0.0
O61 O 0.39085 0.87112 0.94006 0.0
C62 C 0.32417 0.82508 0.92968 0.0
O63 O 0.38248 0.82604 0.05673 0.0
O64 O 0.40212 0.86101 0.03739 0.0
C65 C 0.34634 0.89731 0.07715 0.0
Fe66 Fe 0.17808 0.36467 0.00054 0.0
Fe67 Fe 0.12233 0.37812 0.99508 0.0
O68 O 0.14622 0.35517 0.99872 0.0
Fe69 Fe 0.13813 0.32285 0.0004 0.0
O70 O 0.15374 0.31849 0.06278 0.0
O71 O 0.18838 0.3386 0.0421 0.0
O72 O 0.17334 0.38282 0.0599 0.0
C73 C 0.15747 0.40028 0.06386 0.0
C74 C 0.18137 0.32401 0.93563 0.0
O75 O 0.13945 0.40193 0.03197 0.0
C76 C 0.10479 0.34023 0.9277 0.0
O77 O 0.17353 0.39253 0.959 0.0
O78 O 0.13422 0.38989 0.93359 0.0
O79 O 0.16606 0.31234 0.96455 0.0
O80 O 0.18508 0.34724 0.94154 0.0
C81 C 0.10132 0.34578 0.06491 0.0
O82 O 0.10072 0.35874 0.95728 0.0
O83 O 0.12206 0.32478 0.93781 0.0
C84 C 0.15613 0.39828 0.92735 0.0
O85 O 0.10896 0.3678 0.05638 0.0
O86 O 0.10866 0.32761 0.03679 0.0
C87 C 0.17653 0.32357 0.07136 0.0
Fe88 Fe 0.637 0.82479 0.50143 0.0
Fe89 Fe 0.67756 0.86612 0.49696 0.0
O90 O 0.64551 0.85703 0.50046 0.0
Fe91 Fe 0.62171 0.88017 0.50312 0.0
O92 O 0.61107 0.86892 0.56564 0.0
O93 O 0.60922 0.82925 0.54296 0.0
O94 O 0.65488 0.81951 0.56064 0.0
C95 C 0.67787 0.82448 0.56658 0.0
C96 C 0.60061 0.84324 0.43656 0.0
O97 O 0.68901 0.83965 0.53637 0.0
C98 C 0.65266 0.90047 0.42977 0.0
O99 O 0.66321 0.81428 0.46056 0.0
O100 O 0.68215 0.84897 0.43647 0.0
O101 O 0.5983 0.86154 0.4677 0.0
O102 O 0.61843 0.82782 0.44192 0.0
C103 C 0.65991 0.90119 0.56646 0.0
O104 O 0.67156 0.89407 0.4568 0.0
O105 O 0.63095 0.89288 0.44094 0.0
C106 C 0.6778 0.82591 0.4301 0.0
O107 O 0.67576 0.88416 0.55731 0.0
O108 O 0.64036 0.90335 0.53889 0.0
C109 C 0.60353 0.8469 0.57389 0.0
Fe110 Fe 0.13758 0.67852 0.50023 0.0
Fe111 Fe 0.1782 0.63729 0.49857 0.0
O112 O 0.14618 0.64638 0.4981 0.0
Fe113 Fe 0.12268 0.62302 0.49539 0.0
O114 O 0.09981 0.64204 0.45986 0.0
O115 O 0.12009 0.67632 0.43906 0.0
O116 O 0.16454 0.6892 0.46165 0.0
C117 C 0.17969 0.67757 0.43217 0.0
C118 C 0.10241 0.65473 0.56728 0.0
O119 O 0.1843 0.65455 0.43897 0.0
C120 C 0.15863 0.60165 0.5632 0.0
O121 O 0.15429 0.6834 0.56124 0.0
O122 O 0.18883 0.66362 0.53903 0.0
O123 O 0.11007 0.63285 0.55738 0.0
O124 O 0.10917 0.67326 0.53959 0.0
C125 C 0.156 0.60374 0.42607 0.0
O126 O 0.17425 0.61932 0.55856 0.0
O127 O 0.14081 0.59939 0.53093 0.0
C128 C 0.1772 0.6786 0.56871 0.0
O129 O 0.17345 0.60931 0.4577 0.0
O130 O 0.13403 0.61188 0.43297 0.0
C131 C 0.10219 0.66125 0.43154 0.0
Fe132 Fe 0.36467 0.17687 0.49848 0.0
Fe133 Fe 0.32274 0.1368 0.49928 0.0
O134 O 0.35503 0.14502 0.49947 0.0
Fe135 Fe 0.37793 0.12098 0.5007 0.0
O136 O 0.38966 0.13174 0.56275 0.0
O137 O 0.3922 0.17165 0.54089 0.0
O138 O 0.34734 0.18395 0.55751 0.0
C139 C 0.32434 0.17983 0.56507 0.0
C140 C 0.40077 0.15705 0.43515 0.0
O141 O 0.31244 0.16417 0.53729 0.0
C142 C 0.34512 0.10138 0.4307 0.0
O143 O 0.33876 0.18737 0.45634 0.0
O144 O 0.31733 0.15303 0.4383 0.0
O145 O 0.40207 0.13856 0.4657 0.0
O146 O 0.383 0.17255 0.43905 0.0
C147 C 0.34037 0.10132 0.56685 0.0
O148 O 0.32731 0.10811 0.46042 0.0
O149 O 0.36722 0.10903 0.43857 0.0
C150 C 0.32315 0.17545 0.42828 0.0
O151 O 0.32564 0.11967 0.56077 0.0
O152 O 0.3587 0.09836 0.53633 0.0
C153 C 0.39779 0.1536 0.57111 0.0
Fe154 Fe 0.86558 0.32399 0.50273 0.0
Fe155 Fe 0.88115 0.37921 0.50718 0.0
O156 O 0.85725 0.35624 0.50342 0.0
Fe157 Fe 0.82527 0.36556 0.5003 0.0
O158 O 0.81369 0.33865 0.53791 0.0
O159 O 0.8477 0.31805 0.56149 0.0
O160 O 0.89333 0.32782 0.5448 0.0
C161 C 0.89939 0.34509 0.57642 0.0
C162 C 0.82485 0.32625 0.43108 0.0
O163 O 0.8919 0.36728 0.56936 0.0
C164 C 0.85016 0.4006 0.43492 0.0
O165 O 0.88415 0.32772 0.44351 0.0
O166 O 0.90455 0.36082 0.47152 0.0
O167 O 0.82053 0.34925 0.43873 0.0
O168 O 0.83935 0.31418 0.46108 0.0
C169 C 0.84309 0.39975 0.57129 0.0
O170 O 0.87185 0.39254 0.44533 0.0
O171 O 0.83137 0.39405 0.46195 0.0
C172 C 0.90224 0.34288 0.43956 0.0
O173 O 0.86248 0.40207 0.54346 0.0
O174 O 0.82728 0.38272 0.56179 0.0
C175 C 0.82474 0.32308 0.56745 0.0
H176 H 0.44788 0.13794 0.4424 0.0
H177 H 0.48303 0.14396 0.38359 0.0
H178 H 0.43735 0.1918 0.28632 0.0
H179 H 0.40204 0.18654 0.3468 0.0
H180 H 0.4893 0.13015 0.29088 0.0
H181 H 0.47449 0.23215 0.21701 0.0
H182 H 0.45802 0.27251 0.24951 0.0
H183 H 0.47409 0.25022 0.40698 0.0
H184 H 0.49094 0.20989 0.3754 0.0
H185 H 0.5538 0.14479 0.06013 0.0
H186 H 0.52115 0.14898 0.12556 0.0
H187 H 0.56978 0.1957 0.21883 0.0
H188 H 0.60283 0.19196 0.15219 0.0
H189 H 0.5199 0.21161 0.22242 0.0
H190 H 0.56558 0.13601 0.24928 0.0
H191 H 0.58584 0.09631 0.22337 0.0
H192 H 0.51448 0.06652 0.17613 0.0
H193 H 0.49383 0.10621 0.20097 0.0
C194 C 0.44524 0.14987 0.40865 0.0
C195 C 0.42205 0.16167 0.39916 0.0
C196 C 0.46544 0.15329 0.37493 0.0
C197 C 0.46302 0.16838 0.33039 0.0
C198 C 0.43991 0.18039 0.32084 0.0
C199 C 0.41967 0.17727 0.35524 0.0
C200 C 0.48443 0.17032 0.29313 0.0
C201 C 0.49593 0.14803 0.27617 0.0
C202 C 0.49363 0.1936 0.27447 0.0
C203 C 0.48373 0.2179 0.29382 0.0
C204 C 0.47458 0.2359 0.25855 0.0
C205 C 0.46517 0.25877 0.27682 0.0
C206 C 0.46493 0.26389 0.33028 0.0
C207 C 0.47419 0.24619 0.36559 0.0
C208 C 0.48364 0.22331 0.34753 0.0
C209 C 0.55761 0.15616 0.0943 0.0
C210 C 0.5811 0.16774 0.10134 0.0
C211 C 0.53885 0.15856 0.13168 0.0
C212 C 0.54316 0.17224 0.17755 0.0
C213 C 0.5661 0.18496 0.18375 0.0
C214 C 0.58496 0.18276 0.14579 0.0
C215 C 0.52421 0.17148 0.21999 0.0
C216 C 0.51321 0.19385 0.23763 0.0
C217 C 0.51593 0.14832 0.24074 0.0
C218 C 0.52817 0.12418 0.22666 0.0
C219 C 0.55422 0.12105 0.2331 0.0
C220 C 0.56578 0.09855 0.2186 0.0
C221 C 0.55147 0.07893 0.19802 0.0
C222 C 0.52554 0.08175 0.19205 0.0
C223 C 0.51389 0.10424 0.20639 0.0
H224 H 0.56046 0.06153 0.18677 0.0
H225 H 0.45762 0.2816 0.34434 0.0
H226 H 0.80465 0.58243 0.10771 0.0
H227 H 0.80105 0.54726 0.16886 0.0
H228 H 0.88154 0.54561 0.18599 0.0
H229 H 0.88539 0.58065 0.12569 0.0
H230 H 0.86 0.49868 0.16235 0.0
H231 H 0.84836 0.56861 0.2807 0.0
H232 H 0.82763 0.60715 0.31193 0.0
H233 H 0.7578 0.56752 0.32527 0.0
H234 H 0.77807 0.5288 0.29336 0.0
H235 H 0.88708 0.42397 0.37946 0.0
H236 H 0.88239 0.45757 0.31594 0.0
H237 H 0.80197 0.45506 0.33424 0.0
H238 H 0.80651 0.42168 0.39909 0.0
H239 H 0.81806 0.50227 0.33482 0.0
H240 H 0.82989 0.43139 0.22452 0.0
H241 H 0.85001 0.39259 0.19296 0.0
H242 H 0.91796 0.43316 0.16215 0.0
H243 H 0.89837 0.47215 0.19425 0.0
C244 C 0.82156 0.57472 0.12488 0.0
C245 C 0.8453 0.58428 0.11158 0.0
C246 C 0.81945 0.55467 0.15977 0.0
C247 C 0.84105 0.54384 0.18161 0.0
C248 C 0.86468 0.55366 0.16924 0.0
C249 C 0.86679 0.57377 0.13489 0.0
C250 C 0.83937 0.52177 0.21626 0.0
C251 C 0.85098 0.49945 0.20023 0.0
C252 C 0.82682 0.52266 0.26473 0.0
C253 C 0.81466 0.5459 0.28401 0.0
C254 C 0.82853 0.56818 0.2898 0.0
C255 C 0.81688 0.59004 0.30773 0.0
C256 C 0.79139 0.58981 0.32041 0.0
C257 C 0.77753 0.56769 0.31533 0.0
C258 C 0.78909 0.54578 0.29735 0.0
C259 C 0.86835 0.4304 0.36985 0.0
C260 C 0.84715 0.4201 0.39437 0.0
C261 C 0.8657 0.44957 0.3333 0.0
C262 C 0.84181 0.45859 0.31982 0.0
C263 C 0.82058 0.44832 0.34402 0.0
C264 C 0.82321 0.42921 0.38093 0.0
C265 C 0.83926 0.47924 0.28151 0.0
C266 C 0.8268 0.5013 0.29668 0.0
C267 C 0.85087 0.47806 0.23196 0.0
C268 C 0.86269 0.45468 0.21215 0.0
C269 C 0.84918 0.43201 0.21134 0.0
C270 C 0.86048 0.40999 0.19331 0.0
C271 C 0.88527 0.4104 0.17565 0.0
C272 C 0.89877 0.43287 0.17586 0.0
C273 C 0.88756 0.45495 0.1939 0.0
H274 H 0.89399 0.39332 0.16173 0.0
H275 H 0.7824 0.60675 0.3343 0.0
H276 H 0.5659 0.87695 0.40319 0.0
H277 H 0.53141 0.87044 0.34252 0.0
H278 H 0.55471 0.79371 0.31958 0.0
H279 H 0.59003 0.80033 0.37997 0.0
H280 H 0.54015 0.81377 0.22889 0.0
H281 H 0.50393 0.80756 0.39691 0.0
H282 H 0.49506 0.81943 0.48801 0.0
H283 H 0.4607 0.88787 0.43602 0.0
H284 H 0.46971 0.87662 0.34461 0.0
H285 H 0.4181 0.79677 0.1024 0.0
H286 H 0.45172 0.79083 0.16745 0.0
H287 H 0.45672 0.87096 0.18804 0.0
H288 H 0.42389 0.87702 0.12258 0.0
H289 H 0.45503 0.84055 0.28417 0.0
H290 H 0.49757 0.84755 0.1165 0.0
H291 H 0.50612 0.83425 0.0261 0.0
H292 H 0.52736 0.76104 0.08034 0.0
H293 H 0.51854 0.77382 0.17107 0.0
C294 C 0.56379 0.85863 0.38536 0.0
C295 C 0.58059 0.83906 0.39706 0.0
C296 C 0.54392 0.8549 0.35073 0.0
C297 C 0.53998 0.83138 0.32742 0.0
C298 C 0.5572 0.81196 0.33747 0.0
C299 C 0.57737 0.81576 0.37199 0.0
C300 C 0.51778 0.82751 0.29281 0.0
C301 C 0.52146 0.8191 0.24142 0.0
C302 C 0.49328 0.83446 0.30888 0.0
C303 C 0.48764 0.84129 0.36384 0.0
C304 C 0.49462 0.82522 0.40489 0.0
C305 C 0.48956 0.83183 0.4566 0.0
C306 C 0.47736 0.8544 0.46779 0.0
C307 C 0.47016 0.87039 0.42728 0.0
C308 C 0.47521 0.86389 0.3755 0.0
C309 C 0.4263 0.81305 0.12116 0.0
C310 C 0.41849 0.83736 0.10729 0.0
C311 C 0.44551 0.80964 0.15808 0.0
C312 C 0.45672 0.83048 0.1824 0.0
C313 C 0.44832 0.85465 0.16975 0.0
C314 C 0.42963 0.85807 0.13221 0.0
C315 C 0.47764 0.82756 0.22025 0.0
C316 C 0.47366 0.83472 0.2722 0.0
C317 C 0.50171 0.81915 0.20489 0.0
C318 C 0.50705 0.81152 0.15044 0.0
C319 C 0.50379 0.82853 0.10909 0.0
C320 C 0.50875 0.82111 0.05781 0.0
C321 C 0.51718 0.79679 0.04746 0.0
C322 C 0.52076 0.77986 0.0884 0.0
C323 C 0.51579 0.78718 0.13975 0.0
H324 H 0.52102 0.79108 0.00773 0.0
H325 H 0.47345 0.85949 0.50785 0.0
H326 H 0.19408 0.4052 0.13939 0.0
H327 H 0.19943 0.44027 0.20068 0.0
H328 H 0.13417 0.47656 0.13545 0.0
H329 H 0.1288 0.44214 0.07448 0.0
H330 H 0.17153 0.50935 0.14757 0.0
H331 H 0.13095 0.44523 0.2489 0.0
H332 H 0.12613 0.40341 0.28864 0.0
H333 H 0.19467 0.41387 0.3743 0.0
H334 H 0.2001 0.45563 0.33436 0.0
H335 H 0.12627 0.59192 0.34262 0.0
H336 H 0.13241 0.55787 0.27989 0.0
H337 H 0.20162 0.53746 0.35637 0.0
H338 H 0.19573 0.57152 0.41917 0.0
H339 H 0.16901 0.49688 0.33925 0.0
H340 H 0.2055 0.56466 0.24275 0.0
H341 H 0.20653 0.60725 0.20538 0.0
H342 H 0.14165 0.5904 0.11217 0.0
H343 H 0.14005 0.54778 0.14945 0.0
C344 C 0.18091 0.42067 0.1382 0.0
C345 C 0.16102 0.42083 0.10204 0.0
C346 C 0.18396 0.44065 0.17322 0.0
C347 C 0.16717 0.46099 0.17254 0.0
C348 C 0.14743 0.46115 0.13642 0.0
C349 C 0.14434 0.44131 0.10172 0.0
C350 C 0.16959 0.48217 0.20965 0.0
C351 C 0.17094 0.50663 0.18949 0.0
C352 C 0.16925 0.47856 0.26431 0.0
C353 C 0.16614 0.45339 0.28802 0.0
C354 C 0.14514 0.4385 0.27575 0.0
C355 C 0.14227 0.41483 0.2984 0.0
C356 C 0.16014 0.40594 0.3338 0.0
C357 C 0.18089 0.42074 0.34673 0.0
C358 C 0.18388 0.44441 0.32408 0.0
C359 C 0.14289 0.58032 0.34585 0.0
C360 C 0.16049 0.58439 0.38586 0.0
C361 C 0.14641 0.56094 0.30992 0.0
C362 C 0.16752 0.54527 0.3135 0.0
C363 C 0.18524 0.54941 0.35301 0.0
C364 C 0.18188 0.56895 0.38865 0.0
C365 C 0.17048 0.52397 0.27706 0.0
C366 C 0.17013 0.49954 0.29735 0.0
C367 C 0.17136 0.5276 0.22251 0.0
C368 C 0.17256 0.55306 0.19919 0.0
C369 C 0.19137 0.57007 0.2145 0.0
C370 C 0.19207 0.59421 0.19329 0.0
C371 C 0.17414 0.60154 0.1565 0.0
C372 C 0.15553 0.5847 0.14067 0.0
C373 C 0.15474 0.56053 0.16176 0.0
H374 H 0.17468 0.62026 0.1402 0.0
H375 H 0.15787 0.38763 0.35136 0.0
H376 H 0.58842 0.87996 0.64879 0.0
H377 H 0.55488 0.87451 0.71207 0.0
H378 H 0.54273 0.79893 0.65707 0.0
H379 H 0.57618 0.80433 0.59276 0.0
H380 H 0.4994 0.82416 0.66357 0.0
H381 H 0.56783 0.80825 0.77606 0.0
H382 H 0.60925 0.8147 0.81666 0.0
H383 H 0.58439 0.88496 0.88046 0.0
H384 H 0.54287 0.87911 0.83954 0.0
H385 H 0.41372 0.80635 0.88055 0.0
H386 H 0.44931 0.80114 0.82099 0.0
H387 H 0.46498 0.88034 0.83149 0.0
H388 H 0.42931 0.88585 0.89014 0.0
H389 H 0.5073 0.8463 0.85096 0.0
H390 H 0.43983 0.86238 0.72751 0.0
H391 H 0.39869 0.85399 0.68693 0.0
H392 H 0.42275 0.77966 0.64584 0.0
H393 H 0.46394 0.78751 0.68691 0.0
C394 C 0.57881 0.86207 0.65037 0.0
C395 C 0.58488 0.84262 0.61551 0.0
C396 C 0.55973 0.85893 0.68683 0.0
C397 C 0.54645 0.83624 0.68951 0.0
C398 C 0.5528 0.81657 0.65562 0.0
C399 C 0.57196 0.81967 0.61906 0.0
C400 C 0.52498 0.83389 0.72567 0.0
C401 C 0.50122 0.82845 0.70479 0.0
C402 C 0.52735 0.83969 0.77933 0.0
C403 C 0.55226 0.84331 0.80437 0.0
C404 C 0.57123 0.82518 0.79842 0.0
C405 C 0.59474 0.82871 0.82156 0.0
C406 C 0.59948 0.85026 0.85105 0.0
C407 C 0.58069 0.86828 0.85758 0.0
C408 C 0.55715 0.86484 0.83447 0.0
C409 C 0.42463 0.82268 0.86975 0.0
C410 C 0.41876 0.8465 0.89001 0.0
C411 C 0.44489 0.81966 0.83584 0.0
C412 C 0.45972 0.84035 0.82228 0.0
C413 C 0.45374 0.86417 0.84183 0.0
C414 C 0.43327 0.86729 0.87501 0.0
C415 C 0.48184 0.83725 0.78842 0.0
C416 C 0.50566 0.84163 0.80989 0.0
C417 C 0.47957 0.83012 0.73555 0.0
C418 C 0.45483 0.82541 0.7109 0.0
C419 C 0.43625 0.84416 0.71033 0.0
C420 C 0.41295 0.83952 0.68712 0.0
C421 C 0.40807 0.81627 0.66399 0.0
C422 C 0.42653 0.79764 0.66388 0.0
C423 C 0.44986 0.80217 0.6871 0.0
H424 H 0.39003 0.81272 0.64601 0.0
H425 H 0.6177 0.85297 0.86893 0.0
H426 H 0.1964 0.42997 0.91918 0.0
H427 H 0.20203 0.46443 0.85729 0.0
H428 H 0.13175 0.44554 0.78347 0.0
H429 H 0.12587 0.41111 0.84526 0.0
H430 H 0.16994 0.45602 0.71228 0.0
H431 H 0.13354 0.49211 0.86781 0.0
H432 H 0.13184 0.5014 0.96198 0.0
H433 H 0.20248 0.53982 0.95235 0.0
H434 H 0.20478 0.53039 0.85818 0.0
H435 H 0.12796 0.56188 0.58118 0.0
H436 H 0.13353 0.52786 0.6429 0.0
H437 H 0.20244 0.56125 0.69749 0.0
H438 H 0.19694 0.59596 0.63522 0.0
H439 H 0.17218 0.54358 0.7784 0.0
H440 H 0.20616 0.51175 0.62029 0.0
H441 H 0.20744 0.50275 0.52599 0.0
H442 H 0.14199 0.45633 0.53999 0.0
H443 H 0.14004 0.46538 0.63426 0.0
C444 C 0.18223 0.43298 0.88948 0.0
C445 C 0.1606 0.41785 0.88736 0.0
C446 C 0.18545 0.45275 0.85429 0.0
C447 C 0.1672 0.45767 0.81612 0.0
C448 C 0.14604 0.44208 0.81271 0.0
C449 C 0.14268 0.42246 0.84816 0.0
C450 C 0.16965 0.47951 0.78061 0.0
C451 C 0.17031 0.47517 0.72667 0.0
C452 C 0.17094 0.50445 0.79957 0.0
C453 C 0.16949 0.51027 0.85609 0.0
C454 C 0.14882 0.50234 0.88586 0.0
C455 C 0.14773 0.50766 0.93922 0.0
C456 C 0.16708 0.52111 0.96318 0.0
C457 C 0.18753 0.52934 0.93376 0.0
C458 C 0.18874 0.52402 0.88039 0.0
C459 C 0.14439 0.56215 0.60611 0.0
C460 C 0.16217 0.58161 0.60272 0.0
C461 C 0.14755 0.54256 0.64138 0.0
C462 C 0.16862 0.54175 0.67413 0.0
C463 C 0.18613 0.56144 0.67221 0.0
C464 C 0.18299 0.58121 0.6366 0.0
C465 C 0.17191 0.52011 0.70996 0.0
C466 C 0.17229 0.52444 0.76396 0.0
C467 C 0.17166 0.49512 0.69108 0.0
C468 C 0.17287 0.48939 0.63439 0.0
C469 C 0.19193 0.49976 0.60323 0.0
C470 C 0.19278 0.49463 0.54977 0.0
C471 C 0.17479 0.47901 0.527 0.0
C472 C 0.15592 0.46843 0.55768 0.0
C473 C 0.15494 0.47354 0.61116 0.0
H474 H 0.17548 0.47506 0.48559 0.0
H475 H 0.1662 0.52522 0.0045 0.0
H476 H 0.42316 0.11735 0.62417 0.0
H477 H 0.45662 0.12281 0.68753 0.0
H478 H 0.44923 0.20326 0.67573 0.0
H479 H 0.41604 0.19791 0.61027 0.0
H480 H 0.49684 0.19066 0.67385 0.0
H481 H 0.42852 0.17082 0.78516 0.0
H482 H 0.39144 0.14744 0.81564 0.0
H483 H 0.43641 0.08125 0.83534 0.0
H484 H 0.4737 0.10412 0.80427 0.0
H485 H 0.58042 0.19951 0.89677 0.0
H486 H 0.54447 0.20371 0.83778 0.0
H487 H 0.54558 0.12391 0.80979 0.0
H488 H 0.5814 0.11946 0.86831 0.0
H489 H 0.49861 0.14241 0.83919 0.0
H490 H 0.56571 0.16241 0.71844 0.0
H491 H 0.60241 0.1866 0.68865 0.0
H492 H 0.5586 0.25424 0.69004 0.0
H493 H 0.52171 0.23048 0.72056 0.0
C494 C 0.42841 0.13625 0.63528 0.0
C495 C 0.41688 0.15722 0.61225 0.0
C496 C 0.44751 0.13934 0.6718 0.0
C497 C 0.45513 0.16344 0.68713 0.0
C498 C 0.44355 0.18448 0.66459 0.0
C499 C 0.42458 0.1814 0.62736 0.0
C500 C 0.47595 0.16633 0.72503 0.0
C501 C 0.497 0.18055 0.71056 0.0
C502 C 0.47625 0.15297 0.77273 0.0
C503 C 0.45391 0.13919 0.79211 0.0
C504 C 0.43048 0.15124 0.79572 0.0
C505 C 0.40943 0.13808 0.81313 0.0
C506 C 0.41156 0.11287 0.82735 0.0
C507 C 0.43478 0.10079 0.82432 0.0
C508 C 0.4559 0.11386 0.8069 0.0
C509 C 0.5732 0.18289 0.8776 0.0
C510 C 0.58366 0.15912 0.88757 0.0
C511 C 0.55269 0.18535 0.84392 0.0
C512 C 0.54238 0.16409 0.81978 0.0
C513 C 0.55323 0.1405 0.82841 0.0
C514 C 0.57377 0.13803 0.86173 0.0
C515 C 0.51962 0.16603 0.78711 0.0
C516 C 0.4982 0.15281 0.80284 0.0
C517 C 0.51891 0.1805 0.74098 0.0
C518 C 0.54105 0.19472 0.72238 0.0
C519 C 0.56397 0.18248 0.71285 0.0
C520 C 0.58479 0.1961 0.69573 0.0
C521 C 0.58286 0.22195 0.68762 0.0
C522 C 0.56008 0.23422 0.69644 0.0
C523 C 0.53921 0.22068 0.71361 0.0
H524 H 0.599 0.23247 0.67438 0.0
H525 H 0.39523 0.1027 0.84077 0.0
H526 H 0.79593 0.58731 0.89209 0.0
H527 H 0.78955 0.55352 0.8277 0.0
H528 H 0.86951 0.54166 0.82073 0.0
H529 H 0.87595 0.57478 0.8851 0.0
H530 H 0.84514 0.54414 0.7214 0.0
H531 H 0.83679 0.50386 0.89124 0.0
H532 H 0.81706 0.49819 0.97735 0.0
H533 H 0.74607 0.48387 0.90361 0.0
H534 H 0.76534 0.48984 0.81703 0.0
H535 H 0.87756 0.4292 0.61914 0.0
H536 H 0.87042 0.46406 0.67855 0.0
H537 H 0.79077 0.44985 0.67417 0.0
H538 H 0.79793 0.41415 0.61495 0.0
H539 H 0.80597 0.46328 0.77191 0.0
H540 H 0.81483 0.49717 0.60205 0.0
H541 H 0.83371 0.50288 0.51516 0.0
H542 H 0.90139 0.53049 0.58587 0.0
H543 H 0.88308 0.52458 0.67326 0.0
C544 C 0.8121 0.57756 0.87649 0.0
C545 C 0.83643 0.58359 0.89384 0.0
C546 C 0.80843 0.55824 0.83994 0.0
C547 C 0.82907 0.54504 0.81964 0.0
C548 C 0.85334 0.55159 0.83589 0.0
C549 C 0.85697 0.57046 0.87286 0.0
C550 C 0.82588 0.52407 0.78202 0.0
C551 C 0.83658 0.52646 0.73237 0.0
C552 C 0.81393 0.50131 0.79576 0.0
C553 C 0.80242 0.49763 0.84774 0.0
C554 C 0.81692 0.49975 0.89342 0.0
C555 C 0.80584 0.49643 0.9423 0.0
C556 C 0.78031 0.49076 0.94596 0.0
C557 C 0.76583 0.48832 0.90073 0.0
C558 C 0.77682 0.49167 0.85175 0.0
C559 C 0.85849 0.43333 0.63094 0.0
C560 C 0.83827 0.41911 0.61168 0.0
C561 C 0.85442 0.45337 0.66484 0.0
C562 C 0.83 0.46007 0.67973 0.0
C563 C 0.80977 0.44519 0.66276 0.0
C564 C 0.81387 0.4248 0.629 0.0
C565 C 0.82607 0.48306 0.71181 0.0
C566 C 0.81403 0.4811 0.76033 0.0
C567 C 0.83655 0.5064 0.69683 0.0
C568 C 0.84759 0.51031 0.64428 0.0
C569 C 0.83379 0.50433 0.59911 0.0
C570 C 0.84439 0.50761 0.54975 0.0
C571 C 0.86874 0.51702 0.545 0.0
C572 C 0.88252 0.52321 0.58961 0.0
C573 C 0.87203 0.51994 0.63908 0.0
H574 H 0.87692 0.51953 0.50676 0.0
H575 H 0.77176 0.48818 0.98384 0.0
H576 H 0.91991 0.69948 0.89314 0.0
H577 H 0.9551 0.70385 0.83236 0.0
H578 H 0.95492 0.62388 0.80656 0.0
H579 H 0.91983 0.61928 0.8665 0.0
H580 H 0.00208 0.64392 0.83491 0.0
H581 H 0.93356 0.65968 0.71515 0.0
H582 H 0.89567 0.68199 0.68516 0.0
H583 H 0.93694 0.75111 0.67948 0.0
H584 H 0.97502 0.72925 0.7103 0.0
H585 H 0.0772 0.61817 0.61978 0.0
H586 H 0.04325 0.62329 0.68201 0.0
H587 H 0.04909 0.70378 0.66878 0.0
H588 H 0.08285 0.69881 0.6048 0.0
H589 H 0.00114 0.68952 0.66629 0.0
H590 H 0.07084 0.67328 0.77783 0.0
H591 H 0.10874 0.65125 0.80869 0.0
H592 H 0.06579 0.58409 0.83223 0.0
H593 H 0.02768 0.6056 0.8008 0.0
C594 C 0.92718 0.68287 0.87406 0.0
C595 C 0.91719 0.65902 0.88501 0.0
C596 C 0.94724 0.68542 0.83938 0.0
C597 C 0.9576 0.66415 0.8154 0.0
C598 C 0.94722 0.64047 0.82505 0.0
C599 C 0.9271 0.63792 0.85921 0.0
C600 C 0.98 0.66616 0.7819 0.0
C601 C 0.00189 0.65375 0.79787 0.0
C602 C 0.97986 0.67979 0.73466 0.0
C603 C 0.95706 0.69289 0.71565 0.0
C604 C 0.9345 0.67968 0.70797 0.0
C605 C 0.913 0.69224 0.69073 0.0
C606 C 0.91386 0.71797 0.68057 0.0
C607 C 0.93628 0.73118 0.68747 0.0
C608 C 0.95783 0.71872 0.7048 0.0
C609 C 0.07146 0.63701 0.63024 0.0
C610 C 0.0828 0.6581 0.60739 0.0
C611 C 0.05207 0.63991 0.66606 0.0
C612 C 0.04389 0.66393 0.68067 0.0
C613 C 0.05518 0.68508 0.65813 0.0
C614 C 0.0745 0.68219 0.62176 0.0
C615 C 0.02312 0.66663 0.71857 0.0
C616 C 0.00154 0.68 0.70365 0.0
C617 C 0.02356 0.65399 0.7671 0.0
C618 C 0.04641 0.64104 0.78667 0.0
C619 C 0.06949 0.65377 0.78931 0.0
C620 C 0.09102 0.64138 0.80693 0.0
C621 C 0.08969 0.61628 0.82234 0.0
C622 C 0.0668 0.60354 0.82029 0.0
C623 C 0.04522 0.61584 0.80265 0.0
H624 H 0.10638 0.60671 0.83593 0.0
H625 H 0.89719 0.72765 0.66724 0.0
H626 H 0.36678 0.05818 0.58171 0.0
H627 H 0.35905 0.02482 0.64388 0.0
H628 H 0.29453 0.06466 0.7025 0.0
H629 H 0.30234 0.09873 0.63998 0.0
H630 H 0.32203 0.04698 0.78089 0.0
H631 H 0.28695 0.01198 0.62798 0.0
H632 H 0.28411 0.99936 0.53562 0.0
H633 H 0.34701 0.94993 0.5556 0.0
H634 H 0.3505 0.96253 0.64794 0.0
H635 H 0.30253 0.90589 0.86814 0.0
H636 H 0.29467 0.94013 0.80624 0.0
H637 H 0.35975 0.9793 0.8645 0.0
H638 H 0.36753 0.9456 0.92637 0.0
H639 H 0.32135 0.95746 0.7274 0.0
H640 H 0.35328 0.03973 0.86086 0.0
H641 H 0.34967 0.05321 0.9527 0.0
H642 H 0.28274 0.00917 0.96952 0.0
H643 H 0.28617 0.99516 0.87828 0.0
C644 C 0.35084 0.06 0.60759 0.0
C645 C 0.33513 0.08125 0.60562 0.0
C646 C 0.34635 0.04069 0.64299 0.0
C647 C 0.32595 0.04193 0.67734 0.0
C648 C 0.3103 0.0632 0.67607 0.0
C649 C 0.31477 0.08265 0.64035 0.0
C650 C 0.322 0.02141 0.71585 0.0
C651 C 0.32171 0.02743 0.7691 0.0
C652 C 0.32089 0.99584 0.70064 0.0
C653 C 0.31904 0.9883 0.64494 0.0
C654 C 0.3003 0.99855 0.61263 0.0
C655 C 0.29854 0.99136 0.56029 0.0
C656 C 0.3153 0.97378 0.53983 0.0
C657 C 0.33395 0.96345 0.5716 0.0
C658 C 0.33583 0.97061 0.62396 0.0
C659 C 0.31507 0.92188 0.86796 0.0
C660 C 0.33564 0.92294 0.90245 0.0
C661 C 0.31056 0.94144 0.8325 0.0
C662 C 0.32638 0.96254 0.83112 0.0
C663 C 0.34691 0.96355 0.86544 0.0
C664 C 0.35146 0.94407 0.90066 0.0
C665 C 0.3224 0.98306 0.79241 0.0
C666 C 0.32134 0.97702 0.73912 0.0
C667 C 0.32165 0.00863 0.80747 0.0
C668 C 0.32009 0.01627 0.86293 0.0
C669 C 0.33786 0.03285 0.88432 0.0
C670 C 0.33589 0.04053 0.93633 0.0
C671 C 0.31606 0.03195 0.9671 0.0
C672 C 0.29823 0.01561 0.94595 0.0
C673 C 0.30026 0.00768 0.89418 0.0
H674 H 0.31447 0.03802 0.00726 0.0
H675 H 0.3139 0.96823 0.4993 0.0
H676 H 0.92378 0.37933 0.6377 0.0
H677 H 0.95996 0.37189 0.69403 0.0
H678 H 0.95576 0.2926 0.66181 0.0
H679 H 0.91948 0.29979 0.60489 0.0
H680 H 0.96725 0.30598 0.76981 0.0
H681 H 0.99335 0.32294 0.59505 0.0
H682 H 0.99277 0.34712 0.51324 0.0
H683 H 0.024 0.41081 0.59271 0.0
H684 H 0.02341 0.38755 0.67575 0.0
H685 H 0.09063 0.29559 0.88216 0.0
H686 H 0.05764 0.28982 0.81581 0.0
H687 H 0.04715 0.37002 0.80853 0.0
H688 H 0.07966 0.37583 0.87425 0.0
H689 H 0.04537 0.34815 0.71168 0.0
H690 H 0.01198 0.33564 0.88524 0.0
H691 H 0.0099 0.3146 0.97065 0.0
H692 H 0.99162 0.24495 0.89539 0.0
H693 H 0.99453 0.26539 0.80925 0.0
C694 C 0.93025 0.36024 0.64307 0.0
C695 C 0.91895 0.34019 0.61616 0.0
C696 C 0.95095 0.35604 0.67527 0.0
C697 C 0.96066 0.33176 0.68135 0.0
C698 C 0.94853 0.31147 0.65733 0.0
C699 C 0.9279 0.31566 0.6247 0.0
C700 C 0.98458 0.32808 0.70959 0.0
C701 C 0.9845 0.31471 0.75666 0.0
C702 C 0.00694 0.33971 0.69232 0.0
C703 C 0.00814 0.3535 0.64192 0.0
C704 C 0.99985 0.34218 0.59532 0.0
C705 C 0.99972 0.35574 0.54867 0.0
C706 C 0.0085 0.38041 0.5477 0.0
C707 C 0.01725 0.39166 0.5935 0.0
C708 C 0.01703 0.37834 0.64045 0.0
C709 C 0.08151 0.31192 0.86564 0.0
C710 C 0.08742 0.33612 0.88369 0.0
C711 C 0.06269 0.30862 0.82797 0.0
C712 C 0.04987 0.32951 0.80763 0.0
C713 C 0.05681 0.35367 0.82367 0.0
C714 C 0.07526 0.35694 0.8615 0.0
C715 C 0.02791 0.32666 0.77269 0.0
C716 C 0.02832 0.33884 0.72421 0.0
C717 C 0.00581 0.31418 0.78893 0.0
C718 C 0.00386 0.30195 0.84073 0.0
C719 C 0.0078 0.31577 0.88682 0.0
C720 C 0.00642 0.30397 0.93539 0.0
C721 C 1.00059 0.27847 0.93847 0.0
C722 C 0.99618 0.2647 0.89294 0.0
C723 C 0.99778 0.27636 0.84421 0.0
H724 H 0.99945 0.26939 0.97614 0.0
H725 H 0.00849 0.39082 0.51147 0.0
H726 H 0.63028 0.0616 0.91932 0.0
H727 H 0.63671 0.02747 0.85809 0.0
H728 H 0.70564 0.06154 0.80615 0.0
H729 H 0.69913 0.09643 0.86761 0.0
H730 H 0.67771 0.04437 0.72442 0.0
H731 H 0.70747 0.00989 0.88411 0.0
H732 H 0.70619 0.99994 0.97797 0.0
H733 H 0.64004 0.9554 0.95421 0.0
H734 H 0.6407 0.96535 0.86027 0.0
H735 H 0.70414 0.9246 0.59241 0.0
H736 H 0.70987 0.95899 0.6558 0.0
H737 H 0.63165 0.95433 0.69705 0.0
H738 H 0.62563 0.92086 0.63265 0.0
H739 H 0.67218 0.9561 0.78483 0.0
H740 H 0.63834 0.99715 0.631 0.0
H741 H 0.63687 0.01004 0.53872 0.0
H742 H 0.71007 0.04297 0.5531 0.0
H743 H 0.71211 0.02992 0.64543 0.0
C744 C 0.64691 0.06198 0.89513 0.0
C745 C 0.6643 0.08179 0.89885 0.0
C746 C 0.65062 0.04226 0.86018 0.0
C747 C 0.67191 0.04159 0.82817 0.0
C748 C 0.68916 0.06153 0.83081 0.0
C749 C 0.68544 0.08144 0.86599 0.0
C750 C 0.67549 0.02017 0.79147 0.0
C751 C 0.67716 0.02507 0.73779 0.0
C752 C 0.67433 0.99491 0.80871 0.0
C753 C 0.67409 0.98847 0.86509 0.0
C754 C 0.69258 0.99806 0.8989 0.0
C755 C 0.69197 0.9924 0.95213 0.0
C756 C 0.67307 0.97702 0.97201 0.0
C757 C 0.65472 0.96725 0.9387 0.0
C758 C 0.65522 0.97287 0.88544 0.0
C759 C 0.68828 0.93083 0.6154 0.0
C760 C 0.66445 0.92013 0.6077 0.0
C761 C 0.69153 0.95049 0.65131 0.0
C762 C 0.67114 0.95922 0.6809 0.0
C763 C 0.64759 0.94789 0.67453 0.0
C764 C 0.64419 0.92882 0.63774 0.0
C765 C 0.67398 0.98043 0.71806 0.0
C766 C 0.67341 0.97541 0.77174 0.0
C767 C 0.67615 0.00554 0.70089 0.0
C768 C 0.67556 0.01218 0.64482 0.0
C769 C 0.65432 0.00672 0.61425 0.0
C770 C 0.6533 0.01421 0.56205 0.0
C771 C 0.67333 0.02738 0.54014 0.0
C772 C 0.69455 0.03282 0.5702 0.0
C773 C 0.69566 0.02536 0.62243 0.0
H774 H 0.67241 0.03337 0.49986 0.0
H775 H 0.67261 0.9727 0.01324 0.0
H776 H 0.06821 0.3066 0.07119 0.0
H777 H 0.03405 0.3011 0.13407 0.0
H778 H 0.05521 0.3701 0.21026 0.0
H779 H 0.08915 0.37594 0.14724 0.0
H780 H 0.04632 0.32911 0.27936 0.0
H781 H 0.00694 0.37133 0.13282 0.0
H782 H 0.99477 0.37592 0.04045 0.0
H783 H 0.95557 0.30563 0.04642 0.0
H784 H 0.96773 0.3005 0.13878 0.0
H785 H 0.94551 0.36955 0.42938 0.0
H786 H 0.97883 0.36394 0.36614 0.0
H787 H 0.93902 0.30154 0.29785 0.0
H788 H 0.90496 0.30727 0.36133 0.0
H789 H 0.95716 0.33188 0.22346 0.0
H790 H 0.9916 0.29115 0.3709 0.0
H791 H 0.00439 0.28426 0.46223 0.0
H792 H 0.05343 0.34802 0.45468 0.0
H793 H 0.04071 0.35552 0.36346 0.0
C794 C 0.06568 0.32053 0.10151 0.0
C795 C 0.08137 0.34174 0.1042 0.0
C796 C 0.04609 0.3174 0.13723 0.0
C797 C 0.04205 0.33525 0.17663 0.0
C798 C 0.05801 0.35612 0.18011 0.0
C799 C 0.07734 0.35946 0.14399 0.0
C800 C 0.02109 0.33242 0.21417 0.0
C801 C 0.02681 0.3299 0.2673 0.0
C802 C 0.99568 0.33239 0.19804 0.0
C803 C 0.98846 0.33541 0.14252 0.0
C804 C 0.9959 0.35675 0.11431 0.0
C805 C 0.98894 0.35949 0.06202 0.0
C806 C 0.97438 0.3411 0.03762 0.0
C807 C 0.9668 0.31989 0.06542 0.0
C808 C 0.97371 0.31706 0.11774 0.0
C809 C 0.9437 0.35453 0.40114 0.0
C810 C 0.92249 0.33879 0.40068 0.0
C811 C 0.96296 0.35124 0.36509 0.0
C812 C 0.96171 0.33204 0.32773 0.0
C813 C 0.94048 0.31638 0.32659 0.0
C814 C 0.92106 0.31964 0.36293 0.0
C815 C 0.98234 0.32924 0.28913 0.0
C816 C 0.97662 0.3307 0.2357 0.0
C817 C 0.00781 0.32796 0.30496 0.0
C818 C 0.0151 0.32395 0.3603 0.0
C819 C 0.00495 0.30384 0.38881 0.0
C820 C 0.01227 0.29977 0.44051 0.0
C821 C 0.02984 0.31559 0.46411 0.0
C822 C 0.03996 0.33568 0.43621 0.0
C823 C 0.03271 0.33984 0.38449 0.0
H824 H 0.03549 0.31239 0.50413 0.0
H825 H 0.969 0.34326 0.99713 0.0
H826 H 0.69572 0.91505 0.38016 0.0
H827 H 0.70021 0.94857 0.3155 0.0
H828 H 0.6206 0.963 0.32369 0.0
H829 H 0.61585 0.9291 0.38632 0.0
H830 H 0.63555 0.96578 0.22706 0.0
H831 H 0.66695 0.99526 0.39403 0.0
H832 H 0.69562 0.9931 0.46944 0.0
H833 H 0.75861 0.00622 0.36915 0.0
H834 H 0.73052 0.007 0.2926 0.0
H835 H 0.61944 0.08859 0.14223 0.0
H836 H 0.62355 0.05328 0.202 0.0
H837 H 0.70126 0.04471 0.1588 0.0
H838 H 0.69744 0.08021 0.09884 0.0
H839 H 0.69214 0.03732 0.26644 0.0
H840 H 0.66174 0.00841 0.10078 0.0
H841 H 0.63392 0.00965 0.02383 0.0
H842 H 0.56996 0.99652 0.1216 0.0
H843 H 0.59733 0.99573 0.19932 0.0
C844 C 0.67918 0.92528 0.36779 0.0
C845 C 0.65548 0.91959 0.38861 0.0
C846 C 0.68178 0.94444 0.33098 0.0
C847 C 0.6608 0.95857 0.31547 0.0
C848 C 0.63705 0.95237 0.3351 0.0
C849 C 0.63439 0.933 0.37107 0.0
C850 C 0.66331 0.98044 0.28024 0.0
C851 C 0.64783 0.98145 0.23593 0.0
C852 C 0.67989 1.00062 0.29101 0.0
C853 C 0.69663 1.00088 0.3374 0.0
C854 C 0.68693 0.99748 0.38792 0.0
C855 C 0.70308 0.99649 0.43091 0.0
C856 C 0.72888 0.99971 0.42418 0.0
C857 C 0.73862 0.00374 0.37434 0.0
C858 C 0.72261 0.00429 0.33108 0.0
C859 C 0.63752 0.07945 0.14581 0.0
C860 C 0.65802 0.08696 0.11511 0.0
C861 C 0.63982 0.05927 0.17999 0.0
C862 C 0.66259 0.0462 0.18399 0.0
C863 C 0.68352 0.05455 0.15594 0.0
C864 C 0.68125 0.07477 0.12163 0.0
C865 C 0.66386 0.02278 0.21458 0.0
C866 C 0.68007 0.02148 0.25761 0.0
C867 C 0.64803 0.00227 0.20275 0.0
C868 C 0.63158 0.00216 0.15592 0.0
C869 C 0.64173 0.00592 0.10592 0.0
C870 C 0.62605 0.00652 0.06215 0.0
C871 C 0.60021 0.00313 0.06782 0.0
C872 C 0.58999 0.99912 0.11727 0.0
C873 C 0.60557 0.99858 0.16119 0.0
H874 H 0.5881 0.00361 0.03389 0.0
H875 H 0.74132 0.99904 0.45757 0.0
H876 H 0.93953 0.62982 0.08726 0.0
H877 H 0.97379 0.63702 0.14806 0.0
H878 H 0.94414 0.71037 0.18387 0.0
H879 H 0.90918 0.70307 0.12317 0.0
H880 H 0.01074 0.66914 0.15056 0.0
H881 H 0.95966 0.72417 0.31163 0.0
H882 H 0.91731 0.72926 0.34912 0.0
H883 H 0.89766 0.65497 0.29865 0.0
H884 H 0.93992 0.64938 0.26129 0.0
H885 H 0.1022 0.69591 0.35141 0.0
H886 H 0.06854 0.70335 0.28733 0.0
H887 H 0.02328 0.64669 0.36159 0.0
H888 H 0.05635 0.6392 0.42494 0.0
H889 H 0.9954 0.68743 0.33751 0.0
H890 H 0.05583 0.63266 0.25462 0.0
H891 H 0.09776 0.62103 0.22195 0.0
H892 H 0.09748 0.68505 0.1204 0.0
H893 H 0.05564 0.69723 0.15304 0.0
C894 C 0.94018 0.64755 0.10793 0.0
C895 C 0.92152 0.66588 0.10019 0.0
C896 C 0.95994 0.65168 0.1426 0.0
C897 C 0.96167 0.67424 0.17059 0.0
C898 C 0.94314 0.69271 0.16302 0.0
C899 C 0.92316 0.68852 0.1283 0.0
C900 C 0.98266 0.67772 0.20838 0.0
C901 C 0.00738 0.67349 0.19131 0.0
C902 C 0.97841 0.68321 0.26168 0.0
C903 C 0.95283 0.6865 0.28317 0.0
C904 C 0.94627 0.70895 0.30851 0.0
C905 C 0.9223 0.71192 0.32975 0.0
C906 C 0.90482 0.69246 0.32623 0.0
C907 C 0.9112 0.67004 0.30122 0.0
C908 C 0.93514 0.66699 0.27992 0.0
C909 C 0.085 0.68519 0.35414 0.0
C910 C 0.08207 0.66687 0.39314 0.0
C911 C 0.06581 0.68944 0.31755 0.0
C912 C 0.04338 0.67557 0.31972 0.0
C913 C 0.04031 0.65774 0.3593 0.0
C914 C 0.05941 0.65335 0.39533 0.0
C915 C 0.02331 0.67839 0.2798 0.0
C916 C 0.99881 0.68384 0.29645 0.0
C917 C 0.02766 0.67333 0.22641 0.0
C918 C 0.05278 0.66605 0.20676 0.0
C919 C 0.06481 0.64438 0.22567 0.0
C920 C 0.08854 0.63766 0.2071 0.0
C921 C 0.10032 0.65234 0.16925 0.0
C922 C 0.08836 0.67374 0.14981 0.0
C923 C 0.06464 0.68056 0.16832 0.0
H924 H 0.11867 0.6471 0.15489 0.0
H925 H 0.88637 0.69469 0.34316 0.0
H926 H 0.30187 0.91037 0.12325 0.0
H927 H 0.2956 0.94098 0.19342 0.0
H928 H 0.37555 0.95349 0.20086 0.0
H929 H 0.382 0.92243 0.13267 0.0
H930 H 0.35644 0.95475 0.29539 0.0
H931 H 0.3339 0.98932 0.12527 0.0
H932 H 0.30869 0.98894 0.0447 0.0
H933 H 0.24137 0.99883 0.13425 0.0
H934 H 0.26618 0.99829 0.21565 0.0
H935 H 0.38005 0.07785 0.37005 0.0
H936 H 0.3741 0.04042 0.31674 0.0
H937 H 0.29512 0.04044 0.35304 0.0
H938 H 0.3008 0.07806 0.40666 0.0
H939 H 0.30578 0.02953 0.24794 0.0
H940 H 0.33031 0.00321 0.41761 0.0
H941 H 0.35634 0.0039 0.49715 0.0
H942 H 0.42009 0.97889 0.40924 0.0
H943 H 0.39479 0.97911 0.32865 0.0
C944 C 0.31809 0.91949 0.14029 0.0
C945 C 0.34238 0.9143 0.12189 0.0
C946 C 0.31449 0.93693 0.18036 0.0
C947 C 0.33508 0.94984 0.2017 0.0
C948 C 0.35938 0.94379 0.18497 0.0
C949 C 0.36302 0.92612 0.14567 0.0
C950 C 0.33162 0.97106 0.23832 0.0
C951 C 0.34539 0.97111 0.28505 0.0
C952 C 0.31656 0.9921 0.22553 0.0
C953 C 0.30184 0.99344 0.17651 0.0
C954 C 0.31371 0.9913 0.12778 0.0
C955 C 0.29948 0.99123 0.08196 0.0
C956 C 0.27341 0.9939 0.08431 0.0
C957 C 0.26155 0.99671 0.1325 0.0
C958 C 0.27567 0.9965 0.1785 0.0
C959 C 0.36134 0.07012 0.36634 0.0
C960 C 0.34095 0.08076 0.39316 0.0
C961 C 0.35801 0.04868 0.33602 0.0
C962 C 0.33427 0.03749 0.33195 0.0
C963 C 0.3136 0.04877 0.35619 0.0
C964 C 0.31692 0.07021 0.38679 0.0
C965 C 0.33147 0.01355 0.30364 0.0
C966 C 0.31645 0.01298 0.25877 0.0
C967 C 0.34546 0.99207 0.31809 0.0
C968 C 0.36063 0.99134 0.36685 0.0
C969 C 0.34993 0.99806 0.41505 0.0
C970 C 0.36456 0.99828 0.46038 0.0
C971 C 0.3898 0.99133 0.45829 0.0
C972 C 0.40051 0.98424 0.41081 0.0
C973 C 0.38605 0.98426 0.36524 0.0
H974 H 0.40107 0.99145 0.49347 0.0
H975 H 0.26237 0.99375 0.04885 0.0
H976 H 0.82871 0.27656 0.40615 0.0
H977 H 0.80404 0.25289 0.34298 0.0
H978 H 0.76434 0.32029 0.29978 0.0
H979 H 0.78878 0.34422 0.36382 0.0
H980 H 0.73241 0.28163 0.3137 0.0
H981 H 0.8086 0.29501 0.21947 0.0
H982 H 0.85438 0.29479 0.20576 0.0
H983 H 0.85577 0.21473 0.22405 0.0
H984 H 0.81003 0.2145 0.23866 0.0
H985 H 0.6749 0.23018 0.08743 0.0
H986 H 0.69962 0.25528 0.14824 0.0
H987 H 0.74036 0.18915 0.1956 0.0
H988 H 0.71588 0.16383 0.13414 0.0
H989 H 0.77171 0.22807 0.1781 0.0
H990 H 0.69557 0.21489 0.27382 0.0
H991 H 0.64978 0.21519 0.28747 0.0
H992 H 0.64833 0.29507 0.26604 0.0
H993 H 0.69408 0.2952 0.25147 0.0
C994 C 0.81485 0.28648 0.38308 0.0
C995 C 0.81077 0.31236 0.39018 0.0
C996 C 0.8008 0.27288 0.34675 0.0
C997 C 0.78248 0.28483 0.31623 0.0
C998 C 0.7784 0.31068 0.32288 0.0
C999 C 0.79247 0.32435 0.35936 0.0
C1000 C 0.76721 0.27009 0.27844 0.0
C1001 C 0.74098 0.27024 0.28349 0.0
C1002 C 0.77841 0.25473 0.23983 0.0
C1003 C 0.8059 0.25477 0.23061 0.0
C1004 C 0.81869 0.27738 0.22095 0.0
C1005 C 0.84463 0.27733 0.21296 0.0
C1006 C 0.85798 0.25477 0.21415 0.0
C1007 C 0.8454 0.2322 0.22319 0.0
C1008 C 0.81946 0.23214 0.23127 0.0
C1009 C 0.68902 0.22087 0.11089 0.0
C1010 C 0.69336 0.19492 0.1058 0.0
C1011 C 0.7031 0.23528 0.14583 0.0
C1012 C 0.72172 0.22409 0.17684 0.0
C1013 C 0.72608 0.19819 0.17206 0.0
C1014 C 0.71199 0.18372 0.13704 0.0
C1015 C 0.73692 0.23952 0.2135 0.0
C1016 C 0.76314 0.23951 0.20823 0.0
C1017 C 0.72571 0.25502 0.25186 0.0
C1018 C 0.69822 0.25502 0.26105 0.0
C1019 C 0.68546 0.2325 0.27163 0.0
C1020 C 0.65952 0.23259 0.27959 0.0
C1021 C 0.64615 0.25513 0.27749 0.0
C1022 C 0.65871 0.27763 0.26759 0.0
C1023 C 0.68465 0.27763 0.25951 0.0
H1024 H 0.62606 0.25516 0.28365 0.0
H1025 H 0.87807 0.25478 0.20798 0.0
H1026 H 0.82777 0.72904 0.08982 0.0
H1027 H 0.80303 0.75386 0.15097 0.0
H1028 H 0.76332 0.68728 0.19881 0.0
H1029 H 0.78782 0.66224 0.13711 0.0
H1030 H 0.73142 0.72585 0.18132 0.0
H1031 H 0.80769 0.71306 0.27547 0.0
H1032 H 0.85348 0.71324 0.28808 0.0
H1033 H 0.85475 0.79332 0.27023 0.0
H1034 H 0.80894 0.79355 0.25602 0.0
H1035 H 0.67433 0.77581 0.40816 0.0
H1036 H 0.69919 0.75149 0.34646 0.0
H1037 H 0.73837 0.81859 0.29986 0.0
H1038 H 0.71374 0.84316 0.36226 0.0
H1039 H 0.77059 0.78004 0.31629 0.0
H1040 H 0.69397 0.79242 0.22116 0.0
H1041 H 0.64815 0.79163 0.20766 0.0
H1042 H 0.64769 0.71173 0.22889 0.0
H1043 H 0.69347 0.71208 0.24327 0.0
C1044 C 0.81389 0.71957 0.11349 0.0
C1045 C 0.80981 0.69359 0.10845 0.0
C1046 C 0.79978 0.73383 0.14858 0.0
C1047 C 0.78142 0.72243 0.17974 0.0
C1048 C 0.77738 0.69648 0.1751 0.0
C1049 C 0.79149 0.68218 0.13996 0.0
C1050 C 0.76619 0.73769 0.2165 0.0
C1051 C 0.73996 0.73743 0.21131 0.0
C1052 C 0.77737 0.75327 0.25482 0.0
C1053 C 0.80488 0.75329 0.26416 0.0
C1054 C 0.81774 0.7307 0.27381 0.0
C1055 C 0.84372 0.73073 0.28131 0.0
C1056 C 0.85705 0.75328 0.28 0.0
C1057 C 0.8444 0.77586 0.2712 0.0
C1058 C 0.81842 0.77592 0.26337 0.0
C1059 C 0.68811 0.78551 0.38464 0.0
C1060 C 0.69199 0.8115 0.39025 0.0
C1061 C 0.70228 0.77154 0.3492 0.0
C1062 C 0.72051 0.78323 0.31818 0.0
C1063 C 0.72439 0.80917 0.32341 0.0
C1064 C 0.71021 0.82321 0.35894 0.0
C1065 C 0.73581 0.76821 0.28109 0.0
C1066 C 0.76205 0.7685 0.28623 0.0
C1067 C 0.72464 0.7526 0.2428 0.0
C1068 C 0.69713 0.75231 0.23375 0.0
C1069 C 0.68407 0.7747 0.22333 0.0
C1070 C 0.65811 0.77433 0.21545 0.0
C1071 C 0.64501 0.75165 0.21753 0.0
C1072 C 0.65786 0.72929 0.22734 0.0
C1073 C 0.68382 0.72956 0.2353 0.0
H1074 H 0.62491 0.75141 0.21145 0.0
H1075 H 0.87717 0.75325 0.28586 0.0
H1076 H 0.32428 0.7724 0.07929 0.0
H1077 H 0.30023 0.74733 0.14118 0.0
H1078 H 0.26664 0.81463 0.20328 0.0
H1079 H 0.2908 0.83997 0.14178 0.0
H1080 H 0.28072 0.78274 0.28036 0.0
H1081 H 0.23407 0.77787 0.12072 0.0
H1082 H 0.22731 0.76991 0.02698 0.0
H1083 H 0.24887 0.69292 0.04752 0.0
H1084 H 0.2561 0.70051 0.14135 0.0
H1085 H 0.17909 0.7282 0.41524 0.0
H1086 H 0.20392 0.75205 0.35275 0.0
H1087 H 0.23765 0.68357 0.29686 0.0
H1088 H 0.2127 0.65939 0.35921 0.0
H1089 H 0.22412 0.71533 0.21682 0.0
H1090 H 0.27012 0.72041 0.3774 0.0
H1091 H 0.27581 0.72858 0.47138 0.0
H1092 H 0.25467 0.80556 0.44899 0.0
H1093 H 0.24852 0.79777 0.3549 0.0
C1094 C 0.31187 0.78194 0.10621 0.0
C1095 C 0.30939 0.80823 0.10531 0.0
C1096 C 0.29804 0.76753 0.14142 0.0
C1097 C 0.28141 0.77908 0.17639 0.0
C1098 C 0.27932 0.80534 0.17651 0.0
C1099 C 0.2931 0.81978 0.14121 0.0
C1100 C 0.26607 0.76376 0.21262 0.0
C1101 C 0.26812 0.76821 0.26643 0.0
C1102 C 0.25003 0.74443 0.19447 0.0
C1103 C 0.24585 0.73982 0.138 0.0
C1104 C 0.23758 0.7593 0.10519 0.0
C1105 C 0.23361 0.75484 0.05206 0.0
C1106 C 0.23763 0.73092 0.03133 0.0
C1107 C 0.24572 0.71143 0.06367 0.0
C1108 C 0.24975 0.71579 0.11683 0.0
C1109 C 0.1917 0.71812 0.38959 0.0
C1110 C 0.19402 0.69186 0.39256 0.0
C1111 C 0.20596 0.73183 0.35401 0.0
C1112 C 0.22288 0.71961 0.32067 0.0
C1113 C 0.22477 0.69336 0.32242 0.0
C1114 C 0.21055 0.6796 0.3582 0.0
C1115 C 0.23875 0.73436 0.28447 0.0
C1116 C 0.2368 0.72981 0.2307 0.0
C1117 C 0.25483 0.75364 0.30263 0.0
C1118 C 0.25867 0.75845 0.35914 0.0
C1119 C 0.26651 0.73904 0.39256 0.0
C1120 C 0.26986 0.74361 0.44583 0.0
C1121 C 0.26561 0.76757 0.46612 0.0
C1122 C 0.25799 0.78702 0.43318 0.0
C1123 C 0.25459 0.78254 0.37986 0.0
H1124 H 0.26825 0.77108 0.50737 0.0
H1125 H 0.23447 0.7275 0.99022 0.0
H1126 H 0.33863 0.21678 0.37428 0.0
H1127 H 0.31503 0.24055 0.30894 0.0
H1128 H 0.25331 0.18863 0.32302 0.0
H1129 H 0.27729 0.16417 0.3865 0.0
H1130 H 0.25768 0.20307 0.22486 0.0
H1131 H 0.2581 0.24411 0.39179 0.0
H1132 H 0.28002 0.26187 0.4677 0.0
H1133 H 0.31192 0.31939 0.37127 0.0
H1134 H 0.29155 0.30085 0.29383 0.0
H1135 H 0.16105 0.28256 0.12769 0.0
H1136 H 0.18632 0.25692 0.18715 0.0
H1137 H 0.24944 0.30626 0.16412 0.0
H1138 H 0.22439 0.33204 0.10514 0.0
H1139 H 0.24441 0.29314 0.26573 0.0
H1140 H 0.24514 0.25223 0.09905 0.0
H1141 H 0.22577 0.23314 0.02116 0.0
H1142 H 0.19186 0.17639 0.11643 0.0
H1143 H 0.21027 0.19565 0.19523 0.0
C1144 C 0.32013 0.21032 0.36305 0.0
C1145 C 0.30968 0.18882 0.38606 0.0
C1146 C 0.30664 0.2239 0.3257 0.0
C1147 C 0.28211 0.21673 0.31191 0.0
C1148 C 0.27212 0.19462 0.33313 0.0
C1149 C 0.28582 0.18071 0.36963 0.0
C1150 C 0.26622 0.2331 0.27832 0.0
C1151 C 0.25457 0.22269 0.23413 0.0
C1152 C 0.26244 0.25887 0.28987 0.0
C1153 C 0.2735 0.2709 0.33685 0.0
C1154 C 0.2699 0.26046 0.38664 0.0
C1155 C 0.28213 0.27064 0.42997 0.0
C1156 C 0.29721 0.29191 0.42449 0.0
C1157 C 0.30022 0.30293 0.37549 0.0
C1158 C 0.28849 0.29246 0.33175 0.0
C1159 C 0.18022 0.28812 0.1357 0.0
C1160 C 0.19074 0.30927 0.11129 0.0
C1161 C 0.19467 0.27336 0.16947 0.0
C1162 C 0.21987 0.27949 0.17946 0.0
C1163 C 0.23008 0.30113 0.15681 0.0
C1164 C 0.21571 0.31581 0.12296 0.0
C1165 C 0.23589 0.26309 0.21242 0.0
C1166 C 0.24752 0.27351 0.25653 0.0
C1167 C 0.23967 0.23738 0.20071 0.0
C1168 C 0.22888 0.22557 0.1532 0.0
C1169 C 0.23336 0.23582 0.10352 0.0
C1170 C 0.22258 0.22496 0.05917 0.0
C1171 C 0.20766 0.20355 0.06383 0.0
C1172 C 0.20343 0.19298 0.11289 0.0
C1173 C 0.21398 0.20391 0.15743 0.0
H1174 H 0.19938 0.19513 0.02942 0.0
H1175 H 0.30662 0.2998 0.45814 0.0
H1176 H 0.16051 0.71646 0.63278 0.0
H1177 H 0.18529 0.74137 0.69441 0.0
H1178 H 0.2511 0.69796 0.65653 0.0
H1179 H 0.22653 0.67282 0.59545 0.0
H1180 H 0.24805 0.70621 0.76005 0.0
H1181 H 0.24175 0.75506 0.60335 0.0
H1182 H 0.21951 0.77636 0.5315 0.0
H1183 H 0.18223 0.82428 0.64149 0.0
H1184 H 0.20376 0.80287 0.71417 0.0
H1185 H 0.34065 0.78818 0.86315 0.0
H1186 H 0.3156 0.76372 0.80129 0.0
H1187 H 0.24979 0.80632 0.84291 0.0
H1188 H 0.27464 0.831 0.90444 0.0
H1189 H 0.2527 0.79856 0.7378 0.0
H1190 H 0.26003 0.74966 0.89466 0.0
H1191 H 0.28315 0.72851 0.96548 0.0
H1192 H 0.31919 0.68045 0.85397 0.0
H1193 H 0.2969 0.70182 0.78223 0.0
C1194 C 0.18021 0.71208 0.63781 0.0
C1195 C 0.19154 0.69273 0.60881 0.0
C1196 C 0.19438 0.72641 0.6729 0.0
C1197 C 0.22014 0.72174 0.67955 0.0
C1198 C 0.23128 0.70194 0.65195 0.0
C1199 C 0.21718 0.68764 0.61688 0.0
C1200 C 0.23567 0.73777 0.71435 0.0
C1201 C 0.24928 0.72637 0.75484 0.0
C1202 C 0.23698 0.76413 0.70802 0.0
C1203 C 0.22418 0.77717 0.66429 0.0
C1204 C 0.22865 0.77 0.61228 0.0
C1205 C 0.21621 0.78211 0.57139 0.0
C1206 C 0.19948 0.80165 0.58193 0.0
C1207 C 0.19517 0.80913 0.63339 0.0
C1208 C 0.20748 0.797 0.67446 0.0
C1209 C 0.32089 0.7925 0.85889 0.0
C1210 C 0.30963 0.81144 0.88917 0.0
C1211 C 0.30658 0.77843 0.82363 0.0
C1212 C 0.28075 0.78297 0.81802 0.0
C1213 C 0.26967 0.80244 0.84673 0.0
C1214 C 0.28392 0.81648 0.88204 0.0
C1215 C 0.26508 0.76699 0.78344 0.0
C1216 C 0.25144 0.7784 0.74302 0.0
C1217 C 0.26382 0.74062 0.78971 0.0
C1218 C 0.27697 0.72753 0.83297 0.0
C1219 C 0.27304 0.73473 0.88515 0.0
C1220 C 0.28598 0.72268 0.92548 0.0
C1221 C 0.30258 0.70314 0.91424 0.0
C1222 C 0.30632 0.69561 0.86262 0.0
C1223 C 0.29358 0.70771 0.82209 0.0
H1224 H 0.31255 0.69382 0.94554 0.0
H1225 H 0.18988 0.81102 0.5502 0.0
H1226 H 0.27352 0.18522 0.57561 0.0
H1227 H 0.25092 0.21095 0.63903 0.0
H1228 H 0.32116 0.23451 0.70691 0.0
H1229 H 0.344 0.20889 0.64338 0.0
H1230 H 0.2867 0.22113 0.78164 0.0
H1231 H 0.29015 0.27746 0.63549 0.0
H1232 H 0.2848 0.29295 0.54562 0.0
H1233 H 0.20636 0.27469 0.55073 0.0
H1234 H 0.21122 0.25943 0.64109 0.0
H1235 H 0.21407 0.34248 0.86284 0.0
H1236 H 0.24032 0.31864 0.80234 0.0
H1237 H 0.21023 0.24942 0.86271 0.0
H1238 H 0.18405 0.27304 0.92354 0.0
H1239 H 0.22723 0.28744 0.72511 0.0
H1240 H 0.2568 0.20443 0.85768 0.0
H1241 H 0.2651 0.196 0.95077 0.0
H1242 H 0.28306 0.27364 0.9754 0.0
H1243 H 0.27519 0.28247 0.8824 0.0
C1244 C 0.2842 0.19581 0.60406 0.0
C1245 C 0.3106 0.19499 0.60434 0.0
C1246 C 0.27124 0.21063 0.64011 0.0
C1247 C 0.28436 0.22479 0.67744 0.0
C1248 C 0.31067 0.22376 0.67837 0.0
C1249 C 0.32369 0.20915 0.64195 0.0
C1250 C 0.27053 0.24042 0.71584 0.0
C1251 C 0.27367 0.2356 0.76932 0.0
C1252 C 0.25382 0.25956 0.69993 0.0
C1253 C 0.25111 0.26707 0.64467 0.0
C1254 C 0.27183 0.27647 0.61717 0.0
C1255 C 0.26885 0.28538 0.56631 0.0
C1256 C 0.24526 0.28473 0.54237 0.0
C1257 C 0.22462 0.27516 0.56928 0.0
C1258 C 0.22745 0.26648 0.62039 0.0
C1259 C 0.21304 0.32219 0.86334 0.0
C1260 C 0.19694 0.3097 0.89809 0.0
C1261 C 0.22804 0.30859 0.82869 0.0
C1262 C 0.22741 0.28225 0.82837 0.0
C1263 C 0.21129 0.26972 0.86279 0.0
C1264 C 0.1962 0.28329 0.8973 0.0
C1265 C 0.24306 0.26794 0.79089 0.0
C1266 C 0.24018 0.2729 0.73754 0.0
C1267 C 0.26029 0.24927 0.80712 0.0
C1268 C 0.26518 0.24413 0.86312 0.0
C1269 C 0.26261 0.21968 0.88292 0.0
C1270 C 0.26725 0.21483 0.93567 0.0
C1271 C 0.27464 0.23427 0.96894 0.0
C1272 C 0.27733 0.25861 0.94958 0.0
C1273 C 0.27273 0.26355 0.89688 0.0
H1274 H 0.27822 0.23048 0.00975 0.0
H1275 H 0.24296 0.29172 0.50303 0.0
H1276 H 0.77468 0.32771 0.58865 0.0
H1277 H 0.74971 0.3031 0.64963 0.0
H1278 H 0.81572 0.26159 0.69496 0.0
H1279 H 0.8409 0.28593 0.63347 0.0
H1280 H 0.77618 0.23077 0.67745 0.0
H1281 H 0.79165 0.30623 0.7744 0.0
H1282 H 0.79242 0.35194 0.78934 0.0
H1283 H 0.71241 0.35513 0.77051 0.0
H1284 H 0.7112 0.30947 0.75469 0.0
H1285 H 0.72735 0.17454 0.90638 0.0
H1286 H 0.75161 0.1986 0.84329 0.0
H1287 H 0.68505 0.23955 0.79926 0.0
H1288 H 0.66058 0.21575 0.86287 0.0
H1289 H 0.72449 0.27062 0.8154 0.0
H1290 H 0.70895 0.19504 0.71943 0.0
H1291 H 0.7082 0.14932 0.70472 0.0
H1292 H 0.78831 0.1463 0.72184 0.0
H1293 H 0.7895 0.19198 0.73742 0.0
C1294 C 0.78397 0.31343 0.61169 0.0
C1295 C 0.80983 0.30881 0.60611 0.0
C1296 C 0.76965 0.29942 0.64668 0.0
C1297 C 0.78089 0.28065 0.67713 0.0
C1298 C 0.80668 0.27599 0.6718 0.0
C1299 C 0.82105 0.29 0.63677 0.0
C1300 C 0.76561 0.26563 0.71394 0.0
C1301 C 0.76514 0.23944 0.70809 0.0
C1302 C 0.75072 0.27702 0.75302 0.0
C1303 C 0.75137 0.30446 0.76286 0.0
C1304 C 0.77424 0.31671 0.77304 0.0
C1305 C 0.77475 0.3426 0.78173 0.0
C1306 C 0.75249 0.35644 0.78074 0.0
C1307 C 0.72965 0.34439 0.7712 0.0
C1308 C 0.72903 0.3185 0.76241 0.0
C1309 C 0.71777 0.18855 0.88312 0.0
C1310 C 0.69199 0.19322 0.88981 0.0
C1311 C 0.73168 0.20223 0.8469 0.0
C1312 C 0.7201 0.22074 0.81631 0.0
C1313 C 0.69435 0.22535 0.82251 0.0
C1314 C 0.68038 0.21165 0.85876 0.0
C1315 C 0.73507 0.23576 0.77895 0.0
C1316 C 0.73549 0.26194 0.78471 0.0
C1317 C 0.74992 0.22436 0.7398 0.0
C1318 C 0.74928 0.19691 0.73008 0.0
C1319 C 0.72639 0.1846 0.72046 0.0
C1320 C 0.72588 0.1587 0.7119 0.0
C1321 C 0.74818 0.1449 0.71248 0.0
C1322 C 0.77104 0.15701 0.72147 0.0
C1323 C 0.77165 0.18291 0.73011 0.0
H1324 H 0.74775 0.12485 0.70585 0.0
H1325 H 0.75292 0.37649 0.78747 0.0
H1326 H 0.66148 0.78792 0.63357 0.0
H1327 H 0.68642 0.76367 0.69565 0.0
H1328 H 0.7526 0.80507 0.65172 0.0
H1329 H 0.72792 0.82915 0.58891 0.0
H1330 H 0.76262 0.75623 0.65626 0.0
H1331 H 0.723 0.81629 0.76757 0.0
H1332 H 0.68789 0.84011 0.80584 0.0
H1333 H 0.65526 0.77171 0.86226 0.0
H1334 H 0.69004 0.74741 0.8237 0.0
H1335 H 0.84015 0.71636 0.86653 0.0
H1336 H 0.81548 0.74093 0.80461 0.0
H1337 H 0.74914 0.69922 0.84624 0.0
H1338 H 0.77356 0.67485 0.90908 0.0
H1339 H 0.73948 0.74848 0.84288 0.0
H1340 H 0.78035 0.68865 0.73039 0.0
H1341 H 0.81666 0.66602 0.69379 0.0
H1342 H 0.84812 0.73561 0.64089 0.0
H1343 H 0.81214 0.75871 0.67778 0.0
C1344 C 0.68132 0.79198 0.63723 0.0
C1345 C 0.69267 0.81051 0.60614 0.0
C1346 C 0.69555 0.77814 0.67292 0.0
C1347 C 0.72137 0.78267 0.67866 0.0
C1348 C 0.73273 0.80122 0.64791 0.0
C1349 C 0.71854 0.81504 0.61213 0.0
C1350 C 0.73663 0.76773 0.71598 0.0
C1351 C 0.75774 0.7548 0.69722 0.0
C1352 C 0.73002 0.76548 0.76923 0.0
C1353 C 0.70902 0.78001 0.79231 0.0
C1354 C 0.70823 0.8063 0.78774 0.0
C1355 C 0.68841 0.81989 0.80956 0.0
C1356 C 0.66935 0.80743 0.83639 0.0
C1357 C 0.67005 0.78134 0.84144 0.0
C1358 C 0.68982 0.76764 0.81965 0.0
C1359 C 0.82034 0.71228 0.8624 0.0
C1360 C 0.80886 0.6936 0.89287 0.0
C1361 C 0.80626 0.72632 0.82679 0.0
C1362 C 0.78048 0.72178 0.8204 0.0
C1363 C 0.769 0.70307 0.85053 0.0
C1364 C 0.78303 0.68908 0.88632 0.0
C1365 C 0.76538 0.73688 0.78311 0.0
C1366 C 0.74431 0.74987 0.80189 0.0
C1367 C 0.77213 0.73932 0.72997 0.0
C1368 C 0.79364 0.72543 0.70724 0.0
C1369 C 0.79509 0.69915 0.71125 0.0
C1370 C 0.8156 0.68623 0.69041 0.0
C1371 C 0.83471 0.69938 0.66514 0.0
C1372 C 0.83332 0.72546 0.66053 0.0
C1373 C 0.81285 0.73847 0.68133 0.0
H1374 H 0.85056 0.68935 0.64898 0.0
H1375 H 0.65409 0.818 0.85346 0.0
loop_
_geom_bond_atom_site_label_1
_geom_bond_atom_site_label_2
_geom_bond_distance
_geom_bond_site_symmetry_2
_ccdc_geom_bond_type
Fe0 O2 1.918 . S
Fe0 O5 1.997 1_554 S
Fe0 O6 2.002 1_554 S
Fe0 O11 1.976 . S
Fe0 O14 1.996 . S
Fe1 O2 1.918 . S
Fe1 O9 1.997 1_554 S
Fe1 O12 1.996 . S
Fe1 O16 1.976 . S
Fe1 O19 2.002 1_554 S
O2 Fe0 1.918 . S
O2 Fe1 1.918 . S
O2 Fe3 1.918 . S
Fe3 O2 1.918 . S
Fe3 O4 2.002 1_554 S
Fe3 O13 1.976 . S
Fe3 O17 1.996 . S
Fe3 O20 1.997 1_554 S
O4 Fe3 2.002 1_556 S
O4 C21 1.295 . S
O5 Fe0 1.997 1_556 S
O5 C21 1.235 . S
O6 Fe0 2.002 1_556 S
O6 C7 1.295 . S
C7 O6 1.295 . S
C7 O9 1.235 . S
C8 O13 1.287 . S
C8 O14 1.255 . S
O9 Fe1 1.997 1_556 S
O9 C7 1.235 . S
C10 O16 1.287 . S
C10 O17 1.255 . S
O11 Fe0 1.976 . S
O11 C18 1.287 . S
O12 Fe1 1.996 . S
O12 C18 1.255 . S
O13 Fe3 1.976 . S
O13 C8 1.287 . S
O14 Fe0 1.996 . S
O14 C8 1.255 . S
C15 O19 1.295 . S
C15 O20 1.235 . S
O16 Fe1 1.976 . S
O16 C10 1.287 . S
O17 Fe3 1.996 . S
O17 C10 1.255 . S
C18 O11 1.287 . S
C18 O12 1.255 . S
O19 Fe1 2.002 1_556 S
O19 C15 1.295 . S
O20 Fe3 1.997 1_556 S
O20 C15 1.235 . S
C21 O4 1.295 . S
C21 O5 1.235 . S
Fe22 O24 1.918 . S
Fe22 O27 1.997 1_556 S
Fe22 O28 2.002 1_556 S
Fe22 O33 1.976 . S
Fe22 O36 1.996 . S
Fe23 O24 1.918 . S
Fe23 O31 1.997 1_556 S
Fe23 O34 1.996 . S
Fe23 O38 1.976 . S
Fe23 O41 2.002 1_556 S
O24 Fe22 1.918 . S
O24 Fe23 1.918 . S
O24 Fe25 1.918 . S
Fe25 O24 1.918 . S
Fe25 O26 2.002 1_556 S
Fe25 O35 1.976 . S
Fe25 O39 1.996 . S
Fe25 O42 1.997 1_556 S
O26 Fe25 2.002 1_554 S
O26 C43 1.295 . S
O27 Fe22 1.997 1_554 S
O27 C43 1.235 . S
O28 Fe22 2.002 1_554 S
O28 C29 1.295 . S
C29 O28 1.295 . S
C29 O31 1.235 . S
C30 O35 1.287 . S
C30 O36 1.255 . S
O31 Fe23 1.997 1_554 S
O31 C29 1.235 . S
C32 O38 1.287 . S
C32 O39 1.255 . S
O33 Fe22 1.976 . S
O33 C40 1.287 . S
O34 Fe23 1.996 . S
O34 C40 1.255 . S
O35 Fe25 1.976 . S
O35 C30 1.287 . S
O36 Fe22 1.996 . S
O36 C30 1.255 . S
C37 O41 1.295 . S
C37 O42 1.235 . S
O38 Fe23 1.976 . S
O38 C32 1.287 . S
O39 Fe25 1.996 . S
O39 C32 1.255 . S
C40 O33 1.287 . S
C40 O34 1.255 . S
O41 Fe23 2.002 1_554 S
O41 C37 1.295 . S
O42 Fe25 1.997 1_554 S
O42 C37 1.235 . S
C43 O26 1.295 . S
C43 O27 1.235 . S
Fe44 O46 1.918 . S
Fe44 O49 1.997 1_556 S
Fe44 O50 2.002 1_556 S
Fe44 O55 1.976 . S
Fe44 O58 1.996 . S
Fe45 O46 1.918 . S
Fe45 O53 1.997 1_556 S
Fe45 O56 1.996 . S
Fe45 O60 1.976 . S
Fe45 O63 2.002 1_556 S
O46 Fe44 1.918 . S
O46 Fe45 1.918 . S
O46 Fe47 1.918 . S
Fe47 O46 1.918 . S
Fe47 O48 2.002 1_556 S
Fe47 O57 1.976 . S
Fe47 O61 1.996 . S
Fe47 O64 1.997 1_556 S
O48 Fe47 2.002 1_554 S
O48 C65 1.295 . S
O49 Fe44 1.997 1_554 S
O49 C65 1.235 . S
O50 Fe44 2.002 1_554 S
O50 C51 1.295 . S
C51 O50 1.295 . S
C51 O53 1.235 . S
C52 O57 1.287 . S
C52 O58 1.255 . S
O53 Fe45 1.997 1_554 S
O53 C51 1.235 . S
C54 O60 1.287 . S
C54 O61 1.255 . S
O55 Fe44 1.976 . S
O55 C62 1.287 . S
O56 Fe45 1.996 . S
O56 C62 1.255 . S
O57 Fe47 1.976 . S
O57 C52 1.287 . S
O58 Fe44 1.996 . S
O58 C52 1.255 . S
C59 O63 1.295 . S
C59 O64 1.235 . S
O60 Fe45 1.976 . S
O60 C54 1.287 . S
O61 Fe47 1.996 . S
O61 C54 1.255 . S
C62 O55 1.287 . S
C62 O56 1.255 . S
O63 Fe45 2.002 1_554 S
O63 C59 1.295 . S
O64 Fe47 1.997 1_554 S
O64 C59 1.235 . S
C65 O48 1.295 . S
C65 O49 1.235 . S
Fe66 O68 1.918 . S
Fe66 O71 1.997 1_556 S
Fe66 O72 2.002 1_556 S
Fe66 O77 1.976 . S
Fe66 O80 1.996 . S
Fe67 O68 1.918 . S
Fe67 O75 1.997 1_556 S
Fe67 O78 1.996 . S
Fe67 O82 1.976 . S
Fe67 O85 2.002 1_556 S
O68 Fe66 1.918 . S
O68 Fe67 1.918 . S
O68 Fe69 1.918 . S
Fe69 O68 1.918 . S
Fe69 O70 2.002 1_556 S
Fe69 O79 1.976 . S
Fe69 O83 1.996 . S
Fe69 O86 1.997 1_556 S
O70 Fe69 2.002 1_554 S
O70 C87 1.295 . S
O71 Fe66 1.997 1_554 S
O71 C87 1.235 . S
O72 Fe66 2.002 1_554 S
O72 C73 1.295 . S
C73 O72 1.295 . S
C73 O75 1.235 . S
C74 O79 1.287 . S
C74 O80 1.255 . S
O75 Fe67 1.997 1_554 S
O75 C73 1.235 . S
C76 O82 1.287 . S
C76 O83 1.255 . S
O77 Fe66 1.976 . S
O77 C84 1.287 . S
O78 Fe67 1.996 . S
O78 C84 1.255 . S
O79 Fe69 1.976 . S
O79 C74 1.287 . S
O80 Fe66 1.996 . S
O80 C74 1.255 . S
C81 O85 1.295 . S
C81 O86 1.235 . S
O82 Fe67 1.976 . S
O82 C76 1.287 . S
O83 Fe69 1.996 . S
O83 C76 1.255 . S
C84 O77 1.287 . S
C84 O78 1.255 . S
O85 Fe67 2.002 1_554 S
O85 C81 1.295 . S
O86 Fe69 1.997 1_554 S
O86 C81 1.235 . S
C87 O70 1.295 . S
C87 O71 1.235 . S
Fe88 O90 1.918 . S
Fe88 O93 1.997 . S
Fe88 O94 2.002 . S
Fe88 O99 1.976 . S
Fe88 O102 1.996 . S
Fe89 O90 1.918 . S
Fe89 O97 1.997 . S
Fe89 O100 1.996 . S
Fe89 O104 1.976 . S
Fe89 O107 2.002 . S
O90 Fe88 1.918 . S
O90 Fe89 1.918 . S
O90 Fe91 1.918 . S
Fe91 O90 1.918 . S
Fe91 O92 2.002 . S
Fe91 O101 1.976 . S
Fe91 O105 1.996 . S
Fe91 O108 1.997 . S
O92 Fe91 2.002 . S
O92 C109 1.295 . S
O93 Fe88 1.997 . S
O93 C109 1.235 . S
O94 Fe88 2.002 . S
O94 C95 1.295 . S
C95 O94 1.295 . S
C95 O97 1.235 . S
C96 O101 1.287 . S
C96 O102 1.255 . S
O97 Fe89 1.997 . S
O97 C95 1.235 . S
C98 O104 1.287 . S
C98 O105 1.255 . S
O99 Fe88 1.976 . S
O99 C106 1.287 . S
O100 Fe89 1.996 . S
O100 C106 1.255 . S
O101 Fe91 1.976 . S
O101 C96 1.287 . S
O102 Fe88 1.996 . S
O102 C96 1.255 . S
C103 O107 1.295 . S
C103 O108 1.235 . S
O104 Fe89 1.976 . S
O104 C98 1.287 . S
O105 Fe91 1.996 . S
O105 C98 1.255 . S
C106 O99 1.287 . S
C106 O100 1.255 . S
O107 Fe89 2.002 . S
O107 C103 1.295 . S
O108 Fe91 1.997 . S
O108 C103 1.235 . S
C109 O92 1.295 . S
C109 O93 1.235 . S
Fe110 O112 1.918 . S
Fe110 O115 1.997 . S
Fe110 O116 2.002 . S
Fe110 O121 1.976 . S
Fe110 O124 1.996 . S
Fe111 O112 1.918 . S
Fe111 O119 1.997 . S
Fe111 O122 1.996 . S
Fe111 O126 1.976 . S
Fe111 O129 2.002 . S
O112 Fe110 1.918 . S
O112 Fe111 1.918 . S
O112 Fe113 1.918 . S
Fe113 O112 1.918 . S
Fe113 O114 2.002 . S
Fe113 O123 1.976 . S
Fe113 O127 1.996 . S
Fe113 O130 1.997 . S
O114 Fe113 2.002 . S
O114 C131 1.295 . S
O115 Fe110 1.997 . S
O115 C131 1.235 . S
O116 Fe110 2.002 . S
O116 C117 1.295 . S
C117 O116 1.295 . S
C117 O119 1.235 . S
C118 O123 1.287 . S
C118 O124 1.255 . S
O119 Fe111 1.997 . S
O119 C117 1.235 . S
C120 O126 1.287 . S
C120 O127 1.255 . S
O121 Fe110 1.976 . S
O121 C128 1.287 . S
O122 Fe111 1.996 . S
O122 C128 1.255 . S
O123 Fe113 1.976 . S
O123 C118 1.287 . S
O124 Fe110 1.996 . S
O124 C118 1.255 . S
C125 O129 1.295 . S
C125 O130 1.235 . S
O126 Fe111 1.976 . S
O126 C120 1.287 . S
O127 Fe113 1.996 . S
O127 C120 1.255 . S
C128 O121 1.287 . S
C128 O122 1.255 . S
O129 Fe111 2.002 . S
O129 C125 1.295 . S
O130 Fe113 1.997 . S
O130 C125 1.235 . S
C131 O114 1.295 . S
C131 O115 1.235 . S
Fe132 O134 1.918 . S
Fe132 O137 1.997 . S
Fe132 O138 2.002 . S
Fe132 O143 1.976 . S
Fe132 O146 1.996 . S
Fe133 O134 1.918 . S
Fe133 O141 1.997 . S
Fe133 O144 1.996 . S
Fe133 O148 1.976 . S
Fe133 O151 2.002 . S
O134 Fe132 1.918 . S
O134 Fe133 1.918 . S
O134 Fe135 1.918 . S
Fe135 O134 1.918 . S
Fe135 O136 2.002 . S
Fe135 O145 1.976 . S
Fe135 O149 1.996 . S
Fe135 O152 1.997 . S
O136 Fe135 2.002 . S
O136 C153 1.295 . S
O137 Fe132 1.997 . S
O137 C153 1.235 . S
O138 Fe132 2.002 . S
O138 C139 1.295 . S
C139 O138 1.295 . S
C139 O141 1.235 . S
C140 O145 1.287 . S
C140 O146 1.255 . S
O141 Fe133 1.997 . S
O141 C139 1.235 . S
C142 O148 1.287 . S
C142 O149 1.255 . S
O143 Fe132 1.976 . S
O143 C150 1.287 . S
O144 Fe133 1.996 . S
O144 C150 1.255 . S
O145 Fe135 1.976 . S
O145 C140 1.287 . S
O146 Fe132 1.996 . S
O146 C140 1.255 . S
C147 O151 1.295 . S
C147 O152 1.235 . S
O148 Fe133 1.976 . S
O148 C142 1.287 . S
O149 Fe135 1.996 . S
O149 C142 1.255 . S
C150 O143 1.287 . S
C150 O144 1.255 . S
O151 Fe133 2.002 . S
O151 C147 1.295 . S
O152 Fe135 1.997 . S
O152 C147 1.235 . S
C153 O136 1.295 . S
C153 O137 1.235 . S
Fe154 O156 1.918 . S
Fe154 O159 1.997 . S
Fe154 O160 2.002 . S
Fe154 O165 1.976 . S
Fe154 O168 1.996 . S
Fe155 O156 1.918 . S
Fe155 O163 1.997 . S
Fe155 O166 1.996 . S
Fe155 O170 1.976 . S
Fe155 O173 2.002 . S
O156 Fe154 1.918 . S
O156 Fe155 1.918 . S
O156 Fe157 1.918 . S
Fe157 O156 1.918 . S
Fe157 O158 2.002 . S
Fe157 O167 1.976 . S
Fe157 O171 1.996 . S
Fe157 O174 1.997 . S
O158 Fe157 2.002 . S
O158 C175 1.295 . S
O159 Fe154 1.997 . S
O159 C175 1.235 . S
O160 Fe154 2.002 . S
O160 C161 1.295 . S
C161 O160 1.295 . S
C161 O163 1.235 . S
C162 O167 1.287 . S
C162 O168 1.255 . S
O163 Fe155 1.997 . S
O163 C161 1.235 . S
C164 O170 1.287 . S
C164 O171 1.255 . S
O165 Fe154 1.976 . S
O165 C172 1.287 . S
O166 Fe155 1.996 . S
O166 C172 1.255 . S
O167 Fe157 1.976 . S
O167 C162 1.287 . S
O168 Fe154 1.996 . S
O168 C162 1.255 . S
C169 O173 1.295 . S
C169 O174 1.235 . S
O170 Fe155 1.976 . S
O170 C164 1.287 . S
O171 Fe157 1.996 . S
O171 C164 1.255 . S
C172 O165 1.287 . S
C172 O166 1.255 . S
O173 Fe155 2.002 . S
O173 C169 1.295 . S
O174 Fe157 1.997 . S
O174 C169 1.235 . S
C175 O158 1.295 . S
C175 O159 1.235 . S
H176 C194 0.951 . S
H177 C196 0.951 . S
H178 C198 0.950 . S
H179 C199 0.950 . S
H180 C201 0.950 . S
H181 C204 0.950 . S
H182 C205 0.950 . S
H183 C207 0.950 . S
H184 C208 0.950 . S
H185 C209 0.951 . S
H186 C211 0.951 . S
H187 C213 0.950 . S
H188 C214 0.950 . S
H189 C216 0.950 . S
H190 C219 0.950 . S
H191 C220 0.950 . S
H192 C222 0.950 . S
H193 C223 0.950 . S
C194 H176 0.951 . S
C194 C195 1.366 . S
C194 C196 1.388 . S
C195 C194 1.366 . S
C195 C199 1.385 . S
C196 H177 0.951 . S
C196 C194 1.388 . S
C196 C197 1.366 . S
C197 C196 1.366 . S
C197 C198 1.414 . S
C197 C200 1.499 . S
C198 H178 0.950 . S
C198 C197 1.414 . S
C198 C199 1.374 . S
C199 H179 0.950 . S
C199 C195 1.385 . S
C199 C198 1.374 . S
C200 C197 1.499 . S
C200 C201 1.373 . S
C200 C202 1.389 . S
C201 H180 0.950 . S
C201 C200 1.373 . S
C201 C217 1.377 . S
C202 C200 1.389 . S
C202 C203 1.524 . S
C202 C216 1.377 . S
C203 C202 1.524 . S
C203 C204 1.397 . S
C203 C208 1.363 . S
C204 H181 0.950 . S
C204 C203 1.397 . S
C204 C205 1.334 . S
C205 H182 0.950 . S
C205 C204 1.334 . S
C205 C206 1.287 . S
C206 C205 1.287 . S
C206 C207 1.524 . S
C206 H225 0.913 . S
C207 H183 0.950 . S
C207 C206 1.524 . S
C207 C208 1.415 . S
C208 H184 0.950 . S
C208 C203 1.363 . S
C208 C207 1.415 . S
C209 H185 0.951 . S
C209 C210 1.366 . S
C209 C211 1.388 . S
C210 C209 1.366 . S
C210 C214 1.385 . S
C211 H186 0.951 . S
C211 C209 1.388 . S
C211 C212 1.366 . S
C212 C211 1.366 . S
C212 C213 1.414 . S
C212 C215 1.499 . S
C213 H187 0.950 . S
C213 C212 1.414 . S
C213 C214 1.374 . S
C214 H188 0.950 . S
C214 C210 1.385 . S
C214 C213 1.374 . S
C215 C212 1.499 . S
C215 C216 1.373 . S
C215 C217 1.389 . S
C216 H189 0.950 . S
C216 C202 1.377 . S
C216 C215 1.373 . S
C217 C201 1.377 . S
C217 C215 1.389 . S
C217 C218 1.524 . S
C218 C217 1.524 . S
C218 C219 1.397 . S
C218 C223 1.363 . S
C219 H190 0.950 . S
C219 C218 1.397 . S
C219 C220 1.334 . S
C220 H191 0.950 . S
C220 C219 1.334 . S
C220 C221 1.287 . S
C221 C220 1.287 . S
C221 C222 1.524 . S
C221 H224 0.999 . S
C222 H192 0.950 . S
C222 C221 1.524 . S
C222 C223 1.415 . S
C223 H193 0.950 . S
C223 C218 1.363 . S
C223 C222 1.415 . S
H224 C221 0.999 . S
H225 C206 0.913 . S
H226 C244 0.951 . S
H227 C246 0.951 . S
H228 C248 0.950 . S
H229 C249 0.950 . S
H230 C251 0.950 . S
H231 C254 0.950 . S
H232 C255 0.950 . S
H233 C257 0.950 . S
H234 C258 0.950 . S
H235 C259 0.951 . S
H236 C261 0.951 . S
H237 C263 0.950 . S
H238 C264 0.950 . S
H239 C266 0.950 . S
H240 C269 0.950 . S
H241 C270 0.950 . S
H242 C272 0.950 . S
H243 C273 0.950 . S
C244 H226 0.951 . S
C244 C245 1.366 . S
C244 C246 1.388 . S
C245 C244 1.366 . S
C245 C249 1.385 . S
C246 H227 0.951 . S
C246 C244 1.388 . S
C246 C247 1.366 . S
C247 C246 1.366 . S
C247 C248 1.414 . S
C247 C250 1.499 . S
C248 H228 0.950 . S
C248 C247 1.414 . S
C248 C249 1.374 . S
C249 H229 0.950 . S
C249 C245 1.385 . S
C249 C248 1.374 . S
C250 C247 1.499 . S
C250 C251 1.373 . S
C250 C252 1.389 . S
C251 H230 0.950 . S
C251 C250 1.373 . S
C251 C267 1.377 . S
C252 C250 1.389 . S
C252 C253 1.524 . S
C252 C266 1.377 . S
C253 C252 1.524 . S
C253 C254 1.397 . S
C253 C258 1.363 . S
C254 H231 0.950 . S
C254 C253 1.397 . S
C254 C255 1.334 . S
C255 H232 0.950 . S
C255 C254 1.334 . S
C255 C256 1.287 . S
C256 C255 1.287 . S
C256 C257 1.524 . S
C256 H275 0.913 . S
C257 H233 0.950 . S
C257 C256 1.524 . S
C257 C258 1.415 . S
C258 H234 0.950 . S
C258 C253 1.363 . S
C258 C257 1.415 . S
C259 H235 0.951 . S
C259 C260 1.366 . S
C259 C261 1.388 . S
C260 C259 1.366 . S
C260 C264 1.385 . S
C261 H236 0.951 . S
C261 C259 1.388 . S
C261 C262 1.366 . S
C262 C261 1.366 . S
C262 C263 1.414 . S
C262 C265 1.499 . S
C263 H237 0.950 . S
C263 C262 1.414 . S
C263 C264 1.374 . S
C264 H238 0.950 . S
C264 C260 1.385 . S
C264 C263 1.374 . S
C265 C262 1.499 . S
C265 C266 1.373 . S
C265 C267 1.389 . S
C266 H239 0.950 . S
C266 C252 1.377 . S
C266 C265 1.373 . S
C267 C251 1.377 . S
C267 C265 1.389 . S
C267 C268 1.524 . S
C268 C267 1.524 . S
C268 C269 1.397 . S
C268 C273 1.363 . S
C269 H240 0.950 . S
C269 C268 1.397 . S
C269 C270 1.334 . S
C270 H241 0.950 . S
C270 C269 1.334 . S
C270 C271 1.287 . S
C271 C270 1.287 . S
C271 C272 1.524 . S
C271 H274 0.999 . S
C272 H242 0.950 . S
C272 C271 1.524 . S
C272 C273 1.415 . S
C273 H243 0.950 . S
C273 C268 1.363 . S
C273 C272 1.415 . S
H274 C271 0.999 . S
H275 C256 0.913 . S
H276 C294 0.951 . S
H277 C296 0.951 . S
H278 C298 0.950 . S
H279 C299 0.950 . S
H280 C301 0.950 . S
H281 C304 0.950 . S
H282 C305 0.950 . S
H283 C307 0.950 . S
H284 C308 0.950 . S
H285 C309 0.951 . S
H286 C311 0.951 . S
H287 C313 0.950 . S
H288 C314 0.950 . S
H289 C316 0.950 . S
H290 C319 0.950 . S
H291 C320 0.950 . S
H292 C322 0.950 . S
H293 C323 0.950 . S
C294 H276 0.951 . S
C294 C295 1.366 . S
C294 C296 1.388 . S
C295 C294 1.366 . S
C295 C299 1.385 . S
C296 H277 0.951 . S
C296 C294 1.388 . S
C296 C297 1.366 . S
C297 C296 1.366 . S
C297 C298 1.414 . S
C297 C300 1.499 . S
C298 H278 0.950 . S
C298 C297 1.414 . S
C298 C299 1.374 . S
C299 H279 0.950 . S
C299 C295 1.385 . S
C299 C298 1.374 . S
C300 C297 1.499 . S
C300 C301 1.373 . S
C300 C302 1.389 . S
C301 H280 0.950 . S
C301 C300 1.373 . S
C301 C317 1.377 . S
C302 C300 1.389 . S
C302 C303 1.524 . S
C302 C316 1.377 . S
C303 C302 1.524 . S
C303 C304 1.397 . S
C303 C308 1.363 . S
C304 H281 0.950 . S
C304 C303 1.397 . S
C304 C305 1.334 . S
C305 H282 0.950 . S
C305 C304 1.334 . S
C305 C306 1.287 . S
C306 C305 1.287 . S
C306 C307 1.524 . S
C306 H325 0.913 . S
C307 H283 0.950 . S
C307 C306 1.524 . S
C307 C308 1.415 . S
C308 H284 0.950 . S
C308 C303 1.363 . S
C308 C307 1.415 . S
C309 H285 0.951 . S
C309 C310 1.366 . S
C309 C311 1.388 . S
C310 C309 1.366 . S
C310 C314 1.385 . S
C311 H286 0.951 . S
C311 C309 1.388 . S
C311 C312 1.366 . S
C312 C311 1.366 . S
C312 C313 1.414 . S
C312 C315 1.499 . S
C313 H287 0.950 . S
C313 C312 1.414 . S
C313 C314 1.374 . S
C314 H288 0.950 . S
C314 C310 1.385 . S
C314 C313 1.374 . S
C315 C312 1.499 . S
C315 C316 1.373 . S
C315 C317 1.389 . S
C316 H289 0.950 . S
C316 C302 1.377 . S
C316 C315 1.373 . S
C317 C301 1.377 . S
C317 C315 1.389 . S
C317 C318 1.524 . S
C318 C317 1.524 . S
C318 C319 1.397 . S
C318 C323 1.363 . S
C319 H290 0.950 . S
C319 C318 1.397 . S
C319 C320 1.334 . S
C320 H291 0.950 . S
C320 C319 1.334 . S
C320 C321 1.287 . S
C321 C320 1.287 . S
C321 C322 1.524 . S
C321 H324 0.999 . S
C322 H292 0.950 . S
C322 C321 1.524 . S
C322 C323 1.415 . S
C323 H293 0.950 . S
C323 C318 1.363 . S
C323 C322 1.415 . S
H324 C321 0.999 . S
H325 C306 0.913 . S
H326 C344 0.951 . S
H327 C346 0.951 . S
H328 C348 0.950 . S
H329 C349 0.950 . S
H330 C351 0.950 . S
H331 C354 0.950 . S
H332 C355 0.950 . S
H333 C357 0.950 . S
H334 C358 0.950 . S
H335 C359 0.951 . S
H336 C361 0.951 . S
H337 C363 0.950 . S
H338 C364 0.950 . S
H339 C366 0.950 . S
H340 C369 0.950 . S
H341 C370 0.950 . S
H342 C372 0.950 . S
H343 C373 0.950 . S
C344 H326 0.951 . S
C344 C345 1.366 . S
C344 C346 1.388 . S
C345 C344 1.366 . S
C345 C349 1.385 . S
C346 H327 0.951 . S
C346 C344 1.388 . S
C346 C347 1.366 . S
C347 C346 1.366 . S
C347 C348 1.414 . S
C347 C350 1.499 . S
C348 H328 0.950 . S
C348 C347 1.414 . S
C348 C349 1.374 . S
C349 H329 0.950 . S
C349 C345 1.385 . S
C349 C348 1.374 . S
C350 C347 1.499 . S
C350 C351 1.373 . S
C350 C352 1.389 . S
C351 H330 0.950 . S
C351 C350 1.373 . S
C351 C367 1.377 . S
C352 C350 1.389 . S
C352 C353 1.524 . S
C352 C366 1.377 . S
C353 C352 1.524 . S
C353 C354 1.397 . S
C353 C358 1.363 . S
C354 H331 0.950 . S
C354 C353 1.397 . S
C354 C355 1.334 . S
C355 H332 0.950 . S
C355 C354 1.334 . S
C355 C356 1.287 . S
C356 C355 1.287 . S
C356 C357 1.524 . S
C356 H375 0.913 . S
C357 H333 0.950 . S
C357 C356 1.524 . S
C357 C358 1.415 . S
C358 H334 0.950 . S
C358 C353 1.363 . S
C358 C357 1.415 . S
C359 H335 0.951 . S
C359 C360 1.366 . S
C359 C361 1.388 . S
C360 C359 1.366 . S
C360 C364 1.385 . S
C361 H336 0.951 . S
C361 C359 1.388 . S
C361 C362 1.366 . S
C362 C361 1.366 . S
C362 C363 1.414 . S
C362 C365 1.499 . S
C363 H337 0.950 . S
C363 C362 1.414 . S
C363 C364 1.374 . S
C364 H338 0.950 . S
C364 C360 1.385 . S
C364 C363 1.374 . S
C365 C362 1.499 . S
C365 C366 1.373 . S
C365 C367 1.389 . S
C366 H339 0.950 . S
C366 C352 1.377 . S
C366 C365 1.373 . S
C367 C351 1.377 . S
C367 C365 1.389 . S
C367 C368 1.524 . S
C368 C367 1.524 . S
C368 C369 1.397 . S
C368 C373 1.363 . S
C369 H340 0.950 . S
C369 C368 1.397 . S
C369 C370 1.334 . S
C370 H341 0.950 . S
C370 C369 1.334 . S
C370 C371 1.287 . S
C371 C370 1.287 . S
C371 C372 1.524 . S
C371 H374 0.999 . S
C372 H342 0.950 . S
C372 C371 1.524 . S
C372 C373 1.415 . S
C373 H343 0.950 . S
C373 C368 1.363 . S
C373 C372 1.415 . S
H374 C371 0.999 . S
H375 C356 0.913 . S
H376 C394 0.951 . S
H377 C396 0.951 . S
H378 C398 0.950 . S
H379 C399 0.950 . S
H380 C401 0.950 . S
H381 C404 0.950 . S
H382 C405 0.950 . S
H383 C407 0.950 . S
H384 C408 0.950 . S
H385 C409 0.951 . S
H386 C411 0.951 . S
H387 C413 0.950 . S
H388 C414 0.950 . S
H389 C416 0.950 . S
H390 C419 0.950 . S
H391 C420 0.950 . S
H392 C422 0.950 . S
H393 C423 0.950 . S
C394 H376 0.951 . S
C394 C395 1.366 . S
C394 C396 1.388 . S
C395 C394 1.366 . S
C395 C399 1.385 . S
C396 H377 0.951 . S
C396 C394 1.388 . S
C396 C397 1.366 . S
C397 C396 1.366 . S
C397 C398 1.414 . S
C397 C400 1.499 . S
C398 H378 0.950 . S
C398 C397 1.414 . S
C398 C399 1.374 . S
C399 H379 0.950 . S
C399 C395 1.385 . S
C399 C398 1.374 . S
C400 C397 1.499 . S
C400 C401 1.373 . S
C400 C402 1.389 . S
C401 H380 0.950 . S
C401 C400 1.373 . S
C401 C417 1.377 . S
C402 C400 1.389 . S
C402 C403 1.524 . S
C402 C416 1.377 . S
C403 C402 1.524 . S
C403 C404 1.397 . S
C403 C408 1.363 . S
C404 H381 0.950 . S
C404 C403 1.397 . S
C404 C405 1.334 . S
C405 H382 0.950 . S
C405 C404 1.334 . S
C405 C406 1.287 . S
C406 C405 1.287 . S
C406 C407 1.524 . S
C406 H425 0.913 . S
C407 H383 0.950 . S
C407 C406 1.524 . S
C407 C408 1.415 . S
C408 H384 0.950 . S
C408 C403 1.363 . S
C408 C407 1.415 . S
C409 H385 0.951 . S
C409 C410 1.366 . S
C409 C411 1.388 . S
C410 C409 1.366 . S
C410 C414 1.385 . S
C411 H386 0.951 . S
C411 C409 1.388 . S
C411 C412 1.366 . S
C412 C411 1.366 . S
C412 C413 1.414 . S
C412 C415 1.499 . S
C413 H387 0.950 . S
C413 C412 1.414 . S
C413 C414 1.374 . S
C414 H388 0.950 . S
C414 C410 1.385 . S
C414 C413 1.374 . S
C415 C412 1.499 . S
C415 C416 1.373 . S
C415 C417 1.389 . S
C416 H389 0.950 . S
C416 C402 1.377 . S
C416 C415 1.373 . S
C417 C401 1.377 . S
C417 C415 1.389 . S
C417 C418 1.524 . S
C418 C417 1.524 . S
C418 C419 1.397 . S
C418 C423 1.363 . S
C419 H390 0.950 . S
C419 C418 1.397 . S
C419 C420 1.334 . S
C420 H391 0.950 . S
C420 C419 1.334 . S
C420 C421 1.287 . S
C421 C420 1.287 . S
C421 C422 1.524 . S
C421 H424 0.999 . S
C422 H392 0.950 . S
C422 C421 1.524 . S
C422 C423 1.415 . S
C423 H393 0.950 . S
C423 C418 1.363 . S
C423 C422 1.415 . S
H424 C421 0.999 . S
H425 C406 0.913 . S
H426 C444 0.951 . S
H427 C446 0.951 . S
H428 C448 0.950 . S
H429 C449 0.950 . S
H430 C451 0.950 . S
H431 C454 0.950 . S
H432 C455 0.950 . S
H433 C457 0.950 . S
H434 C458 0.950 . S
H435 C459 0.951 . S
H436 C461 0.951 . S
H437 C463 0.950 . S
H438 C464 0.950 . S
H439 C466 0.950 . S
H440 C469 0.950 . S
H441 C470 0.950 . S
H442 C472 0.950 . S
H443 C473 0.950 . S
C444 H426 0.951 . S
C444 C445 1.366 . S
C444 C446 1.388 . S
C445 C444 1.366 . S
C445 C449 1.385 . S
C446 H427 0.951 . S
C446 C444 1.388 . S
C446 C447 1.366 . S
C447 C446 1.366 . S
C447 C448 1.414 . S
C447 C450 1.499 . S
C448 H428 0.950 . S
C448 C447 1.414 . S
C448 C449 1.374 . S
C449 H429 0.950 . S
C449 C445 1.385 . S
C449 C448 1.374 . S
C450 C447 1.499 . S
C450 C451 1.373 . S
C450 C452 1.389 . S
C451 H430 0.950 . S
C451 C450 1.373 . S
C451 C467 1.377 . S
C452 C450 1.389 . S
C452 C453 1.524 . S
C452 C466 1.377 . S
C453 C452 1.524 . S
C453 C454 1.397 . S
C453 C458 1.363 . S
C454 H431 0.950 . S
C454 C453 1.397 . S
C454 C455 1.334 . S
C455 H432 0.950 . S
C455 C454 1.334 . S
C455 C456 1.287 . S
C456 C455 1.287 . S
C456 C457 1.524 . S
C456 H475 0.913 . S
C457 H433 0.950 . S
C457 C456 1.524 . S
C457 C458 1.415 . S
C458 H434 0.950 . S
C458 C453 1.363 . S
C458 C457 1.415 . S
C459 H435 0.951 . S
C459 C460 1.366 . S
C459 C461 1.388 . S
C460 C459 1.366 . S
C460 C464 1.385 . S
C461 H436 0.951 . S
C461 C459 1.388 . S
C461 C462 1.366 . S
C462 C461 1.366 . S
C462 C463 1.414 . S
C462 C465 1.499 . S
C463 H437 0.950 . S
C463 C462 1.414 . S
C463 C464 1.374 . S
C464 H438 0.950 . S
C464 C460 1.385 . S
C464 C463 1.374 . S
C465 C462 1.499 . S
C465 C466 1.373 . S
C465 C467 1.389 . S
C466 H439 0.950 . S
C466 C452 1.377 . S
C466 C465 1.373 . S
C467 C451 1.377 . S
C467 C465 1.389 . S
C467 C468 1.524 . S
C468 C467 1.524 . S
C468 C469 1.397 . S
C468 C473 1.363 . S
C469 H440 0.950 . S
C469 C468 1.397 . S
C469 C470 1.334 . S
C470 H441 0.950 . S
C470 C469 1.334 . S
C470 C471 1.287 . S
C471 C470 1.287 . S
C471 C472 1.524 . S
C471 H474 0.999 . S
C472 H442 0.950 . S
C472 C471 1.524 . S
C472 C473 1.415 . S
C473 H443 0.950 . S
C473 C468 1.363 . S
C473 C472 1.415 . S
H474 C471 0.999 . S
H475 C456 0.913 . S
H476 C494 0.951 . S
H477 C496 0.951 . S
H478 C498 0.950 . S
H479 C499 0.950 . S
H480 C501 0.950 . S
H481 C504 0.950 . S
H482 C505 0.950 . S
H483 C507 0.950 . S
H484 C508 0.950 . S
H485 C509 0.951 . S
H486 C511 0.951 . S
H487 C513 0.950 . S
H488 C514 0.950 . S
H489 C516 0.950 . S
H490 C519 0.950 . S
H491 C520 0.950 . S
H492 C522 0.950 . S
H493 C523 0.950 . S
C494 H476 0.951 . S
C494 C495 1.366 . S
C494 C496 1.388 . S
C495 C494 1.366 . S
C495 C499 1.385 . S
C496 H477 0.951 . S
C496 C494 1.388 . S
C496 C497 1.366 . S
C497 C496 1.366 . S
C497 C498 1.414 . S
C497 C500 1.499 . S
C498 H478 0.950 . S
C498 C497 1.414 . S
C498 C499 1.374 . S
C499 H479 0.950 . S
C499 C495 1.385 . S
C499 C498 1.374 . S
C500 C497 1.499 . S
C500 C501 1.373 . S
C500 C502 1.389 . S
C501 H480 0.950 . S
C501 C500 1.373 . S
C501 C517 1.377 . S
C502 C500 1.389 . S
C502 C503 1.524 . S
C502 C516 1.377 . S
C503 C502 1.524 . S
C503 C504 1.397 . S
C503 C508 1.363 . S
C504 H481 0.950 . S
C504 C503 1.397 . S
C504 C505 1.334 . S
C505 H482 0.950 . S
C505 C504 1.334 . S
C505 C506 1.287 . S
C506 C505 1.287 . S
C506 C507 1.524 . S
C506 H525 0.913 . S
C507 H483 0.950 . S
C507 C506 1.524 . S
C507 C508 1.415 . S
C508 H484 0.950 . S
C508 C503 1.363 . S
C508 C507 1.415 . S
C509 H485 0.951 . S
C509 C510 1.366 . S
C509 C511 1.388 . S
C510 C509 1.366 . S
C510 C514 1.385 . S
C511 H486 0.951 . S
C511 C509 1.388 . S
C511 C512 1.366 . S
C512 C511 1.366 . S
C512 C513 1.414 . S
C512 C515 1.499 . S
C513 H487 0.950 . S
C513 C512 1.414 . S
C513 C514 1.374 . S
C514 H488 0.950 . S
C514 C510 1.385 . S
C514 C513 1.374 . S
C515 C512 1.499 . S
C515 C516 1.373 . S
C515 C517 1.389 . S
C516 H489 0.950 . S
C516 C502 1.377 . S
C516 C515 1.373 . S
C517 C501 1.377 . S
C517 C515 1.389 . S
C517 C518 1.524 . S
C518 C517 1.524 . S
C518 C519 1.397 . S
C518 C523 1.363 . S
C519 H490 0.950 . S
C519 C518 1.397 . S
C519 C520 1.334 . S
C520 H491 0.950 . S
C520 C519 1.334 . S
C520 C521 1.287 . S
C521 C520 1.287 . S
C521 C522 1.524 . S
C521 H524 0.999 . S
C522 H492 0.950 . S
C522 C521 1.524 . S
C522 C523 1.415 . S
C523 H493 0.950 . S
C523 C518 1.363 . S
C523 C522 1.415 . S
H524 C521 0.999 . S
H525 C506 0.913 . S
H526 C544 0.951 . S
H527 C546 0.951 . S
H528 C548 0.950 . S
H529 C549 0.950 . S
H530 C551 0.950 . S
H531 C554 0.950 . S
H532 C555 0.950 . S
H533 C557 0.950 . S
H534 C558 0.950 . S
H535 C559 0.951 . S
H536 C561 0.951 . S
H537 C563 0.950 . S
H538 C564 0.950 . S
H539 C566 0.950 . S
H540 C569 0.950 . S
H541 C570 0.950 . S
H542 C572 0.950 . S
H543 C573 0.950 . S
C544 H526 0.951 . S
C544 C545 1.366 . S
C544 C546 1.388 . S
C545 C544 1.366 . S
C545 C549 1.385 . S
C546 H527 0.951 . S
C546 C544 1.388 . S
C546 C547 1.366 . S
C547 C546 1.366 . S
C547 C548 1.414 . S
C547 C550 1.499 . S
C548 H528 0.950 . S
C548 C547 1.414 . S
C548 C549 1.374 . S
C549 H529 0.950 . S
C549 C545 1.385 . S
C549 C548 1.374 . S
C550 C547 1.499 . S
C550 C551 1.373 . S
C550 C552 1.389 . S
C551 H530 0.950 . S
C551 C550 1.373 . S
C551 C567 1.377 . S
C552 C550 1.389 . S
C552 C553 1.524 . S
C552 C566 1.377 . S
C553 C552 1.524 . S
C553 C554 1.397 . S
C553 C558 1.363 . S
C554 H531 0.950 . S
C554 C553 1.397 . S
C554 C555 1.334 . S
C555 H532 0.950 . S
C555 C554 1.334 . S
C555 C556 1.287 . S
C556 C555 1.287 . S
C556 C557 1.524 . S
C556 H575 0.913 . S
C557 H533 0.950 . S
C557 C556 1.524 . S
C557 C558 1.415 . S
C558 H534 0.950 . S
C558 C553 1.363 . S
C558 C557 1.415 . S
C559 H535 0.951 . S
C559 C560 1.366 . S
C559 C561 1.388 . S
C560 C559 1.366 . S
C560 C564 1.385 . S
C561 H536 0.951 . S
C561 C559 1.388 . S
C561 C562 1.366 . S
C562 C561 1.366 . S
C562 C563 1.414 . S
C562 C565 1.499 . S
C563 H537 0.950 . S
C563 C562 1.414 . S
C563 C564 1.374 . S
C564 H538 0.950 . S
C564 C560 1.385 . S
C564 C563 1.374 . S
C565 C562 1.499 . S
C565 C566 1.373 . S
C565 C567 1.389 . S
C566 H539 0.950 . S
C566 C552 1.377 . S
C566 C565 1.373 . S
C567 C551 1.377 . S
C567 C565 1.389 . S
C567 C568 1.524 . S
C568 C567 1.524 . S
C568 C569 1.397 . S
C568 C573 1.363 . S
C569 H540 0.950 . S
C569 C568 1.397 . S
C569 C570 1.334 . S
C570 H541 0.950 . S
C570 C569 1.334 . S
C570 C571 1.287 . S
C571 C570 1.287 . S
C571 C572 1.524 . S
C571 H574 0.999 . S
C572 H542 0.950 . S
C572 C571 1.524 . S
C572 C573 1.415 . S
C573 H543 0.950 . S
C573 C568 1.363 . S
C573 C572 1.415 . S
H574 C571 0.999 . S
H575 C556 0.913 . S
H576 C594 0.951 . S
H577 C596 0.951 . S
H578 C598 0.950 . S
H579 C599 0.950 . S
H580 C601 0.950 . S
H581 C604 0.950 . S
H582 C605 0.950 . S
H583 C607 0.950 . S
H584 C608 0.950 1_455 S
H585 C609 0.951 . S
H586 C611 0.951 . S
H587 C613 0.950 . S
H588 C614 0.950 . S
H589 C616 0.950 . S
H590 C619 0.950 . S
H591 C620 0.950 . S
H592 C622 0.950 . S
H593 C623 0.950 1_655 S
C594 H576 0.951 . S
C594 C595 1.366 . S
C594 C596 1.388 . S
C595 C594 1.366 . S
C595 C599 1.385 . S
C596 H577 0.951 . S
C596 C594 1.388 . S
C596 C597 1.366 . S
C597 C596 1.366 . S
C597 C598 1.414 . S
C597 C600 1.499 . S
C598 H578 0.950 . S
C598 C597 1.414 . S
C598 C599 1.374 . S
C599 H579 0.950 . S
C599 C595 1.385 . S
C599 C598 1.374 . S
C600 C597 1.499 . S
C600 C601 1.373 . S
C600 C602 1.389 . S
C601 H580 0.950 . S
C601 C600 1.373 . S
C601 C617 1.377 1_655 S
C602 C600 1.389 . S
C602 C603 1.524 . S
C602 C616 1.377 1_655 S
C603 C602 1.524 . S
C603 C604 1.397 . S
C603 C608 1.363 . S
C604 H581 0.950 . S
C604 C603 1.397 . S
C604 C605 1.334 . S
C605 H582 0.950 . S
C605 C604 1.334 . S
C605 C606 1.287 . S
C606 C605 1.287 . S
C606 C607 1.524 . S
C606 H625 0.913 . S
C607 H583 0.950 . S
C607 C606 1.524 . S
C607 C608 1.415 . S
C608 H584 0.950 1_655 S
C608 C603 1.363 . S
C608 C607 1.415 . S
C609 H585 0.951 . S
C609 C610 1.366 . S
C609 C611 1.388 . S
C610 C609 1.366 . S
C610 C614 1.385 . S
C611 H586 0.951 . S
C611 C609 1.388 . S
C611 C612 1.366 . S
C612 C611 1.366 . S
C612 C613 1.414 . S
C612 C615 1.499 . S
C613 H587 0.950 . S
C613 C612 1.414 . S
C613 C614 1.374 . S
C614 H588 0.950 . S
C614 C610 1.385 . S
C614 C613 1.374 . S
C615 C612 1.499 . S
C615 C616 1.373 . S
C615 C617 1.389 . S
C616 H589 0.950 . S
C616 C602 1.377 1_455 S
C616 C615 1.373 . S
C617 C601 1.377 1_455 S
C617 C615 1.389 . S
C617 C618 1.524 . S
C618 C617 1.524 . S
C618 C619 1.397 . S
C618 C623 1.363 . S
C619 H590 0.950 . S
C619 C618 1.397 . S
C619 C620 1.334 . S
C620 H591 0.950 . S
C620 C619 1.334 . S
C620 C621 1.287 . S
C621 C620 1.287 . S
C621 C622 1.524 . S
C621 H624 0.999 . S
C622 H592 0.950 . S
C622 C621 1.524 . S
C622 C623 1.415 . S
C623 H593 0.950 1_455 S
C623 C618 1.363 . S
C623 C622 1.415 . S
H624 C621 0.999 . S
H625 C606 0.913 . S
H626 C644 0.951 . S
H627 C646 0.951 . S
H628 C648 0.950 . S
H629 C649 0.950 . S
H630 C651 0.950 . S
H631 C654 0.950 1_545 S
H632 C655 0.950 . S
H633 C657 0.950 . S
H634 C658 0.950 . S
H635 C659 0.951 . S
H636 C661 0.951 . S
H637 C663 0.950 . S
H638 C664 0.950 . S
H639 C666 0.950 . S
H640 C669 0.950 1_565 S
H641 C670 0.950 . S
H642 C672 0.950 . S
H643 C673 0.950 . S
C644 H626 0.951 . S
C644 C645 1.366 . S
C644 C646 1.388 . S
C645 C644 1.366 . S
C645 C649 1.385 . S
C646 H627 0.951 . S
C646 C644 1.388 . S
C646 C647 1.366 . S
C647 C646 1.366 . S
C647 C648 1.414 . S
C647 C650 1.499 . S
C648 H628 0.950 . S
C648 C647 1.414 . S
C648 C649 1.374 . S
C649 H629 0.950 . S
C649 C645 1.385 . S
C649 C648 1.374 . S
C650 C647 1.499 . S
C650 C651 1.373 . S
C650 C652 1.389 1_545 S
C651 H630 0.950 . S
C651 C650 1.373 . S
C651 C667 1.377 . S
C652 C650 1.389 1_565 S
C652 C653 1.524 . S
C652 C666 1.377 . S
C653 C652 1.524 . S
C653 C654 1.397 . S
C653 C658 1.363 . S
C654 H631 0.950 1_565 S
C654 C653 1.397 . S
C654 C655 1.334 . S
C655 H632 0.950 . S
C655 C654 1.334 . S
C655 C656 1.287 . S
C656 C655 1.287 . S
C656 C657 1.524 . S
C656 H675 0.913 . S
C657 H633 0.950 . S
C657 C656 1.524 . S
C657 C658 1.415 . S
C658 H634 0.950 . S
C658 C653 1.363 . S
C658 C657 1.415 . S
C659 H635 0.951 . S
C659 C660 1.366 . S
C659 C661 1.388 . S
C660 C659 1.366 . S
C660 C664 1.385 . S
C661 H636 0.951 . S
C661 C659 1.388 . S
C661 C662 1.366 . S
C662 C661 1.366 . S
C662 C663 1.414 . S
C662 C665 1.499 . S
C663 H637 0.950 . S
C663 C662 1.414 . S
C663 C664 1.374 . S
C664 H638 0.950 . S
C664 C660 1.385 . S
C664 C663 1.374 . S
C665 C662 1.499 . S
C665 C666 1.373 . S
C665 C667 1.389 1_565 S
C666 H639 0.950 . S
C666 C652 1.377 . S
C666 C665 1.373 . S
C667 C651 1.377 . S
C667 C665 1.389 1_545 S
C667 C668 1.524 . S
C668 C667 1.524 . S
C668 C669 1.397 . S
C668 C673 1.363 . S
C669 H640 0.950 1_545 S
C669 C668 1.397 . S
C669 C670 1.334 . S
C670 H641 0.950 . S
C670 C669 1.334 . S
C670 C671 1.287 . S
C671 C670 1.287 . S
C671 C672 1.524 . S
C671 H674 0.999 . S
C672 H642 0.950 . S
C672 C671 1.524 . S
C672 C673 1.415 . S
C673 H643 0.950 . S
C673 C668 1.363 . S
C673 C672 1.415 . S
H674 C671 0.999 . S
H675 C656 0.913 . S
H676 C694 0.951 . S
H677 C696 0.951 . S
H678 C698 0.950 . S
H679 C699 0.950 . S
H680 C701 0.950 . S
H681 C704 0.949 . S
H682 C705 0.950 . S
H683 C707 0.950 . S
H684 C708 0.950 . S
H685 C709 0.951 . S
H686 C711 0.951 . S
H687 C713 0.950 . S
H688 C714 0.950 . S
H689 C716 0.950 . S
H690 C719 0.950 . S
H691 C720 0.950 . S
H692 C722 0.950 . S
H693 C723 0.950 . S
C694 H676 0.951 . S
C694 C695 1.366 . S
C694 C696 1.388 . S
C695 C694 1.366 . S
C695 C699 1.385 . S
C696 H677 0.951 . S
C696 C694 1.388 . S
C696 C697 1.366 . S
C697 C696 1.366 . S
C697 C698 1.414 . S
C697 C700 1.499 . S
C698 H678 0.950 . S
C698 C697 1.414 . S
C698 C699 1.374 . S
C699 H679 0.950 . S
C699 C695 1.385 . S
C699 C698 1.374 . S
C700 C697 1.499 . S
C700 C701 1.373 . S
C700 C702 1.389 . S
C701 H680 0.950 . S
C701 C700 1.373 . S
C701 C717 1.389 . S
C702 C700 1.389 . S
C702 C703 1.526 . S
C702 C716 1.377 1_655 S
C703 C702 1.526 . S
C703 C704 1.397 . S
C703 C708 1.361 1_655 S
C704 H681 0.949 . S
C704 C703 1.397 . S
C704 C705 1.334 1_655 S
C705 H682 0.950 . S
C705 C704 1.334 1_455 S
C705 C706 1.287 . S
C706 C705 1.287 . S
C706 C707 1.524 . S
C706 H725 0.913 . S
C707 H683 0.950 . S
C707 C706 1.524 . S
C707 C708 1.415 . S
C708 H684 0.950 . S
C708 C703 1.361 1_455 S
C708 C707 1.415 . S
C709 H685 0.951 . S
C709 C710 1.366 . S
C709 C711 1.388 . S
C710 C709 1.366 . S
C710 C714 1.385 . S
C711 H686 0.951 . S
C711 C709 1.388 . S
C711 C712 1.366 . S
C712 C711 1.366 . S
C712 C713 1.414 . S
C712 C715 1.499 . S
C713 H687 0.950 . S
C713 C712 1.414 . S
C713 C714 1.374 . S
C714 H688 0.950 . S
C714 C710 1.385 . S
C714 C713 1.374 . S
C715 C712 1.499 . S
C715 C716 1.373 . S
C715 C717 1.377 1_455 S
C716 H689 0.950 . S
C716 C702 1.377 1_455 S
C716 C715 1.373 . S
C717 C701 1.389 . S
C717 C715 1.377 1_655 S
C717 C718 1.526 . S
C718 C717 1.526 . S
C718 C719 1.397 . S
C718 C723 1.363 . S
C719 H690 0.950 . S
C719 C718 1.397 . S
C719 C720 1.334 . S
C720 H691 0.950 . S
C720 C719 1.334 . S
C720 C721 1.287 . S
C721 C720 1.287 . S
C721 C722 1.524 . S
C721 H724 0.999 . S
C722 H692 0.950 . S
C722 C721 1.524 . S
C722 C723 1.415 . S
C723 H693 0.950 . S
C723 C718 1.363 . S
C723 C722 1.415 . S
H724 C721 0.999 . S
H725 C706 0.913 . S
H726 C744 0.951 . S
H727 C746 0.951 . S
H728 C748 0.950 . S
H729 C749 0.950 . S
H730 C751 0.950 . S
H731 C754 0.950 . S
H732 C755 0.950 . S
H733 C757 0.950 . S
H734 C758 0.950 . S
H735 C759 0.951 . S
H736 C761 0.951 . S
H737 C763 0.950 . S
H738 C764 0.950 . S
H739 C766 0.950 . S
H740 C769 0.950 . S
H741 C770 0.950 . S
H742 C772 0.950 . S
H743 C773 0.950 . S
C744 H726 0.951 . S
C744 C745 1.366 . S
C744 C746 1.388 . S
C745 C744 1.366 . S
C745 C749 1.385 . S
C746 H727 0.951 . S
C746 C744 1.388 . S
C746 C747 1.366 . S
C747 C746 1.366 . S
C747 C748 1.414 . S
C747 C750 1.499 . S
C748 H728 0.950 . S
C748 C747 1.414 . S
C748 C749 1.374 . S
C749 H729 0.950 . S
C749 C745 1.385 . S
C749 C748 1.374 . S
C750 C747 1.499 . S
C750 C751 1.373 . S
C750 C752 1.389 1_545 S
C751 H730 0.950 . S
C751 C750 1.373 . S
C751 C767 1.377 . S
C752 C750 1.389 1_565 S
C752 C753 1.524 . S
C752 C766 1.377 . S
C753 C752 1.524 . S
C753 C754 1.397 1_565 S
C753 C758 1.363 . S
C754 H731 0.950 . S
C754 C753 1.397 1_545 S
C754 C755 1.334 . S
C755 H732 0.950 . S
C755 C754 1.334 . S
C755 C756 1.287 1_545 S
C756 C755 1.287 1_565 S
C756 C757 1.524 . S
C756 H775 0.913 . S
C757 H733 0.950 . S
C757 C756 1.524 . S
C757 C758 1.415 . S
C758 H734 0.950 . S
C758 C753 1.363 . S
C758 C757 1.415 . S
C759 H735 0.951 . S
C759 C760 1.366 . S
C759 C761 1.388 . S
C760 C759 1.366 . S
C760 C764 1.385 . S
C761 H736 0.951 . S
C761 C759 1.388 . S
C761 C762 1.366 . S
C762 C761 1.366 . S
C762 C763 1.414 . S
C762 C765 1.499 . S
C763 H737 0.950 . S
C763 C762 1.414 . S
C763 C764 1.374 . S
C764 H738 0.950 . S
C764 C760 1.385 . S
C764 C763 1.374 . S
C765 C762 1.499 . S
C765 C766 1.373 . S
C765 C767 1.389 1_565 S
C766 H739 0.950 . S
C766 C752 1.377 . S
C766 C765 1.373 . S
C767 C751 1.377 . S
C767 C765 1.389 1_545 S
C767 C768 1.524 . S
C768 C767 1.524 . S
C768 C769 1.397 1_545 S
C768 C773 1.363 . S
C769 H740 0.950 . S
C769 C768 1.397 1_565 S
C769 C770 1.334 . S
C770 H741 0.950 . S
C770 C769 1.334 . S
C770 C771 1.287 1_565 S
C771 C770 1.287 1_545 S
C771 C772 1.524 . S
C771 H774 0.999 . S
C772 H742 0.950 . S
C772 C771 1.524 . S
C772 C773 1.415 . S
C773 H743 0.950 . S
C773 C768 1.363 . S
C773 C772 1.415 . S
H774 C771 0.999 . S
H775 C756 0.913 . S
H776 C794 0.951 . S
H777 C796 0.951 . S
H778 C798 0.950 . S
H779 C799 0.950 . S
H780 C801 0.950 . S
H781 C804 0.950 . S
H782 C805 0.950 . S
H783 C807 0.950 . S
H784 C808 0.950 . S
H785 C809 0.951 . S
H786 C811 0.951 . S
H787 C813 0.950 . S
H788 C814 0.950 . S
H789 C816 0.950 . S
H790 C819 0.950 . S
H791 C820 0.950 . S
H792 C822 0.950 . S
H793 C823 0.950 . S
C794 H776 0.951 . S
C794 C795 1.366 . S
C794 C796 1.388 . S
C795 C794 1.366 . S
C795 C799 1.385 . S
C796 H777 0.951 . S
C796 C794 1.388 . S
C796 C797 1.366 . S
C797 C796 1.366 . S
C797 C798 1.414 . S
C797 C800 1.499 . S
C798 H778 0.950 . S
C798 C797 1.414 . S
C798 C799 1.374 . S
C799 H779 0.950 . S
C799 C795 1.385 . S
C799 C798 1.374 . S
C800 C797 1.499 . S
C800 C801 1.373 . S
C800 C802 1.387 . S
C801 H780 0.950 . S
C801 C800 1.373 . S
C801 C817 1.377 . S
C802 C800 1.387 . S
C802 C803 1.525 1_455 S
C802 C816 1.378 1_455 S
C803 C802 1.525 1_655 S
C803 C804 1.397 1_655 S
C803 C808 1.363 . S
C804 H781 0.950 . S
C804 C803 1.397 1_455 S
C804 C805 1.334 . S
C805 H782 0.950 . S
C805 C804 1.334 . S
C805 C806 1.287 1_455 S
C806 C805 1.287 1_655 S
C806 C807 1.524 . S
C806 H825 0.913 . S
C807 H783 0.950 . S
C807 C806 1.524 . S
C807 C808 1.415 . S
C808 H784 0.950 . S
C808 C803 1.363 . S
C808 C807 1.415 . S
C809 H785 0.951 . S
C809 C810 1.366 . S
C809 C811 1.388 . S
C810 C809 1.366 . S
C810 C814 1.385 . S
C811 H786 0.951 . S
C811 C809 1.388 . S
C811 C812 1.366 . S
C812 C811 1.366 . S
C812 C813 1.414 . S
C812 C815 1.499 . S
C813 H787 0.950 . S
C813 C812 1.414 . S
C813 C814 1.374 . S
C814 H788 0.950 . S
C814 C810 1.385 . S
C814 C813 1.374 . S
C815 C812 1.499 . S
C815 C816 1.373 . S
C815 C817 1.389 1_655 S
C816 H789 0.950 . S
C816 C802 1.378 1_655 S
C816 C815 1.373 . S
C817 C801 1.377 . S
C817 C815 1.389 1_455 S
C817 C818 1.524 . S
C818 C817 1.524 . S
C818 C819 1.397 1_455 S
C818 C823 1.363 . S
C819 H790 0.950 . S
C819 C818 1.397 1_655 S
C819 C820 1.334 . S
C820 H791 0.950 . S
C820 C819 1.334 . S
C820 C821 1.287 1_655 S
C821 C820 1.287 1_455 S
C821 C822 1.524 . S
C821 H824 0.999 . S
C822 H792 0.950 . S
C822 C821 1.524 . S
C822 C823 1.415 . S
C823 H793 0.950 . S
C823 C818 1.363 . S
C823 C822 1.415 . S
H824 C821 0.999 . S
H825 C806 0.913 . S
H826 C844 0.951 . S
H827 C846 0.951 . S
H828 C848 0.950 . S
H829 C849 0.950 . S
H830 C851 0.950 . S
H831 C854 0.950 . S
H832 C855 0.950 . S
H833 C857 0.950 . S
H834 C858 0.950 . S
H835 C859 0.951 . S
H836 C861 0.951 . S
H837 C863 0.950 . S
H838 C864 0.950 . S
H839 C866 0.950 . S
H840 C869 0.950 . S
H841 C870 0.950 . S
H842 C872 0.950 . S
H843 C873 0.950 . S
C844 H826 0.951 . S
C844 C845 1.366 . S
C844 C846 1.388 . S
C845 C844 1.366 . S
C845 C849 1.385 . S
C846 H827 0.951 . S
C846 C844 1.388 . S
C846 C847 1.366 . S
C847 C846 1.366 . S
C847 C848 1.414 . S
C847 C850 1.499 . S
C848 H828 0.950 . S
C848 C847 1.414 . S
C848 C849 1.374 . S
C849 H829 0.950 . S
C849 C845 1.385 . S
C849 C848 1.374 . S
C850 C847 1.499 . S
C850 C851 1.373 . S
C850 C852 1.389 . S
C851 H830 0.950 . S
C851 C850 1.373 . S
C851 C867 1.377 1_565 S
C852 C850 1.389 . S
C852 C853 1.524 . S
C852 C866 1.377 1_565 S
C853 C852 1.524 . S
C853 C854 1.397 . S
C853 C858 1.363 . S
C854 H831 0.950 . S
C854 C853 1.397 . S
C854 C855 1.334 . S
C855 H832 0.950 . S
C855 C854 1.334 . S
C855 C856 1.287 . S
C856 C855 1.287 . S
C856 C857 1.524 . S
C856 H875 0.913 . S
C857 H833 0.950 . S
C857 C856 1.524 . S
C857 C858 1.415 . S
C858 H834 0.950 . S
C858 C853 1.363 . S
C858 C857 1.415 . S
C859 H835 0.951 . S
C859 C860 1.366 . S
C859 C861 1.388 . S
C860 C859 1.366 . S
C860 C864 1.385 . S
C861 H836 0.951 . S
C861 C859 1.388 . S
C861 C862 1.366 . S
C862 C861 1.366 . S
C862 C863 1.414 . S
C862 C865 1.499 . S
C863 H837 0.950 . S
C863 C862 1.414 . S
C863 C864 1.374 . S
C864 H838 0.950 . S
C864 C860 1.385 . S
C864 C863 1.374 . S
C865 C862 1.499 . S
C865 C866 1.373 . S
C865 C867 1.389 . S
C866 H839 0.950 . S
C866 C852 1.377 1_545 S
C866 C865 1.373 . S
C867 C851 1.377 1_545 S
C867 C865 1.389 . S
C867 C868 1.524 . S
C868 C867 1.524 . S
C868 C869 1.397 . S
C868 C873 1.363 . S
C869 H840 0.950 . S
C869 C868 1.397 . S
C869 C870 1.334 . S
C870 H841 0.950 . S
C870 C869 1.334 . S
C870 C871 1.287 . S
C871 C870 1.287 . S
C871 C872 1.524 . S
C871 H874 0.999 . S
C872 H842 0.950 . S
C872 C871 1.524 . S
C872 C873 1.415 . S
C873 H843 0.950 . S
C873 C868 1.363 . S
C873 C872 1.415 . S
H874 C871 0.999 . S
H875 C856 0.913 . S
H876 C894 0.951 . S
H877 C896 0.951 . S
H878 C898 0.950 . S
H879 C899 0.950 . S
H880 C901 0.950 . S
H881 C904 0.950 . S
H882 C905 0.950 . S
H883 C907 0.950 . S
H884 C908 0.950 . S
H885 C909 0.951 . S
H886 C911 0.951 . S
H887 C913 0.950 . S
H888 C914 0.950 . S
H889 C916 0.950 . S
H890 C919 0.950 . S
H891 C920 0.950 . S
H892 C922 0.950 . S
H893 C923 0.950 . S
C894 H876 0.951 . S
C894 C895 1.366 . S
C894 C896 1.388 . S
C895 C894 1.366 . S
C895 C899 1.385 . S
C896 H877 0.951 . S
C896 C894 1.388 . S
C896 C897 1.366 . S
C897 C896 1.366 . S
C897 C898 1.414 . S
C897 C900 1.499 . S
C898 H878 0.950 . S
C898 C897 1.414 . S
C898 C899 1.374 . S
C899 H879 0.950 . S
C899 C895 1.385 . S
C899 C898 1.374 . S
C900 C897 1.499 . S
C900 C901 1.373 1_655 S
C900 C902 1.389 . S
C901 H880 0.950 . S
C901 C900 1.373 1_455 S
C901 C917 1.377 . S
C902 C900 1.389 . S
C902 C903 1.524 . S
C902 C916 1.377 . S
C903 C902 1.524 . S
C903 C904 1.397 . S
C903 C908 1.363 . S
C904 H881 0.950 . S
C904 C903 1.397 . S
C904 C905 1.334 . S
C905 H882 0.950 . S
C905 C904 1.334 . S
C905 C906 1.287 . S
C906 C905 1.287 . S
C906 C907 1.524 . S
C906 H925 0.913 . S
C907 H883 0.950 . S
C907 C906 1.524 . S
C907 C908 1.415 . S
C908 H884 0.950 . S
C908 C903 1.363 . S
C908 C907 1.415 . S
C909 H885 0.951 . S
C909 C910 1.366 . S
C909 C911 1.388 . S
C910 C909 1.366 . S
C910 C914 1.385 . S
C911 H886 0.951 . S
C911 C909 1.388 . S
C911 C912 1.366 . S
C912 C911 1.366 . S
C912 C913 1.414 . S
C912 C915 1.499 . S
C913 H887 0.950 . S
C913 C912 1.414 . S
C913 C914 1.374 . S
C914 H888 0.950 . S
C914 C910 1.385 . S
C914 C913 1.374 . S
C915 C912 1.499 . S
C915 C916 1.373 1_455 S
C915 C917 1.389 . S
C916 H889 0.950 . S
C916 C902 1.377 . S
C916 C915 1.373 1_655 S
C917 C901 1.377 . S
C917 C915 1.389 . S
C917 C918 1.524 . S
C918 C917 1.524 . S
C918 C919 1.397 . S
C918 C923 1.363 . S
C919 H890 0.950 . S
C919 C918 1.397 . S
C919 C920 1.334 . S
C920 H891 0.950 . S
C920 C919 1.334 . S
C920 C921 1.287 . S
C921 C920 1.287 . S
C921 C922 1.524 . S
C921 H924 0.999 . S
C922 H892 0.950 . S
C922 C921 1.524 . S
C922 C923 1.415 . S
C923 H893 0.950 . S
C923 C918 1.363 . S
C923 C922 1.415 . S
H924 C921 0.999 . S
H925 C906 0.913 . S
H926 C944 0.951 . S
H927 C946 0.951 . S
H928 C948 0.950 . S
H929 C949 0.950 . S
H930 C951 0.950 . S
H931 C954 0.944 1_565 S
H932 C955 0.950 . S
H933 C957 0.950 . S
H934 C958 0.950 . S
H935 C959 0.951 . S
H936 C961 0.951 . S
H937 C963 0.950 . S
H938 C964 0.950 . S
H939 C966 0.950 . S
H940 C969 0.950 . S
H941 C970 0.950 . S
H942 C972 0.950 . S
H943 C973 0.950 . S
C944 H926 0.951 . S
C944 C945 1.366 . S
C944 C946 1.388 . S
C945 C944 1.366 . S
C945 C949 1.385 . S
C946 H927 0.951 . S
C946 C944 1.388 . S
C946 C947 1.366 . S
C947 C946 1.366 . S
C947 C948 1.414 . S
C947 C950 1.499 . S
C948 H928 0.950 . S
C948 C947 1.414 . S
C948 C949 1.374 . S
C949 H929 0.950 . S
C949 C945 1.385 . S
C949 C948 1.374 . S
C950 C947 1.499 . S
C950 C951 1.373 . S
C950 C952 1.386 1_565 S
C951 H930 0.950 . S
C951 C950 1.373 . S
C951 C967 1.377 . S
C952 C950 1.386 1_545 S
C952 C953 1.525 . S
C952 C966 1.380 . S
C953 C952 1.525 . S
C953 C954 1.397 . S
C953 C958 1.363 . S
C954 H931 0.944 1_545 S
C954 C953 1.397 . S
C954 C955 1.334 . S
C955 H932 0.950 . S
C955 C954 1.334 . S
C955 C956 1.287 . S
C956 C955 1.287 . S
C956 C957 1.524 . S
C956 H975 0.913 . S
C957 H933 0.950 . S
C957 C956 1.524 . S
C957 C958 1.415 . S
C958 H934 0.950 . S
C958 C953 1.363 . S
C958 C957 1.415 . S
C959 H935 0.951 . S
C959 C960 1.366 . S
C959 C961 1.388 . S
C960 C959 1.366 . S
C960 C964 1.385 . S
C961 H936 0.951 . S
C961 C959 1.388 . S
C961 C962 1.366 . S
C962 C961 1.366 . S
C962 C963 1.414 . S
C962 C965 1.499 . S
C963 H937 0.950 . S
C963 C962 1.414 . S
C963 C964 1.374 . S
C964 H938 0.950 . S
C964 C960 1.385 . S
C964 C963 1.374 . S
C965 C962 1.499 . S
C965 C966 1.373 . S
C965 C967 1.389 1_545 S
C966 H939 0.950 . S
C966 C952 1.380 . S
C966 C965 1.373 . S
C967 C951 1.377 . S
C967 C965 1.389 1_565 S
C967 C968 1.524 . S
C968 C967 1.524 . S
C968 C969 1.397 . S
C968 C973 1.363 . S
C969 H940 0.950 . S
C969 C968 1.397 . S
C969 C970 1.334 . S
C970 H941 0.950 . S
C970 C969 1.334 . S
C970 C971 1.287 . S
C971 C970 1.287 . S
C971 C972 1.524 . S
C971 H974 0.999 . S
C972 H942 0.950 . S
C972 C971 1.524 . S
C972 C973 1.415 . S
C973 H943 0.950 . S
C973 C968 1.363 . S
C973 C972 1.415 . S
H974 C971 0.999 . S
H975 C956 0.913 . S
H976 C994 0.951 . S
H977 C996 0.951 . S
H978 C998 0.950 . S
H979 C999 0.950 . S
H980 C1001 0.950 . S
H981 C1004 0.950 . S
H982 C1005 0.950 . S
H983 C1007 0.950 . S
H984 C1008 0.950 . S
H985 C1009 0.951 . S
H986 C1011 0.951 . S
H987 C1013 0.950 . S
H988 C1014 0.950 . S
H989 C1016 0.950 . S
H990 C1019 0.950 . S
H991 C1020 0.950 . S
H992 C1022 0.950 . S
H993 C1023 0.950 . S
C994 H976 0.951 . S
C994 C995 1.366 . S
C994 C996 1.388 . S
C995 C994 1.366 . S
C995 C999 1.385 . S
C996 H977 0.951 . S
C996 C994 1.388 . S
C996 C997 1.366 . S
C997 C996 1.366 . S
C997 C998 1.414 . S
C997 C1000 1.499 . S
C998 H978 0.950 . S
C998 C997 1.414 . S
C998 C999 1.374 . S
C999 H979 0.950 . S
C999 C995 1.385 . S
C999 C998 1.374 . S
C1000 C997 1.499 . S
C1000 C1001 1.373 . S
C1000 C1002 1.389 . S
C1001 H980 0.950 . S
C1001 C1000 1.373 . S
C1001 C1017 1.377 . S
C1002 C1000 1.389 . S
C1002 C1003 1.524 . S
C1002 C1016 1.377 . S
C1003 C1002 1.524 . S
C1003 C1004 1.397 . S
C1003 C1008 1.363 . S
C1004 H981 0.950 . S
C1004 C1003 1.397 . S
C1004 C1005 1.334 . S
C1005 H982 0.950 . S
C1005 C1004 1.334 . S
C1005 C1006 1.287 . S
C1006 C1005 1.287 . S
C1006 C1007 1.524 . S
C1006 H1025 0.913 . S
C1007 H983 0.950 . S
C1007 C1006 1.524 . S
C1007 C1008 1.415 . S
C1008 H984 0.950 . S
C1008 C1003 1.363 . S
C1008 C1007 1.415 . S
C1009 H985 0.951 . S
C1009 C1010 1.366 . S
C1009 C1011 1.388 . S
C1010 C1009 1.366 . S
C1010 C1014 1.385 . S
C1011 H986 0.951 . S
C1011 C1009 1.388 . S
C1011 C1012 1.366 . S
C1012 C1011 1.366 . S
C1012 C1013 1.414 . S
C1012 C1015 1.499 . S
C1013 H987 0.950 . S
C1013 C1012 1.414 . S
C1013 C1014 1.374 . S
C1014 H988 0.950 . S
C1014 C1010 1.385 . S
C1014 C1013 1.374 . S
C1015 C1012 1.499 . S
C1015 C1016 1.373 . S
C1015 C1017 1.389 . S
C1016 H989 0.950 . S
C1016 C1002 1.377 . S
C1016 C1015 1.373 . S
C1017 C1001 1.377 . S
C1017 C1015 1.389 . S
C1017 C1018 1.524 . S
C1018 C1017 1.524 . S
C1018 C1019 1.397 . S
C1018 C1023 1.363 . S
C1019 H990 0.950 . S
C1019 C1018 1.397 . S
C1019 C1020 1.334 . S
C1020 H991 0.950 . S
C1020 C1019 1.334 . S
C1020 C1021 1.287 . S
C1021 C1020 1.287 . S
C1021 C1022 1.524 . S
C1021 H1024 0.999 . S
C1022 H992 0.950 . S
C1022 C1021 1.524 . S
C1022 C1023 1.415 . S
C1023 H993 0.950 . S
C1023 C1018 1.363 . S
C1023 C1022 1.415 . S
H1024 C1021 0.999 . S
H1025 C1006 0.913 . S
H1026 C1044 0.951 . S
H1027 C1046 0.951 . S
H1028 C1048 0.950 . S
H1029 C1049 0.950 . S
H1030 C1051 0.950 . S
H1031 C1054 0.950 . S
H1032 C1055 0.950 . S
H1033 C1057 0.950 . S
H1034 C1058 0.950 . S
H1035 C1059 0.951 . S
H1036 C1061 0.951 . S
H1037 C1063 0.950 . S
H1038 C1064 0.950 . S
H1039 C1066 0.950 . S
H1040 C1069 0.950 . S
H1041 C1070 0.950 . S
H1042 C1072 0.950 . S
H1043 C1073 0.950 . S
C1044 H1026 0.951 . S
C1044 C1045 1.366 . S
C1044 C1046 1.388 . S
C1045 C1044 1.366 . S
C1045 C1049 1.385 . S
C1046 H1027 0.951 . S
C1046 C1044 1.388 . S
C1046 C1047 1.366 . S
C1047 C1046 1.366 . S
C1047 C1048 1.414 . S
C1047 C1050 1.499 . S
C1048 H1028 0.950 . S
C1048 C1047 1.414 . S
C1048 C1049 1.374 . S
C1049 H1029 0.950 . S
C1049 C1045 1.385 . S
C1049 C1048 1.374 . S
C1050 C1047 1.499 . S
C1050 C1051 1.373 . S
C1050 C1052 1.389 . S
C1051 H1030 0.950 . S
C1051 C1050 1.373 . S
C1051 C1067 1.377 . S
C1052 C1050 1.389 . S
C1052 C1053 1.524 . S
C1052 C1066 1.377 . S
C1053 C1052 1.524 . S
C1053 C1054 1.397 . S
C1053 C1058 1.363 . S
C1054 H1031 0.950 . S
C1054 C1053 1.397 . S
C1054 C1055 1.334 . S
C1055 H1032 0.950 . S
C1055 C1054 1.334 . S
C1055 C1056 1.287 . S
C1056 C1055 1.287 . S
C1056 C1057 1.524 . S
C1056 H1075 0.913 . S
C1057 H1033 0.950 . S
C1057 C1056 1.524 . S
C1057 C1058 1.415 . S
C1058 H1034 0.950 . S
C1058 C1053 1.363 . S
C1058 C1057 1.415 . S
C1059 H1035 0.951 . S
C1059 C1060 1.366 . S
C1059 C1061 1.388 . S
C1060 C1059 1.366 . S
C1060 C1064 1.385 . S
C1061 H1036 0.951 . S
C1061 C1059 1.388 . S
C1061 C1062 1.366 . S
C1062 C1061 1.366 . S
C1062 C1063 1.414 . S
C1062 C1065 1.499 . S
C1063 H1037 0.950 . S
C1063 C1062 1.414 . S
C1063 C1064 1.374 . S
C1064 H1038 0.950 . S
C1064 C1060 1.385 . S
C1064 C1063 1.374 . S
C1065 C1062 1.499 . S
C1065 C1066 1.373 . S
C1065 C1067 1.389 . S
C1066 H1039 0.950 . S
C1066 C1052 1.377 . S
C1066 C1065 1.373 . S
C1067 C1051 1.377 . S
C1067 C1065 1.389 . S
C1067 C1068 1.524 . S
C1068 C1067 1.524 . S
C1068 C1069 1.397 . S
C1068 C1073 1.363 . S
C1069 H1040 0.950 . S
C1069 C1068 1.397 . S
C1069 C1070 1.334 . S
C1070 H1041 0.950 . S
C1070 C1069 1.334 . S
C1070 C1071 1.287 . S
C1071 C1070 1.287 . S
C1071 C1072 1.524 . S
C1071 H1074 0.999 . S
C1072 H1042 0.950 . S
C1072 C1071 1.524 . S
C1072 C1073 1.415 . S
C1073 H1043 0.950 . S
C1073 C1068 1.363 . S
C1073 C1072 1.415 . S
H1074 C1071 0.999 . S
H1075 C1056 0.913 . S
H1076 C1094 0.951 . S
H1077 C1096 0.951 . S
H1078 C1098 0.950 . S
H1079 C1099 0.950 . S
H1080 C1101 0.950 . S
H1081 C1104 0.950 . S
H1082 C1105 0.950 . S
H1083 C1107 0.950 . S
H1084 C1108 0.950 . S
H1085 C1109 0.951 . S
H1086 C1111 0.951 . S
H1087 C1113 0.950 . S
H1088 C1114 0.950 . S
H1089 C1116 0.950 . S
H1090 C1119 0.950 . S
H1091 C1120 0.950 . S
H1092 C1122 0.950 . S
H1093 C1123 0.950 . S
C1094 H1076 0.951 . S
C1094 C1095 1.366 . S
C1094 C1096 1.388 . S
C1095 C1094 1.366 . S
C1095 C1099 1.385 . S
C1096 H1077 0.951 . S
C1096 C1094 1.388 . S
C1096 C1097 1.366 . S
C1097 C1096 1.366 . S
C1097 C1098 1.414 . S
C1097 C1100 1.499 . S
C1098 H1078 0.950 . S
C1098 C1097 1.414 . S
C1098 C1099 1.374 . S
C1099 H1079 0.950 . S
C1099 C1095 1.385 . S
C1099 C1098 1.374 . S
C1100 C1097 1.499 . S
C1100 C1101 1.373 . S
C1100 C1102 1.389 . S
C1101 H1080 0.950 . S
C1101 C1100 1.373 . S
C1101 C1117 1.377 . S
C1102 C1100 1.389 . S
C1102 C1103 1.524 . S
C1102 C1116 1.377 . S
C1103 C1102 1.524 . S
C1103 C1104 1.397 . S
C1103 C1108 1.363 . S
C1104 H1081 0.950 . S
C1104 C1103 1.397 . S
C1104 C1105 1.334 . S
C1105 H1082 0.950 . S
C1105 C1104 1.334 . S
C1105 C1106 1.287 . S
C1106 C1105 1.287 . S
C1106 C1107 1.524 . S
C1106 H1125 0.913 . S
C1107 H1083 0.950 . S
C1107 C1106 1.524 . S
C1107 C1108 1.415 . S
C1108 H1084 0.950 . S
C1108 C1103 1.363 . S
C1108 C1107 1.415 . S
C1109 H1085 0.951 . S
C1109 C1110 1.366 . S
C1109 C1111 1.388 . S
C1110 C1109 1.366 . S
C1110 C1114 1.385 . S
C1111 H1086 0.951 . S
C1111 C1109 1.388 . S
C1111 C1112 1.366 . S
C1112 C1111 1.366 . S
C1112 C1113 1.414 . S
C1112 C1115 1.499 . S
C1113 H1087 0.950 . S
C1113 C1112 1.414 . S
C1113 C1114 1.374 . S
C1114 H1088 0.950 . S
C1114 C1110 1.385 . S
C1114 C1113 1.374 . S
C1115 C1112 1.499 . S
C1115 C1116 1.373 . S
C1115 C1117 1.389 . S
C1116 H1089 0.950 . S
C1116 C1102 1.377 . S
C1116 C1115 1.373 . S
C1117 C1101 1.377 . S
C1117 C1115 1.389 . S
C1117 C1118 1.524 . S
C1118 C1117 1.524 . S
C1118 C1119 1.397 . S
C1118 C1123 1.363 . S
C1119 H1090 0.950 . S
C1119 C1118 1.397 . S
C1119 C1120 1.334 . S
C1120 H1091 0.950 . S
C1120 C1119 1.334 . S
C1120 C1121 1.287 . S
C1121 C1120 1.287 . S
C1121 C1122 1.524 . S
C1121 H1124 0.999 . S
C1122 H1092 0.950 . S
C1122 C1121 1.524 . S
C1122 C1123 1.415 . S
C1123 H1093 0.950 . S
C1123 C1118 1.363 . S
C1123 C1122 1.415 . S
H1124 C1121 0.999 . S
H1125 C1106 0.913 . S
H1126 C1144 0.951 . S
H1127 C1146 0.951 . S
H1128 C1148 0.950 . S
H1129 C1149 0.950 . S
H1130 C1151 0.950 . S
H1131 C1154 0.950 . S
H1132 C1155 0.950 . S
H1133 C1157 0.950 . S
H1134 C1158 0.950 . S
H1135 C1159 0.951 . S
H1136 C1161 0.951 . S
H1137 C1163 0.950 . S
H1138 C1164 0.950 . S
H1139 C1166 0.950 . S
H1140 C1169 0.950 . S
H1141 C1170 0.950 . S
H1142 C1172 0.950 . S
H1143 C1173 0.950 . S
C1144 H1126 0.951 . S
C1144 C1145 1.366 . S
C1144 C1146 1.388 . S
C1145 C1144 1.366 . S
C1145 C1149 1.385 . S
C1146 H1127 0.951 . S
C1146 C1144 1.388 . S
C1146 C1147 1.366 . S
C1147 C1146 1.366 . S
C1147 C1148 1.414 . S
C1147 C1150 1.499 . S
C1148 H1128 0.950 . S
C1148 C1147 1.414 . S
C1148 C1149 1.374 . S
C1149 H1129 0.950 . S
C1149 C1145 1.385 . S
C1149 C1148 1.374 . S
C1150 C1147 1.499 . S
C1150 C1151 1.373 . S
C1150 C1152 1.389 . S
C1151 H1130 0.950 . S
C1151 C1150 1.373 . S
C1151 C1167 1.377 . S
C1152 C1150 1.389 . S
C1152 C1153 1.524 . S
C1152 C1166 1.377 . S
C1153 C1152 1.524 . S
C1153 C1154 1.397 . S
C1153 C1158 1.363 . S
C1154 H1131 0.950 . S
C1154 C1153 1.397 . S
C1154 C1155 1.334 . S
C1155 H1132 0.950 . S
C1155 C1154 1.334 . S
C1155 C1156 1.287 . S
C1156 C1155 1.287 . S
C1156 C1157 1.524 . S
C1156 H1175 0.913 . S
C1157 H1133 0.950 . S
C1157 C1156 1.524 . S
C1157 C1158 1.415 . S
C1158 H1134 0.950 . S
C1158 C1153 1.363 . S
C1158 C1157 1.415 . S
C1159 H1135 0.951 . S
C1159 C1160 1.366 . S
C1159 C1161 1.388 . S
C1160 C1159 1.366 . S
C1160 C1164 1.385 . S
C1161 H1136 0.951 . S
C1161 C1159 1.388 . S
C1161 C1162 1.366 . S
C1162 C1161 1.366 . S
C1162 C1163 1.414 . S
C1162 C1165 1.499 . S
C1163 H1137 0.950 . S
C1163 C1162 1.414 . S
C1163 C1164 1.374 . S
C1164 H1138 0.950 . S
C1164 C1160 1.385 . S
C1164 C1163 1.374 . S
C1165 C1162 1.499 . S
C1165 C1166 1.373 . S
C1165 C1167 1.389 . S
C1166 H1139 0.950 . S
C1166 C1152 1.377 . S
C1166 C1165 1.373 . S
C1167 C1151 1.377 . S
C1167 C1165 1.389 . S
C1167 C1168 1.524 . S
C1168 C1167 1.524 . S
C1168 C1169 1.397 . S
C1168 C1173 1.363 . S
C1169 H1140 0.950 . S
C1169 C1168 1.397 . S
C1169 C1170 1.334 . S
C1170 H1141 0.950 . S
C1170 C1169 1.334 . S
C1170 C1171 1.287 . S
C1171 C1170 1.287 . S
C1171 C1172 1.524 . S
C1171 H1174 0.999 . S
C1172 H1142 0.950 . S
C1172 C1171 1.524 . S
C1172 C1173 1.415 . S
C1173 H1143 0.950 . S
C1173 C1168 1.363 . S
C1173 C1172 1.415 . S
H1174 C1171 0.999 . S
H1175 C1156 0.913 . S
H1176 C1194 0.951 . S
H1177 C1196 0.951 . S
H1178 C1198 0.950 . S
H1179 C1199 0.950 . S
H1180 C1201 0.950 . S
H1181 C1204 0.950 . S
H1182 C1205 0.950 . S
H1183 C1207 0.950 . S
H1184 C1208 0.950 . S
H1185 C1209 0.951 . S
H1186 C1211 0.951 . S
H1187 C1213 0.950 . S
H1188 C1214 0.950 . S
H1189 C1216 0.950 . S
H1190 C1219 0.950 . S
H1191 C1220 0.950 . S
H1192 C1222 0.950 . S
H1193 C1223 0.950 . S
C1194 H1176 0.951 . S
C1194 C1195 1.366 . S
C1194 C1196 1.388 . S
C1195 C1194 1.366 . S
C1195 C1199 1.385 . S
C1196 H1177 0.951 . S
C1196 C1194 1.388 . S
C1196 C1197 1.366 . S
C1197 C1196 1.366 . S
C1197 C1198 1.414 . S
C1197 C1200 1.499 . S
C1198 H1178 0.950 . S
C1198 C1197 1.414 . S
C1198 C1199 1.374 . S
C1199 H1179 0.950 . S
C1199 C1195 1.385 . S
C1199 C1198 1.374 . S
C1200 C1197 1.499 . S
C1200 C1201 1.373 . S
C1200 C1202 1.389 . S
C1201 H1180 0.950 . S
C1201 C1200 1.373 . S
C1201 C1217 1.377 . S
C1202 C1200 1.389 . S
C1202 C1203 1.524 . S
C1202 C1216 1.377 . S
C1203 C1202 1.524 . S
C1203 C1204 1.397 . S
C1203 C1208 1.363 . S
C1204 H1181 0.950 . S
C1204 C1203 1.397 . S
C1204 C1205 1.334 . S
C1205 H1182 0.950 . S
C1205 C1204 1.334 . S
C1205 C1206 1.287 . S
C1206 C1205 1.287 . S
C1206 C1207 1.524 . S
C1206 H1225 0.913 . S
C1207 H1183 0.950 . S
C1207 C1206 1.524 . S
C1207 C1208 1.415 . S
C1208 H1184 0.950 . S
C1208 C1203 1.363 . S
C1208 C1207 1.415 . S
C1209 H1185 0.951 . S
C1209 C1210 1.366 . S
C1209 C1211 1.388 . S
C1210 C1209 1.366 . S
C1210 C1214 1.385 . S
C1211 H1186 0.951 . S
C1211 C1209 1.388 . S
C1211 C1212 1.366 . S
C1212 C1211 1.366 . S
C1212 C1213 1.414 . S
C1212 C1215 1.499 . S
C1213 H1187 0.950 . S
C1213 C1212 1.414 . S
C1213 C1214 1.374 . S
C1214 H1188 0.950 . S
C1214 C1210 1.385 . S
C1214 C1213 1.374 . S
C1215 C1212 1.499 . S
C1215 C1216 1.373 . S
C1215 C1217 1.389 . S
C1216 H1189 0.950 . S
C1216 C1202 1.377 . S
C1216 C1215 1.373 . S
C1217 C1201 1.377 . S
C1217 C1215 1.389 . S
C1217 C1218 1.524 . S
C1218 C1217 1.524 . S
C1218 C1219 1.397 . S
C1218 C1223 1.363 . S
C1219 H1190 0.950 . S
C1219 C1218 1.397 . S
C1219 C1220 1.334 . S
C1220 H1191 0.950 . S
C1220 C1219 1.334 . S
C1220 C1221 1.287 . S
C1221 C1220 1.287 . S
C1221 C1222 1.524 . S
C1221 H1224 0.999 . S
C1222 H1192 0.950 . S
C1222 C1221 1.524 . S
C1222 C1223 1.415 . S
C1223 H1193 0.950 . S
C1223 C1218 1.363 . S
C1223 C1222 1.415 . S
H1224 C1221 0.999 . S
H1225 C1206 0.913 . S
H1226 C1244 0.951 . S
H1227 C1246 0.951 . S
H1228 C1248 0.950 . S
H1229 C1249 0.950 . S
H1230 C1251 0.950 . S
H1231 C1254 0.950 . S
H1232 C1255 0.950 . S
H1233 C1257 0.950 . S
H1234 C1258 0.950 . S
H1235 C1259 0.951 . S
H1236 C1261 0.951 . S
H1237 C1263 0.950 . S
H1238 C1264 0.950 . S
H1239 C1266 0.950 . S
H1240 C1269 0.950 . S
H1241 C1270 0.950 . S
H1242 C1272 0.950 . S
H1243 C1273 0.950 . S
C1244 H1226 0.951 . S
C1244 C1245 1.366 . S
C1244 C1246 1.388 . S
C1245 C1244 1.366 . S
C1245 C1249 1.385 . S
C1246 H1227 0.951 . S
C1246 C1244 1.388 . S
C1246 C1247 1.366 . S
C1247 C1246 1.366 . S
C1247 C1248 1.414 . S
C1247 C1250 1.499 . S
C1248 H1228 0.950 . S
C1248 C1247 1.414 . S
C1248 C1249 1.374 . S
C1249 H1229 0.950 . S
C1249 C1245 1.385 . S
C1249 C1248 1.374 . S
C1250 C1247 1.499 . S
C1250 C1251 1.373 . S
C1250 C1252 1.389 . S
C1251 H1230 0.950 . S
C1251 C1250 1.373 . S
C1251 C1267 1.377 . S
C1252 C1250 1.389 . S
C1252 C1253 1.524 . S
C1252 C1266 1.377 . S
C1253 C1252 1.524 . S
C1253 C1254 1.397 . S
C1253 C1258 1.363 . S
C1254 H1231 0.950 . S
C1254 C1253 1.397 . S
C1254 C1255 1.334 . S
C1255 H1232 0.950 . S
C1255 C1254 1.334 . S
C1255 C1256 1.287 . S
C1256 C1255 1.287 . S
C1256 C1257 1.524 . S
C1256 H1275 0.913 . S
C1257 H1233 0.950 . S
C1257 C1256 1.524 . S
C1257 C1258 1.415 . S
C1258 H1234 0.950 . S
C1258 C1253 1.363 . S
C1258 C1257 1.415 . S
C1259 H1235 0.951 . S
C1259 C1260 1.366 . S
C1259 C1261 1.388 . S
C1260 C1259 1.366 . S
C1260 C1264 1.385 . S
C1261 H1236 0.951 . S
C1261 C1259 1.388 . S
C1261 C1262 1.366 . S
C1262 C1261 1.366 . S
C1262 C1263 1.414 . S
C1262 C1265 1.499 . S
C1263 H1237 0.950 . S
C1263 C1262 1.414 . S
C1263 C1264 1.374 . S
C1264 H1238 0.950 . S
C1264 C1260 1.385 . S
C1264 C1263 1.374 . S
C1265 C1262 1.499 . S
C1265 C1266 1.373 . S
C1265 C1267 1.389 . S
C1266 H1239 0.950 . S
C1266 C1252 1.377 . S
C1266 C1265 1.373 . S
C1267 C1251 1.377 . S
C1267 C1265 1.389 . S
C1267 C1268 1.524 . S
C1268 C1267 1.524 . S
C1268 C1269 1.397 . S
C1268 C1273 1.363 . S
C1269 H1240 0.950 . S
C1269 C1268 1.397 . S
C1269 C1270 1.334 . S
C1270 H1241 0.950 . S
C1270 C1269 1.334 . S
C1270 C1271 1.287 . S
C1271 C1270 1.287 . S
C1271 C1272 1.524 . S
C1271 H1274 0.999 . S
C1272 H1242 0.950 . S
C1272 C1271 1.524 . S
C1272 C1273 1.415 . S
C1273 H1243 0.950 . S
C1273 C1268 1.363 . S
C1273 C1272 1.415 . S
H1274 C1271 0.999 . S
H1275 C1256 0.913 . S
H1276 C1294 0.951 . S
H1277 C1296 0.951 . S
H1278 C1298 0.950 . S
H1279 C1299 0.950 . S
H1280 C1301 0.950 . S
H1281 C1304 0.950 . S
H1282 C1305 0.950 . S
H1283 C1307 0.950 . S
H1284 C1308 0.950 . S
H1285 C1309 0.951 . S
H1286 C1311 0.951 . S
H1287 C1313 0.950 . S
H1288 C1314 0.950 . S
H1289 C1316 0.950 . S
H1290 C1319 0.950 . S
H1291 C1320 0.950 . S
H1292 C1322 0.950 . S
H1293 C1323 0.950 . S
C1294 H1276 0.951 . S
C1294 C1295 1.366 . S
C1294 C1296 1.388 . S
C1295 C1294 1.366 . S
C1295 C1299 1.385 . S
C1296 H1277 0.951 . S
C1296 C1294 1.388 . S
C1296 C1297 1.366 . S
C1297 C1296 1.366 . S
C1297 C1298 1.414 . S
C1297 C1300 1.499 . S
C1298 H1278 0.950 . S
C1298 C1297 1.414 . S
C1298 C1299 1.374 . S
C1299 H1279 0.950 . S
C1299 C1295 1.385 . S
C1299 C1298 1.374 . S
C1300 C1297 1.499 . S
C1300 C1301 1.373 . S
C1300 C1302 1.389 . S
C1301 H1280 0.950 . S
C1301 C1300 1.373 . S
C1301 C1317 1.377 . S
C1302 C1300 1.389 . S
C1302 C1303 1.524 . S
C1302 C1316 1.377 . S
C1303 C1302 1.524 . S
C1303 C1304 1.397 . S
C1303 C1308 1.363 . S
C1304 H1281 0.950 . S
C1304 C1303 1.397 . S
C1304 C1305 1.334 . S
C1305 H1282 0.950 . S
C1305 C1304 1.334 . S
C1305 C1306 1.287 . S
C1306 C1305 1.287 . S
C1306 C1307 1.524 . S
C1306 H1325 0.913 . S
C1307 H1283 0.950 . S
C1307 C1306 1.524 . S
C1307 C1308 1.415 . S
C1308 H1284 0.950 . S
C1308 C1303 1.363 . S
C1308 C1307 1.415 . S
C1309 H1285 0.951 . S
C1309 C1310 1.366 . S
C1309 C1311 1.388 . S
C1310 C1309 1.366 . S
C1310 C1314 1.385 . S
C1311 H1286 0.951 . S
C1311 C1309 1.388 . S
C1311 C1312 1.366 . S
C1312 C1311 1.366 . S
C1312 C1313 1.414 . S
C1312 C1315 1.499 . S
C1313 H1287 0.950 . S
C1313 C1312 1.414 . S
C1313 C1314 1.374 . S
C1314 H1288 0.950 . S
C1314 C1310 1.385 . S
C1314 C1313 1.374 . S
C1315 C1312 1.499 . S
C1315 C1316 1.373 . S
C1315 C1317 1.389 . S
C1316 H1289 0.950 . S
C1316 C1302 1.377 . S
C1316 C1315 1.373 . S
C1317 C1301 1.377 . S
C1317 C1315 1.389 . S
C1317 C1318 1.524 . S
C1318 C1317 1.524 . S
C1318 C1319 1.397 . S
C1318 C1323 1.363 . S
C1319 H1290 0.950 . S
C1319 C1318 1.397 . S
C1319 C1320 1.334 . S
C1320 H1291 0.950 . S
C1320 C1319 1.334 . S
C1320 C1321 1.287 . S
C1321 C1320 1.287 . S
C1321 C1322 1.524 . S
C1321 H1324 0.999 . S
C1322 H1292 0.950 . S
C1322 C1321 1.524 . S
C1322 C1323 1.415 . S
C1323 H1293 0.950 . S
C1323 C1318 1.363 . S
C1323 C1322 1.415 . S
H1324 C1321 0.999 . S
H1325 C1306 0.913 . S
H1326 C1344 0.951 . S
H1327 C1346 0.951 . S
H1328 C1348 0.950 . S
H1329 C1349 0.950 . S
H1330 C1351 0.950 . S
H1331 C1354 0.950 . S
H1332 C1355 0.950 . S
H1333 C1357 0.950 . S
H1334 C1358 0.950 . S
H1335 C1359 0.951 . S
H1336 C1361 0.951 . S
H1337 C1363 0.950 . S
H1338 C1364 0.950 . S
H1339 C1366 0.950 . S
H1340 C1369 0.950 . S
H1341 C1370 0.950 . S
H1342 C1372 0.950 . S
H1343 C1373 0.950 . S
C1344 H1326 0.951 . S
C1344 C1345 1.366 . S
C1344 C1346 1.388 . S
C1345 C1344 1.366 . S
C1345 C1349 1.385 . S
C1346 H1327 0.951 . S
C1346 C1344 1.388 . S
C1346 C1347 1.366 . S
C1347 C1346 1.366 . S
C1347 C1348 1.414 . S
C1347 C1350 1.499 . S
C1348 H1328 0.950 . S
C1348 C1347 1.414 . S
C1348 C1349 1.374 . S
C1349 H1329 0.950 . S
C1349 C1345 1.385 . S
C1349 C1348 1.374 . S
C1350 C1347 1.499 . S
C1350 C1351 1.373 . S
C1350 C1352 1.389 . S
C1351 H1330 0.950 . S
C1351 C1350 1.373 . S
C1351 C1367 1.377 . S
C1352 C1350 1.389 . S
C1352 C1353 1.524 . S
C1352 C1366 1.377 . S
C1353 C1352 1.524 . S
C1353 C1354 1.397 . S
C1353 C1358 1.363 . S
C1354 H1331 0.950 . S
C1354 C1353 1.397 . S
C1354 C1355 1.334 . S
C1355 H1332 0.950 . S
C1355 C1354 1.334 . S
C1355 C1356 1.287 . S
C1356 C1355 1.287 . S
C1356 C1357 1.524 . S
C1356 H1375 0.913 . S
C1357 H1333 0.950 . S
C1357 C1356 1.524 . S
C1357 C1358 1.415 . S
C1358 H1334 0.950 . S
C1358 C1353 1.363 . S
C1358 C1357 1.415 . S
C1359 H1335 0.951 . S
C1359 C1360 1.366 . S
C1359 C1361 1.388 . S
C1360 C1359 1.366 . S
C1360 C1364 1.385 . S
C1361 H1336 0.951 . S
C1361 C1359 1.388 . S
C1361 C1362 1.366 . S
C1362 C1361 1.366 . S
C1362 C1363 1.414 . S
C1362 C1365 1.499 . S
C1363 H1337 0.950 . S
C1363 C1362 1.414 . S
C1363 C1364 1.374 . S
C1364 H1338 0.950 . S
C1364 C1360 1.385 . S
C1364 C1363 1.374 . S
C1365 C1362 1.499 . S
C1365 C1366 1.373 . S
C1365 C1367 1.389 . S
C1366 H1339 0.950 . S
C1366 C1352 1.377 . S
C1366 C1365 1.373 . S
C1367 C1351 1.377 . S
C1367 C1365 1.389 . S
C1367 C1368 1.524 . S
C1368 C1367 1.524 . S
C1368 C1369 1.397 . S
C1368 C1373 1.363 . S
C1369 H1340 0.950 . S
C1369 C1368 1.397 . S
C1369 C1370 1.334 . S
C1370 H1341 0.950 . S
C1370 C1369 1.334 . S
C1370 C1371 1.287 . S
C1371 C1370 1.287 . S
C1371 C1372 1.524 . S
C1371 H1374 0.999 . S
C1372 H1342 0.950 . S
C1372 C1371 1.524 . S
C1372 C1373 1.415 . S
C1373 H1343 0.950 . S
C1373 C1368 1.363 . S
C1373 C1372 1.415 . S
H1374 C1371 0.999 . S
H1375 C1356 0.913 . S
C195 C140 1.347 . S
C210 C8 1.347 . S
C245 C43 1.400 . S
C260 C164 1.407 . S
C295 C96 1.409 . S
C310 C59 1.402 . S
C345 C73 1.461 . S
C360 C125 1.461 . S
C395 C109 1.391 . S
C410 C54 1.397 . S
C445 C84 1.338 . S
C460 C120 1.337 . S
C495 C153 1.451 . S
C510 C21 1.451 . S
C545 C30 1.398 . S
C560 C169 1.393 . S
C595 C40 1.347 . S
C610 C118 1.347 . S
C645 C147 1.400 . S
C660 C52 1.407 . S
C695 C161 1.402 . S
C710 C76 1.409 . S
C745 C15 1.461 . S
C760 C103 1.461 . S
C795 C81 1.391 . S
C810 C172 1.397 . S
C845 C98 1.337 . S
C860 C10 1.338 . S
C895 C29 1.451 . S
C910 C131 1.451 . S
C945 C65 1.393 . S
C960 C142 1.399 . S
C995 C162 1.031 . S
C1010 C18 1.030 . S
C1045 C37 1.089 . S
C1060 C106 1.093 . S
C1095 C51 1.152 . S
C1110 C117 1.152 . S
C1145 C150 1.093 . S
C1160 C87 1.089 . S
C1195 C128 1.030 . S
C1210 C62 1.031 . S
C1245 C139 1.089 . S
C1260 C74 1.093 . S
C1295 C175 1.151 . S
C1310 C7 1.151 . S
C1345 C95 1.089 . S
C1360 C32 1.093 . S
