# Generated by pormake.
# Topology qdl, (4)-cn, num edge types: 1
# Building blocks:
#     Node 0, Type 0, BuildingBlock: ESEHIV_clean_sbu_0, # of connection points: 4
#     Node 1, Type 0, BuildingBlock: ESEHIV_clean_sbu_0, # of connection points: 4
#     Node 2, Type 0, BuildingBlock: ESEHIV_clean_sbu_0, # of connection points: 4
#     Node 3, Type 0, BuildingBlock: ESEHIV_clean_sbu_0, # of connection points: 4
#     Node 4, Type 0, BuildingBlock: ESEHIV_clean_sbu_0, # of connection points: 4
#     Node 5, Type 0, BuildingBlock: ESEHIV_clean_sbu_0, # of connection points: 4
#     Edge 6, Type (0, 0), BuildingBlock: FUNLAD_clean_linker_1, # of connection points: 2
#     Edge 7, Type (0, 0), BuildingBlock: FUNLAD_clean_linker_1, # of connection points: 2
#     Edge 8, Type (0, 0), BuildingBlock: FUNLAD_clean_linker_1, # of connection points: 2
#     Edge 9, Type (0, 0), BuildingBlock: FUNLAD_clean_linker_1, # of connection points: 2
#     Edge 10, Type (0, 0), BuildingBlock: FUNLAD_clean_linker_1, # of connection points: 2
#     Edge 11, Type (0, 0), BuildingBlock: FUNLAD_clean_linker_1, # of connection points: 2
#     Edge 12, Type (0, 0), BuildingBlock: FUNLAD_clean_linker_1, # of connection points: 2
#     Edge 13, Type (0, 0), BuildingBlock: FUNLAD_clean_linker_1, # of connection points: 2
#     Edge 14, Type (0, 0), BuildingBlock: FUNLAD_clean_linker_1, # of connection points: 2
#     Edge 15, Type (0, 0), BuildingBlock: FUNLAD_clean_linker_1, # of connection points: 2
#     Edge 16, Type (0, 0), BuildingBlock: FUNLAD_clean_linker_1, # of connection points: 2
#     Edge 17, Type (0, 0), BuildingBlock: FUNLAD_clean_linker_1, # of connection points: 2
# Relax obj value: 0.000
# Max RMSD: 0.129
# Mean RMSD: 0.084
data_MOF--net-qdl--node1-ESEHIV_clean_sbu_0--edge1-FUNLAD_clean_linker_1
_symmetry_space_group_name_H-M    P1
_symmetry_Int_Tables_number       1
_symmetry_cell_setting            triclinic
loop_
_symmetry_equiv_pos_as_xyz
'x, y, z'
_cell_length_a     15.705492
_cell_length_b     18.268829
_cell_length_c     97.776252
_cell_angle_alpha  100.33205
_cell_angle_beta   100.16626
_cell_angle_gamma 115.43116
loop_
_atom_site_label
_atom_site_type_symbol
_atom_site_fract_x
_atom_site_fract_y
_atom_site_fract_z
_atom_type_partial_charge
Cu0 Cu 0.165 0.1253 0.08769 0.0
N1 N 0.09096 1.00512 0.08285 0.0
N2 N 0.05994 0.87142 0.08196 0.0
C3 C 0.1219 0.95493 0.08841 0.0
C4 C 0.98598 0.86869 0.07207 0.0
C5 C 1.00505 0.95086 0.07268 0.0
O6 O 0.24187 0.15905 0.10813 0.0
C7 C 0.19743 0.12561 0.06054 0.0
O8 O 0.10174 0.07685 0.05671 0.0
H9 H 0.19016 0.97929 0.09683 0.0
H10 H 0.95994 0.96954 0.06599 0.0
N11 N 0.09201 0.18564 0.08598 0.0
N12 N 0.06175 0.29416 0.08411 0.0
C13 C 0.1261 0.26326 0.08379 0.0
C14 C 1.00174 0.16625 0.08746 0.0
C15 C 0.98312 0.23296 0.08638 0.0
C16 C 0.19971 0.16376 0.11807 0.0
O17 O 0.11006 0.15382 0.1144 0.0
H18 H 0.19779 0.29723 0.08221 0.0
H19 H 0.95329 0.10817 0.0894 0.0
O20 O 0.24428 0.1537 0.07403 0.0
H21 H 0.92208 0.81151 0.06501 0.0
H22 H 0.91627 0.23548 0.08701 0.0
Cu23 Cu 0.25291 0.19111 0.4262 0.0
N24 N 0.19477 0.12613 0.40658 0.0
N25 N 0.16076 0.08924 0.38231 0.0
C26 C 0.21581 0.15179 0.39487 0.0
C27 C 0.10313 1.02212 0.3863 0.0
C28 C 0.12466 0.04469 0.40122 0.0
O29 O 0.39349 0.25463 0.42773 0.0
C30 C 0.09237 0.21839 0.42741 0.0
O31 O 0.04676 0.13732 0.42045 0.0
H32 H 0.26942 0.2153 0.3956 0.0
H33 H 0.09106 1.0047 0.40772 0.0
N34 N 0.23753 0.12156 0.43864 0.0
N35 N 0.22654 0.07738 0.45856 0.0
C36 C 0.22048 0.13407 0.45175 0.0
C37 C 0.25454 0.05482 0.43716 0.0
C38 C 0.24822 0.0278 0.44942 0.0
C39 C 0.4637 0.26473 0.43801 0.0
O40 O 0.44538 0.24497 0.44983 0.0
H41 H 0.20915 0.18628 0.45647 0.0
H42 H 0.27428 0.02987 0.42806 0.0
O43 O 0.18631 0.25802 0.43099 0.0
H44 H 0.04911 0.96089 0.3789 0.0
H45 H 0.26129 0.97697 0.45165 0.0
Cu46 Cu 0.08722 0.17791 0.76721 0.0
N47 N 0.95051 0.11234 0.76523 0.0
N48 N 0.81162 1.00269 0.76577 0.0
C49 C 0.91128 0.04318 0.77003 0.0
C50 C 0.78681 0.04889 0.75816 0.0
C51 C 0.8722 0.1163 0.75788 0.0
O52 O 0.15281 0.16947 0.7856 0.0
C53 C 0.06973 0.14398 0.73806 0.0
O54 O 1.01324 0.17914 0.73947 0.0
H55 H 0.95516 1.02156 0.77624 0.0
H56 H 0.87646 0.16413 0.75252 0.0
N57 N 0.13491 0.29525 0.76867 0.0
N58 N 0.23777 0.42644 0.76819 0.0
C59 C 0.21756 0.34442 0.76541 0.0
C60 C 0.10075 0.34827 0.77344 0.0
C61 C 0.16406 0.429 0.77322 0.0
C62 C 0.14102 0.20787 0.79682 0.0
O63 O 0.09378 0.25135 0.79513 0.0
H64 H 0.26281 0.32052 0.76118 0.0
H65 H 0.03468 0.32976 0.77691 0.0
O66 O 0.11253 0.13299 0.74931 0.0
H67 H 0.71238 0.03561 0.75327 0.0
H68 H 0.15521 0.48473 0.77626 0.0
Cu69 Cu 0.19742 0.15331 0.60326 0.0
N70 N 0.18073 0.08468 0.61595 0.0
N71 N 0.17409 0.04276 0.63615 0.0
C72 C 0.18813 0.10726 0.63025 0.0
C73 C 0.15878 0.9779 0.6252 0.0
C74 C 0.1629 1.00377 0.6128 0.0
O75 O 0.13031 0.22084 0.60662 0.0
C76 C 0.38265 0.18392 0.60083 0.0
O77 O 0.32993 0.10614 0.59224 0.0
H78 H 0.20368 0.16977 0.63613 0.0
H79 H 0.15416 0.96635 0.60223 0.0
N80 N 0.1391 0.08909 0.58357 0.0
N81 N 0.1009 0.05386 0.55925 0.0
C82 C 0.16632 0.11074 0.57188 0.0
C83 C 0.05328 1.01681 0.57809 0.0
C84 C 0.02957 0.99516 0.56315 0.0
C85 C 0.05114 0.189 0.6103 0.0
O86 O 1.02004 0.11409 0.61247 0.0
H87 H 0.23051 0.16867 0.57263 0.0
H88 H 1.00925 0.98378 0.58453 0.0
O89 O 0.33937 0.2199 0.60683 0.0
H90 H 0.14524 0.91589 0.62612 0.0
H91 H 0.96385 0.9412 0.55568 0.0
Cu92 Cu 0.18547 0.1983 0.9289 0.0
N93 N 0.24594 0.31797 0.93106 0.0
N94 N 0.35872 0.44797 0.93114 0.0
C95 C 0.33559 0.36542 0.92933 0.0
C96 C 0.28026 0.4527 0.9342 0.0
C97 C 0.21148 0.37312 0.93414 0.0
O98 O 0.20786 0.15046 0.91107 0.0
C99 C 0.25217 0.22336 0.95885 0.0
O100 O 0.23416 0.28752 0.95932 0.0
H101 H 0.3831 0.33962 0.92669 0.0
H102 H 0.14136 0.35701 0.93628 0.0
N103 N 0.04693 0.1402 0.9266 0.0
N104 N 0.89696 0.03926 0.92605 0.0
C105 C 0.99413 0.06225 0.9283 0.0
C106 C 0.98039 0.16665 0.92312 0.0
C107 C 0.88898 0.10533 0.92286 0.0
C108 C 0.17215 0.16423 0.89961 0.0
O109 O 0.12054 0.20469 0.90051 0.0
H110 H 0.02679 1.02392 0.93134 0.0
H111 H 0.99694 0.22647 0.92091 0.0
O112 O 0.24263 0.17812 0.94651 0.0
H113 H 0.27271 0.50943 0.93645 0.0
H114 H 0.82126 0.10917 0.92052 0.0
Cu115 Cu 0.14356 0.13626 0.24889 0.0
N116 N 0.0786 0.20424 0.24797 0.0
N117 N 0.06046 0.32054 0.24744 0.0
C118 C 0.12199 0.28618 0.24771 0.0
C119 C 0.97447 0.25738 0.24757 0.0
C120 C 0.9859 0.18637 0.24793 0.0
O121 O 0.22414 0.16643 0.2354 0.0
C122 C 0.16349 0.14587 0.27794 0.0
O123 O 0.06733 0.10851 0.27261 0.0
H124 H 0.19813 0.32048 0.24782 0.0
H125 H 0.93053 0.12632 0.24832 0.0
N126 N 0.06198 1.01592 0.2435 0.0
N127 N 1.01134 0.87693 0.24132 0.0
C128 C 0.08814 0.95693 0.24645 0.0
C129 C 0.96568 0.97123 0.23628 0.0
C130 C 0.93457 0.88648 0.23502 0.0
C131 C 0.21242 0.1146 0.22366 0.0
O132 O 0.15571 0.03325 0.22132 0.0
H133 H 0.16151 0.97267 0.25245 0.0
H134 H 0.92079 0.99835 0.23227 0.0
O135 O 0.21643 0.16687 0.26934 0.0
H136 H 0.908 0.26183 0.24759 0.0
H137 H 0.86041 0.83536 0.22986 0.0
H138 H 0.1119 0.81131 0.09647 0.0
C139 C 0.07032 0.80114 0.08555 0.0
H140 H 0.99144 0.71538 0.0648 0.0
H141 H 0.21556 0.52422 0.09799 0.0
H142 H 0.3693 0.65187 0.10286 0.0
H143 H 0.37231 0.77619 0.09599 0.0
H144 H 0.22135 0.77477 0.0847 0.0
C145 C 0.03173 0.72429 0.07573 0.0
C146 C 0.03362 0.64705 0.07916 0.0
C147 C 0.1232 0.64632 0.08483 0.0
C148 C 0.12207 0.57165 0.08776 0.0
C149 C 0.21216 0.57645 0.09469 0.0
C150 C 0.30109 0.64978 0.09768 0.0
C151 C 0.30274 0.71996 0.09389 0.0
C152 C 0.21522 0.71857 0.08753 0.0
H153 H 0.12449 0.40268 0.07556 0.0
C154 C 0.07441 0.37419 0.08172 0.0
H155 H 0.97839 0.38643 0.09333 0.0
H156 H 0.84749 0.62413 0.06884 0.0
H157 H 0.69507 0.49334 0.06216 0.0
H158 H 0.69452 0.36158 0.06484 0.0
H159 H 0.84631 0.35998 0.07443 0.0
C160 C 0.0275 0.41503 0.08707 0.0
C161 C 0.03198 0.49483 0.08392 0.0
C162 C 0.94286 0.49501 0.07781 0.0
C163 C 0.94351 0.57082 0.07572 0.0
C164 C 0.85228 0.56847 0.07022 0.0
C165 C 0.76383 0.49375 0.0664 0.0
C166 C 0.76349 0.41964 0.06795 0.0
C167 C 0.85147 0.41986 0.07357 0.0
H168 H 0.56307 0.27571 0.42412 0.0
C169 C 0.55913 0.28008 0.4352 0.0
H170 H 0.63016 0.29058 0.45636 0.0
H171 H 0.87789 0.11239 0.44151 0.0
H172 H 0.76831 1.01983 0.45276 0.0
H173 H 0.63333 0.04177 0.45873 0.0
H174 H 0.6077 0.15662 0.45367 0.0
C175 C 0.63526 0.28782 0.44536 0.0
C176 C 0.71815 0.27595 0.4416 0.0
C177 C 0.73149 0.2074 0.44446 0.0
C178 C 0.80757 0.19303 0.4406 0.0
C179 C 0.81986 0.12498 0.44386 0.0
C180 C 0.75777 0.07151 0.45038 0.0
C181 C 0.68199 0.08401 0.45378 0.0
C182 C 0.66851 0.15078 0.45086 0.0
H183 H 0.0722 0.32065 0.44026 0.0
C184 C 0.0343 0.25943 0.43213 0.0
H185 H 0.89816 0.15669 0.41923 0.0
H186 H 0.72497 0.42087 0.43672 0.0
H187 H 0.83279 0.51158 0.42498 0.0
H188 H 0.95613 0.48026 0.41665 0.0
H189 H 0.97398 0.35904 0.42028 0.0
C190 C 0.935 0.21864 0.42716 0.0
C191 C 0.86925 0.24555 0.43352 0.0
C192 C 0.85795 0.31547 0.43101 0.0
C193 C 0.7837 0.3316 0.4353 0.0
C194 C 0.77722 0.40387 0.4332 0.0
C195 C 0.83911 0.45675 0.42656 0.0
C196 C 0.90877 0.43924 0.4219 0.0
C197 C 0.91838 0.36951 0.42407 0.0
H198 H 0.7743 0.91564 0.77917 0.0
C199 C 0.74698 0.92781 0.76928 0.0
H200 H 0.6292 0.88467 0.75063 0.0
H201 H 0.50638 0.54789 0.77723 0.0
H202 H 0.66458 0.5585 0.77664 0.0
H203 H 0.78344 0.67414 0.76935 0.0
H204 H 0.74628 0.78157 0.76311 0.0
C205 C 0.65496 0.8722 0.76056 0.0
C206 C 0.58148 0.79701 0.76421 0.0
C207 C 0.60112 0.73079 0.76686 0.0
C208 C 0.52887 0.65976 0.76998 0.0
C209 C 0.55514 0.59975 0.77389 0.0
C210 C 0.64629 0.60554 0.77373 0.0
C211 C 0.71345 0.67094 0.76971 0.0
C212 C 0.6915 0.73282 0.76629 0.0
H213 H 0.35048 0.47813 0.75712 0.0
C214 C 0.31829 0.4945 0.76535 0.0
H215 H 0.32335 0.59263 0.78101 0.0
H216 H 0.51795 0.91195 0.76039 0.0
H217 H 0.35557 0.89589 0.75918 0.0
H218 H 0.22618 0.7672 0.76206 0.0
H219 H 0.25871 0.65424 0.7664 0.0
C220 C 0.35539 0.57708 0.7727 0.0
C221 C 0.43333 0.65066 0.76931 0.0
C222 C 0.413 0.71576 0.76626 0.0
C223 C 0.48701 0.78904 0.76402 0.0
C224 C 0.46434 0.85384 0.76168 0.0
C225 C 0.37136 0.84576 0.76104 0.0
C226 C 0.29863 0.77345 0.76271 0.0
C227 C 0.31868 0.70915 0.76528 0.0
H228 H 0.53226 0.26386 0.6161 0.0
C229 C 0.49107 0.22173 0.60521 0.0
H230 H 0.49305 0.1522 0.58579 0.0
H231 H 0.97275 0.36796 0.62155 0.0
H232 H 0.96239 0.49668 0.62138 0.0
H233 H 0.80254 0.49116 0.61205 0.0
H234 H 0.65167 0.35704 0.60307 0.0
C235 C 0.5361 0.19449 0.59664 0.0
C236 C 0.63439 0.20083 0.60234 0.0
C237 C 0.72217 0.27947 0.60712 0.0
C238 C 0.81508 0.28235 0.61198 0.0
C239 C 0.90091 0.36196 0.61731 0.0
C240 C 0.89589 0.43631 0.61734 0.0
C241 C 0.80581 0.43322 0.61211 0.0
C242 C 0.71972 0.35589 0.60704 0.0
H243 H 0.9814 0.25925 0.60124 0.0
C244 C 0.98395 0.22613 0.60937 0.0
H245 H 0.92027 0.17329 0.62471 0.0
H246 H 0.48013 0.03972 0.59496 0.0
H247 H 0.49095 0.91102 0.59405 0.0
H248 H 0.65203 0.9148 0.6006 0.0
H249 H 0.80287 0.04731 0.60831 0.0
C250 C 0.91565 0.20635 0.61662 0.0
C251 C 0.8202 0.20629 0.61153 0.0
C252 C 0.73227 0.12757 0.60657 0.0
C253 C 0.63952 0.12503 0.60224 0.0
C254 C 0.55294 0.04561 0.59793 0.0
C255 C 0.55788 0.97095 0.59742 0.0
C256 C 0.64848 0.97311 0.60115 0.0
C257 C 0.73472 0.05007 0.60566 0.0
H258 H 0.50841 0.50048 0.92882 0.0
C259 C 0.44976 0.5152 0.93016 0.0
H260 H 0.40751 0.61087 0.93238 0.0
H261 H 0.80958 0.94391 0.95406 0.0
H262 H 0.75172 0.94572 0.97542 0.0
H263 H 0.60709 0.82129 0.97651 0.0
H264 H 0.51948 0.69382 0.95627 0.0
C265 C 0.46482 0.59508 0.93075 0.0
C266 C 0.55999 0.66754 0.93037 0.0
C267 C 0.61129 0.74286 0.94223 0.0
C268 C 0.69509 0.81566 0.94157 0.0
C269 C 0.74479 0.88798 0.9538 0.0
C270 C 0.7127 0.88971 0.96619 0.0
C271 C 0.63126 0.81961 0.96681 0.0
C272 C 0.58123 0.74692 0.95505 0.0
H273 H 0.74687 0.96605 0.92716 0.0
C274 C 0.81534 0.96433 0.92728 0.0
H275 H 0.88293 0.88629 0.92753 0.0
H276 H 0.4789 0.5389 0.90512 0.0
H277 H 0.53888 0.53672 0.88398 0.0
H278 H 0.68603 0.66004 0.88321 0.0
H279 H 0.77371 0.78726 0.90354 0.0
C280 C 0.81755 0.8918 0.92816 0.0
C281 C 0.72878 0.81475 0.92898 0.0
C282 C 0.67909 0.7389 0.91726 0.0
C283 C 0.59457 0.66622 0.91785 0.0
C284 C 0.54466 0.59437 0.90554 0.0
C285 C 0.57797 0.59246 0.89326 0.0
C286 C 0.66078 0.662 0.89281 0.0
C287 C 0.71064 0.73457 0.90459 0.0
H288 H 0.16104 0.45036 0.24803 0.0
C289 C 0.08554 0.40744 0.24736 0.0
H290 H 0.94471 0.39606 0.24617 0.0
H291 H 0.03628 0.7715 0.26982 0.0
H292 H 0.98823 0.71422 0.28938 0.0
H293 H 0.96565 0.5725 0.28973 0.0
H294 H 0.99166 0.48712 0.2706 0.0
C295 C 1.01963 0.43754 0.24644 0.0
C296 C 0.04453 0.52839 0.24681 0.0
C297 C 0.02846 0.57842 0.25799 0.0
C298 C 0.041 0.66077 0.25776 0.0
C299 C 0.02623 0.70856 0.2693 0.0
C300 C 0.99904 0.67658 0.28064 0.0
C301 C 0.98636 0.59676 0.28084 0.0
C302 C 1.00102 0.54817 0.26973 0.0
H303 H 0.93117 0.74284 0.24006 0.0
C304 C 1.00432 0.7961 0.24254 0.0
H305 H 0.15581 0.83194 0.24763 0.0
H306 H 0.07658 0.45155 0.22302 0.0
H307 H 0.12937 0.5111 0.20394 0.0
H308 H 0.1565 0.65453 0.20406 0.0
H309 H 0.12976 0.73926 0.22323 0.0
C310 C 0.08208 0.78149 0.24592 0.0
C311 C 0.06936 0.69446 0.2463 0.0
C312 C 0.08811 0.64567 0.23533 0.0
C313 C 0.07451 0.56279 0.23545 0.0
C314 C 0.08872 0.51519 0.22381 0.0
C315 C 0.11842 0.54846 0.2127 0.0
C316 C 0.13357 0.62922 0.21275 0.0
C317 C 0.11822 0.67729 0.22385 0.0
H318 H 0.26278 0.21226 0.21207 0.0
C319 C 0.24328 0.14679 0.21144 0.0
H320 H 0.21334 0.02885 0.19844 0.0
H321 H 0.03874 0.04287 0.13743 0.0
H322 H 0.89932 0.93116 0.14139 0.0
H323 H 0.90785 0.90402 0.16527 0.0
H324 H 0.05594 0.98758 0.18526 0.0
C325 C 0.23409 0.09444 0.19896 0.0
C326 C 0.22973 0.11631 0.18483 0.0
C327 C 0.14144 0.06791 0.17324 0.0
C328 C 0.13528 0.08542 0.15957 0.0
C329 C 0.04685 0.03417 0.14816 0.0
C330 C 0.9662 0.96939 0.15024 0.0
C331 C 0.97111 0.95396 0.16366 0.0
C332 C 0.05721 1.00236 0.17505 0.0
H333 H 0.30111 0.14882 0.13504 0.0
C334 C 0.24242 0.16554 0.13308 0.0
H335 H 0.14143 0.19282 0.14145 0.0
H336 H 0.41355 0.21479 0.20383 0.0
H337 H 0.55156 0.32954 0.20003 0.0
H338 H 0.53678 0.36626 0.17696 0.0
H339 H 0.38443 0.2874 0.15739 0.0
C340 C 0.20111 0.17744 0.14372 0.0
C341 C 0.21617 0.15302 0.15747 0.0
C342 C 0.30481 0.20095 0.16896 0.0
C343 C 0.31216 0.18169 0.18255 0.0
C344 C 0.40287 0.22846 0.19354 0.0
C345 C 0.48281 0.29419 0.19147 0.0
C346 C 0.47456 0.31474 0.17845 0.0
C347 C 0.38678 0.26891 0.1673 0.0
H348 H 0.02927 1.01923 0.53611 0.0
C349 C 0.09936 0.05587 0.54449 0.0
H350 H 0.25178 0.13381 0.5488 0.0
H351 H 0.07395 0.94449 0.47655 0.0
H352 H 1.0161 0.81122 0.48239 0.0
H353 H 0.03904 0.80773 0.50783 0.0
H354 H 0.11645 0.93727 0.52753 0.0
C355 C 0.18134 0.09726 0.54055 0.0
C356 C 0.17876 0.0984 0.5251 0.0
C357 C 0.14026 1.02221 0.51372 0.0
C358 C 0.13472 1.02451 0.49906 0.0
C359 C 0.08648 0.94694 0.48789 0.0
C360 C 0.05189 0.8698 0.49108 0.0
C361 C 0.06423 0.86782 0.5054 0.0
C362 C 0.10792 0.94282 0.51661 0.0
H363 H 0.25533 0.03908 0.47801 0.0
C364 C 0.22267 0.07336 0.4731 0.0
H365 H 0.14456 0.14158 0.47585 0.0
H366 H 0.25544 0.25635 0.54392 0.0
H367 H 0.32363 0.3899 0.53824 0.0
H368 H 0.32748 0.39439 0.5133 0.0
H369 H 0.26202 0.26533 0.49382 0.0
C370 C 0.17755 0.10722 0.48061 0.0
C371 C 0.17608 0.10331 0.49585 0.0
C372 C 0.21658 0.17947 0.50727 0.0
C373 C 0.21679 0.17697 0.5218 0.0
C374 C 0.2552 0.25426 0.53279 0.0
C375 C 0.29437 0.33155 0.52968 0.0
C376 C 0.29637 0.33407 0.51563 0.0
C377 C 0.25817 0.25927 0.50453 0.0
H378 H 0.17821 0.25308 0.82042 0.0
C379 C 0.17385 0.20405 0.81173 0.0
H380 H 0.17006 0.08544 0.80655 0.0
H381 H 0.33808 0.27105 0.8795 0.0
H382 H 0.48311 0.37261 0.87477 0.0
H383 H 0.49564 0.363 0.84977 0.0
H384 H 0.36245 0.2521 0.82929 0.0
C385 C 0.18176 0.13859 0.81512 0.0
C386 C 0.18671 0.13158 0.83032 0.0
C387 C 0.26671 0.19418 0.84227 0.0
C388 C 0.26046 0.19849 0.85676 0.0
C389 C 0.33943 0.26436 0.86834 0.0
C390 C 0.42312 0.32298 0.86577 0.0
C391 C 0.43012 0.31762 0.85169 0.0
C392 C 0.35308 0.25409 0.84003 0.0
H393 H 0.24002 0.11148 0.88516 0.0
C394 C 0.19248 0.14036 0.88562 0.0
H395 H 0.10613 0.18422 0.87414 0.0
H396 H 0.02604 0.99552 0.81028 0.0
H397 H 0.8857 0.88963 0.81519 0.0
H398 H 0.877 0.89569 0.84029 0.0
H399 H 1.00896 1.00827 0.86069 0.0
C400 C 0.15517 0.15684 0.8737 0.0
C401 C 0.17508 0.13907 0.85937 0.0
C402 C 0.09953 0.07169 0.84754 0.0
C403 C 0.10521 0.06777 0.83304 0.0
C404 C 0.02629 1.00138 0.82149 0.0
C405 C 0.94514 0.9401 0.82416 0.0
C406 C 0.94017 0.94356 0.83829 0.0
C407 C 1.01611 1.00855 0.84988 0.0
H408 H 0.3178 0.21081 0.05277 0.0
C409 C 0.24569 0.15538 0.04934 0.0
H410 H 0.12385 0.06464 0.03185 0.0
H411 H 0.125 0.25733 0.98627 0.0
H412 H 0.99413 0.26145 0.99566 0.0
H413 H 0.96886 0.22059 0.01791 0.0
H414 H 0.07396 0.17459 0.03083 0.0
C415 C 0.19664 0.11922 0.03506 0.0
C416 C 0.22606 0.15838 0.02329 0.0
C417 C 0.16586 0.18752 0.016 0.0
C418 C 0.18229 0.21344 1.00337 0.0
C419 C 0.11809 0.23911 0.99612 0.0
C420 C 0.04207 0.24138 1.00134 0.0
C421 C 0.02766 0.21816 0.01384 0.0
C422 C 0.0884 0.19145 0.02111 0.0
H423 H 0.2521 0.13112 0.97094 0.0
C424 C 0.26472 0.19555 0.97215 0.0
H425 H 0.29025 0.30894 0.9863 0.0
H426 H 0.35459 0.10566 0.03437 0.0
H427 H 0.49104 0.10779 0.02568 0.0
H428 H 0.52523 0.16002 1.00464 0.0
H429 H 0.42233 0.20923 0.99197 0.0
C430 C 0.2792 0.24505 0.98531 0.0
C431 C 0.26059 0.21228 0.99811 0.0
C432 C 0.32284 0.18565 1.00565 0.0
C433 C 0.30482 0.15774 0.01813 0.0
C434 C 0.36608 0.12886 0.02507 0.0
C435 C 0.44454 0.1297 0.02018 0.0
C436 C 0.46371 0.15899 1.00831 0.0
C437 C 0.40389 0.18678 1.0011 0.0
H438 H 0.28711 0.19089 0.29794 0.0
C439 C 0.20763 0.16066 0.29362 0.0
H440 H 0.07061 0.10606 0.29814 0.0
H441 H 0.24875 1.02081 0.35332 0.0
H442 H 0.23601 0.90361 0.3353 0.0
H443 H 0.20019 0.89615 0.30934 0.0
H444 H 0.17897 1.007 0.30126 0.0
C445 C 0.15009 0.13611 0.30245 0.0
C446 C 0.18836 0.14758 0.31826 0.0
C447 C 0.19945 0.08208 0.32286 0.0
C448 C 0.21679 0.08499 0.33784 0.0
C449 C 0.23135 1.02012 0.34208 0.0
C450 C 0.22511 0.95282 0.33185 0.0
C451 C 0.20517 0.94871 0.31723 0.0
C452 C 0.19278 1.01255 0.31273 0.0
H453 H 0.09625 0.03837 0.35884 0.0
C454 C 0.15756 0.09054 0.36746 0.0
H455 H 0.28923 0.20479 0.37216 0.0
H456 H 0.18034 0.287 0.31335 0.0
H457 H 0.19375 0.40511 0.33129 0.0
H458 H 0.21899 0.40876 0.35708 0.0
H459 H 0.23103 0.29471 0.36514 0.0
C460 C 0.2276 0.15185 0.36376 0.0
C461 C 0.21973 0.15217 0.34821 0.0
C462 C 0.21396 0.21999 0.34367 0.0
C463 C 0.19842 0.21763 0.32872 0.0
C464 C 0.19133 0.28547 0.32452 0.0
C465 C 0.19912 0.35367 0.3347 0.0
C466 C 0.21346 0.35576 0.34923 0.0
C467 C 0.22052 0.28985 0.35371 0.0
H468 H 0.17037 0.98355 0.65372 0.0
C469 C 0.17398 0.03942 0.65085 0.0
H470 H 0.17899 0.15734 0.65844 0.0
H471 H 0.99847 0.95848 0.70583 0.0
H472 H 0.86151 0.85417 0.68522 0.0
H473 H 0.86244 0.86112 0.66029 0.0
H474 H 1.00082 0.97079 0.65575 0.0
C475 C 0.17378 0.10033 0.66094 0.0
C476 C 0.17132 0.09474 0.67605 0.0
C477 C 0.08774 0.03182 0.67855 0.0
C478 C 0.08459 0.03054 0.69303 0.0
C479 C 1.00258 0.96452 0.69513 0.0
C480 C 0.92382 0.90393 0.6834 0.0
C481 C 0.92455 0.90763 0.66935 0.0
C482 C 1.00509 0.97073 0.6669 0.0
H483 H 0.03205 0.12635 0.71466 0.0
C484 C 0.08121 0.12157 0.72339 0.0
H485 H 0.2051 0.10292 0.72877 0.0
H486 H 0.34521 0.22024 0.67534 0.0
H487 H 0.47969 0.32651 0.69602 0.0
H488 H 0.47033 0.32846 0.72099 0.0
H489 H 0.32693 0.22374 0.72547 0.0
C490 C 0.15101 0.10326 0.72019 0.0
C491 C 0.16216 0.09483 0.70508 0.0
C492 C 0.24669 0.15622 0.70257 0.0
C493 C 0.25137 0.15597 0.68811 0.0
C494 C 0.33699 0.21816 0.68604 0.0
C495 C 0.4149 0.27944 0.69782 0.0
C496 C 0.40968 0.28047 0.71188 0.0
C497 C 0.3268 0.21988 0.7143 0.0
loop_
_geom_bond_atom_site_label_1
_geom_bond_atom_site_label_2
_geom_bond_distance
_geom_bond_site_symmetry_2
_ccdc_geom_bond_type
Cu0 N1 1.999 . S
Cu0 O6 1.974 . S
Cu0 N11 1.985 . S
Cu0 O20 1.959 . S
N1 Cu0 1.999 . S
N1 C3 1.263 . S
N1 C5 1.389 . S
N2 C3 1.358 . S
N2 C4 1.400 . S
C3 N1 1.263 . S
C3 N2 1.358 . S
C3 H9 0.930 . S
C4 N2 1.400 . S
C4 C5 1.351 . S
C4 H21 0.930 . S
C5 N1 1.389 . S
C5 C4 1.351 . S
C5 H10 0.930 . S
O6 Cu0 1.974 . S
O6 C16 1.282 . S
C7 O8 1.261 . S
C7 O20 1.251 . S
O8 C7 1.261 . S
H9 C3 0.930 . S
H10 C5 0.930 . S
N11 Cu0 1.985 . S
N11 C13 1.335 . S
N11 C14 1.390 . S
N12 C13 1.345 . S
N12 C15 1.336 . S
C13 N11 1.335 . S
C13 N12 1.345 . S
C13 H18 0.930 . S
C14 N11 1.390 . S
C14 C15 1.346 . S
C14 H19 0.930 . S
C15 N12 1.336 . S
C15 C14 1.346 . S
C15 H22 0.929 . S
C16 O6 1.282 . S
C16 O17 1.216 . S
O17 C16 1.216 . S
H18 C13 0.930 . S
H19 C14 0.930 . S
O20 Cu0 1.959 . S
O20 C7 1.251 . S
H21 C4 0.930 . S
H22 C15 0.929 . S
Cu23 N24 1.999 . S
Cu23 O29 1.974 . S
Cu23 N34 1.985 . S
Cu23 O43 1.959 . S
N24 Cu23 1.999 . S
N24 C26 1.263 . S
N24 C28 1.389 . S
N25 C26 1.358 . S
N25 C27 1.400 . S
C26 N24 1.263 . S
C26 N25 1.358 . S
C26 H32 0.930 . S
C27 N25 1.400 . S
C27 C28 1.351 . S
C27 H44 0.930 . S
C28 N24 1.389 . S
C28 C27 1.351 . S
C28 H33 0.930 . S
O29 Cu23 1.974 . S
O29 C39 1.282 1_545 S
C30 O31 1.261 1_545 S
C30 O43 1.251 1_655 S
O31 C30 1.261 1_565 S
H32 C26 0.930 . S
H33 C28 0.930 . S
N34 Cu23 1.985 . S
N34 C36 1.335 . S
N34 C37 1.390 . S
N35 C36 1.345 . S
N35 C38 1.336 1_545 S
C36 N34 1.335 . S
C36 N35 1.345 . S
C36 H41 0.930 . S
C37 N34 1.390 . S
C37 C38 1.346 1_545 S
C37 H42 0.930 1_545 S
C38 N35 1.336 1_565 S
C38 C37 1.346 1_565 S
C38 H45 0.929 . S
C39 O29 1.282 1_565 S
C39 O40 1.216 . S
O40 C39 1.216 . S
H41 C36 0.930 . S
H42 C37 0.930 1_565 S
O43 Cu23 1.959 . S
O43 C30 1.251 1_455 S
H44 C27 0.930 . S
H45 C38 0.929 . S
Cu46 N47 1.999 1_455 S
Cu46 O52 1.974 . S
Cu46 N57 1.985 . S
Cu46 O66 1.959 . S
N47 Cu46 1.999 1_655 S
N47 C49 1.263 1_545 S
N47 C51 1.389 1_545 S
N48 C49 1.358 . S
N48 C50 1.400 . S
C49 N47 1.263 1_565 S
C49 N48 1.358 . S
C49 H55 0.930 1_565 S
C50 N48 1.400 . S
C50 C51 1.351 . S
C50 H67 0.930 . S
C51 N47 1.389 1_565 S
C51 C50 1.351 . S
C51 H56 0.930 . S
O52 Cu46 1.974 . S
O52 C62 1.282 1_455 S
C53 O54 1.261 . S
C53 O66 1.251 1_655 S
O54 C53 1.261 . S
H55 C49 0.930 1_545 S
H56 C51 0.930 . S
N57 Cu46 1.985 . S
N57 C59 1.335 . S
N57 C60 1.390 . S
N58 C59 1.345 . S
N58 C61 1.336 . S
C59 N57 1.335 . S
C59 N58 1.345 . S
C59 H64 0.930 . S
C60 N57 1.390 . S
C60 C61 1.346 . S
C60 H65 0.930 . S
C61 N58 1.336 . S
C61 C60 1.346 . S
C61 H68 0.929 . S
C62 O52 1.282 1_655 S
C62 O63 1.216 . S
O63 C62 1.216 . S
H64 C59 0.930 . S
H65 C60 0.930 . S
O66 Cu46 1.959 . S
O66 C53 1.251 1_455 S
H67 C50 0.930 . S
H68 C61 0.929 . S
Cu69 N70 1.999 . S
Cu69 O75 1.974 1_455 S
Cu69 N80 1.985 1_455 S
Cu69 O89 1.959 . S
N70 Cu69 1.999 . S
N70 C72 1.263 1_455 S
N70 C74 1.389 . S
N71 C72 1.358 1_455 S
N71 C73 1.400 . S
C72 N70 1.263 1_655 S
C72 N71 1.358 1_655 S
C72 H78 0.930 . S
C73 N71 1.400 . S
C73 C74 1.351 . S
C73 H90 0.930 . S
C74 N70 1.389 . S
C74 C73 1.351 . S
C74 H79 0.930 . S
O75 Cu69 1.974 1_655 S
O75 C85 1.282 1_545 S
C76 O77 1.261 . S
C76 O89 1.251 1_565 S
O77 C76 1.261 . S
H78 C72 0.930 . S
H79 C74 0.930 . S
N80 Cu69 1.985 1_655 S
N80 C82 1.335 1_655 S
N80 C83 1.390 1_545 S
N81 C82 1.345 . S
N81 C84 1.336 1_445 S
C82 N80 1.335 1_455 S
C82 N81 1.345 . S
C82 H87 0.930 . S
C83 N80 1.390 1_565 S
C83 C84 1.346 . S
C83 H88 0.930 . S
C84 N81 1.336 1_665 S
C84 C83 1.346 . S
C84 H91 0.929 . S
C85 O75 1.282 1_565 S
C85 O86 1.216 . S
O86 C85 1.216 . S
H87 C82 0.930 . S
H88 C83 0.930 . S
O89 Cu69 1.959 . S
O89 C76 1.251 1_545 S
H90 C73 0.930 . S
H91 C84 0.929 . S
Cu92 N93 1.999 . S
Cu92 O98 1.974 . S
Cu92 N103 1.985 1_455 S
Cu92 O112 1.959 . S
N93 Cu92 1.999 . S
N93 C95 1.263 . S
N93 C97 1.389 . S
N94 C95 1.358 . S
N94 C96 1.400 . S
C95 N93 1.263 . S
C95 N94 1.358 . S
C95 H101 0.930 . S
C96 N94 1.400 . S
C96 C97 1.351 . S
C96 H113 0.930 . S
C97 N93 1.389 . S
C97 C96 1.351 . S
C97 H102 0.930 . S
O98 Cu92 1.974 . S
O98 C108 1.282 . S
C99 O100 1.261 . S
C99 O112 1.251 . S
O100 C99 1.261 . S
H101 C95 0.930 . S
H102 C97 0.930 . S
N103 Cu92 1.985 1_655 S
N103 C105 1.335 . S
N103 C106 1.390 . S
N104 C105 1.345 1_565 S
N104 C107 1.336 . S
C105 N103 1.335 . S
C105 N104 1.345 1_545 S
C105 H110 0.930 . S
C106 N103 1.390 . S
C106 C107 1.346 1_545 S
C106 H111 0.930 . S
C107 N104 1.336 . S
C107 C106 1.346 1_565 S
C107 H114 0.929 . S
C108 O98 1.282 . S
C108 O109 1.216 1_455 S
O109 C108 1.216 1_655 S
H110 C105 0.930 . S
H111 C106 0.930 . S
O112 Cu92 1.959 . S
O112 C99 1.251 . S
H113 C96 0.930 . S
H114 C107 0.929 . S
Cu115 N116 1.999 . S
Cu115 O121 1.974 . S
Cu115 N126 1.985 . S
Cu115 O135 1.959 . S
N116 Cu115 1.999 . S
N116 C118 1.263 . S
N116 C120 1.389 . S
N117 C118 1.358 . S
N117 C119 1.400 . S
C118 N116 1.263 . S
C118 N117 1.358 . S
C118 H124 0.930 . S
C119 N117 1.400 . S
C119 C120 1.351 . S
C119 H136 0.930 . S
C120 N116 1.389 . S
C120 C119 1.351 . S
C120 H125 0.930 . S
O121 Cu115 1.974 . S
O121 C131 1.282 . S
C122 O123 1.261 . S
C122 O135 1.251 . S
O123 C122 1.261 . S
H124 C118 0.930 . S
H125 C120 0.930 . S
N126 Cu115 1.985 . S
N126 C128 1.335 . S
N126 C129 1.390 1_545 S
N127 C128 1.345 1_565 S
N127 C130 1.336 . S
C128 N126 1.335 . S
C128 N127 1.345 1_545 S
C128 H133 0.930 . S
C129 N126 1.390 1_565 S
C129 C130 1.346 . S
C129 H134 0.930 1_565 S
C130 N127 1.336 . S
C130 C129 1.346 . S
C130 H137 0.929 . S
C131 O121 1.282 . S
C131 O132 1.216 . S
O132 C131 1.216 . S
H133 C128 0.930 . S
H134 C129 0.930 1_545 S
O135 Cu115 1.959 . S
O135 C122 1.251 . S
H136 C119 0.930 . S
H137 C130 0.929 . S
H138 C139 0.951 . S
C139 H138 0.951 . S
C139 C145 1.265 . S
H140 C145 0.950 . S
H141 C149 0.949 . S
H142 C150 0.950 . S
H143 C151 0.951 . S
H144 C152 0.951 . S
C145 C139 1.265 . S
C145 H140 0.950 . S
C145 C146 1.478 . S
C146 C145 1.478 . S
C146 C147 1.397 . S
C146 C163 1.394 . S
C147 C146 1.397 . S
C147 C148 1.438 . S
C147 C152 1.429 . S
C148 C147 1.438 . S
C148 C149 1.428 . S
C148 C161 1.394 . S
C149 H141 0.949 . S
C149 C148 1.428 . S
C149 C150 1.345 . S
C150 H142 0.950 . S
C150 C149 1.345 . S
C150 C151 1.424 . S
C151 H143 0.951 . S
C151 C150 1.424 . S
C151 C152 1.347 . S
C152 H144 0.951 . S
C152 C147 1.429 . S
C152 C151 1.347 . S
H153 C154 0.951 . S
C154 H153 0.951 . S
C154 C160 1.265 . S
H155 C160 0.950 . S
H156 C164 0.949 . S
H157 C165 0.950 . S
H158 C166 0.951 . S
H159 C167 0.951 . S
C160 C154 1.265 . S
C160 H155 0.950 . S
C160 C161 1.478 . S
C161 C148 1.394 . S
C161 C160 1.478 . S
C161 C162 1.397 . S
C162 C161 1.397 . S
C162 C163 1.438 . S
C162 C167 1.429 . S
C163 C146 1.394 . S
C163 C162 1.438 . S
C163 C164 1.428 . S
C164 H156 0.949 . S
C164 C163 1.428 . S
C164 C165 1.345 . S
C165 H157 0.950 . S
C165 C164 1.345 . S
C165 C166 1.424 . S
C166 H158 0.951 . S
C166 C165 1.424 . S
C166 C167 1.347 . S
C167 H159 0.951 . S
C167 C162 1.429 . S
C167 C166 1.347 . S
H168 C169 0.951 . S
C169 H168 0.951 . S
C169 C175 1.269 . S
H170 C175 0.948 1_565 S
H171 C179 0.949 . S
H172 C180 0.950 . S
H173 C181 0.951 . S
H174 C182 0.951 . S
C175 C169 1.269 . S
C175 H170 0.948 1_545 S
C175 C176 1.476 . S
C176 C175 1.476 . S
C176 C177 1.397 1_545 S
C176 C193 1.394 . S
C177 C176 1.397 1_565 S
C177 C178 1.438 . S
C177 C182 1.429 . S
C178 C177 1.438 . S
C178 C179 1.428 . S
C178 C191 1.394 1_565 S
C179 H171 0.949 . S
C179 C178 1.428 . S
C179 C180 1.345 . S
C180 H172 0.950 . S
C180 C179 1.345 . S
C180 C181 1.424 . S
C181 H173 0.951 . S
C181 C180 1.424 . S
C181 C182 1.347 . S
C182 H174 0.951 . S
C182 C177 1.429 . S
C182 C181 1.347 . S
H183 C184 0.951 . S
C184 H183 0.951 . S
C184 C190 1.265 . S
H185 C190 0.950 . S
H186 C194 0.949 . S
H187 C195 0.950 . S
H188 C196 0.951 . S
H189 C197 0.951 . S
C190 C184 1.265 . S
C190 H185 0.950 . S
C190 C191 1.478 . S
C191 C178 1.394 1_545 S
C191 C190 1.478 . S
C191 C192 1.397 . S
C192 C191 1.397 . S
C192 C193 1.438 . S
C192 C197 1.429 . S
C193 C176 1.394 . S
C193 C192 1.438 . S
C193 C194 1.428 . S
C194 H186 0.949 . S
C194 C193 1.428 . S
C194 C195 1.345 . S
C195 H187 0.950 . S
C195 C194 1.345 . S
C195 C196 1.424 . S
C196 H188 0.951 . S
C196 C195 1.424 . S
C196 C197 1.347 . S
C197 H189 0.951 . S
C197 C192 1.429 . S
C197 C196 1.347 . S
H198 C199 0.951 . S
C199 H198 0.951 . S
C199 C205 1.265 . S
H200 C205 0.950 . S
H201 C209 0.949 . S
H202 C210 0.950 . S
H203 C211 0.951 . S
H204 C212 0.951 . S
C205 C199 1.265 . S
C205 H200 0.950 . S
C205 C206 1.478 . S
C206 C205 1.478 . S
C206 C207 1.397 . S
C206 C223 1.394 . S
C207 C206 1.397 . S
C207 C208 1.438 . S
C207 C212 1.429 . S
C208 C207 1.438 . S
C208 C209 1.428 . S
C208 C221 1.394 . S
C209 H201 0.949 . S
C209 C208 1.428 . S
C209 C210 1.345 . S
C210 H202 0.950 . S
C210 C209 1.345 . S
C210 C211 1.424 . S
C211 H203 0.951 . S
C211 C210 1.424 . S
C211 C212 1.347 . S
C212 H204 0.951 . S
C212 C207 1.429 . S
C212 C211 1.347 . S
H213 C214 0.951 . S
C214 H213 0.951 . S
C214 C220 1.265 . S
H215 C220 0.950 . S
H216 C224 0.949 . S
H217 C225 0.950 . S
H218 C226 0.951 . S
H219 C227 0.951 . S
C220 C214 1.265 . S
C220 H215 0.950 . S
C220 C221 1.478 . S
C221 C208 1.394 . S
C221 C220 1.478 . S
C221 C222 1.397 . S
C222 C221 1.397 . S
C222 C223 1.438 . S
C222 C227 1.429 . S
C223 C206 1.394 . S
C223 C222 1.438 . S
C223 C224 1.428 . S
C224 H216 0.949 . S
C224 C223 1.428 . S
C224 C225 1.345 . S
C225 H217 0.950 . S
C225 C224 1.345 . S
C225 C226 1.424 . S
C226 H218 0.951 . S
C226 C225 1.424 . S
C226 C227 1.347 . S
C227 H219 0.951 . S
C227 C222 1.429 . S
C227 C226 1.347 . S
H228 C229 0.951 . S
C229 H228 0.951 . S
C229 C235 1.265 . S
H230 C235 0.950 . S
H231 C239 0.949 . S
H232 C240 0.950 . S
H233 C241 0.951 . S
H234 C242 0.951 . S
C235 C229 1.265 . S
C235 H230 0.950 . S
C235 C236 1.478 . S
C236 C235 1.478 . S
C236 C237 1.397 1_565 S
C236 C253 1.394 . S
C237 C236 1.397 1_545 S
C237 C238 1.438 . S
C237 C242 1.429 . S
C238 C237 1.438 . S
C238 C239 1.428 . S
C238 C251 1.394 1_545 S
C239 H231 0.949 . S
C239 C238 1.428 . S
C239 C240 1.345 . S
C240 H232 0.950 . S
C240 C239 1.345 . S
C240 C241 1.424 . S
C241 H233 0.951 . S
C241 C240 1.424 . S
C241 C242 1.347 . S
C242 H234 0.951 . S
C242 C237 1.429 . S
C242 C241 1.347 . S
H243 C244 0.951 . S
C244 H243 0.951 . S
C244 C250 1.265 . S
H245 C250 0.950 . S
H246 C254 0.949 . S
H247 C255 0.950 . S
H248 C256 0.951 . S
H249 C257 0.951 . S
C250 C244 1.265 . S
C250 H245 0.950 . S
C250 C251 1.478 . S
C251 C238 1.394 1_565 S
C251 C250 1.478 . S
C251 C252 1.397 . S
C252 C251 1.397 . S
C252 C253 1.438 . S
C252 C257 1.429 . S
C253 C236 1.394 . S
C253 C252 1.438 . S
C253 C254 1.428 . S
C254 H246 0.949 . S
C254 C253 1.428 . S
C254 C255 1.345 . S
C255 H247 0.950 . S
C255 C254 1.345 . S
C255 C256 1.424 . S
C256 H248 0.951 . S
C256 C255 1.424 . S
C256 C257 1.347 . S
C257 H249 0.951 . S
C257 C252 1.429 . S
C257 C256 1.347 . S
H258 C259 0.951 . S
C259 H258 0.951 . S
C259 C265 1.265 . S
H260 C265 0.950 . S
H261 C269 0.949 . S
H262 C270 0.950 . S
H263 C271 0.951 . S
H264 C272 0.951 . S
C265 C259 1.265 . S
C265 H260 0.950 . S
C265 C266 1.478 . S
C266 C265 1.478 . S
C266 C267 1.397 . S
C266 C283 1.394 . S
C267 C266 1.397 . S
C267 C268 1.438 . S
C267 C272 1.429 . S
C268 C267 1.438 . S
C268 C269 1.428 . S
C268 C281 1.394 . S
C269 H261 0.949 . S
C269 C268 1.428 . S
C269 C270 1.345 . S
C270 H262 0.950 . S
C270 C269 1.345 . S
C270 C271 1.424 . S
C271 H263 0.951 . S
C271 C270 1.424 . S
C271 C272 1.347 . S
C272 H264 0.951 . S
C272 C267 1.429 . S
C272 C271 1.347 . S
H273 C274 0.951 . S
C274 H273 0.951 . S
C274 C280 1.265 . S
H275 C280 0.950 . S
H276 C284 0.949 . S
H277 C285 0.950 . S
H278 C286 0.951 . S
H279 C287 0.951 . S
C280 C274 1.265 . S
C280 H275 0.950 . S
C280 C281 1.478 . S
C281 C268 1.394 . S
C281 C280 1.478 . S
C281 C282 1.397 . S
C282 C281 1.397 . S
C282 C283 1.438 . S
C282 C287 1.429 . S
C283 C266 1.394 . S
C283 C282 1.438 . S
C283 C284 1.428 . S
C284 H276 0.949 . S
C284 C283 1.428 . S
C284 C285 1.345 . S
C285 H277 0.950 . S
C285 C284 1.345 . S
C285 C286 1.424 . S
C286 H278 0.951 . S
C286 C285 1.424 . S
C286 C287 1.347 . S
C287 H279 0.951 . S
C287 C282 1.429 . S
C287 C286 1.347 . S
H288 C289 0.951 . S
C289 H288 0.951 . S
C289 C295 1.265 . S
H290 C295 0.950 . S
H291 C299 0.949 . S
H292 C300 0.950 . S
H293 C301 0.951 . S
H294 C302 0.951 . S
C295 C289 1.265 . S
C295 H290 0.950 . S
C295 C296 1.478 . S
C296 C295 1.478 . S
C296 C297 1.397 . S
C296 C313 1.394 . S
C297 C296 1.397 . S
C297 C298 1.438 . S
C297 C302 1.429 . S
C298 C297 1.438 . S
C298 C299 1.428 . S
C298 C311 1.394 . S
C299 H291 0.949 . S
C299 C298 1.428 . S
C299 C300 1.345 . S
C300 H292 0.950 . S
C300 C299 1.345 . S
C300 C301 1.424 . S
C301 H293 0.951 . S
C301 C300 1.424 . S
C301 C302 1.347 . S
C302 H294 0.951 . S
C302 C297 1.429 . S
C302 C301 1.347 . S
H303 C304 0.951 . S
C304 H303 0.951 . S
C304 C310 1.265 . S
H305 C310 0.950 . S
H306 C314 0.949 . S
H307 C315 0.950 . S
H308 C316 0.951 . S
H309 C317 0.951 . S
C310 C304 1.265 . S
C310 H305 0.950 . S
C310 C311 1.478 . S
C311 C298 1.394 . S
C311 C310 1.478 . S
C311 C312 1.397 . S
C312 C311 1.397 . S
C312 C313 1.438 . S
C312 C317 1.429 . S
C313 C296 1.394 . S
C313 C312 1.438 . S
C313 C314 1.428 . S
C314 H306 0.949 . S
C314 C313 1.428 . S
C314 C315 1.345 . S
C315 H307 0.950 . S
C315 C314 1.345 . S
C315 C316 1.424 . S
C316 H308 0.951 . S
C316 C315 1.424 . S
C316 C317 1.347 . S
C317 H309 0.951 . S
C317 C312 1.429 . S
C317 C316 1.347 . S
H318 C319 0.951 . S
C319 H318 0.951 . S
C319 C325 1.265 . S
H320 C325 0.950 . S
H321 C329 0.949 . S
H322 C330 0.950 . S
H323 C331 0.951 . S
H324 C332 0.951 . S
C325 C319 1.265 . S
C325 H320 0.950 . S
C325 C326 1.478 . S
C326 C325 1.478 . S
C326 C327 1.397 . S
C326 C343 1.394 . S
C327 C326 1.397 . S
C327 C328 1.438 . S
C327 C332 1.429 . S
C328 C327 1.438 . S
C328 C329 1.428 . S
C328 C341 1.394 . S
C329 H321 0.949 . S
C329 C328 1.428 . S
C329 C330 1.345 1_545 S
C330 H322 0.950 . S
C330 C329 1.345 1_565 S
C330 C331 1.424 . S
C331 H323 0.951 . S
C331 C330 1.424 . S
C331 C332 1.347 1_565 S
C332 H324 0.951 . S
C332 C327 1.429 . S
C332 C331 1.347 1_545 S
H333 C334 0.951 . S
C334 H333 0.951 . S
C334 C340 1.265 . S
H335 C340 0.950 . S
H336 C344 0.949 . S
H337 C345 0.950 . S
H338 C346 0.951 . S
H339 C347 0.951 . S
C340 C334 1.265 . S
C340 H335 0.950 . S
C340 C341 1.478 . S
C341 C328 1.394 . S
C341 C340 1.478 . S
C341 C342 1.397 . S
C342 C341 1.397 . S
C342 C343 1.438 . S
C342 C347 1.429 . S
C343 C326 1.394 . S
C343 C342 1.438 . S
C343 C344 1.428 . S
C344 H336 0.949 . S
C344 C343 1.428 . S
C344 C345 1.345 . S
C345 H337 0.950 . S
C345 C344 1.345 . S
C345 C346 1.424 . S
C346 H338 0.951 . S
C346 C345 1.424 . S
C346 C347 1.347 . S
C347 H339 0.951 . S
C347 C342 1.429 . S
C347 C346 1.347 . S
H348 C349 0.951 1_655 S
C349 H348 0.951 1_455 S
C349 C355 1.265 . S
H350 C355 0.950 . S
H351 C359 0.949 . S
H352 C360 0.950 . S
H353 C361 0.951 . S
H354 C362 0.951 . S
C355 C349 1.265 . S
C355 H350 0.950 . S
C355 C356 1.478 . S
C356 C355 1.478 . S
C356 C357 1.397 1_545 S
C356 C373 1.394 . S
C357 C356 1.397 1_565 S
C357 C358 1.438 . S
C357 C362 1.429 . S
C358 C357 1.438 . S
C358 C359 1.428 . S
C358 C371 1.394 1_565 S
C359 H351 0.949 . S
C359 C358 1.428 . S
C359 C360 1.345 . S
C360 H352 0.950 . S
C360 C359 1.345 . S
C360 C361 1.424 . S
C361 H353 0.951 . S
C361 C360 1.424 . S
C361 C362 1.347 . S
C362 H354 0.951 . S
C362 C357 1.429 . S
C362 C361 1.347 . S
H363 C364 0.951 . S
C364 H363 0.951 . S
C364 C370 1.265 . S
H365 C370 0.950 1_655 S
H366 C374 0.949 . S
H367 C375 0.950 . S
H368 C376 0.951 . S
H369 C377 0.951 . S
C370 C364 1.265 . S
C370 H365 0.950 1_455 S
C370 C371 1.478 . S
C371 C358 1.394 1_545 S
C371 C370 1.478 . S
C371 C372 1.397 . S
C372 C371 1.397 . S
C372 C373 1.438 . S
C372 C377 1.429 . S
C373 C356 1.394 . S
C373 C372 1.438 . S
C373 C374 1.428 . S
C374 H366 0.949 . S
C374 C373 1.428 . S
C374 C375 1.345 . S
C375 H367 0.950 . S
C375 C374 1.345 . S
C375 C376 1.424 . S
C376 H368 0.951 . S
C376 C375 1.424 . S
C376 C377 1.347 . S
C377 H369 0.951 . S
C377 C372 1.429 . S
C377 C376 1.347 . S
H378 C379 0.951 . S
C379 H378 0.951 . S
C379 C385 1.265 1_655 S
H380 C385 0.950 . S
H381 C389 0.949 . S
H382 C390 0.950 . S
H383 C391 0.951 . S
H384 C392 0.951 . S
C385 C379 1.265 1_455 S
C385 H380 0.950 . S
C385 C386 1.478 . S
C386 C385 1.478 . S
C386 C387 1.397 . S
C386 C403 1.394 1_455 S
C387 C386 1.397 . S
C387 C388 1.438 . S
C387 C392 1.429 . S
C388 C387 1.438 . S
C388 C389 1.428 . S
C388 C401 1.394 1_455 S
C389 H381 0.949 . S
C389 C388 1.428 . S
C389 C390 1.345 . S
C390 H382 0.950 . S
C390 C389 1.345 . S
C390 C391 1.424 . S
C391 H383 0.951 . S
C391 C390 1.424 . S
C391 C392 1.347 . S
C392 H384 0.951 . S
C392 C387 1.429 . S
C392 C391 1.347 . S
H393 C394 0.951 . S
C394 H393 0.951 . S
C394 C400 1.265 1_455 S
H395 C400 0.950 . S
H396 C404 0.949 . S
H397 C405 0.950 . S
H398 C406 0.951 1_565 S
H399 C407 0.951 . S
C400 C394 1.265 1_655 S
C400 H395 0.950 . S
C400 C401 1.478 . S
C401 C388 1.394 1_655 S
C401 C400 1.478 . S
C401 C402 1.397 . S
C402 C401 1.397 . S
C402 C403 1.438 . S
C402 C407 1.429 . S
C403 C386 1.394 1_655 S
C403 C402 1.438 . S
C403 C404 1.428 . S
C404 H396 0.949 . S
C404 C403 1.428 . S
C404 C405 1.345 1_545 S
C405 H397 0.950 . S
C405 C404 1.345 1_565 S
C405 C406 1.424 1_565 S
C406 H398 0.951 1_545 S
C406 C405 1.424 1_545 S
C406 C407 1.347 . S
C407 H399 0.951 . S
C407 C402 1.429 . S
C407 C406 1.347 . S
H408 C409 0.951 . S
C409 H408 0.951 . S
C409 C415 1.265 . S
H410 C415 0.950 . S
H411 C419 0.949 . S
H412 C420 0.968 . S
H413 C421 0.951 . S
H414 C422 0.951 . S
C415 C409 1.265 . S
C415 H410 0.950 . S
C415 C416 1.478 . S
C416 C415 1.478 . S
C416 C417 1.397 . S
C416 C433 1.394 . S
C417 C416 1.397 . S
C417 C418 1.438 1_554 S
C417 C422 1.429 . S
C418 C417 1.438 1_556 S
C418 C419 1.428 . S
C418 C431 1.394 . S
C419 H411 0.949 . S
C419 C418 1.428 . S
C419 C420 1.345 1_556 S
C420 H412 0.968 . S
C420 C419 1.345 1_554 S
C420 C421 1.424 . S
C421 H413 0.951 . S
C421 C420 1.424 . S
C421 C422 1.347 . S
C422 H414 0.951 . S
C422 C417 1.429 . S
C422 C421 1.347 . S
H423 C424 0.951 . S
C424 H423 0.951 . S
C424 C430 1.265 . S
H425 C430 0.950 . S
H426 C434 0.949 . S
H427 C435 0.950 1_565 S
H428 C436 0.951 1_565 S
H429 C437 0.951 . S
C430 C424 1.265 . S
C430 H425 0.950 . S
C430 C431 1.478 . S
C431 C418 1.394 . S
C431 C430 1.478 . S
C431 C432 1.397 . S
C432 C431 1.397 . S
C432 C433 1.438 1_556 S
C432 C437 1.429 . S
C433 C416 1.394 . S
C433 C432 1.438 1_554 S
C433 C434 1.428 . S
C434 H426 0.949 . S
C434 C433 1.428 . S
C434 C435 1.345 . S
C435 H427 0.950 1_545 S
C435 C434 1.345 . S
C435 C436 1.424 1_554 S
C436 H428 0.951 1_545 S
C436 C435 1.424 1_556 S
C436 C437 1.347 . S
C437 H429 0.951 . S
C437 C432 1.429 . S
C437 C436 1.347 . S
H438 C439 0.951 . S
C439 H438 0.951 . S
C439 C445 1.265 . S
H440 C445 0.950 . S
H441 C449 0.949 . S
H442 C450 0.950 . S
H443 C451 0.951 . S
H444 C452 0.951 . S
C445 C439 1.265 . S
C445 H440 0.950 . S
C445 C446 1.478 . S
C446 C445 1.478 . S
C446 C447 1.397 . S
C446 C463 1.394 . S
C447 C446 1.397 . S
C447 C448 1.438 . S
C447 C452 1.429 1_545 S
C448 C447 1.438 . S
C448 C449 1.428 1_545 S
C448 C461 1.394 . S
C449 H441 0.949 . S
C449 C448 1.428 1_565 S
C449 C450 1.345 1_455 S
C450 H442 0.950 . S
C450 C449 1.345 1_655 S
C450 C451 1.424 . S
C451 H443 0.951 . S
C451 C450 1.424 . S
C451 C452 1.347 1_655 S
C452 H444 0.951 . S
C452 C447 1.429 1_565 S
C452 C451 1.347 1_455 S
H453 C454 0.951 . S
C454 H453 0.951 . S
C454 C460 1.265 . S
H455 C460 0.950 . S
H456 C464 0.949 . S
H457 C465 0.950 . S
H458 C466 0.951 . S
H459 C467 0.951 . S
C460 C454 1.265 . S
C460 H455 0.950 . S
C460 C461 1.478 . S
C461 C448 1.394 . S
C461 C460 1.478 . S
C461 C462 1.397 . S
C462 C461 1.397 . S
C462 C463 1.438 . S
C462 C467 1.429 . S
C463 C446 1.394 . S
C463 C462 1.438 . S
C463 C464 1.428 . S
C464 H456 0.949 . S
C464 C463 1.428 . S
C464 C465 1.345 . S
C465 H457 0.950 . S
C465 C464 1.345 . S
C465 C466 1.424 . S
C466 H458 0.951 . S
C466 C465 1.424 . S
C466 C467 1.347 . S
C467 H459 0.951 . S
C467 C462 1.429 . S
C467 C466 1.347 . S
H468 C469 0.951 . S
C469 H468 0.951 . S
C469 C475 1.265 1_455 S
H470 C475 0.950 . S
H471 C479 0.949 . S
H472 C480 0.950 . S
H473 C481 0.951 . S
H474 C482 0.951 . S
C475 C469 1.265 1_655 S
C475 H470 0.950 . S
C475 C476 1.478 . S
C476 C475 1.478 . S
C476 C477 1.397 . S
C476 C493 1.394 1_655 S
C477 C476 1.397 . S
C477 C478 1.438 . S
C477 C482 1.429 1_545 S
C478 C477 1.438 . S
C478 C479 1.428 1_545 S
C478 C491 1.394 1_655 S
C479 H471 0.949 . S
C479 C478 1.428 1_565 S
C479 C480 1.345 . S
C480 H472 0.950 . S
C480 C479 1.345 . S
C480 C481 1.424 . S
C481 H473 0.951 . S
C481 C480 1.424 . S
C481 C482 1.347 . S
C482 H474 0.951 . S
C482 C477 1.429 1_565 S
C482 C481 1.347 . S
H483 C484 0.951 . S
C484 H483 0.951 . S
C484 C490 1.265 1_655 S
H485 C490 0.950 . S
H486 C494 0.949 . S
H487 C495 0.950 . S
H488 C496 0.951 . S
H489 C497 0.951 . S
C490 C484 1.265 1_455 S
C490 H485 0.950 . S
C490 C491 1.478 . S
C491 C478 1.394 1_455 S
C491 C490 1.478 . S
C491 C492 1.397 . S
C492 C491 1.397 . S
C492 C493 1.438 . S
C492 C497 1.429 . S
C493 C476 1.394 1_455 S
C493 C492 1.438 . S
C493 C494 1.428 . S
C494 H486 0.949 . S
C494 C493 1.428 . S
C494 C495 1.345 . S
C495 H487 0.950 . S
C495 C494 1.345 . S
C495 C496 1.424 . S
C496 H488 0.951 . S
C496 C495 1.424 . S
C496 C497 1.347 . S
C497 H489 0.951 . S
C497 C492 1.429 . S
C497 C496 1.347 . S
C139 N2 1.472 1_565 S
C154 N12 1.457 . S
C169 C39 1.479 1_545 S
C184 C30 1.484 . S
C199 N48 1.476 . S
C214 N58 1.462 . S
C229 C76 1.471 . S
C244 C85 1.461 . S
C259 N94 1.411 . S
C274 N104 1.426 . S
C289 N117 1.411 . S
C304 N127 1.426 . S
C319 C131 1.457 . S
C334 C16 1.478 . S
C349 N81 1.420 . S
C364 N35 1.418 . S
C379 C62 1.509 . S
C394 C108 1.530 . S
C409 C7 1.516 . S
C424 C99 1.520 . S
C439 C122 1.485 . S
C454 N25 1.401 . S
C469 N71 1.443 . S
C484 C53 1.512 . S
