# Generated by pormake.
# Topology hbo, (4)-cn, num edge types: 1
# Building blocks:
#     Node 0, Type 0, BuildingBlock: QUQFOY_clean_sbu_1, # of connection points: 4
#     Node 1, Type 0, BuildingBlock: QUQFOY_clean_sbu_1, # of connection points: 4
#     Node 2, Type 0, BuildingBlock: QUQFOY_clean_sbu_1, # of connection points: 4
#     Node 3, Type 0, BuildingBlock: QUQFOY_clean_sbu_1, # of connection points: 4
#     Node 4, Type 0, BuildingBlock: QUQFOY_clean_sbu_1, # of connection points: 4
#     Node 5, Type 0, BuildingBlock: QUQFOY_clean_sbu_1, # of connection points: 4
#     Node 6, Type 0, BuildingBlock: QUQFOY_clean_sbu_1, # of connection points: 4
#     Node 7, Type 0, BuildingBlock: QUQFOY_clean_sbu_1, # of connection points: 4
#     Node 8, Type 0, BuildingBlock: QUQFOY_clean_sbu_1, # of connection points: 4
#     Node 9, Type 0, BuildingBlock: QUQFOY_clean_sbu_1, # of connection points: 4
#     Node 10, Type 0, BuildingBlock: QUQFOY_clean_sbu_1, # of connection points: 4
#     Node 11, Type 0, BuildingBlock: QUQFOY_clean_sbu_1, # of connection points: 4
#     Node 12, Type 0, BuildingBlock: QUQFOY_clean_sbu_1, # of connection points: 4
#     Node 13, Type 0, BuildingBlock: QUQFOY_clean_sbu_1, # of connection points: 4
#     Node 14, Type 0, BuildingBlock: QUQFOY_clean_sbu_1, # of connection points: 4
#     Node 15, Type 0, BuildingBlock: QUQFOY_clean_sbu_1, # of connection points: 4
#     Node 16, Type 0, BuildingBlock: QUQFOY_clean_sbu_1, # of connection points: 4
#     Node 17, Type 0, BuildingBlock: QUQFOY_clean_sbu_1, # of connection points: 4
#     Node 18, Type 0, BuildingBlock: QUQFOY_clean_sbu_1, # of connection points: 4
#     Node 19, Type 0, BuildingBlock: QUQFOY_clean_sbu_1, # of connection points: 4
#     Node 20, Type 0, BuildingBlock: QUQFOY_clean_sbu_1, # of connection points: 4
#     Node 21, Type 0, BuildingBlock: QUQFOY_clean_sbu_1, # of connection points: 4
#     Node 22, Type 0, BuildingBlock: QUQFOY_clean_sbu_1, # of connection points: 4
#     Node 23, Type 0, BuildingBlock: QUQFOY_clean_sbu_1, # of connection points: 4
#     Edge 24, Type (0, 0), BuildingBlock: ZUJKAS_clean_linker_0, # of connection points: 2
#     Edge 25, Type (0, 0), BuildingBlock: ZUJKAS_clean_linker_0, # of connection points: 2
#     Edge 26, Type (0, 0), BuildingBlock: ZUJKAS_clean_linker_0, # of connection points: 2
#     Edge 27, Type (0, 0), BuildingBlock: ZUJKAS_clean_linker_0, # of connection points: 2
#     Edge 28, Type (0, 0), BuildingBlock: ZUJKAS_clean_linker_0, # of connection points: 2
#     Edge 29, Type (0, 0), BuildingBlock: ZUJKAS_clean_linker_0, # of connection points: 2
#     Edge 30, Type (0, 0), BuildingBlock: ZUJKAS_clean_linker_0, # of connection points: 2
#     Edge 31, Type (0, 0), BuildingBlock: ZUJKAS_clean_linker_0, # of connection points: 2
#     Edge 32, Type (0, 0), BuildingBlock: ZUJKAS_clean_linker_0, # of connection points: 2
#     Edge 33, Type (0, 0), BuildingBlock: ZUJKAS_clean_linker_0, # of connection points: 2
#     Edge 34, Type (0, 0), BuildingBlock: ZUJKAS_clean_linker_0, # of connection points: 2
#     Edge 35, Type (0, 0), BuildingBlock: ZUJKAS_clean_linker_0, # of connection points: 2
#     Edge 36, Type (0, 0), BuildingBlock: ZUJKAS_clean_linker_0, # of connection points: 2
#     Edge 37, Type (0, 0), BuildingBlock: ZUJKAS_clean_linker_0, # of connection points: 2
#     Edge 38, Type (0, 0), BuildingBlock: ZUJKAS_clean_linker_0, # of connection points: 2
#     Edge 39, Type (0, 0), BuildingBlock: ZUJKAS_clean_linker_0, # of connection points: 2
#     Edge 40, Type (0, 0), BuildingBlock: ZUJKAS_clean_linker_0, # of connection points: 2
#     Edge 41, Type (0, 0), BuildingBlock: ZUJKAS_clean_linker_0, # of connection points: 2
#     Edge 42, Type (0, 0), BuildingBlock: ZUJKAS_clean_linker_0, # of connection points: 2
#     Edge 43, Type (0, 0), BuildingBlock: ZUJKAS_clean_linker_0, # of connection points: 2
#     Edge 44, Type (0, 0), BuildingBlock: ZUJKAS_clean_linker_0, # of connection points: 2
#     Edge 45, Type (0, 0), BuildingBlock: ZUJKAS_clean_linker_0, # of connection points: 2
#     Edge 46, Type (0, 0), BuildingBlock: ZUJKAS_clean_linker_0, # of connection points: 2
#     Edge 47, Type (0, 0), BuildingBlock: ZUJKAS_clean_linker_0, # of connection points: 2
#     Edge 48, Type (0, 0), BuildingBlock: ZUJKAS_clean_linker_0, # of connection points: 2
#     Edge 49, Type (0, 0), BuildingBlock: ZUJKAS_clean_linker_0, # of connection points: 2
#     Edge 50, Type (0, 0), BuildingBlock: ZUJKAS_clean_linker_0, # of connection points: 2
#     Edge 51, Type (0, 0), BuildingBlock: ZUJKAS_clean_linker_0, # of connection points: 2
#     Edge 52, Type (0, 0), BuildingBlock: ZUJKAS_clean_linker_0, # of connection points: 2
#     Edge 53, Type (0, 0), BuildingBlock: ZUJKAS_clean_linker_0, # of connection points: 2
#     Edge 54, Type (0, 0), BuildingBlock: ZUJKAS_clean_linker_0, # of connection points: 2
#     Edge 55, Type (0, 0), BuildingBlock: ZUJKAS_clean_linker_0, # of connection points: 2
#     Edge 56, Type (0, 0), BuildingBlock: ZUJKAS_clean_linker_0, # of connection points: 2
#     Edge 57, Type (0, 0), BuildingBlock: ZUJKAS_clean_linker_0, # of connection points: 2
#     Edge 58, Type (0, 0), BuildingBlock: ZUJKAS_clean_linker_0, # of connection points: 2
#     Edge 59, Type (0, 0), BuildingBlock: ZUJKAS_clean_linker_0, # of connection points: 2
#     Edge 60, Type (0, 0), BuildingBlock: ZUJKAS_clean_linker_0, # of connection points: 2
#     Edge 61, Type (0, 0), BuildingBlock: ZUJKAS_clean_linker_0, # of connection points: 2
#     Edge 62, Type (0, 0), BuildingBlock: ZUJKAS_clean_linker_0, # of connection points: 2
#     Edge 63, Type (0, 0), BuildingBlock: ZUJKAS_clean_linker_0, # of connection points: 2
#     Edge 64, Type (0, 0), BuildingBlock: ZUJKAS_clean_linker_0, # of connection points: 2
#     Edge 65, Type (0, 0), BuildingBlock: ZUJKAS_clean_linker_0, # of connection points: 2
#     Edge 66, Type (0, 0), BuildingBlock: ZUJKAS_clean_linker_0, # of connection points: 2
#     Edge 67, Type (0, 0), BuildingBlock: ZUJKAS_clean_linker_0, # of connection points: 2
#     Edge 68, Type (0, 0), BuildingBlock: ZUJKAS_clean_linker_0, # of connection points: 2
#     Edge 69, Type (0, 0), BuildingBlock: ZUJKAS_clean_linker_0, # of connection points: 2
#     Edge 70, Type (0, 0), BuildingBlock: ZUJKAS_clean_linker_0, # of connection points: 2
#     Edge 71, Type (0, 0), BuildingBlock: ZUJKAS_clean_linker_0, # of connection points: 2
# Relax obj value: 0.235
# Max RMSD: 0.214
# Mean RMSD: 0.214
data_MOF--net-hbo--node1-QUQFOY_clean_sbu_1--edge1-ZUJKAS_clean_linker_0
_symmetry_space_group_name_H-M    P1
_symmetry_Int_Tables_number       1
_symmetry_cell_setting            triclinic
loop_
_symmetry_equiv_pos_as_xyz
'x, y, z'
_cell_length_a     70.331385
_cell_length_b     70.394274
_cell_length_c     70.364534
_cell_angle_alpha  90.006528
_cell_angle_beta   90.002497
_cell_angle_gamma 90.006948
loop_
_atom_site_label
_atom_site_type_symbol
_atom_site_fract_x
_atom_site_fract_y
_atom_site_fract_z
_atom_type_partial_charge
O0 O 0.1336 0.32626 0.26031 0.0
Cd1 Cd 0.12981 0.34528 0.2383 0.0
Cd2 Cd 0.15377 0.36625 0.25905 0.0
O3 O 0.15228 0.34407 0.27808 0.0
O4 O 0.10649 0.33674 0.22462 0.0
O5 O 0.10854 0.36422 0.23972 0.0
C6 C 0.09853 0.35236 0.22994 0.0
C7 C 0.14575 0.39698 0.26805 0.0
C8 C 0.14333 0.32863 0.27535 0.0
C9 C 0.16747 0.35436 0.22053 0.0
O10 O 0.17153 0.36274 0.23602 0.0
O11 O 0.15116 0.34692 0.21822 0.0
O12 O 0.16188 0.38964 0.27282 0.0
O13 O 0.13403 0.38663 0.25843 0.0
O14 O 0.13127 0.66981 0.73697 0.0
Cd15 Cd 0.12943 0.65002 0.75868 0.0
Cd16 Cd 0.15216 0.63054 0.73547 0.0
O17 O 0.14719 0.65215 0.71658 0.0
O18 O 0.10623 0.65673 0.77354 0.0
O19 O 0.10933 0.62994 0.75737 0.0
C20 C 0.099 0.64085 0.76789 0.0
C21 C 0.14617 0.59921 0.72702 0.0
C22 C 0.13879 0.66759 0.72068 0.0
C23 C 0.16859 0.64255 0.77289 0.0
O24 O 0.17187 0.63584 0.75645 0.0
O25 O 0.15197 0.64802 0.77743 0.0
O26 O 0.16105 0.60799 0.72085 0.0
O27 O 0.13455 0.6084 0.73784 0.0
O28 O 0.82539 0.63439 0.23905 0.0
Cd29 Cd 0.84337 0.63015 0.26176 0.0
Cd30 Cd 0.86743 0.65118 0.2412 0.0
O31 O 0.84592 0.64998 0.22123 0.0
O32 O 0.83528 0.60645 0.27493 0.0
O33 O 0.86301 0.60973 0.26034 0.0
C34 C 0.85133 0.59918 0.26979 0.0
C35 C 0.89863 0.6444 0.23237 0.0
C36 C 0.82949 0.64281 0.22361 0.0
C37 C 0.85451 0.66712 0.27885 0.0
O38 O 0.86404 0.66972 0.26371 0.0
O39 O 0.84536 0.65176 0.28134 0.0
O40 O 0.89056 0.66009 0.22747 0.0
O41 O 0.88876 0.63228 0.24197 0.0
O42 O 0.82676 0.36731 0.76312 0.0
Cd43 Cd 0.84535 0.36933 0.74057 0.0
Cd44 Cd 0.86712 0.34739 0.76273 0.0
O45 O 0.8451 0.35022 0.78192 0.0
O46 O 0.83775 0.39231 0.72588 0.0
O47 O 0.86538 0.38948 0.74069 0.0
C48 C 0.85389 0.39964 0.73061 0.0
C49 C 0.89827 0.35449 0.77132 0.0
C50 C 0.82951 0.35882 0.77882 0.0
C51 C 0.85455 0.33084 0.72538 0.0
O52 O 0.86349 0.32821 0.74087 0.0
O53 O 0.84646 0.34665 0.72209 0.0
O54 O 0.89013 0.3391 0.77706 0.0
O55 O 0.88846 0.36614 0.7611 0.0
O56 O 0.24395 0.17125 0.36326 0.0
Cd57 Cd 0.26606 0.15246 0.36734 0.0
Cd58 Cd 0.24396 0.1291 0.34702 0.0
O59 O 0.2249 0.15135 0.34833 0.0
O60 O 0.28044 0.16123 0.39012 0.0
O61 O 0.26455 0.1341 0.38897 0.0
C62 C 0.2748 0.14594 0.39853 0.0
C63 C 0.23441 0.09874 0.35602 0.0
C64 C 0.22813 0.1677 0.35528 0.0
C65 C 0.28169 0.13994 0.32997 0.0
O66 O 0.26603 0.13118 0.32777 0.0
O67 O 0.28498 0.149 0.34524 0.0
O68 O 0.22927 0.10592 0.33995 0.0
O69 O 0.24476 0.10901 0.36714 0.0
O70 O 0.36241 0.75758 0.82562 0.0
Cd71 Cd 0.36565 0.73832 0.8476 0.0
Cd72 Cd 0.34696 0.76514 0.86594 0.0
O73 O 0.35402 0.78213 0.84318 0.0
O74 O 0.3877 0.72177 0.84086 0.0
O75 O 0.38748 0.74135 0.86549 0.0
C76 C 0.39648 0.72912 0.8552 0.0
C77 C 0.35409 0.77367 0.89707 0.0
C78 C 0.35864 0.77518 0.82717 0.0
C79 C 0.32644 0.72856 0.85819 0.0
O80 O 0.32487 0.74617 0.86192 0.0
O81 O 0.34254 0.72152 0.854 0.0
O82 O 0.34011 0.78147 0.88809 0.0
O83 O 0.36433 0.76139 0.88809 0.0
O84 O 0.75615 0.82426 0.36615 0.0
Cd85 Cd 0.73422 0.84349 0.3687 0.0
Cd86 Cd 0.75764 0.86635 0.34963 0.0
O87 O 0.77639 0.84402 0.35269 0.0
O88 O 0.71873 0.83595 0.39113 0.0
O89 O 0.73542 0.86261 0.38963 0.0
C90 C 0.72449 0.85139 0.3992 0.0
C91 C 0.76742 0.89705 0.3571 0.0
C92 C 0.77255 0.82769 0.35939 0.0
C93 C 0.72085 0.85557 0.3305 0.0
O94 O 0.73676 0.86403 0.32911 0.0
O95 O 0.7165 0.84679 0.34567 0.0
O96 O 0.77324 0.88865 0.3419 0.0
O97 O 0.75633 0.88777 0.36838 0.0
O98 O 0.63469 0.23554 0.82844 0.0
Cd99 Cd 0.63081 0.2579 0.84704 0.0
Cd100 Cd 0.65314 0.23664 0.86942 0.0
O101 O 0.65085 0.21699 0.84786 0.0
O102 O 0.60743 0.27164 0.83872 0.0
O103 O 0.60989 0.25659 0.86622 0.0
C104 C 0.59973 0.26641 0.85453 0.0
C105 C 0.64503 0.22853 0.90039 0.0
C106 C 0.64307 0.21989 0.83182 0.0
C107 C 0.66854 0.27453 0.85721 0.0
O108 O 0.67189 0.25886 0.86557 0.0
O109 O 0.65249 0.27747 0.84944 0.0
O110 O 0.66095 0.22309 0.89306 0.0
O111 O 0.63359 0.23831 0.88992 0.0
O112 O 0.25671 0.86139 0.67173 0.0
Cd113 Cd 0.23621 0.8657 0.65123 0.0
Cd114 Cd 0.25908 0.8439 0.6307 0.0
O115 O 0.27791 0.84811 0.65283 0.0
O116 O 0.22178 0.88884 0.65876 0.0
O117 O 0.23926 0.88701 0.63266 0.0
C118 C 0.2284 0.89688 0.64366 0.0
C119 C 0.26807 0.85056 0.59962 0.0
C120 C 0.27325 0.85467 0.669 0.0
C121 C 0.22077 0.82791 0.64084 0.0
O122 O 0.23732 0.82441 0.63444 0.0
O123 O 0.21679 0.84433 0.64717 0.0
O124 O 0.27401 0.83547 0.60817 0.0
O125 O 0.25729 0.86211 0.60896 0.0
O126 O 0.67153 0.74093 0.1313 0.0
Cd127 Cd 0.65164 0.76224 0.12812 0.0
Cd128 Cd 0.63143 0.74015 0.15133 0.0
O129 O 0.65396 0.72161 0.14859 0.0
O130 O 0.65905 0.77643 0.10479 0.0
O131 O 0.63227 0.76013 0.10736 0.0
C132 C 0.64349 0.77045 0.09715 0.0
C133 C 0.60047 0.73069 0.14464 0.0
C134 C 0.66946 0.72527 0.14005 0.0
C135 C 0.64231 0.77864 0.16612 0.0
O136 O 0.63479 0.76264 0.16981 0.0
O137 O 0.64933 0.78184 0.14978 0.0
O138 O 0.60882 0.72556 0.16015 0.0
O139 O 0.60999 0.74081 0.13266 0.0
O140 O 0.73696 0.13246 0.6704 0.0
Cd141 Cd 0.75841 0.13061 0.65046 0.0
Cd142 Cd 0.73533 0.15354 0.63105 0.0
O143 O 0.71689 0.14948 0.6534 0.0
O144 O 0.7739 0.10813 0.65797 0.0
O145 O 0.75749 0.10965 0.63119 0.0
C146 C 0.76835 0.10009 0.64246 0.0
C147 C 0.72668 0.14619 0.60008 0.0
C148 C 0.72094 0.14064 0.66862 0.0
C149 C 0.77314 0.16962 0.64202 0.0
O150 O 0.75692 0.17297 0.6348 0.0
O151 O 0.77702 0.15318 0.64842 0.0
O152 O 0.7205 0.16141 0.60827 0.0
O153 O 0.73743 0.1349 0.60977 0.0
O154 O 0.32914 0.25665 0.13364 0.0
Cd155 Cd 0.35045 0.23671 0.13036 0.0
Cd156 Cd 0.36938 0.26036 0.15377 0.0
O157 O 0.34575 0.27735 0.15039 0.0
O158 O 0.34475 0.22124 0.10719 0.0
O159 O 0.36909 0.24112 0.10936 0.0
C160 C 0.35935 0.22918 0.09944 0.0
C161 C 0.39975 0.27063 0.14573 0.0
C162 C 0.33041 0.27259 0.14208 0.0
C163 C 0.36099 0.22149 0.16879 0.0
O164 O 0.36711 0.23805 0.17257 0.0
O165 O 0.35466 0.21766 0.1523 0.0
O166 O 0.39183 0.27607 0.16137 0.0
O167 O 0.39013 0.25978 0.13451 0.0
O168 O 0.86682 0.66982 0.73489 0.0
Cd169 Cd 0.86883 0.65039 0.7568 0.0
Cd170 Cd 0.84584 0.63017 0.73368 0.0
O171 O 0.84926 0.65269 0.71534 0.0
O172 O 0.89192 0.65739 0.77182 0.0
O173 O 0.88904 0.63044 0.75593 0.0
C174 C 0.89922 0.64145 0.76647 0.0
C175 C 0.85419 0.59947 0.72492 0.0
C176 C 0.85824 0.66792 0.71908 0.0
C177 C 0.82995 0.64136 0.77169 0.0
O178 O 0.82679 0.6336 0.75567 0.0
O179 O 0.84618 0.64844 0.77535 0.0
O180 O 0.83846 0.60695 0.71911 0.0
O181 O 0.86529 0.60967 0.73536 0.0
O182 O 0.86332 0.32829 0.25917 0.0
Cd183 Cd 0.86572 0.34912 0.23851 0.0
Cd184 Cd 0.84398 0.36785 0.26332 0.0
O185 O 0.84879 0.34528 0.28113 0.0
O186 O 0.88793 0.34145 0.22258 0.0
O187 O 0.88747 0.36746 0.24019 0.0
C188 C 0.89662 0.35631 0.22887 0.0
C189 C 0.85233 0.39865 0.27162 0.0
C190 C 0.85643 0.32981 0.27582 0.0
C191 C 0.82643 0.35853 0.22572 0.0
O192 O 0.82361 0.36405 0.24268 0.0
O193 O 0.84288 0.35323 0.22041 0.0
O194 O 0.83718 0.39084 0.27843 0.0
O195 O 0.86292 0.3887 0.2604 0.0
O196 O 0.17263 0.36406 0.75578 0.0
Cd197 Cd 0.15302 0.36703 0.73425 0.0
Cd198 Cd 0.13083 0.34724 0.75767 0.0
O199 O 0.15326 0.35052 0.77633 0.0
O200 O 0.16095 0.3894 0.71892 0.0
O201 O 0.13434 0.38836 0.73573 0.0
C202 C 0.14573 0.39776 0.72483 0.0
C203 C 0.10003 0.35467 0.76725 0.0
C204 C 0.16952 0.35726 0.77221 0.0
C205 C 0.14131 0.32888 0.72045 0.0
O206 O 0.13339 0.32697 0.73657 0.0
O207 O 0.14948 0.34439 0.71612 0.0
O208 O 0.1084 0.33946 0.7731 0.0
O209 O 0.1094 0.36598 0.75625 0.0
O210 O 0.1732 0.63141 0.24114 0.0
Cd211 Cd 0.15294 0.62832 0.26228 0.0
Cd212 Cd 0.13222 0.64826 0.23789 0.0
O213 O 0.15407 0.64301 0.21922 0.0
O214 O 0.15996 0.60535 0.27735 0.0
O215 O 0.13383 0.60749 0.25992 0.0
C216 C 0.14466 0.59753 0.27089 0.0
C217 C 0.10077 0.64186 0.22976 0.0
C218 C 0.17037 0.63704 0.2242 0.0
C219 C 0.14297 0.66717 0.27464 0.0
O220 O 0.13691 0.66928 0.25776 0.0
O221 O 0.14872 0.65104 0.28037 0.0
O222 O 0.10959 0.65635 0.22282 0.0
O223 O 0.11003 0.63072 0.24101 0.0
O224 O 0.76091 0.82667 0.63378 0.0
Cd225 Cd 0.73851 0.8453 0.63076 0.0
Cd226 Cd 0.76051 0.86829 0.65123 0.0
O227 O 0.77992 0.84644 0.64891 0.0
O228 O 0.72352 0.83668 0.60838 0.0
O229 O 0.73884 0.86415 0.60948 0.0
C230 C 0.72842 0.8523 0.60011 0.0
C231 C 0.7695 0.8991 0.64335 0.0
C232 C 0.77682 0.83024 0.64157 0.0
C233 C 0.72338 0.85641 0.66873 0.0
O234 O 0.73892 0.86537 0.67094 0.0
O235 O 0.72001 0.84772 0.65327 0.0
O236 O 0.7751 0.89126 0.65894 0.0
O237 O 0.75902 0.88922 0.63198 0.0
O238 O 0.63303 0.23857 0.17135 0.0
Cd239 Cd 0.63108 0.25986 0.1511 0.0
Cd240 Cd 0.65274 0.23518 0.13172 0.0
O241 O 0.6478 0.21706 0.15399 0.0
O242 O 0.60873 0.27567 0.1587 0.0
O243 O 0.60986 0.25885 0.13218 0.0
C244 C 0.60046 0.2699 0.14339 0.0
C245 C 0.64436 0.22713 0.10085 0.0
C246 C 0.63993 0.22196 0.16948 0.0
C247 C 0.6705 0.27252 0.14176 0.0
O248 O 0.6732 0.2557 0.13576 0.0
O249 O 0.65415 0.27775 0.14743 0.0
O250 O 0.65952 0.22025 0.10859 0.0
O251 O 0.63384 0.23832 0.11087 0.0
O252 O 0.23916 0.17129 0.63398 0.0
Cd253 Cd 0.2615 0.15255 0.63095 0.0
Cd254 Cd 0.23874 0.12919 0.65001 0.0
O255 O 0.21935 0.15096 0.64721 0.0
O256 O 0.27674 0.16116 0.60872 0.0
O257 O 0.26096 0.13394 0.60948 0.0
C258 C 0.27153 0.14575 0.60023 0.0
C259 C 0.22999 0.09828 0.64221 0.0
C260 C 0.22286 0.16746 0.64078 0.0
C261 C 0.2752 0.14076 0.66917 0.0
O262 O 0.2594 0.13211 0.67064 0.0
O263 O 0.27944 0.1494 0.65389 0.0
O264 O 0.2238 0.10636 0.65744 0.0
O265 O 0.24089 0.10798 0.6311 0.0
O266 O 0.36376 0.76258 0.17043 0.0
Cd267 Cd 0.36737 0.73983 0.15232 0.0
Cd268 Cd 0.34451 0.76001 0.1298 0.0
O269 O 0.34557 0.77968 0.1515 0.0
O270 O 0.39052 0.72628 0.1613 0.0
O271 O 0.38862 0.74052 0.13332 0.0
C272 C 0.39854 0.73107 0.14553 0.0
C273 C 0.35147 0.76906 0.09879 0.0
C274 C 0.35422 0.77758 0.16722 0.0
C275 C 0.32997 0.72205 0.14261 0.0
O276 O 0.32655 0.73713 0.13329 0.0
O277 O 0.3458 0.71998 0.15108 0.0
O278 O 0.33562 0.77372 0.10674 0.0
O279 O 0.36363 0.75951 0.10869 0.0
O280 O 0.73637 0.13289 0.32614 0.0
Cd281 Cd 0.75896 0.12905 0.34446 0.0
Cd282 Cd 0.73876 0.15142 0.36719 0.0
O283 O 0.71858 0.1492 0.34611 0.0
O284 O 0.77252 0.10568 0.33618 0.0
O285 O 0.75769 0.10827 0.36382 0.0
C286 C 0.76742 0.09808 0.35207 0.0
C287 C 0.73023 0.14505 0.39848 0.0
C288 C 0.7209 0.14141 0.32998 0.0
C289 C 0.77639 0.16649 0.35389 0.0
O290 O 0.76105 0.17 0.36277 0.0
O291 O 0.77887 0.15042 0.34605 0.0
O292 O 0.72519 0.16062 0.39023 0.0
O293 O 0.73998 0.1329 0.38878 0.0
O294 O 0.3289 0.26698 0.86594 0.0
Cd295 Cd 0.34608 0.24336 0.86887 0.0
Cd296 Cd 0.36759 0.26307 0.8445 0.0
O297 O 0.34672 0.28349 0.84617 0.0
O298 O 0.33626 0.23089 0.89232 0.0
O299 O 0.36572 0.24162 0.88953 0.0
C300 C 0.35277 0.23366 0.89978 0.0
C301 C 0.39884 0.27004 0.85243 0.0
C302 C 0.33163 0.28178 0.85595 0.0
C303 C 0.35308 0.22531 0.83101 0.0
O304 O 0.36248 0.2402 0.82697 0.0
O305 O 0.34552 0.22344 0.84733 0.0
O306 O 0.39182 0.27514 0.83626 0.0
O307 O 0.38788 0.26126 0.86424 0.0
O308 O 0.25768 0.86639 0.32596 0.0
Cd309 Cd 0.23668 0.86869 0.34648 0.0
Cd310 Cd 0.26146 0.84832 0.36651 0.0
O311 O 0.27976 0.85418 0.34453 0.0
O312 O 0.22141 0.89182 0.34047 0.0
O313 O 0.23922 0.88885 0.36625 0.0
C314 C 0.22807 0.89912 0.35593 0.0
C315 C 0.27016 0.85419 0.39789 0.0
C316 C 0.27466 0.86069 0.32848 0.0
C317 C 0.22463 0.82951 0.35579 0.0
O318 O 0.24157 0.82735 0.36171 0.0
O319 O 0.21881 0.84571 0.35033 0.0
O320 O 0.277 0.83988 0.3887 0.0
O321 O 0.25865 0.8654 0.38906 0.0
O322 O 0.66722 0.73383 0.86112 0.0
Cd323 Cd 0.64764 0.75543 0.86449 0.0
Cd324 Cd 0.6278 0.73392 0.84011 0.0
O325 O 0.65025 0.71528 0.84241 0.0
O326 O 0.65636 0.76983 0.88728 0.0
O327 O 0.62909 0.75427 0.88615 0.0
C328 C 0.64096 0.76451 0.89566 0.0
C329 C 0.59721 0.72544 0.84901 0.0
C330 C 0.66544 0.71856 0.85164 0.0
C331 C 0.6387 0.77262 0.82647 0.0
O332 O 0.63117 0.75678 0.82213 0.0
O333 O 0.6455 0.77525 0.843 0.0
O334 O 0.60418 0.72002 0.83291 0.0
O335 O 0.60789 0.73533 0.86018 0.0
H336 H 0.16671 0.5719 0.28991 0.0
H337 H 0.16145 0.53771 0.29283 0.0
H338 H 0.10759 0.54334 0.26409 0.0
H339 H 0.1129 0.57754 0.26073 0.0
H340 H 0.13252 0.51514 0.3087 0.0
H341 H 0.13712 0.50649 0.23022 0.0
H342 H 0.14375 0.52823 0.24204 0.0
H343 H 0.1191 0.52262 0.23837 0.0
C344 C 0.15364 0.56592 0.28439 0.0
C345 C 0.14034 0.57737 0.27485 0.0
C346 C 0.15064 0.54638 0.28611 0.0
C347 C 0.13431 0.53798 0.27836 0.0
C348 C 0.12047 0.54952 0.26982 0.0
H349 H 0.11408 0.41718 0.25802 0.0
H350 H 0.1084 0.45117 0.26273 0.0
C351 C 0.1235 0.56906 0.26798 0.0
C352 C 0.13248 0.51703 0.27815 0.0
H353 H 0.13226 0.47887 0.24824 0.0
C354 C 0.13231 0.50718 0.2955 0.0
C355 C 0.13224 0.50672 0.26088 0.0
C356 C 0.13322 0.51649 0.2418 0.0
C357 C 0.13212 0.48724 0.29603 0.0
C358 C 0.13238 0.47696 0.27877 0.0
C359 C 0.13198 0.48682 0.26145 0.0
C360 C 0.13455 0.45606 0.27817 0.0
C361 C 0.13175 0.47735 0.31504 0.0
C362 C 0.15107 0.44756 0.28542 0.0
C363 C 0.15438 0.42819 0.28271 0.0
C364 C 0.14128 0.41699 0.2726 0.0
C365 C 0.12445 0.42542 0.26587 0.0
C366 C 0.12117 0.44482 0.26856 0.0
H367 H 0.1258 0.48669 0.3263 0.0
H368 H 0.12323 0.46409 0.3144 0.0
H369 H 0.1465 0.47357 0.31919 0.0
H370 H 0.16178 0.45605 0.2925 0.0
H371 H 0.1675 0.42213 0.28804 0.0
H372 H 0.91884 0.60952 0.75627 0.0
H373 H 0.95269 0.60314 0.76111 0.0
H374 H 0.95836 0.6559 0.79177 0.0
H375 H 0.92455 0.66228 0.78722 0.0
H376 H 0.98052 0.62637 0.74689 0.0
H377 H 0.98896 0.6195 0.82479 0.0
H378 H 0.96616 0.61748 0.81312 0.0
H379 H 0.97614 0.6405 0.81808 0.0
C380 C 0.92722 0.61959 0.76437 0.0
C381 C 0.91905 0.63646 0.77129 0.0
C382 C 0.94654 0.6159 0.76714 0.0
C383 C 0.95798 0.62892 0.777 0.0
C384 C 0.94971 0.64544 0.7845 0.0
H385 H 0.07305 0.66234 0.78708 0.0
H386 H 0.03907 0.65619 0.79059 0.0
C387 C 0.9304 0.64914 0.78175 0.0
C388 C 0.97888 0.62649 0.77743 0.0
H389 H 0.01734 0.62666 0.80702 0.0
C390 C 0.98858 0.62605 0.76003 0.0
C391 C 0.98931 0.62617 0.79461 0.0
C392 C 0.9796 0.62575 0.81371 0.0
C393 C 0.00849 0.62632 0.75928 0.0
C394 C 0.01896 0.62664 0.77645 0.0
C395 C 0.00926 0.62639 0.79389 0.0
C396 C 0.03987 0.6289 0.77646 0.0
C397 C 0.01811 0.6273 0.74012 0.0
C398 C 0.05167 0.61528 0.76791 0.0
C399 C 0.0711 0.61882 0.76575 0.0
C400 C 0.07905 0.63596 0.77225 0.0
C401 C 0.06736 0.64904 0.78182 0.0
C402 C 0.04794 0.64553 0.78389 0.0
H403 H 0.00795 0.63084 0.72855 0.0
H404 H 0.02962 0.63809 0.74017 0.0
H405 H 0.02456 0.6133 0.7368 0.0
H406 H 0.04574 0.60219 0.76241 0.0
H407 H 0.07977 0.60838 0.75848 0.0
H408 H 0.88319 0.41895 0.25957 0.0
H409 H 0.88875 0.45305 0.26332 0.0
H410 H 0.83697 0.45797 0.2958 0.0
H411 H 0.83147 0.42391 0.29241 0.0
H412 H 0.86486 0.48001 0.24945 0.0
H413 H 0.8733 0.49006 0.32699 0.0
H414 H 0.87526 0.46707 0.31576 0.0
H415 H 0.85225 0.47691 0.3211 0.0
C416 C 0.87318 0.42723 0.26782 0.0
C417 C 0.85685 0.41875 0.27564 0.0
C418 C 0.87639 0.4467 0.26996 0.0
C419 C 0.86341 0.458 0.28004 0.0
C420 C 0.84742 0.44946 0.28836 0.0
H421 H 0.82911 0.57329 0.28822 0.0
H422 H 0.83491 0.53925 0.29177 0.0
C423 C 0.84421 0.42999 0.28627 0.0
C424 C 0.86535 0.47894 0.28002 0.0
H425 H 0.86519 0.51795 0.30887 0.0
C426 C 0.8653 0.48832 0.26243 0.0
C427 C 0.86584 0.48971 0.29699 0.0
C428 C 0.86686 0.48041 0.31627 0.0
C429 C 0.86478 0.50819 0.26132 0.0
C430 C 0.86464 0.51895 0.27829 0.0
C431 C 0.8653 0.50962 0.2959 0.0
C432 C 0.86237 0.53983 0.27794 0.0
C433 C 0.86346 0.51747 0.24202 0.0
C434 C 0.87616 0.55147 0.26946 0.0
C435 C 0.87286 0.57093 0.26733 0.0
C436 C 0.85575 0.57904 0.27374 0.0
C437 C 0.84238 0.56746 0.28304 0.0
C438 C 0.84569 0.54802 0.28514 0.0
H439 H 0.86 0.50707 0.23064 0.0
H440 H 0.85246 0.52878 0.24201 0.0
H441 H 0.87732 0.52413 0.23849 0.0
H442 H 0.88926 0.54542 0.26409 0.0
H443 H 0.8835 0.57951 0.26023 0.0
H444 H 0.07716 0.3834 0.75435 0.0
H445 H 0.04284 0.38669 0.75911 0.0
H446 H 0.04305 0.33742 0.79552 0.0
H447 H 0.07725 0.33388 0.79069 0.0
H448 H 0.01773 0.33525 0.76505 0.0
H449 H 0.00918 0.40331 0.80411 0.0
H450 H 0.02392 0.40449 0.78328 0.0
H451 H 0.03146 0.39054 0.80328 0.0
C452 C 0.06996 0.37349 0.76366 0.0
C453 C 0.07989 0.3583 0.77204 0.0
C454 C 0.05037 0.37547 0.76646 0.0
C455 C 0.04046 0.36239 0.7778 0.0
C456 C 0.05048 0.3477 0.78678 0.0
H457 H 0.92177 0.3339 0.79429 0.0
H458 H 0.95622 0.33712 0.79754 0.0
C459 C 0.07002 0.34569 0.78398 0.0
C460 C 0.01944 0.36264 0.77856 0.0
H461 H 0.98099 0.38912 0.79188 0.0
C462 C 0.00969 0.34695 0.77106 0.0
C463 C 0.00905 0.37804 0.7862 0.0
C464 C 0.01889 0.39501 0.79483 0.0
C465 C 0.9898 0.34631 0.77079 0.0
C466 C 0.97937 0.36161 0.7786 0.0
C467 C 0.98908 0.37738 0.78602 0.0
C468 C 0.95834 0.36141 0.77882 0.0
C469 C 0.98013 0.32944 0.7617 0.0
C470 C 0.94806 0.37459 0.76796 0.0
C471 C 0.92833 0.37289 0.76618 0.0
C472 C 0.91862 0.35795 0.77524 0.0
C473 C 0.92886 0.34543 0.78697 0.0
C474 C 0.94854 0.34722 0.78881 0.0
H475 H 0.98995 0.32139 0.75231 0.0
H476 H 0.97508 0.31965 0.77299 0.0
H477 H 0.96763 0.33399 0.7532 0.0
H478 H 0.9554 0.3857 0.76022 0.0
H479 H 0.92083 0.3828 0.75711 0.0
H480 H 0.16579 0.42035 0.70054 0.0
H481 H 0.16289 0.45471 0.69657 0.0
H482 H 0.11537 0.45538 0.73527 0.0
H483 H 0.11795 0.4209 0.73915 0.0
H484 H 0.1117 0.48044 0.7028 0.0
H485 H 0.18027 0.48875 0.74123 0.0
H486 H 0.1812 0.47346 0.72081 0.0
H487 H 0.16714 0.46673 0.74105 0.0
C488 C 0.15454 0.42774 0.708 0.0
C489 C 0.14226 0.41797 0.72037 0.0
C490 C 0.15293 0.44737 0.70573 0.0
C491 C 0.13916 0.45756 0.71591 0.0
C492 C 0.12615 0.44773 0.72737 0.0
H493 H 0.11774 0.57607 0.73997 0.0
H494 H 0.11469 0.54179 0.73517 0.0
C495 C 0.12768 0.42806 0.72959 0.0
C496 C 0.13934 0.47855 0.71579 0.0
H497 H 0.16638 0.51658 0.72887 0.0
C498 C 0.12362 0.4884 0.70846 0.0
C499 C 0.15491 0.4888 0.72332 0.0
C500 C 0.17178 0.47895 0.73221 0.0
C501 C 0.12322 0.50836 0.70819 0.0
C502 C 0.13882 0.51858 0.71569 0.0
C503 C 0.15451 0.50868 0.72299 0.0
C504 C 0.13917 0.53956 0.71667 0.0
C505 C 0.10627 0.51833 0.69966 0.0
C506 C 0.15398 0.54964 0.70791 0.0
C507 C 0.15587 0.56916 0.71076 0.0
C508 C 0.14304 0.57895 0.72253 0.0
C509 C 0.12784 0.56893 0.7308 0.0
C510 C 0.12598 0.54937 0.72795 0.0
H511 H 0.09806 0.50878 0.69012 0.0
H512 H 0.09667 0.52305 0.71125 0.0
H513 H 0.11074 0.53107 0.69149 0.0
H514 H 0.16436 0.54228 0.69923 0.0
H515 H 0.1677 0.57647 0.70415 0.0
H516 H 0.92131 0.6156 0.24539 0.0
H517 H 0.9558 0.6126 0.24151 0.0
H518 H 0.95622 0.66238 0.20581 0.0
H519 H 0.92188 0.6657 0.20985 0.0
H520 H 0.9804 0.6098 0.20933 0.0
H521 H 0.99157 0.67642 0.25013 0.0
H522 H 0.96901 0.66423 0.24955 0.0
H523 H 0.97616 0.67898 0.22995 0.0
C524 C 0.92872 0.62578 0.23653 0.0
C525 C 0.91893 0.64105 0.22814 0.0
C526 C 0.9484 0.62402 0.23432 0.0
C527 C 0.95855 0.63748 0.22368 0.0
C528 C 0.94866 0.65207 0.21439 0.0
H529 H 0.07744 0.66342 0.20753 0.0
H530 H 0.04298 0.66061 0.20414 0.0
C531 C 0.92904 0.65391 0.21668 0.0
C532 C 0.97957 0.63703 0.22325 0.0
H533 H 0.01872 0.6627 0.23589 0.0
C534 C 0.98882 0.62132 0.21514 0.0
C535 C 0.99047 0.65204 0.231 0.0
C536 C 0.98134 0.6688 0.24082 0.0
C537 C 0.00877 0.62045 0.21421 0.0
C538 C 0.0196 0.63559 0.22176 0.0
C539 C 0.01033 0.65121 0.22995 0.0
C540 C 0.04063 0.63555 0.22177 0.0
C541 C 0.01809 0.60355 0.20491 0.0
C542 C 0.05073 0.62222 0.23262 0.0
C543 C 0.07045 0.6238 0.23463 0.0
C544 C 0.08034 0.63881 0.22589 0.0
C545 C 0.07024 0.65172 0.21447 0.0
C546 C 0.05056 0.65013 0.21249 0.0
H547 H 0.00793 0.59547 0.19591 0.0
H548 H 0.03032 0.60808 0.196 0.0
H549 H 0.02355 0.59385 0.21607 0.0
H550 H 0.04328 0.61107 0.24018 0.0
H551 H 0.07782 0.61365 0.24355 0.0
H552 H 0.886 0.57981 0.73542 0.0
H553 H 0.89188 0.54577 0.73174 0.0
H554 H 0.83861 0.5397 0.70198 0.0
H555 H 0.83273 0.57371 0.70533 0.0
H556 H 0.86868 0.51885 0.74729 0.0
H557 H 0.87405 0.50742 0.66965 0.0
H558 H 0.87642 0.53061 0.6804 0.0
H559 H 0.85324 0.52062 0.67623 0.0
C560 C 0.87571 0.5713 0.72776 0.0
C561 C 0.85885 0.57943 0.72073 0.0
C562 C 0.87911 0.55186 0.72565 0.0
C563 C 0.8658 0.54025 0.71639 0.0
C564 C 0.84929 0.54846 0.70879 0.0
H565 H 0.83167 0.42499 0.71148 0.0
H566 H 0.83764 0.45884 0.70674 0.0
C567 C 0.84587 0.56789 0.71085 0.0
C568 C 0.86798 0.51934 0.71671 0.0
H569 H 0.86703 0.47981 0.68861 0.0
C570 C 0.86869 0.5103 0.73446 0.0
C571 C 0.86791 0.50827 0.69994 0.0
C572 C 0.86805 0.51723 0.68047 0.0
C573 C 0.86835 0.49046 0.73596 0.0
C574 C 0.86764 0.47937 0.71921 0.0
C575 C 0.86758 0.48838 0.70142 0.0
C576 C 0.86537 0.4585 0.72004 0.0
C577 C 0.86775 0.48157 0.75549 0.0
C578 C 0.87927 0.44701 0.72856 0.0
C579 C 0.87585 0.42766 0.73141 0.0
C580 C 0.85853 0.4195 0.72565 0.0
C581 C 0.8451 0.43086 0.71618 0.0
C582 C 0.84851 0.4502 0.7134 0.0
H583 H 0.86455 0.49216 0.76675 0.0
H584 H 0.85687 0.47015 0.7561 0.0
H585 H 0.88179 0.47513 0.75871 0.0
H586 H 0.89251 0.45313 0.73348 0.0
H587 H 0.88654 0.41924 0.7386 0.0
H588 H 0.91965 0.38475 0.24207 0.0
H589 H 0.95414 0.38732 0.23828 0.0
H590 H 0.95396 0.33785 0.20212 0.0
H591 H 0.91956 0.33504 0.20596 0.0
H592 H 0.97821 0.3354 0.23369 0.0
H593 H 0.98966 0.40279 0.19421 0.0
H594 H 0.97414 0.40447 0.21443 0.0
H595 H 0.96712 0.39046 0.19428 0.0
C596 C 0.9269 0.37464 0.23299 0.0
C597 C 0.9169 0.35961 0.22441 0.0
C598 C 0.94659 0.37621 0.23075 0.0
C599 C 0.95655 0.36286 0.2198 0.0
C600 C 0.94649 0.34834 0.21056 0.0
H601 H 0.07492 0.33155 0.20732 0.0
H602 H 0.04062 0.33532 0.20343 0.0
C603 C 0.92683 0.34676 0.21279 0.0
C604 C 0.97759 0.36262 0.21977 0.0
H605 H 0.01707 0.3881 0.20752 0.0
C606 C 0.98671 0.34685 0.22783 0.0
C607 C 0.98858 0.37771 0.21234 0.0
C608 C 0.97943 0.39478 0.20318 0.0
C609 C 0.00656 0.3458 0.22886 0.0
C610 C 0.01761 0.36075 0.22122 0.0
C611 C 0.00852 0.37662 0.21325 0.0
C612 C 0.03863 0.36003 0.2216 0.0
C613 C 0.01552 0.32887 0.23853 0.0
C614 C 0.04897 0.37324 0.23238 0.0
C615 C 0.06864 0.37122 0.23452 0.0
C616 C 0.07822 0.35594 0.2259 0.0
C617 C 0.06793 0.34334 0.21432 0.0
C618 C 0.04832 0.34543 0.21211 0.0
H619 H 0.00522 0.32127 0.24779 0.0
H620 H 0.0206 0.31872 0.22759 0.0
H621 H 0.0279 0.33324 0.2473 0.0
H622 H 0.04173 0.38466 0.23974 0.0
H623 H 0.0762 0.38121 0.24347 0.0
H624 H 0.25977 0.11668 0.57722 0.0
H625 H 0.26469 0.11372 0.54293 0.0
H626 H 0.29928 0.16431 0.54341 0.0
H627 H 0.29425 0.16753 0.5776 0.0
H628 H 0.2692 0.16565 0.51801 0.0
H629 H 0.30992 0.09864 0.50927 0.0
H630 H 0.289 0.09663 0.52378 0.0
H631 H 0.30849 0.11114 0.53166 0.0
C632 C 0.26872 0.12697 0.57009 0.0
C633 C 0.27652 0.14241 0.5801 0.0
C634 C 0.27162 0.12518 0.55051 0.0
C635 C 0.28249 0.1387 0.54067 0.0
C636 C 0.29091 0.15368 0.55077 0.0
H637 H 0.29757 0.16717 0.42168 0.0
H638 H 0.30122 0.16425 0.4561 0.0
C639 C 0.288 0.15551 0.57031 0.0
C640 C 0.28328 0.13855 0.51966 0.0
H641 H 0.29689 0.11232 0.48114 0.0
C642 C 0.27541 0.15407 0.50995 0.0
C643 C 0.29121 0.12331 0.50922 0.0
C644 C 0.30029 0.10654 0.51898 0.0
C645 C 0.27499 0.15469 0.49007 0.0
C646 C 0.28301 0.13953 0.47959 0.0
C647 C 0.29086 0.12395 0.48925 0.0
C648 C 0.28296 0.13964 0.45857 0.0
C649 C 0.26549 0.17136 0.48045 0.0
C650 C 0.27221 0.12622 0.4485 0.0
C651 C 0.27019 0.12776 0.42879 0.0
C652 C 0.2789 0.14277 0.41889 0.0
C653 C 0.29051 0.15557 0.42892 0.0
C654 C 0.29258 0.15396 0.44859 0.0
H655 H 0.25609 0.1793 0.49035 0.0
H656 H 0.27654 0.1813 0.4752 0.0
H657 H 0.25689 0.1666 0.46809 0.0
H658 H 0.26474 0.11502 0.45598 0.0
H659 H 0.26122 0.11762 0.42145 0.0
H660 H 0.33368 0.79716 0.92024 0.0
H661 H 0.33664 0.80054 0.95469 0.0
H662 H 0.38453 0.76229 0.9545 0.0
H663 H 0.38178 0.75891 0.92001 0.0
H664 H 0.33309 0.76857 0.97873 0.0
H665 H 0.40185 0.80574 0.99018 0.0
H666 H 0.38928 0.80644 0.96779 0.0
H667 H 0.40271 0.78575 0.97431 0.0
C668 C 0.34508 0.78975 0.92746 0.0
C669 C 0.35743 0.77768 0.91742 0.0
C670 C 0.34676 0.79172 0.94713 0.0
C671 C 0.36089 0.78179 0.95709 0.0
C672 C 0.37374 0.77034 0.94703 0.0
H673 H 0.38002 0.75578 0.07591 0.0
H674 H 0.38317 0.76026 0.04151 0.0
C675 C 0.37206 0.76833 0.92733 0.0
C676 C 0.36074 0.78166 0.9781 0.0
H677 H 0.38696 0.79248 0.0175 0.0
C678 C 0.34479 0.77395 0.98723 0.0
C679 C 0.37615 0.78846 0.98906 0.0
C680 C 0.39344 0.79721 0.97989 0.0
C681 C 0.34389 0.7726 0.00706 0.0
C682 C 0.3592 0.77958 0.01809 0.0
C683 C 0.37522 0.78725 0.00898 0.0
C684 C 0.35873 0.77876 0.0391 0.0
C685 C 0.32677 0.76322 0.01599 0.0
C686 C 0.34436 0.78823 0.04916 0.0
C687 C 0.34242 0.78557 0.06871 0.0
C688 C 0.35498 0.77359 0.0786 0.0
C689 C 0.37008 0.76504 0.06867 0.0
C690 C 0.37192 0.7676 0.04904 0.0
H691 H 0.31888 0.75431 0.00561 0.0
H692 H 0.331 0.75416 0.0282 0.0
H693 H 0.31692 0.77434 0.02128 0.0
H694 H 0.33429 0.79723 0.04178 0.0
H695 H 0.33079 0.79255 0.07599 0.0
H696 H 0.7386 0.87969 0.4218 0.0
H697 H 0.73463 0.88296 0.45622 0.0
H698 H 0.69601 0.83539 0.4564 0.0
H699 H 0.70008 0.83181 0.42209 0.0
H700 H 0.70215 0.88685 0.48151 0.0
H701 H 0.74114 0.81871 0.49031 0.0
H702 H 0.74075 0.83159 0.46814 0.0
H703 H 0.72064 0.81747 0.47514 0.0
C704 C 0.72902 0.87011 0.42912 0.0
C705 C 0.71988 0.8553 0.4193 0.0
C706 C 0.72675 0.87204 0.44876 0.0
C707 C 0.7153 0.8592 0.45882 0.0
C708 C 0.70515 0.84523 0.44887 0.0
H709 H 0.70492 0.8311 0.57776 0.0
H710 H 0.6993 0.83469 0.54371 0.0
C711 C 0.70748 0.84323 0.42928 0.0
C712 C 0.71531 0.85929 0.47982 0.0
H713 H 0.72884 0.83279 0.51806 0.0
C714 C 0.70795 0.87505 0.48956 0.0
C715 C 0.72304 0.84391 0.4902 0.0
C716 C 0.73201 0.82702 0.48047 0.0
C717 C 0.70779 0.87567 0.50953 0.0
C718 C 0.71544 0.86023 0.51987 0.0
C719 C 0.72283 0.84453 0.51007 0.0
C720 C 0.71649 0.86002 0.54086 0.0
C721 C 0.69922 0.89265 0.51939 0.0
C722 C 0.72777 0.87328 0.55059 0.0
C723 C 0.73099 0.87129 0.5701 0.0
C724 C 0.72315 0.85588 0.58011 0.0
C725 C 0.71125 0.84307 0.57045 0.0
C726 C 0.70798 0.84512 0.551 0.0
H727 H 0.68962 0.90073 0.50981 0.0
H728 H 0.69111 0.88826 0.5322 0.0
H729 H 0.71079 0.90233 0.524 0.0
H730 H 0.73478 0.88466 0.54297 0.0
H731 H 0.74026 0.88136 0.57715 0.0
H732 H 0.61363 0.2396 0.08061 0.0
H733 H 0.60787 0.23578 0.04654 0.0
H734 H 0.6591 0.20248 0.04154 0.0
H735 H 0.66482 0.20595 0.07558 0.0
H736 H 0.63205 0.24916 0.01944 0.0
H737 H 0.62197 0.1718 0.00971 0.0
H738 H 0.62021 0.18317 0.03266 0.0
H739 H 0.64312 0.17733 0.02285 0.0
C740 C 0.62348 0.23116 0.07232 0.0
C741 C 0.63973 0.22313 0.08076 0.0
C742 C 0.62015 0.22898 0.05287 0.0
C743 C 0.63292 0.21864 0.04156 0.0
C744 C 0.64882 0.21012 0.05007 0.0
H745 H 0.66689 0.20958 0.92624 0.0
H746 H 0.66101 0.20609 0.96029 0.0
C747 C 0.65215 0.21226 0.06951 0.0
C748 C 0.6309 0.21862 0.02063 0.0
H749 H 0.63035 0.18964 0.98172 0.0
C750 C 0.63131 0.23617 0.01118 0.0
C751 C 0.63002 0.20163 0.00993 0.0
C752 C 0.62861 0.18242 0.01932 0.0
C753 C 0.6318 0.23719 0.9913 0.0
C754 C 0.63156 0.22018 0.9806 0.0
C755 C 0.63054 0.20263 0.99 0.0
C756 C 0.6338 0.22041 0.95972 0.0
C757 C 0.63353 0.25641 0.98194 0.0
C758 C 0.62017 0.22914 0.94808 0.0
C759 C 0.62352 0.23124 0.92862 0.0
C760 C 0.64052 0.22456 0.92051 0.0
C761 C 0.6537 0.21498 0.93208 0.0
C762 C 0.65035 0.21291 0.95152 0.0
H763 H 0.63724 0.26774 0.99229 0.0
H764 H 0.64452 0.25615 0.97062 0.0
H765 H 0.61975 0.26021 0.97528 0.0
H766 H 0.60718 0.23476 0.95414 0.0
H767 H 0.61302 0.23855 0.92005 0.0
H768 H 0.2562 0.88159 0.42164 0.0
H769 H 0.26038 0.88371 0.45607 0.0
H770 H 0.29787 0.83525 0.45465 0.0
H771 H 0.2936 0.83286 0.42026 0.0
H772 H 0.26763 0.83149 0.47965 0.0
H773 H 0.30425 0.90047 0.49064 0.0
H774 H 0.28347 0.90178 0.47586 0.0
H775 H 0.3038 0.88851 0.46793 0.0
C776 C 0.2656 0.87159 0.4286 0.0
C777 C 0.27448 0.85698 0.41825 0.0
C778 C 0.26808 0.87291 0.44827 0.0
C779 C 0.27959 0.85976 0.45786 0.0
C780 C 0.28901 0.8456 0.44747 0.0
H781 H 0.29239 0.83035 0.57716 0.0
H782 H 0.2971 0.8336 0.5429 0.0
C783 C 0.28653 0.84424 0.42783 0.0
C784 C 0.2801 0.85941 0.47888 0.0
H785 H 0.29103 0.8857 0.51818 0.0
C786 C 0.27294 0.84326 0.48808 0.0
C787 C 0.28685 0.87488 0.48979 0.0
C788 C 0.29518 0.89234 0.48058 0.0
C789 C 0.27197 0.84226 0.50793 0.0
C790 C 0.27872 0.85771 0.51888 0.0
C791 C 0.28596 0.87387 0.50971 0.0
C792 C 0.27784 0.85737 0.53988 0.0
C793 C 0.26316 0.82491 0.51699 0.0
C794 C 0.26614 0.87024 0.54961 0.0
C795 C 0.26353 0.86853 0.56923 0.0
C796 C 0.27257 0.85388 0.57938 0.0
C797 C 0.28505 0.84164 0.56971 0.0
C798 C 0.28773 0.84344 0.55014 0.0
H799 H 0.25458 0.8166 0.50666 0.0
H800 H 0.27461 0.81554 0.52245 0.0
H801 H 0.2539 0.82895 0.52912 0.0
H802 H 0.25846 0.88115 0.54192 0.0
H803 H 0.2539 0.87824 0.5763 0.0
H804 H 0.66389 0.79249 0.07269 0.0
H805 H 0.6596 0.7954 0.03838 0.0
H806 H 0.60998 0.75953 0.04133 0.0
H807 H 0.61401 0.7567 0.07577 0.0
H808 H 0.66098 0.76323 0.01509 0.0
H809 H 0.59318 0.80255 0.00518 0.0
H810 H 0.60638 0.80306 0.02721 0.0
H811 H 0.59212 0.78275 0.02128 0.0
C812 C 0.65184 0.78551 0.06612 0.0
C813 C 0.63936 0.77426 0.07692 0.0
C814 C 0.6494 0.78722 0.04652 0.0
C815 C 0.63441 0.7778 0.03736 0.0
C816 C 0.62144 0.7672 0.04818 0.0
H817 H 0.61275 0.75112 0.91889 0.0
H818 H 0.61001 0.75564 0.95333 0.0
C819 C 0.62384 0.7655 0.06784 0.0
C820 C 0.6338 0.77723 0.01637 0.0
H821 H 0.60697 0.78872 0.97758 0.0
C822 C 0.64923 0.76893 0.00688 0.0
C823 C 0.61833 0.78446 0.00577 0.0
C824 C 0.6016 0.79385 0.01532 0.0
C825 C 0.64961 0.76752 0.98704 0.0
C826 C 0.63429 0.77499 0.97639 0.0
C827 C 0.61872 0.78314 0.98584 0.0
C828 C 0.63437 0.77428 0.95539 0.0
C829 C 0.66625 0.7577 0.97769 0.0
C830 C 0.64858 0.7838 0.94516 0.0
C831 C 0.65028 0.78116 0.92558 0.0
C832 C 0.63767 0.76907 0.91588 0.0
C833 C 0.62274 0.76045 0.926 0.0
C834 C 0.62112 0.76303 0.94564 0.0
H835 H 0.67425 0.74869 0.9879 0.0
H836 H 0.66144 0.74865 0.96568 0.0
H837 H 0.67617 0.76855 0.972 0.0
H838 H 0.65874 0.7928 0.95243 0.0
H839 H 0.6618 0.78817 0.91816 0.0
H840 H 0.74109 0.11792 0.57764 0.0
H841 H 0.73783 0.11479 0.54313 0.0
H842 H 0.69992 0.16292 0.54224 0.0
H843 H 0.70327 0.16634 0.57664 0.0
H844 H 0.70552 0.11128 0.51753 0.0
H845 H 0.74572 0.17871 0.5087 0.0
H846 H 0.74493 0.16594 0.53092 0.0
H847 H 0.72513 0.18038 0.52371 0.0
C848 C 0.73185 0.12767 0.57013 0.0
C849 C 0.72266 0.14256 0.57981 0.0
C850 C 0.72997 0.12583 0.55044 0.0
C851 C 0.7189 0.13883 0.54018 0.0
C852 C 0.70878 0.15295 0.54993 0.0
H853 H 0.70792 0.16682 0.42145 0.0
H854 H 0.70317 0.16344 0.45564 0.0
C855 C 0.71069 0.15486 0.56958 0.0
C856 C 0.71914 0.13862 0.51918 0.0
H857 H 0.73316 0.16482 0.48091 0.0
C858 C 0.71155 0.12295 0.50947 0.0
C859 C 0.72717 0.15383 0.50879 0.0
C860 C 0.73636 0.17061 0.51851 0.0
C861 C 0.71139 0.1223 0.4895 0.0
C862 C 0.71929 0.13761 0.47915 0.0
C863 C 0.72697 0.15318 0.48892 0.0
C864 C 0.72007 0.13788 0.45814 0.0
C865 C 0.70251 0.10546 0.47966 0.0
C866 C 0.73094 0.12446 0.44818 0.0
C867 C 0.73367 0.12632 0.42858 0.0
C868 C 0.72572 0.14177 0.41871 0.0
C869 C 0.71431 0.15481 0.42865 0.0
C870 C 0.71154 0.15289 0.44818 0.0
H871 H 0.69292 0.09744 0.4893 0.0
H872 H 0.69432 0.11002 0.46696 0.0
H873 H 0.71392 0.09568 0.47486 0.0
H874 H 0.73796 0.11299 0.45567 0.0
H875 H 0.74257 0.11608 0.42132 0.0
H876 H 0.35802 0.19554 0.08036 0.0
H877 H 0.36353 0.19039 0.04636 0.0
H878 H 0.37416 0.25044 0.03929 0.0
H879 H 0.37044 0.25514 0.07339 0.0
H880 H 0.34488 0.20014 0.01898 0.0
H881 H 0.41429 0.23301 0.00588 0.0
H882 H 0.40586 0.22879 0.02969 0.0
H883 H 0.39983 0.25048 0.01731 0.0
C884 C 0.36204 0.20748 0.07151 0.0
C885 C 0.36399 0.22568 0.07938 0.0
C886 C 0.36514 0.20458 0.0521 0.0
C887 C 0.36965 0.21995 0.04012 0.0
C888 C 0.37156 0.23815 0.04815 0.0
H889 H 0.32739 0.23449 0.92862 0.0
H890 H 0.33325 0.22845 0.96216 0.0
C891 C 0.36919 0.24091 0.06765 0.0
C892 C 0.37025 0.21744 0.0191 0.0
H893 H 0.39191 0.23417 0.97909 0.0
C894 C 0.35549 0.20723 0.01033 0.0
C895 C 0.38432 0.22605 0.00754 0.0
C896 C 0.40206 0.23496 0.01568 0.0
C897 C 0.3537 0.20651 0.9905 0.0
C898 C 0.36629 0.2173 0.97908 0.0
C899 C 0.38184 0.22635 0.98775 0.0
C900 C 0.36281 0.22048 0.95847 0.0
C901 C 0.33828 0.19414 0.98214 0.0
C902 C 0.37768 0.21906 0.94517 0.0
C903 C 0.37451 0.22335 0.926 0.0
C904 C 0.35632 0.22872 0.91979 0.0
C905 C 0.34146 0.23 0.93301 0.0
C906 C 0.34477 0.22633 0.95219 0.0
H907 H 0.33588 0.18137 0.99112 0.0
H908 H 0.32472 0.2022 0.9818 0.0
H909 H 0.34183 0.18938 0.96753 0.0
H910 H 0.39178 0.21475 0.94962 0.0
H911 H 0.3862 0.22234 0.91604 0.0
H912 H 0.57591 0.28949 0.16618 0.0
H913 H 0.54169 0.29355 0.1617 0.0
H914 H 0.54532 0.26545 0.10736 0.0
H915 H 0.57953 0.26098 0.11187 0.0
H916 H 0.51874 0.31035 0.13332 0.0
H917 H 0.50844 0.23211 0.13769 0.0
H918 H 0.53058 0.24342 0.14396 0.0
H919 H 0.52444 0.23993 0.11941 0.0
C920 C 0.56949 0.28438 0.15317 0.0
C921 C 0.58037 0.27467 0.1395 0.0
C922 C 0.54994 0.28675 0.15061 0.0
C923 C 0.54095 0.27949 0.13437 0.0
C924 C 0.55195 0.27082 0.12017 0.0
H925 H 0.42022 0.26101 0.11418 0.0
H926 H 0.45425 0.26568 0.10889 0.0
C927 C 0.5715 0.26834 0.12275 0.0
C928 C 0.51995 0.27978 0.13304 0.0
H929 H 0.48114 0.25072 0.133 0.0
C930 C 0.51048 0.29733 0.13312 0.0
C931 C 0.50926 0.26276 0.13286 0.0
C932 C 0.51863 0.24347 0.13364 0.0
C933 C 0.49053 0.2983 0.13309 0.0
C934 C 0.47987 0.28127 0.13325 0.0
C935 C 0.48937 0.26375 0.13276 0.0
C936 C 0.45891 0.28105 0.1351 0.0
C937 C 0.48103 0.31751 0.13287 0.0
C938 C 0.45021 0.28839 0.15148 0.0
C939 C 0.43076 0.28575 0.15456 0.0
C940 C 0.41971 0.27557 0.14138 0.0
C941 C 0.42833 0.26888 0.12464 0.0
C942 C 0.44777 0.27155 0.12157 0.0
H943 H 0.49064 0.32864 0.12711 0.0
H944 H 0.4678 0.31723 0.12426 0.0
H945 H 0.47722 0.32156 0.14763 0.0
H946 H 0.4586 0.2954 0.16231 0.0
H947 H 0.42455 0.29103 0.16763 0.0
H948 H 0.57783 0.73696 0.88064 0.0
H949 H 0.5438 0.73344 0.88697 0.0
H950 H 0.53725 0.70187 0.83486 0.0
H951 H 0.57123 0.70517 0.82847 0.0
H952 H 0.51635 0.74797 0.86246 0.0
H953 H 0.50591 0.67062 0.87284 0.0
H954 H 0.52892 0.68188 0.8748 0.0
H955 H 0.51915 0.67647 0.85182 0.0
C956 C 0.56921 0.72896 0.8707 0.0
C957 C 0.57719 0.72141 0.854 0.0
C958 C 0.54979 0.72695 0.87436 0.0
C959 C 0.53807 0.71721 0.8615 0.0
C960 C 0.54612 0.70909 0.84517 0.0
H961 H 0.42053 0.70785 0.8334 0.0
H962 H 0.45481 0.70394 0.83754 0.0
C963 C 0.56552 0.71112 0.84147 0.0
C964 C 0.51718 0.71745 0.86395 0.0
H965 H 0.47797 0.68896 0.86629 0.0
C966 C 0.50795 0.7351 0.86362 0.0
C967 C 0.50632 0.70061 0.8653 0.0
C968 C 0.51557 0.68132 0.86639 0.0
C969 C 0.48807 0.73637 0.86379 0.0
C970 C 0.47715 0.71951 0.86478 0.0
C971 C 0.48639 0.70185 0.86559 0.0
C972 C 0.45613 0.71999 0.86373 0.0
C973 C 0.47895 0.75572 0.862 0.0
C974 C 0.44545 0.72977 0.87743 0.0
C975 C 0.42588 0.73218 0.87503 0.0
C976 C 0.41665 0.72465 0.85898 0.0
C977 C 0.42723 0.7139 0.84587 0.0
C978 C 0.44681 0.71161 0.84823 0.0
H979 H 0.48921 0.76664 0.85702 0.0
H980 H 0.46678 0.7553 0.85194 0.0
H981 H 0.47351 0.76023 0.87609 0.0
H982 H 0.45234 0.736 0.88971 0.0
H983 H 0.41808 0.74036 0.88548 0.0
H984 H 0.79137 0.91952 0.33657 0.0
H985 H 0.79587 0.95377 0.33962 0.0
H986 H 0.75858 0.95451 0.38827 0.0
H987 H 0.75413 0.92013 0.38546 0.0
H988 H 0.7646 0.97813 0.33633 0.0
H989 H 0.80265 0.98975 0.40455 0.0
H990 H 0.80269 0.96715 0.39235 0.0
H991 H 0.78227 0.97439 0.40586 0.0
C992 C 0.78442 0.92688 0.34816 0.0
C993 C 0.77226 0.91715 0.36068 0.0
C994 C 0.78705 0.94644 0.3499 0.0
C995 C 0.77766 0.95662 0.36424 0.0
C996 C 0.76622 0.94685 0.37732 0.0
H997 H 0.75358 0.07607 0.38099 0.0
H998 H 0.75763 0.04173 0.385 0.0
C999 C 0.7636 0.92723 0.37561 0.0
C1000 C 0.7779 0.97761 0.36388 0.0
H1001 H 0.78985 0.01714 0.38937 0.0
C1002 C 0.77027 0.98666 0.34785 0.0
C1003 C 0.78508 0.98864 0.37905 0.0
C1004 C 0.79379 0.97954 0.39639 0.0
C1005 C 0.7694 0.00648 0.34663 0.0
C1006 C 0.77677 0.01757 0.3617 0.0
C1007 C 0.78433 0.00856 0.37781 0.0
C1008 C 0.7764 0.03854 0.36086 0.0
C1009 C 0.76017 0.01537 0.32941 0.0
C1010 C 0.78617 0.04814 0.34638 0.0
C1011 C 0.78375 0.06765 0.34394 0.0
C1012 C 0.7717 0.07795 0.3561 0.0
C1013 C 0.76287 0.0685 0.37134 0.0
C1014 C 0.7652 0.04891 0.37368 0.0
H1015 H 0.75107 0.00506 0.32164 0.0
H1016 H 0.75132 0.02778 0.33351 0.0
H1017 H 0.77138 0.02036 0.31951 0.0
H1018 H 0.79517 0.0404 0.33657 0.0
H1019 H 0.79094 0.07457 0.33221 0.0
H1020 H 0.42555 0.28688 0.82989 0.0
H1021 H 0.45968 0.28934 0.83581 0.0
H1022 H 0.45223 0.26333 0.89079 0.0
H1023 H 0.41803 0.26053 0.8849 0.0
H1024 H 0.48127 0.30659 0.86541 0.0
H1025 H 0.48988 0.22798 0.86326 0.0
H1026 H 0.46849 0.23965 0.85526 0.0
H1027 H 0.47302 0.23693 0.88023 0.0
C1028 C 0.43112 0.28182 0.84332 0.0
C1029 C 0.41912 0.2733 0.85684 0.0
C1030 C 0.45062 0.2833 0.84669 0.0
C1031 C 0.45847 0.27626 0.8636 0.0
C1032 C 0.44645 0.26855 0.87751 0.0
H1033 H 0.57913 0.25618 0.88586 0.0
H1034 H 0.54502 0.2607 0.8911 0.0
C1035 C 0.42692 0.26703 0.87415 0.0
C1036 C 0.47936 0.27606 0.86603 0.0
H1037 H 0.51749 0.24616 0.86758 0.0
C1038 C 0.48921 0.2934 0.86606 0.0
C1039 C 0.48963 0.25881 0.86691 0.0
C1040 C 0.4798 0.23976 0.86628 0.0
C1041 C 0.50916 0.29393 0.86662 0.0
C1042 C 0.51943 0.27667 0.86683 0.0
C1043 C 0.50955 0.25937 0.86747 0.0
C1044 C 0.54037 0.27604 0.86487 0.0
C1045 C 0.51904 0.31295 0.86687 0.0
C1046 C 0.54905 0.28327 0.84843 0.0
C1047 C 0.5685 0.2807 0.84539 0.0
C1048 C 0.57959 0.27072 0.85866 0.0
C1049 C 0.57097 0.26394 0.87537 0.0
C1050 C 0.5515 0.26652 0.8784 0.0
H1051 H 0.50966 0.32423 0.87271 0.0
H1052 H 0.5323 0.31241 0.87541 0.0
H1053 H 0.52282 0.317 0.8521 0.0
H1054 H 0.54066 0.29027 0.83759 0.0
H1055 H 0.5747 0.28605 0.83235 0.0
H1056 H 0.20878 0.9255 0.33502 0.0
H1057 H 0.20627 0.95954 0.34129 0.0
H1058 H 0.23578 0.9521 0.3945 0.0
H1059 H 0.23871 0.91804 0.38817 0.0
H1060 H 0.19131 0.98174 0.37122 0.0
H1061 H 0.2699 0.98889 0.36501 0.0
H1062 H 0.25748 0.96757 0.35809 0.0
H1063 H 0.2617 0.97252 0.38279 0.0
C1064 C 0.21453 0.93104 0.34817 0.0
C1065 C 0.22419 0.91913 0.36097 0.0
C1066 C 0.21304 0.9505 0.35175 0.0
C1067 C 0.22115 0.95836 0.36818 0.0
C1068 C 0.22976 0.94634 0.38156 0.0
H1069 H 0.24501 0.07874 0.38763 0.0
H1070 H 0.23955 0.04498 0.394 0.0
C1071 C 0.23136 0.92689 0.37794 0.0
C1072 C 0.22182 0.97924 0.37046 0.0
H1073 H 0.25251 0.01679 0.37025 0.0
C1074 C 0.20468 0.98943 0.3712 0.0
C1075 C 0.2393 0.9892 0.37042 0.0
C1076 C 0.25816 0.97906 0.36888 0.0
C1077 C 0.20455 0.00937 0.37157 0.0
C1078 C 0.22202 0.0193 0.3709 0.0
C1079 C 0.23915 0.00911 0.37085 0.0
C1080 C 0.22299 0.04017 0.36853 0.0
C1081 C 0.18575 0.01962 0.37252 0.0
C1082 C 0.21536 0.04866 0.35219 0.0
C1083 C 0.21848 0.06789 0.34849 0.0
C1084 C 0.22942 0.07896 0.36101 0.0
C1085 C 0.23653 0.07059 0.37771 0.0
C1086 C 0.2334 0.05132 0.38138 0.0
H1087 H 0.17455 0.01055 0.37898 0.0
H1088 H 0.18693 0.03297 0.38085 0.0
H1089 H 0.18112 0.0233 0.35789 0.0
H1090 H 0.20766 0.04023 0.34185 0.0
H1091 H 0.21284 0.0739 0.33549 0.0
H1092 H 0.57706 0.70947 0.16711 0.0
H1093 H 0.54272 0.7054 0.1639 0.0
H1094 H 0.54351 0.73807 0.11206 0.0
H1095 H 0.57795 0.74205 0.11502 0.0
H1096 H 0.51829 0.73659 0.16384 0.0
H1097 H 0.50853 0.6931 0.09867 0.0
H1098 H 0.53084 0.69424 0.11135 0.0
H1099 H 0.52384 0.71337 0.09598 0.0
C1100 C 0.57001 0.71549 0.15482 0.0
C1101 C 0.58021 0.72618 0.14137 0.0
C1102 C 0.55039 0.71313 0.15301 0.0
C1103 C 0.54062 0.72131 0.13768 0.0
C1104 C 0.55084 0.73135 0.12381 0.0
H1105 H 0.42114 0.74357 0.11639 0.0
H1106 H 0.45567 0.73983 0.11348 0.0
C1107 C 0.5705 0.7337 0.1256 0.0
C1108 C 0.51958 0.72116 0.13746 0.0
H1109 H 0.48072 0.70715 0.11191 0.0
C1110 C 0.51007 0.73002 0.15256 0.0
C1111 C 0.50895 0.71278 0.12259 0.0
C1112 C 0.51851 0.70269 0.10628 0.0
C1113 C 0.49019 0.73091 0.15316 0.0
C1114 C 0.47952 0.72236 0.13843 0.0
C1115 C 0.48899 0.7136 0.12321 0.0
C1116 C 0.4585 0.72256 0.13875 0.0
C1117 C 0.48079 0.74136 0.16938 0.0
C1118 C 0.44866 0.71353 0.15353 0.0
C1119 C 0.42903 0.71572 0.15531 0.0
C1120 C 0.41885 0.72685 0.14221 0.0
C1121 C 0.4286 0.73497 0.12675 0.0
C1122 C 0.4483 0.73283 0.12505 0.0
H1123 H 0.49088 0.75101 0.17678 0.0
H1124 H 0.46851 0.74986 0.16426 0.0
H1125 H 0.47547 0.73091 0.17991 0.0
H1126 H 0.45628 0.70527 0.16406 0.0
H1127 H 0.42192 0.70911 0.16725 0.0
H1128 H 0.75626 0.92118 0.61418 0.0
H1129 H 0.76047 0.95548 0.61028 0.0
H1130 H 0.79701 0.95671 0.65949 0.0
H1131 H 0.79269 0.92255 0.66366 0.0
H1132 H 0.76621 0.98125 0.66154 0.0
H1133 H 0.80441 0.99002 0.59301 0.0
H1134 H 0.78385 0.97489 0.59207 0.0
H1135 H 0.8041 0.96784 0.60594 0.0
C1136 C 0.76549 0.9287 0.62394 0.0
C1137 C 0.77402 0.9192 0.63932 0.0
C1138 C 0.76798 0.94827 0.62161 0.0
C1139 C 0.77918 0.95858 0.6345 0.0
C1140 C 0.78837 0.94897 0.64935 0.0
H1141 H 0.79316 0.07755 0.6619 0.0
H1142 H 0.79765 0.04332 0.65835 0.0
C1143 C 0.78585 0.92946 0.65172 0.0
C1144 C 0.77946 0.97958 0.63402 0.0
H1145 H 0.79153 0.01804 0.60698 0.0
C1146 C 0.77189 0.9893 0.64968 0.0
C1147 C 0.78668 0.98998 0.61841 0.0
C1148 C 0.79537 0.9802 0.60144 0.0
C1149 C 0.77115 0.00915 0.65014 0.0
C1150 C 0.77853 0.0196 0.63464 0.0
C1151 C 0.78601 0.00994 0.61887 0.0
C1152 C 0.77822 0.04059 0.63468 0.0
C1153 C 0.76206 0.01877 0.66704 0.0
C1154 C 0.76654 0.05047 0.6219 0.0
C1155 C 0.76403 0.07009 0.6238 0.0
C1156 C 0.77315 0.08005 0.63854 0.0
C1157 C 0.78576 0.07025 0.65054 0.0
C1158 C 0.78833 0.0507 0.64856 0.0
H1159 H 0.75313 0.0088 0.6754 0.0
H1160 H 0.77336 0.02432 0.67655 0.0
H1161 H 0.75309 0.03092 0.66246 0.0
H1162 H 0.75869 0.04288 0.61105 0.0
H1163 H 0.75429 0.07726 0.61428 0.0
H1164 H 0.20506 0.07552 0.6612 0.0
H1165 H 0.20108 0.04122 0.6578 0.0
H1166 H 0.24139 0.0409 0.61163 0.0
H1167 H 0.2453 0.07537 0.61473 0.0
H1168 H 0.20865 0.01593 0.60674 0.0
H1169 H 0.24529 0.0069 0.67615 0.0
H1170 H 0.22503 0.02243 0.67673 0.0
H1171 H 0.24565 0.02899 0.66314 0.0
C1172 C 0.21289 0.06822 0.65014 0.0
C1173 C 0.2257 0.07809 0.6384 0.0
C1174 C 0.21061 0.04863 0.64824 0.0
C1175 C 0.22121 0.03856 0.63471 0.0
C1176 C 0.23316 0.04848 0.62221 0.0
H1177 H 0.24293 0.9189 0.61509 0.0
H1178 H 0.23932 0.95325 0.61115 0.0
C1179 C 0.23539 0.06814 0.62404 0.0
C1180 C 0.22097 0.01757 0.63471 0.0
H1181 H 0.23243 0.97931 0.66211 0.0
C1182 C 0.21385 0.00786 0.6188 0.0
C1183 C 0.22791 0.00717 0.65044 0.0
C1184 C 0.23657 0.01685 0.66753 0.0
C1185 C 0.2131 0.98791 0.61842 0.0
C1186 C 0.21987 0.97756 0.63426 0.0
C1187 C 0.22709 0.98732 0.65006 0.0
C1188 C 0.22 0.95656 0.63485 0.0
C1189 C 0.20478 0.97808 0.60129 0.0
C1190 C 0.2103 0.94707 0.64945 0.0
C1191 C 0.21247 0.92752 0.65185 0.0
C1192 C 0.22446 0.91711 0.63973 0.0
C1193 C 0.23358 0.92653 0.62464 0.0
C1194 C 0.23142 0.94613 0.62228 0.0
H1195 H 0.19601 0.98791 0.59258 0.0
H1196 H 0.2165 0.97265 0.59225 0.0
H1197 H 0.19586 0.9658 0.60563 0.0
H1198 H 0.20148 0.95491 0.65935 0.0
H1199 H 0.20519 0.92068 0.66356 0.0
H1200 H 0.16847 0.32589 0.3049 0.0
H1201 H 0.17648 0.29735 0.32297 0.0
H1202 H 0.13189 0.26654 0.29436 0.0
H1203 H 0.12401 0.29488 0.27589 0.0
H1204 H 0.15687 0.27134 0.3468 0.0
H1205 H 0.18047 0.23836 0.27889 0.0
H1206 H 0.17495 0.2633 0.28083 0.0
H1207 H 0.15614 0.24607 0.27939 0.0
C1208 C 0.16013 0.31315 0.30267 0.0
C1209 C 0.14583 0.31256 0.28869 0.0
C1210 C 0.16471 0.29686 0.31305 0.0
C1211 C 0.15503 0.27976 0.30969 0.0
C1212 C 0.13977 0.27952 0.29686 0.0
H1213 H 0.19315 0.16552 0.33832 0.0
H1214 H 0.17213 0.19188 0.32999 0.0
C1215 C 0.13527 0.29575 0.28636 0.0
C1216 C 0.1622 0.26191 0.31818 0.0
H1217 H 0.18408 0.22025 0.30657 0.0
C1218 C 0.16267 0.26007 0.33804 0.0
C1219 C 0.16982 0.24728 0.30668 0.0
C1220 C 0.17052 0.24882 0.28527 0.0
C1221 C 0.17074 0.244 0.34672 0.0
C1222 C 0.17876 0.22962 0.3352 0.0
C1223 C 0.1778 0.23125 0.31536 0.0
C1224 C 0.18963 0.21345 0.34318 0.0
C1225 C 0.17068 0.24261 0.36811 0.0
C1226 C 0.20627 0.21681 0.35365 0.0
C1227 C 0.21833 0.20179 0.35844 0.0
C1228 C 0.21405 0.18313 0.35266 0.0
C1229 C 0.19691 0.17971 0.34293 0.0
C1230 C 0.18485 0.19475 0.33819 0.0
H1231 H 0.15904 0.25122 0.37441 0.0
H1232 H 0.1691 0.22765 0.37286 0.0
H1233 H 0.18436 0.24816 0.37368 0.0
H1234 H 0.21047 0.23116 0.35728 0.0
H1235 H 0.23141 0.20494 0.36592 0.0
H1236 H 0.3223 0.69065 0.86584 0.0
H1237 H 0.29437 0.67086 0.85917 0.0
H1238 H 0.2647 0.72017 0.83786 0.0
H1239 H 0.29184 0.74004 0.84595 0.0
H1240 H 0.24074 0.69927 0.85449 0.0
H1241 H 0.28346 0.65181 0.80801 0.0
H1242 H 0.29046 0.65125 0.83248 0.0
H1243 H 0.29342 0.67271 0.81882 0.0
C1244 C 0.30964 0.69722 0.86004 0.0
C1245 C 0.30921 0.71681 0.85629 0.0
C1246 C 0.29377 0.68589 0.85603 0.0
C1247 C 0.27759 0.69385 0.8474 0.0
C1248 C 0.27697 0.71359 0.84444 0.0
H1249 H 0.20475 0.6514 0.7633 0.0
H1250 H 0.23042 0.66114 0.78432 0.0
C1251 C 0.29252 0.72497 0.84905 0.0
C1252 C 0.2616 0.68188 0.8404 0.0
H1253 H 0.25081 0.64597 0.80961 0.0
C1254 C 0.24294 0.68756 0.84471 0.0
C1255 C 0.26445 0.66655 0.82764 0.0
C1256 C 0.284 0.66031 0.82131 0.0
C1257 C 0.22716 0.6794 0.83562 0.0
C1258 C 0.23003 0.66424 0.82267 0.0
C1259 C 0.2486 0.6576 0.81948 0.0
C1260 C 0.21452 0.65677 0.81037 0.0
C1261 C 0.20783 0.68811 0.83903 0.0
C1262 C 0.19705 0.65061 0.81789 0.0
C1263 C 0.18206 0.64564 0.80576 0.0
C1264 C 0.1846 0.64597 0.78596 0.0
C1265 C 0.20242 0.65093 0.77852 0.0
C1266 C 0.21713 0.65648 0.79056 0.0
H1267 H 0.2089 0.70246 0.84551 0.0
H1268 H 0.19971 0.68938 0.82556 0.0
H1269 H 0.19968 0.67899 0.84897 0.0
H1270 H 0.19485 0.64999 0.8331 0.0
H1271 H 0.16848 0.64164 0.81183 0.0
H1272 H 0.82907 0.67005 0.30808 0.0
H1273 H 0.82207 0.69832 0.32695 0.0
H1274 H 0.86856 0.72792 0.30012 0.0
H1275 H 0.87538 0.69987 0.28079 0.0
H1276 H 0.8418 0.72262 0.35191 0.0
H1277 H 0.82204 0.75879 0.2844 0.0
H1278 H 0.82652 0.73362 0.28563 0.0
H1279 H 0.84602 0.75014 0.28545 0.0
C1280 C 0.83803 0.68245 0.30641 0.0
C1281 C 0.85254 0.68285 0.29266 0.0
C1282 C 0.83404 0.69858 0.31725 0.0
C1283 C 0.84454 0.71532 0.31461 0.0
C1284 C 0.86003 0.71526 0.30205 0.0
H1285 H 0.80871 0.82972 0.34514 0.0
H1286 H 0.82978 0.80319 0.33753 0.0
C1287 C 0.86392 0.6992 0.29105 0.0
C1288 C 0.83795 0.73322 0.32345 0.0
H1289 H 0.8181 0.77605 0.31253 0.0
C1290 C 0.83679 0.73441 0.34334 0.0
C1291 C 0.83135 0.74853 0.3122 0.0
C1292 C 0.83136 0.74774 0.29074 0.0
C1293 C 0.82896 0.75045 0.35228 0.0
C1294 C 0.82192 0.7655 0.34098 0.0
C1295 C 0.82365 0.76454 0.32115 0.0
C1296 C 0.81111 0.78165 0.34905 0.0
C1297 C 0.82813 0.75109 0.37368 0.0
C1298 C 0.79382 0.77835 0.35843 0.0
C1299 C 0.78173 0.79347 0.36279 0.0
C1300 C 0.78663 0.81215 0.35766 0.0
C1301 C 0.80444 0.8155 0.3492 0.0
C1302 C 0.81654 0.80037 0.34488 0.0
H1303 H 0.83923 0.7419 0.38014 0.0
H1304 H 0.82996 0.76581 0.37905 0.0
H1305 H 0.81407 0.74578 0.37847 0.0
H1306 H 0.78915 0.76399 0.3614 0.0
H1307 H 0.76813 0.79038 0.36932 0.0
H1308 H 0.79541 0.37745 0.77815 0.0
H1309 H 0.76726 0.37031 0.79716 0.0
H1310 H 0.79919 0.32878 0.82897 0.0
H1311 H 0.8275 0.33608 0.81031 0.0
H1312 H 0.75176 0.33533 0.79549 0.0
H1313 H 0.76735 0.35274 0.87057 0.0
H1314 H 0.78118 0.36213 0.85108 0.0
H1315 H 0.7856 0.33852 0.85984 0.0
C1316 C 0.7966 0.36715 0.78952 0.0
C1317 C 0.81366 0.35718 0.79257 0.0
C1318 C 0.78049 0.36313 0.80041 0.0
C1319 C 0.78114 0.3491 0.81456 0.0
C1320 C 0.79844 0.33995 0.81841 0.0
H1321 H 0.70599 0.27065 0.86696 0.0
H1322 H 0.7322 0.29177 0.85847 0.0
C1323 C 0.81461 0.34404 0.8076 0.0
C1324 C 0.76325 0.34193 0.82308 0.0
H1325 H 0.74185 0.33047 0.86511 0.0
C1326 C 0.74942 0.33462 0.81071 0.0
C1327 C 0.76032 0.34085 0.84293 0.0
C1328 C 0.77433 0.34915 0.85687 0.0
C1329 C 0.73314 0.32548 0.81761 0.0
C1330 C 0.7304 0.32396 0.83747 0.0
C1331 C 0.74396 0.33173 0.84989 0.0
C1332 C 0.71427 0.31303 0.84539 0.0
C1333 C 0.7195 0.31667 0.80355 0.0
C1334 C 0.69545 0.31838 0.84152 0.0
C1335 C 0.68042 0.30625 0.84618 0.0
C1336 C 0.68398 0.28866 0.85497 0.0
C1337 C 0.70275 0.28403 0.86008 0.0
C1338 C 0.71776 0.29611 0.8553 0.0
H1339 H 0.72576 0.31562 0.78908 0.0
H1340 H 0.71519 0.30223 0.8082 0.0
H1341 H 0.70653 0.32558 0.80259 0.0
H1342 H 0.69245 0.33157 0.83419 0.0
H1343 H 0.66611 0.31037 0.84226 0.0
H1344 H 0.18409 0.83052 0.65351 0.0
H1345 H 0.16284 0.80432 0.66178 0.0
H1346 H 0.20419 0.76409 0.64118 0.0
H1347 H 0.22555 0.79016 0.63268 0.0
H1348 H 0.1634 0.755 0.63345 0.0
H1349 H 0.18026 0.77233 0.70888 0.0
H1350 H 0.17123 0.79137 0.69445 0.0
H1351 H 0.19415 0.7814 0.68933 0.0
C1352 C 0.18855 0.81613 0.65038 0.0
C1353 C 0.20667 0.81241 0.64274 0.0
C1354 C 0.17637 0.80119 0.65511 0.0
C1355 C 0.18211 0.78233 0.65232 0.0
C1356 C 0.19956 0.7786 0.64345 0.0
H1357 H 0.15905 0.6699 0.68764 0.0
H1358 H 0.16528 0.6983 0.66891 0.0
C1359 C 0.21176 0.79352 0.63867 0.0
C1360 C 0.17111 0.76655 0.66071 0.0
H1361 H 0.16092 0.74593 0.70333 0.0
C1362 C 0.16263 0.75306 0.64872 0.0
C1363 C 0.17016 0.76415 0.68063 0.0
C1364 C 0.17951 0.77796 0.69415 0.0
C1365 C 0.1534 0.73701 0.6562 0.0
C1366 C 0.15308 0.73425 0.67613 0.0
C1367 C 0.16105 0.7481 0.68806 0.0
C1368 C 0.14634 0.7164 0.68505 0.0
C1369 C 0.14418 0.72316 0.6427 0.0
C1370 C 0.1335 0.71703 0.70032 0.0
C1371 C 0.13016 0.70084 0.71132 0.0
C1372 C 0.13961 0.68373 0.70722 0.0
C1373 C 0.15151 0.68284 0.69118 0.0
C1374 C 0.15496 0.69906 0.68031 0.0
H1375 H 0.13958 0.73035 0.62942 0.0
H1376 H 0.15466 0.71206 0.63873 0.0
H1377 H 0.13166 0.71613 0.64927 0.0
H1378 H 0.12676 0.73029 0.70429 0.0
H1379 H 0.12083 0.70198 0.72351 0.0
H1380 H 0.70425 0.72806 0.12286 0.0
H1381 H 0.73267 0.70935 0.12975 0.0
H1382 H 0.70045 0.67461 0.16863 0.0
H1383 H 0.6719 0.693 0.16161 0.0
H1384 H 0.74778 0.70867 0.16508 0.0
H1385 H 0.73284 0.635 0.14209 0.0
H1386 H 0.71911 0.65507 0.13386 0.0
H1387 H 0.71428 0.64461 0.15669 0.0
C1388 C 0.70308 0.71616 0.13255 0.0
C1389 C 0.68582 0.71213 0.14182 0.0
C1390 C 0.71934 0.70546 0.13643 0.0
C1391 C 0.71866 0.69048 0.14957 0.0
C1392 C 0.70124 0.68582 0.15812 0.0
H1393 H 0.79192 0.63302 0.2258 0.0
H1394 H 0.76634 0.64306 0.20461 0.0
C1395 C 0.68494 0.69647 0.1542 0.0
C1396 C 0.7365 0.68159 0.15639 0.0
H1397 H 0.75785 0.63893 0.16524 0.0
C1398 C 0.75017 0.69345 0.16477 0.0
C1399 C 0.7395 0.66173 0.15608 0.0
C1400 C 0.72573 0.64838 0.14652 0.0
C1401 C 0.76632 0.68596 0.17369 0.0
C1402 C 0.76906 0.66604 0.1739 0.0
C1403 C 0.75571 0.65418 0.165 0.0
C1404 C 0.78489 0.65738 0.18472 0.0
C1405 C 0.77977 0.69938 0.18369 0.0
C1406 C 0.80387 0.66145 0.18011 0.0
C1407 C 0.81855 0.65587 0.19228 0.0
C1408 C 0.81449 0.64599 0.20918 0.0
C1409 C 0.79556 0.64074 0.21299 0.0
C1410 C 0.7809 0.64641 0.20086 0.0
H1411 H 0.77355 0.71378 0.18547 0.0
H1412 H 0.78368 0.69382 0.19794 0.0
H1413 H 0.79298 0.7008 0.1752 0.0
H1414 H 0.80725 0.66962 0.16751 0.0
H1415 H 0.83299 0.65996 0.18881 0.0
H1416 H 0.76882 0.20693 0.63198 0.0
H1417 H 0.78903 0.23356 0.64117 0.0
H1418 H 0.82862 0.19481 0.66736 0.0
H1419 H 0.80839 0.16803 0.65844 0.0
H1420 H 0.81492 0.22229 0.69162 0.0
H1421 H 0.84033 0.25555 0.62494 0.0
H1422 H 0.81515 0.25136 0.62526 0.0
H1423 H 0.83128 0.23154 0.62585 0.0
C1424 C 0.78204 0.20399 0.63931 0.0
C1425 C 0.78688 0.18535 0.64465 0.0
C1426 C 0.79367 0.21925 0.64442 0.0
C1427 C 0.81041 0.21614 0.65479 0.0
C1428 C 0.8158 0.19748 0.65925 0.0
H1429 H 0.87339 0.29685 0.72526 0.0
H1430 H 0.86585 0.26875 0.70627 0.0
C1431 C 0.80419 0.1822 0.65416 0.0
C1432 C 0.82068 0.2324 0.66334 0.0
H1433 H 0.84203 0.27475 0.65313 0.0
C1434 C 0.82117 0.23361 0.68322 0.0
C1435 C 0.82859 0.2472 0.65231 0.0
C1436 C 0.82899 0.24631 0.6309 0.0
C1437 C 0.82865 0.24958 0.69243 0.0
C1438 C 0.8363 0.26457 0.68142 0.0
C1439 C 0.83624 0.26319 0.66151 0.0
C1440 C 0.8432 0.28227 0.69046 0.0
C1441 C 0.82742 0.25064 0.71384 0.0
C1442 C 0.83373 0.29947 0.68703 0.0
C1443 C 0.83815 0.31563 0.69768 0.0
C1444 C 0.85208 0.3148 0.71201 0.0
C1445 C 0.8624 0.29787 0.71452 0.0
C1446 C 0.85808 0.28179 0.70373 0.0
H1447 H 0.81726 0.24007 0.71971 0.0
H1448 H 0.84162 0.24767 0.72003 0.0
H1449 H 0.82291 0.26502 0.71852 0.0
H1450 H 0.82226 0.30015 0.67677 0.0
H1451 H 0.83 0.32846 0.69533 0.0
H1452 H 0.2043 0.36684 0.22149 0.0
H1453 H 0.23027 0.35705 0.20074 0.0
H1454 H 0.19089 0.32527 0.16615 0.0
H1455 H 0.16478 0.33479 0.18699 0.0
H1456 H 0.22008 0.30374 0.18019 0.0
H1457 H 0.2491 0.36901 0.14732 0.0
H1458 H 0.24628 0.37108 0.17258 0.0
H1459 H 0.22565 0.36803 0.15776 0.0
C1460 C 0.20104 0.35815 0.20922 0.0
C1461 C 0.18247 0.35144 0.20604 0.0
C1462 C 0.21592 0.35269 0.19725 0.0
C1463 C 0.21249 0.34057 0.1818 0.0
C1464 C 0.19381 0.33473 0.17795 0.0
H1465 H 0.29621 0.26861 0.12387 0.0
H1466 H 0.26695 0.28639 0.1299 0.0
C1467 C 0.17891 0.34017 0.1899 0.0
C1468 C 0.22867 0.3318 0.17156 0.0
H1469 H 0.27 0.34188 0.14818 0.0
C1470 C 0.23081 0.31203 0.17284 0.0
C1471 C 0.2427 0.34267 0.16215 0.0
C1472 C 0.24075 0.36386 0.15969 0.0
C1473 C 0.24706 0.3029 0.16582 0.0
C1474 C 0.26139 0.31383 0.15686 0.0
C1475 C 0.25897 0.33354 0.15501 0.0
C1476 C 0.27956 0.30512 0.15078 0.0
C1477 C 0.2492 0.28179 0.16901 0.0
C1478 C 0.29656 0.31046 0.15973 0.0
C1479 C 0.31335 0.30048 0.15618 0.0
C1480 C 0.31341 0.28491 0.14364 0.0
C1481 C 0.2966 0.28036 0.1338 0.0
C1482 C 0.27985 0.29046 0.13726 0.0
H1483 H 0.23893 0.27634 0.1797 0.0
H1484 H 0.24657 0.27419 0.15545 0.0
H1485 H 0.26381 0.27828 0.17385 0.0
H1486 H 0.29665 0.32179 0.17016 0.0
H1487 H 0.32606 0.30444 0.16392 0.0
H1488 H 0.34814 0.18482 0.16614 0.0
H1489 H 0.34003 0.16355 0.19241 0.0
H1490 H 0.36121 0.20472 0.23252 0.0
H1491 H 0.36966 0.22597 0.20643 0.0
H1492 H 0.36883 0.16567 0.24257 0.0
H1493 H 0.29304 0.1792 0.22394 0.0
H1494 H 0.30765 0.16958 0.20534 0.0
H1495 H 0.31224 0.19308 0.21416 0.0
C1496 C 0.35143 0.18921 0.18052 0.0
C1497 C 0.35924 0.20725 0.1842 0.0
C1498 C 0.34675 0.17704 0.1955 0.0
C1499 C 0.34969 0.18275 0.21438 0.0
C1500 C 0.35877 0.2001 0.21803 0.0
H1501 H 0.31335 0.16235 0.32721 0.0
H1502 H 0.3321 0.16867 0.29878 0.0
C1503 C 0.36353 0.21225 0.20308 0.0
C1504 C 0.34145 0.17181 0.23033 0.0
H1505 H 0.29896 0.16075 0.25089 0.0
C1506 C 0.35356 0.16436 0.24432 0.0
C1507 C 0.32152 0.17018 0.23256 0.0
C1508 C 0.30779 0.17853 0.21832 0.0
C1509 C 0.34623 0.15555 0.26069 0.0
C1510 C 0.3263 0.15455 0.26322 0.0
C1511 C 0.31424 0.16143 0.24889 0.0
C1512 C 0.31741 0.14811 0.28121 0.0
C1513 C 0.35989 0.14754 0.27513 0.0
C1514 C 0.30296 0.13435 0.28089 0.0
C1515 C 0.29199 0.13091 0.29708 0.0
C1516 C 0.29525 0.14119 0.31391 0.0
C1517 C 0.31047 0.15414 0.31451 0.0
C1518 C 0.32135 0.15767 0.29828 0.0
H1519 H 0.37357 0.14341 0.26839 0.0
H1520 H 0.36302 0.15856 0.28596 0.0
H1521 H 0.3538 0.13495 0.28243 0.0
H1522 H 0.29962 0.12688 0.26785 0.0
H1523 H 0.28045 0.12076 0.29615 0.0
H1524 H 0.3496 0.76356 0.79161 0.0
H1525 H 0.34257 0.78327 0.76419 0.0
H1526 H 0.35836 0.83337 0.79594 0.0
H1527 H 0.36404 0.81359 0.82405 0.0
H1528 H 0.32827 0.84092 0.7797 0.0
H1529 H 0.37125 0.80791 0.72396 0.0
H1530 H 0.35729 0.78934 0.73422 0.0
H1531 H 0.37455 0.80181 0.74863 0.0
C1532 C 0.35197 0.77874 0.79265 0.0
C1533 C 0.35741 0.78705 0.80993 0.0
C1534 C 0.34813 0.79004 0.77683 0.0
C1535 C 0.35037 0.80986 0.77769 0.0
C1536 C 0.35659 0.81812 0.79481 0.0
H1537 H 0.31211 0.85616 0.66836 0.0
H1538 H 0.33385 0.85062 0.69504 0.0
C1539 C 0.35988 0.80683 0.81086 0.0
C1540 C 0.34397 0.82186 0.76148 0.0
H1541 H 0.34067 0.8215 0.71315 0.0
C1542 C 0.33142 0.83696 0.76515 0.0
C1543 C 0.34849 0.81742 0.74237 0.0
C1544 C 0.36384 0.80338 0.73715 0.0
C1545 C 0.32205 0.84649 0.75036 0.0
C1546 C 0.32441 0.84004 0.73143 0.0
C1547 C 0.33827 0.82616 0.72765 0.0
C1548 C 0.3115 0.84601 0.71576 0.0
C1549 C 0.30958 0.86321 0.75533 0.0
C1550 C 0.29169 0.84551 0.71843 0.0
C1551 C 0.27935 0.8493 0.70339 0.0
C1552 C 0.2865 0.8529 0.68514 0.0
C1553 C 0.30626 0.85343 0.68234 0.0
C1554 C 0.31866 0.85024 0.69757 0.0
H1555 H 0.31573 0.87131 0.76742 0.0
H1556 H 0.30775 0.87304 0.74313 0.0
H1557 H 0.29542 0.85801 0.75994 0.0
H1558 H 0.28566 0.84146 0.73199 0.0
H1559 H 0.26416 0.84845 0.70586 0.0
H1560 H 0.68971 0.83281 0.32567 0.0
H1561 H 0.67228 0.82711 0.29619 0.0
H1562 H 0.70554 0.87016 0.26799 0.0
H1563 H 0.72342 0.87565 0.2973 0.0
H1564 H 0.65102 0.84892 0.27033 0.0
H1565 H 0.71819 0.82202 0.23829 0.0
H1566 H 0.71596 0.8269 0.26334 0.0
H1567 H 0.71904 0.84607 0.24674 0.0
C1568 C 0.69314 0.84129 0.3133 0.0
C1569 C 0.7082 0.85444 0.31373 0.0
C1570 C 0.68312 0.83804 0.29647 0.0
C1571 C 0.68791 0.84793 0.27984 0.0
C1572 C 0.70193 0.86209 0.28059 0.0
H1573 H 0.66003 0.81324 0.16417 0.0
H1574 H 0.66838 0.83403 0.19071 0.0
C1575 C 0.71209 0.86523 0.29736 0.0
C1576 C 0.67951 0.84205 0.26146 0.0
H1577 H 0.69079 0.82058 0.21949 0.0
C1578 C 0.6597 0.84291 0.25911 0.0
C1579 C 0.6909 0.83416 0.24687 0.0
C1580 C 0.71218 0.83204 0.24891 0.0
C1581 C 0.65094 0.83576 0.24264 0.0
C1582 C 0.66231 0.82737 0.22835 0.0
C1583 C 0.68214 0.82715 0.23043 0.0
C1584 C 0.65408 0.81704 0.21197 0.0
C1585 C 0.62963 0.83708 0.24078 0.0
C1586 C 0.64292 0.80081 0.21508 0.0
C1587 C 0.63814 0.78888 0.19996 0.0
C1588 C 0.64459 0.79287 0.18146 0.0
C1589 C 0.65488 0.80971 0.17824 0.0
C1590 C 0.65965 0.82163 0.19338 0.0
H1591 H 0.62382 0.84894 0.24943 0.0
H1592 H 0.62532 0.83915 0.22573 0.0
H1593 H 0.62314 0.82369 0.24598 0.0
H1594 H 0.63881 0.79676 0.22935 0.0
H1595 H 0.63018 0.77605 0.20295 0.0
H1596 H 0.72397 0.12179 0.70247 0.0
H1597 H 0.70548 0.12739 0.73131 0.0
H1598 H 0.67032 0.16749 0.70109 0.0
H1599 H 0.68844 0.16171 0.67213 0.0
H1600 H 0.70543 0.1619 0.74758 0.0
H1601 H 0.63108 0.14064 0.73341 0.0
H1602 H 0.65071 0.13271 0.71887 0.0
H1603 H 0.64038 0.15581 0.71517 0.0
C1604 C 0.712 0.13144 0.70182 0.0
C1605 C 0.70781 0.14145 0.68504 0.0
C1606 C 0.70141 0.13458 0.71832 0.0
C1607 C 0.68642 0.14774 0.71834 0.0
C1608 C 0.68153 0.15695 0.70134 0.0
H1609 H 0.63259 0.2234 0.79455 0.0
H1610 H 0.64131 0.20249 0.76826 0.0
C1611 C 0.69204 0.15374 0.6848 0.0
C1612 C 0.67796 0.15406 0.73655 0.0
H1613 H 0.63583 0.16324 0.75886 0.0
C1614 C 0.69024 0.16181 0.75023 0.0
C1615 C 0.65813 0.15408 0.7399 0.0
C1616 C 0.64434 0.14518 0.72612 0.0
C1617 C 0.68321 0.17044 0.76673 0.0
C1618 C 0.66334 0.17101 0.76981 0.0
C1619 C 0.65105 0.16272 0.75646 0.0
C1620 C 0.65522 0.18163 0.78603 0.0
C1621 C 0.69708 0.17979 0.78019 0.0
C1622 C 0.65947 0.17639 0.80479 0.0
C1623 C 0.65467 0.1884 0.81986 0.0
C1624 C 0.64538 0.20576 0.8164 0.0
C1625 C 0.63987 0.21022 0.79771 0.0
C1626 C 0.64478 0.19825 0.78265 0.0
H1627 H 0.71145 0.18135 0.77381 0.0
H1628 H 0.69194 0.19407 0.7845 0.0
H1629 H 0.69847 0.17097 0.79319 0.0
H1630 H 0.66725 0.16343 0.80769 0.0
H1631 H 0.65891 0.18442 0.83411 0.0
H1632 H 0.77317 0.79284 0.63165 0.0
H1633 H 0.79435 0.76674 0.64021 0.0
H1634 H 0.83394 0.80656 0.66475 0.0
H1635 H 0.81268 0.83282 0.65657 0.0
H1636 H 0.8335 0.75741 0.63387 0.0
H1637 H 0.81727 0.77312 0.70973 0.0
H1638 H 0.80402 0.78357 0.69045 0.0
H1639 H 0.82728 0.79236 0.69628 0.0
C1640 C 0.78651 0.79613 0.63859 0.0
C1641 C 0.79106 0.8149 0.64375 0.0
C1642 C 0.79864 0.78118 0.64341 0.0
C1643 C 0.81551 0.78472 0.65341 0.0
C1644 C 0.82079 0.80354 0.65732 0.0
H1645 H 0.87712 0.70182 0.72147 0.0
H1646 H 0.87103 0.73052 0.70293 0.0
C1647 C 0.80863 0.81851 0.6526 0.0
C1648 C 0.82638 0.76862 0.66144 0.0
H1649 H 0.83657 0.74683 0.7035 0.0
C1650 C 0.83439 0.75516 0.64909 0.0
C1651 C 0.82745 0.76574 0.68131 0.0
C1652 C 0.81844 0.77934 0.69527 0.0
C1653 C 0.84323 0.73869 0.65612 0.0
C1654 C 0.84373 0.73553 0.67597 0.0
C1655 C 0.83627 0.74933 0.68829 0.0
C1656 C 0.85025 0.7174 0.68444 0.0
C1657 C 0.85181 0.7248 0.64225 0.0
C1658 C 0.84095 0.70035 0.67988 0.0
C1659 C 0.84444 0.68389 0.69041 0.0
C1660 C 0.85711 0.68425 0.70587 0.0
C1661 C 0.86718 0.70108 0.70973 0.0
C1662 C 0.86376 0.7175 0.69912 0.0
H1663 H 0.85607 0.73197 0.62885 0.0
H1664 H 0.86443 0.71758 0.6484 0.0
H1665 H 0.84107 0.71383 0.63862 0.0
H1666 H 0.83015 0.70002 0.66892 0.0
H1667 H 0.83641 0.67119 0.68707 0.0
H1668 H 0.67109 0.31126 0.1383 0.0
H1669 H 0.69815 0.33248 0.14406 0.0
H1670 H 0.73305 0.28388 0.15774 0.0
H1671 H 0.70665 0.26281 0.15051 0.0
H1672 H 0.71505 0.34055 0.17347 0.0
H1673 H 0.771 0.31099 0.1283 0.0
H1674 H 0.74657 0.30365 0.1257 0.0
H1675 H 0.76218 0.29173 0.14229 0.0
C1676 C 0.68472 0.30518 0.14208 0.0
C1677 C 0.68688 0.28543 0.14379 0.0
C1678 C 0.70018 0.31729 0.1454 0.0
C1679 C 0.71791 0.30986 0.15093 0.0
C1680 C 0.71991 0.29006 0.15265 0.0
H1681 H 0.79006 0.35063 0.23545 0.0
H1682 H 0.76378 0.3429 0.21447 0.0
C1683 C 0.7047 0.27798 0.14874 0.0
C1684 C 0.73371 0.3226 0.15699 0.0
H1685 H 0.78209 0.32471 0.15871 0.0
C1686 C 0.72968 0.33737 0.16981 0.0
C1687 C 0.75287 0.31922 0.15178 0.0
C1688 C 0.7583 0.30568 0.13606 0.0
C1689 C 0.74428 0.34756 0.17879 0.0
C1690 C 0.76343 0.3421 0.17577 0.0
C1691 C 0.76746 0.32859 0.16162 0.0
C1692 C 0.77915 0.34861 0.18836 0.0
C1693 C 0.73887 0.36391 0.19157 0.0
C1694 C 0.79697 0.35375 0.18086 0.0
C1695 C 0.81236 0.35742 0.19295 0.0
C1696 C 0.81007 0.35641 0.21275 0.0
C1697 C 0.79215 0.35188 0.22024 0.0
C1698 C 0.77699 0.34765 0.2082 0.0
H1699 H 0.72626 0.3715 0.18582 0.0
H1700 H 0.73486 0.35835 0.20577 0.0
H1701 H 0.75066 0.37427 0.1932 0.0
H1702 H 0.79912 0.35449 0.16563 0.0
H1703 H 0.82607 0.36085 0.18683 0.0
H1704 H 0.16225 0.3259 0.68784 0.0
H1705 H 0.1686 0.29717 0.6696 0.0
H1706 H 0.12976 0.26579 0.70516 0.0
H1707 H 0.12364 0.29441 0.72383 0.0
H1708 H 0.16414 0.24993 0.70425 0.0
H1709 H 0.14203 0.26502 0.63041 0.0
H1710 H 0.15722 0.28329 0.63963 0.0
H1711 H 0.13427 0.2793 0.65028 0.0
C1712 C 0.15469 0.31301 0.69153 0.0
C1713 C 0.14258 0.31241 0.70743 0.0
C1714 C 0.15822 0.2966 0.68095 0.0
C1715 C 0.1495 0.27936 0.68586 0.0
C1716 C 0.13658 0.27897 0.70106 0.0
H1717 H 0.18685 0.16462 0.65534 0.0
H1718 H 0.16566 0.19074 0.66407 0.0
C1719 C 0.13313 0.29534 0.71174 0.0
C1720 C 0.15602 0.26138 0.67705 0.0
H1721 H 0.16533 0.24001 0.63446 0.0
C1722 C 0.16401 0.24757 0.68901 0.0
C1723 C 0.15597 0.25839 0.65716 0.0
C1724 C 0.14673 0.27223 0.64366 0.0
C1725 C 0.17281 0.23133 0.68163 0.0
C1726 C 0.17337 0.22867 0.66171 0.0
C1727 C 0.16484 0.24212 0.64972 0.0
C1728 C 0.18418 0.21276 0.65326 0.0
C1729 C 0.18231 0.21764 0.69516 0.0
C1730 C 0.20111 0.2165 0.64343 0.0
C1731 C 0.21323 0.20163 0.63835 0.0
C1732 C 0.2086 0.18276 0.64305 0.0
C1733 C 0.19095 0.179 0.65169 0.0
C1734 C 0.17882 0.19389 0.65671 0.0
H1735 H 0.18356 0.22357 0.70974 0.0
H1736 H 0.1738 0.2044 0.69598 0.0
H1737 H 0.19675 0.21385 0.69003 0.0
H1738 H 0.20544 0.231 0.64061 0.0
H1739 H 0.22664 0.20504 0.63159 0.0
H1740 H 0.20806 0.63057 0.23148 0.0
H1741 H 0.23504 0.63957 0.21153 0.0
H1742 H 0.19662 0.65656 0.16694 0.0
H1743 H 0.16949 0.64787 0.18683 0.0
H1744 H 0.24794 0.63106 0.17306 0.0
H1745 H 0.22444 0.70591 0.18318 0.0
H1746 H 0.21508 0.6866 0.19719 0.0
H1747 H 0.20708 0.69006 0.17319 0.0
C1748 C 0.20531 0.63585 0.21728 0.0
C1749 C 0.18659 0.63884 0.21089 0.0
C1750 C 0.22077 0.64094 0.20589 0.0
C1751 C 0.21777 0.64903 0.18794 0.0
C1752 C 0.19918 0.6506 0.18089 0.0
H1753 H 0.29599 0.71995 0.12385 0.0
H1754 H 0.26903 0.69943 0.13141 0.0
C1755 C 0.18371 0.6456 0.19229 0.0
C1756 C 0.23386 0.65783 0.17765 0.0
H1757 H 0.25212 0.70099 0.1654 0.0
C1758 C 0.24883 0.64633 0.1712 0.0
C1759 C 0.23497 0.67775 0.17535 0.0
C1760 C 0.21964 0.69088 0.1827 0.0
C1761 C 0.26498 0.6543 0.16252 0.0
C1762 C 0.26625 0.67427 0.16063 0.0
C1763 C 0.25106 0.68567 0.16673 0.0
C1764 C 0.28361 0.68399 0.15366 0.0
C1765 C 0.28046 0.64128 0.15546 0.0
C1766 C 0.30092 0.68183 0.16335 0.0
C1767 C 0.31641 0.69347 0.15899 0.0
C1768 C 0.31477 0.70771 0.14505 0.0
C1769 C 0.29771 0.70921 0.13474 0.0
C1770 C 0.28228 0.69746 0.13902 0.0
H1771 H 0.27481 0.62691 0.15215 0.0
H1772 H 0.28743 0.6471 0.14255 0.0
H1773 H 0.2914 0.63967 0.16671 0.0
H1774 H 0.30216 0.67186 0.17501 0.0
H1775 H 0.32932 0.69198 0.16724 0.0
H1776 H 0.83738 0.32606 0.30949 0.0
H1777 H 0.83133 0.29677 0.32693 0.0
H1778 H 0.86737 0.26597 0.28806 0.0
H1779 H 0.87316 0.29517 0.27021 0.0
H1780 H 0.83248 0.25107 0.29016 0.0
H1781 H 0.85916 0.26224 0.36321 0.0
H1782 H 0.84405 0.28128 0.35558 0.0
H1783 H 0.86626 0.27713 0.34355 0.0
C1784 C 0.84441 0.31316 0.30489 0.0
C1785 C 0.85559 0.31292 0.28832 0.0
C1786 C 0.84105 0.29642 0.31501 0.0
C1787 C 0.84905 0.2792 0.30893 0.0
C1788 C 0.86112 0.27913 0.29305 0.0
H1789 H 0.81097 0.16394 0.33619 0.0
H1790 H 0.83192 0.19015 0.32716 0.0
C1791 C 0.86439 0.29583 0.28284 0.0
C1792 C 0.84251 0.26102 0.31731 0.0
H1793 H 0.8352 0.23788 0.35935 0.0
C1794 C 0.83344 0.248 0.30523 0.0
C1795 C 0.84363 0.25711 0.33701 0.0
C1796 C 0.85398 0.27011 0.35055 0.0
C1797 C 0.82468 0.23163 0.31238 0.0
C1798 C 0.82527 0.22802 0.33214 0.0
C1799 C 0.83482 0.24071 0.34421 0.0
C1800 C 0.81473 0.21187 0.34049 0.0
C1801 C 0.81402 0.21884 0.29882 0.0
C1802 C 0.79869 0.21535 0.35179 0.0
C1803 C 0.78673 0.20041 0.35707 0.0
C1804 C 0.79062 0.18174 0.35108 0.0
C1805 C 0.80744 0.17817 0.34085 0.0
C1806 C 0.81942 0.19312 0.33565 0.0
H1807 H 0.81186 0.22559 0.28471 0.0
H1808 H 0.82224 0.20556 0.29666 0.0
H1809 H 0.79991 0.21494 0.30473 0.0
H1810 H 0.79488 0.22974 0.3557 0.0
H1811 H 0.77397 0.20365 0.36506 0.0
H1812 H 0.20706 0.36541 0.76635 0.0
H1813 H 0.23371 0.35804 0.78732 0.0
H1814 H 0.19467 0.33847 0.83032 0.0
H1815 H 0.16786 0.34539 0.80927 0.0
H1816 H 0.24486 0.36783 0.82471 0.0
H1817 H 0.22625 0.29127 0.81778 0.0
H1818 H 0.21562 0.30932 0.80304 0.0
H1819 H 0.20781 0.30621 0.82716 0.0
C1820 C 0.20408 0.3598 0.78037 0.0
C1821 C 0.18534 0.35565 0.786 0.0
C1822 C 0.21935 0.35566 0.79236 0.0
C1823 C 0.21615 0.34738 0.8102 0.0
C1824 C 0.19742 0.34451 0.81644 0.0
H1825 H 0.2988 0.28396 0.87661 0.0
H1826 H 0.2708 0.30315 0.86943 0.0
C1827 C 0.18213 0.34851 0.8044 0.0
C1828 C 0.23246 0.34006 0.8213 0.0
H1829 H 0.25332 0.29873 0.83556 0.0
C1830 C 0.24665 0.35275 0.8273 0.0
C1831 C 0.23477 0.32036 0.82456 0.0
C1832 C 0.22042 0.30594 0.81769 0.0
C1833 C 0.26326 0.3462 0.83627 0.0
C1834 C 0.26577 0.32646 0.83903 0.0
C1835 C 0.2513 0.31388 0.83356 0.0
C1836 C 0.28383 0.31815 0.84597 0.0
C1837 C 0.27799 0.36043 0.84259 0.0
C1838 C 0.30066 0.32063 0.83553 0.0
C1839 C 0.31674 0.3097 0.83963 0.0
C1840 C 0.31617 0.29592 0.85408 0.0
C1841 C 0.29968 0.29434 0.86529 0.0
C1842 C 0.28366 0.30533 0.86124 0.0
H1843 H 0.27151 0.37458 0.84526 0.0
H1844 H 0.28535 0.35563 0.8557 0.0
H1845 H 0.28876 0.36213 0.8312 0.0
H1846 H 0.30101 0.33012 0.82342 0.0
H1847 H 0.32919 0.31126 0.8307 0.0
H1848 H 0.23596 0.79425 0.34575 0.0
H1849 H 0.21609 0.76716 0.33767 0.0
H1850 H 0.16599 0.79903 0.35331 0.0
H1851 H 0.18596 0.82687 0.35991 0.0
H1852 H 0.19388 0.74493 0.35473 0.0
H1853 H 0.14983 0.78417 0.30221 0.0
H1854 H 0.17013 0.79483 0.31353 0.0
H1855 H 0.14783 0.79296 0.32601 0.0
C1856 C 0.2207 0.79546 0.34754 0.0
C1857 C 0.21245 0.81267 0.35325 0.0
C1858 C 0.20931 0.77993 0.34295 0.0
C1859 C 0.18942 0.78108 0.34443 0.0
C1860 C 0.18121 0.79795 0.35133 0.0
H1861 H 0.13943 0.66965 0.31337 0.0
H1862 H 0.1461 0.69748 0.33331 0.0
C1863 C 0.19262 0.81379 0.35529 0.0
C1864 C 0.17767 0.76471 0.33795 0.0
H1865 H 0.14373 0.75175 0.30577 0.0
C1866 C 0.18287 0.74642 0.34404 0.0
C1867 C 0.1632 0.76664 0.32406 0.0
C1868 C 0.15751 0.78567 0.31593 0.0
C1869 C 0.17523 0.73004 0.33561 0.0
C1870 C 0.16099 0.73197 0.32148 0.0
C1871 C 0.15468 0.75025 0.31653 0.0
C1872 C 0.15434 0.71562 0.3098 0.0
C1873 C 0.18361 0.71103 0.341 0.0
C1874 C 0.15539 0.71687 0.28989 0.0
C1875 C 0.15075 0.70134 0.27853 0.0
C1876 C 0.14541 0.68402 0.28683 0.0
C1877 C 0.14375 0.68282 0.30668 0.0
C1878 C 0.14776 0.69865 0.31806 0.0
H1879 H 0.1975 0.71257 0.34837 0.0
H1880 H 0.17378 0.70362 0.35085 0.0
H1881 H 0.18578 0.70196 0.32828 0.0
H1882 H 0.16041 0.72973 0.28307 0.0
H1883 H 0.15224 0.70262 0.26326 0.0
H1884 H 0.79259 0.63172 0.76682 0.0
H1885 H 0.76584 0.64043 0.78712 0.0
H1886 H 0.8045 0.66489 0.8279 0.0
H1887 H 0.83142 0.65658 0.80752 0.0
H1888 H 0.75526 0.63391 0.82564 0.0
H1889 H 0.7715 0.70989 0.81083 0.0
H1890 H 0.78244 0.69076 0.79777 0.0
H1891 H 0.79046 0.69642 0.82135 0.0
C1892 C 0.79548 0.6387 0.78024 0.0
C1893 C 0.81414 0.64376 0.78538 0.0
C1894 C 0.78015 0.6436 0.79185 0.0
C1895 C 0.78319 0.65361 0.80881 0.0
C1896 C 0.80186 0.65748 0.81467 0.0
H1897 H 0.69928 0.72019 0.87071 0.0
H1898 H 0.72803 0.70189 0.86412 0.0
C1899 C 0.81722 0.65267 0.80302 0.0
C1900 C 0.76675 0.66154 0.81926 0.0
H1901 H 0.74478 0.70348 0.82958 0.0
C1902 C 0.75302 0.64912 0.8267 0.0
C1903 C 0.76387 0.68139 0.82054 0.0
C1904 C 0.77773 0.69544 0.81209 0.0
C1905 C 0.73634 0.65605 0.83522 0.0
C1906 C 0.73324 0.67589 0.836 0.0
C1907 C 0.74724 0.68827 0.82907 0.0
C1908 C 0.71506 0.6843 0.8425 0.0
C1909 C 0.72216 0.6421 0.84321 0.0
C1910 C 0.69809 0.68018 0.83283 0.0
C1911 C 0.6816 0.6906 0.83658 0.0
C1912 C 0.68185 0.70548 0.84992 0.0
C1913 C 0.69861 0.7089 0.86027 0.0
C1914 C 0.71506 0.69843 0.85656 0.0
H1915 H 0.72911 0.62848 0.84713 0.0
H1916 H 0.71489 0.64796 0.85594 0.0
H1917 H 0.71124 0.63897 0.83227 0.0
H1918 H 0.69784 0.66964 0.82162 0.0
H1919 H 0.66895 0.68761 0.82833 0.0
H1920 H 0.72411 0.87543 0.70269 0.0
H1921 H 0.70494 0.86872 0.73092 0.0
H1922 H 0.67374 0.82615 0.69976 0.0
H1923 H 0.69243 0.83308 0.67137 0.0
H1924 H 0.6509 0.84658 0.72514 0.0
H1925 H 0.71693 0.81996 0.7597 0.0
H1926 H 0.71768 0.8443 0.75214 0.0
H1927 H 0.71589 0.82567 0.73476 0.0
C1928 C 0.71295 0.86486 0.70175 0.0
C1929 C 0.71001 0.85456 0.68487 0.0
C1930 C 0.70206 0.86102 0.71791 0.0
C1931 C 0.68824 0.84664 0.71752 0.0
C1932 C 0.68441 0.83724 0.70037 0.0
H1933 H 0.6284 0.7709 0.789 0.0
H1934 H 0.6378 0.79265 0.76371 0.0
C1935 C 0.69516 0.84119 0.68416 0.0
C1936 C 0.67906 0.84001 0.73525 0.0
H1937 H 0.68864 0.81725 0.77696 0.0
C1938 C 0.65913 0.84035 0.73659 0.0
C1939 C 0.68985 0.83182 0.75013 0.0
C1940 C 0.71125 0.83022 0.74914 0.0
C1941 C 0.6497 0.83241 0.7523 0.0
C1942 C 0.6605 0.82375 0.76686 0.0
C1943 C 0.68041 0.82403 0.76582 0.0
C1944 C 0.65168 0.81271 0.78245 0.0
C1945 C 0.62829 0.83318 0.75308 0.0
C1946 C 0.65619 0.81685 0.80142 0.0
C1947 C 0.65099 0.80434 0.81593 0.0
C1948 C 0.6413 0.78737 0.81168 0.0
C1949 C 0.63586 0.78382 0.79278 0.0
C1950 C 0.64109 0.79634 0.77829 0.0
H1951 H 0.62264 0.84516 0.74449 0.0
H1952 H 0.62241 0.8198 0.74714 0.0
H1953 H 0.62316 0.83467 0.76793 0.0
H1954 H 0.66447 0.82936 0.80491 0.0
H1955 H 0.65534 0.80756 0.83034 0.0
H1956 H 0.72308 0.13109 0.29255 0.0
H1957 H 0.70148 0.14039 0.26699 0.0
H1958 H 0.66407 0.16657 0.30785 0.0
H1959 H 0.6857 0.1576 0.33353 0.0
H1960 H 0.66106 0.13601 0.25908 0.0
H1961 H 0.68293 0.21066 0.27374 0.0
H1962 H 0.69542 0.19057 0.28359 0.0
H1963 H 0.67298 0.19777 0.2934 0.0
C1964 C 0.71009 0.13851 0.29618 0.0
C1965 C 0.7063 0.14393 0.31504 0.0
C1966 C 0.69773 0.14375 0.28155 0.0
C1967 C 0.68139 0.15443 0.28555 0.0
C1968 C 0.67679 0.15857 0.30449 0.0
H1969 H 0.62265 0.22654 0.20403 0.0
H1970 H 0.62803 0.20784 0.23279 0.0
C1971 C 0.68917 0.15342 0.31913 0.0
C1972 C 0.67053 0.16307 0.26977 0.0
H1973 H 0.66255 0.20559 0.24803 0.0
C1974 C 0.66116 0.15124 0.25673 0.0
C1975 C 0.67072 0.18293 0.26679 0.0
C1976 C 0.68115 0.19628 0.28 0.0
C1977 C 0.6522 0.15878 0.24055 0.0
C1978 C 0.65301 0.17859 0.23723 0.0
C1979 C 0.66183 0.19042 0.25065 0.0
C1980 C 0.64656 0.18739 0.21921 0.0
C1981 C 0.64208 0.14547 0.22715 0.0
C1982 C 0.65479 0.18182 0.20192 0.0
C1983 C 0.65167 0.19242 0.18544 0.0
C1984 C 0.6405 0.20898 0.18601 0.0
C1985 C 0.63144 0.21394 0.20312 0.0
C1986 C 0.63445 0.20324 0.21957 0.0
H1987 H 0.63692 0.1326 0.2347 0.0
H1988 H 0.62981 0.15252 0.22016 0.0
H1989 H 0.65216 0.14075 0.21597 0.0
H1990 H 0.66456 0.16994 0.20136 0.0
H1991 H 0.6589 0.1882 0.17251 0.0
H1992 H 0.30768 0.16189 0.67277 0.0
H1993 H 0.32496 0.16889 0.702 0.0
H1994 H 0.28852 0.13054 0.73295 0.0
H1995 H 0.27091 0.12367 0.70383 0.0
H1996 H 0.28878 0.16612 0.74768 0.0
H1997 H 0.36289 0.14233 0.73641 0.0
H1998 H 0.35425 0.15673 0.71723 0.0
H1999 H 0.34337 0.13406 0.72191 0.0
C2000 C 0.30361 0.15457 0.68568 0.0
C2001 C 0.28777 0.14237 0.68598 0.0
C2002 C 0.31362 0.15849 0.70238 0.0
C2003 C 0.30815 0.1501 0.71963 0.0
C2004 C 0.29303 0.13709 0.71976 0.0
H2005 H 0.33434 0.19131 0.83446 0.0
H2006 H 0.32506 0.16973 0.80882 0.0
C2007 C 0.28297 0.13321 0.7031 0.0
C2008 C 0.31628 0.15704 0.73777 0.0
H2009 H 0.35807 0.16591 0.76083 0.0
C2010 C 0.30389 0.16573 0.75076 0.0
C2011 C 0.336 0.15663 0.74166 0.0
C2012 C 0.34988 0.14676 0.72864 0.0
C2013 C 0.31075 0.17488 0.76706 0.0
C2014 C 0.33054 0.175 0.77067 0.0
C2015 C 0.34291 0.16575 0.75803 0.0
C2016 C 0.33864 0.1861 0.78661 0.0
C2017 C 0.29682 0.18524 0.7797 0.0
C2018 C 0.35016 0.20187 0.78271 0.0
C2019 C 0.35562 0.21414 0.79732 0.0
C2020 C 0.34961 0.21086 0.8161 0.0
C2021 C 0.33902 0.19438 0.82012 0.0
C2022 C 0.33366 0.18205 0.80549 0.0
H2023 H 0.28273 0.18704 0.77279 0.0
H2024 H 0.2947 0.177 0.79297 0.0
H2025 H 0.30235 0.19949 0.78362 0.0
H2026 H 0.35421 0.2052 0.76823 0.0
H2027 H 0.36389 0.22662 0.79372 0.0
H2028 H 0.31169 0.84882 0.32867 0.0
H2029 H 0.33132 0.8411 0.30111 0.0
H2030 H 0.28716 0.86142 0.26379 0.0
H2031 H 0.26748 0.86939 0.29123 0.0
H2032 H 0.31807 0.81423 0.2758 0.0
H2033 H 0.3355 0.88091 0.23772 0.0
H2034 H 0.32815 0.88052 0.26233 0.0
H2035 H 0.31078 0.87861 0.24367 0.0
C2036 C 0.30632 0.85213 0.31462 0.0
C2037 C 0.2879 0.85952 0.31215 0.0
C2038 C 0.3176 0.84774 0.29889 0.0
C2039 C 0.31075 0.85078 0.28042 0.0
C2040 C 0.29288 0.85928 0.27792 0.0
H2041 H 0.32788 0.80607 0.16919 0.0
H2042 H 0.32025 0.82564 0.19685 0.0
C2043 C 0.28158 0.8637 0.29365 0.0
C2044 C 0.32078 0.8423 0.26399 0.0
H2045 H 0.3389 0.85195 0.22001 0.0
C2046 C 0.32294 0.8225 0.26373 0.0
C2047 C 0.32688 0.85313 0.24821 0.0
C2048 C 0.32538 0.8745 0.248 0.0
C2049 C 0.33034 0.8131 0.24783 0.0
C2050 C 0.33623 0.82387 0.2319 0.0
C2051 C 0.33447 0.84375 0.23228 0.0
C2052 C 0.34298 0.81448 0.21431 0.0
C2053 C 0.33084 0.79164 0.24791 0.0
C2054 C 0.35879 0.80234 0.21469 0.0
C2055 C 0.36303 0.79093 0.19901 0.0
C2056 C 0.35171 0.79173 0.18256 0.0
C2057 C 0.33682 0.80504 0.18168 0.0
C2058 C 0.33246 0.81627 0.19746 0.0
H2059 H 0.32168 0.78556 0.25925 0.0
H2060 H 0.32612 0.78582 0.23402 0.0
H2061 H 0.34562 0.7868 0.25053 0.0
H2062 H 0.36737 0.80109 0.22742 0.0
H2063 H 0.37478 0.78102 0.20003 0.0
loop_
_geom_bond_atom_site_label_1
_geom_bond_atom_site_label_2
_geom_bond_distance
_geom_bond_site_symmetry_2
_ccdc_geom_bond_type
O0 Cd1 2.223 . S
O0 C8 1.315 . S
Cd1 O0 2.223 . S
Cd1 O4 2.297 . S
Cd1 O5 2.439 . S
Cd1 O11 2.240 . S
Cd2 O3 2.240 . S
Cd2 O10 2.223 . S
Cd2 O12 2.297 . S
Cd2 O13 2.439 . S
O3 Cd2 2.240 . S
O3 C8 1.279 . S
O4 Cd1 2.297 . S
O4 C6 1.247 . S
O5 Cd1 2.439 . S
O5 C6 1.208 . S
C6 O4 1.247 . S
C6 O5 1.208 . S
C7 O12 1.247 . S
C7 O13 1.208 . S
C8 O0 1.315 . S
C8 O3 1.279 . S
C9 O10 1.315 . S
C9 O11 1.279 . S
O10 Cd2 2.223 . S
O10 C9 1.315 . S
O11 Cd1 2.240 . S
O11 C9 1.279 . S
O12 Cd2 2.297 . S
O12 C7 1.247 . S
O13 Cd2 2.439 . S
O13 C7 1.208 . S
O14 Cd15 2.223 . S
O14 C22 1.315 . S
Cd15 O14 2.223 . S
Cd15 O18 2.297 . S
Cd15 O19 2.439 . S
Cd15 O25 2.240 . S
Cd16 O17 2.240 . S
Cd16 O24 2.223 . S
Cd16 O26 2.297 . S
Cd16 O27 2.439 . S
O17 Cd16 2.240 . S
O17 C22 1.279 . S
O18 Cd15 2.297 . S
O18 C20 1.247 . S
O19 Cd15 2.439 . S
O19 C20 1.208 . S
C20 O18 1.247 . S
C20 O19 1.208 . S
C21 O26 1.247 . S
C21 O27 1.208 . S
C22 O14 1.315 . S
C22 O17 1.279 . S
C23 O24 1.315 . S
C23 O25 1.279 . S
O24 Cd16 2.223 . S
O24 C23 1.315 . S
O25 Cd15 2.240 . S
O25 C23 1.279 . S
O26 Cd16 2.297 . S
O26 C21 1.247 . S
O27 Cd16 2.439 . S
O27 C21 1.208 . S
O28 Cd29 2.223 . S
O28 C36 1.315 . S
Cd29 O28 2.223 . S
Cd29 O32 2.297 . S
Cd29 O33 2.439 . S
Cd29 O39 2.240 . S
Cd30 O31 2.240 . S
Cd30 O38 2.223 . S
Cd30 O40 2.297 . S
Cd30 O41 2.439 . S
O31 Cd30 2.240 . S
O31 C36 1.279 . S
O32 Cd29 2.297 . S
O32 C34 1.247 . S
O33 Cd29 2.439 . S
O33 C34 1.208 . S
C34 O32 1.247 . S
C34 O33 1.208 . S
C35 O40 1.247 . S
C35 O41 1.208 . S
C36 O28 1.315 . S
C36 O31 1.279 . S
C37 O38 1.315 . S
C37 O39 1.279 . S
O38 Cd30 2.223 . S
O38 C37 1.315 . S
O39 Cd29 2.240 . S
O39 C37 1.279 . S
O40 Cd30 2.297 . S
O40 C35 1.247 . S
O41 Cd30 2.439 . S
O41 C35 1.208 . S
O42 Cd43 2.223 . S
O42 C50 1.315 . S
Cd43 O42 2.223 . S
Cd43 O46 2.297 . S
Cd43 O47 2.439 . S
Cd43 O53 2.240 . S
Cd44 O45 2.240 . S
Cd44 O52 2.223 . S
Cd44 O54 2.297 . S
Cd44 O55 2.439 . S
O45 Cd44 2.240 . S
O45 C50 1.279 . S
O46 Cd43 2.297 . S
O46 C48 1.247 . S
O47 Cd43 2.439 . S
O47 C48 1.208 . S
C48 O46 1.247 . S
C48 O47 1.208 . S
C49 O54 1.247 . S
C49 O55 1.208 . S
C50 O42 1.315 . S
C50 O45 1.279 . S
C51 O52 1.315 . S
C51 O53 1.279 . S
O52 Cd44 2.223 . S
O52 C51 1.315 . S
O53 Cd43 2.240 . S
O53 C51 1.279 . S
O54 Cd44 2.297 . S
O54 C49 1.247 . S
O55 Cd44 2.439 . S
O55 C49 1.208 . S
O56 Cd57 2.223 . S
O56 C64 1.315 . S
Cd57 O56 2.223 . S
Cd57 O60 2.297 . S
Cd57 O61 2.439 . S
Cd57 O67 2.240 . S
Cd58 O59 2.240 . S
Cd58 O66 2.223 . S
Cd58 O68 2.297 . S
Cd58 O69 2.439 . S
O59 Cd58 2.240 . S
O59 C64 1.279 . S
O60 Cd57 2.297 . S
O60 C62 1.247 . S
O61 Cd57 2.439 . S
O61 C62 1.208 . S
C62 O60 1.247 . S
C62 O61 1.208 . S
C63 O68 1.247 . S
C63 O69 1.208 . S
C64 O56 1.315 . S
C64 O59 1.279 . S
C65 O66 1.315 . S
C65 O67 1.279 . S
O66 Cd58 2.223 . S
O66 C65 1.315 . S
O67 Cd57 2.240 . S
O67 C65 1.279 . S
O68 Cd58 2.297 . S
O68 C63 1.247 . S
O69 Cd58 2.439 . S
O69 C63 1.208 . S
O70 Cd71 2.223 . S
O70 C78 1.315 . S
Cd71 O70 2.223 . S
Cd71 O74 2.297 . S
Cd71 O75 2.439 . S
Cd71 O81 2.240 . S
Cd72 O73 2.240 . S
Cd72 O80 2.223 . S
Cd72 O82 2.297 . S
Cd72 O83 2.439 . S
O73 Cd72 2.240 . S
O73 C78 1.279 . S
O74 Cd71 2.297 . S
O74 C76 1.247 . S
O75 Cd71 2.439 . S
O75 C76 1.208 . S
C76 O74 1.247 . S
C76 O75 1.208 . S
C77 O82 1.247 . S
C77 O83 1.208 . S
C78 O70 1.315 . S
C78 O73 1.279 . S
C79 O80 1.315 . S
C79 O81 1.279 . S
O80 Cd72 2.223 . S
O80 C79 1.315 . S
O81 Cd71 2.240 . S
O81 C79 1.279 . S
O82 Cd72 2.297 . S
O82 C77 1.247 . S
O83 Cd72 2.439 . S
O83 C77 1.208 . S
O84 Cd85 2.223 . S
O84 C92 1.315 . S
Cd85 O84 2.223 . S
Cd85 O88 2.297 . S
Cd85 O89 2.439 . S
Cd85 O95 2.240 . S
Cd86 O87 2.240 . S
Cd86 O94 2.223 . S
Cd86 O96 2.297 . S
Cd86 O97 2.439 . S
O87 Cd86 2.240 . S
O87 C92 1.279 . S
O88 Cd85 2.297 . S
O88 C90 1.247 . S
O89 Cd85 2.439 . S
O89 C90 1.208 . S
C90 O88 1.247 . S
C90 O89 1.208 . S
C91 O96 1.247 . S
C91 O97 1.208 . S
C92 O84 1.315 . S
C92 O87 1.279 . S
C93 O94 1.315 . S
C93 O95 1.279 . S
O94 Cd86 2.223 . S
O94 C93 1.315 . S
O95 Cd85 2.240 . S
O95 C93 1.279 . S
O96 Cd86 2.297 . S
O96 C91 1.247 . S
O97 Cd86 2.439 . S
O97 C91 1.208 . S
O98 Cd99 2.223 . S
O98 C106 1.315 . S
Cd99 O98 2.223 . S
Cd99 O102 2.297 . S
Cd99 O103 2.439 . S
Cd99 O109 2.240 . S
Cd100 O101 2.240 . S
Cd100 O108 2.223 . S
Cd100 O110 2.297 . S
Cd100 O111 2.439 . S
O101 Cd100 2.240 . S
O101 C106 1.279 . S
O102 Cd99 2.297 . S
O102 C104 1.247 . S
O103 Cd99 2.439 . S
O103 C104 1.208 . S
C104 O102 1.247 . S
C104 O103 1.208 . S
C105 O110 1.247 . S
C105 O111 1.208 . S
C106 O98 1.315 . S
C106 O101 1.279 . S
C107 O108 1.315 . S
C107 O109 1.279 . S
O108 Cd100 2.223 . S
O108 C107 1.315 . S
O109 Cd99 2.240 . S
O109 C107 1.279 . S
O110 Cd100 2.297 . S
O110 C105 1.247 . S
O111 Cd100 2.439 . S
O111 C105 1.208 . S
O112 Cd113 2.223 . S
O112 C120 1.315 . S
Cd113 O112 2.223 . S
Cd113 O116 2.297 . S
Cd113 O117 2.439 . S
Cd113 O123 2.240 . S
Cd114 O115 2.240 . S
Cd114 O122 2.223 . S
Cd114 O124 2.297 . S
Cd114 O125 2.439 . S
O115 Cd114 2.240 . S
O115 C120 1.279 . S
O116 Cd113 2.297 . S
O116 C118 1.247 . S
O117 Cd113 2.439 . S
O117 C118 1.208 . S
C118 O116 1.247 . S
C118 O117 1.208 . S
C119 O124 1.247 . S
C119 O125 1.208 . S
C120 O112 1.315 . S
C120 O115 1.279 . S
C121 O122 1.315 . S
C121 O123 1.279 . S
O122 Cd114 2.223 . S
O122 C121 1.315 . S
O123 Cd113 2.240 . S
O123 C121 1.279 . S
O124 Cd114 2.297 . S
O124 C119 1.247 . S
O125 Cd114 2.439 . S
O125 C119 1.208 . S
O126 Cd127 2.223 . S
O126 C134 1.315 . S
Cd127 O126 2.223 . S
Cd127 O130 2.297 . S
Cd127 O131 2.439 . S
Cd127 O137 2.240 . S
Cd128 O129 2.240 . S
Cd128 O136 2.223 . S
Cd128 O138 2.297 . S
Cd128 O139 2.439 . S
O129 Cd128 2.240 . S
O129 C134 1.279 . S
O130 Cd127 2.297 . S
O130 C132 1.247 . S
O131 Cd127 2.439 . S
O131 C132 1.208 . S
C132 O130 1.247 . S
C132 O131 1.208 . S
C133 O138 1.247 . S
C133 O139 1.208 . S
C134 O126 1.315 . S
C134 O129 1.279 . S
C135 O136 1.315 . S
C135 O137 1.279 . S
O136 Cd128 2.223 . S
O136 C135 1.315 . S
O137 Cd127 2.240 . S
O137 C135 1.279 . S
O138 Cd128 2.297 . S
O138 C133 1.247 . S
O139 Cd128 2.439 . S
O139 C133 1.208 . S
O140 Cd141 2.223 . S
O140 C148 1.315 . S
Cd141 O140 2.223 . S
Cd141 O144 2.297 . S
Cd141 O145 2.439 . S
Cd141 O151 2.240 . S
Cd142 O143 2.240 . S
Cd142 O150 2.223 . S
Cd142 O152 2.297 . S
Cd142 O153 2.439 . S
O143 Cd142 2.240 . S
O143 C148 1.279 . S
O144 Cd141 2.297 . S
O144 C146 1.247 . S
O145 Cd141 2.439 . S
O145 C146 1.208 . S
C146 O144 1.247 . S
C146 O145 1.208 . S
C147 O152 1.247 . S
C147 O153 1.208 . S
C148 O140 1.315 . S
C148 O143 1.279 . S
C149 O150 1.315 . S
C149 O151 1.279 . S
O150 Cd142 2.223 . S
O150 C149 1.315 . S
O151 Cd141 2.240 . S
O151 C149 1.279 . S
O152 Cd142 2.297 . S
O152 C147 1.247 . S
O153 Cd142 2.439 . S
O153 C147 1.208 . S
O154 Cd155 2.223 . S
O154 C162 1.315 . S
Cd155 O154 2.223 . S
Cd155 O158 2.297 . S
Cd155 O159 2.439 . S
Cd155 O165 2.240 . S
Cd156 O157 2.240 . S
Cd156 O164 2.223 . S
Cd156 O166 2.297 . S
Cd156 O167 2.439 . S
O157 Cd156 2.240 . S
O157 C162 1.279 . S
O158 Cd155 2.297 . S
O158 C160 1.247 . S
O159 Cd155 2.439 . S
O159 C160 1.208 . S
C160 O158 1.247 . S
C160 O159 1.208 . S
C161 O166 1.247 . S
C161 O167 1.208 . S
C162 O154 1.315 . S
C162 O157 1.279 . S
C163 O164 1.315 . S
C163 O165 1.279 . S
O164 Cd156 2.223 . S
O164 C163 1.315 . S
O165 Cd155 2.240 . S
O165 C163 1.279 . S
O166 Cd156 2.297 . S
O166 C161 1.247 . S
O167 Cd156 2.439 . S
O167 C161 1.208 . S
O168 Cd169 2.223 . S
O168 C176 1.315 . S
Cd169 O168 2.223 . S
Cd169 O172 2.297 . S
Cd169 O173 2.439 . S
Cd169 O179 2.240 . S
Cd170 O171 2.240 . S
Cd170 O178 2.223 . S
Cd170 O180 2.297 . S
Cd170 O181 2.439 . S
O171 Cd170 2.240 . S
O171 C176 1.279 . S
O172 Cd169 2.297 . S
O172 C174 1.247 . S
O173 Cd169 2.439 . S
O173 C174 1.208 . S
C174 O172 1.247 . S
C174 O173 1.208 . S
C175 O180 1.247 . S
C175 O181 1.208 . S
C176 O168 1.315 . S
C176 O171 1.279 . S
C177 O178 1.315 . S
C177 O179 1.279 . S
O178 Cd170 2.223 . S
O178 C177 1.315 . S
O179 Cd169 2.240 . S
O179 C177 1.279 . S
O180 Cd170 2.297 . S
O180 C175 1.247 . S
O181 Cd170 2.439 . S
O181 C175 1.208 . S
O182 Cd183 2.223 . S
O182 C190 1.315 . S
Cd183 O182 2.223 . S
Cd183 O186 2.297 . S
Cd183 O187 2.439 . S
Cd183 O193 2.240 . S
Cd184 O185 2.240 . S
Cd184 O192 2.223 . S
Cd184 O194 2.297 . S
Cd184 O195 2.439 . S
O185 Cd184 2.240 . S
O185 C190 1.279 . S
O186 Cd183 2.297 . S
O186 C188 1.247 . S
O187 Cd183 2.439 . S
O187 C188 1.208 . S
C188 O186 1.247 . S
C188 O187 1.208 . S
C189 O194 1.247 . S
C189 O195 1.208 . S
C190 O182 1.315 . S
C190 O185 1.279 . S
C191 O192 1.315 . S
C191 O193 1.279 . S
O192 Cd184 2.223 . S
O192 C191 1.315 . S
O193 Cd183 2.240 . S
O193 C191 1.279 . S
O194 Cd184 2.297 . S
O194 C189 1.247 . S
O195 Cd184 2.439 . S
O195 C189 1.208 . S
O196 Cd197 2.223 . S
O196 C204 1.315 . S
Cd197 O196 2.223 . S
Cd197 O200 2.297 . S
Cd197 O201 2.439 . S
Cd197 O207 2.240 . S
Cd198 O199 2.240 . S
Cd198 O206 2.223 . S
Cd198 O208 2.297 . S
Cd198 O209 2.439 . S
O199 Cd198 2.240 . S
O199 C204 1.279 . S
O200 Cd197 2.297 . S
O200 C202 1.247 . S
O201 Cd197 2.439 . S
O201 C202 1.208 . S
C202 O200 1.247 . S
C202 O201 1.208 . S
C203 O208 1.247 . S
C203 O209 1.208 . S
C204 O196 1.315 . S
C204 O199 1.279 . S
C205 O206 1.315 . S
C205 O207 1.279 . S
O206 Cd198 2.223 . S
O206 C205 1.315 . S
O207 Cd197 2.240 . S
O207 C205 1.279 . S
O208 Cd198 2.297 . S
O208 C203 1.247 . S
O209 Cd198 2.439 . S
O209 C203 1.208 . S
O210 Cd211 2.223 . S
O210 C218 1.315 . S
Cd211 O210 2.223 . S
Cd211 O214 2.297 . S
Cd211 O215 2.439 . S
Cd211 O221 2.240 . S
Cd212 O213 2.240 . S
Cd212 O220 2.223 . S
Cd212 O222 2.297 . S
Cd212 O223 2.439 . S
O213 Cd212 2.240 . S
O213 C218 1.279 . S
O214 Cd211 2.297 . S
O214 C216 1.247 . S
O215 Cd211 2.439 . S
O215 C216 1.208 . S
C216 O214 1.247 . S
C216 O215 1.208 . S
C217 O222 1.247 . S
C217 O223 1.208 . S
C218 O210 1.315 . S
C218 O213 1.279 . S
C219 O220 1.315 . S
C219 O221 1.279 . S
O220 Cd212 2.223 . S
O220 C219 1.315 . S
O221 Cd211 2.240 . S
O221 C219 1.279 . S
O222 Cd212 2.297 . S
O222 C217 1.247 . S
O223 Cd212 2.439 . S
O223 C217 1.208 . S
O224 Cd225 2.223 . S
O224 C232 1.315 . S
Cd225 O224 2.223 . S
Cd225 O228 2.297 . S
Cd225 O229 2.439 . S
Cd225 O235 2.240 . S
Cd226 O227 2.240 . S
Cd226 O234 2.223 . S
Cd226 O236 2.297 . S
Cd226 O237 2.439 . S
O227 Cd226 2.240 . S
O227 C232 1.279 . S
O228 Cd225 2.297 . S
O228 C230 1.247 . S
O229 Cd225 2.439 . S
O229 C230 1.208 . S
C230 O228 1.247 . S
C230 O229 1.208 . S
C231 O236 1.247 . S
C231 O237 1.208 . S
C232 O224 1.315 . S
C232 O227 1.279 . S
C233 O234 1.315 . S
C233 O235 1.279 . S
O234 Cd226 2.223 . S
O234 C233 1.315 . S
O235 Cd225 2.240 . S
O235 C233 1.279 . S
O236 Cd226 2.297 . S
O236 C231 1.247 . S
O237 Cd226 2.439 . S
O237 C231 1.208 . S
O238 Cd239 2.223 . S
O238 C246 1.315 . S
Cd239 O238 2.223 . S
Cd239 O242 2.297 . S
Cd239 O243 2.439 . S
Cd239 O249 2.240 . S
Cd240 O241 2.240 . S
Cd240 O248 2.223 . S
Cd240 O250 2.297 . S
Cd240 O251 2.439 . S
O241 Cd240 2.240 . S
O241 C246 1.279 . S
O242 Cd239 2.297 . S
O242 C244 1.247 . S
O243 Cd239 2.439 . S
O243 C244 1.208 . S
C244 O242 1.247 . S
C244 O243 1.208 . S
C245 O250 1.247 . S
C245 O251 1.208 . S
C246 O238 1.315 . S
C246 O241 1.279 . S
C247 O248 1.315 . S
C247 O249 1.279 . S
O248 Cd240 2.223 . S
O248 C247 1.315 . S
O249 Cd239 2.240 . S
O249 C247 1.279 . S
O250 Cd240 2.297 . S
O250 C245 1.247 . S
O251 Cd240 2.439 . S
O251 C245 1.208 . S
O252 Cd253 2.223 . S
O252 C260 1.315 . S
Cd253 O252 2.223 . S
Cd253 O256 2.297 . S
Cd253 O257 2.439 . S
Cd253 O263 2.240 . S
Cd254 O255 2.240 . S
Cd254 O262 2.223 . S
Cd254 O264 2.297 . S
Cd254 O265 2.439 . S
O255 Cd254 2.240 . S
O255 C260 1.279 . S
O256 Cd253 2.297 . S
O256 C258 1.247 . S
O257 Cd253 2.439 . S
O257 C258 1.208 . S
C258 O256 1.247 . S
C258 O257 1.208 . S
C259 O264 1.247 . S
C259 O265 1.208 . S
C260 O252 1.315 . S
C260 O255 1.279 . S
C261 O262 1.315 . S
C261 O263 1.279 . S
O262 Cd254 2.223 . S
O262 C261 1.315 . S
O263 Cd253 2.240 . S
O263 C261 1.279 . S
O264 Cd254 2.297 . S
O264 C259 1.247 . S
O265 Cd254 2.439 . S
O265 C259 1.208 . S
O266 Cd267 2.223 . S
O266 C274 1.315 . S
Cd267 O266 2.223 . S
Cd267 O270 2.297 . S
Cd267 O271 2.439 . S
Cd267 O277 2.240 . S
Cd268 O269 2.240 . S
Cd268 O276 2.223 . S
Cd268 O278 2.297 . S
Cd268 O279 2.439 . S
O269 Cd268 2.240 . S
O269 C274 1.279 . S
O270 Cd267 2.297 . S
O270 C272 1.247 . S
O271 Cd267 2.439 . S
O271 C272 1.208 . S
C272 O270 1.247 . S
C272 O271 1.208 . S
C273 O278 1.247 . S
C273 O279 1.208 . S
C274 O266 1.315 . S
C274 O269 1.279 . S
C275 O276 1.315 . S
C275 O277 1.279 . S
O276 Cd268 2.223 . S
O276 C275 1.315 . S
O277 Cd267 2.240 . S
O277 C275 1.279 . S
O278 Cd268 2.297 . S
O278 C273 1.247 . S
O279 Cd268 2.439 . S
O279 C273 1.208 . S
O280 Cd281 2.223 . S
O280 C288 1.315 . S
Cd281 O280 2.223 . S
Cd281 O284 2.297 . S
Cd281 O285 2.439 . S
Cd281 O291 2.240 . S
Cd282 O283 2.240 . S
Cd282 O290 2.223 . S
Cd282 O292 2.297 . S
Cd282 O293 2.439 . S
O283 Cd282 2.240 . S
O283 C288 1.279 . S
O284 Cd281 2.297 . S
O284 C286 1.247 . S
O285 Cd281 2.439 . S
O285 C286 1.208 . S
C286 O284 1.247 . S
C286 O285 1.208 . S
C287 O292 1.247 . S
C287 O293 1.208 . S
C288 O280 1.315 . S
C288 O283 1.279 . S
C289 O290 1.315 . S
C289 O291 1.279 . S
O290 Cd282 2.223 . S
O290 C289 1.315 . S
O291 Cd281 2.240 . S
O291 C289 1.279 . S
O292 Cd282 2.297 . S
O292 C287 1.247 . S
O293 Cd282 2.439 . S
O293 C287 1.208 . S
O294 Cd295 2.223 . S
O294 C302 1.315 . S
Cd295 O294 2.223 . S
Cd295 O298 2.297 . S
Cd295 O299 2.439 . S
Cd295 O305 2.240 . S
Cd296 O297 2.240 . S
Cd296 O304 2.223 . S
Cd296 O306 2.297 . S
Cd296 O307 2.439 . S
O297 Cd296 2.240 . S
O297 C302 1.279 . S
O298 Cd295 2.297 . S
O298 C300 1.247 . S
O299 Cd295 2.439 . S
O299 C300 1.208 . S
C300 O298 1.247 . S
C300 O299 1.208 . S
C301 O306 1.247 . S
C301 O307 1.208 . S
C302 O294 1.315 . S
C302 O297 1.279 . S
C303 O304 1.315 . S
C303 O305 1.279 . S
O304 Cd296 2.223 . S
O304 C303 1.315 . S
O305 Cd295 2.240 . S
O305 C303 1.279 . S
O306 Cd296 2.297 . S
O306 C301 1.247 . S
O307 Cd296 2.439 . S
O307 C301 1.208 . S
O308 Cd309 2.223 . S
O308 C316 1.315 . S
Cd309 O308 2.223 . S
Cd309 O312 2.297 . S
Cd309 O313 2.439 . S
Cd309 O319 2.240 . S
Cd310 O311 2.240 . S
Cd310 O318 2.223 . S
Cd310 O320 2.297 . S
Cd310 O321 2.439 . S
O311 Cd310 2.240 . S
O311 C316 1.279 . S
O312 Cd309 2.297 . S
O312 C314 1.247 . S
O313 Cd309 2.439 . S
O313 C314 1.208 . S
C314 O312 1.247 . S
C314 O313 1.208 . S
C315 O320 1.247 . S
C315 O321 1.208 . S
C316 O308 1.315 . S
C316 O311 1.279 . S
C317 O318 1.315 . S
C317 O319 1.279 . S
O318 Cd310 2.223 . S
O318 C317 1.315 . S
O319 Cd309 2.240 . S
O319 C317 1.279 . S
O320 Cd310 2.297 . S
O320 C315 1.247 . S
O321 Cd310 2.439 . S
O321 C315 1.208 . S
O322 Cd323 2.223 . S
O322 C330 1.315 . S
Cd323 O322 2.223 . S
Cd323 O326 2.297 . S
Cd323 O327 2.439 . S
Cd323 O333 2.240 . S
Cd324 O325 2.240 . S
Cd324 O332 2.223 . S
Cd324 O334 2.297 . S
Cd324 O335 2.439 . S
O325 Cd324 2.240 . S
O325 C330 1.279 . S
O326 Cd323 2.297 . S
O326 C328 1.247 . S
O327 Cd323 2.439 . S
O327 C328 1.208 . S
C328 O326 1.247 . S
C328 O327 1.208 . S
C329 O334 1.247 . S
C329 O335 1.208 . S
C330 O322 1.315 . S
C330 O325 1.279 . S
C331 O332 1.315 . S
C331 O333 1.279 . S
O332 Cd324 2.223 . S
O332 C331 1.315 . S
O333 Cd323 2.240 . S
O333 C331 1.279 . S
O334 Cd324 2.297 . S
O334 C329 1.247 . S
O335 Cd324 2.439 . S
O335 C329 1.208 . S
H336 C344 0.929 . S
H337 C346 0.930 . S
H338 C348 0.930 . S
H339 C351 0.929 . S
H340 C354 0.930 . S
H341 C356 0.960 . S
H342 C356 0.960 . S
H343 C356 0.960 . S
C344 H336 0.929 . S
C344 C345 1.377 . S
C344 C346 1.384 . S
C345 C344 1.377 . S
C345 C351 1.390 . S
C346 H337 0.930 . S
C346 C344 1.384 . S
C346 C347 1.372 . S
C347 C346 1.372 . S
C347 C348 1.400 . S
C347 C352 1.490 . S
C348 H338 0.930 . S
C348 C347 1.400 . S
C348 C351 1.386 . S
H349 C365 0.930 . S
H350 C366 0.931 . S
C351 H339 0.929 . S
C351 C345 1.390 . S
C351 C348 1.386 . S
C352 C347 1.490 . S
C352 C354 1.395 . S
C352 C355 1.403 . S
H353 C359 0.930 . S
C354 H340 0.930 . S
C354 C352 1.395 . S
C354 C357 1.403 . S
C355 C352 1.403 . S
C355 C356 1.524 . S
C355 C359 1.400 . S
C356 H341 0.960 . S
C356 H342 0.960 . S
C356 H343 0.960 . S
C356 C355 1.524 . S
C357 C354 1.403 . S
C357 C358 1.392 . S
C357 C361 1.495 . S
C358 C357 1.392 . S
C358 C359 1.385 . S
C358 C360 1.478 . S
C359 H353 0.930 . S
C359 C355 1.400 . S
C359 C358 1.385 . S
C360 C358 1.478 . S
C360 C362 1.381 . S
C360 C366 1.383 . S
C361 C357 1.495 . S
C361 H367 0.959 . S
C361 H368 0.961 . S
C361 H369 0.960 . S
C362 C360 1.381 . S
C362 C363 1.394 . S
C362 H370 0.930 . S
C363 C362 1.394 . S
C363 C364 1.383 . S
C363 H371 0.929 . S
C364 C363 1.383 . S
C364 C365 1.377 . S
C365 H349 0.930 . S
C365 C364 1.377 . S
C365 C366 1.379 . S
C366 H350 0.931 . S
C366 C360 1.383 . S
C366 C365 1.379 . S
H367 C361 0.959 . S
H368 C361 0.961 . S
H369 C361 0.960 . S
H370 C362 0.930 . S
H371 C363 0.929 . S
H372 C380 0.929 . S
H373 C382 0.930 . S
H374 C384 0.930 . S
H375 C387 0.929 . S
H376 C390 0.930 . S
H377 C392 0.960 . S
H378 C392 0.960 . S
H379 C392 0.960 . S
C380 H372 0.929 . S
C380 C381 1.377 . S
C380 C382 1.384 . S
C381 C380 1.377 . S
C381 C387 1.390 . S
C382 H373 0.930 . S
C382 C380 1.384 . S
C382 C383 1.372 . S
C383 C382 1.372 . S
C383 C384 1.400 . S
C383 C388 1.490 . S
C384 H374 0.930 . S
C384 C383 1.400 . S
C384 C387 1.386 . S
H385 C401 0.930 . S
H386 C402 0.931 . S
C387 H375 0.929 . S
C387 C381 1.390 . S
C387 C384 1.386 . S
C388 C383 1.490 . S
C388 C390 1.395 . S
C388 C391 1.403 . S
H389 C395 0.930 . S
C390 H376 0.930 . S
C390 C388 1.395 . S
C390 C393 1.403 1_655 S
C391 C388 1.403 . S
C391 C392 1.524 . S
C391 C395 1.400 1_655 S
C392 H377 0.960 . S
C392 H378 0.960 . S
C392 H379 0.960 . S
C392 C391 1.524 . S
C393 C390 1.403 1_455 S
C393 C394 1.392 . S
C393 C397 1.495 . S
C394 C393 1.392 . S
C394 C395 1.385 . S
C394 C396 1.478 . S
C395 H389 0.930 . S
C395 C391 1.400 1_455 S
C395 C394 1.385 . S
C396 C394 1.478 . S
C396 C398 1.381 . S
C396 C402 1.383 . S
C397 C393 1.495 . S
C397 H403 0.959 . S
C397 H404 0.961 . S
C397 H405 0.960 . S
C398 C396 1.381 . S
C398 C399 1.394 . S
C398 H406 0.930 . S
C399 C398 1.394 . S
C399 C400 1.383 . S
C399 H407 0.929 . S
C400 C399 1.383 . S
C400 C401 1.377 . S
C401 H385 0.930 . S
C401 C400 1.377 . S
C401 C402 1.379 . S
C402 H386 0.931 . S
C402 C396 1.383 . S
C402 C401 1.379 . S
H403 C397 0.959 . S
H404 C397 0.961 . S
H405 C397 0.960 . S
H406 C398 0.930 . S
H407 C399 0.929 . S
H408 C416 0.929 . S
H409 C418 0.930 . S
H410 C420 0.930 . S
H411 C423 0.929 . S
H412 C426 0.930 . S
H413 C428 0.960 . S
H414 C428 0.960 . S
H415 C428 0.960 . S
C416 H408 0.929 . S
C416 C417 1.377 . S
C416 C418 1.384 . S
C417 C416 1.377 . S
C417 C423 1.390 . S
C418 H409 0.930 . S
C418 C416 1.384 . S
C418 C419 1.372 . S
C419 C418 1.372 . S
C419 C420 1.400 . S
C419 C424 1.490 . S
C420 H410 0.930 . S
C420 C419 1.400 . S
C420 C423 1.386 . S
H421 C437 0.930 . S
H422 C438 0.931 . S
C423 H411 0.929 . S
C423 C417 1.390 . S
C423 C420 1.386 . S
C424 C419 1.490 . S
C424 C426 1.395 . S
C424 C427 1.403 . S
H425 C431 0.930 . S
C426 H412 0.930 . S
C426 C424 1.395 . S
C426 C429 1.403 . S
C427 C424 1.403 . S
C427 C428 1.524 . S
C427 C431 1.400 . S
C428 H413 0.960 . S
C428 H414 0.960 . S
C428 H415 0.960 . S
C428 C427 1.524 . S
C429 C426 1.403 . S
C429 C430 1.392 . S
C429 C433 1.495 . S
C430 C429 1.392 . S
C430 C431 1.385 . S
C430 C432 1.478 . S
C431 H425 0.930 . S
C431 C427 1.400 . S
C431 C430 1.385 . S
C432 C430 1.478 . S
C432 C434 1.381 . S
C432 C438 1.383 . S
C433 C429 1.495 . S
C433 H439 0.959 . S
C433 H440 0.961 . S
C433 H441 0.960 . S
C434 C432 1.381 . S
C434 C435 1.394 . S
C434 H442 0.930 . S
C435 C434 1.394 . S
C435 C436 1.383 . S
C435 H443 0.929 . S
C436 C435 1.383 . S
C436 C437 1.377 . S
C437 H421 0.930 . S
C437 C436 1.377 . S
C437 C438 1.379 . S
C438 H422 0.931 . S
C438 C432 1.383 . S
C438 C437 1.379 . S
H439 C433 0.959 . S
H440 C433 0.961 . S
H441 C433 0.960 . S
H442 C434 0.930 . S
H443 C435 0.929 . S
H444 C452 0.929 . S
H445 C454 0.930 . S
H446 C456 0.930 . S
H447 C459 0.929 . S
H448 C462 0.930 . S
H449 C464 0.960 . S
H450 C464 0.960 . S
H451 C464 0.960 . S
C452 H444 0.929 . S
C452 C453 1.377 . S
C452 C454 1.384 . S
C453 C452 1.377 . S
C453 C459 1.390 . S
C454 H445 0.930 . S
C454 C452 1.384 . S
C454 C455 1.372 . S
C455 C454 1.372 . S
C455 C456 1.400 . S
C455 C460 1.490 . S
C456 H446 0.930 . S
C456 C455 1.400 . S
C456 C459 1.386 . S
H457 C473 0.930 . S
H458 C474 0.931 . S
C459 H447 0.929 . S
C459 C453 1.390 . S
C459 C456 1.386 . S
C460 C455 1.490 . S
C460 C462 1.395 . S
C460 C463 1.403 . S
H461 C467 0.930 . S
C462 H448 0.930 . S
C462 C460 1.395 . S
C462 C465 1.403 1_455 S
C463 C460 1.403 . S
C463 C464 1.524 . S
C463 C467 1.400 1_455 S
C464 H449 0.960 . S
C464 H450 0.960 . S
C464 H451 0.960 . S
C464 C463 1.524 . S
C465 C462 1.403 1_655 S
C465 C466 1.392 . S
C465 C469 1.495 . S
C466 C465 1.392 . S
C466 C467 1.385 . S
C466 C468 1.478 . S
C467 H461 0.930 . S
C467 C463 1.400 1_655 S
C467 C466 1.385 . S
C468 C466 1.478 . S
C468 C470 1.381 . S
C468 C474 1.383 . S
C469 C465 1.495 . S
C469 H475 0.959 . S
C469 H476 0.961 . S
C469 H477 0.960 . S
C470 C468 1.381 . S
C470 C471 1.394 . S
C470 H478 0.930 . S
C471 C470 1.394 . S
C471 C472 1.383 . S
C471 H479 0.929 . S
C472 C471 1.383 . S
C472 C473 1.377 . S
C473 H457 0.930 . S
C473 C472 1.377 . S
C473 C474 1.379 . S
C474 H458 0.931 . S
C474 C468 1.383 . S
C474 C473 1.379 . S
H475 C469 0.959 . S
H476 C469 0.961 . S
H477 C469 0.960 . S
H478 C470 0.930 . S
H479 C471 0.929 . S
H480 C488 0.929 . S
H481 C490 0.930 . S
H482 C492 0.930 . S
H483 C495 0.929 . S
H484 C498 0.930 . S
H485 C500 0.960 . S
H486 C500 0.960 . S
H487 C500 0.960 . S
C488 H480 0.929 . S
C488 C489 1.377 . S
C488 C490 1.384 . S
C489 C488 1.377 . S
C489 C495 1.390 . S
C490 H481 0.930 . S
C490 C488 1.384 . S
C490 C491 1.372 . S
C491 C490 1.372 . S
C491 C492 1.400 . S
C491 C496 1.490 . S
C492 H482 0.930 . S
C492 C491 1.400 . S
C492 C495 1.386 . S
H493 C509 0.930 . S
H494 C510 0.931 . S
C495 H483 0.929 . S
C495 C489 1.390 . S
C495 C492 1.386 . S
C496 C491 1.490 . S
C496 C498 1.395 . S
C496 C499 1.403 . S
H497 C503 0.930 . S
C498 H484 0.930 . S
C498 C496 1.395 . S
C498 C501 1.403 . S
C499 C496 1.403 . S
C499 C500 1.524 . S
C499 C503 1.400 . S
C500 H485 0.960 . S
C500 H486 0.960 . S
C500 H487 0.960 . S
C500 C499 1.524 . S
C501 C498 1.403 . S
C501 C502 1.392 . S
C501 C505 1.495 . S
C502 C501 1.392 . S
C502 C503 1.385 . S
C502 C504 1.478 . S
C503 H497 0.930 . S
C503 C499 1.400 . S
C503 C502 1.385 . S
C504 C502 1.478 . S
C504 C506 1.381 . S
C504 C510 1.383 . S
C505 C501 1.495 . S
C505 H511 0.959 . S
C505 H512 0.961 . S
C505 H513 0.960 . S
C506 C504 1.381 . S
C506 C507 1.394 . S
C506 H514 0.930 . S
C507 C506 1.394 . S
C507 C508 1.383 . S
C507 H515 0.929 . S
C508 C507 1.383 . S
C508 C509 1.377 . S
C509 H493 0.930 . S
C509 C508 1.377 . S
C509 C510 1.379 . S
C510 H494 0.931 . S
C510 C504 1.383 . S
C510 C509 1.379 . S
H511 C505 0.959 . S
H512 C505 0.961 . S
H513 C505 0.960 . S
H514 C506 0.930 . S
H515 C507 0.929 . S
H516 C524 0.929 . S
H517 C526 0.930 . S
H518 C528 0.930 . S
H519 C531 0.929 . S
H520 C534 0.930 . S
H521 C536 0.960 . S
H522 C536 0.960 . S
H523 C536 0.960 . S
C524 H516 0.929 . S
C524 C525 1.377 . S
C524 C526 1.384 . S
C525 C524 1.377 . S
C525 C531 1.390 . S
C526 H517 0.930 . S
C526 C524 1.384 . S
C526 C527 1.372 . S
C527 C526 1.372 . S
C527 C528 1.400 . S
C527 C532 1.490 . S
C528 H518 0.930 . S
C528 C527 1.400 . S
C528 C531 1.386 . S
H529 C545 0.930 . S
H530 C546 0.931 . S
C531 H519 0.929 . S
C531 C525 1.390 . S
C531 C528 1.386 . S
C532 C527 1.490 . S
C532 C534 1.395 . S
C532 C535 1.403 . S
H533 C539 0.930 . S
C534 H520 0.930 . S
C534 C532 1.395 . S
C534 C537 1.403 1_655 S
C535 C532 1.403 . S
C535 C536 1.524 . S
C535 C539 1.400 1_655 S
C536 H521 0.960 . S
C536 H522 0.960 . S
C536 H523 0.960 . S
C536 C535 1.524 . S
C537 C534 1.403 1_455 S
C537 C538 1.392 . S
C537 C541 1.495 . S
C538 C537 1.392 . S
C538 C539 1.385 . S
C538 C540 1.478 . S
C539 H533 0.930 . S
C539 C535 1.400 1_455 S
C539 C538 1.385 . S
C540 C538 1.478 . S
C540 C542 1.381 . S
C540 C546 1.383 . S
C541 C537 1.495 . S
C541 H547 0.959 . S
C541 H548 0.961 . S
C541 H549 0.960 . S
C542 C540 1.381 . S
C542 C543 1.394 . S
C542 H550 0.930 . S
C543 C542 1.394 . S
C543 C544 1.383 . S
C543 H551 0.929 . S
C544 C543 1.383 . S
C544 C545 1.377 . S
C545 H529 0.930 . S
C545 C544 1.377 . S
C545 C546 1.379 . S
C546 H530 0.931 . S
C546 C540 1.383 . S
C546 C545 1.379 . S
H547 C541 0.959 . S
H548 C541 0.961 . S
H549 C541 0.960 . S
H550 C542 0.930 . S
H551 C543 0.929 . S
H552 C560 0.929 . S
H553 C562 0.930 . S
H554 C564 0.930 . S
H555 C567 0.929 . S
H556 C570 0.930 . S
H557 C572 0.960 . S
H558 C572 0.960 . S
H559 C572 0.960 . S
C560 H552 0.929 . S
C560 C561 1.377 . S
C560 C562 1.384 . S
C561 C560 1.377 . S
C561 C567 1.390 . S
C562 H553 0.930 . S
C562 C560 1.384 . S
C562 C563 1.372 . S
C563 C562 1.372 . S
C563 C564 1.400 . S
C563 C568 1.490 . S
C564 H554 0.930 . S
C564 C563 1.400 . S
C564 C567 1.386 . S
H565 C581 0.930 . S
H566 C582 0.931 . S
C567 H555 0.929 . S
C567 C561 1.390 . S
C567 C564 1.386 . S
C568 C563 1.490 . S
C568 C570 1.395 . S
C568 C571 1.403 . S
H569 C575 0.930 . S
C570 H556 0.930 . S
C570 C568 1.395 . S
C570 C573 1.403 . S
C571 C568 1.403 . S
C571 C572 1.524 . S
C571 C575 1.400 . S
C572 H557 0.960 . S
C572 H558 0.960 . S
C572 H559 0.960 . S
C572 C571 1.524 . S
C573 C570 1.403 . S
C573 C574 1.392 . S
C573 C577 1.495 . S
C574 C573 1.392 . S
C574 C575 1.385 . S
C574 C576 1.478 . S
C575 H569 0.930 . S
C575 C571 1.400 . S
C575 C574 1.385 . S
C576 C574 1.478 . S
C576 C578 1.381 . S
C576 C582 1.383 . S
C577 C573 1.495 . S
C577 H583 0.959 . S
C577 H584 0.961 . S
C577 H585 0.960 . S
C578 C576 1.381 . S
C578 C579 1.394 . S
C578 H586 0.930 . S
C579 C578 1.394 . S
C579 C580 1.383 . S
C579 H587 0.929 . S
C580 C579 1.383 . S
C580 C581 1.377 . S
C581 H565 0.930 . S
C581 C580 1.377 . S
C581 C582 1.379 . S
C582 H566 0.931 . S
C582 C576 1.383 . S
C582 C581 1.379 . S
H583 C577 0.959 . S
H584 C577 0.961 . S
H585 C577 0.960 . S
H586 C578 0.930 . S
H587 C579 0.929 . S
H588 C596 0.929 . S
H589 C598 0.930 . S
H590 C600 0.930 . S
H591 C603 0.929 . S
H592 C606 0.930 . S
H593 C608 0.960 . S
H594 C608 0.960 . S
H595 C608 0.960 . S
C596 H588 0.929 . S
C596 C597 1.377 . S
C596 C598 1.384 . S
C597 C596 1.377 . S
C597 C603 1.390 . S
C598 H589 0.930 . S
C598 C596 1.384 . S
C598 C599 1.372 . S
C599 C598 1.372 . S
C599 C600 1.400 . S
C599 C604 1.490 . S
C600 H590 0.930 . S
C600 C599 1.400 . S
C600 C603 1.386 . S
H601 C617 0.930 . S
H602 C618 0.931 . S
C603 H591 0.929 . S
C603 C597 1.390 . S
C603 C600 1.386 . S
C604 C599 1.490 . S
C604 C606 1.395 . S
C604 C607 1.403 . S
H605 C611 0.930 . S
C606 H592 0.930 . S
C606 C604 1.395 . S
C606 C609 1.403 1_655 S
C607 C604 1.403 . S
C607 C608 1.524 . S
C607 C611 1.400 1_655 S
C608 H593 0.960 . S
C608 H594 0.960 . S
C608 H595 0.960 . S
C608 C607 1.524 . S
C609 C606 1.403 1_455 S
C609 C610 1.392 . S
C609 C613 1.495 . S
C610 C609 1.392 . S
C610 C611 1.385 . S
C610 C612 1.478 . S
C611 H605 0.930 . S
C611 C607 1.400 1_455 S
C611 C610 1.385 . S
C612 C610 1.478 . S
C612 C614 1.381 . S
C612 C618 1.383 . S
C613 C609 1.495 . S
C613 H619 0.959 . S
C613 H620 0.961 . S
C613 H621 0.960 . S
C614 C612 1.381 . S
C614 C615 1.394 . S
C614 H622 0.930 . S
C615 C614 1.394 . S
C615 C616 1.383 . S
C615 H623 0.929 . S
C616 C615 1.383 . S
C616 C617 1.377 . S
C617 H601 0.930 . S
C617 C616 1.377 . S
C617 C618 1.379 . S
C618 H602 0.931 . S
C618 C612 1.383 . S
C618 C617 1.379 . S
H619 C613 0.959 . S
H620 C613 0.961 . S
H621 C613 0.960 . S
H622 C614 0.930 . S
H623 C615 0.929 . S
H624 C632 0.929 . S
H625 C634 0.930 . S
H626 C636 0.930 . S
H627 C639 0.929 . S
H628 C642 0.930 . S
H629 C644 0.960 . S
H630 C644 0.960 . S
H631 C644 0.960 . S
C632 H624 0.929 . S
C632 C633 1.377 . S
C632 C634 1.384 . S
C633 C632 1.377 . S
C633 C639 1.390 . S
C634 H625 0.930 . S
C634 C632 1.384 . S
C634 C635 1.372 . S
C635 C634 1.372 . S
C635 C636 1.400 . S
C635 C640 1.490 . S
C636 H626 0.930 . S
C636 C635 1.400 . S
C636 C639 1.386 . S
H637 C653 0.930 . S
H638 C654 0.931 . S
C639 H627 0.929 . S
C639 C633 1.390 . S
C639 C636 1.386 . S
C640 C635 1.490 . S
C640 C642 1.395 . S
C640 C643 1.403 . S
H641 C647 0.930 . S
C642 H628 0.930 . S
C642 C640 1.395 . S
C642 C645 1.403 . S
C643 C640 1.403 . S
C643 C644 1.524 . S
C643 C647 1.400 . S
C644 H629 0.960 . S
C644 H630 0.960 . S
C644 H631 0.960 . S
C644 C643 1.524 . S
C645 C642 1.403 . S
C645 C646 1.392 . S
C645 C649 1.495 . S
C646 C645 1.392 . S
C646 C647 1.385 . S
C646 C648 1.478 . S
C647 H641 0.930 . S
C647 C643 1.400 . S
C647 C646 1.385 . S
C648 C646 1.478 . S
C648 C650 1.381 . S
C648 C654 1.383 . S
C649 C645 1.495 . S
C649 H655 0.959 . S
C649 H656 0.961 . S
C649 H657 0.960 . S
C650 C648 1.381 . S
C650 C651 1.394 . S
C650 H658 0.930 . S
C651 C650 1.394 . S
C651 C652 1.383 . S
C651 H659 0.929 . S
C652 C651 1.383 . S
C652 C653 1.377 . S
C653 H637 0.930 . S
C653 C652 1.377 . S
C653 C654 1.379 . S
C654 H638 0.931 . S
C654 C648 1.383 . S
C654 C653 1.379 . S
H655 C649 0.959 . S
H656 C649 0.961 . S
H657 C649 0.960 . S
H658 C650 0.930 . S
H659 C651 0.929 . S
H660 C668 0.929 . S
H661 C670 0.930 . S
H662 C672 0.930 . S
H663 C675 0.929 . S
H664 C678 0.930 . S
H665 C680 0.960 . S
H666 C680 0.960 . S
H667 C680 0.960 . S
C668 H660 0.929 . S
C668 C669 1.377 . S
C668 C670 1.384 . S
C669 C668 1.377 . S
C669 C675 1.390 . S
C670 H661 0.930 . S
C670 C668 1.384 . S
C670 C671 1.372 . S
C671 C670 1.372 . S
C671 C672 1.400 . S
C671 C676 1.490 . S
C672 H662 0.930 . S
C672 C671 1.400 . S
C672 C675 1.386 . S
H673 C689 0.930 . S
H674 C690 0.931 . S
C675 H663 0.929 . S
C675 C669 1.390 . S
C675 C672 1.386 . S
C676 C671 1.490 . S
C676 C678 1.395 . S
C676 C679 1.403 . S
H677 C683 0.930 . S
C678 H664 0.930 . S
C678 C676 1.395 . S
C678 C681 1.403 1_556 S
C679 C676 1.403 . S
C679 C680 1.524 . S
C679 C683 1.400 1_556 S
C680 H665 0.960 . S
C680 H666 0.960 . S
C680 H667 0.960 . S
C680 C679 1.524 . S
C681 C678 1.403 1_554 S
C681 C682 1.392 . S
C681 C685 1.495 . S
C682 C681 1.392 . S
C682 C683 1.385 . S
C682 C684 1.478 . S
C683 H677 0.930 . S
C683 C679 1.400 1_554 S
C683 C682 1.385 . S
C684 C682 1.478 . S
C684 C686 1.381 . S
C684 C690 1.383 . S
C685 C681 1.495 . S
C685 H691 0.959 . S
C685 H692 0.961 . S
C685 H693 0.960 . S
C686 C684 1.381 . S
C686 C687 1.394 . S
C686 H694 0.930 . S
C687 C686 1.394 . S
C687 C688 1.383 . S
C687 H695 0.929 . S
C688 C687 1.383 . S
C688 C689 1.377 . S
C689 H673 0.930 . S
C689 C688 1.377 . S
C689 C690 1.379 . S
C690 H674 0.931 . S
C690 C684 1.383 . S
C690 C689 1.379 . S
H691 C685 0.959 . S
H692 C685 0.961 . S
H693 C685 0.960 . S
H694 C686 0.930 . S
H695 C687 0.929 . S
H696 C704 0.929 . S
H697 C706 0.930 . S
H698 C708 0.930 . S
H699 C711 0.929 . S
H700 C714 0.930 . S
H701 C716 0.960 . S
H702 C716 0.960 . S
H703 C716 0.960 . S
C704 H696 0.929 . S
C704 C705 1.377 . S
C704 C706 1.384 . S
C705 C704 1.377 . S
C705 C711 1.390 . S
C706 H697 0.930 . S
C706 C704 1.384 . S
C706 C707 1.372 . S
C707 C706 1.372 . S
C707 C708 1.400 . S
C707 C712 1.490 . S
C708 H698 0.930 . S
C708 C707 1.400 . S
C708 C711 1.386 . S
H709 C725 0.930 . S
H710 C726 0.931 . S
C711 H699 0.929 . S
C711 C705 1.390 . S
C711 C708 1.386 . S
C712 C707 1.490 . S
C712 C714 1.395 . S
C712 C715 1.403 . S
H713 C719 0.930 . S
C714 H700 0.930 . S
C714 C712 1.395 . S
C714 C717 1.403 . S
C715 C712 1.403 . S
C715 C716 1.524 . S
C715 C719 1.400 . S
C716 H701 0.960 . S
C716 H702 0.960 . S
C716 H703 0.960 . S
C716 C715 1.524 . S
C717 C714 1.403 . S
C717 C718 1.392 . S
C717 C721 1.495 . S
C718 C717 1.392 . S
C718 C719 1.385 . S
C718 C720 1.478 . S
C719 H713 0.930 . S
C719 C715 1.400 . S
C719 C718 1.385 . S
C720 C718 1.478 . S
C720 C722 1.381 . S
C720 C726 1.383 . S
C721 C717 1.495 . S
C721 H727 0.959 . S
C721 H728 0.961 . S
C721 H729 0.960 . S
C722 C720 1.381 . S
C722 C723 1.394 . S
C722 H730 0.930 . S
C723 C722 1.394 . S
C723 C724 1.383 . S
C723 H731 0.929 . S
C724 C723 1.383 . S
C724 C725 1.377 . S
C725 H709 0.930 . S
C725 C724 1.377 . S
C725 C726 1.379 . S
C726 H710 0.931 . S
C726 C720 1.383 . S
C726 C725 1.379 . S
H727 C721 0.959 . S
H728 C721 0.961 . S
H729 C721 0.960 . S
H730 C722 0.930 . S
H731 C723 0.929 . S
H732 C740 0.929 . S
H733 C742 0.930 . S
H734 C744 0.930 . S
H735 C747 0.929 . S
H736 C750 0.930 . S
H737 C752 0.960 . S
H738 C752 0.960 . S
H739 C752 0.960 . S
C740 H732 0.929 . S
C740 C741 1.377 . S
C740 C742 1.384 . S
C741 C740 1.377 . S
C741 C747 1.390 . S
C742 H733 0.930 . S
C742 C740 1.384 . S
C742 C743 1.372 . S
C743 C742 1.372 . S
C743 C744 1.400 . S
C743 C748 1.490 . S
C744 H734 0.930 . S
C744 C743 1.400 . S
C744 C747 1.386 . S
H745 C761 0.930 . S
H746 C762 0.931 . S
C747 H735 0.929 . S
C747 C741 1.390 . S
C747 C744 1.386 . S
C748 C743 1.490 . S
C748 C750 1.395 . S
C748 C751 1.403 . S
H749 C755 0.930 . S
C750 H736 0.930 . S
C750 C748 1.395 . S
C750 C753 1.403 1_554 S
C751 C748 1.403 . S
C751 C752 1.524 . S
C751 C755 1.400 1_554 S
C752 H737 0.960 . S
C752 H738 0.960 . S
C752 H739 0.960 . S
C752 C751 1.524 . S
C753 C750 1.403 1_556 S
C753 C754 1.392 . S
C753 C757 1.495 . S
C754 C753 1.392 . S
C754 C755 1.385 . S
C754 C756 1.478 . S
C755 H749 0.930 . S
C755 C751 1.400 1_556 S
C755 C754 1.385 . S
C756 C754 1.478 . S
C756 C758 1.381 . S
C756 C762 1.383 . S
C757 C753 1.495 . S
C757 H763 0.959 . S
C757 H764 0.961 . S
C757 H765 0.960 . S
C758 C756 1.381 . S
C758 C759 1.394 . S
C758 H766 0.930 . S
C759 C758 1.394 . S
C759 C760 1.383 . S
C759 H767 0.929 . S
C760 C759 1.383 . S
C760 C761 1.377 . S
C761 H745 0.930 . S
C761 C760 1.377 . S
C761 C762 1.379 . S
C762 H746 0.931 . S
C762 C756 1.383 . S
C762 C761 1.379 . S
H763 C757 0.959 . S
H764 C757 0.961 . S
H765 C757 0.960 . S
H766 C758 0.930 . S
H767 C759 0.929 . S
H768 C776 0.929 . S
H769 C778 0.930 . S
H770 C780 0.930 . S
H771 C783 0.929 . S
H772 C786 0.930 . S
H773 C788 0.960 . S
H774 C788 0.960 . S
H775 C788 0.960 . S
C776 H768 0.929 . S
C776 C777 1.377 . S
C776 C778 1.384 . S
C777 C776 1.377 . S
C777 C783 1.390 . S
C778 H769 0.930 . S
C778 C776 1.384 . S
C778 C779 1.372 . S
C779 C778 1.372 . S
C779 C780 1.400 . S
C779 C784 1.490 . S
C780 H770 0.930 . S
C780 C779 1.400 . S
C780 C783 1.386 . S
H781 C797 0.930 . S
H782 C798 0.931 . S
C783 H771 0.929 . S
C783 C777 1.390 . S
C783 C780 1.386 . S
C784 C779 1.490 . S
C784 C786 1.395 . S
C784 C787 1.403 . S
H785 C791 0.930 . S
C786 H772 0.930 . S
C786 C784 1.395 . S
C786 C789 1.403 . S
C787 C784 1.403 . S
C787 C788 1.524 . S
C787 C791 1.400 . S
C788 H773 0.960 . S
C788 H774 0.960 . S
C788 H775 0.960 . S
C788 C787 1.524 . S
C789 C786 1.403 . S
C789 C790 1.392 . S
C789 C793 1.495 . S
C790 C789 1.392 . S
C790 C791 1.385 . S
C790 C792 1.478 . S
C791 H785 0.930 . S
C791 C787 1.400 . S
C791 C790 1.385 . S
C792 C790 1.478 . S
C792 C794 1.381 . S
C792 C798 1.383 . S
C793 C789 1.495 . S
C793 H799 0.959 . S
C793 H800 0.961 . S
C793 H801 0.960 . S
C794 C792 1.381 . S
C794 C795 1.394 . S
C794 H802 0.930 . S
C795 C794 1.394 . S
C795 C796 1.383 . S
C795 H803 0.929 . S
C796 C795 1.383 . S
C796 C797 1.377 . S
C797 H781 0.930 . S
C797 C796 1.377 . S
C797 C798 1.379 . S
C798 H782 0.931 . S
C798 C792 1.383 . S
C798 C797 1.379 . S
H799 C793 0.959 . S
H800 C793 0.961 . S
H801 C793 0.960 . S
H802 C794 0.930 . S
H803 C795 0.929 . S
H804 C812 0.929 . S
H805 C814 0.930 . S
H806 C816 0.930 . S
H807 C819 0.929 . S
H808 C822 0.930 . S
H809 C824 0.960 . S
H810 C824 0.960 . S
H811 C824 0.960 . S
C812 H804 0.929 . S
C812 C813 1.377 . S
C812 C814 1.384 . S
C813 C812 1.377 . S
C813 C819 1.390 . S
C814 H805 0.930 . S
C814 C812 1.384 . S
C814 C815 1.372 . S
C815 C814 1.372 . S
C815 C816 1.400 . S
C815 C820 1.490 . S
C816 H806 0.930 . S
C816 C815 1.400 . S
C816 C819 1.386 . S
H817 C833 0.930 . S
H818 C834 0.931 . S
C819 H807 0.929 . S
C819 C813 1.390 . S
C819 C816 1.386 . S
C820 C815 1.490 . S
C820 C822 1.395 . S
C820 C823 1.403 . S
H821 C827 0.930 . S
C822 H808 0.930 . S
C822 C820 1.395 . S
C822 C825 1.403 1_554 S
C823 C820 1.403 . S
C823 C824 1.524 . S
C823 C827 1.400 1_554 S
C824 H809 0.960 . S
C824 H810 0.960 . S
C824 H811 0.960 . S
C824 C823 1.524 . S
C825 C822 1.403 1_556 S
C825 C826 1.392 . S
C825 C829 1.495 . S
C826 C825 1.392 . S
C826 C827 1.385 . S
C826 C828 1.478 . S
C827 H821 0.930 . S
C827 C823 1.400 1_556 S
C827 C826 1.385 . S
C828 C826 1.478 . S
C828 C830 1.381 . S
C828 C834 1.383 . S
C829 C825 1.495 . S
C829 H835 0.959 . S
C829 H836 0.961 . S
C829 H837 0.960 . S
C830 C828 1.381 . S
C830 C831 1.394 . S
C830 H838 0.930 . S
C831 C830 1.394 . S
C831 C832 1.383 . S
C831 H839 0.929 . S
C832 C831 1.383 . S
C832 C833 1.377 . S
C833 H817 0.930 . S
C833 C832 1.377 . S
C833 C834 1.379 . S
C834 H818 0.931 . S
C834 C828 1.383 . S
C834 C833 1.379 . S
H835 C829 0.959 . S
H836 C829 0.961 . S
H837 C829 0.960 . S
H838 C830 0.930 . S
H839 C831 0.929 . S
H840 C848 0.929 . S
H841 C850 0.930 . S
H842 C852 0.930 . S
H843 C855 0.929 . S
H844 C858 0.930 . S
H845 C860 0.960 . S
H846 C860 0.960 . S
H847 C860 0.960 . S
C848 H840 0.929 . S
C848 C849 1.377 . S
C848 C850 1.384 . S
C849 C848 1.377 . S
C849 C855 1.390 . S
C850 H841 0.930 . S
C850 C848 1.384 . S
C850 C851 1.372 . S
C851 C850 1.372 . S
C851 C852 1.400 . S
C851 C856 1.490 . S
C852 H842 0.930 . S
C852 C851 1.400 . S
C852 C855 1.386 . S
H853 C869 0.930 . S
H854 C870 0.931 . S
C855 H843 0.929 . S
C855 C849 1.390 . S
C855 C852 1.386 . S
C856 C851 1.490 . S
C856 C858 1.395 . S
C856 C859 1.403 . S
H857 C863 0.930 . S
C858 H844 0.930 . S
C858 C856 1.395 . S
C858 C861 1.403 . S
C859 C856 1.403 . S
C859 C860 1.524 . S
C859 C863 1.400 . S
C860 H845 0.960 . S
C860 H846 0.960 . S
C860 H847 0.960 . S
C860 C859 1.524 . S
C861 C858 1.403 . S
C861 C862 1.392 . S
C861 C865 1.495 . S
C862 C861 1.392 . S
C862 C863 1.385 . S
C862 C864 1.478 . S
C863 H857 0.930 . S
C863 C859 1.400 . S
C863 C862 1.385 . S
C864 C862 1.478 . S
C864 C866 1.381 . S
C864 C870 1.383 . S
C865 C861 1.495 . S
C865 H871 0.959 . S
C865 H872 0.961 . S
C865 H873 0.960 . S
C866 C864 1.381 . S
C866 C867 1.394 . S
C866 H874 0.930 . S
C867 C866 1.394 . S
C867 C868 1.383 . S
C867 H875 0.929 . S
C868 C867 1.383 . S
C868 C869 1.377 . S
C869 H853 0.930 . S
C869 C868 1.377 . S
C869 C870 1.379 . S
C870 H854 0.931 . S
C870 C864 1.383 . S
C870 C869 1.379 . S
H871 C865 0.959 . S
H872 C865 0.961 . S
H873 C865 0.960 . S
H874 C866 0.930 . S
H875 C867 0.929 . S
H876 C884 0.929 . S
H877 C886 0.930 . S
H878 C888 0.930 . S
H879 C891 0.929 . S
H880 C894 0.930 . S
H881 C896 0.960 . S
H882 C896 0.960 . S
H883 C896 0.960 . S
C884 H876 0.929 . S
C884 C885 1.377 . S
C884 C886 1.384 . S
C885 C884 1.377 . S
C885 C891 1.390 . S
C886 H877 0.930 . S
C886 C884 1.384 . S
C886 C887 1.372 . S
C887 C886 1.372 . S
C887 C888 1.400 . S
C887 C892 1.490 . S
C888 H878 0.930 . S
C888 C887 1.400 . S
C888 C891 1.386 . S
H889 C905 0.930 . S
H890 C906 0.931 . S
C891 H879 0.929 . S
C891 C885 1.390 . S
C891 C888 1.386 . S
C892 C887 1.490 . S
C892 C894 1.395 . S
C892 C895 1.403 . S
H893 C899 0.930 . S
C894 H880 0.930 . S
C894 C892 1.395 . S
C894 C897 1.403 1_554 S
C895 C892 1.403 . S
C895 C896 1.524 . S
C895 C899 1.400 1_554 S
C896 H881 0.960 . S
C896 H882 0.960 . S
C896 H883 0.960 . S
C896 C895 1.524 . S
C897 C894 1.403 1_556 S
C897 C898 1.392 . S
C897 C901 1.495 . S
C898 C897 1.392 . S
C898 C899 1.385 . S
C898 C900 1.478 . S
C899 H893 0.930 . S
C899 C895 1.400 1_556 S
C899 C898 1.385 . S
C900 C898 1.478 . S
C900 C902 1.381 . S
C900 C906 1.383 . S
C901 C897 1.495 . S
C901 H907 0.959 . S
C901 H908 0.961 . S
C901 H909 0.960 . S
C902 C900 1.381 . S
C902 C903 1.394 . S
C902 H910 0.930 . S
C903 C902 1.394 . S
C903 C904 1.383 . S
C903 H911 0.929 . S
C904 C903 1.383 . S
C904 C905 1.377 . S
C905 H889 0.930 . S
C905 C904 1.377 . S
C905 C906 1.379 . S
C906 H890 0.931 . S
C906 C900 1.383 . S
C906 C905 1.379 . S
H907 C901 0.959 . S
H908 C901 0.961 . S
H909 C901 0.960 . S
H910 C902 0.930 . S
H911 C903 0.929 . S
H912 C920 0.929 . S
H913 C922 0.930 . S
H914 C924 0.930 . S
H915 C927 0.929 . S
H916 C930 0.930 . S
H917 C932 0.960 . S
H918 C932 0.960 . S
H919 C932 0.960 . S
C920 H912 0.929 . S
C920 C921 1.377 . S
C920 C922 1.384 . S
C921 C920 1.377 . S
C921 C927 1.390 . S
C922 H913 0.930 . S
C922 C920 1.384 . S
C922 C923 1.372 . S
C923 C922 1.372 . S
C923 C924 1.400 . S
C923 C928 1.490 . S
C924 H914 0.930 . S
C924 C923 1.400 . S
C924 C927 1.386 . S
H925 C941 0.930 . S
H926 C942 0.931 . S
C927 H915 0.929 . S
C927 C921 1.390 . S
C927 C924 1.386 . S
C928 C923 1.490 . S
C928 C930 1.395 . S
C928 C931 1.403 . S
H929 C935 0.930 . S
C930 H916 0.930 . S
C930 C928 1.395 . S
C930 C933 1.403 . S
C931 C928 1.403 . S
C931 C932 1.524 . S
C931 C935 1.400 . S
C932 H917 0.960 . S
C932 H918 0.960 . S
C932 H919 0.960 . S
C932 C931 1.524 . S
C933 C930 1.403 . S
C933 C934 1.392 . S
C933 C937 1.495 . S
C934 C933 1.392 . S
C934 C935 1.385 . S
C934 C936 1.478 . S
C935 H929 0.930 . S
C935 C931 1.400 . S
C935 C934 1.385 . S
C936 C934 1.478 . S
C936 C938 1.381 . S
C936 C942 1.383 . S
C937 C933 1.495 . S
C937 H943 0.959 . S
C937 H944 0.961 . S
C937 H945 0.960 . S
C938 C936 1.381 . S
C938 C939 1.394 . S
C938 H946 0.930 . S
C939 C938 1.394 . S
C939 C940 1.383 . S
C939 H947 0.929 . S
C940 C939 1.383 . S
C940 C941 1.377 . S
C941 H925 0.930 . S
C941 C940 1.377 . S
C941 C942 1.379 . S
C942 H926 0.931 . S
C942 C936 1.383 . S
C942 C941 1.379 . S
H943 C937 0.959 . S
H944 C937 0.961 . S
H945 C937 0.960 . S
H946 C938 0.930 . S
H947 C939 0.929 . S
H948 C956 0.929 . S
H949 C958 0.930 . S
H950 C960 0.930 . S
H951 C963 0.929 . S
H952 C966 0.930 . S
H953 C968 0.960 . S
H954 C968 0.960 . S
H955 C968 0.960 . S
C956 H948 0.929 . S
C956 C957 1.377 . S
C956 C958 1.384 . S
C957 C956 1.377 . S
C957 C963 1.390 . S
C958 H949 0.930 . S
C958 C956 1.384 . S
C958 C959 1.372 . S
C959 C958 1.372 . S
C959 C960 1.400 . S
C959 C964 1.490 . S
C960 H950 0.930 . S
C960 C959 1.400 . S
C960 C963 1.386 . S
H961 C977 0.930 . S
H962 C978 0.931 . S
C963 H951 0.929 . S
C963 C957 1.390 . S
C963 C960 1.386 . S
C964 C959 1.490 . S
C964 C966 1.395 . S
C964 C967 1.403 . S
H965 C971 0.930 . S
C966 H952 0.930 . S
C966 C964 1.395 . S
C966 C969 1.403 . S
C967 C964 1.403 . S
C967 C968 1.524 . S
C967 C971 1.400 . S
C968 H953 0.960 . S
C968 H954 0.960 . S
C968 H955 0.960 . S
C968 C967 1.524 . S
C969 C966 1.403 . S
C969 C970 1.392 . S
C969 C973 1.495 . S
C970 C969 1.392 . S
C970 C971 1.385 . S
C970 C972 1.478 . S
C971 H965 0.930 . S
C971 C967 1.400 . S
C971 C970 1.385 . S
C972 C970 1.478 . S
C972 C974 1.381 . S
C972 C978 1.383 . S
C973 C969 1.495 . S
C973 H979 0.959 . S
C973 H980 0.961 . S
C973 H981 0.960 . S
C974 C972 1.381 . S
C974 C975 1.394 . S
C974 H982 0.930 . S
C975 C974 1.394 . S
C975 C976 1.383 . S
C975 H983 0.929 . S
C976 C975 1.383 . S
C976 C977 1.377 . S
C977 H961 0.930 . S
C977 C976 1.377 . S
C977 C978 1.379 . S
C978 H962 0.931 . S
C978 C972 1.383 . S
C978 C977 1.379 . S
H979 C973 0.959 . S
H980 C973 0.961 . S
H981 C973 0.960 . S
H982 C974 0.930 . S
H983 C975 0.929 . S
H984 C992 0.929 . S
H985 C994 0.930 . S
H986 C996 0.930 . S
H987 C999 0.929 . S
H988 C1002 0.930 . S
H989 C1004 0.960 . S
H990 C1004 0.960 . S
H991 C1004 0.960 . S
C992 H984 0.929 . S
C992 C993 1.377 . S
C992 C994 1.384 . S
C993 C992 1.377 . S
C993 C999 1.390 . S
C994 H985 0.930 . S
C994 C992 1.384 . S
C994 C995 1.372 . S
C995 C994 1.372 . S
C995 C996 1.400 . S
C995 C1000 1.490 . S
C996 H986 0.930 . S
C996 C995 1.400 . S
C996 C999 1.386 . S
H997 C1013 0.930 . S
H998 C1014 0.931 . S
C999 H987 0.929 . S
C999 C993 1.390 . S
C999 C996 1.386 . S
C1000 C995 1.490 . S
C1000 C1002 1.395 . S
C1000 C1003 1.403 . S
H1001 C1007 0.930 . S
C1002 H988 0.930 . S
C1002 C1000 1.395 . S
C1002 C1005 1.403 1_565 S
C1003 C1000 1.403 . S
C1003 C1004 1.524 . S
C1003 C1007 1.400 1_565 S
C1004 H989 0.960 . S
C1004 H990 0.960 . S
C1004 H991 0.960 . S
C1004 C1003 1.524 . S
C1005 C1002 1.403 1_545 S
C1005 C1006 1.392 . S
C1005 C1009 1.495 . S
C1006 C1005 1.392 . S
C1006 C1007 1.385 . S
C1006 C1008 1.478 . S
C1007 H1001 0.930 . S
C1007 C1003 1.400 1_545 S
C1007 C1006 1.385 . S
C1008 C1006 1.478 . S
C1008 C1010 1.381 . S
C1008 C1014 1.383 . S
C1009 C1005 1.495 . S
C1009 H1015 0.959 . S
C1009 H1016 0.961 . S
C1009 H1017 0.960 . S
C1010 C1008 1.381 . S
C1010 C1011 1.394 . S
C1010 H1018 0.930 . S
C1011 C1010 1.394 . S
C1011 C1012 1.383 . S
C1011 H1019 0.929 . S
C1012 C1011 1.383 . S
C1012 C1013 1.377 . S
C1013 H997 0.930 . S
C1013 C1012 1.377 . S
C1013 C1014 1.379 . S
C1014 H998 0.931 . S
C1014 C1008 1.383 . S
C1014 C1013 1.379 . S
H1015 C1009 0.959 . S
H1016 C1009 0.961 . S
H1017 C1009 0.960 . S
H1018 C1010 0.930 . S
H1019 C1011 0.929 . S
H1020 C1028 0.929 . S
H1021 C1030 0.930 . S
H1022 C1032 0.930 . S
H1023 C1035 0.929 . S
H1024 C1038 0.930 . S
H1025 C1040 0.960 . S
H1026 C1040 0.960 . S
H1027 C1040 0.960 . S
C1028 H1020 0.929 . S
C1028 C1029 1.377 . S
C1028 C1030 1.384 . S
C1029 C1028 1.377 . S
C1029 C1035 1.390 . S
C1030 H1021 0.930 . S
C1030 C1028 1.384 . S
C1030 C1031 1.372 . S
C1031 C1030 1.372 . S
C1031 C1032 1.400 . S
C1031 C1036 1.490 . S
C1032 H1022 0.930 . S
C1032 C1031 1.400 . S
C1032 C1035 1.386 . S
H1033 C1049 0.930 . S
H1034 C1050 0.931 . S
C1035 H1023 0.929 . S
C1035 C1029 1.390 . S
C1035 C1032 1.386 . S
C1036 C1031 1.490 . S
C1036 C1038 1.395 . S
C1036 C1039 1.403 . S
H1037 C1043 0.930 . S
C1038 H1024 0.930 . S
C1038 C1036 1.395 . S
C1038 C1041 1.403 . S
C1039 C1036 1.403 . S
C1039 C1040 1.524 . S
C1039 C1043 1.400 . S
C1040 H1025 0.960 . S
C1040 H1026 0.960 . S
C1040 H1027 0.960 . S
C1040 C1039 1.524 . S
C1041 C1038 1.403 . S
C1041 C1042 1.392 . S
C1041 C1045 1.495 . S
C1042 C1041 1.392 . S
C1042 C1043 1.385 . S
C1042 C1044 1.478 . S
C1043 H1037 0.930 . S
C1043 C1039 1.400 . S
C1043 C1042 1.385 . S
C1044 C1042 1.478 . S
C1044 C1046 1.381 . S
C1044 C1050 1.383 . S
C1045 C1041 1.495 . S
C1045 H1051 0.959 . S
C1045 H1052 0.961 . S
C1045 H1053 0.960 . S
C1046 C1044 1.381 . S
C1046 C1047 1.394 . S
C1046 H1054 0.930 . S
C1047 C1046 1.394 . S
C1047 C1048 1.383 . S
C1047 H1055 0.929 . S
C1048 C1047 1.383 . S
C1048 C1049 1.377 . S
C1049 H1033 0.930 . S
C1049 C1048 1.377 . S
C1049 C1050 1.379 . S
C1050 H1034 0.931 . S
C1050 C1044 1.383 . S
C1050 C1049 1.379 . S
H1051 C1045 0.959 . S
H1052 C1045 0.961 . S
H1053 C1045 0.960 . S
H1054 C1046 0.930 . S
H1055 C1047 0.929 . S
H1056 C1064 0.929 . S
H1057 C1066 0.930 . S
H1058 C1068 0.930 . S
H1059 C1071 0.929 . S
H1060 C1074 0.930 . S
H1061 C1076 0.960 . S
H1062 C1076 0.960 . S
H1063 C1076 0.960 . S
C1064 H1056 0.929 . S
C1064 C1065 1.377 . S
C1064 C1066 1.384 . S
C1065 C1064 1.377 . S
C1065 C1071 1.390 . S
C1066 H1057 0.930 . S
C1066 C1064 1.384 . S
C1066 C1067 1.372 . S
C1067 C1066 1.372 . S
C1067 C1068 1.400 . S
C1067 C1072 1.490 . S
C1068 H1058 0.930 . S
C1068 C1067 1.400 . S
C1068 C1071 1.386 . S
H1069 C1085 0.930 . S
H1070 C1086 0.931 . S
C1071 H1059 0.929 . S
C1071 C1065 1.390 . S
C1071 C1068 1.386 . S
C1072 C1067 1.490 . S
C1072 C1074 1.395 . S
C1072 C1075 1.403 . S
H1073 C1079 0.930 . S
C1074 H1060 0.930 . S
C1074 C1072 1.395 . S
C1074 C1077 1.403 1_565 S
C1075 C1072 1.403 . S
C1075 C1076 1.524 . S
C1075 C1079 1.400 1_565 S
C1076 H1061 0.960 . S
C1076 H1062 0.960 . S
C1076 H1063 0.960 . S
C1076 C1075 1.524 . S
C1077 C1074 1.403 1_545 S
C1077 C1078 1.392 . S
C1077 C1081 1.495 . S
C1078 C1077 1.392 . S
C1078 C1079 1.385 . S
C1078 C1080 1.478 . S
C1079 H1073 0.930 . S
C1079 C1075 1.400 1_545 S
C1079 C1078 1.385 . S
C1080 C1078 1.478 . S
C1080 C1082 1.381 . S
C1080 C1086 1.383 . S
C1081 C1077 1.495 . S
C1081 H1087 0.959 . S
C1081 H1088 0.961 . S
C1081 H1089 0.960 . S
C1082 C1080 1.381 . S
C1082 C1083 1.394 . S
C1082 H1090 0.930 . S
C1083 C1082 1.394 . S
C1083 C1084 1.383 . S
C1083 H1091 0.929 . S
C1084 C1083 1.383 . S
C1084 C1085 1.377 . S
C1085 H1069 0.930 . S
C1085 C1084 1.377 . S
C1085 C1086 1.379 . S
C1086 H1070 0.931 . S
C1086 C1080 1.383 . S
C1086 C1085 1.379 . S
H1087 C1081 0.959 . S
H1088 C1081 0.961 . S
H1089 C1081 0.960 . S
H1090 C1082 0.930 . S
H1091 C1083 0.929 . S
H1092 C1100 0.929 . S
H1093 C1102 0.930 . S
H1094 C1104 0.930 . S
H1095 C1107 0.929 . S
H1096 C1110 0.930 . S
H1097 C1112 0.960 . S
H1098 C1112 0.960 . S
H1099 C1112 0.960 . S
C1100 H1092 0.929 . S
C1100 C1101 1.377 . S
C1100 C1102 1.384 . S
C1101 C1100 1.377 . S
C1101 C1107 1.390 . S
C1102 H1093 0.930 . S
C1102 C1100 1.384 . S
C1102 C1103 1.372 . S
C1103 C1102 1.372 . S
C1103 C1104 1.400 . S
C1103 C1108 1.490 . S
C1104 H1094 0.930 . S
C1104 C1103 1.400 . S
C1104 C1107 1.386 . S
H1105 C1121 0.930 . S
H1106 C1122 0.931 . S
C1107 H1095 0.929 . S
C1107 C1101 1.390 . S
C1107 C1104 1.386 . S
C1108 C1103 1.490 . S
C1108 C1110 1.395 . S
C1108 C1111 1.403 . S
H1109 C1115 0.930 . S
C1110 H1096 0.930 . S
C1110 C1108 1.395 . S
C1110 C1113 1.403 . S
C1111 C1108 1.403 . S
C1111 C1112 1.524 . S
C1111 C1115 1.400 . S
C1112 H1097 0.960 . S
C1112 H1098 0.960 . S
C1112 H1099 0.960 . S
C1112 C1111 1.524 . S
C1113 C1110 1.403 . S
C1113 C1114 1.392 . S
C1113 C1117 1.495 . S
C1114 C1113 1.392 . S
C1114 C1115 1.385 . S
C1114 C1116 1.478 . S
C1115 H1109 0.930 . S
C1115 C1111 1.400 . S
C1115 C1114 1.385 . S
C1116 C1114 1.478 . S
C1116 C1118 1.381 . S
C1116 C1122 1.383 . S
C1117 C1113 1.495 . S
C1117 H1123 0.959 . S
C1117 H1124 0.961 . S
C1117 H1125 0.960 . S
C1118 C1116 1.381 . S
C1118 C1119 1.394 . S
C1118 H1126 0.930 . S
C1119 C1118 1.394 . S
C1119 C1120 1.383 . S
C1119 H1127 0.929 . S
C1120 C1119 1.383 . S
C1120 C1121 1.377 . S
C1121 H1105 0.930 . S
C1121 C1120 1.377 . S
C1121 C1122 1.379 . S
C1122 H1106 0.931 . S
C1122 C1116 1.383 . S
C1122 C1121 1.379 . S
H1123 C1117 0.959 . S
H1124 C1117 0.961 . S
H1125 C1117 0.960 . S
H1126 C1118 0.930 . S
H1127 C1119 0.929 . S
H1128 C1136 0.929 . S
H1129 C1138 0.930 . S
H1130 C1140 0.930 . S
H1131 C1143 0.929 . S
H1132 C1146 0.930 . S
H1133 C1148 0.960 . S
H1134 C1148 0.960 . S
H1135 C1148 0.960 . S
C1136 H1128 0.929 . S
C1136 C1137 1.377 . S
C1136 C1138 1.384 . S
C1137 C1136 1.377 . S
C1137 C1143 1.390 . S
C1138 H1129 0.930 . S
C1138 C1136 1.384 . S
C1138 C1139 1.372 . S
C1139 C1138 1.372 . S
C1139 C1140 1.400 . S
C1139 C1144 1.490 . S
C1140 H1130 0.930 . S
C1140 C1139 1.400 . S
C1140 C1143 1.386 . S
H1141 C1157 0.930 . S
H1142 C1158 0.931 . S
C1143 H1131 0.929 . S
C1143 C1137 1.390 . S
C1143 C1140 1.386 . S
C1144 C1139 1.490 . S
C1144 C1146 1.395 . S
C1144 C1147 1.403 . S
H1145 C1151 0.930 . S
C1146 H1132 0.930 . S
C1146 C1144 1.395 . S
C1146 C1149 1.403 1_565 S
C1147 C1144 1.403 . S
C1147 C1148 1.524 . S
C1147 C1151 1.400 1_565 S
C1148 H1133 0.960 . S
C1148 H1134 0.960 . S
C1148 H1135 0.960 . S
C1148 C1147 1.524 . S
C1149 C1146 1.403 1_545 S
C1149 C1150 1.392 . S
C1149 C1153 1.495 . S
C1150 C1149 1.392 . S
C1150 C1151 1.385 . S
C1150 C1152 1.478 . S
C1151 H1145 0.930 . S
C1151 C1147 1.400 1_545 S
C1151 C1150 1.385 . S
C1152 C1150 1.478 . S
C1152 C1154 1.381 . S
C1152 C1158 1.383 . S
C1153 C1149 1.495 . S
C1153 H1159 0.959 . S
C1153 H1160 0.961 . S
C1153 H1161 0.960 . S
C1154 C1152 1.381 . S
C1154 C1155 1.394 . S
C1154 H1162 0.930 . S
C1155 C1154 1.394 . S
C1155 C1156 1.383 . S
C1155 H1163 0.929 . S
C1156 C1155 1.383 . S
C1156 C1157 1.377 . S
C1157 H1141 0.930 . S
C1157 C1156 1.377 . S
C1157 C1158 1.379 . S
C1158 H1142 0.931 . S
C1158 C1152 1.383 . S
C1158 C1157 1.379 . S
H1159 C1153 0.959 . S
H1160 C1153 0.961 . S
H1161 C1153 0.960 . S
H1162 C1154 0.930 . S
H1163 C1155 0.929 . S
H1164 C1172 0.929 . S
H1165 C1174 0.930 . S
H1166 C1176 0.930 . S
H1167 C1179 0.929 . S
H1168 C1182 0.930 . S
H1169 C1184 0.960 . S
H1170 C1184 0.960 . S
H1171 C1184 0.960 . S
C1172 H1164 0.929 . S
C1172 C1173 1.377 . S
C1172 C1174 1.384 . S
C1173 C1172 1.377 . S
C1173 C1179 1.390 . S
C1174 H1165 0.930 . S
C1174 C1172 1.384 . S
C1174 C1175 1.372 . S
C1175 C1174 1.372 . S
C1175 C1176 1.400 . S
C1175 C1180 1.490 . S
C1176 H1166 0.930 . S
C1176 C1175 1.400 . S
C1176 C1179 1.386 . S
H1177 C1193 0.930 . S
H1178 C1194 0.931 . S
C1179 H1167 0.929 . S
C1179 C1173 1.390 . S
C1179 C1176 1.386 . S
C1180 C1175 1.490 . S
C1180 C1182 1.395 . S
C1180 C1183 1.403 . S
H1181 C1187 0.930 . S
C1182 H1168 0.930 . S
C1182 C1180 1.395 . S
C1182 C1185 1.403 1_545 S
C1183 C1180 1.403 . S
C1183 C1184 1.524 . S
C1183 C1187 1.400 1_545 S
C1184 H1169 0.960 . S
C1184 H1170 0.960 . S
C1184 H1171 0.960 . S
C1184 C1183 1.524 . S
C1185 C1182 1.403 1_565 S
C1185 C1186 1.392 . S
C1185 C1189 1.495 . S
C1186 C1185 1.392 . S
C1186 C1187 1.385 . S
C1186 C1188 1.478 . S
C1187 H1181 0.930 . S
C1187 C1183 1.400 1_565 S
C1187 C1186 1.385 . S
C1188 C1186 1.478 . S
C1188 C1190 1.381 . S
C1188 C1194 1.383 . S
C1189 C1185 1.495 . S
C1189 H1195 0.959 . S
C1189 H1196 0.961 . S
C1189 H1197 0.960 . S
C1190 C1188 1.381 . S
C1190 C1191 1.394 . S
C1190 H1198 0.930 . S
C1191 C1190 1.394 . S
C1191 C1192 1.383 . S
C1191 H1199 0.929 . S
C1192 C1191 1.383 . S
C1192 C1193 1.377 . S
C1193 H1177 0.930 . S
C1193 C1192 1.377 . S
C1193 C1194 1.379 . S
C1194 H1178 0.931 . S
C1194 C1188 1.383 . S
C1194 C1193 1.379 . S
H1195 C1189 0.959 . S
H1196 C1189 0.961 . S
H1197 C1189 0.960 . S
H1198 C1190 0.930 . S
H1199 C1191 0.929 . S
H1200 C1208 0.929 . S
H1201 C1210 0.930 . S
H1202 C1212 0.930 . S
H1203 C1215 0.929 . S
H1204 C1218 0.930 . S
H1205 C1220 0.960 . S
H1206 C1220 0.960 . S
H1207 C1220 0.960 . S
C1208 H1200 0.929 . S
C1208 C1209 1.377 . S
C1208 C1210 1.384 . S
C1209 C1208 1.377 . S
C1209 C1215 1.390 . S
C1210 H1201 0.930 . S
C1210 C1208 1.384 . S
C1210 C1211 1.372 . S
C1211 C1210 1.372 . S
C1211 C1212 1.400 . S
C1211 C1216 1.490 . S
C1212 H1202 0.930 . S
C1212 C1211 1.400 . S
C1212 C1215 1.386 . S
H1213 C1229 0.930 . S
H1214 C1230 0.931 . S
C1215 H1203 0.929 . S
C1215 C1209 1.390 . S
C1215 C1212 1.386 . S
C1216 C1211 1.490 . S
C1216 C1218 1.395 . S
C1216 C1219 1.403 . S
H1217 C1223 0.930 . S
C1218 H1204 0.930 . S
C1218 C1216 1.395 . S
C1218 C1221 1.403 . S
C1219 C1216 1.403 . S
C1219 C1220 1.524 . S
C1219 C1223 1.400 . S
C1220 H1205 0.960 . S
C1220 H1206 0.960 . S
C1220 H1207 0.960 . S
C1220 C1219 1.524 . S
C1221 C1218 1.403 . S
C1221 C1222 1.392 . S
C1221 C1225 1.495 . S
C1222 C1221 1.392 . S
C1222 C1223 1.385 . S
C1222 C1224 1.478 . S
C1223 H1217 0.930 . S
C1223 C1219 1.400 . S
C1223 C1222 1.385 . S
C1224 C1222 1.478 . S
C1224 C1226 1.381 . S
C1224 C1230 1.383 . S
C1225 C1221 1.495 . S
C1225 H1231 0.959 . S
C1225 H1232 0.961 . S
C1225 H1233 0.960 . S
C1226 C1224 1.381 . S
C1226 C1227 1.394 . S
C1226 H1234 0.930 . S
C1227 C1226 1.394 . S
C1227 C1228 1.383 . S
C1227 H1235 0.929 . S
C1228 C1227 1.383 . S
C1228 C1229 1.377 . S
C1229 H1213 0.930 . S
C1229 C1228 1.377 . S
C1229 C1230 1.379 . S
C1230 H1214 0.931 . S
C1230 C1224 1.383 . S
C1230 C1229 1.379 . S
H1231 C1225 0.959 . S
H1232 C1225 0.961 . S
H1233 C1225 0.960 . S
H1234 C1226 0.930 . S
H1235 C1227 0.929 . S
H1236 C1244 0.929 . S
H1237 C1246 0.930 . S
H1238 C1248 0.930 . S
H1239 C1251 0.929 . S
H1240 C1254 0.930 . S
H1241 C1256 0.960 . S
H1242 C1256 0.960 . S
H1243 C1256 0.960 . S
C1244 H1236 0.929 . S
C1244 C1245 1.377 . S
C1244 C1246 1.384 . S
C1245 C1244 1.377 . S
C1245 C1251 1.390 . S
C1246 H1237 0.930 . S
C1246 C1244 1.384 . S
C1246 C1247 1.372 . S
C1247 C1246 1.372 . S
C1247 C1248 1.400 . S
C1247 C1252 1.490 . S
C1248 H1238 0.930 . S
C1248 C1247 1.400 . S
C1248 C1251 1.386 . S
H1249 C1265 0.930 . S
H1250 C1266 0.931 . S
C1251 H1239 0.929 . S
C1251 C1245 1.390 . S
C1251 C1248 1.386 . S
C1252 C1247 1.490 . S
C1252 C1254 1.395 . S
C1252 C1255 1.403 . S
H1253 C1259 0.930 . S
C1254 H1240 0.930 . S
C1254 C1252 1.395 . S
C1254 C1257 1.403 . S
C1255 C1252 1.403 . S
C1255 C1256 1.524 . S
C1255 C1259 1.400 . S
C1256 H1241 0.960 . S
C1256 H1242 0.960 . S
C1256 H1243 0.960 . S
C1256 C1255 1.524 . S
C1257 C1254 1.403 . S
C1257 C1258 1.392 . S
C1257 C1261 1.495 . S
C1258 C1257 1.392 . S
C1258 C1259 1.385 . S
C1258 C1260 1.478 . S
C1259 H1253 0.930 . S
C1259 C1255 1.400 . S
C1259 C1258 1.385 . S
C1260 C1258 1.478 . S
C1260 C1262 1.381 . S
C1260 C1266 1.383 . S
C1261 C1257 1.495 . S
C1261 H1267 0.959 . S
C1261 H1268 0.961 . S
C1261 H1269 0.960 . S
C1262 C1260 1.381 . S
C1262 C1263 1.394 . S
C1262 H1270 0.930 . S
C1263 C1262 1.394 . S
C1263 C1264 1.383 . S
C1263 H1271 0.929 . S
C1264 C1263 1.383 . S
C1264 C1265 1.377 . S
C1265 H1249 0.930 . S
C1265 C1264 1.377 . S
C1265 C1266 1.379 . S
C1266 H1250 0.931 . S
C1266 C1260 1.383 . S
C1266 C1265 1.379 . S
H1267 C1261 0.959 . S
H1268 C1261 0.961 . S
H1269 C1261 0.960 . S
H1270 C1262 0.930 . S
H1271 C1263 0.929 . S
H1272 C1280 0.929 . S
H1273 C1282 0.930 . S
H1274 C1284 0.930 . S
H1275 C1287 0.929 . S
H1276 C1290 0.930 . S
H1277 C1292 0.960 . S
H1278 C1292 0.960 . S
H1279 C1292 0.960 . S
C1280 H1272 0.929 . S
C1280 C1281 1.377 . S
C1280 C1282 1.384 . S
C1281 C1280 1.377 . S
C1281 C1287 1.390 . S
C1282 H1273 0.930 . S
C1282 C1280 1.384 . S
C1282 C1283 1.372 . S
C1283 C1282 1.372 . S
C1283 C1284 1.400 . S
C1283 C1288 1.490 . S
C1284 H1274 0.930 . S
C1284 C1283 1.400 . S
C1284 C1287 1.386 . S
H1285 C1301 0.930 . S
H1286 C1302 0.931 . S
C1287 H1275 0.929 . S
C1287 C1281 1.390 . S
C1287 C1284 1.386 . S
C1288 C1283 1.490 . S
C1288 C1290 1.395 . S
C1288 C1291 1.403 . S
H1289 C1295 0.930 . S
C1290 H1276 0.930 . S
C1290 C1288 1.395 . S
C1290 C1293 1.403 . S
C1291 C1288 1.403 . S
C1291 C1292 1.524 . S
C1291 C1295 1.400 . S
C1292 H1277 0.960 . S
C1292 H1278 0.960 . S
C1292 H1279 0.960 . S
C1292 C1291 1.524 . S
C1293 C1290 1.403 . S
C1293 C1294 1.392 . S
C1293 C1297 1.495 . S
C1294 C1293 1.392 . S
C1294 C1295 1.385 . S
C1294 C1296 1.478 . S
C1295 H1289 0.930 . S
C1295 C1291 1.400 . S
C1295 C1294 1.385 . S
C1296 C1294 1.478 . S
C1296 C1298 1.381 . S
C1296 C1302 1.383 . S
C1297 C1293 1.495 . S
C1297 H1303 0.959 . S
C1297 H1304 0.961 . S
C1297 H1305 0.960 . S
C1298 C1296 1.381 . S
C1298 C1299 1.394 . S
C1298 H1306 0.930 . S
C1299 C1298 1.394 . S
C1299 C1300 1.383 . S
C1299 H1307 0.929 . S
C1300 C1299 1.383 . S
C1300 C1301 1.377 . S
C1301 H1285 0.930 . S
C1301 C1300 1.377 . S
C1301 C1302 1.379 . S
C1302 H1286 0.931 . S
C1302 C1296 1.383 . S
C1302 C1301 1.379 . S
H1303 C1297 0.959 . S
H1304 C1297 0.961 . S
H1305 C1297 0.960 . S
H1306 C1298 0.930 . S
H1307 C1299 0.929 . S
H1308 C1316 0.929 . S
H1309 C1318 0.930 . S
H1310 C1320 0.930 . S
H1311 C1323 0.929 . S
H1312 C1326 0.930 . S
H1313 C1328 0.960 . S
H1314 C1328 0.960 . S
H1315 C1328 0.960 . S
C1316 H1308 0.929 . S
C1316 C1317 1.377 . S
C1316 C1318 1.384 . S
C1317 C1316 1.377 . S
C1317 C1323 1.390 . S
C1318 H1309 0.930 . S
C1318 C1316 1.384 . S
C1318 C1319 1.372 . S
C1319 C1318 1.372 . S
C1319 C1320 1.400 . S
C1319 C1324 1.490 . S
C1320 H1310 0.930 . S
C1320 C1319 1.400 . S
C1320 C1323 1.386 . S
H1321 C1337 0.930 . S
H1322 C1338 0.931 . S
C1323 H1311 0.929 . S
C1323 C1317 1.390 . S
C1323 C1320 1.386 . S
C1324 C1319 1.490 . S
C1324 C1326 1.395 . S
C1324 C1327 1.403 . S
H1325 C1331 0.930 . S
C1326 H1312 0.930 . S
C1326 C1324 1.395 . S
C1326 C1329 1.403 . S
C1327 C1324 1.403 . S
C1327 C1328 1.524 . S
C1327 C1331 1.400 . S
C1328 H1313 0.960 . S
C1328 H1314 0.960 . S
C1328 H1315 0.960 . S
C1328 C1327 1.524 . S
C1329 C1326 1.403 . S
C1329 C1330 1.392 . S
C1329 C1333 1.495 . S
C1330 C1329 1.392 . S
C1330 C1331 1.385 . S
C1330 C1332 1.478 . S
C1331 H1325 0.930 . S
C1331 C1327 1.400 . S
C1331 C1330 1.385 . S
C1332 C1330 1.478 . S
C1332 C1334 1.381 . S
C1332 C1338 1.383 . S
C1333 C1329 1.495 . S
C1333 H1339 0.959 . S
C1333 H1340 0.961 . S
C1333 H1341 0.960 . S
C1334 C1332 1.381 . S
C1334 C1335 1.394 . S
C1334 H1342 0.930 . S
C1335 C1334 1.394 . S
C1335 C1336 1.383 . S
C1335 H1343 0.929 . S
C1336 C1335 1.383 . S
C1336 C1337 1.377 . S
C1337 H1321 0.930 . S
C1337 C1336 1.377 . S
C1337 C1338 1.379 . S
C1338 H1322 0.931 . S
C1338 C1332 1.383 . S
C1338 C1337 1.379 . S
H1339 C1333 0.959 . S
H1340 C1333 0.961 . S
H1341 C1333 0.960 . S
H1342 C1334 0.930 . S
H1343 C1335 0.929 . S
H1344 C1352 0.929 . S
H1345 C1354 0.930 . S
H1346 C1356 0.930 . S
H1347 C1359 0.929 . S
H1348 C1362 0.930 . S
H1349 C1364 0.960 . S
H1350 C1364 0.960 . S
H1351 C1364 0.960 . S
C1352 H1344 0.929 . S
C1352 C1353 1.377 . S
C1352 C1354 1.384 . S
C1353 C1352 1.377 . S
C1353 C1359 1.390 . S
C1354 H1345 0.930 . S
C1354 C1352 1.384 . S
C1354 C1355 1.372 . S
C1355 C1354 1.372 . S
C1355 C1356 1.400 . S
C1355 C1360 1.490 . S
C1356 H1346 0.930 . S
C1356 C1355 1.400 . S
C1356 C1359 1.386 . S
H1357 C1373 0.930 . S
H1358 C1374 0.931 . S
C1359 H1347 0.929 . S
C1359 C1353 1.390 . S
C1359 C1356 1.386 . S
C1360 C1355 1.490 . S
C1360 C1362 1.395 . S
C1360 C1363 1.403 . S
H1361 C1367 0.930 . S
C1362 H1348 0.930 . S
C1362 C1360 1.395 . S
C1362 C1365 1.403 . S
C1363 C1360 1.403 . S
C1363 C1364 1.524 . S
C1363 C1367 1.400 . S
C1364 H1349 0.960 . S
C1364 H1350 0.960 . S
C1364 H1351 0.960 . S
C1364 C1363 1.524 . S
C1365 C1362 1.403 . S
C1365 C1366 1.392 . S
C1365 C1369 1.495 . S
C1366 C1365 1.392 . S
C1366 C1367 1.385 . S
C1366 C1368 1.478 . S
C1367 H1361 0.930 . S
C1367 C1363 1.400 . S
C1367 C1366 1.385 . S
C1368 C1366 1.478 . S
C1368 C1370 1.381 . S
C1368 C1374 1.383 . S
C1369 C1365 1.495 . S
C1369 H1375 0.959 . S
C1369 H1376 0.961 . S
C1369 H1377 0.960 . S
C1370 C1368 1.381 . S
C1370 C1371 1.394 . S
C1370 H1378 0.930 . S
C1371 C1370 1.394 . S
C1371 C1372 1.383 . S
C1371 H1379 0.929 . S
C1372 C1371 1.383 . S
C1372 C1373 1.377 . S
C1373 H1357 0.930 . S
C1373 C1372 1.377 . S
C1373 C1374 1.379 . S
C1374 H1358 0.931 . S
C1374 C1368 1.383 . S
C1374 C1373 1.379 . S
H1375 C1369 0.959 . S
H1376 C1369 0.961 . S
H1377 C1369 0.960 . S
H1378 C1370 0.930 . S
H1379 C1371 0.929 . S
H1380 C1388 0.929 . S
H1381 C1390 0.930 . S
H1382 C1392 0.930 . S
H1383 C1395 0.929 . S
H1384 C1398 0.930 . S
H1385 C1400 0.960 . S
H1386 C1400 0.960 . S
H1387 C1400 0.960 . S
C1388 H1380 0.929 . S
C1388 C1389 1.377 . S
C1388 C1390 1.384 . S
C1389 C1388 1.377 . S
C1389 C1395 1.390 . S
C1390 H1381 0.930 . S
C1390 C1388 1.384 . S
C1390 C1391 1.372 . S
C1391 C1390 1.372 . S
C1391 C1392 1.400 . S
C1391 C1396 1.490 . S
C1392 H1382 0.930 . S
C1392 C1391 1.400 . S
C1392 C1395 1.386 . S
H1393 C1409 0.930 . S
H1394 C1410 0.931 . S
C1395 H1383 0.929 . S
C1395 C1389 1.390 . S
C1395 C1392 1.386 . S
C1396 C1391 1.490 . S
C1396 C1398 1.395 . S
C1396 C1399 1.403 . S
H1397 C1403 0.930 . S
C1398 H1384 0.930 . S
C1398 C1396 1.395 . S
C1398 C1401 1.403 . S
C1399 C1396 1.403 . S
C1399 C1400 1.524 . S
C1399 C1403 1.400 . S
C1400 H1385 0.960 . S
C1400 H1386 0.960 . S
C1400 H1387 0.960 . S
C1400 C1399 1.524 . S
C1401 C1398 1.403 . S
C1401 C1402 1.392 . S
C1401 C1405 1.495 . S
C1402 C1401 1.392 . S
C1402 C1403 1.385 . S
C1402 C1404 1.478 . S
C1403 H1397 0.930 . S
C1403 C1399 1.400 . S
C1403 C1402 1.385 . S
C1404 C1402 1.478 . S
C1404 C1406 1.381 . S
C1404 C1410 1.383 . S
C1405 C1401 1.495 . S
C1405 H1411 0.959 . S
C1405 H1412 0.961 . S
C1405 H1413 0.960 . S
C1406 C1404 1.381 . S
C1406 C1407 1.394 . S
C1406 H1414 0.930 . S
C1407 C1406 1.394 . S
C1407 C1408 1.383 . S
C1407 H1415 0.929 . S
C1408 C1407 1.383 . S
C1408 C1409 1.377 . S
C1409 H1393 0.930 . S
C1409 C1408 1.377 . S
C1409 C1410 1.379 . S
C1410 H1394 0.931 . S
C1410 C1404 1.383 . S
C1410 C1409 1.379 . S
H1411 C1405 0.959 . S
H1412 C1405 0.961 . S
H1413 C1405 0.960 . S
H1414 C1406 0.930 . S
H1415 C1407 0.929 . S
H1416 C1424 0.929 . S
H1417 C1426 0.930 . S
H1418 C1428 0.930 . S
H1419 C1431 0.929 . S
H1420 C1434 0.930 . S
H1421 C1436 0.960 . S
H1422 C1436 0.960 . S
H1423 C1436 0.960 . S
C1424 H1416 0.929 . S
C1424 C1425 1.377 . S
C1424 C1426 1.384 . S
C1425 C1424 1.377 . S
C1425 C1431 1.390 . S
C1426 H1417 0.930 . S
C1426 C1424 1.384 . S
C1426 C1427 1.372 . S
C1427 C1426 1.372 . S
C1427 C1428 1.400 . S
C1427 C1432 1.490 . S
C1428 H1418 0.930 . S
C1428 C1427 1.400 . S
C1428 C1431 1.386 . S
H1429 C1445 0.930 . S
H1430 C1446 0.931 . S
C1431 H1419 0.929 . S
C1431 C1425 1.390 . S
C1431 C1428 1.386 . S
C1432 C1427 1.490 . S
C1432 C1434 1.395 . S
C1432 C1435 1.403 . S
H1433 C1439 0.930 . S
C1434 H1420 0.930 . S
C1434 C1432 1.395 . S
C1434 C1437 1.403 . S
C1435 C1432 1.403 . S
C1435 C1436 1.524 . S
C1435 C1439 1.400 . S
C1436 H1421 0.960 . S
C1436 H1422 0.960 . S
C1436 H1423 0.960 . S
C1436 C1435 1.524 . S
C1437 C1434 1.403 . S
C1437 C1438 1.392 . S
C1437 C1441 1.495 . S
C1438 C1437 1.392 . S
C1438 C1439 1.385 . S
C1438 C1440 1.478 . S
C1439 H1433 0.930 . S
C1439 C1435 1.400 . S
C1439 C1438 1.385 . S
C1440 C1438 1.478 . S
C1440 C1442 1.381 . S
C1440 C1446 1.383 . S
C1441 C1437 1.495 . S
C1441 H1447 0.959 . S
C1441 H1448 0.961 . S
C1441 H1449 0.960 . S
C1442 C1440 1.381 . S
C1442 C1443 1.394 . S
C1442 H1450 0.930 . S
C1443 C1442 1.394 . S
C1443 C1444 1.383 . S
C1443 H1451 0.929 . S
C1444 C1443 1.383 . S
C1444 C1445 1.377 . S
C1445 H1429 0.930 . S
C1445 C1444 1.377 . S
C1445 C1446 1.379 . S
C1446 H1430 0.931 . S
C1446 C1440 1.383 . S
C1446 C1445 1.379 . S
H1447 C1441 0.959 . S
H1448 C1441 0.961 . S
H1449 C1441 0.960 . S
H1450 C1442 0.930 . S
H1451 C1443 0.929 . S
H1452 C1460 0.929 . S
H1453 C1462 0.930 . S
H1454 C1464 0.930 . S
H1455 C1467 0.929 . S
H1456 C1470 0.930 . S
H1457 C1472 0.960 . S
H1458 C1472 0.960 . S
H1459 C1472 0.960 . S
C1460 H1452 0.929 . S
C1460 C1461 1.377 . S
C1460 C1462 1.384 . S
C1461 C1460 1.377 . S
C1461 C1467 1.390 . S
C1462 H1453 0.930 . S
C1462 C1460 1.384 . S
C1462 C1463 1.372 . S
C1463 C1462 1.372 . S
C1463 C1464 1.400 . S
C1463 C1468 1.490 . S
C1464 H1454 0.930 . S
C1464 C1463 1.400 . S
C1464 C1467 1.386 . S
H1465 C1481 0.930 . S
H1466 C1482 0.931 . S
C1467 H1455 0.929 . S
C1467 C1461 1.390 . S
C1467 C1464 1.386 . S
C1468 C1463 1.490 . S
C1468 C1470 1.395 . S
C1468 C1471 1.403 . S
H1469 C1475 0.930 . S
C1470 H1456 0.930 . S
C1470 C1468 1.395 . S
C1470 C1473 1.403 . S
C1471 C1468 1.403 . S
C1471 C1472 1.524 . S
C1471 C1475 1.400 . S
C1472 H1457 0.960 . S
C1472 H1458 0.960 . S
C1472 H1459 0.960 . S
C1472 C1471 1.524 . S
C1473 C1470 1.403 . S
C1473 C1474 1.392 . S
C1473 C1477 1.495 . S
C1474 C1473 1.392 . S
C1474 C1475 1.385 . S
C1474 C1476 1.478 . S
C1475 H1469 0.930 . S
C1475 C1471 1.400 . S
C1475 C1474 1.385 . S
C1476 C1474 1.478 . S
C1476 C1478 1.381 . S
C1476 C1482 1.383 . S
C1477 C1473 1.495 . S
C1477 H1483 0.959 . S
C1477 H1484 0.961 . S
C1477 H1485 0.960 . S
C1478 C1476 1.381 . S
C1478 C1479 1.394 . S
C1478 H1486 0.930 . S
C1479 C1478 1.394 . S
C1479 C1480 1.383 . S
C1479 H1487 0.929 . S
C1480 C1479 1.383 . S
C1480 C1481 1.377 . S
C1481 H1465 0.930 . S
C1481 C1480 1.377 . S
C1481 C1482 1.379 . S
C1482 H1466 0.931 . S
C1482 C1476 1.383 . S
C1482 C1481 1.379 . S
H1483 C1477 0.959 . S
H1484 C1477 0.961 . S
H1485 C1477 0.960 . S
H1486 C1478 0.930 . S
H1487 C1479 0.929 . S
H1488 C1496 0.929 . S
H1489 C1498 0.930 . S
H1490 C1500 0.930 . S
H1491 C1503 0.929 . S
H1492 C1506 0.930 . S
H1493 C1508 0.960 . S
H1494 C1508 0.960 . S
H1495 C1508 0.960 . S
C1496 H1488 0.929 . S
C1496 C1497 1.377 . S
C1496 C1498 1.384 . S
C1497 C1496 1.377 . S
C1497 C1503 1.390 . S
C1498 H1489 0.930 . S
C1498 C1496 1.384 . S
C1498 C1499 1.372 . S
C1499 C1498 1.372 . S
C1499 C1500 1.400 . S
C1499 C1504 1.490 . S
C1500 H1490 0.930 . S
C1500 C1499 1.400 . S
C1500 C1503 1.386 . S
H1501 C1517 0.930 . S
H1502 C1518 0.931 . S
C1503 H1491 0.929 . S
C1503 C1497 1.390 . S
C1503 C1500 1.386 . S
C1504 C1499 1.490 . S
C1504 C1506 1.395 . S
C1504 C1507 1.403 . S
H1505 C1511 0.930 . S
C1506 H1492 0.930 . S
C1506 C1504 1.395 . S
C1506 C1509 1.403 . S
C1507 C1504 1.403 . S
C1507 C1508 1.524 . S
C1507 C1511 1.400 . S
C1508 H1493 0.960 . S
C1508 H1494 0.960 . S
C1508 H1495 0.960 . S
C1508 C1507 1.524 . S
C1509 C1506 1.403 . S
C1509 C1510 1.392 . S
C1509 C1513 1.495 . S
C1510 C1509 1.392 . S
C1510 C1511 1.385 . S
C1510 C1512 1.478 . S
C1511 H1505 0.930 . S
C1511 C1507 1.400 . S
C1511 C1510 1.385 . S
C1512 C1510 1.478 . S
C1512 C1514 1.381 . S
C1512 C1518 1.383 . S
C1513 C1509 1.495 . S
C1513 H1519 0.959 . S
C1513 H1520 0.961 . S
C1513 H1521 0.960 . S
C1514 C1512 1.381 . S
C1514 C1515 1.394 . S
C1514 H1522 0.930 . S
C1515 C1514 1.394 . S
C1515 C1516 1.383 . S
C1515 H1523 0.929 . S
C1516 C1515 1.383 . S
C1516 C1517 1.377 . S
C1517 H1501 0.930 . S
C1517 C1516 1.377 . S
C1517 C1518 1.379 . S
C1518 H1502 0.931 . S
C1518 C1512 1.383 . S
C1518 C1517 1.379 . S
H1519 C1513 0.959 . S
H1520 C1513 0.961 . S
H1521 C1513 0.960 . S
H1522 C1514 0.930 . S
H1523 C1515 0.929 . S
H1524 C1532 0.929 . S
H1525 C1534 0.930 . S
H1526 C1536 0.930 . S
H1527 C1539 0.929 . S
H1528 C1542 0.930 . S
H1529 C1544 0.960 . S
H1530 C1544 0.960 . S
H1531 C1544 0.960 . S
C1532 H1524 0.929 . S
C1532 C1533 1.377 . S
C1532 C1534 1.384 . S
C1533 C1532 1.377 . S
C1533 C1539 1.390 . S
C1534 H1525 0.930 . S
C1534 C1532 1.384 . S
C1534 C1535 1.372 . S
C1535 C1534 1.372 . S
C1535 C1536 1.400 . S
C1535 C1540 1.490 . S
C1536 H1526 0.930 . S
C1536 C1535 1.400 . S
C1536 C1539 1.386 . S
H1537 C1553 0.930 . S
H1538 C1554 0.931 . S
C1539 H1527 0.929 . S
C1539 C1533 1.390 . S
C1539 C1536 1.386 . S
C1540 C1535 1.490 . S
C1540 C1542 1.395 . S
C1540 C1543 1.403 . S
H1541 C1547 0.930 . S
C1542 H1528 0.930 . S
C1542 C1540 1.395 . S
C1542 C1545 1.403 . S
C1543 C1540 1.403 . S
C1543 C1544 1.524 . S
C1543 C1547 1.400 . S
C1544 H1529 0.960 . S
C1544 H1530 0.960 . S
C1544 H1531 0.960 . S
C1544 C1543 1.524 . S
C1545 C1542 1.403 . S
C1545 C1546 1.392 . S
C1545 C1549 1.495 . S
C1546 C1545 1.392 . S
C1546 C1547 1.385 . S
C1546 C1548 1.478 . S
C1547 H1541 0.930 . S
C1547 C1543 1.400 . S
C1547 C1546 1.385 . S
C1548 C1546 1.478 . S
C1548 C1550 1.381 . S
C1548 C1554 1.383 . S
C1549 C1545 1.495 . S
C1549 H1555 0.959 . S
C1549 H1556 0.961 . S
C1549 H1557 0.960 . S
C1550 C1548 1.381 . S
C1550 C1551 1.394 . S
C1550 H1558 0.930 . S
C1551 C1550 1.394 . S
C1551 C1552 1.383 . S
C1551 H1559 0.929 . S
C1552 C1551 1.383 . S
C1552 C1553 1.377 . S
C1553 H1537 0.930 . S
C1553 C1552 1.377 . S
C1553 C1554 1.379 . S
C1554 H1538 0.931 . S
C1554 C1548 1.383 . S
C1554 C1553 1.379 . S
H1555 C1549 0.959 . S
H1556 C1549 0.961 . S
H1557 C1549 0.960 . S
H1558 C1550 0.930 . S
H1559 C1551 0.929 . S
H1560 C1568 0.929 . S
H1561 C1570 0.930 . S
H1562 C1572 0.930 . S
H1563 C1575 0.929 . S
H1564 C1578 0.930 . S
H1565 C1580 0.960 . S
H1566 C1580 0.960 . S
H1567 C1580 0.960 . S
C1568 H1560 0.929 . S
C1568 C1569 1.377 . S
C1568 C1570 1.384 . S
C1569 C1568 1.377 . S
C1569 C1575 1.390 . S
C1570 H1561 0.930 . S
C1570 C1568 1.384 . S
C1570 C1571 1.372 . S
C1571 C1570 1.372 . S
C1571 C1572 1.400 . S
C1571 C1576 1.490 . S
C1572 H1562 0.930 . S
C1572 C1571 1.400 . S
C1572 C1575 1.386 . S
H1573 C1589 0.930 . S
H1574 C1590 0.931 . S
C1575 H1563 0.929 . S
C1575 C1569 1.390 . S
C1575 C1572 1.386 . S
C1576 C1571 1.490 . S
C1576 C1578 1.395 . S
C1576 C1579 1.403 . S
H1577 C1583 0.930 . S
C1578 H1564 0.930 . S
C1578 C1576 1.395 . S
C1578 C1581 1.403 . S
C1579 C1576 1.403 . S
C1579 C1580 1.524 . S
C1579 C1583 1.400 . S
C1580 H1565 0.960 . S
C1580 H1566 0.960 . S
C1580 H1567 0.960 . S
C1580 C1579 1.524 . S
C1581 C1578 1.403 . S
C1581 C1582 1.392 . S
C1581 C1585 1.495 . S
C1582 C1581 1.392 . S
C1582 C1583 1.385 . S
C1582 C1584 1.478 . S
C1583 H1577 0.930 . S
C1583 C1579 1.400 . S
C1583 C1582 1.385 . S
C1584 C1582 1.478 . S
C1584 C1586 1.381 . S
C1584 C1590 1.383 . S
C1585 C1581 1.495 . S
C1585 H1591 0.959 . S
C1585 H1592 0.961 . S
C1585 H1593 0.960 . S
C1586 C1584 1.381 . S
C1586 C1587 1.394 . S
C1586 H1594 0.930 . S
C1587 C1586 1.394 . S
C1587 C1588 1.383 . S
C1587 H1595 0.929 . S
C1588 C1587 1.383 . S
C1588 C1589 1.377 . S
C1589 H1573 0.930 . S
C1589 C1588 1.377 . S
C1589 C1590 1.379 . S
C1590 H1574 0.931 . S
C1590 C1584 1.383 . S
C1590 C1589 1.379 . S
H1591 C1585 0.959 . S
H1592 C1585 0.961 . S
H1593 C1585 0.960 . S
H1594 C1586 0.930 . S
H1595 C1587 0.929 . S
H1596 C1604 0.929 . S
H1597 C1606 0.930 . S
H1598 C1608 0.930 . S
H1599 C1611 0.929 . S
H1600 C1614 0.930 . S
H1601 C1616 0.960 . S
H1602 C1616 0.960 . S
H1603 C1616 0.960 . S
C1604 H1596 0.929 . S
C1604 C1605 1.377 . S
C1604 C1606 1.384 . S
C1605 C1604 1.377 . S
C1605 C1611 1.390 . S
C1606 H1597 0.930 . S
C1606 C1604 1.384 . S
C1606 C1607 1.372 . S
C1607 C1606 1.372 . S
C1607 C1608 1.400 . S
C1607 C1612 1.490 . S
C1608 H1598 0.930 . S
C1608 C1607 1.400 . S
C1608 C1611 1.386 . S
H1609 C1625 0.930 . S
H1610 C1626 0.931 . S
C1611 H1599 0.929 . S
C1611 C1605 1.390 . S
C1611 C1608 1.386 . S
C1612 C1607 1.490 . S
C1612 C1614 1.395 . S
C1612 C1615 1.403 . S
H1613 C1619 0.930 . S
C1614 H1600 0.930 . S
C1614 C1612 1.395 . S
C1614 C1617 1.403 . S
C1615 C1612 1.403 . S
C1615 C1616 1.524 . S
C1615 C1619 1.400 . S
C1616 H1601 0.960 . S
C1616 H1602 0.960 . S
C1616 H1603 0.960 . S
C1616 C1615 1.524 . S
C1617 C1614 1.403 . S
C1617 C1618 1.392 . S
C1617 C1621 1.495 . S
C1618 C1617 1.392 . S
C1618 C1619 1.385 . S
C1618 C1620 1.478 . S
C1619 H1613 0.930 . S
C1619 C1615 1.400 . S
C1619 C1618 1.385 . S
C1620 C1618 1.478 . S
C1620 C1622 1.381 . S
C1620 C1626 1.383 . S
C1621 C1617 1.495 . S
C1621 H1627 0.959 . S
C1621 H1628 0.961 . S
C1621 H1629 0.960 . S
C1622 C1620 1.381 . S
C1622 C1623 1.394 . S
C1622 H1630 0.930 . S
C1623 C1622 1.394 . S
C1623 C1624 1.383 . S
C1623 H1631 0.929 . S
C1624 C1623 1.383 . S
C1624 C1625 1.377 . S
C1625 H1609 0.930 . S
C1625 C1624 1.377 . S
C1625 C1626 1.379 . S
C1626 H1610 0.931 . S
C1626 C1620 1.383 . S
C1626 C1625 1.379 . S
H1627 C1621 0.959 . S
H1628 C1621 0.961 . S
H1629 C1621 0.960 . S
H1630 C1622 0.930 . S
H1631 C1623 0.929 . S
H1632 C1640 0.929 . S
H1633 C1642 0.930 . S
H1634 C1644 0.930 . S
H1635 C1647 0.929 . S
H1636 C1650 0.930 . S
H1637 C1652 0.960 . S
H1638 C1652 0.960 . S
H1639 C1652 0.960 . S
C1640 H1632 0.929 . S
C1640 C1641 1.377 . S
C1640 C1642 1.384 . S
C1641 C1640 1.377 . S
C1641 C1647 1.390 . S
C1642 H1633 0.930 . S
C1642 C1640 1.384 . S
C1642 C1643 1.372 . S
C1643 C1642 1.372 . S
C1643 C1644 1.400 . S
C1643 C1648 1.490 . S
C1644 H1634 0.930 . S
C1644 C1643 1.400 . S
C1644 C1647 1.386 . S
H1645 C1661 0.930 . S
H1646 C1662 0.931 . S
C1647 H1635 0.929 . S
C1647 C1641 1.390 . S
C1647 C1644 1.386 . S
C1648 C1643 1.490 . S
C1648 C1650 1.395 . S
C1648 C1651 1.403 . S
H1649 C1655 0.930 . S
C1650 H1636 0.930 . S
C1650 C1648 1.395 . S
C1650 C1653 1.403 . S
C1651 C1648 1.403 . S
C1651 C1652 1.524 . S
C1651 C1655 1.400 . S
C1652 H1637 0.960 . S
C1652 H1638 0.960 . S
C1652 H1639 0.960 . S
C1652 C1651 1.524 . S
C1653 C1650 1.403 . S
C1653 C1654 1.392 . S
C1653 C1657 1.495 . S
C1654 C1653 1.392 . S
C1654 C1655 1.385 . S
C1654 C1656 1.478 . S
C1655 H1649 0.930 . S
C1655 C1651 1.400 . S
C1655 C1654 1.385 . S
C1656 C1654 1.478 . S
C1656 C1658 1.381 . S
C1656 C1662 1.383 . S
C1657 C1653 1.495 . S
C1657 H1663 0.959 . S
C1657 H1664 0.961 . S
C1657 H1665 0.960 . S
C1658 C1656 1.381 . S
C1658 C1659 1.394 . S
C1658 H1666 0.930 . S
C1659 C1658 1.394 . S
C1659 C1660 1.383 . S
C1659 H1667 0.929 . S
C1660 C1659 1.383 . S
C1660 C1661 1.377 . S
C1661 H1645 0.930 . S
C1661 C1660 1.377 . S
C1661 C1662 1.379 . S
C1662 H1646 0.931 . S
C1662 C1656 1.383 . S
C1662 C1661 1.379 . S
H1663 C1657 0.959 . S
H1664 C1657 0.961 . S
H1665 C1657 0.960 . S
H1666 C1658 0.930 . S
H1667 C1659 0.929 . S
H1668 C1676 0.929 . S
H1669 C1678 0.930 . S
H1670 C1680 0.930 . S
H1671 C1683 0.929 . S
H1672 C1686 0.930 . S
H1673 C1688 0.960 . S
H1674 C1688 0.960 . S
H1675 C1688 0.960 . S
C1676 H1668 0.929 . S
C1676 C1677 1.377 . S
C1676 C1678 1.384 . S
C1677 C1676 1.377 . S
C1677 C1683 1.390 . S
C1678 H1669 0.930 . S
C1678 C1676 1.384 . S
C1678 C1679 1.372 . S
C1679 C1678 1.372 . S
C1679 C1680 1.400 . S
C1679 C1684 1.490 . S
C1680 H1670 0.930 . S
C1680 C1679 1.400 . S
C1680 C1683 1.386 . S
H1681 C1697 0.930 . S
H1682 C1698 0.931 . S
C1683 H1671 0.929 . S
C1683 C1677 1.390 . S
C1683 C1680 1.386 . S
C1684 C1679 1.490 . S
C1684 C1686 1.395 . S
C1684 C1687 1.403 . S
H1685 C1691 0.930 . S
C1686 H1672 0.930 . S
C1686 C1684 1.395 . S
C1686 C1689 1.403 . S
C1687 C1684 1.403 . S
C1687 C1688 1.524 . S
C1687 C1691 1.400 . S
C1688 H1673 0.960 . S
C1688 H1674 0.960 . S
C1688 H1675 0.960 . S
C1688 C1687 1.524 . S
C1689 C1686 1.403 . S
C1689 C1690 1.392 . S
C1689 C1693 1.495 . S
C1690 C1689 1.392 . S
C1690 C1691 1.385 . S
C1690 C1692 1.478 . S
C1691 H1685 0.930 . S
C1691 C1687 1.400 . S
C1691 C1690 1.385 . S
C1692 C1690 1.478 . S
C1692 C1694 1.381 . S
C1692 C1698 1.383 . S
C1693 C1689 1.495 . S
C1693 H1699 0.959 . S
C1693 H1700 0.961 . S
C1693 H1701 0.960 . S
C1694 C1692 1.381 . S
C1694 C1695 1.394 . S
C1694 H1702 0.930 . S
C1695 C1694 1.394 . S
C1695 C1696 1.383 . S
C1695 H1703 0.929 . S
C1696 C1695 1.383 . S
C1696 C1697 1.377 . S
C1697 H1681 0.930 . S
C1697 C1696 1.377 . S
C1697 C1698 1.379 . S
C1698 H1682 0.931 . S
C1698 C1692 1.383 . S
C1698 C1697 1.379 . S
H1699 C1693 0.959 . S
H1700 C1693 0.961 . S
H1701 C1693 0.960 . S
H1702 C1694 0.930 . S
H1703 C1695 0.929 . S
H1704 C1712 0.929 . S
H1705 C1714 0.930 . S
H1706 C1716 0.930 . S
H1707 C1719 0.929 . S
H1708 C1722 0.930 . S
H1709 C1724 0.960 . S
H1710 C1724 0.960 . S
H1711 C1724 0.960 . S
C1712 H1704 0.929 . S
C1712 C1713 1.377 . S
C1712 C1714 1.384 . S
C1713 C1712 1.377 . S
C1713 C1719 1.390 . S
C1714 H1705 0.930 . S
C1714 C1712 1.384 . S
C1714 C1715 1.372 . S
C1715 C1714 1.372 . S
C1715 C1716 1.400 . S
C1715 C1720 1.490 . S
C1716 H1706 0.930 . S
C1716 C1715 1.400 . S
C1716 C1719 1.386 . S
H1717 C1733 0.930 . S
H1718 C1734 0.931 . S
C1719 H1707 0.929 . S
C1719 C1713 1.390 . S
C1719 C1716 1.386 . S
C1720 C1715 1.490 . S
C1720 C1722 1.395 . S
C1720 C1723 1.403 . S
H1721 C1727 0.930 . S
C1722 H1708 0.930 . S
C1722 C1720 1.395 . S
C1722 C1725 1.403 . S
C1723 C1720 1.403 . S
C1723 C1724 1.524 . S
C1723 C1727 1.400 . S
C1724 H1709 0.960 . S
C1724 H1710 0.960 . S
C1724 H1711 0.960 . S
C1724 C1723 1.524 . S
C1725 C1722 1.403 . S
C1725 C1726 1.392 . S
C1725 C1729 1.495 . S
C1726 C1725 1.392 . S
C1726 C1727 1.385 . S
C1726 C1728 1.478 . S
C1727 H1721 0.930 . S
C1727 C1723 1.400 . S
C1727 C1726 1.385 . S
C1728 C1726 1.478 . S
C1728 C1730 1.381 . S
C1728 C1734 1.383 . S
C1729 C1725 1.495 . S
C1729 H1735 0.959 . S
C1729 H1736 0.961 . S
C1729 H1737 0.960 . S
C1730 C1728 1.381 . S
C1730 C1731 1.394 . S
C1730 H1738 0.930 . S
C1731 C1730 1.394 . S
C1731 C1732 1.383 . S
C1731 H1739 0.929 . S
C1732 C1731 1.383 . S
C1732 C1733 1.377 . S
C1733 H1717 0.930 . S
C1733 C1732 1.377 . S
C1733 C1734 1.379 . S
C1734 H1718 0.931 . S
C1734 C1728 1.383 . S
C1734 C1733 1.379 . S
H1735 C1729 0.959 . S
H1736 C1729 0.961 . S
H1737 C1729 0.960 . S
H1738 C1730 0.930 . S
H1739 C1731 0.929 . S
H1740 C1748 0.929 . S
H1741 C1750 0.930 . S
H1742 C1752 0.930 . S
H1743 C1755 0.929 . S
H1744 C1758 0.930 . S
H1745 C1760 0.960 . S
H1746 C1760 0.960 . S
H1747 C1760 0.960 . S
C1748 H1740 0.929 . S
C1748 C1749 1.377 . S
C1748 C1750 1.384 . S
C1749 C1748 1.377 . S
C1749 C1755 1.390 . S
C1750 H1741 0.930 . S
C1750 C1748 1.384 . S
C1750 C1751 1.372 . S
C1751 C1750 1.372 . S
C1751 C1752 1.400 . S
C1751 C1756 1.490 . S
C1752 H1742 0.930 . S
C1752 C1751 1.400 . S
C1752 C1755 1.386 . S
H1753 C1769 0.930 . S
H1754 C1770 0.931 . S
C1755 H1743 0.929 . S
C1755 C1749 1.390 . S
C1755 C1752 1.386 . S
C1756 C1751 1.490 . S
C1756 C1758 1.395 . S
C1756 C1759 1.403 . S
H1757 C1763 0.930 . S
C1758 H1744 0.930 . S
C1758 C1756 1.395 . S
C1758 C1761 1.403 . S
C1759 C1756 1.403 . S
C1759 C1760 1.524 . S
C1759 C1763 1.400 . S
C1760 H1745 0.960 . S
C1760 H1746 0.960 . S
C1760 H1747 0.960 . S
C1760 C1759 1.524 . S
C1761 C1758 1.403 . S
C1761 C1762 1.392 . S
C1761 C1765 1.495 . S
C1762 C1761 1.392 . S
C1762 C1763 1.385 . S
C1762 C1764 1.478 . S
C1763 H1757 0.930 . S
C1763 C1759 1.400 . S
C1763 C1762 1.385 . S
C1764 C1762 1.478 . S
C1764 C1766 1.381 . S
C1764 C1770 1.383 . S
C1765 C1761 1.495 . S
C1765 H1771 0.959 . S
C1765 H1772 0.961 . S
C1765 H1773 0.960 . S
C1766 C1764 1.381 . S
C1766 C1767 1.394 . S
C1766 H1774 0.930 . S
C1767 C1766 1.394 . S
C1767 C1768 1.383 . S
C1767 H1775 0.929 . S
C1768 C1767 1.383 . S
C1768 C1769 1.377 . S
C1769 H1753 0.930 . S
C1769 C1768 1.377 . S
C1769 C1770 1.379 . S
C1770 H1754 0.931 . S
C1770 C1764 1.383 . S
C1770 C1769 1.379 . S
H1771 C1765 0.959 . S
H1772 C1765 0.961 . S
H1773 C1765 0.960 . S
H1774 C1766 0.930 . S
H1775 C1767 0.929 . S
H1776 C1784 0.929 . S
H1777 C1786 0.930 . S
H1778 C1788 0.930 . S
H1779 C1791 0.929 . S
H1780 C1794 0.930 . S
H1781 C1796 0.960 . S
H1782 C1796 0.960 . S
H1783 C1796 0.960 . S
C1784 H1776 0.929 . S
C1784 C1785 1.377 . S
C1784 C1786 1.384 . S
C1785 C1784 1.377 . S
C1785 C1791 1.390 . S
C1786 H1777 0.930 . S
C1786 C1784 1.384 . S
C1786 C1787 1.372 . S
C1787 C1786 1.372 . S
C1787 C1788 1.400 . S
C1787 C1792 1.490 . S
C1788 H1778 0.930 . S
C1788 C1787 1.400 . S
C1788 C1791 1.386 . S
H1789 C1805 0.930 . S
H1790 C1806 0.931 . S
C1791 H1779 0.929 . S
C1791 C1785 1.390 . S
C1791 C1788 1.386 . S
C1792 C1787 1.490 . S
C1792 C1794 1.395 . S
C1792 C1795 1.403 . S
H1793 C1799 0.930 . S
C1794 H1780 0.930 . S
C1794 C1792 1.395 . S
C1794 C1797 1.403 . S
C1795 C1792 1.403 . S
C1795 C1796 1.524 . S
C1795 C1799 1.400 . S
C1796 H1781 0.960 . S
C1796 H1782 0.960 . S
C1796 H1783 0.960 . S
C1796 C1795 1.524 . S
C1797 C1794 1.403 . S
C1797 C1798 1.392 . S
C1797 C1801 1.495 . S
C1798 C1797 1.392 . S
C1798 C1799 1.385 . S
C1798 C1800 1.478 . S
C1799 H1793 0.930 . S
C1799 C1795 1.400 . S
C1799 C1798 1.385 . S
C1800 C1798 1.478 . S
C1800 C1802 1.381 . S
C1800 C1806 1.383 . S
C1801 C1797 1.495 . S
C1801 H1807 0.959 . S
C1801 H1808 0.961 . S
C1801 H1809 0.960 . S
C1802 C1800 1.381 . S
C1802 C1803 1.394 . S
C1802 H1810 0.930 . S
C1803 C1802 1.394 . S
C1803 C1804 1.383 . S
C1803 H1811 0.929 . S
C1804 C1803 1.383 . S
C1804 C1805 1.377 . S
C1805 H1789 0.930 . S
C1805 C1804 1.377 . S
C1805 C1806 1.379 . S
C1806 H1790 0.931 . S
C1806 C1800 1.383 . S
C1806 C1805 1.379 . S
H1807 C1801 0.959 . S
H1808 C1801 0.961 . S
H1809 C1801 0.960 . S
H1810 C1802 0.930 . S
H1811 C1803 0.929 . S
H1812 C1820 0.929 . S
H1813 C1822 0.930 . S
H1814 C1824 0.930 . S
H1815 C1827 0.929 . S
H1816 C1830 0.930 . S
H1817 C1832 0.960 . S
H1818 C1832 0.960 . S
H1819 C1832 0.960 . S
C1820 H1812 0.929 . S
C1820 C1821 1.377 . S
C1820 C1822 1.384 . S
C1821 C1820 1.377 . S
C1821 C1827 1.390 . S
C1822 H1813 0.930 . S
C1822 C1820 1.384 . S
C1822 C1823 1.372 . S
C1823 C1822 1.372 . S
C1823 C1824 1.400 . S
C1823 C1828 1.490 . S
C1824 H1814 0.930 . S
C1824 C1823 1.400 . S
C1824 C1827 1.386 . S
H1825 C1841 0.930 . S
H1826 C1842 0.931 . S
C1827 H1815 0.929 . S
C1827 C1821 1.390 . S
C1827 C1824 1.386 . S
C1828 C1823 1.490 . S
C1828 C1830 1.395 . S
C1828 C1831 1.403 . S
H1829 C1835 0.930 . S
C1830 H1816 0.930 . S
C1830 C1828 1.395 . S
C1830 C1833 1.403 . S
C1831 C1828 1.403 . S
C1831 C1832 1.524 . S
C1831 C1835 1.400 . S
C1832 H1817 0.960 . S
C1832 H1818 0.960 . S
C1832 H1819 0.960 . S
C1832 C1831 1.524 . S
C1833 C1830 1.403 . S
C1833 C1834 1.392 . S
C1833 C1837 1.495 . S
C1834 C1833 1.392 . S
C1834 C1835 1.385 . S
C1834 C1836 1.478 . S
C1835 H1829 0.930 . S
C1835 C1831 1.400 . S
C1835 C1834 1.385 . S
C1836 C1834 1.478 . S
C1836 C1838 1.381 . S
C1836 C1842 1.383 . S
C1837 C1833 1.495 . S
C1837 H1843 0.959 . S
C1837 H1844 0.961 . S
C1837 H1845 0.960 . S
C1838 C1836 1.381 . S
C1838 C1839 1.394 . S
C1838 H1846 0.930 . S
C1839 C1838 1.394 . S
C1839 C1840 1.383 . S
C1839 H1847 0.929 . S
C1840 C1839 1.383 . S
C1840 C1841 1.377 . S
C1841 H1825 0.930 . S
C1841 C1840 1.377 . S
C1841 C1842 1.379 . S
C1842 H1826 0.931 . S
C1842 C1836 1.383 . S
C1842 C1841 1.379 . S
H1843 C1837 0.959 . S
H1844 C1837 0.961 . S
H1845 C1837 0.960 . S
H1846 C1838 0.930 . S
H1847 C1839 0.929 . S
H1848 C1856 0.929 . S
H1849 C1858 0.930 . S
H1850 C1860 0.930 . S
H1851 C1863 0.929 . S
H1852 C1866 0.930 . S
H1853 C1868 0.960 . S
H1854 C1868 0.960 . S
H1855 C1868 0.960 . S
C1856 H1848 0.929 . S
C1856 C1857 1.377 . S
C1856 C1858 1.384 . S
C1857 C1856 1.377 . S
C1857 C1863 1.390 . S
C1858 H1849 0.930 . S
C1858 C1856 1.384 . S
C1858 C1859 1.372 . S
C1859 C1858 1.372 . S
C1859 C1860 1.400 . S
C1859 C1864 1.490 . S
C1860 H1850 0.930 . S
C1860 C1859 1.400 . S
C1860 C1863 1.386 . S
H1861 C1877 0.930 . S
H1862 C1878 0.931 . S
C1863 H1851 0.929 . S
C1863 C1857 1.390 . S
C1863 C1860 1.386 . S
C1864 C1859 1.490 . S
C1864 C1866 1.395 . S
C1864 C1867 1.403 . S
H1865 C1871 0.930 . S
C1866 H1852 0.930 . S
C1866 C1864 1.395 . S
C1866 C1869 1.403 . S
C1867 C1864 1.403 . S
C1867 C1868 1.524 . S
C1867 C1871 1.400 . S
C1868 H1853 0.960 . S
C1868 H1854 0.960 . S
C1868 H1855 0.960 . S
C1868 C1867 1.524 . S
C1869 C1866 1.403 . S
C1869 C1870 1.392 . S
C1869 C1873 1.495 . S
C1870 C1869 1.392 . S
C1870 C1871 1.385 . S
C1870 C1872 1.478 . S
C1871 H1865 0.930 . S
C1871 C1867 1.400 . S
C1871 C1870 1.385 . S
C1872 C1870 1.478 . S
C1872 C1874 1.381 . S
C1872 C1878 1.383 . S
C1873 C1869 1.495 . S
C1873 H1879 0.959 . S
C1873 H1880 0.961 . S
C1873 H1881 0.960 . S
C1874 C1872 1.381 . S
C1874 C1875 1.394 . S
C1874 H1882 0.930 . S
C1875 C1874 1.394 . S
C1875 C1876 1.383 . S
C1875 H1883 0.929 . S
C1876 C1875 1.383 . S
C1876 C1877 1.377 . S
C1877 H1861 0.930 . S
C1877 C1876 1.377 . S
C1877 C1878 1.379 . S
C1878 H1862 0.931 . S
C1878 C1872 1.383 . S
C1878 C1877 1.379 . S
H1879 C1873 0.959 . S
H1880 C1873 0.961 . S
H1881 C1873 0.960 . S
H1882 C1874 0.930 . S
H1883 C1875 0.929 . S
H1884 C1892 0.929 . S
H1885 C1894 0.930 . S
H1886 C1896 0.930 . S
H1887 C1899 0.929 . S
H1888 C1902 0.930 . S
H1889 C1904 0.960 . S
H1890 C1904 0.960 . S
H1891 C1904 0.960 . S
C1892 H1884 0.929 . S
C1892 C1893 1.377 . S
C1892 C1894 1.384 . S
C1893 C1892 1.377 . S
C1893 C1899 1.390 . S
C1894 H1885 0.930 . S
C1894 C1892 1.384 . S
C1894 C1895 1.372 . S
C1895 C1894 1.372 . S
C1895 C1896 1.400 . S
C1895 C1900 1.490 . S
C1896 H1886 0.930 . S
C1896 C1895 1.400 . S
C1896 C1899 1.386 . S
H1897 C1913 0.930 . S
H1898 C1914 0.931 . S
C1899 H1887 0.929 . S
C1899 C1893 1.390 . S
C1899 C1896 1.386 . S
C1900 C1895 1.490 . S
C1900 C1902 1.395 . S
C1900 C1903 1.403 . S
H1901 C1907 0.930 . S
C1902 H1888 0.930 . S
C1902 C1900 1.395 . S
C1902 C1905 1.403 . S
C1903 C1900 1.403 . S
C1903 C1904 1.524 . S
C1903 C1907 1.400 . S
C1904 H1889 0.960 . S
C1904 H1890 0.960 . S
C1904 H1891 0.960 . S
C1904 C1903 1.524 . S
C1905 C1902 1.403 . S
C1905 C1906 1.392 . S
C1905 C1909 1.495 . S
C1906 C1905 1.392 . S
C1906 C1907 1.385 . S
C1906 C1908 1.478 . S
C1907 H1901 0.930 . S
C1907 C1903 1.400 . S
C1907 C1906 1.385 . S
C1908 C1906 1.478 . S
C1908 C1910 1.381 . S
C1908 C1914 1.383 . S
C1909 C1905 1.495 . S
C1909 H1915 0.959 . S
C1909 H1916 0.961 . S
C1909 H1917 0.960 . S
C1910 C1908 1.381 . S
C1910 C1911 1.394 . S
C1910 H1918 0.930 . S
C1911 C1910 1.394 . S
C1911 C1912 1.383 . S
C1911 H1919 0.929 . S
C1912 C1911 1.383 . S
C1912 C1913 1.377 . S
C1913 H1897 0.930 . S
C1913 C1912 1.377 . S
C1913 C1914 1.379 . S
C1914 H1898 0.931 . S
C1914 C1908 1.383 . S
C1914 C1913 1.379 . S
H1915 C1909 0.959 . S
H1916 C1909 0.961 . S
H1917 C1909 0.960 . S
H1918 C1910 0.930 . S
H1919 C1911 0.929 . S
H1920 C1928 0.929 . S
H1921 C1930 0.930 . S
H1922 C1932 0.930 . S
H1923 C1935 0.929 . S
H1924 C1938 0.930 . S
H1925 C1940 0.960 . S
H1926 C1940 0.960 . S
H1927 C1940 0.960 . S
C1928 H1920 0.929 . S
C1928 C1929 1.377 . S
C1928 C1930 1.384 . S
C1929 C1928 1.377 . S
C1929 C1935 1.390 . S
C1930 H1921 0.930 . S
C1930 C1928 1.384 . S
C1930 C1931 1.372 . S
C1931 C1930 1.372 . S
C1931 C1932 1.400 . S
C1931 C1936 1.490 . S
C1932 H1922 0.930 . S
C1932 C1931 1.400 . S
C1932 C1935 1.386 . S
H1933 C1949 0.930 . S
H1934 C1950 0.931 . S
C1935 H1923 0.929 . S
C1935 C1929 1.390 . S
C1935 C1932 1.386 . S
C1936 C1931 1.490 . S
C1936 C1938 1.395 . S
C1936 C1939 1.403 . S
H1937 C1943 0.930 . S
C1938 H1924 0.930 . S
C1938 C1936 1.395 . S
C1938 C1941 1.403 . S
C1939 C1936 1.403 . S
C1939 C1940 1.524 . S
C1939 C1943 1.400 . S
C1940 H1925 0.960 . S
C1940 H1926 0.960 . S
C1940 H1927 0.960 . S
C1940 C1939 1.524 . S
C1941 C1938 1.403 . S
C1941 C1942 1.392 . S
C1941 C1945 1.495 . S
C1942 C1941 1.392 . S
C1942 C1943 1.385 . S
C1942 C1944 1.478 . S
C1943 H1937 0.930 . S
C1943 C1939 1.400 . S
C1943 C1942 1.385 . S
C1944 C1942 1.478 . S
C1944 C1946 1.381 . S
C1944 C1950 1.383 . S
C1945 C1941 1.495 . S
C1945 H1951 0.959 . S
C1945 H1952 0.961 . S
C1945 H1953 0.960 . S
C1946 C1944 1.381 . S
C1946 C1947 1.394 . S
C1946 H1954 0.930 . S
C1947 C1946 1.394 . S
C1947 C1948 1.383 . S
C1947 H1955 0.929 . S
C1948 C1947 1.383 . S
C1948 C1949 1.377 . S
C1949 H1933 0.930 . S
C1949 C1948 1.377 . S
C1949 C1950 1.379 . S
C1950 H1934 0.931 . S
C1950 C1944 1.383 . S
C1950 C1949 1.379 . S
H1951 C1945 0.959 . S
H1952 C1945 0.961 . S
H1953 C1945 0.960 . S
H1954 C1946 0.930 . S
H1955 C1947 0.929 . S
H1956 C1964 0.929 . S
H1957 C1966 0.930 . S
H1958 C1968 0.930 . S
H1959 C1971 0.929 . S
H1960 C1974 0.930 . S
H1961 C1976 0.960 . S
H1962 C1976 0.960 . S
H1963 C1976 0.960 . S
C1964 H1956 0.929 . S
C1964 C1965 1.377 . S
C1964 C1966 1.384 . S
C1965 C1964 1.377 . S
C1965 C1971 1.390 . S
C1966 H1957 0.930 . S
C1966 C1964 1.384 . S
C1966 C1967 1.372 . S
C1967 C1966 1.372 . S
C1967 C1968 1.400 . S
C1967 C1972 1.490 . S
C1968 H1958 0.930 . S
C1968 C1967 1.400 . S
C1968 C1971 1.386 . S
H1969 C1985 0.930 . S
H1970 C1986 0.931 . S
C1971 H1959 0.929 . S
C1971 C1965 1.390 . S
C1971 C1968 1.386 . S
C1972 C1967 1.490 . S
C1972 C1974 1.395 . S
C1972 C1975 1.403 . S
H1973 C1979 0.930 . S
C1974 H1960 0.930 . S
C1974 C1972 1.395 . S
C1974 C1977 1.403 . S
C1975 C1972 1.403 . S
C1975 C1976 1.524 . S
C1975 C1979 1.400 . S
C1976 H1961 0.960 . S
C1976 H1962 0.960 . S
C1976 H1963 0.960 . S
C1976 C1975 1.524 . S
C1977 C1974 1.403 . S
C1977 C1978 1.392 . S
C1977 C1981 1.495 . S
C1978 C1977 1.392 . S
C1978 C1979 1.385 . S
C1978 C1980 1.478 . S
C1979 H1973 0.930 . S
C1979 C1975 1.400 . S
C1979 C1978 1.385 . S
C1980 C1978 1.478 . S
C1980 C1982 1.381 . S
C1980 C1986 1.383 . S
C1981 C1977 1.495 . S
C1981 H1987 0.959 . S
C1981 H1988 0.961 . S
C1981 H1989 0.960 . S
C1982 C1980 1.381 . S
C1982 C1983 1.394 . S
C1982 H1990 0.930 . S
C1983 C1982 1.394 . S
C1983 C1984 1.383 . S
C1983 H1991 0.929 . S
C1984 C1983 1.383 . S
C1984 C1985 1.377 . S
C1985 H1969 0.930 . S
C1985 C1984 1.377 . S
C1985 C1986 1.379 . S
C1986 H1970 0.931 . S
C1986 C1980 1.383 . S
C1986 C1985 1.379 . S
H1987 C1981 0.959 . S
H1988 C1981 0.961 . S
H1989 C1981 0.960 . S
H1990 C1982 0.930 . S
H1991 C1983 0.929 . S
H1992 C2000 0.929 . S
H1993 C2002 0.930 . S
H1994 C2004 0.930 . S
H1995 C2007 0.929 . S
H1996 C2010 0.930 . S
H1997 C2012 0.960 . S
H1998 C2012 0.960 . S
H1999 C2012 0.960 . S
C2000 H1992 0.929 . S
C2000 C2001 1.377 . S
C2000 C2002 1.384 . S
C2001 C2000 1.377 . S
C2001 C2007 1.390 . S
C2002 H1993 0.930 . S
C2002 C2000 1.384 . S
C2002 C2003 1.372 . S
C2003 C2002 1.372 . S
C2003 C2004 1.400 . S
C2003 C2008 1.490 . S
C2004 H1994 0.930 . S
C2004 C2003 1.400 . S
C2004 C2007 1.386 . S
H2005 C2021 0.930 . S
H2006 C2022 0.931 . S
C2007 H1995 0.929 . S
C2007 C2001 1.390 . S
C2007 C2004 1.386 . S
C2008 C2003 1.490 . S
C2008 C2010 1.395 . S
C2008 C2011 1.403 . S
H2009 C2015 0.930 . S
C2010 H1996 0.930 . S
C2010 C2008 1.395 . S
C2010 C2013 1.403 . S
C2011 C2008 1.403 . S
C2011 C2012 1.524 . S
C2011 C2015 1.400 . S
C2012 H1997 0.960 . S
C2012 H1998 0.960 . S
C2012 H1999 0.960 . S
C2012 C2011 1.524 . S
C2013 C2010 1.403 . S
C2013 C2014 1.392 . S
C2013 C2017 1.495 . S
C2014 C2013 1.392 . S
C2014 C2015 1.385 . S
C2014 C2016 1.478 . S
C2015 H2009 0.930 . S
C2015 C2011 1.400 . S
C2015 C2014 1.385 . S
C2016 C2014 1.478 . S
C2016 C2018 1.381 . S
C2016 C2022 1.383 . S
C2017 C2013 1.495 . S
C2017 H2023 0.959 . S
C2017 H2024 0.961 . S
C2017 H2025 0.960 . S
C2018 C2016 1.381 . S
C2018 C2019 1.394 . S
C2018 H2026 0.930 . S
C2019 C2018 1.394 . S
C2019 C2020 1.383 . S
C2019 H2027 0.929 . S
C2020 C2019 1.383 . S
C2020 C2021 1.377 . S
C2021 H2005 0.930 . S
C2021 C2020 1.377 . S
C2021 C2022 1.379 . S
C2022 H2006 0.931 . S
C2022 C2016 1.383 . S
C2022 C2021 1.379 . S
H2023 C2017 0.959 . S
H2024 C2017 0.961 . S
H2025 C2017 0.960 . S
H2026 C2018 0.930 . S
H2027 C2019 0.929 . S
H2028 C2036 0.929 . S
H2029 C2038 0.930 . S
H2030 C2040 0.930 . S
H2031 C2043 0.929 . S
H2032 C2046 0.930 . S
H2033 C2048 0.960 . S
H2034 C2048 0.960 . S
H2035 C2048 0.960 . S
C2036 H2028 0.929 . S
C2036 C2037 1.377 . S
C2036 C2038 1.384 . S
C2037 C2036 1.377 . S
C2037 C2043 1.390 . S
C2038 H2029 0.930 . S
C2038 C2036 1.384 . S
C2038 C2039 1.372 . S
C2039 C2038 1.372 . S
C2039 C2040 1.400 . S
C2039 C2044 1.490 . S
C2040 H2030 0.930 . S
C2040 C2039 1.400 . S
C2040 C2043 1.386 . S
H2041 C2057 0.930 . S
H2042 C2058 0.931 . S
C2043 H2031 0.929 . S
C2043 C2037 1.390 . S
C2043 C2040 1.386 . S
C2044 C2039 1.490 . S
C2044 C2046 1.395 . S
C2044 C2047 1.403 . S
H2045 C2051 0.930 . S
C2046 H2032 0.930 . S
C2046 C2044 1.395 . S
C2046 C2049 1.403 . S
C2047 C2044 1.403 . S
C2047 C2048 1.524 . S
C2047 C2051 1.400 . S
C2048 H2033 0.960 . S
C2048 H2034 0.960 . S
C2048 H2035 0.960 . S
C2048 C2047 1.524 . S
C2049 C2046 1.403 . S
C2049 C2050 1.392 . S
C2049 C2053 1.495 . S
C2050 C2049 1.392 . S
C2050 C2051 1.385 . S
C2050 C2052 1.478 . S
C2051 H2045 0.930 . S
C2051 C2047 1.400 . S
C2051 C2050 1.385 . S
C2052 C2050 1.478 . S
C2052 C2054 1.381 . S
C2052 C2058 1.383 . S
C2053 C2049 1.495 . S
C2053 H2059 0.959 . S
C2053 H2060 0.961 . S
C2053 H2061 0.960 . S
C2054 C2052 1.381 . S
C2054 C2055 1.394 . S
C2054 H2062 0.930 . S
C2055 C2054 1.394 . S
C2055 C2056 1.383 . S
C2055 H2063 0.929 . S
C2056 C2055 1.383 . S
C2056 C2057 1.377 . S
C2057 H2041 0.930 . S
C2057 C2056 1.377 . S
C2057 C2058 1.379 . S
C2058 H2042 0.931 . S
C2058 C2052 1.383 . S
C2058 C2057 1.379 . S
H2059 C2053 0.959 . S
H2060 C2053 0.961 . S
H2061 C2053 0.960 . S
H2062 C2054 0.930 . S
H2063 C2055 0.929 . S
C345 C216 1.334 . S
C364 C7 1.316 . S
C381 C174 1.328 . S
C400 C20 1.338 . S
C417 C189 1.328 . S
C436 C34 1.340 . S
C453 C203 1.334 . S
C472 C49 1.323 . S
C489 C202 1.328 . S
C508 C21 1.328 . S
C525 C35 1.334 . S
C544 C217 1.329 . S
C561 C175 1.331 . S
C580 C48 1.341 . S
C597 C188 1.334 . S
C616 C6 1.321 . S
C633 C258 1.334 . S
C652 C62 1.324 . S
C669 C77 1.331 . S
C688 C273 1.316 . S
C705 C90 1.333 . S
C724 C230 1.334 . S
C741 C245 1.332 . S
C760 C105 1.338 . S
C777 C315 1.334 . S
C796 C119 1.322 . S
C813 C132 1.330 . S
C832 C328 1.318 . S
C849 C147 1.331 . S
C868 C287 1.341 . S
C885 C160 1.332 . S
C904 C300 1.314 . S
C921 C244 1.333 . S
C940 C161 1.314 . S
C957 C329 1.332 . S
C976 C76 1.337 . S
C993 C91 1.331 . S
C1012 C286 1.315 . S
C1029 C301 1.331 . S
C1048 C104 1.315 . S
C1065 C314 1.331 . S
C1084 C63 1.315 . S
C1101 C133 1.328 . S
C1120 C272 1.336 . S
C1137 C231 1.334 . S
C1156 C146 1.329 . S
C1173 C259 1.328 . S
C1192 C118 1.331 . S
C1209 C8 0.753 . S
C1228 C64 0.729 . S
C1245 C79 0.766 . S
C1264 C23 0.798 . S
C1281 C37 0.752 . S
C1300 C92 0.727 . S
C1317 C50 0.765 . S
C1336 C107 0.790 . S
C1353 C121 0.764 . S
C1372 C22 0.782 . S
C1389 C134 0.761 . S
C1408 C36 0.776 . S
C1425 C149 0.751 . S
C1444 C51 0.725 . S
C1461 C9 0.750 . S
C1480 C162 0.720 . S
C1497 C163 0.767 . S
C1516 C65 0.799 . S
C1533 C78 0.750 . S
C1552 C120 0.719 . S
C1569 C93 0.763 . S
C1588 C135 0.781 . S
C1605 C148 0.752 . S
C1624 C106 0.731 . S
C1641 C232 0.750 . S
C1660 C176 0.784 . S
C1677 C247 0.755 . S
C1696 C191 0.732 . S
C1713 C205 0.767 . S
C1732 C260 0.744 . S
C1749 C218 0.759 . S
C1768 C275 0.793 . S
C1785 C190 0.767 . S
C1804 C289 0.743 . S
C1821 C204 0.759 . S
C1840 C302 0.792 . S
C1857 C317 0.762 . S
C1876 C219 0.784 . S
C1893 C177 0.758 . S
C1912 C330 0.794 . S
C1929 C233 0.754 . S
C1948 C331 0.738 . S
C1965 C288 0.750 . S
C1984 C246 0.780 . S
C2001 C261 0.764 . S
C2020 C303 0.774 . S
C2037 C316 0.762 . S
C2056 C274 0.716 . S
