# Generated by pormake.
# Topology utn, (3)-cn, num edge types: 1
# Building blocks:
#     Node 0, Type 0, BuildingBlock: WUSLED_clean_sbu_0, # of connection points: 3
#     Node 1, Type 0, BuildingBlock: WUSLED_clean_sbu_0, # of connection points: 3
#     Node 2, Type 0, BuildingBlock: WUSLED_clean_sbu_0, # of connection points: 3
#     Node 3, Type 0, BuildingBlock: WUSLED_clean_sbu_0, # of connection points: 3
#     Node 4, Type 0, BuildingBlock: WUSLED_clean_sbu_0, # of connection points: 3
#     Node 5, Type 0, BuildingBlock: WUSLED_clean_sbu_0, # of connection points: 3
#     Node 6, Type 0, BuildingBlock: WUSLED_clean_sbu_0, # of connection points: 3
#     Node 7, Type 0, BuildingBlock: WUSLED_clean_sbu_0, # of connection points: 3
#     Node 8, Type 0, BuildingBlock: WUSLED_clean_sbu_0, # of connection points: 3
#     Node 9, Type 0, BuildingBlock: WUSLED_clean_sbu_0, # of connection points: 3
#     Node 10, Type 0, BuildingBlock: WUSLED_clean_sbu_0, # of connection points: 3
#     Node 11, Type 0, BuildingBlock: WUSLED_clean_sbu_0, # of connection points: 3
#     Node 12, Type 0, BuildingBlock: WUSLED_clean_sbu_0, # of connection points: 3
#     Node 13, Type 0, BuildingBlock: WUSLED_clean_sbu_0, # of connection points: 3
#     Node 14, Type 0, BuildingBlock: WUSLED_clean_sbu_0, # of connection points: 3
#     Node 15, Type 0, BuildingBlock: WUSLED_clean_sbu_0, # of connection points: 3
#     Node 16, Type 0, BuildingBlock: WUSLED_clean_sbu_0, # of connection points: 3
#     Node 17, Type 0, BuildingBlock: WUSLED_clean_sbu_0, # of connection points: 3
#     Node 18, Type 0, BuildingBlock: WUSLED_clean_sbu_0, # of connection points: 3
#     Node 19, Type 0, BuildingBlock: WUSLED_clean_sbu_0, # of connection points: 3
#     Node 20, Type 0, BuildingBlock: WUSLED_clean_sbu_0, # of connection points: 3
#     Node 21, Type 0, BuildingBlock: WUSLED_clean_sbu_0, # of connection points: 3
#     Node 22, Type 0, BuildingBlock: WUSLED_clean_sbu_0, # of connection points: 3
#     Node 23, Type 0, BuildingBlock: WUSLED_clean_sbu_0, # of connection points: 3
#     Node 24, Type 0, BuildingBlock: WUSLED_clean_sbu_0, # of connection points: 3
#     Node 25, Type 0, BuildingBlock: WUSLED_clean_sbu_0, # of connection points: 3
#     Node 26, Type 0, BuildingBlock: WUSLED_clean_sbu_0, # of connection points: 3
#     Node 27, Type 0, BuildingBlock: WUSLED_clean_sbu_0, # of connection points: 3
#     Node 28, Type 0, BuildingBlock: WUSLED_clean_sbu_0, # of connection points: 3
#     Node 29, Type 0, BuildingBlock: WUSLED_clean_sbu_0, # of connection points: 3
#     Node 30, Type 0, BuildingBlock: WUSLED_clean_sbu_0, # of connection points: 3
#     Node 31, Type 0, BuildingBlock: WUSLED_clean_sbu_0, # of connection points: 3
#     Edge 32, Type (0, 0), BuildingBlock: UVAHIK_clean_linker_0, # of connection points: 2
#     Edge 33, Type (0, 0), BuildingBlock: UVAHIK_clean_linker_0, # of connection points: 2
#     Edge 34, Type (0, 0), BuildingBlock: UVAHIK_clean_linker_0, # of connection points: 2
#     Edge 35, Type (0, 0), BuildingBlock: UVAHIK_clean_linker_0, # of connection points: 2
#     Edge 36, Type (0, 0), BuildingBlock: UVAHIK_clean_linker_0, # of connection points: 2
#     Edge 37, Type (0, 0), BuildingBlock: UVAHIK_clean_linker_0, # of connection points: 2
#     Edge 38, Type (0, 0), BuildingBlock: UVAHIK_clean_linker_0, # of connection points: 2
#     Edge 39, Type (0, 0), BuildingBlock: UVAHIK_clean_linker_0, # of connection points: 2
#     Edge 40, Type (0, 0), BuildingBlock: UVAHIK_clean_linker_0, # of connection points: 2
#     Edge 41, Type (0, 0), BuildingBlock: UVAHIK_clean_linker_0, # of connection points: 2
#     Edge 42, Type (0, 0), BuildingBlock: UVAHIK_clean_linker_0, # of connection points: 2
#     Edge 43, Type (0, 0), BuildingBlock: UVAHIK_clean_linker_0, # of connection points: 2
#     Edge 44, Type (0, 0), BuildingBlock: UVAHIK_clean_linker_0, # of connection points: 2
#     Edge 45, Type (0, 0), BuildingBlock: UVAHIK_clean_linker_0, # of connection points: 2
#     Edge 46, Type (0, 0), BuildingBlock: UVAHIK_clean_linker_0, # of connection points: 2
#     Edge 47, Type (0, 0), BuildingBlock: UVAHIK_clean_linker_0, # of connection points: 2
#     Edge 48, Type (0, 0), BuildingBlock: UVAHIK_clean_linker_0, # of connection points: 2
#     Edge 49, Type (0, 0), BuildingBlock: UVAHIK_clean_linker_0, # of connection points: 2
#     Edge 50, Type (0, 0), BuildingBlock: UVAHIK_clean_linker_0, # of connection points: 2
#     Edge 51, Type (0, 0), BuildingBlock: UVAHIK_clean_linker_0, # of connection points: 2
#     Edge 52, Type (0, 0), BuildingBlock: UVAHIK_clean_linker_0, # of connection points: 2
#     Edge 53, Type (0, 0), BuildingBlock: UVAHIK_clean_linker_0, # of connection points: 2
#     Edge 54, Type (0, 0), BuildingBlock: UVAHIK_clean_linker_0, # of connection points: 2
#     Edge 55, Type (0, 0), BuildingBlock: UVAHIK_clean_linker_0, # of connection points: 2
#     Edge 56, Type (0, 0), BuildingBlock: UVAHIK_clean_linker_0, # of connection points: 2
#     Edge 57, Type (0, 0), BuildingBlock: UVAHIK_clean_linker_0, # of connection points: 2
#     Edge 58, Type (0, 0), BuildingBlock: UVAHIK_clean_linker_0, # of connection points: 2
#     Edge 59, Type (0, 0), BuildingBlock: UVAHIK_clean_linker_0, # of connection points: 2
#     Edge 60, Type (0, 0), BuildingBlock: UVAHIK_clean_linker_0, # of connection points: 2
#     Edge 61, Type (0, 0), BuildingBlock: UVAHIK_clean_linker_0, # of connection points: 2
#     Edge 62, Type (0, 0), BuildingBlock: UVAHIK_clean_linker_0, # of connection points: 2
#     Edge 63, Type (0, 0), BuildingBlock: UVAHIK_clean_linker_0, # of connection points: 2
#     Edge 64, Type (0, 0), BuildingBlock: UVAHIK_clean_linker_0, # of connection points: 2
#     Edge 65, Type (0, 0), BuildingBlock: UVAHIK_clean_linker_0, # of connection points: 2
#     Edge 66, Type (0, 0), BuildingBlock: UVAHIK_clean_linker_0, # of connection points: 2
#     Edge 67, Type (0, 0), BuildingBlock: UVAHIK_clean_linker_0, # of connection points: 2
#     Edge 68, Type (0, 0), BuildingBlock: UVAHIK_clean_linker_0, # of connection points: 2
#     Edge 69, Type (0, 0), BuildingBlock: UVAHIK_clean_linker_0, # of connection points: 2
#     Edge 70, Type (0, 0), BuildingBlock: UVAHIK_clean_linker_0, # of connection points: 2
#     Edge 71, Type (0, 0), BuildingBlock: UVAHIK_clean_linker_0, # of connection points: 2
#     Edge 72, Type (0, 0), BuildingBlock: UVAHIK_clean_linker_0, # of connection points: 2
#     Edge 73, Type (0, 0), BuildingBlock: UVAHIK_clean_linker_0, # of connection points: 2
#     Edge 74, Type (0, 0), BuildingBlock: UVAHIK_clean_linker_0, # of connection points: 2
#     Edge 75, Type (0, 0), BuildingBlock: UVAHIK_clean_linker_0, # of connection points: 2
#     Edge 76, Type (0, 0), BuildingBlock: UVAHIK_clean_linker_0, # of connection points: 2
#     Edge 77, Type (0, 0), BuildingBlock: UVAHIK_clean_linker_0, # of connection points: 2
#     Edge 78, Type (0, 0), BuildingBlock: UVAHIK_clean_linker_0, # of connection points: 2
#     Edge 79, Type (0, 0), BuildingBlock: UVAHIK_clean_linker_0, # of connection points: 2
# Relax obj value: 0.074
# Max RMSD: 0.078
# Mean RMSD: 0.073
data_MOF--net-utn--node1-WUSLED_clean_sbu_0--edge1-UVAHIK_clean_linker_0
_symmetry_space_group_name_H-M    P1
_symmetry_Int_Tables_number       1
_symmetry_cell_setting            triclinic
loop_
_symmetry_equiv_pos_as_xyz
'x, y, z'
_cell_length_a     114.3883
_cell_length_b     117.68007
_cell_length_c     60.566914
_cell_angle_alpha  89.780791
_cell_angle_beta   89.994457
_cell_angle_gamma 90.081727
loop_
_atom_site_label
_atom_site_type_symbol
_atom_site_fract_x
_atom_site_fract_y
_atom_site_fract_z
_atom_type_partial_charge
C0 C 0.23764 0.17239 0.2493 0.0
C1 C 0.24216 0.17769 0.26817 0.0
C2 C 0.2431 0.19577 0.24856 0.0
C3 C 0.24487 0.18926 0.26781 0.0
C4 C 0.2386 0.19038 0.22964 0.0
C5 C 0.23589 0.17878 0.23003 0.0
U6 U 0.23524 0.14534 0.28222 0.0
O7 O 0.22142 0.13238 0.28403 0.0
O8 O 0.23915 0.12755 0.27393 0.0
C9 C 0.22818 0.12437 0.27598 0.0
C10 C 0.23453 0.16028 0.25002 0.0
C11 C 0.22332 0.11817 0.25706 0.0
C12 C 0.21562 0.11797 0.21968 0.0
C13 C 0.22046 0.1239 0.23744 0.0
C14 C 0.21655 0.1005 0.2409 0.0
C15 C 0.21355 0.10619 0.22121 0.0
C16 C 0.22139 0.10644 0.25865 0.0
C17 C 0.24483 0.1482 0.34336 0.0
C18 C 0.24053 0.13532 0.37379 0.0
C19 C 0.25283 0.15181 0.37973 0.0
C20 C 0.25171 0.15478 0.35752 0.0
C21 C 0.24707 0.14219 0.38824 0.0
C22 C 0.23938 0.13833 0.35147 0.0
C23 C 0.24294 0.15231 0.32071 0.0
O24 O 0.24336 0.15331 0.25307 0.0
O25 O 0.22546 0.15784 0.26249 0.0
O26 O 0.23198 0.15322 0.31443 0.0
O27 O 0.24982 0.14812 0.30539 0.0
H28 H 0.2435 0.17288 0.28325 0.0
H29 H 0.24815 0.19316 0.28275 0.0
H30 H 0.23724 0.19512 0.2145 0.0
H31 H 0.2324 0.1748 0.21533 0.0
H32 H 0.21328 0.12265 0.2049 0.0
H33 H 0.2219 0.13298 0.23596 0.0
H34 H 0.21525 0.09142 0.24254 0.0
H35 H 0.22359 0.10189 0.27366 0.0
H36 H 0.23596 0.12788 0.37989 0.0
H37 H 0.2581 0.15716 0.39035 0.0
H38 H 0.256 0.1624 0.3515 0.0
H39 H 0.23403 0.13315 0.34071 0.0
C40 C 0.08991 0.98583 0.50442 0.0
C41 C 0.08461 0.99183 0.5217 0.0
C42 C 0.06582 0.99085 0.50285 0.0
C43 C 0.07267 0.99435 0.5209 0.0
C44 C 0.07123 0.98487 0.48554 0.0
C45 C 0.08317 0.98239 0.48633 0.0
U46 U 0.11828 0.98445 0.53649 0.0
O47 O 0.13152 0.97097 0.53874 0.0
O48 O 0.13642 0.98785 0.52628 0.0
C49 C 0.13964 0.97723 0.52929 0.0
C50 C 0.10237 0.98286 0.50547 0.0
C51 C 0.14557 0.97194 0.51044 0.0
C52 C 0.14499 0.9638 0.47365 0.0
C53 C 0.1393 0.96897 0.49141 0.0
C54 C 0.1633 0.96462 0.49371 0.0
C55 C 0.15707 0.96153 0.4746 0.0
C56 C 0.15759 0.96977 0.51146 0.0
C57 C 0.11759 0.99553 0.59637 0.0
C58 C 0.12997 0.99021 0.62736 0.0
C59 C 0.11772 0.00693 0.62969 0.0
C60 C 0.11366 1.00495 0.6083 0.0
C61 C 0.12578 0.99949 0.63961 0.0
C62 C 0.12594 0.98826 0.60587 0.0
C63 C 0.11232 0.99315 0.57469 0.0
O64 O 0.1096 0.99151 0.50709 0.0
O65 O 0.10491 0.97449 0.51904 0.0
O66 O 0.11089 0.98238 0.5697 0.0
O67 O 0.1161 0.99935 0.55806 0.0
H68 H 0.08969 0.99448 0.53588 0.0
H69 H 0.06876 0.99884 0.53461 0.0
H70 H 0.06624 0.98218 0.47129 0.0
H71 H 0.08714 0.97775 0.47287 0.0
H72 H 0.1399 0.96142 0.45933 0.0
H73 H 0.12999 0.97058 0.49037 0.0
H74 H 0.17263 0.96315 0.49488 0.0
H75 H 0.16257 0.97206 0.52601 0.0
H76 H 0.13628 0.98439 0.63446 0.0
H77 H 0.1142 0.01407 0.63875 0.0
H78 H 0.10719 0.01063 0.60127 0.0
H79 H 0.12916 0.98096 0.59688 0.0
C80 C 0.27378 0.83816 0.75328 0.0
C81 C 0.26904 0.83289 0.77207 0.0
C82 C 0.26902 0.81463 0.75326 0.0
C83 C 0.26667 0.82124 0.77206 0.0
C84 C 0.27367 0.82 0.73438 0.0
C85 C 0.27605 0.83168 0.73441 0.0
U86 U 0.27542 0.86543 0.7853 0.0
O87 O 0.28901 0.87862 0.78697 0.0
O88 O 0.27128 0.8831 0.77623 0.0
C89 C 0.28219 0.88646 0.7784 0.0
C90 C 0.27664 0.85033 0.75368 0.0
C91 C 0.28709 0.89256 0.7593 0.0
C92 C 0.29467 0.89256 0.72183 0.0
C93 C 0.2898 0.88674 0.73979 0.0
C94 C 0.29408 0.9101 0.74265 0.0
C95 C 0.29691 0.90431 0.72305 0.0
C96 C 0.28921 0.90426 0.7606 0.0
C97 C 0.26544 0.86278 0.8463 0.0
C98 C 0.26962 0.87564 0.87663 0.0
C99 C 0.25701 0.85933 0.88245 0.0
C100 C 0.25831 0.85632 0.86034 0.0
C101 C 0.26284 0.86888 0.89099 0.0
C102 C 0.27094 0.87258 0.85442 0.0
C103 C 0.26756 0.85858 0.82385 0.0
O104 O 0.26766 0.85715 0.75626 0.0
O105 O 0.28557 0.85299 0.76629 0.0
O106 O 0.27857 0.8578 0.81787 0.0
O107 O 0.26072 0.86256 0.80821 0.0
H108 H 0.26724 0.83778 0.78679 0.0
H109 H 0.26294 0.81742 0.78675 0.0
H110 H 0.2757 0.81514 0.71972 0.0
H111 H 0.27976 0.83562 0.71981 0.0
H112 H 0.29688 0.88781 0.70714 0.0
H113 H 0.28823 0.87769 0.73854 0.0
H114 H 0.29553 0.91916 0.74405 0.0
H115 H 0.28713 0.90888 0.77553 0.0
H116 H 0.27425 0.88301 0.88276 0.0
H117 H 0.25157 0.85407 0.89299 0.0
H118 H 0.25397 0.84875 0.85432 0.0
H119 H 0.27649 0.87767 0.84376 0.0
C120 C 0.42089 0.02581 1.00576 0.0
C121 C 0.42608 0.02115 0.02471 0.0
C122 C 0.44488 0.02031 1.00589 0.0
C123 C 0.43797 0.01842 0.02478 0.0
C124 C 0.43959 0.02494 0.9869 0.0
C125 C 0.42768 0.02767 0.98685 0.0
U126 U 0.39211 0.02746 0.03613 0.0
O127 O 0.37888 0.04097 0.03751 0.0
O128 O 0.37409 0.02409 0.02515 0.0
C129 C 0.37087 0.03471 0.02782 0.0
C130 C 0.40845 0.02889 1.00585 0.0
C131 C 0.36516 0.04 0.00863 0.0
C132 C 0.36627 0.04884 0.97237 0.0
C133 C 0.37176 0.04364 0.9904 0.0
C134 C 0.34751 0.04666 0.9905 0.0
C135 C 0.35407 0.05044 0.97223 0.0
C136 C 0.35302 0.0415 0.00855 0.0
C137 C 0.39222 0.01639 0.09634 0.0
C138 C 0.38 0.02179 0.12744 0.0
C139 C 0.39179 1.00474 0.12951 0.0
C140 C 0.39589 0.00678 0.10814 0.0
C141 C 0.38394 0.01232 0.13956 0.0
C142 C 0.38408 0.0238 0.10596 0.0
C143 C 0.39761 0.0188 0.07474 0.0
O144 O 0.40114 0.02029 0.0073 0.0
O145 O 0.40573 0.03733 0.01902 0.0
O146 O 0.39908 0.02957 0.06962 0.0
O147 O 0.394 0.01259 0.05809 0.0
H148 H 0.42095 0.0197 0.0395 0.0
H149 H 0.44179 0.01502 0.03976 0.0
H150 H 0.44462 0.02637 0.972 0.0
H151 H 0.42379 0.03124 0.97208 0.0
H152 H 0.37156 0.05151 0.95845 0.0
H153 H 0.38115 0.04248 0.99015 0.0
H154 H 0.33813 0.04787 0.99102 0.0
H155 H 0.3478 0.03874 0.02251 0.0
H156 H 0.37386 0.02772 0.13464 0.0
H157 H 0.39513 0.99745 0.13846 0.0
H158 H 0.4022 1.00098 0.10103 0.0
H159 H 0.38107 0.03125 0.09709 0.0
C160 C 0.23594 0.83849 0.25957 0.0
C161 C 0.2405 0.83336 0.24058 0.0
C162 C 0.24102 0.81505 0.25944 0.0
C163 C 0.24302 0.82174 0.24051 0.0
C164 C 0.23653 0.82028 0.27851 0.0
C165 C 0.23399 0.83192 0.27854 0.0
U166 U 0.2348 0.86638 0.2288 0.0
O167 O 0.22129 0.87963 0.22733 0.0
O168 O 0.23889 0.88384 0.23919 0.0
C169 C 0.22805 0.88729 0.23659 0.0
C170 C 0.23307 0.85066 0.25943 0.0
C171 C 0.22293 0.89317 0.25563 0.0
C172 C 0.215 0.89284 0.29284 0.0
C173 C 0.21999 0.88717 0.27491 0.0
C174 C 0.2159 0.91057 0.27242 0.0
C175 C 0.21285 0.90461 0.2918 0.0
C176 C 0.22089 0.90489 0.25451 0.0
C177 C 0.24589 0.86567 0.16848 0.0
C178 C 0.24059 0.87754 0.13709 0.0
C179 C 0.25778 0.86558 0.13527 0.0
C180 C 0.25563 0.86176 0.15675 0.0
C181 C 0.25018 0.87337 0.12504 0.0
C182 C 0.23848 0.87375 0.15867 0.0
C183 C 0.24333 0.8606 0.19022 0.0
O184 O 0.24209 0.85754 0.25775 0.0
O185 O 0.22438 0.8535 0.24637 0.0
O186 O 0.23223 0.85954 0.19548 0.0
O187 O 0.24992 0.86399 0.20672 0.0
H188 H 0.24209 0.83834 0.22579 0.0
H189 H 0.24663 0.81802 0.22567 0.0
H190 H 0.23477 0.81535 0.29328 0.0
H191 H 0.23044 0.83576 0.29332 0.0
H192 H 0.21263 0.88797 0.30737 0.0
H193 H 0.22151 0.8781 0.27601 0.0
H194 H 0.21453 0.91965 0.27117 0.0
H195 H 0.22315 0.90965 0.23977 0.0
H196 H 0.23465 0.88364 0.12974 0.0
H197 H 0.26514 0.86206 0.12639 0.0
H198 H 0.26142 0.8555 0.164 0.0
H199 H 0.23093 0.87693 0.16749 0.0
C200 C 0.42075 0.98537 0.50811 0.0
C201 C 0.42605 0.98998 0.48921 0.0
C202 C 0.44472 0.99103 0.50846 0.0
C203 C 0.43793 0.99278 0.48938 0.0
C204 C 0.43932 0.98644 0.5274 0.0
C205 C 0.42742 0.98363 0.52721 0.0
U206 U 0.39232 0.98344 0.47683 0.0
O207 O 0.37906 0.96992 0.47527 0.0
O208 O 0.37418 0.98691 0.4869 0.0
C209 C 0.37095 0.97627 0.48438 0.0
C210 C 0.40832 0.98224 0.50777 0.0
C211 C 0.36494 0.97113 0.50341 0.0
C212 C 0.36539 0.96309 0.54041 0.0
C213 C 0.37117 0.96813 0.52251 0.0
C214 C 0.34709 0.96408 0.52034 0.0
C215 C 0.35328 0.96096 0.53952 0.0
C216 C 0.35288 0.96912 0.50246 0.0
C217 C 0.39321 0.99405 0.41642 0.0
C218 C 0.37944 0.98961 0.3871 0.0
C219 C 0.39442 1.00389 0.38122 0.0
C220 C 0.3985 1.00214 0.40268 0.0
C221 C 0.38493 0.99755 0.37305 0.0
C222 C 0.38354 0.98789 0.40866 0.0
C223 C 0.39836 0.99183 0.43824 0.0
O224 O 0.40102 0.99081 0.50584 0.0
O225 O 0.40571 0.9737 0.49475 0.0
O226 O 0.39966 0.98108 0.44368 0.0
O227 O 0.39453 0.99814 0.45455 0.0
H228 H 0.42102 0.99133 0.47428 0.0
H229 H 0.44183 0.99615 0.47442 0.0
H230 H 0.44426 0.9851 0.54244 0.0
H231 H 0.42344 0.9801 0.54195 0.0
H232 H 0.37045 0.96067 0.55478 0.0
H233 H 0.3805 0.96963 0.5235 0.0
H234 H 0.33775 0.96273 0.51921 0.0
H235 H 0.34794 0.97143 0.48785 0.0
H236 H 0.37205 0.98468 0.38139 0.0
H237 H 0.39896 0.00994 0.37077 0.0
H238 H 0.40601 0.00694 0.40838 0.0
H239 H 0.3793 0.98162 0.4191 0.0
C240 C 0.27489 0.17371 0.7555 0.0
C241 C 0.27021 0.17885 0.73654 0.0
C242 C 0.26999 0.1972 0.75503 0.0
C243 C 0.26778 0.19049 0.73629 0.0
C244 C 0.27463 0.19196 0.77405 0.0
C245 C 0.27707 0.18031 0.77425 0.0
U246 U 0.27559 0.14562 0.72561 0.0
O247 O 0.28897 0.13226 0.72439 0.0
O248 O 0.27142 0.12828 0.73687 0.0
C249 C 0.28222 0.12473 0.7342 0.0
C250 C 0.27763 0.16152 0.75561 0.0
C251 C 0.28741 0.11897 0.75341 0.0
C252 C 0.29686 0.11968 0.7893 0.0
C253 C 0.29175 0.12524 0.77127 0.0
C254 C 0.29314 0.10151 0.77194 0.0
C255 C 0.29764 0.10775 0.78982 0.0
C256 C 0.28808 0.10709 0.75389 0.0
C257 C 0.26427 0.146 0.66543 0.0
C258 C 0.26948 0.13403 0.6343 0.0
C259 C 0.25223 0.14592 0.63241 0.0
C260 C 0.25446 0.14983 0.65375 0.0
C261 C 0.25982 0.13813 0.62227 0.0
C262 C 0.27167 0.13791 0.65574 0.0
C263 C 0.26693 0.1512 0.68694 0.0
O264 O 0.26853 0.15472 0.75433 0.0
O265 O 0.28622 0.15854 0.74246 0.0
O266 O 0.27806 0.15224 0.692 0.0
O267 O 0.2604 0.14797 0.70367 0.0
H268 H 0.26846 0.17385 0.72191 0.0
H269 H 0.26407 0.19421 0.7215 0.0
H270 H 0.27655 0.1969 0.78865 0.0
H271 H 0.28071 0.17647 0.789 0.0
H272 H 0.3001 0.12472 0.80292 0.0
H273 H 0.29123 0.13444 0.77123 0.0
H274 H 0.29372 0.09233 0.77171 0.0
H275 H 0.28476 0.10212 0.74022 0.0
H276 H 0.27541 0.12794 0.62703 0.0
H277 H 0.24482 0.14938 0.62354 0.0
H278 H 0.24867 0.1561 0.6609 0.0
H279 H 0.27927 0.13479 0.66452 0.0
C280 C 0.09034 0.02531 0.00976 0.0
C281 C 0.08494 0.0187 0.99342 0.0
C282 C 0.06615 0.02074 0.01189 0.0
C283 C 0.07296 0.0164 0.99452 0.0
C284 C 0.07164 0.02732 0.02827 0.0
C285 C 0.08363 0.02957 0.0272 0.0
U286 U 0.11852 0.02661 0.9769 0.0
O287 O 0.13188 0.04001 0.9747 0.0
O288 O 0.13668 0.02301 0.98661 0.0
C289 C 0.13998 0.03363 0.98385 0.0
C290 C 0.10283 0.02812 0.00835 0.0
C291 C 0.14602 0.03875 1.0028 0.0
C292 C 0.14559 0.04658 0.03984 0.0
C293 C 0.13982 0.04156 0.02199 0.0
C294 C 0.16382 0.04595 0.01953 0.0
C295 C 0.15766 0.04887 0.03882 0.0
C296 C 0.15804 0.04094 1.00168 0.0
C297 C 0.11723 0.0161 0.91673 0.0
C298 C 0.13095 0.02062 0.88731 0.0
C299 C 0.11588 0.00646 0.88148 0.0
C300 C 0.11186 0.00811 0.90299 0.0
C301 C 0.12537 0.0128 0.87326 0.0
C302 C 0.12693 0.02224 0.90892 0.0
C303 C 0.11215 0.01828 0.93859 0.0
O304 O 0.10993 0.0194 0.00629 0.0
O305 O 0.10539 0.03657 0.99496 0.0
O306 O 0.11092 0.02903 0.94395 0.0
O307 O 0.11602 0.01192 0.9549 0.0
H308 H 0.08999 0.01542 0.97971 0.0
H309 H 0.06897 0.01141 0.98153 0.0
H310 H 0.06667 0.03068 0.04199 0.0
H311 H 0.08766 0.03471 0.03992 0.0
H312 H 0.14054 0.04885 0.05429 0.0
H313 H 0.13051 0.03994 0.0231 0.0
H314 H 0.17314 0.04744 0.01829 0.0
H315 H 0.16296 0.03878 0.987 0.0
H316 H 0.13836 0.02555 0.88155 0.0
H317 H 0.11127 1.00049 0.87104 0.0
H318 H 0.10434 1.00333 0.90874 0.0
H319 H 0.13123 0.02842 0.91935 0.0
C320 C 0.77304 0.83629 0.75791 0.0
C321 C 0.76841 0.83114 0.73897 0.0
C322 C 0.76793 0.81283 0.75785 0.0
C323 C 0.76588 0.81952 0.73894 0.0
C324 C 0.77247 0.81808 0.77688 0.0
C325 C 0.77502 0.82972 0.77687 0.0
U326 U 0.77493 0.86389 0.72639 0.0
O327 O 0.77109 0.88151 0.73602 0.0
O328 O 0.7887 0.87691 0.72482 0.0
C329 C 0.782 0.88479 0.73349 0.0
C330 C 0.77605 0.84843 0.75762 0.0
C331 C 0.78712 0.89095 0.7522 0.0
C332 C 0.79476 0.89129 0.78965 0.0
C333 C 0.78945 0.8854 0.77227 0.0
C334 C 0.7953 0.90835 0.76713 0.0
C335 C 0.79784 0.90281 0.78721 0.0
C336 C 0.78999 0.90246 0.7498 0.0
C337 C 0.76488 0.86267 0.66559 0.0
C338 C 0.76994 0.87585 0.63609 0.0
C339 C 0.7553 0.8613 0.62995 0.0
C340 C 0.75675 0.85746 0.65161 0.0
C341 C 0.76199 0.87044 0.6218 0.0
C342 C 0.77136 0.87201 0.65785 0.0
C343 C 0.76687 0.85776 0.68763 0.0
O344 O 0.78496 0.8511 0.74493 0.0
O345 O 0.76714 0.85538 0.75529 0.0
O346 O 0.76012 0.8615 0.70357 0.0
O347 O 0.77786 0.85659 0.69356 0.0
H348 H 0.76682 0.8361 0.72418 0.0
H349 H 0.76223 0.81579 0.72414 0.0
H350 H 0.77428 0.81316 0.79163 0.0
H351 H 0.77863 0.83357 0.79159 0.0
H352 H 0.7967 0.88674 0.80478 0.0
H353 H 0.78731 0.87649 0.77436 0.0
H354 H 0.7974 0.91725 0.76481 0.0
H355 H 0.78822 0.90687 0.73444 0.0
H356 H 0.77513 0.88299 0.63039 0.0
H357 H 0.74924 0.85682 0.61934 0.0
H358 H 0.75171 0.85021 0.6573 0.0
H359 H 0.77765 0.87618 0.66846 0.0
C360 C 0.86998 0.02723 0.41572 0.0
C361 C 0.88001 0.02471 0.40336 0.0
C362 C 0.86802 0.0208 0.37101 0.0
C363 C 0.87905 0.02156 0.38122 0.0
C364 C 0.85799 0.0234 0.38349 0.0
C365 C 0.85897 0.02658 0.40568 0.0
U366 U 0.88868 0.02849 0.46665 0.0
O367 O 0.89106 0.04151 0.49214 0.0
O368 O 0.88495 0.02445 0.50153 0.0
C369 C 0.88698 0.03493 0.50797 0.0
C370 C 0.87105 0.03022 0.43919 0.0
C371 C 0.87823 0.03996 0.52298 0.0
C372 C 0.86464 0.05502 0.53284 0.0
C373 C 0.87208 0.04991 0.51744 0.0
C374 C 0.86905 0.0401 0.55918 0.0
C375 C 0.86318 0.05027 0.55404 0.0
C376 C 0.87652 0.03504 0.54385 0.0
C377 C 0.92011 0.01745 0.45973 0.0
C378 C 0.93559 0.01939 0.48695 0.0
C379 C 0.93891 0.00845 0.45373 0.0
C380 C 0.92753 0.01078 0.44675 0.0
C381 C 0.9431 0.01276 0.47387 0.0
C382 C 0.92416 0.0217 0.47995 0.0
C383 C 0.90832 0.01999 0.45155 0.0
O384 O 0.87245 0.02152 0.4526 0.0
O385 O 0.87823 0.03867 0.44342 0.0
O386 O 0.90562 0.03082 0.45013 0.0
O387 O 0.89985 0.01371 0.45971 0.0
H388 H 0.8886 0.02513 0.41087 0.0
H389 H 0.88697 0.01981 0.37206 0.0
H390 H 0.84936 0.02276 0.37625 0.0
H391 H 0.85114 0.02843 0.41504 0.0
H392 H 0.86034 0.06289 0.52836 0.0
H393 H 0.87321 0.05389 0.50143 0.0
H394 H 0.86796 0.03608 0.57516 0.0
H395 H 0.88114 0.02736 0.54846 0.0
H396 H 0.93852 0.02274 0.50264 0.0
H397 H 0.9445 1.00347 0.44309 0.0
H398 H 0.92455 0.00746 0.43105 0.0
H399 H 0.91851 0.02684 0.49021 0.0
C400 C 0.74024 0.17432 0.26145 0.0
C401 C 0.74478 0.17969 0.24259 0.0
C402 C 0.7457 0.1977 0.26219 0.0
C403 C 0.74749 0.19127 0.24295 0.0
C404 C 0.74123 0.19223 0.28112 0.0
C405 C 0.73852 0.18063 0.28074 0.0
U406 U 0.73748 0.14713 0.22909 0.0
O407 O 0.74105 0.12934 0.23793 0.0
O408 O 0.72336 0.13441 0.22795 0.0
C409 C 0.73001 0.12634 0.23616 0.0
C410 C 0.737 0.16225 0.26079 0.0
C411 C 0.72507 0.12021 0.25522 0.0
C412 C 0.72191 0.11831 0.29474 0.0
C413 C 0.72682 0.12414 0.27682 0.0
C414 C 0.71337 0.10463 0.26964 0.0
C415 C 0.71509 0.10849 0.29139 0.0
C416 C 0.71834 0.11044 0.25176 0.0
C417 C 0.74705 0.14871 0.16805 0.0
C418 C 0.74176 0.13566 0.13867 0.0
C419 C 0.75649 0.15011 0.13227 0.0
C420 C 0.75516 0.1539 0.15393 0.0
C421 C 0.74971 0.14104 0.12427 0.0
C422 C 0.74046 0.13945 0.16043 0.0
C423 C 0.7453 0.15348 0.1902 0.0
O424 O 0.72792 0.15992 0.24831 0.0
O425 O 0.74574 0.15517 0.25791 0.0
O426 O 0.75212 0.1495 0.20587 0.0
O427 O 0.73438 0.15476 0.19648 0.0
H428 H 0.7461 0.17493 0.2275 0.0
H429 H 0.75076 0.19523 0.228 0.0
H430 H 0.73988 0.19691 0.29627 0.0
H431 H 0.73503 0.17661 0.29544 0.0
H432 H 0.72354 0.12145 0.31124 0.0
H433 H 0.73197 0.13171 0.27981 0.0
H434 H 0.70802 0.09723 0.26638 0.0
H435 H 0.71683 0.10734 0.23517 0.0
H436 H 0.73649 0.12858 0.13308 0.0
H437 H 0.76257 0.15456 0.12156 0.0
H438 H 0.7603 0.16108 0.15953 0.0
H439 H 0.73418 0.13529 0.17117 0.0
C440 C 0.59198 0.98798 0.00951 0.0
C441 C 0.58668 0.99292 0.99094 0.0
C442 C 0.56816 0.99412 0.01065 0.0
C443 C 0.57488 0.99596 0.99149 0.0
C444 C 0.57358 0.98925 0.02929 0.0
C445 C 0.5854 0.98621 0.02871 0.0
U446 U 0.61988 0.98496 0.97691 0.0
O447 O 0.63831 0.98755 0.9859 0.0
O448 O 0.63237 0.97078 0.97472 0.0
C449 C 0.64092 0.97674 0.9834 0.0
C450 C 0.60426 0.9844 0.0086 0.0
C451 C 0.64697 0.9713 1.00209 0.0
C452 C 0.64933 0.96807 0.04151 0.0
C453 C 0.64358 0.97344 0.02397 0.0
C454 C 0.6618 0.95824 0.01551 0.0
C455 C 0.65848 0.96037 0.03747 0.0
C456 C 0.65611 0.96368 0.998 0.0
C457 C 0.61875 0.99563 0.91663 0.0
C458 C 0.63246 0.99103 0.88735 0.0
C459 C 0.61741 1.00515 0.88113 0.0
C460 C 0.61338 1.00356 0.90268 0.0
C461 C 0.62692 0.99882 0.8731 0.0
C462 C 0.62842 0.98946 0.90899 0.0
C463 C 0.61374 0.99363 0.93864 0.0
O464 O 0.60631 0.97576 0.99547 0.0
O465 O 0.61191 0.99267 0.00633 0.0
O466 O 0.61809 0.99975 0.95478 0.0
O467 O 0.61198 0.98294 0.94412 0.0
H468 H 0.59164 0.99429 0.97592 0.0
H469 H 0.57096 0.99954 0.97675 0.0
H470 H 0.56869 0.98784 0.04438 0.0
H471 H 0.58937 0.9824 0.04319 0.0
H472 H 0.64648 0.96978 0.05822 0.0
H473 H 0.63645 0.97921 0.02747 0.0
H474 H 0.66889 0.95244 0.01188 0.0
H475 H 0.65882 0.96191 0.98122 0.0
H476 H 0.63987 0.9861 0.88174 0.0
H477 H 0.61282 0.01108 0.87054 0.0
H478 H 0.60588 0.00836 0.9083 0.0
H479 H 0.63271 0.98332 0.91961 0.0
C480 C 0.77368 0.17475 0.75456 0.0
C481 C 0.76896 0.17984 0.77347 0.0
C482 C 0.76848 0.19818 0.7547 0.0
C483 C 0.76638 0.19144 0.77354 0.0
C484 C 0.77314 0.19299 0.73572 0.0
C485 C 0.77572 0.18137 0.73568 0.0
U486 U 0.77532 0.14702 0.78568 0.0
O487 O 0.77164 0.12943 0.77562 0.0
O488 O 0.78913 0.13406 0.78746 0.0
C489 C 0.78254 0.1262 0.77842 0.0
C490 C 0.77672 0.16263 0.75478 0.0
C491 C 0.78786 0.12019 0.75972 0.0
C492 C 0.79451 0.11975 0.72162 0.0
C493 C 0.78908 0.12548 0.73905 0.0
C494 C 0.79747 0.10339 0.74537 0.0
C495 C 0.79885 0.10866 0.72464 0.0
C496 C 0.79202 0.1091 0.76274 0.0
C497 C 0.76455 0.14782 0.84614 0.0
C498 C 0.77026 0.13593 0.87724 0.0
C499 C 0.75316 0.14797 0.87997 0.0
C500 C 0.755 0.15177 0.85838 0.0
C501 C 0.76087 0.14014 0.8898 0.0
C502 C 0.77207 0.13972 0.85555 0.0
C503 C 0.76682 0.15285 0.82426 0.0
O504 O 0.7855 0.15996 0.76777 0.0
O505 O 0.76781 0.15562 0.75666 0.0
O506 O 0.76024 0.1492 0.80795 0.0
O507 O 0.77786 0.15415 0.81877 0.0
H508 H 0.76739 0.17485 0.78825 0.0
H509 H 0.76296 0.19518 0.78852 0.0
H510 H 0.77473 0.1979 0.72086 0.0
H511 H 0.77935 0.17755 0.72094 0.0
H512 H 0.79554 0.12409 0.70595 0.0
H513 H 0.78595 0.13407 0.73648 0.0
H514 H 0.80057 0.09481 0.74816 0.0
H515 H 0.79113 0.10489 0.77859 0.0
H516 H 0.77628 0.12981 0.88426 0.0
H517 H 0.74594 0.15149 0.88925 0.0
H518 H 0.74913 0.15806 0.85143 0.0
H519 H 0.77947 0.1365 0.84633 0.0
C520 C 0.59184 0.02379 0.50403 0.0
C521 C 0.5866 0.01906 0.52288 0.0
C522 C 0.56796 0.01779 0.50357 0.0
C523 C 0.57477 0.01608 0.52265 0.0
C524 C 0.57331 0.02247 0.48467 0.0
C525 C 0.58516 0.02545 0.48492 0.0
U526 U 0.62017 0.02647 0.53553 0.0
O527 O 0.63842 0.02356 0.52569 0.0
O528 O 0.63297 0.04043 0.53707 0.0
C529 C 0.6413 0.03431 0.52809 0.0
C530 C 0.60419 0.02722 0.5045 0.0
C531 C 0.64722 0.0396 0.5091 0.0
C532 C 0.6482 0.04395 0.46989 0.0
C533 C 0.64254 0.03875 0.48776 0.0
C534 C 0.66321 0.05098 0.49456 0.0
C535 C 0.65859 0.05016 0.47306 0.0
C536 C 0.65757 0.04574 0.51238 0.0
C537 C 0.61965 0.01577 0.59591 0.0
C538 C 0.63175 0.02152 0.62695 0.0
C539 C 0.62002 1.0044 0.62945 0.0
C540 C 0.61597 0.00624 0.60798 0.0
C541 C 0.62782 0.01211 0.63933 0.0
C542 C 0.62773 0.02332 0.60538 0.0
C543 C 0.61441 0.0179 0.5741 0.0
O544 O 0.60652 0.03583 0.51754 0.0
O545 O 0.61172 0.01885 0.50648 0.0
O546 O 0.61837 0.01169 0.55774 0.0
O547 O 0.61273 0.0286 0.56866 0.0
H548 H 0.59163 0.01777 0.53783 0.0
H549 H 0.5709 0.01265 0.53758 0.0
H550 H 0.56837 0.02377 0.46963 0.0
H551 H 0.5891 0.02908 0.47023 0.0
H552 H 0.64447 0.04301 0.45356 0.0
H553 H 0.63452 0.03406 0.48493 0.0
H554 H 0.67108 0.05584 0.4977 0.0
H555 H 0.66126 0.04654 0.52879 0.0
H556 H 0.63785 0.02754 0.63402 0.0
H557 H 0.61669 0.99716 0.63859 0.0
H558 H 0.60971 1.00034 0.60098 0.0
H559 H 0.63074 0.03071 0.59629 0.0
C560 C 0.73945 0.83697 0.25151 0.0
C561 C 0.74413 0.83177 0.27041 0.0
C562 C 0.74471 0.81356 0.25149 0.0
C563 C 0.74675 0.82018 0.27041 0.0
C564 C 0.74009 0.81885 0.23252 0.0
C565 C 0.73748 0.83047 0.23255 0.0
U566 U 0.73721 0.86451 0.28287 0.0
O567 O 0.74087 0.88218 0.27322 0.0
O568 O 0.72321 0.87732 0.28391 0.0
C569 C 0.72987 0.88526 0.27516 0.0
C570 C 0.73632 0.84906 0.25182 0.0
C571 C 0.72483 0.89123 0.256 0.0
C572 C 0.72199 0.89318 0.2164 0.0
C573 C 0.72695 0.88747 0.2344 0.0
C574 C 0.71262 0.90636 0.2414 0.0
C575 C 0.71473 0.90269 0.21965 0.0
C576 C 0.71765 0.90069 0.25937 0.0
C577 C 0.74744 0.86354 0.34368 0.0
C578 C 0.74147 0.87529 0.37463 0.0
C579 C 0.75873 0.86348 0.37762 0.0
C580 C 0.757 0.85969 0.35605 0.0
C581 C 0.7509 0.8712 0.3873 0.0
C582 C 0.73977 0.87152 0.35296 0.0
C583 C 0.74536 0.85858 0.32175 0.0
O584 O 0.72738 0.85156 0.26451 0.0
O585 O 0.74514 0.85613 0.25412 0.0
O586 O 0.75207 0.8623 0.30566 0.0
O587 O 0.73437 0.85726 0.31589 0.0
H588 H 0.74564 0.83668 0.28526 0.0
H589 H 0.75013 0.81636 0.28539 0.0
H590 H 0.73855 0.81403 0.21761 0.0
H591 H 0.73387 0.83436 0.21782 0.0
H592 H 0.72393 0.89019 0.19991 0.0
H593 H 0.73244 0.88014 0.23146 0.0
H594 H 0.70693 0.91351 0.24459 0.0
H595 H 0.71584 0.90365 0.27594 0.0
H596 H 0.73536 0.88133 0.38154 0.0
H597 H 0.76598 0.86004 0.38698 0.0
H598 H 0.76298 0.8535 0.34919 0.0
H599 H 0.73236 0.87467 0.34364 0.0
C600 C 0.86981 0.9836 0.09593 0.0
C601 C 0.87984 0.98592 0.10846 0.0
C602 C 0.86786 0.98915 0.14107 0.0
C603 C 0.87889 0.98862 0.13083 0.0
C604 C 0.85781 0.98692 0.12838 0.0
C605 C 0.85879 0.98414 0.10598 0.0
U606 U 0.8884 0.9829 0.04472 0.0
O607 O 0.89079 0.97003 0.01895 0.0
O608 O 0.88448 0.98706 0.00998 0.0
C609 C 0.88652 0.97662 1.00333 0.0
C610 C 0.87087 0.98084 0.07236 0.0
C611 C 0.87767 0.97155 0.98849 0.0
C612 C 0.86507 0.95585 0.97754 0.0
C613 C 0.87262 0.96088 0.99287 0.0
C614 C 0.86719 0.97223 0.95356 0.0
C615 C 0.8624 0.96139 0.95753 0.0
C616 C 0.87477 0.97722 0.96882 0.0
C617 C 0.91982 0.99425 0.05177 0.0
C618 C 0.93596 0.99166 0.02619 0.0
C619 C 0.93805 1.0044 0.05728 0.0
C620 C 0.92663 1.00191 0.06385 0.0
C621 C 0.94289 0.99927 0.03844 0.0
C622 C 0.92449 0.98919 0.03277 0.0
C623 C 0.90802 0.9915 0.05978 0.0
O624 O 0.87219 0.98966 0.05921 0.0
O625 O 0.87808 0.97248 0.06781 0.0
O626 O 0.9054 0.98063 0.06098 0.0
O627 O 0.89949 0.99775 0.05181 0.0
H628 H 0.88843 0.98566 0.10091 0.0
H629 H 0.88678 0.99047 0.14003 0.0
H630 H 0.84921 0.98718 0.13583 0.0
H631 H 0.85095 0.98242 0.09652 0.0
H632 H 0.86165 0.94746 0.98107 0.0
H633 H 0.87468 0.95628 0.00789 0.0
H634 H 0.86517 0.97684 0.93853 0.0
H635 H 0.87855 0.98545 0.96505 0.0
H636 H 0.9394 0.98764 0.0115 0.0
H637 H 0.94318 0.01015 0.06729 0.0
H638 H 0.92317 0.00586 0.0786 0.0
H639 H 0.91931 0.98328 0.02319 0.0
C640 C 0.73897 0.66883 0.75323 0.0
C641 C 0.74346 0.67398 0.77228 0.0
C642 C 0.74375 0.69235 0.75361 0.0
C643 C 0.74583 0.68563 0.77247 0.0
C644 C 0.73931 0.6871 0.7345 0.0
C645 C 0.73692 0.67543 0.73434 0.0
U646 U 0.738 0.64079 0.78362 0.0
O647 O 0.72468 0.62733 0.78456 0.0
O648 O 0.7424 0.62345 0.77296 0.0
C649 C 0.73159 0.61982 0.77525 0.0
C650 C 0.73628 0.65662 0.75318 0.0
C651 C 0.72666 0.61398 0.75596 0.0
C652 C 0.71766 0.61454 0.71965 0.0
C653 C 0.72253 0.62018 0.73774 0.0
C654 C 0.72118 0.59644 0.73765 0.0
C655 C 0.71689 0.6026 0.71942 0.0
C656 C 0.72601 0.6021 0.75577 0.0
C657 C 0.74852 0.64135 0.84426 0.0
C658 C 0.74302 0.6292 0.87515 0.0
C659 C 0.75997 0.64148 0.878 0.0
C660 C 0.75804 0.64537 0.85651 0.0
C661 C 0.75238 0.63349 0.88773 0.0
C662 C 0.74113 0.63307 0.85355 0.0
C663 C 0.74613 0.64651 0.82254 0.0
O664 O 0.74539 0.64988 0.75502 0.0
O665 O 0.72753 0.65359 0.76599 0.0
O666 O 0.73507 0.64746 0.81694 0.0
O667 O 0.7529 0.64329 0.80619 0.0
H668 H 0.74511 0.66898 0.78701 0.0
H669 H 0.7494 0.68935 0.78734 0.0
H670 H 0.73748 0.69205 0.71979 0.0
H671 H 0.73342 0.67158 0.71952 0.0
H672 H 0.71458 0.61953 0.70576 0.0
H673 H 0.72304 0.62938 0.73757 0.0
H674 H 0.72061 0.58726 0.7381 0.0
H675 H 0.72916 0.59719 0.76972 0.0
H676 H 0.73709 0.62296 0.88211 0.0
H677 H 0.76715 0.64508 0.8873 0.0
H678 H 0.76381 0.65178 0.84965 0.0
H679 H 0.73375 0.6298 0.84432 0.0
C680 C 0.59392 0.48928 1.00148 0.0
C681 C 0.58724 0.49023 0.02082 0.0
C682 C 0.56982 0.49426 0.99901 0.0
C683 C 0.5753 0.49265 0.0196 0.0
C684 C 0.57663 0.49346 0.9797 0.0
C685 C 0.58856 0.49097 0.98095 0.0
U686 U 0.6222 0.4879 0.03395 0.0
O687 O 0.63569 0.47465 0.03575 0.0
O688 O 0.64031 0.49176 0.02414 0.0
C689 C 0.64372 0.48117 0.0267 0.0
C690 C 0.60644 0.48656 1.00261 0.0
C691 C 0.64981 0.4762 0.00769 0.0
C692 C 0.64943 0.46809 0.97087 0.0
C693 C 0.64361 0.47306 0.98868 0.0
C694 C 0.66774 0.46947 0.9908 0.0
C695 C 0.66157 0.46618 0.97174 0.0
C696 C 0.6619 0.47443 0.00862 0.0
C697 C 0.62106 0.49814 0.09439 0.0
C698 C 0.63331 0.49265 0.12545 0.0
C699 C 0.62093 0.50928 0.12804 0.0
C700 C 0.617 0.50744 0.10652 0.0
C701 C 0.629 0.50182 0.1379 0.0
C702 C 0.6294 0.49085 0.10383 0.0
C703 C 0.61593 0.49594 0.07252 0.0
O704 O 0.61346 0.49532 1.00488 0.0
O705 O 0.60917 0.47799 0.01561 0.0
O706 O 0.61473 0.48522 0.06695 0.0
O707 O 0.61964 0.50244 0.05627 0.0
H708 H 0.59125 0.489 0.03687 0.0
H709 H 0.57032 0.49306 0.03479 0.0
H710 H 0.57276 0.49484 0.9636 0.0
H711 H 0.59362 0.49036 0.96587 0.0
H712 H 0.64438 0.46555 0.95659 0.0
H713 H 0.63424 0.47437 0.98772 0.0
H714 H 0.67711 0.46828 0.99191 0.0
H715 H 0.66682 0.47684 0.02315 0.0
H716 H 0.63961 0.48682 0.13252 0.0
H717 H 0.6173 0.51632 0.13724 0.0
H718 H 0.61053 0.51314 0.09954 0.0
H719 H 0.63272 0.48365 0.09468 0.0
C720 C 0.7733 0.34192 0.2546 0.0
C721 C 0.76894 0.33673 0.2738 0.0
C722 C 0.76848 0.31841 0.25525 0.0
C723 C 0.76655 0.32509 0.27413 0.0
C724 C 0.77282 0.32369 0.23601 0.0
C725 C 0.7752 0.33536 0.23571 0.0
U726 U 0.77409 0.36999 0.28449 0.0
O727 O 0.78743 0.38343 0.28549 0.0
O728 O 0.7698 0.38733 0.27337 0.0
C729 C 0.7806 0.39093 0.27585 0.0
C730 C 0.77598 0.35413 0.2544 0.0
C731 C 0.78568 0.39673 0.25657 0.0
C732 C 0.79513 0.39609 0.22068 0.0
C733 C 0.79008 0.39049 0.23873 0.0
C734 C 0.79122 0.41423 0.23794 0.0
C735 C 0.79581 0.40803 0.22011 0.0
C736 C 0.78622 0.40862 0.25602 0.0
C737 C 0.76325 0.36959 0.34491 0.0
C738 C 0.76878 0.38162 0.37577 0.0
C739 C 0.75152 0.36973 0.37831 0.0
C740 C 0.75354 0.36579 0.35693 0.0
C741 C 0.75922 0.37754 0.38814 0.0
C742 C 0.77076 0.37771 0.35429 0.0
C743 C 0.76573 0.36436 0.32337 0.0
O744 O 0.76686 0.36087 0.25592 0.0
O745 O 0.78466 0.35717 0.26733 0.0
O746 O 0.77681 0.36334 0.31799 0.0
O747 O 0.75906 0.36757 0.30681 0.0
H748 H 0.76746 0.34169 0.28858 0.0
H749 H 0.76337 0.32128 0.2893 0.0
H750 H 0.77426 0.31883 0.22112 0.0
H751 H 0.77855 0.33925 0.22074 0.0
H752 H 0.79844 0.39107 0.20709 0.0
H753 H 0.78966 0.38129 0.23883 0.0
H754 H 0.79171 0.42343 0.23811 0.0
H755 H 0.78285 0.41356 0.26967 0.0
H756 H 0.7748 0.38773 0.38281 0.0
H757 H 0.74417 0.3663 0.38745 0.0
H758 H 0.74767 0.3595 0.35001 0.0
H759 H 0.77829 0.38081 0.34524 0.0
C760 C 0.92014 0.52366 0.50444 0.0
C761 C 0.92541 0.51913 0.52344 0.0
C762 C 0.94422 0.51854 0.50466 0.0
C763 C 0.93733 0.51659 0.52356 0.0
C764 C 0.93886 0.52305 0.48562 0.0
C765 C 0.92691 0.52559 0.48553 0.0
U766 U 0.89168 0.52508 0.53553 0.0
O767 O 0.87812 0.53826 0.53698 0.0
O768 O 0.87362 0.52113 0.52553 0.0
C769 C 0.87017 0.53171 0.52783 0.0
C770 C 0.90764 0.5265 0.50455 0.0
C771 C 0.86421 0.53666 0.50858 0.0
C772 C 0.86495 0.54554 0.47232 0.0
C773 C 0.87065 0.54057 0.49035 0.0
C774 C 0.84628 0.54254 0.49037 0.0
C775 C 0.8527 0.54664 0.47216 0.0
C776 C 0.85201 0.53762 0.50844 0.0
C777 C 0.8933 0.51487 0.59623 0.0
C778 C 0.87728 0.51468 0.62259 0.0
C779 C 0.89673 0.50906 0.63411 0.0
C780 C 0.90087 0.51104 0.61278 0.0
C781 C 0.88489 0.51085 0.63933 0.0
C782 C 0.88147 0.51667 0.60116 0.0
C783 C 0.89814 0.51713 0.5742 0.0
O784 O 0.90054 0.51778 0.50664 0.0
O785 O 0.90481 0.53507 0.51733 0.0
O786 O 0.89903 0.52789 0.56859 0.0
O787 O 0.89431 0.51063 0.55814 0.0
H788 H 0.9203 0.51764 0.53824 0.0
H789 H 0.94119 0.51329 0.53858 0.0
H790 H 0.94389 0.52453 0.47073 0.0
H791 H 0.92296 0.52907 0.47072 0.0
H792 H 0.87013 0.54846 0.45844 0.0
H793 H 0.88009 0.53983 0.49013 0.0
H794 H 0.83686 0.54336 0.49085 0.0
H795 H 0.84691 0.53464 0.52239 0.0
H796 H 0.86811 0.51608 0.62603 0.0
H797 H 0.9029 0.50636 0.64663 0.0
H798 H 0.91005 0.50968 0.60926 0.0
H799 H 0.87551 0.51966 0.5885 0.0
C800 C 0.74072 0.34223 0.7616 0.0
C801 C 0.74537 0.33694 0.74285 0.0
C802 C 0.74596 0.31882 0.76236 0.0
C803 C 0.74798 0.32535 0.74323 0.0
C804 C 0.74134 0.32419 0.78117 0.0
C805 C 0.73874 0.33582 0.78077 0.0
U806 U 0.73817 0.36919 0.72846 0.0
O807 O 0.72435 0.38213 0.72686 0.0
O808 O 0.74216 0.38701 0.73645 0.0
C809 C 0.73118 0.39017 0.73463 0.0
C810 C 0.73765 0.35434 0.76084 0.0
C811 C 0.72646 0.39642 0.75359 0.0
C812 C 0.71928 0.39676 0.79133 0.0
C813 C 0.72398 0.39079 0.7735 0.0
C814 C 0.71959 0.41408 0.76957 0.0
C815 C 0.71698 0.40848 0.78956 0.0
C816 C 0.72429 0.40809 0.75175 0.0
C817 C 0.74721 0.36634 0.66716 0.0
C818 C 0.74277 0.37947 0.63723 0.0
C819 C 0.75465 0.36282 0.63034 0.0
C820 C 0.75376 0.35973 0.65253 0.0
C821 C 0.74898 0.37259 0.62232 0.0
C822 C 0.74186 0.37634 0.65953 0.0
C823 C 0.74555 0.36217 0.68982 0.0
O824 O 0.74647 0.3613 0.75748 0.0
O825 O 0.7285 0.35674 0.74858 0.0
O826 O 0.73466 0.36121 0.69644 0.0
O827 O 0.75256 0.36637 0.70492 0.0
H828 H 0.74688 0.34176 0.72784 0.0
H829 H 0.75136 0.32146 0.72836 0.0
H830 H 0.73979 0.31944 0.79623 0.0
H831 H 0.73514 0.33978 0.79538 0.0
H832 H 0.71724 0.39214 0.80635 0.0
H833 H 0.7256 0.38175 0.77517 0.0
H834 H 0.7181 0.42312 0.76774 0.0
H835 H 0.7262 0.41257 0.73651 0.0
H836 H 0.73828 0.38702 0.63152 0.0
H837 H 0.75967 0.35746 0.61936 0.0
H838 H 0.75798 0.35201 0.65818 0.0
H839 H 0.73676 0.38154 0.67066 0.0
C840 C 0.92053 0.48811 0.00689 0.0
C841 C 0.92592 0.49272 0.98807 0.0
C842 C 0.94466 0.49309 0.00713 0.0
C843 C 0.93786 0.4952 0.98819 0.0
C844 C 0.93917 0.48853 0.02602 0.0
C845 C 0.9272 0.48605 0.02587 0.0
U846 U 0.89223 0.48661 0.97523 0.0
O847 O 0.87867 0.47339 0.97367 0.0
O848 O 0.87413 0.49053 0.98488 0.0
C849 C 0.87068 0.47994 0.98264 0.0
C850 C 0.90803 0.48527 0.00651 0.0
C851 C 0.86467 0.47501 1.00187 0.0
C852 C 0.86532 0.4667 0.03862 0.0
C853 C 0.87103 0.47168 0.02061 0.0
C854 C 0.8468 0.46852 0.01951 0.0
C855 C 0.85313 0.465 0.03824 0.0
C856 C 0.85253 0.47346 1.00146 0.0
C857 C 0.89408 0.49663 0.91447 0.0
C858 C 0.87796 0.4975 0.88837 0.0
C859 C 0.89769 0.50176 0.87627 0.0
C860 C 0.90181 0.49977 0.89761 0.0
C861 C 0.88572 0.50068 0.87135 0.0
C862 C 0.88212 0.49549 0.90981 0.0
C863 C 0.89886 0.49446 0.93657 0.0
O864 O 0.90096 0.494 1.00419 0.0
O865 O 0.90525 0.47668 0.99374 0.0
O866 O 0.89973 0.48372 0.94231 0.0
O867 O 0.89498 0.501 0.95251 0.0
H868 H 0.92087 0.49438 0.97326 0.0
H869 H 0.94176 0.49885 0.97349 0.0
H870 H 0.94417 0.4867 0.04079 0.0
H871 H 0.92317 0.48245 0.0405 0.0
H872 H 0.87043 0.46424 0.05291 0.0
H873 H 0.88042 0.47288 0.02124 0.0
H874 H 0.83743 0.46723 0.0186 0.0
H875 H 0.8475 0.47598 0.9871 0.0
H876 H 0.86869 0.49665 0.88515 0.0
H877 H 0.90395 0.50395 0.86353 0.0
H878 H 0.91108 0.50061 0.90091 0.0
H879 H 0.87604 0.49304 0.9227 0.0
C880 C 0.7714 0.6693 0.26 0.0
C881 C 0.76682 0.67458 0.24109 0.0
C882 C 0.76645 0.69277 0.26008 0.0
C883 C 0.76436 0.6862 0.24113 0.0
C884 C 0.77099 0.68741 0.27905 0.0
C885 C 0.77344 0.67576 0.27899 0.0
U886 U 0.77328 0.642 0.22806 0.0
O887 O 0.78695 0.62893 0.22653 0.0
O888 O 0.76925 0.6243 0.2373 0.0
C889 C 0.78019 0.62105 0.23519 0.0
C890 C 0.77431 0.65715 0.25963 0.0
C891 C 0.78513 0.61506 0.25437 0.0
C892 C 0.79386 0.61541 0.29093 0.0
C893 C 0.78885 0.62113 0.273 0.0
C894 C 0.79128 0.59748 0.27198 0.0
C895 C 0.7952 0.60353 0.29058 0.0
C896 C 0.78631 0.60322 0.25401 0.0
C897 C 0.76364 0.64437 0.1669 0.0
C898 C 0.76829 0.6315 0.13685 0.0
C899 C 0.7555 0.64758 0.13045 0.0
C900 C 0.75654 0.65067 0.15257 0.0
C901 C 0.76156 0.63812 0.1222 0.0
C902 C 0.76935 0.63463 0.15908 0.0
C903 C 0.76555 0.64869 0.18934 0.0
O904 O 0.76536 0.65027 0.25694 0.0
O905 O 0.78329 0.65454 0.24713 0.0
O906 O 0.77651 0.64964 0.19553 0.0
O907 O 0.75866 0.64465 0.20489 0.0
H908 H 0.76525 0.66971 0.22622 0.0
H909 H 0.76103 0.69008 0.22615 0.0
H910 H 0.77258 0.6922 0.29399 0.0
H911 H 0.77698 0.6718 0.29372 0.0
H912 H 0.79664 0.62029 0.30512 0.0
H913 H 0.78793 0.63028 0.27361 0.0
H914 H 0.79228 0.58835 0.2711 0.0
H915 H 0.78348 0.59841 0.23975 0.0
H916 H 0.7731 0.6242 0.13095 0.0
H917 H 0.75009 0.65273 0.11967 0.0
H918 H 0.75204 0.65819 0.15837 0.0
H919 H 0.77488 0.62967 0.16996 0.0
C920 C 0.59325 0.52016 0.512 0.0
C921 C 0.58646 0.51915 0.49281 0.0
C922 C 0.56918 0.51507 0.51499 0.0
C923 C 0.57454 0.51668 0.49428 0.0
C924 C 0.5761 0.51592 0.53416 0.0
C925 C 0.58802 0.51846 0.53265 0.0
U926 U 0.6209 0.52228 0.47806 0.0
O927 O 0.63415 0.53576 0.47577 0.0
O928 O 0.63925 0.51864 0.48651 0.0
C929 C 0.64242 0.52933 0.48423 0.0
C930 C 0.60574 0.523 0.51051 0.0
C931 C 0.64857 0.53426 0.50322 0.0
C932 C 0.64815 0.54283 0.53964 0.0
C933 C 0.64233 0.53773 0.52196 0.0
C934 C 0.66657 0.54078 0.52029 0.0
C935 C 0.66033 0.54449 0.53896 0.0
C936 C 0.66072 0.53573 0.50255 0.0
C937 C 0.61794 0.51307 0.41706 0.0
C938 C 0.63129 0.51745 0.38696 0.0
C939 C 0.61433 0.50555 0.38046 0.0
C940 C 0.61121 0.50649 0.40264 0.0
C941 C 0.62427 0.51121 0.37225 0.0
C942 C 0.62812 0.5184 0.40924 0.0
C943 C 0.61366 0.51477 0.43966 0.0
O944 O 0.61277 0.51434 0.50728 0.0
O945 O 0.60822 0.53181 0.49792 0.0
O946 O 0.6126 0.52539 0.44595 0.0
O947 O 0.61807 0.5081 0.45499 0.0
H948 H 0.59037 0.5204 0.47668 0.0
H949 H 0.56948 0.51625 0.4792 0.0
H950 H 0.57232 0.51455 0.55035 0.0
H951 H 0.59316 0.51912 0.54762 0.0
H952 H 0.64312 0.54544 0.55389 0.0
H953 H 0.63294 0.53659 0.5228 0.0
H954 H 0.67594 0.54203 0.51918 0.0
H955 H 0.66567 0.5331 0.4882 0.0
H956 H 0.63897 0.52194 0.38109 0.0
H957 H 0.60886 0.50053 0.36963 0.0
H958 H 0.60334 0.50228 0.40843 0.0
H959 H 0.63342 0.52353 0.4202 0.0
C960 C 0.27195 0.33969 0.25736 0.0
C961 C 0.26763 0.33464 0.23807 0.0
C962 C 0.26681 0.31625 0.25661 0.0
C963 C 0.26508 0.32302 0.2377 0.0
C964 C 0.27111 0.3214 0.27594 0.0
C965 C 0.27365 0.33303 0.2763 0.0
U966 U 0.27387 0.36762 0.2269 0.0
O967 O 0.26958 0.38507 0.23717 0.0
O968 O 0.28739 0.38088 0.22643 0.0
C969 C 0.28048 0.38852 0.23534 0.0
C970 C 0.27482 0.35186 0.25758 0.0
C971 C 0.28526 0.39453 0.25461 0.0
C972 C 0.29643 0.39465 0.28876 0.0
C973 C 0.29153 0.38872 0.27104 0.0
C974 C 0.28852 0.41223 0.27419 0.0
C975 C 0.29507 0.40651 0.29046 0.0
C976 C 0.28368 0.40629 0.25642 0.0
C977 C 0.26456 0.3669 0.16561 0.0
C978 C 0.27009 0.38008 0.13641 0.0
C979 C 0.25516 0.36588 0.12976 0.0
C980 C 0.25639 0.36193 0.1514 0.0
C981 C 0.26211 0.37489 0.12187 0.0
C982 C 0.27129 0.37613 0.15814 0.0
C983 C 0.26637 0.36181 0.18756 0.0
O984 O 0.28384 0.35475 0.24535 0.0
O985 O 0.26585 0.35872 0.25512 0.0
O986 O 0.25937 0.36528 0.20335 0.0
O987 O 0.2773 0.36073 0.19392 0.0
H988 H 0.26632 0.33967 0.22326 0.0
H989 H 0.26195 0.31932 0.22246 0.0
H990 H 0.2724 0.31645 0.29085 0.0
H991 H 0.27696 0.33682 0.29133 0.0
H992 H 0.30152 0.38998 0.3008 0.0
H993 H 0.29279 0.37961 0.26999 0.0
H994 H 0.2871 0.42131 0.27515 0.0
H995 H 0.27879 0.41091 0.24399 0.0
H996 H 0.27548 0.38712 0.13091 0.0
H997 H 0.24906 0.36157 0.11896 0.0
H998 H 0.25116 0.35476 0.15687 0.0
H999 H 0.27763 0.38012 0.16893 0.0
C1000 C 0.37178 0.52533 0.91759 0.0
C1001 C 0.38184 0.52301 0.90517 0.0
C1002 C 0.36995 0.51995 0.87237 0.0
C1003 C 0.38094 0.52037 0.88276 0.0
C1004 C 0.35987 0.52215 0.88498 0.0
C1005 C 0.36079 0.52484 0.90742 0.0
U1006 U 0.39054 0.52756 0.96849 0.0
O1007 O 0.39211 0.54087 0.99367 0.0
O1008 O 0.38707 0.52356 1.00341 0.0
C1009 C 0.3886 0.53413 0.00971 0.0
C1010 C 0.3728 0.52826 0.94109 0.0
C1011 C 0.37955 0.53878 0.02431 0.0
C1012 C 0.36022 0.54673 0.03045 0.0
C1013 C 0.36857 0.54209 0.01618 0.0
C1014 C 0.37372 0.5447 0.06103 0.0
C1015 C 0.36271 0.54811 0.05307 0.0
C1016 C 0.38204 0.54008 0.04678 0.0
C1017 C 0.42268 0.5183 0.96235 0.0
C1018 C 0.44059 0.5252 0.97938 0.0
C1019 C 0.43971 0.50603 0.96509 0.0
C1020 C 0.42813 0.5078 0.95862 0.0
C1021 C 0.44612 0.51476 0.97527 0.0
C1022 C 0.42896 0.52695 0.97306 0.0
C1023 C 0.41072 0.52013 0.9539 0.0
O1024 O 0.37477 0.51963 0.95442 0.0
O1025 O 0.37948 0.5371 0.94525 0.0
O1026 O 0.40727 0.53073 0.95178 0.0
O1027 O 0.40259 0.51337 0.96191 0.0
H1028 H 0.39041 0.52326 0.91281 0.0
H1029 H 0.38886 0.51856 0.8736 0.0
H1030 H 0.3513 0.52198 0.87742 0.0
H1031 H 0.35294 0.5266 0.9168 0.0
H1032 H 0.35179 0.54917 0.02383 0.0
H1033 H 0.3665 0.54111 0.99884 0.0
H1034 H 0.37602 0.5458 0.07824 0.0
H1035 H 0.39049 0.53761 0.05331 0.0
H1036 H 0.44528 0.53204 0.98741 0.0
H1037 H 0.44376 0.49793 0.96148 0.0
H1038 H 0.42348 0.50103 0.9503 0.0
H1039 H 0.42497 0.53512 0.97627 0.0
C1040 C 0.24068 0.67054 0.75827 0.0
C1041 C 0.24547 0.6757 0.73941 0.0
C1042 C 0.24565 0.69402 0.75797 0.0
C1043 C 0.24794 0.68733 0.73926 0.0
C1044 C 0.24094 0.68876 0.77692 0.0
C1045 C 0.23847 0.67711 0.77704 0.0
U1046 U 0.23915 0.64283 0.72734 0.0
O1047 O 0.24311 0.62528 0.73752 0.0
O1048 O 0.22549 0.62969 0.72604 0.0
C1049 C 0.23222 0.62193 0.7351 0.0
C1050 C 0.23776 0.65838 0.75813 0.0
C1051 C 0.22714 0.61597 0.75419 0.0
C1052 C 0.21934 0.61614 0.79148 0.0
C1053 C 0.22436 0.62187 0.77355 0.0
C1054 C 0.21994 0.59853 0.77091 0.0
C1055 C 0.21702 0.6044 0.79035 0.0
C1056 C 0.22495 0.60428 0.75299 0.0
C1057 C 0.24962 0.64371 0.66676 0.0
C1058 C 0.24399 0.63146 0.6363 0.0
C1059 C 0.26074 0.64395 0.63261 0.0
C1060 C 0.25896 0.64785 0.6541 0.0
C1061 C 0.25317 0.63584 0.62332 0.0
C1062 C 0.24225 0.63533 0.65789 0.0
C1063 C 0.24741 0.64877 0.68854 0.0
O1064 O 0.22895 0.65564 0.74529 0.0
O1065 O 0.24673 0.65148 0.75614 0.0
O1066 O 0.2541 0.64523 0.7048 0.0
O1067 O 0.23638 0.64994 0.6942 0.0
H1068 H 0.24725 0.67072 0.72477 0.0
H1069 H 0.25171 0.69106 0.72452 0.0
H1070 H 0.23896 0.69368 0.79151 0.0
H1071 H 0.23473 0.67325 0.7917 0.0
H1072 H 0.21708 0.62095 0.80608 0.0
H1073 H 0.22598 0.63093 0.77471 0.0
H1074 H 0.21844 0.58947 0.76959 0.0
H1075 H 0.2271 0.59959 0.73818 0.0
H1076 H 0.23809 0.62512 0.62969 0.0
H1077 H 0.2678 0.64761 0.623 0.0
H1078 H 0.26472 0.65433 0.66064 0.0
H1079 H 0.23502 0.63197 0.66745 0.0
C1080 C 0.09197 0.48938 0.51158 0.0
C1081 C 0.08658 0.49408 0.49287 0.0
C1082 C 0.06799 0.49492 0.51238 0.0
C1083 C 0.07471 0.49683 0.49326 0.0
C1084 C 0.07347 0.49025 0.53116 0.0
C1085 C 0.08538 0.48751 0.53074 0.0
U1086 U 0.11961 0.48673 0.47848 0.0
O1087 O 0.13803 0.49013 0.48667 0.0
O1088 O 0.13263 0.47306 0.47638 0.0
C1089 C 0.14105 0.47942 0.48444 0.0
C1090 C 0.10436 0.48616 0.51079 0.0
C1091 C 0.1474 0.47446 0.50323 0.0
C1092 C 0.14758 0.46669 0.54044 0.0
C1093 C 0.14152 0.47165 0.52283 0.0
C1094 C 0.1655 0.46743 0.51912 0.0
C1095 C 0.15964 0.46447 0.53877 0.0
C1096 C 0.15942 0.47238 0.50151 0.0
C1097 C 0.11675 0.49625 0.41747 0.0
C1098 C 0.13017 0.49211 0.38746 0.0
C1099 C 0.11309 0.50379 0.38081 0.0
C1100 C 0.10995 0.50277 0.40298 0.0
C1101 C 0.1231 0.4983 0.37268 0.0
C1102 C 0.12699 0.49106 0.40973 0.0
C1103 C 0.11248 0.49448 0.44008 0.0
O1104 O 0.10665 0.47735 0.49824 0.0
O1105 O 0.1117 0.49464 0.50775 0.0
O1106 O 0.11699 0.50103 0.45541 0.0
O1107 O 0.11128 0.48384 0.44634 0.0
H1108 H 0.09155 0.49551 0.47787 0.0
H1109 H 0.07075 0.50024 0.47841 0.0
H1110 H 0.06858 0.48879 0.54621 0.0
H1111 H 0.08942 0.48388 0.54533 0.0
H1112 H 0.14277 0.46439 0.55519 0.0
H1113 H 0.13222 0.4732 0.52441 0.0
H1114 H 0.1748 0.466 0.51738 0.0
H1115 H 0.16409 0.47455 0.48651 0.0
H1116 H 0.13791 0.48774 0.38165 0.0
H1117 H 0.10758 0.50878 0.36994 0.0
H1118 H 0.10204 0.50686 0.40872 0.0
H1119 H 0.13233 0.48598 0.42075 0.0
C1120 C 0.27202 0.67156 0.25324 0.0
C1121 C 0.26759 0.67656 0.27248 0.0
C1122 C 0.26679 0.69497 0.25402 0.0
C1123 C 0.26499 0.68816 0.27287 0.0
C1124 C 0.27117 0.68987 0.23472 0.0
C1125 C 0.27377 0.67825 0.23436 0.0
U1126 U 0.27418 0.64367 0.28376 0.0
O1127 O 0.26997 0.62618 0.27363 0.0
O1128 O 0.2878 0.63053 0.28409 0.0
C1129 C 0.28089 0.62281 0.27536 0.0
C1130 C 0.27497 0.65942 0.25303 0.0
C1131 C 0.28563 0.61685 0.25604 0.0
C1132 C 0.29558 0.61704 0.22057 0.0
C1133 C 0.29075 0.62287 0.23848 0.0
C1134 C 0.28995 0.59912 0.23734 0.0
C1135 C 0.29532 0.60508 0.21985 0.0
C1136 C 0.28517 0.60496 0.25526 0.0
C1137 C 0.26498 0.64434 0.34509 0.0
C1138 C 0.2706 0.63118 0.37425 0.0
C1139 C 0.25559 0.64526 0.38097 0.0
C1140 C 0.25679 0.64923 0.35934 0.0
C1141 C 0.2626 0.63629 0.38881 0.0
C1142 C 0.27176 0.63515 0.35253 0.0
C1143 C 0.26673 0.64944 0.32314 0.0
O1144 O 0.28403 0.65662 0.2652 0.0
O1145 O 0.26605 0.65247 0.25557 0.0
O1146 O 0.25972 0.64591 0.3074 0.0
O1147 O 0.27764 0.6506 0.3167 0.0
H1148 H 0.26617 0.67149 0.28721 0.0
H1149 H 0.26148 0.69177 0.28789 0.0
H1150 H 0.27277 0.69489 0.22001 0.0
H1151 H 0.27723 0.67452 0.2194 0.0
H1152 H 0.29975 0.6219 0.20755 0.0
H1153 H 0.29115 0.63207 0.23876 0.0
H1154 H 0.2894 0.58994 0.23717 0.0
H1155 H 0.28118 0.60018 0.26861 0.0
H1156 H 0.27603 0.62418 0.37971 0.0
H1157 H 0.24947 0.6495 0.3918 0.0
H1158 H 0.25151 0.65636 0.3539 0.0
H1159 H 0.27811 0.63122 0.34171 0.0
C1160 C 0.09231 0.52355 1.00419 0.0
C1161 C 0.08705 0.51881 0.02301 0.0
C1162 C 0.06824 0.51835 1.00423 0.0
C1163 C 0.07513 0.51623 0.02304 0.0
C1164 C 0.07359 0.52302 0.98533 0.0
C1165 C 0.08554 0.52561 0.98534 0.0
U1166 U 0.12089 0.52489 0.03508 0.0
O1167 O 0.13894 0.5213 0.02468 0.0
O1168 O 0.13431 0.53824 0.03688 0.0
C1169 C 0.14232 0.53188 0.02752 0.0
C1170 C 0.10479 0.52651 1.00441 0.0
C1171 C 0.14835 0.5371 0.00861 0.0
C1172 C 0.14795 0.54538 0.97182 0.0
C1173 C 0.14214 0.54025 0.98959 0.0
C1174 C 0.16624 0.54414 0.99187 0.0
C1175 C 0.16007 0.54743 0.97277 0.0
C1176 C 0.16042 0.53903 0.00962 0.0
C1177 C 0.1202 0.51384 0.09522 0.0
C1178 C 0.13241 0.51912 0.12642 0.0
C1179 C 0.12023 0.50229 0.12851 0.0
C1180 C 0.11627 0.50433 0.10706 0.0
C1181 C 0.1282 0.50976 0.1386 0.0
C1182 C 0.12848 0.52113 0.10486 0.0
C1183 C 0.11495 0.51629 0.07353 0.0
O1184 O 0.10756 0.53493 0.01761 0.0
O1185 O 0.11197 0.51784 0.00599 0.0
O1186 O 0.11859 0.51004 0.05696 0.0
O1187 O 0.11367 0.52708 0.06837 0.0
H1188 H 0.09218 0.51714 0.03772 0.0
H1189 H 0.07132 0.51249 0.03775 0.0
H1190 H 0.06851 0.52487 0.97066 0.0
H1191 H 0.08947 0.52931 0.97069 0.0
H1192 H 0.1429 0.54792 0.9575 0.0
H1193 H 0.1328 0.53882 0.98857 0.0
H1194 H 0.17559 0.54544 0.99303 0.0
H1195 H 0.16535 0.53659 0.02417 0.0
H1196 H 0.13864 0.52495 0.13366 0.0
H1197 H 0.11668 0.4951 0.1375 0.0
H1198 H 0.10985 0.49864 0.09992 0.0
H1199 H 0.13169 0.52849 0.09595 0.0
C1200 C 0.2407 0.34107 0.75168 0.0
C1201 C 0.24542 0.33583 0.7705 0.0
C1202 C 0.24575 0.31762 0.75153 0.0
C1203 C 0.24793 0.32421 0.77043 0.0
C1204 C 0.2411 0.32296 0.73263 0.0
C1205 C 0.23859 0.3346 0.73273 0.0
U1206 U 0.23904 0.36868 0.78299 0.0
O1207 O 0.24302 0.38627 0.77302 0.0
O1208 O 0.22537 0.38177 0.78425 0.0
C1209 C 0.23213 0.38959 0.77535 0.0
C1210 C 0.23777 0.35322 0.752 0.0
C1211 C 0.22711 0.3956 0.75629 0.0
C1212 C 0.21915 0.39551 0.7191 0.0
C1213 C 0.22411 0.38972 0.737 0.0
C1214 C 0.22025 0.41314 0.73954 0.0
C1215 C 0.21712 0.4073 0.72018 0.0
C1216 C 0.2252 0.40734 0.75743 0.0
C1217 C 0.24933 0.36768 0.84368 0.0
C1218 C 0.24357 0.37977 0.87428 0.0
C1219 C 0.2604 0.36743 0.87787 0.0
C1220 C 0.25867 0.36358 0.85633 0.0
C1221 C 0.25277 0.37544 0.88724 0.0
C1222 C 0.24188 0.37595 0.85264 0.0
C1223 C 0.24718 0.36267 0.82182 0.0
O1224 O 0.22891 0.35588 0.76479 0.0
O1225 O 0.24672 0.36014 0.75418 0.0
O1226 O 0.25392 0.36627 0.80566 0.0
O1227 O 0.23617 0.36149 0.81603 0.0
H1228 H 0.24712 0.34073 0.78527 0.0
H1229 H 0.25165 0.32041 0.78514 0.0
H1230 H 0.2392 0.31811 0.7179 0.0
H1231 H 0.2349 0.33852 0.7181 0.0
H1232 H 0.21672 0.39072 0.70458 0.0
H1233 H 0.22553 0.38064 0.73588 0.0
H1234 H 0.21897 0.42223 0.74083 0.0
H1235 H 0.22751 0.41201 0.77218 0.0
H1236 H 0.23762 0.38604 0.88094 0.0
H1237 H 0.26748 0.3638 0.88747 0.0
H1238 H 0.26448 0.35717 0.84973 0.0
H1239 H 0.23464 0.37928 0.84309 0.0
C1240 C 0.37077 0.48575 0.59565 0.0
C1241 C 0.3809 0.488 0.60794 0.0
C1242 C 0.36912 0.4918 0.6406 0.0
C1243 C 0.38009 0.49096 0.6302 0.0
C1244 C 0.35898 0.48954 0.62815 0.0
C1245 C 0.35981 0.48654 0.60585 0.0
U1246 U 0.3895 0.48322 0.54489 0.0
O1247 O 0.39086 0.46999 0.51953 0.0
O1248 O 0.38623 0.48744 0.50998 0.0
C1249 C 0.38758 0.47687 0.50354 0.0
C1250 C 0.3717 0.48274 0.57217 0.0
C1251 C 0.37856 0.47246 0.48853 0.0
C1252 C 0.35979 0.4634 0.48171 0.0
C1253 C 0.36803 0.46786 0.49647 0.0
C1254 C 0.37248 0.46826 0.45105 0.0
C1255 C 0.36195 0.46352 0.4588 0.0
C1256 C 0.38069 0.47268 0.46578 0.0
C1257 C 0.42177 0.49208 0.5514 0.0
C1258 C 0.43963 0.48502 0.53451 0.0
C1259 C 0.43895 0.5042 0.54882 0.0
C1260 C 0.42733 0.50252 0.55519 0.0
C1261 C 0.44528 0.49542 0.53868 0.0
C1262 C 0.42797 0.48337 0.54073 0.0
C1263 C 0.40976 0.49035 0.55974 0.0
O1264 O 0.37382 0.49133 0.55881 0.0
O1265 O 0.37823 0.47381 0.56802 0.0
O1266 O 0.40614 0.47978 0.56168 0.0
O1267 O 0.40176 0.49723 0.55177 0.0
H1268 H 0.38945 0.48744 0.60031 0.0
H1269 H 0.38808 0.49247 0.63932 0.0
H1270 H 0.35039 0.49024 0.63554 0.0
H1271 H 0.3519 0.48489 0.59654 0.0
H1272 H 0.35173 0.45991 0.4882 0.0
H1273 H 0.36623 0.46767 0.51402 0.0
H1274 H 0.37452 0.46834 0.43359 0.0
H1275 H 0.38879 0.47617 0.45938 0.0
H1276 H 0.44425 0.47814 0.52652 0.0
H1277 H 0.44309 0.51226 0.55247 0.0
H1278 H 0.42274 0.50933 0.56348 0.0
H1279 H 0.42388 0.47524 0.53748 0.0
C1280 C 0.24606 0.14865 0.42748 0.0
C1281 C 0.24747 0.13975 0.41232 0.0
C1282 C 0.24658 0.14658 0.45014 0.0
C1283 C 0.25836 0.12687 0.49145 0.0
H1284 H 0.237 0.14275 0.53028 0.0
C1285 C 0.26751 0.13476 0.58401 0.0
C1286 C 0.25802 0.13496 0.59877 0.0
C1287 C 0.26567 0.13323 0.56139 0.0
C1288 C 0.24294 0.1381 0.51972 0.0
H1289 H 0.25047 0.12165 0.40908 0.0
H1290 H 0.25138 0.11801 0.44895 0.0
H1291 H 0.23445 0.14413 0.49049 0.0
H1292 H 0.23924 0.1329 0.6015 0.0
H1293 H 0.23602 0.13019 0.56204 0.0
H1294 H 0.26693 0.12094 0.5208 0.0
C1295 C 0.24992 0.12661 0.44316 0.0
C1296 C 0.24155 0.139 0.49689 0.0
C1297 C 0.24931 0.12867 0.42038 0.0
C1298 C 0.24671 0.133 0.59051 0.0
C1299 C 0.24487 0.13146 0.56791 0.0
C1300 C 0.25978 0.12599 0.51436 0.0
C1301 C 0.24855 0.13555 0.45827 0.0
C1302 C 0.24937 0.13358 0.48248 0.0
C1303 C 0.25429 0.13184 0.55301 0.0
C1304 C 0.25219 0.13175 0.52876 0.0
H1305 H 0.24448 0.15726 0.42181 0.0
H1306 H 0.24564 0.15369 0.46131 0.0
H1307 H 0.26456 0.12263 0.48078 0.0
H1308 H 0.27632 0.13637 0.58978 0.0
H1309 H 0.27311 0.1337 0.55037 0.0
C1310 C 0.1295 0.99177 0.67767 0.0
C1311 C 0.1292 1.00108 0.66308 0.0
C1312 C 0.13146 0.9934 0.70023 0.0
C1313 C 0.12815 0.01536 0.74285 0.0
H1314 H 0.14493 0.99381 0.77957 0.0
C1315 C 0.13137 0.02137 0.83692 0.0
C1316 C 0.12892 0.01167 0.84973 0.0
C1317 C 0.13344 0.02043 0.81424 0.0
C1318 C 0.14018 0.99988 0.76954 0.0
H1319 H 0.13142 0.01934 0.66056 0.0
H1320 H 0.13493 0.02218 0.69989 0.0
H1321 H 0.14498 0.99154 0.73949 0.0
H1322 H 0.12736 0.99331 0.84896 0.0
H1323 H 0.13076 0.99168 0.80937 0.0
H1324 H 0.12314 0.02357 0.77281 0.0
C1325 C 0.1334 0.01364 0.69397 0.0
C1326 C 0.1402 0.99858 0.74658 0.0
C1327 C 0.1314 0.01201 0.67143 0.0
C1328 C 0.12907 1.00096 0.83951 0.0
C1329 C 0.13115 1.00002 0.81684 0.0
C1330 C 0.12814 0.01667 0.76576 0.0
C1331 C 0.13321 1.00438 0.70872 0.0
C1332 C 0.13405 0.00622 0.73297 0.0
C1333 C 0.13311 0.00977 0.80385 0.0
C1334 C 0.13402 0.00886 0.77941 0.0
H1335 H 0.1277 0.98326 0.67183 0.0
H1336 H 0.13111 0.98609 0.71112 0.0
H1337 H 0.12315 0.0213 0.73294 0.0
H1338 H 0.13124 0.02976 0.84423 0.0
H1339 H 0.13507 0.02809 0.80476 0.0
C1340 C 0.2635 0.86238 0.93032 0.0
C1341 C 0.26231 0.87131 0.91502 0.0
C1342 C 0.26293 0.86446 0.95295 0.0
C1343 C 0.25142 0.88433 0.99393 0.0
H1344 H 0.27265 0.86829 0.03299 0.0
C1345 C 0.2424 0.87669 0.08678 0.0
C1346 C 0.25193 0.87648 0.10143 0.0
C1347 C 0.24419 0.87815 0.0641 0.0
C1348 C 0.26675 0.87298 0.02236 0.0
H1349 H 0.25962 0.88945 0.91148 0.0
H1350 H 0.25861 0.89311 0.95129 0.0
H1351 H 0.27513 0.86681 0.99322 0.0
H1352 H 0.27073 0.87845 0.10392 0.0
H1353 H 0.27385 0.88102 0.06437 0.0
H1354 H 0.24296 0.89039 0.02319 0.0
C1355 C 0.25995 0.88449 0.94564 0.0
C1356 C 0.2681 0.87202 0.99954 0.0
C1357 C 0.26061 0.88241 0.92289 0.0
C1358 C 0.26322 0.87835 0.09302 0.0
C1359 C 0.26501 0.87983 0.07036 0.0
C1360 C 0.25004 0.88526 0.01682 0.0
C1361 C 0.26113 0.87552 0.96089 0.0
C1362 C 0.26033 0.87751 0.98506 0.0
C1363 C 0.25555 0.87945 0.05557 0.0
C1364 C 0.25759 0.87945 0.0313 0.0
H1365 H 0.26497 0.85375 0.9248 0.0
H1366 H 0.26373 0.85734 0.96424 0.0
H1367 H 0.24526 0.88862 0.98318 0.0
H1368 H 0.23359 0.87515 0.09267 0.0
H1369 H 0.23671 0.8777 0.05316 0.0
C1370 C 0.38044 0.01986 0.17773 0.0
C1371 C 0.38052 0.01063 0.16304 0.0
C1372 C 0.3785 0.01811 0.20029 0.0
C1373 C 0.38164 0.99584 0.24263 0.0
H1374 H 0.36519 0.01729 0.27979 0.0
C1375 C 0.37879 0.98923 0.33669 0.0
C1376 C 0.38129 0.99884 0.34958 0.0
C1377 C 0.37664 0.99033 0.31405 0.0
C1378 C 0.36985 0.01125 0.26963 0.0
H1379 H 0.37793 0.99244 0.16036 0.0
H1380 H 0.37449 0.9894 0.1997 0.0
H1381 H 0.36506 0.01985 0.23974 0.0
H1382 H 0.38284 0.01721 0.34899 0.0
H1383 H 0.37932 0.01911 0.30948 0.0
H1384 H 0.38668 0.98739 0.27242 0.0
C1385 C 0.37617 0.99795 0.19385 0.0
C1386 C 0.36978 0.01272 0.24669 0.0
C1387 C 0.37812 0.99969 0.1713 0.0
C1388 C 0.3811 0.00961 0.33948 0.0
C1389 C 0.37895 0.01071 0.31685 0.0
C1390 C 0.38171 0.99438 0.26552 0.0
C1391 C 0.37658 0.00711 0.20869 0.0
C1392 C 0.3758 1.00511 0.23293 0.0
C1393 C 0.37694 1.00106 0.30377 0.0
C1394 C 0.37595 1.00214 0.27934 0.0
H1395 H 0.38239 0.02837 0.17196 0.0
H1396 H 0.37902 0.02534 0.21127 0.0
H1397 H 0.38654 0.98993 0.23258 0.0
H1398 H 0.37894 0.98079 0.3439 0.0
H1399 H 0.37496 0.98273 0.30451 0.0
C1400 C 0.74249 0.87457 0.42502 0.0
C1401 C 0.75225 0.87438 0.4109 0.0
C1402 C 0.7439 0.87636 0.44767 0.0
C1403 C 0.76597 0.873 0.49139 0.0
H1404 H 0.74344 0.8893 0.52707 0.0
C1405 C 0.7712 0.8761 0.58573 0.0
C1406 C 0.76108 0.87381 0.59816 0.0
C1407 C 0.77047 0.87806 0.56298 0.0
C1408 C 0.74978 0.88468 0.51734 0.0
H1409 H 0.77105 0.8766 0.40934 0.0
H1410 H 0.7735 0.87979 0.44885 0.0
H1411 H 0.74154 0.8894 0.4869 0.0
H1412 H 0.7422 0.8724 0.59661 0.0
H1413 H 0.74093 0.87561 0.55691 0.0
H1414 H 0.77408 0.86806 0.52174 0.0
C1415 C 0.76478 0.87831 0.44247 0.0
C1416 C 0.74869 0.88473 0.49432 0.0
C1417 C 0.76338 0.8765 0.41983 0.0
C1418 C 0.75017 0.87399 0.58746 0.0
C1419 C 0.74944 0.87596 0.56473 0.0
C1420 C 0.76707 0.87295 0.51436 0.0
C1421 C 0.75508 0.87804 0.45674 0.0
C1422 C 0.75669 0.87877 0.48109 0.0
C1423 C 0.7596 0.87779 0.55213 0.0
C1424 C 0.75891 0.87867 0.52765 0.0
H1425 H 0.73381 0.87283 0.41872 0.0
H1426 H 0.73625 0.87596 0.4582 0.0
H1427 H 0.77218 0.86815 0.48177 0.0
H1428 H 0.77975 0.87595 0.5934 0.0
H1429 H 0.77845 0.8796 0.55382 0.0
C1430 C 0.87471 0.98726 0.18029 0.0
C1431 C 0.86692 0.99203 0.16489 0.0
C1432 C 0.87403 0.99013 0.20262 0.0
C1433 C 0.86362 0.01252 0.23999 0.0
H1434 H 0.8673 0.98929 0.28502 0.0
C1435 C 0.859 0.02245 0.33317 0.0
C1436 C 0.86705 0.01723 0.3475 0.0
C1437 C 0.8583 0.01921 0.31099 0.0
C1438 C 0.86638 0.99591 0.27267 0.0
H1439 H 0.85232 1.00358 0.16089 0.0
H1440 H 0.85109 0.00855 0.19998 0.0
H1441 H 0.86736 0.98395 0.24618 0.0
H1442 H 0.88051 1.00429 0.34976 0.0
H1443 H 0.87953 0.99889 0.3111 0.0
H1444 H 0.86284 0.02451 0.26643 0.0
C1445 C 0.85775 1.00262 0.19471 0.0
C1446 C 0.86639 0.99284 0.2504 0.0
C1447 C 0.85838 0.99969 0.17237 0.0
C1448 C 0.87431 0.00861 0.33915 0.0
C1449 C 0.87363 1.0054 0.317 0.0
C1450 C 0.86366 0.01561 0.26228 0.0
C1451 C 0.86558 0.99788 0.21009 0.0
C1452 C 0.8651 1.00111 0.23379 0.0
C1453 C 0.86564 0.01067 0.30261 0.0
C1454 C 0.86513 0.00735 0.27891 0.0
H1455 H 0.88131 0.98125 0.17509 0.0
H1456 H 0.88027 0.98641 0.21399 0.0
H1457 H 0.86275 0.01912 0.22758 0.0
H1458 H 0.85334 0.02917 0.33898 0.0
H1459 H 0.85195 0.02336 0.30045 0.0
C1460 C 0.74829 0.135 0.92238 0.0
C1461 C 0.75945 0.13697 0.91344 0.0
C1462 C 0.74684 0.1332 0.94504 0.0
C1463 C 0.76283 0.12657 0.99702 0.0
H1464 H 0.73762 0.14353 0.02416 0.0
C1465 C 0.76147 0.13738 0.08996 0.0
C1466 C 0.75057 0.13767 0.10067 0.0
C1467 C 0.76217 0.1354 0.06726 0.0
C1468 C 0.74458 0.13857 0.01686 0.0
H1469 H 0.7779 0.1383 0.92129 0.0
H1470 H 0.77539 0.1352 0.9608 0.0
H1471 H 0.73954 0.14342 0.98419 0.0
H1472 H 0.73188 0.13571 0.09599 0.0
H1473 H 0.73312 0.13204 0.05645 0.0
H1474 H 0.76801 0.12196 0.02984 0.0
C1475 C 0.76775 0.13489 0.95027 0.0
C1476 C 0.74568 0.1385 0.99389 0.0
C1477 C 0.76919 0.13667 0.92759 0.0
C1478 C 0.74042 0.13547 0.08829 0.0
C1479 C 0.74112 0.1335 0.06558 0.0
C1480 C 0.76173 0.12664 0.02003 0.0
C1481 C 0.75653 0.13335 0.95933 0.0
C1482 C 0.7549 0.13262 0.98368 0.0
C1483 C 0.75199 0.13366 0.05471 0.0
C1484 C 0.75267 0.13276 0.03024 0.0
H1485 H 0.74063 0.135 0.91186 0.0
H1486 H 0.73811 0.13182 0.95141 0.0
H1487 H 0.76993 0.12183 0.98967 0.0
H1488 H 0.76946 0.1389 0.09906 0.0
H1489 H 0.77068 0.13567 0.05942 0.0
C1490 C 0.63127 0.01992 0.67731 0.0
C1491 C 0.63124 0.0106 0.66284 0.0
C1492 C 0.63322 0.01833 0.6999 0.0
C1493 C 0.63021 0.9963 0.74275 0.0
H1494 H 0.64655 0.01811 0.77938 0.0
C1495 C 0.6331 0.9903 0.83695 0.0
C1496 C 0.63054 0.99998 0.8496 0.0
C1497 C 0.63524 0.99127 0.81429 0.0
C1498 C 0.64192 0.01197 0.76938 0.0
H1499 H 0.63394 0.99241 0.66058 0.0
H1500 H 0.6374 0.98965 0.69999 0.0
H1501 H 0.64666 0.02042 0.73928 0.0
H1502 H 0.6289 0.01833 0.84856 0.0
H1503 H 0.6324 0.02 0.80901 0.0
H1504 H 0.62522 0.98799 0.77275 0.0
C1505 C 0.63567 0.99815 0.69393 0.0
C1506 C 0.64199 0.01329 0.7464 0.0
C1507 C 0.6337 0.99973 0.67135 0.0
C1508 C 0.63068 0.01069 0.83924 0.0
C1509 C 0.63282 0.01166 0.81659 0.0
C1510 C 0.63015 0.99498 0.76567 0.0
C1511 C 0.6352 0.00739 0.70855 0.0
C1512 C 0.636 1.00555 0.73283 0.0
C1513 C 0.63489 1.00194 0.80375 0.0
C1514 C 0.63587 1.00287 0.7793 0.0
H1515 H 0.62926 0.02838 0.67134 0.0
H1516 H 0.63266 0.02562 0.71071 0.0
H1517 H 0.62534 0.99029 0.73285 0.0
H1518 H 0.63299 0.98192 0.84437 0.0
H1519 H 0.63696 0.98363 0.80494 0.0
C1520 C 0.75996 0.62451 0.09027 0.0
C1521 C 0.76136 0.63565 0.09817 0.0
C1522 C 0.75966 0.6224 0.06752 0.0
C1523 C 0.76843 0.63494 0.01402 0.0
H1524 H 0.74395 0.61612 0.98907 0.0
C1525 C 0.76503 0.62862 0.92033 0.0
C1526 C 0.75383 0.63032 0.91137 0.0
C1527 C 0.76652 0.62712 0.94306 0.0
C1528 C 0.75085 0.62138 0.99581 0.0
H1529 H 0.76385 0.65324 0.08842 0.0
H1530 H 0.76324 0.64959 0.04896 0.0
H1531 H 0.74562 0.61795 0.02919 0.0
H1532 H 0.73536 0.63131 0.91921 0.0
H1533 H 0.73795 0.62872 0.95884 0.0
H1534 H 0.77343 0.63874 0.98082 0.0
C1535 C 0.7624 0.64247 0.06025 0.0
C1536 C 0.75187 0.62234 0.01877 0.0
C1537 C 0.76261 0.64458 0.08288 0.0
C1538 C 0.7441 0.62991 0.92553 0.0
C1539 C 0.74558 0.62841 0.94828 0.0
C1540 C 0.76745 0.63395 0.99114 0.0
C1541 C 0.76091 0.63137 0.05228 0.0
C1542 C 0.76052 0.62933 0.02809 0.0
C1543 C 0.75684 0.6273 0.95737 0.0
C1544 C 0.75853 0.62732 0.98173 0.0
H1545 H 0.75894 0.61747 0.10167 0.0
H1546 H 0.75856 0.61374 0.06184 0.0
H1547 H 0.77528 0.64028 0.02071 0.0
H1548 H 0.77269 0.62869 0.90981 0.0
H1549 H 0.77528 0.62607 0.94949 0.0
C1550 C 0.63246 0.49382 0.17584 0.0
C1551 C 0.63223 0.50324 0.1615 0.0
C1552 C 0.63401 0.49531 0.19855 0.0
C1553 C 0.62884 0.51682 0.24108 0.0
H1554 H 0.64471 0.49532 0.27936 0.0
C1555 C 0.61771 0.51254 0.33294 0.0
C1556 C 0.62684 0.51104 0.34821 0.0
C1557 C 0.61991 0.5123 0.3103 0.0
C1558 C 0.64037 0.50147 0.26888 0.0
H1559 H 0.63429 0.52154 0.1596 0.0
H1560 H 0.63704 0.52414 0.1992 0.0
H1561 H 0.64657 0.49357 0.23927 0.0
H1562 H 0.64545 0.50815 0.35167 0.0
H1563 H 0.64933 0.50773 0.31184 0.0
H1564 H 0.62253 0.52465 0.27056 0.0
C1565 C 0.63577 0.51561 0.19295 0.0
C1566 C 0.64133 0.50041 0.24593 0.0
C1567 C 0.6342 0.51413 0.17026 0.0
C1568 C 0.63826 0.50937 0.34028 0.0
C1569 C 0.64046 0.50905 0.31752 0.0
C1570 C 0.62784 0.51785 0.26395 0.0
C1571 C 0.63539 0.50625 0.20743 0.0
C1572 C 0.63542 0.50797 0.23176 0.0
C1573 C 0.63129 0.51053 0.3023 0.0
C1574 C 0.6334 0.51007 0.27811 0.0
H1575 H 0.63085 0.48534 0.16967 0.0
H1576 H 0.63354 0.48792 0.20924 0.0
H1577 H 0.62407 0.52272 0.2307 0.0
H1578 H 0.60884 0.51399 0.3385 0.0
H1579 H 0.61263 0.51332 0.29903 0.0
C1580 C 0.74737 0.3664 0.58299 0.0
C1581 C 0.74912 0.37518 0.5983 0.0
C1582 C 0.74764 0.36862 0.56036 0.0
C1583 C 0.7592 0.38848 0.51903 0.0
H1584 H 0.73721 0.37299 0.48078 0.0
C1585 C 0.76731 0.38085 0.42611 0.0
C1586 C 0.75768 0.38073 0.41169 0.0
C1587 C 0.7657 0.38237 0.44879 0.0
C1588 C 0.74332 0.37754 0.49117 0.0
H1589 H 0.75246 0.39321 0.60185 0.0
H1590 H 0.75291 0.39712 0.56204 0.0
H1591 H 0.73507 0.37144 0.52062 0.0
H1592 H 0.73889 0.38288 0.40961 0.0
H1593 H 0.73607 0.38558 0.44918 0.0
H1594 H 0.76751 0.39448 0.48947 0.0
C1595 C 0.75138 0.3885 0.56768 0.0
C1596 C 0.74217 0.37653 0.51404 0.0
C1597 C 0.75103 0.38629 0.59043 0.0
C1598 C 0.74647 0.38273 0.42034 0.0
C1599 C 0.74485 0.38427 0.443 0.0
C1600 C 0.76037 0.38947 0.49609 0.0
C1601 C 0.74967 0.37967 0.55242 0.0
C1602 C 0.75023 0.3818 0.52823 0.0
C1603 C 0.75441 0.38381 0.45758 0.0
C1604 C 0.75255 0.38384 0.48189 0.0
H1605 H 0.74572 0.35778 0.58851 0.0
H1606 H 0.74644 0.3616 0.54906 0.0
H1607 H 0.76557 0.3926 0.52954 0.0
H1608 H 0.77605 0.37921 0.42003 0.0
H1609 H 0.77324 0.38184 0.45955 0.0
C1610 C 0.88509 0.49988 0.67495 0.0
C1611 C 0.88074 0.50901 0.66237 0.0
C1612 C 0.88235 0.49884 0.69732 0.0
C1613 C 0.87349 0.51648 0.74458 0.0
H1614 H 0.87304 0.48728 0.77442 0.0
C1615 C 0.88642 0.51143 0.83552 0.0
C1616 C 0.88155 0.50265 0.84837 0.0
C1617 C 0.88354 0.51258 0.81324 0.0
C1618 C 0.87292 0.49552 0.76643 0.0
H1619 H 0.86957 0.52387 0.66327 0.0
H1620 H 0.86448 0.52185 0.70223 0.0
H1621 H 0.87242 0.48803 0.73433 0.0
H1622 H 0.86936 0.48852 0.84804 0.0
H1623 H 0.86406 0.49074 0.80922 0.0
H1624 H 0.87389 0.52397 0.77668 0.0
C1625 C 0.87025 0.51564 0.69487 0.0
C1626 C 0.87273 0.49595 0.74336 0.0
C1627 C 0.87305 0.51672 0.67245 0.0
C1628 C 0.87326 0.49539 0.83864 0.0
C1629 C 0.87032 0.49659 0.81631 0.0
C1630 C 0.87356 0.51605 0.76765 0.0
C1631 C 0.87509 0.50683 0.70772 0.0
C1632 C 0.8734 0.50641 0.73212 0.0
C1633 C 0.87562 0.50505 0.8032 0.0
C1634 C 0.87366 0.50556 0.77887 0.0
H1635 H 0.89087 0.49366 0.66762 0.0
H1636 H 0.88636 0.49201 0.70663 0.0
H1637 H 0.87407 0.5247 0.73659 0.0
H1638 H 0.89268 0.5173 0.84257 0.0
H1639 H 0.88792 0.51913 0.80371 0.0
C1640 C 0.24422 0.37921 0.92468 0.0
C1641 C 0.25406 0.37868 0.91082 0.0
C1642 C 0.24552 0.38105 0.94734 0.0
C1643 C 0.26718 0.37722 0.99167 0.0
H1644 H 0.24484 0.39421 0.02657 0.0
C1645 C 0.27175 0.38036 0.0861 0.0
C1646 C 0.26148 0.37831 0.09823 0.0
C1647 C 0.27125 0.38233 0.06333 0.0
C1648 C 0.25113 0.3894 0.01705 0.0
H1649 H 0.27293 0.38032 0.90971 0.0
H1650 H 0.2752 0.38362 0.94923 0.0
H1651 H 0.24325 0.39426 0.98635 0.0
H1652 H 0.24258 0.37736 0.09614 0.0
H1653 H 0.24171 0.3806 0.05641 0.0
H1654 H 0.27491 0.37215 0.02228 0.0
C1655 C 0.26649 0.38237 0.94265 0.0
C1656 C 0.25021 0.38942 0.99401 0.0
C1657 C 0.26519 0.3805 0.92 0.0
C1658 C 0.25066 0.37876 0.08723 0.0
C1659 C 0.25016 0.38075 0.06447 0.0
C1660 C 0.26809 0.3772 0.01466 0.0
C1661 C 0.25669 0.38244 0.95667 0.0
C1662 C 0.25814 0.38321 0.98105 0.0
C1663 C 0.26047 0.38232 0.05217 0.0
C1664 C 0.26 0.38317 0.02766 0.0
H1665 H 0.23553 0.3777 0.91819 0.0
H1666 H 0.23779 0.38091 0.95767 0.0
H1667 H 0.27331 0.37218 0.98226 0.0
H1668 H 0.28023 0.38 0.09401 0.0
H1669 H 0.27934 0.38366 0.05439 0.0
C1670 C 0.36045 0.50985 0.84051 0.0
C1671 C 0.36907 0.51732 0.84842 0.0
C1672 C 0.3598 0.50724 0.81801 0.0
C1673 C 0.36857 0.51781 0.76292 0.0
H1674 H 0.36436 0.48648 0.74494 0.0
C1675 C 0.3758 0.50339 0.67305 0.0
C1676 C 0.36832 0.49505 0.66431 0.0
C1677 C 0.3753 0.50625 0.6954 0.0
C1678 C 0.36537 0.4953 0.74965 0.0
H1679 H 0.38362 0.52809 0.83883 0.0
H1680 H 0.38256 0.52348 0.79967 0.0
H1681 H 0.36448 0.49122 0.78412 0.0
H1682 H 0.3544 0.4832 0.67235 0.0
H1683 H 0.35332 0.4884 0.71124 0.0
H1684 H 0.36945 0.52191 0.72853 0.0
C1685 C 0.37626 0.51966 0.81083 0.0
C1686 C 0.36545 0.49801 0.77212 0.0
C1687 C 0.37695 0.52221 0.8333 0.0
C1688 C 0.36022 0.48974 0.67847 0.0
C1689 C 0.3597 0.49262 0.70084 0.0
C1690 C 0.36844 0.51511 0.74047 0.0
C1691 C 0.36771 0.51212 0.80291 0.0
C1692 C 0.36715 0.50928 0.77902 0.0
C1693 C 0.36727 0.50088 0.70962 0.0
C1694 C 0.36693 0.50381 0.73353 0.0
H1695 H 0.35431 0.50587 0.85176 0.0
H1696 H 0.35306 0.50146 0.81242 0.0
H1697 H 0.36971 0.5266 0.76768 0.0
H1698 H 0.38204 0.50777 0.6626 0.0
H1699 H 0.38135 0.51256 0.7016 0.0
C1700 C 0.24467 0.6319 0.5859 0.0
C1701 C 0.2545 0.63255 0.59978 0.0
C1702 C 0.246 0.63002 0.56326 0.0
C1703 C 0.26767 0.63398 0.51898 0.0
H1704 H 0.24546 0.61677 0.4841 0.0
C1705 C 0.27227 0.63087 0.42456 0.0
C1706 C 0.26198 0.63284 0.41244 0.0
C1707 C 0.27178 0.62888 0.44732 0.0
C1708 C 0.25171 0.62164 0.49362 0.0
H1709 H 0.27338 0.63106 0.60096 0.0
H1710 H 0.2757 0.6277 0.56147 0.0
H1711 H 0.24385 0.61673 0.52433 0.0
H1712 H 0.24308 0.63363 0.41455 0.0
H1713 H 0.24224 0.63036 0.45428 0.0
H1714 H 0.27538 0.6391 0.48837 0.0
C1715 C 0.26698 0.62889 0.56802 0.0
C1716 C 0.25079 0.62162 0.51666 0.0
C1717 C 0.26565 0.6308 0.59064 0.0
C1718 C 0.25117 0.63229 0.42345 0.0
C1719 C 0.25069 0.63029 0.4462 0.0
C1720 C 0.2686 0.63399 0.49599 0.0
C1721 C 0.25719 0.62871 0.55397 0.0
C1722 C 0.25867 0.62792 0.52961 0.0
C1723 C 0.261 0.6288 0.45849 0.0
C1724 C 0.26054 0.62794 0.483 0.0
H1725 H 0.23597 0.63335 0.59236 0.0
H1726 H 0.23828 0.63007 0.55291 0.0
H1727 H 0.27377 0.63908 0.52838 0.0
H1728 H 0.28075 0.63131 0.41664 0.0
H1729 H 0.27988 0.62761 0.45625 0.0
C1730 C 0.11666 0.49705 0.33331 0.0
C1731 C 0.12573 0.49861 0.34867 0.0
C1732 C 0.1189 0.49748 0.3107 0.0
C1733 C 0.1393 0.50897 0.26963 0.0
H1734 H 0.12332 0.48786 0.23092 0.0
C1735 C 0.13149 0.51741 0.17673 0.0
C1736 C 0.13141 0.50813 0.16219 0.0
C1737 C 0.13301 0.51572 0.19942 0.0
C1738 C 0.12801 0.49373 0.24144 0.0
H1739 H 0.1443 0.50177 0.35231 0.0
H1740 H 0.14825 0.5025 0.31252 0.0
H1741 H 0.12174 0.48553 0.27072 0.0
H1742 H 0.13366 0.48988 0.15988 0.0
H1743 H 0.13636 0.48693 0.19945 0.0
H1744 H 0.14547 0.51723 0.24023 0.0
C1745 C 0.13939 0.501 0.31812 0.0
C1746 C 0.12699 0.49247 0.26429 0.0
C1747 C 0.13714 0.5005 0.34085 0.0
C1748 C 0.13347 0.49718 0.17071 0.0
C1749 C 0.13501 0.49549 0.19337 0.0
C1750 C 0.1403 0.51026 0.24671 0.0
C1751 C 0.13028 0.49949 0.30281 0.0
C1752 C 0.13242 0.5002 0.27864 0.0
C1753 C 0.1345 0.5047 0.20807 0.0
C1754 C 0.13451 0.50276 0.23235 0.0
H1755 H 0.1078 0.49544 0.33879 0.0
H1756 H 0.11166 0.49642 0.29936 0.0
H1757 H 0.14356 0.51509 0.28026 0.0
H1758 H 0.1298 0.52593 0.17075 0.0
H1759 H 0.13244 0.52299 0.21027 0.0
C1760 C 0.2113 0.1024 0.18054 0.0
C1761 C 0.20815 0.09991 0.20248 0.0
C1762 C 0.20608 0.09662 0.16296 0.0
C1763 C 0.17981 0.07977 0.14869 0.0
H1764 H 0.19824 0.07078 0.09795 0.0
C1765 C 0.16101 0.05138 0.07959 0.0
C1766 C 0.16377 0.05438 0.05769 0.0
C1767 C 0.1666 0.0567 0.0973 0.0
C1768 C 0.19295 0.07333 0.11191 0.0
H1769 H 0.19697 0.08939 0.22306 0.0
H1770 H 0.18806 0.07916 0.19248 0.0
H1771 H 0.20768 0.08045 0.12873 0.0
H1772 H 0.17453 0.06542 0.03735 0.0
H1773 H 0.1843 0.07465 0.06824 0.0
H1774 H 0.16508 0.07265 0.13187 0.0
C1775 C 0.19448 0.08567 0.18883 0.0
C1776 C 0.19836 0.07889 0.12956 0.0
C1777 C 0.1997 0.09145 0.2064 0.0
C1778 C 0.17232 0.06277 0.05397 0.0
C1779 C 0.17792 0.06807 0.07169 0.0
C1780 C 0.17441 0.0742 0.13107 0.0
C1781 C 0.19757 0.08821 0.16688 0.0
C1782 C 0.19186 0.08219 0.14816 0.0
C1783 C 0.1751 0.06513 0.09358 0.0
C1784 C 0.1809 0.07093 0.11244 0.0
H1785 H 0.21787 0.10877 0.17692 0.0
H1786 H 0.20859 0.09888 0.14627 0.0
H1787 H 0.17449 0.08236 0.16258 0.0
H1788 H 0.15461 0.04482 0.08306 0.0
H1789 H 0.16435 0.0541 0.11395 0.0
C1790 C 0.21056 0.90797 0.33259 0.0
C1791 C 0.20738 0.91064 0.31074 0.0
C1792 C 0.20535 0.91359 0.35036 0.0
C1793 C 0.18905 0.93967 0.36476 0.0
H1794 H 0.17983 0.92235 0.41651 0.0
C1795 C 0.16034 0.95875 0.43388 0.0
C1796 C 0.16311 0.95589 0.45583 0.0
C1797 C 0.16593 0.95335 0.41627 0.0
C1798 C 0.18248 0.92735 0.4023 0.0
H1799 H 0.1961 0.92122 0.29053 0.0
H1800 H 0.18705 0.93101 0.32151 0.0
H1801 H 0.18926 0.91274 0.38572 0.0
H1802 H 0.1739 0.94501 0.4764 0.0
H1803 H 0.18381 0.93578 0.44573 0.0
H1804 H 0.18227 0.95428 0.38133 0.0
C1805 C 0.1937 0.9247 0.32488 0.0
C1806 C 0.18789 0.92183 0.38464 0.0
C1807 C 0.1989 0.91908 0.30712 0.0
C1808 C 0.17164 0.94752 0.45972 0.0
C1809 C 0.17722 0.94212 0.44211 0.0
C1810 C 0.18366 0.94519 0.38244 0.0
C1811 C 0.19685 0.92201 0.34673 0.0
C1812 C 0.19122 0.92792 0.36563 0.0
C1813 C 0.17443 0.94495 0.42016 0.0
C1814 C 0.18028 0.9391 0.40142 0.0
H1815 H 0.21719 0.90165 0.33597 0.0
H1816 H 0.2081 0.91143 0.36696 0.0
H1817 H 0.19167 0.94465 0.35051 0.0
H1818 H 0.15391 0.96524 0.43027 0.0
H1819 H 0.16348 0.95566 0.39958 0.0
C1820 C 0.33848 0.94715 0.55465 0.0
C1821 C 0.34715 0.9554 0.55839 0.0
C1822 C 0.33281 0.94183 0.57235 0.0
C1823 C 0.32648 0.94495 0.63203 0.0
H1824 H 0.32028 0.91259 0.62907 0.0
C1825 C 0.31092 0.91882 0.70763 0.0
C1826 C 0.30231 0.91047 0.70408 0.0
C1827 C 0.31613 0.92447 0.68981 0.0
C1828 C 0.32182 0.92166 0.63006 0.0
H1829 H 0.35652 0.96464 0.58379 0.0
H1830 H 0.3468 0.9552 0.61465 0.0
H1831 H 0.32987 0.9221 0.59818 0.0
H1832 H 0.29229 0.90172 0.67893 0.0
H1833 H 0.30141 0.91154 0.64787 0.0
H1834 H 0.31849 0.94447 0.664 0.0
C1835 C 0.3443 0.95291 0.598 0.0
C1836 C 0.32732 0.92712 0.61234 0.0
C1837 C 0.34997 0.95824 0.5803 0.0
C1838 C 0.29901 0.90796 0.68226 0.0
C1839 C 0.30425 0.9136 0.66445 0.0
C1840 C 0.321 0.93948 0.64978 0.0
C1841 C 0.33566 0.94462 0.59425 0.0
C1842 C 0.32973 0.93883 0.6131 0.0
C1843 C 0.31289 0.9219 0.668 0.0
C1844 C 0.31861 0.92776 0.64902 0.0
H1845 H 0.33617 0.94466 0.53801 0.0
H1846 H 0.32611 0.93557 0.56884 0.0
H1847 H 0.32804 0.95401 0.63304 0.0
H1848 H 0.3138 0.92084 0.72418 0.0
H1849 H 0.32288 0.93069 0.69313 0.0
C1850 C 0.31367 0.10606 0.81801 0.0
C1851 C 0.30327 0.10183 0.80878 0.0
C1852 C 0.31908 0.10041 0.83558 0.0
C1853 C 0.31345 0.07992 0.88066 0.0
H1854 H 0.34714 0.07634 0.88026 0.0
C1855 C 0.33757 0.05204 0.94495 0.0
C1856 C 0.34824 0.05614 0.95323 0.0
C1857 C 0.33205 0.05747 0.92721 0.0
C1858 C 0.33774 0.07738 0.88078 0.0
H1859 H 0.29031 0.08841 0.81105 0.0
H1860 H 0.29982 0.07848 0.84161 0.0
H1861 H 0.33754 0.08615 0.84975 0.0
H1862 H 0.3614 0.06929 0.94952 0.0
H1863 H 0.35177 0.0788 0.91871 0.0
H1864 H 0.31364 0.07122 0.91177 0.0
C1865 C 0.30375 0.08621 0.8353 0.0
C1866 C 0.33224 0.083 0.86327 0.0
C1867 C 0.29837 0.09184 0.81765 0.0
C1868 C 0.35328 0.0658 0.94333 0.0
C1869 C 0.34775 0.07125 0.92564 0.0
C1870 C 0.31895 0.07433 0.89823 0.0
C1871 C 0.3142 0.0904 0.84442 0.0
C1872 C 0.32003 0.08435 0.86301 0.0
C1873 C 0.33707 0.06716 0.91734 0.0
C1874 C 0.33118 0.073 0.89853 0.0
H1875 H 0.31773 0.11368 0.81144 0.0
H1876 H 0.32706 0.10393 0.84237 0.0
H1877 H 0.30404 0.08095 0.88111 0.0
H1878 H 0.33353 0.04452 0.952 0.0
H1879 H 0.32393 0.05397 0.92103 0.0
C1880 C 0.84537 0.94901 0.94638 0.0
C1881 C 0.85509 0.95569 0.94044 0.0
C1882 C 0.83883 0.94334 0.93026 0.0
C1883 C 0.84107 0.93279 0.87285 0.0
H1884 H 0.80727 0.93094 0.8762 0.0
C1885 C 0.81334 0.91633 0.80034 0.0
C1886 C 0.80399 0.90897 0.80524 0.0
C1887 C 0.81929 0.92198 0.81718 0.0
C1888 C 0.81671 0.93128 0.87516 0.0
H1889 H 0.86553 0.96159 0.91273 0.0
H1890 H 0.85397 0.95202 0.88472 0.0
H1891 H 0.8181 0.94098 0.90493 0.0
H1892 H 0.79348 0.90192 0.83177 0.0
H1893 H 0.80399 0.91171 0.86127 0.0
H1894 H 0.8397 0.92316 0.84307 0.0
C1895 C 0.85148 0.95101 0.90187 0.0
C1896 C 0.82293 0.93703 0.89163 0.0
C1897 C 0.85802 0.95665 0.91795 0.0
C1898 C 0.8007 0.90745 0.82744 0.0
C1899 C 0.80665 0.91315 0.84432 0.0
C1900 C 0.83487 0.92708 0.8564 0.0
C1901 C 0.84186 0.9442 0.90781 0.0
C1902 C 0.83519 0.93791 0.8906 0.0
C1903 C 0.81606 0.92043 0.83939 0.0
C1904 C 0.82261 0.92631 0.85726 0.0
H1905 H 0.84278 0.94817 0.96351 0.0
H1906 H 0.83153 0.93811 0.93545 0.0
H1907 H 0.85051 0.93308 0.87175 0.0
H1908 H 0.81619 0.9176 0.78345 0.0
H1909 H 0.82641 0.92763 0.81278 0.0
C1910 C 0.84549 0.06164 0.56544 0.0
C1911 C 0.856 0.05615 0.57108 0.0
C1912 C 0.839 0.06742 0.58147 0.0
C1913 C 0.84209 0.08058 0.6367 0.0
H1914 H 0.80824 0.07892 0.6379 0.0
C1915 C 0.81531 0.09652 0.71085 0.0
C1916 C 0.80507 0.10271 0.70646 0.0
C1917 C 0.82128 0.09101 0.69385 0.0
C1918 C 0.81768 0.07957 0.63763 0.0
H1919 H 0.86791 0.05252 0.59808 0.0
H1920 H 0.85648 0.06226 0.62598 0.0
H1921 H 0.81905 0.06892 0.60914 0.0
H1922 H 0.79299 0.10785 0.68072 0.0
H1923 H 0.80349 0.0983 0.65093 0.0
H1924 H 0.84075 0.09114 0.66527 0.0
C1925 C 0.85331 0.06226 0.60914 0.0
C1926 C 0.82388 0.07384 0.62114 0.0
C1927 C 0.85979 0.05651 0.59315 0.0
C1928 C 0.8009 0.10323 0.68463 0.0
C1929 C 0.80685 0.09767 0.6676 0.0
C1930 C 0.83591 0.08626 0.65319 0.0
C1931 C 0.84287 0.06786 0.6035 0.0
C1932 C 0.83618 0.07421 0.62058 0.0
C1933 C 0.81714 0.09154 0.67201 0.0
C1934 C 0.82364 0.08576 0.65397 0.0
H1935 H 0.84224 0.06145 0.54866 0.0
H1936 H 0.83105 0.07171 0.5765 0.0
H1937 H 0.85153 0.08127 0.63651 0.0
H1938 H 0.81883 0.09604 0.72743 0.0
H1939 H 0.8291 0.08626 0.69786 0.0
C1940 C 0.70901 0.09044 0.31074 0.0
C1941 C 0.70966 0.10238 0.31041 0.0
C1942 C 0.70368 0.08472 0.32836 0.0
C1943 C 0.68285 0.08916 0.37443 0.0
H1944 H 0.69555 0.06067 0.39592 0.0
C1945 C 0.65799 0.06123 0.43744 0.0
C1946 C 0.66454 0.05586 0.45412 0.0
C1947 C 0.66356 0.06674 0.41984 0.0
C1948 C 0.69194 0.06866 0.39026 0.0
H1949 H 0.70516 0.11764 0.32851 0.0
H1950 H 0.69621 0.10767 0.35949 0.0
H1951 H 0.7054 0.07076 0.36604 0.0
H1952 H 0.68214 0.05193 0.46505 0.0
H1953 H 0.69185 0.06181 0.43476 0.0
H1954 H 0.66958 0.08724 0.39905 0.0
C1955 C 0.69965 0.10272 0.34594 0.0
C1956 C 0.69751 0.07439 0.37291 0.0
C1957 C 0.70494 0.10844 0.32828 0.0
C1958 C 0.67681 0.0561 0.45267 0.0
C1959 C 0.68238 0.06164 0.43511 0.0
C1960 C 0.67731 0.08346 0.39183 0.0
C1961 C 0.69889 0.09079 0.34616 0.0
C1962 C 0.69303 0.08471 0.36475 0.0
C1963 C 0.67583 0.06707 0.4185 0.0
C1964 C 0.68176 0.07313 0.39995 0.0
H1965 H 0.71268 0.08548 0.29742 0.0
H1966 H 0.70316 0.07554 0.32783 0.0
H1967 H 0.67905 0.09701 0.36842 0.0
H1968 H 0.64853 0.06134 0.43811 0.0
H1969 H 0.65822 0.07069 0.40721 0.0
C1970 C 0.70812 0.92059 0.20046 0.0
C1971 C 0.7093 0.90869 0.20052 0.0
C1972 C 0.70281 0.92619 0.18271 0.0
C1973 C 0.68302 0.92115 0.13514 0.0
H1974 H 0.69476 0.95037 0.11521 0.0
C1975 C 0.66691 0.94282 0.05494 0.0
C1976 C 0.66447 0.95451 0.05607 0.0
C1977 C 0.67246 0.93726 0.07249 0.0
C1978 C 0.69133 0.94226 0.12072 0.0
H1979 H 0.70574 0.89338 0.1818 0.0
H1980 H 0.69685 0.90317 0.15059 0.0
H1981 H 0.70445 0.94057 0.14569 0.0
H1982 H 0.66606 0.96955 0.07639 0.0
H1983 H 0.67574 0.95984 0.10708 0.0
H1984 H 0.66999 0.9228 0.10995 0.0
C1985 C 0.69986 0.90817 0.16445 0.0
C1986 C 0.69686 0.93664 0.13823 0.0
C1987 C 0.70511 0.90256 0.18225 0.0
C1988 C 0.66775 0.96053 0.0751 0.0
C1989 C 0.67338 0.95499 0.09258 0.0
C1990 C 0.67755 0.92673 0.11755 0.0
C1991 C 0.69858 0.92006 0.16449 0.0
C1992 C 0.69277 0.92602 0.1457 0.0
C1993 C 0.67576 0.94328 0.0915 0.0
C1994 C 0.68162 0.93735 0.11016 0.0
H1995 H 0.71138 0.92561 0.21409 0.0
H1996 H 0.70188 0.93534 0.18346 0.0
H1997 H 0.67948 0.91309 0.14069 0.0
H1998 H 0.6644 0.93793 0.04058 0.0
H1999 H 0.67426 0.92826 0.07108 0.0
C2000 C 0.66156 0.56002 0.56716 0.0
C2001 C 0.66645 0.55029 0.55743 0.0
C2002 C 0.66734 0.56559 0.58434 0.0
C2003 C 0.68943 0.56141 0.62788 0.0
H2004 H 0.69068 0.59434 0.62776 0.0
C2005 C 0.71648 0.58662 0.69197 0.0
C2006 C 0.71148 0.59661 0.7004 0.0
C2007 C 0.7113 0.58094 0.67422 0.0
C2008 C 0.6903 0.58515 0.6282 0.0
H2009 H 0.68118 0.53872 0.55831 0.0
H2010 H 0.6913 0.54851 0.58828 0.0
H2011 H 0.68103 0.58445 0.59753 0.0
H2012 H 0.69701 0.60837 0.69699 0.0
H2013 H 0.68793 0.59845 0.6662 0.0
H2014 H 0.69858 0.5621 0.65867 0.0
C2015 C 0.68297 0.55179 0.58264 0.0
C2016 C 0.68478 0.57948 0.61084 0.0
C2017 C 0.67723 0.54624 0.56535 0.0
C2018 C 0.70119 0.60079 0.69066 0.0
C2019 C 0.69599 0.5951 0.67298 0.0
C2020 C 0.69491 0.56708 0.6453 0.0
C2021 C 0.67811 0.56156 0.59227 0.0
C2022 C 0.68423 0.56755 0.61052 0.0
C2023 C 0.70098 0.5851 0.66451 0.0
C2024 C 0.69537 0.57903 0.64573 0.0
H2025 H 0.65333 0.56342 0.5613 0.0
H2026 H 0.66329 0.57302 0.59155 0.0
H2027 H 0.68903 0.55221 0.62825 0.0
H2028 H 0.72449 0.58326 0.69891 0.0
H2029 H 0.71548 0.57337 0.66792 0.0
C2030 C 0.71528 0.41253 0.83021 0.0
C2031 C 0.71175 0.41479 0.80839 0.0
C2032 C 0.7102 0.41832 0.84791 0.0
C2033 C 0.69348 0.44421 0.86181 0.0
H2034 H 0.68506 0.42724 0.91447 0.0
C2035 C 0.66481 0.46329 0.93104 0.0
C2036 C 0.66774 0.46063 0.95301 0.0
C2037 C 0.67046 0.45791 0.91347 0.0
C2038 C 0.68749 0.43214 0.90001 0.0
H2039 H 0.70002 0.42489 0.78815 0.0
H2040 H 0.69121 0.435 0.81899 0.0
H2041 H 0.69446 0.41751 0.88379 0.0
H2042 H 0.67891 0.45017 0.97366 0.0
H2043 H 0.68892 0.44098 0.94306 0.0
H2044 H 0.68651 0.45885 0.87803 0.0
C2045 C 0.69802 0.42885 0.8224 0.0
C2046 C 0.69288 0.42656 0.88241 0.0
C2047 C 0.70308 0.42305 0.8047 0.0
C2048 C 0.67651 0.45252 0.95696 0.0
C2049 C 0.68216 0.44714 0.9394 0.0
C2050 C 0.68811 0.44981 0.87944 0.0
C2051 C 0.70148 0.42652 0.84422 0.0
C2052 C 0.69592 0.43252 0.86307 0.0
C2053 C 0.67917 0.44973 0.91743 0.0
C2054 C 0.68502 0.44383 0.89875 0.0
H2055 H 0.72206 0.40636 0.83363 0.0
H2056 H 0.7132 0.41644 0.86449 0.0
H2057 H 0.69586 0.44909 0.84728 0.0
H2058 H 0.65819 0.46959 0.92738 0.0
H2059 H 0.66785 0.46004 0.89677 0.0
C2060 C 0.81194 0.40986 0.19219 0.0
C2061 C 0.80145 0.41398 0.2012 0.0
C2062 C 0.81739 0.41556 0.1747 0.0
C2063 C 0.81184 0.43586 0.12934 0.0
H2064 H 0.84549 0.43989 0.13065 0.0
C2065 C 0.83632 0.46349 0.06489 0.0
C2066 C 0.84711 0.45941 0.05715 0.0
C2067 C 0.83067 0.45817 0.08262 0.0
C2068 C 0.8361 0.43872 0.12988 0.0
H2069 H 0.78835 0.42723 0.19861 0.0
H2070 H 0.79792 0.43724 0.16816 0.0
H2071 H 0.83575 0.43012 0.16107 0.0
H2072 H 0.8603 0.4464 0.06174 0.0
H2073 H 0.85043 0.43708 0.0925 0.0
H2074 H 0.8122 0.44438 0.09805 0.0
C2075 C 0.8019 0.42956 0.17459 0.0
C2076 C 0.83052 0.43313 0.14734 0.0
C2077 C 0.79648 0.42389 0.19218 0.0
C2078 C 0.8521 0.44987 0.06753 0.0
C2079 C 0.84643 0.44453 0.08519 0.0
C2080 C 0.81743 0.44142 0.11182 0.0
C2081 C 0.81245 0.42549 0.16572 0.0
C2082 C 0.81833 0.43159 0.14725 0.0
C2083 C 0.83565 0.44862 0.093 0.0
C2084 C 0.82964 0.44289 0.11183 0.0
H2085 H 0.81605 0.40232 0.19889 0.0
H2086 H 0.82544 0.41214 0.16809 0.0
H2087 H 0.80246 0.43469 0.12865 0.0
H2088 H 0.83232 0.4709 0.05743 0.0
H2089 H 0.82246 0.46164 0.0884 0.0
C2090 C 0.79634 0.58714 0.31732 0.0
C2091 C 0.80087 0.59749 0.30935 0.0
C2092 C 0.80178 0.58144 0.33482 0.0
C2093 C 0.83008 0.57895 0.36362 0.0
H2094 H 0.81163 0.56589 0.41107 0.0
C2095 C 0.85129 0.56212 0.44366 0.0
C2096 C 0.84667 0.55219 0.45323 0.0
C2097 C 0.84562 0.56742 0.42598 0.0
C2098 C 0.81691 0.56935 0.39781 0.0
H2099 H 0.81474 0.60989 0.3134 0.0
H2100 H 0.82416 0.6 0.34404 0.0
H2101 H 0.80186 0.57551 0.38046 0.0
H2102 H 0.83253 0.53994 0.45151 0.0
H2103 H 0.82267 0.54912 0.42049 0.0
H2104 H 0.84513 0.57276 0.38081 0.0
C2105 C 0.81643 0.59627 0.33669 0.0
C2106 C 0.8113 0.57488 0.38028 0.0
C2107 C 0.81096 0.602 0.31929 0.0
C2108 C 0.83624 0.54766 0.44468 0.0
C2109 C 0.83058 0.55294 0.42692 0.0
C2110 C 0.83569 0.57338 0.38108 0.0
C2111 C 0.81192 0.58591 0.34464 0.0
C2112 C 0.81783 0.57981 0.36305 0.0
C2113 C 0.8352 0.56289 0.41734 0.0
C2114 C 0.82918 0.56857 0.39848 0.0
H2115 H 0.78852 0.5835 0.31014 0.0
H2116 H 0.79814 0.57344 0.34046 0.0
H2117 H 0.83536 0.58248 0.35041 0.0
H2118 H 0.85921 0.56593 0.4501 0.0
H2119 H 0.84931 0.57519 0.41931 0.0
C2120 C 0.35132 0.4638 0.4225 0.0
C2121 C 0.35346 0.45849 0.44295 0.0
C2122 C 0.34412 0.45865 0.40681 0.0
C2123 C 0.32146 0.43654 0.3989 0.0
H2124 H 0.33308 0.43648 0.33875 0.0
C2125 C 0.30141 0.40836 0.33018 0.0
C2126 C 0.30078 0.41293 0.30871 0.0
C2127 C 0.3072 0.41423 0.34703 0.0
C2128 C 0.3296 0.43655 0.35538 0.0
H2129 H 0.34944 0.44372 0.46309 0.0
H2130 H 0.33682 0.43475 0.43568 0.0
H2131 H 0.34406 0.44627 0.36733 0.0
H2132 H 0.30573 0.42735 0.28828 0.0
H2133 H 0.31546 0.43769 0.3177 0.0
H2134 H 0.30698 0.42678 0.38688 0.0
C2135 C 0.34066 0.44294 0.43188 0.0
C2136 C 0.33591 0.44216 0.37179 0.0
C2137 C 0.34789 0.44809 0.4476 0.0
C2138 C 0.30591 0.42361 0.30464 0.0
C2139 C 0.31165 0.42948 0.32147 0.0
C2140 C 0.3151 0.43094 0.38242 0.0
C2141 C 0.33886 0.44807 0.41115 0.0
C2142 C 0.33193 0.44223 0.39375 0.0
C2143 C 0.31248 0.42482 0.34284 0.0
C2144 C 0.3191 0.43087 0.36044 0.0
H2145 H 0.35527 0.47192 0.41855 0.0
H2146 H 0.34272 0.46294 0.39118 0.0
H2147 H 0.3181 0.43652 0.41561 0.0
H2148 H 0.29744 0.40023 0.334 0.0
H2149 H 0.30774 0.41034 0.36322 0.0
C2150 C 0.30716 0.58875 0.20523 0.0
C2151 C 0.30088 0.59882 0.20124 0.0
C2152 C 0.31262 0.583 0.18793 0.0
C2153 C 0.32457 0.58744 0.13215 0.0
H2154 H 0.32428 0.55451 0.12997 0.0
C2155 C 0.34742 0.56278 0.0619 0.0
C2156 C 0.35402 0.55326 0.06835 0.0
C2157 C 0.33983 0.56805 0.07683 0.0
C2158 C 0.32452 0.56371 0.13043 0.0
H2159 H 0.29523 0.61057 0.1757 0.0
H2160 H 0.30488 0.60058 0.14554 0.0
H2161 H 0.31315 0.5643 0.15849 0.0
H2162 H 0.35744 0.54154 0.09531 0.0
H2163 H 0.34445 0.55084 0.12141 0.0
H2164 H 0.33613 0.58686 0.1044 0.0
C2165 C 0.30566 0.59721 0.16214 0.0
C2166 C 0.31814 0.56931 0.14677 0.0
C2167 C 0.30014 0.60295 0.17945 0.0
C2168 C 0.35261 0.54895 0.08988 0.0
C2169 C 0.34504 0.55421 0.10478 0.0
C2170 C 0.33099 0.58183 0.11584 0.0
C2171 C 0.31199 0.58718 0.16619 0.0
C2172 C 0.3182 0.58124 0.14799 0.0
C2173 C 0.33865 0.56391 0.09854 0.0
C2174 C 0.33116 0.56988 0.11493 0.0
H2175 H 0.3081 0.58543 0.22183 0.0
H2176 H 0.31759 0.57541 0.19169 0.0
H2177 H 0.32492 0.59663 0.13279 0.0
H2178 H 0.34834 0.56636 0.0455 0.0
H2179 H 0.33494 0.57542 0.07138 0.0
C2180 C 0.17493 0.56126 0.95798 0.0
C2181 C 0.16623 0.55306 0.95404 0.0
C2182 C 0.18065 0.56665 0.94042 0.0
C2183 C 0.18708 0.56376 0.88077 0.0
H2184 H 0.19333 0.5961 0.88419 0.0
C2185 C 0.20284 0.59003 0.8056 0.0
C2186 C 0.21148 0.59833 0.80926 0.0
C2187 C 0.19755 0.58438 0.82333 0.0
C2188 C 0.19177 0.58704 0.88308 0.0
H2189 H 0.15686 0.544 0.92843 0.0
H2190 H 0.16665 0.55356 0.89779 0.0
H2191 H 0.18366 0.58649 0.9149 0.0
H2192 H 0.22146 0.60703 0.83453 0.0
H2193 H 0.21221 0.5972 0.86548 0.0
H2194 H 0.19514 0.56434 0.84887 0.0
C2195 C 0.16914 0.55574 0.9145 0.0
C2196 C 0.18623 0.58153 0.90069 0.0
C2197 C 0.16342 0.55036 0.93207 0.0
C2198 C 0.21472 0.60082 0.83112 0.0
C2199 C 0.20941 0.59518 0.84887 0.0
C2200 C 0.19261 0.56928 0.86313 0.0
C2201 C 0.17781 0.56398 0.91845 0.0
C2202 C 0.1838 0.56982 0.89975 0.0
C2203 C 0.20075 0.58691 0.84519 0.0
C2204 C 0.195 0.58099 0.86406 0.0
H2205 H 0.17723 0.56365 0.97468 0.0
H2206 H 0.18737 0.57286 0.94407 0.0
H2207 H 0.18551 0.55471 0.87963 0.0
H2208 H 0.2 0.58803 0.78901 0.0
H2209 H 0.19079 0.57819 0.81992 0.0
C2210 C 0.16364 0.46186 0.57935 0.0
C2211 C 0.16605 0.45893 0.55732 0.0
C2212 C 0.1695 0.4565 0.59677 0.0
C2213 C 0.18615 0.43045 0.61032 0.0
H2214 H 0.19592 0.44767 0.66157 0.0
C2215 C 0.21468 0.41083 0.67941 0.0
C2216 C 0.21163 0.41345 0.70131 0.0
C2217 C 0.20941 0.41653 0.66172 0.0
C2218 C 0.19315 0.44272 0.64747 0.0
H2219 H 0.17653 0.44802 0.53641 0.0
H2220 H 0.18692 0.43886 0.56673 0.0
H2221 H 0.18626 0.45736 0.63097 0.0
H2222 H 0.20053 0.42405 0.72168 0.0
H2223 H 0.1914 0.434 0.69085 0.0
H2224 H 0.19304 0.4158 0.62683 0.0
C2225 C 0.18039 0.44522 0.57056 0.0
C2226 C 0.1876 0.44827 0.62992 0.0
C2227 C 0.17453 0.45057 0.55315 0.0
C2228 C 0.20323 0.42194 0.70506 0.0
C2229 C 0.19798 0.42765 0.68737 0.0
C2230 C 0.19172 0.42489 0.62785 0.0
C2231 C 0.17792 0.44807 0.5926 0.0
C2232 C 0.184 0.4422 0.61115 0.0
C2233 C 0.20099 0.42499 0.66548 0.0
C2234 C 0.19525 0.43095 0.64667 0.0
H2235 H 0.15725 0.46835 0.58317 0.0
H2236 H 0.16729 0.45883 0.61353 0.0
H2237 H 0.18332 0.42547 0.59629 0.0
H2238 H 0.22124 0.40447 0.67593 0.0
H2239 H 0.21205 0.41439 0.64507 0.0
C2240 C 0.23822 0.21592 0.23809 0.0
C2241 C 0.24579 0.20814 0.24842 0.0
C2242 C 0.24054 0.22758 0.23868 0.0
C2243 C 0.25694 0.24912 0.27038 0.0
H2244 H 0.25179 0.26801 0.21871 0.0
C2245 C 0.27183 0.29603 0.26624 0.0
C2246 C 0.26425 0.30385 0.25605 0.0
C2247 C 0.26954 0.28437 0.26531 0.0
C2248 C 0.25315 0.26288 0.23337 0.0
H2249 H 0.26195 0.20655 0.26691 0.0
H2250 H 0.26601 0.22687 0.26793 0.0
H2251 H 0.24796 0.24764 0.21679 0.0
H2252 H 0.24818 0.30553 0.23731 0.0
H2253 H 0.2442 0.28519 0.23571 0.0
H2254 H 0.26211 0.26434 0.28698 0.0
C2255 C 0.25815 0.22397 0.2597 0.0
C2256 C 0.25096 0.2512 0.23225 0.0
C2257 C 0.25583 0.21231 0.2591 0.0
C2258 C 0.2543 0.29973 0.24503 0.0
C2259 C 0.25202 0.28807 0.24411 0.0
C2260 C 0.25913 0.26079 0.2715 0.0
C2261 C 0.2505 0.23175 0.24962 0.0
C2262 C 0.25284 0.24418 0.25074 0.0
C2263 C 0.25963 0.28024 0.25418 0.0
C2264 C 0.25726 0.26782 0.253 0.0
H2265 H 0.23032 0.21301 0.22999 0.0
H2266 H 0.23439 0.23336 0.23098 0.0
H2267 H 0.25829 0.24399 0.28504 0.0
H2268 H 0.27966 0.29891 0.27456 0.0
H2269 H 0.27568 0.27857 0.27297 0.0
C2270 C 0.04513 0.98497 0.495 0.0
C2271 C 0.05308 0.99329 0.50219 0.0
C2272 C 0.03315 0.98725 0.49429 0.0
C2273 C 0.0121 0.01084 0.49104 0.0
H2274 H 0.98973 0.98776 0.5088 0.0
C2275 C 0.96231 0.01918 0.48979 0.0
C2276 C 0.95536 0.01049 0.48077 0.0
C2277 C 0.97409 0.01723 0.49476 0.0
C2278 C 0.99586 0.99427 0.50363 0.0
H2279 H 0.05465 0.01056 0.5142 0.0
H2280 H 0.0337 0.01451 0.51316 0.0
H2281 H 0.01061 0.9841 0.51276 0.0
H2282 H 0.95522 0.99281 0.47081 0.0
H2283 H 0.97576 0.98948 0.47905 0.0
H2284 H 0.99737 0.02093 0.48156 0.0
C2285 C 0.03676 0.00624 0.50795 0.0
C2286 C 0.00783 0.99217 0.5059 0.0
C2287 C 0.04875 1.00394 0.50874 0.0
C2288 C 0.96037 0.99973 0.47746 0.0
C2289 C 0.97212 0.99778 0.48244 0.0
C2290 C 1.00013 0.01293 0.48874 0.0
C2291 C 0.02882 0.99792 0.5007 0.0
C2292 C 0.01609 1.00038 0.4994 0.0
C2293 C 0.97917 0.00655 0.49089 0.0
C2294 C 0.99186 1.00462 0.49477 0.0
H2295 H 0.04816 0.97664 0.49008 0.0
H2296 H 0.02729 0.98069 0.48839 0.0
H2297 H 0.01823 0.01729 0.48563 0.0
H2298 H 0.95874 0.02759 0.49241 0.0
H2299 H 0.97923 0.02413 0.5015 0.0
C2300 C 0.24537 0.71297 0.73875 0.0
C2301 C 0.24804 0.70645 0.75758 0.0
C2302 C 0.24764 0.72464 0.73829 0.0
C2303 C 0.26553 0.74685 0.76498 0.0
H2304 H 0.24291 0.76738 0.73874 0.0
C2305 C 0.26945 0.79563 0.77228 0.0
C2306 C 0.26674 0.80219 0.75352 0.0
C2307 C 0.26724 0.78395 0.77267 0.0
C2308 C 0.24938 0.76175 0.74589 0.0
H2309 H 0.25527 0.70709 0.79065 0.0
H2310 H 0.25907 0.7275 0.78998 0.0
H2311 H 0.23887 0.74703 0.7398 0.0
H2312 H 0.2595 0.80158 0.72045 0.0
H2313 H 0.25581 0.78115 0.72097 0.0
H2314 H 0.27604 0.76157 0.77108 0.0
C2315 C 0.25531 0.72356 0.77548 0.0
C2316 C 0.24706 0.75009 0.74651 0.0
C2317 C 0.25302 0.71188 0.77596 0.0
C2318 C 0.26179 0.79676 0.73509 0.0
C2319 C 0.25955 0.78508 0.73549 0.0
C2320 C 0.26785 0.75852 0.76436 0.0
C2321 C 0.25265 0.73008 0.75663 0.0
C2322 C 0.2551 0.7425 0.75607 0.0
C2323 C 0.26224 0.77853 0.7543 0.0
C2324 C 0.2598 0.76611 0.75481 0.0
H2325 H 0.24141 0.70908 0.7244 0.0
H2326 H 0.24559 0.72938 0.72343 0.0
H2327 H 0.27199 0.74123 0.77215 0.0
H2328 H 0.2734 0.79951 0.78666 0.0
H2329 H 0.26931 0.77919 0.7875 0.0
C2330 C 0.46164 0.0076 0.01642 0.0
C2331 C 0.45757 0.01756 0.00611 0.0
C2332 C 0.47358 1.0051 0.01696 0.0
C2333 C 0.5027 0.01854 0.01215 0.0
H2334 H 0.51323 0.98765 1.00244 0.0
C2335 C 0.55148 0.0071 1.0009 0.0
C2336 C 0.55551 0.99705 0.01096 0.0
C2337 C 0.53956 0.00969 1.0006 0.0
C2338 C 0.51043 0.9963 1.00545 0.0
H2339 H 0.46292 0.03276 0.9884 0.0
H2340 H 0.48374 0.0283 0.98899 0.0
H2341 H 0.49241 0.99195 1.00108 0.0
H2342 H 0.55013 0.98185 0.0286 0.0
H2343 H 0.52936 0.98647 0.02847 0.0
H2344 H 0.52073 0.02288 0.01651 0.0
C2345 C 0.47769 0.02247 0.99685 0.0
C2346 C 0.49849 0.99876 1.00466 0.0
C2347 C 0.46574 0.02495 0.99628 0.0
C2348 C 0.54734 0.98971 0.0209 0.0
C2349 C 0.53541 0.9923 0.02059 0.0
C2350 C 0.51464 0.01607 0.01295 0.0
C2351 C 0.48175 0.01252 0.00723 0.0
C2352 C 0.49447 0.00991 0.008 0.0
C2353 C 0.53137 1.00229 0.01035 0.0
C2354 C 0.51866 1.00492 0.00962 0.0
H2355 H 0.45558 1.00166 0.02396 0.0
H2356 H 0.47642 0.99743 0.02528 0.0
H2357 H 0.49989 0.02718 0.01513 0.0
H2358 H 0.55755 0.013 0.99328 0.0
H2359 H 0.53674 0.01741 0.9924 0.0
C2360 C 0.25872 0.71274 0.23655 0.0
C2361 C 0.26416 0.70735 0.25458 0.0
C2362 C 0.25619 0.72435 0.23719 0.0
C2363 C 0.26436 0.75098 0.26563 0.0
H2364 H 0.23477 0.76186 0.24264 0.0
C2365 C 0.24886 0.79732 0.27742 0.0
C2366 C 0.24355 0.80265 0.25919 0.0
C2367 C 0.25132 0.78568 0.27703 0.0
C2368 C 0.24313 0.75897 0.24892 0.0
H2369 H 0.27135 0.71002 0.2873 0.0
H2370 H 0.26674 0.73021 0.28856 0.0
H2371 H 0.23922 0.74161 0.24149 0.0
H2372 H 0.23648 0.79987 0.22642 0.0
H2373 H 0.24095 0.77963 0.2256 0.0
H2374 H 0.26827 0.76834 0.27305 0.0
C2375 C 0.26452 0.72548 0.27385 0.0
C2376 C 0.24568 0.74737 0.24825 0.0
C2377 C 0.26704 0.71387 0.27322 0.0
C2378 C 0.2407 0.79606 0.24064 0.0
C2379 C 0.24314 0.78443 0.24027 0.0
C2380 C 0.26181 0.76258 0.26631 0.0
C2381 C 0.25905 0.73087 0.25585 0.0
C2382 C 0.25633 0.74322 0.25657 0.0
C2383 C 0.24849 0.7791 0.25844 0.0
C2384 C 0.25117 0.76673 0.25793 0.0
H2385 H 0.25629 0.70795 0.22202 0.0
H2386 H 0.25208 0.72825 0.22295 0.0
H2387 H 0.27272 0.7481 0.27189 0.0
H2388 H 0.25126 0.80216 0.29189 0.0
H2389 H 0.25535 0.78182 0.29139 0.0
C2390 C 0.46555 0.98662 0.51862 0.0
C2391 C 0.45739 0.99389 0.50848 0.0
C2392 C 0.47748 0.98918 0.51819 0.0
C2393 C 0.49826 0.01296 0.50999 0.0
H2394 H 0.52057 0.98887 0.4989 0.0
C2395 C 0.54711 0.0221 0.49345 0.0
C2396 C 0.5553 0.01485 0.50355 0.0
C2397 C 0.53518 0.01949 0.49392 0.0
C2398 C 0.51447 0.99568 0.50225 0.0
H2399 H 0.45541 0.00968 0.49029 0.0
H2400 H 0.47624 0.01406 0.48921 0.0
H2401 H 0.49975 0.98447 0.50031 0.0
H2402 H 0.55737 0.99906 0.52171 0.0
H2403 H 0.53655 0.99461 0.52287 0.0
H2404 H 0.51297 0.02416 0.51193 0.0
C2405 C 0.4734 0.00641 0.49765 0.0
C2406 C 0.50253 0.99315 0.50307 0.0
C2407 C 0.46146 1.00383 0.49806 0.0
C2408 C 0.55128 1.00489 0.51397 0.0
C2409 C 0.53936 1.00227 0.51442 0.0
C2410 C 0.5102 0.01548 0.50917 0.0
C2411 C 0.48156 0.9991 0.50765 0.0
C2412 C 0.49427 1.00177 0.50694 0.0
C2413 C 0.53116 0.00956 0.50448 0.0
C2414 C 0.51845 0.00687 0.50528 0.0
H2415 H 0.46273 0.97883 0.5266 0.0
H2416 H 0.48352 0.98343 0.52626 0.0
H2417 H 0.49215 0.01977 0.51333 0.0
H2418 H 0.54989 0.0299 0.48547 0.0
H2419 H 0.52912 0.02522 0.48589 0.0
C2420 C 0.25326 0.29991 0.73321 0.0
C2421 C 0.2482 0.3052 0.75166 0.0
C2422 C 0.25559 0.28825 0.73343 0.0
C2423 C 0.24736 0.26149 0.76173 0.0
H2424 H 0.27646 0.25033 0.73723 0.0
C2425 C 0.26245 0.21497 0.773 0.0
C2426 C 0.26752 0.20961 0.75465 0.0
C2427 C 0.26008 0.22662 0.77257 0.0
C2428 C 0.26824 0.25329 0.74392 0.0
H2429 H 0.24147 0.30231 0.7847 0.0
H2430 H 0.24573 0.28203 0.78524 0.0
H2431 H 0.27231 0.27065 0.73646 0.0
H2432 H 0.27423 0.21235 0.72156 0.0
H2433 H 0.26992 0.23263 0.72066 0.0
H2434 H 0.24329 0.24414 0.76921 0.0
C2435 C 0.24781 0.28688 0.77051 0.0
C2436 C 0.26586 0.26494 0.74347 0.0
C2437 C 0.24549 0.29854 0.7703 0.0
C2438 C 0.2702 0.21619 0.73589 0.0
C2439 C 0.26785 0.22784 0.73547 0.0
C2440 C 0.24974 0.24984 0.76218 0.0
C2441 C 0.2529 0.28159 0.75209 0.0
C2442 C 0.25539 0.26918 0.75239 0.0
C2443 C 0.26275 0.2332 0.75379 0.0
C2444 C 0.26021 0.2456 0.7533 0.0
H2445 H 0.25554 0.30481 0.71866 0.0
H2446 H 0.25941 0.28443 0.71889 0.0
H2447 H 0.23914 0.26445 0.76844 0.0
H2448 H 0.26017 0.21014 0.78764 0.0
H2449 H 0.25625 0.23051 0.78705 0.0
C2450 C 0.0488 0.00773 0.0082 0.0
C2451 C 0.05336 0.01857 0.01283 0.0
C2452 C 0.03677 0.00568 0.00949 0.0
C2453 C 0.00979 0.01717 0.03467 0.0
H2454 H 0.99408 0.99774 0.99242 0.0
C2455 C 0.95978 0.01273 0.03389 0.0
C2456 C 0.95523 1.00166 0.03218 0.0
C2457 C 0.97161 0.01485 0.02992 0.0
C2458 C 0.99836 1.00311 1.00443 0.0
H2459 H 0.04881 0.03583 0.02172 0.0
H2460 H 0.02785 0.0323 0.02381 0.0
H2461 H 0.01504 1.00132 0.98871 0.0
H2462 H 0.95953 0.98419 0.02434 0.0
H2463 H 0.98021 0.98792 0.01732 0.0
H2464 H 0.99317 0.01897 0.0504 0.0
C2465 C 0.03358 0.0253 0.01967 0.0
C2466 C 0.01038 1.00515 1.00234 0.0
C2467 C 0.0456 0.02734 0.01846 0.0
C2468 C 0.96272 0.99283 0.0256 0.0
C2469 C 0.97458 0.99496 0.0216 0.0
C2470 C 0.99781 0.01516 0.03671 0.0
C2471 C 0.02901 0.01443 0.01537 0.0
C2472 C 0.01624 0.01222 0.01743 0.0
C2473 C 0.97919 0.00597 0.02412 0.0
C2474 C 0.99194 0.00813 0.02161 0.0
H2475 H 0.05456 1.00077 1.00403 0.0
H2476 H 0.03357 0.99717 0.00635 0.0
H2477 H 0.01405 0.02246 0.04686 0.0
H2478 H 0.95419 0.01976 0.03848 0.0
H2479 H 0.97483 0.02347 0.03155 0.0
C2480 C 0.76027 0.79502 0.77588 0.0
C2481 C 0.76547 0.80041 0.7576 0.0
C2482 C 0.75791 0.78335 0.77552 0.0
C2483 C 0.76631 0.75676 0.74729 0.0
H2484 H 0.73701 0.74543 0.77097 0.0
C2485 C 0.75136 0.71021 0.73571 0.0
C2486 C 0.74615 0.70478 0.75395 0.0
C2487 C 0.75369 0.72188 0.73615 0.0
C2488 C 0.74529 0.74844 0.76451 0.0
H2489 H 0.77242 0.79771 0.72471 0.0
H2490 H 0.76813 0.77744 0.72393 0.0
H2491 H 0.74118 0.76575 0.77191 0.0
H2492 H 0.73916 0.70741 0.78682 0.0
H2493 H 0.74341 0.7277 0.78773 0.0
H2494 H 0.77042 0.73945 0.73988 0.0
C2495 C 0.76596 0.7822 0.73864 0.0
C2496 C 0.74768 0.76009 0.76506 0.0
C2497 C 0.76829 0.79386 0.73898 0.0
C2498 C 0.74329 0.7113 0.77259 0.0
C2499 C 0.74561 0.72296 0.77301 0.0
C2500 C 0.76392 0.74511 0.74674 0.0
C2501 C 0.76073 0.7768 0.75689 0.0
C2502 C 0.75821 0.76439 0.75644 0.0
C2503 C 0.75085 0.7284 0.75481 0.0
C2504 C 0.75338 0.7408 0.75534 0.0
H2505 H 0.75789 0.79983 0.7904 0.0
H2506 H 0.75399 0.77944 0.78994 0.0
H2507 H 0.77458 0.75976 0.74082 0.0
H2508 H 0.75377 0.70542 0.72118 0.0
H2509 H 0.75763 0.72582 0.72176 0.0
C2510 C 0.77377 0.29829 0.24564 0.0
C2511 C 0.76606 0.30598 0.25574 0.0
C2512 C 0.77161 0.2866 0.24646 0.0
C2513 C 0.74803 0.26556 0.25572 0.0
H2514 H 0.77375 0.24483 0.26641 0.0
C2515 C 0.74065 0.21775 0.27267 0.0
C2516 C 0.74829 0.2101 0.26232 0.0
C2517 C 0.74289 0.22944 0.27219 0.0
C2518 C 0.76649 0.25049 0.26318 0.0
H2519 H 0.74991 0.30739 0.27429 0.0
H2520 H 0.74625 0.287 0.27606 0.0
H2521 H 0.77746 0.26522 0.26466 0.0
H2522 H 0.76444 0.20872 0.24375 0.0
H2523 H 0.76825 0.22911 0.2426 0.0
H2524 H 0.73706 0.25084 0.25422 0.0
C2525 C 0.75392 0.29001 0.26734 0.0
C2526 C 0.76862 0.26219 0.26216 0.0
C2527 C 0.75609 0.3017 0.26654 0.0
C2528 C 0.7583 0.2144 0.25169 0.0
C2529 C 0.76055 0.22607 0.25123 0.0
C2530 C 0.7459 0.25387 0.25674 0.0
C2531 C 0.76167 0.28231 0.25737 0.0
C2532 C 0.75941 0.26987 0.25841 0.0
C2533 C 0.75284 0.23374 0.26138 0.0
C2534 C 0.7551 0.24619 0.26048 0.0
H2535 H 0.78159 0.30129 0.23737 0.0
H2536 H 0.77768 0.28092 0.2384 0.0
H2537 H 0.74077 0.27122 0.25246 0.0
H2538 H 0.7328 0.21475 0.28082 0.0
H2539 H 0.73684 0.2351 0.28039 0.0
C2540 C 0.7586 0.30219 0.75215 0.0
C2541 C 0.7485 0.30642 0.76248 0.0
C2542 C 0.76078 0.29051 0.75153 0.0
C2543 C 0.7529 0.26328 0.77842 0.0
H2544 H 0.76464 0.25016 0.72413 0.0
C2545 C 0.75587 0.21476 0.76544 0.0
C2546 C 0.76597 0.21058 0.75502 0.0
C2547 C 0.75368 0.22643 0.76626 0.0
C2548 C 0.76148 0.2537 0.73949 0.0
H2549 H 0.73277 0.30165 0.78025 0.0
H2550 H 0.73658 0.28127 0.7792 0.0
H2551 H 0.76104 0.27054 0.72607 0.0
H2552 H 0.78172 0.21546 0.73742 0.0
H2553 H 0.77788 0.23582 0.73881 0.0
H2554 H 0.75334 0.24643 0.79183 0.0
C2555 C 0.7429 0.28701 0.77181 0.0
C2556 C 0.75942 0.26539 0.74061 0.0
C2557 C 0.74071 0.29869 0.77243 0.0
C2558 C 0.77377 0.21837 0.74527 0.0
C2559 C 0.77157 0.23004 0.74609 0.0
C2560 C 0.75496 0.25158 0.7773 0.0
C2561 C 0.75292 0.28277 0.76123 0.0
C2562 C 0.75512 0.27033 0.76009 0.0
C2563 C 0.76152 0.23422 0.75667 0.0
C2564 C 0.75928 0.24665 0.75782 0.0
H2565 H 0.76487 0.30792 0.74464 0.0
H2566 H 0.76869 0.28756 0.7436 0.0
H2567 H 0.74974 0.26682 0.79378 0.0
H2568 H 0.74959 0.20899 0.7728 0.0
H2569 H 0.74576 0.22935 0.77422 0.0
C2570 C 0.75402 0.70952 0.24941 0.0
C2571 C 0.76406 0.7052 0.25987 0.0
C2572 C 0.75195 0.72121 0.24859 0.0
C2573 C 0.76 0.74833 0.27529 0.0
H2574 H 0.74843 0.76166 0.22087 0.0
C2575 C 0.75726 0.7969 0.26222 0.0
C2576 C 0.74719 0.80115 0.25176 0.0
C2577 C 0.75942 0.78522 0.26302 0.0
C2578 C 0.75154 0.75806 0.23626 0.0
H2579 H 0.77982 0.70983 0.27761 0.0
H2580 H 0.7762 0.73024 0.27622 0.0
H2581 H 0.75189 0.74125 0.22293 0.0
H2582 H 0.73146 0.7964 0.23404 0.0
H2583 H 0.73524 0.77602 0.23541 0.0
H2584 H 0.75964 0.76515 0.28862 0.0
C2585 C 0.76984 0.72456 0.26889 0.0
C2586 C 0.75352 0.74635 0.23745 0.0
C2587 C 0.77192 0.71286 0.2697 0.0
C2588 C 0.73939 0.79343 0.24194 0.0
C2589 C 0.74155 0.78174 0.24274 0.0
C2590 C 0.75802 0.76004 0.2741 0.0
C2591 C 0.75987 0.72888 0.25822 0.0
C2592 C 0.75776 0.74134 0.25699 0.0
C2593 C 0.75157 0.77749 0.25338 0.0
C2594 C 0.75376 0.76505 0.25458 0.0
H2595 H 0.74769 0.70384 0.24198 0.0
H2596 H 0.74408 0.72424 0.24058 0.0
H2597 H 0.7631 0.74473 0.29068 0.0
H2598 H 0.76355 0.80262 0.26964 0.0
H2599 H 0.76732 0.78224 0.27102 0.0
C2600 C 0.5502 0.49173 0.9809 0.0
C2601 C 0.55704 0.49661 0.99768 0.0
C2602 C 0.53819 0.49382 0.97975 0.0
C2603 C 0.51524 0.51372 0.99894 0.0
H2604 H 0.49449 0.48935 0.98108 0.0
C2605 C 0.46694 0.52149 0.97534 0.0
C2606 C 0.45867 0.51308 0.98068 0.0
C2607 C 0.47886 0.51962 0.97897 0.0
C2608 C 0.50012 0.49623 0.98637 0.0
H2609 H 0.55655 0.50765 0.02628 0.0
H2610 H 0.53556 0.511 0.02467 0.0
H2611 H 0.51532 0.48571 0.98467 0.0
H2612 H 0.45636 0.49629 0.99484 0.0
H2613 H 0.47712 0.49307 1.00156 0.0
H2614 H 0.49999 0.52416 1.00114 0.0
C2615 C 0.53951 0.50569 0.01219 0.0
C2616 C 0.51212 0.49418 0.9881 0.0
C2617 C 0.55154 0.50364 0.01328 0.0
C2618 C 0.46255 0.50287 0.99027 0.0
C2619 C 0.47445 0.50102 0.99405 0.0
C2620 C 0.50323 0.51575 0.99731 0.0
C2621 C 0.53268 0.50079 0.99543 0.0
C2622 C 0.51985 0.50292 0.99423 0.0
C2623 C 0.48278 0.5093 0.98816 0.0
C2624 C 0.49552 0.50705 0.99084 0.0
H2625 H 0.55409 0.48616 0.96876 0.0
H2626 H 0.53325 0.49003 0.96642 0.0
H2627 H 0.52094 0.52068 1.00351 0.0
H2628 H 0.46425 0.52939 0.96766 0.0
H2629 H 0.48501 0.52612 0.97392 0.0
C2630 C 0.96116 0.50612 0.51547 0.0
C2631 C 0.95695 0.51598 0.50498 0.0
C2632 C 0.97314 0.50386 0.5163 0.0
C2633 C 1.00123 0.51112 0.48948 0.0
H2634 H 0.01466 0.49948 0.54381 0.0
C2635 C 0.0511 0.50752 0.50218 0.0
C2636 C 0.05529 0.4976 0.5125 0.0
C2637 C 0.03912 0.50985 0.50156 0.0
C2638 C 0.01103 0.50261 0.52844 0.0
H2639 H 0.9621 0.53122 0.48721 0.0
H2640 H 0.983 0.52727 0.48863 0.0
H2641 H 0.99374 0.50328 0.54186 0.0
H2642 H 0.05014 0.48235 0.53023 0.0
H2643 H 0.02924 0.48642 0.52918 0.0
H2644 H 0.01853 0.51045 0.47606 0.0
C2645 C 0.97701 0.5212 0.49597 0.0
C2646 C 0.99903 0.50479 0.52732 0.0
C2647 C 0.96502 0.52347 0.49515 0.0
C2648 C 0.04722 0.49015 0.52243 0.0
C2649 C 0.03524 0.49248 0.52181 0.0
C2650 C 0.01323 0.50895 0.49061 0.0
C2651 C 0.98122 0.51139 0.50664 0.0
C2652 C 0.99399 0.50906 0.50782 0.0
C2653 C 0.03104 0.50232 0.51124 0.0
C2654 C 0.01828 0.50467 0.5101 0.0
H2655 H 0.95517 0.50008 0.52289 0.0
H2656 H 0.97607 0.49612 0.52431 0.0
H2657 H 0.9976 0.51425 0.4741 0.0
H2658 H 0.05708 0.51354 0.49469 0.0
H2659 H 0.0362 0.5176 0.49363 0.0
C2660 C 0.05005 0.51082 0.98603 0.0
C2661 C 0.0555 0.51578 1.00445 0.0
C2662 C 0.03809 0.50834 0.98635 0.0
C2663 C 0.01056 0.51581 0.0148 0.0
H2664 H 0.99944 0.48737 0.99036 0.0
C2665 C 0.96283 0.50053 0.02552 0.0
C2666 C 0.95741 0.49557 0.00707 0.0
C2667 C 0.9748 0.50295 0.02531 0.0
C2668 C 1.00239 0.4954 0.99704 0.0
H2669 H 0.05258 0.52217 0.03753 0.0
H2670 H 0.03178 0.51768 0.03823 0.0
H2671 H 0.02028 0.49174 0.98961 0.0
H2672 H 0.96041 0.48909 0.97407 0.0
H2673 H 0.98123 0.49349 0.97356 0.0
H2674 H 0.99267 0.51948 0.02221 0.0
C2675 C 0.03673 0.51579 0.02346 0.0
C2676 C 0.01433 0.49791 0.9966 0.0
C2677 C 0.04869 0.51824 0.02316 0.0
C2678 C 0.96427 0.49303 0.98847 0.0
C2679 C 0.97624 0.49543 0.98827 0.0
C2680 C 0.99861 0.5133 0.01524 0.0
C2681 C 0.03129 0.5108 1.00508 0.0
C2682 C 0.01857 0.50814 1.00548 0.0
C2683 C 0.98165 0.50044 0.00667 0.0
C2684 C 0.99438 0.50307 0.00635 0.0
H2685 H 0.05506 0.50872 0.97144 0.0
H2686 H 0.03415 0.50461 0.97183 0.0
H2687 H 0.01351 0.52384 0.02148 0.0
H2688 H 0.95778 0.50269 0.04004 0.0
H2689 H 0.97872 0.5067 0.03985 0.0
C2690 C 0.54965 0.51761 0.53341 0.0
C2691 C 0.55641 0.5127 0.51656 0.0
C2692 C 0.53763 0.51557 0.53467 0.0
C2693 C 0.51445 0.49584 0.51556 0.0
H2694 H 0.49397 0.52039 0.53329 0.0
C2695 C 0.46601 0.4885 0.53881 0.0
C2696 C 0.45786 0.49698 0.53339 0.0
C2697 C 0.47795 0.49027 0.53529 0.0
C2698 C 0.49953 0.51346 0.52805 0.0
H2699 H 0.55577 0.50163 0.48801 0.0
H2700 H 0.53476 0.49838 0.4898 0.0
H2701 H 0.51485 0.52385 0.5298 0.0
H2702 H 0.45579 0.51379 0.51919 0.0
H2703 H 0.4766 0.51682 0.51266 0.0
H2704 H 0.49907 0.48553 0.51329 0.0
C2705 C 0.53879 0.50368 0.50225 0.0
C2706 C 0.51155 0.51541 0.52637 0.0
C2707 C 0.55083 0.50567 0.50105 0.0
C2708 C 0.46188 0.50716 0.52382 0.0
C2709 C 0.47382 0.5089 0.52015 0.0
C2710 C 0.50241 0.49391 0.51714 0.0
C2711 C 0.53202 0.50863 0.51904 0.0
C2712 C 0.51918 0.5066 0.52027 0.0
C2713 C 0.48203 0.50055 0.52613 0.0
C2714 C 0.4948 0.50268 0.52354 0.0
H2715 H 0.55361 0.52318 0.54549 0.0
H2716 H 0.53274 0.5194 0.54802 0.0
H2717 H 0.52006 0.48883 0.51101 0.0
H2718 H 0.4632 0.48063 0.54648 0.0
H2719 H 0.48402 0.48371 0.54041 0.0
loop_
_geom_bond_atom_site_label_1
_geom_bond_atom_site_label_2
_geom_bond_distance
_geom_bond_site_symmetry_2
_ccdc_geom_bond_type
C0 C1 1.264 . S
C0 C5 1.479 . S
C0 C10 1.465 . S
C1 C0 1.264 . S
C1 C3 1.339 . S
C1 H28 0.931 . S
C2 C3 1.395 . S
C2 C4 1.320 . S
C3 C1 1.339 . S
C3 C2 1.395 . S
C3 H29 0.929 . S
C4 C2 1.320 . S
C4 C5 1.405 . S
C4 H30 0.930 . S
C5 C0 1.479 . S
C5 C4 1.405 . S
C5 H31 0.931 . S
U6 O7 2.454 . S
U6 O8 2.458 . S
U6 C9 2.984 . S
U6 C10 2.847 . S
U6 C23 2.882 . S
U6 O24 2.441 . S
U6 O25 2.420 . S
U6 O26 2.455 . S
U6 O27 2.449 . S
O7 U6 2.454 . S
O7 C9 1.353 . S
O8 U6 2.458 . S
O8 C9 1.286 . S
C9 U6 2.984 . S
C9 O7 1.353 . S
C9 O8 1.286 . S
C9 C11 1.363 . S
C10 C0 1.465 . S
C10 U6 2.847 . S
C10 O24 1.249 . S
C10 O25 1.202 . S
C11 C9 1.363 . S
C11 C13 1.408 . S
C11 C16 1.342 . S
C12 C13 1.310 . S
C12 C15 1.461 . S
C12 H32 0.932 . S
C13 C11 1.408 . S
C13 C12 1.310 . S
C13 H33 0.930 . S
C14 C15 1.474 . S
C14 C16 1.285 . S
C14 H34 0.929 . S
C15 C12 1.461 . S
C15 C14 1.474 . S
C16 C11 1.342 . S
C16 C14 1.285 . S
C16 H35 0.930 . S
C17 C20 1.424 . S
C17 C22 1.245 . S
C17 C23 1.428 . S
C18 C21 1.260 . S
C18 C22 1.477 . S
C18 H36 0.932 . S
C19 C20 1.384 . S
C19 C21 1.479 . S
C19 H37 0.929 . S
C20 C17 1.424 . S
C20 C19 1.384 . S
C20 H38 0.928 . S
C21 C18 1.260 . S
C21 C19 1.479 . S
C22 C17 1.245 . S
C22 C18 1.477 . S
C22 H39 0.932 . S
C23 U6 2.882 . S
C23 C17 1.428 . S
C23 O26 1.301 . S
C23 O27 1.282 . S
O24 U6 2.441 . S
O24 C10 1.249 . S
O25 U6 2.420 . S
O25 C10 1.202 . S
O26 U6 2.455 . S
O26 C23 1.301 . S
O27 U6 2.449 . S
O27 C23 1.282 . S
H28 C1 0.931 . S
H29 C3 0.929 . S
H30 C4 0.930 . S
H31 C5 0.931 . S
H32 C12 0.932 . S
H33 C13 0.930 . S
H34 C14 0.929 . S
H35 C16 0.930 . S
H36 C18 0.932 . S
H37 C19 0.929 . S
H38 C20 0.928 . S
H39 C22 0.932 . S
C40 C41 1.264 . S
C40 C45 1.488 . S
C40 C50 1.465 1_545 S
C41 C40 1.264 . S
C41 C43 1.339 . S
C41 H68 0.931 . S
C42 C43 1.395 . S
C42 C44 1.320 . S
C43 C41 1.339 . S
C43 C42 1.395 . S
C43 H69 0.929 . S
C44 C42 1.320 . S
C44 C45 1.450 . S
C44 H70 0.930 . S
C45 C40 1.488 . S
C45 C44 1.450 . S
C45 H71 0.892 1_545 S
U46 O47 2.454 . S
U46 O48 2.458 . S
U46 C49 2.984 . S
U46 C50 2.847 . S
U46 C63 2.882 . S
U46 O64 2.441 . S
U46 O65 2.420 . S
U46 O66 2.455 . S
U46 O67 2.449 . S
O47 U46 2.454 . S
O47 C49 1.353 . S
O48 U46 2.458 . S
O48 C49 1.286 . S
C49 U46 2.984 . S
C49 O47 1.353 . S
C49 O48 1.286 . S
C49 C51 1.363 . S
C50 C40 1.465 1_565 S
C50 U46 2.847 . S
C50 O64 1.249 . S
C50 O65 1.202 . S
C51 C49 1.363 . S
C51 C53 1.408 . S
C51 C56 1.342 . S
C52 C53 1.310 . S
C52 C55 1.461 . S
C52 H72 0.932 . S
C53 C51 1.408 . S
C53 C52 1.310 . S
C53 H73 0.930 . S
C54 C55 1.474 . S
C54 C56 1.285 . S
C54 H74 0.929 . S
C55 C52 1.461 . S
C55 C54 1.474 . S
C56 C51 1.342 . S
C56 C54 1.285 . S
C56 H75 0.930 . S
C57 C60 1.406 1_565 S
C57 C62 1.244 . S
C57 C63 1.438 . S
C58 C61 1.260 . S
C58 C62 1.452 1_545 S
C58 H76 0.956 . S
C59 C60 1.384 . S
C59 C61 1.479 . S
C59 H77 0.929 . S
C60 C57 1.406 1_545 S
C60 C59 1.384 . S
C60 H78 0.928 . S
C61 C58 1.260 . S
C61 C59 1.479 . S
C62 C57 1.244 . S
C62 C58 1.452 1_565 S
C62 H79 0.966 . S
C63 U46 2.882 . S
C63 C57 1.438 . S
C63 O66 1.301 . S
C63 O67 1.282 . S
O64 U46 2.441 . S
O64 C50 1.249 . S
O65 U46 2.420 . S
O65 C50 1.202 . S
O66 U46 2.455 . S
O66 C63 1.301 . S
O67 U46 2.449 . S
O67 C63 1.282 . S
H68 C41 0.931 . S
H69 C43 0.929 . S
H70 C44 0.930 . S
H71 C45 0.892 1_565 S
H72 C52 0.932 . S
H73 C53 0.930 . S
H74 C54 0.929 . S
H75 C56 0.930 . S
H76 C58 0.956 . S
H77 C59 0.929 . S
H78 C60 0.928 . S
H79 C62 0.966 . S
C80 C81 1.264 . S
C80 C85 1.479 . S
C80 C90 1.465 . S
C81 C80 1.264 . S
C81 C83 1.339 . S
C81 H108 0.931 . S
C82 C83 1.395 . S
C82 C84 1.320 . S
C83 C81 1.339 . S
C83 C82 1.395 . S
C83 H109 0.929 . S
C84 C82 1.320 . S
C84 C85 1.405 . S
C84 H110 0.930 . S
C85 C80 1.479 . S
C85 C84 1.405 . S
C85 H111 0.931 . S
U86 O87 2.454 . S
U86 O88 2.458 . S
U86 C89 2.984 . S
U86 C90 2.847 . S
U86 C103 2.882 . S
U86 O104 2.441 . S
U86 O105 2.420 . S
U86 O106 2.455 . S
U86 O107 2.449 . S
O87 U86 2.454 . S
O87 C89 1.353 . S
O88 U86 2.458 . S
O88 C89 1.286 . S
C89 U86 2.984 . S
C89 O87 1.353 . S
C89 O88 1.286 . S
C89 C91 1.363 . S
C90 C80 1.465 . S
C90 U86 2.847 . S
C90 O104 1.249 . S
C90 O105 1.202 . S
C91 C89 1.363 . S
C91 C93 1.408 . S
C91 C96 1.342 . S
C92 C93 1.310 . S
C92 C95 1.461 . S
C92 H112 0.932 . S
C93 C91 1.408 . S
C93 C92 1.310 . S
C93 H113 0.930 . S
C94 C95 1.474 . S
C94 C96 1.285 . S
C94 H114 0.929 . S
C95 C92 1.461 . S
C95 C94 1.474 . S
C96 C91 1.342 . S
C96 C94 1.285 . S
C96 H115 0.930 . S
C97 C100 1.424 . S
C97 C102 1.245 . S
C97 C103 1.428 . S
C98 C101 1.260 . S
C98 C102 1.477 . S
C98 H116 0.932 . S
C99 C100 1.384 . S
C99 C101 1.479 . S
C99 H117 0.929 . S
C100 C97 1.424 . S
C100 C99 1.384 . S
C100 H118 0.928 . S
C101 C98 1.260 . S
C101 C99 1.479 . S
C102 C97 1.245 . S
C102 C98 1.477 . S
C102 H119 0.932 . S
C103 U86 2.882 . S
C103 C97 1.428 . S
C103 O106 1.301 . S
C103 O107 1.282 . S
O104 U86 2.441 . S
O104 C90 1.249 . S
O105 U86 2.420 . S
O105 C90 1.202 . S
O106 U86 2.455 . S
O106 C103 1.301 . S
O107 U86 2.449 . S
O107 C103 1.282 . S
H108 C81 0.931 . S
H109 C83 0.929 . S
H110 C84 0.930 . S
H111 C85 0.931 . S
H112 C92 0.932 . S
H113 C93 0.930 . S
H114 C94 0.929 . S
H115 C96 0.930 . S
H116 C98 0.932 . S
H117 C99 0.929 . S
H118 C100 0.928 . S
H119 C102 0.932 . S
C120 C121 1.264 . S
C120 C125 1.479 1_554 S
C120 C130 1.465 1_565 S
C121 C120 1.264 . S
C121 C123 1.339 . S
C121 H148 0.931 . S
C122 C123 1.395 1_556 S
C122 C124 1.320 . S
C123 C121 1.339 . S
C123 C122 1.395 1_554 S
C123 H149 0.929 . S
C124 C122 1.320 . S
C124 C125 1.405 . S
C124 H150 0.930 . S
C125 C120 1.479 1_556 S
C125 C124 1.405 . S
C125 H151 0.931 1_565 S
U126 O127 2.454 1_554 S
U126 O128 2.458 . S
U126 C129 2.984 1_554 S
U126 C130 2.847 . S
U126 C143 2.882 . S
U126 O144 2.441 . S
U126 O145 2.420 . S
U126 O146 2.455 . S
U126 O147 2.449 . S
O127 U126 2.454 1_556 S
O127 C129 1.353 . S
O128 U126 2.458 . S
O128 C129 1.286 1_554 S
C129 U126 2.984 1_556 S
C129 O127 1.353 . S
C129 O128 1.286 1_556 S
C129 C131 1.363 . S
C130 C120 1.465 1_545 S
C130 U126 2.847 . S
C130 O144 1.249 . S
C130 O145 1.202 . S
C131 C129 1.363 . S
C131 C133 1.408 . S
C131 C136 1.342 . S
C132 C133 1.310 . S
C132 C135 1.461 . S
C132 H152 0.932 . S
C133 C131 1.408 . S
C133 C132 1.310 . S
C133 H153 0.930 . S
C134 C135 1.474 . S
C134 C136 1.285 . S
C134 H154 0.929 . S
C135 C132 1.461 . S
C135 C134 1.474 . S
C136 C131 1.342 . S
C136 C134 1.285 . S
C136 H155 0.930 1_556 S
C137 C140 1.408 1_545 S
C137 C142 1.244 . S
C137 C143 1.437 . S
C138 C141 1.260 . S
C138 C142 1.453 1_565 S
C138 H156 0.956 . S
C139 C140 1.384 . S
C139 C141 1.479 . S
C139 H157 0.929 . S
C140 C137 1.408 1_565 S
C140 C139 1.384 . S
C140 H158 0.928 . S
C141 C138 1.260 . S
C141 C139 1.479 . S
C142 C137 1.244 . S
C142 C138 1.453 1_545 S
C142 H159 0.966 . S
C143 U126 2.882 . S
C143 C137 1.437 . S
C143 O146 1.301 . S
C143 O147 1.282 . S
O144 U126 2.441 . S
O144 C130 1.249 . S
O145 U126 2.420 . S
O145 C130 1.202 . S
O146 U126 2.455 . S
O146 C143 1.301 . S
O147 U126 2.449 . S
O147 C143 1.282 . S
H148 C121 0.931 . S
H149 C123 0.929 . S
H150 C124 0.930 . S
H151 C125 0.931 1_545 S
H152 C132 0.932 . S
H153 C133 0.930 . S
H154 C134 0.929 . S
H155 C136 0.930 1_554 S
H156 C138 0.956 . S
H157 C139 0.929 . S
H158 C140 0.928 . S
H159 C142 0.966 . S
C160 C161 1.264 . S
C160 C165 1.479 . S
C160 C170 1.465 . S
C161 C160 1.264 . S
C161 C163 1.339 . S
C161 H188 0.931 . S
C162 C163 1.395 . S
C162 C164 1.320 . S
C163 C161 1.339 . S
C163 C162 1.395 . S
C163 H189 0.929 . S
C164 C162 1.320 . S
C164 C165 1.405 . S
C164 H190 0.930 . S
C165 C160 1.479 . S
C165 C164 1.405 . S
C165 H191 0.931 . S
U166 O167 2.454 . S
U166 O168 2.458 . S
U166 C169 2.984 . S
U166 C170 2.847 . S
U166 C183 2.882 . S
U166 O184 2.441 . S
U166 O185 2.420 . S
U166 O186 2.455 . S
U166 O187 2.449 . S
O167 U166 2.454 . S
O167 C169 1.353 . S
O168 U166 2.458 . S
O168 C169 1.286 . S
C169 U166 2.984 . S
C169 O167 1.353 . S
C169 O168 1.286 . S
C169 C171 1.363 . S
C170 C160 1.465 . S
C170 U166 2.847 . S
C170 O184 1.249 . S
C170 O185 1.202 . S
C171 C169 1.363 . S
C171 C173 1.408 . S
C171 C176 1.342 . S
C172 C173 1.310 . S
C172 C175 1.461 . S
C172 H192 0.932 . S
C173 C171 1.408 . S
C173 C172 1.310 . S
C173 H193 0.930 . S
C174 C175 1.474 . S
C174 C176 1.285 . S
C174 H194 0.929 . S
C175 C172 1.461 . S
C175 C174 1.474 . S
C176 C171 1.342 . S
C176 C174 1.285 . S
C176 H195 0.930 . S
C177 C180 1.424 . S
C177 C182 1.245 . S
C177 C183 1.428 . S
C178 C181 1.260 . S
C178 C182 1.477 . S
C178 H196 0.932 . S
C179 C180 1.384 . S
C179 C181 1.479 . S
C179 H197 0.929 . S
C180 C177 1.424 . S
C180 C179 1.384 . S
C180 H198 0.928 . S
C181 C178 1.260 . S
C181 C179 1.479 . S
C182 C177 1.245 . S
C182 C178 1.477 . S
C182 H199 0.932 . S
C183 U166 2.882 . S
C183 C177 1.428 . S
C183 O186 1.301 . S
C183 O187 1.282 . S
O184 U166 2.441 . S
O184 C170 1.249 . S
O185 U166 2.420 . S
O185 C170 1.202 . S
O186 U166 2.455 . S
O186 C183 1.301 . S
O187 U166 2.449 . S
O187 C183 1.282 . S
H188 C161 0.931 . S
H189 C163 0.929 . S
H190 C164 0.930 . S
H191 C165 0.931 . S
H192 C172 0.932 . S
H193 C173 0.930 . S
H194 C174 0.929 . S
H195 C176 0.930 . S
H196 C178 0.932 . S
H197 C179 0.929 . S
H198 C180 0.928 . S
H199 C182 0.932 . S
C200 C201 1.264 . S
C200 C205 1.479 . S
C200 C210 1.465 1_545 S
C201 C200 1.264 . S
C201 C203 1.339 . S
C201 H228 0.931 . S
C202 C203 1.395 . S
C202 C204 1.320 . S
C203 C201 1.339 . S
C203 C202 1.395 . S
C203 H229 0.929 . S
C204 C202 1.320 . S
C204 C205 1.405 . S
C204 H230 0.930 . S
C205 C200 1.479 . S
C205 C204 1.405 . S
C205 H231 0.931 1_545 S
U206 O207 2.454 . S
U206 O208 2.458 . S
U206 C209 2.984 . S
U206 C210 2.847 . S
U206 C223 2.882 . S
U206 O224 2.441 . S
U206 O225 2.420 . S
U206 O226 2.455 . S
U206 O227 2.449 . S
O207 U206 2.454 . S
O207 C209 1.353 . S
O208 U206 2.458 . S
O208 C209 1.286 . S
C209 U206 2.984 . S
C209 O207 1.353 . S
C209 O208 1.286 . S
C209 C211 1.363 . S
C210 C200 1.465 1_565 S
C210 U206 2.847 . S
C210 O224 1.249 . S
C210 O225 1.202 . S
C211 C209 1.363 . S
C211 C213 1.408 . S
C211 C216 1.342 . S
C212 C213 1.310 . S
C212 C215 1.461 . S
C212 H232 0.932 . S
C213 C211 1.408 . S
C213 C212 1.310 . S
C213 H233 0.930 . S
C214 C215 1.474 . S
C214 C216 1.285 . S
C214 H234 0.929 . S
C215 C212 1.461 . S
C215 C214 1.474 . S
C216 C211 1.342 . S
C216 C214 1.285 . S
C216 H235 0.930 . S
C217 C220 1.408 1_565 S
C217 C222 1.244 . S
C217 C223 1.437 . S
C218 C221 1.260 . S
C218 C222 1.453 1_545 S
C218 H236 0.956 . S
C219 C220 1.384 . S
C219 C221 1.479 . S
C219 H237 0.929 . S
C220 C217 1.408 1_545 S
C220 C219 1.384 . S
C220 H238 0.928 . S
C221 C218 1.260 . S
C221 C219 1.479 . S
C222 C217 1.244 . S
C222 C218 1.453 1_565 S
C222 H239 0.966 . S
C223 U206 2.882 . S
C223 C217 1.437 . S
C223 O226 1.301 . S
C223 O227 1.282 . S
O224 U206 2.441 . S
O224 C210 1.249 . S
O225 U206 2.420 . S
O225 C210 1.202 . S
O226 U206 2.455 . S
O226 C223 1.301 . S
O227 U206 2.449 . S
O227 C223 1.282 . S
H228 C201 0.931 . S
H229 C203 0.929 . S
H230 C204 0.930 . S
H231 C205 0.931 1_565 S
H232 C212 0.932 . S
H233 C213 0.930 . S
H234 C214 0.929 . S
H235 C216 0.930 . S
H236 C218 0.956 . S
H237 C219 0.929 . S
H238 C220 0.928 . S
H239 C222 0.966 . S
C240 C241 1.264 . S
C240 C245 1.479 . S
C240 C250 1.465 . S
C241 C240 1.264 . S
C241 C243 1.339 . S
C241 H268 0.931 . S
C242 C243 1.395 . S
C242 C244 1.320 . S
C243 C241 1.339 . S
C243 C242 1.395 . S
C243 H269 0.929 . S
C244 C242 1.320 . S
C244 C245 1.405 . S
C244 H270 0.930 . S
C245 C240 1.479 . S
C245 C244 1.405 . S
C245 H271 0.931 . S
U246 O247 2.454 . S
U246 O248 2.458 . S
U246 C249 2.984 . S
U246 C250 2.847 . S
U246 C263 2.882 . S
U246 O264 2.441 . S
U246 O265 2.420 . S
U246 O266 2.455 . S
U246 O267 2.449 . S
O247 U246 2.454 . S
O247 C249 1.353 . S
O248 U246 2.458 . S
O248 C249 1.286 . S
C249 U246 2.984 . S
C249 O247 1.353 . S
C249 O248 1.286 . S
C249 C251 1.363 . S
C250 C240 1.465 . S
C250 U246 2.847 . S
C250 O264 1.249 . S
C250 O265 1.202 . S
C251 C249 1.363 . S
C251 C253 1.408 . S
C251 C256 1.342 . S
C252 C253 1.310 . S
C252 C255 1.461 . S
C252 H272 0.932 . S
C253 C251 1.408 . S
C253 C252 1.310 . S
C253 H273 0.930 . S
C254 C255 1.474 . S
C254 C256 1.285 . S
C254 H274 0.929 . S
C255 C252 1.461 . S
C255 C254 1.474 . S
C256 C251 1.342 . S
C256 C254 1.285 . S
C256 H275 0.930 . S
C257 C260 1.424 . S
C257 C262 1.245 . S
C257 C263 1.428 . S
C258 C261 1.260 . S
C258 C262 1.477 . S
C258 H276 0.932 . S
C259 C260 1.384 . S
C259 C261 1.479 . S
C259 H277 0.929 . S
C260 C257 1.424 . S
C260 C259 1.384 . S
C260 H278 0.928 . S
C261 C258 1.260 . S
C261 C259 1.479 . S
C262 C257 1.245 . S
C262 C258 1.477 . S
C262 H279 0.932 . S
C263 U246 2.882 . S
C263 C257 1.428 . S
C263 O266 1.301 . S
C263 O267 1.282 . S
O264 U246 2.441 . S
O264 C250 1.249 . S
O265 U246 2.420 . S
O265 C250 1.202 . S
O266 U246 2.455 . S
O266 C263 1.301 . S
O267 U246 2.449 . S
O267 C263 1.282 . S
H268 C241 0.931 . S
H269 C243 0.929 . S
H270 C244 0.930 . S
H271 C245 0.931 . S
H272 C252 0.932 . S
H273 C253 0.930 . S
H274 C254 0.929 . S
H275 C256 0.930 . S
H276 C258 0.932 . S
H277 C259 0.929 . S
H278 C260 0.928 . S
H279 C262 0.932 . S
C280 C281 1.264 . S
C280 C285 1.488 1_556 S
C280 C290 1.465 1_565 S
C281 C280 1.264 . S
C281 C283 1.339 . S
C281 H308 0.931 . S
C282 C283 1.350 1_554 S
C282 C284 1.355 . S
C283 C281 1.339 . S
C283 C282 1.350 1_556 S
C283 H309 0.929 . S
C284 C282 1.355 . S
C284 C285 1.450 . S
C284 H310 0.930 . S
C285 C280 1.488 1_554 S
C285 C284 1.450 . S
C285 H311 0.892 1_565 S
U286 O287 2.454 1_556 S
U286 O288 2.458 . S
U286 C289 2.984 1_556 S
U286 C290 2.847 . S
U286 C303 2.882 . S
U286 O304 2.441 . S
U286 O305 2.420 . S
U286 O306 2.455 . S
U286 O307 2.449 . S
O287 U286 2.454 1_554 S
O287 C289 1.353 . S
O288 U286 2.458 . S
O288 C289 1.286 1_556 S
C289 U286 2.984 1_554 S
C289 O287 1.353 . S
C289 O288 1.286 1_554 S
C289 C291 1.363 . S
C290 C280 1.465 1_545 S
C290 U286 2.847 . S
C290 O304 1.249 . S
C290 O305 1.202 . S
C291 C289 1.363 . S
C291 C293 1.408 . S
C291 C296 1.342 . S
C292 C293 1.310 . S
C292 C295 1.461 . S
C292 H312 0.932 . S
C293 C291 1.408 . S
C293 C292 1.310 . S
C293 H313 0.930 . S
C294 C295 1.474 . S
C294 C296 1.285 . S
C294 H314 0.929 . S
C295 C292 1.461 . S
C295 C294 1.474 . S
C296 C291 1.342 . S
C296 C294 1.285 . S
C296 H315 0.930 1_554 S
C297 C300 1.406 1_545 S
C297 C302 1.244 . S
C297 C303 1.438 . S
C298 C301 1.260 . S
C298 C302 1.452 1_565 S
C298 H316 0.956 . S
C299 C300 1.384 . S
C299 C301 1.479 . S
C299 H317 0.929 . S
C300 C297 1.406 1_565 S
C300 C299 1.384 . S
C300 H318 0.928 . S
C301 C298 1.260 . S
C301 C299 1.479 . S
C302 C297 1.244 . S
C302 C298 1.452 1_545 S
C302 H319 0.966 . S
C303 U286 2.882 . S
C303 C297 1.438 . S
C303 O306 1.301 . S
C303 O307 1.282 . S
O304 U286 2.441 . S
O304 C290 1.249 . S
O305 U286 2.420 . S
O305 C290 1.202 . S
O306 U286 2.455 . S
O306 C303 1.301 . S
O307 U286 2.449 . S
O307 C303 1.282 . S
H308 C281 0.931 . S
H309 C283 0.929 . S
H310 C284 0.930 . S
H311 C285 0.892 1_545 S
H312 C292 0.932 . S
H313 C293 0.930 . S
H314 C294 0.929 . S
H315 C296 0.930 1_556 S
H316 C298 0.956 . S
H317 C299 0.929 . S
H318 C300 0.928 . S
H319 C302 0.966 . S
C320 C321 1.264 . S
C320 C325 1.479 . S
C320 C330 1.465 . S
C321 C320 1.264 . S
C321 C323 1.339 . S
C321 H348 0.931 . S
C322 C323 1.395 . S
C322 C324 1.320 . S
C323 C321 1.339 . S
C323 C322 1.395 . S
C323 H349 0.929 . S
C324 C322 1.320 . S
C324 C325 1.405 . S
C324 H350 0.930 . S
C325 C320 1.479 . S
C325 C324 1.405 . S
C325 H351 0.931 . S
U326 O327 2.454 . S
U326 O328 2.458 . S
U326 C329 2.984 . S
U326 C330 2.847 . S
U326 C343 2.882 . S
U326 O344 2.441 . S
U326 O345 2.420 . S
U326 O346 2.455 . S
U326 O347 2.449 . S
O327 U326 2.454 . S
O327 C329 1.353 . S
O328 U326 2.458 . S
O328 C329 1.286 . S
C329 U326 2.984 . S
C329 O327 1.353 . S
C329 O328 1.286 . S
C329 C331 1.363 . S
C330 C320 1.465 . S
C330 U326 2.847 . S
C330 O344 1.249 . S
C330 O345 1.202 . S
C331 C329 1.363 . S
C331 C333 1.408 . S
C331 C336 1.342 . S
C332 C333 1.310 . S
C332 C335 1.461 . S
C332 H352 0.932 . S
C333 C331 1.408 . S
C333 C332 1.310 . S
C333 H353 0.930 . S
C334 C335 1.474 . S
C334 C336 1.285 . S
C334 H354 0.929 . S
C335 C332 1.461 . S
C335 C334 1.474 . S
C336 C331 1.342 . S
C336 C334 1.285 . S
C336 H355 0.930 . S
C337 C340 1.424 . S
C337 C342 1.245 . S
C337 C343 1.428 . S
C338 C341 1.260 . S
C338 C342 1.477 . S
C338 H356 0.932 . S
C339 C340 1.384 . S
C339 C341 1.479 . S
C339 H357 0.929 . S
C340 C337 1.424 . S
C340 C339 1.384 . S
C340 H358 0.928 . S
C341 C338 1.260 . S
C341 C339 1.479 . S
C342 C337 1.245 . S
C342 C338 1.477 . S
C342 H359 0.932 . S
C343 U326 2.882 . S
C343 C337 1.428 . S
C343 O346 1.301 . S
C343 O347 1.282 . S
O344 U326 2.441 . S
O344 C330 1.249 . S
O345 U326 2.420 . S
O345 C330 1.202 . S
O346 U326 2.455 . S
O346 C343 1.301 . S
O347 U326 2.449 . S
O347 C343 1.282 . S
H348 C321 0.931 . S
H349 C323 0.929 . S
H350 C324 0.930 . S
H351 C325 0.931 . S
H352 C332 0.932 . S
H353 C333 0.930 . S
H354 C334 0.929 . S
H355 C336 0.930 . S
H356 C338 0.932 . S
H357 C339 0.929 . S
H358 C340 0.928 . S
H359 C342 0.932 . S
C360 C361 1.300 . S
C360 C365 1.475 . S
C360 C370 1.434 1_565 S
C361 C360 1.300 . S
C361 C363 1.339 . S
C361 H388 0.931 . S
C362 C363 1.395 . S
C362 C364 1.320 . S
C363 C361 1.339 . S
C363 C362 1.395 . S
C363 H389 0.929 . S
C364 C362 1.320 . S
C364 C365 1.401 . S
C364 H390 0.930 . S
C365 C360 1.475 . S
C365 C364 1.401 . S
C365 H391 0.935 1_565 S
U366 O367 2.454 . S
U366 O368 2.458 . S
U366 C369 2.984 . S
U366 C370 2.847 . S
U366 C383 2.882 . S
U366 O384 2.441 . S
U366 O385 2.420 . S
U366 O386 2.455 . S
U366 O387 2.449 . S
O367 U366 2.454 . S
O367 C369 1.353 . S
O368 U366 2.458 . S
O368 C369 1.286 . S
C369 U366 2.984 . S
C369 O367 1.353 . S
C369 O368 1.286 . S
C369 C371 1.363 . S
C370 C360 1.434 1_545 S
C370 U366 2.847 . S
C370 O384 1.249 . S
C370 O385 1.202 . S
C371 C369 1.363 . S
C371 C373 1.408 . S
C371 C376 1.342 . S
C372 C373 1.310 . S
C372 C375 1.461 . S
C372 H392 0.932 . S
C373 C371 1.408 . S
C373 C372 1.310 . S
C373 H393 0.930 . S
C374 C375 1.474 . S
C374 C376 1.285 . S
C374 H394 0.929 . S
C375 C372 1.461 . S
C375 C374 1.474 . S
C376 C371 1.342 . S
C376 C374 1.285 . S
C376 H395 0.930 . S
C377 C380 1.453 . S
C377 C382 1.244 . S
C377 C383 1.412 1_565 S
C378 C381 1.260 . S
C378 C382 1.483 . S
C378 H396 0.932 . S
C379 C380 1.384 . S
C379 C381 1.479 . S
C379 H397 0.929 . S
C380 C377 1.453 . S
C380 C379 1.384 . S
C380 H398 0.928 . S
C381 C378 1.260 . S
C381 C379 1.479 . S
C382 C377 1.244 . S
C382 C378 1.483 . S
C382 H399 0.926 1_565 S
C383 U366 2.882 . S
C383 C377 1.412 1_545 S
C383 O386 1.301 . S
C383 O387 1.282 . S
O384 U366 2.441 . S
O384 C370 1.249 . S
O385 U366 2.420 . S
O385 C370 1.202 . S
O386 U366 2.455 . S
O386 C383 1.301 . S
O387 U366 2.449 . S
O387 C383 1.282 . S
H388 C361 0.931 . S
H389 C363 0.929 . S
H390 C364 0.930 . S
H391 C365 0.935 1_545 S
H392 C372 0.932 . S
H393 C373 0.930 . S
H394 C374 0.929 . S
H395 C376 0.930 . S
H396 C378 0.932 . S
H397 C379 0.929 . S
H398 C380 0.928 . S
H399 C382 0.926 1_545 S
C400 C401 1.264 . S
C400 C405 1.479 . S
C400 C410 1.465 . S
C401 C400 1.264 . S
C401 C403 1.339 . S
C401 H428 0.931 . S
C402 C403 1.395 . S
C402 C404 1.320 . S
C403 C401 1.339 . S
C403 C402 1.395 . S
C403 H429 0.929 . S
C404 C402 1.320 . S
C404 C405 1.405 . S
C404 H430 0.930 . S
C405 C400 1.479 . S
C405 C404 1.405 . S
C405 H431 0.931 . S
U406 O407 2.454 . S
U406 O408 2.458 . S
U406 C409 2.984 . S
U406 C410 2.847 . S
U406 C423 2.882 . S
U406 O424 2.441 . S
U406 O425 2.420 . S
U406 O426 2.455 . S
U406 O427 2.449 . S
O407 U406 2.454 . S
O407 C409 1.353 . S
O408 U406 2.458 . S
O408 C409 1.286 . S
C409 U406 2.984 . S
C409 O407 1.353 . S
C409 O408 1.286 . S
C409 C411 1.363 . S
C410 C400 1.465 . S
C410 U406 2.847 . S
C410 O424 1.249 . S
C410 O425 1.202 . S
C411 C409 1.363 . S
C411 C413 1.408 . S
C411 C416 1.342 . S
C412 C413 1.310 . S
C412 C415 1.461 . S
C412 H432 0.932 . S
C413 C411 1.408 . S
C413 C412 1.310 . S
C413 H433 0.930 . S
C414 C415 1.474 . S
C414 C416 1.285 . S
C414 H434 0.929 . S
C415 C412 1.461 . S
C415 C414 1.474 . S
C416 C411 1.342 . S
C416 C414 1.285 . S
C416 H435 0.930 . S
C417 C420 1.424 . S
C417 C422 1.245 . S
C417 C423 1.428 . S
C418 C421 1.260 . S
C418 C422 1.477 . S
C418 H436 0.932 . S
C419 C420 1.384 . S
C419 C421 1.479 . S
C419 H437 0.929 . S
C420 C417 1.424 . S
C420 C419 1.384 . S
C420 H438 0.928 . S
C421 C418 1.260 . S
C421 C419 1.479 . S
C422 C417 1.245 . S
C422 C418 1.477 . S
C422 H439 0.932 . S
C423 U406 2.882 . S
C423 C417 1.428 . S
C423 O426 1.301 . S
C423 O427 1.282 . S
O424 U406 2.441 . S
O424 C410 1.249 . S
O425 U406 2.420 . S
O425 C410 1.202 . S
O426 U406 2.455 . S
O426 C423 1.301 . S
O427 U406 2.449 . S
O427 C423 1.282 . S
H428 C401 0.931 . S
H429 C403 0.929 . S
H430 C404 0.930 . S
H431 C405 0.931 . S
H432 C412 0.932 . S
H433 C413 0.930 . S
H434 C414 0.929 . S
H435 C416 0.930 . S
H436 C418 0.932 . S
H437 C419 0.929 . S
H438 C420 0.928 . S
H439 C422 0.932 . S
C440 C441 1.264 . S
C440 C445 1.479 1_556 S
C440 C450 1.465 . S
C441 C440 1.264 . S
C441 C443 1.339 . S
C441 H468 0.931 . S
C442 C443 1.395 1_554 S
C442 C444 1.320 . S
C443 C441 1.339 . S
C443 C442 1.395 1_556 S
C443 H469 0.929 . S
C444 C442 1.320 . S
C444 C445 1.405 . S
C444 H470 0.930 . S
C445 C440 1.479 1_554 S
C445 C444 1.405 . S
C445 H471 0.931 . S
U446 O447 2.454 1_546 S
U446 O448 2.458 1_545 S
U446 C449 2.984 1_546 S
U446 C450 2.847 . S
U446 C463 2.882 . S
U446 O464 2.441 1_556 S
U446 O465 2.420 . S
U446 O466 2.455 . S
U446 O467 2.449 . S
O447 U446 2.454 1_564 S
O447 C449 1.353 . S
O448 U446 2.458 1_565 S
O448 C449 1.286 1_556 S
C449 U446 2.984 1_564 S
C449 O447 1.353 . S
C449 O448 1.286 1_554 S
C449 C451 1.363 . S
C450 C440 1.465 . S
C450 U446 2.847 . S
C450 O464 1.249 1_556 S
C450 O465 1.202 . S
C451 C449 1.363 . S
C451 C453 1.408 . S
C451 C456 1.342 . S
C452 C453 1.310 . S
C452 C455 1.461 . S
C452 H472 0.932 . S
C453 C451 1.408 . S
C453 C452 1.310 . S
C453 H473 0.930 . S
C454 C455 1.474 . S
C454 C456 1.285 . S
C454 H474 0.929 . S
C455 C452 1.461 . S
C455 C454 1.474 . S
C456 C451 1.342 . S
C456 C454 1.285 . S
C456 H475 0.930 1_554 S
C457 C460 1.424 . S
C457 C462 1.245 . S
C457 C463 1.428 . S
C458 C461 1.260 . S
C458 C462 1.477 . S
C458 H476 0.932 . S
C459 C460 1.384 . S
C459 C461 1.479 . S
C459 H477 0.929 . S
C460 C457 1.424 . S
C460 C459 1.384 . S
C460 H478 0.928 . S
C461 C458 1.260 . S
C461 C459 1.479 . S
C462 C457 1.245 . S
C462 C458 1.477 . S
C462 H479 0.932 . S
C463 U446 2.882 . S
C463 C457 1.428 . S
C463 O466 1.301 . S
C463 O467 1.282 . S
O464 U446 2.441 1_554 S
O464 C450 1.249 1_554 S
O465 U446 2.420 . S
O465 C450 1.202 . S
O466 U446 2.455 . S
O466 C463 1.301 . S
O467 U446 2.449 . S
O467 C463 1.282 . S
H468 C441 0.931 . S
H469 C443 0.929 . S
H470 C444 0.930 . S
H471 C445 0.931 . S
H472 C452 0.932 . S
H473 C453 0.930 . S
H474 C454 0.929 . S
H475 C456 0.930 1_556 S
H476 C458 0.932 . S
H477 C459 0.929 . S
H478 C460 0.928 . S
H479 C462 0.932 . S
C480 C481 1.264 . S
C480 C485 1.479 . S
C480 C490 1.465 . S
C481 C480 1.264 . S
C481 C483 1.339 . S
C481 H508 0.931 . S
C482 C483 1.395 . S
C482 C484 1.320 . S
C483 C481 1.339 . S
C483 C482 1.395 . S
C483 H509 0.929 . S
C484 C482 1.320 . S
C484 C485 1.405 . S
C484 H510 0.930 . S
C485 C480 1.479 . S
C485 C484 1.405 . S
C485 H511 0.931 . S
U486 O487 2.454 . S
U486 O488 2.458 . S
U486 C489 2.984 . S
U486 C490 2.847 . S
U486 C503 2.882 . S
U486 O504 2.441 . S
U486 O505 2.420 . S
U486 O506 2.455 . S
U486 O507 2.449 . S
O487 U486 2.454 . S
O487 C489 1.353 . S
O488 U486 2.458 . S
O488 C489 1.286 . S
C489 U486 2.984 . S
C489 O487 1.353 . S
C489 O488 1.286 . S
C489 C491 1.363 . S
C490 C480 1.465 . S
C490 U486 2.847 . S
C490 O504 1.249 . S
C490 O505 1.202 . S
C491 C489 1.363 . S
C491 C493 1.408 . S
C491 C496 1.342 . S
C492 C493 1.310 . S
C492 C495 1.461 . S
C492 H512 0.932 . S
C493 C491 1.408 . S
C493 C492 1.310 . S
C493 H513 0.930 . S
C494 C495 1.474 . S
C494 C496 1.285 . S
C494 H514 0.929 . S
C495 C492 1.461 . S
C495 C494 1.474 . S
C496 C491 1.342 . S
C496 C494 1.285 . S
C496 H515 0.930 . S
C497 C500 1.424 . S
C497 C502 1.245 . S
C497 C503 1.428 . S
C498 C501 1.260 . S
C498 C502 1.477 . S
C498 H516 0.932 . S
C499 C500 1.384 . S
C499 C501 1.479 . S
C499 H517 0.929 . S
C500 C497 1.424 . S
C500 C499 1.384 . S
C500 H518 0.928 . S
C501 C498 1.260 . S
C501 C499 1.479 . S
C502 C497 1.245 . S
C502 C498 1.477 . S
C502 H519 0.932 . S
C503 U486 2.882 . S
C503 C497 1.428 . S
C503 O506 1.301 . S
C503 O507 1.282 . S
O504 U486 2.441 . S
O504 C490 1.249 . S
O505 U486 2.420 . S
O505 C490 1.202 . S
O506 U486 2.455 . S
O506 C503 1.301 . S
O507 U486 2.449 . S
O507 C503 1.282 . S
H508 C481 0.931 . S
H509 C483 0.929 . S
H510 C484 0.930 . S
H511 C485 0.931 . S
H512 C492 0.932 . S
H513 C493 0.930 . S
H514 C494 0.929 . S
H515 C496 0.930 . S
H516 C498 0.932 . S
H517 C499 0.929 . S
H518 C500 0.928 . S
H519 C502 0.932 . S
C520 C521 1.264 . S
C520 C525 1.479 . S
C520 C530 1.465 . S
C521 C520 1.264 . S
C521 C523 1.339 . S
C521 H548 0.931 . S
C522 C523 1.395 . S
C522 C524 1.320 . S
C523 C521 1.339 . S
C523 C522 1.395 . S
C523 H549 0.929 . S
C524 C522 1.320 . S
C524 C525 1.405 . S
C524 H550 0.930 . S
C525 C520 1.479 . S
C525 C524 1.405 . S
C525 H551 0.931 . S
U526 O527 2.454 1_565 S
U526 O528 2.458 1_565 S
U526 C529 2.984 1_565 S
U526 C530 2.847 . S
U526 C543 2.882 . S
U526 O544 2.441 . S
U526 O545 2.420 . S
U526 O546 2.455 . S
U526 O547 2.449 . S
O527 U526 2.454 1_545 S
O527 C529 1.353 . S
O528 U526 2.458 1_545 S
O528 C529 1.286 . S
C529 U526 2.984 1_545 S
C529 O527 1.353 . S
C529 O528 1.286 . S
C529 C531 1.363 . S
C530 C520 1.465 . S
C530 U526 2.847 . S
C530 O544 1.249 . S
C530 O545 1.202 . S
C531 C529 1.363 . S
C531 C533 1.408 . S
C531 C536 1.342 . S
C532 C533 1.310 . S
C532 C535 1.461 . S
C532 H552 0.932 . S
C533 C531 1.408 . S
C533 C532 1.310 . S
C533 H553 0.930 . S
C534 C535 1.474 . S
C534 C536 1.285 . S
C534 H554 0.929 . S
C535 C532 1.461 . S
C535 C534 1.474 . S
C536 C531 1.342 . S
C536 C534 1.285 . S
C536 H555 0.930 . S
C537 C540 1.424 . S
C537 C542 1.245 . S
C537 C543 1.428 . S
C538 C541 1.260 . S
C538 C542 1.477 . S
C538 H556 0.932 . S
C539 C540 1.384 . S
C539 C541 1.479 . S
C539 H557 0.929 . S
C540 C537 1.424 . S
C540 C539 1.384 . S
C540 H558 0.928 . S
C541 C538 1.260 . S
C541 C539 1.479 . S
C542 C537 1.245 . S
C542 C538 1.477 . S
C542 H559 0.932 . S
C543 U526 2.882 . S
C543 C537 1.428 . S
C543 O546 1.301 . S
C543 O547 1.282 . S
O544 U526 2.441 . S
O544 C530 1.249 . S
O545 U526 2.420 . S
O545 C530 1.202 . S
O546 U526 2.455 . S
O546 C543 1.301 . S
O547 U526 2.449 . S
O547 C543 1.282 . S
H548 C521 0.931 . S
H549 C523 0.929 . S
H550 C524 0.930 . S
H551 C525 0.931 . S
H552 C532 0.932 . S
H553 C533 0.930 . S
H554 C534 0.929 . S
H555 C536 0.930 . S
H556 C538 0.932 . S
H557 C539 0.929 . S
H558 C540 0.928 . S
H559 C542 0.932 . S
C560 C561 1.264 . S
C560 C565 1.479 . S
C560 C570 1.465 . S
C561 C560 1.264 . S
C561 C563 1.339 . S
C561 H588 0.931 . S
C562 C563 1.395 . S
C562 C564 1.320 . S
C563 C561 1.339 . S
C563 C562 1.395 . S
C563 H589 0.929 . S
C564 C562 1.320 . S
C564 C565 1.405 . S
C564 H590 0.930 . S
C565 C560 1.479 . S
C565 C564 1.405 . S
C565 H591 0.931 . S
U566 O567 2.454 . S
U566 O568 2.458 . S
U566 C569 2.984 . S
U566 C570 2.847 . S
U566 C583 2.882 . S
U566 O584 2.441 . S
U566 O585 2.420 . S
U566 O586 2.455 . S
U566 O587 2.449 . S
O567 U566 2.454 . S
O567 C569 1.353 . S
O568 U566 2.458 . S
O568 C569 1.286 . S
C569 U566 2.984 . S
C569 O567 1.353 . S
C569 O568 1.286 . S
C569 C571 1.363 . S
C570 C560 1.465 . S
C570 U566 2.847 . S
C570 O584 1.249 . S
C570 O585 1.202 . S
C571 C569 1.363 . S
C571 C573 1.408 . S
C571 C576 1.342 . S
C572 C573 1.310 . S
C572 C575 1.461 . S
C572 H592 0.932 . S
C573 C571 1.408 . S
C573 C572 1.310 . S
C573 H593 0.930 . S
C574 C575 1.474 . S
C574 C576 1.285 . S
C574 H594 0.929 . S
C575 C572 1.461 . S
C575 C574 1.474 . S
C576 C571 1.342 . S
C576 C574 1.285 . S
C576 H595 0.930 . S
C577 C580 1.424 . S
C577 C582 1.245 . S
C577 C583 1.428 . S
C578 C581 1.260 . S
C578 C582 1.477 . S
C578 H596 0.932 . S
C579 C580 1.384 . S
C579 C581 1.479 . S
C579 H597 0.929 . S
C580 C577 1.424 . S
C580 C579 1.384 . S
C580 H598 0.928 . S
C581 C578 1.260 . S
C581 C579 1.479 . S
C582 C577 1.245 . S
C582 C578 1.477 . S
C582 H599 0.932 . S
C583 U566 2.882 . S
C583 C577 1.428 . S
C583 O586 1.301 . S
C583 O587 1.282 . S
O584 U566 2.441 . S
O584 C570 1.249 . S
O585 U566 2.420 . S
O585 C570 1.202 . S
O586 U566 2.455 . S
O586 C583 1.301 . S
O587 U566 2.449 . S
O587 C583 1.282 . S
H588 C561 0.931 . S
H589 C563 0.929 . S
H590 C564 0.930 . S
H591 C565 0.931 . S
H592 C572 0.932 . S
H593 C573 0.930 . S
H594 C574 0.929 . S
H595 C576 0.930 . S
H596 C578 0.932 . S
H597 C579 0.929 . S
H598 C580 0.928 . S
H599 C582 0.932 . S
C600 C601 1.300 . S
C600 C605 1.475 . S
C600 C610 1.434 1_545 S
C601 C600 1.300 . S
C601 C603 1.339 . S
C601 H628 0.931 . S
C602 C603 1.395 . S
C602 C604 1.320 . S
C603 C601 1.339 . S
C603 C602 1.395 . S
C603 H629 0.929 . S
C604 C602 1.320 . S
C604 C605 1.401 . S
C604 H630 0.930 . S
C605 C600 1.475 . S
C605 C604 1.401 . S
C605 H631 0.935 1_545 S
U606 O607 2.454 . S
U606 O608 2.458 1_554 S
U606 C609 2.984 1_554 S
U606 C610 2.847 . S
U606 C623 2.882 . S
U606 O624 2.441 . S
U606 O625 2.420 . S
U606 O626 2.455 . S
U606 O627 2.449 . S
O607 U606 2.454 . S
O607 C609 1.353 1_554 S
O608 U606 2.458 1_556 S
O608 C609 1.286 . S
C609 U606 2.984 1_556 S
C609 O607 1.353 1_556 S
C609 O608 1.286 . S
C609 C611 1.363 . S
C610 C600 1.434 1_565 S
C610 U606 2.847 . S
C610 O624 1.249 . S
C610 O625 1.202 . S
C611 C609 1.363 . S
C611 C613 1.408 . S
C611 C616 1.342 . S
C612 C613 1.310 . S
C612 C615 1.461 . S
C612 H632 0.932 . S
C613 C611 1.408 . S
C613 C612 1.310 . S
C613 H633 0.930 1_556 S
C614 C615 1.474 . S
C614 C616 1.285 . S
C614 H634 0.929 . S
C615 C612 1.461 . S
C615 C614 1.474 . S
C616 C611 1.342 . S
C616 C614 1.285 . S
C616 H635 0.930 . S
C617 C620 1.453 . S
C617 C622 1.244 1_554 S
C617 C623 1.412 1_545 S
C618 C621 1.260 . S
C618 C622 1.483 . S
C618 H636 0.932 . S
C619 C620 1.384 . S
C619 C621 1.479 1_554 S
C619 H637 0.929 . S
C620 C617 1.453 . S
C620 C619 1.384 . S
C620 H638 0.928 . S
C621 C618 1.260 . S
C621 C619 1.479 1_556 S
C622 C617 1.244 1_556 S
C622 C618 1.483 . S
C622 H639 0.926 1_545 S
C623 U606 2.882 . S
C623 C617 1.412 1_565 S
C623 O626 1.301 . S
C623 O627 1.282 . S
O624 U606 2.441 . S
O624 C610 1.249 . S
O625 U606 2.420 . S
O625 C610 1.202 . S
O626 U606 2.455 . S
O626 C623 1.301 . S
O627 U606 2.449 . S
O627 C623 1.282 . S
H628 C601 0.931 . S
H629 C603 0.929 . S
H630 C604 0.930 . S
H631 C605 0.935 1_565 S
H632 C612 0.932 . S
H633 C613 0.930 1_554 S
H634 C614 0.929 . S
H635 C616 0.930 . S
H636 C618 0.932 . S
H637 C619 0.929 . S
H638 C620 0.928 . S
H639 C622 0.926 1_565 S
C640 C641 1.264 . S
C640 C645 1.479 . S
C640 C650 1.465 . S
C641 C640 1.264 . S
C641 C643 1.339 . S
C641 H668 0.931 . S
C642 C643 1.395 . S
C642 C644 1.320 . S
C643 C641 1.339 . S
C643 C642 1.395 . S
C643 H669 0.929 . S
C644 C642 1.320 . S
C644 C645 1.405 . S
C644 H670 0.930 . S
C645 C640 1.479 . S
C645 C644 1.405 . S
C645 H671 0.931 . S
U646 O647 2.454 . S
U646 O648 2.458 . S
U646 C649 2.984 . S
U646 C650 2.847 . S
U646 C663 2.882 . S
U646 O664 2.441 . S
U646 O665 2.420 . S
U646 O666 2.455 . S
U646 O667 2.449 . S
O647 U646 2.454 . S
O647 C649 1.353 . S
O648 U646 2.458 . S
O648 C649 1.286 . S
C649 U646 2.984 . S
C649 O647 1.353 . S
C649 O648 1.286 . S
C649 C651 1.363 . S
C650 C640 1.465 . S
C650 U646 2.847 . S
C650 O664 1.249 . S
C650 O665 1.202 . S
C651 C649 1.363 . S
C651 C653 1.408 . S
C651 C656 1.342 . S
C652 C653 1.310 . S
C652 C655 1.461 . S
C652 H672 0.932 . S
C653 C651 1.408 . S
C653 C652 1.310 . S
C653 H673 0.930 . S
C654 C655 1.474 . S
C654 C656 1.285 . S
C654 H674 0.929 . S
C655 C652 1.461 . S
C655 C654 1.474 . S
C656 C651 1.342 . S
C656 C654 1.285 . S
C656 H675 0.930 . S
C657 C660 1.424 . S
C657 C662 1.245 . S
C657 C663 1.428 . S
C658 C661 1.260 . S
C658 C662 1.477 . S
C658 H676 0.932 . S
C659 C660 1.384 . S
C659 C661 1.479 . S
C659 H677 0.929 . S
C660 C657 1.424 . S
C660 C659 1.384 . S
C660 H678 0.928 . S
C661 C658 1.260 . S
C661 C659 1.479 . S
C662 C657 1.245 . S
C662 C658 1.477 . S
C662 H679 0.932 . S
C663 U646 2.882 . S
C663 C657 1.428 . S
C663 O666 1.301 . S
C663 O667 1.282 . S
O664 U646 2.441 . S
O664 C650 1.249 . S
O665 U646 2.420 . S
O665 C650 1.202 . S
O666 U646 2.455 . S
O666 C663 1.301 . S
O667 U646 2.449 . S
O667 C663 1.282 . S
H668 C641 0.931 . S
H669 C643 0.929 . S
H670 C644 0.930 . S
H671 C645 0.931 . S
H672 C652 0.932 . S
H673 C653 0.930 . S
H674 C654 0.929 . S
H675 C656 0.930 . S
H676 C658 0.932 . S
H677 C659 0.929 . S
H678 C660 0.928 . S
H679 C662 0.932 . S
C680 C681 1.264 . S
C680 C685 1.479 1_554 S
C680 C690 1.465 . S
C681 C680 1.264 . S
C681 C683 1.339 . S
C681 H708 0.931 . S
C682 C683 1.395 1_556 S
C682 C684 1.320 . S
C683 C681 1.339 . S
C683 C682 1.395 1_554 S
C683 H709 0.929 . S
C684 C682 1.320 . S
C684 C685 1.405 . S
C684 H710 0.930 . S
C685 C680 1.479 1_556 S
C685 C684 1.405 . S
C685 H711 0.931 . S
U686 O687 2.454 1_554 S
U686 O688 2.458 . S
U686 C689 2.984 1_554 S
U686 C690 2.847 . S
U686 C703 2.882 . S
U686 O704 2.441 . S
U686 O705 2.420 . S
U686 O706 2.455 . S
U686 O707 2.449 . S
O687 U686 2.454 1_556 S
O687 C689 1.353 . S
O688 U686 2.458 . S
O688 C689 1.286 1_554 S
C689 U686 2.984 1_556 S
C689 O687 1.353 . S
C689 O688 1.286 1_556 S
C689 C691 1.363 . S
C690 C680 1.465 . S
C690 U686 2.847 . S
C690 O704 1.249 . S
C690 O705 1.202 . S
C691 C689 1.363 . S
C691 C693 1.408 . S
C691 C696 1.342 . S
C692 C693 1.310 . S
C692 C695 1.461 . S
C692 H712 0.932 . S
C693 C691 1.408 . S
C693 C692 1.310 . S
C693 H713 0.930 . S
C694 C695 1.474 . S
C694 C696 1.285 . S
C694 H714 0.929 . S
C695 C692 1.461 . S
C695 C694 1.474 . S
C696 C691 1.342 . S
C696 C694 1.285 . S
C696 H715 0.930 1_556 S
C697 C700 1.424 . S
C697 C702 1.245 . S
C697 C703 1.428 . S
C698 C701 1.260 . S
C698 C702 1.477 . S
C698 H716 0.932 . S
C699 C700 1.384 . S
C699 C701 1.479 . S
C699 H717 0.929 . S
C700 C697 1.424 . S
C700 C699 1.384 . S
C700 H718 0.928 . S
C701 C698 1.260 . S
C701 C699 1.479 . S
C702 C697 1.245 . S
C702 C698 1.477 . S
C702 H719 0.932 . S
C703 U686 2.882 . S
C703 C697 1.428 . S
C703 O706 1.301 . S
C703 O707 1.282 . S
O704 U686 2.441 . S
O704 C690 1.249 . S
O705 U686 2.420 . S
O705 C690 1.202 . S
O706 U686 2.455 . S
O706 C703 1.301 . S
O707 U686 2.449 . S
O707 C703 1.282 . S
H708 C681 0.931 . S
H709 C683 0.929 . S
H710 C684 0.930 . S
H711 C685 0.931 . S
H712 C692 0.932 . S
H713 C693 0.930 . S
H714 C694 0.929 . S
H715 C696 0.930 1_554 S
H716 C698 0.932 . S
H717 C699 0.929 . S
H718 C700 0.928 . S
H719 C702 0.932 . S
C720 C721 1.264 . S
C720 C725 1.479 . S
C720 C730 1.465 . S
C721 C720 1.264 . S
C721 C723 1.339 . S
C721 H748 0.931 . S
C722 C723 1.395 . S
C722 C724 1.320 . S
C723 C721 1.339 . S
C723 C722 1.395 . S
C723 H749 0.929 . S
C724 C722 1.320 . S
C724 C725 1.405 . S
C724 H750 0.930 . S
C725 C720 1.479 . S
C725 C724 1.405 . S
C725 H751 0.931 . S
U726 O727 2.454 . S
U726 O728 2.458 . S
U726 C729 2.984 . S
U726 C730 2.847 . S
U726 C743 2.882 . S
U726 O744 2.441 . S
U726 O745 2.420 . S
U726 O746 2.455 . S
U726 O747 2.449 . S
O727 U726 2.454 . S
O727 C729 1.353 . S
O728 U726 2.458 . S
O728 C729 1.286 . S
C729 U726 2.984 . S
C729 O727 1.353 . S
C729 O728 1.286 . S
C729 C731 1.363 . S
C730 C720 1.465 . S
C730 U726 2.847 . S
C730 O744 1.249 . S
C730 O745 1.202 . S
C731 C729 1.363 . S
C731 C733 1.408 . S
C731 C736 1.342 . S
C732 C733 1.310 . S
C732 C735 1.461 . S
C732 H752 0.932 . S
C733 C731 1.408 . S
C733 C732 1.310 . S
C733 H753 0.930 . S
C734 C735 1.474 . S
C734 C736 1.285 . S
C734 H754 0.929 . S
C735 C732 1.461 . S
C735 C734 1.474 . S
C736 C731 1.342 . S
C736 C734 1.285 . S
C736 H755 0.930 . S
C737 C740 1.424 . S
C737 C742 1.245 . S
C737 C743 1.428 . S
C738 C741 1.260 . S
C738 C742 1.477 . S
C738 H756 0.932 . S
C739 C740 1.384 . S
C739 C741 1.479 . S
C739 H757 0.929 . S
C740 C737 1.424 . S
C740 C739 1.384 . S
C740 H758 0.928 . S
C741 C738 1.260 . S
C741 C739 1.479 . S
C742 C737 1.245 . S
C742 C738 1.477 . S
C742 H759 0.932 . S
C743 U726 2.882 . S
C743 C737 1.428 . S
C743 O746 1.301 . S
C743 O747 1.282 . S
O744 U726 2.441 . S
O744 C730 1.249 . S
O745 U726 2.420 . S
O745 C730 1.202 . S
O746 U726 2.455 . S
O746 C743 1.301 . S
O747 U726 2.449 . S
O747 C743 1.282 . S
H748 C721 0.931 . S
H749 C723 0.929 . S
H750 C724 0.930 . S
H751 C725 0.931 . S
H752 C732 0.932 . S
H753 C733 0.930 . S
H754 C734 0.929 . S
H755 C736 0.930 . S
H756 C738 0.932 . S
H757 C739 0.929 . S
H758 C740 0.928 . S
H759 C742 0.932 . S
C760 C761 1.264 . S
C760 C765 1.479 . S
C760 C770 1.465 . S
C761 C760 1.264 . S
C761 C763 1.339 . S
C761 H788 0.931 . S
C762 C763 1.395 . S
C762 C764 1.320 . S
C763 C761 1.339 . S
C763 C762 1.395 . S
C763 H789 0.929 . S
C764 C762 1.320 . S
C764 C765 1.405 . S
C764 H790 0.930 . S
C765 C760 1.479 . S
C765 C764 1.405 . S
C765 H791 0.931 . S
U766 O767 2.454 . S
U766 O768 2.458 . S
U766 C769 2.984 . S
U766 C770 2.847 . S
U766 C783 2.882 . S
U766 O784 2.441 . S
U766 O785 2.420 . S
U766 O786 2.455 . S
U766 O787 2.449 . S
O767 U766 2.454 . S
O767 C769 1.353 . S
O768 U766 2.458 . S
O768 C769 1.286 . S
C769 U766 2.984 . S
C769 O767 1.353 . S
C769 O768 1.286 . S
C769 C771 1.363 . S
C770 C760 1.465 . S
C770 U766 2.847 . S
C770 O784 1.249 . S
C770 O785 1.202 . S
C771 C769 1.363 . S
C771 C773 1.408 . S
C771 C776 1.342 . S
C772 C773 1.310 . S
C772 C775 1.461 . S
C772 H792 0.932 . S
C773 C771 1.408 . S
C773 C772 1.310 . S
C773 H793 0.930 . S
C774 C775 1.474 . S
C774 C776 1.285 . S
C774 H794 0.929 . S
C775 C772 1.461 . S
C775 C774 1.474 . S
C776 C771 1.342 . S
C776 C774 1.285 . S
C776 H795 0.930 . S
C777 C780 1.424 . S
C777 C782 1.245 . S
C777 C783 1.428 . S
C778 C781 1.260 . S
C778 C782 1.477 . S
C778 H796 0.932 . S
C779 C780 1.384 . S
C779 C781 1.479 . S
C779 H797 0.929 . S
C780 C777 1.424 . S
C780 C779 1.384 . S
C780 H798 0.928 . S
C781 C778 1.260 . S
C781 C779 1.479 . S
C782 C777 1.245 . S
C782 C778 1.477 . S
C782 H799 0.932 . S
C783 U766 2.882 . S
C783 C777 1.428 . S
C783 O786 1.301 . S
C783 O787 1.282 . S
O784 U766 2.441 . S
O784 C770 1.249 . S
O785 U766 2.420 . S
O785 C770 1.202 . S
O786 U766 2.455 . S
O786 C783 1.301 . S
O787 U766 2.449 . S
O787 C783 1.282 . S
H788 C761 0.931 . S
H789 C763 0.929 . S
H790 C764 0.930 . S
H791 C765 0.931 . S
H792 C772 0.932 . S
H793 C773 0.930 . S
H794 C774 0.929 . S
H795 C776 0.930 . S
H796 C778 0.932 . S
H797 C779 0.929 . S
H798 C780 0.928 . S
H799 C782 0.932 . S
C800 C801 1.264 . S
C800 C805 1.479 . S
C800 C810 1.465 . S
C801 C800 1.264 . S
C801 C803 1.339 . S
C801 H828 0.931 . S
C802 C803 1.395 . S
C802 C804 1.320 . S
C803 C801 1.339 . S
C803 C802 1.395 . S
C803 H829 0.929 . S
C804 C802 1.320 . S
C804 C805 1.405 . S
C804 H830 0.930 . S
C805 C800 1.479 . S
C805 C804 1.405 . S
C805 H831 0.931 . S
U806 O807 2.454 . S
U806 O808 2.458 . S
U806 C809 2.984 . S
U806 C810 2.847 . S
U806 C823 2.882 . S
U806 O824 2.441 . S
U806 O825 2.420 . S
U806 O826 2.455 . S
U806 O827 2.449 . S
O807 U806 2.454 . S
O807 C809 1.353 . S
O808 U806 2.458 . S
O808 C809 1.286 . S
C809 U806 2.984 . S
C809 O807 1.353 . S
C809 O808 1.286 . S
C809 C811 1.363 . S
C810 C800 1.465 . S
C810 U806 2.847 . S
C810 O824 1.249 . S
C810 O825 1.202 . S
C811 C809 1.363 . S
C811 C813 1.408 . S
C811 C816 1.342 . S
C812 C813 1.310 . S
C812 C815 1.461 . S
C812 H832 0.932 . S
C813 C811 1.408 . S
C813 C812 1.310 . S
C813 H833 0.930 . S
C814 C815 1.474 . S
C814 C816 1.285 . S
C814 H834 0.929 . S
C815 C812 1.461 . S
C815 C814 1.474 . S
C816 C811 1.342 . S
C816 C814 1.285 . S
C816 H835 0.930 . S
C817 C820 1.424 . S
C817 C822 1.245 . S
C817 C823 1.428 . S
C818 C821 1.260 . S
C818 C822 1.477 . S
C818 H836 0.932 . S
C819 C820 1.384 . S
C819 C821 1.479 . S
C819 H837 0.929 . S
C820 C817 1.424 . S
C820 C819 1.384 . S
C820 H838 0.928 . S
C821 C818 1.260 . S
C821 C819 1.479 . S
C822 C817 1.245 . S
C822 C818 1.477 . S
C822 H839 0.932 . S
C823 U806 2.882 . S
C823 C817 1.428 . S
C823 O826 1.301 . S
C823 O827 1.282 . S
O824 U806 2.441 . S
O824 C810 1.249 . S
O825 U806 2.420 . S
O825 C810 1.202 . S
O826 U806 2.455 . S
O826 C823 1.301 . S
O827 U806 2.449 . S
O827 C823 1.282 . S
H828 C801 0.931 . S
H829 C803 0.929 . S
H830 C804 0.930 . S
H831 C805 0.931 . S
H832 C812 0.932 . S
H833 C813 0.930 . S
H834 C814 0.929 . S
H835 C816 0.930 . S
H836 C818 0.932 . S
H837 C819 0.929 . S
H838 C820 0.928 . S
H839 C822 0.932 . S
C840 C841 1.264 . S
C840 C845 1.479 1_556 S
C840 C850 1.465 . S
C841 C840 1.264 . S
C841 C843 1.339 . S
C841 H868 0.931 . S
C842 C843 1.395 1_554 S
C842 C844 1.320 . S
C843 C841 1.339 . S
C843 C842 1.395 1_556 S
C843 H869 0.929 . S
C844 C842 1.320 . S
C844 C845 1.405 . S
C844 H870 0.930 . S
C845 C840 1.479 1_554 S
C845 C844 1.405 . S
C845 H871 0.931 . S
U846 O847 2.454 1_556 S
U846 O848 2.458 . S
U846 C849 2.984 1_556 S
U846 C850 2.847 . S
U846 C863 2.882 . S
U846 O864 2.441 . S
U846 O865 2.420 . S
U846 O866 2.455 . S
U846 O867 2.449 . S
O847 U846 2.454 1_554 S
O847 C849 1.353 . S
O848 U846 2.458 . S
O848 C849 1.286 1_556 S
C849 U846 2.984 1_554 S
C849 O847 1.353 . S
C849 O848 1.286 1_554 S
C849 C851 1.363 . S
C850 C840 1.465 . S
C850 U846 2.847 . S
C850 O864 1.249 . S
C850 O865 1.202 . S
C851 C849 1.363 . S
C851 C853 1.408 . S
C851 C856 1.342 . S
C852 C853 1.310 . S
C852 C855 1.461 . S
C852 H872 0.932 . S
C853 C851 1.408 . S
C853 C852 1.310 . S
C853 H873 0.930 . S
C854 C855 1.474 . S
C854 C856 1.285 . S
C854 H874 0.929 . S
C855 C852 1.461 . S
C855 C854 1.474 . S
C856 C851 1.342 . S
C856 C854 1.285 . S
C856 H875 0.930 1_554 S
C857 C860 1.424 . S
C857 C862 1.245 . S
C857 C863 1.428 . S
C858 C861 1.260 . S
C858 C862 1.477 . S
C858 H876 0.932 . S
C859 C860 1.384 . S
C859 C861 1.479 . S
C859 H877 0.929 . S
C860 C857 1.424 . S
C860 C859 1.384 . S
C860 H878 0.928 . S
C861 C858 1.260 . S
C861 C859 1.479 . S
C862 C857 1.245 . S
C862 C858 1.477 . S
C862 H879 0.932 . S
C863 U846 2.882 . S
C863 C857 1.428 . S
C863 O866 1.301 . S
C863 O867 1.282 . S
O864 U846 2.441 . S
O864 C850 1.249 . S
O865 U846 2.420 . S
O865 C850 1.202 . S
O866 U846 2.455 . S
O866 C863 1.301 . S
O867 U846 2.449 . S
O867 C863 1.282 . S
H868 C841 0.931 . S
H869 C843 0.929 . S
H870 C844 0.930 . S
H871 C845 0.931 . S
H872 C852 0.932 . S
H873 C853 0.930 . S
H874 C854 0.929 . S
H875 C856 0.930 1_556 S
H876 C858 0.932 . S
H877 C859 0.929 . S
H878 C860 0.928 . S
H879 C862 0.932 . S
C880 C881 1.264 . S
C880 C885 1.479 . S
C880 C890 1.465 . S
C881 C880 1.264 . S
C881 C883 1.339 . S
C881 H908 0.931 . S
C882 C883 1.395 . S
C882 C884 1.320 . S
C883 C881 1.339 . S
C883 C882 1.395 . S
C883 H909 0.929 . S
C884 C882 1.320 . S
C884 C885 1.405 . S
C884 H910 0.930 . S
C885 C880 1.479 . S
C885 C884 1.405 . S
C885 H911 0.931 . S
U886 O887 2.454 . S
U886 O888 2.458 . S
U886 C889 2.984 . S
U886 C890 2.847 . S
U886 C903 2.882 . S
U886 O904 2.441 . S
U886 O905 2.420 . S
U886 O906 2.455 . S
U886 O907 2.449 . S
O887 U886 2.454 . S
O887 C889 1.353 . S
O888 U886 2.458 . S
O888 C889 1.286 . S
C889 U886 2.984 . S
C889 O887 1.353 . S
C889 O888 1.286 . S
C889 C891 1.363 . S
C890 C880 1.465 . S
C890 U886 2.847 . S
C890 O904 1.249 . S
C890 O905 1.202 . S
C891 C889 1.363 . S
C891 C893 1.408 . S
C891 C896 1.342 . S
C892 C893 1.310 . S
C892 C895 1.461 . S
C892 H912 0.932 . S
C893 C891 1.408 . S
C893 C892 1.310 . S
C893 H913 0.930 . S
C894 C895 1.474 . S
C894 C896 1.285 . S
C894 H914 0.929 . S
C895 C892 1.461 . S
C895 C894 1.474 . S
C896 C891 1.342 . S
C896 C894 1.285 . S
C896 H915 0.930 . S
C897 C900 1.424 . S
C897 C902 1.245 . S
C897 C903 1.428 . S
C898 C901 1.260 . S
C898 C902 1.477 . S
C898 H916 0.932 . S
C899 C900 1.384 . S
C899 C901 1.479 . S
C899 H917 0.929 . S
C900 C897 1.424 . S
C900 C899 1.384 . S
C900 H918 0.928 . S
C901 C898 1.260 . S
C901 C899 1.479 . S
C902 C897 1.245 . S
C902 C898 1.477 . S
C902 H919 0.932 . S
C903 U886 2.882 . S
C903 C897 1.428 . S
C903 O906 1.301 . S
C903 O907 1.282 . S
O904 U886 2.441 . S
O904 C890 1.249 . S
O905 U886 2.420 . S
O905 C890 1.202 . S
O906 U886 2.455 . S
O906 C903 1.301 . S
O907 U886 2.449 . S
O907 C903 1.282 . S
H908 C881 0.931 . S
H909 C883 0.929 . S
H910 C884 0.930 . S
H911 C885 0.931 . S
H912 C892 0.932 . S
H913 C893 0.930 . S
H914 C894 0.929 . S
H915 C896 0.930 . S
H916 C898 0.932 . S
H917 C899 0.929 . S
H918 C900 0.928 . S
H919 C902 0.932 . S
C920 C921 1.264 . S
C920 C925 1.479 . S
C920 C930 1.465 . S
C921 C920 1.264 . S
C921 C923 1.339 . S
C921 H948 0.931 . S
C922 C923 1.395 . S
C922 C924 1.320 . S
C923 C921 1.339 . S
C923 C922 1.395 . S
C923 H949 0.929 . S
C924 C922 1.320 . S
C924 C925 1.405 . S
C924 H950 0.930 . S
C925 C920 1.479 . S
C925 C924 1.405 . S
C925 H951 0.931 . S
U926 O927 2.454 . S
U926 O928 2.458 . S
U926 C929 2.984 . S
U926 C930 2.847 . S
U926 C943 2.882 . S
U926 O944 2.441 . S
U926 O945 2.420 . S
U926 O946 2.455 . S
U926 O947 2.449 . S
O927 U926 2.454 . S
O927 C929 1.353 . S
O928 U926 2.458 . S
O928 C929 1.286 . S
C929 U926 2.984 . S
C929 O927 1.353 . S
C929 O928 1.286 . S
C929 C931 1.363 . S
C930 C920 1.465 . S
C930 U926 2.847 . S
C930 O944 1.249 . S
C930 O945 1.202 . S
C931 C929 1.363 . S
C931 C933 1.408 . S
C931 C936 1.342 . S
C932 C933 1.310 . S
C932 C935 1.461 . S
C932 H952 0.932 . S
C933 C931 1.408 . S
C933 C932 1.310 . S
C933 H953 0.930 . S
C934 C935 1.474 . S
C934 C936 1.285 . S
C934 H954 0.929 . S
C935 C932 1.461 . S
C935 C934 1.474 . S
C936 C931 1.342 . S
C936 C934 1.285 . S
C936 H955 0.930 . S
C937 C940 1.424 . S
C937 C942 1.245 . S
C937 C943 1.428 . S
C938 C941 1.260 . S
C938 C942 1.477 . S
C938 H956 0.932 . S
C939 C940 1.384 . S
C939 C941 1.479 . S
C939 H957 0.929 . S
C940 C937 1.424 . S
C940 C939 1.384 . S
C940 H958 0.928 . S
C941 C938 1.260 . S
C941 C939 1.479 . S
C942 C937 1.245 . S
C942 C938 1.477 . S
C942 H959 0.932 . S
C943 U926 2.882 . S
C943 C937 1.428 . S
C943 O946 1.301 . S
C943 O947 1.282 . S
O944 U926 2.441 . S
O944 C930 1.249 . S
O945 U926 2.420 . S
O945 C930 1.202 . S
O946 U926 2.455 . S
O946 C943 1.301 . S
O947 U926 2.449 . S
O947 C943 1.282 . S
H948 C921 0.931 . S
H949 C923 0.929 . S
H950 C924 0.930 . S
H951 C925 0.931 . S
H952 C932 0.932 . S
H953 C933 0.930 . S
H954 C934 0.929 . S
H955 C936 0.930 . S
H956 C938 0.932 . S
H957 C939 0.929 . S
H958 C940 0.928 . S
H959 C942 0.932 . S
C960 C961 1.264 . S
C960 C965 1.479 . S
C960 C970 1.465 . S
C961 C960 1.264 . S
C961 C963 1.339 . S
C961 H988 0.931 . S
C962 C963 1.395 . S
C962 C964 1.320 . S
C963 C961 1.339 . S
C963 C962 1.395 . S
C963 H989 0.929 . S
C964 C962 1.320 . S
C964 C965 1.405 . S
C964 H990 0.930 . S
C965 C960 1.479 . S
C965 C964 1.405 . S
C965 H991 0.931 . S
U966 O967 2.454 . S
U966 O968 2.458 . S
U966 C969 2.984 . S
U966 C970 2.847 . S
U966 C983 2.882 . S
U966 O984 2.441 . S
U966 O985 2.420 . S
U966 O986 2.455 . S
U966 O987 2.449 . S
O967 U966 2.454 . S
O967 C969 1.353 . S
O968 U966 2.458 . S
O968 C969 1.286 . S
C969 U966 2.984 . S
C969 O967 1.353 . S
C969 O968 1.286 . S
C969 C971 1.363 . S
C970 C960 1.465 . S
C970 U966 2.847 . S
C970 O984 1.249 . S
C970 O985 1.202 . S
C971 C969 1.363 . S
C971 C973 1.408 . S
C971 C976 1.342 . S
C972 C973 1.310 . S
C972 C975 1.461 . S
C972 H992 0.932 . S
C973 C971 1.408 . S
C973 C972 1.310 . S
C973 H993 0.930 . S
C974 C975 1.474 . S
C974 C976 1.285 . S
C974 H994 0.929 . S
C975 C972 1.461 . S
C975 C974 1.474 . S
C976 C971 1.342 . S
C976 C974 1.285 . S
C976 H995 0.930 . S
C977 C980 1.424 . S
C977 C982 1.245 . S
C977 C983 1.428 . S
C978 C981 1.260 . S
C978 C982 1.477 . S
C978 H996 0.932 . S
C979 C980 1.384 . S
C979 C981 1.479 . S
C979 H997 0.929 . S
C980 C977 1.424 . S
C980 C979 1.384 . S
C980 H998 0.928 . S
C981 C978 1.260 . S
C981 C979 1.479 . S
C982 C977 1.245 . S
C982 C978 1.477 . S
C982 H999 0.932 . S
C983 U966 2.882 . S
C983 C977 1.428 . S
C983 O986 1.301 . S
C983 O987 1.282 . S
O984 U966 2.441 . S
O984 C970 1.249 . S
O985 U966 2.420 . S
O985 C970 1.202 . S
O986 U966 2.455 . S
O986 C983 1.301 . S
O987 U966 2.449 . S
O987 C983 1.282 . S
H988 C961 0.931 . S
H989 C963 0.929 . S
H990 C964 0.930 . S
H991 C965 0.931 . S
H992 C972 0.932 . S
H993 C973 0.930 . S
H994 C974 0.929 . S
H995 C976 0.930 . S
H996 C978 0.932 . S
H997 C979 0.929 . S
H998 C980 0.928 . S
H999 C982 0.932 . S
C1000 C1001 1.264 . S
C1000 C1005 1.479 . S
C1000 C1010 1.465 . S
C1001 C1000 1.264 . S
C1001 C1003 1.339 . S
C1001 H1028 0.931 . S
C1002 C1003 1.395 . S
C1002 C1004 1.320 . S
C1003 C1001 1.339 . S
C1003 C1002 1.395 . S
C1003 H1029 0.929 . S
C1004 C1002 1.320 . S
C1004 C1005 1.405 . S
C1004 H1030 0.930 . S
C1005 C1000 1.479 . S
C1005 C1004 1.405 . S
C1005 H1031 0.931 . S
U1006 O1007 2.454 . S
U1006 O1008 2.458 1_556 S
U1006 C1009 2.984 1_556 S
U1006 C1010 2.847 . S
U1006 C1023 2.882 . S
U1006 O1024 2.441 . S
U1006 O1025 2.420 . S
U1006 O1026 2.455 . S
U1006 O1027 2.449 . S
O1007 U1006 2.454 . S
O1007 C1009 1.353 1_556 S
O1008 U1006 2.458 1_554 S
O1008 C1009 1.286 . S
C1009 U1006 2.984 1_554 S
C1009 O1007 1.353 1_554 S
C1009 O1008 1.286 . S
C1009 C1011 1.363 . S
C1010 C1000 1.465 . S
C1010 U1006 2.847 . S
C1010 O1024 1.249 . S
C1010 O1025 1.202 . S
C1011 C1009 1.363 . S
C1011 C1013 1.408 . S
C1011 C1016 1.342 . S
C1012 C1013 1.310 . S
C1012 C1015 1.461 . S
C1012 H1032 0.932 . S
C1013 C1011 1.408 . S
C1013 C1012 1.310 . S
C1013 H1033 0.930 1_554 S
C1014 C1015 1.474 . S
C1014 C1016 1.285 . S
C1014 H1034 0.929 . S
C1015 C1012 1.461 . S
C1015 C1014 1.474 . S
C1016 C1011 1.342 . S
C1016 C1014 1.285 . S
C1016 H1035 0.930 . S
C1017 C1020 1.424 . S
C1017 C1022 1.245 1_556 S
C1017 C1023 1.428 . S
C1018 C1021 1.260 . S
C1018 C1022 1.477 . S
C1018 H1036 0.932 . S
C1019 C1020 1.384 . S
C1019 C1021 1.479 1_556 S
C1019 H1037 0.929 . S
C1020 C1017 1.424 . S
C1020 C1019 1.384 . S
C1020 H1038 0.928 . S
C1021 C1018 1.260 . S
C1021 C1019 1.479 1_554 S
C1022 C1017 1.245 1_554 S
C1022 C1018 1.477 . S
C1022 H1039 0.932 . S
C1023 U1006 2.882 . S
C1023 C1017 1.428 . S
C1023 O1026 1.301 . S
C1023 O1027 1.282 . S
O1024 U1006 2.441 . S
O1024 C1010 1.249 . S
O1025 U1006 2.420 . S
O1025 C1010 1.202 . S
O1026 U1006 2.455 . S
O1026 C1023 1.301 . S
O1027 U1006 2.449 . S
O1027 C1023 1.282 . S
H1028 C1001 0.931 . S
H1029 C1003 0.929 . S
H1030 C1004 0.930 . S
H1031 C1005 0.931 . S
H1032 C1012 0.932 . S
H1033 C1013 0.930 1_556 S
H1034 C1014 0.929 . S
H1035 C1016 0.930 . S
H1036 C1018 0.932 . S
H1037 C1019 0.929 . S
H1038 C1020 0.928 . S
H1039 C1022 0.932 . S
C1040 C1041 1.264 . S
C1040 C1045 1.479 . S
C1040 C1050 1.465 . S
C1041 C1040 1.264 . S
C1041 C1043 1.339 . S
C1041 H1068 0.931 . S
C1042 C1043 1.395 . S
C1042 C1044 1.320 . S
C1043 C1041 1.339 . S
C1043 C1042 1.395 . S
C1043 H1069 0.929 . S
C1044 C1042 1.320 . S
C1044 C1045 1.405 . S
C1044 H1070 0.930 . S
C1045 C1040 1.479 . S
C1045 C1044 1.405 . S
C1045 H1071 0.931 . S
U1046 O1047 2.454 . S
U1046 O1048 2.458 . S
U1046 C1049 2.984 . S
U1046 C1050 2.847 . S
U1046 C1063 2.882 . S
U1046 O1064 2.441 . S
U1046 O1065 2.420 . S
U1046 O1066 2.455 . S
U1046 O1067 2.449 . S
O1047 U1046 2.454 . S
O1047 C1049 1.353 . S
O1048 U1046 2.458 . S
O1048 C1049 1.286 . S
C1049 U1046 2.984 . S
C1049 O1047 1.353 . S
C1049 O1048 1.286 . S
C1049 C1051 1.363 . S
C1050 C1040 1.465 . S
C1050 U1046 2.847 . S
C1050 O1064 1.249 . S
C1050 O1065 1.202 . S
C1051 C1049 1.363 . S
C1051 C1053 1.408 . S
C1051 C1056 1.342 . S
C1052 C1053 1.310 . S
C1052 C1055 1.461 . S
C1052 H1072 0.932 . S
C1053 C1051 1.408 . S
C1053 C1052 1.310 . S
C1053 H1073 0.930 . S
C1054 C1055 1.474 . S
C1054 C1056 1.285 . S
C1054 H1074 0.929 . S
C1055 C1052 1.461 . S
C1055 C1054 1.474 . S
C1056 C1051 1.342 . S
C1056 C1054 1.285 . S
C1056 H1075 0.930 . S
C1057 C1060 1.424 . S
C1057 C1062 1.245 . S
C1057 C1063 1.428 . S
C1058 C1061 1.260 . S
C1058 C1062 1.477 . S
C1058 H1076 0.932 . S
C1059 C1060 1.384 . S
C1059 C1061 1.479 . S
C1059 H1077 0.929 . S
C1060 C1057 1.424 . S
C1060 C1059 1.384 . S
C1060 H1078 0.928 . S
C1061 C1058 1.260 . S
C1061 C1059 1.479 . S
C1062 C1057 1.245 . S
C1062 C1058 1.477 . S
C1062 H1079 0.932 . S
C1063 U1046 2.882 . S
C1063 C1057 1.428 . S
C1063 O1066 1.301 . S
C1063 O1067 1.282 . S
O1064 U1046 2.441 . S
O1064 C1050 1.249 . S
O1065 U1046 2.420 . S
O1065 C1050 1.202 . S
O1066 U1046 2.455 . S
O1066 C1063 1.301 . S
O1067 U1046 2.449 . S
O1067 C1063 1.282 . S
H1068 C1041 0.931 . S
H1069 C1043 0.929 . S
H1070 C1044 0.930 . S
H1071 C1045 0.931 . S
H1072 C1052 0.932 . S
H1073 C1053 0.930 . S
H1074 C1054 0.929 . S
H1075 C1056 0.930 . S
H1076 C1058 0.932 . S
H1077 C1059 0.929 . S
H1078 C1060 0.928 . S
H1079 C1062 0.932 . S
C1080 C1081 1.264 . S
C1080 C1085 1.479 . S
C1080 C1090 1.465 . S
C1081 C1080 1.264 . S
C1081 C1083 1.339 . S
C1081 H1108 0.931 . S
C1082 C1083 1.395 . S
C1082 C1084 1.320 . S
C1083 C1081 1.339 . S
C1083 C1082 1.395 . S
C1083 H1109 0.929 . S
C1084 C1082 1.320 . S
C1084 C1085 1.405 . S
C1084 H1110 0.930 . S
C1085 C1080 1.479 . S
C1085 C1084 1.405 . S
C1085 H1111 0.931 . S
U1086 O1087 2.454 . S
U1086 O1088 2.458 . S
U1086 C1089 2.984 . S
U1086 C1090 2.847 . S
U1086 C1103 2.882 . S
U1086 O1104 2.441 . S
U1086 O1105 2.420 . S
U1086 O1106 2.455 . S
U1086 O1107 2.449 . S
O1087 U1086 2.454 . S
O1087 C1089 1.353 . S
O1088 U1086 2.458 . S
O1088 C1089 1.286 . S
C1089 U1086 2.984 . S
C1089 O1087 1.353 . S
C1089 O1088 1.286 . S
C1089 C1091 1.363 . S
C1090 C1080 1.465 . S
C1090 U1086 2.847 . S
C1090 O1104 1.249 . S
C1090 O1105 1.202 . S
C1091 C1089 1.363 . S
C1091 C1093 1.408 . S
C1091 C1096 1.342 . S
C1092 C1093 1.310 . S
C1092 C1095 1.461 . S
C1092 H1112 0.932 . S
C1093 C1091 1.408 . S
C1093 C1092 1.310 . S
C1093 H1113 0.930 . S
C1094 C1095 1.474 . S
C1094 C1096 1.285 . S
C1094 H1114 0.929 . S
C1095 C1092 1.461 . S
C1095 C1094 1.474 . S
C1096 C1091 1.342 . S
C1096 C1094 1.285 . S
C1096 H1115 0.930 . S
C1097 C1100 1.424 . S
C1097 C1102 1.245 . S
C1097 C1103 1.428 . S
C1098 C1101 1.260 . S
C1098 C1102 1.477 . S
C1098 H1116 0.932 . S
C1099 C1100 1.384 . S
C1099 C1101 1.479 . S
C1099 H1117 0.929 . S
C1100 C1097 1.424 . S
C1100 C1099 1.384 . S
C1100 H1118 0.928 . S
C1101 C1098 1.260 . S
C1101 C1099 1.479 . S
C1102 C1097 1.245 . S
C1102 C1098 1.477 . S
C1102 H1119 0.932 . S
C1103 U1086 2.882 . S
C1103 C1097 1.428 . S
C1103 O1106 1.301 . S
C1103 O1107 1.282 . S
O1104 U1086 2.441 . S
O1104 C1090 1.249 . S
O1105 U1086 2.420 . S
O1105 C1090 1.202 . S
O1106 U1086 2.455 . S
O1106 C1103 1.301 . S
O1107 U1086 2.449 . S
O1107 C1103 1.282 . S
H1108 C1081 0.931 . S
H1109 C1083 0.929 . S
H1110 C1084 0.930 . S
H1111 C1085 0.931 . S
H1112 C1092 0.932 . S
H1113 C1093 0.930 . S
H1114 C1094 0.929 . S
H1115 C1096 0.930 . S
H1116 C1098 0.932 . S
H1117 C1099 0.929 . S
H1118 C1100 0.928 . S
H1119 C1102 0.932 . S
C1120 C1121 1.264 . S
C1120 C1125 1.479 . S
C1120 C1130 1.465 . S
C1121 C1120 1.264 . S
C1121 C1123 1.339 . S
C1121 H1148 0.931 . S
C1122 C1123 1.395 . S
C1122 C1124 1.320 . S
C1123 C1121 1.339 . S
C1123 C1122 1.395 . S
C1123 H1149 0.929 . S
C1124 C1122 1.320 . S
C1124 C1125 1.405 . S
C1124 H1150 0.930 . S
C1125 C1120 1.479 . S
C1125 C1124 1.405 . S
C1125 H1151 0.931 . S
U1126 O1127 2.454 . S
U1126 O1128 2.458 . S
U1126 C1129 2.984 . S
U1126 C1130 2.847 . S
U1126 C1143 2.882 . S
U1126 O1144 2.441 . S
U1126 O1145 2.420 . S
U1126 O1146 2.455 . S
U1126 O1147 2.449 . S
O1127 U1126 2.454 . S
O1127 C1129 1.353 . S
O1128 U1126 2.458 . S
O1128 C1129 1.286 . S
C1129 U1126 2.984 . S
C1129 O1127 1.353 . S
C1129 O1128 1.286 . S
C1129 C1131 1.363 . S
C1130 C1120 1.465 . S
C1130 U1126 2.847 . S
C1130 O1144 1.249 . S
C1130 O1145 1.202 . S
C1131 C1129 1.363 . S
C1131 C1133 1.408 . S
C1131 C1136 1.342 . S
C1132 C1133 1.310 . S
C1132 C1135 1.461 . S
C1132 H1152 0.932 . S
C1133 C1131 1.408 . S
C1133 C1132 1.310 . S
C1133 H1153 0.930 . S
C1134 C1135 1.474 . S
C1134 C1136 1.285 . S
C1134 H1154 0.929 . S
C1135 C1132 1.461 . S
C1135 C1134 1.474 . S
C1136 C1131 1.342 . S
C1136 C1134 1.285 . S
C1136 H1155 0.930 . S
C1137 C1140 1.424 . S
C1137 C1142 1.245 . S
C1137 C1143 1.428 . S
C1138 C1141 1.260 . S
C1138 C1142 1.477 . S
C1138 H1156 0.932 . S
C1139 C1140 1.384 . S
C1139 C1141 1.479 . S
C1139 H1157 0.929 . S
C1140 C1137 1.424 . S
C1140 C1139 1.384 . S
C1140 H1158 0.928 . S
C1141 C1138 1.260 . S
C1141 C1139 1.479 . S
C1142 C1137 1.245 . S
C1142 C1138 1.477 . S
C1142 H1159 0.932 . S
C1143 U1126 2.882 . S
C1143 C1137 1.428 . S
C1143 O1146 1.301 . S
C1143 O1147 1.282 . S
O1144 U1126 2.441 . S
O1144 C1130 1.249 . S
O1145 U1126 2.420 . S
O1145 C1130 1.202 . S
O1146 U1126 2.455 . S
O1146 C1143 1.301 . S
O1147 U1126 2.449 . S
O1147 C1143 1.282 . S
H1148 C1121 0.931 . S
H1149 C1123 0.929 . S
H1150 C1124 0.930 . S
H1151 C1125 0.931 . S
H1152 C1132 0.932 . S
H1153 C1133 0.930 . S
H1154 C1134 0.929 . S
H1155 C1136 0.930 . S
H1156 C1138 0.932 . S
H1157 C1139 0.929 . S
H1158 C1140 0.928 . S
H1159 C1142 0.932 . S
C1160 C1161 1.264 . S
C1160 C1165 1.479 1_554 S
C1160 C1170 1.465 . S
C1161 C1160 1.264 . S
C1161 C1163 1.339 . S
C1161 H1188 0.931 . S
C1162 C1163 1.395 1_556 S
C1162 C1164 1.320 . S
C1163 C1161 1.339 . S
C1163 C1162 1.395 1_554 S
C1163 H1189 0.929 . S
C1164 C1162 1.320 . S
C1164 C1165 1.405 . S
C1164 H1190 0.930 . S
C1165 C1160 1.479 1_556 S
C1165 C1164 1.405 . S
C1165 H1191 0.931 . S
U1166 O1167 2.454 1_554 S
U1166 O1168 2.458 . S
U1166 C1169 2.984 1_554 S
U1166 C1170 2.847 . S
U1166 C1183 2.882 . S
U1166 O1184 2.441 1_554 S
U1166 O1185 2.420 . S
U1166 O1186 2.455 . S
U1166 O1187 2.449 . S
O1167 U1166 2.454 1_556 S
O1167 C1169 1.353 . S
O1168 U1166 2.458 . S
O1168 C1169 1.286 1_554 S
C1169 U1166 2.984 1_556 S
C1169 O1167 1.353 . S
C1169 O1168 1.286 1_556 S
C1169 C1171 1.363 . S
C1170 C1160 1.465 . S
C1170 U1166 2.847 . S
C1170 O1184 1.249 1_554 S
C1170 O1185 1.202 . S
C1171 C1169 1.363 . S
C1171 C1173 1.408 . S
C1171 C1176 1.342 . S
C1172 C1173 1.310 . S
C1172 C1175 1.461 . S
C1172 H1192 0.932 . S
C1173 C1171 1.408 . S
C1173 C1172 1.310 . S
C1173 H1193 0.930 . S
C1174 C1175 1.474 . S
C1174 C1176 1.285 . S
C1174 H1194 0.929 . S
C1175 C1172 1.461 . S
C1175 C1174 1.474 . S
C1176 C1171 1.342 . S
C1176 C1174 1.285 . S
C1176 H1195 0.930 1_556 S
C1177 C1180 1.424 . S
C1177 C1182 1.245 . S
C1177 C1183 1.428 . S
C1178 C1181 1.260 . S
C1178 C1182 1.477 . S
C1178 H1196 0.932 . S
C1179 C1180 1.384 . S
C1179 C1181 1.479 . S
C1179 H1197 0.929 . S
C1180 C1177 1.424 . S
C1180 C1179 1.384 . S
C1180 H1198 0.928 . S
C1181 C1178 1.260 . S
C1181 C1179 1.479 . S
C1182 C1177 1.245 . S
C1182 C1178 1.477 . S
C1182 H1199 0.932 . S
C1183 U1166 2.882 . S
C1183 C1177 1.428 . S
C1183 O1186 1.301 . S
C1183 O1187 1.282 . S
O1184 U1166 2.441 1_556 S
O1184 C1170 1.249 1_556 S
O1185 U1166 2.420 . S
O1185 C1170 1.202 . S
O1186 U1166 2.455 . S
O1186 C1183 1.301 . S
O1187 U1166 2.449 . S
O1187 C1183 1.282 . S
H1188 C1161 0.931 . S
H1189 C1163 0.929 . S
H1190 C1164 0.930 . S
H1191 C1165 0.931 . S
H1192 C1172 0.932 . S
H1193 C1173 0.930 . S
H1194 C1174 0.929 . S
H1195 C1176 0.930 1_554 S
H1196 C1178 0.932 . S
H1197 C1179 0.929 . S
H1198 C1180 0.928 . S
H1199 C1182 0.932 . S
C1200 C1201 1.264 . S
C1200 C1205 1.479 . S
C1200 C1210 1.465 . S
C1201 C1200 1.264 . S
C1201 C1203 1.339 . S
C1201 H1228 0.931 . S
C1202 C1203 1.395 . S
C1202 C1204 1.320 . S
C1203 C1201 1.339 . S
C1203 C1202 1.395 . S
C1203 H1229 0.929 . S
C1204 C1202 1.320 . S
C1204 C1205 1.405 . S
C1204 H1230 0.930 . S
C1205 C1200 1.479 . S
C1205 C1204 1.405 . S
C1205 H1231 0.931 . S
U1206 O1207 2.454 . S
U1206 O1208 2.458 . S
U1206 C1209 2.984 . S
U1206 C1210 2.847 . S
U1206 C1223 2.882 . S
U1206 O1224 2.441 . S
U1206 O1225 2.420 . S
U1206 O1226 2.455 . S
U1206 O1227 2.449 . S
O1207 U1206 2.454 . S
O1207 C1209 1.353 . S
O1208 U1206 2.458 . S
O1208 C1209 1.286 . S
C1209 U1206 2.984 . S
C1209 O1207 1.353 . S
C1209 O1208 1.286 . S
C1209 C1211 1.363 . S
C1210 C1200 1.465 . S
C1210 U1206 2.847 . S
C1210 O1224 1.249 . S
C1210 O1225 1.202 . S
C1211 C1209 1.363 . S
C1211 C1213 1.408 . S
C1211 C1216 1.342 . S
C1212 C1213 1.310 . S
C1212 C1215 1.461 . S
C1212 H1232 0.932 . S
C1213 C1211 1.408 . S
C1213 C1212 1.310 . S
C1213 H1233 0.930 . S
C1214 C1215 1.474 . S
C1214 C1216 1.285 . S
C1214 H1234 0.929 . S
C1215 C1212 1.461 . S
C1215 C1214 1.474 . S
C1216 C1211 1.342 . S
C1216 C1214 1.285 . S
C1216 H1235 0.930 . S
C1217 C1220 1.424 . S
C1217 C1222 1.245 . S
C1217 C1223 1.428 . S
C1218 C1221 1.260 . S
C1218 C1222 1.477 . S
C1218 H1236 0.932 . S
C1219 C1220 1.384 . S
C1219 C1221 1.479 . S
C1219 H1237 0.929 . S
C1220 C1217 1.424 . S
C1220 C1219 1.384 . S
C1220 H1238 0.928 . S
C1221 C1218 1.260 . S
C1221 C1219 1.479 . S
C1222 C1217 1.245 . S
C1222 C1218 1.477 . S
C1222 H1239 0.932 . S
C1223 U1206 2.882 . S
C1223 C1217 1.428 . S
C1223 O1226 1.301 . S
C1223 O1227 1.282 . S
O1224 U1206 2.441 . S
O1224 C1210 1.249 . S
O1225 U1206 2.420 . S
O1225 C1210 1.202 . S
O1226 U1206 2.455 . S
O1226 C1223 1.301 . S
O1227 U1206 2.449 . S
O1227 C1223 1.282 . S
H1228 C1201 0.931 . S
H1229 C1203 0.929 . S
H1230 C1204 0.930 . S
H1231 C1205 0.931 . S
H1232 C1212 0.932 . S
H1233 C1213 0.930 . S
H1234 C1214 0.929 . S
H1235 C1216 0.930 . S
H1236 C1218 0.932 . S
H1237 C1219 0.929 . S
H1238 C1220 0.928 . S
H1239 C1222 0.932 . S
C1240 C1241 1.264 . S
C1240 C1245 1.479 . S
C1240 C1250 1.465 . S
C1241 C1240 1.264 . S
C1241 C1243 1.339 . S
C1241 H1268 0.931 . S
C1242 C1243 1.395 . S
C1242 C1244 1.320 . S
C1243 C1241 1.339 . S
C1243 C1242 1.395 . S
C1243 H1269 0.929 . S
C1244 C1242 1.320 . S
C1244 C1245 1.405 . S
C1244 H1270 0.930 . S
C1245 C1240 1.479 . S
C1245 C1244 1.405 . S
C1245 H1271 0.931 . S
U1246 O1247 2.454 . S
U1246 O1248 2.458 . S
U1246 C1249 2.984 . S
U1246 C1250 2.847 . S
U1246 C1263 2.882 . S
U1246 O1264 2.441 . S
U1246 O1265 2.420 . S
U1246 O1266 2.455 . S
U1246 O1267 2.449 . S
O1247 U1246 2.454 . S
O1247 C1249 1.353 . S
O1248 U1246 2.458 . S
O1248 C1249 1.286 . S
C1249 U1246 2.984 . S
C1249 O1247 1.353 . S
C1249 O1248 1.286 . S
C1249 C1251 1.363 . S
C1250 C1240 1.465 . S
C1250 U1246 2.847 . S
C1250 O1264 1.249 . S
C1250 O1265 1.202 . S
C1251 C1249 1.363 . S
C1251 C1253 1.408 . S
C1251 C1256 1.342 . S
C1252 C1253 1.310 . S
C1252 C1255 1.461 . S
C1252 H1272 0.932 . S
C1253 C1251 1.408 . S
C1253 C1252 1.310 . S
C1253 H1273 0.930 . S
C1254 C1255 1.474 . S
C1254 C1256 1.285 . S
C1254 H1274 0.929 . S
C1255 C1252 1.461 . S
C1255 C1254 1.474 . S
C1256 C1251 1.342 . S
C1256 C1254 1.285 . S
C1256 H1275 0.930 . S
C1257 C1260 1.424 . S
C1257 C1262 1.245 . S
C1257 C1263 1.428 . S
C1258 C1261 1.260 . S
C1258 C1262 1.477 . S
C1258 H1276 0.932 . S
C1259 C1260 1.384 . S
C1259 C1261 1.479 . S
C1259 H1277 0.929 . S
C1260 C1257 1.424 . S
C1260 C1259 1.384 . S
C1260 H1278 0.928 . S
C1261 C1258 1.260 . S
C1261 C1259 1.479 . S
C1262 C1257 1.245 . S
C1262 C1258 1.477 . S
C1262 H1279 0.932 . S
C1263 U1246 2.882 . S
C1263 C1257 1.428 . S
C1263 O1266 1.301 . S
C1263 O1267 1.282 . S
O1264 U1246 2.441 . S
O1264 C1250 1.249 . S
O1265 U1246 2.420 . S
O1265 C1250 1.202 . S
O1266 U1246 2.455 . S
O1266 C1263 1.301 . S
O1267 U1246 2.449 . S
O1267 C1263 1.282 . S
H1268 C1241 0.931 . S
H1269 C1243 0.929 . S
H1270 C1244 0.930 . S
H1271 C1245 0.931 . S
H1272 C1252 0.932 . S
H1273 C1253 0.930 . S
H1274 C1254 0.929 . S
H1275 C1256 0.930 . S
H1276 C1258 0.932 . S
H1277 C1259 0.929 . S
H1278 C1260 0.928 . S
H1279 C1262 0.932 . S
C1280 C1281 1.349 . S
C1280 C1282 1.327 . S
C1280 H1305 0.950 . S
C1281 C1280 1.349 . S
C1281 C1297 1.349 . S
C1282 C1280 1.327 . S
C1282 C1301 1.429 . S
C1282 H1306 0.950 . S
C1283 C1300 1.574 . S
C1283 C1302 1.368 . S
C1283 H1307 0.949 . S
H1284 C1288 0.949 . S
C1285 C1286 1.349 . S
C1285 C1287 1.327 . S
C1285 H1308 0.950 . S
C1286 C1285 1.349 . S
C1286 C1298 1.349 . S
C1287 C1285 1.327 . S
C1287 C1303 1.429 . S
C1287 H1309 0.950 . S
C1288 H1284 0.949 . S
C1288 C1296 1.574 . S
C1288 C1304 1.368 . S
H1289 C1297 0.950 . S
H1290 C1295 0.950 . S
H1291 C1296 0.949 . S
H1292 C1298 0.950 . S
H1293 C1299 0.950 . S
H1294 C1300 0.949 . S
C1295 H1290 0.950 . S
C1295 C1297 1.327 . S
C1295 C1301 1.429 . S
C1296 C1288 1.574 . S
C1296 H1291 0.949 . S
C1296 C1302 1.368 . S
C1297 C1281 1.349 . S
C1297 H1289 0.950 . S
C1297 C1295 1.327 . S
C1298 C1286 1.349 . S
C1298 H1292 0.950 . S
C1298 C1299 1.327 . S
C1299 H1293 0.950 . S
C1299 C1298 1.327 . S
C1299 C1303 1.429 . S
C1300 C1283 1.574 . S
C1300 H1294 0.949 . S
C1300 C1304 1.368 . S
C1301 C1282 1.429 . S
C1301 C1295 1.429 . S
C1301 C1302 1.523 . S
C1302 C1283 1.368 . S
C1302 C1296 1.368 . S
C1302 C1301 1.523 . S
C1303 C1287 1.429 . S
C1303 C1299 1.429 . S
C1303 C1304 1.523 . S
C1304 C1288 1.368 . S
C1304 C1300 1.368 . S
C1304 C1303 1.523 . S
H1305 C1280 0.950 . S
H1306 C1282 0.950 . S
H1307 C1283 0.949 . S
H1308 C1285 0.950 . S
H1309 C1287 0.950 . S
C1310 C1311 1.369 . S
C1310 C1312 1.322 1_545 S
C1310 H1335 0.935 1_545 S
C1311 C1310 1.369 . S
C1311 C1327 1.349 . S
C1312 C1310 1.322 1_565 S
C1312 C1331 1.429 1_565 S
C1312 H1336 0.950 . S
C1313 C1330 1.574 . S
C1313 C1332 1.368 . S
C1313 H1337 0.949 . S
H1314 C1318 0.949 . S
C1315 C1316 1.388 . S
C1315 C1317 1.317 1_565 S
C1315 H1338 0.921 1_565 S
C1316 C1315 1.388 . S
C1316 C1328 1.349 . S
C1317 C1315 1.317 1_545 S
C1317 C1333 1.429 1_545 S
C1317 H1339 0.950 . S
C1318 H1314 0.949 . S
C1318 C1326 1.574 . S
C1318 C1334 1.368 . S
H1319 C1327 0.950 . S
H1320 C1325 0.950 . S
H1321 C1326 0.949 . S
H1322 C1328 0.950 . S
H1323 C1329 0.950 . S
H1324 C1330 0.949 . S
C1325 H1320 0.950 . S
C1325 C1327 1.327 . S
C1325 C1331 1.429 . S
C1326 C1318 1.574 . S
C1326 H1321 0.949 . S
C1326 C1332 1.368 1_565 S
C1327 C1311 1.349 . S
C1327 H1319 0.950 . S
C1327 C1325 1.327 . S
C1328 C1316 1.349 . S
C1328 H1322 0.950 . S
C1328 C1329 1.327 . S
C1329 H1323 0.950 . S
C1329 C1328 1.327 . S
C1329 C1333 1.429 . S
C1330 C1313 1.574 . S
C1330 H1324 0.949 . S
C1330 C1334 1.368 1_545 S
C1331 C1312 1.429 1_545 S
C1331 C1325 1.429 . S
C1331 C1332 1.523 . S
C1332 C1313 1.368 . S
C1332 C1326 1.368 1_545 S
C1332 C1331 1.523 . S
C1333 C1317 1.429 1_565 S
C1333 C1329 1.429 . S
C1333 C1334 1.523 . S
C1334 C1318 1.368 . S
C1334 C1330 1.368 1_565 S
C1334 C1333 1.523 . S
H1335 C1310 0.935 1_565 S
H1336 C1312 0.950 . S
H1337 C1313 0.949 . S
H1338 C1315 0.921 1_545 S
H1339 C1317 0.950 . S
C1340 C1341 1.349 . S
C1340 C1342 1.327 . S
C1340 H1365 0.950 . S
C1341 C1340 1.349 . S
C1341 C1357 1.349 . S
C1342 C1340 1.327 . S
C1342 C1361 1.429 . S
C1342 H1366 0.950 . S
C1343 C1360 1.574 1_556 S
C1343 C1362 1.368 . S
C1343 H1367 0.949 . S
H1344 C1348 0.949 . S
C1345 C1346 1.349 . S
C1345 C1347 1.327 . S
C1345 H1368 0.950 . S
C1346 C1345 1.349 . S
C1346 C1358 1.349 . S
C1347 C1345 1.327 . S
C1347 C1363 1.429 . S
C1347 H1369 0.950 . S
C1348 H1344 0.949 . S
C1348 C1356 1.574 1_554 S
C1348 C1364 1.368 . S
H1349 C1357 0.950 . S
H1350 C1355 0.950 . S
H1351 C1356 0.949 . S
H1352 C1358 0.950 . S
H1353 C1359 0.950 . S
H1354 C1360 0.949 . S
C1355 H1350 0.950 . S
C1355 C1357 1.327 . S
C1355 C1361 1.429 . S
C1356 C1348 1.574 1_556 S
C1356 H1351 0.949 . S
C1356 C1362 1.368 . S
C1357 C1341 1.349 . S
C1357 H1349 0.950 . S
C1357 C1355 1.327 . S
C1358 C1346 1.349 . S
C1358 H1352 0.950 . S
C1358 C1359 1.327 . S
C1359 H1353 0.950 . S
C1359 C1358 1.327 . S
C1359 C1363 1.429 . S
C1360 C1343 1.574 1_554 S
C1360 H1354 0.949 . S
C1360 C1364 1.368 . S
C1361 C1342 1.429 . S
C1361 C1355 1.429 . S
C1361 C1362 1.523 . S
C1362 C1343 1.368 . S
C1362 C1356 1.368 . S
C1362 C1361 1.523 . S
C1363 C1347 1.429 . S
C1363 C1359 1.429 . S
C1363 C1364 1.523 . S
C1364 C1348 1.368 . S
C1364 C1360 1.368 . S
C1364 C1363 1.523 . S
H1365 C1340 0.950 . S
H1366 C1342 0.950 . S
H1367 C1343 0.949 . S
H1368 C1345 0.950 . S
H1369 C1347 0.950 . S
C1370 C1371 1.381 . S
C1370 C1372 1.319 1_565 S
C1370 H1395 0.927 1_565 S
C1371 C1370 1.381 . S
C1371 C1387 1.349 . S
C1372 C1370 1.319 1_545 S
C1372 C1391 1.429 1_545 S
C1372 H1396 0.950 . S
C1373 C1390 1.574 . S
C1373 C1392 1.368 . S
C1373 H1397 0.949 . S
H1374 C1378 0.949 . S
C1375 C1376 1.400 . S
C1375 C1377 1.314 1_545 S
C1375 H1398 0.914 1_545 S
C1376 C1375 1.400 . S
C1376 C1388 1.349 . S
C1377 C1375 1.314 1_565 S
C1377 C1393 1.429 1_565 S
C1377 H1399 0.950 . S
C1378 H1374 0.949 . S
C1378 C1386 1.574 . S
C1378 C1394 1.368 . S
H1379 C1387 0.950 . S
H1380 C1385 0.950 . S
H1381 C1386 0.949 . S
H1382 C1388 0.950 . S
H1383 C1389 0.950 . S
H1384 C1390 0.949 . S
C1385 H1380 0.950 . S
C1385 C1387 1.327 . S
C1385 C1391 1.429 . S
C1386 C1378 1.574 . S
C1386 H1381 0.949 . S
C1386 C1392 1.368 1_545 S
C1387 C1371 1.349 . S
C1387 H1379 0.950 . S
C1387 C1385 1.327 . S
C1388 C1376 1.349 . S
C1388 H1382 0.950 . S
C1388 C1389 1.327 . S
C1389 H1383 0.950 . S
C1389 C1388 1.327 . S
C1389 C1393 1.429 . S
C1390 C1373 1.574 . S
C1390 H1384 0.949 . S
C1390 C1394 1.368 1_565 S
C1391 C1372 1.429 1_565 S
C1391 C1385 1.429 . S
C1391 C1392 1.523 . S
C1392 C1373 1.368 . S
C1392 C1386 1.368 1_565 S
C1392 C1391 1.523 . S
C1393 C1377 1.429 1_545 S
C1393 C1389 1.429 . S
C1393 C1394 1.523 . S
C1394 C1378 1.368 . S
C1394 C1390 1.368 1_545 S
C1394 C1393 1.523 . S
H1395 C1370 0.927 1_545 S
H1396 C1372 0.950 . S
H1397 C1373 0.949 . S
H1398 C1375 0.914 1_565 S
H1399 C1377 0.950 . S
C1400 C1401 1.349 . S
C1400 C1402 1.327 . S
C1400 H1425 0.950 . S
C1401 C1400 1.349 . S
C1401 C1417 1.349 . S
C1402 C1400 1.327 . S
C1402 C1421 1.429 . S
C1402 H1426 0.950 . S
C1403 C1420 1.574 . S
C1403 C1422 1.368 . S
C1403 H1427 0.949 . S
H1404 C1408 0.949 . S
C1405 C1406 1.349 . S
C1405 C1407 1.327 . S
C1405 H1428 0.950 . S
C1406 C1405 1.349 . S
C1406 C1418 1.349 . S
C1407 C1405 1.327 . S
C1407 C1423 1.429 . S
C1407 H1429 0.950 . S
C1408 H1404 0.949 . S
C1408 C1416 1.574 . S
C1408 C1424 1.368 . S
H1409 C1417 0.950 . S
H1410 C1415 0.950 . S
H1411 C1416 0.949 . S
H1412 C1418 0.950 . S
H1413 C1419 0.950 . S
H1414 C1420 0.949 . S
C1415 H1410 0.950 . S
C1415 C1417 1.327 . S
C1415 C1421 1.429 . S
C1416 C1408 1.574 . S
C1416 H1411 0.949 . S
C1416 C1422 1.368 . S
C1417 C1401 1.349 . S
C1417 H1409 0.950 . S
C1417 C1415 1.327 . S
C1418 C1406 1.349 . S
C1418 H1412 0.950 . S
C1418 C1419 1.327 . S
C1419 H1413 0.950 . S
C1419 C1418 1.327 . S
C1419 C1423 1.429 . S
C1420 C1403 1.574 . S
C1420 H1414 0.949 . S
C1420 C1424 1.368 . S
C1421 C1402 1.429 . S
C1421 C1415 1.429 . S
C1421 C1422 1.523 . S
C1422 C1403 1.368 . S
C1422 C1416 1.368 . S
C1422 C1421 1.523 . S
C1423 C1407 1.429 . S
C1423 C1419 1.429 . S
C1423 C1424 1.523 . S
C1424 C1408 1.368 . S
C1424 C1420 1.368 . S
C1424 C1423 1.523 . S
H1425 C1400 0.950 . S
H1426 C1402 0.950 . S
H1427 C1403 0.949 . S
H1428 C1405 0.950 . S
H1429 C1407 0.950 . S
C1430 C1431 1.431 . S
C1430 C1432 1.308 1_545 S
C1430 H1455 0.896 1_545 S
C1431 C1430 1.431 . S
C1431 C1447 1.349 . S
C1432 C1430 1.308 1_565 S
C1432 C1451 1.429 1_565 S
C1432 H1456 0.950 . S
C1433 C1450 1.574 . S
C1433 C1452 1.368 . S
C1433 H1457 0.949 . S
H1434 C1438 0.949 . S
C1435 C1436 1.349 . S
C1435 C1437 1.327 1_565 S
C1435 H1458 0.950 1_565 S
C1436 C1435 1.349 . S
C1436 C1448 1.349 . S
C1437 C1435 1.327 1_545 S
C1437 C1453 1.429 1_545 S
C1437 H1459 0.950 . S
C1438 H1434 0.949 . S
C1438 C1446 1.574 . S
C1438 C1454 1.368 . S
H1439 C1447 0.950 . S
H1440 C1445 0.950 . S
H1441 C1446 0.949 . S
H1442 C1448 0.950 . S
H1443 C1449 0.950 . S
H1444 C1450 0.949 . S
C1445 H1440 0.950 . S
C1445 C1447 1.327 . S
C1445 C1451 1.429 . S
C1446 C1438 1.574 . S
C1446 H1441 0.949 . S
C1446 C1452 1.368 1_565 S
C1447 C1431 1.349 . S
C1447 H1439 0.950 . S
C1447 C1445 1.327 . S
C1448 C1436 1.349 . S
C1448 H1442 0.950 . S
C1448 C1449 1.327 . S
C1449 H1443 0.950 . S
C1449 C1448 1.327 . S
C1449 C1453 1.429 . S
C1450 C1433 1.574 . S
C1450 H1444 0.949 . S
C1450 C1454 1.368 1_545 S
C1451 C1432 1.429 1_545 S
C1451 C1445 1.429 . S
C1451 C1452 1.523 . S
C1452 C1433 1.368 . S
C1452 C1446 1.368 1_545 S
C1452 C1451 1.523 . S
C1453 C1437 1.429 1_565 S
C1453 C1449 1.429 . S
C1453 C1454 1.523 . S
C1454 C1438 1.368 . S
C1454 C1450 1.368 1_565 S
C1454 C1453 1.523 . S
H1455 C1430 0.896 1_565 S
H1456 C1432 0.950 . S
H1457 C1433 0.949 . S
H1458 C1435 0.950 1_545 S
H1459 C1437 0.950 . S
C1460 C1461 1.349 . S
C1460 C1462 1.327 . S
C1460 H1485 0.950 . S
C1461 C1460 1.349 . S
C1461 C1477 1.349 . S
C1462 C1460 1.327 . S
C1462 C1481 1.429 . S
C1462 H1486 0.950 . S
C1463 C1480 1.574 1_556 S
C1463 C1482 1.368 . S
C1463 H1487 0.949 . S
H1464 C1468 0.949 . S
C1465 C1466 1.349 . S
C1465 C1467 1.327 . S
C1465 H1488 0.950 . S
C1466 C1465 1.349 . S
C1466 C1478 1.349 . S
C1467 C1465 1.327 . S
C1467 C1483 1.429 . S
C1467 H1489 0.950 . S
C1468 H1464 0.949 . S
C1468 C1476 1.574 1_554 S
C1468 C1484 1.368 . S
H1469 C1477 0.950 . S
H1470 C1475 0.950 . S
H1471 C1476 0.949 . S
H1472 C1478 0.950 . S
H1473 C1479 0.950 . S
H1474 C1480 0.949 . S
C1475 H1470 0.950 . S
C1475 C1477 1.327 . S
C1475 C1481 1.429 . S
C1476 C1468 1.574 1_556 S
C1476 H1471 0.949 . S
C1476 C1482 1.368 . S
C1477 C1461 1.349 . S
C1477 H1469 0.950 . S
C1477 C1475 1.327 . S
C1478 C1466 1.349 . S
C1478 H1472 0.950 . S
C1478 C1479 1.327 . S
C1479 H1473 0.950 . S
C1479 C1478 1.327 . S
C1479 C1483 1.429 . S
C1480 C1463 1.574 1_554 S
C1480 H1474 0.949 . S
C1480 C1484 1.368 . S
C1481 C1462 1.429 . S
C1481 C1475 1.429 . S
C1481 C1482 1.523 . S
C1482 C1463 1.368 . S
C1482 C1476 1.368 . S
C1482 C1481 1.523 . S
C1483 C1467 1.429 . S
C1483 C1479 1.429 . S
C1483 C1484 1.523 . S
C1484 C1468 1.368 . S
C1484 C1480 1.368 . S
C1484 C1483 1.523 . S
H1485 C1460 0.950 . S
H1486 C1462 0.950 . S
H1487 C1463 0.949 . S
H1488 C1465 0.950 . S
H1489 C1467 0.950 . S
C1490 C1491 1.354 1_545 S
C1490 C1492 1.326 . S
C1490 H1515 0.946 . S
C1491 C1490 1.354 1_565 S
C1491 C1507 1.349 . S
C1492 C1490 1.326 . S
C1492 C1511 1.429 1_545 S
C1492 H1516 0.950 . S
C1493 C1510 1.574 . S
C1493 C1512 1.368 . S
C1493 H1517 0.949 . S
H1494 C1498 0.949 . S
C1495 C1496 1.354 . S
C1495 C1497 1.326 1_545 S
C1495 H1518 0.946 1_545 S
C1496 C1495 1.354 . S
C1496 C1508 1.349 . S
C1497 C1495 1.326 1_565 S
C1497 C1513 1.429 1_565 S
C1497 H1519 0.950 . S
C1498 H1494 0.949 . S
C1498 C1506 1.574 . S
C1498 C1514 1.368 . S
H1499 C1507 0.950 . S
H1500 C1505 0.950 . S
H1501 C1506 0.949 . S
H1502 C1508 0.950 . S
H1503 C1509 0.950 . S
H1504 C1510 0.949 . S
C1505 H1500 0.950 . S
C1505 C1507 1.327 . S
C1505 C1511 1.429 . S
C1506 C1498 1.574 . S
C1506 H1501 0.949 . S
C1506 C1512 1.368 1_545 S
C1507 C1491 1.349 . S
C1507 H1499 0.950 . S
C1507 C1505 1.327 . S
C1508 C1496 1.349 . S
C1508 H1502 0.950 . S
C1508 C1509 1.327 . S
C1509 H1503 0.950 . S
C1509 C1508 1.327 . S
C1509 C1513 1.429 . S
C1510 C1493 1.574 . S
C1510 H1504 0.949 . S
C1510 C1514 1.368 1_565 S
C1511 C1492 1.429 1_565 S
C1511 C1505 1.429 . S
C1511 C1512 1.523 . S
C1512 C1493 1.368 . S
C1512 C1506 1.368 1_565 S
C1512 C1511 1.523 . S
C1513 C1497 1.429 1_545 S
C1513 C1509 1.429 . S
C1513 C1514 1.523 . S
C1514 C1498 1.368 . S
C1514 C1510 1.368 1_545 S
C1514 C1513 1.523 . S
H1515 C1490 0.946 . S
H1516 C1492 0.950 . S
H1517 C1493 0.949 . S
H1518 C1495 0.946 1_565 S
H1519 C1497 0.950 . S
C1520 C1521 1.349 . S
C1520 C1522 1.327 . S
C1520 H1545 0.950 . S
C1521 C1520 1.349 . S
C1521 C1537 1.349 . S
C1522 C1520 1.327 . S
C1522 C1541 1.429 . S
C1522 H1546 0.950 . S
C1523 C1540 1.574 1_554 S
C1523 C1542 1.368 . S
C1523 H1547 0.949 . S
H1524 C1528 0.949 . S
C1525 C1526 1.349 . S
C1525 C1527 1.327 . S
C1525 H1548 0.950 . S
C1526 C1525 1.349 . S
C1526 C1538 1.349 . S
C1527 C1525 1.327 . S
C1527 C1543 1.429 . S
C1527 H1549 0.950 . S
C1528 H1524 0.949 . S
C1528 C1536 1.574 1_556 S
C1528 C1544 1.368 . S
H1529 C1537 0.950 . S
H1530 C1535 0.950 . S
H1531 C1536 0.949 . S
H1532 C1538 0.950 . S
H1533 C1539 0.950 . S
H1534 C1540 0.949 . S
C1535 H1530 0.950 . S
C1535 C1537 1.327 . S
C1535 C1541 1.429 . S
C1536 C1528 1.574 1_554 S
C1536 H1531 0.949 . S
C1536 C1542 1.368 . S
C1537 C1521 1.349 . S
C1537 H1529 0.950 . S
C1537 C1535 1.327 . S
C1538 C1526 1.349 . S
C1538 H1532 0.950 . S
C1538 C1539 1.327 . S
C1539 H1533 0.950 . S
C1539 C1538 1.327 . S
C1539 C1543 1.429 . S
C1540 C1523 1.574 1_556 S
C1540 H1534 0.949 . S
C1540 C1544 1.368 . S
C1541 C1522 1.429 . S
C1541 C1535 1.429 . S
C1541 C1542 1.523 . S
C1542 C1523 1.368 . S
C1542 C1536 1.368 . S
C1542 C1541 1.523 . S
C1543 C1527 1.429 . S
C1543 C1539 1.429 . S
C1543 C1544 1.523 . S
C1544 C1528 1.368 . S
C1544 C1540 1.368 . S
C1544 C1543 1.523 . S
H1545 C1520 0.950 . S
H1546 C1522 0.950 . S
H1547 C1523 0.949 . S
H1548 C1525 0.950 . S
H1549 C1527 0.950 . S
C1550 C1551 1.349 . S
C1550 C1552 1.327 . S
C1550 H1575 0.950 . S
C1551 C1550 1.349 . S
C1551 C1567 1.349 . S
C1552 C1550 1.327 . S
C1552 C1571 1.429 . S
C1552 H1576 0.950 . S
C1553 C1570 1.574 . S
C1553 C1572 1.368 . S
C1553 H1577 0.949 . S
H1554 C1558 0.949 . S
C1555 C1556 1.349 . S
C1555 C1557 1.327 . S
C1555 H1578 0.950 . S
C1556 C1555 1.349 . S
C1556 C1568 1.349 . S
C1557 C1555 1.327 . S
C1557 C1573 1.429 . S
C1557 H1579 0.950 . S
C1558 H1554 0.949 . S
C1558 C1566 1.574 . S
C1558 C1574 1.368 . S
H1559 C1567 0.950 . S
H1560 C1565 0.950 . S
H1561 C1566 0.949 . S
H1562 C1568 0.950 . S
H1563 C1569 0.950 . S
H1564 C1570 0.949 . S
C1565 H1560 0.950 . S
C1565 C1567 1.327 . S
C1565 C1571 1.429 . S
C1566 C1558 1.574 . S
C1566 H1561 0.949 . S
C1566 C1572 1.368 . S
C1567 C1551 1.349 . S
C1567 H1559 0.950 . S
C1567 C1565 1.327 . S
C1568 C1556 1.349 . S
C1568 H1562 0.950 . S
C1568 C1569 1.327 . S
C1569 H1563 0.950 . S
C1569 C1568 1.327 . S
C1569 C1573 1.429 . S
C1570 C1553 1.574 . S
C1570 H1564 0.949 . S
C1570 C1574 1.368 . S
C1571 C1552 1.429 . S
C1571 C1565 1.429 . S
C1571 C1572 1.523 . S
C1572 C1553 1.368 . S
C1572 C1566 1.368 . S
C1572 C1571 1.523 . S
C1573 C1557 1.429 . S
C1573 C1569 1.429 . S
C1573 C1574 1.523 . S
C1574 C1558 1.368 . S
C1574 C1570 1.368 . S
C1574 C1573 1.523 . S
H1575 C1550 0.950 . S
H1576 C1552 0.950 . S
H1577 C1553 0.949 . S
H1578 C1555 0.950 . S
H1579 C1557 0.950 . S
C1580 C1581 1.349 . S
C1580 C1582 1.327 . S
C1580 H1605 0.950 . S
C1581 C1580 1.349 . S
C1581 C1597 1.349 . S
C1582 C1580 1.327 . S
C1582 C1601 1.429 . S
C1582 H1606 0.950 . S
C1583 C1600 1.574 . S
C1583 C1602 1.368 . S
C1583 H1607 0.949 . S
H1584 C1588 0.949 . S
C1585 C1586 1.349 . S
C1585 C1587 1.327 . S
C1585 H1608 0.950 . S
C1586 C1585 1.349 . S
C1586 C1598 1.349 . S
C1587 C1585 1.327 . S
C1587 C1603 1.429 . S
C1587 H1609 0.950 . S
C1588 H1584 0.949 . S
C1588 C1596 1.574 . S
C1588 C1604 1.368 . S
H1589 C1597 0.950 . S
H1590 C1595 0.950 . S
H1591 C1596 0.949 . S
H1592 C1598 0.950 . S
H1593 C1599 0.950 . S
H1594 C1600 0.949 . S
C1595 H1590 0.950 . S
C1595 C1597 1.327 . S
C1595 C1601 1.429 . S
C1596 C1588 1.574 . S
C1596 H1591 0.949 . S
C1596 C1602 1.368 . S
C1597 C1581 1.349 . S
C1597 H1589 0.950 . S
C1597 C1595 1.327 . S
C1598 C1586 1.349 . S
C1598 H1592 0.950 . S
C1598 C1599 1.327 . S
C1599 H1593 0.950 . S
C1599 C1598 1.327 . S
C1599 C1603 1.429 . S
C1600 C1583 1.574 . S
C1600 H1594 0.949 . S
C1600 C1604 1.368 . S
C1601 C1582 1.429 . S
C1601 C1595 1.429 . S
C1601 C1602 1.523 . S
C1602 C1583 1.368 . S
C1602 C1596 1.368 . S
C1602 C1601 1.523 . S
C1603 C1587 1.429 . S
C1603 C1599 1.429 . S
C1603 C1604 1.523 . S
C1604 C1588 1.368 . S
C1604 C1600 1.368 . S
C1604 C1603 1.523 . S
H1605 C1580 0.950 . S
H1606 C1582 0.950 . S
H1607 C1583 0.949 . S
H1608 C1585 0.950 . S
H1609 C1587 0.950 . S
C1610 C1611 1.349 . S
C1610 C1612 1.327 . S
C1610 H1635 0.950 . S
C1611 C1610 1.349 . S
C1611 C1627 1.349 . S
C1612 C1610 1.327 . S
C1612 C1631 1.429 . S
C1612 H1636 0.950 . S
C1613 C1630 1.574 . S
C1613 C1632 1.368 . S
C1613 H1637 0.949 . S
H1614 C1618 0.949 . S
C1615 C1616 1.349 . S
C1615 C1617 1.327 . S
C1615 H1638 0.950 . S
C1616 C1615 1.349 . S
C1616 C1628 1.349 . S
C1617 C1615 1.327 . S
C1617 C1633 1.429 . S
C1617 H1639 0.950 . S
C1618 H1614 0.949 . S
C1618 C1626 1.574 . S
C1618 C1634 1.368 . S
H1619 C1627 0.950 . S
H1620 C1625 0.950 . S
H1621 C1626 0.949 . S
H1622 C1628 0.950 . S
H1623 C1629 0.950 . S
H1624 C1630 0.949 . S
C1625 H1620 0.950 . S
C1625 C1627 1.327 . S
C1625 C1631 1.429 . S
C1626 C1618 1.574 . S
C1626 H1621 0.949 . S
C1626 C1632 1.368 . S
C1627 C1611 1.349 . S
C1627 H1619 0.950 . S
C1627 C1625 1.327 . S
C1628 C1616 1.349 . S
C1628 H1622 0.950 . S
C1628 C1629 1.327 . S
C1629 H1623 0.950 . S
C1629 C1628 1.327 . S
C1629 C1633 1.429 . S
C1630 C1613 1.574 . S
C1630 H1624 0.949 . S
C1630 C1634 1.368 . S
C1631 C1612 1.429 . S
C1631 C1625 1.429 . S
C1631 C1632 1.523 . S
C1632 C1613 1.368 . S
C1632 C1626 1.368 . S
C1632 C1631 1.523 . S
C1633 C1617 1.429 . S
C1633 C1629 1.429 . S
C1633 C1634 1.523 . S
C1634 C1618 1.368 . S
C1634 C1630 1.368 . S
C1634 C1633 1.523 . S
H1635 C1610 0.950 . S
H1636 C1612 0.950 . S
H1637 C1613 0.949 . S
H1638 C1615 0.950 . S
H1639 C1617 0.950 . S
C1640 C1641 1.349 . S
C1640 C1642 1.327 . S
C1640 H1665 0.950 . S
C1641 C1640 1.349 . S
C1641 C1657 1.349 . S
C1642 C1640 1.327 . S
C1642 C1661 1.429 . S
C1642 H1666 0.950 . S
C1643 C1660 1.574 1_556 S
C1643 C1662 1.368 . S
C1643 H1667 0.949 . S
H1644 C1648 0.949 . S
C1645 C1646 1.349 . S
C1645 C1647 1.327 . S
C1645 H1668 0.950 . S
C1646 C1645 1.349 . S
C1646 C1658 1.349 . S
C1647 C1645 1.327 . S
C1647 C1663 1.429 . S
C1647 H1669 0.950 . S
C1648 H1644 0.949 . S
C1648 C1656 1.574 1_554 S
C1648 C1664 1.368 . S
H1649 C1657 0.950 . S
H1650 C1655 0.950 . S
H1651 C1656 0.949 . S
H1652 C1658 0.950 . S
H1653 C1659 0.950 . S
H1654 C1660 0.949 . S
C1655 H1650 0.950 . S
C1655 C1657 1.327 . S
C1655 C1661 1.429 . S
C1656 C1648 1.574 1_556 S
C1656 H1651 0.949 . S
C1656 C1662 1.368 . S
C1657 C1641 1.349 . S
C1657 H1649 0.950 . S
C1657 C1655 1.327 . S
C1658 C1646 1.349 . S
C1658 H1652 0.950 . S
C1658 C1659 1.327 . S
C1659 H1653 0.950 . S
C1659 C1658 1.327 . S
C1659 C1663 1.429 . S
C1660 C1643 1.574 1_554 S
C1660 H1654 0.949 . S
C1660 C1664 1.368 . S
C1661 C1642 1.429 . S
C1661 C1655 1.429 . S
C1661 C1662 1.523 . S
C1662 C1643 1.368 . S
C1662 C1656 1.368 . S
C1662 C1661 1.523 . S
C1663 C1647 1.429 . S
C1663 C1659 1.429 . S
C1663 C1664 1.523 . S
C1664 C1648 1.368 . S
C1664 C1660 1.368 . S
C1664 C1663 1.523 . S
H1665 C1640 0.950 . S
H1666 C1642 0.950 . S
H1667 C1643 0.949 . S
H1668 C1645 0.950 . S
H1669 C1647 0.950 . S
C1670 C1671 1.349 . S
C1670 C1672 1.327 . S
C1670 H1695 0.950 . S
C1671 C1670 1.349 . S
C1671 C1687 1.349 . S
C1672 C1670 1.327 . S
C1672 C1691 1.429 . S
C1672 H1696 0.950 . S
C1673 C1690 1.574 . S
C1673 C1692 1.368 . S
C1673 H1697 0.949 . S
H1674 C1678 0.949 . S
C1675 C1676 1.349 . S
C1675 C1677 1.327 . S
C1675 H1698 0.950 . S
C1676 C1675 1.349 . S
C1676 C1688 1.349 . S
C1677 C1675 1.327 . S
C1677 C1693 1.429 . S
C1677 H1699 0.950 . S
C1678 H1674 0.949 . S
C1678 C1686 1.574 . S
C1678 C1694 1.368 . S
H1679 C1687 0.950 . S
H1680 C1685 0.950 . S
H1681 C1686 0.949 . S
H1682 C1688 0.950 . S
H1683 C1689 0.950 . S
H1684 C1690 0.949 . S
C1685 H1680 0.950 . S
C1685 C1687 1.327 . S
C1685 C1691 1.429 . S
C1686 C1678 1.574 . S
C1686 H1681 0.949 . S
C1686 C1692 1.368 . S
C1687 C1671 1.349 . S
C1687 H1679 0.950 . S
C1687 C1685 1.327 . S
C1688 C1676 1.349 . S
C1688 H1682 0.950 . S
C1688 C1689 1.327 . S
C1689 H1683 0.950 . S
C1689 C1688 1.327 . S
C1689 C1693 1.429 . S
C1690 C1673 1.574 . S
C1690 H1684 0.949 . S
C1690 C1694 1.368 . S
C1691 C1672 1.429 . S
C1691 C1685 1.429 . S
C1691 C1692 1.523 . S
C1692 C1673 1.368 . S
C1692 C1686 1.368 . S
C1692 C1691 1.523 . S
C1693 C1677 1.429 . S
C1693 C1689 1.429 . S
C1693 C1694 1.523 . S
C1694 C1678 1.368 . S
C1694 C1690 1.368 . S
C1694 C1693 1.523 . S
H1695 C1670 0.950 . S
H1696 C1672 0.950 . S
H1697 C1673 0.949 . S
H1698 C1675 0.950 . S
H1699 C1677 0.950 . S
C1700 C1701 1.349 . S
C1700 C1702 1.327 . S
C1700 H1725 0.950 . S
C1701 C1700 1.349 . S
C1701 C1717 1.349 . S
C1702 C1700 1.327 . S
C1702 C1721 1.429 . S
C1702 H1726 0.950 . S
C1703 C1720 1.574 . S
C1703 C1722 1.368 . S
C1703 H1727 0.949 . S
H1704 C1708 0.949 . S
C1705 C1706 1.349 . S
C1705 C1707 1.327 . S
C1705 H1728 0.950 . S
C1706 C1705 1.349 . S
C1706 C1718 1.349 . S
C1707 C1705 1.327 . S
C1707 C1723 1.429 . S
C1707 H1729 0.950 . S
C1708 H1704 0.949 . S
C1708 C1716 1.574 . S
C1708 C1724 1.368 . S
H1709 C1717 0.950 . S
H1710 C1715 0.950 . S
H1711 C1716 0.949 . S
H1712 C1718 0.950 . S
H1713 C1719 0.950 . S
H1714 C1720 0.949 . S
C1715 H1710 0.950 . S
C1715 C1717 1.327 . S
C1715 C1721 1.429 . S
C1716 C1708 1.574 . S
C1716 H1711 0.949 . S
C1716 C1722 1.368 . S
C1717 C1701 1.349 . S
C1717 H1709 0.950 . S
C1717 C1715 1.327 . S
C1718 C1706 1.349 . S
C1718 H1712 0.950 . S
C1718 C1719 1.327 . S
C1719 H1713 0.950 . S
C1719 C1718 1.327 . S
C1719 C1723 1.429 . S
C1720 C1703 1.574 . S
C1720 H1714 0.949 . S
C1720 C1724 1.368 . S
C1721 C1702 1.429 . S
C1721 C1715 1.429 . S
C1721 C1722 1.523 . S
C1722 C1703 1.368 . S
C1722 C1716 1.368 . S
C1722 C1721 1.523 . S
C1723 C1707 1.429 . S
C1723 C1719 1.429 . S
C1723 C1724 1.523 . S
C1724 C1708 1.368 . S
C1724 C1720 1.368 . S
C1724 C1723 1.523 . S
H1725 C1700 0.950 . S
H1726 C1702 0.950 . S
H1727 C1703 0.949 . S
H1728 C1705 0.950 . S
H1729 C1707 0.950 . S
C1730 C1731 1.349 . S
C1730 C1732 1.327 . S
C1730 H1755 0.950 . S
C1731 C1730 1.349 . S
C1731 C1747 1.349 . S
C1732 C1730 1.327 . S
C1732 C1751 1.429 . S
C1732 H1756 0.950 . S
C1733 C1750 1.574 . S
C1733 C1752 1.368 . S
C1733 H1757 0.949 . S
H1734 C1738 0.949 . S
C1735 C1736 1.349 . S
C1735 C1737 1.327 . S
C1735 H1758 0.950 . S
C1736 C1735 1.349 . S
C1736 C1748 1.349 . S
C1737 C1735 1.327 . S
C1737 C1753 1.429 . S
C1737 H1759 0.950 . S
C1738 H1734 0.949 . S
C1738 C1746 1.574 . S
C1738 C1754 1.368 . S
H1739 C1747 0.950 . S
H1740 C1745 0.950 . S
H1741 C1746 0.949 . S
H1742 C1748 0.950 . S
H1743 C1749 0.950 . S
H1744 C1750 0.949 . S
C1745 H1740 0.950 . S
C1745 C1747 1.327 . S
C1745 C1751 1.429 . S
C1746 C1738 1.574 . S
C1746 H1741 0.949 . S
C1746 C1752 1.368 . S
C1747 C1731 1.349 . S
C1747 H1739 0.950 . S
C1747 C1745 1.327 . S
C1748 C1736 1.349 . S
C1748 H1742 0.950 . S
C1748 C1749 1.327 . S
C1749 H1743 0.950 . S
C1749 C1748 1.327 . S
C1749 C1753 1.429 . S
C1750 C1733 1.574 . S
C1750 H1744 0.949 . S
C1750 C1754 1.368 . S
C1751 C1732 1.429 . S
C1751 C1745 1.429 . S
C1751 C1752 1.523 . S
C1752 C1733 1.368 . S
C1752 C1746 1.368 . S
C1752 C1751 1.523 . S
C1753 C1737 1.429 . S
C1753 C1749 1.429 . S
C1753 C1754 1.523 . S
C1754 C1738 1.368 . S
C1754 C1750 1.368 . S
C1754 C1753 1.523 . S
H1755 C1730 0.950 . S
H1756 C1732 0.950 . S
H1757 C1733 0.949 . S
H1758 C1735 0.950 . S
H1759 C1737 0.950 . S
C1760 C1761 1.349 . S
C1760 C1762 1.327 . S
C1760 H1785 0.950 . S
C1761 C1760 1.349 . S
C1761 C1777 1.349 . S
C1762 C1760 1.327 . S
C1762 C1781 1.429 . S
C1762 H1786 0.950 . S
C1763 C1780 1.574 . S
C1763 C1782 1.368 . S
C1763 H1787 0.949 . S
H1764 C1768 0.949 . S
C1765 C1766 1.349 . S
C1765 C1767 1.327 . S
C1765 H1788 0.950 . S
C1766 C1765 1.349 . S
C1766 C1778 1.349 . S
C1767 C1765 1.327 . S
C1767 C1783 1.429 . S
C1767 H1789 0.950 . S
C1768 H1764 0.949 . S
C1768 C1776 1.574 . S
C1768 C1784 1.368 . S
H1769 C1777 0.950 . S
H1770 C1775 0.950 . S
H1771 C1776 0.949 . S
H1772 C1778 0.950 . S
H1773 C1779 0.950 . S
H1774 C1780 0.949 . S
C1775 H1770 0.950 . S
C1775 C1777 1.327 . S
C1775 C1781 1.429 . S
C1776 C1768 1.574 . S
C1776 H1771 0.949 . S
C1776 C1782 1.368 . S
C1777 C1761 1.349 . S
C1777 H1769 0.950 . S
C1777 C1775 1.327 . S
C1778 C1766 1.349 . S
C1778 H1772 0.950 . S
C1778 C1779 1.327 . S
C1779 H1773 0.950 . S
C1779 C1778 1.327 . S
C1779 C1783 1.429 . S
C1780 C1763 1.574 . S
C1780 H1774 0.949 . S
C1780 C1784 1.368 . S
C1781 C1762 1.429 . S
C1781 C1775 1.429 . S
C1781 C1782 1.523 . S
C1782 C1763 1.368 . S
C1782 C1776 1.368 . S
C1782 C1781 1.523 . S
C1783 C1767 1.429 . S
C1783 C1779 1.429 . S
C1783 C1784 1.523 . S
C1784 C1768 1.368 . S
C1784 C1780 1.368 . S
C1784 C1783 1.523 . S
H1785 C1760 0.950 . S
H1786 C1762 0.950 . S
H1787 C1763 0.949 . S
H1788 C1765 0.950 . S
H1789 C1767 0.950 . S
C1790 C1791 1.349 . S
C1790 C1792 1.327 . S
C1790 H1815 0.950 . S
C1791 C1790 1.349 . S
C1791 C1807 1.349 . S
C1792 C1790 1.327 . S
C1792 C1811 1.429 . S
C1792 H1816 0.950 . S
C1793 C1810 1.574 . S
C1793 C1812 1.368 . S
C1793 H1817 0.949 . S
H1794 C1798 0.949 . S
C1795 C1796 1.349 . S
C1795 C1797 1.327 . S
C1795 H1818 0.950 . S
C1796 C1795 1.349 . S
C1796 C1808 1.349 . S
C1797 C1795 1.327 . S
C1797 C1813 1.429 . S
C1797 H1819 0.950 . S
C1798 H1794 0.949 . S
C1798 C1806 1.574 . S
C1798 C1814 1.368 . S
H1799 C1807 0.950 . S
H1800 C1805 0.950 . S
H1801 C1806 0.949 . S
H1802 C1808 0.950 . S
H1803 C1809 0.950 . S
H1804 C1810 0.949 . S
C1805 H1800 0.950 . S
C1805 C1807 1.327 . S
C1805 C1811 1.429 . S
C1806 C1798 1.574 . S
C1806 H1801 0.949 . S
C1806 C1812 1.368 . S
C1807 C1791 1.349 . S
C1807 H1799 0.950 . S
C1807 C1805 1.327 . S
C1808 C1796 1.349 . S
C1808 H1802 0.950 . S
C1808 C1809 1.327 . S
C1809 H1803 0.950 . S
C1809 C1808 1.327 . S
C1809 C1813 1.429 . S
C1810 C1793 1.574 . S
C1810 H1804 0.949 . S
C1810 C1814 1.368 . S
C1811 C1792 1.429 . S
C1811 C1805 1.429 . S
C1811 C1812 1.523 . S
C1812 C1793 1.368 . S
C1812 C1806 1.368 . S
C1812 C1811 1.523 . S
C1813 C1797 1.429 . S
C1813 C1809 1.429 . S
C1813 C1814 1.523 . S
C1814 C1798 1.368 . S
C1814 C1810 1.368 . S
C1814 C1813 1.523 . S
H1815 C1790 0.950 . S
H1816 C1792 0.950 . S
H1817 C1793 0.949 . S
H1818 C1795 0.950 . S
H1819 C1797 0.950 . S
C1820 C1821 1.349 . S
C1820 C1822 1.327 . S
C1820 H1845 0.950 . S
C1821 C1820 1.349 . S
C1821 C1837 1.349 . S
C1822 C1820 1.327 . S
C1822 C1841 1.429 . S
C1822 H1846 0.950 . S
C1823 C1840 1.574 . S
C1823 C1842 1.368 . S
C1823 H1847 0.949 . S
H1824 C1828 0.949 . S
C1825 C1826 1.349 . S
C1825 C1827 1.327 . S
C1825 H1848 0.950 . S
C1826 C1825 1.349 . S
C1826 C1838 1.349 . S
C1827 C1825 1.327 . S
C1827 C1843 1.429 . S
C1827 H1849 0.950 . S
C1828 H1824 0.949 . S
C1828 C1836 1.574 . S
C1828 C1844 1.368 . S
H1829 C1837 0.950 . S
H1830 C1835 0.950 . S
H1831 C1836 0.949 . S
H1832 C1838 0.950 . S
H1833 C1839 0.950 . S
H1834 C1840 0.949 . S
C1835 H1830 0.950 . S
C1835 C1837 1.327 . S
C1835 C1841 1.429 . S
C1836 C1828 1.574 . S
C1836 H1831 0.949 . S
C1836 C1842 1.368 . S
C1837 C1821 1.349 . S
C1837 H1829 0.950 . S
C1837 C1835 1.327 . S
C1838 C1826 1.349 . S
C1838 H1832 0.950 . S
C1838 C1839 1.327 . S
C1839 H1833 0.950 . S
C1839 C1838 1.327 . S
C1839 C1843 1.429 . S
C1840 C1823 1.574 . S
C1840 H1834 0.949 . S
C1840 C1844 1.368 . S
C1841 C1822 1.429 . S
C1841 C1835 1.429 . S
C1841 C1842 1.523 . S
C1842 C1823 1.368 . S
C1842 C1836 1.368 . S
C1842 C1841 1.523 . S
C1843 C1827 1.429 . S
C1843 C1839 1.429 . S
C1843 C1844 1.523 . S
C1844 C1828 1.368 . S
C1844 C1840 1.368 . S
C1844 C1843 1.523 . S
H1845 C1820 0.950 . S
H1846 C1822 0.950 . S
H1847 C1823 0.949 . S
H1848 C1825 0.950 . S
H1849 C1827 0.950 . S
C1850 C1851 1.349 . S
C1850 C1852 1.327 . S
C1850 H1875 0.950 . S
C1851 C1850 1.349 . S
C1851 C1867 1.349 . S
C1852 C1850 1.327 . S
C1852 C1871 1.429 . S
C1852 H1876 0.950 . S
C1853 C1870 1.574 . S
C1853 C1872 1.368 . S
C1853 H1877 0.949 . S
H1854 C1858 0.949 . S
C1855 C1856 1.349 . S
C1855 C1857 1.327 . S
C1855 H1878 0.950 . S
C1856 C1855 1.349 . S
C1856 C1868 1.349 . S
C1857 C1855 1.327 . S
C1857 C1873 1.429 . S
C1857 H1879 0.950 . S
C1858 H1854 0.949 . S
C1858 C1866 1.574 . S
C1858 C1874 1.368 . S
H1859 C1867 0.950 . S
H1860 C1865 0.950 . S
H1861 C1866 0.949 . S
H1862 C1868 0.950 . S
H1863 C1869 0.950 . S
H1864 C1870 0.949 . S
C1865 H1860 0.950 . S
C1865 C1867 1.327 . S
C1865 C1871 1.429 . S
C1866 C1858 1.574 . S
C1866 H1861 0.949 . S
C1866 C1872 1.368 . S
C1867 C1851 1.349 . S
C1867 H1859 0.950 . S
C1867 C1865 1.327 . S
C1868 C1856 1.349 . S
C1868 H1862 0.950 . S
C1868 C1869 1.327 . S
C1869 H1863 0.950 . S
C1869 C1868 1.327 . S
C1869 C1873 1.429 . S
C1870 C1853 1.574 . S
C1870 H1864 0.949 . S
C1870 C1874 1.368 . S
C1871 C1852 1.429 . S
C1871 C1865 1.429 . S
C1871 C1872 1.523 . S
C1872 C1853 1.368 . S
C1872 C1866 1.368 . S
C1872 C1871 1.523 . S
C1873 C1857 1.429 . S
C1873 C1869 1.429 . S
C1873 C1874 1.523 . S
C1874 C1858 1.368 . S
C1874 C1870 1.368 . S
C1874 C1873 1.523 . S
H1875 C1850 0.950 . S
H1876 C1852 0.950 . S
H1877 C1853 0.949 . S
H1878 C1855 0.950 . S
H1879 C1857 0.950 . S
C1880 C1881 1.349 . S
C1880 C1882 1.327 . S
C1880 H1905 0.950 . S
C1881 C1880 1.349 . S
C1881 C1897 1.349 . S
C1882 C1880 1.327 . S
C1882 C1901 1.429 . S
C1882 H1906 0.950 . S
C1883 C1900 1.574 . S
C1883 C1902 1.368 . S
C1883 H1907 0.949 . S
H1884 C1888 0.949 . S
C1885 C1886 1.349 . S
C1885 C1887 1.327 . S
C1885 H1908 0.950 . S
C1886 C1885 1.349 . S
C1886 C1898 1.349 . S
C1887 C1885 1.327 . S
C1887 C1903 1.429 . S
C1887 H1909 0.950 . S
C1888 H1884 0.949 . S
C1888 C1896 1.574 . S
C1888 C1904 1.368 . S
H1889 C1897 0.950 . S
H1890 C1895 0.950 . S
H1891 C1896 0.949 . S
H1892 C1898 0.950 . S
H1893 C1899 0.950 . S
H1894 C1900 0.949 . S
C1895 H1890 0.950 . S
C1895 C1897 1.327 . S
C1895 C1901 1.429 . S
C1896 C1888 1.574 . S
C1896 H1891 0.949 . S
C1896 C1902 1.368 . S
C1897 C1881 1.349 . S
C1897 H1889 0.950 . S
C1897 C1895 1.327 . S
C1898 C1886 1.349 . S
C1898 H1892 0.950 . S
C1898 C1899 1.327 . S
C1899 H1893 0.950 . S
C1899 C1898 1.327 . S
C1899 C1903 1.429 . S
C1900 C1883 1.574 . S
C1900 H1894 0.949 . S
C1900 C1904 1.368 . S
C1901 C1882 1.429 . S
C1901 C1895 1.429 . S
C1901 C1902 1.523 . S
C1902 C1883 1.368 . S
C1902 C1896 1.368 . S
C1902 C1901 1.523 . S
C1903 C1887 1.429 . S
C1903 C1899 1.429 . S
C1903 C1904 1.523 . S
C1904 C1888 1.368 . S
C1904 C1900 1.368 . S
C1904 C1903 1.523 . S
H1905 C1880 0.950 . S
H1906 C1882 0.950 . S
H1907 C1883 0.949 . S
H1908 C1885 0.950 . S
H1909 C1887 0.950 . S
C1910 C1911 1.349 . S
C1910 C1912 1.327 . S
C1910 H1935 0.950 . S
C1911 C1910 1.349 . S
C1911 C1927 1.349 . S
C1912 C1910 1.327 . S
C1912 C1931 1.429 . S
C1912 H1936 0.950 . S
C1913 C1930 1.574 . S
C1913 C1932 1.368 . S
C1913 H1937 0.949 . S
H1914 C1918 0.949 . S
C1915 C1916 1.349 . S
C1915 C1917 1.327 . S
C1915 H1938 0.950 . S
C1916 C1915 1.349 . S
C1916 C1928 1.349 . S
C1917 C1915 1.327 . S
C1917 C1933 1.429 . S
C1917 H1939 0.950 . S
C1918 H1914 0.949 . S
C1918 C1926 1.574 . S
C1918 C1934 1.368 . S
H1919 C1927 0.950 . S
H1920 C1925 0.950 . S
H1921 C1926 0.949 . S
H1922 C1928 0.950 . S
H1923 C1929 0.950 . S
H1924 C1930 0.949 . S
C1925 H1920 0.950 . S
C1925 C1927 1.327 . S
C1925 C1931 1.429 . S
C1926 C1918 1.574 . S
C1926 H1921 0.949 . S
C1926 C1932 1.368 . S
C1927 C1911 1.349 . S
C1927 H1919 0.950 . S
C1927 C1925 1.327 . S
C1928 C1916 1.349 . S
C1928 H1922 0.950 . S
C1928 C1929 1.327 . S
C1929 H1923 0.950 . S
C1929 C1928 1.327 . S
C1929 C1933 1.429 . S
C1930 C1913 1.574 . S
C1930 H1924 0.949 . S
C1930 C1934 1.368 . S
C1931 C1912 1.429 . S
C1931 C1925 1.429 . S
C1931 C1932 1.523 . S
C1932 C1913 1.368 . S
C1932 C1926 1.368 . S
C1932 C1931 1.523 . S
C1933 C1917 1.429 . S
C1933 C1929 1.429 . S
C1933 C1934 1.523 . S
C1934 C1918 1.368 . S
C1934 C1930 1.368 . S
C1934 C1933 1.523 . S
H1935 C1910 0.950 . S
H1936 C1912 0.950 . S
H1937 C1913 0.949 . S
H1938 C1915 0.950 . S
H1939 C1917 0.950 . S
C1940 C1941 1.349 . S
C1940 C1942 1.327 . S
C1940 H1965 0.950 . S
C1941 C1940 1.349 . S
C1941 C1957 1.349 . S
C1942 C1940 1.327 . S
C1942 C1961 1.429 . S
C1942 H1966 0.950 . S
C1943 C1960 1.574 . S
C1943 C1962 1.368 . S
C1943 H1967 0.949 . S
H1944 C1948 0.949 . S
C1945 C1946 1.349 . S
C1945 C1947 1.327 . S
C1945 H1968 0.950 . S
C1946 C1945 1.349 . S
C1946 C1958 1.349 . S
C1947 C1945 1.327 . S
C1947 C1963 1.429 . S
C1947 H1969 0.950 . S
C1948 H1944 0.949 . S
C1948 C1956 1.574 . S
C1948 C1964 1.368 . S
H1949 C1957 0.950 . S
H1950 C1955 0.950 . S
H1951 C1956 0.949 . S
H1952 C1958 0.950 . S
H1953 C1959 0.950 . S
H1954 C1960 0.949 . S
C1955 H1950 0.950 . S
C1955 C1957 1.327 . S
C1955 C1961 1.429 . S
C1956 C1948 1.574 . S
C1956 H1951 0.949 . S
C1956 C1962 1.368 . S
C1957 C1941 1.349 . S
C1957 H1949 0.950 . S
C1957 C1955 1.327 . S
C1958 C1946 1.349 . S
C1958 H1952 0.950 . S
C1958 C1959 1.327 . S
C1959 H1953 0.950 . S
C1959 C1958 1.327 . S
C1959 C1963 1.429 . S
C1960 C1943 1.574 . S
C1960 H1954 0.949 . S
C1960 C1964 1.368 . S
C1961 C1942 1.429 . S
C1961 C1955 1.429 . S
C1961 C1962 1.523 . S
C1962 C1943 1.368 . S
C1962 C1956 1.368 . S
C1962 C1961 1.523 . S
C1963 C1947 1.429 . S
C1963 C1959 1.429 . S
C1963 C1964 1.523 . S
C1964 C1948 1.368 . S
C1964 C1960 1.368 . S
C1964 C1963 1.523 . S
H1965 C1940 0.950 . S
H1966 C1942 0.950 . S
H1967 C1943 0.949 . S
H1968 C1945 0.950 . S
H1969 C1947 0.950 . S
C1970 C1971 1.349 . S
C1970 C1972 1.327 . S
C1970 H1995 0.950 . S
C1971 C1970 1.349 . S
C1971 C1987 1.349 . S
C1972 C1970 1.327 . S
C1972 C1991 1.429 . S
C1972 H1996 0.950 . S
C1973 C1990 1.574 . S
C1973 C1992 1.368 . S
C1973 H1997 0.949 . S
H1974 C1978 0.949 . S
C1975 C1976 1.349 . S
C1975 C1977 1.327 . S
C1975 H1998 0.950 . S
C1976 C1975 1.349 . S
C1976 C1988 1.349 . S
C1977 C1975 1.327 . S
C1977 C1993 1.429 . S
C1977 H1999 0.950 . S
C1978 H1974 0.949 . S
C1978 C1986 1.574 . S
C1978 C1994 1.368 . S
H1979 C1987 0.950 . S
H1980 C1985 0.950 . S
H1981 C1986 0.949 . S
H1982 C1988 0.950 . S
H1983 C1989 0.950 . S
H1984 C1990 0.949 . S
C1985 H1980 0.950 . S
C1985 C1987 1.327 . S
C1985 C1991 1.429 . S
C1986 C1978 1.574 . S
C1986 H1981 0.949 . S
C1986 C1992 1.368 . S
C1987 C1971 1.349 . S
C1987 H1979 0.950 . S
C1987 C1985 1.327 . S
C1988 C1976 1.349 . S
C1988 H1982 0.950 . S
C1988 C1989 1.327 . S
C1989 H1983 0.950 . S
C1989 C1988 1.327 . S
C1989 C1993 1.429 . S
C1990 C1973 1.574 . S
C1990 H1984 0.949 . S
C1990 C1994 1.368 . S
C1991 C1972 1.429 . S
C1991 C1985 1.429 . S
C1991 C1992 1.523 . S
C1992 C1973 1.368 . S
C1992 C1986 1.368 . S
C1992 C1991 1.523 . S
C1993 C1977 1.429 . S
C1993 C1989 1.429 . S
C1993 C1994 1.523 . S
C1994 C1978 1.368 . S
C1994 C1990 1.368 . S
C1994 C1993 1.523 . S
H1995 C1970 0.950 . S
H1996 C1972 0.950 . S
H1997 C1973 0.949 . S
H1998 C1975 0.950 . S
H1999 C1977 0.950 . S
C2000 C2001 1.349 . S
C2000 C2002 1.327 . S
C2000 H2025 0.950 . S
C2001 C2000 1.349 . S
C2001 C2017 1.349 . S
C2002 C2000 1.327 . S
C2002 C2021 1.429 . S
C2002 H2026 0.950 . S
C2003 C2020 1.574 . S
C2003 C2022 1.368 . S
C2003 H2027 0.949 . S
H2004 C2008 0.949 . S
C2005 C2006 1.349 . S
C2005 C2007 1.327 . S
C2005 H2028 0.950 . S
C2006 C2005 1.349 . S
C2006 C2018 1.349 . S
C2007 C2005 1.327 . S
C2007 C2023 1.429 . S
C2007 H2029 0.950 . S
C2008 H2004 0.949 . S
C2008 C2016 1.574 . S
C2008 C2024 1.368 . S
H2009 C2017 0.950 . S
H2010 C2015 0.950 . S
H2011 C2016 0.949 . S
H2012 C2018 0.950 . S
H2013 C2019 0.950 . S
H2014 C2020 0.949 . S
C2015 H2010 0.950 . S
C2015 C2017 1.327 . S
C2015 C2021 1.429 . S
C2016 C2008 1.574 . S
C2016 H2011 0.949 . S
C2016 C2022 1.368 . S
C2017 C2001 1.349 . S
C2017 H2009 0.950 . S
C2017 C2015 1.327 . S
C2018 C2006 1.349 . S
C2018 H2012 0.950 . S
C2018 C2019 1.327 . S
C2019 H2013 0.950 . S
C2019 C2018 1.327 . S
C2019 C2023 1.429 . S
C2020 C2003 1.574 . S
C2020 H2014 0.949 . S
C2020 C2024 1.368 . S
C2021 C2002 1.429 . S
C2021 C2015 1.429 . S
C2021 C2022 1.523 . S
C2022 C2003 1.368 . S
C2022 C2016 1.368 . S
C2022 C2021 1.523 . S
C2023 C2007 1.429 . S
C2023 C2019 1.429 . S
C2023 C2024 1.523 . S
C2024 C2008 1.368 . S
C2024 C2020 1.368 . S
C2024 C2023 1.523 . S
H2025 C2000 0.950 . S
H2026 C2002 0.950 . S
H2027 C2003 0.949 . S
H2028 C2005 0.950 . S
H2029 C2007 0.950 . S
C2030 C2031 1.349 . S
C2030 C2032 1.327 . S
C2030 H2055 0.950 . S
C2031 C2030 1.349 . S
C2031 C2047 1.349 . S
C2032 C2030 1.327 . S
C2032 C2051 1.429 . S
C2032 H2056 0.950 . S
C2033 C2050 1.574 . S
C2033 C2052 1.368 . S
C2033 H2057 0.949 . S
H2034 C2038 0.949 . S
C2035 C2036 1.349 . S
C2035 C2037 1.327 . S
C2035 H2058 0.950 . S
C2036 C2035 1.349 . S
C2036 C2048 1.349 . S
C2037 C2035 1.327 . S
C2037 C2053 1.429 . S
C2037 H2059 0.950 . S
C2038 H2034 0.949 . S
C2038 C2046 1.574 . S
C2038 C2054 1.368 . S
H2039 C2047 0.950 . S
H2040 C2045 0.950 . S
H2041 C2046 0.949 . S
H2042 C2048 0.950 . S
H2043 C2049 0.950 . S
H2044 C2050 0.949 . S
C2045 H2040 0.950 . S
C2045 C2047 1.327 . S
C2045 C2051 1.429 . S
C2046 C2038 1.574 . S
C2046 H2041 0.949 . S
C2046 C2052 1.368 . S
C2047 C2031 1.349 . S
C2047 H2039 0.950 . S
C2047 C2045 1.327 . S
C2048 C2036 1.349 . S
C2048 H2042 0.950 . S
C2048 C2049 1.327 . S
C2049 H2043 0.950 . S
C2049 C2048 1.327 . S
C2049 C2053 1.429 . S
C2050 C2033 1.574 . S
C2050 H2044 0.949 . S
C2050 C2054 1.368 . S
C2051 C2032 1.429 . S
C2051 C2045 1.429 . S
C2051 C2052 1.523 . S
C2052 C2033 1.368 . S
C2052 C2046 1.368 . S
C2052 C2051 1.523 . S
C2053 C2037 1.429 . S
C2053 C2049 1.429 . S
C2053 C2054 1.523 . S
C2054 C2038 1.368 . S
C2054 C2050 1.368 . S
C2054 C2053 1.523 . S
H2055 C2030 0.950 . S
H2056 C2032 0.950 . S
H2057 C2033 0.949 . S
H2058 C2035 0.950 . S
H2059 C2037 0.950 . S
C2060 C2061 1.349 . S
C2060 C2062 1.327 . S
C2060 H2085 0.950 . S
C2061 C2060 1.349 . S
C2061 C2077 1.349 . S
C2062 C2060 1.327 . S
C2062 C2081 1.429 . S
C2062 H2086 0.950 . S
C2063 C2080 1.574 . S
C2063 C2082 1.368 . S
C2063 H2087 0.949 . S
H2064 C2068 0.949 . S
C2065 C2066 1.349 . S
C2065 C2067 1.327 . S
C2065 H2088 0.950 . S
C2066 C2065 1.349 . S
C2066 C2078 1.349 . S
C2067 C2065 1.327 . S
C2067 C2083 1.429 . S
C2067 H2089 0.950 . S
C2068 H2064 0.949 . S
C2068 C2076 1.574 . S
C2068 C2084 1.368 . S
H2069 C2077 0.950 . S
H2070 C2075 0.950 . S
H2071 C2076 0.949 . S
H2072 C2078 0.950 . S
H2073 C2079 0.950 . S
H2074 C2080 0.949 . S
C2075 H2070 0.950 . S
C2075 C2077 1.327 . S
C2075 C2081 1.429 . S
C2076 C2068 1.574 . S
C2076 H2071 0.949 . S
C2076 C2082 1.368 . S
C2077 C2061 1.349 . S
C2077 H2069 0.950 . S
C2077 C2075 1.327 . S
C2078 C2066 1.349 . S
C2078 H2072 0.950 . S
C2078 C2079 1.327 . S
C2079 H2073 0.950 . S
C2079 C2078 1.327 . S
C2079 C2083 1.429 . S
C2080 C2063 1.574 . S
C2080 H2074 0.949 . S
C2080 C2084 1.368 . S
C2081 C2062 1.429 . S
C2081 C2075 1.429 . S
C2081 C2082 1.523 . S
C2082 C2063 1.368 . S
C2082 C2076 1.368 . S
C2082 C2081 1.523 . S
C2083 C2067 1.429 . S
C2083 C2079 1.429 . S
C2083 C2084 1.523 . S
C2084 C2068 1.368 . S
C2084 C2080 1.368 . S
C2084 C2083 1.523 . S
H2085 C2060 0.950 . S
H2086 C2062 0.950 . S
H2087 C2063 0.949 . S
H2088 C2065 0.950 . S
H2089 C2067 0.950 . S
C2090 C2091 1.349 . S
C2090 C2092 1.327 . S
C2090 H2115 0.950 . S
C2091 C2090 1.349 . S
C2091 C2107 1.349 . S
C2092 C2090 1.327 . S
C2092 C2111 1.429 . S
C2092 H2116 0.950 . S
C2093 C2110 1.574 . S
C2093 C2112 1.368 . S
C2093 H2117 0.949 . S
H2094 C2098 0.949 . S
C2095 C2096 1.349 . S
C2095 C2097 1.327 . S
C2095 H2118 0.950 . S
C2096 C2095 1.349 . S
C2096 C2108 1.349 . S
C2097 C2095 1.327 . S
C2097 C2113 1.429 . S
C2097 H2119 0.950 . S
C2098 H2094 0.949 . S
C2098 C2106 1.574 . S
C2098 C2114 1.368 . S
H2099 C2107 0.950 . S
H2100 C2105 0.950 . S
H2101 C2106 0.949 . S
H2102 C2108 0.950 . S
H2103 C2109 0.950 . S
H2104 C2110 0.949 . S
C2105 H2100 0.950 . S
C2105 C2107 1.327 . S
C2105 C2111 1.429 . S
C2106 C2098 1.574 . S
C2106 H2101 0.949 . S
C2106 C2112 1.368 . S
C2107 C2091 1.349 . S
C2107 H2099 0.950 . S
C2107 C2105 1.327 . S
C2108 C2096 1.349 . S
C2108 H2102 0.950 . S
C2108 C2109 1.327 . S
C2109 H2103 0.950 . S
C2109 C2108 1.327 . S
C2109 C2113 1.429 . S
C2110 C2093 1.574 . S
C2110 H2104 0.949 . S
C2110 C2114 1.368 . S
C2111 C2092 1.429 . S
C2111 C2105 1.429 . S
C2111 C2112 1.523 . S
C2112 C2093 1.368 . S
C2112 C2106 1.368 . S
C2112 C2111 1.523 . S
C2113 C2097 1.429 . S
C2113 C2109 1.429 . S
C2113 C2114 1.523 . S
C2114 C2098 1.368 . S
C2114 C2110 1.368 . S
C2114 C2113 1.523 . S
H2115 C2090 0.950 . S
H2116 C2092 0.950 . S
H2117 C2093 0.949 . S
H2118 C2095 0.950 . S
H2119 C2097 0.950 . S
C2120 C2121 1.349 . S
C2120 C2122 1.327 . S
C2120 H2145 0.950 . S
C2121 C2120 1.349 . S
C2121 C2137 1.349 . S
C2122 C2120 1.327 . S
C2122 C2141 1.429 . S
C2122 H2146 0.950 . S
C2123 C2140 1.574 . S
C2123 C2142 1.368 . S
C2123 H2147 0.949 . S
H2124 C2128 0.949 . S
C2125 C2126 1.349 . S
C2125 C2127 1.327 . S
C2125 H2148 0.950 . S
C2126 C2125 1.349 . S
C2126 C2138 1.349 . S
C2127 C2125 1.327 . S
C2127 C2143 1.429 . S
C2127 H2149 0.950 . S
C2128 H2124 0.949 . S
C2128 C2136 1.574 . S
C2128 C2144 1.368 . S
H2129 C2137 0.950 . S
H2130 C2135 0.950 . S
H2131 C2136 0.949 . S
H2132 C2138 0.950 . S
H2133 C2139 0.950 . S
H2134 C2140 0.949 . S
C2135 H2130 0.950 . S
C2135 C2137 1.327 . S
C2135 C2141 1.429 . S
C2136 C2128 1.574 . S
C2136 H2131 0.949 . S
C2136 C2142 1.368 . S
C2137 C2121 1.349 . S
C2137 H2129 0.950 . S
C2137 C2135 1.327 . S
C2138 C2126 1.349 . S
C2138 H2132 0.950 . S
C2138 C2139 1.327 . S
C2139 H2133 0.950 . S
C2139 C2138 1.327 . S
C2139 C2143 1.429 . S
C2140 C2123 1.574 . S
C2140 H2134 0.949 . S
C2140 C2144 1.368 . S
C2141 C2122 1.429 . S
C2141 C2135 1.429 . S
C2141 C2142 1.523 . S
C2142 C2123 1.368 . S
C2142 C2136 1.368 . S
C2142 C2141 1.523 . S
C2143 C2127 1.429 . S
C2143 C2139 1.429 . S
C2143 C2144 1.523 . S
C2144 C2128 1.368 . S
C2144 C2140 1.368 . S
C2144 C2143 1.523 . S
H2145 C2120 0.950 . S
H2146 C2122 0.950 . S
H2147 C2123 0.949 . S
H2148 C2125 0.950 . S
H2149 C2127 0.950 . S
C2150 C2151 1.349 . S
C2150 C2152 1.327 . S
C2150 H2175 0.950 . S
C2151 C2150 1.349 . S
C2151 C2167 1.349 . S
C2152 C2150 1.327 . S
C2152 C2171 1.429 . S
C2152 H2176 0.950 . S
C2153 C2170 1.574 . S
C2153 C2172 1.368 . S
C2153 H2177 0.949 . S
H2154 C2158 0.949 . S
C2155 C2156 1.349 . S
C2155 C2157 1.327 . S
C2155 H2178 0.950 . S
C2156 C2155 1.349 . S
C2156 C2168 1.349 . S
C2157 C2155 1.327 . S
C2157 C2173 1.429 . S
C2157 H2179 0.950 . S
C2158 H2154 0.949 . S
C2158 C2166 1.574 . S
C2158 C2174 1.368 . S
H2159 C2167 0.950 . S
H2160 C2165 0.950 . S
H2161 C2166 0.949 . S
H2162 C2168 0.950 . S
H2163 C2169 0.950 . S
H2164 C2170 0.949 . S
C2165 H2160 0.950 . S
C2165 C2167 1.327 . S
C2165 C2171 1.429 . S
C2166 C2158 1.574 . S
C2166 H2161 0.949 . S
C2166 C2172 1.368 . S
C2167 C2151 1.349 . S
C2167 H2159 0.950 . S
C2167 C2165 1.327 . S
C2168 C2156 1.349 . S
C2168 H2162 0.950 . S
C2168 C2169 1.327 . S
C2169 H2163 0.950 . S
C2169 C2168 1.327 . S
C2169 C2173 1.429 . S
C2170 C2153 1.574 . S
C2170 H2164 0.949 . S
C2170 C2174 1.368 . S
C2171 C2152 1.429 . S
C2171 C2165 1.429 . S
C2171 C2172 1.523 . S
C2172 C2153 1.368 . S
C2172 C2166 1.368 . S
C2172 C2171 1.523 . S
C2173 C2157 1.429 . S
C2173 C2169 1.429 . S
C2173 C2174 1.523 . S
C2174 C2158 1.368 . S
C2174 C2170 1.368 . S
C2174 C2173 1.523 . S
H2175 C2150 0.950 . S
H2176 C2152 0.950 . S
H2177 C2153 0.949 . S
H2178 C2155 0.950 . S
H2179 C2157 0.950 . S
C2180 C2181 1.349 . S
C2180 C2182 1.327 . S
C2180 H2205 0.950 . S
C2181 C2180 1.349 . S
C2181 C2197 1.349 . S
C2182 C2180 1.327 . S
C2182 C2201 1.429 . S
C2182 H2206 0.950 . S
C2183 C2200 1.574 . S
C2183 C2202 1.368 . S
C2183 H2207 0.949 . S
H2184 C2188 0.949 . S
C2185 C2186 1.349 . S
C2185 C2187 1.327 . S
C2185 H2208 0.950 . S
C2186 C2185 1.349 . S
C2186 C2198 1.349 . S
C2187 C2185 1.327 . S
C2187 C2203 1.429 . S
C2187 H2209 0.950 . S
C2188 H2184 0.949 . S
C2188 C2196 1.574 . S
C2188 C2204 1.368 . S
H2189 C2197 0.950 . S
H2190 C2195 0.950 . S
H2191 C2196 0.949 . S
H2192 C2198 0.950 . S
H2193 C2199 0.950 . S
H2194 C2200 0.949 . S
C2195 H2190 0.950 . S
C2195 C2197 1.327 . S
C2195 C2201 1.429 . S
C2196 C2188 1.574 . S
C2196 H2191 0.949 . S
C2196 C2202 1.368 . S
C2197 C2181 1.349 . S
C2197 H2189 0.950 . S
C2197 C2195 1.327 . S
C2198 C2186 1.349 . S
C2198 H2192 0.950 . S
C2198 C2199 1.327 . S
C2199 H2193 0.950 . S
C2199 C2198 1.327 . S
C2199 C2203 1.429 . S
C2200 C2183 1.574 . S
C2200 H2194 0.949 . S
C2200 C2204 1.368 . S
C2201 C2182 1.429 . S
C2201 C2195 1.429 . S
C2201 C2202 1.523 . S
C2202 C2183 1.368 . S
C2202 C2196 1.368 . S
C2202 C2201 1.523 . S
C2203 C2187 1.429 . S
C2203 C2199 1.429 . S
C2203 C2204 1.523 . S
C2204 C2188 1.368 . S
C2204 C2200 1.368 . S
C2204 C2203 1.523 . S
H2205 C2180 0.950 . S
H2206 C2182 0.950 . S
H2207 C2183 0.949 . S
H2208 C2185 0.950 . S
H2209 C2187 0.950 . S
C2210 C2211 1.349 . S
C2210 C2212 1.327 . S
C2210 H2235 0.950 . S
C2211 C2210 1.349 . S
C2211 C2227 1.349 . S
C2212 C2210 1.327 . S
C2212 C2231 1.429 . S
C2212 H2236 0.950 . S
C2213 C2230 1.574 . S
C2213 C2232 1.368 . S
C2213 H2237 0.949 . S
H2214 C2218 0.949 . S
C2215 C2216 1.349 . S
C2215 C2217 1.327 . S
C2215 H2238 0.950 . S
C2216 C2215 1.349 . S
C2216 C2228 1.349 . S
C2217 C2215 1.327 . S
C2217 C2233 1.429 . S
C2217 H2239 0.950 . S
C2218 H2214 0.949 . S
C2218 C2226 1.574 . S
C2218 C2234 1.368 . S
H2219 C2227 0.950 . S
H2220 C2225 0.950 . S
H2221 C2226 0.949 . S
H2222 C2228 0.950 . S
H2223 C2229 0.950 . S
H2224 C2230 0.949 . S
C2225 H2220 0.950 . S
C2225 C2227 1.327 . S
C2225 C2231 1.429 . S
C2226 C2218 1.574 . S
C2226 H2221 0.949 . S
C2226 C2232 1.368 . S
C2227 C2211 1.349 . S
C2227 H2219 0.950 . S
C2227 C2225 1.327 . S
C2228 C2216 1.349 . S
C2228 H2222 0.950 . S
C2228 C2229 1.327 . S
C2229 H2223 0.950 . S
C2229 C2228 1.327 . S
C2229 C2233 1.429 . S
C2230 C2213 1.574 . S
C2230 H2224 0.949 . S
C2230 C2234 1.368 . S
C2231 C2212 1.429 . S
C2231 C2225 1.429 . S
C2231 C2232 1.523 . S
C2232 C2213 1.368 . S
C2232 C2226 1.368 . S
C2232 C2231 1.523 . S
C2233 C2217 1.429 . S
C2233 C2229 1.429 . S
C2233 C2234 1.523 . S
C2234 C2218 1.368 . S
C2234 C2230 1.368 . S
C2234 C2233 1.523 . S
H2235 C2210 0.950 . S
H2236 C2212 0.950 . S
H2237 C2213 0.949 . S
H2238 C2215 0.950 . S
H2239 C2217 0.950 . S
C2240 C2241 1.349 . S
C2240 C2242 1.327 . S
C2240 H2265 0.950 . S
C2241 C2240 1.349 . S
C2241 C2257 1.349 . S
C2242 C2240 1.327 . S
C2242 C2261 1.429 . S
C2242 H2266 0.950 . S
C2243 C2260 1.574 . S
C2243 C2262 1.368 . S
C2243 H2267 0.949 . S
H2244 C2248 0.949 . S
C2245 C2246 1.349 . S
C2245 C2247 1.327 . S
C2245 H2268 0.950 . S
C2246 C2245 1.349 . S
C2246 C2258 1.349 . S
C2247 C2245 1.327 . S
C2247 C2263 1.429 . S
C2247 H2269 0.950 . S
C2248 H2244 0.949 . S
C2248 C2256 1.574 . S
C2248 C2264 1.368 . S
H2249 C2257 0.950 . S
H2250 C2255 0.950 . S
H2251 C2256 0.949 . S
H2252 C2258 0.950 . S
H2253 C2259 0.950 . S
H2254 C2260 0.949 . S
C2255 H2250 0.950 . S
C2255 C2257 1.327 . S
C2255 C2261 1.429 . S
C2256 C2248 1.574 . S
C2256 H2251 0.949 . S
C2256 C2262 1.368 . S
C2257 C2241 1.349 . S
C2257 H2249 0.950 . S
C2257 C2255 1.327 . S
C2258 C2246 1.349 . S
C2258 H2252 0.950 . S
C2258 C2259 1.327 . S
C2259 H2253 0.950 . S
C2259 C2258 1.327 . S
C2259 C2263 1.429 . S
C2260 C2243 1.574 . S
C2260 H2254 0.949 . S
C2260 C2264 1.368 . S
C2261 C2242 1.429 . S
C2261 C2255 1.429 . S
C2261 C2262 1.523 . S
C2262 C2243 1.368 . S
C2262 C2256 1.368 . S
C2262 C2261 1.523 . S
C2263 C2247 1.429 . S
C2263 C2259 1.429 . S
C2263 C2264 1.523 . S
C2264 C2248 1.368 . S
C2264 C2260 1.368 . S
C2264 C2263 1.523 . S
H2265 C2240 0.950 . S
H2266 C2242 0.950 . S
H2267 C2243 0.949 . S
H2268 C2245 0.950 . S
H2269 C2247 0.950 . S
C2270 C2271 1.349 . S
C2270 C2272 1.327 1_545 S
C2270 H2295 0.950 1_545 S
C2271 C2270 1.349 . S
C2271 C2287 1.349 . S
C2272 C2270 1.327 1_565 S
C2272 C2291 1.429 1_565 S
C2272 H2296 0.950 . S
C2273 C2290 1.574 1_455 S
C2273 C2292 1.368 . S
C2273 H2297 0.949 . S
H2274 C2278 0.949 . S
C2275 C2276 1.349 . S
C2275 C2277 1.327 1_565 S
C2275 H2298 0.950 1_565 S
C2276 C2275 1.349 . S
C2276 C2288 1.349 . S
C2277 C2275 1.327 1_545 S
C2277 C2293 1.429 1_545 S
C2277 H2299 0.950 . S
C2278 H2274 0.949 . S
C2278 C2286 1.574 1_655 S
C2278 C2294 1.368 . S
H2279 C2287 0.950 . S
H2280 C2285 0.950 . S
H2281 C2286 0.949 . S
H2282 C2288 0.950 . S
H2283 C2289 0.950 . S
H2284 C2290 0.949 . S
C2285 H2280 0.950 . S
C2285 C2287 1.327 . S
C2285 C2291 1.429 . S
C2286 C2278 1.574 1_455 S
C2286 H2281 0.949 . S
C2286 C2292 1.368 1_565 S
C2287 C2271 1.349 . S
C2287 H2279 0.950 . S
C2287 C2285 1.327 . S
C2288 C2276 1.349 . S
C2288 H2282 0.950 . S
C2288 C2289 1.327 . S
C2289 H2283 0.950 . S
C2289 C2288 1.327 . S
C2289 C2293 1.429 . S
C2290 C2273 1.574 1_655 S
C2290 H2284 0.949 . S
C2290 C2294 1.368 1_545 S
C2291 C2272 1.429 1_545 S
C2291 C2285 1.429 . S
C2291 C2292 1.523 . S
C2292 C2273 1.368 . S
C2292 C2286 1.368 1_545 S
C2292 C2291 1.523 . S
C2293 C2277 1.429 1_565 S
C2293 C2289 1.429 . S
C2293 C2294 1.523 . S
C2294 C2278 1.368 . S
C2294 C2290 1.368 1_565 S
C2294 C2293 1.523 . S
H2295 C2270 0.950 1_565 S
H2296 C2272 0.950 . S
H2297 C2273 0.949 . S
H2298 C2275 0.950 1_545 S
H2299 C2277 0.950 . S
C2300 C2301 1.349 . S
C2300 C2302 1.327 . S
C2300 H2325 0.950 . S
C2301 C2300 1.349 . S
C2301 C2317 1.349 . S
C2302 C2300 1.327 . S
C2302 C2321 1.429 . S
C2302 H2326 0.950 . S
C2303 C2320 1.574 . S
C2303 C2322 1.368 . S
C2303 H2327 0.949 . S
H2304 C2308 0.949 . S
C2305 C2306 1.349 . S
C2305 C2307 1.327 . S
C2305 H2328 0.950 . S
C2306 C2305 1.349 . S
C2306 C2318 1.349 . S
C2307 C2305 1.327 . S
C2307 C2323 1.429 . S
C2307 H2329 0.950 . S
C2308 H2304 0.949 . S
C2308 C2316 1.574 . S
C2308 C2324 1.368 . S
H2309 C2317 0.950 . S
H2310 C2315 0.950 . S
H2311 C2316 0.949 . S
H2312 C2318 0.950 . S
H2313 C2319 0.950 . S
H2314 C2320 0.949 . S
C2315 H2310 0.950 . S
C2315 C2317 1.327 . S
C2315 C2321 1.429 . S
C2316 C2308 1.574 . S
C2316 H2311 0.949 . S
C2316 C2322 1.368 . S
C2317 C2301 1.349 . S
C2317 H2309 0.950 . S
C2317 C2315 1.327 . S
C2318 C2306 1.349 . S
C2318 H2312 0.950 . S
C2318 C2319 1.327 . S
C2319 H2313 0.950 . S
C2319 C2318 1.327 . S
C2319 C2323 1.429 . S
C2320 C2303 1.574 . S
C2320 H2314 0.949 . S
C2320 C2324 1.368 . S
C2321 C2302 1.429 . S
C2321 C2315 1.429 . S
C2321 C2322 1.523 . S
C2322 C2303 1.368 . S
C2322 C2316 1.368 . S
C2322 C2321 1.523 . S
C2323 C2307 1.429 . S
C2323 C2319 1.429 . S
C2323 C2324 1.523 . S
C2324 C2308 1.368 . S
C2324 C2320 1.368 . S
C2324 C2323 1.523 . S
H2325 C2300 0.950 . S
H2326 C2302 0.950 . S
H2327 C2303 0.949 . S
H2328 C2305 0.950 . S
H2329 C2307 0.950 . S
C2330 C2331 1.349 1_554 S
C2330 C2332 1.327 . S
C2330 H2355 0.950 . S
C2331 C2330 1.349 1_556 S
C2331 C2347 1.349 . S
C2332 C2330 1.327 . S
C2332 C2351 1.429 1_554 S
C2332 H2356 0.950 . S
C2333 C2350 1.574 . S
C2333 C2352 1.388 1_545 S
C2333 H2357 0.949 . S
H2334 C2338 0.949 . S
C2335 C2336 1.349 1_556 S
C2335 C2337 1.327 . S
C2335 H2358 0.950 . S
C2336 C2335 1.349 1_554 S
C2336 C2348 1.349 . S
C2337 C2335 1.327 . S
C2337 C2353 1.429 1_556 S
C2337 H2359 0.950 . S
C2338 H2334 0.949 . S
C2338 C2346 1.574 . S
C2338 C2354 1.403 1_565 S
H2339 C2347 0.950 1_545 S
H2340 C2345 0.957 . S
H2341 C2346 0.949 . S
H2342 C2348 0.916 1_565 S
H2343 C2349 0.942 1_565 S
H2344 C2350 0.949 . S
C2345 H2340 0.957 . S
C2345 C2347 1.325 1_545 S
C2345 C2351 1.424 1_545 S
C2346 C2338 1.574 . S
C2346 H2341 0.949 . S
C2346 C2352 1.348 1_554 S
C2347 C2331 1.349 . S
C2347 H2339 0.950 1_565 S
C2347 C2345 1.325 1_565 S
C2348 C2336 1.349 . S
C2348 H2342 0.916 1_545 S
C2348 C2349 1.330 . S
C2349 H2343 0.942 1_545 S
C2349 C2348 1.330 . S
C2349 C2353 1.433 . S
C2350 C2333 1.574 . S
C2350 H2344 0.949 . S
C2350 C2354 1.333 1_556 S
C2351 C2332 1.429 1_556 S
C2351 C2345 1.424 1_565 S
C2351 C2352 1.524 . S
C2352 C2333 1.388 1_565 S
C2352 C2346 1.348 1_556 S
C2352 C2351 1.524 . S
C2353 C2337 1.429 1_554 S
C2353 C2349 1.433 . S
C2353 C2354 1.526 . S
C2354 C2338 1.403 1_545 S
C2354 C2350 1.333 1_554 S
C2354 C2353 1.526 . S
H2355 C2330 0.950 . S
H2356 C2332 0.950 . S
H2357 C2333 0.949 . S
H2358 C2335 0.950 . S
H2359 C2337 0.950 . S
C2360 C2361 1.349 . S
C2360 C2362 1.327 . S
C2360 H2385 0.950 . S
C2361 C2360 1.349 . S
C2361 C2377 1.349 . S
C2362 C2360 1.327 . S
C2362 C2381 1.429 . S
C2362 H2386 0.950 . S
C2363 C2380 1.574 . S
C2363 C2382 1.368 . S
C2363 H2387 0.949 . S
H2364 C2368 0.949 . S
C2365 C2366 1.349 . S
C2365 C2367 1.327 . S
C2365 H2388 0.950 . S
C2366 C2365 1.349 . S
C2366 C2378 1.349 . S
C2367 C2365 1.327 . S
C2367 C2383 1.429 . S
C2367 H2389 0.950 . S
C2368 H2364 0.949 . S
C2368 C2376 1.574 . S
C2368 C2384 1.368 . S
H2369 C2377 0.950 . S
H2370 C2375 0.950 . S
H2371 C2376 0.949 . S
H2372 C2378 0.950 . S
H2373 C2379 0.950 . S
H2374 C2380 0.949 . S
C2375 H2370 0.950 . S
C2375 C2377 1.327 . S
C2375 C2381 1.429 . S
C2376 C2368 1.574 . S
C2376 H2371 0.949 . S
C2376 C2382 1.368 . S
C2377 C2361 1.349 . S
C2377 H2369 0.950 . S
C2377 C2375 1.327 . S
C2378 C2366 1.349 . S
C2378 H2372 0.950 . S
C2378 C2379 1.327 . S
C2379 H2373 0.950 . S
C2379 C2378 1.327 . S
C2379 C2383 1.429 . S
C2380 C2363 1.574 . S
C2380 H2374 0.949 . S
C2380 C2384 1.368 . S
C2381 C2362 1.429 . S
C2381 C2375 1.429 . S
C2381 C2382 1.523 . S
C2382 C2363 1.368 . S
C2382 C2376 1.368 . S
C2382 C2381 1.523 . S
C2383 C2367 1.429 . S
C2383 C2379 1.429 . S
C2383 C2384 1.523 . S
C2384 C2368 1.368 . S
C2384 C2380 1.368 . S
C2384 C2383 1.523 . S
H2385 C2360 0.950 . S
H2386 C2362 0.950 . S
H2387 C2363 0.949 . S
H2388 C2365 0.950 . S
H2389 C2367 0.950 . S
C2390 C2391 1.349 . S
C2390 C2392 1.314 1_545 S
C2390 H2415 0.950 1_545 S
C2391 C2390 1.349 . S
C2391 C2407 1.349 . S
C2392 C2390 1.314 1_565 S
C2392 C2411 1.400 1_565 S
C2392 H2416 0.996 . S
C2393 C2410 1.574 . S
C2393 C2412 1.368 . S
C2393 H2417 0.949 . S
H2394 C2398 0.949 . S
C2395 C2396 1.349 . S
C2395 C2397 1.323 1_565 S
C2395 H2418 0.950 1_565 S
C2396 C2395 1.349 . S
C2396 C2408 1.349 . S
C2397 C2395 1.323 1_545 S
C2397 C2413 1.420 1_545 S
C2397 H2419 0.963 . S
C2398 H2394 0.949 . S
C2398 C2406 1.574 . S
C2398 C2414 1.368 . S
H2399 C2407 0.950 . S
H2400 C2405 0.950 . S
H2401 C2406 0.949 . S
H2402 C2408 0.950 . S
H2403 C2409 0.950 . S
H2404 C2410 0.949 . S
C2405 H2400 0.950 . S
C2405 C2407 1.327 . S
C2405 C2411 1.429 . S
C2406 C2398 1.574 . S
C2406 H2401 0.949 . S
C2406 C2412 1.368 1_565 S
C2407 C2391 1.349 . S
C2407 H2399 0.950 . S
C2407 C2405 1.327 . S
C2408 C2396 1.349 . S
C2408 H2402 0.950 . S
C2408 C2409 1.327 . S
C2409 H2403 0.950 . S
C2409 C2408 1.327 . S
C2409 C2413 1.429 . S
C2410 C2393 1.574 . S
C2410 H2404 0.949 . S
C2410 C2414 1.368 1_545 S
C2411 C2392 1.400 1_545 S
C2411 C2405 1.429 . S
C2411 C2412 1.523 . S
C2412 C2393 1.368 . S
C2412 C2406 1.368 1_545 S
C2412 C2411 1.523 . S
C2413 C2397 1.420 1_565 S
C2413 C2409 1.429 . S
C2413 C2414 1.523 . S
C2414 C2398 1.368 . S
C2414 C2410 1.368 1_565 S
C2414 C2413 1.523 . S
H2415 C2390 0.950 1_565 S
H2416 C2392 0.996 . S
H2417 C2393 0.949 . S
H2418 C2395 0.950 1_545 S
H2419 C2397 0.963 . S
C2420 C2421 1.349 . S
C2420 C2422 1.327 . S
C2420 H2445 0.950 . S
C2421 C2420 1.349 . S
C2421 C2437 1.349 . S
C2422 C2420 1.327 . S
C2422 C2441 1.429 . S
C2422 H2446 0.950 . S
C2423 C2440 1.574 . S
C2423 C2442 1.368 . S
C2423 H2447 0.949 . S
H2424 C2428 0.949 . S
C2425 C2426 1.349 . S
C2425 C2427 1.327 . S
C2425 H2448 0.950 . S
C2426 C2425 1.349 . S
C2426 C2438 1.349 . S
C2427 C2425 1.327 . S
C2427 C2443 1.429 . S
C2427 H2449 0.950 . S
C2428 H2424 0.949 . S
C2428 C2436 1.574 . S
C2428 C2444 1.368 . S
H2429 C2437 0.950 . S
H2430 C2435 0.950 . S
H2431 C2436 0.949 . S
H2432 C2438 0.950 . S
H2433 C2439 0.950 . S
H2434 C2440 0.949 . S
C2435 H2430 0.950 . S
C2435 C2437 1.327 . S
C2435 C2441 1.429 . S
C2436 C2428 1.574 . S
C2436 H2431 0.949 . S
C2436 C2442 1.368 . S
C2437 C2421 1.349 . S
C2437 H2429 0.950 . S
C2437 C2435 1.327 . S
C2438 C2426 1.349 . S
C2438 H2432 0.950 . S
C2438 C2439 1.327 . S
C2439 H2433 0.950 . S
C2439 C2438 1.327 . S
C2439 C2443 1.429 . S
C2440 C2423 1.574 . S
C2440 H2434 0.949 . S
C2440 C2444 1.368 . S
C2441 C2422 1.429 . S
C2441 C2435 1.429 . S
C2441 C2442 1.523 . S
C2442 C2423 1.368 . S
C2442 C2436 1.368 . S
C2442 C2441 1.523 . S
C2443 C2427 1.429 . S
C2443 C2439 1.429 . S
C2443 C2444 1.523 . S
C2444 C2428 1.368 . S
C2444 C2440 1.368 . S
C2444 C2443 1.523 . S
H2445 C2420 0.950 . S
H2446 C2422 0.950 . S
H2447 C2423 0.949 . S
H2448 C2425 0.950 . S
H2449 C2427 0.950 . S
C2450 C2451 1.349 1_556 S
C2450 C2452 1.327 . S
C2450 H2475 0.950 . S
C2451 C2450 1.349 1_554 S
C2451 C2467 1.349 . S
C2452 C2450 1.327 . S
C2452 C2471 1.422 1_556 S
C2452 H2476 0.950 . S
C2453 C2470 1.574 1_455 S
C2453 C2472 1.332 1_544 S
C2453 H2477 0.949 . S
H2454 C2458 0.949 . S
C2455 C2456 1.349 1_554 S
C2455 C2457 1.327 . S
C2455 H2478 0.950 . S
C2456 C2455 1.349 1_556 S
C2456 C2468 1.349 . S
C2457 C2455 1.327 . S
C2457 C2473 1.429 1_554 S
C2457 H2479 0.950 . S
C2458 H2454 0.949 . S
C2458 C2466 1.574 1_655 S
C2458 C2474 1.368 1_565 S
H2459 C2467 0.950 . S
H2460 C2465 0.950 1_545 S
H2461 C2466 0.949 . S
H2462 C2468 0.950 . S
H2463 C2469 0.950 1_565 S
H2464 C2470 0.949 . S
C2465 H2460 0.950 1_565 S
C2465 C2467 1.327 . S
C2465 C2471 1.436 . S
C2466 C2458 1.574 1_455 S
C2466 H2461 0.949 . S
C2466 C2472 1.406 . S
C2467 C2451 1.349 . S
C2467 H2459 0.950 . S
C2467 C2465 1.327 . S
C2468 C2456 1.349 . S
C2468 H2462 0.950 . S
C2468 C2469 1.327 . S
C2469 H2463 0.950 1_545 S
C2469 C2468 1.327 . S
C2469 C2473 1.429 . S
C2470 C2453 1.574 1_655 S
C2470 H2464 0.949 . S
C2470 C2474 1.368 1_554 S
C2471 C2452 1.422 1_554 S
C2471 C2465 1.436 . S
C2471 C2472 1.522 1_554 S
C2472 C2453 1.332 1_566 S
C2472 C2466 1.406 . S
C2472 C2471 1.522 1_556 S
C2473 C2457 1.429 1_556 S
C2473 C2469 1.429 . S
C2473 C2474 1.523 . S
C2474 C2458 1.368 1_545 S
C2474 C2470 1.368 1_556 S
C2474 C2473 1.523 . S
H2475 C2450 0.950 . S
H2476 C2452 0.950 . S
H2477 C2453 0.949 . S
H2478 C2455 0.950 . S
H2479 C2457 0.950 . S
C2480 C2481 1.349 . S
C2480 C2482 1.327 . S
C2480 H2505 0.950 . S
C2481 C2480 1.349 . S
C2481 C2497 1.349 . S
C2482 C2480 1.327 . S
C2482 C2501 1.429 . S
C2482 H2506 0.950 . S
C2483 C2500 1.574 . S
C2483 C2502 1.368 . S
C2483 H2507 0.949 . S
H2484 C2488 0.949 . S
C2485 C2486 1.349 . S
C2485 C2487 1.327 . S
C2485 H2508 0.950 . S
C2486 C2485 1.349 . S
C2486 C2498 1.349 . S
C2487 C2485 1.327 . S
C2487 C2503 1.429 . S
C2487 H2509 0.950 . S
C2488 H2484 0.949 . S
C2488 C2496 1.574 . S
C2488 C2504 1.368 . S
H2489 C2497 0.950 . S
H2490 C2495 0.950 . S
H2491 C2496 0.949 . S
H2492 C2498 0.950 . S
H2493 C2499 0.950 . S
H2494 C2500 0.949 . S
C2495 H2490 0.950 . S
C2495 C2497 1.327 . S
C2495 C2501 1.429 . S
C2496 C2488 1.574 . S
C2496 H2491 0.949 . S
C2496 C2502 1.368 . S
C2497 C2481 1.349 . S
C2497 H2489 0.950 . S
C2497 C2495 1.327 . S
C2498 C2486 1.349 . S
C2498 H2492 0.950 . S
C2498 C2499 1.327 . S
C2499 H2493 0.950 . S
C2499 C2498 1.327 . S
C2499 C2503 1.429 . S
C2500 C2483 1.574 . S
C2500 H2494 0.949 . S
C2500 C2504 1.368 . S
C2501 C2482 1.429 . S
C2501 C2495 1.429 . S
C2501 C2502 1.523 . S
C2502 C2483 1.368 . S
C2502 C2496 1.368 . S
C2502 C2501 1.523 . S
C2503 C2487 1.429 . S
C2503 C2499 1.429 . S
C2503 C2504 1.523 . S
C2504 C2488 1.368 . S
C2504 C2500 1.368 . S
C2504 C2503 1.523 . S
H2505 C2480 0.950 . S
H2506 C2482 0.950 . S
H2507 C2483 0.949 . S
H2508 C2485 0.950 . S
H2509 C2487 0.950 . S
C2510 C2511 1.349 . S
C2510 C2512 1.327 . S
C2510 H2535 0.950 . S
C2511 C2510 1.349 . S
C2511 C2527 1.349 . S
C2512 C2510 1.327 . S
C2512 C2531 1.429 . S
C2512 H2536 0.950 . S
C2513 C2530 1.574 . S
C2513 C2532 1.368 . S
C2513 H2537 0.949 . S
H2514 C2518 0.949 . S
C2515 C2516 1.349 . S
C2515 C2517 1.327 . S
C2515 H2538 0.950 . S
C2516 C2515 1.349 . S
C2516 C2528 1.349 . S
C2517 C2515 1.327 . S
C2517 C2533 1.429 . S
C2517 H2539 0.950 . S
C2518 H2514 0.949 . S
C2518 C2526 1.574 . S
C2518 C2534 1.368 . S
H2519 C2527 0.950 . S
H2520 C2525 0.950 . S
H2521 C2526 0.949 . S
H2522 C2528 0.950 . S
H2523 C2529 0.950 . S
H2524 C2530 0.949 . S
C2525 H2520 0.950 . S
C2525 C2527 1.327 . S
C2525 C2531 1.429 . S
C2526 C2518 1.574 . S
C2526 H2521 0.949 . S
C2526 C2532 1.368 . S
C2527 C2511 1.349 . S
C2527 H2519 0.950 . S
C2527 C2525 1.327 . S
C2528 C2516 1.349 . S
C2528 H2522 0.950 . S
C2528 C2529 1.327 . S
C2529 H2523 0.950 . S
C2529 C2528 1.327 . S
C2529 C2533 1.429 . S
C2530 C2513 1.574 . S
C2530 H2524 0.949 . S
C2530 C2534 1.368 . S
C2531 C2512 1.429 . S
C2531 C2525 1.429 . S
C2531 C2532 1.523 . S
C2532 C2513 1.368 . S
C2532 C2526 1.368 . S
C2532 C2531 1.523 . S
C2533 C2517 1.429 . S
C2533 C2529 1.429 . S
C2533 C2534 1.523 . S
C2534 C2518 1.368 . S
C2534 C2530 1.368 . S
C2534 C2533 1.523 . S
H2535 C2510 0.950 . S
H2536 C2512 0.950 . S
H2537 C2513 0.949 . S
H2538 C2515 0.950 . S
H2539 C2517 0.950 . S
C2540 C2541 1.349 . S
C2540 C2542 1.327 . S
C2540 H2565 0.950 . S
C2541 C2540 1.349 . S
C2541 C2557 1.349 . S
C2542 C2540 1.327 . S
C2542 C2561 1.429 . S
C2542 H2566 0.950 . S
C2543 C2560 1.574 . S
C2543 C2562 1.368 . S
C2543 H2567 0.949 . S
H2544 C2548 0.949 . S
C2545 C2546 1.349 . S
C2545 C2547 1.327 . S
C2545 H2568 0.950 . S
C2546 C2545 1.349 . S
C2546 C2558 1.349 . S
C2547 C2545 1.327 . S
C2547 C2563 1.429 . S
C2547 H2569 0.950 . S
C2548 H2544 0.949 . S
C2548 C2556 1.574 . S
C2548 C2564 1.368 . S
H2549 C2557 0.950 . S
H2550 C2555 0.950 . S
H2551 C2556 0.949 . S
H2552 C2558 0.950 . S
H2553 C2559 0.950 . S
H2554 C2560 0.949 . S
C2555 H2550 0.950 . S
C2555 C2557 1.327 . S
C2555 C2561 1.429 . S
C2556 C2548 1.574 . S
C2556 H2551 0.949 . S
C2556 C2562 1.368 . S
C2557 C2541 1.349 . S
C2557 H2549 0.950 . S
C2557 C2555 1.327 . S
C2558 C2546 1.349 . S
C2558 H2552 0.950 . S
C2558 C2559 1.327 . S
C2559 H2553 0.950 . S
C2559 C2558 1.327 . S
C2559 C2563 1.429 . S
C2560 C2543 1.574 . S
C2560 H2554 0.949 . S
C2560 C2564 1.368 . S
C2561 C2542 1.429 . S
C2561 C2555 1.429 . S
C2561 C2562 1.523 . S
C2562 C2543 1.368 . S
C2562 C2556 1.368 . S
C2562 C2561 1.523 . S
C2563 C2547 1.429 . S
C2563 C2559 1.429 . S
C2563 C2564 1.523 . S
C2564 C2548 1.368 . S
C2564 C2560 1.368 . S
C2564 C2563 1.523 . S
H2565 C2540 0.950 . S
H2566 C2542 0.950 . S
H2567 C2543 0.949 . S
H2568 C2545 0.950 . S
H2569 C2547 0.950 . S
C2570 C2571 1.349 . S
C2570 C2572 1.327 . S
C2570 H2595 0.950 . S
C2571 C2570 1.349 . S
C2571 C2587 1.349 . S
C2572 C2570 1.327 . S
C2572 C2591 1.429 . S
C2572 H2596 0.950 . S
C2573 C2590 1.574 . S
C2573 C2592 1.368 . S
C2573 H2597 0.949 . S
H2574 C2578 0.949 . S
C2575 C2576 1.349 . S
C2575 C2577 1.327 . S
C2575 H2598 0.950 . S
C2576 C2575 1.349 . S
C2576 C2588 1.349 . S
C2577 C2575 1.327 . S
C2577 C2593 1.429 . S
C2577 H2599 0.950 . S
C2578 H2574 0.949 . S
C2578 C2586 1.574 . S
C2578 C2594 1.368 . S
H2579 C2587 0.950 . S
H2580 C2585 0.950 . S
H2581 C2586 0.949 . S
H2582 C2588 0.950 . S
H2583 C2589 0.950 . S
H2584 C2590 0.949 . S
C2585 H2580 0.950 . S
C2585 C2587 1.327 . S
C2585 C2591 1.429 . S
C2586 C2578 1.574 . S
C2586 H2581 0.949 . S
C2586 C2592 1.368 . S
C2587 C2571 1.349 . S
C2587 H2579 0.950 . S
C2587 C2585 1.327 . S
C2588 C2576 1.349 . S
C2588 H2582 0.950 . S
C2588 C2589 1.327 . S
C2589 H2583 0.950 . S
C2589 C2588 1.327 . S
C2589 C2593 1.429 . S
C2590 C2573 1.574 . S
C2590 H2584 0.949 . S
C2590 C2594 1.368 . S
C2591 C2572 1.429 . S
C2591 C2585 1.429 . S
C2591 C2592 1.523 . S
C2592 C2573 1.368 . S
C2592 C2586 1.368 . S
C2592 C2591 1.523 . S
C2593 C2577 1.429 . S
C2593 C2589 1.429 . S
C2593 C2594 1.523 . S
C2594 C2578 1.368 . S
C2594 C2590 1.368 . S
C2594 C2593 1.523 . S
H2595 C2570 0.950 . S
H2596 C2572 0.950 . S
H2597 C2573 0.949 . S
H2598 C2575 0.950 . S
H2599 C2577 0.950 . S
C2600 C2601 1.349 . S
C2600 C2602 1.327 . S
C2600 H2625 0.950 . S
C2601 C2600 1.349 . S
C2601 C2617 1.349 1_556 S
C2602 C2600 1.327 . S
C2602 C2621 1.443 . S
C2602 H2626 0.950 . S
C2603 C2620 1.574 . S
C2603 C2622 1.394 . S
C2603 H2627 0.949 . S
H2604 C2608 0.949 . S
C2605 C2606 1.349 . S
C2605 C2607 1.327 . S
C2605 H2628 0.950 . S
C2606 C2605 1.349 . S
C2606 C2618 1.349 1_554 S
C2607 C2605 1.327 . S
C2607 C2623 1.429 . S
C2607 H2629 0.950 . S
C2608 H2604 0.949 . S
C2608 C2616 1.574 . S
C2608 C2624 1.368 1_556 S
H2609 C2617 0.950 . S
H2610 C2615 0.950 . S
H2611 C2616 0.949 . S
H2612 C2618 0.950 . S
H2613 C2619 0.950 . S
H2614 C2620 0.949 . S
C2615 H2610 0.950 . S
C2615 C2617 1.327 . S
C2615 C2621 1.416 1_554 S
C2616 C2608 1.574 . S
C2616 H2611 0.949 . S
C2616 C2622 1.344 1_556 S
C2617 C2601 1.349 1_554 S
C2617 H2609 0.950 . S
C2617 C2615 1.327 . S
C2618 C2606 1.349 1_556 S
C2618 H2612 0.950 . S
C2618 C2619 1.327 . S
C2619 H2613 0.950 . S
C2619 C2618 1.327 . S
C2619 C2623 1.429 1_556 S
C2620 C2603 1.574 . S
C2620 H2614 0.949 . S
C2620 C2624 1.368 . S
C2621 C2602 1.443 . S
C2621 C2615 1.416 1_556 S
C2621 C2622 1.522 1_556 S
C2622 C2603 1.394 . S
C2622 C2616 1.344 1_554 S
C2622 C2621 1.522 1_554 S
C2623 C2607 1.429 . S
C2623 C2619 1.429 1_554 S
C2623 C2624 1.523 . S
C2624 C2608 1.368 1_554 S
C2624 C2620 1.368 . S
C2624 C2623 1.523 . S
H2625 C2600 0.950 . S
H2626 C2602 0.950 . S
H2627 C2603 0.949 . S
H2628 C2605 0.950 . S
H2629 C2607 0.950 . S
C2630 C2631 1.349 . S
C2630 C2632 1.327 . S
C2630 H2655 0.950 . S
C2631 C2630 1.349 . S
C2631 C2647 1.349 . S
C2632 C2630 1.327 . S
C2632 C2651 1.429 . S
C2632 H2656 0.950 . S
C2633 C2650 1.574 1_655 S
C2633 C2652 1.368 . S
C2633 H2657 0.949 . S
H2634 C2638 0.949 . S
C2635 C2636 1.349 . S
C2635 C2637 1.327 . S
C2635 H2658 0.950 . S
C2636 C2635 1.349 . S
C2636 C2648 1.349 . S
C2637 C2635 1.327 . S
C2637 C2653 1.429 . S
C2637 H2659 0.950 . S
C2638 H2634 0.949 . S
C2638 C2646 1.574 1_455 S
C2638 C2654 1.368 . S
H2639 C2647 0.950 . S
H2640 C2645 0.950 . S
H2641 C2646 0.949 . S
H2642 C2648 0.950 . S
H2643 C2649 0.950 . S
H2644 C2650 0.949 . S
C2645 H2640 0.950 . S
C2645 C2647 1.327 . S
C2645 C2651 1.429 . S
C2646 C2638 1.574 1_655 S
C2646 H2641 0.949 . S
C2646 C2652 1.368 . S
C2647 C2631 1.349 . S
C2647 H2639 0.950 . S
C2647 C2645 1.327 . S
C2648 C2636 1.349 . S
C2648 H2642 0.950 . S
C2648 C2649 1.327 . S
C2649 H2643 0.950 . S
C2649 C2648 1.327 . S
C2649 C2653 1.429 . S
C2650 C2633 1.574 1_455 S
C2650 H2644 0.949 . S
C2650 C2654 1.368 . S
C2651 C2632 1.429 . S
C2651 C2645 1.429 . S
C2651 C2652 1.523 . S
C2652 C2633 1.368 . S
C2652 C2646 1.368 . S
C2652 C2651 1.523 . S
C2653 C2637 1.429 . S
C2653 C2649 1.429 . S
C2653 C2654 1.523 . S
C2654 C2638 1.368 . S
C2654 C2650 1.368 . S
C2654 C2653 1.523 . S
H2655 C2630 0.950 . S
H2656 C2632 0.950 . S
H2657 C2633 0.949 . S
H2658 C2635 0.950 . S
H2659 C2637 0.950 . S
C2660 C2661 1.349 . S
C2660 C2662 1.327 . S
C2660 H2685 0.950 . S
C2661 C2660 1.349 . S
C2661 C2677 1.349 1_556 S
C2662 C2660 1.327 . S
C2662 C2681 1.429 . S
C2662 H2686 0.950 . S
C2663 C2680 1.574 1_455 S
C2663 C2682 1.326 1_554 S
C2663 H2687 0.949 . S
H2664 C2668 0.949 . S
C2665 C2666 1.349 . S
C2665 C2667 1.327 . S
C2665 H2688 0.950 . S
C2666 C2665 1.349 . S
C2666 C2678 1.349 1_554 S
C2667 C2665 1.327 . S
C2667 C2683 1.429 . S
C2667 H2689 0.950 . S
C2668 H2664 0.949 . S
C2668 C2676 1.574 1_655 S
C2668 C2684 1.342 1_556 S
H2669 C2677 0.950 . S
H2670 C2675 0.950 . S
H2671 C2676 0.949 . S
H2672 C2678 0.950 . S
H2673 C2679 0.950 . S
H2674 C2680 0.949 . S
C2675 H2670 0.950 . S
C2675 C2677 1.327 . S
C2675 C2681 1.429 1_554 S
C2676 C2668 1.574 1_455 S
C2676 H2671 0.949 . S
C2676 C2682 1.409 . S
C2677 C2661 1.349 1_554 S
C2677 H2669 0.950 . S
C2677 C2675 1.327 . S
C2678 C2666 1.349 1_556 S
C2678 H2672 0.950 . S
C2678 C2679 1.327 . S
C2679 H2673 0.950 . S
C2679 C2678 1.327 . S
C2679 C2683 1.429 1_556 S
C2680 C2663 1.574 1_655 S
C2680 H2674 0.949 . S
C2680 C2684 1.394 . S
C2681 C2662 1.429 . S
C2681 C2675 1.429 1_556 S
C2681 C2682 1.526 . S
C2682 C2663 1.326 1_556 S
C2682 C2676 1.409 . S
C2682 C2681 1.526 . S
C2683 C2667 1.429 . S
C2683 C2679 1.429 1_554 S
C2683 C2684 1.524 . S
C2684 C2668 1.342 1_554 S
C2684 C2680 1.394 . S
C2684 C2683 1.524 . S
H2685 C2660 0.950 . S
H2686 C2662 0.950 . S
H2687 C2663 0.949 . S
H2688 C2665 0.950 . S
H2689 C2667 0.950 . S
C2690 C2691 1.349 . S
C2690 C2692 1.327 . S
C2690 H2715 0.950 . S
C2691 C2690 1.349 . S
C2691 C2707 1.349 . S
C2692 C2690 1.327 . S
C2692 C2711 1.429 . S
C2692 H2716 0.950 . S
C2693 C2710 1.574 . S
C2693 C2712 1.368 . S
C2693 H2717 0.949 . S
H2694 C2698 0.949 . S
C2695 C2696 1.349 . S
C2695 C2697 1.327 . S
C2695 H2718 0.950 . S
C2696 C2695 1.349 . S
C2696 C2708 1.349 . S
C2697 C2695 1.327 . S
C2697 C2713 1.429 . S
C2697 H2719 0.950 . S
C2698 H2694 0.949 . S
C2698 C2706 1.574 . S
C2698 C2714 1.368 . S
H2699 C2707 0.950 . S
H2700 C2705 0.950 . S
H2701 C2706 0.949 . S
H2702 C2708 0.950 . S
H2703 C2709 0.950 . S
H2704 C2710 0.949 . S
C2705 H2700 0.950 . S
C2705 C2707 1.327 . S
C2705 C2711 1.429 . S
C2706 C2698 1.574 . S
C2706 H2701 0.949 . S
C2706 C2712 1.368 . S
C2707 C2691 1.349 . S
C2707 H2699 0.950 . S
C2707 C2705 1.327 . S
C2708 C2696 1.349 . S
C2708 H2702 0.950 . S
C2708 C2709 1.327 . S
C2709 H2703 0.950 . S
C2709 C2708 1.327 . S
C2709 C2713 1.429 . S
C2710 C2693 1.574 . S
C2710 H2704 0.949 . S
C2710 C2714 1.368 . S
C2711 C2692 1.429 . S
C2711 C2705 1.429 . S
C2711 C2712 1.523 . S
C2712 C2693 1.368 . S
C2712 C2706 1.368 . S
C2712 C2711 1.523 . S
C2713 C2697 1.429 . S
C2713 C2709 1.429 . S
C2713 C2714 1.523 . S
C2714 C2698 1.368 . S
C2714 C2710 1.368 . S
C2714 C2713 1.523 . S
H2715 C2690 0.950 . S
H2716 C2692 0.950 . S
H2717 C2693 0.949 . S
H2718 C2695 0.950 . S
H2719 C2697 0.950 . S
C1281 C21 1.505 . S
C1286 C261 1.504 . S
C1311 C61 1.370 . S
C1316 C301 1.373 . S
C1341 C101 1.504 . S
C1346 C181 1.505 . S
C1371 C141 1.414 . S
C1376 C221 1.416 . S
C1401 C581 1.522 . S
C1406 C341 1.523 . S
C1431 C602 1.429 . S
C1436 C362 1.432 . S
C1461 C501 1.523 . S
C1466 C421 1.522 . S
C1491 C541 1.497 . S
C1496 C461 1.494 . S
C1521 C901 1.505 . S
C1526 C661 1.506 . S
C1551 C701 1.478 . S
C1556 C941 1.478 . S
C1581 C821 1.506 . S
C1586 C741 1.505 . S
C1611 C781 1.507 . S
C1616 C861 1.507 . S
C1641 C1221 1.544 . S
C1646 C981 1.546 . S
C1671 C1002 1.457 . S
C1676 C1242 1.457 . S
C1701 C1061 1.544 . S
C1706 C1141 1.546 . S
C1731 C1101 1.568 . S
C1736 C1181 1.568 . S
C1761 C15 1.985 . S
C1766 C295 1.983 . S
C1791 C175 1.985 . S
C1796 C55 1.983 . S
C1821 C215 1.986 . S
C1826 C95 1.975 . S
C1851 C255 1.982 . S
C1856 C135 1.981 . S
C1881 C615 1.966 . S
C1886 C335 1.964 . S
C1911 C375 1.966 . S
C1916 C495 1.964 . S
C1941 C415 1.976 . S
C1946 C535 1.971 . S
C1971 C575 1.976 . S
C1976 C455 1.972 . S
C2001 C935 2.048 . S
C2006 C655 2.049 . S
C2031 C815 2.049 . S
C2036 C695 2.048 . S
C2061 C735 2.037 . S
C2066 C855 2.037 . S
C2091 C895 2.037 . S
C2096 C775 2.037 . S
C2121 C1255 1.974 . S
C2126 C975 1.979 . S
C2151 C1135 1.979 . S
C2156 C1015 1.974 . S
C2181 C1175 2.006 . S
C2186 C1055 2.005 . S
C2211 C1095 2.006 . S
C2216 C1215 2.005 . S
C2241 C2 2.042 . S
C2246 C962 2.152 . S
C2271 C42 2.012 . S
C2276 C381 1.991 . S
C2301 C1042 2.181 . S
C2306 C82 2.070 . S
C2331 C122 2.008 . S
C2336 C442 2.107 . S
C2361 C1122 2.152 . S
C2366 C162 2.042 . S
C2391 C202 2.008 . S
C2396 C522 2.107 . S
C2421 C1202 2.182 . S
C2426 C242 2.070 . S
C2451 C282 2.015 . S
C2456 C621 1.991 . S
C2481 C322 2.163 . S
C2486 C642 2.050 . S
C2511 C722 2.072 . S
C2516 C402 2.187 . S
C2541 C802 2.050 . S
C2546 C482 2.163 . S
C2571 C882 2.072 . S
C2576 C562 2.186 . S
C2601 C682 2.063 . S
C2606 C1021 2.048 . S
C2631 C762 2.069 . S
C2636 C1082 2.182 . S
C2661 C1162 2.182 . S
C2666 C842 2.069 . S
C2691 C922 2.063 . S
C2696 C1261 2.048 . S
