# Generated by pormake.
# Topology snz, (6)-cn, num edge types: 1
# Building blocks:
#     Node 0, Type 0, BuildingBlock: KUMBUR_clean_sbu_0, # of connection points: 6
#     Node 1, Type 0, BuildingBlock: KUMBUR_clean_sbu_0, # of connection points: 6
#     Node 2, Type 0, BuildingBlock: KUMBUR_clean_sbu_0, # of connection points: 6
#     Node 3, Type 0, BuildingBlock: KUMBUR_clean_sbu_0, # of connection points: 6
#     Node 4, Type 0, BuildingBlock: KUMBUR_clean_sbu_0, # of connection points: 6
#     Node 5, Type 0, BuildingBlock: KUMBUR_clean_sbu_0, # of connection points: 6
#     Node 6, Type 0, BuildingBlock: KUMBUR_clean_sbu_0, # of connection points: 6
#     Node 7, Type 0, BuildingBlock: KUMBUR_clean_sbu_0, # of connection points: 6
#     Node 8, Type 0, BuildingBlock: KUMBUR_clean_sbu_0, # of connection points: 6
#     Edge 9, Type (0, 0), BuildingBlock: TEMPAE_clean_linker_10, # of connection points: 2
#     Edge 10, Type (0, 0), BuildingBlock: TEMPAE_clean_linker_10, # of connection points: 2
#     Edge 11, Type (0, 0), BuildingBlock: TEMPAE_clean_linker_10, # of connection points: 2
#     Edge 12, Type (0, 0), BuildingBlock: TEMPAE_clean_linker_10, # of connection points: 2
#     Edge 13, Type (0, 0), BuildingBlock: TEMPAE_clean_linker_10, # of connection points: 2
#     Edge 14, Type (0, 0), BuildingBlock: TEMPAE_clean_linker_10, # of connection points: 2
#     Edge 15, Type (0, 0), BuildingBlock: TEMPAE_clean_linker_10, # of connection points: 2
#     Edge 16, Type (0, 0), BuildingBlock: TEMPAE_clean_linker_10, # of connection points: 2
#     Edge 17, Type (0, 0), BuildingBlock: TEMPAE_clean_linker_10, # of connection points: 2
#     Edge 18, Type (0, 0), BuildingBlock: TEMPAE_clean_linker_10, # of connection points: 2
#     Edge 19, Type (0, 0), BuildingBlock: TEMPAE_clean_linker_10, # of connection points: 2
#     Edge 20, Type (0, 0), BuildingBlock: TEMPAE_clean_linker_10, # of connection points: 2
#     Edge 21, Type (0, 0), BuildingBlock: TEMPAE_clean_linker_10, # of connection points: 2
#     Edge 22, Type (0, 0), BuildingBlock: TEMPAE_clean_linker_10, # of connection points: 2
#     Edge 23, Type (0, 0), BuildingBlock: TEMPAE_clean_linker_10, # of connection points: 2
#     Edge 24, Type (0, 0), BuildingBlock: TEMPAE_clean_linker_10, # of connection points: 2
#     Edge 25, Type (0, 0), BuildingBlock: TEMPAE_clean_linker_10, # of connection points: 2
#     Edge 26, Type (0, 0), BuildingBlock: TEMPAE_clean_linker_10, # of connection points: 2
#     Edge 27, Type (0, 0), BuildingBlock: TEMPAE_clean_linker_10, # of connection points: 2
#     Edge 28, Type (0, 0), BuildingBlock: TEMPAE_clean_linker_10, # of connection points: 2
#     Edge 29, Type (0, 0), BuildingBlock: TEMPAE_clean_linker_10, # of connection points: 2
#     Edge 30, Type (0, 0), BuildingBlock: TEMPAE_clean_linker_10, # of connection points: 2
#     Edge 31, Type (0, 0), BuildingBlock: TEMPAE_clean_linker_10, # of connection points: 2
#     Edge 32, Type (0, 0), BuildingBlock: TEMPAE_clean_linker_10, # of connection points: 2
#     Edge 33, Type (0, 0), BuildingBlock: TEMPAE_clean_linker_10, # of connection points: 2
#     Edge 34, Type (0, 0), BuildingBlock: TEMPAE_clean_linker_10, # of connection points: 2
#     Edge 35, Type (0, 0), BuildingBlock: TEMPAE_clean_linker_10, # of connection points: 2
# Relax obj value: 0.275
# Max RMSD: 0.305
# Mean RMSD: 0.206
data_MOF--net-snz--node1-KUMBUR_clean_sbu_0--edge1-TEMPAE_clean_linker_10
_symmetry_space_group_name_H-M    P1
_symmetry_Int_Tables_number       1
_symmetry_cell_setting            triclinic
loop_
_symmetry_equiv_pos_as_xyz
'x, y, z'
_cell_length_a     61.198528
_cell_length_b     56.155203
_cell_length_c     16.992915
_cell_angle_alpha  93.49504
_cell_angle_beta   95.180001
_cell_angle_gamma 120.52505
loop_
_atom_site_label
_atom_site_type_symbol
_atom_site_fract_x
_atom_site_fract_y
_atom_site_fract_z
_atom_type_partial_charge
Tb0 Tb 0.10691 0.47594 0.20572 0.0
C1 C 1.00031 0.43129 0.26263 0.0
C2 C 0.97553 0.39097 0.1644 0.0
C3 C 0.96099 0.39165 0.29233 0.0
C4 C 0.99763 0.41728 0.19012 0.0
C5 C 0.98148 0.41917 0.31347 0.0
C6 C 0.95787 0.37761 0.21732 0.0
C7 C 1.00091 0.46424 0.39122 0.0
N8 N 0.01929 0.4584 0.27735 0.0
C9 C 0.01856 0.47545 0.3374 0.0
C10 C 0.98266 0.4358 0.38033 0.0
Tb11 Tb 0.04847 0.47517 0.18766 0.0
N12 N 0.01489 0.43114 0.14055 0.0
C13 C 0.01032 0.42039 0.0624 0.0
C14 C 0.97094 0.37985 0.08476 0.0
C15 C 0.98825 0.39484 1.03331 0.0
H16 H 0.03243 0.49753 0.34614 0.0
H17 H 0.98446 0.38706 0.97088 0.0
H18 H 0.94111 0.35707 0.19934 0.0
H19 H 1.00126 0.4776 0.4406 0.0
H20 H 0.02344 0.43163 1.02167 0.0
H21 H 0.16722 0.5614 0.4417 0.0
H22 H 0.95361 0.36029 0.06198 0.0
H23 H 0.12952 0.46508 1.03842 0.0
H24 H 0.13622 0.51326 0.38859 0.0
H25 H 0.15737 0.49382 0.94549 0.0
H26 H 0.94655 0.38176 0.3311 0.0
H27 H 0.19042 0.5959 0.35129 0.0
H28 H 0.20046 0.60569 0.21298 0.0
H29 H 0.96865 0.42727 0.42106 0.0
H30 H 0.19715 0.58711 0.07483 0.0
N31 N 0.13883 0.51979 0.26604 0.0
C32 C 0.14487 0.52775 0.34675 0.0
C33 C 0.17614 0.57468 0.32684 0.0
C34 C 0.17183 0.56597 0.24531 0.0
C35 C 0.16312 0.55526 0.37799 0.0
C36 C 0.15316 0.53794 0.21662 0.0
H37 H 0.18172 0.54515 0.97503 0.0
N38 N 0.13566 0.49973 0.11801 0.0
C39 C 0.15555 0.5037 0.99918 0.0
C40 C 0.15122 0.52757 0.1392 0.0
C41 C 0.13972 0.48749 0.05255 0.0
C42 C 0.16913 0.53263 1.01581 0.0
C43 C 0.16801 0.54487 0.08823 0.0
O44 O 0.11873 0.44803 0.16831 0.0
O45 O 0.06615 0.45137 0.1621 0.0
O46 O 0.05426 0.4648 0.31573 0.0
O47 O 0.09692 0.47737 0.33381 0.0
O48 O 0.08063 0.43344 0.23119 0.0
O49 O 0.13171 0.46993 0.28578 0.0
O50 O 0.0402 0.50767 0.19324 0.0
O51 O 0.09025 0.50249 0.20116 0.0
O52 O 0.09339 0.46986 0.0696 0.0
O53 O 0.06023 0.47873 0.06062 0.0
O54 O 0.07002 0.51229 0.27289 0.0
O55 O 0.02561 0.47766 0.09146 0.0
C56 C 0.06019 0.4285 0.18821 0.0
C57 C 0.15856 0.4555 0.23297 0.0
C58 C 0.18911 0.43908 0.25797 0.0
C59 C 0.16429 0.43538 0.25957 0.0
C60 C 0.20738 0.46279 0.22656 0.0
C61 C 0.17781 0.47919 0.20553 0.0
C62 C 0.20184 0.48258 0.20143 0.0
C63 C 0.07537 0.47072 0.36589 0.0
C64 C 0.13285 0.45223 0.23571 0.0
C65 C 0.18459 0.57341 0.11379 0.0
C66 C 0.18653 0.58397 0.19248 0.0
C67 C 0.09253 0.52072 0.25577 0.0
C68 C 0.99929 0.49495 0.1261 0.0
C69 C 0.99365 0.5148 0.0984 0.0
C70 C 0.96888 0.51085 0.0996 0.0
C71 C 0.95011 0.48701 0.12855 0.0
C72 C 0.97972 0.47104 0.15207 0.0
C73 C 0.95549 0.46723 0.1541 0.0
C74 C 0.07676 0.47422 1.0237 0.0
C75 C 0.02509 0.49847 0.12612 0.0
H76 H 0.14968 0.41733 0.28275 0.0
H77 H 0.22619 0.46617 0.22085 0.0
H78 H 0.17437 0.49523 0.18737 0.0
H79 H 0.21637 0.5008 0.17874 0.0
H80 H 0.00835 0.53312 0.07645 0.0
H81 H 0.93095 0.48331 0.12954 0.0
H82 H 0.98296 0.45498 0.16973 0.0
H83 H 0.9407 0.44867 0.17472 0.0
Tb84 Tb 0.62358 0.53226 0.10858 0.0
C85 C 0.64646 0.45112 0.22076 0.0
C86 C 0.68918 0.46729 0.18953 0.0
C87 C 0.67565 0.44322 0.30594 0.0
C88 C 0.66513 0.46502 0.1735 0.0
C89 C 0.65102 0.43884 0.2852 0.0
C90 C 0.69478 0.45755 0.25823 0.0
C91 C 0.60562 0.41468 0.29355 0.0
N92 N 0.62281 0.44694 0.19758 0.0
C93 C 0.60211 0.4276 0.22978 0.0
C94 C 0.63029 0.42099 0.32301 0.0
Tb95 Tb 0.61859 0.46767 0.08927 0.0
N96 N 0.6584 0.4727 0.10569 0.0
C97 C 0.67334 0.47881 1.04622 0.0
C98 C 0.70601 0.47724 0.13291 0.0
C99 C 0.69773 0.48222 0.05982 0.0
H100 H 0.58306 0.42306 0.20798 0.0
H101 H 0.70997 0.4884 1.01368 0.0
H102 H 0.71328 0.45948 0.27228 0.0
H103 H 0.58935 0.40012 0.32051 0.0
H104 H 0.66667 0.48171 0.98864 0.0
H105 H 0.53977 0.51606 0.23535 0.0
H106 H 0.7247 0.47938 0.14287 0.0
H107 H 0.64986 0.57398 0.96731 0.0
H108 H 0.58288 0.52348 0.23971 0.0
H109 H 0.63436 0.58822 0.8503 0.0
H110 H 0.67971 0.43437 0.3561 0.0
H111 H 0.51664 0.51668 0.10901 0.0
H112 H 0.51821 0.52737 0.9677 0.0
H113 H 0.63294 0.41096 0.3724 0.0
H114 H 0.54448 0.54766 0.86162 0.0
N115 N 0.5841 0.5266 0.11541 0.0
C116 C 0.57317 0.52346 0.18363 0.0
C117 C 0.53558 0.51961 0.11013 0.0
C118 C 0.54807 0.52603 1.04269 0.0
C119 C 0.54857 0.51929 0.18157 0.0
C120 C 0.57286 0.52998 1.0476 0.0
H121 H 0.58821 0.57152 0.81877 0.0
N122 N 0.61261 0.54839 0.99927 0.0
C123 C 0.62101 0.57486 0.88799 0.0
C124 C 0.58767 0.54145 0.98757 0.0
C125 C 0.62978 0.56707 0.95474 0.0
C126 C 0.5949 0.56522 0.87011 0.0
C127 C 0.57803 0.54918 0.92171 0.0
O128 O 0.65376 0.56489 0.18971 0.0
O129 O 0.6426 0.51077 0.0675 0.0
O130 O 0.6236 0.48124 0.22684 0.0
O131 O 0.61937 0.52001 0.23595 0.0
O132 O 0.6644 0.54792 0.13533 0.0
O133 O 0.62646 0.57159 0.12472 0.0
O134 O 0.58519 0.4278 0.05763 0.0
O135 O 0.59944 0.48939 0.12791 0.0
O136 O 0.61848 0.51797 0.97149 0.0
O137 O 0.62457 0.4807 0.96289 0.0
O138 O 0.57869 0.45476 1.04879 0.0
O139 O 0.61993 0.43731 1.01338 0.0
C140 C 0.66565 0.52841 0.09787 0.0
C141 C 0.66896 0.61021 0.15362 0.0
C142 C 0.69399 0.66137 0.17424 0.0
C143 C 0.67305 0.63585 0.18942 0.0
C144 C 0.71024 0.66083 0.12161 0.0
C145 C 0.68563 0.61053 0.1014 0.0
C146 C 0.70598 0.63564 0.08532 0.0
C147 C 0.62233 0.50103 0.27323 0.0
C148 C 0.64787 0.58328 0.17236 0.0
C149 C 0.55241 0.54243 0.9127 0.0
C150 C 0.53743 0.53085 0.97314 0.0
C151 C 0.5769 0.47289 0.09236 0.0
C152 C 0.59124 0.38986 1.02993 0.0
C153 C 0.56993 0.36559 0.98611 0.0
C154 C 0.56418 0.33857 1.00195 0.0
C155 C 0.57988 0.33684 0.06481 0.0
C156 C 0.60735 0.38695 0.08732 0.0
C157 C 0.60141 0.3607 0.1057 0.0
C158 C 0.62057 0.49888 0.92496 0.0
C159 C 0.59632 0.41801 1.01616 0.0
H160 H 0.66042 0.63592 0.23008 0.0
H161 H 0.72624 0.68005 0.10803 0.0
H162 H 0.68313 0.59143 0.07285 0.0
H163 H 0.7186 0.63559 1.04472 0.0
H164 H 0.55827 0.36801 0.93923 0.0
H165 H 0.57571 0.31702 0.08311 0.0
H166 H 0.6245 0.40492 0.1185 0.0
H167 H 0.61358 0.35883 0.15213 0.0
Tb168 Tb 0.55442 0.02667 0.88936 0.0
C169 C 0.60536 0.14288 1.00185 0.0
C170 C 0.58184 0.15577 0.9099 0.0
C171 C 0.59476 0.17723 1.0474 0.0
C172 C 0.593 0.13962 0.92686 0.0
C173 C 0.60741 0.16262 0.06221 0.0
C174 C 0.58189 0.17373 0.97128 0.0
C175 C 0.63678 0.1545 0.1436 0.0
N176 N 0.6173 0.12841 1.01359 0.0
C177 C 0.63405 0.13509 0.08202 0.0
C178 C 0.62293 0.16788 0.13439 0.0
Tb179 Tb 0.60804 0.09346 0.914 0.0
N180 N 0.59378 0.12231 0.86918 0.0
C181 C 0.58615 0.12295 0.79116 0.0
C182 C 0.57202 0.15437 0.83128 0.0
C183 C 0.57489 0.13853 0.77145 0.0
H184 H 0.64401 0.12408 0.09155 0.0
H185 H 0.56824 0.13811 0.70986 0.0
H186 H 0.573 0.18588 0.95966 0.0
H187 H 0.64927 0.15879 0.19858 0.0
H188 H 0.58806 0.11148 0.74234 0.0
H189 H 0.5064 0.96241 0.11533 0.0
H190 H 0.56323 0.16635 0.81576 0.0
H191 H 0.58988 0.02049 0.75977 0.0
H192 H 0.51668 0.99933 1.02816 0.0
H193 H 0.60732 0.99062 0.73129 0.0
H194 H 0.59565 0.19205 0.09343 0.0
H195 H 0.52664 0.93402 0.10658 0.0
H196 H 0.55478 0.92158 1.03764 0.0
H197 H 0.62502 0.18287 0.18222 0.0
H198 H 0.58138 0.92853 0.93109 0.0
N199 N 0.54399 0.99331 0.97464 0.0
C200 C 0.52584 0.98721 1.02443 0.0
C201 C 0.53138 0.95034 0.06869 0.0
C202 C 0.54803 0.95488 1.01252 0.0
C203 C 0.51988 0.96627 0.07367 0.0
C204 C 0.55362 0.97645 0.96481 0.0
H205 H 0.60057 0.95375 0.81562 0.0
N206 N 0.57257 1.0007 0.85879 0.0
C207 C 0.5963 0.98738 0.78013 0.0
C208 C 0.56818 0.98007 0.9043 0.0
C209 C 0.58616 0.00427 0.79637 0.0
C210 C 0.59248 0.96661 0.82786 0.0
C211 C 0.57822 0.96268 0.89076 0.0
O212 O 0.53014 0.99515 0.79554 0.0
O213 O 0.56701 0.06952 0.87197 0.0
O214 O 0.59473 0.08469 1.04084 0.0
O215 O 0.56408 0.03742 1.02603 0.0
O216 O 0.53916 0.05024 0.94302 0.0
O217 O 0.51457 0.01039 0.87877 0.0
O218 O 0.64548 0.12895 0.91832 0.0
O219 O 0.59525 0.04984 0.90734 0.0
O220 O 0.56075 0.0383 0.76052 0.0
O221 O 0.59933 0.0807 0.77821 0.0
O222 O 0.62249 0.0764 1.0016 0.0
O223 O 0.6358 0.09098 0.85304 0.0
C224 C 0.55057 0.072 0.90727 0.0
C225 C 0.49062 0.9618 0.83541 0.0
C226 C 0.45644 0.92852 0.90586 0.0
C227 C 0.47318 0.95612 0.89096 0.0
C228 C 0.45721 0.9067 0.86338 0.0
C229 C 0.49053 0.93942 0.79333 0.0
C230 C 0.47396 0.91215 0.80738 0.0
C231 C 0.57902 0.06155 0.07462 0.0
C232 C 0.50937 0.99086 0.82254 0.0
C233 C 0.57366 0.94193 0.94017 0.0
C234 C 0.55859 0.93803 1.00098 0.0
C235 C 0.60958 0.05114 0.9684 0.0
C236 C 0.67915 0.11851 0.91585 0.0
C237 C 0.69966 0.12354 0.87156 0.0
C238 C 0.72199 0.12409 0.90812 0.0
C239 C 0.72329 0.1199 0.98871 0.0
C240 C 0.68194 0.11481 0.99626 0.0
C241 C 0.70361 0.11543 1.03202 0.0
C242 C 0.57977 0.05933 0.72817 0.0
C243 C 0.65445 0.11591 0.87941 0.0
H244 H 0.47274 0.97314 0.92287 0.0
H245 H 0.44512 0.88533 0.87433 0.0
H246 H 0.5035 0.94299 0.75003 0.0
H247 H 0.47431 0.89512 0.77528 0.0
H248 H 0.69808 0.1265 0.80938 0.0
H249 H 0.73995 0.12052 1.01915 0.0
H250 H 0.66735 0.11133 1.03239 0.0
H251 H 0.70517 0.11245 0.09417 0.0
Tb252 Tb 0.81434 0.90878 0.3558 0.0
C253 C 0.70952 0.86815 0.41274 0.0
C254 C 0.68648 0.82561 0.3209 0.0
C255 C 0.67185 0.82779 0.44789 0.0
C256 C 0.70736 0.85312 0.34194 0.0
C257 C 0.69111 0.85605 0.46479 0.0
C258 C 0.66953 0.81258 0.37592 0.0
C259 C 0.70917 0.90178 0.5378 0.0
N260 N 0.72791 0.89557 0.4258 0.0
C261 C 0.7268 0.91287 0.48388 0.0
C262 C 0.69167 0.87312 0.52947 0.0
Tb263 Tb 0.75779 0.91027 0.33945 0.0
N264 N 0.72385 0.86662 0.28974 0.0
C265 C 0.718 0.85528 0.21157 0.0
C266 C 0.68229 0.81273 0.24348 0.0
C267 C 0.6976 0.82797 0.18789 0.0
H268 H 0.74038 0.935 0.49129 0.0
H269 H 0.6938 0.81866 0.12681 0.0
H270 H 0.65375 0.79124 0.36152 0.0
H271 H 0.70911 0.91533 0.58577 0.0
H272 H 0.7294 0.86644 0.16722 0.0
H273 H 0.8819 0.99695 0.57551 0.0
H274 H 0.66648 0.79165 0.22487 0.0
H275 H 0.83051 0.88268 0.20442 0.0
H276 H 0.8432 0.95242 0.53016 0.0
H277 H 0.86225 0.90088 0.11121 0.0
H278 H 0.65783 0.81796 0.48793 0.0
H279 H 0.9126 0.02146 0.48262 0.0
H280 H 0.92488 0.02275 0.34633 0.0
H281 H 0.6779 0.86463 0.57092 0.0
H282 H 0.91911 0.99659 0.21717 0.0
N283 N 0.84978 0.95134 0.40847 0.0
C284 C 0.85555 0.96248 0.48692 0.0
C285 C 0.89486 0.0022 0.46096 0.0
C286 C 0.88985 0.99019 0.38226 0.0
C287 C 0.87781 0.98815 0.51374 0.0
C288 C 0.86727 0.96408 0.35808 0.0
H289 H 0.89618 0.95071 0.12984 0.0
N290 N 0.84474 0.9224 0.2713 0.0
C291 C 0.86294 0.91479 0.15964 0.0
C292 C 0.86444 0.94916 0.28636 0.0
C293 C 0.84492 0.90459 0.21262 0.0
C294 C 0.88195 0.94295 0.17009 0.0
C295 C 0.88352 0.96025 0.23589 0.0
O296 O 0.84326 0.89963 0.38751 0.0
O297 O 0.77307 0.88324 0.3385 0.0
O298 O 0.76478 0.90467 0.47191 0.0
O299 O 0.80601 0.91218 0.4854 0.0
O300 O 0.79259 0.87346 0.26365 0.0
O301 O 0.80512 0.8726 0.41016 0.0
O302 O 0.76294 0.94451 0.28089 0.0
O303 O 0.7992 0.93621 0.35569 0.0
O304 O 0.80741 0.91401 0.22295 0.0
O305 O 0.767 0.90875 0.21001 0.0
O306 O 0.77943 0.9469 0.42772 0.0
O307 O 0.72564 0.91345 0.30139 0.0
C308 C 0.77018 0.86547 0.28226 0.0
C309 C 0.83756 0.8711 0.4907 0.0
C310 C 0.84374 0.83863 0.56669 0.0
C311 C 0.83548 0.84501 0.49494 0.0
C312 C 0.85428 0.85909 0.63373 0.0
C313 C 0.84788 0.8909 0.55849 0.0
C314 C 0.85622 0.88488 0.62955 0.0
C315 C 0.78537 0.90805 0.51961 0.0
C316 C 0.82804 0.87677 0.41564 0.0
C317 C 0.90448 0.98753 0.25577 0.0
C318 C 0.90775 0.00243 0.32926 0.0
C319 C 0.80195 0.95433 0.41092 0.0
C320 C 0.73309 0.95884 0.29616 0.0
C321 C 0.71677 0.96301 0.24226 0.0
C322 C 0.71105 0.98387 0.26186 0.0
C323 C 0.72162 1.00004 0.33697 0.0
C324 C 0.74367 0.97562 0.36986 0.0
C325 C 0.73783 0.99598 0.39016 0.0
C326 C 0.78731 0.91188 0.17557 0.0
C327 C 0.73896 0.93706 0.27433 0.0
H328 H 0.82702 0.82956 0.44272 0.0
H329 H 0.86134 0.85533 0.68949 0.0
H330 H 0.84946 0.91094 0.55649 0.0
H331 H 0.86428 0.90029 0.6817 0.0
H332 H 0.70895 0.95036 0.18472 0.0
H333 H 0.71725 0.01581 0.35505 0.0
H334 H 0.75647 0.97311 0.41182 0.0
H335 H 0.74594 0.0087 0.44744 0.0
Tb336 Tb 0.16821 0.7858 0.39302 0.0
C337 C 0.25169 0.76602 0.48512 0.0
C338 C 0.26613 0.79025 0.61947 0.0
C339 C 0.27368 0.75276 0.58352 0.0
C340 C 0.2531 0.78571 0.54206 0.0
C341 C 0.26251 0.74979 0.5049 0.0
C342 C 0.27562 0.77307 0.64058 0.0
C343 C 0.25421 0.73206 0.36558 0.0
N344 N 0.24177 0.76452 0.40894 0.0
C345 C 0.24412 0.74891 0.34857 0.0
C346 C 0.26303 0.73213 0.44428 0.0
Tb347 Tb 0.2275 0.79458 0.38815 0.0
N348 N 0.24404 0.80227 0.51952 0.0
C349 C 0.24899 0.82492 0.57 0.0
C350 C 0.27027 0.81273 0.6723 0.0
C351 C 0.26186 0.83028 0.64714 0.0
H352 H 0.23742 0.7489 0.28744 0.0
H353 H 0.26538 0.84803 0.68699 0.0
H354 H 0.28528 0.77596 0.70012 0.0
H355 H 0.25525 0.71913 0.31796 0.0
H356 H 0.24307 0.83897 0.55067 0.0
H357 H 0.12447 0.72258 0.10684 0.0
H358 H 0.28036 0.81703 0.73198 0.0
H359 H 0.16818 0.84436 0.4572 0.0
H360 H 0.13998 0.73163 0.24937 0.0
H361 H 0.16813 0.88312 0.39775 0.0
H362 H 0.28187 0.7403 0.59996 0.0
H363 H 0.12744 0.76062 1.03372 0.0
H364 H 0.13895 0.81044 1.03734 0.0
H365 H 0.27113 0.71931 0.45718 0.0
H366 H 0.15189 0.8548 0.11686 0.0
N367 N 0.15266 0.77498 0.25931 0.0
C368 C 0.14175 0.74871 0.21946 0.0
C369 C 0.13434 0.76481 0.09694 0.0
C370 C 0.14427 0.79127 0.13849 0.0
C371 C 0.13264 0.74331 0.138 0.0
C372 C 0.15295 0.79561 0.2209 0.0
H373 H 0.16246 0.88198 0.25146 0.0
N374 N 0.16533 0.82227 0.34578 0.0
C375 C 0.16618 0.86578 0.35971 0.0
C376 C 0.16001 0.82034 0.26559 0.0
C377 C 0.16642 0.84375 0.39305 0.0
C378 C 0.16304 0.86509 0.27722 0.0
C379 C 0.15894 0.84173 0.22903 0.0
O380 O 0.13839 0.78952 0.4335 0.0
O381 O 0.20004 0.78938 0.48035 0.0
O382 O 0.20267 0.74918 0.37563 0.0
O383 O 0.16237 0.74317 0.37858 0.0
O384 O 0.17006 0.78697 0.52471 0.0
O385 O 0.13245 0.74928 0.3994 0.0
O386 O 0.25836 0.80383 0.32471 0.0
O387 O 0.1947 0.7883 0.30168 0.0
O388 O 0.1982 0.8289 0.44789 0.0
O389 O 0.22813 0.83323 0.37199 0.0
O390 O 0.22263 0.786 0.25527 0.0
O391 O 0.26124 0.83422 0.41501 0.0
C392 C 0.19098 0.78805 0.55167 0.0
C393 C 0.09515 0.75328 0.3967 0.0
C394 C 0.05008 0.73409 0.41991 0.0
C395 C 0.07572 0.74146 0.44669 0.0
C396 C 0.04478 0.73925 0.3423 0.0
C397 C 0.0888 0.75751 0.31976 0.0
C398 C 0.06382 0.75053 0.29295 0.0
C399 C 0.17761 0.73298 0.3717 0.0
C400 C 0.12225 0.76292 0.42721 0.0
C401 C 0.15241 0.83844 0.14607 0.0
C402 C 0.14498 0.81317 0.10084 0.0
C403 C 0.20247 0.78679 0.22994 0.0
C404 C 0.30027 0.83919 0.38146 0.0
C405 C 0.31626 0.85095 0.3229 0.0
C406 C 0.34279 0.86138 0.33858 0.0
C407 C 0.35303 0.8598 0.4143 0.0
C408 C 0.31092 0.83796 0.45651 0.0
C409 C 0.33719 0.8482 0.47265 0.0
C410 C 0.21936 0.84493 0.41789 0.0
C411 C 0.27274 0.82886 0.36196 0.0
H412 H 0.08066 0.73808 0.50608 0.0
H413 H 0.02592 0.73508 0.31952 0.0
H414 H 0.10328 0.76672 0.28087 0.0
H415 H 0.05921 0.75429 0.23371 0.0
H416 H 0.30792 0.85167 0.26467 0.0
H417 H 0.37336 0.86785 0.42882 0.0
H418 H 0.29906 0.82927 0.50261 0.0
H419 H 0.34534 0.84725 0.53077 0.0
Tb420 Tb 0.23847 0.25406 0.40691 0.0
C421 C 0.32696 0.35246 0.58956 0.0
C422 C 0.3164 0.38796 0.5707 0.0
C423 C 0.34073 0.39031 0.69528 0.0
C424 C 0.31465 0.36273 0.54345 0.0
C425 C 0.34084 0.36654 0.66489 0.0
C426 C 0.32852 0.40103 0.6482 0.0
C427 C 0.35663 0.33487 0.66933 0.0
N428 N 0.32695 0.32968 0.55722 0.0
C429 C 0.34249 0.3215 0.5944 0.0
C430 C 0.35538 0.35711 0.70547 0.0
Tb431 Tb 0.3026 0.30912 0.43428 0.0
N432 N 0.30405 0.35007 0.46791 0.0
C433 C 0.299 0.36408 0.4133 0.0
C434 C 0.3077 0.40033 0.51719 0.0
C435 C 0.29977 0.3888 0.43738 0.0
H436 H 0.343 0.30386 0.56747 0.0
H437 H 0.29471 0.39916 0.39408 0.0
H438 H 0.32972 0.42019 0.67066 0.0
H439 H 0.36826 0.32783 0.69953 0.0
H440 H 0.29432 0.35613 0.35081 0.0
H441 H 0.24817 0.18278 0.59085 0.0
H442 H 0.30871 0.41973 0.53553 0.0
H443 H 0.20165 0.23798 0.23058 0.0
H444 H 0.24838 0.22502 0.56725 0.0
H445 H 0.18327 0.20081 0.11775 0.0
H446 H 0.351 0.40127 0.75354 0.0
H447 H 0.23698 0.14657 0.47913 0.0
H448 H 0.22152 0.12909 0.3342 0.0
H449 H 0.36635 0.3674 0.7635 0.0
H450 H 0.20395 0.13407 0.20446 0.0
N451 N 0.23791 0.21445 0.44054 0.0
C452 C 0.24329 0.21 0.51652 0.0
C453 C 0.23698 0.16533 0.46772 0.0
C454 C 0.22975 0.16893 0.39113 0.0
C455 C 0.24317 0.18567 0.5309 0.0
C456 C 0.23 0.19377 0.37953 0.0
H457 H 0.18897 0.16038 0.12383 0.0
N458 N 0.21846 0.21949 0.30028 0.0
C459 C 0.19371 0.19937 0.17036 0.0
C460 C 0.22011 0.1965 0.30671 0.0
C461 C 0.204 0.22034 0.23503 0.0
C462 C 0.1971 0.17669 0.17383 0.0
C463 C 0.20979 0.17463 0.24338 0.0
O464 O 0.21698 0.26701 0.46942 0.0
O465 O 0.26273 0.29929 0.41671 0.0
O466 O 0.29282 0.2984 0.56221 0.0
O467 O 0.24943 0.26499 0.54327 0.0
O468 O 0.23196 0.27939 0.32774 0.0
O469 O 0.19912 0.22569 0.41289 0.0
O470 O 0.33997 0.31685 0.42603 0.0
O471 O 0.27753 0.26479 0.4435 0.0
O472 O 0.25203 0.25837 0.28098 0.0
O473 O 0.28899 0.30203 0.29898 0.0
O474 O 0.31012 0.27618 0.39776 0.0
O475 O 0.32547 0.33833 0.35994 0.0
C476 C 0.25016 0.30353 0.36036 0.0
C477 C 0.1722 0.24476 0.42416 0.0
C478 C 0.13065 0.24083 0.44329 0.0
C479 C 0.15275 0.23976 0.47287 0.0
C480 C 0.12851 0.24619 0.36374 0.0
C481 C 0.16934 0.25107 0.34687 0.0
C482 C 0.14768 0.25156 0.31692 0.0
C483 C 0.27121 0.28192 0.59388 0.0
C484 C 0.19546 0.24352 0.45276 0.0
C485 C 0.21137 0.15086 0.25283 0.0
C486 C 0.22134 0.14801 0.32669 0.0
C487 C 0.29002 0.25482 0.41377 0.0
C488 C 0.37106 0.36177 0.39417 0.0
C489 C 0.39024 0.36837 0.34322 0.0
C490 C 0.41439 0.39386 0.35979 0.0
C491 C 0.419 0.41173 0.42908 0.0
C492 C 0.37659 0.38074 0.46107 0.0
C493 C 0.40033 0.40526 0.47875 0.0
C494 C 0.27077 0.27968 0.24863 0.0
C495 C 0.34523 0.33561 0.37754 0.0
H496 H 0.15503 0.23545 0.53332 0.0
H497 H 0.11174 0.24601 0.33647 0.0
H498 H 0.18379 0.25547 0.30893 0.0
H499 H 0.14565 0.256 0.25648 0.0
H500 H 0.38619 0.35415 0.29049 0.0
H501 H 0.43725 0.43099 0.4452 0.0
H502 H 0.36253 0.37678 0.49987 0.0
H503 H 0.40425 0.41949 0.53126 0.0
Tb504 Tb 0.39741 0.11239 0.52402 0.0
C505 C 0.31452 0.11359 0.71028 0.0
C506 C 0.33202 0.1626 0.74774 0.0
C507 C 0.28716 0.13001 0.75437 0.0
C508 C 0.33517 0.14015 0.72293 0.0
C509 C 0.29004 0.10814 0.72381 0.0
C510 C 0.30819 0.15727 0.76662 0.0
C511 C 0.27282 0.0603 0.67117 0.0
N512 N 0.31809 0.09336 0.6785 0.0
C513 C 0.29746 0.06674 0.65937 0.0
C514 C 0.2691 0.08104 0.70419 0.0
Tb515 Tb 0.35977 0.1036 0.6789 0.0
N516 N 0.35739 0.14418 0.70027 0.0
C517 C 0.37537 0.17083 0.68778 0.0
C518 C 0.35224 0.18973 0.74715 0.0
C519 C 0.37362 0.19381 0.71385 0.0
H520 H 0.29974 0.04985 0.63722 0.0
H521 H 0.38845 0.21462 0.7059 0.0
H522 H 0.30553 0.1742 0.78672 0.0
H523 H 0.25678 0.03917 0.65592 0.0
H524 H 0.39083 0.17491 0.65482 0.0
H525 H 0.43465 0.04447 0.53996 0.0
H526 H 0.35068 0.20752 0.76606 0.0
H527 H 0.42444 0.17839 0.48753 0.0
H528 H 0.40197 0.05729 0.54802 0.0
H529 H 0.46723 0.21641 0.4701 0.0
H530 H 0.26859 0.12621 0.76598 0.0
H531 H 0.47884 0.08047 0.5253 0.0
H532 H 0.51222 0.13122 0.53181 0.0
H533 H 0.24999 0.07601 0.71342 0.0
H534 H 0.52137 0.1786 0.51651 0.0
N535 N 0.42789 0.10061 0.54517 0.0
C536 C 0.42151 0.07349 0.54625 0.0
C537 C 0.4651 0.08656 0.53605 0.0
C538 C 0.47188 0.11441 0.53884 0.0
C539 C 0.43998 0.06608 0.54178 0.0
C540 C 0.4524 0.12072 0.5409 0.0
H541 H 0.50452 0.21032 0.49075 0.0
N542 N 0.4372 0.15098 0.52159 0.0
C543 C 0.46476 0.19706 0.4875 0.0
C544 C 0.45734 0.14698 0.52968 0.0
C545 C 0.44045 0.17536 0.4976 0.0
C546 C 0.48579 0.1936 0.4996 0.0
C547 C 0.48217 0.16816 0.51945 0.0
O548 O 0.39753 0.12044 0.40431 0.0
O549 O 0.36473 0.11373 0.56031 0.0
O550 O 0.33692 0.07379 0.5704 0.0
O551 O 0.36781 0.06765 0.52423 0.0
O552 O 0.3823 0.13789 0.47733 0.0
O553 O 0.38983 0.08065 0.43366 0.0
O554 O 0.3423 0.06194 0.70016 0.0
O555 O 0.38763 0.09476 0.63285 0.0
O556 O 0.42178 0.1472 0.62185 0.0
O557 O 0.39649 0.14225 0.72401 0.0
O558 O 0.39322 0.10655 0.75177 0.0
O559 O 0.3494 0.09379 0.79298 0.0
C560 C 0.36427 0.13171 0.51946 0.0
C561 C 0.42229 0.10301 0.35364 0.0
C562 C 0.46593 0.13634 0.32695 0.0
C563 C 0.44092 0.12976 0.33876 0.0
C564 C 0.47241 0.11587 0.33914 0.0
C565 C 0.42867 0.0823 0.35538 0.0
C566 C 0.45371 0.08893 0.35023 0.0
C567 C 0.34351 0.05734 0.53399 0.0
C568 C 0.39833 0.09831 0.38218 0.0
C569 C 0.50216 0.16261 0.524 0.0
C570 C 0.49696 0.13566 0.53282 0.0
C571 C 0.40186 0.09794 0.69738 0.0
C572 C 0.35508 0.05647 0.82635 0.0
C573 C 0.37763 0.07471 0.8777 0.0
C574 C 0.39465 0.06627 0.90364 0.0
C575 C 0.38741 0.03819 0.88703 0.0
C576 C 0.34781 0.02836 0.81041 0.0
C577 C 0.36377 0.0192 0.84188 0.0
C578 C 0.41821 0.1559 0.69207 0.0
C579 C 0.34266 0.06773 0.77548 0.0
H580 H 0.43559 0.14533 0.33611 0.0
H581 H 0.49133 0.11962 0.33369 0.0
H582 H 0.41475 0.06141 0.36607 0.0
H583 H 0.45869 0.07309 0.35503 0.0
H584 H 0.38299 0.09621 0.89273 0.0
H585 H 0.40016 0.0311 0.90758 0.0
H586 H 0.3305 0.01389 0.77033 0.0
H587 H 0.35833 0.99765 0.82829 0.0
Tb588 Tb 0.94406 0.17285 0.80305 0.0
C589 C 0.88061 0.2126 0.62148 0.0
C590 C 0.87461 0.20068 0.47868 0.0
C591 C 0.84352 0.20766 0.53897 0.0
C592 C 0.88924 0.20697 0.55444 0.0
C593 C 0.85809 0.21391 0.61405 0.0
C594 C 0.85164 0.20078 0.4715 0.0
C595 C 0.86653 0.22894 0.75507 0.0
N596 N 0.89497 0.21831 0.69347 0.0
C597 C 0.88833 0.22678 0.75994 0.0
C598 C 0.85134 0.22248 0.68182 0.0
Tb599 Tb 0.93265 0.21879 0.6932 0.0
N600 N 0.912 0.2079 0.5633 0.0
C601 C 0.92093 0.2025 0.49712 0.0
C602 C 0.88346 0.19449 0.41213 0.0
C603 C 0.90657 0.19518 0.42159 0.0
H604 H 0.90005 0.23269 0.817 0.0
H605 H 0.91326 0.18981 0.37056 0.0
H606 H 0.84023 0.19603 0.41382 0.0
H607 H 0.86172 0.23603 0.80779 0.0
H608 H 0.93835 0.20204 0.50154 0.0
H609 H 0.04716 0.22777 0.88487 0.0
H610 H 0.8726 0.18915 0.35323 0.0
H611 H 0.90328 0.10605 0.73948 0.0
H612 H 0.00461 0.22148 0.87945 0.0
H613 H 0.90485 0.06494 0.6881 0.0
H614 H 0.82607 0.20833 0.53236 0.0
H615 H 0.05297 0.19143 0.81858 0.0
H616 H 0.03315 0.14393 0.74157 0.0
H617 H 0.83485 0.22493 0.67773 0.0
H618 H 0.99425 0.09964 0.68552 0.0
N619 N 0.98534 0.18176 0.80783 0.0
C620 C 0.00625 0.20522 0.84917 0.0
C621 C 0.03401 0.18856 0.81475 0.0
C622 C 0.0126 0.16417 0.77517 0.0
C623 C 0.03076 0.209 0.8528 0.0
C624 C 0.98825 0.16128 0.77343 0.0
H625 H 0.94624 0.0697 0.6674 0.0
N626 N 0.94359 0.1341 0.74768 0.0
C627 C 0.92231 0.08506 0.70187 0.0
C628 C 0.96655 0.1365 0.74223 0.0
C629 C 0.92156 0.10839 0.73142 0.0
C630 C 0.94572 0.08783 0.69028 0.0
C631 C 0.96829 0.11364 0.71206 0.0
O632 O 0.92373 0.1411 0.87253 0.0
O633 O 0.91926 0.19004 0.78021 0.0
O634 O 0.93541 0.22714 0.82252 0.0
O635 O 0.96445 0.21584 0.86923 0.0
O636 O 0.90161 0.14908 0.79361 0.0
O637 O 0.95848 0.17848 0.92426 0.0
O638 O 0.96829 0.25703 0.71134 0.0
O639 O 0.95976 0.20648 0.73173 0.0
O640 O 0.93374 0.15632 0.67628 0.0
O641 O 0.9103 0.17587 0.62655 0.0
O642 O 0.96236 0.2214 0.62393 0.0
O643 O 0.93327 0.25665 0.69486 0.0
C644 C 0.89734 0.16857 0.77901 0.0
C645 C 0.92623 0.15525 1.0062 0.0
C646 C 0.92038 0.18003 0.11597 0.0
C647 C 0.9317 0.18031 1.04801 0.0
C648 C 0.9029 0.15461 0.14107 0.0
C649 C 0.90857 0.12982 1.03114 0.0
C650 C 0.8968 0.12955 0.09803 0.0
C651 C 0.95601 0.23337 0.87176 0.0
C652 C 0.939 0.15505 0.93755 0.0
C653 C 0.99249 0.11686 0.70912 0.0
C654 C 0.01463 0.14209 0.74096 0.0
C655 C 0.97163 0.21067 0.67136 0.0
C656 C 0.97001 0.29695 0.66788 0.0
C657 C 0.96301 0.29517 0.58651 0.0
C658 C 0.97425 0.31903 0.54713 0.0
C659 C 0.99285 0.34481 0.58984 0.0
C660 C 0.98835 0.32283 0.71075 0.0
C661 C 0.9997 0.34668 0.67178 0.0
C662 C 0.91629 0.15606 0.6233 0.0
C663 C 0.95795 0.27216 0.70916 0.0
H664 H 0.94545 0.20009 1.0298 0.0
H665 H 0.89423 0.15424 0.1942 0.0
H666 H 0.90404 0.11022 0.99917 0.0
H667 H 0.88331 0.10993 0.11729 0.0
H668 H 0.94922 0.27498 0.55342 0.0
H669 H 1.00208 0.36325 0.55985 0.0
H670 H 0.99391 0.32455 0.77414 0.0
H671 H 0.01396 0.36657 0.70501 0.0
Tb672 Tb 0.84656 0.61429 0.73583 0.0
C673 C 0.91437 0.73651 0.85899 0.0
C674 C 0.95758 0.75209 0.83313 0.0
C675 C 0.94332 0.78525 0.84547 0.0
C676 C 0.93307 0.73058 0.84466 0.0
C677 C 0.91924 0.7639 0.85968 0.0
C678 C 0.96248 0.77937 0.83242 0.0
C679 C 0.87643 0.74717 0.89064 0.0
N680 N 0.89121 0.71516 0.87147 0.0
C681 C 0.87256 0.72038 0.89017 0.0
C682 C 0.89981 0.769 0.87498 0.0
Tb683 Tb 0.88822 0.6728 0.87861 0.0
N684 N 0.92763 0.70399 0.84626 0.0
C685 C 0.94655 0.69794 0.84166 0.0
C686 C 0.97668 0.74573 0.8256 0.0
C687 C 0.97118 0.71857 0.83058 0.0
H688 H 0.85439 0.7038 0.90256 0.0
H689 H 0.98594 0.71352 0.82662 0.0
H690 H 0.98114 0.79614 0.82312 0.0
H691 H 0.86139 0.75099 0.90347 0.0
H692 H 0.94272 0.67713 0.84682 0.0
H693 H 0.77774 0.6499 0.75012 0.0
H694 H 0.99582 0.76171 0.81746 0.0
H695 H 0.8374 0.55295 0.77645 0.0
H696 H 0.81992 0.65559 0.77781 0.0
H697 H 0.80138 0.50535 0.77293 0.0
H698 H 0.94741 0.80642 0.84539 0.0
H699 H 0.73966 0.60317 0.70657 0.0
H700 H 0.72104 0.55146 0.68448 0.0
H701 H 0.90274 0.78973 0.87555 0.0
H702 H 0.72725 0.5119 0.69919 0.0
N703 N 0.80764 0.61307 0.73798 0.0
C704 C 0.80423 0.63527 0.7532 0.0
C705 C 0.75851 0.60569 0.71596 0.0
C706 C 0.76151 0.58265 0.71112 0.0
C707 C 0.77993 0.63205 0.74012 0.0
C708 C 0.7865 0.58711 0.72495 0.0
H709 H 0.75698 0.49474 0.73797 0.0
N710 N 0.81414 0.5707 0.75389 0.0
C711 C 0.7978 0.52198 0.7626 0.0
C712 C 0.78989 0.56506 0.73426 0.0
C713 C 0.81829 0.54938 0.76673 0.0
C714 C 0.77281 0.51603 0.74219 0.0
C715 C 0.76859 0.53767 0.72736 0.0
O716 O 0.8609 0.59026 0.68853 0.0
O717 O 0.88618 0.64751 0.77448 0.0
O718 O 0.87632 0.68805 0.77679 0.0
O719 O 0.84528 0.64948 0.68644 0.0
O720 O 0.873 0.64029 0.65626 0.0
O721 O 0.82875 0.58999 0.62469 0.0
O722 O 0.88659 0.68336 0.998 0.0
O723 O 0.85307 0.63186 0.85655 0.0
O724 O 0.86363 0.60091 0.83298 0.0
O725 O 0.90065 0.64252 0.88453 0.0
O726 O 0.85243 0.66123 0.92896 0.0
O727 O 0.9188 0.68136 0.9661 0.0
C728 C 0.89302 0.65513 0.70768 0.0
C729 C 0.85855 0.58784 0.54969 0.0
C730 C 0.87818 0.61957 0.45185 0.0
C731 C 0.86038 0.60891 0.50545 0.0
C732 C 0.89169 0.60622 0.43442 0.0
C733 C 0.87228 0.57486 0.53237 0.0
C734 C 0.88835 0.58364 0.47357 0.0
C735 C 0.85915 0.67684 0.71155 0.0
C736 C 0.8457 0.58256 0.62134 0.0
C737 C 0.74383 0.53283 0.70632 0.0
C738 C 0.74031 0.55533 0.69751 0.0
C739 C 0.8388 0.63571 0.89817 0.0
C740 C 0.92757 0.72043 0.05466 0.0
C741 C 0.91865 0.732 0.10882 0.0
C742 C 0.93491 0.75884 0.15037 0.0
C743 C 0.95918 0.77574 0.12764 0.0
C744 C 0.95244 0.73716 1.0355 0.0
C745 C 0.96769 0.76498 0.06942 0.0
C746 C 0.88705 0.61495 0.87482 0.0
C747 C 0.91043 0.69103 1.01926 0.0
H748 H 0.84926 0.61851 0.51692 0.0
H749 H 0.90548 0.61376 0.39286 0.0
H750 H 0.87119 0.55859 0.56598 0.0
H751 H 0.89912 0.57377 0.46088 0.0
H752 H 0.8997 0.71879 0.12442 0.0
H753 H 0.97219 0.79637 0.15911 0.0
H754 H 0.9602 0.72886 0.99476 0.0
H755 H 0.98671 0.77776 0.05379 0.0
C756 C 0.08754 0.46127 0.88089 0.0
C757 C 0.07616 0.47324 0.92685 0.0
C758 C 0.08691 0.45993 0.79382 0.0
C759 C 0.07527 0.47162 0.74327 0.0
C760 C 0.06399 0.48405 0.78978 0.0
C761 C 0.06417 0.4842 0.87659 0.0
C762 C 0.09887 0.44508 0.75684 0.0
C763 C 0.05147 0.49797 0.74863 0.0
C764 C 0.09765 0.4849 0.52068 0.0
C765 C 0.07514 0.47048 0.46236 0.0
C766 C 0.09793 0.48586 0.60755 0.0
C767 C 0.07512 0.47111 0.64558 0.0
C768 C 0.05229 0.45594 0.5867 0.0
C769 C 0.05258 0.45628 0.50009 0.0
C770 C 0.12362 0.50361 0.65829 0.0
C771 C 0.02661 0.43833 0.61371 0.0
H772 H 0.09688 0.45207 0.91318 0.0
H773 H 0.05495 0.49374 0.90565 0.0
H774 H 0.09199 0.43826 0.69225 0.0
H775 H 0.11998 0.45925 0.76557 0.0
H776 H 0.09477 0.42651 0.78697 0.0
H777 H 0.05458 0.51632 0.78773 0.0
H778 H 0.05874 0.50488 0.69175 0.0
H779 H 0.0305 0.48308 0.73609 0.0
H780 H 0.11581 0.4964 0.49861 0.0
H781 H 0.03447 0.44446 0.4612 0.0
H782 H 0.13336 0.49153 0.66291 0.0
H783 H 0.12199 0.51033 0.71914 0.0
H784 H 0.13602 0.52245 0.63023 0.0
H785 H 0.02824 0.43273 0.67455 0.0
H786 H 0.01462 0.41884 0.57201 0.0
H787 H 0.01641 0.44997 0.61284 0.0
C788 C 0.60708 0.5084 0.77932 0.0
C789 C 0.6211 0.4997 0.8295 0.0
C790 C 0.60682 0.50843 0.69279 0.0
C791 C 0.62185 0.50068 0.64811 0.0
C792 C 0.63669 0.49269 0.69936 0.0
C793 C 0.63562 0.49165 0.78515 0.0
C794 C 0.58958 0.51677 0.64994 0.0
C795 C 0.65473 0.48547 0.66497 0.0
C796 C 0.61275 0.4765 0.40881 0.0
C797 C 0.62232 0.50093 0.36924 0.0
C798 C 0.61213 0.47602 0.49488 0.0
C799 C 0.62201 0.50083 0.55121 0.0
C800 C 0.63197 0.52572 0.51151 0.0
C801 C 0.63148 0.52535 0.42477 0.0
C802 C 0.60014 0.44787 0.5241 0.0
C803 C 0.64382 0.55378 0.56022 0.0
H804 H 0.59532 0.51466 0.80759 0.0
H805 H 0.64711 0.48499 0.81836 0.0
H806 H 0.59937 0.53984 0.65727 0.0
H807 H 0.5846 0.50899 0.58546 0.0
H808 H 0.57157 0.50885 0.67659 0.0
H809 H 0.64548 0.46247 0.65485 0.0
H810 H 0.66007 0.49396 0.60788 0.0
H811 H 0.67254 0.49355 0.70767 0.0
H812 H 0.60465 0.4569 0.37174 0.0
H813 H 0.63905 0.545 0.40046 0.0
H814 H 0.59325 0.44791 0.58228 0.0
H815 H 0.61453 0.44142 0.5304 0.0
H816 H 0.58376 0.43196 0.48014 0.0
H817 H 0.62945 0.56028 0.55918 0.0
H818 H 0.66036 0.56973 0.534 0.0
H819 H 0.65045 0.55361 0.62303 0.0
C820 C 0.60179 0.07439 0.59453 0.0
C821 C 0.57933 0.05946 0.63202 0.0
C822 C 0.60207 0.0746 0.50819 0.0
C823 C 0.57911 0.06062 0.44996 0.0
C824 C 0.55624 0.04606 0.48796 0.0
C825 C 0.5567 0.04519 0.57444 0.0
C826 C 0.62794 0.09007 0.48061 0.0
C827 C 0.53027 0.03122 0.438 0.0
C828 C 0.58799 0.086 0.22672 0.0
C829 C 0.57914 0.06178 0.17076 0.0
C830 C 0.58761 0.08593 0.31318 0.0
C831 C 0.57908 0.06109 0.35287 0.0
C832 C 0.5706 0.03666 0.2963 0.0
C833 C 0.57025 0.03726 0.20997 0.0
C834 C 0.59632 0.11343 0.36121 0.0
C835 C 0.56184 0.00885 0.32568 0.0
H836 H 0.61995 0.08587 0.63335 0.0
H837 H 0.53862 0.0335 0.59714 0.0
H838 H 0.62752 0.08293 0.41786 0.0
H839 H 0.63471 0.11263 0.48646 0.0
H840 H 0.64217 0.08757 0.51885 0.0
H841 H 0.5164 0.03408 0.4691 0.0
H842 H 0.53066 0.03858 0.37875 0.0
H843 H 0.52303 0.00855 0.42963 0.0
H844 H 0.59492 0.10563 0.20274 0.0
H845 H 0.56327 0.01779 0.17266 0.0
H846 H 0.61758 0.12587 0.37075 0.0
H847 H 0.58933 0.11098 0.41988 0.0
H848 H 0.58964 0.12552 0.328 0.0
H849 H 0.56791 0.99665 0.28952 0.0
H850 H 0.54059 0.99674 0.31831 0.0
H851 H 0.56936 0.01088 0.38915 0.0
C852 C 0.80841 0.92195 0.6731 0.0
C853 C 0.78566 0.90841 0.61588 0.0
C854 C 0.80893 0.92327 0.75999 0.0
C855 C 0.78613 0.90956 0.79876 0.0
C856 C 0.76308 0.89519 0.74066 0.0
C857 C 0.76317 0.89541 0.65418 0.0
C858 C 0.83489 0.94041 0.8096 0.0
C859 C 0.73733 0.87851 0.76814 0.0
C860 C 0.79907 0.90024 1.03379 0.0
C861 C 0.78701 0.91143 0.07927 0.0
C862 C 0.79841 0.89886 0.94686 0.0
C863 C 0.78641 0.91019 0.89632 0.0
C864 C 0.77468 0.92214 0.94265 0.0
C865 C 0.77455 0.92189 1.02916 0.0
C866 C 0.81064 0.88426 0.91017 0.0
C867 C 0.7622 0.93621 0.90208 0.0
H868 H 0.82651 0.93251 0.65005 0.0
H869 H 0.74493 0.88436 0.61575 0.0
H870 H 0.83382 0.94664 0.87167 0.0
H871 H 0.84454 0.92819 0.81053 0.0
H872 H 0.84711 0.95956 0.78244 0.0
H873 H 0.72494 0.85894 0.72709 0.0
H874 H 0.73873 0.87309 0.82931 0.0
H875 H 0.72765 0.8907 0.76625 0.0
H876 H 0.80874 0.89143 0.06629 0.0
H877 H 0.76489 0.9309 0.05818 0.0
H878 H 0.83174 0.89852 0.91962 0.0
H879 H 0.80395 0.8775 0.84548 0.0
H880 H 0.80654 0.86566 0.94011 0.0
H881 H 0.76869 0.94233 0.84381 0.0
H882 H 0.76631 0.95513 0.94053 0.0
H883 H 0.74112 0.92184 0.89286 0.0
C884 C 0.18293 0.79763 0.70299 0.0
C885 C 0.19625 0.78919 0.65199 0.0
C886 C 0.1826 0.79675 0.79031 0.0
C887 C 0.19674 0.78773 0.84149 0.0
C888 C 0.21043 0.77899 0.79093 0.0
C889 C 0.2094 0.779 0.70203 0.0
C890 C 0.16551 0.80509 0.8264 0.0
C891 C 0.22692 0.76913 0.83002 0.0
C892 C 0.20413 0.81041 0.0894 0.0
C893 C 0.19577 0.78613 0.13113 0.0
C894 C 0.20466 0.81127 1.00161 0.0
C895 C 0.19662 0.78719 0.9422 0.0
C896 C 0.18811 0.76258 0.98417 0.0
C897 C 0.1887 0.76266 0.0724 0.0
C898 C 0.21528 0.83959 0.97426 0.0
C899 C 0.17785 0.73472 0.93622 0.0
H900 H 0.17143 0.80491 0.6731 0.0
H901 H 0.21883 0.77008 0.67171 0.0
H902 H 0.16036 0.79694 0.88399 0.0
H903 H 0.17541 0.82816 0.83584 0.0
H904 H 0.14753 0.79749 0.78501 0.0
H905 H 0.24461 0.77651 0.80195 0.0
H906 H 0.23242 0.77637 0.89484 0.0
H907 H 0.21629 0.74602 0.82086 0.0
H908 H 0.2115 0.82998 0.12669 0.0
H909 H 0.18334 0.7432 0.09584 0.0
H910 H 0.20041 0.84538 0.97278 0.0
H911 H 0.22135 0.84035 0.91445 0.0
H912 H 0.23198 0.85553 1.01718 0.0
H913 H 0.17131 0.73442 0.87294 0.0
H914 H 0.16157 0.71817 0.96189 0.0
H915 H 0.19311 0.7295 0.93915 0.0
C916 C 0.24885 0.27227 0.72861 0.0
C917 C 0.27125 0.28163 0.69014 0.0
C918 C 0.24847 0.27221 0.81508 0.0
C919 C 0.27093 0.28062 0.87255 0.0
C920 C 0.29355 0.28953 0.83351 0.0
C921 C 0.29344 0.29031 0.74707 0.0
C922 C 0.22312 0.26314 0.84372 0.0
C923 C 0.31881 0.29824 0.88225 0.0
C924 C 0.2843 0.30423 0.11445 0.0
C925 C 0.27057 0.27963 0.15229 0.0
C926 C 0.28417 0.30492 1.02802 0.0
C927 C 0.27076 0.28022 0.9698 0.0
C928 C 0.25718 0.25519 1.00809 0.0
C929 C 0.25688 0.2553 0.09468 0.0
C930 C 0.29869 0.33319 1.00028 0.0
C931 C 0.24266 0.22715 0.95826 0.0
H932 H 0.23097 0.26522 0.69054 0.0
H933 H 0.31131 0.29727 0.72383 0.0
H934 H 0.21153 0.24004 0.83626 0.0
H935 H 0.2253 0.27101 0.90713 0.0
H936 H 0.2122 0.27044 0.8072 0.0
H937 H 0.33068 0.32132 0.89142 0.0
H938 H 0.31656 0.2904 0.94111 0.0
H939 H 0.32949 0.29063 0.84975 0.0
H940 H 0.2952 0.32383 0.15308 0.0
H941 H 0.24598 0.23554 0.11742 0.0
H942 H 0.29198 0.33318 0.93741 0.0
H943 H 0.31934 0.34011 1.00642 0.0
H944 H 0.29689 0.34876 1.03822 0.0
H945 H 0.22197 0.22007 0.9495 0.0
H946 H 0.24474 0.21147 0.9896 0.0
H947 H 0.24913 0.22759 0.89917 0.0
C948 C 0.46933 0.17175 0.2408 0.0
C949 C 0.48215 0.16071 0.28346 0.0
C950 C 0.46389 0.165 0.15784 0.0
C951 C 0.47653 0.15311 0.12033 0.0
C952 C 0.49899 0.15643 0.16324 0.0
C953 C 0.5019 0.16063 0.24693 0.0
C954 C 0.44249 0.16701 0.11352 0.0
C955 C 0.51728 0.15118 0.12281 0.0
C956 C 0.4274 0.08096 1.02072 0.0
C957 C 0.41962 0.08706 0.94948 0.0
C958 C 0.44801 0.10181 0.07384 0.0
C959 C 0.46142 0.12974 0.05487 0.0
C960 C 0.45558 0.13503 0.97788 0.0
C961 C 0.43434 0.11378 0.92678 0.0
C962 C 0.45249 0.09372 0.1535 0.0
C963 C 0.47088 0.16308 0.94948 0.0
H964 H 0.4587 0.17919 0.27096 0.0
H965 H 0.51643 0.15844 0.28127 0.0
H966 H 0.4336 0.17491 0.15366 0.0
H967 H 0.45017 0.18147 0.06825 0.0
H968 H 0.4273 0.14632 0.08249 0.0
H969 H 0.53726 0.16571 0.15197 0.0
H970 H 0.51299 0.12971 0.12866 0.0
H971 H 0.51592 0.15384 0.0587 0.0
H972 H 0.41603 0.06027 1.03793 0.0
H973 H 0.42874 0.11849 0.87049 0.0
H974 H 0.44269 0.09983 0.19449 0.0
H975 H 0.47306 0.10371 0.17619 0.0
H976 H 0.44407 0.07086 0.15194 0.0
H977 H 0.45884 0.17249 0.94201 0.0
H978 H 0.47599 0.16048 0.88983 0.0
H979 H 0.48871 0.17753 0.99056 0.0
C980 C 0.94235 0.29959 0.42644 0.0
C981 C 0.96811 0.31521 0.46006 0.0
C982 C 0.93501 0.28265 0.35385 0.0
C983 C 0.95422 0.28256 0.31306 0.0
C984 C 0.98047 0.30237 0.34048 0.0
C985 C 0.98709 0.31868 0.41408 0.0
C986 C 0.90674 0.26233 0.32727 0.0
C987 C 1.00204 0.30403 0.29952 0.0
C988 C 0.94223 0.21158 0.24072 0.0
C989 C 0.92895 0.20639 0.16469 0.0
C990 C 0.95139 0.23682 0.28816 0.0
C991 C 0.94712 0.25743 0.25817 0.0
C992 C 0.93382 0.2522 0.18022 0.0
C993 C 0.9252 0.22675 0.13395 0.0
C994 C 0.96513 0.24086 0.37096 0.0
C995 C 0.92767 0.27242 0.14474 0.0
H996 H 0.92784 0.29766 0.46221 0.0
H997 H 0.00709 0.3312 0.43999 0.0
H998 H 0.90032 0.26887 0.2741 0.0
H999 H 0.90283 0.24097 0.31084 0.0
H1000 H 0.89486 0.26146 0.37404 0.0
H1001 H 0.01432 0.32556 0.28521 0.0
H1002 H 0.0146 0.3 0.34085 0.0
H1003 H 0.99535 0.28925 0.24426 0.0
H1004 H 0.94548 0.19577 0.26298 0.0
H1005 H 0.91509 0.22255 0.07422 0.0
H1006 H 0.95845 0.25004 0.41567 0.0
H1007 H 0.98597 0.25516 0.37223 0.0
H1008 H 0.96248 0.22102 0.38932 0.0
H1009 H 0.93498 0.29204 0.18461 0.0
H1010 H 0.90657 0.26237 0.12988 0.0
H1011 H 0.93562 0.2773 0.08768 0.0
C1012 C 0.88953 0.65012 0.34293 0.0
C1013 C 0.88434 0.64614 0.421 0.0
C1014 C 0.8971 0.67581 0.31525 0.0
C1015 C 0.89931 0.69804 0.36677 0.0
C1016 C 0.89348 0.69397 0.44494 0.0
C1017 C 0.88604 0.66809 0.47113 0.0
C1018 C 0.90264 0.67897 0.23061 0.0
C1019 C 0.89525 0.71683 0.50149 0.0
C1020 C 0.94646 0.76366 0.29266 0.0
C1021 C 0.92967 0.76381 0.23121 0.0
C1022 C 0.93669 0.74365 0.3452 0.0
C1023 C 0.90982 0.72598 0.33997 0.0
C1024 C 0.8935 0.73271 0.29523 0.0
C1025 C 0.90396 0.7527 0.24243 0.0
C1026 C 0.95512 0.73837 0.39475 0.0
C1027 C 0.86485 0.71589 0.29315 0.0
H1028 H 0.88777 0.63315 0.30346 0.0
H1029 H 0.88228 0.66544 0.53187 0.0
H1030 H 0.88767 0.68117 0.19592 0.0
H1031 H 0.92153 0.69787 0.2285 0.0
H1032 H 0.90262 0.66072 0.20134 0.0
H1033 H 0.89923 0.71402 0.56386 0.0
H1034 H 0.91041 0.73787 0.4911 0.0
H1035 H 0.87664 0.71594 0.49378 0.0
H1036 H 0.96678 0.77408 0.28845 0.0
H1037 H 0.89114 0.75452 0.19817 0.0
H1038 H 0.97302 0.7583 0.41841 0.0
H1039 H 0.96035 0.72576 0.3567 0.0
H1040 H 0.9466 0.72684 0.44486 0.0
H1041 H 0.85697 0.69608 0.25332 0.0
H1042 H 0.85565 0.72727 0.27023 0.0
H1043 H 0.85977 0.71062 0.3533 0.0
C1044 C 0.24302 0.33615 0.28419 0.0
C1045 C 0.24468 0.32661 0.35766 0.0
C1046 C 0.23386 0.35449 0.27433 0.0
C1047 C 0.22497 0.36285 0.33863 0.0
C1048 C 0.22648 0.35312 0.4132 0.0
C1049 C 0.2364 0.33528 0.42194 0.0
C1050 C 0.23341 0.36464 0.19432 0.0
C1051 C 0.21681 0.36082 0.48311 0.0
C1052 C 0.22216 0.42924 0.32402 0.0
C1053 C 0.19682 0.41905 0.28785 0.0
C1054 C 0.23124 0.41134 0.34272 0.0
C1055 C 0.21459 0.38207 0.32732 0.0
C1056 C 0.18855 0.37147 0.29562 0.0
C1057 C 0.18005 0.38996 0.27589 0.0
C1058 C 0.25914 0.42395 0.37548 0.0
C1059 C 0.16979 0.34048 0.28004 0.0
H1060 H 0.24876 0.32897 0.23375 0.0
H1061 H 0.23678 0.32726 0.47815 0.0
H1062 H 0.21338 0.35725 0.16867 0.0
H1063 H 0.24406 0.38775 0.20138 0.0
H1064 H 0.24202 0.35727 0.1514 0.0
H1065 H 0.21976 0.35215 0.5374 0.0
H1066 H 0.22667 0.3838 0.49665 0.0
H1067 H 0.19604 0.35288 0.46796 0.0
H1068 H 0.23532 0.45153 0.33647 0.0
H1069 H 0.16047 0.38153 0.24839 0.0
H1070 H 0.26895 0.41937 0.33033 0.0
H1071 H 0.26116 0.41462 0.42929 0.0
H1072 H 0.2691 0.4469 0.39104 0.0
H1073 H 0.17483 0.3313 0.23031 0.0
H1074 H 0.14976 0.33546 0.26425 0.0
H1075 H 0.17086 0.33039 0.33323 0.0
C1076 C 0.68175 0.69742 0.20159 0.0
C1077 C 0.6997 0.68897 0.21205 0.0
C1078 C 0.68904 0.72548 0.22241 0.0
C1079 C 0.7148 0.7454 0.25456 0.0
C1080 C 0.73234 0.73634 0.27115 0.0
C1081 C 0.72461 0.70835 0.24948 0.0
C1082 C 0.66964 0.73416 0.20527 0.0
C1083 C 0.75989 0.75663 0.30636 0.0
C1084 C 0.74838 0.81928 0.20137 0.0
C1085 C 0.75174 0.835 0.27346 0.0
C1086 C 0.73492 0.79008 0.19326 0.0
C1087 C 0.72466 0.77602 0.2593 0.0
C1088 C 0.72679 0.79177 0.33126 0.0
C1089 C 0.74056 0.82116 0.33781 0.0
C1090 C 0.73308 0.77438 0.11515 0.0
C1091 C 0.7159 0.77782 0.40288 0.0
H1092 H 0.66249 0.68253 0.17265 0.0
H1093 H 0.73848 0.70183 0.25845 0.0
H1094 H 0.67017 0.74731 0.25776 0.0
H1095 H 0.67446 0.74692 0.15513 0.0
H1096 H 0.64986 0.71595 0.1893 0.0
H1097 H 0.77031 0.74589 0.32369 0.0
H1098 H 0.76994 0.77072 0.26209 0.0
H1099 H 0.76087 0.76977 0.3596 0.0
H1100 H 0.75715 0.83 0.15174 0.0
H1101 H 0.74347 0.83325 0.3941 0.0
H1102 H 0.71298 0.75755 0.09461 0.0
H1103 H 0.74471 0.76444 0.12347 0.0
H1104 H 0.74005 0.78818 0.06772 0.0
H1105 H 0.69718 0.75824 0.38508 0.0
H1106 H 0.71337 0.79173 0.44557 0.0
H1107 H 0.72924 0.77241 0.43399 0.0
C1108 C 0.44684 0.93872 1.04115 0.0
C1109 C 0.43873 0.92211 0.96711 0.0
C1110 C 0.43131 0.93095 0.10228 0.0
C1111 C 0.40697 0.90604 0.08913 0.0
C1112 C 0.3982 0.88991 1.01336 0.0
C1113 C 0.41409 0.89816 0.95346 0.0
C1114 C 0.44136 0.94889 0.18191 0.0
C1115 C 0.37234 0.86333 0.99631 0.0
C1116 C 0.37861 0.86712 0.26435 0.0
C1117 C 0.35968 0.87357 0.27602 0.0
C1118 C 0.39436 0.87795 0.20484 0.0
C1119 C 0.39128 0.89581 0.15556 0.0
C1120 C 0.37248 0.90276 0.16772 0.0
C1121 C 0.35688 0.89151 0.22753 0.0
C1122 C 0.41401 0.8698 0.19366 0.0
C1123 C 0.36868 0.92187 0.11703 0.0
H1124 H 0.46574 0.95728 0.05248 0.0
H1125 H 0.40732 0.88552 0.89594 0.0
H1126 H 0.42709 0.9539 0.20054 0.0
H1127 H 0.4445 0.93729 0.22779 0.0
H1128 H 0.45971 0.96866 0.18075 0.0
H1129 H 0.36774 0.85396 0.93314 0.0
H1130 H 0.37196 0.8479 1.03483 0.0
H1131 H 0.35708 0.86737 1.01049 0.0
H1132 H 0.38075 0.85305 0.30076 0.0
H1133 H 0.34257 0.89694 0.23677 0.0
H1134 H 0.43333 0.88871 0.19787 0.0
H1135 H 0.40957 0.85829 0.1334 0.0
H1136 H 0.41463 0.85649 0.23853 0.0
H1137 H 0.387 0.94196 0.11986 0.0
H1138 H 0.35398 0.92616 0.13605 0.0
H1139 H 0.36268 0.9124 0.05387 0.0
C1140 C 0.5262 0.07754 0.78846 0.0
C1141 C 0.53348 0.08158 0.87098 0.0
C1142 C 0.50608 0.08096 0.75463 0.0
C1143 C 0.49204 0.0881 0.8036 0.0
C1144 C 0.49957 0.09219 0.88727 0.0
C1145 C 0.52003 0.08908 0.9196 0.0
C1146 C 0.49991 0.07664 0.66602 0.0
C1147 C 0.4856 0.09926 0.94334 0.0
C1148 C 0.45043 0.11857 0.72802 0.0
C1149 C 0.42531 0.09518 0.71429 0.0
C1150 C 0.47214 0.1164 0.75299 0.0
C1151 C 0.46912 0.09036 0.76881 0.0
C1152 C 0.44371 0.06677 0.7565 0.0
C1153 C 0.42241 0.06945 0.72975 0.0
C1154 C 0.49845 0.14225 0.76352 0.0
C1155 C 0.43885 0.03863 0.77414 0.0
H1156 H 0.53574 0.07078 0.75005 0.0
H1157 H 0.52494 0.09153 0.98369 0.0
H1158 H 0.4791 0.06188 0.64837 0.0
H1159 H 0.5053 0.09709 0.64595 0.0
H1160 H 0.51054 0.06838 0.63614 0.0
H1161 H 0.49087 0.0976 1.00612 0.0
H1162 H 0.49029 0.12086 0.93832 0.0
H1163 H 0.46467 0.08515 0.92664 0.0
H1164 H 0.45328 0.13881 0.71951 0.0
H1165 H 0.40322 0.05133 0.72228 0.0
H1166 H 0.51107 0.13865 0.72791 0.0
H1167 H 0.50719 0.14706 0.82684 0.0
H1168 H 0.49796 0.16063 0.74506 0.0
H1169 H 0.45057 0.03283 0.74076 0.0
H1170 H 0.41835 0.02205 0.75837 0.0
H1171 H 0.44471 0.03955 0.83852 0.0
C1172 C 0.96388 0.28145 0.90892 0.0
C1173 C 0.97068 0.26141 0.92173 0.0
C1174 C 0.97862 0.30898 0.94748 0.0
C1175 C 1.00021 0.3169 1.00487 0.0
C1176 C 0.00674 0.29647 1.02032 0.0
C1177 C 0.99223 0.26924 0.9779 0.0
C1178 C 0.97082 0.32946 0.92586 0.0
C1179 C 0.02925 0.30351 0.08147 0.0
C1180 C 0.05045 0.395 0.06558 0.0
C1181 C 0.04415 0.40051 0.13937 0.0
C1182 C 0.03661 0.36807 1.02161 0.0
C1183 C 0.01535 0.34604 1.05056 0.0
C1184 C 0.0086 0.35196 0.12389 0.0
C1185 C 0.02363 0.37857 0.1688 0.0
C1186 C 0.04469 0.36324 0.94385 0.0
C1187 C 0.98454 0.33064 0.15276 0.0
H1188 H 0.94719 0.27589 0.86666 0.0
H1189 H 0.99778 0.25409 0.98884 0.0
H1190 H 0.9608 0.33228 0.97327 0.0
H1191 H 0.98784 0.34989 0.92038 0.0
H1192 H 0.95759 0.32209 0.86884 0.0
H1193 H 0.03157 0.28534 0.08847 0.0
H1194 H 0.04709 0.32061 0.06392 0.0
H1195 H 0.02681 0.31108 0.13999 0.0
H1196 H 0.06661 0.41168 1.04295 0.0
H1197 H 0.01879 0.3825 0.22605 0.0
H1198 H 0.02887 0.35668 0.89448 0.0
H1199 H 0.04875 0.34612 0.94567 0.0
H1200 H 0.06198 0.38219 0.93033 0.0
H1201 H 0.96785 0.32805 0.11341 0.0
H1202 H 0.98323 0.33693 0.21457 0.0
H1203 H 0.9831 0.31013 0.14866 0.0
C1204 C 0.79713 0.62708 0.93829 0.0
C1205 C 0.81221 0.61604 0.91718 0.0
C1206 C 0.77276 0.61041 0.9618 0.0
C1207 C 0.76281 0.58162 0.9661 0.0
C1208 C 0.7779 0.57021 0.9447 0.0
C1209 C 0.80248 0.58756 0.92182 0.0
C1210 C 0.75774 0.62384 0.98328 0.0
C1211 C 0.76812 0.53966 0.94664 0.0
C1212 C 0.71331 0.54981 0.11119 0.0
C1213 C 0.68973 0.53744 0.06117 0.0
C1214 C 0.73696 0.56294 0.0808 0.0
C1215 C 0.73747 0.56432 0.99773 0.0
C1216 C 0.7136 0.55143 0.94686 0.0
C1217 C 0.69021 0.53838 0.97898 0.0
C1218 C 0.76151 0.57651 0.13838 0.0
C1219 C 0.71258 0.55146 0.85816 0.0
H1220 H 0.8045 0.64911 0.93636 0.0
H1221 H 0.8143 0.57896 0.90951 0.0
H1222 H 0.73867 0.61295 0.94602 0.0
H1223 H 0.75448 0.62189 1.04637 0.0
H1224 H 0.7677 0.64626 0.97502 0.0
H1225 H 0.78207 0.53388 0.92942 0.0
H1226 H 0.76385 0.53401 1.00718 0.0
H1227 H 0.74993 0.52714 0.90522 0.0
H1228 H 0.71324 0.54983 0.17498 0.0
H1229 H 0.67235 0.52972 0.93972 0.0
H1230 H 0.77178 0.59942 0.13788 0.0
H1231 H 0.77432 0.56927 0.11987 0.0
H1232 H 0.75804 0.57197 0.20027 0.0
H1233 H 0.72669 0.57226 0.84299 0.0
H1234 H 0.69324 0.54536 0.82826 0.0
H1235 H 0.71748 0.5362 0.83444 0.0
C1236 C 0.92584 0.61559 0.94003 0.0
C1237 C 0.89974 0.60016 0.90762 0.0
C1238 C 0.93868 0.60259 0.97063 0.0
C1239 C 0.92528 0.57328 0.96888 0.0
C1240 C 0.89897 0.5575 0.93619 0.0
C1241 C 0.8865 0.57112 0.90638 0.0
C1242 C 0.96662 0.62033 1.00553 0.0
C1243 C 0.88391 0.5262 0.93318 0.0
C1244 C 0.96294 0.53601 0.98981 0.0
C1245 C 0.96148 0.53047 0.06911 0.0
C1246 C 0.95152 0.55019 0.95651 0.0
C1247 C 0.93857 0.5593 1.00389 0.0
C1248 C 0.9381 0.55482 0.08503 0.0
C1249 C 0.94939 0.54037 0.11637 0.0
C1250 C 0.95246 0.55448 0.86981 0.0
C1251 C 0.92501 0.5646 0.13832 0.0
H1252 H 0.93647 0.63805 0.94157 0.0
H1253 H 0.86636 0.55896 0.88285 0.0
H1254 H 0.9691 0.61754 0.06914 0.0
H1255 H 0.97812 0.61364 0.97429 0.0
H1256 H 0.97444 0.64284 1.0013 0.0
H1257 H 0.86391 0.51681 0.90319 0.0
H1258 H 0.89345 0.51704 0.90109 0.0
H1259 H 0.88337 0.52037 0.99451 0.0
H1260 H 0.97192 0.52804 0.95277 0.0
H1261 H 0.9482 0.53609 0.17772 0.0
H1262 H 0.96057 0.57685 0.86329 0.0
H1263 H 0.93274 0.54295 0.83673 0.0
H1264 H 0.96413 0.54723 0.84186 0.0
H1265 H 0.9328 0.58724 0.13747 0.0
H1266 H 0.92741 0.5607 0.20093 0.0
H1267 H 0.90423 0.5537 0.11589 0.0
C1268 C 0.52033 0.31087 0.91578 0.0
C1269 C 0.54234 0.31213 0.95413 0.0
C1270 C 0.49999 0.28599 0.87179 0.0
C1271 C 0.50092 0.26121 0.86867 0.0
C1272 C 0.5229 0.26223 0.90737 0.0
C1273 C 0.54344 0.2876 0.94706 0.0
C1274 C 0.47773 0.28636 0.82706 0.0
C1275 C 0.52519 0.23666 0.90631 0.0
C1276 C 0.43784 0.19127 0.81559 0.0
C1277 C 0.43965 0.18252 0.73838 0.0
C1278 C 0.45762 0.21662 0.85878 0.0
C1279 C 0.47939 0.23444 0.82299 0.0
C1280 C 0.48121 0.22584 0.74499 0.0
C1281 C 0.46182 0.19977 0.70516 0.0
C1282 C 0.45565 0.22384 0.94385 0.0
C1283 C 0.50374 0.24389 0.70312 0.0
H1284 H 0.51877 0.32924 0.92011 0.0
H1285 H 0.56051 0.28797 0.97215 0.0
H1286 H 0.47524 0.2787 0.76318 0.0
H1287 H 0.45976 0.27214 0.85033 0.0
H1288 H 0.48044 0.30754 0.83168 0.0
H1289 H 0.53858 0.23843 0.95818 0.0
H1290 H 0.50637 0.21749 0.90664 0.0
H1291 H 0.53282 0.23431 0.85151 0.0
H1292 H 0.42114 0.17806 0.84322 0.0
H1293 H 0.46416 0.19311 0.64756 0.0
H1294 H 0.45634 0.24397 0.95093 0.0
H1295 H 0.47227 0.22634 0.98378 0.0
H1296 H 0.43774 0.2076 0.96361 0.0
H1297 H 0.51077 0.26635 0.7184 0.0
H1298 H 0.49874 0.23867 0.63742 0.0
H1299 H 0.51963 0.24039 0.72152 0.0
C1300 C 0.85141 0.15181 0.72395 0.0
C1301 C 0.87208 0.1664 0.78561 0.0
C1302 C 0.82641 0.14596 0.73341 0.0
C1303 C 0.82147 0.15432 0.80721 0.0
C1304 C 0.84254 0.16955 0.86922 0.0
C1305 C 0.86733 0.17514 0.85798 0.0
C1306 C 0.80504 0.12979 0.66509 0.0
C1307 C 0.83874 0.1792 0.94885 0.0
C1308 C 0.75862 0.15363 0.83125 0.0
C1309 C 0.74472 0.12933 0.86701 0.0
C1310 C 0.78307 0.16161 0.80922 0.0
C1311 C 0.7942 0.14498 0.82255 0.0
C1312 C 0.7795 0.11965 0.85471 0.0
C1313 C 0.75524 0.11224 0.87632 0.0
C1314 C 0.79729 0.18833 0.7736 0.0
C1315 C 0.78987 0.10076 0.86961 0.0
H1316 H 0.8547 0.14443 0.66849 0.0
H1317 H 0.883 0.18585 0.90669 0.0
H1318 H 0.79124 0.10897 0.68109 0.0
H1319 H 0.79441 0.14062 0.65303 0.0
H1320 H 0.81223 0.1269 0.60967 0.0
H1321 H 0.85714 0.19245 0.98896 0.0
H1322 H 0.829 0.19118 0.94052 0.0
H1323 H 0.8262 0.16086 0.97839 0.0
H1324 H 0.75099 0.16719 0.82432 0.0
H1325 H 0.74477 0.09335 0.90369 0.0
H1326 H 0.80073 0.18365 0.71327 0.0
H1327 H 0.8161 0.20231 0.81056 0.0
H1328 H 0.78658 0.19941 0.76873 0.0
H1329 H 0.79584 0.09563 0.81444 0.0
H1330 H 0.7756 0.08103 0.89031 0.0
H1331 H 0.80711 0.11163 0.91543 0.0
C1332 C 0.63363 0.02699 0.95072 0.0
C1333 C 0.6166 0.03082 0.99168 0.0
C1334 C 0.64649 0.01438 0.9842 0.0
C1335 C 0.64297 0.00649 0.06188 0.0
C1336 C 0.62468 0.00901 0.10145 0.0
C1337 C 0.61195 0.02139 0.0661 0.0
C1338 C 0.66537 0.01168 0.93893 0.0
C1339 C 0.62028 0.00109 0.18434 0.0
C1340 C 0.67195 0.9673 0.15933 0.0
C1341 C 0.69438 0.98926 0.20493 0.0
C1342 C 0.65537 0.9725 0.11021 0.0
C1343 C 0.66122 1.00026 0.10708 0.0
C1344 C 0.68423 0.02249 0.15087 0.0
C1345 C 0.70052 0.01673 0.19855 0.0
C1346 C 0.63133 0.94833 0.06296 0.0
C1347 C 0.6914 0.05246 0.14895 0.0
H1348 H 0.63809 0.03537 0.89462 0.0
H1349 H 0.59941 0.02515 0.09884 0.0
H1350 H 0.685 0.02936 0.961 0.0
H1351 H 0.66505 0.99211 0.94793 0.0
H1352 H 0.66131 0.01207 0.8741 0.0
H1353 H 0.60303 1.00065 0.20198 0.0
H1354 H 0.61801 0.98036 0.18879 0.0
H1355 H 0.63718 0.01649 0.22747 0.0
H1356 H 0.66696 0.946 0.16376 0.0
H1357 H 0.7181 0.03391 0.23167 0.0
H1358 H 0.63024 0.95172 0.99942 0.0
H1359 H 0.61424 0.94686 0.08515 0.0
H1360 H 0.63045 0.92819 0.06694 0.0
H1361 H 0.69274 0.05761 0.08693 0.0
H1362 H 0.70998 0.06734 0.18631 0.0
H1363 H 0.67631 0.05555 0.17044 0.0
C1364 C 0.18188 0.6901 0.3631 0.0
C1365 C 0.16618 0.70168 0.35544 0.0
C1366 C 0.17219 0.66128 0.34323 0.0
C1367 C 0.14573 0.64272 0.31595 0.0
C1368 C 0.12958 0.65411 0.3093 0.0
C1369 C 0.13989 0.68317 0.32899 0.0
C1370 C 0.19039 0.65065 0.35241 0.0
C1371 C 0.10124 0.63547 0.28161 0.0
C1372 C 0.1199 0.56837 0.20856 0.0
C1373 C 0.11092 0.55176 0.27031 0.0
C1374 C 0.13204 0.59792 0.22274 0.0
C1375 C 0.13471 0.61138 0.29997 0.0
C1376 C 0.12612 0.59456 0.3624 0.0
C1377 C 0.11436 0.56533 0.34676 0.0
C1378 C 0.14129 0.61468 0.15432 0.0
C1379 C 0.12836 0.60733 0.44571 0.0
H1380 H 0.20194 0.70356 0.3858 0.0
H1381 H 0.12726 0.69137 0.32299 0.0
H1382 H 0.18551 0.63688 0.40012 0.0
H1383 H 0.18845 0.63804 0.29649 0.0
H1384 H 0.21068 0.66781 0.36769 0.0
H1385 H 0.09126 0.64734 0.27716 0.0
H1386 H 0.09801 0.62378 0.22249 0.0
H1387 H 0.09245 0.6199 0.32364 0.0
H1388 H 0.11665 0.55824 0.14873 0.0
H1389 H 0.10692 0.55274 0.39456 0.0
H1390 H 0.16151 0.63181 0.17099 0.0
H1391 H 0.12971 0.62437 0.14037 0.0
H1392 H 0.13989 0.6017 0.0999 0.0
H1393 H 0.14851 0.62385 0.46718 0.0
H1394 H 0.12184 0.59169 0.48851 0.0
H1395 H 0.11667 0.6173 0.44553 0.0
C1396 C 0.52902 0.45133 0.07999 0.0
C1397 C 0.55265 0.4627 0.12905 0.0
C1398 C 0.50554 0.43902 0.11159 0.0
C1399 C 0.50536 0.43767 0.19478 0.0
C1400 C 0.52924 0.44905 0.24456 0.0
C1401 C 0.55239 0.46102 0.21119 0.0
C1402 C 0.48086 0.4274 0.05569 0.0
C1403 C 0.53039 0.44861 0.33347 0.0
C1404 C 0.44841 0.43112 0.2914 0.0
C1405 C 0.43525 0.4032 0.30704 0.0
C1406 C 0.47063 0.44225 0.25382 0.0
C1407 C 0.4804 0.42523 0.22998 0.0
C1408 C 0.46654 0.39662 0.24197 0.0
C1409 C 0.44422 0.38597 0.2802 0.0
C1410 C 0.48429 0.47274 0.24337 0.0
C1411 C 0.47575 0.37741 0.21653 0.0
H1412 H 0.52891 0.45196 1.01632 0.0
H1413 H 0.57029 0.46879 0.2496 0.0
H1414 H 0.46784 0.40512 0.06212 0.0
H1415 H 0.47096 0.43863 0.07126 0.0
H1416 H 0.48404 0.42921 0.99245 0.0
H1417 H 0.55033 0.45809 0.36412 0.0
H1418 H 0.52176 0.46015 0.35831 0.0
H1419 H 0.51902 0.42684 0.34702 0.0
H1420 H 0.44164 0.44469 0.31077 0.0
H1421 H 0.43446 0.36447 0.29204 0.0
H1422 H 0.49021 0.47599 0.18333 0.0
H1423 H 0.5018 0.48413 0.28797 0.0
H1424 H 0.4722 0.48194 0.25198 0.0
H1425 H 0.47851 0.37836 0.1529 0.0
H1426 H 0.46215 0.35546 0.22495 0.0
H1427 H 0.4946 0.38429 0.25159 0.0
C1428 C 0.83172 0.68965 0.62493 0.0
C1429 C 0.85548 0.69689 0.66707 0.0
C1430 C 0.82747 0.71027 0.59625 0.0
C1431 C 0.84751 0.73868 0.60947 0.0
C1432 C 0.87196 0.74564 0.64686 0.0
C1433 C 0.87555 0.72477 0.67506 0.0
C1434 C 0.80118 0.70187 0.55581 0.0
C1435 C 0.89416 0.7754 0.66105 0.0
C1436 C 0.84731 0.79798 0.51101 0.0
C1437 C 0.84167 0.81101 0.57263 0.0
C1438 C 0.84781 0.77342 0.51998 0.0
C1439 C 0.84267 0.76162 0.59241 0.0
C1440 C 0.83578 0.77392 0.65314 0.0
C1441 C 0.83522 0.79823 0.64235 0.0
C1442 C 0.85511 0.76092 0.45352 0.0
C1443 C 0.83029 0.76223 0.73154 0.0
H1444 H 0.8161 0.66817 0.61791 0.0
H1445 H 0.89428 0.73044 0.70423 0.0
H1446 H 0.79178 0.70898 0.59612 0.0
H1447 H 0.80258 0.71198 0.50088 0.0
H1448 H 0.7888 0.67893 0.54018 0.0
H1449 H 0.91258 0.77685 0.68188 0.0
H1450 H 0.89619 0.78545 0.60582 0.0
H1451 H 0.8905 0.78743 0.70681 0.0
H1452 H 0.85239 0.80759 0.45692 0.0
H1453 H 0.83018 0.80758 0.68961 0.0
H1454 H 0.84178 0.73804 0.44199 0.0
H1455 H 0.87459 0.76462 0.47118 0.0
H1456 H 0.85504 0.77006 0.39738 0.0
H1457 H 0.81608 0.73954 0.72129 0.0
H1458 H 0.82292 0.77256 0.76973 0.0
H1459 H 0.84815 0.7651 0.7644 0.0
C1460 C 0.29787 0.01605 0.49569 0.0
C1461 C 0.32427 0.02639 0.51471 0.0
C1462 C 0.27962 0.98701 0.48032 0.0
C1463 C 0.28755 0.96727 0.48593 0.0
C1464 C 0.3142 0.97766 0.50618 0.0
C1465 C 0.33208 0.0068 0.5191 0.0
C1466 C 0.25176 0.97745 0.45691 0.0
C1467 C 0.32388 0.95791 0.51512 0.0
C1468 C 0.23804 0.89051 0.51046 0.0
C1469 C 0.23426 0.87639 0.43463 0.0
C1470 C 0.2551 0.91984 0.52802 0.0
C1471 C 0.2683 0.93595 0.46793 0.0
C1472 C 0.26359 0.92178 0.39049 0.0
C1473 C 0.24716 0.89246 0.37539 0.0
C1474 C 0.25977 0.93346 0.61197 0.0
C1475 C 0.27626 0.93758 0.32329 0.0
H1476 H 0.29145 0.03077 0.49167 0.0
H1477 H 0.35228 0.01428 0.53478 0.0
H1478 H 0.2447 0.96477 0.39756 0.0
H1479 H 0.24011 0.96395 0.4999 0.0
H1480 H 0.24854 0.99518 0.45458 0.0
H1481 H 0.34483 0.96903 0.5355 0.0
H1482 H 0.31379 0.94343 0.55853 0.0
H1483 H 0.31972 0.94507 0.45737 0.0
H1484 H 0.22858 0.87845 0.5572 0.0
H1485 H 0.24449 0.88197 0.31651 0.0
H1486 H 0.25562 0.95053 0.61231 0.0
H1487 H 0.28027 0.94294 0.63663 0.0
H1488 H 0.24785 0.91844 0.65175 0.0
H1489 H 0.27295 0.95515 0.31828 0.0
H1490 H 0.26903 0.92409 0.26516 0.0
H1491 H 0.29726 0.94659 0.33581 0.0
C1492 C 0.99422 0.19197 0.59561 0.0
C1493 C 0.99526 0.21012 0.6584 0.0
C1494 C 0.01674 0.19538 0.56843 0.0
C1495 C 0.04126 0.21754 0.60481 0.0
C1496 C 0.04235 0.23527 0.67032 0.0
C1497 C 0.01948 0.23195 0.69426 0.0
C1498 C 0.01417 0.17631 0.49719 0.0
C1499 C 0.06775 0.25844 0.71371 0.0
C1500 C 0.10126 0.21738 0.5484 0.0
C1501 C 0.10937 0.23636 0.49177 0.0
C1502 C 0.07961 0.2114 0.58679 0.0
C1503 C 0.06525 0.22432 0.56802 0.0
C1504 C 0.07372 0.24392 0.51238 0.0
C1505 C 0.09571 0.25008 0.47694 0.0
C1506 C 0.07227 0.19133 0.64798 0.0
C1507 C 0.05912 0.25801 0.48829 0.0
H1508 H 0.97561 0.17581 0.56503 0.0
H1509 H 0.02054 0.24692 0.7402 0.0
H1510 H 0.02651 0.16745 0.5101 0.0
H1511 H 0.99409 0.1589 0.47919 0.0
H1512 H 0.02075 0.18842 0.4462 0.0
H1513 H 0.06556 0.26775 0.76984 0.0
H1514 H 0.08076 0.25049 0.72804 0.0
H1515 H 0.07703 0.27508 0.67511 0.0
H1516 H 0.11141 0.20662 0.56149 0.0
H1517 H 0.10201 0.26567 0.43625 0.0
H1518 H 0.05138 0.17609 0.63785 0.0
H1519 H 0.077 0.20316 0.70783 0.0
H1520 H 0.08261 0.17982 0.64758 0.0
H1521 H 0.0388 0.2421 0.46602 0.0
H1522 H 0.06731 0.2716 0.44115 0.0
H1523 H 0.05924 0.27089 0.54061 0.0
C1524 C 0.32357 0.13467 0.52674 0.0
C1525 C 0.34966 0.1469 0.51841 0.0
C1526 C 0.31055 0.14964 0.51693 0.0
C1527 C 0.3236 0.17737 0.49623 0.0
C1528 C 0.34994 0.18964 0.48852 0.0
C1529 C 0.36235 0.17441 0.4991 0.0
C1530 C 0.28263 0.13552 0.52676 0.0
C1531 C 0.36511 0.2189 0.467 0.0
C1532 C 0.29179 0.21152 0.38002 0.0
C1533 C 0.29289 0.23108 0.43838 0.0
C1534 C 0.29981 0.19261 0.39901 0.0
C1535 C 0.31007 0.19348 0.47841 0.0
C1536 C 0.3106 0.21281 0.53795 0.0
C1537 C 0.30237 0.23144 0.51727 0.0
C1538 C 0.29861 0.17268 0.33275 0.0
C1539 C 0.321 0.21474 0.62333 0.0
H1540 H 0.31314 0.1132 0.53845 0.0
H1541 H 0.38241 0.18421 0.49164 0.0
H1542 H 0.27938 0.14894 0.56883 0.0
H1543 H 0.27106 0.1323 0.46867 0.0
H1544 H 0.27564 0.11501 0.54899 0.0
H1545 H 0.3856 0.22587 0.46553 0.0
H1546 H 0.35677 0.22004 0.4076 0.0
H1547 H 0.36405 0.23368 0.5106 0.0
H1548 H 0.28531 0.21156 0.31853 0.0
H1549 H 0.30419 0.24704 0.5626 0.0
H1550 H 0.28986 0.15135 0.35019 0.0
H1551 H 0.31832 0.17917 0.32122 0.0
H1552 H 0.28738 0.17203 0.27663 0.0
H1553 H 0.31172 0.19373 0.64303 0.0
H1554 H 0.31787 0.22866 0.66394 0.0
H1555 H 0.34186 0.22282 0.62846 0.0
C1556 C 0.82684 0.99768 0.50594 0.0
C1557 C 0.82241 0.98439 0.42867 0.0
C1558 C 0.84303 0.02669 0.52509 0.0
C1559 C 0.85443 0.04355 0.46458 0.0
C1560 C 0.84991 0.03022 0.38579 0.0
C1561 C 0.83418 1.0008 0.36897 0.0
C1562 C 0.84684 0.03895 0.61038 0.0
C1563 C 0.86012 0.04692 0.31777 0.0
C1564 C 0.87547 0.11925 0.5358 0.0
C1565 C 0.90157 0.13057 0.56337 0.0
C1566 C 0.86019 0.09164 0.4968 0.0
C1567 C 0.87116 0.07483 0.48545 0.0
C1568 C 0.898 0.08733 0.50616 0.0
C1569 C 0.9128 0.11495 0.54374 0.0
C1570 C 0.83197 0.07991 0.47235 0.0
C1571 C 0.91082 0.07071 0.49616 0.0
H1572 H 0.81736 0.9852 0.55207 0.0
H1573 H 0.8301 0.99082 0.30845 0.0
H1574 H 0.83079 0.04226 0.61935 0.0
H1575 H 0.84656 0.02438 0.65224 0.0
H1576 H 0.86502 0.05919 0.62643 0.0
H1577 H 0.86098 0.03414 0.26694 0.0
H1578 H 0.8471 0.05425 0.29675 0.0
H1579 H 0.87943 0.0656 0.33615 0.0
H1580 H 0.86661 0.13126 0.54891 0.0
H1581 H 0.93308 0.12369 0.56287 0.0
H1582 H 0.8211 0.0666 0.51695 0.0
H1583 H 0.82531 0.06672 0.41385 0.0
H1584 H 0.82744 0.09666 0.46859 0.0
H1585 H 0.90423 0.05488 0.53824 0.0
H1586 H 0.93205 0.0839 0.50843 0.0
H1587 H 0.90535 0.05957 0.43502 0.0
C1588 C 0.93104 0.65303 0.67265 0.0
C1589 C 0.91907 0.66843 0.68328 0.0
C1590 C 0.95389 0.66387 0.63799 0.0
C1591 C 0.96504 0.69072 0.61212 0.0
C1592 C 0.95339 0.70671 0.62571 0.0
C1593 C 0.9304 0.69516 0.65955 0.0
C1594 C 0.96575 0.64622 0.62755 0.0
C1595 C 0.96515 0.7363 0.60655 0.0
C1596 C 0.03332 0.72895 0.55445 0.0
C1597 C 0.02874 0.72165 0.4713 0.0
C1598 C 0.01304 0.71864 0.60122 0.0
C1599 C 0.98727 0.70086 0.56458 0.0
C1600 C 0.98256 0.69324 0.48101 0.0
C1601 C 0.00315 0.70316 0.43618 0.0
C1602 C 0.01916 0.72716 0.68992 0.0
C1603 C 0.95561 0.67456 0.43826 0.0
H1604 H 0.9221 0.63213 0.68948 0.0
H1605 H 0.92138 0.70725 0.66858 0.0
H1606 H 0.96228 0.63796 0.56384 0.0
H1607 H 0.9868 0.65891 0.64586 0.0
H1608 H 0.95759 0.6283 0.66266 0.0
H1609 H 0.95013 0.74119 0.58825 0.0
H1610 H 0.97706 0.75072 0.66089 0.0
H1611 H 0.97771 0.74078 0.55967 0.0
H1612 H 0.05273 0.7433 0.58315 0.0
H1613 H 0.99899 0.69634 0.3728 0.0
H1614 H 0.00996 0.70846 0.72153 0.0
H1615 H 0.01131 0.74045 0.70648 0.0
H1616 H 0.04011 0.73895 0.7107 0.0
H1617 H 0.95464 0.67446 0.37263 0.0
H1618 H 0.94258 0.68113 0.45901 0.0
H1619 H 0.94838 0.65295 0.45176 0.0
loop_
_geom_bond_atom_site_label_1
_geom_bond_atom_site_label_2
_geom_bond_distance
_geom_bond_site_symmetry_2
_ccdc_geom_bond_type
Tb0 N31 2.660 . S
Tb0 N38 2.600 . S
Tb0 O44 2.546 . S
Tb0 O45 2.610 . S
Tb0 O47 2.320 . S
Tb0 O48 2.552 . S
Tb0 O49 2.413 . S
Tb0 O51 2.362 . S
Tb0 O52 2.421 . S
Tb0 C64 2.833 . S
C1 C4 1.432 . S
C1 C5 1.414 . S
C1 N8 1.359 . S
C2 C4 1.417 . S
C2 C6 1.432 . S
C2 C14 1.412 . S
C3 C5 1.444 . S
C3 C6 1.317 . S
C3 H26 0.929 . S
C4 C1 1.432 . S
C4 C2 1.417 . S
C4 N12 1.360 . S
C5 C1 1.414 . S
C5 C3 1.444 . S
C5 C10 1.385 . S
C6 C2 1.432 . S
C6 C3 1.317 . S
C6 H18 0.930 . S
C7 C9 1.392 . S
C7 C10 1.370 . S
C7 H19 0.931 . S
N8 C1 1.359 . S
N8 C9 1.327 . S
N8 Tb11 2.600 1_655 S
C9 C7 1.392 . S
C9 N8 1.327 . S
C9 H16 0.930 . S
C10 C5 1.385 . S
C10 C7 1.370 . S
C10 H29 0.930 . S
Tb11 N8 2.600 1_455 S
Tb11 N12 2.660 1_455 S
Tb11 O45 2.362 . S
Tb11 O46 2.421 . S
Tb11 O50 2.546 1_455 S
Tb11 O51 2.610 . S
Tb11 O53 2.320 . S
Tb11 O54 2.552 . S
Tb11 O55 2.413 1_455 S
Tb11 C75 2.833 1_455 S
N12 C4 1.360 . S
N12 Tb11 2.660 1_655 S
N12 C13 1.305 . S
C13 N12 1.305 . S
C13 C15 1.407 1_554 S
C13 H20 0.930 . S
C14 C2 1.412 . S
C14 C15 1.345 1_554 S
C14 H22 0.929 1_554 S
C15 C13 1.407 1_556 S
C15 C14 1.345 1_556 S
C15 H17 0.930 . S
H16 C9 0.930 . S
H17 C15 0.930 . S
H18 C6 0.930 . S
H19 C7 0.931 . S
H20 C13 0.930 . S
H21 C35 0.930 . S
H22 C14 0.929 1_556 S
H23 C41 0.930 . S
H24 C32 0.930 . S
H25 C39 0.931 . S
H26 C3 0.929 . S
H27 C33 0.930 . S
H28 C66 0.930 . S
H29 C10 0.930 . S
H30 C65 0.929 . S
N31 Tb0 2.660 . S
N31 C32 1.305 . S
N31 C36 1.360 . S
C32 H24 0.930 . S
C32 N31 1.305 . S
C32 C35 1.407 . S
C33 H27 0.930 . S
C33 C34 1.410 . S
C33 C35 1.345 . S
C34 C33 1.410 . S
C34 C36 1.417 . S
C34 C66 1.432 . S
C35 H21 0.930 . S
C35 C32 1.407 . S
C35 C33 1.345 . S
C36 N31 1.360 . S
C36 C34 1.417 . S
C36 C40 1.432 . S
H37 C42 0.930 . S
N38 Tb0 2.600 . S
N38 C40 1.359 . S
N38 C41 1.327 . S
C39 H25 0.931 . S
C39 C41 1.392 . S
C39 C42 1.370 . S
C40 C36 1.432 . S
C40 N38 1.359 . S
C40 C43 1.414 . S
C41 H23 0.930 . S
C41 N38 1.327 . S
C41 C39 1.392 . S
C42 H37 0.930 . S
C42 C39 1.370 . S
C42 C43 1.385 . S
C43 C40 1.414 . S
C43 C42 1.385 . S
C43 C65 1.444 . S
O44 Tb0 2.546 . S
O44 C64 1.251 . S
O45 Tb0 2.610 . S
O45 Tb11 2.362 . S
O45 C56 1.283 . S
O46 Tb11 2.421 . S
O46 C63 1.262 . S
O47 Tb0 2.320 . S
O47 C63 1.260 . S
O48 Tb0 2.552 . S
O48 C56 1.243 . S
O49 Tb0 2.413 . S
O49 C64 1.256 . S
O50 Tb11 2.546 1_655 S
O50 C75 1.251 . S
O51 Tb0 2.362 . S
O51 Tb11 2.610 . S
O51 C67 1.283 . S
O52 Tb0 2.421 . S
O52 C74 1.262 . S
O53 Tb11 2.320 . S
O53 C74 1.260 . S
O54 Tb11 2.552 . S
O54 C67 1.243 . S
O55 Tb11 2.413 1_655 S
O55 C75 1.256 . S
C56 O45 1.283 . S
C56 O48 1.243 . S
C57 C59 1.382 . S
C57 C61 1.393 . S
C57 C64 1.500 . S
C58 C59 1.400 . S
C58 C60 1.384 . S
C59 C57 1.382 . S
C59 C58 1.400 . S
C59 H76 0.930 . S
C60 C58 1.384 . S
C60 C62 1.392 . S
C60 H77 0.931 . S
C61 C57 1.393 . S
C61 C62 1.401 . S
C61 H78 0.930 . S
C62 C60 1.392 . S
C62 C61 1.401 . S
C62 H79 0.930 . S
C63 O46 1.262 . S
C63 O47 1.260 . S
C64 Tb0 2.833 . S
C64 O44 1.251 . S
C64 O49 1.256 . S
C64 C57 1.500 . S
C65 H30 0.929 . S
C65 C43 1.444 . S
C65 C66 1.317 . S
C66 H28 0.930 . S
C66 C34 1.432 . S
C66 C65 1.317 . S
C67 O51 1.283 . S
C67 O54 1.243 . S
C68 C69 1.382 . S
C68 C72 1.393 . S
C68 C75 1.500 . S
C69 C68 1.382 . S
C69 C70 1.400 . S
C69 H80 0.930 . S
C70 C69 1.400 . S
C70 C71 1.384 . S
C71 C70 1.384 . S
C71 C73 1.392 . S
C71 H81 0.931 . S
C72 C68 1.393 . S
C72 C73 1.401 . S
C72 H82 0.930 . S
C73 C71 1.392 . S
C73 C72 1.401 . S
C73 H83 0.930 . S
C74 O52 1.262 . S
C74 O53 1.260 . S
C75 Tb11 2.833 1_655 S
C75 O50 1.251 . S
C75 O55 1.256 . S
C75 C68 1.500 . S
H76 C59 0.930 . S
H77 C60 0.931 . S
H78 C61 0.930 . S
H79 C62 0.930 . S
H80 C69 0.930 . S
H81 C71 0.931 . S
H82 C72 0.930 . S
H83 C73 0.930 . S
Tb84 N115 2.660 . S
Tb84 N122 2.600 . S
Tb84 O128 2.546 . S
Tb84 O129 2.610 . S
Tb84 O131 2.320 . S
Tb84 O132 2.552 . S
Tb84 O133 2.413 . S
Tb84 O135 2.362 . S
Tb84 O136 2.421 . S
Tb84 C148 2.833 . S
C85 C88 1.432 . S
C85 C89 1.414 . S
C85 N92 1.359 . S
C86 C88 1.417 . S
C86 C90 1.432 . S
C86 C98 1.410 1_554 S
C87 C89 1.444 . S
C87 C90 1.317 . S
C87 H110 0.929 . S
C88 C85 1.432 . S
C88 C86 1.417 . S
C88 N96 1.360 . S
C89 C85 1.414 . S
C89 C87 1.444 . S
C89 C94 1.385 . S
C90 C86 1.432 . S
C90 C87 1.317 . S
C90 H102 0.930 . S
C91 C93 1.392 . S
C91 C94 1.370 . S
C91 H103 0.931 . S
N92 C85 1.359 . S
N92 C93 1.327 . S
N92 Tb95 2.600 . S
C93 C91 1.392 . S
C93 N92 1.327 . S
C93 H100 0.930 . S
C94 C89 1.385 . S
C94 C91 1.370 . S
C94 H113 0.930 . S
Tb95 N92 2.600 . S
Tb95 N96 2.660 . S
Tb95 O129 2.362 . S
Tb95 O130 2.421 . S
Tb95 O134 2.546 . S
Tb95 O135 2.610 . S
Tb95 O137 2.320 . S
Tb95 O138 2.552 . S
Tb95 O139 2.413 . S
Tb95 C159 2.833 . S
N96 C88 1.360 . S
N96 Tb95 2.660 . S
N96 C97 1.305 1_554 S
C97 N96 1.305 1_556 S
C97 C99 1.407 . S
C97 H104 0.930 . S
C98 C86 1.410 1_556 S
C98 C99 1.345 . S
C98 H106 0.930 . S
C99 C97 1.407 . S
C99 C98 1.345 . S
C99 H101 0.930 . S
H100 C93 0.930 . S
H101 C99 0.930 . S
H102 C90 0.930 . S
H103 C91 0.931 . S
H104 C97 0.930 . S
H105 C119 0.930 . S
H106 C98 0.930 . S
H107 C125 0.930 . S
H108 C116 0.930 . S
H109 C123 0.931 . S
H110 C87 0.929 . S
H111 C117 0.930 . S
H112 C150 0.930 . S
H113 C94 0.930 . S
H114 C149 0.929 . S
N115 Tb84 2.660 . S
N115 C116 1.305 . S
N115 C120 1.360 . S
C116 H108 0.930 . S
C116 N115 1.305 . S
C116 C119 1.407 . S
C117 H111 0.930 . S
C117 C118 1.410 . S
C117 C119 1.345 . S
C118 C117 1.410 . S
C118 C120 1.417 . S
C118 C150 1.432 . S
C119 H105 0.930 . S
C119 C116 1.407 . S
C119 C117 1.345 . S
C120 N115 1.360 . S
C120 C118 1.417 . S
C120 C124 1.432 . S
H121 C126 0.930 . S
N122 Tb84 2.600 . S
N122 C124 1.359 . S
N122 C125 1.327 1_554 S
C123 H109 0.931 . S
C123 C125 1.392 . S
C123 C126 1.370 . S
C124 C120 1.432 . S
C124 N122 1.359 . S
C124 C127 1.414 . S
C125 H107 0.930 . S
C125 N122 1.327 1_556 S
C125 C123 1.392 . S
C126 H121 0.930 . S
C126 C123 1.370 . S
C126 C127 1.385 1_556 S
C127 C124 1.414 . S
C127 C126 1.385 1_554 S
C127 C149 1.444 . S
O128 Tb84 2.546 . S
O128 C148 1.251 . S
O129 Tb84 2.610 . S
O129 Tb95 2.362 . S
O129 C140 1.283 . S
O130 Tb95 2.421 . S
O130 C147 1.262 . S
O131 Tb84 2.320 . S
O131 C147 1.260 . S
O132 Tb84 2.552 . S
O132 C140 1.243 . S
O133 Tb84 2.413 . S
O133 C148 1.256 . S
O134 Tb95 2.546 . S
O134 C159 1.251 . S
O135 Tb84 2.362 . S
O135 Tb95 2.610 . S
O135 C151 1.283 . S
O136 Tb84 2.421 . S
O136 C158 1.262 1_554 S
O137 Tb95 2.320 . S
O137 C158 1.260 1_554 S
O138 Tb95 2.552 . S
O138 C151 1.243 . S
O139 Tb95 2.413 . S
O139 C159 1.256 . S
C140 O129 1.283 . S
C140 O132 1.243 . S
C141 C143 1.382 . S
C141 C145 1.393 . S
C141 C148 1.500 . S
C142 C143 1.400 . S
C142 C144 1.384 . S
C143 C141 1.382 . S
C143 C142 1.400 . S
C143 H160 0.930 . S
C144 C142 1.384 . S
C144 C146 1.392 . S
C144 H161 0.931 . S
C145 C141 1.393 . S
C145 C146 1.401 . S
C145 H162 0.930 . S
C146 C144 1.392 . S
C146 C145 1.401 . S
C146 H163 0.930 . S
C147 O130 1.262 . S
C147 O131 1.260 . S
C148 Tb84 2.833 . S
C148 O128 1.251 . S
C148 O133 1.256 . S
C148 C141 1.500 . S
C149 H114 0.929 . S
C149 C127 1.444 . S
C149 C150 1.317 . S
C150 H112 0.930 . S
C150 C118 1.432 . S
C150 C149 1.317 . S
C151 O135 1.283 . S
C151 O138 1.243 . S
C152 C153 1.384 . S
C152 C156 1.393 . S
C152 C159 1.500 . S
C153 C152 1.384 . S
C153 C154 1.400 1_554 S
C153 H164 0.929 1_554 S
C154 C153 1.400 1_556 S
C154 C155 1.384 1_556 S
C155 C154 1.384 1_554 S
C155 C157 1.392 . S
C155 H165 0.931 . S
C156 C152 1.393 . S
C156 C157 1.401 . S
C156 H166 0.930 . S
C157 C155 1.392 . S
C157 C156 1.401 . S
C157 H167 0.930 . S
C158 O136 1.262 1_556 S
C158 O137 1.260 1_556 S
C159 Tb95 2.833 . S
C159 O134 1.251 . S
C159 O139 1.256 . S
C159 C152 1.500 . S
H160 C143 0.930 . S
H161 C144 0.931 . S
H162 C145 0.930 . S
H163 C146 0.930 . S
H164 C153 0.929 1_556 S
H165 C155 0.931 . S
H166 C156 0.930 . S
H167 C157 0.930 . S
Tb168 N199 2.660 1_556 S
Tb168 N206 2.600 . S
Tb168 O212 2.546 . S
Tb168 O213 2.610 . S
Tb168 O215 2.320 1_556 S
Tb168 O216 2.552 . S
Tb168 O217 2.413 1_556 S
Tb168 O219 2.362 1_556 S
Tb168 O220 2.421 . S
Tb168 C232 2.833 . S
C169 C172 1.432 1_554 S
C169 C173 1.414 . S
C169 N176 1.359 . S
C170 C172 1.417 . S
C170 C174 1.432 . S
C170 C182 1.410 . S
C171 C173 1.444 . S
C171 C174 1.317 1_554 S
C171 H194 0.929 . S
C172 C169 1.432 1_556 S
C172 C170 1.417 . S
C172 N180 1.360 . S
C173 C169 1.414 . S
C173 C171 1.444 . S
C173 C178 1.385 . S
C174 C170 1.432 . S
C174 C171 1.317 1_556 S
C174 H186 0.930 . S
C175 C177 1.392 . S
C175 C178 1.370 . S
C175 H187 0.931 . S
N176 C169 1.359 . S
N176 C177 1.327 . S
N176 Tb179 2.600 . S
C177 C175 1.392 . S
C177 N176 1.327 . S
C177 H184 0.930 . S
C178 C173 1.385 . S
C178 C175 1.370 . S
C178 H197 0.930 . S
Tb179 N176 2.600 . S
Tb179 N180 2.660 1_554 S
Tb179 O213 2.362 1_554 S
Tb179 O214 2.421 . S
Tb179 O218 2.546 . S
Tb179 O219 2.610 . S
Tb179 O221 2.320 1_554 S
Tb179 O222 2.552 . S
Tb179 O223 2.413 1_554 S
Tb179 C243 2.833 . S
N180 C172 1.360 . S
N180 Tb179 2.660 1_556 S
N180 C181 1.305 . S
C181 N180 1.305 . S
C181 C183 1.407 . S
C181 H188 0.930 . S
C182 C170 1.410 . S
C182 C183 1.345 . S
C182 H190 0.930 . S
C183 C181 1.407 . S
C183 C182 1.345 . S
C183 H185 0.930 . S
H184 C177 0.930 . S
H185 C183 0.930 . S
H186 C174 0.930 . S
H187 C175 0.931 . S
H188 C181 0.930 . S
H189 C203 0.930 . S
H190 C182 0.930 . S
H191 C209 0.930 . S
H192 C200 0.930 . S
H193 C207 0.931 . S
H194 C171 0.929 . S
H195 C201 0.930 . S
H196 C234 0.930 . S
H197 C178 0.930 . S
H198 C233 0.929 . S
N199 Tb168 2.660 1_554 S
N199 C200 1.305 . S
N199 C204 1.333 1_545 S
C200 H192 0.930 . S
C200 N199 1.305 . S
C200 C203 1.407 . S
C201 H195 0.930 . S
C201 C202 1.410 . S
C201 C203 1.345 1_565 S
C202 C201 1.410 . S
C202 C204 1.443 . S
C202 C234 1.432 . S
C203 H189 0.930 . S
C203 C200 1.407 . S
C203 C201 1.345 1_545 S
C204 N199 1.333 1_565 S
C204 C202 1.443 . S
C204 C208 1.432 1_554 S
H205 C210 0.930 . S
N206 Tb168 2.600 . S
N206 C208 1.359 1_545 S
N206 C209 1.327 . S
C207 H193 0.931 . S
C207 C209 1.392 1_565 S
C207 C210 1.370 . S
C208 C204 1.432 1_556 S
C208 N206 1.359 1_565 S
C208 C211 1.414 . S
C209 H191 0.930 . S
C209 N206 1.327 . S
C209 C207 1.392 1_545 S
C210 H205 0.930 . S
C210 C207 1.370 . S
C210 C211 1.385 . S
C211 C208 1.414 . S
C211 C210 1.385 . S
C211 C233 1.444 . S
O212 Tb168 2.546 . S
O212 C232 1.251 . S
O213 Tb168 2.610 . S
O213 Tb179 2.362 1_556 S
O213 C224 1.283 . S
O214 Tb179 2.421 . S
O214 C231 1.262 . S
O215 Tb168 2.320 1_554 S
O215 C231 1.260 . S
O216 Tb168 2.552 . S
O216 C224 1.243 . S
O217 Tb168 2.413 1_554 S
O217 C232 1.256 1_554 S
O218 Tb179 2.546 . S
O218 C243 1.251 . S
O219 Tb168 2.362 1_554 S
O219 Tb179 2.610 . S
O219 C235 1.283 . S
O220 Tb168 2.421 . S
O220 C242 1.262 . S
O221 Tb179 2.320 1_556 S
O221 C242 1.260 . S
O222 Tb179 2.552 . S
O222 C235 1.243 . S
O223 Tb179 2.413 1_556 S
O223 C243 1.256 1_556 S
C224 O213 1.283 . S
C224 O216 1.243 . S
C225 C227 1.382 1_556 S
C225 C229 1.393 1_545 S
C225 C232 1.500 . S
C226 C227 1.400 1_565 S
C226 C228 1.384 . S
C227 C225 1.382 1_554 S
C227 C226 1.400 1_545 S
C227 H244 0.930 . S
C228 C226 1.384 . S
C228 C230 1.392 1_554 S
C228 H245 0.931 . S
C229 C225 1.393 1_565 S
C229 C230 1.401 . S
C229 H246 0.930 . S
C230 C228 1.392 1_556 S
C230 C229 1.401 . S
C230 H247 0.930 . S
C231 O214 1.262 . S
C231 O215 1.260 . S
C232 Tb168 2.833 . S
C232 O212 1.251 . S
C232 O217 1.256 1_556 S
C232 C225 1.500 . S
C233 H198 0.929 . S
C233 C211 1.444 . S
C233 C234 1.317 1_556 S
C234 H196 0.930 . S
C234 C202 1.432 . S
C234 C233 1.317 1_554 S
C235 O219 1.283 . S
C235 O222 1.243 . S
C236 C237 1.382 1_554 S
C236 C240 1.393 . S
C236 C243 1.500 . S
C237 C236 1.382 1_556 S
C237 C238 1.400 . S
C237 H248 0.930 . S
C238 C237 1.400 . S
C238 C239 1.384 . S
C239 C238 1.384 . S
C239 C241 1.392 1_556 S
C239 H249 0.931 . S
C240 C236 1.393 . S
C240 C241 1.401 . S
C240 H250 0.930 . S
C241 C239 1.392 1_554 S
C241 C240 1.401 . S
C241 H251 0.930 . S
C242 O220 1.262 . S
C242 O221 1.260 . S
C243 Tb179 2.833 . S
C243 O218 1.251 . S
C243 O223 1.256 1_554 S
C243 C236 1.500 . S
H244 C227 0.930 . S
H245 C228 0.931 . S
H246 C229 0.930 . S
H247 C230 0.930 . S
H248 C237 0.930 . S
H249 C239 0.931 . S
H250 C240 0.930 . S
H251 C241 0.930 . S
Tb252 N283 2.660 . S
Tb252 N290 2.600 . S
Tb252 O296 2.546 . S
Tb252 O297 2.610 . S
Tb252 O299 2.320 . S
Tb252 O300 2.552 . S
Tb252 O301 2.413 . S
Tb252 O303 2.362 . S
Tb252 O304 2.421 . S
Tb252 C316 2.833 . S
C253 C256 1.432 . S
C253 C257 1.414 . S
C253 N260 1.359 . S
C254 C256 1.417 . S
C254 C258 1.432 . S
C254 C266 1.410 . S
C255 C257 1.444 . S
C255 C258 1.317 . S
C255 H278 0.929 . S
C256 C253 1.432 . S
C256 C254 1.417 . S
C256 N264 1.360 . S
C257 C253 1.414 . S
C257 C255 1.444 . S
C257 C262 1.385 . S
C258 C254 1.432 . S
C258 C255 1.317 . S
C258 H270 0.930 . S
C259 C261 1.392 . S
C259 C262 1.370 . S
C259 H271 0.931 . S
N260 C253 1.359 . S
N260 C261 1.327 . S
N260 Tb263 2.600 . S
C261 C259 1.392 . S
C261 N260 1.327 . S
C261 H268 0.930 . S
C262 C257 1.385 . S
C262 C259 1.370 . S
C262 H281 0.930 . S
Tb263 N260 2.600 . S
Tb263 N264 2.660 . S
Tb263 O297 2.362 . S
Tb263 O298 2.421 . S
Tb263 O302 2.546 . S
Tb263 O303 2.610 . S
Tb263 O305 2.320 . S
Tb263 O306 2.552 . S
Tb263 O307 2.413 . S
Tb263 C327 2.833 . S
N264 C256 1.360 . S
N264 Tb263 2.660 . S
N264 C265 1.305 . S
C265 N264 1.305 . S
C265 C267 1.407 . S
C265 H272 0.930 . S
C266 C254 1.410 . S
C266 C267 1.345 . S
C266 H274 0.930 . S
C267 C265 1.407 . S
C267 C266 1.345 . S
C267 H269 0.930 . S
H268 C261 0.930 . S
H269 C267 0.930 . S
H270 C258 0.930 . S
H271 C259 0.931 . S
H272 C265 0.930 . S
H273 C287 0.930 . S
H274 C266 0.930 . S
H275 C293 0.930 . S
H276 C284 0.930 . S
H277 C291 0.931 . S
H278 C255 0.929 . S
H279 C285 0.930 . S
H280 C318 0.930 . S
H281 C262 0.930 . S
H282 C317 0.929 . S
N283 Tb252 2.660 . S
N283 C284 1.305 . S
N283 C288 1.360 . S
C284 H276 0.930 . S
C284 N283 1.305 . S
C284 C287 1.407 . S
C285 H279 0.930 . S
C285 C286 1.402 1_545 S
C285 C287 1.345 1_545 S
C286 C285 1.402 1_565 S
C286 C288 1.428 . S
C286 C318 1.429 1_565 S
C287 H273 0.930 . S
C287 C284 1.407 . S
C287 C285 1.345 1_565 S
C288 N283 1.360 . S
C288 C286 1.428 . S
C288 C292 1.432 . S
H289 C294 0.930 . S
N290 Tb252 2.600 . S
N290 C292 1.359 . S
N290 C293 1.327 . S
C291 H277 0.931 . S
C291 C293 1.392 . S
C291 C294 1.370 . S
C292 C288 1.432 . S
C292 N290 1.359 . S
C292 C295 1.414 . S
C293 H275 0.930 . S
C293 N290 1.327 . S
C293 C291 1.392 . S
C294 H289 0.930 . S
C294 C291 1.370 . S
C294 C295 1.385 . S
C295 C292 1.414 . S
C295 C294 1.385 . S
C295 C317 1.444 1_565 S
O296 Tb252 2.546 . S
O296 C316 1.251 . S
O297 Tb252 2.610 . S
O297 Tb263 2.362 . S
O297 C308 1.283 . S
O298 Tb263 2.421 . S
O298 C315 1.262 . S
O299 Tb252 2.320 . S
O299 C315 1.260 . S
O300 Tb252 2.552 . S
O300 C308 1.243 . S
O301 Tb252 2.413 . S
O301 C316 1.256 . S
O302 Tb263 2.546 . S
O302 C327 1.251 . S
O303 Tb252 2.362 . S
O303 Tb263 2.610 . S
O303 C319 1.283 . S
O304 Tb252 2.421 . S
O304 C326 1.262 . S
O305 Tb263 2.320 . S
O305 C326 1.260 . S
O306 Tb263 2.552 . S
O306 C319 1.243 . S
O307 Tb263 2.413 . S
O307 C327 1.256 . S
C308 O297 1.283 . S
C308 O300 1.243 . S
C309 C311 1.382 . S
C309 C313 1.393 . S
C309 C316 1.500 . S
C310 C311 1.400 . S
C310 C312 1.384 . S
C311 C309 1.382 . S
C311 C310 1.400 . S
C311 H328 0.930 . S
C312 C310 1.384 . S
C312 C314 1.392 . S
C312 H329 0.931 . S
C313 C309 1.393 . S
C313 C314 1.401 . S
C313 H330 0.930 . S
C314 C312 1.392 . S
C314 C313 1.401 . S
C314 H331 0.930 . S
C315 O298 1.262 . S
C315 O299 1.260 . S
C316 Tb252 2.833 . S
C316 O296 1.251 . S
C316 O301 1.256 . S
C316 C309 1.500 . S
C317 H282 0.929 . S
C317 C295 1.444 1_545 S
C317 C318 1.317 . S
C318 H280 0.930 . S
C318 C286 1.429 1_545 S
C318 C317 1.317 . S
C319 O303 1.283 . S
C319 O306 1.243 . S
C320 C321 1.382 . S
C320 C324 1.393 . S
C320 C327 1.500 . S
C321 C320 1.382 . S
C321 C322 1.400 . S
C321 H332 0.930 . S
C322 C321 1.400 . S
C322 C323 1.384 . S
C323 C322 1.384 . S
C323 C325 1.392 . S
C323 H333 0.931 1_565 S
C324 C320 1.393 . S
C324 C325 1.401 . S
C324 H334 0.930 . S
C325 C323 1.392 . S
C325 C324 1.401 . S
C325 H335 0.930 . S
C326 O304 1.262 . S
C326 O305 1.260 . S
C327 Tb263 2.833 . S
C327 O302 1.251 . S
C327 O307 1.256 . S
C327 C320 1.500 . S
H328 C311 0.930 . S
H329 C312 0.931 . S
H330 C313 0.930 . S
H331 C314 0.930 . S
H332 C321 0.930 . S
H333 C323 0.931 1_545 S
H334 C324 0.930 . S
H335 C325 0.930 . S
Tb336 N367 2.660 . S
Tb336 N374 2.600 . S
Tb336 O380 2.546 . S
Tb336 O381 2.610 . S
Tb336 O383 2.320 . S
Tb336 O384 2.552 . S
Tb336 O385 2.413 . S
Tb336 O387 2.362 . S
Tb336 O388 2.421 . S
Tb336 C400 2.833 . S
C337 C340 1.432 . S
C337 C341 1.414 . S
C337 N344 1.359 . S
C338 C340 1.417 . S
C338 C342 1.432 . S
C338 C350 1.410 . S
C339 C341 1.444 . S
C339 C342 1.317 . S
C339 H362 0.929 . S
C340 C337 1.432 . S
C340 C338 1.417 . S
C340 N348 1.360 . S
C341 C337 1.414 . S
C341 C339 1.444 . S
C341 C346 1.385 . S
C342 C338 1.432 . S
C342 C339 1.317 . S
C342 H354 0.930 . S
C343 C345 1.392 . S
C343 C346 1.370 . S
C343 H355 0.931 . S
N344 C337 1.359 . S
N344 C345 1.327 . S
N344 Tb347 2.600 . S
C345 C343 1.392 . S
C345 N344 1.327 . S
C345 H352 0.930 . S
C346 C341 1.385 . S
C346 C343 1.370 . S
C346 H365 0.930 . S
Tb347 N344 2.600 . S
Tb347 N348 2.660 . S
Tb347 O381 2.362 . S
Tb347 O382 2.421 . S
Tb347 O386 2.546 . S
Tb347 O387 2.610 . S
Tb347 O389 2.320 . S
Tb347 O390 2.552 . S
Tb347 O391 2.413 . S
Tb347 C411 2.833 . S
N348 C340 1.360 . S
N348 Tb347 2.660 . S
N348 C349 1.305 . S
C349 N348 1.305 . S
C349 C351 1.407 . S
C349 H356 0.930 . S
C350 C338 1.410 . S
C350 C351 1.345 . S
C350 H358 0.930 . S
C351 C349 1.407 . S
C351 C350 1.345 . S
C351 H353 0.930 . S
H352 C345 0.930 . S
H353 C351 0.930 . S
H354 C342 0.930 . S
H355 C343 0.931 . S
H356 C349 0.930 . S
H357 C371 0.930 1_556 S
H358 C350 0.930 . S
H359 C377 0.930 . S
H360 C368 0.930 . S
H361 C375 0.931 . S
H362 C339 0.929 . S
H363 C369 0.930 . S
H364 C402 0.930 . S
H365 C346 0.930 . S
H366 C401 0.929 1_556 S
N367 Tb336 2.660 . S
N367 C368 1.305 . S
N367 C372 1.360 . S
C368 H360 0.930 . S
C368 N367 1.305 . S
C368 C371 1.407 . S
C369 H363 0.930 . S
C369 C370 1.410 1_556 S
C369 C371 1.345 1_556 S
C370 C369 1.410 1_554 S
C370 C372 1.416 . S
C370 C402 1.432 1_554 S
C371 H357 0.930 1_554 S
C371 C368 1.407 . S
C371 C369 1.345 1_554 S
C372 N367 1.360 . S
C372 C370 1.416 . S
C372 C376 1.432 . S
H373 C378 0.930 . S
N374 Tb336 2.600 . S
N374 C376 1.359 . S
N374 C377 1.327 . S
C375 H361 0.931 . S
C375 C377 1.392 . S
C375 C378 1.370 . S
C376 C372 1.432 . S
C376 N374 1.359 . S
C376 C379 1.414 . S
C377 H359 0.930 . S
C377 N374 1.327 . S
C377 C375 1.392 . S
C378 H373 0.930 . S
C378 C375 1.370 . S
C378 C379 1.385 . S
C379 C376 1.414 . S
C379 C378 1.385 . S
C379 C401 1.444 . S
O380 Tb336 2.546 . S
O380 C400 1.251 . S
O381 Tb336 2.610 . S
O381 Tb347 2.362 . S
O381 C392 1.283 . S
O382 Tb347 2.421 . S
O382 C399 1.262 . S
O383 Tb336 2.320 . S
O383 C399 1.260 . S
O384 Tb336 2.552 . S
O384 C392 1.243 . S
O385 Tb336 2.413 . S
O385 C400 1.256 . S
O386 Tb347 2.546 . S
O386 C411 1.251 . S
O387 Tb336 2.362 . S
O387 Tb347 2.610 . S
O387 C403 1.283 . S
O388 Tb336 2.421 . S
O388 C410 1.262 . S
O389 Tb347 2.320 . S
O389 C410 1.260 . S
O390 Tb347 2.552 . S
O390 C403 1.243 . S
O391 Tb347 2.413 . S
O391 C411 1.256 . S
C392 O381 1.283 . S
C392 O384 1.243 . S
C393 C395 1.382 . S
C393 C397 1.393 . S
C393 C400 1.500 . S
C394 C395 1.400 . S
C394 C396 1.384 . S
C395 C393 1.382 . S
C395 C394 1.400 . S
C395 H412 0.930 . S
C396 C394 1.384 . S
C396 C398 1.392 . S
C396 H413 0.931 1_455 S
C397 C393 1.393 . S
C397 C398 1.401 . S
C397 H414 0.930 . S
C398 C396 1.392 . S
C398 C397 1.401 . S
C398 H415 0.930 . S
C399 O382 1.262 . S
C399 O383 1.260 . S
C400 Tb336 2.833 . S
C400 O380 1.251 . S
C400 O385 1.256 . S
C400 C393 1.500 . S
C401 H366 0.929 1_554 S
C401 C379 1.444 . S
C401 C402 1.317 1_554 S
C402 H364 0.930 . S
C402 C370 1.432 1_556 S
C402 C401 1.317 1_556 S
C403 O387 1.283 . S
C403 O390 1.243 . S
C404 C405 1.382 . S
C404 C408 1.393 . S
C404 C411 1.500 . S
C405 C404 1.382 . S
C405 C406 1.400 . S
C405 H416 0.930 . S
C406 C405 1.400 . S
C406 C407 1.384 . S
C407 C406 1.384 . S
C407 C409 1.392 . S
C407 H417 0.931 . S
C408 C404 1.393 . S
C408 C409 1.401 . S
C408 H418 0.930 . S
C409 C407 1.392 . S
C409 C408 1.401 . S
C409 H419 0.930 . S
C410 O388 1.262 . S
C410 O389 1.260 . S
C411 Tb347 2.833 . S
C411 O386 1.251 . S
C411 O391 1.256 . S
C411 C404 1.500 . S
H412 C395 0.930 . S
H413 C396 0.931 1_655 S
H414 C397 0.930 . S
H415 C398 0.930 . S
H416 C405 0.930 . S
H417 C407 0.931 . S
H418 C408 0.930 . S
H419 C409 0.930 . S
Tb420 N451 2.660 . S
Tb420 N458 2.600 . S
Tb420 O464 2.546 . S
Tb420 O465 2.610 . S
Tb420 O467 2.320 . S
Tb420 O468 2.552 . S
Tb420 O469 2.413 . S
Tb420 O471 2.362 . S
Tb420 O472 2.421 . S
Tb420 C484 2.833 . S
C421 C424 1.432 . S
C421 C425 1.414 . S
C421 N428 1.359 . S
C422 C424 1.417 . S
C422 C426 1.432 . S
C422 C434 1.410 . S
C423 C425 1.444 . S
C423 C426 1.317 . S
C423 H446 0.929 . S
C424 C421 1.432 . S
C424 C422 1.417 . S
C424 N432 1.360 . S
C425 C421 1.414 . S
C425 C423 1.444 . S
C425 C430 1.385 . S
C426 C422 1.432 . S
C426 C423 1.317 . S
C426 H438 0.930 . S
C427 C429 1.392 . S
C427 C430 1.370 . S
C427 H439 0.931 . S
N428 C421 1.359 . S
N428 C429 1.327 . S
N428 Tb431 2.600 . S
C429 C427 1.392 . S
C429 N428 1.327 . S
C429 H436 0.930 . S
C430 C425 1.385 . S
C430 C427 1.370 . S
C430 H449 0.930 . S
Tb431 N428 2.600 . S
Tb431 N432 2.660 . S
Tb431 O465 2.362 . S
Tb431 O466 2.421 . S
Tb431 O470 2.546 . S
Tb431 O471 2.610 . S
Tb431 O473 2.320 . S
Tb431 O474 2.552 . S
Tb431 O475 2.413 . S
Tb431 C495 2.833 . S
N432 C424 1.360 . S
N432 Tb431 2.660 . S
N432 C433 1.305 . S
C433 N432 1.305 . S
C433 C435 1.407 . S
C433 H440 0.930 . S
C434 C422 1.410 . S
C434 C435 1.345 . S
C434 H442 0.930 . S
C435 C433 1.407 . S
C435 C434 1.345 . S
C435 H437 0.930 . S
H436 C429 0.930 . S
H437 C435 0.930 . S
H438 C426 0.930 . S
H439 C427 0.931 . S
H440 C433 0.930 . S
H441 C455 0.930 . S
H442 C434 0.930 . S
H443 C461 0.930 . S
H444 C452 0.930 . S
H445 C459 0.931 1_556 S
H446 C423 0.929 . S
H447 C453 0.930 . S
H448 C486 0.930 . S
H449 C430 0.930 . S
H450 C485 0.929 . S
N451 Tb420 2.660 . S
N451 C452 1.305 . S
N451 C456 1.360 . S
C452 H444 0.930 . S
C452 N451 1.305 . S
C452 C455 1.407 . S
C453 H447 0.930 . S
C453 C454 1.410 . S
C453 C455 1.345 . S
C454 C453 1.410 . S
C454 C456 1.417 . S
C454 C486 1.432 . S
C455 H441 0.930 . S
C455 C452 1.407 . S
C455 C453 1.345 . S
C456 N451 1.360 . S
C456 C454 1.417 . S
C456 C460 1.432 . S
H457 C462 0.930 . S
N458 Tb420 2.600 . S
N458 C460 1.359 . S
N458 C461 1.327 . S
C459 H445 0.931 1_554 S
C459 C461 1.392 . S
C459 C462 1.370 . S
C460 C456 1.432 . S
C460 N458 1.359 . S
C460 C463 1.414 . S
C461 H443 0.930 . S
C461 N458 1.327 . S
C461 C459 1.392 . S
C462 H457 0.930 . S
C462 C459 1.370 . S
C462 C463 1.385 . S
C463 C460 1.414 . S
C463 C462 1.385 . S
C463 C485 1.444 . S
O464 Tb420 2.546 . S
O464 C484 1.251 . S
O465 Tb420 2.610 . S
O465 Tb431 2.362 . S
O465 C476 1.283 . S
O466 Tb431 2.421 . S
O466 C483 1.262 . S
O467 Tb420 2.320 . S
O467 C483 1.260 . S
O468 Tb420 2.552 . S
O468 C476 1.243 . S
O469 Tb420 2.413 . S
O469 C484 1.256 . S
O470 Tb431 2.546 . S
O470 C495 1.251 . S
O471 Tb420 2.362 . S
O471 Tb431 2.610 . S
O471 C487 1.283 . S
O472 Tb420 2.421 . S
O472 C494 1.262 . S
O473 Tb431 2.320 . S
O473 C494 1.260 . S
O474 Tb431 2.552 . S
O474 C487 1.243 . S
O475 Tb431 2.413 . S
O475 C495 1.256 . S
C476 O465 1.283 . S
C476 O468 1.243 . S
C477 C479 1.382 . S
C477 C481 1.393 . S
C477 C484 1.500 . S
C478 C479 1.400 . S
C478 C480 1.384 . S
C479 C477 1.382 . S
C479 C478 1.400 . S
C479 H496 0.930 . S
C480 C478 1.384 . S
C480 C482 1.392 . S
C480 H497 0.931 . S
C481 C477 1.393 . S
C481 C482 1.401 . S
C481 H498 0.930 . S
C482 C480 1.392 . S
C482 C481 1.401 . S
C482 H499 0.930 . S
C483 O466 1.262 . S
C483 O467 1.260 . S
C484 Tb420 2.833 . S
C484 O464 1.251 . S
C484 O469 1.256 . S
C484 C477 1.500 . S
C485 H450 0.929 . S
C485 C463 1.444 . S
C485 C486 1.317 . S
C486 H448 0.930 . S
C486 C454 1.432 . S
C486 C485 1.317 . S
C487 O471 1.283 . S
C487 O474 1.243 . S
C488 C489 1.382 . S
C488 C492 1.393 . S
C488 C495 1.500 . S
C489 C488 1.382 . S
C489 C490 1.400 . S
C489 H500 0.930 . S
C490 C489 1.400 . S
C490 C491 1.384 . S
C491 C490 1.384 . S
C491 C493 1.392 . S
C491 H501 0.931 . S
C492 C488 1.393 . S
C492 C493 1.401 . S
C492 H502 0.930 . S
C493 C491 1.392 . S
C493 C492 1.401 . S
C493 H503 0.930 . S
C494 O472 1.262 . S
C494 O473 1.260 . S
C495 Tb431 2.833 . S
C495 O470 1.251 . S
C495 O475 1.256 . S
C495 C488 1.500 . S
H496 C479 0.930 . S
H497 C480 0.931 . S
H498 C481 0.930 . S
H499 C482 0.930 . S
H500 C489 0.930 . S
H501 C491 0.931 . S
H502 C492 0.930 . S
H503 C493 0.930 . S
Tb504 N535 2.660 . S
Tb504 N542 2.600 . S
Tb504 O548 2.546 . S
Tb504 O549 2.610 . S
Tb504 O551 2.320 . S
Tb504 O552 2.552 . S
Tb504 O553 2.413 . S
Tb504 O555 2.362 . S
Tb504 O556 2.421 . S
Tb504 C568 2.833 . S
C505 C508 1.432 . S
C505 C509 1.414 . S
C505 N512 1.359 . S
C506 C508 1.417 . S
C506 C510 1.432 . S
C506 C518 1.410 . S
C507 C509 1.444 . S
C507 C510 1.317 . S
C507 H530 0.929 . S
C508 C505 1.432 . S
C508 C506 1.417 . S
C508 N516 1.360 . S
C509 C505 1.414 . S
C509 C507 1.444 . S
C509 C514 1.385 . S
C510 C506 1.432 . S
C510 C507 1.317 . S
C510 H522 0.930 . S
C511 C513 1.392 . S
C511 C514 1.370 . S
C511 H523 0.931 . S
N512 C505 1.359 . S
N512 C513 1.327 . S
N512 Tb515 2.600 . S
C513 C511 1.392 . S
C513 N512 1.327 . S
C513 H520 0.930 . S
C514 C509 1.385 . S
C514 C511 1.370 . S
C514 H533 0.930 . S
Tb515 N512 2.600 . S
Tb515 N516 2.660 . S
Tb515 O549 2.362 . S
Tb515 O550 2.421 . S
Tb515 O554 2.546 . S
Tb515 O555 2.610 . S
Tb515 O557 2.320 . S
Tb515 O558 2.552 . S
Tb515 O559 2.413 . S
Tb515 C579 2.833 . S
N516 C508 1.360 . S
N516 Tb515 2.660 . S
N516 C517 1.305 . S
C517 N516 1.305 . S
C517 C519 1.407 . S
C517 H524 0.930 . S
C518 C506 1.410 . S
C518 C519 1.345 . S
C518 H526 0.930 . S
C519 C517 1.407 . S
C519 C518 1.345 . S
C519 H521 0.930 . S
H520 C513 0.930 . S
H521 C519 0.930 . S
H522 C510 0.930 . S
H523 C511 0.931 . S
H524 C517 0.930 . S
H525 C539 0.930 . S
H526 C518 0.930 . S
H527 C545 0.930 . S
H528 C536 0.930 . S
H529 C543 0.931 . S
H530 C507 0.929 . S
H531 C537 0.930 . S
H532 C570 0.930 . S
H533 C514 0.930 . S
H534 C569 0.929 . S
N535 Tb504 2.660 . S
N535 C536 1.305 . S
N535 C540 1.360 . S
C536 H528 0.930 . S
C536 N535 1.305 . S
C536 C539 1.407 . S
C537 H531 0.930 . S
C537 C538 1.410 . S
C537 C539 1.345 . S
C538 C537 1.410 . S
C538 C540 1.417 . S
C538 C570 1.432 . S
C539 H525 0.930 . S
C539 C536 1.407 . S
C539 C537 1.345 . S
C540 N535 1.360 . S
C540 C538 1.417 . S
C540 C544 1.432 . S
H541 C546 0.930 . S
N542 Tb504 2.600 . S
N542 C544 1.359 . S
N542 C545 1.327 . S
C543 H529 0.931 . S
C543 C545 1.392 . S
C543 C546 1.370 . S
C544 C540 1.432 . S
C544 N542 1.359 . S
C544 C547 1.414 . S
C545 H527 0.930 . S
C545 N542 1.327 . S
C545 C543 1.392 . S
C546 H541 0.930 . S
C546 C543 1.370 . S
C546 C547 1.385 . S
C547 C544 1.414 . S
C547 C546 1.385 . S
C547 C569 1.444 . S
O548 Tb504 2.546 . S
O548 C568 1.251 . S
O549 Tb504 2.610 . S
O549 Tb515 2.362 . S
O549 C560 1.283 . S
O550 Tb515 2.421 . S
O550 C567 1.262 . S
O551 Tb504 2.320 . S
O551 C567 1.260 . S
O552 Tb504 2.552 . S
O552 C560 1.243 . S
O553 Tb504 2.413 . S
O553 C568 1.256 . S
O554 Tb515 2.546 . S
O554 C579 1.251 . S
O555 Tb504 2.362 . S
O555 Tb515 2.610 . S
O555 C571 1.283 . S
O556 Tb504 2.421 . S
O556 C578 1.262 . S
O557 Tb515 2.320 . S
O557 C578 1.260 . S
O558 Tb515 2.552 . S
O558 C571 1.243 . S
O559 Tb515 2.413 . S
O559 C579 1.256 . S
C560 O549 1.283 . S
C560 O552 1.243 . S
C561 C563 1.382 . S
C561 C565 1.393 . S
C561 C568 1.500 . S
C562 C563 1.400 . S
C562 C564 1.384 . S
C563 C561 1.382 . S
C563 C562 1.400 . S
C563 H580 0.930 . S
C564 C562 1.384 . S
C564 C566 1.392 . S
C564 H581 0.931 . S
C565 C561 1.393 . S
C565 C566 1.401 . S
C565 H582 0.930 . S
C566 C564 1.392 . S
C566 C565 1.401 . S
C566 H583 0.930 . S
C567 O550 1.262 . S
C567 O551 1.260 . S
C568 Tb504 2.833 . S
C568 O548 1.251 . S
C568 O553 1.256 . S
C568 C561 1.500 . S
C569 H534 0.929 . S
C569 C547 1.444 . S
C569 C570 1.317 . S
C570 H532 0.930 . S
C570 C538 1.432 . S
C570 C569 1.317 . S
C571 O555 1.283 . S
C571 O558 1.243 . S
C572 C573 1.382 . S
C572 C576 1.393 . S
C572 C579 1.500 . S
C573 C572 1.382 . S
C573 C574 1.400 . S
C573 H584 0.930 . S
C574 C573 1.400 . S
C574 C575 1.384 . S
C575 C574 1.384 . S
C575 C577 1.392 . S
C575 H585 0.931 1_556 S
C576 C572 1.393 . S
C576 C577 1.401 . S
C576 H586 0.930 . S
C577 C575 1.392 . S
C577 C576 1.401 . S
C577 H587 0.930 . S
C578 O556 1.262 . S
C578 O557 1.260 . S
C579 Tb515 2.833 . S
C579 O554 1.251 . S
C579 O559 1.256 . S
C579 C572 1.500 . S
H580 C563 0.930 . S
H581 C564 0.931 . S
H582 C565 0.930 . S
H583 C566 0.930 . S
H584 C573 0.930 . S
H585 C575 0.931 1_554 S
H586 C576 0.930 . S
H587 C577 0.930 . S
Tb588 N619 2.660 1_655 S
Tb588 N626 2.600 . S
Tb588 O632 2.546 . S
Tb588 O633 2.610 . S
Tb588 O635 2.320 . S
Tb588 O636 2.552 . S
Tb588 O637 2.413 . S
Tb588 O639 2.362 . S
Tb588 O640 2.421 . S
Tb588 C652 2.833 . S
C589 C592 1.432 . S
C589 C593 1.414 . S
C589 N596 1.359 . S
C590 C592 1.417 . S
C590 C594 1.432 . S
C590 C602 1.410 . S
C591 C593 1.444 . S
C591 C594 1.317 . S
C591 H614 0.929 . S
C592 C589 1.432 . S
C592 C590 1.417 . S
C592 N600 1.360 . S
C593 C589 1.414 . S
C593 C591 1.444 . S
C593 C598 1.385 . S
C594 C590 1.432 . S
C594 C591 1.317 . S
C594 H606 0.930 . S
C595 C597 1.392 . S
C595 C598 1.370 . S
C595 H607 0.931 . S
N596 C589 1.359 . S
N596 C597 1.327 . S
N596 Tb599 2.600 . S
C597 C595 1.392 . S
C597 N596 1.327 . S
C597 H604 0.930 . S
C598 C593 1.385 . S
C598 C595 1.370 . S
C598 H617 0.930 . S
Tb599 N596 2.600 . S
Tb599 N600 2.660 . S
Tb599 O633 2.362 . S
Tb599 O634 2.421 . S
Tb599 O638 2.546 . S
Tb599 O639 2.610 . S
Tb599 O641 2.320 . S
Tb599 O642 2.552 . S
Tb599 O643 2.413 . S
Tb599 C663 2.833 . S
N600 C592 1.360 . S
N600 Tb599 2.660 . S
N600 C601 1.305 . S
C601 N600 1.305 . S
C601 C603 1.407 . S
C601 H608 0.930 . S
C602 C590 1.410 . S
C602 C603 1.345 . S
C602 H610 0.930 . S
C603 C601 1.407 . S
C603 C602 1.345 . S
C603 H605 0.930 . S
H604 C597 0.930 . S
H605 C603 0.930 . S
H606 C594 0.930 . S
H607 C595 0.931 . S
H608 C601 0.930 . S
H609 C623 0.930 . S
H610 C602 0.930 . S
H611 C629 0.930 . S
H612 C620 0.930 . S
H613 C627 0.931 . S
H614 C591 0.929 . S
H615 C621 0.930 . S
H616 C654 0.930 . S
H617 C598 0.930 . S
H618 C653 0.929 . S
N619 Tb588 2.660 1_455 S
N619 C620 1.305 . S
N619 C624 1.360 . S
C620 H612 0.930 . S
C620 N619 1.305 . S
C620 C623 1.407 . S
C621 H615 0.930 . S
C621 C622 1.410 . S
C621 C623 1.345 . S
C622 C621 1.410 . S
C622 C624 1.417 . S
C622 C654 1.432 . S
C623 H609 0.930 . S
C623 C620 1.407 . S
C623 C621 1.345 . S
C624 N619 1.360 . S
C624 C622 1.417 . S
C624 C628 1.432 1_455 S
H625 C630 0.967 . S
N626 Tb588 2.600 . S
N626 C628 1.359 . S
N626 C629 1.327 . S
C627 H613 0.931 . S
C627 C629 1.392 . S
C627 C630 1.370 . S
C628 C624 1.432 1_655 S
C628 N626 1.359 . S
C628 C631 1.414 1_655 S
C629 H611 0.930 . S
C629 N626 1.327 . S
C629 C627 1.392 . S
C630 H625 0.967 . S
C630 C627 1.370 . S
C630 C631 1.385 1_655 S
C631 C628 1.414 1_455 S
C631 C630 1.385 1_455 S
C631 C653 1.444 . S
O632 Tb588 2.546 . S
O632 C652 1.251 . S
O633 Tb588 2.610 . S
O633 Tb599 2.362 . S
O633 C644 1.283 . S
O634 Tb599 2.421 . S
O634 C651 1.262 . S
O635 Tb588 2.320 . S
O635 C651 1.260 . S
O636 Tb588 2.552 . S
O636 C644 1.243 . S
O637 Tb588 2.413 . S
O637 C652 1.256 . S
O638 Tb599 2.546 . S
O638 C663 1.251 . S
O639 Tb588 2.362 . S
O639 Tb599 2.610 . S
O639 C655 1.283 . S
O640 Tb588 2.421 . S
O640 C662 1.262 . S
O641 Tb599 2.320 . S
O641 C662 1.260 . S
O642 Tb599 2.552 . S
O642 C655 1.243 . S
O643 Tb599 2.413 . S
O643 C663 1.256 . S
C644 O633 1.283 . S
C644 O636 1.243 . S
C645 C647 1.382 1_556 S
C645 C649 1.393 1_556 S
C645 C652 1.500 . S
C646 C647 1.400 . S
C646 C648 1.384 . S
C647 C645 1.382 1_554 S
C647 C646 1.400 . S
C647 H664 0.930 . S
C648 C646 1.384 . S
C648 C650 1.392 . S
C648 H665 0.931 . S
C649 C645 1.393 1_554 S
C649 C650 1.401 . S
C649 H666 0.930 1_554 S
C650 C648 1.392 . S
C650 C649 1.401 . S
C650 H667 0.930 . S
C651 O634 1.262 . S
C651 O635 1.260 . S
C652 Tb588 2.833 . S
C652 O632 1.251 . S
C652 O637 1.256 . S
C652 C645 1.500 . S
C653 H618 0.929 . S
C653 C631 1.444 . S
C653 C654 1.317 . S
C654 H616 0.930 . S
C654 C622 1.432 . S
C654 C653 1.317 . S
C655 O639 1.283 . S
C655 O642 1.243 . S
C656 C657 1.382 . S
C656 C660 1.393 . S
C656 C663 1.500 . S
C657 C656 1.382 . S
C657 C658 1.400 . S
C657 H668 0.930 . S
C658 C657 1.400 . S
C658 C659 1.384 . S
C659 C658 1.384 . S
C659 C661 1.392 . S
C659 H669 0.931 . S
C660 C656 1.393 . S
C660 C661 1.401 . S
C660 H670 0.930 . S
C661 C659 1.392 . S
C661 C660 1.401 . S
C661 H671 0.930 . S
C662 O640 1.262 . S
C662 O641 1.260 . S
C663 Tb599 2.833 . S
C663 O638 1.251 . S
C663 O643 1.256 . S
C663 C656 1.500 . S
H664 C647 0.930 . S
H665 C648 0.931 . S
H666 C649 0.930 1_556 S
H667 C650 0.930 . S
H668 C657 0.930 . S
H669 C659 0.931 . S
H670 C660 0.930 . S
H671 C661 0.930 . S
Tb672 N703 2.660 . S
Tb672 N710 2.600 . S
Tb672 O716 2.546 . S
Tb672 O717 2.610 . S
Tb672 O719 2.320 . S
Tb672 O720 2.552 . S
Tb672 O721 2.413 . S
Tb672 O723 2.362 . S
Tb672 O724 2.421 . S
Tb672 C736 2.833 . S
C673 C676 1.432 . S
C673 C677 1.414 . S
C673 N680 1.359 . S
C674 C676 1.417 . S
C674 C678 1.432 1_655 S
C674 C686 1.452 . S
C675 C677 1.444 . S
C675 C678 1.317 1_655 S
C675 H698 0.929 1_655 S
C676 C673 1.432 . S
C676 C674 1.417 . S
C676 N684 1.360 . S
C677 C673 1.414 . S
C677 C675 1.444 . S
C677 C682 1.385 . S
C678 C674 1.432 1_455 S
C678 C675 1.317 1_455 S
C678 H690 0.930 . S
C679 C681 1.392 . S
C679 C682 1.370 . S
C679 H691 0.931 . S
N680 C673 1.359 . S
N680 C681 1.327 . S
N680 Tb683 2.600 . S
C681 C679 1.392 . S
C681 N680 1.327 . S
C681 H688 0.930 . S
C682 C677 1.385 . S
C682 C679 1.370 . S
C682 H701 0.930 . S
Tb683 N680 2.600 . S
Tb683 N684 2.660 . S
Tb683 O717 2.362 . S
Tb683 O718 2.421 . S
Tb683 O722 2.546 1_556 S
Tb683 O723 2.610 . S
Tb683 O725 2.320 . S
Tb683 O726 2.552 . S
Tb683 O727 2.413 1_556 S
Tb683 C747 2.833 1_556 S
N684 C676 1.360 . S
N684 Tb683 2.660 . S
N684 C685 1.305 . S
C685 N684 1.305 . S
C685 C687 1.407 . S
C685 H692 0.930 . S
C686 C674 1.452 . S
C686 C687 1.352 . S
C686 H694 0.883 1_655 S
C687 C685 1.407 . S
C687 C686 1.352 . S
C687 H689 0.930 . S
H688 C681 0.930 . S
H689 C687 0.930 . S
H690 C678 0.930 . S
H691 C679 0.931 . S
H692 C685 0.930 . S
H693 C707 0.930 . S
H694 C686 0.883 1_455 S
H695 C713 0.930 . S
H696 C704 0.930 . S
H697 C711 0.931 . S
H698 C675 0.929 1_455 S
H699 C705 0.930 . S
H700 C738 0.930 . S
H701 C682 0.930 . S
H702 C737 0.929 . S
N703 Tb672 2.660 . S
N703 C704 1.305 . S
N703 C708 1.360 . S
C704 H696 0.930 . S
C704 N703 1.305 . S
C704 C707 1.407 . S
C705 H699 0.930 . S
C705 C706 1.410 . S
C705 C707 1.345 . S
C706 C705 1.410 . S
C706 C708 1.417 . S
C706 C738 1.432 . S
C707 H693 0.930 . S
C707 C704 1.407 . S
C707 C705 1.345 . S
C708 N703 1.360 . S
C708 C706 1.417 . S
C708 C712 1.432 . S
H709 C714 0.930 . S
N710 Tb672 2.600 . S
N710 C712 1.359 . S
N710 C713 1.327 . S
C711 H697 0.931 . S
C711 C713 1.392 . S
C711 C714 1.370 . S
C712 C708 1.432 . S
C712 N710 1.359 . S
C712 C715 1.414 . S
C713 H695 0.930 . S
C713 N710 1.327 . S
C713 C711 1.392 . S
C714 H709 0.930 . S
C714 C711 1.370 . S
C714 C715 1.385 . S
C715 C712 1.414 . S
C715 C714 1.385 . S
C715 C737 1.444 . S
O716 Tb672 2.546 . S
O716 C736 1.251 . S
O717 Tb672 2.610 . S
O717 Tb683 2.362 . S
O717 C728 1.283 . S
O718 Tb683 2.421 . S
O718 C735 1.262 . S
O719 Tb672 2.320 . S
O719 C735 1.260 . S
O720 Tb672 2.552 . S
O720 C728 1.243 . S
O721 Tb672 2.413 . S
O721 C736 1.256 . S
O722 Tb683 2.546 1_554 S
O722 C747 1.251 . S
O723 Tb672 2.362 . S
O723 Tb683 2.610 . S
O723 C739 1.283 . S
O724 Tb672 2.421 . S
O724 C746 1.262 . S
O725 Tb683 2.320 . S
O725 C746 1.260 . S
O726 Tb683 2.552 . S
O726 C739 1.243 . S
O727 Tb683 2.413 1_554 S
O727 C747 1.256 . S
C728 O717 1.283 . S
C728 O720 1.243 . S
C729 C731 1.382 . S
C729 C733 1.393 . S
C729 C736 1.500 . S
C730 C731 1.400 . S
C730 C732 1.384 . S
C731 C729 1.382 . S
C731 C730 1.400 . S
C731 H748 0.930 . S
C732 C730 1.384 . S
C732 C734 1.392 . S
C732 H749 0.931 . S
C733 C729 1.393 . S
C733 C734 1.401 . S
C733 H750 0.930 . S
C734 C732 1.392 . S
C734 C733 1.401 . S
C734 H751 0.930 . S
C735 O718 1.262 . S
C735 O719 1.260 . S
C736 Tb672 2.833 . S
C736 O716 1.251 . S
C736 O721 1.256 . S
C736 C729 1.500 . S
C737 H702 0.929 . S
C737 C715 1.444 . S
C737 C738 1.317 . S
C738 H700 0.930 . S
C738 C706 1.432 . S
C738 C737 1.317 . S
C739 O723 1.283 . S
C739 O726 1.243 . S
C740 C741 1.382 . S
C740 C744 1.393 . S
C740 C747 1.500 . S
C741 C740 1.382 . S
C741 C742 1.400 . S
C741 H752 0.930 . S
C742 C741 1.400 . S
C742 C743 1.384 . S
C743 C742 1.384 . S
C743 C745 1.392 . S
C743 H753 0.931 . S
C744 C740 1.393 . S
C744 C745 1.401 . S
C744 H754 0.930 . S
C745 C743 1.392 . S
C745 C744 1.401 . S
C745 H755 0.930 . S
C746 O724 1.262 . S
C746 O725 1.260 . S
C747 Tb683 2.833 1_554 S
C747 O722 1.251 . S
C747 O727 1.256 . S
C747 C740 1.500 . S
H748 C731 0.930 . S
H749 C732 0.931 . S
H750 C733 0.930 . S
H751 C734 0.930 . S
H752 C741 0.930 . S
H753 C743 0.931 . S
H754 C744 0.930 . S
H755 C745 0.930 . S
C756 C757 1.391 . S
C756 C758 1.394 . S
C756 H772 0.931 . S
C757 C756 1.391 . S
C757 C761 1.376 . S
C758 C756 1.394 . S
C758 C759 1.369 . S
C758 C762 1.531 . S
C759 C758 1.369 . S
C759 C760 1.410 . S
C759 C767 1.503 . S
C760 C759 1.410 . S
C760 C761 1.392 . S
C760 C763 1.511 . S
C761 C757 1.376 . S
C761 C760 1.392 . S
C761 H773 0.929 . S
C762 C758 1.531 . S
C762 H774 0.960 . S
C762 H775 0.962 . S
C762 H776 0.960 . S
C763 C760 1.511 . S
C763 H777 0.961 . S
C763 H778 0.961 . S
C763 H779 0.961 . S
C764 C765 1.370 . S
C764 C766 1.363 . S
C764 H780 0.931 . S
C765 C764 1.370 . S
C765 C769 1.408 . S
C766 C764 1.363 . S
C766 C767 1.370 . S
C766 C770 1.524 . S
C767 C759 1.503 . S
C767 C766 1.370 . S
C767 C768 1.403 . S
C768 C767 1.403 . S
C768 C769 1.404 . S
C768 C771 1.539 1_455 S
C769 C765 1.408 . S
C769 C768 1.404 . S
C769 H781 0.930 1_455 S
C770 C766 1.524 . S
C770 H782 0.956 . S
C770 H783 0.961 . S
C770 H784 0.961 . S
C771 C768 1.539 1_655 S
C771 H785 0.958 . S
C771 H786 0.961 . S
C771 H787 0.960 . S
H772 C756 0.931 . S
H773 C761 0.929 . S
H774 C762 0.960 . S
H775 C762 0.962 . S
H776 C762 0.960 . S
H777 C763 0.961 . S
H778 C763 0.961 . S
H779 C763 0.961 . S
H780 C764 0.931 . S
H781 C769 0.930 1_655 S
H782 C770 0.956 . S
H783 C770 0.961 . S
H784 C770 0.961 . S
H785 C771 0.958 . S
H786 C771 0.961 . S
H787 C771 0.960 . S
C788 C789 1.391 . S
C788 C790 1.394 . S
C788 H804 0.931 . S
C789 C788 1.391 . S
C789 C793 1.376 . S
C790 C788 1.394 . S
C790 C791 1.369 . S
C790 C794 1.531 . S
C791 C790 1.369 . S
C791 C792 1.410 . S
C791 C799 1.503 . S
C792 C791 1.410 . S
C792 C793 1.392 . S
C792 C795 1.511 . S
C793 C789 1.376 . S
C793 C792 1.392 . S
C793 H805 0.929 . S
C794 C790 1.531 . S
C794 H806 0.960 . S
C794 H807 0.962 . S
C794 H808 0.960 . S
C795 C792 1.511 . S
C795 H809 0.961 . S
C795 H810 0.961 . S
C795 H811 0.961 . S
C796 C797 1.370 . S
C796 C798 1.363 . S
C796 H812 0.931 . S
C797 C796 1.370 . S
C797 C801 1.408 . S
C798 C796 1.363 . S
C798 C799 1.370 . S
C798 C802 1.524 . S
C799 C791 1.503 . S
C799 C798 1.370 . S
C799 C800 1.403 . S
C800 C799 1.403 . S
C800 C801 1.404 . S
C800 C803 1.539 . S
C801 C797 1.408 . S
C801 C800 1.404 . S
C801 H813 0.930 . S
C802 C798 1.524 . S
C802 H814 0.956 . S
C802 H815 0.961 . S
C802 H816 0.961 . S
C803 C800 1.539 . S
C803 H817 0.958 . S
C803 H818 0.961 . S
C803 H819 0.960 . S
H804 C788 0.931 . S
H805 C793 0.929 . S
H806 C794 0.960 . S
H807 C794 0.962 . S
H808 C794 0.960 . S
H809 C795 0.961 . S
H810 C795 0.961 . S
H811 C795 0.961 . S
H812 C796 0.931 . S
H813 C801 0.930 . S
H814 C802 0.956 . S
H815 C802 0.961 . S
H816 C802 0.961 . S
H817 C803 0.958 . S
H818 C803 0.961 . S
H819 C803 0.960 . S
C820 C821 1.391 . S
C820 C822 1.394 . S
C820 H836 0.931 . S
C821 C820 1.391 . S
C821 C825 1.376 . S
C822 C820 1.394 . S
C822 C823 1.369 . S
C822 C826 1.531 . S
C823 C822 1.369 . S
C823 C824 1.410 . S
C823 C831 1.503 . S
C824 C823 1.410 . S
C824 C825 1.392 . S
C824 C827 1.511 . S
C825 C821 1.376 . S
C825 C824 1.392 . S
C825 H837 0.929 . S
C826 C822 1.531 . S
C826 H838 0.960 . S
C826 H839 0.962 . S
C826 H840 0.960 . S
C827 C824 1.511 . S
C827 H841 0.961 . S
C827 H842 0.961 . S
C827 H843 0.961 . S
C828 C829 1.370 . S
C828 C830 1.363 . S
C828 H844 0.931 . S
C829 C828 1.370 . S
C829 C833 1.408 . S
C830 C828 1.363 . S
C830 C831 1.370 . S
C830 C834 1.524 . S
C831 C823 1.503 . S
C831 C830 1.370 . S
C831 C832 1.403 . S
C832 C831 1.403 . S
C832 C833 1.404 . S
C832 C835 1.539 . S
C833 C829 1.408 . S
C833 C832 1.404 . S
C833 H845 0.930 . S
C834 C830 1.524 . S
C834 H846 0.956 . S
C834 H847 0.961 . S
C834 H848 0.961 . S
C835 C832 1.539 . S
C835 H849 0.958 . S
C835 H850 0.961 . S
C835 H851 0.960 . S
H836 C820 0.931 . S
H837 C825 0.929 . S
H838 C826 0.960 . S
H839 C826 0.962 . S
H840 C826 0.960 . S
H841 C827 0.961 . S
H842 C827 0.961 . S
H843 C827 0.961 . S
H844 C828 0.931 . S
H845 C833 0.930 . S
H846 C834 0.956 . S
H847 C834 0.961 . S
H848 C834 0.961 . S
H849 C835 0.958 . S
H850 C835 0.961 . S
H851 C835 0.960 . S
C852 C853 1.391 . S
C852 C854 1.394 . S
C852 H868 0.931 . S
C853 C852 1.391 . S
C853 C857 1.376 . S
C854 C852 1.394 . S
C854 C855 1.369 . S
C854 C858 1.531 . S
C855 C854 1.369 . S
C855 C856 1.410 . S
C855 C863 1.503 . S
C856 C855 1.410 . S
C856 C857 1.392 . S
C856 C859 1.511 . S
C857 C853 1.376 . S
C857 C856 1.392 . S
C857 H869 0.929 . S
C858 C854 1.531 . S
C858 H870 0.960 . S
C858 H871 0.962 . S
C858 H872 0.960 . S
C859 C856 1.511 . S
C859 H873 0.961 . S
C859 H874 0.961 . S
C859 H875 0.961 . S
C860 C861 1.370 . S
C860 C862 1.363 . S
C860 H876 0.931 . S
C861 C860 1.370 . S
C861 C865 1.408 . S
C862 C860 1.363 . S
C862 C863 1.370 . S
C862 C866 1.524 . S
C863 C855 1.503 . S
C863 C862 1.370 . S
C863 C864 1.403 . S
C864 C863 1.403 . S
C864 C865 1.404 . S
C864 C867 1.539 . S
C865 C861 1.408 . S
C865 C864 1.404 . S
C865 H877 0.930 . S
C866 C862 1.524 . S
C866 H878 0.956 . S
C866 H879 0.961 . S
C866 H880 0.961 . S
C867 C864 1.539 . S
C867 H881 0.958 . S
C867 H882 0.961 . S
C867 H883 0.960 . S
H868 C852 0.931 . S
H869 C857 0.929 . S
H870 C858 0.960 . S
H871 C858 0.962 . S
H872 C858 0.960 . S
H873 C859 0.961 . S
H874 C859 0.961 . S
H875 C859 0.961 . S
H876 C860 0.931 . S
H877 C865 0.930 . S
H878 C866 0.956 . S
H879 C866 0.961 . S
H880 C866 0.961 . S
H881 C867 0.958 . S
H882 C867 0.961 . S
H883 C867 0.960 . S
C884 C885 1.391 . S
C884 C886 1.394 . S
C884 H900 0.931 . S
C885 C884 1.391 . S
C885 C889 1.376 . S
C886 C884 1.394 . S
C886 C887 1.369 . S
C886 C890 1.531 . S
C887 C886 1.369 . S
C887 C888 1.410 . S
C887 C895 1.503 . S
C888 C887 1.410 . S
C888 C889 1.392 . S
C888 C891 1.511 . S
C889 C885 1.376 . S
C889 C888 1.392 . S
C889 H901 0.929 . S
C890 C886 1.531 . S
C890 H902 0.960 . S
C890 H903 0.962 . S
C890 H904 0.960 . S
C891 C888 1.511 . S
C891 H905 0.961 . S
C891 H906 0.961 . S
C891 H907 0.961 . S
C892 C893 1.370 . S
C892 C894 1.363 . S
C892 H908 0.931 . S
C893 C892 1.370 . S
C893 C897 1.408 . S
C894 C892 1.363 . S
C894 C895 1.370 . S
C894 C898 1.524 . S
C895 C887 1.503 . S
C895 C894 1.370 . S
C895 C896 1.403 . S
C896 C895 1.403 . S
C896 C897 1.404 . S
C896 C899 1.539 . S
C897 C893 1.408 . S
C897 C896 1.404 . S
C897 H909 0.930 . S
C898 C894 1.524 . S
C898 H910 0.956 . S
C898 H911 0.961 . S
C898 H912 0.961 . S
C899 C896 1.539 . S
C899 H913 0.958 . S
C899 H914 0.961 . S
C899 H915 0.960 . S
H900 C884 0.931 . S
H901 C889 0.929 . S
H902 C890 0.960 . S
H903 C890 0.962 . S
H904 C890 0.960 . S
H905 C891 0.961 . S
H906 C891 0.961 . S
H907 C891 0.961 . S
H908 C892 0.931 . S
H909 C897 0.930 . S
H910 C898 0.956 . S
H911 C898 0.961 . S
H912 C898 0.961 . S
H913 C899 0.958 . S
H914 C899 0.961 . S
H915 C899 0.960 . S
C916 C917 1.391 . S
C916 C918 1.394 . S
C916 H932 0.931 . S
C917 C916 1.391 . S
C917 C921 1.376 . S
C918 C916 1.394 . S
C918 C919 1.369 . S
C918 C922 1.531 . S
C919 C918 1.369 . S
C919 C920 1.410 . S
C919 C927 1.503 . S
C920 C919 1.410 . S
C920 C921 1.392 . S
C920 C923 1.511 . S
C921 C917 1.376 . S
C921 C920 1.392 . S
C921 H933 0.929 . S
C922 C918 1.531 . S
C922 H934 0.960 . S
C922 H935 0.962 . S
C922 H936 0.960 . S
C923 C920 1.511 . S
C923 H937 0.961 . S
C923 H938 0.961 . S
C923 H939 0.961 . S
C924 C925 1.370 . S
C924 C926 1.363 . S
C924 H940 0.931 . S
C925 C924 1.370 . S
C925 C929 1.408 . S
C926 C924 1.363 . S
C926 C927 1.370 . S
C926 C930 1.524 . S
C927 C919 1.503 . S
C927 C926 1.370 . S
C927 C928 1.403 . S
C928 C927 1.403 . S
C928 C929 1.404 . S
C928 C931 1.539 . S
C929 C925 1.408 . S
C929 C928 1.404 . S
C929 H941 0.930 . S
C930 C926 1.524 . S
C930 H942 0.956 . S
C930 H943 0.961 . S
C930 H944 0.961 . S
C931 C928 1.539 . S
C931 H945 0.958 . S
C931 H946 0.961 . S
C931 H947 0.960 . S
H932 C916 0.931 . S
H933 C921 0.929 . S
H934 C922 0.960 . S
H935 C922 0.962 . S
H936 C922 0.960 . S
H937 C923 0.961 . S
H938 C923 0.961 . S
H939 C923 0.961 . S
H940 C924 0.931 . S
H941 C929 0.930 . S
H942 C930 0.956 . S
H943 C930 0.961 . S
H944 C930 0.961 . S
H945 C931 0.958 . S
H946 C931 0.961 . S
H947 C931 0.960 . S
C948 C949 1.391 . S
C948 C950 1.394 . S
C948 H964 0.931 . S
C949 C948 1.391 . S
C949 C953 1.376 . S
C950 C948 1.394 . S
C950 C951 1.369 . S
C950 C954 1.531 . S
C951 C950 1.369 . S
C951 C952 1.410 . S
C951 C959 1.503 . S
C952 C951 1.410 . S
C952 C953 1.392 . S
C952 C955 1.511 . S
C953 C949 1.376 . S
C953 C952 1.392 . S
C953 H965 0.929 . S
C954 C950 1.531 . S
C954 H966 0.960 . S
C954 H967 0.962 . S
C954 H968 0.960 . S
C955 C952 1.511 . S
C955 H969 0.961 . S
C955 H970 0.961 1_554 S
C955 H971 0.961 . S
C956 C957 1.370 . S
C956 C958 1.363 . S
C956 H972 0.931 . S
C957 C956 1.370 . S
C957 C961 1.408 . S
C958 C956 1.363 . S
C958 C959 1.370 1_556 S
C958 C962 1.524 . S
C959 C951 1.503 . S
C959 C958 1.370 1_554 S
C959 C960 1.403 . S
C960 C959 1.403 . S
C960 C961 1.404 1_554 S
C960 C963 1.539 . S
C961 C957 1.408 . S
C961 C960 1.404 1_556 S
C961 H973 0.930 . S
C962 C958 1.524 . S
C962 H974 0.956 1_556 S
C962 H975 0.961 . S
C962 H976 0.961 . S
C963 C960 1.539 . S
C963 H977 0.958 . S
C963 H978 0.961 . S
C963 H979 0.960 . S
H964 C948 0.931 . S
H965 C953 0.929 . S
H966 C954 0.960 . S
H967 C954 0.962 . S
H968 C954 0.960 . S
H969 C955 0.961 . S
H970 C955 0.961 1_556 S
H971 C955 0.961 . S
H972 C956 0.931 . S
H973 C961 0.930 . S
H974 C962 0.956 1_554 S
H975 C962 0.961 . S
H976 C962 0.961 . S
H977 C963 0.958 . S
H978 C963 0.961 . S
H979 C963 0.960 . S
C980 C981 1.391 . S
C980 C982 1.394 . S
C980 H996 0.931 . S
C981 C980 1.391 . S
C981 C985 1.376 . S
C982 C980 1.394 . S
C982 C983 1.369 . S
C982 C986 1.531 . S
C983 C982 1.369 . S
C983 C984 1.410 . S
C983 C991 1.503 . S
C984 C983 1.410 . S
C984 C985 1.392 . S
C984 C987 1.511 . S
C985 C981 1.376 . S
C985 C984 1.392 . S
C985 H997 0.929 . S
C986 C982 1.531 . S
C986 H998 0.960 . S
C986 H999 0.962 . S
C986 H1000 0.960 . S
C987 C984 1.511 . S
C987 H1001 0.961 . S
C987 H1002 0.961 . S
C987 H1003 0.961 . S
C988 C989 1.370 1_554 S
C988 C990 1.363 . S
C988 H1004 0.931 . S
C989 C988 1.370 1_556 S
C989 C993 1.408 1_556 S
C990 C988 1.363 . S
C990 C991 1.370 . S
C990 C994 1.524 . S
C991 C983 1.503 . S
C991 C990 1.370 . S
C991 C992 1.403 . S
C992 C991 1.403 . S
C992 C993 1.404 . S
C992 C995 1.539 . S
C993 C989 1.408 1_554 S
C993 C992 1.404 . S
C993 H1005 0.930 1_554 S
C994 C990 1.524 . S
C994 H1006 0.956 . S
C994 H1007 0.961 . S
C994 H1008 0.961 . S
C995 C992 1.539 . S
C995 H1009 0.958 . S
C995 H1010 0.961 . S
C995 H1011 0.960 . S
H996 C980 0.931 . S
H997 C985 0.929 . S
H998 C986 0.960 . S
H999 C986 0.962 . S
H1000 C986 0.960 . S
H1001 C987 0.961 . S
H1002 C987 0.961 . S
H1003 C987 0.961 . S
H1004 C988 0.931 . S
H1005 C993 0.930 1_556 S
H1006 C994 0.956 . S
H1007 C994 0.961 . S
H1008 C994 0.961 . S
H1009 C995 0.958 . S
H1010 C995 0.961 . S
H1011 C995 0.960 . S
C1012 C1013 1.391 . S
C1012 C1014 1.394 . S
C1012 H1028 0.931 . S
C1013 C1012 1.391 . S
C1013 C1017 1.376 . S
C1014 C1012 1.394 . S
C1014 C1015 1.369 . S
C1014 C1018 1.531 . S
C1015 C1014 1.369 . S
C1015 C1016 1.410 . S
C1015 C1023 1.503 . S
C1016 C1015 1.410 . S
C1016 C1017 1.392 . S
C1016 C1019 1.511 . S
C1017 C1013 1.376 . S
C1017 C1016 1.392 . S
C1017 H1029 0.929 . S
C1018 C1014 1.531 . S
C1018 H1030 0.960 . S
C1018 H1031 0.962 . S
C1018 H1032 0.960 . S
C1019 C1016 1.511 . S
C1019 H1033 0.961 . S
C1019 H1034 0.961 . S
C1019 H1035 0.961 . S
C1020 C1021 1.370 . S
C1020 C1022 1.363 . S
C1020 H1036 0.931 . S
C1021 C1020 1.370 . S
C1021 C1025 1.408 . S
C1022 C1020 1.363 . S
C1022 C1023 1.370 . S
C1022 C1026 1.524 . S
C1023 C1015 1.503 . S
C1023 C1022 1.370 . S
C1023 C1024 1.403 . S
C1024 C1023 1.403 . S
C1024 C1025 1.404 . S
C1024 C1027 1.539 . S
C1025 C1021 1.408 . S
C1025 C1024 1.404 . S
C1025 H1037 0.930 . S
C1026 C1022 1.524 . S
C1026 H1038 0.956 . S
C1026 H1039 0.961 . S
C1026 H1040 0.961 . S
C1027 C1024 1.539 . S
C1027 H1041 0.958 . S
C1027 H1042 0.961 . S
C1027 H1043 0.960 . S
H1028 C1012 0.931 . S
H1029 C1017 0.929 . S
H1030 C1018 0.960 . S
H1031 C1018 0.962 . S
H1032 C1018 0.960 . S
H1033 C1019 0.961 . S
H1034 C1019 0.961 . S
H1035 C1019 0.961 . S
H1036 C1020 0.931 . S
H1037 C1025 0.930 . S
H1038 C1026 0.956 . S
H1039 C1026 0.961 . S
H1040 C1026 0.961 . S
H1041 C1027 0.958 . S
H1042 C1027 0.961 . S
H1043 C1027 0.960 . S
C1044 C1045 1.391 . S
C1044 C1046 1.394 . S
C1044 H1060 0.931 . S
C1045 C1044 1.391 . S
C1045 C1049 1.376 . S
C1046 C1044 1.394 . S
C1046 C1047 1.369 . S
C1046 C1050 1.531 . S
C1047 C1046 1.369 . S
C1047 C1048 1.410 . S
C1047 C1055 1.503 . S
C1048 C1047 1.410 . S
C1048 C1049 1.392 . S
C1048 C1051 1.511 . S
C1049 C1045 1.376 . S
C1049 C1048 1.392 . S
C1049 H1061 0.929 . S
C1050 C1046 1.531 . S
C1050 H1062 0.960 . S
C1050 H1063 0.962 . S
C1050 H1064 0.960 . S
C1051 C1048 1.511 . S
C1051 H1065 0.961 . S
C1051 H1066 0.961 . S
C1051 H1067 0.961 . S
C1052 C1053 1.370 . S
C1052 C1054 1.363 . S
C1052 H1068 0.931 . S
C1053 C1052 1.370 . S
C1053 C1057 1.408 . S
C1054 C1052 1.363 . S
C1054 C1055 1.370 . S
C1054 C1058 1.524 . S
C1055 C1047 1.503 . S
C1055 C1054 1.370 . S
C1055 C1056 1.403 . S
C1056 C1055 1.403 . S
C1056 C1057 1.404 . S
C1056 C1059 1.539 . S
C1057 C1053 1.408 . S
C1057 C1056 1.404 . S
C1057 H1069 0.930 . S
C1058 C1054 1.524 . S
C1058 H1070 0.956 . S
C1058 H1071 0.961 . S
C1058 H1072 0.961 . S
C1059 C1056 1.539 . S
C1059 H1073 0.958 . S
C1059 H1074 0.961 . S
C1059 H1075 0.960 . S
H1060 C1044 0.931 . S
H1061 C1049 0.929 . S
H1062 C1050 0.960 . S
H1063 C1050 0.962 . S
H1064 C1050 0.960 . S
H1065 C1051 0.961 . S
H1066 C1051 0.961 . S
H1067 C1051 0.961 . S
H1068 C1052 0.931 . S
H1069 C1057 0.930 . S
H1070 C1058 0.956 . S
H1071 C1058 0.961 . S
H1072 C1058 0.961 . S
H1073 C1059 0.958 . S
H1074 C1059 0.961 . S
H1075 C1059 0.960 . S
C1076 C1077 1.391 . S
C1076 C1078 1.394 . S
C1076 H1092 0.931 . S
C1077 C1076 1.391 . S
C1077 C1081 1.376 . S
C1078 C1076 1.394 . S
C1078 C1079 1.369 . S
C1078 C1082 1.531 . S
C1079 C1078 1.369 . S
C1079 C1080 1.410 . S
C1079 C1087 1.503 . S
C1080 C1079 1.410 . S
C1080 C1081 1.392 . S
C1080 C1083 1.511 . S
C1081 C1077 1.376 . S
C1081 C1080 1.392 . S
C1081 H1093 0.929 . S
C1082 C1078 1.531 . S
C1082 H1094 0.960 . S
C1082 H1095 0.962 . S
C1082 H1096 0.960 . S
C1083 C1080 1.511 . S
C1083 H1097 0.961 . S
C1083 H1098 0.961 . S
C1083 H1099 0.961 . S
C1084 C1085 1.370 . S
C1084 C1086 1.363 . S
C1084 H1100 0.931 . S
C1085 C1084 1.370 . S
C1085 C1089 1.408 . S
C1086 C1084 1.363 . S
C1086 C1087 1.370 . S
C1086 C1090 1.524 . S
C1087 C1079 1.503 . S
C1087 C1086 1.370 . S
C1087 C1088 1.403 . S
C1088 C1087 1.403 . S
C1088 C1089 1.404 . S
C1088 C1091 1.539 . S
C1089 C1085 1.408 . S
C1089 C1088 1.404 . S
C1089 H1101 0.930 . S
C1090 C1086 1.524 . S
C1090 H1102 0.956 . S
C1090 H1103 0.961 . S
C1090 H1104 0.961 . S
C1091 C1088 1.539 . S
C1091 H1105 0.958 . S
C1091 H1106 0.961 . S
C1091 H1107 0.960 . S
H1092 C1076 0.931 . S
H1093 C1081 0.929 . S
H1094 C1082 0.960 . S
H1095 C1082 0.962 . S
H1096 C1082 0.960 . S
H1097 C1083 0.961 . S
H1098 C1083 0.961 . S
H1099 C1083 0.961 . S
H1100 C1084 0.931 . S
H1101 C1089 0.930 . S
H1102 C1090 0.956 . S
H1103 C1090 0.961 . S
H1104 C1090 0.961 . S
H1105 C1091 0.958 . S
H1106 C1091 0.961 . S
H1107 C1091 0.960 . S
C1108 C1109 1.391 . S
C1108 C1110 1.394 . S
C1108 H1124 0.931 . S
C1109 C1108 1.391 . S
C1109 C1113 1.376 . S
C1110 C1108 1.394 . S
C1110 C1111 1.369 . S
C1110 C1114 1.531 . S
C1111 C1110 1.369 . S
C1111 C1112 1.410 . S
C1111 C1119 1.503 . S
C1112 C1111 1.410 . S
C1112 C1113 1.392 . S
C1112 C1115 1.511 1_554 S
C1113 C1109 1.376 . S
C1113 C1112 1.392 . S
C1113 H1125 0.929 1_554 S
C1114 C1110 1.531 . S
C1114 H1126 0.960 . S
C1114 H1127 0.962 . S
C1114 H1128 0.960 . S
C1115 C1112 1.511 1_556 S
C1115 H1129 0.961 . S
C1115 H1130 0.961 . S
C1115 H1131 0.961 . S
C1116 C1117 1.370 . S
C1116 C1118 1.363 . S
C1116 H1132 0.931 . S
C1117 C1116 1.370 . S
C1117 C1121 1.408 . S
C1118 C1116 1.363 . S
C1118 C1119 1.370 . S
C1118 C1122 1.524 . S
C1119 C1111 1.503 . S
C1119 C1118 1.370 . S
C1119 C1120 1.403 . S
C1120 C1119 1.403 . S
C1120 C1121 1.404 . S
C1120 C1123 1.539 . S
C1121 C1117 1.408 . S
C1121 C1120 1.404 . S
C1121 H1133 0.930 . S
C1122 C1118 1.524 . S
C1122 H1134 0.956 . S
C1122 H1135 0.961 . S
C1122 H1136 0.961 . S
C1123 C1120 1.539 . S
C1123 H1137 0.958 . S
C1123 H1138 0.961 . S
C1123 H1139 0.960 . S
H1124 C1108 0.931 . S
H1125 C1113 0.929 1_556 S
H1126 C1114 0.960 . S
H1127 C1114 0.962 . S
H1128 C1114 0.960 . S
H1129 C1115 0.961 . S
H1130 C1115 0.961 . S
H1131 C1115 0.961 . S
H1132 C1116 0.931 . S
H1133 C1121 0.930 . S
H1134 C1122 0.956 . S
H1135 C1122 0.961 . S
H1136 C1122 0.961 . S
H1137 C1123 0.958 . S
H1138 C1123 0.961 . S
H1139 C1123 0.960 . S
C1140 C1141 1.391 . S
C1140 C1142 1.394 . S
C1140 H1156 0.931 . S
C1141 C1140 1.391 . S
C1141 C1145 1.376 . S
C1142 C1140 1.394 . S
C1142 C1143 1.369 . S
C1142 C1146 1.531 . S
C1143 C1142 1.369 . S
C1143 C1144 1.410 . S
C1143 C1151 1.503 . S
C1144 C1143 1.410 . S
C1144 C1145 1.392 . S
C1144 C1147 1.511 . S
C1145 C1141 1.376 . S
C1145 C1144 1.392 . S
C1145 H1157 0.929 1_556 S
C1146 C1142 1.531 . S
C1146 H1158 0.960 . S
C1146 H1159 0.962 . S
C1146 H1160 0.960 . S
C1147 C1144 1.511 . S
C1147 H1161 0.961 . S
C1147 H1162 0.961 . S
C1147 H1163 0.961 . S
C1148 C1149 1.370 . S
C1148 C1150 1.363 . S
C1148 H1164 0.931 . S
C1149 C1148 1.370 . S
C1149 C1153 1.408 . S
C1150 C1148 1.363 . S
C1150 C1151 1.370 . S
C1150 C1154 1.524 . S
C1151 C1143 1.503 . S
C1151 C1150 1.370 . S
C1151 C1152 1.403 . S
C1152 C1151 1.403 . S
C1152 C1153 1.404 . S
C1152 C1155 1.539 . S
C1153 C1149 1.408 . S
C1153 C1152 1.404 . S
C1153 H1165 0.930 . S
C1154 C1150 1.524 . S
C1154 H1166 0.956 . S
C1154 H1167 0.961 . S
C1154 H1168 0.961 . S
C1155 C1152 1.539 . S
C1155 H1169 0.958 . S
C1155 H1170 0.961 . S
C1155 H1171 0.960 . S
H1156 C1140 0.931 . S
H1157 C1145 0.929 1_554 S
H1158 C1146 0.960 . S
H1159 C1146 0.962 . S
H1160 C1146 0.960 . S
H1161 C1147 0.961 . S
H1162 C1147 0.961 . S
H1163 C1147 0.961 . S
H1164 C1148 0.931 . S
H1165 C1153 0.930 . S
H1166 C1154 0.956 . S
H1167 C1154 0.961 . S
H1168 C1154 0.961 . S
H1169 C1155 0.958 . S
H1170 C1155 0.961 . S
H1171 C1155 0.960 . S
C1172 C1173 1.391 . S
C1172 C1174 1.394 . S
C1172 H1188 0.931 . S
C1173 C1172 1.391 . S
C1173 C1177 1.376 . S
C1174 C1172 1.394 . S
C1174 C1175 1.369 . S
C1174 C1178 1.531 . S
C1175 C1174 1.369 . S
C1175 C1176 1.410 . S
C1175 C1183 1.503 1_556 S
C1176 C1175 1.410 . S
C1176 C1177 1.392 . S
C1176 C1179 1.511 1_655 S
C1177 C1173 1.376 . S
C1177 C1176 1.392 . S
C1177 H1189 0.927 1_655 S
C1178 C1174 1.531 . S
C1178 H1190 0.960 . S
C1178 H1191 0.962 . S
C1178 H1192 0.960 . S
C1179 C1176 1.511 1_455 S
C1179 H1193 0.961 . S
C1179 H1194 0.962 . S
C1179 H1195 0.961 1_556 S
C1180 C1181 1.370 . S
C1180 C1182 1.370 1_454 S
C1180 H1196 0.931 . S
C1181 C1180 1.370 . S
C1181 C1185 1.408 1_455 S
C1182 C1180 1.370 1_656 S
C1182 C1183 1.370 1_556 S
C1182 C1186 1.519 1_655 S
C1183 C1175 1.503 1_554 S
C1183 C1182 1.370 1_554 S
C1183 C1184 1.403 . S
C1184 C1183 1.403 . S
C1184 C1185 1.404 . S
C1184 C1187 1.539 . S
C1185 C1181 1.408 1_655 S
C1185 C1184 1.404 . S
C1185 H1197 0.930 . S
C1186 C1182 1.519 1_455 S
C1186 H1198 0.956 1_455 S
C1186 H1199 0.961 . S
C1186 H1200 0.961 . S
C1187 C1184 1.539 . S
C1187 H1201 0.958 . S
C1187 H1202 0.961 . S
C1187 H1203 0.960 . S
H1188 C1172 0.931 . S
H1189 C1177 0.927 1_455 S
H1190 C1178 0.960 . S
H1191 C1178 0.962 . S
H1192 C1178 0.960 . S
H1193 C1179 0.961 . S
H1194 C1179 0.962 . S
H1195 C1179 0.961 1_554 S
H1196 C1180 0.931 . S
H1197 C1185 0.930 . S
H1198 C1186 0.956 1_655 S
H1199 C1186 0.961 . S
H1200 C1186 0.961 . S
H1201 C1187 0.958 . S
H1202 C1187 0.961 . S
H1203 C1187 0.960 . S
C1204 C1205 1.391 . S
C1204 C1206 1.394 . S
C1204 H1220 0.931 . S
C1205 C1204 1.391 . S
C1205 C1209 1.376 . S
C1206 C1204 1.394 . S
C1206 C1207 1.369 . S
C1206 C1210 1.531 . S
C1207 C1206 1.369 . S
C1207 C1208 1.410 . S
C1207 C1215 1.503 1_556 S
C1208 C1207 1.410 . S
C1208 C1209 1.392 . S
C1208 C1211 1.511 . S
C1209 C1205 1.376 . S
C1209 C1208 1.392 . S
C1209 H1221 0.929 . S
C1210 C1206 1.531 . S
C1210 H1222 0.960 . S
C1210 H1223 0.962 1_556 S
C1210 H1224 0.960 . S
C1211 C1208 1.511 . S
C1211 H1225 0.961 . S
C1211 H1226 0.961 1_556 S
C1211 H1227 0.961 . S
C1212 C1213 1.370 . S
C1212 C1214 1.363 . S
C1212 H1228 0.931 . S
C1213 C1212 1.370 . S
C1213 C1217 1.408 . S
C1214 C1212 1.363 . S
C1214 C1215 1.370 . S
C1214 C1218 1.524 . S
C1215 C1207 1.503 1_554 S
C1215 C1214 1.370 . S
C1215 C1216 1.403 1_554 S
C1216 C1215 1.403 1_556 S
C1216 C1217 1.404 1_556 S
C1216 C1219 1.539 . S
C1217 C1213 1.408 . S
C1217 C1216 1.404 1_554 S
C1217 H1229 0.930 . S
C1218 C1214 1.524 . S
C1218 H1230 0.956 . S
C1218 H1231 0.961 . S
C1218 H1232 0.961 . S
C1219 C1216 1.539 . S
C1219 H1233 0.958 . S
C1219 H1234 0.961 . S
C1219 H1235 0.960 . S
H1220 C1204 0.931 . S
H1221 C1209 0.929 . S
H1222 C1210 0.960 . S
H1223 C1210 0.962 1_554 S
H1224 C1210 0.960 . S
H1225 C1211 0.961 . S
H1226 C1211 0.961 1_554 S
H1227 C1211 0.961 . S
H1228 C1212 0.931 . S
H1229 C1217 0.930 . S
H1230 C1218 0.956 . S
H1231 C1218 0.961 . S
H1232 C1218 0.961 . S
H1233 C1219 0.958 . S
H1234 C1219 0.961 . S
H1235 C1219 0.960 . S
C1236 C1237 1.391 . S
C1236 C1238 1.394 . S
C1236 H1252 0.931 . S
C1237 C1236 1.391 . S
C1237 C1241 1.376 . S
C1238 C1236 1.394 . S
C1238 C1239 1.369 . S
C1238 C1242 1.531 . S
C1239 C1238 1.369 . S
C1239 C1240 1.410 . S
C1239 C1247 1.503 1_556 S
C1240 C1239 1.410 . S
C1240 C1241 1.392 . S
C1240 C1243 1.511 . S
C1241 C1237 1.376 . S
C1241 C1240 1.392 . S
C1241 H1253 0.929 . S
C1242 C1238 1.531 . S
C1242 H1254 0.960 1_556 S
C1242 H1255 0.962 . S
C1242 H1256 0.960 . S
C1243 C1240 1.511 . S
C1243 H1257 0.961 . S
C1243 H1258 0.961 . S
C1243 H1259 0.961 1_556 S
C1244 C1245 1.370 1_556 S
C1244 C1246 1.363 . S
C1244 H1260 0.931 . S
C1245 C1244 1.370 1_554 S
C1245 C1249 1.408 . S
C1246 C1244 1.363 . S
C1246 C1247 1.370 1_556 S
C1246 C1250 1.524 . S
C1247 C1239 1.503 1_554 S
C1247 C1246 1.370 1_554 S
C1247 C1248 1.403 . S
C1248 C1247 1.403 . S
C1248 C1249 1.404 . S
C1248 C1251 1.539 . S
C1249 C1245 1.408 . S
C1249 C1248 1.404 . S
C1249 H1261 0.930 . S
C1250 C1246 1.524 . S
C1250 H1262 0.956 . S
C1250 H1263 0.961 . S
C1250 H1264 0.961 . S
C1251 C1248 1.539 . S
C1251 H1265 0.958 . S
C1251 H1266 0.961 . S
C1251 H1267 0.960 . S
H1252 C1236 0.931 . S
H1253 C1241 0.929 . S
H1254 C1242 0.960 1_554 S
H1255 C1242 0.962 . S
H1256 C1242 0.960 . S
H1257 C1243 0.961 . S
H1258 C1243 0.961 . S
H1259 C1243 0.961 1_554 S
H1260 C1244 0.931 . S
H1261 C1249 0.930 . S
H1262 C1250 0.956 . S
H1263 C1250 0.961 . S
H1264 C1250 0.961 . S
H1265 C1251 0.958 . S
H1266 C1251 0.961 . S
H1267 C1251 0.960 . S
C1268 C1269 1.391 . S
C1268 C1270 1.394 . S
C1268 H1284 0.931 . S
C1269 C1268 1.391 . S
C1269 C1273 1.376 . S
C1270 C1268 1.394 . S
C1270 C1271 1.369 . S
C1270 C1274 1.531 . S
C1271 C1270 1.369 . S
C1271 C1272 1.410 . S
C1271 C1279 1.503 . S
C1272 C1271 1.410 . S
C1272 C1273 1.392 . S
C1272 C1275 1.511 . S
C1273 C1269 1.376 . S
C1273 C1272 1.392 . S
C1273 H1285 0.929 . S
C1274 C1270 1.531 . S
C1274 H1286 0.960 . S
C1274 H1287 0.962 . S
C1274 H1288 0.960 . S
C1275 C1272 1.511 . S
C1275 H1289 0.961 . S
C1275 H1290 0.961 . S
C1275 H1291 0.961 . S
C1276 C1277 1.370 . S
C1276 C1278 1.363 . S
C1276 H1292 0.931 . S
C1277 C1276 1.370 . S
C1277 C1281 1.408 . S
C1278 C1276 1.363 . S
C1278 C1279 1.370 . S
C1278 C1282 1.524 . S
C1279 C1271 1.503 . S
C1279 C1278 1.370 . S
C1279 C1280 1.403 . S
C1280 C1279 1.403 . S
C1280 C1281 1.404 . S
C1280 C1283 1.539 . S
C1281 C1277 1.408 . S
C1281 C1280 1.404 . S
C1281 H1293 0.930 . S
C1282 C1278 1.524 . S
C1282 H1294 0.956 . S
C1282 H1295 0.961 . S
C1282 H1296 0.961 . S
C1283 C1280 1.539 . S
C1283 H1297 0.958 . S
C1283 H1298 0.961 . S
C1283 H1299 0.960 . S
H1284 C1268 0.931 . S
H1285 C1273 0.929 . S
H1286 C1274 0.960 . S
H1287 C1274 0.962 . S
H1288 C1274 0.960 . S
H1289 C1275 0.961 . S
H1290 C1275 0.961 . S
H1291 C1275 0.961 . S
H1292 C1276 0.931 . S
H1293 C1281 0.930 . S
H1294 C1282 0.956 . S
H1295 C1282 0.961 . S
H1296 C1282 0.961 . S
H1297 C1283 0.958 . S
H1298 C1283 0.961 . S
H1299 C1283 0.960 . S
C1300 C1301 1.391 . S
C1300 C1302 1.394 . S
C1300 H1316 0.931 . S
C1301 C1300 1.391 . S
C1301 C1305 1.376 . S
C1302 C1300 1.394 . S
C1302 C1303 1.369 . S
C1302 C1306 1.531 . S
C1303 C1302 1.369 . S
C1303 C1304 1.410 . S
C1303 C1311 1.503 . S
C1304 C1303 1.410 . S
C1304 C1305 1.392 . S
C1304 C1307 1.511 . S
C1305 C1301 1.376 . S
C1305 C1304 1.392 . S
C1305 H1317 0.929 . S
C1306 C1302 1.531 . S
C1306 H1318 0.960 . S
C1306 H1319 0.962 . S
C1306 H1320 0.960 . S
C1307 C1304 1.511 . S
C1307 H1321 0.961 . S
C1307 H1322 0.961 . S
C1307 H1323 0.961 . S
C1308 C1309 1.370 . S
C1308 C1310 1.363 . S
C1308 H1324 0.931 . S
C1309 C1308 1.370 . S
C1309 C1313 1.408 . S
C1310 C1308 1.363 . S
C1310 C1311 1.370 . S
C1310 C1314 1.524 . S
C1311 C1303 1.503 . S
C1311 C1310 1.370 . S
C1311 C1312 1.403 . S
C1312 C1311 1.403 . S
C1312 C1313 1.404 . S
C1312 C1315 1.539 . S
C1313 C1309 1.408 . S
C1313 C1312 1.404 . S
C1313 H1325 0.930 . S
C1314 C1310 1.524 . S
C1314 H1326 0.956 . S
C1314 H1327 0.961 . S
C1314 H1328 0.961 . S
C1315 C1312 1.539 . S
C1315 H1329 0.958 . S
C1315 H1330 0.961 . S
C1315 H1331 0.960 . S
H1316 C1300 0.931 . S
H1317 C1305 0.929 . S
H1318 C1306 0.960 . S
H1319 C1306 0.962 . S
H1320 C1306 0.960 . S
H1321 C1307 0.961 . S
H1322 C1307 0.961 . S
H1323 C1307 0.961 . S
H1324 C1308 0.931 . S
H1325 C1313 0.930 . S
H1326 C1314 0.956 . S
H1327 C1314 0.961 . S
H1328 C1314 0.961 . S
H1329 C1315 0.958 . S
H1330 C1315 0.961 . S
H1331 C1315 0.960 . S
C1332 C1333 1.391 1_556 S
C1332 C1334 1.394 . S
C1332 H1348 0.931 . S
C1333 C1332 1.391 1_554 S
C1333 C1337 1.376 . S
C1334 C1332 1.394 . S
C1334 C1335 1.369 1_556 S
C1334 C1338 1.531 . S
C1335 C1334 1.369 1_554 S
C1335 C1336 1.410 . S
C1335 C1343 1.503 . S
C1336 C1335 1.410 . S
C1336 C1337 1.392 . S
C1336 C1339 1.511 . S
C1337 C1333 1.376 . S
C1337 C1336 1.392 . S
C1337 H1349 0.929 . S
C1338 C1334 1.531 . S
C1338 H1350 0.960 . S
C1338 H1351 0.962 1_545 S
C1338 H1352 0.960 . S
C1339 C1336 1.511 . S
C1339 H1353 0.961 . S
C1339 H1354 0.961 . S
C1339 H1355 0.961 . S
C1340 C1341 1.373 1_565 S
C1340 C1342 1.337 1_565 S
C1340 H1356 0.956 . S
C1341 C1340 1.373 1_545 S
C1341 C1345 1.408 . S
C1342 C1340 1.337 1_545 S
C1342 C1343 1.370 . S
C1342 C1346 1.524 1_545 S
C1343 C1335 1.503 . S
C1343 C1342 1.370 . S
C1343 C1344 1.403 . S
C1344 C1343 1.403 . S
C1344 C1345 1.404 . S
C1344 C1347 1.539 1_554 S
C1345 C1341 1.408 . S
C1345 C1344 1.404 . S
C1345 H1357 0.930 . S
C1346 C1342 1.524 1_565 S
C1346 H1358 0.956 . S
C1346 H1359 0.961 1_565 S
C1346 H1360 0.961 . S
C1347 C1344 1.539 1_556 S
C1347 H1361 0.958 . S
C1347 H1362 0.961 1_556 S
C1347 H1363 0.960 1_556 S
H1348 C1332 0.931 . S
H1349 C1337 0.929 . S
H1350 C1338 0.960 . S
H1351 C1338 0.962 1_565 S
H1352 C1338 0.960 . S
H1353 C1339 0.961 . S
H1354 C1339 0.961 . S
H1355 C1339 0.961 . S
H1356 C1340 0.956 . S
H1357 C1345 0.930 . S
H1358 C1346 0.956 . S
H1359 C1346 0.961 1_545 S
H1360 C1346 0.961 . S
H1361 C1347 0.958 . S
H1362 C1347 0.961 1_554 S
H1363 C1347 0.960 1_554 S
C1364 C1365 1.391 . S
C1364 C1366 1.394 . S
C1364 H1380 0.931 . S
C1365 C1364 1.391 . S
C1365 C1369 1.376 . S
C1366 C1364 1.394 . S
C1366 C1367 1.369 . S
C1366 C1370 1.531 . S
C1367 C1366 1.369 . S
C1367 C1368 1.410 . S
C1367 C1375 1.503 . S
C1368 C1367 1.410 . S
C1368 C1369 1.392 . S
C1368 C1371 1.511 . S
C1369 C1365 1.376 . S
C1369 C1368 1.392 . S
C1369 H1381 0.929 . S
C1370 C1366 1.531 . S
C1370 H1382 0.960 . S
C1370 H1383 0.962 . S
C1370 H1384 0.960 . S
C1371 C1368 1.511 . S
C1371 H1385 0.961 . S
C1371 H1386 0.961 . S
C1371 H1387 0.961 . S
C1372 C1373 1.370 . S
C1372 C1374 1.363 . S
C1372 H1388 0.931 . S
C1373 C1372 1.370 . S
C1373 C1377 1.408 . S
C1374 C1372 1.363 . S
C1374 C1375 1.370 . S
C1374 C1378 1.524 . S
C1375 C1367 1.503 . S
C1375 C1374 1.370 . S
C1375 C1376 1.403 . S
C1376 C1375 1.403 . S
C1376 C1377 1.404 . S
C1376 C1379 1.539 . S
C1377 C1373 1.408 . S
C1377 C1376 1.404 . S
C1377 H1389 0.930 . S
C1378 C1374 1.524 . S
C1378 H1390 0.956 . S
C1378 H1391 0.961 . S
C1378 H1392 0.961 . S
C1379 C1376 1.539 . S
C1379 H1393 0.958 . S
C1379 H1394 0.961 . S
C1379 H1395 0.960 . S
H1380 C1364 0.931 . S
H1381 C1369 0.929 . S
H1382 C1370 0.960 . S
H1383 C1370 0.962 . S
H1384 C1370 0.960 . S
H1385 C1371 0.961 . S
H1386 C1371 0.961 . S
H1387 C1371 0.961 . S
H1388 C1372 0.931 . S
H1389 C1377 0.930 . S
H1390 C1378 0.956 . S
H1391 C1378 0.961 . S
H1392 C1378 0.961 . S
H1393 C1379 0.958 . S
H1394 C1379 0.961 . S
H1395 C1379 0.960 . S
C1396 C1397 1.391 . S
C1396 C1398 1.394 . S
C1396 H1412 0.931 . S
C1397 C1396 1.391 . S
C1397 C1401 1.376 . S
C1398 C1396 1.394 . S
C1398 C1399 1.369 . S
C1398 C1402 1.531 . S
C1399 C1398 1.369 . S
C1399 C1400 1.410 . S
C1399 C1407 1.503 . S
C1400 C1399 1.410 . S
C1400 C1401 1.392 . S
C1400 C1403 1.511 . S
C1401 C1397 1.376 . S
C1401 C1400 1.392 . S
C1401 H1413 0.929 . S
C1402 C1398 1.531 . S
C1402 H1414 0.960 1_554 S
C1402 H1415 0.962 . S
C1402 H1416 0.960 1_554 S
C1403 C1400 1.511 . S
C1403 H1417 0.961 . S
C1403 H1418 0.961 . S
C1403 H1419 0.961 . S
C1404 C1405 1.370 . S
C1404 C1406 1.363 . S
C1404 H1420 0.931 . S
C1405 C1404 1.370 . S
C1405 C1409 1.408 . S
C1406 C1404 1.363 . S
C1406 C1407 1.370 . S
C1406 C1410 1.524 . S
C1407 C1399 1.503 . S
C1407 C1406 1.370 . S
C1407 C1408 1.403 . S
C1408 C1407 1.403 . S
C1408 C1409 1.404 . S
C1408 C1411 1.530 1_554 S
C1409 C1405 1.408 . S
C1409 C1408 1.404 . S
C1409 H1421 0.930 . S
C1410 C1406 1.524 . S
C1410 H1422 0.956 . S
C1410 H1423 0.961 . S
C1410 H1424 0.961 . S
C1411 C1408 1.530 1_556 S
C1411 H1425 0.970 . S
C1411 H1426 0.961 . S
C1411 H1427 0.957 1_556 S
H1412 C1396 0.931 . S
H1413 C1401 0.929 . S
H1414 C1402 0.960 1_556 S
H1415 C1402 0.962 . S
H1416 C1402 0.960 1_556 S
H1417 C1403 0.961 . S
H1418 C1403 0.961 . S
H1419 C1403 0.961 . S
H1420 C1404 0.931 . S
H1421 C1409 0.930 . S
H1422 C1410 0.956 . S
H1423 C1410 0.961 . S
H1424 C1410 0.961 . S
H1425 C1411 0.970 . S
H1426 C1411 0.961 . S
H1427 C1411 0.957 1_554 S
C1428 C1429 1.391 . S
C1428 C1430 1.394 . S
C1428 H1444 0.931 . S
C1429 C1428 1.391 . S
C1429 C1433 1.376 . S
C1430 C1428 1.394 . S
C1430 C1431 1.369 . S
C1430 C1434 1.531 . S
C1431 C1430 1.369 . S
C1431 C1432 1.410 . S
C1431 C1439 1.503 . S
C1432 C1431 1.410 . S
C1432 C1433 1.392 . S
C1432 C1435 1.511 . S
C1433 C1429 1.376 . S
C1433 C1432 1.392 . S
C1433 H1445 0.929 . S
C1434 C1430 1.531 . S
C1434 H1446 0.960 . S
C1434 H1447 0.962 . S
C1434 H1448 0.960 . S
C1435 C1432 1.511 . S
C1435 H1449 0.961 . S
C1435 H1450 0.961 . S
C1435 H1451 0.961 . S
C1436 C1437 1.370 . S
C1436 C1438 1.363 . S
C1436 H1452 0.931 . S
C1437 C1436 1.370 . S
C1437 C1441 1.408 . S
C1438 C1436 1.363 . S
C1438 C1439 1.370 . S
C1438 C1442 1.524 . S
C1439 C1431 1.503 . S
C1439 C1438 1.370 . S
C1439 C1440 1.403 . S
C1440 C1439 1.403 . S
C1440 C1441 1.404 . S
C1440 C1443 1.539 . S
C1441 C1437 1.408 . S
C1441 C1440 1.404 . S
C1441 H1453 0.930 . S
C1442 C1438 1.524 . S
C1442 H1454 0.956 . S
C1442 H1455 0.961 . S
C1442 H1456 0.961 . S
C1443 C1440 1.539 . S
C1443 H1457 0.958 . S
C1443 H1458 0.961 . S
C1443 H1459 0.960 . S
H1444 C1428 0.931 . S
H1445 C1433 0.929 . S
H1446 C1434 0.960 . S
H1447 C1434 0.962 . S
H1448 C1434 0.960 . S
H1449 C1435 0.961 . S
H1450 C1435 0.961 . S
H1451 C1435 0.961 . S
H1452 C1436 0.931 . S
H1453 C1441 0.930 . S
H1454 C1442 0.956 . S
H1455 C1442 0.961 . S
H1456 C1442 0.961 . S
H1457 C1443 0.958 . S
H1458 C1443 0.961 . S
H1459 C1443 0.960 . S
C1460 C1461 1.391 . S
C1460 C1462 1.394 . S
C1460 H1476 0.931 . S
C1461 C1460 1.391 . S
C1461 C1465 1.376 . S
C1462 C1460 1.394 . S
C1462 C1463 1.369 1_545 S
C1462 C1466 1.531 . S
C1463 C1462 1.369 1_565 S
C1463 C1464 1.410 . S
C1463 C1471 1.503 . S
C1464 C1463 1.410 . S
C1464 C1465 1.392 1_565 S
C1464 C1467 1.511 . S
C1465 C1461 1.376 . S
C1465 C1464 1.392 1_545 S
C1465 H1477 0.929 . S
C1466 C1462 1.531 . S
C1466 H1478 0.960 1_545 S
C1466 H1479 0.962 1_545 S
C1466 H1480 0.960 . S
C1467 C1464 1.511 . S
C1467 H1481 0.961 . S
C1467 H1482 0.961 . S
C1467 H1483 0.961 . S
C1468 C1469 1.370 . S
C1468 C1470 1.363 . S
C1468 H1484 0.931 . S
C1469 C1468 1.370 . S
C1469 C1473 1.408 . S
C1470 C1468 1.363 . S
C1470 C1471 1.370 . S
C1470 C1474 1.524 . S
C1471 C1463 1.503 . S
C1471 C1470 1.370 . S
C1471 C1472 1.403 . S
C1472 C1471 1.403 . S
C1472 C1473 1.404 . S
C1472 C1475 1.539 . S
C1473 C1469 1.408 . S
C1473 C1472 1.404 . S
C1473 H1485 0.930 . S
C1474 C1470 1.524 . S
C1474 H1486 0.956 . S
C1474 H1487 0.961 . S
C1474 H1488 0.961 . S
C1475 C1472 1.539 . S
C1475 H1489 0.958 . S
C1475 H1490 0.961 . S
C1475 H1491 0.960 . S
H1476 C1460 0.931 . S
H1477 C1465 0.929 . S
H1478 C1466 0.960 1_565 S
H1479 C1466 0.962 1_565 S
H1480 C1466 0.960 . S
H1481 C1467 0.961 . S
H1482 C1467 0.961 . S
H1483 C1467 0.961 . S
H1484 C1468 0.931 . S
H1485 C1473 0.930 . S
H1486 C1474 0.956 . S
H1487 C1474 0.961 . S
H1488 C1474 0.961 . S
H1489 C1475 0.958 . S
H1490 C1475 0.961 . S
H1491 C1475 0.960 . S
C1492 C1493 1.391 1_655 S
C1492 C1494 1.394 1_655 S
C1492 H1508 0.931 . S
C1493 C1492 1.391 1_455 S
C1493 C1497 1.376 . S
C1494 C1492 1.394 1_455 S
C1494 C1495 1.369 . S
C1494 C1498 1.531 . S
C1495 C1494 1.369 . S
C1495 C1496 1.410 . S
C1495 C1503 1.503 . S
C1496 C1495 1.410 . S
C1496 C1497 1.392 . S
C1496 C1499 1.511 . S
C1497 C1493 1.376 . S
C1497 C1496 1.392 . S
C1497 H1509 0.929 . S
C1498 C1494 1.531 . S
C1498 H1510 0.960 . S
C1498 H1511 0.962 1_455 S
C1498 H1512 0.960 1_455 S
C1499 C1496 1.511 . S
C1499 H1513 0.961 . S
C1499 H1514 0.961 . S
C1499 H1515 0.961 . S
C1500 C1501 1.370 . S
C1500 C1502 1.363 . S
C1500 H1516 0.931 . S
C1501 C1500 1.370 . S
C1501 C1505 1.408 . S
C1502 C1500 1.363 . S
C1502 C1503 1.370 . S
C1502 C1506 1.524 . S
C1503 C1495 1.503 . S
C1503 C1502 1.370 . S
C1503 C1504 1.403 . S
C1504 C1503 1.403 . S
C1504 C1505 1.404 . S
C1504 C1507 1.539 . S
C1505 C1501 1.408 . S
C1505 C1504 1.404 . S
C1505 H1517 0.930 . S
C1506 C1502 1.524 . S
C1506 H1518 0.956 . S
C1506 H1519 0.961 . S
C1506 H1520 0.961 . S
C1507 C1504 1.539 . S
C1507 H1521 0.958 . S
C1507 H1522 0.961 . S
C1507 H1523 0.960 . S
H1508 C1492 0.931 . S
H1509 C1497 0.929 . S
H1510 C1498 0.960 . S
H1511 C1498 0.962 1_655 S
H1512 C1498 0.960 1_655 S
H1513 C1499 0.961 . S
H1514 C1499 0.961 . S
H1515 C1499 0.961 . S
H1516 C1500 0.931 . S
H1517 C1505 0.930 . S
H1518 C1506 0.956 . S
H1519 C1506 0.961 . S
H1520 C1506 0.961 . S
H1521 C1507 0.958 . S
H1522 C1507 0.961 . S
H1523 C1507 0.960 . S
C1524 C1525 1.391 . S
C1524 C1526 1.394 . S
C1524 H1540 0.931 . S
C1525 C1524 1.391 . S
C1525 C1529 1.376 . S
C1526 C1524 1.394 . S
C1526 C1527 1.369 . S
C1526 C1530 1.531 . S
C1527 C1526 1.369 . S
C1527 C1528 1.410 . S
C1527 C1535 1.503 . S
C1528 C1527 1.410 . S
C1528 C1529 1.392 . S
C1528 C1531 1.511 . S
C1529 C1525 1.376 . S
C1529 C1528 1.392 . S
C1529 H1541 0.929 . S
C1530 C1526 1.531 . S
C1530 H1542 0.960 . S
C1530 H1543 0.962 . S
C1530 H1544 0.960 . S
C1531 C1528 1.511 . S
C1531 H1545 0.961 . S
C1531 H1546 0.961 . S
C1531 H1547 0.961 . S
C1532 C1533 1.370 . S
C1532 C1534 1.363 . S
C1532 H1548 0.931 . S
C1533 C1532 1.370 . S
C1533 C1537 1.408 . S
C1534 C1532 1.363 . S
C1534 C1535 1.370 . S
C1534 C1538 1.524 . S
C1535 C1527 1.503 . S
C1535 C1534 1.370 . S
C1535 C1536 1.403 . S
C1536 C1535 1.403 . S
C1536 C1537 1.404 . S
C1536 C1539 1.539 . S
C1537 C1533 1.408 . S
C1537 C1536 1.404 . S
C1537 H1549 0.930 . S
C1538 C1534 1.524 . S
C1538 H1550 0.956 . S
C1538 H1551 0.961 . S
C1538 H1552 0.961 . S
C1539 C1536 1.539 . S
C1539 H1553 0.958 . S
C1539 H1554 0.961 . S
C1539 H1555 0.960 . S
H1540 C1524 0.931 . S
H1541 C1529 0.929 . S
H1542 C1530 0.960 . S
H1543 C1530 0.962 . S
H1544 C1530 0.960 . S
H1545 C1531 0.961 . S
H1546 C1531 0.961 . S
H1547 C1531 0.961 . S
H1548 C1532 0.931 . S
H1549 C1537 0.930 . S
H1550 C1538 0.956 . S
H1551 C1538 0.961 . S
H1552 C1538 0.961 . S
H1553 C1539 0.958 . S
H1554 C1539 0.961 . S
H1555 C1539 0.960 . S
C1556 C1557 1.392 1_545 S
C1556 C1558 1.396 . S
C1556 H1572 0.928 1_545 S
C1557 C1556 1.392 1_565 S
C1557 C1561 1.376 1_565 S
C1558 C1556 1.396 . S
C1558 C1559 1.369 . S
C1558 C1562 1.531 . S
C1559 C1558 1.369 . S
C1559 C1560 1.410 . S
C1559 C1567 1.503 . S
C1560 C1559 1.410 . S
C1560 C1561 1.392 . S
C1560 C1563 1.511 . S
C1561 C1557 1.376 1_545 S
C1561 C1560 1.392 . S
C1561 H1573 0.929 . S
C1562 C1558 1.531 . S
C1562 H1574 0.960 . S
C1562 H1575 0.962 . S
C1562 H1576 0.960 . S
C1563 C1560 1.511 . S
C1563 H1577 0.961 . S
C1563 H1578 0.961 . S
C1563 H1579 0.961 . S
C1564 C1565 1.370 . S
C1564 C1566 1.363 . S
C1564 H1580 0.931 . S
C1565 C1564 1.370 . S
C1565 C1569 1.408 . S
C1566 C1564 1.363 . S
C1566 C1567 1.370 . S
C1566 C1570 1.524 . S
C1567 C1559 1.503 . S
C1567 C1566 1.370 . S
C1567 C1568 1.403 . S
C1568 C1567 1.403 . S
C1568 C1569 1.404 . S
C1568 C1571 1.539 . S
C1569 C1565 1.408 . S
C1569 C1568 1.404 . S
C1569 H1581 0.930 . S
C1570 C1566 1.524 . S
C1570 H1582 0.956 . S
C1570 H1583 0.961 . S
C1570 H1584 0.961 . S
C1571 C1568 1.539 . S
C1571 H1585 0.958 . S
C1571 H1586 0.961 . S
C1571 H1587 0.960 . S
H1572 C1556 0.928 1_565 S
H1573 C1561 0.929 . S
H1574 C1562 0.960 . S
H1575 C1562 0.962 . S
H1576 C1562 0.960 . S
H1577 C1563 0.961 . S
H1578 C1563 0.961 . S
H1579 C1563 0.961 . S
H1580 C1564 0.931 . S
H1581 C1569 0.930 . S
H1582 C1570 0.956 . S
H1583 C1570 0.961 . S
H1584 C1570 0.961 . S
H1585 C1571 0.958 . S
H1586 C1571 0.961 . S
H1587 C1571 0.960 . S
C1588 C1589 1.391 . S
C1588 C1590 1.394 . S
C1588 H1604 0.931 . S
C1589 C1588 1.391 . S
C1589 C1593 1.376 . S
C1590 C1588 1.394 . S
C1590 C1591 1.369 . S
C1590 C1594 1.531 . S
C1591 C1590 1.369 . S
C1591 C1592 1.410 . S
C1591 C1599 1.503 . S
C1592 C1591 1.410 . S
C1592 C1593 1.392 . S
C1592 C1595 1.511 . S
C1593 C1589 1.376 . S
C1593 C1592 1.392 . S
C1593 H1605 0.929 . S
C1594 C1590 1.531 . S
C1594 H1606 0.960 . S
C1594 H1607 0.962 . S
C1594 H1608 0.960 . S
C1595 C1592 1.511 . S
C1595 H1609 0.961 . S
C1595 H1610 0.961 . S
C1595 H1611 0.961 . S
C1596 C1597 1.370 . S
C1596 C1598 1.363 . S
C1596 H1612 0.931 . S
C1597 C1596 1.370 . S
C1597 C1601 1.408 1_455 S
C1598 C1596 1.363 . S
C1598 C1599 1.370 1_455 S
C1598 C1602 1.524 . S
C1599 C1591 1.503 . S
C1599 C1598 1.370 1_655 S
C1599 C1600 1.403 . S
C1600 C1599 1.403 . S
C1600 C1601 1.404 . S
C1600 C1603 1.539 . S
C1601 C1597 1.408 1_655 S
C1601 C1600 1.404 . S
C1601 H1613 0.930 . S
C1602 C1598 1.524 . S
C1602 H1614 0.956 . S
C1602 H1615 0.961 . S
C1602 H1616 0.961 . S
C1603 C1600 1.539 . S
C1603 H1617 0.958 . S
C1603 H1618 0.961 . S
C1603 H1619 0.960 . S
H1604 C1588 0.931 . S
H1605 C1593 0.929 . S
H1606 C1594 0.960 . S
H1607 C1594 0.962 . S
H1608 C1594 0.960 . S
H1609 C1595 0.961 . S
H1610 C1595 0.961 . S
H1611 C1595 0.961 . S
H1612 C1596 0.931 . S
H1613 C1601 0.930 . S
H1614 C1602 0.956 . S
H1615 C1602 0.961 . S
H1616 C1602 0.961 . S
H1617 C1603 0.958 . S
H1618 C1603 0.961 . S
H1619 C1603 0.960 . S
C757 C74 3.283 1_556 S
C765 C63 3.298 . S
C789 C158 3.332 . S
C797 C147 3.365 . S
C821 C242 3.349 . S
C829 C231 3.334 . S
C853 C315 3.246 . S
C861 C326 3.263 1_556 S
C885 C392 3.411 . S
C893 C403 3.396 1_556 S
C917 C483 3.243 . S
C925 C494 3.272 1_556 S
C949 C562 2.552 . S
C957 C574 2.574 . S
C981 C658 2.006 . S
C989 C646 2.018 1_556 S
C1013 C730 1.580 . S
C1021 C742 1.532 . S
C1045 C476 1.945 . S
C1053 C58 1.646 . S
C1077 C142 1.494 . S
C1085 C308 1.828 . S
C1109 C226 1.216 . S
C1117 C406 1.297 . S
C1141 C224 1.992 . S
C1149 C571 2.275 . S
C1173 C651 1.801 . S
C1181 C56 1.598 . S
C1205 C739 1.853 . S
C1213 C140 1.674 . S
C1237 C746 0.993 . S
C1245 C70 0.923 . S
C1269 C154 1.395 . S
C1277 C578 1.426 . S
C1301 C644 1.551 . S
C1309 C238 1.571 . S
C1333 C235 1.810 . S
C1341 C322 1.596 1_545 S
C1365 C399 2.534 . S
C1373 C67 2.445 . S
C1397 C151 1.973 . S
C1405 C490 1.781 . S
C1429 C735 1.584 . S
C1437 C310 1.572 . S
C1461 C567 1.818 . S
C1469 C410 1.713 . S
C1493 C655 1.716 1_455 S
C1501 C478 1.809 . S
C1525 C560 2.044 . S
C1533 C487 2.013 . S
C1557 C319 1.351 . S
C1565 C662 1.430 . S
C1589 C728 1.284 . S
C1597 C394 1.373 . S
