# Generated by pormake.
# Topology bsn, (6)-cn, num edge types: 1
# Building blocks:
#     Node 0, Type 0, BuildingBlock: JUFBIX_clean_sbu_0, # of connection points: 6
#     Node 1, Type 0, BuildingBlock: JUFBIX_clean_sbu_0, # of connection points: 6
#     Node 2, Type 0, BuildingBlock: JUFBIX_clean_sbu_0, # of connection points: 6
#     Node 3, Type 0, BuildingBlock: JUFBIX_clean_sbu_0, # of connection points: 6
#     Edge 4, Type (0, 0), BuildingBlock: MIFKUJ_clean_linker_0, # of connection points: 2
#     Edge 5, Type (0, 0), BuildingBlock: MIFKUJ_clean_linker_0, # of connection points: 2
#     Edge 6, Type (0, 0), BuildingBlock: MIFKUJ_clean_linker_0, # of connection points: 2
#     Edge 7, Type (0, 0), BuildingBlock: MIFKUJ_clean_linker_0, # of connection points: 2
#     Edge 8, Type (0, 0), BuildingBlock: MIFKUJ_clean_linker_0, # of connection points: 2
#     Edge 9, Type (0, 0), BuildingBlock: MIFKUJ_clean_linker_0, # of connection points: 2
#     Edge 10, Type (0, 0), BuildingBlock: MIFKUJ_clean_linker_0, # of connection points: 2
#     Edge 11, Type (0, 0), BuildingBlock: MIFKUJ_clean_linker_0, # of connection points: 2
#     Edge 12, Type (0, 0), BuildingBlock: MIFKUJ_clean_linker_0, # of connection points: 2
#     Edge 13, Type (0, 0), BuildingBlock: MIFKUJ_clean_linker_0, # of connection points: 2
#     Edge 14, Type (0, 0), BuildingBlock: MIFKUJ_clean_linker_0, # of connection points: 2
#     Edge 15, Type (0, 0), BuildingBlock: MIFKUJ_clean_linker_0, # of connection points: 2
# Relax obj value: 0.111
# Max RMSD: 0.166
# Mean RMSD: 0.166
data_MOF--net-bsn--node1-JUFBIX_clean_sbu_0--edge1-MIFKUJ_clean_linker_0
_symmetry_space_group_name_H-M    P1
_symmetry_Int_Tables_number       1
_symmetry_cell_setting            triclinic
loop_
_symmetry_equiv_pos_as_xyz
'x, y, z'
_cell_length_a     37.083
_cell_length_b     47.194951
_cell_length_c     19.042293
_cell_angle_alpha  87.917126
_cell_angle_beta   92.537195
_cell_angle_gamma 99.314453
loop_
_atom_site_label
_atom_site_type_symbol
_atom_site_fract_x
_atom_site_fract_y
_atom_site_fract_z
_atom_type_partial_charge
Co0 Co 1.02401 0.26463 0.36091 0.0
C1 C 0.04088 0.29432 0.48514 0.0
Co2 Co 0.03445 0.31202 0.34898 0.0
C3 C 1.02428 0.20221 0.35978 0.0
C4 C 0.98291 0.21463 0.42155 0.0
N5 N 1.01056 0.22545 0.37954 0.0
N6 N 1.00556 0.17753 0.38686 0.0
C7 C 0.9796 0.18537 0.42558 0.0
H8 H 0.04761 0.20334 0.32696 0.0
H9 H 0.96662 0.22723 0.44946 0.0
C10 C 1.01806 0.28222 0.22488 0.0
N11 N 0.04667 0.35115 0.33247 0.0
C12 C 0.03674 0.3726 0.36833 0.0
C13 C 0.06776 0.3644 0.28127 0.0
N14 N 0.05076 0.39875 0.34152 0.0
C15 C 0.07029 0.39364 0.28663 0.0
C16 C 0.09581 0.28387 0.34074 0.0
O17 O 1.01582 0.25959 0.26373 0.0
O18 O 1.02564 0.30673 0.25214 0.0
O19 O 0.08422 0.30784 0.33955 0.0
O20 O 0.07356 0.26078 0.35162 0.0
O21 O 0.04303 0.31688 0.44626 0.0
H22 H 0.08062 0.35346 0.24273 0.0
H23 H 1.01921 0.369 0.41282 0.0
O24 O 0.0327 0.26987 0.4579 0.0
O25 O 0.97439 0.26916 0.36802 0.0
O26 O 0.98466 0.31598 0.35724 0.0
C27 C 0.96229 0.29281 0.36461 0.0
H28 H 0.96062 0.17098 0.4572 0.0
H29 H 0.08585 0.40983 0.25344 0.0
Co30 Co 0.03194 0.76031 0.59642 0.0
C31 C 0.02905 0.78859 0.72144 0.0
Co32 Co 0.04569 0.8077 0.58991 0.0
C33 C 0.02928 0.69983 0.5743 0.0
C34 C 0.99038 0.70766 0.6481 0.0
N35 N 1.01684 0.72111 0.60663 0.0
N36 N 1.01172 0.67365 0.59416 0.0
C37 C 0.98729 0.67847 0.64079 0.0
H38 H 0.05097 0.70348 0.53722 0.0
H39 H 0.9741 0.7184 0.68103 0.0
C40 C 0.04838 0.77964 0.46446 0.0
N41 N 0.06198 0.84692 0.57758 0.0
C42 C 0.04522 0.87011 0.58329 0.0
C43 C 0.09508 0.85768 0.55253 0.0
N44 N 0.06694 0.89476 0.56349 0.0
C45 C 0.09826 0.88683 0.54434 0.0
C46 C 0.10482 0.77809 0.6227 0.0
O47 O 0.03871 0.75665 0.50008 0.0
O48 O 0.05249 0.80358 0.49424 0.0
O49 O 0.09454 0.80227 0.61184 0.0
O50 O 0.08131 0.7554 0.61792 0.0
O51 O 0.03877 0.81165 0.68585 0.0
H52 H 0.11521 0.84504 0.5377 0.0
H53 H 1.01746 0.86888 0.59991 0.0
O54 O 1.02526 0.76454 0.692 0.0
O55 O 0.98275 0.76534 0.57655 0.0
O56 O 0.99618 0.81237 0.56988 0.0
C57 C 0.97235 0.78969 0.56863 0.0
H58 H 0.96798 0.66211 0.66645 0.0
H59 H 0.12116 0.90094 0.5221 0.0
Co60 Co 0.53963 0.76813 0.82542 0.0
C61 C 0.55776 0.78862 0.95684 0.0
Co62 Co 0.55028 0.81587 0.82652 0.0
C63 C 0.539 0.70626 0.85733 0.0
C64 C 0.49911 0.71541 0.77876 0.0
N65 N 0.52669 0.72824 0.82094 0.0
N66 N 0.51994 0.68034 0.83939 0.0
C67 C 0.49505 0.68625 0.7896 0.0
H68 H 0.56076 0.7093 0.89745 0.0
H69 H 0.4824 0.72661 0.74297 0.0
C70 C 0.53182 0.7956 0.6951 0.0
N71 N 0.56216 0.85582 0.82855 0.0
C72 C 0.5504 0.87493 0.86995 0.0
C73 C 0.58562 0.87199 0.78536 0.0
N74 N 0.56592 0.90233 0.85444 0.0
C75 C 0.58806 0.90041 0.80118 0.0
C76 C 0.61142 0.78959 0.8022 0.0
O77 O 0.53008 0.7715 0.72751 0.0
O78 O 0.54055 0.81851 0.7289 0.0
O79 O 0.59992 0.81322 0.81002 0.0
O80 O 0.58931 0.76608 0.80843 0.0
O81 O 0.55988 0.81283 0.92428 0.0
H82 H 0.59988 0.86365 0.74436 0.0
H83 H 0.5311 0.86883 0.91097 0.0
O84 O 0.54927 0.76557 0.92307 0.0
O85 O 0.49026 0.77061 0.84169 0.0
O86 O 0.50034 0.81771 0.84177 0.0
C87 C 0.47826 0.79416 0.84642 0.0
H88 H 0.47518 0.67063 0.76252 0.0
H89 H 0.60431 0.91835 0.77436 0.0
Co90 Co 0.514 0.25967 0.12098 0.0
C91 C 0.50716 0.2822 0.24945 0.0
Co92 Co 0.52474 0.30742 0.11994 0.0
C93 C 0.51688 0.19983 0.08716 0.0
C94 C 0.47377 0.20442 0.15485 0.0
N95 N 0.50182 0.21971 0.12038 0.0
N96 N 0.49912 0.17276 0.09948 0.0
C97 C 0.47209 0.17577 0.14236 0.0
H98 H 0.53998 0.20523 0.05368 0.0
H99 H 0.45551 0.21357 0.18701 0.0
C100 C 0.5309 0.2849 -0.00854 0.0
N101 N 0.5372 0.34729 0.12307 0.0
C102 C 0.52931 0.36865 0.07843 0.0
C103 C 0.55908 0.36082 0.17416 0.0
N104 N 0.54584 0.39485 0.09967 0.0
C105 C 0.56444 0.38985 0.15998 0.0
C106 C 0.58606 0.28037 0.14965 0.0
O107 O 0.52262 0.26105 0.02469 0.0
O108 O 0.53342 0.30832 0.02359 0.0
O109 O 0.57423 0.30409 0.14091 0.0
O110 O 0.56394 0.25697 0.14245 0.0
O111 O 0.51559 0.30597 0.21633 0.0
H112 H 0.57079 0.35017 0.21878 0.0
H113 H 0.51255 0.365 0.03061 0.0
O114 O 0.50545 0.2589 0.21747 0.0
O115 O 0.46406 0.26302 0.10051 0.0
O116 O 0.47514 0.31019 0.09982 0.0
C117 C 0.45246 0.28699 0.09469 0.0
H118 H 0.45257 0.1585 0.16405 0.0
H119 H 0.58063 0.40608 0.19201 0.0
H120 H 0.05379 0.44869 0.26547 0.0
H121 H 0.04758 0.49569 0.30865 0.0
H122 H 0.03118 0.45865 0.51751 0.0
H123 H 0.0375 0.41157 0.47472 0.0
H124 H 0.98275 0.49438 0.48202 0.0
H125 H 0.11311 0.49779 0.47426 0.0
H126 H 0.17068 0.49374 0.41819 0.0
H127 H 0.15206 0.55987 0.2664 0.0
H128 H 0.09411 0.56404 0.321 0.0
H129 H 1.00491 0.62325 0.66795 0.0
H130 H 1.01205 0.57641 0.62463 0.0
H131 H 0.03663 0.61514 0.41987 0.0
H132 H 0.03037 0.66214 0.46373 0.0
H133 H 0.08074 0.57844 0.45215 0.0
H134 H 0.95102 0.57546 0.45705 0.0
H135 H 0.89262 0.57961 0.50979 0.0
H136 H 0.90855 0.513 0.66218 0.0
H137 H 0.96732 0.50872 0.61092 0.0
C138 C 0.04917 0.45056 0.32069 0.0
C139 C 0.04633 0.42637 0.3667 0.0
C140 C 0.04557 0.47744 0.34528 0.0
C141 C 0.03938 0.48073 0.41647 0.0
C142 C 0.03595 0.45658 0.46234 0.0
C143 C 0.03945 0.42966 0.43775 0.0
C144 C 0.03634 0.50934 0.44311 0.0
C145 C 1.00436 0.51269 0.47637 0.0
C146 C 0.06413 0.53338 0.4339 0.0
C147 C 0.09911 0.53103 0.40134 0.0
C148 C 0.12116 0.51132 0.42862 0.0
C149 C 0.15388 0.50903 0.39715 0.0
C150 C 0.16497 0.52649 0.33867 0.0
C151 C 0.14341 0.54634 0.31165 0.0
C152 C 0.11065 0.54869 0.34288 0.0
C153 C 1.01172 0.6217 0.61368 0.0
C154 C 1.01691 0.64626 0.56909 0.0
C155 C 1.01572 0.59494 0.5889 0.0
C156 C 1.02421 0.59213 0.51858 0.0
C157 C 0.03002 0.61676 0.47428 0.0
C158 C 1.02651 0.6436 0.49936 0.0
C159 C 1.02712 0.56354 0.49129 0.0
C160 C 0.05907 0.56017 0.45785 0.0
C161 C 0.99916 0.53952 0.49983 0.0
C162 C 0.96374 0.54196 0.53053 0.0
C163 C 0.9422 0.56184 0.50211 0.0
C164 C 0.90901 0.56419 0.53169 0.0
C165 C 0.89693 0.54663 0.5894 0.0
C166 C 0.91797 0.52662 0.61753 0.0
C167 C 0.9512 0.5242 0.58819 0.0
H168 H 0.87123 0.54849 0.61224 0.0
H169 H 0.19031 0.52468 0.31437 0.0
H170 H 0.66077 0.83624 0.7633 0.0
H171 H 0.72101 0.83683 0.71612 0.0
H172 H 0.70834 0.74466 0.74213 0.0
H173 H 0.64762 0.74378 0.78916 0.0
H174 H 0.77801 0.77331 0.78641 0.0
H175 H 0.69473 0.77172 0.58562 0.0
H176 H 0.646 0.78837 0.51038 0.0
H177 H 0.71363 0.87035 0.4796 0.0
H178 H 0.76255 0.8544 0.55572 0.0
H179 H 0.91599 0.74493 0.57533 0.0
H180 H 0.85339 0.74679 0.60612 0.0
H181 H 0.87582 0.83933 0.59856 0.0
H182 H 0.93917 0.8378 0.56857 0.0
H183 H 0.80162 0.81172 0.54355 0.0
H184 H 0.8843 0.81395 0.74551 0.0
H185 H 0.93378 0.79729 0.81854 0.0
H186 H 0.86741 0.71463 0.84714 0.0
H187 H 0.81786 0.73055 0.77262 0.0
C188 C 0.67083 0.81606 0.75969 0.0
C189 C 0.64929 0.78992 0.77991 0.0
C190 C 0.70523 0.81646 0.73232 0.0
C191 C 0.71894 0.79078 0.72486 0.0
C192 C 0.69816 0.76472 0.74726 0.0
C193 C 0.6635 0.76425 0.77409 0.0
C194 C 0.75473 0.7912 0.69259 0.0
C195 C 0.78302 0.78139 0.73307 0.0
C196 C 0.76147 0.8024 0.62346 0.0
C197 C 0.73217 0.81197 0.57715 0.0
C198 C 0.6991 0.7934 0.56338 0.0
C199 C 0.67146 0.80269 0.52047 0.0
C200 C 0.67667 0.83044 0.49054 0.0
C201 C 0.70961 0.84889 0.50304 0.0
C202 C 0.73731 0.83973 0.54604 0.0
C203 C 0.90755 0.76576 0.57845 0.0
C204 C 0.9328 0.79125 0.57031 0.0
C205 C 0.8717 0.76673 0.59615 0.0
C206 C 0.86022 0.79316 0.6055 0.0
C207 C 0.88429 0.81872 0.59164 0.0
C208 C 0.92044 0.81779 0.57451 0.0
C209 C 0.82464 0.79374 0.63735 0.0
C210 C 0.79651 0.80373 0.59692 0.0
C211 C 0.81802 0.78283 0.70664 0.0
C212 C 0.84749 0.77335 0.75276 0.0
C213 C 0.88037 0.79212 0.76674 0.0
C214 C 0.90845 0.78282 0.80842 0.0
C215 C 0.90376 0.75491 0.83736 0.0
C216 C 0.871 0.73624 0.82463 0.0
C217 C 0.84292 0.74538 0.7826 0.0
H218 H 0.92547 0.74777 0.86978 0.0
H219 H 0.65519 0.83766 0.45767 0.0
H220 H 0.48945 0.41219 0.02282 0.0
H221 H 0.48646 0.46083 -0.02477 0.0
H222 H 0.59705 0.48895 0.05311 0.0
H223 H 0.59987 0.44072 0.10117 0.0
H224 H 0.55621 0.52616 0.08602 0.0
H225 H 0.57449 0.47888 0.87487 0.0
H226 H 0.56154 0.44149 0.78597 0.0
H227 H 0.45517 0.46426 0.74171 0.0
H228 H 0.46729 0.50155 0.83108 0.0
H229 H 0.5808 0.66313 0.90149 0.0
H230 H 0.58717 0.61442 0.94418 0.0
H231 H 0.47437 0.5847 0.88356 0.0
H232 H 0.46763 0.63297 0.84224 0.0
H233 H 0.51819 0.54866 0.84007 0.0
H234 H 0.49993 0.5951 0.05384 0.0
H235 H 0.51339 0.63262 0.14236 0.0
H236 H 0.62101 0.61142 0.18051 0.0
H237 H 0.60835 0.57402 0.09145 0.0
C238 C 0.51322 0.42869 0.02885 0.0
C239 C 0.54477 0.42265 0.06617 0.0
C240 C 0.51154 0.4565 0.00169 0.0
C241 C 0.54161 0.47866 0.01035 0.0
C242 C 0.57338 0.47238 0.04616 0.0
C243 C 0.57495 0.44476 0.0737 0.0
C244 C 0.5398 0.50862 -0.01561 0.0
C245 C 0.54842 0.53107 0.03191 0.0
C246 C 0.52898 0.51513 0.91418 0.0
C247 C 0.52167 0.49282 0.86016 0.0
C248 C 0.54823 0.47578 0.84655 0.0
C249 C 0.54106 0.45462 0.79602 0.0
C250 C 0.50752 0.45045 0.75835 0.0
C251 C 0.48112 0.46749 0.771 0.0
C252 C 0.48814 0.48865 0.82154 0.0
C253 C 0.55728 0.6463 0.89795 0.0
C254 C 0.52381 0.65206 0.86771 0.0
C255 C 0.56098 0.61843 0.92214 0.0
C256 C 0.53123 0.59584 0.91688 0.0
C257 C 0.4978 0.60165 0.88749 0.0
C258 C 0.49407 0.62937 0.8636 0.0
C259 C 0.53459 0.56607 0.94171 0.0
C260 C 0.52618 0.54368 0.89403 0.0
C261 C 0.54574 0.55961 0.01166 0.0
C262 C 0.55333 0.58198 0.06544 0.0
C263 C 0.52657 0.5986 0.0807 0.0
C264 C 0.53403 0.61981 0.13104 0.0
C265 C 0.56807 0.62446 0.16688 0.0
C266 C 0.59468 0.60783 0.15261 0.0
C267 C 0.58737 0.58661 0.10224 0.0
H268 H 0.5738 0.64089 0.20584 0.0
H269 H 0.50202 0.43406 0.71925 0.0
H270 H 0.92515 0.33819 0.33883 0.0
H271 H 0.85933 0.33544 0.31308 0.0
H272 H 0.84367 0.24388 0.35402 0.0
H273 H 0.90898 0.24635 0.37993 0.0
H274 H 0.81536 0.25849 0.22467 0.0
H275 H 0.81142 0.285 0.46433 0.0
H276 H 0.82931 0.31442 0.56837 0.0
H277 H 0.79588 0.38755 0.45877 0.0
H278 H 0.77827 0.35867 0.35364 0.0
H279 H 0.62039 0.23437 0.18696 0.0
H280 H 0.68364 0.23585 0.23173 0.0
H281 H 0.70214 0.32827 0.20781 0.0
H282 H 0.6392 0.32705 0.16421 0.0
H283 H 0.7284 0.31189 0.33294 0.0
H284 H 0.73563 0.28692 0.09211 0.0
H285 H 0.71876 0.25845 -0.01386 0.0
H286 H 0.7472 0.18357 0.09583 0.0
H287 H 0.76378 0.21152 0.20281 0.0
C288 C 0.90756 0.31759 0.34383 0.0
C289 C 0.92233 0.29248 0.36082 0.0
C290 C 0.87 0.31605 0.3291 0.0
C291 C 0.84675 0.28941 0.33131 0.0
C292 C 0.86121 0.26459 0.35164 0.0
C293 C 0.89858 0.26611 0.36662 0.0
C294 C 0.80796 0.28695 0.30694 0.0
C295 C 0.79615 0.26979 0.24904 0.0
C296 C 0.78331 0.30229 0.3377 0.0
C297 C 0.79387 0.31973 0.40084 0.0
C298 C 0.8082 0.30743 0.46216 0.0
C299 C 0.81822 0.32399 0.52139 0.0
C300 C 0.81383 0.35286 0.52012 0.0
C301 C 0.79932 0.3652 0.45965 0.0
C302 C 0.78928 0.34873 0.40024 0.0
C303 C 0.63804 0.25496 0.19074 0.0
C304 C 0.62479 0.28056 0.17193 0.0
C305 C 0.67415 0.25579 0.21631 0.0
C306 C 0.6976 0.28219 0.22291 0.0
C307 C 0.68447 0.30769 0.20349 0.0
C308 C 0.6485 0.3069 0.17817 0.0
C309 C 0.7358 0.28347 0.2505 0.0
C310 C 0.74754 0.30045 0.30885 0.0
C311 C 0.76052 0.26809 0.21991 0.0
C312 C 0.75054 0.25123 0.15569 0.0
C313 C 0.73798 0.26432 0.09382 0.0
C314 C 0.72853 0.24829 0.03353 0.0
C315 C 0.7318 0.2192 0.03432 0.0
C316 C 0.74462 0.20609 0.09534 0.0
C317 C 0.75406 0.22202 0.1558 0.0
H318 H 0.72448 0.20683 -0.01241 0.0
H319 H 0.82159 0.36564 0.56604 0.0
H320 H 0.41815 0.33384 0.10193 0.0
H321 H 0.35459 0.33342 0.13113 0.0
H322 H 0.33335 0.24119 0.1176 0.0
H323 H 0.39683 0.24131 0.08806 0.0
H324 H 0.2723 0.26951 0.07224 0.0
H325 H 0.35896 0.26493 0.26938 0.0
H326 H 0.41768 0.28264 0.33126 0.0
H327 H 0.38465 0.36492 0.35216 0.0
H328 H 0.32587 0.34778 0.28948 0.0
H329 H 0.12533 0.23734 0.30309 0.0
H330 H 0.18528 0.23784 0.25351 0.0
H331 H 0.2115 0.32917 0.28276 0.0
H332 H 0.1518 0.32889 0.33228 0.0
H333 H 0.2698 0.30149 0.31742 0.0
H334 H 0.1813 0.30547 0.12744 0.0
H335 H 0.12437 0.28942 0.05811 0.0
H336 H 0.16106 0.20995 0.01874 0.0
H337 H 0.2179 0.22525 0.08916 0.0
C338 C 0.39974 0.31353 0.10299 0.0
C339 C 0.41271 0.28755 0.09397 0.0
C340 C 0.36343 0.31335 0.11974 0.0
C341 C 0.33959 0.28723 0.12772 0.0
C342 C 0.35143 0.26154 0.11188 0.0
C343 C 0.38777 0.26168 0.09526 0.0
C344 C 0.30455 0.28632 0.16258 0.0
C345 C 0.27162 0.27621 0.126 0.0
C346 C 0.30392 0.2954 0.23248 0.0
C347 C 0.33818 0.30517 0.27417 0.0
C348 C 0.36426 0.28682 0.28703 0.0
C349 C 0.39761 0.29678 0.32198 0.0
C350 C 0.40506 0.32499 0.34486 0.0
C351 C 0.37894 0.34315 0.33384 0.0
C352 C 0.34557 0.3333 0.29878 0.0
C353 C 0.14413 0.25742 0.30019 0.0
C354 C 0.13378 0.2831 0.32131 0.0
C355 C 0.17823 0.25771 0.27138 0.0
C356 C 0.20254 0.28363 0.26354 0.0
C357 C 0.19306 0.30898 0.2881 0.0
C358 C 0.15892 0.30876 0.31636 0.0
C359 C 0.23723 0.28463 0.22717 0.0
C360 C 0.27026 0.29473 0.26365 0.0
C361 C 0.23784 0.27557 0.1571 0.0
C362 C 0.2037 0.26636 0.11442 0.0
C363 C 0.17709 0.28445 0.10463 0.0
C364 C 0.14485 0.2755 0.06503 0.0
C365 C 0.13905 0.24864 0.03427 0.0
C366 C 0.16555 0.23072 0.04279 0.0
C367 C 0.19778 0.23951 0.08258 0.0
H368 H 0.11406 0.2417 0.00378 0.0
H369 H 0.43089 0.33269 0.3719 0.0
H370 H 0.42583 0.74824 0.87579 0.0
H371 H 0.36001 0.74476 0.85176 0.0
H372 H 0.3745 0.83503 0.7948 0.0
H373 H 0.44046 0.83878 0.81881 0.0
H374 H 0.30017 0.77429 0.88893 0.0
H375 H 0.33506 0.8383 0.63292 0.0
H376 H 0.38891 0.85145 0.55965 0.0
H377 H 0.42536 0.77183 0.61927 0.0
H378 H 0.37144 0.75802 0.69184 0.0
H379 H 0.16242 0.82143 0.61243 0.0
H380 H 0.22466 0.8223 0.65974 0.0
H381 H 0.19709 0.73406 0.73188 0.0
H382 H 0.1342 0.733 0.68441 0.0
H383 H 0.27791 0.79129 0.63289 0.0
H384 H 0.24492 0.72875 0.89522 0.0
H385 H 0.19437 0.71776 -0.02298 0.0
H386 H 0.15443 0.79504 0.90839 0.0
H387 H 0.20507 0.80675 0.82718 0.0
C388 C 0.41491 0.76755 0.86 0.0
C389 C 0.43837 0.79371 0.84805 0.0
C390 C 0.37726 0.76552 0.84674 0.0
C391 C 0.36259 0.78953 0.82069 0.0
C392 C 0.38548 0.81623 0.81457 0.0
C393 C 0.42313 0.81834 0.82832 0.0
C394 C 0.32491 0.78575 0.7896 0.0
C395 C 0.29515 0.77767 0.83294 0.0
C396 C 0.31864 0.79026 0.71655 0.0
C397 C 0.34942 0.79729 0.66831 0.0
C398 C 0.35436 0.82348 0.62973 0.0
C399 C 0.38495 0.83108 0.58854 0.0
C400 C 0.41069 0.81259 0.58537 0.0
C401 C 0.40552 0.78621 0.62218 0.0
C402 C 0.37494 0.77848 0.66325 0.0
C403 C 0.16957 0.80207 0.63775 0.0
C404 C 0.14332 0.77715 0.64493 0.0
C405 C 0.20523 0.80261 0.66464 0.0
C406 C 0.21538 0.77838 0.69995 0.0
C407 C 0.18964 0.75311 0.70542 0.0
C408 C 0.15385 0.75247 0.67792 0.0
C409 C 0.25275 0.78013 0.73227 0.0
C410 C 0.28267 0.78773 0.68891 0.0
C411 C 0.25902 0.77509 0.80531 0.0
C412 C 0.22854 0.7684 0.85437 0.0
C413 C 0.22539 0.74342 0.8977 0.0
C414 C 0.19674 0.73708 0.94401 0.0
C415 C 0.17112 0.75563 0.9477 0.0
C416 C 0.1742 0.78062 0.90527 0.0
C417 C 0.20285 0.7871 0.85902 0.0
H418 H 0.14896 0.75068 -0.01642 0.0
H419 H 0.43461 0.81868 0.55424 0.0
H420 H 0.61434 0.95152 0.86701 0.0
H421 H 0.6032 0.99709 0.91127 0.0
H422 H 0.49298 0.95862 0.95798 0.0
H423 H 0.50385 0.91286 0.91233 0.0
H424 H 0.49538 1.01058 0.888 0.0
H425 H 0.5569 0.97361 0.08929 0.0
H426 H 0.60626 0.95295 0.15325 0.0
H427 H 0.6836 1.02729 0.09669 0.0
H428 H 0.63478 0.04823 0.0315 0.0
H429 H 0.45142 0.12302 0.08483 0.0
H430 H 0.46413 0.07738 0.04553 0.0
H431 H 0.57589 0.11549 0.0107 0.0
H432 H 0.5637 0.16134 0.05309 0.0
H433 H 0.57325 0.06375 0.07434 0.0
H434 H 0.51281 0.10076 0.87267 0.0
H435 H 0.46417 0.12167 0.80694 0.0
H436 H 0.38582 0.04767 0.8615 0.0
H437 H 0.43391 1.02648 0.92841 0.0
C438 C 0.5877 0.9527 0.88667 0.0
C439 C 0.55992 0.92853 0.88578 0.0
C440 C 0.58147 0.97875 0.91255 0.0
C441 C 0.54732 0.98131 0.9384 0.0
C442 C 0.51958 0.95716 0.93841 0.0
C443 C 0.52589 0.93095 0.91284 0.0
C444 C 0.54035 1.00949 0.96295 0.0
C445 C 0.51203 1.022 0.92954 0.0
C446 C 0.56283 1.02486 0.01556 0.0
C447 C 0.59223 1.01237 0.05494 0.0
C448 C 0.58449 0.98545 0.08999 0.0
C449 C 0.61236 0.97371 0.12657 0.0
C450 C 0.64806 0.98877 0.12889 0.0
C451 C 0.65594 1.01564 0.09478 0.0
C452 C 0.62817 1.02747 0.05807 0.0
C453 C 0.47885 0.12183 0.06951 0.0
C454 C 0.50657 0.14604 0.07267 0.0
C455 C 0.48597 0.09565 0.04613 0.0
C456 C 0.52086 0.09295 0.02423 0.0
C457 C 0.54869 0.11702 0.02709 0.0
C458 C 0.5416 0.14333 0.05079 0.0
C459 C 0.52816 0.06484 -0.00045 0.0
C460 C 0.55657 0.05235 0.03282 0.0
C461 C 0.50588 0.04953 0.94652 0.0
C462 C 0.47691 0.06215 0.90609 0.0
C463 C 0.48515 0.08904 0.87109 0.0
C464 C 0.45769 0.10093 0.83355 0.0
C465 C 0.42191 0.08604 0.83018 0.0
C466 C 0.41354 0.05919 0.86421 0.0
C467 C 0.4409 0.04722 0.90189 0.0
H468 H 0.40069 0.09528 0.80109 0.0
H469 H 0.66961 0.97964 0.15724 0.0
H470 H 0.11403 0.94436 0.5744 0.0
H471 H 0.10221 0.99226 0.54053 0.0
H472 H 0.98813 0.95855 0.50069 0.0
H473 H 1.00035 0.90996 0.53165 0.0
H474 H 1.01379 0.99225 0.3942 0.0
H475 H 1.01779 1.00142 0.64306 0.0
H476 H 0.04252 0.99809 0.76489 0.0
H477 H 0.13887 0.05695 0.7111 0.0
H478 H 0.11495 0.06033 0.58866 0.0
H479 H 0.95632 0.12949 0.37454 0.0
H480 H 0.96756 0.08033 0.39721 0.0
H481 H 0.08342 0.11126 0.41917 0.0
H482 H 0.07199 0.16075 0.39689 0.0
H483 H 0.05615 0.07895 0.53369 0.0
H484 H 0.04983 0.06983 0.28319 0.0
H485 H 1.02273 0.07335 0.16323 0.0
H486 H 0.9274 1.01464 0.22321 0.0
H487 H 0.9537 1.01107 0.34385 0.0
C488 C 0.08636 0.94712 0.55885 0.0
C489 C 0.05819 0.92334 0.55503 0.0
C490 C 0.07955 0.97461 0.54012 0.0
C491 C 0.04424 0.97909 0.51844 0.0
C492 C 1.01562 0.95557 0.51727 0.0
C493 C 1.02252 0.92789 0.53568 0.0
C494 C 0.03802 1.00808 0.49308 0.0
C495 C 1.02247 1.01116 0.42519 0.0
C496 C 0.05025 1.03284 0.53277 0.0
C497 C 0.06469 1.03094 0.60649 0.0
C498 C 0.04437 1.01349 0.65706 0.0
C499 C 0.05823 1.01162 0.72626 0.0
C500 C 0.09228 1.02725 0.74568 0.0
C501 C 0.11251 0.04484 0.69597 0.0
C502 C 0.09879 0.04677 0.62668 0.0
C503 C 0.98424 0.12564 0.38249 0.0
C504 C 1.0133 0.14877 0.38431 0.0
C505 C 0.99065 0.0976 0.39519 0.0
C506 C 1.02631 0.09216 0.40992 0.0
C507 C 0.05569 0.11507 0.40783 0.0
C508 C 0.04924 0.14322 0.39452 0.0
C509 C 0.03219 0.0631 0.43476 0.0
C510 C 0.04756 0.06002 0.50271 0.0
C511 C 1.01943 0.03837 0.39544 0.0
C512 C 1.00363 0.04037 0.32277 0.0
C513 C 1.02296 0.05784 0.27098 0.0
C514 C 1.00777 0.05981 0.20281 0.0
C515 C 0.97333 0.04428 0.18565 0.0
C516 C 0.95406 1.02668 0.23658 0.0
C517 C 0.96912 1.02464 0.30485 0.0
H518 H 0.96161 0.04584 0.13285 0.0
H519 H 0.10296 1.02577 0.79928 0.0
H520 H 1.00019 0.32325 0.13312 0.0
H521 H 1.00336 0.32401 0.00548 0.0
H522 H 0.03244 0.23898 0.01613 0.0
H523 H 0.02924 0.23802 0.14459 0.0
H524 H 0.08063 0.27917 0.9427 0.0
H525 H 0.95192 0.24694 0.94726 0.0
H526 H 0.88868 0.24724 -0.01839 0.0
H527 H 0.89102 0.33117 0.8853 0.0
H528 H 0.95452 0.33157 0.85128 0.0
H529 H 0.05827 0.25271 0.57606 0.0
H530 H 0.05825 0.25266 0.70417 0.0
H531 H 0.03409 0.33917 0.69507 0.0
H532 H 0.03442 0.33953 0.56628 0.0
H533 H 0.98379 0.29859 0.76793 0.0
H534 H 0.11273 0.32944 0.76034 0.0
H535 H 0.17624 0.32873 0.72844 0.0
H536 H 0.17355 0.24609 0.83192 0.0
H537 H 0.10971 0.24598 0.86307 0.0
C538 C 1.00661 0.30451 0.10814 0.0
C539 C 1.01457 0.2806 0.14828 0.0
C540 C 1.00826 0.30494 0.0354 0.0
C541 C 1.01798 0.28151 0.00191 0.0
C542 C 1.02474 0.25716 0.04155 0.0
C543 C 1.02271 0.25658 0.11452 0.0
C544 C 1.02402 0.28369 0.92613 0.0
C545 C 0.05935 0.2828 0.90409 0.0
C546 C 0.99638 0.28953 0.8769 0.0
C547 C 0.95815 0.28939 0.89729 0.0
C548 C 0.93909 0.26558 0.93396 0.0
C549 C 0.90316 0.2656 0.95326 0.0
C550 C 0.88587 0.28924 0.93581 0.0
C551 C 0.90446 0.31289 0.89887 0.0
C552 C 0.94042 0.31299 0.87949 0.0
C553 C 0.0536 0.27191 0.60141 0.0
C554 C 0.04597 0.29603 0.56165 0.0
C555 C 0.05383 0.27189 0.67442 0.0
C556 C 0.04619 0.2959 0.70848 0.0
C557 C 0.04013 0.32051 0.66916 0.0
C558 C 0.04039 0.3207 0.59595 0.0
C559 C 0.04043 0.29386 0.78436 0.0
C560 C 1.00508 0.29482 0.80646 0.0
C561 C 0.06802 0.28786 0.83354 0.0
C562 C 0.10619 0.28756 0.81331 0.0
C563 C 0.12545 0.31092 0.77542 0.0
C564 C 0.16158 0.3107 0.75763 0.0
C565 C 0.17888 0.28734 0.77791 0.0
C566 C 0.16009 0.26414 0.81605 0.0
C567 C 0.12392 0.2642 0.83377 0.0
H568 H 0.20688 0.28725 0.76424 0.0
H569 H 0.85804 0.2892 0.95078 0.0
H570 H 1.00159 0.74363 0.8063 0.0
H571 H 1.00232 0.74218 0.93424 0.0
H572 H 0.04607 0.83263 0.93603 0.0
H573 H 0.04564 0.83438 0.80735 0.0
H574 H 0.06852 0.75592 0.01207 0.0
H575 H 1.01314 0.85815 0.08541 0.0
H576 H 0.96751 0.88776 0.04085 0.0
H577 H 0.90472 0.81436 0.94206 0.0
H578 H 0.94982 0.78428 -0.01367 0.0
H579 H 0.07277 0.82498 0.37808 0.0
H580 H 0.07149 0.82605 0.25014 0.0
H581 H 0.03207 0.73486 0.25048 0.0
H582 H 0.03325 0.73347 0.37922 0.0
H583 H 1.00719 0.81167 0.17281 0.0
H584 H 0.06406 0.70969 0.09692 0.0
H585 H 0.11105 0.68082 0.13836 0.0
H586 H 0.1719 0.7541 0.24084 0.0
H587 H 0.12561 0.78352 0.19913 0.0
C588 C 1.01097 0.76334 0.83377 0.0
C589 C 1.02425 0.78905 0.79721 0.0
C590 C 1.01129 0.76242 0.90667 0.0
C591 C 1.02451 0.78721 0.94378 0.0
C592 C 0.03567 0.81334 0.90761 0.0
C593 C 0.03547 0.81429 0.83442 0.0
C594 C 0.02986 0.78508 0.02023 0.0
C595 C 0.05472 0.7677 0.04759 0.0
C596 C 1.01253 0.80121 0.06533 0.0
C597 C 0.98508 0.81905 0.03869 0.0
C598 C 0.98956 0.84832 0.05429 0.0
C599 C 0.96381 0.86519 0.02898 0.0
C600 C 0.93334 0.85297 -0.01165 0.0
C601 C 0.92848 0.82383 -0.0269 0.0
C602 C 0.95418 0.80688 -0.00185 0.0
C603 C 0.0643 0.80504 0.3511 0.0
C604 C 0.05254 0.77918 0.38837 0.0
C605 C 0.06363 0.80574 0.27814 0.0
C606 C 0.0515 0.7806 0.24151 0.0
C607 C 0.04169 0.75442 0.27838 0.0
C608 C 0.04228 0.75368 0.35165 0.0
C609 C 0.04582 0.7824 0.16494 0.0
C610 C 1.02092 0.79977 0.13746 0.0
C611 C 0.06315 0.76626 0.11971 0.0
C612 C 0.09104 0.74869 0.14571 0.0
C613 C 0.08747 0.71965 0.12828 0.0
C614 C 0.11401 0.70319 0.15176 0.0
C615 C 0.14436 0.71558 0.19246 0.0
C616 C 0.14828 0.74448 0.20963 0.0
C617 C 0.12184 0.76104 0.18622 0.0
H618 H 0.16488 0.70281 0.21054 0.0
H619 H 0.91342 0.86606 0.96885 0.0
H620 H 0.58277 0.83301 0.04276 0.0
H621 H 0.57985 0.83285 0.17048 0.0
H622 H 0.538 0.74203 0.17308 0.0
H623 H 0.54079 0.74194 0.04502 0.0
H624 H 0.49414 0.77388 0.2388 0.0
H625 H 0.62033 0.76381 0.24307 0.0
H626 H 0.68531 0.77485 0.21393 0.0
H627 H 0.69293 0.85868 0.29926 0.0
H628 H 0.62777 0.84837 0.32757 0.0
H629 H 0.50398 0.75154 0.61029 0.0
H630 H 0.50565 0.75142 0.48245 0.0
H631 H 0.55022 0.84176 0.47831 0.0
H632 H 0.54892 0.84207 0.60652 0.0
H633 H 0.59267 0.80944 0.41366 0.0
H634 H 0.46581 0.82094 0.40186 0.0
H635 H 0.40069 0.81015 0.43059 0.0
H636 H 0.39525 0.72372 0.36304 0.0
H637 H 0.46019 0.73414 0.33272 0.0
C638 C 0.5736 0.81288 0.07059 0.0
C639 C 0.56166 0.78754 0.03399 0.0
C640 C 0.57211 0.81282 0.14351 0.0
C641 C 0.55868 0.78744 0.18079 0.0
C642 C 0.54841 0.76181 0.14484 0.0
C643 C 0.55013 0.7618 0.07187 0.0
C644 C 0.55194 0.78841 0.25616 0.0
C645 C 0.51576 0.78122 0.27735 0.0
C646 C 0.58006 0.79885 0.30554 0.0
C647 C 0.61903 0.8054 0.28684 0.0
C648 C 0.63572 0.78474 0.25481 0.0
C649 C 0.67262 0.79084 0.23857 0.0
C650 C 0.69321 0.81748 0.25454 0.0
C651 C 0.67693 0.83808 0.28672 0.0
C652 C 0.64001 0.83212 0.30283 0.0
C653 C 0.5135 0.77151 0.58207 0.0
C654 C 0.52684 0.79673 0.6182 0.0
C655 C 0.51418 0.77144 0.50907 0.0
C656 C 0.52809 0.79658 0.47131 0.0
C657 C 0.53942 0.82218 0.50689 0.0
C658 C 0.53859 0.82231 0.57995 0.0
C659 C 0.53487 0.79522 0.39606 0.0
C660 C 0.57107 0.80223 0.37498 0.0
C661 C 0.50681 0.78469 0.34677 0.0
C662 C 0.46791 0.77825 0.36563 0.0
C663 C 0.45077 0.79959 0.39355 0.0
C664 C 0.41388 0.79357 0.40991 0.0
C665 C 0.39395 0.76621 0.39928 0.0
C666 C 0.41076 0.74489 0.37147 0.0
C667 C 0.44754 0.75088 0.35428 0.0
H668 H 0.36544 0.76157 0.41229 0.0
H669 H 0.72181 0.82212 0.24212 0.0
H670 H 0.49387 0.23519 0.33734 0.0
H671 H 0.49293 0.23488 0.46549 0.0
H672 H 0.50661 0.3275 0.46004 0.0
H673 H 0.50738 0.32808 0.33208 0.0
H674 H 0.55267 0.25952 0.54214 0.0
H675 H 0.46965 0.34922 0.60306 0.0
H676 H 0.41343 0.36738 0.5615 0.0
H677 H 0.36918 0.28456 0.48138 0.0
H678 H 0.42514 0.26593 0.52226 0.0
H679 H 0.5415 0.33179 0.90245 0.0
H680 H 0.53877 0.33181 0.77402 0.0
H681 H 0.52469 0.23917 0.78026 0.0
H682 H 0.52787 0.23887 0.90829 0.0
H683 H 0.47846 0.30704 0.69788 0.0
H684 H 0.56021 0.21702 0.6344 0.0
H685 H 0.61447 0.19711 0.68004 0.0
H686 H 0.65945 0.27841 0.76766 0.0
H687 H 0.60574 0.29893 0.72172 0.0
C688 C 0.49603 0.25546 0.36338 0.0
C689 C 0.50142 0.2817 0.3251 0.0
C690 C 0.4954 0.25521 0.43636 0.0
C691 C 0.4998 0.28114 0.47166 0.0
C692 C 0.50287 0.30727 0.43338 0.0
C693 C 0.50362 0.30756 0.36043 0.0
C694 C 0.50601 0.28119 0.54822 0.0
C695 C 0.53608 0.26944 0.57654 0.0
C696 C 0.485 0.29502 0.592 0.0
C697 C 0.4517 0.30626 0.56534 0.0
C698 C 0.44793 0.3349 0.57652 0.0
C699 C 0.41612 0.34527 0.55306 0.0
C700 C 0.38773 0.32711 0.51898 0.0
C701 C 0.39118 0.29858 0.50789 0.0
C702 C 0.42305 0.28817 0.53072 0.0
C703 C 0.53854 0.31146 0.87644 0.0
C704 C 0.53453 0.28531 0.91514 0.0
C705 C 0.5369 0.31154 0.8033 0.0
C706 C 0.53153 0.28552 0.76826 0.0
C707 C 0.52923 0.25946 0.8067 0.0
C708 C 0.53088 0.25935 0.87974 0.0
C709 C 0.52507 0.28533 0.69176 0.0
C710 C 0.49503 0.29712 0.66344 0.0
C711 C 0.54602 0.27142 0.648 0.0
C712 C 0.57874 0.25942 0.67514 0.0
C713 C 0.58175 0.23069 0.66314 0.0
C714 C 0.6124 0.21929 0.68912 0.0
C715 C 0.64033 0.23646 0.72692 0.0
C716 C 0.63773 0.2651 0.73862 0.0
C717 C 0.60715 0.27661 0.71272 0.0
H718 H 0.66403 0.22758 0.74703 0.0
H719 H 0.3631 0.33516 0.50094 0.0
loop_
_geom_bond_atom_site_label_1
_geom_bond_atom_site_label_2
_geom_bond_distance
_geom_bond_site_symmetry_2
_ccdc_geom_bond_type
Co0 N5 2.057 . S
Co0 O17 2.021 . S
Co0 O20 2.062 1_655 S
Co0 O24 2.117 1_655 S
Co0 O25 2.020 . S
C1 O21 1.259 . S
C1 O24 1.258 . S
Co2 N11 2.057 . S
Co2 O18 2.117 . S
Co2 O19 2.020 . S
Co2 O21 2.021 . S
Co2 O26 2.062 1_455 S
C3 N5 1.319 . S
C3 N6 1.342 1_655 S
C3 H8 0.929 1_655 S
C4 N5 1.375 . S
C4 C7 1.350 . S
C4 H9 0.930 . S
N5 Co0 2.057 . S
N5 C3 1.319 . S
N5 C4 1.375 . S
N6 C3 1.342 1_455 S
N6 C7 1.369 1_455 S
C7 C4 1.350 . S
C7 N6 1.369 1_655 S
C7 H28 0.931 . S
H8 C3 0.929 1_455 S
H9 C4 0.930 . S
C10 O17 1.259 1_455 S
C10 O18 1.258 . S
N11 Co2 2.057 . S
N11 C12 1.316 . S
N11 C13 1.375 . S
C12 N11 1.316 . S
C12 N14 1.347 . S
C12 H23 0.931 . S
C13 N11 1.375 . S
C13 C15 1.350 . S
C13 H22 0.930 . S
N14 C12 1.347 . S
N14 C15 1.373 . S
C15 C13 1.350 . S
C15 N14 1.373 . S
C15 H29 0.931 . S
C16 O19 1.256 . S
C16 O20 1.255 . S
O17 Co0 2.021 . S
O17 C10 1.259 1_655 S
O18 Co2 2.117 . S
O18 C10 1.258 . S
O19 Co2 2.020 . S
O19 C16 1.256 . S
O20 Co0 2.062 1_455 S
O20 C16 1.255 . S
O21 C1 1.259 . S
O21 Co2 2.021 . S
H22 C13 0.930 . S
H23 C12 0.931 . S
O24 Co0 2.117 1_455 S
O24 C1 1.258 . S
O25 Co0 2.020 . S
O25 C27 1.256 . S
O26 Co2 2.062 1_655 S
O26 C27 1.255 . S
C27 O25 1.256 . S
C27 O26 1.255 . S
H28 C7 0.931 . S
H29 C15 0.931 . S
Co30 N35 2.057 . S
Co30 O47 2.021 . S
Co30 O50 2.062 1_655 S
Co30 O54 2.117 1_655 S
Co30 O55 2.020 . S
C31 O51 1.259 . S
C31 O54 1.258 . S
Co32 N41 2.057 . S
Co32 O48 2.117 . S
Co32 O49 2.020 . S
Co32 O51 2.021 . S
Co32 O56 2.062 1_455 S
C33 N35 1.316 . S
C33 N36 1.347 . S
C33 H38 0.933 . S
C34 N35 1.375 . S
C34 C37 1.350 . S
C34 H39 0.930 . S
N35 Co30 2.057 . S
N35 C33 1.316 . S
N35 C34 1.375 . S
N36 C33 1.347 . S
N36 C37 1.373 . S
C37 C34 1.350 . S
C37 N36 1.373 . S
C37 H58 0.931 . S
H38 C33 0.933 . S
H39 C34 0.930 . S
C40 O47 1.259 1_455 S
C40 O48 1.258 . S
N41 Co32 2.057 . S
N41 C42 1.316 . S
N41 C43 1.375 . S
C42 N41 1.316 . S
C42 N44 1.347 . S
C42 H53 0.931 . S
C43 N41 1.375 . S
C43 C45 1.350 . S
C43 H52 0.930 . S
N44 C42 1.347 . S
N44 C45 1.373 . S
C45 C43 1.350 . S
C45 N44 1.373 . S
C45 H59 0.931 . S
C46 O49 1.256 . S
C46 O50 1.255 . S
O47 Co30 2.021 . S
O47 C40 1.259 1_655 S
O48 Co32 2.117 . S
O48 C40 1.258 . S
O49 Co32 2.020 . S
O49 C46 1.256 . S
O50 Co30 2.062 1_455 S
O50 C46 1.255 . S
O51 C31 1.259 . S
O51 Co32 2.021 . S
H52 C43 0.930 . S
H53 C42 0.931 . S
O54 Co30 2.117 1_455 S
O54 C31 1.258 . S
O55 Co30 2.020 . S
O55 C57 1.256 . S
O56 Co32 2.062 1_655 S
O56 C57 1.255 . S
C57 O55 1.256 . S
C57 O56 1.255 . S
H58 C37 0.931 . S
H59 C45 0.931 . S
Co60 N65 2.057 . S
Co60 O77 2.021 . S
Co60 O80 2.062 . S
Co60 O84 2.117 . S
Co60 O85 2.020 . S
C61 O81 1.259 1_554 S
C61 O84 1.258 1_554 S
Co62 N71 2.057 . S
Co62 O78 2.117 . S
Co62 O79 2.020 . S
Co62 O81 2.021 . S
Co62 O86 2.062 . S
C63 N65 1.316 . S
C63 N66 1.347 . S
C63 H68 0.931 . S
C64 N65 1.375 . S
C64 C67 1.350 . S
C64 H69 0.930 1_556 S
N65 Co60 2.057 . S
N65 C63 1.316 . S
N65 C64 1.375 . S
N66 C63 1.347 . S
N66 C67 1.373 . S
C67 C64 1.350 . S
C67 N66 1.373 . S
C67 H88 0.931 1_556 S
H68 C63 0.931 . S
H69 C64 0.930 1_554 S
C70 O77 1.259 . S
C70 O78 1.258 . S
N71 Co62 2.057 . S
N71 C72 1.316 . S
N71 C73 1.375 . S
C72 N71 1.316 . S
C72 N74 1.347 . S
C72 H83 0.931 . S
C73 N71 1.375 . S
C73 C75 1.350 . S
C73 H82 0.930 . S
N74 C72 1.347 . S
N74 C75 1.373 . S
C75 C73 1.350 . S
C75 N74 1.373 . S
C75 H89 0.931 . S
C76 O79 1.256 . S
C76 O80 1.255 . S
O77 Co60 2.021 . S
O77 C70 1.259 . S
O78 Co62 2.117 . S
O78 C70 1.258 . S
O79 Co62 2.020 . S
O79 C76 1.256 . S
O80 Co60 2.062 . S
O80 C76 1.255 . S
O81 C61 1.259 1_556 S
O81 Co62 2.021 . S
H82 C73 0.930 . S
H83 C72 0.931 . S
O84 Co60 2.117 . S
O84 C61 1.258 1_556 S
O85 Co60 2.020 . S
O85 C87 1.256 . S
O86 Co62 2.062 . S
O86 C87 1.255 . S
C87 O85 1.256 . S
C87 O86 1.255 . S
H88 C67 0.931 1_554 S
H89 C75 0.931 . S
Co90 N95 2.057 . S
Co90 O107 2.021 . S
Co90 O110 2.062 . S
Co90 O114 2.117 . S
Co90 O115 2.020 . S
C91 O111 1.259 . S
C91 O114 1.258 . S
Co92 N101 2.057 . S
Co92 O108 2.117 . S
Co92 O109 2.020 . S
Co92 O111 2.021 . S
Co92 O116 2.062 . S
C93 N95 1.316 . S
C93 N96 1.347 . S
C93 H98 0.931 . S
C94 N95 1.375 . S
C94 C97 1.350 . S
C94 H99 0.930 . S
N95 Co90 2.057 . S
N95 C93 1.316 . S
N95 C94 1.375 . S
N96 C93 1.347 . S
N96 C97 1.373 . S
C97 C94 1.350 . S
C97 N96 1.373 . S
C97 H118 0.931 . S
H98 C93 0.931 . S
H99 C94 0.930 . S
C100 O107 1.259 1_556 S
C100 O108 1.258 1_556 S
N101 Co92 2.057 . S
N101 C102 1.316 . S
N101 C103 1.375 . S
C102 N101 1.316 . S
C102 N104 1.347 . S
C102 H113 0.931 . S
C103 N101 1.375 . S
C103 C105 1.350 . S
C103 H112 0.930 1_554 S
N104 C102 1.347 . S
N104 C105 1.373 . S
C105 C103 1.350 . S
C105 N104 1.373 . S
C105 H119 0.931 1_554 S
C106 O109 1.256 . S
C106 O110 1.255 . S
O107 Co90 2.021 . S
O107 C100 1.259 1_554 S
O108 Co92 2.117 . S
O108 C100 1.258 1_554 S
O109 Co92 2.020 . S
O109 C106 1.256 . S
O110 Co90 2.062 . S
O110 C106 1.255 . S
O111 C91 1.259 . S
O111 Co92 2.021 . S
H112 C103 0.930 1_556 S
H113 C102 0.931 . S
O114 Co90 2.117 . S
O114 C91 1.258 . S
O115 Co90 2.020 . S
O115 C117 1.256 . S
O116 Co92 2.062 . S
O116 C117 1.255 . S
C117 O115 1.256 . S
C117 O116 1.255 . S
H118 C97 0.931 . S
H119 C105 0.931 1_556 S
H120 C138 0.951 . S
H121 C140 0.951 . S
H122 C142 0.950 . S
H123 C143 0.950 . S
H124 C145 0.950 . S
H125 C148 0.950 . S
H126 C149 0.950 . S
H127 C151 0.935 1_655 S
H128 C152 0.950 . S
H129 C153 0.951 . S
H130 C155 0.951 . S
H131 C157 0.950 . S
H132 C158 0.950 . S
H133 C160 0.950 . S
H134 C163 0.950 . S
H135 C164 0.950 . S
H136 C166 0.950 . S
H137 C167 0.950 . S
C138 H120 0.951 . S
C138 C139 1.366 1_655 S
C138 C140 1.388 . S
C139 C138 1.366 1_455 S
C139 C143 1.385 . S
C140 H121 0.951 . S
C140 C138 1.388 . S
C140 C141 1.366 1_655 S
C141 C140 1.366 1_455 S
C141 C142 1.414 . S
C141 C144 1.499 . S
C142 H122 0.950 . S
C142 C141 1.414 . S
C142 C143 1.374 . S
C143 H123 0.950 . S
C143 C139 1.385 . S
C143 C142 1.374 . S
C144 C141 1.499 . S
C144 C145 1.373 . S
C144 C146 1.389 . S
C145 H124 0.950 . S
C145 C144 1.373 . S
C145 C161 1.379 . S
C146 C144 1.389 . S
C146 C147 1.524 . S
C146 C160 1.377 . S
C147 C146 1.524 . S
C147 C148 1.397 . S
C147 C152 1.363 1_455 S
C148 H125 0.950 . S
C148 C147 1.397 . S
C148 C149 1.334 . S
C149 H126 0.950 . S
C149 C148 1.334 . S
C149 C150 1.287 . S
C150 C149 1.287 . S
C150 C151 1.547 . S
C150 H169 0.913 . S
C151 H127 0.935 1_455 S
C151 C150 1.547 . S
C151 C152 1.409 1_455 S
C152 H128 0.950 . S
C152 C147 1.363 1_655 S
C152 C151 1.409 1_655 S
C153 H129 0.951 . S
C153 C154 1.366 . S
C153 C155 1.388 . S
C154 C153 1.366 . S
C154 C158 1.385 1_455 S
C155 H130 0.951 . S
C155 C153 1.388 . S
C155 C156 1.366 . S
C156 C155 1.366 . S
C156 C157 1.414 1_455 S
C156 C159 1.499 . S
C157 H131 0.950 . S
C157 C156 1.414 1_655 S
C157 C158 1.374 . S
C158 H132 0.950 . S
C158 C154 1.385 1_655 S
C158 C157 1.374 . S
C159 C156 1.499 . S
C159 C160 1.373 . S
C159 C161 1.389 . S
C160 H133 0.950 . S
C160 C146 1.377 . S
C160 C159 1.373 . S
C161 C145 1.379 . S
C161 C159 1.389 . S
C161 C162 1.522 1_455 S
C162 C161 1.522 1_655 S
C162 C163 1.397 . S
C162 C167 1.363 1_655 S
C163 H134 0.950 . S
C163 C162 1.397 . S
C163 C164 1.334 . S
C164 H135 0.950 . S
C164 C163 1.334 . S
C164 C165 1.287 . S
C165 C164 1.287 . S
C165 C166 1.524 1_655 S
C165 H168 0.999 . S
C166 H136 0.950 . S
C166 C165 1.524 1_455 S
C166 C167 1.415 . S
C167 H137 0.950 . S
C167 C162 1.363 1_455 S
C167 C166 1.415 . S
H168 C165 0.999 . S
H169 C150 0.913 . S
H170 C188 0.951 . S
H171 C190 0.951 . S
H172 C192 0.950 . S
H173 C193 0.950 . S
H174 C195 0.950 . S
H175 C198 0.950 . S
H176 C199 0.950 . S
H177 C201 0.950 . S
H178 C202 0.950 . S
H179 C203 0.951 . S
H180 C205 0.951 . S
H181 C207 0.950 . S
H182 C208 0.950 . S
H183 C210 0.950 . S
H184 C213 0.950 . S
H185 C214 0.950 . S
H186 C216 0.950 . S
H187 C217 0.950 . S
C188 H170 0.951 . S
C188 C189 1.366 . S
C188 C190 1.388 . S
C189 C188 1.366 . S
C189 C193 1.385 . S
C190 H171 0.951 . S
C190 C188 1.388 . S
C190 C191 1.366 . S
C191 C190 1.366 . S
C191 C192 1.414 . S
C191 C194 1.499 . S
C192 H172 0.950 . S
C192 C191 1.414 . S
C192 C193 1.374 . S
C193 H173 0.950 . S
C193 C189 1.385 . S
C193 C192 1.374 . S
C194 C191 1.499 . S
C194 C195 1.373 . S
C194 C196 1.389 . S
C195 H174 0.950 . S
C195 C194 1.373 . S
C195 C211 1.377 . S
C196 C194 1.389 . S
C196 C197 1.524 . S
C196 C210 1.377 . S
C197 C196 1.524 . S
C197 C198 1.397 . S
C197 C202 1.363 . S
C198 H175 0.950 . S
C198 C197 1.397 . S
C198 C199 1.334 . S
C199 H176 0.950 . S
C199 C198 1.334 . S
C199 C200 1.287 . S
C200 C199 1.287 . S
C200 C201 1.524 . S
C200 H219 0.913 . S
C201 H177 0.950 . S
C201 C200 1.524 . S
C201 C202 1.415 . S
C202 H178 0.950 . S
C202 C197 1.363 . S
C202 C201 1.415 . S
C203 H179 0.951 . S
C203 C204 1.366 . S
C203 C205 1.388 . S
C204 C203 1.366 . S
C204 C208 1.385 . S
C205 H180 0.951 . S
C205 C203 1.388 . S
C205 C206 1.366 . S
C206 C205 1.366 . S
C206 C207 1.414 . S
C206 C209 1.499 . S
C207 H181 0.950 . S
C207 C206 1.414 . S
C207 C208 1.374 . S
C208 H182 0.950 . S
C208 C204 1.385 . S
C208 C207 1.374 . S
C209 C206 1.499 . S
C209 C210 1.373 . S
C209 C211 1.389 . S
C210 H183 0.950 . S
C210 C196 1.377 . S
C210 C209 1.373 . S
C211 C195 1.377 . S
C211 C209 1.389 . S
C211 C212 1.524 . S
C212 C211 1.524 . S
C212 C213 1.397 . S
C212 C217 1.363 . S
C213 H184 0.950 . S
C213 C212 1.397 . S
C213 C214 1.334 . S
C214 H185 0.950 . S
C214 C213 1.334 . S
C214 C215 1.287 . S
C215 C214 1.287 . S
C215 C216 1.524 . S
C215 H218 0.999 . S
C216 H186 0.950 . S
C216 C215 1.524 . S
C216 C217 1.415 . S
C217 H187 0.950 . S
C217 C212 1.363 . S
C217 C216 1.415 . S
H218 C215 0.999 . S
H219 C200 0.913 . S
H220 C238 0.951 . S
H221 C240 0.951 1_556 S
H222 C242 0.950 . S
H223 C243 0.950 . S
H224 C245 0.950 . S
H225 C248 0.950 . S
H226 C249 0.950 . S
H227 C251 0.950 . S
H228 C252 0.950 . S
H229 C253 0.951 . S
H230 C255 0.951 1_554 S
H231 C257 0.950 . S
H232 C258 0.950 . S
H233 C260 0.950 . S
H234 C263 0.950 . S
H235 C264 0.950 . S
H236 C266 0.950 . S
H237 C267 0.950 . S
C238 H220 0.951 . S
C238 C239 1.366 . S
C238 C240 1.388 . S
C239 C238 1.366 . S
C239 C243 1.385 . S
C240 H221 0.951 1_554 S
C240 C238 1.388 . S
C240 C241 1.366 . S
C241 C240 1.366 . S
C241 C242 1.414 . S
C241 C244 1.499 . S
C242 H222 0.950 . S
C242 C241 1.414 . S
C242 C243 1.374 . S
C243 H223 0.950 . S
C243 C239 1.385 . S
C243 C242 1.374 . S
C244 C241 1.499 . S
C244 C245 1.373 . S
C244 C246 1.389 1_554 S
C245 H224 0.950 . S
C245 C244 1.373 . S
C245 C261 1.377 . S
C246 C244 1.389 1_556 S
C246 C247 1.524 . S
C246 C260 1.377 . S
C247 C246 1.524 . S
C247 C248 1.397 . S
C247 C252 1.363 . S
C248 H225 0.950 . S
C248 C247 1.397 . S
C248 C249 1.334 . S
C249 H226 0.950 . S
C249 C248 1.334 . S
C249 C250 1.287 . S
C250 C249 1.287 . S
C250 C251 1.524 . S
C250 H269 0.913 . S
C251 H227 0.950 . S
C251 C250 1.524 . S
C251 C252 1.415 . S
C252 H228 0.950 . S
C252 C247 1.363 . S
C252 C251 1.415 . S
C253 H229 0.951 . S
C253 C254 1.366 . S
C253 C255 1.388 . S
C254 C253 1.366 . S
C254 C258 1.385 . S
C255 H230 0.951 1_556 S
C255 C253 1.388 . S
C255 C256 1.366 . S
C256 C255 1.366 . S
C256 C257 1.414 . S
C256 C259 1.499 . S
C257 H231 0.950 . S
C257 C256 1.414 . S
C257 C258 1.374 . S
C258 H232 0.950 . S
C258 C254 1.385 . S
C258 C257 1.374 . S
C259 C256 1.499 . S
C259 C260 1.373 . S
C259 C261 1.389 1_556 S
C260 H233 0.950 . S
C260 C246 1.377 . S
C260 C259 1.373 . S
C261 C245 1.377 . S
C261 C259 1.389 1_554 S
C261 C262 1.524 . S
C262 C261 1.524 . S
C262 C263 1.397 . S
C262 C267 1.363 . S
C263 H234 0.950 . S
C263 C262 1.397 . S
C263 C264 1.334 . S
C264 H235 0.950 . S
C264 C263 1.334 . S
C264 C265 1.287 . S
C265 C264 1.287 . S
C265 C266 1.524 . S
C265 H268 0.999 . S
C266 H236 0.950 . S
C266 C265 1.524 . S
C266 C267 1.415 . S
C267 H237 0.950 . S
C267 C262 1.363 . S
C267 C266 1.415 . S
H268 C265 0.999 . S
H269 C250 0.913 . S
H270 C288 0.951 . S
H271 C290 0.951 . S
H272 C292 0.950 . S
H273 C293 0.950 . S
H274 C295 0.950 . S
H275 C298 0.950 . S
H276 C299 0.950 . S
H277 C301 0.950 . S
H278 C302 0.950 . S
H279 C303 0.951 . S
H280 C305 0.951 . S
H281 C307 0.950 . S
H282 C308 0.950 . S
H283 C310 0.950 . S
H284 C313 0.950 . S
H285 C314 0.950 . S
H286 C316 0.950 . S
H287 C317 0.950 . S
C288 H270 0.951 . S
C288 C289 1.366 . S
C288 C290 1.388 . S
C289 C288 1.366 . S
C289 C293 1.385 . S
C290 H271 0.951 . S
C290 C288 1.388 . S
C290 C291 1.366 . S
C291 C290 1.366 . S
C291 C292 1.414 . S
C291 C294 1.499 . S
C292 H272 0.950 . S
C292 C291 1.414 . S
C292 C293 1.374 . S
C293 H273 0.950 . S
C293 C289 1.385 . S
C293 C292 1.374 . S
C294 C291 1.499 . S
C294 C295 1.373 . S
C294 C296 1.389 . S
C295 H274 0.950 . S
C295 C294 1.373 . S
C295 C311 1.377 . S
C296 C294 1.389 . S
C296 C297 1.524 . S
C296 C310 1.377 . S
C297 C296 1.524 . S
C297 C298 1.397 . S
C297 C302 1.363 . S
C298 H275 0.950 . S
C298 C297 1.397 . S
C298 C299 1.334 . S
C299 H276 0.950 . S
C299 C298 1.334 . S
C299 C300 1.287 . S
C300 C299 1.287 . S
C300 C301 1.524 . S
C300 H319 0.913 . S
C301 H277 0.950 . S
C301 C300 1.524 . S
C301 C302 1.415 . S
C302 H278 0.950 . S
C302 C297 1.363 . S
C302 C301 1.415 . S
C303 H279 0.951 . S
C303 C304 1.366 . S
C303 C305 1.388 . S
C304 C303 1.366 . S
C304 C308 1.385 . S
C305 H280 0.951 . S
C305 C303 1.388 . S
C305 C306 1.366 . S
C306 C305 1.366 . S
C306 C307 1.414 . S
C306 C309 1.499 . S
C307 H281 0.950 . S
C307 C306 1.414 . S
C307 C308 1.374 . S
C308 H282 0.950 . S
C308 C304 1.385 . S
C308 C307 1.374 . S
C309 C306 1.499 . S
C309 C310 1.373 . S
C309 C311 1.389 . S
C310 H283 0.950 . S
C310 C296 1.377 . S
C310 C309 1.373 . S
C311 C295 1.377 . S
C311 C309 1.389 . S
C311 C312 1.524 . S
C312 C311 1.524 . S
C312 C313 1.397 . S
C312 C317 1.363 . S
C313 H284 0.950 . S
C313 C312 1.397 . S
C313 C314 1.334 1_554 S
C314 H285 0.950 . S
C314 C313 1.334 1_556 S
C314 C315 1.287 . S
C315 C314 1.287 . S
C315 C316 1.524 1_556 S
C315 H318 0.999 . S
C316 H286 0.950 . S
C316 C315 1.524 1_554 S
C316 C317 1.415 . S
C317 H287 0.950 . S
C317 C312 1.363 . S
C317 C316 1.415 . S
H318 C315 0.999 . S
H319 C300 0.913 . S
H320 C338 0.951 . S
H321 C340 0.951 . S
H322 C342 0.950 . S
H323 C343 0.950 . S
H324 C345 0.950 . S
H325 C348 0.950 . S
H326 C349 0.950 . S
H327 C351 0.950 . S
H328 C352 0.950 . S
H329 C353 0.951 . S
H330 C355 0.951 . S
H331 C357 0.950 . S
H332 C358 0.950 . S
H333 C360 0.950 . S
H334 C363 0.950 . S
H335 C364 0.950 . S
H336 C366 0.950 . S
H337 C367 0.950 . S
C338 H320 0.951 . S
C338 C339 1.366 . S
C338 C340 1.388 . S
C339 C338 1.366 . S
C339 C343 1.385 . S
C340 H321 0.951 . S
C340 C338 1.388 . S
C340 C341 1.366 . S
C341 C340 1.366 . S
C341 C342 1.414 . S
C341 C344 1.499 . S
C342 H322 0.950 . S
C342 C341 1.414 . S
C342 C343 1.374 . S
C343 H323 0.950 . S
C343 C339 1.385 . S
C343 C342 1.374 . S
C344 C341 1.499 . S
C344 C345 1.373 . S
C344 C346 1.389 . S
C345 H324 0.950 . S
C345 C344 1.373 . S
C345 C361 1.377 . S
C346 C344 1.389 . S
C346 C347 1.524 . S
C346 C360 1.377 . S
C347 C346 1.524 . S
C347 C348 1.397 . S
C347 C352 1.363 . S
C348 H325 0.950 . S
C348 C347 1.397 . S
C348 C349 1.334 . S
C349 H326 0.950 . S
C349 C348 1.334 . S
C349 C350 1.287 . S
C350 C349 1.287 . S
C350 C351 1.524 . S
C350 H369 0.913 . S
C351 H327 0.950 . S
C351 C350 1.524 . S
C351 C352 1.415 . S
C352 H328 0.950 . S
C352 C347 1.363 . S
C352 C351 1.415 . S
C353 H329 0.951 . S
C353 C354 1.366 . S
C353 C355 1.388 . S
C354 C353 1.366 . S
C354 C358 1.385 . S
C355 H330 0.951 . S
C355 C353 1.388 . S
C355 C356 1.366 . S
C356 C355 1.366 . S
C356 C357 1.414 . S
C356 C359 1.499 . S
C357 H331 0.950 . S
C357 C356 1.414 . S
C357 C358 1.374 . S
C358 H332 0.950 . S
C358 C354 1.385 . S
C358 C357 1.374 . S
C359 C356 1.499 . S
C359 C360 1.373 . S
C359 C361 1.389 . S
C360 H333 0.950 . S
C360 C346 1.377 . S
C360 C359 1.373 . S
C361 C345 1.377 . S
C361 C359 1.389 . S
C361 C362 1.524 . S
C362 C361 1.524 . S
C362 C363 1.397 . S
C362 C367 1.363 . S
C363 H334 0.950 . S
C363 C362 1.397 . S
C363 C364 1.334 . S
C364 H335 0.950 . S
C364 C363 1.334 . S
C364 C365 1.287 . S
C365 C364 1.287 . S
C365 C366 1.524 . S
C365 H368 0.999 . S
C366 H336 0.950 . S
C366 C365 1.524 . S
C366 C367 1.415 . S
C367 H337 0.950 . S
C367 C362 1.363 . S
C367 C366 1.415 . S
H368 C365 0.999 . S
H369 C350 0.913 . S
H370 C388 0.951 . S
H371 C390 0.951 . S
H372 C392 0.950 . S
H373 C393 0.950 . S
H374 C395 0.950 . S
H375 C398 0.950 . S
H376 C399 0.950 . S
H377 C401 0.950 . S
H378 C402 0.950 . S
H379 C403 0.951 . S
H380 C405 0.951 . S
H381 C407 0.950 . S
H382 C408 0.950 . S
H383 C410 0.950 . S
H384 C413 0.950 . S
H385 C414 0.950 . S
H386 C416 0.950 1_554 S
H387 C417 0.950 . S
C388 H370 0.951 . S
C388 C389 1.366 . S
C388 C390 1.388 . S
C389 C388 1.366 . S
C389 C393 1.385 . S
C390 H371 0.951 . S
C390 C388 1.388 . S
C390 C391 1.366 . S
C391 C390 1.366 . S
C391 C392 1.414 . S
C391 C394 1.499 . S
C392 H372 0.950 . S
C392 C391 1.414 . S
C392 C393 1.374 . S
C393 H373 0.950 . S
C393 C389 1.385 . S
C393 C392 1.374 . S
C394 C391 1.499 . S
C394 C395 1.373 . S
C394 C396 1.389 . S
C395 H374 0.950 . S
C395 C394 1.373 . S
C395 C411 1.377 . S
C396 C394 1.389 . S
C396 C397 1.524 . S
C396 C410 1.377 . S
C397 C396 1.524 . S
C397 C398 1.397 . S
C397 C402 1.363 . S
C398 H375 0.950 . S
C398 C397 1.397 . S
C398 C399 1.334 . S
C399 H376 0.950 . S
C399 C398 1.334 . S
C399 C400 1.287 . S
C400 C399 1.287 . S
C400 C401 1.524 . S
C400 H419 0.913 . S
C401 H377 0.950 . S
C401 C400 1.524 . S
C401 C402 1.415 . S
C402 H378 0.950 . S
C402 C397 1.363 . S
C402 C401 1.415 . S
C403 H379 0.951 . S
C403 C404 1.366 . S
C403 C405 1.388 . S
C404 C403 1.366 . S
C404 C408 1.385 . S
C405 H380 0.951 . S
C405 C403 1.388 . S
C405 C406 1.366 . S
C406 C405 1.366 . S
C406 C407 1.414 . S
C406 C409 1.499 . S
C407 H381 0.950 . S
C407 C406 1.414 . S
C407 C408 1.374 . S
C408 H382 0.950 . S
C408 C404 1.385 . S
C408 C407 1.374 . S
C409 C406 1.499 . S
C409 C410 1.373 . S
C409 C411 1.389 . S
C410 H383 0.950 . S
C410 C396 1.377 . S
C410 C409 1.373 . S
C411 C395 1.377 . S
C411 C409 1.389 . S
C411 C412 1.524 . S
C412 C411 1.524 . S
C412 C413 1.397 . S
C412 C417 1.363 . S
C413 H384 0.950 . S
C413 C412 1.397 . S
C413 C414 1.334 . S
C414 H385 0.950 . S
C414 C413 1.334 . S
C414 C415 1.287 . S
C415 C414 1.287 . S
C415 C416 1.524 . S
C415 H418 0.999 . S
C416 H386 0.950 1_556 S
C416 C415 1.524 . S
C416 C417 1.415 . S
C417 H387 0.950 . S
C417 C412 1.363 . S
C417 C416 1.415 . S
H418 C415 0.999 . S
H419 C400 0.913 . S
H420 C438 0.951 . S
H421 C440 0.951 . S
H422 C442 0.950 . S
H423 C443 0.950 . S
H424 C445 0.950 . S
H425 C448 0.950 . S
H426 C449 0.950 . S
H427 C451 0.950 . S
H428 C452 0.950 1_545 S
H429 C453 0.951 . S
H430 C455 0.951 . S
H431 C457 0.950 . S
H432 C458 0.950 . S
H433 C460 0.950 . S
H434 C463 0.950 . S
H435 C464 0.950 . S
H436 C466 0.950 . S
H437 C467 0.950 1_565 S
C438 H420 0.951 . S
C438 C439 1.366 . S
C438 C440 1.388 . S
C439 C438 1.366 . S
C439 C443 1.385 . S
C440 H421 0.951 . S
C440 C438 1.388 . S
C440 C441 1.366 . S
C441 C440 1.366 . S
C441 C442 1.414 . S
C441 C444 1.499 . S
C442 H422 0.950 . S
C442 C441 1.414 . S
C442 C443 1.374 . S
C443 H423 0.950 . S
C443 C439 1.385 . S
C443 C442 1.374 . S
C444 C441 1.499 . S
C444 C445 1.373 . S
C444 C446 1.389 1_556 S
C445 H424 0.950 . S
C445 C444 1.373 . S
C445 C461 1.377 1_565 S
C446 C444 1.389 1_554 S
C446 C447 1.524 . S
C446 C460 1.377 1_565 S
C447 C446 1.524 . S
C447 C448 1.397 . S
C447 C452 1.363 . S
C448 H425 0.950 . S
C448 C447 1.397 . S
C448 C449 1.334 . S
C449 H426 0.950 . S
C449 C448 1.334 . S
C449 C450 1.287 . S
C450 C449 1.287 . S
C450 C451 1.524 . S
C450 H469 0.913 . S
C451 H427 0.950 . S
C451 C450 1.524 . S
C451 C452 1.415 . S
C452 H428 0.950 1_565 S
C452 C447 1.363 . S
C452 C451 1.415 . S
C453 H429 0.951 . S
C453 C454 1.366 . S
C453 C455 1.388 . S
C454 C453 1.366 . S
C454 C458 1.385 . S
C455 H430 0.951 . S
C455 C453 1.388 . S
C455 C456 1.366 . S
C456 C455 1.366 . S
C456 C457 1.414 . S
C456 C459 1.499 . S
C457 H431 0.950 . S
C457 C456 1.414 . S
C457 C458 1.374 . S
C458 H432 0.950 . S
C458 C454 1.385 . S
C458 C457 1.374 . S
C459 C456 1.499 . S
C459 C460 1.373 . S
C459 C461 1.389 1_554 S
C460 H433 0.950 . S
C460 C446 1.377 1_545 S
C460 C459 1.373 . S
C461 C445 1.377 1_545 S
C461 C459 1.389 1_556 S
C461 C462 1.524 . S
C462 C461 1.524 . S
C462 C463 1.397 . S
C462 C467 1.363 . S
C463 H434 0.950 . S
C463 C462 1.397 . S
C463 C464 1.334 . S
C464 H435 0.950 . S
C464 C463 1.334 . S
C464 C465 1.287 . S
C465 C464 1.287 . S
C465 C466 1.524 . S
C465 H468 0.999 . S
C466 H436 0.950 . S
C466 C465 1.524 . S
C466 C467 1.415 . S
C467 H437 0.950 1_545 S
C467 C462 1.363 . S
C467 C466 1.415 . S
H468 C465 0.999 . S
H469 C450 0.913 . S
H470 C488 0.951 . S
H471 C490 0.951 . S
H472 C492 0.950 . S
H473 C493 0.950 . S
H474 C495 0.950 . S
H475 C498 0.950 . S
H476 C499 0.950 . S
H477 C501 0.950 . S
H478 C502 0.950 . S
H479 C503 0.951 . S
H480 C505 0.951 . S
H481 C507 0.950 . S
H482 C508 0.950 . S
H483 C510 0.950 . S
H484 C513 0.950 1_455 S
H485 C514 0.950 . S
H486 C516 0.950 . S
H487 C517 0.950 . S
C488 H470 0.951 . S
C488 C489 1.366 . S
C488 C490 1.388 . S
C489 C488 1.366 . S
C489 C493 1.385 1_455 S
C490 H471 0.951 . S
C490 C488 1.388 . S
C490 C491 1.366 . S
C491 C490 1.366 . S
C491 C492 1.414 1_455 S
C491 C494 1.499 . S
C492 H472 0.950 . S
C492 C491 1.414 1_655 S
C492 C493 1.374 . S
C493 H473 0.950 . S
C493 C489 1.385 1_655 S
C493 C492 1.374 . S
C494 C491 1.499 . S
C494 C495 1.373 1_455 S
C494 C496 1.389 . S
C495 H474 0.950 . S
C495 C494 1.373 1_655 S
C495 C511 1.377 1_565 S
C496 C494 1.389 . S
C496 C497 1.524 . S
C496 C510 1.377 1_565 S
C497 C496 1.524 . S
C497 C498 1.397 . S
C497 C502 1.363 1_565 S
C498 H475 0.950 . S
C498 C497 1.397 . S
C498 C499 1.334 . S
C499 H476 0.950 . S
C499 C498 1.334 . S
C499 C500 1.287 . S
C500 C499 1.287 . S
C500 C501 1.524 1_565 S
C500 H519 0.913 . S
C501 H477 0.950 . S
C501 C500 1.524 1_545 S
C501 C502 1.415 . S
C502 H478 0.950 . S
C502 C497 1.363 1_545 S
C502 C501 1.415 . S
C503 H479 0.951 . S
C503 C504 1.366 1_655 S
C503 C505 1.388 . S
C504 C503 1.366 1_455 S
C504 C508 1.385 . S
C505 H480 0.951 . S
C505 C503 1.388 . S
C505 C506 1.366 1_655 S
C506 C505 1.366 1_455 S
C506 C507 1.414 . S
C506 C509 1.499 . S
C507 H481 0.950 . S
C507 C506 1.414 . S
C507 C508 1.374 . S
C508 H482 0.950 . S
C508 C504 1.385 . S
C508 C507 1.374 . S
C509 C506 1.499 . S
C509 C510 1.373 . S
C509 C511 1.389 1_455 S
C510 H483 0.950 . S
C510 C496 1.377 1_545 S
C510 C509 1.373 . S
C511 C495 1.377 1_545 S
C511 C509 1.389 1_655 S
C511 C512 1.524 . S
C512 C511 1.524 . S
C512 C513 1.397 . S
C512 C517 1.363 1_545 S
C513 H484 0.950 1_655 S
C513 C512 1.397 . S
C513 C514 1.334 . S
C514 H485 0.950 . S
C514 C513 1.334 . S
C514 C515 1.287 . S
C515 C514 1.287 . S
C515 C516 1.524 1_545 S
C515 H518 0.999 . S
C516 H486 0.950 . S
C516 C515 1.524 1_565 S
C516 C517 1.415 . S
C517 H487 0.950 . S
C517 C512 1.363 1_565 S
C517 C516 1.415 . S
H518 C515 0.999 . S
H519 C500 0.913 . S
H520 C538 0.951 . S
H521 C540 0.951 . S
H522 C542 0.950 . S
H523 C543 0.950 . S
H524 C545 0.950 . S
H525 C548 0.950 1_554 S
H526 C549 0.950 . S
H527 C551 0.950 . S
H528 C552 0.950 . S
H529 C553 0.951 . S
H530 C555 0.951 . S
H531 C557 0.950 . S
H532 C558 0.950 . S
H533 C560 0.950 . S
H534 C563 0.950 . S
H535 C564 0.950 . S
H536 C566 0.950 . S
H537 C567 0.950 . S
C538 H520 0.951 . S
C538 C539 1.366 1_655 S
C538 C540 1.388 . S
C539 C538 1.366 1_455 S
C539 C543 1.385 . S
C540 H521 0.951 . S
C540 C538 1.388 . S
C540 C541 1.366 1_655 S
C541 C540 1.366 1_455 S
C541 C542 1.414 . S
C541 C544 1.499 1_554 S
C542 H522 0.950 . S
C542 C541 1.414 . S
C542 C543 1.374 . S
C543 H523 0.950 . S
C543 C539 1.385 . S
C543 C542 1.374 . S
C544 C541 1.499 1_556 S
C544 C545 1.373 . S
C544 C546 1.389 1_455 S
C545 H524 0.950 . S
C545 C544 1.373 . S
C545 C561 1.377 . S
C546 C544 1.389 1_655 S
C546 C547 1.524 . S
C546 C560 1.377 . S
C547 C546 1.524 . S
C547 C548 1.397 . S
C547 C552 1.363 . S
C548 H525 0.950 1_556 S
C548 C547 1.397 . S
C548 C549 1.334 1_556 S
C549 H526 0.950 . S
C549 C548 1.334 1_554 S
C549 C550 1.287 . S
C550 C549 1.287 . S
C550 C551 1.524 1_554 S
C550 H569 0.913 . S
C551 H527 0.950 . S
C551 C550 1.524 1_556 S
C551 C552 1.415 . S
C552 H528 0.950 . S
C552 C547 1.363 . S
C552 C551 1.415 . S
C553 H529 0.951 . S
C553 C554 1.366 . S
C553 C555 1.388 . S
C554 C553 1.366 . S
C554 C558 1.385 1_455 S
C555 H530 0.951 . S
C555 C553 1.388 . S
C555 C556 1.366 . S
C556 C555 1.366 . S
C556 C557 1.414 1_455 S
C556 C559 1.499 . S
C557 H531 0.950 . S
C557 C556 1.414 1_655 S
C557 C558 1.374 . S
C558 H532 0.950 . S
C558 C554 1.385 1_655 S
C558 C557 1.374 . S
C559 C556 1.499 . S
C559 C560 1.373 1_455 S
C559 C561 1.389 . S
C560 H533 0.950 . S
C560 C546 1.377 . S
C560 C559 1.373 1_655 S
C561 C545 1.377 . S
C561 C559 1.389 . S
C561 C562 1.524 . S
C562 C561 1.524 . S
C562 C563 1.397 . S
C562 C567 1.363 . S
C563 H534 0.950 . S
C563 C562 1.397 . S
C563 C564 1.334 . S
C564 H535 0.950 . S
C564 C563 1.334 . S
C564 C565 1.287 . S
C565 C564 1.287 . S
C565 C566 1.524 . S
C565 H568 0.999 . S
C566 H536 0.950 . S
C566 C565 1.524 . S
C566 C567 1.415 . S
C567 H537 0.950 . S
C567 C562 1.363 . S
C567 C566 1.415 . S
H568 C565 0.999 . S
H569 C550 0.913 . S
H570 C588 0.951 . S
H571 C590 0.951 . S
H572 C592 0.950 . S
H573 C593 0.950 . S
H574 C595 0.950 . S
H575 C598 0.949 1_456 S
H576 C599 0.950 . S
H577 C601 0.950 . S
H578 C602 0.950 . S
H579 C603 0.951 . S
H580 C605 0.951 . S
H581 C607 0.950 . S
H582 C608 0.950 . S
H583 C610 0.950 . S
H584 C613 0.957 . S
H585 C614 0.950 . S
H586 C616 0.950 . S
H587 C617 0.950 . S
C588 H570 0.951 . S
C588 C589 1.366 1_655 S
C588 C590 1.388 . S
C589 C588 1.366 1_455 S
C589 C593 1.385 . S
C590 H571 0.951 . S
C590 C588 1.388 . S
C590 C591 1.366 1_655 S
C591 C590 1.366 1_455 S
C591 C592 1.414 . S
C591 C594 1.499 1_556 S
C592 H572 0.950 . S
C592 C591 1.414 . S
C592 C593 1.374 . S
C593 H573 0.950 . S
C593 C589 1.385 . S
C593 C592 1.374 . S
C594 C591 1.499 1_554 S
C594 C595 1.373 . S
C594 C596 1.389 1_455 S
C595 H574 0.950 . S
C595 C594 1.373 . S
C595 C611 1.377 . S
C596 C594 1.389 1_655 S
C596 C597 1.524 . S
C596 C610 1.377 . S
C597 C596 1.524 . S
C597 C598 1.399 . S
C597 C602 1.363 . S
C598 H575 0.949 1_654 S
C598 C597 1.399 . S
C598 C599 1.333 1_554 S
C599 H576 0.950 . S
C599 C598 1.333 1_556 S
C599 C600 1.287 . S
C600 C599 1.287 . S
C600 C601 1.524 1_556 S
C600 H619 0.913 . S
C601 H577 0.950 . S
C601 C600 1.524 1_554 S
C601 C602 1.415 . S
C602 H578 0.950 . S
C602 C597 1.363 . S
C602 C601 1.415 . S
C603 H579 0.951 . S
C603 C604 1.366 . S
C603 C605 1.388 . S
C604 C603 1.366 . S
C604 C608 1.385 1_455 S
C605 H580 0.951 . S
C605 C603 1.388 . S
C605 C606 1.366 . S
C606 C605 1.366 . S
C606 C607 1.414 1_455 S
C606 C609 1.499 . S
C607 H581 0.950 . S
C607 C606 1.414 1_655 S
C607 C608 1.374 . S
C608 H582 0.950 . S
C608 C604 1.385 1_655 S
C608 C607 1.374 . S
C609 C606 1.499 . S
C609 C610 1.373 1_455 S
C609 C611 1.389 . S
C610 H583 0.950 . S
C610 C596 1.377 . S
C610 C609 1.373 1_655 S
C611 C595 1.377 . S
C611 C609 1.389 . S
C611 C612 1.524 . S
C612 C611 1.524 . S
C612 C613 1.397 . S
C612 C617 1.363 . S
C613 H584 0.957 . S
C613 C612 1.397 . S
C613 C614 1.334 . S
C614 H585 0.950 . S
C614 C613 1.334 . S
C614 C615 1.287 . S
C615 C614 1.287 . S
C615 C616 1.524 . S
C615 H618 0.999 . S
C616 H586 0.950 . S
C616 C615 1.524 . S
C616 C617 1.415 . S
C617 H587 0.950 . S
C617 C612 1.363 . S
C617 C616 1.415 . S
H618 C615 0.999 . S
H619 C600 0.913 . S
H620 C638 0.951 . S
H621 C640 0.951 . S
H622 C642 0.950 . S
H623 C643 0.950 . S
H624 C645 0.950 . S
H625 C648 0.950 . S
H626 C649 0.950 . S
H627 C651 0.950 . S
H628 C652 0.950 . S
H629 C653 0.951 . S
H630 C655 0.951 . S
H631 C657 0.950 . S
H632 C658 0.950 . S
H633 C660 0.950 . S
H634 C663 0.950 . S
H635 C664 0.950 . S
H636 C666 0.950 . S
H637 C667 0.950 . S
C638 H620 0.951 . S
C638 C639 1.366 . S
C638 C640 1.388 . S
C639 C638 1.366 . S
C639 C643 1.385 . S
C640 H621 0.951 . S
C640 C638 1.388 . S
C640 C641 1.366 . S
C641 C640 1.366 . S
C641 C642 1.414 . S
C641 C644 1.499 . S
C642 H622 0.950 . S
C642 C641 1.414 . S
C642 C643 1.374 . S
C643 H623 0.950 . S
C643 C639 1.385 . S
C643 C642 1.374 . S
C644 C641 1.499 . S
C644 C645 1.373 . S
C644 C646 1.389 . S
C645 H624 0.950 . S
C645 C644 1.373 . S
C645 C661 1.377 . S
C646 C644 1.389 . S
C646 C647 1.524 . S
C646 C660 1.377 . S
C647 C646 1.524 . S
C647 C648 1.397 . S
C647 C652 1.363 . S
C648 H625 0.950 . S
C648 C647 1.397 . S
C648 C649 1.334 . S
C649 H626 0.950 . S
C649 C648 1.334 . S
C649 C650 1.287 . S
C650 C649 1.287 . S
C650 C651 1.524 . S
C650 H669 0.913 . S
C651 H627 0.950 . S
C651 C650 1.524 . S
C651 C652 1.415 . S
C652 H628 0.950 . S
C652 C647 1.363 . S
C652 C651 1.415 . S
C653 H629 0.951 . S
C653 C654 1.366 . S
C653 C655 1.388 . S
C654 C653 1.366 . S
C654 C658 1.385 . S
C655 H630 0.951 . S
C655 C653 1.388 . S
C655 C656 1.366 . S
C656 C655 1.366 . S
C656 C657 1.414 . S
C656 C659 1.499 . S
C657 H631 0.950 . S
C657 C656 1.414 . S
C657 C658 1.374 . S
C658 H632 0.950 . S
C658 C654 1.385 . S
C658 C657 1.374 . S
C659 C656 1.499 . S
C659 C660 1.373 . S
C659 C661 1.389 . S
C660 H633 0.950 . S
C660 C646 1.377 . S
C660 C659 1.373 . S
C661 C645 1.377 . S
C661 C659 1.389 . S
C661 C662 1.524 . S
C662 C661 1.524 . S
C662 C663 1.397 . S
C662 C667 1.363 . S
C663 H634 0.950 . S
C663 C662 1.397 . S
C663 C664 1.334 . S
C664 H635 0.950 . S
C664 C663 1.334 . S
C664 C665 1.287 . S
C665 C664 1.287 . S
C665 C666 1.524 . S
C665 H668 0.999 . S
C666 H636 0.950 . S
C666 C665 1.524 . S
C666 C667 1.415 . S
C667 H637 0.950 . S
C667 C662 1.363 . S
C667 C666 1.415 . S
H668 C665 0.999 . S
H669 C650 0.913 . S
H670 C688 0.951 . S
H671 C690 0.951 . S
H672 C692 0.950 . S
H673 C693 0.950 . S
H674 C695 0.950 . S
H675 C698 0.950 . S
H676 C699 0.950 . S
H677 C701 0.950 . S
H678 C702 0.950 . S
H679 C703 0.951 . S
H680 C705 0.951 . S
H681 C707 0.950 . S
H682 C708 0.950 . S
H683 C710 0.950 . S
H684 C713 0.950 . S
H685 C714 0.950 . S
H686 C716 0.950 . S
H687 C717 0.950 . S
C688 H670 0.951 . S
C688 C689 1.366 . S
C688 C690 1.388 . S
C689 C688 1.366 . S
C689 C693 1.385 . S
C690 H671 0.951 . S
C690 C688 1.388 . S
C690 C691 1.366 . S
C691 C690 1.366 . S
C691 C692 1.414 . S
C691 C694 1.499 . S
C692 H672 0.950 . S
C692 C691 1.414 . S
C692 C693 1.374 . S
C693 H673 0.950 . S
C693 C689 1.385 . S
C693 C692 1.374 . S
C694 C691 1.499 . S
C694 C695 1.373 . S
C694 C696 1.389 . S
C695 H674 0.950 . S
C695 C694 1.373 . S
C695 C711 1.377 . S
C696 C694 1.389 . S
C696 C697 1.524 . S
C696 C710 1.377 . S
C697 C696 1.524 . S
C697 C698 1.397 . S
C697 C702 1.363 . S
C698 H675 0.950 . S
C698 C697 1.397 . S
C698 C699 1.334 . S
C699 H676 0.950 . S
C699 C698 1.334 . S
C699 C700 1.287 . S
C700 C699 1.287 . S
C700 C701 1.524 . S
C700 H719 0.913 . S
C701 H677 0.950 . S
C701 C700 1.524 . S
C701 C702 1.415 . S
C702 H678 0.950 . S
C702 C697 1.363 . S
C702 C701 1.415 . S
C703 H679 0.951 . S
C703 C704 1.366 . S
C703 C705 1.388 . S
C704 C703 1.366 . S
C704 C708 1.385 . S
C705 H680 0.951 . S
C705 C703 1.388 . S
C705 C706 1.366 . S
C706 C705 1.366 . S
C706 C707 1.414 . S
C706 C709 1.499 . S
C707 H681 0.950 . S
C707 C706 1.414 . S
C707 C708 1.374 . S
C708 H682 0.950 . S
C708 C704 1.385 . S
C708 C707 1.374 . S
C709 C706 1.499 . S
C709 C710 1.373 . S
C709 C711 1.389 . S
C710 H683 0.950 . S
C710 C696 1.377 . S
C710 C709 1.373 . S
C711 C695 1.377 . S
C711 C709 1.389 . S
C711 C712 1.524 . S
C712 C711 1.524 . S
C712 C713 1.397 . S
C712 C717 1.363 . S
C713 H684 0.950 . S
C713 C712 1.397 . S
C713 C714 1.334 . S
C714 H685 0.950 . S
C714 C713 1.334 . S
C714 C715 1.287 . S
C715 C714 1.287 . S
C715 C716 1.524 . S
C715 H718 0.999 . S
C716 H686 0.950 . S
C716 C715 1.524 . S
C716 C717 1.415 . S
C717 H687 0.950 . S
C717 C712 1.363 . S
C717 C716 1.415 . S
H718 C715 0.999 . S
H719 C700 0.913 . S
C139 N14 1.873 . S
C154 N36 1.873 1_455 S
C189 C76 1.839 . S
C204 C57 1.839 . S
C239 N104 1.637 . S
C254 N66 1.637 . S
C289 C27 1.711 . S
C304 C106 1.711 . S
C339 C117 1.839 . S
C354 C16 1.839 . S
C389 C87 1.711 . S
C404 C46 1.711 . S
C439 N74 1.873 . S
C454 N96 1.873 . S
C489 N44 1.636 . S
C504 N6 1.641 . S
C539 C10 0.729 . S
C554 C1 0.729 . S
C589 C31 0.729 . S
C604 C40 0.729 . S
C639 C61 0.728 . S
C654 C70 0.728 . S
C689 C91 0.729 . S
C704 C100 0.729 . S
