# Generated by pormake.
# Topology lcv-a, (4)-cn, num edge types: 1
# Building blocks:
#     Node 0, Type 0, BuildingBlock: CEKHIL_clean_sbu_0, # of connection points: 4
#     Node 1, Type 0, BuildingBlock: CEKHIL_clean_sbu_0, # of connection points: 4
#     Node 2, Type 0, BuildingBlock: CEKHIL_clean_sbu_0, # of connection points: 4
#     Node 3, Type 0, BuildingBlock: CEKHIL_clean_sbu_0, # of connection points: 4
#     Node 4, Type 0, BuildingBlock: CEKHIL_clean_sbu_0, # of connection points: 4
#     Node 5, Type 0, BuildingBlock: CEKHIL_clean_sbu_0, # of connection points: 4
#     Node 6, Type 0, BuildingBlock: CEKHIL_clean_sbu_0, # of connection points: 4
#     Node 7, Type 0, BuildingBlock: CEKHIL_clean_sbu_0, # of connection points: 4
#     Node 8, Type 0, BuildingBlock: CEKHIL_clean_sbu_0, # of connection points: 4
#     Node 9, Type 0, BuildingBlock: CEKHIL_clean_sbu_0, # of connection points: 4
#     Node 10, Type 0, BuildingBlock: CEKHIL_clean_sbu_0, # of connection points: 4
#     Node 11, Type 0, BuildingBlock: CEKHIL_clean_sbu_0, # of connection points: 4
#     Node 12, Type 0, BuildingBlock: CEKHIL_clean_sbu_0, # of connection points: 4
#     Node 13, Type 0, BuildingBlock: CEKHIL_clean_sbu_0, # of connection points: 4
#     Node 14, Type 0, BuildingBlock: CEKHIL_clean_sbu_0, # of connection points: 4
#     Node 15, Type 0, BuildingBlock: CEKHIL_clean_sbu_0, # of connection points: 4
#     Node 16, Type 0, BuildingBlock: CEKHIL_clean_sbu_0, # of connection points: 4
#     Node 17, Type 0, BuildingBlock: CEKHIL_clean_sbu_0, # of connection points: 4
#     Node 18, Type 0, BuildingBlock: CEKHIL_clean_sbu_0, # of connection points: 4
#     Node 19, Type 0, BuildingBlock: CEKHIL_clean_sbu_0, # of connection points: 4
#     Node 20, Type 0, BuildingBlock: CEKHIL_clean_sbu_0, # of connection points: 4
#     Node 21, Type 0, BuildingBlock: CEKHIL_clean_sbu_0, # of connection points: 4
#     Node 22, Type 0, BuildingBlock: CEKHIL_clean_sbu_0, # of connection points: 4
#     Node 23, Type 0, BuildingBlock: CEKHIL_clean_sbu_0, # of connection points: 4
#     Node 24, Type 0, BuildingBlock: CEKHIL_clean_sbu_0, # of connection points: 4
#     Node 25, Type 0, BuildingBlock: CEKHIL_clean_sbu_0, # of connection points: 4
#     Node 26, Type 0, BuildingBlock: CEKHIL_clean_sbu_0, # of connection points: 4
#     Node 27, Type 0, BuildingBlock: CEKHIL_clean_sbu_0, # of connection points: 4
#     Node 28, Type 0, BuildingBlock: CEKHIL_clean_sbu_0, # of connection points: 4
#     Node 29, Type 0, BuildingBlock: CEKHIL_clean_sbu_0, # of connection points: 4
#     Node 30, Type 0, BuildingBlock: CEKHIL_clean_sbu_0, # of connection points: 4
#     Node 31, Type 0, BuildingBlock: CEKHIL_clean_sbu_0, # of connection points: 4
#     Node 32, Type 0, BuildingBlock: CEKHIL_clean_sbu_0, # of connection points: 4
#     Node 33, Type 0, BuildingBlock: CEKHIL_clean_sbu_0, # of connection points: 4
#     Node 34, Type 0, BuildingBlock: CEKHIL_clean_sbu_0, # of connection points: 4
#     Node 35, Type 0, BuildingBlock: CEKHIL_clean_sbu_0, # of connection points: 4
#     Node 36, Type 0, BuildingBlock: CEKHIL_clean_sbu_0, # of connection points: 4
#     Node 37, Type 0, BuildingBlock: CEKHIL_clean_sbu_0, # of connection points: 4
#     Node 38, Type 0, BuildingBlock: CEKHIL_clean_sbu_0, # of connection points: 4
#     Node 39, Type 0, BuildingBlock: CEKHIL_clean_sbu_0, # of connection points: 4
#     Node 40, Type 0, BuildingBlock: CEKHIL_clean_sbu_0, # of connection points: 4
#     Node 41, Type 0, BuildingBlock: CEKHIL_clean_sbu_0, # of connection points: 4
#     Node 42, Type 0, BuildingBlock: CEKHIL_clean_sbu_0, # of connection points: 4
#     Node 43, Type 0, BuildingBlock: CEKHIL_clean_sbu_0, # of connection points: 4
#     Node 44, Type 0, BuildingBlock: CEKHIL_clean_sbu_0, # of connection points: 4
#     Node 45, Type 0, BuildingBlock: CEKHIL_clean_sbu_0, # of connection points: 4
#     Node 46, Type 0, BuildingBlock: CEKHIL_clean_sbu_0, # of connection points: 4
#     Node 47, Type 0, BuildingBlock: CEKHIL_clean_sbu_0, # of connection points: 4
#     Edge 48, Type (0, 0), BuildingBlock: XUDNAN_clean_linker_2, # of connection points: 2
#     Edge 49, Type (0, 0), BuildingBlock: XUDNAN_clean_linker_2, # of connection points: 2
#     Edge 50, Type (0, 0), BuildingBlock: XUDNAN_clean_linker_2, # of connection points: 2
#     Edge 51, Type (0, 0), BuildingBlock: XUDNAN_clean_linker_2, # of connection points: 2
#     Edge 52, Type (0, 0), BuildingBlock: XUDNAN_clean_linker_2, # of connection points: 2
#     Edge 53, Type (0, 0), BuildingBlock: XUDNAN_clean_linker_2, # of connection points: 2
#     Edge 54, Type (0, 0), BuildingBlock: XUDNAN_clean_linker_2, # of connection points: 2
#     Edge 55, Type (0, 0), BuildingBlock: XUDNAN_clean_linker_2, # of connection points: 2
#     Edge 56, Type (0, 0), BuildingBlock: XUDNAN_clean_linker_2, # of connection points: 2
#     Edge 57, Type (0, 0), BuildingBlock: XUDNAN_clean_linker_2, # of connection points: 2
#     Edge 58, Type (0, 0), BuildingBlock: XUDNAN_clean_linker_2, # of connection points: 2
#     Edge 59, Type (0, 0), BuildingBlock: XUDNAN_clean_linker_2, # of connection points: 2
#     Edge 60, Type (0, 0), BuildingBlock: XUDNAN_clean_linker_2, # of connection points: 2
#     Edge 61, Type (0, 0), BuildingBlock: XUDNAN_clean_linker_2, # of connection points: 2
#     Edge 62, Type (0, 0), BuildingBlock: XUDNAN_clean_linker_2, # of connection points: 2
#     Edge 63, Type (0, 0), BuildingBlock: XUDNAN_clean_linker_2, # of connection points: 2
#     Edge 64, Type (0, 0), BuildingBlock: XUDNAN_clean_linker_2, # of connection points: 2
#     Edge 65, Type (0, 0), BuildingBlock: XUDNAN_clean_linker_2, # of connection points: 2
#     Edge 66, Type (0, 0), BuildingBlock: XUDNAN_clean_linker_2, # of connection points: 2
#     Edge 67, Type (0, 0), BuildingBlock: XUDNAN_clean_linker_2, # of connection points: 2
#     Edge 68, Type (0, 0), BuildingBlock: XUDNAN_clean_linker_2, # of connection points: 2
#     Edge 69, Type (0, 0), BuildingBlock: XUDNAN_clean_linker_2, # of connection points: 2
#     Edge 70, Type (0, 0), BuildingBlock: XUDNAN_clean_linker_2, # of connection points: 2
#     Edge 71, Type (0, 0), BuildingBlock: XUDNAN_clean_linker_2, # of connection points: 2
#     Edge 72, Type (0, 0), BuildingBlock: XUDNAN_clean_linker_2, # of connection points: 2
#     Edge 73, Type (0, 0), BuildingBlock: XUDNAN_clean_linker_2, # of connection points: 2
#     Edge 74, Type (0, 0), BuildingBlock: XUDNAN_clean_linker_2, # of connection points: 2
#     Edge 75, Type (0, 0), BuildingBlock: XUDNAN_clean_linker_2, # of connection points: 2
#     Edge 76, Type (0, 0), BuildingBlock: XUDNAN_clean_linker_2, # of connection points: 2
#     Edge 77, Type (0, 0), BuildingBlock: XUDNAN_clean_linker_2, # of connection points: 2
#     Edge 78, Type (0, 0), BuildingBlock: XUDNAN_clean_linker_2, # of connection points: 2
#     Edge 79, Type (0, 0), BuildingBlock: XUDNAN_clean_linker_2, # of connection points: 2
#     Edge 80, Type (0, 0), BuildingBlock: XUDNAN_clean_linker_2, # of connection points: 2
#     Edge 81, Type (0, 0), BuildingBlock: XUDNAN_clean_linker_2, # of connection points: 2
#     Edge 82, Type (0, 0), BuildingBlock: XUDNAN_clean_linker_2, # of connection points: 2
#     Edge 83, Type (0, 0), BuildingBlock: XUDNAN_clean_linker_2, # of connection points: 2
#     Edge 84, Type (0, 0), BuildingBlock: XUDNAN_clean_linker_2, # of connection points: 2
#     Edge 85, Type (0, 0), BuildingBlock: XUDNAN_clean_linker_2, # of connection points: 2
#     Edge 86, Type (0, 0), BuildingBlock: XUDNAN_clean_linker_2, # of connection points: 2
#     Edge 87, Type (0, 0), BuildingBlock: XUDNAN_clean_linker_2, # of connection points: 2
#     Edge 88, Type (0, 0), BuildingBlock: XUDNAN_clean_linker_2, # of connection points: 2
#     Edge 89, Type (0, 0), BuildingBlock: XUDNAN_clean_linker_2, # of connection points: 2
#     Edge 90, Type (0, 0), BuildingBlock: XUDNAN_clean_linker_2, # of connection points: 2
#     Edge 91, Type (0, 0), BuildingBlock: XUDNAN_clean_linker_2, # of connection points: 2
#     Edge 92, Type (0, 0), BuildingBlock: XUDNAN_clean_linker_2, # of connection points: 2
#     Edge 93, Type (0, 0), BuildingBlock: XUDNAN_clean_linker_2, # of connection points: 2
#     Edge 94, Type (0, 0), BuildingBlock: XUDNAN_clean_linker_2, # of connection points: 2
#     Edge 95, Type (0, 0), BuildingBlock: XUDNAN_clean_linker_2, # of connection points: 2
#     Edge 96, Type (0, 0), BuildingBlock: XUDNAN_clean_linker_2, # of connection points: 2
#     Edge 97, Type (0, 0), BuildingBlock: XUDNAN_clean_linker_2, # of connection points: 2
#     Edge 98, Type (0, 0), BuildingBlock: XUDNAN_clean_linker_2, # of connection points: 2
#     Edge 99, Type (0, 0), BuildingBlock: XUDNAN_clean_linker_2, # of connection points: 2
#     Edge 100, Type (0, 0), BuildingBlock: XUDNAN_clean_linker_2, # of connection points: 2
#     Edge 101, Type (0, 0), BuildingBlock: XUDNAN_clean_linker_2, # of connection points: 2
#     Edge 102, Type (0, 0), BuildingBlock: XUDNAN_clean_linker_2, # of connection points: 2
#     Edge 103, Type (0, 0), BuildingBlock: XUDNAN_clean_linker_2, # of connection points: 2
#     Edge 104, Type (0, 0), BuildingBlock: XUDNAN_clean_linker_2, # of connection points: 2
#     Edge 105, Type (0, 0), BuildingBlock: XUDNAN_clean_linker_2, # of connection points: 2
#     Edge 106, Type (0, 0), BuildingBlock: XUDNAN_clean_linker_2, # of connection points: 2
#     Edge 107, Type (0, 0), BuildingBlock: XUDNAN_clean_linker_2, # of connection points: 2
#     Edge 108, Type (0, 0), BuildingBlock: XUDNAN_clean_linker_2, # of connection points: 2
#     Edge 109, Type (0, 0), BuildingBlock: XUDNAN_clean_linker_2, # of connection points: 2
#     Edge 110, Type (0, 0), BuildingBlock: XUDNAN_clean_linker_2, # of connection points: 2
#     Edge 111, Type (0, 0), BuildingBlock: XUDNAN_clean_linker_2, # of connection points: 2
#     Edge 112, Type (0, 0), BuildingBlock: XUDNAN_clean_linker_2, # of connection points: 2
#     Edge 113, Type (0, 0), BuildingBlock: XUDNAN_clean_linker_2, # of connection points: 2
#     Edge 114, Type (0, 0), BuildingBlock: XUDNAN_clean_linker_2, # of connection points: 2
#     Edge 115, Type (0, 0), BuildingBlock: XUDNAN_clean_linker_2, # of connection points: 2
#     Edge 116, Type (0, 0), BuildingBlock: XUDNAN_clean_linker_2, # of connection points: 2
#     Edge 117, Type (0, 0), BuildingBlock: XUDNAN_clean_linker_2, # of connection points: 2
#     Edge 118, Type (0, 0), BuildingBlock: XUDNAN_clean_linker_2, # of connection points: 2
#     Edge 119, Type (0, 0), BuildingBlock: XUDNAN_clean_linker_2, # of connection points: 2
#     Edge 120, Type (0, 0), BuildingBlock: XUDNAN_clean_linker_2, # of connection points: 2
#     Edge 121, Type (0, 0), BuildingBlock: XUDNAN_clean_linker_2, # of connection points: 2
#     Edge 122, Type (0, 0), BuildingBlock: XUDNAN_clean_linker_2, # of connection points: 2
#     Edge 123, Type (0, 0), BuildingBlock: XUDNAN_clean_linker_2, # of connection points: 2
#     Edge 124, Type (0, 0), BuildingBlock: XUDNAN_clean_linker_2, # of connection points: 2
#     Edge 125, Type (0, 0), BuildingBlock: XUDNAN_clean_linker_2, # of connection points: 2
#     Edge 126, Type (0, 0), BuildingBlock: XUDNAN_clean_linker_2, # of connection points: 2
#     Edge 127, Type (0, 0), BuildingBlock: XUDNAN_clean_linker_2, # of connection points: 2
#     Edge 128, Type (0, 0), BuildingBlock: XUDNAN_clean_linker_2, # of connection points: 2
#     Edge 129, Type (0, 0), BuildingBlock: XUDNAN_clean_linker_2, # of connection points: 2
#     Edge 130, Type (0, 0), BuildingBlock: XUDNAN_clean_linker_2, # of connection points: 2
#     Edge 131, Type (0, 0), BuildingBlock: XUDNAN_clean_linker_2, # of connection points: 2
#     Edge 132, Type (0, 0), BuildingBlock: XUDNAN_clean_linker_2, # of connection points: 2
#     Edge 133, Type (0, 0), BuildingBlock: XUDNAN_clean_linker_2, # of connection points: 2
#     Edge 134, Type (0, 0), BuildingBlock: XUDNAN_clean_linker_2, # of connection points: 2
#     Edge 135, Type (0, 0), BuildingBlock: XUDNAN_clean_linker_2, # of connection points: 2
#     Edge 136, Type (0, 0), BuildingBlock: XUDNAN_clean_linker_2, # of connection points: 2
#     Edge 137, Type (0, 0), BuildingBlock: XUDNAN_clean_linker_2, # of connection points: 2
#     Edge 138, Type (0, 0), BuildingBlock: XUDNAN_clean_linker_2, # of connection points: 2
#     Edge 139, Type (0, 0), BuildingBlock: XUDNAN_clean_linker_2, # of connection points: 2
#     Edge 140, Type (0, 0), BuildingBlock: XUDNAN_clean_linker_2, # of connection points: 2
#     Edge 141, Type (0, 0), BuildingBlock: XUDNAN_clean_linker_2, # of connection points: 2
#     Edge 142, Type (0, 0), BuildingBlock: XUDNAN_clean_linker_2, # of connection points: 2
#     Edge 143, Type (0, 0), BuildingBlock: XUDNAN_clean_linker_2, # of connection points: 2
# Relax obj value: 0.869
# Max RMSD: 0.535
# Mean RMSD: 0.408
data_MOF--net-lcv-a--node1-CEKHIL_clean_sbu_0--edge1-XUDNAN_clean_linker_2
_symmetry_space_group_name_H-M    P1
_symmetry_Int_Tables_number       1
_symmetry_cell_setting            triclinic
loop_
_symmetry_equiv_pos_as_xyz
'x, y, z'
_cell_length_a     85.203793
_cell_length_b     85.160521
_cell_length_c     85.190879
_cell_angle_alpha  89.974488
_cell_angle_beta   89.931661
_cell_angle_gamma 89.943647
loop_
_atom_site_label
_atom_site_type_symbol
_atom_site_fract_x
_atom_site_fract_y
_atom_site_fract_z
_atom_type_partial_charge
Co0 Co 0.00257 0.37112 0.24081 0.0
O1 O 0.98682 0.38416 0.25025 0.0
O2 O 0.99701 0.38769 0.22647 0.0
C3 C 0.01933 0.36941 0.26098 0.0
O4 O 0.01936 0.36022 0.22749 0.0
Co5 Co 0.00762 0.3376 0.25385 0.0
O6 O 0.02679 0.33844 0.24051 0.0
C7 C 0.98016 0.34369 0.23432 0.0
C8 C 0.98726 0.39223 0.23733 0.0
C9 C 0.02861 0.34839 0.22947 0.0
O10 O 0.98572 0.35746 0.23176 0.0
O11 O 0.98657 0.33396 0.24381 0.0
O12 O 0.01916 0.38186 0.25215 0.0
O13 O 0.00768 0.35985 0.25892 0.0
Co14 Co 0.96192 0.81601 0.45728 0.0
O15 O 0.94489 0.81065 0.47051 0.0
O16 O 0.94526 0.83152 0.45489 0.0
C17 C 0.98011 0.81153 0.4757 0.0
O18 O 0.97868 0.825 0.44248 0.0
Co19 Co 0.98596 0.78936 0.45001 0.0
O20 O 0.9982 0.80705 0.44104 0.0
C21 C 0.95446 0.78867 0.43604 0.0
C22 C 0.93783 0.823 0.46524 0.0
C23 C 0.99248 0.82056 0.43802 0.0
O24 O 0.9525 0.80311 0.43994 0.0
O25 O 0.96628 0.78053 0.44054 0.0
O26 O 0.97302 0.82505 0.47523 0.0
O27 O 0.97508 0.80115 0.46597 0.0
Co28 Co 0.58539 0.75077 0.74713 0.0
O29 O 0.59621 0.73875 0.76281 0.0
O30 O 0.58124 0.72857 0.74425 0.0
C31 C 0.57525 0.76861 0.76314 0.0
O32 O 0.57202 0.76075 0.72895 0.0
Co33 Co 0.59825 0.78221 0.73876 0.0
O34 O 0.57875 0.78626 0.72748 0.0
C35 C 0.60558 0.75511 0.71994 0.0
C36 C 0.59057 0.72634 0.75612 0.0
C37 C 0.57 0.77491 0.72352 0.0
O38 O 0.60416 0.74867 0.73329 0.0
O39 O 0.60447 0.77001 0.71899 0.0
O40 O 0.56892 0.75488 0.76138 0.0
O41 O 0.58915 0.77063 0.7568 0.0
Co42 Co 0.58365 0.34182 0.96755 0.0
O43 O 0.59722 0.35117 0.98278 0.0
O44 O 0.60504 0.33926 0.96089 0.0
C45 C 0.56853 0.32862 0.98422 0.0
O46 O 0.57288 0.33034 0.94908 0.0
Co47 Co 0.55028 0.35241 0.96475 0.0
O48 O 0.54689 0.33418 0.95116 0.0
C49 C 0.57433 0.36553 0.9447 0.0
C50 C 0.6086 0.34697 0.97355 0.0
C51 C 0.55862 0.32759 0.94479 0.0
O52 O 0.58288 0.36234 0.95645 0.0
O53 O 0.55961 0.36287 0.94526 0.0
O54 O 0.58209 0.3233 0.97974 0.0
O55 O 0.56502 0.343 0.98001 0.0
Co56 Co 0.00498 0.74276 0.33708 0.0
O57 O 0.99416 0.732 0.32052 0.0
O58 O 0.00257 0.72088 0.34253 0.0
C59 C 0.02165 0.75571 0.32151 0.0
O60 O 0.01702 0.75037 0.3566 0.0
Co61 Co 0.00327 0.77907 0.33851 0.0
O62 O 0.01846 0.77676 0.3561 0.0
C63 C 0.97552 0.76028 0.34647 0.0
C64 C 0.99541 0.71949 0.32909 0.0
C65 C 0.02189 0.76356 0.36233 0.0
O66 O 0.98424 0.74797 0.34709 0.0
O67 O 0.98053 0.77355 0.34147 0.0
O68 O 0.02482 0.74138 0.32572 0.0
O69 O 0.0081 0.76105 0.32563 0.0
Co70 Co 0.57777 0.76428 0.61482 0.0
O71 O 0.59627 0.76842 0.60263 0.0
O72 O 0.59578 0.7652 0.62844 0.0
C73 C 0.56552 0.78387 0.60296 0.0
O74 O 0.56089 0.76083 0.63199 0.0
Co75 Co 0.5513 0.7507 0.60285 0.0
O76 O 0.53784 0.75679 0.62051 0.0
C77 C 0.5733 0.73108 0.61778 0.0
C78 C 0.60384 0.76785 0.61574 0.0
C79 C 0.54583 0.75955 0.63266 0.0
O80 O 0.58162 0.7415 0.61126 0.0
O81 O 0.55864 0.73157 0.61517 0.0
O82 O 0.57299 0.78555 0.61603 0.0
O83 O 0.56405 0.76962 0.59716 0.0
Co84 Co 0.6042 0.34929 0.81884 0.0
O85 O 0.61568 0.36451 0.80697 0.0
O86 O 0.59916 0.37015 0.82628 0.0
C87 C 0.59641 0.33528 0.79852 0.0
O88 O 0.58925 0.33606 0.83318 0.0
Co89 Co 0.61616 0.31775 0.82306 0.0
O90 O 0.59463 0.31107 0.82713 0.0
C91 C 0.62303 0.34067 0.84618 0.0
C92 C 0.60938 0.37503 0.81597 0.0
C93 C 0.58571 0.32123 0.83328 0.0
O94 O 0.62205 0.34896 0.8339 0.0
O95 O 0.62125 0.32588 0.845 0.0
O96 O 0.58899 0.34785 0.80293 0.0
O97 O 0.60972 0.33196 0.80555 0.0
Co98 Co 0.99586 0.30355 0.11346 0.0
O99 O 0.97941 0.30384 0.09849 0.0
O100 O 0.98562 0.28318 0.11307 0.0
C101 C 0.01349 0.31601 0.09833 0.0
O102 O 0.01291 0.29944 0.12987 0.0
Co103 Co 0.0075 0.33594 0.1258 0.0
O104 O 0.02438 0.32276 0.13511 0.0
C105 C 0.97753 0.32326 0.13707 0.0
C106 C 0.97632 0.28957 0.10273 0.0
C107 C 0.02357 0.30788 0.13653 0.0
O108 O 0.98078 0.31016 0.13038 0.0
O109 O 0.98591 0.33561 0.13531 0.0
O110 O 0.0114 0.30095 0.09677 0.0
O111 O 0.00378 0.32298 0.1076 0.0
Co112 Co 0.23679 0.02013 0.37824 0.0
O113 O 0.25129 0.00828 0.39075 0.0
O114 O 0.22878 0.01849 0.39928 0.0
C115 C 0.25468 0.03589 0.3671 0.0
O116 O 0.21895 0.03309 0.36874 0.0
Co117 Co 0.23914 0.01891 0.34185 0.0
O118 O 0.22255 0.03535 0.34264 0.0
C119 C 0.22537 0.99227 0.35918 0.0
C120 C 0.24156 0.01065 0.40221 0.0
C121 C 0.21509 0.03863 0.35521 0.0
O122 O 0.22569 0.00032 0.37194 0.0
O123 O 0.23169 0.99694 0.34635 0.0
O124 O 0.24929 0.03904 0.38101 0.0
O125 O 0.25028 0.02266 0.36117 0.0
Co126 Co 0.32238 0.96871 0.58743 0.0
O127 O 0.33001 0.98543 0.60008 0.0
O128 O 0.32514 0.96132 0.60878 0.0
C129 C 0.30351 0.9828 0.5762 0.0
O130 O 0.31322 0.94847 0.57717 0.0
Co131 Co 0.32884 0.96802 0.55507 0.0
O132 O 0.30892 0.9569 0.55293 0.0
C133 C 0.35111 0.95331 0.57436 0.0
C134 C 0.33043 0.97542 0.6115 0.0
C135 C 0.30594 0.94733 0.5639 0.0
O136 O 0.34479 0.96296 0.58374 0.0
O137 O 0.34623 0.95256 0.56029 0.0
O138 O 0.30174 0.97581 0.58958 0.0
O139 O 0.31756 0.98243 0.56978 0.0
Co140 Co 0.35733 0.08619 0.86345 0.0
O141 O 0.34423 0.10153 0.87283 0.0
O142 O 0.3511 0.07875 0.88391 0.0
C143 C 0.3387 0.0832 0.84172 0.0
O144 O 0.37078 0.06785 0.8555 0.0
Co145 Co 0.36584 0.09075 0.82268 0.0
O146 O 0.37302 0.0688 0.8287 0.0
C147 C 0.37521 0.10874 0.84258 0.0
C148 C 0.34279 0.09171 0.88442 0.0
C149 C 0.37532 0.06221 0.8421 0.0
O150 O 0.36371 0.09934 0.84527 0.0
O151 O 0.37832 0.11018 0.82814 0.0
O152 O 0.33782 0.076 0.85455 0.0
O153 O 0.35093 0.09166 0.84122 0.0
Co154 Co 0.33633 0.11505 0.13667 0.0
O155 O 0.33633 0.10209 0.15484 0.0
O156 O 0.35117 0.12321 0.15171 0.0
C157 C 0.33562 0.09553 0.11904 0.0
O158 O 0.33959 0.13111 0.11911 0.0
Co159 Co 0.30718 0.11431 0.11486 0.0
O160 O 0.31981 0.12897 0.10174 0.0
C161 C 0.30469 0.12911 0.14571 0.0
C162 C 0.34577 0.11232 0.16102 0.0
C163 C 0.33271 0.13511 0.10624 0.0
O164 O 0.31973 0.12855 0.1467 0.0
O165 O 0.29708 0.12265 0.1345 0.0
O166 O 0.34906 0.09975 0.125 0.0
O167 O 0.32346 0.10216 0.12504 0.0
Co168 Co 0.25993 0.11943 0.26462 0.0
O169 O 0.27671 0.13312 0.25828 0.0
O170 O 0.26323 0.11754 0.24237 0.0
C171 C 0.27285 0.10901 0.28508 0.0
O172 O 0.24237 0.10316 0.26691 0.0
Co173 Co 0.24443 0.12239 0.29749 0.0
O174 O 0.23524 0.10156 0.29227 0.0
C175 C 0.23598 0.14467 0.27208 0.0
C176 C 0.27491 0.12717 0.2444 0.0
C177 C 0.23469 0.09657 0.27817 0.0
O178 O 0.24393 0.13669 0.26196 0.0
O179 O 0.23621 0.14174 0.28684 0.0
O180 O 0.27515 0.10359 0.27103 0.0
O181 O 0.26391 0.12119 0.28611 0.0
Co182 Co 0.22804 0.94455 0.5193 0.0
O183 O 0.22687 0.96198 0.5053 0.0
O184 O 0.24591 0.94417 0.50512 0.0
C185 C 0.22309 0.96044 0.53983 0.0
O186 O 0.23422 0.92555 0.53223 0.0
Co187 Co 0.20205 0.93265 0.53796 0.0
O188 O 0.21667 0.91963 0.55056 0.0
C189 C 0.20394 0.92254 0.50529 0.0
C190 C 0.24002 0.95709 0.49951 0.0
C191 C 0.23004 0.91762 0.54433 0.0
O192 O 0.21595 0.93145 0.5042 0.0
O193 O 0.19613 0.92123 0.51805 0.0
O194 O 0.23717 0.95734 0.53502 0.0
O195 O 0.21174 0.95301 0.53274 0.0
Co196 Co 0.36077 0.01379 0.74221 0.0
O197 O 0.34766 0.00581 0.72587 0.0
O198 O 0.37199 0.01471 0.72268 0.0
C199 C 0.34232 0.02874 0.75332 0.0
O200 O 0.37795 0.02297 0.75619 0.0
Co201 Co 0.35392 0.00664 0.77705 0.0
O202 O 0.37137 0.02155 0.7817 0.0
C203 C 0.36652 0.98178 0.75656 0.0
C204 C 0.35947 0.00847 0.7166 0.0
C205 C 0.38057 0.02598 0.77076 0.0
O206 O 0.36888 0.99221 0.74597 0.0
O207 O 0.35947 0.98479 0.76952 0.0
O208 O 0.35019 0.03395 0.74131 0.0
O209 O 0.34514 0.01441 0.75748 0.0
Co210 Co 0.29569 0.11141 0.99833 0.0
O211 O 0.29844 0.09682 0.98174 0.0
O212 O 0.27773 0.11238 0.98432 0.0
C213 C 0.30405 0.09475 0.01692 0.0
O214 O 0.28917 0.1277 0.01481 0.0
Co215 Co 0.32558 0.12147 0.01672 0.0
O216 O 0.30995 0.13181 0.03071 0.0
C217 C 0.32048 0.13273 0.9846 0.0
C218 C 0.28532 0.10192 0.97608 0.0
C219 C 0.29561 0.13397 0.02698 0.0
O220 O 0.30615 0.12814 0.98542 0.0
O221 O 0.33071 0.12953 0.99512 0.0
O222 O 0.28941 0.09439 0.01258 0.0
O223 O 0.31295 0.10424 0.00929 0.0
Co224 Co 0.36873 0.24464 0.00995 0.0
O225 O 0.37772 0.25792 0.99415 0.0
O226 O 0.3893 0.23694 0.00438 0.0
C227 C 0.35985 0.26383 0.02554 0.0
O228 O 0.36303 0.22836 0.0268 0.0
Co229 Co 0.33277 0.24551 0.01539 0.0
O230 O 0.33741 0.23071 0.03286 0.0
C231 C 0.34529 0.2299 0.98738 0.0
C232 C 0.38966 0.24847 0.99432 0.0
C233 C 0.35085 0.22441 0.03492 0.0
O234 O 0.35918 0.23127 0.99308 0.0
O235 O 0.3332 0.23615 0.99376 0.0
O236 O 0.37441 0.25936 0.02658 0.0
O237 O 0.35185 0.25777 0.01424 0.0
Co238 Co 0.86092 0.35429 0.09229 0.0
O239 O 0.86863 0.33619 0.10445 0.0
O240 O 0.88267 0.34816 0.08679 0.0
C241 C 0.83712 0.34181 0.0855 0.0
O242 O 0.85655 0.3712 0.07653 0.0
Co243 Co 0.82894 0.36896 0.10727 0.0
O244 O 0.83653 0.38374 0.08956 0.0
C245 C 0.85246 0.35341 0.12396 0.0
C246 C 0.88145 0.33639 0.09618 0.0
C247 C 0.84671 0.38269 0.07826 0.0
O248 O 0.85994 0.34445 0.11421 0.0
O249 O 0.83754 0.35277 0.12287 0.0
O250 O 0.85011 0.33752 0.07947 0.0
O251 O 0.83914 0.35289 0.09506 0.0
Co252 Co 0.94228 0.5958 0.34351 0.0
O253 O 0.95617 0.61318 0.34374 0.0
O254 O 0.94023 0.60767 0.32399 0.0
C255 C 0.96053 0.57859 0.35136 0.0
O256 O 0.92695 0.57786 0.33944 0.0
Co257 Co 0.93354 0.58089 0.37396 0.0
O258 O 0.92322 0.56419 0.36166 0.0
C259 C 0.91636 0.609 0.36477 0.0
C260 C 0.95112 0.61665 0.32988 0.0
C261 C 0.92121 0.5661 0.34702 0.0
O262 O 0.9251 0.6091 0.35258 0.0
O263 O 0.91813 0.59886 0.3757 0.0
O264 O 0.95865 0.58236 0.33678 0.0
O265 O 0.95219 0.58637 0.36158 0.0
Co266 Co 0.73972 0.73577 0.60988 0.0
O267 O 0.72309 0.74273 0.62304 0.0
O268 O 0.72114 0.73959 0.59725 0.0
C269 C 0.75789 0.75233 0.61949 0.0
O270 O 0.75582 0.72935 0.59286 0.0
Co271 Co 0.76606 0.71824 0.62706 0.0
O272 O 0.77707 0.72206 0.60682 0.0
C273 C 0.73724 0.70116 0.62066 0.0
C274 C 0.71478 0.74412 0.61043 0.0
C275 C 0.77053 0.72565 0.59384 0.0
O276 O 0.73305 0.71333 0.61282 0.0
O277 O 0.74996 0.70077 0.62864 0.0
O278 O 0.74765 0.75679 0.6092 0.0
O279 O 0.75538 0.73842 0.62536 0.0
Co280 Co 0.12501 0.99507 0.2829 0.0
O281 O 0.11109 0.97767 0.28349 0.0
O282 O 0.13274 0.97875 0.26909 0.0
C283 C 0.10606 0.0134 0.28199 0.0
O284 O 0.14208 0.01165 0.27935 0.0
Co285 Co 0.12421 0.01813 0.31106 0.0
O286 O 0.14139 0.02887 0.29944 0.0
C287 C 0.1372 0.98665 0.31529 0.0
C288 C 0.12101 0.97049 0.27445 0.0
C289 C 0.14728 0.02388 0.2866 0.0
O290 O 0.13751 0.98526 0.3003 0.0
O291 O 0.13069 0.99832 0.32219 0.0
O292 O 0.11069 0.00662 0.26908 0.0
O293 O 0.11214 0.008 0.29472 0.0
Co294 Co 0.2549 0.81429 0.5115 0.0
O295 O 0.24281 0.79655 0.50489 0.0
O296 O 0.23512 0.81424 0.52249 0.0
C297 C 0.27757 0.80137 0.51551 0.0
O298 O 0.26458 0.83434 0.52106 0.0
Co299 Co 0.28169 0.8249 0.48946 0.0
O300 O 0.28648 0.83922 0.50709 0.0
C301 C 0.24952 0.83443 0.48203 0.0
C302 C 0.23215 0.80153 0.51455 0.0
C303 C 0.2773 0.8422 0.51854 0.0
O304 O 0.24527 0.82729 0.49456 0.0
O305 O 0.26374 0.83442 0.47714 0.0
O306 O 0.2664 0.80123 0.52587 0.0
O307 O 0.27386 0.80762 0.50211 0.0
Co308 Co 0.96098 0.5259 0.25226 0.0
O309 O 0.9724 0.5069 0.24836 0.0
O310 O 0.9464 0.50887 0.24915 0.0
C311 C 0.97509 0.53366 0.27268 0.0
O312 O 0.9445 0.54317 0.25723 0.0
Co313 Co 0.9718 0.55645 0.24515 0.0
O314 O 0.95859 0.56457 0.26208 0.0
C315 C 0.9542 0.54041 0.22229 0.0
C316 C 0.95878 0.5002 0.24698 0.0
C317 C 0.94601 0.55687 0.26355 0.0
O318 O 0.96145 0.5295 0.22918 0.0
O319 O 0.956 0.55434 0.22728 0.0
O320 O 0.96365 0.52368 0.27403 0.0
O321 O 0.9789 0.53833 0.25846 0.0
Co322 Co 0.61986 0.5892 0.76784 0.0
O323 O 0.60705 0.60701 0.76296 0.0
O324 O 0.63122 0.60823 0.77256 0.0
C325 C 0.60136 0.57601 0.78104 0.0
O326 O 0.63662 0.57296 0.77474 0.0
Co327 Co 0.61241 0.55727 0.75329 0.0
O328 O 0.62927 0.54882 0.76688 0.0
C329 C 0.63127 0.57986 0.73521 0.0
C330 C 0.6187 0.61555 0.76772 0.0
C331 C 0.6386 0.55789 0.77416 0.0
O332 O 0.62866 0.58978 0.74615 0.0
O333 O 0.62565 0.56592 0.73552 0.0
O334 O 0.6095 0.58702 0.78763 0.0
O335 O 0.60348 0.57416 0.766 0.0
Co336 Co 0.48696 0.80267 0.76219 0.0
O337 O 0.47987 0.814 0.78015 0.0
O338 O 0.50042 0.82079 0.76574 0.0
C339 C 0.48598 0.77889 0.77378 0.0
O340 O 0.49742 0.79247 0.74258 0.0
Co341 Co 0.46226 0.78139 0.74691 0.0
O342 O 0.47992 0.77479 0.73348 0.0
C343 C 0.46212 0.81469 0.7389 0.0
C344 C 0.49142 0.82355 0.77784 0.0
C345 C 0.49333 0.78133 0.73299 0.0
O346 O 0.47372 0.81603 0.74828 0.0
O347 O 0.45508 0.80162 0.73665 0.0
O348 O 0.49767 0.78841 0.77575 0.0
O349 O 0.47411 0.78491 0.76622 0.0
Co350 Co 0.50925 0.24016 0.92156 0.0
O351 O 0.49465 0.23739 0.93833 0.0
O352 O 0.48854 0.24756 0.91525 0.0
C353 C 0.52586 0.25146 0.93817 0.0
O354 O 0.52168 0.246 0.90157 0.0
Co355 Co 0.5361 0.22318 0.91825 0.0
O356 O 0.54648 0.24045 0.90711 0.0
C357 C 0.50948 0.21154 0.90265 0.0
C358 C 0.48407 0.24337 0.92927 0.0
C359 C 0.53649 0.24782 0.89905 0.0
O360 O 0.50357 0.21867 0.91429 0.0
O361 O 0.52431 0.2114 0.90116 0.0
O362 O 0.51594 0.25928 0.92981 0.0
O363 O 0.52704 0.23624 0.93562 0.0
Co364 Co 0.10833 0.2731 0.25136 0.0
O365 O 0.11719 0.26327 0.26964 0.0
O366 O 0.10136 0.25163 0.25252 0.0
C367 C 0.09972 0.29487 0.26356 0.0
O368 O 0.09668 0.27966 0.2314 0.0
Co369 Co 0.12258 0.30452 0.23949 0.0
O370 O 0.10595 0.30309 0.22324 0.0
C371 C 0.13814 0.2746 0.23147 0.0
C372 C 0.1092 0.25098 0.2656 0.0
C373 C 0.09683 0.29133 0.22176 0.0
O374 O 0.127 0.26698 0.23823 0.0
O375 O 0.13932 0.28959 0.23211 0.0
O376 O 0.09172 0.28196 0.26404 0.0
O377 O 0.11353 0.29379 0.25728 0.0
Co378 Co 0.10363 0.78872 0.48616 0.0
O379 O 0.11839 0.78979 0.50287 0.0
O380 O 0.12032 0.77365 0.48249 0.0
C381 C 0.08262 0.78911 0.50193 0.0
O382 O 0.08976 0.78409 0.467 0.0
Co383 Co 0.08042 0.81643 0.48149 0.0
O384 O 0.07065 0.80234 0.4657 0.0
C385 C 0.11326 0.81986 0.47129 0.0
C386 C 0.12606 0.77881 0.49569 0.0
C387 C 0.07717 0.78978 0.46075 0.0
O388 O 0.11562 0.80518 0.47408 0.0
O389 O 0.10045 0.82689 0.47486 0.0
O390 O 0.0897 0.77588 0.4991 0.0
O391 O 0.08909 0.80149 0.49616 0.0
Co392 Co 0.51238 0.25748 0.82418 0.0
O393 O 0.51459 0.23841 0.81238 0.0
O394 O 0.5206 0.24132 0.83756 0.0
C395 C 0.52343 0.27257 0.80604 0.0
O396 O 0.51211 0.27496 0.84024 0.0
Co397 Co 0.49069 0.28329 0.81477 0.0
O398 O 0.49823 0.29601 0.83304 0.0
C399 C 0.47757 0.25356 0.82463 0.0
C400 C 0.51967 0.23224 0.82534 0.0
C401 C 0.50705 0.28892 0.84277 0.0
O402 O 0.4911 0.25101 0.83034 0.0
O403 O 0.47448 0.26569 0.81634 0.0
O404 O 0.53164 0.26491 0.81629 0.0
O405 O 0.50824 0.27054 0.80634 0.0
Co406 Co 0.13447 0.32685 0.1264 0.0
O407 O 0.15323 0.32582 0.11427 0.0
O408 O 0.15144 0.33604 0.13815 0.0
C409 C 0.11843 0.33438 0.10703 0.0
O410 O 0.11705 0.32997 0.14243 0.0
Co411 Co 0.10681 0.30448 0.11915 0.0
O412 O 0.09501 0.31815 0.13411 0.0
C413 C 0.13463 0.29202 0.13521 0.0
C414 C 0.16029 0.3314 0.12657 0.0
C415 C 0.10232 0.32696 0.14373 0.0
O416 O 0.13983 0.30612 0.13607 0.0
O417 O 0.12195 0.28849 0.12796 0.0
O418 O 0.12679 0.34487 0.11437 0.0
O419 O 0.12125 0.31995 0.11065 0.0
Co420 Co 0.10301 0.8572 0.34776 0.0
O421 O 0.11947 0.86385 0.33382 0.0
O422 O 0.10347 0.87979 0.34683 0.0
C423 C 0.09304 0.83932 0.3312 0.0
O424 O 0.08441 0.85456 0.36276 0.0
Co425 Co 0.10118 0.82272 0.35965 0.0
O426 O 0.07979 0.82885 0.36682 0.0
C427 C 0.12428 0.84486 0.37327 0.0
C428 C 0.11454 0.87801 0.33644 0.0
C429 C 0.07597 0.84325 0.36824 0.0
O430 O 0.11789 0.85653 0.3661 0.0
O431 O 0.12041 0.83052 0.37089 0.0
O432 O 0.08924 0.854 0.32983 0.0
O433 O 0.10354 0.83615 0.34163 0.0
Co434 Co 0.49132 0.85397 0.61641 0.0
O435 O 0.47501 0.86395 0.60462 0.0
O436 O 0.47325 0.84028 0.61527 0.0
C437 C 0.51009 0.85891 0.59868 0.0
O438 O 0.50635 0.83988 0.62915 0.0
Co439 Co 0.51851 0.87345 0.62949 0.0
O440 O 0.52882 0.85305 0.63355 0.0
C441 C 0.48942 0.87013 0.64809 0.0
C442 C 0.46704 0.85115 0.60647 0.0
C443 C 0.52067 0.84057 0.63414 0.0
O444 O 0.48327 0.86309 0.63636 0.0
O445 O 0.50339 0.87572 0.64778 0.0
O446 O 0.50061 0.84714 0.59731 0.0
O447 O 0.5072 0.86849 0.61026 0.0
Co448 Co 0.76524 0.48558 0.81228 0.0
O449 O 0.78276 0.4746 0.82117 0.0
O450 O 0.7627 0.48415 0.83479 0.0
C451 C 0.77933 0.50211 0.79752 0.0
O452 O 0.74525 0.4982 0.80654 0.0
Co453 Co 0.7583 0.48232 0.7774 0.0
O454 O 0.74437 0.50068 0.78028 0.0
C455 C 0.74219 0.46237 0.80065 0.0
C456 C 0.77625 0.47703 0.83469 0.0
C457 C 0.73923 0.50416 0.79386 0.0
O458 O 0.75388 0.46511 0.80958 0.0
O459 O 0.74198 0.46752 0.78652 0.0
O460 O 0.777 0.50468 0.8123 0.0
O461 O 0.77466 0.48851 0.79223 0.0
Co462 Co 0.81094 0.4787 0.10307 0.0
O463 O 0.81229 0.49224 0.12099 0.0
O464 O 0.79779 0.47064 0.11954 0.0
C465 C 0.80801 0.498 0.08544 0.0
O466 O 0.80629 0.46183 0.08692 0.0
Co467 Co 0.83484 0.47977 0.07566 0.0
O468 O 0.82004 0.46537 0.06475 0.0
C469 C 0.84228 0.46161 0.10448 0.0
C470 C 0.80241 0.48271 0.12765 0.0
C471 C 0.80973 0.45809 0.07273 0.0
O472 O 0.82905 0.46561 0.11062 0.0
O473 O 0.84706 0.46674 0.09116 0.0
O474 O 0.79595 0.49287 0.09325 0.0
O475 O 0.82144 0.49213 0.08924 0.0
Co476 Co 0.83058 0.57807 0.35266 0.0
O477 O 0.8176 0.57584 0.37102 0.0
O478 O 0.83981 0.58936 0.36989 0.0
C479 C 0.83038 0.55317 0.34516 0.0
O480 O 0.84799 0.58234 0.33619 0.0
Co481 Co 0.8183 0.57723 0.32138 0.0
O482 O 0.83934 0.57332 0.31323 0.0
C483 C 0.82188 0.60647 0.33626 0.0
C484 C 0.82756 0.58505 0.37795 0.0
C485 C 0.85041 0.5783 0.32176 0.0
O486 O 0.81814 0.59716 0.34723 0.0
O487 O 0.82269 0.60083 0.32248 0.0
O488 O 0.84001 0.55812 0.35592 0.0
O489 O 0.81965 0.56302 0.34012 0.0
Co490 Co 0.76455 0.61203 0.57864 0.0
O491 O 0.76544 0.60133 0.59853 0.0
O492 O 0.75616 0.62539 0.59495 0.0
C493 C 0.78862 0.60573 0.57156 0.0
O494 O 0.76287 0.62815 0.55999 0.0
Co495 Co 0.75899 0.59957 0.55137 0.0
O496 O 0.77097 0.61491 0.53924 0.0
C497 C 0.73299 0.60742 0.56806 0.0
C498 C 0.75852 0.61362 0.60435 0.0
C499 C 0.76877 0.62791 0.54592 0.0
O500 O 0.74349 0.60199 0.57678 0.0
O501 O 0.73671 0.60839 0.55374 0.0
O502 O 0.78557 0.61802 0.58007 0.0
O503 O 0.77693 0.59673 0.56692 0.0
Co504 Co 0.73574 0.60986 0.73911 0.0
O505 O 0.743 0.61737 0.71932 0.0
O506 O 0.71946 0.60703 0.72339 0.0
C507 C 0.75653 0.59571 0.74533 0.0
O508 O 0.72517 0.59956 0.75875 0.0
Co509 Co 0.74933 0.6229 0.76802 0.0
O510 O 0.74257 0.60333 0.77813 0.0
C511 C 0.72073 0.63532 0.75592 0.0
C512 C 0.72957 0.61316 0.71365 0.0
C513 C 0.73071 0.5963 0.7726 0.0
O514 O 0.72806 0.63162 0.74355 0.0
O515 O 0.72829 0.63432 0.76879 0.0
O516 O 0.74583 0.59048 0.73587 0.0
O517 O 0.75581 0.61067 0.7491 0.0
Co518 Co 0.81509 0.47007 0.96285 0.0
O519 O 0.80982 0.48111 0.94428 0.0
O520 O 0.83044 0.46539 0.94653 0.0
C521 C 0.81081 0.49026 0.97915 0.0
O522 O 0.82366 0.45721 0.98141 0.0
Co523 Co 0.78761 0.4653 0.98641 0.0
O524 O 0.80514 0.45883 0.00038 0.0
C525 C 0.7888 0.44629 0.95786 0.0
C526 C 0.82171 0.47437 0.93768 0.0
C527 C 0.81878 0.45486 0.9956 0.0
O528 O 0.80263 0.45163 0.95539 0.0
O529 O 0.77999 0.45129 0.96898 0.0
O530 O 0.82417 0.48907 0.97185 0.0
O531 O 0.80019 0.48033 0.97493 0.0
Co532 Co 0.83562 0.48408 0.25583 0.0
O533 O 0.82259 0.47353 0.24096 0.0
O534 O 0.82593 0.49938 0.24223 0.0
C535 C 0.82767 0.47198 0.27787 0.0
O536 O 0.84798 0.4987 0.27033 0.0
Co537 Co 0.86166 0.46374 0.27081 0.0
O538 O 0.8676 0.48402 0.28048 0.0
C539 C 0.86766 0.47724 0.24015 0.0
C540 C 0.81919 0.48739 0.23561 0.0
C541 C 0.8604 0.49703 0.27884 0.0
O542 O 0.85409 0.48365 0.24115 0.0
O543 O 0.87284 0.46753 0.25034 0.0
O544 O 0.81914 0.48263 0.27114 0.0
O545 O 0.83905 0.46664 0.26916 0.0
Co546 Co 0.84014 0.6464 0.50028 0.0
O547 O 0.84312 0.63599 0.48086 0.0
O548 O 0.82003 0.64445 0.48947 0.0
C549 C 0.85404 0.62917 0.51431 0.0
O550 O 0.83368 0.65787 0.52051 0.0
Co551 Co 0.86927 0.66121 0.51481 0.0
O552 O 0.8558 0.66392 0.53353 0.0
C553 C 0.85278 0.67848 0.49004 0.0
C554 C 0.82824 0.63762 0.47848 0.0
C555 C 0.8409 0.66349 0.53262 0.0
O556 O 0.84318 0.66701 0.48967 0.0
O557 O 0.86492 0.67847 0.4989 0.0
O558 O 0.83941 0.62683 0.51096 0.0
O559 O 0.86062 0.64127 0.50766 0.0
Co560 Co 0.81844 0.77355 0.5128 0.0
O561 O 0.82935 0.79307 0.5106 0.0
O562 O 0.83737 0.77025 0.50074 0.0
C563 C 0.8136 0.77527 0.53818 0.0
O564 O 0.81028 0.75055 0.51377 0.0
Co565 Co 0.78517 0.77305 0.51602 0.0
O566 O 0.7873 0.75258 0.52604 0.0
C567 C 0.79827 0.76871 0.48625 0.0
C568 C 0.83949 0.78529 0.50238 0.0
C569 C 0.79862 0.74424 0.52123 0.0
O570 O 0.80686 0.77871 0.4931 0.0
O571 O 0.78612 0.76429 0.49368 0.0
O572 O 0.827 0.77019 0.53294 0.0
O573 O 0.8037 0.7813 0.52797 0.0
Co574 Co 0.34262 0.82568 0.57934 0.0
O575 O 0.36304 0.81704 0.5819 0.0
O576 O 0.35508 0.83017 0.56087 0.0
C577 C 0.3298 0.8043 0.58861 0.0
O578 O 0.32168 0.83616 0.57275 0.0
Co579 Co 0.32438 0.83209 0.60991 0.0
O580 O 0.3081 0.83982 0.59512 0.0
C581 C 0.35035 0.85268 0.60181 0.0
C582 C 0.36646 0.82328 0.56845 0.0
C583 C 0.3093 0.84086 0.58021 0.0
O584 O 0.3503 0.84599 0.58835 0.0
O585 O 0.34163 0.84801 0.61313 0.0
O586 O 0.33451 0.80505 0.57408 0.0
O587 O 0.33436 0.8159 0.59729 0.0
Co588 Co 0.49585 0.0954 0.83228 0.0
O589 O 0.51048 0.10994 0.84082 0.0
O590 O 0.49343 0.11551 0.82194 0.0
C591 C 0.51317 0.07588 0.82938 0.0
O592 O 0.47915 0.08249 0.82055 0.0
Co593 Co 0.48899 0.06532 0.8517 0.0
O594 O 0.47852 0.05859 0.83198 0.0
C595 C 0.47433 0.09513 0.86101 0.0
C596 C 0.50482 0.1201 0.83106 0.0
C597 C 0.4744 0.06809 0.82116 0.0
O598 O 0.48002 0.1015 0.84857 0.0
O599 O 0.47753 0.08102 0.86515 0.0
O600 O 0.51208 0.08676 0.81875 0.0
O601 O 0.50499 0.07813 0.84196 0.0
Co602 Co 0.26638 0.24579 0.11862 0.0
O603 O 0.26103 0.26256 0.13273 0.0
O604 O 0.24392 0.2472 0.1205 0.0
C605 C 0.2837 0.25992 0.10462 0.0
O606 O 0.26759 0.22753 0.10303 0.0
Co607 Co 0.30049 0.23298 0.11699 0.0
O608 O 0.29284 0.22143 0.0982 0.0
C609 C 0.27976 0.2246 0.14363 0.0
C610 C 0.24654 0.25921 0.12956 0.0
C611 C 0.27822 0.21988 0.09543 0.0
O612 O 0.26783 0.23055 0.13655 0.0
O613 O 0.29388 0.22592 0.13858 0.0
O614 O 0.26881 0.26087 0.1016 0.0
O615 O 0.28749 0.25147 0.11661 0.0
Co616 Co 0.65862 0.50065 0.85419 0.0
O617 O 0.64448 0.48323 0.85393 0.0
O618 O 0.6672 0.4839 0.84133 0.0
C619 C 0.63933 0.51737 0.84897 0.0
O620 O 0.67588 0.51746 0.85013 0.0
Co621 Co 0.66003 0.52326 0.87755 0.0
O622 O 0.66846 0.53901 0.86266 0.0
C623 C 0.67977 0.49636 0.88103 0.0
C624 C 0.65443 0.47627 0.84479 0.0
C625 C 0.67665 0.5325 0.85213 0.0
O626 O 0.66828 0.49089 0.87341 0.0
O627 O 0.6787 0.5106 0.88557 0.0
O628 O 0.64744 0.51053 0.83809 0.0
O629 O 0.64319 0.51466 0.86365 0.0
Co630 Co 0.74421 0.3488 0.00536 0.0
O631 O 0.72588 0.33954 0.99613 0.0
O632 O 0.72825 0.36444 0.00365 0.0
C633 C 0.74974 0.33024 0.02311 0.0
O634 O 0.76058 0.36273 0.01575 0.0
Co635 Co 0.7769 0.3337 0.00181 0.0
O636 O 0.78329 0.34951 0.01781 0.0
C637 C 0.76348 0.35054 0.97508 0.0
C638 C 0.71966 0.35343 0.9976 0.0
C639 C 0.7747 0.36138 0.02083 0.0
O640 O 0.75213 0.35457 0.9841 0.0
O641 O 0.77445 0.34124 0.9795 0.0
O642 O 0.73865 0.34041 0.02568 0.0
O643 O 0.75544 0.33019 0.00897 0.0
Co644 Co 0.47444 0.95469 0.80909 0.0
O645 O 0.48872 0.93837 0.80367 0.0
O646 O 0.46964 0.93591 0.82117 0.0
C647 C 0.4931 0.97293 0.81097 0.0
O648 O 0.4575 0.96991 0.81738 0.0
Co649 Co 0.47129 0.98288 0.78635 0.0
O650 O 0.45958 0.99269 0.80406 0.0
C651 C 0.45623 0.95265 0.77859 0.0
C652 C 0.48122 0.92951 0.81344 0.0
C653 C 0.45375 0.98447 0.81512 0.0
O654 O 0.45987 0.9475 0.79224 0.0
O655 O 0.46078 0.96604 0.77342 0.0
O656 O 0.48996 0.96399 0.82292 0.0
O657 O 0.48564 0.9699 0.79816 0.0
Co658 Co 0.1145 0.13096 0.30685 0.0
O659 O 0.10201 0.14929 0.30432 0.0
O660 O 0.11938 0.14573 0.32345 0.0
C661 C 0.09474 0.11419 0.30197 0.0
O662 O 0.12903 0.11296 0.31339 0.0
Co663 Co 0.11896 0.10845 0.27856 0.0
O664 O 0.12759 0.09415 0.29491 0.0
C665 C 0.13514 0.13894 0.27887 0.0
C666 C 0.10913 0.15475 0.31657 0.0
C667 C 0.13208 0.09902 0.30834 0.0
O668 O 0.13142 0.14061 0.29342 0.0
O669 O 0.13004 0.12762 0.27041 0.0
O670 O 0.09659 0.1197 0.31611 0.0
O671 O 0.10411 0.11972 0.29149 0.0
H672 H 0.02398 0.34301 0.27827 0.0
H673 H 0.0483 0.38295 0.25823 0.0
H674 H 0.0736 0.36956 0.2622 0.0
H675 H 0.05699 0.32982 0.30631 0.0
H676 H 0.05244 0.30956 0.30225 0.0
H677 H 0.037 0.32406 0.30248 0.0
H678 H 0.02889 0.31572 0.27427 0.0
H679 H 0.04424 0.30133 0.27409 0.0
H680 H 0.04344 0.316 0.25887 0.0
H681 H 0.09485 0.34942 0.26136 0.0
H682 H 0.11015 0.32494 0.25775 0.0
H683 H 0.07213 0.29837 0.27869 0.0
C684 C 0.03469 0.34924 0.27547 0.0
C685 C 0.0342 0.36394 0.26793 0.0
C686 C 0.04841 0.37169 0.26413 0.0
C687 C 0.06287 0.36416 0.26634 0.0
C688 C 0.0629 0.34907 0.27266 0.0
C689 C 0.04918 0.34184 0.27753 0.0
C690 C 0.05193 0.32479 0.28157 0.0
C691 C 0.04945 0.32189 0.2992 0.0
C692 C 0.04152 0.31385 0.2716 0.0
C693 C 0.06904 0.32327 0.27716 0.0
C694 C 0.07531 0.33744 0.27234 0.0
C695 C 0.09026 0.33836 0.26563 0.0
C696 C 0.09885 0.32442 0.26356 0.0
C697 C 0.09232 0.30984 0.26802 0.0
C698 C 0.07749 0.30941 0.27535 0.0
H699 H 0.05884 0.76995 0.4941 0.0
H700 H 0.07052 0.81127 0.52112 0.0
H701 H 0.04251 0.81825 0.52289 0.0
H702 H 0.03646 0.78804 0.47006 0.0
H703 H 0.0217 0.77325 0.4668 0.0
H704 H 0.04094 0.76755 0.47304 0.0
H705 H 0.02944 0.7532 0.49731 0.0
H706 H 0.00995 0.75844 0.49091 0.0
H707 H 0.01638 0.76351 0.51041 0.0
H708 H 0.01592 0.82522 0.51464 0.0
H709 H 0.99226 0.83044 0.49871 0.0
H710 H 0.99771 0.7851 0.4762 0.0
C711 C 0.05528 0.77982 0.5013 0.0
C712 C 0.06655 0.78994 0.50775 0.0
C713 C 0.06184 0.80329 0.51637 0.0
C714 C 0.04597 0.80731 0.51743 0.0
C715 C 0.0351 0.79788 0.5097 0.0
C716 C 0.03951 0.7842 0.50201 0.0
C717 C 0.02644 0.7781 0.49171 0.0
C718 C 0.03171 0.77667 0.4744 0.0
C719 C 0.02018 0.76238 0.49797 0.0
C720 C 0.01454 0.79106 0.49386 0.0
C721 C 0.01953 0.80216 0.50458 0.0
C722 C 0.01158 0.81635 0.50666 0.0
C723 C 0.99828 0.8193 0.49746 0.0
C724 C 0.99322 0.80814 0.48631 0.0
C725 C 0.00122 0.79374 0.48482 0.0
H726 H 0.56314 0.77595 0.79374 0.0
H727 H 0.55899 0.79318 0.74711 0.0
H728 H 0.53349 0.77903 0.74369 0.0
H729 H 0.54009 0.74096 0.79499 0.0
H730 H 0.52823 0.74615 0.81174 0.0
H731 H 0.5478 0.75399 0.80975 0.0
H732 H 0.53739 0.78252 0.8115 0.0
H733 H 0.51803 0.77472 0.81454 0.0
H734 H 0.52153 0.78856 0.79889 0.0
H735 H 0.51311 0.75492 0.74497 0.0
H736 H 0.4848 0.75314 0.75259 0.0
H737 H 0.49688 0.76234 0.80028 0.0
C738 C 0.5568 0.77675 0.78277 0.0
C739 C 0.56461 0.78107 0.76868 0.0
C740 C 0.55464 0.78568 0.75631 0.0
C741 C 0.54033 0.7777 0.7543 0.0
C742 C 0.53498 0.76854 0.76681 0.0
C743 C 0.54168 0.77016 0.78148 0.0
C744 C 0.5304 0.7648 0.79423 0.0
C745 C 0.53703 0.75063 0.80321 0.0
C746 C 0.52659 0.77846 0.80544 0.0
C747 C 0.51633 0.76003 0.78426 0.0
C748 C 0.5202 0.76054 0.76851 0.0
C749 C 0.50945 0.75629 0.75699 0.0
C750 C 0.4936 0.7552 0.76146 0.0
C751 C 0.48934 0.76195 0.77593 0.0
C752 C 0.50026 0.75956 0.78835 0.0
H753 H 0.51171 0.27662 0.95148 0.0
H754 H 0.54907 0.24293 0.95929 0.0
H755 H 0.55708 0.25785 0.98292 0.0
H756 H 0.52756 0.30865 0.95504 0.0
H757 H 0.51386 0.3194 0.96689 0.0
H758 H 0.50722 0.30301 0.95564 0.0
H759 H 0.496 0.29094 0.98106 0.0
H760 H 0.50327 0.30741 0.99221 0.0
H761 H 0.50855 0.28769 0.99774 0.0
H762 H 0.56488 0.279 0.00071 0.0
H763 H 0.57682 0.30491 0.00327 0.0
H764 H 0.53651 0.32622 0.98105 0.0
C765 C 0.52133 0.27206 0.95839 0.0
C766 C 0.52995 0.25869 0.95344 0.0
C767 C 0.54233 0.25311 0.96287 0.0
C768 C 0.54674 0.2614 0.97645 0.0
C769 C 0.53837 0.27497 0.98063 0.0
C770 C 0.52575 0.28016 0.97187 0.0
C771 C 0.52071 0.29656 0.97672 0.0
C772 C 0.51719 0.30749 0.96271 0.0
C773 C 0.5063 0.29559 0.98758 0.0
C774 C 0.53503 0.30132 0.98608 0.0
C775 C 0.54373 0.28808 0.99012 0.0
C776 C 0.55815 0.28933 0.99761 0.0
C777 C 0.56487 0.30419 0.99897 0.0
C778 C 0.55775 0.31734 0.9917 0.0
C779 C 0.54206 0.31627 0.98667 0.0
H780 H 0.05193 0.75749 0.33066 0.0
H781 H 0.01743 0.77864 0.29996 0.0
H782 H 0.03559 0.80052 0.29442 0.0
H783 H 0.06035 0.79061 0.34913 0.0
H784 H 0.08098 0.7872 0.35232 0.0
H785 H 0.06792 0.77086 0.34998 0.0
H786 H 0.0847 0.76033 0.32684 0.0
H787 H 0.09804 0.77658 0.32924 0.0
H788 H 0.08905 0.77299 0.31043 0.0
H789 H 0.05409 0.82241 0.29704 0.0
H790 H 0.07166 0.84282 0.30763 0.0
H791 H 0.09408 0.80796 0.33723 0.0
C792 C 0.04865 0.7663 0.32209 0.0
C793 C 0.03359 0.76634 0.31538 0.0
C794 C 0.02913 0.77841 0.30493 0.0
C795 C 0.03937 0.79081 0.30169 0.0
C796 C 0.05392 0.79095 0.30914 0.0
C797 C 0.05861 0.77895 0.31908 0.0
C798 C 0.0733 0.78333 0.32801 0.0
C799 C 0.07045 0.78299 0.3459 0.0
C800 C 0.08709 0.77267 0.32334 0.0
C801 C 0.07567 0.7999 0.3221 0.0
C802 C 0.06458 0.80396 0.31099 0.0
C803 C 0.06313 0.81927 0.30538 0.0
C804 C 0.07307 0.83079 0.31153 0.0
C805 C 0.08421 0.8269 0.32319 0.0
C806 C 0.08583 0.81119 0.32814 0.0
H807 H 0.54503 0.79114 0.57902 0.0
H808 H 0.58516 0.80874 0.60465 0.0
H809 H 0.58005 0.83515 0.59516 0.0
H810 H 0.54898 0.82678 0.5458 0.0
H811 H 0.52792 0.82636 0.54394 0.0
H812 H 0.53873 0.80828 0.54628 0.0
H813 H 0.52154 0.80102 0.57017 0.0
H814 H 0.5107 0.81873 0.56778 0.0
H815 H 0.51999 0.81462 0.58637 0.0
H816 H 0.56337 0.85746 0.59695 0.0
H817 H 0.53939 0.87108 0.60531 0.0
H818 H 0.51287 0.84525 0.57081 0.0
C819 C 0.55315 0.80049 0.58177 0.0
C820 C 0.56498 0.79806 0.593 0.0
C821 C 0.57556 0.81041 0.59649 0.0
C822 C 0.57296 0.82553 0.5909 0.0
C823 C 0.56006 0.82813 0.58132 0.0
C824 C 0.55085 0.8158 0.57589 0.0
C825 C 0.53636 0.8221 0.5678 0.0
C826 C 0.53812 0.82081 0.54989 0.0
C827 C 0.52129 0.81365 0.57342 0.0
C828 C 0.5371 0.8392 0.57292 0.0
C829 C 0.55125 0.84265 0.58019 0.0
C830 C 0.55257 0.85535 0.59063 0.0
C831 C 0.53888 0.86323 0.59533 0.0
C832 C 0.52436 0.85875 0.58895 0.0
C833 C 0.52402 0.84855 0.57592 0.0
H834 H 0.59981 0.30382 0.793 0.0
H835 H 0.5762 0.34557 0.77645 0.0
H836 H 0.55509 0.32964 0.76558 0.0
H837 H 0.57764 0.27692 0.75722 0.0
H838 H 0.57838 0.26048 0.77051 0.0
H839 H 0.595 0.27349 0.76877 0.0
H840 H 0.59447 0.27798 0.79867 0.0
H841 H 0.57812 0.26508 0.8004 0.0
H842 H 0.57667 0.28479 0.80791 0.0
H843 H 0.53267 0.31352 0.77145 0.0
H844 H 0.51454 0.29756 0.78747 0.0
H845 H 0.55169 0.2639 0.7955 0.0
C846 C 0.59081 0.30934 0.78595 0.0
C847 C 0.58926 0.32576 0.786 0.0
C848 C 0.57736 0.3329 0.77688 0.0
C849 C 0.56532 0.32391 0.77047 0.0
C850 C 0.56578 0.30773 0.7726 0.0
C851 C 0.57887 0.30031 0.779 0.0
C852 C 0.5753 0.28319 0.78216 0.0
C853 C 0.58196 0.27292 0.76887 0.0
C854 C 0.58145 0.27749 0.79825 0.0
C855 C 0.55754 0.28368 0.78118 0.0
C856 C 0.55227 0.29754 0.77452 0.0
C857 C 0.53654 0.30228 0.77592 0.0
C858 C 0.52627 0.29324 0.78514 0.0
C859 C 0.53188 0.27971 0.79278 0.0
C860 C 0.54724 0.27432 0.78973 0.0
H861 H 0.0388 0.30281 0.084 0.0
H862 H 0.02017 0.34723 0.10039 0.0
H863 H 0.04597 0.35956 0.09644 0.0
H864 H 0.07096 0.30342 0.10432 0.0
H865 H 0.0839 0.29462 0.09008 0.0
H866 H 0.06328 0.29091 0.08907 0.0
H867 H 0.06312 0.3011 0.06029 0.0
H868 H 0.08388 0.30505 0.06149 0.0
H869 H 0.07047 0.32047 0.05596 0.0
H870 H 0.07417 0.36477 0.09869 0.0
H871 H 0.10181 0.36202 0.10692 0.0
H872 H 0.10271 0.31487 0.08793 0.0
C873 C 0.04002 0.3153 0.08603 0.0
C874 C 0.0276 0.32407 0.09251 0.0
C875 C 0.02959 0.3403 0.09539 0.0
C876 C 0.04419 0.34744 0.09305 0.0
C877 C 0.05657 0.33826 0.08758 0.0
C878 C 0.05456 0.32255 0.08382 0.0
C879 C 0.07013 0.31451 0.08102 0.0
C880 C 0.07217 0.30004 0.09177 0.0
C881 C 0.07201 0.31003 0.06365 0.0
C882 C 0.0812 0.32766 0.08542 0.0
C883 C 0.07322 0.34146 0.08862 0.0
C884 C 0.08066 0.35426 0.09566 0.0
C885 C 0.09636 0.35263 0.10031 0.0
C886 C 0.10427 0.33824 0.09801 0.0
C887 C 0.0969 0.32606 0.08962 0.0
H888 H 0.27407 0.07732 0.28741 0.0
H889 H 0.27897 0.12023 0.31423 0.0
H890 H 0.28027 0.10479 0.33875 0.0
H891 H 0.24736 0.06128 0.31168 0.0
H892 H 0.25363 0.04118 0.30957 0.0
H893 H 0.25742 0.05502 0.29413 0.0
H894 H 0.28721 0.04847 0.29564 0.0
H895 H 0.28337 0.03461 0.31119 0.0
H896 H 0.29734 0.05023 0.31413 0.0
H897 H 0.27575 0.08574 0.3601 0.0
H898 H 0.26524 0.06454 0.37681 0.0
H899 H 0.26252 0.03398 0.33617 0.0
C900 C 0.2762 0.08334 0.2984 0.0
C901 C 0.27677 0.09984 0.29906 0.0
C902 C 0.27875 0.10752 0.31361 0.0
C903 C 0.27957 0.09885 0.32754 0.0
C904 C 0.27828 0.08257 0.32663 0.0
C905 C 0.27667 0.07487 0.31241 0.0
C906 C 0.27271 0.05772 0.31474 0.0
C907 C 0.25685 0.05357 0.30707 0.0
C908 C 0.28595 0.04713 0.30856 0.0
C909 C 0.27169 0.05714 0.33244 0.0
C910 C 0.27525 0.0715 0.3391 0.0
C911 C 0.27332 0.07432 0.35509 0.0
C912 C 0.26727 0.06226 0.36447 0.0
C913 C 0.26313 0.04766 0.35775 0.0
C914 C 0.26581 0.04496 0.34165 0.0
H915 H 0.27701 0.98883 0.59191 0.0
H916 H 0.29879 0.99588 0.54655 0.0
H917 H 0.27297 0.00374 0.53573 0.0
H918 H 0.25245 0.96532 0.57964 0.0
H919 H 0.23595 0.97013 0.59209 0.0
H920 H 0.25528 0.9747 0.59842 0.0
H921 H 0.24726 0.00379 0.60182 0.0
H922 H 0.22767 0.99917 0.59527 0.0
H923 H 0.23874 0.01442 0.58565 0.0
H924 H 0.24457 0.00426 0.5284 0.0
H925 H 0.22267 0.98683 0.52207 0.0
H926 H 0.22097 0.9708 0.56992 0.0
C927 C 0.27651 0.99259 0.57979 0.0
C928 C 0.28988 0.99167 0.57003 0.0
C929 C 0.28874 0.99668 0.5543 0.0
C930 C 0.27407 0.00128 0.54814 0.0
C931 C 0.26071 0.00053 0.55781 0.0
C932 C 0.26192 0.99598 0.57336 0.0
C933 C 0.24632 0.99044 0.5799 0.0
C934 C 0.24761 0.97418 0.58792 0.0
C935 C 0.2396 0.00269 0.59133 0.0
C936 C 0.23677 0.99002 0.56496 0.0
C937 C 0.24454 0.99789 0.55295 0.0
C938 C 0.2386 0.99802 0.53772 0.0
C939 C 0.22597 0.9881 0.53427 0.0
C940 C 0.22123 0.97668 0.54538 0.0
C941 C 0.22484 0.97924 0.56126 0.0
H942 H 0.32781 0.02139 0.78059 0.0
H943 H 0.33492 0.05938 0.74757 0.0
H944 H 0.32423 0.07808 0.76673 0.0
H945 H 0.29296 0.04187 0.80457 0.0
H946 H 0.30106 0.03366 0.82231 0.0
H947 H 0.30171 0.02259 0.80428 0.0
H948 H 0.33174 0.01949 0.80744 0.0
H949 H 0.33133 0.03065 0.82515 0.0
H950 H 0.34379 0.03682 0.80916 0.0
H951 H 0.32399 0.09274 0.79062 0.0
H952 H 0.33308 0.10165 0.81652 0.0
H953 H 0.32528 0.05521 0.83549 0.0
C954 C 0.32636 0.03355 0.7772 0.0
C955 C 0.33234 0.03906 0.76281 0.0
C956 C 0.33048 0.05499 0.75864 0.0
C957 C 0.32424 0.06566 0.76942 0.0
C958 C 0.31983 0.06016 0.78422 0.0
C959 C 0.32041 0.04434 0.78801 0.0
C960 C 0.31871 0.04178 0.80551 0.0
C961 C 0.30265 0.03455 0.80939 0.0
C962 C 0.3322 0.03163 0.81218 0.0
C963 C 0.31956 0.0586 0.81112 0.0
C964 C 0.31936 0.06907 0.79863 0.0
C965 C 0.32347 0.08481 0.80053 0.0
C966 C 0.32876 0.08975 0.81522 0.0
C967 C 0.32972 0.07902 0.82778 0.0
C968 C 0.32418 0.0636 0.826 0.0
H969 H 0.30857 0.08586 0.10596 0.0
H970 H 0.35897 0.08524 0.09922 0.0
H971 H 0.35512 0.07625 0.07195 0.0
H972 H 0.29754 0.05404 0.07512 0.0
H973 H 0.28068 0.06556 0.06957 0.0
H974 H 0.28719 0.06535 0.08971 0.0
H975 H 0.28883 0.09571 0.08927 0.0
H976 H 0.28266 0.09608 0.06922 0.0
H977 H 0.30093 0.10521 0.07472 0.0
H978 H 0.34634 0.07579 0.04479 0.0
H979 H 0.33378 0.08436 0.02027 0.0
H980 H 0.28875 0.08647 0.04374 0.0
C981 C 0.31882 0.08315 0.09894 0.0
C982 C 0.33406 0.08627 0.10458 0.0
C983 C 0.3472 0.08281 0.0951 0.0
C984 C 0.34508 0.07763 0.07963 0.0
C985 C 0.32978 0.07591 0.07396 0.0
C986 C 0.31683 0.07839 0.08344 0.0
C987 C 0.30183 0.07941 0.07396 0.0
C988 C 0.29119 0.06524 0.07729 0.0
C989 C 0.29308 0.09503 0.07697 0.0
C990 C 0.3085 0.07866 0.05755 0.0
C991 C 0.32456 0.07596 0.05782 0.0
C992 C 0.33374 0.07736 0.04437 0.0
C993 C 0.32653 0.08235 0.03053 0.0
C994 C 0.31032 0.08592 0.03026 0.0
C995 C 0.30106 0.08332 0.04367 0.0
H996 H 0.31476 0.25252 0.10292 0.0
H997 H 0.27911 0.28263 0.08258 0.0
H998 H 0.29834 0.29227 0.06318 0.0
H999 H 0.35002 0.27833 0.09426 0.0
H1000 H 0.36183 0.26143 0.08941 0.0
H1001 H 0.34664 0.25989 0.1041 0.0
H1002 H 0.33406 0.23672 0.08881 0.0
H1003 H 0.34926 0.23811 0.0743 0.0
H1004 H 0.32898 0.23938 0.06844 0.0
H1005 H 0.31878 0.29415 0.04309 0.0
H1006 H 0.33849 0.28711 0.02305 0.0
H1007 H 0.36154 0.25636 0.05626 0.0
C1008 C 0.31118 0.26153 0.09471 0.0
C1009 C 0.29554 0.26694 0.09425 0.0
C1010 C 0.29109 0.2784 0.0831 0.0
C1011 C 0.30197 0.28404 0.07216 0.0
C1012 C 0.31722 0.27812 0.07258 0.0
C1013 C 0.32184 0.26711 0.08359 0.0
C1014 C 0.33799 0.26066 0.07994 0.0
C1015 C 0.34982 0.26536 0.09269 0.0
C1016 C 0.33753 0.24267 0.07773 0.0
C1017 C 0.34135 0.26908 0.06466 0.0
C1018 C 0.32938 0.27941 0.06084 0.0
C1019 C 0.32851 0.28659 0.04616 0.0
C1020 C 0.33974 0.28256 0.03487 0.0
C1021 C 0.35166 0.27162 0.03842 0.0
C1022 C 0.35292 0.26534 0.05364 0.0
H1023 H 0.7779 0.31478 0.02261 0.0
H1024 H 0.74163 0.332 0.05393 0.0
H1025 H 0.75997 0.33064 0.07603 0.0
H1026 H 0.80004 0.29028 0.05554 0.0
H1027 H 0.81855 0.29518 0.04653 0.0
H1028 H 0.80148 0.29182 0.03448 0.0
H1029 H 0.80516 0.31931 0.02154 0.0
H1030 H 0.82226 0.32212 0.03339 0.0
H1031 H 0.80668 0.33634 0.03405 0.0
H1032 H 0.78314 0.33692 0.09147 0.0
H1033 H 0.80915 0.34586 0.10054 0.0
H1034 H 0.83088 0.32346 0.06035 0.0
C1035 C 0.77364 0.31745 0.03428 0.0
C1036 C 0.75851 0.32379 0.03654 0.0
C1037 C 0.75326 0.32724 0.05191 0.0
C1038 C 0.76359 0.32646 0.06459 0.0
C1039 C 0.77898 0.32176 0.06175 0.0
C1040 C 0.78389 0.31671 0.04708 0.0
C1041 C 0.80153 0.31444 0.04666 0.0
C1042 C 0.80564 0.29689 0.04576 0.0
C1043 C 0.80931 0.32361 0.03311 0.0
C1044 C 0.80584 0.32113 0.06252 0.0
C1045 C 0.79265 0.32479 0.07126 0.0
C1046 C 0.79359 0.3335 0.0851 0.0
C1047 C 0.80835 0.3387 0.09007 0.0
C1048 C 0.82188 0.33518 0.08117 0.0
C1049 C 0.82066 0.32595 0.06751 0.0
H1050 H 0.97263 0.51961 0.30077 0.0
H1051 H 0.9964 0.55788 0.2773 0.0
H1052 H 0.00536 0.56781 0.30311 0.0
H1053 H 0.95427 0.54096 0.3243 0.0
H1054 H 0.95387 0.52818 0.34123 0.0
H1055 H 0.95633 0.51999 0.32218 0.0
H1056 H 0.98227 0.50682 0.33103 0.0
H1057 H 0.97995 0.51519 0.35035 0.0
H1058 H 0.99775 0.51854 0.33939 0.0
H1059 H 0.0056 0.57735 0.33064 0.0
H1060 H 0.99034 0.58961 0.35169 0.0
H1061 H 0.96309 0.54752 0.35714 0.0
C1062 C 0.98025 0.52977 0.301 0.0
C1063 C 0.98381 0.53801 0.28707 0.0
C1064 C 0.99368 0.55128 0.28782 0.0
C1065 C 0.99891 0.55689 0.30248 0.0
C1066 C 0.99418 0.54908 0.3162 0.0
C1067 C 0.98494 0.53574 0.31547 0.0
C1068 C 0.97741 0.53204 0.33115 0.0
C1069 C 0.95942 0.53022 0.32962 0.0
C1070 C 0.98479 0.51727 0.33841 0.0
C1071 C 0.98199 0.54655 0.34033 0.0
C1072 C 0.9929 0.55543 0.33204 0.0
C1073 C 0.99719 0.57039 0.33714 0.0
C1074 C 0.98861 0.5772 0.34945 0.0
C1075 C 0.97485 0.56973 0.35499 0.0
C1076 C 0.97333 0.55348 0.35256 0.0
H1077 H 0.79191 0.79216 0.55525 0.0
H1078 H 0.82945 0.7581 0.55971 0.0
H1079 H 0.82451 0.75609 0.58797 0.0
H1080 H 0.79714 0.80946 0.59767 0.0
H1081 H 0.77618 0.81188 0.59932 0.0
H1082 H 0.78573 0.81447 0.58058 0.0
H1083 H 0.76739 0.79367 0.56801 0.0
H1084 H 0.75761 0.79156 0.58643 0.0
H1085 H 0.76591 0.77452 0.57694 0.0
H1086 H 0.81078 0.75131 0.61268 0.0
H1087 H 0.78781 0.74213 0.62769 0.0
H1088 H 0.76152 0.78246 0.61173 0.0
C1089 C 0.79933 0.78467 0.56234 0.0
C1090 C 0.81101 0.77533 0.55531 0.0
C1091 C 0.82046 0.7655 0.56485 0.0
C1092 C 0.81789 0.76441 0.58101 0.0
C1093 C 0.806 0.77343 0.58765 0.0
C1094 C 0.79701 0.78359 0.57863 0.0
C1095 C 0.78337 0.78998 0.58799 0.0
C1096 C 0.78576 0.80749 0.5916 0.0
C1097 C 0.76767 0.78723 0.57934 0.0
C1098 C 0.78484 0.78016 0.60281 0.0
C1099 C 0.7984 0.77119 0.60275 0.0
C1100 C 0.80028 0.75846 0.61303 0.0
C1101 C 0.7872 0.75331 0.62167 0.0
C1102 C 0.77276 0.76119 0.62006 0.0
C1103 C 0.77246 0.77606 0.6127 0.0
H1104 H 0.08634 0.08991 0.32103 0.0
H1105 H 0.08185 0.10798 0.27382 0.0
H1106 H 0.0745 0.08188 0.26434 0.0
H1107 H 0.10561 0.06101 0.31585 0.0
H1108 H 0.09672 0.04602 0.32779 0.0
H1109 H 0.09345 0.06622 0.33237 0.0
H1110 H 0.0635 0.06209 0.33044 0.0
H1111 H 0.06675 0.04164 0.32594 0.0
H1112 H 0.05512 0.05364 0.31297 0.0
H1113 H 0.0797 0.05485 0.25831 0.0
H1114 H 0.09379 0.02961 0.25707 0.0
H1115 H 0.09412 0.02745 0.30786 0.0
C1116 C 0.08268 0.08844 0.30896 0.0
C1117 C 0.08473 0.10073 0.29812 0.0
C1118 C 0.08038 0.09858 0.28228 0.0
C1119 C 0.07605 0.08378 0.2768 0.0
C1120 C 0.07585 0.07131 0.28737 0.0
C1121 C 0.07832 0.07357 0.30335 0.0
C1122 C 0.0805 0.05795 0.31162 0.0
C1123 C 0.09494 0.05781 0.32252 0.0
C1124 C 0.06558 0.05357 0.32077 0.0
C1125 C 0.08251 0.0473 0.29751 0.0
C1126 C 0.07864 0.05495 0.28371 0.0
C1127 C 0.08215 0.04849 0.26903 0.0
C1128 C 0.09033 0.03424 0.2684 0.0
C1129 C 0.0951 0.02675 0.28238 0.0
C1130 C 0.09048 0.03298 0.29702 0.0
H1131 H 0.32484 0.77278 0.58204 0.0
H1132 H 0.30244 0.81225 0.60385 0.0
H1133 H 0.28411 0.81418 0.58161 0.0
H1134 H 0.32803 0.77781 0.55029 0.0
H1135 H 0.3201 0.76227 0.53836 0.0
H1136 H 0.3254 0.75836 0.55835 0.0
H1137 H 0.29748 0.74867 0.56504 0.0
H1138 H 0.29229 0.75149 0.5447 0.0
H1139 H 0.28075 0.76059 0.55994 0.0
H1140 H 0.29564 0.82257 0.55392 0.0
H1141 H 0.30081 0.82374 0.52538 0.0
H1142 H 0.29761 0.77437 0.52158 0.0
C1143 C 0.31488 0.78061 0.58307 0.0
C1144 C 0.31625 0.79428 0.59249 0.0
C1145 C 0.3026 0.80318 0.59497 0.0
C1146 C 0.2921 0.80435 0.58246 0.0
C1147 C 0.29398 0.79386 0.57005 0.0
C1148 C 0.30326 0.78056 0.57132 0.0
C1149 C 0.30355 0.77179 0.55567 0.0
C1150 C 0.32028 0.76732 0.55038 0.0
C1151 C 0.29287 0.75728 0.55638 0.0
C1152 C 0.29655 0.7842 0.54506 0.0
C1153 C 0.29246 0.79739 0.55363 0.0
C1154 C 0.29471 0.81214 0.54684 0.0
C1155 C 0.29754 0.81279 0.53068 0.0
C1156 C 0.29364 0.79966 0.52145 0.0
C1157 C 0.29659 0.78494 0.52856 0.0
H1158 H 0.59847 0.54422 0.77909 0.0
H1159 H 0.58505 0.58456 0.80664 0.0
H1160 H 0.58414 0.56842 0.83033 0.0
H1161 H 0.5774 0.51319 0.81155 0.0
H1162 H 0.59255 0.49931 0.80651 0.0
H1163 H 0.58341 0.51099 0.79139 0.0
H1164 H 0.61068 0.52039 0.78254 0.0
H1165 H 0.6199 0.5092 0.79761 0.0
H1166 H 0.62335 0.53004 0.79643 0.0
H1167 H 0.5989 0.5541 0.84992 0.0
H1168 H 0.62131 0.54067 0.86259 0.0
H1169 H 0.62251 0.50726 0.82436 0.0
C1170 C 0.59401 0.54918 0.7899 0.0
C1171 C 0.59222 0.56552 0.79126 0.0
C1172 C 0.58665 0.57198 0.80549 0.0
C1173 C 0.58606 0.56285 0.81907 0.0
C1174 C 0.59041 0.54713 0.81804 0.0
C1175 C 0.59313 0.53996 0.80359 0.0
C1176 C 0.60023 0.52381 0.80594 0.0
C1177 C 0.58765 0.51108 0.80373 0.0
C1178 C 0.61439 0.52073 0.79502 0.0
C1179 C 0.6048 0.52501 0.82309 0.0
C1180 C 0.59819 0.53803 0.83019 0.0
C1181 C 0.60353 0.54342 0.84481 0.0
C1182 C 0.61635 0.53584 0.85193 0.0
C1183 C 0.62368 0.52312 0.84432 0.0
C1184 C 0.6171 0.51708 0.83035 0.0
H1185 H 0.77208 0.50883 0.76685 0.0
H1186 H 0.79821 0.52564 0.80702 0.0
H1187 H 0.80015 0.55183 0.79504 0.0
H1188 H 0.79144 0.5359 0.73609 0.0
H1189 H 0.77282 0.53838 0.72638 0.0
H1190 H 0.77744 0.52003 0.7359 0.0
H1191 H 0.75187 0.5223 0.75234 0.0
H1192 H 0.74728 0.54065 0.74311 0.0
H1193 H 0.74869 0.53956 0.76418 0.0
H1194 H 0.79231 0.57745 0.78289 0.0
H1195 H 0.77813 0.5992 0.76957 0.0
H1196 H 0.75922 0.56558 0.73634 0.0
C1197 C 0.77894 0.51779 0.77266 0.0
C1198 C 0.78495 0.51527 0.7878 0.0
C1199 C 0.79351 0.52738 0.79533 0.0
C1200 C 0.79469 0.54233 0.78863 0.0
C1201 C 0.78751 0.54491 0.77422 0.0
C1202 C 0.78018 0.53284 0.76609 0.0
C1203 C 0.77145 0.53912 0.75201 0.0
C1204 C 0.77873 0.533 0.73669 0.0
C1205 C 0.7538 0.53518 0.75299 0.0
C1206 C 0.77433 0.55654 0.75402 0.0
C1207 C 0.78364 0.55976 0.76683 0.0
C1208 C 0.78553 0.57512 0.77242 0.0
C1209 C 0.77746 0.58742 0.76483 0.0
C1210 C 0.76771 0.58416 0.75185 0.0
C1211 C 0.76675 0.5686 0.74611 0.0
H1212 H 0.7864 0.49018 -0.00044 0.0
H1213 H 0.83126 0.51223 0.99034 0.0
H1214 H 0.83069 0.52425 0.01661 0.0
H1215 H 0.77029 0.52097 0.02923 0.0
H1216 H 0.76205 0.50529 0.04083 0.0
H1217 H 0.76283 0.5036 0.01974 0.0
H1218 H 0.77778 0.4772 0.02251 0.0
H1219 H 0.77724 0.47882 0.04342 0.0
H1220 H 0.79584 0.47669 0.03351 0.0
H1221 H 0.82977 0.5265 0.04497 0.0
H1222 H 0.8287 0.51853 0.07274 0.0
H1223 H 0.78431 0.49532 0.0646 0.0
C1224 C 0.79573 0.49812 0.00284 0.0
C1225 C 0.80887 0.50028 0.99304 0.0
C1226 C 0.82106 0.51047 0.99773 0.0
C1227 C 0.82076 0.51745 0.01259 0.0
C1228 C 0.80814 0.51419 0.02251 0.0
C1229 C 0.7957 0.50489 0.01774 0.0
C1230 C 0.78541 0.50023 0.03145 0.0
C1231 C 0.76918 0.50799 0.03024 0.0
C1232 C 0.78401 0.48219 0.0328 0.0
C1233 C 0.79477 0.50712 0.04484 0.0
C1234 C 0.80754 0.51561 0.0394 0.0
C1235 C 0.81952 0.52046 0.04942 0.0
C1236 C 0.81887 0.51585 0.06515 0.0
C1237 C 0.80629 0.50659 0.07067 0.0
C1238 C 0.79371 0.50293 0.06066 0.0
H1239 H 0.80725 0.53593 0.33082 0.0
H1240 H 0.85436 0.53249 0.34962 0.0
H1241 H 0.85648 0.50539 0.33981 0.0
H1242 H 0.79695 0.49297 0.3395 0.0
H1243 H 0.7852 0.49188 0.32196 0.0
H1244 H 0.78654 0.51009 0.33266 0.0
H1245 H 0.79608 0.52453 0.30752 0.0
H1246 H 0.79423 0.50655 0.29682 0.0
H1247 H 0.81272 0.51681 0.29693 0.0
H1248 H 0.85585 0.48197 0.32207 0.0
H1249 H 0.85203 0.46545 0.29856 0.0
H1250 H 0.80362 0.48048 0.29616 0.0
C1251 C 0.81785 0.52933 0.33316 0.0
C1252 C 0.83076 0.53643 0.34059 0.0
C1253 C 0.8444 0.52738 0.34366 0.0
C1254 C 0.84564 0.51186 0.33834 0.0
C1255 C 0.83284 0.50526 0.33067 0.0
C1256 C 0.81904 0.51359 0.32849 0.0
C1257 C 0.80744 0.50429 0.31887 0.0
C1258 C 0.79319 0.49952 0.32885 0.0
C1259 C 0.80235 0.51359 0.30417 0.0
C1260 C 0.81739 0.4901 0.31474 0.0
C1261 C 0.83199 0.49074 0.32179 0.0
C1262 C 0.8443 0.481 0.31688 0.0
C1263 C 0.84206 0.47157 0.30351 0.0
C1264 C 0.82773 0.47229 0.29523 0.0
C1265 C 0.81476 0.47988 0.30227 0.0
H1266 H 0.85264 0.59814 0.51294 0.0
H1267 H 0.87046 0.63594 0.5412 0.0
H1268 H 0.86164 0.62244 0.56498 0.0
H1269 H 0.81993 0.60305 0.52312 0.0
H1270 H 0.81167 0.5836 0.5241 0.0
H1271 H 0.82847 0.587 0.51215 0.0
H1272 H 0.84375 0.56538 0.52702 0.0
H1273 H 0.82661 0.56179 0.53894 0.0
H1274 H 0.84517 0.56603 0.54812 0.0
H1275 H 0.84087 0.61483 0.58202 0.0
H1276 H 0.81316 0.61545 0.58927 0.0
H1277 H 0.80166 0.58652 0.54916 0.0
C1278 C 0.85566 0.60277 0.52438 0.0
C1279 C 0.86149 0.61824 0.52538 0.0
C1280 C 0.86572 0.62419 0.54017 0.0
C1281 C 0.86044 0.61657 0.55379 0.0
C1282 C 0.85077 0.60333 0.5522 0.0
C1283 C 0.84856 0.59623 0.53769 0.0
C1284 C 0.83356 0.58648 0.53754 0.0
C1285 C 0.82281 0.59032 0.52342 0.0
C1286 C 0.83751 0.56888 0.53794 0.0
C1287 C 0.82631 0.59158 0.55295 0.0
C1288 C 0.83706 0.60001 0.5618 0.0
C1289 C 0.83254 0.60798 0.57533 0.0
C1290 C 0.81664 0.60844 0.57925 0.0
C1291 C 0.80527 0.60126 0.56952 0.0
C1292 C 0.81023 0.59193 0.5568 0.0
H1293 H 0.51516 0.0509 0.84883 0.0
H1294 H 0.52631 0.06646 0.80171 0.0
H1295 H 0.53029 0.03907 0.79358 0.0
H1296 H 0.53978 0.01159 0.84754 0.0
H1297 H 0.52442 0.00206 0.85854 0.0
H1298 H 0.52915 0.02234 0.86237 0.0
H1299 H 0.50003 0.02981 0.85771 0.0
H1300 H 0.49526 0.00981 0.85358 0.0
H1301 H 0.49092 0.02479 0.83927 0.0
H1302 H 0.52318 0.01213 0.78825 0.0
H1303 H 0.50817 0.98747 0.78686 0.0
H1304 H 0.5019 0.98824 0.8373 0.0
C1305 C 0.51923 0.04851 0.83703 0.0
C1306 C 0.52025 0.06061 0.82584 0.0
C1307 C 0.52544 0.05726 0.81045 0.0
C1308 C 0.52782 0.04172 0.80576 0.0
C1309 C 0.5252 0.02981 0.81668 0.0
C1310 C 0.52143 0.03304 0.83218 0.0
C1311 C 0.51592 0.01848 0.84072 0.0
C1312 C 0.52805 0.01331 0.85302 0.0
C1313 C 0.49957 0.02088 0.84823 0.0
C1314 C 0.51536 0.00706 0.82719 0.0
C1315 C 0.52128 0.01364 0.81354 0.0
C1316 C 0.51916 0.00656 0.79895 0.0
C1317 C 0.51046 0.99268 0.79823 0.0
C1318 C 0.50406 0.98608 0.81203 0.0
C1319 C 0.50708 0.99296 0.82669 0.0
H1320 H 0.9639 0.36121 0.21335 0.0
H1321 H 0.96875 0.31365 0.23062 0.0
H1322 H 0.95633 0.30372 0.20664 0.0
H1323 H 0.92873 0.35247 0.18292 0.0
H1324 H 0.93804 0.36585 0.16942 0.0
H1325 H 0.93816 0.36994 0.1902 0.0
H1326 H 0.96839 0.37234 0.18933 0.0
H1327 H 0.96837 0.36817 0.16886 0.0
H1328 H 0.97988 0.35611 0.18193 0.0
H1329 H 0.95432 0.29825 0.17889 0.0
H1330 H 0.96496 0.29785 0.15218 0.0
H1331 H 0.96382 0.34864 0.15084 0.0
C1332 C 0.96158 0.34876 0.21238 0.0
C1333 C 0.96758 0.3382 0.22366 0.0
C1334 C 0.96432 0.32201 0.22212 0.0
C1335 C 0.95716 0.31626 0.20848 0.0
C1336 C 0.9533 0.32684 0.19652 0.0
C1337 C 0.9551 0.3429 0.19851 0.0
C1338 C 0.95448 0.35147 0.18292 0.0
C1339 C 0.93892 0.36046 0.18127 0.0
C1340 C 0.96864 0.36262 0.18064 0.0
C1341 C 0.95494 0.33763 0.1718 0.0
C1342 C 0.9529 0.32359 0.17979 0.0
C1343 C 0.9555 0.30916 0.17248 0.0
C1344 C 0.96164 0.30904 0.15723 0.0
C1345 C 0.96554 0.3233 0.14964 0.0
C1346 C 0.96094 0.33764 0.1565 0.0
H1347 H 0.96592 0.73943 0.36842 0.0
H1348 H 0.95134 0.78133 0.34378 0.0
H1349 H 0.93237 0.78709 0.36461 0.0
H1350 H 0.92526 0.73558 0.39451 0.0
H1351 H 0.93732 0.72903 0.4106 0.0
H1352 H 0.94164 0.72268 0.39085 0.0
H1353 H 0.96999 0.73283 0.39395 0.0
H1354 H 0.96578 0.73922 0.41336 0.0
H1355 H 0.97323 0.75312 0.3992 0.0
H1356 H 0.92602 0.79516 0.39066 0.0
H1357 H 0.93392 0.8042 0.41674 0.0
H1358 H 0.9527 0.75814 0.42709 0.0
C1359 C 0.95798 0.74925 0.36704 0.0
C1360 C 0.96027 0.7601 0.35476 0.0
C1361 C 0.94988 0.77293 0.35322 0.0
C1362 C 0.93894 0.77622 0.36502 0.0
C1363 C 0.93852 0.76657 0.37828 0.0
C1364 C 0.94743 0.75292 0.37912 0.0
C1365 C 0.94836 0.74695 0.39587 0.0
C1366 C 0.93749 0.73272 0.39809 0.0
C1367 C 0.96534 0.74286 0.40086 0.0
C1368 C 0.94186 0.76109 0.40449 0.0
C1369 C 0.93493 0.77161 0.39417 0.0
C1370 C 0.93097 0.78683 0.39887 0.0
C1371 C 0.93561 0.79195 0.41377 0.0
C1372 C 0.94434 0.78191 0.42368 0.0
C1373 C 0.94615 0.76599 0.41956 0.0
H1374 H 0.62093 0.75271 0.69117 0.0
H1375 H 0.58086 0.73552 0.71722 0.0
H1376 H 0.57185 0.72086 0.69451 0.0
H1377 H 0.60443 0.76021 0.65754 0.0
H1378 H 0.61913 0.75212 0.64443 0.0
H1379 H 0.62458 0.7583 0.66371 0.0
H1380 H 0.63606 0.73081 0.66876 0.0
H1381 H 0.63045 0.72477 0.64927 0.0
H1382 H 0.62397 0.71367 0.66608 0.0
H1383 H 0.56377 0.71309 0.66811 0.0
H1384 H 0.55706 0.71423 0.64003 0.0
H1385 H 0.6029 0.73402 0.63007 0.0
C1386 C 0.61056 0.74544 0.69213 0.0
C1387 C 0.60171 0.74522 0.70613 0.0
C1388 C 0.58811 0.73568 0.70691 0.0
C1389 C 0.58285 0.72718 0.69396 0.0
C1390 C 0.59159 0.72778 0.68025 0.0
C1391 C 0.60539 0.73633 0.67931 0.0
C1392 C 0.61165 0.73607 0.66268 0.0
C1393 C 0.61508 0.75272 0.65675 0.0
C1394 C 0.62641 0.72571 0.66164 0.0
C1395 C 0.59797 0.72836 0.65414 0.0
C1396 C 0.58694 0.72287 0.66465 0.0
C1397 C 0.57248 0.71697 0.6597 0.0
C1398 C 0.56873 0.71765 0.64368 0.0
C1399 C 0.57927 0.72452 0.63285 0.0
C1400 C 0.59452 0.72879 0.63806 0.0
H1401 H 0.59432 0.34392 0.93343 0.0
H1402 H 0.57292 0.38851 0.92164 0.0
H1403 H 0.58868 0.38918 0.89697 0.0
H1404 H 0.63355 0.35164 0.91621 0.0
H1405 H 0.63561 0.3317 0.90945 0.0
H1406 H 0.62459 0.33583 0.92706 0.0
H1407 H 0.59884 0.32232 0.91529 0.0
H1408 H 0.6117 0.31683 0.89943 0.0
H1409 H 0.59412 0.32766 0.89528 0.0
H1410 H 0.60636 0.38433 0.87362 0.0
H1411 H 0.61802 0.37201 0.85048 0.0
H1412 H 0.62473 0.3287 0.8765 0.0
C1413 C 0.59308 0.35397 0.92581 0.0
C1414 C 0.58257 0.36628 0.92948 0.0
C1415 C 0.58096 0.37901 0.91901 0.0
C1416 C 0.59003 0.37955 0.90516 0.0
C1417 C 0.60055 0.36726 0.90209 0.0
C1418 C 0.60184 0.35455 0.91202 0.0
C1419 C 0.6124 0.34189 0.90527 0.0
C1420 C 0.62743 0.34017 0.91508 0.0
C1421 C 0.60374 0.32619 0.90383 0.0
C1422 C 0.61585 0.34881 0.88929 0.0
C1423 C 0.6097 0.36385 0.88812 0.0
C1424 C 0.61098 0.37252 0.87439 0.0
C1425 C 0.61753 0.36525 0.86121 0.0
C1426 C 0.62172 0.34907 0.86144 0.0
C1427 C 0.62158 0.341 0.8759 0.0
H1428 H 0.14199 0.98698 0.34694 0.0
H1429 H 0.15486 0.96193 0.30462 0.0
H1430 H 0.1776 0.95071 0.31808 0.0
H1431 H 0.17223 0.00188 0.35502 0.0
H1432 H 0.17411 -0.00017 0.37603 0.0
H1433 H 0.15521 0.99879 0.36722 0.0
H1434 H 0.15022 0.97149 0.37909 0.0
H1435 H 0.16913 0.97236 0.38857 0.0
H1436 H 0.16425 0.9559 0.37622 0.0
H1437 H 0.20302 0.95291 0.32997 0.0
H1438 H 0.22631 0.96709 0.3392 0.0
H1439 H 0.19859 0.98895 0.37569 0.0
C1440 C 0.14915 0.97844 0.34085 0.0
C1441 C 0.14696 0.97573 0.32467 0.0
C1442 C 0.15645 0.96446 0.31698 0.0
C1443 C 0.16938 0.95785 0.32463 0.0
C1444 C 0.17246 0.9623 0.34009 0.0
C1445 C 0.16218 0.97182 0.34841 0.0
C1446 C 0.16966 0.97764 0.36345 0.0
C1447 C 0.16773 0.99558 0.36551 0.0
C1448 C 0.16292 0.96881 0.37767 0.0
C1449 C 0.18654 0.9728 0.36056 0.0
C1450 C 0.18774 0.96302 0.34759 0.0
C1451 C 0.20223 0.95997 0.34049 0.0
C1452 C 0.21547 0.96813 0.34578 0.0
C1453 C 0.21415 0.97911 0.35812 0.0
C1454 C 0.19988 0.98034 0.36644 0.0
H1455 H 0.36846 0.86626 0.57934 0.0
H1456 H 0.35249 0.87274 0.62719 0.0
H1457 H 0.36214 0.89997 0.62656 0.0
H1458 H 0.40107 0.90034 0.57957 0.0
H1459 H 0.39537 0.905 0.55974 0.0
H1460 H 0.39561 0.88485 0.56628 0.0
H1461 H 0.3524 0.89462 0.56629 0.0
H1462 H 0.367 0.88213 0.55732 0.0
H1463 H 0.36573 0.9023 0.5516 0.0
H1464 H 0.36655 0.92728 0.61895 0.0
H1465 H 0.35918 0.95119 0.60517 0.0
H1466 H 0.3664 0.92801 0.56041 0.0
C1467 C 0.36765 0.87319 0.58995 0.0
C1468 C 0.35959 0.86739 0.60327 0.0
C1469 C 0.35863 0.87687 0.61685 0.0
C1470 C 0.36428 0.89235 0.61662 0.0
C1471 C 0.37091 0.89821 0.60276 0.0
C1472 C 0.37276 0.8888 0.58966 0.0
C1473 C 0.37577 0.89862 0.57507 0.0
C1474 C 0.39298 0.89712 0.56986 0.0
C1475 C 0.36457 0.89417 0.56172 0.0
C1476 C 0.37248 0.91492 0.58142 0.0
C1477 C 0.37144 0.91448 0.59765 0.0
C1478 C 0.36743 0.92771 0.60628 0.0
C1479 C 0.36309 0.9413 0.5982 0.0
C1480 C 0.36168 0.94135 0.58156 0.0
C1481 C 0.36736 0.92829 0.57306 0.0
H1482 H 0.39836 0.13007 0.83933 0.0
H1483 H 0.37865 0.09699 0.87242 0.0
H1484 H 0.40282 0.09794 0.88793 0.0
H1485 H 0.43036 0.11388 0.83404 0.0
H1486 H 0.44349 0.13045 0.83291 0.0
H1487 H 0.42315 0.13313 0.82885 0.0
H1488 H 0.42141 0.1546 0.85027 0.0
H1489 H 0.44201 0.152 0.8544 0.0
H1490 H 0.42778 0.15038 0.86999 0.0
H1491 H 0.43049 0.0937 0.89287 0.0
H1492 H 0.45752 0.08563 0.88695 0.0
H1493 H 0.46084 0.12264 0.85219 0.0
C1494 C 0.39891 0.12374 0.85034 0.0
C1495 C 0.38679 0.11333 0.85457 0.0
C1496 C 0.38777 0.10505 0.86891 0.0
C1497 C 0.40151 0.10561 0.87788 0.0
C1498 C 0.41401 0.11477 0.87254 0.0
C1499 C 0.41263 0.12416 0.85931 0.0
C1500 C 0.42848 0.13019 0.854 0.0
C1501 C 0.43153 0.12666 0.83645 0.0
C1502 C 0.43001 0.14784 0.85738 0.0
C1503 C 0.4391 0.12076 0.86469 0.0
C1504 C 0.43056 0.11255 0.87584 0.0
C1505 C 0.43738 0.1005 0.88465 0.0
C1506 C 0.4528 0.09592 0.88116 0.0
C1507 C 0.4612 0.10336 0.86891 0.0
C1508 C 0.45471 0.11678 0.86165 0.0
H1509 H 0.27485 0.14021 0.14279 0.0
H1510 H 0.3158 0.14255 0.17265 0.0
H1511 H 0.30583 0.16676 0.18453 0.0
H1512 H 0.27505 0.1728 0.12976 0.0
H1513 H 0.25464 0.17856 0.12969 0.0
H1514 H 0.25965 0.15827 0.12987 0.0
H1515 H 0.24349 0.15395 0.15511 0.0
H1516 H 0.23805 0.17443 0.15497 0.0
H1517 H 0.247 0.16595 0.17216 0.0
H1518 H 0.29949 0.19416 0.18334 0.0
H1519 H 0.29663 0.21979 0.1704 0.0
H1520 H 0.25821 0.20176 0.14279 0.0
C1521 C 0.2812 0.14539 0.15247 0.0
C1522 C 0.29623 0.13977 0.15653 0.0
C1523 C 0.30435 0.14679 0.16917 0.0
C1524 C 0.29866 0.16055 0.1761 0.0
C1525 C 0.28471 0.16703 0.17045 0.0
C1526 C 0.27569 0.15931 0.15931 0.0
C1527 C 0.26325 0.17014 0.15258 0.0
C1528 C 0.2632 0.16995 0.13443 0.0
C1529 C 0.24699 0.16587 0.1591 0.0
C1530 C 0.26872 0.18571 0.15923 0.0
C1531 C 0.28046 0.18355 0.17031 0.0
C1532 C 0.28986 0.19604 0.17528 0.0
C1533 C 0.2882 0.21062 0.16787 0.0
C1534 C 0.27706 0.21264 0.15579 0.0
C1535 C 0.2664 0.20049 0.15241 0.0
H1536 H 0.15448 0.15891 0.29462 0.0
H1537 H 0.14406 0.14148 0.24805 0.0
H1538 H 0.169 0.15217 0.2384 0.0
H1539 H 0.18221 0.19393 0.2803 0.0
H1540 H 0.19498 0.19036 0.29679 0.0
H1541 H 0.17404 0.18826 0.29899 0.0
H1542 H 0.17734 0.15997 0.30911 0.0
H1543 H 0.1981 0.1619 0.30757 0.0
H1544 H 0.18834 0.146 0.29757 0.0
H1545 H 0.19716 0.15475 0.23617 0.0
H1546 H 0.22439 0.14765 0.24214 0.0
H1547 H 0.21828 0.1646 0.28967 0.0
C1548 C 0.15712 0.15811 0.28222 0.0
C1549 C 0.14745 0.14922 0.27216 0.0
C1550 C 0.15133 0.14816 0.25604 0.0
C1551 C 0.16546 0.15437 0.2504 0.0
C1552 C 0.17553 0.16181 0.26094 0.0
C1553 C 0.17134 0.16408 0.27652 0.0
C1554 C 0.18537 0.16903 0.28623 0.0
C1555 C 0.18406 0.18643 0.29083 0.0
C1556 C 0.1874 0.15858 0.30094 0.0
C1557 C 0.19841 0.16663 0.27434 0.0
C1558 C 0.19244 0.16345 0.25956 0.0
C1559 C 0.20201 0.15771 0.24753 0.0
C1560 C 0.21758 0.1537 0.25102 0.0
C1561 C 0.22333 0.15525 0.2665 0.0
C1562 C 0.21411 0.16324 0.27775 0.0
H1563 H 0.19045 0.89361 0.507 0.0
H1564 H 0.21379 0.92536 0.47493 0.0
H1565 H 0.22183 0.9031 0.45857 0.0
H1566 H 0.20643 0.85109 0.51136 0.0
H1567 H 0.1963 0.86877 0.51622 0.0
H1568 H 0.21687 0.8695 0.51114 0.0
H1569 H 0.17584 0.8636 0.49444 0.0
H1570 H 0.18581 0.84555 0.48957 0.0
H1571 H 0.18223 0.86004 0.47458 0.0
H1572 H 0.23682 0.87917 0.45348 0.0
H1573 H 0.25359 0.85606 0.45813 0.0
H1574 H 0.21914 0.83807 0.49101 0.0
C1575 C 0.19625 0.8959 0.49592 0.0
C1576 C 0.20171 0.91112 0.49238 0.0
C1577 C 0.20957 0.91375 0.47796 0.0
C1578 C 0.21419 0.90111 0.46853 0.0
C1579 C 0.21045 0.88594 0.4734 0.0
C1580 C 0.20098 0.88329 0.48641 0.0
C1581 C 0.20115 0.86608 0.49095 0.0
C1582 C 0.20547 0.86376 0.50842 0.0
C1583 C 0.18532 0.85836 0.48715 0.0
C1584 C 0.2139 0.86005 0.48007 0.0
C1585 C 0.21877 0.87151 0.46965 0.0
C1586 C 0.23267 0.86983 0.46103 0.0
C1587 C 0.2422 0.85663 0.46376 0.0
C1588 C 0.23776 0.84524 0.47499 0.0
C1589 C 0.22286 0.8465 0.48225 0.0
H1590 H 0.38741 0.97433 0.73388 0.0
H1591 H 0.36472 0.95533 0.77518 0.0
H1592 H 0.38488 0.93479 0.77671 0.0
H1593 H 0.41208 0.9352 0.72244 0.0
H1594 H 0.42826 0.94787 0.71745 0.0
H1595 H 0.40842 0.95377 0.71296 0.0
H1596 H 0.41286 0.97969 0.728 0.0
H1597 H 0.43237 0.9739 0.73258 0.0
H1598 H 0.41903 0.97899 0.74827 0.0
H1599 H 0.41068 0.92436 0.78074 0.0
H1600 H 0.43743 0.92915 0.7897 0.0
H1601 H 0.4464 0.95754 0.74852 0.0
C1602 C 0.38629 0.96535 0.74278 0.0
C1603 C 0.37472 0.96659 0.75458 0.0
C1604 C 0.37355 0.95469 0.76606 0.0
C1605 C 0.38496 0.94285 0.76689 0.0
C1606 C 0.39756 0.94322 0.75633 0.0
C1607 C 0.39817 0.95416 0.74427 0.0
C1608 C 0.41467 0.95576 0.73778 0.0
C1609 C 0.41593 0.94766 0.72171 0.0
C1610 C 0.42002 0.97309 0.73666 0.0
C1611 C 0.42364 0.94659 0.75007 0.0
C1612 C 0.41348 0.93808 0.75957 0.0
C1613 C 0.4187 0.93074 0.77323 0.0
C1614 C 0.43401 0.93363 0.7783 0.0
C1615 C 0.44374 0.94423 0.76999 0.0
C1616 C 0.43902 0.94953 0.75506 0.0
H1617 H 0.30199 0.15616 0.9744 0.0
H1618 H 0.34865 0.1368 0.96988 0.0
H1619 H 0.35787 0.16156 0.95827 0.0
H1620 H 0.30643 0.18936 0.94086 0.0
H1621 H 0.29549 0.2025 0.95334 0.0
H1622 H 0.29043 0.18195 0.95256 0.0
H1623 H 0.29317 0.18026 0.98275 0.0
H1624 H 0.29828 0.20051 0.9836 0.0
H1625 H 0.31141 0.18605 0.99181 0.0
H1626 H 0.36436 0.18894 0.9577 0.0
H1627 H 0.36779 0.2146 0.97017 0.0
H1628 H 0.31749 0.21824 0.97673 0.0
C1629 C 0.31387 0.15693 0.96996 0.0
C1630 C 0.32462 0.14471 0.97288 0.0
C1631 C 0.34025 0.14607 0.96759 0.0
C1632 C 0.34552 0.16011 0.96088 0.0
C1633 C 0.33507 0.17271 0.95974 0.0
C1634 C 0.3194 0.17117 0.96393 0.0
C1635 C 0.31168 0.18709 0.96598 0.0
C1636 C 0.30034 0.19042 0.95237 0.0
C1637 C 0.30319 0.18854 0.98198 0.0
C1638 C 0.32597 0.19761 0.96492 0.0
C1639 C 0.33909 0.18925 0.96013 0.0
C1640 C 0.35412 0.19568 0.96103 0.0
C1641 C 0.35598 0.21031 0.96826 0.0
C1642 C 0.34289 0.21823 0.97474 0.0
C1643 C 0.32767 0.21242 0.97183 0.0
H1644 H 0.83797 0.37763 0.13882 0.0
H1645 H 0.87967 0.36681 0.11163 0.0
H1646 H 0.8848 0.3951 0.10842 0.0
H1647 H 0.82478 0.40594 0.11507 0.0
H1648 H 0.81669 0.4184 0.13014 0.0
H1649 H 0.81863 0.39772 0.13359 0.0
H1650 H 0.83516 0.4034 0.15857 0.0
H1651 H 0.83326 0.42421 0.15509 0.0
H1652 H 0.85245 0.4155 0.1571 0.0
H1653 H 0.88187 0.42395 0.10305 0.0
H1654 H 0.87142 0.45013 0.09643 0.0
H1655 H 0.83202 0.44217 0.12773 0.0
C1656 C 0.84849 0.38117 0.1326 0.0
C1657 C 0.85813 0.36992 0.12508 0.0
C1658 C 0.87184 0.3751 0.11718 0.0
C1659 C 0.87494 0.39121 0.11542 0.0
C1660 C 0.86448 0.40198 0.12201 0.0
C1661 C 0.85166 0.39712 0.13068 0.0
C1662 C 0.84091 0.41071 0.13461 0.0
C1663 C 0.82429 0.40803 0.12795 0.0
C1664 C 0.84043 0.41363 0.1524 0.0
C1665 C 0.84925 0.42389 0.12615 0.0
C1666 C 0.86298 0.41873 0.11917 0.0
C1667 C 0.87143 0.42825 0.10887 0.0
C1668 C 0.86537 0.44314 0.10516 0.0
C1669 C 0.85094 0.44832 0.11166 0.0
C1670 C 0.84326 0.43879 0.12285 0.0
H1671 H 0.90448 0.62511 0.33978 0.0
H1672 H 0.8958 0.6153 0.38893 0.0
H1673 H 0.86936 0.62663 0.38641 0.0
H1674 H 0.87209 0.66137 0.33951 0.0
H1675 H 0.86743 0.65656 0.31948 0.0
H1676 H 0.88751 0.65577 0.32616 0.0
H1677 H 0.88993 0.62662 0.31705 0.0
H1678 H 0.8704 0.62879 0.30957 0.0
H1679 H 0.87462 0.61331 0.32307 0.0
H1680 H 0.84261 0.63184 0.37756 0.0
H1681 H 0.8197 0.62146 0.36414 0.0
H1682 H 0.84484 0.62293 0.31997 0.0
C1683 C 0.89731 0.62617 0.35022 0.0
C1684 C 0.9023 0.61941 0.36461 0.0
C1685 C 0.89238 0.62054 0.37786 0.0
C1686 C 0.87735 0.62718 0.37655 0.0
C1687 C 0.87236 0.63285 0.36195 0.0
C1688 C 0.88218 0.63259 0.34899 0.0
C1689 C 0.87295 0.63611 0.33409 0.0
C1690 C 0.87512 0.65348 0.32956 0.0
C1691 C 0.87732 0.62555 0.32014 0.0
C1692 C 0.85637 0.6334 0.3401 0.0
C1693 C 0.85625 0.63415 0.35638 0.0
C1694 C 0.84269 0.63114 0.36493 0.0
C1695 C 0.82965 0.62511 0.35709 0.0
C1696 C 0.83076 0.62072 0.34109 0.0
C1697 C 0.84369 0.6262 0.33219 0.0
H1698 H 0.72643 0.63704 0.55923 0.0
H1699 H 0.71726 0.60312 0.59572 0.0
H1700 H 0.71148 0.6246 0.61441 0.0
H1701 H 0.74784 0.65438 0.58851 0.0
H1702 H 0.74807 0.67339 0.58033 0.0
H1703 H 0.7466 0.65628 0.56782 0.0
H1704 H 0.72031 0.66599 0.55496 0.0
H1705 H 0.72051 0.68382 0.56636 0.0
H1706 H 0.70397 0.6708 0.56754 0.0
H1707 H 0.71738 0.65017 0.63056 0.0
H1708 H 0.72798 0.67595 0.63996 0.0
H1709 H 0.72954 0.69235 0.59208 0.0
C1710 C 0.72168 0.63402 0.57065 0.0
C1711 C 0.7219 0.61841 0.57581 0.0
C1712 C 0.71691 0.61507 0.59141 0.0
C1713 C 0.71373 0.62725 0.60219 0.0
C1714 C 0.71527 0.64276 0.59712 0.0
C1715 C 0.71882 0.64599 0.58156 0.0
C1716 C 0.72479 0.66241 0.58001 0.0
C1717 C 0.74283 0.66165 0.5789 0.0
C1718 C 0.71695 0.67128 0.5664 0.0
C1719 C 0.72083 0.66912 0.59573 0.0
C1720 C 0.71708 0.65735 0.60622 0.0
C1721 C 0.71935 0.65968 0.62238 0.0
C1722 C 0.72554 0.67425 0.62762 0.0
C1723 C 0.72895 0.68636 0.61673 0.0
C1724 C 0.72592 0.68378 0.60078 0.0
H1725 H 0.92447 0.54766 0.23012 0.0
H1726 H 0.95227 0.51941 0.19841 0.0
H1727 H 0.93034 0.50067 0.19574 0.0
H1728 H 0.9121 0.51509 0.25057 0.0
H1729 H 0.89365 0.52377 0.25611 0.0
H1730 H 0.91029 0.53594 0.2519 0.0
H1731 H 0.8927 0.55068 0.23062 0.0
H1732 H 0.87666 0.53755 0.23492 0.0
H1733 H 0.88397 0.53923 0.21513 0.0
H1734 H 0.90912 0.48103 0.20381 0.0
H1735 H 0.88824 0.46563 0.21742 0.0
H1736 H 0.87386 0.50758 0.24218 0.0
C1737 C 0.92546 0.53825 0.22162 0.0
C1738 C 0.93988 0.53527 0.2141 0.0
C1739 C 0.94111 0.52219 0.20386 0.0
C1740 C 0.92879 0.51132 0.20251 0.0
C1741 C 0.91523 0.51377 0.21136 0.0
C1742 C 0.91341 0.52714 0.22045 0.0
C1743 C 0.89919 0.52582 0.23095 0.0
C1744 C 0.90407 0.52516 0.24838 0.0
C1745 C 0.88743 0.53911 0.22771 0.0
C1746 C 0.89291 0.51007 0.22596 0.0
C1747 C 0.90258 0.50286 0.21511 0.0
C1748 C 0.90101 0.48683 0.21169 0.0
C1749 C 0.88924 0.47813 0.21951 0.0
C1750 C 0.8791 0.48565 0.23028 0.0
C1751 C 0.8809 0.50179 0.23328 0.0
H1752 H 0.69745 0.64232 0.73356 0.0
H1753 H 0.70473 0.61953 0.77818 0.0
H1754 H 0.68605 0.59824 0.77018 0.0
H1755 H 0.65254 0.63332 0.73968 0.0
H1756 H 0.64906 0.63369 0.71882 0.0
H1757 H 0.6638 0.64625 0.72726 0.0
H1758 H 0.68405 0.63432 0.7078 0.0
H1759 H 0.66951 0.62108 0.70002 0.0
H1760 H 0.68756 0.61344 0.70799 0.0
H1761 H 0.67769 0.57564 0.75108 0.0
H1762 H 0.65633 0.56151 0.73736 0.0
H1763 H 0.64175 0.60497 0.71571 0.0
C1764 C 0.69465 0.63326 0.74202 0.0
C1765 C 0.70382 0.63122 0.75583 0.0
C1766 C 0.69888 0.62007 0.76698 0.0
C1767 C 0.68867 0.60799 0.7625 0.0
C1768 C 0.68206 0.60872 0.74767 0.0
C1769 C 0.68287 0.62213 0.73872 0.0
C1770 C 0.67066 0.62152 0.72566 0.0
C1771 C 0.65827 0.63446 0.728 0.0
C1772 C 0.67842 0.62267 0.7094 0.0
C1773 C 0.66376 0.60521 0.72837 0.0
C1774 C 0.6718 0.59769 0.74019 0.0
C1775 C 0.67024 0.58167 0.74279 0.0
C1776 C 0.65833 0.57376 0.73475 0.0
C1777 C 0.64642 0.58256 0.72734 0.0
C1778 C 0.65017 0.59805 0.72226 0.0
H1779 H 0.46655 0.84917 0.65507 0.0
H1780 H 0.49413 0.88663 0.67571 0.0
H1781 H 0.4835 0.87967 0.70187 0.0
H1782 H 0.4326 0.84898 0.68394 0.0
H1783 H 0.43197 0.82783 0.68344 0.0
H1784 H 0.43769 0.83867 0.66616 0.0
H1785 H 0.46363 0.82281 0.66478 0.0
H1786 H 0.45806 0.812 0.68196 0.0
H1787 H 0.4764 0.82248 0.68161 0.0
H1788 H 0.47355 0.866 0.72583 0.0
H1789 H 0.46895 0.84524 0.74533 0.0
H1790 H 0.45008 0.81506 0.709 0.0
C1791 C 0.46984 0.85646 0.66494 0.0
C1792 C 0.48092 0.86874 0.66324 0.0
C1793 C 0.48543 0.87741 0.67665 0.0
C1794 C 0.47939 0.87355 0.69154 0.0
C1795 C 0.46897 0.86092 0.69283 0.0
C1796 C 0.46432 0.85246 0.67983 0.0
C1797 C 0.45569 0.83758 0.68443 0.0
C1798 C 0.43846 0.83831 0.67918 0.0
C1799 C 0.46395 0.82287 0.67781 0.0
C1800 C 0.45698 0.83845 0.70212 0.0
C1801 C 0.46407 0.85234 0.70673 0.0
C1802 C 0.4678 0.85523 0.72235 0.0
C1803 C 0.46511 0.84332 0.73337 0.0
C1804 C 0.45915 0.82847 0.72868 0.0
C1805 C 0.45428 0.82636 0.713 0.0
H1806 H 0.47984 0.22212 0.89925 0.0
H1807 H 0.51526 0.19452 0.8753 0.0
H1808 H 0.49915 0.1955 0.85108 0.0
H1809 H 0.44386 0.21311 0.87326 0.0
H1810 H 0.43834 0.23354 0.87411 0.0
H1811 H 0.44758 0.22434 0.8908 0.0
H1812 H 0.4689 0.24578 0.89076 0.0
H1813 H 0.45997 0.25504 0.8743 0.0
H1814 H 0.4803 0.24916 0.87322 0.0
H1815 H 0.48295 0.2046 0.82847 0.0
H1816 H 0.47602 0.22554 0.8101 0.0
H1817 H 0.45557 0.25226 0.84783 0.0
C1818 C 0.48401 0.21569 0.88913 0.0
C1819 C 0.49878 0.20806 0.8893 0.0
C1820 C 0.50388 0.2002 0.87559 0.0
C1821 C 0.49475 0.20069 0.8618 0.0
C1822 C 0.4808 0.20946 0.86175 0.0
C1823 C 0.47568 0.21708 0.87513 0.0
C1824 C 0.46355 0.22959 0.87136 0.0
C1825 C 0.44737 0.22485 0.87776 0.0
C1826 C 0.46852 0.24583 0.87775 0.0
C1827 C 0.46377 0.22899 0.85359 0.0
C1828 C 0.47267 0.21637 0.84837 0.0
C1829 C 0.47585 0.21431 0.83247 0.0
C1830 C 0.47152 0.22627 0.82199 0.0
C1831 C 0.4663 0.24092 0.82791 0.0
C1832 C 0.45998 0.24128 0.8432 0.0
H1833 H 0.161 0.296 0.15257 0.0
H1834 H 0.12563 0.26145 0.14094 0.0
H1835 H 0.13347 0.24578 0.16383 0.0
H1836 H 0.18844 0.26739 0.17817 0.0
H1837 H 0.19161 0.28352 0.19148 0.0
H1838 H 0.19016 0.2871 0.17065 0.0
H1839 H 0.16817 0.30732 0.17582 0.0
H1840 H 0.16944 0.30378 0.19637 0.0
H1841 H 0.15086 0.30135 0.18651 0.0
H1842 H 0.1371 0.23947 0.19121 0.0
H1843 H 0.13239 0.24562 0.21881 0.0
H1844 H 0.16359 0.28554 0.21532 0.0
C1845 C 0.15541 0.28475 0.15446 0.0
C1846 C 0.14253 0.28009 0.14514 0.0
C1847 C 0.13552 0.26532 0.14791 0.0
C1848 C 0.14002 0.25626 0.1609 0.0
C1849 C 0.15152 0.26211 0.17104 0.0
C1850 C 0.15933 0.27602 0.16779 0.0
C1851 C 0.16772 0.28222 0.18219 0.0
C1852 C 0.18554 0.27991 0.18053 0.0
C1853 C 0.16375 0.29966 0.18541 0.0
C1854 C 0.16107 0.2713 0.1946 0.0
C1855 C 0.15298 0.25895 0.18774 0.0
C1856 C 0.14364 0.24888 0.19668 0.0
C1857 C 0.14102 0.25249 0.21249 0.0
C1858 C 0.14725 0.26642 0.21905 0.0
C1859 C 0.15864 0.2749 0.21048 0.0
H1860 H 0.10973 0.84884 0.45815 0.0
H1861 H 0.14197 0.80954 0.46075 0.0
H1862 H 0.15579 0.81939 0.43745 0.0
H1863 H 0.10125 0.84608 0.42265 0.0
H1864 H 0.10009 0.86651 0.41717 0.0
H1865 H 0.09752 0.86102 0.4372 0.0
H1866 H 0.12004 0.87978 0.44524 0.0
H1867 H 0.12267 0.88529 0.42496 0.0
H1868 H 0.13906 0.87795 0.43614 0.0
H1869 H 0.15882 0.82626 0.41006 0.0
H1870 H 0.15075 0.82949 0.38253 0.0
H1871 H 0.11755 0.8653 0.39629 0.0
C1872 C 0.12022 0.84277 0.4543 0.0
C1873 C 0.12461 0.82831 0.46114 0.0
C1874 C 0.13829 0.82061 0.45568 0.0
C1875 C 0.1463 0.82622 0.44245 0.0
C1876 C 0.14066 0.83965 0.43492 0.0
C1877 C 0.12812 0.84812 0.44092 0.0
C1878 C 0.12207 0.85994 0.42906 0.0
C1879 C 0.10421 0.85824 0.42636 0.0
C1880 C 0.12622 0.87673 0.43415 0.0
C1881 C 0.13153 0.85518 0.41475 0.0
C1882 C 0.14279 0.84403 0.41857 0.0
C1883 C 0.15058 0.83543 0.40699 0.0
C1884 C 0.14596 0.83733 0.39133 0.0
C1885 C 0.13374 0.84784 0.38739 0.0
C1886 C 0.12735 0.85768 0.39905 0.0
H1887 H 0.73465 0.44445 0.82745 0.0
H1888 H 0.71487 0.47654 0.79299 0.0
H1889 H 0.69781 0.48751 0.81341 0.0
H1890 H 0.69001 0.44265 0.84746 0.0
H1891 H 0.69857 0.4381 0.86626 0.0
H1892 H 0.70692 0.42995 0.84857 0.0
H1893 H 0.73378 0.44156 0.85661 0.0
H1894 H 0.72541 0.45055 0.87383 0.0
H1895 H 0.73559 0.46245 0.85957 0.0
H1896 H 0.70541 0.50444 0.83946 0.0
H1897 H 0.70122 0.51365 0.86676 0.0
H1898 H 0.6956 0.46586 0.88175 0.0
C1899 C 0.726 0.45305 0.8239 0.0
C1900 C 0.72691 0.4604 0.80883 0.0
C1901 C 0.71505 0.47121 0.80454 0.0
C1902 C 0.7056 0.47787 0.8161 0.0
C1903 C 0.70731 0.47255 0.83136 0.0
C1904 C 0.71498 0.45884 0.83491 0.0
C1905 C 0.71216 0.45481 0.85226 0.0
C1906 C 0.70126 0.44052 0.85373 0.0
C1907 C 0.72767 0.45218 0.86108 0.0
C1908 C 0.70394 0.46974 0.85788 0.0
C1909 C 0.70301 0.48022 0.84569 0.0
C1910 C 0.70347 0.4962 0.84873 0.0
C1911 C 0.70146 0.50126 0.8642 0.0
C1912 C 0.69518 0.49079 0.87519 0.0
C1913 C 0.69831 0.47447 0.87281 0.0
H1914 H 0.74291 0.37162 0.96321 0.0
H1915 H 0.78841 0.35073 0.95436 0.0
H1916 H 0.79545 0.37328 0.93786 0.0
H1917 H 0.74205 0.40088 0.9263 0.0
H1918 H 0.73366 0.41556 0.93904 0.0
H1919 H 0.72821 0.39521 0.94128 0.0
H1920 H 0.73608 0.39659 0.97055 0.0
H1921 H 0.74177 0.41659 0.96838 0.0
H1922 H 0.75577 0.40247 0.97569 0.0
H1923 H 0.80176 0.40033 0.93218 0.0
H1924 H 0.80743 0.42744 0.93977 0.0
H1925 H 0.75962 0.43306 0.95624 0.0
C1926 C 0.75407 0.37145 0.95712 0.0
C1927 C 0.76525 0.35964 0.96037 0.0
C1928 C 0.77965 0.35967 0.95214 0.0
C1929 C 0.78372 0.37251 0.94266 0.0
C1930 C 0.77333 0.38521 0.94167 0.0
C1931 C 0.75858 0.38465 0.94855 0.0
C1932 C 0.75156 0.40095 0.95024 0.0
C1933 C 0.73808 0.40328 0.93851 0.0
C1934 C 0.74603 0.40432 0.96721 0.0
C1935 C 0.76558 0.41082 0.94568 0.0
C1936 C 0.77751 0.40158 0.93953 0.0
C1937 C 0.79239 0.40769 0.93661 0.0
C1938 C 0.79553 0.42315 0.9411 0.0
C1939 C 0.78398 0.43221 0.94893 0.0
C1940 C 0.76861 0.4263 0.9503 0.0
H1941 H 0.78928 0.73914 0.47553 0.0
H1942 H 0.82582 0.7742 0.47115 0.0
H1943 H 0.84498 0.75363 0.46526 0.0
H1944 H 0.80015 0.71292 0.49022 0.0
H1945 H 0.79852 0.69451 0.47993 0.0
H1946 H 0.78589 0.71067 0.47512 0.0
H1947 H 0.79367 0.7128 0.44684 0.0
H1948 H 0.80495 0.69505 0.44947 0.0
H1949 H 0.81401 0.71226 0.44115 0.0
H1950 H 0.86044 0.73004 0.47249 0.0
H1951 H 0.87028 0.70501 0.48345 0.0
H1952 H 0.82401 0.68466 0.47746 0.0
C1953 C 0.801 0.74262 0.47209 0.0
C1954 C 0.80627 0.75815 0.47478 0.0
C1955 C 0.82166 0.76226 0.46996 0.0
C1956 C 0.83269 0.75064 0.46638 0.0
C1957 C 0.8277 0.73512 0.46591 0.0
C1958 C 0.81193 0.73122 0.467 0.0
C1959 C 0.81005 0.71347 0.46664 0.0
C1960 C 0.79801 0.70748 0.47872 0.0
C1961 C 0.80541 0.70808 0.45004 0.0
C1962 C 0.82687 0.70853 0.47004 0.0
C1963 C 0.83704 0.72105 0.46844 0.0
C1964 C 0.85278 0.71992 0.47298 0.0
C1965 C 0.85827 0.7057 0.47936 0.0
C1966 C 0.84803 0.69279 0.48119 0.0
C1967 C 0.83227 0.69419 0.47596 0.0
H1968 H 0.03041 0.35467 0.19775 0.0
H1969 H 0.05714 0.33649 0.23712 0.0
H1970 H 0.07957 0.33129 0.21955 0.0
H1971 H 0.04284 0.32634 0.17023 0.0
H1972 H 0.04386 0.33961 0.15385 0.0
H1973 H 0.03051 0.34351 0.1698 0.0
H1974 H 0.04329 0.37093 0.17326 0.0
H1975 H 0.05671 0.36676 0.15742 0.0
H1976 H 0.06417 0.37234 0.1764 0.0
H1977 H 0.09917 0.32844 0.19808 0.0
H1978 H 0.11332 0.3237 0.17322 0.0
H1979 H 0.07308 0.34052 0.14701 0.0
C1980 C 0.04112 0.3499 0.20267 0.0
C1981 C 0.04214 0.34615 0.21882 0.0
C1982 C 0.05615 0.33949 0.2248 0.0
C1983 C 0.06899 0.33661 0.21494 0.0
C1984 C 0.06762 0.34033 0.19908 0.0
C1985 C 0.054 0.34664 0.19289 0.0
C1986 C 0.05523 0.34822 0.17516 0.0
C1987 C 0.04232 0.33886 0.16678 0.0
C1988 C 0.05483 0.3656 0.17028 0.0
C1989 C 0.07135 0.34115 0.17235 0.0
C1990 C 0.0785 0.33732 0.18639 0.0
C1991 C 0.09368 0.3313 0.187 0.0
C1992 C 0.10164 0.32873 0.17284 0.0
C1993 C 0.09424 0.33171 0.15828 0.0
C1994 C 0.07892 0.33808 0.15802 0.0
H1995 H 0.04403 0.83963 0.36454 0.0
H1996 H 0.07986 0.85395 0.39754 0.0
H1997 H 0.06012 0.85485 0.41873 0.0
H1998 H 0.01156 0.86515 0.38644 0.0
H1999 H 0.99662 0.85119 0.38108 0.0
H2000 H 0.01267 0.85517 0.36783 0.0
H2001 H 0.01897 0.82578 0.36684 0.0
H2002 H 0.00328 0.82156 0.3803 0.0
H2003 H 0.02292 0.81534 0.38468 0.0
H2004 H 0.03856 0.84874 0.43691 0.0
H2005 H 0.01629 0.83661 0.4509 0.0
H2006 H 0.99331 0.82742 0.40658 0.0
C2007 C 0.04746 0.84359 0.37611 0.0
C2008 C 0.06335 0.84694 0.37949 0.0
C2009 C 0.06766 0.85168 0.39476 0.0
C2010 C 0.05652 0.85224 0.40684 0.0
C2011 C 0.04098 0.84853 0.40333 0.0
C2012 C 0.03628 0.84476 0.38824 0.0
C2013 C 0.01894 0.84048 0.38798 0.0
C2014 C 0.00939 0.85379 0.38039 0.0
C2015 C 0.01587 0.82486 0.37948 0.0
C2016 C 0.01554 0.83967 0.40551 0.0
C2017 C 0.02815 0.84531 0.41404 0.0
C2018 C 0.02841 0.84479 0.4304 0.0
C2019 C 0.01571 0.83793 0.43826 0.0
C2020 C 0.00296 0.83158 0.42981 0.0
C2021 C 0.00268 0.83278 0.41326 0.0
H2022 H 0.54531 0.79548 0.7226 0.0
H2023 H 0.57428 0.76377 0.69488 0.0
H2024 H 0.56617 0.77477 0.66965 0.0
H2025 H 0.50031 0.80726 0.6955 0.0
H2026 H 0.5036 0.827 0.6909 0.0
H2027 H 0.5057 0.81968 0.71014 0.0
H2028 H 0.52716 0.8303 0.71577 0.0
H2029 H 0.52808 0.8414 0.69769 0.0
H2030 H 0.54444 0.83179 0.70665 0.0
H2031 H 0.55576 0.79903 0.64279 0.0
H2032 H 0.54265 0.81898 0.6264 0.0
H2033 H 0.51422 0.83702 0.66458 0.0
C2034 C 0.54852 0.79072 0.71129 0.0
C2035 C 0.55984 0.77839 0.70989 0.0
C2036 C 0.56526 0.77271 0.69506 0.0
C2037 C 0.561 0.77908 0.68043 0.0
C2038 C 0.55007 0.791 0.68013 0.0
C2039 C 0.54209 0.79727 0.69777 0.0
C2040 C 0.52676 0.81535 0.69347 0.0
C2041 C 0.50846 0.81694 0.69766 0.0
C2042 C 0.53194 0.83041 0.70362 0.0
C2043 C 0.52828 0.81705 0.67031 0.0
C2044 C 0.5412 0.80349 0.66292 0.0
C2045 C 0.54637 0.80607 0.64766 0.0
C2046 C 0.53882 0.81767 0.63847 0.0
C2047 C 0.52684 0.82791 0.64423 0.0
C2048 C 0.52223 0.82817 0.66016 0.0
H2049 H 0.55868 0.33925 0.91544 0.0
H2050 H 0.5496 0.29769 0.94363 0.0
H2051 H 0.53418 0.28453 0.92325 0.0
H2052 H 0.51763 0.34361 0.88062 0.0
H2053 H 0.53246 0.35266 0.87127 0.0
H2054 H 0.53272 0.35284 0.89238 0.0
H2055 H 0.55797 0.34952 0.88 0.0
H2056 H 0.55489 0.33874 0.86254 0.0
H2057 H 0.56676 0.33262 0.87988 0.0
H2058 H 0.51222 0.27716 0.89497 0.0
H2059 H 0.50004 0.2747 0.86919 0.0
H2060 H 0.52032 0.31788 0.85063 0.0
C2061 C 0.55449 0.32727 0.91618 0.0
C2062 C 0.5552 0.31869 0.93045 0.0
C2063 C 0.54872 0.30336 0.93227 0.0
C2064 C 0.5399 0.29557 0.92072 0.0
C2065 C 0.53852 0.30241 0.90611 0.0
C2066 C 0.5471 0.32058 0.90337 0.0
C2067 C 0.54082 0.32948 0.88267 0.0
C2068 C 0.53041 0.34533 0.88195 0.0
C2069 C 0.55581 0.33739 0.87549 0.0
C2070 C 0.52701 0.31213 0.8743 0.0
C2071 C 0.52543 0.2974 0.88822 0.0
C2072 C 0.51447 0.28585 0.88598 0.0
C2073 C 0.50735 0.28492 0.87124 0.0
C2074 C 0.51033 0.29547 0.85851 0.0
C2075 C 0.51874 0.30984 0.86034 0.0
H2076 H 0.05868 0.80351 0.43853 0.0
H2077 H 0.08009 0.75895 0.45077 0.0
H2078 H 0.06827 0.7469 0.42699 0.0
H2079 H 0.02308 0.78871 0.42395 0.0
H2080 H 0.02129 0.80244 0.40809 0.0
H2081 H 0.0316 0.80798 0.42563 0.0
H2082 H 0.05628 0.81496 0.41034 0.0
H2083 H 0.04777 0.80961 0.3918 0.0
H2084 H 0.06568 0.80052 0.39804 0.0
H2085 H 0.053 0.73985 0.40148 0.0
H2086 H 0.03747 0.73894 0.37687 0.0
H2087 H 0.02772 0.78868 0.38146 0.0
C2088 C 0.06085 0.79117 0.43634 0.0
C2089 C 0.07023 0.78215 0.44663 0.0
C2090 C 0.07293 0.76611 0.44308 0.0
C2091 C 0.06624 0.75917 0.4296 0.0
C2092 C 0.05705 0.76848 0.41968 0.0
C2093 C 0.05453 0.78418 0.4229 0.0
C2094 C 0.04471 0.79194 0.41034 0.0
C2095 C 0.02927 0.79815 0.4174 0.0
C2096 C 0.05413 0.80503 0.40216 0.0
C2097 C 0.04187 0.77816 0.39947 0.0
C2098 C 0.04897 0.76466 0.40503 0.0
C2099 C 0.04751 0.75041 0.39703 0.0
C2100 C 0.03862 0.74998 0.38305 0.0
C2101 C 0.0314 0.76376 0.37708 0.0
C2102 C 0.03318 0.77797 0.38552 0.0
H2103 H 0.52911 0.78322 0.64472 0.0
H2104 H 0.54225 0.73572 0.65368 0.0
H2105 H 0.52921 0.73717 0.67951 0.0
H2106 H 0.55939 0.81738 0.69375 0.0
H2107 H 0.54968 0.83018 0.68073 0.0
H2108 H 0.56196 0.81619 0.67491 0.0
H2109 H 0.49797 0.78638 0.67186 0.0
H2110 H 0.50892 0.79588 0.65686 0.0
H2111 H 0.50079 0.80679 0.67143 0.0
H2112 H 0.51035 0.74217 0.69928 0.0
H2113 H 0.49627 0.75134 0.72254 0.0
H2114 H 0.51521 0.7969 0.71601 0.0
C2115 C 0.53088 0.77408 0.65323 0.0
C2116 C 0.53782 0.76007 0.64798 0.0
C2117 C 0.5374 0.74676 0.65765 0.0
C2118 C 0.5301 0.7476 0.67231 0.0
C2119 C 0.52478 0.76221 0.6777 0.0
C2120 C 0.52662 0.77593 0.66931 0.0
C2121 C 0.52322 0.79204 0.67953 0.0
C2122 C 0.55154 0.81727 0.68309 0.0
C2123 C 0.50703 0.79558 0.66977 0.0
C2124 C 0.51684 0.78169 0.69485 0.0
C2125 C 0.51739 0.76557 0.69222 0.0
C2126 C 0.51057 0.75453 0.70223 0.0
C2127 C 0.50285 0.75974 0.71562 0.0
C2128 C 0.50377 0.77559 0.72015 0.0
C2129 C 0.51225 0.78599 0.71057 0.0
H2130 H 0.55218 0.27469 0.90271 0.0
H2131 H 0.53355 0.24399 0.86744 0.0
H2132 H 0.53993 0.26367 0.84699 0.0
H2133 H 0.50991 0.32333 0.89198 0.0
H2134 H 0.52238 0.33209 0.90601 0.0
H2135 H 0.51449 0.31458 0.90831 0.0
H2136 H 0.56802 0.29648 0.90224 0.0
H2137 H 0.57366 0.31405 0.89344 0.0
H2138 H 0.57712 0.29642 0.88364 0.0
H2139 H 0.54592 0.28611 0.83084 0.0
H2140 H 0.56248 0.30617 0.81849 0.0
H2141 H 0.57899 0.31852 0.86424 0.0
C2142 C 0.54908 0.27277 0.89062 0.0
C2143 C 0.54194 0.25843 0.88656 0.0
C2144 C 0.53864 0.25515 0.87076 0.0
C2145 C 0.54189 0.26637 0.85921 0.0
C2146 C 0.54675 0.28132 0.86388 0.0
C2147 C 0.55013 0.28499 0.87934 0.0
C2148 C 0.55117 0.30389 0.88241 0.0
C2149 C 0.52104 0.32111 0.89877 0.0
C2150 C 0.56822 0.30279 0.89085 0.0
C2151 C 0.55606 0.30641 0.86398 0.0
C2152 C 0.5499 0.29477 0.85435 0.0
C2153 C 0.55132 0.29499 0.83803 0.0
C2154 C 0.56114 0.3061 0.83114 0.0
C2155 C 0.57121 0.31505 0.84063 0.0
C2156 C 0.56954 0.31397 0.85713 0.0
H2157 H 0.02117 0.29686 0.16667 0.0
H2158 H 0.05376 0.30377 0.12826 0.0
H2159 H 0.07584 0.29664 0.14566 0.0
H2160 H 0.04378 0.31463 0.19561 0.0
H2161 H 0.03846 0.30135 0.21108 0.0
H2162 H 0.02531 0.30437 0.19484 0.0
H2163 H 0.02555 0.27408 0.19014 0.0
H2164 H 0.03918 0.27155 0.20613 0.0
H2165 H 0.04401 0.26422 0.18688 0.0
H2166 H 0.09444 0.29317 0.16745 0.0
H2167 H 0.10873 0.29266 0.1926 0.0
H2168 H 0.06473 0.2882 0.21781 0.0
C2169 C 0.03292 0.29618 0.16186 0.0
C2170 C 0.03585 0.30035 0.14605 0.0
C2171 C 0.05136 0.30018 0.14023 0.0
C2172 C 0.06394 0.29628 0.15005 0.0
C2173 C 0.06082 0.29276 0.16572 0.0
C2174 C 0.0457 0.29252 0.17164 0.0
C2175 C 0.04585 0.28979 0.1893 0.0
C2176 C 0.03786 0.30334 0.19821 0.0
C2177 C 0.03819 0.27396 0.19335 0.0
C2178 C 0.0634 0.28939 0.19243 0.0
C2179 C 0.07175 0.29082 0.17856 0.0
C2180 C 0.08805 0.29178 0.17835 0.0
C2181 C 0.09606 0.29156 0.19268 0.0
C2182 C 0.08781 0.29029 0.20704 0.0
C2183 C 0.07128 0.28892 0.20693 0.0
H2184 H 0.15544 0.1056 0.32996 0.0
H2185 H 0.13014 0.06728 0.30817 0.0
H2186 H 0.14495 0.0483 0.32402 0.0
H2187 H 0.19086 0.08962 0.32626 0.0
H2188 H 0.19974 0.09511 0.34462 0.0
H2189 H 0.18411 0.10673 0.33653 0.0
H2190 H 0.1675 0.10393 0.36131 0.0
H2191 H 0.18317 0.09287 0.37031 0.0
H2192 H 0.16366 0.08476 0.36941 0.0
H2193 H 0.16389 0.03321 0.339 0.0
H2194 H 0.18945 0.02273 0.34753 0.0
H2195 H 0.20578 0.06982 0.35732 0.0
C2196 C 0.15272 0.09323 0.32897 0.0
C2197 C 0.14103 0.08795 0.3184 0.0
C2198 C 0.13844 0.07164 0.31672 0.0
C2199 C 0.14683 0.06074 0.32568 0.0
C2200 C 0.15823 0.06623 0.33599 0.0
C2201 C 0.16153 0.08207 0.33742 0.0
C2202 C 0.1764 0.0845 0.34701 0.0
C2203 C 0.1885 0.09453 0.33806 0.0
C2204 C 0.17244 0.09196 0.36296 0.0
C2205 C 0.18175 0.06756 0.34917 0.0
C2206 C 0.17038 0.05729 0.34379 0.0
C2207 C 0.1727 0.04109 0.34364 0.0
C2208 C 0.18724 0.03522 0.34845 0.0
C2209 C 0.19933 0.04545 0.35326 0.0
C2210 C 0.19651 0.06181 0.35398 0.0
H2211 H 0.31159 0.91648 0.5687 0.0
H2212 H 0.27958 0.94931 0.54767 0.0
H2213 H 0.27144 0.93106 0.52763 0.0
H2214 H 0.33354 0.89424 0.53168 0.0
H2215 H 0.33699 0.88323 0.54752 0.0
H2216 H 0.33305 0.90417 0.5502 0.0
H2217 H 0.32088 0.87275 0.565 0.0
H2218 H 0.30303 0.88348 0.57141 0.0
H2219 H 0.32056 0.89201 0.57104 0.0
H2220 H 0.27688 0.8975 0.51557 0.0
H2221 H 0.25391 0.86544 0.52005 0.0
H2222 H 0.30819 0.85338 0.52679 0.0
C2223 C 0.30158 0.9183 0.56116 0.0
C2224 C 0.29591 0.93379 0.55936 0.0
C2225 C 0.28375 0.93731 0.54862 0.0
C2226 C 0.27885 0.92689 0.53706 0.0
C2227 C 0.28467 0.91166 0.5368 0.0
C2228 C 0.29718 0.9063 0.55059 0.0
C2229 C 0.31109 0.88977 0.54641 0.0
C2230 C 0.32943 0.89329 0.54396 0.0
C2231 C 0.31363 0.88354 0.56388 0.0
C2232 C 0.30537 0.88133 0.52578 0.0
C2233 C 0.28498 0.89861 0.51851 0.0
C2234 C 0.2673 0.88942 0.51622 0.0
C2235 C 0.26545 0.87043 0.52178 0.0
C2236 C 0.28004 0.85773 0.52587 0.0
C2237 C 0.29939 0.86256 0.52722 0.0
H2238 H 0.40589 0.05653 0.8506 0.0
H2239 H 0.36453 0.03436 0.83125 0.0
H2240 H 0.3798 0.01013 0.82623 0.0
H2241 H 0.43265 0.04198 0.82285 0.0
H2242 H 0.44846 0.03984 0.83659 0.0
H2243 H 0.43325 0.05406 0.84024 0.0
H2244 H 0.42895 0.04019 0.86741 0.0
H2245 H 0.44354 0.0256 0.86261 0.0
H2246 H 0.42392 0.01963 0.86782 0.0
H2247 H 0.39991 0.98921 0.82115 0.0
H2248 H 0.42374 0.97444 0.81354 0.0
H2249 H 0.45278 0.01084 0.83382 0.0
C2250 C 0.39999 0.04631 0.84588 0.0
C2251 C 0.38391 0.04707 0.84175 0.0
C2252 C 0.37671 0.03382 0.83485 0.0
C2253 C 0.38531 0.02003 0.83197 0.0
C2254 C 0.4012 0.01967 0.83594 0.0
C2255 C 0.40853 0.03249 0.84268 0.0
C2256 C 0.42611 0.0296 0.84418 0.0
C2257 C 0.43568 0.04216 0.83547 0.0
C2258 C 0.43091 0.0287 0.86154 0.0
C2259 C 0.42763 0.01366 0.83629 0.0
C2260 C 0.41302 0.00786 0.83224 0.0
C2261 C 0.41138 0.99355 0.82443 0.0
C2262 C 0.42497 0.98518 0.82024 0.0
C2263 C 0.44005 0.99133 0.82339 0.0
C2264 C 0.44137 0.00569 0.83166 0.0
H2265 H 0.3273 0.20513 0.04482 0.0
H2266 H 0.37697 0.21404 0.0512 0.0
H2267 H 0.37829 0.19215 0.07046 0.0
H2268 H 0.31815 0.19432 0.08506 0.0
H2269 H 0.30422 0.17988 0.07854 0.0
H2270 H 0.30814 0.19705 0.0668 0.0
H2271 H 0.31612 0.17702 0.04264 0.0
H2272 H 0.31095 0.16147 0.05603 0.0
H2273 H 0.33009 0.16201 0.04712 0.0
H2274 H 0.37333 0.16894 0.09 0.0
H2275 H 0.36306 0.14681 0.10601 0.0
H2276 H 0.31721 0.15313 0.08483 0.0
C2277 C 0.33847 0.20259 0.05031 0.0
C2278 C 0.35201 0.21142 0.04657 0.0
C2279 C 0.36643 0.20746 0.05387 0.0
C2280 C 0.36727 0.19505 0.06485 0.0
C2281 C 0.35364 0.18656 0.06821 0.0
C2282 C 0.33958 0.19014 0.06097 0.0
C2283 C 0.32667 0.17912 0.06608 0.0
C2284 C 0.31349 0.18811 0.07457 0.0
C2285 C 0.32055 0.16938 0.05216 0.0
C2286 C 0.33548 0.16879 0.07742 0.0
C2287 C 0.35102 0.17321 0.07868 0.0
C2288 C 0.36119 0.16539 0.08892 0.0
C2289 C 0.35525 0.15284 0.09799 0.0
C2290 C 0.33935 0.14808 0.09659 0.0
C2291 C 0.32948 0.15624 0.08608 0.0
H2292 H 0.2241 0.07414 0.29843 0.0
H2293 H 0.22022 0.08953 0.2501 0.0
H2294 H 0.19918 0.06995 0.24567 0.0
H2295 H 0.21506 0.03142 0.29077 0.0
H2296 H 0.20451 0.02997 0.30907 0.0
H2297 H 0.22095 0.04315 0.30736 0.0
H2298 H 0.20339 0.06591 0.3166 0.0
H2299 H 0.18688 0.05296 0.31765 0.0
H2300 H 0.18555 0.07044 0.30591 0.0
H2301 H 0.17595 0.05054 0.24782 0.0
H2302 H 0.15343 0.03407 0.25648 0.0
H2303 H 0.17271 0.03255 0.30345 0.0
C2304 C 0.21915 0.07312 0.28678 0.0
C2305 C 0.22384 0.08336 0.27463 0.0
C2306 C 0.21693 0.08171 0.25958 0.0
C2307 C 0.20496 0.0706 0.25695 0.0
C2308 C 0.20028 0.06097 0.26938 0.0
C2309 C 0.20743 0.06198 0.28391 0.0
C2310 C 0.19955 0.0514 0.29575 0.0
C2311 C 0.21068 0.0382 0.30104 0.0
C2312 C 0.1935 0.06083 0.3098 0.0
C2313 C 0.18617 0.04502 0.28603 0.0
C2314 C 0.18696 0.05024 0.27069 0.0
C2315 C 0.17537 0.04627 0.25977 0.0
C2316 C 0.16262 0.03694 0.26476 0.0
C2317 C 0.16136 0.03213 0.28061 0.0
C2318 C 0.17341 0.03609 0.29125 0.0
H2319 H 0.2561 0.90892 0.53175 0.0
H2320 H 0.22744 0.89961 0.57099 0.0
H2321 H 0.24534 0.87953 0.57977 0.0
H2322 H 0.27984 0.86909 0.49793 0.0
H2323 H 0.29726 0.88131 0.49864 0.0
H2324 H 0.27984 0.86909 0.49793 0.0
H2325 H 0.30435 0.91743 0.51792 0.0
H2326 H 0.3168 0.90348 0.51595 0.0
H2327 H 0.31582 0.91565 0.53286 0.0
H2328 H 0.25918 0.85892 0.58254 0.0
H2329 H 0.27947 0.8415 0.59031 0.0
H2330 H 0.30805 0.85572 0.55234 0.0
C2331 C 0.25488 0.90192 0.54211 0.0
C2332 C 0.24102 0.90541 0.55041 0.0
C2333 C 0.23787 0.89719 0.56412 0.0
C2334 C 0.2482 0.8856 0.56903 0.0
C2335 C 0.2618 0.88209 0.56015 0.0
C2336 C 0.26637 0.89008 0.5468 0.0
C2337 C 0.28412 0.88374 0.53868 0.0
C2338 C 0.28824 0.87516 0.5061 0.0
C2339 C 0.30858 0.90739 0.52557 0.0
C2340 C 0.28562 0.86999 0.55369 0.0
C2341 C 0.27252 0.87002 0.56368 0.0
C2342 C 0.26988 0.85915 0.57577 0.0
C2343 C 0.28143 0.84879 0.58006 0.0
C2344 C 0.29565 0.84855 0.57205 0.0
C2345 C 0.29689 0.85743 0.55799 0.0
H2346 H 0.44604 0.08048 0.81128 0.0
H2347 H 0.47744 0.04082 0.80543 0.0
H2348 H 0.45746 0.02722 0.7896 0.0
H2349 H 0.41146 0.0589 0.81713 0.0
H2350 H 0.39908 0.07224 0.80656 0.0
H2351 H 0.41689 0.07929 0.81543 0.0
H2352 H 0.42476 0.09005 0.78772 0.0
H2353 H 0.40714 0.0819 0.77932 0.0
H2354 H 0.42605 0.07663 0.7714 0.0
H2355 H 0.4338 0.01666 0.77687 0.0
H2356 H 0.40715 0.00936 0.76822 0.0
H2357 H 0.38955 0.05458 0.78364 0.0
C2358 C 0.44887 0.06924 0.80604 0.0
C2359 C 0.46345 0.06184 0.8092 0.0
C2360 C 0.4665 0.04679 0.80286 0.0
C2361 C 0.45521 0.03899 0.79384 0.0
C2362 C 0.44082 0.04632 0.79127 0.0
C2363 C 0.43754 0.06113 0.79711 0.0
C2364 C 0.42046 0.06549 0.79394 0.0
C2365 C 0.41149 0.0692 0.80919 0.0
C2366 C 0.41955 0.07934 0.78241 0.0
C2367 C 0.41453 0.05044 0.78635 0.0
C2368 C 0.42666 0.03979 0.78453 0.0
C2369 C 0.42426 0.02497 0.77804 0.0
C2370 C 0.4091 0.02092 0.77318 0.0
C2371 C 0.39642 0.03144 0.77517 0.0
C2372 C 0.39912 0.0464 0.78189 0.0
H2373 H 0.27494 0.21612 0.06322 0.0
H2374 H 0.27243 0.19184 0.10778 0.0
H2375 H 0.27102 0.16643 0.09405 0.0
H2376 H 0.24769 0.18328 0.04265 0.0
H2377 H 0.25772 0.18639 0.02428 0.0
H2378 H 0.25413 0.2027 0.03731 0.0
H2379 H 0.28313 0.20914 0.03625 0.0
H2380 H 0.28771 0.19239 0.02428 0.0
H2381 H 0.29741 0.19522 0.04277 0.0
H2382 H 0.27678 0.14437 0.07675 0.0
H2383 H 0.28715 0.12654 0.05643 0.0
H2384 H 0.28447 0.16391 0.02205 0.0
C2385 C 0.27331 0.20544 0.06993 0.0
C2386 C 0.27358 0.20579 0.08654 0.0
C2387 C 0.27194 0.19169 0.09508 0.0
C2388 C 0.27108 0.17723 0.08736 0.0
C2389 C 0.27142 0.17709 0.07101 0.0
C2390 C 0.2719 0.19082 0.06229 0.0
C2391 C 0.2731 0.18704 0.04484 0.0
C2392 C 0.25722 0.19002 0.0368 0.0
C2393 C 0.28613 0.19645 0.03657 0.0
C2394 C 0.27641 0.16946 0.04555 0.0
C2395 C 0.27439 0.1639 0.06069 0.0
C2396 C 0.27783 0.14841 0.06475 0.0
C2397 C 0.28373 0.13836 0.05317 0.0
C2398 C 0.28618 0.14377 0.0377 0.0
C2399 C 0.28216 0.15942 0.03372 0.0
H2400 H 0.82946 0.42437 0.99637 0.0
H2401 H 0.82937 0.46817 0.02218 0.0
H2402 H 0.84061 0.45464 0.04522 0.0
H2403 H 0.81646 0.40034 0.02621 0.0
H2404 H 0.82863 0.38378 0.02152 0.0
H2405 H 0.82341 0.39761 0.00642 0.0
H2406 H 0.85327 0.4014 0.00074 0.0
H2407 H 0.85809 0.38792 0.01635 0.0
H2408 H 0.86609 0.4075 0.01641 0.0
H2409 H 0.84601 0.43608 0.0669 0.0
H2410 H 0.84806 0.41365 0.08516 0.0
H2411 H 0.84539 0.38131 0.04601 0.0
C2412 C 0.83248 0.43115 0.00668 0.0
C2413 C 0.82901 0.44739 0.00742 0.0
C2414 C 0.83232 0.45582 0.02132 0.0
C2415 C 0.83852 0.4482 0.0345 0.0
C2416 C 0.84114 0.43207 0.03373 0.0
C2417 C 0.8385 0.42362 0.02012 0.0
C2418 C 0.84122 0.40618 0.02293 0.0
C2419 C 0.82656 0.39642 0.01901 0.0
C2420 C 0.85552 0.40041 0.01355 0.0
C2421 C 0.84461 0.40611 0.04045 0.0
C2422 C 0.84481 0.42123 0.04634 0.0
C2423 C 0.84632 0.42421 0.06236 0.0
C2424 C 0.84741 0.41142 0.07266 0.0
C2425 C 0.84715 0.39584 0.06694 0.0
C2426 C 0.84602 0.39315 0.0506 0.0
H2427 H 0.89104 0.50351 0.28442 0.0
H2428 H 0.84386 0.51993 0.29438 0.0
H2429 H 0.85465 0.53883 0.31372 0.0
H2430 H 0.90518 0.50556 0.32414 0.0
H2431 H 0.9246 0.51192 0.31866 0.0
H2432 H 0.91334 0.49985 0.30546 0.0
H2433 H 0.91662 0.52043 0.28361 0.0
H2434 H 0.9279 0.53271 0.29661 0.0
H2435 H 0.91066 0.54032 0.28717 0.0
H2436 H 0.87023 0.55096 0.33618 0.0
H2437 H 0.89009 0.56463 0.35232 0.0
H2438 H 0.92714 0.54405 0.32426 0.0
C2439 C 0.88299 0.51118 0.2906 0.0
C2440 C 0.86661 0.51025 0.28806 0.0
C2441 C 0.85643 0.52056 0.29615 0.0
C2442 C 0.86242 0.53105 0.30736 0.0
C2443 C 0.87855 0.53094 0.31029 0.0
C2444 C 0.88876 0.52171 0.30172 0.0
C2445 C 0.90567 0.52441 0.30656 0.0
C2446 C 0.9126 0.50955 0.31416 0.0
C2447 C 0.91583 0.52979 0.29266 0.0
C2448 C 0.90341 0.53722 0.31867 0.0
C2449 C 0.88764 0.53996 0.3214 0.0
C2450 C 0.88258 0.54931 0.3338 0.0
C2451 C 0.89391 0.55698 0.34291 0.0
C2452 C 0.90998 0.55582 0.33901 0.0
C2453 C 0.91485 0.54553 0.32702 0.0
H2454 H 0.81137 0.66009 0.54524 0.0
H2455 H 0.85197 0.6894 0.54735 0.0
H2456 H 0.83655 0.70989 0.55977 0.0
H2457 H 0.77031 0.69706 0.5071 0.0
H2458 H 0.76155 0.67874 0.51141 0.0
H2459 H 0.77962 0.68068 0.50452 0.0
H2460 H 0.78957 0.66275 0.56045 0.0
H2461 H 0.7718 0.67034 0.56532 0.0
H2462 H 0.78842 0.67797 0.57461 0.0
H2463 H 0.81998 0.72457 0.57394 0.0
H2464 H 0.80011 0.73627 0.59047 0.0
H2465 H 0.76472 0.71501 0.5643 0.0
C2466 C 0.81603 0.67169 0.54663 0.0
C2467 C 0.83218 0.67368 0.54375 0.0
C2468 C 0.83952 0.68746 0.54905 0.0
C2469 C 0.83069 0.69936 0.55581 0.0
C2470 C 0.81435 0.6979 0.55614 0.0
C2471 C 0.80643 0.68483 0.55083 0.0
C2472 C 0.78716 0.68733 0.5494 0.0
C2473 C 0.77222 0.68604 0.51419 0.0
C2474 C 0.78384 0.6742 0.56296 0.0
C2475 C 0.78815 0.70401 0.55977 0.0
C2476 C 0.8036 0.70888 0.56229 0.0
C2477 C 0.80785 0.72141 0.57202 0.0
C2478 C 0.79648 0.72839 0.58127 0.0
C2479 C 0.78079 0.72396 0.57978 0.0
C2480 C 0.77667 0.71387 0.5674 0.0
H2481 H 0.91469 0.5612 0.25613 0.0
H2482 H 0.9493 0.56891 0.29252 0.0
H2483 H 0.92881 0.57989 0.30974 0.0
H2484 H 0.88899 0.59581 0.26709 0.0
H2485 H 0.87117 0.58527 0.26282 0.0
H2486 H 0.88883 0.58109 0.25188 0.0
H2487 H 0.88663 0.5519 0.25943 0.0
H2488 H 0.86895 0.55596 0.27009 0.0
H2489 H 0.88502 0.54636 0.27977 0.0
H2490 H 0.9043 0.58802 0.32397 0.0
H2491 H 0.87789 0.58747 0.33582 0.0
H2492 H 0.85855 0.5728 0.29107 0.0
C2493 C 0.91781 0.56495 0.26783 0.0
C2494 C 0.93343 0.56378 0.27323 0.0
C2495 C 0.93734 0.56962 0.28826 0.0
C2496 C 0.92579 0.57593 0.2981 0.0
C2497 C 0.91037 0.57641 0.29275 0.0
C2498 C 0.9063 0.57106 0.27796 0.0
C2499 C 0.88863 0.57153 0.27574 0.0
C2500 C 0.88415 0.58418 0.26367 0.0
C2501 C 0.88195 0.55546 0.27101 0.0
C2502 C 0.88347 0.57628 0.29209 0.0
C2503 C 0.89617 0.57996 0.3014 0.0
C2504 C 0.89434 0.58464 0.31695 0.0
C2505 C 0.87926 0.58436 0.32356 0.0
C2506 C 0.86616 0.57983 0.31452 0.0
C2507 C 0.86833 0.57618 0.29843 0.0
H2508 H 0.72475 0.52087 0.77004 0.0
H2509 H 0.71995 0.50813 0.81885 0.0
H2510 H 0.69256 0.5185 0.81873 0.0
H2511 H 0.70353 0.55897 0.77215 0.0
H2512 H 0.69635 0.55557 0.75259 0.0
H2513 H 0.71478 0.54725 0.75855 0.0
H2514 H 0.70249 0.52032 0.74922 0.0
H2515 H 0.68372 0.52937 0.74563 0.0
H2516 H 0.6852 0.51309 0.75907 0.0
H2517 H 0.66673 0.53287 0.81426 0.0
H2518 H 0.64356 0.54753 0.8043 0.0
H2519 H 0.66566 0.55073 0.75869 0.0
C2520 C 0.71822 0.52076 0.78094 0.0
C2521 C 0.72442 0.51349 0.79458 0.0
C2522 C 0.71531 0.51352 0.80839 0.0
C2523 C 0.69992 0.51955 0.80846 0.0
C2524 C 0.69425 0.5268 0.79499 0.0
C2525 C 0.70317 0.5275 0.78147 0.0
C2526 C 0.69413 0.53538 0.76833 0.0
C2527 C 0.70272 0.55017 0.76258 0.0
C2528 C 0.69121 0.52385 0.75476 0.0
C2529 C 0.67896 0.53946 0.77678 0.0
C2530 C 0.67918 0.53434 0.79215 0.0
C2531 C 0.66649 0.53699 0.80225 0.0
C2532 C 0.65337 0.5453 0.79652 0.0
C2533 C 0.65295 0.55061 0.78079 0.0
C2534 C 0.66583 0.54736 0.77083 0.0
H2535 H 0.79196 0.45022 0.04672 0.0
H2536 H 0.8168 0.43083 0.08666 0.0
H2537 H 0.8109 0.40399 0.07751 0.0
H2538 H 0.76059 0.42034 0.04861 0.0
H2539 H 0.75792 0.41995 0.02763 0.0
H2540 H 0.76443 0.43769 0.03711 0.0
H2541 H 0.78825 0.43849 0.01877 0.0
H2542 H 0.78252 0.42044 0.00938 0.0
H2543 H 0.80167 0.42222 0.01809 0.0
H2544 H 0.80423 0.37947 0.06314 0.0
H2545 H 0.79352 0.35831 0.04645 0.0
H2546 H 0.77052 0.3931 0.01719 0.0
C2547 C 0.79606 0.44028 0.05348 0.0
C2548 C 0.80488 0.44246 0.06731 0.0
C2549 C 0.80994 0.42928 0.07607 0.0
C2550 C 0.80674 0.41403 0.07092 0.0
C2551 C 0.79811 0.41217 0.05721 0.0
C2552 C 0.79246 0.42489 0.0488 0.0
C2553 C 0.7825 0.41948 0.03508 0.0
C2554 C 0.76534 0.42467 0.03725 0.0
C2555 C 0.78915 0.42549 0.0194 0.0
C2556 C 0.78411 0.40178 0.0367 0.0
C2557 C 0.7932 0.39787 0.04955 0.0
C2558 C 0.79688 0.38233 0.05319 0.0
C2559 C 0.79088 0.37041 0.04358 0.0
C2560 C 0.78121 0.3741 0.0306 0.0
C2561 C 0.77776 0.38999 0.02716 0.0
H2562 H 0.75217 0.65549 0.54363 0.0
H2563 H 0.79334 0.63185 0.52591 0.0
H2564 H 0.80504 0.65611 0.51546 0.0
H2565 H 0.74884 0.70266 0.51726 0.0
H2566 H 0.73899 0.70553 0.5339 0.0
H2567 H 0.73957 0.68588 0.52631 0.0
H2568 H 0.74569 0.68142 0.55457 0.0
H2569 H 0.74543 0.70185 0.55712 0.0
H2570 H 0.76 0.69077 0.56561 0.0
H2571 H 0.8186 0.6931 0.5146 0.0
H2572 H 0.82033 0.7219 0.51405 0.0
H2573 H 0.77284 0.72884 0.53227 0.0
C2574 C 0.76394 0.65616 0.53911 0.0
C2575 C 0.77329 0.64261 0.5375 0.0
C2576 C 0.78737 0.64284 0.52827 0.0
C2577 C 0.79461 0.6567 0.5226 0.0
C2578 C 0.78911 0.67105 0.52802 0.0
C2579 C 0.77059 0.67065 0.53583 0.0
C2580 C 0.76224 0.69203 0.53851 0.0
C2581 C 0.74678 0.69654 0.52849 0.0
C2582 C 0.75344 0.6918 0.55475 0.0
C2583 C 0.78031 0.70522 0.53072 0.0
C2584 C 0.79543 0.69312 0.52447 0.0
C2585 C 0.8088 0.70015 0.51857 0.0
C2586 C 0.80957 0.71674 0.51844 0.0
C2587 C 0.79696 0.72692 0.52298 0.0
C2588 C 0.78237 0.72114 0.5289 0.0
H2589 H 0.67087 0.56012 0.83591 0.0
H2590 H 0.70876 0.5287 0.84851 0.0
H2591 H 0.7257 0.54064 0.82886 0.0
H2592 H 0.67429 0.58874 0.79773 0.0
H2593 H 0.66543 0.5751 0.81124 0.0
H2594 H 0.67708 0.56818 0.79485 0.0
H2595 H 0.68061 0.59218 0.83271 0.0
H2596 H 0.69044 0.6033 0.8176 0.0
H2597 H 0.70176 0.59271 0.83199 0.0
H2598 H 0.73588 0.55124 0.80279 0.0
H2599 H 0.74385 0.56866 0.78087 0.0
H2600 H 0.70307 0.59765 0.78995 0.0
C2601 C 0.68272 0.55574 0.83447 0.0
C2602 C 0.68785 0.54219 0.84271 0.0
C2603 C 0.70382 0.53775 0.84138 0.0
C2604 C 0.71376 0.54475 0.83034 0.0
C2605 C 0.70776 0.55667 0.82102 0.0
C2606 C 0.69307 0.56302 0.82378 0.0
C2607 C 0.69087 0.57782 0.81402 0.0
C2608 C 0.67598 0.57738 0.80393 0.0
C2609 C 0.69093 0.59236 0.82472 0.0
C2610 C 0.70555 0.57722 0.80389 0.0
C2611 C 0.7151 0.56487 0.80807 0.0
C2612 C 0.72871 0.56126 0.79967 0.0
C2613 C 0.73299 0.57103 0.78707 0.0
C2614 C 0.72371 0.58422 0.78297 0.0
C2615 C 0.70993 0.58731 0.79171 0.0
H2616 H 0.99567 0.41923 0.22276 0.0
H2617 H 0.958 0.39742 0.24903 0.0
H2618 H 0.94377 0.42273 0.24977 0.0
H2619 H 0.99767 0.45135 0.24537 0.0
H2620 H 0.0023 0.46529 0.23012 0.0
H2621 H 0.00733 0.44498 0.22764 0.0
H2622 H 0.99159 0.44405 0.20164 0.0
H2623 H 0.98658 0.4645 0.20398 0.0
H2624 H 0.9713 0.45009 0.20149 0.0
H2625 H 0.93556 0.45089 0.251 0.0
H2626 H 0.93537 0.47972 0.25488 0.0
H2627 H 0.97967 0.48322 0.23006 0.0
C2628 C 0.98412 0.41971 0.22807 0.0
C2629 C 0.97773 0.40647 0.23559 0.0
C2630 C 0.96293 0.40751 0.24306 0.0
C2631 C 0.95475 0.42178 0.24344 0.0
C2632 C 0.96163 0.43487 0.23642 0.0
C2633 C 0.97603 0.43396 0.22891 0.0
C2634 C 0.98222 0.45008 0.2248 0.0
C2635 C 0.99832 0.45309 0.23245 0.0
C2636 C 0.98296 0.45231 0.20691 0.0
C2637 C 0.96953 0.4602 0.232 0.0
C2638 C 0.95744 0.45125 0.23808 0.0
C2639 C 0.94486 0.45803 0.24611 0.0
C2640 C 0.94486 0.47436 0.24831 0.0
C2641 C 0.9576 0.48351 0.24292 0.0
C2642 C 0.96984 0.47639 0.23436 0.0
H2643 H 0.9259 0.81627 0.49344 0.0
H2644 H 0.9132 0.83402 0.44754 0.0
H2645 H 0.88516 0.82877 0.45343 0.0
H2646 H 0.90375 0.78456 0.49153 0.0
H2647 H 0.89804 0.78352 0.51189 0.0
H2648 H 0.91609 0.79297 0.5065 0.0
H2649 H 0.90746 0.81874 0.52018 0.0
H2650 H 0.88958 0.8092 0.52625 0.0
H2651 H 0.88873 0.82737 0.51543 0.0
H2652 H 0.85956 0.81655 0.46241 0.0
H2653 H 0.83835 0.80068 0.47456 0.0
H2654 H 0.86891 0.78917 0.51344 0.0
C2655 C 0.91711 0.8198 0.48494 0.0
C2656 C 0.92154 0.82567 0.47013 0.0
C2657 C 0.90991 0.82983 0.45909 0.0
C2658 C 0.89401 0.82673 0.46231 0.0
C2659 C 0.89016 0.81963 0.47661 0.0
C2660 C 0.90141 0.81652 0.48788 0.0
C2661 C 0.89493 0.80678 0.50123 0.0
C2662 C 0.90373 0.79104 0.50286 0.0
C2663 C 0.89519 0.81608 0.51669 0.0
C2664 C 0.87841 0.80432 0.4955 0.0
C2665 C 0.87574 0.812 0.48141 0.0
C2666 C 0.86149 0.81068 0.47351 0.0
C2667 C 0.84962 0.80152 0.48035 0.0
C2668 C 0.85231 0.7936 0.49468 0.0
C2669 C 0.86679 0.79503 0.50235 0.0
H2670 H 0.59772 0.63328 0.7515 0.0
H2671 H 0.63673 0.63656 0.78404 0.0
H2672 H 0.63306 0.66539 0.78534 0.0
H2673 H 0.60671 0.66883 0.73016 0.0
H2674 H 0.58637 0.67381 0.72716 0.0
H2675 H 0.59214 0.65354 0.72895 0.0
H2676 H 0.57228 0.64997 0.75175 0.0
H2677 H 0.56657 0.67028 0.75016 0.0
H2678 H 0.57345 0.66264 0.76866 0.0
H2679 H 0.62429 0.69352 0.7839 0.0
H2680 H 0.61315 0.71948 0.77767 0.0
H2681 H 0.58051 0.69776 0.74515 0.0
C2682 C 0.60552 0.64007 0.75889 0.0
C2683 C 0.61743 0.63276 0.76779 0.0
C2684 C 0.62754 0.642 0.77715 0.0
C2685 C 0.62549 0.65832 0.77801 0.0
C2686 C 0.61342 0.66513 0.76928 0.0
C2687 C 0.60377 0.65632 0.75971 0.0
C2688 C 0.59198 0.6665 0.75117 0.0
C2689 C 0.59446 0.66562 0.7333 0.0
C2690 C 0.57507 0.66208 0.75572 0.0
C2691 C 0.59639 0.68245 0.75754 0.0
C2692 C 0.60869 0.68137 0.76807 0.0
C2693 C 0.61473 0.69452 0.77561 0.0
C2694 C 0.60826 0.7092 0.77203 0.0
C2695 C 0.59597 0.71062 0.76091 0.0
C2696 C 0.58988 0.69703 0.75371 0.0
H2697 H 0.70058 0.33505 0.97957 0.0
H2698 H 0.70196 0.37866 0.00592 0.0
H2699 H 0.67381 0.38275 0.00075 0.0
H2700 H 0.67184 0.34895 0.94968 0.0
H2701 H 0.66242 0.33004 0.94861 0.0
H2702 H 0.68307 0.33131 0.953 0.0
H2703 H 0.6786 0.31526 0.97848 0.0
H2704 H 0.65796 0.31403 0.97425 0.0
H2705 H 0.66446 0.32208 0.9927 0.0
H2706 H 0.64529 0.38021 0.99616 0.0
H2707 H 0.61808 0.37252 0.98995 0.0
H2708 H 0.6353 0.33155 0.96502 0.0
C2709 C 0.69499 0.34558 0.98401 0.0
C2710 C 0.70333 0.35651 0.99319 0.0
C2711 C 0.69572 0.37016 0.99883 0.0
C2712 C 0.67976 0.3726 0.99596 0.0
C2713 C 0.67176 0.36142 0.98718 0.0
C2714 C 0.67913 0.34832 0.98103 0.0
C2715 C 0.66764 0.33781 0.97253 0.0
C2716 C 0.67147 0.33698 0.95491 0.0
C2717 C 0.66714 0.32133 0.97994 0.0
C2718 C 0.65258 0.34673 0.97545 0.0
C2719 C 0.65525 0.36032 0.9839 0.0
C2720 C 0.64305 0.3698 0.98924 0.0
C2721 C 0.62768 0.36528 0.98578 0.0
C2722 C 0.62476 0.35153 0.97696 0.0
C2723 C 0.63734 0.34225 0.97158 0.0
H2724 H 0.97967 0.6288 0.33464 0.0
H2725 H 0.93667 0.63646 0.30864 0.0
H2726 H 0.94573 0.66334 0.30186 0.0
H2727 H 0.97939 0.66281 0.35333 0.0
H2728 H 0.00027 0.6662 0.35351 0.0
H2729 H 0.9929 0.64651 0.35236 0.0
H2730 H 0.00856 0.64163 0.32673 0.0
H2731 H 0.01638 0.66126 0.32798 0.0
H2732 H 0.00639 0.65497 0.31044 0.0
H2733 H 0.95753 0.69069 0.30217 0.0
H2734 H 0.97055 0.71562 0.30936 0.0
H2735 H 0.00444 0.6899 0.33726 0.0
C2736 C 0.9724 0.63592 0.327 0.0
C2737 C 0.95752 0.63065 0.32208 0.0
C2738 C 0.94822 0.64027 0.31229 0.0
C2739 C 0.95328 0.65554 0.30846 0.0
C2740 C 0.96766 0.66076 0.31442 0.0
C2741 C 0.97716 0.65109 0.32333 0.0
C2742 C 0.99084 0.6599 0.3304 0.0
C2743 C 0.99083 0.65879 0.34846 0.0
C2744 C 0.00646 0.65409 0.32347 0.0
C2745 C 0.9871 0.6763 0.32489 0.0
C2746 C 0.97401 0.67654 0.31528 0.0
C2747 C 0.96792 0.69056 0.30946 0.0
C2748 C 0.97535 0.70465 0.31366 0.0
C2749 C 0.98843 0.70458 0.3239 0.0
C2750 C 0.99444 0.69023 0.32943 0.0
H2751 H 0.68902 0.73978 0.59139 0.0
H2752 H 0.70586 0.7654 0.63204 0.0
H2753 H 0.67967 0.77684 0.63594 0.0
H2754 H 0.66026 0.76999 0.5777 0.0
H2755 H 0.646 0.75535 0.57226 0.0
H2756 H 0.66666 0.75091 0.57112 0.0
H2757 H 0.66244 0.72666 0.58904 0.0
H2758 H 0.64183 0.73106 0.59027 0.0
H2759 H 0.65328 0.72922 0.60796 0.0
H2760 H 0.65144 0.7829 0.63769 0.0
H2761 H 0.62238 0.78335 0.63668 0.0
H2762 H 0.62352 0.75412 0.59506 0.0
C2763 C 0.68721 0.7481 0.60083 0.0
C2764 C 0.69936 0.75173 0.61141 0.0
C2765 C 0.69661 0.7624 0.62387 0.0
C2766 C 0.68182 0.76906 0.62613 0.0
C2767 C 0.66991 0.76494 0.61582 0.0
C2768 C 0.67239 0.75477 0.60337 0.0
C2769 C 0.65716 0.75117 0.59501 0.0
C2770 C 0.65755 0.75723 0.57801 0.0
C2771 C 0.65347 0.73348 0.59562 0.0
C2772 C 0.6458 0.76055 0.60497 0.0
C2773 C 0.65343 0.76853 0.61682 0.0
C2774 C 0.64531 0.77696 0.62829 0.0
C2775 C 0.62889 0.77712 0.6277 0.0
C2776 C 0.62095 0.76883 0.61579 0.0
C2777 C 0.62947 0.76074 0.60413 0.0
H2778 H 0.60413 0.39816 0.83775 0.0
H2779 H 0.62983 0.38779 0.79495 0.0
H2780 H 0.64469 0.41243 0.79783 0.0
H2781 H 0.6019 0.44091 0.83183 0.0
H2782 H 0.60436 0.44489 0.85246 0.0
H2783 H 0.59501 0.42699 0.84622 0.0
H2784 H 0.61515 0.41105 0.86246 0.0
H2785 H 0.62488 0.42881 0.86842 0.0
H2786 H 0.63583 0.4135 0.85872 0.0
H2787 H 0.65856 0.43701 0.80675 0.0
H2788 H 0.66765 0.46171 0.8192 0.0
H2789 H 0.63246 0.45598 0.85563 0.0
C2790 C 0.61256 0.40129 0.82876 0.0
C2791 C 0.61579 0.3911 0.81612 0.0
C2792 C 0.62713 0.39547 0.80473 0.0
C2793 C 0.6357 0.40939 0.80629 0.0
C2794 C 0.63272 0.41887 0.81924 0.0
C2795 C 0.62122 0.41516 0.83012 0.0
C2796 C 0.62054 0.42719 0.84313 0.0
C2797 C 0.6045 0.43549 0.84342 0.0
C2798 C 0.62433 0.41968 0.85912 0.0
C2799 C 0.63347 0.43816 0.8379 0.0
C2800 C 0.64049 0.43312 0.82419 0.0
C2801 C 0.65303 0.4412 0.81739 0.0
C2802 C 0.65818 0.45512 0.82457 0.0
C2803 C 0.65064 0.46077 0.83824 0.0
C2804 C 0.63834 0.45201 0.84507 0.0
H2805 H 0.96027 0.29433 0.07615 0.0
H2806 H 0.95683 0.27324 0.12216 0.0
H2807 H 0.92842 0.27835 0.12242 0.0
H2808 H 0.94304 0.32509 0.08491 0.0
H2809 H 0.93199 0.32937 0.06738 0.0
H2810 H 0.94923 0.31743 0.06615 0.0
H2811 H 0.9338 0.29456 0.05361 0.0
H2812 H 0.91645 0.30671 0.05388 0.0
H2813 H 0.9161 0.28753 0.06283 0.0
H2814 H 0.90394 0.29387 0.1222 0.0
H2815 H 0.88444 0.31519 0.11991 0.0
H2816 H 0.90462 0.32899 0.07527 0.0
C2817 C 0.95323 0.28971 0.08569 0.0
C2818 C 0.96061 0.28349 0.09913 0.0
C2819 C 0.95133 0.27783 0.11165 0.0
C2820 C 0.93515 0.2809 0.11195 0.0
C2821 C 0.92857 0.28936 0.09953 0.0
C2822 C 0.93725 0.29328 0.08633 0.0
C2823 C 0.92879 0.30538 0.07635 0.0
C2824 C 0.93887 0.32017 0.07357 0.0
C2825 C 0.92346 0.2981 0.06074 0.0
C2826 C 0.91489 0.3089 0.08679 0.0
C2827 C 0.91462 0.29911 0.09977 0.0
C2828 C 0.90378 0.30124 0.11185 0.0
C2829 C 0.89288 0.31351 0.11054 0.0
C2830 C 0.89317 0.32376 0.09746 0.0
C2831 C 0.90422 0.32132 0.0854 0.0
H2832 H 0.24811 0.94811 0.46991 0.0
H2833 H 0.2475 0.98749 0.50198 0.0
H2834 H 0.25246 0.00566 0.48006 0.0
H2835 H 0.2776 0.96616 0.44006 0.0
H2836 H 0.26677 0.95776 0.42397 0.0
H2837 H 0.26788 0.94752 0.44247 0.0
H2838 H 0.23753 0.94643 0.4434 0.0
H2839 H 0.23625 0.95701 0.42521 0.0
H2840 H 0.22646 0.96446 0.44243 0.0
H2841 H 0.24973 0.01957 0.45521 0.0
H2842 H 0.24368 0.02853 0.42827 0.0
H2843 H 0.24731 0.98067 0.41146 0.0
C2844 C 0.25001 0.96045 0.47229 0.0
C2845 C 0.24777 0.96652 0.48749 0.0
C2846 C 0.24946 0.98276 0.49034 0.0
C2847 C 0.25227 0.99313 0.47798 0.0
C2848 C 0.25341 0.987 0.46289 0.0
C2849 C 0.25274 0.971 0.45997 0.0
C2850 C 0.25202 0.96775 0.44249 0.0
C2851 C 0.26696 0.9593 0.43692 0.0
C2852 C 0.23719 0.95837 0.43815 0.0
C2853 C 0.25129 0.98437 0.4362 0.0
C2854 C 0.25225 0.99528 0.44818 0.0
C2855 C 0.24956 0.01123 0.44563 0.0
C2856 C 0.24595 0.01619 0.43041 0.0
C2857 C 0.24527 0.00525 0.41802 0.0
C2858 C 0.24817 0.98921 0.42084 0.0
H2859 H 0.32307 0.96664 0.64166 0.0
H2860 H 0.35552 0.99437 0.61388 0.0
H2861 H 0.36818 0.00399 0.63799 0.0
H2862 H 0.31656 0.99529 0.67002 0.0
H2863 H 0.31528 0.98206 0.6865 0.0
H2864 H 0.31026 0.97529 0.66715 0.0
H2865 H 0.33057 0.95272 0.66957 0.0
H2866 H 0.33558 0.95937 0.68901 0.0
H2867 H 0.35067 0.95727 0.67432 0.0
H2868 H 0.37608 0.01213 0.66467 0.0
H2869 H 0.37796 0.01921 0.69275 0.0
H2870 H 0.33947 0.98753 0.70325 0.0
C2871 C 0.33307 0.97443 0.64074 0.0
C2872 C 0.33841 0.97976 0.62605 0.0
C2873 C 0.35127 0.99024 0.62514 0.0
C2874 C 0.3586 0.99567 0.63872 0.0
C2875 C 0.35285 0.99058 0.6531 0.0
C2876 C 0.34037 0.98023 0.65426 0.0
C2877 C 0.33554 0.97789 0.67118 0.0
C2878 C 0.3184 0.98294 0.67386 0.0
C2879 C 0.33826 0.96079 0.67632 0.0
C2880 C 0.34691 0.98891 0.6792 0.0
C2881 C 0.35701 0.99583 0.66859 0.0
C2882 C 0.36833 0.00672 0.67315 0.0
C2883 C 0.36929 0.01069 0.68906 0.0
C2884 C 0.35879 0.00398 0.70002 0.0
C2885 C 0.34756 0.9929 0.69504 0.0
H2886 H 0.29214 0.07556 0.96014 0.0
H2887 H 0.27401 0.12269 0.95458 0.0
H2888 H 0.28378 0.12321 0.92739 0.0
H2889 H 0.32593 0.0824 0.9466 0.0
H2890 H 0.33006 0.06458 0.93594 0.0
H2891 H 0.31625 0.0643 0.95184 0.0
H2892 H 0.29434 0.05344 0.93394 0.0
H2893 H 0.30828 0.05273 0.91801 0.0
H2894 H 0.29 0.06312 0.91563 0.0
H2895 H 0.30272 0.12232 0.90553 0.0
H2896 H 0.32499 0.11805 0.88769 0.0
H2897 H 0.33234 0.07172 0.90765 0.0
C2898 C 0.28921 0.08549 0.95274 0.0
C2899 C 0.28235 0.09907 0.95935 0.0
C2900 C 0.279 0.11208 0.94964 0.0
C2901 C 0.28473 0.11253 0.93421 0.0
C2902 C 0.29342 0.09974 0.92872 0.0
C2903 C 0.29516 0.08617 0.93748 0.0
C2904 C 0.30732 0.07529 0.93026 0.0
C2905 C 0.32066 0.07144 0.94185 0.0
C2906 C 0.29952 0.06025 0.92408 0.0
C2907 C 0.31311 0.08542 0.9169 0.0
C2908 C 0.30471 0.09931 0.91602 0.0
C2909 C 0.30899 0.11126 0.90575 0.0
C2910 C 0.32183 0.10878 0.8958 0.0
C2911 C 0.3304 0.0945 0.89625 0.0
C2912 C 0.32598 0.08271 0.907 0.0
H2913 H 0.28525 0.10392 0.22562 0.0
H2914 H 0.29401 0.15238 0.23829 0.0
H2915 H 0.31793 0.15236 0.22156 0.0
H2916 H 0.32605 0.0917 0.22638 0.0
H2917 H 0.32368 0.07833 0.21016 0.0
H2918 H 0.30738 0.08232 0.22307 0.0
H2919 H 0.29014 0.09113 0.19946 0.0
H2920 H 0.30613 0.0864 0.18656 0.0
H2921 H 0.29763 0.10579 0.18613 0.0
H2922 H 0.33933 0.14729 0.20132 0.0
H2923 H 0.35387 0.13871 0.17778 0.0
H2924 H 0.33356 0.0923 0.18232 0.0
C2925 C 0.29208 0.1146 0.22469 0.0
C2926 C 0.28769 0.12826 0.23288 0.0
C2927 C 0.29713 0.14188 0.23182 0.0
C2928 C 0.3108 0.14189 0.22256 0.0
C2929 C 0.31508 0.128 0.21498 0.0
C2930 C 0.30595 0.11462 0.21602 0.0
C2931 C 0.31273 0.1013 0.20654 0.0
C2932 C 0.31776 0.08761 0.21718 0.0
C2933 C 0.30097 0.09585 0.19393 0.0
C2934 C 0.3268 0.10939 0.1994 0.0
C2935 C 0.32809 0.12477 0.20446 0.0
C2936 C 0.3387 0.13518 0.19756 0.0
C2937 C 0.34711 0.13013 0.18428 0.0
C2938 C 0.34472 0.11486 0.17813 0.0
C2939 C 0.33571 0.104 0.18679 0.0
H2940 H 0.41773 0.23285 0.99359 0.0
H2941 H 0.39017 0.26772 0.96867 0.0
H2942 H 0.41069 0.2694 0.94824 0.0
H2943 H 0.45519 0.25071 0.98604 0.0
H2944 H 0.4652 0.23216 0.98405 0.0
H2945 H 0.44813 0.23366 0.99643 0.0
H2946 H 0.43498 0.21107 0.98085 0.0
H2947 H 0.45196 0.20963 0.96831 0.0
H2948 H 0.43282 0.21279 0.95986 0.0
H2949 H 0.43437 0.26687 0.93017 0.0
H2950 H 0.46024 0.26197 0.91755 0.0
H2951 H 0.47181 0.22927 0.95488 0.0
C2952 C 0.41603 0.24086 0.98386 0.0
C2953 C 0.40238 0.25013 0.98269 0.0
C2954 C 0.4006 0.26054 0.96982 0.0
C2955 C 0.41213 0.26152 0.95811 0.0
C2956 C 0.4254 0.25208 0.9595 0.0
C2957 C 0.42746 0.24208 0.97216 0.0
C2958 C 0.44296 0.23356 0.97122 0.0
C2959 C 0.45349 0.23778 0.98526 0.0
C2960 C 0.44053 0.21571 0.96998 0.0
C2961 C 0.44929 0.2403 0.95607 0.0
C2962 C 0.439 0.25086 0.94936 0.0
C2963 C 0.44254 0.25863 0.93533 0.0
C2964 C 0.45717 0.25574 0.92821 0.0
C2965 C 0.46799 0.24533 0.93529 0.0
C2966 C 0.46381 0.23737 0.94921 0.0
H2967 H 0.0956 0.90119 0.32592 0.0
H2968 H 0.14279 0.88263 0.32179 0.0
H2969 H 0.14855 0.90202 0.3008 0.0
H2970 H 0.08994 0.90747 0.2841 0.0
H2971 H 0.07851 0.92506 0.287 0.0
H2972 H 0.07822 0.90972 0.30159 0.0
H2973 H 0.08702 0.92943 0.32314 0.0
H2974 H 0.08664 0.94482 0.30872 0.0
H2975 H 0.10427 0.94124 0.31985 0.0
H2976 H 0.1495 0.92521 0.28201 0.0
H2977 H 0.14619 0.95102 0.26918 0.0
H2978 H 0.09723 0.95147 0.28302 0.0
C2979 C 0.10723 0.90137 0.32076 0.0
C2980 C 0.1189 0.89074 0.32564 0.0
C2981 C 0.13381 0.89093 0.31831 0.0
C2982 C 0.13709 0.90174 0.30628 0.0
C2983 C 0.12514 0.91184 0.30143 0.0
C2984 C 0.1105 0.91167 0.30846 0.0
C2985 C 0.09972 0.92382 0.30141 0.0
C2986 C 0.08577 0.91605 0.29302 0.0
C2987 C 0.0941 0.93552 0.31402 0.0
C2988 C 0.11076 0.93141 0.28977 0.0
C2989 C 0.12536 0.92428 0.2898 0.0
C2990 C 0.13803 0.93066 0.28159 0.0
C2991 C 0.13599 0.94525 0.27413 0.0
C2992 C 0.12143 0.9532 0.27507 0.0
C2993 C 0.10843 0.94555 0.28191 0.0
H2994 H 0.15269 0.77276 0.47908 0.0
H2995 H 0.13386 0.77582 0.5262 0.0
H2996 H 0.16061 0.77688 0.53695 0.0
H2997 H 0.19151 0.75123 0.49024 0.0
H2998 H 0.20203 0.76267 0.47588 0.0
H2999 H 0.18195 0.75705 0.47229 0.0
H3000 H 0.17485 0.78629 0.46778 0.0
H3001 H 0.19469 0.79207 0.47175 0.0
H3002 H 0.17885 0.8004 0.48305 0.0
H3003 H 0.1875 0.78576 0.54176 0.0
H3004 H 0.21388 0.79785 0.54058 0.0
H3005 H 0.21619 0.788 0.49075 0.0
C3006 C 0.15431 0.77263 0.49168 0.0
C3007 C 0.14137 0.77401 0.50187 0.0
C3008 C 0.14374 0.77459 0.51828 0.0
C3009 C 0.15889 0.77519 0.52449 0.0
C3010 C 0.1715 0.77505 0.51411 0.0
C3011 C 0.16945 0.77336 0.49805 0.0
C3012 C 0.18471 0.77606 0.48933 0.0
C3013 C 0.19039 0.76084 0.48147 0.0
C3014 C 0.18317 0.7895 0.47729 0.0
C3015 C 0.19528 0.78062 0.50284 0.0
C3016 C 0.18749 0.7798 0.51706 0.0
C3017 C 0.19398 0.78583 0.53083 0.0
C3018 C 0.20884 0.79282 0.53005 0.0
C3019 C 0.21701 0.79351 0.51565 0.0
C3020 C 0.21029 0.78709 0.50198 0.0
H3021 H 0.50667 0.85133 0.77187 0.0
H3022 H 0.47957 0.82661 0.80718 0.0
H3023 H 0.47771 0.85076 0.82288 0.0
H3024 H 0.52716 0.87942 0.8002 0.0
H3025 H 0.52581 0.89524 0.78619 0.0
H3026 H 0.52806 0.87528 0.77947 0.0
H3027 H 0.50304 0.87833 0.76246 0.0
H3028 H 0.50063 0.89815 0.76921 0.0
H3029 H 0.4849 0.88422 0.77167 0.0
H3030 H 0.47377 0.8783 0.83176 0.0
H3031 H 0.4698 0.90706 0.8338 0.0
H3032 H 0.50039 0.91373 0.79359 0.0
C3033 C 0.50094 0.8509 0.78321 0.0
C3034 C 0.49329 0.83717 0.78832 0.0
C3035 C 0.48549 0.83707 0.80303 0.0
C3036 C 0.48443 0.85071 0.8121 0.0
C3037 C 0.49141 0.86431 0.80641 0.0
C3038 C 0.49977 0.86447 0.79244 0.0
C3039 C 0.50452 0.881 0.78806 0.0
C3040 C 0.52246 0.88284 0.78851 0.0
C3041 C 0.49787 0.88569 0.77191 0.0
C3042 C 0.49677 0.8901 0.80123 0.0
C3043 C 0.48943 0.88029 0.81183 0.0
C3044 C 0.47987 0.88613 0.82384 0.0
C3045 C 0.47761 0.90245 0.82489 0.0
C3046 C 0.48492 0.91261 0.814 0.0
C3047 C 0.4949 0.9063 0.80233 0.0
H3048 H 0.13215 0.17615 0.31458 0.0
H3049 H 0.08246 0.17045 0.32305 0.0
H3050 H 0.07776 0.19767 0.31457 0.0
H3051 H 0.13394 0.22176 0.32214 0.0
H3052 H 0.14778 0.22365 0.30623 0.0
H3053 H 0.14803 0.20638 0.31848 0.0
H3054 H 0.14541 0.18918 0.29365 0.0
H3055 H 0.14458 0.20624 0.28134 0.0
H3056 H 0.12893 0.19202 0.28072 0.0
H3057 H 0.07719 0.22024 0.29698 0.0
H3058 H 0.08154 0.24047 0.27665 0.0
H3059 H 0.13173 0.23292 0.27966 0.0
C3060 C 0.12052 0.18116 0.31587 0.0
C3061 C 0.10769 0.17151 0.31982 0.0
C3062 C 0.09242 0.17792 0.32048 0.0
C3063 C 0.08966 0.19332 0.31551 0.0
C3064 C 0.10234 0.20209 0.31005 0.0
C3065 C 0.1176 0.1965 0.3107 0.0
C3066 C 0.12869 0.20712 0.30163 0.0
C3067 C 0.14029 0.21522 0.31279 0.0
C3068 C 0.13739 0.1981 0.28856 0.0
C3069 C 0.11711 0.21878 0.29483 0.0
C3070 C 0.102 0.21569 0.29992 0.0
C3071 C 0.08901 0.22321 0.29341 0.0
C3072 C 0.09155 0.23445 0.2817 0.0
C3073 C 0.10693 0.23814 0.27678 0.0
C3074 C 0.11988 0.23036 0.2835 0.0
H3075 H 0.49934 0.14342 0.8094 0.0
H3076 H 0.52459 0.13292 0.8524 0.0
H3077 H 0.53443 0.15999 0.85331 0.0
H3078 H 0.52962 0.17201 0.79354 0.0
H3079 H 0.51453 0.18437 0.78532 0.0
H3080 H 0.5116 0.16343 0.78656 0.0
H3081 H 0.48593 0.1684 0.8013 0.0
H3082 H 0.48867 0.18932 0.8016 0.0
H3083 H 0.48611 0.17863 0.81975 0.0
H3084 H 0.53849 0.18849 0.8519 0.0
H3085 H 0.5363 0.21714 0.84811 0.0
H3086 H 0.50935 0.20941 0.80561 0.0
C3087 C 0.50718 0.14678 0.81881 0.0
C3088 C 0.51119 0.13612 0.83081 0.0
C3089 C 0.5214 0.1409 0.84303 0.0
C3090 C 0.52715 0.15622 0.84362 0.0
C3091 C 0.52285 0.16653 0.83174 0.0
C3092 C 0.51326 0.16202 0.81945 0.0
C3093 C 0.50934 0.17581 0.80898 0.0
C3094 C 0.51671 0.17378 0.79263 0.0
C3095 C 0.49146 0.17822 0.80786 0.0
C3096 C 0.5173 0.1889 0.81797 0.0
C3097 C 0.52538 0.18321 0.83083 0.0
C3098 C 0.53257 0.19312 0.84166 0.0
C3099 C 0.53122 0.20933 0.83946 0.0
C3100 C 0.52281 0.21537 0.8265 0.0
C3101 C 0.51613 0.20504 0.81544 0.0
H3102 H 0.2255 0.27052 0.1091 0.0
H3103 H 0.24099 0.27455 0.15732 0.0
H3104 H 0.22244 0.29675 0.16141 0.0
H3105 H 0.22333 0.31205 0.10225 0.0
H3106 H 0.20656 0.31057 0.08946 0.0
H3107 H 0.22032 0.29455 0.09076 0.0
H3108 H 0.19791 0.27529 0.09838 0.0
H3109 H 0.1841 0.29113 0.09646 0.0
H3110 H 0.18512 0.28018 0.11454 0.0
H3111 H 0.20063 0.31742 0.16011 0.0
H3112 H 0.17735 0.3336 0.1539 0.0
H3113 H 0.17999 0.31834 0.10539 0.0
C3114 C 0.22472 0.27588 0.12061 0.0
C3115 C 0.2342 0.27067 0.13305 0.0
C3116 C 0.23346 0.27828 0.14778 0.0
C3117 C 0.22313 0.29095 0.15013 0.0
C3118 C 0.21419 0.29612 0.13742 0.0
C3119 C 0.21501 0.28883 0.12293 0.0
C3120 C 0.20459 0.29671 0.11101 0.0
C3121 C 0.21428 0.30389 0.09758 0.0
C3122 C 0.19219 0.28515 0.10475 0.0
C3123 C 0.1973 0.30931 0.12112 0.0
C3124 C 0.20292 0.30884 0.13634 0.0
C3125 C 0.19642 0.31815 0.14816 0.0
C3126 C 0.1833 0.32746 0.14448 0.0
C3127 C 0.17692 0.32732 0.12912 0.0
C3128 C 0.18471 0.31893 0.11717 0.0
H3129 H 0.39107 0.80606 0.57848 0.0
H3130 H 0.37897 0.84776 0.55195 0.0
H3131 H 0.40558 0.85821 0.55634 0.0
H3132 H 0.40752 0.82443 0.6077 0.0
H3133 H 0.42327 0.81094 0.61195 0.0
H3134 H 0.40574 0.80395 0.60261 0.0
H3135 H 0.4217 0.79298 0.57918 0.0
H3136 H 0.43948 0.79926 0.58876 0.0
H3137 H 0.43533 0.80556 0.56899 0.0
H3138 H 0.43007 0.86704 0.56947 0.0
H3139 H 0.4529 0.8718 0.58651 0.0
H3140 H 0.44873 0.82466 0.60548 0.0
C3141 C 0.39436 0.81696 0.5728 0.0
C3142 C 0.38307 0.82607 0.5648 0.0
C3143 C 0.38756 0.84046 0.55784 0.0
C3144 C 0.4026 0.84657 0.56046 0.0
C3145 C 0.41296 0.83799 0.56981 0.0
C3146 C 0.40921 0.82325 0.57549 0.0
C3147 C 0.42136 0.81742 0.58709 0.0
C3148 C 0.41402 0.814 0.60328 0.0
C3149 C 0.42999 0.80295 0.58061 0.0
C3150 C 0.43206 0.83152 0.58774 0.0
C3151 C 0.42713 0.84317 0.57755 0.0
C3152 C 0.43432 0.85783 0.57713 0.0
C3153 C 0.44716 0.86047 0.58701 0.0
C3154 C 0.45262 0.84856 0.59729 0.0
C3155 C 0.44489 0.83394 0.59768 0.0
H3156 H 0.80911 0.4964 0.91898 0.0
H3157 H 0.8347 0.45241 0.91775 0.0
H3158 H 0.82718 0.449 0.88985 0.0
H3159 H 0.77714 0.48237 0.90112 0.0
H3160 H 0.77204 0.49986 0.89034 0.0
H3161 H 0.78292 0.50141 0.90833 0.0
H3162 H 0.80527 0.51652 0.89426 0.0
H3163 H 0.79417 0.51565 0.87629 0.0
H3164 H 0.81403 0.50835 0.8768 0.0
H3165 H 0.81343 0.4488 0.86323 0.0
H3166 H 0.79607 0.45248 0.84016 0.0
H3167 H 0.77697 0.49472 0.86112 0.0
C3168 C 0.81375 0.48638 0.91265 0.0
C3169 C 0.8226 0.47473 0.92042 0.0
C3170 C 0.82819 0.46163 0.91188 0.0
C3171 C 0.82381 0.45953 0.8961 0.0
C3172 C 0.81388 0.47064 0.8892 0.0
C3173 C 0.80911 0.48393 0.89721 0.0
C3174 C 0.79678 0.49302 0.88825 0.0
C3175 C 0.78132 0.49422 0.89757 0.0
C3176 C 0.80293 0.50935 0.88362 0.0
C3177 C 0.79494 0.48258 0.87409 0.0
C3178 C 0.80511 0.46991 0.87463 0.0
C3179 C 0.80549 0.45871 0.8627 0.0
C3180 C 0.79552 0.4608 0.84976 0.0
C3181 C 0.78504 0.4737 0.84912 0.0
C3182 C 0.78462 0.48456 0.86153 0.0
H3183 H 0.82125 0.50932 0.2126 0.0
H3184 H 0.79509 0.46835 0.22743 0.0
H3185 H 0.78219 0.46714 0.20161 0.0
H3186 H 0.79047 0.52508 0.18251 0.0
H3187 H 0.80613 0.53061 0.16939 0.0
H3188 H 0.8089 0.53187 0.19035 0.0
H3189 H 0.83367 0.51437 0.18796 0.0
H3190 H 0.83091 0.51287 0.16717 0.0
H3191 H 0.83206 0.49529 0.17892 0.0
H3192 H 0.77782 0.4658 0.17334 0.0
H3193 H 0.78237 0.46443 0.1448 0.0
H3194 H 0.81187 0.50582 0.14753 0.0
C3195 C 0.81217 0.50066 0.2106 0.0
C3196 C 0.80898 0.48903 0.22189 0.0
C3197 C 0.79756 0.47741 0.21885 0.0
C3198 C 0.7901 0.47672 0.20427 0.0
C3199 C 0.79421 0.48773 0.1929 0.0
C3200 C 0.80487 0.49964 0.19594 0.0
C3201 C 0.80967 0.50796 0.18099 0.0
C3202 C 0.80341 0.52489 0.1808 0.0
C3203 C 0.82762 0.50757 0.17863 0.0
C3204 C 0.80126 0.49793 0.16901 0.0
C3205 C 0.79191 0.48673 0.17614 0.0
C3206 C 0.7847 0.4748 0.16758 0.0
C3207 C 0.78744 0.47404 0.15139 0.0
C3208 C 0.79748 0.48502 0.14403 0.0
C3209 C 0.80398 0.4974 0.15287 0.0
H3210 H 0.84449 0.60724 0.39362 0.0
H3211 H 0.8027 0.57839 0.39729 0.0
H3212 H 0.796 0.59128 0.42245 0.0
H3213 H 0.85446 0.60629 0.43378 0.0
H3214 H 0.86155 0.62623 0.43407 0.0
H3215 H 0.86228 0.61509 0.41618 0.0
H3216 H 0.84754 0.63764 0.40311 0.0
H3217 H 0.84429 0.64838 0.42089 0.0
H3218 H 0.82777 0.64244 0.4091 0.0
H3219 H 0.79473 0.60675 0.44823 0.0
H3220 H 0.80066 0.62152 0.47275 0.0
H3221 H 0.84238 0.64052 0.45079 0.0
C3222 C 0.83389 0.60366 0.39966 0.0
C3223 C 0.82412 0.59184 0.39351 0.0
C3224 C 0.81039 0.58742 0.40184 0.0
C3225 C 0.80641 0.59477 0.41605 0.0
C3226 C 0.81618 0.60661 0.42166 0.0
C3227 C 0.82967 0.61097 0.4137 0.0
C3228 C 0.83871 0.62335 0.42255 0.0
C3229 C 0.85522 0.61738 0.42691 0.0
C3230 C 0.83958 0.63885 0.41334 0.0
C3231 C 0.82838 0.62507 0.43683 0.0
C3232 C 0.81533 0.61551 0.43617 0.0
C3233 C 0.80479 0.61447 0.44875 0.0
C3234 C 0.80811 0.62298 0.46255 0.0
C3235 C 0.82186 0.63219 0.46346 0.0
C3236 C 0.83169 0.63366 0.45026 0.0
H3237 H 0.76093 0.634 0.62918 0.0
H3238 H 0.73851 0.59108 0.61378 0.0
H3239 H 0.72423 0.58932 0.63898 0.0
H3240 H 0.76871 0.61892 0.66666 0.0
H3241 H 0.76664 0.63735 0.67684 0.0
H3242 H 0.7725 0.63714 0.65656 0.0
H3243 H 0.74874 0.65527 0.64917 0.0
H3244 H 0.74395 0.65583 0.66978 0.0
H3245 H 0.72936 0.6498 0.65583 0.0
H3246 H 0.71358 0.59127 0.66638 0.0
H3247 H 0.7116 0.59382 0.6953 0.0
H3248 H 0.74296 0.63384 0.69366 0.0
C3249 C 0.75279 0.62443 0.63111 0.0
C3250 C 0.75059 0.61277 0.61962 0.0
C3251 C 0.74026 0.60012 0.62256 0.0
C3252 C 0.73196 0.59914 0.63672 0.0
C3253 C 0.73441 0.61074 0.64796 0.0
C3254 C 0.74485 0.62296 0.64546 0.0
C3255 C 0.74752 0.63219 0.66039 0.0
C3256 C 0.76487 0.63134 0.66541 0.0
C3257 C 0.74207 0.64929 0.65865 0.0
C3258 C 0.73702 0.62324 0.6716 0.0
C3259 C 0.72921 0.61117 0.66414 0.0
C3260 C 0.71952 0.60078 0.67234 0.0
C3261 C 0.71835 0.60236 0.68872 0.0
C3262 C 0.7271 0.61402 0.6966 0.0
C3263 C 0.73605 0.62489 0.68785 0.0
loop_
_geom_bond_atom_site_label_1
_geom_bond_atom_site_label_2
_geom_bond_distance
_geom_bond_site_symmetry_2
_ccdc_geom_bond_type
Co0 O1 2.216 1_455 S
Co0 O2 2.091 . S
Co0 O4 2.004 . S
Co0 O10 2.021 1_455 S
Co0 O12 2.137 . S
Co0 O13 2.244 . S
O1 Co0 2.216 1_655 S
O1 C8 1.247 . S
O2 Co0 2.091 . S
O2 C8 1.261 1_455 S
C3 O12 1.247 . S
C3 O13 1.272 . S
O4 Co0 2.004 . S
O4 C9 1.259 . S
Co5 O6 2.061 . S
Co5 O11 2.052 1_455 S
Co5 O13 2.135 . S
O6 Co5 2.061 . S
O6 C9 1.235 . S
C7 O10 1.238 . S
C7 O11 1.241 . S
C8 O1 1.247 . S
C8 O2 1.261 1_655 S
C9 O4 1.259 . S
C9 O6 1.235 . S
O10 Co0 2.021 1_655 S
O10 C7 1.238 . S
O11 Co5 2.052 1_655 S
O11 C7 1.241 . S
O12 Co0 2.137 . S
O12 C3 1.247 . S
O13 Co0 2.244 . S
O13 C3 1.272 . S
O13 Co5 2.135 . S
Co14 O15 2.216 . S
Co14 O16 2.091 . S
Co14 O18 2.004 . S
Co14 O24 2.021 . S
Co14 O26 2.137 . S
Co14 O27 2.244 . S
O15 Co14 2.216 . S
O15 C22 1.247 . S
O16 Co14 2.091 . S
O16 C22 1.261 . S
C17 O26 1.247 . S
C17 O27 1.272 . S
O18 Co14 2.004 . S
O18 C23 1.259 . S
Co19 O20 2.061 . S
Co19 O25 2.052 1_455 S
Co19 O27 2.135 1_455 S
O20 Co19 2.061 . S
O20 C23 1.235 1_455 S
C21 O24 1.238 . S
C21 O25 1.241 . S
C22 O15 1.247 . S
C22 O16 1.261 . S
C23 O18 1.259 . S
C23 O20 1.235 1_655 S
O24 Co14 2.021 . S
O24 C21 1.238 . S
O25 Co19 2.052 1_655 S
O25 C21 1.241 . S
O26 Co14 2.137 . S
O26 C17 1.247 . S
O27 Co14 2.244 . S
O27 C17 1.272 . S
O27 Co19 2.135 1_655 S
Co28 O29 2.216 . S
Co28 O30 2.091 . S
Co28 O32 2.004 . S
Co28 O38 2.021 . S
Co28 O40 2.137 . S
Co28 O41 2.244 . S
O29 Co28 2.216 . S
O29 C36 1.247 . S
O30 Co28 2.091 . S
O30 C36 1.261 . S
C31 O40 1.247 . S
C31 O41 1.272 . S
O32 Co28 2.004 . S
O32 C37 1.259 . S
Co33 O34 2.061 . S
Co33 O39 2.052 . S
Co33 O41 2.135 . S
O34 Co33 2.061 . S
O34 C37 1.235 . S
C35 O38 1.238 . S
C35 O39 1.241 . S
C36 O29 1.247 . S
C36 O30 1.261 . S
C37 O32 1.259 . S
C37 O34 1.235 . S
O38 Co28 2.021 . S
O38 C35 1.238 . S
O39 Co33 2.052 . S
O39 C35 1.241 . S
O40 Co28 2.137 . S
O40 C31 1.247 . S
O41 Co28 2.244 . S
O41 C31 1.272 . S
O41 Co33 2.135 . S
Co42 O43 2.216 . S
Co42 O44 2.091 . S
Co42 O46 2.004 . S
Co42 O52 2.021 . S
Co42 O54 2.137 . S
Co42 O55 2.244 . S
O43 Co42 2.216 . S
O43 C50 1.247 . S
O44 Co42 2.091 . S
O44 C50 1.261 . S
C45 O54 1.247 . S
C45 O55 1.272 . S
O46 Co42 2.004 . S
O46 C51 1.259 . S
Co47 O48 2.061 . S
Co47 O53 2.052 . S
Co47 O55 2.135 . S
O48 Co47 2.061 . S
O48 C51 1.235 . S
C49 O52 1.238 . S
C49 O53 1.241 . S
C50 O43 1.247 . S
C50 O44 1.261 . S
C51 O46 1.259 . S
C51 O48 1.235 . S
O52 Co42 2.021 . S
O52 C49 1.238 . S
O53 Co47 2.052 . S
O53 C49 1.241 . S
O54 Co42 2.137 . S
O54 C45 1.247 . S
O55 Co42 2.244 . S
O55 C45 1.272 . S
O55 Co47 2.135 . S
Co56 O57 2.216 1_455 S
Co56 O58 2.091 1_455 S
Co56 O60 2.004 . S
Co56 O66 2.021 1_455 S
Co56 O68 2.137 . S
Co56 O69 2.244 . S
O57 Co56 2.216 1_655 S
O57 C64 1.247 . S
O58 Co56 2.091 1_655 S
O58 C64 1.261 . S
C59 O68 1.247 . S
C59 O69 1.272 . S
O60 Co56 2.004 . S
O60 C65 1.259 . S
Co61 O62 2.061 . S
Co61 O67 2.052 1_455 S
Co61 O69 2.135 . S
O62 Co61 2.061 . S
O62 C65 1.235 . S
C63 O66 1.238 . S
C63 O67 1.241 . S
C64 O57 1.247 . S
C64 O58 1.261 . S
C65 O60 1.259 . S
C65 O62 1.235 . S
O66 Co56 2.021 1_655 S
O66 C63 1.238 . S
O67 Co61 2.052 1_655 S
O67 C63 1.241 . S
O68 Co56 2.137 . S
O68 C59 1.247 . S
O69 Co56 2.244 . S
O69 C59 1.272 . S
O69 Co61 2.135 . S
Co70 O71 2.216 . S
Co70 O72 2.091 . S
Co70 O74 2.004 . S
Co70 O80 2.021 . S
Co70 O82 2.137 . S
Co70 O83 2.244 . S
O71 Co70 2.216 . S
O71 C78 1.247 . S
O72 Co70 2.091 . S
O72 C78 1.261 . S
C73 O82 1.247 . S
C73 O83 1.272 . S
O74 Co70 2.004 . S
O74 C79 1.259 . S
Co75 O76 2.061 . S
Co75 O81 2.052 . S
Co75 O83 2.135 . S
O76 Co75 2.061 . S
O76 C79 1.235 . S
C77 O80 1.238 . S
C77 O81 1.241 . S
C78 O71 1.247 . S
C78 O72 1.261 . S
C79 O74 1.259 . S
C79 O76 1.235 . S
O80 Co70 2.021 . S
O80 C77 1.238 . S
O81 Co75 2.052 . S
O81 C77 1.241 . S
O82 Co70 2.137 . S
O82 C73 1.247 . S
O83 Co70 2.244 . S
O83 C73 1.272 . S
O83 Co75 2.135 . S
Co84 O85 2.216 . S
Co84 O86 2.091 . S
Co84 O88 2.004 . S
Co84 O94 2.021 . S
Co84 O96 2.137 . S
Co84 O97 2.244 . S
O85 Co84 2.216 . S
O85 C92 1.247 . S
O86 Co84 2.091 . S
O86 C92 1.261 . S
C87 O96 1.247 . S
C87 O97 1.272 . S
O88 Co84 2.004 . S
O88 C93 1.259 . S
Co89 O90 2.061 . S
Co89 O95 2.052 . S
Co89 O97 2.135 . S
O90 Co89 2.061 . S
O90 C93 1.235 . S
C91 O94 1.238 . S
C91 O95 1.241 . S
C92 O85 1.247 . S
C92 O86 1.261 . S
C93 O88 1.259 . S
C93 O90 1.235 . S
O94 Co84 2.021 . S
O94 C91 1.238 . S
O95 Co89 2.052 . S
O95 C91 1.241 . S
O96 Co84 2.137 . S
O96 C87 1.247 . S
O97 Co84 2.244 . S
O97 C87 1.272 . S
O97 Co89 2.135 . S
Co98 O99 2.216 . S
Co98 O100 2.091 . S
Co98 O102 2.004 1_655 S
Co98 O108 2.021 . S
Co98 O110 2.137 1_655 S
Co98 O111 2.244 1_655 S
O99 Co98 2.216 . S
O99 C106 1.247 . S
O100 Co98 2.091 . S
O100 C106 1.261 . S
C101 O110 1.247 . S
C101 O111 1.272 . S
O102 Co98 2.004 1_455 S
O102 C107 1.259 . S
Co103 O104 2.061 . S
Co103 O109 2.052 . S
Co103 O111 2.135 . S
O104 Co103 2.061 . S
O104 C107 1.235 . S
C105 O108 1.238 . S
C105 O109 1.241 1_655 S
C106 O99 1.247 . S
C106 O100 1.261 . S
C107 O102 1.259 . S
C107 O104 1.235 . S
O108 Co98 2.021 . S
O108 C105 1.238 . S
O109 Co103 2.052 . S
O109 C105 1.241 1_455 S
O110 Co98 2.137 1_455 S
O110 C101 1.247 . S
O111 Co98 2.244 1_455 S
O111 C101 1.272 . S
O111 Co103 2.135 . S
Co112 O113 2.216 1_545 S
Co112 O114 2.091 . S
Co112 O116 2.004 . S
Co112 O122 2.021 1_545 S
Co112 O124 2.137 . S
Co112 O125 2.244 . S
O113 Co112 2.216 1_565 S
O113 C120 1.247 . S
O114 Co112 2.091 . S
O114 C120 1.261 1_545 S
C115 O124 1.247 . S
C115 O125 1.272 . S
O116 Co112 2.004 . S
O116 C121 1.259 . S
Co117 O118 2.061 . S
Co117 O123 2.052 1_545 S
Co117 O125 2.135 . S
O118 Co117 2.061 . S
O118 C121 1.235 . S
C119 O122 1.238 . S
C119 O123 1.241 . S
C120 O113 1.247 . S
C120 O114 1.261 1_565 S
C121 O116 1.259 . S
C121 O118 1.235 . S
O122 Co112 2.021 1_565 S
O122 C119 1.238 . S
O123 Co117 2.052 1_565 S
O123 C119 1.241 . S
O124 Co112 2.137 . S
O124 C115 1.247 . S
O125 Co112 2.244 . S
O125 C115 1.272 . S
O125 Co117 2.135 . S
Co126 O127 2.216 . S
Co126 O128 2.091 . S
Co126 O130 2.004 . S
Co126 O136 2.021 . S
Co126 O138 2.137 . S
Co126 O139 2.244 . S
O127 Co126 2.216 . S
O127 C134 1.247 . S
O128 Co126 2.091 . S
O128 C134 1.261 . S
C129 O138 1.247 . S
C129 O139 1.272 . S
O130 Co126 2.004 . S
O130 C135 1.259 . S
Co131 O132 2.061 . S
Co131 O137 2.052 . S
Co131 O139 2.135 . S
O132 Co131 2.061 . S
O132 C135 1.235 . S
C133 O136 1.238 . S
C133 O137 1.241 . S
C134 O127 1.247 . S
C134 O128 1.261 . S
C135 O130 1.259 . S
C135 O132 1.235 . S
O136 Co126 2.021 . S
O136 C133 1.238 . S
O137 Co131 2.052 . S
O137 C133 1.241 . S
O138 Co126 2.137 . S
O138 C129 1.247 . S
O139 Co126 2.244 . S
O139 C129 1.272 . S
O139 Co131 2.135 . S
Co140 O141 2.216 . S
Co140 O142 2.091 . S
Co140 O144 2.004 . S
Co140 O150 2.021 . S
Co140 O152 2.137 . S
Co140 O153 2.244 . S
O141 Co140 2.216 . S
O141 C148 1.247 . S
O142 Co140 2.091 . S
O142 C148 1.261 . S
C143 O152 1.247 . S
C143 O153 1.272 . S
O144 Co140 2.004 . S
O144 C149 1.259 . S
Co145 O146 2.061 . S
Co145 O151 2.052 . S
Co145 O153 2.135 . S
O146 Co145 2.061 . S
O146 C149 1.235 . S
C147 O150 1.238 . S
C147 O151 1.241 . S
C148 O141 1.247 . S
C148 O142 1.261 . S
C149 O144 1.259 . S
C149 O146 1.235 . S
O150 Co140 2.021 . S
O150 C147 1.238 . S
O151 Co145 2.052 . S
O151 C147 1.241 . S
O152 Co140 2.137 . S
O152 C143 1.247 . S
O153 Co140 2.244 . S
O153 C143 1.272 . S
O153 Co145 2.135 . S
Co154 O155 2.216 . S
Co154 O156 2.091 . S
Co154 O158 2.004 . S
Co154 O164 2.021 . S
Co154 O166 2.137 . S
Co154 O167 2.244 . S
O155 Co154 2.216 . S
O155 C162 1.247 . S
O156 Co154 2.091 . S
O156 C162 1.261 . S
C157 O166 1.247 . S
C157 O167 1.272 . S
O158 Co154 2.004 . S
O158 C163 1.259 . S
Co159 O160 2.061 . S
Co159 O165 2.052 . S
Co159 O167 2.135 . S
O160 Co159 2.061 . S
O160 C163 1.235 . S
C161 O164 1.238 . S
C161 O165 1.241 . S
C162 O155 1.247 . S
C162 O156 1.261 . S
C163 O158 1.259 . S
C163 O160 1.235 . S
O164 Co154 2.021 . S
O164 C161 1.238 . S
O165 Co159 2.052 . S
O165 C161 1.241 . S
O166 Co154 2.137 . S
O166 C157 1.247 . S
O167 Co154 2.244 . S
O167 C157 1.272 . S
O167 Co159 2.135 . S
Co168 O169 2.216 . S
Co168 O170 2.091 . S
Co168 O172 2.004 . S
Co168 O178 2.021 . S
Co168 O180 2.137 . S
Co168 O181 2.244 . S
O169 Co168 2.216 . S
O169 C176 1.247 . S
O170 Co168 2.091 . S
O170 C176 1.261 . S
C171 O180 1.247 . S
C171 O181 1.272 . S
O172 Co168 2.004 . S
O172 C177 1.259 . S
Co173 O174 2.061 . S
Co173 O179 2.052 . S
Co173 O181 2.135 . S
O174 Co173 2.061 . S
O174 C177 1.235 . S
C175 O178 1.238 . S
C175 O179 1.241 . S
C176 O169 1.247 . S
C176 O170 1.261 . S
C177 O172 1.259 . S
C177 O174 1.235 . S
O178 Co168 2.021 . S
O178 C175 1.238 . S
O179 Co173 2.052 . S
O179 C175 1.241 . S
O180 Co168 2.137 . S
O180 C171 1.247 . S
O181 Co168 2.244 . S
O181 C171 1.272 . S
O181 Co173 2.135 . S
Co182 O183 2.216 . S
Co182 O184 2.091 . S
Co182 O186 2.004 . S
Co182 O192 2.021 . S
Co182 O194 2.137 . S
Co182 O195 2.244 . S
O183 Co182 2.216 . S
O183 C190 1.247 . S
O184 Co182 2.091 . S
O184 C190 1.261 . S
C185 O194 1.247 . S
C185 O195 1.272 . S
O186 Co182 2.004 . S
O186 C191 1.259 . S
Co187 O188 2.061 . S
Co187 O193 2.052 . S
Co187 O195 2.135 . S
O188 Co187 2.061 . S
O188 C191 1.235 . S
C189 O192 1.238 . S
C189 O193 1.241 . S
C190 O183 1.247 . S
C190 O184 1.261 . S
C191 O186 1.259 . S
C191 O188 1.235 . S
O192 Co182 2.021 . S
O192 C189 1.238 . S
O193 Co187 2.052 . S
O193 C189 1.241 . S
O194 Co182 2.137 . S
O194 C185 1.247 . S
O195 Co182 2.244 . S
O195 C185 1.272 . S
O195 Co187 2.135 . S
Co196 O197 2.216 1_545 S
Co196 O198 2.091 1_545 S
Co196 O200 2.004 . S
Co196 O206 2.021 1_545 S
Co196 O208 2.137 . S
Co196 O209 2.244 . S
O197 Co196 2.216 1_565 S
O197 C204 1.247 . S
O198 Co196 2.091 1_565 S
O198 C204 1.261 . S
C199 O208 1.247 . S
C199 O209 1.272 . S
O200 Co196 2.004 . S
O200 C205 1.259 . S
Co201 O202 2.061 . S
Co201 O207 2.052 1_545 S
Co201 O209 2.135 . S
O202 Co201 2.061 . S
O202 C205 1.235 . S
C203 O206 1.238 . S
C203 O207 1.241 . S
C204 O197 1.247 . S
C204 O198 1.261 . S
C205 O200 1.259 . S
C205 O202 1.235 . S
O206 Co196 2.021 1_565 S
O206 C203 1.238 . S
O207 Co201 2.052 1_565 S
O207 C203 1.241 . S
O208 Co196 2.137 . S
O208 C199 1.247 . S
O209 Co196 2.244 . S
O209 C199 1.272 . S
O209 Co201 2.135 . S
Co210 O211 2.216 . S
Co210 O212 2.091 . S
Co210 O214 2.004 1_556 S
Co210 O220 2.021 . S
Co210 O222 2.137 1_556 S
Co210 O223 2.244 1_556 S
O211 Co210 2.216 . S
O211 C218 1.247 . S
O212 Co210 2.091 . S
O212 C218 1.261 . S
C213 O222 1.247 . S
C213 O223 1.272 . S
O214 Co210 2.004 1_554 S
O214 C219 1.259 . S
Co215 O216 2.061 . S
Co215 O221 2.052 . S
Co215 O223 2.135 . S
O216 Co215 2.061 . S
O216 C219 1.235 . S
C217 O220 1.238 . S
C217 O221 1.241 1_556 S
C218 O211 1.247 . S
C218 O212 1.261 . S
C219 O214 1.259 . S
C219 O216 1.235 . S
O220 Co210 2.021 . S
O220 C217 1.238 . S
O221 Co215 2.052 . S
O221 C217 1.241 1_554 S
O222 Co210 2.137 1_554 S
O222 C213 1.247 . S
O223 Co210 2.244 1_554 S
O223 C213 1.272 . S
O223 Co215 2.135 . S
Co224 O225 2.216 1_554 S
Co224 O226 2.091 . S
Co224 O228 2.004 . S
Co224 O234 2.021 1_554 S
Co224 O236 2.137 . S
Co224 O237 2.244 . S
O225 Co224 2.216 1_556 S
O225 C232 1.247 . S
O226 Co224 2.091 . S
O226 C232 1.261 1_554 S
C227 O236 1.247 . S
C227 O237 1.272 . S
O228 Co224 2.004 . S
O228 C233 1.259 . S
Co229 O230 2.061 . S
Co229 O235 2.052 1_554 S
Co229 O237 2.135 . S
O230 Co229 2.061 . S
O230 C233 1.235 . S
C231 O234 1.238 . S
C231 O235 1.241 . S
C232 O225 1.247 . S
C232 O226 1.261 1_556 S
C233 O228 1.259 . S
C233 O230 1.235 . S
O234 Co224 2.021 1_556 S
O234 C231 1.238 . S
O235 Co229 2.052 1_556 S
O235 C231 1.241 . S
O236 Co224 2.137 . S
O236 C227 1.247 . S
O237 Co224 2.244 . S
O237 C227 1.272 . S
O237 Co229 2.135 . S
Co238 O239 2.216 . S
Co238 O240 2.091 . S
Co238 O242 2.004 . S
Co238 O248 2.021 . S
Co238 O250 2.137 . S
Co238 O251 2.244 . S
O239 Co238 2.216 . S
O239 C246 1.247 . S
O240 Co238 2.091 . S
O240 C246 1.261 . S
C241 O250 1.247 . S
C241 O251 1.272 . S
O242 Co238 2.004 . S
O242 C247 1.259 . S
Co243 O244 2.061 . S
Co243 O249 2.052 . S
Co243 O251 2.135 . S
O244 Co243 2.061 . S
O244 C247 1.235 . S
C245 O248 1.238 . S
C245 O249 1.241 . S
C246 O239 1.247 . S
C246 O240 1.261 . S
C247 O242 1.259 . S
C247 O244 1.235 . S
O248 Co238 2.021 . S
O248 C245 1.238 . S
O249 Co243 2.052 . S
O249 C245 1.241 . S
O250 Co238 2.137 . S
O250 C241 1.247 . S
O251 Co238 2.244 . S
O251 C241 1.272 . S
O251 Co243 2.135 . S
Co252 O253 2.216 . S
Co252 O254 2.091 . S
Co252 O256 2.004 . S
Co252 O262 2.021 . S
Co252 O264 2.137 . S
Co252 O265 2.244 . S
O253 Co252 2.216 . S
O253 C260 1.247 . S
O254 Co252 2.091 . S
O254 C260 1.261 . S
C255 O264 1.247 . S
C255 O265 1.272 . S
O256 Co252 2.004 . S
O256 C261 1.259 . S
Co257 O258 2.061 . S
Co257 O263 2.052 . S
Co257 O265 2.135 . S
O258 Co257 2.061 . S
O258 C261 1.235 . S
C259 O262 1.238 . S
C259 O263 1.241 . S
C260 O253 1.247 . S
C260 O254 1.261 . S
C261 O256 1.259 . S
C261 O258 1.235 . S
O262 Co252 2.021 . S
O262 C259 1.238 . S
O263 Co257 2.052 . S
O263 C259 1.241 . S
O264 Co252 2.137 . S
O264 C255 1.247 . S
O265 Co252 2.244 . S
O265 C255 1.272 . S
O265 Co257 2.135 . S
Co266 O267 2.216 . S
Co266 O268 2.091 . S
Co266 O270 2.004 . S
Co266 O276 2.021 . S
Co266 O278 2.137 . S
Co266 O279 2.244 . S
O267 Co266 2.216 . S
O267 C274 1.247 . S
O268 Co266 2.091 . S
O268 C274 1.261 . S
C269 O278 1.247 . S
C269 O279 1.272 . S
O270 Co266 2.004 . S
O270 C275 1.259 . S
Co271 O272 2.061 . S
Co271 O277 2.052 . S
Co271 O279 2.135 . S
O272 Co271 2.061 . S
O272 C275 1.235 . S
C273 O276 1.238 . S
C273 O277 1.241 . S
C274 O267 1.247 . S
C274 O268 1.261 . S
C275 O270 1.259 . S
C275 O272 1.235 . S
O276 Co266 2.021 . S
O276 C273 1.238 . S
O277 Co271 2.052 . S
O277 C273 1.241 . S
O278 Co266 2.137 . S
O278 C269 1.247 . S
O279 Co266 2.244 . S
O279 C269 1.272 . S
O279 Co271 2.135 . S
Co280 O281 2.216 . S
Co280 O282 2.091 . S
Co280 O284 2.004 1_565 S
Co280 O290 2.021 . S
Co280 O292 2.137 1_565 S
Co280 O293 2.244 1_565 S
O281 Co280 2.216 . S
O281 C288 1.247 . S
O282 Co280 2.091 . S
O282 C288 1.261 . S
C283 O292 1.247 . S
C283 O293 1.272 . S
O284 Co280 2.004 1_545 S
O284 C289 1.259 . S
Co285 O286 2.061 . S
Co285 O291 2.052 . S
Co285 O293 2.135 . S
O286 Co285 2.061 . S
O286 C289 1.235 . S
C287 O290 1.238 . S
C287 O291 1.241 1_565 S
C288 O281 1.247 . S
C288 O282 1.261 . S
C289 O284 1.259 . S
C289 O286 1.235 . S
O290 Co280 2.021 . S
O290 C287 1.238 . S
O291 Co285 2.052 . S
O291 C287 1.241 1_545 S
O292 Co280 2.137 1_545 S
O292 C283 1.247 . S
O293 Co280 2.244 1_545 S
O293 C283 1.272 . S
O293 Co285 2.135 . S
Co294 O295 2.216 . S
Co294 O296 2.091 . S
Co294 O298 2.004 . S
Co294 O304 2.021 . S
Co294 O306 2.137 . S
Co294 O307 2.244 . S
O295 Co294 2.216 . S
O295 C302 1.247 . S
O296 Co294 2.091 . S
O296 C302 1.261 . S
C297 O306 1.247 . S
C297 O307 1.272 . S
O298 Co294 2.004 . S
O298 C303 1.259 . S
Co299 O300 2.061 . S
Co299 O305 2.052 . S
Co299 O307 2.135 . S
O300 Co299 2.061 . S
O300 C303 1.235 . S
C301 O304 1.238 . S
C301 O305 1.241 . S
C302 O295 1.247 . S
C302 O296 1.261 . S
C303 O298 1.259 . S
C303 O300 1.235 . S
O304 Co294 2.021 . S
O304 C301 1.238 . S
O305 Co299 2.052 . S
O305 C301 1.241 . S
O306 Co294 2.137 . S
O306 C297 1.247 . S
O307 Co294 2.244 . S
O307 C297 1.272 . S
O307 Co299 2.135 . S
Co308 O309 2.216 . S
Co308 O310 2.091 . S
Co308 O312 2.004 . S
Co308 O318 2.021 . S
Co308 O320 2.137 . S
Co308 O321 2.244 . S
O309 Co308 2.216 . S
O309 C316 1.247 . S
O310 Co308 2.091 . S
O310 C316 1.261 . S
C311 O320 1.247 . S
C311 O321 1.272 . S
O312 Co308 2.004 . S
O312 C317 1.259 . S
Co313 O314 2.061 . S
Co313 O319 2.052 . S
Co313 O321 2.135 . S
O314 Co313 2.061 . S
O314 C317 1.235 . S
C315 O318 1.238 . S
C315 O319 1.241 . S
C316 O309 1.247 . S
C316 O310 1.261 . S
C317 O312 1.259 . S
C317 O314 1.235 . S
O318 Co308 2.021 . S
O318 C315 1.238 . S
O319 Co313 2.052 . S
O319 C315 1.241 . S
O320 Co308 2.137 . S
O320 C311 1.247 . S
O321 Co308 2.244 . S
O321 C311 1.272 . S
O321 Co313 2.135 . S
Co322 O323 2.216 . S
Co322 O324 2.091 . S
Co322 O326 2.004 . S
Co322 O332 2.021 . S
Co322 O334 2.137 . S
Co322 O335 2.244 . S
O323 Co322 2.216 . S
O323 C330 1.247 . S
O324 Co322 2.091 . S
O324 C330 1.261 . S
C325 O334 1.247 . S
C325 O335 1.272 . S
O326 Co322 2.004 . S
O326 C331 1.259 . S
Co327 O328 2.061 . S
Co327 O333 2.052 . S
Co327 O335 2.135 . S
O328 Co327 2.061 . S
O328 C331 1.235 . S
C329 O332 1.238 . S
C329 O333 1.241 . S
C330 O323 1.247 . S
C330 O324 1.261 . S
C331 O326 1.259 . S
C331 O328 1.235 . S
O332 Co322 2.021 . S
O332 C329 1.238 . S
O333 Co327 2.052 . S
O333 C329 1.241 . S
O334 Co322 2.137 . S
O334 C325 1.247 . S
O335 Co322 2.244 . S
O335 C325 1.272 . S
O335 Co327 2.135 . S
Co336 O337 2.216 . S
Co336 O338 2.091 . S
Co336 O340 2.004 . S
Co336 O346 2.021 . S
Co336 O348 2.137 . S
Co336 O349 2.244 . S
O337 Co336 2.216 . S
O337 C344 1.247 . S
O338 Co336 2.091 . S
O338 C344 1.261 . S
C339 O348 1.247 . S
C339 O349 1.272 . S
O340 Co336 2.004 . S
O340 C345 1.259 . S
Co341 O342 2.061 . S
Co341 O347 2.052 . S
Co341 O349 2.135 . S
O342 Co341 2.061 . S
O342 C345 1.235 . S
C343 O346 1.238 . S
C343 O347 1.241 . S
C344 O337 1.247 . S
C344 O338 1.261 . S
C345 O340 1.259 . S
C345 O342 1.235 . S
O346 Co336 2.021 . S
O346 C343 1.238 . S
O347 Co341 2.052 . S
O347 C343 1.241 . S
O348 Co336 2.137 . S
O348 C339 1.247 . S
O349 Co336 2.244 . S
O349 C339 1.272 . S
O349 Co341 2.135 . S
Co350 O351 2.216 . S
Co350 O352 2.091 . S
Co350 O354 2.004 . S
Co350 O360 2.021 . S
Co350 O362 2.137 . S
Co350 O363 2.244 . S
O351 Co350 2.216 . S
O351 C358 1.247 . S
O352 Co350 2.091 . S
O352 C358 1.261 . S
C353 O362 1.247 . S
C353 O363 1.272 . S
O354 Co350 2.004 . S
O354 C359 1.259 . S
Co355 O356 2.061 . S
Co355 O361 2.052 . S
Co355 O363 2.135 . S
O356 Co355 2.061 . S
O356 C359 1.235 . S
C357 O360 1.238 . S
C357 O361 1.241 . S
C358 O351 1.247 . S
C358 O352 1.261 . S
C359 O354 1.259 . S
C359 O356 1.235 . S
O360 Co350 2.021 . S
O360 C357 1.238 . S
O361 Co355 2.052 . S
O361 C357 1.241 . S
O362 Co350 2.137 . S
O362 C353 1.247 . S
O363 Co350 2.244 . S
O363 C353 1.272 . S
O363 Co355 2.135 . S
Co364 O365 2.216 . S
Co364 O366 2.091 . S
Co364 O368 2.004 . S
Co364 O374 2.021 . S
Co364 O376 2.137 . S
Co364 O377 2.244 . S
O365 Co364 2.216 . S
O365 C372 1.247 . S
O366 Co364 2.091 . S
O366 C372 1.261 . S
C367 O376 1.247 . S
C367 O377 1.272 . S
O368 Co364 2.004 . S
O368 C373 1.259 . S
Co369 O370 2.061 . S
Co369 O375 2.052 . S
Co369 O377 2.135 . S
O370 Co369 2.061 . S
O370 C373 1.235 . S
C371 O374 1.238 . S
C371 O375 1.241 . S
C372 O365 1.247 . S
C372 O366 1.261 . S
C373 O368 1.259 . S
C373 O370 1.235 . S
O374 Co364 2.021 . S
O374 C371 1.238 . S
O375 Co369 2.052 . S
O375 C371 1.241 . S
O376 Co364 2.137 . S
O376 C367 1.247 . S
O377 Co364 2.244 . S
O377 C367 1.272 . S
O377 Co369 2.135 . S
Co378 O379 2.216 . S
Co378 O380 2.091 . S
Co378 O382 2.004 . S
Co378 O388 2.021 . S
Co378 O390 2.137 . S
Co378 O391 2.244 . S
O379 Co378 2.216 . S
O379 C386 1.247 . S
O380 Co378 2.091 . S
O380 C386 1.261 . S
C381 O390 1.247 . S
C381 O391 1.272 . S
O382 Co378 2.004 . S
O382 C387 1.259 . S
Co383 O384 2.061 . S
Co383 O389 2.052 . S
Co383 O391 2.135 . S
O384 Co383 2.061 . S
O384 C387 1.235 . S
C385 O388 1.238 . S
C385 O389 1.241 . S
C386 O379 1.247 . S
C386 O380 1.261 . S
C387 O382 1.259 . S
C387 O384 1.235 . S
O388 Co378 2.021 . S
O388 C385 1.238 . S
O389 Co383 2.052 . S
O389 C385 1.241 . S
O390 Co378 2.137 . S
O390 C381 1.247 . S
O391 Co378 2.244 . S
O391 C381 1.272 . S
O391 Co383 2.135 . S
Co392 O393 2.216 . S
Co392 O394 2.091 . S
Co392 O396 2.004 . S
Co392 O402 2.021 . S
Co392 O404 2.137 . S
Co392 O405 2.244 . S
O393 Co392 2.216 . S
O393 C400 1.247 . S
O394 Co392 2.091 . S
O394 C400 1.261 . S
C395 O404 1.247 . S
C395 O405 1.272 . S
O396 Co392 2.004 . S
O396 C401 1.259 . S
Co397 O398 2.061 . S
Co397 O403 2.052 . S
Co397 O405 2.135 . S
O398 Co397 2.061 . S
O398 C401 1.235 . S
C399 O402 1.238 . S
C399 O403 1.241 . S
C400 O393 1.247 . S
C400 O394 1.261 . S
C401 O396 1.259 . S
C401 O398 1.235 . S
O402 Co392 2.021 . S
O402 C399 1.238 . S
O403 Co397 2.052 . S
O403 C399 1.241 . S
O404 Co392 2.137 . S
O404 C395 1.247 . S
O405 Co392 2.244 . S
O405 C395 1.272 . S
O405 Co397 2.135 . S
Co406 O407 2.216 . S
Co406 O408 2.091 . S
Co406 O410 2.004 . S
Co406 O416 2.021 . S
Co406 O418 2.137 . S
Co406 O419 2.244 . S
O407 Co406 2.216 . S
O407 C414 1.247 . S
O408 Co406 2.091 . S
O408 C414 1.261 . S
C409 O418 1.247 . S
C409 O419 1.272 . S
O410 Co406 2.004 . S
O410 C415 1.259 . S
Co411 O412 2.061 . S
Co411 O417 2.052 . S
Co411 O419 2.135 . S
O412 Co411 2.061 . S
O412 C415 1.235 . S
C413 O416 1.238 . S
C413 O417 1.241 . S
C414 O407 1.247 . S
C414 O408 1.261 . S
C415 O410 1.259 . S
C415 O412 1.235 . S
O416 Co406 2.021 . S
O416 C413 1.238 . S
O417 Co411 2.052 . S
O417 C413 1.241 . S
O418 Co406 2.137 . S
O418 C409 1.247 . S
O419 Co406 2.244 . S
O419 C409 1.272 . S
O419 Co411 2.135 . S
Co420 O421 2.216 . S
Co420 O422 2.091 . S
Co420 O424 2.004 . S
Co420 O430 2.021 . S
Co420 O432 2.137 . S
Co420 O433 2.244 . S
O421 Co420 2.216 . S
O421 C428 1.247 . S
O422 Co420 2.091 . S
O422 C428 1.261 . S
C423 O432 1.247 . S
C423 O433 1.272 . S
O424 Co420 2.004 . S
O424 C429 1.259 . S
Co425 O426 2.061 . S
Co425 O431 2.052 . S
Co425 O433 2.135 . S
O426 Co425 2.061 . S
O426 C429 1.235 . S
C427 O430 1.238 . S
C427 O431 1.241 . S
C428 O421 1.247 . S
C428 O422 1.261 . S
C429 O424 1.259 . S
C429 O426 1.235 . S
O430 Co420 2.021 . S
O430 C427 1.238 . S
O431 Co425 2.052 . S
O431 C427 1.241 . S
O432 Co420 2.137 . S
O432 C423 1.247 . S
O433 Co420 2.244 . S
O433 C423 1.272 . S
O433 Co425 2.135 . S
Co434 O435 2.216 . S
Co434 O436 2.091 . S
Co434 O438 2.004 . S
Co434 O444 2.021 . S
Co434 O446 2.137 . S
Co434 O447 2.244 . S
O435 Co434 2.216 . S
O435 C442 1.247 . S
O436 Co434 2.091 . S
O436 C442 1.261 . S
C437 O446 1.247 . S
C437 O447 1.272 . S
O438 Co434 2.004 . S
O438 C443 1.259 . S
Co439 O440 2.061 . S
Co439 O445 2.052 . S
Co439 O447 2.135 . S
O440 Co439 2.061 . S
O440 C443 1.235 . S
C441 O444 1.238 . S
C441 O445 1.241 . S
C442 O435 1.247 . S
C442 O436 1.261 . S
C443 O438 1.259 . S
C443 O440 1.235 . S
O444 Co434 2.021 . S
O444 C441 1.238 . S
O445 Co439 2.052 . S
O445 C441 1.241 . S
O446 Co434 2.137 . S
O446 C437 1.247 . S
O447 Co434 2.244 . S
O447 C437 1.272 . S
O447 Co439 2.135 . S
Co448 O449 2.216 . S
Co448 O450 2.091 . S
Co448 O452 2.004 . S
Co448 O458 2.021 . S
Co448 O460 2.137 . S
Co448 O461 2.244 . S
O449 Co448 2.216 . S
O449 C456 1.247 . S
O450 Co448 2.091 . S
O450 C456 1.261 . S
C451 O460 1.247 . S
C451 O461 1.272 . S
O452 Co448 2.004 . S
O452 C457 1.259 . S
Co453 O454 2.061 . S
Co453 O459 2.052 . S
Co453 O461 2.135 . S
O454 Co453 2.061 . S
O454 C457 1.235 . S
C455 O458 1.238 . S
C455 O459 1.241 . S
C456 O449 1.247 . S
C456 O450 1.261 . S
C457 O452 1.259 . S
C457 O454 1.235 . S
O458 Co448 2.021 . S
O458 C455 1.238 . S
O459 Co453 2.052 . S
O459 C455 1.241 . S
O460 Co448 2.137 . S
O460 C451 1.247 . S
O461 Co448 2.244 . S
O461 C451 1.272 . S
O461 Co453 2.135 . S
Co462 O463 2.216 . S
Co462 O464 2.091 . S
Co462 O466 2.004 . S
Co462 O472 2.021 . S
Co462 O474 2.137 . S
Co462 O475 2.244 . S
O463 Co462 2.216 . S
O463 C470 1.247 . S
O464 Co462 2.091 . S
O464 C470 1.261 . S
C465 O474 1.247 . S
C465 O475 1.272 . S
O466 Co462 2.004 . S
O466 C471 1.259 . S
Co467 O468 2.061 . S
Co467 O473 2.052 . S
Co467 O475 2.135 . S
O468 Co467 2.061 . S
O468 C471 1.235 . S
C469 O472 1.238 . S
C469 O473 1.241 . S
C470 O463 1.247 . S
C470 O464 1.261 . S
C471 O466 1.259 . S
C471 O468 1.235 . S
O472 Co462 2.021 . S
O472 C469 1.238 . S
O473 Co467 2.052 . S
O473 C469 1.241 . S
O474 Co462 2.137 . S
O474 C465 1.247 . S
O475 Co462 2.244 . S
O475 C465 1.272 . S
O475 Co467 2.135 . S
Co476 O477 2.216 . S
Co476 O478 2.091 . S
Co476 O480 2.004 . S
Co476 O486 2.021 . S
Co476 O488 2.137 . S
Co476 O489 2.244 . S
O477 Co476 2.216 . S
O477 C484 1.247 . S
O478 Co476 2.091 . S
O478 C484 1.261 . S
C479 O488 1.247 . S
C479 O489 1.272 . S
O480 Co476 2.004 . S
O480 C485 1.259 . S
Co481 O482 2.061 . S
Co481 O487 2.052 . S
Co481 O489 2.135 . S
O482 Co481 2.061 . S
O482 C485 1.235 . S
C483 O486 1.238 . S
C483 O487 1.241 . S
C484 O477 1.247 . S
C484 O478 1.261 . S
C485 O480 1.259 . S
C485 O482 1.235 . S
O486 Co476 2.021 . S
O486 C483 1.238 . S
O487 Co481 2.052 . S
O487 C483 1.241 . S
O488 Co476 2.137 . S
O488 C479 1.247 . S
O489 Co476 2.244 . S
O489 C479 1.272 . S
O489 Co481 2.135 . S
Co490 O491 2.216 . S
Co490 O492 2.091 . S
Co490 O494 2.004 . S
Co490 O500 2.021 . S
Co490 O502 2.137 . S
Co490 O503 2.244 . S
O491 Co490 2.216 . S
O491 C498 1.247 . S
O492 Co490 2.091 . S
O492 C498 1.261 . S
C493 O502 1.247 . S
C493 O503 1.272 . S
O494 Co490 2.004 . S
O494 C499 1.259 . S
Co495 O496 2.061 . S
Co495 O501 2.052 . S
Co495 O503 2.135 . S
O496 Co495 2.061 . S
O496 C499 1.235 . S
C497 O500 1.238 . S
C497 O501 1.241 . S
C498 O491 1.247 . S
C498 O492 1.261 . S
C499 O494 1.259 . S
C499 O496 1.235 . S
O500 Co490 2.021 . S
O500 C497 1.238 . S
O501 Co495 2.052 . S
O501 C497 1.241 . S
O502 Co490 2.137 . S
O502 C493 1.247 . S
O503 Co490 2.244 . S
O503 C493 1.272 . S
O503 Co495 2.135 . S
Co504 O505 2.216 . S
Co504 O506 2.091 . S
Co504 O508 2.004 . S
Co504 O514 2.021 . S
Co504 O516 2.137 . S
Co504 O517 2.244 . S
O505 Co504 2.216 . S
O505 C512 1.247 . S
O506 Co504 2.091 . S
O506 C512 1.261 . S
C507 O516 1.247 . S
C507 O517 1.272 . S
O508 Co504 2.004 . S
O508 C513 1.259 . S
Co509 O510 2.061 . S
Co509 O515 2.052 . S
Co509 O517 2.135 . S
O510 Co509 2.061 . S
O510 C513 1.235 . S
C511 O514 1.238 . S
C511 O515 1.241 . S
C512 O505 1.247 . S
C512 O506 1.261 . S
C513 O508 1.259 . S
C513 O510 1.235 . S
O514 Co504 2.021 . S
O514 C511 1.238 . S
O515 Co509 2.052 . S
O515 C511 1.241 . S
O516 Co504 2.137 . S
O516 C507 1.247 . S
O517 Co504 2.244 . S
O517 C507 1.272 . S
O517 Co509 2.135 . S
Co518 O519 2.216 . S
Co518 O520 2.091 . S
Co518 O522 2.004 . S
Co518 O528 2.021 . S
Co518 O530 2.137 . S
Co518 O531 2.244 . S
O519 Co518 2.216 . S
O519 C526 1.247 . S
O520 Co518 2.091 . S
O520 C526 1.261 . S
C521 O530 1.247 . S
C521 O531 1.272 . S
O522 Co518 2.004 . S
O522 C527 1.259 . S
Co523 O524 2.061 . S
Co523 O529 2.052 1_554 S
Co523 O531 2.135 1_554 S
O524 Co523 2.061 . S
O524 C527 1.235 1_554 S
C525 O528 1.238 . S
C525 O529 1.241 . S
C526 O519 1.247 . S
C526 O520 1.261 . S
C527 O522 1.259 . S
C527 O524 1.235 1_556 S
O528 Co518 2.021 . S
O528 C525 1.238 . S
O529 Co523 2.052 1_556 S
O529 C525 1.241 . S
O530 Co518 2.137 . S
O530 C521 1.247 . S
O531 Co518 2.244 . S
O531 C521 1.272 . S
O531 Co523 2.135 1_556 S
Co532 O533 2.216 . S
Co532 O534 2.091 . S
Co532 O536 2.004 . S
Co532 O542 2.021 . S
Co532 O544 2.137 . S
Co532 O545 2.244 . S
O533 Co532 2.216 . S
O533 C540 1.247 . S
O534 Co532 2.091 . S
O534 C540 1.261 . S
C535 O544 1.247 . S
C535 O545 1.272 . S
O536 Co532 2.004 . S
O536 C541 1.259 . S
Co537 O538 2.061 . S
Co537 O543 2.052 . S
Co537 O545 2.135 . S
O538 Co537 2.061 . S
O538 C541 1.235 . S
C539 O542 1.238 . S
C539 O543 1.241 . S
C540 O533 1.247 . S
C540 O534 1.261 . S
C541 O536 1.259 . S
C541 O538 1.235 . S
O542 Co532 2.021 . S
O542 C539 1.238 . S
O543 Co537 2.052 . S
O543 C539 1.241 . S
O544 Co532 2.137 . S
O544 C535 1.247 . S
O545 Co532 2.244 . S
O545 C535 1.272 . S
O545 Co537 2.135 . S
Co546 O547 2.216 . S
Co546 O548 2.091 . S
Co546 O550 2.004 . S
Co546 O556 2.021 . S
Co546 O558 2.137 . S
Co546 O559 2.244 . S
O547 Co546 2.216 . S
O547 C554 1.247 . S
O548 Co546 2.091 . S
O548 C554 1.261 . S
C549 O558 1.247 . S
C549 O559 1.272 . S
O550 Co546 2.004 . S
O550 C555 1.259 . S
Co551 O552 2.061 . S
Co551 O557 2.052 . S
Co551 O559 2.135 . S
O552 Co551 2.061 . S
O552 C555 1.235 . S
C553 O556 1.238 . S
C553 O557 1.241 . S
C554 O547 1.247 . S
C554 O548 1.261 . S
C555 O550 1.259 . S
C555 O552 1.235 . S
O556 Co546 2.021 . S
O556 C553 1.238 . S
O557 Co551 2.052 . S
O557 C553 1.241 . S
O558 Co546 2.137 . S
O558 C549 1.247 . S
O559 Co546 2.244 . S
O559 C549 1.272 . S
O559 Co551 2.135 . S
Co560 O561 2.216 . S
Co560 O562 2.091 . S
Co560 O564 2.004 . S
Co560 O570 2.021 . S
Co560 O572 2.137 . S
Co560 O573 2.244 . S
O561 Co560 2.216 . S
O561 C568 1.247 . S
O562 Co560 2.091 . S
O562 C568 1.261 . S
C563 O572 1.247 . S
C563 O573 1.272 . S
O564 Co560 2.004 . S
O564 C569 1.259 . S
Co565 O566 2.061 . S
Co565 O571 2.052 . S
Co565 O573 2.135 . S
O566 Co565 2.061 . S
O566 C569 1.235 . S
C567 O570 1.238 . S
C567 O571 1.241 . S
C568 O561 1.247 . S
C568 O562 1.261 . S
C569 O564 1.259 . S
C569 O566 1.235 . S
O570 Co560 2.021 . S
O570 C567 1.238 . S
O571 Co565 2.052 . S
O571 C567 1.241 . S
O572 Co560 2.137 . S
O572 C563 1.247 . S
O573 Co560 2.244 . S
O573 C563 1.272 . S
O573 Co565 2.135 . S
Co574 O575 2.216 . S
Co574 O576 2.091 . S
Co574 O578 2.004 . S
Co574 O584 2.021 . S
Co574 O586 2.137 . S
Co574 O587 2.244 . S
O575 Co574 2.216 . S
O575 C582 1.247 . S
O576 Co574 2.091 . S
O576 C582 1.261 . S
C577 O586 1.247 . S
C577 O587 1.272 . S
O578 Co574 2.004 . S
O578 C583 1.259 . S
Co579 O580 2.061 . S
Co579 O585 2.052 . S
Co579 O587 2.135 . S
O580 Co579 2.061 . S
O580 C583 1.235 . S
C581 O584 1.238 . S
C581 O585 1.241 . S
C582 O575 1.247 . S
C582 O576 1.261 . S
C583 O578 1.259 . S
C583 O580 1.235 . S
O584 Co574 2.021 . S
O584 C581 1.238 . S
O585 Co579 2.052 . S
O585 C581 1.241 . S
O586 Co574 2.137 . S
O586 C577 1.247 . S
O587 Co574 2.244 . S
O587 C577 1.272 . S
O587 Co579 2.135 . S
Co588 O589 2.216 . S
Co588 O590 2.091 . S
Co588 O592 2.004 . S
Co588 O598 2.021 . S
Co588 O600 2.137 . S
Co588 O601 2.244 . S
O589 Co588 2.216 . S
O589 C596 1.247 . S
O590 Co588 2.091 . S
O590 C596 1.261 . S
C591 O600 1.247 . S
C591 O601 1.272 . S
O592 Co588 2.004 . S
O592 C597 1.259 . S
Co593 O594 2.061 . S
Co593 O599 2.052 . S
Co593 O601 2.135 . S
O594 Co593 2.061 . S
O594 C597 1.235 . S
C595 O598 1.238 . S
C595 O599 1.241 . S
C596 O589 1.247 . S
C596 O590 1.261 . S
C597 O592 1.259 . S
C597 O594 1.235 . S
O598 Co588 2.021 . S
O598 C595 1.238 . S
O599 Co593 2.052 . S
O599 C595 1.241 . S
O600 Co588 2.137 . S
O600 C591 1.247 . S
O601 Co588 2.244 . S
O601 C591 1.272 . S
O601 Co593 2.135 . S
Co602 O603 2.216 . S
Co602 O604 2.091 . S
Co602 O606 2.004 . S
Co602 O612 2.021 . S
Co602 O614 2.137 . S
Co602 O615 2.244 . S
O603 Co602 2.216 . S
O603 C610 1.247 . S
O604 Co602 2.091 . S
O604 C610 1.261 . S
C605 O614 1.247 . S
C605 O615 1.272 . S
O606 Co602 2.004 . S
O606 C611 1.259 . S
Co607 O608 2.061 . S
Co607 O613 2.052 . S
Co607 O615 2.135 . S
O608 Co607 2.061 . S
O608 C611 1.235 . S
C609 O612 1.238 . S
C609 O613 1.241 . S
C610 O603 1.247 . S
C610 O604 1.261 . S
C611 O606 1.259 . S
C611 O608 1.235 . S
O612 Co602 2.021 . S
O612 C609 1.238 . S
O613 Co607 2.052 . S
O613 C609 1.241 . S
O614 Co602 2.137 . S
O614 C605 1.247 . S
O615 Co602 2.244 . S
O615 C605 1.272 . S
O615 Co607 2.135 . S
Co616 O617 2.216 . S
Co616 O618 2.091 . S
Co616 O620 2.004 . S
Co616 O626 2.021 . S
Co616 O628 2.137 . S
Co616 O629 2.244 . S
O617 Co616 2.216 . S
O617 C624 1.247 . S
O618 Co616 2.091 . S
O618 C624 1.261 . S
C619 O628 1.247 . S
C619 O629 1.272 . S
O620 Co616 2.004 . S
O620 C625 1.259 . S
Co621 O622 2.061 . S
Co621 O627 2.052 . S
Co621 O629 2.135 . S
O622 Co621 2.061 . S
O622 C625 1.235 . S
C623 O626 1.238 . S
C623 O627 1.241 . S
C624 O617 1.247 . S
C624 O618 1.261 . S
C625 O620 1.259 . S
C625 O622 1.235 . S
O626 Co616 2.021 . S
O626 C623 1.238 . S
O627 Co621 2.052 . S
O627 C623 1.241 . S
O628 Co616 2.137 . S
O628 C619 1.247 . S
O629 Co616 2.244 . S
O629 C619 1.272 . S
O629 Co621 2.135 . S
Co630 O631 2.216 1_554 S
Co630 O632 2.091 1_554 S
Co630 O634 2.004 . S
Co630 O640 2.021 1_554 S
Co630 O642 2.137 . S
Co630 O643 2.244 . S
O631 Co630 2.216 1_556 S
O631 C638 1.247 . S
O632 Co630 2.091 1_556 S
O632 C638 1.261 . S
C633 O642 1.247 . S
C633 O643 1.272 . S
O634 Co630 2.004 . S
O634 C639 1.259 . S
Co635 O636 2.061 . S
Co635 O641 2.052 1_554 S
Co635 O643 2.135 . S
O636 Co635 2.061 . S
O636 C639 1.235 . S
C637 O640 1.238 . S
C637 O641 1.241 . S
C638 O631 1.247 . S
C638 O632 1.261 . S
C639 O634 1.259 . S
C639 O636 1.235 . S
O640 Co630 2.021 1_556 S
O640 C637 1.238 . S
O641 Co635 2.052 1_556 S
O641 C637 1.241 . S
O642 Co630 2.137 . S
O642 C633 1.247 . S
O643 Co630 2.244 . S
O643 C633 1.272 . S
O643 Co635 2.135 . S
Co644 O645 2.216 . S
Co644 O646 2.091 . S
Co644 O648 2.004 . S
Co644 O654 2.021 . S
Co644 O656 2.137 . S
Co644 O657 2.244 . S
O645 Co644 2.216 . S
O645 C652 1.247 . S
O646 Co644 2.091 . S
O646 C652 1.261 . S
C647 O656 1.247 . S
C647 O657 1.272 . S
O648 Co644 2.004 . S
O648 C653 1.259 . S
Co649 O650 2.061 . S
Co649 O655 2.052 1_545 S
Co649 O657 2.135 1_545 S
O650 Co649 2.061 . S
O650 C653 1.235 1_545 S
C651 O654 1.238 . S
C651 O655 1.241 . S
C652 O645 1.247 . S
C652 O646 1.261 . S
C653 O648 1.259 . S
C653 O650 1.235 1_565 S
O654 Co644 2.021 . S
O654 C651 1.238 . S
O655 Co649 2.052 1_565 S
O655 C651 1.241 . S
O656 Co644 2.137 . S
O656 C647 1.247 . S
O657 Co644 2.244 . S
O657 C647 1.272 . S
O657 Co649 2.135 1_565 S
Co658 O659 2.216 . S
Co658 O660 2.091 . S
Co658 O662 2.004 . S
Co658 O668 2.021 . S
Co658 O670 2.137 . S
Co658 O671 2.244 . S
O659 Co658 2.216 . S
O659 C666 1.247 . S
O660 Co658 2.091 . S
O660 C666 1.261 . S
C661 O670 1.247 . S
C661 O671 1.272 . S
O662 Co658 2.004 . S
O662 C667 1.259 . S
Co663 O664 2.061 . S
Co663 O669 2.052 . S
Co663 O671 2.135 . S
O664 Co663 2.061 . S
O664 C667 1.235 . S
C665 O668 1.238 . S
C665 O669 1.241 . S
C666 O659 1.247 . S
C666 O660 1.261 . S
C667 O662 1.259 . S
C667 O664 1.235 . S
O668 Co658 2.021 . S
O668 C665 1.238 . S
O669 Co663 2.052 . S
O669 C665 1.241 . S
O670 Co658 2.137 . S
O670 C661 1.247 . S
O671 Co658 2.244 . S
O671 C661 1.272 . S
O671 Co663 2.135 . S
H672 C684 0.930 . S
H673 C686 0.930 . S
H674 C687 0.930 . S
H675 C691 0.959 . S
H676 C691 0.959 . S
H677 C691 0.961 . S
H678 C692 0.960 . S
H679 C692 0.961 . S
H680 C692 0.959 . S
H681 C695 0.929 . S
H682 C696 0.931 . S
H683 C698 0.930 . S
C684 H672 0.930 . S
C684 C685 1.399 . S
C684 C689 1.399 . S
C685 C684 1.399 . S
C685 C686 1.376 . S
C686 H673 0.930 . S
C686 C685 1.376 . S
C686 C687 1.388 . S
C687 H674 0.930 . S
C687 C686 1.388 . S
C687 C688 1.390 . S
C688 C687 1.390 . S
C688 C689 1.394 . S
C688 C694 1.465 . S
C689 C684 1.399 . S
C689 C688 1.394 . S
C689 C690 1.516 . S
C690 C689 1.516 . S
C690 C691 1.502 . S
C690 C692 1.561 . S
C690 C693 1.526 . S
C691 H675 0.959 . S
C691 H676 0.959 . S
C691 H677 0.961 . S
C691 C690 1.502 . S
C692 H678 0.960 . S
C692 H679 0.961 . S
C692 H680 0.959 . S
C692 C690 1.561 . S
C693 C690 1.526 . S
C693 C694 1.396 . S
C693 C698 1.390 . S
C694 C688 1.465 . S
C694 C693 1.396 . S
C694 C695 1.399 . S
C695 H681 0.929 . S
C695 C694 1.399 . S
C695 C696 1.385 . S
C696 H682 0.931 . S
C696 C695 1.385 . S
C696 C697 1.389 . S
C697 C696 1.389 . S
C697 C698 1.387 . S
C698 H683 0.930 . S
C698 C693 1.390 . S
C698 C697 1.387 . S
H699 C711 0.930 . S
H700 C713 0.930 . S
H701 C714 0.930 . S
H702 C718 0.959 . S
H703 C718 0.959 . S
H704 C718 0.961 . S
H705 C719 0.960 . S
H706 C719 0.961 . S
H707 C719 0.959 . S
H708 C722 0.929 . S
H709 C723 0.931 1_655 S
H710 C725 0.930 . S
C711 H699 0.930 . S
C711 C712 1.399 . S
C711 C716 1.399 . S
C712 C711 1.399 . S
C712 C713 1.376 . S
C713 H700 0.930 . S
C713 C712 1.376 . S
C713 C714 1.388 . S
C714 H701 0.930 . S
C714 C713 1.388 . S
C714 C715 1.390 . S
C715 C714 1.390 . S
C715 C716 1.394 . S
C715 C721 1.465 . S
C716 C711 1.399 . S
C716 C715 1.394 . S
C716 C717 1.516 . S
C717 C716 1.516 . S
C717 C718 1.502 . S
C717 C719 1.561 . S
C717 C720 1.526 . S
C718 H702 0.959 . S
C718 H703 0.959 . S
C718 H704 0.961 . S
C718 C717 1.502 . S
C719 H705 0.960 . S
C719 H706 0.961 . S
C719 H707 0.959 . S
C719 C717 1.561 . S
C720 C717 1.526 . S
C720 C721 1.396 . S
C720 C725 1.390 . S
C721 C715 1.465 . S
C721 C720 1.396 . S
C721 C722 1.399 . S
C722 H708 0.929 . S
C722 C721 1.399 . S
C722 C723 1.385 . S
C723 H709 0.931 1_455 S
C723 C722 1.385 . S
C723 C724 1.389 1_455 S
C724 C723 1.389 1_655 S
C724 C725 1.387 1_655 S
C725 H710 0.930 . S
C725 C720 1.390 . S
C725 C724 1.387 1_455 S
H726 C738 0.930 . S
H727 C740 0.930 . S
H728 C741 0.930 . S
H729 C745 0.959 . S
H730 C745 0.959 . S
H731 C745 0.961 . S
H732 C746 0.960 . S
H733 C746 0.961 . S
H734 C746 0.959 . S
H735 C749 0.929 . S
H736 C750 0.931 . S
H737 C752 0.930 . S
C738 H726 0.930 . S
C738 C739 1.399 . S
C738 C743 1.399 . S
C739 C738 1.399 . S
C739 C740 1.376 . S
C740 H727 0.930 . S
C740 C739 1.376 . S
C740 C741 1.388 . S
C741 H728 0.930 . S
C741 C740 1.388 . S
C741 C742 1.390 . S
C742 C741 1.390 . S
C742 C743 1.394 . S
C742 C748 1.465 . S
C743 C738 1.399 . S
C743 C742 1.394 . S
C743 C744 1.516 . S
C744 C743 1.516 . S
C744 C745 1.502 . S
C744 C746 1.561 . S
C744 C747 1.526 . S
C745 H729 0.959 . S
C745 H730 0.959 . S
C745 H731 0.961 . S
C745 C744 1.502 . S
C746 H732 0.960 . S
C746 H733 0.961 . S
C746 H734 0.959 . S
C746 C744 1.561 . S
C747 C744 1.526 . S
C747 C748 1.396 . S
C747 C752 1.390 . S
C748 C742 1.465 . S
C748 C747 1.396 . S
C748 C749 1.399 . S
C749 H735 0.929 . S
C749 C748 1.399 . S
C749 C750 1.385 . S
C750 H736 0.931 . S
C750 C749 1.385 . S
C750 C751 1.389 . S
C751 C750 1.389 . S
C751 C752 1.387 . S
C752 H737 0.930 . S
C752 C747 1.390 . S
C752 C751 1.387 . S
H753 C765 0.930 1_554 S
H754 C767 0.930 . S
H755 C768 0.930 . S
H756 C772 0.959 . S
H757 C772 0.959 . S
H758 C772 0.961 . S
H759 C773 0.960 . S
H760 C773 0.961 . S
H761 C773 0.959 . S
H762 C776 0.929 . S
H763 C777 0.931 . S
H764 C779 0.930 . S
C765 H753 0.930 1_556 S
C765 C766 1.399 . S
C765 C770 1.399 . S
C766 C765 1.399 . S
C766 C767 1.376 . S
C767 H754 0.930 . S
C767 C766 1.376 . S
C767 C768 1.388 . S
C768 H755 0.930 . S
C768 C767 1.388 . S
C768 C769 1.390 . S
C769 C768 1.390 . S
C769 C770 1.394 . S
C769 C775 1.465 . S
C770 C765 1.399 . S
C770 C769 1.394 . S
C770 C771 1.516 1_556 S
C771 C770 1.516 1_554 S
C771 C772 1.502 . S
C771 C773 1.561 . S
C771 C774 1.521 1_554 S
C772 H756 0.959 . S
C772 H757 0.959 . S
C772 H758 0.961 . S
C772 C771 1.502 . S
C773 H759 0.960 . S
C773 H760 0.961 . S
C773 H761 0.959 . S
C773 C771 1.561 . S
C774 C771 1.521 1_556 S
C774 C775 1.405 . S
C774 C779 1.387 1_556 S
C775 C769 1.465 . S
C775 C774 1.405 . S
C775 C776 1.399 . S
C776 H762 0.929 . S
C776 C775 1.399 . S
C776 C777 1.385 . S
C777 H763 0.931 . S
C777 C776 1.385 . S
C777 C778 1.389 . S
C778 C777 1.389 . S
C778 C779 1.387 1_556 S
C779 H764 0.930 . S
C779 C774 1.387 1_554 S
C779 C778 1.387 1_554 S
H780 C792 0.930 . S
H781 C794 0.930 . S
H782 C795 0.930 . S
H783 C799 0.959 . S
H784 C799 0.959 . S
H785 C799 0.961 . S
H786 C800 0.960 . S
H787 C800 0.961 . S
H788 C800 0.959 . S
H789 C803 0.929 . S
H790 C804 0.931 . S
H791 C806 0.930 . S
C792 H780 0.930 . S
C792 C793 1.399 . S
C792 C797 1.399 . S
C793 C792 1.399 . S
C793 C794 1.376 . S
C794 H781 0.930 . S
C794 C793 1.376 . S
C794 C795 1.388 . S
C795 H782 0.930 . S
C795 C794 1.388 . S
C795 C796 1.390 . S
C796 C795 1.390 . S
C796 C797 1.394 . S
C796 C802 1.465 . S
C797 C792 1.399 . S
C797 C796 1.394 . S
C797 C798 1.516 . S
C798 C797 1.516 . S
C798 C799 1.502 . S
C798 C800 1.561 . S
C798 C801 1.526 . S
C799 H783 0.959 . S
C799 H784 0.959 . S
C799 H785 0.961 . S
C799 C798 1.502 . S
C800 H786 0.960 . S
C800 H787 0.961 . S
C800 H788 0.959 . S
C800 C798 1.561 . S
C801 C798 1.526 . S
C801 C802 1.396 . S
C801 C806 1.390 . S
C802 C796 1.465 . S
C802 C801 1.396 . S
C802 C803 1.399 . S
C803 H789 0.929 . S
C803 C802 1.399 . S
C803 C804 1.385 . S
C804 H790 0.931 . S
C804 C803 1.385 . S
C804 C805 1.389 . S
C805 C804 1.389 . S
C805 C806 1.387 . S
C806 H791 0.930 . S
C806 C801 1.390 . S
C806 C805 1.387 . S
H807 C819 0.930 . S
H808 C821 0.930 . S
H809 C822 0.930 . S
H810 C826 0.959 . S
H811 C826 0.959 . S
H812 C826 0.961 . S
H813 C827 0.960 . S
H814 C827 0.961 . S
H815 C827 0.959 . S
H816 C830 0.929 . S
H817 C831 0.931 . S
H818 C833 0.930 . S
C819 H807 0.930 . S
C819 C820 1.399 . S
C819 C824 1.399 . S
C820 C819 1.399 . S
C820 C821 1.376 . S
C821 H808 0.930 . S
C821 C820 1.376 . S
C821 C822 1.388 . S
C822 H809 0.930 . S
C822 C821 1.388 . S
C822 C823 1.390 . S
C823 C822 1.390 . S
C823 C824 1.394 . S
C823 C829 1.465 . S
C824 C819 1.399 . S
C824 C823 1.394 . S
C824 C825 1.516 . S
C825 C824 1.516 . S
C825 C826 1.502 . S
C825 C827 1.561 . S
C825 C828 1.526 . S
C826 H810 0.959 . S
C826 H811 0.959 . S
C826 H812 0.961 . S
C826 C825 1.502 . S
C827 H813 0.960 . S
C827 H814 0.961 . S
C827 H815 0.959 . S
C827 C825 1.561 . S
C828 C825 1.526 . S
C828 C829 1.396 . S
C828 C833 1.390 . S
C829 C823 1.465 . S
C829 C828 1.396 . S
C829 C830 1.399 . S
C830 H816 0.929 . S
C830 C829 1.399 . S
C830 C831 1.385 . S
C831 H817 0.931 . S
C831 C830 1.385 . S
C831 C832 1.389 . S
C832 C831 1.389 . S
C832 C833 1.387 . S
C833 H818 0.930 . S
C833 C828 1.390 . S
C833 C832 1.387 . S
H834 C846 0.930 . S
H835 C848 0.930 . S
H836 C849 0.930 . S
H837 C853 0.959 . S
H838 C853 0.959 . S
H839 C853 0.961 . S
H840 C854 0.960 . S
H841 C854 0.961 . S
H842 C854 0.959 . S
H843 C857 0.929 . S
H844 C858 0.931 . S
H845 C860 0.930 . S
C846 H834 0.930 . S
C846 C847 1.399 . S
C846 C851 1.399 . S
C847 C846 1.399 . S
C847 C848 1.376 . S
C848 H835 0.930 . S
C848 C847 1.376 . S
C848 C849 1.388 . S
C849 H836 0.930 . S
C849 C848 1.388 . S
C849 C850 1.390 . S
C850 C849 1.390 . S
C850 C851 1.394 . S
C850 C856 1.465 . S
C851 C846 1.399 . S
C851 C850 1.394 . S
C851 C852 1.516 . S
C852 C851 1.516 . S
C852 C853 1.502 . S
C852 C854 1.561 . S
C852 C855 1.526 . S
C853 H837 0.959 . S
C853 H838 0.959 . S
C853 H839 0.961 . S
C853 C852 1.502 . S
C854 H840 0.960 . S
C854 H841 0.961 . S
C854 H842 0.959 . S
C854 C852 1.561 . S
C855 C852 1.526 . S
C855 C856 1.396 . S
C855 C860 1.390 . S
C856 C850 1.465 . S
C856 C855 1.396 . S
C856 C857 1.399 . S
C857 H843 0.929 . S
C857 C856 1.399 . S
C857 C858 1.385 . S
C858 H844 0.931 . S
C858 C857 1.385 . S
C858 C859 1.389 . S
C859 C858 1.389 . S
C859 C860 1.387 . S
C860 H845 0.930 . S
C860 C855 1.390 . S
C860 C859 1.387 . S
H861 C873 0.930 . S
H862 C875 0.930 . S
H863 C876 0.930 . S
H864 C880 0.959 . S
H865 C880 0.959 . S
H866 C880 0.961 . S
H867 C881 0.960 . S
H868 C881 0.961 . S
H869 C881 0.959 . S
H870 C884 0.929 . S
H871 C885 0.931 . S
H872 C887 0.930 . S
C873 H861 0.930 . S
C873 C874 1.399 . S
C873 C878 1.399 . S
C874 C873 1.399 . S
C874 C875 1.376 . S
C875 H862 0.930 . S
C875 C874 1.376 . S
C875 C876 1.388 . S
C876 H863 0.930 . S
C876 C875 1.388 . S
C876 C877 1.390 . S
C877 C876 1.390 . S
C877 C878 1.394 . S
C877 C883 1.465 . S
C878 C873 1.399 . S
C878 C877 1.394 . S
C878 C879 1.516 . S
C879 C878 1.516 . S
C879 C880 1.502 . S
C879 C881 1.561 . S
C879 C882 1.526 . S
C880 H864 0.959 . S
C880 H865 0.959 . S
C880 H866 0.961 . S
C880 C879 1.502 . S
C881 H867 0.960 . S
C881 H868 0.961 . S
C881 H869 0.959 . S
C881 C879 1.561 . S
C882 C879 1.526 . S
C882 C883 1.396 . S
C882 C887 1.390 . S
C883 C877 1.465 . S
C883 C882 1.396 . S
C883 C884 1.399 . S
C884 H870 0.929 . S
C884 C883 1.399 . S
C884 C885 1.385 . S
C885 H871 0.931 . S
C885 C884 1.385 . S
C885 C886 1.389 . S
C886 C885 1.389 . S
C886 C887 1.387 . S
C887 H872 0.930 . S
C887 C882 1.390 . S
C887 C886 1.387 . S
H888 C900 0.930 . S
H889 C902 0.930 . S
H890 C903 0.930 . S
H891 C907 0.959 . S
H892 C907 0.959 . S
H893 C907 0.961 . S
H894 C908 0.960 . S
H895 C908 0.961 . S
H896 C908 0.959 . S
H897 C911 0.929 . S
H898 C912 0.931 . S
H899 C914 0.930 . S
C900 H888 0.930 . S
C900 C901 1.399 . S
C900 C905 1.399 . S
C901 C900 1.399 . S
C901 C902 1.376 . S
C902 H889 0.930 . S
C902 C901 1.376 . S
C902 C903 1.388 . S
C903 H890 0.930 . S
C903 C902 1.388 . S
C903 C904 1.390 . S
C904 C903 1.390 . S
C904 C905 1.394 . S
C904 C910 1.465 . S
C905 C900 1.399 . S
C905 C904 1.394 . S
C905 C906 1.516 . S
C906 C905 1.516 . S
C906 C907 1.502 . S
C906 C908 1.561 . S
C906 C909 1.526 . S
C907 H891 0.959 . S
C907 H892 0.959 . S
C907 H893 0.961 . S
C907 C906 1.502 . S
C908 H894 0.960 . S
C908 H895 0.961 . S
C908 H896 0.959 . S
C908 C906 1.561 . S
C909 C906 1.526 . S
C909 C910 1.396 . S
C909 C914 1.390 . S
C910 C904 1.465 . S
C910 C909 1.396 . S
C910 C911 1.399 . S
C911 H897 0.929 . S
C911 C910 1.399 . S
C911 C912 1.385 . S
C912 H898 0.931 . S
C912 C911 1.385 . S
C912 C913 1.389 . S
C913 C912 1.389 . S
C913 C914 1.387 . S
C914 H899 0.930 . S
C914 C909 1.390 . S
C914 C913 1.387 . S
H915 C927 0.930 . S
H916 C929 0.930 . S
H917 C930 0.930 . S
H918 C934 0.959 . S
H919 C934 0.959 . S
H920 C934 0.961 . S
H921 C935 0.960 . S
H922 C935 0.961 . S
H923 C935 0.959 1_545 S
H924 C938 0.929 . S
H925 C939 0.916 1_545 S
H926 C941 0.930 . S
C927 H915 0.930 . S
C927 C928 1.399 . S
C927 C932 1.399 . S
C928 C927 1.399 . S
C928 C929 1.376 1_565 S
C929 H916 0.930 . S
C929 C928 1.376 1_545 S
C929 C930 1.388 . S
C930 H917 0.930 . S
C930 C929 1.388 . S
C930 C931 1.390 1_545 S
C931 C930 1.390 1_565 S
C931 C932 1.394 . S
C931 C937 1.465 . S
C932 C927 1.399 . S
C932 C931 1.394 . S
C932 C933 1.516 . S
C933 C932 1.516 . S
C933 C934 1.502 . S
C933 C935 1.561 . S
C933 C936 1.526 . S
C934 H918 0.959 . S
C934 H919 0.959 . S
C934 H920 0.961 . S
C934 C933 1.502 . S
C935 H921 0.960 . S
C935 H922 0.961 . S
C935 H923 0.959 1_565 S
C935 C933 1.561 . S
C936 C933 1.526 . S
C936 C937 1.396 . S
C936 C941 1.390 . S
C937 C931 1.465 . S
C937 C936 1.396 . S
C937 C938 1.399 1_565 S
C938 H924 0.929 . S
C938 C937 1.399 1_545 S
C938 C939 1.385 1_545 S
C939 H925 0.916 1_565 S
C939 C938 1.385 1_565 S
C939 C940 1.389 . S
C940 C939 1.389 . S
C940 C941 1.387 . S
C941 H926 0.930 . S
C941 C936 1.390 . S
C941 C940 1.387 . S
H942 C954 0.930 . S
H943 C956 0.930 . S
H944 C957 0.930 . S
H945 C961 0.959 . S
H946 C961 0.959 . S
H947 C961 0.961 . S
H948 C962 0.960 . S
H949 C962 0.961 . S
H950 C962 0.959 . S
H951 C965 0.929 . S
H952 C966 0.931 . S
H953 C968 0.930 . S
C954 H942 0.930 . S
C954 C955 1.399 . S
C954 C959 1.399 . S
C955 C954 1.399 . S
C955 C956 1.376 . S
C956 H943 0.930 . S
C956 C955 1.376 . S
C956 C957 1.388 . S
C957 H944 0.930 . S
C957 C956 1.388 . S
C957 C958 1.390 . S
C958 C957 1.390 . S
C958 C959 1.394 . S
C958 C964 1.465 . S
C959 C954 1.399 . S
C959 C958 1.394 . S
C959 C960 1.516 . S
C960 C959 1.516 . S
C960 C961 1.502 . S
C960 C962 1.561 . S
C960 C963 1.526 . S
C961 H945 0.959 . S
C961 H946 0.959 . S
C961 H947 0.961 . S
C961 C960 1.502 . S
C962 H948 0.960 . S
C962 H949 0.961 . S
C962 H950 0.959 . S
C962 C960 1.561 . S
C963 C960 1.526 . S
C963 C964 1.396 . S
C963 C968 1.390 . S
C964 C958 1.465 . S
C964 C963 1.396 . S
C964 C965 1.399 . S
C965 H951 0.929 . S
C965 C964 1.399 . S
C965 C966 1.385 . S
C966 H952 0.931 . S
C966 C965 1.385 . S
C966 C967 1.389 . S
C967 C966 1.389 . S
C967 C968 1.387 . S
C968 H953 0.930 . S
C968 C963 1.390 . S
C968 C967 1.387 . S
H969 C981 0.930 . S
H970 C983 0.930 . S
H971 C984 0.930 . S
H972 C988 0.959 . S
H973 C988 0.959 . S
H974 C988 0.961 . S
H975 C989 0.960 . S
H976 C989 0.961 . S
H977 C989 0.959 . S
H978 C992 0.929 . S
H979 C993 0.931 . S
H980 C995 0.930 . S
C981 H969 0.930 . S
C981 C982 1.399 . S
C981 C986 1.399 . S
C982 C981 1.399 . S
C982 C983 1.376 . S
C983 H970 0.930 . S
C983 C982 1.376 . S
C983 C984 1.388 . S
C984 H971 0.930 . S
C984 C983 1.388 . S
C984 C985 1.390 . S
C985 C984 1.390 . S
C985 C986 1.394 . S
C985 C991 1.465 . S
C986 C981 1.399 . S
C986 C985 1.394 . S
C986 C987 1.516 . S
C987 C986 1.516 . S
C987 C988 1.502 . S
C987 C989 1.561 . S
C987 C990 1.526 . S
C988 H972 0.959 . S
C988 H973 0.959 . S
C988 H974 0.961 . S
C988 C987 1.502 . S
C989 H975 0.960 . S
C989 H976 0.961 . S
C989 H977 0.959 . S
C989 C987 1.561 . S
C990 C987 1.526 . S
C990 C991 1.396 . S
C990 C995 1.390 . S
C991 C985 1.465 . S
C991 C990 1.396 . S
C991 C992 1.399 . S
C992 H978 0.929 . S
C992 C991 1.399 . S
C992 C993 1.385 . S
C993 H979 0.931 . S
C993 C992 1.385 . S
C993 C994 1.389 . S
C994 C993 1.389 . S
C994 C995 1.387 . S
C995 H980 0.930 . S
C995 C990 1.390 . S
C995 C994 1.387 . S
H996 C1008 0.930 . S
H997 C1010 0.930 . S
H998 C1011 0.930 . S
H999 C1015 0.959 . S
H1000 C1015 0.959 . S
H1001 C1015 0.961 . S
H1002 C1016 0.960 . S
H1003 C1016 0.961 . S
H1004 C1016 0.959 . S
H1005 C1019 0.929 . S
H1006 C1020 0.931 . S
H1007 C1022 0.930 . S
C1008 H996 0.930 . S
C1008 C1009 1.399 . S
C1008 C1013 1.399 . S
C1009 C1008 1.399 . S
C1009 C1010 1.376 . S
C1010 H997 0.930 . S
C1010 C1009 1.376 . S
C1010 C1011 1.388 . S
C1011 H998 0.930 . S
C1011 C1010 1.388 . S
C1011 C1012 1.390 . S
C1012 C1011 1.390 . S
C1012 C1013 1.394 . S
C1012 C1018 1.465 . S
C1013 C1008 1.399 . S
C1013 C1012 1.394 . S
C1013 C1014 1.516 . S
C1014 C1013 1.516 . S
C1014 C1015 1.502 . S
C1014 C1016 1.561 . S
C1014 C1017 1.526 . S
C1015 H999 0.959 . S
C1015 H1000 0.959 . S
C1015 H1001 0.961 . S
C1015 C1014 1.502 . S
C1016 H1002 0.960 . S
C1016 H1003 0.961 . S
C1016 H1004 0.959 . S
C1016 C1014 1.561 . S
C1017 C1014 1.526 . S
C1017 C1018 1.396 . S
C1017 C1022 1.390 . S
C1018 C1012 1.465 . S
C1018 C1017 1.396 . S
C1018 C1019 1.399 . S
C1019 H1005 0.929 . S
C1019 C1018 1.399 . S
C1019 C1020 1.385 . S
C1020 H1006 0.931 . S
C1020 C1019 1.385 . S
C1020 C1021 1.389 . S
C1021 C1020 1.389 . S
C1021 C1022 1.387 . S
C1022 H1007 0.930 . S
C1022 C1017 1.390 . S
C1022 C1021 1.387 . S
H1023 C1035 0.930 . S
H1024 C1037 0.930 . S
H1025 C1038 0.930 . S
H1026 C1042 0.959 . S
H1027 C1042 0.959 . S
H1028 C1042 0.961 . S
H1029 C1043 0.960 . S
H1030 C1043 0.961 . S
H1031 C1043 0.959 . S
H1032 C1046 0.929 . S
H1033 C1047 0.931 . S
H1034 C1049 0.930 . S
C1035 H1023 0.930 . S
C1035 C1036 1.399 . S
C1035 C1040 1.399 . S
C1036 C1035 1.399 . S
C1036 C1037 1.376 . S
C1037 H1024 0.930 . S
C1037 C1036 1.376 . S
C1037 C1038 1.388 . S
C1038 H1025 0.930 . S
C1038 C1037 1.388 . S
C1038 C1039 1.390 . S
C1039 C1038 1.390 . S
C1039 C1040 1.394 . S
C1039 C1045 1.465 . S
C1040 C1035 1.399 . S
C1040 C1039 1.394 . S
C1040 C1041 1.516 . S
C1041 C1040 1.516 . S
C1041 C1042 1.502 . S
C1041 C1043 1.561 . S
C1041 C1044 1.526 . S
C1042 H1026 0.959 . S
C1042 H1027 0.959 . S
C1042 H1028 0.961 . S
C1042 C1041 1.502 . S
C1043 H1029 0.960 . S
C1043 H1030 0.961 . S
C1043 H1031 0.959 . S
C1043 C1041 1.561 . S
C1044 C1041 1.526 . S
C1044 C1045 1.396 . S
C1044 C1049 1.390 . S
C1045 C1039 1.465 . S
C1045 C1044 1.396 . S
C1045 C1046 1.399 . S
C1046 H1032 0.929 . S
C1046 C1045 1.399 . S
C1046 C1047 1.385 . S
C1047 H1033 0.931 . S
C1047 C1046 1.385 . S
C1047 C1048 1.389 . S
C1048 C1047 1.389 . S
C1048 C1049 1.387 . S
C1049 H1034 0.930 . S
C1049 C1044 1.390 . S
C1049 C1048 1.387 . S
H1050 C1062 0.930 . S
H1051 C1064 0.930 . S
H1052 C1065 0.930 1_455 S
H1053 C1069 0.959 . S
H1054 C1069 0.959 . S
H1055 C1069 0.961 . S
H1056 C1070 0.961 1_655 S
H1057 C1070 0.961 1_655 S
H1058 C1070 0.953 . S
H1059 C1073 0.929 . S
H1060 C1074 0.951 . S
H1061 C1076 0.930 . S
C1062 H1050 0.930 . S
C1062 C1063 1.399 . S
C1062 C1067 1.399 . S
C1063 C1062 1.399 . S
C1063 C1064 1.376 . S
C1064 H1051 0.930 . S
C1064 C1063 1.376 . S
C1064 C1065 1.388 . S
C1065 H1052 0.930 1_655 S
C1065 C1064 1.388 . S
C1065 C1066 1.390 . S
C1066 C1065 1.390 . S
C1066 C1067 1.394 . S
C1066 C1072 1.465 . S
C1067 C1062 1.399 . S
C1067 C1066 1.394 . S
C1067 C1068 1.516 . S
C1068 C1067 1.516 . S
C1068 C1069 1.502 . S
C1068 C1070 1.566 1_655 S
C1068 C1071 1.526 . S
C1069 H1053 0.959 . S
C1069 H1054 0.959 . S
C1069 H1055 0.961 . S
C1069 C1068 1.502 . S
C1070 H1056 0.961 1_455 S
C1070 H1057 0.961 1_455 S
C1070 H1058 0.953 . S
C1070 C1068 1.566 1_455 S
C1071 C1068 1.526 . S
C1071 C1072 1.396 . S
C1071 C1076 1.390 . S
C1072 C1066 1.465 . S
C1072 C1071 1.396 . S
C1072 C1073 1.399 1_655 S
C1073 H1059 0.929 . S
C1073 C1072 1.399 1_455 S
C1073 C1074 1.388 . S
C1074 H1060 0.951 . S
C1074 C1073 1.388 . S
C1074 C1075 1.371 1_455 S
C1075 C1074 1.371 1_655 S
C1075 C1076 1.387 . S
C1076 H1061 0.930 . S
C1076 C1071 1.390 . S
C1076 C1075 1.387 . S
H1077 C1089 0.930 . S
H1078 C1091 0.930 . S
H1079 C1092 0.930 . S
H1080 C1096 0.959 . S
H1081 C1096 0.959 . S
H1082 C1096 0.961 . S
H1083 C1097 0.960 . S
H1084 C1097 0.961 . S
H1085 C1097 0.959 . S
H1086 C1100 0.929 . S
H1087 C1101 0.931 . S
H1088 C1103 0.930 . S
C1089 H1077 0.930 . S
C1089 C1090 1.399 . S
C1089 C1094 1.399 . S
C1090 C1089 1.399 . S
C1090 C1091 1.376 . S
C1091 H1078 0.930 . S
C1091 C1090 1.376 . S
C1091 C1092 1.388 . S
C1092 H1079 0.930 . S
C1092 C1091 1.388 . S
C1092 C1093 1.390 . S
C1093 C1092 1.390 . S
C1093 C1094 1.394 . S
C1093 C1099 1.465 . S
C1094 C1089 1.399 . S
C1094 C1093 1.394 . S
C1094 C1095 1.516 . S
C1095 C1094 1.516 . S
C1095 C1096 1.502 . S
C1095 C1097 1.561 . S
C1095 C1098 1.526 . S
C1096 H1080 0.959 . S
C1096 H1081 0.959 . S
C1096 H1082 0.961 . S
C1096 C1095 1.502 . S
C1097 H1083 0.960 . S
C1097 H1084 0.961 . S
C1097 H1085 0.959 . S
C1097 C1095 1.561 . S
C1098 C1095 1.526 . S
C1098 C1099 1.396 . S
C1098 C1103 1.390 . S
C1099 C1093 1.465 . S
C1099 C1098 1.396 . S
C1099 C1100 1.399 . S
C1100 H1086 0.929 . S
C1100 C1099 1.399 . S
C1100 C1101 1.385 . S
C1101 H1087 0.931 . S
C1101 C1100 1.385 . S
C1101 C1102 1.389 . S
C1102 C1101 1.389 . S
C1102 C1103 1.387 . S
C1103 H1088 0.930 . S
C1103 C1098 1.390 . S
C1103 C1102 1.387 . S
H1104 C1116 0.930 . S
H1105 C1118 0.930 . S
H1106 C1119 0.930 . S
H1107 C1123 0.959 . S
H1108 C1123 0.959 . S
H1109 C1123 0.961 . S
H1110 C1124 0.960 . S
H1111 C1124 0.961 . S
H1112 C1124 0.959 . S
H1113 C1127 0.929 . S
H1114 C1128 0.931 . S
H1115 C1130 0.930 . S
C1116 H1104 0.930 . S
C1116 C1117 1.399 . S
C1116 C1121 1.399 . S
C1117 C1116 1.399 . S
C1117 C1118 1.376 . S
C1118 H1105 0.930 . S
C1118 C1117 1.376 . S
C1118 C1119 1.388 . S
C1119 H1106 0.930 . S
C1119 C1118 1.388 . S
C1119 C1120 1.390 . S
C1120 C1119 1.390 . S
C1120 C1121 1.394 . S
C1120 C1126 1.465 . S
C1121 C1116 1.399 . S
C1121 C1120 1.394 . S
C1121 C1122 1.516 . S
C1122 C1121 1.516 . S
C1122 C1123 1.502 . S
C1122 C1124 1.561 . S
C1122 C1125 1.526 . S
C1123 H1107 0.959 . S
C1123 H1108 0.959 . S
C1123 H1109 0.961 . S
C1123 C1122 1.502 . S
C1124 H1110 0.960 . S
C1124 H1111 0.961 . S
C1124 H1112 0.959 . S
C1124 C1122 1.561 . S
C1125 C1122 1.526 . S
C1125 C1126 1.396 . S
C1125 C1130 1.390 . S
C1126 C1120 1.465 . S
C1126 C1125 1.396 . S
C1126 C1127 1.399 . S
C1127 H1113 0.929 . S
C1127 C1126 1.399 . S
C1127 C1128 1.385 . S
C1128 H1114 0.931 . S
C1128 C1127 1.385 . S
C1128 C1129 1.389 . S
C1129 C1128 1.389 . S
C1129 C1130 1.387 . S
C1130 H1115 0.930 . S
C1130 C1125 1.390 . S
C1130 C1129 1.387 . S
H1131 C1143 0.930 . S
H1132 C1145 0.930 . S
H1133 C1146 0.930 . S
H1134 C1150 0.959 . S
H1135 C1150 0.959 . S
H1136 C1150 0.961 . S
H1137 C1151 0.960 . S
H1138 C1151 0.961 . S
H1139 C1151 0.959 . S
H1140 C1154 0.929 . S
H1141 C1155 0.931 . S
H1142 C1157 0.930 . S
C1143 H1131 0.930 . S
C1143 C1144 1.399 . S
C1143 C1148 1.399 . S
C1144 C1143 1.399 . S
C1144 C1145 1.376 . S
C1145 H1132 0.930 . S
C1145 C1144 1.376 . S
C1145 C1146 1.388 . S
C1146 H1133 0.930 . S
C1146 C1145 1.388 . S
C1146 C1147 1.390 . S
C1147 C1146 1.390 . S
C1147 C1148 1.394 . S
C1147 C1153 1.465 . S
C1148 C1143 1.399 . S
C1148 C1147 1.394 . S
C1148 C1149 1.516 . S
C1149 C1148 1.516 . S
C1149 C1150 1.502 . S
C1149 C1151 1.561 . S
C1149 C1152 1.526 . S
C1150 H1134 0.959 . S
C1150 H1135 0.959 . S
C1150 H1136 0.961 . S
C1150 C1149 1.502 . S
C1151 H1137 0.960 . S
C1151 H1138 0.961 . S
C1151 H1139 0.959 . S
C1151 C1149 1.561 . S
C1152 C1149 1.526 . S
C1152 C1153 1.396 . S
C1152 C1157 1.390 . S
C1153 C1147 1.465 . S
C1153 C1152 1.396 . S
C1153 C1154 1.399 . S
C1154 H1140 0.929 . S
C1154 C1153 1.399 . S
C1154 C1155 1.385 . S
C1155 H1141 0.931 . S
C1155 C1154 1.385 . S
C1155 C1156 1.389 . S
C1156 C1155 1.389 . S
C1156 C1157 1.387 . S
C1157 H1142 0.930 . S
C1157 C1152 1.390 . S
C1157 C1156 1.387 . S
H1158 C1170 0.930 . S
H1159 C1172 0.930 . S
H1160 C1173 0.930 . S
H1161 C1177 0.959 . S
H1162 C1177 0.959 . S
H1163 C1177 0.961 . S
H1164 C1178 0.960 . S
H1165 C1178 0.961 . S
H1166 C1178 0.959 . S
H1167 C1181 0.929 . S
H1168 C1182 0.931 . S
H1169 C1184 0.930 . S
C1170 H1158 0.930 . S
C1170 C1171 1.399 . S
C1170 C1175 1.399 . S
C1171 C1170 1.399 . S
C1171 C1172 1.376 . S
C1172 H1159 0.930 . S
C1172 C1171 1.376 . S
C1172 C1173 1.388 . S
C1173 H1160 0.930 . S
C1173 C1172 1.388 . S
C1173 C1174 1.390 . S
C1174 C1173 1.390 . S
C1174 C1175 1.394 . S
C1174 C1180 1.465 . S
C1175 C1170 1.399 . S
C1175 C1174 1.394 . S
C1175 C1176 1.516 . S
C1176 C1175 1.516 . S
C1176 C1177 1.502 . S
C1176 C1178 1.561 . S
C1176 C1179 1.526 . S
C1177 H1161 0.959 . S
C1177 H1162 0.959 . S
C1177 H1163 0.961 . S
C1177 C1176 1.502 . S
C1178 H1164 0.960 . S
C1178 H1165 0.961 . S
C1178 H1166 0.959 . S
C1178 C1176 1.561 . S
C1179 C1176 1.526 . S
C1179 C1180 1.396 . S
C1179 C1184 1.390 . S
C1180 C1174 1.465 . S
C1180 C1179 1.396 . S
C1180 C1181 1.399 . S
C1181 H1167 0.929 . S
C1181 C1180 1.399 . S
C1181 C1182 1.385 . S
C1182 H1168 0.931 . S
C1182 C1181 1.385 . S
C1182 C1183 1.389 . S
C1183 C1182 1.389 . S
C1183 C1184 1.387 . S
C1184 H1169 0.930 . S
C1184 C1179 1.390 . S
C1184 C1183 1.387 . S
H1185 C1197 0.930 . S
H1186 C1199 0.930 . S
H1187 C1200 0.930 . S
H1188 C1204 0.959 . S
H1189 C1204 0.959 . S
H1190 C1204 0.961 . S
H1191 C1205 0.960 . S
H1192 C1205 0.961 . S
H1193 C1205 0.959 . S
H1194 C1208 0.929 . S
H1195 C1209 0.931 . S
H1196 C1211 0.930 . S
C1197 H1185 0.930 . S
C1197 C1198 1.399 . S
C1197 C1202 1.399 . S
C1198 C1197 1.399 . S
C1198 C1199 1.376 . S
C1199 H1186 0.930 . S
C1199 C1198 1.376 . S
C1199 C1200 1.388 . S
C1200 H1187 0.930 . S
C1200 C1199 1.388 . S
C1200 C1201 1.390 . S
C1201 C1200 1.390 . S
C1201 C1202 1.394 . S
C1201 C1207 1.465 . S
C1202 C1197 1.399 . S
C1202 C1201 1.394 . S
C1202 C1203 1.516 . S
C1203 C1202 1.516 . S
C1203 C1204 1.502 . S
C1203 C1205 1.561 . S
C1203 C1206 1.526 . S
C1204 H1188 0.959 . S
C1204 H1189 0.959 . S
C1204 H1190 0.961 . S
C1204 C1203 1.502 . S
C1205 H1191 0.960 . S
C1205 H1192 0.961 . S
C1205 H1193 0.959 . S
C1205 C1203 1.561 . S
C1206 C1203 1.526 . S
C1206 C1207 1.396 . S
C1206 C1211 1.390 . S
C1207 C1201 1.465 . S
C1207 C1206 1.396 . S
C1207 C1208 1.399 . S
C1208 H1194 0.929 . S
C1208 C1207 1.399 . S
C1208 C1209 1.385 . S
C1209 H1195 0.931 . S
C1209 C1208 1.385 . S
C1209 C1210 1.389 . S
C1210 C1209 1.389 . S
C1210 C1211 1.387 . S
C1211 H1196 0.930 . S
C1211 C1206 1.390 . S
C1211 C1210 1.387 . S
H1212 C1224 0.930 . S
H1213 C1226 0.930 1_556 S
H1214 C1227 0.930 . S
H1215 C1231 0.959 . S
H1216 C1231 0.959 . S
H1217 C1231 0.961 . S
H1218 C1232 0.960 . S
H1219 C1232 0.961 . S
H1220 C1232 0.959 . S
H1221 C1235 0.929 . S
H1222 C1236 0.931 . S
H1223 C1238 0.930 . S
C1224 H1212 0.930 . S
C1224 C1225 1.399 1_554 S
C1224 C1229 1.399 . S
C1225 C1224 1.399 1_556 S
C1225 C1226 1.376 1_556 S
C1226 H1213 0.930 1_554 S
C1226 C1225 1.376 1_554 S
C1226 C1227 1.388 . S
C1227 H1214 0.930 . S
C1227 C1226 1.388 . S
C1227 C1228 1.390 . S
C1228 C1227 1.390 . S
C1228 C1229 1.394 . S
C1228 C1234 1.465 . S
C1229 C1224 1.399 . S
C1229 C1228 1.394 . S
C1229 C1230 1.516 . S
C1230 C1229 1.516 . S
C1230 C1231 1.502 . S
C1230 C1232 1.561 . S
C1230 C1233 1.526 . S
C1231 H1215 0.959 . S
C1231 H1216 0.959 . S
C1231 H1217 0.961 . S
C1231 C1230 1.502 . S
C1232 H1218 0.960 . S
C1232 H1219 0.961 . S
C1232 H1220 0.959 . S
C1232 C1230 1.561 . S
C1233 C1230 1.526 . S
C1233 C1234 1.396 . S
C1233 C1238 1.390 . S
C1234 C1228 1.465 . S
C1234 C1233 1.396 . S
C1234 C1235 1.399 . S
C1235 H1221 0.929 . S
C1235 C1234 1.399 . S
C1235 C1236 1.385 . S
C1236 H1222 0.931 . S
C1236 C1235 1.385 . S
C1236 C1237 1.389 . S
C1237 C1236 1.389 . S
C1237 C1238 1.387 . S
C1238 H1223 0.930 . S
C1238 C1233 1.390 . S
C1238 C1237 1.387 . S
H1239 C1251 0.930 . S
H1240 C1253 0.930 . S
H1241 C1254 0.930 . S
H1242 C1258 0.959 . S
H1243 C1258 0.959 . S
H1244 C1258 0.961 . S
H1245 C1259 0.960 . S
H1246 C1259 0.961 . S
H1247 C1259 0.959 . S
H1248 C1262 0.929 . S
H1249 C1263 0.931 . S
H1250 C1265 0.930 . S
C1251 H1239 0.930 . S
C1251 C1252 1.399 . S
C1251 C1256 1.399 . S
C1252 C1251 1.399 . S
C1252 C1253 1.376 . S
C1253 H1240 0.930 . S
C1253 C1252 1.376 . S
C1253 C1254 1.388 . S
C1254 H1241 0.930 . S
C1254 C1253 1.388 . S
C1254 C1255 1.390 . S
C1255 C1254 1.390 . S
C1255 C1256 1.394 . S
C1255 C1261 1.465 . S
C1256 C1251 1.399 . S
C1256 C1255 1.394 . S
C1256 C1257 1.516 . S
C1257 C1256 1.516 . S
C1257 C1258 1.502 . S
C1257 C1259 1.561 . S
C1257 C1260 1.526 . S
C1258 H1242 0.959 . S
C1258 H1243 0.959 . S
C1258 H1244 0.961 . S
C1258 C1257 1.502 . S
C1259 H1245 0.960 . S
C1259 H1246 0.961 . S
C1259 H1247 0.959 . S
C1259 C1257 1.561 . S
C1260 C1257 1.526 . S
C1260 C1261 1.396 . S
C1260 C1265 1.390 . S
C1261 C1255 1.465 . S
C1261 C1260 1.396 . S
C1261 C1262 1.399 . S
C1262 H1248 0.929 . S
C1262 C1261 1.399 . S
C1262 C1263 1.385 . S
C1263 H1249 0.931 . S
C1263 C1262 1.385 . S
C1263 C1264 1.389 . S
C1264 C1263 1.389 . S
C1264 C1265 1.387 . S
C1265 H1250 0.930 . S
C1265 C1260 1.390 . S
C1265 C1264 1.387 . S
H1266 C1278 0.930 . S
H1267 C1280 0.930 . S
H1268 C1281 0.930 . S
H1269 C1285 0.959 . S
H1270 C1285 0.959 . S
H1271 C1285 0.961 . S
H1272 C1286 0.960 . S
H1273 C1286 0.961 . S
H1274 C1286 0.959 . S
H1275 C1289 0.929 . S
H1276 C1290 0.931 . S
H1277 C1292 0.930 . S
C1278 H1266 0.930 . S
C1278 C1279 1.399 . S
C1278 C1283 1.399 . S
C1279 C1278 1.399 . S
C1279 C1280 1.376 . S
C1280 H1267 0.930 . S
C1280 C1279 1.376 . S
C1280 C1281 1.388 . S
C1281 H1268 0.930 . S
C1281 C1280 1.388 . S
C1281 C1282 1.390 . S
C1282 C1281 1.390 . S
C1282 C1283 1.394 . S
C1282 C1288 1.465 . S
C1283 C1278 1.399 . S
C1283 C1282 1.394 . S
C1283 C1284 1.516 . S
C1284 C1283 1.516 . S
C1284 C1285 1.502 . S
C1284 C1286 1.561 . S
C1284 C1287 1.526 . S
C1285 H1269 0.959 . S
C1285 H1270 0.959 . S
C1285 H1271 0.961 . S
C1285 C1284 1.502 . S
C1286 H1272 0.960 . S
C1286 H1273 0.961 . S
C1286 H1274 0.959 . S
C1286 C1284 1.561 . S
C1287 C1284 1.526 . S
C1287 C1288 1.396 . S
C1287 C1292 1.390 . S
C1288 C1282 1.465 . S
C1288 C1287 1.396 . S
C1288 C1289 1.399 . S
C1289 H1275 0.929 . S
C1289 C1288 1.399 . S
C1289 C1290 1.385 . S
C1290 H1276 0.931 . S
C1290 C1289 1.385 . S
C1290 C1291 1.389 . S
C1291 C1290 1.389 . S
C1291 C1292 1.387 . S
C1292 H1277 0.930 . S
C1292 C1287 1.390 . S
C1292 C1291 1.387 . S
H1293 C1305 0.930 . S
H1294 C1307 0.930 . S
H1295 C1308 0.930 . S
H1296 C1312 0.959 . S
H1297 C1312 0.959 . S
H1298 C1312 0.961 . S
H1299 C1313 0.960 . S
H1300 C1313 0.961 . S
H1301 C1313 0.959 . S
H1302 C1316 0.929 . S
H1303 C1317 0.928 . S
H1304 C1319 0.930 . S
C1305 H1293 0.930 . S
C1305 C1306 1.399 . S
C1305 C1310 1.399 . S
C1306 C1305 1.399 . S
C1306 C1307 1.376 . S
C1307 H1294 0.930 . S
C1307 C1306 1.376 . S
C1307 C1308 1.388 . S
C1308 H1295 0.930 . S
C1308 C1307 1.388 . S
C1308 C1309 1.390 . S
C1309 C1308 1.390 . S
C1309 C1310 1.394 . S
C1309 C1315 1.465 . S
C1310 C1305 1.399 . S
C1310 C1309 1.394 . S
C1310 C1311 1.516 . S
C1311 C1310 1.516 . S
C1311 C1312 1.502 . S
C1311 C1313 1.561 . S
C1311 C1314 1.526 . S
C1312 H1296 0.959 . S
C1312 H1297 0.959 . S
C1312 H1298 0.961 . S
C1312 C1311 1.502 . S
C1313 H1299 0.960 . S
C1313 H1300 0.961 . S
C1313 H1301 0.959 . S
C1313 C1311 1.561 . S
C1314 C1311 1.526 . S
C1314 C1315 1.396 . S
C1314 C1319 1.390 . S
C1315 C1309 1.465 . S
C1315 C1314 1.396 . S
C1315 C1316 1.399 . S
C1316 H1302 0.929 . S
C1316 C1315 1.399 . S
C1316 C1317 1.389 1_545 S
C1317 H1303 0.928 . S
C1317 C1316 1.389 1_565 S
C1317 C1318 1.388 . S
C1318 C1317 1.388 . S
C1318 C1319 1.387 1_565 S
C1319 H1304 0.930 . S
C1319 C1314 1.390 . S
C1319 C1318 1.387 1_545 S
H1320 C1332 0.930 . S
H1321 C1334 0.930 . S
H1322 C1335 0.930 . S
H1323 C1339 0.959 . S
H1324 C1339 0.959 . S
H1325 C1339 0.961 . S
H1326 C1340 0.960 . S
H1327 C1340 0.961 . S
H1328 C1340 0.959 . S
H1329 C1343 0.929 . S
H1330 C1344 0.931 . S
H1331 C1346 0.930 . S
C1332 H1320 0.930 . S
C1332 C1333 1.399 . S
C1332 C1337 1.399 . S
C1333 C1332 1.399 . S
C1333 C1334 1.376 . S
C1334 H1321 0.930 . S
C1334 C1333 1.376 . S
C1334 C1335 1.388 . S
C1335 H1322 0.930 . S
C1335 C1334 1.388 . S
C1335 C1336 1.390 . S
C1336 C1335 1.390 . S
C1336 C1337 1.394 . S
C1336 C1342 1.465 . S
C1337 C1332 1.399 . S
C1337 C1336 1.394 . S
C1337 C1338 1.516 . S
C1338 C1337 1.516 . S
C1338 C1339 1.502 . S
C1338 C1340 1.561 1_655 S
C1338 C1341 1.526 . S
C1339 H1323 0.959 . S
C1339 H1324 0.959 . S
C1339 H1325 0.961 . S
C1339 C1338 1.502 . S
C1340 H1326 0.960 . S
C1340 H1327 0.961 . S
C1340 H1328 0.959 . S
C1340 C1338 1.561 1_455 S
C1341 C1338 1.526 . S
C1341 C1342 1.396 . S
C1341 C1346 1.390 . S
C1342 C1336 1.465 . S
C1342 C1341 1.396 . S
C1342 C1343 1.399 . S
C1343 H1329 0.929 . S
C1343 C1342 1.399 . S
C1343 C1344 1.385 . S
C1344 H1330 0.931 . S
C1344 C1343 1.385 . S
C1344 C1345 1.389 . S
C1345 C1344 1.389 . S
C1345 C1346 1.387 . S
C1346 H1331 0.930 . S
C1346 C1341 1.390 . S
C1346 C1345 1.387 . S
H1347 C1359 0.930 . S
H1348 C1361 0.930 . S
H1349 C1362 0.930 . S
H1350 C1366 0.959 . S
H1351 C1366 0.959 . S
H1352 C1366 0.961 . S
H1353 C1367 0.960 . S
H1354 C1367 0.961 . S
H1355 C1367 0.959 . S
H1356 C1370 0.929 . S
H1357 C1371 0.931 . S
H1358 C1373 0.930 . S
C1359 H1347 0.930 . S
C1359 C1360 1.399 . S
C1359 C1364 1.399 . S
C1360 C1359 1.399 . S
C1360 C1361 1.376 . S
C1361 H1348 0.930 . S
C1361 C1360 1.376 . S
C1361 C1362 1.388 . S
C1362 H1349 0.930 . S
C1362 C1361 1.388 . S
C1362 C1363 1.390 . S
C1363 C1362 1.390 . S
C1363 C1364 1.394 . S
C1363 C1369 1.465 . S
C1364 C1359 1.399 . S
C1364 C1363 1.394 . S
C1364 C1365 1.516 . S
C1365 C1364 1.516 . S
C1365 C1366 1.502 . S
C1365 C1367 1.561 . S
C1365 C1368 1.526 . S
C1366 H1350 0.959 . S
C1366 H1351 0.959 . S
C1366 H1352 0.961 . S
C1366 C1365 1.502 . S
C1367 H1353 0.960 . S
C1367 H1354 0.961 . S
C1367 H1355 0.959 . S
C1367 C1365 1.561 . S
C1368 C1365 1.526 . S
C1368 C1369 1.396 . S
C1368 C1373 1.390 . S
C1369 C1363 1.465 . S
C1369 C1368 1.396 . S
C1369 C1370 1.399 . S
C1370 H1356 0.929 . S
C1370 C1369 1.399 . S
C1370 C1371 1.385 . S
C1371 H1357 0.931 . S
C1371 C1370 1.385 . S
C1371 C1372 1.389 . S
C1372 C1371 1.389 . S
C1372 C1373 1.387 . S
C1373 H1358 0.930 . S
C1373 C1368 1.390 . S
C1373 C1372 1.387 . S
H1374 C1386 0.930 . S
H1375 C1388 0.930 . S
H1376 C1389 0.930 . S
H1377 C1393 0.959 . S
H1378 C1393 0.959 . S
H1379 C1393 0.961 . S
H1380 C1394 0.960 . S
H1381 C1394 0.961 . S
H1382 C1394 0.959 . S
H1383 C1397 0.929 . S
H1384 C1398 0.931 . S
H1385 C1400 0.930 . S
C1386 H1374 0.930 . S
C1386 C1387 1.399 . S
C1386 C1391 1.399 . S
C1387 C1386 1.399 . S
C1387 C1388 1.376 . S
C1388 H1375 0.930 . S
C1388 C1387 1.376 . S
C1388 C1389 1.388 . S
C1389 H1376 0.930 . S
C1389 C1388 1.388 . S
C1389 C1390 1.390 . S
C1390 C1389 1.390 . S
C1390 C1391 1.394 . S
C1390 C1396 1.465 . S
C1391 C1386 1.399 . S
C1391 C1390 1.394 . S
C1391 C1392 1.516 . S
C1392 C1391 1.516 . S
C1392 C1393 1.502 . S
C1392 C1394 1.561 . S
C1392 C1395 1.526 . S
C1393 H1377 0.959 . S
C1393 H1378 0.959 . S
C1393 H1379 0.961 . S
C1393 C1392 1.502 . S
C1394 H1380 0.960 . S
C1394 H1381 0.961 . S
C1394 H1382 0.959 . S
C1394 C1392 1.561 . S
C1395 C1392 1.526 . S
C1395 C1396 1.396 . S
C1395 C1400 1.390 . S
C1396 C1390 1.465 . S
C1396 C1395 1.396 . S
C1396 C1397 1.399 . S
C1397 H1383 0.929 . S
C1397 C1396 1.399 . S
C1397 C1398 1.385 . S
C1398 H1384 0.931 . S
C1398 C1397 1.385 . S
C1398 C1399 1.389 . S
C1399 C1398 1.389 . S
C1399 C1400 1.387 . S
C1400 H1385 0.930 . S
C1400 C1395 1.390 . S
C1400 C1399 1.387 . S
H1401 C1413 0.930 . S
H1402 C1415 0.930 . S
H1403 C1416 0.930 . S
H1404 C1420 0.959 . S
H1405 C1420 0.959 . S
H1406 C1420 0.961 . S
H1407 C1421 0.960 . S
H1408 C1421 0.961 . S
H1409 C1421 0.959 . S
H1410 C1424 0.929 . S
H1411 C1425 0.931 . S
H1412 C1427 0.930 . S
C1413 H1401 0.930 . S
C1413 C1414 1.399 . S
C1413 C1418 1.399 . S
C1414 C1413 1.399 . S
C1414 C1415 1.376 . S
C1415 H1402 0.930 . S
C1415 C1414 1.376 . S
C1415 C1416 1.388 . S
C1416 H1403 0.930 . S
C1416 C1415 1.388 . S
C1416 C1417 1.390 . S
C1417 C1416 1.390 . S
C1417 C1418 1.394 . S
C1417 C1423 1.465 . S
C1418 C1413 1.399 . S
C1418 C1417 1.394 . S
C1418 C1419 1.516 . S
C1419 C1418 1.516 . S
C1419 C1420 1.502 . S
C1419 C1421 1.561 . S
C1419 C1422 1.526 . S
C1420 H1404 0.959 . S
C1420 H1405 0.959 . S
C1420 H1406 0.961 . S
C1420 C1419 1.502 . S
C1421 H1407 0.960 . S
C1421 H1408 0.961 . S
C1421 H1409 0.959 . S
C1421 C1419 1.561 . S
C1422 C1419 1.526 . S
C1422 C1423 1.396 . S
C1422 C1427 1.390 . S
C1423 C1417 1.465 . S
C1423 C1422 1.396 . S
C1423 C1424 1.399 . S
C1424 H1410 0.929 . S
C1424 C1423 1.399 . S
C1424 C1425 1.385 . S
C1425 H1411 0.931 . S
C1425 C1424 1.385 . S
C1425 C1426 1.389 . S
C1426 C1425 1.389 . S
C1426 C1427 1.387 . S
C1427 H1412 0.930 . S
C1427 C1422 1.390 . S
C1427 C1426 1.387 . S
H1428 C1440 0.930 . S
H1429 C1442 0.966 . S
H1430 C1443 0.930 . S
H1431 C1447 0.959 . S
H1432 C1447 0.959 . S
H1433 C1447 0.961 . S
H1434 C1448 0.960 . S
H1435 C1448 0.961 . S
H1436 C1448 0.959 . S
H1437 C1451 0.919 1_545 S
H1438 C1452 0.931 1_545 S
H1439 C1454 0.930 . S
C1440 H1428 0.930 . S
C1440 C1441 1.399 . S
C1440 C1445 1.399 . S
C1441 C1440 1.399 . S
C1441 C1442 1.340 1_565 S
C1442 H1429 0.966 . S
C1442 C1441 1.340 1_545 S
C1442 C1443 1.394 . S
C1443 H1430 0.930 . S
C1443 C1442 1.394 . S
C1443 C1444 1.390 1_545 S
C1444 C1443 1.390 1_565 S
C1444 C1445 1.394 . S
C1444 C1450 1.465 . S
C1445 C1440 1.399 . S
C1445 C1444 1.394 . S
C1445 C1446 1.516 . S
C1446 C1445 1.516 . S
C1446 C1447 1.502 . S
C1446 C1448 1.561 . S
C1446 C1449 1.526 . S
C1447 H1431 0.959 . S
C1447 H1432 0.959 . S
C1447 H1433 0.961 . S
C1447 C1446 1.502 . S
C1448 H1434 0.960 . S
C1448 H1435 0.961 . S
C1448 H1436 0.959 . S
C1448 C1446 1.561 . S
C1449 C1446 1.526 . S
C1449 C1450 1.396 . S
C1449 C1454 1.390 . S
C1450 C1444 1.465 . S
C1450 C1449 1.396 . S
C1450 C1451 1.407 . S
C1451 H1437 0.919 1_565 S
C1451 C1450 1.407 . S
C1451 C1452 1.388 . S
C1452 H1438 0.931 1_565 S
C1452 C1451 1.388 . S
C1452 C1453 1.389 . S
C1453 C1452 1.389 . S
C1453 C1454 1.387 . S
C1454 H1439 0.930 . S
C1454 C1449 1.390 . S
C1454 C1453 1.387 . S
H1455 C1467 0.930 . S
H1456 C1469 0.930 . S
H1457 C1470 0.930 . S
H1458 C1474 0.959 . S
H1459 C1474 0.959 . S
H1460 C1474 0.961 . S
H1461 C1475 0.960 . S
H1462 C1475 0.961 . S
H1463 C1475 0.959 . S
H1464 C1478 0.929 . S
H1465 C1479 0.931 . S
H1466 C1481 0.930 . S
C1467 H1455 0.930 . S
C1467 C1468 1.399 . S
C1467 C1472 1.399 . S
C1468 C1467 1.399 . S
C1468 C1469 1.376 . S
C1469 H1456 0.930 . S
C1469 C1468 1.376 . S
C1469 C1470 1.388 . S
C1470 H1457 0.930 . S
C1470 C1469 1.388 . S
C1470 C1471 1.390 . S
C1471 C1470 1.390 . S
C1471 C1472 1.394 . S
C1471 C1477 1.465 . S
C1472 C1467 1.399 . S
C1472 C1471 1.394 . S
C1472 C1473 1.516 . S
C1473 C1472 1.516 . S
C1473 C1474 1.502 . S
C1473 C1475 1.561 . S
C1473 C1476 1.526 . S
C1474 H1458 0.959 . S
C1474 H1459 0.959 . S
C1474 H1460 0.961 . S
C1474 C1473 1.502 . S
C1475 H1461 0.960 . S
C1475 H1462 0.961 . S
C1475 H1463 0.959 . S
C1475 C1473 1.561 . S
C1476 C1473 1.526 . S
C1476 C1477 1.396 . S
C1476 C1481 1.390 . S
C1477 C1471 1.465 . S
C1477 C1476 1.396 . S
C1477 C1478 1.399 . S
C1478 H1464 0.929 . S
C1478 C1477 1.399 . S
C1478 C1479 1.385 . S
C1479 H1465 0.931 . S
C1479 C1478 1.385 . S
C1479 C1480 1.389 . S
C1480 C1479 1.389 . S
C1480 C1481 1.387 . S
C1481 H1466 0.930 . S
C1481 C1476 1.390 . S
C1481 C1480 1.387 . S
H1482 C1494 0.930 . S
H1483 C1496 0.930 . S
H1484 C1497 0.930 . S
H1485 C1501 0.959 . S
H1486 C1501 0.959 . S
H1487 C1501 0.961 . S
H1488 C1502 0.960 . S
H1489 C1502 0.961 . S
H1490 C1502 0.959 . S
H1491 C1505 0.929 . S
H1492 C1506 0.931 . S
H1493 C1508 0.930 . S
C1494 H1482 0.930 . S
C1494 C1495 1.399 . S
C1494 C1499 1.399 . S
C1495 C1494 1.399 . S
C1495 C1496 1.376 . S
C1496 H1483 0.930 . S
C1496 C1495 1.376 . S
C1496 C1497 1.388 . S
C1497 H1484 0.930 . S
C1497 C1496 1.388 . S
C1497 C1498 1.390 . S
C1498 C1497 1.390 . S
C1498 C1499 1.394 . S
C1498 C1504 1.465 . S
C1499 C1494 1.399 . S
C1499 C1498 1.394 . S
C1499 C1500 1.516 . S
C1500 C1499 1.516 . S
C1500 C1501 1.502 . S
C1500 C1502 1.561 . S
C1500 C1503 1.526 . S
C1501 H1485 0.959 . S
C1501 H1486 0.959 . S
C1501 H1487 0.961 . S
C1501 C1500 1.502 . S
C1502 H1488 0.960 . S
C1502 H1489 0.961 . S
C1502 H1490 0.959 . S
C1502 C1500 1.561 . S
C1503 C1500 1.526 . S
C1503 C1504 1.396 . S
C1503 C1508 1.390 . S
C1504 C1498 1.465 . S
C1504 C1503 1.396 . S
C1504 C1505 1.399 . S
C1505 H1491 0.929 . S
C1505 C1504 1.399 . S
C1505 C1506 1.385 . S
C1506 H1492 0.931 . S
C1506 C1505 1.385 . S
C1506 C1507 1.389 . S
C1507 C1506 1.389 . S
C1507 C1508 1.387 . S
C1508 H1493 0.930 . S
C1508 C1503 1.390 . S
C1508 C1507 1.387 . S
H1509 C1521 0.930 . S
H1510 C1523 0.930 . S
H1511 C1524 0.930 . S
H1512 C1528 0.959 . S
H1513 C1528 0.959 . S
H1514 C1528 0.961 . S
H1515 C1529 0.960 . S
H1516 C1529 0.961 . S
H1517 C1529 0.959 . S
H1518 C1532 0.929 . S
H1519 C1533 0.931 . S
H1520 C1535 0.930 . S
C1521 H1509 0.930 . S
C1521 C1522 1.399 . S
C1521 C1526 1.399 . S
C1522 C1521 1.399 . S
C1522 C1523 1.376 . S
C1523 H1510 0.930 . S
C1523 C1522 1.376 . S
C1523 C1524 1.388 . S
C1524 H1511 0.930 . S
C1524 C1523 1.388 . S
C1524 C1525 1.390 . S
C1525 C1524 1.390 . S
C1525 C1526 1.394 . S
C1525 C1531 1.465 . S
C1526 C1521 1.399 . S
C1526 C1525 1.394 . S
C1526 C1527 1.516 . S
C1527 C1526 1.516 . S
C1527 C1528 1.502 . S
C1527 C1529 1.561 . S
C1527 C1530 1.526 . S
C1528 H1512 0.959 . S
C1528 H1513 0.959 . S
C1528 H1514 0.961 . S
C1528 C1527 1.502 . S
C1529 H1515 0.960 . S
C1529 H1516 0.961 . S
C1529 H1517 0.959 . S
C1529 C1527 1.561 . S
C1530 C1527 1.526 . S
C1530 C1531 1.396 . S
C1530 C1535 1.390 . S
C1531 C1525 1.465 . S
C1531 C1530 1.396 . S
C1531 C1532 1.399 . S
C1532 H1518 0.929 . S
C1532 C1531 1.399 . S
C1532 C1533 1.385 . S
C1533 H1519 0.931 . S
C1533 C1532 1.385 . S
C1533 C1534 1.389 . S
C1534 C1533 1.389 . S
C1534 C1535 1.387 . S
C1535 H1520 0.930 . S
C1535 C1530 1.390 . S
C1535 C1534 1.387 . S
H1536 C1548 0.930 . S
H1537 C1550 0.930 . S
H1538 C1551 0.930 . S
H1539 C1555 0.959 . S
H1540 C1555 0.959 . S
H1541 C1555 0.961 . S
H1542 C1556 0.960 . S
H1543 C1556 0.961 . S
H1544 C1556 0.959 . S
H1545 C1559 0.929 . S
H1546 C1560 0.931 . S
H1547 C1562 0.930 . S
C1548 H1536 0.930 . S
C1548 C1549 1.399 . S
C1548 C1553 1.399 . S
C1549 C1548 1.399 . S
C1549 C1550 1.376 . S
C1550 H1537 0.930 . S
C1550 C1549 1.376 . S
C1550 C1551 1.388 . S
C1551 H1538 0.930 . S
C1551 C1550 1.388 . S
C1551 C1552 1.390 . S
C1552 C1551 1.390 . S
C1552 C1553 1.394 . S
C1552 C1558 1.465 . S
C1553 C1548 1.399 . S
C1553 C1552 1.394 . S
C1553 C1554 1.516 . S
C1554 C1553 1.516 . S
C1554 C1555 1.502 . S
C1554 C1556 1.561 . S
C1554 C1557 1.526 . S
C1555 H1539 0.959 . S
C1555 H1540 0.959 . S
C1555 H1541 0.961 . S
C1555 C1554 1.502 . S
C1556 H1542 0.960 . S
C1556 H1543 0.961 . S
C1556 H1544 0.959 . S
C1556 C1554 1.561 . S
C1557 C1554 1.526 . S
C1557 C1558 1.396 . S
C1557 C1562 1.390 . S
C1558 C1552 1.465 . S
C1558 C1557 1.396 . S
C1558 C1559 1.399 . S
C1559 H1545 0.929 . S
C1559 C1558 1.399 . S
C1559 C1560 1.385 . S
C1560 H1546 0.931 . S
C1560 C1559 1.385 . S
C1560 C1561 1.389 . S
C1561 C1560 1.389 . S
C1561 C1562 1.387 . S
C1562 H1547 0.930 . S
C1562 C1557 1.390 . S
C1562 C1561 1.387 . S
H1563 C1575 0.930 . S
H1564 C1577 0.930 . S
H1565 C1578 0.930 . S
H1566 C1582 0.959 . S
H1567 C1582 0.959 . S
H1568 C1582 0.961 . S
H1569 C1583 0.960 . S
H1570 C1583 0.961 . S
H1571 C1583 0.959 . S
H1572 C1586 0.929 . S
H1573 C1587 0.931 . S
H1574 C1589 0.930 . S
C1575 H1563 0.930 . S
C1575 C1576 1.399 . S
C1575 C1580 1.399 . S
C1576 C1575 1.399 . S
C1576 C1577 1.376 . S
C1577 H1564 0.930 . S
C1577 C1576 1.376 . S
C1577 C1578 1.388 . S
C1578 H1565 0.930 . S
C1578 C1577 1.388 . S
C1578 C1579 1.390 . S
C1579 C1578 1.390 . S
C1579 C1580 1.394 . S
C1579 C1585 1.465 . S
C1580 C1575 1.399 . S
C1580 C1579 1.394 . S
C1580 C1581 1.516 . S
C1581 C1580 1.516 . S
C1581 C1582 1.502 . S
C1581 C1583 1.561 . S
C1581 C1584 1.526 . S
C1582 H1566 0.959 . S
C1582 H1567 0.959 . S
C1582 H1568 0.961 . S
C1582 C1581 1.502 . S
C1583 H1569 0.960 . S
C1583 H1570 0.961 . S
C1583 H1571 0.959 . S
C1583 C1581 1.561 . S
C1584 C1581 1.526 . S
C1584 C1585 1.396 . S
C1584 C1589 1.390 . S
C1585 C1579 1.465 . S
C1585 C1584 1.396 . S
C1585 C1586 1.399 . S
C1586 H1572 0.929 . S
C1586 C1585 1.399 . S
C1586 C1587 1.385 . S
C1587 H1573 0.931 . S
C1587 C1586 1.385 . S
C1587 C1588 1.389 . S
C1588 C1587 1.389 . S
C1588 C1589 1.387 . S
C1589 H1574 0.930 . S
C1589 C1584 1.390 . S
C1589 C1588 1.387 . S
H1590 C1602 0.930 . S
H1591 C1604 0.930 . S
H1592 C1605 0.930 . S
H1593 C1609 0.959 . S
H1594 C1609 0.959 . S
H1595 C1609 0.961 . S
H1596 C1610 0.982 . S
H1597 C1610 0.983 . S
H1598 C1610 0.966 . S
H1599 C1613 0.929 . S
H1600 C1614 0.931 . S
H1601 C1616 0.930 . S
C1602 H1590 0.930 . S
C1602 C1603 1.399 . S
C1602 C1607 1.399 . S
C1603 C1602 1.399 . S
C1603 C1604 1.376 . S
C1604 H1591 0.930 . S
C1604 C1603 1.376 . S
C1604 C1605 1.388 . S
C1605 H1592 0.930 . S
C1605 C1604 1.388 . S
C1605 C1606 1.390 . S
C1606 C1605 1.390 . S
C1606 C1607 1.394 . S
C1606 C1612 1.465 . S
C1607 C1602 1.399 . S
C1607 C1606 1.394 . S
C1607 C1608 1.516 . S
C1608 C1607 1.516 . S
C1608 C1609 1.502 . S
C1608 C1610 1.513 1_565 S
C1608 C1611 1.526 . S
C1609 H1593 0.959 . S
C1609 H1594 0.959 . S
C1609 H1595 0.961 . S
C1609 C1608 1.502 . S
C1610 H1596 0.982 . S
C1610 H1597 0.983 . S
C1610 H1598 0.966 . S
C1610 C1608 1.513 1_545 S
C1611 C1608 1.526 . S
C1611 C1612 1.396 . S
C1611 C1616 1.390 . S
C1612 C1606 1.465 . S
C1612 C1611 1.396 . S
C1612 C1613 1.399 . S
C1613 H1599 0.929 . S
C1613 C1612 1.399 . S
C1613 C1614 1.385 . S
C1614 H1600 0.931 . S
C1614 C1613 1.385 . S
C1614 C1615 1.389 . S
C1615 C1614 1.389 . S
C1615 C1616 1.387 . S
C1616 H1601 0.930 . S
C1616 C1611 1.390 . S
C1616 C1615 1.387 . S
H1617 C1629 0.930 1_554 S
H1618 C1631 0.930 . S
H1619 C1632 0.930 . S
H1620 C1636 0.959 . S
H1621 C1636 0.959 . S
H1622 C1636 0.961 . S
H1623 C1637 0.960 . S
H1624 C1637 0.961 . S
H1625 C1637 0.959 . S
H1626 C1640 0.929 . S
H1627 C1641 0.931 . S
H1628 C1643 0.930 1_554 S
C1629 H1617 0.930 1_556 S
C1629 C1630 1.399 . S
C1629 C1634 1.399 . S
C1630 C1629 1.399 . S
C1630 C1631 1.376 . S
C1631 H1618 0.930 . S
C1631 C1630 1.376 . S
C1631 C1632 1.388 . S
C1632 H1619 0.930 . S
C1632 C1631 1.388 . S
C1632 C1633 1.390 . S
C1633 C1632 1.390 . S
C1633 C1634 1.394 . S
C1633 C1639 1.465 . S
C1634 C1629 1.399 . S
C1634 C1633 1.394 . S
C1634 C1635 1.516 1_556 S
C1635 C1634 1.516 1_554 S
C1635 C1636 1.502 . S
C1635 C1637 1.561 . S
C1635 C1638 1.526 1_554 S
C1636 H1620 0.959 . S
C1636 H1621 0.959 . S
C1636 H1622 0.961 . S
C1636 C1635 1.502 . S
C1637 H1623 0.960 . S
C1637 H1624 0.961 . S
C1637 H1625 0.959 . S
C1637 C1635 1.561 . S
C1638 C1635 1.526 1_556 S
C1638 C1639 1.396 . S
C1638 C1643 1.390 . S
C1639 C1633 1.465 . S
C1639 C1638 1.396 . S
C1639 C1640 1.399 . S
C1640 H1626 0.929 . S
C1640 C1639 1.399 . S
C1640 C1641 1.385 . S
C1641 H1627 0.931 . S
C1641 C1640 1.385 . S
C1641 C1642 1.389 . S
C1642 C1641 1.389 . S
C1642 C1643 1.387 . S
C1643 H1628 0.930 1_556 S
C1643 C1638 1.390 . S
C1643 C1642 1.387 . S
H1644 C1656 0.930 . S
H1645 C1658 0.930 . S
H1646 C1659 0.930 . S
H1647 C1663 0.959 . S
H1648 C1663 0.959 . S
H1649 C1663 0.961 . S
H1650 C1664 0.960 . S
H1651 C1664 0.961 . S
H1652 C1664 0.959 . S
H1653 C1667 0.929 . S
H1654 C1668 0.931 . S
H1655 C1670 0.930 . S
C1656 H1644 0.930 . S
C1656 C1657 1.399 . S
C1656 C1661 1.399 . S
C1657 C1656 1.399 . S
C1657 C1658 1.376 . S
C1658 H1645 0.930 . S
C1658 C1657 1.376 . S
C1658 C1659 1.388 . S
C1659 H1646 0.930 . S
C1659 C1658 1.388 . S
C1659 C1660 1.390 . S
C1660 C1659 1.390 . S
C1660 C1661 1.394 . S
C1660 C1666 1.465 . S
C1661 C1656 1.399 . S
C1661 C1660 1.394 . S
C1661 C1662 1.516 . S
C1662 C1661 1.516 . S
C1662 C1663 1.502 . S
C1662 C1664 1.561 . S
C1662 C1665 1.526 . S
C1663 H1647 0.959 . S
C1663 H1648 0.959 . S
C1663 H1649 0.961 . S
C1663 C1662 1.502 . S
C1664 H1650 0.960 . S
C1664 H1651 0.961 . S
C1664 H1652 0.959 . S
C1664 C1662 1.561 . S
C1665 C1662 1.526 . S
C1665 C1666 1.396 . S
C1665 C1670 1.390 . S
C1666 C1660 1.465 . S
C1666 C1665 1.396 . S
C1666 C1667 1.399 . S
C1667 H1653 0.929 . S
C1667 C1666 1.399 . S
C1667 C1668 1.385 . S
C1668 H1654 0.931 . S
C1668 C1667 1.385 . S
C1668 C1669 1.389 . S
C1669 C1668 1.389 . S
C1669 C1670 1.387 . S
C1670 H1655 0.930 . S
C1670 C1665 1.390 . S
C1670 C1669 1.387 . S
H1671 C1683 0.930 . S
H1672 C1685 0.930 . S
H1673 C1686 0.930 . S
H1674 C1690 0.959 . S
H1675 C1690 0.959 . S
H1676 C1690 0.961 . S
H1677 C1691 0.960 . S
H1678 C1691 0.961 . S
H1679 C1691 0.959 . S
H1680 C1694 0.929 . S
H1681 C1695 0.931 . S
H1682 C1697 0.930 . S
C1683 H1671 0.930 . S
C1683 C1684 1.399 . S
C1683 C1688 1.399 . S
C1684 C1683 1.399 . S
C1684 C1685 1.376 . S
C1685 H1672 0.930 . S
C1685 C1684 1.376 . S
C1685 C1686 1.388 . S
C1686 H1673 0.930 . S
C1686 C1685 1.388 . S
C1686 C1687 1.390 . S
C1687 C1686 1.390 . S
C1687 C1688 1.394 . S
C1687 C1693 1.465 . S
C1688 C1683 1.399 . S
C1688 C1687 1.394 . S
C1688 C1689 1.516 . S
C1689 C1688 1.516 . S
C1689 C1690 1.502 . S
C1689 C1691 1.561 . S
C1689 C1692 1.526 . S
C1690 H1674 0.959 . S
C1690 H1675 0.959 . S
C1690 H1676 0.961 . S
C1690 C1689 1.502 . S
C1691 H1677 0.960 . S
C1691 H1678 0.961 . S
C1691 H1679 0.959 . S
C1691 C1689 1.561 . S
C1692 C1689 1.526 . S
C1692 C1693 1.396 . S
C1692 C1697 1.390 . S
C1693 C1687 1.465 . S
C1693 C1692 1.396 . S
C1693 C1694 1.399 . S
C1694 H1680 0.929 . S
C1694 C1693 1.399 . S
C1694 C1695 1.385 . S
C1695 H1681 0.931 . S
C1695 C1694 1.385 . S
C1695 C1696 1.389 . S
C1696 C1695 1.389 . S
C1696 C1697 1.387 . S
C1697 H1682 0.930 . S
C1697 C1692 1.390 . S
C1697 C1696 1.387 . S
H1698 C1710 0.930 . S
H1699 C1712 0.930 . S
H1700 C1713 0.930 . S
H1701 C1717 0.959 . S
H1702 C1717 0.959 . S
H1703 C1717 0.961 . S
H1704 C1718 0.960 . S
H1705 C1718 0.961 . S
H1706 C1718 0.959 . S
H1707 C1721 0.929 . S
H1708 C1722 0.931 . S
H1709 C1724 0.930 . S
C1710 H1698 0.930 . S
C1710 C1711 1.399 . S
C1710 C1715 1.399 . S
C1711 C1710 1.399 . S
C1711 C1712 1.376 . S
C1712 H1699 0.930 . S
C1712 C1711 1.376 . S
C1712 C1713 1.388 . S
C1713 H1700 0.930 . S
C1713 C1712 1.388 . S
C1713 C1714 1.390 . S
C1714 C1713 1.390 . S
C1714 C1715 1.394 . S
C1714 C1720 1.465 . S
C1715 C1710 1.399 . S
C1715 C1714 1.394 . S
C1715 C1716 1.516 . S
C1716 C1715 1.516 . S
C1716 C1717 1.502 . S
C1716 C1718 1.561 . S
C1716 C1719 1.526 . S
C1717 H1701 0.959 . S
C1717 H1702 0.959 . S
C1717 H1703 0.961 . S
C1717 C1716 1.502 . S
C1718 H1704 0.960 . S
C1718 H1705 0.961 . S
C1718 H1706 0.959 . S
C1718 C1716 1.561 . S
C1719 C1716 1.526 . S
C1719 C1720 1.396 . S
C1719 C1724 1.390 . S
C1720 C1714 1.465 . S
C1720 C1719 1.396 . S
C1720 C1721 1.399 . S
C1721 H1707 0.929 . S
C1721 C1720 1.399 . S
C1721 C1722 1.385 . S
C1722 H1708 0.931 . S
C1722 C1721 1.385 . S
C1722 C1723 1.389 . S
C1723 C1722 1.389 . S
C1723 C1724 1.387 . S
C1724 H1709 0.930 . S
C1724 C1719 1.390 . S
C1724 C1723 1.387 . S
H1725 C1737 0.930 . S
H1726 C1739 0.930 . S
H1727 C1740 0.930 . S
H1728 C1744 0.959 . S
H1729 C1744 0.959 . S
H1730 C1744 0.961 . S
H1731 C1745 0.960 . S
H1732 C1745 0.961 . S
H1733 C1745 0.959 . S
H1734 C1748 0.929 . S
H1735 C1749 0.931 . S
H1736 C1751 0.930 . S
C1737 H1725 0.930 . S
C1737 C1738 1.399 . S
C1737 C1742 1.399 . S
C1738 C1737 1.399 . S
C1738 C1739 1.376 . S
C1739 H1726 0.930 . S
C1739 C1738 1.376 . S
C1739 C1740 1.388 . S
C1740 H1727 0.930 . S
C1740 C1739 1.388 . S
C1740 C1741 1.390 . S
C1741 C1740 1.390 . S
C1741 C1742 1.394 . S
C1741 C1747 1.465 . S
C1742 C1737 1.399 . S
C1742 C1741 1.394 . S
C1742 C1743 1.516 . S
C1743 C1742 1.516 . S
C1743 C1744 1.502 . S
C1743 C1745 1.561 . S
C1743 C1746 1.526 . S
C1744 H1728 0.959 . S
C1744 H1729 0.959 . S
C1744 H1730 0.961 . S
C1744 C1743 1.502 . S
C1745 H1731 0.960 . S
C1745 H1732 0.961 . S
C1745 H1733 0.959 . S
C1745 C1743 1.561 . S
C1746 C1743 1.526 . S
C1746 C1747 1.396 . S
C1746 C1751 1.390 . S
C1747 C1741 1.465 . S
C1747 C1746 1.396 . S
C1747 C1748 1.399 . S
C1748 H1734 0.929 . S
C1748 C1747 1.399 . S
C1748 C1749 1.385 . S
C1749 H1735 0.931 . S
C1749 C1748 1.385 . S
C1749 C1750 1.389 . S
C1750 C1749 1.389 . S
C1750 C1751 1.387 . S
C1751 H1736 0.930 . S
C1751 C1746 1.390 . S
C1751 C1750 1.387 . S
H1752 C1764 0.930 . S
H1753 C1766 0.930 . S
H1754 C1767 0.930 . S
H1755 C1771 0.959 . S
H1756 C1771 0.959 . S
H1757 C1771 0.961 . S
H1758 C1772 0.960 . S
H1759 C1772 0.961 . S
H1760 C1772 0.959 . S
H1761 C1775 0.929 . S
H1762 C1776 0.931 . S
H1763 C1778 0.930 . S
C1764 H1752 0.930 . S
C1764 C1765 1.399 . S
C1764 C1769 1.399 . S
C1765 C1764 1.399 . S
C1765 C1766 1.376 . S
C1766 H1753 0.930 . S
C1766 C1765 1.376 . S
C1766 C1767 1.388 . S
C1767 H1754 0.930 . S
C1767 C1766 1.388 . S
C1767 C1768 1.390 . S
C1768 C1767 1.390 . S
C1768 C1769 1.394 . S
C1768 C1774 1.465 . S
C1769 C1764 1.399 . S
C1769 C1768 1.394 . S
C1769 C1770 1.516 . S
C1770 C1769 1.516 . S
C1770 C1771 1.502 . S
C1770 C1772 1.561 . S
C1770 C1773 1.526 . S
C1771 H1755 0.959 . S
C1771 H1756 0.959 . S
C1771 H1757 0.961 . S
C1771 C1770 1.502 . S
C1772 H1758 0.960 . S
C1772 H1759 0.961 . S
C1772 H1760 0.959 . S
C1772 C1770 1.561 . S
C1773 C1770 1.526 . S
C1773 C1774 1.396 . S
C1773 C1778 1.390 . S
C1774 C1768 1.465 . S
C1774 C1773 1.396 . S
C1774 C1775 1.399 . S
C1775 H1761 0.929 . S
C1775 C1774 1.399 . S
C1775 C1776 1.385 . S
C1776 H1762 0.931 . S
C1776 C1775 1.385 . S
C1776 C1777 1.389 . S
C1777 C1776 1.389 . S
C1777 C1778 1.387 . S
C1778 H1763 0.930 . S
C1778 C1773 1.390 . S
C1778 C1777 1.387 . S
H1779 C1791 0.930 . S
H1780 C1793 0.930 . S
H1781 C1794 0.930 . S
H1782 C1798 0.959 . S
H1783 C1798 0.959 . S
H1784 C1798 0.961 . S
H1785 C1799 0.960 . S
H1786 C1799 0.961 . S
H1787 C1799 0.959 . S
H1788 C1802 0.929 . S
H1789 C1803 0.931 . S
H1790 C1805 0.930 . S
C1791 H1779 0.930 . S
C1791 C1792 1.399 . S
C1791 C1796 1.399 . S
C1792 C1791 1.399 . S
C1792 C1793 1.376 . S
C1793 H1780 0.930 . S
C1793 C1792 1.376 . S
C1793 C1794 1.388 . S
C1794 H1781 0.930 . S
C1794 C1793 1.388 . S
C1794 C1795 1.390 . S
C1795 C1794 1.390 . S
C1795 C1796 1.394 . S
C1795 C1801 1.465 . S
C1796 C1791 1.399 . S
C1796 C1795 1.394 . S
C1796 C1797 1.516 . S
C1797 C1796 1.516 . S
C1797 C1798 1.502 . S
C1797 C1799 1.561 . S
C1797 C1800 1.526 . S
C1798 H1782 0.959 . S
C1798 H1783 0.959 . S
C1798 H1784 0.961 . S
C1798 C1797 1.502 . S
C1799 H1785 0.960 . S
C1799 H1786 0.961 . S
C1799 H1787 0.959 . S
C1799 C1797 1.561 . S
C1800 C1797 1.526 . S
C1800 C1801 1.396 . S
C1800 C1805 1.390 . S
C1801 C1795 1.465 . S
C1801 C1800 1.396 . S
C1801 C1802 1.399 . S
C1802 H1788 0.929 . S
C1802 C1801 1.399 . S
C1802 C1803 1.385 . S
C1803 H1789 0.931 . S
C1803 C1802 1.385 . S
C1803 C1804 1.389 . S
C1804 C1803 1.389 . S
C1804 C1805 1.387 . S
C1805 H1790 0.930 . S
C1805 C1800 1.390 . S
C1805 C1804 1.387 . S
H1806 C1818 0.930 . S
H1807 C1820 0.930 . S
H1808 C1821 0.930 . S
H1809 C1825 0.959 . S
H1810 C1825 0.959 . S
H1811 C1825 0.961 . S
H1812 C1826 0.960 . S
H1813 C1826 0.961 . S
H1814 C1826 0.959 . S
H1815 C1829 0.929 . S
H1816 C1830 0.931 . S
H1817 C1832 0.930 . S
C1818 H1806 0.930 . S
C1818 C1819 1.399 . S
C1818 C1823 1.399 . S
C1819 C1818 1.399 . S
C1819 C1820 1.376 . S
C1820 H1807 0.930 . S
C1820 C1819 1.376 . S
C1820 C1821 1.388 . S
C1821 H1808 0.930 . S
C1821 C1820 1.388 . S
C1821 C1822 1.390 . S
C1822 C1821 1.390 . S
C1822 C1823 1.394 . S
C1822 C1828 1.465 . S
C1823 C1818 1.399 . S
C1823 C1822 1.394 . S
C1823 C1824 1.516 . S
C1824 C1823 1.516 . S
C1824 C1825 1.502 . S
C1824 C1826 1.561 . S
C1824 C1827 1.526 . S
C1825 H1809 0.959 . S
C1825 H1810 0.959 . S
C1825 H1811 0.961 . S
C1825 C1824 1.502 . S
C1826 H1812 0.960 . S
C1826 H1813 0.961 . S
C1826 H1814 0.959 . S
C1826 C1824 1.561 . S
C1827 C1824 1.526 . S
C1827 C1828 1.396 . S
C1827 C1832 1.390 . S
C1828 C1822 1.465 . S
C1828 C1827 1.396 . S
C1828 C1829 1.399 . S
C1829 H1815 0.929 . S
C1829 C1828 1.399 . S
C1829 C1830 1.385 . S
C1830 H1816 0.931 . S
C1830 C1829 1.385 . S
C1830 C1831 1.389 . S
C1831 C1830 1.389 . S
C1831 C1832 1.387 . S
C1832 H1817 0.930 . S
C1832 C1827 1.390 . S
C1832 C1831 1.387 . S
H1833 C1845 0.930 . S
H1834 C1847 0.930 . S
H1835 C1848 0.930 . S
H1836 C1852 0.959 . S
H1837 C1852 0.959 . S
H1838 C1852 0.961 . S
H1839 C1853 0.960 . S
H1840 C1853 0.961 . S
H1841 C1853 0.959 . S
H1842 C1856 0.929 . S
H1843 C1857 0.931 . S
H1844 C1859 0.930 . S
C1845 H1833 0.930 . S
C1845 C1846 1.399 . S
C1845 C1850 1.399 . S
C1846 C1845 1.399 . S
C1846 C1847 1.376 . S
C1847 H1834 0.930 . S
C1847 C1846 1.376 . S
C1847 C1848 1.388 . S
C1848 H1835 0.930 . S
C1848 C1847 1.388 . S
C1848 C1849 1.390 . S
C1849 C1848 1.390 . S
C1849 C1850 1.394 . S
C1849 C1855 1.465 . S
C1850 C1845 1.399 . S
C1850 C1849 1.394 . S
C1850 C1851 1.516 . S
C1851 C1850 1.516 . S
C1851 C1852 1.502 . S
C1851 C1853 1.561 . S
C1851 C1854 1.526 . S
C1852 H1836 0.959 . S
C1852 H1837 0.959 . S
C1852 H1838 0.961 . S
C1852 C1851 1.502 . S
C1853 H1839 0.960 . S
C1853 H1840 0.961 . S
C1853 H1841 0.959 . S
C1853 C1851 1.561 . S
C1854 C1851 1.526 . S
C1854 C1855 1.396 . S
C1854 C1859 1.390 . S
C1855 C1849 1.465 . S
C1855 C1854 1.396 . S
C1855 C1856 1.399 . S
C1856 H1842 0.929 . S
C1856 C1855 1.399 . S
C1856 C1857 1.385 . S
C1857 H1843 0.931 . S
C1857 C1856 1.385 . S
C1857 C1858 1.389 . S
C1858 C1857 1.389 . S
C1858 C1859 1.387 . S
C1859 H1844 0.930 . S
C1859 C1854 1.390 . S
C1859 C1858 1.387 . S
H1860 C1872 0.930 . S
H1861 C1874 0.930 . S
H1862 C1875 0.930 . S
H1863 C1879 0.959 . S
H1864 C1879 0.959 . S
H1865 C1879 0.961 . S
H1866 C1880 0.960 . S
H1867 C1880 0.961 . S
H1868 C1880 0.959 . S
H1869 C1883 0.929 . S
H1870 C1884 0.931 . S
H1871 C1886 0.930 . S
C1872 H1860 0.930 . S
C1872 C1873 1.399 . S
C1872 C1877 1.399 . S
C1873 C1872 1.399 . S
C1873 C1874 1.376 . S
C1874 H1861 0.930 . S
C1874 C1873 1.376 . S
C1874 C1875 1.388 . S
C1875 H1862 0.930 . S
C1875 C1874 1.388 . S
C1875 C1876 1.390 . S
C1876 C1875 1.390 . S
C1876 C1877 1.394 . S
C1876 C1882 1.465 . S
C1877 C1872 1.399 . S
C1877 C1876 1.394 . S
C1877 C1878 1.516 . S
C1878 C1877 1.516 . S
C1878 C1879 1.502 . S
C1878 C1880 1.561 . S
C1878 C1881 1.526 . S
C1879 H1863 0.959 . S
C1879 H1864 0.959 . S
C1879 H1865 0.961 . S
C1879 C1878 1.502 . S
C1880 H1866 0.960 . S
C1880 H1867 0.961 . S
C1880 H1868 0.959 . S
C1880 C1878 1.561 . S
C1881 C1878 1.526 . S
C1881 C1882 1.396 . S
C1881 C1886 1.390 . S
C1882 C1876 1.465 . S
C1882 C1881 1.396 . S
C1882 C1883 1.399 . S
C1883 H1869 0.929 . S
C1883 C1882 1.399 . S
C1883 C1884 1.385 . S
C1884 H1870 0.931 . S
C1884 C1883 1.385 . S
C1884 C1885 1.389 . S
C1885 C1884 1.389 . S
C1885 C1886 1.387 . S
C1886 H1871 0.930 . S
C1886 C1881 1.390 . S
C1886 C1885 1.387 . S
H1887 C1899 0.930 . S
H1888 C1901 0.930 . S
H1889 C1902 0.930 . S
H1890 C1906 0.959 . S
H1891 C1906 0.959 . S
H1892 C1906 0.961 . S
H1893 C1907 0.960 . S
H1894 C1907 0.961 . S
H1895 C1907 0.959 . S
H1896 C1910 0.929 . S
H1897 C1911 0.931 . S
H1898 C1913 0.930 . S
C1899 H1887 0.930 . S
C1899 C1900 1.399 . S
C1899 C1904 1.399 . S
C1900 C1899 1.399 . S
C1900 C1901 1.376 . S
C1901 H1888 0.930 . S
C1901 C1900 1.376 . S
C1901 C1902 1.388 . S
C1902 H1889 0.930 . S
C1902 C1901 1.388 . S
C1902 C1903 1.390 . S
C1903 C1902 1.390 . S
C1903 C1904 1.394 . S
C1903 C1909 1.465 . S
C1904 C1899 1.399 . S
C1904 C1903 1.394 . S
C1904 C1905 1.516 . S
C1905 C1904 1.516 . S
C1905 C1906 1.502 . S
C1905 C1907 1.561 . S
C1905 C1908 1.526 . S
C1906 H1890 0.959 . S
C1906 H1891 0.959 . S
C1906 H1892 0.961 . S
C1906 C1905 1.502 . S
C1907 H1893 0.960 . S
C1907 H1894 0.961 . S
C1907 H1895 0.959 . S
C1907 C1905 1.561 . S
C1908 C1905 1.526 . S
C1908 C1909 1.396 . S
C1908 C1913 1.390 . S
C1909 C1903 1.465 . S
C1909 C1908 1.396 . S
C1909 C1910 1.399 . S
C1910 H1896 0.929 . S
C1910 C1909 1.399 . S
C1910 C1911 1.385 . S
C1911 H1897 0.931 . S
C1911 C1910 1.385 . S
C1911 C1912 1.389 . S
C1912 C1911 1.389 . S
C1912 C1913 1.387 . S
C1913 H1898 0.930 . S
C1913 C1908 1.390 . S
C1913 C1912 1.387 . S
H1914 C1926 0.930 . S
H1915 C1928 0.930 . S
H1916 C1929 0.930 . S
H1917 C1933 0.959 . S
H1918 C1933 0.959 . S
H1919 C1933 0.961 . S
H1920 C1934 0.960 . S
H1921 C1934 0.961 . S
H1922 C1934 0.959 1_556 S
H1923 C1937 0.929 . S
H1924 C1938 0.931 . S
H1925 C1940 0.930 . S
C1926 H1914 0.930 . S
C1926 C1927 1.399 . S
C1926 C1931 1.399 . S
C1927 C1926 1.399 . S
C1927 C1928 1.376 . S
C1928 H1915 0.930 . S
C1928 C1927 1.376 . S
C1928 C1929 1.388 . S
C1929 H1916 0.930 . S
C1929 C1928 1.388 . S
C1929 C1930 1.390 . S
C1930 C1929 1.390 . S
C1930 C1931 1.394 . S
C1930 C1936 1.465 . S
C1931 C1926 1.399 . S
C1931 C1930 1.394 . S
C1931 C1932 1.516 . S
C1932 C1931 1.516 . S
C1932 C1933 1.502 . S
C1932 C1934 1.561 1_556 S
C1932 C1935 1.526 . S
C1933 H1917 0.959 . S
C1933 H1918 0.959 . S
C1933 H1919 0.961 . S
C1933 C1932 1.502 . S
C1934 H1920 0.960 . S
C1934 H1921 0.961 . S
C1934 H1922 0.959 1_554 S
C1934 C1932 1.561 1_554 S
C1935 C1932 1.526 . S
C1935 C1936 1.396 . S
C1935 C1940 1.390 . S
C1936 C1930 1.465 . S
C1936 C1935 1.396 . S
C1936 C1937 1.399 . S
C1937 H1923 0.929 . S
C1937 C1936 1.399 . S
C1937 C1938 1.385 . S
C1938 H1924 0.931 . S
C1938 C1937 1.385 . S
C1938 C1939 1.389 . S
C1939 C1938 1.389 . S
C1939 C1940 1.387 . S
C1940 H1925 0.930 . S
C1940 C1935 1.390 . S
C1940 C1939 1.387 . S
H1941 C1953 0.930 . S
H1942 C1955 0.930 . S
H1943 C1956 0.930 . S
H1944 C1960 0.959 . S
H1945 C1960 0.959 . S
H1946 C1960 0.961 . S
H1947 C1961 0.960 . S
H1948 C1961 0.961 . S
H1949 C1961 0.959 . S
H1950 C1964 0.929 . S
H1951 C1965 0.931 . S
H1952 C1967 0.930 . S
C1953 H1941 0.930 . S
C1953 C1954 1.399 . S
C1953 C1958 1.399 . S
C1954 C1953 1.399 . S
C1954 C1955 1.376 . S
C1955 H1942 0.930 . S
C1955 C1954 1.376 . S
C1955 C1956 1.388 . S
C1956 H1943 0.930 . S
C1956 C1955 1.388 . S
C1956 C1957 1.390 . S
C1957 C1956 1.390 . S
C1957 C1958 1.394 . S
C1957 C1963 1.465 . S
C1958 C1953 1.399 . S
C1958 C1957 1.394 . S
C1958 C1959 1.516 . S
C1959 C1958 1.516 . S
C1959 C1960 1.502 . S
C1959 C1961 1.561 . S
C1959 C1962 1.526 . S
C1960 H1944 0.959 . S
C1960 H1945 0.959 . S
C1960 H1946 0.961 . S
C1960 C1959 1.502 . S
C1961 H1947 0.960 . S
C1961 H1948 0.961 . S
C1961 H1949 0.959 . S
C1961 C1959 1.561 . S
C1962 C1959 1.526 . S
C1962 C1963 1.396 . S
C1962 C1967 1.390 . S
C1963 C1957 1.465 . S
C1963 C1962 1.396 . S
C1963 C1964 1.399 . S
C1964 H1950 0.929 . S
C1964 C1963 1.399 . S
C1964 C1965 1.385 . S
C1965 H1951 0.931 . S
C1965 C1964 1.385 . S
C1965 C1966 1.389 . S
C1966 C1965 1.389 . S
C1966 C1967 1.387 . S
C1967 H1952 0.930 . S
C1967 C1962 1.390 . S
C1967 C1966 1.387 . S
H1968 C1980 0.930 . S
H1969 C1982 0.930 . S
H1970 C1983 0.930 . S
H1971 C1987 0.959 . S
H1972 C1987 0.959 . S
H1973 C1987 0.961 . S
H1974 C1988 0.960 . S
H1975 C1988 0.961 . S
H1976 C1988 0.959 . S
H1977 C1991 0.929 . S
H1978 C1992 0.931 . S
H1979 C1994 0.930 . S
C1980 H1968 0.930 . S
C1980 C1981 1.399 . S
C1980 C1985 1.399 . S
C1981 C1980 1.399 . S
C1981 C1982 1.376 . S
C1982 H1969 0.930 . S
C1982 C1981 1.376 . S
C1982 C1983 1.388 . S
C1983 H1970 0.930 . S
C1983 C1982 1.388 . S
C1983 C1984 1.390 . S
C1984 C1983 1.390 . S
C1984 C1985 1.394 . S
C1984 C1990 1.465 . S
C1985 C1980 1.399 . S
C1985 C1984 1.394 . S
C1985 C1986 1.516 . S
C1986 C1985 1.516 . S
C1986 C1987 1.502 . S
C1986 C1988 1.561 . S
C1986 C1989 1.526 . S
C1987 H1971 0.959 . S
C1987 H1972 0.959 . S
C1987 H1973 0.961 . S
C1987 C1986 1.502 . S
C1988 H1974 0.960 . S
C1988 H1975 0.961 . S
C1988 H1976 0.959 . S
C1988 C1986 1.561 . S
C1989 C1986 1.526 . S
C1989 C1990 1.396 . S
C1989 C1994 1.390 . S
C1990 C1984 1.465 . S
C1990 C1989 1.396 . S
C1990 C1991 1.399 . S
C1991 H1977 0.929 . S
C1991 C1990 1.399 . S
C1991 C1992 1.385 . S
C1992 H1978 0.931 . S
C1992 C1991 1.385 . S
C1992 C1993 1.389 . S
C1993 C1992 1.389 . S
C1993 C1994 1.387 . S
C1994 H1979 0.930 . S
C1994 C1989 1.390 . S
C1994 C1993 1.387 . S
H1995 C2007 0.930 . S
H1996 C2009 0.930 . S
H1997 C2010 0.930 . S
H1998 C2014 0.959 . S
H1999 C2014 0.959 . S
H2000 C2014 0.961 . S
H2001 C2015 0.960 . S
H2002 C2015 0.961 . S
H2003 C2015 0.959 . S
H2004 C2018 0.929 . S
H2005 C2019 0.936 . S
H2006 C2021 0.930 . S
C2007 H1995 0.930 . S
C2007 C2008 1.399 . S
C2007 C2012 1.399 . S
C2008 C2007 1.399 . S
C2008 C2009 1.376 . S
C2009 H1996 0.930 . S
C2009 C2008 1.376 . S
C2009 C2010 1.388 . S
C2010 H1997 0.930 . S
C2010 C2009 1.388 . S
C2010 C2011 1.390 . S
C2011 C2010 1.390 . S
C2011 C2012 1.394 . S
C2011 C2017 1.465 . S
C2012 C2007 1.399 . S
C2012 C2011 1.394 . S
C2012 C2013 1.516 . S
C2013 C2012 1.516 . S
C2013 C2014 1.502 . S
C2013 C2015 1.561 . S
C2013 C2016 1.526 . S
C2014 H1998 0.959 . S
C2014 H1999 0.959 . S
C2014 H2000 0.961 . S
C2014 C2013 1.502 . S
C2015 H2001 0.960 . S
C2015 H2002 0.961 . S
C2015 H2003 0.959 . S
C2015 C2013 1.561 . S
C2016 C2013 1.526 . S
C2016 C2017 1.396 . S
C2016 C2021 1.390 . S
C2017 C2011 1.465 . S
C2017 C2016 1.396 . S
C2017 C2018 1.399 . S
C2018 H2004 0.929 . S
C2018 C2017 1.399 . S
C2018 C2019 1.385 . S
C2019 H2005 0.936 . S
C2019 C2018 1.385 . S
C2019 C2020 1.389 1_455 S
C2020 C2019 1.389 1_655 S
C2020 C2021 1.387 1_655 S
C2021 H2006 0.930 . S
C2021 C2016 1.390 . S
C2021 C2020 1.387 1_455 S
H2022 C2034 0.930 . S
H2023 C2036 0.930 . S
H2024 C2037 0.930 . S
H2025 C2041 0.959 . S
H2026 C2041 0.959 . S
H2027 C2041 0.961 . S
H2028 C2042 0.960 . S
H2029 C2042 0.961 . S
H2030 C2042 0.959 . S
H2031 C2045 0.929 . S
H2032 C2046 0.931 . S
H2033 C2048 0.930 . S
C2034 H2022 0.930 . S
C2034 C2035 1.399 . S
C2034 C2039 1.399 . S
C2035 C2034 1.399 . S
C2035 C2036 1.376 . S
C2036 H2023 0.930 . S
C2036 C2035 1.376 . S
C2036 C2037 1.388 . S
C2037 H2024 0.930 . S
C2037 C2036 1.388 . S
C2037 C2038 1.390 . S
C2038 C2037 1.390 . S
C2038 C2039 1.394 . S
C2038 C2044 1.465 . S
C2039 C2034 1.399 . S
C2039 C2038 1.394 . S
C2039 C2040 1.516 . S
C2040 C2039 1.516 . S
C2040 C2041 1.502 . S
C2040 C2042 1.561 . S
C2040 C2043 1.526 . S
C2041 H2025 0.959 . S
C2041 H2026 0.959 . S
C2041 H2027 0.961 . S
C2041 C2040 1.502 . S
C2042 H2028 0.960 . S
C2042 H2029 0.961 . S
C2042 H2030 0.959 . S
C2042 C2040 1.561 . S
C2043 C2040 1.526 . S
C2043 C2044 1.396 . S
C2043 C2048 1.390 . S
C2044 C2038 1.465 . S
C2044 C2043 1.396 . S
C2044 C2045 1.399 . S
C2045 H2031 0.929 . S
C2045 C2044 1.399 . S
C2045 C2046 1.385 . S
C2046 H2032 0.931 . S
C2046 C2045 1.385 . S
C2046 C2047 1.389 . S
C2047 C2046 1.389 . S
C2047 C2048 1.387 . S
C2048 H2033 0.930 . S
C2048 C2043 1.390 . S
C2048 C2047 1.387 . S
H2049 C2061 0.930 . S
H2050 C2063 0.930 . S
H2051 C2064 0.930 . S
H2052 C2068 0.959 . S
H2053 C2068 0.959 . S
H2054 C2068 0.961 . S
H2055 C2069 0.960 . S
H2056 C2069 0.961 . S
H2057 C2069 0.959 . S
H2058 C2072 0.929 . S
H2059 C2073 0.931 . S
H2060 C2075 0.930 . S
C2061 H2049 0.930 . S
C2061 C2062 1.399 . S
C2061 C2066 1.399 . S
C2062 C2061 1.399 . S
C2062 C2063 1.376 . S
C2063 H2050 0.930 . S
C2063 C2062 1.376 . S
C2063 C2064 1.388 . S
C2064 H2051 0.930 . S
C2064 C2063 1.388 . S
C2064 C2065 1.390 . S
C2065 C2064 1.390 . S
C2065 C2066 1.394 . S
C2065 C2071 1.465 . S
C2066 C2061 1.399 . S
C2066 C2065 1.394 . S
C2066 C2067 1.516 . S
C2067 C2066 1.516 . S
C2067 C2068 1.502 . S
C2067 C2069 1.561 . S
C2067 C2070 1.526 . S
C2068 H2052 0.959 . S
C2068 H2053 0.959 . S
C2068 H2054 0.961 . S
C2068 C2067 1.502 . S
C2069 H2055 0.960 . S
C2069 H2056 0.961 . S
C2069 H2057 0.959 . S
C2069 C2067 1.561 . S
C2070 C2067 1.526 . S
C2070 C2071 1.396 . S
C2070 C2075 1.390 . S
C2071 C2065 1.465 . S
C2071 C2070 1.396 . S
C2071 C2072 1.399 . S
C2072 H2058 0.929 . S
C2072 C2071 1.399 . S
C2072 C2073 1.385 . S
C2073 H2059 0.931 . S
C2073 C2072 1.385 . S
C2073 C2074 1.389 . S
C2074 C2073 1.389 . S
C2074 C2075 1.387 . S
C2075 H2060 0.930 . S
C2075 C2070 1.390 . S
C2075 C2074 1.387 . S
H2076 C2088 0.930 . S
H2077 C2090 0.930 . S
H2078 C2091 0.930 . S
H2079 C2095 0.959 . S
H2080 C2095 0.959 . S
H2081 C2095 0.961 . S
H2082 C2096 0.960 . S
H2083 C2096 0.961 . S
H2084 C2096 0.959 . S
H2085 C2099 0.929 . S
H2086 C2100 0.931 . S
H2087 C2102 0.930 . S
C2088 H2076 0.930 . S
C2088 C2089 1.399 . S
C2088 C2093 1.399 . S
C2089 C2088 1.399 . S
C2089 C2090 1.376 . S
C2090 H2077 0.930 . S
C2090 C2089 1.376 . S
C2090 C2091 1.388 . S
C2091 H2078 0.930 . S
C2091 C2090 1.388 . S
C2091 C2092 1.390 . S
C2092 C2091 1.390 . S
C2092 C2093 1.394 . S
C2092 C2098 1.465 . S
C2093 C2088 1.399 . S
C2093 C2092 1.394 . S
C2093 C2094 1.516 . S
C2094 C2093 1.516 . S
C2094 C2095 1.502 . S
C2094 C2096 1.561 . S
C2094 C2097 1.526 . S
C2095 H2079 0.959 . S
C2095 H2080 0.959 . S
C2095 H2081 0.961 . S
C2095 C2094 1.502 . S
C2096 H2082 0.960 . S
C2096 H2083 0.961 . S
C2096 H2084 0.959 . S
C2096 C2094 1.561 . S
C2097 C2094 1.526 . S
C2097 C2098 1.396 . S
C2097 C2102 1.390 . S
C2098 C2092 1.465 . S
C2098 C2097 1.396 . S
C2098 C2099 1.399 . S
C2099 H2085 0.929 . S
C2099 C2098 1.399 . S
C2099 C2100 1.385 . S
C2100 H2086 0.931 . S
C2100 C2099 1.385 . S
C2100 C2101 1.389 . S
C2101 C2100 1.389 . S
C2101 C2102 1.387 . S
C2102 H2087 0.930 . S
C2102 C2097 1.390 . S
C2102 C2101 1.387 . S
H2103 C2115 0.930 . S
H2104 C2117 0.930 . S
H2105 C2118 0.930 . S
H2106 C2122 0.959 . S
H2107 C2122 0.959 . S
H2108 C2122 0.961 . S
H2109 C2123 0.960 . S
H2110 C2123 0.961 . S
H2111 C2123 0.959 . S
H2112 C2126 0.929 . S
H2113 C2127 0.931 . S
H2114 C2129 0.930 . S
C2115 H2103 0.930 . S
C2115 C2116 1.399 . S
C2115 C2120 1.399 . S
C2116 C2115 1.399 . S
C2116 C2117 1.376 . S
C2117 H2104 0.930 . S
C2117 C2116 1.376 . S
C2117 C2118 1.388 . S
C2118 H2105 0.930 . S
C2118 C2117 1.388 . S
C2118 C2119 1.390 . S
C2119 C2118 1.390 . S
C2119 C2120 1.394 . S
C2119 C2125 1.465 . S
C2120 C2115 1.399 . S
C2120 C2119 1.394 . S
C2120 C2121 1.516 . S
C2121 C2120 1.516 . S
C2121 C2122 1.502 . S
C2121 C2123 1.561 . S
C2121 C2124 1.526 . S
C2122 H2106 0.959 . S
C2122 H2107 0.959 . S
C2122 H2108 0.961 . S
C2122 C2121 1.502 . S
C2123 H2109 0.960 . S
C2123 H2110 0.961 . S
C2123 H2111 0.959 . S
C2123 C2121 1.561 . S
C2124 C2121 1.526 . S
C2124 C2125 1.396 . S
C2124 C2129 1.390 . S
C2125 C2119 1.465 . S
C2125 C2124 1.396 . S
C2125 C2126 1.399 . S
C2126 H2112 0.929 . S
C2126 C2125 1.399 . S
C2126 C2127 1.385 . S
C2127 H2113 0.931 . S
C2127 C2126 1.385 . S
C2127 C2128 1.389 . S
C2128 C2127 1.389 . S
C2128 C2129 1.387 . S
C2129 H2114 0.930 . S
C2129 C2124 1.390 . S
C2129 C2128 1.387 . S
H2130 C2142 0.930 . S
H2131 C2144 0.930 . S
H2132 C2145 0.930 . S
H2133 C2149 0.959 . S
H2134 C2149 0.959 . S
H2135 C2149 0.961 . S
H2136 C2150 0.960 . S
H2137 C2150 0.961 . S
H2138 C2150 0.959 . S
H2139 C2153 0.929 . S
H2140 C2154 0.931 . S
H2141 C2156 0.930 . S
C2142 H2130 0.930 . S
C2142 C2143 1.399 . S
C2142 C2147 1.399 . S
C2143 C2142 1.399 . S
C2143 C2144 1.376 . S
C2144 H2131 0.930 . S
C2144 C2143 1.376 . S
C2144 C2145 1.388 . S
C2145 H2132 0.930 . S
C2145 C2144 1.388 . S
C2145 C2146 1.390 . S
C2146 C2145 1.390 . S
C2146 C2147 1.394 . S
C2146 C2152 1.465 . S
C2147 C2142 1.399 . S
C2147 C2146 1.394 . S
C2147 C2148 1.516 . S
C2148 C2147 1.516 . S
C2148 C2149 1.502 . S
C2148 C2150 1.561 . S
C2148 C2151 1.526 . S
C2149 H2133 0.959 . S
C2149 H2134 0.959 . S
C2149 H2135 0.961 . S
C2149 C2148 1.502 . S
C2150 H2136 0.960 . S
C2150 H2137 0.961 . S
C2150 H2138 0.959 . S
C2150 C2148 1.561 . S
C2151 C2148 1.526 . S
C2151 C2152 1.396 . S
C2151 C2156 1.390 . S
C2152 C2146 1.465 . S
C2152 C2151 1.396 . S
C2152 C2153 1.399 . S
C2153 H2139 0.929 . S
C2153 C2152 1.399 . S
C2153 C2154 1.385 . S
C2154 H2140 0.931 . S
C2154 C2153 1.385 . S
C2154 C2155 1.389 . S
C2155 C2154 1.389 . S
C2155 C2156 1.387 . S
C2156 H2141 0.930 . S
C2156 C2151 1.390 . S
C2156 C2155 1.387 . S
H2157 C2169 0.930 . S
H2158 C2171 0.930 . S
H2159 C2172 0.930 . S
H2160 C2176 0.959 . S
H2161 C2176 0.959 . S
H2162 C2176 0.961 . S
H2163 C2177 0.960 . S
H2164 C2177 0.961 . S
H2165 C2177 0.959 . S
H2166 C2180 0.929 . S
H2167 C2181 0.931 . S
H2168 C2183 0.930 . S
C2169 H2157 0.930 . S
C2169 C2170 1.399 . S
C2169 C2174 1.399 . S
C2170 C2169 1.399 . S
C2170 C2171 1.376 . S
C2171 H2158 0.930 . S
C2171 C2170 1.376 . S
C2171 C2172 1.388 . S
C2172 H2159 0.930 . S
C2172 C2171 1.388 . S
C2172 C2173 1.390 . S
C2173 C2172 1.390 . S
C2173 C2174 1.394 . S
C2173 C2179 1.465 . S
C2174 C2169 1.399 . S
C2174 C2173 1.394 . S
C2174 C2175 1.516 . S
C2175 C2174 1.516 . S
C2175 C2176 1.502 . S
C2175 C2177 1.561 . S
C2175 C2178 1.526 . S
C2176 H2160 0.959 . S
C2176 H2161 0.959 . S
C2176 H2162 0.961 . S
C2176 C2175 1.502 . S
C2177 H2163 0.960 . S
C2177 H2164 0.961 . S
C2177 H2165 0.959 . S
C2177 C2175 1.561 . S
C2178 C2175 1.526 . S
C2178 C2179 1.396 . S
C2178 C2183 1.390 . S
C2179 C2173 1.465 . S
C2179 C2178 1.396 . S
C2179 C2180 1.399 . S
C2180 H2166 0.929 . S
C2180 C2179 1.399 . S
C2180 C2181 1.385 . S
C2181 H2167 0.931 . S
C2181 C2180 1.385 . S
C2181 C2182 1.389 . S
C2182 C2181 1.389 . S
C2182 C2183 1.387 . S
C2183 H2168 0.930 . S
C2183 C2178 1.390 . S
C2183 C2182 1.387 . S
H2184 C2196 0.930 . S
H2185 C2198 0.930 . S
H2186 C2199 0.930 . S
H2187 C2203 0.959 . S
H2188 C2203 0.959 . S
H2189 C2203 0.961 . S
H2190 C2204 0.960 . S
H2191 C2204 0.961 . S
H2192 C2204 0.959 . S
H2193 C2207 0.929 . S
H2194 C2208 0.931 . S
H2195 C2210 0.930 . S
C2196 H2184 0.930 . S
C2196 C2197 1.399 . S
C2196 C2201 1.399 . S
C2197 C2196 1.399 . S
C2197 C2198 1.376 . S
C2198 H2185 0.930 . S
C2198 C2197 1.376 . S
C2198 C2199 1.388 . S
C2199 H2186 0.930 . S
C2199 C2198 1.388 . S
C2199 C2200 1.390 . S
C2200 C2199 1.390 . S
C2200 C2201 1.394 . S
C2200 C2206 1.465 . S
C2201 C2196 1.399 . S
C2201 C2200 1.394 . S
C2201 C2202 1.516 . S
C2202 C2201 1.516 . S
C2202 C2203 1.502 . S
C2202 C2204 1.561 . S
C2202 C2205 1.526 . S
C2203 H2187 0.959 . S
C2203 H2188 0.959 . S
C2203 H2189 0.961 . S
C2203 C2202 1.502 . S
C2204 H2190 0.960 . S
C2204 H2191 0.961 . S
C2204 H2192 0.959 . S
C2204 C2202 1.561 . S
C2205 C2202 1.526 . S
C2205 C2206 1.396 . S
C2205 C2210 1.390 . S
C2206 C2200 1.465 . S
C2206 C2205 1.396 . S
C2206 C2207 1.399 . S
C2207 H2193 0.929 . S
C2207 C2206 1.399 . S
C2207 C2208 1.385 . S
C2208 H2194 0.931 . S
C2208 C2207 1.385 . S
C2208 C2209 1.389 . S
C2209 C2208 1.389 . S
C2209 C2210 1.387 . S
C2210 H2195 0.930 . S
C2210 C2205 1.390 . S
C2210 C2209 1.387 . S
H2211 C2223 0.930 . S
H2212 C2225 0.930 . S
H2213 C2226 0.930 . S
H2214 C2230 0.959 . S
H2215 C2230 0.959 . S
H2216 C2230 0.961 . S
H2217 C2231 0.960 . S
H2218 C2231 0.961 . S
H2219 C2231 0.959 . S
H2220 C2234 0.929 . S
H2221 C2235 0.931 . S
H2222 C2237 0.930 . S
C2223 H2211 0.930 . S
C2223 C2224 1.399 . S
C2223 C2228 1.399 . S
C2224 C2223 1.399 . S
C2224 C2225 1.376 . S
C2225 H2212 0.930 . S
C2225 C2224 1.376 . S
C2225 C2226 1.388 . S
C2226 H2213 0.930 . S
C2226 C2225 1.388 . S
C2226 C2227 1.390 . S
C2227 C2226 1.390 . S
C2227 C2228 1.394 . S
C2227 C2233 1.465 . S
C2228 C2223 1.399 . S
C2228 C2227 1.394 . S
C2228 C2229 1.516 . S
C2229 C2228 1.516 . S
C2229 C2230 1.502 . S
C2229 C2231 1.561 . S
C2229 C2232 1.526 . S
C2230 H2214 0.959 . S
C2230 H2215 0.959 . S
C2230 H2216 0.961 . S
C2230 C2229 1.502 . S
C2231 H2217 0.960 . S
C2231 H2218 0.961 . S
C2231 H2219 0.959 . S
C2231 C2229 1.561 . S
C2232 C2229 1.526 . S
C2232 C2233 1.396 . S
C2232 C2237 1.390 . S
C2233 C2227 1.465 . S
C2233 C2232 1.396 . S
C2233 C2234 1.399 . S
C2234 H2220 0.929 . S
C2234 C2233 1.399 . S
C2234 C2235 1.385 . S
C2235 H2221 0.931 . S
C2235 C2234 1.385 . S
C2235 C2236 1.389 . S
C2236 C2235 1.389 . S
C2236 C2237 1.387 . S
C2237 H2222 0.930 . S
C2237 C2232 1.390 . S
C2237 C2236 1.387 . S
H2238 C2250 0.930 . S
H2239 C2252 0.930 . S
H2240 C2253 0.930 . S
H2241 C2257 0.959 . S
H2242 C2257 0.959 . S
H2243 C2257 0.961 . S
H2244 C2258 0.960 . S
H2245 C2258 0.961 . S
H2246 C2258 0.959 . S
H2247 C2261 0.912 1_565 S
H2248 C2262 0.931 . S
H2249 C2264 0.930 . S
C2250 H2238 0.930 . S
C2250 C2251 1.399 . S
C2250 C2255 1.399 . S
C2251 C2250 1.399 . S
C2251 C2252 1.376 . S
C2252 H2239 0.930 . S
C2252 C2251 1.376 . S
C2252 C2253 1.388 . S
C2253 H2240 0.930 . S
C2253 C2252 1.388 . S
C2253 C2254 1.390 . S
C2254 C2253 1.390 . S
C2254 C2255 1.394 . S
C2254 C2260 1.465 . S
C2255 C2250 1.399 . S
C2255 C2254 1.394 . S
C2255 C2256 1.516 . S
C2256 C2255 1.516 . S
C2256 C2257 1.502 . S
C2256 C2258 1.561 . S
C2256 C2259 1.526 . S
C2257 H2241 0.959 . S
C2257 H2242 0.959 . S
C2257 H2243 0.961 . S
C2257 C2256 1.502 . S
C2258 H2244 0.960 . S
C2258 H2245 0.961 . S
C2258 H2246 0.959 . S
C2258 C2256 1.561 . S
C2259 C2256 1.526 . S
C2259 C2260 1.396 . S
C2259 C2264 1.390 . S
C2260 C2254 1.465 . S
C2260 C2259 1.396 . S
C2260 C2261 1.399 . S
C2261 H2247 0.912 1_545 S
C2261 C2260 1.399 . S
C2261 C2262 1.385 1_545 S
C2262 H2248 0.931 . S
C2262 C2261 1.385 1_565 S
C2262 C2263 1.389 . S
C2263 C2262 1.389 . S
C2263 C2264 1.387 1_565 S
C2264 H2249 0.930 . S
C2264 C2259 1.390 . S
C2264 C2263 1.387 1_545 S
H2265 C2277 0.930 . S
H2266 C2279 0.930 . S
H2267 C2280 0.930 . S
H2268 C2284 0.959 . S
H2269 C2284 0.959 . S
H2270 C2284 0.961 . S
H2271 C2285 0.960 . S
H2272 C2285 0.961 . S
H2273 C2285 0.959 . S
H2274 C2288 0.929 . S
H2275 C2289 0.931 . S
H2276 C2291 0.930 . S
C2277 H2265 0.930 . S
C2277 C2278 1.399 . S
C2277 C2282 1.399 . S
C2278 C2277 1.399 . S
C2278 C2279 1.376 . S
C2279 H2266 0.930 . S
C2279 C2278 1.376 . S
C2279 C2280 1.388 . S
C2280 H2267 0.930 . S
C2280 C2279 1.388 . S
C2280 C2281 1.390 . S
C2281 C2280 1.390 . S
C2281 C2282 1.394 . S
C2281 C2287 1.465 . S
C2282 C2277 1.399 . S
C2282 C2281 1.394 . S
C2282 C2283 1.516 . S
C2283 C2282 1.516 . S
C2283 C2284 1.502 . S
C2283 C2285 1.561 . S
C2283 C2286 1.526 . S
C2284 H2268 0.959 . S
C2284 H2269 0.959 . S
C2284 H2270 0.961 . S
C2284 C2283 1.502 . S
C2285 H2271 0.960 . S
C2285 H2272 0.961 . S
C2285 H2273 0.959 . S
C2285 C2283 1.561 . S
C2286 C2283 1.526 . S
C2286 C2287 1.396 . S
C2286 C2291 1.390 . S
C2287 C2281 1.465 . S
C2287 C2286 1.396 . S
C2287 C2288 1.399 . S
C2288 H2274 0.929 . S
C2288 C2287 1.399 . S
C2288 C2289 1.385 . S
C2289 H2275 0.931 . S
C2289 C2288 1.385 . S
C2289 C2290 1.389 . S
C2290 C2289 1.389 . S
C2290 C2291 1.387 . S
C2291 H2276 0.930 . S
C2291 C2286 1.390 . S
C2291 C2290 1.387 . S
H2292 C2304 0.930 . S
H2293 C2306 0.930 . S
H2294 C2307 0.930 . S
H2295 C2311 0.959 . S
H2296 C2311 0.959 . S
H2297 C2311 0.961 . S
H2298 C2312 0.960 . S
H2299 C2312 0.961 . S
H2300 C2312 0.959 . S
H2301 C2315 0.929 . S
H2302 C2316 0.931 . S
H2303 C2318 0.930 . S
C2304 H2292 0.930 . S
C2304 C2305 1.399 . S
C2304 C2309 1.399 . S
C2305 C2304 1.399 . S
C2305 C2306 1.376 . S
C2306 H2293 0.930 . S
C2306 C2305 1.376 . S
C2306 C2307 1.388 . S
C2307 H2294 0.930 . S
C2307 C2306 1.388 . S
C2307 C2308 1.390 . S
C2308 C2307 1.390 . S
C2308 C2309 1.394 . S
C2308 C2314 1.465 . S
C2309 C2304 1.399 . S
C2309 C2308 1.394 . S
C2309 C2310 1.516 . S
C2310 C2309 1.516 . S
C2310 C2311 1.502 . S
C2310 C2312 1.561 . S
C2310 C2313 1.526 . S
C2311 H2295 0.959 . S
C2311 H2296 0.959 . S
C2311 H2297 0.961 . S
C2311 C2310 1.502 . S
C2312 H2298 0.960 . S
C2312 H2299 0.961 . S
C2312 H2300 0.959 . S
C2312 C2310 1.561 . S
C2313 C2310 1.526 . S
C2313 C2314 1.396 . S
C2313 C2318 1.390 . S
C2314 C2308 1.465 . S
C2314 C2313 1.396 . S
C2314 C2315 1.399 . S
C2315 H2301 0.929 . S
C2315 C2314 1.399 . S
C2315 C2316 1.385 . S
C2316 H2302 0.931 . S
C2316 C2315 1.385 . S
C2316 C2317 1.389 . S
C2317 C2316 1.389 . S
C2317 C2318 1.387 . S
C2318 H2303 0.930 . S
C2318 C2313 1.390 . S
C2318 C2317 1.387 . S
H2319 C2331 0.930 . S
H2320 C2333 0.930 . S
H2321 C2334 0.930 . S
H2322 C2338 0.959 . S
H2323 C2338 0.959 . S
H2324 C2338 0.961 . S
H2325 C2339 0.960 . S
H2326 C2339 0.961 . S
H2327 C2339 0.959 . S
H2328 C2342 0.929 . S
H2329 C2343 0.931 . S
H2330 C2345 0.930 . S
C2331 H2319 0.930 . S
C2331 C2332 1.399 . S
C2331 C2336 1.399 . S
C2332 C2331 1.399 . S
C2332 C2333 1.376 . S
C2333 H2320 0.930 . S
C2333 C2332 1.376 . S
C2333 C2334 1.388 . S
C2334 H2321 0.930 . S
C2334 C2333 1.388 . S
C2334 C2335 1.390 . S
C2335 C2334 1.390 . S
C2335 C2336 1.394 . S
C2335 C2341 1.465 . S
C2336 C2331 1.399 . S
C2336 C2335 1.394 . S
C2336 C2337 1.516 . S
C2337 C2336 1.516 . S
C2337 C2338 1.502 . S
C2337 C2339 1.561 . S
C2337 C2340 1.526 . S
C2338 H2322 0.959 . S
C2338 H2323 0.959 . S
C2338 H2324 0.961 . S
C2338 C2337 1.502 . S
C2339 H2325 0.960 . S
C2339 H2326 0.961 . S
C2339 H2327 0.959 . S
C2339 C2337 1.561 . S
C2340 C2337 1.526 . S
C2340 C2341 1.396 . S
C2340 C2345 1.390 . S
C2341 C2335 1.465 . S
C2341 C2340 1.396 . S
C2341 C2342 1.399 . S
C2342 H2328 0.929 . S
C2342 C2341 1.399 . S
C2342 C2343 1.385 . S
C2343 H2329 0.931 . S
C2343 C2342 1.385 . S
C2343 C2344 1.389 . S
C2344 C2343 1.389 . S
C2344 C2345 1.387 . S
C2345 H2330 0.930 . S
C2345 C2340 1.390 . S
C2345 C2344 1.387 . S
H2346 C2358 0.930 . S
H2347 C2360 0.930 . S
H2348 C2361 0.930 . S
H2349 C2365 0.959 . S
H2350 C2365 0.959 . S
H2351 C2365 0.961 . S
H2352 C2366 0.960 . S
H2353 C2366 0.961 . S
H2354 C2366 0.959 . S
H2355 C2369 0.929 . S
H2356 C2370 0.931 . S
H2357 C2372 0.930 . S
C2358 H2346 0.930 . S
C2358 C2359 1.399 . S
C2358 C2363 1.399 . S
C2359 C2358 1.399 . S
C2359 C2360 1.376 . S
C2360 H2347 0.930 . S
C2360 C2359 1.376 . S
C2360 C2361 1.388 . S
C2361 H2348 0.930 . S
C2361 C2360 1.388 . S
C2361 C2362 1.390 . S
C2362 C2361 1.390 . S
C2362 C2363 1.394 . S
C2362 C2368 1.465 . S
C2363 C2358 1.399 . S
C2363 C2362 1.394 . S
C2363 C2364 1.516 . S
C2364 C2363 1.516 . S
C2364 C2365 1.502 . S
C2364 C2366 1.561 . S
C2364 C2367 1.526 . S
C2365 H2349 0.959 . S
C2365 H2350 0.959 . S
C2365 H2351 0.961 . S
C2365 C2364 1.502 . S
C2366 H2352 0.960 . S
C2366 H2353 0.961 . S
C2366 H2354 0.959 . S
C2366 C2364 1.561 . S
C2367 C2364 1.526 . S
C2367 C2368 1.396 . S
C2367 C2372 1.390 . S
C2368 C2362 1.465 . S
C2368 C2367 1.396 . S
C2368 C2369 1.399 . S
C2369 H2355 0.929 . S
C2369 C2368 1.399 . S
C2369 C2370 1.385 . S
C2370 H2356 0.931 . S
C2370 C2369 1.385 . S
C2370 C2371 1.389 . S
C2371 C2370 1.389 . S
C2371 C2372 1.387 . S
C2372 H2357 0.930 . S
C2372 C2367 1.390 . S
C2372 C2371 1.387 . S
H2373 C2385 0.930 . S
H2374 C2387 0.930 . S
H2375 C2388 0.930 . S
H2376 C2392 0.959 . S
H2377 C2392 0.959 . S
H2378 C2392 0.961 . S
H2379 C2393 0.960 . S
H2380 C2393 0.961 . S
H2381 C2393 0.959 . S
H2382 C2396 0.929 . S
H2383 C2397 0.931 . S
H2384 C2399 0.930 . S
C2385 H2373 0.930 . S
C2385 C2386 1.399 . S
C2385 C2390 1.399 . S
C2386 C2385 1.399 . S
C2386 C2387 1.376 . S
C2387 H2374 0.930 . S
C2387 C2386 1.376 . S
C2387 C2388 1.388 . S
C2388 H2375 0.930 . S
C2388 C2387 1.388 . S
C2388 C2389 1.390 . S
C2389 C2388 1.390 . S
C2389 C2390 1.394 . S
C2389 C2395 1.465 . S
C2390 C2385 1.399 . S
C2390 C2389 1.394 . S
C2390 C2391 1.516 . S
C2391 C2390 1.516 . S
C2391 C2392 1.502 . S
C2391 C2393 1.561 . S
C2391 C2394 1.526 . S
C2392 H2376 0.959 . S
C2392 H2377 0.959 . S
C2392 H2378 0.961 . S
C2392 C2391 1.502 . S
C2393 H2379 0.960 . S
C2393 H2380 0.961 . S
C2393 H2381 0.959 . S
C2393 C2391 1.561 . S
C2394 C2391 1.526 . S
C2394 C2395 1.396 . S
C2394 C2399 1.390 . S
C2395 C2389 1.465 . S
C2395 C2394 1.396 . S
C2395 C2396 1.399 . S
C2396 H2382 0.929 . S
C2396 C2395 1.399 . S
C2396 C2397 1.385 . S
C2397 H2383 0.931 . S
C2397 C2396 1.385 . S
C2397 C2398 1.389 . S
C2398 C2397 1.389 . S
C2398 C2399 1.387 . S
C2399 H2384 0.930 . S
C2399 C2394 1.390 . S
C2399 C2398 1.387 . S
H2400 C2412 0.930 . S
H2401 C2414 0.930 . S
H2402 C2415 0.930 . S
H2403 C2419 0.959 . S
H2404 C2419 0.959 . S
H2405 C2419 0.961 . S
H2406 C2420 0.960 1_556 S
H2407 C2420 0.961 . S
H2408 C2420 0.959 . S
H2409 C2423 0.929 . S
H2410 C2424 0.931 . S
H2411 C2426 0.930 . S
C2412 H2400 0.930 . S
C2412 C2413 1.401 . S
C2412 C2417 1.399 1_556 S
C2413 C2412 1.401 . S
C2413 C2414 1.335 1_556 S
C2414 H2401 0.930 . S
C2414 C2413 1.335 1_554 S
C2414 C2415 1.388 . S
C2415 H2402 0.930 . S
C2415 C2414 1.388 . S
C2415 C2416 1.390 . S
C2416 C2415 1.390 . S
C2416 C2417 1.394 . S
C2416 C2422 1.465 . S
C2417 C2412 1.399 1_554 S
C2417 C2416 1.394 . S
C2417 C2418 1.516 . S
C2418 C2417 1.516 . S
C2418 C2419 1.502 . S
C2418 C2420 1.561 . S
C2418 C2421 1.526 . S
C2419 H2403 0.959 . S
C2419 H2404 0.959 . S
C2419 H2405 0.961 . S
C2419 C2418 1.502 . S
C2420 H2406 0.960 1_554 S
C2420 H2407 0.961 . S
C2420 H2408 0.959 . S
C2420 C2418 1.561 . S
C2421 C2418 1.526 . S
C2421 C2422 1.396 . S
C2421 C2426 1.390 . S
C2422 C2416 1.465 . S
C2422 C2421 1.396 . S
C2422 C2423 1.399 . S
C2423 H2409 0.929 . S
C2423 C2422 1.399 . S
C2423 C2424 1.385 . S
C2424 H2410 0.931 . S
C2424 C2423 1.385 . S
C2424 C2425 1.389 . S
C2425 C2424 1.389 . S
C2425 C2426 1.387 . S
C2426 H2411 0.930 . S
C2426 C2421 1.390 . S
C2426 C2425 1.387 . S
H2427 C2439 0.930 . S
H2428 C2441 0.930 . S
H2429 C2442 0.930 . S
H2430 C2446 0.959 . S
H2431 C2446 0.959 . S
H2432 C2446 0.961 . S
H2433 C2447 0.960 . S
H2434 C2447 0.961 . S
H2435 C2447 0.959 . S
H2436 C2450 0.929 . S
H2437 C2451 0.931 . S
H2438 C2453 0.930 . S
C2439 H2427 0.930 . S
C2439 C2440 1.399 . S
C2439 C2444 1.399 . S
C2440 C2439 1.399 . S
C2440 C2441 1.376 . S
C2441 H2428 0.930 . S
C2441 C2440 1.376 . S
C2441 C2442 1.388 . S
C2442 H2429 0.930 . S
C2442 C2441 1.388 . S
C2442 C2443 1.390 . S
C2443 C2442 1.390 . S
C2443 C2444 1.394 . S
C2443 C2449 1.465 . S
C2444 C2439 1.399 . S
C2444 C2443 1.394 . S
C2444 C2445 1.516 . S
C2445 C2444 1.516 . S
C2445 C2446 1.502 . S
C2445 C2447 1.561 . S
C2445 C2448 1.526 . S
C2446 H2430 0.959 . S
C2446 H2431 0.959 . S
C2446 H2432 0.961 . S
C2446 C2445 1.502 . S
C2447 H2433 0.960 . S
C2447 H2434 0.961 . S
C2447 H2435 0.959 . S
C2447 C2445 1.561 . S
C2448 C2445 1.526 . S
C2448 C2449 1.396 . S
C2448 C2453 1.390 . S
C2449 C2443 1.465 . S
C2449 C2448 1.396 . S
C2449 C2450 1.399 . S
C2450 H2436 0.929 . S
C2450 C2449 1.399 . S
C2450 C2451 1.385 . S
C2451 H2437 0.931 . S
C2451 C2450 1.385 . S
C2451 C2452 1.389 . S
C2452 C2451 1.389 . S
C2452 C2453 1.387 . S
C2453 H2438 0.930 . S
C2453 C2448 1.390 . S
C2453 C2452 1.387 . S
H2454 C2466 0.930 . S
H2455 C2468 0.930 . S
H2456 C2469 0.930 . S
H2457 C2473 0.959 . S
H2458 C2473 0.959 . S
H2459 C2473 0.961 . S
H2460 C2474 0.960 . S
H2461 C2474 0.961 . S
H2462 C2474 0.959 . S
H2463 C2477 0.929 . S
H2464 C2478 0.931 . S
H2465 C2480 0.930 . S
C2466 H2454 0.930 . S
C2466 C2467 1.399 . S
C2466 C2471 1.399 . S
C2467 C2466 1.399 . S
C2467 C2468 1.376 . S
C2468 H2455 0.930 . S
C2468 C2467 1.376 . S
C2468 C2469 1.388 . S
C2469 H2456 0.930 . S
C2469 C2468 1.388 . S
C2469 C2470 1.390 . S
C2470 C2469 1.390 . S
C2470 C2471 1.394 . S
C2470 C2476 1.465 . S
C2471 C2466 1.399 . S
C2471 C2470 1.394 . S
C2471 C2472 1.516 . S
C2472 C2471 1.516 . S
C2472 C2473 1.502 . S
C2472 C2474 1.561 . S
C2472 C2475 1.526 . S
C2473 H2457 0.959 . S
C2473 H2458 0.959 . S
C2473 H2459 0.961 . S
C2473 C2472 1.502 . S
C2474 H2460 0.960 . S
C2474 H2461 0.961 . S
C2474 H2462 0.959 . S
C2474 C2472 1.561 . S
C2475 C2472 1.526 . S
C2475 C2476 1.396 . S
C2475 C2480 1.390 . S
C2476 C2470 1.465 . S
C2476 C2475 1.396 . S
C2476 C2477 1.399 . S
C2477 H2463 0.929 . S
C2477 C2476 1.399 . S
C2477 C2478 1.385 . S
C2478 H2464 0.931 . S
C2478 C2477 1.385 . S
C2478 C2479 1.389 . S
C2479 C2478 1.389 . S
C2479 C2480 1.387 . S
C2480 H2465 0.930 . S
C2480 C2475 1.390 . S
C2480 C2479 1.387 . S
H2481 C2493 0.930 . S
H2482 C2495 0.930 . S
H2483 C2496 0.930 . S
H2484 C2500 0.959 . S
H2485 C2500 0.959 . S
H2486 C2500 0.961 . S
H2487 C2501 0.960 . S
H2488 C2501 0.961 . S
H2489 C2501 0.959 . S
H2490 C2504 0.929 . S
H2491 C2505 0.931 . S
H2492 C2507 0.930 . S
C2493 H2481 0.930 . S
C2493 C2494 1.399 . S
C2493 C2498 1.399 . S
C2494 C2493 1.399 . S
C2494 C2495 1.376 . S
C2495 H2482 0.930 . S
C2495 C2494 1.376 . S
C2495 C2496 1.388 . S
C2496 H2483 0.930 . S
C2496 C2495 1.388 . S
C2496 C2497 1.390 . S
C2497 C2496 1.390 . S
C2497 C2498 1.394 . S
C2497 C2503 1.465 . S
C2498 C2493 1.399 . S
C2498 C2497 1.394 . S
C2498 C2499 1.516 . S
C2499 C2498 1.516 . S
C2499 C2500 1.502 . S
C2499 C2501 1.561 . S
C2499 C2502 1.526 . S
C2500 H2484 0.959 . S
C2500 H2485 0.959 . S
C2500 H2486 0.961 . S
C2500 C2499 1.502 . S
C2501 H2487 0.960 . S
C2501 H2488 0.961 . S
C2501 H2489 0.959 . S
C2501 C2499 1.561 . S
C2502 C2499 1.526 . S
C2502 C2503 1.396 . S
C2502 C2507 1.390 . S
C2503 C2497 1.465 . S
C2503 C2502 1.396 . S
C2503 C2504 1.399 . S
C2504 H2490 0.929 . S
C2504 C2503 1.399 . S
C2504 C2505 1.385 . S
C2505 H2491 0.931 . S
C2505 C2504 1.385 . S
C2505 C2506 1.389 . S
C2506 C2505 1.389 . S
C2506 C2507 1.387 . S
C2507 H2492 0.930 . S
C2507 C2502 1.390 . S
C2507 C2506 1.387 . S
H2508 C2520 0.930 . S
H2509 C2522 0.930 . S
H2510 C2523 0.930 . S
H2511 C2527 0.959 . S
H2512 C2527 0.959 . S
H2513 C2527 0.961 . S
H2514 C2528 0.960 . S
H2515 C2528 0.961 . S
H2516 C2528 0.959 . S
H2517 C2531 0.929 . S
H2518 C2532 0.931 . S
H2519 C2534 0.930 . S
C2520 H2508 0.930 . S
C2520 C2521 1.399 . S
C2520 C2525 1.399 . S
C2521 C2520 1.399 . S
C2521 C2522 1.376 . S
C2522 H2509 0.930 . S
C2522 C2521 1.376 . S
C2522 C2523 1.388 . S
C2523 H2510 0.930 . S
C2523 C2522 1.388 . S
C2523 C2524 1.390 . S
C2524 C2523 1.390 . S
C2524 C2525 1.394 . S
C2524 C2530 1.465 . S
C2525 C2520 1.399 . S
C2525 C2524 1.394 . S
C2525 C2526 1.516 . S
C2526 C2525 1.516 . S
C2526 C2527 1.502 . S
C2526 C2528 1.561 . S
C2526 C2529 1.526 . S
C2527 H2511 0.959 . S
C2527 H2512 0.959 . S
C2527 H2513 0.961 . S
C2527 C2526 1.502 . S
C2528 H2514 0.960 . S
C2528 H2515 0.961 . S
C2528 H2516 0.959 . S
C2528 C2526 1.561 . S
C2529 C2526 1.526 . S
C2529 C2530 1.396 . S
C2529 C2534 1.390 . S
C2530 C2524 1.465 . S
C2530 C2529 1.396 . S
C2530 C2531 1.399 . S
C2531 H2517 0.929 . S
C2531 C2530 1.399 . S
C2531 C2532 1.385 . S
C2532 H2518 0.931 . S
C2532 C2531 1.385 . S
C2532 C2533 1.389 . S
C2533 C2532 1.389 . S
C2533 C2534 1.387 . S
C2534 H2519 0.930 . S
C2534 C2529 1.390 . S
C2534 C2533 1.387 . S
H2535 C2547 0.930 . S
H2536 C2549 0.930 . S
H2537 C2550 0.930 . S
H2538 C2554 0.959 . S
H2539 C2554 0.959 . S
H2540 C2554 0.961 . S
H2541 C2555 0.960 . S
H2542 C2555 0.961 . S
H2543 C2555 0.959 . S
H2544 C2558 0.929 . S
H2545 C2559 0.931 . S
H2546 C2561 0.930 . S
C2547 H2535 0.930 . S
C2547 C2548 1.399 . S
C2547 C2552 1.399 . S
C2548 C2547 1.399 . S
C2548 C2549 1.376 . S
C2549 H2536 0.930 . S
C2549 C2548 1.376 . S
C2549 C2550 1.388 . S
C2550 H2537 0.930 . S
C2550 C2549 1.388 . S
C2550 C2551 1.390 . S
C2551 C2550 1.390 . S
C2551 C2552 1.394 . S
C2551 C2557 1.465 . S
C2552 C2547 1.399 . S
C2552 C2551 1.394 . S
C2552 C2553 1.516 . S
C2553 C2552 1.516 . S
C2553 C2554 1.502 . S
C2553 C2555 1.561 . S
C2553 C2556 1.526 . S
C2554 H2538 0.959 . S
C2554 H2539 0.959 . S
C2554 H2540 0.961 . S
C2554 C2553 1.502 . S
C2555 H2541 0.960 . S
C2555 H2542 0.961 . S
C2555 H2543 0.959 . S
C2555 C2553 1.561 . S
C2556 C2553 1.526 . S
C2556 C2557 1.396 . S
C2556 C2561 1.390 . S
C2557 C2551 1.465 . S
C2557 C2556 1.396 . S
C2557 C2558 1.399 . S
C2558 H2544 0.929 . S
C2558 C2557 1.399 . S
C2558 C2559 1.385 . S
C2559 H2545 0.931 . S
C2559 C2558 1.385 . S
C2559 C2560 1.389 . S
C2560 C2559 1.389 . S
C2560 C2561 1.387 . S
C2561 H2546 0.930 . S
C2561 C2556 1.390 . S
C2561 C2560 1.387 . S
H2562 C2574 0.930 . S
H2563 C2576 0.930 . S
H2564 C2577 0.930 . S
H2565 C2581 0.959 . S
H2566 C2581 0.959 . S
H2567 C2581 0.961 . S
H2568 C2582 0.960 . S
H2569 C2582 0.961 . S
H2570 C2582 0.959 . S
H2571 C2585 0.929 . S
H2572 C2586 0.931 . S
H2573 C2588 0.930 . S
C2574 H2562 0.930 . S
C2574 C2575 1.399 . S
C2574 C2579 1.399 . S
C2575 C2574 1.399 . S
C2575 C2576 1.376 . S
C2576 H2563 0.930 . S
C2576 C2575 1.376 . S
C2576 C2577 1.388 . S
C2577 H2564 0.930 . S
C2577 C2576 1.388 . S
C2577 C2578 1.390 . S
C2578 C2577 1.390 . S
C2578 C2579 1.394 . S
C2578 C2584 1.465 . S
C2579 C2574 1.399 . S
C2579 C2578 1.394 . S
C2579 C2580 1.516 . S
C2580 C2579 1.516 . S
C2580 C2581 1.502 . S
C2580 C2582 1.561 . S
C2580 C2583 1.526 . S
C2581 H2565 0.959 . S
C2581 H2566 0.959 . S
C2581 H2567 0.961 . S
C2581 C2580 1.502 . S
C2582 H2568 0.960 . S
C2582 H2569 0.961 . S
C2582 H2570 0.959 . S
C2582 C2580 1.561 . S
C2583 C2580 1.526 . S
C2583 C2584 1.396 . S
C2583 C2588 1.390 . S
C2584 C2578 1.465 . S
C2584 C2583 1.396 . S
C2584 C2585 1.399 . S
C2585 H2571 0.929 . S
C2585 C2584 1.399 . S
C2585 C2586 1.385 . S
C2586 H2572 0.931 . S
C2586 C2585 1.385 . S
C2586 C2587 1.389 . S
C2587 C2586 1.389 . S
C2587 C2588 1.387 . S
C2588 H2573 0.930 . S
C2588 C2583 1.390 . S
C2588 C2587 1.387 . S
H2589 C2601 0.930 . S
H2590 C2603 0.930 . S
H2591 C2604 0.930 . S
H2592 C2608 0.959 . S
H2593 C2608 0.959 . S
H2594 C2608 0.961 . S
H2595 C2609 0.960 . S
H2596 C2609 0.961 . S
H2597 C2609 0.959 . S
H2598 C2612 0.929 . S
H2599 C2613 0.931 . S
H2600 C2615 0.930 . S
C2601 H2589 0.930 . S
C2601 C2602 1.399 . S
C2601 C2606 1.399 . S
C2602 C2601 1.399 . S
C2602 C2603 1.376 . S
C2603 H2590 0.930 . S
C2603 C2602 1.376 . S
C2603 C2604 1.388 . S
C2604 H2591 0.930 . S
C2604 C2603 1.388 . S
C2604 C2605 1.390 . S
C2605 C2604 1.390 . S
C2605 C2606 1.394 . S
C2605 C2611 1.465 . S
C2606 C2601 1.399 . S
C2606 C2605 1.394 . S
C2606 C2607 1.516 . S
C2607 C2606 1.516 . S
C2607 C2608 1.502 . S
C2607 C2609 1.561 . S
C2607 C2610 1.526 . S
C2608 H2592 0.959 . S
C2608 H2593 0.959 . S
C2608 H2594 0.961 . S
C2608 C2607 1.502 . S
C2609 H2595 0.960 . S
C2609 H2596 0.961 . S
C2609 H2597 0.959 . S
C2609 C2607 1.561 . S
C2610 C2607 1.526 . S
C2610 C2611 1.396 . S
C2610 C2615 1.390 . S
C2611 C2605 1.465 . S
C2611 C2610 1.396 . S
C2611 C2612 1.399 . S
C2612 H2598 0.929 . S
C2612 C2611 1.399 . S
C2612 C2613 1.385 . S
C2613 H2599 0.931 . S
C2613 C2612 1.385 . S
C2613 C2614 1.389 . S
C2614 C2613 1.389 . S
C2614 C2615 1.387 . S
C2615 H2600 0.930 . S
C2615 C2610 1.390 . S
C2615 C2614 1.387 . S
H2616 C2628 0.930 1_455 S
H2617 C2630 0.930 . S
H2618 C2631 0.930 . S
H2619 C2635 0.959 . S
H2620 C2635 0.959 . S
H2621 C2635 0.961 . S
H2622 C2636 0.960 . S
H2623 C2636 0.961 . S
H2624 C2636 0.959 . S
H2625 C2639 0.929 . S
H2626 C2640 0.931 . S
H2627 C2642 0.930 . S
C2628 H2616 0.930 1_655 S
C2628 C2629 1.399 . S
C2628 C2633 1.399 . S
C2629 C2628 1.399 . S
C2629 C2630 1.376 . S
C2630 H2617 0.930 . S
C2630 C2629 1.376 . S
C2630 C2631 1.388 . S
C2631 H2618 0.930 . S
C2631 C2630 1.388 . S
C2631 C2632 1.390 . S
C2632 C2631 1.390 . S
C2632 C2633 1.394 . S
C2632 C2638 1.465 . S
C2633 C2628 1.399 . S
C2633 C2632 1.394 . S
C2633 C2634 1.516 . S
C2634 C2633 1.516 . S
C2634 C2635 1.502 1_655 S
C2634 C2636 1.561 . S
C2634 C2637 1.526 . S
C2635 H2619 0.959 . S
C2635 H2620 0.959 . S
C2635 H2621 0.961 . S
C2635 C2634 1.502 1_455 S
C2636 H2622 0.960 . S
C2636 H2623 0.961 . S
C2636 H2624 0.959 . S
C2636 C2634 1.561 . S
C2637 C2634 1.526 . S
C2637 C2638 1.396 . S
C2637 C2642 1.390 . S
C2638 C2632 1.465 . S
C2638 C2637 1.396 . S
C2638 C2639 1.399 . S
C2639 H2625 0.929 . S
C2639 C2638 1.399 . S
C2639 C2640 1.385 . S
C2640 H2626 0.931 . S
C2640 C2639 1.385 . S
C2640 C2641 1.389 . S
C2641 C2640 1.389 . S
C2641 C2642 1.387 . S
C2642 H2627 0.930 . S
C2642 C2637 1.390 . S
C2642 C2641 1.387 . S
H2643 C2655 0.930 . S
H2644 C2657 0.930 . S
H2645 C2658 0.930 . S
H2646 C2662 0.959 . S
H2647 C2662 0.959 . S
H2648 C2662 0.961 . S
H2649 C2663 0.960 . S
H2650 C2663 0.961 . S
H2651 C2663 0.959 . S
H2652 C2666 0.929 . S
H2653 C2667 0.931 . S
H2654 C2669 0.930 . S
C2655 H2643 0.930 . S
C2655 C2656 1.399 . S
C2655 C2660 1.399 . S
C2656 C2655 1.399 . S
C2656 C2657 1.376 . S
C2657 H2644 0.930 . S
C2657 C2656 1.376 . S
C2657 C2658 1.388 . S
C2658 H2645 0.930 . S
C2658 C2657 1.388 . S
C2658 C2659 1.390 . S
C2659 C2658 1.390 . S
C2659 C2660 1.394 . S
C2659 C2665 1.465 . S
C2660 C2655 1.399 . S
C2660 C2659 1.394 . S
C2660 C2661 1.516 . S
C2661 C2660 1.516 . S
C2661 C2662 1.502 . S
C2661 C2663 1.561 . S
C2661 C2664 1.526 . S
C2662 H2646 0.959 . S
C2662 H2647 0.959 . S
C2662 H2648 0.961 . S
C2662 C2661 1.502 . S
C2663 H2649 0.960 . S
C2663 H2650 0.961 . S
C2663 H2651 0.959 . S
C2663 C2661 1.561 . S
C2664 C2661 1.526 . S
C2664 C2665 1.396 . S
C2664 C2669 1.390 . S
C2665 C2659 1.465 . S
C2665 C2664 1.396 . S
C2665 C2666 1.399 . S
C2666 H2652 0.929 . S
C2666 C2665 1.399 . S
C2666 C2667 1.385 . S
C2667 H2653 0.931 . S
C2667 C2666 1.385 . S
C2667 C2668 1.389 . S
C2668 C2667 1.389 . S
C2668 C2669 1.387 . S
C2669 H2654 0.930 . S
C2669 C2664 1.390 . S
C2669 C2668 1.387 . S
H2670 C2682 0.930 . S
H2671 C2684 0.930 . S
H2672 C2685 0.930 . S
H2673 C2689 0.959 . S
H2674 C2689 0.959 . S
H2675 C2689 0.961 . S
H2676 C2690 0.960 . S
H2677 C2690 0.961 . S
H2678 C2690 0.959 . S
H2679 C2693 0.929 . S
H2680 C2694 0.931 . S
H2681 C2696 0.930 . S
C2682 H2670 0.930 . S
C2682 C2683 1.399 . S
C2682 C2687 1.399 . S
C2683 C2682 1.399 . S
C2683 C2684 1.376 . S
C2684 H2671 0.930 . S
C2684 C2683 1.376 . S
C2684 C2685 1.388 . S
C2685 H2672 0.930 . S
C2685 C2684 1.388 . S
C2685 C2686 1.390 . S
C2686 C2685 1.390 . S
C2686 C2687 1.394 . S
C2686 C2692 1.465 . S
C2687 C2682 1.399 . S
C2687 C2686 1.394 . S
C2687 C2688 1.516 . S
C2688 C2687 1.516 . S
C2688 C2689 1.502 . S
C2688 C2690 1.561 . S
C2688 C2691 1.526 . S
C2689 H2673 0.959 . S
C2689 H2674 0.959 . S
C2689 H2675 0.961 . S
C2689 C2688 1.502 . S
C2690 H2676 0.960 . S
C2690 H2677 0.961 . S
C2690 H2678 0.959 . S
C2690 C2688 1.561 . S
C2691 C2688 1.526 . S
C2691 C2692 1.396 . S
C2691 C2696 1.390 . S
C2692 C2686 1.465 . S
C2692 C2691 1.396 . S
C2692 C2693 1.399 . S
C2693 H2679 0.929 . S
C2693 C2692 1.399 . S
C2693 C2694 1.385 . S
C2694 H2680 0.931 . S
C2694 C2693 1.385 . S
C2694 C2695 1.389 . S
C2695 C2694 1.389 . S
C2695 C2696 1.387 . S
C2696 H2681 0.930 . S
C2696 C2691 1.390 . S
C2696 C2695 1.387 . S
H2697 C2709 0.930 . S
H2698 C2711 0.930 . S
H2699 C2712 0.930 . S
H2700 C2716 0.959 . S
H2701 C2716 0.959 . S
H2702 C2716 0.961 . S
H2703 C2717 0.960 . S
H2704 C2717 0.961 . S
H2705 C2717 0.959 . S
H2706 C2720 0.929 . S
H2707 C2721 0.931 . S
H2708 C2723 0.930 . S
C2709 H2697 0.930 . S
C2709 C2710 1.399 . S
C2709 C2714 1.399 . S
C2710 C2709 1.399 . S
C2710 C2711 1.376 1_556 S
C2711 H2698 0.930 . S
C2711 C2710 1.376 1_554 S
C2711 C2712 1.388 . S
C2712 H2699 0.930 . S
C2712 C2711 1.388 . S
C2712 C2713 1.390 1_554 S
C2713 C2712 1.390 1_556 S
C2713 C2714 1.394 . S
C2713 C2719 1.465 . S
C2714 C2709 1.399 . S
C2714 C2713 1.394 . S
C2714 C2715 1.516 . S
C2715 C2714 1.516 . S
C2715 C2716 1.502 . S
C2715 C2717 1.561 . S
C2715 C2718 1.526 . S
C2716 H2700 0.959 . S
C2716 H2701 0.959 . S
C2716 H2702 0.961 . S
C2716 C2715 1.502 . S
C2717 H2703 0.960 . S
C2717 H2704 0.961 . S
C2717 H2705 0.959 . S
C2717 C2715 1.561 . S
C2718 C2715 1.526 . S
C2718 C2719 1.396 . S
C2718 C2723 1.390 . S
C2719 C2713 1.465 . S
C2719 C2718 1.396 . S
C2719 C2720 1.399 1_556 S
C2720 H2706 0.929 . S
C2720 C2719 1.399 1_554 S
C2720 C2721 1.385 . S
C2721 H2707 0.931 . S
C2721 C2720 1.385 . S
C2721 C2722 1.389 1_554 S
C2722 C2721 1.389 1_556 S
C2722 C2723 1.387 . S
C2723 H2708 0.930 . S
C2723 C2718 1.390 . S
C2723 C2722 1.387 . S
H2724 C2736 0.930 . S
H2725 C2738 0.930 . S
H2726 C2739 0.930 . S
H2727 C2743 0.959 . S
H2728 C2743 0.959 . S
H2729 C2743 0.961 . S
H2730 C2744 0.960 . S
H2731 C2744 0.961 . S
H2732 C2744 0.959 . S
H2733 C2747 0.929 . S
H2734 C2748 0.931 . S
H2735 C2750 0.930 . S
C2736 H2724 0.930 . S
C2736 C2737 1.399 . S
C2736 C2741 1.399 . S
C2737 C2736 1.399 . S
C2737 C2738 1.376 . S
C2738 H2725 0.930 . S
C2738 C2737 1.376 . S
C2738 C2739 1.388 . S
C2739 H2726 0.930 . S
C2739 C2738 1.388 . S
C2739 C2740 1.390 . S
C2740 C2739 1.390 . S
C2740 C2741 1.394 . S
C2740 C2746 1.465 . S
C2741 C2736 1.399 . S
C2741 C2740 1.394 . S
C2741 C2742 1.516 . S
C2742 C2741 1.516 . S
C2742 C2743 1.502 1_655 S
C2742 C2744 1.561 . S
C2742 C2745 1.526 . S
C2743 H2727 0.959 . S
C2743 H2728 0.959 . S
C2743 H2729 0.961 . S
C2743 C2742 1.502 1_455 S
C2744 H2730 0.960 . S
C2744 H2731 0.961 . S
C2744 H2732 0.959 . S
C2744 C2742 1.561 . S
C2745 C2742 1.526 . S
C2745 C2746 1.396 . S
C2745 C2750 1.390 . S
C2746 C2740 1.465 . S
C2746 C2745 1.396 . S
C2746 C2747 1.399 . S
C2747 H2733 0.929 . S
C2747 C2746 1.399 . S
C2747 C2748 1.385 . S
C2748 H2734 0.931 . S
C2748 C2747 1.385 . S
C2748 C2749 1.389 . S
C2749 C2748 1.389 . S
C2749 C2750 1.387 . S
C2750 H2735 0.930 . S
C2750 C2745 1.390 . S
C2750 C2749 1.387 . S
H2751 C2763 0.930 . S
H2752 C2765 0.930 . S
H2753 C2766 0.930 . S
H2754 C2770 0.959 . S
H2755 C2770 0.959 . S
H2756 C2770 0.961 . S
H2757 C2771 0.960 . S
H2758 C2771 0.961 . S
H2759 C2771 0.959 . S
H2760 C2774 0.929 . S
H2761 C2775 0.931 . S
H2762 C2777 0.930 . S
C2763 H2751 0.930 . S
C2763 C2764 1.399 . S
C2763 C2768 1.399 . S
C2764 C2763 1.399 . S
C2764 C2765 1.376 . S
C2765 H2752 0.930 . S
C2765 C2764 1.376 . S
C2765 C2766 1.388 . S
C2766 H2753 0.930 . S
C2766 C2765 1.388 . S
C2766 C2767 1.390 . S
C2767 C2766 1.390 . S
C2767 C2768 1.394 . S
C2767 C2773 1.465 . S
C2768 C2763 1.399 . S
C2768 C2767 1.394 . S
C2768 C2769 1.516 . S
C2769 C2768 1.516 . S
C2769 C2770 1.502 . S
C2769 C2771 1.561 . S
C2769 C2772 1.526 . S
C2770 H2754 0.959 . S
C2770 H2755 0.959 . S
C2770 H2756 0.961 . S
C2770 C2769 1.502 . S
C2771 H2757 0.960 . S
C2771 H2758 0.961 . S
C2771 H2759 0.959 . S
C2771 C2769 1.561 . S
C2772 C2769 1.526 . S
C2772 C2773 1.396 . S
C2772 C2777 1.390 . S
C2773 C2767 1.465 . S
C2773 C2772 1.396 . S
C2773 C2774 1.399 . S
C2774 H2760 0.929 . S
C2774 C2773 1.399 . S
C2774 C2775 1.385 . S
C2775 H2761 0.931 . S
C2775 C2774 1.385 . S
C2775 C2776 1.389 . S
C2776 C2775 1.389 . S
C2776 C2777 1.387 . S
C2777 H2762 0.930 . S
C2777 C2772 1.390 . S
C2777 C2776 1.387 . S
H2778 C2790 0.930 . S
H2779 C2792 0.930 . S
H2780 C2793 0.930 . S
H2781 C2797 0.959 . S
H2782 C2797 0.959 . S
H2783 C2797 0.961 . S
H2784 C2798 0.960 . S
H2785 C2798 0.961 . S
H2786 C2798 0.959 . S
H2787 C2801 0.929 . S
H2788 C2802 0.931 . S
H2789 C2804 0.930 . S
C2790 H2778 0.930 . S
C2790 C2791 1.399 . S
C2790 C2795 1.399 . S
C2791 C2790 1.399 . S
C2791 C2792 1.376 . S
C2792 H2779 0.930 . S
C2792 C2791 1.376 . S
C2792 C2793 1.388 . S
C2793 H2780 0.930 . S
C2793 C2792 1.388 . S
C2793 C2794 1.390 . S
C2794 C2793 1.390 . S
C2794 C2795 1.394 . S
C2794 C2800 1.465 . S
C2795 C2790 1.399 . S
C2795 C2794 1.394 . S
C2795 C2796 1.516 . S
C2796 C2795 1.516 . S
C2796 C2797 1.502 . S
C2796 C2798 1.561 . S
C2796 C2799 1.526 . S
C2797 H2781 0.959 . S
C2797 H2782 0.959 . S
C2797 H2783 0.961 . S
C2797 C2796 1.502 . S
C2798 H2784 0.960 . S
C2798 H2785 0.961 . S
C2798 H2786 0.959 . S
C2798 C2796 1.561 . S
C2799 C2796 1.526 . S
C2799 C2800 1.396 . S
C2799 C2804 1.390 . S
C2800 C2794 1.465 . S
C2800 C2799 1.396 . S
C2800 C2801 1.399 . S
C2801 H2787 0.929 . S
C2801 C2800 1.399 . S
C2801 C2802 1.385 . S
C2802 H2788 0.931 . S
C2802 C2801 1.385 . S
C2802 C2803 1.389 . S
C2803 C2802 1.389 . S
C2803 C2804 1.387 . S
C2804 H2789 0.930 . S
C2804 C2799 1.390 . S
C2804 C2803 1.387 . S
H2805 C2817 0.930 . S
H2806 C2819 0.930 . S
H2807 C2820 0.930 . S
H2808 C2824 0.959 . S
H2809 C2824 0.959 . S
H2810 C2824 0.961 . S
H2811 C2825 0.960 . S
H2812 C2825 0.961 . S
H2813 C2825 0.959 . S
H2814 C2828 0.929 . S
H2815 C2829 0.931 . S
H2816 C2831 0.930 . S
C2817 H2805 0.930 . S
C2817 C2818 1.399 . S
C2817 C2822 1.399 . S
C2818 C2817 1.399 . S
C2818 C2819 1.376 . S
C2819 H2806 0.930 . S
C2819 C2818 1.376 . S
C2819 C2820 1.388 . S
C2820 H2807 0.930 . S
C2820 C2819 1.388 . S
C2820 C2821 1.390 . S
C2821 C2820 1.390 . S
C2821 C2822 1.394 . S
C2821 C2827 1.465 . S
C2822 C2817 1.399 . S
C2822 C2821 1.394 . S
C2822 C2823 1.516 . S
C2823 C2822 1.516 . S
C2823 C2824 1.502 . S
C2823 C2825 1.561 . S
C2823 C2826 1.526 . S
C2824 H2808 0.959 . S
C2824 H2809 0.959 . S
C2824 H2810 0.961 . S
C2824 C2823 1.502 . S
C2825 H2811 0.960 . S
C2825 H2812 0.961 . S
C2825 H2813 0.959 . S
C2825 C2823 1.561 . S
C2826 C2823 1.526 . S
C2826 C2827 1.396 . S
C2826 C2831 1.390 . S
C2827 C2821 1.465 . S
C2827 C2826 1.396 . S
C2827 C2828 1.399 . S
C2828 H2814 0.929 . S
C2828 C2827 1.399 . S
C2828 C2829 1.385 . S
C2829 H2815 0.931 . S
C2829 C2828 1.385 . S
C2829 C2830 1.389 . S
C2830 C2829 1.389 . S
C2830 C2831 1.387 . S
C2831 H2816 0.930 . S
C2831 C2826 1.390 . S
C2831 C2830 1.387 . S
H2832 C2844 0.930 . S
H2833 C2846 0.930 1_545 S
H2834 C2847 0.930 . S
H2835 C2851 0.959 . S
H2836 C2851 0.959 . S
H2837 C2851 0.961 . S
H2838 C2852 0.960 . S
H2839 C2852 0.961 . S
H2840 C2852 0.959 . S
H2841 C2855 0.929 . S
H2842 C2856 0.931 . S
H2843 C2858 0.930 . S
C2844 H2832 0.930 . S
C2844 C2845 1.399 . S
C2844 C2849 1.399 . S
C2845 C2844 1.399 . S
C2845 C2846 1.376 . S
C2846 H2833 0.930 1_565 S
C2846 C2845 1.376 . S
C2846 C2847 1.388 1_565 S
C2847 H2834 0.930 . S
C2847 C2846 1.388 1_545 S
C2847 C2848 1.390 1_545 S
C2848 C2847 1.390 1_565 S
C2848 C2849 1.394 . S
C2848 C2854 1.465 . S
C2849 C2844 1.399 . S
C2849 C2848 1.394 . S
C2849 C2850 1.516 . S
C2850 C2849 1.516 . S
C2850 C2851 1.502 . S
C2850 C2852 1.561 . S
C2850 C2853 1.526 . S
C2851 H2835 0.959 . S
C2851 H2836 0.959 . S
C2851 H2837 0.961 . S
C2851 C2850 1.502 . S
C2852 H2838 0.960 . S
C2852 H2839 0.961 . S
C2852 H2840 0.959 . S
C2852 C2850 1.561 . S
C2853 C2850 1.526 . S
C2853 C2854 1.396 . S
C2853 C2858 1.390 . S
C2854 C2848 1.465 . S
C2854 C2853 1.396 . S
C2854 C2855 1.399 1_565 S
C2855 H2841 0.929 . S
C2855 C2854 1.399 1_545 S
C2855 C2856 1.385 . S
C2856 H2842 0.931 . S
C2856 C2855 1.385 . S
C2856 C2857 1.389 1_545 S
C2857 C2856 1.389 1_565 S
C2857 C2858 1.387 . S
C2858 H2843 0.930 . S
C2858 C2853 1.390 . S
C2858 C2857 1.387 . S
H2859 C2871 0.930 . S
H2860 C2873 0.930 1_545 S
H2861 C2874 0.930 . S
H2862 C2878 0.959 . S
H2863 C2878 0.959 . S
H2864 C2878 0.961 . S
H2865 C2879 0.960 . S
H2866 C2879 0.961 . S
H2867 C2879 0.959 . S
H2868 C2882 0.929 . S
H2869 C2883 0.931 1_545 S
H2870 C2885 0.930 . S
C2871 H2859 0.930 . S
C2871 C2872 1.399 . S
C2871 C2876 1.399 . S
C2872 C2871 1.399 . S
C2872 C2873 1.376 . S
C2873 H2860 0.930 1_565 S
C2873 C2872 1.376 . S
C2873 C2874 1.388 1_565 S
C2874 H2861 0.930 . S
C2874 C2873 1.388 1_545 S
C2874 C2875 1.390 1_545 S
C2875 C2874 1.390 1_565 S
C2875 C2876 1.394 . S
C2875 C2881 1.465 . S
C2876 C2871 1.399 . S
C2876 C2875 1.394 . S
C2876 C2877 1.516 . S
C2877 C2876 1.516 . S
C2877 C2878 1.502 . S
C2877 C2879 1.561 . S
C2877 C2880 1.526 . S
C2878 H2862 0.959 . S
C2878 H2863 0.959 . S
C2878 H2864 0.961 . S
C2878 C2877 1.502 . S
C2879 H2865 0.960 . S
C2879 H2866 0.961 . S
C2879 H2867 0.959 . S
C2879 C2877 1.561 . S
C2880 C2877 1.526 . S
C2880 C2881 1.396 . S
C2880 C2885 1.390 . S
C2881 C2875 1.465 . S
C2881 C2880 1.396 . S
C2881 C2882 1.399 1_565 S
C2882 H2868 0.929 . S
C2882 C2881 1.399 1_545 S
C2882 C2883 1.385 1_545 S
C2883 H2869 0.931 1_565 S
C2883 C2882 1.385 1_565 S
C2883 C2884 1.389 . S
C2884 C2883 1.389 . S
C2884 C2885 1.387 . S
C2885 H2870 0.930 . S
C2885 C2880 1.390 . S
C2885 C2884 1.387 . S
H2886 C2898 0.930 . S
H2887 C2900 0.930 . S
H2888 C2901 0.930 . S
H2889 C2905 0.959 . S
H2890 C2905 0.959 . S
H2891 C2905 0.961 . S
H2892 C2906 0.960 . S
H2893 C2906 0.961 . S
H2894 C2906 0.959 . S
H2895 C2909 0.929 . S
H2896 C2910 0.931 . S
H2897 C2912 0.930 . S
C2898 H2886 0.930 . S
C2898 C2899 1.399 . S
C2898 C2903 1.399 . S
C2899 C2898 1.399 . S
C2899 C2900 1.376 . S
C2900 H2887 0.930 . S
C2900 C2899 1.376 . S
C2900 C2901 1.388 . S
C2901 H2888 0.930 . S
C2901 C2900 1.388 . S
C2901 C2902 1.390 . S
C2902 C2901 1.390 . S
C2902 C2903 1.394 . S
C2902 C2908 1.465 . S
C2903 C2898 1.399 . S
C2903 C2902 1.394 . S
C2903 C2904 1.516 . S
C2904 C2903 1.516 . S
C2904 C2905 1.502 . S
C2904 C2906 1.561 . S
C2904 C2907 1.526 . S
C2905 H2889 0.959 . S
C2905 H2890 0.959 . S
C2905 H2891 0.961 . S
C2905 C2904 1.502 . S
C2906 H2892 0.960 . S
C2906 H2893 0.961 . S
C2906 H2894 0.959 . S
C2906 C2904 1.561 . S
C2907 C2904 1.526 . S
C2907 C2908 1.396 . S
C2907 C2912 1.390 . S
C2908 C2902 1.465 . S
C2908 C2907 1.396 . S
C2908 C2909 1.399 . S
C2909 H2895 0.929 . S
C2909 C2908 1.399 . S
C2909 C2910 1.385 . S
C2910 H2896 0.931 . S
C2910 C2909 1.385 . S
C2910 C2911 1.389 . S
C2911 C2910 1.389 . S
C2911 C2912 1.387 . S
C2912 H2897 0.930 . S
C2912 C2907 1.390 . S
C2912 C2911 1.387 . S
H2913 C2925 0.930 . S
H2914 C2927 0.930 . S
H2915 C2928 0.930 . S
H2916 C2932 0.959 . S
H2917 C2932 0.959 . S
H2918 C2932 0.961 . S
H2919 C2933 0.960 . S
H2920 C2933 0.961 . S
H2921 C2933 0.959 . S
H2922 C2936 0.929 . S
H2923 C2937 0.931 . S
H2924 C2939 0.930 . S
C2925 H2913 0.930 . S
C2925 C2926 1.399 . S
C2925 C2930 1.399 . S
C2926 C2925 1.399 . S
C2926 C2927 1.376 . S
C2927 H2914 0.930 . S
C2927 C2926 1.376 . S
C2927 C2928 1.388 . S
C2928 H2915 0.930 . S
C2928 C2927 1.388 . S
C2928 C2929 1.390 . S
C2929 C2928 1.390 . S
C2929 C2930 1.394 . S
C2929 C2935 1.465 . S
C2930 C2925 1.399 . S
C2930 C2929 1.394 . S
C2930 C2931 1.516 . S
C2931 C2930 1.516 . S
C2931 C2932 1.502 . S
C2931 C2933 1.561 . S
C2931 C2934 1.526 . S
C2932 H2916 0.959 . S
C2932 H2917 0.959 . S
C2932 H2918 0.961 . S
C2932 C2931 1.502 . S
C2933 H2919 0.960 . S
C2933 H2920 0.961 . S
C2933 H2921 0.959 . S
C2933 C2931 1.561 . S
C2934 C2931 1.526 . S
C2934 C2935 1.396 . S
C2934 C2939 1.390 . S
C2935 C2929 1.465 . S
C2935 C2934 1.396 . S
C2935 C2936 1.399 . S
C2936 H2922 0.929 . S
C2936 C2935 1.399 . S
C2936 C2937 1.385 . S
C2937 H2923 0.931 . S
C2937 C2936 1.385 . S
C2937 C2938 1.389 . S
C2938 C2937 1.389 . S
C2938 C2939 1.387 . S
C2939 H2924 0.930 . S
C2939 C2934 1.390 . S
C2939 C2938 1.387 . S
H2940 C2952 0.993 . S
H2941 C2954 0.930 . S
H2942 C2955 0.930 . S
H2943 C2959 0.959 . S
H2944 C2959 0.959 . S
H2945 C2959 0.961 . S
H2946 C2960 0.960 . S
H2947 C2960 0.961 . S
H2948 C2960 0.959 . S
H2949 C2963 0.929 . S
H2950 C2964 0.931 . S
H2951 C2966 0.930 1_554 S
C2952 H2940 0.993 . S
C2952 C2953 1.357 1_554 S
C2952 C2957 1.380 1_554 S
C2953 C2952 1.357 1_556 S
C2953 C2954 1.376 . S
C2954 H2941 0.930 . S
C2954 C2953 1.376 . S
C2954 C2955 1.388 . S
C2955 H2942 0.930 . S
C2955 C2954 1.388 . S
C2955 C2956 1.390 . S
C2956 C2955 1.390 . S
C2956 C2957 1.394 . S
C2956 C2962 1.465 . S
C2957 C2952 1.380 1_556 S
C2957 C2956 1.394 . S
C2957 C2958 1.516 1_556 S
C2958 C2957 1.516 1_554 S
C2958 C2959 1.502 . S
C2958 C2960 1.561 . S
C2958 C2961 1.526 1_554 S
C2959 H2943 0.959 . S
C2959 H2944 0.959 . S
C2959 H2945 0.961 . S
C2959 C2958 1.502 . S
C2960 H2946 0.960 . S
C2960 H2947 0.961 . S
C2960 H2948 0.959 . S
C2960 C2958 1.561 . S
C2961 C2958 1.526 1_556 S
C2961 C2962 1.396 . S
C2961 C2966 1.390 . S
C2962 C2956 1.465 . S
C2962 C2961 1.396 . S
C2962 C2963 1.399 . S
C2963 H2949 0.929 . S
C2963 C2962 1.399 . S
C2963 C2964 1.385 . S
C2964 H2950 0.931 . S
C2964 C2963 1.385 . S
C2964 C2965 1.389 . S
C2965 C2964 1.389 . S
C2965 C2966 1.387 . S
C2966 H2951 0.930 1_556 S
C2966 C2961 1.390 . S
C2966 C2965 1.387 . S
H2967 C2979 0.930 . S
H2968 C2981 0.930 . S
H2969 C2982 0.930 . S
H2970 C2986 0.959 . S
H2971 C2986 0.959 . S
H2972 C2986 0.961 . S
H2973 C2987 0.960 . S
H2974 C2987 0.961 . S
H2975 C2987 0.959 . S
H2976 C2990 0.929 . S
H2977 C2991 0.931 . S
H2978 C2993 0.930 . S
C2979 H2967 0.930 . S
C2979 C2980 1.399 . S
C2979 C2984 1.399 . S
C2980 C2979 1.399 . S
C2980 C2981 1.376 . S
C2981 H2968 0.930 . S
C2981 C2980 1.376 . S
C2981 C2982 1.388 . S
C2982 H2969 0.930 . S
C2982 C2981 1.388 . S
C2982 C2983 1.390 . S
C2983 C2982 1.390 . S
C2983 C2984 1.394 . S
C2983 C2989 1.465 . S
C2984 C2979 1.399 . S
C2984 C2983 1.394 . S
C2984 C2985 1.516 . S
C2985 C2984 1.516 . S
C2985 C2986 1.502 . S
C2985 C2987 1.561 . S
C2985 C2988 1.526 . S
C2986 H2970 0.959 . S
C2986 H2971 0.959 . S
C2986 H2972 0.961 . S
C2986 C2985 1.502 . S
C2987 H2973 0.960 . S
C2987 H2974 0.961 . S
C2987 H2975 0.959 . S
C2987 C2985 1.561 . S
C2988 C2985 1.526 . S
C2988 C2989 1.396 . S
C2988 C2993 1.390 . S
C2989 C2983 1.465 . S
C2989 C2988 1.396 . S
C2989 C2990 1.399 . S
C2990 H2976 0.929 . S
C2990 C2989 1.399 . S
C2990 C2991 1.385 . S
C2991 H2977 0.931 . S
C2991 C2990 1.385 . S
C2991 C2992 1.389 . S
C2992 C2991 1.389 . S
C2992 C2993 1.387 . S
C2993 H2978 0.930 . S
C2993 C2988 1.390 . S
C2993 C2992 1.387 . S
H2994 C3006 0.930 . S
H2995 C3008 0.930 . S
H2996 C3009 0.930 . S
H2997 C3013 0.959 . S
H2998 C3013 0.959 . S
H2999 C3013 0.961 . S
H3000 C3014 0.960 . S
H3001 C3014 0.961 . S
H3002 C3014 0.959 . S
H3003 C3017 0.929 . S
H3004 C3018 0.931 . S
H3005 C3020 0.930 . S
C3006 H2994 0.930 . S
C3006 C3007 1.399 . S
C3006 C3011 1.399 . S
C3007 C3006 1.399 . S
C3007 C3008 1.376 . S
C3008 H2995 0.930 . S
C3008 C3007 1.376 . S
C3008 C3009 1.388 . S
C3009 H2996 0.930 . S
C3009 C3008 1.388 . S
C3009 C3010 1.390 . S
C3010 C3009 1.390 . S
C3010 C3011 1.394 . S
C3010 C3016 1.465 . S
C3011 C3006 1.399 . S
C3011 C3010 1.394 . S
C3011 C3012 1.516 . S
C3012 C3011 1.516 . S
C3012 C3013 1.502 . S
C3012 C3014 1.561 . S
C3012 C3015 1.526 . S
C3013 H2997 0.959 . S
C3013 H2998 0.959 . S
C3013 H2999 0.961 . S
C3013 C3012 1.502 . S
C3014 H3000 0.960 . S
C3014 H3001 0.961 . S
C3014 H3002 0.959 . S
C3014 C3012 1.561 . S
C3015 C3012 1.526 . S
C3015 C3016 1.396 . S
C3015 C3020 1.390 . S
C3016 C3010 1.465 . S
C3016 C3015 1.396 . S
C3016 C3017 1.399 . S
C3017 H3003 0.929 . S
C3017 C3016 1.399 . S
C3017 C3018 1.385 . S
C3018 H3004 0.931 . S
C3018 C3017 1.385 . S
C3018 C3019 1.389 . S
C3019 C3018 1.389 . S
C3019 C3020 1.387 . S
C3020 H3005 0.930 . S
C3020 C3015 1.390 . S
C3020 C3019 1.387 . S
H3021 C3033 0.930 . S
H3022 C3035 0.930 . S
H3023 C3036 0.930 . S
H3024 C3040 0.959 . S
H3025 C3040 0.959 . S
H3026 C3040 0.961 . S
H3027 C3041 0.960 . S
H3028 C3041 0.961 . S
H3029 C3041 0.959 . S
H3030 C3044 0.929 . S
H3031 C3045 0.931 . S
H3032 C3047 0.930 . S
C3033 H3021 0.930 . S
C3033 C3034 1.399 . S
C3033 C3038 1.399 . S
C3034 C3033 1.399 . S
C3034 C3035 1.376 . S
C3035 H3022 0.930 . S
C3035 C3034 1.376 . S
C3035 C3036 1.388 . S
C3036 H3023 0.930 . S
C3036 C3035 1.388 . S
C3036 C3037 1.390 . S
C3037 C3036 1.390 . S
C3037 C3038 1.394 . S
C3037 C3043 1.465 . S
C3038 C3033 1.399 . S
C3038 C3037 1.394 . S
C3038 C3039 1.516 . S
C3039 C3038 1.516 . S
C3039 C3040 1.502 . S
C3039 C3041 1.561 . S
C3039 C3042 1.526 . S
C3040 H3024 0.959 . S
C3040 H3025 0.959 . S
C3040 H3026 0.961 . S
C3040 C3039 1.502 . S
C3041 H3027 0.960 . S
C3041 H3028 0.961 . S
C3041 H3029 0.959 . S
C3041 C3039 1.561 . S
C3042 C3039 1.526 . S
C3042 C3043 1.396 . S
C3042 C3047 1.390 . S
C3043 C3037 1.465 . S
C3043 C3042 1.396 . S
C3043 C3044 1.399 . S
C3044 H3030 0.929 . S
C3044 C3043 1.399 . S
C3044 C3045 1.385 . S
C3045 H3031 0.931 . S
C3045 C3044 1.385 . S
C3045 C3046 1.389 . S
C3046 C3045 1.389 . S
C3046 C3047 1.387 . S
C3047 H3032 0.930 . S
C3047 C3042 1.390 . S
C3047 C3046 1.387 . S
H3048 C3060 0.930 . S
H3049 C3062 0.930 . S
H3050 C3063 0.930 . S
H3051 C3067 0.959 . S
H3052 C3067 0.959 . S
H3053 C3067 0.961 . S
H3054 C3068 0.960 . S
H3055 C3068 0.961 . S
H3056 C3068 0.959 . S
H3057 C3071 0.929 . S
H3058 C3072 0.931 . S
H3059 C3074 0.930 . S
C3060 H3048 0.930 . S
C3060 C3061 1.399 . S
C3060 C3065 1.399 . S
C3061 C3060 1.399 . S
C3061 C3062 1.376 . S
C3062 H3049 0.930 . S
C3062 C3061 1.376 . S
C3062 C3063 1.388 . S
C3063 H3050 0.930 . S
C3063 C3062 1.388 . S
C3063 C3064 1.390 . S
C3064 C3063 1.390 . S
C3064 C3065 1.394 . S
C3064 C3070 1.465 . S
C3065 C3060 1.399 . S
C3065 C3064 1.394 . S
C3065 C3066 1.516 . S
C3066 C3065 1.516 . S
C3066 C3067 1.502 . S
C3066 C3068 1.561 . S
C3066 C3069 1.526 . S
C3067 H3051 0.959 . S
C3067 H3052 0.959 . S
C3067 H3053 0.961 . S
C3067 C3066 1.502 . S
C3068 H3054 0.960 . S
C3068 H3055 0.961 . S
C3068 H3056 0.959 . S
C3068 C3066 1.561 . S
C3069 C3066 1.526 . S
C3069 C3070 1.396 . S
C3069 C3074 1.390 . S
C3070 C3064 1.465 . S
C3070 C3069 1.396 . S
C3070 C3071 1.399 . S
C3071 H3057 0.929 . S
C3071 C3070 1.399 . S
C3071 C3072 1.385 . S
C3072 H3058 0.931 . S
C3072 C3071 1.385 . S
C3072 C3073 1.389 . S
C3073 C3072 1.389 . S
C3073 C3074 1.387 . S
C3074 H3059 0.930 . S
C3074 C3069 1.390 . S
C3074 C3073 1.387 . S
H3075 C3087 0.930 . S
H3076 C3089 0.930 . S
H3077 C3090 0.930 . S
H3078 C3094 0.959 . S
H3079 C3094 0.959 . S
H3080 C3094 0.961 . S
H3081 C3095 0.960 . S
H3082 C3095 0.961 . S
H3083 C3095 0.959 . S
H3084 C3098 0.929 . S
H3085 C3099 0.931 . S
H3086 C3101 0.930 . S
C3087 H3075 0.930 . S
C3087 C3088 1.399 . S
C3087 C3092 1.399 . S
C3088 C3087 1.399 . S
C3088 C3089 1.376 . S
C3089 H3076 0.930 . S
C3089 C3088 1.376 . S
C3089 C3090 1.388 . S
C3090 H3077 0.930 . S
C3090 C3089 1.388 . S
C3090 C3091 1.390 . S
C3091 C3090 1.390 . S
C3091 C3092 1.394 . S
C3091 C3097 1.465 . S
C3092 C3087 1.399 . S
C3092 C3091 1.394 . S
C3092 C3093 1.516 . S
C3093 C3092 1.516 . S
C3093 C3094 1.502 . S
C3093 C3095 1.561 . S
C3093 C3096 1.526 . S
C3094 H3078 0.959 . S
C3094 H3079 0.959 . S
C3094 H3080 0.961 . S
C3094 C3093 1.502 . S
C3095 H3081 0.960 . S
C3095 H3082 0.961 . S
C3095 H3083 0.959 . S
C3095 C3093 1.561 . S
C3096 C3093 1.526 . S
C3096 C3097 1.396 . S
C3096 C3101 1.390 . S
C3097 C3091 1.465 . S
C3097 C3096 1.396 . S
C3097 C3098 1.399 . S
C3098 H3084 0.929 . S
C3098 C3097 1.399 . S
C3098 C3099 1.385 . S
C3099 H3085 0.931 . S
C3099 C3098 1.385 . S
C3099 C3100 1.389 . S
C3100 C3099 1.389 . S
C3100 C3101 1.387 . S
C3101 H3086 0.930 . S
C3101 C3096 1.390 . S
C3101 C3100 1.387 . S
H3102 C3114 0.930 . S
H3103 C3116 0.930 . S
H3104 C3117 0.930 . S
H3105 C3121 0.959 . S
H3106 C3121 0.959 . S
H3107 C3121 0.961 . S
H3108 C3122 0.960 . S
H3109 C3122 0.961 . S
H3110 C3122 0.959 . S
H3111 C3125 0.929 . S
H3112 C3126 0.931 . S
H3113 C3128 0.930 . S
C3114 H3102 0.930 . S
C3114 C3115 1.399 . S
C3114 C3119 1.399 . S
C3115 C3114 1.399 . S
C3115 C3116 1.376 . S
C3116 H3103 0.930 . S
C3116 C3115 1.376 . S
C3116 C3117 1.388 . S
C3117 H3104 0.930 . S
C3117 C3116 1.388 . S
C3117 C3118 1.390 . S
C3118 C3117 1.390 . S
C3118 C3119 1.394 . S
C3118 C3124 1.465 . S
C3119 C3114 1.399 . S
C3119 C3118 1.394 . S
C3119 C3120 1.516 . S
C3120 C3119 1.516 . S
C3120 C3121 1.502 . S
C3120 C3122 1.561 . S
C3120 C3123 1.526 . S
C3121 H3105 0.959 . S
C3121 H3106 0.959 . S
C3121 H3107 0.961 . S
C3121 C3120 1.502 . S
C3122 H3108 0.960 . S
C3122 H3109 0.961 . S
C3122 H3110 0.959 . S
C3122 C3120 1.561 . S
C3123 C3120 1.526 . S
C3123 C3124 1.396 . S
C3123 C3128 1.390 . S
C3124 C3118 1.465 . S
C3124 C3123 1.396 . S
C3124 C3125 1.399 . S
C3125 H3111 0.929 . S
C3125 C3124 1.399 . S
C3125 C3126 1.385 . S
C3126 H3112 0.931 . S
C3126 C3125 1.385 . S
C3126 C3127 1.389 . S
C3127 C3126 1.389 . S
C3127 C3128 1.387 . S
C3128 H3113 0.930 . S
C3128 C3123 1.390 . S
C3128 C3127 1.387 . S
H3129 C3141 0.930 . S
H3130 C3143 0.930 . S
H3131 C3144 0.930 . S
H3132 C3148 0.959 . S
H3133 C3148 0.959 . S
H3134 C3148 0.961 . S
H3135 C3149 0.960 . S
H3136 C3149 0.961 . S
H3137 C3149 0.959 . S
H3138 C3152 0.929 . S
H3139 C3153 0.931 . S
H3140 C3155 0.930 . S
C3141 H3129 0.930 . S
C3141 C3142 1.399 . S
C3141 C3146 1.399 . S
C3142 C3141 1.399 . S
C3142 C3143 1.376 . S
C3143 H3130 0.930 . S
C3143 C3142 1.376 . S
C3143 C3144 1.388 . S
C3144 H3131 0.930 . S
C3144 C3143 1.388 . S
C3144 C3145 1.390 . S
C3145 C3144 1.390 . S
C3145 C3146 1.394 . S
C3145 C3151 1.465 . S
C3146 C3141 1.399 . S
C3146 C3145 1.394 . S
C3146 C3147 1.516 . S
C3147 C3146 1.516 . S
C3147 C3148 1.502 . S
C3147 C3149 1.561 . S
C3147 C3150 1.526 . S
C3148 H3132 0.959 . S
C3148 H3133 0.959 . S
C3148 H3134 0.961 . S
C3148 C3147 1.502 . S
C3149 H3135 0.960 . S
C3149 H3136 0.961 . S
C3149 H3137 0.959 . S
C3149 C3147 1.561 . S
C3150 C3147 1.526 . S
C3150 C3151 1.396 . S
C3150 C3155 1.390 . S
C3151 C3145 1.465 . S
C3151 C3150 1.396 . S
C3151 C3152 1.399 . S
C3152 H3138 0.929 . S
C3152 C3151 1.399 . S
C3152 C3153 1.385 . S
C3153 H3139 0.931 . S
C3153 C3152 1.385 . S
C3153 C3154 1.389 . S
C3154 C3153 1.389 . S
C3154 C3155 1.387 . S
C3155 H3140 0.930 . S
C3155 C3150 1.390 . S
C3155 C3154 1.387 . S
H3156 C3168 0.930 . S
H3157 C3170 0.930 . S
H3158 C3171 0.930 . S
H3159 C3175 0.959 . S
H3160 C3175 0.959 . S
H3161 C3175 0.961 . S
H3162 C3176 0.960 . S
H3163 C3176 0.961 . S
H3164 C3176 0.959 . S
H3165 C3179 0.929 . S
H3166 C3180 0.931 . S
H3167 C3182 0.930 . S
C3168 H3156 0.930 . S
C3168 C3169 1.399 . S
C3168 C3173 1.399 . S
C3169 C3168 1.399 . S
C3169 C3170 1.376 . S
C3170 H3157 0.930 . S
C3170 C3169 1.376 . S
C3170 C3171 1.388 . S
C3171 H3158 0.930 . S
C3171 C3170 1.388 . S
C3171 C3172 1.390 . S
C3172 C3171 1.390 . S
C3172 C3173 1.394 . S
C3172 C3178 1.465 . S
C3173 C3168 1.399 . S
C3173 C3172 1.394 . S
C3173 C3174 1.516 . S
C3174 C3173 1.516 . S
C3174 C3175 1.502 . S
C3174 C3176 1.561 . S
C3174 C3177 1.526 . S
C3175 H3159 0.959 . S
C3175 H3160 0.959 . S
C3175 H3161 0.961 . S
C3175 C3174 1.502 . S
C3176 H3162 0.960 . S
C3176 H3163 0.961 . S
C3176 H3164 0.959 . S
C3176 C3174 1.561 . S
C3177 C3174 1.526 . S
C3177 C3178 1.396 . S
C3177 C3182 1.390 . S
C3178 C3172 1.465 . S
C3178 C3177 1.396 . S
C3178 C3179 1.399 . S
C3179 H3165 0.929 . S
C3179 C3178 1.399 . S
C3179 C3180 1.385 . S
C3180 H3166 0.931 . S
C3180 C3179 1.385 . S
C3180 C3181 1.389 . S
C3181 C3180 1.389 . S
C3181 C3182 1.387 . S
C3182 H3167 0.930 . S
C3182 C3177 1.390 . S
C3182 C3181 1.387 . S
H3183 C3195 0.930 . S
H3184 C3197 0.930 . S
H3185 C3198 0.930 . S
H3186 C3202 0.959 . S
H3187 C3202 0.959 . S
H3188 C3202 0.961 . S
H3189 C3203 0.960 . S
H3190 C3203 0.961 . S
H3191 C3203 0.959 . S
H3192 C3206 0.929 . S
H3193 C3207 0.931 . S
H3194 C3209 0.930 . S
C3195 H3183 0.930 . S
C3195 C3196 1.399 . S
C3195 C3200 1.399 . S
C3196 C3195 1.399 . S
C3196 C3197 1.376 . S
C3197 H3184 0.930 . S
C3197 C3196 1.376 . S
C3197 C3198 1.388 . S
C3198 H3185 0.930 . S
C3198 C3197 1.388 . S
C3198 C3199 1.390 . S
C3199 C3198 1.390 . S
C3199 C3200 1.394 . S
C3199 C3205 1.465 . S
C3200 C3195 1.399 . S
C3200 C3199 1.394 . S
C3200 C3201 1.516 . S
C3201 C3200 1.516 . S
C3201 C3202 1.502 . S
C3201 C3203 1.561 . S
C3201 C3204 1.526 . S
C3202 H3186 0.959 . S
C3202 H3187 0.959 . S
C3202 H3188 0.961 . S
C3202 C3201 1.502 . S
C3203 H3189 0.960 . S
C3203 H3190 0.961 . S
C3203 H3191 0.959 . S
C3203 C3201 1.561 . S
C3204 C3201 1.526 . S
C3204 C3205 1.396 . S
C3204 C3209 1.390 . S
C3205 C3199 1.465 . S
C3205 C3204 1.396 . S
C3205 C3206 1.399 . S
C3206 H3192 0.929 . S
C3206 C3205 1.399 . S
C3206 C3207 1.385 . S
C3207 H3193 0.931 . S
C3207 C3206 1.385 . S
C3207 C3208 1.389 . S
C3208 C3207 1.389 . S
C3208 C3209 1.387 . S
C3209 H3194 0.930 . S
C3209 C3204 1.390 . S
C3209 C3208 1.387 . S
H3210 C3222 0.930 . S
H3211 C3224 0.930 . S
H3212 C3225 0.930 . S
H3213 C3229 0.959 . S
H3214 C3229 0.959 . S
H3215 C3229 0.961 . S
H3216 C3230 0.960 . S
H3217 C3230 0.961 . S
H3218 C3230 0.959 . S
H3219 C3233 0.929 . S
H3220 C3234 0.931 . S
H3221 C3236 0.930 . S
C3222 H3210 0.930 . S
C3222 C3223 1.399 . S
C3222 C3227 1.399 . S
C3223 C3222 1.399 . S
C3223 C3224 1.376 . S
C3224 H3211 0.930 . S
C3224 C3223 1.376 . S
C3224 C3225 1.388 . S
C3225 H3212 0.930 . S
C3225 C3224 1.388 . S
C3225 C3226 1.390 . S
C3226 C3225 1.390 . S
C3226 C3227 1.394 . S
C3226 C3232 1.465 . S
C3227 C3222 1.399 . S
C3227 C3226 1.394 . S
C3227 C3228 1.516 . S
C3228 C3227 1.516 . S
C3228 C3229 1.502 . S
C3228 C3230 1.561 . S
C3228 C3231 1.526 . S
C3229 H3213 0.959 . S
C3229 H3214 0.959 . S
C3229 H3215 0.961 . S
C3229 C3228 1.502 . S
C3230 H3216 0.960 . S
C3230 H3217 0.961 . S
C3230 H3218 0.959 . S
C3230 C3228 1.561 . S
C3231 C3228 1.526 . S
C3231 C3232 1.396 . S
C3231 C3236 1.390 . S
C3232 C3226 1.465 . S
C3232 C3231 1.396 . S
C3232 C3233 1.399 . S
C3233 H3219 0.929 . S
C3233 C3232 1.399 . S
C3233 C3234 1.385 . S
C3234 H3220 0.931 . S
C3234 C3233 1.385 . S
C3234 C3235 1.389 . S
C3235 C3234 1.389 . S
C3235 C3236 1.387 . S
C3236 H3221 0.930 . S
C3236 C3231 1.390 . S
C3236 C3235 1.387 . S
H3237 C3249 0.930 . S
H3238 C3251 0.930 . S
H3239 C3252 0.930 . S
H3240 C3256 0.959 . S
H3241 C3256 0.959 . S
H3242 C3256 0.961 . S
H3243 C3257 0.960 . S
H3244 C3257 0.961 . S
H3245 C3257 0.959 . S
H3246 C3260 0.929 . S
H3247 C3261 0.931 . S
H3248 C3263 0.930 . S
C3249 H3237 0.930 . S
C3249 C3250 1.399 . S
C3249 C3254 1.399 . S
C3250 C3249 1.399 . S
C3250 C3251 1.376 . S
C3251 H3238 0.930 . S
C3251 C3250 1.376 . S
C3251 C3252 1.388 . S
C3252 H3239 0.930 . S
C3252 C3251 1.388 . S
C3252 C3253 1.390 . S
C3253 C3252 1.390 . S
C3253 C3254 1.394 . S
C3253 C3259 1.465 . S
C3254 C3249 1.399 . S
C3254 C3253 1.394 . S
C3254 C3255 1.516 . S
C3255 C3254 1.516 . S
C3255 C3256 1.502 . S
C3255 C3257 1.561 . S
C3255 C3258 1.526 . S
C3256 H3240 0.959 . S
C3256 H3241 0.959 . S
C3256 H3242 0.961 . S
C3256 C3255 1.502 . S
C3257 H3243 0.960 . S
C3257 H3244 0.961 . S
C3257 H3245 0.959 . S
C3257 C3255 1.561 . S
C3258 C3255 1.526 . S
C3258 C3259 1.396 . S
C3258 C3263 1.390 . S
C3259 C3253 1.465 . S
C3259 C3258 1.396 . S
C3259 C3260 1.399 . S
C3260 H3246 0.929 . S
C3260 C3259 1.399 . S
C3260 C3261 1.385 . S
C3261 H3247 0.931 . S
C3261 C3260 1.385 . S
C3261 C3262 1.389 . S
C3262 C3261 1.389 . S
C3262 C3263 1.387 . S
C3263 H3248 0.930 . S
C3263 C3258 1.390 . S
C3263 C3262 1.387 . S
C685 C3 0.693 . S
C697 C367 0.686 . S
C712 C381 0.767 . S
C724 C17 0.771 . S
C739 C31 1.200 . S
C751 C339 1.228 . S
C766 C353 1.426 . S
C778 C45 1.327 . S
C793 C59 0.729 . S
C805 C423 0.669 . S
C820 C73 1.226 . S
C832 C437 1.328 . S
C847 C87 1.413 . S
C859 C395 1.504 . S
C874 C101 0.532 . S
C886 C409 0.462 . S
C901 C171 0.686 . S
C913 C115 0.718 . S
C928 C129 1.481 . S
C940 C185 1.395 . S
C955 C199 0.681 . S
C967 C143 0.673 . S
C982 C157 0.556 . S
C994 C213 0.681 . S
C1009 C605 0.627 . S
C1021 C227 0.760 . S
C1036 C633 0.629 . S
C1048 C241 0.659 . S
C1063 C311 1.483 . S
C1075 C255 1.386 . S
C1090 C563 1.295 . S
C1102 C269 1.166 . S
C1117 C661 0.686 . S
C1129 C283 0.681 . S
C1144 C577 1.477 . S
C1156 C297 1.440 . S
C1171 C325 1.145 . S
C1183 C619 1.239 . S
C1198 C451 1.222 . S
C1210 C507 1.206 . S
C1225 C521 0.735 . S
C1237 C465 0.776 . S
C1252 C479 1.410 . S
C1264 C535 1.529 . S
C1279 C549 1.275 . S
C1291 C493 1.144 . S
C1306 C591 0.557 . S
C1318 C647 0.618 . S
C1333 C7 0.701 . S
C1345 C105 0.430 . S
C1360 C63 0.644 . S
C1372 C21 0.409 . S
C1387 C35 1.131 . S
C1399 C77 1.175 . S
C1414 C49 1.341 . S
C1426 C91 1.287 . S
C1441 C287 0.364 . S
C1453 C119 0.647 . S
C1468 C581 1.291 . S
C1480 C133 1.229 . S
C1495 C147 0.791 . S
C1507 C595 0.403 . S
C1522 C161 0.572 . S
C1534 C609 0.966 . S
C1549 C665 0.572 . S
C1561 C175 0.966 . S
C1576 C189 1.426 . S
C1588 C301 1.419 . S
C1603 C203 0.730 . S
C1615 C651 0.491 . S
C1630 C217 0.590 . S
C1642 C231 0.868 . S
C1657 C245 0.736 . S
C1669 C469 0.339 . S
C1684 C259 1.320 . S
C1696 C483 1.268 . S
C1711 C497 1.310 . S
C1723 C273 1.291 . S
C1738 C315 1.424 . S
C1750 C539 1.426 . S
C1765 C511 1.135 . S
C1777 C329 1.193 . S
C1792 C441 1.237 . S
C1804 C343 1.155 . S
C1819 C357 1.417 . S
C1831 C399 1.382 . S
C1846 C413 0.397 . S
C1858 C371 0.826 . S
C1873 C385 0.568 . S
C1885 C427 0.935 . S
C1900 C455 1.089 . S
C1912 C623 1.139 . S
C1927 C637 0.782 . S
C1939 C525 0.535 . S
C1954 C567 1.174 . S
C1966 C553 1.252 . S
C1981 C9 1.246 . S
C1993 C415 0.936 . S
C2008 C429 1.264 . S
C2020 C23 1.141 . S
C2035 C37 1.000 . S
C2047 C443 1.053 . S
C2062 C51 0.978 . S
C2074 C401 0.937 . S
C2089 C387 1.110 . S
C2101 C65 1.210 . S
C2116 C79 0.982 . S
C2128 C345 0.990 . S
C2143 C359 0.936 . S
C2155 C93 0.913 . S
C2170 C107 1.008 . S
C2182 C373 1.286 . S
C2197 C667 0.953 . S
C2209 C121 1.232 . S
C2224 C135 0.948 . S
C2236 C303 0.908 . S
C2251 C149 1.275 . S
C2263 C653 1.121 . S
C2278 C233 1.262 . S
C2290 C163 1.088 . S
C2305 C177 1.299 . S
C2317 C289 1.162 . S
C2332 C191 0.946 . S
C2344 C583 0.904 . S
C2359 C597 0.958 . S
C2371 C205 1.182 . S
C2386 C611 1.281 . S
C2398 C219 1.001 . S
C2413 C527 1.161 . S
C2425 C247 1.260 . S
C2440 C541 0.997 . S
C2452 C261 0.978 . S
C2467 C555 1.002 . S
C2479 C275 1.008 . S
C2494 C317 0.999 . S
C2506 C485 1.022 . S
C2521 C457 1.038 . S
C2533 C331 1.071 . S
C2548 C471 0.963 . S
C2560 C639 1.205 . S
C2575 C499 1.058 . S
C2587 C569 1.020 . S
C2602 C625 1.002 . S
C2614 C513 1.019 . S
C2629 C8 1.646 . S
C2641 C316 1.623 . S
C2656 C22 1.774 . S
C2668 C568 1.803 . S
C2683 C330 1.775 . S
C2695 C36 1.773 . S
C2710 C638 1.614 . S
C2722 C50 1.720 . S
C2737 C260 1.679 . S
C2749 C64 1.626 . S
C2764 C274 1.766 . S
C2776 C78 1.736 . S
C2791 C92 1.783 . S
C2803 C624 1.752 . S
C2818 C106 1.635 . S
C2830 C246 1.674 . S
C2845 C190 1.682 . S
C2857 C120 1.565 . S
C2872 C134 1.714 . S
C2884 C204 1.595 . S
C2899 C218 1.620 . S
C2911 C148 1.677 . S
C2926 C176 1.604 . S
C2938 C162 1.563 . S
C2953 C232 1.613 . S
C2965 C358 1.636 . S
C2980 C428 1.685 . S
C2992 C288 1.612 . S
C3007 C386 1.682 . S
C3019 C302 1.696 . S
C3034 C344 1.812 . S
C3046 C652 1.757 . S
C3061 C666 1.599 . S
C3073 C372 1.555 . S
C3088 C596 1.644 . S
C3100 C400 1.713 . S
C3115 C610 1.615 . S
C3127 C414 1.563 . S
C3142 C582 1.740 . S
C3154 C442 1.799 . S
C3169 C526 1.776 . S
C3181 C456 1.801 . S
C3196 C540 1.712 . S
C3208 C470 1.645 . S
C3223 C484 1.780 . S
C3235 C554 1.791 . S
C3250 C498 1.783 . S
C3262 C512 1.741 . S
