# Generated by pormake.
# Topology unm, (4)-cn, num edge types: 1
# Building blocks:
#     Node 0, Type 0, BuildingBlock: ICAMEG_clean_sbu_1, # of connection points: 4
#     Node 1, Type 0, BuildingBlock: ICAMEG_clean_sbu_1, # of connection points: 4
#     Node 2, Type 0, BuildingBlock: ICAMEG_clean_sbu_1, # of connection points: 4
#     Node 3, Type 0, BuildingBlock: ICAMEG_clean_sbu_1, # of connection points: 4
#     Node 4, Type 0, BuildingBlock: ICAMEG_clean_sbu_1, # of connection points: 4
#     Node 5, Type 0, BuildingBlock: ICAMEG_clean_sbu_1, # of connection points: 4
#     Node 6, Type 0, BuildingBlock: ICAMEG_clean_sbu_1, # of connection points: 4
#     Node 7, Type 0, BuildingBlock: ICAMEG_clean_sbu_1, # of connection points: 4
#     Edge 8, Type (0, 0), BuildingBlock: MIFKUJ_clean_linker_0, # of connection points: 2
#     Edge 9, Type (0, 0), BuildingBlock: MIFKUJ_clean_linker_0, # of connection points: 2
#     Edge 10, Type (0, 0), BuildingBlock: MIFKUJ_clean_linker_0, # of connection points: 2
#     Edge 11, Type (0, 0), BuildingBlock: MIFKUJ_clean_linker_0, # of connection points: 2
#     Edge 12, Type (0, 0), BuildingBlock: MIFKUJ_clean_linker_0, # of connection points: 2
#     Edge 13, Type (0, 0), BuildingBlock: MIFKUJ_clean_linker_0, # of connection points: 2
#     Edge 14, Type (0, 0), BuildingBlock: MIFKUJ_clean_linker_0, # of connection points: 2
#     Edge 15, Type (0, 0), BuildingBlock: MIFKUJ_clean_linker_0, # of connection points: 2
#     Edge 16, Type (0, 0), BuildingBlock: MIFKUJ_clean_linker_0, # of connection points: 2
#     Edge 17, Type (0, 0), BuildingBlock: MIFKUJ_clean_linker_0, # of connection points: 2
#     Edge 18, Type (0, 0), BuildingBlock: MIFKUJ_clean_linker_0, # of connection points: 2
#     Edge 19, Type (0, 0), BuildingBlock: MIFKUJ_clean_linker_0, # of connection points: 2
#     Edge 20, Type (0, 0), BuildingBlock: MIFKUJ_clean_linker_0, # of connection points: 2
#     Edge 21, Type (0, 0), BuildingBlock: MIFKUJ_clean_linker_0, # of connection points: 2
#     Edge 22, Type (0, 0), BuildingBlock: MIFKUJ_clean_linker_0, # of connection points: 2
#     Edge 23, Type (0, 0), BuildingBlock: MIFKUJ_clean_linker_0, # of connection points: 2
# Relax obj value: 0.087
# Max RMSD: 0.086
# Mean RMSD: 0.086
data_MOF--net-unm--node1-ICAMEG_clean_sbu_1--edge1-MIFKUJ_clean_linker_0
_symmetry_space_group_name_H-M    P1
_symmetry_Int_Tables_number       1
_symmetry_cell_setting            triclinic
loop_
_symmetry_equiv_pos_as_xyz
'x, y, z'
_cell_length_a     32.564505
_cell_length_b     32.58174
_cell_length_c     64.327397
_cell_angle_alpha  90.009321
_cell_angle_beta   90.01969
_cell_angle_gamma 89.964802
loop_
_atom_site_label
_atom_site_type_symbol
_atom_site_fract_x
_atom_site_fract_y
_atom_site_fract_z
_atom_type_partial_charge
Co0 Co 0.20109 0.27877 0.14614 0.0
Co1 Co 0.24164 0.34086 0.18401 0.0
O2 O 0.2482 0.30278 0.16062 0.0
C3 C 0.25027 0.31103 0.11074 0.0
O4 O 0.2546 0.34582 0.12082 0.0
C5 C 0.30269 0.27983 0.19941 0.0
O6 O 0.27986 0.25043 0.1916 0.0
O7 O 0.20571 0.30111 0.19897 0.0
O8 O 0.16897 0.27555 0.17253 0.0
H9 H 0.16214 0.41707 0.23872 0.0
H10 H 0.28305 0.24095 0.14054 0.0
O11 O 0.23123 0.28115 0.11908 0.0
H12 H 0.19654 0.13215 0.17084 0.0
H13 H 0.1326 0.18527 0.09433 0.0
H14 H 0.11098 0.29241 0.14737 0.0
H15 H 0.1676 0.20055 0.16339 0.0
H16 H 0.19139 0.21479 0.11332 0.0
O17 O 0.29147 0.31715 0.19782 0.0
H18 H 0.17088 0.37021 0.20898 0.0
H19 H 0.29959 0.39137 0.20928 0.0
H20 H 0.05133 0.26346 0.12887 0.0
H21 H 0.31315 0.17281 0.14752 0.0
H22 H 0.06194 0.20953 0.10213 0.0
H23 H 0.2698 0.11789 0.16284 0.0
O24 O 0.17787 0.33426 0.14085 0.0
H25 H 0.36642 0.38379 0.14359 0.0
H26 H 0.23513 0.43003 0.1738 0.0
H27 H 0.27839 0.47943 0.15475 0.0
H28 H 0.34463 0.45642 0.13955 0.0
H29 H 0.32197 0.33529 0.16253 0.0
H30 H 0.29225 0.4383 0.23914 0.0
H31 H 0.2231 0.45153 0.25402 0.0
O32 O 0.19189 0.36614 0.17093 0.0
C33 C 0.17456 0.28194 0.19188 0.0
C34 C 0.1924 0.41169 0.23234 0.0
C35 C 0.26544 0.42355 0.23259 0.0
N36 N 0.23566 0.37831 0.20727 0.0
C37 C 0.19755 0.38525 0.21545 0.0
C38 C 0.26941 0.39688 0.2157 0.0
C39 C 0.22663 0.43096 0.24092 0.0
C40 C 0.26391 0.21706 0.14702 0.0
N41 N 0.22361 0.22467 0.15149 0.0
C42 C 0.28116 0.17861 0.15102 0.0
C43 C 0.25684 0.14783 0.15965 0.0
C44 C 0.21574 0.15582 0.16416 0.0
C45 C 0.19956 0.19466 0.15998 0.0
C46 C 0.12758 0.20873 0.10597 0.0
C47 C 0.11586 0.26879 0.13583 0.0
C48 C 0.16075 0.22562 0.11674 0.0
N49 N 0.15463 0.25512 0.13153 0.0
C50 C 0.08196 0.25259 0.12538 0.0
C51 C 0.08794 0.22234 0.11036 0.0
C52 C 0.17263 0.3636 0.1537 0.0
C53 C 0.33767 0.39421 0.15018 0.0
C54 C 0.2638 0.41972 0.16714 0.0
C55 C 0.28823 0.44787 0.15641 0.0
C56 C 0.3254 0.43495 0.1479 0.0
N57 N 0.27612 0.37985 0.16937 0.0
C58 C 0.31246 0.36693 0.161 0.0
Co59 Co 0.22738 0.705 0.64936 0.0
Co60 Co 0.16002 0.74143 0.68621 0.0
O61 O 0.19912 0.7498 0.66357 0.0
C62 C 0.18933 0.74872 0.61383 0.0
O63 O 0.15391 0.74568 0.62346 0.0
C64 C 0.21915 0.80214 0.703 0.0
O65 O 0.24887 0.77899 0.69574 0.0
O66 O 0.1997 0.70614 0.70157 0.0
O67 O 0.2331 0.67351 0.6759 0.0
H68 H 0.08174 0.65849 0.73878 0.0
H69 H 0.25738 0.79017 0.64376 0.0
O70 O 0.22196 0.73514 0.62233 0.0
H71 H 0.37355 0.71413 0.67441 0.0
H72 H 0.32531 0.64602 0.59668 0.0
H73 H 0.22335 0.61401 0.65098 0.0
H74 H 0.30819 0.67899 0.66675 0.0
H75 H 0.29093 0.70159 0.61605 0.0
O76 O 0.18184 0.79135 0.70068 0.0
H77 H 0.1305 0.66921 0.70998 0.0
H78 H 0.1069 0.79743 0.71117 0.0
H79 H 0.25739 0.55749 0.63218 0.0
H80 H 0.32231 0.82645 0.651 0.0
H81 H 0.30869 0.57335 0.60476 0.0
H82 H 0.38092 0.78839 0.6665 0.0
O83 O 0.17456 0.67621 0.64407 0.0
H84 H 0.11594 0.86576 0.64572 0.0
H85 H 0.07182 0.73261 0.67449 0.0
H86 H 0.0224 0.77466 0.65472 0.0
H87 H 0.04434 0.84183 0.64023 0.0
H88 H 0.16452 0.82248 0.66536 0.0
H89 H 0.05808 0.78813 0.7401 0.0
H90 H 0.04512 0.71823 0.75404 0.0
O91 O 0.1372 0.6915 0.67237 0.0
C92 C 0.22301 0.67747 0.69497 0.0
C93 C 0.08703 0.68909 0.7328 0.0
C94 C 0.07379 0.76186 0.73356 0.0
N95 N 0.12131 0.73386 0.7088 0.0
C96 C 0.11453 0.69534 0.71646 0.0
C97 C 0.10153 0.76694 0.71721 0.0
C98 C 0.06652 0.72262 0.74137 0.0
C99 C 0.2829 0.77333 0.65031 0.0
N100 N 0.27908 0.73251 0.65476 0.0
C101 C 0.31952 0.79406 0.65446 0.0
C102 C 0.35237 0.7727 0.66319 0.0
C103 C 0.34824 0.73105 0.66765 0.0
C104 C 0.31113 0.71134 0.66333 0.0
C105 C 0.3031 0.63871 0.60863 0.0
C106 C 0.24597 0.62116 0.63923 0.0
C107 C 0.28349 0.67005 0.61964 0.0
N108 N 0.25545 0.66105 0.63478 0.0
C109 C 0.26502 0.58902 0.62857 0.0
C110 C 0.29376 0.59794 0.61317 0.0
C111 C 0.14352 0.67079 0.65584 0.0
C112 C 0.10598 0.8366 0.652 0.0
C113 C 0.08166 0.76172 0.66816 0.0
C114 C 0.0535 0.78545 0.65702 0.0
C115 C 0.06583 0.82314 0.64891 0.0
N116 N 0.12096 0.7752 0.67118 0.0
C117 C 0.13331 0.81205 0.66321 0.0
Co118 Co 0.80195 0.72456 0.14935 0.0
Co119 Co 0.75909 0.65692 0.18436 0.0
O120 O 0.75479 0.69719 0.16193 0.0
C121 C 0.76094 0.68759 0.11277 0.0
O122 O 0.76043 0.65279 0.12305 0.0
C123 C 0.69911 0.71735 0.20117 0.0
O124 O 0.72519 0.74667 0.19651 0.0
O125 O 0.79418 0.69452 0.20122 0.0
O126 O 0.82933 0.7299 0.17706 0.0
H127 H 0.83235 0.5728 0.23837 0.0
H128 H 0.71792 0.75548 0.1412 0.0
O129 O 0.77573 0.71975 0.12121 0.0
H130 H 0.7916 0.8711 0.17368 0.0
H131 H 0.87098 0.822 0.09966 0.0
H132 H 0.89222 0.71853 0.15457 0.0
H133 H 0.8269 0.80536 0.16715 0.0
H134 H 0.81176 0.78836 0.11644 0.0
O135 O 0.70814 0.68003 0.1974 0.0
H136 H 0.8271 0.62309 0.20986 0.0
H137 H 0.69803 0.60543 0.207 0.0
H138 H 0.95225 0.75145 0.13826 0.0
H139 H 0.68147 0.8208 0.14728 0.0
H140 H 0.94182 0.80364 0.1106 0.0
H141 H 0.71834 0.87914 0.16368 0.0
O142 O 0.83051 0.67119 0.14491 0.0
H143 H 0.63867 0.61956 0.13932 0.0
H144 H 0.76601 0.56895 0.17199 0.0
H145 H 0.7248 0.52211 0.15028 0.0
H146 H 0.66058 0.54735 0.13379 0.0
H147 H 0.68098 0.66546 0.16102 0.0
H148 H 0.7018 0.55516 0.23561 0.0
H149 H 0.76936 0.53844 0.25144 0.0
O150 O 0.80979 0.63272 0.1719 0.0
C151 C 0.82306 0.71881 0.19583 0.0
C152 C 0.80274 0.57974 0.23157 0.0
C153 C 0.72947 0.5699 0.23004 0.0
N154 N 0.76235 0.61704 0.2067 0.0
C155 C 0.79959 0.60812 0.21538 0.0
C156 C 0.72751 0.59847 0.21388 0.0
C157 C 0.76738 0.56051 0.23891 0.0
C158 C 0.73423 0.78084 0.1482 0.0
N159 N 0.7745 0.77666 0.15377 0.0
C160 C 0.71341 0.8177 0.15167 0.0
C161 C 0.7341 0.8504 0.1609 0.0
C162 C 0.77519 0.8459 0.16653 0.0
C163 C 0.795 0.80857 0.16285 0.0
C164 C 0.87591 0.79939 0.11174 0.0
C165 C 0.8874 0.74139 0.14264 0.0
C166 C 0.84251 0.78021 0.12127 0.0
N167 N 0.84852 0.75176 0.13658 0.0
C168 C 0.92153 0.75985 0.13342 0.0
C169 C 0.91566 0.78908 0.11788 0.0
C170 C 0.83306 0.63928 0.15631 0.0
C171 C 0.66652 0.60817 0.14647 0.0
C172 C 0.73815 0.58019 0.16484 0.0
C173 C 0.7149 0.5535 0.15259 0.0
C174 C 0.67886 0.56767 0.14335 0.0
N175 N 0.72578 0.61984 0.16786 0.0
C176 C 0.69051 0.63397 0.15884 0.0
Co177 Co 0.78308 0.30306 0.64758 0.0
Co178 Co 0.85213 0.26208 0.68225 0.0
O179 O 0.81028 0.25662 0.66075 0.0
C180 C 0.81513 0.25841 0.61087 0.0
O181 O 0.85169 0.25988 0.61946 0.0
C182 C 0.79272 0.20456 0.702 0.0
O183 O 0.76387 0.2324 0.69979 0.0
O184 O 0.81607 0.29917 0.69907 0.0
O185 O 0.78172 0.33391 0.67441 0.0
H186 H 0.94047 0.33792 0.73351 0.0
H187 H 0.74854 0.21942 0.64284 0.0
O188 O 0.78412 0.27329 0.62031 0.0
H189 H 0.63926 0.30097 0.6762 0.0
H190 H 0.68321 0.36819 0.59776 0.0
H191 H 0.79165 0.39369 0.64971 0.0
H192 H 0.70542 0.33291 0.6669 0.0
H193 H 0.71665 0.31048 0.61591 0.0
O194 O 0.82938 0.21209 0.6963 0.0
H195 H 0.88853 0.33142 0.70581 0.0
H196 H 0.90413 0.20197 0.70528 0.0
H197 H 0.75863 0.45232 0.63213 0.0
H198 H 0.68274 0.18629 0.65175 0.0
H199 H 0.70407 0.43974 0.60589 0.0
H200 H 0.62758 0.22715 0.66859 0.0
O201 O 0.83678 0.32931 0.6411 0.0
H202 H 0.88506 0.13854 0.63848 0.0
H203 H 0.93956 0.26656 0.66864 0.0
H204 H 0.98456 0.22331 0.64694 0.0
H205 H 0.95738 0.15872 0.63173 0.0
H206 H 0.84099 0.1829 0.6601 0.0
H207 H 0.95596 0.20704 0.73312 0.0
H208 H 0.97456 0.27541 0.74737 0.0
O209 O 0.87607 0.31138 0.66834 0.0
C210 C 0.79346 0.32911 0.69319 0.0
C211 C 0.93272 0.30796 0.72739 0.0
C212 C 0.94138 0.2345 0.72719 0.0
N213 N 0.89349 0.26639 0.70384 0.0
C214 C 0.90341 0.3041 0.71166 0.0
C215 C 0.91192 0.23182 0.71146 0.0
C216 C 0.95181 0.27288 0.73517 0.0
C217 C 0.72455 0.23745 0.65002 0.0
N218 N 0.73069 0.27808 0.65424 0.0
C219 C 0.68742 0.2185 0.65509 0.0
C220 C 0.6565 0.24144 0.66456 0.0
C221 C 0.66304 0.28286 0.66885 0.0
C222 C 0.70058 0.30076 0.66358 0.0
C223 C 0.70686 0.37408 0.6092 0.0
C224 C 0.76763 0.38798 0.63848 0.0
C225 C 0.72596 0.34153 0.61951 0.0
N226 N 0.75583 0.34873 0.63399 0.0
C227 C 0.74916 0.4213 0.62851 0.0
C228 C 0.71858 0.41421 0.61377 0.0
C229 C 0.86927 0.33272 0.65206 0.0
C230 C 0.8973 0.16654 0.64507 0.0
C231 C 0.92746 0.23857 0.66203 0.0
C232 C 0.95312 0.21416 0.64979 0.0
C233 C 0.93786 0.17791 0.64127 0.0
N234 N 0.88774 0.22716 0.66574 0.0
C235 C 0.87253 0.19172 0.65739 0.0
Co236 Co 0.6937 0.22732 0.35563 0.0
Co237 Co 0.74243 0.15818 0.32346 0.0
O238 O 0.74279 0.20037 0.34501 0.0
C239 C 0.73104 0.19413 0.3941 0.0
O240 O 0.73193 0.15812 0.38495 0.0
C241 C 0.80127 0.21919 0.30622 0.0
O242 O 0.7726 0.24739 0.30772 0.0
O243 O 0.70771 0.19288 0.3048 0.0
O244 O 0.66949 0.22993 0.32711 0.0
H245 H 0.67932 0.06667 0.26925 0.0
H246 H 0.77613 0.26084 0.36521 0.0
O247 O 0.7171 0.22536 0.38447 0.0
H248 H 0.70269 0.37247 0.32914 0.0
H249 H 0.61656 0.32619 0.40144 0.0
H250 H 0.6044 0.21855 0.34789 0.0
H251 H 0.66844 0.30634 0.33597 0.0
H252 H 0.67847 0.293 0.38704 0.0
O253 O 0.79392 0.18231 0.31162 0.0
H254 H 0.67892 0.11895 0.29696 0.0
H255 H 0.80825 0.10817 0.30353 0.0
H256 H 0.54174 0.25095 0.36182 0.0
H257 H 0.81149 0.32661 0.35888 0.0
H258 H 0.5476 0.30524 0.38878 0.0
H259 H 0.77474 0.38295 0.34067 0.0
O260 O 0.6661 0.17352 0.36023 0.0
H261 H 0.85846 0.12937 0.37292 0.0
H262 H 0.73766 0.07102 0.33736 0.0
H263 H 0.77795 0.02763 0.36128 0.0
H264 H 0.83885 0.05678 0.37923 0.0
H265 H 0.81715 0.17177 0.349 0.0
H266 H 0.81016 0.05617 0.27569 0.0
H267 H 0.74532 0.03494 0.25841 0.0
O268 O 0.69135 0.13305 0.33499 0.0
C269 C 0.67795 0.21722 0.30883 0.0
C270 C 0.70776 0.07556 0.2767 0.0
C271 C 0.78119 0.0697 0.2803 0.0
N272 N 0.74346 0.11646 0.30194 0.0
C273 C 0.7077 0.10507 0.29245 0.0
C274 C 0.77993 0.09926 0.29602 0.0
C275 C 0.74481 0.0578 0.27062 0.0
C276 C 0.75986 0.28532 0.35739 0.0
N277 N 0.72025 0.27979 0.35098 0.0
C278 C 0.78007 0.32244 0.3538 0.0
C279 C 0.75945 0.35402 0.34357 0.0
C280 C 0.71904 0.34815 0.33708 0.0
C281 C 0.69984 0.3106 0.34092 0.0
C282 C 0.61362 0.30266 0.38966 0.0
C283 C 0.60723 0.24233 0.35953 0.0
C284 C 0.64856 0.28373 0.38147 0.0
N285 N 0.64506 0.25413 0.36652 0.0
C286 C 0.57162 0.26049 0.3674 0.0
C287 C 0.57493 0.2909 0.38254 0.0
C288 C 0.66604 0.1404 0.34966 0.0
C289 C 0.83206 0.11629 0.36514 0.0
C290 C 0.7641 0.08394 0.34514 0.0
C291 C 0.78683 0.0592 0.35863 0.0
C292 C 0.82101 0.07557 0.36869 0.0
N293 N 0.77518 0.12382 0.3417 0.0
C294 C 0.80864 0.1401 0.35152 0.0
Co295 Co 0.2758 0.20133 0.85679 0.0
Co296 Co 0.34945 0.24232 0.82413 0.0
O297 O 0.30648 0.24746 0.8452 0.0
C298 C 0.31149 0.24172 0.8938 0.0
O299 O 0.34578 0.2454 0.88325 0.0
C300 C 0.2907 0.30147 0.80557 0.0
O301 O 0.26114 0.27592 0.81057 0.0
O302 O 0.31421 0.20658 0.80635 0.0
O303 O 0.27145 0.17537 0.82877 0.0
H304 H 0.44051 0.16703 0.77386 0.0
H305 H 0.24857 0.28637 0.86546 0.0
O306 O 0.27994 0.2257 0.88534 0.0
H307 H 0.13237 0.22076 0.82924 0.0
H308 H 0.17023 0.13613 0.90343 0.0
H309 H 0.2771 0.11111 0.85062 0.0
H310 H 0.19551 0.18165 0.8368 0.0
H311 H 0.20898 0.19386 0.88825 0.0
O312 O 0.32789 0.29255 0.80976 0.0
H313 H 0.38655 0.17335 0.80055 0.0
H314 H 0.40378 0.30247 0.80264 0.0
H315 H 0.23885 0.05255 0.86524 0.0
H316 H 0.18588 0.32659 0.85835 0.0
H317 H 0.18498 0.06489 0.89186 0.0
H318 H 0.12728 0.29378 0.84005 0.0
O319 O 0.32716 0.16978 0.86205 0.0
H320 H 0.38125 0.36513 0.86858 0.0
H321 H 0.43544 0.23572 0.83974 0.0
H322 H 0.47942 0.27794 0.86248 0.0
H323 H 0.45238 0.34319 0.87704 0.0
H324 H 0.33816 0.32176 0.84596 0.0
H325 H 0.45774 0.29762 0.77584 0.0
H326 H 0.47653 0.2295 0.76133 0.0
O327 O 0.37175 0.19213 0.83792 0.0
C328 C 0.28678 0.17992 0.81067 0.0
C329 C 0.43268 0.19689 0.7801 0.0
C330 C 0.4423 0.27018 0.78119 0.0
N331 N 0.39216 0.23819 0.80322 0.0
C332 C 0.40221 0.20064 0.79525 0.0
C333 C 0.41165 0.27275 0.79632 0.0
C334 C 0.45284 0.23195 0.77306 0.0
C335 C 0.22303 0.27181 0.85766 0.0
N336 N 0.22561 0.23169 0.85162 0.0
C337 C 0.18769 0.29477 0.8536 0.0
C338 C 0.15484 0.27636 0.84331 0.0
C339 C 0.15769 0.2354 0.83722 0.0
C340 C 0.19355 0.21343 0.8415 0.0
C341 C 0.19357 0.13037 0.89181 0.0
C342 C 0.25352 0.11676 0.86209 0.0
C343 C 0.21566 0.16292 0.8832 0.0
N344 N 0.24505 0.15588 0.86846 0.0
C345 C 0.23204 0.08346 0.87036 0.0
C346 C 0.20185 0.09041 0.88531 0.0
C347 C 0.36137 0.16762 0.85247 0.0
C348 C 0.39342 0.33683 0.86228 0.0
C349 C 0.42341 0.26402 0.84606 0.0
C350 C 0.44849 0.28784 0.85889 0.0
C351 C 0.43331 0.32447 0.86705 0.0
N352 N 0.38434 0.27638 0.84144 0.0
C353 C 0.36924 0.31224 0.84938 0.0
Co354 Co 0.29751 0.77547 0.35907 0.0
Co355 Co 0.25729 0.84535 0.32415 0.0
O356 O 0.25131 0.80351 0.34578 0.0
C357 C 0.25457 0.81009 0.39575 0.0
O358 O 0.25594 0.84608 0.38659 0.0
C359 C 0.19897 0.78483 0.30592 0.0
O360 O 0.22175 0.75512 0.31348 0.0
O361 O 0.29561 0.80993 0.3078 0.0
O362 O 0.32747 0.77212 0.33213 0.0
H363 H 0.33572 0.93497 0.27454 0.0
H364 H 0.21328 0.74335 0.36544 0.0
O365 O 0.26879 0.77845 0.38661 0.0
H366 H 0.28972 0.63093 0.33167 0.0
H367 H 0.36175 0.67429 0.40853 0.0
H368 H 0.38827 0.78143 0.3561 0.0
H369 H 0.32402 0.69643 0.3399 0.0
H370 H 0.30424 0.70965 0.39112 0.0
O371 O 0.20917 0.82215 0.30868 0.0
H372 H 0.32781 0.88253 0.30187 0.0
H373 H 0.1982 0.89716 0.30027 0.0
H374 H 0.44664 0.74666 0.37301 0.0
H375 H 0.17786 0.67821 0.35767 0.0
H376 H 0.43356 0.69265 0.39944 0.0
H377 H 0.21613 0.62149 0.34061 0.0
O378 O 0.3258 0.82849 0.36487 0.0
H379 H 0.12951 0.87579 0.36512 0.0
H380 H 0.25925 0.93268 0.33815 0.0
H381 H 0.21331 0.97673 0.35892 0.0
H382 H 0.14783 0.94834 0.37251 0.0
H383 H 0.17661 0.8327 0.3445 0.0
H384 H 0.20471 0.94953 0.27279 0.0
H385 H 0.27387 0.96886 0.2598 0.0
O386 O 0.30519 0.86981 0.33893 0.0
C387 C 0.32391 0.78526 0.31355 0.0
C388 C 0.30542 0.92689 0.28011 0.0
C389 C 0.23189 0.93502 0.27911 0.0
N390 N 0.2626 0.88695 0.30275 0.0
C391 C 0.30075 0.89728 0.29562 0.0
C392 C 0.22839 0.90526 0.29463 0.0
C393 C 0.2707 0.94586 0.27183 0.0
C394 C 0.23023 0.71865 0.3582 0.0
N395 N 0.27069 0.72362 0.3532 0.0
C396 C 0.20997 0.68191 0.35376 0.0
C397 C 0.23144 0.65012 0.34415 0.0
C398 C 0.27272 0.65542 0.33912 0.0
C399 C 0.29195 0.69261 0.34376 0.0
C400 C 0.36784 0.69771 0.39701 0.0
C401 C 0.38229 0.75779 0.36749 0.0
C402 C 0.3354 0.71789 0.38713 0.0
N403 N 0.34287 0.74737 0.37249 0.0
C404 C 0.41549 0.73829 0.37706 0.0
C405 C 0.40813 0.70802 0.3919 0.0
C406 C 0.32797 0.86185 0.35454 0.0
C407 C 0.15792 0.88854 0.35926 0.0
C408 C 0.23095 0.92004 0.3441 0.0
C409 C 0.20498 0.94517 0.3558 0.0
C410 C 0.16823 0.92923 0.36341 0.0
N411 N 0.22056 0.88021 0.34004 0.0
C412 C 0.18464 0.86433 0.3475 0.0
Co413 Co 0.72296 0.80391 0.86166 0.0
Co414 Co 0.66474 0.76345 0.82255 0.0
O415 O 0.70127 0.75678 0.84644 0.0
C416 C 0.69031 0.75338 0.89633 0.0
O417 O 0.65523 0.75145 0.8863 0.0
C418 C 0.72676 0.7033 0.8069 0.0
O419 O 0.75605 0.72823 0.81301 0.0
O420 O 0.70567 0.79959 0.80843 0.0
O421 O 0.72555 0.83772 0.83566 0.0
H422 H 0.59095 0.84276 0.76689 0.0
H423 H 0.76364 0.72306 0.86614 0.0
O424 O 0.72084 0.77187 0.88825 0.0
H425 H 0.87001 0.81549 0.83818 0.0
H426 H 0.81253 0.87241 0.91521 0.0
H427 H 0.70546 0.89332 0.86206 0.0
H428 H 0.80036 0.84139 0.84566 0.0
H429 H 0.78558 0.81383 0.89512 0.0
O430 O 0.68925 0.71327 0.80937 0.0
H431 H 0.63668 0.83413 0.79712 0.0
H432 H 0.61629 0.70538 0.79638 0.0
H433 H 0.7318 0.95282 0.88163 0.0
H434 H 0.83302 0.69595 0.85907 0.0
H435 H 0.78575 0.94255 0.90844 0.0
H436 H 0.88672 0.7423 0.84494 0.0
O437 O 0.66633 0.82476 0.86661 0.0
H438 H 0.61868 0.63977 0.86295 0.0
H439 H 0.57484 0.77016 0.83094 0.0
H440 H 0.52403 0.72762 0.84943 0.0
H441 H 0.54583 0.66184 0.86556 0.0
H442 H 0.66858 0.68346 0.84448 0.0
H443 H 0.5709 0.71258 0.76589 0.0
H444 H 0.55784 0.78171 0.751 0.0
O445 O 0.63859 0.81328 0.8352 0.0
C446 C 0.72152 0.83206 0.81612 0.0
C447 C 0.59641 0.8125 0.77323 0.0
C448 C 0.58515 0.73943 0.77268 0.0
N449 N 0.62888 0.76935 0.79864 0.0
C450 C 0.62213 0.80743 0.79042 0.0
C451 C 0.61097 0.73554 0.78991 0.0
C452 C 0.57782 0.77822 0.76433 0.0
C453 C 0.78698 0.74348 0.86017 0.0
N454 N 0.77805 0.78378 0.85642 0.0
C455 C 0.82615 0.72793 0.85612 0.0
C456 C 0.85625 0.75394 0.84817 0.0
C457 C 0.84688 0.79501 0.84436 0.0
C458 C 0.80737 0.80946 0.84857 0.0
C459 C 0.78915 0.87731 0.90351 0.0
C460 C 0.72922 0.88866 0.87353 0.0
C461 C 0.77375 0.84425 0.8921 0.0
N462 N 0.74439 0.85024 0.8772 0.0
C463 C 0.74389 0.92244 0.88464 0.0
C464 C 0.77412 0.91665 0.8997 0.0
C465 C 0.63868 0.83099 0.85291 0.0
C466 C 0.60878 0.6683 0.85593 0.0
C467 C 0.58461 0.74164 0.83796 0.0
C468 C 0.55567 0.71763 0.84838 0.0
C469 C 0.56792 0.68073 0.85741 0.0
N470 N 0.62461 0.72919 0.83653 0.0
C471 C 0.63686 0.69309 0.84538 0.0
H472 H 0.23099 0.2501 0.08356 0.0
H473 H 0.25081 0.24355 0.0474 0.0
H474 H 0.32198 0.35488 0.05189 0.0
H475 H 0.30077 0.36253 0.08836 0.0
H476 H 0.28128 0.35489 0.01678 0.0
H477 H 0.3689 0.25843 0.04918 0.0
H478 H 0.38886 0.20181 0.07251 0.0
H479 H 0.31044 0.11927 0.03889 0.0
H480 H 0.28951 0.17551 0.01553 0.0
H481 H 0.36248 0.29437 0.91478 0.0
H482 H 0.36063 0.31147 0.95202 0.0
H483 H 0.25643 0.23153 0.96012 0.0
H484 H 0.25736 0.2151 0.92306 0.0
H485 H 0.32788 0.2206 0.98901 0.0
H486 H 0.23508 0.32342 0.95987 0.0
H487 H 0.21869 0.38116 0.93651 0.0
H488 H 0.31476 0.45292 0.96425 0.0
H489 H 0.33211 0.39529 0.98758 0.0
C490 C 0.25115 0.27314 0.07702 0.0
C491 C 0.26452 0.30674 0.08896 0.0
C492 C 0.26268 0.2692 0.05626 0.0
C493 C 0.28869 0.29818 0.04695 0.0
C494 C 0.30211 0.33194 0.05876 0.0
C495 C 0.29008 0.33623 0.0796 0.0
C496 C 0.30026 0.29338 0.02468 0.0
C497 C 0.29238 0.32579 0.01081 0.0
C498 C 0.31474 0.25543 0.01674 0.0
C499 C 0.32748 0.22131 0.03065 0.0
C500 C 0.35572 0.22826 0.04683 0.0
C501 C 0.36722 0.19622 0.06006 0.0
C502 C 0.35089 0.15698 0.0572 0.0
C503 C 0.32308 0.14968 0.04108 0.0
C504 C 0.31143 0.18162 0.02782 0.0
C505 C 0.33907 0.28065 0.92451 0.0
C506 C 0.31003 0.25345 0.91601 0.0
C507 C 0.33806 0.29046 0.94572 0.0
C508 C 0.30845 0.27265 0.95875 0.0
C509 C 0.27954 0.2455 0.95029 0.0
C510 C 0.28001 0.23633 0.9291 0.0
C511 C 0.30757 0.28153 0.98132 0.0
C512 C 0.31758 0.24987 0.99515 0.0
C513 C 0.29581 0.32027 0.98921 0.0
C514 C 0.28525 0.35489 0.97526 0.0
C515 C 0.25299 0.35135 0.96083 0.0
C516 C 0.24346 0.38409 0.94764 0.0
C517 C 0.26577 0.42064 0.94884 0.0
C518 C 0.29757 0.42456 0.9633 0.0
C519 C 0.30725 0.39188 0.97652 0.0
H520 H 0.25834 0.44596 0.93862 0.0
H521 H 0.35982 0.13222 0.06747 0.0
H522 H 0.12631 0.75551 0.58581 0.0
H523 H 0.13196 0.76967 0.54852 0.0
H524 H 0.26208 0.79028 0.55559 0.0
H525 H 0.2569 0.77476 0.59262 0.0
H526 H 0.15531 0.82973 0.5235 0.0
H527 H 0.31366 0.74945 0.51566 0.0
H528 H 0.35388 0.69612 0.53377 0.0
H529 H 0.24266 0.64124 0.55633 0.0
H530 H 0.20175 0.69375 0.53804 0.0
H531 H 0.2435 0.87142 0.42436 0.0
H532 H 0.22663 0.8639 0.4612 0.0
H533 H 0.2151 0.73292 0.45302 0.0
H534 H 0.23347 0.74012 0.41642 0.0
H535 H 0.25767 0.74555 0.48544 0.0
H536 H 0.13014 0.79891 0.46109 0.0
H537 H 0.08394 0.84693 0.44288 0.0
H538 H 0.12218 0.94456 0.48332 0.0
H539 H 0.16906 0.89724 0.5016 0.0
C540 C 0.15601 0.76361 0.57945 0.0
C541 C 0.19126 0.76343 0.59209 0.0
C542 C 0.15919 0.77177 0.55814 0.0
C543 C 0.19759 0.78016 0.54915 0.0
C544 C 0.23228 0.78289 0.56206 0.0
C545 C 0.22925 0.77414 0.58325 0.0
C546 C 0.20203 0.78324 0.52618 0.0
C547 C 0.1777 0.8114 0.51515 0.0
C548 C 0.2304 0.75844 0.51517 0.0
C549 C 0.25469 0.7258 0.52562 0.0
C550 C 0.29778 0.72583 0.52436 0.0
C551 C 0.3207 0.69577 0.53467 0.0
C552 C 0.30084 0.66539 0.54624 0.0
C553 C 0.258 0.66484 0.54741 0.0
C554 C 0.23495 0.69474 0.53706 0.0
C555 C 0.23687 0.84109 0.43036 0.0
C556 C 0.23994 0.80636 0.41748 0.0
C557 C 0.22706 0.83681 0.45145 0.0
C558 C 0.21928 0.79783 0.45997 0.0
C559 C 0.22116 0.7633 0.44691 0.0
C560 C 0.23153 0.76748 0.42595 0.0
C561 C 0.21143 0.79263 0.48265 0.0
C562 C 0.23519 0.76397 0.49368 0.0
C563 C 0.18164 0.81606 0.4935 0.0
C564 C 0.15339 0.84459 0.4826 0.0
C565 C 0.12892 0.83069 0.46601 0.0
C566 C 0.10258 0.85777 0.45569 0.0
C567 C 0.1002 0.89879 0.46191 0.0
C568 C 0.12409 0.91279 0.4785 0.0
C569 C 0.15052 0.88584 0.48886 0.0
H570 H 0.07978 0.91971 0.4539 0.0
H571 H 0.31864 0.64223 0.55427 0.0
H572 H 0.75319 0.75535 0.08802 0.0
H573 H 0.73374 0.75791 0.05141 0.0
H574 H 0.71717 0.62659 0.05107 0.0
H575 H 0.73682 0.62367 0.08782 0.0
H576 H 0.7618 0.65184 0.01795 0.0
H577 H 0.6345 0.68802 0.04923 0.0
H578 H 0.58818 0.72569 0.0728 0.0
H579 H 0.61824 0.83883 0.04218 0.0
H580 H 0.66524 0.80193 0.01861 0.0
H581 H 0.62987 0.7199 0.92083 0.0
H582 H 0.63531 0.69922 0.95737 0.0
H583 H 0.7637 0.73166 0.95725 0.0
H584 H 0.75874 0.75176 0.92087 0.0
H585 H 0.65386 0.74488 0.99061 0.0
H586 H 0.81669 0.67175 0.99018 0.0
H587 H 0.86048 0.63113 0.96661 0.0
H588 H 0.7534 0.58483 0.93552 0.0
H589 H 0.70894 0.62469 0.95909 0.0
C590 C 0.74512 0.72698 0.08025 0.0
C591 C 0.74661 0.68927 0.09088 0.0
C592 C 0.73383 0.72854 0.0593 0.0
C593 C 0.7237 0.69248 0.04851 0.0
C594 C 0.72482 0.6548 0.0591 0.0
C595 C 0.73592 0.65322 0.08012 0.0
C596 C 0.71359 0.69423 0.02598 0.0
C597 C 0.73803 0.67198 0.01197 0.0
C598 C 0.68203 0.71987 0.01818 0.0
C599 C 0.65362 0.74221 0.03224 0.0
C600 C 0.63146 0.72097 0.04761 0.0
C601 C 0.60505 0.74218 0.06096 0.0
C602 C 0.60032 0.78463 0.05901 0.0
C603 C 0.62195 0.80595 0.04367 0.0
C604 C 0.64844 0.78489 0.0303 0.0
C605 C 0.65938 0.72211 0.92851 0.0
C606 C 0.69385 0.7375 0.91788 0.0
C607 C 0.6624 0.71044 0.94942 0.0
C608 C 0.69998 0.71358 0.96004 0.0
C609 C 0.73452 0.7283 0.94934 0.0
C610 C 0.73156 0.73997 0.92851 0.0
C611 C 0.70297 0.70352 0.98256 0.0
C612 C 0.67727 0.72432 0.99658 0.0
C613 C 0.73302 0.67611 0.99037 0.0
C614 C 0.7595 0.65147 0.97633 0.0
C615 C 0.80247 0.65272 0.9784 0.0
C616 C 0.82742 0.62986 0.96501 0.0
C617 C 0.80973 0.60549 0.94954 0.0
C618 C 0.76706 0.60382 0.94747 0.0
C619 C 0.74198 0.62658 0.96082 0.0
H620 H 0.8291 0.58786 0.93919 0.0
H621 H 0.57986 0.801 0.06936 0.0
H622 H 0.74959 0.26485 0.41479 0.0
H623 H 0.76916 0.27261 0.45122 0.0
H624 H 0.76032 0.14148 0.45966 0.0
H625 H 0.74242 0.13343 0.42297 0.0
H626 H 0.73033 0.25974 0.48467 0.0
H627 H 0.82174 0.10888 0.49857 0.0
H628 H 0.86699 0.06186 0.47909 0.0
H629 H 0.90033 0.1597 0.4377 0.0
H630 H 0.85576 0.20743 0.45711 0.0
H631 H 0.74455 0.2334 0.59197 0.0
H632 H 0.73443 0.21739 0.55524 0.0
H633 H 0.86364 0.23626 0.54389 0.0
H634 H 0.87424 0.25068 0.58087 0.0
H635 H 0.83744 0.1768 0.52001 0.0
H636 H 0.79196 0.31277 0.53526 0.0
H637 H 0.75301 0.36548 0.55447 0.0
H638 H 0.63961 0.30963 0.53553 0.0
H639 H 0.67792 0.2561 0.51653 0.0
C640 C 0.7522 0.23761 0.42436 0.0
C641 C 0.74454 0.1985 0.41598 0.0
C642 C 0.76327 0.2421 0.44523 0.0
C643 C 0.76657 0.20765 0.45826 0.0
C644 C 0.75889 0.16851 0.44989 0.0
C645 C 0.74846 0.16394 0.42891 0.0
C646 C 0.77656 0.21298 0.48072 0.0
C647 C 0.75382 0.24158 0.49233 0.0
C648 C 0.80771 0.18993 0.49078 0.0
C649 C 0.83507 0.1616 0.47918 0.0
C650 C 0.83886 0.12039 0.48537 0.0
C651 C 0.86437 0.09361 0.47433 0.0
C652 C 0.88641 0.10775 0.45713 0.0
C653 C 0.88312 0.14875 0.45098 0.0
C654 C 0.85771 0.17567 0.46198 0.0
C655 C 0.77093 0.23355 0.58171 0.0
C656 C 0.81012 0.24375 0.58925 0.0
C657 C 0.76508 0.22456 0.56069 0.0
C658 C 0.79808 0.22665 0.54666 0.0
C659 C 0.83765 0.23466 0.55437 0.0
C660 C 0.84367 0.24296 0.57551 0.0
C661 C 0.79079 0.22305 0.52389 0.0
C662 C 0.81399 0.19487 0.51227 0.0
C663 C 0.76101 0.24747 0.51363 0.0
C664 C 0.73783 0.28022 0.52461 0.0
C665 C 0.75872 0.31161 0.53527 0.0
C666 C 0.73676 0.34162 0.54614 0.0
C667 C 0.69387 0.34086 0.54625 0.0
C668 C 0.67285 0.31015 0.53545 0.0
C669 C 0.69466 0.27997 0.52462 0.0
H670 H 0.67693 0.36409 0.55469 0.0
H671 H 0.9061 0.08695 0.44859 0.0
H672 H 0.34732 0.32959 0.22479 0.0
H673 H 0.41486 0.31681 0.23968 0.0
H674 H 0.4173 0.19699 0.21115 0.0
H675 H 0.3486 0.20918 0.19662 0.0
H676 H 0.44905 0.19299 0.24908 0.0
H677 H 0.47098 0.27881 0.19022 0.0
H678 H 0.45909 0.33831 0.16731 0.0
H679 H 0.49522 0.42003 0.21638 0.0
H680 H 0.50666 0.36105 0.23972 0.0
H681 H 0.66225 0.1754 0.27262 0.0
H682 H 0.60325 0.18517 0.24949 0.0
H683 H 0.56815 0.29315 0.28389 0.0
H684 H 0.62606 0.283 0.3074 0.0
H685 H 0.55721 0.29839 0.23876 0.0
H686 H 0.52961 0.21079 0.29804 0.0
H687 H 0.54494 0.15071 0.31991 0.0
H688 H 0.52011 0.07052 0.26844 0.0
H689 H 0.50661 0.13038 0.24593 0.0
C690 C 0.36207 0.30041 0.2217 0.0
C691 C 0.3427 0.27052 0.20936 0.0
C692 C 0.40088 0.29322 0.23016 0.0
C693 C 0.42175 0.25633 0.22613 0.0
C694 C 0.40197 0.22582 0.21436 0.0
C695 C 0.36272 0.23281 0.20607 0.0
C696 C 0.46427 0.25022 0.23414 0.0
C697 C 0.47287 0.21565 0.24646 0.0
C698 C 0.4955 0.27989 0.23088 0.0
C699 C 0.48944 0.31547 0.21677 0.0
C700 C 0.4762 0.30947 0.19617 0.0
C701 C 0.46953 0.34311 0.1831 0.0
C702 C 0.47634 0.38292 0.1904 0.0
C703 C 0.48995 0.38917 0.21076 0.0
C704 C 0.49657 0.35564 0.2239 0.0
C705 C 0.64255 0.20173 0.275 0.0
C706 C 0.6486 0.22808 0.29207 0.0
C707 C 0.60883 0.20724 0.26176 0.0
C708 C 0.58117 0.23965 0.26513 0.0
C709 C 0.58914 0.26795 0.28104 0.0
C710 C 0.62225 0.262 0.29451 0.0
C711 C 0.54152 0.24164 0.25383 0.0
C712 C 0.53348 0.27546 0.241 0.0
C713 C 0.51099 0.21116 0.25647 0.0
C714 C 0.51765 0.17513 0.2702 0.0
C715 C 0.52785 0.18039 0.2913 0.0
C716 C 0.5362 0.14636 0.30383 0.0
C717 C 0.53337 0.10679 0.29559 0.0
C718 C 0.52233 0.1012 0.27479 0.0
C719 C 0.5145 0.13519 0.26211 0.0
H720 H 0.53962 0.08045 0.30533 0.0
H721 H 0.47111 0.40893 0.18027 0.0
H722 H 0.16851 0.84723 0.72777 0.0
H723 H 0.1818 0.9141 0.74334 0.0
H724 H 0.30322 0.91473 0.71649 0.0
H725 H 0.29053 0.84675 0.70139 0.0
H726 H 0.30639 0.94522 0.75431 0.0
H727 H 0.22273 0.97057 0.69494 0.0
H728 H 0.16362 0.96099 0.67147 0.0
H729 H 0.08133 0.99799 0.72014 0.0
H730 H 0.13991 0.00715 0.74402 0.0
H731 H 0.32946 0.15896 0.77545 0.0
H732 H 0.31893 0.09795 0.75391 0.0
H733 H 0.20897 0.06933 0.78824 0.0
H734 H 0.21968 0.12953 0.81018 0.0
H735 H 0.2041 0.05626 0.74352 0.0
H736 H 0.29066 0.02673 0.80317 0.0
H737 H 0.35139 0.03834 0.82534 0.0
H738 H 0.43072 0.01094 0.77389 0.0
H739 H 0.37046 1.00018 0.75125 0.0
C740 C 0.19812 0.86148 0.72521 0.0
C741 C 0.22837 0.84182 0.71321 0.0
C742 C 0.20563 0.89988 0.73405 0.0
C743 C 0.24318 0.92002 0.7307 0.0
C744 C 0.27392 0.89995 0.7192 0.0
C745 C 0.26663 0.86112 0.71057 0.0
C746 C 0.24986 0.96211 0.73908 0.0
C747 C 0.28437 0.96965 0.75162 0.0
C748 C 0.22104 0.9941 0.73573 0.0
C749 C 0.18573 0.98926 0.72132 0.0
C750 C 0.19201 0.97645 0.70068 0.0
C751 C 0.1586 0.97109 0.6873 0.0
C752 C 0.11874 0.97881 0.69432 0.0
C753 C 0.11223 0.992 0.71473 0.0
C754 C 0.14553 0.99732 0.72819 0.0
C755 C 0.30257 0.14022 0.77818 0.0
C756 C 0.27568 0.14894 0.79474 0.0
C757 C 0.29671 0.10529 0.76588 0.0
C758 C 0.26349 0.07893 0.7697 0.0
C759 C 0.23487 0.08925 0.78511 0.0
C760 C 0.24108 0.12371 0.79764 0.0
C761 C 0.26016 0.03893 0.75887 0.0
C762 C 0.22628 0.03185 0.74593 0.0
C763 C 0.2898 0.00759 0.76165 0.0
C764 C 0.32601 0.01323 0.77542 0.0
C765 C 0.32104 0.0236 0.79651 0.0
C766 C 0.35538 0.02999 0.80918 0.0
C767 C 0.39486 0.02559 0.80099 0.0
C768 C 0.4001 0.01452 0.78017 0.0
C769 C 0.36587 0.0083 0.76742 0.0
H770 H 0.42141 0.03065 0.81077 0.0
H771 H 0.09291 0.97461 0.68395 0.0
H772 H 0.33622 0.81387 0.27366 0.0
H773 H 0.39759 0.80423 0.25209 0.0
H774 H 0.44958 0.72493 0.29885 0.0
H775 H 0.38877 0.73375 0.32028 0.0
H776 H 0.50248 0.78652 0.28702 0.0
H777 H 0.41556 0.68437 0.25539 0.0
H778 H 0.3532 0.6594 0.23771 0.0
H779 H 0.37577 0.74147 0.18676 0.0
H780 H 0.43802 0.76735 0.20429 0.0
H781 H 0.63694 0.66413 0.21015 0.0
H782 H 0.57161 0.67887 0.227 0.0
H783 H 0.604 0.80695 0.23112 0.0
H784 H 0.67003 0.79237 0.21428 0.0
H785 H 0.50771 0.7261 0.21631 0.0
H786 H 0.55847 0.84382 0.27864 0.0
H787 H 0.61988 0.86389 0.29863 0.0
H788 H 0.67009 0.74293 0.29095 0.0
H789 H 0.60859 0.72187 0.27131 0.0
C790 C 0.36034 0.79372 0.27917 0.0
C791 C 0.35745 0.77477 0.2988 0.0
C792 C 0.39546 0.78839 0.26685 0.0
C793 C 0.42827 0.76414 0.27397 0.0
C794 C 0.42479 0.74406 0.29314 0.0
C795 C 0.38976 0.74905 0.30534 0.0
C796 C 0.46709 0.76064 0.262 0.0
C797 C 0.50365 0.77365 0.27147 0.0
C798 C 0.46854 0.74363 0.24181 0.0
C799 C 0.43115 0.72814 0.23126 0.0
C800 C 0.40701 0.69737 0.24051 0.0
C801 C 0.37173 0.68299 0.23049 0.0
C802 C 0.36045 0.69893 0.21115 0.0
C803 C 0.3845 0.72921 0.20176 0.0
C804 C 0.41979 0.74373 0.21172 0.0
C805 C 0.63032 0.69551 0.21459 0.0
C806 C 0.65895 0.72704 0.21096 0.0
C807 C 0.59275 0.70391 0.22415 0.0
C808 C 0.5829 0.74396 0.23044 0.0
C809 C 0.61109 0.77572 0.22658 0.0
C810 C 0.64878 0.76735 0.21692 0.0
C811 C 0.5434 0.75176 0.24138 0.0
C812 C 0.5066 0.73967 0.23171 0.0
C813 C 0.5418 0.76924 0.26154 0.0
C814 C 0.57925 0.78154 0.27311 0.0
C815 C 0.58266 0.82153 0.28117 0.0
C816 C 0.61743 0.83305 0.2925 0.0
C817 C 0.649 0.80479 0.29593 0.0
C818 C 0.64574 0.76488 0.28815 0.0
C819 C 0.61093 0.75314 0.2769 0.0
H820 H 0.67592 0.81377 0.30469 0.0
H821 H 0.33314 0.68774 0.20342 0.0
H822 H 0.73062 0.18438 0.72888 0.0
H823 H 0.71884 0.11761 0.74565 0.0
H824 H 0.82072 0.06605 0.7118 0.0
H825 H 0.83362 0.13278 0.69555 0.0
H826 H 0.72787 0.02003 0.71738 0.0
H827 H 0.85504 0.07515 0.74964 0.0
H828 H 0.89266 0.13218 0.76619 0.0
H829 H 0.79876 0.14219 0.81279 0.0
H830 H 0.76026 0.08565 0.79624 0.0
H831 H 0.74583 0.83202 0.77497 0.0
H832 H 0.7595 0.89229 0.75303 0.0
H833 H 0.72735 0.97183 0.80422 0.0
H834 H 0.71617 0.91248 0.82616 0.0
H835 H 0.78826 0.00305 0.78768 0.0
H836 H 0.6618 0.95046 0.75952 0.0
H837 H 0.61603 0.8987 0.74386 0.0
H838 H 0.69708 0.88771 0.69151 0.0
H839 H 0.74341 0.93941 0.7069 0.0
C840 C 0.75026 0.15872 0.72489 0.0
C841 C 0.78323 0.16388 0.71105 0.0
C842 C 0.74345 0.12065 0.73443 0.0
C843 C 0.7689 0.08703 0.72989 0.0
C844 C 0.80073 0.09165 0.71543 0.0
C845 C 0.80816 0.12984 0.70628 0.0
C846 C 0.76428 0.04797 0.74141 0.0
C847 C 0.74141 0.01589 0.73265 0.0
C848 C 0.78112 0.04319 0.76147 0.0
C849 C 0.8046 0.07658 0.77159 0.0
C850 C 0.84226 0.0898 0.76329 0.0
C851 C 0.86377 0.12197 0.77269 0.0
C852 C 0.84805 0.14088 0.79049 0.0
C853 C 0.81086 0.12757 0.79897 0.0
C854 C 0.7892 0.09547 0.7896 0.0
C855 C 0.74204 0.86245 0.78148 0.0
C856 C 0.73049 0.86745 0.80237 0.0
C857 C 0.74949 0.89693 0.76891 0.0
C858 C 0.74415 0.93694 0.77684 0.0
C859 C 0.73221 0.94158 0.79767 0.0
C860 C 0.72583 0.90742 0.81027 0.0
C861 C 0.75124 0.97434 0.76388 0.0
C862 C 0.77474 0.0065 0.77236 0.0
C863 C 0.73405 0.97939 0.74376 0.0
C864 C 0.70626 0.94842 0.73446 0.0
C865 C 0.66997 0.9368 0.74473 0.0
C866 C 0.64392 0.9075 0.7359 0.0
C867 C 0.65375 0.88973 0.71677 0.0
C868 C 0.68955 0.90142 0.70636 0.0
C869 C 0.71567 0.93078 0.7151 0.0
H870 H 0.63356 0.86702 0.70997 0.0
H871 H 0.86474 0.16578 0.79775 0.0
H872 H 0.82254 0.28377 0.28105 0.0
H873 H 0.88888 0.29513 0.26392 0.0
H874 H 0.93896 0.18971 0.29568 0.0
H875 H 0.87259 0.17728 0.31204 0.0
H876 H 0.96544 0.3104 0.27381 0.0
H877 H 1.00134 0.13643 0.26475 0.0
H878 H 0.96342 0.07108 0.26207 0.0
H879 H 0.85851 0.13499 0.23778 0.0
H880 H 0.89603 0.20057 0.23998 0.0
H881 H 0.16843 0.29524 0.23413 0.0
H882 H 0.10809 0.28363 0.25613 0.0
H883 H 0.04303 0.23308 0.2036 0.0
H884 H 0.10307 0.24295 0.18189 0.0
H885 H 0.0238 0.19135 0.2358 0.0
H886 H 0.03355 0.33297 0.21932 0.0
H887 H 0.06531 0.40148 0.21728 0.0
H888 H 0.06934 0.40795 0.28393 0.0
H889 H 0.03798 0.33918 0.28633 0.0
C890 C 0.84784 0.26325 0.28447 0.0
C891 C 0.84218 0.22924 0.29759 0.0
C892 C 0.88578 0.26984 0.27474 0.0
C893 C 0.91876 0.24278 0.27815 0.0
C894 C 0.91376 0.21041 0.29234 0.0
C895 C 0.87577 0.20338 0.30173 0.0
C896 C 0.95748 0.24661 0.26598 0.0
C897 C 0.97832 0.28435 0.26558 0.0
C898 C 0.97378 0.21296 0.25471 0.0
C899 C 0.95138 0.17346 0.25276 0.0
C900 C 0.97027 0.13649 0.25873 0.0
C901 C 0.94883 0.09942 0.2573 0.0
C902 C 0.90853 0.09891 0.24983 0.0
C903 C 0.88968 0.13544 0.24363 0.0
C904 C 0.91102 0.17256 0.24496 0.0
C905 C 0.14155 0.28092 0.22738 0.0
C906 C 0.14068 0.27032 0.20617 0.0
C907 C 0.10694 0.27459 0.23993 0.0
C908 C 0.07071 0.25806 0.23145 0.0
C909 C 0.07051 0.24584 0.21055 0.0
C910 C 0.10503 0.25172 0.1981 0.0
C911 C 0.03226 0.25497 0.24387 0.0
C912 C 0.01129 0.21734 0.24423 0.0
C913 C 0.01508 0.28921 0.25435 0.0
C914 C 0.03365 0.33076 0.25299 0.0
C915 C 0.04133 0.34893 0.23354 0.0
C916 C 0.05927 0.38781 0.23231 0.0
C917 C 0.06938 0.40904 0.25047 0.0
C918 C 0.0615 0.39145 0.26988 0.0
C919 C 0.0436 0.35252 0.27118 0.0
H920 H 0.08329 0.43915 0.24951 0.0
H921 H 0.89193 0.0702 0.24881 0.0
H922 H 0.26834 0.60885 0.6863 0.0
H923 H 0.27633 0.54792 0.70783 0.0
H924 H 0.21183 0.60769 0.75791 0.0
H925 H 0.20304 0.66905 0.73635 0.0
H926 H 0.2805 0.56048 0.77106 0.0
H927 H 0.15949 0.54705 0.73048 0.0
H928 H 0.11795 0.54927 0.69845 0.0
H929 H 0.19073 0.45243 0.67214 0.0
H930 H 0.23344 0.4503 0.70383 0.0
H931 H 0.21498 0.33397 0.7963 0.0
H932 H 0.20013 0.40055 0.78018 0.0
H933 H 0.32996 0.42496 0.77544 0.0
H934 H 0.34501 0.35913 0.79172 0.0
H935 H 0.21818 0.43294 0.74295 0.0
H936 H 0.34888 0.52502 0.78329 0.0
H937 H 0.38648 0.5247 0.81658 0.0
H938 H 0.28403 0.46656 0.8465 0.0
H939 H 0.24557 0.4671 0.81348 0.0
C940 C 0.25629 0.60952 0.70198 0.0
C941 C 0.23458 0.64389 0.70946 0.0
C942 C 0.26082 0.57449 0.71425 0.0
C943 C 0.24406 0.57308 0.73431 0.0
C944 C 0.22478 0.60814 0.7424 0.0
C945 C 0.21988 0.64321 0.73005 0.0
C946 C 0.24494 0.53414 0.74623 0.0
C947 C 0.26684 0.53259 0.76497 0.0
C948 C 0.22597 0.49809 0.73853 0.0
C949 C 0.19996 0.49877 0.71951 0.0
C950 C 0.16692 0.52645 0.71781 0.0
C951 C 0.14313 0.52769 0.69971 0.0
C952 C 0.15174 0.50106 0.68326 0.0
C953 C 0.18413 0.47308 0.68489 0.0
C954 C 0.20816 0.47185 0.70293 0.0
C955 C 0.24035 0.35352 0.79182 0.0
C956 C 0.28119 0.34124 0.7954 0.0
C957 C 0.23181 0.39154 0.78257 0.0
C958 C 0.2639 0.41803 0.77684 0.0
C959 C 0.30464 0.40544 0.78007 0.0
C960 C 0.3132 0.36762 0.78932 0.0
C961 C 0.25518 0.45884 0.76743 0.0
C962 C 0.23168 0.46081 0.74914 0.0
C963 C 0.2719 0.49547 0.77579 0.0
C964 C 0.29448 0.49583 0.79584 0.0
C965 C 0.33427 0.5124 0.79699 0.0
C966 C 0.35576 0.51212 0.81582 0.0
C967 C 0.3377 0.49552 0.83363 0.0
C968 C 0.29804 0.4793 0.83268 0.0
C969 C 0.2764 0.47954 0.81391 0.0
H970 H 0.35441 0.49527 0.84818 0.0
H971 H 0.13326 0.50204 0.66927 0.0
H972 H 0.15827 0.83391 0.27864 0.0
H973 H 0.09182 0.82182 0.26232 0.0
H974 H 0.08379 0.70409 0.29278 0.0
H975 H 0.15151 0.71542 0.30855 0.0
H976 H 0.05434 0.69778 0.255 0.0
H977 H 0.03155 0.79107 0.31105 0.0
H978 H 0.04397 0.85292 0.33223 0.0
H979 H 0.01315 0.92942 0.28016 0.0
H980 H 1.00123 0.86802 0.25855 0.0
H981 H 0.84007 0.68242 0.23336 0.0
H982 H 0.90063 0.69399 0.25514 0.0
H983 H 0.93691 0.79471 0.21582 0.0
H984 H 0.8774 0.78261 0.19356 0.0
H985 H 0.94842 0.80681 0.2611 0.0
H986 H 0.97534 0.71171 0.20493 0.0
H987 H 0.96056 0.64939 0.18463 0.0
H988 H 0.98265 0.57487 0.23854 0.0
H989 H 0.99588 0.63703 0.25944 0.0
C990 C 0.1425 0.80531 0.28179 0.0
C991 C 0.15997 0.77575 0.29502 0.0
C992 C 0.10433 0.79852 0.27253 0.0
C993 C 0.08212 0.76252 0.27674 0.0
C994 C 0.10013 0.73226 0.2894 0.0
C995 C 0.13882 0.73874 0.2984 0.0
C996 C 0.04 0.75701 0.26809 0.0
C997 C 0.03102 0.72133 0.25669 0.0
C998 C 0.00944 0.78786 0.27006 0.0
C999 C 0.01576 0.8249 0.28314 0.0
C1000 C 0.02761 0.82108 0.30409 0.0
C1001 C 0.03457 0.85606 0.31617 0.0
C1002 C 0.02941 0.89507 0.30754 0.0
C1003 C 0.01715 0.89918 0.28682 0.0
C1004 C 0.01025 0.86429 0.27465 0.0
C1005 C 0.86045 0.70752 0.22953 0.0
C1006 C 0.85409 0.73122 0.21152 0.0
C1007 C 0.89506 0.71406 0.24201 0.0
C1008 C 0.92337 0.74494 0.23695 0.0
C1009 C 0.91541 0.77071 0.21997 0.0
C1010 C 0.88136 0.76366 0.20725 0.0
C1011 C 0.96324 0.74795 0.24798 0.0
C1012 C 0.97171 0.78314 0.25973 0.0
C1013 C 0.99314 0.71654 0.24649 0.0
C1014 C 0.98608 0.6791 0.23383 0.0
C1015 C 0.97658 0.6821 0.21254 0.0
C1016 C 0.96853 0.64677 0.2009 0.0
C1017 C 0.97078 0.60816 0.21027 0.0
C1018 C 0.9809 0.60482 0.23132 0.0
C1019 C 0.98855 0.6401 0.24308 0.0
H1020 H 0.96482 0.58082 0.20122 0.0
H1021 H 0.03485 0.92212 0.31691 0.0
H1022 H 0.81888 0.33836 0.73394 0.0
H1023 H 0.81 0.39917 0.75608 0.0
H1024 H 0.73864 0.45735 0.70793 0.0
H1025 H 0.74656 0.39716 0.68598 0.0
H1026 H 0.80256 0.50656 0.72269 0.0
H1027 H 0.69101 0.42356 0.74876 0.0
H1028 H 0.66043 0.36169 0.76447 0.0
H1029 H 0.73554 0.37747 0.81876 0.0
H1030 H 0.76699 0.43918 0.80323 0.0
H1031 H 0.67296 0.64351 0.79503 0.0
H1032 H 0.68801 0.57795 0.77853 0.0
H1033 H 0.81755 0.60513 0.78048 0.0
H1034 H 0.80268 0.67145 0.79696 0.0
H1035 H 0.73049 0.51157 0.79055 0.0
H1036 H 0.86143 0.56057 0.73581 0.0
H1037 H 0.88792 0.62226 0.71807 0.0
H1038 H 0.76722 0.67542 0.71857 0.0
H1039 H 0.73992 0.61379 0.736 0.0
C1040 C 0.80066 0.36378 0.72821 0.0
C1041 C 0.78364 0.36273 0.70807 0.0
C1042 C 0.79578 0.39858 0.74086 0.0
C1043 C 0.77402 0.43295 0.73355 0.0
C1044 C 0.75591 0.43137 0.7138 0.0
C1045 C 0.76037 0.39668 0.70129 0.0
C1046 C 0.77084 0.4713 0.74598 0.0
C1047 C 0.78716 0.50761 0.73764 0.0
C1048 C 0.75057 0.47271 0.7654 0.0
C1049 C 0.73172 0.43566 0.77473 0.0
C1050 C 0.70129 0.4136 0.76396 0.0
C1051 C 0.68374 0.37862 0.77285 0.0
C1052 C 0.69613 0.36557 0.79257 0.0
C1053 C 0.72603 0.38756 0.80347 0.0
C1054 C 0.74372 0.42255 0.79464 0.0
C1055 C 0.70474 0.63572 0.792 0.0
C1056 C 0.73661 0.66303 0.79721 0.0
C1057 C 0.71329 0.59798 0.78264 0.0
C1058 C 0.75388 0.58657 0.77814 0.0
C1059 C 0.78594 0.6134 0.78361 0.0
C1060 C 0.77739 0.6513 0.79306 0.0
C1061 C 0.76197 0.54707 0.76719 0.0
C1062 C 0.74662 0.51048 0.7758 0.0
C1063 C 0.78282 0.54546 0.74788 0.0
C1064 C 0.7988 0.58281 0.73749 0.0
C1065 C 0.84056 0.58543 0.73213 0.0
C1066 C 0.8557 0.62036 0.7221 0.0
C1067 C 0.82931 0.65282 0.71728 0.0
C1068 C 0.78768 0.65035 0.72241 0.0
C1069 C 0.77236 0.61543 0.73238 0.0
H1070 H 0.84109 0.67982 0.70952 0.0
H1071 H 0.68249 0.33849 0.79943 0.0
H1072 H 0.865 0.5832 0.18318 0.0
H1073 H 0.92166 0.53622 0.17741 0.0
H1074 H 0.93167 0.57813 0.11394 0.0
H1075 H 0.87574 0.62701 0.12 0.0
H1076 H 0.93537 0.47444 0.15584 0.0
H1077 H 0.02842 0.57071 0.09673 0.0
H1078 H 0.03826 0.64355 0.08735 0.0
H1079 H 0.00792 0.67966 0.14971 0.0
H1080 H 0.99869 0.60697 0.15947 0.0
H1081 H 0.13231 0.379 0.11691 0.0
H1082 H 0.07436 0.42617 0.11146 0.0
H1083 H 0.08084 0.46339 0.17566 0.0
H1084 H 0.13896 0.41765 0.18119 0.0
H1085 H 0.06821 0.5237 0.1275 0.0
H1086 H 0.9747 0.44085 0.18879 0.0
H1087 H 0.96921 0.3725 0.20498 0.0
H1088 H 0.00758 0.31592 0.14792 0.0
H1089 H 0.01187 0.38385 0.13116 0.0
C1090 C 0.87908 0.58247 0.16795 0.0
C1091 C 0.86595 0.60906 0.15207 0.0
C1092 C 0.91156 0.55541 0.16464 0.0
C1093 C 0.93153 0.55386 0.14532 0.0
C1094 C 0.91752 0.57936 0.12916 0.0
C1095 C 0.8854 0.60715 0.13259 0.0
C1096 C 0.96747 0.5261 0.14257 0.0
C1097 C 0.96428 0.48537 0.14957 0.0
C1098 C 0.00542 0.54001 0.13436 0.0
C1099 C 0.01226 0.58357 0.12873 0.0
C1100 C 0.02404 0.59422 0.10843 0.0
C1101 C 0.02951 0.63545 0.10305 0.0
C1102 C 0.02352 0.66623 0.11789 0.0
C1103 C 0.01239 0.65583 0.1382 0.0
C1104 C 0.00703 0.61466 0.14366 0.0
C1105 C 0.12179 0.39772 0.12977 0.0
C1106 C 0.14023 0.39442 0.1495 0.0
C1107 C 0.08885 0.42468 0.1266 0.0
C1108 C 0.07347 0.44797 0.1432 0.0
C1109 C 0.09245 0.44561 0.16268 0.0
C1110 C 0.12568 0.41936 0.16578 0.0
C1111 C 0.03576 0.4727 0.14092 0.0
C1112 C 0.03881 0.51277 0.13317 0.0
C1113 C 0.9981 0.45878 0.14921 0.0
C1114 C 0.9941 0.41752 0.1588 0.0
C1115 C 0.98167 0.41381 0.17964 0.0
C1116 C 0.97875 0.37513 0.18892 0.0
C1117 C 0.98837 0.33989 0.17753 0.0
C1118 C 1.00042 0.34325 0.15676 0.0
C1119 C 0.00304 0.38185 0.14735 0.0
H1120 H 0.98637 0.30998 0.18479 0.0
H1121 H 0.02762 0.69813 0.11368 0.0
H1122 H 0.86415 0.39131 0.62141 0.0
H1123 H 0.91196 0.44787 0.61499 0.0
H1124 H 0.99015 0.40389 0.66435 0.0
H1125 H 0.94334 0.34721 0.67063 0.0
H1126 H 0.93135 0.50823 0.64087 0.0
H1127 H 0.08886 0.42907 0.65572 0.0
H1128 H 0.1217 0.36186 0.64986 0.0
H1129 H 0.03929 0.33806 0.59916 0.0
H1130 H 0.00636 0.4054 0.60447 0.0
H1131 H 0.07958 0.64359 0.67957 0.0
H1132 H 0.03373 0.58647 0.67261 0.0
H1133 H 0.09418 0.565 0.61394 0.0
H1134 H 0.14142 0.62175 0.62107 0.0
H1135 H 0.08252 0.49499 0.6339 0.0
H1136 H 0.99773 0.60966 0.61632 0.0
H1137 H 0.96516 0.67715 0.62181 0.0
H1138 H 0.90164 0.63039 0.67528 0.0
H1139 H 0.93432 0.56281 0.67031 0.0
C1140 C 0.89189 0.39325 0.63065 0.0
C1141 C 0.8998 0.36465 0.64655 0.0
C1142 C 0.91911 0.42568 0.627 0.0
C1143 C 0.95482 0.42992 0.63906 0.0
C1144 C 0.96323 0.40086 0.65458 0.0
C1145 C 0.93618 0.36851 0.65822 0.0
C1146 C 0.98182 0.46628 0.63668 0.0
C1147 C 0.96435 0.50537 0.63911 0.0
C1148 C 0.02486 0.46257 0.63416 0.0
C1149 C 0.04493 0.42223 0.6306 0.0
C1150 C 0.07788 0.40963 0.64323 0.0
C1151 C 0.09649 0.37147 0.64003 0.0
C1152 C 0.08252 0.34567 0.62418 0.0
C1153 C 0.05 0.35803 0.61147 0.0
C1154 C 0.03131 0.39617 0.61459 0.0
C1155 C 0.08309 0.62708 0.66507 0.0
C1156 C 0.11414 0.63754 0.65081 0.0
C1157 C 0.05661 0.59444 0.66108 0.0
C1158 C 0.05999 0.57191 0.64258 0.0
C1159 C 0.09088 0.58217 0.62826 0.0
C1160 C 0.11774 0.6147 0.63233 0.0
C1161 C 0.03212 0.53674 0.63871 0.0
C1162 C 0.04943 0.4979 0.63522 0.0
C1163 C 0.9889 0.54069 0.64013 0.0
C1164 C 0.96866 0.58118 0.64297 0.0
C1165 C 0.97698 0.61382 0.62931 0.0
C1166 C 0.95849 0.6521 0.63233 0.0
C1167 C 0.93139 0.65806 0.6489 0.0
C1168 C 0.92264 0.62572 0.66245 0.0
C1169 C 0.94109 0.5874 0.65952 0.0
H1170 H 0.91714 0.68773 0.65122 0.0
H1171 H 0.09694 0.31612 0.62174 0.0
H1172 H 0.63909 0.08018 0.32363 0.0
H1173 H 0.58309 0.03221 0.32919 0.0
H1174 H 0.56502 0.08076 0.39096 0.0
H1175 H 0.62013 0.1305 0.38506 0.0
H1176 H 0.56713 0.97243 0.35229 0.0
H1177 H 0.46714 0.07584 0.40497 0.0
H1178 H 0.45574 0.14971 0.41143 0.0
H1179 H 0.49239 0.17733 0.34885 0.0
H1180 H 0.50331 0.10353 0.34201 0.0
H1181 H 0.39467 0.85142 0.38023 0.0
H1182 H 0.45312 0.89801 0.38434 0.0
H1183 H 0.39405 0.98605 0.34414 0.0
H1184 H 0.33579 0.94016 0.34001 0.0
H1185 H 0.43128 0.02439 0.37526 0.0
H1186 H 0.46354 0.92201 0.3249 0.0
H1187 H 0.47374 0.8526 0.31049 0.0
H1188 H 0.56759 0.82895 0.35583 0.0
H1189 H 0.55745 0.89803 0.37075 0.0
C1190 C 0.62339 0.08065 0.33846 0.0
C1191 C 0.63388 0.10943 0.35385 0.0
C1192 C 0.59136 0.05299 0.34165 0.0
C1193 C 0.56928 0.05311 0.36038 0.0
C1194 C 0.58086 0.08067 0.37617 0.0
C1195 C 0.61248 0.10898 0.37282 0.0
C1196 C 0.5333 0.02539 0.36286 0.0
C1197 C 0.53755 0.98377 0.35752 0.0
C1198 C 0.49434 0.04019 0.3692 0.0
C1199 C 0.48661 0.08437 0.37308 0.0
C1200 C 0.47258 0.09771 0.39259 0.0
C1201 C 0.46622 0.13953 0.39632 0.0
C1202 C 0.47354 0.16821 0.3806 0.0
C1203 C 0.48692 0.15512 0.36105 0.0
C1204 C 0.49322 0.11334 0.35724 0.0
C1205 C 0.39378 0.881 0.37257 0.0
C1206 C 0.36059 0.89188 0.35967 0.0
C1207 C 0.4273 0.9075 0.37486 0.0
C1208 C 0.4281 0.94529 0.36436 0.0
C1209 C 0.39408 0.95707 0.3524 0.0
C1210 C 0.36078 0.93064 0.35002 0.0
C1211 C 0.4652 0.97164 0.36461 0.0
C1212 C 0.46111 0.01293 0.37047 0.0
C1213 C 0.50382 0.95698 0.35774 0.0
C1214 C 0.50928 0.91499 0.34917 0.0
C1215 C 0.48597 0.90182 0.33199 0.0
C1216 C 0.49182 0.86258 0.32368 0.0
C1217 C 0.52119 0.83634 0.33228 0.0
C1218 C 0.54476 0.84928 0.34922 0.0
C1219 C 0.53895 0.88846 0.35762 0.0
H1220 H 0.52581 0.80604 0.32578 0.0
H1221 H 0.46874 0.20057 0.38354 0.0
H1222 H 0.3587 0.11466 0.88577 0.0
H1223 H 0.40239 0.05423 0.89168 0.0
H1224 H 0.46944 0.08101 0.83559 0.0
H1225 H 0.42724 0.14163 0.82979 0.0
H1226 H 0.42509 0.9922 0.8454 0.0
H1227 H 0.52352 0.10082 0.86699 0.0
H1228 H 0.54187 0.15925 0.88954 0.0
H1229 H 0.52059 0.08523 0.94371 0.0
H1230 H 0.5015 0.02654 0.92142 0.0
H1231 H 0.59675 0.87465 0.82397 0.0
H1232 H 0.54592 0.92795 0.82948 0.0
H1233 H 0.55656 0.91212 0.89589 0.0
H1234 H 0.6096 0.85951 0.89039 0.0
H1235 H 0.55212 0.9894 0.88801 0.0
H1236 H 0.47076 0.87627 0.86687 0.0
H1237 H 0.44978 0.81691 0.8456 0.0
H1238 H 0.43275 0.89571 0.79279 0.0
H1239 H 0.45448 0.95539 0.81359 0.0
C1240 C 0.38311 0.10799 0.87485 0.0
C1241 C 0.38944 0.13309 0.85731 0.0
C1242 C 0.40793 0.0735 0.87826 0.0
C1243 C 0.43898 0.06344 0.86406 0.0
C1244 C 0.44563 0.08853 0.84672 0.0
C1245 C 0.42146 0.12324 0.84349 0.0
C1246 C 0.46367 0.02578 0.86648 0.0
C1247 C 0.45295 0.99138 0.85463 0.0
C1248 C 0.49883 0.02444 0.87926 0.0
C1249 C 0.51054 0.05957 0.89257 0.0
C1250 C 0.5223 0.09718 0.88371 0.0
C1251 C 0.53295 0.1303 0.89644 0.0
C1252 C 0.53224 0.12601 0.91805 0.0
C1253 C 0.52102 0.08855 0.92697 0.0
C1254 C 0.5103 0.05536 0.9143 0.0
C1255 C 0.58811 0.88212 0.83978 0.0
C1256 C 0.60686 0.86247 0.85676 0.0
C1257 C 0.55875 0.91256 0.84292 0.0
C1258 C 0.54636 0.92334 0.86309 0.0
C1259 C 0.56529 0.90407 0.88016 0.0
C1260 C 0.5955 0.874 0.87702 0.0
C1261 C 0.51484 0.95591 0.86603 0.0
C1262 C 0.524 0.98945 0.87898 0.0
C1263 C 0.47781 0.95621 0.85438 0.0
C1264 C 0.46438 0.92035 0.84181 0.0
C1265 C 0.46277 0.88093 0.85069 0.0
C1266 C 0.45076 0.8472 0.83871 0.0
C1267 C 0.43996 0.85252 0.81786 0.0
C1268 C 0.4411 0.89161 0.80895 0.0
C1269 C 0.45322 0.92542 0.82084 0.0
H1270 H 0.43067 0.82637 0.80861 0.0
H1271 H 0.54051 0.15167 0.92788 0.0
loop_
_geom_bond_atom_site_label_1
_geom_bond_atom_site_label_2
_geom_bond_distance
_geom_bond_site_symmetry_2
_ccdc_geom_bond_type
Co0 O2 2.143 . S
Co0 O8 2.074 . S
Co0 O11 2.093 . S
Co0 O24 2.097 . S
Co0 N41 2.151 . S
Co0 N49 2.214 . S
Co1 O2 2.160 . S
Co1 O7 2.058 . S
Co1 O17 2.057 . S
Co1 O32 2.037 . S
Co1 N36 2.145 . S
Co1 N57 2.257 . S
O2 Co0 2.143 . S
O2 Co1 2.160 . S
C3 O4 1.278 . S
C3 O11 1.224 . S
O4 C3 1.278 . S
C5 O6 1.245 . S
C5 O17 1.232 . S
O6 C5 1.245 . S
O7 Co1 2.058 . S
O7 C33 1.269 . S
O8 Co0 2.074 . S
O8 C33 1.257 . S
H9 C34 0.930 . S
H10 C40 0.930 . S
O11 Co0 2.093 . S
O11 C3 1.224 . S
H12 C44 0.929 . S
H13 C46 0.930 . S
H14 C47 0.930 . S
H15 C45 0.929 . S
H16 C48 0.928 . S
O17 Co1 2.057 . S
O17 C5 1.232 . S
H18 C37 0.929 . S
H19 C38 0.929 . S
H20 C50 0.931 . S
H21 C42 0.929 . S
H22 C51 0.930 . S
H23 C43 0.931 . S
O24 Co0 2.097 . S
O24 C52 1.214 . S
H25 C53 0.929 . S
H26 C54 0.929 . S
H27 C55 0.930 . S
H28 C56 0.929 . S
H29 C58 0.930 . S
H30 C35 0.930 . S
H31 C39 0.930 . S
O32 Co1 2.037 . S
O32 C52 1.234 . S
C33 O7 1.269 . S
C33 O8 1.257 . S
C34 H9 0.930 . S
C34 C37 1.388 . S
C34 C39 1.418 . S
C35 H30 0.930 . S
C35 C38 1.404 . S
C35 C39 1.353 . S
N36 Co1 2.145 . S
N36 C37 1.397 . S
N36 C38 1.334 . S
C37 H18 0.929 . S
C37 C34 1.388 . S
C37 N36 1.397 . S
C38 H19 0.929 . S
C38 C35 1.404 . S
C38 N36 1.334 . S
C39 H31 0.930 . S
C39 C34 1.418 . S
C39 C35 1.353 . S
C40 H10 0.930 . S
C40 N41 1.330 . S
C40 C42 1.446 . S
N41 Co0 2.151 . S
N41 C40 1.330 . S
N41 C45 1.418 . S
C42 H21 0.929 . S
C42 C40 1.446 . S
C42 C43 1.332 . S
C43 H23 0.931 . S
C43 C42 1.332 . S
C43 C44 1.267 . S
C44 H12 0.929 . S
C44 C43 1.267 . S
C44 C45 1.251 . S
C45 H15 0.929 . S
C45 N41 1.418 . S
C45 C44 1.251 . S
C46 H13 0.930 . S
C46 C48 1.406 . S
C46 C51 1.261 . S
C47 H14 0.930 . S
C47 N49 1.325 . S
C47 C50 1.357 . S
C48 H16 0.928 . S
C48 C46 1.406 . S
C48 N49 1.261 . S
N49 Co0 2.214 . S
N49 C47 1.325 . S
N49 C48 1.261 . S
C50 H20 0.931 . S
C50 C47 1.357 . S
C50 C51 1.312 . S
C51 H22 0.930 . S
C51 C46 1.261 . S
C51 C50 1.312 . S
C52 O24 1.214 . S
C52 O32 1.234 . S
C53 H25 0.929 . S
C53 C56 1.391 . S
C53 C58 1.391 . S
C54 H26 0.929 . S
C54 C55 1.390 . S
C54 N57 1.391 . S
C55 H27 0.930 . S
C55 C54 1.390 . S
C55 C56 1.392 . S
C56 H28 0.929 . S
C56 C53 1.391 . S
C56 C55 1.392 . S
N57 Co1 2.257 . S
N57 C54 1.391 . S
N57 C58 1.388 . S
C58 H29 0.930 . S
C58 C53 1.391 . S
C58 N57 1.388 . S
Co59 O61 2.143 . S
Co59 O67 2.074 . S
Co59 O70 2.093 . S
Co59 O83 2.097 . S
Co59 N100 2.151 . S
Co59 N108 2.214 . S
Co60 O61 2.160 . S
Co60 O66 2.058 . S
Co60 O76 2.057 . S
Co60 O91 2.037 . S
Co60 N95 2.145 . S
Co60 N116 2.257 . S
O61 Co59 2.143 . S
O61 Co60 2.160 . S
C62 O63 1.278 . S
C62 O70 1.224 . S
O63 C62 1.278 . S
C64 O65 1.245 . S
C64 O76 1.232 . S
O65 C64 1.245 . S
O66 Co60 2.058 . S
O66 C92 1.269 . S
O67 Co59 2.074 . S
O67 C92 1.257 . S
H68 C93 0.930 . S
H69 C99 0.930 . S
O70 Co59 2.093 . S
O70 C62 1.224 . S
H71 C103 0.929 . S
H72 C105 0.930 . S
H73 C106 0.930 . S
H74 C104 0.929 . S
H75 C107 0.928 . S
O76 Co60 2.057 . S
O76 C64 1.232 . S
H77 C96 0.929 . S
H78 C97 0.929 . S
H79 C109 0.931 . S
H80 C101 0.929 . S
H81 C110 0.930 . S
H82 C102 0.931 . S
O83 Co59 2.097 . S
O83 C111 1.214 . S
H84 C112 0.929 . S
H85 C113 0.929 . S
H86 C114 0.930 . S
H87 C115 0.929 . S
H88 C117 0.930 . S
H89 C94 0.930 . S
H90 C98 0.930 . S
O91 Co60 2.037 . S
O91 C111 1.234 . S
C92 O66 1.269 . S
C92 O67 1.257 . S
C93 H68 0.930 . S
C93 C96 1.388 . S
C93 C98 1.418 . S
C94 H89 0.930 . S
C94 C97 1.404 . S
C94 C98 1.353 . S
N95 Co60 2.145 . S
N95 C96 1.397 . S
N95 C97 1.334 . S
C96 H77 0.929 . S
C96 C93 1.388 . S
C96 N95 1.397 . S
C97 H78 0.929 . S
C97 C94 1.404 . S
C97 N95 1.334 . S
C98 H90 0.930 . S
C98 C93 1.418 . S
C98 C94 1.353 . S
C99 H69 0.930 . S
C99 N100 1.330 . S
C99 C101 1.446 . S
N100 Co59 2.151 . S
N100 C99 1.330 . S
N100 C104 1.418 . S
C101 H80 0.929 . S
C101 C99 1.446 . S
C101 C102 1.332 . S
C102 H82 0.931 . S
C102 C101 1.332 . S
C102 C103 1.267 . S
C103 H71 0.929 . S
C103 C102 1.267 . S
C103 C104 1.251 . S
C104 H74 0.929 . S
C104 N100 1.418 . S
C104 C103 1.251 . S
C105 H72 0.930 . S
C105 C107 1.406 . S
C105 C110 1.261 . S
C106 H73 0.930 . S
C106 N108 1.325 . S
C106 C109 1.357 . S
C107 H75 0.928 . S
C107 C105 1.406 . S
C107 N108 1.261 . S
N108 Co59 2.214 . S
N108 C106 1.325 . S
N108 C107 1.261 . S
C109 H79 0.931 . S
C109 C106 1.357 . S
C109 C110 1.312 . S
C110 H81 0.930 . S
C110 C105 1.261 . S
C110 C109 1.312 . S
C111 O83 1.214 . S
C111 O91 1.234 . S
C112 H84 0.929 . S
C112 C115 1.391 . S
C112 C117 1.391 . S
C113 H85 0.929 . S
C113 C114 1.390 . S
C113 N116 1.391 . S
C114 H86 0.930 . S
C114 C113 1.390 . S
C114 C115 1.392 . S
C115 H87 0.929 . S
C115 C112 1.391 . S
C115 C114 1.392 . S
N116 Co60 2.257 . S
N116 C113 1.391 . S
N116 C117 1.388 . S
C117 H88 0.930 . S
C117 C112 1.391 . S
C117 N116 1.388 . S
Co118 O120 2.143 . S
Co118 O126 2.074 . S
Co118 O129 2.093 . S
Co118 O142 2.097 . S
Co118 N159 2.151 . S
Co118 N167 2.214 . S
Co119 O120 2.160 . S
Co119 O125 2.058 . S
Co119 O135 2.057 . S
Co119 O150 2.037 . S
Co119 N154 2.145 . S
Co119 N175 2.257 . S
O120 Co118 2.143 . S
O120 Co119 2.160 . S
C121 O122 1.278 . S
C121 O129 1.224 . S
O122 C121 1.278 . S
C123 O124 1.245 . S
C123 O135 1.232 . S
O124 C123 1.245 . S
O125 Co119 2.058 . S
O125 C151 1.269 . S
O126 Co118 2.074 . S
O126 C151 1.257 . S
H127 C152 0.930 . S
H128 C158 0.930 . S
O129 Co118 2.093 . S
O129 C121 1.224 . S
H130 C162 0.929 . S
H131 C164 0.930 . S
H132 C165 0.930 . S
H133 C163 0.929 . S
H134 C166 0.928 . S
O135 Co119 2.057 . S
O135 C123 1.232 . S
H136 C155 0.929 . S
H137 C156 0.929 . S
H138 C168 0.931 . S
H139 C160 0.929 . S
H140 C169 0.930 . S
H141 C161 0.931 . S
O142 Co118 2.097 . S
O142 C170 1.214 . S
H143 C171 0.929 . S
H144 C172 0.929 . S
H145 C173 0.930 . S
H146 C174 0.929 . S
H147 C176 0.930 . S
H148 C153 0.930 . S
H149 C157 0.930 . S
O150 Co119 2.037 . S
O150 C170 1.234 . S
C151 O125 1.269 . S
C151 O126 1.257 . S
C152 H127 0.930 . S
C152 C155 1.388 . S
C152 C157 1.418 . S
C153 H148 0.930 . S
C153 C156 1.404 . S
C153 C157 1.353 . S
N154 Co119 2.145 . S
N154 C155 1.397 . S
N154 C156 1.334 . S
C155 H136 0.929 . S
C155 C152 1.388 . S
C155 N154 1.397 . S
C156 H137 0.929 . S
C156 C153 1.404 . S
C156 N154 1.334 . S
C157 H149 0.930 . S
C157 C152 1.418 . S
C157 C153 1.353 . S
C158 H128 0.930 . S
C158 N159 1.330 . S
C158 C160 1.446 . S
N159 Co118 2.151 . S
N159 C158 1.330 . S
N159 C163 1.418 . S
C160 H139 0.929 . S
C160 C158 1.446 . S
C160 C161 1.332 . S
C161 H141 0.931 . S
C161 C160 1.332 . S
C161 C162 1.267 . S
C162 H130 0.929 . S
C162 C161 1.267 . S
C162 C163 1.251 . S
C163 H133 0.929 . S
C163 N159 1.418 . S
C163 C162 1.251 . S
C164 H131 0.930 . S
C164 C166 1.406 . S
C164 C169 1.261 . S
C165 H132 0.930 . S
C165 N167 1.325 . S
C165 C168 1.357 . S
C166 H134 0.928 . S
C166 C164 1.406 . S
C166 N167 1.261 . S
N167 Co118 2.214 . S
N167 C165 1.325 . S
N167 C166 1.261 . S
C168 H138 0.931 . S
C168 C165 1.357 . S
C168 C169 1.312 . S
C169 H140 0.930 . S
C169 C164 1.261 . S
C169 C168 1.312 . S
C170 O142 1.214 . S
C170 O150 1.234 . S
C171 H143 0.929 . S
C171 C174 1.391 . S
C171 C176 1.391 . S
C172 H144 0.929 . S
C172 C173 1.390 . S
C172 N175 1.391 . S
C173 H145 0.930 . S
C173 C172 1.390 . S
C173 C174 1.392 . S
C174 H146 0.929 . S
C174 C171 1.391 . S
C174 C173 1.392 . S
N175 Co119 2.257 . S
N175 C172 1.391 . S
N175 C176 1.388 . S
C176 H147 0.930 . S
C176 C171 1.391 . S
C176 N175 1.388 . S
Co177 O179 2.143 . S
Co177 O185 2.074 . S
Co177 O188 2.093 . S
Co177 O201 2.097 . S
Co177 N218 2.151 . S
Co177 N226 2.214 . S
Co178 O179 2.160 . S
Co178 O184 2.058 . S
Co178 O194 2.057 . S
Co178 O209 2.037 . S
Co178 N213 2.145 . S
Co178 N234 2.257 . S
O179 Co177 2.143 . S
O179 Co178 2.160 . S
C180 O181 1.278 . S
C180 O188 1.224 . S
O181 C180 1.278 . S
C182 O183 1.245 . S
C182 O194 1.232 . S
O183 C182 1.245 . S
O184 Co178 2.058 . S
O184 C210 1.269 . S
O185 Co177 2.074 . S
O185 C210 1.257 . S
H186 C211 0.930 . S
H187 C217 0.930 . S
O188 Co177 2.093 . S
O188 C180 1.224 . S
H189 C221 0.929 . S
H190 C223 0.930 . S
H191 C224 0.930 . S
H192 C222 0.929 . S
H193 C225 0.928 . S
O194 Co178 2.057 . S
O194 C182 1.232 . S
H195 C214 0.929 . S
H196 C215 0.929 . S
H197 C227 0.931 . S
H198 C219 0.929 . S
H199 C228 0.930 . S
H200 C220 0.931 . S
O201 Co177 2.097 . S
O201 C229 1.214 . S
H202 C230 0.929 . S
H203 C231 0.929 . S
H204 C232 0.930 . S
H205 C233 0.929 . S
H206 C235 0.930 . S
H207 C212 0.930 . S
H208 C216 0.930 . S
O209 Co178 2.037 . S
O209 C229 1.234 . S
C210 O184 1.269 . S
C210 O185 1.257 . S
C211 H186 0.930 . S
C211 C214 1.388 . S
C211 C216 1.418 . S
C212 H207 0.930 . S
C212 C215 1.404 . S
C212 C216 1.353 . S
N213 Co178 2.145 . S
N213 C214 1.397 . S
N213 C215 1.334 . S
C214 H195 0.929 . S
C214 C211 1.388 . S
C214 N213 1.397 . S
C215 H196 0.929 . S
C215 C212 1.404 . S
C215 N213 1.334 . S
C216 H208 0.930 . S
C216 C211 1.418 . S
C216 C212 1.353 . S
C217 H187 0.930 . S
C217 N218 1.330 . S
C217 C219 1.446 . S
N218 Co177 2.151 . S
N218 C217 1.330 . S
N218 C222 1.418 . S
C219 H198 0.929 . S
C219 C217 1.446 . S
C219 C220 1.332 . S
C220 H200 0.931 . S
C220 C219 1.332 . S
C220 C221 1.267 . S
C221 H189 0.929 . S
C221 C220 1.267 . S
C221 C222 1.251 . S
C222 H192 0.929 . S
C222 N218 1.418 . S
C222 C221 1.251 . S
C223 H190 0.930 . S
C223 C225 1.406 . S
C223 C228 1.261 . S
C224 H191 0.930 . S
C224 N226 1.325 . S
C224 C227 1.357 . S
C225 H193 0.928 . S
C225 C223 1.406 . S
C225 N226 1.261 . S
N226 Co177 2.214 . S
N226 C224 1.325 . S
N226 C225 1.261 . S
C227 H197 0.931 . S
C227 C224 1.357 . S
C227 C228 1.312 . S
C228 H199 0.930 . S
C228 C223 1.261 . S
C228 C227 1.312 . S
C229 O201 1.214 . S
C229 O209 1.234 . S
C230 H202 0.929 . S
C230 C233 1.391 . S
C230 C235 1.391 . S
C231 H203 0.929 . S
C231 C232 1.390 . S
C231 N234 1.391 . S
C232 H204 0.930 . S
C232 C231 1.390 . S
C232 C233 1.392 . S
C233 H205 0.929 . S
C233 C230 1.391 . S
C233 C232 1.392 . S
N234 Co178 2.257 . S
N234 C231 1.391 . S
N234 C235 1.388 . S
C235 H206 0.930 . S
C235 C230 1.391 . S
C235 N234 1.388 . S
Co236 O238 2.143 . S
Co236 O244 2.074 . S
Co236 O247 2.093 . S
Co236 O260 2.097 . S
Co236 N277 2.151 . S
Co236 N285 2.214 . S
Co237 O238 2.160 . S
Co237 O243 2.058 . S
Co237 O253 2.057 . S
Co237 O268 2.037 . S
Co237 N272 2.145 . S
Co237 N293 2.257 . S
O238 Co236 2.143 . S
O238 Co237 2.160 . S
C239 O240 1.278 . S
C239 O247 1.224 . S
O240 C239 1.278 . S
C241 O242 1.245 . S
C241 O253 1.232 . S
O242 C241 1.245 . S
O243 Co237 2.058 . S
O243 C269 1.269 . S
O244 Co236 2.074 . S
O244 C269 1.257 . S
H245 C270 0.930 . S
H246 C276 0.930 . S
O247 Co236 2.093 . S
O247 C239 1.224 . S
H248 C280 0.929 . S
H249 C282 0.930 . S
H250 C283 0.930 . S
H251 C281 0.929 . S
H252 C284 0.928 . S
O253 Co237 2.057 . S
O253 C241 1.232 . S
H254 C273 0.929 . S
H255 C274 0.929 . S
H256 C286 0.931 . S
H257 C278 0.929 . S
H258 C287 0.930 . S
H259 C279 0.931 . S
O260 Co236 2.097 . S
O260 C288 1.214 . S
H261 C289 0.929 . S
H262 C290 0.929 . S
H263 C291 0.930 . S
H264 C292 0.929 . S
H265 C294 0.930 . S
H266 C271 0.930 . S
H267 C275 0.930 . S
O268 Co237 2.037 . S
O268 C288 1.234 . S
C269 O243 1.269 . S
C269 O244 1.257 . S
C270 H245 0.930 . S
C270 C273 1.388 . S
C270 C275 1.418 . S
C271 H266 0.930 . S
C271 C274 1.404 . S
C271 C275 1.353 . S
N272 Co237 2.145 . S
N272 C273 1.397 . S
N272 C274 1.334 . S
C273 H254 0.929 . S
C273 C270 1.388 . S
C273 N272 1.397 . S
C274 H255 0.929 . S
C274 C271 1.404 . S
C274 N272 1.334 . S
C275 H267 0.930 . S
C275 C270 1.418 . S
C275 C271 1.353 . S
C276 H246 0.930 . S
C276 N277 1.330 . S
C276 C278 1.446 . S
N277 Co236 2.151 . S
N277 C276 1.330 . S
N277 C281 1.418 . S
C278 H257 0.929 . S
C278 C276 1.446 . S
C278 C279 1.332 . S
C279 H259 0.931 . S
C279 C278 1.332 . S
C279 C280 1.267 . S
C280 H248 0.929 . S
C280 C279 1.267 . S
C280 C281 1.251 . S
C281 H251 0.929 . S
C281 N277 1.418 . S
C281 C280 1.251 . S
C282 H249 0.930 . S
C282 C284 1.406 . S
C282 C287 1.261 . S
C283 H250 0.930 . S
C283 N285 1.325 . S
C283 C286 1.357 . S
C284 H252 0.928 . S
C284 C282 1.406 . S
C284 N285 1.261 . S
N285 Co236 2.214 . S
N285 C283 1.325 . S
N285 C284 1.261 . S
C286 H256 0.931 . S
C286 C283 1.357 . S
C286 C287 1.312 . S
C287 H258 0.930 . S
C287 C282 1.261 . S
C287 C286 1.312 . S
C288 O260 1.214 . S
C288 O268 1.234 . S
C289 H261 0.929 . S
C289 C292 1.391 . S
C289 C294 1.391 . S
C290 H262 0.929 . S
C290 C291 1.390 . S
C290 N293 1.391 . S
C291 H263 0.930 . S
C291 C290 1.390 . S
C291 C292 1.392 . S
C292 H264 0.929 . S
C292 C289 1.391 . S
C292 C291 1.392 . S
N293 Co237 2.257 . S
N293 C290 1.391 . S
N293 C294 1.388 . S
C294 H265 0.930 . S
C294 C289 1.391 . S
C294 N293 1.388 . S
Co295 O297 2.143 . S
Co295 O303 2.074 . S
Co295 O306 2.093 . S
Co295 O319 2.097 . S
Co295 N336 2.151 . S
Co295 N344 2.214 . S
Co296 O297 2.160 . S
Co296 O302 2.058 . S
Co296 O312 2.057 . S
Co296 O327 2.037 . S
Co296 N331 2.145 . S
Co296 N352 2.257 . S
O297 Co295 2.143 . S
O297 Co296 2.160 . S
C298 O299 1.278 . S
C298 O306 1.224 . S
O299 C298 1.278 . S
C300 O301 1.245 . S
C300 O312 1.232 . S
O301 C300 1.245 . S
O302 Co296 2.058 . S
O302 C328 1.269 . S
O303 Co295 2.074 . S
O303 C328 1.257 . S
H304 C329 0.930 . S
H305 C335 0.930 . S
O306 Co295 2.093 . S
O306 C298 1.224 . S
H307 C339 0.929 . S
H308 C341 0.930 . S
H309 C342 0.930 . S
H310 C340 0.929 . S
H311 C343 0.928 . S
O312 Co296 2.057 . S
O312 C300 1.232 . S
H313 C332 0.929 . S
H314 C333 0.929 . S
H315 C345 0.931 . S
H316 C337 0.929 . S
H317 C346 0.930 . S
H318 C338 0.931 . S
O319 Co295 2.097 . S
O319 C347 1.214 . S
H320 C348 0.929 . S
H321 C349 0.929 . S
H322 C350 0.930 . S
H323 C351 0.929 . S
H324 C353 0.930 . S
H325 C330 0.930 . S
H326 C334 0.930 . S
O327 Co296 2.037 . S
O327 C347 1.234 . S
C328 O302 1.269 . S
C328 O303 1.257 . S
C329 H304 0.930 . S
C329 C332 1.388 . S
C329 C334 1.418 . S
C330 H325 0.930 . S
C330 C333 1.404 . S
C330 C334 1.353 . S
N331 Co296 2.145 . S
N331 C332 1.397 . S
N331 C333 1.334 . S
C332 H313 0.929 . S
C332 C329 1.388 . S
C332 N331 1.397 . S
C333 H314 0.929 . S
C333 C330 1.404 . S
C333 N331 1.334 . S
C334 H326 0.930 . S
C334 C329 1.418 . S
C334 C330 1.353 . S
C335 H305 0.930 . S
C335 N336 1.330 . S
C335 C337 1.446 . S
N336 Co295 2.151 . S
N336 C335 1.330 . S
N336 C340 1.418 . S
C337 H316 0.929 . S
C337 C335 1.446 . S
C337 C338 1.332 . S
C338 H318 0.931 . S
C338 C337 1.332 . S
C338 C339 1.267 . S
C339 H307 0.929 . S
C339 C338 1.267 . S
C339 C340 1.251 . S
C340 H310 0.929 . S
C340 N336 1.418 . S
C340 C339 1.251 . S
C341 H308 0.930 . S
C341 C343 1.406 . S
C341 C346 1.261 . S
C342 H309 0.930 . S
C342 N344 1.325 . S
C342 C345 1.357 . S
C343 H311 0.928 . S
C343 C341 1.406 . S
C343 N344 1.261 . S
N344 Co295 2.214 . S
N344 C342 1.325 . S
N344 C343 1.261 . S
C345 H315 0.931 . S
C345 C342 1.357 . S
C345 C346 1.312 . S
C346 H317 0.930 . S
C346 C341 1.261 . S
C346 C345 1.312 . S
C347 O319 1.214 . S
C347 O327 1.234 . S
C348 H320 0.929 . S
C348 C351 1.391 . S
C348 C353 1.391 . S
C349 H321 0.929 . S
C349 C350 1.390 . S
C349 N352 1.391 . S
C350 H322 0.930 . S
C350 C349 1.390 . S
C350 C351 1.392 . S
C351 H323 0.929 . S
C351 C348 1.391 . S
C351 C350 1.392 . S
N352 Co296 2.257 . S
N352 C349 1.391 . S
N352 C353 1.388 . S
C353 H324 0.930 . S
C353 C348 1.391 . S
C353 N352 1.388 . S
Co354 O356 2.143 . S
Co354 O362 2.074 . S
Co354 O365 2.093 . S
Co354 O378 2.097 . S
Co354 N395 2.151 . S
Co354 N403 2.214 . S
Co355 O356 2.160 . S
Co355 O361 2.058 . S
Co355 O371 2.057 . S
Co355 O386 2.037 . S
Co355 N390 2.145 . S
Co355 N411 2.257 . S
O356 Co354 2.143 . S
O356 Co355 2.160 . S
C357 O358 1.278 . S
C357 O365 1.224 . S
O358 C357 1.278 . S
C359 O360 1.245 . S
C359 O371 1.232 . S
O360 C359 1.245 . S
O361 Co355 2.058 . S
O361 C387 1.269 . S
O362 Co354 2.074 . S
O362 C387 1.257 . S
H363 C388 0.930 . S
H364 C394 0.930 . S
O365 Co354 2.093 . S
O365 C357 1.224 . S
H366 C398 0.929 . S
H367 C400 0.930 . S
H368 C401 0.930 . S
H369 C399 0.929 . S
H370 C402 0.928 . S
O371 Co355 2.057 . S
O371 C359 1.232 . S
H372 C391 0.929 . S
H373 C392 0.929 . S
H374 C404 0.931 . S
H375 C396 0.929 . S
H376 C405 0.930 . S
H377 C397 0.931 . S
O378 Co354 2.097 . S
O378 C406 1.214 . S
H379 C407 0.929 . S
H380 C408 0.929 . S
H381 C409 0.930 . S
H382 C410 0.929 . S
H383 C412 0.930 . S
H384 C389 0.930 . S
H385 C393 0.930 . S
O386 Co355 2.037 . S
O386 C406 1.234 . S
C387 O361 1.269 . S
C387 O362 1.257 . S
C388 H363 0.930 . S
C388 C391 1.388 . S
C388 C393 1.418 . S
C389 H384 0.930 . S
C389 C392 1.404 . S
C389 C393 1.353 . S
N390 Co355 2.145 . S
N390 C391 1.397 . S
N390 C392 1.334 . S
C391 H372 0.929 . S
C391 C388 1.388 . S
C391 N390 1.397 . S
C392 H373 0.929 . S
C392 C389 1.404 . S
C392 N390 1.334 . S
C393 H385 0.930 . S
C393 C388 1.418 . S
C393 C389 1.353 . S
C394 H364 0.930 . S
C394 N395 1.330 . S
C394 C396 1.446 . S
N395 Co354 2.151 . S
N395 C394 1.330 . S
N395 C399 1.418 . S
C396 H375 0.929 . S
C396 C394 1.446 . S
C396 C397 1.332 . S
C397 H377 0.931 . S
C397 C396 1.332 . S
C397 C398 1.267 . S
C398 H366 0.929 . S
C398 C397 1.267 . S
C398 C399 1.251 . S
C399 H369 0.929 . S
C399 N395 1.418 . S
C399 C398 1.251 . S
C400 H367 0.930 . S
C400 C402 1.406 . S
C400 C405 1.261 . S
C401 H368 0.930 . S
C401 N403 1.325 . S
C401 C404 1.357 . S
C402 H370 0.928 . S
C402 C400 1.406 . S
C402 N403 1.261 . S
N403 Co354 2.214 . S
N403 C401 1.325 . S
N403 C402 1.261 . S
C404 H374 0.931 . S
C404 C401 1.357 . S
C404 C405 1.312 . S
C405 H376 0.930 . S
C405 C400 1.261 . S
C405 C404 1.312 . S
C406 O378 1.214 . S
C406 O386 1.234 . S
C407 H379 0.929 . S
C407 C410 1.391 . S
C407 C412 1.391 . S
C408 H380 0.929 . S
C408 C409 1.390 . S
C408 N411 1.391 . S
C409 H381 0.930 . S
C409 C408 1.390 . S
C409 C410 1.392 . S
C410 H382 0.929 . S
C410 C407 1.391 . S
C410 C409 1.392 . S
N411 Co355 2.257 . S
N411 C408 1.391 . S
N411 C412 1.388 . S
C412 H383 0.930 . S
C412 C407 1.391 . S
C412 N411 1.388 . S
Co413 O415 2.143 . S
Co413 O421 2.074 . S
Co413 O424 2.093 . S
Co413 O437 2.097 . S
Co413 N454 2.151 . S
Co413 N462 2.214 . S
Co414 O415 2.160 . S
Co414 O420 2.058 . S
Co414 O430 2.057 . S
Co414 O445 2.037 . S
Co414 N449 2.145 . S
Co414 N470 2.257 . S
O415 Co413 2.143 . S
O415 Co414 2.160 . S
C416 O417 1.278 . S
C416 O424 1.224 . S
O417 C416 1.278 . S
C418 O419 1.245 . S
C418 O430 1.232 . S
O419 C418 1.245 . S
O420 Co414 2.058 . S
O420 C446 1.269 . S
O421 Co413 2.074 . S
O421 C446 1.257 . S
H422 C447 0.930 . S
H423 C453 0.930 . S
O424 Co413 2.093 . S
O424 C416 1.224 . S
H425 C457 0.929 . S
H426 C459 0.930 . S
H427 C460 0.930 . S
H428 C458 0.929 . S
H429 C461 0.928 . S
O430 Co414 2.057 . S
O430 C418 1.232 . S
H431 C450 0.929 . S
H432 C451 0.929 . S
H433 C463 0.931 . S
H434 C455 0.929 . S
H435 C464 0.930 . S
H436 C456 0.931 . S
O437 Co413 2.097 . S
O437 C465 1.214 . S
H438 C466 0.929 . S
H439 C467 0.929 . S
H440 C468 0.930 . S
H441 C469 0.929 . S
H442 C471 0.930 . S
H443 C448 0.930 . S
H444 C452 0.930 . S
O445 Co414 2.037 . S
O445 C465 1.234 . S
C446 O420 1.269 . S
C446 O421 1.257 . S
C447 H422 0.930 . S
C447 C450 1.388 . S
C447 C452 1.418 . S
C448 H443 0.930 . S
C448 C451 1.404 . S
C448 C452 1.353 . S
N449 Co414 2.145 . S
N449 C450 1.397 . S
N449 C451 1.334 . S
C450 H431 0.929 . S
C450 C447 1.388 . S
C450 N449 1.397 . S
C451 H432 0.929 . S
C451 C448 1.404 . S
C451 N449 1.334 . S
C452 H444 0.930 . S
C452 C447 1.418 . S
C452 C448 1.353 . S
C453 H423 0.930 . S
C453 N454 1.330 . S
C453 C455 1.446 . S
N454 Co413 2.151 . S
N454 C453 1.330 . S
N454 C458 1.418 . S
C455 H434 0.929 . S
C455 C453 1.446 . S
C455 C456 1.332 . S
C456 H436 0.931 . S
C456 C455 1.332 . S
C456 C457 1.267 . S
C457 H425 0.929 . S
C457 C456 1.267 . S
C457 C458 1.251 . S
C458 H428 0.929 . S
C458 N454 1.418 . S
C458 C457 1.251 . S
C459 H426 0.930 . S
C459 C461 1.406 . S
C459 C464 1.261 . S
C460 H427 0.930 . S
C460 N462 1.325 . S
C460 C463 1.357 . S
C461 H429 0.928 . S
C461 C459 1.406 . S
C461 N462 1.261 . S
N462 Co413 2.214 . S
N462 C460 1.325 . S
N462 C461 1.261 . S
C463 H433 0.931 . S
C463 C460 1.357 . S
C463 C464 1.312 . S
C464 H435 0.930 . S
C464 C459 1.261 . S
C464 C463 1.312 . S
C465 O437 1.214 . S
C465 O445 1.234 . S
C466 H438 0.929 . S
C466 C469 1.391 . S
C466 C471 1.391 . S
C467 H439 0.929 . S
C467 C468 1.390 . S
C467 N470 1.391 . S
C468 H440 0.930 . S
C468 C467 1.390 . S
C468 C469 1.392 . S
C469 H441 0.929 . S
C469 C466 1.391 . S
C469 C468 1.392 . S
N470 Co414 2.257 . S
N470 C467 1.391 . S
N470 C471 1.388 . S
C471 H442 0.930 . S
C471 C466 1.391 . S
C471 N470 1.388 . S
H472 C490 0.951 . S
H473 C492 0.951 . S
H474 C494 0.950 . S
H475 C495 0.950 . S
H476 C497 0.950 . S
H477 C500 0.950 . S
H478 C501 0.950 . S
H479 C503 0.950 . S
H480 C504 0.950 . S
H481 C505 0.951 . S
H482 C507 0.951 . S
H483 C509 0.950 . S
H484 C510 0.950 . S
H485 C512 0.950 . S
H486 C515 0.950 . S
H487 C516 0.950 . S
H488 C518 0.950 . S
H489 C519 0.950 . S
C490 H472 0.951 . S
C490 C491 1.366 . S
C490 C492 1.388 . S
C491 C490 1.366 . S
C491 C495 1.385 . S
C492 H473 0.951 . S
C492 C490 1.388 . S
C492 C493 1.366 . S
C493 C492 1.366 . S
C493 C494 1.414 . S
C493 C496 1.499 . S
C494 H474 0.950 . S
C494 C493 1.414 . S
C494 C495 1.374 . S
C495 H475 0.950 . S
C495 C491 1.385 . S
C495 C494 1.374 . S
C496 C493 1.499 . S
C496 C497 1.373 . S
C496 C498 1.389 . S
C497 H476 0.950 . S
C497 C496 1.373 . S
C497 C513 1.377 1_554 S
C498 C496 1.389 . S
C498 C499 1.524 . S
C498 C512 1.377 1_554 S
C499 C498 1.524 . S
C499 C500 1.397 . S
C499 C504 1.363 . S
C500 H477 0.950 . S
C500 C499 1.397 . S
C500 C501 1.334 . S
C501 H478 0.950 . S
C501 C500 1.334 . S
C501 C502 1.287 . S
C502 C501 1.287 . S
C502 C503 1.524 . S
C502 H521 0.913 . S
C503 H479 0.950 . S
C503 C502 1.524 . S
C503 C504 1.415 . S
C504 H480 0.950 . S
C504 C499 1.363 . S
C504 C503 1.415 . S
C505 H481 0.951 . S
C505 C506 1.366 . S
C505 C507 1.388 . S
C506 C505 1.366 . S
C506 C510 1.385 . S
C507 H482 0.951 . S
C507 C505 1.388 . S
C507 C508 1.366 . S
C508 C507 1.366 . S
C508 C509 1.414 . S
C508 C511 1.499 . S
C509 H483 0.950 . S
C509 C508 1.414 . S
C509 C510 1.374 . S
C510 H484 0.950 . S
C510 C506 1.385 . S
C510 C509 1.374 . S
C511 C508 1.499 . S
C511 C512 1.373 . S
C511 C513 1.389 . S
C512 H485 0.950 . S
C512 C498 1.377 1_556 S
C512 C511 1.373 . S
C513 C497 1.377 1_556 S
C513 C511 1.389 . S
C513 C514 1.524 . S
C514 C513 1.524 . S
C514 C515 1.397 . S
C514 C519 1.363 . S
C515 H486 0.950 . S
C515 C514 1.397 . S
C515 C516 1.334 . S
C516 H487 0.950 . S
C516 C515 1.334 . S
C516 C517 1.287 . S
C517 C516 1.287 . S
C517 C518 1.524 . S
C517 H520 0.999 . S
C518 H488 0.950 . S
C518 C517 1.524 . S
C518 C519 1.415 . S
C519 H489 0.950 . S
C519 C514 1.363 . S
C519 C518 1.415 . S
H520 C517 0.999 . S
H521 C502 0.913 . S
H522 C540 0.951 . S
H523 C542 0.951 . S
H524 C544 0.950 . S
H525 C545 0.950 . S
H526 C547 0.950 . S
H527 C550 0.950 . S
H528 C551 0.950 . S
H529 C553 0.950 . S
H530 C554 0.950 . S
H531 C555 0.951 . S
H532 C557 0.951 . S
H533 C559 0.950 . S
H534 C560 0.950 . S
H535 C562 0.950 . S
H536 C565 0.950 . S
H537 C566 0.950 . S
H538 C568 0.950 . S
H539 C569 0.950 . S
C540 H522 0.951 . S
C540 C541 1.366 . S
C540 C542 1.388 . S
C541 C540 1.366 . S
C541 C545 1.385 . S
C542 H523 0.951 . S
C542 C540 1.388 . S
C542 C543 1.366 . S
C543 C542 1.366 . S
C543 C544 1.414 . S
C543 C546 1.499 . S
C544 H524 0.950 . S
C544 C543 1.414 . S
C544 C545 1.374 . S
C545 H525 0.950 . S
C545 C541 1.385 . S
C545 C544 1.374 . S
C546 C543 1.499 . S
C546 C547 1.373 . S
C546 C548 1.389 . S
C547 H526 0.950 . S
C547 C546 1.373 . S
C547 C563 1.377 . S
C548 C546 1.389 . S
C548 C549 1.524 . S
C548 C562 1.377 . S
C549 C548 1.524 . S
C549 C550 1.397 . S
C549 C554 1.363 . S
C550 H527 0.950 . S
C550 C549 1.397 . S
C550 C551 1.334 . S
C551 H528 0.950 . S
C551 C550 1.334 . S
C551 C552 1.287 . S
C552 C551 1.287 . S
C552 C553 1.524 . S
C552 H571 0.913 . S
C553 H529 0.950 . S
C553 C552 1.524 . S
C553 C554 1.415 . S
C554 H530 0.950 . S
C554 C549 1.363 . S
C554 C553 1.415 . S
C555 H531 0.951 . S
C555 C556 1.366 . S
C555 C557 1.388 . S
C556 C555 1.366 . S
C556 C560 1.385 . S
C557 H532 0.951 . S
C557 C555 1.388 . S
C557 C558 1.366 . S
C558 C557 1.366 . S
C558 C559 1.414 . S
C558 C561 1.499 . S
C559 H533 0.950 . S
C559 C558 1.414 . S
C559 C560 1.374 . S
C560 H534 0.950 . S
C560 C556 1.385 . S
C560 C559 1.374 . S
C561 C558 1.499 . S
C561 C562 1.373 . S
C561 C563 1.389 . S
C562 H535 0.950 . S
C562 C548 1.377 . S
C562 C561 1.373 . S
C563 C547 1.377 . S
C563 C561 1.389 . S
C563 C564 1.524 . S
C564 C563 1.524 . S
C564 C565 1.397 . S
C564 C569 1.363 . S
C565 H536 0.950 . S
C565 C564 1.397 . S
C565 C566 1.334 . S
C566 H537 0.950 . S
C566 C565 1.334 . S
C566 C567 1.287 . S
C567 C566 1.287 . S
C567 C568 1.524 . S
C567 H570 0.999 . S
C568 H538 0.950 . S
C568 C567 1.524 . S
C568 C569 1.415 . S
C569 H539 0.950 . S
C569 C564 1.363 . S
C569 C568 1.415 . S
H570 C567 0.999 . S
H571 C552 0.913 . S
H572 C590 0.951 . S
H573 C592 0.951 . S
H574 C594 0.950 . S
H575 C595 0.950 . S
H576 C597 0.950 . S
H577 C600 0.950 . S
H578 C601 0.950 . S
H579 C603 0.950 . S
H580 C604 0.950 . S
H581 C605 0.951 . S
H582 C607 0.951 . S
H583 C609 0.950 . S
H584 C610 0.950 . S
H585 C612 0.950 . S
H586 C615 0.950 . S
H587 C616 0.950 . S
H588 C618 0.950 . S
H589 C619 0.950 . S
C590 H572 0.951 . S
C590 C591 1.366 . S
C590 C592 1.388 . S
C591 C590 1.366 . S
C591 C595 1.385 . S
C592 H573 0.951 . S
C592 C590 1.388 . S
C592 C593 1.366 . S
C593 C592 1.366 . S
C593 C594 1.414 . S
C593 C596 1.499 . S
C594 H574 0.950 . S
C594 C593 1.414 . S
C594 C595 1.374 . S
C595 H575 0.950 . S
C595 C591 1.385 . S
C595 C594 1.374 . S
C596 C593 1.499 . S
C596 C597 1.373 . S
C596 C598 1.389 . S
C597 H576 0.950 . S
C597 C596 1.373 . S
C597 C613 1.377 1_554 S
C598 C596 1.389 . S
C598 C599 1.524 . S
C598 C612 1.377 1_554 S
C599 C598 1.524 . S
C599 C600 1.397 . S
C599 C604 1.363 . S
C600 H577 0.950 . S
C600 C599 1.397 . S
C600 C601 1.334 . S
C601 H578 0.950 . S
C601 C600 1.334 . S
C601 C602 1.287 . S
C602 C601 1.287 . S
C602 C603 1.524 . S
C602 H621 0.913 . S
C603 H579 0.950 . S
C603 C602 1.524 . S
C603 C604 1.415 . S
C604 H580 0.950 . S
C604 C599 1.363 . S
C604 C603 1.415 . S
C605 H581 0.951 . S
C605 C606 1.366 . S
C605 C607 1.388 . S
C606 C605 1.366 . S
C606 C610 1.385 . S
C607 H582 0.951 . S
C607 C605 1.388 . S
C607 C608 1.366 . S
C608 C607 1.366 . S
C608 C609 1.414 . S
C608 C611 1.499 . S
C609 H583 0.950 . S
C609 C608 1.414 . S
C609 C610 1.374 . S
C610 H584 0.950 . S
C610 C606 1.385 . S
C610 C609 1.374 . S
C611 C608 1.499 . S
C611 C612 1.373 . S
C611 C613 1.389 . S
C612 H585 0.950 . S
C612 C598 1.377 1_556 S
C612 C611 1.373 . S
C613 C597 1.377 1_556 S
C613 C611 1.389 . S
C613 C614 1.524 . S
C614 C613 1.524 . S
C614 C615 1.397 . S
C614 C619 1.363 . S
C615 H586 0.950 . S
C615 C614 1.397 . S
C615 C616 1.334 . S
C616 H587 0.950 . S
C616 C615 1.334 . S
C616 C617 1.287 . S
C617 C616 1.287 . S
C617 C618 1.524 . S
C617 H620 0.999 . S
C618 H588 0.950 . S
C618 C617 1.524 . S
C618 C619 1.415 . S
C619 H589 0.950 . S
C619 C614 1.363 . S
C619 C618 1.415 . S
H620 C617 0.999 . S
H621 C602 0.913 . S
H622 C640 0.951 . S
H623 C642 0.951 . S
H624 C644 0.950 . S
H625 C645 0.950 . S
H626 C647 0.950 . S
H627 C650 0.950 . S
H628 C651 0.950 . S
H629 C653 0.950 . S
H630 C654 0.950 . S
H631 C655 0.951 . S
H632 C657 0.951 . S
H633 C659 0.950 . S
H634 C660 0.950 . S
H635 C662 0.950 . S
H636 C665 0.950 . S
H637 C666 0.950 . S
H638 C668 0.950 . S
H639 C669 0.950 . S
C640 H622 0.951 . S
C640 C641 1.366 . S
C640 C642 1.388 . S
C641 C640 1.366 . S
C641 C645 1.385 . S
C642 H623 0.951 . S
C642 C640 1.388 . S
C642 C643 1.366 . S
C643 C642 1.366 . S
C643 C644 1.414 . S
C643 C646 1.499 . S
C644 H624 0.950 . S
C644 C643 1.414 . S
C644 C645 1.374 . S
C645 H625 0.950 . S
C645 C641 1.385 . S
C645 C644 1.374 . S
C646 C643 1.499 . S
C646 C647 1.373 . S
C646 C648 1.389 . S
C647 H626 0.950 . S
C647 C646 1.373 . S
C647 C663 1.377 . S
C648 C646 1.389 . S
C648 C649 1.524 . S
C648 C662 1.377 . S
C649 C648 1.524 . S
C649 C650 1.397 . S
C649 C654 1.363 . S
C650 H627 0.950 . S
C650 C649 1.397 . S
C650 C651 1.334 . S
C651 H628 0.950 . S
C651 C650 1.334 . S
C651 C652 1.287 . S
C652 C651 1.287 . S
C652 C653 1.524 . S
C652 H671 0.913 . S
C653 H629 0.950 . S
C653 C652 1.524 . S
C653 C654 1.415 . S
C654 H630 0.950 . S
C654 C649 1.363 . S
C654 C653 1.415 . S
C655 H631 0.951 . S
C655 C656 1.366 . S
C655 C657 1.388 . S
C656 C655 1.366 . S
C656 C660 1.385 . S
C657 H632 0.951 . S
C657 C655 1.388 . S
C657 C658 1.366 . S
C658 C657 1.366 . S
C658 C659 1.414 . S
C658 C661 1.499 . S
C659 H633 0.950 . S
C659 C658 1.414 . S
C659 C660 1.374 . S
C660 H634 0.950 . S
C660 C656 1.385 . S
C660 C659 1.374 . S
C661 C658 1.499 . S
C661 C662 1.373 . S
C661 C663 1.389 . S
C662 H635 0.950 . S
C662 C648 1.377 . S
C662 C661 1.373 . S
C663 C647 1.377 . S
C663 C661 1.389 . S
C663 C664 1.524 . S
C664 C663 1.524 . S
C664 C665 1.397 . S
C664 C669 1.363 . S
C665 H636 0.950 . S
C665 C664 1.397 . S
C665 C666 1.334 . S
C666 H637 0.950 . S
C666 C665 1.334 . S
C666 C667 1.287 . S
C667 C666 1.287 . S
C667 C668 1.524 . S
C667 H670 0.999 . S
C668 H638 0.950 . S
C668 C667 1.524 . S
C668 C669 1.415 . S
C669 H639 0.950 . S
C669 C664 1.363 . S
C669 C668 1.415 . S
H670 C667 0.999 . S
H671 C652 0.913 . S
H672 C690 0.951 . S
H673 C692 0.951 . S
H674 C694 0.950 . S
H675 C695 0.950 . S
H676 C697 0.950 . S
H677 C700 0.950 . S
H678 C701 0.950 . S
H679 C703 0.950 . S
H680 C704 0.950 . S
H681 C705 0.951 . S
H682 C707 0.951 . S
H683 C709 0.950 . S
H684 C710 0.950 . S
H685 C712 0.950 . S
H686 C715 0.950 . S
H687 C716 0.950 . S
H688 C718 0.950 . S
H689 C719 0.950 . S
C690 H672 0.951 . S
C690 C691 1.366 . S
C690 C692 1.388 . S
C691 C690 1.366 . S
C691 C695 1.385 . S
C692 H673 0.951 . S
C692 C690 1.388 . S
C692 C693 1.366 . S
C693 C692 1.366 . S
C693 C694 1.414 . S
C693 C696 1.499 . S
C694 H674 0.950 . S
C694 C693 1.414 . S
C694 C695 1.374 . S
C695 H675 0.950 . S
C695 C691 1.385 . S
C695 C694 1.374 . S
C696 C693 1.499 . S
C696 C697 1.373 . S
C696 C698 1.389 . S
C697 H676 0.950 . S
C697 C696 1.373 . S
C697 C713 1.377 . S
C698 C696 1.389 . S
C698 C699 1.524 . S
C698 C712 1.377 . S
C699 C698 1.524 . S
C699 C700 1.397 . S
C699 C704 1.363 . S
C700 H677 0.950 . S
C700 C699 1.397 . S
C700 C701 1.334 . S
C701 H678 0.950 . S
C701 C700 1.334 . S
C701 C702 1.287 . S
C702 C701 1.287 . S
C702 C703 1.524 . S
C702 H721 0.913 . S
C703 H679 0.950 . S
C703 C702 1.524 . S
C703 C704 1.415 . S
C704 H680 0.950 . S
C704 C699 1.363 . S
C704 C703 1.415 . S
C705 H681 0.951 . S
C705 C706 1.366 . S
C705 C707 1.388 . S
C706 C705 1.366 . S
C706 C710 1.385 . S
C707 H682 0.951 . S
C707 C705 1.388 . S
C707 C708 1.366 . S
C708 C707 1.366 . S
C708 C709 1.414 . S
C708 C711 1.499 . S
C709 H683 0.950 . S
C709 C708 1.414 . S
C709 C710 1.374 . S
C710 H684 0.950 . S
C710 C706 1.385 . S
C710 C709 1.374 . S
C711 C708 1.499 . S
C711 C712 1.373 . S
C711 C713 1.389 . S
C712 H685 0.950 . S
C712 C698 1.377 . S
C712 C711 1.373 . S
C713 C697 1.377 . S
C713 C711 1.389 . S
C713 C714 1.524 . S
C714 C713 1.524 . S
C714 C715 1.397 . S
C714 C719 1.363 . S
C715 H686 0.950 . S
C715 C714 1.397 . S
C715 C716 1.334 . S
C716 H687 0.950 . S
C716 C715 1.334 . S
C716 C717 1.287 . S
C717 C716 1.287 . S
C717 C718 1.524 . S
C717 H720 0.999 . S
C718 H688 0.950 . S
C718 C717 1.524 . S
C718 C719 1.415 . S
C719 H689 0.950 . S
C719 C714 1.363 . S
C719 C718 1.415 . S
H720 C717 0.999 . S
H721 C702 0.913 . S
H722 C740 0.951 . S
H723 C742 0.951 . S
H724 C744 0.950 . S
H725 C745 0.950 . S
H726 C747 0.950 . S
H727 C750 0.950 . S
H728 C751 0.950 . S
H729 C753 0.950 . S
H730 C754 0.950 . S
H731 C755 0.951 . S
H732 C757 0.951 . S
H733 C759 0.950 . S
H734 C760 0.950 . S
H735 C762 0.950 1_545 S
H736 C765 0.950 . S
H737 C766 0.950 . S
H738 C768 0.950 1_545 S
H739 C769 0.950 . S
C740 H722 0.951 . S
C740 C741 1.366 . S
C740 C742 1.388 . S
C741 C740 1.366 . S
C741 C745 1.385 . S
C742 H723 0.951 . S
C742 C740 1.388 . S
C742 C743 1.366 . S
C743 C742 1.366 . S
C743 C744 1.414 . S
C743 C746 1.499 . S
C744 H724 0.950 . S
C744 C743 1.414 . S
C744 C745 1.374 . S
C745 H725 0.950 . S
C745 C741 1.385 . S
C745 C744 1.374 . S
C746 C743 1.499 . S
C746 C747 1.373 . S
C746 C748 1.389 . S
C747 H726 0.950 . S
C747 C746 1.373 . S
C747 C763 1.377 . S
C748 C746 1.389 . S
C748 C749 1.524 . S
C748 C762 1.377 . S
C749 C748 1.524 . S
C749 C750 1.397 . S
C749 C754 1.363 . S
C750 H727 0.950 . S
C750 C749 1.397 . S
C750 C751 1.334 . S
C751 H728 0.950 . S
C751 C750 1.334 . S
C751 C752 1.287 . S
C752 C751 1.287 . S
C752 C753 1.524 . S
C752 H771 0.913 . S
C753 H729 0.950 . S
C753 C752 1.524 . S
C753 C754 1.415 . S
C754 H730 0.950 . S
C754 C749 1.363 . S
C754 C753 1.415 . S
C755 H731 0.951 . S
C755 C756 1.366 . S
C755 C757 1.388 . S
C756 C755 1.366 . S
C756 C760 1.385 . S
C757 H732 0.951 . S
C757 C755 1.388 . S
C757 C758 1.366 . S
C758 C757 1.366 . S
C758 C759 1.414 . S
C758 C761 1.499 . S
C759 H733 0.950 . S
C759 C758 1.414 . S
C759 C760 1.374 . S
C760 H734 0.950 . S
C760 C756 1.385 . S
C760 C759 1.374 . S
C761 C758 1.499 . S
C761 C762 1.373 1_545 S
C761 C763 1.389 1_545 S
C762 H735 0.950 1_565 S
C762 C748 1.377 . S
C762 C761 1.373 1_565 S
C763 C747 1.377 . S
C763 C761 1.389 1_565 S
C763 C764 1.524 . S
C764 C763 1.524 . S
C764 C765 1.397 . S
C764 C769 1.363 . S
C765 H736 0.950 . S
C765 C764 1.397 . S
C765 C766 1.334 . S
C766 H737 0.950 . S
C766 C765 1.334 . S
C766 C767 1.287 . S
C767 C766 1.287 . S
C767 C768 1.524 . S
C767 H770 0.999 1_565 S
C768 H738 0.950 1_565 S
C768 C767 1.524 . S
C768 C769 1.415 . S
C769 H739 0.950 . S
C769 C764 1.363 . S
C769 C768 1.415 . S
H770 C767 0.999 1_545 S
H771 C752 0.913 . S
H772 C790 0.951 . S
H773 C792 0.951 . S
H774 C794 0.950 . S
H775 C795 0.950 . S
H776 C797 0.950 . S
H777 C800 0.950 . S
H778 C801 0.950 . S
H779 C803 0.950 . S
H780 C804 0.950 . S
H781 C805 0.951 . S
H782 C807 0.951 . S
H783 C809 0.950 . S
H784 C810 0.950 . S
H785 C812 0.950 . S
H786 C815 0.950 . S
H787 C816 0.950 . S
H788 C818 0.950 . S
H789 C819 0.950 . S
C790 H772 0.951 . S
C790 C791 1.366 . S
C790 C792 1.388 . S
C791 C790 1.366 . S
C791 C795 1.385 . S
C792 H773 0.951 . S
C792 C790 1.388 . S
C792 C793 1.366 . S
C793 C792 1.366 . S
C793 C794 1.414 . S
C793 C796 1.499 . S
C794 H774 0.950 . S
C794 C793 1.414 . S
C794 C795 1.374 . S
C795 H775 0.950 . S
C795 C791 1.385 . S
C795 C794 1.374 . S
C796 C793 1.499 . S
C796 C797 1.373 . S
C796 C798 1.389 . S
C797 H776 0.950 . S
C797 C796 1.373 . S
C797 C813 1.377 . S
C798 C796 1.389 . S
C798 C799 1.524 . S
C798 C812 1.377 . S
C799 C798 1.524 . S
C799 C800 1.397 . S
C799 C804 1.363 . S
C800 H777 0.950 . S
C800 C799 1.397 . S
C800 C801 1.334 . S
C801 H778 0.950 . S
C801 C800 1.334 . S
C801 C802 1.287 . S
C802 C801 1.287 . S
C802 C803 1.524 . S
C802 H821 0.913 . S
C803 H779 0.950 . S
C803 C802 1.524 . S
C803 C804 1.415 . S
C804 H780 0.950 . S
C804 C799 1.363 . S
C804 C803 1.415 . S
C805 H781 0.951 . S
C805 C806 1.366 . S
C805 C807 1.388 . S
C806 C805 1.366 . S
C806 C810 1.385 . S
C807 H782 0.951 . S
C807 C805 1.388 . S
C807 C808 1.366 . S
C808 C807 1.366 . S
C808 C809 1.414 . S
C808 C811 1.499 . S
C809 H783 0.950 . S
C809 C808 1.414 . S
C809 C810 1.374 . S
C810 H784 0.950 . S
C810 C806 1.385 . S
C810 C809 1.374 . S
C811 C808 1.499 . S
C811 C812 1.373 . S
C811 C813 1.389 . S
C812 H785 0.950 . S
C812 C798 1.377 . S
C812 C811 1.373 . S
C813 C797 1.377 . S
C813 C811 1.389 . S
C813 C814 1.524 . S
C814 C813 1.524 . S
C814 C815 1.397 . S
C814 C819 1.363 . S
C815 H786 0.950 . S
C815 C814 1.397 . S
C815 C816 1.334 . S
C816 H787 0.950 . S
C816 C815 1.334 . S
C816 C817 1.287 . S
C817 C816 1.287 . S
C817 C818 1.524 . S
C817 H820 0.999 . S
C818 H788 0.950 . S
C818 C817 1.524 . S
C818 C819 1.415 . S
C819 H789 0.950 . S
C819 C814 1.363 . S
C819 C818 1.415 . S
H820 C817 0.999 . S
H821 C802 0.913 . S
H822 C840 0.951 . S
H823 C842 0.951 . S
H824 C844 0.950 . S
H825 C845 0.950 . S
H826 C847 0.950 . S
H827 C850 0.950 . S
H828 C851 0.950 . S
H829 C853 0.950 . S
H830 C854 0.950 . S
H831 C855 0.951 . S
H832 C857 0.951 . S
H833 C859 0.950 . S
H834 C860 0.950 . S
H835 C862 0.950 . S
H836 C865 0.950 . S
H837 C866 0.950 . S
H838 C868 0.950 . S
H839 C869 0.950 . S
C840 H822 0.951 . S
C840 C841 1.366 . S
C840 C842 1.388 . S
C841 C840 1.366 . S
C841 C845 1.385 . S
C842 H823 0.951 . S
C842 C840 1.388 . S
C842 C843 1.366 . S
C843 C842 1.366 . S
C843 C844 1.414 . S
C843 C846 1.499 . S
C844 H824 0.950 . S
C844 C843 1.414 . S
C844 C845 1.374 . S
C845 H825 0.950 . S
C845 C841 1.385 . S
C845 C844 1.374 . S
C846 C843 1.499 . S
C846 C847 1.373 . S
C846 C848 1.389 . S
C847 H826 0.950 . S
C847 C846 1.373 . S
C847 C863 1.377 1_545 S
C848 C846 1.389 . S
C848 C849 1.524 . S
C848 C862 1.377 . S
C849 C848 1.524 . S
C849 C850 1.397 . S
C849 C854 1.363 . S
C850 H827 0.950 . S
C850 C849 1.397 . S
C850 C851 1.334 . S
C851 H828 0.950 . S
C851 C850 1.334 . S
C851 C852 1.287 . S
C852 C851 1.287 . S
C852 C853 1.524 . S
C852 H871 0.913 . S
C853 H829 0.950 . S
C853 C852 1.524 . S
C853 C854 1.415 . S
C854 H830 0.950 . S
C854 C849 1.363 . S
C854 C853 1.415 . S
C855 H831 0.951 . S
C855 C856 1.366 . S
C855 C857 1.388 . S
C856 C855 1.366 . S
C856 C860 1.385 . S
C857 H832 0.951 . S
C857 C855 1.388 . S
C857 C858 1.366 . S
C858 C857 1.366 . S
C858 C859 1.414 . S
C858 C861 1.499 . S
C859 H833 0.950 . S
C859 C858 1.414 . S
C859 C860 1.374 . S
C860 H834 0.950 . S
C860 C856 1.385 . S
C860 C859 1.374 . S
C861 C858 1.499 . S
C861 C862 1.373 1_565 S
C861 C863 1.389 . S
C862 H835 0.950 . S
C862 C848 1.377 . S
C862 C861 1.373 1_545 S
C863 C847 1.377 1_565 S
C863 C861 1.389 . S
C863 C864 1.524 . S
C864 C863 1.524 . S
C864 C865 1.397 . S
C864 C869 1.363 . S
C865 H836 0.950 . S
C865 C864 1.397 . S
C865 C866 1.334 . S
C866 H837 0.950 . S
C866 C865 1.334 . S
C866 C867 1.287 . S
C867 C866 1.287 . S
C867 C868 1.524 . S
C867 H870 0.999 . S
C868 H838 0.950 . S
C868 C867 1.524 . S
C868 C869 1.415 . S
C869 H839 0.950 . S
C869 C864 1.363 . S
C869 C868 1.415 . S
H870 C867 0.999 . S
H871 C852 0.913 . S
H872 C890 0.951 . S
H873 C892 0.951 . S
H874 C894 0.950 . S
H875 C895 0.950 . S
H876 C897 0.950 . S
H877 C900 0.950 . S
H878 C901 0.950 . S
H879 C903 0.950 . S
H880 C904 0.950 . S
H881 C905 0.951 . S
H882 C907 0.951 . S
H883 C909 0.950 . S
H884 C910 0.950 . S
H885 C912 0.950 . S
H886 C915 0.950 . S
H887 C916 0.950 . S
H888 C918 0.950 . S
H889 C919 0.950 . S
C890 H872 0.951 . S
C890 C891 1.366 . S
C890 C892 1.388 . S
C891 C890 1.366 . S
C891 C895 1.385 . S
C892 H873 0.951 . S
C892 C890 1.388 . S
C892 C893 1.366 . S
C893 C892 1.366 . S
C893 C894 1.414 . S
C893 C896 1.499 . S
C894 H874 0.950 . S
C894 C893 1.414 . S
C894 C895 1.374 . S
C895 H875 0.950 . S
C895 C891 1.385 . S
C895 C894 1.374 . S
C896 C893 1.499 . S
C896 C897 1.373 . S
C896 C898 1.389 . S
C897 H876 0.950 . S
C897 C896 1.373 . S
C897 C913 1.377 1_655 S
C898 C896 1.389 . S
C898 C899 1.524 . S
C898 C912 1.377 . S
C899 C898 1.524 . S
C899 C900 1.397 . S
C899 C904 1.363 . S
C900 H877 0.950 . S
C900 C899 1.397 . S
C900 C901 1.334 . S
C901 H878 0.950 . S
C901 C900 1.334 . S
C901 C902 1.287 . S
C902 C901 1.287 . S
C902 C903 1.524 . S
C902 H921 0.913 . S
C903 H879 0.950 . S
C903 C902 1.524 . S
C903 C904 1.415 . S
C904 H880 0.950 . S
C904 C899 1.363 . S
C904 C903 1.415 . S
C905 H881 0.951 . S
C905 C906 1.366 . S
C905 C907 1.388 . S
C906 C905 1.366 . S
C906 C910 1.385 . S
C907 H882 0.951 . S
C907 C905 1.388 . S
C907 C908 1.366 . S
C908 C907 1.366 . S
C908 C909 1.414 . S
C908 C911 1.499 . S
C909 H883 0.950 . S
C909 C908 1.414 . S
C909 C910 1.374 . S
C910 H884 0.950 . S
C910 C906 1.385 . S
C910 C909 1.374 . S
C911 C908 1.499 . S
C911 C912 1.373 1_455 S
C911 C913 1.389 . S
C912 H885 0.950 . S
C912 C898 1.377 . S
C912 C911 1.373 1_655 S
C913 C897 1.377 1_455 S
C913 C911 1.389 . S
C913 C914 1.524 . S
C914 C913 1.524 . S
C914 C915 1.397 . S
C914 C919 1.363 . S
C915 H886 0.950 . S
C915 C914 1.397 . S
C915 C916 1.334 . S
C916 H887 0.950 . S
C916 C915 1.334 . S
C916 C917 1.287 . S
C917 C916 1.287 . S
C917 C918 1.524 . S
C917 H920 0.999 . S
C918 H888 0.950 . S
C918 C917 1.524 . S
C918 C919 1.415 . S
C919 H889 0.950 . S
C919 C914 1.363 . S
C919 C918 1.415 . S
H920 C917 0.999 . S
H921 C902 0.913 . S
H922 C940 0.951 . S
H923 C942 0.951 . S
H924 C944 0.950 . S
H925 C945 0.950 . S
H926 C947 0.950 . S
H927 C950 0.950 . S
H928 C951 0.950 . S
H929 C953 0.950 . S
H930 C954 0.950 . S
H931 C955 0.951 . S
H932 C957 0.951 . S
H933 C959 0.950 . S
H934 C960 0.950 . S
H935 C962 0.950 . S
H936 C965 0.950 . S
H937 C966 0.950 . S
H938 C968 0.950 . S
H939 C969 0.950 . S
C940 H922 0.951 . S
C940 C941 1.366 . S
C940 C942 1.388 . S
C941 C940 1.366 . S
C941 C945 1.385 . S
C942 H923 0.951 . S
C942 C940 1.388 . S
C942 C943 1.366 . S
C943 C942 1.366 . S
C943 C944 1.414 . S
C943 C946 1.499 . S
C944 H924 0.950 . S
C944 C943 1.414 . S
C944 C945 1.374 . S
C945 H925 0.950 . S
C945 C941 1.385 . S
C945 C944 1.374 . S
C946 C943 1.499 . S
C946 C947 1.373 . S
C946 C948 1.389 . S
C947 H926 0.950 . S
C947 C946 1.373 . S
C947 C963 1.377 . S
C948 C946 1.389 . S
C948 C949 1.524 . S
C948 C962 1.377 . S
C949 C948 1.524 . S
C949 C950 1.397 . S
C949 C954 1.363 . S
C950 H927 0.950 . S
C950 C949 1.397 . S
C950 C951 1.334 . S
C951 H928 0.950 . S
C951 C950 1.334 . S
C951 C952 1.287 . S
C952 C951 1.287 . S
C952 C953 1.524 . S
C952 H971 0.913 . S
C953 H929 0.950 . S
C953 C952 1.524 . S
C953 C954 1.415 . S
C954 H930 0.950 . S
C954 C949 1.363 . S
C954 C953 1.415 . S
C955 H931 0.951 . S
C955 C956 1.366 . S
C955 C957 1.388 . S
C956 C955 1.366 . S
C956 C960 1.385 . S
C957 H932 0.951 . S
C957 C955 1.388 . S
C957 C958 1.366 . S
C958 C957 1.366 . S
C958 C959 1.414 . S
C958 C961 1.499 . S
C959 H933 0.950 . S
C959 C958 1.414 . S
C959 C960 1.374 . S
C960 H934 0.950 . S
C960 C956 1.385 . S
C960 C959 1.374 . S
C961 C958 1.499 . S
C961 C962 1.373 . S
C961 C963 1.389 . S
C962 H935 0.950 . S
C962 C948 1.377 . S
C962 C961 1.373 . S
C963 C947 1.377 . S
C963 C961 1.389 . S
C963 C964 1.524 . S
C964 C963 1.524 . S
C964 C965 1.397 . S
C964 C969 1.363 . S
C965 H936 0.950 . S
C965 C964 1.397 . S
C965 C966 1.334 . S
C966 H937 0.950 . S
C966 C965 1.334 . S
C966 C967 1.287 . S
C967 C966 1.287 . S
C967 C968 1.524 . S
C967 H970 0.999 . S
C968 H938 0.950 . S
C968 C967 1.524 . S
C968 C969 1.415 . S
C969 H939 0.950 . S
C969 C964 1.363 . S
C969 C968 1.415 . S
H970 C967 0.999 . S
H971 C952 0.913 . S
H972 C990 0.951 . S
H973 C992 0.951 . S
H974 C994 0.950 . S
H975 C995 0.950 . S
H976 C997 0.950 . S
H977 C1000 0.950 . S
H978 C1001 0.950 . S
H979 C1003 0.950 . S
H980 C1004 0.950 . S
H981 C1005 0.951 . S
H982 C1007 0.951 . S
H983 C1009 0.950 . S
H984 C1010 0.950 . S
H985 C1012 0.950 . S
H986 C1015 0.950 . S
H987 C1016 0.950 . S
H988 C1018 0.950 . S
H989 C1019 0.950 . S
C990 H972 0.951 . S
C990 C991 1.366 . S
C990 C992 1.388 . S
C991 C990 1.366 . S
C991 C995 1.385 . S
C992 H973 0.951 . S
C992 C990 1.388 . S
C992 C993 1.366 . S
C993 C992 1.366 . S
C993 C994 1.414 . S
C993 C996 1.499 . S
C994 H974 0.950 . S
C994 C993 1.414 . S
C994 C995 1.374 . S
C995 H975 0.950 . S
C995 C991 1.385 . S
C995 C994 1.374 . S
C996 C993 1.499 . S
C996 C997 1.373 . S
C996 C998 1.389 . S
C997 H976 0.950 . S
C997 C996 1.373 . S
C997 C1013 1.377 . S
C998 C996 1.389 . S
C998 C999 1.524 . S
C998 C1012 1.377 . S
C999 C998 1.524 . S
C999 C1000 1.397 . S
C999 C1004 1.363 . S
C1000 H977 0.950 . S
C1000 C999 1.397 . S
C1000 C1001 1.334 . S
C1001 H978 0.950 . S
C1001 C1000 1.334 . S
C1001 C1002 1.287 . S
C1002 C1001 1.287 . S
C1002 C1003 1.524 . S
C1002 H1021 0.913 . S
C1003 H979 0.950 . S
C1003 C1002 1.524 . S
C1003 C1004 1.415 . S
C1004 H980 0.950 . S
C1004 C999 1.363 . S
C1004 C1003 1.415 . S
C1005 H981 0.951 . S
C1005 C1006 1.366 . S
C1005 C1007 1.388 . S
C1006 C1005 1.366 . S
C1006 C1010 1.385 . S
C1007 H982 0.951 . S
C1007 C1005 1.388 . S
C1007 C1008 1.366 . S
C1008 C1007 1.366 . S
C1008 C1009 1.414 . S
C1008 C1011 1.499 . S
C1009 H983 0.950 . S
C1009 C1008 1.414 . S
C1009 C1010 1.374 . S
C1010 H984 0.950 . S
C1010 C1006 1.385 . S
C1010 C1009 1.374 . S
C1011 C1008 1.499 . S
C1011 C1012 1.373 1_655 S
C1011 C1013 1.389 1_655 S
C1012 H985 0.950 . S
C1012 C998 1.377 . S
C1012 C1011 1.373 1_455 S
C1013 C997 1.377 . S
C1013 C1011 1.389 1_455 S
C1013 C1014 1.524 1_455 S
C1014 C1013 1.524 1_655 S
C1014 C1015 1.397 . S
C1014 C1019 1.363 . S
C1015 H986 0.950 . S
C1015 C1014 1.397 . S
C1015 C1016 1.334 . S
C1016 H987 0.950 . S
C1016 C1015 1.334 . S
C1016 C1017 1.287 . S
C1017 C1016 1.287 . S
C1017 C1018 1.524 . S
C1017 H1020 0.999 . S
C1018 H988 0.950 . S
C1018 C1017 1.524 . S
C1018 C1019 1.415 . S
C1019 H989 0.950 . S
C1019 C1014 1.363 . S
C1019 C1018 1.415 . S
H1020 C1017 0.999 . S
H1021 C1002 0.913 . S
H1022 C1040 0.951 . S
H1023 C1042 0.951 . S
H1024 C1044 0.950 . S
H1025 C1045 0.950 . S
H1026 C1047 0.950 . S
H1027 C1050 0.950 . S
H1028 C1051 0.950 . S
H1029 C1053 0.950 . S
H1030 C1054 0.950 . S
H1031 C1055 0.951 . S
H1032 C1057 0.951 . S
H1033 C1059 0.950 . S
H1034 C1060 0.950 . S
H1035 C1062 0.950 . S
H1036 C1065 0.950 . S
H1037 C1066 0.950 . S
H1038 C1068 0.950 . S
H1039 C1069 0.950 . S
C1040 H1022 0.951 . S
C1040 C1041 1.366 . S
C1040 C1042 1.388 . S
C1041 C1040 1.366 . S
C1041 C1045 1.385 . S
C1042 H1023 0.951 . S
C1042 C1040 1.388 . S
C1042 C1043 1.366 . S
C1043 C1042 1.366 . S
C1043 C1044 1.414 . S
C1043 C1046 1.499 . S
C1044 H1024 0.950 . S
C1044 C1043 1.414 . S
C1044 C1045 1.374 . S
C1045 H1025 0.950 . S
C1045 C1041 1.385 . S
C1045 C1044 1.374 . S
C1046 C1043 1.499 . S
C1046 C1047 1.373 . S
C1046 C1048 1.389 . S
C1047 H1026 0.950 . S
C1047 C1046 1.373 . S
C1047 C1063 1.377 . S
C1048 C1046 1.389 . S
C1048 C1049 1.524 . S
C1048 C1062 1.377 . S
C1049 C1048 1.524 . S
C1049 C1050 1.397 . S
C1049 C1054 1.363 . S
C1050 H1027 0.950 . S
C1050 C1049 1.397 . S
C1050 C1051 1.334 . S
C1051 H1028 0.950 . S
C1051 C1050 1.334 . S
C1051 C1052 1.287 . S
C1052 C1051 1.287 . S
C1052 C1053 1.524 . S
C1052 H1071 0.913 . S
C1053 H1029 0.950 . S
C1053 C1052 1.524 . S
C1053 C1054 1.415 . S
C1054 H1030 0.950 . S
C1054 C1049 1.363 . S
C1054 C1053 1.415 . S
C1055 H1031 0.951 . S
C1055 C1056 1.366 . S
C1055 C1057 1.388 . S
C1056 C1055 1.366 . S
C1056 C1060 1.385 . S
C1057 H1032 0.951 . S
C1057 C1055 1.388 . S
C1057 C1058 1.366 . S
C1058 C1057 1.366 . S
C1058 C1059 1.414 . S
C1058 C1061 1.499 . S
C1059 H1033 0.950 . S
C1059 C1058 1.414 . S
C1059 C1060 1.374 . S
C1060 H1034 0.950 . S
C1060 C1056 1.385 . S
C1060 C1059 1.374 . S
C1061 C1058 1.499 . S
C1061 C1062 1.373 . S
C1061 C1063 1.389 . S
C1062 H1035 0.950 . S
C1062 C1048 1.377 . S
C1062 C1061 1.373 . S
C1063 C1047 1.377 . S
C1063 C1061 1.389 . S
C1063 C1064 1.524 . S
C1064 C1063 1.524 . S
C1064 C1065 1.397 . S
C1064 C1069 1.363 . S
C1065 H1036 0.950 . S
C1065 C1064 1.397 . S
C1065 C1066 1.334 . S
C1066 H1037 0.950 . S
C1066 C1065 1.334 . S
C1066 C1067 1.287 . S
C1067 C1066 1.287 . S
C1067 C1068 1.524 . S
C1067 H1070 0.999 . S
C1068 H1038 0.950 . S
C1068 C1067 1.524 . S
C1068 C1069 1.415 . S
C1069 H1039 0.950 . S
C1069 C1064 1.363 . S
C1069 C1068 1.415 . S
H1070 C1067 0.999 . S
H1071 C1052 0.913 . S
H1072 C1090 0.951 . S
H1073 C1092 0.951 . S
H1074 C1094 0.950 . S
H1075 C1095 0.950 . S
H1076 C1097 0.950 . S
H1077 C1100 0.950 . S
H1078 C1101 0.950 . S
H1079 C1103 0.950 . S
H1080 C1104 0.950 . S
H1081 C1105 0.951 . S
H1082 C1107 0.951 . S
H1083 C1109 0.950 . S
H1084 C1110 0.950 . S
H1085 C1112 0.950 . S
H1086 C1115 0.950 . S
H1087 C1116 0.950 . S
H1088 C1118 0.950 . S
H1089 C1119 0.950 . S
C1090 H1072 0.951 . S
C1090 C1091 1.366 . S
C1090 C1092 1.388 . S
C1091 C1090 1.366 . S
C1091 C1095 1.385 . S
C1092 H1073 0.951 . S
C1092 C1090 1.388 . S
C1092 C1093 1.366 . S
C1093 C1092 1.366 . S
C1093 C1094 1.414 . S
C1093 C1096 1.499 . S
C1094 H1074 0.950 . S
C1094 C1093 1.414 . S
C1094 C1095 1.374 . S
C1095 H1075 0.950 . S
C1095 C1091 1.385 . S
C1095 C1094 1.374 . S
C1096 C1093 1.499 . S
C1096 C1097 1.373 . S
C1096 C1098 1.389 . S
C1097 H1076 0.950 . S
C1097 C1096 1.373 . S
C1097 C1113 1.377 1_655 S
C1098 C1096 1.389 . S
C1098 C1099 1.524 . S
C1098 C1112 1.377 1_655 S
C1099 C1098 1.524 . S
C1099 C1100 1.397 . S
C1099 C1104 1.363 1_655 S
C1100 H1077 0.950 . S
C1100 C1099 1.397 . S
C1100 C1101 1.334 . S
C1101 H1078 0.950 . S
C1101 C1100 1.334 . S
C1101 C1102 1.287 . S
C1102 C1101 1.287 . S
C1102 C1103 1.524 1_655 S
C1102 H1121 0.913 . S
C1103 H1079 0.950 . S
C1103 C1102 1.524 1_455 S
C1103 C1104 1.415 . S
C1104 H1080 0.950 . S
C1104 C1099 1.363 1_455 S
C1104 C1103 1.415 . S
C1105 H1081 0.951 . S
C1105 C1106 1.366 . S
C1105 C1107 1.388 . S
C1106 C1105 1.366 . S
C1106 C1110 1.385 . S
C1107 H1082 0.951 . S
C1107 C1105 1.388 . S
C1107 C1108 1.366 . S
C1108 C1107 1.366 . S
C1108 C1109 1.414 . S
C1108 C1111 1.499 . S
C1109 H1083 0.950 . S
C1109 C1108 1.414 . S
C1109 C1110 1.374 . S
C1110 H1084 0.950 . S
C1110 C1106 1.385 . S
C1110 C1109 1.374 . S
C1111 C1108 1.499 . S
C1111 C1112 1.373 . S
C1111 C1113 1.389 . S
C1112 H1085 0.950 . S
C1112 C1098 1.377 1_455 S
C1112 C1111 1.373 . S
C1113 C1097 1.377 1_455 S
C1113 C1111 1.389 . S
C1113 C1114 1.524 . S
C1114 C1113 1.524 . S
C1114 C1115 1.397 . S
C1114 C1119 1.363 1_455 S
C1115 H1086 0.950 . S
C1115 C1114 1.397 . S
C1115 C1116 1.334 . S
C1116 H1087 0.950 . S
C1116 C1115 1.334 . S
C1116 C1117 1.287 . S
C1117 C1116 1.287 . S
C1117 C1118 1.524 1_455 S
C1117 H1120 0.999 . S
C1118 H1088 0.950 . S
C1118 C1117 1.524 1_655 S
C1118 C1119 1.415 . S
C1119 H1089 0.950 . S
C1119 C1114 1.363 1_655 S
C1119 C1118 1.415 . S
H1120 C1117 0.999 . S
H1121 C1102 0.913 . S
H1122 C1140 0.951 . S
H1123 C1142 0.951 . S
H1124 C1144 0.950 . S
H1125 C1145 0.950 . S
H1126 C1147 0.950 . S
H1127 C1150 0.950 . S
H1128 C1151 0.950 . S
H1129 C1153 0.950 . S
H1130 C1154 0.950 . S
H1131 C1155 0.951 . S
H1132 C1157 0.951 . S
H1133 C1159 0.950 . S
H1134 C1160 0.950 . S
H1135 C1162 0.950 . S
H1136 C1165 0.950 . S
H1137 C1166 0.950 . S
H1138 C1168 0.950 . S
H1139 C1169 0.950 . S
C1140 H1122 0.951 . S
C1140 C1141 1.366 . S
C1140 C1142 1.388 . S
C1141 C1140 1.366 . S
C1141 C1145 1.385 . S
C1142 H1123 0.951 . S
C1142 C1140 1.388 . S
C1142 C1143 1.366 . S
C1143 C1142 1.366 . S
C1143 C1144 1.414 . S
C1143 C1146 1.499 . S
C1144 H1124 0.950 . S
C1144 C1143 1.414 . S
C1144 C1145 1.374 . S
C1145 H1125 0.950 . S
C1145 C1141 1.385 . S
C1145 C1144 1.374 . S
C1146 C1143 1.499 . S
C1146 C1147 1.373 . S
C1146 C1148 1.389 1_655 S
C1147 H1126 0.950 . S
C1147 C1146 1.373 . S
C1147 C1163 1.377 . S
C1148 C1146 1.389 1_455 S
C1148 C1149 1.524 . S
C1148 C1162 1.377 . S
C1149 C1148 1.524 . S
C1149 C1150 1.397 . S
C1149 C1154 1.363 . S
C1150 H1127 0.950 . S
C1150 C1149 1.397 . S
C1150 C1151 1.334 . S
C1151 H1128 0.950 . S
C1151 C1150 1.334 . S
C1151 C1152 1.287 . S
C1152 C1151 1.287 . S
C1152 C1153 1.524 . S
C1152 H1171 0.913 . S
C1153 H1129 0.950 . S
C1153 C1152 1.524 . S
C1153 C1154 1.415 . S
C1154 H1130 0.950 . S
C1154 C1149 1.363 . S
C1154 C1153 1.415 . S
C1155 H1131 0.951 . S
C1155 C1156 1.366 . S
C1155 C1157 1.388 . S
C1156 C1155 1.366 . S
C1156 C1160 1.385 . S
C1157 H1132 0.951 . S
C1157 C1155 1.388 . S
C1157 C1158 1.366 . S
C1158 C1157 1.366 . S
C1158 C1159 1.414 . S
C1158 C1161 1.499 . S
C1159 H1133 0.950 . S
C1159 C1158 1.414 . S
C1159 C1160 1.374 . S
C1160 H1134 0.950 . S
C1160 C1156 1.385 . S
C1160 C1159 1.374 . S
C1161 C1158 1.499 . S
C1161 C1162 1.373 . S
C1161 C1163 1.389 1_455 S
C1162 H1135 0.950 . S
C1162 C1148 1.377 . S
C1162 C1161 1.373 . S
C1163 C1147 1.377 . S
C1163 C1161 1.389 1_655 S
C1163 C1164 1.524 . S
C1164 C1163 1.524 . S
C1164 C1165 1.397 . S
C1164 C1169 1.363 . S
C1165 H1136 0.950 . S
C1165 C1164 1.397 . S
C1165 C1166 1.334 . S
C1166 H1137 0.950 . S
C1166 C1165 1.334 . S
C1166 C1167 1.287 . S
C1167 C1166 1.287 . S
C1167 C1168 1.524 . S
C1167 H1170 0.999 . S
C1168 H1138 0.950 . S
C1168 C1167 1.524 . S
C1168 C1169 1.415 . S
C1169 H1139 0.950 . S
C1169 C1164 1.363 . S
C1169 C1168 1.415 . S
H1170 C1167 0.999 . S
H1171 C1152 0.913 . S
H1172 C1190 0.951 . S
H1173 C1192 0.951 . S
H1174 C1194 0.950 . S
H1175 C1195 0.950 . S
H1176 C1197 0.950 . S
H1177 C1200 0.950 . S
H1178 C1201 0.950 . S
H1179 C1203 0.950 . S
H1180 C1204 0.950 . S
H1181 C1205 0.951 . S
H1182 C1207 0.951 . S
H1183 C1209 0.950 . S
H1184 C1210 0.950 . S
H1185 C1212 0.950 . S
H1186 C1215 0.950 . S
H1187 C1216 0.950 . S
H1188 C1218 0.950 . S
H1189 C1219 0.950 . S
C1190 H1172 0.951 . S
C1190 C1191 1.366 . S
C1190 C1192 1.388 . S
C1191 C1190 1.366 . S
C1191 C1195 1.385 . S
C1192 H1173 0.951 . S
C1192 C1190 1.388 . S
C1192 C1193 1.366 . S
C1193 C1192 1.366 . S
C1193 C1194 1.414 . S
C1193 C1196 1.499 . S
C1194 H1174 0.950 . S
C1194 C1193 1.414 . S
C1194 C1195 1.374 . S
C1195 H1175 0.950 . S
C1195 C1191 1.385 . S
C1195 C1194 1.374 . S
C1196 C1193 1.499 . S
C1196 C1197 1.373 1_545 S
C1196 C1198 1.389 . S
C1197 H1176 0.950 . S
C1197 C1196 1.373 1_565 S
C1197 C1213 1.377 . S
C1198 C1196 1.389 . S
C1198 C1199 1.524 . S
C1198 C1212 1.377 . S
C1199 C1198 1.524 . S
C1199 C1200 1.397 . S
C1199 C1204 1.363 . S
C1200 H1177 0.950 . S
C1200 C1199 1.397 . S
C1200 C1201 1.334 . S
C1201 H1178 0.950 . S
C1201 C1200 1.334 . S
C1201 C1202 1.287 . S
C1202 C1201 1.287 . S
C1202 C1203 1.524 . S
C1202 H1221 0.913 . S
C1203 H1179 0.950 . S
C1203 C1202 1.524 . S
C1203 C1204 1.415 . S
C1204 H1180 0.950 . S
C1204 C1199 1.363 . S
C1204 C1203 1.415 . S
C1205 H1181 0.951 . S
C1205 C1206 1.366 . S
C1205 C1207 1.388 . S
C1206 C1205 1.366 . S
C1206 C1210 1.385 . S
C1207 H1182 0.951 . S
C1207 C1205 1.388 . S
C1207 C1208 1.366 . S
C1208 C1207 1.366 . S
C1208 C1209 1.414 . S
C1208 C1211 1.499 . S
C1209 H1183 0.950 . S
C1209 C1208 1.414 . S
C1209 C1210 1.374 . S
C1210 H1184 0.950 . S
C1210 C1206 1.385 . S
C1210 C1209 1.374 . S
C1211 C1208 1.499 . S
C1211 C1212 1.373 1_565 S
C1211 C1213 1.389 . S
C1212 H1185 0.950 . S
C1212 C1198 1.377 . S
C1212 C1211 1.373 1_545 S
C1213 C1197 1.377 . S
C1213 C1211 1.389 . S
C1213 C1214 1.524 . S
C1214 C1213 1.524 . S
C1214 C1215 1.397 . S
C1214 C1219 1.363 . S
C1215 H1186 0.950 . S
C1215 C1214 1.397 . S
C1215 C1216 1.334 . S
C1216 H1187 0.950 . S
C1216 C1215 1.334 . S
C1216 C1217 1.287 . S
C1217 C1216 1.287 . S
C1217 C1218 1.524 . S
C1217 H1220 0.999 . S
C1218 H1188 0.950 . S
C1218 C1217 1.524 . S
C1218 C1219 1.415 . S
C1219 H1189 0.950 . S
C1219 C1214 1.363 . S
C1219 C1218 1.415 . S
H1220 C1217 0.999 . S
H1221 C1202 0.913 . S
H1222 C1240 0.951 . S
H1223 C1242 0.951 . S
H1224 C1244 0.950 . S
H1225 C1245 0.950 . S
H1226 C1247 0.950 . S
H1227 C1250 0.950 . S
H1228 C1251 0.950 . S
H1229 C1253 0.950 . S
H1230 C1254 0.950 . S
H1231 C1255 0.951 . S
H1232 C1257 0.951 . S
H1233 C1259 0.950 . S
H1234 C1260 0.950 . S
H1235 C1262 0.950 . S
H1236 C1265 0.950 . S
H1237 C1266 0.950 . S
H1238 C1268 0.950 . S
H1239 C1269 0.950 . S
C1240 H1222 0.951 . S
C1240 C1241 1.366 . S
C1240 C1242 1.388 . S
C1241 C1240 1.366 . S
C1241 C1245 1.385 . S
C1242 H1223 0.951 . S
C1242 C1240 1.388 . S
C1242 C1243 1.366 . S
C1243 C1242 1.366 . S
C1243 C1244 1.414 . S
C1243 C1246 1.499 . S
C1244 H1224 0.950 . S
C1244 C1243 1.414 . S
C1244 C1245 1.374 . S
C1245 H1225 0.950 . S
C1245 C1241 1.385 . S
C1245 C1244 1.374 . S
C1246 C1243 1.499 . S
C1246 C1247 1.373 . S
C1246 C1248 1.389 . S
C1247 H1226 0.950 . S
C1247 C1246 1.373 . S
C1247 C1263 1.377 1_545 S
C1248 C1246 1.389 . S
C1248 C1249 1.524 . S
C1248 C1262 1.377 1_545 S
C1249 C1248 1.524 . S
C1249 C1250 1.397 . S
C1249 C1254 1.363 . S
C1250 H1227 0.950 . S
C1250 C1249 1.397 . S
C1250 C1251 1.334 . S
C1251 H1228 0.950 . S
C1251 C1250 1.334 . S
C1251 C1252 1.287 . S
C1252 C1251 1.287 . S
C1252 C1253 1.524 . S
C1252 H1271 0.913 . S
C1253 H1229 0.950 . S
C1253 C1252 1.524 . S
C1253 C1254 1.415 . S
C1254 H1230 0.950 . S
C1254 C1249 1.363 . S
C1254 C1253 1.415 . S
C1255 H1231 0.951 . S
C1255 C1256 1.366 . S
C1255 C1257 1.388 . S
C1256 C1255 1.366 . S
C1256 C1260 1.385 . S
C1257 H1232 0.951 . S
C1257 C1255 1.388 . S
C1257 C1258 1.366 . S
C1258 C1257 1.366 . S
C1258 C1259 1.414 . S
C1258 C1261 1.499 . S
C1259 H1233 0.950 . S
C1259 C1258 1.414 . S
C1259 C1260 1.374 . S
C1260 H1234 0.950 . S
C1260 C1256 1.385 . S
C1260 C1259 1.374 . S
C1261 C1258 1.499 . S
C1261 C1262 1.373 . S
C1261 C1263 1.389 . S
C1262 H1235 0.950 . S
C1262 C1248 1.377 1_565 S
C1262 C1261 1.373 . S
C1263 C1247 1.377 1_565 S
C1263 C1261 1.389 . S
C1263 C1264 1.524 . S
C1264 C1263 1.524 . S
C1264 C1265 1.397 . S
C1264 C1269 1.363 . S
C1265 H1236 0.950 . S
C1265 C1264 1.397 . S
C1265 C1266 1.334 . S
C1266 H1237 0.950 . S
C1266 C1265 1.334 . S
C1266 C1267 1.287 . S
C1267 C1266 1.287 . S
C1267 C1268 1.524 . S
C1267 H1270 0.999 . S
C1268 H1238 0.950 . S
C1268 C1267 1.524 . S
C1268 C1269 1.415 . S
C1269 H1239 0.950 . S
C1269 C1264 1.363 . S
C1269 C1268 1.415 . S
H1270 C1267 0.999 . S
H1271 C1252 0.913 . S
C491 C3 1.462 . S
C506 C298 1.462 . S
C541 C62 1.462 . S
C556 C357 1.462 . S
C591 C121 1.462 . S
C606 C416 1.462 . S
C641 C239 1.462 . S
C656 C180 1.462 . S
C691 C5 1.683 . S
C706 C269 1.676 . S
C741 C64 1.683 . S
C756 C328 1.676 . S
C791 C387 1.676 . S
C806 C123 1.683 . S
C841 C182 1.683 . S
C856 C446 1.676 . S
C891 C241 1.683 . S
C906 C33 1.676 . S
C941 C92 1.676 . S
C956 C300 1.683 . S
C991 C359 1.683 . S
C1006 C151 1.676 . S
C1041 C210 1.676 . S
C1056 C418 1.683 . S
C1091 C170 0.577 . S
C1106 C52 0.578 . S
C1141 C229 0.576 . S
C1156 C111 0.576 . S
C1191 C288 0.578 . S
C1206 C406 0.578 . S
C1241 C347 0.576 . S
C1256 C465 0.577 . S
