# Generated by pormake.
# Topology pyc, (8)-cn, num edge types: 1
# Building blocks:
#     Node 0, Type 0, BuildingBlock: VETTIZ_charged_sbu_0, # of connection points: 8
#     Node 1, Type 0, BuildingBlock: VETTIZ_charged_sbu_0, # of connection points: 8
#     Node 2, Type 0, BuildingBlock: VETTIZ_charged_sbu_0, # of connection points: 8
#     Node 3, Type 0, BuildingBlock: VETTIZ_charged_sbu_0, # of connection points: 8
#     Node 4, Type 0, BuildingBlock: VETTIZ_charged_sbu_0, # of connection points: 8
#     Node 5, Type 0, BuildingBlock: VETTIZ_charged_sbu_0, # of connection points: 8
#     Node 6, Type 0, BuildingBlock: VETTIZ_charged_sbu_0, # of connection points: 8
#     Node 7, Type 0, BuildingBlock: VETTIZ_charged_sbu_0, # of connection points: 8
#     Node 8, Type 0, BuildingBlock: VETTIZ_charged_sbu_0, # of connection points: 8
#     Node 9, Type 0, BuildingBlock: VETTIZ_charged_sbu_0, # of connection points: 8
#     Node 10, Type 0, BuildingBlock: VETTIZ_charged_sbu_0, # of connection points: 8
#     Node 11, Type 0, BuildingBlock: VETTIZ_charged_sbu_0, # of connection points: 8
#     Node 12, Type 0, BuildingBlock: VETTIZ_charged_sbu_0, # of connection points: 8
#     Node 13, Type 0, BuildingBlock: VETTIZ_charged_sbu_0, # of connection points: 8
#     Node 14, Type 0, BuildingBlock: VETTIZ_charged_sbu_0, # of connection points: 8
#     Node 15, Type 0, BuildingBlock: VETTIZ_charged_sbu_0, # of connection points: 8
#     Node 16, Type 0, BuildingBlock: VETTIZ_charged_sbu_0, # of connection points: 8
#     Node 17, Type 0, BuildingBlock: VETTIZ_charged_sbu_0, # of connection points: 8
#     Node 18, Type 0, BuildingBlock: VETTIZ_charged_sbu_0, # of connection points: 8
#     Node 19, Type 0, BuildingBlock: VETTIZ_charged_sbu_0, # of connection points: 8
#     Node 20, Type 0, BuildingBlock: VETTIZ_charged_sbu_0, # of connection points: 8
#     Node 21, Type 0, BuildingBlock: VETTIZ_charged_sbu_0, # of connection points: 8
#     Node 22, Type 0, BuildingBlock: VETTIZ_charged_sbu_0, # of connection points: 8
#     Node 23, Type 0, BuildingBlock: VETTIZ_charged_sbu_0, # of connection points: 8
#     Node 24, Type 0, BuildingBlock: VETTIZ_charged_sbu_0, # of connection points: 8
#     Node 25, Type 0, BuildingBlock: VETTIZ_charged_sbu_0, # of connection points: 8
#     Node 26, Type 0, BuildingBlock: VETTIZ_charged_sbu_0, # of connection points: 8
#     Node 27, Type 0, BuildingBlock: VETTIZ_charged_sbu_0, # of connection points: 8
#     Node 28, Type 0, BuildingBlock: VETTIZ_charged_sbu_0, # of connection points: 8
#     Node 29, Type 0, BuildingBlock: VETTIZ_charged_sbu_0, # of connection points: 8
#     Node 30, Type 0, BuildingBlock: VETTIZ_charged_sbu_0, # of connection points: 8
#     Node 31, Type 0, BuildingBlock: VETTIZ_charged_sbu_0, # of connection points: 8
#     Node 32, Type 0, BuildingBlock: VETTIZ_charged_sbu_0, # of connection points: 8
#     Node 33, Type 0, BuildingBlock: VETTIZ_charged_sbu_0, # of connection points: 8
#     Node 34, Type 0, BuildingBlock: VETTIZ_charged_sbu_0, # of connection points: 8
#     Node 35, Type 0, BuildingBlock: VETTIZ_charged_sbu_0, # of connection points: 8
#     Node 36, Type 0, BuildingBlock: VETTIZ_charged_sbu_0, # of connection points: 8
#     Node 37, Type 0, BuildingBlock: VETTIZ_charged_sbu_0, # of connection points: 8
#     Node 38, Type 0, BuildingBlock: VETTIZ_charged_sbu_0, # of connection points: 8
#     Node 39, Type 0, BuildingBlock: VETTIZ_charged_sbu_0, # of connection points: 8
#     Node 40, Type 0, BuildingBlock: VETTIZ_charged_sbu_0, # of connection points: 8
#     Node 41, Type 0, BuildingBlock: VETTIZ_charged_sbu_0, # of connection points: 8
#     Node 42, Type 0, BuildingBlock: VETTIZ_charged_sbu_0, # of connection points: 8
#     Node 43, Type 0, BuildingBlock: VETTIZ_charged_sbu_0, # of connection points: 8
#     Node 44, Type 0, BuildingBlock: VETTIZ_charged_sbu_0, # of connection points: 8
#     Node 45, Type 0, BuildingBlock: VETTIZ_charged_sbu_0, # of connection points: 8
#     Node 46, Type 0, BuildingBlock: VETTIZ_charged_sbu_0, # of connection points: 8
#     Node 47, Type 0, BuildingBlock: VETTIZ_charged_sbu_0, # of connection points: 8
#     Edge 48, Type (0, 0), None
#     Edge 49, Type (0, 0), None
#     Edge 50, Type (0, 0), None
#     Edge 51, Type (0, 0), None
#     Edge 52, Type (0, 0), None
#     Edge 53, Type (0, 0), None
#     Edge 54, Type (0, 0), None
#     Edge 55, Type (0, 0), None
#     Edge 56, Type (0, 0), None
#     Edge 57, Type (0, 0), None
#     Edge 58, Type (0, 0), None
#     Edge 59, Type (0, 0), None
#     Edge 60, Type (0, 0), None
#     Edge 61, Type (0, 0), None
#     Edge 62, Type (0, 0), None
#     Edge 63, Type (0, 0), None
#     Edge 64, Type (0, 0), None
#     Edge 65, Type (0, 0), None
#     Edge 66, Type (0, 0), None
#     Edge 67, Type (0, 0), None
#     Edge 68, Type (0, 0), None
#     Edge 69, Type (0, 0), None
#     Edge 70, Type (0, 0), None
#     Edge 71, Type (0, 0), None
#     Edge 72, Type (0, 0), None
#     Edge 73, Type (0, 0), None
#     Edge 74, Type (0, 0), None
#     Edge 75, Type (0, 0), None
#     Edge 76, Type (0, 0), None
#     Edge 77, Type (0, 0), None
#     Edge 78, Type (0, 0), None
#     Edge 79, Type (0, 0), None
#     Edge 80, Type (0, 0), None
#     Edge 81, Type (0, 0), None
#     Edge 82, Type (0, 0), None
#     Edge 83, Type (0, 0), None
#     Edge 84, Type (0, 0), None
#     Edge 85, Type (0, 0), None
#     Edge 86, Type (0, 0), None
#     Edge 87, Type (0, 0), None
#     Edge 88, Type (0, 0), None
#     Edge 89, Type (0, 0), None
#     Edge 90, Type (0, 0), None
#     Edge 91, Type (0, 0), None
#     Edge 92, Type (0, 0), None
#     Edge 93, Type (0, 0), None
#     Edge 94, Type (0, 0), None
#     Edge 95, Type (0, 0), None
#     Edge 96, Type (0, 0), None
#     Edge 97, Type (0, 0), None
#     Edge 98, Type (0, 0), None
#     Edge 99, Type (0, 0), None
#     Edge 100, Type (0, 0), None
#     Edge 101, Type (0, 0), None
#     Edge 102, Type (0, 0), None
#     Edge 103, Type (0, 0), None
#     Edge 104, Type (0, 0), None
#     Edge 105, Type (0, 0), None
#     Edge 106, Type (0, 0), None
#     Edge 107, Type (0, 0), None
#     Edge 108, Type (0, 0), None
#     Edge 109, Type (0, 0), None
#     Edge 110, Type (0, 0), None
#     Edge 111, Type (0, 0), None
#     Edge 112, Type (0, 0), None
#     Edge 113, Type (0, 0), None
#     Edge 114, Type (0, 0), None
#     Edge 115, Type (0, 0), None
#     Edge 116, Type (0, 0), None
#     Edge 117, Type (0, 0), None
#     Edge 118, Type (0, 0), None
#     Edge 119, Type (0, 0), None
#     Edge 120, Type (0, 0), None
#     Edge 121, Type (0, 0), None
#     Edge 122, Type (0, 0), None
#     Edge 123, Type (0, 0), None
#     Edge 124, Type (0, 0), None
#     Edge 125, Type (0, 0), None
#     Edge 126, Type (0, 0), None
#     Edge 127, Type (0, 0), None
#     Edge 128, Type (0, 0), None
#     Edge 129, Type (0, 0), None
#     Edge 130, Type (0, 0), None
#     Edge 131, Type (0, 0), None
#     Edge 132, Type (0, 0), None
#     Edge 133, Type (0, 0), None
#     Edge 134, Type (0, 0), None
#     Edge 135, Type (0, 0), None
#     Edge 136, Type (0, 0), None
#     Edge 137, Type (0, 0), None
#     Edge 138, Type (0, 0), None
#     Edge 139, Type (0, 0), None
#     Edge 140, Type (0, 0), None
#     Edge 141, Type (0, 0), None
#     Edge 142, Type (0, 0), None
#     Edge 143, Type (0, 0), None
#     Edge 144, Type (0, 0), None
#     Edge 145, Type (0, 0), None
#     Edge 146, Type (0, 0), None
#     Edge 147, Type (0, 0), None
#     Edge 148, Type (0, 0), None
#     Edge 149, Type (0, 0), None
#     Edge 150, Type (0, 0), None
#     Edge 151, Type (0, 0), None
#     Edge 152, Type (0, 0), None
#     Edge 153, Type (0, 0), None
#     Edge 154, Type (0, 0), None
#     Edge 155, Type (0, 0), None
#     Edge 156, Type (0, 0), None
#     Edge 157, Type (0, 0), None
#     Edge 158, Type (0, 0), None
#     Edge 159, Type (0, 0), None
#     Edge 160, Type (0, 0), None
#     Edge 161, Type (0, 0), None
#     Edge 162, Type (0, 0), None
#     Edge 163, Type (0, 0), None
#     Edge 164, Type (0, 0), None
#     Edge 165, Type (0, 0), None
#     Edge 166, Type (0, 0), None
#     Edge 167, Type (0, 0), None
#     Edge 168, Type (0, 0), None
#     Edge 169, Type (0, 0), None
#     Edge 170, Type (0, 0), None
#     Edge 171, Type (0, 0), None
#     Edge 172, Type (0, 0), None
#     Edge 173, Type (0, 0), None
#     Edge 174, Type (0, 0), None
#     Edge 175, Type (0, 0), None
#     Edge 176, Type (0, 0), None
#     Edge 177, Type (0, 0), None
#     Edge 178, Type (0, 0), None
#     Edge 179, Type (0, 0), None
#     Edge 180, Type (0, 0), None
#     Edge 181, Type (0, 0), None
#     Edge 182, Type (0, 0), None
#     Edge 183, Type (0, 0), None
#     Edge 184, Type (0, 0), None
#     Edge 185, Type (0, 0), None
#     Edge 186, Type (0, 0), None
#     Edge 187, Type (0, 0), None
#     Edge 188, Type (0, 0), None
#     Edge 189, Type (0, 0), None
#     Edge 190, Type (0, 0), None
#     Edge 191, Type (0, 0), None
#     Edge 192, Type (0, 0), None
#     Edge 193, Type (0, 0), None
#     Edge 194, Type (0, 0), None
#     Edge 195, Type (0, 0), None
#     Edge 196, Type (0, 0), None
#     Edge 197, Type (0, 0), None
#     Edge 198, Type (0, 0), None
#     Edge 199, Type (0, 0), None
#     Edge 200, Type (0, 0), None
#     Edge 201, Type (0, 0), None
#     Edge 202, Type (0, 0), None
#     Edge 203, Type (0, 0), None
#     Edge 204, Type (0, 0), None
#     Edge 205, Type (0, 0), None
#     Edge 206, Type (0, 0), None
#     Edge 207, Type (0, 0), None
#     Edge 208, Type (0, 0), None
#     Edge 209, Type (0, 0), None
#     Edge 210, Type (0, 0), None
#     Edge 211, Type (0, 0), None
#     Edge 212, Type (0, 0), None
#     Edge 213, Type (0, 0), None
#     Edge 214, Type (0, 0), None
#     Edge 215, Type (0, 0), None
#     Edge 216, Type (0, 0), None
#     Edge 217, Type (0, 0), None
#     Edge 218, Type (0, 0), None
#     Edge 219, Type (0, 0), None
#     Edge 220, Type (0, 0), None
#     Edge 221, Type (0, 0), None
#     Edge 222, Type (0, 0), None
#     Edge 223, Type (0, 0), None
#     Edge 224, Type (0, 0), None
#     Edge 225, Type (0, 0), None
#     Edge 226, Type (0, 0), None
#     Edge 227, Type (0, 0), None
#     Edge 228, Type (0, 0), None
#     Edge 229, Type (0, 0), None
#     Edge 230, Type (0, 0), None
#     Edge 231, Type (0, 0), None
#     Edge 232, Type (0, 0), None
#     Edge 233, Type (0, 0), None
#     Edge 234, Type (0, 0), None
#     Edge 235, Type (0, 0), None
#     Edge 236, Type (0, 0), None
#     Edge 237, Type (0, 0), None
#     Edge 238, Type (0, 0), None
#     Edge 239, Type (0, 0), None
# Relax obj value: 0.293
# Max RMSD: 0.164
# Mean RMSD: 0.164
data_MOF--net-pyc--node1-VETTIZ_charged_sbu_0--edge1-none
_symmetry_space_group_name_H-M    P1
_symmetry_Int_Tables_number       1
_symmetry_cell_setting            triclinic
loop_
_symmetry_equiv_pos_as_xyz
'x, y, z'
_cell_length_a     31.886978
_cell_length_b     31.657742
_cell_length_c     31.991918
_cell_angle_alpha  90.138623
_cell_angle_beta   90.543613
_cell_angle_gamma 90.075571
loop_
_atom_site_label
_atom_site_type_symbol
_atom_site_fract_x
_atom_site_fract_y
_atom_site_fract_z
_atom_type_partial_charge
Fe0 Fe 0.19394 0.20148 0.40533 0.0
O1 O 0.13612 0.16797 0.3974 0.0
Fe2 Fe 0.17109 0.08515 0.43093 0.0
Fe3 Fe 0.07992 0.17641 0.43171 0.0
O4 O 0.16147 0.14375 0.40028 0.0
O5 O 0.1094 0.10602 0.43349 0.0
O6 O 0.10112 0.11339 0.43311 0.0
Fe7 Fe 0.06122 0.06733 0.41729 0.0
C8 C 0.13757 0.22509 0.48267 0.0
O9 O 0.16658 0.23536 0.35634 0.0
O10 O 0.11859 0.20122 0.38359 0.0
O11 O 0.0931 0.03984 0.36902 0.0
O12 O 0.16037 0.04845 0.37751 0.0
O13 O 0.19781 0.12745 0.38763 0.0
O14 O 0.2226 0.17813 0.35455 0.0
O15 O 0.03394 0.16934 0.38538 0.0
O16 O 0.04563 0.10491 0.36774 0.0
C17 C 0.22672 0.14028 0.36222 0.0
O18 O 0.08425 0.0285 0.46431 0.0
O19 O 0.15503 0.03572 0.47045 0.0
O20 O 0.16482 0.23227 0.45486 0.0
O21 O 0.11689 0.1911 0.4822 0.0
C22 C 0.12873 0.23601 0.36441 0.0
C23 C 0.02151 0.13597 0.36734 0.0
C24 C 0.01662 0.1277 0.48229 0.0
O25 O 0.03452 0.16279 0.47411 0.0
O26 O 0.0237 0.09313 0.4629 0.0
C27 C 0.12952 0.0256 0.36558 0.0
O28 O 0.18991 0.11799 0.48523 0.0
O29 O 0.22809 0.16903 0.45598 0.0
C30 C 0.11976 0.01941 0.48132 0.0
C31 C 0.22138 0.14302 0.48684 0.0
Fe32 Fe 0.94742 0.30692 0.65543 0.0
O33 O 0.91431 0.36633 0.64989 0.0
Fe34 Fe 0.83375 0.32913 0.6842 0.0
Fe35 Fe 0.92168 0.42247 0.686 0.0
O36 O 0.89016 0.33921 0.65149 0.0
O37 O 0.85304 0.39192 0.68667 0.0
O38 O 0.85991 0.39987 0.68598 0.0
Fe39 Fe 0.81392 0.4389 0.66826 0.0
C40 C 0.97287 0.36462 0.73253 0.0
O41 O 0.97637 0.33316 0.60422 0.0
O42 O 0.94669 0.38344 0.63538 0.0
O43 O 0.78957 0.40395 0.61946 0.0
O44 O 0.79487 0.33704 0.63199 0.0
O45 O 0.87511 0.30549 0.63858 0.0
O46 O 0.92116 0.27141 0.60776 0.0
O47 O 0.91475 0.46941 0.64014 0.0
O48 O 0.85242 0.45536 0.61876 0.0
C49 C 0.88377 0.2716 0.61739 0.0
O50 O 0.77523 0.41552 0.71436 0.0
O51 O 0.78611 0.34523 0.72528 0.0
O52 O 0.97974 0.33949 0.70255 0.0
O53 O 0.93839 0.38413 0.73484 0.0
C54 C 0.97912 0.37127 0.61319 0.0
C55 C 0.8831 0.48035 0.61858 0.0
C56 C 0.86789 0.4846 0.73954 0.0
O57 O 0.90391 0.46723 0.73237 0.0
O58 O 0.83574 0.47821 0.7161 0.0
C59 C 0.77317 0.3679 0.61863 0.0
O60 O 0.86824 0.30961 0.738 0.0
O61 O 0.92042 0.27508 0.70856 0.0
C62 C 0.76888 0.38092 0.73433 0.0
C63 C 0.89487 0.27926 0.73894 0.0
Fe64 Fe 0.69394 0.20148 0.90535 0.0
O65 O 0.63612 0.16797 0.89743 0.0
Fe66 Fe 0.67109 0.08517 0.93098 0.0
Fe67 Fe 0.57992 0.17642 0.93173 0.0
O68 O 0.66148 0.14376 0.90031 0.0
O69 O 0.6094 0.10604 0.93352 0.0
O70 O 0.60111 0.11341 0.93314 0.0
Fe71 Fe 0.56121 0.06735 0.91732 0.0
C72 C 0.63756 0.2251 0.98269 0.0
O73 O 0.66657 0.23534 0.85634 0.0
O74 O 0.61859 0.2012 0.8836 0.0
O75 O 0.5931 0.03984 0.86907 0.0
O76 O 0.66037 0.04847 0.87756 0.0
O77 O 0.69782 0.12745 0.88768 0.0
O78 O 0.72262 0.17812 0.85458 0.0
O79 O 0.53395 0.16936 0.8854 0.0
O80 O 0.54565 0.10494 0.86776 0.0
C81 C 0.72674 0.14027 0.86227 0.0
O82 O 0.58423 0.02854 0.96434 0.0
O83 O 0.65501 0.03575 0.97049 0.0
O84 O 0.6648 0.23228 0.95487 0.0
O85 O 0.61689 0.19111 0.98222 0.0
C86 C 0.62872 0.23599 0.86441 0.0
C87 C 0.52153 0.13599 0.86735 0.0
C88 C 0.51661 0.12773 0.98232 0.0
O89 O 0.53451 0.16282 0.97413 0.0
O90 O 0.52369 0.09316 0.96292 0.0
C91 C 0.62953 0.02561 0.86563 0.0
O92 O 0.68992 0.11802 0.98527 0.0
O93 O 0.72809 0.16905 0.956 0.0
C94 C 0.61973 0.01945 0.98135 0.0
C95 C 0.72138 0.14305 0.98687 0.0
Fe96 Fe 0.9474 0.80693 0.15541 0.0
O97 O 0.91429 0.86633 0.14988 0.0
Fe98 Fe 0.83374 0.82912 0.1842 0.0
Fe99 Fe 0.92165 0.92247 0.186 0.0
O100 O 0.89014 0.83922 0.15147 0.0
O101 O 0.85302 0.89192 0.18667 0.0
O102 O 0.85989 0.89986 0.18597 0.0
Fe103 Fe 0.8139 0.93889 0.16825 0.0
C104 C 0.97282 0.8646 0.23253 0.0
O105 O 0.97635 0.83317 0.1042 0.0
O106 O 0.94667 0.88344 0.13538 0.0
O107 O 0.78957 0.90393 0.11945 0.0
O108 O 0.79485 0.83702 0.13199 0.0
O109 O 0.87509 0.80549 0.13857 0.0
O110 O 0.92114 0.77142 0.10774 0.0
O111 O 0.91472 0.96942 0.14014 0.0
O112 O 0.85239 0.95536 0.11876 0.0
C113 C 0.88375 0.7716 0.11738 0.0
O114 O 0.77522 0.91551 0.21436 0.0
O115 O 0.78611 0.84522 0.22528 0.0
O116 O 0.97971 0.83949 0.20254 0.0
O117 O 0.93835 0.88412 0.23484 0.0
C118 C 0.9791 0.87128 0.11319 0.0
C119 C 0.88307 0.98035 0.11858 0.0
C120 C 0.86785 0.98459 0.23954 0.0
O121 O 0.90387 0.96722 0.23237 0.0
O122 O 0.83571 0.9782 0.2161 0.0
C123 C 0.77316 0.86789 0.11863 0.0
O124 O 0.86824 0.80961 0.238 0.0
O125 O 0.92041 0.77508 0.20855 0.0
C126 C 0.76888 0.8809 0.23434 0.0
C127 C 0.89487 0.77926 0.23894 0.0
Fe128 Fe 0.08644 0.08946 0.80836 0.0
O129 O 0.13954 0.09996 0.83788 0.0
Fe130 Fe 0.05878 0.19655 0.80958 0.0
Fe131 Fe 0.18666 0.06115 0.83796 0.0
O132 O 0.09869 0.15107 0.79381 0.0
O133 O 0.10587 0.15624 0.79887 0.0
O134 O 0.15406 0.11945 0.83831 0.0
Fe135 Fe 0.16767 0.17651 0.8036 0.0
C136 C 0.11195 0.01794 0.86791 0.0
O137 O 0.11601 0.06307 0.75329 0.0
O138 O 0.16074 0.02418 0.78902 0.0
O139 O 0.15282 0.21984 0.75673 0.0
O140 O 0.08469 0.23464 0.76906 0.0
O141 O 0.0252 0.16886 0.76351 0.0
O142 O 0.02997 0.09627 0.7705 0.0
O143 O 0.22337 0.08953 0.79124 0.0
O144 O 0.18546 0.13718 0.75748 0.0
C145 C 0.01521 0.13108 0.75281 0.0
O146 O 0.15609 0.22203 0.84774 0.0
O147 O 0.08879 0.21805 0.8608 0.0
O148 O 0.08809 0.02818 0.83559 0.0
O149 O 0.14371 0.03972 0.87926 0.0
C150 C 0.13984 0.02996 0.75547 0.0
C151 C 0.21938 0.11756 0.76261 0.0
C152 C 0.22514 0.12767 0.87654 0.0
O153 O 0.21929 0.09004 0.88716 0.0
O154 O 0.19372 0.14165 0.85495 0.0
C155 C 0.1181 0.23901 0.74889 0.0
O156 O 0.03128 0.16479 0.85168 0.0
O157 O 0.05217 0.10158 0.86331 0.0
C158 C 0.12418 0.23335 0.86797 0.0
C159 C 0.03013 0.13318 0.87346 0.0
Fe160 Fe 0.923 0.33717 0.05939 0.0
O161 O 0.9012 0.39597 0.04442 0.0
Fe162 Fe 0.81129 0.30884 0.08387 0.0
Fe163 Fe 0.9385 0.44573 0.05754 0.0
O164 O 0.86238 0.34908 0.08357 0.0
O165 O 0.85168 0.35469 0.08591 0.0
O166 O 0.89637 0.40298 0.04029 0.0
Fe167 Fe 0.83496 0.40921 0.0578 0.0
C168 C 0.98227 0.38466 0.11301 0.0
O169 O 0.97127 0.36097 0.01646 0.0
O170 O 0.96555 0.43208 0.00322 0.0
O171 O 0.8124 0.37981 0.00205 0.0
O172 O 0.77413 0.33352 0.03486 0.0
O173 O 0.8427 0.27279 0.03898 0.0
O174 O 0.89675 0.30616 0.00851 0.0
O175 O 0.89694 0.48396 0.0307 0.0
O176 O 0.82837 0.465 0.02541 0.0
C177 C 0.87258 0.27404 0.01239 0.0
O178 O 0.77465 0.40546 0.08301 0.0
O179 O 0.78361 0.34827 0.12466 0.0
O180 O 0.95378 0.3571 0.11393 0.0
O181 O 0.98277 0.40882 0.08241 0.0
C182 C 0.98052 0.39539 0.99541 0.0
C183 C 0.85948 0.48978 0.01804 0.0
C184 C 0.87826 0.46879 0.12343 0.0
O185 O 0.91413 0.45447 0.11571 0.0
O186 O 0.84635 0.44887 0.10954 0.0
C187 C 0.77947 0.35665 0.00299 0.0
O188 O 0.84176 0.28074 0.13246 0.0
O189 O 0.89978 0.28947 0.09751 0.0
C190 C 0.76393 0.3817 0.11422 0.0
C191 C 0.87785 0.26781 0.12301 0.0
Fe192 Fe 0.66766 0.17651 0.30358 0.0
O193 O 0.60586 0.15626 0.29888 0.0
Fe194 Fe 0.68663 0.06117 0.33797 0.0
Fe195 Fe 0.5588 0.19658 0.30963 0.0
O196 O 0.65405 0.11947 0.33833 0.0
O197 O 0.63951 0.09997 0.33791 0.0
O198 O 0.59867 0.15109 0.29383 0.0
Fe199 Fe 0.58642 0.08949 0.30837 0.0
C200 C 0.62423 0.23335 0.36798 0.0
O201 O 0.6528 0.21982 0.25669 0.0
O202 O 0.5847 0.23469 0.26911 0.0
O203 O 0.61601 0.06313 0.2533 0.0
O204 O 0.6607 0.0242 0.28905 0.0
O205 O 0.72333 0.08953 0.29124 0.0
O206 O 0.6854 0.13716 0.25747 0.0
O207 O 0.52518 0.16891 0.26356 0.0
O208 O 0.52996 0.09631 0.27051 0.0
C209 C 0.71932 0.11755 0.2626 0.0
O210 O 0.58807 0.0282 0.33559 0.0
O211 O 0.64368 0.03973 0.37927 0.0
O212 O 0.65612 0.22206 0.34769 0.0
O213 O 0.58885 0.21799 0.36088 0.0
C214 C 0.61809 0.23902 0.2489 0.0
C215 C 0.5152 0.13113 0.25284 0.0
C216 C 0.53012 0.13319 0.37349 0.0
O217 O 0.53129 0.16482 0.35173 0.0
O218 O 0.55213 0.10159 0.36331 0.0
C219 C 0.63983 0.03002 0.25549 0.0
O220 O 0.71928 0.09005 0.38715 0.0
O221 O 0.69372 0.14167 0.35493 0.0
C222 C 0.61192 0.01795 0.36791 0.0
C223 C 0.72514 0.12768 0.37652 0.0
Fe224 Fe 0.92497 0.83555 0.55882 0.0
O225 O 0.90087 0.89472 0.54579 0.0
Fe226 Fe 0.81096 0.80869 0.58408 0.0
Fe227 Fe 0.93835 0.94532 0.55769 0.0
O228 O 0.86345 0.84804 0.58351 0.0
O229 O 0.85081 0.85513 0.58639 0.0
O230 O 0.89627 0.90257 0.54067 0.0
Fe231 Fe 0.83478 0.90926 0.55791 0.0
C232 C 0.98254 0.88428 0.6131 0.0
O233 O 0.97172 0.86078 0.51596 0.0
O234 O 0.96541 0.93179 0.5033 0.0
O235 O 0.81237 0.87982 0.50214 0.0
O236 O 0.77411 0.83357 0.53493 0.0
O237 O 0.84249 0.7728 0.53888 0.0
O238 O 0.8973 0.80538 0.50842 0.0
O239 O 0.89691 0.9836 0.53065 0.0
O240 O 0.82834 0.96496 0.52536 0.0
C241 C 0.8725 0.77376 0.51233 0.0
O242 O 0.7745 0.90559 0.58304 0.0
O243 O 0.78354 0.84839 0.62476 0.0
O244 O 0.955 0.85585 0.61341 0.0
O245 O 0.98276 0.90868 0.58266 0.0
C246 C 0.98065 0.89532 0.49525 0.0
C247 C 0.85952 0.98962 0.51798 0.0
C248 C 0.87819 0.96881 0.62348 0.0
O249 O 0.91408 0.95447 0.61581 0.0
O250 O 0.84625 0.94894 0.60957 0.0
C251 C 0.77945 0.85668 0.50306 0.0
O252 O 0.84009 0.77936 0.63361 0.0
O253 O 0.89474 0.79401 0.59884 0.0
C254 C 0.76383 0.8818 0.61427 0.0
C255 C 0.87633 0.76845 0.6233 0.0
Fe256 Fe 0.40655 0.19555 0.19492 0.0
O257 O 0.39827 0.13697 0.16145 0.0
Fe258 Fe 0.43763 0.17354 0.08222 0.0
Fe259 Fe 0.43184 0.07962 0.17002 0.0
O260 O 0.40148 0.1635 0.13705 0.0
O261 O 0.43716 0.11024 0.10124 0.0
O262 O 0.43513 0.10198 0.10849 0.0
Fe263 Fe 0.42202 0.06367 0.06028 0.0
C264 C 0.48029 0.13207 0.22185 0.0
O265 O 0.35549 0.17037 0.22502 0.0
O266 O 0.38528 0.12013 0.19538 0.0
O267 O 0.3734 0.0988 0.03743 0.0
O268 O 0.39168 0.16586 0.03637 0.0
O269 O 0.3894 0.19734 0.12137 0.0
O270 O 0.35949 0.23152 0.16833 0.0
O271 O 0.38531 0.0343 0.16139 0.0
O272 O 0.37478 0.03686 0.09427 0.0
C273 C 0.36906 0.23166 0.13089 0.0
O274 O 0.46644 0.09133 0.02174 0.0
O275 O 0.47926 0.16046 0.03624 0.0
O276 O 0.45324 0.16112 0.22702 0.0
O277 O 0.48265 0.11422 0.18689 0.0
C278 C 0.36535 0.1326 0.22862 0.0
C279 C 0.37531 0.01581 0.12755 0.0
C280 C 0.48467 0.01873 0.12129 0.0
O281 O 0.47297 0.03434 0.15593 0.0
O282 O 0.46825 0.02617 0.08526 0.0
C283 C 0.37264 0.13447 0.02025 0.0
O284 O 0.4904 0.1908 0.11903 0.0
O285 O 0.45991 0.22774 0.168 0.0
C286 C 0.48546 0.12656 0.01547 0.0
C287 C 0.491 0.22265 0.14349 0.0
Fe288 Fe 0.80459 0.68662 0.43354 0.0
O289 O 0.85121 0.70035 0.3967 0.0
Fe290 Fe 0.8303 0.69721 0.32495 0.0
Fe291 Fe 0.91095 0.68335 0.41242 0.0
O292 O 0.84756 0.69867 0.3881 0.0
O293 O 0.88621 0.66261 0.34006 0.0
O294 O 0.90457 0.65679 0.35768 0.0
Fe295 Fe 0.94365 0.66169 0.31018 0.0
C296 C 0.87083 0.73994 0.48063 0.0
O297 O 0.83293 0.64183 0.46103 0.0
O298 O 0.89572 0.6265 0.44253 0.0
O299 O 0.91605 0.61185 0.27643 0.0
O300 O 0.86685 0.64812 0.29999 0.0
O301 O 0.79012 0.64638 0.33401 0.0
O302 O 0.78377 0.63506 0.40098 0.0
O303 O 0.97335 0.65848 0.4139 0.0
O304 O 0.96421 0.61855 0.35608 0.0
C305 C 0.77025 0.63041 0.36449 0.0
O306 O 0.91855 0.71207 0.27033 0.0
O307 O 0.86898 0.74754 0.30467 0.0
O308 O 0.83293 0.73123 0.46955 0.0
O309 O 0.90425 0.71912 0.46857 0.0
C310 C 0.86301 0.61793 0.46312 0.0
C311 C 0.98696 0.62958 0.38768 0.0
C312 C 0.96726 0.74019 0.3656 0.0
O313 O 0.9349 0.73961 0.38863 0.0
O314 O 0.97326 0.71154 0.33885 0.0
C315 C 0.87875 0.62321 0.27082 0.0
O316 O 0.78425 0.74382 0.34017 0.0
O317 O 0.77034 0.73139 0.40801 0.0
C318 C 0.8947 0.74503 0.27397 0.0
C319 C 0.76621 0.75287 0.37523 0.0
Fe320 Fe 0.30841 0.16911 0.66538 0.0
O321 O 0.30159 0.10616 0.64775 0.0
Fe322 Fe 0.3389 0.18541 0.55044 0.0
Fe323 Fe 0.31255 0.05912 0.6895 0.0
O324 O 0.33742 0.15248 0.60689 0.0
O325 O 0.33833 0.13907 0.59016 0.0
O326 O 0.2963 0.09893 0.64352 0.0
Fe327 Fe 0.30863 0.08493 0.58197 0.0
C328 C 0.3744 0.12509 0.72319 0.0
O329 O 0.26313 0.15504 0.71227 0.0
O330 O 0.27277 0.0865 0.72799 0.0
O331 O 0.2531 0.11462 0.55493 0.0
O332 O 0.28654 0.16301 0.51843 0.0
O333 O 0.29407 0.22783 0.57938 0.0
O334 O 0.25994 0.19148 0.62894 0.0
O335 O 0.26503 0.02682 0.66369 0.0
O336 O 0.27176 0.02887 0.59148 0.0
C337 C 0.26433 0.22468 0.60671 0.0
O338 O 0.33272 0.08236 0.52007 0.0
O339 O 0.37773 0.13709 0.52787 0.0
O340 O 0.36063 0.15635 0.7024 0.0
O341 O 0.36666 0.08827 0.7106 0.0
C342 C 0.25322 0.12068 0.73173 0.0
C343 C 0.25515 0.01494 0.62657 0.0
C344 C 0.37018 0.02419 0.62386 0.0
O345 O 0.3504 0.02671 0.65643 0.0
O346 O 0.36303 0.04953 0.59406 0.0
C347 C 0.25449 0.13997 0.523 0.0
O348 O 0.39083 0.21347 0.57781 0.0
O349 O 0.35475 0.19644 0.62948 0.0
C350 C 0.36424 0.10527 0.5066 0.0
C351 C 0.38076 0.22274 0.61462 0.0
Fe352 Fe 0.9178 0.56214 0.82994 0.0
O353 O 0.8612 0.59834 0.83631 0.0
Fe354 Fe 0.93055 0.57427 0.9407 0.0
Fe355 Fe 0.80348 0.59567 0.8023 0.0
O356 O 0.89347 0.5616 0.89023 0.0
O357 O 0.88554 0.5619 0.89856 0.0
O358 O 0.836 0.60267 0.86008 0.0
Fe359 Fe 0.82219 0.56943 0.91652 0.0
C360 C 0.86739 0.6312 0.76742 0.0
O361 O 0.88247 0.51203 0.80911 0.0
O362 O 0.83434 0.54509 0.77014 0.0
O363 O 0.82587 0.52865 0.96475 0.0
O364 O 0.89422 0.53847 0.97871 0.0
O365 O 0.96629 0.52159 0.92328 0.0
O366 O 0.96465 0.51917 0.85178 0.0
O367 O 0.76941 0.54697 0.83186 0.0
O368 O 0.80759 0.5182 0.88118 0.0
C369 C 0.97879 0.50647 0.88793 0.0
O370 O 0.83237 0.61745 0.96037 0.0
O371 O 0.89929 0.62937 0.95347 0.0
O372 O 0.87991 0.60737 0.79827 0.0
O373 O 0.83121 0.64401 0.77279 0.0
C374 C 0.86185 0.51566 0.77494 0.0
C375 C 0.77462 0.51872 0.85951 0.0
C376 C 0.76786 0.63733 0.86381 0.0
O377 O 0.77049 0.64642 0.82649 0.0
O378 O 0.80095 0.61608 0.87512 0.0
C379 C 0.85832 0.52246 0.98672 0.0
O380 O 0.96905 0.61043 0.9069 0.0
O381 O 0.95784 0.61206 0.83922 0.0
C382 C 0.86628 0.6334 0.97447 0.0
C383 C 0.97764 0.62413 0.87137 0.0
Fe384 Fe 0.19467 0.40885 0.19346 0.0
O385 O 0.16125 0.40201 0.13599 0.0
Fe386 Fe 0.08185 0.44151 0.17152 0.0
Fe387 Fe 0.17126 0.43114 0.07607 0.0
O388 O 0.13729 0.4051 0.16069 0.0
O389 O 0.10345 0.44167 0.10835 0.0
O390 O 0.11178 0.43936 0.09866 0.0
Fe391 Fe 0.06262 0.42378 0.06279 0.0
C392 C 0.22457 0.48056 0.12803 0.0
O393 O 0.22489 0.35768 0.16838 0.0
O394 O 0.19834 0.38957 0.11857 0.0
O395 O 0.05158 0.37489 0.10252 0.0
O396 O 0.03521 0.39429 0.16378 0.0
O397 O 0.12025 0.39532 0.19734 0.0
O398 O 0.16696 0.36049 0.2256 0.0
O399 O 0.15823 0.37696 0.04209 0.0
O400 O 0.09113 0.37489 0.03191 0.0
C401 C 0.12984 0.37035 0.22788 0.0
O402 O 0.02724 0.47017 0.08944 0.0
O403 O 0.03647 0.48293 0.15817 0.0
O404 O 0.22776 0.4552 0.15931 0.0
O405 O 0.19144 0.48301 0.10636 0.0
C406 C 0.22921 0.36623 0.13118 0.0
C407 C 0.12724 0.36779 0.01871 0.0
C408 C 0.11955 0.48577 0.01319 0.0
O409 O 0.15481 0.47161 0.0273 0.0
O410 O 0.08357 0.47083 0.02331 0.0
C411 C 0.0243 0.37603 0.13006 0.0
O412 O 0.11891 0.49395 0.18906 0.0
O413 O 0.16678 0.46188 0.22779 0.0
C414 C 0.01858 0.48925 0.12315 0.0
C415 C 0.14231 0.49398 0.22161 0.0
Fe416 Fe 0.6834 0.33011 0.06032 0.0
O417 O 0.64618 0.30854 0.10494 0.0
Fe418 Fe 0.57611 0.30871 0.07902 0.0
Fe419 Fe 0.66883 0.31072 0.16587 0.0
O420 O 0.63857 0.30735 0.09876 0.0
O421 O 0.58751 0.34513 0.13425 0.0
O422 O 0.61367 0.34816 0.15781 0.0
Fe423 Fe 0.55494 0.34475 0.19031 0.0
C424 C 0.73313 0.26029 0.11194 0.0
O425 O 0.69545 0.37998 0.09792 0.0
O426 O 0.71354 0.35686 0.15819 0.0
O427 O 0.52236 0.3936 0.16283 0.0
O428 O 0.55233 0.35703 0.11813 0.0
O429 O 0.58178 0.35954 0.03799 0.0
O430 O 0.6457 0.37953 0.04461 0.0
O431 O 0.63217 0.35936 0.19511 0.0
O432 O 0.58216 0.39597 0.21725 0.0
C433 C 0.61292 0.37955 0.02341 0.0
O434 O 0.52159 0.29039 0.165 0.0
O435 O 0.55618 0.25632 0.11566 0.0
O436 O 0.7271 0.28475 0.08053 0.0
O437 O 0.71326 0.26485 0.14683 0.0
C438 C 0.7209 0.38027 0.12725 0.0
C439 C 0.61896 0.3851 0.22422 0.0
C440 C 0.61376 0.27019 0.21666 0.0
O441 O 0.62947 0.26443 0.18117 0.0
O442 O 0.58711 0.29929 0.22369 0.0
C443 C 0.5207 0.38158 0.12628 0.0
O444 O 0.59533 0.26415 0.03297 0.0
O445 O 0.6631 0.28289 0.02036 0.0
C446 C 0.52566 0.25765 0.14161 0.0
C447 C 0.63143 0.25826 0.01523 0.0
Fe448 Fe 0.67139 0.9408 0.31017 0.0
O449 O 0.68981 0.90008 0.35653 0.0
Fe450 Fe 0.68024 0.8339 0.32897 0.0
Fe451 Fe 0.69332 0.92147 0.41904 0.0
O452 O 0.68678 0.89489 0.34908 0.0
O453 O 0.65124 0.84461 0.3889 0.0
O454 O 0.65543 0.86745 0.41275 0.0
Fe455 Fe 0.65958 0.80812 0.44297 0.0
C456 C 0.74134 0.98628 0.36524 0.0
O457 O 0.62082 0.95271 0.34509 0.0
O458 O 0.64575 0.96605 0.40742 0.0
O459 O 0.60853 0.77597 0.41744 0.0
O460 O 0.63597 0.81069 0.37086 0.0
O461 O 0.62628 0.84274 0.29342 0.0
O462 O 0.62112 0.90966 0.28488 0.0
O463 O 0.64689 0.88699 0.45482 0.0
O464 O 0.61196 0.83249 0.47308 0.0
C465 C 0.6159 0.87352 0.27043 0.0
O466 O 0.70755 0.77909 0.40983 0.0
O467 O 0.73349 0.81871 0.35975 0.0
O468 O 0.71627 0.98124 0.3344 0.0
O469 O 0.7381 0.96578 0.39974 0.0
C470 C 0.61999 0.97402 0.37744 0.0
C471 C 0.61944 0.87013 0.47994 0.0
C472 C 0.7432 0.85845 0.47053 0.0
O473 O 0.74416 0.88265 0.43839 0.0
O474 O 0.70984 0.83694 0.47825 0.0
C475 C 0.61568 0.7765 0.37978 0.0
O476 O 0.72159 0.84733 0.2809 0.0
O477 O 0.71906 0.91844 0.27293 0.0
C478 C 0.73383 0.78533 0.38063 0.0
C479 C 0.73573 0.88223 0.26598 0.0
Fe480 Fe 0.19468 0.90886 0.69345 0.0
O481 O 0.16126 0.90202 0.63598 0.0
Fe482 Fe 0.08188 0.94154 0.67151 0.0
Fe483 Fe 0.17126 0.93114 0.57604 0.0
O484 O 0.13731 0.90513 0.66067 0.0
O485 O 0.10348 0.94171 0.60832 0.0
O486 O 0.11179 0.93939 0.59863 0.0
Fe487 Fe 0.06265 0.92378 0.56276 0.0
C488 C 0.22457 0.98053 0.628 0.0
O489 O 0.22489 0.85769 0.66837 0.0
O490 O 0.19835 0.88957 0.61855 0.0
O491 O 0.05178 0.8749 0.60249 0.0
O492 O 0.03534 0.89433 0.66376 0.0
O493 O 0.12028 0.89535 0.69733 0.0
O494 O 0.16696 0.8605 0.72559 0.0
O495 O 0.15824 0.87696 0.54207 0.0
O496 O 0.09116 0.87491 0.53186 0.0
C497 C 0.12985 0.87037 0.72786 0.0
O498 O 0.02721 0.97013 0.58943 0.0
O499 O 0.03646 0.98294 0.65815 0.0
O500 O 0.22776 0.95519 0.65929 0.0
O501 O 0.19144 0.983 0.60633 0.0
C502 C 0.22922 0.86624 0.63117 0.0
C503 C 0.12726 0.86778 0.51868 0.0
C504 C 0.11954 0.98577 0.51315 0.0
O505 O 0.1548 0.97161 0.52726 0.0
O506 O 0.08355 0.97084 0.52328 0.0
C507 C 0.02456 0.87601 0.63006 0.0
O508 O 0.11891 0.99398 0.68905 0.0
O509 O 0.16679 0.96189 0.72778 0.0
C510 C 0.01854 0.98922 0.62313 0.0
C511 C 0.14231 0.994 0.72161 0.0
Fe512 Fe 0.57328 0.31308 0.31201 0.0
O513 O 0.55615 0.35543 0.35471 0.0
Fe514 Fe 0.56061 0.42312 0.32787 0.0
Fe515 Fe 0.55502 0.33549 0.41702 0.0
O516 O 0.55687 0.36188 0.34859 0.0
O517 O 0.59666 0.4127 0.38372 0.0
O518 O 0.59687 0.38757 0.40747 0.0
Fe519 Fe 0.59646 0.44556 0.44095 0.0
C520 C 0.50104 0.27289 0.36901 0.0
O521 O 0.62287 0.30141 0.35096 0.0
O522 O 0.59616 0.2851 0.41016 0.0
O523 O 0.64521 0.476 0.41287 0.0
O524 O 0.60704 0.45081 0.36619 0.0
O525 O 0.61065 0.41314 0.28859 0.0
O526 O 0.62099 0.3451 0.28312 0.0
O527 O 0.60653 0.36883 0.44404 0.0
O528 O 0.64558 0.41484 0.46991 0.0
C529 C 0.62586 0.38178 0.2692 0.0
O530 O 0.54559 0.48059 0.41312 0.0
O531 O 0.51141 0.44235 0.36462 0.0
O532 O 0.52693 0.27465 0.33842 0.0
O533 O 0.50579 0.29481 0.40242 0.0
C534 C 0.62155 0.27683 0.38118 0.0
C535 C 0.63225 0.37836 0.47458 0.0
C536 C 0.51559 0.39566 0.46601 0.0
O537 O 0.51149 0.37943 0.43029 0.0
O538 O 0.5481 0.4172 0.47548 0.0
C539 C 0.63266 0.48105 0.37669 0.0
O540 O 0.51589 0.40411 0.2818 0.0
O541 O 0.52654 0.33348 0.27186 0.0
C542 C 0.51351 0.47417 0.38908 0.0
C543 C 0.50617 0.36788 0.26518 0.0
Fe544 Fe 0.18339 0.83009 0.06034 0.0
O545 O 0.14616 0.8085 0.10493 0.0
Fe546 Fe 0.0761 0.80868 0.079 0.0
Fe547 Fe 0.16879 0.81069 0.16587 0.0
O548 O 0.13855 0.80731 0.09875 0.0
O549 O 0.0875 0.8451 0.13424 0.0
O550 O 0.11364 0.84813 0.1578 0.0
Fe551 Fe 0.05491 0.84473 0.1903 0.0
C552 C 0.2331 0.76025 0.11194 0.0
O553 O 0.19536 0.87994 0.09797 0.0
O554 O 0.21346 0.85685 0.15821 0.0
O555 O 0.02234 0.8936 0.16284 0.0
O556 O 0.05231 0.857 0.1181 0.0
O557 O 0.08178 0.85952 0.03797 0.0
O558 O 0.1457 0.87952 0.04462 0.0
O559 O 0.13212 0.85933 0.1951 0.0
O560 O 0.08213 0.89595 0.21725 0.0
C561 C 0.11292 0.87954 0.02341 0.0
O562 O 0.02157 0.79038 0.16497 0.0
O563 O 0.05617 0.7563 0.11564 0.0
O564 O 0.22707 0.78473 0.08055 0.0
O565 O 0.21324 0.76481 0.14684 0.0
C566 C 0.22083 0.88026 0.12728 0.0
C567 C 0.11893 0.88508 0.22421 0.0
C568 C 0.11369 0.77012 0.21663 0.0
O569 O 0.12943 0.76439 0.18115 0.0
O570 O 0.08707 0.79925 0.22367 0.0
C571 C 0.02071 0.88157 0.1263 0.0
O572 O 0.09535 0.76413 0.03296 0.0
O573 O 0.16311 0.78288 0.02035 0.0
C574 C 0.02564 0.75764 0.14159 0.0
C575 C 0.13145 0.75826 0.01521 0.0
Fe576 Fe 0.07332 0.31309 0.81202 0.0
O577 O 0.05614 0.35543 0.85471 0.0
Fe578 Fe 0.06062 0.42312 0.82786 0.0
Fe579 Fe 0.055 0.33549 0.91702 0.0
O580 O 0.05686 0.36188 0.84859 0.0
O581 O 0.09666 0.4127 0.88372 0.0
O582 O 0.09685 0.38757 0.90746 0.0
Fe583 Fe 0.09646 0.44557 0.94095 0.0
C584 C 0.00104 0.27289 0.86899 0.0
O585 O 0.12288 0.30142 0.85101 0.0
O586 O 0.09614 0.28509 0.91019 0.0
O587 O 0.14521 0.476 0.91288 0.0
O588 O 0.10704 0.45081 0.8662 0.0
O589 O 0.11068 0.41313 0.7886 0.0
O590 O 0.12108 0.34515 0.78323 0.0
O591 O 0.10648 0.36884 0.94407 0.0
O592 O 0.14559 0.41488 0.96991 0.0
C593 C 0.12584 0.38178 0.76916 0.0
O594 O 0.04557 0.48058 0.91312 0.0
O595 O 0.01141 0.44236 0.8646 0.0
O596 O 0.02693 0.27466 0.83839 0.0
O597 O 0.00578 0.2948 0.9024 0.0
C598 C 0.12154 0.27681 0.88122 0.0
C599 C 0.13221 0.37843 0.97458 0.0
C600 C 0.01558 0.39564 0.96602 0.0
O601 O 0.01147 0.37943 0.93029 0.0
O602 O 0.04809 0.41717 0.97549 0.0
C603 C 0.13267 0.48104 0.87669 0.0
O604 O 0.01591 0.40411 0.78179 0.0
O605 O 0.0266 0.33349 0.77183 0.0
C606 C 0.0135 0.47417 0.88907 0.0
C607 C 0.00619 0.36788 0.76518 0.0
Fe608 Fe 0.16769 0.67648 0.30351 0.0
O609 O 0.10588 0.65622 0.29887 0.0
Fe610 Fe 0.18666 0.56115 0.33795 0.0
Fe611 Fe 0.05887 0.69658 0.30975 0.0
O612 O 0.15407 0.61945 0.33828 0.0
O613 O 0.13952 0.59994 0.33789 0.0
O614 O 0.09867 0.65105 0.29382 0.0
Fe615 Fe 0.08643 0.58945 0.30834 0.0
C616 C 0.12436 0.73332 0.36797 0.0
O617 O 0.15279 0.71973 0.25659 0.0
O618 O 0.08476 0.73472 0.26923 0.0
O619 O 0.11603 0.56307 0.25328 0.0
O620 O 0.16074 0.52417 0.28902 0.0
O621 O 0.2234 0.58952 0.29121 0.0
O622 O 0.18545 0.6371 0.25742 0.0
O623 O 0.02515 0.66896 0.26368 0.0
O624 O 0.02999 0.59633 0.27046 0.0
C625 C 0.21941 0.61755 0.26257 0.0
O626 O 0.08808 0.52816 0.33557 0.0
O627 O 0.1437 0.53972 0.37924 0.0
O628 O 0.15619 0.7221 0.34757 0.0
O629 O 0.08902 0.7178 0.36103 0.0
C630 C 0.11809 0.73898 0.24889 0.0
C631 C 0.0152 0.63118 0.25287 0.0
C632 C 0.03019 0.63314 0.37352 0.0
O633 O 0.03137 0.66485 0.35187 0.0
O634 O 0.05208 0.6015 0.36325 0.0
C635 C 0.13984 0.52995 0.25547 0.0
O636 O 0.21928 0.59005 0.38714 0.0
O637 O 0.19372 0.64165 0.3549 0.0
C638 C 0.11194 0.51793 0.3679 0.0
C639 C 0.22513 0.62768 0.37651 0.0
Fe640 Fe 0.42501 0.83553 0.05889 0.0
O641 O 0.40088 0.89471 0.04593 0.0
Fe642 Fe 0.31096 0.8087 0.0841 0.0
Fe643 Fe 0.43834 0.94533 0.05781 0.0
O644 O 0.36348 0.84803 0.08358 0.0
O645 O 0.35079 0.85514 0.08646 0.0
O646 O 0.39628 0.90257 0.04077 0.0
Fe647 Fe 0.33477 0.90927 0.05794 0.0
C648 C 0.48257 0.88424 0.11321 0.0
O649 O 0.47176 0.86077 0.01604 0.0
O650 O 0.46544 0.93179 0.00343 0.0
O651 O 0.3124 0.8798 0.00216 0.0
O652 O 0.27412 0.83358 0.03494 0.0
O653 O 0.3425 0.77283 0.0389 0.0
O654 O 0.39733 0.80542 0.00847 0.0
O655 O 0.39692 0.9836 0.03071 0.0
O656 O 0.32836 0.96496 0.02536 0.0
C657 C 0.37253 0.77379 0.01236 0.0
O658 O 0.27446 0.90559 0.08304 0.0
O659 O 0.2835 0.84839 0.12477 0.0
O660 O 0.45508 0.85576 0.11347 0.0
O661 O 0.48275 0.90871 0.08282 0.0
C662 C 0.48068 0.89532 0.99535 0.0
C663 C 0.35954 0.98962 0.018 0.0
C664 C 0.37813 0.96883 0.12354 0.0
O665 O 0.41404 0.95451 0.11591 0.0
O666 O 0.34619 0.94901 0.10957 0.0
C667 C 0.27947 0.85667 0.00307 0.0
O668 O 0.34005 0.77939 0.13361 0.0
O669 O 0.39477 0.79396 0.09887 0.0
C670 C 0.26384 0.88183 0.11431 0.0
C671 C 0.37629 0.76845 0.12333 0.0
Fe672 Fe 0.19395 0.70147 0.90533 0.0
O673 O 0.13613 0.66796 0.89741 0.0
Fe674 Fe 0.17109 0.58515 0.93097 0.0
Fe675 Fe 0.07994 0.6764 0.93173 0.0
O676 O 0.16148 0.64374 0.9003 0.0
O677 O 0.10941 0.60601 0.9335 0.0
O678 O 0.10113 0.61338 0.93312 0.0
Fe679 Fe 0.06122 0.56731 0.91735 0.0
C680 C 0.13759 0.72509 0.98267 0.0
O681 O 0.16659 0.73534 0.85634 0.0
O682 O 0.1186 0.7012 0.88359 0.0
O683 O 0.09305 0.53968 0.86915 0.0
O684 O 0.16038 0.54843 0.87756 0.0
O685 O 0.19784 0.62743 0.88766 0.0
O686 O 0.22261 0.67811 0.85456 0.0
O687 O 0.03396 0.6693 0.88542 0.0
O688 O 0.04563 0.60483 0.86776 0.0
C689 C 0.22674 0.64026 0.86224 0.0
O690 O 0.08425 0.52852 0.96439 0.0
O691 O 0.15503 0.53572 0.97048 0.0
O692 O 0.16483 0.73227 0.95485 0.0
O693 O 0.11693 0.69109 0.98221 0.0
C694 C 0.12874 0.73599 0.86441 0.0
C695 C 0.02157 0.63594 0.86734 0.0
C696 C 0.01664 0.62773 0.98232 0.0
O697 O 0.03455 0.66281 0.97414 0.0
O698 O 0.02371 0.59315 0.96293 0.0
C699 C 0.12953 0.52561 0.86557 0.0
O700 O 0.18992 0.618 0.98526 0.0
O701 O 0.22811 0.66902 0.95599 0.0
C702 C 0.11976 0.51942 0.98137 0.0
C703 C 0.22139 0.64302 0.98686 0.0
Fe704 Fe 0.44742 0.80695 0.65544 0.0
O705 O 0.41431 0.86636 0.64991 0.0
Fe706 Fe 0.33376 0.82918 0.68424 0.0
Fe707 Fe 0.42168 0.9225 0.68603 0.0
O708 O 0.39016 0.83925 0.65151 0.0
O709 O 0.35303 0.89197 0.68666 0.0
O710 O 0.35991 0.89991 0.68597 0.0
Fe711 Fe 0.31392 0.93896 0.66826 0.0
C712 C 0.47288 0.86463 0.73255 0.0
O713 O 0.47636 0.83319 0.60422 0.0
O714 O 0.44669 0.88347 0.63539 0.0
O715 O 0.28942 0.90404 0.61952 0.0
O716 O 0.29487 0.83707 0.63204 0.0
O717 O 0.3751 0.80553 0.63862 0.0
O718 O 0.42114 0.77144 0.60778 0.0
O719 O 0.41473 0.96945 0.64018 0.0
O720 O 0.35237 0.95539 0.61872 0.0
C721 C 0.38375 0.77163 0.61743 0.0
O722 O 0.27526 0.91561 0.71438 0.0
O723 O 0.28611 0.84531 0.7253 0.0
O724 O 0.47976 0.83951 0.70256 0.0
O725 O 0.4384 0.88414 0.73486 0.0
C726 C 0.47911 0.8713 0.61319 0.0
C727 C 0.3831 0.98031 0.61855 0.0
C728 C 0.3679 0.98463 0.73955 0.0
O729 O 0.40392 0.96724 0.73241 0.0
O730 O 0.33578 0.97826 0.71609 0.0
C731 C 0.27318 0.86792 0.61863 0.0
O732 O 0.36826 0.80965 0.73803 0.0
O733 O 0.42043 0.77511 0.70857 0.0
C734 C 0.26888 0.88101 0.73434 0.0
C735 C 0.39489 0.77929 0.73896 0.0
Fe736 Fe 0.57333 0.8131 0.81207 0.0
O737 O 0.55616 0.85542 0.85476 0.0
Fe738 Fe 0.56062 0.92311 0.8279 0.0
Fe739 Fe 0.55509 0.83547 0.91707 0.0
O740 O 0.55687 0.86189 0.84864 0.0
O741 O 0.59667 0.91269 0.88375 0.0
O742 O 0.59691 0.88757 0.90749 0.0
Fe743 Fe 0.59649 0.94556 0.94098 0.0
C744 C 0.50107 0.77289 0.86905 0.0
O745 O 0.62289 0.80146 0.8511 0.0
O746 O 0.59627 0.7851 0.91026 0.0
O747 O 0.64525 0.976 0.91294 0.0
O748 O 0.60702 0.95084 0.86623 0.0
O749 O 0.61067 0.91313 0.78863 0.0
O750 O 0.62109 0.84514 0.78326 0.0
O751 O 0.60658 0.86884 0.94407 0.0
O752 O 0.64561 0.91484 0.96995 0.0
C753 C 0.62584 0.88178 0.76918 0.0
O754 O 0.5456 0.98058 0.91314 0.0
O755 O 0.51141 0.94234 0.86464 0.0
O756 O 0.52692 0.7747 0.83842 0.0
O757 O 0.50587 0.79475 0.90249 0.0
C758 C 0.62161 0.77679 0.88125 0.0
C759 C 0.63229 0.87836 0.97461 0.0
C760 C 0.51561 0.8958 0.96593 0.0
O761 O 0.51156 0.87941 0.93027 0.0
O762 O 0.54816 0.91721 0.97547 0.0
C763 C 0.63261 0.98106 0.87679 0.0
O764 O 0.5159 0.9041 0.78183 0.0
O765 O 0.52662 0.83349 0.77186 0.0
C766 C 0.51352 0.97417 0.88909 0.0
C767 C 0.5062 0.86788 0.7652 0.0
Fe768 Fe 0.18341 0.33008 0.56032 0.0
O769 O 0.14618 0.30851 0.60493 0.0
Fe770 Fe 0.07611 0.30869 0.57901 0.0
Fe771 Fe 0.16882 0.3107 0.66586 0.0
O772 O 0.13857 0.30732 0.59875 0.0
O773 O 0.08752 0.34511 0.63425 0.0
O774 O 0.11366 0.34814 0.65778 0.0
Fe775 Fe 0.05493 0.34474 0.6903 0.0
C776 C 0.23312 0.26027 0.61194 0.0
O777 O 0.19545 0.37993 0.59795 0.0
O778 O 0.21352 0.35685 0.65819 0.0
O779 O 0.02234 0.3936 0.66284 0.0
O780 O 0.05233 0.357 0.61811 0.0
O781 O 0.08179 0.35953 0.53799 0.0
O782 O 0.14572 0.37952 0.54462 0.0
O783 O 0.13216 0.35932 0.69513 0.0
O784 O 0.08212 0.39598 0.71724 0.0
C785 C 0.11293 0.37954 0.52342 0.0
O786 O 0.0216 0.29036 0.665 0.0
O787 O 0.05618 0.2563 0.61565 0.0
O788 O 0.2271 0.28473 0.58053 0.0
O789 O 0.21325 0.26483 0.64683 0.0
C790 C 0.22093 0.38023 0.62725 0.0
C791 C 0.1189 0.38506 0.7242 0.0
C792 C 0.11377 0.27019 0.71666 0.0
O793 O 0.12946 0.26442 0.68117 0.0
O794 O 0.08712 0.29929 0.7237 0.0
C795 C 0.02072 0.38156 0.6263 0.0
O796 O 0.09534 0.26413 0.53296 0.0
O797 O 0.1631 0.28288 0.52035 0.0
C798 C 0.02566 0.25763 0.6416 0.0
C799 C 0.13144 0.25825 0.51522 0.0
Fe800 Fe 0.30458 0.68672 0.93358 0.0
O801 O 0.35119 0.70037 0.89671 0.0
Fe802 Fe 0.3303 0.69722 0.82496 0.0
Fe803 Fe 0.41095 0.68339 0.91243 0.0
O804 O 0.34755 0.69868 0.88811 0.0
O805 O 0.38621 0.66263 0.84007 0.0
O806 O 0.40457 0.65683 0.85769 0.0
Fe807 Fe 0.44365 0.66171 0.81019 0.0
C808 C 0.37086 0.74 0.98064 0.0
O809 O 0.33292 0.64191 0.96106 0.0
O810 O 0.39569 0.62653 0.94253 0.0
O811 O 0.41604 0.61185 0.77647 0.0
O812 O 0.36684 0.64811 0.80002 0.0
O813 O 0.29012 0.64642 0.83406 0.0
O814 O 0.28358 0.63519 0.9011 0.0
O815 O 0.47335 0.65855 0.91392 0.0
O816 O 0.4642 0.6186 0.85612 0.0
C817 C 0.27031 0.63038 0.86455 0.0
O818 O 0.41855 0.71207 0.77031 0.0
O819 O 0.36899 0.74754 0.80467 0.0
O820 O 0.33296 0.73133 0.96954 0.0
O821 O 0.40427 0.71915 0.96859 0.0
C822 C 0.36298 0.61798 0.96312 0.0
C823 C 0.48696 0.62965 0.8877 0.0
C824 C 0.46725 0.74024 0.86561 0.0
O825 O 0.43489 0.73965 0.88866 0.0
O826 O 0.47324 0.7116 0.83885 0.0
C827 C 0.37873 0.62321 0.77085 0.0
O828 O 0.28425 0.74383 0.84014 0.0
O829 O 0.27036 0.73148 0.90801 0.0
C830 C 0.39471 0.74504 0.77397 0.0
C831 C 0.26621 0.7529 0.8752 0.0
Fe832 Fe 0.82222 0.0694 0.41652 0.0
O833 O 0.88557 0.0619 0.39856 0.0
Fe834 Fe 0.80349 0.09567 0.30231 0.0
Fe835 Fe 0.93057 0.07429 0.4407 0.0
O836 O 0.83602 0.10265 0.36008 0.0
O837 O 0.86123 0.09832 0.33631 0.0
O838 O 0.89349 0.06158 0.39024 0.0
Fe839 Fe 0.91779 0.06207 0.32993 0.0
C840 C 0.86625 0.13338 0.47447 0.0
O841 O 0.82596 0.02861 0.46474 0.0
O842 O 0.89432 0.03839 0.47874 0.0
O843 O 0.8824 0.01199 0.30913 0.0
O844 O 0.83433 0.0451 0.27014 0.0
O845 O 0.76943 0.04696 0.33187 0.0
O846 O 0.80762 0.01817 0.38117 0.0
O847 O 0.96637 0.02165 0.42326 0.0
O848 O 0.9646 0.01907 0.35177 0.0
C849 C 0.77464 0.01872 0.35951 0.0
O850 O 0.87995 0.10734 0.29825 0.0
O851 O 0.83124 0.14402 0.27284 0.0
O852 O 0.83236 0.11742 0.46038 0.0
O853 O 0.89927 0.12936 0.45349 0.0
C854 C 0.85841 0.02237 0.48671 0.0
C855 C 0.97879 0.00645 0.38792 0.0
C856 C 0.97758 0.12416 0.37134 0.0
O857 O 0.96899 0.11055 0.40691 0.0
O858 O 0.95791 0.11192 0.33918 0.0
C859 C 0.86182 0.01564 0.27495 0.0
O860 O 0.77049 0.14643 0.32647 0.0
O861 O 0.80096 0.11604 0.37513 0.0
C862 C 0.8674 0.13119 0.26743 0.0
C863 C 0.76789 0.13729 0.36378 0.0
Fe864 Fe 0.40656 0.69552 0.69494 0.0
O865 O 0.39826 0.63695 0.66144 0.0
Fe866 Fe 0.43763 0.67354 0.58222 0.0
Fe867 Fe 0.43183 0.57958 0.67 0.0
O868 O 0.40148 0.66348 0.63706 0.0
O869 O 0.43716 0.61023 0.60124 0.0
O870 O 0.43512 0.60196 0.60848 0.0
Fe871 Fe 0.42203 0.56367 0.56027 0.0
C872 C 0.48026 0.63196 0.72185 0.0
O873 O 0.35548 0.67037 0.72505 0.0
O874 O 0.38528 0.62008 0.69539 0.0
O875 O 0.3734 0.5988 0.53743 0.0
O876 O 0.39167 0.66586 0.53638 0.0
O877 O 0.38941 0.69734 0.62137 0.0
O878 O 0.35949 0.73154 0.66839 0.0
O879 O 0.3853 0.53425 0.66137 0.0
O880 O 0.37479 0.53685 0.59427 0.0
C881 C 0.36906 0.73163 0.63095 0.0
O882 O 0.46644 0.59136 0.52173 0.0
O883 O 0.47925 0.66049 0.53624 0.0
O884 O 0.45323 0.66103 0.72702 0.0
O885 O 0.48262 0.61418 0.68685 0.0
C886 C 0.36536 0.63261 0.72861 0.0
C887 C 0.37534 0.51576 0.62751 0.0
C888 C 0.48468 0.51873 0.62126 0.0
O889 O 0.47296 0.53432 0.6559 0.0
O890 O 0.46826 0.52618 0.58524 0.0
C891 C 0.37264 0.63447 0.52025 0.0
O892 O 0.49039 0.6908 0.61903 0.0
O893 O 0.45992 0.72771 0.66803 0.0
C894 C 0.48545 0.62659 0.51546 0.0
C895 C 0.491 0.72264 0.6435 0.0
Fe896 Fe 0.80465 0.18677 0.93365 0.0
O897 O 0.85122 0.20036 0.89673 0.0
Fe898 Fe 0.83029 0.1972 0.82499 0.0
Fe899 Fe 0.91099 0.1834 0.91244 0.0
O900 O 0.84758 0.19868 0.88813 0.0
O901 O 0.88622 0.1626 0.84007 0.0
O902 O 0.90456 0.15681 0.85769 0.0
Fe903 Fe 0.94364 0.16168 0.81017 0.0
C904 C 0.87102 0.24018 0.98061 0.0
O905 O 0.83297 0.14194 0.9611 0.0
O906 O 0.89574 0.12654 0.94258 0.0
O907 O 0.91603 0.11184 0.77645 0.0
O908 O 0.86683 0.1481 0.8 0.0
O909 O 0.79015 0.14639 0.83415 0.0
O910 O 0.78353 0.13527 0.90121 0.0
O911 O 0.97339 0.15852 0.91388 0.0
O912 O 0.96422 0.11853 0.85606 0.0
C913 C 0.77031 0.1304 0.86464 0.0
O914 O 0.91853 0.21205 0.77031 0.0
O915 O 0.86896 0.24753 0.80466 0.0
O916 O 0.83312 0.23142 0.96956 0.0
O917 O 0.9044 0.21925 0.96861 0.0
C918 C 0.86302 0.11799 0.96316 0.0
C919 C 0.98693 0.12956 0.88768 0.0
C920 C 0.96725 0.24023 0.86556 0.0
O921 O 0.93489 0.23964 0.88861 0.0
O922 O 0.97324 0.21156 0.83882 0.0
C923 C 0.87873 0.1232 0.77083 0.0
O924 O 0.78424 0.2438 0.8402 0.0
O925 O 0.77043 0.23154 0.9081 0.0
C926 C 0.89469 0.24502 0.77396 0.0
C927 C 0.76623 0.25291 0.87527 0.0
Fe928 Fe 0.90654 0.69554 0.1949 0.0
O929 O 0.89831 0.63694 0.16142 0.0
Fe930 Fe 0.93766 0.67352 0.08219 0.0
Fe931 Fe 0.93193 0.57961 0.17001 0.0
O932 O 0.9015 0.66346 0.13703 0.0
O933 O 0.9372 0.61023 0.10122 0.0
O934 O 0.93519 0.60197 0.10847 0.0
Fe935 Fe 0.92207 0.56365 0.06027 0.0
C936 C 0.98032 0.63213 0.22185 0.0
O937 O 0.85548 0.67036 0.22501 0.0
O938 O 0.88533 0.62008 0.19537 0.0
O939 O 0.87344 0.59876 0.0374 0.0
O940 O 0.89173 0.66583 0.03633 0.0
O941 O 0.88941 0.69731 0.12132 0.0
O942 O 0.85946 0.7315 0.16831 0.0
O943 O 0.88546 0.5342 0.16138 0.0
O944 O 0.87483 0.53688 0.09429 0.0
C945 C 0.86905 0.7316 0.13088 0.0
O946 O 0.96648 0.59132 0.02172 0.0
O947 O 0.9793 0.66045 0.03624 0.0
O948 O 0.95324 0.66114 0.22702 0.0
O949 O 0.9827 0.61427 0.18689 0.0
C950 C 0.86538 0.6326 0.22858 0.0
C951 C 0.87539 0.51578 0.12752 0.0
C952 C 0.98476 0.51876 0.12126 0.0
O953 O 0.9731 0.53439 0.1559 0.0
O954 O 0.9683 0.52617 0.08525 0.0
C955 C 0.87264 0.63445 0.02025 0.0
O956 O 0.9904 0.69078 0.11902 0.0
O957 O 0.95989 0.72773 0.16797 0.0
C958 C 0.98549 0.62655 0.01546 0.0
C959 C 0.99099 0.72264 0.14347 0.0
Fe960 Fe 0.69394 0.70148 0.40534 0.0
O961 O 0.63613 0.66794 0.39743 0.0
Fe962 Fe 0.67107 0.58516 0.43098 0.0
Fe963 Fe 0.57991 0.67641 0.43173 0.0
O964 O 0.66146 0.64376 0.40032 0.0
O965 O 0.60939 0.60603 0.43352 0.0
O966 O 0.6011 0.61339 0.43313 0.0
Fe967 Fe 0.56118 0.56734 0.41736 0.0
C968 C 0.63757 0.72508 0.48268 0.0
O969 O 0.6666 0.73537 0.35634 0.0
O970 O 0.61857 0.7012 0.38361 0.0
O971 O 0.59301 0.53968 0.36917 0.0
O972 O 0.66034 0.54845 0.37757 0.0
O973 O 0.69785 0.62743 0.38769 0.0
O974 O 0.7226 0.67818 0.35455 0.0
O975 O 0.53395 0.66934 0.38538 0.0
O976 O 0.54563 0.6049 0.36778 0.0
C977 C 0.72671 0.64034 0.36228 0.0
O978 O 0.58419 0.52855 0.46439 0.0
O979 O 0.65498 0.53574 0.47048 0.0
O980 O 0.66482 0.73225 0.45488 0.0
O981 O 0.61688 0.6911 0.48222 0.0
C982 C 0.62875 0.73597 0.36442 0.0
C983 C 0.52152 0.63597 0.36735 0.0
C984 C 0.5166 0.62777 0.48232 0.0
O985 O 0.5345 0.66285 0.47413 0.0
O986 O 0.52368 0.59319 0.46294 0.0
C987 C 0.62949 0.52563 0.36559 0.0
O988 O 0.68992 0.61801 0.48526 0.0
O989 O 0.72813 0.669 0.45597 0.0
C990 C 0.61971 0.51944 0.48136 0.0
C991 C 0.7214 0.64302 0.48685 0.0
Fe992 Fe 0.66764 0.67653 0.8036 0.0
O993 O 0.60584 0.65625 0.79891 0.0
Fe994 Fe 0.68664 0.56116 0.83793 0.0
Fe995 Fe 0.55871 0.69655 0.80952 0.0
O996 O 0.65404 0.61945 0.83829 0.0
O997 O 0.63948 0.59995 0.83792 0.0
O998 O 0.59865 0.65107 0.79384 0.0
Fe999 Fe 0.58641 0.58945 0.80834 0.0
C1000 C 0.62416 0.73334 0.86796 0.0
O1001 O 0.65277 0.71992 0.75677 0.0
O1002 O 0.58453 0.73451 0.76884 0.0
O1003 O 0.61603 0.56311 0.75328 0.0
O1004 O 0.66071 0.52419 0.78902 0.0
O1005 O 0.72333 0.58957 0.79118 0.0
O1006 O 0.68544 0.63725 0.75743 0.0
O1007 O 0.52511 0.66874 0.76357 0.0
O1008 O 0.52996 0.59617 0.77046 0.0
C1009 C 0.71936 0.61762 0.76255 0.0
O1010 O 0.58808 0.52816 0.83556 0.0
O1011 O 0.64371 0.53969 0.87923 0.0
O1012 O 0.6561 0.72198 0.8478 0.0
O1013 O 0.58869 0.71834 0.86058 0.0
C1014 C 0.61802 0.73897 0.74881 0.0
C1015 C 0.51517 0.63098 0.75281 0.0
C1016 C 0.53018 0.63322 0.8735 0.0
O1017 O 0.53134 0.66491 0.85183 0.0
O1018 O 0.55205 0.60155 0.86324 0.0
C1019 C 0.63984 0.53 0.75546 0.0
O1020 O 0.71931 0.59001 0.88713 0.0
O1021 O 0.69372 0.64163 0.85486 0.0
C1022 C 0.61194 0.51792 0.86789 0.0
C1023 C 0.72511 0.62764 0.87649 0.0
Fe1024 Fe 0.30866 0.66922 0.16531 0.0
O1025 O 0.3017 0.60624 0.14774 0.0
Fe1026 Fe 0.33894 0.68561 0.05033 0.0
Fe1027 Fe 0.31261 0.55916 0.18948 0.0
O1028 O 0.33773 0.65274 0.10686 0.0
O1029 O 0.33846 0.63908 0.09003 0.0
O1030 O 0.2964 0.59901 0.1435 0.0
Fe1031 Fe 0.30866 0.58496 0.08195 0.0
C1032 C 0.37447 0.62512 0.2232 0.0
O1033 O 0.26328 0.65509 0.21225 0.0
O1034 O 0.27281 0.58652 0.22796 0.0
O1035 O 0.25312 0.61465 0.05496 0.0
O1036 O 0.28657 0.66301 0.01845 0.0
O1037 O 0.29401 0.72787 0.07928 0.0
O1038 O 0.26007 0.6915 0.12893 0.0
O1039 O 0.26509 0.52683 0.16369 0.0
O1040 O 0.27176 0.52891 0.09148 0.0
C1041 C 0.26433 0.72469 0.10667 0.0
O1042 O 0.33275 0.58241 0.02006 0.0
O1043 O 0.3778 0.63722 0.02782 0.0
O1044 O 0.3608 0.6564 0.20237 0.0
O1045 O 0.36671 0.5883 0.21059 0.0
C1046 C 0.25329 0.62071 0.23169 0.0
C1047 C 0.25516 0.51497 0.12657 0.0
C1048 C 0.37021 0.5242 0.12384 0.0
O1049 O 0.35048 0.52676 0.15643 0.0
O1050 O 0.36303 0.54952 0.09402 0.0
C1051 C 0.25451 0.63998 0.02302 0.0
O1052 O 0.39099 0.71445 0.07741 0.0
O1053 O 0.35528 0.69639 0.12897 0.0
C1054 C 0.36431 0.60531 0.00664 0.0
C1055 C 0.38087 0.72336 0.11424 0.0
Fe1056 Fe 0.68344 0.83007 0.56029 0.0
O1057 O 0.64617 0.80856 0.60489 0.0
Fe1058 Fe 0.57612 0.80871 0.57901 0.0
Fe1059 Fe 0.6688 0.8107 0.66584 0.0
O1060 O 0.63858 0.80737 0.59873 0.0
O1061 O 0.58752 0.84513 0.63425 0.0
O1062 O 0.61366 0.84816 0.65778 0.0
Fe1063 Fe 0.55493 0.84476 0.6903 0.0
C1064 C 0.7331 0.76023 0.61193 0.0
O1065 O 0.69542 0.87996 0.59789 0.0
O1066 O 0.71348 0.85684 0.65817 0.0
O1067 O 0.52235 0.89362 0.66284 0.0
O1068 O 0.55232 0.85702 0.6181 0.0
O1069 O 0.58184 0.85953 0.53799 0.0
O1070 O 0.64586 0.87954 0.54443 0.0
O1071 O 0.63217 0.85932 0.69514 0.0
O1072 O 0.58213 0.89599 0.71724 0.0
C1073 C 0.61295 0.87958 0.52341 0.0
O1074 O 0.5216 0.79039 0.66499 0.0
O1075 O 0.55618 0.75632 0.61565 0.0
O1076 O 0.72708 0.78471 0.58054 0.0
O1077 O 0.71323 0.76479 0.64682 0.0
C1078 C 0.72082 0.88028 0.62726 0.0
C1079 C 0.6189 0.88506 0.72422 0.0
C1080 C 0.61374 0.77019 0.71662 0.0
O1081 O 0.62942 0.76443 0.68112 0.0
O1082 O 0.58712 0.79931 0.72369 0.0
C1083 C 0.52072 0.88159 0.6263 0.0
O1084 O 0.59536 0.76414 0.53297 0.0
O1085 O 0.66313 0.78286 0.52034 0.0
C1086 C 0.52566 0.75765 0.6416 0.0
C1087 C 0.63145 0.75824 0.51522 0.0
Fe1088 Fe 0.67138 0.4408 0.81016 0.0
O1089 O 0.68981 0.40006 0.8565 0.0
Fe1090 Fe 0.68023 0.33391 0.82895 0.0
Fe1091 Fe 0.69333 0.42145 0.91901 0.0
O1092 O 0.68678 0.39488 0.84906 0.0
O1093 O 0.65125 0.34463 0.88891 0.0
O1094 O 0.65543 0.36743 0.91273 0.0
Fe1095 Fe 0.65958 0.30811 0.94295 0.0
C1096 C 0.74133 0.48627 0.86523 0.0
O1097 O 0.62081 0.45267 0.84509 0.0
O1098 O 0.64576 0.46603 0.90741 0.0
O1099 O 0.6085 0.27596 0.91745 0.0
O1100 O 0.63597 0.31069 0.87082 0.0
O1101 O 0.62627 0.34275 0.79342 0.0
O1102 O 0.62113 0.40968 0.78481 0.0
O1103 O 0.64695 0.38705 0.95492 0.0
O1104 O 0.61199 0.33247 0.97306 0.0
C1105 C 0.61589 0.37352 0.77041 0.0
O1106 O 0.70753 0.27908 0.9098 0.0
O1107 O 0.73348 0.31871 0.85974 0.0
O1108 O 0.71624 0.48125 0.8344 0.0
O1109 O 0.73811 0.46575 0.89972 0.0
C1110 C 0.61999 0.47399 0.87743 0.0
C1111 C 0.6195 0.37009 0.97997 0.0
C1112 C 0.74322 0.35842 0.97048 0.0
O1113 O 0.74417 0.38262 0.93835 0.0
O1114 O 0.70985 0.33691 0.97821 0.0
C1115 C 0.61568 0.27652 0.87979 0.0
O1116 O 0.72158 0.34734 0.78088 0.0
O1117 O 0.71905 0.41846 0.77292 0.0
C1118 C 0.73382 0.28533 0.88061 0.0
C1119 C 0.73572 0.38225 0.76596 0.0
Fe1120 Fe 0.07327 0.81304 0.31198 0.0
O1121 O 0.05616 0.85539 0.35468 0.0
Fe1122 Fe 0.06059 0.92308 0.32786 0.0
Fe1123 Fe 0.05505 0.83546 0.41698 0.0
O1124 O 0.05687 0.86184 0.34858 0.0
O1125 O 0.09665 0.91266 0.3837 0.0
O1126 O 0.09689 0.88755 0.40742 0.0
Fe1127 Fe 0.09648 0.94554 0.44094 0.0
C1128 C 0.00107 0.77285 0.36901 0.0
O1129 O 0.12289 0.80136 0.35087 0.0
O1130 O 0.0962 0.78508 0.4101 0.0
O1131 O 0.14522 0.97599 0.41289 0.0
O1132 O 0.10699 0.95083 0.36617 0.0
O1133 O 0.11063 0.91311 0.28858 0.0
O1134 O 0.12096 0.84507 0.28307 0.0
O1135 O 0.10653 0.8688 0.44403 0.0
O1136 O 0.14562 0.91485 0.46988 0.0
C1137 C 0.12584 0.88175 0.26918 0.0
O1138 O 0.04558 0.98055 0.41311 0.0
O1139 O 0.01139 0.94231 0.36461 0.0
O1140 O 0.02695 0.77459 0.33841 0.0
O1141 O 0.00582 0.79477 0.40241 0.0
C1142 C 0.12159 0.77681 0.38112 0.0
C1143 C 0.13225 0.8784 0.47455 0.0
C1144 C 0.0156 0.89577 0.46586 0.0
O1145 O 0.01155 0.87941 0.4302 0.0
O1146 O 0.04816 0.91715 0.47544 0.0
C1147 C 0.13259 0.98105 0.37674 0.0
O1148 O 0.01587 0.90407 0.28179 0.0
O1149 O 0.02651 0.83344 0.27185 0.0
C1150 C 0.01349 0.97413 0.38907 0.0
C1151 C 0.00613 0.86784 0.26519 0.0
Fe1152 Fe 0.4233 0.33692 0.5593 0.0
O1153 O 0.40116 0.3958 0.54469 0.0
Fe1154 Fe 0.31124 0.30883 0.58391 0.0
Fe1155 Fe 0.4385 0.44567 0.55763 0.0
O1156 O 0.36255 0.34893 0.58358 0.0
O1157 O 0.3516 0.3547 0.586 0.0
O1158 O 0.39638 0.40292 0.5404 0.0
Fe1159 Fe 0.33496 0.4092 0.55785 0.0
C1160 C 0.48234 0.38455 0.61307 0.0
O1161 O 0.47133 0.36094 0.5164 0.0
O1162 O 0.46557 0.43205 0.5033 0.0
O1163 O 0.31243 0.37979 0.50208 0.0
O1164 O 0.27412 0.33357 0.5349 0.0
O1165 O 0.34263 0.2728 0.53896 0.0
O1166 O 0.39679 0.30608 0.50849 0.0
O1167 O 0.39697 0.4839 0.53073 0.0
O1168 O 0.3284 0.46498 0.52542 0.0
C1169 C 0.37253 0.27402 0.51237 0.0
O1170 O 0.27463 0.40546 0.58302 0.0
O1171 O 0.28362 0.34829 0.62471 0.0
O1172 O 0.45402 0.35683 0.61385 0.0
O1173 O 0.48277 0.4088 0.58253 0.0
C1174 C 0.48054 0.39539 0.49541 0.0
C1175 C 0.35953 0.48974 0.51805 0.0
C1176 C 0.37823 0.46877 0.62348 0.0
O1177 O 0.41413 0.4545 0.61578 0.0
O1178 O 0.34632 0.44887 0.60957 0.0
C1179 C 0.27948 0.35666 0.50302 0.0
O1180 O 0.3415 0.28054 0.6326 0.0
O1181 O 0.39917 0.28991 0.59761 0.0
C1182 C 0.26397 0.38174 0.61428 0.0
C1183 C 0.37764 0.26789 0.62309 0.0
Fe1184 Fe 0.44741 0.30694 0.15542 0.0
O1185 O 0.41429 0.36635 0.14991 0.0
Fe1186 Fe 0.33375 0.32919 0.18423 0.0
Fe1187 Fe 0.42167 0.4225 0.18602 0.0
O1188 O 0.39016 0.33926 0.15151 0.0
O1189 O 0.35302 0.39198 0.18665 0.0
O1190 O 0.35989 0.39991 0.18596 0.0
Fe1191 Fe 0.3139 0.43897 0.16826 0.0
C1192 C 0.47285 0.36463 0.23253 0.0
O1193 O 0.47638 0.33316 0.10421 0.0
O1194 O 0.44669 0.38349 0.1354 0.0
O1195 O 0.2894 0.40405 0.11953 0.0
O1196 O 0.29487 0.33708 0.13204 0.0
O1197 O 0.37508 0.30553 0.13861 0.0
O1198 O 0.42116 0.27143 0.10775 0.0
O1199 O 0.41472 0.46944 0.14018 0.0
O1200 O 0.35235 0.45541 0.11872 0.0
C1201 C 0.38378 0.27166 0.11741 0.0
O1202 O 0.27526 0.41562 0.21439 0.0
O1203 O 0.2861 0.34531 0.2253 0.0
O1204 O 0.47973 0.33951 0.20255 0.0
O1205 O 0.43837 0.38414 0.23485 0.0
C1206 C 0.47909 0.37127 0.11319 0.0
C1207 C 0.3831 0.48031 0.11854 0.0
C1208 C 0.3679 0.48464 0.23955 0.0
O1209 O 0.40391 0.46724 0.2324 0.0
O1210 O 0.33577 0.47827 0.21609 0.0
C1211 C 0.27316 0.36792 0.11863 0.0
O1212 O 0.36825 0.30966 0.23803 0.0
O1213 O 0.42041 0.27511 0.20856 0.0
C1214 C 0.26888 0.38101 0.23435 0.0
C1215 C 0.39487 0.2793 0.23896 0.0
Fe1216 Fe 0.44364 0.1617 0.31019 0.0
O1217 O 0.38621 0.16263 0.34008 0.0
Fe1218 Fe 0.41098 0.18342 0.41244 0.0
Fe1219 Fe 0.33029 0.19723 0.32498 0.0
O1220 O 0.40456 0.1568 0.35771 0.0
O1221 O 0.3512 0.20035 0.39673 0.0
O1222 O 0.34756 0.19867 0.38813 0.0
Fe1223 Fe 0.3046 0.18674 0.43362 0.0
C1224 C 0.39469 0.24506 0.27398 0.0
O1225 O 0.41604 0.11186 0.27644 0.0
O1226 O 0.36683 0.14816 0.30001 0.0
O1227 O 0.33287 0.14183 0.46103 0.0
O1228 O 0.39575 0.12658 0.44263 0.0
O1229 O 0.47338 0.15856 0.41389 0.0
O1230 O 0.46421 0.11856 0.35607 0.0
O1231 O 0.29012 0.14643 0.33408 0.0
O1232 O 0.28351 0.13525 0.40114 0.0
C1233 C 0.48692 0.12959 0.3877 0.0
O1234 O 0.33306 0.23134 0.46959 0.0
O1235 O 0.40437 0.21928 0.4686 0.0
O1236 O 0.41853 0.21208 0.27033 0.0
O1237 O 0.36897 0.24756 0.30469 0.0
C1238 C 0.37875 0.12325 0.27086 0.0
C1239 C 0.27029 0.13041 0.36457 0.0
C1240 C 0.26623 0.25293 0.37526 0.0
O1241 O 0.28424 0.24382 0.34019 0.0
O1242 O 0.27041 0.23154 0.40808 0.0
C1243 C 0.36297 0.11796 0.46307 0.0
O1244 O 0.43487 0.23966 0.38861 0.0
O1245 O 0.47324 0.21157 0.33884 0.0
C1246 C 0.37096 0.24015 0.48062 0.0
C1247 C 0.46724 0.24024 0.36558 0.0
Fe1248 Fe 0.90656 0.19552 0.69491 0.0
O1249 O 0.89829 0.13694 0.66142 0.0
Fe1250 Fe 0.93765 0.1735 0.58218 0.0
Fe1251 Fe 0.93188 0.07959 0.66999 0.0
O1252 O 0.9015 0.16345 0.63703 0.0
O1253 O 0.93718 0.11021 0.60121 0.0
O1254 O 0.93515 0.10195 0.60846 0.0
Fe1255 Fe 0.92205 0.06363 0.56025 0.0
C1256 C 0.9803 0.13202 0.72184 0.0
O1257 O 0.85548 0.17036 0.72502 0.0
O1258 O 0.88531 0.12007 0.69537 0.0
O1259 O 0.87341 0.09874 0.53739 0.0
O1260 O 0.8917 0.16581 0.53633 0.0
O1261 O 0.88942 0.19731 0.62133 0.0
O1262 O 0.85949 0.2315 0.66833 0.0
O1263 O 0.88537 0.03424 0.66136 0.0
O1264 O 0.87481 0.03684 0.59425 0.0
C1265 C 0.86907 0.2316 0.6309 0.0
O1266 O 0.96646 0.0913 0.5217 0.0
O1267 O 0.97928 0.16043 0.53622 0.0
O1268 O 0.95324 0.16107 0.72702 0.0
O1269 O 0.98267 0.11421 0.68686 0.0
C1270 C 0.86537 0.1326 0.72859 0.0
C1271 C 0.87535 0.01578 0.62751 0.0
C1272 C 0.98471 0.01871 0.62124 0.0
O1273 O 0.97302 0.03432 0.65588 0.0
O1274 O 0.96827 0.02614 0.58522 0.0
C1275 C 0.87261 0.13443 0.52026 0.0
O1276 O 0.9904 0.19078 0.619 0.0
O1277 O 0.95992 0.2277 0.668 0.0
C1278 C 0.98547 0.12653 0.51544 0.0
C1279 C 0.991 0.22262 0.64347 0.0
Fe1280 Fe 0.80834 0.1691 0.16539 0.0
O1281 O 0.80159 0.10616 0.14776 0.0
Fe1282 Fe 0.83892 0.1854 0.05047 0.0
Fe1283 Fe 0.81251 0.05912 0.18951 0.0
O1284 O 0.83738 0.15245 0.10691 0.0
O1285 O 0.83832 0.13911 0.09021 0.0
O1286 O 0.79629 0.09894 0.14354 0.0
Fe1287 Fe 0.80863 0.08496 0.08198 0.0
C1288 C 0.8744 0.1251 0.22314 0.0
O1289 O 0.76304 0.15502 0.21225 0.0
O1290 O 0.77271 0.08649 0.22798 0.0
O1291 O 0.75311 0.11467 0.05495 0.0
O1292 O 0.78656 0.16304 0.01845 0.0
O1293 O 0.7941 0.22785 0.0794 0.0
O1294 O 0.7599 0.19147 0.1289 0.0
O1295 O 0.76501 0.02684 0.16365 0.0
O1296 O 0.77176 0.02891 0.09145 0.0
C1297 C 0.76433 0.2247 0.1067 0.0
O1298 O 0.83273 0.08239 0.02008 0.0
O1299 O 0.87778 0.13712 0.02789 0.0
O1300 O 0.86052 0.15637 0.20245 0.0
O1301 O 0.86659 0.08824 0.2107 0.0
C1302 C 0.75315 0.12066 0.23172 0.0
C1303 C 0.75513 0.01498 0.12652 0.0
C1304 C 0.87017 0.02423 0.12391 0.0
O1305 O 0.85039 0.02672 0.15647 0.0
O1306 O 0.86301 0.04954 0.09408 0.0
C1307 C 0.7545 0.14001 0.02302 0.0
O1308 O 0.89084 0.21334 0.07787 0.0
O1309 O 0.85465 0.19652 0.12959 0.0
C1310 C 0.86431 0.10526 0.00667 0.0
C1311 C 0.88076 0.22266 0.11466 0.0
Fe1312 Fe 0.4178 0.56212 0.32996 0.0
O1313 O 0.36122 0.59835 0.33635 0.0
Fe1314 Fe 0.43059 0.5743 0.44072 0.0
Fe1315 Fe 0.30349 0.59568 0.30234 0.0
O1316 O 0.39349 0.56162 0.39026 0.0
O1317 O 0.38557 0.56193 0.3986 0.0
O1318 O 0.33603 0.60269 0.36011 0.0
Fe1319 Fe 0.32223 0.56945 0.41657 0.0
C1320 C 0.36733 0.63118 0.26745 0.0
O1321 O 0.38244 0.51203 0.30914 0.0
O1322 O 0.33436 0.54512 0.27015 0.0
O1323 O 0.32593 0.52866 0.4648 0.0
O1324 O 0.39429 0.53846 0.47875 0.0
O1325 O 0.46634 0.52163 0.42328 0.0
O1326 O 0.46463 0.51914 0.35179 0.0
O1327 O 0.26945 0.54698 0.33195 0.0
O1328 O 0.30766 0.51821 0.38124 0.0
C1329 C 0.4788 0.50647 0.38794 0.0
O1330 O 0.33239 0.61746 0.4604 0.0
O1331 O 0.39933 0.6294 0.45353 0.0
O1332 O 0.37992 0.60735 0.29827 0.0
O1333 O 0.33119 0.64404 0.27281 0.0
C1334 C 0.36185 0.51568 0.27496 0.0
C1335 C 0.27467 0.51876 0.35962 0.0
C1336 C 0.26788 0.63731 0.3638 0.0
O1337 O 0.27049 0.64645 0.3265 0.0
O1338 O 0.30095 0.61607 0.37517 0.0
C1339 C 0.35839 0.52244 0.48675 0.0
O1340 O 0.46903 0.61051 0.40692 0.0
O1341 O 0.45788 0.61201 0.33921 0.0
C1342 C 0.36629 0.63344 0.47447 0.0
C1343 C 0.47759 0.62417 0.37137 0.0
Fe1344 Fe 0.69471 0.40892 0.69343 0.0
O1345 O 0.66124 0.40206 0.63599 0.0
Fe1346 Fe 0.58186 0.44158 0.67152 0.0
Fe1347 Fe 0.67124 0.43118 0.57604 0.0
O1348 O 0.63732 0.40519 0.66066 0.0
O1349 O 0.60345 0.44172 0.60834 0.0
O1350 O 0.61177 0.4394 0.59864 0.0
Fe1351 Fe 0.56259 0.42382 0.56279 0.0
C1352 C 0.72457 0.48059 0.62796 0.0
O1353 O 0.72489 0.35772 0.66838 0.0
O1354 O 0.69838 0.38963 0.61853 0.0
O1355 O 0.55164 0.3749 0.6025 0.0
O1356 O 0.53528 0.3943 0.66378 0.0
O1357 O 0.62031 0.39551 0.69743 0.0
O1358 O 0.66706 0.36057 0.72559 0.0
O1359 O 0.65822 0.37699 0.54207 0.0
O1360 O 0.59109 0.37502 0.53178 0.0
C1361 C 0.62999 0.37052 0.7279 0.0
O1362 O 0.5272 0.47017 0.58947 0.0
O1363 O 0.53642 0.48296 0.65818 0.0
O1364 O 0.72778 0.45524 0.65925 0.0
O1365 O 0.69142 0.48305 0.60632 0.0
C1366 C 0.72923 0.36632 0.63121 0.0
C1367 C 0.62722 0.36778 0.51872 0.0
C1368 C 0.6195 0.4858 0.51319 0.0
O1369 O 0.65475 0.47162 0.52727 0.0
O1370 O 0.5835 0.47089 0.52333 0.0
C1371 C 0.52439 0.37601 0.63008 0.0
O1372 O 0.61889 0.49403 0.68905 0.0
O1373 O 0.6668 0.46195 0.72776 0.0
C1374 C 0.51852 0.48926 0.62316 0.0
C1375 C 0.64231 0.49405 0.72159 0.0
Fe1376 Fe 0.17149 0.94095 0.8102 0.0
O1377 O 0.18983 0.90012 0.85649 0.0
Fe1378 Fe 0.18021 0.83401 0.82893 0.0
Fe1379 Fe 0.19337 0.92146 0.91904 0.0
O1380 O 0.1868 0.89496 0.84907 0.0
O1381 O 0.15128 0.84468 0.88893 0.0
O1382 O 0.15547 0.86745 0.91273 0.0
Fe1383 Fe 0.15961 0.80812 0.94295 0.0
C1384 C 0.24138 0.98634 0.86538 0.0
O1385 O 0.12087 0.95272 0.84509 0.0
O1386 O 0.14579 0.96605 0.90743 0.0
O1387 O 0.10854 0.77598 0.91744 0.0
O1388 O 0.136 0.81071 0.87081 0.0
O1389 O 0.12622 0.84302 0.79353 0.0
O1390 O 0.12143 0.91 0.78436 0.0
O1391 O 0.14698 0.88708 0.95495 0.0
O1392 O 0.11202 0.83248 0.97306 0.0
C1393 C 0.11588 0.87371 0.7704 0.0
O1394 O 0.20755 0.77912 0.90976 0.0
O1395 O 0.23348 0.8187 0.85964 0.0
O1396 O 0.21627 0.98135 0.83458 0.0
O1397 O 0.23819 0.96576 0.89983 0.0
C1398 C 0.12002 0.97401 0.87745 0.0
C1399 C 0.11952 0.8701 0.97997 0.0
C1400 C 0.24324 0.85843 0.97052 0.0
O1401 O 0.24421 0.88262 0.93838 0.0
O1402 O 0.20988 0.83691 0.97823 0.0
C1403 C 0.11572 0.77654 0.87979 0.0
O1404 O 0.22151 0.8475 0.78083 0.0
O1405 O 0.2192 0.91865 0.773 0.0
C1406 C 0.23383 0.78534 0.88055 0.0
C1407 C 0.23573 0.88239 0.76596 0.0
Fe1408 Fe 0.69472 0.90894 0.19345 0.0
O1409 O 0.66124 0.90208 0.13601 0.0
Fe1410 Fe 0.5819 0.94162 0.17154 0.0
Fe1411 Fe 0.67124 0.93119 0.07606 0.0
O1412 O 0.63734 0.90522 0.16068 0.0
O1413 O 0.60348 0.94177 0.10835 0.0
O1414 O 0.61178 0.93944 0.09865 0.0
Fe1415 Fe 0.56262 0.92385 0.0628 0.0
C1416 C 0.72458 0.98057 0.12796 0.0
O1417 O 0.72489 0.85773 0.1684 0.0
O1418 O 0.69837 0.88965 0.11854 0.0
O1419 O 0.55181 0.87493 0.10251 0.0
O1420 O 0.53541 0.89436 0.16381 0.0
O1421 O 0.62034 0.89556 0.19746 0.0
O1422 O 0.66708 0.86059 0.22561 0.0
O1423 O 0.65823 0.877 0.0421 0.0
O1424 O 0.59111 0.87506 0.03177 0.0
C1425 C 0.63001 0.87055 0.22793 0.0
O1426 O 0.52719 0.97016 0.08949 0.0
O1427 O 0.53644 0.98298 0.1582 0.0
O1428 O 0.72779 0.95524 0.15926 0.0
O1429 O 0.69142 0.98306 0.10633 0.0
C1430 C 0.72922 0.86633 0.13122 0.0
C1431 C 0.62724 0.86778 0.01875 0.0
C1432 C 0.6195 0.98582 0.01319 0.0
O1433 O 0.65476 0.97163 0.02728 0.0
O1434 O 0.5835 0.97093 0.02334 0.0
C1435 C 0.52462 0.87601 0.13012 0.0
O1436 O 0.61892 0.99407 0.18906 0.0
O1437 O 0.66681 0.96198 0.22778 0.0
C1438 C 0.51851 0.98925 0.12319 0.0
C1439 C 0.64232 0.99408 0.22161 0.0
Fe1440 Fe 0.4178 0.0621 0.82996 0.0
O1441 O 0.36123 0.09834 0.83636 0.0
Fe1442 Fe 0.43061 0.07431 0.94073 0.0
Fe1443 Fe 0.3035 0.09569 0.80236 0.0
O1444 O 0.39351 0.06161 0.89027 0.0
O1445 O 0.3856 0.06193 0.8986 0.0
O1446 O 0.33605 0.10268 0.86012 0.0
Fe1447 Fe 0.32226 0.06943 0.91657 0.0
C1448 C 0.36734 0.13116 0.76745 0.0
O1449 O 0.38243 0.01201 0.80916 0.0
O1450 O 0.33436 0.04512 0.77016 0.0
O1451 O 0.32601 0.02863 0.96478 0.0
O1452 O 0.39437 0.0384 0.97879 0.0
O1453 O 0.46639 0.02167 0.92328 0.0
O1454 O 0.46463 0.0191 0.8518 0.0
O1455 O 0.26946 0.04699 0.83195 0.0
O1456 O 0.30768 0.01821 0.88122 0.0
C1457 C 0.47882 0.00648 0.88795 0.0
O1458 O 0.3324 0.11743 0.96041 0.0
O1459 O 0.39934 0.12939 0.95354 0.0
O1460 O 0.37995 0.10733 0.79826 0.0
O1461 O 0.33121 0.14404 0.77285 0.0
C1462 C 0.36185 0.01568 0.77497 0.0
C1463 C 0.27468 0.01876 0.85962 0.0
C1464 C 0.26789 0.1373 0.86382 0.0
O1465 O 0.2705 0.14644 0.82652 0.0
O1466 O 0.30097 0.11606 0.87518 0.0
C1467 C 0.35846 0.02238 0.98675 0.0
O1468 O 0.46902 0.11056 0.90693 0.0
O1469 O 0.45791 0.11196 0.8392 0.0
C1470 C 0.36629 0.13343 0.97447 0.0
C1471 C 0.4776 0.12418 0.87136 0.0
Fe1472 Fe 0.80864 0.66922 0.66529 0.0
O1473 O 0.8017 0.60623 0.64774 0.0
Fe1474 Fe 0.83896 0.6856 0.55032 0.0
Fe1475 Fe 0.81255 0.55915 0.68949 0.0
O1476 O 0.83773 0.65273 0.60686 0.0
O1477 O 0.83847 0.63909 0.59004 0.0
O1478 O 0.7964 0.59902 0.6435 0.0
Fe1479 Fe 0.80867 0.58497 0.58195 0.0
C1480 C 0.87447 0.62511 0.72316 0.0
O1481 O 0.76325 0.65511 0.71223 0.0
O1482 O 0.77272 0.58653 0.72793 0.0
O1483 O 0.75313 0.61466 0.55495 0.0
O1484 O 0.7866 0.663 0.51843 0.0
O1485 O 0.79402 0.72786 0.57928 0.0
O1486 O 0.76006 0.69147 0.6289 0.0
O1487 O 0.76504 0.52686 0.66364 0.0
O1488 O 0.77177 0.52892 0.59144 0.0
C1489 C 0.76433 0.72467 0.60665 0.0
O1490 O 0.83277 0.5824 0.52007 0.0
O1491 O 0.87782 0.63721 0.5278 0.0
O1492 O 0.86074 0.65642 0.7024 0.0
O1493 O 0.86662 0.58826 0.71071 0.0
C1494 C 0.75323 0.62074 0.73166 0.0
C1495 C 0.75514 0.515 0.62652 0.0
C1496 C 0.8702 0.52423 0.62389 0.0
O1497 O 0.85045 0.52674 0.65648 0.0
O1498 O 0.86302 0.54951 0.59405 0.0
C1499 C 0.75453 0.63998 0.52301 0.0
O1500 O 0.89102 0.71442 0.5774 0.0
O1501 O 0.85529 0.6964 0.62897 0.0
C1502 C 0.86433 0.60529 0.50665 0.0
C1503 C 0.88091 0.72335 0.61423 0.0
Fe1504 Fe 0.17148 0.44094 0.3102 0.0
O1505 O 0.18983 0.40011 0.3565 0.0
Fe1506 Fe 0.18021 0.33401 0.32895 0.0
Fe1507 Fe 0.19336 0.42146 0.41904 0.0
O1508 O 0.18679 0.39496 0.34908 0.0
O1509 O 0.15128 0.34468 0.38894 0.0
O1510 O 0.15545 0.36745 0.41274 0.0
Fe1511 Fe 0.1596 0.30813 0.44296 0.0
C1512 C 0.24136 0.48633 0.36539 0.0
O1513 O 0.12086 0.4527 0.3451 0.0
O1514 O 0.14578 0.46605 0.40743 0.0
O1515 O 0.10853 0.27598 0.41745 0.0
O1516 O 0.13599 0.31072 0.37083 0.0
O1517 O 0.12623 0.343 0.29354 0.0
O1518 O 0.12142 0.40998 0.28437 0.0
O1519 O 0.14697 0.38707 0.45495 0.0
O1520 O 0.112 0.33249 0.47307 0.0
C1521 C 0.11588 0.37369 0.27041 0.0
O1522 O 0.20754 0.27912 0.40979 0.0
O1523 O 0.23348 0.31871 0.35967 0.0
O1524 O 0.21626 0.48135 0.33459 0.0
O1525 O 0.23818 0.46576 0.39984 0.0
C1526 C 0.12001 0.474 0.37745 0.0
C1527 C 0.11951 0.3701 0.47998 0.0
C1528 C 0.24324 0.35843 0.47051 0.0
O1529 O 0.24419 0.38262 0.43836 0.0
O1530 O 0.20987 0.33692 0.47823 0.0
C1531 C 0.1157 0.27655 0.37979 0.0
O1532 O 0.22152 0.34749 0.28085 0.0
O1533 O 0.21919 0.41864 0.273 0.0
C1534 C 0.23383 0.28536 0.38059 0.0
C1535 C 0.23572 0.38238 0.26597 0.0
loop_
_geom_bond_atom_site_label_1
_geom_bond_atom_site_label_2
_geom_bond_distance
_geom_bond_site_symmetry_2
_ccdc_geom_bond_type
Fe0 O1 1.886 . S
Fe0 O4 1.715 . S
Fe0 O9 2.077 . S
Fe0 O14 1.935 . S
Fe0 O20 2.077 . S
Fe0 O29 1.935 . S
O1 Fe0 1.886 . S
O1 Fe3 1.715 . S
Fe2 O4 1.886 . S
Fe2 O5 1.715 . S
Fe2 O12 1.935 . S
Fe2 O13 2.077 . S
Fe2 O19 1.935 . S
Fe2 O28 2.077 . S
Fe3 O1 1.715 . S
Fe3 O6 1.886 . S
Fe3 O10 1.935 . S
Fe3 O15 2.077 . S
Fe3 O21 1.935 . S
Fe3 O25 2.077 . S
O4 Fe0 1.715 . S
O4 Fe2 1.886 . S
O5 Fe2 1.715 . S
O5 Fe7 1.886 . S
O6 Fe3 1.886 . S
O6 Fe7 1.715 . S
Fe7 O5 1.886 . S
Fe7 O6 1.715 . S
Fe7 O11 2.077 . S
Fe7 O16 1.935 . S
Fe7 O18 2.077 . S
Fe7 O26 1.935 . S
C8 O20 1.381 . S
C8 O21 1.421 . S
O9 Fe0 2.077 . S
O9 C22 1.381 . S
O10 Fe3 1.935 . S
O10 C22 1.421 . S
O11 Fe7 2.077 . S
O11 C27 1.381 . S
O12 Fe2 1.935 . S
O12 C27 1.421 . S
O13 Fe2 2.077 . S
O13 C17 1.381 . S
O14 Fe0 1.935 . S
O14 C17 1.421 . S
O15 Fe3 2.077 . S
O15 C23 1.381 . S
O16 Fe7 1.935 . S
O16 C23 1.421 . S
C17 O13 1.381 . S
C17 O14 1.421 . S
O18 Fe7 2.077 . S
O18 C30 1.381 . S
O19 Fe2 1.935 . S
O19 C30 1.421 . S
O20 Fe0 2.077 . S
O20 C8 1.381 . S
O21 Fe3 1.935 . S
O21 C8 1.421 . S
C22 O9 1.381 . S
C22 O10 1.421 . S
C23 O15 1.381 . S
C23 O16 1.421 . S
C24 O25 1.381 . S
C24 O26 1.421 . S
O25 Fe3 2.077 . S
O25 C24 1.381 . S
O26 Fe7 1.935 . S
O26 C24 1.421 . S
C27 O11 1.381 . S
C27 O12 1.421 . S
O28 Fe2 2.077 . S
O28 C31 1.381 . S
O29 Fe0 1.935 . S
O29 C31 1.421 . S
C30 O18 1.381 . S
C30 O19 1.421 . S
C31 O28 1.381 . S
C31 O29 1.421 . S
Fe32 O33 1.886 . S
Fe32 O36 1.715 . S
Fe32 O41 2.077 . S
Fe32 O46 1.935 . S
Fe32 O52 2.077 . S
Fe32 O61 1.935 . S
O33 Fe32 1.886 . S
O33 Fe35 1.715 . S
Fe34 O36 1.886 . S
Fe34 O37 1.715 . S
Fe34 O44 1.935 . S
Fe34 O45 2.077 . S
Fe34 O51 1.935 . S
Fe34 O60 2.077 . S
Fe35 O33 1.715 . S
Fe35 O38 1.886 . S
Fe35 O42 1.935 . S
Fe35 O47 2.077 . S
Fe35 O53 1.935 . S
Fe35 O57 2.077 . S
O36 Fe32 1.715 . S
O36 Fe34 1.886 . S
O37 Fe34 1.715 . S
O37 Fe39 1.886 . S
O38 Fe35 1.886 . S
O38 Fe39 1.715 . S
Fe39 O37 1.886 . S
Fe39 O38 1.715 . S
Fe39 O43 2.077 . S
Fe39 O48 1.935 . S
Fe39 O50 2.077 . S
Fe39 O58 1.935 . S
C40 O52 1.381 . S
C40 O53 1.421 . S
O41 Fe32 2.077 . S
O41 C54 1.381 . S
O42 Fe35 1.935 . S
O42 C54 1.421 . S
O43 Fe39 2.077 . S
O43 C59 1.381 . S
O44 Fe34 1.935 . S
O44 C59 1.421 . S
O45 Fe34 2.077 . S
O45 C49 1.381 . S
O46 Fe32 1.935 . S
O46 C49 1.421 . S
O47 Fe35 2.077 . S
O47 C55 1.381 . S
O48 Fe39 1.935 . S
O48 C55 1.421 . S
C49 O45 1.381 . S
C49 O46 1.421 . S
O50 Fe39 2.077 . S
O50 C62 1.381 . S
O51 Fe34 1.935 . S
O51 C62 1.421 . S
O52 Fe32 2.077 . S
O52 C40 1.381 . S
O53 Fe35 1.935 . S
O53 C40 1.421 . S
C54 O41 1.381 . S
C54 O42 1.421 . S
C55 O47 1.381 . S
C55 O48 1.421 . S
C56 O57 1.381 . S
C56 O58 1.421 . S
O57 Fe35 2.077 . S
O57 C56 1.381 . S
O58 Fe39 1.935 . S
O58 C56 1.421 . S
C59 O43 1.381 . S
C59 O44 1.421 . S
O60 Fe34 2.077 . S
O60 C63 1.381 . S
O61 Fe32 1.935 . S
O61 C63 1.421 . S
C62 O50 1.381 . S
C62 O51 1.421 . S
C63 O60 1.381 . S
C63 O61 1.421 . S
Fe64 O65 1.886 . S
Fe64 O68 1.715 . S
Fe64 O73 2.077 . S
Fe64 O78 1.935 . S
Fe64 O84 2.077 . S
Fe64 O93 1.935 . S
O65 Fe64 1.886 . S
O65 Fe67 1.715 . S
Fe66 O68 1.886 . S
Fe66 O69 1.715 . S
Fe66 O76 1.935 . S
Fe66 O77 2.077 . S
Fe66 O83 1.935 . S
Fe66 O92 2.077 . S
Fe67 O65 1.715 . S
Fe67 O70 1.886 . S
Fe67 O74 1.935 . S
Fe67 O79 2.077 . S
Fe67 O85 1.935 . S
Fe67 O89 2.077 . S
O68 Fe64 1.715 . S
O68 Fe66 1.886 . S
O69 Fe66 1.715 . S
O69 Fe71 1.886 . S
O70 Fe67 1.886 . S
O70 Fe71 1.715 . S
Fe71 O69 1.886 . S
Fe71 O70 1.715 . S
Fe71 O75 2.077 . S
Fe71 O80 1.935 . S
Fe71 O82 2.077 . S
Fe71 O90 1.935 . S
C72 O84 1.381 . S
C72 O85 1.421 . S
O73 Fe64 2.077 . S
O73 C86 1.381 . S
O74 Fe67 1.935 . S
O74 C86 1.421 . S
O75 Fe71 2.077 . S
O75 C91 1.381 . S
O76 Fe66 1.935 . S
O76 C91 1.421 . S
O77 Fe66 2.077 . S
O77 C81 1.381 . S
O78 Fe64 1.935 . S
O78 C81 1.421 . S
O79 Fe67 2.077 . S
O79 C87 1.381 . S
O80 Fe71 1.935 . S
O80 C87 1.421 . S
C81 O77 1.381 . S
C81 O78 1.421 . S
O82 Fe71 2.077 . S
O82 C94 1.381 . S
O83 Fe66 1.935 . S
O83 C94 1.421 . S
O84 Fe64 2.077 . S
O84 C72 1.381 . S
O85 Fe67 1.935 . S
O85 C72 1.421 . S
C86 O73 1.381 . S
C86 O74 1.421 . S
C87 O79 1.381 . S
C87 O80 1.421 . S
C88 O89 1.381 . S
C88 O90 1.421 . S
O89 Fe67 2.077 . S
O89 C88 1.381 . S
O90 Fe71 1.935 . S
O90 C88 1.421 . S
C91 O75 1.381 . S
C91 O76 1.421 . S
O92 Fe66 2.077 . S
O92 C95 1.381 . S
O93 Fe64 1.935 . S
O93 C95 1.421 . S
C94 O82 1.381 . S
C94 O83 1.421 . S
C95 O92 1.381 . S
C95 O93 1.421 . S
Fe96 O97 1.886 . S
Fe96 O100 1.715 . S
Fe96 O105 2.077 . S
Fe96 O110 1.935 . S
Fe96 O116 2.077 . S
Fe96 O125 1.935 . S
O97 Fe96 1.886 . S
O97 Fe99 1.715 . S
Fe98 O100 1.886 . S
Fe98 O101 1.715 . S
Fe98 O108 1.935 . S
Fe98 O109 2.077 . S
Fe98 O115 1.935 . S
Fe98 O124 2.077 . S
Fe99 O97 1.715 . S
Fe99 O102 1.886 . S
Fe99 O106 1.935 . S
Fe99 O111 2.077 . S
Fe99 O117 1.935 . S
Fe99 O121 2.077 . S
O100 Fe96 1.715 . S
O100 Fe98 1.886 . S
O101 Fe98 1.715 . S
O101 Fe103 1.886 . S
O102 Fe99 1.886 . S
O102 Fe103 1.715 . S
Fe103 O101 1.886 . S
Fe103 O102 1.715 . S
Fe103 O107 2.077 . S
Fe103 O112 1.935 . S
Fe103 O114 2.077 . S
Fe103 O122 1.935 . S
C104 O116 1.381 . S
C104 O117 1.421 . S
O105 Fe96 2.077 . S
O105 C118 1.381 . S
O106 Fe99 1.935 . S
O106 C118 1.421 . S
O107 Fe103 2.077 . S
O107 C123 1.381 . S
O108 Fe98 1.935 . S
O108 C123 1.421 . S
O109 Fe98 2.077 . S
O109 C113 1.381 . S
O110 Fe96 1.935 . S
O110 C113 1.421 . S
O111 Fe99 2.077 . S
O111 C119 1.381 . S
O112 Fe103 1.935 . S
O112 C119 1.421 . S
C113 O109 1.381 . S
C113 O110 1.421 . S
O114 Fe103 2.077 . S
O114 C126 1.381 . S
O115 Fe98 1.935 . S
O115 C126 1.421 . S
O116 Fe96 2.077 . S
O116 C104 1.381 . S
O117 Fe99 1.935 . S
O117 C104 1.421 . S
C118 O105 1.381 . S
C118 O106 1.421 . S
C119 O111 1.381 . S
C119 O112 1.421 . S
C120 O121 1.381 . S
C120 O122 1.421 . S
O121 Fe99 2.077 . S
O121 C120 1.381 . S
O122 Fe103 1.935 . S
O122 C120 1.421 . S
C123 O107 1.381 . S
C123 O108 1.421 . S
O124 Fe98 2.077 . S
O124 C127 1.381 . S
O125 Fe96 1.935 . S
O125 C127 1.421 . S
C126 O114 1.381 . S
C126 O115 1.421 . S
C127 O124 1.381 . S
C127 O125 1.421 . S
Fe128 O129 1.886 . S
Fe128 O132 1.715 . S
Fe128 O137 2.077 . S
Fe128 O142 1.935 . S
Fe128 O148 2.077 . S
Fe128 O157 1.935 . S
O129 Fe128 1.886 . S
O129 Fe131 1.715 . S
Fe130 O132 1.886 . S
Fe130 O133 1.715 . S
Fe130 O140 1.935 . S
Fe130 O141 2.077 . S
Fe130 O147 1.935 . S
Fe130 O156 2.077 . S
Fe131 O129 1.715 . S
Fe131 O134 1.886 . S
Fe131 O138 1.935 . S
Fe131 O143 2.077 . S
Fe131 O149 1.935 . S
Fe131 O153 2.077 . S
O132 Fe128 1.715 . S
O132 Fe130 1.886 . S
O133 Fe130 1.715 . S
O133 Fe135 1.886 . S
O134 Fe131 1.886 . S
O134 Fe135 1.715 . S
Fe135 O133 1.886 . S
Fe135 O134 1.715 . S
Fe135 O139 2.077 . S
Fe135 O144 1.935 . S
Fe135 O146 2.077 . S
Fe135 O154 1.935 . S
C136 O148 1.381 . S
C136 O149 1.421 . S
O137 Fe128 2.077 . S
O137 C150 1.381 . S
O138 Fe131 1.935 . S
O138 C150 1.421 . S
O139 Fe135 2.077 . S
O139 C155 1.381 . S
O140 Fe130 1.935 . S
O140 C155 1.421 . S
O141 Fe130 2.077 . S
O141 C145 1.381 . S
O142 Fe128 1.935 . S
O142 C145 1.421 . S
O143 Fe131 2.077 . S
O143 C151 1.381 . S
O144 Fe135 1.935 . S
O144 C151 1.421 . S
C145 O141 1.381 . S
C145 O142 1.421 . S
O146 Fe135 2.077 . S
O146 C158 1.381 . S
O147 Fe130 1.935 . S
O147 C158 1.421 . S
O148 Fe128 2.077 . S
O148 C136 1.381 . S
O149 Fe131 1.935 . S
O149 C136 1.421 . S
C150 O137 1.381 . S
C150 O138 1.421 . S
C151 O143 1.381 . S
C151 O144 1.421 . S
C152 O153 1.381 . S
C152 O154 1.421 . S
O153 Fe131 2.077 . S
O153 C152 1.381 . S
O154 Fe135 1.935 . S
O154 C152 1.421 . S
C155 O139 1.381 . S
C155 O140 1.421 . S
O156 Fe130 2.077 . S
O156 C159 1.381 . S
O157 Fe128 1.935 . S
O157 C159 1.421 . S
C158 O146 1.381 . S
C158 O147 1.421 . S
C159 O156 1.381 . S
C159 O157 1.421 . S
Fe160 O161 1.886 . S
Fe160 O164 1.715 . S
Fe160 O169 2.077 . S
Fe160 O174 1.935 . S
Fe160 O180 2.077 . S
Fe160 O189 1.935 . S
O161 Fe160 1.886 . S
O161 Fe163 1.715 . S
Fe162 O164 1.886 . S
Fe162 O165 1.715 . S
Fe162 O172 1.935 . S
Fe162 O173 2.077 . S
Fe162 O179 1.935 . S
Fe162 O188 2.077 . S
Fe163 O161 1.715 . S
Fe163 O166 1.886 . S
Fe163 O170 1.935 . S
Fe163 O175 2.077 . S
Fe163 O181 1.935 . S
Fe163 O185 2.077 . S
O164 Fe160 1.715 . S
O164 Fe162 1.886 . S
O165 Fe162 1.715 . S
O165 Fe167 1.886 . S
O166 Fe163 1.886 . S
O166 Fe167 1.715 . S
Fe167 O165 1.886 . S
Fe167 O166 1.715 . S
Fe167 O171 2.077 . S
Fe167 O176 1.935 . S
Fe167 O178 2.077 . S
Fe167 O186 1.935 . S
C168 O180 1.381 . S
C168 O181 1.421 . S
O169 Fe160 2.077 . S
O169 C182 1.381 . S
O170 Fe163 1.935 . S
O170 C182 1.421 . S
O171 Fe167 2.077 . S
O171 C187 1.381 . S
O172 Fe162 1.935 . S
O172 C187 1.421 . S
O173 Fe162 2.077 . S
O173 C177 1.381 . S
O174 Fe160 1.935 . S
O174 C177 1.421 . S
O175 Fe163 2.077 . S
O175 C183 1.381 . S
O176 Fe167 1.935 . S
O176 C183 1.421 . S
C177 O173 1.381 . S
C177 O174 1.421 . S
O178 Fe167 2.077 . S
O178 C190 1.381 . S
O179 Fe162 1.935 . S
O179 C190 1.421 . S
O180 Fe160 2.077 . S
O180 C168 1.381 . S
O181 Fe163 1.935 . S
O181 C168 1.421 . S
C182 O169 1.381 . S
C182 O170 1.421 . S
C183 O175 1.381 . S
C183 O176 1.421 . S
C184 O185 1.381 . S
C184 O186 1.421 . S
O185 Fe163 2.077 . S
O185 C184 1.381 . S
O186 Fe167 1.935 . S
O186 C184 1.421 . S
C187 O171 1.381 . S
C187 O172 1.421 . S
O188 Fe162 2.077 . S
O188 C191 1.381 . S
O189 Fe160 1.935 . S
O189 C191 1.421 . S
C190 O178 1.381 . S
C190 O179 1.421 . S
C191 O188 1.381 . S
C191 O189 1.421 . S
Fe192 O193 1.886 . S
Fe192 O196 1.715 . S
Fe192 O201 2.077 . S
Fe192 O206 1.935 . S
Fe192 O212 2.077 . S
Fe192 O221 1.935 . S
O193 Fe192 1.886 . S
O193 Fe195 1.715 . S
Fe194 O196 1.886 . S
Fe194 O197 1.715 . S
Fe194 O204 1.935 . S
Fe194 O205 2.077 . S
Fe194 O211 1.935 . S
Fe194 O220 2.077 . S
Fe195 O193 1.715 . S
Fe195 O198 1.886 . S
Fe195 O202 1.935 . S
Fe195 O207 2.077 . S
Fe195 O213 1.935 . S
Fe195 O217 2.077 . S
O196 Fe192 1.715 . S
O196 Fe194 1.886 . S
O197 Fe194 1.715 . S
O197 Fe199 1.886 . S
O198 Fe195 1.886 . S
O198 Fe199 1.715 . S
Fe199 O197 1.886 . S
Fe199 O198 1.715 . S
Fe199 O203 2.077 . S
Fe199 O208 1.935 . S
Fe199 O210 2.077 . S
Fe199 O218 1.935 . S
C200 O212 1.381 . S
C200 O213 1.421 . S
O201 Fe192 2.077 . S
O201 C214 1.381 . S
O202 Fe195 1.935 . S
O202 C214 1.421 . S
O203 Fe199 2.077 . S
O203 C219 1.381 . S
O204 Fe194 1.935 . S
O204 C219 1.421 . S
O205 Fe194 2.077 . S
O205 C209 1.381 . S
O206 Fe192 1.935 . S
O206 C209 1.421 . S
O207 Fe195 2.077 . S
O207 C215 1.381 . S
O208 Fe199 1.935 . S
O208 C215 1.421 . S
C209 O205 1.381 . S
C209 O206 1.421 . S
O210 Fe199 2.077 . S
O210 C222 1.381 . S
O211 Fe194 1.935 . S
O211 C222 1.421 . S
O212 Fe192 2.077 . S
O212 C200 1.381 . S
O213 Fe195 1.935 . S
O213 C200 1.421 . S
C214 O201 1.381 . S
C214 O202 1.421 . S
C215 O207 1.381 . S
C215 O208 1.421 . S
C216 O217 1.381 . S
C216 O218 1.421 . S
O217 Fe195 2.077 . S
O217 C216 1.381 . S
O218 Fe199 1.935 . S
O218 C216 1.421 . S
C219 O203 1.381 . S
C219 O204 1.421 . S
O220 Fe194 2.077 . S
O220 C223 1.381 . S
O221 Fe192 1.935 . S
O221 C223 1.421 . S
C222 O210 1.381 . S
C222 O211 1.421 . S
C223 O220 1.381 . S
C223 O221 1.421 . S
Fe224 O225 1.886 . S
Fe224 O228 1.715 . S
Fe224 O233 2.077 . S
Fe224 O238 1.935 . S
Fe224 O244 2.077 . S
Fe224 O253 1.935 . S
O225 Fe224 1.886 . S
O225 Fe227 1.715 . S
Fe226 O228 1.886 . S
Fe226 O229 1.715 . S
Fe226 O236 1.935 . S
Fe226 O237 2.077 . S
Fe226 O243 1.935 . S
Fe226 O252 2.077 . S
Fe227 O225 1.715 . S
Fe227 O230 1.886 . S
Fe227 O234 1.935 . S
Fe227 O239 2.077 . S
Fe227 O245 1.935 . S
Fe227 O249 2.077 . S
O228 Fe224 1.715 . S
O228 Fe226 1.886 . S
O229 Fe226 1.715 . S
O229 Fe231 1.886 . S
O230 Fe227 1.886 . S
O230 Fe231 1.715 . S
Fe231 O229 1.886 . S
Fe231 O230 1.715 . S
Fe231 O235 2.077 . S
Fe231 O240 1.935 . S
Fe231 O242 2.077 . S
Fe231 O250 1.935 . S
C232 O244 1.381 . S
C232 O245 1.421 . S
O233 Fe224 2.077 . S
O233 C246 1.381 . S
O234 Fe227 1.935 . S
O234 C246 1.421 . S
O235 Fe231 2.077 . S
O235 C251 1.381 . S
O236 Fe226 1.935 . S
O236 C251 1.421 . S
O237 Fe226 2.077 . S
O237 C241 1.381 . S
O238 Fe224 1.935 . S
O238 C241 1.421 . S
O239 Fe227 2.077 . S
O239 C247 1.381 . S
O240 Fe231 1.935 . S
O240 C247 1.421 . S
C241 O237 1.381 . S
C241 O238 1.421 . S
O242 Fe231 2.077 . S
O242 C254 1.381 . S
O243 Fe226 1.935 . S
O243 C254 1.421 . S
O244 Fe224 2.077 . S
O244 C232 1.381 . S
O245 Fe227 1.935 . S
O245 C232 1.421 . S
C246 O233 1.381 . S
C246 O234 1.421 . S
C247 O239 1.381 . S
C247 O240 1.421 . S
C248 O249 1.381 . S
C248 O250 1.421 . S
O249 Fe227 2.077 . S
O249 C248 1.381 . S
O250 Fe231 1.935 . S
O250 C248 1.421 . S
C251 O235 1.381 . S
C251 O236 1.421 . S
O252 Fe226 2.077 . S
O252 C255 1.381 . S
O253 Fe224 1.935 . S
O253 C255 1.421 . S
C254 O242 1.381 . S
C254 O243 1.421 . S
C255 O252 1.381 . S
C255 O253 1.421 . S
Fe256 O257 1.886 . S
Fe256 O260 1.715 . S
Fe256 O265 2.077 . S
Fe256 O270 1.935 . S
Fe256 O276 2.077 . S
Fe256 O285 1.935 . S
O257 Fe256 1.886 . S
O257 Fe259 1.715 . S
Fe258 O260 1.886 . S
Fe258 O261 1.715 . S
Fe258 O268 1.935 . S
Fe258 O269 2.077 . S
Fe258 O275 1.935 . S
Fe258 O284 2.077 . S
Fe259 O257 1.715 . S
Fe259 O262 1.886 . S
Fe259 O266 1.935 . S
Fe259 O271 2.077 . S
Fe259 O277 1.935 . S
Fe259 O281 2.077 . S
O260 Fe256 1.715 . S
O260 Fe258 1.886 . S
O261 Fe258 1.715 . S
O261 Fe263 1.886 . S
O262 Fe259 1.886 . S
O262 Fe263 1.715 . S
Fe263 O261 1.886 . S
Fe263 O262 1.715 . S
Fe263 O267 2.077 . S
Fe263 O272 1.935 . S
Fe263 O274 2.077 . S
Fe263 O282 1.935 . S
C264 O276 1.381 . S
C264 O277 1.421 . S
O265 Fe256 2.077 . S
O265 C278 1.381 . S
O266 Fe259 1.935 . S
O266 C278 1.421 . S
O267 Fe263 2.077 . S
O267 C283 1.381 . S
O268 Fe258 1.935 . S
O268 C283 1.421 . S
O269 Fe258 2.077 . S
O269 C273 1.381 . S
O270 Fe256 1.935 . S
O270 C273 1.421 . S
O271 Fe259 2.077 . S
O271 C279 1.381 . S
O272 Fe263 1.935 . S
O272 C279 1.421 . S
C273 O269 1.381 . S
C273 O270 1.421 . S
O274 Fe263 2.077 . S
O274 C286 1.381 . S
O275 Fe258 1.935 . S
O275 C286 1.421 . S
O276 Fe256 2.077 . S
O276 C264 1.381 . S
O277 Fe259 1.935 . S
O277 C264 1.421 . S
C278 O265 1.381 . S
C278 O266 1.421 . S
C279 O271 1.381 . S
C279 O272 1.421 . S
C280 O281 1.381 . S
C280 O282 1.421 . S
O281 Fe259 2.077 . S
O281 C280 1.381 . S
O282 Fe263 1.935 . S
O282 C280 1.421 . S
C283 O267 1.381 . S
C283 O268 1.421 . S
O284 Fe258 2.077 . S
O284 C287 1.381 . S
O285 Fe256 1.935 . S
O285 C287 1.421 . S
C286 O274 1.381 . S
C286 O275 1.421 . S
C287 O284 1.381 . S
C287 O285 1.421 . S
Fe288 O289 1.886 . S
Fe288 O292 1.715 . S
Fe288 O297 2.077 . S
Fe288 O302 1.935 . S
Fe288 O308 2.077 . S
Fe288 O317 1.935 . S
O289 Fe288 1.886 . S
O289 Fe291 1.715 . S
Fe290 O292 1.886 . S
Fe290 O293 1.715 . S
Fe290 O300 1.935 . S
Fe290 O301 2.077 . S
Fe290 O307 1.935 . S
Fe290 O316 2.077 . S
Fe291 O289 1.715 . S
Fe291 O294 1.886 . S
Fe291 O298 1.935 . S
Fe291 O303 2.077 . S
Fe291 O309 1.935 . S
Fe291 O313 2.077 . S
O292 Fe288 1.715 . S
O292 Fe290 1.886 . S
O293 Fe290 1.715 . S
O293 Fe295 1.886 . S
O294 Fe291 1.886 . S
O294 Fe295 1.715 . S
Fe295 O293 1.886 . S
Fe295 O294 1.715 . S
Fe295 O299 2.077 . S
Fe295 O304 1.935 . S
Fe295 O306 2.077 . S
Fe295 O314 1.935 . S
C296 O308 1.381 . S
C296 O309 1.421 . S
O297 Fe288 2.077 . S
O297 C310 1.381 . S
O298 Fe291 1.935 . S
O298 C310 1.421 . S
O299 Fe295 2.077 . S
O299 C315 1.381 . S
O300 Fe290 1.935 . S
O300 C315 1.421 . S
O301 Fe290 2.077 . S
O301 C305 1.381 . S
O302 Fe288 1.935 . S
O302 C305 1.421 . S
O303 Fe291 2.077 . S
O303 C311 1.381 . S
O304 Fe295 1.935 . S
O304 C311 1.421 . S
C305 O301 1.381 . S
C305 O302 1.421 . S
O306 Fe295 2.077 . S
O306 C318 1.381 . S
O307 Fe290 1.935 . S
O307 C318 1.421 . S
O308 Fe288 2.077 . S
O308 C296 1.381 . S
O309 Fe291 1.935 . S
O309 C296 1.421 . S
C310 O297 1.381 . S
C310 O298 1.421 . S
C311 O303 1.381 . S
C311 O304 1.421 . S
C312 O313 1.381 . S
C312 O314 1.421 . S
O313 Fe291 2.077 . S
O313 C312 1.381 . S
O314 Fe295 1.935 . S
O314 C312 1.421 . S
C315 O299 1.381 . S
C315 O300 1.421 . S
O316 Fe290 2.077 . S
O316 C319 1.381 . S
O317 Fe288 1.935 . S
O317 C319 1.421 . S
C318 O306 1.381 . S
C318 O307 1.421 . S
C319 O316 1.381 . S
C319 O317 1.421 . S
Fe320 O321 1.886 . S
Fe320 O324 1.715 . S
Fe320 O329 2.077 . S
Fe320 O334 1.935 . S
Fe320 O340 2.077 . S
Fe320 O349 1.935 . S
O321 Fe320 1.886 . S
O321 Fe323 1.715 . S
Fe322 O324 1.886 . S
Fe322 O325 1.715 . S
Fe322 O332 1.935 . S
Fe322 O333 2.077 . S
Fe322 O339 1.935 . S
Fe322 O348 2.077 . S
Fe323 O321 1.715 . S
Fe323 O326 1.886 . S
Fe323 O330 1.935 . S
Fe323 O335 2.077 . S
Fe323 O341 1.935 . S
Fe323 O345 2.077 . S
O324 Fe320 1.715 . S
O324 Fe322 1.886 . S
O325 Fe322 1.715 . S
O325 Fe327 1.886 . S
O326 Fe323 1.886 . S
O326 Fe327 1.715 . S
Fe327 O325 1.886 . S
Fe327 O326 1.715 . S
Fe327 O331 2.077 . S
Fe327 O336 1.935 . S
Fe327 O338 2.077 . S
Fe327 O346 1.935 . S
C328 O340 1.381 . S
C328 O341 1.421 . S
O329 Fe320 2.077 . S
O329 C342 1.381 . S
O330 Fe323 1.935 . S
O330 C342 1.421 . S
O331 Fe327 2.077 . S
O331 C347 1.381 . S
O332 Fe322 1.935 . S
O332 C347 1.421 . S
O333 Fe322 2.077 . S
O333 C337 1.381 . S
O334 Fe320 1.935 . S
O334 C337 1.421 . S
O335 Fe323 2.077 . S
O335 C343 1.381 . S
O336 Fe327 1.935 . S
O336 C343 1.421 . S
C337 O333 1.381 . S
C337 O334 1.421 . S
O338 Fe327 2.077 . S
O338 C350 1.381 . S
O339 Fe322 1.935 . S
O339 C350 1.421 . S
O340 Fe320 2.077 . S
O340 C328 1.381 . S
O341 Fe323 1.935 . S
O341 C328 1.421 . S
C342 O329 1.381 . S
C342 O330 1.421 . S
C343 O335 1.381 . S
C343 O336 1.421 . S
C344 O345 1.381 . S
C344 O346 1.421 . S
O345 Fe323 2.077 . S
O345 C344 1.381 . S
O346 Fe327 1.935 . S
O346 C344 1.421 . S
C347 O331 1.381 . S
C347 O332 1.421 . S
O348 Fe322 2.077 . S
O348 C351 1.381 . S
O349 Fe320 1.935 . S
O349 C351 1.421 . S
C350 O338 1.381 . S
C350 O339 1.421 . S
C351 O348 1.381 . S
C351 O349 1.421 . S
Fe352 O353 1.886 . S
Fe352 O356 1.715 . S
Fe352 O361 2.077 . S
Fe352 O366 1.935 . S
Fe352 O372 2.077 . S
Fe352 O381 1.935 . S
O353 Fe352 1.886 . S
O353 Fe355 1.715 . S
Fe354 O356 1.886 . S
Fe354 O357 1.715 . S
Fe354 O364 1.935 . S
Fe354 O365 2.077 . S
Fe354 O371 1.935 . S
Fe354 O380 2.077 . S
Fe355 O353 1.715 . S
Fe355 O358 1.886 . S
Fe355 O362 1.935 . S
Fe355 O367 2.077 . S
Fe355 O373 1.935 . S
Fe355 O377 2.077 . S
O356 Fe352 1.715 . S
O356 Fe354 1.886 . S
O357 Fe354 1.715 . S
O357 Fe359 1.886 . S
O358 Fe355 1.886 . S
O358 Fe359 1.715 . S
Fe359 O357 1.886 . S
Fe359 O358 1.715 . S
Fe359 O363 2.077 . S
Fe359 O368 1.935 . S
Fe359 O370 2.077 . S
Fe359 O378 1.935 . S
C360 O372 1.381 . S
C360 O373 1.421 . S
O361 Fe352 2.077 . S
O361 C374 1.381 . S
O362 Fe355 1.935 . S
O362 C374 1.421 . S
O363 Fe359 2.077 . S
O363 C379 1.381 . S
O364 Fe354 1.935 . S
O364 C379 1.421 . S
O365 Fe354 2.077 . S
O365 C369 1.381 . S
O366 Fe352 1.935 . S
O366 C369 1.421 . S
O367 Fe355 2.077 . S
O367 C375 1.381 . S
O368 Fe359 1.935 . S
O368 C375 1.421 . S
C369 O365 1.381 . S
C369 O366 1.421 . S
O370 Fe359 2.077 . S
O370 C382 1.381 . S
O371 Fe354 1.935 . S
O371 C382 1.421 . S
O372 Fe352 2.077 . S
O372 C360 1.381 . S
O373 Fe355 1.935 . S
O373 C360 1.421 . S
C374 O361 1.381 . S
C374 O362 1.421 . S
C375 O367 1.381 . S
C375 O368 1.421 . S
C376 O377 1.381 . S
C376 O378 1.421 . S
O377 Fe355 2.077 . S
O377 C376 1.381 . S
O378 Fe359 1.935 . S
O378 C376 1.421 . S
C379 O363 1.381 . S
C379 O364 1.421 . S
O380 Fe354 2.077 . S
O380 C383 1.381 . S
O381 Fe352 1.935 . S
O381 C383 1.421 . S
C382 O370 1.381 . S
C382 O371 1.421 . S
C383 O380 1.381 . S
C383 O381 1.421 . S
Fe384 O385 1.886 . S
Fe384 O388 1.715 . S
Fe384 O393 2.077 . S
Fe384 O398 1.935 . S
Fe384 O404 2.077 . S
Fe384 O413 1.935 . S
O385 Fe384 1.886 . S
O385 Fe387 1.715 . S
Fe386 O388 1.886 . S
Fe386 O389 1.715 . S
Fe386 O396 1.935 . S
Fe386 O397 2.077 . S
Fe386 O403 1.935 . S
Fe386 O412 2.077 . S
Fe387 O385 1.715 . S
Fe387 O390 1.886 . S
Fe387 O394 1.935 . S
Fe387 O399 2.077 . S
Fe387 O405 1.935 . S
Fe387 O409 2.077 . S
O388 Fe384 1.715 . S
O388 Fe386 1.886 . S
O389 Fe386 1.715 . S
O389 Fe391 1.886 . S
O390 Fe387 1.886 . S
O390 Fe391 1.715 . S
Fe391 O389 1.886 . S
Fe391 O390 1.715 . S
Fe391 O395 2.077 . S
Fe391 O400 1.935 . S
Fe391 O402 2.077 . S
Fe391 O410 1.935 . S
C392 O404 1.381 . S
C392 O405 1.421 . S
O393 Fe384 2.077 . S
O393 C406 1.381 . S
O394 Fe387 1.935 . S
O394 C406 1.421 . S
O395 Fe391 2.077 . S
O395 C411 1.381 . S
O396 Fe386 1.935 . S
O396 C411 1.421 . S
O397 Fe386 2.077 . S
O397 C401 1.381 . S
O398 Fe384 1.935 . S
O398 C401 1.421 . S
O399 Fe387 2.077 . S
O399 C407 1.381 . S
O400 Fe391 1.935 . S
O400 C407 1.421 . S
C401 O397 1.381 . S
C401 O398 1.421 . S
O402 Fe391 2.077 . S
O402 C414 1.381 . S
O403 Fe386 1.935 . S
O403 C414 1.421 . S
O404 Fe384 2.077 . S
O404 C392 1.381 . S
O405 Fe387 1.935 . S
O405 C392 1.421 . S
C406 O393 1.381 . S
C406 O394 1.421 . S
C407 O399 1.381 . S
C407 O400 1.421 . S
C408 O409 1.381 . S
C408 O410 1.421 . S
O409 Fe387 2.077 . S
O409 C408 1.381 . S
O410 Fe391 1.935 . S
O410 C408 1.421 . S
C411 O395 1.381 . S
C411 O396 1.421 . S
O412 Fe386 2.077 . S
O412 C415 1.381 . S
O413 Fe384 1.935 . S
O413 C415 1.421 . S
C414 O402 1.381 . S
C414 O403 1.421 . S
C415 O412 1.381 . S
C415 O413 1.421 . S
Fe416 O417 1.886 . S
Fe416 O420 1.715 . S
Fe416 O425 2.077 . S
Fe416 O430 1.935 . S
Fe416 O436 2.077 . S
Fe416 O445 1.935 . S
O417 Fe416 1.886 . S
O417 Fe419 1.715 . S
Fe418 O420 1.886 . S
Fe418 O421 1.715 . S
Fe418 O428 1.935 . S
Fe418 O429 2.077 . S
Fe418 O435 1.935 . S
Fe418 O444 2.077 . S
Fe419 O417 1.715 . S
Fe419 O422 1.886 . S
Fe419 O426 1.935 . S
Fe419 O431 2.077 . S
Fe419 O437 1.935 . S
Fe419 O441 2.077 . S
O420 Fe416 1.715 . S
O420 Fe418 1.886 . S
O421 Fe418 1.715 . S
O421 Fe423 1.886 . S
O422 Fe419 1.886 . S
O422 Fe423 1.715 . S
Fe423 O421 1.886 . S
Fe423 O422 1.715 . S
Fe423 O427 2.077 . S
Fe423 O432 1.935 . S
Fe423 O434 2.077 . S
Fe423 O442 1.935 . S
C424 O436 1.381 . S
C424 O437 1.421 . S
O425 Fe416 2.077 . S
O425 C438 1.381 . S
O426 Fe419 1.935 . S
O426 C438 1.421 . S
O427 Fe423 2.077 . S
O427 C443 1.381 . S
O428 Fe418 1.935 . S
O428 C443 1.421 . S
O429 Fe418 2.077 . S
O429 C433 1.381 . S
O430 Fe416 1.935 . S
O430 C433 1.421 . S
O431 Fe419 2.077 . S
O431 C439 1.381 . S
O432 Fe423 1.935 . S
O432 C439 1.421 . S
C433 O429 1.381 . S
C433 O430 1.421 . S
O434 Fe423 2.077 . S
O434 C446 1.381 . S
O435 Fe418 1.935 . S
O435 C446 1.421 . S
O436 Fe416 2.077 . S
O436 C424 1.381 . S
O437 Fe419 1.935 . S
O437 C424 1.421 . S
C438 O425 1.381 . S
C438 O426 1.421 . S
C439 O431 1.381 . S
C439 O432 1.421 . S
C440 O441 1.381 . S
C440 O442 1.421 . S
O441 Fe419 2.077 . S
O441 C440 1.381 . S
O442 Fe423 1.935 . S
O442 C440 1.421 . S
C443 O427 1.381 . S
C443 O428 1.421 . S
O444 Fe418 2.077 . S
O444 C447 1.381 . S
O445 Fe416 1.935 . S
O445 C447 1.421 . S
C446 O434 1.381 . S
C446 O435 1.421 . S
C447 O444 1.381 . S
C447 O445 1.421 . S
Fe448 O449 1.886 . S
Fe448 O452 1.715 . S
Fe448 O457 2.077 . S
Fe448 O462 1.935 . S
Fe448 O468 2.077 . S
Fe448 O477 1.935 . S
O449 Fe448 1.886 . S
O449 Fe451 1.715 . S
Fe450 O452 1.886 . S
Fe450 O453 1.715 . S
Fe450 O460 1.935 . S
Fe450 O461 2.077 . S
Fe450 O467 1.935 . S
Fe450 O476 2.077 . S
Fe451 O449 1.715 . S
Fe451 O454 1.886 . S
Fe451 O458 1.935 . S
Fe451 O463 2.077 . S
Fe451 O469 1.935 . S
Fe451 O473 2.077 . S
O452 Fe448 1.715 . S
O452 Fe450 1.886 . S
O453 Fe450 1.715 . S
O453 Fe455 1.886 . S
O454 Fe451 1.886 . S
O454 Fe455 1.715 . S
Fe455 O453 1.886 . S
Fe455 O454 1.715 . S
Fe455 O459 2.077 . S
Fe455 O464 1.935 . S
Fe455 O466 2.077 . S
Fe455 O474 1.935 . S
C456 O468 1.381 . S
C456 O469 1.421 . S
O457 Fe448 2.077 . S
O457 C470 1.381 . S
O458 Fe451 1.935 . S
O458 C470 1.421 . S
O459 Fe455 2.077 . S
O459 C475 1.381 . S
O460 Fe450 1.935 . S
O460 C475 1.421 . S
O461 Fe450 2.077 . S
O461 C465 1.381 . S
O462 Fe448 1.935 . S
O462 C465 1.421 . S
O463 Fe451 2.077 . S
O463 C471 1.381 . S
O464 Fe455 1.935 . S
O464 C471 1.421 . S
C465 O461 1.381 . S
C465 O462 1.421 . S
O466 Fe455 2.077 . S
O466 C478 1.381 . S
O467 Fe450 1.935 . S
O467 C478 1.421 . S
O468 Fe448 2.077 . S
O468 C456 1.381 . S
O469 Fe451 1.935 . S
O469 C456 1.421 . S
C470 O457 1.381 . S
C470 O458 1.421 . S
C471 O463 1.381 . S
C471 O464 1.421 . S
C472 O473 1.381 . S
C472 O474 1.421 . S
O473 Fe451 2.077 . S
O473 C472 1.381 . S
O474 Fe455 1.935 . S
O474 C472 1.421 . S
C475 O459 1.381 . S
C475 O460 1.421 . S
O476 Fe450 2.077 . S
O476 C479 1.381 . S
O477 Fe448 1.935 . S
O477 C479 1.421 . S
C478 O466 1.381 . S
C478 O467 1.421 . S
C479 O476 1.381 . S
C479 O477 1.421 . S
Fe480 O481 1.886 . S
Fe480 O484 1.715 . S
Fe480 O489 2.077 . S
Fe480 O494 1.935 . S
Fe480 O500 2.077 . S
Fe480 O509 1.935 . S
O481 Fe480 1.886 . S
O481 Fe483 1.715 . S
Fe482 O484 1.886 . S
Fe482 O485 1.715 . S
Fe482 O492 1.935 . S
Fe482 O493 2.077 . S
Fe482 O499 1.935 . S
Fe482 O508 2.077 . S
Fe483 O481 1.715 . S
Fe483 O486 1.886 . S
Fe483 O490 1.935 . S
Fe483 O495 2.077 . S
Fe483 O501 1.935 . S
Fe483 O505 2.077 . S
O484 Fe480 1.715 . S
O484 Fe482 1.886 . S
O485 Fe482 1.715 . S
O485 Fe487 1.886 . S
O486 Fe483 1.886 . S
O486 Fe487 1.715 . S
Fe487 O485 1.886 . S
Fe487 O486 1.715 . S
Fe487 O491 2.077 . S
Fe487 O496 1.935 . S
Fe487 O498 2.077 . S
Fe487 O506 1.935 . S
C488 O500 1.381 . S
C488 O501 1.421 . S
O489 Fe480 2.077 . S
O489 C502 1.381 . S
O490 Fe483 1.935 . S
O490 C502 1.421 . S
O491 Fe487 2.077 . S
O491 C507 1.381 . S
O492 Fe482 1.935 . S
O492 C507 1.421 . S
O493 Fe482 2.077 . S
O493 C497 1.381 . S
O494 Fe480 1.935 . S
O494 C497 1.421 . S
O495 Fe483 2.077 . S
O495 C503 1.381 . S
O496 Fe487 1.935 . S
O496 C503 1.421 . S
C497 O493 1.381 . S
C497 O494 1.421 . S
O498 Fe487 2.077 . S
O498 C510 1.381 . S
O499 Fe482 1.935 . S
O499 C510 1.421 . S
O500 Fe480 2.077 . S
O500 C488 1.381 . S
O501 Fe483 1.935 . S
O501 C488 1.421 . S
C502 O489 1.381 . S
C502 O490 1.421 . S
C503 O495 1.381 . S
C503 O496 1.421 . S
C504 O505 1.381 . S
C504 O506 1.421 . S
O505 Fe483 2.077 . S
O505 C504 1.381 . S
O506 Fe487 1.935 . S
O506 C504 1.421 . S
C507 O491 1.381 . S
C507 O492 1.421 . S
O508 Fe482 2.077 . S
O508 C511 1.381 . S
O509 Fe480 1.935 . S
O509 C511 1.421 . S
C510 O498 1.381 . S
C510 O499 1.421 . S
C511 O508 1.381 . S
C511 O509 1.421 . S
Fe512 O513 1.886 . S
Fe512 O516 1.715 . S
Fe512 O521 2.077 . S
Fe512 O526 1.935 . S
Fe512 O532 2.077 . S
Fe512 O541 1.935 . S
O513 Fe512 1.886 . S
O513 Fe515 1.715 . S
Fe514 O516 1.886 . S
Fe514 O517 1.715 . S
Fe514 O524 1.935 . S
Fe514 O525 2.077 . S
Fe514 O531 1.935 . S
Fe514 O540 2.077 . S
Fe515 O513 1.715 . S
Fe515 O518 1.886 . S
Fe515 O522 1.935 . S
Fe515 O527 2.077 . S
Fe515 O533 1.935 . S
Fe515 O537 2.077 . S
O516 Fe512 1.715 . S
O516 Fe514 1.886 . S
O517 Fe514 1.715 . S
O517 Fe519 1.886 . S
O518 Fe515 1.886 . S
O518 Fe519 1.715 . S
Fe519 O517 1.886 . S
Fe519 O518 1.715 . S
Fe519 O523 2.077 . S
Fe519 O528 1.935 . S
Fe519 O530 2.077 . S
Fe519 O538 1.935 . S
C520 O532 1.381 . S
C520 O533 1.421 . S
O521 Fe512 2.077 . S
O521 C534 1.381 . S
O522 Fe515 1.935 . S
O522 C534 1.421 . S
O523 Fe519 2.077 . S
O523 C539 1.381 . S
O524 Fe514 1.935 . S
O524 C539 1.421 . S
O525 Fe514 2.077 . S
O525 C529 1.381 . S
O526 Fe512 1.935 . S
O526 C529 1.421 . S
O527 Fe515 2.077 . S
O527 C535 1.381 . S
O528 Fe519 1.935 . S
O528 C535 1.421 . S
C529 O525 1.381 . S
C529 O526 1.421 . S
O530 Fe519 2.077 . S
O530 C542 1.381 . S
O531 Fe514 1.935 . S
O531 C542 1.421 . S
O532 Fe512 2.077 . S
O532 C520 1.381 . S
O533 Fe515 1.935 . S
O533 C520 1.421 . S
C534 O521 1.381 . S
C534 O522 1.421 . S
C535 O527 1.381 . S
C535 O528 1.421 . S
C536 O537 1.381 . S
C536 O538 1.421 . S
O537 Fe515 2.077 . S
O537 C536 1.381 . S
O538 Fe519 1.935 . S
O538 C536 1.421 . S
C539 O523 1.381 . S
C539 O524 1.421 . S
O540 Fe514 2.077 . S
O540 C543 1.381 . S
O541 Fe512 1.935 . S
O541 C543 1.421 . S
C542 O530 1.381 . S
C542 O531 1.421 . S
C543 O540 1.381 . S
C543 O541 1.421 . S
Fe544 O545 1.886 . S
Fe544 O548 1.715 . S
Fe544 O553 2.077 . S
Fe544 O558 1.935 . S
Fe544 O564 2.077 . S
Fe544 O573 1.935 . S
O545 Fe544 1.886 . S
O545 Fe547 1.715 . S
Fe546 O548 1.886 . S
Fe546 O549 1.715 . S
Fe546 O556 1.935 . S
Fe546 O557 2.077 . S
Fe546 O563 1.935 . S
Fe546 O572 2.077 . S
Fe547 O545 1.715 . S
Fe547 O550 1.886 . S
Fe547 O554 1.935 . S
Fe547 O559 2.077 . S
Fe547 O565 1.935 . S
Fe547 O569 2.077 . S
O548 Fe544 1.715 . S
O548 Fe546 1.886 . S
O549 Fe546 1.715 . S
O549 Fe551 1.886 . S
O550 Fe547 1.886 . S
O550 Fe551 1.715 . S
Fe551 O549 1.886 . S
Fe551 O550 1.715 . S
Fe551 O555 2.077 . S
Fe551 O560 1.935 . S
Fe551 O562 2.077 . S
Fe551 O570 1.935 . S
C552 O564 1.381 . S
C552 O565 1.421 . S
O553 Fe544 2.077 . S
O553 C566 1.381 . S
O554 Fe547 1.935 . S
O554 C566 1.421 . S
O555 Fe551 2.077 . S
O555 C571 1.381 . S
O556 Fe546 1.935 . S
O556 C571 1.421 . S
O557 Fe546 2.077 . S
O557 C561 1.381 . S
O558 Fe544 1.935 . S
O558 C561 1.421 . S
O559 Fe547 2.077 . S
O559 C567 1.381 . S
O560 Fe551 1.935 . S
O560 C567 1.421 . S
C561 O557 1.381 . S
C561 O558 1.421 . S
O562 Fe551 2.077 . S
O562 C574 1.381 . S
O563 Fe546 1.935 . S
O563 C574 1.421 . S
O564 Fe544 2.077 . S
O564 C552 1.381 . S
O565 Fe547 1.935 . S
O565 C552 1.421 . S
C566 O553 1.381 . S
C566 O554 1.421 . S
C567 O559 1.381 . S
C567 O560 1.421 . S
C568 O569 1.381 . S
C568 O570 1.421 . S
O569 Fe547 2.077 . S
O569 C568 1.381 . S
O570 Fe551 1.935 . S
O570 C568 1.421 . S
C571 O555 1.381 . S
C571 O556 1.421 . S
O572 Fe546 2.077 . S
O572 C575 1.381 . S
O573 Fe544 1.935 . S
O573 C575 1.421 . S
C574 O562 1.381 . S
C574 O563 1.421 . S
C575 O572 1.381 . S
C575 O573 1.421 . S
Fe576 O577 1.886 . S
Fe576 O580 1.715 . S
Fe576 O585 2.077 . S
Fe576 O590 1.935 . S
Fe576 O596 2.077 . S
Fe576 O605 1.935 . S
O577 Fe576 1.886 . S
O577 Fe579 1.715 . S
Fe578 O580 1.886 . S
Fe578 O581 1.715 . S
Fe578 O588 1.935 . S
Fe578 O589 2.077 . S
Fe578 O595 1.935 . S
Fe578 O604 2.077 . S
Fe579 O577 1.715 . S
Fe579 O582 1.886 . S
Fe579 O586 1.935 . S
Fe579 O591 2.077 . S
Fe579 O597 1.935 . S
Fe579 O601 2.077 . S
O580 Fe576 1.715 . S
O580 Fe578 1.886 . S
O581 Fe578 1.715 . S
O581 Fe583 1.886 . S
O582 Fe579 1.886 . S
O582 Fe583 1.715 . S
Fe583 O581 1.886 . S
Fe583 O582 1.715 . S
Fe583 O587 2.077 . S
Fe583 O592 1.935 . S
Fe583 O594 2.077 . S
Fe583 O602 1.935 . S
C584 O596 1.381 . S
C584 O597 1.421 . S
O585 Fe576 2.077 . S
O585 C598 1.381 . S
O586 Fe579 1.935 . S
O586 C598 1.421 . S
O587 Fe583 2.077 . S
O587 C603 1.381 . S
O588 Fe578 1.935 . S
O588 C603 1.421 . S
O589 Fe578 2.077 . S
O589 C593 1.381 . S
O590 Fe576 1.935 . S
O590 C593 1.421 . S
O591 Fe579 2.077 . S
O591 C599 1.381 . S
O592 Fe583 1.935 . S
O592 C599 1.421 . S
C593 O589 1.381 . S
C593 O590 1.421 . S
O594 Fe583 2.077 . S
O594 C606 1.381 . S
O595 Fe578 1.935 . S
O595 C606 1.421 . S
O596 Fe576 2.077 . S
O596 C584 1.381 . S
O597 Fe579 1.935 . S
O597 C584 1.421 . S
C598 O585 1.381 . S
C598 O586 1.421 . S
C599 O591 1.381 . S
C599 O592 1.421 . S
C600 O601 1.381 . S
C600 O602 1.421 . S
O601 Fe579 2.077 . S
O601 C600 1.381 . S
O602 Fe583 1.935 . S
O602 C600 1.421 . S
C603 O587 1.381 . S
C603 O588 1.421 . S
O604 Fe578 2.077 . S
O604 C607 1.381 . S
O605 Fe576 1.935 . S
O605 C607 1.421 . S
C606 O594 1.381 . S
C606 O595 1.421 . S
C607 O604 1.381 . S
C607 O605 1.421 . S
Fe608 O609 1.886 . S
Fe608 O612 1.715 . S
Fe608 O617 2.077 . S
Fe608 O622 1.935 . S
Fe608 O628 2.077 . S
Fe608 O637 1.935 . S
O609 Fe608 1.886 . S
O609 Fe611 1.715 . S
Fe610 O612 1.886 . S
Fe610 O613 1.715 . S
Fe610 O620 1.935 . S
Fe610 O621 2.077 . S
Fe610 O627 1.935 . S
Fe610 O636 2.077 . S
Fe611 O609 1.715 . S
Fe611 O614 1.886 . S
Fe611 O618 1.935 . S
Fe611 O623 2.077 . S
Fe611 O629 1.935 . S
Fe611 O633 2.077 . S
O612 Fe608 1.715 . S
O612 Fe610 1.886 . S
O613 Fe610 1.715 . S
O613 Fe615 1.886 . S
O614 Fe611 1.886 . S
O614 Fe615 1.715 . S
Fe615 O613 1.886 . S
Fe615 O614 1.715 . S
Fe615 O619 2.077 . S
Fe615 O624 1.935 . S
Fe615 O626 2.077 . S
Fe615 O634 1.935 . S
C616 O628 1.381 . S
C616 O629 1.421 . S
O617 Fe608 2.077 . S
O617 C630 1.381 . S
O618 Fe611 1.935 . S
O618 C630 1.421 . S
O619 Fe615 2.077 . S
O619 C635 1.381 . S
O620 Fe610 1.935 . S
O620 C635 1.421 . S
O621 Fe610 2.077 . S
O621 C625 1.381 . S
O622 Fe608 1.935 . S
O622 C625 1.421 . S
O623 Fe611 2.077 . S
O623 C631 1.381 . S
O624 Fe615 1.935 . S
O624 C631 1.421 . S
C625 O621 1.381 . S
C625 O622 1.421 . S
O626 Fe615 2.077 . S
O626 C638 1.381 . S
O627 Fe610 1.935 . S
O627 C638 1.421 . S
O628 Fe608 2.077 . S
O628 C616 1.381 . S
O629 Fe611 1.935 . S
O629 C616 1.421 . S
C630 O617 1.381 . S
C630 O618 1.421 . S
C631 O623 1.381 . S
C631 O624 1.421 . S
C632 O633 1.381 . S
C632 O634 1.421 . S
O633 Fe611 2.077 . S
O633 C632 1.381 . S
O634 Fe615 1.935 . S
O634 C632 1.421 . S
C635 O619 1.381 . S
C635 O620 1.421 . S
O636 Fe610 2.077 . S
O636 C639 1.381 . S
O637 Fe608 1.935 . S
O637 C639 1.421 . S
C638 O626 1.381 . S
C638 O627 1.421 . S
C639 O636 1.381 . S
C639 O637 1.421 . S
Fe640 O641 1.886 . S
Fe640 O644 1.715 . S
Fe640 O649 2.077 . S
Fe640 O654 1.935 . S
Fe640 O660 2.077 . S
Fe640 O669 1.935 . S
O641 Fe640 1.886 . S
O641 Fe643 1.715 . S
Fe642 O644 1.886 . S
Fe642 O645 1.715 . S
Fe642 O652 1.935 . S
Fe642 O653 2.077 . S
Fe642 O659 1.935 . S
Fe642 O668 2.077 . S
Fe643 O641 1.715 . S
Fe643 O646 1.886 . S
Fe643 O650 1.935 . S
Fe643 O655 2.077 . S
Fe643 O661 1.935 . S
Fe643 O665 2.077 . S
O644 Fe640 1.715 . S
O644 Fe642 1.886 . S
O645 Fe642 1.715 . S
O645 Fe647 1.886 . S
O646 Fe643 1.886 . S
O646 Fe647 1.715 . S
Fe647 O645 1.886 . S
Fe647 O646 1.715 . S
Fe647 O651 2.077 . S
Fe647 O656 1.935 . S
Fe647 O658 2.077 . S
Fe647 O666 1.935 . S
C648 O660 1.381 . S
C648 O661 1.421 . S
O649 Fe640 2.077 . S
O649 C662 1.381 . S
O650 Fe643 1.935 . S
O650 C662 1.421 . S
O651 Fe647 2.077 . S
O651 C667 1.381 . S
O652 Fe642 1.935 . S
O652 C667 1.421 . S
O653 Fe642 2.077 . S
O653 C657 1.381 . S
O654 Fe640 1.935 . S
O654 C657 1.421 . S
O655 Fe643 2.077 . S
O655 C663 1.381 . S
O656 Fe647 1.935 . S
O656 C663 1.421 . S
C657 O653 1.381 . S
C657 O654 1.421 . S
O658 Fe647 2.077 . S
O658 C670 1.381 . S
O659 Fe642 1.935 . S
O659 C670 1.421 . S
O660 Fe640 2.077 . S
O660 C648 1.381 . S
O661 Fe643 1.935 . S
O661 C648 1.421 . S
C662 O649 1.381 . S
C662 O650 1.421 . S
C663 O655 1.381 . S
C663 O656 1.421 . S
C664 O665 1.381 . S
C664 O666 1.421 . S
O665 Fe643 2.077 . S
O665 C664 1.381 . S
O666 Fe647 1.935 . S
O666 C664 1.421 . S
C667 O651 1.381 . S
C667 O652 1.421 . S
O668 Fe642 2.077 . S
O668 C671 1.381 . S
O669 Fe640 1.935 . S
O669 C671 1.421 . S
C670 O658 1.381 . S
C670 O659 1.421 . S
C671 O668 1.381 . S
C671 O669 1.421 . S
Fe672 O673 1.886 . S
Fe672 O676 1.715 . S
Fe672 O681 2.077 . S
Fe672 O686 1.935 . S
Fe672 O692 2.077 . S
Fe672 O701 1.935 . S
O673 Fe672 1.886 . S
O673 Fe675 1.715 . S
Fe674 O676 1.886 . S
Fe674 O677 1.715 . S
Fe674 O684 1.935 . S
Fe674 O685 2.077 . S
Fe674 O691 1.935 . S
Fe674 O700 2.077 . S
Fe675 O673 1.715 . S
Fe675 O678 1.886 . S
Fe675 O682 1.935 . S
Fe675 O687 2.077 . S
Fe675 O693 1.935 . S
Fe675 O697 2.077 . S
O676 Fe672 1.715 . S
O676 Fe674 1.886 . S
O677 Fe674 1.715 . S
O677 Fe679 1.886 . S
O678 Fe675 1.886 . S
O678 Fe679 1.715 . S
Fe679 O677 1.886 . S
Fe679 O678 1.715 . S
Fe679 O683 2.077 . S
Fe679 O688 1.935 . S
Fe679 O690 2.077 . S
Fe679 O698 1.935 . S
C680 O692 1.381 . S
C680 O693 1.421 . S
O681 Fe672 2.077 . S
O681 C694 1.381 . S
O682 Fe675 1.935 . S
O682 C694 1.421 . S
O683 Fe679 2.077 . S
O683 C699 1.381 . S
O684 Fe674 1.935 . S
O684 C699 1.421 . S
O685 Fe674 2.077 . S
O685 C689 1.381 . S
O686 Fe672 1.935 . S
O686 C689 1.421 . S
O687 Fe675 2.077 . S
O687 C695 1.381 . S
O688 Fe679 1.935 . S
O688 C695 1.421 . S
C689 O685 1.381 . S
C689 O686 1.421 . S
O690 Fe679 2.077 . S
O690 C702 1.381 . S
O691 Fe674 1.935 . S
O691 C702 1.421 . S
O692 Fe672 2.077 . S
O692 C680 1.381 . S
O693 Fe675 1.935 . S
O693 C680 1.421 . S
C694 O681 1.381 . S
C694 O682 1.421 . S
C695 O687 1.381 . S
C695 O688 1.421 . S
C696 O697 1.381 . S
C696 O698 1.421 . S
O697 Fe675 2.077 . S
O697 C696 1.381 . S
O698 Fe679 1.935 . S
O698 C696 1.421 . S
C699 O683 1.381 . S
C699 O684 1.421 . S
O700 Fe674 2.077 . S
O700 C703 1.381 . S
O701 Fe672 1.935 . S
O701 C703 1.421 . S
C702 O690 1.381 . S
C702 O691 1.421 . S
C703 O700 1.381 . S
C703 O701 1.421 . S
Fe704 O705 1.886 . S
Fe704 O708 1.715 . S
Fe704 O713 2.077 . S
Fe704 O718 1.935 . S
Fe704 O724 2.077 . S
Fe704 O733 1.935 . S
O705 Fe704 1.886 . S
O705 Fe707 1.715 . S
Fe706 O708 1.886 . S
Fe706 O709 1.715 . S
Fe706 O716 1.935 . S
Fe706 O717 2.077 . S
Fe706 O723 1.935 . S
Fe706 O732 2.077 . S
Fe707 O705 1.715 . S
Fe707 O710 1.886 . S
Fe707 O714 1.935 . S
Fe707 O719 2.077 . S
Fe707 O725 1.935 . S
Fe707 O729 2.077 . S
O708 Fe704 1.715 . S
O708 Fe706 1.886 . S
O709 Fe706 1.715 . S
O709 Fe711 1.886 . S
O710 Fe707 1.886 . S
O710 Fe711 1.715 . S
Fe711 O709 1.886 . S
Fe711 O710 1.715 . S
Fe711 O715 2.077 . S
Fe711 O720 1.935 . S
Fe711 O722 2.077 . S
Fe711 O730 1.935 . S
C712 O724 1.381 . S
C712 O725 1.421 . S
O713 Fe704 2.077 . S
O713 C726 1.381 . S
O714 Fe707 1.935 . S
O714 C726 1.421 . S
O715 Fe711 2.077 . S
O715 C731 1.381 . S
O716 Fe706 1.935 . S
O716 C731 1.421 . S
O717 Fe706 2.077 . S
O717 C721 1.381 . S
O718 Fe704 1.935 . S
O718 C721 1.421 . S
O719 Fe707 2.077 . S
O719 C727 1.381 . S
O720 Fe711 1.935 . S
O720 C727 1.421 . S
C721 O717 1.381 . S
C721 O718 1.421 . S
O722 Fe711 2.077 . S
O722 C734 1.381 . S
O723 Fe706 1.935 . S
O723 C734 1.421 . S
O724 Fe704 2.077 . S
O724 C712 1.381 . S
O725 Fe707 1.935 . S
O725 C712 1.421 . S
C726 O713 1.381 . S
C726 O714 1.421 . S
C727 O719 1.381 . S
C727 O720 1.421 . S
C728 O729 1.381 . S
C728 O730 1.421 . S
O729 Fe707 2.077 . S
O729 C728 1.381 . S
O730 Fe711 1.935 . S
O730 C728 1.421 . S
C731 O715 1.381 . S
C731 O716 1.421 . S
O732 Fe706 2.077 . S
O732 C735 1.381 . S
O733 Fe704 1.935 . S
O733 C735 1.421 . S
C734 O722 1.381 . S
C734 O723 1.421 . S
C735 O732 1.381 . S
C735 O733 1.421 . S
Fe736 O737 1.886 . S
Fe736 O740 1.715 . S
Fe736 O745 2.077 . S
Fe736 O750 1.935 . S
Fe736 O756 2.077 . S
Fe736 O765 1.935 . S
O737 Fe736 1.886 . S
O737 Fe739 1.715 . S
Fe738 O740 1.886 . S
Fe738 O741 1.715 . S
Fe738 O748 1.935 . S
Fe738 O749 2.077 . S
Fe738 O755 1.935 . S
Fe738 O764 2.077 . S
Fe739 O737 1.715 . S
Fe739 O742 1.886 . S
Fe739 O746 1.935 . S
Fe739 O751 2.077 . S
Fe739 O757 1.935 . S
Fe739 O761 2.077 . S
O740 Fe736 1.715 . S
O740 Fe738 1.886 . S
O741 Fe738 1.715 . S
O741 Fe743 1.886 . S
O742 Fe739 1.886 . S
O742 Fe743 1.715 . S
Fe743 O741 1.886 . S
Fe743 O742 1.715 . S
Fe743 O747 2.077 . S
Fe743 O752 1.935 . S
Fe743 O754 2.077 . S
Fe743 O762 1.935 . S
C744 O756 1.381 . S
C744 O757 1.421 . S
O745 Fe736 2.077 . S
O745 C758 1.381 . S
O746 Fe739 1.935 . S
O746 C758 1.421 . S
O747 Fe743 2.077 . S
O747 C763 1.381 . S
O748 Fe738 1.935 . S
O748 C763 1.421 . S
O749 Fe738 2.077 . S
O749 C753 1.381 . S
O750 Fe736 1.935 . S
O750 C753 1.421 . S
O751 Fe739 2.077 . S
O751 C759 1.381 . S
O752 Fe743 1.935 . S
O752 C759 1.421 . S
C753 O749 1.381 . S
C753 O750 1.421 . S
O754 Fe743 2.077 . S
O754 C766 1.381 . S
O755 Fe738 1.935 . S
O755 C766 1.421 . S
O756 Fe736 2.077 . S
O756 C744 1.381 . S
O757 Fe739 1.935 . S
O757 C744 1.421 . S
C758 O745 1.381 . S
C758 O746 1.421 . S
C759 O751 1.381 . S
C759 O752 1.421 . S
C760 O761 1.381 . S
C760 O762 1.421 . S
O761 Fe739 2.077 . S
O761 C760 1.381 . S
O762 Fe743 1.935 . S
O762 C760 1.421 . S
C763 O747 1.381 . S
C763 O748 1.421 . S
O764 Fe738 2.077 . S
O764 C767 1.381 . S
O765 Fe736 1.935 . S
O765 C767 1.421 . S
C766 O754 1.381 . S
C766 O755 1.421 . S
C767 O764 1.381 . S
C767 O765 1.421 . S
Fe768 O769 1.886 . S
Fe768 O772 1.715 . S
Fe768 O777 2.077 . S
Fe768 O782 1.935 . S
Fe768 O788 2.077 . S
Fe768 O797 1.935 . S
O769 Fe768 1.886 . S
O769 Fe771 1.715 . S
Fe770 O772 1.886 . S
Fe770 O773 1.715 . S
Fe770 O780 1.935 . S
Fe770 O781 2.077 . S
Fe770 O787 1.935 . S
Fe770 O796 2.077 . S
Fe771 O769 1.715 . S
Fe771 O774 1.886 . S
Fe771 O778 1.935 . S
Fe771 O783 2.077 . S
Fe771 O789 1.935 . S
Fe771 O793 2.077 . S
O772 Fe768 1.715 . S
O772 Fe770 1.886 . S
O773 Fe770 1.715 . S
O773 Fe775 1.886 . S
O774 Fe771 1.886 . S
O774 Fe775 1.715 . S
Fe775 O773 1.886 . S
Fe775 O774 1.715 . S
Fe775 O779 2.077 . S
Fe775 O784 1.935 . S
Fe775 O786 2.077 . S
Fe775 O794 1.935 . S
C776 O788 1.381 . S
C776 O789 1.421 . S
O777 Fe768 2.077 . S
O777 C790 1.381 . S
O778 Fe771 1.935 . S
O778 C790 1.421 . S
O779 Fe775 2.077 . S
O779 C795 1.381 . S
O780 Fe770 1.935 . S
O780 C795 1.421 . S
O781 Fe770 2.077 . S
O781 C785 1.381 . S
O782 Fe768 1.935 . S
O782 C785 1.421 . S
O783 Fe771 2.077 . S
O783 C791 1.381 . S
O784 Fe775 1.935 . S
O784 C791 1.421 . S
C785 O781 1.381 . S
C785 O782 1.421 . S
O786 Fe775 2.077 . S
O786 C798 1.381 . S
O787 Fe770 1.935 . S
O787 C798 1.421 . S
O788 Fe768 2.077 . S
O788 C776 1.381 . S
O789 Fe771 1.935 . S
O789 C776 1.421 . S
C790 O777 1.381 . S
C790 O778 1.421 . S
C791 O783 1.381 . S
C791 O784 1.421 . S
C792 O793 1.381 . S
C792 O794 1.421 . S
O793 Fe771 2.077 . S
O793 C792 1.381 . S
O794 Fe775 1.935 . S
O794 C792 1.421 . S
C795 O779 1.381 . S
C795 O780 1.421 . S
O796 Fe770 2.077 . S
O796 C799 1.381 . S
O797 Fe768 1.935 . S
O797 C799 1.421 . S
C798 O786 1.381 . S
C798 O787 1.421 . S
C799 O796 1.381 . S
C799 O797 1.421 . S
Fe800 O801 1.886 . S
Fe800 O804 1.715 . S
Fe800 O809 2.077 . S
Fe800 O814 1.935 . S
Fe800 O820 2.077 . S
Fe800 O829 1.935 . S
O801 Fe800 1.886 . S
O801 Fe803 1.715 . S
Fe802 O804 1.886 . S
Fe802 O805 1.715 . S
Fe802 O812 1.935 . S
Fe802 O813 2.077 . S
Fe802 O819 1.935 . S
Fe802 O828 2.077 . S
Fe803 O801 1.715 . S
Fe803 O806 1.886 . S
Fe803 O810 1.935 . S
Fe803 O815 2.077 . S
Fe803 O821 1.935 . S
Fe803 O825 2.077 . S
O804 Fe800 1.715 . S
O804 Fe802 1.886 . S
O805 Fe802 1.715 . S
O805 Fe807 1.886 . S
O806 Fe803 1.886 . S
O806 Fe807 1.715 . S
Fe807 O805 1.886 . S
Fe807 O806 1.715 . S
Fe807 O811 2.077 . S
Fe807 O816 1.935 . S
Fe807 O818 2.077 . S
Fe807 O826 1.935 . S
C808 O820 1.381 . S
C808 O821 1.421 . S
O809 Fe800 2.077 . S
O809 C822 1.381 . S
O810 Fe803 1.935 . S
O810 C822 1.421 . S
O811 Fe807 2.077 . S
O811 C827 1.381 . S
O812 Fe802 1.935 . S
O812 C827 1.421 . S
O813 Fe802 2.077 . S
O813 C817 1.381 . S
O814 Fe800 1.935 . S
O814 C817 1.421 . S
O815 Fe803 2.077 . S
O815 C823 1.381 . S
O816 Fe807 1.935 . S
O816 C823 1.421 . S
C817 O813 1.381 . S
C817 O814 1.421 . S
O818 Fe807 2.077 . S
O818 C830 1.381 . S
O819 Fe802 1.935 . S
O819 C830 1.421 . S
O820 Fe800 2.077 . S
O820 C808 1.381 . S
O821 Fe803 1.935 . S
O821 C808 1.421 . S
C822 O809 1.381 . S
C822 O810 1.421 . S
C823 O815 1.381 . S
C823 O816 1.421 . S
C824 O825 1.381 . S
C824 O826 1.421 . S
O825 Fe803 2.077 . S
O825 C824 1.381 . S
O826 Fe807 1.935 . S
O826 C824 1.421 . S
C827 O811 1.381 . S
C827 O812 1.421 . S
O828 Fe802 2.077 . S
O828 C831 1.381 . S
O829 Fe800 1.935 . S
O829 C831 1.421 . S
C830 O818 1.381 . S
C830 O819 1.421 . S
C831 O828 1.381 . S
C831 O829 1.421 . S
Fe832 O833 1.886 . S
Fe832 O836 1.715 . S
Fe832 O841 2.077 . S
Fe832 O846 1.935 . S
Fe832 O852 2.077 . S
Fe832 O861 1.935 . S
O833 Fe832 1.886 . S
O833 Fe835 1.715 . S
Fe834 O836 1.886 . S
Fe834 O837 1.715 . S
Fe834 O844 1.935 . S
Fe834 O845 2.077 . S
Fe834 O851 1.935 . S
Fe834 O860 2.077 . S
Fe835 O833 1.715 . S
Fe835 O838 1.886 . S
Fe835 O842 1.935 . S
Fe835 O847 2.077 . S
Fe835 O853 1.935 . S
Fe835 O857 2.077 . S
O836 Fe832 1.715 . S
O836 Fe834 1.886 . S
O837 Fe834 1.715 . S
O837 Fe839 1.886 . S
O838 Fe835 1.886 . S
O838 Fe839 1.715 . S
Fe839 O837 1.886 . S
Fe839 O838 1.715 . S
Fe839 O843 2.077 . S
Fe839 O848 1.935 . S
Fe839 O850 2.077 . S
Fe839 O858 1.935 . S
C840 O852 1.381 . S
C840 O853 1.421 . S
O841 Fe832 2.077 . S
O841 C854 1.381 . S
O842 Fe835 1.935 . S
O842 C854 1.421 . S
O843 Fe839 2.077 . S
O843 C859 1.381 . S
O844 Fe834 1.935 . S
O844 C859 1.421 . S
O845 Fe834 2.077 . S
O845 C849 1.381 . S
O846 Fe832 1.935 . S
O846 C849 1.421 . S
O847 Fe835 2.077 . S
O847 C855 1.381 . S
O848 Fe839 1.935 . S
O848 C855 1.421 . S
C849 O845 1.381 . S
C849 O846 1.421 . S
O850 Fe839 2.077 . S
O850 C862 1.381 . S
O851 Fe834 1.935 . S
O851 C862 1.421 . S
O852 Fe832 2.077 . S
O852 C840 1.381 . S
O853 Fe835 1.935 . S
O853 C840 1.421 . S
C854 O841 1.381 . S
C854 O842 1.421 . S
C855 O847 1.381 . S
C855 O848 1.421 . S
C856 O857 1.381 . S
C856 O858 1.421 . S
O857 Fe835 2.077 . S
O857 C856 1.381 . S
O858 Fe839 1.935 . S
O858 C856 1.421 . S
C859 O843 1.381 . S
C859 O844 1.421 . S
O860 Fe834 2.077 . S
O860 C863 1.381 . S
O861 Fe832 1.935 . S
O861 C863 1.421 . S
C862 O850 1.381 . S
C862 O851 1.421 . S
C863 O860 1.381 . S
C863 O861 1.421 . S
Fe864 O865 1.886 . S
Fe864 O868 1.715 . S
Fe864 O873 2.077 . S
Fe864 O878 1.935 . S
Fe864 O884 2.077 . S
Fe864 O893 1.935 . S
O865 Fe864 1.886 . S
O865 Fe867 1.715 . S
Fe866 O868 1.886 . S
Fe866 O869 1.715 . S
Fe866 O876 1.935 . S
Fe866 O877 2.077 . S
Fe866 O883 1.935 . S
Fe866 O892 2.077 . S
Fe867 O865 1.715 . S
Fe867 O870 1.886 . S
Fe867 O874 1.935 . S
Fe867 O879 2.077 . S
Fe867 O885 1.935 . S
Fe867 O889 2.077 . S
O868 Fe864 1.715 . S
O868 Fe866 1.886 . S
O869 Fe866 1.715 . S
O869 Fe871 1.886 . S
O870 Fe867 1.886 . S
O870 Fe871 1.715 . S
Fe871 O869 1.886 . S
Fe871 O870 1.715 . S
Fe871 O875 2.077 . S
Fe871 O880 1.935 . S
Fe871 O882 2.077 . S
Fe871 O890 1.935 . S
C872 O884 1.381 . S
C872 O885 1.421 . S
O873 Fe864 2.077 . S
O873 C886 1.381 . S
O874 Fe867 1.935 . S
O874 C886 1.421 . S
O875 Fe871 2.077 . S
O875 C891 1.381 . S
O876 Fe866 1.935 . S
O876 C891 1.421 . S
O877 Fe866 2.077 . S
O877 C881 1.381 . S
O878 Fe864 1.935 . S
O878 C881 1.421 . S
O879 Fe867 2.077 . S
O879 C887 1.381 . S
O880 Fe871 1.935 . S
O880 C887 1.421 . S
C881 O877 1.381 . S
C881 O878 1.421 . S
O882 Fe871 2.077 . S
O882 C894 1.381 . S
O883 Fe866 1.935 . S
O883 C894 1.421 . S
O884 Fe864 2.077 . S
O884 C872 1.381 . S
O885 Fe867 1.935 . S
O885 C872 1.421 . S
C886 O873 1.381 . S
C886 O874 1.421 . S
C887 O879 1.381 . S
C887 O880 1.421 . S
C888 O889 1.381 . S
C888 O890 1.421 . S
O889 Fe867 2.077 . S
O889 C888 1.381 . S
O890 Fe871 1.935 . S
O890 C888 1.421 . S
C891 O875 1.381 . S
C891 O876 1.421 . S
O892 Fe866 2.077 . S
O892 C895 1.381 . S
O893 Fe864 1.935 . S
O893 C895 1.421 . S
C894 O882 1.381 . S
C894 O883 1.421 . S
C895 O892 1.381 . S
C895 O893 1.421 . S
Fe896 O897 1.886 . S
Fe896 O900 1.715 . S
Fe896 O905 2.077 . S
Fe896 O910 1.935 . S
Fe896 O916 2.077 . S
Fe896 O925 1.935 . S
O897 Fe896 1.886 . S
O897 Fe899 1.715 . S
Fe898 O900 1.886 . S
Fe898 O901 1.715 . S
Fe898 O908 1.935 . S
Fe898 O909 2.077 . S
Fe898 O915 1.935 . S
Fe898 O924 2.077 . S
Fe899 O897 1.715 . S
Fe899 O902 1.886 . S
Fe899 O906 1.935 . S
Fe899 O911 2.077 . S
Fe899 O917 1.935 . S
Fe899 O921 2.077 . S
O900 Fe896 1.715 . S
O900 Fe898 1.886 . S
O901 Fe898 1.715 . S
O901 Fe903 1.886 . S
O902 Fe899 1.886 . S
O902 Fe903 1.715 . S
Fe903 O901 1.886 . S
Fe903 O902 1.715 . S
Fe903 O907 2.077 . S
Fe903 O912 1.935 . S
Fe903 O914 2.077 . S
Fe903 O922 1.935 . S
C904 O916 1.381 . S
C904 O917 1.421 . S
O905 Fe896 2.077 . S
O905 C918 1.381 . S
O906 Fe899 1.935 . S
O906 C918 1.421 . S
O907 Fe903 2.077 . S
O907 C923 1.381 . S
O908 Fe898 1.935 . S
O908 C923 1.421 . S
O909 Fe898 2.077 . S
O909 C913 1.381 . S
O910 Fe896 1.935 . S
O910 C913 1.421 . S
O911 Fe899 2.077 . S
O911 C919 1.381 . S
O912 Fe903 1.935 . S
O912 C919 1.421 . S
C913 O909 1.381 . S
C913 O910 1.421 . S
O914 Fe903 2.077 . S
O914 C926 1.381 . S
O915 Fe898 1.935 . S
O915 C926 1.421 . S
O916 Fe896 2.077 . S
O916 C904 1.381 . S
O917 Fe899 1.935 . S
O917 C904 1.421 . S
C918 O905 1.381 . S
C918 O906 1.421 . S
C919 O911 1.381 . S
C919 O912 1.421 . S
C920 O921 1.381 . S
C920 O922 1.421 . S
O921 Fe899 2.077 . S
O921 C920 1.381 . S
O922 Fe903 1.935 . S
O922 C920 1.421 . S
C923 O907 1.381 . S
C923 O908 1.421 . S
O924 Fe898 2.077 . S
O924 C927 1.381 . S
O925 Fe896 1.935 . S
O925 C927 1.421 . S
C926 O914 1.381 . S
C926 O915 1.421 . S
C927 O924 1.381 . S
C927 O925 1.421 . S
Fe928 O929 1.886 . S
Fe928 O932 1.715 . S
Fe928 O937 2.077 . S
Fe928 O942 1.935 . S
Fe928 O948 2.077 . S
Fe928 O957 1.935 . S
O929 Fe928 1.886 . S
O929 Fe931 1.715 . S
Fe930 O932 1.886 . S
Fe930 O933 1.715 . S
Fe930 O940 1.935 . S
Fe930 O941 2.077 . S
Fe930 O947 1.935 . S
Fe930 O956 2.077 . S
Fe931 O929 1.715 . S
Fe931 O934 1.886 . S
Fe931 O938 1.935 . S
Fe931 O943 2.077 . S
Fe931 O949 1.935 . S
Fe931 O953 2.077 . S
O932 Fe928 1.715 . S
O932 Fe930 1.886 . S
O933 Fe930 1.715 . S
O933 Fe935 1.886 . S
O934 Fe931 1.886 . S
O934 Fe935 1.715 . S
Fe935 O933 1.886 . S
Fe935 O934 1.715 . S
Fe935 O939 2.077 . S
Fe935 O944 1.935 . S
Fe935 O946 2.077 . S
Fe935 O954 1.935 . S
C936 O948 1.381 . S
C936 O949 1.421 . S
O937 Fe928 2.077 . S
O937 C950 1.381 . S
O938 Fe931 1.935 . S
O938 C950 1.421 . S
O939 Fe935 2.077 . S
O939 C955 1.381 . S
O940 Fe930 1.935 . S
O940 C955 1.421 . S
O941 Fe930 2.077 . S
O941 C945 1.381 . S
O942 Fe928 1.935 . S
O942 C945 1.421 . S
O943 Fe931 2.077 . S
O943 C951 1.381 . S
O944 Fe935 1.935 . S
O944 C951 1.421 . S
C945 O941 1.381 . S
C945 O942 1.421 . S
O946 Fe935 2.077 . S
O946 C958 1.381 . S
O947 Fe930 1.935 . S
O947 C958 1.421 . S
O948 Fe928 2.077 . S
O948 C936 1.381 . S
O949 Fe931 1.935 . S
O949 C936 1.421 . S
C950 O937 1.381 . S
C950 O938 1.421 . S
C951 O943 1.381 . S
C951 O944 1.421 . S
C952 O953 1.381 . S
C952 O954 1.421 . S
O953 Fe931 2.077 . S
O953 C952 1.381 . S
O954 Fe935 1.935 . S
O954 C952 1.421 . S
C955 O939 1.381 . S
C955 O940 1.421 . S
O956 Fe930 2.077 . S
O956 C959 1.381 . S
O957 Fe928 1.935 . S
O957 C959 1.421 . S
C958 O946 1.381 . S
C958 O947 1.421 . S
C959 O956 1.381 . S
C959 O957 1.421 . S
Fe960 O961 1.886 . S
Fe960 O964 1.715 . S
Fe960 O969 2.077 . S
Fe960 O974 1.935 . S
Fe960 O980 2.077 . S
Fe960 O989 1.935 . S
O961 Fe960 1.886 . S
O961 Fe963 1.715 . S
Fe962 O964 1.886 . S
Fe962 O965 1.715 . S
Fe962 O972 1.935 . S
Fe962 O973 2.077 . S
Fe962 O979 1.935 . S
Fe962 O988 2.077 . S
Fe963 O961 1.715 . S
Fe963 O966 1.886 . S
Fe963 O970 1.935 . S
Fe963 O975 2.077 . S
Fe963 O981 1.935 . S
Fe963 O985 2.077 . S
O964 Fe960 1.715 . S
O964 Fe962 1.886 . S
O965 Fe962 1.715 . S
O965 Fe967 1.886 . S
O966 Fe963 1.886 . S
O966 Fe967 1.715 . S
Fe967 O965 1.886 . S
Fe967 O966 1.715 . S
Fe967 O971 2.077 . S
Fe967 O976 1.935 . S
Fe967 O978 2.077 . S
Fe967 O986 1.935 . S
C968 O980 1.381 . S
C968 O981 1.421 . S
O969 Fe960 2.077 . S
O969 C982 1.381 . S
O970 Fe963 1.935 . S
O970 C982 1.421 . S
O971 Fe967 2.077 . S
O971 C987 1.381 . S
O972 Fe962 1.935 . S
O972 C987 1.421 . S
O973 Fe962 2.077 . S
O973 C977 1.381 . S
O974 Fe960 1.935 . S
O974 C977 1.421 . S
O975 Fe963 2.077 . S
O975 C983 1.381 . S
O976 Fe967 1.935 . S
O976 C983 1.421 . S
C977 O973 1.381 . S
C977 O974 1.421 . S
O978 Fe967 2.077 . S
O978 C990 1.381 . S
O979 Fe962 1.935 . S
O979 C990 1.421 . S
O980 Fe960 2.077 . S
O980 C968 1.381 . S
O981 Fe963 1.935 . S
O981 C968 1.421 . S
C982 O969 1.381 . S
C982 O970 1.421 . S
C983 O975 1.381 . S
C983 O976 1.421 . S
C984 O985 1.381 . S
C984 O986 1.421 . S
O985 Fe963 2.077 . S
O985 C984 1.381 . S
O986 Fe967 1.935 . S
O986 C984 1.421 . S
C987 O971 1.381 . S
C987 O972 1.421 . S
O988 Fe962 2.077 . S
O988 C991 1.381 . S
O989 Fe960 1.935 . S
O989 C991 1.421 . S
C990 O978 1.381 . S
C990 O979 1.421 . S
C991 O988 1.381 . S
C991 O989 1.421 . S
Fe992 O993 1.886 . S
Fe992 O996 1.715 . S
Fe992 O1001 2.077 . S
Fe992 O1006 1.935 . S
Fe992 O1012 2.077 . S
Fe992 O1021 1.935 . S
O993 Fe992 1.886 . S
O993 Fe995 1.715 . S
Fe994 O996 1.886 . S
Fe994 O997 1.715 . S
Fe994 O1004 1.935 . S
Fe994 O1005 2.077 . S
Fe994 O1011 1.935 . S
Fe994 O1020 2.077 . S
Fe995 O993 1.715 . S
Fe995 O998 1.886 . S
Fe995 O1002 1.935 . S
Fe995 O1007 2.077 . S
Fe995 O1013 1.935 . S
Fe995 O1017 2.077 . S
O996 Fe992 1.715 . S
O996 Fe994 1.886 . S
O997 Fe994 1.715 . S
O997 Fe999 1.886 . S
O998 Fe995 1.886 . S
O998 Fe999 1.715 . S
Fe999 O997 1.886 . S
Fe999 O998 1.715 . S
Fe999 O1003 2.077 . S
Fe999 O1008 1.935 . S
Fe999 O1010 2.077 . S
Fe999 O1018 1.935 . S
C1000 O1012 1.381 . S
C1000 O1013 1.421 . S
O1001 Fe992 2.077 . S
O1001 C1014 1.381 . S
O1002 Fe995 1.935 . S
O1002 C1014 1.421 . S
O1003 Fe999 2.077 . S
O1003 C1019 1.381 . S
O1004 Fe994 1.935 . S
O1004 C1019 1.421 . S
O1005 Fe994 2.077 . S
O1005 C1009 1.381 . S
O1006 Fe992 1.935 . S
O1006 C1009 1.421 . S
O1007 Fe995 2.077 . S
O1007 C1015 1.381 . S
O1008 Fe999 1.935 . S
O1008 C1015 1.421 . S
C1009 O1005 1.381 . S
C1009 O1006 1.421 . S
O1010 Fe999 2.077 . S
O1010 C1022 1.381 . S
O1011 Fe994 1.935 . S
O1011 C1022 1.421 . S
O1012 Fe992 2.077 . S
O1012 C1000 1.381 . S
O1013 Fe995 1.935 . S
O1013 C1000 1.421 . S
C1014 O1001 1.381 . S
C1014 O1002 1.421 . S
C1015 O1007 1.381 . S
C1015 O1008 1.421 . S
C1016 O1017 1.381 . S
C1016 O1018 1.421 . S
O1017 Fe995 2.077 . S
O1017 C1016 1.381 . S
O1018 Fe999 1.935 . S
O1018 C1016 1.421 . S
C1019 O1003 1.381 . S
C1019 O1004 1.421 . S
O1020 Fe994 2.077 . S
O1020 C1023 1.381 . S
O1021 Fe992 1.935 . S
O1021 C1023 1.421 . S
C1022 O1010 1.381 . S
C1022 O1011 1.421 . S
C1023 O1020 1.381 . S
C1023 O1021 1.421 . S
Fe1024 O1025 1.886 . S
Fe1024 O1028 1.715 . S
Fe1024 O1033 2.077 . S
Fe1024 O1038 1.935 . S
Fe1024 O1044 2.077 . S
Fe1024 O1053 1.935 . S
O1025 Fe1024 1.886 . S
O1025 Fe1027 1.715 . S
Fe1026 O1028 1.886 . S
Fe1026 O1029 1.715 . S
Fe1026 O1036 1.935 . S
Fe1026 O1037 2.077 . S
Fe1026 O1043 1.935 . S
Fe1026 O1052 2.077 . S
Fe1027 O1025 1.715 . S
Fe1027 O1030 1.886 . S
Fe1027 O1034 1.935 . S
Fe1027 O1039 2.077 . S
Fe1027 O1045 1.935 . S
Fe1027 O1049 2.077 . S
O1028 Fe1024 1.715 . S
O1028 Fe1026 1.886 . S
O1029 Fe1026 1.715 . S
O1029 Fe1031 1.886 . S
O1030 Fe1027 1.886 . S
O1030 Fe1031 1.715 . S
Fe1031 O1029 1.886 . S
Fe1031 O1030 1.715 . S
Fe1031 O1035 2.077 . S
Fe1031 O1040 1.935 . S
Fe1031 O1042 2.077 . S
Fe1031 O1050 1.935 . S
C1032 O1044 1.381 . S
C1032 O1045 1.421 . S
O1033 Fe1024 2.077 . S
O1033 C1046 1.381 . S
O1034 Fe1027 1.935 . S
O1034 C1046 1.421 . S
O1035 Fe1031 2.077 . S
O1035 C1051 1.381 . S
O1036 Fe1026 1.935 . S
O1036 C1051 1.421 . S
O1037 Fe1026 2.077 . S
O1037 C1041 1.381 . S
O1038 Fe1024 1.935 . S
O1038 C1041 1.421 . S
O1039 Fe1027 2.077 . S
O1039 C1047 1.381 . S
O1040 Fe1031 1.935 . S
O1040 C1047 1.421 . S
C1041 O1037 1.381 . S
C1041 O1038 1.421 . S
O1042 Fe1031 2.077 . S
O1042 C1054 1.381 . S
O1043 Fe1026 1.935 . S
O1043 C1054 1.421 . S
O1044 Fe1024 2.077 . S
O1044 C1032 1.381 . S
O1045 Fe1027 1.935 . S
O1045 C1032 1.421 . S
C1046 O1033 1.381 . S
C1046 O1034 1.421 . S
C1047 O1039 1.381 . S
C1047 O1040 1.421 . S
C1048 O1049 1.381 . S
C1048 O1050 1.421 . S
O1049 Fe1027 2.077 . S
O1049 C1048 1.381 . S
O1050 Fe1031 1.935 . S
O1050 C1048 1.421 . S
C1051 O1035 1.381 . S
C1051 O1036 1.421 . S
O1052 Fe1026 2.077 . S
O1052 C1055 1.381 . S
O1053 Fe1024 1.935 . S
O1053 C1055 1.421 . S
C1054 O1042 1.381 . S
C1054 O1043 1.421 . S
C1055 O1052 1.381 . S
C1055 O1053 1.421 . S
Fe1056 O1057 1.886 . S
Fe1056 O1060 1.715 . S
Fe1056 O1065 2.077 . S
Fe1056 O1070 1.935 . S
Fe1056 O1076 2.077 . S
Fe1056 O1085 1.935 . S
O1057 Fe1056 1.886 . S
O1057 Fe1059 1.715 . S
Fe1058 O1060 1.886 . S
Fe1058 O1061 1.715 . S
Fe1058 O1068 1.935 . S
Fe1058 O1069 2.077 . S
Fe1058 O1075 1.935 . S
Fe1058 O1084 2.077 . S
Fe1059 O1057 1.715 . S
Fe1059 O1062 1.886 . S
Fe1059 O1066 1.935 . S
Fe1059 O1071 2.077 . S
Fe1059 O1077 1.935 . S
Fe1059 O1081 2.077 . S
O1060 Fe1056 1.715 . S
O1060 Fe1058 1.886 . S
O1061 Fe1058 1.715 . S
O1061 Fe1063 1.886 . S
O1062 Fe1059 1.886 . S
O1062 Fe1063 1.715 . S
Fe1063 O1061 1.886 . S
Fe1063 O1062 1.715 . S
Fe1063 O1067 2.077 . S
Fe1063 O1072 1.935 . S
Fe1063 O1074 2.077 . S
Fe1063 O1082 1.935 . S
C1064 O1076 1.381 . S
C1064 O1077 1.421 . S
O1065 Fe1056 2.077 . S
O1065 C1078 1.381 . S
O1066 Fe1059 1.935 . S
O1066 C1078 1.421 . S
O1067 Fe1063 2.077 . S
O1067 C1083 1.381 . S
O1068 Fe1058 1.935 . S
O1068 C1083 1.421 . S
O1069 Fe1058 2.077 . S
O1069 C1073 1.381 . S
O1070 Fe1056 1.935 . S
O1070 C1073 1.421 . S
O1071 Fe1059 2.077 . S
O1071 C1079 1.381 . S
O1072 Fe1063 1.935 . S
O1072 C1079 1.421 . S
C1073 O1069 1.381 . S
C1073 O1070 1.421 . S
O1074 Fe1063 2.077 . S
O1074 C1086 1.381 . S
O1075 Fe1058 1.935 . S
O1075 C1086 1.421 . S
O1076 Fe1056 2.077 . S
O1076 C1064 1.381 . S
O1077 Fe1059 1.935 . S
O1077 C1064 1.421 . S
C1078 O1065 1.381 . S
C1078 O1066 1.421 . S
C1079 O1071 1.381 . S
C1079 O1072 1.421 . S
C1080 O1081 1.381 . S
C1080 O1082 1.421 . S
O1081 Fe1059 2.077 . S
O1081 C1080 1.381 . S
O1082 Fe1063 1.935 . S
O1082 C1080 1.421 . S
C1083 O1067 1.381 . S
C1083 O1068 1.421 . S
O1084 Fe1058 2.077 . S
O1084 C1087 1.381 . S
O1085 Fe1056 1.935 . S
O1085 C1087 1.421 . S
C1086 O1074 1.381 . S
C1086 O1075 1.421 . S
C1087 O1084 1.381 . S
C1087 O1085 1.421 . S
Fe1088 O1089 1.886 . S
Fe1088 O1092 1.715 . S
Fe1088 O1097 2.077 . S
Fe1088 O1102 1.935 . S
Fe1088 O1108 2.077 . S
Fe1088 O1117 1.935 . S
O1089 Fe1088 1.886 . S
O1089 Fe1091 1.715 . S
Fe1090 O1092 1.886 . S
Fe1090 O1093 1.715 . S
Fe1090 O1100 1.935 . S
Fe1090 O1101 2.077 . S
Fe1090 O1107 1.935 . S
Fe1090 O1116 2.077 . S
Fe1091 O1089 1.715 . S
Fe1091 O1094 1.886 . S
Fe1091 O1098 1.935 . S
Fe1091 O1103 2.077 . S
Fe1091 O1109 1.935 . S
Fe1091 O1113 2.077 . S
O1092 Fe1088 1.715 . S
O1092 Fe1090 1.886 . S
O1093 Fe1090 1.715 . S
O1093 Fe1095 1.886 . S
O1094 Fe1091 1.886 . S
O1094 Fe1095 1.715 . S
Fe1095 O1093 1.886 . S
Fe1095 O1094 1.715 . S
Fe1095 O1099 2.077 . S
Fe1095 O1104 1.935 . S
Fe1095 O1106 2.077 . S
Fe1095 O1114 1.935 . S
C1096 O1108 1.381 . S
C1096 O1109 1.421 . S
O1097 Fe1088 2.077 . S
O1097 C1110 1.381 . S
O1098 Fe1091 1.935 . S
O1098 C1110 1.421 . S
O1099 Fe1095 2.077 . S
O1099 C1115 1.381 . S
O1100 Fe1090 1.935 . S
O1100 C1115 1.421 . S
O1101 Fe1090 2.077 . S
O1101 C1105 1.381 . S
O1102 Fe1088 1.935 . S
O1102 C1105 1.421 . S
O1103 Fe1091 2.077 . S
O1103 C1111 1.381 . S
O1104 Fe1095 1.935 . S
O1104 C1111 1.421 . S
C1105 O1101 1.381 . S
C1105 O1102 1.421 . S
O1106 Fe1095 2.077 . S
O1106 C1118 1.381 . S
O1107 Fe1090 1.935 . S
O1107 C1118 1.421 . S
O1108 Fe1088 2.077 . S
O1108 C1096 1.381 . S
O1109 Fe1091 1.935 . S
O1109 C1096 1.421 . S
C1110 O1097 1.381 . S
C1110 O1098 1.421 . S
C1111 O1103 1.381 . S
C1111 O1104 1.421 . S
C1112 O1113 1.381 . S
C1112 O1114 1.421 . S
O1113 Fe1091 2.077 . S
O1113 C1112 1.381 . S
O1114 Fe1095 1.935 . S
O1114 C1112 1.421 . S
C1115 O1099 1.381 . S
C1115 O1100 1.421 . S
O1116 Fe1090 2.077 . S
O1116 C1119 1.381 . S
O1117 Fe1088 1.935 . S
O1117 C1119 1.421 . S
C1118 O1106 1.381 . S
C1118 O1107 1.421 . S
C1119 O1116 1.381 . S
C1119 O1117 1.421 . S
Fe1120 O1121 1.886 . S
Fe1120 O1124 1.715 . S
Fe1120 O1129 2.077 . S
Fe1120 O1134 1.935 . S
Fe1120 O1140 2.077 . S
Fe1120 O1149 1.935 . S
O1121 Fe1120 1.886 . S
O1121 Fe1123 1.715 . S
Fe1122 O1124 1.886 . S
Fe1122 O1125 1.715 . S
Fe1122 O1132 1.935 . S
Fe1122 O1133 2.077 . S
Fe1122 O1139 1.935 . S
Fe1122 O1148 2.077 . S
Fe1123 O1121 1.715 . S
Fe1123 O1126 1.886 . S
Fe1123 O1130 1.935 . S
Fe1123 O1135 2.077 . S
Fe1123 O1141 1.935 . S
Fe1123 O1145 2.077 . S
O1124 Fe1120 1.715 . S
O1124 Fe1122 1.886 . S
O1125 Fe1122 1.715 . S
O1125 Fe1127 1.886 . S
O1126 Fe1123 1.886 . S
O1126 Fe1127 1.715 . S
Fe1127 O1125 1.886 . S
Fe1127 O1126 1.715 . S
Fe1127 O1131 2.077 . S
Fe1127 O1136 1.935 . S
Fe1127 O1138 2.077 . S
Fe1127 O1146 1.935 . S
C1128 O1140 1.381 . S
C1128 O1141 1.421 . S
O1129 Fe1120 2.077 . S
O1129 C1142 1.381 . S
O1130 Fe1123 1.935 . S
O1130 C1142 1.421 . S
O1131 Fe1127 2.077 . S
O1131 C1147 1.381 . S
O1132 Fe1122 1.935 . S
O1132 C1147 1.421 . S
O1133 Fe1122 2.077 . S
O1133 C1137 1.381 . S
O1134 Fe1120 1.935 . S
O1134 C1137 1.421 . S
O1135 Fe1123 2.077 . S
O1135 C1143 1.381 . S
O1136 Fe1127 1.935 . S
O1136 C1143 1.421 . S
C1137 O1133 1.381 . S
C1137 O1134 1.421 . S
O1138 Fe1127 2.077 . S
O1138 C1150 1.381 . S
O1139 Fe1122 1.935 . S
O1139 C1150 1.421 . S
O1140 Fe1120 2.077 . S
O1140 C1128 1.381 . S
O1141 Fe1123 1.935 . S
O1141 C1128 1.421 . S
C1142 O1129 1.381 . S
C1142 O1130 1.421 . S
C1143 O1135 1.381 . S
C1143 O1136 1.421 . S
C1144 O1145 1.381 . S
C1144 O1146 1.421 . S
O1145 Fe1123 2.077 . S
O1145 C1144 1.381 . S
O1146 Fe1127 1.935 . S
O1146 C1144 1.421 . S
C1147 O1131 1.381 . S
C1147 O1132 1.421 . S
O1148 Fe1122 2.077 . S
O1148 C1151 1.381 . S
O1149 Fe1120 1.935 . S
O1149 C1151 1.421 . S
C1150 O1138 1.381 . S
C1150 O1139 1.421 . S
C1151 O1148 1.381 . S
C1151 O1149 1.421 . S
Fe1152 O1153 1.886 . S
Fe1152 O1156 1.715 . S
Fe1152 O1161 2.077 . S
Fe1152 O1166 1.935 . S
Fe1152 O1172 2.077 . S
Fe1152 O1181 1.935 . S
O1153 Fe1152 1.886 . S
O1153 Fe1155 1.715 . S
Fe1154 O1156 1.886 . S
Fe1154 O1157 1.715 . S
Fe1154 O1164 1.935 . S
Fe1154 O1165 2.077 . S
Fe1154 O1171 1.935 . S
Fe1154 O1180 2.077 . S
Fe1155 O1153 1.715 . S
Fe1155 O1158 1.886 . S
Fe1155 O1162 1.935 . S
Fe1155 O1167 2.077 . S
Fe1155 O1173 1.935 . S
Fe1155 O1177 2.077 . S
O1156 Fe1152 1.715 . S
O1156 Fe1154 1.886 . S
O1157 Fe1154 1.715 . S
O1157 Fe1159 1.886 . S
O1158 Fe1155 1.886 . S
O1158 Fe1159 1.715 . S
Fe1159 O1157 1.886 . S
Fe1159 O1158 1.715 . S
Fe1159 O1163 2.077 . S
Fe1159 O1168 1.935 . S
Fe1159 O1170 2.077 . S
Fe1159 O1178 1.935 . S
C1160 O1172 1.381 . S
C1160 O1173 1.421 . S
O1161 Fe1152 2.077 . S
O1161 C1174 1.381 . S
O1162 Fe1155 1.935 . S
O1162 C1174 1.421 . S
O1163 Fe1159 2.077 . S
O1163 C1179 1.381 . S
O1164 Fe1154 1.935 . S
O1164 C1179 1.421 . S
O1165 Fe1154 2.077 . S
O1165 C1169 1.381 . S
O1166 Fe1152 1.935 . S
O1166 C1169 1.421 . S
O1167 Fe1155 2.077 . S
O1167 C1175 1.381 . S
O1168 Fe1159 1.935 . S
O1168 C1175 1.421 . S
C1169 O1165 1.381 . S
C1169 O1166 1.421 . S
O1170 Fe1159 2.077 . S
O1170 C1182 1.381 . S
O1171 Fe1154 1.935 . S
O1171 C1182 1.421 . S
O1172 Fe1152 2.077 . S
O1172 C1160 1.381 . S
O1173 Fe1155 1.935 . S
O1173 C1160 1.421 . S
C1174 O1161 1.381 . S
C1174 O1162 1.421 . S
C1175 O1167 1.381 . S
C1175 O1168 1.421 . S
C1176 O1177 1.381 . S
C1176 O1178 1.421 . S
O1177 Fe1155 2.077 . S
O1177 C1176 1.381 . S
O1178 Fe1159 1.935 . S
O1178 C1176 1.421 . S
C1179 O1163 1.381 . S
C1179 O1164 1.421 . S
O1180 Fe1154 2.077 . S
O1180 C1183 1.381 . S
O1181 Fe1152 1.935 . S
O1181 C1183 1.421 . S
C1182 O1170 1.381 . S
C1182 O1171 1.421 . S
C1183 O1180 1.381 . S
C1183 O1181 1.421 . S
Fe1184 O1185 1.886 . S
Fe1184 O1188 1.715 . S
Fe1184 O1193 2.077 . S
Fe1184 O1198 1.935 . S
Fe1184 O1204 2.077 . S
Fe1184 O1213 1.935 . S
O1185 Fe1184 1.886 . S
O1185 Fe1187 1.715 . S
Fe1186 O1188 1.886 . S
Fe1186 O1189 1.715 . S
Fe1186 O1196 1.935 . S
Fe1186 O1197 2.077 . S
Fe1186 O1203 1.935 . S
Fe1186 O1212 2.077 . S
Fe1187 O1185 1.715 . S
Fe1187 O1190 1.886 . S
Fe1187 O1194 1.935 . S
Fe1187 O1199 2.077 . S
Fe1187 O1205 1.935 . S
Fe1187 O1209 2.077 . S
O1188 Fe1184 1.715 . S
O1188 Fe1186 1.886 . S
O1189 Fe1186 1.715 . S
O1189 Fe1191 1.886 . S
O1190 Fe1187 1.886 . S
O1190 Fe1191 1.715 . S
Fe1191 O1189 1.886 . S
Fe1191 O1190 1.715 . S
Fe1191 O1195 2.077 . S
Fe1191 O1200 1.935 . S
Fe1191 O1202 2.077 . S
Fe1191 O1210 1.935 . S
C1192 O1204 1.381 . S
C1192 O1205 1.421 . S
O1193 Fe1184 2.077 . S
O1193 C1206 1.381 . S
O1194 Fe1187 1.935 . S
O1194 C1206 1.421 . S
O1195 Fe1191 2.077 . S
O1195 C1211 1.381 . S
O1196 Fe1186 1.935 . S
O1196 C1211 1.421 . S
O1197 Fe1186 2.077 . S
O1197 C1201 1.381 . S
O1198 Fe1184 1.935 . S
O1198 C1201 1.421 . S
O1199 Fe1187 2.077 . S
O1199 C1207 1.381 . S
O1200 Fe1191 1.935 . S
O1200 C1207 1.421 . S
C1201 O1197 1.381 . S
C1201 O1198 1.421 . S
O1202 Fe1191 2.077 . S
O1202 C1214 1.381 . S
O1203 Fe1186 1.935 . S
O1203 C1214 1.421 . S
O1204 Fe1184 2.077 . S
O1204 C1192 1.381 . S
O1205 Fe1187 1.935 . S
O1205 C1192 1.421 . S
C1206 O1193 1.381 . S
C1206 O1194 1.421 . S
C1207 O1199 1.381 . S
C1207 O1200 1.421 . S
C1208 O1209 1.381 . S
C1208 O1210 1.421 . S
O1209 Fe1187 2.077 . S
O1209 C1208 1.381 . S
O1210 Fe1191 1.935 . S
O1210 C1208 1.421 . S
C1211 O1195 1.381 . S
C1211 O1196 1.421 . S
O1212 Fe1186 2.077 . S
O1212 C1215 1.381 . S
O1213 Fe1184 1.935 . S
O1213 C1215 1.421 . S
C1214 O1202 1.381 . S
C1214 O1203 1.421 . S
C1215 O1212 1.381 . S
C1215 O1213 1.421 . S
Fe1216 O1217 1.886 . S
Fe1216 O1220 1.715 . S
Fe1216 O1225 2.077 . S
Fe1216 O1230 1.935 . S
Fe1216 O1236 2.077 . S
Fe1216 O1245 1.935 . S
O1217 Fe1216 1.886 . S
O1217 Fe1219 1.715 . S
Fe1218 O1220 1.886 . S
Fe1218 O1221 1.715 . S
Fe1218 O1228 1.935 . S
Fe1218 O1229 2.077 . S
Fe1218 O1235 1.935 . S
Fe1218 O1244 2.077 . S
Fe1219 O1217 1.715 . S
Fe1219 O1222 1.886 . S
Fe1219 O1226 1.935 . S
Fe1219 O1231 2.077 . S
Fe1219 O1237 1.935 . S
Fe1219 O1241 2.077 . S
O1220 Fe1216 1.715 . S
O1220 Fe1218 1.886 . S
O1221 Fe1218 1.715 . S
O1221 Fe1223 1.886 . S
O1222 Fe1219 1.886 . S
O1222 Fe1223 1.715 . S
Fe1223 O1221 1.886 . S
Fe1223 O1222 1.715 . S
Fe1223 O1227 2.077 . S
Fe1223 O1232 1.935 . S
Fe1223 O1234 2.077 . S
Fe1223 O1242 1.935 . S
C1224 O1236 1.381 . S
C1224 O1237 1.421 . S
O1225 Fe1216 2.077 . S
O1225 C1238 1.381 . S
O1226 Fe1219 1.935 . S
O1226 C1238 1.421 . S
O1227 Fe1223 2.077 . S
O1227 C1243 1.381 . S
O1228 Fe1218 1.935 . S
O1228 C1243 1.421 . S
O1229 Fe1218 2.077 . S
O1229 C1233 1.381 . S
O1230 Fe1216 1.935 . S
O1230 C1233 1.421 . S
O1231 Fe1219 2.077 . S
O1231 C1239 1.381 . S
O1232 Fe1223 1.935 . S
O1232 C1239 1.421 . S
C1233 O1229 1.381 . S
C1233 O1230 1.421 . S
O1234 Fe1223 2.077 . S
O1234 C1246 1.381 . S
O1235 Fe1218 1.935 . S
O1235 C1246 1.421 . S
O1236 Fe1216 2.077 . S
O1236 C1224 1.381 . S
O1237 Fe1219 1.935 . S
O1237 C1224 1.421 . S
C1238 O1225 1.381 . S
C1238 O1226 1.421 . S
C1239 O1231 1.381 . S
C1239 O1232 1.421 . S
C1240 O1241 1.381 . S
C1240 O1242 1.421 . S
O1241 Fe1219 2.077 . S
O1241 C1240 1.381 . S
O1242 Fe1223 1.935 . S
O1242 C1240 1.421 . S
C1243 O1227 1.381 . S
C1243 O1228 1.421 . S
O1244 Fe1218 2.077 . S
O1244 C1247 1.381 . S
O1245 Fe1216 1.935 . S
O1245 C1247 1.421 . S
C1246 O1234 1.381 . S
C1246 O1235 1.421 . S
C1247 O1244 1.381 . S
C1247 O1245 1.421 . S
Fe1248 O1249 1.886 . S
Fe1248 O1252 1.715 . S
Fe1248 O1257 2.077 . S
Fe1248 O1262 1.935 . S
Fe1248 O1268 2.077 . S
Fe1248 O1277 1.935 . S
O1249 Fe1248 1.886 . S
O1249 Fe1251 1.715 . S
Fe1250 O1252 1.886 . S
Fe1250 O1253 1.715 . S
Fe1250 O1260 1.935 . S
Fe1250 O1261 2.077 . S
Fe1250 O1267 1.935 . S
Fe1250 O1276 2.077 . S
Fe1251 O1249 1.715 . S
Fe1251 O1254 1.886 . S
Fe1251 O1258 1.935 . S
Fe1251 O1263 2.077 . S
Fe1251 O1269 1.935 . S
Fe1251 O1273 2.077 . S
O1252 Fe1248 1.715 . S
O1252 Fe1250 1.886 . S
O1253 Fe1250 1.715 . S
O1253 Fe1255 1.886 . S
O1254 Fe1251 1.886 . S
O1254 Fe1255 1.715 . S
Fe1255 O1253 1.886 . S
Fe1255 O1254 1.715 . S
Fe1255 O1259 2.077 . S
Fe1255 O1264 1.935 . S
Fe1255 O1266 2.077 . S
Fe1255 O1274 1.935 . S
C1256 O1268 1.381 . S
C1256 O1269 1.421 . S
O1257 Fe1248 2.077 . S
O1257 C1270 1.381 . S
O1258 Fe1251 1.935 . S
O1258 C1270 1.421 . S
O1259 Fe1255 2.077 . S
O1259 C1275 1.381 . S
O1260 Fe1250 1.935 . S
O1260 C1275 1.421 . S
O1261 Fe1250 2.077 . S
O1261 C1265 1.381 . S
O1262 Fe1248 1.935 . S
O1262 C1265 1.421 . S
O1263 Fe1251 2.077 . S
O1263 C1271 1.381 . S
O1264 Fe1255 1.935 . S
O1264 C1271 1.421 . S
C1265 O1261 1.381 . S
C1265 O1262 1.421 . S
O1266 Fe1255 2.077 . S
O1266 C1278 1.381 . S
O1267 Fe1250 1.935 . S
O1267 C1278 1.421 . S
O1268 Fe1248 2.077 . S
O1268 C1256 1.381 . S
O1269 Fe1251 1.935 . S
O1269 C1256 1.421 . S
C1270 O1257 1.381 . S
C1270 O1258 1.421 . S
C1271 O1263 1.381 . S
C1271 O1264 1.421 . S
C1272 O1273 1.381 . S
C1272 O1274 1.421 . S
O1273 Fe1251 2.077 . S
O1273 C1272 1.381 . S
O1274 Fe1255 1.935 . S
O1274 C1272 1.421 . S
C1275 O1259 1.381 . S
C1275 O1260 1.421 . S
O1276 Fe1250 2.077 . S
O1276 C1279 1.381 . S
O1277 Fe1248 1.935 . S
O1277 C1279 1.421 . S
C1278 O1266 1.381 . S
C1278 O1267 1.421 . S
C1279 O1276 1.381 . S
C1279 O1277 1.421 . S
Fe1280 O1281 1.886 . S
Fe1280 O1284 1.715 . S
Fe1280 O1289 2.077 . S
Fe1280 O1294 1.935 . S
Fe1280 O1300 2.077 . S
Fe1280 O1309 1.935 . S
O1281 Fe1280 1.886 . S
O1281 Fe1283 1.715 . S
Fe1282 O1284 1.886 . S
Fe1282 O1285 1.715 . S
Fe1282 O1292 1.935 . S
Fe1282 O1293 2.077 . S
Fe1282 O1299 1.935 . S
Fe1282 O1308 2.077 . S
Fe1283 O1281 1.715 . S
Fe1283 O1286 1.886 . S
Fe1283 O1290 1.935 . S
Fe1283 O1295 2.077 . S
Fe1283 O1301 1.935 . S
Fe1283 O1305 2.077 . S
O1284 Fe1280 1.715 . S
O1284 Fe1282 1.886 . S
O1285 Fe1282 1.715 . S
O1285 Fe1287 1.886 . S
O1286 Fe1283 1.886 . S
O1286 Fe1287 1.715 . S
Fe1287 O1285 1.886 . S
Fe1287 O1286 1.715 . S
Fe1287 O1291 2.077 . S
Fe1287 O1296 1.935 . S
Fe1287 O1298 2.077 . S
Fe1287 O1306 1.935 . S
C1288 O1300 1.381 . S
C1288 O1301 1.421 . S
O1289 Fe1280 2.077 . S
O1289 C1302 1.381 . S
O1290 Fe1283 1.935 . S
O1290 C1302 1.421 . S
O1291 Fe1287 2.077 . S
O1291 C1307 1.381 . S
O1292 Fe1282 1.935 . S
O1292 C1307 1.421 . S
O1293 Fe1282 2.077 . S
O1293 C1297 1.381 . S
O1294 Fe1280 1.935 . S
O1294 C1297 1.421 . S
O1295 Fe1283 2.077 . S
O1295 C1303 1.381 . S
O1296 Fe1287 1.935 . S
O1296 C1303 1.421 . S
C1297 O1293 1.381 . S
C1297 O1294 1.421 . S
O1298 Fe1287 2.077 . S
O1298 C1310 1.381 . S
O1299 Fe1282 1.935 . S
O1299 C1310 1.421 . S
O1300 Fe1280 2.077 . S
O1300 C1288 1.381 . S
O1301 Fe1283 1.935 . S
O1301 C1288 1.421 . S
C1302 O1289 1.381 . S
C1302 O1290 1.421 . S
C1303 O1295 1.381 . S
C1303 O1296 1.421 . S
C1304 O1305 1.381 . S
C1304 O1306 1.421 . S
O1305 Fe1283 2.077 . S
O1305 C1304 1.381 . S
O1306 Fe1287 1.935 . S
O1306 C1304 1.421 . S
C1307 O1291 1.381 . S
C1307 O1292 1.421 . S
O1308 Fe1282 2.077 . S
O1308 C1311 1.381 . S
O1309 Fe1280 1.935 . S
O1309 C1311 1.421 . S
C1310 O1298 1.381 . S
C1310 O1299 1.421 . S
C1311 O1308 1.381 . S
C1311 O1309 1.421 . S
Fe1312 O1313 1.886 . S
Fe1312 O1316 1.715 . S
Fe1312 O1321 2.077 . S
Fe1312 O1326 1.935 . S
Fe1312 O1332 2.077 . S
Fe1312 O1341 1.935 . S
O1313 Fe1312 1.886 . S
O1313 Fe1315 1.715 . S
Fe1314 O1316 1.886 . S
Fe1314 O1317 1.715 . S
Fe1314 O1324 1.935 . S
Fe1314 O1325 2.077 . S
Fe1314 O1331 1.935 . S
Fe1314 O1340 2.077 . S
Fe1315 O1313 1.715 . S
Fe1315 O1318 1.886 . S
Fe1315 O1322 1.935 . S
Fe1315 O1327 2.077 . S
Fe1315 O1333 1.935 . S
Fe1315 O1337 2.077 . S
O1316 Fe1312 1.715 . S
O1316 Fe1314 1.886 . S
O1317 Fe1314 1.715 . S
O1317 Fe1319 1.886 . S
O1318 Fe1315 1.886 . S
O1318 Fe1319 1.715 . S
Fe1319 O1317 1.886 . S
Fe1319 O1318 1.715 . S
Fe1319 O1323 2.077 . S
Fe1319 O1328 1.935 . S
Fe1319 O1330 2.077 . S
Fe1319 O1338 1.935 . S
C1320 O1332 1.381 . S
C1320 O1333 1.421 . S
O1321 Fe1312 2.077 . S
O1321 C1334 1.381 . S
O1322 Fe1315 1.935 . S
O1322 C1334 1.421 . S
O1323 Fe1319 2.077 . S
O1323 C1339 1.381 . S
O1324 Fe1314 1.935 . S
O1324 C1339 1.421 . S
O1325 Fe1314 2.077 . S
O1325 C1329 1.381 . S
O1326 Fe1312 1.935 . S
O1326 C1329 1.421 . S
O1327 Fe1315 2.077 . S
O1327 C1335 1.381 . S
O1328 Fe1319 1.935 . S
O1328 C1335 1.421 . S
C1329 O1325 1.381 . S
C1329 O1326 1.421 . S
O1330 Fe1319 2.077 . S
O1330 C1342 1.381 . S
O1331 Fe1314 1.935 . S
O1331 C1342 1.421 . S
O1332 Fe1312 2.077 . S
O1332 C1320 1.381 . S
O1333 Fe1315 1.935 . S
O1333 C1320 1.421 . S
C1334 O1321 1.381 . S
C1334 O1322 1.421 . S
C1335 O1327 1.381 . S
C1335 O1328 1.421 . S
C1336 O1337 1.381 . S
C1336 O1338 1.421 . S
O1337 Fe1315 2.077 . S
O1337 C1336 1.381 . S
O1338 Fe1319 1.935 . S
O1338 C1336 1.421 . S
C1339 O1323 1.381 . S
C1339 O1324 1.421 . S
O1340 Fe1314 2.077 . S
O1340 C1343 1.381 . S
O1341 Fe1312 1.935 . S
O1341 C1343 1.421 . S
C1342 O1330 1.381 . S
C1342 O1331 1.421 . S
C1343 O1340 1.381 . S
C1343 O1341 1.421 . S
Fe1344 O1345 1.886 . S
Fe1344 O1348 1.715 . S
Fe1344 O1353 2.077 . S
Fe1344 O1358 1.935 . S
Fe1344 O1364 2.077 . S
Fe1344 O1373 1.935 . S
O1345 Fe1344 1.886 . S
O1345 Fe1347 1.715 . S
Fe1346 O1348 1.886 . S
Fe1346 O1349 1.715 . S
Fe1346 O1356 1.935 . S
Fe1346 O1357 2.077 . S
Fe1346 O1363 1.935 . S
Fe1346 O1372 2.077 . S
Fe1347 O1345 1.715 . S
Fe1347 O1350 1.886 . S
Fe1347 O1354 1.935 . S
Fe1347 O1359 2.077 . S
Fe1347 O1365 1.935 . S
Fe1347 O1369 2.077 . S
O1348 Fe1344 1.715 . S
O1348 Fe1346 1.886 . S
O1349 Fe1346 1.715 . S
O1349 Fe1351 1.886 . S
O1350 Fe1347 1.886 . S
O1350 Fe1351 1.715 . S
Fe1351 O1349 1.886 . S
Fe1351 O1350 1.715 . S
Fe1351 O1355 2.077 . S
Fe1351 O1360 1.935 . S
Fe1351 O1362 2.077 . S
Fe1351 O1370 1.935 . S
C1352 O1364 1.381 . S
C1352 O1365 1.421 . S
O1353 Fe1344 2.077 . S
O1353 C1366 1.381 . S
O1354 Fe1347 1.935 . S
O1354 C1366 1.421 . S
O1355 Fe1351 2.077 . S
O1355 C1371 1.381 . S
O1356 Fe1346 1.935 . S
O1356 C1371 1.421 . S
O1357 Fe1346 2.077 . S
O1357 C1361 1.381 . S
O1358 Fe1344 1.935 . S
O1358 C1361 1.421 . S
O1359 Fe1347 2.077 . S
O1359 C1367 1.381 . S
O1360 Fe1351 1.935 . S
O1360 C1367 1.421 . S
C1361 O1357 1.381 . S
C1361 O1358 1.421 . S
O1362 Fe1351 2.077 . S
O1362 C1374 1.381 . S
O1363 Fe1346 1.935 . S
O1363 C1374 1.421 . S
O1364 Fe1344 2.077 . S
O1364 C1352 1.381 . S
O1365 Fe1347 1.935 . S
O1365 C1352 1.421 . S
C1366 O1353 1.381 . S
C1366 O1354 1.421 . S
C1367 O1359 1.381 . S
C1367 O1360 1.421 . S
C1368 O1369 1.381 . S
C1368 O1370 1.421 . S
O1369 Fe1347 2.077 . S
O1369 C1368 1.381 . S
O1370 Fe1351 1.935 . S
O1370 C1368 1.421 . S
C1371 O1355 1.381 . S
C1371 O1356 1.421 . S
O1372 Fe1346 2.077 . S
O1372 C1375 1.381 . S
O1373 Fe1344 1.935 . S
O1373 C1375 1.421 . S
C1374 O1362 1.381 . S
C1374 O1363 1.421 . S
C1375 O1372 1.381 . S
C1375 O1373 1.421 . S
Fe1376 O1377 1.886 . S
Fe1376 O1380 1.715 . S
Fe1376 O1385 2.077 . S
Fe1376 O1390 1.935 . S
Fe1376 O1396 2.077 . S
Fe1376 O1405 1.935 . S
O1377 Fe1376 1.886 . S
O1377 Fe1379 1.715 . S
Fe1378 O1380 1.886 . S
Fe1378 O1381 1.715 . S
Fe1378 O1388 1.935 . S
Fe1378 O1389 2.077 . S
Fe1378 O1395 1.935 . S
Fe1378 O1404 2.077 . S
Fe1379 O1377 1.715 . S
Fe1379 O1382 1.886 . S
Fe1379 O1386 1.935 . S
Fe1379 O1391 2.077 . S
Fe1379 O1397 1.935 . S
Fe1379 O1401 2.077 . S
O1380 Fe1376 1.715 . S
O1380 Fe1378 1.886 . S
O1381 Fe1378 1.715 . S
O1381 Fe1383 1.886 . S
O1382 Fe1379 1.886 . S
O1382 Fe1383 1.715 . S
Fe1383 O1381 1.886 . S
Fe1383 O1382 1.715 . S
Fe1383 O1387 2.077 . S
Fe1383 O1392 1.935 . S
Fe1383 O1394 2.077 . S
Fe1383 O1402 1.935 . S
C1384 O1396 1.381 . S
C1384 O1397 1.421 . S
O1385 Fe1376 2.077 . S
O1385 C1398 1.381 . S
O1386 Fe1379 1.935 . S
O1386 C1398 1.421 . S
O1387 Fe1383 2.077 . S
O1387 C1403 1.381 . S
O1388 Fe1378 1.935 . S
O1388 C1403 1.421 . S
O1389 Fe1378 2.077 . S
O1389 C1393 1.381 . S
O1390 Fe1376 1.935 . S
O1390 C1393 1.421 . S
O1391 Fe1379 2.077 . S
O1391 C1399 1.381 . S
O1392 Fe1383 1.935 . S
O1392 C1399 1.421 . S
C1393 O1389 1.381 . S
C1393 O1390 1.421 . S
O1394 Fe1383 2.077 . S
O1394 C1406 1.381 . S
O1395 Fe1378 1.935 . S
O1395 C1406 1.421 . S
O1396 Fe1376 2.077 . S
O1396 C1384 1.381 . S
O1397 Fe1379 1.935 . S
O1397 C1384 1.421 . S
C1398 O1385 1.381 . S
C1398 O1386 1.421 . S
C1399 O1391 1.381 . S
C1399 O1392 1.421 . S
C1400 O1401 1.381 . S
C1400 O1402 1.421 . S
O1401 Fe1379 2.077 . S
O1401 C1400 1.381 . S
O1402 Fe1383 1.935 . S
O1402 C1400 1.421 . S
C1403 O1387 1.381 . S
C1403 O1388 1.421 . S
O1404 Fe1378 2.077 . S
O1404 C1407 1.381 . S
O1405 Fe1376 1.935 . S
O1405 C1407 1.421 . S
C1406 O1394 1.381 . S
C1406 O1395 1.421 . S
C1407 O1404 1.381 . S
C1407 O1405 1.421 . S
Fe1408 O1409 1.886 . S
Fe1408 O1412 1.715 . S
Fe1408 O1417 2.077 . S
Fe1408 O1422 1.935 . S
Fe1408 O1428 2.077 . S
Fe1408 O1437 1.935 . S
O1409 Fe1408 1.886 . S
O1409 Fe1411 1.715 . S
Fe1410 O1412 1.886 . S
Fe1410 O1413 1.715 . S
Fe1410 O1420 1.935 . S
Fe1410 O1421 2.077 . S
Fe1410 O1427 1.935 . S
Fe1410 O1436 2.077 . S
Fe1411 O1409 1.715 . S
Fe1411 O1414 1.886 . S
Fe1411 O1418 1.935 . S
Fe1411 O1423 2.077 . S
Fe1411 O1429 1.935 . S
Fe1411 O1433 2.077 . S
O1412 Fe1408 1.715 . S
O1412 Fe1410 1.886 . S
O1413 Fe1410 1.715 . S
O1413 Fe1415 1.886 . S
O1414 Fe1411 1.886 . S
O1414 Fe1415 1.715 . S
Fe1415 O1413 1.886 . S
Fe1415 O1414 1.715 . S
Fe1415 O1419 2.077 . S
Fe1415 O1424 1.935 . S
Fe1415 O1426 2.077 . S
Fe1415 O1434 1.935 . S
C1416 O1428 1.381 . S
C1416 O1429 1.421 . S
O1417 Fe1408 2.077 . S
O1417 C1430 1.381 . S
O1418 Fe1411 1.935 . S
O1418 C1430 1.421 . S
O1419 Fe1415 2.077 . S
O1419 C1435 1.381 . S
O1420 Fe1410 1.935 . S
O1420 C1435 1.421 . S
O1421 Fe1410 2.077 . S
O1421 C1425 1.381 . S
O1422 Fe1408 1.935 . S
O1422 C1425 1.421 . S
O1423 Fe1411 2.077 . S
O1423 C1431 1.381 . S
O1424 Fe1415 1.935 . S
O1424 C1431 1.421 . S
C1425 O1421 1.381 . S
C1425 O1422 1.421 . S
O1426 Fe1415 2.077 . S
O1426 C1438 1.381 . S
O1427 Fe1410 1.935 . S
O1427 C1438 1.421 . S
O1428 Fe1408 2.077 . S
O1428 C1416 1.381 . S
O1429 Fe1411 1.935 . S
O1429 C1416 1.421 . S
C1430 O1417 1.381 . S
C1430 O1418 1.421 . S
C1431 O1423 1.381 . S
C1431 O1424 1.421 . S
C1432 O1433 1.381 . S
C1432 O1434 1.421 . S
O1433 Fe1411 2.077 . S
O1433 C1432 1.381 . S
O1434 Fe1415 1.935 . S
O1434 C1432 1.421 . S
C1435 O1419 1.381 . S
C1435 O1420 1.421 . S
O1436 Fe1410 2.077 . S
O1436 C1439 1.381 . S
O1437 Fe1408 1.935 . S
O1437 C1439 1.421 . S
C1438 O1426 1.381 . S
C1438 O1427 1.421 . S
C1439 O1436 1.381 . S
C1439 O1437 1.421 . S
Fe1440 O1441 1.886 . S
Fe1440 O1444 1.715 . S
Fe1440 O1449 2.077 . S
Fe1440 O1454 1.935 . S
Fe1440 O1460 2.077 . S
Fe1440 O1469 1.935 . S
O1441 Fe1440 1.886 . S
O1441 Fe1443 1.715 . S
Fe1442 O1444 1.886 . S
Fe1442 O1445 1.715 . S
Fe1442 O1452 1.935 . S
Fe1442 O1453 2.077 . S
Fe1442 O1459 1.935 . S
Fe1442 O1468 2.077 . S
Fe1443 O1441 1.715 . S
Fe1443 O1446 1.886 . S
Fe1443 O1450 1.935 . S
Fe1443 O1455 2.077 . S
Fe1443 O1461 1.935 . S
Fe1443 O1465 2.077 . S
O1444 Fe1440 1.715 . S
O1444 Fe1442 1.886 . S
O1445 Fe1442 1.715 . S
O1445 Fe1447 1.886 . S
O1446 Fe1443 1.886 . S
O1446 Fe1447 1.715 . S
Fe1447 O1445 1.886 . S
Fe1447 O1446 1.715 . S
Fe1447 O1451 2.077 . S
Fe1447 O1456 1.935 . S
Fe1447 O1458 2.077 . S
Fe1447 O1466 1.935 . S
C1448 O1460 1.381 . S
C1448 O1461 1.421 . S
O1449 Fe1440 2.077 . S
O1449 C1462 1.381 . S
O1450 Fe1443 1.935 . S
O1450 C1462 1.421 . S
O1451 Fe1447 2.077 . S
O1451 C1467 1.381 . S
O1452 Fe1442 1.935 . S
O1452 C1467 1.421 . S
O1453 Fe1442 2.077 . S
O1453 C1457 1.381 . S
O1454 Fe1440 1.935 . S
O1454 C1457 1.421 . S
O1455 Fe1443 2.077 . S
O1455 C1463 1.381 . S
O1456 Fe1447 1.935 . S
O1456 C1463 1.421 . S
C1457 O1453 1.381 . S
C1457 O1454 1.421 . S
O1458 Fe1447 2.077 . S
O1458 C1470 1.381 . S
O1459 Fe1442 1.935 . S
O1459 C1470 1.421 . S
O1460 Fe1440 2.077 . S
O1460 C1448 1.381 . S
O1461 Fe1443 1.935 . S
O1461 C1448 1.421 . S
C1462 O1449 1.381 . S
C1462 O1450 1.421 . S
C1463 O1455 1.381 . S
C1463 O1456 1.421 . S
C1464 O1465 1.381 . S
C1464 O1466 1.421 . S
O1465 Fe1443 2.077 . S
O1465 C1464 1.381 . S
O1466 Fe1447 1.935 . S
O1466 C1464 1.421 . S
C1467 O1451 1.381 . S
C1467 O1452 1.421 . S
O1468 Fe1442 2.077 . S
O1468 C1471 1.381 . S
O1469 Fe1440 1.935 . S
O1469 C1471 1.421 . S
C1470 O1458 1.381 . S
C1470 O1459 1.421 . S
C1471 O1468 1.381 . S
C1471 O1469 1.421 . S
Fe1472 O1473 1.886 . S
Fe1472 O1476 1.715 . S
Fe1472 O1481 2.077 . S
Fe1472 O1486 1.935 . S
Fe1472 O1492 2.077 . S
Fe1472 O1501 1.935 . S
O1473 Fe1472 1.886 . S
O1473 Fe1475 1.715 . S
Fe1474 O1476 1.886 . S
Fe1474 O1477 1.715 . S
Fe1474 O1484 1.935 . S
Fe1474 O1485 2.077 . S
Fe1474 O1491 1.935 . S
Fe1474 O1500 2.077 . S
Fe1475 O1473 1.715 . S
Fe1475 O1478 1.886 . S
Fe1475 O1482 1.935 . S
Fe1475 O1487 2.077 . S
Fe1475 O1493 1.935 . S
Fe1475 O1497 2.077 . S
O1476 Fe1472 1.715 . S
O1476 Fe1474 1.886 . S
O1477 Fe1474 1.715 . S
O1477 Fe1479 1.886 . S
O1478 Fe1475 1.886 . S
O1478 Fe1479 1.715 . S
Fe1479 O1477 1.886 . S
Fe1479 O1478 1.715 . S
Fe1479 O1483 2.077 . S
Fe1479 O1488 1.935 . S
Fe1479 O1490 2.077 . S
Fe1479 O1498 1.935 . S
C1480 O1492 1.381 . S
C1480 O1493 1.421 . S
O1481 Fe1472 2.077 . S
O1481 C1494 1.381 . S
O1482 Fe1475 1.935 . S
O1482 C1494 1.421 . S
O1483 Fe1479 2.077 . S
O1483 C1499 1.381 . S
O1484 Fe1474 1.935 . S
O1484 C1499 1.421 . S
O1485 Fe1474 2.077 . S
O1485 C1489 1.381 . S
O1486 Fe1472 1.935 . S
O1486 C1489 1.421 . S
O1487 Fe1475 2.077 . S
O1487 C1495 1.381 . S
O1488 Fe1479 1.935 . S
O1488 C1495 1.421 . S
C1489 O1485 1.381 . S
C1489 O1486 1.421 . S
O1490 Fe1479 2.077 . S
O1490 C1502 1.381 . S
O1491 Fe1474 1.935 . S
O1491 C1502 1.421 . S
O1492 Fe1472 2.077 . S
O1492 C1480 1.381 . S
O1493 Fe1475 1.935 . S
O1493 C1480 1.421 . S
C1494 O1481 1.381 . S
C1494 O1482 1.421 . S
C1495 O1487 1.381 . S
C1495 O1488 1.421 . S
C1496 O1497 1.381 . S
C1496 O1498 1.421 . S
O1497 Fe1475 2.077 . S
O1497 C1496 1.381 . S
O1498 Fe1479 1.935 . S
O1498 C1496 1.421 . S
C1499 O1483 1.381 . S
C1499 O1484 1.421 . S
O1500 Fe1474 2.077 . S
O1500 C1503 1.381 . S
O1501 Fe1472 1.935 . S
O1501 C1503 1.421 . S
C1502 O1490 1.381 . S
C1502 O1491 1.421 . S
C1503 O1500 1.381 . S
C1503 O1501 1.421 . S
Fe1504 O1505 1.886 . S
Fe1504 O1508 1.715 . S
Fe1504 O1513 2.077 . S
Fe1504 O1518 1.935 . S
Fe1504 O1524 2.077 . S
Fe1504 O1533 1.935 . S
O1505 Fe1504 1.886 . S
O1505 Fe1507 1.715 . S
Fe1506 O1508 1.886 . S
Fe1506 O1509 1.715 . S
Fe1506 O1516 1.935 . S
Fe1506 O1517 2.077 . S
Fe1506 O1523 1.935 . S
Fe1506 O1532 2.077 . S
Fe1507 O1505 1.715 . S
Fe1507 O1510 1.886 . S
Fe1507 O1514 1.935 . S
Fe1507 O1519 2.077 . S
Fe1507 O1525 1.935 . S
Fe1507 O1529 2.077 . S
O1508 Fe1504 1.715 . S
O1508 Fe1506 1.886 . S
O1509 Fe1506 1.715 . S
O1509 Fe1511 1.886 . S
O1510 Fe1507 1.886 . S
O1510 Fe1511 1.715 . S
Fe1511 O1509 1.886 . S
Fe1511 O1510 1.715 . S
Fe1511 O1515 2.077 . S
Fe1511 O1520 1.935 . S
Fe1511 O1522 2.077 . S
Fe1511 O1530 1.935 . S
C1512 O1524 1.381 . S
C1512 O1525 1.421 . S
O1513 Fe1504 2.077 . S
O1513 C1526 1.381 . S
O1514 Fe1507 1.935 . S
O1514 C1526 1.421 . S
O1515 Fe1511 2.077 . S
O1515 C1531 1.381 . S
O1516 Fe1506 1.935 . S
O1516 C1531 1.421 . S
O1517 Fe1506 2.077 . S
O1517 C1521 1.381 . S
O1518 Fe1504 1.935 . S
O1518 C1521 1.421 . S
O1519 Fe1507 2.077 . S
O1519 C1527 1.381 . S
O1520 Fe1511 1.935 . S
O1520 C1527 1.421 . S
C1521 O1517 1.381 . S
C1521 O1518 1.421 . S
O1522 Fe1511 2.077 . S
O1522 C1534 1.381 . S
O1523 Fe1506 1.935 . S
O1523 C1534 1.421 . S
O1524 Fe1504 2.077 . S
O1524 C1512 1.381 . S
O1525 Fe1507 1.935 . S
O1525 C1512 1.421 . S
C1526 O1513 1.381 . S
C1526 O1514 1.421 . S
C1527 O1519 1.381 . S
C1527 O1520 1.421 . S
C1528 O1529 1.381 . S
C1528 O1530 1.421 . S
O1529 Fe1507 2.077 . S
O1529 C1528 1.381 . S
O1530 Fe1511 1.935 . S
O1530 C1528 1.421 . S
C1531 O1515 1.381 . S
C1531 O1516 1.421 . S
O1532 Fe1506 2.077 . S
O1532 C1535 1.381 . S
O1533 Fe1504 1.935 . S
O1533 C1535 1.421 . S
C1534 O1522 1.381 . S
C1534 O1523 1.421 . S
C1535 O1532 1.381 . S
C1535 O1533 1.421 . S
C504 C30 1.434 1_565 S
C607 C40 1.434 1_455 S
C72 C447 1.434 1_556 S
C479 C126 1.434 . S
C792 C155 1.427 . S
C1112 C187 1.427 1_556 S
C219 C1439 1.427 1_545 S
C1144 C246 1.427 1_455 S
C286 C88 1.434 1_554 S
C318 C127 1.434 . S
C347 C31 1.427 . S
C374 C56 1.427 . S
C215 C264 1.427 . S
C241 C296 1.427 . S
C342 C151 1.434 . S
C183 C379 1.434 1_554 S
C414 C952 1.434 1_455 S
C287 C446 1.434 . S
C319 C478 1.434 . S
C343 C488 1.427 1_545 S
C1329 C542 1.427 . S
C552 C1041 1.427 . S
C849 C456 1.427 1_545 S
C920 C584 1.434 1_655 S
C854 C247 1.434 1_545 S
C936 C631 1.427 1_655 S
C808 C657 1.427 1_556 S
C703 C1051 1.427 1_556 S
C1462 C728 1.427 1_545 S
C1278 C24 1.434 1_655 S
C760 C662 1.427 1_556 S
C472 C251 1.427 . S
C415 C635 1.427 . S
C712 C767 1.434 . S
C799 C8 1.434 . S
C408 C702 1.434 1_554 S
C606 C369 1.427 1_455 S
C744 C824 1.434 . S
C337 C776 1.427 . S
C888 C1374 1.434 . S
C927 C1118 1.434 . S
C574 C959 1.434 1_455 S
C104 C1151 1.434 1_655 S
C1087 C968 1.434 . S
C62 C1119 1.434 . S
C630 C568 1.427 . S
C1375 C1019 1.427 . S
C600 C182 1.427 1_456 S
C894 C984 1.434 . S
C926 C63 1.434 . S
C859 C120 1.427 1_545 S
C1015 C872 1.427 . S
C177 C904 1.427 1_554 S
C625 C1046 1.434 . S
C1272 C510 1.434 1_645 S
C895 C1086 1.434 . S
C1047 C392 1.427 . S
C1457 C766 1.427 1_545 S
C1096 C375 1.427 . S
C1128 C312 1.434 1_455 S
C1256 C145 1.427 1_655 S
C1246 C1169 1.427 . S
C1334 C1208 1.427 . S
C958 C696 1.434 1_654 S
C1174 C536 1.427 . S
C150 C511 1.427 1_545 S
C543 C1192 1.434 . S
C680 C575 1.434 1_556 S
C855 C1150 1.427 1_645 S
C520 C1247 1.434 . S
C1438 C280 1.434 1_565 S
C798 C1279 1.434 1_455 S
C1432 C94 1.434 1_564 S
C1407 C734 1.434 . S
C214 C440 1.427 . S
C1528 C1179 1.427 . S
C735 C830 1.434 . S
C95 C1307 1.427 1_556 S
C209 C1302 1.434 . S
C1175 C1339 1.434 . S
C831 C1406 1.434 . S
C1416 C1303 1.427 1_565 S
C1489 C1064 1.427 . S
C1463 C1384 1.427 1_545 S
C663 C1467 1.434 1_564 S
C991 C1499 1.427 . S
C667 C1400 1.427 1_554 S
C990 C1368 1.434 . S
C424 C1297 1.427 . S
C1534 C1240 1.434 . S
C1535 C1214 1.434 . S
C1014 C1080 1.427 . S
C1215 C1224 1.434 . S
C1009 C1494 1.434 . S
C1352 C1495 1.427 . S
C1335 C1512 1.427 . S
C1147 C27 1.176 1_565 S
C795 C54 1.176 1_455 S
C1115 C86 1.176 . S
C1430 C123 1.176 . S
C158 C598 1.213 . S
C190 C438 1.213 . S
C222 C470 1.213 1_545 S
C232 C507 1.213 1_655 S
C283 C1470 1.213 1_554 S
C950 C315 1.176 . S
C1243 C350 1.213 . S
C1480 C360 1.248 . S
C278 C1238 1.176 . S
C310 C1502 1.213 . S
C328 C1448 1.248 . S
C955 C382 1.213 1_554 S
C168 C411 1.213 1_655 S
C443 C1206 1.176 . S
C475 C982 1.176 . S
C502 C731 1.176 . S
C539 C987 1.176 . S
C566 C670 1.213 . S
C1271 C248 1.213 1_545 S
C311 C632 1.213 1_655 S
C1055 C671 1.176 . S
C1464 C152 1.176 . S
C945 C113 1.248 . S
C817 C689 1.248 . S
C727 C344 1.213 1_565 S
C23 C856 1.213 1_455 S
C1431 C759 1.248 1_554 S
C791 C593 1.248 . S
C471 C1073 1.248 . S
C1521 C401 1.248 . S
C753 C1079 1.248 . S
C785 C1527 1.248 . S
C465 C1425 1.248 . S
C407 C599 1.248 1_554 S
C695 C383 1.213 1_455 S
C823 C1016 1.213 . S
C1183 C351 1.176 . S
C223 C863 1.176 . S
C1176 C887 1.213 . S
C81 C913 1.248 . S
C603 C699 1.176 . S
C571 C118 1.176 1_455 S
C1366 C59 1.176 . S
C616 C1142 1.213 . S
C1078 C254 1.213 . S
C1110 C1022 1.213 . S
C891 C1342 1.213 . S
C923 C1270 1.176 . S
C1054 C822 1.213 1_554 S
C862 C1288 1.248 . S
C886 C827 1.176 . S
C918 C1310 1.213 1_556 S
C1320 C1032 1.248 . S
C1275 C840 1.213 . S
C726 C1083 1.176 . S
C1211 C406 1.176 . S
C763 C91 1.176 1_565 S
C790 C1182 1.213 . S
C951 C184 1.213 . S
C159 C919 1.213 1_455 S
C639 C1336 1.176 . S
C49 C1265 1.248 . S
C17 C1239 1.248 . S
C1207 C1048 1.213 . S
C535 C1367 1.248 . S
C567 C1137 1.248 . S
C433 C1111 1.248 1_554 S
C497 C1393 1.248 . S
C439 C529 1.248 . S
C561 C1399 1.248 1_554 S
C1105 C1361 1.248 . S
C1143 C503 1.248 . S
C216 C1233 1.213 . S
C1023 C376 1.176 . S
C664 C279 1.213 1_565 S
C977 C305 1.248 . S
C1531 C22 1.176 . S
C534 C200 1.213 . S
C136 C1398 1.213 1_545 S
C1435 C648 1.213 . S
C1160 C1371 1.213 . S
C694 C1403 1.176 . S
C255 C1503 1.176 . S
C881 C721 1.248 . S
C119 C1304 1.213 1_565 S
C87 C1471 1.213 . S
C983 C1343 1.213 . S
C191 C1311 1.176 . S
C758 C1000 1.213 . S
C1526 C638 1.213 . S
C1201 C273 1.248 . S
C1496 C55 1.213 . S
