# Generated by pormake.
# Topology zfy, (5)-cn, num edge types: 1
# Building blocks:
#     Node 0, Type 0, BuildingBlock: XOMCOT_clean_sbu_0, # of connection points: 5
#     Node 1, Type 0, BuildingBlock: XOMCOT_clean_sbu_0, # of connection points: 5
#     Node 2, Type 0, BuildingBlock: XOMCOT_clean_sbu_0, # of connection points: 5
#     Node 3, Type 0, BuildingBlock: XOMCOT_clean_sbu_0, # of connection points: 5
#     Node 4, Type 0, BuildingBlock: XOMCOT_clean_sbu_0, # of connection points: 5
#     Node 5, Type 0, BuildingBlock: XOMCOT_clean_sbu_0, # of connection points: 5
#     Node 6, Type 0, BuildingBlock: XOMCOT_clean_sbu_0, # of connection points: 5
#     Node 7, Type 0, BuildingBlock: XOMCOT_clean_sbu_0, # of connection points: 5
#     Node 8, Type 0, BuildingBlock: XOMCOT_clean_sbu_0, # of connection points: 5
#     Node 9, Type 0, BuildingBlock: XOMCOT_clean_sbu_0, # of connection points: 5
#     Node 10, Type 0, BuildingBlock: XOMCOT_clean_sbu_0, # of connection points: 5
#     Node 11, Type 0, BuildingBlock: XOMCOT_clean_sbu_0, # of connection points: 5
#     Node 12, Type 0, BuildingBlock: XOMCOT_clean_sbu_0, # of connection points: 5
#     Node 13, Type 0, BuildingBlock: XOMCOT_clean_sbu_0, # of connection points: 5
#     Node 14, Type 0, BuildingBlock: XOMCOT_clean_sbu_0, # of connection points: 5
#     Node 15, Type 0, BuildingBlock: XOMCOT_clean_sbu_0, # of connection points: 5
#     Edge 16, Type (0, 0), BuildingBlock: TEMPAE_clean_linker_10, # of connection points: 2
#     Edge 17, Type (0, 0), BuildingBlock: TEMPAE_clean_linker_10, # of connection points: 2
#     Edge 18, Type (0, 0), BuildingBlock: TEMPAE_clean_linker_10, # of connection points: 2
#     Edge 19, Type (0, 0), BuildingBlock: TEMPAE_clean_linker_10, # of connection points: 2
#     Edge 20, Type (0, 0), BuildingBlock: TEMPAE_clean_linker_10, # of connection points: 2
#     Edge 21, Type (0, 0), BuildingBlock: TEMPAE_clean_linker_10, # of connection points: 2
#     Edge 22, Type (0, 0), BuildingBlock: TEMPAE_clean_linker_10, # of connection points: 2
#     Edge 23, Type (0, 0), BuildingBlock: TEMPAE_clean_linker_10, # of connection points: 2
#     Edge 24, Type (0, 0), BuildingBlock: TEMPAE_clean_linker_10, # of connection points: 2
#     Edge 25, Type (0, 0), BuildingBlock: TEMPAE_clean_linker_10, # of connection points: 2
#     Edge 26, Type (0, 0), BuildingBlock: TEMPAE_clean_linker_10, # of connection points: 2
#     Edge 27, Type (0, 0), BuildingBlock: TEMPAE_clean_linker_10, # of connection points: 2
#     Edge 28, Type (0, 0), BuildingBlock: TEMPAE_clean_linker_10, # of connection points: 2
#     Edge 29, Type (0, 0), BuildingBlock: TEMPAE_clean_linker_10, # of connection points: 2
#     Edge 30, Type (0, 0), BuildingBlock: TEMPAE_clean_linker_10, # of connection points: 2
#     Edge 31, Type (0, 0), BuildingBlock: TEMPAE_clean_linker_10, # of connection points: 2
#     Edge 32, Type (0, 0), BuildingBlock: TEMPAE_clean_linker_10, # of connection points: 2
#     Edge 33, Type (0, 0), BuildingBlock: TEMPAE_clean_linker_10, # of connection points: 2
#     Edge 34, Type (0, 0), BuildingBlock: TEMPAE_clean_linker_10, # of connection points: 2
#     Edge 35, Type (0, 0), BuildingBlock: TEMPAE_clean_linker_10, # of connection points: 2
#     Edge 36, Type (0, 0), BuildingBlock: TEMPAE_clean_linker_10, # of connection points: 2
#     Edge 37, Type (0, 0), BuildingBlock: TEMPAE_clean_linker_10, # of connection points: 2
#     Edge 38, Type (0, 0), BuildingBlock: TEMPAE_clean_linker_10, # of connection points: 2
#     Edge 39, Type (0, 0), BuildingBlock: TEMPAE_clean_linker_10, # of connection points: 2
#     Edge 40, Type (0, 0), BuildingBlock: TEMPAE_clean_linker_10, # of connection points: 2
#     Edge 41, Type (0, 0), BuildingBlock: TEMPAE_clean_linker_10, # of connection points: 2
#     Edge 42, Type (0, 0), BuildingBlock: TEMPAE_clean_linker_10, # of connection points: 2
#     Edge 43, Type (0, 0), BuildingBlock: TEMPAE_clean_linker_10, # of connection points: 2
#     Edge 44, Type (0, 0), BuildingBlock: TEMPAE_clean_linker_10, # of connection points: 2
#     Edge 45, Type (0, 0), BuildingBlock: TEMPAE_clean_linker_10, # of connection points: 2
#     Edge 46, Type (0, 0), BuildingBlock: TEMPAE_clean_linker_10, # of connection points: 2
#     Edge 47, Type (0, 0), BuildingBlock: TEMPAE_clean_linker_10, # of connection points: 2
#     Edge 48, Type (0, 0), BuildingBlock: TEMPAE_clean_linker_10, # of connection points: 2
#     Edge 49, Type (0, 0), BuildingBlock: TEMPAE_clean_linker_10, # of connection points: 2
#     Edge 50, Type (0, 0), BuildingBlock: TEMPAE_clean_linker_10, # of connection points: 2
#     Edge 51, Type (0, 0), BuildingBlock: TEMPAE_clean_linker_10, # of connection points: 2
#     Edge 52, Type (0, 0), BuildingBlock: TEMPAE_clean_linker_10, # of connection points: 2
#     Edge 53, Type (0, 0), BuildingBlock: TEMPAE_clean_linker_10, # of connection points: 2
#     Edge 54, Type (0, 0), BuildingBlock: TEMPAE_clean_linker_10, # of connection points: 2
#     Edge 55, Type (0, 0), BuildingBlock: TEMPAE_clean_linker_10, # of connection points: 2
# Relax obj value: 0.184
# Max RMSD: 0.234
# Mean RMSD: 0.230
data_MOF--net-zfy--node1-XOMCOT_clean_sbu_0--edge1-TEMPAE_clean_linker_10
_symmetry_space_group_name_H-M    P1
_symmetry_Int_Tables_number       1
_symmetry_cell_setting            triclinic
loop_
_symmetry_equiv_pos_as_xyz
'x, y, z'
_cell_length_a     53.167673
_cell_length_b     53.235456
_cell_length_c     30.625805
_cell_angle_alpha  89.898906
_cell_angle_beta   90.070991
_cell_angle_gamma 89.941147
loop_
_atom_site_label
_atom_site_type_symbol
_atom_site_fract_x
_atom_site_fract_y
_atom_site_fract_z
_atom_type_partial_charge
Co0 Co 0.33759 0.19535 0.01918 0.0
C1 C 0.30566 0.21922 0.0914 0.0
C2 C 0.34438 0.21252 0.10727 0.0
C3 C 0.33285 0.22228 0.14341 0.0
N4 N 0.32747 0.21019 0.0746 0.0
N5 N 0.30863 0.22654 0.13335 0.0
H6 H 0.28784 0.21992 0.07473 0.0
H7 H 0.36389 0.20687 0.10516 0.0
C8 C 0.34046 0.1538 0.08294 0.0
O9 O 0.31723 0.15969 0.09332 0.0
N10 N 0.35006 0.18063 0.96584 0.0
C11 C 0.3387 0.17767 0.92682 0.0
C12 C 0.35544 0.16603 0.8988 0.0
C13 C 0.37345 0.17134 0.96092 0.0
N14 N 0.37727 0.16226 0.92041 0.0
C15 C 0.28504 0.19333 1.00131 0.0
C16 C 0.2826 0.14275 0.98198 0.0
C17 C 0.26186 0.1581 0.97205 0.0
C18 C 0.26304 0.1835 0.98359 0.0
C19 C 0.30426 0.15333 1.00052 0.0
N20 N 0.3054 0.17846 0.00985 0.0
H21 H 0.28622 0.21343 1.00484 0.0
H22 H 0.32079 0.14166 1.00392 0.0
H23 H 0.31968 0.1835 0.91928 0.0
H24 H 0.38738 0.17109 0.98674 0.0
O25 O 0.32933 0.22559 0.98858 0.0
O26 O 0.36645 0.21817 0.01863 0.0
O27 O 0.352 0.166 0.05304 0.0
C28 C 0.35195 0.23333 0.99634 0.0
H29 H 0.34147 0.22585 0.17484 0.0
H30 H 0.35201 0.16114 0.86503 0.0
H31 H 0.2828 0.12312 0.97275 0.0
H32 H 0.24753 0.19613 0.97678 0.0
Co33 Co 0.5669 0.58261 0.26814 0.0
C34 C 0.54141 0.55138 0.33941 0.0
C35 C 0.54488 0.59076 0.35286 0.0
C36 C 0.53412 0.57947 0.38837 0.0
N37 N 0.54975 0.57333 0.32206 0.0
N38 N 0.53197 0.55478 0.38003 0.0
H39 H 0.5431 0.5332 0.32427 0.0
H40 H 0.54967 0.61044 0.35021 0.0
C41 C 0.6054 0.5849 0.33798 0.0
O42 O 0.59682 0.56301 0.35102 0.0
N43 N 0.58361 0.59376 0.21563 0.0
C44 C 0.58148 0.58421 0.17509 0.0
C45 C 0.5929 0.6005 0.14612 0.0
C46 C 0.59632 0.61551 0.21096 0.0
N47 N 0.60222 0.6201 0.16884 0.0
C48 C 0.56757 0.52989 0.24992 0.0
C49 C 0.6191 0.52539 0.24148 0.0
C50 C 0.60389 0.50488 0.23011 0.0
C51 C 0.57781 0.50725 0.23525 0.0
C52 C 0.60808 0.54769 0.2562 0.0
N53 N 0.58257 0.54973 0.2608 0.0
H54 H 0.54736 0.53183 0.25038 0.0
H55 H 0.62008 0.56378 0.26125 0.0
H56 H 0.57133 0.56725 0.16695 0.0
H57 H 0.59974 0.62851 0.23745 0.0
O58 O 0.53675 0.5763 0.23533 0.0
O59 O 0.54615 0.61275 0.26595 0.0
O60 O 0.59606 0.59552 0.30412 0.0
C61 C 0.53043 0.59942 0.24292 0.0
H62 H 0.52865 0.58862 0.41845 0.0
H63 H 0.59367 0.59847 0.11098 0.0
H64 H 0.63933 0.52452 0.23772 0.0
H65 H 0.56524 0.49223 0.22569 0.0
Co66 Co 0.17958 0.81982 0.52284 0.0
C67 C 0.20871 0.79356 0.59574 0.0
C68 C 0.16911 0.7862 0.59596 0.0
C69 C 0.17982 0.77318 0.62986 0.0
N70 N 0.18711 0.79881 0.57382 0.0
N71 N 0.20463 0.77788 0.62979 0.0
H72 H 0.22689 0.80147 0.58846 0.0
H73 H 0.14922 0.78676 0.58875 0.0
C74 C 0.17464 0.85391 0.59874 0.0
O75 O 0.19601 0.84458 0.61282 0.0
N76 N 0.17042 0.84009 0.47291 0.0
C77 C 0.18151 0.84052 0.43338 0.0
C78 C 0.16589 0.85306 0.40459 0.0
C79 C 0.14843 0.85242 0.46784 0.0
N80 N 0.14517 0.86051 0.42644 0.0
C81 C 0.23263 0.82024 0.51168 0.0
C82 C 0.23807 0.87179 0.50802 0.0
C83 C 0.25844 0.85648 0.49605 0.0
C84 C 0.25565 0.8304 0.49918 0.0
C85 C 0.21531 0.86081 0.52079 0.0
N86 N 0.21273 0.83527 0.5223 0.0
H87 H 0.23045 0.80008 0.5108 0.0
H88 H 0.19927 0.87286 0.52629 0.0
H89 H 0.19896 0.83111 0.42547 0.0
H90 H 0.13424 0.85373 0.49306 0.0
O91 O 0.18744 0.79233 0.485 0.0
O92 O 0.1496 0.79959 0.51217 0.0
O93 O 0.16526 0.84642 0.56258 0.0
C94 C 0.16413 0.78557 0.48804 0.0
H95 H 0.17002 0.76183 0.65377 0.0
H96 H 0.16904 0.85564 0.36995 0.0
H97 H 0.23937 0.89205 0.50582 0.0
H98 H 0.27061 0.81781 0.48932 0.0
Co99 Co 0.95176 0.43555 0.76706 0.0
C100 C 0.97605 0.46644 0.83918 0.0
C101 C 0.97706 0.42656 0.84915 0.0
C102 C 0.98811 0.43783 0.88436 0.0
N103 N 0.96945 0.44431 0.82057 0.0
N104 N 0.98734 0.46289 0.87839 0.0
H105 H 0.97178 0.48472 0.82589 0.0
H106 H 0.97422 0.40659 0.84518 0.0
C107 C 0.91355 0.43119 0.83769 0.0
O108 O 0.92204 0.45266 0.85272 0.0
N109 N 0.93452 0.42525 0.71477 0.0
C110 C 0.93626 0.4352 0.6744 0.0
C111 C 0.92438 0.41926 0.64545 0.0
C112 C 0.92163 0.40368 0.71008 0.0
N113 N 0.91518 0.39955 0.66814 0.0
C114 C 0.95094 0.48803 0.74859 0.0
C115 C 0.89933 0.49316 0.74394 0.0
C116 C 0.91444 0.51301 0.72878 0.0
C117 C 0.94064 0.51027 0.73229 0.0
C118 C 0.91045 0.47091 0.75893 0.0
N119 N 0.93602 0.46851 0.76135 0.0
H120 H 0.97115 0.48602 0.74852 0.0
H121 H 0.89835 0.45512 0.76565 0.0
H122 H 0.94647 0.45215 0.66634 0.0
H123 H 0.91852 0.39041 0.73634 0.0
O124 O 0.98159 0.44234 0.73357 0.0
O125 O 0.97253 0.40546 0.76291 0.0
O126 O 0.92307 0.42173 0.80308 0.0
C127 C 0.98799 0.41911 0.73994 0.0
H128 H 0.99589 0.42825 0.9125 0.0
H129 H 0.92326 0.42153 0.61037 0.0
H130 H 0.87902 0.4942 0.74251 0.0
H131 H 0.95336 0.52448 0.7201 0.0
Co132 Co 0.68638 0.82293 0.99449 0.0
C133 C 0.70454 0.8041 0.90724 0.0
C134 C 0.71075 0.77824 0.96002 0.0
C135 C 0.72037 0.76796 0.9227 0.0
N136 N 0.70061 0.80082 0.95061 0.0
N137 N 0.71673 0.7842 0.88945 0.0
H138 H 0.69951 0.82093 0.88942 0.0
H139 H 0.71187 0.77001 0.99222 0.0
C140 C 0.66747 0.78771 0.06712 0.0
O141 O 0.66561 0.80614 0.09531 0.0
N142 N 0.6721 0.84492 0.03825 0.0
C143 C 0.68376 0.8625 0.06255 0.0
C144 C 0.66631 0.87336 0.0899 0.0
C145 C 0.64761 0.84621 0.04954 0.0
N146 N 0.64366 0.8629 0.0819 0.0
C147 C 0.73789 0.8366 0.99712 0.0
C148 C 0.74851 0.82288 0.08213 0.0
C149 C 0.76695 0.83588 0.05821 0.0
C150 C 0.76143 0.84223 0.01478 0.0
C151 C 0.72506 0.81764 0.06315 0.0
N152 N 0.71969 0.82516 0.02147 0.0
H153 H 0.73401 0.84216 0.96386 0.0
H154 H 0.7112 0.80837 0.08278 0.0
H155 H 0.70354 0.86709 0.06083 0.0
H156 H 0.6333 0.83397 0.03621 0.0
O157 O 0.68889 0.85185 0.9565 0.0
O158 O 0.65572 0.82695 0.96015 0.0
O159 O 0.67637 0.79149 0.02875 0.0
C160 C 0.66597 0.84721 0.94413 0.0
H161 H 0.72963 0.74989 0.92046 0.0
H162 H 0.67004 0.88781 0.11387 0.0
H163 H 0.75198 0.81711 0.11551 0.0
H164 H 0.77479 0.85244 0.99487 0.0
Co165 Co 0.43891 0.42491 0.73752 0.0
C166 C 0.45722 0.44533 0.65167 0.0
C167 C 0.48658 0.42774 0.68877 0.0
C168 C 0.49644 0.43558 0.64979 0.0
N169 N 0.46198 0.43403 0.69055 0.0
N170 N 0.47805 0.44657 0.62628 0.0
H171 H 0.43887 0.45191 0.64155 0.0
H172 H 0.49698 0.41762 0.71338 0.0
C173 C 0.47328 0.40528 0.81171 0.0
O174 O 0.45491 0.40302 0.83994 0.0
N175 N 0.41588 0.41476 0.78336 0.0
C176 C 0.39977 0.42877 0.80709 0.0
C177 C 0.38786 0.41333 0.83683 0.0
C178 C 0.41235 0.39093 0.79708 0.0
N179 N 0.39602 0.3896 0.83061 0.0
C180 C 0.43146 0.4782 0.7351 0.0
C181 C 0.44317 0.48781 0.82129 0.0
C182 C 0.43298 0.50742 0.796 0.0
C183 C 0.4281 0.50243 0.75173 0.0
C184 C 0.44701 0.46404 0.80295 0.0
N185 N 0.44034 0.45915 0.76071 0.0
H186 H 0.42578 0.47458 0.70193 0.0
H187 H 0.45347 0.44931 0.82408 0.0
H188 H 0.39696 0.44878 0.80353 0.0
H189 H 0.42304 0.37512 0.78487 0.0
O190 O 0.41024 0.42883 0.69933 0.0
O191 O 0.43174 0.39351 0.70762 0.0
O192 O 0.46945 0.41415 0.77334 0.0
C193 C 0.4128 0.4052 0.68967 0.0
H194 H 0.51585 0.43354 0.6398 0.0
H195 H 0.37441 0.41915 0.86133 0.0
H196 H 0.44693 0.49018 0.85576 0.0
H197 H 0.42096 0.51685 0.73008 0.0
Co198 Co 0.83161 0.19776 0.49561 0.0
C199 C 0.81493 0.21825 0.40855 0.0
C200 C 0.81018 0.24423 0.46137 0.0
C201 C 0.80078 0.25501 0.42417 0.0
N202 N 0.81926 0.22125 0.45186 0.0
N203 N 0.80347 0.23865 0.39096 0.0
H204 H 0.81871 0.20111 0.3908 0.0
H205 H 0.8091 0.25223 0.49365 0.0
C206 C 0.85108 0.23152 0.56998 0.0
O207 O 0.85323 0.21285 0.59772 0.0
N208 N 0.84424 0.17433 0.53906 0.0
C209 C 0.83159 0.15627 0.56078 0.0
C210 C 0.84798 0.14434 0.58889 0.0
C211 C 0.86839 0.17201 0.55216 0.0
N212 N 0.87104 0.15443 0.58359 0.0
C213 C 0.77872 0.1905 0.49418 0.0
C214 C 0.76974 0.19592 0.58242 0.0
C215 C 0.74988 0.18793 0.55536 0.0
C216 C 0.75456 0.18634 0.51031 0.0
C217 C 0.7935 0.20078 0.56461 0.0
N218 N 0.79802 0.19709 0.52122 0.0
H219 H 0.78214 0.18766 0.45978 0.0
H220 H 0.80849 0.20574 0.58643 0.0
H221 H 0.81183 0.15208 0.55676 0.0
H222 H 0.88342 0.18408 0.54084 0.0
O223 O 0.82787 0.1697 0.45632 0.0
O224 O 0.86241 0.19271 0.46285 0.0
O225 O 0.84237 0.22811 0.53143 0.0
C226 C 0.85121 0.1734 0.44533 0.0
H227 H 0.79194 0.2733 0.42213 0.0
H228 H 0.84332 0.12942 0.61154 0.0
H229 H 0.76748 0.19721 0.61745 0.0
H230 H 0.73989 0.1812 0.48751 0.0
Co231 Co 0.07633 0.58885 0.23888 0.0
C232 C 0.05714 0.57446 0.15009 0.0
C233 C 0.03026 0.56858 0.20136 0.0
C234 C 0.01935 0.56185 0.16255 0.0
N235 N 0.05381 0.57685 0.19371 0.0
N236 N 0.03618 0.56558 0.13038 0.0
H237 H 0.07438 0.5789 0.13305 0.0
H238 H 0.02172 0.56686 0.2332 0.0
C239 C 0.04151 0.6103 0.30978 0.0
O240 O 0.0597 0.6116 0.33863 0.0
N241 N 0.09879 0.60099 0.28385 0.0
C242 C 0.1151 0.58794 0.30889 0.0
C243 C 0.12702 0.60446 0.33667 0.0
C244 C 0.10194 0.62524 0.29511 0.0
N245 N 0.11851 0.62786 0.32812 0.0
C246 C 0.08589 0.53641 0.24166 0.0
C247 C 0.07003 0.52721 0.32601 0.0
C248 C 0.08204 0.50781 0.30298 0.0
C249 C 0.08945 0.51259 0.25981 0.0
C250 C 0.06694 0.55087 0.30664 0.0
N251 N 0.07553 0.55547 0.26537 0.0
H252 H 0.09229 0.5398 0.20871 0.0
H253 H 0.05861 0.56549 0.32581 0.0
H254 H 0.1181 0.56788 0.30739 0.0
H255 H 0.09098 0.64045 0.28131 0.0
O256 O 0.10547 0.58434 0.20192 0.0
O257 O 0.08303 0.6193 0.2057 0.0
O258 O 0.04524 0.60086 0.27186 0.0
C259 C 0.10261 0.60764 0.19006 0.0
H260 H 1.00079 0.55385 0.15845 0.0
H261 H 0.1408 0.59959 0.36133 0.0
H262 H 0.06351 0.52434 0.35912 0.0
H263 H 0.09896 0.49841 0.24062 0.0
Co264 Co 0.83259 0.70389 0.51051 0.0
C265 C 0.79984 0.72827 0.57798 0.0
C266 C 0.83813 0.72248 0.59847 0.0
C267 C 0.82571 0.73512 0.63091 0.0
N268 N 0.82208 0.71832 0.56525 0.0
N269 N 0.80176 0.73878 0.61806 0.0
H270 H 0.78295 0.72838 0.55823 0.0
H271 H 0.85775 0.71708 0.59864 0.0
C272 C 0.84897 0.65145 0.53368 0.0
O273 O 0.84003 0.64352 0.49617 0.0
N274 N 0.84489 0.68979 0.45602 0.0
C275 C 0.83516 0.69102 0.41529 0.0
C276 C 0.85264 0.68176 0.38611 0.0
C277 C 0.86833 0.68052 0.45066 0.0
N278 N 0.87333 0.67499 0.40867 0.0
C279 C 0.7839 0.69726 0.47305 0.0
C280 C 0.76927 0.65565 0.52052 0.0
C281 C 0.7538 0.66443 0.48671 0.0
C282 C 0.76095 0.68594 0.46386 0.0
C283 C 0.79194 0.66808 0.52954 0.0
N284 N 0.79986 0.68757 0.5038 0.0
H285 H 0.78884 0.71373 0.45457 0.0
H286 H 0.80293 0.66188 0.55712 0.0
H287 H 0.81724 0.69904 0.40653 0.0
H288 H 0.88183 0.67858 0.47696 0.0
O289 O 0.82476 0.73474 0.48102 0.0
O290 O 0.8618 0.72609 0.51031 0.0
O291 O 0.84713 0.67458 0.54452 0.0
C292 C 0.84769 0.74174 0.48843 0.0
H293 H 0.83358 0.74107 0.66184 0.0
H294 H 0.85047 0.6804 0.35105 0.0
H295 H 0.76383 0.63947 0.53979 0.0
H296 H 0.74923 0.69352 0.43803 0.0
Co297 Co 0.06448 0.0856 0.76462 0.0
C298 C 0.03846 0.05739 0.83644 0.0
C299 C 0.05346 0.09315 0.85587 0.0
C300 C 0.04188 0.08246 0.89119 0.0
N301 N 0.05144 0.07752 0.82165 0.0
N302 N 0.03224 0.06004 0.87917 0.0
H303 H 0.03349 0.04142 0.81639 0.0
H304 H 0.06275 0.11121 0.85513 0.0
C305 C 0.11868 0.09742 0.78143 0.0
O306 O 0.1241 0.08545 0.74513 0.0
N307 N 0.07768 0.09568 0.708 0.0
C308 C 0.07688 0.08447 0.66852 0.0
C309 C 0.08714 0.10052 0.6379 0.0
C310 C 0.08775 0.11856 0.70038 0.0
N311 N 0.09408 0.12192 0.65812 0.0
C312 C 0.06796 0.03586 0.73056 0.0
C313 C 0.10852 0.01962 0.7794 0.0
C314 C 0.09897 1.00413 0.74637 0.0
C315 C 0.07789 0.0121 0.72298 0.0
C316 C 0.09744 0.04314 0.7868 0.0
N317 N 0.07873 0.05184 0.75998 0.0
H318 H 0.05172 0.04144 0.71185 0.0
H319 H 0.10415 0.05431 0.81375 0.0
H320 H 0.06895 0.06632 0.66149 0.0
H321 H 0.08993 0.13269 0.72545 0.0
O322 O 0.03247 0.07849 0.73876 0.0
O323 O 0.0436 0.11585 0.76348 0.0
O324 O 0.09578 0.09936 0.79382 0.0
C325 C 0.02674 0.10191 0.74423 0.0
H326 H 0.0411 0.09049 0.92359 0.0
H327 H 0.08933 0.09667 0.60342 0.0
H328 H 0.12432 0.01359 0.79919 0.0
H329 H 0.06965 1.0004 0.69783 0.0
Co330 Co 0.68236 0.31421 0.01129 0.0
C331 C 0.71456 0.28899 0.0813 0.0
C332 C 0.6748 0.28739 0.09257 0.0
C333 C 0.68664 0.27479 0.12575 0.0
N334 N 0.6921 0.29616 0.06419 0.0
N335 N 0.71159 0.27574 0.1187 0.0
H336 H 0.7327 0.29341 0.0677 0.0
H337 H 0.65473 0.29027 0.08967 0.0
C338 C 0.67826 0.35168 0.08282 0.0
O339 O 0.70008 0.34326 0.09671 0.0
N340 N 0.67111 0.33163 0.95963 0.0
C341 C 0.68123 0.33088 0.91934 0.0
C342 C 0.66467 0.34213 0.89055 0.0
C343 C 0.64879 0.34333 0.95503 0.0
N344 N 0.64436 0.34993 0.91319 0.0
C345 C 0.73508 0.31637 0.99337 0.0
C346 C 0.73869 0.36807 0.9892 0.0
C347 C 0.75958 0.35353 0.97714 0.0
C348 C 0.75763 0.32734 0.98002 0.0
C349 C 0.71647 0.35632 1.00259 0.0
N350 N 0.71491 0.33071 1.00524 0.0
H351 H 0.73355 0.29615 0.99248 0.0
H352 H 0.70011 0.36788 1.00821 0.0
H353 H 0.69875 0.3217 0.91117 0.0
H354 H 0.6353 0.34539 0.98124 0.0
O355 O 0.68947 0.28482 0.97686 0.0
O356 O 0.65267 0.29292 1.00736 0.0
O357 O 0.66834 0.34232 0.04842 0.0
C358 C 0.66641 0.27793 0.98368 0.0
H359 H 0.67763 0.26626 0.15378 0.0
H360 H 0.66699 0.34372 0.85554 0.0
H361 H 0.73923 0.38837 0.98703 0.0
H362 H 0.77297 0.31531 0.96983 0.0
Co363 Co 0.44954 0.92529 0.26914 0.0
C364 C 0.47953 0.95182 0.34099 0.0
C365 C 0.47373 0.91233 0.3502 0.0
C366 C 0.4872 0.92119 0.38496 0.0
N367 N 0.46876 0.93134 0.32239 0.0
N368 N 0.49101 0.94601 0.37936 0.0
H369 H 0.47893 0.97052 0.32757 0.0
H370 H 0.46738 0.8932 0.34589 0.0
C371 C 0.41292 0.92194 0.34126 0.0
O372 O 0.42309 0.94294 0.35518 0.0
N373 N 0.43081 0.91721 0.21695 0.0
C374 C 0.42985 0.93016 0.17918 0.0
C375 C 0.41779 0.91562 0.14835 0.0
C376 C 0.41946 0.89506 0.2087 0.0
N377 N 0.41136 0.8935 0.16694 0.0
C378 C 0.45065 0.97843 0.25722 0.0
C379 C 0.39918 0.98527 0.25217 0.0
C380 C 0.41515 1.00491 0.23992 0.0
C381 C 0.44111 1.00153 0.24338 0.0
C382 C 0.4095 0.96226 0.26525 0.0
N383 N 0.43501 0.95897 0.26772 0.0
H384 H 0.47074 0.97571 0.25618 0.0
H385 H 0.39691 0.94658 0.26978 0.0
H386 H 0.43821 0.94843 0.17395 0.0
H387 H 0.41854 0.87984 0.23213 0.0
O388 O 0.47854 0.93244 0.23435 0.0
O389 O 0.46939 0.89477 0.26041 0.0
O390 O 0.42103 0.91177 0.30609 0.0
C391 C 0.48454 0.90894 0.23764 0.0
H392 H 0.49293 0.91022 0.41304 0.0
H393 H 0.41452 0.92073 0.1146 0.0
H394 H 0.37899 0.98709 0.24855 0.0
H395 H 0.45396 0.0162 0.2332 0.0
Co396 Co 0.17729 0.32513 0.4864 0.0
C397 C 0.20131 0.30536 0.40331 0.0
C398 C 0.16704 0.28709 0.42166 0.0
C399 C 0.17521 0.27677 0.38333 0.0
N400 N 0.18355 0.30467 0.43497 0.0
N401 N 0.19673 0.28828 0.3714 0.0
H402 H 0.21673 0.31842 0.40255 0.0
H403 H 0.14995 0.28217 0.43876 0.0
C404 C 0.17731 0.27235 0.51945 0.0
O405 O 0.19852 0.26911 0.49818 0.0
N406 N 0.16916 0.34487 0.53703 0.0
C407 C 0.18143 0.36461 0.55438 0.0
C408 C 0.16661 0.37474 0.58696 0.0
C409 C 0.14725 0.34331 0.55875 0.0
N410 N 0.14505 0.36138 0.58928 0.0
C411 C 0.23018 0.33566 0.48459 0.0
C412 C 0.24134 0.31706 0.56659 0.0
C413 C 0.26004 0.33036 0.54391 0.0
C414 C 0.25421 0.33931 0.50201 0.0
C415 C 0.21747 0.31385 0.54795 0.0
N416 N 0.21211 0.32282 0.50706 0.0
H417 H 0.22568 0.34495 0.45432 0.0
H418 H 0.20291 0.30559 0.56781 0.0
H419 H 0.1993 0.37174 0.54298 0.0
H420 H 0.13282 0.32968 0.5511 0.0
O421 O 0.18039 0.35541 0.4521 0.0
O422 O 0.1449 0.3344 0.46148 0.0
O423 O 0.16664 0.29391 0.51935 0.0
C424 C 0.15641 0.3537 0.44459 0.0
H425 H 0.16593 0.26173 0.36598 0.0
H426 H 0.17074 0.39144 0.60573 0.0
H427 H 0.24477 0.30998 0.59923 0.0
H428 H 0.26755 0.35054 0.48379 0.0
Co429 Co 0.9418 0.93995 0.24628 0.0
C430 C 0.96266 0.95372 0.1578 0.0
C431 C 0.98584 0.96513 0.21165 0.0
C432 C 0.99705 0.97287 0.17377 0.0
N433 N 0.96434 0.95301 0.20196 0.0
N434 N 0.98265 0.96566 0.13971 0.0
H435 H 0.94717 0.94596 0.13934 0.0
H436 H 0.99257 0.96885 0.24433 0.0
C437 C 0.97673 0.92115 0.31948 0.0
O438 O 0.95813 0.91883 0.34724 0.0
N439 N 0.91927 0.92694 0.29059 0.0
C440 C 0.90182 0.93954 0.31381 0.0
C441 C 0.88999 0.92292 0.34151 0.0
C442 C 0.9169 0.90268 0.30285 0.0
N443 N 0.89968 0.89981 0.33479 0.0
C444 C 0.92921 0.99178 0.2465 0.0
C445 C 0.94294 1.00276 0.33132 0.0
C446 C 0.93043 0.02126 0.30671 0.0
C447 C 0.92407 0.01558 0.26337 0.0
C448 C 0.94764 0.97906 0.31318 0.0
N449 N 0.94014 0.97357 0.2716 0.0
H450 H 0.92366 0.98769 0.21333 0.0
H451 H 0.95635 0.96509 0.33343 0.0
H452 H 0.89784 0.95939 0.31095 0.0
H453 H 0.92862 0.8877 0.29035 0.0
O454 O 0.91311 0.94248 0.20766 0.0
O455 O 0.93736 0.90885 0.21392 0.0
O456 O 0.97309 0.93016 0.28114 0.0
C457 C 0.9174 0.91926 0.19693 0.0
H458 H 0.01407 0.98394 0.17175 0.0
H459 H 0.87535 0.92748 0.3647 0.0
H460 H 0.94867 1.00635 0.36467 0.0
H461 H 0.91423 0.02901 0.24299 0.0
Co462 Co 0.33865 0.68778 0.99004 0.0
C463 C 0.31156 0.70825 0.90977 0.0
C464 C 0.3503 0.71891 0.91538 0.0
C465 C 0.34106 0.72862 0.87711 0.0
N466 N 0.33203 0.70589 0.93592 0.0
N467 N 0.31677 0.72194 0.87363 0.0
H468 H 0.29337 0.70014 0.91604 0.0
H469 H 0.36928 0.72114 0.92748 0.0
C470 C 0.33798 0.74191 0.01556 0.0
O471 O 0.31726 0.74427 0.99249 0.0
N472 N 0.34705 0.67045 0.04327 0.0
C473 C 0.33528 0.65101 0.06259 0.0
C474 C 0.35033 0.64231 0.09617 0.0
C475 C 0.36889 0.67327 0.06488 0.0
N476 N 0.37155 0.65625 0.09722 0.0
C477 C 0.2863 0.67581 0.98893 0.0
C478 C 0.27388 0.69756 0.0678 0.0
C479 C 0.25578 0.68278 0.04641 0.0
C480 C 0.26226 0.67221 1.00608 0.0
C481 C 0.29781 0.70078 0.04932 0.0
N482 N 0.30377 0.69018 0.00999 0.0
H483 H 0.29123 0.66584 0.95951 0.0
H484 H 0.31196 0.71047 0.06816 0.0
H485 H 0.31768 0.64297 0.05172 0.0
H486 H 0.38301 0.68691 0.05571 0.0
O487 O 0.33615 0.6559 0.96033 0.0
O488 O 0.37125 0.67791 0.96626 0.0
O489 O 0.3487 0.72047 0.01869 0.0
C490 C 0.36003 0.65772 0.95231 0.0
H491 H 0.35132 0.73994 0.85374 0.0
H492 H 0.34665 0.62602 0.11637 0.0
H493 H 0.26991 0.7059 0.09927 0.0
H494 H 0.24938 0.65994 0.98894 0.0
Co495 Co 0.57759 0.0784 0.74325 0.0
C496 C 0.56172 0.05105 0.66245 0.0
C497 C 0.53533 0.07926 0.68304 0.0
C498 C 0.52587 0.06772 0.64656 0.0
N499 N 0.55759 0.06865 0.69343 0.0
N500 N 0.54243 0.05013 0.63363 0.0
H501 H 0.57812 0.039 0.66139 0.0
H502 H 0.52652 0.09445 0.70073 0.0
C503 C 0.53987 0.086 0.81592 0.0
O504 O 0.55564 0.07628 0.84438 0.0
N505 N 0.59705 0.08954 0.79324 0.0
C506 C 0.61574 0.07814 0.81559 0.0
C507 C 0.62512 0.09475 0.84606 0.0
C508 C 0.59556 0.11288 0.81016 0.0
N509 N 0.61245 0.11662 0.8424 0.0
C510 C 0.60019 0.0301 0.75486 0.0
C511 C 0.56179 1.00667 0.79965 0.0
C512 C 0.58455 0.99374 0.79351 0.0
C513 C 0.60355 1.0056 0.76976 0.0
C514 C 0.55893 0.03119 0.78302 0.0
N515 N 0.5786 0.04325 0.76321 0.0
H516 H 0.61572 0.03871 0.73803 0.0
H517 H 0.54088 0.0402 0.78625 0.0
H518 H 0.62284 0.05948 0.8098 0.0
H519 H 0.5824 0.12693 0.79865 0.0
O520 O 0.6078 0.07823 0.70855 0.0
O521 O 0.58302 0.11124 0.71635 0.0
O522 O 0.54545 0.08669 0.77537 0.0
C523 C 0.60362 0.10175 0.70039 0.0
H524 H 0.50823 0.07199 0.63044 0.0
H525 H 0.64078 0.09132 0.8679 0.0
H526 H 0.54634 0.99785 0.81684 0.0
H527 H 0.62141 0.99634 0.7641 0.0
C528 C 0.50479 0.0889 0.87051 0.0
C529 C 0.51531 0.09623 0.83051 0.0
C530 C 0.48168 0.09885 0.88468 0.0
C531 C 0.46908 0.11702 0.85873 0.0
C532 C 0.47968 0.1245 0.81836 0.0
C533 C 0.50249 0.11383 0.80455 0.0
C534 C 0.47078 0.09001 0.92752 0.0
C535 C 0.46719 0.1442 0.79015 0.0
C536 C 0.39933 0.13017 0.87663 0.0
C537 C 0.40013 0.15119 0.90406 0.0
C538 C 0.4216 0.11863 0.86205 0.0
C539 C 0.44522 0.12875 0.87435 0.0
C540 C 0.44607 0.1503 0.90141 0.0
C541 C 0.42353 0.16106 0.9163 0.0
C542 C 0.41988 0.09542 0.83397 0.0
C543 C 0.47078 0.16208 0.91443 0.0
H544 H 0.51452 0.0752 0.8906 0.0
H545 H 0.5106 0.11976 0.77376 0.0
H546 H 0.4696 0.10596 0.95069 0.0
H547 H 0.45136 0.08295 0.92245 0.0
H548 H 0.48221 0.07486 0.94275 0.0
H549 H 0.4778 0.14788 0.75957 0.0
H550 H 0.44786 0.13821 0.78144 0.0
H551 H 0.46554 0.16206 0.80858 0.0
H552 H 0.38124 0.1224 0.86754 0.0
H553 H 0.42415 0.17749 0.9371 0.0
H554 H 0.43002 0.07964 0.84994 0.0
H555 H 0.42912 0.09883 0.80205 0.0
H556 H 0.40011 0.08962 0.82797 0.0
H557 H 0.48227 0.14838 0.93313 0.0
H558 H 0.46817 0.17917 0.9347 0.0
H559 H 0.48164 0.16725 0.88483 0.0
C560 C 0.63315 0.65449 0.17378 0.0
C561 C 0.61333 0.64274 0.15162 0.0
C562 C 0.64338 0.67722 0.15853 0.0
C563 C 0.63307 0.68884 0.12086 0.0
C564 C 0.61315 0.6769 0.09817 0.0
C565 C 0.60374 0.65385 0.11354 0.0
C566 C 0.66496 0.68899 0.18315 0.0
C567 C 0.60114 0.68892 0.05861 0.0
C568 C 0.64018 0.75979 0.11225 0.0
C569 C 0.65893 0.7623 0.08036 0.0
C570 C 0.63141 0.73605 0.1252 0.0
C571 C 0.6421 0.71414 0.10669 0.0
C572 C 0.66125 0.71653 0.07477 0.0
C573 C 0.66918 0.7406 0.06152 0.0
C574 C 0.6105 0.73445 0.15845 0.0
C575 C 0.67353 0.69366 0.05499 0.0
H576 H 0.64066 0.6458 0.20304 0.0
H577 H 0.5882 0.64494 0.09672 0.0
H578 H 0.68067 0.6932 0.16047 0.0
H579 H 0.65884 0.70706 0.19768 0.0
H580 H 0.67208 0.67665 0.20975 0.0
H581 H 0.58635 0.67687 0.0439 0.0
H582 H 0.59255 0.70714 0.06795 0.0
H583 H 0.61558 0.69294 0.03345 0.0
H584 H 0.63196 0.77649 0.1266 0.0
H585 H 0.68375 0.74241 0.03702 0.0
H586 H 0.61715 0.72426 0.1879 0.0
H587 H 0.59447 0.72366 0.14481 0.0
H588 H 0.60361 0.75326 0.16856 0.0
H589 H 0.68186 0.68184 0.08116 0.0
H590 H 0.68852 0.69868 0.03131 0.0
H591 H 0.65924 0.68206 0.038 0.0
C592 C 0.10946 0.88992 0.43112 0.0
C593 C 0.12255 0.87124 0.40837 0.0
C594 C 0.08661 0.89959 0.41511 0.0
C595 C 0.07621 0.88975 0.37607 0.0
C596 C 0.08952 0.87098 0.35281 0.0
C597 C 0.11269 0.8622 0.36896 0.0
C598 C 0.07338 0.92002 0.44038 0.0
C599 C 0.07881 0.85943 0.31182 0.0
C600 C 1.0051 0.894 0.36417 0.0
C601 C 1.00228 0.9133 0.33333 0.0
C602 C 0.02902 0.88593 0.37774 0.0
C603 C 0.05074 0.89796 0.36106 0.0
C604 C 0.04802 0.91767 0.33021 0.0
C605 C 0.02382 0.92485 0.31618 0.0
C606 C 0.03102 0.86438 0.4097 0.0
C607 C 0.07065 0.93138 0.31247 0.0
H608 H 0.11719 0.89696 0.46148 0.0
H609 H 0.12265 0.84749 0.35171 0.0
H610 H 0.06875 0.93598 0.41843 0.0
H611 H 0.0554 0.91275 0.45364 0.0
H612 H 0.08495 0.9271 0.46796 0.0
H613 H 0.09185 0.84559 0.29685 0.0
H614 H 0.06086 0.84979 0.31956 0.0
H615 H 0.07453 0.87424 0.28742 0.0
H616 H 0.98852 0.88481 0.37717 0.0
H617 H 0.02172 0.93987 0.29252 0.0
H618 H 0.0403 0.87077 0.44016 0.0
H619 H 0.04287 0.84922 0.39572 0.0
H620 H 0.01236 0.85639 0.41821 0.0
H621 H 0.08159 0.93964 0.33978 0.0
H622 H 0.06534 0.94663 0.28941 0.0
H623 H 0.08325 0.91804 0.29533 0.0
C624 C 0.88446 0.36521 0.67399 0.0
C625 C 0.90398 0.37701 0.65117 0.0
C626 C 0.87452 0.34222 0.65972 0.0
C627 C 0.88483 0.33047 0.62232 0.0
C628 C 0.90437 0.3425 0.59885 0.0
C629 C 0.91351 0.3658 0.6133 0.0
C630 C 0.85331 0.33032 0.68509 0.0
C631 C 0.91628 0.33032 0.55946 0.0
C632 C 0.87827 0.25952 0.61508 0.0
C633 C 0.85936 0.25688 0.58349 0.0
C634 C 0.88693 0.28335 0.6276 0.0
C635 C 0.87594 0.30511 0.60891 0.0
C636 C 0.85657 0.30257 0.57746 0.0
C637 C 0.84874 0.27847 0.5647 0.0
C638 C 0.90804 0.28522 0.66047 0.0
C639 C 0.84398 0.3253 0.55755 0.0
H640 H 0.87704 0.37402 0.70315 0.0
H641 H 0.92886 0.37478 0.59606 0.0
H642 H 0.83743 0.32586 0.66287 0.0
H643 H 0.85975 0.31237 0.69978 0.0
H644 H 0.84631 0.34268 0.71164 0.0
H645 H 0.93085 0.34243 0.5442 0.0
H646 H 0.92513 0.31227 0.56917 0.0
H647 H 0.90173 0.32597 0.53462 0.0
H648 H 0.88673 0.24289 0.6294 0.0
H649 H 0.83402 0.27656 0.54052 0.0
H650 H 0.90157 0.2956 0.68975 0.0
H651 H 0.92395 0.29595 0.64628 0.0
H652 H 0.91504 0.26649 0.67096 0.0
H653 H 0.83582 0.33719 0.58368 0.0
H654 H 0.82879 0.32012 0.53431 0.0
H655 H 0.85804 0.3369 0.54 0.0
C656 C 0.62099 0.87398 0.14946 0.0
C657 C 0.62052 0.86696 0.10535 0.0
C658 C 0.59863 0.87814 0.17265 0.0
C659 C 0.57522 0.8753 0.15117 0.0
C660 C 0.57459 0.86756 0.10698 0.0
C661 C 0.59725 0.86348 0.08461 0.0
C662 C 0.60009 0.88635 0.21976 0.0
C663 C 0.55001 0.86453 0.08281 0.0
C664 C 0.5151 0.87439 0.21902 0.0
C665 C 0.50748 0.89954 0.2158 0.0
C666 C 0.53712 0.86604 0.19799 0.0
C667 C 0.55166 0.88328 0.17331 0.0
C668 C 0.5439 0.90861 0.1699 0.0
C669 C 0.52199 0.91638 0.19114 0.0
C670 C 0.5449 0.83888 0.20225 0.0
C671 C 0.55881 0.92761 0.14391 0.0
H672 H 0.63888 0.87616 0.16595 0.0
H673 H 0.59676 0.8582 0.05048 0.0
H674 H 0.59312 0.90593 0.22274 0.0
H675 H 0.58787 0.87435 0.24039 0.0
H676 H 0.61959 0.88555 0.23277 0.0
H677 H 0.55263 0.85611 0.04996 0.0
H678 H 0.53693 0.85253 0.10181 0.0
H679 H 0.5409 0.88316 0.07882 0.0
H680 H 0.50394 0.86131 0.23799 0.0
H681 H 0.51626 0.93587 0.18834 0.0
H682 H 0.56381 0.83764 0.21746 0.0
H683 H 0.54628 0.83019 0.16943 0.0
H684 H 0.53146 0.82782 0.22226 0.0
H685 H 0.57812 0.92919 0.15741 0.0
H686 H 0.55002 0.94655 0.14417 0.0
H687 H 0.56058 0.92135 0.10952 0.0
C688 C 0.34228 0.27355 0.95886 0.0
C689 C 0.36027 0.25775 0.97827 0.0
C690 C 0.34927 0.29565 0.93733 0.0
C691 C 0.37495 0.30235 0.93524 0.0
C692 C 0.39322 0.28703 0.95615 0.0
C693 C 0.38565 0.2648 0.97747 0.0
C694 C 0.32916 0.31137 0.9155 0.0
C695 C 0.42077 0.29374 0.95485 0.0
C696 C 0.3914 0.34374 0.83843 0.0
C697 C 0.39093 0.36777 0.85706 0.0
C698 C 0.38715 0.32221 0.86385 0.0
C699 C 0.38243 0.32474 0.90914 0.0
C700 C 0.38241 0.34892 0.92833 0.0
C701 C 0.38654 0.37016 0.90201 0.0
C702 C 0.38697 0.29681 0.84197 0.0
C703 C 0.37758 0.35238 0.97651 0.0
H704 H 0.32257 0.26838 0.95959 0.0
H705 H 0.39962 0.25266 0.99238 0.0
H706 H 0.33007 0.33102 0.92735 0.0
H707 H 0.33238 0.31182 0.87971 0.0
H708 H 0.30993 0.30402 0.9216 0.0
H709 H 0.43234 0.28106 0.9756 0.0
H710 H 0.42772 0.29256 0.92076 0.0
H711 H 0.42357 0.31338 0.96589 0.0
H712 H 0.39464 0.34182 0.80368 0.0
H713 H 0.38667 0.38864 0.91672 0.0
H714 H 0.36784 0.28857 0.84394 0.0
H715 H 0.39997 0.28378 0.85908 0.0
H716 H 0.39252 0.29791 0.80706 0.0
H717 H 0.35806 0.34658 0.98434 0.0
H718 H 0.38016 0.37218 0.987 0.0
H719 H 0.3904 0.34023 0.99586 0.0
C720 C 0.99696 0.13746 0.72693 0.0
C721 C 1.00295 0.11182 0.72579 0.0
C722 C 0.97519 0.14662 0.70593 0.0
C723 C 0.95933 0.12973 0.68305 0.0
C724 C 0.96513 0.10381 0.68259 0.0
C725 C 0.9867 0.09521 0.70411 0.0
C726 C 0.96938 0.17434 0.70751 0.0
C727 C 0.94885 0.08515 0.65844 0.0
C728 C 0.89137 0.14346 0.65346 0.0
C729 C 0.89329 0.14932 0.60895 0.0
C730 C 0.91287 0.13839 0.67863 0.0
C731 C 0.93686 0.13882 0.65862 0.0
C732 C 0.93895 0.14527 0.61386 0.0
C733 C 0.91714 0.15061 0.58964 0.0
C734 C 0.90986 0.13189 0.72635 0.0
C735 C 0.96412 0.14554 0.5911 0.0
H736 H 0.00945 0.15038 0.74355 0.0
H737 H 0.9911 0.07533 0.70304 0.0
H738 H 0.97029 0.18239 0.67412 0.0
H739 H 0.94998 0.17739 0.71972 0.0
H740 H 0.98271 0.18475 0.72877 0.0
H741 H 0.95592 0.06558 0.66153 0.0
H742 H 0.92932 0.08582 0.67109 0.0
H743 H 0.94807 0.09012 0.62326 0.0
H744 H 0.87299 0.14298 0.66868 0.0
H745 H 0.91864 0.15508 0.55521 0.0
H746 H 0.92277 0.14342 0.74653 0.0
H747 H 0.91496 0.11191 0.73174 0.0
H748 H 0.89029 0.13486 0.73796 0.0
H749 H 0.97766 0.15738 0.60939 0.0
H750 H 0.96275 0.15269 0.55708 0.0
H751 H 0.97194 0.12621 0.59022 0.0
C752 C 0.13026 0.64968 0.39619 0.0
C753 C 0.12377 0.65061 0.35182 0.0
C754 C 0.1348 0.67175 0.41987 0.0
C755 C 0.13279 0.69531 0.39865 0.0
C756 C 0.12587 0.69641 0.35406 0.0
C757 C 0.12152 0.67405 0.33117 0.0
C758 C 0.14225 0.66984 0.46736 0.0
C759 C 0.12371 0.72118 0.33021 0.0
C760 C 0.13025 0.75493 0.46709 0.0
C761 C 0.15539 0.76271 0.46538 0.0
C762 C 0.12246 0.73297 0.44545 0.0
C763 C 0.14031 0.71859 0.42186 0.0
C764 C 0.16567 0.72643 0.42013 0.0
C765 C 0.17286 0.74836 0.44181 0.0
C766 C 0.09523 0.72514 0.44774 0.0
C767 C 0.1853 0.71162 0.39542 0.0
H768 H 0.13156 0.63169 0.41257 0.0
H769 H 0.11676 0.67491 0.29681 0.0
H770 H 0.16169 0.67697 0.47172 0.0
H771 H 0.12972 0.68171 0.48765 0.0
H772 H 0.14144 0.65023 0.47973 0.0
H773 H 0.11628 0.71891 0.29653 0.0
H774 H 0.11117 0.73415 0.34836 0.0
H775 H 0.14247 0.73021 0.32828 0.0
H776 H 0.1167 0.76597 0.48527 0.0
H777 H 0.19237 0.7542 0.44032 0.0
H778 H 0.09374 0.70611 0.46233 0.0
H779 H 0.08719 0.72408 0.41434 0.0
H780 H 0.08371 0.73836 0.46739 0.0
H781 H 0.18646 0.69222 0.40858 0.0
H782 H 0.20426 0.72029 0.39745 0.0
H783 H 0.17991 0.71017 0.36052 0.0
C784 C 0.90869 0.64536 0.41458 0.0
C785 C 0.89638 0.66467 0.3919 0.0
C786 C 0.9316 0.63553 0.39957 0.0
C787 C 0.94282 0.64576 0.36156 0.0
C788 C 0.93036 0.66522 0.3384 0.0
C789 C 0.90709 0.67421 0.35356 0.0
C790 C 0.94392 0.6144 0.42467 0.0
C791 C 0.94198 0.67707 0.29841 0.0
C792 C 0.01379 0.63869 0.353 0.0
C793 C 0.01619 0.61944 0.32209 0.0
C794 C 0.99005 0.64777 0.36536 0.0
C795 C 0.96811 0.63688 0.34727 0.0
C796 C 0.97041 0.61732 0.31619 0.0
C797 C 0.99445 0.60907 0.3035 0.0
C798 C 0.98848 0.66907 0.39777 0.0
C799 C 0.94748 0.6048 0.29697 0.0
H800 H 0.9002 0.63785 0.44398 0.0
H801 H 0.89764 0.68931 0.33633 0.0
H802 H 0.94817 0.59852 0.40243 0.0
H803 H 0.96205 0.62088 0.4386 0.0
H804 H 0.93191 0.60741 0.45176 0.0
H805 H 0.92965 0.69166 0.28364 0.0
H806 H 0.96021 0.68584 0.30724 0.0
H807 H 0.94594 0.66252 0.27347 0.0
H808 H 0.03055 0.64695 0.36713 0.0
H809 H 0.99621 0.5941 0.27981 0.0
H810 H 0.97867 0.66269 0.42773 0.0
H811 H 0.97733 0.68478 0.38378 0.0
H812 H 1.00733 0.67629 0.40713 0.0
H813 H 0.93597 0.59644 0.32347 0.0
H814 H 0.95246 0.58979 0.27334 0.0
H815 H 0.93555 0.6189 0.2801 0.0
C816 C 0.12151 0.15924 0.66425 0.0
C817 C 0.10578 0.14383 0.63902 0.0
C818 C 0.13313 0.18055 0.6462 0.0
C819 C 0.12896 0.18669 0.60178 0.0
C820 C 0.11303 0.17128 0.57615 0.0
C821 C 0.10168 0.15004 0.59504 0.0
C822 C 0.15009 0.19637 0.6746 0.0
C823 C 0.10801 0.17722 0.52871 0.0
C824 C 0.14184 0.25342 0.56249 0.0
C825 C 0.16532 0.25074 0.54207 0.0
C826 C 0.12987 0.2328 0.58232 0.0
C827 C 0.14165 0.20892 0.58183 0.0
C828 C 0.16549 0.20618 0.56182 0.0
C829 C 0.177 0.22708 0.54219 0.0
C830 C 0.10447 0.23651 0.60336 0.0
C831 C 0.17874 0.18109 0.56075 0.0
H832 H 0.12511 0.1544 0.69804 0.0
H833 H 0.08934 0.13845 0.57546 0.0
H834 H 0.1694 0.19657 0.66089 0.0
H835 H 0.14331 0.21608 0.67507 0.0
H836 H 0.15103 0.18932 0.70874 0.0
H837 H 0.0949 0.16358 0.5134 0.0
H838 H 0.09987 0.19634 0.5256 0.0
H839 H 0.12593 0.1771 0.51018 0.0
H840 H 0.13263 0.27159 0.56261 0.0
H841 H 0.19514 0.22478 0.52658 0.0
H842 H 0.10522 0.23068 0.63814 0.0
H843 H 0.09029 0.22447 0.587 0.0
H844 H 0.09803 0.25635 0.60165 0.0
H845 H 0.18133 0.17386 0.59446 0.0
H846 H 0.19744 0.1822 0.54472 0.0
H847 H 0.16706 0.16722 0.54292 0.0
C848 C 0.52006 0.41064 0.80815 0.0
C849 C 0.49904 0.39818 0.82526 0.0
C850 C 0.54454 0.40412 0.82142 0.0
C851 C 0.54806 0.3843 0.85178 0.0
C852 C 0.52686 0.37151 0.86877 0.0
C853 C 0.50261 0.37882 0.85572 0.0
C854 C 0.56661 0.41858 0.80334 0.0
C855 C 0.52978 0.34993 0.90046 0.0
C856 C 0.61108 0.35053 0.85706 0.0
C857 C 0.6212 0.35993 0.896 0.0
C858 C 0.58744 0.35854 0.84193 0.0
C859 C 0.57385 0.37681 0.86587 0.0
C860 C 0.58443 0.38701 0.90444 0.0
C861 C 0.60784 0.37821 0.91931 0.0
C862 C 0.5766 0.34677 0.80123 0.0
C863 C 0.57083 0.4069 0.93042 0.0
H864 H 0.51734 0.42587 0.78509 0.0
H865 H 0.48639 0.36904 0.86879 0.0
H866 H 0.57746 0.42712 0.83049 0.0
H867 H 0.5795 0.40568 0.78583 0.0
H868 H 0.56067 0.43371 0.78051 0.0
H869 H 0.51143 0.34149 0.90965 0.0
H870 H 0.54178 0.33509 0.88587 0.0
H871 H 0.53932 0.35646 0.93059 0.0
H872 H 0.62125 0.33614 0.83936 0.0
H873 H 0.61578 0.38557 0.94927 0.0
H874 H 0.5716 0.36153 0.77712 0.0
H875 H 0.55903 0.33659 0.8095 0.0
H876 H 0.58986 0.33338 0.78567 0.0
H877 H 0.5656 0.42287 0.9089 0.0
H878 H 0.58239 0.41413 0.9579 0.0
H879 H 0.55314 0.39906 0.9439 0.0
C880 C 0.38551 0.85488 0.16946 0.0
C881 C 0.40038 0.87186 0.14577 0.0
C882 C 0.37505 0.83354 0.1494 0.0
C883 C 0.37972 0.8289 0.10458 0.0
C884 C 0.39478 0.84594 0.08054 0.0
C885 C 0.40482 0.86722 0.10134 0.0
C886 C 0.3589 0.81601 0.17613 0.0
C887 C 0.40046 0.8416 0.03284 0.0
C888 C 0.37184 0.76243 0.06036 0.0
C889 C 0.34851 0.764 0.03899 0.0
C890 C 0.38215 0.78332 0.08202 0.0
C891 C 0.36876 0.80634 0.08267 0.0
C892 C 0.34507 0.80796 0.06161 0.0
C893 C 0.3353 0.78684 0.03993 0.0
C894 C 0.40752 0.78083 0.1038 0.0
C895 C 0.33009 0.83207 0.06179 0.0
H896 H 0.3818 0.85846 0.20365 0.0
H897 H 0.41661 0.87998 0.08294 0.0
H898 H 0.33986 0.81468 0.16146 0.0
H899 H 0.36711 0.79684 0.17593 0.0
H900 H 0.35701 0.82229 0.21055 0.0
H901 H 0.41264 0.85651 0.01883 0.0
H902 H 0.40998 0.8232 0.02864 0.0
H903 H 0.38269 0.8409 0.01386 0.0
H904 H 0.38223 0.7449 0.05985 0.0
H905 H 0.31723 0.78827 0.02372 0.0
H906 H 0.40599 0.78558 0.13895 0.0
H907 H 0.42096 0.7943 0.08899 0.0
H908 H 0.4154 0.76157 0.10083 0.0
H909 H 0.32668 0.83821 0.09587 0.0
H910 H 0.31167 0.83007 0.04498 0.0
H911 H 0.34092 0.84717 0.0454 0.0
C912 C 0.09892 0.36228 0.59741 0.0
C913 C 0.12292 0.36718 0.6145 0.0
C914 C 0.07712 0.369 0.62029 0.0
C915 C 0.0793 0.38086 0.66144 0.0
C916 C 0.10345 0.38521 0.67951 0.0
C917 C 0.12499 0.37844 0.65568 0.0
C918 C 0.05175 0.36435 0.59955 0.0
C919 C 0.10653 0.39764 0.72345 0.0
C920 C 0.0258 0.42424 0.69297 0.0
C921 C 0.01158 0.4091 0.72119 0.0
C922 C 0.048 0.41534 0.6739 0.0
C923 C 0.05639 0.39071 0.68346 0.0
C924 C 0.04236 0.3754 0.71244 0.0
C925 C 0.02 0.38476 0.73087 0.0
C926 C 0.06226 0.4322 0.64285 0.0
C927 C 0.05083 0.34909 0.72356 0.0
H928 H 0.09714 0.35398 0.56531 0.0
H929 H 0.14349 0.38201 0.66916 0.0
H930 H 0.03933 0.35406 0.62248 0.0
H931 H 0.04253 0.38258 0.59213 0.0
H932 H 0.05323 0.35341 0.5688 0.0
H933 H 0.12642 0.39772 0.73458 0.0
H934 H 0.09978 0.41734 0.72163 0.0
H935 H 0.09493 0.38786 0.7483 0.0
H936 H 0.01941 0.44307 0.68525 0.0
H937 H 0.00913 0.37302 0.75278 0.0
H938 H 0.06312 0.4234 0.61007 0.0
H939 H 0.08189 0.43466 0.65435 0.0
H940 H 0.05344 0.45104 0.63953 0.0
H941 H 0.05093 0.33737 0.69364 0.0
H942 H 0.03848 0.34002 0.74819 0.0
H943 H 0.07037 0.34942 0.73634 0.0
C944 C 0.89657 0.8536 0.33887 0.0
C945 C 0.89423 0.87717 0.35884 0.0
C946 C 0.89109 0.83143 0.36184 0.0
C947 C 0.88316 0.83288 0.4059 0.0
C948 C 0.8814 0.85657 0.42658 0.0
C949 C 0.88689 0.87842 0.40276 0.0
C950 C 0.89297 0.80654 0.33851 0.0
C951 C 0.8731 0.85888 0.47353 0.0
C952 C 0.84043 0.78103 0.44638 0.0
C953 C 0.85705 0.76567 0.47003 0.0
C954 C 0.84873 0.80296 0.42573 0.0
C955 C 0.87432 0.80991 0.42893 0.0
C956 C 0.89119 0.7948 0.45347 0.0
C957 C 0.88234 0.77276 0.47374 0.0
C958 C 0.83011 0.81849 0.39984 0.0
C959 C 0.91859 0.80175 0.45773 0.0
H960 H 0.90207 0.85253 0.30488 0.0
H961 H 0.88556 0.89653 0.41863 0.0
H962 H 0.9047 0.79325 0.35765 0.0
H963 H 0.87397 0.7981 0.33546 0.0
H964 H 0.90115 0.80847 0.30532 0.0
H965 H 0.87459 0.87845 0.4858 0.0
H966 H 0.85326 0.85271 0.47665 0.0
H967 H 0.88462 0.84645 0.49473 0.0
H968 H 0.82083 0.77573 0.44333 0.0
H969 H 0.89527 0.76093 0.49188 0.0
H970 H 0.83614 0.81959 0.36521 0.0
H971 H 0.82953 0.83796 0.41264 0.0
H972 H 0.81079 0.81059 0.40096 0.0
H973 H 0.92756 0.80174 0.42505 0.0
H974 H 0.92905 0.78858 0.47931 0.0
H975 H 0.92039 0.82104 0.47104 0.0
C976 C 0.49837 0.63394 0.23595 0.0
C977 C 0.50658 0.60966 0.22541 0.0
C978 C 0.47576 0.6435 0.21861 0.0
C979 C 0.46127 0.62847 0.18991 0.0
C980 C 0.46944 0.6039 0.17955 0.0
C981 C 0.4919 0.5948 0.19751 0.0
C982 C 0.46753 0.66974 0.23053 0.0
C983 C 0.45469 0.58732 0.14878 0.0
C984 C 0.39238 0.64039 0.16403 0.0
C985 C 0.39395 0.65145 0.12254 0.0
C986 C 0.4142 0.63398 0.18751 0.0
C987 C 0.43812 0.63855 0.16884 0.0
C988 C 0.43982 0.65048 0.12763 0.0
C989 C 0.41775 0.6568 0.10505 0.0
C990 C 0.41164 0.62146 0.23154 0.0
C991 C 0.46495 0.65544 0.10632 0.0
H992 H 0.50959 0.64546 0.25763 0.0
H993 H 0.49811 0.57601 0.18916 0.0
H994 H 0.46714 0.68173 0.20087 0.0
H995 H 0.44815 0.66939 0.24392 0.0
H996 H 0.48022 0.67854 0.25496 0.0
H997 H 0.46337 0.56847 0.14484 0.0
H998 H 0.43521 0.58486 0.16097 0.0
H999 H 0.45342 0.59635 0.11618 0.0
H1000 H 0.37406 0.63651 0.17791 0.0
H1001 H 0.41921 0.66497 0.07277 0.0
H1002 H 0.42375 0.63098 0.25595 0.0
H1003 H 0.41807 0.60167 0.22932 0.0
H1004 H 0.39192 0.6216 0.24348 0.0
H1005 H 0.47766 0.66538 0.12922 0.0
H1006 H 0.46311 0.66682 0.07604 0.0
H1007 H 0.47404 0.63731 0.09789 0.0
C1008 C 0.62744 0.13944 0.90764 0.0
C1009 C 0.61739 0.13978 0.86528 0.0
C1010 C 0.6336 0.16185 0.92932 0.0
C1011 C 0.62974 0.18518 0.90803 0.0
C1012 C 0.61897 0.18568 0.86574 0.0
C1013 C 0.61291 0.16301 0.84493 0.0
C1014 C 0.64492 0.16053 0.9745 0.0
C1015 C 0.61473 0.21014 0.84175 0.0
C1016 C 0.63202 0.24614 0.97311 0.0
C1017 C 0.65668 0.2542 0.96502 0.0
C1018 C 0.62296 0.22358 0.95508 0.0
C1019 C 0.63893 0.20888 0.92831 0.0
C1020 C 0.66384 0.21697 0.92018 0.0
C1021 C 0.67239 0.23946 0.93864 0.0
C1022 C 0.5963 0.21553 0.96447 0.0
C1023 C 0.68147 0.20192 0.89171 0.0
H1024 H 0.63061 0.12159 0.92378 0.0
H1025 H 0.60548 0.16348 0.81202 0.0
H1026 H 0.66461 0.16742 0.97354 0.0
H1027 H 0.63438 0.17289 0.99717 0.0
H1028 H 0.64493 0.14111 0.98785 0.0
H1029 H 0.60444 0.20745 0.81052 0.0
H1030 H 0.60394 0.2234 0.86243 0.0
H1031 H 0.63312 0.21906 0.83451 0.0
H1032 H 0.61981 0.25743 0.9935 0.0
H1033 H 0.69147 0.24555 0.93217 0.0
H1034 H 0.59624 0.1966 0.97969 0.0
H1035 H 0.58554 0.21415 0.9335 0.0
H1036 H 0.58642 0.22881 0.98654 0.0
H1037 H 0.68382 0.18272 0.90528 0.0
H1038 H 0.70032 0.21074 0.88884 0.0
H1039 H 0.67337 0.19993 0.85849 0.0
C1040 C 0.27684 0.25787 0.15436 0.0
C1041 C 0.29 0.23566 0.16318 0.0
C1042 C 0.26104 0.26862 0.18609 0.0
C1043 C 0.25799 0.25643 0.22695 0.0
C1044 C 0.27066 0.23348 0.23517 0.0
C1045 C 0.28678 0.22359 0.20337 0.0
C1046 C 0.2483 0.29336 0.17649 0.0
C1047 C 0.26743 0.21949 0.27775 0.0
C1048 C 0.237 0.28979 0.33041 0.0
C1049 C 0.2116 0.28272 0.33299 0.0
C1050 C 0.25201 0.28252 0.29481 0.0
C1051 C 0.24156 0.2674 0.26138 0.0
C1052 C 0.2158 0.26097 0.26291 0.0
C1053 C 0.20111 0.26898 0.29824 0.0
C1054 C 0.27933 0.29022 0.29384 0.0
C1055 C 0.20398 0.24459 0.22828 0.0
H1056 H 0.27979 0.26728 0.12338 0.0
H1057 H 0.29711 0.20642 0.20987 0.0
H1058 H 0.22767 0.2916 0.18074 0.0
H1059 H 0.2549 0.30776 0.20002 0.0
H1060 H 0.25217 0.30013 0.14283 0.0
H1061 H 0.27772 0.20132 0.2781 0.0
H1062 H 0.27439 0.23116 0.30519 0.0
H1063 H 0.24719 0.21576 0.28375 0.0
H1064 H 0.24546 0.30033 0.35677 0.0
H1065 H 0.18141 0.26398 0.29879 0.0
H1066 H 0.28424 0.29809 0.26138 0.0
H1067 H 0.29141 0.2735 0.29927 0.0
H1068 H 0.28381 0.30438 0.31928 0.0
H1069 H 0.20742 0.25255 0.19535 0.0
H1070 H 0.18337 0.24242 0.23289 0.0
H1071 H 0.21276 0.22567 0.22911 0.0
C1072 C 0.46692 0.47926 0.57195 0.0
C1073 C 0.48115 0.45816 0.58395 0.0
C1074 C 0.47279 0.49305 0.53405 0.0
C1075 C 0.49344 0.48561 0.50779 0.0
C1076 C 0.50664 0.4633 0.5181 0.0
C1077 C 0.50023 0.4498 0.55581 0.0
C1078 C 0.45797 0.51652 0.5238 0.0
C1079 C 0.5288 0.45467 0.49118 0.0
C1080 C 0.50641 0.51744 0.39822 0.0
C1081 C 0.52339 0.53621 0.41073 0.0
C1082 C 0.4962 0.50085 0.42942 0.0
C1083 C 0.50359 0.50291 0.47379 0.0
C1084 C 0.5213 0.52144 0.48611 0.0
C1085 C 0.5308 0.53792 0.45451 0.0
C1086 C 0.47714 0.48155 0.41517 0.0
C1087 C 0.53018 0.524 0.53278 0.0
H1088 H 0.45214 0.48583 0.59339 0.0
H1089 H 0.51085 0.4331 0.56415 0.0
H1090 H 0.46955 0.53328 0.53146 0.0
H1091 H 0.45324 0.51735 0.48853 0.0
H1092 H 0.4403 0.51761 0.54303 0.0
H1093 H 0.53506 0.43544 0.50028 0.0
H1094 H 0.5241 0.45492 0.4559 0.0
H1095 H 0.54479 0.46775 0.49615 0.0
H1096 H 0.50054 0.51634 0.36439 0.0
H1097 H 0.54415 0.55229 0.46399 0.0
H1098 H 0.459 0.48501 0.43201 0.0
H1099 H 0.48349 0.46245 0.42465 0.0
H1100 H 0.47386 0.48195 0.37935 0.0
H1101 H 0.51399 0.52822 0.55438 0.0
H1102 H 0.5444 0.53911 0.53671 0.0
H1103 H 0.53855 0.50603 0.54413 0.0
C1104 C 0.22112 0.74422 0.67669 0.0
C1105 C 0.22228 0.76912 0.66198 0.0
C1106 C 0.23674 0.73568 0.71056 0.0
C1107 C 0.2535 0.75267 0.73093 0.0
C1108 C 0.25489 0.77784 0.71591 0.0
C1109 C 0.23943 0.7857 0.68119 0.0
C1110 C 0.23514 0.70855 0.72475 0.0
C1111 C 0.27222 0.79662 0.73727 0.0
C1112 C 0.27576 0.73662 0.84588 0.0
C1113 C 0.3003 0.72826 0.838 0.0
C1114 C 0.26034 0.74483 0.81135 0.0
C1115 C 0.26955 0.74405 0.76793 0.0
C1116 C 0.2941 0.73491 0.75982 0.0
C1117 C 0.30926 0.72741 0.79501 0.0
C1118 C 0.23441 0.75485 0.82139 0.0
C1119 C 0.3044 0.73312 0.71399 0.0
H1120 H 0.20789 0.73143 0.66154 0.0
H1121 H 0.24001 0.80504 0.67013 0.0
H1122 H 0.254 0.69966 0.72306 0.0
H1123 H 0.22884 0.70745 0.75921 0.0
H1124 H 0.22191 0.69753 0.70426 0.0
H1125 H 0.27099 0.81549 0.72184 0.0
H1126 H 0.26745 0.7984 0.7724 0.0
H1127 H 0.29196 0.78998 0.73536 0.0
H1128 H 0.269 0.73751 0.87921 0.0
H1129 H 0.3282 0.72071 0.78901 0.0
H1130 H 0.21999 0.7436 0.80405 0.0
H1131 H 0.23273 0.77448 0.80949 0.0
H1132 H 0.23019 0.75448 0.85691 0.0
H1133 H 0.29172 0.72152 0.69347 0.0
H1134 H 0.32354 0.72476 0.71317 0.0
H1135 H 0.3052 0.75208 0.69898 0.0
C1136 C 0.99432 0.47595 0.95439 0.0
C1137 C 0.99532 0.48148 0.90966 0.0
C1138 C 1.00289 0.49304 0.98565 0.0
C1139 C 0.0126 0.51652 0.97205 0.0
C1140 C 0.01342 0.52249 0.92696 0.0
C1141 C 1.0047 0.50487 0.89619 0.0
C1142 C 1.00138 0.48592 0.03341 0.0
C1143 C 0.02358 0.54737 0.91133 0.0
C1144 C 0.00895 0.56193 0.066 0.0
C1145 C 0.03256 0.55852 0.08551 0.0
C1146 C 1.00297 0.55034 0.02629 0.0
C1147 C 0.021 0.53473 1.00587 0.0
C1148 C 0.04565 0.53312 0.0234 0.0
C1149 C 0.05119 0.54516 0.06309 0.0
C1150 C 0.97657 0.55288 1.00857 0.0
C1151 C 0.06544 0.51672 1.00261 0.0
H1152 H 0.98655 0.45819 0.96514 0.0
H1153 H 1.00564 0.50917 0.86165 0.0
H1154 H 0.02032 0.48693 0.04855 0.0
H1155 H 0.98909 0.49937 0.05098 0.0
H1156 H 0.99384 0.46668 0.03839 0.0
H1157 H 0.02264 0.54928 0.87524 0.0
H1158 H 0.01282 0.563 0.92631 0.0
H1159 H 0.04345 0.54947 0.92183 0.0
H1160 H 0.9947 0.57263 0.08311 0.0
H1161 H 0.06943 0.5425 0.07822 0.0
H1162 H 0.96592 0.53543 0.01565 0.0
H1163 H 0.9768 0.55544 0.97262 0.0
H1164 H 0.96638 0.56892 0.02354 0.0
H1165 H 0.0612 0.49673 0.00976 0.0
H1166 H 0.08456 0.52099 0.01526 0.0
H1167 H 0.06541 0.51905 0.96662 0.0
C1168 C 0.78816 0.77358 0.6645 0.0
C1169 C 0.78277 0.75066 0.64419 0.0
C1170 C 0.77343 0.78245 0.69915 0.0
C1171 C 0.75309 0.76771 0.71443 0.0
C1172 C 0.74615 0.74572 0.69123 0.0
C1173 C 0.76107 0.7375 0.65608 0.0
C1174 C 0.78133 0.80619 0.72224 0.0
C1175 C 0.72466 0.72942 0.70636 0.0
C1176 C 0.747 0.76595 0.8376 0.0
C1177 C 0.72578 0.78098 0.84532 0.0
C1178 C 0.75566 0.76132 0.79525 0.0
C1179 C 0.74305 0.77227 0.75919 0.0
C1180 C 0.72185 0.78787 0.76651 0.0
C1181 C 0.71342 0.79205 0.80958 0.0
C1182 C 0.77849 0.74472 0.78923 0.0
C1183 C 0.70808 0.80003 0.72891 0.0
H1184 H 0.80495 0.78373 0.65499 0.0
H1185 H 0.75707 0.71969 0.64046 0.0
H1186 H 0.7647 0.81764 0.73136 0.0
H1187 H 0.79144 0.80122 0.75278 0.0
H1188 H 0.79405 0.81781 0.70174 0.0
H1189 H 0.71872 0.71592 0.68073 0.0
H1190 H 0.73065 0.71859 0.73558 0.0
H1191 H 0.70825 0.74105 0.71588 0.0
H1192 H 0.75713 0.75786 0.86489 0.0
H1193 H 0.69696 0.80359 0.81522 0.0
H1194 H 0.79385 0.75556 0.7736 0.0
H1195 H 0.77386 0.72879 0.76734 0.0
H1196 H 0.7856 0.73699 0.82063 0.0
H1197 H 0.72127 0.8116 0.70936 0.0
H1198 H 0.69232 0.81213 0.74007 0.0
H1199 H 0.70045 0.78535 0.70692 0.0
C1200 C 0.72612 0.24395 0.1712 0.0
C1201 C 0.7305 0.26628 0.14814 0.0
C1202 C 0.74149 0.23682 0.20632 0.0
C1203 C 0.76168 0.25253 0.2189 0.0
C1204 C 0.76751 0.27399 0.19334 0.0
C1205 C 0.75184 0.2806 0.15807 0.0
C1206 C 0.73468 0.21366 0.23226 0.0
C1207 C 0.78891 0.2912 0.20553 0.0
C1208 C 0.77193 0.25672 0.34101 0.0
C1209 C 0.79335 0.24174 0.3475 0.0
C1210 C 0.76188 0.26062 0.29932 0.0
C1211 C 0.77334 0.2491 0.26278 0.0
C1212 C 0.7949 0.23379 0.26888 0.0
C1213 C 0.80464 0.23023 0.31128 0.0
C1214 C 0.7387 0.27688 0.29454 0.0
C1215 C 0.80757 0.2212 0.23069 0.0
H1216 H 0.70986 0.23264 0.16297 0.0
H1217 H 0.75524 0.29788 0.14031 0.0
H1218 H 0.75172 0.20256 0.24037 0.0
H1219 H 0.72582 0.21939 0.2635 0.0
H1220 H 0.72126 0.20143 0.21437 0.0
H1221 H 0.79372 0.30433 0.17858 0.0
H1222 H 0.78348 0.30245 0.23452 0.0
H1223 H 0.80591 0.28022 0.2144 0.0
H1224 H 0.76267 0.26518 0.36879 0.0
H1225 H 0.82125 0.21875 0.31606 0.0
H1226 H 0.72298 0.26561 0.28098 0.0
H1227 H 0.7424 0.29247 0.27135 0.0
H1228 H 0.73253 0.28506 0.32612 0.0
H1229 H 0.79413 0.20848 0.21404 0.0
H1230 H 0.82434 0.21014 0.24079 0.0
H1231 H 0.81347 0.23552 0.20643 0.0
C1232 C 0.01194 0.97737 0.08077 0.0
C1233 C 0.98735 0.97187 0.09442 0.0
C1234 C 0.01672 0.98809 0.03983 0.0
C1235 C 0.99649 0.99275 0.01084 0.0
C1236 C 0.97194 0.98481 0.02245 0.0
C1237 C 0.96758 0.97472 0.06436 0.0
C1238 C 0.04322 0.9963 0.02917 0.0
C1239 C 0.95002 0.98836 0.99174 0.0
C1240 C 1.0072 0.05198 0.94537 0.0
C1241 C 0.01919 0.0428 0.90781 0.0
C1242 C 0.99837 0.03576 0.97793 0.0
C1243 C 1.00075 0.00948 0.9724 0.0
C1244 C 0.01053 0.99995 0.93267 0.0
C1245 C 0.01993 0.01674 0.90096 0.0
C1246 C 0.98821 0.04691 0.01972 0.0
C1247 C 0.01241 0.97207 0.9246 0.0
H1248 H 0.02751 0.97431 0.10296 0.0
H1249 H 0.94853 0.97029 0.07419 0.0
H1250 H 0.04902 0.98889 0.99692 0.0
H1251 H 0.04398 0.01711 0.02729 0.0
H1252 H 0.05706 0.9899 0.05404 0.0
H1253 H 0.93406 0.97586 1.00041 0.0
H1254 H 0.94335 0.00807 0.99352 0.0
H1255 H 0.95566 0.9846 0.95749 0.0
H1256 H 1.00558 0.07204 0.95025 0.0
H1257 H 0.02888 0.0094 0.87191 0.0
H1258 H 1.00093 0.04209 0.04726 0.0
H1259 H 0.96947 0.03894 0.0273 0.0
H1260 H 0.98647 0.06769 0.01797 0.0
H1261 H 0.02929 0.96452 0.9414 0.0
H1262 H 0.01415 0.96784 0.88922 0.0
H1263 H 0.99573 0.96211 0.93779 0.0
C1264 C 0.49666 0.98795 0.41332 0.0
C1265 C 0.50316 0.96245 0.41047 0.0
C1266 C 0.50597 1.00306 0.44739 0.0
C1267 C 0.52185 0.99234 0.47968 0.0
C1268 C 0.52955 0.96703 0.47558 0.0
C1269 C 0.52039 0.95255 0.44083 0.0
C1270 C 0.49776 0.03016 0.45008 0.0
C1271 C 0.54624 0.95473 0.5094 0.0
C1272 C 0.55605 0.03375 0.56227 0.0
C1273 C 0.53896 0.03373 0.59698 0.0
C1274 C 0.55075 0.02052 0.52355 0.0
C1275 C 0.52811 1.00658 0.52017 0.0
C1276 C 0.51127 1.00591 0.55597 0.0
C1277 C 0.51677 0.01977 0.59364 0.0
C1278 C 0.5689 0.02212 0.48582 0.0
C1279 C 0.48725 0.9908 0.55433 0.0
H1280 H 0.48344 0.99586 0.39015 0.0
H1281 H 0.52621 0.93313 0.43826 0.0
H1282 H 0.4844 0.03248 0.47758 0.0
H1283 H 0.51414 0.04249 0.45663 0.0
H1284 H 0.48837 0.03657 0.4196 0.0
H1285 H 0.55219 0.93554 0.49961 0.0
H1286 H 0.56328 0.96624 0.51526 0.0
H1287 H 0.53596 0.95339 0.54084 0.0
H1288 H 0.57296 0.04501 0.56482 0.0
H1289 H 0.5036 0.01999 0.62063 0.0
H1290 H 0.55947 0.03108 0.45743 0.0
H1291 H 0.57474 1.00304 0.47549 0.0
H1292 H 0.58598 0.03315 0.49408 0.0
H1293 H 0.47489 0.99805 0.52796 0.0
H1294 H 0.47673 0.99149 0.58562 0.0
H1295 H 0.49155 0.97089 0.54667 0.0
C1296 C 0.13403 0.11843 0.84979 0.0
C1297 C 0.13933 0.10623 0.81026 0.0
C1298 C 0.15347 0.12623 0.87778 0.0
C1299 C 0.17883 0.12168 0.86607 0.0
C1300 C 0.18429 0.10925 0.82636 0.0
C1301 C 0.16451 0.10175 0.79892 0.0
C1302 C 0.14689 0.13961 0.91968 0.0
C1303 C 0.21107 0.10403 0.81267 0.0
C1304 C 0.22994 0.16361 0.91249 0.0
C1305 C 0.24022 0.14859 0.94583 0.0
C1306 C 0.20979 0.1552 0.88686 0.0
C1307 C 0.19972 0.13098 0.89421 0.0
C1308 C 0.21 0.11561 0.92761 0.0
C1309 C 0.23013 0.1246 0.95305 0.0
C1310 C 0.19946 0.17217 0.85153 0.0
C1311 C 0.19982 0.08962 0.93626 0.0
H1312 H 0.11465 0.12193 0.85893 0.0
H1313 H 0.16884 0.09225 0.76857 0.0
H1314 H 0.1553 0.12958 0.94794 0.0
H1315 H 0.1549 0.15884 0.9193 0.0
H1316 H 0.12625 0.14101 0.92474 0.0
H1317 H 0.21212 0.09337 0.78157 0.0
H1318 H 0.22137 0.12198 0.80852 0.0
H1319 H 0.22093 0.09316 0.83846 0.0
H1320 H 0.23797 0.18191 0.90577 0.0
H1321 H 0.23787 0.11291 0.9788 0.0
H1322 H 0.179 0.17513 0.85644 0.0
H1323 H 0.20187 0.16319 0.81914 0.0
H1324 H 0.20888 0.19078 0.85091 0.0
H1325 H 0.17947 0.09068 0.94403 0.0
H1326 H 0.20969 0.08011 0.96369 0.0
H1327 H 0.20176 0.07789 0.90654 0.0
C1328 C 0.6337 0.48395 0.17799 0.0
C1329 C 0.61487 0.48189 0.20988 0.0
C1330 C 0.64351 0.46258 0.15722 0.0
C1331 C 0.63432 0.43848 0.16854 0.0
C1332 C 0.61537 0.43623 0.20079 0.0
C1333 C 0.60587 0.45794 0.22102 0.0
C1334 C 0.66365 0.46581 0.12293 0.0
C1335 C 0.60518 0.41087 0.21398 0.0
C1336 C 0.64492 0.38509 0.08779 0.0
C1337 C 0.66628 0.37328 0.10537 0.0
C1338 C 0.63415 0.40617 0.10819 0.0
C1339 C 0.64492 0.41562 0.14719 0.0
C1340 C 0.66624 0.40356 0.16539 0.0
C1341 C 0.67665 0.3826 0.14427 0.0
C1342 C 0.61144 0.41853 0.08769 0.0
C1343 C 0.67828 0.41299 0.20693 0.0
H1344 H 0.64044 0.50238 0.16854 0.0
H1345 H 0.59146 0.45616 0.24584 0.0
H1346 H 0.68084 0.45538 0.13268 0.0
H1347 H 0.65716 0.45782 0.09144 0.0
H1348 H 0.6687 0.48584 0.11771 0.0
H1349 H 0.59029 0.41233 0.23927 0.0
H1350 H 0.59727 0.40115 0.18505 0.0
H1351 H 0.62062 0.39894 0.22686 0.0
H1352 H 0.63678 0.37808 0.05771 0.0
H1353 H 0.69309 0.3736 0.15825 0.0
H1354 H 0.61589 0.43829 0.07913 0.0
H1355 H 0.59567 0.41895 0.11136 0.0
H1356 H 0.60508 0.40867 0.0577 0.0
H1357 H 0.68511 0.43248 0.20211 0.0
H1358 H 0.69436 0.4011 0.2175 0.0
H1359 H 0.66419 0.41348 0.23362 0.0
C1360 C 0.27989 0.88607 0.44436 0.0
C1361 C 0.28163 0.86722 0.47631 0.0
C1362 C 0.30137 0.89472 0.42236 0.0
C1363 C 0.32518 0.88429 0.43252 0.0
C1364 C 0.32713 0.86556 0.46523 0.0
C1365 C 0.30535 0.85726 0.48673 0.0
C1366 C 0.29852 0.91476 0.38774 0.0
C1367 C 0.35221 0.85412 0.47724 0.0
C1368 C 0.37759 0.89086 0.34854 0.0
C1369 C 0.391 0.91146 0.36498 0.0
C1370 C 0.35621 0.88166 0.37033 0.0
C1371 C 0.34812 0.89332 0.40947 0.0
C1372 C 0.36177 0.9139 0.42643 0.0
C1373 C 0.383 0.92269 0.40403 0.0
C1374 C 0.34212 0.85964 0.35127 0.0
C1375 C 0.35379 0.92684 0.46804 0.0
H1376 H 0.2616 0.89354 0.43555 0.0
H1377 H 0.30685 0.84283 0.5116 0.0
H1378 H 0.31031 0.93126 0.39605 0.0
H1379 H 0.30523 0.90751 0.35586 0.0
H1380 H 0.27872 0.92109 0.38396 0.0
H1381 H 0.35052 0.83975 0.50343 0.0
H1382 H 0.36078 0.84521 0.44811 0.0
H1383 H 0.36531 0.86899 0.48843 0.0
H1384 H 0.3836 0.8821 0.31838 0.0
H1385 H 0.39325 0.93858 0.41714 0.0
H1386 H 0.32249 0.86524 0.34368 0.0
H1387 H 0.34121 0.84414 0.37547 0.0
H1388 H 0.35104 0.85245 0.32097 0.0
H1389 H 0.33458 0.93469 0.46412 0.0
H1390 H 0.36672 0.94233 0.4773 0.0
H1391 H 0.35309 0.9131 0.49527 0.0
C1392 C 0.85248 0.63399 0.60908 0.0
C1393 C 0.85929 0.63305 0.56494 0.0
C1394 C 0.86072 0.61542 0.63851 0.0
C1395 C 0.8769 0.59607 0.62366 0.0
C1396 C 0.88455 0.59569 0.57933 0.0
C1397 C 0.87522 0.6139 0.55031 0.0
C1398 C 0.85139 0.616 0.68504 0.0
C1399 C 0.90245 0.57593 0.56245 0.0
C1400 C 0.91558 0.55865 0.70581 0.0
C1401 C 0.90329 0.53526 0.70565 0.0
C1402 C 0.90712 0.57868 0.67965 0.0
C1403 C 0.88521 0.5757 0.65392 0.0
C1404 C 0.87185 0.55274 0.65546 0.0
C1405 C 0.88126 0.53272 0.68056 0.0
C1406 C 0.92222 0.60268 0.67822 0.0
C1407 C 0.84797 0.54902 0.62949 0.0
H1408 H 0.83993 0.64871 0.6202 0.0
H1409 H 0.88058 0.61334 0.51616 0.0
H1410 H 0.84048 0.59868 0.69198 0.0
H1411 H 0.86749 0.61631 0.70809 0.0
H1412 H 0.83924 0.63255 0.69159 0.0
H1413 H 0.9082 0.57954 0.52814 0.0
H1414 H 0.91957 0.5752 0.5832 0.0
H1415 H 0.89344 0.55718 0.5641 0.0
H1416 H 0.9322 0.56128 0.72575 0.0
H1417 H 0.87167 0.51481 0.67913 0.0
H1418 H 0.91018 0.61896 0.68674 0.0
H1419 H 0.92926 0.60586 0.64456 0.0
H1420 H 0.93855 0.60223 0.70087 0.0
H1421 H 0.83481 0.56488 0.6351 0.0
H1422 H 0.8383 0.5312 0.63809 0.0
H1423 H 0.8524 0.54869 0.59412 0.0
C1424 C 0.79158 0.85306 0.12189 0.0
C1425 C 0.79115 0.84415 0.07874 0.0
C1426 C 0.81359 0.86327 0.1402 0.0
C1427 C 0.83577 0.86489 0.11474 0.0
C1428 C 0.83575 0.85516 0.07174 0.0
C1429 C 0.81354 0.84482 0.05439 0.0
C1430 C 0.8128 0.87322 0.18632 0.0
C1431 C 0.85895 0.8565 0.04347 0.0
C1432 C 0.88043 0.91763 0.14662 0.0
C1433 C 0.8987 0.90486 0.17116 0.0
C1434 C 0.86042 0.90471 0.12681 0.0
C1435 C 0.85835 0.87834 0.13216 0.0
C1436 C 0.87719 0.86523 0.15581 0.0
C1437 C 0.89724 0.87863 0.1748 0.0
C1438 C 0.841 0.91943 0.10138 0.0
C1439 C 0.87558 0.8372 0.16269 0.0
H1440 H 0.77443 0.85299 0.14095 0.0
H1441 H 0.81366 0.83756 0.02136 0.0
H1442 H 0.82857 0.86531 0.20574 0.0
H1443 H 0.81512 0.89393 0.18588 0.0
H1444 H 0.79483 0.86868 0.20302 0.0
H1445 H 0.85639 0.84668 0.0118 0.0
H1446 H 0.86366 0.87644 0.03679 0.0
H1447 H 0.87527 0.84807 0.06074 0.0
H1448 H 0.88147 0.9379 0.14364 0.0
H1449 H 0.91112 0.86868 0.19419 0.0
H1450 H 0.82256 0.9183 0.11818 0.0
H1451 H 0.83855 0.91124 0.06837 0.0
H1452 H 0.84619 0.93954 0.09783 0.0
H1453 H 0.85894 0.83276 0.18311 0.0
H1454 H 0.89261 0.82953 0.17906 0.0
H1455 H 0.87303 0.82747 0.131 0.0
C1456 C 0.43831 0.54134 0.85337 0.0
C1457 C 0.42566 0.53205 0.81637 0.0
C1458 C 0.42974 0.56285 0.87555 0.0
C1459 C 0.40848 0.57606 0.85965 0.0
C1460 C 0.39649 0.56772 0.82103 0.0
C1461 C 0.40489 0.5457 0.80042 0.0
C1462 C 0.44276 0.57077 0.91713 0.0
C1463 C 0.3741 0.58153 0.80231 0.0
C1464 C 0.36571 0.61228 0.93648 0.0
C1465 C 0.37359 0.63712 0.93009 0.0
C1466 C 0.37758 0.59225 0.91505 0.0
C1467 C 0.39733 0.5972 0.88525 0.0
C1468 C 0.40546 0.6223 0.87877 0.0
C1469 C 0.39374 0.64197 0.90189 0.0
C1470 C 0.36877 0.56577 0.924 0.0
C1471 C 0.42589 0.62847 0.84634 0.0
H1472 H 0.45473 0.53158 0.8657 0.0
H1473 H 0.39442 0.53879 0.7726 0.0
H1474 H 0.4482 0.59085 0.91535 0.0
H1475 H 0.42961 0.56874 0.94504 0.0
H1476 H 0.45985 0.55939 0.92396 0.0
H1477 H 0.36896 0.57464 0.76926 0.0
H1478 H 0.35763 0.57904 0.82409 0.0
H1479 H 0.37803 0.60196 0.80026 0.0
H1480 H 0.35029 0.60848 0.95868 0.0
H1481 H 0.39974 0.66121 0.89675 0.0
H1482 H 0.38497 0.55369 0.93311 0.0
H1483 H 0.36027 0.55771 0.89405 0.0
H1484 H 0.35461 0.56496 0.95061 0.0
H1485 H 0.44314 0.61753 0.85374 0.0
H1486 H 0.43068 0.64877 0.8462 0.0
H1487 H 0.41968 0.62304 0.81305 0.0
C1488 C 0.71594 0.18937 0.61335 0.0
C1489 C 0.72528 0.17935 0.5741 0.0
C1490 C 0.69444 0.17929 0.63359 0.0
C1491 C 0.68144 0.15916 0.61357 0.0
C1492 C 0.68976 0.15 0.57274 0.0
C1493 C 0.71171 0.15984 0.55397 0.0
C1494 C 0.68646 0.18929 0.67754 0.0
C1495 C 0.67623 0.12884 0.54982 0.0
C1496 C 0.64829 0.11008 0.68235 0.0
C1497 C 0.62299 0.11715 0.67848 0.0
C1498 C 0.66743 0.12417 0.66273 0.0
C1499 C 0.66113 0.14555 0.63743 0.0
C1500 C 0.63557 0.15289 0.63346 0.0
C1501 C 0.61677 0.13879 0.65468 0.0
C1502 C 0.69444 0.11599 0.66882 0.0
C1503 C 0.62807 0.17518 0.60584 0.0
H1504 H 0.72572 0.20478 0.62893 0.0
H1505 H 0.7187 0.15136 0.52427 0.0
H1506 H 0.66607 0.19369 0.67758 0.0
H1507 H 0.68969 0.17469 0.70285 0.0
H1508 H 0.69704 0.20645 0.6869 0.0
H1509 H 0.68281 0.12637 0.51568 0.0
H1510 H 0.67946 0.11101 0.56776 0.0
H1511 H 0.65565 0.13234 0.54939 0.0
H1512 H 0.65321 0.09359 0.70138 0.0
H1513 H 0.5972 0.14428 0.65175 0.0
H1514 H 0.70593 0.1319 0.681 0.0
H1515 H 0.70246 0.11013 0.63701 0.0
H1516 H 0.69626 0.10007 0.69212 0.0
H1517 H 0.6384 0.19219 0.61649 0.0
H1518 H 0.60756 0.17904 0.60745 0.0
H1519 H 0.63329 0.17166 0.57131 0.0
C1520 C 0.09685 0.48289 0.368 0.0
C1521 C 0.08845 0.4834 0.3245 0.0
C1522 C 0.10549 0.46054 0.38738 0.0
C1523 C 0.10604 0.4381 0.36265 0.0
C1524 C 0.09671 0.43821 0.31933 0.0
C1525 C 0.08793 0.46079 0.30087 0.0
C1526 C 0.11511 0.46123 0.43379 0.0
C1527 C 0.09698 0.41471 0.29182 0.0
C1528 C 0.15661 0.39136 0.39603 0.0
C1529 C 0.14294 0.37379 0.42051 0.0
C1530 C 0.14467 0.41188 0.37598 0.0
C1531 C 0.11839 0.41517 0.38093 0.0
C1532 C 0.10435 0.39717 0.40479 0.0
C1533 C 0.11679 0.37658 0.42411 0.0
C1534 C 0.16033 0.43042 0.35041 0.0
C1535 C 0.07636 0.40011 0.41115 0.0
H1536 H 0.09769 0.5002 0.3865 0.0
H1537 H 0.08106 0.46081 0.26755 0.0
H1538 H 0.10641 0.44599 0.45334 0.0
H1539 H 0.13573 0.45805 0.43401 0.0
H1540 H 0.11117 0.47949 0.44994 0.0
H1541 H 0.08725 0.41741 0.26004 0.0
H1542 H 0.11672 0.40905 0.28535 0.0
H1543 H 0.08787 0.39899 0.30956 0.0
H1544 H 0.17681 0.38925 0.39296 0.0
H1545 H 0.10615 0.36316 0.44326 0.0
H1546 H 0.15974 0.44906 0.36653 0.0
H1547 H 0.15251 0.43281 0.31706 0.0
H1548 H 0.18029 0.42444 0.34765 0.0
H1549 H 0.07255 0.41727 0.43059 0.0
H1550 H 0.06793 0.38375 0.42825 0.0
H1551 H 0.06684 0.40254 0.37916 0.0
C1552 C 0.6424 0.61386 0.34171 0.0
C1553 C 0.6263 0.59672 0.36225 0.0
C1554 C 0.6629 0.6243 0.36427 0.0
C1555 C 0.66698 0.61788 0.40868 0.0
C1556 C 0.65041 0.601 0.42978 0.0
C1557 C 0.63044 0.59041 0.40617 0.0
C1558 C 0.6804 0.64191 0.3404 0.0
C1559 C 0.65374 0.59417 0.47732 0.0
C1560 C 0.73282 0.62705 0.45447 0.0
C1561 C 0.73085 0.65095 0.4731 0.0
C1562 C 0.71204 0.61584 0.43394 0.0
C1563 C 0.68869 0.6287 0.43291 0.0
C1564 C 0.68637 0.65233 0.45371 0.0
C1565 C 0.7076 0.66334 0.47306 0.0
C1566 C 0.71539 0.59082 0.41155 0.0
C1567 C 0.66167 0.66635 0.4543 0.0
H1568 H 0.63933 0.61865 0.30769 0.0
H1569 H 0.61787 0.57734 0.4223 0.0
H1570 H 0.68075 0.66044 0.35687 0.0
H1571 H 0.69985 0.63434 0.34125 0.0
H1572 H 0.67479 0.64475 0.30578 0.0
H1573 H 0.6387 0.58144 0.48928 0.0
H1574 H 0.67218 0.58481 0.48226 0.0
H1575 H 0.65373 0.61142 0.4976 0.0
H1576 H 0.75097 0.61773 0.45394 0.0
H1577 H 0.70623 0.68192 0.48732 0.0
H1578 H 0.71217 0.59305 0.37594 0.0
H1579 H 0.70132 0.57714 0.42374 0.0
H1580 H 0.7345 0.58287 0.41669 0.0
H1581 H 0.65653 0.67209 0.42062 0.0
H1582 H 0.66248 0.68342 0.47506 0.0
H1583 H 0.64644 0.65397 0.46655 0.0
C1584 C 0.09765 0.95801 0.73248 0.0
C1585 C 0.11142 0.98041 0.73382 0.0
C1586 C 0.10786 0.93626 0.71366 0.0
C1587 C 0.13214 0.93721 0.69478 0.0
C1588 C 0.14642 0.95963 0.69736 0.0
C1589 C 0.13595 0.98093 0.7173 0.0
C1590 C 0.09231 0.91255 0.71255 0.0
C1591 C 0.17221 0.96151 0.67705 0.0
C1592 C 0.16779 0.87731 0.66819 0.0
C1593 C 0.1626 0.87442 0.62357 0.0
C1594 C 0.15753 0.89732 0.69204 0.0
C1595 C 0.14215 0.91517 0.67051 0.0
C1596 C 0.13667 0.91224 0.62549 0.0
C1597 C 0.14676 0.89171 0.60264 0.0
C1598 C 0.1633 0.89947 0.74019 0.0
C1599 C 0.12066 0.93109 0.6012 0.0
H1600 H 0.07862 0.95773 0.74518 0.0
H1601 H 0.14638 0.99842 0.71778 0.0
H1602 H 0.08696 0.90822 0.67837 0.0
H1603 H 0.10346 0.89642 0.72499 0.0
H1604 H 0.07487 0.91424 0.73229 0.0
H1605 H 0.18128 0.97993 0.68352 0.0
H1606 H 0.18461 0.94639 0.68972 0.0
H1607 H 0.17071 0.95892 0.64119 0.0
H1608 H 0.17988 0.86385 0.68457 0.0
H1609 H 0.14284 0.88963 0.56808 0.0
H1610 H 0.14555 0.90054 0.75912 0.0
H1611 H 0.17389 0.91702 0.74657 0.0
H1612 H 0.17455 0.88334 0.75248 0.0
H1613 H 0.10184 0.9325 0.6166 0.0
H1614 H 0.11815 0.92607 0.56626 0.0
H1615 H 0.12944 0.94996 0.60308 0.0
C1616 C 0.78054 0.38489 0.9279 0.0
C1617 C 0.78259 0.36535 0.95853 0.0
C1618 C 0.80198 0.39536 0.90829 0.0
C1619 C 0.82612 0.38611 0.91955 0.0
C1620 C 0.82835 0.36653 0.95069 0.0
C1621 C 0.80658 0.35639 0.96977 0.0
C1622 C 0.79878 0.41617 0.87516 0.0
C1623 C 0.85375 0.35626 0.96378 0.0
C1624 C 0.87995 0.3981 0.84027 0.0
C1625 C 0.89168 0.41904 0.85914 0.0
C1626 C 0.8587 0.38706 0.8597 0.0
C1627 C 0.84902 0.39714 0.89906 0.0
C1628 C 0.86097 0.41807 0.91851 0.0
C1629 C 0.8821 0.42877 0.89832 0.0
C1630 C 0.84646 0.36479 0.83787 0.0
C1631 C 0.85128 0.42934 0.96047 0.0
H1632 H 0.76208 0.39163 0.91843 0.0
H1633 H 0.80833 0.34144 0.99366 0.0
H1634 H 0.80919 0.43313 0.88591 0.0
H1635 H 0.80686 0.41032 0.84337 0.0
H1636 H 0.77873 0.42132 0.87012 0.0
H1637 H 0.85228 0.34101 0.98845 0.0
H1638 H 0.86364 0.34882 0.93465 0.0
H1639 H 0.86556 0.37153 0.9774 0.0
H1640 H 0.88716 0.39047 0.80997 0.0
H1641 H 0.89106 0.44489 0.91327 0.0
H1642 H 0.82666 0.36934 0.82951 0.0
H1643 H 0.84609 0.34856 0.86063 0.0
H1644 H 0.85639 0.35908 0.80756 0.0
H1645 H 0.83174 0.43617 0.95574 0.0
H1646 H 0.86304 0.44527 0.97192 0.0
H1647 H 0.85076 0.41482 0.98648 0.0
C1648 C 0.40906 0.03045 0.17286 0.0
C1649 C 0.40506 0.0274 0.21772 0.0
C1650 C 0.39919 0.05124 0.15041 0.0
C1651 C 0.38548 0.06968 0.1737 0.0
C1652 C 0.38184 0.06686 0.21933 0.0
C1653 C 0.39142 0.0455 0.24076 0.0
C1654 C 0.40293 0.05315 0.10164 0.0
C1655 C 0.36777 0.08636 0.24542 0.0
C1656 C 0.37747 0.13348 0.11889 0.0
C1657 C 0.35247 0.1322 0.10468 0.0
C1658 C 0.38836 0.11345 0.14222 0.0
C1659 C 0.37415 0.09136 0.14995 0.0
C1660 C 0.3491 0.08982 0.13446 0.0
C1661 C 0.33842 0.11045 0.11274 0.0
C1662 C 0.41487 0.11608 0.15929 0.0
C1663 C 0.33361 0.06631 0.14057 0.0
H1664 H 0.41954 0.01624 0.1552 0.0
H1665 H 0.38846 0.04303 0.27552 0.0
H1666 H 0.38439 0.05361 0.08497 0.0
H1667 H 0.41276 0.0709 0.09339 0.0
H1668 H 0.41403 0.03719 0.08845 0.0
H1669 H 0.36791 0.08215 0.28097 0.0
H1670 H 0.37624 0.10516 0.24011 0.0
H1671 H 0.34796 0.08739 0.23421 0.0
H1672 H 0.38819 0.15046 0.11298 0.0
H1673 H 0.31911 0.10946 0.10141 0.0
H1674 H 0.42708 0.10134 0.14498 0.0
H1675 H 0.41507 0.11336 0.19523 0.0
H1676 H 0.4231 0.13476 0.15166 0.0
H1677 H 0.34362 0.04993 0.12642 0.0
H1678 H 0.31478 0.0678 0.12499 0.0
H1679 H 0.331 0.06245 0.17587 0.0
C1680 C 0.30683 0.33816 0.54069 0.0
C1681 C 0.28448 0.33716 0.5651 0.0
C1682 C 0.32935 0.3472 0.55906 0.0
C1683 C 0.32966 0.35538 0.60304 0.0
C1684 C 0.30747 0.35346 0.62838 0.0
C1685 C 0.2852 0.34448 0.60914 0.0
C1686 C 0.35257 0.34886 0.5309 0.0
C1687 C 0.30695 0.36188 0.67544 0.0
C1688 C 0.39128 0.36574 0.66469 0.0
C1689 C 0.39343 0.392 0.66337 0.0
C1690 C 0.37098 0.35343 0.64429 0.0
C1691 C 0.35254 0.3677 0.62174 0.0
C1692 C 0.35525 0.39412 0.61888 0.0
C1693 C 0.37555 0.40592 0.63985 0.0
C1694 C 0.36875 0.32526 0.64834 0.0
C1695 C 0.33621 0.41008 0.59485 0.0
H1696 H 0.30664 0.33223 0.50686 0.0
H1697 H 0.26807 0.34421 0.62826 0.0
H1698 H 0.35769 0.36887 0.52595 0.0
H1699 H 0.36871 0.33962 0.54739 0.0
H1700 H 0.34979 0.34002 0.49842 0.0
H1701 H 0.28886 0.35728 0.6917 0.0
H1702 H 0.32249 0.35293 0.69401 0.0
H1703 H 0.30982 0.3825 0.67706 0.0
H1704 H 0.40491 0.35487 0.6831 0.0
H1705 H 0.37712 0.42621 0.63855 0.0
H1706 H 0.36609 0.31667 0.61569 0.0
H1707 H 0.35194 0.32052 0.66814 0.0
H1708 H 0.38555 0.3167 0.66403 0.0
H1709 H 0.3337 0.40307 0.56103 0.0
H1710 H 0.34182 0.43016 0.59339 0.0
H1711 H 0.31769 0.40875 0.61135 0.0
C1712 C 0.89117 0.1524 0.42202 0.0
C1713 C 0.86494 0.15461 0.41883 0.0
C1714 C 0.90395 0.13213 0.40257 0.0
C1715 C 0.89018 0.11386 0.37892 0.0
C1716 C 0.86385 0.11676 0.37383 0.0
C1717 C 0.85155 0.13698 0.3941 0.0
C1718 C 0.93198 0.12962 0.40916 0.0
C1719 C 0.84848 0.09795 0.34839 0.0
C1720 C 0.92249 0.06794 0.30183 0.0
C1721 C 0.92255 0.04568 0.32659 0.0
C1722 C 0.91268 0.09045 0.31877 0.0
C1723 C 0.90288 0.09087 0.36172 0.0
C1724 C 0.90382 0.06878 0.38753 0.0
C1725 C 0.9135 0.04648 0.36963 0.0
C1726 C 0.91202 0.11357 0.29018 0.0
C1727 C 0.89375 0.06843 0.43361 0.0
H1728 H 0.9016 0.16581 0.44151 0.0
H1729 H 0.83127 0.13863 0.39146 0.0
H1730 H 0.93596 0.11294 0.42982 0.0
H1731 H 0.94154 0.12663 0.37742 0.0
H1732 H 0.94023 0.14642 0.42517 0.0
H1733 H 0.82855 0.10391 0.34469 0.0
H1734 H 0.85666 0.09517 0.31544 0.0
H1735 H 0.84888 0.07951 0.36531 0.0
H1736 H 0.92984 0.06773 0.26885 0.0
H1737 H 0.91307 0.02942 0.38896 0.0
H1738 H 0.92099 0.12962 0.30718 0.0
H1739 H 0.89221 0.11892 0.28354 0.0
H1740 H 0.92172 0.11059 0.25849 0.0
H1741 H 0.90221 0.08389 0.45293 0.0
H1742 H 0.89762 0.05035 0.45051 0.0
H1743 H 0.87311 0.07153 0.43308 0.0
C1744 C 0.14107 0.60675 0.14323 0.0
C1745 C 0.12221 0.62069 0.16407 0.0
C1746 C 0.16151 0.61865 0.12282 0.0
C1747 C 0.16334 0.6452 0.12355 0.0
C1748 C 0.14397 0.65943 0.1435 0.0
C1749 C 0.12358 0.64702 0.16336 0.0
C1750 C 0.18156 0.60272 0.10156 0.0
C1751 C 0.14525 0.68773 0.14525 0.0
C1752 C 0.23007 0.67037 0.11203 0.0
C1753 C 0.23122 0.67627 0.06737 0.0
C1754 C 0.2078 0.66125 0.13108 0.0
C1755 C 0.18608 0.65779 0.10491 0.0
C1756 C 0.18679 0.66469 0.06025 0.0
C1757 C 0.20927 0.67388 0.04209 0.0
C1758 C 0.20787 0.65426 0.17889 0.0
C1759 C 0.16408 0.66141 0.03119 0.0
H1760 H 0.14014 0.58641 0.14358 0.0
H1761 H 0.1092 0.65792 0.17977 0.0
H1762 H 0.18444 0.60876 0.06724 0.0
H1763 H 0.1997 0.60526 0.11894 0.0
H1764 H 0.17673 0.58242 0.10182 0.0
H1765 H 0.12796 0.69614 0.15939 0.0
H1766 H 0.1616 0.69354 0.1654 0.0
H1767 H 0.14813 0.69555 0.11204 0.0
H1768 H 0.24691 0.6718 0.13184 0.0
H1769 H 0.20979 0.67876 1.00773 0.0
H1770 H 0.20579 0.63362 0.18237 0.0
H1771 H 0.19168 0.6631 0.19578 0.0
H1772 H 0.22549 0.66007 0.19558 0.0
H1773 H 0.15975 0.64112 0.02782 0.0
H1774 H 0.16704 0.66944 0.99809 0.0
H1775 H 0.14737 0.6705 0.04604 0.0
C1776 C 0.60013 0.94942 0.78768 0.0
C1777 C 0.5896 0.96862 0.81315 0.0
C1778 C 0.60965 0.92738 0.80693 0.0
C1779 C 0.60906 0.92458 0.85293 0.0
C1780 C 0.59707 0.94326 0.87856 0.0
C1781 C 0.58734 0.96499 0.85832 0.0
C1782 C 0.62178 0.90781 0.7782 0.0
C1783 C 0.59615 0.94119 0.92769 0.0
C1784 C 0.62627 0.86191 0.90678 0.0
C1785 C 0.65167 0.86574 0.91744 0.0
C1786 C 0.61217 0.88066 0.88516 0.0
C1787 C 0.62366 0.90389 0.8744 0.0
C1788 C 0.6494 0.90762 0.88449 0.0
C1789 C 0.66305 0.88852 0.90558 0.0
C1790 C 0.5849 0.87579 0.87448 0.0
C1791 C 0.66246 0.93207 0.87386 0.0
H1792 H 0.60178 0.9521 0.75269 0.0
H1793 H 0.57943 0.97987 0.87817 0.0
H1794 H 0.64248 0.9083 0.78279 0.0
H1795 H 0.61528 0.88872 0.78739 0.0
H1796 H 0.61762 0.911 0.74307 0.0
H1797 H 0.58379 0.9557 0.94246 0.0
H1798 H 0.58934 0.92237 0.93771 0.0
H1799 H 0.6154 0.94348 0.94116 0.0
H1800 H 0.61727 0.84443 0.91598 0.0
H1801 H 0.68262 0.89176 0.91377 0.0
H1802 H 0.58141 0.87908 0.8392 0.0
H1803 H 0.5728 0.88909 0.89278 0.0
H1804 H 0.57911 0.85632 0.88277 0.0
H1805 H 0.66144 0.93579 0.83826 0.0
H1806 H 0.68254 0.93201 0.8839 0.0
H1807 H 0.6528 0.94783 0.8906 0.0
loop_
_geom_bond_atom_site_label_1
_geom_bond_atom_site_label_2
_geom_bond_distance
_geom_bond_site_symmetry_2
_ccdc_geom_bond_type
Co0 N4 2.148 . S
Co0 N10 2.128 1_554 S
Co0 N20 2.194 1_554 S
Co0 O25 2.351 1_554 S
Co0 O26 2.155 . S
Co0 O27 2.096 . S
C1 N4 1.301 . S
C1 N5 1.328 . S
C1 H6 0.930 . S
C2 C3 1.333 . S
C2 N4 1.317 . S
C2 H7 0.930 . S
C3 C2 1.333 . S
C3 N5 1.350 . S
C3 H29 0.931 . S
N4 Co0 2.148 . S
N4 C1 1.301 . S
N4 C2 1.317 . S
N5 C1 1.328 . S
N5 C3 1.350 . S
H6 C1 0.930 . S
H7 C2 0.930 . S
C8 O9 1.224 . S
C8 O27 1.247 . S
O9 C8 1.224 . S
N10 Co0 2.128 1_556 S
N10 C11 1.355 . S
N10 C13 1.311 . S
C11 N10 1.355 . S
C11 C12 1.363 . S
C11 H23 0.929 . S
C12 C11 1.363 . S
C12 N14 1.375 . S
C12 H30 0.931 . S
C13 N10 1.311 . S
C13 N14 1.347 . S
C13 H24 0.929 . S
N14 C12 1.375 . S
N14 C13 1.347 . S
C15 C18 1.365 . S
C15 N20 1.328 . S
C15 H21 0.929 . S
C16 C17 1.362 . S
C16 C19 1.378 . S
C16 H31 0.929 . S
C17 C16 1.362 . S
C17 C18 1.366 . S
C18 C15 1.365 . S
C18 C17 1.366 . S
C18 H32 0.930 . S
C19 C16 1.378 . S
C19 N20 1.315 . S
C19 H22 0.930 1_556 S
N20 Co0 2.194 1_556 S
N20 C15 1.328 . S
N20 C19 1.315 . S
H21 C15 0.929 . S
H22 C19 0.930 1_554 S
H23 C11 0.929 . S
H24 C13 0.929 . S
O25 Co0 2.351 1_556 S
O25 C28 1.244 . S
O26 Co0 2.155 . S
O26 C28 1.240 1_554 S
O27 Co0 2.096 . S
O27 C8 1.247 . S
C28 O25 1.244 . S
C28 O26 1.240 1_556 S
H29 C3 0.931 . S
H30 C12 0.931 . S
H31 C16 0.929 . S
H32 C18 0.930 . S
Co33 N37 2.148 . S
Co33 N43 2.128 . S
Co33 N53 2.194 . S
Co33 O58 2.351 . S
Co33 O59 2.155 . S
Co33 O60 2.096 . S
C34 N37 1.301 . S
C34 N38 1.328 . S
C34 H39 0.930 . S
C35 C36 1.333 . S
C35 N37 1.317 . S
C35 H40 0.930 . S
C36 C35 1.333 . S
C36 N38 1.350 . S
C36 H62 0.931 . S
N37 Co33 2.148 . S
N37 C34 1.301 . S
N37 C35 1.317 . S
N38 C34 1.328 . S
N38 C36 1.350 . S
H39 C34 0.930 . S
H40 C35 0.930 . S
C41 O42 1.224 . S
C41 O60 1.247 . S
O42 C41 1.224 . S
N43 Co33 2.128 . S
N43 C44 1.355 . S
N43 C46 1.311 . S
C44 N43 1.355 . S
C44 C45 1.363 . S
C44 H56 0.929 . S
C45 C44 1.363 . S
C45 N47 1.375 . S
C45 H63 0.931 . S
C46 N43 1.311 . S
C46 N47 1.347 . S
C46 H57 0.929 . S
N47 C45 1.375 . S
N47 C46 1.347 . S
C48 C51 1.365 . S
C48 N53 1.328 . S
C48 H54 0.929 . S
C49 C50 1.362 . S
C49 C52 1.378 . S
C49 H64 0.929 . S
C50 C49 1.362 . S
C50 C51 1.366 . S
C51 C48 1.365 . S
C51 C50 1.366 . S
C51 H65 0.930 . S
C52 C49 1.378 . S
C52 N53 1.315 . S
C52 H55 0.930 . S
N53 Co33 2.194 . S
N53 C48 1.328 . S
N53 C52 1.315 . S
H54 C48 0.929 . S
H55 C52 0.930 . S
H56 C44 0.929 . S
H57 C46 0.929 . S
O58 Co33 2.351 . S
O58 C61 1.244 . S
O59 Co33 2.155 . S
O59 C61 1.240 . S
O60 Co33 2.096 . S
O60 C41 1.247 . S
C61 O58 1.244 . S
C61 O59 1.240 . S
H62 C36 0.931 . S
H63 C45 0.931 . S
H64 C49 0.929 . S
H65 C51 0.930 . S
Co66 N70 2.148 . S
Co66 N76 2.128 . S
Co66 N86 2.194 . S
Co66 O91 2.351 . S
Co66 O92 2.155 . S
Co66 O93 2.096 . S
C67 N70 1.301 . S
C67 N71 1.328 . S
C67 H72 0.930 . S
C68 C69 1.333 . S
C68 N70 1.317 . S
C68 H73 0.930 . S
C69 C68 1.333 . S
C69 N71 1.350 . S
C69 H95 0.931 . S
N70 Co66 2.148 . S
N70 C67 1.301 . S
N70 C68 1.317 . S
N71 C67 1.328 . S
N71 C69 1.350 . S
H72 C67 0.930 . S
H73 C68 0.930 . S
C74 O75 1.224 . S
C74 O93 1.247 . S
O75 C74 1.224 . S
N76 Co66 2.128 . S
N76 C77 1.355 . S
N76 C79 1.311 . S
C77 N76 1.355 . S
C77 C78 1.363 . S
C77 H89 0.929 . S
C78 C77 1.363 . S
C78 N80 1.375 . S
C78 H96 0.931 . S
C79 N76 1.311 . S
C79 N80 1.347 . S
C79 H90 0.929 . S
N80 C78 1.375 . S
N80 C79 1.347 . S
C81 C84 1.365 . S
C81 N86 1.328 . S
C81 H87 0.929 . S
C82 C83 1.362 . S
C82 C85 1.378 . S
C82 H97 0.929 . S
C83 C82 1.362 . S
C83 C84 1.366 . S
C84 C81 1.365 . S
C84 C83 1.366 . S
C84 H98 0.930 . S
C85 C82 1.378 . S
C85 N86 1.315 . S
C85 H88 0.930 . S
N86 Co66 2.194 . S
N86 C81 1.328 . S
N86 C85 1.315 . S
H87 C81 0.929 . S
H88 C85 0.930 . S
H89 C77 0.929 . S
H90 C79 0.929 . S
O91 Co66 2.351 . S
O91 C94 1.244 . S
O92 Co66 2.155 . S
O92 C94 1.240 . S
O93 Co66 2.096 . S
O93 C74 1.247 . S
C94 O91 1.244 . S
C94 O92 1.240 . S
H95 C69 0.931 . S
H96 C78 0.931 . S
H97 C82 0.929 . S
H98 C84 0.930 . S
Co99 N103 2.148 . S
Co99 N109 2.128 . S
Co99 N119 2.194 . S
Co99 O124 2.351 . S
Co99 O125 2.155 . S
Co99 O126 2.096 . S
C100 N103 1.301 . S
C100 N104 1.328 . S
C100 H105 0.930 . S
C101 C102 1.333 . S
C101 N103 1.317 . S
C101 H106 0.930 . S
C102 C101 1.333 . S
C102 N104 1.350 . S
C102 H128 0.931 . S
N103 Co99 2.148 . S
N103 C100 1.301 . S
N103 C101 1.317 . S
N104 C100 1.328 . S
N104 C102 1.350 . S
H105 C100 0.930 . S
H106 C101 0.930 . S
C107 O108 1.224 . S
C107 O126 1.247 . S
O108 C107 1.224 . S
N109 Co99 2.128 . S
N109 C110 1.355 . S
N109 C112 1.311 . S
C110 N109 1.355 . S
C110 C111 1.363 . S
C110 H122 0.929 . S
C111 C110 1.363 . S
C111 N113 1.375 . S
C111 H129 0.931 . S
C112 N109 1.311 . S
C112 N113 1.347 . S
C112 H123 0.929 . S
N113 C111 1.375 . S
N113 C112 1.347 . S
C114 C117 1.365 . S
C114 N119 1.328 . S
C114 H120 0.929 . S
C115 C116 1.362 . S
C115 C118 1.378 . S
C115 H130 0.929 . S
C116 C115 1.362 . S
C116 C117 1.366 . S
C117 C114 1.365 . S
C117 C116 1.366 . S
C117 H131 0.930 . S
C118 C115 1.378 . S
C118 N119 1.315 . S
C118 H121 0.930 . S
N119 Co99 2.194 . S
N119 C114 1.328 . S
N119 C118 1.315 . S
H120 C114 0.929 . S
H121 C118 0.930 . S
H122 C110 0.929 . S
H123 C112 0.929 . S
O124 Co99 2.351 . S
O124 C127 1.244 . S
O125 Co99 2.155 . S
O125 C127 1.240 . S
O126 Co99 2.096 . S
O126 C107 1.247 . S
C127 O124 1.244 . S
C127 O125 1.240 . S
H128 C102 0.931 . S
H129 C111 0.931 . S
H130 C115 0.929 . S
H131 C117 0.930 . S
Co132 N136 2.148 . S
Co132 N142 2.128 1_556 S
Co132 N152 2.194 1_556 S
Co132 O157 2.351 . S
Co132 O158 2.155 . S
Co132 O159 2.096 . S
C133 N136 1.301 . S
C133 N137 1.328 . S
C133 H138 0.930 . S
C134 C135 1.333 . S
C134 N136 1.317 . S
C134 H139 0.930 . S
C135 C134 1.333 . S
C135 N137 1.350 . S
C135 H161 0.931 . S
N136 Co132 2.148 . S
N136 C133 1.301 . S
N136 C134 1.317 . S
N137 C133 1.328 . S
N137 C135 1.350 . S
H138 C133 0.930 . S
H139 C134 0.930 . S
C140 O141 1.224 . S
C140 O159 1.247 1_554 S
O141 C140 1.224 . S
N142 Co132 2.128 1_554 S
N142 C143 1.355 . S
N142 C145 1.311 . S
C143 N142 1.355 . S
C143 C144 1.363 . S
C143 H155 0.929 . S
C144 C143 1.363 . S
C144 N146 1.375 . S
C144 H162 0.931 . S
C145 N142 1.311 . S
C145 N146 1.347 . S
C145 H156 0.929 . S
N146 C144 1.375 . S
N146 C145 1.347 . S
C147 C150 1.365 . S
C147 N152 1.328 . S
C147 H153 0.929 1_554 S
C148 C149 1.362 . S
C148 C151 1.378 . S
C148 H163 0.929 . S
C149 C148 1.362 . S
C149 C150 1.366 . S
C150 C147 1.365 . S
C150 C149 1.366 . S
C150 H164 0.930 . S
C151 C148 1.378 . S
C151 N152 1.315 . S
C151 H154 0.930 . S
N152 Co132 2.194 1_554 S
N152 C147 1.328 . S
N152 C151 1.315 . S
H153 C147 0.929 1_556 S
H154 C151 0.930 . S
H155 C143 0.929 . S
H156 C145 0.929 . S
O157 Co132 2.351 . S
O157 C160 1.244 . S
O158 Co132 2.155 . S
O158 C160 1.240 . S
O159 Co132 2.096 . S
O159 C140 1.247 1_556 S
C160 O157 1.244 . S
C160 O158 1.240 . S
H161 C135 0.931 . S
H162 C144 0.931 . S
H163 C148 0.929 . S
H164 C150 0.930 . S
Co165 N169 2.148 . S
Co165 N175 2.128 . S
Co165 N185 2.194 . S
Co165 O190 2.351 . S
Co165 O191 2.155 . S
Co165 O192 2.096 . S
C166 N169 1.301 . S
C166 N170 1.328 . S
C166 H171 0.930 . S
C167 C168 1.333 . S
C167 N169 1.317 . S
C167 H172 0.930 . S
C168 C167 1.333 . S
C168 N170 1.350 . S
C168 H194 0.931 . S
N169 Co165 2.148 . S
N169 C166 1.301 . S
N169 C167 1.317 . S
N170 C166 1.328 . S
N170 C168 1.350 . S
H171 C166 0.930 . S
H172 C167 0.930 . S
C173 O174 1.224 . S
C173 O192 1.247 . S
O174 C173 1.224 . S
N175 Co165 2.128 . S
N175 C176 1.355 . S
N175 C178 1.311 . S
C176 N175 1.355 . S
C176 C177 1.363 . S
C176 H188 0.929 . S
C177 C176 1.363 . S
C177 N179 1.375 . S
C177 H195 0.931 . S
C178 N175 1.311 . S
C178 N179 1.347 . S
C178 H189 0.929 . S
N179 C177 1.375 . S
N179 C178 1.347 . S
C180 C183 1.365 . S
C180 N185 1.328 . S
C180 H186 0.929 . S
C181 C182 1.362 . S
C181 C184 1.378 . S
C181 H196 0.929 . S
C182 C181 1.362 . S
C182 C183 1.366 . S
C183 C180 1.365 . S
C183 C182 1.366 . S
C183 H197 0.930 . S
C184 C181 1.378 . S
C184 N185 1.315 . S
C184 H187 0.930 . S
N185 Co165 2.194 . S
N185 C180 1.328 . S
N185 C184 1.315 . S
H186 C180 0.929 . S
H187 C184 0.930 . S
H188 C176 0.929 . S
H189 C178 0.929 . S
O190 Co165 2.351 . S
O190 C193 1.244 . S
O191 Co165 2.155 . S
O191 C193 1.240 . S
O192 Co165 2.096 . S
O192 C173 1.247 . S
C193 O190 1.244 . S
C193 O191 1.240 . S
H194 C168 0.931 . S
H195 C177 0.931 . S
H196 C181 0.929 . S
H197 C183 0.930 . S
Co198 N202 2.148 . S
Co198 N208 2.128 . S
Co198 N218 2.194 . S
Co198 O223 2.351 . S
Co198 O224 2.155 . S
Co198 O225 2.096 . S
C199 N202 1.301 . S
C199 N203 1.328 . S
C199 H204 0.930 . S
C200 C201 1.333 . S
C200 N202 1.317 . S
C200 H205 0.930 . S
C201 C200 1.333 . S
C201 N203 1.350 . S
C201 H227 0.931 . S
N202 Co198 2.148 . S
N202 C199 1.301 . S
N202 C200 1.317 . S
N203 C199 1.328 . S
N203 C201 1.350 . S
H204 C199 0.930 . S
H205 C200 0.930 . S
C206 O207 1.224 . S
C206 O225 1.247 . S
O207 C206 1.224 . S
N208 Co198 2.128 . S
N208 C209 1.355 . S
N208 C211 1.311 . S
C209 N208 1.355 . S
C209 C210 1.363 . S
C209 H221 0.929 . S
C210 C209 1.363 . S
C210 N212 1.375 . S
C210 H228 0.931 . S
C211 N208 1.311 . S
C211 N212 1.347 . S
C211 H222 0.929 . S
N212 C210 1.375 . S
N212 C211 1.347 . S
C213 C216 1.365 . S
C213 N218 1.328 . S
C213 H219 0.929 . S
C214 C215 1.362 . S
C214 C217 1.378 . S
C214 H229 0.929 . S
C215 C214 1.362 . S
C215 C216 1.366 . S
C216 C213 1.365 . S
C216 C215 1.366 . S
C216 H230 0.930 . S
C217 C214 1.378 . S
C217 N218 1.315 . S
C217 H220 0.930 . S
N218 Co198 2.194 . S
N218 C213 1.328 . S
N218 C217 1.315 . S
H219 C213 0.929 . S
H220 C217 0.930 . S
H221 C209 0.929 . S
H222 C211 0.929 . S
O223 Co198 2.351 . S
O223 C226 1.244 . S
O224 Co198 2.155 . S
O224 C226 1.240 . S
O225 Co198 2.096 . S
O225 C206 1.247 . S
C226 O223 1.244 . S
C226 O224 1.240 . S
H227 C201 0.931 . S
H228 C210 0.931 . S
H229 C214 0.929 . S
H230 C216 0.930 . S
Co231 N235 2.148 . S
Co231 N241 2.128 . S
Co231 N251 2.194 . S
Co231 O256 2.351 . S
Co231 O257 2.155 . S
Co231 O258 2.096 . S
C232 N235 1.301 . S
C232 N236 1.328 . S
C232 H237 0.930 . S
C233 C234 1.333 . S
C233 N235 1.317 . S
C233 H238 0.930 . S
C234 C233 1.333 . S
C234 N236 1.350 . S
C234 H260 0.931 . S
N235 Co231 2.148 . S
N235 C232 1.301 . S
N235 C233 1.317 . S
N236 C232 1.328 . S
N236 C234 1.350 . S
H237 C232 0.930 . S
H238 C233 0.930 . S
C239 O240 1.224 . S
C239 O258 1.247 . S
O240 C239 1.224 . S
N241 Co231 2.128 . S
N241 C242 1.355 . S
N241 C244 1.311 . S
C242 N241 1.355 . S
C242 C243 1.363 . S
C242 H254 0.929 . S
C243 C242 1.363 . S
C243 N245 1.375 . S
C243 H261 0.931 . S
C244 N241 1.311 . S
C244 N245 1.347 . S
C244 H255 0.929 . S
N245 C243 1.375 . S
N245 C244 1.347 . S
C246 C249 1.365 . S
C246 N251 1.328 . S
C246 H252 0.929 . S
C247 C248 1.362 . S
C247 C250 1.378 . S
C247 H262 0.929 . S
C248 C247 1.362 . S
C248 C249 1.366 . S
C249 C246 1.365 . S
C249 C248 1.366 . S
C249 H263 0.930 . S
C250 C247 1.378 . S
C250 N251 1.315 . S
C250 H253 0.930 . S
N251 Co231 2.194 . S
N251 C246 1.328 . S
N251 C250 1.315 . S
H252 C246 0.929 . S
H253 C250 0.930 . S
H254 C242 0.929 . S
H255 C244 0.929 . S
O256 Co231 2.351 . S
O256 C259 1.244 . S
O257 Co231 2.155 . S
O257 C259 1.240 . S
O258 Co231 2.096 . S
O258 C239 1.247 . S
C259 O256 1.244 . S
C259 O257 1.240 . S
H260 C234 0.931 . S
H261 C243 0.931 . S
H262 C247 0.929 . S
H263 C249 0.930 . S
Co264 N268 2.148 . S
Co264 N274 2.128 . S
Co264 N284 2.194 . S
Co264 O289 2.351 . S
Co264 O290 2.155 . S
Co264 O291 2.096 . S
C265 N268 1.301 . S
C265 N269 1.328 . S
C265 H270 0.930 . S
C266 C267 1.333 . S
C266 N268 1.317 . S
C266 H271 0.930 . S
C267 C266 1.333 . S
C267 N269 1.350 . S
C267 H293 0.931 . S
N268 Co264 2.148 . S
N268 C265 1.301 . S
N268 C266 1.317 . S
N269 C265 1.328 . S
N269 C267 1.350 . S
H270 C265 0.930 . S
H271 C266 0.930 . S
C272 O273 1.224 . S
C272 O291 1.247 . S
O273 C272 1.224 . S
N274 Co264 2.128 . S
N274 C275 1.355 . S
N274 C277 1.311 . S
C275 N274 1.355 . S
C275 C276 1.363 . S
C275 H287 0.929 . S
C276 C275 1.363 . S
C276 N278 1.375 . S
C276 H294 0.931 . S
C277 N274 1.311 . S
C277 N278 1.347 . S
C277 H288 0.929 . S
N278 C276 1.375 . S
N278 C277 1.347 . S
C279 C282 1.365 . S
C279 N284 1.328 . S
C279 H285 0.929 . S
C280 C281 1.362 . S
C280 C283 1.378 . S
C280 H295 0.929 . S
C281 C280 1.362 . S
C281 C282 1.366 . S
C282 C279 1.365 . S
C282 C281 1.366 . S
C282 H296 0.930 . S
C283 C280 1.378 . S
C283 N284 1.315 . S
C283 H286 0.930 . S
N284 Co264 2.194 . S
N284 C279 1.328 . S
N284 C283 1.315 . S
H285 C279 0.929 . S
H286 C283 0.930 . S
H287 C275 0.929 . S
H288 C277 0.929 . S
O289 Co264 2.351 . S
O289 C292 1.244 . S
O290 Co264 2.155 . S
O290 C292 1.240 . S
O291 Co264 2.096 . S
O291 C272 1.247 . S
C292 O289 1.244 . S
C292 O290 1.240 . S
H293 C267 0.931 . S
H294 C276 0.931 . S
H295 C280 0.929 . S
H296 C282 0.930 . S
Co297 N301 2.148 . S
Co297 N307 2.128 . S
Co297 N317 2.194 . S
Co297 O322 2.351 . S
Co297 O323 2.155 . S
Co297 O324 2.096 . S
C298 N301 1.301 . S
C298 N302 1.328 . S
C298 H303 0.930 . S
C299 C300 1.333 . S
C299 N301 1.317 . S
C299 H304 0.930 . S
C300 C299 1.333 . S
C300 N302 1.350 . S
C300 H326 0.931 . S
N301 Co297 2.148 . S
N301 C298 1.301 . S
N301 C299 1.317 . S
N302 C298 1.328 . S
N302 C300 1.350 . S
H303 C298 0.930 . S
H304 C299 0.930 . S
C305 O306 1.224 . S
C305 O324 1.247 . S
O306 C305 1.224 . S
N307 Co297 2.128 . S
N307 C308 1.355 . S
N307 C310 1.311 . S
C308 N307 1.355 . S
C308 C309 1.363 . S
C308 H320 0.929 . S
C309 C308 1.363 . S
C309 N311 1.375 . S
C309 H327 0.931 . S
C310 N307 1.311 . S
C310 N311 1.347 . S
C310 H321 0.929 . S
N311 C309 1.375 . S
N311 C310 1.347 . S
C312 C315 1.365 . S
C312 N317 1.328 . S
C312 H318 0.929 . S
C313 C314 1.362 . S
C313 C316 1.378 . S
C313 H328 0.929 . S
C314 C313 1.362 . S
C314 C315 1.366 . S
C315 C312 1.365 . S
C315 C314 1.366 . S
C315 H329 0.930 . S
C316 C313 1.378 . S
C316 N317 1.315 . S
C316 H319 0.930 . S
N317 Co297 2.194 . S
N317 C312 1.328 . S
N317 C316 1.315 . S
H318 C312 0.929 . S
H319 C316 0.930 . S
H320 C308 0.929 . S
H321 C310 0.929 . S
O322 Co297 2.351 . S
O322 C325 1.244 . S
O323 Co297 2.155 . S
O323 C325 1.240 . S
O324 Co297 2.096 . S
O324 C305 1.247 . S
C325 O322 1.244 . S
C325 O323 1.240 . S
H326 C300 0.931 . S
H327 C309 0.931 . S
H328 C313 0.929 . S
H329 C315 0.930 . S
Co330 N334 2.148 . S
Co330 N340 2.128 1_554 S
Co330 N350 2.194 1_554 S
Co330 O355 2.351 1_554 S
Co330 O356 2.155 . S
Co330 O357 2.096 . S
C331 N334 1.301 . S
C331 N335 1.328 . S
C331 H336 0.930 . S
C332 C333 1.333 . S
C332 N334 1.317 . S
C332 H337 0.930 . S
C333 C332 1.333 . S
C333 N335 1.350 . S
C333 H359 0.931 . S
N334 Co330 2.148 . S
N334 C331 1.301 . S
N334 C332 1.317 . S
N335 C331 1.328 . S
N335 C333 1.350 . S
H336 C331 0.930 . S
H337 C332 0.930 . S
C338 O339 1.224 . S
C338 O357 1.247 . S
O339 C338 1.224 . S
N340 Co330 2.128 1_556 S
N340 C341 1.355 . S
N340 C343 1.311 . S
C341 N340 1.355 . S
C341 C342 1.363 . S
C341 H353 0.929 . S
C342 C341 1.363 . S
C342 N344 1.375 . S
C342 H360 0.931 . S
C343 N340 1.311 . S
C343 N344 1.347 . S
C343 H354 0.929 . S
N344 C342 1.375 . S
N344 C343 1.347 . S
C345 C348 1.365 . S
C345 N350 1.328 . S
C345 H351 0.929 . S
C346 C347 1.362 . S
C346 C349 1.378 . S
C346 H361 0.929 . S
C347 C346 1.362 . S
C347 C348 1.366 . S
C348 C345 1.365 . S
C348 C347 1.366 . S
C348 H362 0.930 . S
C349 C346 1.378 . S
C349 N350 1.315 . S
C349 H352 0.930 1_556 S
N350 Co330 2.194 1_556 S
N350 C345 1.328 . S
N350 C349 1.315 . S
H351 C345 0.929 . S
H352 C349 0.930 1_554 S
H353 C341 0.929 . S
H354 C343 0.929 . S
O355 Co330 2.351 1_556 S
O355 C358 1.244 . S
O356 Co330 2.155 . S
O356 C358 1.240 1_554 S
O357 Co330 2.096 . S
O357 C338 1.247 . S
C358 O355 1.244 . S
C358 O356 1.240 1_556 S
H359 C333 0.931 . S
H360 C342 0.931 . S
H361 C346 0.929 . S
H362 C348 0.930 . S
Co363 N367 2.148 . S
Co363 N373 2.128 . S
Co363 N383 2.194 . S
Co363 O388 2.351 . S
Co363 O389 2.155 . S
Co363 O390 2.096 . S
C364 N367 1.301 . S
C364 N368 1.328 . S
C364 H369 0.930 . S
C365 C366 1.333 . S
C365 N367 1.317 . S
C365 H370 0.930 . S
C366 C365 1.333 . S
C366 N368 1.350 . S
C366 H392 0.931 . S
N367 Co363 2.148 . S
N367 C364 1.301 . S
N367 C365 1.317 . S
N368 C364 1.328 . S
N368 C366 1.350 . S
H369 C364 0.930 . S
H370 C365 0.930 . S
C371 O372 1.224 . S
C371 O390 1.247 . S
O372 C371 1.224 . S
N373 Co363 2.128 . S
N373 C374 1.355 . S
N373 C376 1.311 . S
C374 N373 1.355 . S
C374 C375 1.363 . S
C374 H386 0.929 . S
C375 C374 1.363 . S
C375 N377 1.375 . S
C375 H393 0.931 . S
C376 N373 1.311 . S
C376 N377 1.347 . S
C376 H387 0.929 . S
N377 C375 1.375 . S
N377 C376 1.347 . S
C378 C381 1.365 . S
C378 N383 1.328 . S
C378 H384 0.929 . S
C379 C380 1.362 . S
C379 C382 1.378 . S
C379 H394 0.929 . S
C380 C379 1.362 . S
C380 C381 1.366 . S
C381 C378 1.365 . S
C381 C380 1.366 . S
C381 H395 0.930 . S
C382 C379 1.378 . S
C382 N383 1.315 . S
C382 H385 0.930 . S
N383 Co363 2.194 . S
N383 C378 1.328 . S
N383 C382 1.315 . S
H384 C378 0.929 . S
H385 C382 0.930 . S
H386 C374 0.929 . S
H387 C376 0.929 . S
O388 Co363 2.351 . S
O388 C391 1.244 . S
O389 Co363 2.155 . S
O389 C391 1.240 . S
O390 Co363 2.096 . S
O390 C371 1.247 . S
C391 O388 1.244 . S
C391 O389 1.240 . S
H392 C366 0.931 . S
H393 C375 0.931 . S
H394 C379 0.929 . S
H395 C381 0.930 . S
Co396 N400 2.148 . S
Co396 N406 2.128 . S
Co396 N416 2.194 . S
Co396 O421 2.351 . S
Co396 O422 2.155 . S
Co396 O423 2.096 . S
C397 N400 1.301 . S
C397 N401 1.328 . S
C397 H402 0.930 . S
C398 C399 1.333 . S
C398 N400 1.317 . S
C398 H403 0.930 . S
C399 C398 1.333 . S
C399 N401 1.350 . S
C399 H425 0.931 . S
N400 Co396 2.148 . S
N400 C397 1.301 . S
N400 C398 1.317 . S
N401 C397 1.328 . S
N401 C399 1.350 . S
H402 C397 0.930 . S
H403 C398 0.930 . S
C404 O405 1.224 . S
C404 O423 1.247 . S
O405 C404 1.224 . S
N406 Co396 2.128 . S
N406 C407 1.355 . S
N406 C409 1.311 . S
C407 N406 1.355 . S
C407 C408 1.363 . S
C407 H419 0.929 . S
C408 C407 1.363 . S
C408 N410 1.375 . S
C408 H426 0.931 . S
C409 N406 1.311 . S
C409 N410 1.347 . S
C409 H420 0.929 . S
N410 C408 1.375 . S
N410 C409 1.347 . S
C411 C414 1.365 . S
C411 N416 1.328 . S
C411 H417 0.929 . S
C412 C413 1.362 . S
C412 C415 1.378 . S
C412 H427 0.929 . S
C413 C412 1.362 . S
C413 C414 1.366 . S
C414 C411 1.365 . S
C414 C413 1.366 . S
C414 H428 0.930 . S
C415 C412 1.378 . S
C415 N416 1.315 . S
C415 H418 0.930 . S
N416 Co396 2.194 . S
N416 C411 1.328 . S
N416 C415 1.315 . S
H417 C411 0.929 . S
H418 C415 0.930 . S
H419 C407 0.929 . S
H420 C409 0.929 . S
O421 Co396 2.351 . S
O421 C424 1.244 . S
O422 Co396 2.155 . S
O422 C424 1.240 . S
O423 Co396 2.096 . S
O423 C404 1.247 . S
C424 O421 1.244 . S
C424 O422 1.240 . S
H425 C399 0.931 . S
H426 C408 0.931 . S
H427 C412 0.929 . S
H428 C414 0.930 . S
Co429 N433 2.148 . S
Co429 N439 2.128 . S
Co429 N449 2.194 . S
Co429 O454 2.351 . S
Co429 O455 2.155 . S
Co429 O456 2.096 . S
C430 N433 1.301 . S
C430 N434 1.328 . S
C430 H435 0.930 . S
C431 C432 1.333 . S
C431 N433 1.317 . S
C431 H436 0.930 . S
C432 C431 1.333 . S
C432 N434 1.350 . S
C432 H458 0.931 . S
N433 Co429 2.148 . S
N433 C430 1.301 . S
N433 C431 1.317 . S
N434 C430 1.328 . S
N434 C432 1.350 . S
H435 C430 0.930 . S
H436 C431 0.930 . S
C437 O438 1.224 . S
C437 O456 1.247 . S
O438 C437 1.224 . S
N439 Co429 2.128 . S
N439 C440 1.355 . S
N439 C442 1.311 . S
C440 N439 1.355 . S
C440 C441 1.363 . S
C440 H452 0.929 . S
C441 C440 1.363 . S
C441 N443 1.375 . S
C441 H459 0.931 . S
C442 N439 1.311 . S
C442 N443 1.347 . S
C442 H453 0.929 . S
N443 C441 1.375 . S
N443 C442 1.347 . S
C444 C447 1.365 1_565 S
C444 N449 1.328 . S
C444 H450 0.929 . S
C445 C446 1.362 1_565 S
C445 C448 1.378 . S
C445 H460 0.929 1_565 S
C446 C445 1.362 1_545 S
C446 C447 1.366 . S
C447 C444 1.365 1_545 S
C447 C446 1.366 . S
C447 H461 0.930 . S
C448 C445 1.378 . S
C448 N449 1.315 . S
C448 H451 0.930 . S
N449 Co429 2.194 . S
N449 C444 1.328 . S
N449 C448 1.315 . S
H450 C444 0.929 . S
H451 C448 0.930 . S
H452 C440 0.929 . S
H453 C442 0.929 . S
O454 Co429 2.351 . S
O454 C457 1.244 . S
O455 Co429 2.155 . S
O455 C457 1.240 . S
O456 Co429 2.096 . S
O456 C437 1.247 . S
C457 O454 1.244 . S
C457 O455 1.240 . S
H458 C432 0.931 . S
H459 C441 0.931 . S
H460 C445 0.929 1_545 S
H461 C447 0.930 . S
Co462 N466 2.148 . S
Co462 N472 2.128 1_556 S
Co462 N482 2.194 1_556 S
Co462 O487 2.351 . S
Co462 O488 2.155 . S
Co462 O489 2.096 . S
C463 N466 1.301 . S
C463 N467 1.328 . S
C463 H468 0.930 . S
C464 C465 1.333 . S
C464 N466 1.317 . S
C464 H469 0.930 . S
C465 C464 1.333 . S
C465 N467 1.350 . S
C465 H491 0.931 . S
N466 Co462 2.148 . S
N466 C463 1.301 . S
N466 C464 1.317 . S
N467 C463 1.328 . S
N467 C465 1.350 . S
H468 C463 0.930 . S
H469 C464 0.930 . S
C470 O471 1.224 . S
C470 O489 1.247 1_554 S
O471 C470 1.224 . S
N472 Co462 2.128 1_554 S
N472 C473 1.355 . S
N472 C475 1.311 . S
C473 N472 1.355 . S
C473 C474 1.363 . S
C473 H485 0.929 . S
C474 C473 1.363 . S
C474 N476 1.375 . S
C474 H492 0.931 . S
C475 N472 1.311 . S
C475 N476 1.347 . S
C475 H486 0.929 . S
N476 C474 1.375 . S
N476 C475 1.347 . S
C477 C480 1.365 . S
C477 N482 1.328 . S
C477 H483 0.929 1_554 S
C478 C479 1.362 . S
C478 C481 1.378 . S
C478 H493 0.929 . S
C479 C478 1.362 . S
C479 C480 1.366 . S
C480 C477 1.365 . S
C480 C479 1.366 . S
C480 H494 0.930 . S
C481 C478 1.378 . S
C481 N482 1.315 . S
C481 H484 0.930 . S
N482 Co462 2.194 1_554 S
N482 C477 1.328 . S
N482 C481 1.315 . S
H483 C477 0.929 1_556 S
H484 C481 0.930 . S
H485 C473 0.929 . S
H486 C475 0.929 . S
O487 Co462 2.351 . S
O487 C490 1.244 . S
O488 Co462 2.155 . S
O488 C490 1.240 . S
O489 Co462 2.096 . S
O489 C470 1.247 1_556 S
C490 O487 1.244 . S
C490 O488 1.240 . S
H491 C465 0.931 . S
H492 C474 0.931 . S
H493 C478 0.929 . S
H494 C480 0.930 . S
Co495 N499 2.148 . S
Co495 N505 2.128 . S
Co495 N515 2.194 . S
Co495 O520 2.351 . S
Co495 O521 2.155 . S
Co495 O522 2.096 . S
C496 N499 1.301 . S
C496 N500 1.328 . S
C496 H501 0.930 . S
C497 C498 1.333 . S
C497 N499 1.317 . S
C497 H502 0.930 . S
C498 C497 1.333 . S
C498 N500 1.350 . S
C498 H524 0.931 . S
N499 Co495 2.148 . S
N499 C496 1.301 . S
N499 C497 1.317 . S
N500 C496 1.328 . S
N500 C498 1.350 . S
H501 C496 0.930 . S
H502 C497 0.930 . S
C503 O504 1.224 . S
C503 O522 1.247 . S
O504 C503 1.224 . S
N505 Co495 2.128 . S
N505 C506 1.355 . S
N505 C508 1.311 . S
C506 N505 1.355 . S
C506 C507 1.363 . S
C506 H518 0.929 . S
C507 C506 1.363 . S
C507 N509 1.375 . S
C507 H525 0.931 . S
C508 N505 1.311 . S
C508 N509 1.347 . S
C508 H519 0.929 . S
N509 C507 1.375 . S
N509 C508 1.347 . S
C510 C513 1.365 1_545 S
C510 N515 1.328 . S
C510 H516 0.929 . S
C511 C512 1.362 1_545 S
C511 C514 1.378 . S
C511 H526 0.929 1_545 S
C512 C511 1.362 1_565 S
C512 C513 1.366 . S
C513 C510 1.365 1_565 S
C513 C512 1.366 . S
C513 H527 0.930 . S
C514 C511 1.378 . S
C514 N515 1.315 . S
C514 H517 0.930 . S
N515 Co495 2.194 . S
N515 C510 1.328 . S
N515 C514 1.315 . S
H516 C510 0.929 . S
H517 C514 0.930 . S
H518 C506 0.929 . S
H519 C508 0.929 . S
O520 Co495 2.351 . S
O520 C523 1.244 . S
O521 Co495 2.155 . S
O521 C523 1.240 . S
O522 Co495 2.096 . S
O522 C503 1.247 . S
C523 O520 1.244 . S
C523 O521 1.240 . S
H524 C498 0.931 . S
H525 C507 0.931 . S
H526 C511 0.929 1_565 S
H527 C513 0.930 . S
C528 C529 1.391 . S
C528 C530 1.394 . S
C528 H544 0.931 . S
C529 C528 1.391 . S
C529 C533 1.376 . S
C530 C528 1.394 . S
C530 C531 1.369 . S
C530 C534 1.531 . S
C531 C530 1.369 . S
C531 C532 1.410 . S
C531 C539 1.503 . S
C532 C531 1.410 . S
C532 C533 1.392 . S
C532 C535 1.511 . S
C533 C529 1.376 . S
C533 C532 1.392 . S
C533 H545 0.929 . S
C534 C530 1.531 . S
C534 H546 0.960 . S
C534 H547 0.962 . S
C534 H548 0.960 . S
C535 C532 1.511 . S
C535 H549 0.961 . S
C535 H550 0.961 . S
C535 H551 0.961 . S
C536 C537 1.370 . S
C536 C538 1.363 . S
C536 H552 0.931 . S
C537 C536 1.370 . S
C537 C541 1.408 . S
C538 C536 1.363 . S
C538 C539 1.370 . S
C538 C542 1.524 . S
C539 C531 1.503 . S
C539 C538 1.370 . S
C539 C540 1.403 . S
C540 C539 1.403 . S
C540 C541 1.404 . S
C540 C543 1.539 . S
C541 C537 1.408 . S
C541 C540 1.404 . S
C541 H553 0.930 . S
C542 C538 1.524 . S
C542 H554 0.956 . S
C542 H555 0.961 . S
C542 H556 0.961 . S
C543 C540 1.539 . S
C543 H557 0.958 . S
C543 H558 0.961 . S
C543 H559 0.960 . S
H544 C528 0.931 . S
H545 C533 0.929 . S
H546 C534 0.960 . S
H547 C534 0.962 . S
H548 C534 0.960 . S
H549 C535 0.961 . S
H550 C535 0.961 . S
H551 C535 0.961 . S
H552 C536 0.931 . S
H553 C541 0.930 . S
H554 C542 0.956 . S
H555 C542 0.961 . S
H556 C542 0.961 . S
H557 C543 0.958 . S
H558 C543 0.961 . S
H559 C543 0.960 . S
C560 C561 1.391 . S
C560 C562 1.394 . S
C560 H576 0.931 . S
C561 C560 1.391 . S
C561 C565 1.376 . S
C562 C560 1.394 . S
C562 C563 1.369 . S
C562 C566 1.531 . S
C563 C562 1.369 . S
C563 C564 1.410 . S
C563 C571 1.503 . S
C564 C563 1.410 . S
C564 C565 1.392 . S
C564 C567 1.511 . S
C565 C561 1.376 . S
C565 C564 1.392 . S
C565 H577 0.929 . S
C566 C562 1.531 . S
C566 H578 0.960 . S
C566 H579 0.962 . S
C566 H580 0.960 . S
C567 C564 1.511 . S
C567 H581 0.961 . S
C567 H582 0.961 . S
C567 H583 0.961 . S
C568 C569 1.370 . S
C568 C570 1.363 . S
C568 H584 0.931 . S
C569 C568 1.370 . S
C569 C573 1.408 . S
C570 C568 1.363 . S
C570 C571 1.370 . S
C570 C574 1.524 . S
C571 C563 1.503 . S
C571 C570 1.370 . S
C571 C572 1.403 . S
C572 C571 1.403 . S
C572 C573 1.404 . S
C572 C575 1.539 . S
C573 C569 1.408 . S
C573 C572 1.404 . S
C573 H585 0.930 1_554 S
C574 C570 1.524 . S
C574 H586 0.956 . S
C574 H587 0.961 . S
C574 H588 0.961 . S
C575 C572 1.539 . S
C575 H589 0.958 . S
C575 H590 0.961 1_554 S
C575 H591 0.960 . S
H576 C560 0.931 . S
H577 C565 0.929 . S
H578 C566 0.960 . S
H579 C566 0.962 . S
H580 C566 0.960 . S
H581 C567 0.961 . S
H582 C567 0.961 . S
H583 C567 0.961 . S
H584 C568 0.931 . S
H585 C573 0.930 1_556 S
H586 C574 0.956 . S
H587 C574 0.961 . S
H588 C574 0.961 . S
H589 C575 0.958 . S
H590 C575 0.961 1_556 S
H591 C575 0.960 . S
C592 C593 1.391 . S
C592 C594 1.394 . S
C592 H608 0.931 . S
C593 C592 1.391 . S
C593 C597 1.376 . S
C594 C592 1.394 . S
C594 C595 1.369 . S
C594 C598 1.531 . S
C595 C594 1.369 . S
C595 C596 1.410 . S
C595 C603 1.503 . S
C596 C595 1.410 . S
C596 C597 1.392 . S
C596 C599 1.511 . S
C597 C593 1.376 . S
C597 C596 1.392 . S
C597 H609 0.929 . S
C598 C594 1.531 . S
C598 H610 0.960 . S
C598 H611 0.962 . S
C598 H612 0.960 . S
C599 C596 1.511 . S
C599 H613 0.961 . S
C599 H614 0.961 . S
C599 H615 0.961 . S
C600 C601 1.370 . S
C600 C602 1.363 1_655 S
C600 H616 0.931 . S
C601 C600 1.370 . S
C601 C605 1.408 1_655 S
C602 C600 1.363 1_455 S
C602 C603 1.370 . S
C602 C606 1.524 . S
C603 C595 1.503 . S
C603 C602 1.370 . S
C603 C604 1.403 . S
C604 C603 1.403 . S
C604 C605 1.404 . S
C604 C607 1.539 . S
C605 C601 1.408 1_455 S
C605 C604 1.404 . S
C605 H617 0.930 . S
C606 C602 1.524 . S
C606 H618 0.956 . S
C606 H619 0.961 . S
C606 H620 0.961 . S
C607 C604 1.539 . S
C607 H621 0.958 . S
C607 H622 0.961 . S
C607 H623 0.960 . S
H608 C592 0.931 . S
H609 C597 0.929 . S
H610 C598 0.960 . S
H611 C598 0.962 . S
H612 C598 0.960 . S
H613 C599 0.961 . S
H614 C599 0.961 . S
H615 C599 0.961 . S
H616 C600 0.931 . S
H617 C605 0.930 . S
H618 C606 0.956 . S
H619 C606 0.961 . S
H620 C606 0.961 . S
H621 C607 0.958 . S
H622 C607 0.961 . S
H623 C607 0.960 . S
C624 C625 1.391 . S
C624 C626 1.394 . S
C624 H640 0.931 . S
C625 C624 1.391 . S
C625 C629 1.376 . S
C626 C624 1.394 . S
C626 C627 1.369 . S
C626 C630 1.531 . S
C627 C626 1.369 . S
C627 C628 1.410 . S
C627 C635 1.503 . S
C628 C627 1.410 . S
C628 C629 1.392 . S
C628 C631 1.511 . S
C629 C625 1.376 . S
C629 C628 1.392 . S
C629 H641 0.929 . S
C630 C626 1.531 . S
C630 H642 0.960 . S
C630 H643 0.962 . S
C630 H644 0.960 . S
C631 C628 1.511 . S
C631 H645 0.961 . S
C631 H646 0.961 . S
C631 H647 0.961 . S
C632 C633 1.370 . S
C632 C634 1.363 . S
C632 H648 0.931 . S
C633 C632 1.370 . S
C633 C637 1.408 . S
C634 C632 1.363 . S
C634 C635 1.370 . S
C634 C638 1.524 . S
C635 C627 1.503 . S
C635 C634 1.370 . S
C635 C636 1.403 . S
C636 C635 1.403 . S
C636 C637 1.404 . S
C636 C639 1.539 . S
C637 C633 1.408 . S
C637 C636 1.404 . S
C637 H649 0.930 . S
C638 C634 1.524 . S
C638 H650 0.956 . S
C638 H651 0.961 . S
C638 H652 0.961 . S
C639 C636 1.539 . S
C639 H653 0.958 . S
C639 H654 0.961 . S
C639 H655 0.960 . S
H640 C624 0.931 . S
H641 C629 0.929 . S
H642 C630 0.960 . S
H643 C630 0.962 . S
H644 C630 0.960 . S
H645 C631 0.961 . S
H646 C631 0.961 . S
H647 C631 0.961 . S
H648 C632 0.931 . S
H649 C637 0.930 . S
H650 C638 0.956 . S
H651 C638 0.961 . S
H652 C638 0.961 . S
H653 C639 0.958 . S
H654 C639 0.961 . S
H655 C639 0.960 . S
C656 C657 1.391 . S
C656 C658 1.394 . S
C656 H672 0.931 . S
C657 C656 1.391 . S
C657 C661 1.376 . S
C658 C656 1.394 . S
C658 C659 1.369 . S
C658 C662 1.531 . S
C659 C658 1.369 . S
C659 C660 1.410 . S
C659 C667 1.503 . S
C660 C659 1.410 . S
C660 C661 1.392 . S
C660 C663 1.511 . S
C661 C657 1.376 . S
C661 C660 1.392 . S
C661 H673 0.929 . S
C662 C658 1.531 . S
C662 H674 0.960 . S
C662 H675 0.962 . S
C662 H676 0.960 . S
C663 C660 1.511 . S
C663 H677 0.961 . S
C663 H678 0.961 . S
C663 H679 0.961 . S
C664 C665 1.370 . S
C664 C666 1.363 . S
C664 H680 0.931 . S
C665 C664 1.370 . S
C665 C669 1.408 . S
C666 C664 1.363 . S
C666 C667 1.370 . S
C666 C670 1.524 . S
C667 C659 1.503 . S
C667 C666 1.370 . S
C667 C668 1.403 . S
C668 C667 1.403 . S
C668 C669 1.404 . S
C668 C671 1.539 . S
C669 C665 1.408 . S
C669 C668 1.404 . S
C669 H681 0.930 . S
C670 C666 1.524 . S
C670 H682 0.956 . S
C670 H683 0.961 . S
C670 H684 0.961 . S
C671 C668 1.539 . S
C671 H685 0.958 . S
C671 H686 0.961 . S
C671 H687 0.960 . S
H672 C656 0.931 . S
H673 C661 0.929 . S
H674 C662 0.960 . S
H675 C662 0.962 . S
H676 C662 0.960 . S
H677 C663 0.961 . S
H678 C663 0.961 . S
H679 C663 0.961 . S
H680 C664 0.931 . S
H681 C669 0.930 . S
H682 C670 0.956 . S
H683 C670 0.961 . S
H684 C670 0.961 . S
H685 C671 0.958 . S
H686 C671 0.961 . S
H687 C671 0.960 . S
C688 C689 1.391 . S
C688 C690 1.394 . S
C688 H704 0.931 1_556 S
C689 C688 1.391 . S
C689 C693 1.376 . S
C690 C688 1.394 . S
C690 C691 1.369 . S
C690 C694 1.531 . S
C691 C690 1.369 . S
C691 C692 1.410 . S
C691 C699 1.503 . S
C692 C691 1.410 . S
C692 C693 1.392 . S
C692 C695 1.511 . S
C693 C689 1.376 . S
C693 C692 1.392 . S
C693 H705 0.929 . S
C694 C690 1.531 . S
C694 H706 0.960 . S
C694 H707 0.962 . S
C694 H708 0.960 1_556 S
C695 C692 1.511 . S
C695 H709 0.961 . S
C695 H710 0.961 . S
C695 H711 0.961 . S
C696 C697 1.370 . S
C696 C698 1.363 . S
C696 H712 0.931 . S
C697 C696 1.370 . S
C697 C701 1.408 . S
C698 C696 1.363 . S
C698 C699 1.370 . S
C698 C702 1.524 . S
C699 C691 1.503 . S
C699 C698 1.370 . S
C699 C700 1.403 . S
C700 C699 1.403 . S
C700 C701 1.404 . S
C700 C703 1.539 . S
C701 C697 1.408 . S
C701 C700 1.404 . S
C701 H713 0.930 . S
C702 C698 1.524 . S
C702 H714 0.956 . S
C702 H715 0.961 . S
C702 H716 0.961 . S
C703 C700 1.539 . S
C703 H717 0.958 1_556 S
C703 H718 0.961 . S
C703 H719 0.960 . S
H704 C688 0.931 1_554 S
H705 C693 0.929 . S
H706 C694 0.960 . S
H707 C694 0.962 . S
H708 C694 0.960 1_554 S
H709 C695 0.961 . S
H710 C695 0.961 . S
H711 C695 0.961 . S
H712 C696 0.931 . S
H713 C701 0.930 . S
H714 C702 0.956 . S
H715 C702 0.961 . S
H716 C702 0.961 . S
H717 C703 0.958 1_554 S
H718 C703 0.961 . S
H719 C703 0.960 . S
C720 C721 1.391 . S
C720 C722 1.394 . S
C720 H736 0.931 . S
C721 C720 1.391 . S
C721 C725 1.376 . S
C722 C720 1.394 . S
C722 C723 1.369 . S
C722 C726 1.531 . S
C723 C722 1.369 . S
C723 C724 1.410 . S
C723 C731 1.503 . S
C724 C723 1.410 . S
C724 C725 1.392 . S
C724 C727 1.511 . S
C725 C721 1.376 . S
C725 C724 1.392 . S
C725 H737 0.929 . S
C726 C722 1.531 . S
C726 H738 0.960 . S
C726 H739 0.962 . S
C726 H740 0.960 . S
C727 C724 1.511 . S
C727 H741 0.961 . S
C727 H742 0.961 . S
C727 H743 0.961 . S
C728 C729 1.370 . S
C728 C730 1.363 . S
C728 H744 0.931 . S
C729 C728 1.370 . S
C729 C733 1.408 . S
C730 C728 1.363 . S
C730 C731 1.370 . S
C730 C734 1.524 . S
C731 C723 1.503 . S
C731 C730 1.370 . S
C731 C732 1.403 . S
C732 C731 1.403 . S
C732 C733 1.404 . S
C732 C735 1.539 . S
C733 C729 1.408 . S
C733 C732 1.404 . S
C733 H745 0.930 . S
C734 C730 1.524 . S
C734 H746 0.956 . S
C734 H747 0.961 . S
C734 H748 0.961 . S
C735 C732 1.539 . S
C735 H749 0.958 . S
C735 H750 0.961 . S
C735 H751 0.960 . S
H736 C720 0.931 . S
H737 C725 0.929 . S
H738 C726 0.960 . S
H739 C726 0.962 . S
H740 C726 0.960 . S
H741 C727 0.961 . S
H742 C727 0.961 . S
H743 C727 0.961 . S
H744 C728 0.931 . S
H745 C733 0.930 . S
H746 C734 0.956 . S
H747 C734 0.961 . S
H748 C734 0.961 . S
H749 C735 0.958 . S
H750 C735 0.961 . S
H751 C735 0.960 . S
C752 C753 1.391 . S
C752 C754 1.394 . S
C752 H768 0.931 . S
C753 C752 1.391 . S
C753 C757 1.376 . S
C754 C752 1.394 . S
C754 C755 1.369 . S
C754 C758 1.531 . S
C755 C754 1.369 . S
C755 C756 1.410 . S
C755 C763 1.503 . S
C756 C755 1.410 . S
C756 C757 1.392 . S
C756 C759 1.511 . S
C757 C753 1.376 . S
C757 C756 1.392 . S
C757 H769 0.929 . S
C758 C754 1.531 . S
C758 H770 0.960 . S
C758 H771 0.962 . S
C758 H772 0.960 . S
C759 C756 1.511 . S
C759 H773 0.961 . S
C759 H774 0.961 . S
C759 H775 0.961 . S
C760 C761 1.370 . S
C760 C762 1.363 . S
C760 H776 0.931 . S
C761 C760 1.370 . S
C761 C765 1.408 . S
C762 C760 1.363 . S
C762 C763 1.370 . S
C762 C766 1.524 . S
C763 C755 1.503 . S
C763 C762 1.370 . S
C763 C764 1.403 . S
C764 C763 1.403 . S
C764 C765 1.404 . S
C764 C767 1.539 . S
C765 C761 1.408 . S
C765 C764 1.404 . S
C765 H777 0.930 . S
C766 C762 1.524 . S
C766 H778 0.956 . S
C766 H779 0.961 . S
C766 H780 0.961 . S
C767 C764 1.539 . S
C767 H781 0.958 . S
C767 H782 0.961 . S
C767 H783 0.960 . S
H768 C752 0.931 . S
H769 C757 0.929 . S
H770 C758 0.960 . S
H771 C758 0.962 . S
H772 C758 0.960 . S
H773 C759 0.961 . S
H774 C759 0.961 . S
H775 C759 0.961 . S
H776 C760 0.931 . S
H777 C765 0.930 . S
H778 C766 0.956 . S
H779 C766 0.961 . S
H780 C766 0.961 . S
H781 C767 0.958 . S
H782 C767 0.961 . S
H783 C767 0.960 . S
C784 C785 1.391 . S
C784 C786 1.394 . S
C784 H800 0.931 . S
C785 C784 1.391 . S
C785 C789 1.376 . S
C786 C784 1.394 . S
C786 C787 1.369 . S
C786 C790 1.531 . S
C787 C786 1.369 . S
C787 C788 1.410 . S
C787 C795 1.503 . S
C788 C787 1.410 . S
C788 C789 1.392 . S
C788 C791 1.511 . S
C789 C785 1.376 . S
C789 C788 1.392 . S
C789 H801 0.929 . S
C790 C786 1.531 . S
C790 H802 0.960 . S
C790 H803 0.962 . S
C790 H804 0.960 . S
C791 C788 1.511 . S
C791 H805 0.961 . S
C791 H806 0.961 . S
C791 H807 0.961 . S
C792 C793 1.370 . S
C792 C794 1.363 1_455 S
C792 H808 0.931 . S
C793 C792 1.370 . S
C793 C797 1.408 1_455 S
C794 C792 1.363 1_655 S
C794 C795 1.370 . S
C794 C798 1.524 . S
C795 C787 1.503 . S
C795 C794 1.370 . S
C795 C796 1.403 . S
C796 C795 1.403 . S
C796 C797 1.404 . S
C796 C799 1.539 . S
C797 C793 1.408 1_655 S
C797 C796 1.404 . S
C797 H809 0.930 . S
C798 C794 1.524 . S
C798 H810 0.956 . S
C798 H811 0.961 . S
C798 H812 0.961 1_655 S
C799 C796 1.539 . S
C799 H813 0.958 . S
C799 H814 0.961 . S
C799 H815 0.960 . S
H800 C784 0.931 . S
H801 C789 0.929 . S
H802 C790 0.960 . S
H803 C790 0.962 . S
H804 C790 0.960 . S
H805 C791 0.961 . S
H806 C791 0.961 . S
H807 C791 0.961 . S
H808 C792 0.931 . S
H809 C797 0.930 . S
H810 C798 0.956 . S
H811 C798 0.961 . S
H812 C798 0.961 1_455 S
H813 C799 0.958 . S
H814 C799 0.961 . S
H815 C799 0.960 . S
C816 C817 1.391 . S
C816 C818 1.394 . S
C816 H832 0.931 . S
C817 C816 1.391 . S
C817 C821 1.376 . S
C818 C816 1.394 . S
C818 C819 1.369 . S
C818 C822 1.531 . S
C819 C818 1.369 . S
C819 C820 1.410 . S
C819 C827 1.503 . S
C820 C819 1.410 . S
C820 C821 1.392 . S
C820 C823 1.511 . S
C821 C817 1.376 . S
C821 C820 1.392 . S
C821 H833 0.929 . S
C822 C818 1.531 . S
C822 H834 0.960 . S
C822 H835 0.962 . S
C822 H836 0.960 . S
C823 C820 1.511 . S
C823 H837 0.961 . S
C823 H838 0.961 . S
C823 H839 0.961 . S
C824 C825 1.370 . S
C824 C826 1.363 . S
C824 H840 0.931 . S
C825 C824 1.370 . S
C825 C829 1.408 . S
C826 C824 1.363 . S
C826 C827 1.370 . S
C826 C830 1.524 . S
C827 C819 1.503 . S
C827 C826 1.370 . S
C827 C828 1.403 . S
C828 C827 1.403 . S
C828 C829 1.404 . S
C828 C831 1.539 . S
C829 C825 1.408 . S
C829 C828 1.404 . S
C829 H841 0.930 . S
C830 C826 1.524 . S
C830 H842 0.956 . S
C830 H843 0.961 . S
C830 H844 0.961 . S
C831 C828 1.539 . S
C831 H845 0.958 . S
C831 H846 0.961 . S
C831 H847 0.960 . S
H832 C816 0.931 . S
H833 C821 0.929 . S
H834 C822 0.960 . S
H835 C822 0.962 . S
H836 C822 0.960 . S
H837 C823 0.961 . S
H838 C823 0.961 . S
H839 C823 0.961 . S
H840 C824 0.931 . S
H841 C829 0.930 . S
H842 C830 0.956 . S
H843 C830 0.961 . S
H844 C830 0.961 . S
H845 C831 0.958 . S
H846 C831 0.961 . S
H847 C831 0.960 . S
C848 C849 1.391 . S
C848 C850 1.394 . S
C848 H864 0.931 . S
C849 C848 1.391 . S
C849 C853 1.376 . S
C850 C848 1.394 . S
C850 C851 1.369 . S
C850 C854 1.531 . S
C851 C850 1.369 . S
C851 C852 1.410 . S
C851 C859 1.503 . S
C852 C851 1.410 . S
C852 C853 1.392 . S
C852 C855 1.511 . S
C853 C849 1.376 . S
C853 C852 1.392 . S
C853 H865 0.929 . S
C854 C850 1.531 . S
C854 H866 0.960 . S
C854 H867 0.962 . S
C854 H868 0.960 . S
C855 C852 1.511 . S
C855 H869 0.961 . S
C855 H870 0.961 . S
C855 H871 0.961 . S
C856 C857 1.370 . S
C856 C858 1.363 . S
C856 H872 0.931 . S
C857 C856 1.370 . S
C857 C861 1.408 . S
C858 C856 1.363 . S
C858 C859 1.370 . S
C858 C862 1.524 . S
C859 C851 1.503 . S
C859 C858 1.370 . S
C859 C860 1.403 . S
C860 C859 1.403 . S
C860 C861 1.404 . S
C860 C863 1.539 . S
C861 C857 1.408 . S
C861 C860 1.404 . S
C861 H873 0.930 . S
C862 C858 1.524 . S
C862 H874 0.956 . S
C862 H875 0.961 . S
C862 H876 0.961 . S
C863 C860 1.539 . S
C863 H877 0.958 . S
C863 H878 0.961 . S
C863 H879 0.960 . S
H864 C848 0.931 . S
H865 C853 0.929 . S
H866 C854 0.960 . S
H867 C854 0.962 . S
H868 C854 0.960 . S
H869 C855 0.961 . S
H870 C855 0.961 . S
H871 C855 0.961 . S
H872 C856 0.931 . S
H873 C861 0.930 . S
H874 C862 0.956 . S
H875 C862 0.961 . S
H876 C862 0.961 . S
H877 C863 0.958 . S
H878 C863 0.961 . S
H879 C863 0.960 . S
C880 C881 1.391 . S
C880 C882 1.394 . S
C880 H896 0.931 . S
C881 C880 1.391 . S
C881 C885 1.376 . S
C882 C880 1.394 . S
C882 C883 1.369 . S
C882 C886 1.531 . S
C883 C882 1.369 . S
C883 C884 1.410 . S
C883 C891 1.503 . S
C884 C883 1.410 . S
C884 C885 1.392 . S
C884 C887 1.511 . S
C885 C881 1.376 . S
C885 C884 1.392 . S
C885 H897 0.929 . S
C886 C882 1.531 . S
C886 H898 0.960 . S
C886 H899 0.962 . S
C886 H900 0.960 . S
C887 C884 1.511 . S
C887 H901 0.961 . S
C887 H902 0.961 . S
C887 H903 0.961 . S
C888 C889 1.370 . S
C888 C890 1.363 . S
C888 H904 0.931 1_554 S
C889 C888 1.370 . S
C889 C893 1.408 . S
C890 C888 1.363 . S
C890 C891 1.370 . S
C890 C894 1.524 . S
C891 C883 1.503 . S
C891 C890 1.370 . S
C891 C892 1.403 . S
C892 C891 1.403 . S
C892 C893 1.404 . S
C892 C895 1.539 . S
C893 C889 1.408 . S
C893 C892 1.404 . S
C893 H905 0.930 . S
C894 C890 1.524 . S
C894 H906 0.956 . S
C894 H907 0.961 . S
C894 H908 0.961 1_554 S
C895 C892 1.539 . S
C895 H909 0.958 . S
C895 H910 0.961 . S
C895 H911 0.960 . S
H896 C880 0.931 . S
H897 C885 0.929 . S
H898 C886 0.960 . S
H899 C886 0.962 . S
H900 C886 0.960 . S
H901 C887 0.961 . S
H902 C887 0.961 . S
H903 C887 0.961 . S
H904 C888 0.931 1_556 S
H905 C893 0.930 . S
H906 C894 0.956 . S
H907 C894 0.961 . S
H908 C894 0.961 1_556 S
H909 C895 0.958 . S
H910 C895 0.961 . S
H911 C895 0.960 . S
C912 C913 1.391 . S
C912 C914 1.394 . S
C912 H928 0.931 . S
C913 C912 1.391 . S
C913 C917 1.376 . S
C914 C912 1.394 . S
C914 C915 1.369 . S
C914 C918 1.531 . S
C915 C914 1.369 . S
C915 C916 1.410 . S
C915 C923 1.503 . S
C916 C915 1.410 . S
C916 C917 1.392 . S
C916 C919 1.511 . S
C917 C913 1.376 . S
C917 C916 1.392 . S
C917 H929 0.929 . S
C918 C914 1.531 . S
C918 H930 0.960 . S
C918 H931 0.962 . S
C918 H932 0.960 . S
C919 C916 1.511 . S
C919 H933 0.961 . S
C919 H934 0.961 . S
C919 H935 0.961 . S
C920 C921 1.370 . S
C920 C922 1.363 . S
C920 H936 0.931 . S
C921 C920 1.370 . S
C921 C925 1.408 . S
C922 C920 1.363 . S
C922 C923 1.370 . S
C922 C926 1.524 . S
C923 C915 1.503 . S
C923 C922 1.370 . S
C923 C924 1.403 . S
C924 C923 1.403 . S
C924 C925 1.404 . S
C924 C927 1.539 . S
C925 C921 1.408 . S
C925 C924 1.404 . S
C925 H937 0.930 . S
C926 C922 1.524 . S
C926 H938 0.956 . S
C926 H939 0.961 . S
C926 H940 0.961 . S
C927 C924 1.539 . S
C927 H941 0.958 . S
C927 H942 0.961 . S
C927 H943 0.960 . S
H928 C912 0.931 . S
H929 C917 0.929 . S
H930 C918 0.960 . S
H931 C918 0.962 . S
H932 C918 0.960 . S
H933 C919 0.961 . S
H934 C919 0.961 . S
H935 C919 0.961 . S
H936 C920 0.931 . S
H937 C925 0.930 . S
H938 C926 0.956 . S
H939 C926 0.961 . S
H940 C926 0.961 . S
H941 C927 0.958 . S
H942 C927 0.961 . S
H943 C927 0.960 . S
C944 C945 1.391 . S
C944 C946 1.394 . S
C944 H960 0.931 . S
C945 C944 1.391 . S
C945 C949 1.376 . S
C946 C944 1.394 . S
C946 C947 1.369 . S
C946 C950 1.531 . S
C947 C946 1.369 . S
C947 C948 1.410 . S
C947 C955 1.503 . S
C948 C947 1.410 . S
C948 C949 1.392 . S
C948 C951 1.511 . S
C949 C945 1.376 . S
C949 C948 1.392 . S
C949 H961 0.929 . S
C950 C946 1.531 . S
C950 H962 0.960 . S
C950 H963 0.962 . S
C950 H964 0.960 . S
C951 C948 1.511 . S
C951 H965 0.961 . S
C951 H966 0.961 . S
C951 H967 0.961 . S
C952 C953 1.370 . S
C952 C954 1.363 . S
C952 H968 0.931 . S
C953 C952 1.370 . S
C953 C957 1.408 . S
C954 C952 1.363 . S
C954 C955 1.370 . S
C954 C958 1.524 . S
C955 C947 1.503 . S
C955 C954 1.370 . S
C955 C956 1.403 . S
C956 C955 1.403 . S
C956 C957 1.404 . S
C956 C959 1.539 . S
C957 C953 1.408 . S
C957 C956 1.404 . S
C957 H969 0.930 . S
C958 C954 1.524 . S
C958 H970 0.956 . S
C958 H971 0.961 . S
C958 H972 0.961 . S
C959 C956 1.539 . S
C959 H973 0.958 . S
C959 H974 0.961 . S
C959 H975 0.960 . S
H960 C944 0.931 . S
H961 C949 0.929 . S
H962 C950 0.960 . S
H963 C950 0.962 . S
H964 C950 0.960 . S
H965 C951 0.961 . S
H966 C951 0.961 . S
H967 C951 0.961 . S
H968 C952 0.931 . S
H969 C957 0.930 . S
H970 C958 0.956 . S
H971 C958 0.961 . S
H972 C958 0.961 . S
H973 C959 0.958 . S
H974 C959 0.961 . S
H975 C959 0.960 . S
C976 C977 1.391 . S
C976 C978 1.394 . S
C976 H992 0.931 . S
C977 C976 1.391 . S
C977 C981 1.376 . S
C978 C976 1.394 . S
C978 C979 1.369 . S
C978 C982 1.531 . S
C979 C978 1.369 . S
C979 C980 1.410 . S
C979 C987 1.503 . S
C980 C979 1.410 . S
C980 C981 1.392 . S
C980 C983 1.511 . S
C981 C977 1.376 . S
C981 C980 1.392 . S
C981 H993 0.929 . S
C982 C978 1.531 . S
C982 H994 0.960 . S
C982 H995 0.962 . S
C982 H996 0.960 . S
C983 C980 1.511 . S
C983 H997 0.961 . S
C983 H998 0.961 . S
C983 H999 0.961 . S
C984 C985 1.370 . S
C984 C986 1.363 . S
C984 H1000 0.931 . S
C985 C984 1.370 . S
C985 C989 1.408 . S
C986 C984 1.363 . S
C986 C987 1.370 . S
C986 C990 1.524 . S
C987 C979 1.503 . S
C987 C986 1.370 . S
C987 C988 1.403 . S
C988 C987 1.403 . S
C988 C989 1.404 . S
C988 C991 1.539 . S
C989 C985 1.408 . S
C989 C988 1.404 . S
C989 H1001 0.930 . S
C990 C986 1.524 . S
C990 H1002 0.956 . S
C990 H1003 0.961 . S
C990 H1004 0.961 . S
C991 C988 1.539 . S
C991 H1005 0.958 . S
C991 H1006 0.961 . S
C991 H1007 0.960 . S
H992 C976 0.931 . S
H993 C981 0.929 . S
H994 C982 0.960 . S
H995 C982 0.962 . S
H996 C982 0.960 . S
H997 C983 0.961 . S
H998 C983 0.961 . S
H999 C983 0.961 . S
H1000 C984 0.931 . S
H1001 C989 0.930 . S
H1002 C990 0.956 . S
H1003 C990 0.961 . S
H1004 C990 0.961 . S
H1005 C991 0.958 . S
H1006 C991 0.961 . S
H1007 C991 0.960 . S
C1008 C1009 1.391 . S
C1008 C1010 1.394 . S
C1008 H1024 0.931 . S
C1009 C1008 1.391 . S
C1009 C1013 1.376 . S
C1010 C1008 1.394 . S
C1010 C1011 1.369 . S
C1010 C1014 1.531 . S
C1011 C1010 1.369 . S
C1011 C1012 1.410 . S
C1011 C1019 1.503 . S
C1012 C1011 1.410 . S
C1012 C1013 1.392 . S
C1012 C1015 1.511 . S
C1013 C1009 1.376 . S
C1013 C1012 1.392 . S
C1013 H1025 0.929 . S
C1014 C1010 1.531 . S
C1014 H1026 0.960 . S
C1014 H1027 0.962 . S
C1014 H1028 0.960 . S
C1015 C1012 1.511 . S
C1015 H1029 0.961 . S
C1015 H1030 0.961 . S
C1015 H1031 0.961 . S
C1016 C1017 1.370 . S
C1016 C1018 1.363 . S
C1016 H1032 0.931 1_556 S
C1017 C1016 1.370 . S
C1017 C1021 1.408 . S
C1018 C1016 1.363 . S
C1018 C1019 1.370 . S
C1018 C1022 1.524 . S
C1019 C1011 1.503 . S
C1019 C1018 1.370 . S
C1019 C1020 1.403 . S
C1020 C1019 1.403 . S
C1020 C1021 1.404 . S
C1020 C1023 1.539 . S
C1021 C1017 1.408 . S
C1021 C1020 1.404 . S
C1021 H1033 0.930 . S
C1022 C1018 1.524 . S
C1022 H1034 0.956 . S
C1022 H1035 0.961 . S
C1022 H1036 0.961 . S
C1023 C1020 1.539 . S
C1023 H1037 0.958 . S
C1023 H1038 0.961 . S
C1023 H1039 0.960 . S
H1024 C1008 0.931 . S
H1025 C1013 0.929 . S
H1026 C1014 0.960 . S
H1027 C1014 0.962 . S
H1028 C1014 0.960 . S
H1029 C1015 0.961 . S
H1030 C1015 0.961 . S
H1031 C1015 0.961 . S
H1032 C1016 0.931 1_554 S
H1033 C1021 0.930 . S
H1034 C1022 0.956 . S
H1035 C1022 0.961 . S
H1036 C1022 0.961 . S
H1037 C1023 0.958 . S
H1038 C1023 0.961 . S
H1039 C1023 0.960 . S
C1040 C1041 1.391 . S
C1040 C1042 1.394 . S
C1040 H1056 0.931 . S
C1041 C1040 1.391 . S
C1041 C1045 1.376 . S
C1042 C1040 1.394 . S
C1042 C1043 1.369 . S
C1042 C1046 1.531 . S
C1043 C1042 1.369 . S
C1043 C1044 1.410 . S
C1043 C1051 1.503 . S
C1044 C1043 1.410 . S
C1044 C1045 1.392 . S
C1044 C1047 1.511 . S
C1045 C1041 1.376 . S
C1045 C1044 1.392 . S
C1045 H1057 0.929 . S
C1046 C1042 1.531 . S
C1046 H1058 0.960 . S
C1046 H1059 0.962 . S
C1046 H1060 0.960 . S
C1047 C1044 1.511 . S
C1047 H1061 0.961 . S
C1047 H1062 0.961 . S
C1047 H1063 0.961 . S
C1048 C1049 1.370 . S
C1048 C1050 1.363 . S
C1048 H1064 0.931 . S
C1049 C1048 1.370 . S
C1049 C1053 1.408 . S
C1050 C1048 1.363 . S
C1050 C1051 1.370 . S
C1050 C1054 1.524 . S
C1051 C1043 1.503 . S
C1051 C1050 1.370 . S
C1051 C1052 1.403 . S
C1052 C1051 1.403 . S
C1052 C1053 1.404 . S
C1052 C1055 1.539 . S
C1053 C1049 1.408 . S
C1053 C1052 1.404 . S
C1053 H1065 0.930 . S
C1054 C1050 1.524 . S
C1054 H1066 0.956 . S
C1054 H1067 0.961 . S
C1054 H1068 0.961 . S
C1055 C1052 1.539 . S
C1055 H1069 0.958 . S
C1055 H1070 0.961 . S
C1055 H1071 0.960 . S
H1056 C1040 0.931 . S
H1057 C1045 0.929 . S
H1058 C1046 0.960 . S
H1059 C1046 0.962 . S
H1060 C1046 0.960 . S
H1061 C1047 0.961 . S
H1062 C1047 0.961 . S
H1063 C1047 0.961 . S
H1064 C1048 0.931 . S
H1065 C1053 0.930 . S
H1066 C1054 0.956 . S
H1067 C1054 0.961 . S
H1068 C1054 0.961 . S
H1069 C1055 0.958 . S
H1070 C1055 0.961 . S
H1071 C1055 0.960 . S
C1072 C1073 1.391 . S
C1072 C1074 1.394 . S
C1072 H1088 0.931 . S
C1073 C1072 1.391 . S
C1073 C1077 1.376 . S
C1074 C1072 1.394 . S
C1074 C1075 1.369 . S
C1074 C1078 1.531 . S
C1075 C1074 1.369 . S
C1075 C1076 1.410 . S
C1075 C1083 1.503 . S
C1076 C1075 1.410 . S
C1076 C1077 1.392 . S
C1076 C1079 1.511 . S
C1077 C1073 1.376 . S
C1077 C1076 1.392 . S
C1077 H1089 0.929 . S
C1078 C1074 1.531 . S
C1078 H1090 0.960 . S
C1078 H1091 0.962 . S
C1078 H1092 0.960 . S
C1079 C1076 1.511 . S
C1079 H1093 0.961 . S
C1079 H1094 0.961 . S
C1079 H1095 0.961 . S
C1080 C1081 1.370 . S
C1080 C1082 1.363 . S
C1080 H1096 0.931 . S
C1081 C1080 1.370 . S
C1081 C1085 1.408 . S
C1082 C1080 1.363 . S
C1082 C1083 1.370 . S
C1082 C1086 1.524 . S
C1083 C1075 1.503 . S
C1083 C1082 1.370 . S
C1083 C1084 1.403 . S
C1084 C1083 1.403 . S
C1084 C1085 1.404 . S
C1084 C1087 1.539 . S
C1085 C1081 1.408 . S
C1085 C1084 1.404 . S
C1085 H1097 0.930 . S
C1086 C1082 1.524 . S
C1086 H1098 0.956 . S
C1086 H1099 0.961 . S
C1086 H1100 0.961 . S
C1087 C1084 1.539 . S
C1087 H1101 0.958 . S
C1087 H1102 0.961 . S
C1087 H1103 0.960 . S
H1088 C1072 0.931 . S
H1089 C1077 0.929 . S
H1090 C1078 0.960 . S
H1091 C1078 0.962 . S
H1092 C1078 0.960 . S
H1093 C1079 0.961 . S
H1094 C1079 0.961 . S
H1095 C1079 0.961 . S
H1096 C1080 0.931 . S
H1097 C1085 0.930 . S
H1098 C1086 0.956 . S
H1099 C1086 0.961 . S
H1100 C1086 0.961 . S
H1101 C1087 0.958 . S
H1102 C1087 0.961 . S
H1103 C1087 0.960 . S
C1104 C1105 1.391 . S
C1104 C1106 1.394 . S
C1104 H1120 0.931 . S
C1105 C1104 1.391 . S
C1105 C1109 1.376 . S
C1106 C1104 1.394 . S
C1106 C1107 1.369 . S
C1106 C1110 1.531 . S
C1107 C1106 1.369 . S
C1107 C1108 1.410 . S
C1107 C1115 1.503 . S
C1108 C1107 1.410 . S
C1108 C1109 1.392 . S
C1108 C1111 1.511 . S
C1109 C1105 1.376 . S
C1109 C1108 1.392 . S
C1109 H1121 0.929 . S
C1110 C1106 1.531 . S
C1110 H1122 0.960 . S
C1110 H1123 0.962 . S
C1110 H1124 0.960 . S
C1111 C1108 1.511 . S
C1111 H1125 0.961 . S
C1111 H1126 0.961 . S
C1111 H1127 0.961 . S
C1112 C1113 1.370 . S
C1112 C1114 1.363 . S
C1112 H1128 0.931 . S
C1113 C1112 1.370 . S
C1113 C1117 1.408 . S
C1114 C1112 1.363 . S
C1114 C1115 1.370 . S
C1114 C1118 1.524 . S
C1115 C1107 1.503 . S
C1115 C1114 1.370 . S
C1115 C1116 1.403 . S
C1116 C1115 1.403 . S
C1116 C1117 1.404 . S
C1116 C1119 1.539 . S
C1117 C1113 1.408 . S
C1117 C1116 1.404 . S
C1117 H1129 0.930 . S
C1118 C1114 1.524 . S
C1118 H1130 0.956 . S
C1118 H1131 0.961 . S
C1118 H1132 0.961 . S
C1119 C1116 1.539 . S
C1119 H1133 0.958 . S
C1119 H1134 0.961 . S
C1119 H1135 0.960 . S
H1120 C1104 0.931 . S
H1121 C1109 0.929 . S
H1122 C1110 0.960 . S
H1123 C1110 0.962 . S
H1124 C1110 0.960 . S
H1125 C1111 0.961 . S
H1126 C1111 0.961 . S
H1127 C1111 0.961 . S
H1128 C1112 0.931 . S
H1129 C1117 0.930 . S
H1130 C1118 0.956 . S
H1131 C1118 0.961 . S
H1132 C1118 0.961 . S
H1133 C1119 0.958 . S
H1134 C1119 0.961 . S
H1135 C1119 0.960 . S
C1136 C1137 1.391 . S
C1136 C1138 1.394 . S
C1136 H1152 0.931 . S
C1137 C1136 1.391 . S
C1137 C1141 1.376 1_655 S
C1138 C1136 1.394 . S
C1138 C1139 1.369 1_655 S
C1138 C1142 1.531 1_556 S
C1139 C1138 1.369 1_455 S
C1139 C1140 1.410 . S
C1139 C1147 1.503 1_556 S
C1140 C1139 1.410 . S
C1140 C1141 1.392 . S
C1140 C1143 1.511 . S
C1141 C1137 1.376 1_455 S
C1141 C1140 1.392 . S
C1141 H1153 0.929 . S
C1142 C1138 1.531 1_554 S
C1142 H1154 0.960 . S
C1142 H1155 0.962 . S
C1142 H1156 0.960 . S
C1143 C1140 1.511 . S
C1143 H1157 0.961 . S
C1143 H1158 0.961 . S
C1143 H1159 0.961 . S
C1144 C1145 1.370 . S
C1144 C1146 1.363 . S
C1144 H1160 0.931 . S
C1145 C1144 1.370 . S
C1145 C1149 1.408 . S
C1146 C1144 1.363 . S
C1146 C1147 1.370 . S
C1146 C1150 1.527 . S
C1147 C1139 1.503 1_554 S
C1147 C1146 1.370 . S
C1147 C1148 1.403 . S
C1148 C1147 1.403 . S
C1148 C1149 1.404 . S
C1148 C1151 1.539 . S
C1149 C1145 1.408 . S
C1149 C1148 1.404 . S
C1149 H1161 0.930 . S
C1150 C1146 1.527 . S
C1150 H1162 0.955 1_454 S
C1150 H1163 0.955 1_554 S
C1150 H1164 0.963 . S
C1151 C1148 1.539 . S
C1151 H1165 0.958 . S
C1151 H1166 0.961 . S
C1151 H1167 0.960 1_554 S
H1152 C1136 0.931 . S
H1153 C1141 0.929 . S
H1154 C1142 0.960 . S
H1155 C1142 0.962 . S
H1156 C1142 0.960 . S
H1157 C1143 0.961 . S
H1158 C1143 0.961 . S
H1159 C1143 0.961 . S
H1160 C1144 0.931 . S
H1161 C1149 0.930 . S
H1162 C1150 0.955 1_656 S
H1163 C1150 0.955 1_556 S
H1164 C1150 0.963 . S
H1165 C1151 0.958 . S
H1166 C1151 0.961 . S
H1167 C1151 0.960 1_556 S
C1168 C1169 1.391 . S
C1168 C1170 1.394 . S
C1168 H1184 0.931 . S
C1169 C1168 1.391 . S
C1169 C1173 1.376 . S
C1170 C1168 1.394 . S
C1170 C1171 1.369 . S
C1170 C1174 1.531 . S
C1171 C1170 1.369 . S
C1171 C1172 1.410 . S
C1171 C1179 1.503 . S
C1172 C1171 1.410 . S
C1172 C1173 1.392 . S
C1172 C1175 1.511 . S
C1173 C1169 1.376 . S
C1173 C1172 1.392 . S
C1173 H1185 0.929 . S
C1174 C1170 1.531 . S
C1174 H1186 0.960 . S
C1174 H1187 0.962 . S
C1174 H1188 0.960 . S
C1175 C1172 1.511 . S
C1175 H1189 0.961 . S
C1175 H1190 0.961 . S
C1175 H1191 0.961 . S
C1176 C1177 1.370 . S
C1176 C1178 1.363 . S
C1176 H1192 0.931 . S
C1177 C1176 1.370 . S
C1177 C1181 1.408 . S
C1178 C1176 1.363 . S
C1178 C1179 1.370 . S
C1178 C1182 1.524 . S
C1179 C1171 1.503 . S
C1179 C1178 1.370 . S
C1179 C1180 1.403 . S
C1180 C1179 1.403 . S
C1180 C1181 1.404 . S
C1180 C1183 1.539 . S
C1181 C1177 1.408 . S
C1181 C1180 1.404 . S
C1181 H1193 0.930 . S
C1182 C1178 1.524 . S
C1182 H1194 0.956 . S
C1182 H1195 0.961 . S
C1182 H1196 0.961 . S
C1183 C1180 1.539 . S
C1183 H1197 0.958 . S
C1183 H1198 0.961 . S
C1183 H1199 0.960 . S
H1184 C1168 0.931 . S
H1185 C1173 0.929 . S
H1186 C1174 0.960 . S
H1187 C1174 0.962 . S
H1188 C1174 0.960 . S
H1189 C1175 0.961 . S
H1190 C1175 0.961 . S
H1191 C1175 0.961 . S
H1192 C1176 0.931 . S
H1193 C1181 0.930 . S
H1194 C1182 0.956 . S
H1195 C1182 0.961 . S
H1196 C1182 0.961 . S
H1197 C1183 0.958 . S
H1198 C1183 0.961 . S
H1199 C1183 0.960 . S
C1200 C1201 1.391 . S
C1200 C1202 1.394 . S
C1200 H1216 0.931 . S
C1201 C1200 1.391 . S
C1201 C1205 1.376 . S
C1202 C1200 1.394 . S
C1202 C1203 1.369 . S
C1202 C1206 1.531 . S
C1203 C1202 1.369 . S
C1203 C1204 1.410 . S
C1203 C1211 1.503 . S
C1204 C1203 1.410 . S
C1204 C1205 1.392 . S
C1204 C1207 1.511 . S
C1205 C1201 1.376 . S
C1205 C1204 1.392 . S
C1205 H1217 0.929 . S
C1206 C1202 1.531 . S
C1206 H1218 0.960 . S
C1206 H1219 0.962 . S
C1206 H1220 0.960 . S
C1207 C1204 1.511 . S
C1207 H1221 0.961 . S
C1207 H1222 0.961 . S
C1207 H1223 0.961 . S
C1208 C1209 1.370 . S
C1208 C1210 1.363 . S
C1208 H1224 0.931 . S
C1209 C1208 1.370 . S
C1209 C1213 1.408 . S
C1210 C1208 1.363 . S
C1210 C1211 1.370 . S
C1210 C1214 1.524 . S
C1211 C1203 1.503 . S
C1211 C1210 1.370 . S
C1211 C1212 1.403 . S
C1212 C1211 1.403 . S
C1212 C1213 1.404 . S
C1212 C1215 1.539 . S
C1213 C1209 1.408 . S
C1213 C1212 1.404 . S
C1213 H1225 0.930 . S
C1214 C1210 1.524 . S
C1214 H1226 0.956 . S
C1214 H1227 0.961 . S
C1214 H1228 0.961 . S
C1215 C1212 1.539 . S
C1215 H1229 0.958 . S
C1215 H1230 0.961 . S
C1215 H1231 0.960 . S
H1216 C1200 0.931 . S
H1217 C1205 0.929 . S
H1218 C1206 0.960 . S
H1219 C1206 0.962 . S
H1220 C1206 0.960 . S
H1221 C1207 0.961 . S
H1222 C1207 0.961 . S
H1223 C1207 0.961 . S
H1224 C1208 0.931 . S
H1225 C1213 0.930 . S
H1226 C1214 0.956 . S
H1227 C1214 0.961 . S
H1228 C1214 0.961 . S
H1229 C1215 0.958 . S
H1230 C1215 0.961 . S
H1231 C1215 0.960 . S
C1232 C1233 1.391 . S
C1232 C1234 1.394 . S
C1232 H1248 0.931 . S
C1233 C1232 1.391 . S
C1233 C1237 1.376 1_565 S
C1234 C1232 1.394 . S
C1234 C1235 1.369 1_565 S
C1234 C1238 1.531 1_655 S
C1235 C1234 1.369 1_545 S
C1235 C1236 1.410 . S
C1235 C1243 1.503 1_554 S
C1236 C1235 1.410 . S
C1236 C1237 1.392 . S
C1236 C1239 1.511 1_554 S
C1237 C1233 1.376 1_545 S
C1237 C1236 1.392 . S
C1237 H1249 0.929 . S
C1238 C1234 1.531 1_455 S
C1238 H1250 0.960 1_554 S
C1238 H1251 0.992 . S
C1238 H1252 0.960 . S
C1239 C1236 1.511 1_556 S
C1239 H1253 0.961 1_556 S
C1239 H1254 0.961 . S
C1239 H1255 0.961 . S
C1240 C1241 1.370 . S
C1240 C1242 1.363 1_455 S
C1240 H1256 0.931 . S
C1241 C1240 1.370 . S
C1241 C1245 1.408 1_455 S
C1242 C1240 1.363 1_655 S
C1242 C1243 1.370 . S
C1242 C1246 1.526 1_556 S
C1243 C1235 1.503 1_556 S
C1243 C1242 1.370 . S
C1243 C1244 1.403 1_545 S
C1244 C1243 1.403 1_565 S
C1244 C1245 1.404 1_565 S
C1244 C1247 1.539 . S
C1245 C1241 1.408 1_655 S
C1245 C1244 1.404 1_545 S
C1245 H1257 0.930 1_545 S
C1246 C1242 1.526 1_554 S
C1246 H1258 0.927 1_655 S
C1246 H1259 1.006 . S
C1246 H1260 0.945 1_654 S
C1247 C1244 1.539 . S
C1247 H1261 0.958 . S
C1247 H1262 0.961 . S
C1247 H1263 0.960 . S
H1248 C1232 0.931 . S
H1249 C1237 0.929 . S
H1250 C1238 0.960 1_556 S
H1251 C1238 0.992 . S
H1252 C1238 0.960 . S
H1253 C1239 0.961 1_554 S
H1254 C1239 0.961 . S
H1255 C1239 0.961 . S
H1256 C1240 0.931 . S
H1257 C1245 0.930 1_565 S
H1258 C1246 0.927 1_455 S
H1259 C1246 1.006 . S
H1260 C1246 0.945 1_456 S
H1261 C1247 0.958 . S
H1262 C1247 0.961 . S
H1263 C1247 0.960 . S
C1264 C1265 1.391 . S
C1264 C1266 1.394 1_565 S
C1264 H1280 0.931 1_565 S
C1265 C1264 1.391 . S
C1265 C1269 1.376 . S
C1266 C1264 1.394 1_545 S
C1266 C1267 1.369 1_545 S
C1266 C1270 1.531 . S
C1267 C1266 1.369 1_565 S
C1267 C1268 1.410 . S
C1267 C1275 1.503 . S
C1268 C1267 1.410 . S
C1268 C1269 1.392 . S
C1268 C1271 1.511 . S
C1269 C1265 1.376 . S
C1269 C1268 1.392 . S
C1269 H1281 0.929 . S
C1270 C1266 1.531 . S
C1270 H1282 0.960 . S
C1270 H1283 0.962 . S
C1270 H1284 0.960 . S
C1271 C1268 1.511 . S
C1271 H1285 0.961 . S
C1271 H1286 0.961 . S
C1271 H1287 0.961 . S
C1272 C1273 1.370 . S
C1272 C1274 1.363 1_545 S
C1272 H1288 0.931 . S
C1273 C1272 1.370 . S
C1273 C1277 1.408 . S
C1274 C1272 1.363 1_565 S
C1274 C1275 1.370 . S
C1274 C1278 1.524 . S
C1275 C1267 1.503 . S
C1275 C1274 1.370 . S
C1275 C1276 1.403 . S
C1276 C1275 1.403 . S
C1276 C1277 1.404 1_565 S
C1276 C1279 1.539 . S
C1277 C1273 1.408 . S
C1277 C1276 1.404 1_545 S
C1277 H1289 0.930 . S
C1278 C1274 1.524 . S
C1278 H1290 0.956 1_565 S
C1278 H1291 0.961 . S
C1278 H1292 0.961 . S
C1279 C1276 1.539 . S
C1279 H1293 0.958 1_565 S
C1279 H1294 0.961 . S
C1279 H1295 0.960 . S
H1280 C1264 0.931 1_545 S
H1281 C1269 0.929 . S
H1282 C1270 0.960 . S
H1283 C1270 0.962 . S
H1284 C1270 0.960 . S
H1285 C1271 0.961 . S
H1286 C1271 0.961 . S
H1287 C1271 0.961 . S
H1288 C1272 0.931 . S
H1289 C1277 0.930 . S
H1290 C1278 0.956 1_545 S
H1291 C1278 0.961 . S
H1292 C1278 0.961 . S
H1293 C1279 0.958 1_545 S
H1294 C1279 0.961 . S
H1295 C1279 0.960 . S
C1296 C1297 1.391 . S
C1296 C1298 1.394 . S
C1296 H1312 0.931 . S
C1297 C1296 1.391 . S
C1297 C1301 1.376 . S
C1298 C1296 1.394 . S
C1298 C1299 1.369 . S
C1298 C1302 1.531 . S
C1299 C1298 1.369 . S
C1299 C1300 1.410 . S
C1299 C1307 1.503 . S
C1300 C1299 1.410 . S
C1300 C1301 1.392 . S
C1300 C1303 1.511 . S
C1301 C1297 1.376 . S
C1301 C1300 1.392 . S
C1301 H1313 0.929 . S
C1302 C1298 1.531 . S
C1302 H1314 0.960 . S
C1302 H1315 0.962 . S
C1302 H1316 0.960 . S
C1303 C1300 1.511 . S
C1303 H1317 0.961 . S
C1303 H1318 0.961 . S
C1303 H1319 0.961 . S
C1304 C1305 1.370 . S
C1304 C1306 1.363 . S
C1304 H1320 0.931 . S
C1305 C1304 1.370 . S
C1305 C1309 1.408 . S
C1306 C1304 1.363 . S
C1306 C1307 1.370 . S
C1306 C1310 1.524 . S
C1307 C1299 1.503 . S
C1307 C1306 1.370 . S
C1307 C1308 1.403 . S
C1308 C1307 1.403 . S
C1308 C1309 1.404 . S
C1308 C1311 1.539 . S
C1309 C1305 1.408 . S
C1309 C1308 1.404 . S
C1309 H1321 0.930 . S
C1310 C1306 1.524 . S
C1310 H1322 0.956 . S
C1310 H1323 0.961 . S
C1310 H1324 0.961 . S
C1311 C1308 1.539 . S
C1311 H1325 0.958 . S
C1311 H1326 0.961 . S
C1311 H1327 0.960 . S
H1312 C1296 0.931 . S
H1313 C1301 0.929 . S
H1314 C1302 0.960 . S
H1315 C1302 0.962 . S
H1316 C1302 0.960 . S
H1317 C1303 0.961 . S
H1318 C1303 0.961 . S
H1319 C1303 0.961 . S
H1320 C1304 0.931 . S
H1321 C1309 0.930 . S
H1322 C1310 0.956 . S
H1323 C1310 0.961 . S
H1324 C1310 0.961 . S
H1325 C1311 0.958 . S
H1326 C1311 0.961 . S
H1327 C1311 0.960 . S
C1328 C1329 1.391 . S
C1328 C1330 1.394 . S
C1328 H1344 0.931 . S
C1329 C1328 1.391 . S
C1329 C1333 1.376 . S
C1330 C1328 1.394 . S
C1330 C1331 1.369 . S
C1330 C1334 1.531 . S
C1331 C1330 1.369 . S
C1331 C1332 1.410 . S
C1331 C1339 1.503 . S
C1332 C1331 1.410 . S
C1332 C1333 1.392 . S
C1332 C1335 1.511 . S
C1333 C1329 1.376 . S
C1333 C1332 1.392 . S
C1333 H1345 0.929 . S
C1334 C1330 1.531 . S
C1334 H1346 0.960 . S
C1334 H1347 0.962 . S
C1334 H1348 0.960 . S
C1335 C1332 1.511 . S
C1335 H1349 0.961 . S
C1335 H1350 0.961 . S
C1335 H1351 0.961 . S
C1336 C1337 1.370 . S
C1336 C1338 1.363 . S
C1336 H1352 0.931 . S
C1337 C1336 1.370 . S
C1337 C1341 1.408 . S
C1338 C1336 1.363 . S
C1338 C1339 1.370 . S
C1338 C1342 1.524 . S
C1339 C1331 1.503 . S
C1339 C1338 1.370 . S
C1339 C1340 1.403 . S
C1340 C1339 1.403 . S
C1340 C1341 1.404 . S
C1340 C1343 1.539 . S
C1341 C1337 1.408 . S
C1341 C1340 1.404 . S
C1341 H1353 0.930 . S
C1342 C1338 1.524 . S
C1342 H1354 0.956 . S
C1342 H1355 0.961 . S
C1342 H1356 0.961 . S
C1343 C1340 1.539 . S
C1343 H1357 0.958 . S
C1343 H1358 0.961 . S
C1343 H1359 0.960 . S
H1344 C1328 0.931 . S
H1345 C1333 0.929 . S
H1346 C1334 0.960 . S
H1347 C1334 0.962 . S
H1348 C1334 0.960 . S
H1349 C1335 0.961 . S
H1350 C1335 0.961 . S
H1351 C1335 0.961 . S
H1352 C1336 0.931 . S
H1353 C1341 0.930 . S
H1354 C1342 0.956 . S
H1355 C1342 0.961 . S
H1356 C1342 0.961 . S
H1357 C1343 0.958 . S
H1358 C1343 0.961 . S
H1359 C1343 0.960 . S
C1360 C1361 1.391 . S
C1360 C1362 1.394 . S
C1360 H1376 0.931 . S
C1361 C1360 1.391 . S
C1361 C1365 1.376 . S
C1362 C1360 1.394 . S
C1362 C1363 1.369 . S
C1362 C1366 1.531 . S
C1363 C1362 1.369 . S
C1363 C1364 1.410 . S
C1363 C1371 1.503 . S
C1364 C1363 1.410 . S
C1364 C1365 1.392 . S
C1364 C1367 1.511 . S
C1365 C1361 1.376 . S
C1365 C1364 1.392 . S
C1365 H1377 0.929 . S
C1366 C1362 1.531 . S
C1366 H1378 0.960 . S
C1366 H1379 0.962 . S
C1366 H1380 0.960 . S
C1367 C1364 1.511 . S
C1367 H1381 0.961 . S
C1367 H1382 0.961 . S
C1367 H1383 0.961 . S
C1368 C1369 1.370 . S
C1368 C1370 1.363 . S
C1368 H1384 0.931 . S
C1369 C1368 1.370 . S
C1369 C1373 1.408 . S
C1370 C1368 1.363 . S
C1370 C1371 1.370 . S
C1370 C1374 1.524 . S
C1371 C1363 1.503 . S
C1371 C1370 1.370 . S
C1371 C1372 1.403 . S
C1372 C1371 1.403 . S
C1372 C1373 1.404 . S
C1372 C1375 1.539 . S
C1373 C1369 1.408 . S
C1373 C1372 1.404 . S
C1373 H1385 0.930 . S
C1374 C1370 1.524 . S
C1374 H1386 0.956 . S
C1374 H1387 0.961 . S
C1374 H1388 0.961 . S
C1375 C1372 1.539 . S
C1375 H1389 0.958 . S
C1375 H1390 0.961 . S
C1375 H1391 0.960 . S
H1376 C1360 0.931 . S
H1377 C1365 0.929 . S
H1378 C1366 0.960 . S
H1379 C1366 0.962 . S
H1380 C1366 0.960 . S
H1381 C1367 0.961 . S
H1382 C1367 0.961 . S
H1383 C1367 0.961 . S
H1384 C1368 0.931 . S
H1385 C1373 0.930 . S
H1386 C1374 0.956 . S
H1387 C1374 0.961 . S
H1388 C1374 0.961 . S
H1389 C1375 0.958 . S
H1390 C1375 0.961 . S
H1391 C1375 0.960 . S
C1392 C1393 1.391 . S
C1392 C1394 1.394 . S
C1392 H1408 0.931 . S
C1393 C1392 1.391 . S
C1393 C1397 1.376 . S
C1394 C1392 1.394 . S
C1394 C1395 1.369 . S
C1394 C1398 1.531 . S
C1395 C1394 1.369 . S
C1395 C1396 1.410 . S
C1395 C1403 1.503 . S
C1396 C1395 1.410 . S
C1396 C1397 1.392 . S
C1396 C1399 1.511 . S
C1397 C1393 1.376 . S
C1397 C1396 1.392 . S
C1397 H1409 0.929 . S
C1398 C1394 1.531 . S
C1398 H1410 0.960 . S
C1398 H1411 0.962 . S
C1398 H1412 0.960 . S
C1399 C1396 1.511 . S
C1399 H1413 0.961 . S
C1399 H1414 0.961 . S
C1399 H1415 0.961 . S
C1400 C1401 1.370 . S
C1400 C1402 1.363 . S
C1400 H1416 0.931 . S
C1401 C1400 1.370 . S
C1401 C1405 1.408 . S
C1402 C1400 1.363 . S
C1402 C1403 1.370 . S
C1402 C1406 1.524 . S
C1403 C1395 1.503 . S
C1403 C1402 1.370 . S
C1403 C1404 1.403 . S
C1404 C1403 1.403 . S
C1404 C1405 1.404 . S
C1404 C1407 1.539 . S
C1405 C1401 1.408 . S
C1405 C1404 1.404 . S
C1405 H1417 0.930 . S
C1406 C1402 1.524 . S
C1406 H1418 0.956 . S
C1406 H1419 0.961 . S
C1406 H1420 0.961 . S
C1407 C1404 1.539 . S
C1407 H1421 0.958 . S
C1407 H1422 0.961 . S
C1407 H1423 0.960 . S
H1408 C1392 0.931 . S
H1409 C1397 0.929 . S
H1410 C1398 0.960 . S
H1411 C1398 0.962 . S
H1412 C1398 0.960 . S
H1413 C1399 0.961 . S
H1414 C1399 0.961 . S
H1415 C1399 0.961 . S
H1416 C1400 0.931 . S
H1417 C1405 0.930 . S
H1418 C1406 0.956 . S
H1419 C1406 0.961 . S
H1420 C1406 0.961 . S
H1421 C1407 0.958 . S
H1422 C1407 0.961 . S
H1423 C1407 0.960 . S
C1424 C1425 1.391 . S
C1424 C1426 1.394 . S
C1424 H1440 0.931 . S
C1425 C1424 1.391 . S
C1425 C1429 1.376 . S
C1426 C1424 1.394 . S
C1426 C1427 1.369 . S
C1426 C1430 1.531 . S
C1427 C1426 1.369 . S
C1427 C1428 1.410 . S
C1427 C1435 1.503 . S
C1428 C1427 1.410 . S
C1428 C1429 1.392 . S
C1428 C1431 1.511 . S
C1429 C1425 1.376 . S
C1429 C1428 1.392 . S
C1429 H1441 0.929 . S
C1430 C1426 1.531 . S
C1430 H1442 0.960 . S
C1430 H1443 0.962 . S
C1430 H1444 0.960 . S
C1431 C1428 1.511 . S
C1431 H1445 0.961 . S
C1431 H1446 0.961 . S
C1431 H1447 0.961 . S
C1432 C1433 1.370 . S
C1432 C1434 1.363 . S
C1432 H1448 0.931 . S
C1433 C1432 1.370 . S
C1433 C1437 1.408 . S
C1434 C1432 1.363 . S
C1434 C1435 1.370 . S
C1434 C1438 1.524 . S
C1435 C1427 1.503 . S
C1435 C1434 1.370 . S
C1435 C1436 1.403 . S
C1436 C1435 1.403 . S
C1436 C1437 1.404 . S
C1436 C1439 1.539 . S
C1437 C1433 1.408 . S
C1437 C1436 1.404 . S
C1437 H1449 0.930 . S
C1438 C1434 1.524 . S
C1438 H1450 0.956 . S
C1438 H1451 0.961 . S
C1438 H1452 0.961 . S
C1439 C1436 1.539 . S
C1439 H1453 0.958 . S
C1439 H1454 0.961 . S
C1439 H1455 0.960 . S
H1440 C1424 0.931 . S
H1441 C1429 0.929 . S
H1442 C1430 0.960 . S
H1443 C1430 0.962 . S
H1444 C1430 0.960 . S
H1445 C1431 0.961 . S
H1446 C1431 0.961 . S
H1447 C1431 0.961 . S
H1448 C1432 0.931 . S
H1449 C1437 0.930 . S
H1450 C1438 0.956 . S
H1451 C1438 0.961 . S
H1452 C1438 0.961 . S
H1453 C1439 0.958 . S
H1454 C1439 0.961 . S
H1455 C1439 0.960 . S
C1456 C1457 1.391 . S
C1456 C1458 1.394 . S
C1456 H1472 0.931 . S
C1457 C1456 1.391 . S
C1457 C1461 1.376 . S
C1458 C1456 1.394 . S
C1458 C1459 1.369 . S
C1458 C1462 1.531 . S
C1459 C1458 1.369 . S
C1459 C1460 1.410 . S
C1459 C1467 1.503 . S
C1460 C1459 1.410 . S
C1460 C1461 1.392 . S
C1460 C1463 1.511 . S
C1461 C1457 1.376 . S
C1461 C1460 1.392 . S
C1461 H1473 0.929 . S
C1462 C1458 1.531 . S
C1462 H1474 0.960 . S
C1462 H1475 0.962 . S
C1462 H1476 0.960 . S
C1463 C1460 1.511 . S
C1463 H1477 0.961 . S
C1463 H1478 0.961 . S
C1463 H1479 0.961 . S
C1464 C1465 1.370 . S
C1464 C1466 1.363 . S
C1464 H1480 0.931 . S
C1465 C1464 1.370 . S
C1465 C1469 1.408 . S
C1466 C1464 1.363 . S
C1466 C1467 1.370 . S
C1466 C1470 1.524 . S
C1467 C1459 1.503 . S
C1467 C1466 1.370 . S
C1467 C1468 1.403 . S
C1468 C1467 1.403 . S
C1468 C1469 1.404 . S
C1468 C1471 1.539 . S
C1469 C1465 1.408 . S
C1469 C1468 1.404 . S
C1469 H1481 0.930 . S
C1470 C1466 1.524 . S
C1470 H1482 0.956 . S
C1470 H1483 0.961 . S
C1470 H1484 0.961 . S
C1471 C1468 1.539 . S
C1471 H1485 0.958 . S
C1471 H1486 0.961 . S
C1471 H1487 0.960 . S
H1472 C1456 0.931 . S
H1473 C1461 0.929 . S
H1474 C1462 0.960 . S
H1475 C1462 0.962 . S
H1476 C1462 0.960 . S
H1477 C1463 0.961 . S
H1478 C1463 0.961 . S
H1479 C1463 0.961 . S
H1480 C1464 0.931 . S
H1481 C1469 0.930 . S
H1482 C1470 0.956 . S
H1483 C1470 0.961 . S
H1484 C1470 0.961 . S
H1485 C1471 0.958 . S
H1486 C1471 0.961 . S
H1487 C1471 0.960 . S
C1488 C1489 1.391 . S
C1488 C1490 1.394 . S
C1488 H1504 0.931 . S
C1489 C1488 1.391 . S
C1489 C1493 1.376 . S
C1490 C1488 1.394 . S
C1490 C1491 1.369 . S
C1490 C1494 1.531 . S
C1491 C1490 1.369 . S
C1491 C1492 1.410 . S
C1491 C1499 1.503 . S
C1492 C1491 1.410 . S
C1492 C1493 1.392 . S
C1492 C1495 1.511 . S
C1493 C1489 1.376 . S
C1493 C1492 1.392 . S
C1493 H1505 0.929 . S
C1494 C1490 1.531 . S
C1494 H1506 0.960 . S
C1494 H1507 0.962 . S
C1494 H1508 0.960 . S
C1495 C1492 1.511 . S
C1495 H1509 0.961 . S
C1495 H1510 0.961 . S
C1495 H1511 0.961 . S
C1496 C1497 1.370 . S
C1496 C1498 1.363 . S
C1496 H1512 0.931 . S
C1497 C1496 1.370 . S
C1497 C1501 1.408 . S
C1498 C1496 1.363 . S
C1498 C1499 1.370 . S
C1498 C1502 1.524 . S
C1499 C1491 1.503 . S
C1499 C1498 1.370 . S
C1499 C1500 1.403 . S
C1500 C1499 1.403 . S
C1500 C1501 1.404 . S
C1500 C1503 1.539 . S
C1501 C1497 1.408 . S
C1501 C1500 1.404 . S
C1501 H1513 0.930 . S
C1502 C1498 1.524 . S
C1502 H1514 0.956 . S
C1502 H1515 0.961 . S
C1502 H1516 0.961 . S
C1503 C1500 1.539 . S
C1503 H1517 0.958 . S
C1503 H1518 0.961 . S
C1503 H1519 0.960 . S
H1504 C1488 0.931 . S
H1505 C1493 0.929 . S
H1506 C1494 0.960 . S
H1507 C1494 0.962 . S
H1508 C1494 0.960 . S
H1509 C1495 0.961 . S
H1510 C1495 0.961 . S
H1511 C1495 0.961 . S
H1512 C1496 0.931 . S
H1513 C1501 0.930 . S
H1514 C1502 0.956 . S
H1515 C1502 0.961 . S
H1516 C1502 0.961 . S
H1517 C1503 0.958 . S
H1518 C1503 0.961 . S
H1519 C1503 0.960 . S
C1520 C1521 1.391 . S
C1520 C1522 1.394 . S
C1520 H1536 0.931 . S
C1521 C1520 1.391 . S
C1521 C1525 1.376 . S
C1522 C1520 1.394 . S
C1522 C1523 1.369 . S
C1522 C1526 1.531 . S
C1523 C1522 1.369 . S
C1523 C1524 1.410 . S
C1523 C1531 1.503 . S
C1524 C1523 1.410 . S
C1524 C1525 1.392 . S
C1524 C1527 1.511 . S
C1525 C1521 1.376 . S
C1525 C1524 1.392 . S
C1525 H1537 0.929 . S
C1526 C1522 1.531 . S
C1526 H1538 0.960 . S
C1526 H1539 0.962 . S
C1526 H1540 0.960 . S
C1527 C1524 1.511 . S
C1527 H1541 0.961 . S
C1527 H1542 0.961 . S
C1527 H1543 0.961 . S
C1528 C1529 1.370 . S
C1528 C1530 1.363 . S
C1528 H1544 0.931 . S
C1529 C1528 1.370 . S
C1529 C1533 1.408 . S
C1530 C1528 1.363 . S
C1530 C1531 1.370 . S
C1530 C1534 1.524 . S
C1531 C1523 1.503 . S
C1531 C1530 1.370 . S
C1531 C1532 1.403 . S
C1532 C1531 1.403 . S
C1532 C1533 1.404 . S
C1532 C1535 1.539 . S
C1533 C1529 1.408 . S
C1533 C1532 1.404 . S
C1533 H1545 0.930 . S
C1534 C1530 1.524 . S
C1534 H1546 0.956 . S
C1534 H1547 0.961 . S
C1534 H1548 0.961 . S
C1535 C1532 1.539 . S
C1535 H1549 0.958 . S
C1535 H1550 0.961 . S
C1535 H1551 0.960 . S
H1536 C1520 0.931 . S
H1537 C1525 0.929 . S
H1538 C1526 0.960 . S
H1539 C1526 0.962 . S
H1540 C1526 0.960 . S
H1541 C1527 0.961 . S
H1542 C1527 0.961 . S
H1543 C1527 0.961 . S
H1544 C1528 0.931 . S
H1545 C1533 0.930 . S
H1546 C1534 0.956 . S
H1547 C1534 0.961 . S
H1548 C1534 0.961 . S
H1549 C1535 0.958 . S
H1550 C1535 0.961 . S
H1551 C1535 0.960 . S
C1552 C1553 1.391 . S
C1552 C1554 1.394 . S
C1552 H1568 0.931 . S
C1553 C1552 1.391 . S
C1553 C1557 1.376 . S
C1554 C1552 1.394 . S
C1554 C1555 1.369 . S
C1554 C1558 1.531 . S
C1555 C1554 1.369 . S
C1555 C1556 1.410 . S
C1555 C1563 1.503 . S
C1556 C1555 1.410 . S
C1556 C1557 1.392 . S
C1556 C1559 1.511 . S
C1557 C1553 1.376 . S
C1557 C1556 1.392 . S
C1557 H1569 0.929 . S
C1558 C1554 1.531 . S
C1558 H1570 0.960 . S
C1558 H1571 0.962 . S
C1558 H1572 0.960 . S
C1559 C1556 1.511 . S
C1559 H1573 0.961 . S
C1559 H1574 0.961 . S
C1559 H1575 0.961 . S
C1560 C1561 1.370 . S
C1560 C1562 1.363 . S
C1560 H1576 0.931 . S
C1561 C1560 1.370 . S
C1561 C1565 1.408 . S
C1562 C1560 1.363 . S
C1562 C1563 1.370 . S
C1562 C1566 1.524 . S
C1563 C1555 1.503 . S
C1563 C1562 1.370 . S
C1563 C1564 1.403 . S
C1564 C1563 1.403 . S
C1564 C1565 1.404 . S
C1564 C1567 1.539 . S
C1565 C1561 1.408 . S
C1565 C1564 1.404 . S
C1565 H1577 0.930 . S
C1566 C1562 1.524 . S
C1566 H1578 0.956 . S
C1566 H1579 0.961 . S
C1566 H1580 0.961 . S
C1567 C1564 1.539 . S
C1567 H1581 0.958 . S
C1567 H1582 0.961 . S
C1567 H1583 0.960 . S
H1568 C1552 0.931 . S
H1569 C1557 0.929 . S
H1570 C1558 0.960 . S
H1571 C1558 0.962 . S
H1572 C1558 0.960 . S
H1573 C1559 0.961 . S
H1574 C1559 0.961 . S
H1575 C1559 0.961 . S
H1576 C1560 0.931 . S
H1577 C1565 0.930 . S
H1578 C1566 0.956 . S
H1579 C1566 0.961 . S
H1580 C1566 0.961 . S
H1581 C1567 0.958 . S
H1582 C1567 0.961 . S
H1583 C1567 0.960 . S
C1584 C1585 1.391 . S
C1584 C1586 1.394 . S
C1584 H1600 0.931 . S
C1585 C1584 1.391 . S
C1585 C1589 1.376 . S
C1586 C1584 1.394 . S
C1586 C1587 1.369 . S
C1586 C1590 1.531 . S
C1587 C1586 1.369 . S
C1587 C1588 1.410 . S
C1587 C1595 1.503 . S
C1588 C1587 1.410 . S
C1588 C1589 1.392 . S
C1588 C1591 1.511 . S
C1589 C1585 1.376 . S
C1589 C1588 1.392 . S
C1589 H1601 0.929 . S
C1590 C1586 1.531 . S
C1590 H1602 0.960 . S
C1590 H1603 0.962 . S
C1590 H1604 0.960 . S
C1591 C1588 1.511 . S
C1591 H1605 0.961 . S
C1591 H1606 0.961 . S
C1591 H1607 0.961 . S
C1592 C1593 1.370 . S
C1592 C1594 1.363 . S
C1592 H1608 0.931 . S
C1593 C1592 1.370 . S
C1593 C1597 1.408 . S
C1594 C1592 1.363 . S
C1594 C1595 1.370 . S
C1594 C1598 1.524 . S
C1595 C1587 1.503 . S
C1595 C1594 1.370 . S
C1595 C1596 1.403 . S
C1596 C1595 1.403 . S
C1596 C1597 1.404 . S
C1596 C1599 1.539 . S
C1597 C1593 1.408 . S
C1597 C1596 1.404 . S
C1597 H1609 0.930 . S
C1598 C1594 1.524 . S
C1598 H1610 0.956 . S
C1598 H1611 0.961 . S
C1598 H1612 0.961 . S
C1599 C1596 1.539 . S
C1599 H1613 0.958 . S
C1599 H1614 0.961 . S
C1599 H1615 0.960 . S
H1600 C1584 0.931 . S
H1601 C1589 0.929 . S
H1602 C1590 0.960 . S
H1603 C1590 0.962 . S
H1604 C1590 0.960 . S
H1605 C1591 0.961 . S
H1606 C1591 0.961 . S
H1607 C1591 0.961 . S
H1608 C1592 0.931 . S
H1609 C1597 0.930 . S
H1610 C1598 0.956 . S
H1611 C1598 0.961 . S
H1612 C1598 0.961 . S
H1613 C1599 0.958 . S
H1614 C1599 0.961 . S
H1615 C1599 0.960 . S
C1616 C1617 1.391 . S
C1616 C1618 1.394 . S
C1616 H1632 0.931 . S
C1617 C1616 1.391 . S
C1617 C1621 1.376 . S
C1618 C1616 1.394 . S
C1618 C1619 1.369 . S
C1618 C1622 1.531 . S
C1619 C1618 1.369 . S
C1619 C1620 1.410 . S
C1619 C1627 1.503 . S
C1620 C1619 1.410 . S
C1620 C1621 1.392 . S
C1620 C1623 1.511 . S
C1621 C1617 1.376 . S
C1621 C1620 1.392 . S
C1621 H1633 0.929 . S
C1622 C1618 1.531 . S
C1622 H1634 0.960 . S
C1622 H1635 0.962 . S
C1622 H1636 0.960 . S
C1623 C1620 1.511 . S
C1623 H1637 0.961 . S
C1623 H1638 0.961 . S
C1623 H1639 0.961 . S
C1624 C1625 1.370 . S
C1624 C1626 1.363 . S
C1624 H1640 0.931 . S
C1625 C1624 1.370 . S
C1625 C1629 1.408 . S
C1626 C1624 1.363 . S
C1626 C1627 1.370 . S
C1626 C1630 1.524 . S
C1627 C1619 1.503 . S
C1627 C1626 1.370 . S
C1627 C1628 1.403 . S
C1628 C1627 1.403 . S
C1628 C1629 1.404 . S
C1628 C1631 1.539 . S
C1629 C1625 1.408 . S
C1629 C1628 1.404 . S
C1629 H1641 0.930 . S
C1630 C1626 1.524 . S
C1630 H1642 0.956 . S
C1630 H1643 0.961 . S
C1630 H1644 0.961 . S
C1631 C1628 1.539 . S
C1631 H1645 0.958 . S
C1631 H1646 0.961 . S
C1631 H1647 0.960 . S
H1632 C1616 0.931 . S
H1633 C1621 0.929 . S
H1634 C1622 0.960 . S
H1635 C1622 0.962 . S
H1636 C1622 0.960 . S
H1637 C1623 0.961 . S
H1638 C1623 0.961 . S
H1639 C1623 0.961 . S
H1640 C1624 0.931 . S
H1641 C1629 0.930 . S
H1642 C1630 0.956 . S
H1643 C1630 0.961 . S
H1644 C1630 0.961 . S
H1645 C1631 0.958 . S
H1646 C1631 0.961 . S
H1647 C1631 0.960 . S
C1648 C1649 1.391 . S
C1648 C1650 1.394 . S
C1648 H1664 0.931 . S
C1649 C1648 1.391 . S
C1649 C1653 1.376 . S
C1650 C1648 1.394 . S
C1650 C1651 1.369 . S
C1650 C1654 1.531 . S
C1651 C1650 1.369 . S
C1651 C1652 1.410 . S
C1651 C1659 1.503 . S
C1652 C1651 1.410 . S
C1652 C1653 1.392 . S
C1652 C1655 1.511 . S
C1653 C1649 1.376 . S
C1653 C1652 1.392 . S
C1653 H1665 0.929 . S
C1654 C1650 1.531 . S
C1654 H1666 0.960 . S
C1654 H1667 0.962 . S
C1654 H1668 0.960 . S
C1655 C1652 1.511 . S
C1655 H1669 0.961 . S
C1655 H1670 0.961 . S
C1655 H1671 0.961 . S
C1656 C1657 1.370 . S
C1656 C1658 1.363 . S
C1656 H1672 0.931 . S
C1657 C1656 1.370 . S
C1657 C1661 1.408 . S
C1658 C1656 1.363 . S
C1658 C1659 1.370 . S
C1658 C1662 1.524 . S
C1659 C1651 1.503 . S
C1659 C1658 1.370 . S
C1659 C1660 1.403 . S
C1660 C1659 1.403 . S
C1660 C1661 1.404 . S
C1660 C1663 1.539 . S
C1661 C1657 1.408 . S
C1661 C1660 1.404 . S
C1661 H1673 0.930 . S
C1662 C1658 1.524 . S
C1662 H1674 0.956 . S
C1662 H1675 0.961 . S
C1662 H1676 0.961 . S
C1663 C1660 1.539 . S
C1663 H1677 0.958 . S
C1663 H1678 0.961 . S
C1663 H1679 0.960 . S
H1664 C1648 0.931 . S
H1665 C1653 0.929 . S
H1666 C1654 0.960 . S
H1667 C1654 0.962 . S
H1668 C1654 0.960 . S
H1669 C1655 0.961 . S
H1670 C1655 0.961 . S
H1671 C1655 0.961 . S
H1672 C1656 0.931 . S
H1673 C1661 0.930 . S
H1674 C1662 0.956 . S
H1675 C1662 0.961 . S
H1676 C1662 0.961 . S
H1677 C1663 0.958 . S
H1678 C1663 0.961 . S
H1679 C1663 0.960 . S
C1680 C1681 1.391 . S
C1680 C1682 1.394 . S
C1680 H1696 0.931 . S
C1681 C1680 1.391 . S
C1681 C1685 1.376 . S
C1682 C1680 1.394 . S
C1682 C1683 1.369 . S
C1682 C1686 1.531 . S
C1683 C1682 1.369 . S
C1683 C1684 1.410 . S
C1683 C1691 1.503 . S
C1684 C1683 1.410 . S
C1684 C1685 1.392 . S
C1684 C1687 1.511 . S
C1685 C1681 1.376 . S
C1685 C1684 1.392 . S
C1685 H1697 0.929 . S
C1686 C1682 1.531 . S
C1686 H1698 0.960 . S
C1686 H1699 0.962 . S
C1686 H1700 0.960 . S
C1687 C1684 1.511 . S
C1687 H1701 0.961 . S
C1687 H1702 0.961 . S
C1687 H1703 0.961 . S
C1688 C1689 1.370 . S
C1688 C1690 1.363 . S
C1688 H1704 0.931 . S
C1689 C1688 1.370 . S
C1689 C1693 1.408 . S
C1690 C1688 1.363 . S
C1690 C1691 1.370 . S
C1690 C1694 1.524 . S
C1691 C1683 1.503 . S
C1691 C1690 1.370 . S
C1691 C1692 1.403 . S
C1692 C1691 1.403 . S
C1692 C1693 1.404 . S
C1692 C1695 1.539 . S
C1693 C1689 1.408 . S
C1693 C1692 1.404 . S
C1693 H1705 0.930 . S
C1694 C1690 1.524 . S
C1694 H1706 0.956 . S
C1694 H1707 0.961 . S
C1694 H1708 0.961 . S
C1695 C1692 1.539 . S
C1695 H1709 0.958 . S
C1695 H1710 0.961 . S
C1695 H1711 0.960 . S
H1696 C1680 0.931 . S
H1697 C1685 0.929 . S
H1698 C1686 0.960 . S
H1699 C1686 0.962 . S
H1700 C1686 0.960 . S
H1701 C1687 0.961 . S
H1702 C1687 0.961 . S
H1703 C1687 0.961 . S
H1704 C1688 0.931 . S
H1705 C1693 0.930 . S
H1706 C1694 0.956 . S
H1707 C1694 0.961 . S
H1708 C1694 0.961 . S
H1709 C1695 0.958 . S
H1710 C1695 0.961 . S
H1711 C1695 0.960 . S
C1712 C1713 1.391 . S
C1712 C1714 1.394 . S
C1712 H1728 0.931 . S
C1713 C1712 1.391 . S
C1713 C1717 1.376 . S
C1714 C1712 1.394 . S
C1714 C1715 1.369 . S
C1714 C1718 1.531 . S
C1715 C1714 1.369 . S
C1715 C1716 1.410 . S
C1715 C1723 1.503 . S
C1716 C1715 1.410 . S
C1716 C1717 1.392 . S
C1716 C1719 1.511 . S
C1717 C1713 1.376 . S
C1717 C1716 1.392 . S
C1717 H1729 0.929 . S
C1718 C1714 1.531 . S
C1718 H1730 0.960 . S
C1718 H1731 0.962 . S
C1718 H1732 0.960 . S
C1719 C1716 1.511 . S
C1719 H1733 0.961 . S
C1719 H1734 0.961 . S
C1719 H1735 0.961 . S
C1720 C1721 1.370 . S
C1720 C1722 1.363 . S
C1720 H1736 0.931 . S
C1721 C1720 1.370 . S
C1721 C1725 1.408 . S
C1722 C1720 1.363 . S
C1722 C1723 1.370 . S
C1722 C1726 1.524 . S
C1723 C1715 1.503 . S
C1723 C1722 1.370 . S
C1723 C1724 1.403 . S
C1724 C1723 1.403 . S
C1724 C1725 1.404 . S
C1724 C1727 1.539 . S
C1725 C1721 1.408 . S
C1725 C1724 1.404 . S
C1725 H1737 0.930 . S
C1726 C1722 1.524 . S
C1726 H1738 0.956 . S
C1726 H1739 0.961 . S
C1726 H1740 0.961 . S
C1727 C1724 1.539 . S
C1727 H1741 0.958 . S
C1727 H1742 0.961 . S
C1727 H1743 0.960 . S
H1728 C1712 0.931 . S
H1729 C1717 0.929 . S
H1730 C1718 0.960 . S
H1731 C1718 0.962 . S
H1732 C1718 0.960 . S
H1733 C1719 0.961 . S
H1734 C1719 0.961 . S
H1735 C1719 0.961 . S
H1736 C1720 0.931 . S
H1737 C1725 0.930 . S
H1738 C1726 0.956 . S
H1739 C1726 0.961 . S
H1740 C1726 0.961 . S
H1741 C1727 0.958 . S
H1742 C1727 0.961 . S
H1743 C1727 0.960 . S
C1744 C1745 1.391 . S
C1744 C1746 1.394 . S
C1744 H1760 0.931 . S
C1745 C1744 1.391 . S
C1745 C1749 1.376 . S
C1746 C1744 1.394 . S
C1746 C1747 1.369 . S
C1746 C1750 1.531 . S
C1747 C1746 1.369 . S
C1747 C1748 1.410 . S
C1747 C1755 1.503 . S
C1748 C1747 1.410 . S
C1748 C1749 1.392 . S
C1748 C1751 1.511 . S
C1749 C1745 1.376 . S
C1749 C1748 1.392 . S
C1749 H1761 0.929 . S
C1750 C1746 1.531 . S
C1750 H1762 0.960 . S
C1750 H1763 0.962 . S
C1750 H1764 0.960 . S
C1751 C1748 1.511 . S
C1751 H1765 0.961 . S
C1751 H1766 0.961 . S
C1751 H1767 0.961 . S
C1752 C1753 1.370 . S
C1752 C1754 1.363 . S
C1752 H1768 0.931 . S
C1753 C1752 1.370 . S
C1753 C1757 1.408 . S
C1754 C1752 1.363 . S
C1754 C1755 1.370 . S
C1754 C1758 1.524 . S
C1755 C1747 1.503 . S
C1755 C1754 1.370 . S
C1755 C1756 1.403 . S
C1756 C1755 1.403 . S
C1756 C1757 1.404 . S
C1756 C1759 1.539 . S
C1757 C1753 1.408 . S
C1757 C1756 1.404 . S
C1757 H1769 0.930 . S
C1758 C1754 1.524 . S
C1758 H1770 0.956 . S
C1758 H1771 0.961 . S
C1758 H1772 0.961 . S
C1759 C1756 1.539 . S
C1759 H1773 0.958 . S
C1759 H1774 0.961 . S
C1759 H1775 0.960 . S
H1760 C1744 0.931 . S
H1761 C1749 0.929 . S
H1762 C1750 0.960 . S
H1763 C1750 0.962 . S
H1764 C1750 0.960 . S
H1765 C1751 0.961 . S
H1766 C1751 0.961 . S
H1767 C1751 0.961 . S
H1768 C1752 0.931 . S
H1769 C1757 0.930 . S
H1770 C1758 0.956 . S
H1771 C1758 0.961 . S
H1772 C1758 0.961 . S
H1773 C1759 0.958 . S
H1774 C1759 0.961 . S
H1775 C1759 0.960 . S
C1776 C1777 1.391 . S
C1776 C1778 1.394 . S
C1776 H1792 0.931 . S
C1777 C1776 1.391 . S
C1777 C1781 1.376 . S
C1778 C1776 1.394 . S
C1778 C1779 1.369 . S
C1778 C1782 1.531 . S
C1779 C1778 1.369 . S
C1779 C1780 1.410 . S
C1779 C1787 1.503 . S
C1780 C1779 1.410 . S
C1780 C1781 1.392 . S
C1780 C1783 1.511 . S
C1781 C1777 1.376 . S
C1781 C1780 1.392 . S
C1781 H1793 0.929 . S
C1782 C1778 1.531 . S
C1782 H1794 0.960 . S
C1782 H1795 0.962 . S
C1782 H1796 0.960 . S
C1783 C1780 1.511 . S
C1783 H1797 0.961 . S
C1783 H1798 0.961 . S
C1783 H1799 0.961 . S
C1784 C1785 1.370 . S
C1784 C1786 1.363 . S
C1784 H1800 0.931 . S
C1785 C1784 1.370 . S
C1785 C1789 1.408 . S
C1786 C1784 1.363 . S
C1786 C1787 1.370 . S
C1786 C1790 1.524 . S
C1787 C1779 1.503 . S
C1787 C1786 1.370 . S
C1787 C1788 1.403 . S
C1788 C1787 1.403 . S
C1788 C1789 1.404 . S
C1788 C1791 1.539 . S
C1789 C1785 1.408 . S
C1789 C1788 1.404 . S
C1789 H1801 0.930 . S
C1790 C1786 1.524 . S
C1790 H1802 0.956 . S
C1790 H1803 0.961 . S
C1790 H1804 0.961 . S
C1791 C1788 1.539 . S
C1791 H1805 0.958 . S
C1791 H1806 0.961 . S
C1791 H1807 0.960 . S
H1792 C1776 0.931 . S
H1793 C1781 0.929 . S
H1794 C1782 0.960 . S
H1795 C1782 0.962 . S
H1796 C1782 0.960 . S
H1797 C1783 0.961 . S
H1798 C1783 0.961 . S
H1799 C1783 0.961 . S
H1800 C1784 0.931 . S
H1801 C1789 0.930 . S
H1802 C1790 0.956 . S
H1803 C1790 0.961 . S
H1804 C1790 0.961 . S
H1805 C1791 0.958 . S
H1806 C1791 0.961 . S
H1807 C1791 0.960 . S
C529 C503 1.575 . S
C537 N14 1.568 . S
C561 N47 1.572 . S
C569 C140 1.595 . S
C593 N80 1.580 . S
C601 C437 1.584 . S
C625 N113 1.555 . S
C633 C206 1.588 . S
C657 N146 1.404 . S
C665 C391 1.453 . S
C689 C28 1.475 . S
C697 N179 1.453 . S
C721 C325 1.442 1_655 S
C729 N212 1.433 . S
C753 N245 1.412 . S
C761 C94 1.455 . S
C785 N278 1.573 . S
C793 C239 1.587 . S
C817 N311 1.569 . S
C825 C404 1.577 . S
C849 C173 1.571 . S
C857 N344 1.574 . S
C881 N377 1.574 . S
C889 C470 1.586 . S
C913 N410 1.458 . S
C921 C127 1.464 1_455 S
C945 N443 1.435 . S
C953 C292 1.461 . S
C977 C61 1.466 . S
C985 N476 1.449 . S
C1009 N509 1.406 . S
C1017 C358 1.457 . S
C1041 N5 1.655 . S
C1049 N401 1.680 . S
C1073 N170 1.690 . S
C1081 N38 1.645 . S
C1105 N71 1.677 . S
C1113 N467 1.685 . S
C1137 N104 1.631 . S
C1145 N236 1.711 . S
C1169 N269 1.680 . S
C1177 N137 1.690 . S
C1201 N335 1.676 . S
C1209 N203 1.694 . S
C1233 N434 1.680 . S
C1241 N302 1.665 . S
C1265 N368 1.625 . S
C1273 N500 1.701 . S
C1297 C305 1.587 . S
C1305 C17 1.605 . S
C1329 C50 1.582 . S
C1337 C338 1.571 . S
C1361 C83 1.607 . S
C1369 C371 1.562 . S
C1393 C272 1.548 . S
C1401 C116 1.610 . S
C1425 C149 0.959 . S
C1433 C457 0.916 . S
C1457 C182 0.903 . S
C1465 C490 0.931 . S
C1489 C215 0.914 . S
C1497 C523 0.938 . S
C1521 C248 0.961 . S
C1529 C424 0.903 . S
C1553 C41 1.585 . S
C1561 C281 1.598 . S
C1585 C314 1.610 1_565 S
C1593 C74 1.567 . S
C1617 C347 1.597 . S
C1625 C107 1.584 . S
C1649 C380 1.600 1_545 S
C1657 C8 1.553 . S
C1681 C413 0.919 . S
C1689 C193 0.920 . S
C1713 C226 0.872 . S
C1721 C446 0.948 . S
C1745 C259 0.969 . S
C1753 C479 0.933 . S
C1777 C512 0.927 . S
C1785 C160 0.901 . S
