# Generated by pormake.
# Topology lhb, (8)-cn, num edge types: 1
# Building blocks:
#     Node 0, Type 0, BuildingBlock: OLANAS_clean_sbu_2, # of connection points: 8
#     Node 1, Type 0, BuildingBlock: OLANAS_clean_sbu_2, # of connection points: 8
#     Node 2, Type 0, BuildingBlock: OLANAS_clean_sbu_2, # of connection points: 8
#     Node 3, Type 0, BuildingBlock: OLANAS_clean_sbu_2, # of connection points: 8
#     Node 4, Type 0, BuildingBlock: OLANAS_clean_sbu_2, # of connection points: 8
#     Node 5, Type 0, BuildingBlock: OLANAS_clean_sbu_2, # of connection points: 8
#     Node 6, Type 0, BuildingBlock: OLANAS_clean_sbu_2, # of connection points: 8
#     Node 7, Type 0, BuildingBlock: OLANAS_clean_sbu_2, # of connection points: 8
#     Edge 8, Type (0, 0), BuildingBlock: UVAHIK_clean_linker_0, # of connection points: 2
#     Edge 9, Type (0, 0), BuildingBlock: UVAHIK_clean_linker_0, # of connection points: 2
#     Edge 10, Type (0, 0), BuildingBlock: UVAHIK_clean_linker_0, # of connection points: 2
#     Edge 11, Type (0, 0), BuildingBlock: UVAHIK_clean_linker_0, # of connection points: 2
#     Edge 12, Type (0, 0), BuildingBlock: UVAHIK_clean_linker_0, # of connection points: 2
#     Edge 13, Type (0, 0), BuildingBlock: UVAHIK_clean_linker_0, # of connection points: 2
#     Edge 14, Type (0, 0), BuildingBlock: UVAHIK_clean_linker_0, # of connection points: 2
#     Edge 15, Type (0, 0), BuildingBlock: UVAHIK_clean_linker_0, # of connection points: 2
#     Edge 16, Type (0, 0), BuildingBlock: UVAHIK_clean_linker_0, # of connection points: 2
#     Edge 17, Type (0, 0), BuildingBlock: UVAHIK_clean_linker_0, # of connection points: 2
#     Edge 18, Type (0, 0), BuildingBlock: UVAHIK_clean_linker_0, # of connection points: 2
#     Edge 19, Type (0, 0), BuildingBlock: UVAHIK_clean_linker_0, # of connection points: 2
#     Edge 20, Type (0, 0), BuildingBlock: UVAHIK_clean_linker_0, # of connection points: 2
#     Edge 21, Type (0, 0), BuildingBlock: UVAHIK_clean_linker_0, # of connection points: 2
#     Edge 22, Type (0, 0), BuildingBlock: UVAHIK_clean_linker_0, # of connection points: 2
#     Edge 23, Type (0, 0), BuildingBlock: UVAHIK_clean_linker_0, # of connection points: 2
#     Edge 24, Type (0, 0), BuildingBlock: UVAHIK_clean_linker_0, # of connection points: 2
#     Edge 25, Type (0, 0), BuildingBlock: UVAHIK_clean_linker_0, # of connection points: 2
#     Edge 26, Type (0, 0), BuildingBlock: UVAHIK_clean_linker_0, # of connection points: 2
#     Edge 27, Type (0, 0), BuildingBlock: UVAHIK_clean_linker_0, # of connection points: 2
#     Edge 28, Type (0, 0), BuildingBlock: UVAHIK_clean_linker_0, # of connection points: 2
#     Edge 29, Type (0, 0), BuildingBlock: UVAHIK_clean_linker_0, # of connection points: 2
#     Edge 30, Type (0, 0), BuildingBlock: UVAHIK_clean_linker_0, # of connection points: 2
#     Edge 31, Type (0, 0), BuildingBlock: UVAHIK_clean_linker_0, # of connection points: 2
#     Edge 32, Type (0, 0), BuildingBlock: UVAHIK_clean_linker_0, # of connection points: 2
#     Edge 33, Type (0, 0), BuildingBlock: UVAHIK_clean_linker_0, # of connection points: 2
#     Edge 34, Type (0, 0), BuildingBlock: UVAHIK_clean_linker_0, # of connection points: 2
#     Edge 35, Type (0, 0), BuildingBlock: UVAHIK_clean_linker_0, # of connection points: 2
#     Edge 36, Type (0, 0), BuildingBlock: UVAHIK_clean_linker_0, # of connection points: 2
#     Edge 37, Type (0, 0), BuildingBlock: UVAHIK_clean_linker_0, # of connection points: 2
#     Edge 38, Type (0, 0), BuildingBlock: UVAHIK_clean_linker_0, # of connection points: 2
#     Edge 39, Type (0, 0), BuildingBlock: UVAHIK_clean_linker_0, # of connection points: 2
# Relax obj value: 0.220
# Max RMSD: 0.286
# Mean RMSD: 0.286
data_MOF--net-lhb--node1-OLANAS_clean_sbu_2--edge1-UVAHIK_clean_linker_0
_symmetry_space_group_name_H-M    P1
_symmetry_Int_Tables_number       1
_symmetry_cell_setting            triclinic
loop_
_symmetry_equiv_pos_as_xyz
'x, y, z'
_cell_length_a     37.803394
_cell_length_b     23.609114
_cell_length_c     78.746507
_cell_angle_alpha  90.018228
_cell_angle_beta   89.882994
_cell_angle_gamma 90.018077
loop_
_atom_site_label
_atom_site_type_symbol
_atom_site_fract_x
_atom_site_fract_y
_atom_site_fract_z
_atom_type_partial_charge
C0 C 0.03741 0.93798 0.00219 0.0
O1 O 0.04535 0.89638 0.01261 0.0
C2 C 0.06459 0.96805 0.99233 0.0
C3 C 0.10088 0.95703 0.99115 0.0
C4 C 0.12118 0.99036 0.97979 0.0
C5 C 0.10501 0.03286 0.96979 0.0
C6 C 0.06852 0.041 0.97158 0.0
N7 N 0.05112 1.0097 0.98295 0.0
N8 N 0.00236 0.07346 0.00172 0.0
Co9 Co 0.00285 0.01788 0.9834 0.0
N10 N 0.95459 0.02611 0.98331 0.0
C11 C 0.90494 0.07652 0.99293 0.0
C12 C 0.88472 0.04749 0.98058 0.0
C13 C 0.90087 1.00822 0.9694 0.0
C14 C 0.93725 0.99894 0.97103 0.0
C15 C 0.94113 0.0646 0.99387 0.0
N16 N 0.99555 0.96313 0.96518 0.0
N17 N 0.0033 0.95634 -0.00011 0.0
N18 N 0.01017 0.07859 0.96694 0.0
C19 C 0.96827 0.09105 0.00461 0.0
O20 O 0.96034 0.12907 0.01621 0.0
C21 C 0.04525 0.08085 0.96255 0.0
O22 O 0.05793 0.12073 0.95259 0.0
C23 C 0.98741 0.12701 0.96496 0.0
C24 C 0.97366 0.22611 0.9711 0.0
C25 C 0.99553 0.1785 0.97316 0.0
C26 C 0.95818 0.12422 0.95407 0.0
C27 C 0.93651 0.17193 0.95164 0.0
C28 C 0.94379 0.22183 0.96069 0.0
C29 C 0.96049 0.96218 0.96082 0.0
O30 O 0.94787 0.9262 0.94962 0.0
C31 C 0.01894 0.91679 0.96128 0.0
C32 C 0.0489 0.92611 0.95119 0.0
C33 C 0.07266 0.88188 0.94774 0.0
C34 C 0.06543 0.82764 0.95419 0.0
C35 C 0.03439 0.8163 0.96346 0.0
C36 C 0.01152 0.86171 0.96724 0.0
C37 C 0.9751 0.94004 0.0111 0.0
C38 C 0.94421 0.91478 0.00478 0.0
C39 C 0.91767 0.89627 0.01598 0.0
C40 C 0.9219 0.90451 0.0335 0.0
C41 C 0.95294 0.92866 0.03992 0.0
C42 C 0.97968 0.94522 0.02872 0.0
C43 C 0.03065 0.08542 0.01331 0.0
C44 C 0.08599 0.10567 0.03609 0.0
C45 C 0.05356 0.08486 0.04213 0.0
C46 C 0.02601 0.07521 0.0307 0.0
C47 C 0.06238 0.10934 0.00755 0.0
C48 C 0.09051 0.11889 0.01881 0.0
H49 H 0.11305 0.92361 -0.0015 0.0
H50 H 0.1493 0.98274 0.97858 0.0
H51 H 0.12037 0.05774 0.9609 0.0
H52 H 0.8928 0.10755 0.00121 0.0
H53 H 0.85668 0.05592 0.97951 0.0
H54 H 0.88555 0.98663 0.95978 0.0
H55 H 0.01891 0.18152 0.98103 0.0
H56 H 0.95348 0.08582 0.9469 0.0
H57 H 0.92724 0.25882 0.95884 0.0
H58 H 0.05345 0.9678 0.94594 0.0
H59 H 0.08349 0.79332 0.95137 0.0
H60 H 0.98756 0.85434 0.97446 0.0
H61 H 0.94159 0.90669 0.99134 0.0
H62 H 0.90139 0.8906 0.0422 0.0
H63 H 0.00422 0.96181 0.03373 0.0
H64 H 0.10705 0.11453 0.04503 0.0
H65 H 0.00084 0.05974 0.03536 0.0
H66 H 0.06499 0.12147 0.99442 0.0
C67 C 0.21398 0.16229 0.25473 0.0
O68 O 0.20683 0.12106 0.26542 0.0
C69 C 0.18619 0.19126 0.245 0.0
C70 C 0.15002 0.17907 0.24411 0.0
C71 C 0.129 0.21181 0.23294 0.0
C72 C 0.14435 0.25499 0.22286 0.0
C73 C 0.18077 0.26438 0.22437 0.0
N74 N 0.19888 0.23344 0.23554 0.0
N75 N 0.24687 0.29938 0.25407 0.0
Co76 Co 0.24701 0.24364 0.23573 0.0
N77 N 0.29515 0.25392 0.23541 0.0
C78 C 0.34449 0.30399 0.24545 0.0
C79 C 0.36522 0.27471 0.2333 0.0
C80 C 0.34948 0.23546 0.22201 0.0
C81 C 0.31299 0.22638 0.22334 0.0
C82 C 0.30821 0.29236 0.24607 0.0
N83 N 0.25505 0.18915 0.21752 0.0
N84 N 0.24773 0.18202 0.25221 0.0
N85 N 0.23853 0.3038 0.21928 0.0
C86 C 0.28077 0.31802 0.25686 0.0
O87 O 0.28831 0.35622 0.26846 0.0
C88 C 0.2033 0.30519 0.21522 0.0
O89 O 0.18996 0.34435 0.20524 0.0
C90 C 0.26144 0.35157 0.21645 0.0
C91 C 0.27616 0.45098 0.22124 0.0
C92 C 0.25377 0.40433 0.22394 0.0
C93 C 0.29102 0.3462 0.20582 0.0
C94 C 0.31379 0.39243 0.20303 0.0
C95 C 0.30623 0.44435 0.21099 0.0
C96 C 0.29019 0.18873 0.21322 0.0
O97 O 0.30321 0.15288 0.20206 0.0
C98 C 0.2318 0.14296 0.21338 0.0
C99 C 0.20198 0.15275 0.20332 0.0
C100 C 0.17823 0.10873 0.19965 0.0
C101 C 0.18547 0.05412 0.2058 0.0
C102 C 0.21638 0.04245 0.21507 0.0
C103 C 0.23916 0.08768 0.21912 0.0
C104 C 0.2762 0.1694 0.26359 0.0
C105 C 0.30882 0.15032 0.2574 0.0
C106 C 0.33802 0.14623 0.26826 0.0
C107 C 0.33381 0.15865 0.28559 0.0
C108 C 0.30043 0.17281 0.29211 0.0
C109 C 0.2717 0.1776 0.28109 0.0
C110 C 0.2184 0.31103 0.26568 0.0
C111 C 0.16262 0.33045 0.2884 0.0
C112 C 0.19528 0.31125 0.29455 0.0
C113 C 0.22307 0.302 0.28315 0.0
C114 C 0.18642 0.33377 0.25986 0.0
C115 C 0.15802 0.34257 0.27107 0.0
H116 H 0.13845 0.14524 0.25154 0.0
H117 H 0.10096 0.20328 0.23195 0.0
H118 H 0.12843 0.27948 0.21414 0.0
H119 H 0.35637 0.33472 0.2539 0.0
H120 H 0.39335 0.28279 0.23253 0.0
H121 H 0.36522 0.21349 0.21259 0.0
H122 H 0.23042 0.40896 0.23182 0.0
H123 H 0.29585 0.30621 0.19954 0.0
H124 H 0.32247 0.48113 0.2083 0.0
H125 H 0.1975 0.19473 0.19829 0.0
H126 H 0.16753 0.01985 0.20278 0.0
H127 H 0.26299 0.08007 0.22638 0.0
H128 H 0.31161 0.1391 0.24417 0.0
H129 H 0.35617 0.15477 0.29412 0.0
H130 H 0.24597 0.18895 0.2861 0.0
H131 H 0.14137 0.33901 0.2973 0.0
H132 H 0.24841 0.28784 0.2879 0.0
H133 H 0.18384 0.34563 0.24671 0.0
C134 C 0.71722 0.68181 0.25611 0.0
O135 O 0.7087 0.64533 0.26805 0.0
C136 C 0.69047 0.7086 0.24525 0.0
C137 C 0.65393 0.69932 0.24471 0.0
C138 C 0.63408 0.72899 0.23235 0.0
C139 C 0.65094 0.76605 0.22075 0.0
C140 C 0.68765 0.77237 0.22192 0.0
N141 N 0.70459 0.74519 0.2343 0.0
N142 N 0.75399 0.8143 0.25072 0.0
Co143 Co 0.75291 0.75193 0.23448 0.0
N144 N 0.80131 0.75848 0.23413 0.0
C145 C 0.85133 0.81199 0.24149 0.0
C146 C 0.87114 0.77833 0.23004 0.0
C147 C 0.8546 0.73513 0.22044 0.0
C148 C 0.81828 0.72658 0.22276 0.0
C149 C 0.81514 0.80073 0.24316 0.0
N150 N 0.7596 0.69012 0.21835 0.0
N151 N 0.75159 0.69769 0.25305 0.0
N152 N 0.74652 0.80578 0.21595 0.0
C153 C 0.78829 0.83198 0.25289 0.0
O154 O 0.79659 0.87505 0.2627 0.0
C155 C 0.71151 0.80725 0.21145 0.0
O156 O 0.69942 0.8431 0.20008 0.0
C157 C 0.76996 0.85217 0.21214 0.0
C158 C 0.78383 0.95308 0.21356 0.0
C159 C 0.76227 0.90713 0.21809 0.0
C160 C 0.79963 0.84353 0.20177 0.0
C161 C 0.82209 0.88894 0.19754 0.0
C162 C 0.81375 0.94353 0.20345 0.0
C163 C 0.79462 0.68678 0.21394 0.0
O164 O 0.80683 0.64644 0.20401 0.0
C165 C 0.73604 0.64276 0.21619 0.0
C166 C 0.70726 0.64706 0.20508 0.0
C167 C 0.68521 0.60018 0.20219 0.0
C168 C 0.69177 0.54939 0.21085 0.0
C169 C 0.72094 0.54357 0.22169 0.0
C170 C 0.74312 0.59065 0.22429 0.0
C171 C 0.77965 0.68531 0.26469 0.0
C172 C 0.81011 0.65657 0.25927 0.0
C173 C 0.8362 0.64089 0.27101 0.0
C174 C 0.83175 0.65484 0.28821 0.0
C175 C 0.80109 0.6826 0.29376 0.0
C176 C 0.77515 0.6975 0.28199 0.0
C177 C 0.72554 0.83488 0.26116 0.0
C178 C 0.67413 0.88586 0.28174 0.0
C179 C 0.70405 0.86155 0.28932 0.0
C180 C 0.72938 0.83535 0.27893 0.0
C181 C 0.69605 0.86128 0.25381 0.0
C182 C 0.6703 0.88657 0.26408 0.0
H183 H 0.64121 0.67006 0.25336 0.0
H184 H 0.60576 0.7228 0.23164 0.0
H185 H 0.63587 0.78822 0.21116 0.0
H186 H 0.86373 0.84609 0.24848 0.0
H187 H 0.89913 0.78625 0.22841 0.0
H188 H 0.86956 0.71009 0.21143 0.0
H189 H 0.73889 0.91445 0.22572 0.0
H190 H 0.8048 0.80162 0.1968 0.0
H191 H 0.8298 0.97943 0.19964 0.0
H192 H 0.70319 0.68596 0.19807 0.0
H193 H 0.67494 0.5131 0.20843 0.0
H194 H 0.76597 0.58679 0.23247 0.0
H195 H 0.81264 0.64346 0.24618 0.0
H196 H 0.85159 0.64215 0.29738 0.0
H197 H 0.75102 0.71757 0.28633 0.0
H198 H 0.65397 0.90566 0.28955 0.0
H199 H 0.75309 0.81791 0.28456 0.0
H200 H 0.69402 0.86545 0.24024 0.0
C201 C 0.03195 0.44645 0.50585 0.0
O202 O 0.03973 0.40898 0.51762 0.0
C203 C 0.05928 0.47223 0.49502 0.0
C204 C 0.09566 0.46145 0.49453 0.0
C205 C 0.11623 0.49052 0.48227 0.0
C206 C 0.10024 0.5287 0.47075 0.0
C207 C 0.06366 0.53691 0.47195 0.0
N208 N 0.04596 0.50966 0.48412 0.0
N209 N 0.99778 0.58107 0.50054 0.0
Co210 Co 0.99774 0.51871 0.48432 0.0
N211 N 0.9495 0.52755 0.48406 0.0
C212 C 0.90038 0.58281 0.49174 0.0
C213 C 0.87991 0.54984 0.4804 0.0
C214 C 0.89565 0.50599 0.47072 0.0
C215 C 0.93186 0.49607 0.47284 0.0
C216 C 0.93643 0.57029 0.49318 0.0
N217 N 0.98999 0.45762 0.46808 0.0
N218 N 0.99789 0.46392 0.50286 0.0
N219 N 0.00545 0.57263 0.4659 0.0
C220 C 0.96388 0.60025 0.50288 0.0
O221 O 0.95634 0.64222 0.51325 0.0
C222 C 0.04061 0.57342 0.46161 0.0
O223 O 0.05344 0.60916 0.45037 0.0
C224 C 0.98223 0.61899 0.46192 0.0
C225 C 0.96684 0.71947 0.46396 0.0
C226 C 0.98993 0.67428 0.46759 0.0
C227 C 0.95183 0.60925 0.45228 0.0
C228 C 0.92771 0.65314 0.44912 0.0
C229 C 0.93527 0.70769 0.45523 0.0
C230 C 0.95485 0.45545 0.46387 0.0
O231 O 0.94198 0.41591 0.45387 0.0
C232 C 0.01332 0.41026 0.46541 0.0
C233 C 0.04311 0.41602 0.45494 0.0
C234 C 0.06622 0.37014 0.45227 0.0
C235 C 0.05873 0.31809 0.46016 0.0
C236 C 0.02842 0.31102 0.47022 0.0
C237 C 0.00577 0.35738 0.47284 0.0
C238 C 0.96926 0.45065 0.51422 0.0
C239 C 0.9388 0.42301 0.50831 0.0
C240 C 0.91202 0.40687 0.51969 0.0
C241 C 0.91567 0.4193 0.53701 0.0
C242 C 0.94634 0.44564 0.54312 0.0
C243 C 0.97319 0.46041 0.53172 0.0
C244 C 0.02624 0.59593 0.51169 0.0
C245 C 0.0835 0.6142 0.53347 0.0
C246 C 0.05066 0.59779 0.54014 0.0
C247 C 0.0221 0.58924 0.52924 0.0
C248 C 0.0583 0.61649 0.50523 0.0
C249 C 0.08744 0.62455 0.51599 0.0
H250 H 0.10775 0.4315 0.50315 0.0
H251 H 0.14444 0.48308 0.48159 0.0
H252 H 0.11585 0.55051 0.46125 0.0
H253 H 0.88858 0.6173 0.49881 0.0
H254 H 0.85201 0.5588 0.47892 0.0
H255 H 0.88018 0.48149 0.4618 0.0
H256 H 0.0142 0.6819 0.4745 0.0
H257 H 0.9471 0.56735 0.44723 0.0
H258 H 0.91699 0.74184 0.4526 0.0
H259 H 0.04781 0.45602 0.44865 0.0
H260 H 0.07521 0.28153 0.45755 0.0
H261 H 0.98225 0.35233 0.48056 0.0
H262 H 0.93679 0.41086 0.49515 0.0
H263 H 0.89515 0.40648 0.54586 0.0
H264 H 0.99745 0.47869 0.53651 0.0
H265 H 0.10554 0.62118 0.54201 0.0
H266 H 0.99677 0.57643 0.5344 0.0
H267 H 0.06063 0.62607 0.49188 0.0
C268 C 0.21296 0.67528 0.75212 0.0
O269 O 0.20469 0.6347 0.76285 0.0
C270 C 0.18614 0.70357 0.74166 0.0
C271 C 0.14997 0.69189 0.74032 0.0
C272 C 0.13014 0.72279 0.72824 0.0
C273 C 0.14668 0.76359 0.7177 0.0
C274 C 0.18303 0.77242 0.71967 0.0
N275 N 0.19996 0.7435 0.73172 0.0
N276 N 0.24844 0.80973 0.7497 0.0
Co277 Co 0.24821 0.7514 0.7322 0.0
N278 N 0.29646 0.75942 0.73208 0.0
C279 C 0.34596 0.81159 0.74094 0.0
C280 C 0.36627 0.781 0.72892 0.0
C281 C 0.35019 0.74024 0.71824 0.0
C282 C 0.3138 0.73116 0.71999 0.0
C283 C 0.3098 0.7995 0.74211 0.0
N284 N 0.25561 0.6937 0.7148 0.0
N285 N 0.24721 0.69301 0.74968 0.0
N286 N 0.2415 0.80915 0.71479 0.0
C287 C 0.28253 0.82756 0.75243 0.0
O288 O 0.29033 0.86723 0.76353 0.0
C289 C 0.20659 0.81066 0.71016 0.0
O290 O 0.19426 0.84892 0.69958 0.0
C291 C 0.26438 0.85716 0.71229 0.0
C292 C 0.27957 0.95555 0.71833 0.0
C293 C 0.25688 0.90899 0.72036 0.0
C294 C 0.29357 0.85319 0.70136 0.0
C295 C 0.31626 0.89987 0.69895 0.0
C296 C 0.30966 0.95004 0.70806 0.0
C297 C 0.29062 0.693 0.71024 0.0
O298 O 0.30346 0.65502 0.69968 0.0
C299 C 0.23352 0.64453 0.7126 0.0
C300 C 0.20365 0.64688 0.70208 0.0
C301 C 0.18225 0.59865 0.69985 0.0
C302 C 0.19032 0.54889 0.7088 0.0
C303 C 0.22076 0.54524 0.71881 0.0
C304 C 0.24248 0.59302 0.72054 0.0
C305 C 0.27532 0.67652 0.76089 0.0
C306 C 0.30588 0.65008 0.75457 0.0
C307 C 0.33082 0.62668 0.76571 0.0
C308 C 0.32504 0.6301 0.78327 0.0
C309 C 0.29483 0.65689 0.7897 0.0
C310 C 0.27024 0.68026 0.77852 0.0
C311 C 0.22011 0.8233 0.76116 0.0
C312 C 0.16692 0.85507 0.78408 0.0
C313 C 0.19817 0.83057 0.79016 0.0
C314 C 0.22477 0.81539 0.77869 0.0
C315 C 0.18898 0.84874 0.75522 0.0
C316 C 0.16241 0.86521 0.76667 0.0
H317 H 0.13757 0.65966 0.74808 0.0
H318 H 0.10212 0.71463 0.72688 0.0
H319 H 0.13166 0.78662 0.70827 0.0
H320 H 0.358 0.84391 0.74878 0.0
H321 H 0.39429 0.78944 0.72771 0.0
H322 H 0.36556 0.71748 0.70885 0.0
H323 H 0.23351 0.91296 0.72823 0.0
H324 H 0.2976 0.81436 0.69431 0.0
H325 H 0.32704 0.9862 0.70652 0.0
H326 H 0.19813 0.68539 0.69511 0.0
H327 H 0.1739 0.51158 0.70724 0.0
H328 H 0.26627 0.59006 0.72807 0.0
H329 H 0.30938 0.64431 0.7411 0.0
H330 H 0.34409 0.61186 0.79199 0.0
H331 H 0.24621 0.69884 0.78354 0.0
H332 H 0.14656 0.86817 0.79298 0.0
H333 H 0.24937 0.79807 0.78342 0.0
H334 H 0.18622 0.85877 0.74192 0.0
C335 C 0.71368 0.17345 0.7536 0.0
O336 O 0.70542 0.13292 0.76435 0.0
C337 C 0.68691 0.20221 0.74317 0.0
C338 C 0.65067 0.19107 0.74179 0.0
C339 C 0.63082 0.22353 0.73007 0.0
C340 C 0.64738 0.26542 0.71993 0.0
C341 C 0.68378 0.27377 0.72193 0.0
N342 N 0.70075 0.24308 0.73356 0.0
N343 N 0.74732 0.30908 0.75283 0.0
Co344 Co 0.74885 0.25263 0.73469 0.0
N345 N 0.797 0.26226 0.73534 0.0
C346 C 0.84562 0.31212 0.74625 0.0
C347 C 0.86723 0.2825 0.73452 0.0
C348 C 0.85231 0.24319 0.723 0.0
C349 C 0.81572 0.23442 0.72364 0.0
C350 C 0.80929 0.30074 0.74621 0.0
N351 N 0.7582 0.19728 0.71684 0.0
N352 N 0.74778 0.19198 0.75143 0.0
N353 N 0.74219 0.31206 0.71783 0.0
C354 C 0.78103 0.32704 0.75637 0.0
O355 O 0.78769 0.36556 0.768 0.0
C356 C 0.70738 0.31368 0.71301 0.0
O357 O 0.69518 0.35258 0.70261 0.0
C358 C 0.76573 0.35911 0.71514 0.0
C359 C 0.78106 0.4584 0.71969 0.0
C360 C 0.75826 0.41227 0.7224 0.0
C361 C 0.79561 0.35271 0.70477 0.0
C362 C 0.81872 0.39846 0.70187 0.0
C363 C 0.81129 0.45086 0.70959 0.0
C364 C 0.79364 0.19681 0.71314 0.0
O365 O 0.80749 0.16061 0.70232 0.0
C366 C 0.73532 0.15072 0.71253 0.0
C367 C 0.70578 0.15995 0.70222 0.0
C368 C 0.68226 0.11563 0.69853 0.0
C369 C 0.6896 0.06121 0.70477 0.0
C370 C 0.72038 0.04997 0.71417 0.0
C371 C 0.74278 0.09554 0.71836 0.0
C372 C 0.77594 0.17663 0.76269 0.0
C373 C 0.80735 0.15318 0.75635 0.0
C374 C 0.83597 0.14254 0.7672 0.0
C375 C 0.83209 0.153 0.78466 0.0
C376 C 0.79995 0.17288 0.79121 0.0
C377 C 0.77196 0.18464 0.78023 0.0
C378 C 0.71752 0.3228 0.76343 0.0
C379 C 0.65859 0.34506 0.78397 0.0
C380 C 0.69015 0.32651 0.79143 0.0
C381 C 0.71946 0.31496 0.7811 0.0
C382 C 0.68678 0.3461 0.75639 0.0
C383 C 0.65674 0.35545 0.76646 0.0
H384 H 0.63818 0.15832 0.74932 0.0
H385 H 0.60275 0.21586 0.72872 0.0
H386 H 0.63232 0.28984 0.71084 0.0
H387 H 0.85689 0.34297 0.75484 0.0
H388 H 0.89542 0.29041 0.73426 0.0
H389 H 0.86872 0.22097 0.7139 0.0
H390 H 0.73472 0.41763 0.7301 0.0
H391 H 0.80035 0.31228 0.69873 0.0
H392 H 0.82779 0.48729 0.70684 0.0
H393 H 0.70132 0.20167 0.697 0.0
H394 H 0.67187 0.02669 0.70169 0.0
H395 H 0.76644 0.08817 0.72575 0.0
H396 H 0.80957 0.14321 0.74303 0.0
H397 H 0.85363 0.14369 0.7933 0.0
H398 H 0.74718 0.20023 0.78531 0.0
H399 H 0.63598 0.35457 0.79198 0.0
H400 H 0.74379 0.3002 0.78682 0.0
H401 H 0.68626 0.35761 0.74316 0.0
C402 C 0.53584 0.93777 0.50077 0.0
O403 O 0.54476 0.89523 0.51065 0.0
C404 C 0.56216 0.96923 0.49078 0.0
C405 C 0.59857 0.95978 0.48926 0.0
C406 C 0.61793 0.99443 0.47789 0.0
C407 C 0.60073 0.03671 0.4682 0.0
C408 C 0.56419 0.04323 0.47031 0.0
N409 N 0.54768 1.0106 0.48165 0.0
N410 N 0.49933 0.07167 0.50136 0.0
Co411 Co 0.49937 0.01734 0.4827 0.0
N412 N 0.45106 0.02424 0.48323 0.0
C413 C 0.40145 0.07277 0.49372 0.0
C414 C 0.3809 0.04417 0.48139 0.0
C415 C 0.3969 1.00632 0.46974 0.0
C416 C 0.43343 0.99783 0.4709 0.0
C417 C 0.43779 0.06169 0.49418 0.0
N418 N 0.49174 0.96354 0.46424 0.0
N419 N 0.50136 0.95492 0.49888 0.0
N420 N 0.50518 0.07927 0.4665 0.0
C421 C 0.46523 0.08815 0.50475 0.0
O422 O 0.45751 0.12494 0.51673 0.0
C423 C 0.54001 0.0828 0.46173 0.0
O424 O 0.55177 0.12358 0.45184 0.0
C425 C 0.48195 0.12739 0.4651 0.0
C426 C 0.46866 0.22645 0.47154 0.0
C427 C 0.4905 0.1787 0.4733 0.0
C428 C 0.45214 0.1249 0.45454 0.0
C429 C 0.43042 0.17276 0.45245 0.0
C430 C 0.43822 0.22243 0.46151 0.0
C431 C 0.45653 0.96253 0.46015 0.0
O432 O 0.44369 0.92715 0.44883 0.0
C433 C 0.51514 0.91745 0.46 0.0
C434 C 0.54531 0.92753 0.45014 0.0
C435 C 0.56921 0.88361 0.44645 0.0
C436 C 0.56178 0.82882 0.45247 0.0
C437 C 0.53068 0.81684 0.46161 0.0
C438 C 0.50768 0.86191 0.46554 0.0
C439 C 0.4735 0.93367 0.50956 0.0
C440 C 0.4443 0.90536 0.50253 0.0
C441 C 0.41996 0.87725 0.51306 0.0
C442 C 0.42505 0.87783 0.53069 0.0
C443 C 0.45396 0.90608 0.53783 0.0
C444 C 0.47791 0.93426 0.52727 0.0
C445 C 0.52798 0.08245 0.51287 0.0
C446 C 0.58415 0.09975 0.53539 0.0
C447 C 0.55178 0.07907 0.54152 0.0
C448 C 0.52391 0.07022 0.53019 0.0
C449 C 0.55967 0.1066 0.50709 0.0
C450 C 0.58834 0.11407 0.51818 0.0
H451 H 0.61154 0.92661 0.4964 0.0
H452 H 0.64612 0.98808 0.47644 0.0
H453 H 0.6154 0.06271 0.45933 0.0
H454 H 0.38943 0.1029 0.50233 0.0
H455 H 0.35274 0.05197 0.4807 0.0
H456 H 0.38133 0.98522 0.4601 0.0
H457 H 0.51438 0.18156 0.48084 0.0
H458 H 0.44709 0.08679 0.44729 0.0
H459 H 0.42173 0.25959 0.45986 0.0
H460 H 0.54992 0.9697 0.44528 0.0
H461 H 0.57984 0.79467 0.44952 0.0
H462 H 0.48362 0.85383 0.47257 0.0
H463 H 0.44146 0.90214 0.48896 0.0
H464 H 0.40633 0.85642 0.53894 0.0
H465 H 0.50099 0.95417 0.53277 0.0
H466 H 0.60552 0.10761 0.54425 0.0
H467 H 0.49893 0.054 0.53489 0.0
H468 H 0.56192 0.12012 0.49407 0.0
C469 C 0.52512 0.47446 0.00688 0.0
O470 O 0.53316 0.43491 0.01798 0.0
C471 C 0.55206 0.50125 -0.00395 0.0
C472 C 0.5883 0.48978 0.99491 0.0
C473 C 0.60841 0.52027 0.98279 0.0
C474 C 0.59211 0.56056 0.97203 0.0
C475 C 0.55569 0.56937 0.97384 0.0
N476 N 0.53846 0.5406 0.98586 0.0
N477 N 0.49198 0.61037 0.00397 0.0
Co478 Co 0.49038 0.55078 0.98685 0.0
N479 N 0.44228 0.56087 0.98736 0.0
C480 C 0.39389 0.61409 -0.00291 0.0
C481 C 0.3723 0.58256 0.98585 0.0
C482 C 0.38715 0.54062 0.97515 0.0
C483 C 0.42363 0.53129 0.97608 0.0
C484 C 0.43009 0.60187 -0.00258 0.0
N485 N 0.48111 0.49275 0.96985 0.0
N486 N 0.49106 0.49307 0.00456 0.0
N487 N 0.49748 0.60718 0.96914 0.0
C488 C 0.45838 0.62973 0.00711 0.0
O489 O 0.45181 0.66982 0.01828 0.0
C490 C 0.53238 0.60809 0.9644 0.0
O491 O 0.5448 0.64521 0.95346 0.0
C492 C 0.47395 0.65345 0.96559 0.0
C493 C 0.45866 0.75342 0.96811 0.0
C494 C 0.4809 0.70783 0.97219 0.0
C495 C 0.44522 0.64531 0.95464 0.0
C496 C 0.42232 0.69039 0.95074 0.0
C497 C 0.42864 0.7435 0.95812 0.0
C498 C 0.4457 0.49191 0.96615 0.0
O499 O 0.43188 0.45425 0.9558 0.0
C500 C 0.50387 0.44555 0.96607 0.0
C501 C 0.53243 0.45216 0.95484 0.0
C502 C 0.554 0.40569 0.95059 0.0
C503 C 0.5458 0.3522 0.95733 0.0
C504 C 0.51675 0.34463 0.96814 0.0
C505 C 0.49624 0.39161 0.97277 0.0
C506 C 0.46275 0.47744 0.01583 0.0
C507 C 0.43263 0.4495 0.00964 0.0
C508 C 0.40657 0.42973 0.02088 0.0
C509 C 0.41035 0.43953 0.03834 0.0
C510 C 0.44061 0.46631 0.0447 0.0
C511 C 0.46696 0.48426 0.03344 0.0
C512 C 0.52113 0.62226 0.01503 0.0
C513 C 0.57956 0.63484 0.03644 0.0
C514 C 0.54677 0.61876 0.04322 0.0
C515 C 0.51764 0.61293 0.03252 0.0
C516 C 0.55326 0.64243 0.00853 0.0
C517 C 0.583 0.64748 0.01908 0.0
H518 H 0.6006 0.45828 0.00295 0.0
H519 H 0.6365 0.51236 0.98163 0.0
H520 H 0.60738 0.58353 0.96265 0.0
H521 H 0.38271 0.64699 0.00502 0.0
H522 H 0.3442 0.59105 0.9853 0.0
H523 H 0.37076 0.51699 0.9664 0.0
H524 H 0.5042 0.71481 0.97991 0.0
H525 H 0.44177 0.60441 0.94865 0.0
H526 H 0.41091 0.77848 0.9555 0.0
H527 H 0.5373 0.49311 0.94914 0.0
H528 H 0.56093 0.31537 0.95344 0.0
H529 H 0.47344 0.38582 0.98092 0.0
H530 H 0.43047 0.43967 -0.00369 0.0
H531 H 0.39035 0.42407 0.04709 0.0
H532 H 0.49107 0.50247 0.0384 0.0
H533 H 0.60201 0.63977 0.04486 0.0
H534 H 0.49236 0.60024 0.03776 0.0
H535 H 0.55513 0.65402 -0.00468 0.0
C536 C 0.07246 0.0452 0.07003 0.0
C537 C 0.04802 0.07654 0.06052 0.0
C538 C 0.07021 0.04417 0.0877 0.0
C539 C 0.04953 0.14079 0.12077 0.0
H540 H 0.07503 0.01471 0.1498 0.0
C541 C 0.11589 0.08764 0.19042 0.0
C542 C 0.14773 0.11765 0.18805 0.0
C543 C 0.09021 0.08661 0.17768 0.0
C544 C 0.06706 0.05031 0.14202 0.0
H545 H 0.00079 0.12837 0.06177 0.0
H546 H 0.9975 0.12798 0.09288 0.0
H547 H 0.05262 0.99644 0.12122 0.0
H548 H 0.17594 0.17422 0.17101 0.0
H549 H 0.13082 0.17376 0.14915 0.0
H550 H 0.06665 0.19473 0.14104 0.0
C551 C 0.01807 0.10377 0.08662 0.0
C552 C 0.05445 0.0398 0.12566 0.0
C553 C 0.01997 0.10397 0.06889 0.0
C554 C 0.15173 0.15098 0.17339 0.0
C555 C 0.12582 0.15067 0.1608 0.0
C556 C 0.06255 0.15131 0.13705 0.0
C557 C 0.04381 0.07523 0.09617 0.0
C558 C 0.04715 0.08502 0.11464 0.0
C559 C 0.09554 0.11662 0.16252 0.0
C560 C 0.07295 0.10619 0.14751 0.0
H561 H 0.09408 0.02332 0.0638 0.0
H562 H 0.09061 0.02227 0.09477 0.0
H563 H 0.04427 0.17644 0.11249 0.0
H564 H 0.11151 0.06278 0.20179 0.0
H565 H 0.0669 0.06049 0.17936 0.0
C566 C 0.93316 0.96528 0.06797 0.0
C567 C 0.95765 0.9341 0.05842 0.0
C568 C 0.93416 0.96368 0.08566 0.0
C569 C 0.95092 0.86221 0.11799 0.0
H570 H 0.92634 0.98658 0.14793 0.0
C571 C 0.84861 0.84798 0.17102 0.0
C572 C 0.85235 0.88137 0.18568 0.0
C573 C 0.87437 0.84932 0.1583 0.0
C574 C 0.93397 0.95134 0.13991 0.0
H575 H 0.00359 0.87953 0.05954 0.0
H576 H 0.00465 0.87513 0.09072 0.0
H577 H 0.95034 1.00651 0.11974 0.0
H578 H 0.8878 0.93771 0.19925 0.0
H579 H 0.93237 0.94109 0.17675 0.0
H580 H 0.93224 0.80709 0.13768 0.0
C581 C 0.98505 0.90133 0.0845 0.0
C582 C 0.94752 0.96284 0.12376 0.0
C583 C 0.98445 0.90385 0.06675 0.0
C584 C 0.88374 0.9126 0.1879 0.0
C585 C 0.90934 0.91437 0.17509 0.0
C586 C 0.93704 0.85071 0.13408 0.0
C587 C 0.95927 0.93001 0.09408 0.0
C588 C 0.95461 0.91842 0.1124 0.0
C589 C 0.9043 0.88427 0.15992 0.0
C590 C 0.92698 0.89523 0.14489 0.0
H591 H 0.9124 0.98905 0.06173 0.0
H592 H 0.91374 0.9857 0.09272 0.0
H593 H 0.95601 0.82716 0.10945 0.0
H594 H 0.82472 0.82381 0.16881 0.0
H595 H 0.86954 0.8261 0.14666 0.0
C596 C 0.09186 0.4034 0.42455 0.0
C597 C 0.09607 0.37401 0.43994 0.0
C598 C 0.11723 0.39891 0.41172 0.0
C599 C 0.17595 0.29398 0.39465 0.0
H600 H 0.20046 0.41384 0.3631 0.0
C601 C 0.22802 0.33374 0.3213 0.0
C602 C 0.20061 0.30452 0.31304 0.0
C603 C 0.22883 0.33659 0.33904 0.0
C604 C 0.19469 0.37994 0.37196 0.0
H605 H 0.13207 0.3212 0.45444 0.0
H606 H 0.17569 0.31167 0.43167 0.0
H607 H 0.17637 0.4379 0.39099 0.0
H608 H 0.15483 0.25076 0.31662 0.0
H609 H 0.15641 0.25504 0.34757 0.0
H610 H 0.19178 0.23597 0.37509 0.0
C611 C 0.15262 0.33798 0.42962 0.0
C612 C 0.18064 0.39375 0.38785 0.0
C613 C 0.1275 0.3432 0.44258 0.0
C614 C 0.17598 0.27402 0.32274 0.0
C615 C 0.17712 0.27608 0.34043 0.0
C616 C 0.18959 0.28015 0.37867 0.0
C617 C 0.1472 0.3645 0.4139 0.0
C618 C 0.16979 0.35086 0.39905 0.0
C619 C 0.2026 0.3094 0.34873 0.0
C620 C 0.19767 0.32301 0.36693 0.0
H621 H 0.06794 0.42699 0.42193 0.0
H622 H 0.11215 0.41933 0.39965 0.0
H623 H 0.16766 0.26003 0.40302 0.0
H624 H 0.24737 0.3575 0.31405 0.0
H625 H 0.2488 0.36234 0.34517 0.0
C626 C 0.82001 0.72123 0.32172 0.0
C627 C 0.7951 0.69145 0.31206 0.0
C628 C 0.81746 0.7219 0.33938 0.0
C629 C 0.80121 0.72568 0.37726 0.0
H630 H 0.81168 0.56971 0.39194 0.0
C631 C 0.86464 0.67393 0.4411 0.0
C632 C 0.89632 0.64415 0.43809 0.0
C633 C 0.83809 0.67541 0.42878 0.0
C634 C 0.808 0.61342 0.38816 0.0
H635 H 0.74692 0.64189 0.31292 0.0
H636 H 0.7431 0.6414 0.34404 0.0
H637 H 0.78912 0.59 0.36355 0.0
H638 H 0.92327 0.58807 0.42045 0.0
H639 H 0.87666 0.58927 0.39933 0.0
H640 H 0.82251 0.74902 0.40141 0.0
C641 C 0.76421 0.66485 0.33792 0.0
C642 C 0.7949 0.62509 0.37197 0.0
C643 C 0.7664 0.66514 0.3202 0.0
C644 C 0.89925 0.61118 0.42329 0.0
C645 C 0.87247 0.6119 0.41114 0.0
C646 C 0.81389 0.71404 0.39353 0.0
C647 C 0.79033 0.69186 0.34765 0.0
C648 C 0.79326 0.6812 0.36608 0.0
C649 C 0.84239 0.64601 0.41344 0.0
C650 C 0.81921 0.65773 0.39875 0.0
H651 H 0.84225 0.74192 0.31562 0.0
H652 H 0.83818 0.74249 0.34659 0.0
H653 H 0.79999 0.76927 0.373 0.0
H654 H 0.86109 0.69844 0.4526 0.0
H655 H 0.81496 0.70158 0.43091 0.0
C656 C 0.06579 0.54936 0.5672 0.0
C657 C 0.04619 0.59058 0.55857 0.0
C658 C 0.06477 0.5468 0.58489 0.0
C659 C 0.06207 0.64301 0.61942 0.0
H660 H 0.06517 0.50683 0.64685 0.0
C661 C 0.13046 0.64297 0.68467 0.0
C662 C 0.15392 0.59742 0.68683 0.0
C663 C 0.10503 0.6417 0.67176 0.0
C664 C 0.06426 0.54535 0.63939 0.0
H665 H 0.00875 0.65937 0.5612 0.0
H666 H 0.00803 0.6564 0.59239 0.0
H667 H 0.04078 0.50275 0.61815 0.0
H668 H 0.16939 0.5152 0.67696 0.0
H669 H 0.12592 0.51329 0.65454 0.0
H670 H 0.08823 0.68475 0.63991 0.0
C671 C 0.02367 0.62562 0.58547 0.0
C672 C 0.0501 0.54297 0.62304 0.0
C673 C 0.02414 0.62739 0.56773 0.0
C674 C 0.15117 0.55043 0.67595 0.0
C675 C 0.12601 0.54922 0.66309 0.0
C676 C 0.07664 0.64526 0.63568 0.0
C677 C 0.04467 0.58618 0.59419 0.0
C678 C 0.05036 0.59125 0.61267 0.0
C679 C 0.10281 0.59499 0.66069 0.0
C680 C 0.07949 0.59581 0.64552 0.0
H681 H 0.08275 0.52041 0.56027 0.0
H682 H 0.0815 0.51639 0.59132 0.0
H683 H 0.06276 0.68077 0.61161 0.0
H684 H 0.13188 0.67962 0.69287 0.0
H685 H 0.08748 0.6776 0.6703 0.0
C686 C 0.84414 0.36332 0.6743 0.0
C687 C 0.84843 0.39404 0.68947 0.0
C688 C 0.86928 0.36714 0.66134 0.0
C689 C 0.92613 0.47177 0.64309 0.0
H690 H 0.95254 0.34955 0.6127 0.0
C691 C 0.92475 0.48218 0.57095 0.0
C692 C 0.95089 0.45389 0.56157 0.0
C693 C 0.92567 0.48181 0.58865 0.0
C694 C 0.9462 0.38413 0.62123 0.0
H695 H 0.8844 0.44857 0.70344 0.0
H696 H 0.92748 0.4571 0.68039 0.0
H697 H 0.92922 0.32759 0.64092 0.0
H698 H -0.0003 0.40616 0.56311 0.0
H699 H 0.00069 0.40392 0.59429 0.0
H700 H 0.94042 0.52815 0.62284 0.0
C701 C 0.90457 0.43018 0.67864 0.0
C702 C 0.93263 0.37152 0.6373 0.0
C703 C 0.87973 0.42556 0.69175 0.0
C704 C 0.97925 0.42825 0.57013 0.0
C705 C 0.97981 0.42691 0.5879 0.0
C706 C 0.9392 0.48435 0.62691 0.0
C707 C 0.89904 0.40225 0.66315 0.0
C708 C 0.92117 0.41517 0.6481 0.0
C709 C 0.95241 0.45225 0.59728 0.0
C710 C 0.94799 0.44054 0.61561 0.0
H711 H 0.82032 0.33916 0.67193 0.0
H712 H 0.86414 0.34564 0.64944 0.0
H713 H 0.91731 0.50624 0.65113 0.0
H714 H 0.90277 0.50246 0.56457 0.0
H715 H 0.90404 0.50122 0.59558 0.0
C716 C 0.23154 0.85364 0.81661 0.0
C717 C 0.20363 0.82488 0.80862 0.0
C718 C 0.23282 0.8571 0.83434 0.0
C719 C 0.19532 0.80114 0.87427 0.0
H720 H 0.18286 0.95869 0.88701 0.0
C721 C 0.13496 0.86024 0.93849 0.0
C722 C 0.10307 0.88985 0.93595 0.0
C723 C 0.16031 0.85717 0.92558 0.0
C724 C 0.18699 0.9146 0.88374 0.0
H725 H 0.15708 0.77321 0.81258 0.0
H726 H 0.15964 0.77813 0.84355 0.0
H727 H 0.20543 0.93506 0.85878 0.0
H728 H 0.07452 0.94394 0.91841 0.0
H729 H 0.11908 0.9399 0.89619 0.0
H730 H 0.17477 0.78057 0.89883 0.0
C731 C 0.18038 0.79831 0.83621 0.0
C732 C 0.20013 0.90105 0.86765 0.0
C733 C 0.17871 0.79581 0.81853 0.0
C734 C 0.09877 0.92103 0.9209 0.0
C735 C 0.12435 0.91865 0.90811 0.0
C736 C 0.18265 0.81469 0.89044 0.0
C737 C 0.20662 0.83082 0.84425 0.0
C738 C 0.20274 0.84421 0.86251 0.0
C739 C 0.1546 0.88467 0.91004 0.0
C740 C 0.17674 0.8715 0.89501 0.0
H741 H 0.25101 0.87639 0.80915 0.0
H742 H 0.25328 0.88236 0.84027 0.0
H743 H 0.19723 0.75703 0.87058 0.0
H744 H 0.13954 0.83701 0.95014 0.0
H745 H 0.18362 0.83124 0.92746 0.0
C746 C 0.81373 0.22325 0.81806 0.0
C747 C 0.79579 0.17966 0.80964 0.0
C748 C 0.81468 0.2244 0.83576 0.0
C749 C 0.80517 0.2242 0.87415 0.0
H750 H 0.84668 0.08398 0.89027 0.0
C751 C 0.88608 0.12615 0.93582 0.0
C752 C 0.90886 0.17245 0.93828 0.0
C753 C 0.86136 0.12662 0.92259 0.0
C754 C 0.83424 0.123 0.88622 0.0
H755 H 0.76342 0.10478 0.81265 0.0
H756 H 0.7657 0.10593 0.84382 0.0
H757 H 0.82031 0.08754 0.86215 0.0
H758 H 0.92388 0.25516 0.92862 0.0
H759 H 0.88146 0.2558 0.9057 0.0
H760 H 0.82027 0.26029 0.89797 0.0
C761 C 0.77866 0.13944 0.83677 0.0
C762 C 0.81913 0.12503 0.87006 0.0
C763 C 0.77728 0.13882 0.81904 0.0
C764 C 0.90614 0.21936 0.92738 0.0
C765 C 0.88164 0.21982 0.91422 0.0
C766 C 0.81996 0.22204 0.89037 0.0
C767 C 0.7982 0.18138 0.84527 0.0
C768 C 0.8059 0.17627 0.86361 0.0
C769 C 0.85913 0.17333 0.91154 0.0
C770 C 0.8362 0.17214 0.89625 0.0
H771 H 0.82824 0.25492 0.81093 0.0
H772 H 0.83029 0.25683 0.84197 0.0
H773 H 0.79468 0.26401 0.86953 0.0
H774 H 0.88747 0.08956 0.94402 0.0
H775 H 0.84431 0.0902 0.9209 0.0
C776 C 0.61997 0.09426 0.6894 0.0
C777 C 0.65185 0.12397 0.68685 0.0
C778 C 0.59436 0.09227 0.67664 0.0
C779 C 0.56682 0.15347 0.6355 0.0
H780 H 0.5549 0.9972 0.62132 0.0
C781 C 0.51946 0.09992 0.56849 0.0
C782 C 0.54665 0.07093 0.55995 0.0
C783 C 0.51881 0.10155 0.58624 0.0
C784 C 0.55732 0.04097 0.62529 0.0
H785 H 0.68023 0.17911 0.66948 0.0
H786 H 0.63523 0.17686 0.64751 0.0
H787 H 0.57866 0.01806 0.64947 0.0
H788 H 0.59233 0.01672 0.56299 0.0
H789 H 0.59093 0.01869 0.59399 0.0
H790 H 0.54761 0.17631 0.6109 0.0
C791 C 0.63015 0.15476 0.65933 0.0
C792 C 0.57072 0.05297 0.64142 0.0
C793 C 0.65598 0.1561 0.67196 0.0
C794 C 0.5713 0.03963 0.56935 0.0
C795 C 0.57028 0.04044 0.58705 0.0
C796 C 0.55301 0.14147 0.61947 0.0
C797 C 0.59982 0.12092 0.66126 0.0
C798 C 0.57718 0.1093 0.64634 0.0
C799 C 0.54493 0.07331 0.59564 0.0
C800 C 0.54976 0.08511 0.61393 0.0
H801 H 0.61554 0.0703 0.70094 0.0
H802 H 0.57099 0.06641 0.67851 0.0
H803 H 0.57135 0.19722 0.63905 0.0
H804 H 0.50018 0.1244 0.56146 0.0
H805 H 0.49899 0.12707 0.59259 0.0
C806 C 0.46267 0.85169 0.56449 0.0
C807 C 0.45923 0.90415 0.55635 0.0
C808 C 0.46139 0.8483 0.58215 0.0
C809 C 0.45366 0.93471 0.62203 0.0
H810 H 0.39078 0.81211 0.63495 0.0
C811 C 0.3517 0.94676 0.67589 0.0
C812 C 0.34476 0.89845 0.68585 0.0
C813 C 0.37626 0.94483 0.66267 0.0
C814 C 0.409 0.84587 0.63171 0.0
H815 H 0.45458 0.99463 0.55998 0.0
H816 H 0.45053 0.98892 0.59089 0.0
H817 H 0.41588 0.81374 0.6067 0.0
H818 H 0.35951 0.81075 0.68991 0.0
H819 H 0.40174 0.80699 0.66645 0.0
H820 H 0.44423 0.96864 0.64691 0.0
C821 C 0.45502 0.95029 0.5838 0.0
C822 C 0.4236 0.84684 0.61545 0.0
C823 C 0.45707 0.95371 0.56609 0.0
C824 C 0.36383 0.84854 0.68246 0.0
C825 C 0.38819 0.84646 0.66908 0.0
C826 C 0.43862 0.93406 0.63829 0.0
C827 C 0.45562 0.89719 0.592 0.0
C828 C 0.44535 0.89204 0.61021 0.0
C829 C 0.39418 0.89437 0.65889 0.0
C830 C 0.41538 0.89037 0.64309 0.0
H831 H 0.46496 0.81306 0.55713 0.0
H832 H 0.46319 0.80694 0.58802 0.0
H833 H 0.47084 0.96959 0.61857 0.0
H834 H 0.33701 0.98564 0.67774 0.0
H835 H 0.37973 0.98208 0.65481 0.0
C836 C 0.61413 0.37905 0.93967 0.0
C837 C 0.58275 0.41046 0.93777 0.0
C838 C 0.63786 0.37347 0.92616 0.0
C839 C 0.66175 0.42693 0.88346 0.0
H840 H 0.67524 0.26814 0.87244 0.0
C841 C 0.66709 0.29416 0.81949 0.0
C842 C 0.69266 0.3239 0.81013 0.0
C843 C 0.66482 0.30096 0.83706 0.0
C844 C 0.6722 0.31264 0.87548 0.0
H845 H 0.55324 0.46451 0.92062 0.0
H846 H 0.59498 0.45566 0.89716 0.0
H847 H 0.65076 0.29462 0.90005 0.0
H848 H 0.7372 0.38133 0.81171 0.0
H849 H 0.73278 0.39419 0.84257 0.0
H850 H 0.6816 0.4447 0.85853 0.0
C851 C 0.60115 0.43515 0.9091 0.0
C852 C 0.6584 0.32787 0.89131 0.0
C853 C 0.57722 0.44031 0.92257 0.0
C854 C 0.71738 0.35776 0.81872 0.0
C855 C 0.71473 0.36536 0.8363 0.0
C856 C 0.67598 0.4117 0.86771 0.0
C857 C 0.63094 0.39984 0.91054 0.0
C858 C 0.65187 0.38507 0.89522 0.0
C859 C 0.68773 0.33834 0.84553 0.0
C860 C 0.68014 0.35433 0.86336 0.0
H861 H 0.61952 0.35655 0.95137 0.0
H862 H 0.6609 0.34669 0.92769 0.0
H863 H 0.65718 0.4713 0.88619 0.0
H864 H 0.64779 0.26782 0.81309 0.0
H865 H 0.64358 0.27995 0.84383 0.0
C866 C 0.37514 0.63336 0.93581 0.0
C867 C 0.39409 0.68425 0.9377 0.0
C868 C 0.35069 0.62695 0.92264 0.0
C869 C 0.30039 0.70456 0.88956 0.0
H870 H 0.32568 0.5773 0.86098 0.0
C871 C 0.28933 0.70932 0.81706 0.0
C872 C 0.28852 0.65801 0.80813 0.0
C873 C 0.28929 0.70919 0.83481 0.0
C874 C 0.3172 0.61227 0.86889 0.0
H875 H 0.4018 0.76838 0.92702 0.0
H876 H 0.35895 0.75745 0.90451 0.0
H877 H 0.34872 0.58263 0.88952 0.0
H878 H 0.28311 0.56713 0.81023 0.0
H879 H 0.2812 0.56668 0.84119 0.0
H880 H 0.26968 0.73515 0.86867 0.0
C881 C 0.36245 0.7229 0.91341 0.0
C882 C 0.3306 0.61528 0.88532 0.0
C883 C 0.38711 0.72907 0.92639 0.0
C884 C 0.28445 0.60705 0.817 0.0
C885 C 0.28357 0.60692 0.8347 0.0
C886 C 0.28654 0.70123 0.87313 0.0
C887 C 0.34452 0.67147 0.91117 0.0
C888 C 0.32352 0.6625 0.89557 0.0
C889 C 0.28787 0.65767 0.84385 0.0
C890 C 0.29597 0.65613 0.86234 0.0
H891 H 0.3796 0.59814 0.94429 0.0
H892 H 0.33721 0.58676 0.92115 0.0
H893 H 0.29424 0.7412 0.89731 0.0
H894 H 0.2922 0.74912 0.81034 0.0
H895 H 0.29274 0.74917 0.84133 0.0
C896 C 0.52185 0.64541 0.07142 0.0
C897 C 0.54305 0.60922 0.06159 0.0
C898 C 0.52257 0.64186 0.08913 0.0
C899 C 0.5514 0.55497 0.12545 0.0
H900 H 0.59056 0.69488 0.14316 0.0
C901 C 0.65495 0.55642 0.17733 0.0
C902 C 0.65753 0.60155 0.18889 0.0
C903 C 0.6297 0.55707 0.16451 0.0
C904 C 0.57875 0.65586 0.13869 0.0
H905 H 0.57927 0.53838 0.06209 0.0
H906 H 0.58009 0.53122 0.09307 0.0
H907 H 0.56328 0.69399 0.11521 0.0
H908 H 0.63538 0.68252 0.19615 0.0
H909 H 0.59085 0.68391 0.1736 0.0
H910 H 0.56806 0.51624 0.14864 0.0
C911 C 0.5631 0.5625 0.08719 0.0
C912 C 0.56311 0.65538 0.12264 0.0
C913 C 0.56292 0.56681 0.06953 0.0
C914 C 0.63407 0.64736 0.18739 0.0
C915 C 0.60856 0.64799 0.17451 0.0
C916 C 0.56665 0.55555 0.14158 0.0
C917 C 0.54394 0.60127 0.09715 0.0
C918 C 0.55094 0.60437 0.11557 0.0
C919 C 0.60626 0.60291 0.16286 0.0
C920 C 0.58223 0.60535 0.14798 0.0
H921 H 0.50631 0.67835 0.06543 0.0
H922 H 0.50762 0.67217 0.09657 0.0
H923 H 0.54175 0.51528 0.12032 0.0
H924 H 0.67318 0.52107 0.17789 0.0
H925 H 0.62952 0.52246 0.15548 0.0
C926 C 0.3387 0.36015 0.17506 0.0
C927 C 0.34329 0.38911 0.19051 0.0
C928 C 0.36352 0.36566 0.16201 0.0
C929 C 0.42029 0.47317 0.14492 0.0
H930 H 0.44531 0.3562 0.11248 0.0
C931 C 0.41955 0.49847 0.07306 0.0
C932 C 0.44536 0.47116 0.06323 0.0
C933 C 0.42021 0.49425 0.09072 0.0
C934 C 0.43933 0.38928 0.12158 0.0
H935 H 0.37949 0.44195 0.20489 0.0
H936 H 0.42214 0.45321 0.18177 0.0
H937 H 0.42222 0.32954 0.14038 0.0
H938 H 0.49326 0.42097 0.06393 0.0
H939 H 0.49383 0.41206 0.09501 0.0
H940 H 0.43484 0.5329 0.12562 0.0
C941 C 0.3992 0.4265 0.17983 0.0
C942 C 0.42588 0.37401 0.13747 0.0
C943 C 0.37464 0.42029 0.193 0.0
C944 C 0.47315 0.44247 0.07133 0.0
C945 C 0.47343 0.43728 0.08903 0.0
C946 C 0.43326 0.48844 0.12894 0.0
C947 C 0.39329 0.40064 0.16405 0.0
C948 C 0.41499 0.41584 0.14904 0.0
C949 C 0.44633 0.46174 0.09882 0.0
C950 C 0.4416 0.44661 0.11691 0.0
H951 H 0.31482 0.33625 0.17257 0.0
H952 H 0.3581 0.34569 0.1499 0.0
H953 H 0.41189 0.50631 0.15355 0.0
H954 H 0.39794 0.52083 0.06702 0.0
H955 H 0.3988 0.51304 0.09794 0.0
C956 C 0.63165 0.86137 0.43729 0.0
C957 C 0.60034 0.89302 0.43514 0.0
C958 C 0.65795 0.86157 0.42479 0.0
C959 C 0.67913 0.8341 0.38743 0.0
H960 H 0.71916 0.96622 0.36543 0.0
C961 C 0.7223 0.82161 0.31772 0.0
C962 C 0.70938 0.86691 0.30794 0.0
C963 C 0.72358 0.82582 0.33547 0.0
C964 C 0.70819 0.92878 0.37138 0.0
H965 H 0.57399 0.95372 0.41872 0.0
H966 H 0.62065 0.95606 0.39747 0.0
H967 H 0.69271 0.97527 0.3936 0.0
H968 H 0.69108 0.95392 0.30898 0.0
H969 H 0.69122 0.96019 0.33952 0.0
H970 H 0.69093 0.78857 0.36472 0.0
C971 C 0.62438 0.93038 0.40873 0.0
C972 C 0.69341 0.93403 0.38757 0.0
C973 C 0.59767 0.92912 0.42099 0.0
C974 C 0.7001 0.91756 0.31616 0.0
C975 C 0.70096 0.92156 0.33377 0.0
C976 C 0.69314 0.82908 0.37107 0.0
C977 C 0.65402 0.89496 0.41021 0.0
C978 C 0.6775 0.8872 0.39541 0.0
C979 C 0.71179 0.87531 0.34375 0.0
C980 C 0.70619 0.87705 0.36249 0.0
H981 H 0.63524 0.8345 0.44829 0.0
H982 H 0.68074 0.83417 0.4262 0.0
H983 H 0.66681 0.79744 0.39324 0.0
H984 H 0.72998 0.78216 0.31175 0.0
H985 H 0.73271 0.78968 0.34269 0.0
C986 C 0.37893 0.12861 0.43695 0.0
C987 C 0.40243 0.17406 0.43926 0.0
C988 C 0.35386 0.12999 0.42387 0.0
C989 C 0.31399 0.22688 0.39138 0.0
H990 H 0.31178 0.09146 0.36358 0.0
C991 C 0.31552 0.2221 0.31911 0.0
C992 C 0.2956 0.18111 0.31051 0.0
C993 C 0.3145 0.22502 0.3368 0.0
C994 C 0.3113 0.12925 0.37139 0.0
H995 H 0.41839 0.25614 0.42948 0.0
H996 H 0.37553 0.25825 0.40678 0.0
H997 H 0.33718 0.08717 0.3919 0.0
H998 H 0.25747 0.11329 0.31327 0.0
H999 H 0.25672 0.11691 0.34445 0.0
H1000 H 0.29078 0.26976 0.37012 0.0
C1001 C 0.3753 0.22233 0.41533 0.0
C1002 C 0.32584 0.12682 0.38766 0.0
C1003 C 0.40011 0.221 0.42835 0.0
C1004 C 0.27311 0.14511 0.31974 0.0
C1005 C 0.27264 0.14721 0.33748 0.0
C1006 C 0.29989 0.22943 0.37501 0.0
C1007 C 0.35202 0.17671 0.41279 0.0
C1008 C 0.32891 0.17622 0.39752 0.0
C1009 C 0.29407 0.18621 0.34615 0.0
C1010 C 0.29985 0.18113 0.36464 0.0
H1011 H 0.38003 0.09202 0.44519 0.0
H1012 H 0.33624 0.0942 0.42231 0.0
H1013 H 0.31505 0.26538 0.39884 0.0
H1014 H 0.3328 0.25049 0.31216 0.0
H1015 H 0.33152 0.25513 0.34319 0.0
C1016 C 0.00934 0.7428 0.98381 0.0
C1017 C 0.02575 0.75646 0.96824 0.0
C1018 C 0.00312 0.68596 0.98826 0.0
C1019 C 0.03796 0.54636 0.98425 0.0
H1020 H 0.94401 0.4815 0.98159 0.0
C1021 C 0.01564 0.3077 0.97308 0.0
C1022 C 0.98349 0.28266 0.97788 0.0
C1023 C 0.02164 0.36547 0.97595 0.0
C1024 C 0.97041 0.49868 0.98287 0.0
H1025 H 0.04621 0.72031 0.94477 0.0
H1026 H 0.03698 0.62227 0.95297 0.0
H1027 H 0.95163 0.58385 0.97943 0.0
H1028 H 0.93351 0.29706 0.99059 0.0
H1029 H 0.94457 0.39703 -0.00353 0.0
H1030 H 0.05711 0.46195 0.98769 0.0
C1031 C 0.02926 0.65551 0.96172 0.0
C1032 C 0.97466 0.55749 0.98155 0.0
C1033 C 0.03479 0.71187 0.95713 0.0
C1034 C 0.95851 0.31548 0.98671 0.0
C1035 C 0.96472 0.37301 0.98986 0.0
C1036 C 0.03373 0.48769 0.98589 0.0
C1037 C 0.01366 0.64197 0.97734 0.0
C1038 C 0.00852 0.58159 0.9818 0.0
C1039 C 0.9958 0.39949 0.98393 0.0
C1040 C -2e-05 0.46265 0.9847 0.0
H1041 H 0.00202 0.77581 0.9927 0.0
H1042 H 0.9908 0.67629 0.00034 0.0
H1043 H 0.06437 0.56417 0.98445 0.0
H1044 H 0.03514 0.28355 0.96604 0.0
H1045 H 0.04573 0.38387 0.97096 0.0
C1046 C 0.29265 0.54121 0.23601 0.0
C1047 C 0.26712 0.50841 0.22759 0.0
C1048 C 0.28675 0.59878 0.23917 0.0
C1049 C 0.21769 0.71335 0.23655 0.0
H1050 H 0.29932 0.80959 0.22868 0.0
C1051 C 0.2167 0.93854 0.20814 0.0
C1052 C 0.22502 0.9825 0.21958 0.0
C1053 C 0.22239 0.882 0.21244 0.0
C1054 C 0.27646 0.78318 0.2312 0.0
H1055 H 0.21488 0.50939 0.21645 0.0
H1056 H 0.20482 0.60994 0.22139 0.0
H1057 H 0.30699 0.70715 0.23039 0.0
H1058 H 0.24744 1.00069 0.24435 0.0
H1059 H 0.25881 0.90086 0.25154 0.0
H1060 H 0.18706 0.78995 0.236 0.0
C1061 C 0.22912 0.59141 0.22604 0.0
C1062 C 0.28074 0.72436 0.23226 0.0
C1063 C 0.23483 0.53358 0.22315 0.0
C1064 C 0.24073 0.96813 0.23521 0.0
C1065 C 0.24703 0.91113 0.2394 0.0
C1066 C 0.21341 0.77208 0.2352 0.0
C1067 C 0.25541 0.6253 0.23368 0.0
C1068 C 0.25131 0.68836 0.23461 0.0
C1069 C 0.23732 0.86776 0.22811 0.0
C1070 C 0.24268 0.80729 0.23227 0.0
H1071 H 0.31772 0.52265 0.23965 0.0
H1072 H 0.30726 0.62278 0.24549 0.0
H1073 H 0.19446 0.68753 0.23873 0.0
H1074 H 0.20575 0.94768 0.19575 0.0
H1075 H 0.21529 0.84919 0.20345 0.0
C1076 C 0.77286 0.03055 0.23492 0.0
C1077 C 0.77395 0.01204 0.21797 0.0
C1078 C 0.76641 0.08781 0.23868 0.0
C1079 C 0.72446 0.21538 0.22196 0.0
H1080 H 0.79315 0.30261 0.24755 0.0
C1081 C 0.76332 0.46298 0.22671 0.0
C1082 C 0.72929 0.48628 0.22857 0.0
C1083 C 0.76897 0.40483 0.22928 0.0
C1084 C 0.77366 0.27866 0.24049 0.0
H1085 H 0.76825 0.03779 0.19174 0.0
H1086 H 0.75581 0.13706 0.19829 0.0
H1087 H 0.80095 0.19975 0.24428 0.0
H1088 H 0.67545 0.46802 0.23636 0.0
H1089 H 0.68522 0.36691 0.24068 0.0
H1090 H 0.69736 0.29371 0.2179 0.0
C1091 C 0.76035 0.1078 0.20866 0.0
C1092 C 0.77799 0.21988 0.23872 0.0
C1093 C 0.7675 0.05113 0.20491 0.0
C1094 C 0.70183 0.45118 0.2345 0.0
C1095 C 0.70739 0.39324 0.23694 0.0
C1096 C 0.7198 0.27371 0.22398 0.0
C1097 C 0.76013 0.12695 0.22555 0.0
C1098 C 0.75374 0.18789 0.22916 0.0
C1099 C 0.74065 0.36899 0.23371 0.0
C1100 C 0.74458 0.30624 0.23304 0.0
H1101 H 0.77791 1.00109 0.24518 0.0
H1102 H 0.76621 0.1015 0.25181 0.0
H1103 H 0.70538 0.19176 0.21454 0.0
H1104 H 0.78499 0.48875 0.22207 0.0
H1105 H 0.7949 0.38736 0.22668 0.0
C1106 C 0.99298 0.7937 0.48366 0.0
C1107 C 0.9757 0.77944 0.4684 0.0
C1108 C -0.00049 0.85068 0.48781 0.0
C1109 C 0.9647 0.99022 0.4837 0.0
H1110 H 0.05872 0.05416 0.47969 0.0
C1111 C 0.98712 0.22832 0.47178 0.0
C1112 C 0.01932 0.25343 0.47641 0.0
C1113 C 0.98126 0.17053 0.47462 0.0
C1114 C 0.03233 0.03724 0.48134 0.0
H1115 H 0.95391 0.81459 0.44512 0.0
H1116 H 0.96371 0.91295 0.45281 0.0
H1117 H 0.05068 0.95178 0.478 0.0
H1118 H 0.06964 0.23906 0.48872 0.0
H1119 H 0.05889 0.13895 0.4945 0.0
H1120 H 0.94597 0.07491 0.48706 0.0
C1121 C 0.97189 0.88006 0.46157 0.0
C1122 C 0.02784 0.97843 0.48029 0.0
C1123 C 0.96604 0.82355 0.45727 0.0
C1124 C 0.04463 0.22055 0.48494 0.0
C1125 C 0.03857 0.16299 0.48806 0.0
C1126 C 0.96918 0.04888 0.48507 0.0
C1127 C 0.9884 0.89419 0.47688 0.0
C1128 C 0.99391 0.95467 0.48103 0.0
C1129 C 0.0073 0.13657 0.48242 0.0
C1130 C 0.00296 0.07354 0.48339 0.0
H1131 H 0.00077 0.76106 0.49256 0.0
H1132 H 0.01253 0.86083 0.49966 0.0
H1133 H 0.93824 0.97264 0.48429 0.0
H1134 H 0.96735 0.25256 0.46499 0.0
H1135 H 0.95704 0.1521 0.46983 0.0
C1136 C 0.29519 0.04236 0.73503 0.0
C1137 C 0.27053 0.01207 0.7253 0.0
C1138 C 0.28939 0.09941 0.73901 0.0
C1139 C 0.22173 0.21628 0.73603 0.0
H1140 H 0.3054 0.31102 0.73488 0.0
C1141 C 0.2618 0.46255 0.71977 0.0
C1142 C 0.23111 0.48936 0.72574 0.0
C1143 C 0.26797 0.40533 0.72335 0.0
C1144 C 0.28163 0.28546 0.73509 0.0
H1145 H 0.22008 0.01681 0.7125 0.0
H1146 H 0.2104 0.11653 0.71875 0.0
H1147 H 0.31167 0.20906 0.73388 0.0
H1148 H 0.184 0.47906 0.74103 0.0
H1149 H 0.19565 0.38026 0.74824 0.0
H1150 H 0.1916 0.29264 0.7358 0.0
C1151 C 0.23377 0.09644 0.72388 0.0
C1152 C 0.28526 0.22645 0.73484 0.0
C1153 C 0.23927 0.0391 0.72023 0.0
C1154 C 0.20785 0.45912 0.73627 0.0
C1155 C 0.21436 0.40223 0.74018 0.0
C1156 C 0.21808 0.27528 0.73592 0.0
C1157 C 0.25916 0.12796 0.73299 0.0
C1158 C 0.25534 0.19083 0.73502 0.0
C1159 C 0.24384 0.37377 0.73325 0.0
C1160 C 0.24796 0.31091 0.73516 0.0
H1161 H 0.31948 0.02226 0.73913 0.0
H1162 H 0.30913 0.12138 0.74646 0.0
H1163 H 0.19798 0.19072 0.73659 0.0
H1164 H 0.27986 0.48484 0.71142 0.0
H1165 H 0.29071 0.38533 0.71753 0.0
C1166 C 0.73994 0.54135 0.72165 0.0
C1167 C 0.77233 0.51614 0.7259 0.0
C1168 C 0.73431 0.59917 0.72459 0.0
C1169 C 0.78595 0.73214 0.73054 0.0
H1170 H 0.69239 0.79744 0.73535 0.0
C1171 C 0.74472 0.9757 0.73434 0.0
C1172 C 0.72933 0.99011 0.71864 0.0
C1173 C 0.75127 0.91872 0.73846 0.0
C1174 C 0.71871 0.77964 0.73426 0.0
H1175 H 0.82325 0.53036 0.73767 0.0
H1176 H 0.81298 0.63052 0.74355 0.0
H1177 H 0.7 0.69496 0.73781 0.0
H1178 H 0.71097 0.95549 0.69462 0.0
H1179 H 0.72103 0.85701 0.70217 0.0
H1180 H 0.80427 0.81748 0.72689 0.0
C1181 C 0.7923 0.60652 0.73735 0.0
C1182 C 0.7231 0.7209 0.73546 0.0
C1183 C 0.7981 0.54895 0.73416 0.0
C1184 C 0.72166 0.94627 0.70706 0.0
C1185 C 0.72765 0.88975 0.71128 0.0
C1186 C 0.78156 0.79096 0.72961 0.0
C1187 C 0.76079 0.63302 0.73209 0.0
C1188 C 0.75665 0.69604 0.73314 0.0
C1189 C 0.74221 0.87543 0.72702 0.0
C1190 C 0.74782 0.81498 0.73109 0.0
H1191 H 0.71978 0.51717 0.7151 0.0
H1192 H 0.70986 0.61772 0.72013 0.0
H1193 H 0.81212 0.71501 0.72838 0.0
H1194 H 0.75096 1.00819 0.74357 0.0
H1195 H 0.76278 0.90837 0.75066 0.0
C1196 C 0.532 0.71223 0.45541 0.0
C1197 C 0.52228 0.75687 0.46637 0.0
C1198 C 0.52669 0.65586 0.46006 0.0
C1199 C 0.47173 0.5582 0.48083 0.0
H1200 H 0.55436 0.46201 0.48527 0.0
C1201 C 0.45521 0.31649 0.48716 0.0
C1202 C 0.47929 0.28306 0.47797 0.0
C1203 C 0.4619 0.3741 0.48994 0.0
C1204 C 0.53091 0.48791 0.48393 0.0
H1205 H 0.4976 0.77612 0.49063 0.0
H1206 H 0.48667 0.67669 0.49831 0.0
H1207 H 0.56168 0.56395 0.4815 0.0
H1208 H 0.5298 0.28296 0.46505 0.0
H1209 H 0.54113 0.38334 0.4693 0.0
H1210 H 0.44081 0.48257 0.48188 0.0
C1211 C 0.49936 0.68631 0.48631 0.0
C1212 C 0.53519 0.54644 0.48196 0.0
C1213 C 0.50541 0.74315 0.48183 0.0
C1214 C 0.51105 0.30759 0.4724 0.0
C1215 C 0.51747 0.36542 0.47488 0.0
C1216 C 0.46739 0.49949 0.48244 0.0
C1217 C 0.51061 0.6423 0.47556 0.0
C1218 C 0.50568 0.58193 0.48013 0.0
C1219 C 0.49249 0.40004 0.48325 0.0
C1220 C 0.49697 0.46319 0.48367 0.0
H1221 H 0.54376 0.72064 0.44312 0.0
H1222 H 0.53493 0.62261 0.45142 0.0
H1223 H 0.4486 0.58476 0.47923 0.0
H1224 H 0.43051 0.29848 0.49161 0.0
H1225 H 0.44243 0.3986 0.49686 0.0
C1226 C 0.47433 0.83144 0.98887 0.0
C1227 C 0.46804 0.81294 0.97217 0.0
C1228 C 0.47829 0.88962 0.99234 0.0
C1229 C 0.45071 0.02592 0.97442 0.0
H1230 H 0.52932 0.09606 -0.00203 0.0
C1231 C 0.49688 0.24895 0.95936 0.0
C1232 C 0.50567 0.28634 0.97252 0.0
C1233 C 0.48884 0.19256 0.96283 0.0
C1234 C 0.50682 0.07698 0.99168 0.0
H1235 H 0.46394 0.83969 0.94593 0.0
H1236 H 0.47079 0.93996 0.9519 0.0
H1237 H 0.52359 0.99223 -0.00226 0.0
H1238 H 0.51269 0.2948 -0.00033 0.0
H1239 H 0.49906 0.19455 0.00584 0.0
H1240 H 0.43465 0.10977 0.96771 0.0
C1241 C 0.47175 0.91033 0.96239 0.0
C1242 C 0.50358 0.01768 0.99154 0.0
C1243 C 0.46795 0.85288 0.95897 0.0
C1244 C 0.5058 0.26656 0.98935 0.0
C1245 C 0.49825 0.20942 0.99284 0.0
C1246 C 0.45393 0.08472 0.97456 0.0
C1247 C 0.47588 0.92962 0.97912 0.0
C1248 C 0.47624 0.99165 0.98231 0.0
C1249 C 0.48972 0.17192 0.97956 0.0
C1250 C 0.48273 0.11083 0.98261 0.0
H1251 H 0.47465 0.80135 -0.00074 0.0
H1252 H 0.48176 0.90345 0.00534 0.0
H1253 H 0.42895 1.00703 0.9675 0.0
H1254 H 0.49668 0.26332 0.94629 0.0
H1255 H 0.48282 0.1646 0.95231 0.0
C1256 C 0.3533 0.4148 0.00243 0.0
C1257 C 0.37682 0.39458 0.01479 0.0
C1258 C 0.32355 0.38283 -0.0021 0.0
C1259 C 0.28486 0.23873 0.00026 0.0
H1260 H 0.19504 0.31683 0.00426 0.0
C1261 C 0.15665 0.12527 0.01899 0.0
C1262 C 0.12406 0.14496 0.01284 0.0
C1263 C 0.18803 0.1532 0.01483 0.0
C1264 C 0.21982 0.2944 0.00269 0.0
H1265 H 0.38899 0.32444 0.03149 0.0
H1266 H 0.33736 0.26856 0.02359 0.0
H1267 H 0.24987 0.37106 0.00454 0.0
H1268 H 0.09899 0.20801 -0.00316 0.0
H1269 H 0.15398 0.25625 0.98931 0.0
H1270 H 0.25494 0.16193 -0.00112 0.0
C1271 C 0.34167 0.30889 0.01736 0.0
C1272 C 0.25127 0.32557 0.00287 0.0
C1273 C 0.37103 0.34105 0.02201 0.0
C1274 C 0.12371 0.19166 0.00176 0.0
C1275 C 0.15517 0.21965 -0.00243 0.0
C1276 C 0.25343 0.20759 -2e-05 0.0
C1277 C 0.31726 0.32979 0.00548 0.0
C1278 C 0.28413 0.29788 0.00221 0.0
C1279 C 0.18763 0.20144 0.00436 0.0
C1280 C 0.22057 0.23489 0.00177 0.0
H1281 H 0.35723 0.45606 -0.00323 0.0
H1282 H 0.30521 0.39987 0.98867 0.0
H1283 H 0.30982 0.21635 -0.00054 0.0
H1284 H 0.15783 0.08888 0.02735 0.0
H1285 H 0.21244 0.13827 0.02044 0.0
C1286 C 0.86341 0.89076 -0.00219 0.0
C1287 C 0.88613 0.86582 0.00972 0.0
C1288 C 0.83158 0.86425 0.99344 0.0
C1289 C 0.78287 0.72799 -0.00411 0.0
H1290 H 0.70002 0.82271 0.00183 0.0
C1291 C 0.64896 0.6403 0.01747 0.0
C1292 C 0.61755 0.66664 0.01219 0.0
C1293 C 0.68178 0.66162 0.01245 0.0
C1294 C 0.72276 0.79573 -0.0003 0.0
H1295 H 0.89464 0.79264 0.02575 0.0
H1296 H 0.83928 0.74616 0.01815 0.0
H1297 H 0.75847 0.86591 0.00117 0.0
H1298 H 0.59585 0.73419 -0.00326 0.0
H1299 H 0.65331 0.77102 0.98773 0.0
H1300 H 0.74725 0.65759 0.99495 0.0
C1301 C 0.84588 0.78602 0.01211 0.0
C1302 C 0.75631 0.82056 -0.00066 0.0
C1303 C 0.8774 0.81278 0.01659 0.0
C1304 C 0.61961 0.713 0.00103 0.0
C1305 C 0.65252 0.73438 -0.00401 0.0
C1306 C 0.74932 0.70317 -0.00384 0.0
C1307 C 0.82225 0.81199 0.00077 0.0
C1308 C 0.78677 0.78676 -0.002 0.0
C1309 C 0.684 0.70971 0.00197 0.0
C1310 C 0.71894 0.73656 -0.00135 0.0
H1311 H 0.86954 0.93179 0.99248 0.0
H1312 H 0.81392 0.88513 0.98462 0.0
H1313 H 0.80588 0.70099 0.99457 0.0
H1314 H 0.6482 0.60385 0.02581 0.0
H1315 H 0.7054 0.6418 0.01744 0.0
C1316 C 0.12335 0.41245 0.25364 0.0
C1317 C 0.12398 0.36657 0.26502 0.0
C1318 C 0.09134 0.43869 0.24945 0.0
C1319 C 0.99322 0.42265 0.25287 0.0
H1320 H 0.9944 0.58668 0.25546 0.0
C1321 C 0.87407 0.55514 0.27406 0.0
C1322 C 0.86692 0.60636 0.26571 0.0
C1323 C 0.90405 0.52362 0.26988 0.0
C1324 C 0.99368 0.54095 0.25437 0.0
H1325 H 0.09135 0.30991 0.28001 0.0
H1326 H 0.03588 0.35639 0.27317 0.0
H1327 H 0.05005 0.53464 0.2553 0.0
H1328 H 0.88486 0.66447 0.24631 0.0
H1329 H 0.93799 0.60957 0.23908 0.0
H1330 H 0.93669 0.42915 0.25287 0.0
C1331 C 0.0599 0.37203 0.26731 0.0
C1332 C 0.02559 0.51103 0.25424 0.0
C1333 C 0.09181 0.34579 0.27144 0.0
C1334 C 0.88983 0.62496 0.25283 0.0
C1335 C 0.9202 0.59376 0.24878 0.0
C1336 C 0.96134 0.45255 0.25315 0.0
C1337 C 0.0593 0.41958 0.25655 0.0
C1338 C 0.02574 0.45141 0.25398 0.0
C1339 C 0.92772 0.54298 0.25738 0.0
C1340 C 0.96125 0.51191 0.25437 0.0
H1341 H 0.1477 0.4296 0.2485 0.0
H1342 H 0.0918 0.4747 0.24095 0.0
H1343 H 0.99235 0.37684 0.25227 0.0
H1344 H 0.85661 0.53978 0.28397 0.0
H1345 H 0.90935 0.48503 0.27686 0.0
C1346 C 0.36578 0.87271 0.49478 0.0
C1347 C 0.38943 0.84604 0.50593 0.0
C1348 C 0.3342 0.84589 0.49015 0.0
C1349 C 0.28636 0.70771 0.49154 0.0
H1350 H 0.20358 0.80147 0.49896 0.0
C1351 C 0.15348 0.61921 0.51459 0.0
C1352 C 0.12185 0.64445 0.50916 0.0
C1353 C 0.18612 0.64093 0.50943 0.0
C1354 C 0.22631 0.77481 0.49646 0.0
H1355 H 0.40005 0.76915 0.52002 0.0
H1356 H 0.34507 0.72252 0.51211 0.0
H1357 H 0.26186 0.8451 0.49794 0.0
H1358 H 0.0995 0.71069 0.49343 0.0
H1359 H 0.15669 0.7487 0.48433 0.0
H1360 H 0.25082 0.6371 0.4908 0.0
C1361 C 0.3507 0.76394 0.50685 0.0
C1362 C 0.25979 0.79987 0.49585 0.0
C1363 C 0.38205 0.79083 0.51153 0.0
C1364 C 0.12348 0.69037 0.49782 0.0
C1365 C 0.1562 0.71235 0.49272 0.0
C1366 C 0.25288 0.68264 0.49216 0.0
C1367 C 0.32591 0.79173 0.49649 0.0
C1368 C 0.2903 0.7664 0.49394 0.0
C1369 C 0.18789 0.68852 0.49873 0.0
C1370 C 0.22259 0.71571 0.49517 0.0
H1371 H 0.37084 0.91534 0.49037 0.0
H1372 H 0.31579 0.86818 0.48202 0.0
H1373 H 0.30931 0.68088 0.48974 0.0
H1374 H 0.153 0.58321 0.52312 0.0
H1375 H 0.20997 0.62185 0.51444 0.0
C1376 C 0.87406 0.32084 0.52143 0.0
C1377 C 0.88126 0.37345 0.5139 0.0
C1378 C 0.84376 0.29053 0.51701 0.0
C1379 C 0.75368 0.31225 0.50268 0.0
H1380 H 0.75354 0.14863 0.49829 0.0
C1381 C 0.62291 0.18607 0.50138 0.0
C1382 C 0.62232 0.13861 0.51216 0.0
C1383 C 0.65497 0.21248 0.49728 0.0
C1384 C 0.75307 0.19432 0.49953 0.0
H1385 H 0.86303 0.43541 0.49571 0.0
H1386 H 0.80938 0.38259 0.48804 0.0
H1387 H 0.80964 0.1997 0.49906 0.0
H1388 H 0.65502 0.07942 0.52613 0.0
H1389 H 0.71058 0.12604 0.51941 0.0
H1390 H 0.69728 0.30687 0.50405 0.0
C1391 C 0.82738 0.36472 0.49728 0.0
C1392 C 0.78521 0.22353 0.49991 0.0
C1393 C 0.85807 0.39473 0.50156 0.0
C1394 C 0.65455 0.1165 0.51803 0.0
C1395 C 0.6865 0.14286 0.51397 0.0
C1396 C 0.7215 0.28299 0.50244 0.0
C1397 C 0.81978 0.31253 0.5051 0.0
C1398 C 0.78587 0.28263 0.50196 0.0
C1399 C 0.68711 0.1919 0.50383 0.0
C1400 C 0.72084 0.22349 0.50136 0.0
H1401 H 0.89168 0.30355 0.53095 0.0
H1402 H 0.83842 0.25083 0.52342 0.0
H1403 H 0.75337 0.35776 0.50441 0.0
H1404 H 0.59852 0.2042 0.49666 0.0
H1405 H 0.65452 0.24971 0.48925 0.0
C1406 C 0.90202 0.14226 0.76631 0.0
C1407 C 0.86982 0.11978 0.76057 0.0
C1408 C 0.93403 0.11747 0.76159 0.0
C1409 C 0.97004 0.97982 0.74905 0.0
H1410 H 0.05683 0.06642 0.74496 0.0
C1411 C 0.10816 0.87358 0.74857 0.0
C1412 C 0.13099 0.8967 0.76077 0.0
C1413 C 0.07705 0.90201 0.74409 0.0
C1414 C 0.03278 0.04167 0.74599 0.0
H1415 H 0.84587 0.05544 0.74465 0.0
H1416 H 0.90207 0.01218 0.73622 0.0
H1417 H -4e-05 0.1153 0.74452 0.0
H1418 H 0.14034 0.96829 0.77735 0.0
H1419 H 0.0863 0.01819 0.7695 0.0
H1420 H 0.00302 0.90638 0.75104 0.0
C1421 C 0.90246 0.04864 0.74457 0.0
C1422 C 0.00024 0.06962 0.74577 0.0
C1423 C 0.87033 0.07364 0.74928 0.0
C1424 C 0.12299 0.94954 0.76796 0.0
C1425 C 0.09225 0.97826 0.76335 0.0
C1426 C 0.00262 0.95182 0.74916 0.0
C1427 C 0.93465 0.0696 0.75096 0.0
C1428 C 0.96854 0.03925 0.74793 0.0
C1429 C 0.06867 0.95445 0.75156 0.0
C1430 C 0.03434 0.98271 0.74824 0.0
H1431 H 0.90243 0.17835 0.77481 0.0
H1432 H 0.95821 0.13442 0.76691 0.0
H1433 H 0.94619 0.95513 0.75088 0.0
H1434 H 0.11375 0.83272 0.74299 0.0
H1435 H 0.05935 0.88274 0.73496 0.0
C1436 C 0.59102 0.35376 0.76368 0.0
C1437 C 0.62359 0.37779 0.75904 0.0
C1438 C 0.55935 0.3785 0.7585 0.0
C1439 C 0.52383 0.51746 0.74755 0.0
H1440 H 0.43795 0.43082 0.74043 0.0
C1441 C 0.38564 0.62249 0.7478 0.0
C1442 C 0.36217 0.59622 0.75918 0.0
C1443 C 0.41693 0.59523 0.74292 0.0
C1444 C 0.46174 0.45561 0.7423 0.0
H1445 H 0.64872 0.44471 0.74454 0.0
H1446 H 0.59311 0.48805 0.73534 0.0
H1447 H 0.49513 0.38284 0.73998 0.0
H1448 H 0.35185 0.5202 0.77374 0.0
H1449 H 0.40627 0.47249 0.76524 0.0
H1450 H 0.49028 0.58987 0.75048 0.0
C1451 C 0.59214 0.45034 0.74316 0.0
C1452 C 0.49446 0.42817 0.74207 0.0
C1453 C 0.62393 0.42534 0.74831 0.0
C1454 C 0.36969 0.54143 0.76503 0.0
C1455 C 0.40065 0.51397 0.76003 0.0
C1456 C 0.49108 0.54496 0.7477 0.0
C1457 C 0.55949 0.42792 0.74854 0.0
C1458 C 0.52577 0.45841 0.74534 0.0
C1459 C 0.42493 0.54093 0.74917 0.0
C1460 C 0.45964 0.51393 0.74571 0.0
H1461 H 0.59003 0.31664 0.77176 0.0
H1462 H 0.53477 0.36038 0.76304 0.0
H1463 H 0.54736 0.54198 0.75026 0.0
H1464 H 0.38044 0.66488 0.74324 0.0
H1465 H 0.43514 0.61694 0.73451 0.0
C1466 C 0.61102 0.89056 0.25018 0.0
C1467 C 0.64068 0.91867 0.25672 0.0
C1468 C 0.57998 0.92084 0.24674 0.0
C1469 C 0.53544 0.04639 0.2632 0.0
H1470 H 0.46663 0.01902 0.2277 0.0
C1471 C 0.40289 0.16147 0.26491 0.0
C1472 C 0.3729 0.12821 0.26175 0.0
C1473 C 0.43649 0.14163 0.26061 0.0
C1474 C 0.48554 0.02694 0.23774 0.0
H1475 H 0.66272 0.99998 0.26363 0.0
H1476 H 0.60896 0.0532 0.25728 0.0
H1477 H 0.52462 0.97286 0.22632 0.0
H1478 H 0.35393 0.04975 0.25086 0.0
H1479 H 0.41283 0.01382 0.24384 0.0
H1480 H 0.49647 0.0982 0.27507 0.0
C1481 C 0.60917 1.0079 0.2551 0.0
C1482 C 0.51873 1.0006 0.23691 0.0
C1483 C 0.63996 0.97766 0.25861 0.0
C1484 C 0.3768 0.07605 0.25342 0.0
C1485 C 0.41053 0.05571 0.24932 0.0
C1486 C 0.50239 0.07227 0.26408 0.0
C1487 C 0.57837 0.97954 0.24984 0.0
C1488 C 0.54397 1.00993 0.2497 0.0
C1489 C 0.44087 0.0876 0.25333 0.0
C1490 C 0.47687 0.06274 0.25144 0.0
H1491 H 0.61113 0.84491 0.24877 0.0
H1492 H 0.55665 0.89778 0.24277 0.0
H1493 H 0.55389 0.0534 0.2735 0.0
H1494 H 0.40035 0.20234 0.27106 0.0
H1495 H 0.45915 0.16805 0.26343 0.0
loop_
_geom_bond_atom_site_label_1
_geom_bond_atom_site_label_2
_geom_bond_distance
_geom_bond_site_symmetry_2
_ccdc_geom_bond_type
C0 O1 1.201 . S
C0 C2 1.493 . S
C0 N17 1.318 1_455 S
O1 C0 1.201 . S
C2 C0 1.493 . S
C2 C3 1.381 . S
C2 N7 1.335 1_554 S
C3 C2 1.381 . S
C3 C4 1.411 1_554 S
C3 H49 0.931 . S
C4 C3 1.411 1_556 S
C4 C5 1.384 . S
C4 H50 0.930 . S
C5 C4 1.384 . S
C5 C6 1.376 . S
C5 H51 0.929 . S
C6 C5 1.376 . S
C6 N7 1.330 . S
C6 C21 1.484 1_565 S
N7 C2 1.335 1_556 S
N7 C6 1.330 . S
N7 Co9 1.859 1_565 S
N8 Co9 1.962 1_554 S
N8 C19 1.318 1_455 S
N8 C43 1.421 . S
Co9 N7 1.859 1_545 S
Co9 N8 1.962 1_556 S
Co9 N10 1.859 1_455 S
Co9 N16 1.958 1_445 S
Co9 N17 1.962 1_446 S
Co9 N18 1.958 . S
N10 Co9 1.859 1_655 S
N10 C14 1.330 . S
N10 C15 1.335 1_556 S
C11 C12 1.411 1_554 S
C11 C15 1.381 . S
C11 H52 0.931 . S
C12 C11 1.411 1_556 S
C12 C13 1.384 . S
C12 H53 0.930 . S
C13 C12 1.384 . S
C13 C14 1.376 . S
C13 H54 0.929 . S
C14 N10 1.330 . S
C14 C13 1.376 . S
C14 C29 1.484 1_545 S
C15 N10 1.335 1_554 S
C15 C11 1.381 . S
C15 C19 1.493 . S
N16 Co9 1.958 1_665 S
N16 C29 1.344 . S
N16 C31 1.433 . S
N17 C0 1.318 1_655 S
N17 Co9 1.962 1_664 S
N17 C37 1.421 . S
N18 Co9 1.958 . S
N18 C21 1.344 . S
N18 C23 1.437 . S
C19 N8 1.318 1_655 S
C19 C15 1.493 . S
C19 O20 1.201 . S
O20 C19 1.201 . S
C21 C6 1.484 1_545 S
C21 N18 1.344 . S
C21 O22 1.268 . S
O22 C21 1.268 . S
C23 N18 1.437 . S
C23 C25 1.395 . S
C23 C26 1.351 1_455 S
C24 C25 1.382 1_655 S
C24 C28 1.386 . S
C25 C23 1.395 . S
C25 C24 1.382 1_455 S
C25 H55 0.928 . S
C26 C23 1.351 1_655 S
C26 C27 1.367 . S
C26 H56 0.930 . S
C27 C26 1.367 . S
C27 C28 1.369 . S
C28 C24 1.386 . S
C28 C27 1.369 . S
C28 H57 0.930 . S
C29 C14 1.484 1_565 S
C29 N16 1.344 . S
C29 O30 1.268 . S
O30 C29 1.268 . S
C31 N16 1.433 . S
C31 C32 1.356 1_655 S
C31 C36 1.394 . S
C32 C31 1.356 1_455 S
C32 C33 1.367 . S
C32 H58 0.930 . S
C33 C32 1.367 . S
C33 C34 1.369 . S
C34 C33 1.369 . S
C34 C35 1.386 . S
C34 H59 0.930 . S
C35 C34 1.386 . S
C35 C36 1.382 1_455 S
C36 C31 1.394 . S
C36 C35 1.382 1_655 S
C36 H60 0.928 . S
C37 N17 1.421 . S
C37 C38 1.371 . S
C37 C42 1.385 . S
C38 C37 1.371 . S
C38 C39 1.367 . S
C38 H61 0.931 . S
C39 C38 1.367 . S
C39 C40 1.401 . S
C40 C39 1.401 . S
C40 C41 1.385 . S
C40 H62 0.930 . S
C41 C40 1.385 . S
C41 C42 1.402 . S
C42 C37 1.385 . S
C42 C41 1.402 . S
C42 H63 0.929 . S
C43 N8 1.421 . S
C43 C46 1.385 . S
C43 C47 1.371 . S
C44 C45 1.385 . S
C44 C48 1.401 . S
C44 H64 0.930 . S
C45 C44 1.385 . S
C45 C46 1.402 . S
C46 C43 1.385 . S
C46 C45 1.402 . S
C46 H65 0.929 . S
C47 C43 1.371 . S
C47 C48 1.367 . S
C47 H66 0.931 . S
C48 C44 1.401 . S
C48 C47 1.367 . S
H49 C3 0.931 . S
H50 C4 0.930 . S
H51 C5 0.929 . S
H52 C11 0.931 . S
H53 C12 0.930 . S
H54 C13 0.929 . S
H55 C25 0.928 . S
H56 C26 0.930 . S
H57 C28 0.930 . S
H58 C32 0.930 . S
H59 C34 0.930 . S
H60 C36 0.928 . S
H61 C38 0.931 . S
H62 C40 0.930 . S
H63 C42 0.929 . S
H64 C44 0.930 . S
H65 C46 0.929 . S
H66 C47 0.931 . S
C67 O68 1.201 . S
C67 C69 1.493 . S
C67 N84 1.318 . S
O68 C67 1.201 . S
C69 C67 1.493 . S
C69 C70 1.381 . S
C69 N74 1.335 . S
C70 C69 1.381 . S
C70 C71 1.411 . S
C70 H116 0.931 . S
C71 C70 1.411 . S
C71 C72 1.384 . S
C71 H117 0.930 . S
C72 C71 1.384 . S
C72 C73 1.376 . S
C72 H118 0.929 . S
C73 C72 1.376 . S
C73 N74 1.330 . S
C73 C88 1.484 . S
N74 C69 1.335 . S
N74 C73 1.330 . S
N74 Co76 1.859 . S
N75 Co76 1.962 . S
N75 C86 1.318 . S
N75 C110 1.421 . S
Co76 N74 1.859 . S
Co76 N75 1.962 . S
Co76 N77 1.859 . S
Co76 N83 1.958 . S
Co76 N84 1.962 . S
Co76 N85 1.958 . S
N77 Co76 1.859 . S
N77 C81 1.330 . S
N77 C82 1.335 . S
C78 C79 1.411 . S
C78 C82 1.381 . S
C78 H119 0.931 . S
C79 C78 1.411 . S
C79 C80 1.384 . S
C79 H120 0.930 . S
C80 C79 1.384 . S
C80 C81 1.376 . S
C80 H121 0.929 . S
C81 N77 1.330 . S
C81 C80 1.376 . S
C81 C96 1.484 . S
C82 N77 1.335 . S
C82 C78 1.381 . S
C82 C86 1.493 . S
N83 Co76 1.958 . S
N83 C96 1.344 . S
N83 C98 1.425 . S
N84 C67 1.318 . S
N84 Co76 1.962 . S
N84 C104 1.421 . S
N85 Co76 1.958 . S
N85 C88 1.344 . S
N85 C90 1.425 . S
C86 N75 1.318 . S
C86 C82 1.493 . S
C86 O87 1.201 . S
O87 C86 1.201 . S
C88 C73 1.484 . S
C88 N85 1.344 . S
C88 O89 1.268 . S
O89 C88 1.268 . S
C90 N85 1.425 . S
C90 C92 1.392 . S
C90 C93 1.368 . S
C91 C92 1.382 . S
C91 C95 1.386 . S
C92 C90 1.392 . S
C92 C91 1.382 . S
C92 H122 0.928 . S
C93 C90 1.368 . S
C93 C94 1.367 . S
C93 H123 0.930 . S
C94 C93 1.367 . S
C94 C95 1.369 . S
C95 C91 1.386 . S
C95 C94 1.369 . S
C95 H124 0.930 . S
C96 C81 1.484 . S
C96 N83 1.344 . S
C96 O97 1.268 . S
O97 C96 1.268 . S
C98 N83 1.425 . S
C98 C99 1.368 . S
C98 C103 1.392 . S
C99 C98 1.368 . S
C99 C100 1.367 . S
C99 H125 0.930 . S
C100 C99 1.367 . S
C100 C101 1.369 . S
C101 C100 1.369 . S
C101 C102 1.386 . S
C101 H126 0.930 . S
C102 C101 1.386 . S
C102 C103 1.382 . S
C103 C98 1.392 . S
C103 C102 1.382 . S
C103 H127 0.928 . S
C104 N84 1.421 . S
C104 C105 1.371 . S
C104 C109 1.385 . S
C105 C104 1.371 . S
C105 C106 1.367 . S
C105 H128 0.931 . S
C106 C105 1.367 . S
C106 C107 1.401 . S
C107 C106 1.401 . S
C107 C108 1.385 . S
C107 H129 0.930 . S
C108 C107 1.385 . S
C108 C109 1.402 . S
C109 C104 1.385 . S
C109 C108 1.402 . S
C109 H130 0.929 . S
C110 N75 1.421 . S
C110 C113 1.385 . S
C110 C114 1.371 . S
C111 C112 1.385 . S
C111 C115 1.401 . S
C111 H131 0.930 . S
C112 C111 1.385 . S
C112 C113 1.402 . S
C113 C110 1.385 . S
C113 C112 1.402 . S
C113 H132 0.929 . S
C114 C110 1.371 . S
C114 C115 1.367 . S
C114 H133 0.931 . S
C115 C111 1.401 . S
C115 C114 1.367 . S
H116 C70 0.931 . S
H117 C71 0.930 . S
H118 C72 0.929 . S
H119 C78 0.931 . S
H120 C79 0.930 . S
H121 C80 0.929 . S
H122 C92 0.928 . S
H123 C93 0.930 . S
H124 C95 0.930 . S
H125 C99 0.930 . S
H126 C101 0.930 . S
H127 C103 0.928 . S
H128 C105 0.931 . S
H129 C107 0.930 . S
H130 C109 0.929 . S
H131 C111 0.930 . S
H132 C113 0.929 . S
H133 C114 0.931 . S
C134 O135 1.201 . S
C134 C136 1.493 . S
C134 N151 1.318 . S
O135 C134 1.201 . S
C136 C134 1.493 . S
C136 C137 1.381 . S
C136 N141 1.335 . S
C137 C136 1.381 . S
C137 C138 1.411 . S
C137 H183 0.931 . S
C138 C137 1.411 . S
C138 C139 1.384 . S
C138 H184 0.930 . S
C139 C138 1.384 . S
C139 C140 1.376 . S
C139 H185 0.929 . S
C140 C139 1.376 . S
C140 N141 1.330 . S
C140 C155 1.484 . S
N141 C136 1.335 . S
N141 C140 1.330 . S
N141 Co143 1.859 . S
N142 Co143 1.962 . S
N142 C153 1.318 . S
N142 C177 1.421 . S
Co143 N141 1.859 . S
Co143 N142 1.962 . S
Co143 N144 1.859 . S
Co143 N150 1.958 . S
Co143 N151 1.962 . S
Co143 N152 1.958 . S
N144 Co143 1.859 . S
N144 C148 1.330 . S
N144 C149 1.335 . S
C145 C146 1.411 . S
C145 C149 1.381 . S
C145 H186 0.931 . S
C146 C145 1.411 . S
C146 C147 1.384 . S
C146 H187 0.930 . S
C147 C146 1.384 . S
C147 C148 1.376 . S
C147 H188 0.929 . S
C148 N144 1.330 . S
C148 C147 1.376 . S
C148 C163 1.484 . S
C149 N144 1.335 . S
C149 C145 1.381 . S
C149 C153 1.493 . S
N150 Co143 1.958 . S
N150 C163 1.344 . S
N150 C165 1.425 . S
N151 C134 1.318 . S
N151 Co143 1.962 . S
N151 C171 1.421 . S
N152 Co143 1.958 . S
N152 C155 1.344 . S
N152 C157 1.425 . S
C153 N142 1.318 . S
C153 C149 1.493 . S
C153 O154 1.201 . S
O154 C153 1.201 . S
C155 C140 1.484 . S
C155 N152 1.344 . S
C155 O156 1.268 . S
O156 C155 1.268 . S
C157 N152 1.425 . S
C157 C159 1.392 . S
C157 C160 1.368 . S
C158 C159 1.382 . S
C158 C162 1.386 . S
C159 C157 1.392 . S
C159 C158 1.382 . S
C159 H189 0.928 . S
C160 C157 1.368 . S
C160 C161 1.367 . S
C160 H190 0.930 . S
C161 C160 1.367 . S
C161 C162 1.369 . S
C162 C158 1.386 . S
C162 C161 1.369 . S
C162 H191 0.930 . S
C163 C148 1.484 . S
C163 N150 1.344 . S
C163 O164 1.268 . S
O164 C163 1.268 . S
C165 N150 1.425 . S
C165 C166 1.368 . S
C165 C170 1.392 . S
C166 C165 1.368 . S
C166 C167 1.367 . S
C166 H192 0.930 . S
C167 C166 1.367 . S
C167 C168 1.369 . S
C168 C167 1.369 . S
C168 C169 1.386 . S
C168 H193 0.930 . S
C169 C168 1.386 . S
C169 C170 1.382 . S
C170 C165 1.392 . S
C170 C169 1.382 . S
C170 H194 0.928 . S
C171 N151 1.421 . S
C171 C172 1.371 . S
C171 C176 1.385 . S
C172 C171 1.371 . S
C172 C173 1.367 . S
C172 H195 0.931 . S
C173 C172 1.367 . S
C173 C174 1.401 . S
C174 C173 1.401 . S
C174 C175 1.385 . S
C174 H196 0.930 . S
C175 C174 1.385 . S
C175 C176 1.402 . S
C176 C171 1.385 . S
C176 C175 1.402 . S
C176 H197 0.929 . S
C177 N142 1.421 . S
C177 C180 1.385 . S
C177 C181 1.371 . S
C178 C179 1.385 . S
C178 C182 1.401 . S
C178 H198 0.930 . S
C179 C178 1.385 . S
C179 C180 1.402 . S
C180 C177 1.385 . S
C180 C179 1.402 . S
C180 H199 0.929 . S
C181 C177 1.371 . S
C181 C182 1.367 . S
C181 H200 0.931 . S
C182 C178 1.401 . S
C182 C181 1.367 . S
H183 C137 0.931 . S
H184 C138 0.930 . S
H185 C139 0.929 . S
H186 C145 0.931 . S
H187 C146 0.930 . S
H188 C147 0.929 . S
H189 C159 0.928 . S
H190 C160 0.930 . S
H191 C162 0.930 . S
H192 C166 0.930 . S
H193 C168 0.930 . S
H194 C170 0.928 . S
H195 C172 0.931 . S
H196 C174 0.930 . S
H197 C176 0.929 . S
H198 C178 0.930 . S
H199 C180 0.929 . S
H200 C181 0.931 . S
C201 O202 1.201 . S
C201 C203 1.493 . S
C201 N218 1.318 1_455 S
O202 C201 1.201 . S
C203 C201 1.493 . S
C203 C204 1.381 . S
C203 N208 1.335 . S
C204 C203 1.381 . S
C204 C205 1.411 . S
C204 H250 0.931 . S
C205 C204 1.411 . S
C205 C206 1.384 . S
C205 H251 0.930 . S
C206 C205 1.384 . S
C206 C207 1.376 . S
C206 H252 0.929 . S
C207 C206 1.376 . S
C207 N208 1.330 . S
C207 C222 1.484 . S
N208 C203 1.335 . S
N208 C207 1.330 . S
N208 Co210 1.859 . S
N209 Co210 1.962 . S
N209 C220 1.318 1_455 S
N209 C244 1.421 . S
Co210 N208 1.859 . S
Co210 N209 1.962 . S
Co210 N211 1.859 1_455 S
Co210 N217 1.958 1_455 S
Co210 N218 1.962 1_455 S
Co210 N219 1.958 . S
N211 Co210 1.859 1_655 S
N211 C215 1.330 . S
N211 C216 1.335 . S
C212 C213 1.411 . S
C212 C216 1.381 . S
C212 H253 0.931 . S
C213 C212 1.411 . S
C213 C214 1.384 . S
C213 H254 0.930 . S
C214 C213 1.384 . S
C214 C215 1.376 . S
C214 H255 0.929 . S
C215 N211 1.330 . S
C215 C214 1.376 . S
C215 C230 1.484 . S
C216 N211 1.335 . S
C216 C212 1.381 . S
C216 C220 1.493 . S
N217 Co210 1.958 1_655 S
N217 C230 1.344 . S
N217 C232 1.433 . S
N218 C201 1.318 1_655 S
N218 Co210 1.962 1_655 S
N218 C238 1.421 . S
N219 Co210 1.958 . S
N219 C222 1.344 . S
N219 C224 1.437 . S
C220 N209 1.318 1_655 S
C220 C216 1.493 . S
C220 O221 1.201 . S
O221 C220 1.201 . S
C222 C207 1.484 . S
C222 N219 1.344 . S
C222 O223 1.268 . S
O223 C222 1.268 . S
C224 N219 1.437 . S
C224 C226 1.395 . S
C224 C227 1.351 1_455 S
C225 C226 1.382 1_655 S
C225 C229 1.386 . S
C226 C224 1.395 . S
C226 C225 1.382 1_455 S
C226 H256 0.928 . S
C227 C224 1.351 1_655 S
C227 C228 1.367 . S
C227 H257 0.930 . S
C228 C227 1.367 . S
C228 C229 1.369 . S
C229 C225 1.386 . S
C229 C228 1.369 . S
C229 H258 0.930 . S
C230 C215 1.484 . S
C230 N217 1.344 . S
C230 O231 1.268 . S
O231 C230 1.268 . S
C232 N217 1.433 . S
C232 C233 1.356 1_655 S
C232 C237 1.394 . S
C233 C232 1.356 1_455 S
C233 C234 1.367 . S
C233 H259 0.930 . S
C234 C233 1.367 . S
C234 C235 1.369 . S
C235 C234 1.369 . S
C235 C236 1.386 . S
C235 H260 0.930 . S
C236 C235 1.386 . S
C236 C237 1.382 1_455 S
C237 C232 1.394 . S
C237 C236 1.382 1_655 S
C237 H261 0.928 . S
C238 N218 1.421 . S
C238 C239 1.371 . S
C238 C243 1.385 . S
C239 C238 1.371 . S
C239 C240 1.367 . S
C239 H262 0.931 . S
C240 C239 1.367 . S
C240 C241 1.401 . S
C241 C240 1.401 . S
C241 C242 1.385 . S
C241 H263 0.930 . S
C242 C241 1.385 . S
C242 C243 1.402 . S
C243 C238 1.385 . S
C243 C242 1.402 . S
C243 H264 0.929 . S
C244 N209 1.421 . S
C244 C247 1.385 . S
C244 C248 1.371 . S
C245 C246 1.385 . S
C245 C249 1.401 . S
C245 H265 0.930 . S
C246 C245 1.385 . S
C246 C247 1.402 . S
C247 C244 1.385 . S
C247 C246 1.402 . S
C247 H266 0.929 . S
C248 C244 1.371 . S
C248 C249 1.367 . S
C248 H267 0.931 . S
C249 C245 1.401 . S
C249 C248 1.367 . S
H250 C204 0.931 . S
H251 C205 0.930 . S
H252 C206 0.929 . S
H253 C212 0.931 . S
H254 C213 0.930 . S
H255 C214 0.929 . S
H256 C226 0.928 . S
H257 C227 0.930 . S
H258 C229 0.930 . S
H259 C233 0.930 . S
H260 C235 0.930 . S
H261 C237 0.928 . S
H262 C239 0.931 . S
H263 C241 0.930 . S
H264 C243 0.929 . S
H265 C245 0.930 . S
H266 C247 0.929 . S
H267 C248 0.931 . S
C268 O269 1.201 . S
C268 C270 1.493 . S
C268 N285 1.318 . S
O269 C268 1.201 . S
C270 C268 1.493 . S
C270 C271 1.381 . S
C270 N275 1.335 . S
C271 C270 1.381 . S
C271 C272 1.411 . S
C271 H317 0.931 . S
C272 C271 1.411 . S
C272 C273 1.384 . S
C272 H318 0.930 . S
C273 C272 1.384 . S
C273 C274 1.376 . S
C273 H319 0.929 . S
C274 C273 1.376 . S
C274 N275 1.330 . S
C274 C289 1.484 . S
N275 C270 1.335 . S
N275 C274 1.330 . S
N275 Co277 1.859 . S
N276 Co277 1.962 . S
N276 C287 1.318 . S
N276 C311 1.421 . S
Co277 N275 1.859 . S
Co277 N276 1.962 . S
Co277 N278 1.859 . S
Co277 N284 1.958 . S
Co277 N285 1.962 . S
Co277 N286 1.958 . S
N278 Co277 1.859 . S
N278 C282 1.330 . S
N278 C283 1.335 . S
C279 C280 1.411 . S
C279 C283 1.381 . S
C279 H320 0.931 . S
C280 C279 1.411 . S
C280 C281 1.384 . S
C280 H321 0.930 . S
C281 C280 1.384 . S
C281 C282 1.376 . S
C281 H322 0.929 . S
C282 N278 1.330 . S
C282 C281 1.376 . S
C282 C297 1.484 . S
C283 N278 1.335 . S
C283 C279 1.381 . S
C283 C287 1.493 . S
N284 Co277 1.958 . S
N284 C297 1.344 . S
N284 C299 1.425 . S
N285 C268 1.318 . S
N285 Co277 1.962 . S
N285 C305 1.421 . S
N286 Co277 1.958 . S
N286 C289 1.344 . S
N286 C291 1.425 . S
C287 N276 1.318 . S
C287 C283 1.493 . S
C287 O288 1.201 . S
O288 C287 1.201 . S
C289 C274 1.484 . S
C289 N286 1.344 . S
C289 O290 1.268 . S
O290 C289 1.268 . S
C291 N286 1.425 . S
C291 C293 1.392 . S
C291 C294 1.368 . S
C292 C293 1.382 . S
C292 C296 1.386 . S
C293 C291 1.392 . S
C293 C292 1.382 . S
C293 H323 0.928 . S
C294 C291 1.368 . S
C294 C295 1.367 . S
C294 H324 0.930 . S
C295 C294 1.367 . S
C295 C296 1.369 . S
C296 C292 1.386 . S
C296 C295 1.369 . S
C296 H325 0.930 . S
C297 C282 1.484 . S
C297 N284 1.344 . S
C297 O298 1.268 . S
O298 C297 1.268 . S
C299 N284 1.425 . S
C299 C300 1.368 . S
C299 C304 1.392 . S
C300 C299 1.368 . S
C300 C301 1.367 . S
C300 H326 0.930 . S
C301 C300 1.367 . S
C301 C302 1.369 . S
C302 C301 1.369 . S
C302 C303 1.386 . S
C302 H327 0.930 . S
C303 C302 1.386 . S
C303 C304 1.382 . S
C304 C299 1.392 . S
C304 C303 1.382 . S
C304 H328 0.928 . S
C305 N285 1.421 . S
C305 C306 1.371 . S
C305 C310 1.385 . S
C306 C305 1.371 . S
C306 C307 1.367 . S
C306 H329 0.931 . S
C307 C306 1.367 . S
C307 C308 1.401 . S
C308 C307 1.401 . S
C308 C309 1.385 . S
C308 H330 0.930 . S
C309 C308 1.385 . S
C309 C310 1.402 . S
C310 C305 1.385 . S
C310 C309 1.402 . S
C310 H331 0.929 . S
C311 N276 1.421 . S
C311 C314 1.385 . S
C311 C315 1.371 . S
C312 C313 1.385 . S
C312 C316 1.401 . S
C312 H332 0.930 . S
C313 C312 1.385 . S
C313 C314 1.402 . S
C314 C311 1.385 . S
C314 C313 1.402 . S
C314 H333 0.929 . S
C315 C311 1.371 . S
C315 C316 1.367 . S
C315 H334 0.931 . S
C316 C312 1.401 . S
C316 C315 1.367 . S
H317 C271 0.931 . S
H318 C272 0.930 . S
H319 C273 0.929 . S
H320 C279 0.931 . S
H321 C280 0.930 . S
H322 C281 0.929 . S
H323 C293 0.928 . S
H324 C294 0.930 . S
H325 C296 0.930 . S
H326 C300 0.930 . S
H327 C302 0.930 . S
H328 C304 0.928 . S
H329 C306 0.931 . S
H330 C308 0.930 . S
H331 C310 0.929 . S
H332 C312 0.930 . S
H333 C314 0.929 . S
H334 C315 0.931 . S
C335 O336 1.201 . S
C335 C337 1.493 . S
C335 N352 1.318 . S
O336 C335 1.201 . S
C337 C335 1.493 . S
C337 C338 1.381 . S
C337 N342 1.335 . S
C338 C337 1.381 . S
C338 C339 1.411 . S
C338 H384 0.931 . S
C339 C338 1.411 . S
C339 C340 1.384 . S
C339 H385 0.930 . S
C340 C339 1.384 . S
C340 C341 1.376 . S
C340 H386 0.929 . S
C341 C340 1.376 . S
C341 N342 1.330 . S
C341 C356 1.484 . S
N342 C337 1.335 . S
N342 C341 1.330 . S
N342 Co344 1.859 . S
N343 Co344 1.962 . S
N343 C354 1.318 . S
N343 C378 1.421 . S
Co344 N342 1.859 . S
Co344 N343 1.962 . S
Co344 N345 1.859 . S
Co344 N351 1.958 . S
Co344 N352 1.962 . S
Co344 N353 1.958 . S
N345 Co344 1.859 . S
N345 C349 1.330 . S
N345 C350 1.335 . S
C346 C347 1.411 . S
C346 C350 1.381 . S
C346 H387 0.931 . S
C347 C346 1.411 . S
C347 C348 1.384 . S
C347 H388 0.930 . S
C348 C347 1.384 . S
C348 C349 1.376 . S
C348 H389 0.929 . S
C349 N345 1.330 . S
C349 C348 1.376 . S
C349 C364 1.484 . S
C350 N345 1.335 . S
C350 C346 1.381 . S
C350 C354 1.493 . S
N351 Co344 1.958 . S
N351 C364 1.344 . S
N351 C366 1.425 . S
N352 C335 1.318 . S
N352 Co344 1.962 . S
N352 C372 1.421 . S
N353 Co344 1.958 . S
N353 C356 1.344 . S
N353 C358 1.425 . S
C354 N343 1.318 . S
C354 C350 1.493 . S
C354 O355 1.201 . S
O355 C354 1.201 . S
C356 C341 1.484 . S
C356 N353 1.344 . S
C356 O357 1.268 . S
O357 C356 1.268 . S
C358 N353 1.425 . S
C358 C360 1.392 . S
C358 C361 1.368 . S
C359 C360 1.382 . S
C359 C363 1.386 . S
C360 C358 1.392 . S
C360 C359 1.382 . S
C360 H390 0.928 . S
C361 C358 1.368 . S
C361 C362 1.367 . S
C361 H391 0.930 . S
C362 C361 1.367 . S
C362 C363 1.369 . S
C363 C359 1.386 . S
C363 C362 1.369 . S
C363 H392 0.930 . S
C364 C349 1.484 . S
C364 N351 1.344 . S
C364 O365 1.268 . S
O365 C364 1.268 . S
C366 N351 1.425 . S
C366 C367 1.368 . S
C366 C371 1.392 . S
C367 C366 1.368 . S
C367 C368 1.367 . S
C367 H393 0.930 . S
C368 C367 1.367 . S
C368 C369 1.369 . S
C369 C368 1.369 . S
C369 C370 1.386 . S
C369 H394 0.930 . S
C370 C369 1.386 . S
C370 C371 1.382 . S
C371 C366 1.392 . S
C371 C370 1.382 . S
C371 H395 0.928 . S
C372 N352 1.421 . S
C372 C373 1.371 . S
C372 C377 1.385 . S
C373 C372 1.371 . S
C373 C374 1.367 . S
C373 H396 0.931 . S
C374 C373 1.367 . S
C374 C375 1.401 . S
C375 C374 1.401 . S
C375 C376 1.385 . S
C375 H397 0.930 . S
C376 C375 1.385 . S
C376 C377 1.402 . S
C377 C372 1.385 . S
C377 C376 1.402 . S
C377 H398 0.929 . S
C378 N343 1.421 . S
C378 C381 1.385 . S
C378 C382 1.371 . S
C379 C380 1.385 . S
C379 C383 1.401 . S
C379 H399 0.930 . S
C380 C379 1.385 . S
C380 C381 1.402 . S
C381 C378 1.385 . S
C381 C380 1.402 . S
C381 H400 0.929 . S
C382 C378 1.371 . S
C382 C383 1.367 . S
C382 H401 0.931 . S
C383 C379 1.401 . S
C383 C382 1.367 . S
H384 C338 0.931 . S
H385 C339 0.930 . S
H386 C340 0.929 . S
H387 C346 0.931 . S
H388 C347 0.930 . S
H389 C348 0.929 . S
H390 C360 0.928 . S
H391 C361 0.930 . S
H392 C363 0.930 . S
H393 C367 0.930 . S
H394 C369 0.930 . S
H395 C371 0.928 . S
H396 C373 0.931 . S
H397 C375 0.930 . S
H398 C377 0.929 . S
H399 C379 0.930 . S
H400 C381 0.929 . S
H401 C382 0.931 . S
C402 O403 1.201 . S
C402 C404 1.493 . S
C402 N419 1.318 . S
O403 C402 1.201 . S
C404 C402 1.493 . S
C404 C405 1.381 . S
C404 N409 1.335 . S
C405 C404 1.381 . S
C405 C406 1.411 . S
C405 H451 0.931 . S
C406 C405 1.411 . S
C406 C407 1.384 . S
C406 H452 0.930 . S
C407 C406 1.384 . S
C407 C408 1.376 . S
C407 H453 0.929 . S
C408 C407 1.376 . S
C408 N409 1.330 . S
C408 C423 1.484 1_565 S
N409 C404 1.335 . S
N409 C408 1.330 . S
N409 Co411 1.859 1_565 S
N410 Co411 1.962 . S
N410 C421 1.318 . S
N410 C445 1.421 . S
Co411 N409 1.859 1_545 S
Co411 N410 1.962 . S
Co411 N412 1.859 . S
Co411 N418 1.958 1_545 S
Co411 N419 1.962 1_545 S
Co411 N420 1.958 . S
N412 Co411 1.859 . S
N412 C416 1.330 . S
N412 C417 1.335 . S
C413 C414 1.411 . S
C413 C417 1.381 . S
C413 H454 0.931 . S
C414 C413 1.411 . S
C414 C415 1.384 . S
C414 H455 0.930 . S
C415 C414 1.384 . S
C415 C416 1.376 . S
C415 H456 0.929 . S
C416 N412 1.330 . S
C416 C415 1.376 . S
C416 C431 1.484 1_545 S
C417 N412 1.335 . S
C417 C413 1.381 . S
C417 C421 1.493 . S
N418 Co411 1.958 1_565 S
N418 C431 1.344 . S
N418 C433 1.425 . S
N419 C402 1.318 . S
N419 Co411 1.962 1_565 S
N419 C439 1.421 . S
N420 Co411 1.958 . S
N420 C423 1.344 . S
N420 C425 1.425 . S
C421 N410 1.318 . S
C421 C417 1.493 . S
C421 O422 1.201 . S
O422 C421 1.201 . S
C423 C408 1.484 1_545 S
C423 N420 1.344 . S
C423 O424 1.268 . S
O424 C423 1.268 . S
C425 N420 1.425 . S
C425 C427 1.392 . S
C425 C428 1.368 . S
C426 C427 1.382 . S
C426 C430 1.386 . S
C427 C425 1.392 . S
C427 C426 1.382 . S
C427 H457 0.928 . S
C428 C425 1.368 . S
C428 C429 1.367 . S
C428 H458 0.930 . S
C429 C428 1.367 . S
C429 C430 1.369 . S
C430 C426 1.386 . S
C430 C429 1.369 . S
C430 H459 0.930 . S
C431 C416 1.484 1_565 S
C431 N418 1.344 . S
C431 O432 1.268 . S
O432 C431 1.268 . S
C433 N418 1.425 . S
C433 C434 1.368 . S
C433 C438 1.392 . S
C434 C433 1.368 . S
C434 C435 1.367 . S
C434 H460 0.930 . S
C435 C434 1.367 . S
C435 C436 1.369 . S
C436 C435 1.369 . S
C436 C437 1.386 . S
C436 H461 0.930 . S
C437 C436 1.386 . S
C437 C438 1.382 . S
C438 C433 1.392 . S
C438 C437 1.382 . S
C438 H462 0.928 . S
C439 N419 1.421 . S
C439 C440 1.371 . S
C439 C444 1.385 . S
C440 C439 1.371 . S
C440 C441 1.367 . S
C440 H463 0.931 . S
C441 C440 1.367 . S
C441 C442 1.401 . S
C442 C441 1.401 . S
C442 C443 1.385 . S
C442 H464 0.930 . S
C443 C442 1.385 . S
C443 C444 1.402 . S
C444 C439 1.385 . S
C444 C443 1.402 . S
C444 H465 0.929 . S
C445 N410 1.421 . S
C445 C448 1.385 . S
C445 C449 1.371 . S
C446 C447 1.385 . S
C446 C450 1.401 . S
C446 H466 0.930 . S
C447 C446 1.385 . S
C447 C448 1.402 . S
C448 C445 1.385 . S
C448 C447 1.402 . S
C448 H467 0.929 . S
C449 C445 1.371 . S
C449 C450 1.367 . S
C449 H468 0.931 . S
C450 C446 1.401 . S
C450 C449 1.367 . S
H451 C405 0.931 . S
H452 C406 0.930 . S
H453 C407 0.929 . S
H454 C413 0.931 . S
H455 C414 0.930 . S
H456 C415 0.929 . S
H457 C427 0.928 . S
H458 C428 0.930 . S
H459 C430 0.930 . S
H460 C434 0.930 . S
H461 C436 0.930 . S
H462 C438 0.928 . S
H463 C440 0.931 . S
H464 C442 0.930 . S
H465 C444 0.929 . S
H466 C446 0.930 . S
H467 C448 0.929 . S
H468 C449 0.931 . S
C469 O470 1.201 . S
C469 C471 1.493 . S
C469 N486 1.318 . S
O470 C469 1.201 . S
C471 C469 1.493 . S
C471 C472 1.381 . S
C471 N476 1.335 1_554 S
C472 C471 1.381 . S
C472 C473 1.411 1_554 S
C472 H518 0.931 . S
C473 C472 1.411 1_556 S
C473 C474 1.384 . S
C473 H519 0.930 . S
C474 C473 1.384 . S
C474 C475 1.376 . S
C474 H520 0.929 . S
C475 C474 1.376 . S
C475 N476 1.330 . S
C475 C490 1.484 . S
N476 C471 1.335 1_556 S
N476 C475 1.330 . S
N476 Co478 1.859 . S
N477 Co478 1.962 1_554 S
N477 C488 1.318 . S
N477 C512 1.421 . S
Co478 N476 1.859 . S
Co478 N477 1.962 1_556 S
Co478 N479 1.859 . S
Co478 N485 1.958 . S
Co478 N486 1.962 1_556 S
Co478 N487 1.958 . S
N479 Co478 1.859 . S
N479 C483 1.330 . S
N479 C484 1.335 1_556 S
C480 C481 1.411 1_554 S
C480 C484 1.381 . S
C480 H521 0.931 . S
C481 C480 1.411 1_556 S
C481 C482 1.384 . S
C481 H522 0.930 . S
C482 C481 1.384 . S
C482 C483 1.376 . S
C482 H523 0.929 . S
C483 N479 1.330 . S
C483 C482 1.376 . S
C483 C498 1.484 . S
C484 N479 1.335 1_554 S
C484 C480 1.381 . S
C484 C488 1.493 . S
N485 Co478 1.958 . S
N485 C498 1.344 . S
N485 C500 1.425 . S
N486 C469 1.318 . S
N486 Co478 1.962 1_554 S
N486 C506 1.421 . S
N487 Co478 1.958 . S
N487 C490 1.344 . S
N487 C492 1.425 . S
C488 N477 1.318 . S
C488 C484 1.493 . S
C488 O489 1.201 . S
O489 C488 1.201 . S
C490 C475 1.484 . S
C490 N487 1.344 . S
C490 O491 1.268 . S
O491 C490 1.268 . S
C492 N487 1.425 . S
C492 C494 1.392 . S
C492 C495 1.368 . S
C493 C494 1.382 . S
C493 C497 1.386 . S
C494 C492 1.392 . S
C494 C493 1.382 . S
C494 H524 0.928 . S
C495 C492 1.368 . S
C495 C496 1.367 . S
C495 H525 0.930 . S
C496 C495 1.367 . S
C496 C497 1.369 . S
C497 C493 1.386 . S
C497 C496 1.369 . S
C497 H526 0.930 . S
C498 C483 1.484 . S
C498 N485 1.344 . S
C498 O499 1.268 . S
O499 C498 1.268 . S
C500 N485 1.425 . S
C500 C501 1.368 . S
C500 C505 1.392 . S
C501 C500 1.368 . S
C501 C502 1.367 . S
C501 H527 0.930 . S
C502 C501 1.367 . S
C502 C503 1.369 . S
C503 C502 1.369 . S
C503 C504 1.386 . S
C503 H528 0.930 . S
C504 C503 1.386 . S
C504 C505 1.382 . S
C505 C500 1.392 . S
C505 C504 1.382 . S
C505 H529 0.928 . S
C506 N486 1.421 . S
C506 C507 1.371 . S
C506 C511 1.385 . S
C507 C506 1.371 . S
C507 C508 1.367 . S
C507 H530 0.931 . S
C508 C507 1.367 . S
C508 C509 1.401 . S
C509 C508 1.401 . S
C509 C510 1.385 . S
C509 H531 0.930 . S
C510 C509 1.385 . S
C510 C511 1.402 . S
C511 C506 1.385 . S
C511 C510 1.402 . S
C511 H532 0.929 . S
C512 N477 1.421 . S
C512 C515 1.385 . S
C512 C516 1.371 . S
C513 C514 1.385 . S
C513 C517 1.401 . S
C513 H533 0.930 . S
C514 C513 1.385 . S
C514 C515 1.402 . S
C515 C512 1.385 . S
C515 C514 1.402 . S
C515 H534 0.929 . S
C516 C512 1.371 . S
C516 C517 1.367 . S
C516 H535 0.931 . S
C517 C513 1.401 . S
C517 C516 1.367 . S
H518 C472 0.931 . S
H519 C473 0.930 . S
H520 C474 0.929 . S
H521 C480 0.931 . S
H522 C481 0.930 . S
H523 C482 0.929 . S
H524 C494 0.928 . S
H525 C495 0.930 . S
H526 C497 0.930 . S
H527 C501 0.930 . S
H528 C503 0.930 . S
H529 C505 0.928 . S
H530 C507 0.931 . S
H531 C509 0.930 . S
H532 C511 0.929 . S
H533 C513 0.930 . S
H534 C515 0.929 . S
H535 C516 0.931 . S
C536 C537 1.349 . S
C536 C538 1.327 . S
C536 H561 0.950 1_545 S
C537 C536 1.349 . S
C537 C553 1.349 . S
C538 C536 1.327 . S
C538 C557 1.429 . S
C538 H562 0.950 . S
C539 C556 1.574 . S
C539 C558 1.368 . S
C539 H563 0.949 . S
H540 C544 0.949 . S
C541 C542 1.349 . S
C541 C543 1.327 . S
C541 H564 0.950 . S
C542 C541 1.349 . S
C542 C554 1.349 . S
C543 C541 1.327 . S
C543 C559 1.429 . S
C543 H565 0.950 . S
C544 H540 0.949 . S
C544 C552 1.574 . S
C544 C560 1.368 . S
H545 C553 0.950 . S
H546 C551 0.950 . S
H547 C552 0.949 . S
H548 C554 0.950 . S
H549 C555 0.950 . S
H550 C556 0.949 . S
C551 H546 0.950 . S
C551 C553 1.327 . S
C551 C557 1.429 . S
C552 C544 1.574 . S
C552 H547 0.949 . S
C552 C558 1.368 . S
C553 C537 1.349 . S
C553 H545 0.950 . S
C553 C551 1.327 . S
C554 C542 1.349 . S
C554 H548 0.950 . S
C554 C555 1.327 . S
C555 H549 0.950 . S
C555 C554 1.327 . S
C555 C559 1.429 . S
C556 C539 1.574 . S
C556 H550 0.949 . S
C556 C560 1.368 . S
C557 C538 1.429 . S
C557 C551 1.429 . S
C557 C558 1.523 . S
C558 C539 1.368 . S
C558 C552 1.368 . S
C558 C557 1.523 . S
C559 C543 1.429 . S
C559 C555 1.429 . S
C559 C560 1.523 . S
C560 C544 1.368 . S
C560 C556 1.368 . S
C560 C559 1.523 . S
H561 C536 0.950 1_565 S
H562 C538 0.950 . S
H563 C539 0.949 . S
H564 C541 0.950 . S
H565 C543 0.950 . S
C566 C567 1.349 . S
C566 C568 1.327 . S
C566 H591 0.950 1_565 S
C567 C566 1.349 . S
C567 C583 1.349 . S
C568 C566 1.327 . S
C568 C587 1.429 . S
C568 H592 0.950 1_565 S
C569 C586 1.574 . S
C569 C588 1.368 . S
C569 H593 0.949 . S
H570 C574 0.949 . S
C571 C572 1.349 . S
C571 C573 1.327 . S
C571 H594 0.950 . S
C572 C571 1.349 . S
C572 C584 1.349 . S
C573 C571 1.327 . S
C573 C589 1.429 . S
C573 H595 0.950 . S
C574 H570 0.949 . S
C574 C582 1.574 . S
C574 C590 1.368 . S
H575 C583 0.950 . S
H576 C581 0.950 . S
H577 C582 0.949 . S
H578 C584 0.950 . S
H579 C585 0.950 . S
H580 C586 0.949 . S
C581 H576 0.950 . S
C581 C583 1.327 . S
C581 C587 1.429 . S
C582 C574 1.574 . S
C582 H577 0.949 . S
C582 C588 1.368 . S
C583 C567 1.349 . S
C583 H575 0.950 . S
C583 C581 1.327 . S
C584 C572 1.349 . S
C584 H578 0.950 . S
C584 C585 1.327 . S
C585 H579 0.950 . S
C585 C584 1.327 . S
C585 C589 1.429 . S
C586 C569 1.574 . S
C586 H580 0.949 . S
C586 C590 1.368 . S
C587 C568 1.429 . S
C587 C581 1.429 . S
C587 C588 1.523 . S
C588 C569 1.368 . S
C588 C582 1.368 . S
C588 C587 1.523 . S
C589 C573 1.429 . S
C589 C585 1.429 . S
C589 C590 1.523 . S
C590 C574 1.368 . S
C590 C586 1.368 . S
C590 C589 1.523 . S
H591 C566 0.950 1_545 S
H592 C568 0.950 1_545 S
H593 C569 0.949 . S
H594 C571 0.950 . S
H595 C573 0.950 . S
C596 C597 1.349 . S
C596 C598 1.327 . S
C596 H621 0.950 . S
C597 C596 1.349 . S
C597 C613 1.349 . S
C598 C596 1.327 . S
C598 C617 1.429 . S
C598 H622 0.950 . S
C599 C616 1.574 . S
C599 C618 1.368 . S
C599 H623 0.949 . S
H600 C604 0.949 . S
C601 C602 1.349 . S
C601 C603 1.327 . S
C601 H624 0.950 . S
C602 C601 1.349 . S
C602 C614 1.349 . S
C603 C601 1.327 . S
C603 C619 1.429 . S
C603 H625 0.950 . S
C604 H600 0.949 . S
C604 C612 1.574 . S
C604 C620 1.368 . S
H605 C613 0.950 . S
H606 C611 0.950 . S
H607 C612 0.949 . S
H608 C614 0.950 . S
H609 C615 0.950 . S
H610 C616 0.949 . S
C611 H606 0.950 . S
C611 C613 1.327 . S
C611 C617 1.429 . S
C612 C604 1.574 . S
C612 H607 0.949 . S
C612 C618 1.368 . S
C613 C597 1.349 . S
C613 H605 0.950 . S
C613 C611 1.327 . S
C614 C602 1.349 . S
C614 H608 0.950 . S
C614 C615 1.327 . S
C615 H609 0.950 . S
C615 C614 1.327 . S
C615 C619 1.429 . S
C616 C599 1.574 . S
C616 H610 0.949 . S
C616 C620 1.368 . S
C617 C598 1.429 . S
C617 C611 1.429 . S
C617 C618 1.523 . S
C618 C599 1.368 . S
C618 C612 1.368 . S
C618 C617 1.523 . S
C619 C603 1.429 . S
C619 C615 1.429 . S
C619 C620 1.523 . S
C620 C604 1.368 . S
C620 C616 1.368 . S
C620 C619 1.523 . S
H621 C596 0.950 . S
H622 C598 0.950 . S
H623 C599 0.949 . S
H624 C601 0.950 . S
H625 C603 0.950 . S
C626 C627 1.349 . S
C626 C628 1.327 . S
C626 H651 0.950 . S
C627 C626 1.349 . S
C627 C643 1.349 . S
C628 C626 1.327 . S
C628 C647 1.429 . S
C628 H652 0.950 . S
C629 C646 1.574 . S
C629 C648 1.368 . S
C629 H653 0.949 . S
H630 C634 0.949 . S
C631 C632 1.349 . S
C631 C633 1.327 . S
C631 H654 0.950 . S
C632 C631 1.349 . S
C632 C644 1.349 . S
C633 C631 1.327 . S
C633 C649 1.429 . S
C633 H655 0.950 . S
C634 H630 0.949 . S
C634 C642 1.574 . S
C634 C650 1.368 . S
H635 C643 0.950 . S
H636 C641 0.950 . S
H637 C642 0.949 . S
H638 C644 0.950 . S
H639 C645 0.950 . S
H640 C646 0.949 . S
C641 H636 0.950 . S
C641 C643 1.327 . S
C641 C647 1.429 . S
C642 C634 1.574 . S
C642 H637 0.949 . S
C642 C648 1.368 . S
C643 C627 1.349 . S
C643 H635 0.950 . S
C643 C641 1.327 . S
C644 C632 1.349 . S
C644 H638 0.950 . S
C644 C645 1.327 . S
C645 H639 0.950 . S
C645 C644 1.327 . S
C645 C649 1.429 . S
C646 C629 1.574 . S
C646 H640 0.949 . S
C646 C650 1.368 . S
C647 C628 1.429 . S
C647 C641 1.429 . S
C647 C648 1.523 . S
C648 C629 1.368 . S
C648 C642 1.368 . S
C648 C647 1.523 . S
C649 C633 1.429 . S
C649 C645 1.429 . S
C649 C650 1.523 . S
C650 C634 1.368 . S
C650 C646 1.368 . S
C650 C649 1.523 . S
H651 C626 0.950 . S
H652 C628 0.950 . S
H653 C629 0.949 . S
H654 C631 0.950 . S
H655 C633 0.950 . S
C656 C657 1.349 . S
C656 C658 1.327 . S
C656 H681 0.950 . S
C657 C656 1.349 . S
C657 C673 1.349 . S
C658 C656 1.327 . S
C658 C677 1.429 . S
C658 H682 0.950 . S
C659 C676 1.574 . S
C659 C678 1.368 . S
C659 H683 0.949 . S
H660 C664 0.949 . S
C661 C662 1.349 . S
C661 C663 1.327 . S
C661 H684 0.950 . S
C662 C661 1.349 . S
C662 C674 1.349 . S
C663 C661 1.327 . S
C663 C679 1.429 . S
C663 H685 0.950 . S
C664 H660 0.949 . S
C664 C672 1.574 . S
C664 C680 1.368 . S
H665 C673 0.950 . S
H666 C671 0.950 . S
H667 C672 0.949 . S
H668 C674 0.950 . S
H669 C675 0.950 . S
H670 C676 0.949 . S
C671 H666 0.950 . S
C671 C673 1.327 . S
C671 C677 1.429 . S
C672 C664 1.574 . S
C672 H667 0.949 . S
C672 C678 1.368 . S
C673 C657 1.349 . S
C673 H665 0.950 . S
C673 C671 1.327 . S
C674 C662 1.349 . S
C674 H668 0.950 . S
C674 C675 1.327 . S
C675 H669 0.950 . S
C675 C674 1.327 . S
C675 C679 1.429 . S
C676 C659 1.574 . S
C676 H670 0.949 . S
C676 C680 1.368 . S
C677 C658 1.429 . S
C677 C671 1.429 . S
C677 C678 1.523 . S
C678 C659 1.368 . S
C678 C672 1.368 . S
C678 C677 1.523 . S
C679 C663 1.429 . S
C679 C675 1.429 . S
C679 C680 1.523 . S
C680 C664 1.368 . S
C680 C676 1.368 . S
C680 C679 1.523 . S
H681 C656 0.950 . S
H682 C658 0.950 . S
H683 C659 0.949 . S
H684 C661 0.950 . S
H685 C663 0.950 . S
C686 C687 1.349 . S
C686 C688 1.327 . S
C686 H711 0.950 . S
C687 C686 1.349 . S
C687 C703 1.349 . S
C688 C686 1.327 . S
C688 C707 1.429 . S
C688 H712 0.950 . S
C689 C706 1.574 . S
C689 C708 1.368 . S
C689 H713 0.949 . S
H690 C694 0.949 . S
C691 C692 1.349 . S
C691 C693 1.327 . S
C691 H714 0.950 . S
C692 C691 1.349 . S
C692 C704 1.349 . S
C693 C691 1.327 . S
C693 C709 1.429 . S
C693 H715 0.950 . S
C694 H690 0.949 . S
C694 C702 1.574 . S
C694 C710 1.368 . S
H695 C703 0.950 . S
H696 C701 0.950 . S
H697 C702 0.949 . S
H698 C704 0.950 . S
H699 C705 0.950 . S
H700 C706 0.949 . S
C701 H696 0.950 . S
C701 C703 1.327 . S
C701 C707 1.429 . S
C702 C694 1.574 . S
C702 H697 0.949 . S
C702 C708 1.368 . S
C703 C687 1.349 . S
C703 H695 0.950 . S
C703 C701 1.327 . S
C704 C692 1.349 . S
C704 H698 0.950 . S
C704 C705 1.327 . S
C705 H699 0.950 . S
C705 C704 1.327 . S
C705 C709 1.429 . S
C706 C689 1.574 . S
C706 H700 0.949 . S
C706 C710 1.368 . S
C707 C688 1.429 . S
C707 C701 1.429 . S
C707 C708 1.523 . S
C708 C689 1.368 . S
C708 C702 1.368 . S
C708 C707 1.523 . S
C709 C693 1.429 . S
C709 C705 1.429 . S
C709 C710 1.523 . S
C710 C694 1.368 . S
C710 C706 1.368 . S
C710 C709 1.523 . S
H711 C686 0.950 . S
H712 C688 0.950 . S
H713 C689 0.949 . S
H714 C691 0.950 . S
H715 C693 0.950 . S
C716 C717 1.349 . S
C716 C718 1.327 . S
C716 H741 0.950 . S
C717 C716 1.349 . S
C717 C733 1.349 . S
C718 C716 1.327 . S
C718 C737 1.429 . S
C718 H742 0.950 . S
C719 C736 1.574 . S
C719 C738 1.368 . S
C719 H743 0.949 . S
H720 C724 0.949 . S
C721 C722 1.349 . S
C721 C723 1.327 . S
C721 H744 0.950 . S
C722 C721 1.349 . S
C722 C734 1.349 . S
C723 C721 1.327 . S
C723 C739 1.429 . S
C723 H745 0.950 . S
C724 H720 0.949 . S
C724 C732 1.574 . S
C724 C740 1.368 . S
H725 C733 0.950 . S
H726 C731 0.950 . S
H727 C732 0.949 . S
H728 C734 0.950 . S
H729 C735 0.950 . S
H730 C736 0.949 . S
C731 H726 0.950 . S
C731 C733 1.327 . S
C731 C737 1.429 . S
C732 C724 1.574 . S
C732 H727 0.949 . S
C732 C738 1.368 . S
C733 C717 1.349 . S
C733 H725 0.950 . S
C733 C731 1.327 . S
C734 C722 1.349 . S
C734 H728 0.950 . S
C734 C735 1.327 . S
C735 H729 0.950 . S
C735 C734 1.327 . S
C735 C739 1.429 . S
C736 C719 1.574 . S
C736 H730 0.949 . S
C736 C740 1.368 . S
C737 C718 1.429 . S
C737 C731 1.429 . S
C737 C738 1.523 . S
C738 C719 1.368 . S
C738 C732 1.368 . S
C738 C737 1.523 . S
C739 C723 1.429 . S
C739 C735 1.429 . S
C739 C740 1.523 . S
C740 C724 1.368 . S
C740 C736 1.368 . S
C740 C739 1.523 . S
H741 C716 0.950 . S
H742 C718 0.950 . S
H743 C719 0.949 . S
H744 C721 0.950 . S
H745 C723 0.950 . S
C746 C747 1.349 . S
C746 C748 1.327 . S
C746 H771 0.950 . S
C747 C746 1.349 . S
C747 C763 1.349 . S
C748 C746 1.327 . S
C748 C767 1.429 . S
C748 H772 0.950 . S
C749 C766 1.574 . S
C749 C768 1.368 . S
C749 H773 0.949 . S
H750 C754 0.949 . S
C751 C752 1.349 . S
C751 C753 1.327 . S
C751 H774 0.950 . S
C752 C751 1.349 . S
C752 C764 1.349 . S
C753 C751 1.327 . S
C753 C769 1.429 . S
C753 H775 0.950 . S
C754 H750 0.949 . S
C754 C762 1.574 . S
C754 C770 1.368 . S
H755 C763 0.950 . S
H756 C761 0.950 . S
H757 C762 0.949 . S
H758 C764 0.950 . S
H759 C765 0.950 . S
H760 C766 0.949 . S
C761 H756 0.950 . S
C761 C763 1.327 . S
C761 C767 1.429 . S
C762 C754 1.574 . S
C762 H757 0.949 . S
C762 C768 1.368 . S
C763 C747 1.349 . S
C763 H755 0.950 . S
C763 C761 1.327 . S
C764 C752 1.349 . S
C764 H758 0.950 . S
C764 C765 1.327 . S
C765 H759 0.950 . S
C765 C764 1.327 . S
C765 C769 1.429 . S
C766 C749 1.574 . S
C766 H760 0.949 . S
C766 C770 1.368 . S
C767 C748 1.429 . S
C767 C761 1.429 . S
C767 C768 1.523 . S
C768 C749 1.368 . S
C768 C762 1.368 . S
C768 C767 1.523 . S
C769 C753 1.429 . S
C769 C765 1.429 . S
C769 C770 1.523 . S
C770 C754 1.368 . S
C770 C766 1.368 . S
C770 C769 1.523 . S
H771 C746 0.950 . S
H772 C748 0.950 . S
H773 C749 0.949 . S
H774 C751 0.950 . S
H775 C753 0.950 . S
C776 C777 1.349 . S
C776 C778 1.327 . S
C776 H801 0.950 . S
C777 C776 1.349 . S
C777 C793 1.349 . S
C778 C776 1.327 . S
C778 C797 1.429 . S
C778 H802 0.950 . S
C779 C796 1.574 . S
C779 C798 1.368 . S
C779 H803 0.949 . S
H780 C784 0.949 . S
C781 C782 1.349 . S
C781 C783 1.327 . S
C781 H804 0.950 . S
C782 C781 1.349 . S
C782 C794 1.349 . S
C783 C781 1.327 . S
C783 C799 1.429 . S
C783 H805 0.950 . S
C784 H780 0.949 . S
C784 C792 1.574 . S
C784 C800 1.368 . S
H785 C793 0.950 . S
H786 C791 0.950 . S
H787 C792 0.949 . S
H788 C794 0.950 1_565 S
H789 C795 0.950 . S
H790 C796 0.949 . S
C791 H786 0.950 . S
C791 C793 1.327 . S
C791 C797 1.429 . S
C792 C784 1.574 . S
C792 H787 0.949 . S
C792 C798 1.368 . S
C793 C777 1.349 . S
C793 H785 0.950 . S
C793 C791 1.327 . S
C794 C782 1.349 . S
C794 H788 0.950 1_545 S
C794 C795 1.327 . S
C795 H789 0.950 . S
C795 C794 1.327 . S
C795 C799 1.429 . S
C796 C779 1.574 . S
C796 H790 0.949 . S
C796 C800 1.368 . S
C797 C778 1.429 . S
C797 C791 1.429 . S
C797 C798 1.523 . S
C798 C779 1.368 . S
C798 C792 1.368 . S
C798 C797 1.523 . S
C799 C783 1.429 . S
C799 C795 1.429 . S
C799 C800 1.523 . S
C800 C784 1.368 . S
C800 C796 1.368 . S
C800 C799 1.523 . S
H801 C776 0.950 . S
H802 C778 0.950 . S
H803 C779 0.949 . S
H804 C781 0.950 . S
H805 C783 0.950 . S
C806 C807 1.349 . S
C806 C808 1.327 . S
C806 H831 0.950 . S
C807 C806 1.349 . S
C807 C823 1.349 . S
C808 C806 1.327 . S
C808 C827 1.429 . S
C808 H832 0.950 . S
C809 C826 1.574 . S
C809 C828 1.368 . S
C809 H833 0.949 . S
H810 C814 0.949 . S
C811 C812 1.349 . S
C811 C813 1.327 . S
C811 H834 0.950 . S
C812 C811 1.349 . S
C812 C824 1.349 . S
C813 C811 1.327 . S
C813 C829 1.429 . S
C813 H835 0.950 . S
C814 H810 0.949 . S
C814 C822 1.574 . S
C814 C830 1.368 . S
H815 C823 0.950 . S
H816 C821 0.950 . S
H817 C822 0.949 . S
H818 C824 0.950 . S
H819 C825 0.950 . S
H820 C826 0.949 . S
C821 H816 0.950 . S
C821 C823 1.327 . S
C821 C827 1.429 . S
C822 C814 1.574 . S
C822 H817 0.949 . S
C822 C828 1.368 . S
C823 C807 1.349 . S
C823 H815 0.950 . S
C823 C821 1.327 . S
C824 C812 1.349 . S
C824 H818 0.950 . S
C824 C825 1.327 . S
C825 H819 0.950 . S
C825 C824 1.327 . S
C825 C829 1.429 . S
C826 C809 1.574 . S
C826 H820 0.949 . S
C826 C830 1.368 . S
C827 C808 1.429 . S
C827 C821 1.429 . S
C827 C828 1.523 . S
C828 C809 1.368 . S
C828 C822 1.368 . S
C828 C827 1.523 . S
C829 C813 1.429 . S
C829 C825 1.429 . S
C829 C830 1.523 . S
C830 C814 1.368 . S
C830 C826 1.368 . S
C830 C829 1.523 . S
H831 C806 0.950 . S
H832 C808 0.950 . S
H833 C809 0.949 . S
H834 C811 0.950 . S
H835 C813 0.950 . S
C836 C837 1.349 . S
C836 C838 1.327 . S
C836 H861 0.950 . S
C837 C836 1.349 . S
C837 C853 1.349 . S
C838 C836 1.327 . S
C838 C857 1.429 . S
C838 H862 0.950 . S
C839 C856 1.574 . S
C839 C858 1.368 . S
C839 H863 0.949 . S
H840 C844 0.949 . S
C841 C842 1.349 . S
C841 C843 1.327 . S
C841 H864 0.950 . S
C842 C841 1.349 . S
C842 C854 1.349 . S
C843 C841 1.327 . S
C843 C859 1.429 . S
C843 H865 0.950 . S
C844 H840 0.949 . S
C844 C852 1.574 . S
C844 C860 1.368 . S
H845 C853 0.950 . S
H846 C851 0.950 . S
H847 C852 0.949 . S
H848 C854 0.950 . S
H849 C855 0.950 . S
H850 C856 0.949 . S
C851 H846 0.950 . S
C851 C853 1.327 . S
C851 C857 1.429 . S
C852 C844 1.574 . S
C852 H847 0.949 . S
C852 C858 1.368 . S
C853 C837 1.349 . S
C853 H845 0.950 . S
C853 C851 1.327 . S
C854 C842 1.349 . S
C854 H848 0.950 . S
C854 C855 1.327 . S
C855 H849 0.950 . S
C855 C854 1.327 . S
C855 C859 1.429 . S
C856 C839 1.574 . S
C856 H850 0.949 . S
C856 C860 1.368 . S
C857 C838 1.429 . S
C857 C851 1.429 . S
C857 C858 1.523 . S
C858 C839 1.368 . S
C858 C852 1.368 . S
C858 C857 1.523 . S
C859 C843 1.429 . S
C859 C855 1.429 . S
C859 C860 1.523 . S
C860 C844 1.368 . S
C860 C856 1.368 . S
C860 C859 1.523 . S
H861 C836 0.950 . S
H862 C838 0.950 . S
H863 C839 0.949 . S
H864 C841 0.950 . S
H865 C843 0.950 . S
C866 C867 1.349 . S
C866 C868 1.327 . S
C866 H891 0.950 . S
C867 C866 1.349 . S
C867 C883 1.349 . S
C868 C866 1.327 . S
C868 C887 1.429 . S
C868 H892 0.950 . S
C869 C886 1.574 . S
C869 C888 1.368 . S
C869 H893 0.949 . S
H870 C874 0.949 . S
C871 C872 1.349 . S
C871 C873 1.327 . S
C871 H894 0.950 . S
C872 C871 1.349 . S
C872 C884 1.349 . S
C873 C871 1.327 . S
C873 C889 1.429 . S
C873 H895 0.950 . S
C874 H870 0.949 . S
C874 C882 1.574 . S
C874 C890 1.368 . S
H875 C883 0.950 . S
H876 C881 0.950 . S
H877 C882 0.949 . S
H878 C884 0.950 . S
H879 C885 0.950 . S
H880 C886 0.949 . S
C881 H876 0.950 . S
C881 C883 1.327 . S
C881 C887 1.429 . S
C882 C874 1.574 . S
C882 H877 0.949 . S
C882 C888 1.368 . S
C883 C867 1.349 . S
C883 H875 0.950 . S
C883 C881 1.327 . S
C884 C872 1.349 . S
C884 H878 0.950 . S
C884 C885 1.327 . S
C885 H879 0.950 . S
C885 C884 1.327 . S
C885 C889 1.429 . S
C886 C869 1.574 . S
C886 H880 0.949 . S
C886 C890 1.368 . S
C887 C868 1.429 . S
C887 C881 1.429 . S
C887 C888 1.523 . S
C888 C869 1.368 . S
C888 C882 1.368 . S
C888 C887 1.523 . S
C889 C873 1.429 . S
C889 C885 1.429 . S
C889 C890 1.523 . S
C890 C874 1.368 . S
C890 C886 1.368 . S
C890 C889 1.523 . S
H891 C866 0.950 . S
H892 C868 0.950 . S
H893 C869 0.949 . S
H894 C871 0.950 . S
H895 C873 0.950 . S
C896 C897 1.349 . S
C896 C898 1.327 . S
C896 H921 0.950 . S
C897 C896 1.349 . S
C897 C913 1.349 . S
C898 C896 1.327 . S
C898 C917 1.429 . S
C898 H922 0.950 . S
C899 C916 1.574 . S
C899 C918 1.368 . S
C899 H923 0.949 . S
H900 C904 0.949 . S
C901 C902 1.349 . S
C901 C903 1.327 . S
C901 H924 0.950 . S
C902 C901 1.349 . S
C902 C914 1.349 . S
C903 C901 1.327 . S
C903 C919 1.429 . S
C903 H925 0.950 . S
C904 H900 0.949 . S
C904 C912 1.574 . S
C904 C920 1.368 . S
H905 C913 0.950 . S
H906 C911 0.950 . S
H907 C912 0.949 . S
H908 C914 0.950 . S
H909 C915 0.950 . S
H910 C916 0.949 . S
C911 H906 0.950 . S
C911 C913 1.327 . S
C911 C917 1.429 . S
C912 C904 1.574 . S
C912 H907 0.949 . S
C912 C918 1.368 . S
C913 C897 1.349 . S
C913 H905 0.950 . S
C913 C911 1.327 . S
C914 C902 1.349 . S
C914 H908 0.950 . S
C914 C915 1.327 . S
C915 H909 0.950 . S
C915 C914 1.327 . S
C915 C919 1.429 . S
C916 C899 1.574 . S
C916 H910 0.949 . S
C916 C920 1.368 . S
C917 C898 1.429 . S
C917 C911 1.429 . S
C917 C918 1.523 . S
C918 C899 1.368 . S
C918 C912 1.368 . S
C918 C917 1.523 . S
C919 C903 1.429 . S
C919 C915 1.429 . S
C919 C920 1.523 . S
C920 C904 1.368 . S
C920 C916 1.368 . S
C920 C919 1.523 . S
H921 C896 0.950 . S
H922 C898 0.950 . S
H923 C899 0.949 . S
H924 C901 0.950 . S
H925 C903 0.950 . S
C926 C927 1.349 . S
C926 C928 1.327 . S
C926 H951 0.950 . S
C927 C926 1.349 . S
C927 C943 1.349 . S
C928 C926 1.327 . S
C928 C947 1.429 . S
C928 H952 0.950 . S
C929 C946 1.574 . S
C929 C948 1.368 . S
C929 H953 0.949 . S
H930 C934 0.949 . S
C931 C932 1.349 . S
C931 C933 1.327 . S
C931 H954 0.950 . S
C932 C931 1.349 . S
C932 C944 1.349 . S
C933 C931 1.327 . S
C933 C949 1.429 . S
C933 H955 0.950 . S
C934 H930 0.949 . S
C934 C942 1.574 . S
C934 C950 1.368 . S
H935 C943 0.950 . S
H936 C941 0.950 . S
H937 C942 0.949 . S
H938 C944 0.950 . S
H939 C945 0.950 . S
H940 C946 0.949 . S
C941 H936 0.950 . S
C941 C943 1.327 . S
C941 C947 1.429 . S
C942 C934 1.574 . S
C942 H937 0.949 . S
C942 C948 1.368 . S
C943 C927 1.349 . S
C943 H935 0.950 . S
C943 C941 1.327 . S
C944 C932 1.349 . S
C944 H938 0.950 . S
C944 C945 1.327 . S
C945 H939 0.950 . S
C945 C944 1.327 . S
C945 C949 1.429 . S
C946 C929 1.574 . S
C946 H940 0.949 . S
C946 C950 1.368 . S
C947 C928 1.429 . S
C947 C941 1.429 . S
C947 C948 1.523 . S
C948 C929 1.368 . S
C948 C942 1.368 . S
C948 C947 1.523 . S
C949 C933 1.429 . S
C949 C945 1.429 . S
C949 C950 1.523 . S
C950 C934 1.368 . S
C950 C946 1.368 . S
C950 C949 1.523 . S
H951 C926 0.950 . S
H952 C928 0.950 . S
H953 C929 0.949 . S
H954 C931 0.950 . S
H955 C933 0.950 . S
C956 C957 1.349 . S
C956 C958 1.327 . S
C956 H981 0.950 . S
C957 C956 1.349 . S
C957 C973 1.349 . S
C958 C956 1.327 . S
C958 C977 1.429 . S
C958 H982 0.950 . S
C959 C976 1.574 . S
C959 C978 1.368 . S
C959 H983 0.949 . S
H960 C964 0.949 . S
C961 C962 1.349 . S
C961 C963 1.327 . S
C961 H984 0.950 . S
C962 C961 1.349 . S
C962 C974 1.349 . S
C963 C961 1.327 . S
C963 C979 1.429 . S
C963 H985 0.950 . S
C964 H960 0.949 . S
C964 C972 1.574 . S
C964 C980 1.368 . S
H965 C973 0.950 . S
H966 C971 0.950 . S
H967 C972 0.949 . S
H968 C974 0.950 . S
H969 C975 0.950 . S
H970 C976 0.949 . S
C971 H966 0.950 . S
C971 C973 1.327 . S
C971 C977 1.429 . S
C972 C964 1.574 . S
C972 H967 0.949 . S
C972 C978 1.368 . S
C973 C957 1.349 . S
C973 H965 0.950 . S
C973 C971 1.327 . S
C974 C962 1.349 . S
C974 H968 0.950 . S
C974 C975 1.327 . S
C975 H969 0.950 . S
C975 C974 1.327 . S
C975 C979 1.429 . S
C976 C959 1.574 . S
C976 H970 0.949 . S
C976 C980 1.368 . S
C977 C958 1.429 . S
C977 C971 1.429 . S
C977 C978 1.523 . S
C978 C959 1.368 . S
C978 C972 1.368 . S
C978 C977 1.523 . S
C979 C963 1.429 . S
C979 C975 1.429 . S
C979 C980 1.523 . S
C980 C964 1.368 . S
C980 C976 1.368 . S
C980 C979 1.523 . S
H981 C956 0.950 . S
H982 C958 0.950 . S
H983 C959 0.949 . S
H984 C961 0.950 . S
H985 C963 0.950 . S
C986 C987 1.349 . S
C986 C988 1.327 . S
C986 H1011 0.950 . S
C987 C986 1.349 . S
C987 C1003 1.349 . S
C988 C986 1.327 . S
C988 C1007 1.429 . S
C988 H1012 0.950 . S
C989 C1006 1.574 . S
C989 C1008 1.368 . S
C989 H1013 0.949 . S
H990 C994 0.949 . S
C991 C992 1.349 . S
C991 C993 1.327 . S
C991 H1014 0.950 . S
C992 C991 1.349 . S
C992 C1004 1.349 . S
C993 C991 1.327 . S
C993 C1009 1.429 . S
C993 H1015 0.950 . S
C994 H990 0.949 . S
C994 C1002 1.574 . S
C994 C1010 1.368 . S
H995 C1003 0.950 . S
H996 C1001 0.950 . S
H997 C1002 0.949 . S
H998 C1004 0.950 . S
H999 C1005 0.950 . S
H1000 C1006 0.949 . S
C1001 H996 0.950 . S
C1001 C1003 1.327 . S
C1001 C1007 1.429 . S
C1002 C994 1.574 . S
C1002 H997 0.949 . S
C1002 C1008 1.368 . S
C1003 C987 1.349 . S
C1003 H995 0.950 . S
C1003 C1001 1.327 . S
C1004 C992 1.349 . S
C1004 H998 0.950 . S
C1004 C1005 1.327 . S
C1005 H999 0.950 . S
C1005 C1004 1.327 . S
C1005 C1009 1.429 . S
C1006 C989 1.574 . S
C1006 H1000 0.949 . S
C1006 C1010 1.368 . S
C1007 C988 1.429 . S
C1007 C1001 1.429 . S
C1007 C1008 1.523 . S
C1008 C989 1.368 . S
C1008 C1002 1.368 . S
C1008 C1007 1.523 . S
C1009 C993 1.429 . S
C1009 C1005 1.429 . S
C1009 C1010 1.523 . S
C1010 C994 1.368 . S
C1010 C1006 1.368 . S
C1010 C1009 1.523 . S
H1011 C986 0.950 . S
H1012 C988 0.950 . S
H1013 C989 0.949 . S
H1014 C991 0.950 . S
H1015 C993 0.950 . S
C1016 C1017 1.349 1_655 S
C1016 C1018 1.327 . S
C1016 H1041 0.950 . S
C1017 C1016 1.349 1_455 S
C1017 C1033 1.349 . S
C1018 C1016 1.327 . S
C1018 C1037 1.429 1_655 S
C1018 H1042 0.950 . S
C1019 C1036 1.574 . S
C1019 C1038 1.368 . S
C1019 H1043 0.949 . S
H1020 C1024 0.949 . S
C1021 C1022 1.349 1_455 S
C1021 C1023 1.327 . S
C1021 H1044 0.950 . S
C1022 C1021 1.349 1_655 S
C1022 C1034 1.349 . S
C1023 C1021 1.327 . S
C1023 C1039 1.429 1_455 S
C1023 H1045 0.950 . S
C1024 H1020 0.949 . S
C1024 C1032 1.574 . S
C1024 C1040 1.368 . S
H1025 C1033 0.950 . S
H1026 C1031 0.950 . S
H1027 C1032 0.949 . S
H1028 C1034 0.950 . S
H1029 C1035 0.950 . S
H1030 C1036 0.949 . S
C1031 H1026 0.950 . S
C1031 C1033 1.327 . S
C1031 C1037 1.429 . S
C1032 C1024 1.574 . S
C1032 H1027 0.949 . S
C1032 C1038 1.368 1_655 S
C1033 C1017 1.349 . S
C1033 H1025 0.950 . S
C1033 C1031 1.327 . S
C1034 C1022 1.349 . S
C1034 H1028 0.950 . S
C1034 C1035 1.327 . S
C1035 H1029 0.950 . S
C1035 C1034 1.327 . S
C1035 C1039 1.429 . S
C1036 C1019 1.574 . S
C1036 H1030 0.949 . S
C1036 C1040 1.368 1_455 S
C1037 C1018 1.429 1_455 S
C1037 C1031 1.429 . S
C1037 C1038 1.523 . S
C1038 C1019 1.368 . S
C1038 C1032 1.368 1_455 S
C1038 C1037 1.523 . S
C1039 C1023 1.429 1_655 S
C1039 C1035 1.429 . S
C1039 C1040 1.523 . S
C1040 C1024 1.368 . S
C1040 C1036 1.368 1_655 S
C1040 C1039 1.523 . S
H1041 C1016 0.950 . S
H1042 C1018 0.950 . S
H1043 C1019 0.949 . S
H1044 C1021 0.950 . S
H1045 C1023 0.950 . S
C1046 C1047 1.349 . S
C1046 C1048 1.327 . S
C1046 H1071 0.950 . S
C1047 C1046 1.349 . S
C1047 C1063 1.349 . S
C1048 C1046 1.327 . S
C1048 C1067 1.429 . S
C1048 H1072 0.950 . S
C1049 C1066 1.574 . S
C1049 C1068 1.368 . S
C1049 H1073 0.949 . S
H1050 C1054 0.949 . S
C1051 C1052 1.349 . S
C1051 C1053 1.327 . S
C1051 H1074 0.950 . S
C1052 C1051 1.349 . S
C1052 C1064 1.349 . S
C1053 C1051 1.327 . S
C1053 C1069 1.429 . S
C1053 H1075 0.950 . S
C1054 H1050 0.949 . S
C1054 C1062 1.574 . S
C1054 C1070 1.368 . S
H1055 C1063 0.950 . S
H1056 C1061 0.950 . S
H1057 C1062 0.949 . S
H1058 C1064 0.950 . S
H1059 C1065 0.950 . S
H1060 C1066 0.949 . S
C1061 H1056 0.950 . S
C1061 C1063 1.327 . S
C1061 C1067 1.429 . S
C1062 C1054 1.574 . S
C1062 H1057 0.949 . S
C1062 C1068 1.368 . S
C1063 C1047 1.349 . S
C1063 H1055 0.950 . S
C1063 C1061 1.327 . S
C1064 C1052 1.349 . S
C1064 H1058 0.950 . S
C1064 C1065 1.327 . S
C1065 H1059 0.950 . S
C1065 C1064 1.327 . S
C1065 C1069 1.429 . S
C1066 C1049 1.574 . S
C1066 H1060 0.949 . S
C1066 C1070 1.368 . S
C1067 C1048 1.429 . S
C1067 C1061 1.429 . S
C1067 C1068 1.523 . S
C1068 C1049 1.368 . S
C1068 C1062 1.368 . S
C1068 C1067 1.523 . S
C1069 C1053 1.429 . S
C1069 C1065 1.429 . S
C1069 C1070 1.523 . S
C1070 C1054 1.368 . S
C1070 C1066 1.368 . S
C1070 C1069 1.523 . S
H1071 C1046 0.950 . S
H1072 C1048 0.950 . S
H1073 C1049 0.949 . S
H1074 C1051 0.950 . S
H1075 C1053 0.950 . S
C1076 C1077 1.349 . S
C1076 C1078 1.327 . S
C1076 H1101 0.950 . S
C1077 C1076 1.349 . S
C1077 C1093 1.349 . S
C1078 C1076 1.327 . S
C1078 C1097 1.429 . S
C1078 H1102 0.950 . S
C1079 C1096 1.574 . S
C1079 C1098 1.368 . S
C1079 H1103 0.949 . S
H1080 C1084 0.949 . S
C1081 C1082 1.349 . S
C1081 C1083 1.327 . S
C1081 H1104 0.950 . S
C1082 C1081 1.349 . S
C1082 C1094 1.349 . S
C1083 C1081 1.327 . S
C1083 C1099 1.429 . S
C1083 H1105 0.950 . S
C1084 H1080 0.949 . S
C1084 C1092 1.574 . S
C1084 C1100 1.368 . S
H1085 C1093 0.950 . S
H1086 C1091 0.950 . S
H1087 C1092 0.949 . S
H1088 C1094 0.950 . S
H1089 C1095 0.950 . S
H1090 C1096 0.949 . S
C1091 H1086 0.950 . S
C1091 C1093 1.327 . S
C1091 C1097 1.429 . S
C1092 C1084 1.574 . S
C1092 H1087 0.949 . S
C1092 C1098 1.368 . S
C1093 C1077 1.349 . S
C1093 H1085 0.950 . S
C1093 C1091 1.327 . S
C1094 C1082 1.349 . S
C1094 H1088 0.950 . S
C1094 C1095 1.327 . S
C1095 H1089 0.950 . S
C1095 C1094 1.327 . S
C1095 C1099 1.429 . S
C1096 C1079 1.574 . S
C1096 H1090 0.949 . S
C1096 C1100 1.368 . S
C1097 C1078 1.429 . S
C1097 C1091 1.429 . S
C1097 C1098 1.523 . S
C1098 C1079 1.368 . S
C1098 C1092 1.368 . S
C1098 C1097 1.523 . S
C1099 C1083 1.429 . S
C1099 C1095 1.429 . S
C1099 C1100 1.523 . S
C1100 C1084 1.368 . S
C1100 C1096 1.368 . S
C1100 C1099 1.523 . S
H1101 C1076 0.950 . S
H1102 C1078 0.950 . S
H1103 C1079 0.949 . S
H1104 C1081 0.950 . S
H1105 C1083 0.950 . S
C1106 C1107 1.349 1_455 S
C1106 C1108 1.327 . S
C1106 H1131 0.950 . S
C1107 C1106 1.349 1_655 S
C1107 C1123 1.349 . S
C1108 C1106 1.327 . S
C1108 C1127 1.429 1_455 S
C1108 H1132 0.950 . S
C1109 C1126 1.574 1_565 S
C1109 C1128 1.368 . S
C1109 H1133 0.949 . S
H1110 C1114 0.949 . S
C1111 C1112 1.349 1_655 S
C1111 C1113 1.327 . S
C1111 H1134 0.950 . S
C1112 C1111 1.349 1_455 S
C1112 C1124 1.349 . S
C1113 C1111 1.327 . S
C1113 C1129 1.429 1_655 S
C1113 H1135 0.950 . S
C1114 H1110 0.949 . S
C1114 C1122 1.574 1_545 S
C1114 C1130 1.368 . S
H1115 C1123 0.950 . S
H1116 C1121 0.950 . S
H1117 C1122 0.949 . S
H1118 C1124 0.950 . S
H1119 C1125 0.950 . S
H1120 C1126 0.949 . S
C1121 H1116 0.950 . S
C1121 C1123 1.327 . S
C1121 C1127 1.429 . S
C1122 C1114 1.574 1_565 S
C1122 H1117 0.949 . S
C1122 C1128 1.368 1_455 S
C1123 C1107 1.349 . S
C1123 H1115 0.950 . S
C1123 C1121 1.327 . S
C1124 C1112 1.349 . S
C1124 H1118 0.950 . S
C1124 C1125 1.327 . S
C1125 H1119 0.950 . S
C1125 C1124 1.327 . S
C1125 C1129 1.429 . S
C1126 C1109 1.574 1_545 S
C1126 H1120 0.949 . S
C1126 C1130 1.368 1_655 S
C1127 C1108 1.429 1_655 S
C1127 C1121 1.429 . S
C1127 C1128 1.523 . S
C1128 C1109 1.368 . S
C1128 C1122 1.368 1_655 S
C1128 C1127 1.523 . S
C1129 C1113 1.429 1_455 S
C1129 C1125 1.429 . S
C1129 C1130 1.523 . S
C1130 C1114 1.368 . S
C1130 C1126 1.368 1_455 S
C1130 C1129 1.523 . S
H1131 C1106 0.950 . S
H1132 C1108 0.950 . S
H1133 C1109 0.949 . S
H1134 C1111 0.950 . S
H1135 C1113 0.950 . S
C1136 C1137 1.349 . S
C1136 C1138 1.327 . S
C1136 H1161 0.950 . S
C1137 C1136 1.349 . S
C1137 C1153 1.349 . S
C1138 C1136 1.327 . S
C1138 C1157 1.429 . S
C1138 H1162 0.950 . S
C1139 C1156 1.574 . S
C1139 C1158 1.368 . S
C1139 H1163 0.949 . S
H1140 C1144 0.949 . S
C1141 C1142 1.349 . S
C1141 C1143 1.327 . S
C1141 H1164 0.950 . S
C1142 C1141 1.349 . S
C1142 C1154 1.349 . S
C1143 C1141 1.327 . S
C1143 C1159 1.429 . S
C1143 H1165 0.950 . S
C1144 H1140 0.949 . S
C1144 C1152 1.574 . S
C1144 C1160 1.368 . S
H1145 C1153 0.950 . S
H1146 C1151 0.950 . S
H1147 C1152 0.949 . S
H1148 C1154 0.950 . S
H1149 C1155 0.950 . S
H1150 C1156 0.949 . S
C1151 H1146 0.950 . S
C1151 C1153 1.327 . S
C1151 C1157 1.429 . S
C1152 C1144 1.574 . S
C1152 H1147 0.949 . S
C1152 C1158 1.368 . S
C1153 C1137 1.349 . S
C1153 H1145 0.950 . S
C1153 C1151 1.327 . S
C1154 C1142 1.349 . S
C1154 H1148 0.950 . S
C1154 C1155 1.327 . S
C1155 H1149 0.950 . S
C1155 C1154 1.327 . S
C1155 C1159 1.429 . S
C1156 C1139 1.574 . S
C1156 H1150 0.949 . S
C1156 C1160 1.368 . S
C1157 C1138 1.429 . S
C1157 C1151 1.429 . S
C1157 C1158 1.523 . S
C1158 C1139 1.368 . S
C1158 C1152 1.368 . S
C1158 C1157 1.523 . S
C1159 C1143 1.429 . S
C1159 C1155 1.429 . S
C1159 C1160 1.523 . S
C1160 C1144 1.368 . S
C1160 C1156 1.368 . S
C1160 C1159 1.523 . S
H1161 C1136 0.950 . S
H1162 C1138 0.950 . S
H1163 C1139 0.949 . S
H1164 C1141 0.950 . S
H1165 C1143 0.950 . S
C1166 C1167 1.349 . S
C1166 C1168 1.327 . S
C1166 H1191 0.950 . S
C1167 C1166 1.349 . S
C1167 C1183 1.349 . S
C1168 C1166 1.327 . S
C1168 C1187 1.429 . S
C1168 H1192 0.950 . S
C1169 C1186 1.574 . S
C1169 C1188 1.368 . S
C1169 H1193 0.949 . S
H1170 C1174 0.949 . S
C1171 C1172 1.349 . S
C1171 C1173 1.327 . S
C1171 H1194 0.950 . S
C1172 C1171 1.349 . S
C1172 C1184 1.349 . S
C1173 C1171 1.327 . S
C1173 C1189 1.429 . S
C1173 H1195 0.950 . S
C1174 H1170 0.949 . S
C1174 C1182 1.574 . S
C1174 C1190 1.368 . S
H1175 C1183 0.950 . S
H1176 C1181 0.950 . S
H1177 C1182 0.949 . S
H1178 C1184 0.950 . S
H1179 C1185 0.950 . S
H1180 C1186 0.949 . S
C1181 H1176 0.950 . S
C1181 C1183 1.327 . S
C1181 C1187 1.429 . S
C1182 C1174 1.574 . S
C1182 H1177 0.949 . S
C1182 C1188 1.368 . S
C1183 C1167 1.349 . S
C1183 H1175 0.950 . S
C1183 C1181 1.327 . S
C1184 C1172 1.349 . S
C1184 H1178 0.950 . S
C1184 C1185 1.327 . S
C1185 H1179 0.950 . S
C1185 C1184 1.327 . S
C1185 C1189 1.429 . S
C1186 C1169 1.574 . S
C1186 H1180 0.949 . S
C1186 C1190 1.368 . S
C1187 C1168 1.429 . S
C1187 C1181 1.429 . S
C1187 C1188 1.523 . S
C1188 C1169 1.368 . S
C1188 C1182 1.368 . S
C1188 C1187 1.523 . S
C1189 C1173 1.429 . S
C1189 C1185 1.429 . S
C1189 C1190 1.523 . S
C1190 C1174 1.368 . S
C1190 C1186 1.368 . S
C1190 C1189 1.523 . S
H1191 C1166 0.950 . S
H1192 C1168 0.950 . S
H1193 C1169 0.949 . S
H1194 C1171 0.950 . S
H1195 C1173 0.950 . S
C1196 C1197 1.349 . S
C1196 C1198 1.327 . S
C1196 H1221 0.950 . S
C1197 C1196 1.349 . S
C1197 C1213 1.349 . S
C1198 C1196 1.327 . S
C1198 C1217 1.429 . S
C1198 H1222 0.950 . S
C1199 C1216 1.574 . S
C1199 C1218 1.368 . S
C1199 H1223 0.949 . S
H1200 C1204 0.949 . S
C1201 C1202 1.349 . S
C1201 C1203 1.327 . S
C1201 H1224 0.950 . S
C1202 C1201 1.349 . S
C1202 C1214 1.349 . S
C1203 C1201 1.327 . S
C1203 C1219 1.429 . S
C1203 H1225 0.950 . S
C1204 H1200 0.949 . S
C1204 C1212 1.574 . S
C1204 C1220 1.368 . S
H1205 C1213 0.950 . S
H1206 C1211 0.950 . S
H1207 C1212 0.949 . S
H1208 C1214 0.950 . S
H1209 C1215 0.950 . S
H1210 C1216 0.949 . S
C1211 H1206 0.950 . S
C1211 C1213 1.327 . S
C1211 C1217 1.429 . S
C1212 C1204 1.574 . S
C1212 H1207 0.949 . S
C1212 C1218 1.368 . S
C1213 C1197 1.349 . S
C1213 H1205 0.950 . S
C1213 C1211 1.327 . S
C1214 C1202 1.349 . S
C1214 H1208 0.950 . S
C1214 C1215 1.327 . S
C1215 H1209 0.950 . S
C1215 C1214 1.327 . S
C1215 C1219 1.429 . S
C1216 C1199 1.574 . S
C1216 H1210 0.949 . S
C1216 C1220 1.368 . S
C1217 C1198 1.429 . S
C1217 C1211 1.429 . S
C1217 C1218 1.523 . S
C1218 C1199 1.368 . S
C1218 C1212 1.368 . S
C1218 C1217 1.523 . S
C1219 C1203 1.429 . S
C1219 C1215 1.429 . S
C1219 C1220 1.523 . S
C1220 C1204 1.368 . S
C1220 C1216 1.368 . S
C1220 C1219 1.523 . S
H1221 C1196 0.950 . S
H1222 C1198 0.950 . S
H1223 C1199 0.949 . S
H1224 C1201 0.950 . S
H1225 C1203 0.950 . S
C1226 C1227 1.349 . S
C1226 C1228 1.327 . S
C1226 H1251 0.950 . S
C1227 C1226 1.349 . S
C1227 C1243 1.349 . S
C1228 C1226 1.327 . S
C1228 C1247 1.429 . S
C1228 H1252 0.950 . S
C1229 C1246 1.574 1_565 S
C1229 C1248 1.368 . S
C1229 H1253 0.949 . S
H1230 C1234 0.949 . S
C1231 C1232 1.349 . S
C1231 C1233 1.327 . S
C1231 H1254 0.950 . S
C1232 C1231 1.349 . S
C1232 C1244 1.349 . S
C1233 C1231 1.327 . S
C1233 C1249 1.429 . S
C1233 H1255 0.950 . S
C1234 H1230 0.949 . S
C1234 C1242 1.574 1_545 S
C1234 C1250 1.368 . S
H1235 C1243 0.950 . S
H1236 C1241 0.950 . S
H1237 C1242 0.949 . S
H1238 C1244 0.950 . S
H1239 C1245 0.950 . S
H1240 C1246 0.949 . S
C1241 H1236 0.950 . S
C1241 C1243 1.327 . S
C1241 C1247 1.429 . S
C1242 C1234 1.574 1_565 S
C1242 H1237 0.949 . S
C1242 C1248 1.368 . S
C1243 C1227 1.349 . S
C1243 H1235 0.950 . S
C1243 C1241 1.327 . S
C1244 C1232 1.349 . S
C1244 H1238 0.950 . S
C1244 C1245 1.327 . S
C1245 H1239 0.950 . S
C1245 C1244 1.327 . S
C1245 C1249 1.429 . S
C1246 C1229 1.574 1_545 S
C1246 H1240 0.949 . S
C1246 C1250 1.368 . S
C1247 C1228 1.429 . S
C1247 C1241 1.429 . S
C1247 C1248 1.523 . S
C1248 C1229 1.368 . S
C1248 C1242 1.368 . S
C1248 C1247 1.523 . S
C1249 C1233 1.429 . S
C1249 C1245 1.429 . S
C1249 C1250 1.523 . S
C1250 C1234 1.368 . S
C1250 C1246 1.368 . S
C1250 C1249 1.523 . S
H1251 C1226 0.950 . S
H1252 C1228 0.950 . S
H1253 C1229 0.949 . S
H1254 C1231 0.950 . S
H1255 C1233 0.950 . S
C1256 C1257 1.349 . S
C1256 C1258 1.327 . S
C1256 H1281 0.950 . S
C1257 C1256 1.349 . S
C1257 C1273 1.349 . S
C1258 C1256 1.327 . S
C1258 C1277 1.429 . S
C1258 H1282 0.950 . S
C1259 C1276 1.574 . S
C1259 C1278 1.368 . S
C1259 H1283 0.950 . S
H1260 C1264 0.949 . S
C1261 C1262 1.349 . S
C1261 C1263 1.327 . S
C1261 H1284 0.990 . S
C1262 C1261 1.349 . S
C1262 C1274 1.349 . S
C1263 C1261 1.327 . S
C1263 C1279 1.429 . S
C1263 H1285 0.959 . S
C1264 H1260 0.949 . S
C1264 C1272 1.574 . S
C1264 C1280 1.368 . S
H1265 C1273 0.990 . S
H1266 C1271 0.959 . S
H1267 C1272 0.949 . S
H1268 C1274 0.950 . S
H1269 C1275 0.950 . S
H1270 C1276 0.950 . S
C1271 H1266 0.959 . S
C1271 C1273 1.327 . S
C1271 C1277 1.429 . S
C1272 C1264 1.574 . S
C1272 H1267 0.949 . S
C1272 C1278 1.368 . S
C1273 C1257 1.349 . S
C1273 H1265 0.990 . S
C1273 C1271 1.327 . S
C1274 C1262 1.349 . S
C1274 H1268 0.950 . S
C1274 C1275 1.327 . S
C1275 H1269 0.950 . S
C1275 C1274 1.327 . S
C1275 C1279 1.429 . S
C1276 C1259 1.574 . S
C1276 H1270 0.950 . S
C1276 C1280 1.368 . S
C1277 C1258 1.429 . S
C1277 C1271 1.429 . S
C1277 C1278 1.523 . S
C1278 C1259 1.368 . S
C1278 C1272 1.368 . S
C1278 C1277 1.523 . S
C1279 C1263 1.429 . S
C1279 C1275 1.429 . S
C1279 C1280 1.523 . S
C1280 C1264 1.368 . S
C1280 C1276 1.368 . S
C1280 C1279 1.523 . S
H1281 C1256 0.950 . S
H1282 C1258 0.950 . S
H1283 C1259 0.950 . S
H1284 C1261 0.990 . S
H1285 C1263 0.959 . S
C1286 C1287 1.349 . S
C1286 C1288 1.327 . S
C1286 H1311 0.950 . S
C1287 C1286 1.349 . S
C1287 C1303 1.349 . S
C1288 C1286 1.327 . S
C1288 C1307 1.429 . S
C1288 H1312 0.950 . S
C1289 C1306 1.574 . S
C1289 C1308 1.368 . S
C1289 H1313 0.950 . S
H1290 C1294 0.949 . S
C1291 C1292 1.349 . S
C1291 C1293 1.327 . S
C1291 H1314 0.990 . S
C1292 C1291 1.349 . S
C1292 C1304 1.349 . S
C1293 C1291 1.327 . S
C1293 C1309 1.429 . S
C1293 H1315 0.959 . S
C1294 H1290 0.949 . S
C1294 C1302 1.574 . S
C1294 C1310 1.368 . S
H1295 C1303 0.990 . S
H1296 C1301 0.959 . S
H1297 C1302 0.949 . S
H1298 C1304 0.950 . S
H1299 C1305 0.950 . S
H1300 C1306 0.950 . S
C1301 H1296 0.959 . S
C1301 C1303 1.327 . S
C1301 C1307 1.429 . S
C1302 C1294 1.574 . S
C1302 H1297 0.949 . S
C1302 C1308 1.368 . S
C1303 C1287 1.349 . S
C1303 H1295 0.990 . S
C1303 C1301 1.327 . S
C1304 C1292 1.349 . S
C1304 H1298 0.950 . S
C1304 C1305 1.327 . S
C1305 H1299 0.950 . S
C1305 C1304 1.327 . S
C1305 C1309 1.429 . S
C1306 C1289 1.574 . S
C1306 H1300 0.950 . S
C1306 C1310 1.368 . S
C1307 C1288 1.429 . S
C1307 C1301 1.429 . S
C1307 C1308 1.523 . S
C1308 C1289 1.368 . S
C1308 C1302 1.368 . S
C1308 C1307 1.523 . S
C1309 C1293 1.429 . S
C1309 C1305 1.429 . S
C1309 C1310 1.523 . S
C1310 C1294 1.368 . S
C1310 C1306 1.368 . S
C1310 C1309 1.523 . S
H1311 C1286 0.950 . S
H1312 C1288 0.950 . S
H1313 C1289 0.950 . S
H1314 C1291 0.990 . S
H1315 C1293 0.959 . S
C1316 C1317 1.349 . S
C1316 C1318 1.327 . S
C1316 H1341 0.950 . S
C1317 C1316 1.349 . S
C1317 C1333 1.349 . S
C1318 C1316 1.327 . S
C1318 C1337 1.429 . S
C1318 H1342 0.950 . S
C1319 C1336 1.574 1_455 S
C1319 C1338 1.368 . S
C1319 H1343 0.949 . S
H1320 C1324 0.949 . S
C1321 C1322 1.349 . S
C1321 C1323 1.327 . S
C1321 H1344 0.950 . S
C1322 C1321 1.349 . S
C1322 C1334 1.349 . S
C1323 C1321 1.327 . S
C1323 C1339 1.429 . S
C1323 H1345 0.950 . S
C1324 H1320 0.949 . S
C1324 C1332 1.574 1_655 S
C1324 C1340 1.368 . S
H1325 C1333 0.950 . S
H1326 C1331 0.950 . S
H1327 C1332 0.949 . S
H1328 C1334 0.950 . S
H1329 C1335 0.950 . S
H1330 C1336 0.949 . S
C1331 H1326 0.950 . S
C1331 C1333 1.327 . S
C1331 C1337 1.429 . S
C1332 C1324 1.574 1_455 S
C1332 H1327 0.949 . S
C1332 C1338 1.368 . S
C1333 C1317 1.349 . S
C1333 H1325 0.950 . S
C1333 C1331 1.327 . S
C1334 C1322 1.349 . S
C1334 H1328 0.950 . S
C1334 C1335 1.327 . S
C1335 H1329 0.950 . S
C1335 C1334 1.327 . S
C1335 C1339 1.429 . S
C1336 C1319 1.574 1_655 S
C1336 H1330 0.949 . S
C1336 C1340 1.368 . S
C1337 C1318 1.429 . S
C1337 C1331 1.429 . S
C1337 C1338 1.523 . S
C1338 C1319 1.368 . S
C1338 C1332 1.368 . S
C1338 C1337 1.523 . S
C1339 C1323 1.429 . S
C1339 C1335 1.429 . S
C1339 C1340 1.523 . S
C1340 C1324 1.368 . S
C1340 C1336 1.368 . S
C1340 C1339 1.523 . S
H1341 C1316 0.950 . S
H1342 C1318 0.950 . S
H1343 C1319 0.949 . S
H1344 C1321 0.950 . S
H1345 C1323 0.950 . S
C1346 C1347 1.349 . S
C1346 C1348 1.327 . S
C1346 H1371 0.950 . S
C1347 C1346 1.349 . S
C1347 C1363 1.349 . S
C1348 C1346 1.327 . S
C1348 C1367 1.429 . S
C1348 H1372 0.950 . S
C1349 C1366 1.574 . S
C1349 C1368 1.368 . S
C1349 H1373 0.949 . S
H1350 C1354 0.949 . S
C1351 C1352 1.349 . S
C1351 C1353 1.327 . S
C1351 H1374 0.950 . S
C1352 C1351 1.349 . S
C1352 C1364 1.349 . S
C1353 C1351 1.327 . S
C1353 C1369 1.429 . S
C1353 H1375 0.950 . S
C1354 H1350 0.949 . S
C1354 C1362 1.574 . S
C1354 C1370 1.368 . S
H1355 C1363 0.950 . S
H1356 C1361 0.950 . S
H1357 C1362 0.949 . S
H1358 C1364 0.950 . S
H1359 C1365 0.950 . S
H1360 C1366 0.949 . S
C1361 H1356 0.950 . S
C1361 C1363 1.327 . S
C1361 C1367 1.429 . S
C1362 C1354 1.574 . S
C1362 H1357 0.949 . S
C1362 C1368 1.368 . S
C1363 C1347 1.349 . S
C1363 H1355 0.950 . S
C1363 C1361 1.327 . S
C1364 C1352 1.349 . S
C1364 H1358 0.950 . S
C1364 C1365 1.327 . S
C1365 H1359 0.950 . S
C1365 C1364 1.327 . S
C1365 C1369 1.429 . S
C1366 C1349 1.574 . S
C1366 H1360 0.949 . S
C1366 C1370 1.368 . S
C1367 C1348 1.429 . S
C1367 C1361 1.429 . S
C1367 C1368 1.523 . S
C1368 C1349 1.368 . S
C1368 C1362 1.368 . S
C1368 C1367 1.523 . S
C1369 C1353 1.429 . S
C1369 C1365 1.429 . S
C1369 C1370 1.523 . S
C1370 C1354 1.368 . S
C1370 C1366 1.368 . S
C1370 C1369 1.523 . S
H1371 C1346 0.950 . S
H1372 C1348 0.950 . S
H1373 C1349 0.949 . S
H1374 C1351 0.950 . S
H1375 C1353 0.950 . S
C1376 C1377 1.349 . S
C1376 C1378 1.327 . S
C1376 H1401 0.950 . S
C1377 C1376 1.349 . S
C1377 C1393 1.349 . S
C1378 C1376 1.327 . S
C1378 C1397 1.429 . S
C1378 H1402 0.950 . S
C1379 C1396 1.574 . S
C1379 C1398 1.368 . S
C1379 H1403 0.949 . S
H1380 C1384 0.949 . S
C1381 C1382 1.349 . S
C1381 C1383 1.327 . S
C1381 H1404 0.950 . S
C1382 C1381 1.349 . S
C1382 C1394 1.349 . S
C1383 C1381 1.327 . S
C1383 C1399 1.429 . S
C1383 H1405 0.950 . S
C1384 H1380 0.949 . S
C1384 C1392 1.574 . S
C1384 C1400 1.368 . S
H1385 C1393 0.950 . S
H1386 C1391 0.950 . S
H1387 C1392 0.949 . S
H1388 C1394 0.950 . S
H1389 C1395 0.950 . S
H1390 C1396 0.949 . S
C1391 H1386 0.950 . S
C1391 C1393 1.327 . S
C1391 C1397 1.429 . S
C1392 C1384 1.574 . S
C1392 H1387 0.949 . S
C1392 C1398 1.368 . S
C1393 C1377 1.349 . S
C1393 H1385 0.950 . S
C1393 C1391 1.327 . S
C1394 C1382 1.349 . S
C1394 H1388 0.950 . S
C1394 C1395 1.327 . S
C1395 H1389 0.950 . S
C1395 C1394 1.327 . S
C1395 C1399 1.429 . S
C1396 C1379 1.574 . S
C1396 H1390 0.949 . S
C1396 C1400 1.368 . S
C1397 C1378 1.429 . S
C1397 C1391 1.429 . S
C1397 C1398 1.523 . S
C1398 C1379 1.368 . S
C1398 C1392 1.368 . S
C1398 C1397 1.523 . S
C1399 C1383 1.429 . S
C1399 C1395 1.429 . S
C1399 C1400 1.523 . S
C1400 C1384 1.368 . S
C1400 C1396 1.368 . S
C1400 C1399 1.523 . S
H1401 C1376 0.950 . S
H1402 C1378 0.950 . S
H1403 C1379 0.949 . S
H1404 C1381 0.950 . S
H1405 C1383 0.950 . S
C1406 C1407 1.349 . S
C1406 C1408 1.327 . S
C1406 H1431 0.950 . S
C1407 C1406 1.349 . S
C1407 C1423 1.349 . S
C1408 C1406 1.327 . S
C1408 C1427 1.429 . S
C1408 H1432 0.950 . S
C1409 C1426 1.574 1_655 S
C1409 C1428 1.368 1_565 S
C1409 H1433 0.949 . S
H1410 C1414 0.949 . S
C1411 C1412 1.349 . S
C1411 C1413 1.327 . S
C1411 H1434 0.950 . S
C1412 C1411 1.349 . S
C1412 C1424 1.349 . S
C1413 C1411 1.327 . S
C1413 C1429 1.429 . S
C1413 H1435 0.950 . S
C1414 H1410 0.949 . S
C1414 C1422 1.574 1_455 S
C1414 C1430 1.368 1_545 S
H1415 C1423 0.950 . S
H1416 C1421 0.950 . S
H1417 C1422 0.949 . S
H1418 C1424 0.950 . S
H1419 C1425 0.950 . S
H1420 C1426 0.949 . S
C1421 H1416 0.950 . S
C1421 C1423 1.327 . S
C1421 C1427 1.429 . S
C1422 C1414 1.574 1_655 S
C1422 H1417 0.949 . S
C1422 C1428 1.368 . S
C1423 C1407 1.349 . S
C1423 H1415 0.950 . S
C1423 C1421 1.327 . S
C1424 C1412 1.349 . S
C1424 H1418 0.950 . S
C1424 C1425 1.327 . S
C1425 H1419 0.950 . S
C1425 C1424 1.327 . S
C1425 C1429 1.429 . S
C1426 C1409 1.574 1_455 S
C1426 H1420 0.949 . S
C1426 C1430 1.368 . S
C1427 C1408 1.429 . S
C1427 C1421 1.429 . S
C1427 C1428 1.523 . S
C1428 C1409 1.368 1_545 S
C1428 C1422 1.368 . S
C1428 C1427 1.523 . S
C1429 C1413 1.429 . S
C1429 C1425 1.429 . S
C1429 C1430 1.523 . S
C1430 C1414 1.368 1_565 S
C1430 C1426 1.368 . S
C1430 C1429 1.523 . S
H1431 C1406 0.950 . S
H1432 C1408 0.950 . S
H1433 C1409 0.949 . S
H1434 C1411 0.950 . S
H1435 C1413 0.950 . S
C1436 C1437 1.349 . S
C1436 C1438 1.327 . S
C1436 H1461 0.950 . S
C1437 C1436 1.349 . S
C1437 C1453 1.349 . S
C1438 C1436 1.327 . S
C1438 C1457 1.429 . S
C1438 H1462 0.950 . S
C1439 C1456 1.574 . S
C1439 C1458 1.368 . S
C1439 H1463 0.949 . S
H1440 C1444 0.949 . S
C1441 C1442 1.349 . S
C1441 C1443 1.327 . S
C1441 H1464 0.950 . S
C1442 C1441 1.349 . S
C1442 C1454 1.349 . S
C1443 C1441 1.327 . S
C1443 C1459 1.429 . S
C1443 H1465 0.950 . S
C1444 H1440 0.949 . S
C1444 C1452 1.574 . S
C1444 C1460 1.368 . S
H1445 C1453 0.950 . S
H1446 C1451 0.950 . S
H1447 C1452 0.949 . S
H1448 C1454 0.950 . S
H1449 C1455 0.950 . S
H1450 C1456 0.949 . S
C1451 H1446 0.950 . S
C1451 C1453 1.327 . S
C1451 C1457 1.429 . S
C1452 C1444 1.574 . S
C1452 H1447 0.949 . S
C1452 C1458 1.368 . S
C1453 C1437 1.349 . S
C1453 H1445 0.950 . S
C1453 C1451 1.327 . S
C1454 C1442 1.349 . S
C1454 H1448 0.950 . S
C1454 C1455 1.327 . S
C1455 H1449 0.950 . S
C1455 C1454 1.327 . S
C1455 C1459 1.429 . S
C1456 C1439 1.574 . S
C1456 H1450 0.949 . S
C1456 C1460 1.368 . S
C1457 C1438 1.429 . S
C1457 C1451 1.429 . S
C1457 C1458 1.523 . S
C1458 C1439 1.368 . S
C1458 C1452 1.368 . S
C1458 C1457 1.523 . S
C1459 C1443 1.429 . S
C1459 C1455 1.429 . S
C1459 C1460 1.523 . S
C1460 C1444 1.368 . S
C1460 C1456 1.368 . S
C1460 C1459 1.523 . S
H1461 C1436 0.950 . S
H1462 C1438 0.950 . S
H1463 C1439 0.949 . S
H1464 C1441 0.950 . S
H1465 C1443 0.950 . S
C1466 C1467 1.349 . S
C1466 C1468 1.327 . S
C1466 H1491 0.950 . S
C1467 C1466 1.349 . S
C1467 C1483 1.349 . S
C1468 C1466 1.327 . S
C1468 C1487 1.429 . S
C1468 H1492 0.950 . S
C1469 C1486 1.574 . S
C1469 C1488 1.368 1_545 S
C1469 H1493 0.949 . S
H1470 C1474 0.949 . S
C1471 C1472 1.349 . S
C1471 C1473 1.327 . S
C1471 H1494 0.950 . S
C1472 C1471 1.349 . S
C1472 C1484 1.349 . S
C1473 C1471 1.327 . S
C1473 C1489 1.429 . S
C1473 H1495 0.950 . S
C1474 H1470 0.949 . S
C1474 C1482 1.574 . S
C1474 C1490 1.368 1_565 S
H1475 C1483 0.950 . S
H1476 C1481 0.950 . S
H1477 C1482 0.949 . S
H1478 C1484 0.950 . S
H1479 C1485 0.950 . S
H1480 C1486 0.949 . S
C1481 H1476 0.950 . S
C1481 C1483 1.327 . S
C1481 C1487 1.429 . S
C1482 C1474 1.574 . S
C1482 H1477 0.949 . S
C1482 C1488 1.368 . S
C1483 C1467 1.349 . S
C1483 H1475 0.950 . S
C1483 C1481 1.327 . S
C1484 C1472 1.349 . S
C1484 H1478 0.950 . S
C1484 C1485 1.327 . S
C1485 H1479 0.950 . S
C1485 C1484 1.327 . S
C1485 C1489 1.429 . S
C1486 C1469 1.574 . S
C1486 H1480 0.949 . S
C1486 C1490 1.368 . S
C1487 C1468 1.429 . S
C1487 C1481 1.429 . S
C1487 C1488 1.523 . S
C1488 C1469 1.368 1_565 S
C1488 C1482 1.368 . S
C1488 C1487 1.523 . S
C1489 C1473 1.429 . S
C1489 C1485 1.429 . S
C1489 C1490 1.523 . S
C1490 C1474 1.368 1_545 S
C1490 C1486 1.368 . S
C1490 C1489 1.523 . S
H1491 C1466 0.950 . S
H1492 C1468 0.950 . S
H1493 C1469 0.949 . S
H1494 C1471 0.950 . S
H1495 C1473 0.950 . S
C537 C45 0.959 . S
C542 C100 0.957 . S
C567 C41 0.959 . S
C572 C161 0.962 . S
C597 C234 0.964 . S
C602 C112 0.958 . S
C627 C175 0.959 . S
C632 C228 0.966 . S
C657 C246 0.959 . S
C662 C301 0.962 . S
C687 C362 0.964 . S
C692 C242 0.959 . S
C717 C313 0.959 . S
C722 C33 0.966 . S
C747 C376 0.959 . S
C752 C27 0.971 . S
C777 C368 0.964 . S
C782 C447 0.959 . S
C807 C443 0.959 . S
C812 C295 0.964 . S
C837 C502 0.964 . S
C842 C380 0.964 . S
C867 C496 0.964 . S
C872 C309 0.964 . S
C897 C514 0.959 . S
C902 C167 0.960 . S
C927 C94 0.964 . S
C932 C510 0.953 . S
C957 C435 0.964 . S
C962 C179 0.958 . S
C987 C429 0.964 . S
C992 C108 0.959 . S
C1017 C35 1.894 . S
C1022 C24 1.894 . S
C1047 C91 1.894 . S
C1052 C102 1.894 1_565 S
C1077 C158 1.894 1_545 S
C1082 C169 1.894 . S
C1107 C225 1.894 . S
C1112 C236 1.894 . S
C1137 C292 1.894 1_545 S
C1142 C303 1.894 . S
C1167 C359 1.894 . S
C1172 C370 1.894 1_565 S
C1197 C437 1.894 . S
C1202 C426 1.894 . S
C1227 C493 1.894 . S
C1232 C504 1.894 . S
C1257 C508 1.208 . S
C1262 C48 1.204 . S
C1287 C39 1.208 . S
C1292 C517 1.212 . S
C1317 C115 1.208 . S
C1322 C173 1.208 . S
C1347 C441 1.208 . S
C1352 C249 1.206 . S
C1377 C240 1.208 . S
C1382 C450 1.210 . S
C1407 C374 1.208 . S
C1412 C316 1.208 . S
C1437 C383 1.208 . S
C1442 C307 1.208 . S
C1467 C182 1.208 . S
C1472 C106 1.208 . S
