# Generated by pormake.
# Topology sml, (6)-cn, num edge types: 1
# Building blocks:
#     Node 0, Type 0, BuildingBlock: OJICUG_clean_sbu_0, # of connection points: 6
#     Node 1, Type 0, BuildingBlock: OJICUG_clean_sbu_0, # of connection points: 6
#     Node 2, Type 0, BuildingBlock: OJICUG_clean_sbu_0, # of connection points: 6
#     Node 3, Type 0, BuildingBlock: OJICUG_clean_sbu_0, # of connection points: 6
#     Node 4, Type 0, BuildingBlock: OJICUG_clean_sbu_0, # of connection points: 6
#     Node 5, Type 0, BuildingBlock: OJICUG_clean_sbu_0, # of connection points: 6
#     Edge 6, Type (0, 0), BuildingBlock: EZIPEK_clean_linker_0, # of connection points: 2
#     Edge 7, Type (0, 0), BuildingBlock: EZIPEK_clean_linker_0, # of connection points: 2
#     Edge 8, Type (0, 0), BuildingBlock: EZIPEK_clean_linker_0, # of connection points: 2
#     Edge 9, Type (0, 0), BuildingBlock: EZIPEK_clean_linker_0, # of connection points: 2
#     Edge 10, Type (0, 0), BuildingBlock: EZIPEK_clean_linker_0, # of connection points: 2
#     Edge 11, Type (0, 0), BuildingBlock: EZIPEK_clean_linker_0, # of connection points: 2
#     Edge 12, Type (0, 0), BuildingBlock: EZIPEK_clean_linker_0, # of connection points: 2
#     Edge 13, Type (0, 0), BuildingBlock: EZIPEK_clean_linker_0, # of connection points: 2
#     Edge 14, Type (0, 0), BuildingBlock: EZIPEK_clean_linker_0, # of connection points: 2
#     Edge 15, Type (0, 0), BuildingBlock: EZIPEK_clean_linker_0, # of connection points: 2
#     Edge 16, Type (0, 0), BuildingBlock: EZIPEK_clean_linker_0, # of connection points: 2
#     Edge 17, Type (0, 0), BuildingBlock: EZIPEK_clean_linker_0, # of connection points: 2
#     Edge 18, Type (0, 0), BuildingBlock: EZIPEK_clean_linker_0, # of connection points: 2
#     Edge 19, Type (0, 0), BuildingBlock: EZIPEK_clean_linker_0, # of connection points: 2
#     Edge 20, Type (0, 0), BuildingBlock: EZIPEK_clean_linker_0, # of connection points: 2
#     Edge 21, Type (0, 0), BuildingBlock: EZIPEK_clean_linker_0, # of connection points: 2
#     Edge 22, Type (0, 0), BuildingBlock: EZIPEK_clean_linker_0, # of connection points: 2
#     Edge 23, Type (0, 0), BuildingBlock: EZIPEK_clean_linker_0, # of connection points: 2
# Relax obj value: 0.230
# Max RMSD: 0.261
# Mean RMSD: 0.261
data_MOF--net-sml--node1-OJICUG_clean_sbu_0--edge1-EZIPEK_clean_linker_0
_symmetry_space_group_name_H-M    P1
_symmetry_Int_Tables_number       1
_symmetry_cell_setting            triclinic
loop_
_symmetry_equiv_pos_as_xyz
'x, y, z'
_cell_length_a     31.333598
_cell_length_b     31.387022
_cell_length_c     11.690558
_cell_angle_alpha  89.908238
_cell_angle_beta   90.332212
_cell_angle_gamma 119.91678
loop_
_atom_site_label
_atom_site_type_symbol
_atom_site_fract_x
_atom_site_fract_y
_atom_site_fract_z
_atom_type_partial_charge
Sc0 Sc 0.18588 0.34059 0.0384 0.0
Sc1 Sc 0.28617 0.45499 0.11905 0.0
Sc2 Sc 0.19322 0.45007 0.94844 0.0
O3 O 0.22109 0.41495 0.03793 0.0
C4 C 0.18103 0.3669 0.77732 0.0
C5 C 0.297 0.36918 0.00248 0.0
C6 C 0.30998 0.52189 0.91468 0.0
C7 C 0.22269 0.37312 0.29904 0.0
C8 C 0.09666 0.359 0.05877 0.0
C9 C 0.22937 0.51784 0.15517 0.0
O10 O 0.1688 0.33456 0.85558 0.0
O11 O 0.31476 0.40737 0.0657 0.0
O12 O 0.26555 0.51248 0.90365 0.0
O13 O 0.19832 0.34037 0.22314 0.0
O14 O 0.11725 0.39746 -0.00361 0.0
O15 O 0.26652 0.51146 0.17054 0.0
O16 O 0.11739 0.33431 0.08341 0.0
O17 O 0.25586 0.41667 0.275 0.0
O18 O 0.19337 0.4902 0.09149 0.0
O19 O 0.25129 0.34143 0.9864 0.0
O20 O 0.1938 0.41144 0.79888 0.0
O21 O 0.32081 0.49383 0.96839 0.0
Sc22 Sc 0.72159 0.17706 0.18926 0.0
Sc23 Sc 0.80777 0.26168 0.38677 0.0
Sc24 Sc 0.82153 0.16402 0.28488 0.0
O25 O 0.78369 0.20135 0.28615 0.0
C26 C 0.70983 0.07816 0.30278 0.0
C27 C 0.69179 0.21609 0.40743 0.0
C28 C 0.82533 0.19023 0.54817 0.0
C29 C 0.76947 0.29347 0.16832 0.0
C30 C 0.79111 0.15807 0.02361 0.0
C31 C 0.90757 0.2746 0.27647 0.0
O32 O 0.6909 0.10185 0.25666 0.0
O33 O 0.73478 0.24029 0.45141 0.0
O34 O 0.82945 0.16551 0.46784 0.0
O35 O 0.74343 0.25067 0.1243 0.0
O36 O 0.81789 0.15591 0.10238 0.0
O37 O 0.88332 0.29214 0.3254 0.0
O38 O 0.75463 0.16411 0.04239 0.0
O39 O 0.79575 0.30185 0.25739 0.0
O40 O 0.89051 0.22911 0.25936 0.0
O41 O 0.68235 0.19043 0.31759 0.0
O42 O 0.75605 0.09676 0.31184 0.0
O43 O 0.81865 0.22639 0.53187 0.0
Sc44 Sc 0.65723 0.82983 0.64726 0.0
Sc45 Sc 0.54622 0.81931 0.72863 0.0
Sc46 Sc 0.54733 0.72895 0.55863 0.0
O47 O 0.58379 0.79254 0.64569 0.0
C48 C 0.62912 0.79719 0.38527 0.0
C49 C 0.6347 0.9164 0.62048 0.0
C50 C 0.47919 0.77974 0.5229 0.0
C51 C 0.62737 0.83373 0.90761 0.0
C52 C 0.63677 0.72164 0.67257 0.0
C53 C 0.47955 0.70105 0.7604 0.0
O54 O 0.66132 0.81866 0.46402 0.0
O55 O 0.59795 0.89704 0.68783 0.0
O56 O 0.48641 0.74315 0.51519 0.0
O57 O 0.65992 0.84456 0.83048 0.0
O58 O 0.60012 0.70383 0.60332 0.0
O59 O 0.48604 0.74457 0.7696 0.0
O60 O 0.65964 0.76675 0.69843 0.0
O61 O 0.58279 0.82112 0.8857 0.0
O62 O 0.50902 0.69176 0.70752 0.0
O63 O 0.65804 0.89448 0.59589 0.0
O64 O 0.58465 0.76499 0.40488 0.0
O65 O 0.50992 0.81823 0.57522 0.0
Sc66 Sc 0.82261 0.54945 0.90024 0.0
Sc67 Sc 0.73486 0.54983 0.08923 0.0
Sc68 Sc 0.83543 0.66096 -0.0048 0.0
O69 O 0.79735 0.58627 -0.00505 0.0
C70 C 0.92092 0.63448 0.02401 0.0
C71 C 0.77852 0.47772 0.1125 0.0
C72 C 0.80507 0.63684 0.25695 0.0
C73 C 0.70629 0.48301 0.86695 0.0
C74 C 0.84319 0.63821 0.73428 0.0
C75 C 0.7242 0.6372 0.97124 0.0
O76 O 0.89689 0.59213 0.97703 0.0
O77 O 0.75395 0.49617 0.15571 0.0
O78 O 0.83127 0.66578 0.17824 0.0
O79 O 0.74981 0.50004 0.82732 0.0
O80 O 0.84485 0.66677 0.81275 0.0
O81 O 0.70542 0.59595 0.02292 0.0
O82 O 0.83806 0.5962 0.75386 0.0
O83 O 0.6965 0.49932 0.95611 0.0
O84 O 0.7704 0.66363 0.95983 0.0
O85 O 0.8059 0.49559 0.02615 0.0
O86 O 0.90303 0.66287 0.02921 0.0
O87 O 0.76844 0.59453 0.23793 0.0
Sc88 Sc 0.16604 0.82222 0.38641 0.0
Sc89 Sc 0.17561 0.7206 0.48201 0.0
Sc90 Sc 0.2616 0.80451 0.28603 0.0
O91 O 0.20155 0.78258 0.38573 0.0
C92 C 0.19238 0.82552 0.12378 0.0
C93 C 0.07783 0.71141 0.36309 0.0
C94 C 0.21352 0.68885 0.2651 0.0
C95 C 0.15895 0.79216 0.64709 0.0
C96 C 0.27861 0.90542 0.39825 0.0
C97 C 0.29131 0.76499 0.50678 0.0
O98 O 0.16723 0.82917 0.20356 0.0
O99 O 0.10144 0.69171 0.40638 0.0
O100 O 0.23665 0.73115 0.21832 0.0
O101 O 0.15868 0.81989 0.5687 0.0
O102 O 0.29498 0.87978 0.35117 0.0
O103 O 0.24858 0.74108 0.55217 0.0
O104 O 0.23311 0.89024 0.41158 0.0
O105 O 0.16223 0.75412 0.62761 0.0
O106 O 0.29987 0.78955 0.41527 0.0
O107 O 0.09679 0.75777 0.35962 0.0
O108 O 0.22831 0.81841 0.14076 0.0
O109 O 0.18968 0.68077 0.35702 0.0
Sc110 Sc 0.45643 0.28016 0.54041 0.0
Sc111 Sc 0.45305 0.19358 0.7348 0.0
Sc112 Sc 0.34185 0.18211 0.63338 0.0
O113 O 0.41725 0.21843 0.63543 0.0
C114 C 0.37451 0.2949 0.66787 0.0
C115 C 0.52569 0.30797 0.75922 0.0
C116 C 0.36263 0.17425 0.89608 0.0
C117 C 0.52058 0.22897 0.51341 0.0
C118 C 0.36736 0.21525 0.37243 0.0
C119 C 0.36586 0.09527 0.61476 0.0
O120 O 0.41674 0.31222 0.62168 0.0
O121 O 0.5046 0.26577 0.80701 0.0
O122 O 0.33402 0.17115 0.81568 0.0
O123 O 0.50288 0.25381 0.46694 0.0
O124 O 0.33911 0.18669 0.44929 0.0
O125 O 0.40844 0.11978 0.6613 0.0
O126 O 0.40892 0.25232 0.39414 0.0
O127 O 0.50583 0.20658 0.60768 0.0
O128 O 0.33624 0.11178 0.60641 0.0
O129 O 0.51155 0.31645 0.66512 0.0
O130 O 0.34204 0.24955 0.66641 0.0
O131 O 0.40562 0.18147 0.87725 0.0
C132 C 0.3449 0.3537 0.71814 0.0
C133 C 0.3667 0.32569 0.75226 0.0
C134 C 0.3555 0.33855 0.9556 0.0
C135 C 0.32952 0.3625 0.92105 0.0
N136 N 0.30969 0.40414 0.77455 0.0
N137 N 0.40289 0.29975 0.89986 0.0
C138 C 0.32791 0.37399 0.80358 0.0
C139 C 0.37567 0.32126 0.87028 0.0
N140 N 0.33865 0.35892 0.60411 0.0
N141 N 0.35891 0.33075 0.06956 0.0
H142 H 0.41767 0.28637 0.8395 0.0
H143 H 0.41349 0.2974 0.98296 0.0
H144 H 0.34532 0.3442 0.13274 0.0
H145 H 0.37417 0.31053 0.10254 0.0
H146 H 0.31898 0.37489 0.57156 0.0
H147 H 0.35226 0.34562 0.54061 0.0
H148 H 0.31038 0.41719 0.69239 0.0
H149 H 0.29631 0.41885 0.83495 0.0
C150 C 0.00858 0.3437 0.06145 0.0
C151 C 0.04937 0.34517 0.11895 0.0
C152 C 0.99831 0.30871 0.29004 0.0
C153 C 0.95799 0.30764 0.2332 0.0
N154 N 0.92736 0.335 0.07782 0.0
N155 N 0.08627 0.34471 0.30107 0.0
C156 C 0.96431 0.32932 0.12346 0.0
C157 C 0.04514 0.33232 0.23724 0.0
N158 N 0.01068 0.35261 0.94652 0.0
N159 N 0.99167 0.28625 0.39393 0.0
H160 H 0.12156 0.36495 0.26812 0.0
H161 H 0.08561 0.33997 0.38928 0.0
H162 H 0.95861 0.27158 0.43861 0.0
H163 H 0.01792 0.27971 0.43251 0.0
H164 H 0.98096 0.34879 0.89827 0.0
H165 H 0.04091 0.35983 0.89638 0.0
H166 H 0.93098 0.35479 0.00343 0.0
H167 H 0.89418 0.32281 0.1204 0.0
C168 C 0.70667 0.00669 0.40013 0.0
C169 C 0.68007 0.03008 0.36604 0.0
C170 C 0.61777 0.97895 0.51137 0.0
C171 C 0.65081 0.96384 0.55625 0.0
N172 N 0.73618 0.98501 0.56713 0.0
N173 N 0.60613 0.03549 0.38993 0.0
C174 C 0.69851 0.98536 0.50888 0.0
C175 C 0.63424 0.01543 0.42175 0.0
N176 N 0.74007 0.00497 0.32877 0.0
N177 N 0.57076 0.95841 0.55115 0.0
H178 H 0.61149 0.05508 0.31457 0.0
H179 H 0.57678 0.03209 0.43821 0.0
H180 H 0.5584 0.93661 0.62381 0.0
H181 H 0.5434 0.96254 0.51055 0.0
H182 H 0.75861 0.98615 0.35023 0.0
H183 H 0.7443 0.01733 0.24431 0.0
H184 H 0.77208 0.00232 0.53569 0.0
H185 H 0.73217 0.97246 0.65138 0.0
C186 C 0.62355 0.64558 0.78855 0.0
C187 C 0.65505 0.6912 0.73276 0.0
C188 C 0.71981 0.70445 0.86775 0.0
C189 C 0.69368 0.65535 0.90827 0.0
N190 N 0.61736 0.57649 0.89523 0.0
N191 N 0.73955 0.75297 0.69695 0.0
C192 C 0.64455 0.6248 0.86515 0.0
C193 C 0.7054 0.71642 0.76416 0.0
N194 N 0.57369 0.62305 0.77452 0.0
N195 N 0.75742 0.74053 0.93001 0.0
H196 H 0.73053 0.76108 0.61677 0.0
H197 H 0.77713 0.77074 0.71623 0.0
H198 H 0.76542 0.73456 0.01336 0.0
H199 H 0.77559 0.77725 0.90421 0.0
H200 H 0.5492 0.59352 0.82473 0.0
H201 H 0.55638 0.6356 0.719 0.0
H202 H 0.58459 0.55216 0.85368 0.0
H203 H 0.62734 0.55981 0.95827 0.0
C204 C 0.01444 0.6348 0.24517 0.0
C205 C 0.0308 0.68259 0.29265 0.0
C206 C 0.99093 0.6999 0.13457 0.0
C207 C 0.96777 0.65093 0.09399 0.0
N208 N 0.9624 0.57144 0.10705 0.0
N209 N 0.00891 0.74612 0.30818 0.0
C210 C 0.98101 0.61808 0.14804 0.0
C211 C 0.01058 0.71031 0.24576 0.0
N212 N 0.02966 0.605 0.29336 0.0
N213 N 0.99445 0.73692 0.06683 0.0
H214 H 0.01825 0.75133 0.39498 0.0
H215 H 0.99231 0.76556 0.27692 0.0
H216 H 0.98407 0.73121 0.98066 0.0
H217 H 0.01313 0.77358 0.09337 0.0
H218 H 0.02588 0.57354 0.25428 0.0
H219 H 0.04477 0.61083 0.3752 0.0
H220 H 0.96452 0.54368 0.15072 0.0
H221 H 0.94611 0.56065 0.02671 0.0
C222 C 0.35108 0.00771 0.61188 0.0
C223 C 0.35178 0.04789 0.55361 0.0
C224 C 0.31771 0.99626 0.38039 0.0
C225 C 0.3131 0.95562 0.44198 0.0
N226 N 0.33665 0.924 0.60218 0.0
N227 N 0.33691 0.0808 0.38026 0.0
C228 C 0.3337 0.96197 0.55325 0.0
C229 C 0.33596 0.0423 0.4367 0.0
N230 N 0.36308 0.01195 0.72558 0.0
N231 N 0.30625 0.99089 0.26624 0.0
H232 H 0.35529 0.11634 0.41219 0.0
H233 H 0.31845 0.07759 0.30372 0.0
H234 H 0.29395 0.95761 0.22336 0.0
H235 H 0.3128 0.01964 0.21144 0.0
H236 H 0.3587 0.98284 0.77646 0.0
H237 H 0.37431 0.04408 0.77237 0.0
H238 H 0.35527 0.92685 0.67827 0.0
H239 H 0.32321 0.89017 0.56132 0.0
C240 C 0.20174 0.32763 0.60932 0.0
C241 C 0.1793 0.35408 0.65369 0.0
C242 C 0.18452 0.39063 0.46682 0.0
C243 C 0.20571 0.36372 0.41975 0.0
N244 N 0.2259 0.2994 0.44041 0.0
N245 N 0.13013 0.39136 0.61077 0.0
C246 C 0.21086 0.32926 0.48888 0.0
C247 C 0.16432 0.37904 0.57739 0.0
N248 N 0.21677 0.30333 0.68137 0.0
N249 N 0.18415 0.4281 0.40792 0.0
H250 H 0.11284 0.38109 0.69025 0.0
H251 H 0.11501 0.40634 0.55499 0.0
H252 H 0.19487 0.43654 0.32303 0.0
H253 H 0.17502 0.45241 0.44649 0.0
H254 H 0.23779 0.28788 0.6554 0.0
H255 H 0.21048 0.30027 0.7689 0.0
H256 H 0.22571 0.27018 0.48314 0.0
H257 H 0.23555 0.30182 0.35443 0.0
C258 C 0.85082 0.19846 0.86295 0.0
C259 C 0.8057 0.15872 0.90333 0.0
C260 C 0.77799 0.13259 0.70686 0.0
C261 C 0.82244 0.17327 0.66696 0.0
N262 N 0.90627 0.23543 0.70263 0.0
N263 N 0.73346 0.08038 0.86741 0.0
C264 C 0.86071 0.20287 0.74397 0.0
C265 C 0.77163 0.12314 0.82616 0.0
N266 N 0.88259 0.23405 0.93667 0.0
N267 N 0.74075 0.10492 0.63163 0.0
H268 H 0.72839 0.07263 0.95478 0.0
H269 H 0.7099 0.05089 0.81552 0.0
H270 H 0.74423 0.11022 0.54346 0.0
H271 H 0.70544 0.07859 0.65674 0.0
H272 H 0.91308 0.26643 0.90968 0.0
H273 H 0.87686 0.23328 0.02438 0.0
H274 H 0.93728 0.25495 0.75427 0.0
H275 H 0.91397 0.23912 0.6153 0.0
C276 C 0.64782 0.78311 0.18613 0.0
C277 C 0.6418 0.81371 0.2652 0.0
C278 C 0.64309 0.86625 0.10772 0.0
C279 C 0.64022 0.83086 0.02857 0.0
N280 N 0.63632 0.7533 0.99125 0.0
N281 N 0.63025 0.88293 0.30267 0.0
C282 C 0.64253 0.78902 0.06719 0.0
C283 C 0.63937 0.85546 0.22661 0.0
N284 N 0.65814 0.74816 0.22523 0.0
N285 N 0.64916 0.91001 0.06885 0.0
H286 H 0.62699 0.87599 0.39015 0.0
H287 H 0.6224 0.91025 0.27853 0.0
H288 H 0.65175 0.91856 0.98191 0.0
H289 H 0.65624 0.93934 0.1224 0.0
H290 H 0.66752 0.72759 0.17188 0.0
H291 H 0.66186 0.74309 0.31224 0.0
H292 H 0.63228 0.71954 0.01535 0.0
H293 H 0.6314 0.75585 0.90398 0.0
C294 C 0.87521 0.6531 0.53476 0.0
C295 C 0.84003 0.65077 0.61358 0.0
C296 C 0.79143 0.65667 0.45523 0.0
C297 C 0.82159 0.64964 0.37702 0.0
N298 N 0.8904 0.6369 0.34165 0.0
N299 N 0.76152 0.64576 0.64909 0.0
C300 C 0.86361 0.6476 0.4162 0.0
C301 C 0.79768 0.65231 0.57428 0.0
N302 N 0.91959 0.66043 0.57364 0.0
N303 N 0.75663 0.66718 0.41534 0.0
H304 H 0.76362 0.64114 0.73666 0.0
H305 H 0.72748 0.64086 0.62337 0.0
H306 H 0.75132 0.67033 0.32817 0.0
H307 H 0.73664 0.67744 0.46827 0.0
H308 H 0.94864 0.66706 0.51978 0.0
H309 H 0.92889 0.66469 0.66042 0.0
H310 H 0.9175 0.62892 0.36768 0.0
H311 H 0.88304 0.63209 0.25422 0.0
C312 C 0.12499 0.77209 0.84462 0.0
C313 C 0.15994 0.80667 0.76791 0.0
C314 C 0.20407 0.86136 0.92902 0.0
C315 C 0.17539 0.82256 0.00481 0.0
N316 N 0.10891 0.73983 0.03732 0.0
N317 N 0.23495 0.88424 0.73698 0.0
C318 C 0.13525 0.77785 0.9637 0.0
C319 C 0.19954 0.85192 0.80961 0.0
N320 N 0.08198 0.73397 0.80323 0.0
N321 N 0.23589 0.90698 0.97181 0.0
H322 H 0.23441 0.8788 0.64917 0.0
H323 H 0.26716 0.91498 0.76496 0.0
H324 H 0.23954 0.91438 0.05942 0.0
H325 H 0.25464 0.9382 0.92108 0.0
H326 H 0.05298 0.71006 0.85539 0.0
H327 H 0.07343 0.7294 0.71604 0.0
H328 H 0.08327 0.70447 0.01044 0.0
H329 H 0.11489 0.7427 0.12542 0.0
C330 C 0.3829 0.17499 0.2071 0.0
C331 C 0.35773 0.19821 0.25223 0.0
C332 C 0.32213 0.19498 0.0625 0.0
C333 C 0.34797 0.1716 0.01875 0.0
N334 N 0.38072 0.11864 0.06443 0.0
N335 N 0.29476 0.22017 0.23132 0.0
C336 C 0.37084 0.15465 0.09651 0.0
C337 C 0.32409 0.2045 0.18274 0.0
N338 N 0.41939 0.17325 0.26788 0.0
N339 N 0.29756 0.20996 0.9909 0.0
H340 H 0.29696 0.22906 0.31796 0.0
H341 H 0.26594 0.22091 0.18834 0.0
H342 H 0.29099 0.2009 0.90486 0.0
H343 H 0.28397 0.23264 0.01662 0.0
H344 H 0.44208 0.16136 0.23216 0.0
H345 H 0.42876 0.18597 0.35159 0.0
H346 H 0.39412 0.1024 0.12135 0.0
H347 H 0.36978 0.10122 0.98492 0.0
C348 C 0.18366 0.55787 0.23184 0.0
C349 C 0.22912 0.56278 0.19581 0.0
C350 C 0.26595 0.65248 0.20451 0.0
C351 C 0.21876 0.64713 0.22324 0.0
N352 N 0.13073 0.59337 0.22498 0.0
N353 N 0.30837 0.61678 0.11041 0.0
C354 C 0.17697 0.59929 0.22767 0.0
C355 C 0.26909 0.61066 0.17228 0.0
N356 N 0.14683 0.51369 0.27041 0.0
N357 N 0.30809 0.69652 0.22067 0.0
H358 H 0.30912 0.58737 0.07297 0.0
H359 H 0.33625 0.65104 0.08291 0.0
H360 H 0.30871 0.72818 0.24924 0.0
H361 H 0.34298 0.7001 0.21696 0.0
H362 H 0.11459 0.50937 0.30666 0.0
H363 H 0.15074 0.48268 0.27689 0.0
H364 H 0.09898 0.55905 0.21834 0.0
H365 H 0.12463 0.62301 0.21595 0.0
C366 C 0.65393 0.26885 0.45094 0.0
C367 C 0.6505 0.22182 0.45015 0.0
C368 C 0.56061 0.18226 0.45294 0.0
C369 C 0.56402 0.22866 0.46649 0.0
N370 N 0.61486 0.31593 0.5015 0.0
N371 N 0.60116 0.13452 0.47876 0.0
C372 C 0.61091 0.27201 0.47161 0.0
C373 C 0.60388 0.17875 0.45982 0.0
N374 N 0.69736 0.31046 0.42657 0.0
N375 N 0.51574 0.14151 0.43346 0.0
H376 H 0.63253 0.13119 0.48827 0.0
H377 H 0.56834 0.10257 0.49763 0.0
H378 H 0.48343 0.14331 0.42636 0.0
H379 H 0.51138 0.10724 0.41319 0.0
H380 H 0.6999 0.34442 0.41222 0.0
H381 H 0.73016 0.31085 0.41064 0.0
H382 H 0.64836 0.34703 0.5218 0.0
H383 H 0.5846 0.3206 0.51446 0.0
C384 C 0.38933 0.60082 0.95501 0.0
C385 C 0.35155 0.5695 0.87566 0.0
C386 C 0.39885 0.62451 0.72004 0.0
C387 C 0.43355 0.65816 0.80083 0.0
N388 N 0.45742 0.68224 -0.00344 0.0
N389 N 0.31774 0.55514 0.68411 0.0
C390 C 0.42721 0.64762 0.91873 0.0
C391 C 0.35515 0.58288 0.75903 0.0
N392 N 0.39 0.58602 0.0649 0.0
N393 N 0.4088 0.63037 0.60569 0.0
H394 H 0.28735 0.52137 0.70502 0.0
H395 H 0.3155 0.56715 0.6023 0.0
H396 H 0.44049 0.65944 0.57206 0.0
H397 H 0.38792 0.60388 0.54451 0.0
H398 H 0.4205 0.60405 0.11884 0.0
H399 H 0.36134 0.55494 0.10244 0.0
H400 H 0.4507 0.67888 0.08423 0.0
H401 H 0.48695 0.71626 0.9732 0.0
C402 C 0.81134 0.38048 0.11572 0.0
C403 C 0.76614 0.33656 0.12769 0.0
C404 C 0.72499 0.38572 0.14246 0.0
C405 C 0.77198 0.42946 0.14922 0.0
N406 N 0.85963 0.46521 0.17374 0.0
N407 N 0.67881 0.29713 0.16497 0.0
C408 C 0.81502 0.42548 0.14752 0.0
C409 C 0.72244 0.33897 0.14422 0.0
N410 N 0.85049 0.37893 0.07076 0.0
N411 N 0.68301 0.38826 0.12842 0.0
H412 H 0.67476 0.26214 0.16226 0.0
H413 H 0.64731 0.2975 0.19163 0.0
H414 H 0.6822 0.42096 0.12942 0.0
H415 H 0.64911 0.35776 0.10788 0.0
H416 H 0.88416 0.41034 0.05403 0.0
H417 H 0.84595 0.34633 0.03588 0.0
H418 H 0.89159 0.46289 0.18125 0.0
H419 H 0.86315 0.49866 0.1997 0.0
C420 C 0.37656 0.80606 0.5716 0.0
C421 C 0.334 0.76098 0.54821 0.0
C422 C 0.38623 0.72766 0.48124 0.0
C423 C 0.42893 0.7742 0.50239 0.0
N424 N 0.45887 0.86151 0.50864 0.0
N425 N 0.29695 0.67575 0.49782 0.0
C426 C 0.42247 0.81464 0.53096 0.0
C427 C 0.33855 0.72058 0.50915 0.0
N428 N 0.3725 0.84129 0.63043 0.0
N429 N 0.39078 0.6925 0.42287 0.0
H430 H 0.26224 0.67029 0.51852 0.0
H431 H 0.29682 0.64347 0.47722 0.0
H432 H 0.42359 0.69986 0.38393 0.0
H433 H 0.36142 0.65837 0.39997 0.0
H434 H 0.40297 0.87427 0.65652 0.0
H435 H 0.3387 0.83429 0.66353 0.0
H436 H 0.45446 0.89201 0.52041 0.0
H437 H 0.49022 0.86879 0.46249 0.0
C438 C 0.62004 0.43996 0.80016 0.0
C439 C 0.66375 0.43822 0.81897 0.0
C440 C 0.61607 0.348 0.8071 0.0
C441 C 0.57172 0.35003 0.80432 0.0
N442 N 0.53161 0.39823 0.82082 0.0
N443 N 0.70247 0.38944 0.85812 0.0
C444 C 0.57391 0.39625 0.80826 0.0
C445 C 0.66169 0.39194 0.82688 0.0
N446 N 0.62288 0.48367 0.77331 0.0
N447 N 0.61529 0.30485 0.78526 0.0
H448 H 0.73697 0.42026 0.87109 0.0
H449 H 0.70119 0.35655 0.87916 0.0
H450 H 0.58301 0.27156 0.77193 0.0
H451 H 0.64711 0.30289 0.77159 0.0
H452 H 0.59248 0.48647 0.74758 0.0
H453 H 0.65653 0.51621 0.76489 0.0
H454 H 0.53125 0.43087 0.83412 0.0
H455 H 0.49727 0.36665 0.82958 0.0
loop_
_geom_bond_atom_site_label_1
_geom_bond_atom_site_label_2
_geom_bond_distance
_geom_bond_site_symmetry_2
_ccdc_geom_bond_type
Sc0 O3 2.025 . S
Sc0 O10 2.105 1_554 S
Sc0 O13 2.105 . S
Sc0 O16 2.105 . S
Sc0 O19 2.105 1_554 S
Sc1 O3 2.025 . S
Sc1 O11 2.105 . S
Sc1 O15 2.105 . S
Sc1 O17 2.105 . S
Sc1 O21 2.105 1_554 S
Sc2 O3 2.025 1_556 S
Sc2 O12 2.105 . S
Sc2 O14 2.105 . S
Sc2 O18 2.105 1_556 S
Sc2 O20 2.105 . S
O3 Sc0 2.025 . S
O3 Sc1 2.025 . S
O3 Sc2 2.025 1_554 S
C4 O10 1.268 . S
C4 O20 1.268 . S
C5 O11 1.268 1_556 S
C5 O19 1.268 . S
C6 O12 1.268 . S
C6 O21 1.268 . S
C7 O13 1.268 . S
C7 O17 1.268 . S
C8 O14 1.268 1_554 S
C8 O16 1.268 . S
C9 O15 1.268 . S
C9 O18 1.268 . S
O10 Sc0 2.105 1_556 S
O10 C4 1.268 . S
O11 Sc1 2.105 . S
O11 C5 1.268 1_554 S
O12 Sc2 2.105 . S
O12 C6 1.268 . S
O13 Sc0 2.105 . S
O13 C7 1.268 . S
O14 Sc2 2.105 . S
O14 C8 1.268 1_556 S
O15 Sc1 2.105 . S
O15 C9 1.268 . S
O16 Sc0 2.105 . S
O16 C8 1.268 . S
O17 Sc1 2.105 . S
O17 C7 1.268 . S
O18 Sc2 2.105 1_554 S
O18 C9 1.268 . S
O19 Sc0 2.105 1_556 S
O19 C5 1.268 . S
O20 Sc2 2.105 . S
O20 C4 1.268 . S
O21 Sc1 2.105 1_556 S
O21 C6 1.268 . S
Sc22 O25 2.025 . S
Sc22 O32 2.105 . S
Sc22 O35 2.105 . S
Sc22 O38 2.105 . S
Sc22 O41 2.105 . S
Sc23 O25 2.025 . S
Sc23 O33 2.105 . S
Sc23 O37 2.105 . S
Sc23 O39 2.105 . S
Sc23 O43 2.105 . S
Sc24 O25 2.025 . S
Sc24 O34 2.105 . S
Sc24 O36 2.105 . S
Sc24 O40 2.105 . S
Sc24 O42 2.105 . S
O25 Sc22 2.025 . S
O25 Sc23 2.025 . S
O25 Sc24 2.025 . S
C26 O32 1.268 . S
C26 O42 1.268 . S
C27 O33 1.268 . S
C27 O41 1.268 . S
C28 O34 1.268 . S
C28 O43 1.268 . S
C29 O35 1.268 . S
C29 O39 1.268 . S
C30 O36 1.268 . S
C30 O38 1.268 . S
C31 O37 1.268 . S
C31 O40 1.268 . S
O32 Sc22 2.105 . S
O32 C26 1.268 . S
O33 Sc23 2.105 . S
O33 C27 1.268 . S
O34 Sc24 2.105 . S
O34 C28 1.268 . S
O35 Sc22 2.105 . S
O35 C29 1.268 . S
O36 Sc24 2.105 . S
O36 C30 1.268 . S
O37 Sc23 2.105 . S
O37 C31 1.268 . S
O38 Sc22 2.105 . S
O38 C30 1.268 . S
O39 Sc23 2.105 . S
O39 C29 1.268 . S
O40 Sc24 2.105 . S
O40 C31 1.268 . S
O41 Sc22 2.105 . S
O41 C27 1.268 . S
O42 Sc24 2.105 . S
O42 C26 1.268 . S
O43 Sc23 2.105 . S
O43 C28 1.268 . S
Sc44 O47 2.025 . S
Sc44 O54 2.105 . S
Sc44 O57 2.105 . S
Sc44 O60 2.105 . S
Sc44 O63 2.105 . S
Sc45 O47 2.025 . S
Sc45 O55 2.105 . S
Sc45 O59 2.105 . S
Sc45 O61 2.105 . S
Sc45 O65 2.105 . S
Sc46 O47 2.025 . S
Sc46 O56 2.105 . S
Sc46 O58 2.105 . S
Sc46 O62 2.105 . S
Sc46 O64 2.105 . S
O47 Sc44 2.025 . S
O47 Sc45 2.025 . S
O47 Sc46 2.025 . S
C48 O54 1.268 . S
C48 O64 1.268 . S
C49 O55 1.268 . S
C49 O63 1.268 . S
C50 O56 1.268 . S
C50 O65 1.268 . S
C51 O57 1.268 . S
C51 O61 1.268 . S
C52 O58 1.268 . S
C52 O60 1.268 . S
C53 O59 1.268 . S
C53 O62 1.268 . S
O54 Sc44 2.105 . S
O54 C48 1.268 . S
O55 Sc45 2.105 . S
O55 C49 1.268 . S
O56 Sc46 2.105 . S
O56 C50 1.268 . S
O57 Sc44 2.105 . S
O57 C51 1.268 . S
O58 Sc46 2.105 . S
O58 C52 1.268 . S
O59 Sc45 2.105 . S
O59 C53 1.268 . S
O60 Sc44 2.105 . S
O60 C52 1.268 . S
O61 Sc45 2.105 . S
O61 C51 1.268 . S
O62 Sc46 2.105 . S
O62 C53 1.268 . S
O63 Sc44 2.105 . S
O63 C49 1.268 . S
O64 Sc46 2.105 . S
O64 C48 1.268 . S
O65 Sc45 2.105 . S
O65 C50 1.268 . S
Sc66 O69 2.025 1_556 S
Sc66 O76 2.105 . S
Sc66 O79 2.105 . S
Sc66 O82 2.105 . S
Sc66 O85 2.105 1_556 S
Sc67 O69 2.025 . S
Sc67 O77 2.105 . S
Sc67 O81 2.105 . S
Sc67 O83 2.105 1_554 S
Sc67 O87 2.105 . S
Sc68 O69 2.025 . S
Sc68 O78 2.105 . S
Sc68 O80 2.105 1_554 S
Sc68 O84 2.105 1_554 S
Sc68 O86 2.105 . S
O69 Sc66 2.025 1_554 S
O69 Sc67 2.025 . S
O69 Sc68 2.025 . S
C70 O76 1.268 1_554 S
C70 O86 1.268 . S
C71 O77 1.268 . S
C71 O85 1.268 . S
C72 O78 1.268 . S
C72 O87 1.268 . S
C73 O79 1.268 . S
C73 O83 1.268 . S
C74 O80 1.268 . S
C74 O82 1.268 . S
C75 O81 1.268 1_556 S
C75 O84 1.268 . S
O76 Sc66 2.105 . S
O76 C70 1.268 1_556 S
O77 Sc67 2.105 . S
O77 C71 1.268 . S
O78 Sc68 2.105 . S
O78 C72 1.268 . S
O79 Sc66 2.105 . S
O79 C73 1.268 . S
O80 Sc68 2.105 1_556 S
O80 C74 1.268 . S
O81 Sc67 2.105 . S
O81 C75 1.268 1_554 S
O82 Sc66 2.105 . S
O82 C74 1.268 . S
O83 Sc67 2.105 1_556 S
O83 C73 1.268 . S
O84 Sc68 2.105 1_556 S
O84 C75 1.268 . S
O85 Sc66 2.105 1_554 S
O85 C71 1.268 . S
O86 Sc68 2.105 . S
O86 C70 1.268 . S
O87 Sc67 2.105 . S
O87 C72 1.268 . S
Sc88 O91 2.025 . S
Sc88 O98 2.105 . S
Sc88 O101 2.105 . S
Sc88 O104 2.105 . S
Sc88 O107 2.105 . S
Sc89 O91 2.025 . S
Sc89 O99 2.105 . S
Sc89 O103 2.105 . S
Sc89 O105 2.105 . S
Sc89 O109 2.105 . S
Sc90 O91 2.025 . S
Sc90 O100 2.105 . S
Sc90 O102 2.105 . S
Sc90 O106 2.105 . S
Sc90 O108 2.105 . S
O91 Sc88 2.025 . S
O91 Sc89 2.025 . S
O91 Sc90 2.025 . S
C92 O98 1.268 . S
C92 O108 1.268 . S
C93 O99 1.268 . S
C93 O107 1.268 . S
C94 O100 1.268 . S
C94 O109 1.268 . S
C95 O101 1.268 . S
C95 O105 1.268 . S
C96 O102 1.268 . S
C96 O104 1.268 . S
C97 O103 1.268 . S
C97 O106 1.268 . S
O98 Sc88 2.105 . S
O98 C92 1.268 . S
O99 Sc89 2.105 . S
O99 C93 1.268 . S
O100 Sc90 2.105 . S
O100 C94 1.268 . S
O101 Sc88 2.105 . S
O101 C95 1.268 . S
O102 Sc90 2.105 . S
O102 C96 1.268 . S
O103 Sc89 2.105 . S
O103 C97 1.268 . S
O104 Sc88 2.105 . S
O104 C96 1.268 . S
O105 Sc89 2.105 . S
O105 C95 1.268 . S
O106 Sc90 2.105 . S
O106 C97 1.268 . S
O107 Sc88 2.105 . S
O107 C93 1.268 . S
O108 Sc90 2.105 . S
O108 C92 1.268 . S
O109 Sc89 2.105 . S
O109 C94 1.268 . S
Sc110 O113 2.025 . S
Sc110 O120 2.105 . S
Sc110 O123 2.105 . S
Sc110 O126 2.105 . S
Sc110 O129 2.105 . S
Sc111 O113 2.025 . S
Sc111 O121 2.105 . S
Sc111 O125 2.105 . S
Sc111 O127 2.105 . S
Sc111 O131 2.105 . S
Sc112 O113 2.025 . S
Sc112 O122 2.105 . S
Sc112 O124 2.105 . S
Sc112 O128 2.105 . S
Sc112 O130 2.105 . S
O113 Sc110 2.025 . S
O113 Sc111 2.025 . S
O113 Sc112 2.025 . S
C114 O120 1.268 . S
C114 O130 1.268 . S
C115 O121 1.268 . S
C115 O129 1.268 . S
C116 O122 1.268 . S
C116 O131 1.268 . S
C117 O123 1.268 . S
C117 O127 1.268 . S
C118 O124 1.268 . S
C118 O126 1.268 . S
C119 O125 1.268 . S
C119 O128 1.268 . S
O120 Sc110 2.105 . S
O120 C114 1.268 . S
O121 Sc111 2.105 . S
O121 C115 1.268 . S
O122 Sc112 2.105 . S
O122 C116 1.268 . S
O123 Sc110 2.105 . S
O123 C117 1.268 . S
O124 Sc112 2.105 . S
O124 C118 1.268 . S
O125 Sc111 2.105 . S
O125 C119 1.268 . S
O126 Sc110 2.105 . S
O126 C118 1.268 . S
O127 Sc111 2.105 . S
O127 C117 1.268 . S
O128 Sc112 2.105 . S
O128 C119 1.268 . S
O129 Sc110 2.105 . S
O129 C115 1.268 . S
O130 Sc112 2.105 . S
O130 C114 1.268 . S
O131 Sc111 2.105 . S
O131 C116 1.268 . S
C132 C133 1.363 . S
C132 C138 1.379 . S
C132 N140 1.356 . S
C133 C132 1.363 . S
C133 C139 1.363 . S
C134 C135 1.363 . S
C134 C139 1.379 . S
C134 N141 1.356 . S
C135 C134 1.363 . S
C135 C138 1.363 . S
N136 C138 1.356 . S
N136 H148 0.984 . S
N136 H149 0.985 . S
N137 C139 1.356 . S
N137 H142 0.984 . S
N137 H143 0.985 . S
C138 C132 1.379 . S
C138 C135 1.363 . S
C138 N136 1.356 . S
C139 C133 1.363 . S
C139 C134 1.379 . S
C139 N137 1.356 . S
N140 C132 1.356 . S
N140 H146 0.984 . S
N140 H147 0.984 . S
N141 C134 1.356 . S
N141 H144 0.984 1_556 S
N141 H145 0.985 1_556 S
H142 N137 0.984 . S
H143 N137 0.985 . S
H144 N141 0.984 1_554 S
H145 N141 0.985 1_554 S
H146 N140 0.984 . S
H147 N140 0.984 . S
H148 N136 0.984 . S
H149 N136 0.985 . S
C150 C151 1.363 1_655 S
C150 C156 1.379 . S
C150 N158 1.356 1_654 S
C151 C150 1.363 1_455 S
C151 C157 1.363 . S
C152 C153 1.363 1_455 S
C152 C157 1.379 . S
C152 N159 1.356 1_455 S
C153 C152 1.363 1_655 S
C153 C156 1.363 . S
N154 C156 1.356 . S
N154 H166 0.984 . S
N154 H167 0.985 . S
N155 C157 1.356 . S
N155 H160 0.984 . S
N155 H161 0.985 . S
C156 C150 1.379 . S
C156 C153 1.363 . S
C156 N154 1.356 . S
C157 C151 1.363 . S
C157 C152 1.379 . S
C157 N155 1.356 . S
N158 C150 1.356 1_456 S
N158 H164 0.984 1_455 S
N158 H165 0.984 . S
N159 C152 1.356 1_655 S
N159 H162 0.984 . S
N159 H163 0.985 1_655 S
H160 N155 0.984 . S
H161 N155 0.985 . S
H162 N159 0.984 . S
H163 N159 0.985 1_455 S
H164 N158 0.984 1_655 S
H165 N158 0.984 . S
H166 N154 0.984 . S
H167 N154 0.985 . S
C168 C169 1.363 . S
C168 C174 1.379 1_545 S
C168 N176 1.356 . S
C169 C168 1.363 . S
C169 C175 1.363 . S
C170 C171 1.363 . S
C170 C175 1.379 1_565 S
C170 N177 1.356 . S
C171 C170 1.363 . S
C171 C174 1.363 . S
N172 C174 1.356 . S
N172 H184 0.984 . S
N172 H185 0.985 . S
N173 C175 1.356 . S
N173 H178 0.984 . S
N173 H179 0.985 . S
C174 C168 1.379 1_565 S
C174 C171 1.363 . S
C174 N172 1.356 . S
C175 C169 1.363 . S
C175 C170 1.379 1_545 S
C175 N173 1.356 . S
N176 C168 1.356 . S
N176 H182 0.984 . S
N176 H183 0.984 . S
N177 C170 1.356 . S
N177 H180 0.984 . S
N177 H181 0.985 . S
H178 N173 0.984 . S
H179 N173 0.985 . S
H180 N177 0.984 . S
H181 N177 0.985 . S
H182 N176 0.984 . S
H183 N176 0.984 . S
H184 N172 0.984 . S
H185 N172 0.985 . S
C186 C187 1.363 . S
C186 C192 1.379 . S
C186 N194 1.356 . S
C187 C186 1.363 . S
C187 C193 1.363 . S
C188 C189 1.363 . S
C188 C193 1.379 . S
C188 N195 1.356 . S
C189 C188 1.363 . S
C189 C192 1.363 . S
N190 C192 1.356 . S
N190 H202 0.984 . S
N190 H203 0.985 1_556 S
N191 C193 1.356 . S
N191 H196 0.984 . S
N191 H197 0.985 . S
C192 C186 1.379 . S
C192 C189 1.363 . S
C192 N190 1.356 . S
C193 C187 1.363 . S
C193 C188 1.379 . S
C193 N191 1.356 . S
N194 C186 1.356 . S
N194 H200 0.984 . S
N194 H201 0.984 . S
N195 C188 1.356 . S
N195 H198 0.984 . S
N195 H199 0.985 . S
H196 N191 0.984 . S
H197 N191 0.985 . S
H198 N195 0.984 . S
H199 N195 0.985 . S
H200 N194 0.984 . S
H201 N194 0.984 . S
H202 N190 0.984 . S
H203 N190 0.985 1_554 S
C204 C205 1.363 . S
C204 C210 1.379 1_455 S
C204 N212 1.356 . S
C205 C204 1.363 . S
C205 C211 1.363 . S
C206 C207 1.363 . S
C206 C211 1.379 1_655 S
C206 N213 1.356 . S
C207 C206 1.363 . S
C207 C210 1.363 . S
N208 C210 1.356 . S
N208 H220 0.984 . S
N208 H221 0.985 . S
N209 C211 1.356 . S
N209 H214 0.984 . S
N209 H215 0.985 . S
C210 C204 1.379 1_655 S
C210 C207 1.363 . S
C210 N208 1.356 . S
C211 C205 1.363 . S
C211 C206 1.379 1_455 S
C211 N209 1.356 . S
N212 C204 1.356 . S
N212 H218 0.984 . S
N212 H219 0.984 . S
N213 C206 1.356 . S
N213 H216 0.984 . S
N213 H217 0.985 . S
H214 N209 0.984 . S
H215 N209 0.985 . S
H216 N213 0.984 . S
H217 N213 0.985 . S
H218 N212 0.984 . S
H219 N212 0.984 . S
H220 N208 0.984 . S
H221 N208 0.985 . S
C222 C223 1.363 . S
C222 C228 1.379 1_545 S
C222 N230 1.356 . S
C223 C222 1.363 . S
C223 C229 1.363 . S
C224 C225 1.363 . S
C224 C229 1.379 1_565 S
C224 N231 1.356 . S
C225 C224 1.363 . S
C225 C228 1.363 . S
N226 C228 1.356 . S
N226 H238 0.984 . S
N226 H239 0.985 . S
N227 C229 1.356 . S
N227 H232 0.984 . S
N227 H233 0.985 . S
C228 C222 1.379 1_565 S
C228 C225 1.363 . S
C228 N226 1.356 . S
C229 C223 1.363 . S
C229 C224 1.379 1_545 S
C229 N227 1.356 . S
N230 C222 1.356 . S
N230 H236 0.984 . S
N230 H237 0.984 . S
N231 C224 1.356 . S
N231 H234 0.984 . S
N231 H235 0.985 . S
H232 N227 0.984 . S
H233 N227 0.985 . S
H234 N231 0.984 . S
H235 N231 0.985 . S
H236 N230 0.984 . S
H237 N230 0.984 . S
H238 N226 0.984 . S
H239 N226 0.985 . S
C240 C241 1.363 . S
C240 C246 1.379 . S
C240 N248 1.356 . S
C241 C240 1.363 . S
C241 C247 1.363 . S
C242 C243 1.363 . S
C242 C247 1.379 . S
C242 N249 1.356 . S
C243 C242 1.363 . S
C243 C246 1.363 . S
N244 C246 1.356 . S
N244 H256 0.984 . S
N244 H257 0.985 . S
N245 C247 1.356 . S
N245 H250 0.984 . S
N245 H251 0.985 . S
C246 C240 1.379 . S
C246 C243 1.363 . S
C246 N244 1.356 . S
C247 C241 1.363 . S
C247 C242 1.379 . S
C247 N245 1.356 . S
N248 C240 1.356 . S
N248 H254 0.984 . S
N248 H255 0.984 . S
N249 C242 1.356 . S
N249 H252 0.984 . S
N249 H253 0.985 . S
H250 N245 0.984 . S
H251 N245 0.985 . S
H252 N249 0.984 . S
H253 N249 0.985 . S
H254 N248 0.984 . S
H255 N248 0.984 . S
H256 N244 0.984 . S
H257 N244 0.985 . S
C258 C259 1.363 . S
C258 C264 1.379 . S
C258 N266 1.356 . S
C259 C258 1.363 . S
C259 C265 1.363 . S
C260 C261 1.363 . S
C260 C265 1.379 . S
C260 N267 1.356 . S
C261 C260 1.363 . S
C261 C264 1.363 . S
N262 C264 1.356 . S
N262 H274 0.984 . S
N262 H275 0.985 . S
N263 C265 1.356 . S
N263 H268 0.984 1_556 S
N263 H269 0.985 . S
C264 C258 1.379 . S
C264 C261 1.363 . S
C264 N262 1.356 . S
C265 C259 1.363 . S
C265 C260 1.379 . S
C265 N263 1.356 . S
N266 C258 1.356 . S
N266 H272 0.984 . S
N266 H273 0.984 1_556 S
N267 C260 1.356 . S
N267 H270 0.984 . S
N267 H271 0.985 . S
H268 N263 0.984 1_554 S
H269 N263 0.985 . S
H270 N267 0.984 . S
H271 N267 0.985 . S
H272 N266 0.984 . S
H273 N266 0.984 1_554 S
H274 N262 0.984 . S
H275 N262 0.985 . S
C276 C277 1.363 . S
C276 C282 1.379 . S
C276 N284 1.356 . S
C277 C276 1.363 . S
C277 C283 1.363 . S
C278 C279 1.363 . S
C278 C283 1.379 . S
C278 N285 1.356 . S
C279 C278 1.363 . S
C279 C282 1.363 . S
N280 C282 1.356 1_556 S
N280 H292 0.984 1_556 S
N280 H293 0.985 . S
N281 C283 1.356 . S
N281 H286 0.984 . S
N281 H287 0.985 . S
C282 C276 1.379 . S
C282 C279 1.363 . S
C282 N280 1.356 1_554 S
C283 C277 1.363 . S
C283 C278 1.379 . S
C283 N281 1.356 . S
N284 C276 1.356 . S
N284 H290 0.984 . S
N284 H291 0.984 . S
N285 C278 1.356 . S
N285 H288 0.984 1_554 S
N285 H289 0.985 . S
H286 N281 0.984 . S
H287 N281 0.985 . S
H288 N285 0.984 1_556 S
H289 N285 0.985 . S
H290 N284 0.984 . S
H291 N284 0.984 . S
H292 N280 0.984 1_554 S
H293 N280 0.985 . S
C294 C295 1.363 . S
C294 C300 1.379 . S
C294 N302 1.356 . S
C295 C294 1.363 . S
C295 C301 1.363 . S
C296 C297 1.363 . S
C296 C301 1.379 . S
C296 N303 1.356 . S
C297 C296 1.363 . S
C297 C300 1.363 . S
N298 C300 1.356 . S
N298 H310 0.984 . S
N298 H311 0.985 . S
N299 C301 1.356 . S
N299 H304 0.984 . S
N299 H305 0.985 . S
C300 C294 1.379 . S
C300 C297 1.363 . S
C300 N298 1.356 . S
C301 C295 1.363 . S
C301 C296 1.379 . S
C301 N299 1.356 . S
N302 C294 1.356 . S
N302 H308 0.984 . S
N302 H309 0.984 . S
N303 C296 1.356 . S
N303 H306 0.984 . S
N303 H307 0.985 . S
H304 N299 0.984 . S
H305 N299 0.985 . S
H306 N303 0.984 . S
H307 N303 0.985 . S
H308 N302 0.984 . S
H309 N302 0.984 . S
H310 N298 0.984 . S
H311 N298 0.985 . S
C312 C313 1.363 . S
C312 C318 1.379 . S
C312 N320 1.356 . S
C313 C312 1.363 . S
C313 C319 1.363 . S
C314 C315 1.363 . S
C314 C319 1.379 . S
C314 N321 1.356 . S
C315 C314 1.363 . S
C315 C318 1.363 . S
N316 C318 1.356 1_554 S
N316 H328 0.984 . S
N316 H329 0.985 . S
N317 C319 1.356 . S
N317 H322 0.984 . S
N317 H323 0.985 . S
C318 C312 1.379 . S
C318 C315 1.363 . S
C318 N316 1.356 1_556 S
C319 C313 1.363 . S
C319 C314 1.379 . S
C319 N317 1.356 . S
N320 C312 1.356 . S
N320 H326 0.984 . S
N320 H327 0.984 . S
N321 C314 1.356 . S
N321 H324 0.984 1_556 S
N321 H325 0.985 . S
H322 N317 0.984 . S
H323 N317 0.985 . S
H324 N321 0.984 1_554 S
H325 N321 0.985 . S
H326 N320 0.984 . S
H327 N320 0.984 . S
H328 N316 0.984 . S
H329 N316 0.985 . S
C330 C331 1.363 . S
C330 C336 1.379 . S
C330 N338 1.356 . S
C331 C330 1.363 . S
C331 C337 1.363 . S
C332 C333 1.363 . S
C332 C337 1.379 . S
C332 N339 1.356 1_554 S
C333 C332 1.363 . S
C333 C336 1.363 . S
N334 C336 1.356 . S
N334 H346 0.984 . S
N334 H347 0.985 1_554 S
N335 C337 1.356 . S
N335 H340 0.984 . S
N335 H341 0.985 . S
C336 C330 1.379 . S
C336 C333 1.363 . S
C336 N334 1.356 . S
C337 C331 1.363 . S
C337 C332 1.379 . S
C337 N335 1.356 . S
N338 C330 1.356 . S
N338 H344 0.984 . S
N338 H345 0.984 . S
N339 C332 1.356 1_556 S
N339 H342 0.984 . S
N339 H343 0.985 1_556 S
H340 N335 0.984 . S
H341 N335 0.985 . S
H342 N339 0.984 . S
H343 N339 0.985 1_554 S
H344 N338 0.984 . S
H345 N338 0.984 . S
H346 N334 0.984 . S
H347 N334 0.985 1_556 S
C348 C349 1.363 . S
C348 C354 1.379 . S
C348 N356 1.356 . S
C349 C348 1.363 . S
C349 C355 1.363 . S
C350 C351 1.363 . S
C350 C355 1.379 . S
C350 N357 1.356 . S
C351 C350 1.363 . S
C351 C354 1.363 . S
N352 C354 1.356 . S
N352 H364 0.984 . S
N352 H365 0.985 . S
N353 C355 1.356 . S
N353 H358 0.984 . S
N353 H359 0.985 1_554 S
C354 C348 1.379 . S
C354 C351 1.363 . S
C354 N352 1.356 . S
C355 C349 1.363 . S
C355 C350 1.379 . S
C355 N353 1.356 . S
N356 C348 1.356 . S
N356 H362 0.984 . S
N356 H363 0.984 . S
N357 C350 1.356 . S
N357 H360 0.984 . S
N357 H361 0.985 1_554 S
H358 N353 0.984 . S
H359 N353 0.985 1_556 S
H360 N357 0.984 . S
H361 N357 0.985 1_556 S
H362 N356 0.984 . S
H363 N356 0.984 . S
H364 N352 0.984 . S
H365 N352 0.985 . S
C366 C367 1.363 . S
C366 C372 1.379 . S
C366 N374 1.356 . S
C367 C366 1.363 . S
C367 C373 1.363 . S
C368 C369 1.363 . S
C368 C373 1.379 . S
C368 N375 1.356 . S
C369 C368 1.363 . S
C369 C372 1.363 . S
N370 C372 1.356 . S
N370 H382 0.984 . S
N370 H383 0.985 . S
N371 C373 1.356 . S
N371 H376 0.984 . S
N371 H377 0.985 . S
C372 C366 1.379 . S
C372 C369 1.363 . S
C372 N370 1.356 . S
C373 C367 1.363 . S
C373 C368 1.379 . S
C373 N371 1.356 . S
N374 C366 1.356 . S
N374 H380 0.984 . S
N374 H381 0.984 . S
N375 C368 1.356 . S
N375 H378 0.984 . S
N375 H379 0.985 . S
H376 N371 0.984 . S
H377 N371 0.985 . S
H378 N375 0.984 . S
H379 N375 0.985 . S
H380 N374 0.984 . S
H381 N374 0.984 . S
H382 N370 0.984 . S
H383 N370 0.985 . S
C384 C385 1.363 . S
C384 C390 1.379 . S
C384 N392 1.356 . S
C385 C384 1.363 . S
C385 C391 1.363 . S
C386 C387 1.363 . S
C386 C391 1.379 . S
C386 N393 1.356 . S
C387 C386 1.363 . S
C387 C390 1.363 . S
N388 C390 1.356 . S
N388 H400 0.984 1_556 S
N388 H401 0.985 . S
N389 C391 1.356 . S
N389 H394 0.984 . S
N389 H395 0.985 . S
C390 C384 1.379 . S
C390 C387 1.363 . S
C390 N388 1.356 . S
C391 C385 1.363 . S
C391 C386 1.379 . S
C391 N389 1.356 . S
N392 C384 1.356 . S
N392 H398 0.984 1_556 S
N392 H399 0.984 . S
N393 C386 1.356 . S
N393 H396 0.984 . S
N393 H397 0.985 . S
H394 N389 0.984 . S
H395 N389 0.985 . S
H396 N393 0.984 . S
H397 N393 0.985 . S
H398 N392 0.984 1_554 S
H399 N392 0.984 . S
H400 N388 0.984 1_554 S
H401 N388 0.985 . S
C402 C403 1.363 . S
C402 C408 1.379 . S
C402 N410 1.356 . S
C403 C402 1.363 . S
C403 C409 1.363 . S
C404 C405 1.363 . S
C404 C409 1.379 . S
C404 N411 1.356 . S
C405 C404 1.363 . S
C405 C408 1.363 . S
N406 C408 1.356 . S
N406 H418 0.984 1_554 S
N406 H419 0.985 . S
N407 C409 1.356 . S
N407 H412 0.984 . S
N407 H413 0.985 . S
C408 C402 1.379 . S
C408 C405 1.363 . S
C408 N406 1.356 . S
C409 C403 1.363 . S
C409 C404 1.379 . S
C409 N407 1.356 . S
N410 C402 1.356 . S
N410 H416 0.984 1_554 S
N410 H417 0.984 . S
N411 C404 1.356 . S
N411 H414 0.984 . S
N411 H415 0.985 . S
H412 N407 0.984 . S
H413 N407 0.985 . S
H414 N411 0.984 . S
H415 N411 0.985 . S
H416 N410 0.984 1_556 S
H417 N410 0.984 . S
H418 N406 0.984 1_556 S
H419 N406 0.985 . S
C420 C421 1.363 . S
C420 C426 1.379 . S
C420 N428 1.356 . S
C421 C420 1.363 . S
C421 C427 1.363 . S
C422 C423 1.363 . S
C422 C427 1.379 . S
C422 N429 1.356 . S
C423 C422 1.363 . S
C423 C426 1.363 . S
N424 C426 1.356 . S
N424 H436 0.984 . S
N424 H437 0.985 . S
N425 C427 1.356 . S
N425 H430 0.984 . S
N425 H431 0.985 . S
C426 C420 1.379 . S
C426 C423 1.363 . S
C426 N424 1.356 . S
C427 C421 1.363 . S
C427 C422 1.379 . S
C427 N425 1.356 . S
N428 C420 1.356 . S
N428 H434 0.984 . S
N428 H435 0.984 . S
N429 C422 1.356 . S
N429 H432 0.984 . S
N429 H433 0.985 . S
H430 N425 0.984 . S
H431 N425 0.985 . S
H432 N429 0.984 . S
H433 N429 0.985 . S
H434 N428 0.984 . S
H435 N428 0.984 . S
H436 N424 0.984 . S
H437 N424 0.985 . S
C438 C439 1.363 . S
C438 C444 1.379 . S
C438 N446 1.356 . S
C439 C438 1.363 . S
C439 C445 1.363 . S
C440 C441 1.363 . S
C440 C445 1.379 . S
C440 N447 1.356 . S
C441 C440 1.363 . S
C441 C444 1.363 . S
N442 C444 1.356 . S
N442 H454 0.984 . S
N442 H455 0.985 . S
N443 C445 1.356 . S
N443 H448 0.984 . S
N443 H449 0.985 1_556 S
C444 C438 1.379 . S
C444 C441 1.363 . S
C444 N442 1.356 . S
C445 C439 1.363 . S
C445 C440 1.379 . S
C445 N443 1.356 . S
N446 C438 1.356 . S
N446 H452 0.984 . S
N446 H453 0.984 . S
N447 C440 1.356 . S
N447 H450 0.984 . S
N447 H451 0.985 1_556 S
H448 N443 0.984 . S
H449 N443 0.985 1_554 S
H450 N447 0.984 . S
H451 N447 0.985 1_554 S
H452 N446 0.984 . S
H453 N446 0.984 . S
H454 N442 0.984 . S
H455 N442 0.985 . S
C133 C114 1.748 . S
C135 C5 1.748 . S
C151 C8 1.748 . S
C153 C31 1.748 . S
C169 C26 1.748 . S
C171 C49 1.748 . S
C187 C52 1.748 . S
C189 C75 1.748 . S
C205 C93 1.748 . S
C207 C70 1.748 . S
C223 C119 1.748 . S
C225 C96 1.748 . S
C241 C4 1.401 . S
C243 C7 1.401 . S
C259 C30 1.401 1_556 S
C261 C28 1.401 . S
C277 C48 1.401 . S
C279 C51 1.401 1_554 S
C295 C74 1.401 . S
C297 C72 1.401 . S
C313 C95 1.401 . S
C315 C92 1.401 1_556 S
C331 C118 1.401 . S
C333 C116 1.401 1_554 S
C349 C9 1.310 . S
C351 C94 1.310 . S
C367 C27 1.310 . S
C369 C117 1.310 . S
C385 C6 1.309 . S
C387 C53 1.309 . S
C403 C29 1.310 . S
C405 C71 1.310 . S
C421 C97 1.309 . S
C423 C50 1.309 . S
C439 C73 1.309 . S
C441 C115 1.309 . S
