# Generated by pormake.
# Topology uoe, (4)-cn, num edge types: 1
# Building blocks:
#     Node 0, Type 0, BuildingBlock: MUDLON_clean_sbu_0, # of connection points: 4
#     Node 1, Type 0, BuildingBlock: MUDLON_clean_sbu_0, # of connection points: 4
#     Node 2, Type 0, BuildingBlock: MUDLON_clean_sbu_0, # of connection points: 4
#     Node 3, Type 0, BuildingBlock: MUDLON_clean_sbu_0, # of connection points: 4
#     Node 4, Type 0, BuildingBlock: MUDLON_clean_sbu_0, # of connection points: 4
#     Node 5, Type 0, BuildingBlock: MUDLON_clean_sbu_0, # of connection points: 4
#     Node 6, Type 0, BuildingBlock: MUDLON_clean_sbu_0, # of connection points: 4
#     Node 7, Type 0, BuildingBlock: MUDLON_clean_sbu_0, # of connection points: 4
#     Node 8, Type 0, BuildingBlock: MUDLON_clean_sbu_0, # of connection points: 4
#     Node 9, Type 0, BuildingBlock: MUDLON_clean_sbu_0, # of connection points: 4
#     Node 10, Type 0, BuildingBlock: MUDLON_clean_sbu_0, # of connection points: 4
#     Node 11, Type 0, BuildingBlock: MUDLON_clean_sbu_0, # of connection points: 4
#     Node 12, Type 0, BuildingBlock: MUDLON_clean_sbu_0, # of connection points: 4
#     Node 13, Type 0, BuildingBlock: MUDLON_clean_sbu_0, # of connection points: 4
#     Node 14, Type 0, BuildingBlock: MUDLON_clean_sbu_0, # of connection points: 4
#     Node 15, Type 0, BuildingBlock: MUDLON_clean_sbu_0, # of connection points: 4
#     Node 16, Type 0, BuildingBlock: MUDLON_clean_sbu_0, # of connection points: 4
#     Node 17, Type 0, BuildingBlock: MUDLON_clean_sbu_0, # of connection points: 4
#     Node 18, Type 0, BuildingBlock: MUDLON_clean_sbu_0, # of connection points: 4
#     Node 19, Type 0, BuildingBlock: MUDLON_clean_sbu_0, # of connection points: 4
#     Node 20, Type 0, BuildingBlock: MUDLON_clean_sbu_0, # of connection points: 4
#     Node 21, Type 0, BuildingBlock: MUDLON_clean_sbu_0, # of connection points: 4
#     Node 22, Type 0, BuildingBlock: MUDLON_clean_sbu_0, # of connection points: 4
#     Node 23, Type 0, BuildingBlock: MUDLON_clean_sbu_0, # of connection points: 4
#     Node 24, Type 0, BuildingBlock: MUDLON_clean_sbu_0, # of connection points: 4
#     Node 25, Type 0, BuildingBlock: MUDLON_clean_sbu_0, # of connection points: 4
#     Node 26, Type 0, BuildingBlock: MUDLON_clean_sbu_0, # of connection points: 4
#     Node 27, Type 0, BuildingBlock: MUDLON_clean_sbu_0, # of connection points: 4
#     Node 28, Type 0, BuildingBlock: MUDLON_clean_sbu_0, # of connection points: 4
#     Node 29, Type 0, BuildingBlock: MUDLON_clean_sbu_0, # of connection points: 4
#     Node 30, Type 0, BuildingBlock: MUDLON_clean_sbu_0, # of connection points: 4
#     Node 31, Type 0, BuildingBlock: MUDLON_clean_sbu_0, # of connection points: 4
#     Edge 32, Type (0, 0), BuildingBlock: XIVTED_clean_linker_0, # of connection points: 2
#     Edge 33, Type (0, 0), BuildingBlock: XIVTED_clean_linker_0, # of connection points: 2
#     Edge 34, Type (0, 0), BuildingBlock: XIVTED_clean_linker_0, # of connection points: 2
#     Edge 35, Type (0, 0), BuildingBlock: XIVTED_clean_linker_0, # of connection points: 2
#     Edge 36, Type (0, 0), BuildingBlock: XIVTED_clean_linker_0, # of connection points: 2
#     Edge 37, Type (0, 0), BuildingBlock: XIVTED_clean_linker_0, # of connection points: 2
#     Edge 38, Type (0, 0), BuildingBlock: XIVTED_clean_linker_0, # of connection points: 2
#     Edge 39, Type (0, 0), BuildingBlock: XIVTED_clean_linker_0, # of connection points: 2
#     Edge 40, Type (0, 0), BuildingBlock: XIVTED_clean_linker_0, # of connection points: 2
#     Edge 41, Type (0, 0), BuildingBlock: XIVTED_clean_linker_0, # of connection points: 2
#     Edge 42, Type (0, 0), BuildingBlock: XIVTED_clean_linker_0, # of connection points: 2
#     Edge 43, Type (0, 0), BuildingBlock: XIVTED_clean_linker_0, # of connection points: 2
#     Edge 44, Type (0, 0), BuildingBlock: XIVTED_clean_linker_0, # of connection points: 2
#     Edge 45, Type (0, 0), BuildingBlock: XIVTED_clean_linker_0, # of connection points: 2
#     Edge 46, Type (0, 0), BuildingBlock: XIVTED_clean_linker_0, # of connection points: 2
#     Edge 47, Type (0, 0), BuildingBlock: XIVTED_clean_linker_0, # of connection points: 2
#     Edge 48, Type (0, 0), BuildingBlock: XIVTED_clean_linker_0, # of connection points: 2
#     Edge 49, Type (0, 0), BuildingBlock: XIVTED_clean_linker_0, # of connection points: 2
#     Edge 50, Type (0, 0), BuildingBlock: XIVTED_clean_linker_0, # of connection points: 2
#     Edge 51, Type (0, 0), BuildingBlock: XIVTED_clean_linker_0, # of connection points: 2
#     Edge 52, Type (0, 0), BuildingBlock: XIVTED_clean_linker_0, # of connection points: 2
#     Edge 53, Type (0, 0), BuildingBlock: XIVTED_clean_linker_0, # of connection points: 2
#     Edge 54, Type (0, 0), BuildingBlock: XIVTED_clean_linker_0, # of connection points: 2
#     Edge 55, Type (0, 0), BuildingBlock: XIVTED_clean_linker_0, # of connection points: 2
#     Edge 56, Type (0, 0), BuildingBlock: XIVTED_clean_linker_0, # of connection points: 2
#     Edge 57, Type (0, 0), BuildingBlock: XIVTED_clean_linker_0, # of connection points: 2
#     Edge 58, Type (0, 0), BuildingBlock: XIVTED_clean_linker_0, # of connection points: 2
#     Edge 59, Type (0, 0), BuildingBlock: XIVTED_clean_linker_0, # of connection points: 2
#     Edge 60, Type (0, 0), BuildingBlock: XIVTED_clean_linker_0, # of connection points: 2
#     Edge 61, Type (0, 0), BuildingBlock: XIVTED_clean_linker_0, # of connection points: 2
#     Edge 62, Type (0, 0), BuildingBlock: XIVTED_clean_linker_0, # of connection points: 2
#     Edge 63, Type (0, 0), BuildingBlock: XIVTED_clean_linker_0, # of connection points: 2
#     Edge 64, Type (0, 0), BuildingBlock: XIVTED_clean_linker_0, # of connection points: 2
#     Edge 65, Type (0, 0), BuildingBlock: XIVTED_clean_linker_0, # of connection points: 2
#     Edge 66, Type (0, 0), BuildingBlock: XIVTED_clean_linker_0, # of connection points: 2
#     Edge 67, Type (0, 0), BuildingBlock: XIVTED_clean_linker_0, # of connection points: 2
#     Edge 68, Type (0, 0), BuildingBlock: XIVTED_clean_linker_0, # of connection points: 2
#     Edge 69, Type (0, 0), BuildingBlock: XIVTED_clean_linker_0, # of connection points: 2
#     Edge 70, Type (0, 0), BuildingBlock: XIVTED_clean_linker_0, # of connection points: 2
#     Edge 71, Type (0, 0), BuildingBlock: XIVTED_clean_linker_0, # of connection points: 2
#     Edge 72, Type (0, 0), BuildingBlock: XIVTED_clean_linker_0, # of connection points: 2
#     Edge 73, Type (0, 0), BuildingBlock: XIVTED_clean_linker_0, # of connection points: 2
#     Edge 74, Type (0, 0), BuildingBlock: XIVTED_clean_linker_0, # of connection points: 2
#     Edge 75, Type (0, 0), BuildingBlock: XIVTED_clean_linker_0, # of connection points: 2
#     Edge 76, Type (0, 0), BuildingBlock: XIVTED_clean_linker_0, # of connection points: 2
#     Edge 77, Type (0, 0), BuildingBlock: XIVTED_clean_linker_0, # of connection points: 2
#     Edge 78, Type (0, 0), BuildingBlock: XIVTED_clean_linker_0, # of connection points: 2
#     Edge 79, Type (0, 0), BuildingBlock: XIVTED_clean_linker_0, # of connection points: 2
#     Edge 80, Type (0, 0), BuildingBlock: XIVTED_clean_linker_0, # of connection points: 2
#     Edge 81, Type (0, 0), BuildingBlock: XIVTED_clean_linker_0, # of connection points: 2
#     Edge 82, Type (0, 0), BuildingBlock: XIVTED_clean_linker_0, # of connection points: 2
#     Edge 83, Type (0, 0), BuildingBlock: XIVTED_clean_linker_0, # of connection points: 2
#     Edge 84, Type (0, 0), BuildingBlock: XIVTED_clean_linker_0, # of connection points: 2
#     Edge 85, Type (0, 0), BuildingBlock: XIVTED_clean_linker_0, # of connection points: 2
#     Edge 86, Type (0, 0), BuildingBlock: XIVTED_clean_linker_0, # of connection points: 2
#     Edge 87, Type (0, 0), BuildingBlock: XIVTED_clean_linker_0, # of connection points: 2
#     Edge 88, Type (0, 0), BuildingBlock: XIVTED_clean_linker_0, # of connection points: 2
#     Edge 89, Type (0, 0), BuildingBlock: XIVTED_clean_linker_0, # of connection points: 2
#     Edge 90, Type (0, 0), BuildingBlock: XIVTED_clean_linker_0, # of connection points: 2
#     Edge 91, Type (0, 0), BuildingBlock: XIVTED_clean_linker_0, # of connection points: 2
#     Edge 92, Type (0, 0), BuildingBlock: XIVTED_clean_linker_0, # of connection points: 2
#     Edge 93, Type (0, 0), BuildingBlock: XIVTED_clean_linker_0, # of connection points: 2
#     Edge 94, Type (0, 0), BuildingBlock: XIVTED_clean_linker_0, # of connection points: 2
#     Edge 95, Type (0, 0), BuildingBlock: XIVTED_clean_linker_0, # of connection points: 2
# Relax obj value: 0.172
# Max RMSD: 0.258
# Mean RMSD: 0.258
data_MOF--net-uoe--node1-MUDLON_clean_sbu_0--edge1-XIVTED_clean_linker_0
_symmetry_space_group_name_H-M    P1
_symmetry_Int_Tables_number       1
_symmetry_cell_setting            triclinic
loop_
_symmetry_equiv_pos_as_xyz
'x, y, z'
_cell_length_a     78.125538
_cell_length_b     78.099331
_cell_length_c     29.125706
_cell_angle_alpha  89.925107
_cell_angle_beta   90.004969
_cell_angle_gamma 90.062727
loop_
_atom_site_label
_atom_site_type_symbol
_atom_site_fract_x
_atom_site_fract_y
_atom_site_fract_z
_atom_type_partial_charge
Mg0 Mg 0.09536 0.465 0.07544 0.0
C1 C 0.10204 0.47074 0.17294 0.0
O2 O 0.09345 0.45628 0.17233 0.0
C3 C 0.10499 0.46664 0.97507 0.0
O4 O 0.09658 0.45206 0.9751 0.0
C5 C 0.11584 0.43244 0.085 0.0
O6 O 0.12654 0.44127 0.05947 0.0
O7 O 0.10094 0.4384 0.09213 0.0
O8 O 0.10515 0.47827 0.13512 0.0
O9 O 0.06816 0.47101 0.07106 0.0
C10 C 0.06319 0.48504 0.08882 0.0
O11 O 0.07442 0.49473 0.11004 0.0
O12 O 0.10723 0.47444 0.01289 0.0
Mg13 Mg 0.78945 0.8474 0.3159 0.0
C14 C 0.77059 0.81494 0.32128 0.0
O15 O 0.75875 0.82671 0.32637 0.0
C16 C 0.81392 0.87321 0.34232 0.0
O17 O 0.79998 0.88131 0.32946 0.0
C18 C 0.76718 0.85898 0.2344 0.0
O19 O 0.75467 0.85681 0.26397 0.0
O20 O 0.78254 0.85671 0.24759 0.0
O21 O 0.78607 0.8197 0.3161 0.0
O22 O 0.77369 0.85632 0.37275 0.0
C23 C 0.781 0.85367 0.4112 0.0
O24 O 0.79604 0.84617 0.41151 0.0
O25 O 0.81458 0.8571 0.33603 0.0
Mg26 Mg 0.40556 0.5364 0.5597 0.0
C27 C 0.3858 0.52552 0.64464 0.0
O28 O 0.37695 0.53935 0.63509 0.0
C29 C 0.39446 0.53393 0.45967 0.0
O30 O 0.39827 0.55032 0.46033 0.0
C31 C 0.39995 0.56981 0.60974 0.0
O32 O 0.41247 0.56355 0.63475 0.0
O33 O 0.3955 0.56187 0.57348 0.0
O34 O 0.39769 0.52083 0.61763 0.0
O35 O 0.43336 0.53456 0.5561 0.0
C36 C 0.44171 0.52886 0.59038 0.0
O37 O 0.43356 0.52594 0.62906 0.0
O38 O 0.39568 0.52531 0.49658 0.0
Mg39 Mg 0.72627 0.15831 0.81494 0.0
C40 C 0.73103 0.19635 0.83978 0.0
O41 O 0.72397 0.19167 0.87878 0.0
C42 C 0.69114 0.14217 0.83141 0.0
O43 O 0.69505 0.13355 0.79416 0.0
C44 C 0.7446 0.14638 0.72999 0.0
O45 O 0.75762 0.15096 0.75581 0.0
O46 O 0.72959 0.14712 0.74682 0.0
O47 O 0.73282 0.18534 0.80801 0.0
O48 O 0.74226 0.14712 0.86835 0.0
C49 C 0.75356 0.15612 0.88845 0.0
O50 O 0.7579 0.17094 0.87054 0.0
O51 O 0.70101 0.15415 0.84457 0.0
Mg52 Mg 0.10105 0.53342 0.57574 0.0
C53 C 0.10877 0.52654 0.478 0.0
O54 O 0.10575 0.54306 0.47769 0.0
C55 C 0.11136 0.52813 0.67535 0.0
O56 O 0.10947 0.54484 0.67623 0.0
C57 C 0.10811 0.57106 0.54655 0.0
O58 O 0.09152 0.572 0.53976 0.0
O59 O 0.11435 0.55768 0.5651 0.0
O60 O 0.1079 0.51845 0.51584 0.0
O61 O 0.0732 0.53312 0.57605 0.0
C62 C 0.06743 0.51788 0.5782 0.0
O63 O 0.07845 0.5052 0.58059 0.0
O64 O 0.1093 0.52023 0.63761 0.0
Mg65 Mg 0.71914 0.84935 0.81603 0.0
C66 C 0.73746 0.81654 0.80977 0.0
O67 O 0.74936 0.82808 0.80209 0.0
C68 C 0.69468 0.87432 0.78211 0.0
O69 O 0.70931 0.88252 0.78592 0.0
C70 C 0.742 0.85983 0.89712 0.0
O71 O 0.75431 0.85635 0.8679 0.0
O72 O 0.72652 0.85884 0.88377 0.0
O73 O 0.72219 0.82158 0.817 0.0
O74 O 0.73472 0.85762 0.75803 0.0
C75 C 0.72752 0.85394 0.72006 0.0
O76 O 0.71275 0.84588 0.72097 0.0
O77 O 0.69384 0.85896 0.79664 0.0
Mg78 Mg 0.40551 0.47382 0.05638 0.0
C79 C 0.3977 0.47637 0.95801 0.0
O80 O 0.40481 0.46122 0.96223 0.0
C81 C 0.39502 0.47595 0.15532 0.0
O82 O 0.40253 0.4609 0.15492 0.0
C83 C 0.38526 0.44108 0.05401 0.0
O84 O 0.37449 0.45092 0.07637 0.0
O85 O 0.40025 0.44667 0.04586 0.0
O86 O 0.39604 0.48564 0.99364 0.0
O87 O 0.43249 0.48048 0.06313 0.0
C88 C 0.4423 0.4829 0.02889 0.0
O89 O 0.43655 0.47982 0.98735 0.0
O90 O 0.39343 0.48408 0.11771 0.0
Mg91 Mg 0.78612 0.15813 0.30935 0.0
C92 C 0.76828 0.1913 0.31082 0.0
O93 O 0.756 0.18022 0.30254 0.0
C94 C 0.8152 0.13431 0.29433 0.0
O95 O 0.80462 0.12492 0.31883 0.0
C96 C 0.76383 0.14617 0.39068 0.0
O97 O 0.7512 0.15054 0.36333 0.0
O98 O 0.77913 0.1471 0.37588 0.0
O99 O 0.7835 0.18578 0.31577 0.0
O100 O 0.77024 0.15205 0.25014 0.0
C101 C 0.77231 0.13895 0.22484 0.0
O102 O 0.78216 0.12643 0.23919 0.0
O103 O 0.81157 0.14999 0.28787 0.0
Mg104 Mg 0.90757 0.53773 0.07841 0.0
C105 C 0.9434 0.52915 0.04879 0.0
O106 O 0.93473 0.52411 0.01262 0.0
C107 C 0.90145 0.57048 0.02511 0.0
O108 O 0.91467 0.56468 1.00204 0.0
C109 C 0.89903 0.53638 0.17972 0.0
O110 O 0.90495 0.55211 0.1775 0.0
O111 O 0.89804 0.52761 0.14307 0.0
O112 O 0.93548 0.53666 0.08124 0.0
O113 O 0.90026 0.52096 0.02261 0.0
C114 C 0.88879 0.52481 0.99343 0.0
O115 O 0.87923 0.53839 1.0003 0.0
O116 O 0.8967 0.56256 0.06116 0.0
Mg117 Mg 0.22521 0.15595 0.81573 0.0
C118 C 0.24189 0.13525 0.73621 0.0
O119 O 0.23558 0.12165 0.7566 0.0
C120 C 0.24781 0.1476 0.89916 0.0
O121 O 0.2596 0.15502 0.87385 0.0
C122 C 0.19726 0.13087 0.80022 0.0
O123 O 0.20884 0.12156 0.82134 0.0
O124 O 0.19981 0.14688 0.79624 0.0
O125 O 0.24067 0.14979 0.7556 0.0
O126 O 0.22687 0.18375 0.82104 0.0
C127 C 0.24143 0.19018 0.81157 0.0
O128 O 0.25388 0.17988 0.79918 0.0
O129 O 0.23291 0.14543 0.88242 0.0
Mg130 Mg 0.59628 0.47249 0.56997 0.0
C131 C 0.56013 0.48175 0.54475 0.0
O132 O 0.56757 0.48299 0.50443 0.0
C133 C 0.61612 0.43906 0.55757 0.0
O134 O 0.62536 0.44528 0.59137 0.0
C135 C 0.60684 0.47175 0.66993 0.0
O136 O 0.59821 0.45731 0.6684 0.0
O137 O 0.60884 0.4803 0.63315 0.0
O138 O 0.56888 0.47651 0.57885 0.0
O139 O 0.60326 0.4893 0.51393 0.0
C140 C 0.61413 0.48477 0.48386 0.0
O141 O 0.62308 0.47076 0.49052 0.0
O142 O 0.60273 0.44703 0.54499 0.0
Mg143 Mg 0.28848 0.84769 0.31655 0.0
C144 C 0.2803 0.85204 0.22021 0.0
O145 O 0.29528 0.84443 0.2214 0.0
C146 C 0.26549 0.85819 0.39749 0.0
O147 O 0.25318 0.85446 0.36844 0.0
C148 C 0.31296 0.8728 0.28293 0.0
O149 O 0.29836 0.88102 0.28691 0.0
O150 O 0.31373 0.85741 0.29725 0.0
O151 O 0.27289 0.85549 0.25804 0.0
O152 O 0.2859 0.8199 0.31862 0.0
C153 C 0.27072 0.8145 0.3118 0.0
O154 O 0.2586 0.82574 0.30369 0.0
O155 O 0.28097 0.85734 0.38406 0.0
Mg156 Mg 0.90874 0.47184 0.58018 0.0
C157 C 0.9421 0.48842 0.57198 0.0
O158 O 0.93095 0.50098 0.5702 0.0
C159 C 0.9008 0.43681 0.62163 0.0
O160 O 0.91415 0.44057 0.64711 0.0
C161 C 0.8967 0.47655 0.48278 0.0
O162 O 0.89892 0.45987 0.48331 0.0
O163 O 0.89911 0.48495 0.51959 0.0
O164 O 0.93653 0.47314 0.57568 0.0
O165 O 0.90181 0.48503 0.64293 0.0
C166 C 0.91188 0.48258 0.67657 0.0
O167 O 0.92595 0.47374 0.66982 0.0
O168 O 0.8969 0.44669 0.58842 0.0
Mg169 Mg 0.28696 0.15757 0.32533 0.0
C170 C 0.27357 0.1356 0.40303 0.0
O171 O 0.2867 0.12613 0.39105 0.0
C172 C 0.2683 0.14593 0.23856 0.0
O173 O 0.2549 0.14865 0.26478 0.0
C174 C 0.32119 0.13922 0.34068 0.0
O175 O 0.31683 0.13098 0.30315 0.0
O176 O 0.31186 0.15148 0.3546 0.0
O177 O 0.26951 0.14835 0.37807 0.0
O178 O 0.28298 0.18512 0.32281 0.0
C179 C 0.26768 0.19044 0.32722 0.0
O180 O 0.25535 0.17918 0.33285 0.0
O181 O 0.28319 0.14774 0.25566 0.0
Mg182 Mg 0.59696 0.53459 0.06604 0.0
C183 C 0.55683 0.53936 0.06812 0.0
O184 O 0.5591 0.55196 0.0973 0.0
C185 C 0.60325 0.56844 0.11378 0.0
O186 O 0.59107 0.56242 0.14033 0.0
C187 C 0.61221 0.53062 0.9714 0.0
O188 O 0.60929 0.54719 0.97094 0.0
O189 O 0.60925 0.52223 0.00798 0.0
O190 O 0.56972 0.53163 0.05144 0.0
O191 O 0.60312 0.52119 0.12936 0.0
C192 C 0.59207 0.52132 0.16136 0.0
O193 O 0.57695 0.52795 0.15326 0.0
O194 O 0.60714 0.56027 0.07743 0.0
Mg195 Mg 0.2173 0.84714 0.81601 0.0
C196 C 0.22556 0.85162 0.91209 0.0
O197 O 0.21069 0.84377 0.91099 0.0
C198 C 0.24012 0.85796 0.73474 0.0
O199 O 0.25254 0.85482 0.76398 0.0
C200 C 0.19276 0.87207 0.84956 0.0
O201 O 0.20735 0.88034 0.84574 0.0
O202 O 0.19201 0.85671 0.83516 0.0
O203 O 0.2329 0.85521 0.87421 0.0
O204 O 0.21998 0.81938 0.81533 0.0
C205 C 0.23521 0.8141 0.8219 0.0
O206 O 0.24738 0.82546 0.82843 0.0
O207 O 0.22468 0.85659 0.74812 0.0
Mg208 Mg 0.60098 0.97344 0.55424 0.0
C209 C 0.61875 0.98552 0.6413 0.0
O210 O 0.62832 0.972 0.63381 0.0
C211 C 0.61103 0.97682 0.4538 0.0
O212 O 0.60675 0.96054 0.45376 0.0
C213 C 0.60758 0.93998 0.60389 0.0
O214 O 0.59407 0.9451 0.62695 0.0
O215 O 0.61239 0.94861 0.56909 0.0
O216 O 0.6073 0.98958 0.61226 0.0
O217 O 0.57315 0.97376 0.54958 0.0
C218 C 0.56445 0.9788 0.58394 0.0
O219 O 0.57234 0.9817 0.62299 0.0
O220 O 0.61054 0.98508 0.49136 0.0
Mg221 Mg 0.28291 0.35009 0.83043 0.0
C222 C 0.26411 0.31664 0.83373 0.0
O223 O 0.25164 0.32741 0.84263 0.0
C224 C 0.31811 0.36746 0.84521 0.0
O225 O 0.31494 0.37496 0.80572 0.0
C226 C 0.26338 0.36099 0.74548 0.0
O227 O 0.25054 0.35719 0.7728 0.0
O228 O 0.27856 0.36013 0.76121 0.0
O229 O 0.27912 0.3225 0.82707 0.0
O230 O 0.26505 0.35908 0.88245 0.0
C231 C 0.27005 0.36975 0.91264 0.0
O232 O 0.28493 0.37732 0.90733 0.0
O233 O 0.30783 0.3561 0.86004 0.0
Mg234 Mg 0.90532 0.03423 0.06329 0.0
C235 C 0.9006 0.0276 0.16121 0.0
O236 O 0.90625 0.04343 0.15967 0.0
C237 C 0.89715 0.02966 0.96321 0.0
O238 O 0.90131 0.04597 0.96347 0.0
C239 C 0.8979 0.07184 0.09289 0.0
O240 O 0.91446 0.07314 0.09999 0.0
O241 O 0.89195 0.05836 0.07426 0.0
O242 O 0.89864 0.01948 0.12377 0.0
O243 O 0.93314 0.03373 0.06266 0.0
C244 C 0.93852 0.01837 0.05988 0.0
O245 O 0.92718 0.00598 0.05699 0.0
O246 O 0.89695 0.0215 1.00098 0.0
Mg247 Mg 0.21845 0.65742 0.32618 0.0
C248 C 0.23767 0.69016 0.32814 0.0
O249 O 0.24974 0.67872 0.33469 0.0
C250 C 0.18816 0.63476 0.33951 0.0
O251 O 0.19796 0.62548 0.31264 0.0
C252 C 0.23927 0.64591 0.24248 0.0
O253 O 0.25218 0.64885 0.2703 0.0
O254 O 0.22408 0.64763 0.2575 0.0
O255 O 0.22228 0.68505 0.3234 0.0
O256 O 0.23557 0.64883 0.38084 0.0
C257 C 0.23067 0.63825 0.41146 0.0
O258 O 0.21597 0.63036 0.40633 0.0
O259 O 0.1928 0.65 0.34855 0.0
Mg260 Mg 0.59951 0.04006 0.05204 0.0
C261 C 0.60175 0.03413 0.95462 0.0
O262 O 0.59194 0.04767 0.95945 0.0
C263 C 0.6095 0.03722 0.15184 0.0
O264 O 0.60276 0.05263 0.15197 0.0
C265 C 0.62203 0.07162 0.04469 0.0
O266 O 0.63219 0.06217 0.07016 0.0
O267 O 0.60697 0.0663 0.03627 0.0
O268 O 0.60742 0.02679 0.9905 0.0
O269 O 0.57199 0.0363 0.05624 0.0
C270 C 0.56698 0.02079 0.05715 0.0
O271 O 0.57852 0.00857 0.05607 0.0
O272 O 0.61069 0.02922 0.11398 0.0
Mg273 Mg 0.21763 0.34819 0.32545 0.0
C274 C 0.23757 0.31551 0.31952 0.0
O275 O 0.24943 0.32674 0.30857 0.0
C276 C 0.184 0.36723 0.31043 0.0
O277 O 0.19073 0.378 0.33999 0.0
C278 C 0.23884 0.35916 0.40815 0.0
O279 O 0.25128 0.35401 0.38117 0.0
O280 O 0.22357 0.35908 0.39286 0.0
O281 O 0.22255 0.3208 0.32858 0.0
O282 O 0.23189 0.35787 0.26668 0.0
C283 C 0.22594 0.35116 0.23017 0.0
O284 O 0.2138 0.33959 0.23412 0.0
O285 O 0.19159 0.35316 0.30248 0.0
Mg286 Mg 0.91551 0.96574 0.56314 0.0
C287 C 0.90532 0.97053 0.46595 0.0
O288 O 0.90964 0.95428 0.46677 0.0
C289 C 0.90432 0.96914 0.66223 0.0
O290 O 0.90887 0.95295 0.6626 0.0
C291 C 0.88915 0.93972 0.55472 0.0
O292 O 0.88132 0.95336 0.57072 0.0
O293 O 0.90541 0.94001 0.55257 0.0
O294 O 0.90637 0.97923 0.50276 0.0
O295 O 0.94327 0.96909 0.56638 0.0
C296 C 0.95067 0.97802 0.53559 0.0
O297 O 0.94172 0.9833 0.50015 0.0
O298 O 0.9052 0.97749 0.6248 0.0
Mg299 Mg 0.28571 0.6565 0.823 0.0
C300 C 0.2674 0.68951 0.81894 0.0
O301 O 0.25539 0.6782 0.81018 0.0
C302 C 0.31063 0.63315 0.78337 0.0
O303 O 0.29605 0.62474 0.78362 0.0
C304 C 0.26327 0.64585 0.90489 0.0
O305 O 0.25084 0.65068 0.87744 0.0
O306 O 0.27859 0.64604 0.89004 0.0
O307 O 0.28258 0.68422 0.82628 0.0
O308 O 0.27064 0.64892 0.7634 0.0
C309 C 0.27704 0.65583 0.72765 0.0
O310 O 0.29004 0.66636 0.73278 0.0
O311 O 0.31119 0.64782 0.80236 0.0
Mg312 Mg 0.40987 0.03621 0.57017 0.0
C313 C 0.44558 0.02543 0.54412 0.0
O314 O 0.43776 0.02324 0.50463 0.0
C315 C 0.39075 0.07001 0.55734 0.0
O316 O 0.38189 0.06435 0.59258 0.0
C317 C 0.40153 0.03756 0.67124 0.0
O318 O 0.41147 0.05109 0.66813 0.0
O319 O 0.39786 0.02931 0.63492 0.0
O320 O 0.43725 0.03172 0.57763 0.0
O321 O 0.40185 0.01912 0.51583 0.0
C322 C 0.39086 0.02382 0.48618 0.0
O323 O 0.38253 0.03822 0.49245 0.0
O324 O 0.40376 0.06161 0.54403 0.0
Mg325 Mg 0.7181 0.65815 0.31584 0.0
C326 C 0.72697 0.65429 0.2202 0.0
O327 O 0.7123 0.66251 0.22108 0.0
C328 C 0.74042 0.64621 0.39678 0.0
O329 O 0.75294 0.64864 0.36735 0.0
C330 C 0.69363 0.6337 0.2791 0.0
O331 O 0.70825 0.62546 0.28177 0.0
O332 O 0.69282 0.64881 0.29533 0.0
O333 O 0.73397 0.65023 0.25817 0.0
O334 O 0.72136 0.68587 0.3178 0.0
C335 C 0.73685 0.69069 0.31325 0.0
O336 O 0.74872 0.67896 0.30773 0.0
O337 O 0.72505 0.64835 0.38357 0.0
Mg338 Mg 0.09631 0.97058 0.06158 0.0
C339 C 0.06357 0.98828 0.06926 0.0
O340 O 0.07516 1.00048 0.071 0.0
C341 C 0.10208 0.93476 0.02199 0.0
O342 O 0.08759 0.93789 1.00075 0.0
C343 C 0.11009 0.97453 0.15763 0.0
O344 O 0.10817 0.95782 0.15655 0.0
O345 O 0.10673 0.98319 0.12178 0.0
O346 O 0.0686 0.97283 0.06587 0.0
O347 O 0.10372 0.98357 0.99898 0.0
C348 C 0.09399 0.98071 0.96486 0.0
O349 O 0.08 0.97169 0.97122 0.0
O350 O 0.10732 0.9452 0.05243 0.0
Mg351 Mg 0.78166 0.35264 0.82801 0.0
C352 C 0.75578 0.34924 0.75018 0.0
O353 O 0.75479 0.33349 0.76571 0.0
C354 C 0.76103 0.36161 0.91196 0.0
O355 O 0.74937 0.35368 0.88737 0.0
C356 C 0.80614 0.37398 0.77648 0.0
O357 O 0.79139 0.38181 0.77131 0.0
O358 O 0.80675 0.36075 0.80207 0.0
O359 O 0.76428 0.36025 0.77286 0.0
O360 O 0.77907 0.3251 0.83831 0.0
C361 C 0.78298 0.31366 0.80912 0.0
O362 O 0.79032 0.31824 0.77041 0.0
O363 O 0.77579 0.36402 0.8946 0.0
Mg364 Mg 0.40878 0.97327 0.07046 0.0
C365 C 0.44212 0.9895 0.06507 0.0
O366 O 0.43094 1.00206 0.06619 0.0
C367 C 0.40174 0.93698 0.10594 0.0
O368 O 0.41684 0.93881 0.12511 0.0
C369 C 0.39453 0.97935 0.97503 0.0
O370 O 0.39405 0.96254 0.97546 0.0
O371 O 0.39936 0.98722 0.01096 0.0
O372 O 0.43658 0.97417 0.06607 0.0
O373 O 0.40218 0.98596 0.13415 0.0
C374 C 0.41141 0.98168 0.16822 0.0
O375 O 0.42447 0.97143 0.16128 0.0
O376 O 0.39647 0.94836 0.078 0.0
Mg377 Mg 0.78817 0.65919 0.81433 0.0
C378 C 0.77985 0.65445 0.91041 0.0
O379 O 0.79471 0.66233 0.90968 0.0
C380 C 0.7654 0.64785 0.73382 0.0
O381 O 0.75302 0.65115 0.763 0.0
C382 C 0.81265 0.63427 0.84781 0.0
O383 O 0.79805 0.62606 0.84356 0.0
O384 O 0.81348 0.64969 0.83372 0.0
O385 O 0.77259 0.65097 0.87237 0.0
O386 O 0.785 0.68693 0.81276 0.0
C387 C 0.76968 0.69193 0.81953 0.0
O388 O 0.75779 0.68035 0.827 0.0
O389 O 0.78086 0.64934 0.74697 0.0
Mg390 Mg 0.10375 0.03444 0.56164 0.0
C391 C 0.06722 0.02851 0.59021 0.0
O392 O 0.07505 0.02552 0.6293 0.0
C393 C 0.11053 0.06803 0.61216 0.0
O394 O 0.09564 0.06459 0.63105 0.0
C395 C 0.1128 0.0331 0.46133 0.0
O396 O 0.10733 0.04897 0.46404 0.0
O397 O 0.11343 0.02409 0.49767 0.0
O398 O 0.07591 0.03412 0.5564 0.0
O399 O 0.10949 0.01732 0.61793 0.0
C400 C 0.12083 0.02083 0.6478 0.0
O401 O 0.13098 0.03401 0.6412 0.0
O402 O 0.11593 0.05858 0.57969 0.0
Mg403 Mg 0.72033 0.34914 0.33399 0.0
C404 C 0.7329 0.36878 0.41666 0.0
O405 O 0.72009 0.37883 0.40546 0.0
C406 C 0.73975 0.36245 0.25007 0.0
O407 O 0.753 0.35932 0.27656 0.0
C408 C 0.6862 0.36755 0.34876 0.0
O409 O 0.69094 0.37607 0.31197 0.0
O410 O 0.69524 0.35501 0.36236 0.0
O411 O 0.73729 0.35692 0.38916 0.0
O412 O 0.72449 0.32169 0.32804 0.0
C413 C 0.7399 0.31656 0.33148 0.0
O414 O 0.75205 0.32793 0.33809 0.0
O415 O 0.72476 0.36032 0.26619 0.0
H416 H 0.96612 0.538 0.117 0.0
H417 H 0.03803 0.47226 0.03256 0.0
H418 H 0.96195 0.50815 0.99283 0.0
H419 H 0.04767 0.51163 0.13322 0.0
H420 H 0.00905 0.48355 0.02221 0.0
H421 H 0.99531 0.52717 0.12741 0.0
C422 C 0.97137 0.52929 0.09178 0.0
C423 C 0.96155 0.524 0.05399 0.0
C424 C 0.01752 0.4897 0.04657 0.0
C425 C 0.99481 0.51136 0.06606 0.0
C426 C 0.03403 0.4832 0.05267 0.0
C427 C 0.04531 0.49103 0.08372 0.0
C428 C 0.01219 0.50402 0.07203 0.0
C429 C 0.03943 0.50522 0.10876 0.0
C430 C 0.98801 0.52309 0.09777 0.0
C431 C 0.96902 0.51263 0.02245 0.0
N432 N 0.02328 0.51124 0.10244 0.0
N433 N 0.98512 0.50661 0.02936 0.0
H434 H 0.73858 0.80145 0.33178 0.0
H435 H 0.76889 0.70421 0.304 0.0
H436 H 0.79116 0.78664 0.30979 0.0
H437 H 0.71624 0.71895 0.32521 0.0
H438 H 0.77722 0.73425 0.30637 0.0
H439 H 0.73023 0.77139 0.33002 0.0
C440 C 0.74841 0.79188 0.32662 0.0
C441 C 0.76563 0.79662 0.32088 0.0
C442 C 0.76384 0.73096 0.31051 0.0
C443 C 0.75607 0.76203 0.31879 0.0
C444 C 0.75904 0.71376 0.30915 0.0
C445 C 0.7418 0.70901 0.31442 0.0
C446 C 0.75134 0.74359 0.3172 0.0
C447 C 0.72966 0.72201 0.32098 0.0
C448 C 0.7436 0.77468 0.3256 0.0
C449 C 0.77775 0.7836 0.31435 0.0
N450 N 0.73467 0.73871 0.3222 0.0
N451 N 0.77273 0.7669 0.31345 0.0
H452 H 0.46297 0.51566 0.65625 0.0
H453 H 0.53873 0.49508 0.47955 0.0
H454 H 0.46154 0.52916 0.51252 0.0
H455 H 0.54121 0.48325 0.62424 0.0
H456 H 0.51036 0.50735 0.49102 0.0
H457 H 0.49171 0.50407 0.64554 0.0
C458 C 0.46874 0.51633 0.62248 0.0
C459 C 0.45977 0.52338 0.58519 0.0
C460 C 0.51707 0.50205 0.52028 0.0
C461 C 0.49269 0.50993 0.57261 0.0
C462 C 0.53328 0.49495 0.51374 0.0
C463 C 0.54241 0.4881 0.551 0.0
C464 C 0.50986 0.50231 0.56443 0.0
C465 C 0.53465 0.48836 0.59449 0.0
C466 C 0.48515 0.50964 0.61638 0.0
C467 C 0.46794 0.52386 0.54227 0.0
N468 N 0.51885 0.49537 0.60001 0.0
N469 N 0.48389 0.51715 0.53713 0.0
H470 H 0.74808 0.20957 0.76544 0.0
H471 H 0.7668 0.30013 0.88437 0.0
H472 H 0.73132 0.22266 0.90219 0.0
H473 H 0.78467 0.28667 0.74889 0.0
H474 H 0.75428 0.27162 0.89207 0.0
H475 H 0.76161 0.23767 0.75883 0.0
C476 C 0.74716 0.21837 0.79404 0.0
C477 C 0.7385 0.21371 0.83445 0.0
C478 C 0.76101 0.27486 0.86073 0.0
C479 C 0.75412 0.24596 0.82714 0.0
C480 C 0.76823 0.29114 0.85634 0.0
C481 C 0.7768 0.29586 0.81584 0.0
C482 C 0.76228 0.26315 0.82434 0.0
C483 C 0.7782 0.28363 0.78074 0.0
C484 C 0.75496 0.23442 0.79027 0.0
C485 C 0.73781 0.22568 0.87036 0.0
N486 N 0.77095 0.26788 0.78572 0.0
N487 N 0.74552 0.24122 0.86586 0.0
H488 H 0.0404 0.54038 0.57074 0.0
H489 H 0.96922 0.46609 0.57868 0.0
H490 H 0.05207 0.48656 0.58335 0.0
H491 H 0.95731 0.5198 0.56461 0.0
H492 H 0.99972 0.47336 0.57997 0.0
H493 H 0.00985 0.53319 0.56837 0.0
C494 C 0.03656 0.52708 0.57307 0.0
C495 C 0.04884 0.51407 0.57726 0.0
C496 C 0.99042 0.48356 0.57653 0.0
C497 C 0.01393 0.50573 0.57449 0.0
C498 C 0.97301 0.47939 0.57573 0.0
C499 C 0.96067 0.49234 0.57156 0.0
C500 C 0.99555 0.50079 0.57317 0.0
C501 C 0.96634 0.50938 0.56793 0.0
C502 C 0.01912 0.52296 0.57166 0.0
C503 C 0.0431 0.49704 0.58008 0.0
N504 N 0.98333 0.5131 0.56888 0.0
N505 N 0.02611 0.49338 0.57864 0.0
H506 H 0.73811 0.70589 0.83381 0.0
H507 H 0.76897 0.80254 0.79499 0.0
H508 H 0.79033 0.71989 0.80291 0.0
H509 H 0.71679 0.7886 0.82662 0.0
H510 H 0.77693 0.7724 0.79745 0.0
H511 H 0.73012 0.73602 0.83127 0.0
C512 C 0.74794 0.7153 0.8265 0.0
C513 C 0.76496 0.71031 0.81853 0.0
C514 C 0.76374 0.7759 0.80384 0.0
C515 C 0.7558 0.74498 0.81552 0.0
C516 C 0.75914 0.79314 0.80243 0.0
C517 C 0.74215 0.79815 0.81064 0.0
C518 C 0.75128 0.76346 0.81356 0.0
C519 C 0.73003 0.78534 0.82006 0.0
C520 C 0.74333 0.73254 0.82505 0.0
C521 C 0.77707 0.72313 0.80928 0.0
N522 N 0.73484 0.76859 0.82129 0.0
N523 N 0.77226 0.73987 0.808 0.0
H524 H 0.5468 0.51833 0.99819 0.0
H525 H 0.45521 0.49809 0.10632 0.0
H526 H 0.52753 0.54416 0.11843 0.0
H527 H 0.4682 0.48603 0.96599 0.0
H528 H 0.48273 0.51277 0.11458 0.0
H529 H 0.51892 0.50459 0.98825 0.0
C530 C 0.53666 0.52122 0.02231 0.0
C531 C 0.5395 0.53242 0.05921 0.0
C532 C 0.47954 0.5069 0.082 0.0
C533 C 0.50763 0.51649 0.04843 0.0
C534 C 0.46389 0.4984 0.07734 0.0
C535 C 0.45938 0.4908 0.03537 0.0
C536 C 0.49087 0.50763 0.04463 0.0
C537 C 0.47112 0.49173 0.99894 0.0
C538 C 0.52075 0.51336 0.01661 0.0
C539 C 0.52588 0.53569 0.08937 0.0
N540 N 0.48634 0.49994 1.00446 0.0
N541 N 0.51058 0.52763 0.08357 0.0
H542 H 0.77154 0.30184 0.33851 0.0
H543 H 0.7369 0.20632 0.30282 0.0
H544 H 0.71828 0.28926 0.31759 0.0
H545 H 0.79013 0.21841 0.32614 0.0
H546 H 0.72999 0.23665 0.30781 0.0
H547 H 0.77866 0.27148 0.3337 0.0
C548 C 0.76132 0.2927 0.33288 0.0
C549 C 0.74426 0.29814 0.32844 0.0
C550 C 0.74319 0.23271 0.31186 0.0
C551 C 0.75238 0.26327 0.32291 0.0
C552 C 0.74717 0.21535 0.309 0.0
C553 C 0.76416 0.20977 0.31405 0.0
C554 C 0.75626 0.24468 0.31981 0.0
C555 C 0.77688 0.22212 0.32204 0.0
C556 C 0.76541 0.27534 0.33016 0.0
C557 C 0.7316 0.28568 0.32122 0.0
N558 N 0.77266 0.239 0.32464 0.0
N559 N 0.73591 0.26884 0.31867 0.0
H560 H 0.23364 0.30018 0.84843 0.0
H561 H 0.27136 0.20709 0.79479 0.0
H562 H 0.28642 0.29063 0.81296 0.0
H563 H 0.21898 0.21584 0.83563 0.0
H564 H 0.27687 0.2377 0.80043 0.0
H565 H 0.22787 0.2695 0.84325 0.0
C566 C 0.24404 0.29165 0.83957 0.0
C567 C 0.26056 0.29803 0.83109 0.0
C568 C 0.26416 0.23297 0.80819 0.0
C569 C 0.25399 0.26282 0.82505 0.0
C570 C 0.26098 0.21545 0.80494 0.0
C571 C 0.24466 0.20884 0.81476 0.0
C572 C 0.25094 0.24408 0.82132 0.0
C573 C 0.23175 0.22035 0.82774 0.0
C574 C 0.24071 0.27411 0.83663 0.0
C575 C 0.2735 0.28631 0.81979 0.0
N576 N 0.23517 0.23742 0.83063 0.0
N577 N 0.26993 0.2693 0.81706 0.0
H578 H 0.29205 0.78716 0.32898 0.0
H579 H 0.21648 0.71765 0.31232 0.0
H580 H 0.2394 0.79974 0.29921 0.0
H581 H 0.26928 0.70467 0.33863 0.0
H582 H 0.22464 0.74787 0.30803 0.0
H583 H 0.28402 0.75685 0.33304 0.0
C584 C 0.27883 0.78356 0.32323 0.0
C585 C 0.2664 0.79603 0.31377 0.0
C586 C 0.23444 0.7384 0.31475 0.0
C587 C 0.2571 0.76139 0.31845 0.0
C588 C 0.22977 0.72114 0.31725 0.0
C589 C 0.24219 0.70858 0.32584 0.0
C590 C 0.25166 0.74317 0.32094 0.0
C591 C 0.25924 0.71389 0.33191 0.0
C592 C 0.27424 0.76626 0.32558 0.0
C593 C 0.24944 0.79061 0.30664 0.0
N594 N 0.26346 0.73074 0.32934 0.0
N595 N 0.24531 0.77374 0.30917 0.0
H596 H 0.28966 0.21751 0.31388 0.0
H597 H 0.21606 0.2885 0.33755 0.0
H598 H 0.23644 0.20563 0.33824 0.0
H599 H 0.26869 0.30037 0.30519 0.0
H600 H 0.22344 0.25809 0.3397 0.0
H601 H 0.2824 0.24798 0.3123 0.0
C602 C 0.27646 0.22129 0.31891 0.0
C603 C 0.26365 0.20897 0.32617 0.0
C604 C 0.23338 0.26735 0.33212 0.0
C605 C 0.25524 0.24384 0.32445 0.0
C606 C 0.22917 0.28473 0.33092 0.0
C607 C 0.24176 0.29703 0.32114 0.0
C608 C 0.25032 0.26221 0.32359 0.0
C609 C 0.25854 0.29136 0.31282 0.0
C610 C 0.27232 0.2387 0.31797 0.0
C611 C 0.24675 0.21465 0.33248 0.0
N612 N 0.26232 0.27438 0.31426 0.0
N613 N 0.24306 0.23164 0.3315 0.0
H614 H 0.28871 0.71697 0.83477 0.0
H615 H 0.21375 0.78659 0.80825 0.0
H616 H 0.23607 0.70412 0.80555 0.0
H617 H 0.26652 0.79949 0.83563 0.0
H618 H 0.2216 0.75623 0.80796 0.0
H619 H 0.28079 0.74731 0.836 0.0
C620 C 0.2755 0.72051 0.82864 0.0
C621 C 0.26305 0.70796 0.82003 0.0
C622 C 0.23145 0.76572 0.81405 0.0
C623 C 0.25388 0.74265 0.82139 0.0
C624 C 0.22697 0.78305 0.81423 0.0
C625 C 0.23948 0.79562 0.82193 0.0
C626 C 0.24858 0.76092 0.82163 0.0
C627 C 0.25642 0.79027 0.8295 0.0
C628 C 0.27098 0.73784 0.82933 0.0
C629 C 0.24612 0.71332 0.81231 0.0
N630 N 0.26046 0.77336 0.82914 0.0
N631 N 0.24205 0.73022 0.81317 0.0
H632 H 0.46502 0.02551 0.62271 0.0
H633 H 0.54461 0.97752 0.50609 0.0
H634 H 0.4664 0.01044 0.48019 0.0
H635 H 0.54291 0.99191 0.64909 0.0
H636 H 0.51565 0.98879 0.49639 0.0
H637 H 0.49352 0.01316 0.63313 0.0
C638 C 0.47134 0.0197 0.59353 0.0
C639 C 0.46328 0.01904 0.55049 0.0
C640 C 0.52158 0.9894 0.52995 0.0
C641 C 0.49588 0.00472 0.56229 0.0
C642 C 0.5381 0.98289 0.53557 0.0
C643 C 0.54626 0.9838 0.57845 0.0
C644 C 0.51313 0.99693 0.56745 0.0
C645 C 0.53717 0.99095 0.61536 0.0
C646 C 0.48759 0.01258 0.59956 0.0
C647 C 0.4721 0.01128 0.51399 0.0
N648 N 0.52115 0.99731 0.60896 0.0
N649 N 0.48788 0.00442 0.52074 0.0
H650 H 0.95297 0.98673 0.05338 0.0
H651 H 0.0494 0.02011 0.07693 0.0
H652 H 0.9662 0.04009 0.06894 0.0
H653 H 0.03574 0.96686 0.06146 0.0
H654 H 0.01913 0.02768 0.07473 0.0
H655 H 0.9832 0.97936 0.05647 0.0
C656 C 0.96224 0.99694 0.0574 0.0
C657 C 0.957 0.01409 0.06091 0.0
C658 C 0.02273 0.01434 0.07188 0.0
C659 C 0.99182 0.00565 0.06456 0.0
C660 C 0.04004 0.00998 0.07317 0.0
C661 C 0.04515 0.99279 0.06934 0.0
C662 C 0.01036 1.00145 0.06667 0.0
C663 C 0.03241 0.98026 0.06457 0.0
C664 C 0.97954 0.99269 0.0592 0.0
C665 C 0.96965 0.02672 0.06606 0.0
N666 N 0.01561 0.98484 0.06331 0.0
N667 N 0.98648 0.02224 0.06775 0.0
H668 H 0.53942 0.04259 0.05834 0.0
H669 H 0.46946 0.96721 0.06437 0.0
H670 H 0.55247 0.98889 0.05939 0.0
H671 H 0.45705 0.02105 0.06234 0.0
H672 H 0.49995 0.97471 0.06262 0.0
H673 H 0.50911 0.0348 0.06011 0.0
C674 C 0.53592 0.02916 0.05899 0.0
C675 C 0.54853 0.01639 0.05871 0.0
C676 C 0.49053 0.98486 0.06254 0.0
C677 C 0.5138 0.00735 0.06068 0.0
C678 C 0.47313 0.98058 0.0635 0.0
C679 C 0.46066 0.9935 0.0635 0.0
C680 C 0.49548 1.00219 0.06158 0.0
C681 C 0.46617 0.01063 0.0624 0.0
C682 C 0.5186 0.02471 0.05997 0.0
C683 C 0.54321 0.99919 0.05956 0.0
N684 N 0.48312 0.01446 0.0615 0.0
N685 N 0.52627 0.99518 0.06049 0.0
H686 H 0.04619 0.01329 0.65339 0.0
H687 H 0.97033 0.99592 0.4745 0.0
H688 H 0.04759 0.02978 0.5119 0.0
H689 H 0.9712 0.97524 0.61199 0.0
H690 H 0.99826 0.00898 0.4881 0.0
H691 H 0.01808 1.00057 0.63996 0.0
C692 C 0.04053 0.01441 0.61957 0.0
C693 C 0.04933 0.02261 0.58368 0.0
C694 C 0.9924 1.00152 0.51525 0.0
C695 C 0.01713 0.00786 0.56797 0.0
C696 C 0.97645 0.994 0.50748 0.0
C697 C 0.96836 0.98445 0.54218 0.0
C698 C 1.00036 0.9996 0.55816 0.0
C699 C 0.97695 0.98243 0.58419 0.0
C700 C 0.02449 0.00703 0.61188 0.0
C701 C 0.04131 0.0236 0.5406 0.0
N702 N 0.99243 0.99002 0.59107 0.0
N703 N 0.0257 0.01626 0.53393 0.0
H704 H 0.1177 0.49902 0.96151 0.0
H705 H 0.11144 0.49331 0.68751 0.0
H706 H 0.10285 0.45334 0.88824 0.0
H707 H 0.11704 0.54078 0.76182 0.0
H708 H 0.11289 0.47768 0.76013 0.0
H709 H 0.12217 0.51357 0.88811 0.0
C710 C 0.11558 0.49197 0.93002 0.0
C711 C 0.10973 0.47496 0.9311 0.0
C712 C 0.11393 0.49151 0.76052 0.0
C713 C 0.11477 0.4916 0.84689 0.0
C714 C 0.11315 0.50046 0.71903 0.0
C715 C 0.11397 0.51842 0.71855 0.0
C716 C 0.11559 0.50056 0.80192 0.0
C717 C 0.11623 0.52695 0.76053 0.0
C718 C 0.11807 0.50032 0.8881 0.0
C719 C 0.10723 0.46649 0.88912 0.0
N720 N 0.11686 0.51796 0.80051 0.0
N721 N 0.10966 0.47493 0.84877 0.0
H722 H 0.77357 0.86186 0.93798 0.0
H723 H 0.73582 0.86339 0.19359 0.0
H724 H 0.71959 0.86456 0.9687 0.0
H725 H 0.78983 0.86174 0.16265 0.0
H726 H 0.72972 0.86607 0.11158 0.0
H727 H 0.77984 0.86408 0.01995 0.0
C728 C 0.76302 0.86308 0.96187 0.0
C729 C 0.74601 0.86291 0.94629 0.0
C730 C 0.74291 0.86525 0.12273 0.0
C731 C 0.75312 0.86534 0.04054 0.0
C732 C 0.74642 0.86374 0.16964 0.0
C733 C 0.76337 0.86222 0.18517 0.0
C734 C 0.75644 0.86519 0.09092 0.0
C735 C 0.77656 0.8628 0.15237 0.0
C736 C 0.76662 0.86432 0.00877 0.0
C737 C 0.7329 0.86457 0.97903 0.0
N738 N 0.77281 0.86412 0.10688 0.0
N739 N 0.73673 0.86558 0.02454 0.0
H740 H 0.38574 0.50935 0.17086 0.0
H741 H 0.3899 0.49959 0.44445 0.0
H742 H 0.39487 0.46149 0.24095 0.0
H743 H 0.39062 0.54831 0.37427 0.0
H744 H 0.38674 0.48522 0.37049 0.0
H745 H 0.38247 0.52346 0.24534 0.0
C746 C 0.38683 0.50175 0.20186 0.0
C747 C 0.39076 0.48423 0.19963 0.0
C748 C 0.38745 0.49906 0.37129 0.0
C749 C 0.38709 0.50032 0.28498 0.0
C750 C 0.38921 0.5073 0.41356 0.0
C751 C 0.3907 0.5252 0.41561 0.0
C752 C 0.38712 0.50877 0.33067 0.0
C753 C 0.38966 0.53449 0.37436 0.0
C754 C 0.38503 0.50984 0.24437 0.0
C755 C 0.392 0.47505 0.24098 0.0
N756 N 0.38804 0.52616 0.33358 0.0
N757 N 0.39028 0.48322 0.2819 0.0
H758 H 0.77502 0.14205 0.68495 0.0
H759 H 0.73285 0.14416 0.43491 0.0
H760 H 0.72045 0.14234 0.66201 0.0
H761 H 0.78719 0.13997 0.45915 0.0
H762 H 0.72785 0.1413 0.51748 0.0
H763 H 0.77953 0.13908 0.60243 0.0
C764 C 0.76396 0.14132 0.66262 0.0
C765 C 0.74732 0.14258 0.68055 0.0
C766 C 0.74086 0.14084 0.5047 0.0
C767 C 0.75242 0.13932 0.58556 0.0
C768 C 0.74373 0.14245 0.45748 0.0
C769 C 0.76048 0.14244 0.43993 0.0
C770 C 0.75484 0.1393 0.53479 0.0
C771 C 0.77406 0.14014 0.47099 0.0
C772 C 0.76655 0.13963 0.61539 0.0
C773 C 0.7335 0.14147 0.6498 0.0
N774 N 0.77094 0.13882 0.51683 0.0
N775 N 0.73637 0.14008 0.60382 0.0
H776 H 0.89983 0.55135 0.26478 0.0
H777 H 0.89009 0.46248 0.39856 0.0
H778 H 0.88997 0.50308 0.19764 0.0
H779 H 0.89623 0.51118 0.46657 0.0
H780 H 0.88788 0.47741 0.32509 0.0
H781 H 0.89645 0.53723 0.33916 0.0
C782 C 0.8968 0.53781 0.26562 0.0
C783 C 0.89533 0.52837 0.22483 0.0
C784 C 0.88955 0.48486 0.3561 0.0
C785 C 0.89155 0.51208 0.31003 0.0
C786 C 0.89081 0.47633 0.39813 0.0
C787 C 0.89348 0.48557 0.43882 0.0
C788 C 0.89109 0.50277 0.35458 0.0
C789 C 0.89424 0.50351 0.43609 0.0
C790 C 0.89488 0.52975 0.30817 0.0
C791 C 0.89132 0.51087 0.22815 0.0
N792 N 0.89321 0.51151 0.39467 0.0
N793 N 0.88972 0.50328 0.26997 0.0
H794 H 0.22513 0.13684 0.96538 0.0
H795 H 0.29294 0.14494 0.17119 0.0
H796 H 0.27827 0.15009 0.94561 0.0
H797 H 0.23843 0.14008 0.19161 0.0
H798 H 0.28846 0.14275 0.08823 0.0
H799 H 0.23049 0.13385 0.04777 0.0
C800 C 0.23797 0.13894 0.97822 0.0
C801 C 0.25124 0.14385 0.9484 0.0
C802 C 0.27749 0.14204 0.11089 0.0
C803 C 0.25745 0.14051 0.04298 0.0
C804 C 0.28004 0.14323 0.15834 0.0
C805 C 0.26603 0.14282 0.18856 0.0
C806 C 0.2608 0.14035 0.09337 0.0
C807 C 0.24962 0.14057 0.16972 0.0
C808 C 0.24101 0.13729 0.02536 0.0
C809 C 0.26762 0.14639 0.96721 0.0
N810 N 0.24746 0.1395 0.12344 0.0
N811 N 0.27023 0.14477 0.01322 0.0
H812 H 0.62014 0.54449 0.88759 0.0
H813 H 0.60548 0.45663 0.75481 0.0
H814 H 0.61296 0.49597 0.95613 0.0
H815 H 0.6198 0.50375 0.68732 0.0
H816 H 0.61053 0.47025 0.82905 0.0
H817 H 0.62251 0.52941 0.81443 0.0
C818 C 0.61928 0.53064 0.88737 0.0
C819 C 0.61616 0.52151 0.92806 0.0
C820 C 0.61276 0.47756 0.79801 0.0
C821 C 0.61867 0.50415 0.84421 0.0
C822 C 0.60987 0.46978 0.75555 0.0
C823 C 0.61203 0.47911 0.71471 0.0
C824 C 0.61769 0.49486 0.79975 0.0
C825 C 0.61786 0.49609 0.71787 0.0
C826 C 0.62062 0.52203 0.84552 0.0
C827 C 0.61526 0.50356 0.92563 0.0
N828 N 0.62028 0.50347 0.75963 0.0
N829 N 0.61628 0.4955 0.88437 0.0
H830 H 0.27161 0.86132 0.69391 0.0
H831 H 0.23392 0.86045 0.4383 0.0
H832 H 0.21758 0.86166 0.66302 0.0
H833 H 0.28791 0.86292 0.46906 0.0
H834 H 0.22766 0.86284 0.52026 0.0
H835 H 0.2778 0.86386 0.61191 0.0
C836 C 0.26103 0.86208 0.66997 0.0
C837 C 0.24404 0.86117 0.68552 0.0
C838 C 0.24088 0.863 0.50909 0.0
C839 C 0.25106 0.86395 0.59126 0.0
C840 C 0.24447 0.86165 0.4622 0.0
C841 C 0.26149 0.86137 0.44663 0.0
C842 C 0.25438 0.86399 0.54087 0.0
C843 C 0.2746 0.86302 0.47937 0.0
C844 C 0.26458 0.86351 0.62307 0.0
C845 C 0.23088 0.86226 0.65274 0.0
N846 N 0.27078 0.86412 0.52487 0.0
N847 N 0.23467 0.86346 0.60723 0.0
H848 H 0.61792 0.00349 0.16577 0.0
H849 H 0.61584 0.01124 0.43998 0.0
H850 H 0.61004 0.05101 0.23825 0.0
H851 H 0.61385 0.9631 0.36747 0.0
H852 H 0.61847 0.02617 0.36652 0.0
H853 H 0.62123 0.98879 0.23946 0.0
C854 C 0.61709 0.01089 0.19713 0.0
C855 C 0.61354 0.02851 0.19578 0.0
C856 C 0.61759 0.01233 0.36671 0.0
C857 C 0.61727 0.01172 0.28029 0.0
C858 C 0.61614 0.00377 0.40868 0.0
C859 C 0.61446 0.98587 0.40995 0.0
C860 C 0.61744 1.00294 0.3256 0.0
C861 C 0.61498 0.97691 0.36818 0.0
C862 C 0.61892 1.00246 0.2392 0.0
C863 C 0.61263 0.0374 0.23758 0.0
N864 N 0.61632 0.98554 0.32774 0.0
N865 N 0.61438 0.0289 0.27809 0.0
H866 H 0.21582 0.36601 0.47714 0.0
H867 H 0.28693 0.36477 0.67594 0.0
H868 H 0.26996 0.36072 0.4515 0.0
H869 H 0.23253 0.3643 0.70162 0.0
H870 H 0.28113 0.36703 0.59354 0.0
H871 H 0.22189 0.36915 0.55911 0.0
C872 C 0.229 0.36569 0.48861 0.0
C873 C 0.24238 0.36296 0.45726 0.0
C874 C 0.27047 0.36656 0.61724 0.0
C875 C 0.24944 0.36647 0.55135 0.0
C876 C 0.27377 0.36533 0.66436 0.0
C877 C 0.26021 0.36421 0.69588 0.0
C878 C 0.25346 0.36672 0.60138 0.0
C879 C 0.24341 0.365 0.6787 0.0
C880 C 0.23246 0.36743 0.53551 0.0
C881 C 0.25921 0.36269 0.47432 0.0
N882 N 0.24053 0.36611 0.63271 0.0
N883 N 0.26224 0.36431 0.52013 0.0
H884 H 0.89287 0.99519 0.94914 0.0
H885 H 0.89748 0.00322 0.67523 0.0
H886 H 0.89606 0.04333 0.87661 0.0
H887 H 0.90121 0.95524 0.74831 0.0
H888 H 0.8929 0.01791 0.7482 0.0
H889 H 0.89185 0.98024 0.87548 0.0
C890 C 0.89317 1.00264 0.91776 0.0
C891 C 0.8947 0.02055 0.9191 0.0
C892 C 0.8946 0.00415 0.74826 0.0
C893 C 0.8936 0.00348 0.83461 0.0
C894 C 0.89718 0.99574 0.70656 0.0
C895 C 0.89989 0.97797 0.70563 0.0
C896 C 0.8947 0.99476 0.78941 0.0
C897 C 0.89931 0.96896 0.74736 0.0
C898 C 0.89264 0.99408 0.87569 0.0
C899 C 0.89501 0.02951 0.87728 0.0
N900 N 0.89688 0.97746 0.78755 0.0
N901 N 0.89457 0.02088 0.83679 0.0
H902 H 0.2863 0.63906 0.97384 0.0
H903 H 0.21563 0.64244 0.17325 0.0
H904 H 0.23217 0.64493 0.94864 0.0
H905 H 0.27007 0.64195 0.1985 0.0
H906 H 0.22125 0.63976 0.09098 0.0
H907 H 0.28036 0.63647 0.05598 0.0
C908 C 0.27314 0.63962 0.98546 0.0
C909 C 0.25973 0.64235 0.95416 0.0
C910 C 0.23197 0.64012 0.11454 0.0
C911 C 0.25284 0.63947 0.04847 0.0
C912 C 0.22877 0.6416 0.1616 0.0
C913 C 0.2424 0.64255 0.19297 0.0
C914 C 0.24893 0.63955 0.09853 0.0
C915 C 0.25915 0.64137 0.17569 0.0
C916 C 0.26976 0.63819 0.03246 0.0
C917 C 0.24294 0.64294 0.97141 0.0
N918 N 0.26193 0.64003 0.12971 0.0
N919 N 0.24 0.64162 0.01734 0.0
H920 H 0.38338 0.96675 0.89249 0.0
H921 H 0.40664 0.0522 0.75555 0.0
H922 H 0.39933 0.01361 0.95835 0.0
H923 H 0.3856 0.0071 0.69116 0.0
H924 H 0.40185 0.0391 0.83065 0.0
H925 H 0.38192 0.98198 0.81927 0.0
C926 C 0.38641 0.98028 0.89168 0.0
C927 C 0.39164 0.98886 0.93163 0.0
C928 C 0.39811 0.03213 0.80014 0.0
C929 C 0.39013 0.00638 0.84768 0.0
C930 C 0.40084 0.03962 0.75718 0.0
C931 C 0.39668 0.03068 0.7169 0.0
C932 C 0.3913 0.0155 0.80294 0.0
C933 C 0.3891 0.01444 0.72124 0.0
C934 C 0.38557 0.98898 0.8498 0.0
C935 C 0.39531 0.00644 0.92845 0.0
N936 N 0.38684 0.0073 0.76343 0.0
N937 N 0.39466 0.01456 0.88715 0.0
H938 H 0.7718 0.64228 0.43781 0.0
H939 H 0.73386 0.64491 0.69309 0.0
H940 H 0.71775 0.64325 0.4684 0.0
H941 H 0.78789 0.64297 0.66259 0.0
H942 H 0.72767 0.6419 0.61124 0.0
H943 H 0.77788 0.64009 0.51992 0.0
C944 C 0.76119 0.64187 0.46171 0.0
C945 C 0.74423 0.64307 0.44605 0.0
C946 C 0.74088 0.642 0.62246 0.0
C947 C 0.75113 0.64069 0.54042 0.0
C948 C 0.74444 0.6437 0.66928 0.0
C949 C 0.76144 0.64432 0.68485 0.0
C950 C 0.75441 0.64097 0.59079 0.0
C951 C 0.77459 0.64264 0.65225 0.0
C952 C 0.76468 0.64065 0.50868 0.0
C953 C 0.73103 0.64243 0.47879 0.0
N954 N 0.7708 0.64117 0.60682 0.0
N955 N 0.73476 0.64142 0.52434 0.0
H956 H 0.11219 0.04851 0.37679 0.0
H957 H 0.11792 0.95997 0.24061 0.0
H958 H 0.1208 0.99966 0.44232 0.0
H959 H 0.11143 0.00905 0.17457 0.0
H960 H 0.12166 0.97455 0.31407 0.0
H961 H 0.11455 0.03463 0.30197 0.0
C962 C 0.11474 0.03489 0.37549 0.0
C963 C 0.11613 0.02522 0.41597 0.0
C964 C 0.11957 0.98215 0.28346 0.0
C965 C 0.11874 0.0092 0.33027 0.0
C966 C 0.11744 0.97382 0.24145 0.0
C967 C 0.1142 0.98328 0.20137 0.0
C968 C 0.11836 1.00008 0.28555 0.0
C969 C 0.11381 1.00122 0.20458 0.0
C970 C 0.11608 0.02697 0.3327 0.0
C971 C 0.11954 0.00763 0.41207 0.0
N972 N 0.1157 0.00902 0.24599 0.0
N973 N 0.12056 1.00017 0.37002 0.0
H974 H 0.71537 0.36493 0.18244 0.0
H975 H 0.78384 0.37211 0.97815 0.0
H976 H 0.76993 0.36814 0.20428 0.0
H977 H 0.73049 0.3599 0.95785 0.0
H978 H 0.77838 0.37529 0.06049 0.0
H979 H 0.72016 0.36769 0.0998 0.0
C980 C 0.72835 0.36642 0.16998 0.0
C981 C 0.74228 0.36615 0.20047 0.0
C982 C 0.76785 0.37206 0.03794 0.0
C983 C 0.74785 0.36926 0.10562 0.0
C984 C 0.77094 0.37031 0.99086 0.0
C985 C 0.75763 0.36559 0.96098 0.0
C986 C 0.75131 0.36916 0.05534 0.0
C987 C 0.74117 0.36342 0.97955 0.0
C988 C 0.73108 0.36793 0.1227 0.0
C989 C 0.7588 0.36816 0.18214 0.0
N990 N 0.73851 0.36513 0.02547 0.0
N991 N 0.76113 0.36952 0.13596 0.0
H992 H 0.10955 0.4919 0.46239 0.0
H993 H 0.11405 0.50319 0.18941 0.0
H994 H 0.11456 0.54071 0.39386 0.0
H995 H 0.10095 0.45581 0.25747 0.0
H996 H 0.11921 0.51628 0.26446 0.0
H997 H 0.11135 0.47762 0.3878 0.0
C998 C 0.11122 0.4996 0.43174 0.0
C999 C 0.11167 0.51752 0.43423 0.0
C1000 C 0.11534 0.50298 0.26289 0.0
C1001 C 0.11369 0.50132 0.34898 0.0
C1002 C 0.11243 0.4955 0.22009 0.0
C1003 C 0.10685 0.47847 0.21728 0.0
C1004 C 0.11269 0.49332 0.30303 0.0
C1005 C 0.10502 0.46906 0.25809 0.0
C1006 C 0.1122 0.49145 0.38919 0.0
C1007 C 0.11392 0.52686 0.39346 0.0
N1008 N 0.10782 0.47665 0.2993 0.0
N1009 N 0.11472 0.51866 0.35249 0.0
H1010 H 0.76097 0.86257 0.70158 0.0
H1011 H 0.74701 0.8602 0.42869 0.0
H1012 H 0.71201 0.85444 0.6365 0.0
H1013 H 0.7964 0.85682 0.49441 0.0
H1014 H 0.73375 0.86387 0.50444 0.0
H1015 H 0.77395 0.8662 0.62545 0.0
C1016 C 0.75294 0.86175 0.67135 0.0
C1017 C 0.73546 0.85795 0.67529 0.0
C1018 C 0.74751 0.86248 0.50214 0.0
C1019 C 0.75012 0.86211 0.58839 0.0
C1020 C 0.75507 0.86046 0.45895 0.0
C1021 C 0.77278 0.85796 0.45538 0.0
C1022 C 0.75779 0.86213 0.54182 0.0
C1023 C 0.78265 0.85843 0.49567 0.0
C1024 C 0.76033 0.86377 0.62795 0.0
C1025 C 0.7256 0.85708 0.63501 0.0
N1026 N 0.77502 0.86036 0.5372 0.0
N1027 N 0.73308 0.85904 0.59327 0.0
H1028 H 0.36916 0.53739 0.72101 0.0
H1029 H 0.40032 0.4592 0.87711 0.0
H1030 H 0.39825 0.49434 0.67077 0.0
H1031 H 0.38406 0.50762 0.93362 0.0
H1032 H 0.39444 0.46997 0.80036 0.0
H1033 H 0.36938 0.52459 0.79786 0.0
C1034 C 0.37536 0.52512 0.72596 0.0
C1035 C 0.38381 0.51695 0.68953 0.0
C1036 C 0.39207 0.47824 0.82951 0.0
C1037 C 0.38412 0.50234 0.77714 0.0
C1038 C 0.39542 0.4721 0.87345 0.0
C1039 C 0.39288 0.48261 0.91189 0.0
C1040 C 0.38609 0.49502 0.82374 0.0
C1041 C 0.38633 0.49914 0.9049 0.0
C1042 C 0.37556 0.5179 0.76986 0.0
C1043 C 0.39169 0.50113 0.69794 0.0
N1044 N 0.38325 0.5049 0.86155 0.0
N1045 N 0.3917 0.49439 0.74089 0.0
H1046 H 0.77179 0.113 0.16105 0.0
H1047 H 0.76807 0.17753 0.95126 0.0
H1048 H 0.76207 0.1671 0.17648 0.0
H1049 H 0.74942 0.1258 0.93563 0.0
H1050 H 0.77162 0.17244 0.03333 0.0
H1051 H 0.76783 0.11608 0.07766 0.0
C1052 C 0.7686 0.12545 0.14706 0.0
C1053 C 0.76728 0.13982 0.17585 0.0
C1054 C 0.76685 0.16217 0.01185 0.0
C1055 C 0.76331 0.14345 0.08083 0.0
C1056 C 0.765 0.16499 0.96487 0.0
C1057 C 0.75837 0.15209 0.93646 0.0
C1058 C 0.76233 0.14625 0.03063 0.0
C1059 C 0.75452 0.13612 0.95632 0.0
C1060 C 0.76641 0.12718 0.09956 0.0
C1061 C 0.76318 0.15565 0.15579 0.0
N1062 N 0.75657 0.13362 1.0023 0.0
N1063 N 0.76159 0.15708 0.10953 0.0
H1064 H 0.92851 0.47488 0.756 0.0
H1065 H 0.87002 0.53293 0.91667 0.0
H1066 H 0.88484 0.50269 0.70414 0.0
H1067 H 0.90803 0.49741 0.96677 0.0
H1068 H 0.87422 0.52166 0.83907 0.0
H1069 H 0.92076 0.48323 0.83355 0.0
C1070 C 0.91729 0.48281 0.76088 0.0
C1071 C 0.90735 0.48817 0.72344 0.0
C1072 C 0.88146 0.51621 0.86719 0.0
C1073 C 0.89833 0.49775 0.81264 0.0
C1074 C 0.87903 0.52257 0.91154 0.0
C1075 C 0.88883 0.51623 0.94823 0.0
C1076 C 0.89385 0.5035 0.85959 0.0
C1077 C 0.9003 0.50281 0.93954 0.0
C1078 C 0.9128 0.48749 0.80533 0.0
C1079 C 0.89289 0.49833 0.73205 0.0
N1080 N 0.90262 0.49704 0.89609 0.0
N1081 N 0.88884 0.50288 0.77582 0.0
H1082 H 0.24956 0.10666 0.68512 0.0
H1083 H 0.25335 0.15849 0.44904 0.0
H1084 H 0.24643 0.16175 0.67608 0.0
H1085 H 0.27774 0.10923 0.46444 0.0
H1086 H 0.24563 0.15776 0.53026 0.0
H1087 H 0.25594 0.10561 0.60255 0.0
C1088 C 0.25035 0.11853 0.66593 0.0
C1089 C 0.24751 0.13432 0.68765 0.0
C1090 C 0.25256 0.14706 0.51575 0.0
C1091 C 0.25434 0.13315 0.59327 0.0
C1092 C 0.25684 0.14737 0.46924 0.0
C1093 C 0.26631 0.13393 0.44987 0.0
C1094 C 0.25759 0.13312 0.5431 0.0
C1095 C 0.27051 0.1199 0.47798 0.0
C1096 C 0.25394 0.1179 0.61887 0.0
C1097 C 0.24862 0.14929 0.66099 0.0
N1098 N 0.26615 0.11987 0.52325 0.0
N1099 N 0.25178 0.14831 0.61522 0.0
H1100 H 0.6211 0.50469 0.191 0.0
H1101 H 0.5941 0.51139 0.45523 0.0
H1102 H 0.57368 0.52654 0.23942 0.0
H1103 H 0.6332 0.47658 0.40782 0.0
H1104 H 0.59008 0.52128 0.37663 0.0
H1105 H 0.62866 0.49763 0.27065 0.0
C1106 C 0.61227 0.50795 0.21829 0.0
C1107 C 0.59669 0.51612 0.20854 0.0
C1108 C 0.59964 0.51157 0.38346 0.0
C1109 C 0.60538 0.5084 0.29934 0.0
C1110 C 0.60204 0.506 0.42842 0.0
C1111 C 0.61386 0.49297 0.43809 0.0
C1112 C 0.60916 0.50414 0.34781 0.0
C1113 C 0.62384 0.48655 0.40187 0.0
C1114 C 0.61662 0.50396 0.26364 0.0
C1115 C 0.58577 0.52013 0.24521 0.0
N1116 N 0.62116 0.4921 0.35817 0.0
N1117 N 0.59035 0.51628 0.28891 0.0
H1118 H 0.20964 0.85323 0.99491 0.0
H1119 H 0.29622 0.85391 0.13738 0.0
H1120 H 0.25929 0.85879 0.9317 0.0
H1121 H 0.24649 0.85868 0.20051 0.0
H1122 H 0.28302 0.85717 0.06206 0.0
H1123 H 0.2228 0.85668 0.0702 0.0
C1124 C 0.22334 0.8553 0.99687 0.0
C1125 C 0.23343 0.85552 0.957 0.0
C1126 C 0.27498 0.85768 0.09231 0.0
C1127 C 0.24862 0.85939 0.04334 0.0
C1128 C 0.2825 0.85576 0.13539 0.0
C1129 C 0.27239 0.85582 0.17525 0.0
C1130 C 0.25717 0.85946 0.08887 0.0
C1131 C 0.25473 0.85848 0.17064 0.0
C1132 C 0.23083 0.85733 0.03993 0.0
C1133 C 0.25105 0.85847 0.96158 0.0
N1134 N 0.24764 0.85997 0.12813 0.0
N1135 N 0.25813 0.86006 1.00408 0.0
H1136 H 0.63652 0.97617 0.71859 0.0
H1137 H 0.59191 0.04798 0.87301 0.0
H1138 H 0.60201 0.01473 0.66648 0.0
H1139 H 0.62137 0.00632 0.93009 0.0
H1140 H 0.59831 0.03761 0.79627 0.0
H1141 H 0.63417 0.9889 0.79509 0.0
C1142 C 0.62864 0.98745 0.72306 0.0
C1143 C 0.61935 0.99433 0.68614 0.0
C1144 C 0.60342 0.03073 0.82549 0.0
C1145 C 0.61651 0.00883 0.77352 0.0
C1146 C 0.59975 0.03663 0.86944 0.0
C1147 C 0.606 0.02792 0.90811 0.0
C1148 C 0.61342 0.01596 0.81991 0.0
C1149 C 0.61621 0.01336 0.90122 0.0
C1150 C 0.62724 0.99464 0.76679 0.0
C1151 C 0.60932 0.00892 0.69397 0.0
N1152 N 0.61955 0.00779 0.85789 0.0
N1153 N 0.6081 0.01561 0.73681 0.0
H1154 H 0.25235 0.37297 0.20593 0.0
H1155 H 0.23958 0.35496 0.93721 0.0
H1156 H 0.21259 0.34111 0.1484 0.0
H1157 H 0.28054 0.38624 0.99082 0.0
H1158 H 0.22777 0.35258 0.01444 0.0
H1159 H 0.26158 0.38032 0.12762 0.0
C1160 C 0.24555 0.36757 0.17695 0.0
C1161 C 0.23179 0.35628 0.18378 0.0
C1162 C 0.23926 0.36011 0.00933 0.0
C1163 C 0.24215 0.36468 0.09441 0.0
C1164 C 0.24596 0.36154 0.9651 0.0
C1165 C 0.26117 0.37068 0.9575 0.0
C1166 C 0.24786 0.36777 0.04645 0.0
C1167 C 0.26883 0.37899 0.99507 0.0
C1168 C 0.25079 0.37178 0.1323 0.0
C1169 C 0.22338 0.34973 0.14496 0.0
N1170 N 0.26222 0.37717 0.03801 0.0
N1171 N 0.22871 0.35397 0.10214 0.0
H1172 H 0.89974 0.95498 0.38342 0.0
H1173 H 0.89941 0.04299 0.24492 0.0
H1174 H 0.90096 0.00471 0.44789 0.0
H1175 H 0.89524 0.99352 0.17992 0.0
H1176 H 0.89732 0.02921 0.31973 0.0
H1177 H 0.8954 0.96879 0.30919 0.0
C1178 C 0.89897 0.96882 0.38203 0.0
C1179 C 0.90093 0.97873 0.42184 0.0
C1180 C 0.89672 0.02135 0.28917 0.0
C1181 C 0.89602 0.99462 0.33688 0.0
C1182 C 0.89794 0.02921 0.24638 0.0
C1183 C 0.8977 0.01935 0.20614 0.0
C1184 C 0.89538 0.00346 0.29187 0.0
C1185 C 0.89558 1.00158 0.21011 0.0
C1186 C 0.89646 0.97669 0.33959 0.0
C1187 C 0.89963 0.99658 0.41804 0.0
N1188 N 0.89468 0.99417 0.25231 0.0
N1189 N 0.89743 0.00396 0.3762 0.0
H1190 H 0.28983 0.66781 0.64697 0.0
H1191 H 0.22144 0.62008 0.48816 0.0
H1192 H 0.25063 0.63443 0.70122 0.0
H1193 H 0.25987 0.65514 0.43766 0.0
H1194 H 0.23351 0.62275 0.56524 0.0
H1195 H 0.28025 0.66129 0.56966 0.0
C1196 C 0.27915 0.6591 0.64268 0.0
C1197 C 0.27094 0.65175 0.6808 0.0
C1198 C 0.2394 0.62972 0.53721 0.0
C1199 C 0.25989 0.64415 0.59167 0.0
C1200 C 0.23257 0.62814 0.49307 0.0
C1201 C 0.23955 0.63753 0.45634 0.0
C1202 C 0.25331 0.64076 0.54471 0.0
C1203 C 0.25399 0.64773 0.46488 0.0
C1204 C 0.27372 0.65534 0.59833 0.0
C1205 C 0.25727 0.64046 0.67285 0.0
N1206 N 0.26028 0.64918 0.50819 0.0
N1207 N 0.25212 0.63705 0.6291 0.0
H1208 H 0.42635 0.97107 0.24771 0.0
H1209 H 0.37233 0.0329 0.40993 0.0
H1210 H 0.38636 0.00408 0.19648 0.0
H1211 H 0.40853 0.99536 0.45912 0.0
H1212 H 0.3757 0.02151 0.33226 0.0
H1213 H 0.41898 0.97929 0.32566 0.0
C1214 C 0.41602 0.9801 0.25282 0.0
C1215 C 0.40703 0.98699 0.21544 0.0
C1216 C 0.38273 0.01565 0.36017 0.0
C1217 C 0.39844 0.99645 0.30506 0.0
C1218 C 0.38077 0.02208 0.40459 0.0
C1219 C 0.39032 0.0152 0.44105 0.0
C1220 C 0.39438 1.0023 0.35222 0.0
C1221 C 0.40102 1.00118 0.43206 0.0
C1222 C 0.41174 0.98473 0.29749 0.0
C1223 C 0.39367 0.99853 0.22432 0.0
N1224 N 0.40289 0.99533 0.38851 0.0
N1225 N 0.38983 1.00298 0.26829 0.0
H1226 H 0.76052 0.64616 0.20168 0.0
H1227 H 0.74614 0.64694 0.92887 0.0
H1228 H 0.7114 0.65349 0.13683 0.0
H1229 H 0.79547 0.65282 0.99368 0.0
H1230 H 0.73314 0.64338 1.00501 0.0
H1231 H 0.77348 0.64266 0.12546 0.0
C1232 C 0.75245 0.64683 0.17149 0.0
C1233 C 0.73493 0.65036 0.17547 0.0
C1234 C 0.74683 0.6453 1.00244 0.0
C1235 C 0.74956 0.64633 0.08855 0.0
C1236 C 0.75424 0.64727 0.95904 0.0
C1237 C 0.77184 0.65042 0.95507 0.0
C1238 C 0.75716 0.64633 0.04193 0.0
C1239 C 0.78179 0.65069 0.99525 0.0
C1240 C 0.75983 0.64489 0.12805 0.0
C1241 C 0.72503 0.65106 0.13526 0.0
N1242 N 0.7743 0.64877 0.03699 0.0
N1243 N 0.73248 0.64915 0.09351 0.0
H1244 H 0.07777 0.97286 0.88492 0.0
H1245 H 0.13947 0.0283 0.72513 0.0
H1246 H 0.12152 1.00031 0.93787 0.0
H1247 H 0.09997 0.99453 0.67438 0.0
H1248 H 0.13422 0.01755 0.80283 0.0
H1249 H 0.08627 0.98063 0.8074 0.0
C1250 C 0.08916 0.98059 0.88028 0.0
C1251 C 0.09891 0.98601 0.918 0.0
C1252 C 0.12686 0.01236 0.77457 0.0
C1253 C 0.10881 0.99492 0.82891 0.0
C1254 C 0.1299 0.01843 0.73016 0.0
C1255 C 0.12002 0.01243 0.69323 0.0
C1256 C 0.11381 1.0003 0.782 0.0
C1257 C 0.10781 0.99964 0.7018 0.0
C1258 C 0.09408 0.98495 0.83587 0.0
C1259 C 0.1136 0.99591 0.90974 0.0
N1260 N 0.10493 0.99415 0.74532 0.0
N1261 N 0.11808 1.00012 0.86601 0.0
H1262 H 0.74737 0.32641 0.6831 0.0
H1263 H 0.72852 0.39289 0.48424 0.0
H1264 H 0.75325 0.38063 0.70751 0.0
H1265 H 0.74999 0.34281 0.45972 0.0
H1266 H 0.73377 0.38902 0.56681 0.0
H1267 H 0.74317 0.33232 0.60164 0.0
C1268 C 0.74751 0.3396 0.67152 0.0
C1269 C 0.7507 0.35305 0.70226 0.0
C1270 C 0.73749 0.37902 0.54312 0.0
C1271 C 0.74599 0.35985 0.60879 0.0
C1272 C 0.73458 0.38122 0.49607 0.0
C1273 C 0.73879 0.36814 0.46498 0.0
C1274 C 0.74428 0.36349 0.55911 0.0
C1275 C 0.74655 0.35326 0.48228 0.0
C1276 C 0.7453 0.34293 0.62489 0.0
C1277 C 0.75085 0.36987 0.68499 0.0
N1278 N 0.74879 0.35124 0.52819 0.0
N1279 N 0.74849 0.37282 0.63931 0.0
H1280 H 0.14321 0.41148 0.06863 0.0
H1281 H 0.15921 0.39124 0.32684 0.0
H1282 H 0.10408 0.4221 0.16915 0.0
H1283 H 0.17805 0.35709 0.22211 0.0
H1284 H 0.13965 0.40391 0.27027 0.0
H1285 H 0.15716 0.39231 0.12392 0.0
C1286 C 0.13739 0.40953 0.10199 0.0
C1287 C 0.12249 0.41843 0.11431 0.0
C1288 C 0.14786 0.39343 0.25999 0.0
C1289 C 0.13863 0.39698 0.17801 0.0
C1290 C 0.15902 0.38622 0.29219 0.0
C1291 C 0.17024 0.37309 0.27919 0.0
C1292 C 0.14831 0.3878 0.21421 0.0
C1293 C 0.16953 0.36712 0.23371 0.0
C1294 C 0.14534 0.39861 0.13348 0.0
C1295 C 0.11553 0.41548 0.15812 0.0
N1296 N 0.159 0.37474 0.20262 0.0
N1297 N 0.12385 0.4053 0.18876 0.0
H1298 H 0.90059 0.91255 0.50198 0.0
H1299 H 0.81173 0.90567 0.37493 0.0
H1300 H 0.8545 0.93746 0.54893 0.0
H1301 H 0.84482 0.86141 0.37712 0.0
H1302 H 0.83048 0.91976 0.42955 0.0
H1303 H 0.88307 0.89492 0.44982 0.0
C1304 C 0.88682 0.9141 0.50201 0.0
C1305 C 0.87903 0.92665 0.52962 0.0
C1306 C 0.83368 0.90697 0.41807 0.0
C1307 C 0.85916 0.90693 0.46949 0.0
C1308 C 0.82305 0.89893 0.38649 0.0
C1309 C 0.82662 0.88225 0.37143 0.0
C1310 C 0.84824 0.89848 0.43455 0.0
C1311 C 0.84156 0.87426 0.38789 0.0
C1312 C 0.87688 0.90409 0.47214 0.0
C1313 C 0.86114 0.92813 0.52807 0.0
N1314 N 0.8519 0.88248 0.4186 0.0
N1315 N 0.85189 0.91861 0.49807 0.0
H1316 H 0.36904 0.58078 0.57669 0.0
H1317 H 0.34531 0.63955 0.79254 0.0
H1318 H 0.40474 0.5891 0.68762 0.0
H1319 H 0.30866 0.61151 0.71111 0.0
H1320 H 0.36856 0.62698 0.7461 0.0
H1321 H 0.34823 0.59872 0.61637 0.0
C1322 C 0.37265 0.58662 0.60897 0.0
C1323 C 0.38862 0.58322 0.62909 0.0
C1324 C 0.35539 0.6237 0.73848 0.0
C1325 C 0.36473 0.60375 0.67487 0.0
C1326 C 0.34217 0.63085 0.76485 0.0
C1327 C 0.32507 0.62638 0.75602 0.0
C1328 C 0.35135 0.6124 0.70249 0.0
C1329 C 0.32166 0.61512 0.71963 0.0
C1330 C 0.3607 0.59678 0.63176 0.0
C1331 C 0.39253 0.59124 0.67104 0.0
N1332 N 0.33464 0.60858 0.69423 0.0
N1333 N 0.38061 0.60103 0.69278 0.0
H1334 H 0.66398 0.12133 0.81051 0.0
H1335 H 0.65012 0.09119 0.06491 0.0
H1336 H 0.68782 0.14775 0.92378 0.0
H1337 H 0.61082 0.08439 0.96244 0.0
H1338 H 0.66455 0.11162 0.01394 0.0
H1339 H 0.64458 0.10721 0.86484 0.0
C1340 C 0.66496 0.12436 0.84669 0.0
C1341 C 0.67759 0.13569 0.8626 0.0
C1342 C 0.65261 0.10587 1.00298 0.0
C1343 C 0.65571 0.1193 0.92498 0.0
C1344 C 0.64438 0.09422 0.03203 0.0
C1345 C 0.62926 0.08607 0.01792 0.0
C1346 C 0.64591 0.10906 0.95901 0.0
C1347 C 0.62241 0.09043 0.97484 0.0
C1348 C 0.65387 0.11632 0.87766 0.0
C1349 C 0.67827 0.13914 0.90993 0.0
N1350 N 0.63095 0.10138 0.94656 0.0
N1351 N 0.66771 0.13074 0.93952 0.0
H1352 H 0.18291 0.60054 0.3505 0.0
H1353 H 0.10096 0.6026 0.50828 0.0
H1354 H 0.16292 0.64958 0.39271 0.0
H1355 H 0.14185 0.56607 0.52653 0.0
H1356 H 0.11974 0.61939 0.45717 0.0
H1357 H 0.16332 0.58648 0.40364 0.0
C1358 C 0.17423 0.60838 0.37041 0.0
C1359 C 0.17463 0.62631 0.36719 0.0
C1360 C 0.12456 0.60779 0.47296 0.0
C1361 C 0.15212 0.61016 0.42825 0.0
C1362 C 0.11391 0.59824 0.50214 0.0
C1363 C 0.11981 0.58288 0.52177 0.0
C1364 C 0.14098 0.60165 0.46252 0.0
C1365 C 0.1367 0.57781 0.51242 0.0
C1366 C 0.16316 0.60032 0.40106 0.0
C1367 C 0.16307 0.63573 0.39422 0.0
N1368 N 0.14655 0.58701 0.48296 0.0
N1369 N 0.1522 0.62754 0.42363 0.0
H1370 H 0.64017 0.93189 0.57727 0.0
H1371 H 0.66009 0.86661 0.78222 0.0
H1372 H 0.60152 0.91849 0.67702 0.0
H1373 H 0.69764 0.8996 0.71882 0.0
H1374 H 0.63773 0.88028 0.73482 0.0
H1375 H 0.66063 0.91398 0.61846 0.0
C1376 C 0.63587 0.92496 0.60737 0.0
C1377 C 0.61912 0.92687 0.62395 0.0
C1378 C 0.6509 0.88443 0.73145 0.0
C1379 C 0.64259 0.90636 0.67144 0.0
C1380 C 0.66362 0.87667 0.75839 0.0
C1381 C 0.68071 0.88211 0.75483 0.0
C1382 C 0.65546 0.89736 0.70008 0.0
C1383 C 0.68462 0.89514 0.72324 0.0
C1384 C 0.64761 0.91482 0.63106 0.0
C1385 C 0.61435 0.9175 0.66323 0.0
N1386 N 0.67214 0.90222 0.69704 0.0
N1387 N 0.62606 0.90772 0.68587 0.0
H1388 H 0.34552 0.38799 0.82356 0.0
H1389 H 0.35724 0.42161 0.07494 0.0
H1390 H 0.32063 0.36331 0.93825 0.0
H1391 H 0.39777 0.42654 0.97519 0.0
H1392 H 0.34333 0.40042 0.02548 0.0
H1393 H 0.36465 0.40267 0.87751 0.0
C1394 C 0.34424 0.38546 0.85998 0.0
C1395 C 0.3314 0.37446 0.87637 0.0
C1396 C 0.35543 0.40592 0.01481 0.0
C1397 C 0.35299 0.39145 0.9382 0.0
C1398 C 0.36337 0.418 0.04303 0.0
C1399 C 0.37864 0.42592 0.0291 0.0
C1400 C 0.36256 0.40206 0.97179 0.0
C1401 C 0.38601 0.42077 0.98732 0.0
C1402 C 0.35518 0.39381 0.89072 0.0
C1403 C 0.33034 0.37167 0.92399 0.0
N1404 N 0.37773 0.40942 0.95968 0.0
N1405 N 0.34077 0.38033 0.95324 0.0
H1406 H 0.81904 0.10023 0.2782 0.0
H1407 H 0.90468 0.10286 0.13452 0.0
H1408 H 0.84211 0.14916 0.2473 0.0
H1409 H 0.86372 0.0671 0.10739 0.0
H1410 H 0.88512 0.11928 0.18407 0.0
H1411 H 0.83926 0.08649 0.22636 0.0
C1412 C 0.82851 0.10809 0.26101 0.0
C1413 C 0.82883 0.12591 0.26707 0.0
C1414 C 0.88047 0.10794 0.1667 0.0
C1415 C 0.85206 0.11015 0.20746 0.0
C1416 C 0.89157 0.09859 0.13839 0.0
C1417 C 0.88588 0.08353 0.1168 0.0
C1418 C 0.86377 0.1019 0.17421 0.0
C1419 C 0.86874 0.07859 0.1232 0.0
C1420 C 0.83994 0.10023 0.23107 0.0
C1421 C 0.84139 0.1354 0.24351 0.0
N1422 N 0.85842 0.08758 0.1518 0.0
N1423 N 0.85259 0.12739 0.21476 0.0
H1424 H 0.90762 0.59101 0.95009 0.0
H1425 H 0.8095 0.60901 0.91099 0.0
H1426 H 0.86893 0.5791 0.05105 0.0
H1427 H 0.84729 0.64182 0.848 0.0
H1428 H 0.83181 0.59607 0.95771 0.0
H1429 H 0.88664 0.60859 0.90858 0.0
C1430 C 0.89483 0.5923 0.96396 0.0
C1431 C 0.89001 0.58344 1.00399 0.0
C1432 C 0.83526 0.60614 0.93383 0.0
C1433 C 0.86597 0.6032 0.95621 0.0
C1434 C 0.82255 0.61344 0.90676 0.0
C1435 C 0.82656 0.62645 0.87525 0.0
C1436 C 0.85227 0.61158 0.92898 0.0
C1437 C 0.84368 0.63181 0.87183 0.0
C1438 C 0.88289 0.60233 0.94022 0.0
C1439 C 0.87325 0.58561 0.02033 0.0
N1440 N 0.856 0.6242 0.89806 0.0
N1441 N 0.86179 0.59503 0.99602 0.0
H1442 H 0.10309 0.09414 0.67231 0.0
H1443 H 0.19663 0.09796 0.77029 0.0
H1444 H 0.14536 0.06873 0.60566 0.0
H1445 H 0.16664 0.14434 0.76971 0.0
H1446 H 0.17517 0.08433 0.72161 0.0
H1447 H 0.12374 0.1108 0.71805 0.0
C1448 C 0.11667 0.09223 0.66684 0.0
C1449 C 0.1225 0.08001 0.63511 0.0
C1450 C 0.17327 0.09747 0.73229 0.0
C1451 C 0.14597 0.09855 0.68805 0.0
C1452 C 0.18541 0.10523 0.76043 0.0
C1453 C 0.18341 0.12232 0.77415 0.0
C1454 C 0.15877 0.1067 0.71846 0.0
C1455 C 0.16866 0.13114 0.75981 0.0
C1456 C 0.12839 0.10171 0.69292 0.0
C1457 C 0.14024 0.07802 0.62952 0.0
N1458 N 0.15678 0.12317 0.73294 0.0
N1459 N 0.15132 0.08696 0.65628 0.0
H1460 H 0.68074 0.36059 0.43976 0.0
H1461 H 0.60713 0.43078 0.46945 0.0
H1462 H 0.66112 0.39077 0.32726 0.0
H1463 H 0.64125 0.41591 0.57901 0.0
H1464 H 0.62176 0.41073 0.41827 0.0
H1465 H 0.66119 0.37541 0.49184 0.0
C1466 C 0.67209 0.37009 0.42579 0.0
C1467 C 0.67264 0.37452 0.37903 0.0
C1468 C 0.62588 0.41171 0.45368 0.0
C1469 C 0.65024 0.3915 0.4386 0.0
C1470 C 0.61748 0.42306 0.48305 0.0
C1471 C 0.62305 0.42511 0.52859 0.0
C1472 C 0.6398 0.40215 0.47007 0.0
C1473 C 0.6366 0.41483 0.54411 0.0
C1474 C 0.66102 0.37862 0.45565 0.0
C1475 C 0.6612 0.38703 0.36306 0.0
N1476 N 0.64456 0.40383 0.51487 0.0
N1477 N 0.65051 0.39513 0.39281 0.0
H1478 H 0.36782 0.93324 0.08463 0.0
H1479 H 0.34692 0.86302 0.2771 0.0
H1480 H 0.40748 0.91184 0.17047 0.0
H1481 H 0.31082 0.90026 0.22602 0.0
H1482 H 0.36931 0.87637 0.2292 0.0
H1483 H 0.34672 0.91593 0.12533 0.0
C1484 C 0.37217 0.9247 0.11152 0.0
C1485 C 0.38947 0.92419 0.12447 0.0
C1486 C 0.35645 0.88154 0.22865 0.0
C1487 C 0.36525 0.90437 0.17156 0.0
C1488 C 0.34372 0.87397 0.25595 0.0
C1489 C 0.32702 0.88063 0.25591 0.0
C1490 C 0.3523 0.89558 0.20053 0.0
C1491 C 0.32353 0.89478 0.22765 0.0
C1492 C 0.36007 0.91489 0.13499 0.0
C1493 C 0.39427 0.91276 0.15956 0.0
N1494 N 0.336 0.9017 0.20106 0.0
N1495 N 0.3822 0.90338 0.18218 0.0
H1496 H 0.84051 0.36788 0.79249 0.0
H1497 H 0.86966 0.42862 0.58426 0.0
H1498 H 0.80604 0.39447 0.70126 0.0
H1499 H 0.90356 0.41508 0.69556 0.0
H1500 H 0.84748 0.41066 0.61844 0.0
H1501 H 0.86487 0.38024 0.74997 0.0
C1502 C 0.83807 0.37619 0.76342 0.0
C1503 C 0.82124 0.38032 0.75075 0.0
C1504 C 0.85983 0.41147 0.63517 0.0
C1505 C 0.84887 0.39422 0.7018 0.0
C1506 C 0.87256 0.42166 0.61549 0.0
C1507 C 0.88846 0.42357 0.63734 0.0
C1508 C 0.86297 0.40306 0.67702 0.0
C1509 C 0.89145 0.41412 0.67771 0.0
C1510 C 0.85194 0.38324 0.73924 0.0
C1511 C 0.81879 0.39111 0.71271 0.0
N1512 N 0.87876 0.40441 0.69652 0.0
N1513 N 0.8324 0.39766 0.68972 0.0
H1514 H 0.36602 0.09355 0.57877 0.0
H1515 H 0.34634 0.11608 0.31937 0.0
H1516 H 0.39892 0.07738 0.468 0.0
H1517 H 0.32656 0.14612 0.43171 0.0
H1518 H 0.36588 0.10184 0.3729 0.0
H1519 H 0.3515 0.1131 0.5258 0.0
C1520 C 0.37036 0.0943 0.5435 0.0
C1521 C 0.38366 0.08376 0.52781 0.0
C1522 C 0.35744 0.11173 0.38569 0.0
C1523 C 0.36689 0.10586 0.46679 0.0
C1524 C 0.34627 0.11985 0.35514 0.0
C1525 C 0.33474 0.13226 0.37105 0.0
C1526 C 0.35686 0.11581 0.43264 0.0
C1527 C 0.33523 0.13664 0.41784 0.0
C1528 C 0.36207 0.10546 0.51327 0.0
C1529 C 0.38874 0.08527 0.48168 0.0
N1530 N 0.34591 0.12825 0.44707 0.0
N1531 N 0.38019 0.0959 0.45265 0.0
H1532 H 0.59797 0.5899 0.18694 0.0
H1533 H 0.69638 0.61001 0.21173 0.0
H1534 H 0.63494 0.57768 0.08187 0.0
H1535 H 0.65892 0.64051 0.28334 0.0
H1536 H 0.67359 0.59717 0.1664 0.0
H1537 H 0.61931 0.60826 0.22418 0.0
C1538 C 0.61046 0.59131 0.17122 0.0
C1539 C 0.61472 0.58208 0.13142 0.0
C1540 C 0.6703 0.60674 0.1918 0.0
C1541 C 0.63922 0.60279 0.17437 0.0
C1542 C 0.6833 0.61397 0.21806 0.0
C1543 C 0.67952 0.62623 0.25174 0.0
C1544 C 0.65325 0.61149 0.19966 0.0
C1545 C 0.66236 0.63105 0.25783 0.0
C1546 C 0.62262 0.60179 0.19255 0.0
C1547 C 0.63108 0.58446 0.11256 0.0
N1548 N 0.64978 0.62349 0.23241 0.0
N1549 N 0.6428 0.59434 0.13462 0.0
H1550 H 0.19514 0.89862 0.90912 0.0
H1551 H 0.09624 0.91104 0.9539 0.0
H1552 H 0.15851 0.86301 0.85257 0.0
H1553 H 0.13546 0.92924 0.04627 0.0
H1554 H 0.11786 0.89379 0.91404 0.0
H1555 H 0.17262 0.91119 0.95561 0.0
C1556 C 0.1823 0.89348 0.90623 0.0
C1557 C 0.17869 0.8798 0.87658 0.0
C1558 C 0.12162 0.90136 0.9435 0.0
C1559 C 0.15271 0.89423 0.9302 0.0
C1560 C 0.10931 0.91119 0.96635 0.0
C1561 C 0.11405 0.92178 1.00325 0.0
C1562 C 0.13881 0.90236 0.95725 0.0
C1563 C 0.13117 0.92141 0.01786 0.0
C1564 C 0.16946 0.90059 0.93321 0.0
C1565 C 0.16182 0.87358 0.87489 0.0
N1566 N 0.14294 0.9121 0.9944 0.0
N1567 N 0.14936 0.88097 0.90104 0.0
loop_
_geom_bond_atom_site_label_1
_geom_bond_atom_site_label_2
_geom_bond_distance
_geom_bond_site_symmetry_2
_ccdc_geom_bond_type
Mg0 O7 2.141 . S
Mg0 O8 2.048 . S
Mg0 O9 2.048 . S
Mg0 O12 2.141 . S
C1 O2 1.313 . S
C1 O8 1.195 . S
O2 C1 1.313 . S
C3 O4 1.245 . S
C3 O12 1.289 1_556 S
O4 C3 1.245 . S
C5 O6 1.245 . S
C5 O7 1.289 . S
O6 C5 1.245 . S
O7 Mg0 2.141 . S
O7 C5 1.289 . S
O8 Mg0 2.048 . S
O8 C1 1.195 . S
O9 Mg0 2.048 . S
O9 C10 1.195 . S
C10 O9 1.195 . S
C10 O11 1.313 . S
O11 C10 1.313 . S
O12 Mg0 2.141 . S
O12 C3 1.289 1_554 S
Mg13 O20 2.141 . S
Mg13 O21 2.048 . S
Mg13 O22 2.048 . S
Mg13 O25 2.141 . S
C14 O15 1.313 . S
C14 O21 1.195 . S
O15 C14 1.313 . S
C16 O17 1.245 . S
C16 O25 1.289 . S
O17 C16 1.245 . S
C18 O19 1.245 . S
C18 O20 1.289 . S
O19 C18 1.245 . S
O20 Mg13 2.141 . S
O20 C18 1.289 . S
O21 Mg13 2.048 . S
O21 C14 1.195 . S
O22 Mg13 2.048 . S
O22 C23 1.195 . S
C23 O22 1.195 . S
C23 O24 1.313 . S
O24 C23 1.313 . S
O25 Mg13 2.141 . S
O25 C16 1.289 . S
Mg26 O33 2.141 . S
Mg26 O34 2.048 . S
Mg26 O35 2.048 . S
Mg26 O38 2.141 . S
C27 O28 1.313 . S
C27 O34 1.195 . S
O28 C27 1.313 . S
C29 O30 1.245 . S
C29 O38 1.289 . S
O30 C29 1.245 . S
C31 O32 1.245 . S
C31 O33 1.289 . S
O32 C31 1.245 . S
O33 Mg26 2.141 . S
O33 C31 1.289 . S
O34 Mg26 2.048 . S
O34 C27 1.195 . S
O35 Mg26 2.048 . S
O35 C36 1.195 . S
C36 O35 1.195 . S
C36 O37 1.313 . S
O37 C36 1.313 . S
O38 Mg26 2.141 . S
O38 C29 1.289 . S
Mg39 O46 2.141 . S
Mg39 O47 2.048 . S
Mg39 O48 2.048 . S
Mg39 O51 2.141 . S
C40 O41 1.313 . S
C40 O47 1.195 . S
O41 C40 1.313 . S
C42 O43 1.245 . S
C42 O51 1.289 . S
O43 C42 1.245 . S
C44 O45 1.245 . S
C44 O46 1.289 . S
O45 C44 1.245 . S
O46 Mg39 2.141 . S
O46 C44 1.289 . S
O47 Mg39 2.048 . S
O47 C40 1.195 . S
O48 Mg39 2.048 . S
O48 C49 1.195 . S
C49 O48 1.195 . S
C49 O50 1.313 . S
O50 C49 1.313 . S
O51 Mg39 2.141 . S
O51 C42 1.289 . S
Mg52 O59 2.141 . S
Mg52 O60 2.048 . S
Mg52 O61 2.048 . S
Mg52 O64 2.141 . S
C53 O54 1.313 . S
C53 O60 1.195 . S
O54 C53 1.313 . S
C55 O56 1.245 . S
C55 O64 1.289 . S
O56 C55 1.245 . S
C57 O58 1.245 . S
C57 O59 1.289 . S
O58 C57 1.245 . S
O59 Mg52 2.141 . S
O59 C57 1.289 . S
O60 Mg52 2.048 . S
O60 C53 1.195 . S
O61 Mg52 2.048 . S
O61 C62 1.195 . S
C62 O61 1.195 . S
C62 O63 1.313 . S
O63 C62 1.313 . S
O64 Mg52 2.141 . S
O64 C55 1.289 . S
Mg65 O72 2.141 . S
Mg65 O73 2.048 . S
Mg65 O74 2.048 . S
Mg65 O77 2.141 . S
C66 O67 1.313 . S
C66 O73 1.195 . S
O67 C66 1.313 . S
C68 O69 1.245 . S
C68 O77 1.289 . S
O69 C68 1.245 . S
C70 O71 1.245 . S
C70 O72 1.289 . S
O71 C70 1.245 . S
O72 Mg65 2.141 . S
O72 C70 1.289 . S
O73 Mg65 2.048 . S
O73 C66 1.195 . S
O74 Mg65 2.048 . S
O74 C75 1.195 . S
C75 O74 1.195 . S
C75 O76 1.313 . S
O76 C75 1.313 . S
O77 Mg65 2.141 . S
O77 C68 1.289 . S
Mg78 O85 2.141 . S
Mg78 O86 2.048 1_554 S
Mg78 O87 2.048 . S
Mg78 O90 2.141 . S
C79 O80 1.313 . S
C79 O86 1.195 . S
O80 C79 1.313 . S
C81 O82 1.245 . S
C81 O90 1.289 . S
O82 C81 1.245 . S
C83 O84 1.245 . S
C83 O85 1.289 . S
O84 C83 1.245 . S
O85 Mg78 2.141 . S
O85 C83 1.289 . S
O86 Mg78 2.048 1_556 S
O86 C79 1.195 . S
O87 Mg78 2.048 . S
O87 C88 1.195 . S
C88 O87 1.195 . S
C88 O89 1.313 . S
O89 C88 1.313 . S
O90 Mg78 2.141 . S
O90 C81 1.289 . S
Mg91 O98 2.141 . S
Mg91 O99 2.048 . S
Mg91 O100 2.048 . S
Mg91 O103 2.141 . S
C92 O93 1.313 . S
C92 O99 1.195 . S
O93 C92 1.313 . S
C94 O95 1.245 . S
C94 O103 1.289 . S
O95 C94 1.245 . S
C96 O97 1.245 . S
C96 O98 1.289 . S
O97 C96 1.245 . S
O98 Mg91 2.141 . S
O98 C96 1.289 . S
O99 Mg91 2.048 . S
O99 C92 1.195 . S
O100 Mg91 2.048 . S
O100 C101 1.195 . S
C101 O100 1.195 . S
C101 O102 1.313 . S
O102 C101 1.313 . S
O103 Mg91 2.141 . S
O103 C94 1.289 . S
Mg104 O111 2.141 . S
Mg104 O112 2.048 . S
Mg104 O113 2.048 1_554 S
Mg104 O116 2.141 . S
C105 O106 1.313 . S
C105 O112 1.195 . S
O106 C105 1.313 . S
C107 O108 1.245 . S
C107 O116 1.289 . S
O108 C107 1.245 . S
C109 O110 1.245 . S
C109 O111 1.289 . S
O110 C109 1.245 . S
O111 Mg104 2.141 . S
O111 C109 1.289 . S
O112 Mg104 2.048 . S
O112 C105 1.195 . S
O113 Mg104 2.048 1_556 S
O113 C114 1.195 . S
C114 O113 1.195 . S
C114 O115 1.313 . S
O115 C114 1.313 . S
O116 Mg104 2.141 . S
O116 C107 1.289 . S
Mg117 O124 2.141 . S
Mg117 O125 2.048 . S
Mg117 O126 2.048 . S
Mg117 O129 2.141 . S
C118 O119 1.313 . S
C118 O125 1.195 . S
O119 C118 1.313 . S
C120 O121 1.245 . S
C120 O129 1.289 . S
O121 C120 1.245 . S
C122 O123 1.245 . S
C122 O124 1.289 . S
O123 C122 1.245 . S
O124 Mg117 2.141 . S
O124 C122 1.289 . S
O125 Mg117 2.048 . S
O125 C118 1.195 . S
O126 Mg117 2.048 . S
O126 C127 1.195 . S
C127 O126 1.195 . S
C127 O128 1.313 . S
O128 C127 1.313 . S
O129 Mg117 2.141 . S
O129 C120 1.289 . S
Mg130 O137 2.141 . S
Mg130 O138 2.048 . S
Mg130 O139 2.048 . S
Mg130 O142 2.141 . S
C131 O132 1.313 . S
C131 O138 1.195 . S
O132 C131 1.313 . S
C133 O134 1.245 . S
C133 O142 1.289 . S
O134 C133 1.245 . S
C135 O136 1.245 . S
C135 O137 1.289 . S
O136 C135 1.245 . S
O137 Mg130 2.141 . S
O137 C135 1.289 . S
O138 Mg130 2.048 . S
O138 C131 1.195 . S
O139 Mg130 2.048 . S
O139 C140 1.195 . S
C140 O139 1.195 . S
C140 O141 1.313 . S
O141 C140 1.313 . S
O142 Mg130 2.141 . S
O142 C133 1.289 . S
Mg143 O150 2.141 . S
Mg143 O151 2.048 . S
Mg143 O152 2.048 . S
Mg143 O155 2.141 . S
C144 O145 1.313 . S
C144 O151 1.195 . S
O145 C144 1.313 . S
C146 O147 1.245 . S
C146 O155 1.289 . S
O147 C146 1.245 . S
C148 O149 1.245 . S
C148 O150 1.289 . S
O149 C148 1.245 . S
O150 Mg143 2.141 . S
O150 C148 1.289 . S
O151 Mg143 2.048 . S
O151 C144 1.195 . S
O152 Mg143 2.048 . S
O152 C153 1.195 . S
C153 O152 1.195 . S
C153 O154 1.313 . S
O154 C153 1.313 . S
O155 Mg143 2.141 . S
O155 C146 1.289 . S
Mg156 O163 2.141 . S
Mg156 O164 2.048 . S
Mg156 O165 2.048 . S
Mg156 O168 2.141 . S
C157 O158 1.313 . S
C157 O164 1.195 . S
O158 C157 1.313 . S
C159 O160 1.245 . S
C159 O168 1.289 . S
O160 C159 1.245 . S
C161 O162 1.245 . S
C161 O163 1.289 . S
O162 C161 1.245 . S
O163 Mg156 2.141 . S
O163 C161 1.289 . S
O164 Mg156 2.048 . S
O164 C157 1.195 . S
O165 Mg156 2.048 . S
O165 C166 1.195 . S
C166 O165 1.195 . S
C166 O167 1.313 . S
O167 C166 1.313 . S
O168 Mg156 2.141 . S
O168 C159 1.289 . S
Mg169 O176 2.141 . S
Mg169 O177 2.048 . S
Mg169 O178 2.048 . S
Mg169 O181 2.141 . S
C170 O171 1.313 . S
C170 O177 1.195 . S
O171 C170 1.313 . S
C172 O173 1.245 . S
C172 O181 1.289 . S
O173 C172 1.245 . S
C174 O175 1.245 . S
C174 O176 1.289 . S
O175 C174 1.245 . S
O176 Mg169 2.141 . S
O176 C174 1.289 . S
O177 Mg169 2.048 . S
O177 C170 1.195 . S
O178 Mg169 2.048 . S
O178 C179 1.195 . S
C179 O178 1.195 . S
C179 O180 1.313 . S
O180 C179 1.313 . S
O181 Mg169 2.141 . S
O181 C172 1.289 . S
Mg182 O189 2.141 . S
Mg182 O190 2.048 . S
Mg182 O191 2.048 . S
Mg182 O194 2.141 . S
C183 O184 1.313 . S
C183 O190 1.195 . S
O184 C183 1.313 . S
C185 O186 1.245 . S
C185 O194 1.289 . S
O186 C185 1.245 . S
C187 O188 1.245 . S
C187 O189 1.289 1_556 S
O188 C187 1.245 . S
O189 Mg182 2.141 . S
O189 C187 1.289 1_554 S
O190 Mg182 2.048 . S
O190 C183 1.195 . S
O191 Mg182 2.048 . S
O191 C192 1.195 . S
C192 O191 1.195 . S
C192 O193 1.313 . S
O193 C192 1.313 . S
O194 Mg182 2.141 . S
O194 C185 1.289 . S
Mg195 O202 2.141 . S
Mg195 O203 2.048 . S
Mg195 O204 2.048 . S
Mg195 O207 2.141 . S
C196 O197 1.313 . S
C196 O203 1.195 . S
O197 C196 1.313 . S
C198 O199 1.245 . S
C198 O207 1.289 . S
O199 C198 1.245 . S
C200 O201 1.245 . S
C200 O202 1.289 . S
O201 C200 1.245 . S
O202 Mg195 2.141 . S
O202 C200 1.289 . S
O203 Mg195 2.048 . S
O203 C196 1.195 . S
O204 Mg195 2.048 . S
O204 C205 1.195 . S
C205 O204 1.195 . S
C205 O206 1.313 . S
O206 C205 1.313 . S
O207 Mg195 2.141 . S
O207 C198 1.289 . S
Mg208 O215 2.141 . S
Mg208 O216 2.048 . S
Mg208 O217 2.048 1_565 S
Mg208 O220 2.141 . S
C209 O210 1.313 . S
C209 O216 1.195 . S
O210 C209 1.313 . S
C211 O212 1.245 . S
C211 O220 1.289 . S
O212 C211 1.245 . S
C213 O214 1.245 . S
C213 O215 1.289 . S
O214 C213 1.245 . S
O215 Mg208 2.141 . S
O215 C213 1.289 . S
O216 Mg208 2.048 . S
O216 C209 1.195 . S
O217 Mg208 2.048 1_545 S
O217 C218 1.195 . S
C218 O217 1.195 . S
C218 O219 1.313 1_545 S
O219 C218 1.313 1_565 S
O220 Mg208 2.141 . S
O220 C211 1.289 . S
Mg221 O228 2.141 . S
Mg221 O229 2.048 . S
Mg221 O230 2.048 . S
Mg221 O233 2.141 . S
C222 O223 1.313 . S
C222 O229 1.195 . S
O223 C222 1.313 . S
C224 O225 1.245 . S
C224 O233 1.289 . S
O225 C224 1.245 . S
C226 O227 1.245 . S
C226 O228 1.289 . S
O227 C226 1.245 . S
O228 Mg221 2.141 . S
O228 C226 1.289 . S
O229 Mg221 2.048 . S
O229 C222 1.195 . S
O230 Mg221 2.048 . S
O230 C231 1.195 . S
C231 O230 1.195 . S
C231 O232 1.313 . S
O232 C231 1.313 . S
O233 Mg221 2.141 . S
O233 C224 1.289 . S
Mg234 O241 2.141 . S
Mg234 O242 2.048 . S
Mg234 O243 2.048 1_545 S
Mg234 O246 2.141 . S
C235 O236 1.313 . S
C235 O242 1.195 . S
O236 C235 1.313 . S
C237 O238 1.245 . S
C237 O246 1.289 1_556 S
O238 C237 1.245 . S
C239 O240 1.245 . S
C239 O241 1.289 . S
O240 C239 1.245 . S
O241 Mg234 2.141 . S
O241 C239 1.289 . S
O242 Mg234 2.048 . S
O242 C235 1.195 . S
O243 Mg234 2.048 1_565 S
O243 C244 1.195 . S
C244 O243 1.195 . S
C244 O245 1.313 1_565 S
O245 C244 1.313 1_545 S
O246 Mg234 2.141 . S
O246 C237 1.289 1_554 S
Mg247 O254 2.141 . S
Mg247 O255 2.048 . S
Mg247 O256 2.048 . S
Mg247 O259 2.141 . S
C248 O249 1.313 . S
C248 O255 1.195 . S
O249 C248 1.313 . S
C250 O251 1.245 . S
C250 O259 1.289 . S
O251 C250 1.245 . S
C252 O253 1.245 . S
C252 O254 1.289 . S
O253 C252 1.245 . S
O254 Mg247 2.141 . S
O254 C252 1.289 . S
O255 Mg247 2.048 . S
O255 C248 1.195 . S
O256 Mg247 2.048 . S
O256 C257 1.195 . S
C257 O256 1.195 . S
C257 O258 1.313 . S
O258 C257 1.313 . S
O259 Mg247 2.141 . S
O259 C250 1.289 . S
Mg260 O267 2.141 . S
Mg260 O268 2.048 1_554 S
Mg260 O269 2.048 1_545 S
Mg260 O272 2.141 . S
C261 O262 1.313 . S
C261 O268 1.195 . S
O262 C261 1.313 . S
C263 O264 1.245 . S
C263 O272 1.289 . S
O264 C263 1.245 . S
C265 O266 1.245 . S
C265 O267 1.289 . S
O266 C265 1.245 . S
O267 Mg260 2.141 . S
O267 C265 1.289 . S
O268 Mg260 2.048 1_556 S
O268 C261 1.195 . S
O269 Mg260 2.048 1_565 S
O269 C270 1.195 . S
C270 O269 1.195 . S
C270 O271 1.313 1_565 S
O271 C270 1.313 1_545 S
O272 Mg260 2.141 . S
O272 C263 1.289 . S
Mg273 O280 2.141 . S
Mg273 O281 2.048 . S
Mg273 O282 2.048 . S
Mg273 O285 2.141 . S
C274 O275 1.313 . S
C274 O281 1.195 . S
O275 C274 1.313 . S
C276 O277 1.245 . S
C276 O285 1.289 . S
O277 C276 1.245 . S
C278 O279 1.245 . S
C278 O280 1.289 . S
O279 C278 1.245 . S
O280 Mg273 2.141 . S
O280 C278 1.289 . S
O281 Mg273 2.048 . S
O281 C274 1.195 . S
O282 Mg273 2.048 . S
O282 C283 1.195 . S
C283 O282 1.195 . S
C283 O284 1.313 . S
O284 C283 1.313 . S
O285 Mg273 2.141 . S
O285 C276 1.289 . S
Mg286 O293 2.141 . S
Mg286 O294 2.048 . S
Mg286 O295 2.048 1_565 S
Mg286 O298 2.141 . S
C287 O288 1.313 . S
C287 O294 1.195 . S
O288 C287 1.313 . S
C289 O290 1.245 . S
C289 O298 1.289 . S
O290 C289 1.245 . S
C291 O292 1.245 . S
C291 O293 1.289 . S
O292 C291 1.245 . S
O293 Mg286 2.141 . S
O293 C291 1.289 . S
O294 Mg286 2.048 . S
O294 C287 1.195 . S
O295 Mg286 2.048 1_545 S
O295 C296 1.195 . S
C296 O295 1.195 . S
C296 O297 1.313 1_545 S
O297 C296 1.313 1_565 S
O298 Mg286 2.141 . S
O298 C289 1.289 . S
Mg299 O306 2.141 . S
Mg299 O307 2.048 . S
Mg299 O308 2.048 . S
Mg299 O311 2.141 . S
C300 O301 1.313 . S
C300 O307 1.195 . S
O301 C300 1.313 . S
C302 O303 1.245 . S
C302 O311 1.289 . S
O303 C302 1.245 . S
C304 O305 1.245 . S
C304 O306 1.289 . S
O305 C304 1.245 . S
O306 Mg299 2.141 . S
O306 C304 1.289 . S
O307 Mg299 2.048 . S
O307 C300 1.195 . S
O308 Mg299 2.048 . S
O308 C309 1.195 . S
C309 O308 1.195 . S
C309 O310 1.313 . S
O310 C309 1.313 . S
O311 Mg299 2.141 . S
O311 C302 1.289 . S
Mg312 O319 2.141 . S
Mg312 O320 2.048 1_545 S
Mg312 O321 2.048 . S
Mg312 O324 2.141 . S
C313 O314 1.313 1_565 S
C313 O320 1.195 . S
O314 C313 1.313 1_545 S
C315 O316 1.245 . S
C315 O324 1.289 . S
O316 C315 1.245 . S
C317 O318 1.245 . S
C317 O319 1.289 . S
O318 C317 1.245 . S
O319 Mg312 2.141 . S
O319 C317 1.289 . S
O320 Mg312 2.048 1_565 S
O320 C313 1.195 . S
O321 Mg312 2.048 . S
O321 C322 1.195 . S
C322 O321 1.195 . S
C322 O323 1.313 . S
O323 C322 1.313 . S
O324 Mg312 2.141 . S
O324 C315 1.289 . S
Mg325 O332 2.141 . S
Mg325 O333 2.048 . S
Mg325 O334 2.048 . S
Mg325 O337 2.141 . S
C326 O327 1.313 . S
C326 O333 1.195 . S
O327 C326 1.313 . S
C328 O329 1.245 . S
C328 O337 1.289 . S
O329 C328 1.245 . S
C330 O331 1.245 . S
C330 O332 1.289 . S
O331 C330 1.245 . S
O332 Mg325 2.141 . S
O332 C330 1.289 . S
O333 Mg325 2.048 . S
O333 C326 1.195 . S
O334 Mg325 2.048 . S
O334 C335 1.195 . S
C335 O334 1.195 . S
C335 O336 1.313 . S
O336 C335 1.313 . S
O337 Mg325 2.141 . S
O337 C328 1.289 . S
Mg338 O345 2.141 . S
Mg338 O346 2.048 1_565 S
Mg338 O347 2.048 1_554 S
Mg338 O350 2.141 . S
C339 O340 1.313 1_545 S
C339 O346 1.195 . S
O340 C339 1.313 1_565 S
C341 O342 1.245 . S
C341 O350 1.289 . S
O342 C341 1.245 . S
C343 O344 1.245 . S
C343 O345 1.289 . S
O344 C343 1.245 . S
O345 Mg338 2.141 . S
O345 C343 1.289 . S
O346 Mg338 2.048 1_545 S
O346 C339 1.195 . S
O347 Mg338 2.048 1_556 S
O347 C348 1.195 . S
C348 O347 1.195 . S
C348 O349 1.313 . S
O349 C348 1.313 . S
O350 Mg338 2.141 . S
O350 C341 1.289 . S
Mg351 O358 2.141 . S
Mg351 O359 2.048 . S
Mg351 O360 2.048 . S
Mg351 O363 2.141 . S
C352 O353 1.313 . S
C352 O359 1.195 . S
O353 C352 1.313 . S
C354 O355 1.245 . S
C354 O363 1.289 . S
O355 C354 1.245 . S
C356 O357 1.245 . S
C356 O358 1.289 . S
O357 C356 1.245 . S
O358 Mg351 2.141 . S
O358 C356 1.289 . S
O359 Mg351 2.048 . S
O359 C352 1.195 . S
O360 Mg351 2.048 . S
O360 C361 1.195 . S
C361 O360 1.195 . S
C361 O362 1.313 . S
O362 C361 1.313 . S
O363 Mg351 2.141 . S
O363 C354 1.289 . S
Mg364 O371 2.141 . S
Mg364 O372 2.048 1_565 S
Mg364 O373 2.048 . S
Mg364 O376 2.141 . S
C365 O366 1.313 1_545 S
C365 O372 1.195 . S
O366 C365 1.313 1_565 S
C367 O368 1.245 . S
C367 O376 1.289 . S
O368 C367 1.245 . S
C369 O370 1.245 . S
C369 O371 1.289 1_556 S
O370 C369 1.245 . S
O371 Mg364 2.141 . S
O371 C369 1.289 1_554 S
O372 Mg364 2.048 1_545 S
O372 C365 1.195 . S
O373 Mg364 2.048 . S
O373 C374 1.195 . S
C374 O373 1.195 . S
C374 O375 1.313 . S
O375 C374 1.313 . S
O376 Mg364 2.141 . S
O376 C367 1.289 . S
Mg377 O384 2.141 . S
Mg377 O385 2.048 . S
Mg377 O386 2.048 . S
Mg377 O389 2.141 . S
C378 O379 1.313 . S
C378 O385 1.195 . S
O379 C378 1.313 . S
C380 O381 1.245 . S
C380 O389 1.289 . S
O381 C380 1.245 . S
C382 O383 1.245 . S
C382 O384 1.289 . S
O383 C382 1.245 . S
O384 Mg377 2.141 . S
O384 C382 1.289 . S
O385 Mg377 2.048 . S
O385 C378 1.195 . S
O386 Mg377 2.048 . S
O386 C387 1.195 . S
C387 O386 1.195 . S
C387 O388 1.313 . S
O388 C387 1.313 . S
O389 Mg377 2.141 . S
O389 C380 1.289 . S
Mg390 O397 2.141 . S
Mg390 O398 2.048 1_545 S
Mg390 O399 2.048 . S
Mg390 O402 2.141 . S
C391 O392 1.313 1_565 S
C391 O398 1.195 . S
O392 C391 1.313 1_545 S
C393 O394 1.245 . S
C393 O402 1.289 . S
O394 C393 1.245 . S
C395 O396 1.245 . S
C395 O397 1.289 . S
O396 C395 1.245 . S
O397 Mg390 2.141 . S
O397 C395 1.289 . S
O398 Mg390 2.048 1_565 S
O398 C391 1.195 . S
O399 Mg390 2.048 . S
O399 C400 1.195 . S
C400 O399 1.195 . S
C400 O401 1.313 . S
O401 C400 1.313 . S
O402 Mg390 2.141 . S
O402 C393 1.289 . S
Mg403 O410 2.141 . S
Mg403 O411 2.048 . S
Mg403 O412 2.048 . S
Mg403 O415 2.141 . S
C404 O405 1.313 . S
C404 O411 1.195 . S
O405 C404 1.313 . S
C406 O407 1.245 . S
C406 O415 1.289 . S
O407 C406 1.245 . S
C408 O409 1.245 . S
C408 O410 1.289 . S
O409 C408 1.245 . S
O410 Mg403 2.141 . S
O410 C408 1.289 . S
O411 Mg403 2.048 . S
O411 C404 1.195 . S
O412 Mg403 2.048 . S
O412 C413 1.195 . S
C413 O412 1.195 . S
C413 O414 1.313 . S
O414 C413 1.313 . S
O415 Mg403 2.141 . S
O415 C406 1.289 . S
H416 C422 0.930 . S
H417 C426 0.930 . S
H418 C431 0.929 . S
H419 C429 0.929 . S
H420 C424 0.929 . S
H421 C430 0.929 . S
C422 H416 0.930 . S
C422 C423 1.367 . S
C422 C430 1.378 . S
C423 C422 1.367 . S
C423 C431 1.433 . S
C424 H420 0.929 . S
C424 C426 1.378 . S
C424 C428 1.350 . S
C425 C428 1.463 1_655 S
C425 C430 1.350 . S
C425 N433 1.427 . S
C426 H417 0.930 . S
C426 C424 1.378 . S
C426 C427 1.367 . S
C427 C426 1.367 . S
C427 C429 1.433 . S
C428 C424 1.350 . S
C428 C425 1.463 1_455 S
C428 N432 1.427 . S
C429 H419 0.929 . S
C429 C427 1.433 . S
C429 N432 1.384 . S
C430 H421 0.929 . S
C430 C422 1.378 . S
C430 C425 1.350 . S
C431 H418 0.929 . S
C431 C423 1.433 . S
C431 N433 1.384 . S
N432 C428 1.427 . S
N432 C429 1.384 . S
N433 C425 1.427 . S
N433 C431 1.384 . S
H434 C440 0.930 . S
H435 C444 0.930 . S
H436 C449 0.929 . S
H437 C447 0.929 . S
H438 C442 0.929 . S
H439 C448 0.929 . S
C440 H434 0.930 . S
C440 C441 1.367 . S
C440 C448 1.378 . S
C441 C440 1.367 . S
C441 C449 1.433 . S
C442 H438 0.929 . S
C442 C444 1.378 . S
C442 C446 1.350 . S
C443 C446 1.463 . S
C443 C448 1.350 . S
C443 N451 1.427 . S
C444 H435 0.930 . S
C444 C442 1.378 . S
C444 C445 1.367 . S
C445 C444 1.367 . S
C445 C447 1.433 . S
C446 C442 1.350 . S
C446 C443 1.463 . S
C446 N450 1.427 . S
C447 H437 0.929 . S
C447 C445 1.433 . S
C447 N450 1.384 . S
C448 H439 0.929 . S
C448 C440 1.378 . S
C448 C443 1.350 . S
C449 H436 0.929 . S
C449 C441 1.433 . S
C449 N451 1.384 . S
N450 C446 1.427 . S
N450 C447 1.384 . S
N451 C443 1.427 . S
N451 C449 1.384 . S
H452 C458 0.930 . S
H453 C462 0.930 . S
H454 C467 0.929 . S
H455 C465 0.929 . S
H456 C460 0.929 . S
H457 C466 0.929 . S
C458 H452 0.930 . S
C458 C459 1.367 . S
C458 C466 1.378 . S
C459 C458 1.367 . S
C459 C467 1.433 . S
C460 H456 0.929 . S
C460 C462 1.378 . S
C460 C464 1.350 . S
C461 C464 1.463 . S
C461 C466 1.350 . S
C461 N469 1.427 . S
C462 H453 0.930 . S
C462 C460 1.378 . S
C462 C463 1.367 . S
C463 C462 1.367 . S
C463 C465 1.433 . S
C464 C460 1.350 . S
C464 C461 1.463 . S
C464 N468 1.427 . S
C465 H455 0.929 . S
C465 C463 1.433 . S
C465 N468 1.384 . S
C466 H457 0.929 . S
C466 C458 1.378 . S
C466 C461 1.350 . S
C467 H454 0.929 . S
C467 C459 1.433 . S
C467 N469 1.384 . S
N468 C464 1.427 . S
N468 C465 1.384 . S
N469 C461 1.427 . S
N469 C467 1.384 . S
H470 C476 0.930 . S
H471 C480 0.930 . S
H472 C485 0.929 . S
H473 C483 0.929 . S
H474 C478 0.929 . S
H475 C484 0.929 . S
C476 H470 0.930 . S
C476 C477 1.367 . S
C476 C484 1.378 . S
C477 C476 1.367 . S
C477 C485 1.433 . S
C478 H474 0.929 . S
C478 C480 1.378 . S
C478 C482 1.350 . S
C479 C482 1.463 . S
C479 C484 1.350 . S
C479 N487 1.427 . S
C480 H471 0.930 . S
C480 C478 1.378 . S
C480 C481 1.367 . S
C481 C480 1.367 . S
C481 C483 1.433 . S
C482 C478 1.350 . S
C482 C479 1.463 . S
C482 N486 1.427 . S
C483 H473 0.929 . S
C483 C481 1.433 . S
C483 N486 1.384 . S
C484 H475 0.929 . S
C484 C476 1.378 . S
C484 C479 1.350 . S
C485 H472 0.929 . S
C485 C477 1.433 . S
C485 N487 1.384 . S
N486 C482 1.427 . S
N486 C483 1.384 . S
N487 C479 1.427 . S
N487 C485 1.384 . S
H488 C494 0.930 . S
H489 C498 0.930 . S
H490 C503 0.929 . S
H491 C501 0.929 . S
H492 C496 0.929 . S
H493 C502 0.929 . S
C494 H488 0.930 . S
C494 C495 1.367 . S
C494 C502 1.378 . S
C495 C494 1.367 . S
C495 C503 1.433 . S
C496 H492 0.929 . S
C496 C498 1.378 . S
C496 C500 1.350 . S
C497 C500 1.463 1_455 S
C497 C502 1.350 . S
C497 N505 1.427 . S
C498 H489 0.930 . S
C498 C496 1.378 . S
C498 C499 1.367 . S
C499 C498 1.367 . S
C499 C501 1.433 . S
C500 C496 1.350 . S
C500 C497 1.463 1_655 S
C500 N504 1.427 . S
C501 H491 0.929 . S
C501 C499 1.433 . S
C501 N504 1.384 . S
C502 H493 0.929 . S
C502 C494 1.378 . S
C502 C497 1.350 . S
C503 H490 0.929 . S
C503 C495 1.433 . S
C503 N505 1.384 . S
N504 C500 1.427 . S
N504 C501 1.384 . S
N505 C497 1.427 . S
N505 C503 1.384 . S
H506 C512 0.930 . S
H507 C516 0.930 . S
H508 C521 0.929 . S
H509 C519 0.929 . S
H510 C514 0.929 . S
H511 C520 0.929 . S
C512 H506 0.930 . S
C512 C513 1.367 . S
C512 C520 1.378 . S
C513 C512 1.367 . S
C513 C521 1.433 . S
C514 H510 0.929 . S
C514 C516 1.378 . S
C514 C518 1.350 . S
C515 C518 1.463 . S
C515 C520 1.350 . S
C515 N523 1.427 . S
C516 H507 0.930 . S
C516 C514 1.378 . S
C516 C517 1.367 . S
C517 C516 1.367 . S
C517 C519 1.433 . S
C518 C514 1.350 . S
C518 C515 1.463 . S
C518 N522 1.427 . S
C519 H509 0.929 . S
C519 C517 1.433 . S
C519 N522 1.384 . S
C520 H511 0.929 . S
C520 C512 1.378 . S
C520 C515 1.350 . S
C521 H508 0.929 . S
C521 C513 1.433 . S
C521 N523 1.384 . S
N522 C518 1.427 . S
N522 C519 1.384 . S
N523 C515 1.427 . S
N523 C521 1.384 . S
H524 C530 0.930 . S
H525 C534 0.930 . S
H526 C539 0.929 . S
H527 C537 0.929 . S
H528 C532 0.929 . S
H529 C538 0.929 . S
C530 H524 0.930 . S
C530 C531 1.367 . S
C530 C538 1.378 . S
C531 C530 1.367 . S
C531 C539 1.433 . S
C532 H528 0.929 . S
C532 C534 1.378 . S
C532 C536 1.350 . S
C533 C536 1.463 . S
C533 C538 1.350 . S
C533 N541 1.427 . S
C534 H525 0.930 . S
C534 C532 1.378 . S
C534 C535 1.367 . S
C535 C534 1.367 . S
C535 C537 1.433 . S
C536 C532 1.350 . S
C536 C533 1.463 . S
C536 N540 1.427 . S
C537 H527 0.929 . S
C537 C535 1.433 . S
C537 N540 1.384 . S
C538 H529 0.929 . S
C538 C530 1.378 . S
C538 C533 1.350 . S
C539 H526 0.929 . S
C539 C531 1.433 . S
C539 N541 1.384 . S
N540 C536 1.427 . S
N540 C537 1.384 . S
N541 C533 1.427 . S
N541 C539 1.384 . S
H542 C548 0.930 . S
H543 C552 0.930 . S
H544 C557 0.929 . S
H545 C555 0.929 . S
H546 C550 0.929 . S
H547 C556 0.929 . S
C548 H542 0.930 . S
C548 C549 1.367 . S
C548 C556 1.378 . S
C549 C548 1.367 . S
C549 C557 1.433 . S
C550 H546 0.929 . S
C550 C552 1.378 . S
C550 C554 1.350 . S
C551 C554 1.463 . S
C551 C556 1.350 . S
C551 N559 1.427 . S
C552 H543 0.930 . S
C552 C550 1.378 . S
C552 C553 1.367 . S
C553 C552 1.367 . S
C553 C555 1.433 . S
C554 C550 1.350 . S
C554 C551 1.463 . S
C554 N558 1.427 . S
C555 H545 0.929 . S
C555 C553 1.433 . S
C555 N558 1.384 . S
C556 H547 0.929 . S
C556 C548 1.378 . S
C556 C551 1.350 . S
C557 H544 0.929 . S
C557 C549 1.433 . S
C557 N559 1.384 . S
N558 C554 1.427 . S
N558 C555 1.384 . S
N559 C551 1.427 . S
N559 C557 1.384 . S
H560 C566 0.930 . S
H561 C570 0.930 . S
H562 C575 0.929 . S
H563 C573 0.929 . S
H564 C568 0.929 . S
H565 C574 0.929 . S
C566 H560 0.930 . S
C566 C567 1.367 . S
C566 C574 1.378 . S
C567 C566 1.367 . S
C567 C575 1.433 . S
C568 H564 0.929 . S
C568 C570 1.378 . S
C568 C572 1.350 . S
C569 C572 1.463 . S
C569 C574 1.350 . S
C569 N577 1.427 . S
C570 H561 0.930 . S
C570 C568 1.378 . S
C570 C571 1.367 . S
C571 C570 1.367 . S
C571 C573 1.433 . S
C572 C568 1.350 . S
C572 C569 1.463 . S
C572 N576 1.427 . S
C573 H563 0.929 . S
C573 C571 1.433 . S
C573 N576 1.384 . S
C574 H565 0.929 . S
C574 C566 1.378 . S
C574 C569 1.350 . S
C575 H562 0.929 . S
C575 C567 1.433 . S
C575 N577 1.384 . S
N576 C572 1.427 . S
N576 C573 1.384 . S
N577 C569 1.427 . S
N577 C575 1.384 . S
H578 C584 0.930 . S
H579 C588 0.930 . S
H580 C593 0.929 . S
H581 C591 0.929 . S
H582 C586 0.929 . S
H583 C592 0.929 . S
C584 H578 0.930 . S
C584 C585 1.367 . S
C584 C592 1.378 . S
C585 C584 1.367 . S
C585 C593 1.433 . S
C586 H582 0.929 . S
C586 C588 1.378 . S
C586 C590 1.350 . S
C587 C590 1.463 . S
C587 C592 1.350 . S
C587 N595 1.427 . S
C588 H579 0.930 . S
C588 C586 1.378 . S
C588 C589 1.367 . S
C589 C588 1.367 . S
C589 C591 1.433 . S
C590 C586 1.350 . S
C590 C587 1.463 . S
C590 N594 1.427 . S
C591 H581 0.929 . S
C591 C589 1.433 . S
C591 N594 1.384 . S
C592 H583 0.929 . S
C592 C584 1.378 . S
C592 C587 1.350 . S
C593 H580 0.929 . S
C593 C585 1.433 . S
C593 N595 1.384 . S
N594 C590 1.427 . S
N594 C591 1.384 . S
N595 C587 1.427 . S
N595 C593 1.384 . S
H596 C602 0.930 . S
H597 C606 0.930 . S
H598 C611 0.929 . S
H599 C609 0.929 . S
H600 C604 0.929 . S
H601 C610 0.929 . S
C602 H596 0.930 . S
C602 C603 1.367 . S
C602 C610 1.378 . S
C603 C602 1.367 . S
C603 C611 1.433 . S
C604 H600 0.929 . S
C604 C606 1.378 . S
C604 C608 1.350 . S
C605 C608 1.463 . S
C605 C610 1.350 . S
C605 N613 1.427 . S
C606 H597 0.930 . S
C606 C604 1.378 . S
C606 C607 1.367 . S
C607 C606 1.367 . S
C607 C609 1.433 . S
C608 C604 1.350 . S
C608 C605 1.463 . S
C608 N612 1.427 . S
C609 H599 0.929 . S
C609 C607 1.433 . S
C609 N612 1.384 . S
C610 H601 0.929 . S
C610 C602 1.378 . S
C610 C605 1.350 . S
C611 H598 0.929 . S
C611 C603 1.433 . S
C611 N613 1.384 . S
N612 C608 1.427 . S
N612 C609 1.384 . S
N613 C605 1.427 . S
N613 C611 1.384 . S
H614 C620 0.930 . S
H615 C624 0.930 . S
H616 C629 0.929 . S
H617 C627 0.929 . S
H618 C622 0.929 . S
H619 C628 0.929 . S
C620 H614 0.930 . S
C620 C621 1.367 . S
C620 C628 1.378 . S
C621 C620 1.367 . S
C621 C629 1.433 . S
C622 H618 0.929 . S
C622 C624 1.378 . S
C622 C626 1.350 . S
C623 C626 1.463 . S
C623 C628 1.350 . S
C623 N631 1.427 . S
C624 H615 0.930 . S
C624 C622 1.378 . S
C624 C625 1.367 . S
C625 C624 1.367 . S
C625 C627 1.433 . S
C626 C622 1.350 . S
C626 C623 1.463 . S
C626 N630 1.427 . S
C627 H617 0.929 . S
C627 C625 1.433 . S
C627 N630 1.384 . S
C628 H619 0.929 . S
C628 C620 1.378 . S
C628 C623 1.350 . S
C629 H616 0.929 . S
C629 C621 1.433 . S
C629 N631 1.384 . S
N630 C626 1.427 . S
N630 C627 1.384 . S
N631 C623 1.427 . S
N631 C629 1.384 . S
H632 C638 0.930 . S
H633 C642 0.930 . S
H634 C647 0.929 . S
H635 C645 0.929 . S
H636 C640 0.929 . S
H637 C646 0.929 . S
C638 H632 0.930 . S
C638 C639 1.367 . S
C638 C646 1.378 . S
C639 C638 1.367 . S
C639 C647 1.433 1_565 S
C640 H636 0.929 . S
C640 C642 1.378 . S
C640 C644 1.350 . S
C641 C644 1.463 1_565 S
C641 C646 1.350 . S
C641 N649 1.427 1_565 S
C642 H633 0.930 . S
C642 C640 1.378 . S
C642 C643 1.367 . S
C643 C642 1.367 . S
C643 C645 1.433 1_545 S
C644 C640 1.350 . S
C644 C641 1.463 1_545 S
C644 N648 1.427 1_545 S
C645 H635 0.929 . S
C645 C643 1.433 1_565 S
C645 N648 1.384 . S
C646 H637 0.929 . S
C646 C638 1.378 . S
C646 C641 1.350 . S
C647 H634 0.929 . S
C647 C639 1.433 1_545 S
C647 N649 1.384 . S
N648 C644 1.427 1_565 S
N648 C645 1.384 . S
N649 C641 1.427 1_545 S
N649 C647 1.384 . S
H650 C656 0.930 . S
H651 C660 0.930 1_556 S
H652 C665 0.929 1_556 S
H653 C663 0.929 . S
H654 C658 0.929 1_556 S
H655 C664 0.929 . S
C656 H650 0.930 . S
C656 C657 1.367 . S
C656 C664 1.378 . S
C657 C656 1.367 . S
C657 C665 1.433 . S
C658 H654 0.929 1_554 S
C658 C660 1.378 . S
C658 C662 1.350 . S
C659 C662 1.463 1_665 S
C659 C664 1.350 . S
C659 N667 1.427 . S
C660 H651 0.930 1_554 S
C660 C658 1.378 . S
C660 C661 1.367 . S
C661 C660 1.367 . S
C661 C663 1.433 . S
C662 C658 1.350 . S
C662 C659 1.463 1_445 S
C662 N666 1.427 . S
C663 H653 0.929 . S
C663 C661 1.433 . S
C663 N666 1.384 . S
C664 H655 0.929 . S
C664 C656 1.378 . S
C664 C659 1.350 . S
C665 H652 0.929 1_554 S
C665 C657 1.433 . S
C665 N667 1.384 . S
N666 C662 1.427 . S
N666 C663 1.384 . S
N667 C659 1.427 . S
N667 C665 1.384 . S
H668 C674 0.935 . S
H669 C678 0.946 . S
H670 C683 0.929 1_556 S
H671 C681 0.929 . S
H672 C676 0.935 1_556 S
H673 C682 0.937 . S
C674 H668 0.935 . S
C674 C675 1.367 . S
C674 C682 1.374 1_565 S
C675 C674 1.367 . S
C675 C683 1.433 . S
C676 H672 0.935 1_554 S
C676 C678 1.374 1_565 S
C676 C680 1.347 1_565 S
C677 C680 1.463 1_565 S
C677 C682 1.347 1_565 S
C677 N685 1.427 . S
C678 H669 0.946 . S
C678 C676 1.374 1_545 S
C678 C679 1.367 . S
C679 C678 1.367 . S
C679 C681 1.433 . S
C680 C676 1.347 1_545 S
C680 C677 1.463 1_545 S
C680 N684 1.427 . S
C681 H671 0.929 . S
C681 C679 1.433 . S
C681 N684 1.384 . S
C682 H673 0.937 . S
C682 C674 1.374 1_545 S
C682 C677 1.347 1_545 S
C683 H670 0.929 1_554 S
C683 C675 1.433 . S
C683 N685 1.384 . S
N684 C680 1.427 . S
N684 C681 1.384 . S
N685 C677 1.427 . S
N685 C683 1.384 . S
H686 C692 0.930 . S
H687 C696 0.930 . S
H688 C701 0.929 . S
H689 C699 0.929 . S
H690 C694 0.924 1_565 S
H691 C700 0.923 1_545 S
C692 H686 0.930 . S
C692 C693 1.367 . S
C692 C700 1.383 . S
C693 C692 1.367 . S
C693 C701 1.433 . S
C694 H690 0.924 1_545 S
C694 C696 1.382 . S
C694 C698 1.351 . S
C695 C698 1.463 1_465 S
C695 C700 1.352 . S
C695 N703 1.427 . S
C696 H687 0.930 . S
C696 C694 1.382 . S
C696 C697 1.367 . S
C697 C696 1.367 . S
C697 C699 1.433 . S
C698 C694 1.351 . S
C698 C695 1.463 1_645 S
C698 N702 1.427 . S
C699 H689 0.929 . S
C699 C697 1.433 . S
C699 N702 1.384 . S
C700 H691 0.923 1_565 S
C700 C692 1.383 . S
C700 C695 1.352 . S
C701 H688 0.929 . S
C701 C693 1.433 . S
C701 N703 1.384 . S
N702 C698 1.427 . S
N702 C699 1.384 . S
N703 C695 1.427 . S
N703 C701 1.384 . S
H704 C710 0.930 . S
H705 C714 0.930 . S
H706 C719 0.929 . S
H707 C717 0.929 . S
H708 C712 0.929 . S
H709 C718 0.929 . S
C710 H704 0.930 . S
C710 C711 1.367 . S
C710 C718 1.378 . S
C711 C710 1.367 . S
C711 C719 1.433 . S
C712 H708 0.929 . S
C712 C714 1.378 . S
C712 C716 1.350 . S
C713 C716 1.463 . S
C713 C718 1.350 . S
C713 N721 1.427 . S
C714 H705 0.930 . S
C714 C712 1.378 . S
C714 C715 1.367 . S
C715 C714 1.367 . S
C715 C717 1.433 . S
C716 C712 1.350 . S
C716 C713 1.463 . S
C716 N720 1.427 . S
C717 H707 0.929 . S
C717 C715 1.433 . S
C717 N720 1.384 . S
C718 H709 0.929 . S
C718 C710 1.378 . S
C718 C713 1.350 . S
C719 H706 0.929 . S
C719 C711 1.433 . S
C719 N721 1.384 . S
N720 C716 1.427 . S
N720 C717 1.384 . S
N721 C713 1.427 . S
N721 C719 1.384 . S
H722 C728 0.930 . S
H723 C732 0.930 . S
H724 C737 0.929 . S
H725 C735 0.929 . S
H726 C730 0.929 . S
H727 C736 0.929 . S
C728 H722 0.930 . S
C728 C729 1.367 . S
C728 C736 1.378 1_556 S
C729 C728 1.367 . S
C729 C737 1.433 . S
C730 H726 0.929 . S
C730 C732 1.378 . S
C730 C734 1.350 . S
C731 C734 1.463 . S
C731 C736 1.350 . S
C731 N739 1.427 . S
C732 H723 0.930 . S
C732 C730 1.378 . S
C732 C733 1.367 . S
C733 C732 1.367 . S
C733 C735 1.433 . S
C734 C730 1.350 . S
C734 C731 1.463 . S
C734 N738 1.427 . S
C735 H725 0.929 . S
C735 C733 1.433 . S
C735 N738 1.384 . S
C736 H727 0.929 . S
C736 C728 1.378 1_554 S
C736 C731 1.350 . S
C737 H724 0.929 . S
C737 C729 1.433 . S
C737 N739 1.384 1_556 S
N738 C734 1.427 . S
N738 C735 1.384 . S
N739 C731 1.427 . S
N739 C737 1.384 1_554 S
H740 C746 0.930 . S
H741 C750 0.930 . S
H742 C755 0.929 . S
H743 C753 0.929 . S
H744 C748 0.929 . S
H745 C754 0.929 . S
C746 H740 0.930 . S
C746 C747 1.367 . S
C746 C754 1.378 . S
C747 C746 1.367 . S
C747 C755 1.433 . S
C748 H744 0.929 . S
C748 C750 1.378 . S
C748 C752 1.350 . S
C749 C752 1.463 . S
C749 C754 1.350 . S
C749 N757 1.427 . S
C750 H741 0.930 . S
C750 C748 1.378 . S
C750 C751 1.367 . S
C751 C750 1.367 . S
C751 C753 1.433 . S
C752 C748 1.350 . S
C752 C749 1.463 . S
C752 N756 1.427 . S
C753 H743 0.929 . S
C753 C751 1.433 . S
C753 N756 1.384 . S
C754 H745 0.929 . S
C754 C746 1.378 . S
C754 C749 1.350 . S
C755 H742 0.929 . S
C755 C747 1.433 . S
C755 N757 1.384 . S
N756 C752 1.427 . S
N756 C753 1.384 . S
N757 C749 1.427 . S
N757 C755 1.384 . S
H758 C764 0.930 . S
H759 C768 0.930 . S
H760 C773 0.929 . S
H761 C771 0.929 . S
H762 C766 0.929 . S
H763 C772 0.929 . S
C764 H758 0.930 . S
C764 C765 1.367 . S
C764 C772 1.378 . S
C765 C764 1.367 . S
C765 C773 1.433 . S
C766 H762 0.929 . S
C766 C768 1.378 . S
C766 C770 1.350 . S
C767 C770 1.463 . S
C767 C772 1.350 . S
C767 N775 1.427 . S
C768 H759 0.930 . S
C768 C766 1.378 . S
C768 C769 1.367 . S
C769 C768 1.367 . S
C769 C771 1.433 . S
C770 C766 1.350 . S
C770 C767 1.463 . S
C770 N774 1.427 . S
C771 H761 0.929 . S
C771 C769 1.433 . S
C771 N774 1.384 . S
C772 H763 0.929 . S
C772 C764 1.378 . S
C772 C767 1.350 . S
C773 H760 0.929 . S
C773 C765 1.433 . S
C773 N775 1.384 . S
N774 C770 1.427 . S
N774 C771 1.384 . S
N775 C767 1.427 . S
N775 C773 1.384 . S
H776 C782 0.930 . S
H777 C786 0.930 . S
H778 C791 0.929 . S
H779 C789 0.929 . S
H780 C784 0.929 . S
H781 C790 0.929 . S
C782 H776 0.930 . S
C782 C783 1.367 . S
C782 C790 1.378 . S
C783 C782 1.367 . S
C783 C791 1.433 . S
C784 H780 0.929 . S
C784 C786 1.378 . S
C784 C788 1.350 . S
C785 C788 1.463 . S
C785 C790 1.350 . S
C785 N793 1.427 . S
C786 H777 0.930 . S
C786 C784 1.378 . S
C786 C787 1.367 . S
C787 C786 1.367 . S
C787 C789 1.433 . S
C788 C784 1.350 . S
C788 C785 1.463 . S
C788 N792 1.427 . S
C789 H779 0.929 . S
C789 C787 1.433 . S
C789 N792 1.384 . S
C790 H781 0.929 . S
C790 C782 1.378 . S
C790 C785 1.350 . S
C791 H778 0.929 . S
C791 C783 1.433 . S
C791 N793 1.384 . S
N792 C788 1.427 . S
N792 C789 1.384 . S
N793 C785 1.427 . S
N793 C791 1.384 . S
H794 C800 0.930 . S
H795 C804 0.930 . S
H796 C809 0.929 . S
H797 C807 0.929 . S
H798 C802 0.929 . S
H799 C808 0.929 . S
C800 H794 0.930 . S
C800 C801 1.367 . S
C800 C808 1.378 1_556 S
C801 C800 1.367 . S
C801 C809 1.433 . S
C802 H798 0.929 . S
C802 C804 1.378 . S
C802 C806 1.350 . S
C803 C806 1.463 . S
C803 C808 1.350 . S
C803 N811 1.427 . S
C804 H795 0.930 . S
C804 C802 1.378 . S
C804 C805 1.367 . S
C805 C804 1.367 . S
C805 C807 1.433 . S
C806 C802 1.350 . S
C806 C803 1.463 . S
C806 N810 1.427 . S
C807 H797 0.929 . S
C807 C805 1.433 . S
C807 N810 1.384 . S
C808 H799 0.929 . S
C808 C800 1.378 1_554 S
C808 C803 1.350 . S
C809 H796 0.929 . S
C809 C801 1.433 . S
C809 N811 1.384 1_556 S
N810 C806 1.427 . S
N810 C807 1.384 . S
N811 C803 1.427 . S
N811 C809 1.384 1_554 S
H812 C818 0.930 . S
H813 C822 0.930 . S
H814 C827 0.929 . S
H815 C825 0.929 . S
H816 C820 0.929 . S
H817 C826 0.929 . S
C818 H812 0.930 . S
C818 C819 1.367 . S
C818 C826 1.378 . S
C819 C818 1.367 . S
C819 C827 1.433 . S
C820 H816 0.929 . S
C820 C822 1.378 . S
C820 C824 1.350 . S
C821 C824 1.463 . S
C821 C826 1.350 . S
C821 N829 1.427 . S
C822 H813 0.930 . S
C822 C820 1.378 . S
C822 C823 1.367 . S
C823 C822 1.367 . S
C823 C825 1.433 . S
C824 C820 1.350 . S
C824 C821 1.463 . S
C824 N828 1.427 . S
C825 H815 0.929 . S
C825 C823 1.433 . S
C825 N828 1.384 . S
C826 H817 0.929 . S
C826 C818 1.378 . S
C826 C821 1.350 . S
C827 H814 0.929 . S
C827 C819 1.433 . S
C827 N829 1.384 . S
N828 C824 1.427 . S
N828 C825 1.384 . S
N829 C821 1.427 . S
N829 C827 1.384 . S
H830 C836 0.930 . S
H831 C840 0.930 . S
H832 C845 0.929 . S
H833 C843 0.929 . S
H834 C838 0.929 . S
H835 C844 0.929 . S
C836 H830 0.930 . S
C836 C837 1.367 . S
C836 C844 1.378 . S
C837 C836 1.367 . S
C837 C845 1.433 . S
C838 H834 0.929 . S
C838 C840 1.378 . S
C838 C842 1.350 . S
C839 C842 1.463 . S
C839 C844 1.350 . S
C839 N847 1.427 . S
C840 H831 0.930 . S
C840 C838 1.378 . S
C840 C841 1.367 . S
C841 C840 1.367 . S
C841 C843 1.433 . S
C842 C838 1.350 . S
C842 C839 1.463 . S
C842 N846 1.427 . S
C843 H833 0.929 . S
C843 C841 1.433 . S
C843 N846 1.384 . S
C844 H835 0.929 . S
C844 C836 1.378 . S
C844 C839 1.350 . S
C845 H832 0.929 . S
C845 C837 1.433 . S
C845 N847 1.384 . S
N846 C842 1.427 . S
N846 C843 1.384 . S
N847 C839 1.427 . S
N847 C845 1.384 . S
H848 C854 0.930 . S
H849 C858 0.930 . S
H850 C863 0.929 . S
H851 C861 0.929 . S
H852 C856 0.929 . S
H853 C862 0.929 . S
C854 H848 0.930 . S
C854 C855 1.367 1_565 S
C854 C862 1.378 . S
C855 C854 1.367 1_545 S
C855 C863 1.433 . S
C856 H852 0.929 . S
C856 C858 1.378 . S
C856 C860 1.350 1_545 S
C857 C860 1.463 1_545 S
C857 C862 1.350 1_545 S
C857 N865 1.427 . S
C858 H849 0.930 . S
C858 C856 1.378 . S
C858 C859 1.367 1_545 S
C859 C858 1.367 1_565 S
C859 C861 1.433 . S
C860 C856 1.350 1_565 S
C860 C857 1.463 1_565 S
C860 N864 1.427 . S
C861 H851 0.929 . S
C861 C859 1.433 . S
C861 N864 1.384 . S
C862 H853 0.929 . S
C862 C854 1.378 . S
C862 C857 1.350 1_565 S
C863 H850 0.929 . S
C863 C855 1.433 . S
C863 N865 1.384 . S
N864 C860 1.427 . S
N864 C861 1.384 . S
N865 C857 1.427 . S
N865 C863 1.384 . S
H866 C872 0.930 . S
H867 C876 0.930 . S
H868 C881 0.929 . S
H869 C879 0.929 . S
H870 C874 0.929 . S
H871 C880 0.929 . S
C872 H866 0.930 . S
C872 C873 1.367 . S
C872 C880 1.378 . S
C873 C872 1.367 . S
C873 C881 1.433 . S
C874 H870 0.929 . S
C874 C876 1.378 . S
C874 C878 1.350 . S
C875 C878 1.463 . S
C875 C880 1.350 . S
C875 N883 1.427 . S
C876 H867 0.930 . S
C876 C874 1.378 . S
C876 C877 1.367 . S
C877 C876 1.367 . S
C877 C879 1.433 . S
C878 C874 1.350 . S
C878 C875 1.463 . S
C878 N882 1.427 . S
C879 H869 0.929 . S
C879 C877 1.433 . S
C879 N882 1.384 . S
C880 H871 0.929 . S
C880 C872 1.378 . S
C880 C875 1.350 . S
C881 H868 0.929 . S
C881 C873 1.433 . S
C881 N883 1.384 . S
N882 C878 1.427 . S
N882 C879 1.384 . S
N883 C875 1.427 . S
N883 C881 1.384 . S
H884 C890 0.930 . S
H885 C894 0.930 . S
H886 C899 0.929 . S
H887 C897 0.929 . S
H888 C892 0.929 . S
H889 C898 0.929 . S
C890 H884 0.930 . S
C890 C891 1.367 1_565 S
C890 C898 1.378 . S
C891 C890 1.367 1_545 S
C891 C899 1.433 . S
C892 H888 0.929 . S
C892 C894 1.378 . S
C892 C896 1.350 1_545 S
C893 C896 1.463 1_545 S
C893 C898 1.350 1_545 S
C893 N901 1.427 . S
C894 H885 0.930 . S
C894 C892 1.378 . S
C894 C895 1.367 1_545 S
C895 C894 1.367 1_565 S
C895 C897 1.433 . S
C896 C892 1.350 1_565 S
C896 C893 1.463 1_565 S
C896 N900 1.427 . S
C897 H887 0.929 . S
C897 C895 1.433 . S
C897 N900 1.384 . S
C898 H889 0.929 . S
C898 C890 1.378 . S
C898 C893 1.350 1_565 S
C899 H886 0.929 . S
C899 C891 1.433 . S
C899 N901 1.384 . S
N900 C896 1.427 . S
N900 C897 1.384 . S
N901 C893 1.427 . S
N901 C899 1.384 . S
H902 C908 0.930 . S
H903 C912 0.930 . S
H904 C917 0.929 . S
H905 C915 0.929 . S
H906 C910 0.929 . S
H907 C916 0.929 . S
C908 H902 0.930 . S
C908 C909 1.367 . S
C908 C916 1.378 1_556 S
C909 C908 1.367 . S
C909 C917 1.433 . S
C910 H906 0.929 . S
C910 C912 1.378 . S
C910 C914 1.350 . S
C911 C914 1.463 . S
C911 C916 1.350 . S
C911 N919 1.427 . S
C912 H903 0.930 . S
C912 C910 1.378 . S
C912 C913 1.367 . S
C913 C912 1.367 . S
C913 C915 1.433 . S
C914 C910 1.350 . S
C914 C911 1.463 . S
C914 N918 1.427 . S
C915 H905 0.929 . S
C915 C913 1.433 . S
C915 N918 1.384 . S
C916 H907 0.929 . S
C916 C908 1.378 1_554 S
C916 C911 1.350 . S
C917 H904 0.929 . S
C917 C909 1.433 . S
C917 N919 1.384 1_556 S
N918 C914 1.427 . S
N918 C915 1.384 . S
N919 C911 1.427 . S
N919 C917 1.384 1_554 S
H920 C926 0.930 . S
H921 C930 0.930 . S
H922 C935 0.929 . S
H923 C933 0.929 . S
H924 C928 0.929 . S
H925 C934 0.929 . S
C926 H920 0.930 . S
C926 C927 1.367 . S
C926 C934 1.378 . S
C927 C926 1.367 . S
C927 C935 1.433 1_565 S
C928 H924 0.929 . S
C928 C930 1.378 . S
C928 C932 1.350 . S
C929 C932 1.463 1_565 S
C929 C934 1.350 . S
C929 N937 1.427 1_565 S
C930 H921 0.930 . S
C930 C928 1.378 . S
C930 C931 1.367 . S
C931 C930 1.367 . S
C931 C933 1.433 1_545 S
C932 C928 1.350 . S
C932 C929 1.463 1_545 S
C932 N936 1.427 1_545 S
C933 H923 0.929 . S
C933 C931 1.433 1_565 S
C933 N936 1.384 . S
C934 H925 0.929 . S
C934 C926 1.378 . S
C934 C929 1.350 . S
C935 H922 0.929 . S
C935 C927 1.433 1_545 S
C935 N937 1.384 . S
N936 C932 1.427 1_565 S
N936 C933 1.384 . S
N937 C929 1.427 1_545 S
N937 C935 1.384 . S
H938 C944 0.930 . S
H939 C948 0.930 . S
H940 C953 0.929 . S
H941 C951 0.929 . S
H942 C946 0.929 . S
H943 C952 0.929 . S
C944 H938 0.930 . S
C944 C945 1.367 . S
C944 C952 1.378 . S
C945 C944 1.367 . S
C945 C953 1.433 . S
C946 H942 0.929 . S
C946 C948 1.378 . S
C946 C950 1.350 . S
C947 C950 1.463 . S
C947 C952 1.350 . S
C947 N955 1.427 . S
C948 H939 0.930 . S
C948 C946 1.378 . S
C948 C949 1.367 . S
C949 C948 1.367 . S
C949 C951 1.433 . S
C950 C946 1.350 . S
C950 C947 1.463 . S
C950 N954 1.427 . S
C951 H941 0.929 . S
C951 C949 1.433 . S
C951 N954 1.384 . S
C952 H943 0.929 . S
C952 C944 1.378 . S
C952 C947 1.350 . S
C953 H940 0.929 . S
C953 C945 1.433 . S
C953 N955 1.384 . S
N954 C950 1.427 . S
N954 C951 1.384 . S
N955 C947 1.427 . S
N955 C953 1.384 . S
H956 C962 0.930 . S
H957 C966 0.930 . S
H958 C971 0.929 . S
H959 C969 0.929 . S
H960 C964 0.929 . S
H961 C970 0.929 . S
C962 H956 0.930 . S
C962 C963 1.367 . S
C962 C970 1.378 . S
C963 C962 1.367 . S
C963 C971 1.433 1_545 S
C964 H960 0.929 . S
C964 C966 1.378 . S
C964 C968 1.350 . S
C965 C968 1.463 1_545 S
C965 C970 1.350 . S
C965 N973 1.427 1_545 S
C966 H957 0.930 . S
C966 C964 1.378 . S
C966 C967 1.367 . S
C967 C966 1.367 . S
C967 C969 1.433 1_565 S
C968 C964 1.350 . S
C968 C965 1.463 1_565 S
C968 N972 1.427 1_565 S
C969 H959 0.929 . S
C969 C967 1.433 1_545 S
C969 N972 1.384 . S
C970 H961 0.929 . S
C970 C962 1.378 . S
C970 C965 1.350 . S
C971 H958 0.929 . S
C971 C963 1.433 1_565 S
C971 N973 1.384 . S
N972 C968 1.427 1_545 S
N972 C969 1.384 . S
N973 C965 1.427 1_565 S
N973 C971 1.384 . S
H974 C980 0.930 . S
H975 C984 0.930 . S
H976 C989 0.929 . S
H977 C987 0.929 . S
H978 C982 0.929 . S
H979 C988 0.929 . S
C980 H974 0.930 . S
C980 C981 1.367 . S
C980 C988 1.378 . S
C981 C980 1.367 . S
C981 C989 1.433 . S
C982 H978 0.929 . S
C982 C984 1.378 1_554 S
C982 C986 1.350 . S
C983 C986 1.463 . S
C983 C988 1.350 . S
C983 N991 1.427 . S
C984 H975 0.930 . S
C984 C982 1.378 1_556 S
C984 C985 1.367 . S
C985 C984 1.367 . S
C985 C987 1.433 . S
C986 C982 1.350 . S
C986 C983 1.463 . S
C986 N990 1.427 . S
C987 H977 0.929 . S
C987 C985 1.433 . S
C987 N990 1.384 1_556 S
C988 H979 0.929 . S
C988 C980 1.378 . S
C988 C983 1.350 . S
C989 H976 0.929 . S
C989 C981 1.433 . S
C989 N991 1.384 . S
N990 C986 1.427 . S
N990 C987 1.384 1_554 S
N991 C983 1.427 . S
N991 C989 1.384 . S
H992 C998 0.930 . S
H993 C1002 0.930 . S
H994 C1007 0.929 . S
H995 C1005 0.929 . S
H996 C1000 0.929 . S
H997 C1006 0.929 . S
C998 H992 0.930 . S
C998 C999 1.367 . S
C998 C1006 1.378 . S
C999 C998 1.367 . S
C999 C1007 1.433 . S
C1000 H996 0.929 . S
C1000 C1002 1.378 . S
C1000 C1004 1.350 . S
C1001 C1004 1.463 . S
C1001 C1006 1.350 . S
C1001 N1009 1.427 . S
C1002 H993 0.930 . S
C1002 C1000 1.378 . S
C1002 C1003 1.367 . S
C1003 C1002 1.367 . S
C1003 C1005 1.433 . S
C1004 C1000 1.350 . S
C1004 C1001 1.463 . S
C1004 N1008 1.427 . S
C1005 H995 0.929 . S
C1005 C1003 1.433 . S
C1005 N1008 1.384 . S
C1006 H997 0.929 . S
C1006 C998 1.378 . S
C1006 C1001 1.350 . S
C1007 H994 0.929 . S
C1007 C999 1.433 . S
C1007 N1009 1.384 . S
N1008 C1004 1.427 . S
N1008 C1005 1.384 . S
N1009 C1001 1.427 . S
N1009 C1007 1.384 . S
H1010 C1016 0.930 . S
H1011 C1020 0.930 . S
H1012 C1025 0.929 . S
H1013 C1023 0.929 . S
H1014 C1018 0.929 . S
H1015 C1024 0.929 . S
C1016 H1010 0.930 . S
C1016 C1017 1.367 . S
C1016 C1024 1.378 . S
C1017 C1016 1.367 . S
C1017 C1025 1.433 . S
C1018 H1014 0.929 . S
C1018 C1020 1.378 . S
C1018 C1022 1.350 . S
C1019 C1022 1.463 . S
C1019 C1024 1.350 . S
C1019 N1027 1.427 . S
C1020 H1011 0.930 . S
C1020 C1018 1.378 . S
C1020 C1021 1.367 . S
C1021 C1020 1.367 . S
C1021 C1023 1.433 . S
C1022 C1018 1.350 . S
C1022 C1019 1.463 . S
C1022 N1026 1.427 . S
C1023 H1013 0.929 . S
C1023 C1021 1.433 . S
C1023 N1026 1.384 . S
C1024 H1015 0.929 . S
C1024 C1016 1.378 . S
C1024 C1019 1.350 . S
C1025 H1012 0.929 . S
C1025 C1017 1.433 . S
C1025 N1027 1.384 . S
N1026 C1022 1.427 . S
N1026 C1023 1.384 . S
N1027 C1019 1.427 . S
N1027 C1025 1.384 . S
H1028 C1034 0.930 . S
H1029 C1038 0.930 . S
H1030 C1043 0.929 . S
H1031 C1041 0.929 . S
H1032 C1036 0.929 . S
H1033 C1042 0.929 . S
C1034 H1028 0.930 . S
C1034 C1035 1.367 . S
C1034 C1042 1.378 . S
C1035 C1034 1.367 . S
C1035 C1043 1.433 . S
C1036 H1032 0.929 . S
C1036 C1038 1.378 . S
C1036 C1040 1.350 . S
C1037 C1040 1.463 . S
C1037 C1042 1.350 . S
C1037 N1045 1.427 . S
C1038 H1029 0.930 . S
C1038 C1036 1.378 . S
C1038 C1039 1.367 . S
C1039 C1038 1.367 . S
C1039 C1041 1.433 . S
C1040 C1036 1.350 . S
C1040 C1037 1.463 . S
C1040 N1044 1.427 . S
C1041 H1031 0.929 . S
C1041 C1039 1.433 . S
C1041 N1044 1.384 . S
C1042 H1033 0.929 . S
C1042 C1034 1.378 . S
C1042 C1037 1.350 . S
C1043 H1030 0.929 . S
C1043 C1035 1.433 . S
C1043 N1045 1.384 . S
N1044 C1040 1.427 . S
N1044 C1041 1.384 . S
N1045 C1037 1.427 . S
N1045 C1043 1.384 . S
H1046 C1052 0.930 . S
H1047 C1056 0.930 . S
H1048 C1061 0.929 . S
H1049 C1059 0.929 . S
H1050 C1054 0.929 . S
H1051 C1060 0.929 . S
C1052 H1046 0.930 . S
C1052 C1053 1.367 . S
C1052 C1060 1.378 . S
C1053 C1052 1.367 . S
C1053 C1061 1.433 . S
C1054 H1050 0.929 . S
C1054 C1056 1.378 1_554 S
C1054 C1058 1.350 . S
C1055 C1058 1.463 . S
C1055 C1060 1.350 . S
C1055 N1063 1.427 . S
C1056 H1047 0.930 . S
C1056 C1054 1.378 1_556 S
C1056 C1057 1.367 . S
C1057 C1056 1.367 . S
C1057 C1059 1.433 . S
C1058 C1054 1.350 . S
C1058 C1055 1.463 . S
C1058 N1062 1.427 . S
C1059 H1049 0.929 . S
C1059 C1057 1.433 . S
C1059 N1062 1.384 1_556 S
C1060 H1051 0.929 . S
C1060 C1052 1.378 . S
C1060 C1055 1.350 . S
C1061 H1048 0.929 . S
C1061 C1053 1.433 . S
C1061 N1063 1.384 . S
N1062 C1058 1.427 . S
N1062 C1059 1.384 1_554 S
N1063 C1055 1.427 . S
N1063 C1061 1.384 . S
H1064 C1070 0.930 . S
H1065 C1074 0.930 . S
H1066 C1079 0.929 . S
H1067 C1077 0.929 . S
H1068 C1072 0.929 . S
H1069 C1078 0.929 . S
C1070 H1064 0.930 . S
C1070 C1071 1.367 . S
C1070 C1078 1.378 . S
C1071 C1070 1.367 . S
C1071 C1079 1.433 . S
C1072 H1068 0.929 . S
C1072 C1074 1.378 . S
C1072 C1076 1.350 . S
C1073 C1076 1.463 . S
C1073 C1078 1.350 . S
C1073 N1081 1.427 . S
C1074 H1065 0.930 . S
C1074 C1072 1.378 . S
C1074 C1075 1.367 . S
C1075 C1074 1.367 . S
C1075 C1077 1.433 . S
C1076 C1072 1.350 . S
C1076 C1073 1.463 . S
C1076 N1080 1.427 . S
C1077 H1067 0.929 . S
C1077 C1075 1.433 . S
C1077 N1080 1.384 . S
C1078 H1069 0.929 . S
C1078 C1070 1.378 . S
C1078 C1073 1.350 . S
C1079 H1066 0.929 . S
C1079 C1071 1.433 . S
C1079 N1081 1.384 . S
N1080 C1076 1.427 . S
N1080 C1077 1.384 . S
N1081 C1073 1.427 . S
N1081 C1079 1.384 . S
H1082 C1088 0.930 . S
H1083 C1092 0.930 . S
H1084 C1097 0.929 . S
H1085 C1095 0.929 . S
H1086 C1090 0.929 . S
H1087 C1096 0.929 . S
C1088 H1082 0.930 . S
C1088 C1089 1.367 . S
C1088 C1096 1.378 . S
C1089 C1088 1.367 . S
C1089 C1097 1.433 . S
C1090 H1086 0.929 . S
C1090 C1092 1.378 . S
C1090 C1094 1.350 . S
C1091 C1094 1.463 . S
C1091 C1096 1.350 . S
C1091 N1099 1.427 . S
C1092 H1083 0.930 . S
C1092 C1090 1.378 . S
C1092 C1093 1.367 . S
C1093 C1092 1.367 . S
C1093 C1095 1.433 . S
C1094 C1090 1.350 . S
C1094 C1091 1.463 . S
C1094 N1098 1.427 . S
C1095 H1085 0.929 . S
C1095 C1093 1.433 . S
C1095 N1098 1.384 . S
C1096 H1087 0.929 . S
C1096 C1088 1.378 . S
C1096 C1091 1.350 . S
C1097 H1084 0.929 . S
C1097 C1089 1.433 . S
C1097 N1099 1.384 . S
N1098 C1094 1.427 . S
N1098 C1095 1.384 . S
N1099 C1091 1.427 . S
N1099 C1097 1.384 . S
H1100 C1106 0.930 . S
H1101 C1110 0.930 . S
H1102 C1115 0.929 . S
H1103 C1113 0.929 . S
H1104 C1108 0.929 . S
H1105 C1114 0.929 . S
C1106 H1100 0.930 . S
C1106 C1107 1.367 . S
C1106 C1114 1.378 . S
C1107 C1106 1.367 . S
C1107 C1115 1.433 . S
C1108 H1104 0.929 . S
C1108 C1110 1.378 . S
C1108 C1112 1.350 . S
C1109 C1112 1.463 . S
C1109 C1114 1.350 . S
C1109 N1117 1.427 . S
C1110 H1101 0.930 . S
C1110 C1108 1.378 . S
C1110 C1111 1.367 . S
C1111 C1110 1.367 . S
C1111 C1113 1.433 . S
C1112 C1108 1.350 . S
C1112 C1109 1.463 . S
C1112 N1116 1.427 . S
C1113 H1103 0.929 . S
C1113 C1111 1.433 . S
C1113 N1116 1.384 . S
C1114 H1105 0.929 . S
C1114 C1106 1.378 . S
C1114 C1109 1.350 . S
C1115 H1102 0.929 . S
C1115 C1107 1.433 . S
C1115 N1117 1.384 . S
N1116 C1112 1.427 . S
N1116 C1113 1.384 . S
N1117 C1109 1.427 . S
N1117 C1115 1.384 . S
H1118 C1124 0.930 . S
H1119 C1128 0.930 . S
H1120 C1133 0.929 . S
H1121 C1131 0.929 . S
H1122 C1126 0.929 . S
H1123 C1132 0.929 . S
C1124 H1118 0.930 . S
C1124 C1125 1.367 . S
C1124 C1132 1.378 1_556 S
C1125 C1124 1.367 . S
C1125 C1133 1.433 . S
C1126 H1122 0.929 . S
C1126 C1128 1.378 . S
C1126 C1130 1.350 . S
C1127 C1130 1.463 . S
C1127 C1132 1.350 . S
C1127 N1135 1.427 . S
C1128 H1119 0.930 . S
C1128 C1126 1.378 . S
C1128 C1129 1.367 . S
C1129 C1128 1.367 . S
C1129 C1131 1.433 . S
C1130 C1126 1.350 . S
C1130 C1127 1.463 . S
C1130 N1134 1.427 . S
C1131 H1121 0.929 . S
C1131 C1129 1.433 . S
C1131 N1134 1.384 . S
C1132 H1123 0.929 . S
C1132 C1124 1.378 1_554 S
C1132 C1127 1.350 . S
C1133 H1120 0.929 . S
C1133 C1125 1.433 . S
C1133 N1135 1.384 1_556 S
N1134 C1130 1.427 . S
N1134 C1131 1.384 . S
N1135 C1127 1.427 . S
N1135 C1133 1.384 1_554 S
H1136 C1142 0.930 . S
H1137 C1146 0.930 . S
H1138 C1151 0.929 . S
H1139 C1149 0.929 . S
H1140 C1144 0.929 . S
H1141 C1150 0.929 . S
C1142 H1136 0.930 . S
C1142 C1143 1.367 . S
C1142 C1150 1.378 . S
C1143 C1142 1.367 . S
C1143 C1151 1.433 1_565 S
C1144 H1140 0.929 . S
C1144 C1146 1.378 . S
C1144 C1148 1.350 . S
C1145 C1148 1.463 1_565 S
C1145 C1150 1.350 . S
C1145 N1153 1.427 1_565 S
C1146 H1137 0.930 . S
C1146 C1144 1.378 . S
C1146 C1147 1.367 . S
C1147 C1146 1.367 . S
C1147 C1149 1.433 1_545 S
C1148 C1144 1.350 . S
C1148 C1145 1.463 1_545 S
C1148 N1152 1.427 1_545 S
C1149 H1139 0.929 . S
C1149 C1147 1.433 1_565 S
C1149 N1152 1.384 . S
C1150 H1141 0.929 . S
C1150 C1142 1.378 . S
C1150 C1145 1.350 . S
C1151 H1138 0.929 . S
C1151 C1143 1.433 1_545 S
C1151 N1153 1.384 . S
N1152 C1148 1.427 1_565 S
N1152 C1149 1.384 . S
N1153 C1145 1.427 1_545 S
N1153 C1151 1.384 . S
H1154 C1160 0.930 . S
H1155 C1164 0.930 . S
H1156 C1169 0.929 . S
H1157 C1167 0.929 . S
H1158 C1162 0.929 . S
H1159 C1168 0.929 . S
C1160 H1154 0.930 . S
C1160 C1161 1.367 . S
C1160 C1168 1.378 . S
C1161 C1160 1.367 . S
C1161 C1169 1.433 . S
C1162 H1158 0.929 . S
C1162 C1164 1.378 1_554 S
C1162 C1166 1.350 . S
C1163 C1166 1.463 . S
C1163 C1168 1.350 . S
C1163 N1171 1.427 . S
C1164 H1155 0.930 . S
C1164 C1162 1.378 1_556 S
C1164 C1165 1.367 . S
C1165 C1164 1.367 . S
C1165 C1167 1.433 . S
C1166 C1162 1.350 . S
C1166 C1163 1.463 . S
C1166 N1170 1.427 . S
C1167 H1157 0.929 . S
C1167 C1165 1.433 . S
C1167 N1170 1.384 1_556 S
C1168 H1159 0.929 . S
C1168 C1160 1.378 . S
C1168 C1163 1.350 . S
C1169 H1156 0.929 . S
C1169 C1161 1.433 . S
C1169 N1171 1.384 . S
N1170 C1166 1.427 . S
N1170 C1167 1.384 1_554 S
N1171 C1163 1.427 . S
N1171 C1169 1.384 . S
H1172 C1178 0.930 . S
H1173 C1182 0.930 . S
H1174 C1187 0.929 . S
H1175 C1185 0.929 . S
H1176 C1180 0.929 . S
H1177 C1186 0.929 . S
C1178 H1172 0.930 . S
C1178 C1179 1.367 . S
C1178 C1186 1.378 . S
C1179 C1178 1.367 . S
C1179 C1187 1.433 1_565 S
C1180 H1176 0.929 . S
C1180 C1182 1.378 . S
C1180 C1184 1.350 . S
C1181 C1184 1.463 1_565 S
C1181 C1186 1.350 . S
C1181 N1189 1.427 1_565 S
C1182 H1173 0.930 . S
C1182 C1180 1.378 . S
C1182 C1183 1.367 . S
C1183 C1182 1.367 . S
C1183 C1185 1.433 1_545 S
C1184 C1180 1.350 . S
C1184 C1181 1.463 1_545 S
C1184 N1188 1.427 1_545 S
C1185 H1175 0.929 . S
C1185 C1183 1.433 1_565 S
C1185 N1188 1.384 . S
C1186 H1177 0.929 . S
C1186 C1178 1.378 . S
C1186 C1181 1.350 . S
C1187 H1174 0.929 . S
C1187 C1179 1.433 1_545 S
C1187 N1189 1.384 . S
N1188 C1184 1.427 1_565 S
N1188 C1185 1.384 . S
N1189 C1181 1.427 1_545 S
N1189 C1187 1.384 . S
H1190 C1196 0.930 . S
H1191 C1200 0.930 . S
H1192 C1205 0.929 . S
H1193 C1203 0.929 . S
H1194 C1198 0.929 . S
H1195 C1204 0.929 . S
C1196 H1190 0.930 . S
C1196 C1197 1.367 . S
C1196 C1204 1.378 . S
C1197 C1196 1.367 . S
C1197 C1205 1.433 . S
C1198 H1194 0.929 . S
C1198 C1200 1.378 . S
C1198 C1202 1.350 . S
C1199 C1202 1.463 . S
C1199 C1204 1.350 . S
C1199 N1207 1.427 . S
C1200 H1191 0.930 . S
C1200 C1198 1.378 . S
C1200 C1201 1.367 . S
C1201 C1200 1.367 . S
C1201 C1203 1.433 . S
C1202 C1198 1.350 . S
C1202 C1199 1.463 . S
C1202 N1206 1.427 . S
C1203 H1193 0.929 . S
C1203 C1201 1.433 . S
C1203 N1206 1.384 . S
C1204 H1195 0.929 . S
C1204 C1196 1.378 . S
C1204 C1199 1.350 . S
C1205 H1192 0.929 . S
C1205 C1197 1.433 . S
C1205 N1207 1.384 . S
N1206 C1202 1.427 . S
N1206 C1203 1.384 . S
N1207 C1199 1.427 . S
N1207 C1205 1.384 . S
H1208 C1214 0.930 . S
H1209 C1218 0.930 . S
H1210 C1223 0.929 . S
H1211 C1221 0.929 . S
H1212 C1216 0.929 . S
H1213 C1222 0.929 . S
C1214 H1208 0.930 . S
C1214 C1215 1.367 . S
C1214 C1222 1.378 . S
C1215 C1214 1.367 . S
C1215 C1223 1.433 1_565 S
C1216 H1212 0.929 . S
C1216 C1218 1.378 . S
C1216 C1220 1.350 . S
C1217 C1220 1.463 1_565 S
C1217 C1222 1.350 . S
C1217 N1225 1.427 1_565 S
C1218 H1209 0.930 . S
C1218 C1216 1.378 . S
C1218 C1219 1.367 . S
C1219 C1218 1.367 . S
C1219 C1221 1.433 1_545 S
C1220 C1216 1.350 . S
C1220 C1217 1.463 1_545 S
C1220 N1224 1.427 1_545 S
C1221 H1211 0.929 . S
C1221 C1219 1.433 1_565 S
C1221 N1224 1.384 . S
C1222 H1213 0.929 . S
C1222 C1214 1.378 . S
C1222 C1217 1.350 . S
C1223 H1210 0.929 . S
C1223 C1215 1.433 1_545 S
C1223 N1225 1.384 . S
N1224 C1220 1.427 1_565 S
N1224 C1221 1.384 . S
N1225 C1217 1.427 1_545 S
N1225 C1223 1.384 . S
H1226 C1232 0.930 . S
H1227 C1236 0.930 . S
H1228 C1241 0.929 . S
H1229 C1239 0.929 . S
H1230 C1234 0.929 . S
H1231 C1240 0.929 . S
C1232 H1226 0.930 . S
C1232 C1233 1.367 . S
C1232 C1240 1.378 . S
C1233 C1232 1.367 . S
C1233 C1241 1.433 . S
C1234 H1230 0.929 . S
C1234 C1236 1.378 1_554 S
C1234 C1238 1.350 . S
C1235 C1238 1.463 . S
C1235 C1240 1.350 . S
C1235 N1243 1.427 . S
C1236 H1227 0.930 . S
C1236 C1234 1.378 1_556 S
C1236 C1237 1.367 . S
C1237 C1236 1.367 . S
C1237 C1239 1.433 . S
C1238 C1234 1.350 . S
C1238 C1235 1.463 . S
C1238 N1242 1.427 . S
C1239 H1229 0.929 . S
C1239 C1237 1.433 . S
C1239 N1242 1.384 1_556 S
C1240 H1231 0.929 . S
C1240 C1232 1.378 . S
C1240 C1235 1.350 . S
C1241 H1228 0.929 . S
C1241 C1233 1.433 . S
C1241 N1243 1.384 . S
N1242 C1238 1.427 . S
N1242 C1239 1.384 1_554 S
N1243 C1235 1.427 . S
N1243 C1241 1.384 . S
H1244 C1250 0.930 . S
H1245 C1254 0.930 . S
H1246 C1259 0.929 . S
H1247 C1257 0.929 . S
H1248 C1252 0.929 . S
H1249 C1258 0.929 . S
C1250 H1244 0.930 . S
C1250 C1251 1.367 . S
C1250 C1258 1.378 . S
C1251 C1250 1.367 . S
C1251 C1259 1.433 1_565 S
C1252 H1248 0.929 . S
C1252 C1254 1.378 . S
C1252 C1256 1.350 . S
C1253 C1256 1.463 1_565 S
C1253 C1258 1.350 . S
C1253 N1261 1.427 1_565 S
C1254 H1245 0.930 . S
C1254 C1252 1.378 . S
C1254 C1255 1.367 . S
C1255 C1254 1.367 . S
C1255 C1257 1.433 1_545 S
C1256 C1252 1.350 . S
C1256 C1253 1.463 1_545 S
C1256 N1260 1.427 1_545 S
C1257 H1247 0.929 . S
C1257 C1255 1.433 1_565 S
C1257 N1260 1.384 . S
C1258 H1249 0.929 . S
C1258 C1250 1.378 . S
C1258 C1253 1.350 . S
C1259 H1246 0.929 . S
C1259 C1251 1.433 1_545 S
C1259 N1261 1.384 . S
N1260 C1256 1.427 1_565 S
N1260 C1257 1.384 . S
N1261 C1253 1.427 1_545 S
N1261 C1259 1.384 . S
H1262 C1268 0.930 . S
H1263 C1272 0.930 . S
H1264 C1277 0.929 . S
H1265 C1275 0.929 . S
H1266 C1270 0.929 . S
H1267 C1276 0.929 . S
C1268 H1262 0.930 . S
C1268 C1269 1.367 . S
C1268 C1276 1.378 . S
C1269 C1268 1.367 . S
C1269 C1277 1.433 . S
C1270 H1266 0.929 . S
C1270 C1272 1.378 . S
C1270 C1274 1.350 . S
C1271 C1274 1.463 . S
C1271 C1276 1.350 . S
C1271 N1279 1.427 . S
C1272 H1263 0.930 . S
C1272 C1270 1.378 . S
C1272 C1273 1.367 . S
C1273 C1272 1.367 . S
C1273 C1275 1.433 . S
C1274 C1270 1.350 . S
C1274 C1271 1.463 . S
C1274 N1278 1.427 . S
C1275 H1265 0.929 . S
C1275 C1273 1.433 . S
C1275 N1278 1.384 . S
C1276 H1267 0.929 . S
C1276 C1268 1.378 . S
C1276 C1271 1.350 . S
C1277 H1264 0.929 . S
C1277 C1269 1.433 . S
C1277 N1279 1.384 . S
N1278 C1274 1.427 . S
N1278 C1275 1.384 . S
N1279 C1271 1.427 . S
N1279 C1277 1.384 . S
H1280 C1286 0.930 . S
H1281 C1290 0.930 . S
H1282 C1295 0.929 . S
H1283 C1293 0.929 . S
H1284 C1288 0.929 . S
H1285 C1294 0.929 . S
C1286 H1280 0.930 . S
C1286 C1287 1.367 . S
C1286 C1294 1.378 . S
C1287 C1286 1.367 . S
C1287 C1295 1.433 . S
C1288 H1284 0.929 . S
C1288 C1290 1.378 . S
C1288 C1292 1.350 . S
C1289 C1292 1.463 . S
C1289 C1294 1.350 . S
C1289 N1297 1.427 . S
C1290 H1281 0.930 . S
C1290 C1288 1.378 . S
C1290 C1291 1.367 . S
C1291 C1290 1.367 . S
C1291 C1293 1.433 . S
C1292 C1288 1.350 . S
C1292 C1289 1.463 . S
C1292 N1296 1.427 . S
C1293 H1283 0.929 . S
C1293 C1291 1.433 . S
C1293 N1296 1.384 . S
C1294 H1285 0.929 . S
C1294 C1286 1.378 . S
C1294 C1289 1.350 . S
C1295 H1282 0.929 . S
C1295 C1287 1.433 . S
C1295 N1297 1.384 . S
N1296 C1292 1.427 . S
N1296 C1293 1.384 . S
N1297 C1289 1.427 . S
N1297 C1295 1.384 . S
H1298 C1304 0.930 . S
H1299 C1308 0.930 . S
H1300 C1313 0.929 . S
H1301 C1311 0.929 . S
H1302 C1306 0.929 . S
H1303 C1312 0.929 . S
C1304 H1298 0.930 . S
C1304 C1305 1.367 . S
C1304 C1312 1.378 . S
C1305 C1304 1.367 . S
C1305 C1313 1.433 . S
C1306 H1302 0.929 . S
C1306 C1308 1.378 . S
C1306 C1310 1.350 . S
C1307 C1310 1.463 . S
C1307 C1312 1.350 . S
C1307 N1315 1.427 . S
C1308 H1299 0.930 . S
C1308 C1306 1.378 . S
C1308 C1309 1.367 . S
C1309 C1308 1.367 . S
C1309 C1311 1.433 . S
C1310 C1306 1.350 . S
C1310 C1307 1.463 . S
C1310 N1314 1.427 . S
C1311 H1301 0.929 . S
C1311 C1309 1.433 . S
C1311 N1314 1.384 . S
C1312 H1303 0.929 . S
C1312 C1304 1.378 . S
C1312 C1307 1.350 . S
C1313 H1300 0.929 . S
C1313 C1305 1.433 . S
C1313 N1315 1.384 . S
N1314 C1310 1.427 . S
N1314 C1311 1.384 . S
N1315 C1307 1.427 . S
N1315 C1313 1.384 . S
H1316 C1322 0.930 . S
H1317 C1326 0.930 . S
H1318 C1331 0.929 . S
H1319 C1329 0.929 . S
H1320 C1324 0.929 . S
H1321 C1330 0.929 . S
C1322 H1316 0.930 . S
C1322 C1323 1.367 . S
C1322 C1330 1.378 . S
C1323 C1322 1.367 . S
C1323 C1331 1.433 . S
C1324 H1320 0.929 . S
C1324 C1326 1.378 . S
C1324 C1328 1.350 . S
C1325 C1328 1.463 . S
C1325 C1330 1.350 . S
C1325 N1333 1.427 . S
C1326 H1317 0.930 . S
C1326 C1324 1.378 . S
C1326 C1327 1.367 . S
C1327 C1326 1.367 . S
C1327 C1329 1.433 . S
C1328 C1324 1.350 . S
C1328 C1325 1.463 . S
C1328 N1332 1.427 . S
C1329 H1319 0.929 . S
C1329 C1327 1.433 . S
C1329 N1332 1.384 . S
C1330 H1321 0.929 . S
C1330 C1322 1.378 . S
C1330 C1325 1.350 . S
C1331 H1318 0.929 . S
C1331 C1323 1.433 . S
C1331 N1333 1.384 . S
N1332 C1328 1.427 . S
N1332 C1329 1.384 . S
N1333 C1325 1.427 . S
N1333 C1331 1.384 . S
H1334 C1340 0.930 . S
H1335 C1344 0.930 . S
H1336 C1349 0.929 . S
H1337 C1347 0.929 . S
H1338 C1342 0.929 1_554 S
H1339 C1348 0.929 . S
C1340 H1334 0.930 . S
C1340 C1341 1.367 . S
C1340 C1348 1.378 . S
C1341 C1340 1.367 . S
C1341 C1349 1.433 . S
C1342 H1338 0.929 1_556 S
C1342 C1344 1.378 1_556 S
C1342 C1346 1.350 . S
C1343 C1346 1.463 . S
C1343 C1348 1.350 . S
C1343 N1351 1.427 . S
C1344 H1335 0.930 . S
C1344 C1342 1.378 1_554 S
C1344 C1345 1.367 1_554 S
C1345 C1344 1.367 1_556 S
C1345 C1347 1.433 . S
C1346 C1342 1.350 . S
C1346 C1343 1.463 . S
C1346 N1350 1.427 . S
C1347 H1337 0.929 . S
C1347 C1345 1.433 . S
C1347 N1350 1.384 . S
C1348 H1339 0.929 . S
C1348 C1340 1.378 . S
C1348 C1343 1.350 . S
C1349 H1336 0.929 . S
C1349 C1341 1.433 . S
C1349 N1351 1.384 . S
N1350 C1346 1.427 . S
N1350 C1347 1.384 . S
N1351 C1343 1.427 . S
N1351 C1349 1.384 . S
H1352 C1358 0.930 . S
H1353 C1362 0.930 . S
H1354 C1367 0.929 . S
H1355 C1365 0.929 . S
H1356 C1360 0.929 . S
H1357 C1366 0.929 . S
C1358 H1352 0.930 . S
C1358 C1359 1.367 . S
C1358 C1366 1.378 . S
C1359 C1358 1.367 . S
C1359 C1367 1.433 . S
C1360 H1356 0.929 . S
C1360 C1362 1.378 . S
C1360 C1364 1.350 . S
C1361 C1364 1.463 . S
C1361 C1366 1.350 . S
C1361 N1369 1.427 . S
C1362 H1353 0.930 . S
C1362 C1360 1.378 . S
C1362 C1363 1.367 . S
C1363 C1362 1.367 . S
C1363 C1365 1.433 . S
C1364 C1360 1.350 . S
C1364 C1361 1.463 . S
C1364 N1368 1.427 . S
C1365 H1355 0.929 . S
C1365 C1363 1.433 . S
C1365 N1368 1.384 . S
C1366 H1357 0.929 . S
C1366 C1358 1.378 . S
C1366 C1361 1.350 . S
C1367 H1354 0.929 . S
C1367 C1359 1.433 . S
C1367 N1369 1.384 . S
N1368 C1364 1.427 . S
N1368 C1365 1.384 . S
N1369 C1361 1.427 . S
N1369 C1367 1.384 . S
H1370 C1376 0.930 . S
H1371 C1380 0.930 . S
H1372 C1385 0.929 . S
H1373 C1383 0.929 . S
H1374 C1378 0.929 . S
H1375 C1384 0.929 . S
C1376 H1370 0.930 . S
C1376 C1377 1.367 . S
C1376 C1384 1.378 . S
C1377 C1376 1.367 . S
C1377 C1385 1.433 . S
C1378 H1374 0.929 . S
C1378 C1380 1.378 . S
C1378 C1382 1.350 . S
C1379 C1382 1.463 . S
C1379 C1384 1.350 . S
C1379 N1387 1.427 . S
C1380 H1371 0.930 . S
C1380 C1378 1.378 . S
C1380 C1381 1.367 . S
C1381 C1380 1.367 . S
C1381 C1383 1.433 . S
C1382 C1378 1.350 . S
C1382 C1379 1.463 . S
C1382 N1386 1.427 . S
C1383 H1373 0.929 . S
C1383 C1381 1.433 . S
C1383 N1386 1.384 . S
C1384 H1375 0.929 . S
C1384 C1376 1.378 . S
C1384 C1379 1.350 . S
C1385 H1372 0.929 . S
C1385 C1377 1.433 . S
C1385 N1387 1.384 . S
N1386 C1382 1.427 . S
N1386 C1383 1.384 . S
N1387 C1379 1.427 . S
N1387 C1385 1.384 . S
H1388 C1394 0.930 . S
H1389 C1398 0.930 . S
H1390 C1403 0.929 . S
H1391 C1401 0.929 . S
H1392 C1396 0.929 . S
H1393 C1402 0.929 . S
C1394 H1388 0.930 . S
C1394 C1395 1.367 . S
C1394 C1402 1.378 . S
C1395 C1394 1.367 . S
C1395 C1403 1.433 . S
C1396 H1392 0.929 . S
C1396 C1398 1.378 1_556 S
C1396 C1400 1.350 . S
C1397 C1400 1.463 . S
C1397 C1402 1.350 . S
C1397 N1405 1.427 . S
C1398 H1389 0.930 . S
C1398 C1396 1.378 1_554 S
C1398 C1399 1.367 1_554 S
C1399 C1398 1.367 1_556 S
C1399 C1401 1.433 . S
C1400 C1396 1.350 . S
C1400 C1397 1.463 . S
C1400 N1404 1.427 . S
C1401 H1391 0.929 . S
C1401 C1399 1.433 . S
C1401 N1404 1.384 . S
C1402 H1393 0.929 . S
C1402 C1394 1.378 . S
C1402 C1397 1.350 . S
C1403 H1390 0.929 . S
C1403 C1395 1.433 . S
C1403 N1405 1.384 . S
N1404 C1400 1.427 . S
N1404 C1401 1.384 . S
N1405 C1397 1.427 . S
N1405 C1403 1.384 . S
H1406 C1412 0.930 . S
H1407 C1416 0.930 . S
H1408 C1421 0.929 . S
H1409 C1419 0.929 . S
H1410 C1414 0.929 . S
H1411 C1420 0.929 . S
C1412 H1406 0.930 . S
C1412 C1413 1.367 . S
C1412 C1420 1.378 . S
C1413 C1412 1.367 . S
C1413 C1421 1.433 . S
C1414 H1410 0.929 . S
C1414 C1416 1.378 . S
C1414 C1418 1.350 . S
C1415 C1418 1.463 . S
C1415 C1420 1.350 . S
C1415 N1423 1.427 . S
C1416 H1407 0.930 . S
C1416 C1414 1.378 . S
C1416 C1417 1.367 . S
C1417 C1416 1.367 . S
C1417 C1419 1.433 . S
C1418 C1414 1.350 . S
C1418 C1415 1.463 . S
C1418 N1422 1.427 . S
C1419 H1409 0.929 . S
C1419 C1417 1.433 . S
C1419 N1422 1.384 . S
C1420 H1411 0.929 . S
C1420 C1412 1.378 . S
C1420 C1415 1.350 . S
C1421 H1408 0.929 . S
C1421 C1413 1.433 . S
C1421 N1423 1.384 . S
N1422 C1418 1.427 . S
N1422 C1419 1.384 . S
N1423 C1415 1.427 . S
N1423 C1421 1.384 . S
H1424 C1430 0.930 . S
H1425 C1434 0.930 . S
H1426 C1439 0.929 . S
H1427 C1437 0.929 . S
H1428 C1432 0.929 . S
H1429 C1438 0.929 . S
C1430 H1424 0.930 . S
C1430 C1431 1.367 1_554 S
C1430 C1438 1.378 1_554 S
C1431 C1430 1.367 1_556 S
C1431 C1439 1.433 . S
C1432 H1428 0.929 . S
C1432 C1434 1.378 . S
C1432 C1436 1.350 . S
C1433 C1436 1.463 . S
C1433 C1438 1.350 . S
C1433 N1441 1.427 . S
C1434 H1425 0.930 . S
C1434 C1432 1.378 . S
C1434 C1435 1.367 . S
C1435 C1434 1.367 . S
C1435 C1437 1.433 . S
C1436 C1432 1.350 . S
C1436 C1433 1.463 . S
C1436 N1440 1.427 . S
C1437 H1427 0.929 . S
C1437 C1435 1.433 . S
C1437 N1440 1.384 . S
C1438 H1429 0.929 . S
C1438 C1430 1.378 1_556 S
C1438 C1433 1.350 . S
C1439 H1426 0.929 . S
C1439 C1431 1.433 . S
C1439 N1441 1.384 . S
N1440 C1436 1.427 . S
N1440 C1437 1.384 . S
N1441 C1433 1.427 . S
N1441 C1439 1.384 . S
H1442 C1448 0.930 . S
H1443 C1452 0.930 . S
H1444 C1457 0.929 . S
H1445 C1455 0.929 . S
H1446 C1450 0.929 . S
H1447 C1456 0.929 . S
C1448 H1442 0.930 . S
C1448 C1449 1.367 . S
C1448 C1456 1.378 . S
C1449 C1448 1.367 . S
C1449 C1457 1.433 . S
C1450 H1446 0.929 . S
C1450 C1452 1.378 . S
C1450 C1454 1.350 . S
C1451 C1454 1.463 . S
C1451 C1456 1.350 . S
C1451 N1459 1.427 . S
C1452 H1443 0.930 . S
C1452 C1450 1.378 . S
C1452 C1453 1.367 . S
C1453 C1452 1.367 . S
C1453 C1455 1.433 . S
C1454 C1450 1.350 . S
C1454 C1451 1.463 . S
C1454 N1458 1.427 . S
C1455 H1445 0.929 . S
C1455 C1453 1.433 . S
C1455 N1458 1.384 . S
C1456 H1447 0.929 . S
C1456 C1448 1.378 . S
C1456 C1451 1.350 . S
C1457 H1444 0.929 . S
C1457 C1449 1.433 . S
C1457 N1459 1.384 . S
N1458 C1454 1.427 . S
N1458 C1455 1.384 . S
N1459 C1451 1.427 . S
N1459 C1457 1.384 . S
H1460 C1466 0.930 . S
H1461 C1470 0.930 . S
H1462 C1475 0.929 . S
H1463 C1473 0.929 . S
H1464 C1468 0.929 . S
H1465 C1474 0.929 . S
C1466 H1460 0.930 . S
C1466 C1467 1.367 . S
C1466 C1474 1.378 . S
C1467 C1466 1.367 . S
C1467 C1475 1.433 . S
C1468 H1464 0.929 . S
C1468 C1470 1.378 . S
C1468 C1472 1.350 . S
C1469 C1472 1.463 . S
C1469 C1474 1.350 . S
C1469 N1477 1.427 . S
C1470 H1461 0.930 . S
C1470 C1468 1.378 . S
C1470 C1471 1.367 . S
C1471 C1470 1.367 . S
C1471 C1473 1.433 . S
C1472 C1468 1.350 . S
C1472 C1469 1.463 . S
C1472 N1476 1.427 . S
C1473 H1463 0.929 . S
C1473 C1471 1.433 . S
C1473 N1476 1.384 . S
C1474 H1465 0.929 . S
C1474 C1466 1.378 . S
C1474 C1469 1.350 . S
C1475 H1462 0.929 . S
C1475 C1467 1.433 . S
C1475 N1477 1.384 . S
N1476 C1472 1.427 . S
N1476 C1473 1.384 . S
N1477 C1469 1.427 . S
N1477 C1475 1.384 . S
H1478 C1484 0.930 . S
H1479 C1488 0.930 . S
H1480 C1493 0.929 . S
H1481 C1491 0.929 . S
H1482 C1486 0.929 . S
H1483 C1492 0.929 . S
C1484 H1478 0.930 . S
C1484 C1485 1.367 . S
C1484 C1492 1.378 . S
C1485 C1484 1.367 . S
C1485 C1493 1.433 . S
C1486 H1482 0.929 . S
C1486 C1488 1.378 . S
C1486 C1490 1.350 . S
C1487 C1490 1.463 . S
C1487 C1492 1.350 . S
C1487 N1495 1.427 . S
C1488 H1479 0.930 . S
C1488 C1486 1.378 . S
C1488 C1489 1.367 . S
C1489 C1488 1.367 . S
C1489 C1491 1.433 . S
C1490 C1486 1.350 . S
C1490 C1487 1.463 . S
C1490 N1494 1.427 . S
C1491 H1481 0.929 . S
C1491 C1489 1.433 . S
C1491 N1494 1.384 . S
C1492 H1483 0.929 . S
C1492 C1484 1.378 . S
C1492 C1487 1.350 . S
C1493 H1480 0.929 . S
C1493 C1485 1.433 . S
C1493 N1495 1.384 . S
N1494 C1490 1.427 . S
N1494 C1491 1.384 . S
N1495 C1487 1.427 . S
N1495 C1493 1.384 . S
H1496 C1502 0.930 . S
H1497 C1506 0.930 . S
H1498 C1511 0.929 . S
H1499 C1509 0.929 . S
H1500 C1504 0.929 . S
H1501 C1510 0.929 . S
C1502 H1496 0.930 . S
C1502 C1503 1.367 . S
C1502 C1510 1.378 . S
C1503 C1502 1.367 . S
C1503 C1511 1.433 . S
C1504 H1500 0.929 . S
C1504 C1506 1.378 . S
C1504 C1508 1.350 . S
C1505 C1508 1.463 . S
C1505 C1510 1.350 . S
C1505 N1513 1.427 . S
C1506 H1497 0.930 . S
C1506 C1504 1.378 . S
C1506 C1507 1.367 . S
C1507 C1506 1.367 . S
C1507 C1509 1.433 . S
C1508 C1504 1.350 . S
C1508 C1505 1.463 . S
C1508 N1512 1.427 . S
C1509 H1499 0.929 . S
C1509 C1507 1.433 . S
C1509 N1512 1.384 . S
C1510 H1501 0.929 . S
C1510 C1502 1.378 . S
C1510 C1505 1.350 . S
C1511 H1498 0.929 . S
C1511 C1503 1.433 . S
C1511 N1513 1.384 . S
N1512 C1508 1.427 . S
N1512 C1509 1.384 . S
N1513 C1505 1.427 . S
N1513 C1511 1.384 . S
H1514 C1520 0.930 . S
H1515 C1524 0.930 . S
H1516 C1529 0.929 . S
H1517 C1527 0.929 . S
H1518 C1522 0.929 . S
H1519 C1528 0.929 . S
C1520 H1514 0.930 . S
C1520 C1521 1.367 . S
C1520 C1528 1.378 . S
C1521 C1520 1.367 . S
C1521 C1529 1.433 . S
C1522 H1518 0.929 . S
C1522 C1524 1.378 . S
C1522 C1526 1.350 . S
C1523 C1526 1.463 . S
C1523 C1528 1.350 . S
C1523 N1531 1.427 . S
C1524 H1515 0.930 . S
C1524 C1522 1.378 . S
C1524 C1525 1.367 . S
C1525 C1524 1.367 . S
C1525 C1527 1.433 . S
C1526 C1522 1.350 . S
C1526 C1523 1.463 . S
C1526 N1530 1.427 . S
C1527 H1517 0.929 . S
C1527 C1525 1.433 . S
C1527 N1530 1.384 . S
C1528 H1519 0.929 . S
C1528 C1520 1.378 . S
C1528 C1523 1.350 . S
C1529 H1516 0.929 . S
C1529 C1521 1.433 . S
C1529 N1531 1.384 . S
N1530 C1526 1.427 . S
N1530 C1527 1.384 . S
N1531 C1523 1.427 . S
N1531 C1529 1.384 . S
H1532 C1538 0.930 . S
H1533 C1542 0.930 . S
H1534 C1547 0.929 . S
H1535 C1545 0.929 . S
H1536 C1540 0.929 . S
H1537 C1546 0.929 . S
C1538 H1532 0.930 . S
C1538 C1539 1.367 . S
C1538 C1546 1.378 . S
C1539 C1538 1.367 . S
C1539 C1547 1.433 . S
C1540 H1536 0.929 . S
C1540 C1542 1.378 . S
C1540 C1544 1.350 . S
C1541 C1544 1.463 . S
C1541 C1546 1.350 . S
C1541 N1549 1.427 . S
C1542 H1533 0.930 . S
C1542 C1540 1.378 . S
C1542 C1543 1.367 . S
C1543 C1542 1.367 . S
C1543 C1545 1.433 . S
C1544 C1540 1.350 . S
C1544 C1541 1.463 . S
C1544 N1548 1.427 . S
C1545 H1535 0.929 . S
C1545 C1543 1.433 . S
C1545 N1548 1.384 . S
C1546 H1537 0.929 . S
C1546 C1538 1.378 . S
C1546 C1541 1.350 . S
C1547 H1534 0.929 . S
C1547 C1539 1.433 . S
C1547 N1549 1.384 . S
N1548 C1544 1.427 . S
N1548 C1545 1.384 . S
N1549 C1541 1.427 . S
N1549 C1547 1.384 . S
H1550 C1556 0.930 . S
H1551 C1560 0.930 . S
H1552 C1565 0.929 . S
H1553 C1563 0.929 1_554 S
H1554 C1558 0.929 . S
H1555 C1564 0.929 . S
C1556 H1550 0.930 . S
C1556 C1557 1.367 . S
C1556 C1564 1.378 . S
C1557 C1556 1.367 . S
C1557 C1565 1.433 . S
C1558 H1554 0.929 . S
C1558 C1560 1.378 . S
C1558 C1562 1.350 . S
C1559 C1562 1.463 . S
C1559 C1564 1.350 . S
C1559 N1567 1.427 . S
C1560 H1551 0.930 . S
C1560 C1558 1.378 . S
C1560 C1561 1.367 . S
C1561 C1560 1.367 . S
C1561 C1563 1.433 . S
C1562 C1558 1.350 . S
C1562 C1559 1.463 . S
C1562 N1566 1.427 . S
C1563 H1553 0.929 1_556 S
C1563 C1561 1.433 . S
C1563 N1566 1.384 . S
C1564 H1555 0.929 . S
C1564 C1556 1.378 . S
C1564 C1559 1.350 . S
C1565 H1552 0.929 . S
C1565 C1557 1.433 . S
C1565 N1567 1.384 . S
N1566 C1562 1.427 . S
N1566 C1563 1.384 . S
N1567 C1559 1.427 . S
N1567 C1565 1.384 . S
C423 C105 1.954 . S
C427 C10 1.954 . S
C441 C14 2.044 . S
C445 C335 2.044 . S
C459 C36 1.945 . S
C463 C131 1.945 . S
C477 C40 2.042 . S
C481 C361 2.043 . S
C495 C62 1.944 . S
C499 C157 1.944 . S
C513 C387 2.047 . S
C517 C66 2.047 . S
C531 C183 1.953 . S
C535 C88 1.953 . S
C549 C413 2.047 . S
C553 C92 2.047 . S
C567 C222 2.043 . S
C571 C127 2.043 . S
C585 C153 2.042 . S
C589 C248 2.042 . S
C603 C179 2.041 . S
C607 C274 2.041 . S
C621 C300 2.042 . S
C625 C205 2.042 . S
C639 C313 1.955 . S
C643 C218 1.955 . S
C657 C244 1.947 . S
C661 C339 1.947 . S
C675 C270 1.949 . S
C679 C365 1.948 . S
C693 C391 1.945 . S
C697 C296 1.945 . S
C711 C3 1.758 . S
C715 C55 1.756 . S
C729 C70 1.702 . S
C733 C18 1.701 . S
C747 C81 1.758 . S
C751 C29 1.756 . S
C765 C44 1.705 . S
C769 C96 1.704 . S
C783 C109 1.760 . S
C787 C161 1.758 . S
C801 C120 1.709 . S
C805 C172 1.707 . S
C819 C187 1.760 . S
C823 C135 1.758 . S
C837 C198 1.702 . S
C841 C146 1.704 . S
C855 C263 1.756 . S
C859 C211 1.758 . S
C873 C278 1.707 . S
C877 C226 1.705 . S
C891 C237 1.757 . S
C895 C289 1.756 . S
C909 C304 1.711 . S
C913 C252 1.712 . S
C927 C369 1.760 . S
C931 C317 1.757 . S
C945 C328 1.703 . S
C949 C380 1.704 . S
C963 C395 1.760 . S
C967 C343 1.759 . S
C981 C406 1.711 . S
C985 C354 1.710 . S
C999 C53 0.520 . S
C1003 C1 0.520 . S
C1017 C75 0.552 . S
C1021 C23 0.548 . S
C1035 C27 0.520 . S
C1039 C79 0.520 . S
C1053 C101 0.528 . S
C1057 C49 0.536 . S
C1071 C166 0.519 . S
C1075 C114 0.521 . S
C1089 C118 0.538 . S
C1093 C170 0.546 . S
C1107 C192 0.521 . S
C1111 C140 0.519 . S
C1125 C196 0.535 . S
C1129 C144 0.528 . S
C1143 C209 0.521 . S
C1147 C261 0.519 . S
C1161 C283 0.551 . S
C1165 C231 0.547 . S
C1179 C287 0.521 . S
C1183 C235 0.519 . S
C1197 C309 0.526 . S
C1201 C257 0.527 . S
C1215 C374 0.519 . S
C1219 C322 0.521 . S
C1233 C326 0.541 . S
C1237 C378 0.549 . S
C1251 C348 0.520 . S
C1255 C400 0.521 . S
C1269 C352 0.538 . S
C1273 C404 0.530 . S
C1287 C5 2.034 . S
C1291 C276 2.107 . S
C1305 C291 2.030 . S
C1309 C16 2.100 . S
C1323 C31 2.032 . S
C1327 C302 2.100 . S
C1341 C42 2.107 . S
C1345 C265 2.033 1_556 S
C1359 C250 2.105 . S
C1363 C57 2.028 . S
C1377 C213 2.038 . S
C1381 C68 2.102 . S
C1395 C224 2.107 . S
C1399 C83 2.031 1_556 S
C1413 C94 2.103 . S
C1417 C239 2.027 . S
C1431 C107 2.030 1_556 S
C1435 C382 2.106 . S
C1449 C393 2.028 . S
C1453 C122 2.106 . S
C1467 C408 2.100 . S
C1471 C133 2.031 . S
C1485 C367 2.036 . S
C1489 C148 2.108 . S
C1503 C356 2.107 . S
C1507 C159 2.038 . S
C1521 C315 2.028 . S
C1525 C174 2.106 . S
C1539 C185 2.028 . S
C1543 C330 2.102 . S
C1557 C200 2.104 . S
C1561 C341 2.026 1_556 S
