# Generated by pormake.
# Topology sgn, (3)-cn, num edge types: 1
# Building blocks:
#     Node 0, Type 0, BuildingBlock: OLANEW_clean_sbu_2, # of connection points: 3
#     Node 1, Type 0, BuildingBlock: OLANEW_clean_sbu_2, # of connection points: 3
#     Node 2, Type 0, BuildingBlock: OLANEW_clean_sbu_2, # of connection points: 3
#     Node 3, Type 0, BuildingBlock: OLANEW_clean_sbu_2, # of connection points: 3
#     Node 4, Type 0, BuildingBlock: OLANEW_clean_sbu_2, # of connection points: 3
#     Node 5, Type 0, BuildingBlock: OLANEW_clean_sbu_2, # of connection points: 3
#     Node 6, Type 0, BuildingBlock: OLANEW_clean_sbu_2, # of connection points: 3
#     Node 7, Type 0, BuildingBlock: OLANEW_clean_sbu_2, # of connection points: 3
#     Node 8, Type 0, BuildingBlock: OLANEW_clean_sbu_2, # of connection points: 3
#     Node 9, Type 0, BuildingBlock: OLANEW_clean_sbu_2, # of connection points: 3
#     Node 10, Type 0, BuildingBlock: OLANEW_clean_sbu_2, # of connection points: 3
#     Node 11, Type 0, BuildingBlock: OLANEW_clean_sbu_2, # of connection points: 3
#     Node 12, Type 0, BuildingBlock: OLANEW_clean_sbu_2, # of connection points: 3
#     Node 13, Type 0, BuildingBlock: OLANEW_clean_sbu_2, # of connection points: 3
#     Node 14, Type 0, BuildingBlock: OLANEW_clean_sbu_2, # of connection points: 3
#     Node 15, Type 0, BuildingBlock: OLANEW_clean_sbu_2, # of connection points: 3
#     Node 16, Type 0, BuildingBlock: OLANEW_clean_sbu_2, # of connection points: 3
#     Node 17, Type 0, BuildingBlock: OLANEW_clean_sbu_2, # of connection points: 3
#     Node 18, Type 0, BuildingBlock: OLANEW_clean_sbu_2, # of connection points: 3
#     Node 19, Type 0, BuildingBlock: OLANEW_clean_sbu_2, # of connection points: 3
#     Node 20, Type 0, BuildingBlock: OLANEW_clean_sbu_2, # of connection points: 3
#     Node 21, Type 0, BuildingBlock: OLANEW_clean_sbu_2, # of connection points: 3
#     Node 22, Type 0, BuildingBlock: OLANEW_clean_sbu_2, # of connection points: 3
#     Node 23, Type 0, BuildingBlock: OLANEW_clean_sbu_2, # of connection points: 3
#     Edge 24, Type (0, 0), BuildingBlock: KIFKEQ_clean_linker_1, # of connection points: 2
#     Edge 25, Type (0, 0), BuildingBlock: KIFKEQ_clean_linker_1, # of connection points: 2
#     Edge 26, Type (0, 0), BuildingBlock: KIFKEQ_clean_linker_1, # of connection points: 2
#     Edge 27, Type (0, 0), BuildingBlock: KIFKEQ_clean_linker_1, # of connection points: 2
#     Edge 28, Type (0, 0), BuildingBlock: KIFKEQ_clean_linker_1, # of connection points: 2
#     Edge 29, Type (0, 0), BuildingBlock: KIFKEQ_clean_linker_1, # of connection points: 2
#     Edge 30, Type (0, 0), BuildingBlock: KIFKEQ_clean_linker_1, # of connection points: 2
#     Edge 31, Type (0, 0), BuildingBlock: KIFKEQ_clean_linker_1, # of connection points: 2
#     Edge 32, Type (0, 0), BuildingBlock: KIFKEQ_clean_linker_1, # of connection points: 2
#     Edge 33, Type (0, 0), BuildingBlock: KIFKEQ_clean_linker_1, # of connection points: 2
#     Edge 34, Type (0, 0), BuildingBlock: KIFKEQ_clean_linker_1, # of connection points: 2
#     Edge 35, Type (0, 0), BuildingBlock: KIFKEQ_clean_linker_1, # of connection points: 2
#     Edge 36, Type (0, 0), BuildingBlock: KIFKEQ_clean_linker_1, # of connection points: 2
#     Edge 37, Type (0, 0), BuildingBlock: KIFKEQ_clean_linker_1, # of connection points: 2
#     Edge 38, Type (0, 0), BuildingBlock: KIFKEQ_clean_linker_1, # of connection points: 2
#     Edge 39, Type (0, 0), BuildingBlock: KIFKEQ_clean_linker_1, # of connection points: 2
#     Edge 40, Type (0, 0), BuildingBlock: KIFKEQ_clean_linker_1, # of connection points: 2
#     Edge 41, Type (0, 0), BuildingBlock: KIFKEQ_clean_linker_1, # of connection points: 2
#     Edge 42, Type (0, 0), BuildingBlock: KIFKEQ_clean_linker_1, # of connection points: 2
#     Edge 43, Type (0, 0), BuildingBlock: KIFKEQ_clean_linker_1, # of connection points: 2
#     Edge 44, Type (0, 0), BuildingBlock: KIFKEQ_clean_linker_1, # of connection points: 2
#     Edge 45, Type (0, 0), BuildingBlock: KIFKEQ_clean_linker_1, # of connection points: 2
#     Edge 46, Type (0, 0), BuildingBlock: KIFKEQ_clean_linker_1, # of connection points: 2
#     Edge 47, Type (0, 0), BuildingBlock: KIFKEQ_clean_linker_1, # of connection points: 2
#     Edge 48, Type (0, 0), BuildingBlock: KIFKEQ_clean_linker_1, # of connection points: 2
#     Edge 49, Type (0, 0), BuildingBlock: KIFKEQ_clean_linker_1, # of connection points: 2
#     Edge 50, Type (0, 0), BuildingBlock: KIFKEQ_clean_linker_1, # of connection points: 2
#     Edge 51, Type (0, 0), BuildingBlock: KIFKEQ_clean_linker_1, # of connection points: 2
#     Edge 52, Type (0, 0), BuildingBlock: KIFKEQ_clean_linker_1, # of connection points: 2
#     Edge 53, Type (0, 0), BuildingBlock: KIFKEQ_clean_linker_1, # of connection points: 2
#     Edge 54, Type (0, 0), BuildingBlock: KIFKEQ_clean_linker_1, # of connection points: 2
#     Edge 55, Type (0, 0), BuildingBlock: KIFKEQ_clean_linker_1, # of connection points: 2
#     Edge 56, Type (0, 0), BuildingBlock: KIFKEQ_clean_linker_1, # of connection points: 2
#     Edge 57, Type (0, 0), BuildingBlock: KIFKEQ_clean_linker_1, # of connection points: 2
#     Edge 58, Type (0, 0), BuildingBlock: KIFKEQ_clean_linker_1, # of connection points: 2
#     Edge 59, Type (0, 0), BuildingBlock: KIFKEQ_clean_linker_1, # of connection points: 2
# Relax obj value: 0.089
# Max RMSD: 0.280
# Mean RMSD: 0.072
data_MOF--net-sgn--node1-OLANEW_clean_sbu_2--edge1-KIFKEQ_clean_linker_1
_symmetry_space_group_name_H-M    P1
_symmetry_Int_Tables_number       1
_symmetry_cell_setting            triclinic
loop_
_symmetry_equiv_pos_as_xyz
'x, y, z'
_cell_length_a     75.60962
_cell_length_b     36.55476
_cell_length_c     43.01672
_cell_angle_alpha  89.469217
_cell_angle_beta   90.35672
_cell_angle_gamma 88.001904
loop_
_atom_site_label
_atom_site_type_symbol
_atom_site_fract_x
_atom_site_fract_y
_atom_site_fract_z
_atom_type_partial_charge
O0 O 0.01185 0.3878 0.99471 0.0
Cd1 Cd 0.00979 0.44785 0.96914 0.0
O2 O 0.98433 0.37364 0.98522 0.0
Cd3 Cd 0.97678 0.42887 0.96935 0.0
O4 O 0.96159 0.47964 0.97766 0.0
C5 C 0.96495 0.496 0.00292 0.0
O6 O 0.97786 0.48311 0.02093 0.0
C7 C -0.0004 0.36489 0.996 0.0
C8 C 0.0395 0.45542 0.93176 0.0
O9 O 0.03975 0.46401 0.96058 0.0
O10 O 0.02502 0.444 0.92034 0.0
O11 O 0.99603 0.90498 0.46736 0.0
Cd12 Cd 0.99333 0.96516 0.44227 0.0
O13 O 0.97749 0.87779 0.43631 0.0
Cd14 Cd 0.9669 0.92978 0.41757 0.0
O15 O 0.94475 0.96972 0.41784 0.0
C16 C 0.94182 0.98675 0.44301 0.0
O17 O 0.95296 0.98164 0.46635 0.0
C18 C 0.98874 0.87604 0.4584 0.0
C19 C 0.02143 0.97188 0.40115 0.0
O20 O 0.02343 0.97728 0.43032 0.0
O21 O 0.00602 0.96407 0.39116 0.0
O22 O 0.48654 0.50541 0.51177 0.0
Cd23 Cd 0.48248 0.45737 0.55063 0.0
O24 O 0.4606 0.5005 0.48898 0.0
Cd25 Cd 0.45013 0.45948 0.52038 0.0
O26 O 0.42607 0.43797 0.54036 0.0
C27 C 0.41296 0.43698 0.52179 0.0
O28 O 0.41518 0.44674 0.49264 0.0
C29 C 0.47551 0.5154 0.49069 0.0
C30 C 0.51441 0.44497 0.58253 0.0
O31 O 0.51064 0.42646 0.55835 0.0
O32 O 0.50289 0.46879 0.59204 0.0
O33 O 0.48462 0.24415 0.98355 0.0
Cd34 Cd 0.49135 0.17833 0.98142 0.0
O35 O 0.48996 0.24877 0.03374 0.0
Cd36 Cd 0.50085 0.1931 0.04025 0.0
O37 O 0.52104 0.15674 0.06184 0.0
C38 C 0.5371 0.1625 0.05545 0.0
O39 O 0.54058 0.18795 0.03482 0.0
C40 C 0.48502 0.26334 0.00803 0.0
C41 C 0.46153 0.14108 0.9627 0.0
O42 O 0.46548 0.14392 0.99158 0.0
O43 O 0.47175 0.15554 0.94273 0.0
O44 O 0.99606 0.62446 0.59082 0.0
Cd45 Cd 0.9964 0.56771 0.62123 0.0
O46 O 0.0243 0.63607 0.59607 0.0
Cd47 Cd 0.03082 0.59257 0.62983 0.0
O48 O 0.04752 0.57127 0.66802 0.0
C49 C 0.04681 0.58796 0.6938 0.0
O50 O 0.03527 0.61538 0.69692 0.0
C51 C 0.00913 0.6441 0.5845 0.0
C52 C 0.96827 0.52699 0.59995 0.0
O53 O 0.96635 0.54864 0.62305 0.0
O54 O 0.98362 0.52376 0.5876 0.0
O55 O 0.49051 0.78088 0.39405 0.0
Cd56 Cd 0.48807 0.84518 0.37813 0.0
O57 O 0.47368 0.76138 0.35624 0.0
Cd58 Cd 0.46323 0.81656 0.34594 0.0
O59 O 0.4408 0.85431 0.35446 0.0
C60 C 0.4402 0.87221 0.37965 0.0
O61 O 0.45382 0.86983 0.39878 0.0
C62 C 0.4839 0.75458 0.37931 0.0
C63 C 0.52074 0.86746 0.3567 0.0
O64 O 0.51693 0.86843 0.38568 0.0
O65 O 0.50897 0.85648 0.3377 0.0
O66 O 0.47662 0.55788 0.01429 0.0
Cd67 Cd 0.48052 0.62287 0.00444 0.0
O68 O 0.4721 0.55244 0.96418 0.0
Cd69 Cd 0.46991 0.5234 0.9199 0.0
O70 O 0.47135 0.50773 0.86858 0.0
C71 C 0.45803 0.49731 0.85287 0.0
O72 O 0.47202 0.50778 0.86782 0.0
C73 C 0.47356 0.53771 0.99104 0.0
C74 C 0.51297 0.63106 0.97587 0.0
O75 O 0.51167 0.63271 0.00549 0.0
O76 O 0.49894 0.62629 0.95974 0.0
O77 O 0.03648 0.11648 0.12032 0.0
Cd78 Cd 0.04342 0.05851 0.14724 0.0
O79 O 0.00818 0.10533 0.11932 0.0
Cd80 Cd 0.98044 0.11501 0.10543 0.0
O81 O 0.95238 0.12456 0.09437 0.0
C82 C 0.94569 0.11121 0.06996 0.0
O83 O 0.95593 0.09181 0.0513 0.0
C84 C 0.02076 0.12616 0.11251 0.0
C85 C 0.06456 0.06669 0.19995 0.0
O86 O 0.07135 0.06501 0.17276 0.0
O87 O 0.04772 0.06473 0.2023 0.0
O88 O 0.19948 0.95065 0.48491 0.0
Cd89 Cd 0.1959 0.95186 0.54136 0.0
O90 O 0.17578 0.98639 0.4781 0.0
Cd91 Cd 0.15718 0.0191 0.44885 0.0
O92 O 0.13945 0.04092 0.41218 0.0
C93 C 0.14584 0.04892 0.38581 0.0
O94 O 0.16301 0.04535 0.38175 0.0
C95 C 0.18861 0.96753 0.46673 0.0
C96 C 0.20028 0.88178 0.5673 0.0
O97 O 0.18498 0.89435 0.55865 0.0
O98 O 0.2135 0.90244 0.56383 0.0
O99 O 0.23867 0.59316 0.90043 0.0
Cd100 Cd 0.23488 0.61749 0.95282 0.0
O101 O 0.20991 0.59326 0.89334 0.0
Cd102 Cd 0.18592 0.58114 0.86708 0.0
O103 O 0.16324 0.57368 0.83633 0.0
C104 C 0.14774 0.57062 0.8471 0.0
O105 O 0.14545 0.57129 0.87735 0.0
C106 C 0.22546 0.58753 0.88291 0.0
C107 C 0.24087 0.69234 0.95211 0.0
O108 O 0.25361 0.66878 0.95656 0.0
O109 O 0.22523 0.68049 0.94858 0.0
O110 O 0.29728 0.98689 0.55422 0.0
Cd111 Cd 0.29363 0.98875 0.49776 0.0
O112 O 0.28418 0.04115 0.55498 0.0
Cd113 Cd 0.27222 0.09086 0.57509 0.0
O114 O 0.26308 0.14323 0.59424 0.0
C115 C 0.27368 0.16054 0.61123 0.0
O116 O 0.28959 0.1462 0.6167 0.0
C117 C 0.29177 0.01447 0.5696 0.0
C118 C 0.32493 0.96759 0.46799 0.0
O119 O 0.32191 0.00093 0.4759 0.0
O120 O 0.31311 0.94432 0.47405 0.0
O121 O 0.27227 0.40433 0.06394 0.0
Cd122 Cd 0.28332 0.37623 0.11232 0.0
O123 O 0.29951 0.40473 0.04691 0.0
Cd124 Cd 0.32015 0.41823 0.01374 0.0
O125 O 0.34347 0.43419 0.9884 0.0
C126 C 0.345 0.42985 0.95925 0.0
O127 O 0.332 0.41548 0.94365 0.0
C128 C 0.28308 0.41147 0.04242 0.0
C129 C 0.27255 0.30425 0.11842 0.0
O130 O 0.26321 0.33106 0.12931 0.0
O131 O 0.28703 0.31148 0.10467 0.0
O132 O 0.21997 0.96862 0.22266 0.0
Cd133 Cd 0.22397 0.9744 0.16653 0.0
O134 O 0.19119 0.97548 0.21656 0.0
Cd135 Cd 0.16419 0.97639 0.23486 0.0
O136 O 0.14101 0.97744 0.26495 0.0
C137 C 0.12564 0.9709 0.25479 0.0
O138 O 0.12352 0.96366 0.22516 0.0
C139 C 0.20461 0.97121 0.23442 0.0
C140 C 0.23451 0.04468 0.15128 0.0
O141 O 0.21809 0.03705 0.15179 0.0
O142 O 0.24594 0.01894 0.15763 0.0
O143 O 0.25122 0.44594 0.67073 0.0
Cd144 Cd 0.25451 0.40877 0.62415 0.0
O145 O 0.23381 0.48646 0.64666 0.0
Cd146 Cd 0.21954 0.53954 0.64415 0.0
O147 O 0.21156 0.59634 0.63331 0.0
C148 C 0.2197 0.6222 0.646 0.0
O149 O 0.23232 0.61408 0.66632 0.0
C150 C 0.2417 0.47523 0.67129 0.0
C151 C 0.28884 0.41064 0.60118 0.0
O152 O 0.27676 0.43373 0.59184 0.0
O153 O 0.28465 0.38647 0.62135 0.0
O154 O 0.31781 0.98723 0.81585 0.0
Cd155 Cd 0.32136 0.98113 0.87234 0.0
O156 O 0.29399 0.02322 0.8195 0.0
Cd157 Cd 0.29082 0.00808 0.86829 0.0
O158 O 0.28255 0.96408 0.89905 0.0
C159 C 0.26838 0.94906 0.89082 0.0
O160 O 0.25962 0.96249 0.86656 0.0
C161 C 0.30588 0.0077 0.80292 0.0
C162 C 0.35164 0.01525 0.89326 0.0
O163 O 0.35191 0.98077 0.88804 0.0
O164 O 0.33707 0.03353 0.88871 0.0
O165 O 0.20714 0.46251 0.83605 0.0
Cd166 Cd 0.18816 0.45344 0.79079 0.0
O167 O 0.23255 0.45312 0.81234 0.0
Cd168 Cd 0.22082 0.44015 0.76763 0.0
O169 O 0.22318 0.40037 0.73039 0.0
C170 C 0.239 0.39276 0.72226 0.0
O171 O 0.25189 0.41051 0.73525 0.0
C172 C 0.22395 0.46034 0.83692 0.0
C173 C 0.15359 0.45062 0.81252 0.0
O174 O 0.16415 0.42246 0.81371 0.0
O175 O 0.15912 0.48003 0.80004 0.0
O176 O 0.76231 0.13546 0.0692 0.0
Cd177 Cd 0.77764 0.14949 0.02085 0.0
O178 O 0.76004 0.07666 0.0601 0.0
Cd179 Cd 0.76836 0.08512 0.01215 0.0
O180 O 0.76601 0.11128 0.96633 0.0
C181 C 0.75264 0.13299 0.96272 0.0
O182 O 0.74155 0.13725 0.98591 0.0
C183 C 0.75781 0.10383 0.0781 0.0
C184 C 0.81428 0.14241 0.02876 0.0
O185 O 0.80597 0.173 0.03347 0.0
O186 O 0.80527 0.11521 0.02009 0.0
O187 O 0.83623 0.44765 0.4012 0.0
Cd188 Cd 0.83505 0.41083 0.44889 0.0
O189 O 0.80817 0.46533 0.40359 0.0
Cd190 Cd 0.80159 0.42582 0.43967 0.0
O191 O 0.78585 0.37812 0.44926 0.0
C192 C 0.77184 0.37698 0.43286 0.0
O193 O 0.76798 0.40441 0.41375 0.0
C194 C 0.82319 0.46698 0.39064 0.0
C195 C 0.8628 0.42872 0.4884 0.0
O196 O 0.86451 0.40219 0.46925 0.0
O197 O 0.84786 0.44637 0.48921 0.0
O198 O 0.68957 0.97745 0.32295 0.0
Cd199 Cd 0.67762 0.95124 0.27556 0.0
O200 O 0.7152 0.99137 0.30295 0.0
Cd201 Cd 0.70973 0.96807 0.25758 0.0
O202 O 0.71696 0.93253 0.21896 0.0
C203 C 0.72863 0.94276 0.19993 0.0
O204 O 0.73488 0.97565 0.20273 0.0
C205 C 0.70476 0.9909 0.32596 0.0
C206 C 0.64311 0.93066 0.28719 0.0
O207 O 0.65639 0.90896 0.29327 0.0
O208 O 0.64611 0.96188 0.27488 0.0
O209 O 0.84353 0.64238 0.19133 0.0
Cd210 Cd 0.84597 0.68188 0.14553 0.0
O211 O 0.81912 0.61788 0.17456 0.0
Cd212 Cd 0.81462 0.65858 0.13759 0.0
O213 O 0.79952 0.70799 0.12327 0.0
C214 C 0.80583 0.73921 0.12813 0.0
O215 O 0.82205 0.7409 0.13904 0.0
C216 C 0.83154 0.61911 0.19456 0.0
C217 C 0.87194 0.65294 0.10622 0.0
O218 O 0.87575 0.67624 0.1271 0.0
O219 O 0.85578 0.64387 0.1036 0.0
O220 O 0.72307 0.40043 0.73622 0.0
Cd221 Cd 0.72705 0.33682 0.71973 0.0
O222 O 0.69455 0.39757 0.72812 0.0
Cd223 Cd 0.66716 0.41794 0.72219 0.0
O224 O 0.63986 0.4264 0.7059 0.0
C225 C 0.637 0.4231 0.67693 0.0
O226 O 0.65047 0.41571 0.65859 0.0
C227 C 0.70775 0.41587 0.73644 0.0
C228 C 0.73284 0.28909 0.77 0.0
O229 O 0.7458 0.30419 0.75644 0.0
O230 O 0.71716 0.29657 0.75974 0.0
O231 O 0.70846 0.07989 0.31009 0.0
Cd232 Cd 0.69655 0.08383 0.36272 0.0
O233 O 0.6818 0.08422 0.28975 0.0
Cd234 Cd 0.66262 0.08669 0.2513 0.0
O235 O 0.64361 0.09827 0.21371 0.0
C236 C 0.63299 0.07457 0.20412 0.0
O237 O 0.63352 0.04177 0.21693 0.0
C238 C 0.69849 0.08175 0.28622 0.0
C239 C 0.70953 0.14523 0.39184 0.0
O240 O 0.71823 0.11453 0.39258 0.0
O241 O 0.69451 0.14671 0.37782 0.0
O242 O 0.73089 0.08203 0.55733 0.0
Cd243 Cd 0.73916 0.0946 0.61104 0.0
O244 O 0.759 0.08053 0.54538 0.0
Cd245 Cd 0.78236 0.07547 0.51563 0.0
O246 O 0.80786 0.06449 0.49331 0.0
C247 C 0.82075 0.08504 0.49852 0.0
O248 O 0.81831 0.11345 0.51669 0.0
C249 C 0.74293 0.07719 0.53717 0.0
C250 C 0.73488 0.03303 0.64875 0.0
O251 O 0.72239 0.05738 0.64535 0.0
O252 O 0.74944 0.03792 0.63445 0.0
O253 O 0.71464 0.69553 0.80944 0.0
Cd254 Cd 0.71347 0.75702 0.83144 0.0
O255 O 0.68685 0.69221 0.82239 0.0
Cd256 Cd 0.66142 0.66762 0.8315 0.0
O257 O 0.63494 0.65813 0.84916 0.0
C258 C 0.63317 0.64349 0.87582 0.0
O259 O 0.64742 0.63299 0.89163 0.0
C260 C 0.70066 0.67726 0.81062 0.0
C261 C 0.71856 0.81307 0.78832 0.0
O262 O 0.73165 0.79823 0.80342 0.0
O263 O 0.7031 0.801 0.79328 0.0
H264 H 0.04273 0.15743 0.0711 0.0
H265 H 0.9919 0.17354 0.11498 0.0
H266 H 0.03773 0.2142 0.04155 0.0
H267 H 0.98678 0.2301 0.08525 0.0
H268 H 0.97636 0.31032 0.0046 0.0
H269 H 0.98142 0.25213 0.03192 0.0
H270 H 0.03557 0.2799 0.05008 0.0
H271 H 0.03063 0.33776 0.02232 0.0
C272 C 0.03045 0.17307 0.07433 0.0
C273 C 0.01751 0.16057 0.09476 0.0
C274 C 0.02761 0.20562 0.05748 0.0
C275 C 0.0118 0.22654 0.06086 0.0
C276 C 0.99892 0.21418 0.08156 0.0
C277 C 0.00178 0.18161 0.09843 0.0
C278 C 0.98938 0.30394 0.01424 0.0
C279 C 0.00308 0.32875 0.01127 0.0
C280 C 0.99224 0.27068 0.03009 0.0
C281 C 0.00887 0.26144 0.04328 0.0
C282 C 0.02265 0.286 0.0399 0.0
C283 C 0.01979 0.31927 0.02409 0.0
H284 H 0.03428 0.69104 0.56498 0.0
H285 H 0.97841 0.67103 0.55754 0.0
H286 H 0.03012 0.74553 0.53238 0.0
H287 H 0.97421 0.72598 0.52549 0.0
H288 H 0.97529 0.809 0.44619 0.0
H289 H 0.98088 0.75176 0.47475 0.0
H290 H 0.01658 0.80633 0.53632 0.0
H291 H 0.01132 0.86326 0.50748 0.0
C292 C 0.0211 0.69824 0.55642 0.0
C293 C 0.00667 0.6767 0.56399 0.0
C294 C 0.01871 0.7296 0.53784 0.0
C295 C 0.00182 0.74019 0.52641 0.0
C296 C 0.98743 0.71835 0.53359 0.0
C297 C 0.98982 0.68696 0.55215 0.0
C298 C 0.98443 0.80872 0.46568 0.0
C299 C 0.99282 0.84076 0.47458 0.0
C300 C 0.98755 0.77596 0.48216 0.0
C301 C 0.99912 0.77449 0.50789 0.0
C302 C 0.00776 0.80637 0.51639 0.0
C303 C 0.00465 0.8391 0.49993 0.0
H304 H 0.47333 0.69153 0.35201 0.0
H305 H 0.50047 0.73145 0.43297 0.0
H306 H 0.47417 0.63011 0.37462 0.0
H307 H 0.50079 0.67047 0.45594 0.0
H308 H 0.5061 0.55331 0.48666 0.0
H309 H 0.51122 0.60781 0.45525 0.0
H310 H 0.45859 0.60213 0.41617 0.0
H311 H 0.4537 0.54732 0.44668 0.0
C312 C 0.47964 0.68715 0.37448 0.0
C313 C 0.48664 0.7165 0.39084 0.0
C314 C 0.48003 0.65197 0.38752 0.0
C315 C 0.48733 0.64539 0.4173 0.0
C316 C 0.4952 0.67438 0.43286 0.0
C317 C 0.49492 0.70949 0.41974 0.0
C318 C 0.49573 0.56342 0.47101 0.0
C319 C 0.47943 0.54612 0.4694 0.0
C320 C 0.49863 0.59477 0.45312 0.0
C321 C 0.48529 0.60955 0.43331 0.0
C322 C 0.46928 0.59131 0.43081 0.0
C323 C 0.46641 0.55994 0.44855 0.0
H324 H 0.4933 0.49542 0.03154 0.0
H325 H 0.45274 0.49024 0.96078 0.0
H326 H 0.49413 0.42887 0.03644 0.0
H327 H 0.45346 0.42329 0.96542 0.0
H328 H 0.4776 0.30548 0.95619 0.0
H329 H 0.47322 0.37179 0.9533 0.0
H330 H 0.47751 0.37753 0.05336 0.0
H331 H 0.48232 0.3114 0.05622 0.0
C332 C 0.48451 0.47991 0.01715 0.0
C333 C 0.47319 0.49768 0.99512 0.0
C334 C 0.48491 0.4418 0.02002 0.0
C335 C 0.47403 0.42068 0.00114 0.0
C336 C 0.46228 0.4387 0.9798 0.0
C337 C 0.46193 0.47686 0.97693 0.0
C338 C 0.4774 0.32084 0.9776 0.0
C339 C 0.48057 0.30312 0.00641 0.0
C340 C 0.4748 0.35888 0.97596 0.0
C341 C 0.47525 0.38003 0.00309 0.0
C342 C 0.47757 0.36213 0.03197 0.0
C343 C 0.48022 0.32416 0.03362 0.0
H344 H 0.16323 0.96295 0.42174 0.0
H345 H 0.21976 0.96554 0.4353 0.0
H346 H 0.16734 0.96236 0.36555 0.0
H347 H 0.22397 0.96467 0.37894 0.0
H348 H 0.22403 0.92939 0.27589 0.0
H349 H 0.22037 0.92601 0.3324 0.0
H350 H 0.17727 0.00635 0.32608 0.0
H351 H 0.18119 0.01039 0.27003 0.0
C352 C 0.17652 0.96405 0.41266 0.0
C353 C 0.19114 0.96557 0.43278 0.0
C354 C 0.17889 0.96335 0.38051 0.0
C355 C 0.19597 0.96394 0.36781 0.0
C356 C 0.21065 0.96408 0.38802 0.0
C357 C 0.20825 0.96475 0.42023 0.0
C358 C 0.21376 0.94624 0.28668 0.0
C359 C 0.20248 0.96919 0.26848 0.0
C360 C 0.21169 0.94437 0.31896 0.0
C361 C 0.19834 0.96556 0.3336 0.0
C362 C 0.18733 0.98899 0.31536 0.0
C363 C 0.18946 0.99102 0.28321 0.0
H364 H 0.21143 0.50328 0.69659 0.0
H365 H 0.26773 0.49182 0.71201 0.0
H366 H 0.20784 0.53161 0.74722 0.0
H367 H 0.2646 0.52293 0.76156 0.0
H368 H 0.25193 0.54155 0.86322 0.0
H369 H 0.25627 0.51673 0.81156 0.0
H370 H 0.21079 0.58121 0.77828 0.0
H371 H 0.2063 0.60484 0.83035 0.0
C372 C 0.22309 0.50782 0.7106 0.0
C373 C 0.23985 0.49565 0.70049 0.0
C374 C 0.2211 0.52429 0.73963 0.0
C375 C 0.23592 0.52986 0.75888 0.0
C376 C 0.25277 0.51848 0.74804 0.0
C377 C 0.25466 0.50102 0.71942 0.0
C378 C 0.24283 0.55016 0.8448 0.0
C379 C 0.22834 0.57385 0.85107 0.0
C380 C 0.2454 0.53626 0.81496 0.0
C381 C 0.23371 0.54626 0.79043 0.0
C382 C 0.21968 0.5715 0.7966 0.0
C383 C 0.21702 0.58501 0.82657 0.0
H384 H 0.294 0.95577 0.60895 0.0
H385 H 0.29612 0.07357 0.60732 0.0
H386 H 0.29832 0.95568 0.66526 0.0
H387 H 0.29976 0.07366 0.66373 0.0
H388 H 0.28488 0.05503 0.76804 0.0
H389 H 0.282 0.05769 0.71147 0.0
H390 H 0.32208 0.97128 0.7036 0.0
H391 H 0.32502 0.96854 0.7601 0.0
C392 C 0.29523 0.98169 0.62064 0.0
C393 C 0.29412 0.01481 0.60378 0.0
C394 C 0.29777 0.98162 0.65285 0.0
C395 C 0.29925 0.01469 0.66891 0.0
C396 C 0.2983 0.0478 0.65205 0.0
C397 C 0.29594 0.04781 0.61977 0.0
C398 C 0.29319 0.03681 0.75425 0.0
C399 C 0.30514 0.01149 0.76861 0.0
C400 C 0.29158 0.03843 0.72186 0.0
C401 C 0.30173 0.01451 0.70316 0.0
C402 C 0.31393 0.98973 0.71746 0.0
C403 C 0.31569 0.98836 0.74982 0.0
H404 H 0.25973 0.46006 0.84709 0.0
H405 H 0.20966 0.46483 0.89501 0.0
H406 H 0.27527 0.45633 0.89671 0.0
H407 H 0.22507 0.45864 0.94447 0.0
H408 H 0.25596 0.46119 0.03285 0.0
H409 H 0.24283 0.48143 0.98324 0.0
H410 H 0.28118 0.41244 0.93501 0.0
H411 H 0.29448 0.39394 0.98451 0.0
C412 C 0.25203 0.46052 0.86823 0.0
C413 C 0.23343 0.46252 0.86704 0.0
C414 C 0.26095 0.45801 0.89675 0.0
C415 C 0.2515 0.45656 0.9248 0.0
C416 C 0.2329 0.46012 0.92355 0.0
C417 C 0.224 0.46338 0.89506 0.0
C418 C 0.26175 0.45096 0.01151 0.0
C419 C 0.27639 0.42631 0.01243 0.0
C420 C 0.25409 0.4623 0.98306 0.0
C421 C 0.26081 0.44844 0.9549 0.0
C422 C 0.2758 0.42442 0.956 0.0
C423 C 0.28346 0.41369 0.98443 0.0
H424 H 0.75141 0.03979 0.10916 0.0
H425 H 0.74508 0.15738 0.11649 0.0
H426 H 0.73665 0.0327 0.15922 0.0
H427 H 0.73033 0.15014 0.16625 0.0
H428 H 0.68723 0.12134 0.23531 0.0
H429 H 0.70132 0.12452 0.18452 0.0
H430 H 0.74283 0.04908 0.2166 0.0
H431 H 0.72849 0.04526 0.26732 0.0
C432 C 0.74691 0.06408 0.12144 0.0
C433 C 0.74941 0.09915 0.10883 0.0
C434 C 0.73853 0.06 0.15011 0.0
C435 C 0.73227 0.09087 0.16648 0.0
C436 C 0.73483 0.12587 0.15394 0.0
C437 C 0.74339 0.12998 0.12553 0.0
C438 C 0.69902 0.1045 0.23123 0.0
C439 C 0.70646 0.08219 0.25497 0.0
C440 C 0.70726 0.10681 0.20233 0.0
C441 C 0.7231 0.08686 0.19661 0.0
C442 C 0.73047 0.06427 0.22025 0.0
C443 C 0.72231 0.06221 0.24926 0.0
H444 H 0.79757 0.50835 0.36041 0.0
H445 H 0.85329 0.4779 0.35699 0.0
H446 H 0.80038 0.54412 0.31284 0.0
H447 H 0.85601 0.5135 0.30901 0.0
H448 H 0.85586 0.61427 0.2421 0.0
H449 H 0.85439 0.57761 0.28969 0.0
H450 H 0.80562 0.53241 0.25748 0.0
H451 H 0.80692 0.56926 0.21017 0.0
C452 C 0.81044 0.50932 0.34957 0.0
C453 C 0.8252 0.49015 0.36251 0.0
C454 C 0.81201 0.52963 0.32215 0.0
C455 C 0.82838 0.53138 0.30701 0.0
C456 C 0.84324 0.51283 0.32023 0.0
C457 C 0.84166 0.49235 0.34766 0.0
C458 C 0.84488 0.59633 0.24507 0.0
C459 C 0.83145 0.59487 0.22238 0.0
C460 C 0.84408 0.57524 0.2723 0.0
C461 C 0.82981 0.55237 0.27746 0.0
C462 C 0.81663 0.55025 0.25443 0.0
C463 C 0.81745 0.5712 0.2272 0.0
H464 H 0.73679 0.01861 0.34117 0.0
H465 H 0.6857 0.99516 0.37976 0.0
H466 H 0.74636 0.04104 0.39158 0.0
H467 H 0.69534 0.01761 0.43009 0.0
H468 H 0.7125 0.09594 0.50603 0.0
H469 H 0.70341 0.0765 0.45432 0.0
H470 H 0.75292 0.01526 0.44472 0.0
H471 H 0.76183 0.03405 0.49655 0.0
C472 C 0.7276 0.01821 0.36037 0.0
C473 C 0.71047 0.00509 0.35641 0.0
C474 C 0.73313 0.0309 0.38927 0.0
C475 C 0.7216 0.03108 0.41475 0.0
C476 C 0.70445 0.01817 0.41078 0.0
C477 C 0.69897 0.00514 0.38197 0.0
C478 C 0.72149 0.07852 0.49276 0.0
C479 C 0.73807 0.06723 0.50508 0.0
C480 C 0.71625 0.06728 0.46325 0.0
C481 C 0.72747 0.04439 0.44548 0.0
C482 C 0.74413 0.03344 0.45765 0.0
C483 C 0.74933 0.04455 0.48723 0.0
H484 H 0.67343 0.63938 0.78531 0.0
H485 H 0.72877 0.62912 0.81027 0.0
H486 H 0.67448 0.57648 0.76659 0.0
H487 H 0.72983 0.56628 0.79208 0.0
H488 H 0.7315 0.46903 0.7286 0.0
H489 H 0.72916 0.53239 0.74541 0.0
H490 H 0.67743 0.51335 0.78331 0.0
H491 H 0.67974 0.44998 0.76591 0.0
C492 C 0.68572 0.62345 0.78739 0.0
C493 C 0.70096 0.63901 0.79965 0.0
C494 C 0.68635 0.58743 0.77653 0.0
C495 C 0.70225 0.56623 0.77773 0.0
C496 C 0.71744 0.58192 0.7902 0.0
C497 C 0.71682 0.61791 0.80081 0.0
C498 C 0.71958 0.47847 0.74036 0.0
C499 C 0.70571 0.45468 0.74557 0.0
C500 C 0.71827 0.51474 0.75019 0.0
C501 C 0.70314 0.52803 0.76591 0.0
C502 C 0.68916 0.50426 0.77084 0.0
C503 C 0.69043 0.46795 0.76075 0.0
H504 H 0.04236 0.44973 0.86849 0.0
H505 H 0.07327 0.46441 0.95203 0.0
H506 H 0.06954 0.44852 0.83773 0.0
H507 H 0.10029 0.46286 0.92133 0.0
H508 H 0.14431 0.40988 0.86238 0.0
H509 H 0.11621 0.41222 0.89007 0.0
H510 H 0.09502 0.49138 0.82342 0.0
H511 H 0.12341 0.4896 0.79594 0.0
C512 C 0.05492 0.45288 0.88025 0.0
C513 C 0.05569 0.45702 0.91271 0.0
C514 C 0.07043 0.4523 0.86263 0.0
C515 C 0.08698 0.45524 0.87723 0.0
C516 C 0.0877 0.46005 0.90956 0.0
C517 C 0.07222 0.46116 0.92709 0.0
C518 C 0.13362 0.42761 0.85352 0.0
C519 C 0.13605 0.44989 0.82725 0.0
C520 C 0.1176 0.42915 0.86949 0.0
C521 C 0.10357 0.45244 0.85913 0.0
C522 C 0.10571 0.4735 0.83202 0.0
C523 C 0.12191 0.47259 0.81641 0.0
H524 H 0.05596 0.95601 0.41489 0.0
H525 H 0.02114 0.99039 0.33953 0.0
H526 H 0.08093 0.95443 0.37966 0.0
H527 H 0.04631 0.99183 0.30446 0.0
H528 H 0.09109 0.95758 0.24102 0.0
H529 H 0.06616 0.95718 0.27634 0.0
H530 H 0.10066 0.9869 0.35202 0.0
H531 H 0.12569 0.98415 0.31717 0.0
C532 C 0.05374 0.9639 0.3908 0.0
C533 C 0.03664 0.97322 0.37988 0.0
C534 C 0.06811 0.96328 0.37053 0.0
C535 C 0.06581 0.97297 0.33894 0.0
C536 C 0.04865 0.98321 0.32831 0.0
C537 C 0.0342 0.98279 0.34846 0.0
C538 C 0.09334 0.96373 0.26528 0.0
C539 C 0.11037 0.97112 0.27621 0.0
C540 C 0.07897 0.96389 0.28559 0.0
C541 C 0.0812 0.97215 0.31727 0.0
C542 C 0.09831 0.97962 0.32806 0.0
C543 C 0.11272 0.9786 0.3079 0.0
H544 H 0.31772 0.36755 0.61817 0.0
H545 H 0.30131 0.45712 0.5571 0.0
H546 H 0.34789 0.37063 0.59857 0.0
H547 H 0.33143 0.46047 0.5379 0.0
H548 H 0.38249 0.43415 0.48778 0.0
H549 H 0.35267 0.42511 0.50662 0.0
H550 H 0.37296 0.41213 0.6003 0.0
H551 H 0.40295 0.42066 0.58139 0.0
C552 C 0.32054 0.38788 0.60058 0.0
C553 C 0.30711 0.41208 0.58917 0.0
C554 C 0.33784 0.38974 0.58947 0.0
C555 C 0.34204 0.41572 0.56663 0.0
C556 C 0.32857 0.43978 0.55516 0.0
C557 C 0.31132 0.438 0.56632 0.0
C558 C 0.38065 0.42907 0.51238 0.0
C559 C 0.3951 0.42837 0.53312 0.0
C560 C 0.36353 0.42411 0.52318 0.0
C561 C 0.36042 0.41829 0.55499 0.0
C562 C 0.37493 0.41634 0.57563 0.0
C563 C 0.3921 0.42137 0.56481 0.0
H564 H 0.3815 0.98351 0.91939 0.0
H565 H 0.35808 0.08823 0.89127 0.0
H566 H 0.40814 0.01385 0.93673 0.0
H567 H 0.38483 0.11834 0.90814 0.0
H568 H 0.44468 0.14642 0.90649 0.0
H569 H 0.41793 0.11593 0.89015 0.0
H570 H 0.41561 0.062 0.97963 0.0
H571 H 0.44222 0.09296 0.99628 0.0
C572 C 0.38206 0.01296 0.91687 0.0
C573 C 0.36771 0.0335 0.90397 0.0
C574 C 0.39725 0.03029 0.92691 0.0
C575 C 0.39851 0.06837 0.92369 0.0
C576 C 0.38422 0.0889 0.91068 0.0
C577 C 0.3689 0.07168 0.90118 0.0
C578 C 0.43848 0.12804 0.92267 0.0
C579 C 0.44554 0.12209 0.95268 0.0
C580 C 0.42314 0.11077 0.91336 0.0
C581 C 0.41475 0.08668 0.93366 0.0
C582 C 0.42191 0.08032 0.96351 0.0
C583 C 0.43707 0.09813 0.97304 0.0
H584 H 0.04931 0.61985 0.75076 0.0
H585 H 0.0746 0.53782 0.69272 0.0
H586 H 0.07313 0.61184 0.78882 0.0
H587 H 0.09831 0.52939 0.73116 0.0
H588 H 0.1481 0.56648 0.78371 0.0
H589 H 0.12283 0.5665 0.74835 0.0
H590 H 0.08732 0.56963 0.82663 0.0
H591 H 0.11262 0.56996 0.86211 0.0
C592 C 0.05981 0.5997 0.74632 0.0
C593 C 0.06013 0.57974 0.71854 0.0
C594 C 0.07343 0.59497 0.76825 0.0
C595 C 0.0877 0.57021 0.76289 0.0
C596 C 0.08765 0.54913 0.73571 0.0
C597 C 0.074 0.5538 0.71379 0.0
C598 C 0.13491 0.567 0.79342 0.0
C599 C 0.13239 0.56846 0.82574 0.0
C600 C 0.12042 0.56675 0.77314 0.0
C601 C 0.10305 0.56807 0.78467 0.0
C602 C 0.10053 0.56903 0.81701 0.0
C603 C 0.11504 0.56903 0.83733 0.0
H604 H 0.43506 0.91671 0.42972 0.0
H605 H 0.40765 0.87048 0.35167 0.0
H606 H 0.40701 0.94228 0.44901 0.0
H607 H 0.37964 0.89615 0.37102 0.0
H608 H 0.33329 0.90164 0.44158 0.0
H609 H 0.3612 0.88212 0.41773 0.0
H610 H 0.38239 0.98805 0.43593 0.0
H611 H 0.35445 0.00769 0.45987 0.0
C612 C 0.4231 0.9124 0.41646 0.0
C613 C 0.42358 0.89137 0.38927 0.0
C614 C 0.40705 0.92718 0.42746 0.0
C615 C 0.39113 0.92095 0.41164 0.0
C616 C 0.39168 0.90099 0.38389 0.0
C617 C 0.40775 0.88651 0.37272 0.0
C618 C 0.34387 0.92084 0.44039 0.0
C619 C 0.34168 0.95618 0.45267 0.0
C620 C 0.3598 0.90974 0.42653 0.0
C621 C 0.37395 0.93361 0.42491 0.0
C622 C 0.37174 0.96902 0.43703 0.0
C623 C 0.35573 0.98027 0.45062 0.0
H624 H 0.35322 0.42231 0.89767 0.0
H625 H 0.37393 0.46121 0.98473 0.0
H626 H 0.38054 0.4384 0.87184 0.0
H627 H 0.40104 0.47796 0.9588 0.0
H628 H 0.45436 0.46433 0.90976 0.0
H629 H 0.42679 0.44866 0.93525 0.0
H630 H 0.39717 0.4908 0.85569 0.0
H631 H 0.42487 0.50632 0.83039 0.0
C632 C 0.36355 0.43447 0.91127 0.0
C633 C 0.3614 0.44037 0.94329 0.0
C634 C 0.37917 0.44389 0.89642 0.0
C635 C 0.393 0.45941 0.91326 0.0
C636 C 0.39077 0.46555 0.94523 0.0
C637 C 0.37517 0.45613 0.96006 0.0
C638 C 0.4419 0.4711 0.89823 0.0
C639 C 0.4416 0.48782 0.86874 0.0
C640 C 0.42614 0.46188 0.91263 0.0
C641 C 0.40975 0.46891 0.89769 0.0
C642 C 0.40955 0.48488 0.8678 0.0
C643 C 0.42536 0.49398 0.85339 0.0
H644 H 0.09805 0.09172 0.2028 0.0
H645 H 0.05667 0.04911 0.25997 0.0
H646 H 0.11719 0.09518 0.24814 0.0
H647 H 0.076 0.05053 0.30512 0.0
H648 H 0.11052 0.06825 0.38713 0.0
H649 H 0.09072 0.07973 0.34309 0.0
H650 H 0.13458 0.06043 0.2804 0.0
H651 H 0.15437 0.05211 0.32438 0.0
C652 C 0.0931 0.08287 0.22512 0.0
C653 C 0.07591 0.06997 0.22781 0.0
C654 C 0.10413 0.08457 0.25121 0.0
C655 C 0.09841 0.07257 0.28058 0.0
C656 C 0.08098 0.06045 0.28322 0.0
C657 C 0.06985 0.05938 0.2572 0.0
C658 C 0.11593 0.06707 0.36389 0.0
C659 C 0.13399 0.0588 0.35927 0.0
C660 C 0.10453 0.07335 0.3385 0.0
C661 C 0.11084 0.07062 0.30781 0.0
C662 C 0.12909 0.06357 0.30342 0.0
C663 C 0.14051 0.05819 0.3288 0.0
H664 H 0.24328 0.28025 0.14826 0.0
H665 H 0.28885 0.2419 0.09617 0.0
H666 H 0.23415 0.21743 0.1548 0.0
H667 H 0.27948 0.17906 0.10211 0.0
H668 H 0.26811 0.06997 0.15116 0.0
H669 H 0.27716 0.13249 0.14214 0.0
H670 H 0.2226 0.16693 0.12602 0.0
H671 H 0.21351 0.10455 0.13574 0.0
C672 C 0.2513 0.25843 0.13803 0.0
C673 C 0.26682 0.26609 0.12178 0.0
C674 C 0.24599 0.2224 0.1416 0.0
C675 C 0.25607 0.19317 0.12895 0.0
C676 C 0.27154 0.20088 0.11249 0.0
C677 C 0.27686 0.23693 0.10896 0.0
C678 C 0.25805 0.09085 0.14557 0.0
C679 C 0.24008 0.0823 0.1443 0.0
C680 C 0.26325 0.12667 0.14022 0.0
C681 C 0.2506 0.15478 0.13344 0.0
C682 C 0.23265 0.14607 0.13166 0.0
C683 C 0.22745 0.11025 0.13706 0.0
H684 H 0.70821 0.25157 0.80239 0.0
H685 H 0.7643 0.27005 0.79856 0.0
H686 H 0.71304 0.21172 0.84758 0.0
H687 H 0.76908 0.23078 0.8442 0.0
H688 H 0.77305 0.13178 0.91019 0.0
H689 H 0.76821 0.16749 0.8624 0.0
H690 H 0.72101 0.2179 0.90173 0.0
H691 H 0.72561 0.18183 0.94902 0.0
C692 C 0.72158 0.24716 0.8112 0.0
C693 C 0.73586 0.26412 0.79695 0.0
C694 C 0.72433 0.22444 0.8372 0.0
C695 C 0.74144 0.2182 0.84961 0.0
C696 C 0.75577 0.23469 0.83504 0.0
C697 C 0.75301 0.25739 0.80899 0.0
C698 C 0.76161 0.15038 0.90854 0.0
C699 C 0.74972 0.15395 0.93341 0.0
C700 C 0.75889 0.17098 0.88123 0.0
C701 C 0.74422 0.19553 0.87822 0.0
C702 C 0.7323 0.19885 0.90306 0.0
C703 C 0.73501 0.17831 0.93029 0.0
H704 H 0.77586 0.31482 0.46894 0.0
H705 H 0.7432 0.36468 0.39629 0.0
H706 H 0.75923 0.2589 0.46509 0.0
H707 H 0.72708 0.30882 0.39171 0.0
H708 H 0.69329 0.21255 0.39881 0.0
H709 H 0.7068 0.26896 0.41482 0.0
H710 H 0.75671 0.20972 0.42926 0.0
H711 H 0.743 0.15316 0.41443 0.0
C712 C 0.76508 0.31394 0.4523 0.0
C713 C 0.76093 0.34413 0.43279 0.0
C714 C 0.75561 0.28183 0.44997 0.0
C715 C 0.74184 0.27921 0.428 0.0
C716 C 0.73738 0.30992 0.40925 0.0
C717 C 0.74675 0.34197 0.4117 0.0
C718 C 0.70708 0.21151 0.40584 0.0
C719 C 0.71713 0.1785 0.40497 0.0
C720 C 0.71486 0.24388 0.41486 0.0
C721 C 0.73293 0.24407 0.4229 0.0
C722 C 0.74274 0.21065 0.42349 0.0
C723 C 0.7349 0.1782 0.41476 0.0
H724 H 0.72139 0.87054 0.19327 0.0
H725 H 0.7556 0.95407 0.15919 0.0
H726 H 0.73922 0.82412 0.16676 0.0
H727 H 0.77328 0.9075 0.13196 0.0
H728 H 0.81425 0.80897 0.14287 0.0
H729 H 0.79392 0.86071 0.15143 0.0
H730 H 0.75039 0.79699 0.11954 0.0
H731 H 0.77076 0.74472 0.11166 0.0
C732 C 0.73247 0.87914 0.17948 0.0
C733 C 0.73727 0.91592 0.17886 0.0
C734 C 0.74265 0.85248 0.16404 0.0
C735 C 0.75784 0.86201 0.14752 0.0
C736 C 0.76186 0.89918 0.14497 0.0
C737 C 0.75168 0.92588 0.16047 0.0
C738 C 0.80041 0.80615 0.13708 0.0
C739 C 0.79409 0.77248 0.12715 0.0
C740 C 0.78873 0.83599 0.14178 0.0
C741 C 0.77046 0.83288 0.13655 0.0
C742 C 0.76434 0.80006 0.12434 0.0
C743 C 0.77603 0.77015 0.11968 0.0
H744 H 0.23992 0.90891 0.8758 0.0
H745 H 0.28442 0.91101 0.93922 0.0
H746 H 0.23271 0.84884 0.89541 0.0
H747 H 0.27686 0.85099 0.9596 0.0
H748 H 0.27284 0.7249 0.95105 0.0
H749 H 0.27847 0.78908 0.94108 0.0
H750 H 0.22215 0.81371 0.93809 0.0
H751 H 0.21653 0.74923 0.94711 0.0
C752 C 0.248 0.89683 0.89435 0.0
C753 C 0.26285 0.91463 0.90572 0.0
C754 C 0.24377 0.86239 0.90579 0.0
C755 C 0.25424 0.84491 0.92902 0.0
C756 C 0.26867 0.86342 0.94136 0.0
C757 C 0.27294 0.89791 0.92982 0.0
C758 C 0.26165 0.74407 0.9486 0.0
C759 C 0.24424 0.73189 0.94952 0.0
C760 C 0.26488 0.78097 0.94309 0.0
C761 C 0.25077 0.8066 0.93856 0.0
C762 C 0.23334 0.79462 0.94091 0.0
C763 C 0.23011 0.75767 0.94622 0.0
H764 H 0.55039 0.87719 0.39163 0.0
H765 H 0.53102 0.88081 0.29689 0.0
H766 H 0.57983 0.89203 0.37348 0.0
H767 H 0.56053 0.89602 0.27882 0.0
H768 H 0.61185 0.96447 0.26881 0.0
H769 H 0.58194 0.94932 0.28476 0.0
H770 H 0.60348 0.85929 0.34036 0.0
H771 H 0.63332 0.87409 0.32431 0.0
C772 C 0.55239 0.88134 0.36696 0.0
C773 C 0.53839 0.87778 0.34568 0.0
C774 C 0.56927 0.88962 0.35658 0.0
C775 C 0.57245 0.89501 0.32476 0.0
C776 C 0.5584 0.89214 0.30349 0.0
C777 C 0.54155 0.88332 0.31383 0.0
C778 C 0.61019 0.9413 0.28428 0.0
C779 C 0.62494 0.92051 0.29535 0.0
C780 C 0.59308 0.93259 0.29329 0.0
C781 C 0.59044 0.90328 0.31391 0.0
C782 C 0.60517 0.88226 0.32468 0.0
C783 C 0.62223 0.89062 0.31534 0.0
H784 H 0.60138 0.66886 0.85197 0.0
H785 H 0.62474 0.61118 0.93108 0.0
H786 H 0.57236 0.66643 0.87603 0.0
H787 H 0.59565 0.60791 0.95475 0.0
H788 H 0.54492 0.6446 0.00339 0.0
H789 H 0.57359 0.64734 0.97876 0.0
H790 H 0.54968 0.62471 0.8898 0.0
H791 H 0.52075 0.62293 0.9143 0.0
C792 C 0.60031 0.65534 0.87436 0.0
C793 C 0.6154 0.64029 0.88964 0.0
C794 C 0.58364 0.65382 0.8881 0.0
C795 C 0.58166 0.63709 0.91739 0.0
C796 C 0.59673 0.62156 0.93243 0.0
C797 C 0.61341 0.62319 0.91874 0.0
C798 C 0.54562 0.64036 0.97855 0.0
C799 C 0.53044 0.6336 0.9608 0.0
C800 C 0.56219 0.64165 0.96446 0.0
C801 C 0.56398 0.63608 0.9323 0.0
C802 C 0.54876 0.62956 0.91454 0.0
C803 C 0.53217 0.62839 0.92862 0.0
H804 H 0.92095 0.15002 0.10354 0.0
H805 H 0.92711 0.085 0.02066 0.0
H806 H 0.88935 0.15786 0.09281 0.0
H807 H 0.89555 0.09341 0.00966 0.0
H808 H 0.83555 0.08115 0.02105 0.0
H809 H 0.86734 0.07429 0.03042 0.0
H810 H 0.86873 0.18808 0.05627 0.0
H811 H 0.83689 0.1948 0.04744 0.0
C812 C 0.91559 0.13756 0.08294 0.0
C813 C 0.92656 0.1168 0.06301 0.0
C814 C 0.89748 0.14225 0.07669 0.0
C815 C 0.88991 0.12625 0.05038 0.0
C816 C 0.90092 0.1057 0.03034 0.0
C817 C 0.91904 0.10106 0.03656 0.0
C818 C 0.84264 0.10473 0.02867 0.0
C819 C 0.83367 0.1385 0.03357 0.0
C820 C 0.86089 0.10085 0.03387 0.0
C821 C 0.87058 0.13063 0.04413 0.0
C822 C 0.86162 0.16447 0.04878 0.0
C823 C 0.84338 0.16837 0.04355 0.0
H824 H 0.89508 0.39345 0.49563 0.0
H825 H 0.86456 0.48869 0.52558 0.0
H826 H 0.92041 0.4133 0.52563 0.0
H827 H 0.89001 0.50916 0.55474 0.0
H828 H 0.93459 0.5251 0.62271 0.0
H829 H 0.90896 0.49778 0.59872 0.0
H830 H 0.9417 0.45988 0.52272 0.0
H831 H 0.96736 0.48614 0.54717 0.0
C832 C 0.89377 0.41859 0.50866 0.0
C833 C 0.87783 0.43957 0.5081 0.0
C834 C 0.90832 0.4301 0.52574 0.0
C835 C 0.90732 0.46297 0.5425 0.0
C836 C 0.89122 0.48346 0.54249 0.0
C837 C 0.87664 0.47183 0.52558 0.0
C838 C 0.93634 0.51056 0.60106 0.0
C839 C 0.95301 0.50791 0.5868 0.0
C840 C 0.92162 0.49511 0.58719 0.0
C841 C 0.9232 0.47681 0.55865 0.0
C842 C 0.94 0.47332 0.54488 0.0
C843 C 0.95473 0.48858 0.55883 0.0
H844 H 0.60728 0.03183 0.18 0.0
H845 H 0.62867 0.13968 0.17287 0.0
H846 H 0.58477 0.04919 0.14111 0.0
H847 H 0.60606 0.15712 0.13457 0.0
H848 H 0.57264 0.17031 0.04836 0.0
H849 H 0.59647 0.14577 0.08167 0.0
H850 H 0.55839 0.08968 0.13747 0.0
H851 H 0.53456 0.11367 0.10381 0.0
C852 C 0.60722 0.05918 0.17009 0.0
C853 C 0.61974 0.0844 0.17963 0.0
C854 C 0.59427 0.06916 0.14792 0.0
C855 C 0.59361 0.10453 0.13472 0.0
C856 C 0.60634 0.12949 0.1439 0.0
C857 C 0.61924 0.11955 0.16607 0.0
C858 C 0.56935 0.15238 0.0675 0.0
C859 C 0.55167 0.14422 0.07358 0.0
C860 C 0.58301 0.13849 0.08671 0.0
C861 C 0.57932 0.11611 0.11245 0.0
C862 C 0.56171 0.10664 0.11772 0.0
C863 C 0.54803 0.12053 0.09849 0.0
H864 H 0.96669 0.53262 0.05778 0.0
H865 H 0.93547 0.52635 0.97339 0.0
H866 H 0.94468 0.57508 0.07933 0.0
H867 H 0.91359 0.5697 0.99475 0.0
H868 H 0.86833 0.59927 0.06312 0.0
H869 H 0.89168 0.56657 0.03496 0.0
H870 H 0.93056 0.63517 0.07662 0.0
H871 H 0.9072 0.66733 0.10545 0.0
C872 C 0.95533 0.54082 0.04357 0.0
C873 C 0.95284 0.52574 0.014 0.0
C874 C 0.94273 0.5654 0.05588 0.0
C875 C 0.92737 0.5756 0.03888 0.0
C876 C 0.92532 0.5619 0.00867 0.0
C877 C 0.93773 0.53725 0.99635 0.0
C878 C 0.88183 0.60765 0.06604 0.0
C879 C 0.88592 0.63568 0.08675 0.0
C880 C 0.89523 0.58906 0.0497 0.0
C881 C 0.91303 0.59813 0.05361 0.0
C882 C 0.91702 0.62713 0.07343 0.0
C883 C 0.90362 0.64567 0.08984 0.0
H884 H 0.93129 0.02469 0.49443 0.0
H885 H 0.9141 0.99626 0.40201 0.0
H886 H 0.90223 0.05251 0.50463 0.0
H887 H 0.88505 0.02475 0.4121 0.0
H888 H 0.83039 0.02765 0.46119 0.0
H889 H 0.86009 0.00894 0.44482 0.0
H890 H 0.88119 0.10232 0.49131 0.0
H891 H 0.85148 0.12077 0.50817 0.0
C892 C 0.92141 0.02491 0.47608 0.0
C893 C 0.92498 0.00793 0.44751 0.0
C894 C 0.90475 0.04107 0.48189 0.0
C895 C 0.89127 0.04062 0.45926 0.0
C896 C 0.89508 0.02505 0.43018 0.0
C897 C 0.91177 0.00894 0.42434 0.0
C898 C 0.84133 0.04441 0.4677 0.0
C899 C 0.83857 0.07553 0.48623 0.0
C900 C 0.85836 0.03381 0.45811 0.0
C901 C 0.87303 0.05407 0.46685 0.0
C902 C 0.8702 0.08587 0.48453 0.0
C903 C 0.85315 0.09651 0.49408 0.0
H904 H 0.6059 0.43415 0.70848 0.0
H905 H 0.62692 0.4194 0.61607 0.0
H906 H 0.57593 0.43785 0.68692 0.0
H907 H 0.5971 0.42391 0.59455 0.0
H908 H 0.54113 0.3957 0.56864 0.0
H909 H 0.57038 0.38965 0.59256 0.0
H910 H 0.55658 0.47765 0.65525 0.0
H911 H 0.52715 0.48314 0.63178 0.0
C912 C 0.60414 0.4319 0.68357 0.0
C913 C 0.61881 0.4264 0.66401 0.0
C914 C 0.58697 0.43417 0.6712 0.0
C915 C 0.5841 0.43101 0.63901 0.0
C916 C 0.5988 0.4258 0.61949 0.0
C917 C 0.61593 0.42348 0.63184 0.0
C918 C 0.54429 0.4136 0.58766 0.0
C919 C 0.53182 0.43998 0.59823 0.0
C920 C 0.56111 0.4103 0.60125 0.0
C921 C 0.56589 0.43336 0.62567 0.0
C922 C 0.55328 0.45922 0.63668 0.0
C923 C 0.53644 0.46248 0.62312 0.0
H924 H 0.70661 0.01756 0.6853 0.0
H925 H 0.75783 0.97419 0.65691 0.0
H926 H 0.70286 0.96387 0.71823 0.0
H927 H 0.75387 0.91998 0.68918 0.0
H928 H 0.74906 0.84875 0.7769 0.0
H929 H 0.75298 0.90145 0.74288 0.0
H930 H 0.6979 0.89941 0.71569 0.0
H931 H 0.69388 0.84734 0.75039 0.0
C932 C 0.71703 0.99646 0.68594 0.0
C933 C 0.73254 0.0002 0.66853 0.0
C934 C 0.71483 0.96553 0.70467 0.0
C935 C 0.72804 0.93751 0.70634 0.0
C936 C 0.74353 0.94123 0.6888 0.0
C937 C 0.74576 0.97225 0.67016 0.0
C938 C 0.7378 0.85946 0.76358 0.0
C939 C 0.72114 0.84392 0.76644 0.0
C940 C 0.74007 0.88959 0.74392 0.0
C941 C 0.72575 0.90479 0.72657 0.0
C942 C 0.70915 0.88881 0.72909 0.0
C943 C 0.70687 0.85878 0.74884 0.0
H944 H 0.1748 0.83218 0.5788 0.0
H945 H 0.23116 0.84668 0.58571 0.0
H946 H 0.17881 0.7702 0.59973 0.0
H947 H 0.23521 0.78447 0.60597 0.0
H948 H 0.23475 0.68365 0.66844 0.0
H949 H 0.22948 0.74679 0.65114 0.0
H950 H 0.19102 0.71108 0.58425 0.0
H951 H 0.196 0.64806 0.602 0.0
C952 C 0.18805 0.82214 0.58475 0.0
C953 C 0.20266 0.84437 0.58055 0.0
C954 C 0.19036 0.78653 0.59659 0.0
C955 C 0.20733 0.7723 0.6045 0.0
C956 C 0.22192 0.7947 0.60054 0.0
C957 C 0.21961 0.83031 0.58873 0.0
C958 C 0.22509 0.68928 0.65018 0.0
C959 C 0.21584 0.66076 0.63656 0.0
C960 C 0.22215 0.72548 0.64012 0.0
C961 C 0.20989 0.73402 0.61618 0.0
C962 C 0.20041 0.70555 0.60297 0.0
C963 C 0.20333 0.66936 0.61305 0.0
H964 H 0.21703 0.33961 0.70248 0.0
H965 H 0.27043 0.37668 0.69403 0.0
H966 H 0.22516 0.28491 0.67307 0.0
H967 H 0.27842 0.32271 0.66383 0.0
H968 H 0.2923 0.20118 0.65199 0.0
H969 H 0.28337 0.25913 0.67531 0.0
H970 H 0.23406 0.25944 0.62391 0.0
H971 H 0.24283 0.20066 0.60116 0.0
C972 C 0.23041 0.33641 0.69384 0.0
C973 C 0.24315 0.36218 0.70095 0.0
C974 C 0.23507 0.30512 0.67686 0.0
C975 C 0.25252 0.29913 0.66644 0.0
C976 C 0.26498 0.32599 0.67216 0.0
C977 C 0.26037 0.35705 0.68933 0.0
C978 C 0.27957 0.2136 0.64557 0.0
C979 C 0.26827 0.19624 0.62477 0.0
C980 C 0.27449 0.24705 0.65876 0.0
C981 C 0.25802 0.26412 0.65137 0.0
C982 C 0.24675 0.24688 0.63036 0.0
C983 C 0.25181 0.21326 0.61723 0.0
loop_
_geom_bond_atom_site_label_1
_geom_bond_atom_site_label_2
_geom_bond_distance
_geom_bond_site_symmetry_2
_ccdc_geom_bond_type
O0 Cd1 2.300 1_554 S
O0 C7 1.275 . S
Cd1 O0 2.300 1_556 S
Cd1 O9 2.381 . S
Cd1 O10 2.378 . S
O2 Cd3 2.385 1_454 S
O2 C7 1.255 . S
Cd3 O2 2.385 1_656 S
Cd3 O4 2.317 . S
O4 Cd3 2.317 . S
O4 C5 1.232 1_556 S
C5 O4 1.232 1_554 S
C5 O6 1.218 . S
O6 C5 1.218 . S
C7 O0 1.275 . S
C7 O2 1.255 . S
C8 O9 1.258 . S
C8 O10 1.256 . S
O9 Cd1 2.381 . S
O9 C8 1.258 . S
O10 Cd1 2.378 . S
O10 C8 1.256 . S
O11 Cd12 2.300 . S
O11 C18 1.275 . S
Cd12 O11 2.300 . S
Cd12 O20 2.381 . S
Cd12 O21 2.378 . S
O13 Cd14 2.385 . S
O13 C18 1.255 1_655 S
Cd14 O13 2.385 . S
Cd14 O15 2.317 . S
O15 Cd14 2.317 . S
O15 C16 1.232 . S
C16 O15 1.232 . S
C16 O17 1.218 . S
O17 C16 1.218 . S
C18 O11 1.275 . S
C18 O13 1.255 1_455 S
C19 O20 1.258 . S
C19 O21 1.256 . S
O20 Cd12 2.381 . S
O20 C19 1.258 . S
O21 Cd12 2.378 . S
O21 C19 1.256 . S
O22 Cd23 2.300 . S
O22 C29 1.275 . S
Cd23 O22 2.300 . S
Cd23 O31 2.381 . S
Cd23 O32 2.378 . S
O24 Cd25 2.385 . S
O24 C29 1.255 . S
Cd25 O24 2.385 . S
Cd25 O26 2.317 . S
O26 Cd25 2.317 . S
O26 C27 1.232 . S
C27 O26 1.232 . S
C27 O28 1.218 . S
O28 C27 1.218 . S
C29 O22 1.275 . S
C29 O24 1.255 . S
C30 O31 1.258 . S
C30 O32 1.256 . S
O31 Cd23 2.381 . S
O31 C30 1.258 . S
O32 Cd23 2.378 . S
O32 C30 1.256 . S
O33 Cd34 2.300 . S
O33 C40 1.275 . S
Cd34 O33 2.300 . S
Cd34 O42 2.381 . S
Cd34 O43 2.378 . S
O35 Cd36 2.385 . S
O35 C40 1.255 . S
Cd36 O35 2.385 . S
Cd36 O37 2.317 1_556 S
O37 Cd36 2.317 1_554 S
O37 C38 1.232 . S
C38 O37 1.232 . S
C38 O39 1.218 . S
O39 C38 1.218 . S
C40 O33 1.275 . S
C40 O35 1.255 . S
C41 O42 1.258 . S
C41 O43 1.256 . S
O42 Cd34 2.381 . S
O42 C41 1.258 . S
O43 Cd34 2.378 . S
O43 C41 1.256 . S
O44 Cd45 2.300 . S
O44 C51 1.275 1_655 S
Cd45 O44 2.300 . S
Cd45 O53 2.381 . S
Cd45 O54 2.378 . S
O46 Cd47 2.385 . S
O46 C51 1.255 . S
Cd47 O46 2.385 . S
Cd47 O48 2.317 . S
O48 Cd47 2.317 . S
O48 C49 1.232 . S
C49 O48 1.232 . S
C49 O50 1.218 . S
O50 C49 1.218 . S
C51 O44 1.275 1_455 S
C51 O46 1.255 . S
C52 O53 1.258 . S
C52 O54 1.256 . S
O53 Cd45 2.381 . S
O53 C52 1.258 . S
O54 Cd45 2.378 . S
O54 C52 1.256 . S
O55 Cd56 2.300 . S
O55 C62 1.275 . S
Cd56 O55 2.300 . S
Cd56 O64 2.381 . S
Cd56 O65 2.378 . S
O57 Cd58 2.385 . S
O57 C62 1.255 . S
Cd58 O57 2.385 . S
Cd58 O59 2.317 . S
O59 Cd58 2.317 . S
O59 C60 1.232 . S
C60 O59 1.232 . S
C60 O61 1.218 . S
O61 C60 1.218 . S
C62 O55 1.275 . S
C62 O57 1.255 . S
C63 O64 1.258 . S
C63 O65 1.256 . S
O64 Cd56 2.381 . S
O64 C63 1.258 . S
O65 Cd56 2.378 . S
O65 C63 1.256 . S
O66 Cd67 2.300 1_554 S
O66 C73 1.275 1_554 S
Cd67 O66 2.300 1_556 S
Cd67 O75 2.381 . S
Cd67 O76 2.378 . S
O68 Cd69 2.385 . S
O68 C73 1.258 . S
Cd69 O68 2.385 . S
Cd69 O70 2.317 . S
O70 Cd69 2.317 . S
O70 C71 1.232 . S
C71 O70 1.232 . S
C71 O72 1.218 . S
O72 C71 1.218 . S
C73 O66 1.275 1_556 S
C73 O68 1.258 . S
C74 O75 1.258 . S
C74 O76 1.256 . S
O75 Cd67 2.381 . S
O75 C74 1.258 . S
O76 Cd67 2.378 . S
O76 C74 1.256 . S
O77 Cd78 2.300 . S
O77 C84 1.275 . S
Cd78 O77 2.300 . S
Cd78 O86 2.381 . S
Cd78 O87 2.378 . S
O79 Cd80 2.385 . S
O79 C84 1.255 1_655 S
Cd80 O79 2.385 . S
Cd80 O81 2.317 . S
O81 Cd80 2.317 . S
O81 C82 1.232 . S
C82 O81 1.232 . S
C82 O83 1.218 . S
O83 C82 1.218 . S
C84 O77 1.275 . S
C84 O79 1.255 1_455 S
C85 O86 1.258 . S
C85 O87 1.256 . S
O86 Cd78 2.381 . S
O86 C85 1.258 . S
O87 Cd78 2.378 . S
O87 C85 1.256 . S
O88 Cd89 2.300 . S
O88 C95 1.275 1_565 S
Cd89 O88 2.300 . S
Cd89 O97 2.381 . S
Cd89 O98 2.378 . S
O90 Cd91 2.385 . S
O90 C95 1.255 . S
Cd91 O90 2.385 . S
Cd91 O92 2.317 . S
O92 Cd91 2.317 . S
O92 C93 1.232 . S
C93 O92 1.232 . S
C93 O94 1.218 . S
O94 C93 1.218 . S
C95 O88 1.275 1_545 S
C95 O90 1.255 . S
C96 O97 1.258 . S
C96 O98 1.256 . S
O97 Cd89 2.381 . S
O97 C96 1.258 . S
O98 Cd89 2.378 . S
O98 C96 1.256 . S
O99 Cd100 2.300 . S
O99 C106 1.275 . S
Cd100 O99 2.300 . S
Cd100 O108 2.381 . S
Cd100 O109 2.378 . S
O101 Cd102 2.385 . S
O101 C106 1.255 . S
Cd102 O101 2.385 . S
Cd102 O103 2.317 . S
O103 Cd102 2.317 . S
O103 C104 1.232 . S
C104 O103 1.232 . S
C104 O105 1.218 . S
O105 C104 1.218 . S
C106 O99 1.275 . S
C106 O101 1.255 . S
C107 O108 1.258 . S
C107 O109 1.256 . S
O108 Cd100 2.381 . S
O108 C107 1.258 . S
O109 Cd100 2.378 . S
O109 C107 1.256 . S
O110 Cd111 2.300 . S
O110 C117 1.275 . S
Cd111 O110 2.300 . S
Cd111 O119 2.381 . S
Cd111 O120 2.378 . S
O112 Cd113 2.385 . S
O112 C117 1.255 . S
Cd113 O112 2.385 . S
Cd113 O114 2.317 1_565 S
O114 Cd113 2.317 1_545 S
O114 C115 1.232 . S
C115 O114 1.232 . S
C115 O116 1.218 . S
O116 C115 1.218 . S
C117 O110 1.275 . S
C117 O112 1.255 . S
C118 O119 1.258 . S
C118 O120 1.256 . S
O119 Cd111 2.381 . S
O119 C118 1.258 . S
O120 Cd111 2.378 . S
O120 C118 1.256 . S
O121 Cd122 2.300 1_556 S
O121 C128 1.275 . S
Cd122 O121 2.300 1_554 S
Cd122 O130 2.381 . S
Cd122 O131 2.378 . S
O123 Cd124 2.385 . S
O123 C128 1.255 . S
Cd124 O123 2.385 . S
Cd124 O125 2.317 . S
O125 Cd124 2.317 . S
O125 C126 1.232 . S
C126 O125 1.232 . S
C126 O127 1.218 . S
O127 C126 1.218 . S
C128 O121 1.275 . S
C128 O123 1.255 . S
C129 O130 1.258 . S
C129 O131 1.256 . S
O130 Cd122 2.381 . S
O130 C129 1.258 . S
O131 Cd122 2.378 . S
O131 C129 1.256 . S
O132 Cd133 2.300 . S
O132 C139 1.275 . S
Cd133 O132 2.300 . S
Cd133 O141 2.381 1_565 S
Cd133 O142 2.378 1_565 S
O134 Cd135 2.385 . S
O134 C139 1.255 . S
Cd135 O134 2.385 . S
Cd135 O136 2.317 . S
O136 Cd135 2.317 . S
O136 C137 1.232 . S
C137 O136 1.232 . S
C137 O138 1.218 . S
O138 C137 1.218 . S
C139 O132 1.275 . S
C139 O134 1.255 . S
C140 O141 1.258 . S
C140 O142 1.256 . S
O141 Cd133 2.381 1_545 S
O141 C140 1.258 . S
O142 Cd133 2.378 1_545 S
O142 C140 1.256 . S
O143 Cd144 2.300 . S
O143 C150 1.275 . S
Cd144 O143 2.300 . S
Cd144 O152 2.381 . S
Cd144 O153 2.378 . S
O145 Cd146 2.385 . S
O145 C150 1.255 . S
Cd146 O145 2.385 . S
Cd146 O147 2.317 . S
O147 Cd146 2.317 . S
O147 C148 1.232 . S
C148 O147 1.232 . S
C148 O149 1.218 . S
O149 C148 1.218 . S
C150 O143 1.275 . S
C150 O145 1.255 . S
C151 O152 1.258 . S
C151 O153 1.256 . S
O152 Cd144 2.381 . S
O152 C151 1.258 . S
O153 Cd144 2.378 . S
O153 C151 1.256 . S
O154 Cd155 2.300 . S
O154 C161 1.275 . S
Cd155 O154 2.300 . S
Cd155 O163 2.381 . S
Cd155 O164 2.378 . S
O156 Cd157 2.385 . S
O156 C161 1.255 . S
Cd157 O156 2.385 . S
Cd157 O158 2.317 1_545 S
O158 Cd157 2.317 1_565 S
O158 C159 1.232 . S
C159 O158 1.232 . S
C159 O160 1.218 . S
O160 C159 1.218 . S
C161 O154 1.275 . S
C161 O156 1.255 . S
C162 O163 1.258 . S
C162 O164 1.256 . S
O163 Cd155 2.381 . S
O163 C162 1.258 . S
O164 Cd155 2.378 . S
O164 C162 1.256 . S
O165 Cd166 2.300 . S
O165 C172 1.275 . S
Cd166 O165 2.300 . S
Cd166 O174 2.381 . S
Cd166 O175 2.378 . S
O167 Cd168 2.385 . S
O167 C172 1.255 . S
Cd168 O167 2.385 . S
Cd168 O169 2.317 . S
O169 Cd168 2.317 . S
O169 C170 1.232 . S
C170 O169 1.232 . S
C170 O171 1.218 . S
O171 C170 1.218 . S
C172 O165 1.275 . S
C172 O167 1.255 . S
C173 O174 1.258 . S
C173 O175 1.256 . S
O174 Cd166 2.381 . S
O174 C173 1.258 . S
O175 Cd166 2.378 . S
O175 C173 1.256 . S
O176 Cd177 2.300 . S
O176 C183 1.275 . S
Cd177 O176 2.300 . S
Cd177 O185 2.381 . S
Cd177 O186 2.376 1_554 S
O178 Cd179 2.385 1_554 S
O178 C183 1.255 . S
Cd179 O178 2.385 1_556 S
Cd179 O180 2.317 . S
O180 Cd179 2.317 . S
O180 C181 1.232 . S
C181 O180 1.232 . S
C181 O182 1.218 . S
O182 C181 1.218 . S
C183 O176 1.275 . S
C183 O178 1.255 . S
C184 O185 1.258 . S
C184 O186 1.246 1_554 S
O185 Cd177 2.381 . S
O185 C184 1.258 . S
O186 Cd177 2.376 1_556 S
O186 C184 1.246 1_556 S
O187 Cd188 2.300 . S
O187 C194 1.275 . S
Cd188 O187 2.300 . S
Cd188 O196 2.381 . S
Cd188 O197 2.378 . S
O189 Cd190 2.385 . S
O189 C194 1.255 . S
Cd190 O189 2.385 . S
Cd190 O191 2.317 . S
O191 Cd190 2.317 . S
O191 C192 1.232 . S
C192 O191 1.232 . S
C192 O193 1.218 . S
O193 C192 1.218 . S
C194 O187 1.275 . S
C194 O189 1.255 . S
C195 O196 1.258 . S
C195 O197 1.256 . S
O196 Cd188 2.381 . S
O196 C195 1.258 . S
O197 Cd188 2.378 . S
O197 C195 1.256 . S
O198 Cd199 2.300 . S
O198 C205 1.275 . S
Cd199 O198 2.300 . S
Cd199 O207 2.381 . S
Cd199 O208 2.378 . S
O200 Cd201 2.385 . S
O200 C205 1.255 . S
Cd201 O200 2.385 . S
Cd201 O202 2.317 . S
O202 Cd201 2.317 . S
O202 C203 1.232 . S
C203 O202 1.232 . S
C203 O204 1.218 . S
O204 C203 1.218 . S
C205 O198 1.275 . S
C205 O200 1.255 . S
C206 O207 1.258 . S
C206 O208 1.256 . S
O207 Cd199 2.381 . S
O207 C206 1.258 . S
O208 Cd199 2.378 . S
O208 C206 1.256 . S
O209 Cd210 2.300 . S
O209 C216 1.275 . S
Cd210 O209 2.300 . S
Cd210 O218 2.381 . S
Cd210 O219 2.378 . S
O211 Cd212 2.385 . S
O211 C216 1.255 . S
Cd212 O211 2.385 . S
Cd212 O213 2.317 . S
O213 Cd212 2.317 . S
O213 C214 1.232 . S
C214 O213 1.232 . S
C214 O215 1.218 . S
O215 C214 1.218 . S
C216 O209 1.275 . S
C216 O211 1.255 . S
C217 O218 1.258 . S
C217 O219 1.256 . S
O218 Cd210 2.381 . S
O218 C217 1.258 . S
O219 Cd210 2.378 . S
O219 C217 1.256 . S
O220 Cd221 2.300 . S
O220 C227 1.275 . S
Cd221 O220 2.300 . S
Cd221 O229 2.381 . S
Cd221 O230 2.378 . S
O222 Cd223 2.385 . S
O222 C227 1.255 . S
Cd223 O222 2.385 . S
Cd223 O224 2.317 . S
O224 Cd223 2.317 . S
O224 C225 1.232 . S
C225 O224 1.232 . S
C225 O226 1.218 . S
O226 C225 1.218 . S
C227 O220 1.275 . S
C227 O222 1.255 . S
C228 O229 1.258 . S
C228 O230 1.256 . S
O229 Cd221 2.381 . S
O229 C228 1.258 . S
O230 Cd221 2.378 . S
O230 C228 1.256 . S
O231 Cd232 2.300 . S
O231 C238 1.275 . S
Cd232 O231 2.300 . S
Cd232 O240 2.381 . S
Cd232 O241 2.378 . S
O233 Cd234 2.385 . S
O233 C238 1.255 . S
Cd234 O233 2.385 . S
Cd234 O235 2.317 . S
O235 Cd234 2.317 . S
O235 C236 1.232 . S
C236 O235 1.232 . S
C236 O237 1.218 . S
O237 C236 1.218 . S
C238 O231 1.275 . S
C238 O233 1.255 . S
C239 O240 1.258 . S
C239 O241 1.256 . S
O240 Cd232 2.381 . S
O240 C239 1.258 . S
O241 Cd232 2.378 . S
O241 C239 1.256 . S
O242 Cd243 2.300 1_545 S
O242 C249 1.275 . S
Cd243 O242 2.300 1_565 S
Cd243 O251 2.381 . S
Cd243 O252 2.378 . S
O244 Cd245 2.385 . S
O244 C249 1.255 1_565 S
Cd245 O244 2.385 . S
Cd245 O246 2.317 . S
O246 Cd245 2.317 . S
O246 C247 1.232 1_565 S
C247 O246 1.232 1_545 S
C247 O248 1.214 1_545 S
O248 C247 1.214 1_565 S
C249 O242 1.275 . S
C249 O244 1.255 1_545 S
C250 O251 1.258 . S
C250 O252 1.256 . S
O251 Cd243 2.381 . S
O251 C250 1.258 . S
O252 Cd243 2.378 . S
O252 C250 1.256 . S
O253 Cd254 2.300 . S
O253 C260 1.275 . S
Cd254 O253 2.300 . S
Cd254 O262 2.381 . S
Cd254 O263 2.378 . S
O255 Cd256 2.385 . S
O255 C260 1.255 . S
Cd256 O255 2.385 . S
Cd256 O257 2.317 . S
O257 Cd256 2.317 . S
O257 C258 1.232 . S
C258 O257 1.232 . S
C258 O259 1.218 . S
O259 C258 1.218 . S
C260 O253 1.275 . S
C260 O255 1.255 . S
C261 O262 1.258 . S
C261 O263 1.256 . S
O262 Cd254 2.381 . S
O262 C261 1.258 . S
O263 Cd254 2.378 . S
O263 C261 1.256 . S
H264 C272 0.950 . S
H265 C277 0.950 . S
H266 C274 0.950 . S
H267 C276 0.950 . S
H268 C278 0.950 1_655 S
H269 C280 1.001 . S
H270 C282 0.950 . S
H271 C283 0.950 . S
C272 H264 0.950 . S
C272 C273 1.386 . S
C272 C274 1.391 . S
C273 C272 1.386 . S
C273 C277 1.393 1_455 S
C274 H266 0.950 . S
C274 C272 1.391 . S
C274 C275 1.400 . S
C275 C274 1.400 . S
C275 C276 1.398 1_455 S
C275 C281 1.491 . S
C276 H267 0.950 . S
C276 C275 1.398 1_655 S
C276 C277 1.391 . S
C277 H265 0.950 . S
C277 C273 1.393 1_655 S
C277 C276 1.391 . S
C278 H268 0.950 1_455 S
C278 C279 1.386 . S
C278 C280 1.384 1_455 S
C279 C278 1.386 . S
C279 C283 1.393 . S
C280 H269 1.001 . S
C280 C278 1.384 1_655 S
C280 C281 1.359 1_655 S
C281 C275 1.491 . S
C281 C280 1.359 1_455 S
C281 C282 1.398 . S
C282 H270 0.950 . S
C282 C281 1.398 . S
C282 C283 1.391 . S
C283 H271 0.950 . S
C283 C279 1.393 . S
C283 C282 1.391 . S
H284 C292 0.950 . S
H285 C297 0.950 . S
H286 C294 0.950 . S
H287 C296 0.950 . S
H288 C298 0.950 . S
H289 C300 0.950 . S
H290 C302 0.950 . S
H291 C303 0.950 . S
C292 H284 0.950 . S
C292 C293 1.386 . S
C292 C294 1.391 . S
C293 C292 1.386 . S
C293 C297 1.393 1_455 S
C294 H286 0.950 . S
C294 C292 1.391 . S
C294 C295 1.400 . S
C295 C294 1.400 . S
C295 C296 1.398 1_455 S
C295 C301 1.491 . S
C296 H287 0.950 . S
C296 C295 1.398 1_655 S
C296 C297 1.391 . S
C297 H285 0.950 . S
C297 C293 1.393 1_655 S
C297 C296 1.391 . S
C298 H288 0.950 . S
C298 C299 1.386 1_655 S
C298 C300 1.391 . S
C299 C298 1.386 1_455 S
C299 C303 1.393 . S
C300 H289 0.950 . S
C300 C298 1.391 . S
C300 C301 1.400 1_655 S
C301 C295 1.491 . S
C301 C300 1.400 1_455 S
C301 C302 1.398 . S
C302 H290 0.950 . S
C302 C301 1.398 . S
C302 C303 1.391 . S
C303 H291 0.950 . S
C303 C299 1.393 . S
C303 C302 1.391 . S
H304 C312 0.950 . S
H305 C317 0.950 . S
H306 C314 0.950 . S
H307 C316 0.950 . S
H308 C318 0.950 . S
H309 C320 0.950 . S
H310 C322 0.950 . S
H311 C323 0.950 . S
C312 H304 0.950 . S
C312 C313 1.386 . S
C312 C314 1.391 . S
C313 C312 1.386 . S
C313 C317 1.393 . S
C314 H306 0.950 . S
C314 C312 1.391 . S
C314 C315 1.400 . S
C315 C314 1.400 . S
C315 C316 1.398 . S
C315 C321 1.491 . S
C316 H307 0.950 . S
C316 C315 1.398 . S
C316 C317 1.391 . S
C317 H305 0.950 . S
C317 C313 1.393 . S
C317 C316 1.391 . S
C318 H308 0.950 . S
C318 C319 1.386 . S
C318 C320 1.391 . S
C319 C318 1.386 . S
C319 C323 1.393 . S
C320 H309 0.950 . S
C320 C318 1.391 . S
C320 C321 1.400 . S
C321 C315 1.491 . S
C321 C320 1.400 . S
C321 C322 1.398 . S
C322 H310 0.950 . S
C322 C321 1.398 . S
C322 C323 1.391 . S
C323 H311 0.950 . S
C323 C319 1.393 . S
C323 C322 1.391 . S
H324 C332 0.950 . S
H325 C337 0.950 . S
H326 C334 0.950 . S
H327 C336 0.950 . S
H328 C338 0.950 . S
H329 C340 0.950 . S
H330 C342 0.950 . S
H331 C343 0.950 . S
C332 H324 0.950 . S
C332 C333 1.386 . S
C332 C334 1.391 . S
C333 C332 1.386 . S
C333 C337 1.393 1_554 S
C334 H326 0.950 . S
C334 C332 1.391 . S
C334 C335 1.400 . S
C335 C334 1.400 . S
C335 C336 1.398 1_554 S
C335 C341 1.491 1_554 S
C336 H327 0.950 . S
C336 C335 1.398 1_556 S
C336 C337 1.391 . S
C337 H325 0.950 . S
C337 C333 1.393 1_556 S
C337 C336 1.391 . S
C338 H328 0.950 . S
C338 C339 1.386 . S
C338 C340 1.391 . S
C339 C338 1.386 . S
C339 C343 1.393 1_556 S
C340 H329 0.950 . S
C340 C338 1.391 . S
C340 C341 1.400 . S
C341 C335 1.491 1_556 S
C341 C340 1.400 . S
C341 C342 1.398 1_556 S
C342 H330 0.950 . S
C342 C341 1.398 1_554 S
C342 C343 1.391 . S
C343 H331 0.950 . S
C343 C339 1.393 1_554 S
C343 C342 1.391 . S
H344 C352 0.950 . S
H345 C357 0.950 . S
H346 C354 0.931 1_565 S
H347 C356 0.950 . S
H348 C358 0.950 . S
H349 C360 0.950 . S
H350 C362 0.950 . S
H351 C363 0.950 . S
C352 H344 0.950 . S
C352 C353 1.386 . S
C352 C354 1.402 . S
C353 C352 1.386 . S
C353 C357 1.393 . S
C354 H346 0.931 1_545 S
C354 C352 1.402 . S
C354 C355 1.408 . S
C355 C354 1.408 . S
C355 C356 1.398 . S
C355 C361 1.491 1_545 S
C356 H347 0.950 . S
C356 C355 1.398 . S
C356 C357 1.391 . S
C357 H345 0.950 . S
C357 C353 1.393 . S
C357 C356 1.391 . S
C358 H348 0.950 . S
C358 C359 1.386 . S
C358 C360 1.391 1_565 S
C359 C358 1.386 . S
C359 C363 1.393 . S
C360 H349 0.950 . S
C360 C358 1.391 1_545 S
C360 C361 1.400 1_545 S
C361 C355 1.491 1_565 S
C361 C360 1.400 1_565 S
C361 C362 1.398 . S
C362 H350 0.950 . S
C362 C361 1.398 . S
C362 C363 1.391 . S
C363 H351 0.950 . S
C363 C359 1.393 . S
C363 C362 1.391 . S
H364 C372 0.950 . S
H365 C377 0.950 . S
H366 C374 0.950 . S
H367 C376 0.950 . S
H368 C378 0.950 . S
H369 C380 0.950 . S
H370 C382 0.950 . S
H371 C383 0.950 . S
C372 H364 0.950 . S
C372 C373 1.386 . S
C372 C374 1.391 . S
C373 C372 1.386 . S
C373 C377 1.393 . S
C374 H366 0.950 . S
C374 C372 1.391 . S
C374 C375 1.400 . S
C375 C374 1.400 . S
C375 C376 1.398 . S
C375 C381 1.491 . S
C376 H367 0.950 . S
C376 C375 1.398 . S
C376 C377 1.391 . S
C377 H365 0.950 . S
C377 C373 1.393 . S
C377 C376 1.391 . S
C378 H368 0.950 . S
C378 C379 1.386 . S
C378 C380 1.391 . S
C379 C378 1.386 . S
C379 C383 1.393 . S
C380 H369 0.950 . S
C380 C378 1.391 . S
C380 C381 1.400 . S
C381 C375 1.491 . S
C381 C380 1.400 . S
C381 C382 1.398 . S
C382 H370 0.950 . S
C382 C381 1.398 . S
C382 C383 1.391 . S
C383 H371 0.950 . S
C383 C379 1.393 . S
C383 C382 1.391 . S
H384 C392 0.950 . S
H385 C397 0.957 . S
H386 C394 0.950 . S
H387 C396 0.950 . S
H388 C398 0.950 . S
H389 C400 0.950 . S
H390 C402 0.950 . S
H391 C403 0.950 . S
C392 H384 0.950 . S
C392 C393 1.386 . S
C392 C394 1.391 . S
C393 C392 1.386 . S
C393 C397 1.382 1_565 S
C394 H386 0.950 . S
C394 C392 1.391 . S
C394 C395 1.400 . S
C395 C394 1.400 . S
C395 C396 1.398 1_565 S
C395 C401 1.494 . S
C396 H387 0.950 . S
C396 C395 1.398 1_545 S
C396 C397 1.395 . S
C397 H385 0.957 . S
C397 C393 1.382 1_545 S
C397 C396 1.395 . S
C398 H388 0.950 . S
C398 C399 1.386 . S
C398 C400 1.391 . S
C399 C398 1.386 . S
C399 C403 1.393 1_545 S
C400 H389 0.950 . S
C400 C398 1.391 . S
C400 C401 1.391 1_545 S
C401 C395 1.494 . S
C401 C400 1.391 1_565 S
C401 C402 1.405 . S
C402 H390 0.950 . S
C402 C401 1.405 . S
C402 C403 1.391 . S
C403 H391 0.950 . S
C403 C399 1.393 1_565 S
C403 C402 1.391 . S
H404 C412 0.950 . S
H405 C417 0.950 . S
H406 C414 0.950 . S
H407 C416 0.950 . S
H408 C418 0.950 . S
H409 C420 0.950 . S
H410 C422 0.950 . S
H411 C423 0.950 . S
C412 H404 0.950 . S
C412 C413 1.386 . S
C412 C414 1.391 . S
C413 C412 1.386 . S
C413 C417 1.393 . S
C414 H406 0.950 . S
C414 C412 1.391 . S
C414 C415 1.400 . S
C415 C414 1.400 . S
C415 C416 1.398 . S
C415 C421 1.491 . S
C416 H407 0.950 . S
C416 C415 1.398 . S
C416 C417 1.391 . S
C417 H405 0.950 . S
C417 C413 1.393 . S
C417 C416 1.391 . S
C418 H408 0.950 . S
C418 C419 1.386 . S
C418 C420 1.391 . S
C419 C418 1.386 . S
C419 C423 1.393 . S
C420 H409 0.950 . S
C420 C418 1.391 . S
C420 C421 1.400 . S
C421 C415 1.491 . S
C421 C420 1.400 . S
C421 C422 1.398 . S
C422 H410 0.950 . S
C422 C421 1.398 . S
C422 C423 1.391 . S
C423 H411 0.950 . S
C423 C419 1.393 . S
C423 C422 1.391 . S
H424 C432 0.950 . S
H425 C437 0.950 . S
H426 C434 0.950 . S
H427 C436 0.950 . S
H428 C438 0.950 . S
H429 C440 0.950 . S
H430 C442 0.950 . S
H431 C443 0.950 . S
C432 H424 0.950 . S
C432 C433 1.386 . S
C432 C434 1.391 . S
C433 C432 1.386 . S
C433 C437 1.393 . S
C434 H426 0.950 . S
C434 C432 1.391 . S
C434 C435 1.400 . S
C435 C434 1.400 . S
C435 C436 1.398 . S
C435 C441 1.491 . S
C436 H427 0.950 . S
C436 C435 1.398 . S
C436 C437 1.391 . S
C437 H425 0.950 . S
C437 C433 1.393 . S
C437 C436 1.391 . S
C438 H428 0.950 . S
C438 C439 1.386 . S
C438 C440 1.391 . S
C439 C438 1.386 . S
C439 C443 1.393 . S
C440 H429 0.950 . S
C440 C438 1.391 . S
C440 C441 1.400 . S
C441 C435 1.491 . S
C441 C440 1.400 . S
C441 C442 1.398 . S
C442 H430 0.950 . S
C442 C441 1.398 . S
C442 C443 1.391 . S
C443 H431 0.950 . S
C443 C439 1.393 . S
C443 C442 1.391 . S
H444 C452 0.950 . S
H445 C457 0.950 . S
H446 C454 0.950 . S
H447 C456 0.950 . S
H448 C458 0.950 . S
H449 C460 0.950 . S
H450 C462 0.950 . S
H451 C463 0.950 . S
C452 H444 0.950 . S
C452 C453 1.386 . S
C452 C454 1.391 . S
C453 C452 1.386 . S
C453 C457 1.393 . S
C454 H446 0.950 . S
C454 C452 1.391 . S
C454 C455 1.400 . S
C455 C454 1.400 . S
C455 C456 1.398 . S
C455 C461 1.491 . S
C456 H447 0.950 . S
C456 C455 1.398 . S
C456 C457 1.391 . S
C457 H445 0.950 . S
C457 C453 1.393 . S
C457 C456 1.391 . S
C458 H448 0.950 . S
C458 C459 1.386 . S
C458 C460 1.391 . S
C459 C458 1.386 . S
C459 C463 1.393 . S
C460 H449 0.950 . S
C460 C458 1.391 . S
C460 C461 1.400 . S
C461 C455 1.491 . S
C461 C460 1.400 . S
C461 C462 1.398 . S
C462 H450 0.950 . S
C462 C461 1.398 . S
C462 C463 1.391 . S
C463 H451 0.950 . S
C463 C459 1.393 . S
C463 C462 1.391 . S
H464 C472 0.950 . S
H465 C477 0.950 . S
H466 C474 0.950 . S
H467 C476 0.950 . S
H468 C478 0.950 . S
H469 C480 0.950 . S
H470 C482 0.950 . S
H471 C483 0.950 . S
C472 H464 0.950 . S
C472 C473 1.386 1_545 S
C472 C474 1.391 . S
C473 C472 1.386 1_565 S
C473 C477 1.393 . S
C474 H466 0.950 . S
C474 C472 1.391 . S
C474 C475 1.400 1_545 S
C475 C474 1.400 1_565 S
C475 C476 1.398 . S
C475 C481 1.491 1_565 S
C476 H467 0.950 . S
C476 C475 1.398 . S
C476 C477 1.391 . S
C477 H465 0.950 . S
C477 C473 1.393 . S
C477 C476 1.391 . S
C478 H468 0.950 . S
C478 C479 1.386 1_565 S
C478 C480 1.391 . S
C479 C478 1.386 1_545 S
C479 C483 1.393 . S
C480 H469 0.950 . S
C480 C478 1.391 . S
C480 C481 1.400 1_565 S
C481 C475 1.491 1_545 S
C481 C480 1.400 1_545 S
C481 C482 1.398 . S
C482 H470 0.950 . S
C482 C481 1.398 . S
C482 C483 1.391 . S
C483 H471 0.950 . S
C483 C479 1.393 . S
C483 C482 1.391 . S
H484 C492 0.950 . S
H485 C497 0.950 . S
H486 C494 0.950 . S
H487 C496 0.950 . S
H488 C498 0.950 . S
H489 C500 0.950 . S
H490 C502 0.950 . S
H491 C503 0.950 . S
C492 H484 0.950 . S
C492 C493 1.386 . S
C492 C494 1.391 . S
C493 C492 1.386 . S
C493 C497 1.393 . S
C494 H486 0.950 . S
C494 C492 1.391 . S
C494 C495 1.400 . S
C495 C494 1.400 . S
C495 C496 1.398 . S
C495 C501 1.491 . S
C496 H487 0.950 . S
C496 C495 1.398 . S
C496 C497 1.391 . S
C497 H485 0.950 . S
C497 C493 1.393 . S
C497 C496 1.391 . S
C498 H488 0.950 . S
C498 C499 1.386 . S
C498 C500 1.391 . S
C499 C498 1.386 . S
C499 C503 1.393 . S
C500 H489 0.950 . S
C500 C498 1.391 . S
C500 C501 1.400 . S
C501 C495 1.491 . S
C501 C500 1.400 . S
C501 C502 1.398 . S
C502 H490 0.950 . S
C502 C501 1.398 . S
C502 C503 1.391 . S
C503 H491 0.950 . S
C503 C499 1.393 . S
C503 C502 1.391 . S
H504 C512 0.950 . S
H505 C517 0.950 . S
H506 C514 0.950 . S
H507 C516 0.950 . S
H508 C518 0.950 . S
H509 C520 0.950 . S
H510 C522 0.950 . S
H511 C523 0.950 . S
C512 H504 0.950 . S
C512 C513 1.386 . S
C512 C514 1.391 . S
C513 C512 1.386 . S
C513 C517 1.393 . S
C514 H506 0.950 . S
C514 C512 1.391 . S
C514 C515 1.400 . S
C515 C514 1.400 . S
C515 C516 1.398 . S
C515 C521 1.491 . S
C516 H507 0.950 . S
C516 C515 1.398 . S
C516 C517 1.391 . S
C517 H505 0.950 . S
C517 C513 1.393 . S
C517 C516 1.391 . S
C518 H508 0.950 . S
C518 C519 1.386 . S
C518 C520 1.391 . S
C519 C518 1.386 . S
C519 C523 1.393 . S
C520 H509 0.950 . S
C520 C518 1.391 . S
C520 C521 1.400 . S
C521 C515 1.491 . S
C521 C520 1.400 . S
C521 C522 1.398 . S
C522 H510 0.950 . S
C522 C521 1.398 . S
C522 C523 1.391 . S
C523 H511 0.950 . S
C523 C519 1.393 . S
C523 C522 1.391 . S
H524 C532 0.950 . S
H525 C537 0.950 1_545 S
H526 C534 0.950 . S
H527 C536 0.950 1_545 S
H528 C538 0.950 1_545 S
H529 C540 0.950 1_545 S
H530 C542 0.950 . S
H531 C543 0.950 . S
C532 H524 0.950 . S
C532 C533 1.386 . S
C532 C534 1.391 . S
C533 C532 1.386 . S
C533 C537 1.393 . S
C534 H526 0.950 . S
C534 C532 1.391 . S
C534 C535 1.400 . S
C535 C534 1.400 . S
C535 C536 1.398 . S
C535 C541 1.491 . S
C536 H527 0.950 1_565 S
C536 C535 1.398 . S
C536 C537 1.391 . S
C537 H525 0.950 1_565 S
C537 C533 1.393 . S
C537 C536 1.391 . S
C538 H528 0.950 1_565 S
C538 C539 1.386 . S
C538 C540 1.391 . S
C539 C538 1.386 . S
C539 C543 1.393 . S
C540 H529 0.950 1_565 S
C540 C538 1.391 . S
C540 C541 1.400 . S
C541 C535 1.491 . S
C541 C540 1.400 . S
C541 C542 1.398 . S
C542 H530 0.950 . S
C542 C541 1.398 . S
C542 C543 1.391 . S
C543 H531 0.950 . S
C543 C539 1.393 . S
C543 C542 1.391 . S
H544 C552 0.950 . S
H545 C557 0.950 . S
H546 C554 0.950 . S
H547 C556 0.950 . S
H548 C558 0.950 . S
H549 C560 0.950 . S
H550 C562 0.950 . S
H551 C563 0.950 . S
C552 H544 0.950 . S
C552 C553 1.386 . S
C552 C554 1.391 . S
C553 C552 1.386 . S
C553 C557 1.393 . S
C554 H546 0.950 . S
C554 C552 1.391 . S
C554 C555 1.400 . S
C555 C554 1.400 . S
C555 C556 1.398 . S
C555 C561 1.491 . S
C556 H547 0.950 . S
C556 C555 1.398 . S
C556 C557 1.391 . S
C557 H545 0.950 . S
C557 C553 1.393 . S
C557 C556 1.391 . S
C558 H548 0.950 . S
C558 C559 1.386 . S
C558 C560 1.391 . S
C559 C558 1.386 . S
C559 C563 1.393 . S
C560 H549 0.950 . S
C560 C558 1.391 . S
C560 C561 1.400 . S
C561 C555 1.491 . S
C561 C560 1.400 . S
C561 C562 1.398 . S
C562 H550 0.950 . S
C562 C561 1.398 . S
C562 C563 1.391 . S
C563 H551 0.950 . S
C563 C559 1.393 . S
C563 C562 1.391 . S
H564 C572 0.950 1_554 S
H565 C577 0.950 . S
H566 C574 0.950 1_554 S
H567 C576 0.950 . S
H568 C578 0.950 . S
H569 C580 0.950 . S
H570 C582 0.950 1_554 S
H571 C583 0.950 1_554 S
C572 H564 0.950 1_556 S
C572 C573 1.386 . S
C572 C574 1.391 . S
C573 C572 1.386 . S
C573 C577 1.393 . S
C574 H566 0.950 1_556 S
C574 C572 1.391 . S
C574 C575 1.400 . S
C575 C574 1.400 . S
C575 C576 1.398 . S
C575 C581 1.491 . S
C576 H567 0.950 . S
C576 C575 1.398 . S
C576 C577 1.391 . S
C577 H565 0.950 . S
C577 C573 1.393 . S
C577 C576 1.391 . S
C578 H568 0.950 . S
C578 C579 1.386 . S
C578 C580 1.391 . S
C579 C578 1.386 . S
C579 C583 1.393 . S
C580 H569 0.950 . S
C580 C578 1.391 . S
C580 C581 1.400 . S
C581 C575 1.491 . S
C581 C580 1.400 . S
C581 C582 1.398 . S
C582 H570 0.950 1_556 S
C582 C581 1.398 . S
C582 C583 1.391 . S
C583 H571 0.950 1_556 S
C583 C579 1.393 . S
C583 C582 1.391 . S
H584 C592 0.950 . S
H585 C597 0.950 . S
H586 C594 0.950 . S
H587 C596 0.950 . S
H588 C598 0.950 . S
H589 C600 0.950 . S
H590 C602 0.950 . S
H591 C603 0.950 . S
C592 H584 0.950 . S
C592 C593 1.386 . S
C592 C594 1.391 . S
C593 C592 1.386 . S
C593 C597 1.393 . S
C594 H586 0.950 . S
C594 C592 1.391 . S
C594 C595 1.400 . S
C595 C594 1.400 . S
C595 C596 1.398 . S
C595 C601 1.491 . S
C596 H587 0.950 . S
C596 C595 1.398 . S
C596 C597 1.391 . S
C597 H585 0.950 . S
C597 C593 1.393 . S
C597 C596 1.391 . S
C598 H588 0.950 . S
C598 C599 1.386 . S
C598 C600 1.391 . S
C599 C598 1.386 . S
C599 C603 1.393 . S
C600 H589 0.950 . S
C600 C598 1.391 . S
C600 C601 1.400 . S
C601 C595 1.491 . S
C601 C600 1.400 . S
C601 C602 1.398 . S
C602 H590 0.950 . S
C602 C601 1.398 . S
C602 C603 1.391 . S
C603 H591 0.950 . S
C603 C599 1.393 . S
C603 C602 1.391 . S
H604 C612 0.950 . S
H605 C617 0.950 . S
H606 C614 0.950 . S
H607 C616 0.950 . S
H608 C618 0.950 . S
H609 C620 0.950 . S
H610 C622 0.950 . S
H611 C623 0.950 . S
C612 H604 0.950 . S
C612 C613 1.386 . S
C612 C614 1.391 . S
C613 C612 1.386 . S
C613 C617 1.393 . S
C614 H606 0.950 . S
C614 C612 1.391 . S
C614 C615 1.400 . S
C615 C614 1.400 . S
C615 C616 1.398 . S
C615 C621 1.491 . S
C616 H607 0.950 . S
C616 C615 1.398 . S
C616 C617 1.391 . S
C617 H605 0.950 . S
C617 C613 1.393 . S
C617 C616 1.391 . S
C618 H608 0.950 . S
C618 C619 1.386 . S
C618 C620 1.391 . S
C619 C618 1.386 . S
C619 C623 1.393 . S
C620 H609 0.950 . S
C620 C618 1.391 . S
C620 C621 1.400 . S
C621 C615 1.491 . S
C621 C620 1.400 . S
C621 C622 1.398 . S
C622 H610 0.950 . S
C622 C621 1.398 . S
C622 C623 1.391 . S
C623 H611 0.950 . S
C623 C619 1.393 . S
C623 C622 1.391 . S
H624 C632 0.950 . S
H625 C637 0.950 . S
H626 C634 0.950 . S
H627 C636 0.950 . S
H628 C638 0.950 . S
H629 C640 0.950 . S
H630 C642 0.950 . S
H631 C643 0.950 . S
C632 H624 0.950 . S
C632 C633 1.386 1_554 S
C632 C634 1.391 . S
C633 C632 1.386 1_556 S
C633 C637 1.393 . S
C634 H626 0.950 . S
C634 C632 1.391 . S
C634 C635 1.391 1_554 S
C635 C634 1.391 1_556 S
C635 C636 1.409 . S
C635 C641 1.490 . S
C636 H627 0.950 . S
C636 C635 1.409 . S
C636 C637 1.391 . S
C637 H625 0.950 . S
C637 C633 1.393 . S
C637 C636 1.391 . S
C638 H628 0.950 . S
C638 C639 1.386 1_556 S
C638 C640 1.391 . S
C639 C638 1.386 1_554 S
C639 C643 1.393 . S
C640 H629 0.950 . S
C640 C638 1.391 . S
C640 C641 1.405 . S
C641 C635 1.490 . S
C641 C640 1.405 . S
C641 C642 1.394 1_556 S
C642 H630 0.950 . S
C642 C641 1.394 1_554 S
C642 C643 1.391 . S
C643 H631 0.950 . S
C643 C639 1.393 . S
C643 C642 1.391 . S
H644 C652 0.950 . S
H645 C657 0.950 . S
H646 C654 0.950 . S
H647 C656 0.950 . S
H648 C658 0.950 . S
H649 C660 0.950 . S
H650 C662 0.950 . S
H651 C663 0.950 . S
C652 H644 0.950 . S
C652 C653 1.386 . S
C652 C654 1.391 . S
C653 C652 1.386 . S
C653 C657 1.393 . S
C654 H646 0.950 . S
C654 C652 1.391 . S
C654 C655 1.400 . S
C655 C654 1.400 . S
C655 C656 1.398 . S
C655 C661 1.491 . S
C656 H647 0.950 . S
C656 C655 1.398 . S
C656 C657 1.391 . S
C657 H645 0.950 . S
C657 C653 1.393 . S
C657 C656 1.391 . S
C658 H648 0.950 . S
C658 C659 1.386 . S
C658 C660 1.391 . S
C659 C658 1.386 . S
C659 C663 1.393 . S
C660 H649 0.950 . S
C660 C658 1.391 . S
C660 C661 1.400 . S
C661 C655 1.491 . S
C661 C660 1.400 . S
C661 C662 1.398 . S
C662 H650 0.950 . S
C662 C661 1.398 . S
C662 C663 1.391 . S
C663 H651 0.950 . S
C663 C659 1.393 . S
C663 C662 1.391 . S
H664 C672 0.950 . S
H665 C677 0.950 . S
H666 C674 0.950 . S
H667 C676 0.950 . S
H668 C678 0.950 . S
H669 C680 0.950 . S
H670 C682 0.950 . S
H671 C683 0.950 . S
C672 H664 0.950 . S
C672 C673 1.386 . S
C672 C674 1.391 . S
C673 C672 1.386 . S
C673 C677 1.393 . S
C674 H666 0.950 . S
C674 C672 1.391 . S
C674 C675 1.400 . S
C675 C674 1.400 . S
C675 C676 1.398 . S
C675 C681 1.491 . S
C676 H667 0.950 . S
C676 C675 1.398 . S
C676 C677 1.391 . S
C677 H665 0.950 . S
C677 C673 1.393 . S
C677 C676 1.391 . S
C678 H668 0.950 . S
C678 C679 1.386 . S
C678 C680 1.391 . S
C679 C678 1.386 . S
C679 C683 1.393 . S
C680 H669 0.950 . S
C680 C678 1.391 . S
C680 C681 1.400 . S
C681 C675 1.491 . S
C681 C680 1.400 . S
C681 C682 1.398 . S
C682 H670 0.950 . S
C682 C681 1.398 . S
C682 C683 1.391 . S
C683 H671 0.950 . S
C683 C679 1.393 . S
C683 C682 1.391 . S
H684 C692 0.950 . S
H685 C697 0.950 . S
H686 C694 0.950 . S
H687 C696 0.950 . S
H688 C698 0.950 . S
H689 C700 0.950 . S
H690 C702 0.950 . S
H691 C703 0.950 . S
C692 H684 0.950 . S
C692 C693 1.386 . S
C692 C694 1.391 . S
C693 C692 1.386 . S
C693 C697 1.393 . S
C694 H686 0.950 . S
C694 C692 1.391 . S
C694 C695 1.400 . S
C695 C694 1.400 . S
C695 C696 1.398 . S
C695 C701 1.491 . S
C696 H687 0.950 . S
C696 C695 1.398 . S
C696 C697 1.391 . S
C697 H685 0.950 . S
C697 C693 1.393 . S
C697 C696 1.391 . S
C698 H688 0.950 . S
C698 C699 1.386 . S
C698 C700 1.391 . S
C699 C698 1.386 . S
C699 C703 1.393 . S
C700 H689 0.950 . S
C700 C698 1.391 . S
C700 C701 1.400 . S
C701 C695 1.491 . S
C701 C700 1.400 . S
C701 C702 1.398 . S
C702 H690 0.950 . S
C702 C701 1.398 . S
C702 C703 1.391 . S
C703 H691 0.950 . S
C703 C699 1.393 . S
C703 C702 1.391 . S
H704 C712 0.950 . S
H705 C717 0.950 . S
H706 C714 0.950 . S
H707 C716 0.950 . S
H708 C718 0.950 . S
H709 C720 0.950 . S
H710 C722 0.950 . S
H711 C723 0.950 . S
C712 H704 0.950 . S
C712 C713 1.386 . S
C712 C714 1.391 . S
C713 C712 1.386 . S
C713 C717 1.393 . S
C714 H706 0.950 . S
C714 C712 1.391 . S
C714 C715 1.400 . S
C715 C714 1.400 . S
C715 C716 1.398 . S
C715 C721 1.491 . S
C716 H707 0.950 . S
C716 C715 1.398 . S
C716 C717 1.391 . S
C717 H705 0.950 . S
C717 C713 1.393 . S
C717 C716 1.391 . S
C718 H708 0.950 . S
C718 C719 1.386 . S
C718 C720 1.391 . S
C719 C718 1.386 . S
C719 C723 1.393 . S
C720 H709 0.950 . S
C720 C718 1.391 . S
C720 C721 1.400 . S
C721 C715 1.491 . S
C721 C720 1.400 . S
C721 C722 1.398 . S
C722 H710 0.950 . S
C722 C721 1.398 . S
C722 C723 1.391 . S
C723 H711 0.950 . S
C723 C719 1.393 . S
C723 C722 1.391 . S
H724 C732 0.950 . S
H725 C737 0.950 . S
H726 C734 0.950 . S
H727 C736 0.950 . S
H728 C738 0.950 . S
H729 C740 0.950 . S
H730 C742 0.950 . S
H731 C743 0.950 . S
C732 H724 0.950 . S
C732 C733 1.386 . S
C732 C734 1.391 . S
C733 C732 1.386 . S
C733 C737 1.393 . S
C734 H726 0.950 . S
C734 C732 1.391 . S
C734 C735 1.400 . S
C735 C734 1.400 . S
C735 C736 1.398 . S
C735 C741 1.491 . S
C736 H727 0.950 . S
C736 C735 1.398 . S
C736 C737 1.391 . S
C737 H725 0.950 . S
C737 C733 1.393 . S
C737 C736 1.391 . S
C738 H728 0.950 . S
C738 C739 1.386 . S
C738 C740 1.391 . S
C739 C738 1.386 . S
C739 C743 1.393 . S
C740 H729 0.950 . S
C740 C738 1.391 . S
C740 C741 1.400 . S
C741 C735 1.491 . S
C741 C740 1.400 . S
C741 C742 1.398 . S
C742 H730 0.950 . S
C742 C741 1.398 . S
C742 C743 1.391 . S
C743 H731 0.950 . S
C743 C739 1.393 . S
C743 C742 1.391 . S
H744 C752 0.950 . S
H745 C757 0.950 . S
H746 C754 0.950 . S
H747 C756 0.950 . S
H748 C758 0.950 . S
H749 C760 0.950 . S
H750 C762 0.950 . S
H751 C763 0.950 . S
C752 H744 0.950 . S
C752 C753 1.386 . S
C752 C754 1.391 . S
C753 C752 1.386 . S
C753 C757 1.393 . S
C754 H746 0.950 . S
C754 C752 1.391 . S
C754 C755 1.400 . S
C755 C754 1.400 . S
C755 C756 1.398 . S
C755 C761 1.491 . S
C756 H747 0.950 . S
C756 C755 1.398 . S
C756 C757 1.391 . S
C757 H745 0.950 . S
C757 C753 1.393 . S
C757 C756 1.391 . S
C758 H748 0.950 . S
C758 C759 1.386 . S
C758 C760 1.391 . S
C759 C758 1.386 . S
C759 C763 1.393 . S
C760 H749 0.950 . S
C760 C758 1.391 . S
C760 C761 1.400 . S
C761 C755 1.491 . S
C761 C760 1.400 . S
C761 C762 1.398 . S
C762 H750 0.950 . S
C762 C761 1.398 . S
C762 C763 1.391 . S
C763 H751 0.950 . S
C763 C759 1.393 . S
C763 C762 1.391 . S
H764 C772 0.950 . S
H765 C777 0.950 . S
H766 C774 0.950 . S
H767 C776 0.950 . S
H768 C778 0.950 . S
H769 C780 0.950 . S
H770 C782 0.950 . S
H771 C783 0.950 . S
C772 H764 0.950 . S
C772 C773 1.386 . S
C772 C774 1.391 . S
C773 C772 1.386 . S
C773 C777 1.393 . S
C774 H766 0.950 . S
C774 C772 1.391 . S
C774 C775 1.400 . S
C775 C774 1.400 . S
C775 C776 1.398 . S
C775 C781 1.491 . S
C776 H767 0.950 . S
C776 C775 1.398 . S
C776 C777 1.391 . S
C777 H765 0.950 . S
C777 C773 1.393 . S
C777 C776 1.391 . S
C778 H768 0.950 . S
C778 C779 1.386 . S
C778 C780 1.391 . S
C779 C778 1.386 . S
C779 C783 1.393 . S
C780 H769 0.950 . S
C780 C778 1.391 . S
C780 C781 1.400 . S
C781 C775 1.491 . S
C781 C780 1.400 . S
C781 C782 1.398 . S
C782 H770 0.950 . S
C782 C781 1.398 . S
C782 C783 1.391 . S
C783 H771 0.950 . S
C783 C779 1.393 . S
C783 C782 1.391 . S
H784 C792 0.950 . S
H785 C797 0.950 . S
H786 C794 0.950 . S
H787 C796 0.950 . S
H788 C798 0.950 . S
H789 C800 0.950 . S
H790 C802 0.950 . S
H791 C803 0.950 . S
C792 H784 0.950 . S
C792 C793 1.386 . S
C792 C794 1.391 . S
C793 C792 1.386 . S
C793 C797 1.393 . S
C794 H786 0.950 . S
C794 C792 1.391 . S
C794 C795 1.400 . S
C795 C794 1.400 . S
C795 C796 1.398 . S
C795 C801 1.491 . S
C796 H787 0.950 . S
C796 C795 1.398 . S
C796 C797 1.391 . S
C797 H785 0.950 . S
C797 C793 1.393 . S
C797 C796 1.391 . S
C798 H788 0.950 . S
C798 C799 1.386 . S
C798 C800 1.391 . S
C799 C798 1.386 . S
C799 C803 1.393 . S
C800 H789 0.950 . S
C800 C798 1.391 . S
C800 C801 1.400 . S
C801 C795 1.491 . S
C801 C800 1.400 . S
C801 C802 1.398 . S
C802 H790 0.950 . S
C802 C801 1.398 . S
C802 C803 1.391 . S
C803 H791 0.950 . S
C803 C799 1.393 . S
C803 C802 1.391 . S
H804 C812 0.950 . S
H805 C817 0.950 . S
H806 C814 0.950 . S
H807 C816 0.950 . S
H808 C818 0.950 . S
H809 C820 0.950 . S
H810 C822 0.950 . S
H811 C823 0.950 . S
C812 H804 0.950 . S
C812 C813 1.386 . S
C812 C814 1.391 . S
C813 C812 1.386 . S
C813 C817 1.393 . S
C814 H806 0.950 . S
C814 C812 1.391 . S
C814 C815 1.400 . S
C815 C814 1.400 . S
C815 C816 1.398 . S
C815 C821 1.491 . S
C816 H807 0.950 . S
C816 C815 1.398 . S
C816 C817 1.391 . S
C817 H805 0.950 . S
C817 C813 1.393 . S
C817 C816 1.391 . S
C818 H808 0.950 . S
C818 C819 1.386 . S
C818 C820 1.391 . S
C819 C818 1.386 . S
C819 C823 1.393 . S
C820 H809 0.950 . S
C820 C818 1.391 . S
C820 C821 1.400 . S
C821 C815 1.491 . S
C821 C820 1.400 . S
C821 C822 1.398 . S
C822 H810 0.950 . S
C822 C821 1.398 . S
C822 C823 1.391 . S
C823 H811 0.950 . S
C823 C819 1.393 . S
C823 C822 1.391 . S
H824 C832 0.950 . S
H825 C837 0.950 . S
H826 C834 0.950 . S
H827 C836 0.950 . S
H828 C838 0.950 . S
H829 C840 0.950 . S
H830 C842 0.950 . S
H831 C843 0.950 . S
C832 H824 0.950 . S
C832 C833 1.386 . S
C832 C834 1.391 . S
C833 C832 1.386 . S
C833 C837 1.393 . S
C834 H826 0.950 . S
C834 C832 1.391 . S
C834 C835 1.400 . S
C835 C834 1.400 . S
C835 C836 1.398 . S
C835 C841 1.491 . S
C836 H827 0.950 . S
C836 C835 1.398 . S
C836 C837 1.391 . S
C837 H825 0.950 . S
C837 C833 1.393 . S
C837 C836 1.391 . S
C838 H828 0.950 . S
C838 C839 1.386 . S
C838 C840 1.391 . S
C839 C838 1.386 . S
C839 C843 1.393 . S
C840 H829 0.950 . S
C840 C838 1.391 . S
C840 C841 1.400 . S
C841 C835 1.491 . S
C841 C840 1.400 . S
C841 C842 1.398 . S
C842 H830 0.950 . S
C842 C841 1.398 . S
C842 C843 1.391 . S
C843 H831 0.950 . S
C843 C839 1.393 . S
C843 C842 1.391 . S
H844 C852 0.950 . S
H845 C857 0.950 . S
H846 C854 0.950 . S
H847 C856 0.950 . S
H848 C858 0.950 . S
H849 C860 0.950 . S
H850 C862 0.950 . S
H851 C863 0.950 . S
C852 H844 0.950 . S
C852 C853 1.386 . S
C852 C854 1.391 . S
C853 C852 1.386 . S
C853 C857 1.393 . S
C854 H846 0.950 . S
C854 C852 1.391 . S
C854 C855 1.400 . S
C855 C854 1.400 . S
C855 C856 1.398 . S
C855 C861 1.491 . S
C856 H847 0.950 . S
C856 C855 1.398 . S
C856 C857 1.391 . S
C857 H845 0.950 . S
C857 C853 1.393 . S
C857 C856 1.391 . S
C858 H848 0.950 . S
C858 C859 1.386 . S
C858 C860 1.391 . S
C859 C858 1.386 . S
C859 C863 1.393 . S
C860 H849 0.950 . S
C860 C858 1.391 . S
C860 C861 1.400 . S
C861 C855 1.491 . S
C861 C860 1.400 . S
C861 C862 1.398 . S
C862 H850 0.950 . S
C862 C861 1.398 . S
C862 C863 1.391 . S
C863 H851 0.950 . S
C863 C859 1.393 . S
C863 C862 1.391 . S
H864 C872 0.950 . S
H865 C877 0.950 . S
H866 C874 0.950 . S
H867 C876 0.950 . S
H868 C878 0.950 . S
H869 C880 0.950 . S
H870 C882 0.950 . S
H871 C883 0.950 . S
C872 H864 0.950 . S
C872 C873 1.386 . S
C872 C874 1.391 . S
C873 C872 1.386 . S
C873 C877 1.393 . S
C874 H866 0.950 . S
C874 C872 1.391 . S
C874 C875 1.400 . S
C875 C874 1.400 . S
C875 C876 1.398 . S
C875 C881 1.491 . S
C876 H867 0.950 . S
C876 C875 1.398 . S
C876 C877 1.391 . S
C877 H865 0.950 . S
C877 C873 1.393 . S
C877 C876 1.391 . S
C878 H868 0.950 . S
C878 C879 1.386 . S
C878 C880 1.391 . S
C879 C878 1.386 . S
C879 C883 1.393 . S
C880 H869 0.950 . S
C880 C878 1.391 . S
C880 C881 1.400 . S
C881 C875 1.491 . S
C881 C880 1.400 . S
C881 C882 1.398 . S
C882 H870 0.950 . S
C882 C881 1.398 . S
C882 C883 1.391 . S
C883 H871 0.950 . S
C883 C879 1.393 . S
C883 C882 1.391 . S
H884 C892 0.950 . S
H885 C897 0.950 . S
H886 C894 0.950 . S
H887 C896 0.950 . S
H888 C898 0.950 . S
H889 C900 0.950 . S
H890 C902 0.950 . S
H891 C903 0.950 . S
C892 H884 0.950 . S
C892 C893 1.386 1_545 S
C892 C894 1.391 . S
C893 C892 1.386 1_565 S
C893 C897 1.393 . S
C894 H886 0.950 . S
C894 C892 1.391 . S
C894 C895 1.400 1_545 S
C895 C894 1.400 1_565 S
C895 C896 1.398 . S
C895 C901 1.491 1_565 S
C896 H887 0.950 . S
C896 C895 1.398 . S
C896 C897 1.391 . S
C897 H885 0.950 . S
C897 C893 1.393 . S
C897 C896 1.391 . S
C898 H888 0.950 . S
C898 C899 1.386 1_565 S
C898 C900 1.391 . S
C899 C898 1.386 1_545 S
C899 C903 1.393 . S
C900 H889 0.950 . S
C900 C898 1.391 . S
C900 C901 1.400 1_565 S
C901 C895 1.491 1_545 S
C901 C900 1.400 1_545 S
C901 C902 1.398 . S
C902 H890 0.950 . S
C902 C901 1.398 . S
C902 C903 1.391 . S
C903 H891 0.950 . S
C903 C899 1.393 . S
C903 C902 1.391 . S
H904 C912 0.950 . S
H905 C917 0.950 . S
H906 C914 0.950 . S
H907 C916 0.950 . S
H908 C918 0.950 . S
H909 C920 0.950 . S
H910 C922 0.950 . S
H911 C923 0.950 . S
C912 H904 0.950 . S
C912 C913 1.386 . S
C912 C914 1.391 . S
C913 C912 1.386 . S
C913 C917 1.393 . S
C914 H906 0.950 . S
C914 C912 1.391 . S
C914 C915 1.400 . S
C915 C914 1.400 . S
C915 C916 1.398 . S
C915 C921 1.491 . S
C916 H907 0.950 . S
C916 C915 1.398 . S
C916 C917 1.391 . S
C917 H905 0.950 . S
C917 C913 1.393 . S
C917 C916 1.391 . S
C918 H908 0.950 . S
C918 C919 1.386 . S
C918 C920 1.391 . S
C919 C918 1.386 . S
C919 C923 1.393 . S
C920 H909 0.950 . S
C920 C918 1.391 . S
C920 C921 1.400 . S
C921 C915 1.491 . S
C921 C920 1.400 . S
C921 C922 1.398 . S
C922 H910 0.950 . S
C922 C921 1.398 . S
C922 C923 1.391 . S
C923 H911 0.950 . S
C923 C919 1.393 . S
C923 C922 1.391 . S
H924 C932 0.950 . S
H925 C937 0.950 . S
H926 C934 0.950 . S
H927 C936 0.950 . S
H928 C938 0.950 . S
H929 C940 0.950 . S
H930 C942 0.950 . S
H931 C943 0.950 . S
C932 H924 0.950 . S
C932 C933 1.386 . S
C932 C934 1.391 . S
C933 C932 1.386 . S
C933 C937 1.393 . S
C934 H926 0.950 . S
C934 C932 1.391 . S
C934 C935 1.400 . S
C935 C934 1.400 . S
C935 C936 1.398 . S
C935 C941 1.491 . S
C936 H927 0.950 . S
C936 C935 1.398 . S
C936 C937 1.391 . S
C937 H925 0.950 . S
C937 C933 1.393 . S
C937 C936 1.391 . S
C938 H928 0.950 . S
C938 C939 1.386 . S
C938 C940 1.391 . S
C939 C938 1.386 . S
C939 C943 1.393 . S
C940 H929 0.950 . S
C940 C938 1.391 . S
C940 C941 1.400 . S
C941 C935 1.491 . S
C941 C940 1.400 . S
C941 C942 1.398 . S
C942 H930 0.950 . S
C942 C941 1.398 . S
C942 C943 1.391 . S
C943 H931 0.950 . S
C943 C939 1.393 . S
C943 C942 1.391 . S
H944 C952 0.950 . S
H945 C957 0.950 . S
H946 C954 0.950 . S
H947 C956 0.950 . S
H948 C958 0.950 . S
H949 C960 0.950 . S
H950 C962 0.950 . S
H951 C963 0.950 . S
C952 H944 0.950 . S
C952 C953 1.386 . S
C952 C954 1.391 . S
C953 C952 1.386 . S
C953 C957 1.393 . S
C954 H946 0.950 . S
C954 C952 1.391 . S
C954 C955 1.400 . S
C955 C954 1.400 . S
C955 C956 1.398 . S
C955 C961 1.491 . S
C956 H947 0.950 . S
C956 C955 1.398 . S
C956 C957 1.391 . S
C957 H945 0.950 . S
C957 C953 1.393 . S
C957 C956 1.391 . S
C958 H948 0.950 . S
C958 C959 1.386 . S
C958 C960 1.391 . S
C959 C958 1.386 . S
C959 C963 1.393 . S
C960 H949 0.950 . S
C960 C958 1.391 . S
C960 C961 1.400 . S
C961 C955 1.491 . S
C961 C960 1.400 . S
C961 C962 1.398 . S
C962 H950 0.950 . S
C962 C961 1.398 . S
C962 C963 1.391 . S
C963 H951 0.950 . S
C963 C959 1.393 . S
C963 C962 1.391 . S
H964 C972 0.950 . S
H965 C977 0.950 . S
H966 C974 0.950 . S
H967 C976 0.950 . S
H968 C978 0.950 . S
H969 C980 0.950 . S
H970 C982 0.950 . S
H971 C983 0.950 . S
C972 H964 0.950 . S
C972 C973 1.386 . S
C972 C974 1.391 . S
C973 C972 1.386 . S
C973 C977 1.393 . S
C974 H966 0.950 . S
C974 C972 1.391 . S
C974 C975 1.400 . S
C975 C974 1.400 . S
C975 C976 1.398 . S
C975 C981 1.491 . S
C976 H967 0.950 . S
C976 C975 1.398 . S
C976 C977 1.391 . S
C977 H965 0.950 . S
C977 C973 1.393 . S
C977 C976 1.391 . S
C978 H968 0.950 . S
C978 C979 1.386 . S
C978 C980 1.391 . S
C979 C978 1.386 . S
C979 C983 1.393 . S
C980 H969 0.950 . S
C980 C978 1.391 . S
C980 C981 1.400 . S
C981 C975 1.491 . S
C981 C980 1.400 . S
C981 C982 1.398 . S
C982 H970 0.950 . S
C982 C981 1.398 . S
C982 C983 1.391 . S
C983 H971 0.950 . S
C983 C979 1.393 . S
C983 C982 1.391 . S
C273 C84 1.502 . S
C279 C7 1.485 . S
C293 C51 1.564 . S
C299 C18 1.621 . S
C313 C62 1.787 . S
C319 C29 1.740 . S
C333 C73 1.191 1_554 S
C339 C40 1.245 . S
C353 C95 0.570 . S
C359 C139 0.482 . S
C373 C150 1.236 . S
C379 C106 1.122 . S
C393 C117 1.369 . S
C399 C161 1.375 . S
C413 C172 1.307 . S
C419 C128 1.308 . S
C433 C183 1.482 . S
C439 C238 1.431 . S
C453 C194 1.634 . S
C459 C216 1.638 . S
C473 C205 1.781 . S
C479 C249 1.679 . S
C493 C260 1.366 . S
C499 C227 1.375 . S
C513 C8 1.828 . S
C519 C173 1.809 . S
C533 C19 1.747 . S
C539 C137 1.657 . S
C553 C151 1.651 . S
C559 C27 1.285 . S
C573 C162 1.557 . S
C579 C41 1.578 . S
C593 C49 1.454 . S
C599 C104 1.176 . S
C613 C60 1.646 . S
C619 C118 1.822 . S
C633 C126 1.537 . S
C639 C71 1.176 1_554 S
C653 C85 1.724 . S
C659 C93 1.655 . S
C673 C129 1.740 . S
C679 C140 1.770 . S
C693 C228 1.818 . S
C699 C181 1.763 . S
C713 C192 1.441 . S
C719 C239 1.588 . S
C733 C203 1.528 . S
C739 C214 1.428 . S
C753 C159 1.447 . S
C759 C107 1.519 . S
C773 C63 1.837 . S
C779 C206 1.830 . S
C793 C258 1.181 . S
C799 C74 1.515 . S
C813 C82 1.586 . S
C819 C184 1.731 . S
C833 C195 1.467 . S
C839 C52 1.494 . S
C853 C236 1.223 . S
C859 C38 1.610 . S
C873 C5 1.050 . S
C879 C217 1.282 . S
C893 C16 1.480 . S
C899 C247 1.378 . S
C913 C225 1.432 . S
C919 C30 1.712 . S
C933 C250 1.727 . S
C939 C261 1.743 . S
C953 C96 2.115 . S
C959 C148 2.064 . S
C973 C170 2.026 . S
C979 C115 1.973 . S
