# Generated by pormake.
# Topology ume, (4)-cn, num edge types: 1
# Building blocks:
#     Node 0, Type 0, BuildingBlock: GALJAG_clean_sbu_0, # of connection points: 4
#     Node 1, Type 0, BuildingBlock: GALJAG_clean_sbu_0, # of connection points: 4
#     Node 2, Type 0, BuildingBlock: GALJAG_clean_sbu_0, # of connection points: 4
#     Node 3, Type 0, BuildingBlock: GALJAG_clean_sbu_0, # of connection points: 4
#     Node 4, Type 0, BuildingBlock: GALJAG_clean_sbu_0, # of connection points: 4
#     Node 5, Type 0, BuildingBlock: GALJAG_clean_sbu_0, # of connection points: 4
#     Node 6, Type 0, BuildingBlock: GALJAG_clean_sbu_0, # of connection points: 4
#     Node 7, Type 0, BuildingBlock: GALJAG_clean_sbu_0, # of connection points: 4
#     Node 8, Type 0, BuildingBlock: GALJAG_clean_sbu_0, # of connection points: 4
#     Node 9, Type 0, BuildingBlock: GALJAG_clean_sbu_0, # of connection points: 4
#     Node 10, Type 0, BuildingBlock: GALJAG_clean_sbu_0, # of connection points: 4
#     Node 11, Type 0, BuildingBlock: GALJAG_clean_sbu_0, # of connection points: 4
#     Node 12, Type 0, BuildingBlock: GALJAG_clean_sbu_0, # of connection points: 4
#     Node 13, Type 0, BuildingBlock: GALJAG_clean_sbu_0, # of connection points: 4
#     Node 14, Type 0, BuildingBlock: GALJAG_clean_sbu_0, # of connection points: 4
#     Node 15, Type 0, BuildingBlock: GALJAG_clean_sbu_0, # of connection points: 4
#     Edge 16, Type (0, 0), BuildingBlock: TEMPAE_clean_linker_10, # of connection points: 2
#     Edge 17, Type (0, 0), BuildingBlock: TEMPAE_clean_linker_10, # of connection points: 2
#     Edge 18, Type (0, 0), BuildingBlock: TEMPAE_clean_linker_10, # of connection points: 2
#     Edge 19, Type (0, 0), BuildingBlock: TEMPAE_clean_linker_10, # of connection points: 2
#     Edge 20, Type (0, 0), BuildingBlock: TEMPAE_clean_linker_10, # of connection points: 2
#     Edge 21, Type (0, 0), BuildingBlock: TEMPAE_clean_linker_10, # of connection points: 2
#     Edge 22, Type (0, 0), BuildingBlock: TEMPAE_clean_linker_10, # of connection points: 2
#     Edge 23, Type (0, 0), BuildingBlock: TEMPAE_clean_linker_10, # of connection points: 2
#     Edge 24, Type (0, 0), BuildingBlock: TEMPAE_clean_linker_10, # of connection points: 2
#     Edge 25, Type (0, 0), BuildingBlock: TEMPAE_clean_linker_10, # of connection points: 2
#     Edge 26, Type (0, 0), BuildingBlock: TEMPAE_clean_linker_10, # of connection points: 2
#     Edge 27, Type (0, 0), BuildingBlock: TEMPAE_clean_linker_10, # of connection points: 2
#     Edge 28, Type (0, 0), BuildingBlock: TEMPAE_clean_linker_10, # of connection points: 2
#     Edge 29, Type (0, 0), BuildingBlock: TEMPAE_clean_linker_10, # of connection points: 2
#     Edge 30, Type (0, 0), BuildingBlock: TEMPAE_clean_linker_10, # of connection points: 2
#     Edge 31, Type (0, 0), BuildingBlock: TEMPAE_clean_linker_10, # of connection points: 2
#     Edge 32, Type (0, 0), BuildingBlock: TEMPAE_clean_linker_10, # of connection points: 2
#     Edge 33, Type (0, 0), BuildingBlock: TEMPAE_clean_linker_10, # of connection points: 2
#     Edge 34, Type (0, 0), BuildingBlock: TEMPAE_clean_linker_10, # of connection points: 2
#     Edge 35, Type (0, 0), BuildingBlock: TEMPAE_clean_linker_10, # of connection points: 2
#     Edge 36, Type (0, 0), BuildingBlock: TEMPAE_clean_linker_10, # of connection points: 2
#     Edge 37, Type (0, 0), BuildingBlock: TEMPAE_clean_linker_10, # of connection points: 2
#     Edge 38, Type (0, 0), BuildingBlock: TEMPAE_clean_linker_10, # of connection points: 2
#     Edge 39, Type (0, 0), BuildingBlock: TEMPAE_clean_linker_10, # of connection points: 2
#     Edge 40, Type (0, 0), BuildingBlock: TEMPAE_clean_linker_10, # of connection points: 2
#     Edge 41, Type (0, 0), BuildingBlock: TEMPAE_clean_linker_10, # of connection points: 2
#     Edge 42, Type (0, 0), BuildingBlock: TEMPAE_clean_linker_10, # of connection points: 2
#     Edge 43, Type (0, 0), BuildingBlock: TEMPAE_clean_linker_10, # of connection points: 2
#     Edge 44, Type (0, 0), BuildingBlock: TEMPAE_clean_linker_10, # of connection points: 2
#     Edge 45, Type (0, 0), BuildingBlock: TEMPAE_clean_linker_10, # of connection points: 2
#     Edge 46, Type (0, 0), BuildingBlock: TEMPAE_clean_linker_10, # of connection points: 2
#     Edge 47, Type (0, 0), BuildingBlock: TEMPAE_clean_linker_10, # of connection points: 2
# Relax obj value: 0.060
# Max RMSD: 0.125
# Mean RMSD: 0.125
data_MOF--net-ume--node1-GALJAG_clean_sbu_0--edge1-TEMPAE_clean_linker_10
_symmetry_space_group_name_H-M    P1
_symmetry_Int_Tables_number       1
_symmetry_cell_setting            triclinic
loop_
_symmetry_equiv_pos_as_xyz
'x, y, z'
_cell_length_a     28.271098
_cell_length_b     28.279573
_cell_length_c     114.31614
_cell_angle_alpha  90.009531
_cell_angle_beta   89.989345
_cell_angle_gamma 89.984806
loop_
_atom_site_label
_atom_site_type_symbol
_atom_site_fract_x
_atom_site_fract_y
_atom_site_fract_z
_atom_type_partial_charge
In0 In 0.25514 0.10659 0.30966 0.0
O1 O 0.26262 0.17093 0.32181 0.0
O2 O 0.22679 0.1098 0.32806 0.0
C3 C 0.26689 0.14793 0.28868 0.0
C4 C 0.17122 0.06276 0.30695 0.0
C5 C 0.33952 0.06314 0.31279 0.0
O6 O 0.25112 0.17066 0.29738 0.0
O7 O 0.27695 0.1053 0.29071 0.0
O8 O 0.30492 0.04282 0.30794 0.0
O9 O 0.33118 0.10463 0.31624 0.0
C10 C 0.24132 0.15103 0.3302 0.0
O11 O 0.20582 0.04319 0.31202 0.0
O12 O 0.1793 0.10386 0.30315 0.0
In13 In 0.89106 0.75217 0.55874 0.0
O14 O 0.83009 0.74508 0.57198 0.0
O15 O 0.89838 0.76616 0.57797 0.0
C16 C 0.84996 0.75206 0.5376 0.0
C17 C 0.92983 0.66528 0.55998 0.0
C18 C 0.93098 0.8382 0.55675 0.0
O19 O 0.8261 0.75861 0.54684 0.0
O20 O 0.89362 0.74551 0.53918 0.0
O21 O 0.95402 0.80067 0.55474 0.0
O22 O 0.88836 0.83207 0.55965 0.0
C23 C 0.85589 0.75742 0.58051 0.0
O24 O 0.95373 0.70226 0.56191 0.0
O25 O 0.88694 0.67233 0.55752 0.0
In26 In 0.25189 0.38749 0.80907 0.0
O27 O 0.30197 0.45065 0.81038 0.0
O28 O 0.32974 0.38498 0.80431 0.0
C29 C 0.16597 0.42874 0.81118 0.0
C30 C 0.26302 0.34907 0.83041 0.0
C31 C 0.24339 0.34695 0.78792 0.0
O32 O 0.20169 0.45101 0.80746 0.0
O33 O 0.17388 0.38633 0.81395 0.0
O34 O 0.25227 0.32269 0.79697 0.0
O35 O 0.23861 0.39069 0.7897 0.0
C36 C 0.33761 0.42774 0.80681 0.0
O37 O 0.24706 0.32511 0.82193 0.0
O38 O 0.2735 0.39127 0.82798 0.0
In39 In 0.60935 0.7521 0.05729 0.0
O40 O 0.66758 0.7575 0.07116 0.0
O41 O 0.59899 0.73342 0.07625 0.0
C42 C 0.6554 0.76059 0.03673 0.0
C43 C 0.567 0.83697 0.05975 0.0
C44 C 0.57099 0.66538 0.05468 0.0
O45 O 0.67656 0.74812 0.04597 0.0
O46 O 0.61207 0.76928 0.03803 0.0
O47 O 0.54653 0.70266 0.05376 0.0
O48 O 0.61428 0.67204 0.05676 0.0
C49 C 0.6409 0.74278 0.07929 0.0
O50 O 0.54489 0.80096 0.05613 0.0
O51 O 0.6099 0.82991 0.06222 0.0
In52 In 0.2481 0.39348 0.936 0.0
O53 O 0.25575 0.33013 0.92355 0.0
O54 O 0.22074 0.39204 0.91747 0.0
C55 C 0.25987 0.35073 0.95681 0.0
C56 C 0.16364 0.43624 0.9389 0.0
C57 C 0.33267 0.4369 0.93309 0.0
O58 O 0.24423 0.32858 0.94801 0.0
O59 O 0.2697 0.39357 0.95498 0.0
O60 O 0.29776 0.45741 0.93778 0.0
O61 O 0.32451 0.39528 0.92971 0.0
C62 C 0.23508 0.35085 0.91518 0.0
O63 O 0.19836 0.45694 0.93415 0.0
O64 O 0.17189 0.3946 0.94228 0.0
In65 In 0.60913 0.74914 0.18702 0.0
O66 O 0.66904 0.74044 0.17353 0.0
O67 O 0.60108 0.76378 0.16784 0.0
C68 C 0.6517 0.7495 0.20799 0.0
C69 C 0.56931 0.66271 0.18598 0.0
C70 C 0.56981 0.8354 0.18911 0.0
O71 O 0.675 0.75523 0.19863 0.0
O72 O 0.60786 0.74347 0.20662 0.0
O73 O 0.54671 0.79803 0.19124 0.0
O74 O 0.61221 0.829 0.18604 0.0
C75 C 0.64308 0.75371 0.16512 0.0
O76 O 0.54591 0.6999 0.18392 0.0
O77 O 0.6122 0.66932 0.1885 0.0
In78 In 0.25484 0.10961 0.43544 0.0
O79 O 0.24947 0.1734 0.42304 0.0
O80 O 0.28029 0.10949 0.41679 0.0
C81 C 0.24288 0.14988 0.45653 0.0
C82 C 0.3399 0.06811 0.43809 0.0
C83 C 0.17009 0.0669 0.43245 0.0
O84 O 0.25555 0.17382 0.44773 0.0
O85 O 0.23612 0.10655 0.45456 0.0
O86 O 0.20509 0.04576 0.43691 0.0
O87 O 0.17817 0.1089 0.42936 0.0
C88 C 0.26817 0.15144 0.41457 0.0
O89 O 0.30493 0.04654 0.43373 0.0
O90 O 0.33166 0.1101 0.44123 0.0
In91 In 0.88537 0.75634 0.68799 0.0
O92 O 0.82647 0.76246 0.67429 0.0
O93 O 0.89448 0.73723 0.66903 0.0
C94 C 0.8407 0.76347 0.70876 0.0
C95 C 0.92768 0.84114 0.68546 0.0
C96 C 0.92428 0.66975 0.69018 0.0
O97 O 0.81879 0.75224 0.69953 0.0
O98 O 0.88405 0.77174 0.70734 0.0
O99 O 0.94856 0.70709 0.69118 0.0
O100 O 0.88084 0.67626 0.68825 0.0
C101 C 0.85256 0.74714 0.66611 0.0
O102 O 0.94992 0.80505 0.68897 0.0
O103 O 0.88462 0.83424 0.68315 0.0
In104 In 0.75081 0.60745 0.80903 0.0
O105 O 0.75862 0.67024 0.82167 0.0
O106 O 0.72407 0.60788 0.82761 0.0
C107 C 0.76061 0.6523 0.78843 0.0
C108 C 0.66694 0.56337 0.80644 0.0
C109 C 0.83555 0.5638 0.81136 0.0
O110 O 0.74585 0.67358 0.79745 0.0
O111 O 0.77061 0.6093 0.78994 0.0
O112 O 0.80075 0.5443 0.80638 0.0
O113 O 0.82727 0.60458 0.8153 0.0
C114 C 0.73828 0.64899 0.83 0.0
O115 O 0.702 0.54358 0.81125 0.0
O116 O 0.67451 0.60482 0.80282 0.0
In117 In 0.39018 0.25197 0.05738 0.0
O118 O 0.33164 0.24634 0.07116 0.0
O119 O 0.40039 0.26936 0.07642 0.0
C120 C 0.34412 0.24534 0.0368 0.0
C121 C 0.43167 0.16659 0.0597 0.0
C122 C 0.42949 0.33836 0.055 0.0
O123 O 0.32309 0.25745 0.04608 0.0
O124 O 0.38734 0.23604 0.03806 0.0
O125 O 0.45321 0.30085 0.0536 0.0
O126 O 0.38648 0.33212 0.05747 0.0
C127 C 0.35831 0.26023 0.07938 0.0
O128 O 0.45449 0.20278 0.05649 0.0
O129 O 0.38847 0.17371 0.06182 0.0
In130 In 0.75568 0.88838 0.30951 0.0
O131 O 0.75049 0.82477 0.32198 0.0
O132 O 0.7802 0.88919 0.32823 0.0
C133 C 0.74405 0.84905 0.2883 0.0
C134 C 0.84114 0.92901 0.30691 0.0
C135 C 0.67063 0.93049 0.31252 0.0
O136 O 0.75615 0.82462 0.29708 0.0
O137 O 0.73771 0.89238 0.29036 0.0
O138 O 0.70586 0.95235 0.30838 0.0
O139 O 0.67864 0.88808 0.31526 0.0
C140 C 0.76851 0.84713 0.33047 0.0
O141 O 0.80595 0.9514 0.31093 0.0
O142 O 0.83289 0.88664 0.30411 0.0
In143 In 0.11103 0.25189 0.55794 0.0
O144 O 0.04729 0.30019 0.56142 0.0
O145 O 0.11242 0.33168 0.55626 0.0
C146 C 0.07226 0.16532 0.55604 0.0
C147 C 0.14696 0.24815 0.57966 0.0
C148 C 0.15267 0.25144 0.53684 0.0
O149 O 0.0487 0.20253 0.55402 0.0
O150 O 0.11484 0.17205 0.5589 0.0
O151 O 0.17638 0.24582 0.54614 0.0
O152 O 0.10887 0.25741 0.53834 0.0
C153 C 0.06977 0.33769 0.5591 0.0
O154 O 0.17151 0.2631 0.57117 0.0
O155 O 0.10538 0.23594 0.57711 0.0
In156 In 0.75445 0.89142 0.43562 0.0
O157 O 0.70487 0.95478 0.43362 0.0
O158 O 0.67787 0.89226 0.44158 0.0
C159 C 0.83919 0.93406 0.43251 0.0
C160 C 0.74108 0.84801 0.41493 0.0
C161 C 0.76584 0.85162 0.45679 0.0
O162 O 0.8042 0.95533 0.43694 0.0
O163 O 0.83107 0.89198 0.42949 0.0
O164 O 0.75211 0.82776 0.44806 0.0
O165 O 0.77402 0.8946 0.4547 0.0
C166 C 0.66988 0.93399 0.43821 0.0
O167 O 0.76102 0.82717 0.42339 0.0
O168 O 0.72771 0.88965 0.41707 0.0
In169 In 0.10437 0.25601 0.68706 0.0
O170 O 0.16401 0.25273 0.67351 0.0
O171 O 0.09441 0.2716 0.66792 0.0
C172 C 0.1479 0.24994 0.70797 0.0
C173 C 0.06344 0.17032 0.68489 0.0
C174 C 0.06568 0.34273 0.6891 0.0
O175 O 0.17092 0.25718 0.69866 0.0
O176 O 0.10401 0.24524 0.70657 0.0
O177 O 0.04147 0.30544 0.69029 0.0
O178 O 0.10896 0.33616 0.68696 0.0
C179 C 0.13711 0.26463 0.66515 0.0
O180 O 0.04025 0.20665 0.68783 0.0
O181 O 0.10678 0.1774 0.68297 0.0
In182 In 0.74893 0.61246 0.93595 0.0
O183 O 0.74291 0.67481 0.92313 0.0
O184 O 0.77554 0.61108 0.91738 0.0
C185 C 0.73728 0.65622 0.95663 0.0
C186 C 0.83329 0.56976 0.93902 0.0
C187 C 0.66387 0.56993 0.9332 0.0
O188 O 0.75273 0.67802 0.94776 0.0
O189 O 0.72759 0.61326 0.95493 0.0
O190 O 0.69862 0.54917 0.93789 0.0
O191 O 0.6724 0.61139 0.92975 0.0
C192 C 0.76259 0.6525 0.91486 0.0
O193 O 0.7983 0.54856 0.93455 0.0
O194 O 0.82534 0.61188 0.94208 0.0
In195 In 0.3895 0.24891 0.18695 0.0
O196 O 0.32949 0.25819 0.17352 0.0
O197 O 0.39705 0.23396 0.16777 0.0
C198 C 0.34737 0.24988 0.20797 0.0
C199 C 0.42969 0.33508 0.18579 0.0
C200 C 0.42841 0.16248 0.18915 0.0
O201 O 0.32407 0.24224 0.1987 0.0
O202 O 0.39099 0.25703 0.20649 0.0
O203 O 0.45187 0.19981 0.19108 0.0
O204 O 0.38587 0.16902 0.18623 0.0
C205 C 0.35513 0.24456 0.16509 0.0
O206 O 0.45304 0.29774 0.18385 0.0
O207 O 0.38667 0.32873 0.18822 0.0
C208 C 0.92382 0.92743 0.29931 0.0
C209 C 0.88899 0.94968 0.30608 0.0
C210 C 0.97012 0.94521 0.29885 0.0
C211 C 0.98202 0.98563 0.30553 0.0
C212 C 0.94688 0.00841 0.31234 0.0
C213 C 0.9006 0.9904 0.31244 0.0
C214 C 0.00635 0.92053 0.2913 0.0
C215 C 0.9584 0.05121 0.31971 0.0
C216 C 0.11093 0.00438 0.31374 0.0
C217 C 0.12398 0.04082 0.3061 0.0
C218 C 0.0648 0.98597 0.31363 0.0
C219 C 0.03139 0.0038 0.30552 0.0
C220 C 0.04491 0.03959 0.29754 0.0
C221 C 0.09092 0.05806 0.29801 0.0
C222 C 0.05148 0.94834 0.32241 0.0
C223 C 0.01063 0.05874 0.28858 0.0
H224 H 0.91487 0.89603 0.29433 0.0
H225 H 0.8738 0.00748 0.31775 0.0
H226 H 0.02234 0.94605 0.28508 0.0
H227 H 0.03538 0.90656 0.29684 0.0
H228 H 0.99087 0.89076 0.28625 0.0
H229 H 0.92706 0.06473 0.32453 0.0
H230 H 0.98639 0.04215 0.32614 0.0
H231 H 0.97244 0.07998 0.31411 0.0
H232 H 0.13635 0.99126 0.32005 0.0
H233 H 0.10104 0.08612 0.29206 0.0
H234 H 0.03842 0.91635 0.31781 0.0
H235 H 0.02225 0.96133 0.32804 0.0
H236 H 0.08167 0.93809 0.32808 0.0
H237 H 0.99592 0.02937 0.28327 0.0
H238 H 0.02745 0.08477 0.28261 0.0
H239 H 0.98048 0.07616 0.29306 0.0
C240 C 0.9296 0.58124 0.55358 0.0
C241 C 0.95018 0.61727 0.56028 0.0
C242 C 0.94856 0.53542 0.55354 0.0
C243 C 0.98818 0.52507 0.56066 0.0
C244 C 0.00847 0.56114 0.56766 0.0
C245 C 0.98965 0.60712 0.56723 0.0
C246 C 0.9268 0.49838 0.54569 0.0
C247 C 0.04995 0.55112 0.5756 0.0
C248 C 0.01071 0.395 0.56712 0.0
C249 C 0.0483 0.38518 0.55952 0.0
C250 C 0.99148 0.44076 0.56781 0.0
C251 C 0.00933 0.4769 0.56044 0.0
C252 C 0.0468 0.46677 0.55262 0.0
C253 C 0.06633 0.42121 0.55239 0.0
C254 C 0.95241 0.45056 0.57648 0.0
C255 C 0.06586 0.50387 0.54436 0.0
H256 H 0.8992 0.58918 0.54814 0.0
H257 H 0.00529 0.63492 0.57249 0.0
H258 H 0.95378 0.48489 0.53947 0.0
H259 H 0.91449 0.46788 0.55097 0.0
H260 H 0.89637 0.51234 0.5406 0.0
H261 H 0.05975 0.58228 0.581 0.0
H262 H 0.04149 0.52116 0.58151 0.0
H263 H 0.08111 0.54054 0.57031 0.0
H264 H 0.99709 0.36718 0.57271 0.0
H265 H 0.09525 0.4135 0.54646 0.0
H266 H 0.91987 0.46159 0.5718 0.0
H267 H 0.96274 0.48018 0.58232 0.0
H268 H 0.94401 0.41919 0.58195 0.0
H269 H 0.03687 0.51761 0.53877 0.0
H270 H 0.09433 0.4899 0.53862 0.0
H271 H 0.08011 0.53421 0.5494 0.0
C272 C 0.60725 0.50469 0.81337 0.0
C273 C 0.61977 0.54122 0.8057 0.0
C274 C 0.56122 0.48603 0.81339 0.0
C275 C 0.5274 0.50363 0.80535 0.0
C276 C 0.54038 0.53955 0.79734 0.0
C277 C 0.58629 0.55832 0.79772 0.0
C278 C 0.54846 0.44836 0.8222 0.0
C279 C 0.50566 0.55842 0.78846 0.0
C280 C 0.42038 0.42633 0.79928 0.0
C281 C 0.38542 0.44848 0.80604 0.0
C282 C 0.46654 0.44442 0.79879 0.0
C283 C 0.47821 0.48501 0.80544 0.0
C284 C 0.44297 0.50757 0.81227 0.0
C285 C 0.39679 0.48931 0.81238 0.0
C286 C 0.50284 0.42002 0.79121 0.0
C287 C 0.45428 0.55044 0.81963 0.0
H288 H 0.63301 0.49171 0.81962 0.0
H289 H 0.59601 0.58646 0.79174 0.0
H290 H 0.5192 0.4611 0.82786 0.0
H291 H 0.53566 0.41619 0.81764 0.0
H292 H 0.57887 0.43849 0.82785 0.0
H293 H 0.52207 0.58463 0.78246 0.0
H294 H 0.49109 0.52893 0.78316 0.0
H295 H 0.47549 0.57553 0.79299 0.0
H296 H 0.41158 0.39485 0.79432 0.0
H297 H 0.36988 0.50628 0.81767 0.0
H298 H 0.53215 0.40643 0.79671 0.0
H299 H 0.51839 0.44563 0.78494 0.0
H300 H 0.48754 0.39002 0.78621 0.0
H301 H 0.4826 0.54167 0.82599 0.0
H302 H 0.42297 0.56359 0.82452 0.0
H303 H 0.46779 0.5794 0.81401 0.0
C304 C 0.43203 0.08444 0.0676 0.0
C305 C 0.45295 0.11902 0.06051 0.0
C306 C 0.45041 0.03837 0.06809 0.0
C307 C 0.48981 0.0263 0.06105 0.0
C308 C 0.51115 0.0612 0.05389 0.0
C309 C 0.49283 0.10739 0.05383 0.0
C310 C 0.42751 0.00257 0.07609 0.0
C311 C 0.55259 0.04946 0.04608 0.0
C312 C 0.56445 0.91828 0.06814 0.0
C313 C 0.54537 0.88437 0.06055 0.0
C314 C 0.5459 0.96428 0.06862 0.0
C315 C 0.50834 0.97701 0.06106 0.0
C316 C 0.48888 0.94279 0.05339 0.0
C317 C 0.50722 0.89661 0.05335 0.0
C318 C 0.56668 0.99932 0.07716 0.0
C319 C 0.44951 0.95527 0.04501 0.0
H320 H 0.40132 0.09349 0.07283 0.0
H321 H 0.50879 0.13403 0.04827 0.0
H322 H 0.41246 0.97318 0.07086 0.0
H323 H 0.45439 0.98706 0.08203 0.0
H324 H 0.39879 0.01832 0.08146 0.0
H325 H 0.56485 0.08052 0.04096 0.0
H326 H 0.58257 0.03613 0.05139 0.0
H327 H 0.54257 0.02089 0.0399 0.0
H328 H 0.59382 0.90873 0.07376 0.0
H329 H 0.49274 0.8705 0.0474 0.0
H330 H 0.53831 0.01433 0.08275 0.0
H331 H 0.58305 0.02915 0.07234 0.0
H332 H 0.59395 0.98305 0.08289 0.0
H333 H 0.41823 0.96818 0.04992 0.0
H334 H 0.43857 0.92469 0.03955 0.0
H335 H 0.46109 0.98435 0.03916 0.0
C336 C 0.08243 0.4381 0.94742 0.0
C337 C 0.11613 0.45768 0.93984 0.0
C338 C 0.03625 0.45618 0.94795 0.0
C339 C 0.02323 0.49407 0.94053 0.0
C340 C 0.05728 0.51426 0.93293 0.0
C341 C 0.10353 0.49611 0.93276 0.0
C342 C 0.00126 0.43439 0.95635 0.0
C343 C 0.04455 0.55426 0.92476 0.0
C344 C 0.89309 0.50934 0.93305 0.0
C345 C 0.8808 0.54835 0.93996 0.0
C346 C 0.93936 0.49123 0.93316 0.0
C347 C 0.97375 0.51206 0.94056 0.0
C348 C 0.96106 0.55056 0.94782 0.0
C349 C 0.91484 0.56857 0.94734 0.0
C350 C 0.95173 0.45059 0.92515 0.0
C351 C 0.99642 0.57304 0.95601 0.0
H352 H 0.09216 0.4085 0.95294 0.0
H353 H 0.12944 0.51109 0.92683 0.0
H354 H 0.98592 0.46212 0.96208 0.0
H355 H 0.97162 0.41821 0.95141 0.0
H356 H 0.01767 0.40676 0.96194 0.0
H357 H 0.07519 0.56616 0.91943 0.0
H358 H 0.01586 0.54286 0.91877 0.0
H359 H 0.031 0.58485 0.92983 0.0
H360 H 0.86692 0.49387 0.92727 0.0
H361 H 0.90535 0.59864 0.95274 0.0
H362 H 0.96555 0.42043 0.93033 0.0
H363 H 0.98014 0.46154 0.91902 0.0
H364 H 0.92086 0.43826 0.91997 0.0
H365 H 0.01206 0.54579 0.96183 0.0
H366 H 0.98025 0.6011 0.96152 0.0
H367 H 0.02581 0.58883 0.95091 0.0
C368 C 0.43126 0.41874 0.19243 0.0
C369 C 0.45072 0.38276 0.18551 0.0
C370 C 0.45056 0.4644 0.1924 0.0
C371 C 0.48931 0.47465 0.18498 0.0
C372 C 0.50858 0.43858 0.17781 0.0
C373 C 0.48951 0.39273 0.17831 0.0
C374 C 0.42996 0.50142 0.20045 0.0
C375 C 0.54907 0.44853 0.16956 0.0
C376 C 0.51008 0.60481 0.17835 0.0
C377 C 0.54852 0.61492 0.18565 0.0
C378 C 0.49122 0.55889 0.17779 0.0
C379 C 0.51034 0.52287 0.185 0.0
C380 C 0.54877 0.53324 0.1925 0.0
C381 C 0.56789 0.57898 0.19259 0.0
C382 C 0.45108 0.54883 0.16944 0.0
C383 C 0.56918 0.49627 0.20059 0.0
H384 H 0.40141 0.41091 0.19806 0.0
H385 H 0.50426 0.36494 0.17289 0.0
H386 H 0.45789 0.51515 0.20637 0.0
H387 H 0.41658 0.53178 0.19528 0.0
H388 H 0.40051 0.48737 0.20587 0.0
H389 H 0.5584 0.41724 0.16415 0.0
H390 H 0.53972 0.47824 0.16365 0.0
H391 H 0.58078 0.45947 0.17458 0.0
H392 H 0.49543 0.63256 0.1729 0.0
H393 H 0.59748 0.58692 0.1983 0.0
H394 H 0.41916 0.53798 0.1744 0.0
H395 H 0.46066 0.51902 0.16358 0.0
H396 H 0.44198 0.58004 0.16399 0.0
H397 H 0.54111 0.48259 0.20648 0.0
H398 H 0.59852 0.51035 0.20604 0.0
H399 H 0.58267 0.46587 0.19545 0.0
C400 C 0.39984 0.00811 0.432 0.0
C401 C 0.38756 0.04705 0.43893 0.0
C402 C 0.44608 0.98997 0.43211 0.0
C403 C 0.48043 0.0107 0.43953 0.0
C404 C 0.46779 0.04923 0.44679 0.0
C405 C 0.4216 0.06729 0.44631 0.0
C406 C 0.45843 0.94933 0.4241 0.0
C407 C 0.50314 0.07159 0.45501 0.0
C408 C 0.58843 0.93612 0.44656 0.0
C409 C 0.62242 0.95553 0.43903 0.0
C410 C 0.54235 0.95445 0.44701 0.0
C411 C 0.52977 0.99243 0.43957 0.0
C412 C 0.5641 0.01242 0.43202 0.0
C413 C 0.61024 0.99401 0.43193 0.0
C414 C 0.50703 0.93289 0.45536 0.0
C415 C 0.5518 0.05247 0.42383 0.0
H416 H 0.37365 0.99264 0.42622 0.0
H417 H 0.4121 0.0973 0.45172 0.0
H418 H 0.48714 0.9601 0.41804 0.0
H419 H 0.47182 0.91901 0.42929 0.0
H420 H 0.42765 0.93727 0.41885 0.0
H421 H 0.48707 0.09989 0.46046 0.0
H422 H 0.51839 0.04432 0.46088 0.0
H423 H 0.53279 0.08704 0.44993 0.0
H424 H 0.59786 0.90648 0.4521 0.0
H425 H 0.6364 0.00886 0.42605 0.0
H426 H 0.4774 0.91692 0.45038 0.0
H427 H 0.49174 0.96072 0.46107 0.0
H428 H 0.52312 0.90515 0.46098 0.0
H429 H 0.52318 0.04121 0.4178 0.0
H430 H 0.58263 0.06416 0.41855 0.0
H431 H 0.53831 0.08315 0.42887 0.0
C432 C 0.00247 0.11128 0.69089 0.0
C433 C 0.0423 0.12272 0.68418 0.0
C434 C 0.98418 0.06511 0.69091 0.0
C435 C 0.00546 0.03004 0.68379 0.0
C436 C 0.04484 0.04189 0.67672 0.0
C437 C 0.06324 0.08795 0.67714 0.0
C438 C 0.94283 0.05358 0.69877 0.0
C439 C 0.06762 0.00591 0.66875 0.0
C440 C 0.98781 0.90064 0.69169 0.0
C441 C 0.94943 0.88841 0.68456 0.0
C442 C 0.00634 0.94672 0.69155 0.0
C443 C 0.98687 0.98081 0.68385 0.0
C444 C 0.9491 0.96806 0.67635 0.0
C445 C 0.93035 0.92218 0.67693 0.0
C446 C 0.04589 0.95925 0.69987 0.0
C447 C 0.92833 0.00295 0.66777 0.0
H448 H 0.98652 0.13808 0.69641 0.0
H449 H 0.09392 0.09688 0.67189 0.0
H450 H 0.91273 0.0403 0.69349 0.0
H451 H 0.95286 0.02504 0.70496 0.0
H452 H 0.93073 0.08472 0.70389 0.0
H453 H 0.09632 0.0215 0.66334 0.0
H454 H 0.08267 0.97658 0.674 0.0
H455 H 0.04067 0.99034 0.66283 0.0
H456 H 0.0023 0.87462 0.69766 0.0
H457 H 0.90081 0.91262 0.67137 0.0
H458 H 0.03447 0.98848 0.7057 0.0
H459 H 0.07711 0.97199 0.69491 0.0
H460 H 0.05685 0.92875 0.70536 0.0
H461 H 0.91201 0.03291 0.67256 0.0
H462 H 0.90102 0.9866 0.66208 0.0
H463 H 0.95668 0.01781 0.66216 0.0
C464 C 0.58864 0.93027 0.32062 0.0
C465 C 0.62295 0.95164 0.31352 0.0
C466 C 0.54235 0.94814 0.32118 0.0
C467 C 0.52981 0.98771 0.31426 0.0
C468 C 0.56448 0.0097 0.30714 0.0
C469 C 0.61081 0.99168 0.30696 0.0
C470 C 0.50675 0.92435 0.32908 0.0
C471 C 0.55232 0.05152 0.2995 0.0
C472 C 0.40014 0.00428 0.30633 0.0
C473 C 0.38706 0.04163 0.31371 0.0
C474 C 0.4465 0.98634 0.30643 0.0
C475 C 0.48021 0.00555 0.31428 0.0
C476 C 0.46668 0.04229 0.322 0.0
C477 C 0.42041 0.06026 0.32153 0.0
C478 C 0.45973 0.94767 0.29793 0.0
C479 C 0.50121 0.06295 0.33069 0.0
H480 H 0.59798 0.89941 0.32576 0.0
H481 H 0.63718 0.00809 0.30139 0.0
H482 H 0.49078 0.95068 0.33509 0.0
H483 H 0.47764 0.9092 0.32376 0.0
H484 H 0.52281 0.89556 0.33436 0.0
H485 H 0.58337 0.0647 0.29452 0.0
H486 H 0.52419 0.04147 0.29321 0.0
H487 H 0.53823 0.08083 0.30493 0.0
H488 H 0.37454 0.99006 0.30021 0.0
H489 H 0.41033 0.08904 0.32728 0.0
H490 H 0.47319 0.91638 0.30274 0.0
H491 H 0.48863 0.96009 0.29212 0.0
H492 H 0.42937 0.93649 0.29241 0.0
H493 H 0.5165 0.03444 0.33618 0.0
H494 H 0.48442 0.08959 0.3365 0.0
H495 H 0.53094 0.08005 0.32597 0.0
C496 C 0.93336 0.92243 0.56296 0.0
C497 C 0.95203 0.88587 0.55609 0.0
C498 C 0.95295 0.96797 0.56267 0.0
C499 C 0.99122 0.97753 0.55503 0.0
C500 C 0.00957 0.94092 0.54788 0.0
C501 C 0.99022 0.89522 0.54864 0.0
C502 C 0.93329 0.00557 0.5707 0.0
C503 C 0.0495 0.95008 0.53941 0.0
C504 C 0.01298 0.10753 0.54829 0.0
C505 C 0.0517 0.1174 0.55553 0.0
C506 C 0.99382 0.0617 0.54774 0.0
C507 C 0.01295 0.02549 0.55489 0.0
C508 C 0.05185 0.03553 0.56228 0.0
C509 C 0.0712 0.08119 0.56236 0.0
C510 C 0.95317 0.05202 0.53952 0.0
C511 C 0.07237 0.99837 0.5703 0.0
H512 H 0.90399 0.91513 0.56879 0.0
H513 H 0.00437 0.867 0.54325 0.0
H514 H 0.9617 0.01905 0.5765 0.0
H515 H 0.92013 0.03596 0.56551 0.0
H516 H 0.90388 0.99215 0.57622 0.0
H517 H 0.05786 0.91856 0.53399 0.0
H518 H 0.04016 0.97987 0.53353 0.0
H519 H 0.0818 0.96057 0.54426 0.0
H520 H 0.99817 0.13547 0.54292 0.0
H521 H 0.10098 0.08888 0.56803 0.0
H522 H 0.92127 0.04199 0.54459 0.0
H523 H 0.96193 0.02178 0.53372 0.0
H524 H 0.94442 0.08316 0.53401 0.0
H525 H 0.04459 0.9853 0.57635 0.0
H526 H 0.10241 0.01205 0.57557 0.0
H527 H 0.08488 0.96763 0.56513 0.0
C528 C 0.08286 0.42761 0.81855 0.0
C529 C 0.11808 0.44965 0.81185 0.0
C530 C 0.03664 0.4457 0.81893 0.0
C531 C 0.02511 0.48625 0.81225 0.0
C532 C 0.0606 0.50872 0.80548 0.0
C533 C 0.10683 0.49041 0.80546 0.0
C534 C 1.0001 0.4213 0.82644 0.0
C535 C 0.04952 0.55157 0.7981 0.0
C536 C 0.89589 0.50582 0.80426 0.0
C537 C 0.88306 0.54207 0.81199 0.0
C538 C 0.94207 0.48741 0.80422 0.0
C539 C 0.97583 0.50498 0.81228 0.0
C540 C 0.9626 0.54071 0.82032 0.0
C541 C 0.91652 0.55921 0.81998 0.0
C542 C 0.95501 0.44988 0.79538 0.0
C543 C 0.9972 0.55962 0.82923 0.0
H544 H 0.09148 0.39617 0.82354 0.0
H545 H 0.1339 0.50733 0.80021 0.0
H546 H 0.98443 0.44689 0.8327 0.0
H547 H 0.97091 0.40781 0.82088 0.0
H548 H 0.01522 0.39123 0.83145 0.0
H549 H 0.08099 0.56467 0.79326 0.0
H550 H 0.02139 0.5428 0.79169 0.0
H551 H 0.03585 0.58055 0.8037 0.0
H552 H 0.87019 0.49277 0.798 0.0
H553 H 0.90664 0.58713 0.82601 0.0
H554 H 0.96764 0.4176 0.79992 0.0
H555 H 0.98444 0.46264 0.78978 0.0
H556 H 0.92473 0.44016 0.78967 0.0
H557 H 0.01158 0.53015 0.83456 0.0
H558 H 0.98076 0.58597 0.83518 0.0
H559 H 0.02752 0.57656 0.82472 0.0
C560 C 0.57105 0.5806 0.06044 0.0
C561 C 0.55059 0.61743 0.05399 0.0
C562 C 0.55155 0.535 0.0603 0.0
C563 C 0.51159 0.52562 0.05321 0.0
C564 C 0.49159 0.56246 0.0464 0.0
C565 C 0.51084 0.60824 0.04705 0.0
C566 C 0.57297 0.49721 0.06799 0.0
C567 C 0.44991 0.5535 0.03846 0.0
C568 C 0.48783 0.39572 0.04667 0.0
C569 C 0.45038 0.38608 0.05432 0.0
C570 C 0.50713 0.44145 0.04591 0.0
C571 C 0.48969 0.47771 0.05332 0.0
C572 C 0.4522 0.46778 0.06116 0.0
C573 C 0.43244 0.4223 0.0614 0.0
C574 C 0.54602 0.45104 0.03718 0.0
C575 C 0.43366 0.50489 0.06949 0.0
H576 H 0.60162 0.58781 0.06589 0.0
H577 H 0.49528 0.63669 0.04199 0.0
H578 H 0.54593 0.48375 0.07419 0.0
H579 H 0.58476 0.46683 0.06259 0.0
H580 H 0.60369 0.51044 0.07309 0.0
H581 H 0.44076 0.585 0.03311 0.0
H582 H 0.45772 0.5235 0.0325 0.0
H583 H 0.41854 0.54349 0.04373 0.0
H584 H 0.50138 0.36773 0.04112 0.0
H585 H 0.40366 0.4147 0.06739 0.0
H586 H 0.579 0.4609 0.04182 0.0
H587 H 0.53614 0.48136 0.03152 0.0
H588 H 0.55344 0.41991 0.03154 0.0
H589 H 0.46285 0.51798 0.07511 0.0
H590 H 0.40499 0.49115 0.0752 0.0
H591 H 0.41985 0.53562 0.06453 0.0
C592 C 0.41445 0.43837 0.92484 0.0
C593 C 0.38026 0.45839 0.93223 0.0
C594 C 0.46071 0.45637 0.92442 0.0
C595 C 0.47335 0.49475 0.93173 0.0
C596 C 0.43881 0.51541 0.93913 0.0
C597 C 0.39252 0.49726 0.9392 0.0
C598 C 0.49617 0.434 0.91623 0.0
C599 C 0.45105 0.55596 0.94717 0.0
C600 C 0.6034 0.51047 0.93945 0.0
C601 C 0.61612 0.54879 0.93235 0.0
C602 C 0.55703 0.49254 0.93935 0.0
C603 C 0.52289 0.51282 0.93178 0.0
C604 C 0.53599 0.55069 0.92435 0.0
C605 C 0.5823 0.56854 0.92482 0.0
C606 C 0.54429 0.45257 0.94751 0.0
C607 C 0.50097 0.57262 0.91598 0.0
H608 H 0.40506 0.40841 0.9194 0.0
H609 H 0.36628 0.51262 0.94498 0.0
H610 H 0.51178 0.46131 0.91043 0.0
H611 H 0.52556 0.41823 0.92134 0.0
H612 H 0.48011 0.40595 0.91071 0.0
H613 H 0.42011 0.56821 0.95234 0.0
H614 H 0.47941 0.54497 0.9533 0.0
H615 H 0.46488 0.58619 0.94202 0.0
H616 H 0.62935 0.49535 0.94535 0.0
H617 H 0.59206 0.59807 0.91928 0.0
H618 H 0.53083 0.42196 0.94245 0.0
H619 H 0.51553 0.46396 0.95349 0.0
H620 H 0.5749 0.44072 0.95286 0.0
H621 H 0.48572 0.545 0.91022 0.0
H622 H 0.51733 0.6004 0.91043 0.0
H623 H 0.47128 0.58863 0.92094 0.0
C624 C 0.51111 0.89284 0.19729 0.0
C625 C 0.54896 0.88317 0.18976 0.0
C626 C 0.49181 0.93859 0.198 0.0
C627 C 0.50985 0.9749 0.19071 0.0
C628 C 0.54783 0.96502 0.18301 0.0
C629 C 0.56739 0.91947 0.18277 0.0
C630 C 0.4522 0.9481 0.20654 0.0
C631 C 0.56715 0.00229 0.17484 0.0
C632 C 0.4294 0.07794 0.18316 0.0
C633 C 0.44902 0.1146 0.18983 0.0
C634 C 0.44882 0.03232 0.18339 0.0
C635 C 0.48795 0.02278 0.19074 0.0
C636 C 0.50719 0.05946 0.19773 0.0
C637 C 0.48794 0.10523 0.19704 0.0
C638 C 0.42813 0.99463 0.17554 0.0
C639 C 0.5481 0.05033 0.20591 0.0
H640 H 0.49715 0.86484 0.20277 0.0
H641 H 0.5965 0.91191 0.17688 0.0
H642 H 0.46162 0.97828 0.21229 0.0
H643 H 0.41964 0.95813 0.20173 0.0
H644 H 0.44422 0.91687 0.21209 0.0
H645 H 0.59648 0.9887 0.16931 0.0
H646 H 0.53854 0.01536 0.16903 0.0
H647 H 0.5803 0.033 0.17992 0.0
H648 H 0.39946 0.08524 0.17751 0.0
H649 H 0.50285 0.13351 0.20228 0.0
H650 H 0.41593 0.96416 0.18085 0.0
H651 H 0.45573 0.9813 0.16948 0.0
H652 H 0.39785 0.00791 0.1703 0.0
H653 H 0.53962 0.02037 0.21182 0.0
H654 H 0.55688 0.08179 0.21131 0.0
H655 H 0.5799 0.04016 0.20081 0.0
C656 C 0.92075 0.93504 0.42414 0.0
C657 C 0.88678 0.95536 0.43154 0.0
C658 C 0.96701 0.95297 0.42362 0.0
C659 C 0.97988 0.99147 0.43087 0.0
C660 C 0.94556 0.01239 0.43828 0.0
C661 C 0.89924 0.99439 0.43843 0.0
C662 C 0.00223 0.9304 0.4154 0.0
C663 C 0.95809 0.05301 0.44627 0.0
C664 C 0.10989 0.00704 0.43856 0.0
C665 C 0.12252 0.04554 0.43151 0.0
C666 C 0.06358 0.98902 0.43843 0.0
C667 C 0.02945 0.00934 0.43086 0.0
C668 C 0.04252 0.04728 0.42346 0.0
C669 C 0.08875 0.06527 0.42397 0.0
C670 C 0.05084 0.94905 0.44659 0.0
C671 C 0.00753 0.06917 0.41507 0.0
H672 H 0.91115 0.90497 0.41876 0.0
H673 H 0.87315 0.00994 0.44422 0.0
H674 H 0.0179 0.95762 0.40958 0.0
H675 H 0.0316 0.91447 0.42048 0.0
H676 H 0.98592 0.90242 0.4099 0.0
H677 H 0.9273 0.06539 0.45148 0.0
H678 H 0.98656 0.04202 0.45238 0.0
H679 H 0.97186 0.08315 0.44109 0.0
H680 H 0.13583 0.99195 0.44446 0.0
H681 H 0.09849 0.09493 0.41846 0.0
H682 H 0.03718 0.9185 0.44153 0.0
H683 H 0.02221 0.96052 0.4526 0.0
H684 H 0.08149 0.93707 0.4519 0.0
H685 H 0.99202 0.04148 0.40936 0.0
H686 H 0.02399 0.09669 0.40946 0.0
H687 H 0.97801 0.0855 0.42003 0.0
C688 C 0.06385 0.42698 0.6829 0.0
C689 C 0.04507 0.39055 0.68977 0.0
C690 C 0.04427 0.47256 0.68316 0.0
C691 C 0.00611 0.4823 0.69082 0.0
C692 C 0.98779 0.4458 0.69801 0.0
C693 C 0.00694 0.40003 0.69723 0.0
C694 C 0.06373 0.50997 0.67505 0.0
C695 C 0.94814 0.45517 0.70655 0.0
C696 C 0.98441 0.61229 0.69763 0.0
C697 C 0.94502 0.62193 0.6906 0.0
C698 C 0.00384 0.56655 0.69808 0.0
C699 C 0.98443 0.53029 0.69099 0.0
C700 C 0.94496 0.54021 0.68377 0.0
C701 C 0.92522 0.58571 0.68383 0.0
C702 C 0.04495 0.55696 0.70616 0.0
C703 C 0.92423 0.50307 0.67577 0.0
H704 H 0.09316 0.41948 0.67706 0.0
H705 H 0.99274 0.37186 0.70262 0.0
H706 H 0.03511 0.52347 0.66931 0.0
H707 H 0.07719 0.54039 0.68019 0.0
H708 H 0.09286 0.49635 0.66947 0.0
H709 H 0.94003 0.4238 0.71204 0.0
H710 H 0.95763 0.48514 0.71236 0.0
H711 H 0.91565 0.46544 0.70175 0.0
H712 H 0.99946 0.6403 0.70293 0.0
H713 H 0.89495 0.59333 0.67832 0.0
H714 H 0.0766 0.54692 0.70099 0.0
H715 H 0.03653 0.52676 0.712 0.0
H716 H 0.05395 0.58815 0.71163 0.0
H717 H 0.95188 0.48982 0.66971 0.0
H718 H 0.89418 0.51684 0.67052 0.0
H719 H 0.91164 0.47244 0.68097 0.0
C720 C 0.26981 0.20644 0.34578 0.0
C721 C 0.23855 0.17094 0.34211 0.0
C722 C 0.2747 0.21725 0.35773 0.0
C723 C 0.2478 0.19177 0.36607 0.0
C724 C 0.21276 0.15953 0.36224 0.0
C725 C 0.20862 0.14952 0.3503 0.0
C726 C 0.31148 0.25283 0.36145 0.0
C727 C 0.18279 0.13196 0.3708 0.0
C728 C 0.29856 0.14633 0.3943 0.0
C729 C 0.27101 0.17033 0.40256 0.0
C730 C 0.29441 0.15624 0.38236 0.0
C731 C 0.26181 0.19109 0.3786 0.0
C732 C 0.23735 0.21871 0.38698 0.0
C733 C 0.24217 0.2079 0.39894 0.0
C734 C 0.32171 0.12622 0.37375 0.0
C735 C 0.20324 0.25697 0.38333 0.0
H736 H 0.29275 0.2234 0.33945 0.0
H737 H 0.18379 0.12265 0.34745 0.0
H738 H 0.29922 0.27358 0.36911 0.0
H739 H 0.34425 0.23395 0.36404 0.0
H740 H 0.32041 0.27752 0.35422 0.0
H741 H 0.1536 0.1126 0.36639 0.0
H742 H 0.20527 0.10583 0.37545 0.0
H743 H 0.16731 0.15586 0.37747 0.0
H744 H 0.32154 0.11779 0.3971 0.0
H745 H 0.22107 0.22681 0.40533 0.0
H746 H 0.33917 0.14877 0.36709 0.0
H747 H 0.29696 0.10229 0.36908 0.0
H748 H 0.34914 0.10427 0.3781 0.0
H749 H 0.21652 0.27641 0.37557 0.0
H750 H 0.19685 0.28256 0.39054 0.0
H751 H 0.16888 0.24069 0.38094 0.0
C752 C 0.86369 0.7898 0.60049 0.0
C753 C 0.83931 0.76042 0.5927 0.0
C754 C 0.85458 0.78823 0.6125 0.0
C755 C 0.82066 0.7559 0.61685 0.0
C756 C 0.7934 0.72858 0.60894 0.0
C757 C 0.80293 0.73134 0.59688 0.0
C758 C 0.88397 0.81863 0.62059 0.0
C759 C 0.75677 0.69394 0.61325 0.0
C760 C 0.86177 0.71308 0.64629 0.0
C761 C 0.83699 0.74312 0.65385 0.0
C762 C 0.85341 0.71384 0.63424 0.0
C763 C 0.8199 0.74602 0.62961 0.0
C764 C 0.79214 0.77386 0.6373 0.0
C765 C 0.80089 0.77191 0.64941 0.0
C766 C 0.8833 0.68291 0.62639 0.0
C767 C 0.75593 0.80837 0.63271 0.0
H768 H 0.89133 0.8129 0.59723 0.0
H769 H 0.78397 0.70871 0.59083 0.0
H770 H 0.86109 0.83682 0.62706 0.0
H771 H 0.90908 0.79596 0.62551 0.0
H772 H 0.90465 0.84573 0.61575 0.0
H773 H 0.73232 0.68296 0.60614 0.0
H774 H 0.77479 0.6619 0.61665 0.0
H775 H 0.73581 0.70927 0.62053 0.0
H776 H 0.88917 0.69018 0.64976 0.0
H777 H 0.78155 0.79501 0.65527 0.0
H778 H 0.90925 0.70518 0.62162 0.0
H779 H 0.86095 0.66493 0.61977 0.0
H780 H 0.90306 0.65565 0.63139 0.0
H781 H 0.77429 0.84018 0.6293 0.0
H782 H 0.73096 0.81979 0.63967 0.0
H783 H 0.7355 0.79271 0.62539 0.0
C784 C 0.29161 0.35715 0.85078 0.0
C785 C 0.26513 0.33172 0.84256 0.0
C786 C 0.28724 0.34808 0.86275 0.0
C787 C 0.25539 0.31274 0.86662 0.0
C788 C 0.23166 0.2841 0.85831 0.0
C789 C 0.23682 0.29396 0.84632 0.0
C790 C 0.31375 0.37915 0.87128 0.0
C791 C 0.19808 0.24557 0.86208 0.0
C792 C 0.26442 0.29685 0.89941 0.0
C793 C 0.23265 0.33172 0.9032 0.0
C794 C 0.26937 0.28661 0.88743 0.0
C795 C 0.24185 0.31187 0.87918 0.0
C796 C 0.20645 0.34354 0.88311 0.0
C797 C 0.20241 0.35316 0.89508 0.0
C798 C 0.30681 0.25191 0.8836 0.0
C799 C 0.17582 0.37079 0.87464 0.0
H800 H 0.31411 0.38591 0.84788 0.0
H801 H 0.21646 0.27407 0.83996 0.0
H802 H 0.28842 0.40278 0.87585 0.0
H803 H 0.33163 0.35734 0.87802 0.0
H804 H 0.34073 0.40147 0.86687 0.0
H805 H 0.19146 0.21988 0.85491 0.0
H806 H 0.21197 0.22628 0.8698 0.0
H807 H 0.16375 0.2616 0.86461 0.0
H808 H 0.28766 0.27996 0.90569 0.0
H809 H 0.17726 0.37958 0.89801 0.0
H810 H 0.33875 0.27159 0.88075 0.0
H811 H 0.29442 0.23053 0.87606 0.0
H812 H 0.31714 0.22776 0.89082 0.0
H813 H 0.19768 0.39761 0.87005 0.0
H814 H 0.14622 0.38929 0.87911 0.0
H815 H 0.16087 0.34684 0.86791 0.0
C816 C 0.69376 0.76557 0.09595 0.0
C817 C 0.65595 0.7388 0.09159 0.0
C818 C 0.70296 0.76734 0.10803 0.0
C819 C 0.67388 0.74136 0.11581 0.0
C820 C 0.63823 0.7113 0.1113 0.0
C821 C 0.6295 0.71068 0.09926 0.0
C822 C 0.74138 0.79963 0.1125 0.0
C823 C 0.60681 0.68243 0.11926 0.0
C824 C 0.69294 0.72499 0.14844 0.0
C825 C 0.65882 0.75616 0.15285 0.0
C826 C 0.70107 0.72183 0.13631 0.0
C827 C 0.67479 0.75095 0.12859 0.0
C828 C 0.64334 0.78522 0.13317 0.0
C829 C 0.6355 0.7871 0.14524 0.0
C830 C 0.735 0.68501 0.13176 0.0
C831 C 0.61512 0.81754 0.12529 0.0
H832 H 0.71439 0.78719 0.09001 0.0
H833 H 0.60072 0.68932 0.09588 0.0
H834 H 0.7251 0.83224 0.1161 0.0
H835 H 0.76153 0.78255 0.11968 0.0
H836 H 0.76638 0.80994 0.10545 0.0
H837 H 0.58493 0.6566 0.11433 0.0
H838 H 0.62834 0.66293 0.12578 0.0
H839 H 0.58275 0.70636 0.12414 0.0
H840 H 0.71103 0.70109 0.15435 0.0
H841 H 0.6096 0.81174 0.14869 0.0
H842 H 0.75644 0.69927 0.12444 0.0
H843 H 0.71464 0.65445 0.12834 0.0
H844 H 0.75914 0.67205 0.13872 0.0
H845 H 0.63844 0.83431 0.11868 0.0
H846 H 0.5967 0.84583 0.13027 0.0
H847 H 0.58814 0.79658 0.12051 0.0
C848 C 0.70703 0.64455 0.85023 0.0
C849 C 0.73579 0.66759 0.84205 0.0
C850 C 0.71089 0.65435 0.86218 0.0
C851 C 0.74447 0.68803 0.86605 0.0
C852 C 0.77049 0.71459 0.85775 0.0
C853 C 0.76588 0.70399 0.84578 0.0
C854 C 0.68197 0.6255 0.8707 0.0
C855 C 0.80589 0.75146 0.86152 0.0
C856 C 0.73568 0.70645 0.8988 0.0
C857 C 0.76563 0.67032 0.90276 0.0
C858 C 0.73131 0.71601 0.88677 0.0
C859 C 0.75749 0.6887 0.87865 0.0
C860 C 0.79107 0.65542 0.88274 0.0
C861 C 0.79464 0.64662 0.89474 0.0
C862 C 0.69592 0.75247 0.88276 0.0
C863 C 0.8202 0.62588 0.8744 0.0
H864 H 0.68316 0.61689 0.84734 0.0
H865 H 0.78797 0.72213 0.83946 0.0
H866 H 0.70551 0.6006 0.87544 0.0
H867 H 0.66511 0.64876 0.87731 0.0
H868 H 0.65391 0.60467 0.86626 0.0
H869 H 0.81455 0.77616 0.85427 0.0
H870 H 0.79246 0.7721 0.86908 0.0
H871 H 0.83904 0.73373 0.8643 0.0
H872 H 0.7134 0.72507 0.905 0.0
H873 H 0.81842 0.6192 0.89781 0.0
H874 H 0.66288 0.73445 0.88002 0.0
H875 H 0.7095 0.77251 0.87513 0.0
H876 H 0.68701 0.77776 0.88987 0.0
H877 H 0.79683 0.60036 0.86981 0.0
H878 H 0.84835 0.60567 0.87898 0.0
H879 H 0.83696 0.64854 0.86766 0.0
C880 C 0.36234 0.21181 0.14513 0.0
C881 C 0.33924 0.24259 0.15284 0.0
C882 C 0.35455 0.21434 0.13307 0.0
C883 C 0.32339 0.24907 0.12859 0.0
C884 C 0.29723 0.27794 0.1364 0.0
C885 C 0.30531 0.27417 0.14851 0.0
C886 C 0.38262 0.18225 0.1251 0.0
C887 C 0.26356 0.3152 0.13195 0.0
C888 C 0.36953 0.29094 0.09949 0.0
C889 C 0.34305 0.26352 0.09168 0.0
C890 C 0.36056 0.28958 0.11152 0.0
C891 C 0.32461 0.25947 0.11586 0.0
C892 C 0.29552 0.23419 0.10794 0.0
C893 C 0.30497 0.2367 0.09588 0.0
C894 C 0.39199 0.31772 0.11963 0.0
C895 C 0.2568 0.20187 0.11223 0.0
H896 H 0.38808 0.18686 0.14851 0.0
H897 H 0.28739 0.29793 0.1545 0.0
H898 H 0.35928 0.16608 0.11841 0.0
H899 H 0.40986 0.20327 0.12042 0.0
H900 H 0.40072 0.15352 0.12998 0.0
H901 H 0.23935 0.32782 0.13895 0.0
H902 H 0.28411 0.34589 0.12868 0.0
H903 H 0.24218 0.30152 0.12456 0.0
H904 H 0.39851 0.31232 0.09623 0.0
H905 H 0.28432 0.21561 0.08982 0.0
H906 H 0.41576 0.29331 0.12445 0.0
H907 H 0.37045 0.33698 0.12619 0.0
H908 H 0.41418 0.3437 0.11483 0.0
H909 H 0.27279 0.16887 0.11569 0.0
H910 H 0.23183 0.19226 0.10512 0.0
H911 H 0.23668 0.21855 0.11947 0.0
C912 C 0.74197 0.79126 0.34617 0.0
C913 C 0.77117 0.82847 0.34249 0.0
C914 C 0.73701 0.78076 0.35814 0.0
C915 C 0.76177 0.80826 0.36649 0.0
C916 C 0.7947 0.8427 0.36268 0.0
C917 C 0.79891 0.85239 0.35073 0.0
C918 C 0.70243 0.74301 0.36183 0.0
C919 C 0.82235 0.87253 0.37126 0.0
C920 C 0.70899 0.85048 0.39479 0.0
C921 C 0.73842 0.82845 0.40299 0.0
C922 C 0.71317 0.84057 0.38285 0.0
C923 C 0.74781 0.80786 0.37902 0.0
C924 C 0.7743 0.78195 0.38736 0.0
C925 C 0.76931 0.79262 0.39932 0.0
C926 C 0.68366 0.86861 0.37429 0.0
C927 C 0.81074 0.746 0.38364 0.0
H928 H 0.72069 0.77247 0.3398 0.0
H929 H 0.82214 0.88065 0.34789 0.0
H930 H 0.71568 0.7233 0.36956 0.0
H931 H 0.66842 0.75982 0.36432 0.0
H932 H 0.69539 0.71758 0.35463 0.0
H933 H 0.85011 0.89397 0.36688 0.0
H934 H 0.79789 0.89694 0.37587 0.0
H935 H 0.83944 0.8499 0.37796 0.0
H936 H 0.68447 0.87764 0.39764 0.0
H937 H 0.7919 0.77525 0.40566 0.0
H938 H 0.66796 0.84498 0.36759 0.0
H939 H 0.70652 0.89449 0.36967 0.0
H940 H 0.65466 0.8883 0.37869 0.0
H941 H 0.79824 0.72533 0.37599 0.0
H942 H 0.81949 0.72126 0.39087 0.0
H943 H 0.84366 0.76455 0.38103 0.0
C944 C 0.19384 0.2449 0.64901 0.0
C945 C 0.153 0.26823 0.6529 0.0
C946 C 0.20471 0.24269 0.63702 0.0
C947 C 0.17412 0.26461 0.62884 0.0
C948 C 0.13496 0.29129 0.63286 0.0
C949 C 0.12476 0.29251 0.64483 0.0
C950 C 0.2469 0.21418 0.63307 0.0
C951 C 0.10173 0.3158 0.62447 0.0
C952 C 0.19414 0.28114 0.59629 0.0
C953 C 0.16349 0.24663 0.59186 0.0
C954 C 0.20139 0.28538 0.60843 0.0
C955 C 0.17776 0.25401 0.61614 0.0
C956 C 0.1505 0.21639 0.61153 0.0
C957 C 0.14339 0.21345 0.59946 0.0
C958 C 0.23097 0.32571 0.613 0.0
C959 C 0.12532 0.1816 0.6194 0.0
H960 H 0.21588 0.2263 0.65526 0.0
H961 H 0.09358 0.31126 0.64783 0.0
H962 H 0.23468 0.17948 0.6297 0.0
H963 H 0.26587 0.23231 0.62586 0.0
H964 H 0.27207 0.20767 0.64036 0.0
H965 H 0.07636 0.33943 0.62904 0.0
H966 H 0.12193 0.33707 0.61802 0.0
H967 H 0.08126 0.28894 0.61952 0.0
H968 H 0.20973 0.30678 0.59039 0.0
H969 H 0.12021 0.1863 0.59598 0.0
H970 H 0.25281 0.31429 0.62055 0.0
H971 H 0.20731 0.35445 0.61608 0.0
H972 H 0.25457 0.34035 0.60612 0.0
H973 H 0.14963 0.1681 0.62624 0.0
H974 H 0.11087 0.15104 0.61445 0.0
H975 H 0.09555 0.19966 0.62389 0.0
C976 C 0.29562 0.14225 0.26822 0.0
C977 C 0.27286 0.16866 0.27693 0.0
C978 C 0.30227 0.16065 0.25699 0.0
C979 C 0.28541 0.20656 0.25435 0.0
C980 C 0.26154 0.23317 0.26303 0.0
C981 C 0.25574 0.21394 0.27428 0.0
C982 C 0.32835 0.13125 0.24802 0.0
C983 C 0.24278 0.28204 0.26047 0.0
C984 C 0.35464 0.25978 0.22947 0.0
C985 C 0.32689 0.24694 0.21982 0.0
C986 C 0.3397 0.25016 0.24089 0.0
C987 C 0.29591 0.22711 0.24269 0.0
C988 C 0.26603 0.21744 0.23304 0.0
C989 C 0.28194 0.22749 0.22166 0.0
C990 C 0.37261 0.26118 0.25094 0.0
C991 C 0.21886 0.19335 0.23464 0.0
H992 H 0.30888 0.10719 0.27021 0.0
H993 H 0.23781 0.23428 0.28099 0.0
H994 H 0.30627 0.12673 0.24007 0.0
H995 H 0.36126 0.14967 0.24533 0.0
H996 H 0.33796 0.09569 0.25139 0.0
H997 H 0.22212 0.29671 0.2679 0.0
H998 H 0.27261 0.30632 0.25857 0.0
H999 H 0.21992 0.28128 0.25258 0.0
H1000 H 0.38918 0.27547 0.22809 0.0
H1001 H 0.26026 0.21783 0.21421 0.0
H1002 H 0.38776 0.22776 0.25438 0.0
H1003 H 0.35311 0.2784 0.2582 0.0
H1004 H 0.40222 0.2846 0.24825 0.0
H1005 H 0.22468 0.15545 0.23671 0.0
H1006 H 0.19666 0.19561 0.22664 0.0
H1007 H 0.19919 0.20918 0.24207 0.0
C1008 C 0.75836 0.78513 0.4712 0.0
C1009 C 0.77197 0.83164 0.46861 0.0
C1010 C 0.76495 0.76638 0.48247 0.0
C1011 C 0.78605 0.79477 0.49124 0.0
C1012 C 0.79907 0.84197 0.48869 0.0
C1013 C 0.7917 0.85982 0.47743 0.0
C1014 C 0.75027 0.71606 0.48494 0.0
C1015 C 0.82208 0.87332 0.49777 0.0
C1016 C 0.78367 0.77158 0.52387 0.0
C1017 C 0.8299 0.75534 0.52571 0.0
C1018 C 0.76733 0.78133 0.51252 0.0
C1019 C 0.79812 0.77479 0.50287 0.0
C1020 C 0.84361 0.75526 0.50465 0.0
C1021 C 0.8589 0.74572 0.51605 0.0
C1022 C 0.71836 0.80158 0.51093 0.0
C1023 C 0.87758 0.74776 0.49461 0.0
H1024 H 0.74276 0.76337 0.46441 0.0
H1025 H 0.80219 0.89586 0.4755 0.0
H1026 H 0.78205 0.69419 0.48671 0.0
H1027 H 0.7277 0.71463 0.49288 0.0
H1028 H 0.73061 0.70011 0.47751 0.0
H1029 H 0.82847 0.90973 0.49448 0.0
H1030 H 0.79949 0.87554 0.50568 0.0
H1031 H 0.85647 0.85789 0.50047 0.0
H1032 H 0.76102 0.77872 0.53132 0.0
H1033 H 0.8945 0.73258 0.51741 0.0
H1034 H 0.70016 0.78447 0.50345 0.0
H1035 H 0.72106 0.83989 0.50894 0.0
H1036 H 0.69632 0.79722 0.5189 0.0
H1037 H 0.8599 0.72897 0.48731 0.0
H1038 H 0.90929 0.72722 0.49728 0.0
H1039 H 0.88945 0.78259 0.49123 0.0
C1040 C 0.13935 0.24915 0.72958 0.0
C1041 C 0.16905 0.25154 0.71978 0.0
C1042 C 0.1567 0.25806 0.74082 0.0
C1043 C 0.20515 0.26895 0.74233 0.0
C1044 C 0.23611 0.26765 0.73259 0.0
C1045 C 0.21758 0.25933 0.72136 0.0
C1046 C 0.12232 0.25952 0.75095 0.0
C1047 C 0.28819 0.27798 0.73391 0.0
C1048 C 0.22579 0.35623 0.76678 0.0
C1049 C 0.2379 0.3265 0.77612 0.0
C1050 C 0.21719 0.33797 0.75561 0.0
C1051 C 0.22116 0.2887 0.75369 0.0
C1052 C 0.23552 0.25863 0.76294 0.0
C1053 C 0.2435 0.27791 0.77411 0.0
C1054 C 0.20165 0.3713 0.74602 0.0
C1055 C 0.24081 0.20604 0.76114 0.0
H1056 H 0.10183 0.24272 0.72843 0.0
H1057 H 0.24074 0.26069 0.71381 0.0
H1058 H 0.136 0.23866 0.75843 0.0
H1059 H 0.11813 0.29659 0.75397 0.0
H1060 H 0.0869 0.24564 0.74852 0.0
H1061 H 0.30861 0.26701 0.72606 0.0
H1062 H 0.29336 0.3165 0.73522 0.0
H1063 H 0.30281 0.25966 0.74169 0.0
H1064 H 0.22176 0.39388 0.76825 0.0
H1065 H 0.25328 0.25488 0.78129 0.0
H1066 H 0.16494 0.36269 0.74332 0.0
H1067 H 0.22457 0.36706 0.73821 0.0
H1068 H 0.20276 0.40892 0.7488 0.0
H1069 H 0.20538 0.1898 0.76003 0.0
H1070 H 0.25866 0.18868 0.76866 0.0
H1071 H 0.26129 0.19867 0.75306 0.0
C1072 C 0.74957 0.72328 0.97069 0.0
C1073 C 0.73113 0.67835 0.96823 0.0
C1074 C 0.74393 0.74364 0.98183 0.0
C1075 C 0.71875 0.7186 0.99057 0.0
C1076 C 0.70031 0.67316 0.98809 0.0
C1077 C 0.70695 0.65356 0.97698 0.0
C1078 C 0.76449 0.79191 0.98424 0.0
C1079 C 0.67273 0.64545 0.99711 0.0
C1080 C 0.72171 0.73885 0.02325 0.0
C1081 C 0.67725 0.75954 0.02501 0.0
C1082 C 0.73803 0.7291 0.01189 0.0
C1083 C 0.70897 0.74014 0.00217 0.0
C1084 C 0.66604 0.76486 0.0039 0.0
C1085 C 0.65076 0.77436 0.01531 0.0
C1086 C 0.78442 0.70342 0.01037 0.0
C1087 C 0.63397 0.77732 0.99379 0.0
H1088 H 0.7686 0.74237 0.96395 0.0
H1089 H 0.6926 0.61881 0.97512 0.0
H1090 H 0.73564 0.81737 0.98612 0.0
H1091 H 0.78749 0.7906 0.99209 0.0
H1092 H 0.78552 0.80547 0.97674 0.0
H1093 H 0.66137 0.61028 0.99381 0.0
H1094 H 0.69454 0.64009 0.00507 0.0
H1095 H 0.64077 0.66558 -0.00024 0.0
H1096 H 0.74249 0.72773 0.03073 0.0
H1097 H 0.61661 0.79099 0.01662 0.0
H1098 H 0.80464 0.7182 0.0029 0.0
H1099 H 0.7774 0.66562 0.00843 0.0
H1100 H 0.80661 0.70542 0.01838 0.0
H1101 H 0.65445 0.7931 0.9865 0.0
H1102 H 0.60568 0.80246 0.99641 0.0
H1103 H 0.617 0.74465 0.99043 0.0
C1104 C 0.27758 0.26773 0.02345 0.0
C1105 C 0.32225 0.24731 0.02508 0.0
C1106 C 0.26095 0.27796 0.01215 0.0
C1107 C 0.28991 0.26772 0.00235 0.0
C1108 C 0.3332 0.24347 0.00395 0.0
C1109 C 0.34877 0.23345 0.0153 0.0
C1110 C 0.21421 0.30311 0.01077 0.0
C1111 C 0.36519 0.23191 0.99375 0.0
C1112 C 0.24831 0.28391 0.97096 0.0
C1113 C 0.26615 0.32904 0.96844 0.0
C1114 C 0.25437 0.26376 0.9821 0.0
C1115 C 0.27935 0.28921 0.9908 0.0
C1116 C 0.29704 0.33492 0.98829 0.0
C1117 C 0.29001 0.35431 0.97717 0.0
C1118 C 0.23459 0.21519 0.98454 0.0
C1119 C 0.32436 0.36308 0.99727 0.0
H1120 H 0.25678 0.27813 0.03099 0.0
H1121 H 0.3831 0.21707 0.01651 0.0
H1122 H 0.2207 0.34103 0.00886 0.0
H1123 H 0.1939 0.28822 0.00333 0.0
H1124 H 0.19233 0.30072 0.01882 0.0
H1125 H 0.39417 0.2074 0.99628 0.0
H1126 H 0.3448 0.21575 0.9865 0.0
H1127 H 0.38126 0.26501 0.99038 0.0
H1128 H 0.22953 0.26445 0.96424 0.0
H1129 H 0.30386 0.38922 0.97528 0.0
H1130 H 0.21216 0.21602 0.9925 0.0
H1131 H 0.26392 0.19008 0.98625 0.0
H1132 H 0.2132 0.2015 0.97712 0.0
H1133 H 0.30273 0.36792 0.00528 0.0
H1134 H 0.33491 0.39849 0.99397 0.0
H1135 H 0.35679 0.34354 -0.00017 0.0
C1136 C 0.74852 0.78203 0.27395 0.0
C1137 C 0.73724 0.82921 0.27648 0.0
C1138 C 0.74075 0.76331 0.26272 0.0
C1139 C 0.72076 0.79243 0.25393 0.0
C1140 C 0.71029 0.84033 0.25641 0.0
C1141 C 0.71885 0.85813 0.26762 0.0
C1142 C 0.75282 0.71224 0.26032 0.0
C1143 C 0.68851 0.8725 0.24733 0.0
C1144 C 0.71967 0.76729 0.22137 0.0
C1145 C 0.67264 0.75305 0.21979 0.0
C1146 C 0.73724 0.77701 0.23262 0.0
C1147 C 0.70686 0.77258 0.24241 0.0
C1148 C 0.66036 0.7552 0.2409 0.0
C1149 C 0.64388 0.74555 0.22961 0.0
C1150 C 0.78726 0.79485 0.23393 0.0
C1151 C 0.62676 0.75007 0.2511 0.0
H1152 H 0.76309 0.75968 0.28076 0.0
H1153 H 0.71018 0.89469 0.26951 0.0
H1154 H 0.71987 0.69182 0.25884 0.0
H1155 H 0.77446 0.70931 0.25226 0.0
H1156 H 0.77247 0.69576 0.26769 0.0
H1157 H 0.68432 0.90935 0.25053 0.0
H1158 H 0.7107 0.87309 0.23932 0.0
H1159 H 0.65316 0.85887 0.24479 0.0
H1160 H 0.74213 0.77277 0.2138 0.0
H1161 H 0.60762 0.734 0.22846 0.0
H1162 H 0.80513 0.77721 0.24138 0.0
H1163 H 0.78662 0.83334 0.23581 0.0
H1164 H 0.80848 0.78899 0.22587 0.0
H1165 H 0.64388 0.73056 0.25837 0.0
H1166 H 0.59372 0.73129 0.24863 0.0
H1167 H 0.61715 0.78565 0.25445 0.0
C1168 C 0.21767 0.14162 0.47723 0.0
C1169 C 0.23603 0.17019 0.46831 0.0
C1170 C 0.2093 0.15981 0.48842 0.0
C1171 C 0.21988 0.20777 0.49079 0.0
C1172 C 0.23971 0.23658 0.48192 0.0
C1173 C 0.24736 0.21746 0.47072 0.0
C1174 C 0.1877 0.12796 0.4976 0.0
C1175 C 0.25184 0.28772 0.48419 0.0
C1176 C 0.14398 0.25518 0.51524 0.0
C1177 C 0.17313 0.2478 0.525 0.0
C1178 C 0.16002 0.24537 0.50392 0.0
C1179 C 0.20646 0.22794 0.50231 0.0
C1180 C 0.23723 0.22366 0.51203 0.0
C1181 C 0.22011 0.23356 0.52331 0.0
C1182 C 0.12602 0.25035 0.4938 0.0
C1183 C 0.28719 0.20574 0.51061 0.0
H1184 H 0.20897 0.105 0.47543 0.0
H1185 H 0.26188 0.23954 0.46385 0.0
H1186 H 0.21015 0.12749 0.50555 0.0
H1187 H 0.15248 0.14179 0.50019 0.0
H1188 H 0.18329 0.09104 0.49446 0.0
H1189 H 0.27107 0.30404 0.47674 0.0
H1190 H 0.21894 0.30815 0.48576 0.0
H1191 H 0.27389 0.29086 0.49218 0.0
H1192 H 0.10776 0.26674 0.51648 0.0
H1193 H 0.24287 0.22818 0.53083 0.0
H1194 H 0.11612 0.21472 0.49055 0.0
H1195 H 0.14291 0.26956 0.48645 0.0
H1196 H 0.09317 0.26937 0.49633 0.0
H1197 H 0.28645 0.16722 0.50877 0.0
H1198 H 0.30873 0.2117 0.51861 0.0
H1199 H 0.30477 0.22324 0.5031 0.0
C1200 C 0.84764 0.77259 0.7303 0.0
C1201 C 0.81962 0.76138 0.72057 0.0
C1202 C 0.83255 0.76193 0.74165 0.0
C1203 C 0.78814 0.73989 0.74331 0.0
C1204 C 0.7578 0.7326 0.73362 0.0
C1205 C 0.77403 0.74327 0.7223 0.0
C1206 C 0.86608 0.77023 0.75174 0.0
C1207 C 0.70981 0.71004 0.73508 0.0
C1208 C 0.78692 0.64983 0.76772 0.0
C1209 C 0.76579 0.67509 0.77688 0.0
C1210 C 0.79322 0.67032 0.7567 0.0
C1211 C 0.77762 0.71722 0.75473 0.0
C1212 C 0.75519 0.74265 0.76385 0.0
C1213 C 0.74976 0.72132 0.77489 0.0
C1214 C 0.8177 0.64204 0.74725 0.0
C1215 C 0.73768 0.79251 0.762 0.0
H1216 H 0.88272 0.78719 0.72902 0.0
H1217 H 0.75206 0.73499 0.71481 0.0
H1218 H 0.84733 0.78649 0.75924 0.0
H1219 H 0.88054 0.73582 0.75474 0.0
H1220 H 0.89617 0.7934 0.74924 0.0
H1221 H 0.68729 0.71508 0.72721 0.0
H1222 H 0.71422 0.67152 0.73656 0.0
H1223 H 0.6912 0.72483 0.7428 0.0
H1224 H 0.79927 0.61403 0.76921 0.0
H1225 H 0.73308 0.7408 0.78193 0.0
H1226 H 0.85088 0.66007 0.7446 0.0
H1227 H 0.79484 0.63968 0.73939 0.0
H1228 H 0.8266 0.6056 0.75014 0.0
H1229 H 0.76818 0.81646 0.76054 0.0
H1230 H 0.71713 0.80579 0.76961 0.0
H1231 H 0.71511 0.79431 0.75408 0.0
loop_
_geom_bond_atom_site_label_1
_geom_bond_atom_site_label_2
_geom_bond_distance
_geom_bond_site_symmetry_2
_ccdc_geom_bond_type
In0 O1 2.294 . S
In0 O2 2.326 . S
In0 O6 2.266 . S
In0 O7 2.326 . S
In0 O8 2.266 . S
In0 O9 2.326 . S
In0 O11 2.294 . S
In0 O12 2.326 . S
O1 In0 2.294 . S
O1 C10 1.240 . S
O2 In0 2.326 . S
O2 C10 1.252 . S
C3 O6 1.252 . S
C3 O7 1.260 . S
C4 O11 1.240 . S
C4 O12 1.252 . S
C5 O8 1.252 . S
C5 O9 1.260 . S
O6 In0 2.266 . S
O6 C3 1.252 . S
O7 In0 2.326 . S
O7 C3 1.260 . S
O8 In0 2.266 . S
O8 C5 1.252 . S
O9 In0 2.326 . S
O9 C5 1.260 . S
C10 O1 1.240 . S
C10 O2 1.252 . S
O11 In0 2.294 . S
O11 C4 1.240 . S
O12 In0 2.326 . S
O12 C4 1.252 . S
In13 O14 2.294 . S
In13 O15 2.326 . S
In13 O19 2.266 . S
In13 O20 2.326 . S
In13 O21 2.266 . S
In13 O22 2.326 . S
In13 O24 2.294 . S
In13 O25 2.326 . S
O14 In13 2.294 . S
O14 C23 1.240 . S
O15 In13 2.326 . S
O15 C23 1.252 . S
C16 O19 1.252 . S
C16 O20 1.260 . S
C17 O24 1.240 . S
C17 O25 1.252 . S
C18 O21 1.252 . S
C18 O22 1.260 . S
O19 In13 2.266 . S
O19 C16 1.252 . S
O20 In13 2.326 . S
O20 C16 1.260 . S
O21 In13 2.266 . S
O21 C18 1.252 . S
O22 In13 2.326 . S
O22 C18 1.260 . S
C23 O14 1.240 . S
C23 O15 1.252 . S
O24 In13 2.294 . S
O24 C17 1.240 . S
O25 In13 2.326 . S
O25 C17 1.252 . S
In26 O27 2.294 . S
In26 O28 2.326 . S
In26 O32 2.266 . S
In26 O33 2.326 . S
In26 O34 2.266 . S
In26 O35 2.326 . S
In26 O37 2.294 . S
In26 O38 2.326 . S
O27 In26 2.294 . S
O27 C36 1.240 . S
O28 In26 2.326 . S
O28 C36 1.252 . S
C29 O32 1.252 . S
C29 O33 1.260 . S
C30 O37 1.240 . S
C30 O38 1.252 . S
C31 O34 1.252 . S
C31 O35 1.260 . S
O32 In26 2.266 . S
O32 C29 1.252 . S
O33 In26 2.326 . S
O33 C29 1.260 . S
O34 In26 2.266 . S
O34 C31 1.252 . S
O35 In26 2.326 . S
O35 C31 1.260 . S
C36 O27 1.240 . S
C36 O28 1.252 . S
O37 In26 2.294 . S
O37 C30 1.240 . S
O38 In26 2.326 . S
O38 C30 1.252 . S
In39 O40 2.294 . S
In39 O41 2.326 . S
In39 O45 2.266 . S
In39 O46 2.326 . S
In39 O47 2.266 . S
In39 O48 2.326 . S
In39 O50 2.294 . S
In39 O51 2.326 . S
O40 In39 2.294 . S
O40 C49 1.240 . S
O41 In39 2.326 . S
O41 C49 1.252 . S
C42 O45 1.252 . S
C42 O46 1.260 . S
C43 O50 1.240 . S
C43 O51 1.252 . S
C44 O47 1.252 . S
C44 O48 1.260 . S
O45 In39 2.266 . S
O45 C42 1.252 . S
O46 In39 2.326 . S
O46 C42 1.260 . S
O47 In39 2.266 . S
O47 C44 1.252 . S
O48 In39 2.326 . S
O48 C44 1.260 . S
C49 O40 1.240 . S
C49 O41 1.252 . S
O50 In39 2.294 . S
O50 C43 1.240 . S
O51 In39 2.326 . S
O51 C43 1.252 . S
In52 O53 2.294 . S
In52 O54 2.326 . S
In52 O58 2.266 . S
In52 O59 2.326 . S
In52 O60 2.266 . S
In52 O61 2.326 . S
In52 O63 2.294 . S
In52 O64 2.326 . S
O53 In52 2.294 . S
O53 C62 1.240 . S
O54 In52 2.326 . S
O54 C62 1.252 . S
C55 O58 1.252 . S
C55 O59 1.260 . S
C56 O63 1.240 . S
C56 O64 1.252 . S
C57 O60 1.252 . S
C57 O61 1.260 . S
O58 In52 2.266 . S
O58 C55 1.252 . S
O59 In52 2.326 . S
O59 C55 1.260 . S
O60 In52 2.266 . S
O60 C57 1.252 . S
O61 In52 2.326 . S
O61 C57 1.260 . S
C62 O53 1.240 . S
C62 O54 1.252 . S
O63 In52 2.294 . S
O63 C56 1.240 . S
O64 In52 2.326 . S
O64 C56 1.252 . S
In65 O66 2.294 . S
In65 O67 2.326 . S
In65 O71 2.266 . S
In65 O72 2.326 . S
In65 O73 2.266 . S
In65 O74 2.326 . S
In65 O76 2.294 . S
In65 O77 2.326 . S
O66 In65 2.294 . S
O66 C75 1.240 . S
O67 In65 2.326 . S
O67 C75 1.252 . S
C68 O71 1.252 . S
C68 O72 1.260 . S
C69 O76 1.240 . S
C69 O77 1.252 . S
C70 O73 1.252 . S
C70 O74 1.260 . S
O71 In65 2.266 . S
O71 C68 1.252 . S
O72 In65 2.326 . S
O72 C68 1.260 . S
O73 In65 2.266 . S
O73 C70 1.252 . S
O74 In65 2.326 . S
O74 C70 1.260 . S
C75 O66 1.240 . S
C75 O67 1.252 . S
O76 In65 2.294 . S
O76 C69 1.240 . S
O77 In65 2.326 . S
O77 C69 1.252 . S
In78 O79 2.294 . S
In78 O80 2.326 . S
In78 O84 2.266 . S
In78 O85 2.326 . S
In78 O86 2.266 . S
In78 O87 2.326 . S
In78 O89 2.294 . S
In78 O90 2.326 . S
O79 In78 2.294 . S
O79 C88 1.240 . S
O80 In78 2.326 . S
O80 C88 1.252 . S
C81 O84 1.252 . S
C81 O85 1.260 . S
C82 O89 1.240 . S
C82 O90 1.252 . S
C83 O86 1.252 . S
C83 O87 1.260 . S
O84 In78 2.266 . S
O84 C81 1.252 . S
O85 In78 2.326 . S
O85 C81 1.260 . S
O86 In78 2.266 . S
O86 C83 1.252 . S
O87 In78 2.326 . S
O87 C83 1.260 . S
C88 O79 1.240 . S
C88 O80 1.252 . S
O89 In78 2.294 . S
O89 C82 1.240 . S
O90 In78 2.326 . S
O90 C82 1.252 . S
In91 O92 2.294 . S
In91 O93 2.326 . S
In91 O97 2.266 . S
In91 O98 2.326 . S
In91 O99 2.266 . S
In91 O100 2.326 . S
In91 O102 2.294 . S
In91 O103 2.326 . S
O92 In91 2.294 . S
O92 C101 1.240 . S
O93 In91 2.326 . S
O93 C101 1.252 . S
C94 O97 1.252 . S
C94 O98 1.260 . S
C95 O102 1.240 . S
C95 O103 1.252 . S
C96 O99 1.252 . S
C96 O100 1.260 . S
O97 In91 2.266 . S
O97 C94 1.252 . S
O98 In91 2.326 . S
O98 C94 1.260 . S
O99 In91 2.266 . S
O99 C96 1.252 . S
O100 In91 2.326 . S
O100 C96 1.260 . S
C101 O92 1.240 . S
C101 O93 1.252 . S
O102 In91 2.294 . S
O102 C95 1.240 . S
O103 In91 2.326 . S
O103 C95 1.252 . S
In104 O105 2.294 . S
In104 O106 2.326 . S
In104 O110 2.266 . S
In104 O111 2.326 . S
In104 O112 2.266 . S
In104 O113 2.326 . S
In104 O115 2.294 . S
In104 O116 2.326 . S
O105 In104 2.294 . S
O105 C114 1.240 . S
O106 In104 2.326 . S
O106 C114 1.252 . S
C107 O110 1.252 . S
C107 O111 1.260 . S
C108 O115 1.240 . S
C108 O116 1.252 . S
C109 O112 1.252 . S
C109 O113 1.260 . S
O110 In104 2.266 . S
O110 C107 1.252 . S
O111 In104 2.326 . S
O111 C107 1.260 . S
O112 In104 2.266 . S
O112 C109 1.252 . S
O113 In104 2.326 . S
O113 C109 1.260 . S
C114 O105 1.240 . S
C114 O106 1.252 . S
O115 In104 2.294 . S
O115 C108 1.240 . S
O116 In104 2.326 . S
O116 C108 1.252 . S
In117 O118 2.294 . S
In117 O119 2.326 . S
In117 O123 2.266 . S
In117 O124 2.326 . S
In117 O125 2.266 . S
In117 O126 2.326 . S
In117 O128 2.294 . S
In117 O129 2.326 . S
O118 In117 2.294 . S
O118 C127 1.240 . S
O119 In117 2.326 . S
O119 C127 1.252 . S
C120 O123 1.252 . S
C120 O124 1.260 . S
C121 O128 1.240 . S
C121 O129 1.252 . S
C122 O125 1.252 . S
C122 O126 1.260 . S
O123 In117 2.266 . S
O123 C120 1.252 . S
O124 In117 2.326 . S
O124 C120 1.260 . S
O125 In117 2.266 . S
O125 C122 1.252 . S
O126 In117 2.326 . S
O126 C122 1.260 . S
C127 O118 1.240 . S
C127 O119 1.252 . S
O128 In117 2.294 . S
O128 C121 1.240 . S
O129 In117 2.326 . S
O129 C121 1.252 . S
In130 O131 2.294 . S
In130 O132 2.326 . S
In130 O136 2.266 . S
In130 O137 2.326 . S
In130 O138 2.266 . S
In130 O139 2.326 . S
In130 O141 2.294 . S
In130 O142 2.326 . S
O131 In130 2.294 . S
O131 C140 1.240 . S
O132 In130 2.326 . S
O132 C140 1.252 . S
C133 O136 1.252 . S
C133 O137 1.260 . S
C134 O141 1.240 . S
C134 O142 1.252 . S
C135 O138 1.252 . S
C135 O139 1.260 . S
O136 In130 2.266 . S
O136 C133 1.252 . S
O137 In130 2.326 . S
O137 C133 1.260 . S
O138 In130 2.266 . S
O138 C135 1.252 . S
O139 In130 2.326 . S
O139 C135 1.260 . S
C140 O131 1.240 . S
C140 O132 1.252 . S
O141 In130 2.294 . S
O141 C134 1.240 . S
O142 In130 2.326 . S
O142 C134 1.252 . S
In143 O144 2.294 . S
In143 O145 2.326 . S
In143 O149 2.266 . S
In143 O150 2.326 . S
In143 O151 2.266 . S
In143 O152 2.326 . S
In143 O154 2.294 . S
In143 O155 2.326 . S
O144 In143 2.294 . S
O144 C153 1.240 . S
O145 In143 2.326 . S
O145 C153 1.252 . S
C146 O149 1.252 . S
C146 O150 1.260 . S
C147 O154 1.240 . S
C147 O155 1.252 . S
C148 O151 1.252 . S
C148 O152 1.260 . S
O149 In143 2.266 . S
O149 C146 1.252 . S
O150 In143 2.326 . S
O150 C146 1.260 . S
O151 In143 2.266 . S
O151 C148 1.252 . S
O152 In143 2.326 . S
O152 C148 1.260 . S
C153 O144 1.240 . S
C153 O145 1.252 . S
O154 In143 2.294 . S
O154 C147 1.240 . S
O155 In143 2.326 . S
O155 C147 1.252 . S
In156 O157 2.294 . S
In156 O158 2.326 . S
In156 O162 2.266 . S
In156 O163 2.326 . S
In156 O164 2.266 . S
In156 O165 2.326 . S
In156 O167 2.294 . S
In156 O168 2.326 . S
O157 In156 2.294 . S
O157 C166 1.240 . S
O158 In156 2.326 . S
O158 C166 1.252 . S
C159 O162 1.252 . S
C159 O163 1.260 . S
C160 O167 1.240 . S
C160 O168 1.252 . S
C161 O164 1.252 . S
C161 O165 1.260 . S
O162 In156 2.266 . S
O162 C159 1.252 . S
O163 In156 2.326 . S
O163 C159 1.260 . S
O164 In156 2.266 . S
O164 C161 1.252 . S
O165 In156 2.326 . S
O165 C161 1.260 . S
C166 O157 1.240 . S
C166 O158 1.252 . S
O167 In156 2.294 . S
O167 C160 1.240 . S
O168 In156 2.326 . S
O168 C160 1.252 . S
In169 O170 2.294 . S
In169 O171 2.326 . S
In169 O175 2.266 . S
In169 O176 2.326 . S
In169 O177 2.266 . S
In169 O178 2.326 . S
In169 O180 2.294 . S
In169 O181 2.326 . S
O170 In169 2.294 . S
O170 C179 1.240 . S
O171 In169 2.326 . S
O171 C179 1.252 . S
C172 O175 1.252 . S
C172 O176 1.260 . S
C173 O180 1.240 . S
C173 O181 1.252 . S
C174 O177 1.252 . S
C174 O178 1.260 . S
O175 In169 2.266 . S
O175 C172 1.252 . S
O176 In169 2.326 . S
O176 C172 1.260 . S
O177 In169 2.266 . S
O177 C174 1.252 . S
O178 In169 2.326 . S
O178 C174 1.260 . S
C179 O170 1.240 . S
C179 O171 1.252 . S
O180 In169 2.294 . S
O180 C173 1.240 . S
O181 In169 2.326 . S
O181 C173 1.252 . S
In182 O183 2.294 . S
In182 O184 2.326 . S
In182 O188 2.266 . S
In182 O189 2.326 . S
In182 O190 2.266 . S
In182 O191 2.326 . S
In182 O193 2.294 . S
In182 O194 2.326 . S
O183 In182 2.294 . S
O183 C192 1.240 . S
O184 In182 2.326 . S
O184 C192 1.252 . S
C185 O188 1.252 . S
C185 O189 1.260 . S
C186 O193 1.240 . S
C186 O194 1.252 . S
C187 O190 1.252 . S
C187 O191 1.260 . S
O188 In182 2.266 . S
O188 C185 1.252 . S
O189 In182 2.326 . S
O189 C185 1.260 . S
O190 In182 2.266 . S
O190 C187 1.252 . S
O191 In182 2.326 . S
O191 C187 1.260 . S
C192 O183 1.240 . S
C192 O184 1.252 . S
O193 In182 2.294 . S
O193 C186 1.240 . S
O194 In182 2.326 . S
O194 C186 1.252 . S
In195 O196 2.294 . S
In195 O197 2.326 . S
In195 O201 2.266 . S
In195 O202 2.326 . S
In195 O203 2.266 . S
In195 O204 2.326 . S
In195 O206 2.294 . S
In195 O207 2.326 . S
O196 In195 2.294 . S
O196 C205 1.240 . S
O197 In195 2.326 . S
O197 C205 1.252 . S
C198 O201 1.252 . S
C198 O202 1.260 . S
C199 O206 1.240 . S
C199 O207 1.252 . S
C200 O203 1.252 . S
C200 O204 1.260 . S
O201 In195 2.266 . S
O201 C198 1.252 . S
O202 In195 2.326 . S
O202 C198 1.260 . S
O203 In195 2.266 . S
O203 C200 1.252 . S
O204 In195 2.326 . S
O204 C200 1.260 . S
C205 O196 1.240 . S
C205 O197 1.252 . S
O206 In195 2.294 . S
O206 C199 1.240 . S
O207 In195 2.326 . S
O207 C199 1.252 . S
C208 C209 1.391 . S
C208 C210 1.394 . S
C208 H224 0.931 . S
C209 C208 1.391 . S
C209 C213 1.376 . S
C210 C208 1.394 . S
C210 C211 1.369 . S
C210 C214 1.531 1_655 S
C211 C210 1.369 . S
C211 C212 1.410 1_565 S
C211 C219 1.503 1_665 S
C212 C211 1.410 1_545 S
C212 C213 1.392 1_545 S
C212 C215 1.511 . S
C213 C209 1.376 . S
C213 C212 1.392 1_565 S
C213 H225 0.929 1_565 S
C214 C210 1.531 1_455 S
C214 H226 0.960 . S
C214 H227 0.962 . S
C214 H228 0.960 . S
C215 C212 1.511 . S
C215 H229 0.961 . S
C215 H230 0.961 . S
C215 H231 0.961 . S
C216 C217 1.370 . S
C216 C218 1.363 . S
C216 H232 0.931 . S
C217 C216 1.370 . S
C217 C221 1.408 . S
C218 C216 1.363 . S
C218 C219 1.370 . S
C218 C222 1.524 . S
C219 C211 1.503 1_445 S
C219 C218 1.370 . S
C219 C220 1.403 . S
C220 C219 1.403 . S
C220 C221 1.404 . S
C220 C223 1.539 . S
C221 C217 1.408 . S
C221 C220 1.404 . S
C221 H233 0.930 . S
C222 C218 1.524 . S
C222 H234 0.956 1_545 S
C222 H235 0.961 1_455 S
C222 H236 0.961 . S
C223 C220 1.539 . S
C223 H237 0.958 1_545 S
C223 H238 0.961 . S
C223 H239 0.960 1_455 S
H224 C208 0.931 . S
H225 C213 0.929 1_545 S
H226 C214 0.960 . S
H227 C214 0.962 . S
H228 C214 0.960 . S
H229 C215 0.961 . S
H230 C215 0.961 . S
H231 C215 0.961 . S
H232 C216 0.931 . S
H233 C221 0.930 . S
H234 C222 0.956 1_565 S
H235 C222 0.961 1_655 S
H236 C222 0.961 . S
H237 C223 0.958 1_565 S
H238 C223 0.961 . S
H239 C223 0.960 1_655 S
C240 C241 1.391 . S
C240 C242 1.394 . S
C240 H256 0.931 . S
C241 C240 1.391 . S
C241 C245 1.376 . S
C242 C240 1.394 . S
C242 C243 1.369 . S
C242 C246 1.531 . S
C243 C242 1.369 . S
C243 C244 1.410 1_655 S
C243 C251 1.503 1_655 S
C244 C243 1.410 1_455 S
C244 C245 1.392 1_455 S
C244 C247 1.511 . S
C245 C241 1.376 . S
C245 C244 1.392 1_655 S
C245 H257 0.929 1_655 S
C246 C242 1.531 . S
C246 H258 0.960 . S
C246 H259 0.962 . S
C246 H260 0.960 . S
C247 C244 1.511 . S
C247 H261 0.961 . S
C247 H262 0.961 . S
C247 H263 0.961 . S
C248 C249 1.370 . S
C248 C250 1.363 1_455 S
C248 H264 0.931 1_455 S
C249 C248 1.370 . S
C249 C253 1.408 . S
C250 C248 1.363 1_655 S
C250 C251 1.370 1_655 S
C250 C254 1.524 . S
C251 C243 1.503 1_455 S
C251 C250 1.370 1_455 S
C251 C252 1.403 . S
C252 C251 1.403 . S
C252 C253 1.404 . S
C252 C255 1.539 . S
C253 C249 1.408 . S
C253 C252 1.404 . S
C253 H265 0.930 . S
C254 C250 1.524 . S
C254 H266 0.956 . S
C254 H267 0.961 . S
C254 H268 0.961 . S
C255 C252 1.539 . S
C255 H269 0.958 . S
C255 H270 0.961 . S
C255 H271 0.960 . S
H256 C240 0.931 . S
H257 C245 0.929 1_455 S
H258 C246 0.960 . S
H259 C246 0.962 . S
H260 C246 0.960 . S
H261 C247 0.961 . S
H262 C247 0.961 . S
H263 C247 0.961 . S
H264 C248 0.931 1_655 S
H265 C253 0.930 . S
H266 C254 0.956 . S
H267 C254 0.961 . S
H268 C254 0.961 . S
H269 C255 0.958 . S
H270 C255 0.961 . S
H271 C255 0.960 . S
C272 C273 1.391 . S
C272 C274 1.394 . S
C272 H288 0.931 . S
C273 C272 1.391 . S
C273 C277 1.376 . S
C274 C272 1.394 . S
C274 C275 1.369 . S
C274 C278 1.531 . S
C275 C274 1.369 . S
C275 C276 1.410 . S
C275 C283 1.503 . S
C276 C275 1.410 . S
C276 C277 1.392 . S
C276 C279 1.511 . S
C277 C273 1.376 . S
C277 C276 1.392 . S
C277 H289 0.929 . S
C278 C274 1.531 . S
C278 H290 0.960 . S
C278 H291 0.962 . S
C278 H292 0.960 . S
C279 C276 1.511 . S
C279 H293 0.961 . S
C279 H294 0.961 . S
C279 H295 0.961 . S
C280 C281 1.370 . S
C280 C282 1.363 . S
C280 H296 0.931 . S
C281 C280 1.370 . S
C281 C285 1.408 . S
C282 C280 1.363 . S
C282 C283 1.370 . S
C282 C286 1.524 . S
C283 C275 1.503 . S
C283 C282 1.370 . S
C283 C284 1.403 . S
C284 C283 1.403 . S
C284 C285 1.404 . S
C284 C287 1.539 . S
C285 C281 1.408 . S
C285 C284 1.404 . S
C285 H297 0.930 . S
C286 C282 1.524 . S
C286 H298 0.956 . S
C286 H299 0.961 . S
C286 H300 0.961 . S
C287 C284 1.539 . S
C287 H301 0.958 . S
C287 H302 0.961 . S
C287 H303 0.960 . S
H288 C272 0.931 . S
H289 C277 0.929 . S
H290 C278 0.960 . S
H291 C278 0.962 . S
H292 C278 0.960 . S
H293 C279 0.961 . S
H294 C279 0.961 . S
H295 C279 0.961 . S
H296 C280 0.931 . S
H297 C285 0.930 . S
H298 C286 0.956 . S
H299 C286 0.961 . S
H300 C286 0.961 . S
H301 C287 0.958 . S
H302 C287 0.961 . S
H303 C287 0.960 . S
C304 C305 1.391 . S
C304 C306 1.394 . S
C304 H320 0.931 . S
C305 C304 1.391 . S
C305 C309 1.376 . S
C306 C304 1.394 . S
C306 C307 1.369 . S
C306 C310 1.531 1_545 S
C307 C306 1.369 . S
C307 C308 1.410 . S
C307 C315 1.503 1_545 S
C308 C307 1.410 . S
C308 C309 1.392 . S
C308 C311 1.511 . S
C309 C305 1.376 . S
C309 C308 1.392 . S
C309 H321 0.929 . S
C310 C306 1.531 1_565 S
C310 H322 0.960 . S
C310 H323 0.962 . S
C310 H324 0.960 . S
C311 C308 1.511 . S
C311 H325 0.961 . S
C311 H326 0.961 . S
C311 H327 0.961 . S
C312 C313 1.370 . S
C312 C314 1.363 . S
C312 H328 0.931 . S
C313 C312 1.370 . S
C313 C317 1.408 . S
C314 C312 1.363 . S
C314 C315 1.370 . S
C314 C318 1.524 . S
C315 C307 1.503 1_565 S
C315 C314 1.370 . S
C315 C316 1.403 . S
C316 C315 1.403 . S
C316 C317 1.404 . S
C316 C319 1.539 . S
C317 C313 1.408 . S
C317 C316 1.404 . S
C317 H329 0.930 . S
C318 C314 1.524 . S
C318 H330 0.956 . S
C318 H331 0.961 1_565 S
C318 H332 0.961 . S
C319 C316 1.539 . S
C319 H333 0.958 . S
C319 H334 0.961 . S
C319 H335 0.939 1_565 S
H320 C304 0.931 . S
H321 C309 0.929 . S
H322 C310 0.960 . S
H323 C310 0.962 . S
H324 C310 0.960 . S
H325 C311 0.961 . S
H326 C311 0.961 . S
H327 C311 0.961 . S
H328 C312 0.931 . S
H329 C317 0.930 . S
H330 C318 0.956 . S
H331 C318 0.961 1_545 S
H332 C318 0.961 . S
H333 C319 0.958 . S
H334 C319 0.961 . S
H335 C319 0.939 1_545 S
C336 C337 1.391 . S
C336 C338 1.394 . S
C336 H352 0.931 . S
C337 C336 1.391 . S
C337 C341 1.376 . S
C338 C336 1.394 . S
C338 C339 1.369 . S
C338 C342 1.531 1_455 S
C339 C338 1.369 . S
C339 C340 1.410 . S
C339 C347 1.503 1_455 S
C340 C339 1.410 . S
C340 C341 1.392 . S
C340 C343 1.511 . S
C341 C337 1.376 . S
C341 C340 1.392 . S
C341 H353 0.929 . S
C342 C338 1.531 1_655 S
C342 H354 0.960 . S
C342 H355 0.962 . S
C342 H356 0.958 1_655 S
C343 C340 1.511 . S
C343 H357 0.961 . S
C343 H358 0.961 . S
C343 H359 0.961 . S
C344 C345 1.370 . S
C344 C346 1.363 . S
C344 H360 0.931 . S
C345 C344 1.370 . S
C345 C349 1.408 . S
C346 C344 1.363 . S
C346 C347 1.370 . S
C346 C350 1.524 . S
C347 C339 1.503 1_655 S
C347 C346 1.370 . S
C347 C348 1.403 . S
C348 C347 1.403 . S
C348 C349 1.404 . S
C348 C351 1.539 . S
C349 C345 1.408 . S
C349 C348 1.404 . S
C349 H361 0.930 . S
C350 C346 1.524 . S
C350 H362 0.956 . S
C350 H363 0.961 1_655 S
C350 H364 0.961 . S
C351 C348 1.539 . S
C351 H365 0.958 . S
C351 H366 0.961 . S
C351 H367 0.960 1_655 S
H352 C336 0.931 . S
H353 C341 0.929 . S
H354 C342 0.960 . S
H355 C342 0.962 . S
H356 C342 0.958 1_455 S
H357 C343 0.961 . S
H358 C343 0.961 . S
H359 C343 0.961 . S
H360 C344 0.931 . S
H361 C349 0.930 . S
H362 C350 0.956 . S
H363 C350 0.961 1_455 S
H364 C350 0.961 . S
H365 C351 0.958 . S
H366 C351 0.961 . S
H367 C351 0.960 1_455 S
C368 C369 1.391 . S
C368 C370 1.394 . S
C368 H384 0.931 . S
C369 C368 1.391 . S
C369 C373 1.376 . S
C370 C368 1.394 . S
C370 C371 1.369 . S
C370 C374 1.531 . S
C371 C370 1.369 . S
C371 C372 1.410 . S
C371 C379 1.503 . S
C372 C371 1.410 . S
C372 C373 1.392 . S
C372 C375 1.511 . S
C373 C369 1.376 . S
C373 C372 1.392 . S
C373 H385 0.929 . S
C374 C370 1.531 . S
C374 H386 0.960 . S
C374 H387 0.962 . S
C374 H388 0.960 . S
C375 C372 1.511 . S
C375 H389 0.961 . S
C375 H390 0.961 . S
C375 H391 0.961 . S
C376 C377 1.370 . S
C376 C378 1.363 . S
C376 H392 0.931 . S
C377 C376 1.370 . S
C377 C381 1.408 . S
C378 C376 1.363 . S
C378 C379 1.370 . S
C378 C382 1.524 . S
C379 C371 1.503 . S
C379 C378 1.370 . S
C379 C380 1.403 . S
C380 C379 1.403 . S
C380 C381 1.404 . S
C380 C383 1.539 . S
C381 C377 1.408 . S
C381 C380 1.404 . S
C381 H393 0.930 . S
C382 C378 1.524 . S
C382 H394 0.956 . S
C382 H395 0.961 . S
C382 H396 0.961 . S
C383 C380 1.539 . S
C383 H397 0.958 . S
C383 H398 0.961 . S
C383 H399 0.960 . S
H384 C368 0.931 . S
H385 C373 0.929 . S
H386 C374 0.960 . S
H387 C374 0.962 . S
H388 C374 0.960 . S
H389 C375 0.961 . S
H390 C375 0.961 . S
H391 C375 0.961 . S
H392 C376 0.931 . S
H393 C381 0.930 . S
H394 C382 0.956 . S
H395 C382 0.961 . S
H396 C382 0.961 . S
H397 C383 0.958 . S
H398 C383 0.961 . S
H399 C383 0.960 . S
C400 C401 1.391 . S
C400 C402 1.394 . S
C400 H416 0.931 . S
C401 C400 1.391 . S
C401 C405 1.376 . S
C402 C400 1.394 . S
C402 C403 1.369 . S
C402 C406 1.531 1_545 S
C403 C402 1.369 . S
C403 C404 1.410 . S
C403 C411 1.503 1_545 S
C404 C403 1.410 . S
C404 C405 1.392 . S
C404 C407 1.511 . S
C405 C401 1.376 . S
C405 C404 1.392 . S
C405 H417 0.929 . S
C406 C402 1.531 1_565 S
C406 H418 0.960 . S
C406 H419 0.962 . S
C406 H420 0.960 1_565 S
C407 C404 1.511 . S
C407 H421 0.961 . S
C407 H422 0.961 . S
C407 H423 0.961 . S
C408 C409 1.370 . S
C408 C410 1.363 . S
C408 H424 0.931 . S
C409 C408 1.370 . S
C409 C413 1.408 . S
C410 C408 1.363 . S
C410 C411 1.370 . S
C410 C414 1.524 . S
C411 C403 1.503 1_565 S
C411 C410 1.370 . S
C411 C412 1.403 1_565 S
C412 C411 1.403 1_545 S
C412 C413 1.404 1_545 S
C412 C415 1.539 . S
C413 C409 1.408 . S
C413 C412 1.404 1_565 S
C413 H425 0.930 1_565 S
C414 C410 1.524 . S
C414 H426 0.956 . S
C414 H427 0.961 . S
C414 H428 0.961 . S
C415 C412 1.539 . S
C415 H429 0.958 . S
C415 H430 0.961 . S
C415 H431 0.960 . S
H416 C400 0.931 . S
H417 C405 0.929 . S
H418 C406 0.960 . S
H419 C406 0.962 . S
H420 C406 0.960 1_545 S
H421 C407 0.961 . S
H422 C407 0.961 . S
H423 C407 0.961 . S
H424 C408 0.931 . S
H425 C413 0.930 1_545 S
H426 C414 0.956 . S
H427 C414 0.961 . S
H428 C414 0.961 . S
H429 C415 0.958 . S
H430 C415 0.961 . S
H431 C415 0.960 . S
C432 C433 1.391 . S
C432 C434 1.394 1_455 S
C432 H448 0.931 1_455 S
C433 C432 1.391 . S
C433 C437 1.376 . S
C434 C432 1.394 1_655 S
C434 C435 1.369 1_655 S
C434 C438 1.531 . S
C435 C434 1.369 1_455 S
C435 C436 1.410 . S
C435 C443 1.503 1_445 S
C436 C435 1.410 . S
C436 C437 1.392 . S
C436 C439 1.511 . S
C437 C433 1.376 . S
C437 C436 1.392 . S
C437 H449 0.929 . S
C438 C434 1.531 . S
C438 H450 0.960 . S
C438 H451 0.962 . S
C438 H452 0.960 . S
C439 C436 1.511 . S
C439 H453 0.961 . S
C439 H454 0.961 1_545 S
C439 H455 0.961 . S
C440 C441 1.370 . S
C440 C442 1.363 1_655 S
C440 H456 0.931 . S
C441 C440 1.370 . S
C441 C445 1.408 . S
C442 C440 1.363 1_455 S
C442 C443 1.370 1_455 S
C442 C446 1.524 . S
C443 C435 1.503 1_665 S
C443 C442 1.370 1_655 S
C443 C444 1.403 . S
C444 C443 1.403 . S
C444 C445 1.404 . S
C444 C447 1.544 . S
C445 C441 1.408 . S
C445 C444 1.404 . S
C445 H457 0.930 . S
C446 C442 1.524 . S
C446 H458 0.956 . S
C446 H459 0.961 . S
C446 H460 0.961 . S
C447 C444 1.544 . S
C447 H461 0.955 1_565 S
C447 H462 0.965 . S
C447 H463 0.955 1_565 S
H448 C432 0.931 1_655 S
H449 C437 0.929 . S
H450 C438 0.960 . S
H451 C438 0.962 . S
H452 C438 0.960 . S
H453 C439 0.961 . S
H454 C439 0.961 1_565 S
H455 C439 0.961 . S
H456 C440 0.931 . S
H457 C445 0.930 . S
H458 C446 0.956 . S
H459 C446 0.961 . S
H460 C446 0.961 . S
H461 C447 0.955 1_545 S
H462 C447 0.965 . S
H463 C447 0.955 1_545 S
C464 C465 1.391 . S
C464 C466 1.394 . S
C464 H480 0.931 . S
C465 C464 1.391 . S
C465 C469 1.376 . S
C466 C464 1.394 . S
C466 C467 1.369 . S
C466 C470 1.531 . S
C467 C466 1.369 . S
C467 C468 1.410 1_565 S
C467 C475 1.503 1_565 S
C468 C467 1.410 1_545 S
C468 C469 1.392 1_545 S
C468 C471 1.511 . S
C469 C465 1.376 . S
C469 C468 1.392 1_565 S
C469 H481 0.929 1_565 S
C470 C466 1.531 . S
C470 H482 0.960 . S
C470 H483 0.962 . S
C470 H484 0.960 . S
C471 C468 1.511 . S
C471 H485 0.961 . S
C471 H486 0.961 . S
C471 H487 0.961 . S
C472 C473 1.370 . S
C472 C474 1.365 . S
C472 H488 0.931 . S
C473 C472 1.370 . S
C473 C477 1.408 . S
C474 C472 1.365 . S
C474 C475 1.372 . S
C474 C478 1.521 1_545 S
C475 C467 1.503 1_545 S
C475 C474 1.372 . S
C475 C476 1.403 . S
C476 C475 1.403 . S
C476 C477 1.404 . S
C476 C479 1.539 . S
C477 C473 1.408 . S
C477 C476 1.404 . S
C477 H489 0.930 . S
C478 C474 1.521 1_565 S
C478 H490 0.956 . S
C478 H491 0.961 . S
C478 H492 0.961 . S
C479 C476 1.539 . S
C479 H493 0.958 . S
C479 H494 0.961 . S
C479 H495 0.960 . S
H480 C464 0.931 . S
H481 C469 0.929 1_545 S
H482 C470 0.960 . S
H483 C470 0.962 . S
H484 C470 0.960 . S
H485 C471 0.961 . S
H486 C471 0.961 . S
H487 C471 0.961 . S
H488 C472 0.931 . S
H489 C477 0.930 . S
H490 C478 0.956 . S
H491 C478 0.961 . S
H492 C478 0.961 . S
H493 C479 0.958 . S
H494 C479 0.961 . S
H495 C479 0.960 . S
C496 C497 1.391 . S
C496 C498 1.394 . S
C496 H512 0.931 . S
C497 C496 1.391 . S
C497 C501 1.376 . S
C498 C496 1.394 . S
C498 C499 1.369 . S
C498 C502 1.531 1_565 S
C499 C498 1.369 . S
C499 C500 1.410 1_655 S
C499 C507 1.503 1_665 S
C500 C499 1.410 1_455 S
C500 C501 1.392 1_455 S
C500 C503 1.511 . S
C501 C497 1.376 . S
C501 C500 1.392 1_655 S
C501 H513 0.929 1_655 S
C502 C498 1.531 1_545 S
C502 H514 0.960 . S
C502 H515 0.962 . S
C502 H516 0.960 1_545 S
C503 C500 1.511 . S
C503 H517 0.961 . S
C503 H518 0.961 . S
C503 H519 0.961 . S
C504 C505 1.370 . S
C504 C506 1.363 1_455 S
C504 H520 0.931 . S
C505 C504 1.370 . S
C505 C509 1.408 . S
C506 C504 1.363 1_655 S
C506 C507 1.370 1_655 S
C506 C510 1.524 . S
C507 C499 1.503 1_445 S
C507 C506 1.370 1_455 S
C507 C508 1.403 . S
C508 C507 1.403 . S
C508 C509 1.404 . S
C508 C511 1.539 . S
C509 C505 1.408 . S
C509 C508 1.404 . S
C509 H521 0.930 . S
C510 C506 1.524 . S
C510 H522 0.956 . S
C510 H523 0.961 . S
C510 H524 0.961 . S
C511 C508 1.539 . S
C511 H525 0.958 . S
C511 H526 0.961 . S
C511 H527 0.960 1_545 S
H512 C496 0.931 . S
H513 C501 0.929 1_455 S
H514 C502 0.960 . S
H515 C502 0.962 . S
H516 C502 0.960 1_565 S
H517 C503 0.961 . S
H518 C503 0.961 . S
H519 C503 0.961 . S
H520 C504 0.931 . S
H521 C509 0.930 . S
H522 C510 0.956 . S
H523 C510 0.961 . S
H524 C510 0.961 . S
H525 C511 0.958 . S
H526 C511 0.961 . S
H527 C511 0.960 1_565 S
C528 C529 1.391 . S
C528 C530 1.394 . S
C528 H544 0.931 . S
C529 C528 1.391 . S
C529 C533 1.376 . S
C530 C528 1.394 . S
C530 C531 1.369 . S
C530 C534 1.531 1_455 S
C531 C530 1.369 . S
C531 C532 1.410 . S
C531 C539 1.503 1_455 S
C532 C531 1.410 . S
C532 C533 1.392 . S
C532 C535 1.511 . S
C533 C529 1.376 . S
C533 C532 1.392 . S
C533 H545 0.929 . S
C534 C530 1.531 1_655 S
C534 H546 0.960 . S
C534 H547 0.962 . S
C534 H548 0.960 . S
C535 C532 1.511 . S
C535 H549 0.961 . S
C535 H550 0.961 . S
C535 H551 0.961 . S
C536 C537 1.370 . S
C536 C538 1.363 . S
C536 H552 0.931 . S
C537 C536 1.370 . S
C537 C541 1.408 . S
C538 C536 1.363 . S
C538 C539 1.370 . S
C538 C542 1.524 . S
C539 C531 1.503 1_655 S
C539 C538 1.370 . S
C539 C540 1.403 . S
C540 C539 1.403 . S
C540 C541 1.404 . S
C540 C543 1.539 . S
C541 C537 1.408 . S
C541 C540 1.404 . S
C541 H553 0.930 . S
C542 C538 1.524 . S
C542 H554 0.956 . S
C542 H555 0.961 1_655 S
C542 H556 0.961 . S
C543 C540 1.539 . S
C543 H557 0.958 . S
C543 H558 0.961 . S
C543 H559 0.960 . S
H544 C528 0.931 . S
H545 C533 0.929 . S
H546 C534 0.960 . S
H547 C534 0.962 . S
H548 C534 0.960 . S
H549 C535 0.961 . S
H550 C535 0.961 . S
H551 C535 0.961 . S
H552 C536 0.931 . S
H553 C541 0.930 . S
H554 C542 0.956 . S
H555 C542 0.961 1_455 S
H556 C542 0.961 . S
H557 C543 0.958 . S
H558 C543 0.961 . S
H559 C543 0.960 . S
C560 C561 1.391 . S
C560 C562 1.394 . S
C560 H576 0.931 . S
C561 C560 1.391 . S
C561 C565 1.376 . S
C562 C560 1.394 . S
C562 C563 1.369 . S
C562 C566 1.531 . S
C563 C562 1.369 . S
C563 C564 1.410 . S
C563 C571 1.503 . S
C564 C563 1.410 . S
C564 C565 1.392 . S
C564 C567 1.511 . S
C565 C561 1.376 . S
C565 C564 1.392 . S
C565 H577 0.929 . S
C566 C562 1.531 . S
C566 H578 0.960 . S
C566 H579 0.962 . S
C566 H580 0.960 . S
C567 C564 1.511 . S
C567 H581 0.961 . S
C567 H582 0.961 . S
C567 H583 0.961 . S
C568 C569 1.370 . S
C568 C570 1.363 . S
C568 H584 0.931 . S
C569 C568 1.370 . S
C569 C573 1.408 . S
C570 C568 1.363 . S
C570 C571 1.370 . S
C570 C574 1.524 . S
C571 C563 1.503 . S
C571 C570 1.370 . S
C571 C572 1.403 . S
C572 C571 1.403 . S
C572 C573 1.404 . S
C572 C575 1.539 . S
C573 C569 1.408 . S
C573 C572 1.404 . S
C573 H585 0.930 . S
C574 C570 1.524 . S
C574 H586 0.956 . S
C574 H587 0.961 . S
C574 H588 0.961 . S
C575 C572 1.539 . S
C575 H589 0.958 . S
C575 H590 0.961 . S
C575 H591 0.960 . S
H576 C560 0.931 . S
H577 C565 0.929 . S
H578 C566 0.960 . S
H579 C566 0.962 . S
H580 C566 0.960 . S
H581 C567 0.961 . S
H582 C567 0.961 . S
H583 C567 0.961 . S
H584 C568 0.931 . S
H585 C573 0.930 . S
H586 C574 0.956 . S
H587 C574 0.961 . S
H588 C574 0.961 . S
H589 C575 0.958 . S
H590 C575 0.961 . S
H591 C575 0.960 . S
C592 C593 1.391 . S
C592 C594 1.394 . S
C592 H608 0.931 . S
C593 C592 1.391 . S
C593 C597 1.376 . S
C594 C592 1.394 . S
C594 C595 1.369 . S
C594 C598 1.531 . S
C595 C594 1.369 . S
C595 C596 1.410 . S
C595 C603 1.503 . S
C596 C595 1.410 . S
C596 C597 1.392 . S
C596 C599 1.511 . S
C597 C593 1.376 . S
C597 C596 1.392 . S
C597 H609 0.929 . S
C598 C594 1.531 . S
C598 H610 0.960 . S
C598 H611 0.962 . S
C598 H612 0.960 . S
C599 C596 1.511 . S
C599 H613 0.961 . S
C599 H614 0.961 . S
C599 H615 0.961 . S
C600 C601 1.370 . S
C600 C602 1.363 . S
C600 H616 0.931 . S
C601 C600 1.370 . S
C601 C605 1.408 . S
C602 C600 1.363 . S
C602 C603 1.370 . S
C602 C606 1.524 . S
C603 C595 1.503 . S
C603 C602 1.370 . S
C603 C604 1.403 . S
C604 C603 1.403 . S
C604 C605 1.404 . S
C604 C607 1.539 . S
C605 C601 1.408 . S
C605 C604 1.404 . S
C605 H617 0.930 . S
C606 C602 1.524 . S
C606 H618 0.956 . S
C606 H619 0.961 . S
C606 H620 0.961 . S
C607 C604 1.539 . S
C607 H621 0.958 . S
C607 H622 0.961 . S
C607 H623 0.960 . S
H608 C592 0.931 . S
H609 C597 0.929 . S
H610 C598 0.960 . S
H611 C598 0.962 . S
H612 C598 0.960 . S
H613 C599 0.961 . S
H614 C599 0.961 . S
H615 C599 0.961 . S
H616 C600 0.931 . S
H617 C605 0.930 . S
H618 C606 0.956 . S
H619 C606 0.961 . S
H620 C606 0.961 . S
H621 C607 0.958 . S
H622 C607 0.961 . S
H623 C607 0.960 . S
C624 C625 1.391 . S
C624 C626 1.394 . S
C624 H640 0.931 . S
C625 C624 1.391 . S
C625 C629 1.376 . S
C626 C624 1.394 . S
C626 C627 1.369 . S
C626 C630 1.531 . S
C627 C626 1.369 . S
C627 C628 1.410 . S
C627 C635 1.503 1_565 S
C628 C627 1.410 . S
C628 C629 1.392 . S
C628 C631 1.511 . S
C629 C625 1.376 . S
C629 C628 1.392 . S
C629 H641 0.929 . S
C630 C626 1.531 . S
C630 H642 0.960 1_565 S
C630 H643 0.962 . S
C630 H644 0.960 . S
C631 C628 1.511 . S
C631 H645 0.961 . S
C631 H646 0.961 1_565 S
C631 H647 0.961 1_565 S
C632 C633 1.370 . S
C632 C634 1.363 . S
C632 H648 0.931 . S
C633 C632 1.370 . S
C633 C637 1.408 . S
C634 C632 1.363 . S
C634 C635 1.370 . S
C634 C638 1.524 1_545 S
C635 C627 1.503 1_545 S
C635 C634 1.370 . S
C635 C636 1.403 . S
C636 C635 1.403 . S
C636 C637 1.404 . S
C636 C639 1.539 . S
C637 C633 1.408 . S
C637 C636 1.404 . S
C637 H649 0.930 . S
C638 C634 1.524 1_565 S
C638 H650 0.956 . S
C638 H651 0.961 . S
C638 H652 0.961 . S
C639 C636 1.539 . S
C639 H653 0.958 . S
C639 H654 0.961 . S
C639 H655 0.960 . S
H640 C624 0.931 . S
H641 C629 0.929 . S
H642 C630 0.960 1_545 S
H643 C630 0.962 . S
H644 C630 0.960 . S
H645 C631 0.961 . S
H646 C631 0.961 1_545 S
H647 C631 0.961 1_545 S
H648 C632 0.931 . S
H649 C637 0.930 . S
H650 C638 0.956 . S
H651 C638 0.961 . S
H652 C638 0.961 . S
H653 C639 0.958 . S
H654 C639 0.961 . S
H655 C639 0.960 . S
C656 C657 1.391 . S
C656 C658 1.394 . S
C656 H672 0.931 . S
C657 C656 1.391 . S
C657 C661 1.373 1_565 S
C658 C656 1.394 . S
C658 C659 1.369 . S
C658 C662 1.531 1_655 S
C659 C658 1.369 . S
C659 C660 1.410 1_565 S
C659 C667 1.503 1_665 S
C660 C659 1.410 1_545 S
C660 C661 1.394 . S
C660 C663 1.511 . S
C661 C657 1.373 1_545 S
C661 C660 1.394 . S
C661 H673 0.931 . S
C662 C658 1.531 1_455 S
C662 H674 0.960 . S
C662 H675 0.962 . S
C662 H676 0.962 . S
C663 C660 1.511 . S
C663 H677 0.961 . S
C663 H678 0.961 . S
C663 H679 0.961 . S
C664 C665 1.370 . S
C664 C666 1.363 . S
C664 H680 0.931 . S
C665 C664 1.370 . S
C665 C669 1.408 . S
C666 C664 1.363 . S
C666 C667 1.370 . S
C666 C670 1.524 1_545 S
C667 C659 1.503 1_445 S
C667 C666 1.370 . S
C667 C668 1.403 . S
C668 C667 1.403 . S
C668 C669 1.404 . S
C668 C671 1.539 . S
C669 C665 1.408 . S
C669 C668 1.404 . S
C669 H681 0.930 . S
C670 C666 1.524 1_565 S
C670 H682 0.956 . S
C670 H683 0.961 1_465 S
C670 H684 0.965 . S
C671 C668 1.539 . S
C671 H685 0.958 . S
C671 H686 0.961 . S
C671 H687 0.960 1_455 S
H672 C656 0.931 . S
H673 C661 0.931 . S
H674 C662 0.960 . S
H675 C662 0.962 . S
H676 C662 0.962 . S
H677 C663 0.961 . S
H678 C663 0.961 . S
H679 C663 0.961 . S
H680 C664 0.931 . S
H681 C669 0.930 . S
H682 C670 0.956 . S
H683 C670 0.961 1_645 S
H684 C670 0.965 . S
H685 C671 0.958 . S
H686 C671 0.961 . S
H687 C671 0.960 1_655 S
C688 C689 1.391 . S
C688 C690 1.394 . S
C688 H704 0.931 . S
C689 C688 1.391 . S
C689 C693 1.376 . S
C690 C688 1.394 . S
C690 C691 1.369 . S
C690 C694 1.531 . S
C691 C690 1.369 . S
C691 C692 1.410 1_455 S
C691 C699 1.503 1_455 S
C692 C691 1.410 1_655 S
C692 C693 1.392 1_655 S
C692 C695 1.511 . S
C693 C689 1.376 . S
C693 C692 1.392 1_455 S
C693 H705 0.929 1_455 S
C694 C690 1.531 . S
C694 H706 0.960 . S
C694 H707 0.962 . S
C694 H708 0.960 . S
C695 C692 1.511 . S
C695 H709 0.961 . S
C695 H710 0.961 . S
C695 H711 0.961 . S
C696 C697 1.370 . S
C696 C698 1.371 . S
C696 H712 0.931 . S
C697 C696 1.370 . S
C697 C701 1.408 . S
C698 C696 1.371 . S
C698 C699 1.377 . S
C698 C702 1.510 1_655 S
C699 C691 1.503 1_655 S
C699 C698 1.377 . S
C699 C700 1.403 . S
C700 C699 1.403 . S
C700 C701 1.404 . S
C700 C703 1.539 . S
C701 C697 1.408 . S
C701 C700 1.404 . S
C701 H713 0.930 . S
C702 C698 1.510 1_455 S
C702 H714 0.956 . S
C702 H715 0.961 . S
C702 H716 0.961 . S
C703 C700 1.539 . S
C703 H717 0.958 . S
C703 H718 0.961 . S
C703 H719 0.960 . S
H704 C688 0.931 . S
H705 C693 0.929 1_655 S
H706 C694 0.960 . S
H707 C694 0.962 . S
H708 C694 0.960 . S
H709 C695 0.961 . S
H710 C695 0.961 . S
H711 C695 0.961 . S
H712 C696 0.931 . S
H713 C701 0.930 . S
H714 C702 0.956 . S
H715 C702 0.961 . S
H716 C702 0.961 . S
H717 C703 0.958 . S
H718 C703 0.961 . S
H719 C703 0.960 . S
C720 C721 1.391 . S
C720 C722 1.394 . S
C720 H736 0.931 . S
C721 C720 1.391 . S
C721 C725 1.376 . S
C722 C720 1.394 . S
C722 C723 1.369 . S
C722 C726 1.531 . S
C723 C722 1.369 . S
C723 C724 1.410 . S
C723 C731 1.503 . S
C724 C723 1.410 . S
C724 C725 1.392 . S
C724 C727 1.511 . S
C725 C721 1.376 . S
C725 C724 1.392 . S
C725 H737 0.929 . S
C726 C722 1.531 . S
C726 H738 0.960 . S
C726 H739 0.962 . S
C726 H740 0.960 . S
C727 C724 1.511 . S
C727 H741 0.961 . S
C727 H742 0.961 . S
C727 H743 0.961 . S
C728 C729 1.370 . S
C728 C730 1.363 . S
C728 H744 0.931 . S
C729 C728 1.370 . S
C729 C733 1.408 . S
C730 C728 1.363 . S
C730 C731 1.370 . S
C730 C734 1.524 . S
C731 C723 1.503 . S
C731 C730 1.370 . S
C731 C732 1.403 . S
C732 C731 1.403 . S
C732 C733 1.404 . S
C732 C735 1.539 . S
C733 C729 1.408 . S
C733 C732 1.404 . S
C733 H745 0.930 . S
C734 C730 1.524 . S
C734 H746 0.956 . S
C734 H747 0.961 . S
C734 H748 0.961 . S
C735 C732 1.539 . S
C735 H749 0.958 . S
C735 H750 0.961 . S
C735 H751 0.960 . S
H736 C720 0.931 . S
H737 C725 0.929 . S
H738 C726 0.960 . S
H739 C726 0.962 . S
H740 C726 0.960 . S
H741 C727 0.961 . S
H742 C727 0.961 . S
H743 C727 0.961 . S
H744 C728 0.931 . S
H745 C733 0.930 . S
H746 C734 0.956 . S
H747 C734 0.961 . S
H748 C734 0.961 . S
H749 C735 0.958 . S
H750 C735 0.961 . S
H751 C735 0.960 . S
C752 C753 1.391 . S
C752 C754 1.394 . S
C752 H768 0.931 . S
C753 C752 1.391 . S
C753 C757 1.376 . S
C754 C752 1.394 . S
C754 C755 1.369 . S
C754 C758 1.531 . S
C755 C754 1.369 . S
C755 C756 1.410 . S
C755 C763 1.503 . S
C756 C755 1.410 . S
C756 C757 1.392 . S
C756 C759 1.511 . S
C757 C753 1.376 . S
C757 C756 1.392 . S
C757 H769 0.929 . S
C758 C754 1.531 . S
C758 H770 0.960 . S
C758 H771 0.962 . S
C758 H772 0.960 . S
C759 C756 1.511 . S
C759 H773 0.961 . S
C759 H774 0.961 . S
C759 H775 0.961 . S
C760 C761 1.370 . S
C760 C762 1.363 . S
C760 H776 0.931 . S
C761 C760 1.370 . S
C761 C765 1.408 . S
C762 C760 1.363 . S
C762 C763 1.370 . S
C762 C766 1.524 . S
C763 C755 1.503 . S
C763 C762 1.370 . S
C763 C764 1.403 . S
C764 C763 1.403 . S
C764 C765 1.404 . S
C764 C767 1.539 . S
C765 C761 1.408 . S
C765 C764 1.404 . S
C765 H777 0.930 . S
C766 C762 1.524 . S
C766 H778 0.956 . S
C766 H779 0.961 . S
C766 H780 0.961 . S
C767 C764 1.539 . S
C767 H781 0.958 . S
C767 H782 0.961 . S
C767 H783 0.960 . S
H768 C752 0.931 . S
H769 C757 0.929 . S
H770 C758 0.960 . S
H771 C758 0.962 . S
H772 C758 0.960 . S
H773 C759 0.961 . S
H774 C759 0.961 . S
H775 C759 0.961 . S
H776 C760 0.931 . S
H777 C765 0.930 . S
H778 C766 0.956 . S
H779 C766 0.961 . S
H780 C766 0.961 . S
H781 C767 0.958 . S
H782 C767 0.961 . S
H783 C767 0.960 . S
C784 C785 1.391 . S
C784 C786 1.394 . S
C784 H800 0.931 . S
C785 C784 1.391 . S
C785 C789 1.376 . S
C786 C784 1.394 . S
C786 C787 1.369 . S
C786 C790 1.531 . S
C787 C786 1.369 . S
C787 C788 1.410 . S
C787 C795 1.503 . S
C788 C787 1.410 . S
C788 C789 1.392 . S
C788 C791 1.511 . S
C789 C785 1.376 . S
C789 C788 1.392 . S
C789 H801 0.929 . S
C790 C786 1.531 . S
C790 H802 0.960 . S
C790 H803 0.962 . S
C790 H804 0.960 . S
C791 C788 1.511 . S
C791 H805 0.961 . S
C791 H806 0.961 . S
C791 H807 0.961 . S
C792 C793 1.370 . S
C792 C794 1.363 . S
C792 H808 0.931 . S
C793 C792 1.370 . S
C793 C797 1.408 . S
C794 C792 1.363 . S
C794 C795 1.370 . S
C794 C798 1.524 . S
C795 C787 1.503 . S
C795 C794 1.370 . S
C795 C796 1.403 . S
C796 C795 1.403 . S
C796 C797 1.404 . S
C796 C799 1.539 . S
C797 C793 1.408 . S
C797 C796 1.404 . S
C797 H809 0.930 . S
C798 C794 1.524 . S
C798 H810 0.956 . S
C798 H811 0.961 . S
C798 H812 0.961 . S
C799 C796 1.539 . S
C799 H813 0.958 . S
C799 H814 0.961 . S
C799 H815 0.960 . S
H800 C784 0.931 . S
H801 C789 0.929 . S
H802 C790 0.960 . S
H803 C790 0.962 . S
H804 C790 0.960 . S
H805 C791 0.961 . S
H806 C791 0.961 . S
H807 C791 0.961 . S
H808 C792 0.931 . S
H809 C797 0.930 . S
H810 C798 0.956 . S
H811 C798 0.961 . S
H812 C798 0.961 . S
H813 C799 0.958 . S
H814 C799 0.961 . S
H815 C799 0.960 . S
C816 C817 1.391 . S
C816 C818 1.394 . S
C816 H832 0.931 . S
C817 C816 1.391 . S
C817 C821 1.376 . S
C818 C816 1.394 . S
C818 C819 1.369 . S
C818 C822 1.531 . S
C819 C818 1.369 . S
C819 C820 1.410 . S
C819 C827 1.503 . S
C820 C819 1.410 . S
C820 C821 1.392 . S
C820 C823 1.511 . S
C821 C817 1.376 . S
C821 C820 1.392 . S
C821 H833 0.929 . S
C822 C818 1.531 . S
C822 H834 0.960 . S
C822 H835 0.962 . S
C822 H836 0.960 . S
C823 C820 1.511 . S
C823 H837 0.961 . S
C823 H838 0.961 . S
C823 H839 0.961 . S
C824 C825 1.370 . S
C824 C826 1.363 . S
C824 H840 0.931 . S
C825 C824 1.370 . S
C825 C829 1.408 . S
C826 C824 1.363 . S
C826 C827 1.370 . S
C826 C830 1.524 . S
C827 C819 1.503 . S
C827 C826 1.370 . S
C827 C828 1.403 . S
C828 C827 1.403 . S
C828 C829 1.404 . S
C828 C831 1.539 . S
C829 C825 1.408 . S
C829 C828 1.404 . S
C829 H841 0.930 . S
C830 C826 1.524 . S
C830 H842 0.956 . S
C830 H843 0.961 . S
C830 H844 0.961 . S
C831 C828 1.539 . S
C831 H845 0.958 . S
C831 H846 0.961 . S
C831 H847 0.960 . S
H832 C816 0.931 . S
H833 C821 0.929 . S
H834 C822 0.960 . S
H835 C822 0.962 . S
H836 C822 0.960 . S
H837 C823 0.961 . S
H838 C823 0.961 . S
H839 C823 0.961 . S
H840 C824 0.931 . S
H841 C829 0.930 . S
H842 C830 0.956 . S
H843 C830 0.961 . S
H844 C830 0.961 . S
H845 C831 0.958 . S
H846 C831 0.961 . S
H847 C831 0.960 . S
C848 C849 1.391 . S
C848 C850 1.394 . S
C848 H864 0.931 . S
C849 C848 1.391 . S
C849 C853 1.376 . S
C850 C848 1.394 . S
C850 C851 1.369 . S
C850 C854 1.531 . S
C851 C850 1.369 . S
C851 C852 1.410 . S
C851 C859 1.503 . S
C852 C851 1.410 . S
C852 C853 1.392 . S
C852 C855 1.511 . S
C853 C849 1.376 . S
C853 C852 1.392 . S
C853 H865 0.929 . S
C854 C850 1.531 . S
C854 H866 0.960 . S
C854 H867 0.962 . S
C854 H868 0.960 . S
C855 C852 1.511 . S
C855 H869 0.961 . S
C855 H870 0.961 . S
C855 H871 0.961 . S
C856 C857 1.370 . S
C856 C858 1.363 . S
C856 H872 0.931 . S
C857 C856 1.370 . S
C857 C861 1.408 . S
C858 C856 1.363 . S
C858 C859 1.370 . S
C858 C862 1.524 . S
C859 C851 1.503 . S
C859 C858 1.370 . S
C859 C860 1.403 . S
C860 C859 1.403 . S
C860 C861 1.404 . S
C860 C863 1.539 . S
C861 C857 1.408 . S
C861 C860 1.404 . S
C861 H873 0.930 . S
C862 C858 1.524 . S
C862 H874 0.956 . S
C862 H875 0.961 . S
C862 H876 0.961 . S
C863 C860 1.539 . S
C863 H877 0.958 . S
C863 H878 0.961 . S
C863 H879 0.960 . S
H864 C848 0.931 . S
H865 C853 0.929 . S
H866 C854 0.960 . S
H867 C854 0.962 . S
H868 C854 0.960 . S
H869 C855 0.961 . S
H870 C855 0.961 . S
H871 C855 0.961 . S
H872 C856 0.931 . S
H873 C861 0.930 . S
H874 C862 0.956 . S
H875 C862 0.961 . S
H876 C862 0.961 . S
H877 C863 0.958 . S
H878 C863 0.961 . S
H879 C863 0.960 . S
C880 C881 1.391 . S
C880 C882 1.394 . S
C880 H896 0.931 . S
C881 C880 1.391 . S
C881 C885 1.376 . S
C882 C880 1.394 . S
C882 C883 1.369 . S
C882 C886 1.531 . S
C883 C882 1.369 . S
C883 C884 1.410 . S
C883 C891 1.503 . S
C884 C883 1.410 . S
C884 C885 1.392 . S
C884 C887 1.511 . S
C885 C881 1.376 . S
C885 C884 1.392 . S
C885 H897 0.929 . S
C886 C882 1.531 . S
C886 H898 0.960 . S
C886 H899 0.962 . S
C886 H900 0.960 . S
C887 C884 1.511 . S
C887 H901 0.961 . S
C887 H902 0.961 . S
C887 H903 0.961 . S
C888 C889 1.370 . S
C888 C890 1.363 . S
C888 H904 0.931 . S
C889 C888 1.370 . S
C889 C893 1.408 . S
C890 C888 1.363 . S
C890 C891 1.370 . S
C890 C894 1.524 . S
C891 C883 1.503 . S
C891 C890 1.370 . S
C891 C892 1.403 . S
C892 C891 1.403 . S
C892 C893 1.404 . S
C892 C895 1.539 . S
C893 C889 1.408 . S
C893 C892 1.404 . S
C893 H905 0.930 . S
C894 C890 1.524 . S
C894 H906 0.956 . S
C894 H907 0.961 . S
C894 H908 0.961 . S
C895 C892 1.539 . S
C895 H909 0.958 . S
C895 H910 0.961 . S
C895 H911 0.960 . S
H896 C880 0.931 . S
H897 C885 0.929 . S
H898 C886 0.960 . S
H899 C886 0.962 . S
H900 C886 0.960 . S
H901 C887 0.961 . S
H902 C887 0.961 . S
H903 C887 0.961 . S
H904 C888 0.931 . S
H905 C893 0.930 . S
H906 C894 0.956 . S
H907 C894 0.961 . S
H908 C894 0.961 . S
H909 C895 0.958 . S
H910 C895 0.961 . S
H911 C895 0.960 . S
C912 C913 1.391 . S
C912 C914 1.394 . S
C912 H928 0.931 . S
C913 C912 1.391 . S
C913 C917 1.376 . S
C914 C912 1.394 . S
C914 C915 1.369 . S
C914 C918 1.531 . S
C915 C914 1.369 . S
C915 C916 1.410 . S
C915 C923 1.503 . S
C916 C915 1.410 . S
C916 C917 1.392 . S
C916 C919 1.511 . S
C917 C913 1.376 . S
C917 C916 1.392 . S
C917 H929 0.929 . S
C918 C914 1.531 . S
C918 H930 0.960 . S
C918 H931 0.962 . S
C918 H932 0.960 . S
C919 C916 1.511 . S
C919 H933 0.961 . S
C919 H934 0.961 . S
C919 H935 0.961 . S
C920 C921 1.370 . S
C920 C922 1.363 . S
C920 H936 0.931 . S
C921 C920 1.370 . S
C921 C925 1.408 . S
C922 C920 1.363 . S
C922 C923 1.370 . S
C922 C926 1.524 . S
C923 C915 1.503 . S
C923 C922 1.370 . S
C923 C924 1.403 . S
C924 C923 1.403 . S
C924 C925 1.404 . S
C924 C927 1.539 . S
C925 C921 1.408 . S
C925 C924 1.404 . S
C925 H937 0.930 . S
C926 C922 1.524 . S
C926 H938 0.956 . S
C926 H939 0.961 . S
C926 H940 0.961 . S
C927 C924 1.539 . S
C927 H941 0.958 . S
C927 H942 0.961 . S
C927 H943 0.960 . S
H928 C912 0.931 . S
H929 C917 0.929 . S
H930 C918 0.960 . S
H931 C918 0.962 . S
H932 C918 0.960 . S
H933 C919 0.961 . S
H934 C919 0.961 . S
H935 C919 0.961 . S
H936 C920 0.931 . S
H937 C925 0.930 . S
H938 C926 0.956 . S
H939 C926 0.961 . S
H940 C926 0.961 . S
H941 C927 0.958 . S
H942 C927 0.961 . S
H943 C927 0.960 . S
C944 C945 1.391 . S
C944 C946 1.394 . S
C944 H960 0.931 . S
C945 C944 1.391 . S
C945 C949 1.376 . S
C946 C944 1.394 . S
C946 C947 1.369 . S
C946 C950 1.531 . S
C947 C946 1.369 . S
C947 C948 1.410 . S
C947 C955 1.503 . S
C948 C947 1.410 . S
C948 C949 1.392 . S
C948 C951 1.511 . S
C949 C945 1.376 . S
C949 C948 1.392 . S
C949 H961 0.929 . S
C950 C946 1.531 . S
C950 H962 0.960 . S
C950 H963 0.962 . S
C950 H964 0.960 . S
C951 C948 1.511 . S
C951 H965 0.961 . S
C951 H966 0.961 . S
C951 H967 0.961 . S
C952 C953 1.370 . S
C952 C954 1.363 . S
C952 H968 0.931 . S
C953 C952 1.370 . S
C953 C957 1.408 . S
C954 C952 1.363 . S
C954 C955 1.370 . S
C954 C958 1.524 . S
C955 C947 1.503 . S
C955 C954 1.370 . S
C955 C956 1.403 . S
C956 C955 1.403 . S
C956 C957 1.404 . S
C956 C959 1.539 . S
C957 C953 1.408 . S
C957 C956 1.404 . S
C957 H969 0.930 . S
C958 C954 1.524 . S
C958 H970 0.956 . S
C958 H971 0.961 . S
C958 H972 0.961 . S
C959 C956 1.539 . S
C959 H973 0.958 . S
C959 H974 0.961 . S
C959 H975 0.960 . S
H960 C944 0.931 . S
H961 C949 0.929 . S
H962 C950 0.960 . S
H963 C950 0.962 . S
H964 C950 0.960 . S
H965 C951 0.961 . S
H966 C951 0.961 . S
H967 C951 0.961 . S
H968 C952 0.931 . S
H969 C957 0.930 . S
H970 C958 0.956 . S
H971 C958 0.961 . S
H972 C958 0.961 . S
H973 C959 0.958 . S
H974 C959 0.961 . S
H975 C959 0.960 . S
C976 C977 1.391 . S
C976 C978 1.394 . S
C976 H992 0.931 . S
C977 C976 1.391 . S
C977 C981 1.376 . S
C978 C976 1.394 . S
C978 C979 1.369 . S
C978 C982 1.531 . S
C979 C978 1.369 . S
C979 C980 1.410 . S
C979 C987 1.503 . S
C980 C979 1.410 . S
C980 C981 1.392 . S
C980 C983 1.511 . S
C981 C977 1.376 . S
C981 C980 1.392 . S
C981 H993 0.929 . S
C982 C978 1.531 . S
C982 H994 0.960 . S
C982 H995 0.962 . S
C982 H996 0.960 . S
C983 C980 1.511 . S
C983 H997 0.961 . S
C983 H998 0.961 . S
C983 H999 0.961 . S
C984 C985 1.370 . S
C984 C986 1.363 . S
C984 H1000 0.931 . S
C985 C984 1.370 . S
C985 C989 1.408 . S
C986 C984 1.363 . S
C986 C987 1.370 . S
C986 C990 1.524 . S
C987 C979 1.503 . S
C987 C986 1.370 . S
C987 C988 1.403 . S
C988 C987 1.403 . S
C988 C989 1.404 . S
C988 C991 1.539 . S
C989 C985 1.408 . S
C989 C988 1.404 . S
C989 H1001 0.930 . S
C990 C986 1.524 . S
C990 H1002 0.956 . S
C990 H1003 0.961 . S
C990 H1004 0.961 . S
C991 C988 1.539 . S
C991 H1005 0.958 . S
C991 H1006 0.961 . S
C991 H1007 0.960 . S
H992 C976 0.931 . S
H993 C981 0.929 . S
H994 C982 0.960 . S
H995 C982 0.962 . S
H996 C982 0.960 . S
H997 C983 0.961 . S
H998 C983 0.961 . S
H999 C983 0.961 . S
H1000 C984 0.931 . S
H1001 C989 0.930 . S
H1002 C990 0.956 . S
H1003 C990 0.961 . S
H1004 C990 0.961 . S
H1005 C991 0.958 . S
H1006 C991 0.961 . S
H1007 C991 0.960 . S
C1008 C1009 1.391 . S
C1008 C1010 1.394 . S
C1008 H1024 0.931 . S
C1009 C1008 1.391 . S
C1009 C1013 1.376 . S
C1010 C1008 1.394 . S
C1010 C1011 1.369 . S
C1010 C1014 1.531 . S
C1011 C1010 1.369 . S
C1011 C1012 1.410 . S
C1011 C1019 1.503 . S
C1012 C1011 1.410 . S
C1012 C1013 1.392 . S
C1012 C1015 1.511 . S
C1013 C1009 1.376 . S
C1013 C1012 1.392 . S
C1013 H1025 0.929 . S
C1014 C1010 1.531 . S
C1014 H1026 0.960 . S
C1014 H1027 0.962 . S
C1014 H1028 0.960 . S
C1015 C1012 1.511 . S
C1015 H1029 0.961 . S
C1015 H1030 0.961 . S
C1015 H1031 0.961 . S
C1016 C1017 1.370 . S
C1016 C1018 1.363 . S
C1016 H1032 0.931 . S
C1017 C1016 1.370 . S
C1017 C1021 1.408 . S
C1018 C1016 1.363 . S
C1018 C1019 1.370 . S
C1018 C1022 1.524 . S
C1019 C1011 1.503 . S
C1019 C1018 1.370 . S
C1019 C1020 1.403 . S
C1020 C1019 1.403 . S
C1020 C1021 1.404 . S
C1020 C1023 1.539 . S
C1021 C1017 1.408 . S
C1021 C1020 1.404 . S
C1021 H1033 0.930 . S
C1022 C1018 1.524 . S
C1022 H1034 0.956 . S
C1022 H1035 0.961 . S
C1022 H1036 0.961 . S
C1023 C1020 1.539 . S
C1023 H1037 0.958 . S
C1023 H1038 0.961 . S
C1023 H1039 0.960 . S
H1024 C1008 0.931 . S
H1025 C1013 0.929 . S
H1026 C1014 0.960 . S
H1027 C1014 0.962 . S
H1028 C1014 0.960 . S
H1029 C1015 0.961 . S
H1030 C1015 0.961 . S
H1031 C1015 0.961 . S
H1032 C1016 0.931 . S
H1033 C1021 0.930 . S
H1034 C1022 0.956 . S
H1035 C1022 0.961 . S
H1036 C1022 0.961 . S
H1037 C1023 0.958 . S
H1038 C1023 0.961 . S
H1039 C1023 0.960 . S
C1040 C1041 1.391 . S
C1040 C1042 1.394 . S
C1040 H1056 0.931 . S
C1041 C1040 1.391 . S
C1041 C1045 1.376 . S
C1042 C1040 1.394 . S
C1042 C1043 1.369 . S
C1042 C1046 1.531 . S
C1043 C1042 1.369 . S
C1043 C1044 1.410 . S
C1043 C1051 1.503 . S
C1044 C1043 1.410 . S
C1044 C1045 1.392 . S
C1044 C1047 1.511 . S
C1045 C1041 1.376 . S
C1045 C1044 1.392 . S
C1045 H1057 0.929 . S
C1046 C1042 1.531 . S
C1046 H1058 0.960 . S
C1046 H1059 0.962 . S
C1046 H1060 0.960 . S
C1047 C1044 1.511 . S
C1047 H1061 0.961 . S
C1047 H1062 0.961 . S
C1047 H1063 0.961 . S
C1048 C1049 1.370 . S
C1048 C1050 1.363 . S
C1048 H1064 0.931 . S
C1049 C1048 1.370 . S
C1049 C1053 1.408 . S
C1050 C1048 1.363 . S
C1050 C1051 1.370 . S
C1050 C1054 1.524 . S
C1051 C1043 1.503 . S
C1051 C1050 1.370 . S
C1051 C1052 1.403 . S
C1052 C1051 1.403 . S
C1052 C1053 1.404 . S
C1052 C1055 1.539 . S
C1053 C1049 1.408 . S
C1053 C1052 1.404 . S
C1053 H1065 0.930 . S
C1054 C1050 1.524 . S
C1054 H1066 0.956 . S
C1054 H1067 0.961 . S
C1054 H1068 0.961 . S
C1055 C1052 1.539 . S
C1055 H1069 0.958 . S
C1055 H1070 0.961 . S
C1055 H1071 0.960 . S
H1056 C1040 0.931 . S
H1057 C1045 0.929 . S
H1058 C1046 0.960 . S
H1059 C1046 0.962 . S
H1060 C1046 0.960 . S
H1061 C1047 0.961 . S
H1062 C1047 0.961 . S
H1063 C1047 0.961 . S
H1064 C1048 0.931 . S
H1065 C1053 0.930 . S
H1066 C1054 0.956 . S
H1067 C1054 0.961 . S
H1068 C1054 0.961 . S
H1069 C1055 0.958 . S
H1070 C1055 0.961 . S
H1071 C1055 0.960 . S
C1072 C1073 1.391 . S
C1072 C1074 1.394 . S
C1072 H1088 0.931 . S
C1073 C1072 1.391 . S
C1073 C1077 1.376 . S
C1074 C1072 1.394 . S
C1074 C1075 1.369 . S
C1074 C1078 1.531 . S
C1075 C1074 1.369 . S
C1075 C1076 1.410 . S
C1075 C1083 1.503 1_556 S
C1076 C1075 1.410 . S
C1076 C1077 1.392 . S
C1076 C1079 1.511 . S
C1077 C1073 1.376 . S
C1077 C1076 1.392 . S
C1077 H1089 0.929 . S
C1078 C1074 1.531 . S
C1078 H1090 0.960 . S
C1078 H1091 0.962 . S
C1078 H1092 0.960 . S
C1079 C1076 1.511 . S
C1079 H1093 0.961 . S
C1079 H1094 0.961 1_556 S
C1079 H1095 0.961 . S
C1080 C1081 1.370 . S
C1080 C1082 1.363 . S
C1080 H1096 0.931 . S
C1081 C1080 1.370 . S
C1081 C1085 1.408 . S
C1082 C1080 1.363 . S
C1082 C1083 1.370 . S
C1082 C1086 1.524 . S
C1083 C1075 1.503 1_554 S
C1083 C1082 1.370 . S
C1083 C1084 1.403 . S
C1084 C1083 1.403 . S
C1084 C1085 1.404 . S
C1084 C1087 1.566 . S
C1085 C1081 1.408 . S
C1085 C1084 1.404 . S
C1085 H1097 0.930 . S
C1086 C1082 1.524 . S
C1086 H1098 0.956 . S
C1086 H1099 0.961 . S
C1086 H1100 0.961 . S
C1087 C1084 1.566 . S
C1087 H1101 0.950 1_554 S
C1087 H1102 0.978 . S
C1087 H1103 0.926 1_554 S
H1088 C1072 0.931 . S
H1089 C1077 0.929 . S
H1090 C1078 0.960 . S
H1091 C1078 0.962 . S
H1092 C1078 0.960 . S
H1093 C1079 0.961 . S
H1094 C1079 0.961 1_554 S
H1095 C1079 0.961 . S
H1096 C1080 0.931 . S
H1097 C1085 0.930 . S
H1098 C1086 0.956 . S
H1099 C1086 0.961 . S
H1100 C1086 0.961 . S
H1101 C1087 0.950 1_556 S
H1102 C1087 0.978 . S
H1103 C1087 0.926 1_556 S
C1104 C1105 1.391 . S
C1104 C1106 1.394 . S
C1104 H1120 0.931 . S
C1105 C1104 1.391 . S
C1105 C1109 1.376 . S
C1106 C1104 1.394 . S
C1106 C1107 1.369 . S
C1106 C1110 1.531 . S
C1107 C1106 1.369 . S
C1107 C1108 1.410 . S
C1107 C1115 1.503 1_554 S
C1108 C1107 1.410 . S
C1108 C1109 1.392 . S
C1108 C1111 1.497 1_554 S
C1109 C1105 1.376 . S
C1109 C1108 1.392 . S
C1109 H1121 0.929 . S
C1110 C1106 1.531 . S
C1110 H1122 0.960 . S
C1110 H1123 0.962 . S
C1110 H1124 0.960 . S
C1111 C1108 1.497 1_556 S
C1111 H1125 0.954 1_556 S
C1111 H1126 0.978 . S
C1111 H1127 0.966 . S
C1112 C1113 1.370 . S
C1112 C1114 1.363 . S
C1112 H1128 0.931 . S
C1113 C1112 1.370 . S
C1113 C1117 1.408 . S
C1114 C1112 1.363 . S
C1114 C1115 1.370 . S
C1114 C1118 1.524 . S
C1115 C1107 1.503 1_556 S
C1115 C1114 1.370 . S
C1115 C1116 1.403 . S
C1116 C1115 1.403 . S
C1116 C1117 1.404 . S
C1116 C1119 1.539 . S
C1117 C1113 1.408 . S
C1117 C1116 1.404 . S
C1117 H1129 0.930 . S
C1118 C1114 1.524 . S
C1118 H1130 0.956 1_556 S
C1118 H1131 0.978 . S
C1118 H1132 0.961 . S
C1119 C1116 1.539 . S
C1119 H1133 0.958 . S
C1119 H1134 0.961 . S
C1119 H1135 0.960 . S
H1120 C1104 0.931 . S
H1121 C1109 0.929 . S
H1122 C1110 0.960 . S
H1123 C1110 0.962 . S
H1124 C1110 0.960 . S
H1125 C1111 0.954 1_554 S
H1126 C1111 0.978 . S
H1127 C1111 0.966 . S
H1128 C1112 0.931 . S
H1129 C1117 0.930 . S
H1130 C1118 0.956 1_554 S
H1131 C1118 0.978 . S
H1132 C1118 0.961 . S
H1133 C1119 0.958 . S
H1134 C1119 0.961 . S
H1135 C1119 0.960 . S
C1136 C1137 1.391 . S
C1136 C1138 1.394 . S
C1136 H1152 0.931 . S
C1137 C1136 1.391 . S
C1137 C1141 1.376 . S
C1138 C1136 1.394 . S
C1138 C1139 1.369 . S
C1138 C1142 1.531 . S
C1139 C1138 1.369 . S
C1139 C1140 1.410 . S
C1139 C1147 1.503 . S
C1140 C1139 1.410 . S
C1140 C1141 1.392 . S
C1140 C1143 1.511 . S
C1141 C1137 1.376 . S
C1141 C1140 1.392 . S
C1141 H1153 0.929 . S
C1142 C1138 1.531 . S
C1142 H1154 0.960 . S
C1142 H1155 0.962 . S
C1142 H1156 0.960 . S
C1143 C1140 1.511 . S
C1143 H1157 0.961 . S
C1143 H1158 0.961 . S
C1143 H1159 0.961 . S
C1144 C1145 1.370 . S
C1144 C1146 1.363 . S
C1144 H1160 0.931 . S
C1145 C1144 1.370 . S
C1145 C1149 1.408 . S
C1146 C1144 1.363 . S
C1146 C1147 1.370 . S
C1146 C1150 1.524 . S
C1147 C1139 1.503 . S
C1147 C1146 1.370 . S
C1147 C1148 1.403 . S
C1148 C1147 1.403 . S
C1148 C1149 1.404 . S
C1148 C1151 1.539 . S
C1149 C1145 1.408 . S
C1149 C1148 1.404 . S
C1149 H1161 0.930 . S
C1150 C1146 1.524 . S
C1150 H1162 0.956 . S
C1150 H1163 0.961 . S
C1150 H1164 0.961 . S
C1151 C1148 1.539 . S
C1151 H1165 0.958 . S
C1151 H1166 0.961 . S
C1151 H1167 0.960 . S
H1152 C1136 0.931 . S
H1153 C1141 0.929 . S
H1154 C1142 0.960 . S
H1155 C1142 0.962 . S
H1156 C1142 0.960 . S
H1157 C1143 0.961 . S
H1158 C1143 0.961 . S
H1159 C1143 0.961 . S
H1160 C1144 0.931 . S
H1161 C1149 0.930 . S
H1162 C1150 0.956 . S
H1163 C1150 0.961 . S
H1164 C1150 0.961 . S
H1165 C1151 0.958 . S
H1166 C1151 0.961 . S
H1167 C1151 0.960 . S
C1168 C1169 1.391 . S
C1168 C1170 1.394 . S
C1168 H1184 0.931 . S
C1169 C1168 1.391 . S
C1169 C1173 1.376 . S
C1170 C1168 1.394 . S
C1170 C1171 1.369 . S
C1170 C1174 1.531 . S
C1171 C1170 1.369 . S
C1171 C1172 1.410 . S
C1171 C1179 1.503 . S
C1172 C1171 1.410 . S
C1172 C1173 1.392 . S
C1172 C1175 1.511 . S
C1173 C1169 1.376 . S
C1173 C1172 1.392 . S
C1173 H1185 0.929 . S
C1174 C1170 1.531 . S
C1174 H1186 0.960 . S
C1174 H1187 0.962 . S
C1174 H1188 0.960 . S
C1175 C1172 1.511 . S
C1175 H1189 0.961 . S
C1175 H1190 0.961 . S
C1175 H1191 0.961 . S
C1176 C1177 1.370 . S
C1176 C1178 1.363 . S
C1176 H1192 0.931 . S
C1177 C1176 1.370 . S
C1177 C1181 1.408 . S
C1178 C1176 1.363 . S
C1178 C1179 1.370 . S
C1178 C1182 1.524 . S
C1179 C1171 1.503 . S
C1179 C1178 1.370 . S
C1179 C1180 1.403 . S
C1180 C1179 1.403 . S
C1180 C1181 1.404 . S
C1180 C1183 1.539 . S
C1181 C1177 1.408 . S
C1181 C1180 1.404 . S
C1181 H1193 0.930 . S
C1182 C1178 1.524 . S
C1182 H1194 0.956 . S
C1182 H1195 0.961 . S
C1182 H1196 0.961 . S
C1183 C1180 1.539 . S
C1183 H1197 0.958 . S
C1183 H1198 0.961 . S
C1183 H1199 0.960 . S
H1184 C1168 0.931 . S
H1185 C1173 0.929 . S
H1186 C1174 0.960 . S
H1187 C1174 0.962 . S
H1188 C1174 0.960 . S
H1189 C1175 0.961 . S
H1190 C1175 0.961 . S
H1191 C1175 0.961 . S
H1192 C1176 0.931 . S
H1193 C1181 0.930 . S
H1194 C1182 0.956 . S
H1195 C1182 0.961 . S
H1196 C1182 0.961 . S
H1197 C1183 0.958 . S
H1198 C1183 0.961 . S
H1199 C1183 0.960 . S
C1200 C1201 1.391 . S
C1200 C1202 1.394 . S
C1200 H1216 0.931 . S
C1201 C1200 1.391 . S
C1201 C1205 1.376 . S
C1202 C1200 1.394 . S
C1202 C1203 1.369 . S
C1202 C1206 1.531 . S
C1203 C1202 1.369 . S
C1203 C1204 1.410 . S
C1203 C1211 1.503 . S
C1204 C1203 1.410 . S
C1204 C1205 1.392 . S
C1204 C1207 1.511 . S
C1205 C1201 1.376 . S
C1205 C1204 1.392 . S
C1205 H1217 0.929 . S
C1206 C1202 1.531 . S
C1206 H1218 0.960 . S
C1206 H1219 0.962 . S
C1206 H1220 0.960 . S
C1207 C1204 1.511 . S
C1207 H1221 0.961 . S
C1207 H1222 0.961 . S
C1207 H1223 0.961 . S
C1208 C1209 1.370 . S
C1208 C1210 1.363 . S
C1208 H1224 0.931 . S
C1209 C1208 1.370 . S
C1209 C1213 1.408 . S
C1210 C1208 1.363 . S
C1210 C1211 1.370 . S
C1210 C1214 1.524 . S
C1211 C1203 1.503 . S
C1211 C1210 1.370 . S
C1211 C1212 1.403 . S
C1212 C1211 1.403 . S
C1212 C1213 1.404 . S
C1212 C1215 1.539 . S
C1213 C1209 1.408 . S
C1213 C1212 1.404 . S
C1213 H1225 0.930 . S
C1214 C1210 1.524 . S
C1214 H1226 0.956 . S
C1214 H1227 0.961 . S
C1214 H1228 0.961 . S
C1215 C1212 1.539 . S
C1215 H1229 0.958 . S
C1215 H1230 0.961 . S
C1215 H1231 0.960 . S
H1216 C1200 0.931 . S
H1217 C1205 0.929 . S
H1218 C1206 0.960 . S
H1219 C1206 0.962 . S
H1220 C1206 0.960 . S
H1221 C1207 0.961 . S
H1222 C1207 0.961 . S
H1223 C1207 0.961 . S
H1224 C1208 0.931 . S
H1225 C1213 0.930 . S
H1226 C1214 0.956 . S
H1227 C1214 0.961 . S
H1228 C1214 0.961 . S
H1229 C1215 0.958 . S
H1230 C1215 0.961 . S
H1231 C1215 0.960 . S
C209 C134 1.735 . S
C217 C4 1.737 . S
C241 C17 1.732 . S
C249 C153 1.738 . S
C273 C108 1.733 . S
C281 C36 1.734 . S
C305 C121 1.735 . S
C313 C43 1.737 . S
C337 C56 1.734 . S
C345 C186 1.737 . S
C369 C199 1.731 . S
C377 C69 1.738 . S
C401 C82 1.732 . S
C409 C166 1.734 . S
C433 C173 1.726 . S
C441 C95 1.735 . S
C465 C135 1.276 . S
C473 C5 1.278 . S
C497 C18 1.276 . S
C505 C146 1.278 . S
C529 C29 1.272 . S
C537 C109 1.279 . S
C561 C44 1.275 . S
C569 C122 1.278 . S
C593 C57 1.273 . S
C601 C187 1.278 . S
C625 C70 1.274 . S
C633 C200 1.282 . S
C657 C159 1.273 . S
C665 C83 1.278 . S
C689 C174 1.276 . S
C697 C96 1.278 . S
C721 C10 1.390 . S
C729 C88 1.376 . S
C753 C23 1.371 . S
C761 C101 1.382 . S
C785 C30 1.354 . S
C793 C62 1.375 . S
C817 C49 1.372 . S
C825 C75 1.367 . S
C849 C114 1.352 . S
C857 C192 1.373 . S
C881 C205 1.369 . S
C889 C127 1.382 . S
C913 C140 1.391 . S
C921 C160 1.377 . S
C945 C179 1.370 . S
C953 C147 1.367 . S
C977 C3 1.262 . S
C985 C198 1.291 . S
C1009 C161 1.306 . S
C1017 C16 1.283 . S
C1041 C172 1.263 . S
C1049 C31 1.292 . S
C1073 C185 1.301 . S
C1081 C42 1.281 . S
C1105 C120 1.266 . S
C1113 C55 1.284 . S
C1137 C133 1.302 . S
C1145 C68 1.281 . S
C1169 C81 1.276 . S
C1177 C148 1.298 . S
C1201 C94 1.277 . S
C1209 C107 1.298 . S
