# Generated by pormake.
# Topology unw, (4)-cn, num edge types: 1
# Building blocks:
#     Node 0, Type 0, BuildingBlock: KOZSID_clean_sbu_0, # of connection points: 4
#     Node 1, Type 0, BuildingBlock: KOZSID_clean_sbu_0, # of connection points: 4
#     Node 2, Type 0, BuildingBlock: KOZSID_clean_sbu_0, # of connection points: 4
#     Node 3, Type 0, BuildingBlock: KOZSID_clean_sbu_0, # of connection points: 4
#     Node 4, Type 0, BuildingBlock: KOZSID_clean_sbu_0, # of connection points: 4
#     Node 5, Type 0, BuildingBlock: KOZSID_clean_sbu_0, # of connection points: 4
#     Node 6, Type 0, BuildingBlock: KOZSID_clean_sbu_0, # of connection points: 4
#     Node 7, Type 0, BuildingBlock: KOZSID_clean_sbu_0, # of connection points: 4
#     Node 8, Type 0, BuildingBlock: KOZSID_clean_sbu_0, # of connection points: 4
#     Node 9, Type 0, BuildingBlock: KOZSID_clean_sbu_0, # of connection points: 4
#     Node 10, Type 0, BuildingBlock: KOZSID_clean_sbu_0, # of connection points: 4
#     Node 11, Type 0, BuildingBlock: KOZSID_clean_sbu_0, # of connection points: 4
#     Node 12, Type 0, BuildingBlock: KOZSID_clean_sbu_0, # of connection points: 4
#     Node 13, Type 0, BuildingBlock: KOZSID_clean_sbu_0, # of connection points: 4
#     Node 14, Type 0, BuildingBlock: KOZSID_clean_sbu_0, # of connection points: 4
#     Node 15, Type 0, BuildingBlock: KOZSID_clean_sbu_0, # of connection points: 4
#     Node 16, Type 0, BuildingBlock: KOZSID_clean_sbu_0, # of connection points: 4
#     Node 17, Type 0, BuildingBlock: KOZSID_clean_sbu_0, # of connection points: 4
#     Node 18, Type 0, BuildingBlock: KOZSID_clean_sbu_0, # of connection points: 4
#     Node 19, Type 0, BuildingBlock: KOZSID_clean_sbu_0, # of connection points: 4
#     Node 20, Type 0, BuildingBlock: KOZSID_clean_sbu_0, # of connection points: 4
#     Node 21, Type 0, BuildingBlock: KOZSID_clean_sbu_0, # of connection points: 4
#     Node 22, Type 0, BuildingBlock: KOZSID_clean_sbu_0, # of connection points: 4
#     Node 23, Type 0, BuildingBlock: KOZSID_clean_sbu_0, # of connection points: 4
#     Edge 24, Type (0, 0), BuildingBlock: UVAHIK_clean_linker_0, # of connection points: 2
#     Edge 25, Type (0, 0), BuildingBlock: UVAHIK_clean_linker_0, # of connection points: 2
#     Edge 26, Type (0, 0), BuildingBlock: UVAHIK_clean_linker_0, # of connection points: 2
#     Edge 27, Type (0, 0), BuildingBlock: UVAHIK_clean_linker_0, # of connection points: 2
#     Edge 28, Type (0, 0), BuildingBlock: UVAHIK_clean_linker_0, # of connection points: 2
#     Edge 29, Type (0, 0), BuildingBlock: UVAHIK_clean_linker_0, # of connection points: 2
#     Edge 30, Type (0, 0), BuildingBlock: UVAHIK_clean_linker_0, # of connection points: 2
#     Edge 31, Type (0, 0), BuildingBlock: UVAHIK_clean_linker_0, # of connection points: 2
#     Edge 32, Type (0, 0), BuildingBlock: UVAHIK_clean_linker_0, # of connection points: 2
#     Edge 33, Type (0, 0), BuildingBlock: UVAHIK_clean_linker_0, # of connection points: 2
#     Edge 34, Type (0, 0), BuildingBlock: UVAHIK_clean_linker_0, # of connection points: 2
#     Edge 35, Type (0, 0), BuildingBlock: UVAHIK_clean_linker_0, # of connection points: 2
#     Edge 36, Type (0, 0), BuildingBlock: UVAHIK_clean_linker_0, # of connection points: 2
#     Edge 37, Type (0, 0), BuildingBlock: UVAHIK_clean_linker_0, # of connection points: 2
#     Edge 38, Type (0, 0), BuildingBlock: UVAHIK_clean_linker_0, # of connection points: 2
#     Edge 39, Type (0, 0), BuildingBlock: UVAHIK_clean_linker_0, # of connection points: 2
#     Edge 40, Type (0, 0), BuildingBlock: UVAHIK_clean_linker_0, # of connection points: 2
#     Edge 41, Type (0, 0), BuildingBlock: UVAHIK_clean_linker_0, # of connection points: 2
#     Edge 42, Type (0, 0), BuildingBlock: UVAHIK_clean_linker_0, # of connection points: 2
#     Edge 43, Type (0, 0), BuildingBlock: UVAHIK_clean_linker_0, # of connection points: 2
#     Edge 44, Type (0, 0), BuildingBlock: UVAHIK_clean_linker_0, # of connection points: 2
#     Edge 45, Type (0, 0), BuildingBlock: UVAHIK_clean_linker_0, # of connection points: 2
#     Edge 46, Type (0, 0), BuildingBlock: UVAHIK_clean_linker_0, # of connection points: 2
#     Edge 47, Type (0, 0), BuildingBlock: UVAHIK_clean_linker_0, # of connection points: 2
#     Edge 48, Type (0, 0), BuildingBlock: UVAHIK_clean_linker_0, # of connection points: 2
#     Edge 49, Type (0, 0), BuildingBlock: UVAHIK_clean_linker_0, # of connection points: 2
#     Edge 50, Type (0, 0), BuildingBlock: UVAHIK_clean_linker_0, # of connection points: 2
#     Edge 51, Type (0, 0), BuildingBlock: UVAHIK_clean_linker_0, # of connection points: 2
#     Edge 52, Type (0, 0), BuildingBlock: UVAHIK_clean_linker_0, # of connection points: 2
#     Edge 53, Type (0, 0), BuildingBlock: UVAHIK_clean_linker_0, # of connection points: 2
#     Edge 54, Type (0, 0), BuildingBlock: UVAHIK_clean_linker_0, # of connection points: 2
#     Edge 55, Type (0, 0), BuildingBlock: UVAHIK_clean_linker_0, # of connection points: 2
#     Edge 56, Type (0, 0), BuildingBlock: UVAHIK_clean_linker_0, # of connection points: 2
#     Edge 57, Type (0, 0), BuildingBlock: UVAHIK_clean_linker_0, # of connection points: 2
#     Edge 58, Type (0, 0), BuildingBlock: UVAHIK_clean_linker_0, # of connection points: 2
#     Edge 59, Type (0, 0), BuildingBlock: UVAHIK_clean_linker_0, # of connection points: 2
#     Edge 60, Type (0, 0), BuildingBlock: UVAHIK_clean_linker_0, # of connection points: 2
#     Edge 61, Type (0, 0), BuildingBlock: UVAHIK_clean_linker_0, # of connection points: 2
#     Edge 62, Type (0, 0), BuildingBlock: UVAHIK_clean_linker_0, # of connection points: 2
#     Edge 63, Type (0, 0), BuildingBlock: UVAHIK_clean_linker_0, # of connection points: 2
#     Edge 64, Type (0, 0), BuildingBlock: UVAHIK_clean_linker_0, # of connection points: 2
#     Edge 65, Type (0, 0), BuildingBlock: UVAHIK_clean_linker_0, # of connection points: 2
#     Edge 66, Type (0, 0), BuildingBlock: UVAHIK_clean_linker_0, # of connection points: 2
#     Edge 67, Type (0, 0), BuildingBlock: UVAHIK_clean_linker_0, # of connection points: 2
#     Edge 68, Type (0, 0), BuildingBlock: UVAHIK_clean_linker_0, # of connection points: 2
#     Edge 69, Type (0, 0), BuildingBlock: UVAHIK_clean_linker_0, # of connection points: 2
#     Edge 70, Type (0, 0), BuildingBlock: UVAHIK_clean_linker_0, # of connection points: 2
#     Edge 71, Type (0, 0), BuildingBlock: UVAHIK_clean_linker_0, # of connection points: 2
# Relax obj value: 0.337
# Max RMSD: 0.287
# Mean RMSD: 0.269
data_MOF--net-unw--node1-KOZSID_clean_sbu_0--edge1-UVAHIK_clean_linker_0
_symmetry_space_group_name_H-M    P1
_symmetry_Int_Tables_number       1
_symmetry_cell_setting            triclinic
loop_
_symmetry_equiv_pos_as_xyz
'x, y, z'
_cell_length_a     75.567854
_cell_length_b     65.778504
_cell_length_c     68.847405
_cell_angle_alpha  90.013441
_cell_angle_beta   90.442137
_cell_angle_gamma 90.004129
loop_
_atom_site_label
_atom_site_type_symbol
_atom_site_fract_x
_atom_site_fract_y
_atom_site_fract_z
_atom_type_partial_charge
C0 C 0.12871 0.42511 0.20404 0.0
C1 C 0.11812 0.42974 0.18812 0.0
C2 C 0.10799 0.41293 0.18453 0.0
C3 C 0.11296 0.39907 0.19843 0.0
N4 N 0.12537 0.40621 0.21095 0.0
Co5 Co 0.13758 0.39084 0.23234 0.0
N6 N 0.12583 0.36474 0.22438 0.0
C7 C 0.1136 0.36219 0.21012 0.0
C8 C 0.10841 0.34237 0.20768 0.0
C9 C 0.11802 0.33159 0.22104 0.0
C10 C 0.12852 0.34553 0.23093 0.0
N11 N 0.14996 0.37554 0.25362 0.0
C12 C 0.15028 0.35535 0.25743 0.0
C13 C 0.16073 0.35096 0.27358 0.0
C14 C 0.16745 0.369 0.28003 0.0
C15 C 0.16073 0.38331 0.26756 0.0
N16 N 0.14948 0.41688 0.24011 0.0
C17 C 0.16029 0.41994 0.2556 0.0
C18 C 0.16734 0.43911 0.25643 0.0
C19 C 0.16099 0.44875 0.24029 0.0
C20 C 0.15031 0.43485 0.23054 0.0
N21 N 0.11754 0.39658 0.25034 0.0
C22 C 0.08959 0.39713 0.27746 0.0
C23 C 0.10681 0.40248 0.28299 0.0
C24 C 0.12042 0.40227 0.26929 0.0
C25 C 0.08644 0.393 0.25784 0.0
C26 C 0.10039 0.39308 0.24468 0.0
N27 N 0.15733 0.3847 0.21464 0.0
C28 C 0.18846 0.37879 0.20942 0.0
C29 C 0.18492 0.37063 0.19102 0.0
C30 C 0.16745 0.37079 0.18426 0.0
C31 C 0.15399 0.37789 0.19618 0.0
C32 C 0.17455 0.38583 0.22088 0.0
H33 H 0.14088 0.37712 0.19041 0.0
H34 H 0.1779 0.39164 0.23494 0.0
H35 H 0.13315 0.40636 0.27457 0.0
H36 H 0.09689 0.38964 0.23014 0.0
C37 C 0.10807 0.37853 0.19851 0.0
C38 C 0.14238 0.43872 0.2115 0.0
C39 C 0.14121 0.33979 0.24602 0.0
C40 C 0.16517 0.40391 0.26778 0.0
H41 H 0.11818 0.44359 0.17963 0.0
H42 H 0.0988 0.41069 0.17257 0.0
H43 H 0.09909 0.3364 0.19712 0.0
H44 H 0.11757 0.31529 0.22309 0.0
H45 H 0.16341 0.33621 0.27991 0.0
H46 H 0.17649 0.37134 0.2921 0.0
H47 H 0.17672 0.44502 0.26697 0.0
H48 H 0.16445 0.464 0.23588 0.0
H49 H 0.10989 0.40653 0.29788 0.0
H50 H 0.07338 0.38885 0.25263 0.0
H51 H 0.20185 0.37942 0.21511 0.0
H52 H 0.164 0.36458 0.17016 0.0
C53 C 0.61493 0.10646 0.32932 0.0
C54 C 0.60477 0.10702 0.34597 0.0
C55 C 0.59694 0.12575 0.34636 0.0
C56 C 0.60282 0.13549 0.33 0.0
N57 N 0.61353 0.12388 0.31892 0.0
Co58 Co 0.62697 0.13244 0.29528 0.0
N59 N 0.61919 0.16139 0.29841 0.0
C60 C 0.60768 0.16875 0.31164 0.0
C61 C 0.60514 0.18934 0.31033 0.0
C62 C 0.61571 0.19552 0.29545 0.0
C63 C 0.62412 0.17825 0.28852 0.0
N64 N 0.64083 0.14097 0.27198 0.0
C65 C 0.64391 0.15979 0.2648 0.0
C66 C 0.6547 0.15912 0.24856 0.0
C67 C 0.65872 0.13916 0.24551 0.0
C68 C 0.65021 0.12882 0.25996 0.0
N69 N 0.63464 0.1035 0.29216 0.0
C70 C 0.64405 0.09542 0.27742 0.0
C71 C 0.64806 0.07526 0.28001 0.0
C72 C 0.64119 0.07034 0.29769 0.0
C73 C 0.63337 0.08787 0.30483 0.0
N74 N 0.60584 0.12732 0.2783 0.0
C75 C 0.57724 0.12652 0.25154 0.0
C76 C 0.5936 0.11804 0.24687 0.0
C77 C 0.60751 0.11848 0.26035 0.0
C78 C 0.57511 0.13409 0.27034 0.0
C79 C 0.58936 0.13412 0.2834 0.0
N80 N 0.64788 0.13784 0.31189 0.0
C81 C 0.6794 0.13594 0.31742 0.0
C82 C 0.67809 0.14861 0.33366 0.0
C83 C 0.66125 0.155 0.33931 0.0
C84 C 0.64643 0.1494 0.32834 0.0
C85 C 0.66424 0.13077 0.30682 0.0
H86 H 0.63394 0.15494 0.33317 0.0
H87 H 0.66604 0.12134 0.29436 0.0
H88 H 0.61953 0.11191 0.25565 0.0
H89 H 0.58673 0.14022 0.29732 0.0
C90 C 0.60056 0.1562 0.32604 0.0
C91 C 0.62657 0.08965 0.32447 0.0
C92 C 0.63702 0.17866 0.27288 0.0
C93 C 0.65124 0.10783 0.26302 0.0
H94 H 0.60369 0.09536 0.35699 0.0
H95 H 0.58879 0.13195 0.35779 0.0
H96 H 0.59693 0.19882 0.31943 0.0
H97 H 0.61729 0.21101 0.29047 0.0
H98 H 0.65928 0.17177 0.2399 0.0
H99 H 0.66707 0.13296 0.23426 0.0
H100 H 0.65602 0.06566 0.27077 0.0
H101 H 0.64255 0.05582 0.30493 0.0
H102 H 0.59579 0.11128 0.23274 0.0
H103 H 0.56268 0.14072 0.27485 0.0
H104 H 0.6921 0.1302 0.31273 0.0
H105 H 0.65951 0.1649 0.35171 0.0
C106 C 0.88897 0.57091 0.21619 0.0
C107 C 0.90026 0.568 0.20068 0.0
C108 C 0.91123 0.58472 0.20021 0.0
C109 C 0.906 0.5969 0.21539 0.0
N110 N 0.89253 0.58868 0.22529 0.0
Co111 Co 0.87946 0.60137 0.24686 0.0
N112 N 0.88735 0.62887 0.2393 0.0
C113 C 0.90129 0.63319 0.22794 0.0
C114 C 0.9034 0.65373 0.22516 0.0
C115 C 0.89009 0.66276 0.23558 0.0
C116 C 0.8806 0.64718 0.24428 0.0
N117 N 0.86626 0.61365 0.2685 0.0
C118 C 0.86128 0.63316 0.27114 0.0
C119 C 0.85278 0.6354 0.28887 0.0
C120 C 0.85258 0.61658 0.29748 0.0
C121 C 0.86097 0.60392 0.28467 0.0
N122 N 0.87179 0.57389 0.25437 0.0
C123 C 0.86613 0.56795 0.27191 0.0
C124 C 0.86114 0.54782 0.2721 0.0
C125 C 0.86383 0.5409 0.25348 0.0
C126 C 0.87029 0.55727 0.24305 0.0
N127 N 0.90028 0.59902 0.26389 0.0
C128 C 0.92977 0.59726 0.28887 0.0
C129 C 0.92542 0.58071 0.27681 0.0
C130 C 0.91053 0.58187 0.26446 0.0
C131 C 0.91914 0.61462 0.2879 0.0
C132 C 0.90461 0.61519 0.27546 0.0
N133 N 0.85871 0.60431 0.23003 0.0
C134 C 0.82707 0.60497 0.22611 0.0
C135 C 0.8287 0.61501 0.20821 0.0
C136 C 0.84575 0.61829 0.20097 0.0
C137 C 0.86051 0.61272 0.21201 0.0
C138 C 0.84222 0.59977 0.23678 0.0
H139 H 0.87342 0.61613 0.20632 0.0
H140 H 0.8406 0.59278 0.25082 0.0
H141 H 0.90729 0.56898 0.25537 0.0
H142 H 0.89693 0.62895 0.27521 0.0
C143 C 0.90993 0.61767 0.21761 0.0
C144 C 0.87514 0.55681 0.22256 0.0
C145 C 0.86624 0.65013 0.25833 0.0
C146 C 0.86175 0.5826 0.2859 0.0
H147 H 0.90036 0.55542 0.19057 0.0
H148 H 0.92096 0.58822 0.18924 0.0
H149 H 0.91301 0.66123 0.21606 0.0
H150 H 0.88774 0.67893 0.23673 0.0
H151 H 0.84759 0.64922 0.29516 0.0
H152 H 0.84663 0.61257 0.3112 0.0
H153 H 0.85517 0.53952 0.28394 0.0
H154 H 0.86108 0.52576 0.24807 0.0
H155 H 0.93332 0.56699 0.27703 0.0
H156 H 0.92218 0.62801 0.29647 0.0
H157 H 0.81419 0.60162 0.23211 0.0
H158 H 0.84779 0.62607 0.18731 0.0
C159 C 0.37847 0.92171 0.29703 0.0
C160 C 0.38969 0.92582 0.31253 0.0
C161 C 0.40121 0.90959 0.31383 0.0
C162 C 0.39635 0.89652 0.29908 0.0
N163 N 0.38259 0.90372 0.28871 0.0
Co164 Co 0.36995 0.88959 0.26745 0.0
N165 N 0.3787 0.86283 0.27616 0.0
C166 C 0.39292 0.85956 0.28763 0.0
C167 C 0.39571 0.83923 0.2911 0.0
C168 C 0.38249 0.82925 0.28106 0.0
C169 C 0.37235 0.84411 0.27197 0.0
N170 N 0.35705 0.8758 0.24621 0.0
C171 C 0.35226 0.85609 0.2447 0.0
C172 C 0.34349 0.8526 0.2272 0.0
C173 C 0.34292 0.87087 0.21754 0.0
C174 C 0.35136 0.88447 0.22958 0.0
N175 N 0.36145 0.91635 0.25869 0.0
C176 C 0.35556 0.92121 0.24083 0.0
C177 C 0.34994 0.94109 0.23973 0.0
C178 C 0.35245 0.94898 0.25808 0.0
C179 C 0.35945 0.9334 0.26927 0.0
N180 N 0.39075 0.89201 0.25073 0.0
C181 C 0.42211 0.89265 0.22925 0.0
C182 C 0.41074 0.87593 0.22842 0.0
C183 C 0.39533 0.87582 0.23934 0.0
C184 C 0.41727 0.90938 0.24069 0.0
C185 C 0.40135 0.90889 0.2511 0.0
N186 N 0.34936 0.88655 0.28415 0.0
C187 C 0.31781 0.88445 0.28803 0.0
C188 C 0.32006 0.87582 0.30654 0.0
C189 C 0.33728 0.87389 0.31397 0.0
C190 C 0.35167 0.87937 0.30261 0.0
C191 C 0.33264 0.8898 0.27711 0.0
H192 H 0.36473 0.87686 0.30849 0.0
H193 H 0.33063 0.89583 0.26269 0.0
H194 H 0.38743 0.86222 0.23898 0.0
H195 H 0.39782 0.9219 0.25983 0.0
C196 C 0.40106 0.87587 0.29756 0.0
C197 C 0.36428 0.93498 0.28982 0.0
C198 C 0.35745 0.84016 0.25859 0.0
C199 C 0.35153 0.90574 0.22743 0.0
H200 H 0.38941 0.93892 0.32202 0.0
H201 H 0.41111 0.90704 0.325 0.0
H202 H 0.40566 0.83247 0.30046 0.0
H203 H 0.38055 0.81297 0.28052 0.0
H204 H 0.33825 0.83832 0.22185 0.0
H205 H 0.33656 0.87397 0.20371 0.0
H206 H 0.34367 0.94857 0.22748 0.0
H207 H 0.34922 0.96422 0.2628 0.0
H208 H 0.41411 0.86257 0.22003 0.0
H209 H 0.42576 0.92261 0.24168 0.0
H210 H 0.30473 0.88658 0.28183 0.0
H211 H 0.33976 0.86713 0.32807 0.0
C212 C 0.1173 0.57163 0.78053 0.0
C213 C 0.10444 0.56935 0.79459 0.0
C214 C 0.0927 0.58517 0.79194 0.0
C215 C 0.09908 0.59615 0.77647 0.0
N216 N 0.11399 0.58807 0.76932 0.0
Co217 Co 0.12871 0.59933 0.74829 0.0
N218 N 0.11856 0.62676 0.75174 0.0
C219 C 0.10312 0.63103 0.76051 0.0
C220 C 0.0992 0.65142 0.76012 0.0
C221 C 0.11293 0.66038 0.75034 0.0
C222 C 0.12455 0.64491 0.74532 0.0
N223 N 0.14372 0.6103 0.72737 0.0
C224 C 0.14809 0.62979 0.72348 0.0
C225 C 0.15951 0.63073 0.70776 0.0
C226 C 0.16183 0.61117 0.70135 0.0
C227 C 0.15191 0.59934 0.71355 0.0
N228 N 0.13854 0.57184 0.74477 0.0
C229 C 0.14664 0.56456 0.72892 0.0
C230 C 0.15251 0.54493 0.73145 0.0
C231 C 0.14784 0.53975 0.75008 0.0
C232 C 0.13939 0.55658 0.75778 0.0
N233 N 0.11002 0.59345 0.72921 0.0
C234 C 0.08047 0.58903 0.70478 0.0
C235 C 0.09202 0.60543 0.70261 0.0
C236 C 0.10652 0.60745 0.71499 0.0
C237 C 0.08444 0.57428 0.71888 0.0
C238 C 0.0995 0.5766 0.73074 0.0
N239 N 0.14719 0.60574 0.7673 0.0
C240 C 0.178 0.60923 0.77572 0.0
C241 C 0.17357 0.62043 0.79233 0.0
C242 C 0.15565 0.6229 0.79675 0.0
C243 C 0.14273 0.6155 0.78408 0.0
C244 C 0.1646 0.60195 0.76342 0.0
H245 H 0.12908 0.61835 0.78756 0.0
H246 H 0.16831 0.59396 0.75039 0.0
H247 H 0.1144 0.62097 0.71354 0.0
H248 H 0.10227 0.5652 0.74164 0.0
C249 C 0.09423 0.61609 0.77137 0.0
C250 C 0.13224 0.55791 0.77738 0.0
C251 C 0.14011 0.64764 0.7329 0.0
C252 C 0.15227 0.57802 0.71444 0.0
H253 H 0.10378 0.5577 0.80565 0.0
H254 H 0.08153 0.5889 0.80102 0.0
H255 H 0.08798 0.65896 0.76661 0.0
H256 H 0.11412 0.6764 0.74704 0.0
H257 H 0.16536 0.64413 0.70135 0.0
H258 H 0.17021 0.60615 0.68961 0.0
H259 H 0.16034 0.53597 0.72152 0.0
H260 H 0.15064 0.52549 0.75731 0.0
H261 H 0.08931 0.61735 0.69214 0.0
H262 H 0.07579 0.56135 0.72096 0.0
H263 H 0.19169 0.60692 0.77172 0.0
H264 H 0.1516 0.63101 0.80966 0.0
C265 C 0.38846 0.11058 0.68711 0.0
C266 C 0.40064 0.1084 0.67234 0.0
C267 C 0.41113 0.12555 0.67288 0.0
C268 C 0.40474 0.13718 0.68793 0.0
N269 N 0.39101 0.1282 0.69677 0.0
Co270 Co 0.37666 0.13962 0.71789 0.0
N271 N 0.38401 0.16761 0.71147 0.0
C272 C 0.39828 0.17291 0.70104 0.0
C273 C 0.39943 0.19359 0.69848 0.0
C274 C 0.38507 0.20163 0.70797 0.0
C275 C 0.37597 0.18535 0.71594 0.0
N276 N 0.3624 0.15075 0.73919 0.0
C277 C 0.35646 0.16988 0.74169 0.0
C278 C 0.34731 0.17153 0.75905 0.0
C279 C 0.3476 0.15259 0.76751 0.0
C280 C 0.35693 0.14049 0.75496 0.0
N281 N 0.36927 0.11171 0.72417 0.0
C282 C 0.36297 0.10505 0.74121 0.0
C283 C 0.35831 0.08482 0.74046 0.0
C284 C 0.36193 0.07863 0.72178 0.0
C285 C 0.3686 0.09549 0.71225 0.0
N286 N 0.39675 0.13726 0.73587 0.0
C287 C 0.42389 0.1341 0.76379 0.0
C288 C 0.41992 0.11777 0.75131 0.0
C289 C 0.40639 0.11972 0.73735 0.0
C290 C 0.41429 0.15216 0.76143 0.0
C291 C 0.40077 0.15334 0.74767 0.0
N292 N 0.35654 0.14237 0.70017 0.0
C293 C 0.32507 0.14229 0.69503 0.0
C294 C 0.32715 0.15235 0.67724 0.0
C295 C 0.34432 0.15602 0.6706 0.0
C296 C 0.35882 0.15091 0.68227 0.0
C297 C 0.33993 0.13734 0.70621 0.0
H298 H 0.37185 0.15476 0.67718 0.0
H299 H 0.33796 0.13021 0.72013 0.0
H300 H 0.40348 0.10695 0.72799 0.0
H301 H 0.39341 0.16733 0.7468 0.0
C302 C 0.40794 0.15805 0.69086 0.0
C303 C 0.37471 0.09589 0.69217 0.0
C304 C 0.36037 0.18688 0.72854 0.0
C305 C 0.35796 0.11912 0.75555 0.0
H306 H 0.4016 0.09596 0.66211 0.0
H307 H 0.42133 0.12965 0.66266 0.0
H308 H 0.40902 0.20181 0.68991 0.0
H309 H 0.38169 0.21758 0.70878 0.0
H310 H 0.34116 0.18498 0.76503 0.0
H311 H 0.34114 0.14806 0.78081 0.0
H312 H 0.35203 0.07596 0.75172 0.0
H313 H 0.35976 0.06362 0.71578 0.0
H314 H 0.42691 0.10346 0.75251 0.0
H315 H 0.41713 0.16548 0.77015 0.0
H316 H 0.31203 0.13881 0.70053 0.0
H317 H 0.34656 0.16383 0.65698 0.0
C318 C 0.87106 0.42736 0.79014 0.0
C319 C 0.88311 0.43192 0.80477 0.0
C320 C 0.89455 0.41563 0.8059 0.0
C321 C 0.88884 0.40212 0.79191 0.0
N322 N 0.87463 0.40908 0.78214 0.0
Co323 Co 0.86108 0.39449 0.76187 0.0
N324 N 0.87025 0.3679 0.77069 0.0
C325 C 0.88492 0.36494 0.78157 0.0
C326 C 0.88797 0.34472 0.7853 0.0
C327 C 0.87448 0.33445 0.77605 0.0
C328 C 0.86393 0.34903 0.76709 0.0
N329 N 0.84729 0.38013 0.74162 0.0
C330 C 0.84265 0.36033 0.7406 0.0
C331 C 0.83313 0.3565 0.72362 0.0
C332 C 0.83197 0.3746 0.71376 0.0
C333 C 0.84081 0.38844 0.72517 0.0
N334 N 0.85217 0.42112 0.753 0.0
C335 C 0.84541 0.42544 0.73536 0.0
C336 C 0.83977 0.44525 0.73396 0.0
C337 C 0.84319 0.45376 0.75185 0.0
C338 C 0.85083 0.4386 0.76315 0.0
N339 N 0.88106 0.39658 0.744 0.0
C340 C 0.91069 0.39728 0.71983 0.0
C341 C 0.89967 0.38028 0.72047 0.0
C342 C 0.88514 0.38014 0.73271 0.0
C343 C 0.90648 0.41418 0.73134 0.0
C344 C 0.8914 0.41364 0.74314 0.0
N345 N 0.84125 0.39182 0.77966 0.0
C346 C 0.80993 0.38852 0.78436 0.0
C347 C 0.81287 0.37939 0.80251 0.0
C348 C 0.83024 0.37836 0.80967 0.0
C349 C 0.84421 0.3847 0.79805 0.0
C350 C 0.82431 0.39474 0.7732 0.0
H351 H 0.85748 0.38264 0.80351 0.0
H352 H 0.82177 0.40083 0.7589 0.0
H353 H 0.87744 0.36639 0.7333 0.0
H354 H 0.88827 0.4268 0.75184 0.0
C355 C 0.89347 0.38146 0.79065 0.0
C356 C 0.85691 0.44085 0.78331 0.0
C357 C 0.8488 0.34453 0.75419 0.0
C358 C 0.84082 0.40963 0.7226 0.0
H359 H 0.88345 0.44545 0.81371 0.0
H360 H 0.90504 0.4134 0.81648 0.0
H361 H 0.89834 0.33823 0.79429 0.0
H362 H 0.87268 0.31813 0.77587 0.0
H363 H 0.82786 0.34209 0.71867 0.0
H364 H 0.82504 0.3774 0.70021 0.0
H365 H 0.8329 0.45232 0.72187 0.0
H366 H 0.84009 0.46917 0.75607 0.0
H367 H 0.90264 0.36677 0.71208 0.0
H368 H 0.91476 0.42761 0.73125 0.0
H369 H 0.79667 0.39004 0.77845 0.0
H370 H 0.8332 0.3714 0.82357 0.0
C371 C 0.62379 0.91892 0.69636 0.0
C372 C 0.61499 0.92199 0.67888 0.0
C373 C 0.60589 0.90443 0.67502 0.0
C374 C 0.60968 0.89169 0.6903 0.0
N375 N 0.62029 0.90033 0.70388 0.0
Co376 Co 0.63088 0.88701 0.72739 0.0
N377 N 0.6228 0.85946 0.71858 0.0
C378 C 0.61293 0.85511 0.70262 0.0
C379 C 0.61084 0.83465 0.69949 0.0
C380 C 0.62021 0.82542 0.7141 0.0
C381 C 0.62739 0.84084 0.72543 0.0
N382 N 0.64131 0.87394 0.75101 0.0
C383 C 0.64333 0.85402 0.75525 0.0
C384 C 0.65104 0.85129 0.77345 0.0
C385 C 0.65443 0.87024 0.78068 0.0
C386 C 0.64851 0.88339 0.76663 0.0
N387 N 0.63963 0.91436 0.73574 0.0
C388 C 0.6479 0.91925 0.75258 0.0
C389 C 0.65378 0.93897 0.75321 0.0
C390 C 0.64951 0.94693 0.73545 0.0
C391 C 0.64123 0.93152 0.72507 0.0
N392 N 0.60818 0.89094 0.74185 0.0
C393 C 0.57726 0.88966 0.76484 0.0
C394 C 0.5927 0.899 0.77166 0.0
C395 C 0.60778 0.89966 0.75997 0.0
C396 C 0.57723 0.88229 0.74583 0.0
C397 C 0.59255 0.88329 0.73469 0.0
N398 N 0.65318 0.88269 0.71326 0.0
C399 C 0.685 0.87928 0.71311 0.0
C400 C 0.68445 0.87154 0.69415 0.0
C401 C 0.66806 0.87051 0.68469 0.0
C402 C 0.65276 0.87617 0.69439 0.0
C403 C 0.66927 0.88487 0.72232 0.0
H404 H 0.64061 0.87451 0.68656 0.0
H405 H 0.67026 0.89045 0.73691 0.0
H406 H 0.61894 0.90705 0.76616 0.0
H407 H 0.59136 0.87727 0.72052 0.0
C408 C 0.60697 0.87058 0.69013 0.0
C409 C 0.63658 0.93314 0.70459 0.0
C410 C 0.63909 0.8373 0.74207 0.0
C411 C 0.65161 0.90436 0.76654 0.0
H412 H 0.61581 0.93512 0.66947 0.0
H413 H 0.5986 0.90082 0.66187 0.0
H414 H 0.6039 0.82732 0.6876 0.0
H415 H 0.6219 0.8092 0.7159 0.0
H416 H 0.65436 0.83707 0.7805 0.0
H417 H 0.66114 0.87394 0.79417 0.0
H418 H 0.66118 0.94633 0.76476 0.0
H419 H 0.65281 0.96201 0.73033 0.0
H420 H 0.59325 0.90563 0.78606 0.0
H421 H 0.56563 0.87499 0.73967 0.0
H422 H 0.69743 0.8807 0.72092 0.0
H423 H 0.66686 0.86447 0.6701 0.0
C424 C 0.25153 0.10098 0.38495 0.0
C425 C 0.26652 0.10509 0.39599 0.0
C426 C 0.26505 0.12503 0.40195 0.0
C427 C 0.24933 0.13194 0.39418 0.0
N428 N 0.24093 0.11749 0.38385 0.0
Co429 Co 0.2188 0.12079 0.36874 0.0
N430 N 0.222 0.1505 0.36724 0.0
C431 C 0.2322 0.16179 0.3792 0.0
C432 C 0.23143 0.18215 0.37483 0.0
C433 C 0.21995 0.18364 0.3593 0.0
C434 C 0.21437 0.16401 0.35499 0.0
N435 N 0.19661 0.1238 0.35367 0.0
C436 C 0.19117 0.13941 0.34233 0.0
C437 C 0.17482 0.13509 0.33393 0.0
C438 C 0.16981 0.11632 0.34069 0.0
C439 C 0.18337 0.11011 0.35269 0.0
N440 N 0.21577 0.09112 0.37036 0.0
C441 C 0.20063 0.08067 0.36806 0.0
C442 C 0.20328 0.05998 0.36905 0.0
C443 C 0.22119 0.05748 0.37205 0.0
C444 C 0.2284 0.07682 0.37269 0.0
N445 N 0.20549 0.12442 0.39283 0.0
C446 C 0.18788 0.13287 0.42766 0.0
C447 C 0.18408 0.1438 0.4107 0.0
C448 C 0.19297 0.13939 0.3936 0.0
C449 C 0.20052 0.11724 0.42671 0.0
C450 C 0.20907 0.11313 0.40909 0.0
N451 N 0.23199 0.11768 0.34466 0.0
C452 C 0.23364 0.10613 0.31156 0.0
C453 C 0.24927 0.11719 0.30895 0.0
C454 C 0.25642 0.12782 0.32477 0.0
C455 C 0.24754 0.12798 0.34241 0.0
C456 C 0.22531 0.10637 0.32964 0.0
H457 H 0.25299 0.13701 0.35406 0.0
H458 H 0.21321 0.09787 0.33131 0.0
H459 H 0.18996 0.1486 0.38109 0.0
H460 H 0.21882 0.10113 0.40867 0.0
C461 C 0.24434 0.15242 0.39199 0.0
C462 C 0.24715 0.08146 0.37581 0.0
C463 C 0.20061 0.1589 0.34055 0.0
C464 C 0.18564 0.09041 0.36026 0.0
H465 H 0.27745 0.09499 0.39913 0.0
H466 H 0.27488 0.13378 0.40983 0.0
H467 H 0.23876 0.19438 0.38167 0.0
H468 H 0.21599 0.19758 0.35215 0.0
H469 H 0.16724 0.14447 0.324 0.0
H470 H 0.15806 0.10787 0.33666 0.0
H471 H 0.19361 0.04811 0.36655 0.0
H472 H 0.2282 0.04318 0.37325 0.0
H473 H 0.17471 0.15625 0.41073 0.0
H474 H 0.2038 0.10832 0.43946 0.0
H475 H 0.22779 0.0976 0.29968 0.0
H476 H 0.26839 0.13674 0.32329 0.0
C477 C 0.89966 0.25305 0.40622 0.0
C478 C 0.90959 0.23633 0.40081 0.0
C479 C 0.91419 0.23943 0.3817 0.0
C480 C 0.9068 0.25784 0.37661 0.0
N481 N 0.898 0.26635 0.3914 0.0
Co482 Co 0.88402 0.29167 0.39065 0.0
N483 N 0.88161 0.29027 0.36211 0.0
C484 C 0.89199 0.27943 0.35012 0.0
C485 C 0.88697 0.28134 0.331 0.0
C486 C 0.87272 0.29431 0.33105 0.0
C487 C 0.86989 0.29977 0.35028 0.0
N488 N 0.86988 0.31691 0.39018 0.0
C489 C 0.85902 0.32414 0.3761 0.0
C490 C 0.8519 0.34275 0.38151 0.0
C491 C 0.85869 0.3472 0.39959 0.0
C492 C 0.86957 0.33117 0.40421 0.0
N493 N 0.88678 0.29305 0.41911 0.0
C494 C 0.88504 0.30968 0.43027 0.0
C495 C 0.88696 0.30533 0.44971 0.0
C496 C 0.89 0.28472 0.45067 0.0
C497 C 0.88981 0.27768 0.43169 0.0
N498 N 0.9057 0.3076 0.38744 0.0
C499 C 0.93741 0.32748 0.37823 0.0
C500 C 0.92123 0.33374 0.37014 0.0
C501 C 0.90571 0.32349 0.37466 0.0
C502 C 0.93713 0.3118 0.3921 0.0
C503 C 0.9211 0.30224 0.39667 0.0
N504 N 0.86243 0.27575 0.39348 0.0
C505 C 0.83421 0.26986 0.40843 0.0
C506 C 0.83179 0.25238 0.39711 0.0
C507 C 0.84492 0.24696 0.38386 0.0
C508 C 0.86006 0.25884 0.38225 0.0
C509 C 0.84971 0.2813 0.40647 0.0
H510 H 0.86988 0.25427 0.37189 0.0
H511 H 0.85142 0.29463 0.41542 0.0
H512 H 0.89379 0.32808 0.36721 0.0
H513 H 0.92125 0.28999 0.40711 0.0
C514 C 0.90398 0.26497 0.35759 0.0
C515 C 0.89242 0.25653 0.42559 0.0
C516 C 0.85683 0.31488 0.3568 0.0
C517 C 0.87739 0.32738 0.42246 0.0
H518 H 0.9129 0.22326 0.40966 0.0
H519 H 0.92105 0.22888 0.37234 0.0
H520 H 0.89248 0.27356 0.31858 0.0
H521 H 0.86532 0.29914 0.31836 0.0
H522 H 0.843 0.35228 0.37314 0.0
H523 H 0.85563 0.36028 0.4085 0.0
H524 H 0.88513 0.31559 0.46183 0.0
H525 H 0.89177 0.27596 0.46383 0.0
H526 H 0.9205 0.34624 0.35994 0.0
H527 H 0.94921 0.30637 0.39885 0.0
H528 H 0.82428 0.27455 0.41878 0.0
H529 H 0.8434 0.23375 0.37461 0.0
C530 C 0.79597 0.88252 0.41923 0.0
C531 C 0.81018 0.89546 0.42239 0.0
C532 C 0.81071 0.90836 0.40663 0.0
C533 C 0.79688 0.90253 0.39476 0.0
N534 N 0.78777 0.88686 0.40223 0.0
Co535 Co 0.76774 0.87249 0.38983 0.0
N536 N 0.77456 0.88217 0.36379 0.0
C537 C 0.78501 0.89824 0.36001 0.0
C538 C 0.78742 0.90107 0.34043 0.0
C539 C 0.77779 0.88592 0.33149 0.0
C540 C 0.76996 0.87468 0.34617 0.0
N541 N 0.74762 0.85807 0.37768 0.0
C542 C 0.74527 0.85252 0.35896 0.0
C543 C 0.72906 0.84284 0.35646 0.0
C544 C 0.72112 0.84246 0.37436 0.0
C545 C 0.73283 0.85194 0.38675 0.0
N546 N 0.76099 0.86292 0.41582 0.0
C547 C 0.74494 0.85637 0.42129 0.0
C548 C 0.74482 0.85002 0.44034 0.0
C549 C 0.76187 0.85276 0.44706 0.0
C550 C 0.77139 0.86062 0.43167 0.0
N551 N 0.75283 0.89659 0.39282 0.0
C552 C 0.73293 0.93243 0.39449 0.0
C553 C 0.73252 0.92007 0.37798 0.0
C554 C 0.74247 0.90238 0.37744 0.0
C555 C 0.743 0.92607 0.41059 0.0
C556 C 0.75296 0.90805 0.40943 0.0
N557 N 0.78251 0.84851 0.38624 0.0
C558 C 0.78415 0.81237 0.38173 0.0
C559 C 0.80013 0.81458 0.37176 0.0
C560 C 0.80791 0.83386 0.37089 0.0
C561 C 0.7989 0.85062 0.37825 0.0
C562 C 0.77562 0.82954 0.38905 0.0
H563 H 0.80466 0.86545 0.37624 0.0
H564 H 0.76293 0.82763 0.39586 0.0
H565 H 0.74197 0.89358 0.36428 0.0
H566 H 0.76098 0.90355 0.42175 0.0
C567 C 0.7947 0.90768 0.37505 0.0
C568 C 0.79006 0.86644 0.43243 0.0
C569 C 0.75734 0.85791 0.34312 0.0
C570 C 0.73195 0.85207 0.40716 0.0
H571 H 0.81931 0.89541 0.43456 0.0
H572 H 0.82072 0.91968 0.40363 0.0
H573 H 0.79577 0.91223 0.33347 0.0
H574 H 0.77666 0.88348 0.31599 0.0
H575 H 0.72349 0.83686 0.34311 0.0
H576 H 0.70862 0.83544 0.37798 0.0
H577 H 0.73397 0.84307 0.44807 0.0
H578 H 0.7668 0.84921 0.46147 0.0
H579 H 0.72459 0.92412 0.36538 0.0
H580 H 0.74355 0.93518 0.42369 0.0
H581 H 0.7779 0.79763 0.38311 0.0
H582 H 0.82027 0.83627 0.36335 0.0
C583 C 0.11701 0.74849 0.41883 0.0
C584 C 0.10494 0.76428 0.41737 0.0
C585 C 0.09784 0.76324 0.39889 0.0
C586 C 0.10599 0.74695 0.39013 0.0
N587 N 0.11762 0.73778 0.40209 0.0
Co588 Co 0.13366 0.71516 0.39546 0.0
N589 N 0.13182 0.7212 0.36742 0.0
C590 C 0.11892 0.73216 0.3588 0.0
C591 C 0.12129 0.73389 0.33911 0.0
C592 C 0.13648 0.72319 0.33521 0.0
C593 C 0.14251 0.71534 0.35278 0.0
N594 N 0.1497 0.69245 0.38922 0.0
C595 C 0.15888 0.68888 0.37281 0.0
C596 C 0.16817 0.67069 0.37429 0.0
C597 C 0.16452 0.66273 0.39226 0.0
C598 C 0.15321 0.67637 0.40075 0.0
N599 N 0.13534 0.70924 0.42342 0.0
C600 C 0.14014 0.69157 0.43167 0.0
C601 C 0.1408 0.69286 0.45163 0.0
C602 C 0.1362 0.7126 0.45598 0.0
C603 C 0.13302 0.72216 0.43838 0.0
N604 N 0.11337 0.69676 0.39282 0.0
C605 C 0.0827 0.67449 0.38456 0.0
C606 C 0.09753 0.67294 0.37271 0.0
C607 C 0.11268 0.684 0.37713 0.0
C608 C 0.0838 0.68646 0.40138 0.0
C609 C 0.09933 0.69756 0.40525 0.0
N610 N 0.15386 0.73356 0.39748 0.0
C611 C 0.1844 0.73997 0.40553 0.0
C612 C 0.18361 0.75883 0.39603 0.0
C613 C 0.16741 0.76501 0.388 0.0
C614 C 0.1528 0.75222 0.38885 0.0
C615 C 0.16932 0.7276 0.4062 0.0
H616 H 0.14077 0.75719 0.38185 0.0
H617 H 0.17026 0.71303 0.41333 0.0
H618 H 0.12358 0.68287 0.36723 0.0
H619 H 0.09977 0.70737 0.41783 0.0
C620 C 0.10679 0.74332 0.37002 0.0
C621 C 0.1277 0.7434 0.43603 0.0
C622 C 0.15751 0.70118 0.35502 0.0
C623 C 0.14795 0.67633 0.4203 0.0
H624 H 0.10185 0.77555 0.42824 0.0
H625 H 0.08882 0.77401 0.39223 0.0
H626 H 0.11335 0.74255 0.32891 0.0
H627 H 0.14234 0.72132 0.32103 0.0
H628 H 0.17646 0.6637 0.36343 0.0
H629 H 0.16989 0.64896 0.39856 0.0
H630 H 0.14525 0.68132 0.46174 0.0
H631 H 0.1356 0.71933 0.4703 0.0
H632 H 0.09721 0.66367 0.35969 0.0
H633 H 0.07253 0.68795 0.4109 0.0
H634 H 0.19662 0.73467 0.41211 0.0
H635 H 0.16617 0.77926 0.38022 0.0
C636 C 0.21227 0.88905 0.58626 0.0
C637 C 0.19809 0.90211 0.58351 0.0
C638 C 0.19829 0.91535 0.59904 0.0
C639 C 0.21253 0.9096 0.61038 0.0
N640 N 0.22119 0.89368 0.60278 0.0
Co641 Co 0.24132 0.87899 0.61464 0.0
N642 N 0.23558 0.88931 0.64078 0.0
C643 C 0.22561 0.90576 0.64468 0.0
C644 C 0.22396 0.90908 0.66429 0.0
C645 C 0.23359 0.89388 0.67311 0.0
C646 C 0.24067 0.88211 0.65834 0.0
N647 N 0.2614 0.86401 0.62623 0.0
C648 C 0.26422 0.85869 0.64495 0.0
C649 C 0.28023 0.84847 0.64694 0.0
C650 C 0.28757 0.84754 0.62877 0.0
C651 C 0.27573 0.85723 0.6167 0.0
N652 N 0.24714 0.86901 0.58851 0.0
C653 C 0.26289 0.86205 0.58254 0.0
C654 C 0.26236 0.85558 0.56352 0.0
C655 C 0.24518 0.85867 0.55738 0.0
C656 C 0.23626 0.86685 0.57306 0.0
N657 N 0.2567 0.9026 0.61083 0.0
C658 C 0.27842 0.93686 0.60727 0.0
C659 C 0.27924 0.92462 0.62382 0.0
C660 C 0.26826 0.9078 0.62538 0.0
C661 C 0.26647 0.93163 0.59239 0.0
C662 C 0.25584 0.91422 0.59436 0.0
N663 N 0.22611 0.85552 0.61898 0.0
C664 C 0.22262 0.8193 0.62107 0.0
C665 C 0.20713 0.82173 0.63198 0.0
C666 C 0.20072 0.84149 0.63487 0.0
C667 C 0.21027 0.8581 0.62807 0.0
C668 C 0.23195 0.83638 0.6148 0.0
H669 H 0.20529 0.8731 0.63111 0.0
H670 H 0.24427 0.83412 0.6073 0.0
H671 H 0.26902 0.89915 0.63862 0.0
H672 H 0.24683 0.91026 0.58271 0.0
C673 C 0.21552 0.91509 0.62988 0.0
C674 C 0.2176 0.87269 0.57306 0.0
C675 C 0.25299 0.86501 0.66122 0.0
C676 C 0.27611 0.85732 0.59627 0.0
H677 H 0.1885 0.90192 0.57177 0.0
H678 H 0.18852 0.92686 0.6023 0.0
H679 H 0.21608 0.9206 0.67137 0.0
H680 H 0.2352 0.89174 0.68861 0.0
H681 H 0.28612 0.84259 0.66017 0.0
H682 H 0.2998 0.84012 0.62478 0.0
H683 H 0.27282 0.84824 0.55548 0.0
H684 H 0.23974 0.85504 0.54321 0.0
H685 H 0.28802 0.92835 0.63582 0.0
H686 H 0.26543 0.94082 0.57938 0.0
H687 H 0.22784 0.80435 0.6179 0.0
H688 H 0.18891 0.84433 0.64324 0.0
C689 C 0.10488 0.25018 0.59592 0.0
C690 C 0.0953 0.23323 0.60145 0.0
C691 C 0.09119 0.23602 0.62074 0.0
C692 C 0.09849 0.25449 0.62583 0.0
N693 N 0.10676 0.26333 0.61084 0.0
Co694 Co 0.12061 0.28874 0.61145 0.0
N695 N 0.12398 0.28685 0.63984 0.0
C696 C 0.11401 0.27577 0.65206 0.0
C697 C 0.1195 0.27758 0.67104 0.0
C698 C 0.13362 0.29075 0.67066 0.0
C699 C 0.13592 0.29637 0.65138 0.0
N700 N 0.13464 0.31407 0.61172 0.0
C701 C 0.14588 0.32119 0.6255 0.0
C702 C 0.15278 0.33989 0.62003 0.0
C703 C 0.14543 0.34454 0.60226 0.0
C704 C 0.13446 0.32851 0.59786 0.0
N705 N 0.1169 0.29055 0.58314 0.0
C706 C 0.1182 0.30733 0.57213 0.0
C707 C 0.11578 0.30317 0.55269 0.0
C708 C 0.11292 0.28251 0.5516 0.0
C709 C 0.11372 0.27529 0.57049 0.0
N710 N 0.09899 0.30452 0.61588 0.0
C711 C 0.0677 0.32397 0.62741 0.0
C712 C 0.08421 0.33016 0.63465 0.0
C713 C 0.09952 0.32016 0.62896 0.0
C714 C 0.06736 0.30866 0.61315 0.0
C715 C 0.08319 0.29926 0.60745 0.0
N716 N 0.14219 0.27304 0.60753 0.0
C717 C 0.17063 0.26865 0.59262 0.0
C718 C 0.17392 0.25152 0.60421 0.0
C719 C 0.16083 0.24519 0.61714 0.0
C720 C 0.14514 0.25612 0.61858 0.0
C721 C 0.15462 0.27915 0.59444 0.0
H722 H 0.1355 0.25104 0.62895 0.0
H723 H 0.1524 0.2924 0.58552 0.0
H724 H 0.11172 0.32469 0.63584 0.0
H725 H 0.08259 0.28721 0.5968 0.0
C726 C 0.10186 0.26134 0.64484 0.0
C727 C 0.1116 0.25405 0.5764 0.0
C728 C 0.1486 0.31178 0.64465 0.0
C729 C 0.12605 0.32494 0.57987 0.0
H730 H 0.09193 0.22021 0.59255 0.0
H731 H 0.08474 0.22522 0.63021 0.0
H732 H 0.11435 0.26969 0.68358 0.0
H733 H 0.14125 0.29568 0.68316 0.0
H734 H 0.16191 0.34935 0.62818 0.0
H735 H 0.14816 0.35774 0.5934 0.0
H736 H 0.11722 0.31357 0.54063 0.0
H737 H 0.11091 0.27381 0.53844 0.0
H738 H 0.08537 0.34237 0.64513 0.0
H739 H 0.05495 0.30338 0.60701 0.0
H740 H 0.18039 0.274 0.58238 0.0
H741 H 0.1629 0.23225 0.62661 0.0
C742 C 0.747 0.10105 0.61079 0.0
C743 C 0.7324 0.1039 0.59879 0.0
C744 C 0.73293 0.12389 0.59282 0.0
C745 C 0.74775 0.13209 0.60154 0.0
N746 N 0.75645 0.11839 0.61248 0.0
Co747 Co 0.77755 0.12352 0.62884 0.0
N748 N 0.77244 0.15289 0.62998 0.0
C749 C 0.76218 0.16329 0.61737 0.0
C750 C 0.76144 0.18367 0.62168 0.0
C751 C 0.772 0.18612 0.63787 0.0
C752 C 0.77857 0.16701 0.64261 0.0
N753 N 0.79878 0.12841 0.64509 0.0
C754 C 0.80265 0.14443 0.65667 0.0
C755 C 0.81877 0.14144 0.6661 0.0
C756 C 0.82527 0.12314 0.65972 0.0
C757 C 0.81277 0.11584 0.64694 0.0
N758 N 0.78248 0.09417 0.62764 0.0
C759 C 0.79809 0.08498 0.63091 0.0
C760 C 0.79677 0.06413 0.62987 0.0
C761 C 0.77923 0.06017 0.6258 0.0
C762 C 0.7709 0.07888 0.62461 0.0
N763 N 0.79168 0.12811 0.60552 0.0
C764 C 0.80839 0.13912 0.57097 0.0
C765 C 0.81111 0.15031 0.58798 0.0
C766 C 0.80279 0.14451 0.60504 0.0
C767 C 0.79798 0.1215 0.57182 0.0
C768 C 0.78966 0.11627 0.5893 0.0
N769 N 0.76345 0.11946 0.65214 0.0
C770 C 0.7611 0.1087 0.68542 0.0
C771 C 0.74469 0.11846 0.6869 0.0
C772 C 0.73754 0.1279 0.67043 0.0
C773 C 0.74716 0.12837 0.65329 0.0
C774 C 0.77016 0.10912 0.66778 0.0
H775 H 0.74167 0.13664 0.64117 0.0
H776 H 0.78285 0.10167 0.66696 0.0
H777 H 0.80483 0.15388 0.61767 0.0
H778 H 0.7811 0.10312 0.58954 0.0
C779 C 0.75133 0.15294 0.6039 0.0
C780 C 0.75211 0.08198 0.62031 0.0
C781 C 0.7919 0.16307 0.65785 0.0
C782 C 0.81206 0.09595 0.63945 0.0
H783 H 0.7223 0.09293 0.59501 0.0
H784 H 0.72302 0.13179 0.58427 0.0
H785 H 0.75374 0.19526 0.61435 0.0
H786 H 0.77472 0.20036 0.64517 0.0
H787 H 0.8252 0.15138 0.67649 0.0
H788 H 0.83728 0.11566 0.66455 0.0
H789 H 0.80702 0.05308 0.63301 0.0
H790 H 0.77318 0.04534 0.62425 0.0
H791 H 0.81931 0.16383 0.58799 0.0
H792 H 0.79565 0.11241 0.55894 0.0
H793 H 0.76698 0.10112 0.69785 0.0
H794 H 0.72498 0.1358 0.67105 0.0
C795 C 0.88924 0.74154 0.58714 0.0
C796 C 0.9018 0.75664 0.58973 0.0
C797 C 0.90865 0.754 0.60818 0.0
C798 C 0.89986 0.73749 0.61576 0.0
N799 N 0.88808 0.7297 0.6031 0.0
Co800 Co 0.87126 0.70731 0.60795 0.0
N801 N 0.87312 0.71103 0.63633 0.0
C802 C 0.88635 0.72066 0.6458 0.0
C803 C 0.8839 0.72092 0.66555 0.0
C804 C 0.86831 0.71067 0.66857 0.0
C805 C 0.86213 0.70454 0.65044 0.0
N806 N 0.85424 0.68505 0.61242 0.0
C807 C 0.84466 0.68085 0.62842 0.0
C808 C 0.83456 0.66343 0.62557 0.0
C809 C 0.83809 0.65661 0.60714 0.0
C810 C 0.85015 0.67012 0.59976 0.0
N811 N 0.8697 0.70355 0.57963 0.0
C812 C 0.86431 0.68679 0.57014 0.0
C813 C 0.86392 0.68959 0.55032 0.0
C814 C 0.86931 0.70936 0.54738 0.0
C815 C 0.87267 0.71741 0.56562 0.0
N816 N 0.8909 0.68785 0.60951 0.0
C817 C 0.92113 0.66469 0.61815 0.0
C818 C 0.9051 0.66114 0.62763 0.0
C819 C 0.89038 0.67301 0.62339 0.0
C820 C 0.9212 0.67889 0.60288 0.0
C821 C 0.90584 0.69012 0.59861 0.0
N822 N 0.85176 0.72674 0.60703 0.0
C823 C 0.82174 0.73544 0.5986 0.0
C824 C 0.82305 0.75344 0.60946 0.0
C825 C 0.83922 0.75802 0.61849 0.0
C826 C 0.85331 0.74454 0.61713 0.0
C827 C 0.83631 0.72234 0.59746 0.0
H828 H 0.86534 0.74827 0.62481 0.0
H829 H 0.83498 0.70847 0.58922 0.0
H830 H 0.87887 0.67078 0.63221 0.0
H831 H 0.90632 0.70138 0.58721 0.0
C832 C 0.89886 0.73225 0.63553 0.0
C833 C 0.87872 0.73812 0.5695 0.0
C834 C 0.84648 0.6916 0.64705 0.0
C835 C 0.85569 0.67122 0.58033 0.0
H836 H 0.90539 0.76843 0.57953 0.0
H837 H 0.91799 0.76383 0.61561 0.0
H838 H 0.89204 0.72841 0.67639 0.0
H839 H 0.86226 0.70806 0.68253 0.0
H840 H 0.82582 0.65618 0.63585 0.0
H841 H 0.83217 0.64369 0.59984 0.0
H842 H 0.8591 0.67908 0.5394 0.0
H843 H 0.87029 0.7171 0.53356 0.0
H844 H 0.90404 0.6498 0.63896 0.0
H845 H 0.93319 0.68207 0.59494 0.0
H846 H 0.80953 0.7314 0.59122 0.0
H847 H 0.84082 0.77152 0.62734 0.0
C848 C 0.39176 0.25391 0.10121 0.0
C849 C 0.40181 0.2705 0.10685 0.0
C850 C 0.40623 0.26738 0.1261 0.0
C851 C 0.39861 0.24908 0.13103 0.0
N852 N 0.38985 0.24066 0.11601 0.0
Co853 Co 0.3755 0.2156 0.11645 0.0
N854 N 0.37287 0.21711 0.14492 0.0
C855 C 0.38334 0.22776 0.15716 0.0
C856 C 0.37822 0.22589 0.17617 0.0
C857 C 0.36381 0.21315 0.17578 0.0
C858 C 0.36099 0.20778 0.15648 0.0
N859 N 0.36093 0.19067 0.11655 0.0
C860 C 0.34985 0.18367 0.13035 0.0
C861 C 0.34246 0.16522 0.12474 0.0
C862 C 0.3493 0.16062 0.10684 0.0
C863 C 0.36049 0.17641 0.10252 0.0
N864 N 0.37853 0.21405 0.08808 0.0
C865 C 0.37668 0.19742 0.07693 0.0
C866 C 0.37898 0.20162 0.05754 0.0
C867 C 0.38238 0.22216 0.05661 0.0
C868 C 0.382 0.22929 0.07556 0.0
N869 N 0.39689 0.19926 0.12041 0.0
C870 C 0.42831 0.1806 0.1329 0.0
C871 C 0.41183 0.17379 0.13941 0.0
C872 C 0.39643 0.18344 0.13326 0.0
C873 C 0.42858 0.19576 0.11853 0.0
C874 C 0.41266 0.20471 0.11228 0.0
N875 N 0.3542 0.23197 0.11304 0.0
C876 C 0.32581 0.23822 0.09809 0.0
C877 C 0.3235 0.25543 0.10981 0.0
C878 C 0.33687 0.26063 0.12306 0.0
C879 C 0.35202 0.24876 0.12445 0.0
C880 C 0.34135 0.22673 0.09986 0.0
H881 H 0.36195 0.25315 0.13492 0.0
H882 H 0.34294 0.21351 0.09075 0.0
H883 H 0.38423 0.1787 0.13982 0.0
H884 H 0.4132 0.21678 0.10168 0.0
C885 C 0.39557 0.24201 0.14998 0.0
C886 C 0.38471 0.25043 0.08163 0.0
C887 C 0.34778 0.19287 0.14966 0.0
C888 C 0.36861 0.17994 0.08453 0.0
H889 H 0.40534 0.2835 0.09806 0.0
H890 H 0.41313 0.27785 0.13562 0.0
H891 H 0.38378 0.23353 0.18873 0.0
H892 H 0.35631 0.20838 0.18829 0.0
H893 H 0.33336 0.15587 0.13288 0.0
H894 H 0.34613 0.14759 0.09786 0.0
H895 H 0.37717 0.19135 0.04541 0.0
H896 H 0.38448 0.2308 0.04349 0.0
H897 H 0.41079 0.16159 0.1499 0.0
H898 H 0.44095 0.20143 0.11287 0.0
H899 H 0.31572 0.23368 0.08771 0.0
H900 H 0.33548 0.27357 0.13267 0.0
C901 C 0.38751 0.73787 0.88604 0.0
C902 C 0.3988 0.72191 0.88191 0.0
C903 C 0.40416 0.72466 0.86299 0.0
C904 C 0.39583 0.74213 0.85672 0.0
N905 N 0.38572 0.75037 0.8706 0.0
Co906 Co 0.37017 0.77432 0.868 0.0
N907 N 0.36932 0.77152 0.83949 0.0
C908 C 0.3812 0.7615 0.82858 0.0
C909 C 0.37737 0.7627 0.80907 0.0
C910 C 0.36227 0.7743 0.80775 0.0
C911 C 0.35766 0.77949 0.82661 0.0
N912 N 0.35443 0.79819 0.86562 0.0
C913 C 0.34367 0.80364 0.85072 0.0
C914 C 0.33442 0.82124 0.85526 0.0
C915 C 0.33999 0.82713 0.87346 0.0
C916 C 0.35217 0.81278 0.87911 0.0
N917 N 0.37136 0.77717 0.89646 0.0
C918 C 0.36789 0.794 0.90682 0.0
C919 C 0.36931 0.79068 0.9265 0.0
C920 C 0.37385 0.77051 0.92846 0.0
C921 C 0.37497 0.76273 0.90981 0.0
N922 N 0.39088 0.792 0.86538 0.0
C923 C 0.42173 0.81392 0.85687 0.0
C924 C 0.40561 0.81847 0.84766 0.0
C925 C 0.39052 0.80725 0.85191 0.0
C926 C 0.42173 0.799 0.87149 0.0
C927 C 0.40612 0.78838 0.87566 0.0
N928 N 0.34955 0.75662 0.87016 0.0
C929 C 0.32037 0.74965 0.88222 0.0
C930 C 0.31928 0.73212 0.87064 0.0
C931 C 0.33388 0.72691 0.85928 0.0
C932 C 0.34881 0.73929 0.85926 0.0
C933 C 0.33566 0.76166 0.88182 0.0
H934 H 0.35963 0.73503 0.85003 0.0
H935 H 0.33614 0.7752 0.89064 0.0
H936 H 0.3787 0.81051 0.84366 0.0
H937 H 0.40653 0.77668 0.88665 0.0
C938 C 0.3937 0.74841 0.83731 0.0
C939 C 0.37928 0.7417 0.90483 0.0
C940 C 0.34315 0.79335 0.83172 0.0
C941 C 0.3593 0.8105 0.89791 0.0
H942 H 0.40259 0.70959 0.8915 0.0
H943 H 0.41225 0.71446 0.8545 0.0
H944 H 0.38433 0.75545 0.79726 0.0
H945 H 0.35555 0.77858 0.79444 0.0
H946 H 0.32473 0.8291 0.84639 0.0
H947 H 0.33516 0.83987 0.88184 0.0
H948 H 0.3662 0.8012 0.93807 0.0
H949 H 0.37573 0.76242 0.942 0.0
H950 H 0.40465 0.83032 0.8368 0.0
H951 H 0.4338 0.79492 0.87912 0.0
H952 H 0.30945 0.75415 0.89136 0.0
H953 H 0.33359 0.71374 0.84984 0.0
C954 C 0.2374 0.39976 0.88833 0.0
C955 C 0.222 0.3973 0.89886 0.0
C956 C 0.22134 0.37709 0.90409 0.0
C957 C 0.23632 0.3684 0.89643 0.0
N958 N 0.24622 0.38201 0.88685 0.0
Co959 Co 0.26818 0.37645 0.87254 0.0
N960 N 0.2622 0.34738 0.86995 0.0
C961 C 0.25053 0.33706 0.88083 0.0
C962 C 0.24864 0.31726 0.8748 0.0
C963 C 0.25988 0.31513 0.8593 0.0
C964 C 0.26819 0.33378 0.85683 0.0
N965 N 0.29028 0.37105 0.8585 0.0
C966 C 0.29419 0.35538 0.84665 0.0
C967 C 0.31136 0.35713 0.83981 0.0
C968 C 0.31824 0.37468 0.84771 0.0
C969 C 0.30498 0.3826 0.85898 0.0
N970 N 0.274 0.40548 0.87504 0.0
C971 C 0.29012 0.41396 0.87371 0.0
C972 C 0.28941 0.43484 0.87502 0.0
C973 C 0.27175 0.43954 0.87723 0.0
C974 C 0.26274 0.42121 0.87714 0.0
N975 N 0.28044 0.3706 0.89706 0.0
C976 C 0.29632 0.35966 0.93241 0.0
C977 C 0.29872 0.34785 0.91576 0.0
C978 C 0.29082 0.35361 0.8983 0.0
C979 C 0.2863 0.37754 0.93089 0.0
C980 C 0.27835 0.38269 0.91306 0.0
N981 N 0.25604 0.38185 0.84796 0.0
C982 C 0.25708 0.39325 0.8148 0.0
C983 C 0.24074 0.38398 0.81097 0.0
C984 C 0.23179 0.37463 0.82629 0.0
C985 C 0.23969 0.37365 0.84461 0.0
C986 C 0.2644 0.39224 0.83348 0.0
H987 H 0.23289 0.36545 0.85585 0.0
H988 H 0.27714 0.39918 0.83603 0.0
H989 H 0.29287 0.34401 0.88584 0.0
H990 H 0.27026 0.3962 0.91227 0.0
C991 C 0.23918 0.34748 0.89357 0.0
C992 C 0.24367 0.41881 0.8798 0.0
C993 C 0.28226 0.3382 0.84273 0.0
C994 C 0.30442 0.4024 0.86679 0.0
H995 H 0.21216 0.40873 0.9021 0.0
H996 H 0.2106 0.36944 0.9114 0.0
H997 H 0.23948 0.30602 0.88027 0.0
H998 H 0.26153 0.30147 0.85079 0.0
H999 H 0.31817 0.34684 0.83014 0.0
H1000 H 0.33107 0.38131 0.84483 0.0
H1001 H 0.30023 0.44546 0.87335 0.0
H1002 H 0.26611 0.4546 0.87855 0.0
H1003 H 0.30662 0.3341 0.91624 0.0
H1004 H 0.28417 0.38709 0.94348 0.0
H1005 H 0.2643 0.40085 0.80337 0.0
H1006 H 0.21919 0.36714 0.82391 0.0
C1007 C 0.60986 0.25055 0.90785 0.0
C1008 C 0.59803 0.26632 0.90482 0.0
C1009 C 0.59062 0.26314 0.8867 0.0
C1010 C 0.59837 0.24566 0.87975 0.0
N1011 N 0.61003 0.23778 0.8925 0.0
Co1012 Co 0.62546 0.21396 0.88844 0.0
N1013 N 0.62316 0.21624 0.85994 0.0
C1014 C 0.61028 0.22629 0.85029 0.0
C1015 C 0.61233 0.22529 0.8305 0.0
C1016 C 0.62726 0.21378 0.82766 0.0
C1017 C 0.63349 0.20821 0.84594 0.0
N1018 N 0.64097 0.19018 0.88471 0.0
C1019 C 0.64986 0.18431 0.86871 0.0
C1020 C 0.65894 0.16628 0.87218 0.0
C1021 C 0.65546 0.1608 0.89103 0.0
C1022 C 0.64446 0.17568 0.89801 0.0
N1023 N 0.62752 0.21173 0.91687 0.0
C1024 C 0.63217 0.19516 0.9271 0.0
C1025 C 0.63324 0.19907 0.94673 0.0
C1026 C 0.62907 0.21935 0.94874 0.0
C1027 C 0.62571 0.22658 0.93019 0.0
N1028 N 0.60477 0.19603 0.88845 0.0
C1029 C 0.57315 0.17439 0.88287 0.0
C1030 C 0.5881 0.17027 0.87164 0.0
C1031 C 0.60365 0.1811 0.87469 0.0
C1032 C 0.57475 0.18885 0.89783 0.0
C1033 C 0.59074 0.19941 0.90047 0.0
N1034 N 0.64603 0.23185 0.88784 0.0
C1035 C 0.67674 0.23855 0.89489 0.0
C1036 C 0.67634 0.25528 0.8823 0.0
C1037 C 0.6603 0.26072 0.87353 0.0
C1038 C 0.64534 0.2489 0.87654 0.0
C1039 C 0.66137 0.22696 0.89743 0.0
H1040 H 0.63334 0.25319 0.86909 0.0
H1041 H 0.66201 0.21367 0.90661 0.0
H1042 H 0.61447 0.17808 0.86504 0.0
H1043 H 0.59155 0.2109 0.91165 0.0
C1044 C 0.59863 0.23928 0.86025 0.0
C1045 C 0.62062 0.2474 0.92535 0.0
C1046 C 0.64839 0.19425 0.84965 0.0
C1047 C 0.63954 0.17835 0.91752 0.0
H1048 H 0.5953 0.27888 0.91449 0.0
H1049 H 0.58162 0.27317 0.87902 0.0
H1050 H 0.60438 0.23275 0.81947 0.0
H1051 H 0.63286 0.20994 0.81372 0.0
H1052 H 0.66698 0.15779 0.86208 0.0
H1053 H 0.66076 0.14786 0.89884 0.0
H1054 H 0.63769 0.18884 0.95806 0.0
H1055 H 0.62884 0.22792 0.96216 0.0
H1056 H 0.58759 0.15957 0.85969 0.0
H1057 H 0.56364 0.19236 0.90708 0.0
H1058 H 0.68895 0.23396 0.90196 0.0
H1059 H 0.65944 0.27374 0.86393 0.0
C1060 C 0.75338 0.60553 0.89041 0.0
C1061 C 0.76862 0.6072 0.90159 0.0
C1062 C 0.76889 0.6268 0.9087 0.0
C1063 C 0.75381 0.63591 0.90148 0.0
N1064 N 0.74421 0.62313 0.89041 0.0
Co1065 Co 0.72234 0.62966 0.87598 0.0
N1066 N 0.7278 0.65898 0.87628 0.0
C1067 C 0.73914 0.66837 0.88849 0.0
C1068 C 0.74069 0.68875 0.88451 0.0
C1069 C 0.72956 0.69227 0.86897 0.0
C1070 C 0.72163 0.6738 0.86441 0.0
N1071 N 0.70039 0.63597 0.86156 0.0
C1072 C 0.69632 0.6527 0.8511 0.0
C1073 C 0.67928 0.65124 0.8435 0.0
C1074 C 0.67265 0.63282 0.84949 0.0
C1075 C 0.68591 0.62412 0.86045 0.0
N1076 N 0.71696 0.60034 0.87578 0.0
C1077 C 0.70095 0.59184 0.87318 0.0
C1078 C 0.70182 0.57096 0.87271 0.0
C1079 C 0.71945 0.56624 0.87512 0.0
C1080 C 0.72837 0.58458 0.87703 0.0
N1081 N 0.70961 0.63286 0.90049 0.0
C1082 C 0.6924 0.63964 0.93582 0.0
C1083 C 0.68939 0.65234 0.91986 0.0
C1084 C 0.69816 0.64882 0.90248 0.0
C1085 C 0.70411 0.62325 0.93369 0.0
C1086 C 0.71243 0.61998 0.9158 0.0
N1087 N 0.73498 0.62691 0.85151 0.0
C1088 C 0.73522 0.61768 0.8177 0.0
C1089 C 0.75156 0.6274 0.8154 0.0
C1090 C 0.75974 0.63611 0.83169 0.0
C1091 C 0.7512 0.6358 0.84954 0.0
C1092 C 0.72724 0.61739 0.83596 0.0
H1093 H 0.75751 0.64337 0.86162 0.0
H1094 H 0.71457 0.61002 0.83739 0.0
H1095 H 0.69586 0.65931 0.89072 0.0
H1096 H 0.72134 0.60723 0.91441 0.0
C1097 C 0.75057 0.65695 0.90052 0.0
C1098 C 0.74748 0.5871 0.88032 0.0
C1099 C 0.70778 0.67066 0.8495 0.0
C1100 C 0.68664 0.60376 0.86665 0.0
H1101 H 0.77855 0.59561 0.90404 0.0
H1102 H 0.77943 0.63388 0.91702 0.0
H1103 H 0.74956 0.69957 0.89134 0.0
H1104 H 0.72771 0.70674 0.8618 0.0
H1105 H 0.67236 0.66234 0.83468 0.0
H1106 H 0.65997 0.62626 0.84563 0.0
H1107 H 0.69113 0.56045 0.86967 0.0
H1108 H 0.72497 0.5511 0.8751 0.0
H1109 H 0.68067 0.66537 0.92094 0.0
H1110 H 0.70675 0.61303 0.94571 0.0
H1111 H 0.72856 0.61061 0.80546 0.0
H1112 H 0.7723 0.64392 0.83048 0.0
C1113 C 0.61683 0.74194 0.11809 0.0
C1114 C 0.60481 0.7265 0.1215 0.0
C1115 C 0.59918 0.72897 0.14037 0.0
C1116 C 0.60809 0.74575 0.14736 0.0
N1117 N 0.61882 0.75383 0.13395 0.0
Co1118 Co 0.63529 0.77682 0.13765 0.0
N1119 N 0.63553 0.77303 0.16604 0.0
C1120 C 0.62308 0.76333 0.17641 0.0
C1121 C 0.62676 0.76357 0.19599 0.0
C1122 C 0.64239 0.77416 0.1979 0.0
C1123 C 0.64742 0.77976 0.1793 0.0
N1124 N 0.6519 0.79973 0.14107 0.0
C1125 C 0.6627 0.80397 0.15627 0.0
C1126 C 0.67272 0.82122 0.15249 0.0
C1127 C 0.6676 0.82811 0.13446 0.0
C1128 C 0.6549 0.81467 0.12814 0.0
N1129 N 0.63479 0.78062 0.1093 0.0
C1130 C 0.63907 0.79756 0.09952 0.0
C1131 C 0.63808 0.79482 0.07971 0.0
C1132 C 0.63296 0.7749 0.07709 0.0
C1133 C 0.63113 0.76669 0.09549 0.0
N1134 N 0.61523 0.79551 0.14046 0.0
C1135 C 0.58489 0.81813 0.1498 0.0
C1136 C 0.60115 0.82181 0.15909 0.0
C1137 C 0.61596 0.81025 0.15444 0.0
C1138 C 0.58456 0.80381 0.13461 0.0
C1139 C 0.59993 0.79288 0.13001 0.0
N1140 N 0.65522 0.75807 0.13537 0.0
C1141 C 0.68439 0.74979 0.12396 0.0
C1142 C 0.68417 0.73156 0.13453 0.0
C1143 C 0.66904 0.7268 0.14519 0.0
C1144 C 0.65482 0.74021 0.14546 0.0
C1145 C 0.6697 0.76279 0.12446 0.0
H1146 H 0.64359 0.73623 0.1542 0.0
H1147 H 0.67013 0.77677 0.11629 0.0
H1148 H 0.62784 0.81275 0.16284 0.0
H1149 H 0.59922 0.78163 0.1186 0.0
C1150 C 0.61017 0.75126 0.16702 0.0
C1151 C 0.62589 0.74579 0.09974 0.0
C1152 C 0.66269 0.79273 0.17476 0.0
C1153 C 0.64805 0.81337 0.10912 0.0
H1154 H 0.60074 0.71465 0.11151 0.0
H1155 H 0.59052 0.71894 0.14836 0.0
H1156 H 0.61938 0.75626 0.20745 0.0
H1157 H 0.64921 0.77748 0.21141 0.0
H1158 H 0.68267 0.82816 0.16171 0.0
H1159 H 0.67308 0.84086 0.12659 0.0
H1160 H 0.64183 0.8055 0.06852 0.0
H1161 H 0.63114 0.76719 0.06333 0.0
H1162 H 0.60243 0.8332 0.17037 0.0
H1163 H 0.57241 0.80038 0.12686 0.0
H1164 H 0.69581 0.754 0.11544 0.0
H1165 H 0.66837 0.7131 0.15388 0.0
C1166 C 0.24625 0.60804 0.11164 0.0
C1167 C 0.23137 0.61149 0.10024 0.0
C1168 C 0.23256 0.63129 0.09383 0.0
C1169 C 0.24808 0.63875 0.10166 0.0
N1170 N 0.25656 0.62475 0.11248 0.0
Co1171 Co 0.27867 0.62874 0.12734 0.0
N1172 N 0.27519 0.65842 0.12796 0.0
C1173 C 0.26495 0.66927 0.1157 0.0
C1174 C 0.26533 0.68972 0.11985 0.0
C1175 C 0.27655 0.69167 0.13559 0.0
C1176 C 0.28236 0.67224 0.14021 0.0
N1177 N 0.30092 0.63263 0.14208 0.0
C1178 C 0.30593 0.64852 0.15327 0.0
C1179 C 0.32234 0.64479 0.1618 0.0
C1180 C 0.32777 0.62607 0.15527 0.0
C1181 C 0.31439 0.6193 0.1433 0.0
N1182 N 0.28202 0.59903 0.12666 0.0
C1183 C 0.29734 0.58899 0.12927 0.0
C1184 C 0.29507 0.56826 0.1289 0.0
C1185 C 0.27723 0.56524 0.12593 0.0
C1186 C 0.26962 0.58439 0.12453 0.0
N1187 N 0.29171 0.63158 0.10303 0.0
C1188 C 0.30702 0.63998 0.06705 0.0
C1189 C 0.31121 0.65167 0.08341 0.0
C1190 C 0.30355 0.64717 0.10121 0.0
C1191 C 0.29581 0.62318 0.06929 0.0
C1192 C 0.28823 0.61926 0.08744 0.0
N1193 N 0.26564 0.62639 0.15159 0.0
C1194 C 0.26447 0.61676 0.18526 0.0
C1195 C 0.24882 0.62789 0.18754 0.0
C1196 C 0.24138 0.63746 0.17128 0.0
C1197 C 0.25002 0.63663 0.15353 0.0
C1198 C 0.27256 0.61597 0.16706 0.0
H1199 H 0.24437 0.64495 0.14153 0.0
H1200 H 0.28472 0.60752 0.16564 0.0
H1201 H 0.30672 0.65687 0.11336 0.0
H1202 H 0.27906 0.60674 0.08873 0.0
C1203 C 0.25289 0.65938 0.10317 0.0
C1204 C 0.25081 0.5887 0.12094 0.0
C1205 C 0.29568 0.66743 0.15518 0.0
C1206 C 0.31228 0.5993 0.1365 0.0
H1207 H 0.22078 0.60089 0.0971 0.0
H1208 H 0.22274 0.63957 0.08548 0.0
H1209 H 0.25781 0.70168 0.11284 0.0
H1210 H 0.28012 0.70575 0.14276 0.0
H1211 H 0.32961 0.65438 0.17181 0.0
H1212 H 0.3396 0.61793 0.15962 0.0
H1213 H 0.30495 0.55671 0.13175 0.0
H1214 H 0.27071 0.55065 0.12523 0.0
H1215 H 0.32008 0.66457 0.08236 0.0
H1216 H 0.29229 0.61373 0.05696 0.0
H1217 H 0.27054 0.60901 0.19749 0.0
H1218 H 0.22938 0.64637 0.17247 0.0
C1219 C 0.76004 0.39851 0.11882 0.0
C1220 C 0.77485 0.39322 0.10824 0.0
C1221 C 0.77243 0.37329 0.10261 0.0
C1222 C 0.75631 0.36761 0.11006 0.0
N1223 N 0.74859 0.38282 0.11989 0.0
Co1224 Co 0.72616 0.38149 0.13429 0.0
N1225 N 0.7277 0.35165 0.13635 0.0
C1226 C 0.73734 0.33939 0.12489 0.0
C1227 C 0.73543 0.31923 0.12967 0.0
C1228 C 0.72381 0.31893 0.14495 0.0
C1229 C 0.7193 0.33902 0.14869 0.0
N1230 N 0.70369 0.38037 0.1487 0.0
C1231 C 0.69738 0.36543 0.1602 0.0
C1232 C 0.68117 0.37099 0.16798 0.0
C1233 C 0.6772 0.38991 0.16068 0.0
C1234 C 0.69118 0.39494 0.149 0.0
N1235 N 0.72475 0.41131 0.13203 0.0
C1236 C 0.71015 0.42281 0.13369 0.0
C1237 C 0.71385 0.44324 0.13227 0.0
C1238 C 0.73187 0.44447 0.12965 0.0
C1239 C 0.7381 0.42466 0.12959 0.0
N1240 N 0.71301 0.37838 0.10983 0.0
C1241 C 0.69595 0.37023 0.07437 0.0
C1242 C 0.69095 0.36021 0.09138 0.0
C1243 C 0.69962 0.36442 0.10882 0.0
C1244 C 0.70938 0.38493 0.07558 0.0
C1245 C 0.71762 0.38895 0.09352 0.0
N1246 N 0.73924 0.38412 0.15873 0.0
C1247 C 0.74156 0.39673 0.19146 0.0
C1248 C 0.75666 0.38481 0.19466 0.0
C1249 C 0.76312 0.37301 0.17937 0.0
C1250 C 0.75417 0.37276 0.16162 0.0
C1251 C 0.73316 0.39637 0.17328 0.0
H1252 H 0.75912 0.36297 0.15037 0.0
H1253 H 0.72153 0.40562 0.17112 0.0
H1254 H 0.6958 0.3558 0.1214 0.0
H1255 H 0.72802 0.4002 0.09413 0.0
C1256 C 0.75015 0.34757 0.11235 0.0
C1257 C 0.75658 0.41857 0.12712 0.0
C1258 C 0.70594 0.34552 0.1628 0.0
C1259 C 0.69458 0.41429 0.14118 0.0
H1260 H 0.7862 0.4027 0.10516 0.0
H1261 H 0.78183 0.36376 0.09508 0.0
H1262 H 0.74215 0.30633 0.12331 0.0
H1263 H 0.71909 0.30549 0.15234 0.0
H1264 H 0.67304 0.36236 0.17787 0.0
H1265 H 0.66585 0.39921 0.1642 0.0
H1266 H 0.70478 0.4558 0.13423 0.0
H1267 H 0.73953 0.45829 0.12831 0.0
H1268 H 0.68086 0.34851 0.09113 0.0
H1269 H 0.71358 0.39313 0.06278 0.0
H1270 H 0.73625 0.40613 0.20295 0.0
H1271 H 0.77465 0.36342 0.18133 0.0
C1272 C 0.23491 0.55519 0.11966 0.0
C1273 C 0.23675 0.5747 0.12762 0.0
C1274 C 0.22243 0.54162 0.12712 0.0
C1275 C 0.19621 0.53242 0.17164 0.0
H1276 H 0.17305 0.49174 0.13956 0.0
C1277 C 0.1462 0.4757 0.20369 0.0
C1278 C 0.14946 0.45527 0.19913 0.0
C1279 C 0.15473 0.49121 0.19349 0.0
C1280 C 0.17946 0.503 0.14869 0.0
H1281 H 0.22638 0.59597 0.1486 0.0
H1282 H 0.20416 0.57259 0.16132 0.0
H1283 H 0.19172 0.51748 0.12442 0.0
H1284 H 0.16317 0.43483 0.1798 0.0
H1285 H 0.17799 0.46194 0.16169 0.0
H1286 H 0.18394 0.51792 0.19589 0.0
C1287 C 0.21272 0.56738 0.1498 0.0
C1288 C 0.19022 0.51772 0.14005 0.0
C1289 C 0.22531 0.58085 0.14243 0.0
C1290 C 0.16053 0.45054 0.18352 0.0
C1291 C 0.16895 0.46605 0.17318 0.0
C1292 C 0.18533 0.51784 0.18024 0.0
C1293 C 0.21133 0.54742 0.14251 0.0
C1294 C 0.19893 0.53249 0.15144 0.0
C1295 C 0.16647 0.48654 0.17836 0.0
C1296 C 0.17698 0.50283 0.1689 0.0
H1297 H 0.24329 0.55033 0.10784 0.0
H1298 H 0.22186 0.5264 0.12117 0.0
H1299 H 0.20293 0.54324 0.18098 0.0
H1300 H 0.13756 0.47961 0.2156 0.0
H1301 H 0.15237 0.50686 0.19763 0.0
C1302 C 0.56671 0.1332 0.21737 0.0
C1303 C 0.56281 0.12827 0.23677 0.0
C1304 C 0.55312 0.13627 0.20376 0.0
C1305 C 0.50482 0.12811 0.19563 0.0
H1306 H 0.5091 0.17407 0.16066 0.0
C1307 C 0.4449 0.16841 0.16234 0.0
C1308 C 0.44484 0.17288 0.14233 0.0
C1309 C 0.46004 0.16098 0.17152 0.0
C1310 C 0.50785 0.16099 0.17012 0.0
H1311 H 0.54148 0.122 0.25681 0.0
H1312 H 0.51787 0.12801 0.23336 0.0
H1313 H 0.53417 0.16445 0.18131 0.0
H1314 H 0.46107 0.17344 0.11647 0.0
H1315 H 0.48791 0.16096 0.13287 0.0
H1316 H 0.47821 0.12531 0.18504 0.0
C1317 C 0.53143 0.12921 0.22852 0.0
C1318 C 0.5222 0.15543 0.18195 0.0
C1319 C 0.545 0.12604 0.24208 0.0
C1320 C 0.46061 0.17021 0.13188 0.0
C1321 C 0.47595 0.163 0.14122 0.0
C1322 C 0.49046 0.1338 0.18397 0.0
C1323 C 0.53529 0.13457 0.20922 0.0
C1324 C 0.52073 0.13919 0.19518 0.0
C1325 C 0.47571 0.15812 0.1611 0.0
C1326 C 0.4917 0.15055 0.17141 0.0
H1327 H 0.58026 0.13528 0.21277 0.0
H1328 H 0.55662 0.14013 0.18899 0.0
H1329 H 0.50333 0.11522 0.20527 0.0
H1330 H 0.43327 0.17094 0.17111 0.0
H1331 H 0.45959 0.15783 0.18696 0.0
C1332 C 0.77642 0.44877 0.1231 0.0
C1333 C 0.77119 0.4318 0.13393 0.0
C1334 C 0.78938 0.462 0.13039 0.0
C1335 C 0.82478 0.46666 0.16824 0.0
H1336 H 0.81643 0.52442 0.16184 0.0
C1337 C 0.87303 0.5269 0.19987 0.0
C1338 C 0.86509 0.54364 0.20893 0.0
C1339 C 0.86282 0.5135 0.18858 0.0
C1340 C 0.81895 0.50835 0.16383 0.0
H1341 H 0.77536 0.4149 0.16049 0.0
H1342 H 0.79781 0.43808 0.17347 0.0
H1343 H 0.79639 0.50014 0.1466 0.0
H1344 H 0.84045 0.55958 0.21353 0.0
H1345 H 0.82257 0.53623 0.19409 0.0
H1346 H 0.84691 0.47491 0.18617 0.0
C1347 C 0.79223 0.44114 0.15924 0.0
C1348 C 0.80757 0.49438 0.15486 0.0
C1349 C 0.77933 0.4279 0.15189 0.0
C1350 C 0.84687 0.54689 0.20644 0.0
C1351 C 0.83668 0.53356 0.19521 0.0
C1352 C 0.83615 0.48064 0.17725 0.0
C1353 C 0.7973 0.45851 0.14868 0.0
C1354 C 0.81018 0.47334 0.15714 0.0
C1355 C 0.84446 0.51655 0.18627 0.0
C1356 C 0.83324 0.50168 0.17539 0.0
H1357 H 0.7703 0.45192 0.10914 0.0
H1358 H 0.79313 0.47501 0.12172 0.0
H1359 H 0.82737 0.45058 0.17011 0.0
H1360 H 0.88699 0.52383 0.20197 0.0
H1361 H 0.86927 0.50065 0.18183 0.0
C1362 C 0.56652 0.83291 0.17672 0.0
C1363 C 0.5684 0.8283 0.15686 0.0
C1364 C 0.55123 0.8422 0.18367 0.0
C1365 C 0.51029 0.86993 0.16806 0.0
H1366 H 0.49489 0.85481 0.21968 0.0
C1367 C 0.44028 0.88511 0.1998 0.0
C1368 C 0.43943 0.89147 0.21928 0.0
C1369 C 0.45653 0.88028 0.19137 0.0
C1370 C 0.49914 0.85939 0.20534 0.0
H1371 H 0.55521 0.83004 0.12879 0.0
H1372 H 0.5281 0.84525 0.1411 0.0
H1373 H 0.52149 0.83963 0.20645 0.0
H1374 H 0.45496 0.89853 0.24495 0.0
H1375 H 0.48343 0.88986 0.23028 0.0
H1376 H 0.48723 0.88902 0.16685 0.0
C1377 C 0.53879 0.84219 0.15124 0.0
C1378 C 0.51447 0.85073 0.19771 0.0
C1379 C 0.5543 0.83315 0.14419 0.0
C1380 C 0.45525 0.89385 0.22987 0.0
C1381 C 0.4715 0.88871 0.22153 0.0
C1382 C 0.49474 0.87836 0.17562 0.0
C1383 C 0.53701 0.84679 0.17113 0.0
C1384 C 0.52038 0.85594 0.179 0.0
C1385 C 0.47225 0.8814 0.20234 0.0
C1386 C 0.48907 0.87325 0.19439 0.0
H1387 H 0.57678 0.82907 0.18714 0.0
H1388 H 0.55063 0.84579 0.199 0.0
H1389 H 0.51447 0.87457 0.15373 0.0
H1390 H 0.42826 0.88312 0.19133 0.0
H1391 H 0.45669 0.87461 0.1766 0.0
C1392 C 0.22113 0.44651 0.88361 0.0
C1393 C 0.2311 0.43379 0.87156 0.0
C1394 C 0.209 0.46027 0.87554 0.0
C1395 C 0.18267 0.46971 0.83099 0.0
H1396 H 0.18049 0.52534 0.84948 0.0
C1397 C 0.13286 0.52692 0.79844 0.0
C1398 C 0.14028 0.5456 0.79307 0.0
C1399 C 0.14227 0.51363 0.81058 0.0
C1400 C 0.18091 0.50983 0.84419 0.0
H1401 H 0.23659 0.42543 0.84184 0.0
H1402 H 0.21544 0.44944 0.82763 0.0
H1403 H 0.20068 0.50123 0.86512 0.0
H1404 H 0.16292 0.56544 0.79626 0.0
H1405 H 0.17938 0.54238 0.81762 0.0
H1406 H 0.1633 0.47838 0.80973 0.0
C1407 C 0.21677 0.44872 0.84329 0.0
C1408 C 0.19239 0.49599 0.85324 0.0
C1409 C 0.22895 0.43511 0.85136 0.0
C1410 C 0.15689 0.55119 0.80054 0.0
C1411 C 0.16626 0.53799 0.81275 0.0
C1412 C 0.17114 0.48349 0.82204 0.0
C1413 C 0.20658 0.46142 0.85527 0.0
C1414 C 0.1936 0.47585 0.84654 0.0
C1415 C 0.15927 0.51883 0.81753 0.0
C1416 C 0.17029 0.5038 0.82834 0.0
H1417 H 0.22272 0.44576 0.89925 0.0
H1418 H 0.20131 0.46978 0.88515 0.0
H1419 H 0.18313 0.45423 0.82563 0.0
H1420 H 0.12016 0.52226 0.79255 0.0
H1421 H 0.13647 0.49905 0.81413 0.0
C1422 C 0.5552 0.14525 0.86956 0.0
C1423 C 0.55583 0.16505 0.87735 0.0
C1424 C 0.53992 0.1381 0.86029 0.0
C1425 C 0.49239 0.14388 0.85349 0.0
H1426 H 0.50129 0.13381 0.79893 0.0
C1427 C 0.43603 0.14341 0.79675 0.0
C1428 C 0.43791 0.13272 0.77917 0.0
C1429 C 0.44977 0.14407 0.8104 0.0
C1430 C 0.49848 0.136 0.81418 0.0
H1431 H 0.54021 0.1921 0.88294 0.0
H1432 H 0.51327 0.17915 0.86743 0.0
H1433 H 0.52594 0.14035 0.82092 0.0
H1434 H 0.45556 0.11318 0.76291 0.0
H1435 H 0.47907 0.11323 0.78723 0.0
H1436 H 0.465 0.13911 0.84703 0.0
C1437 C 0.52481 0.1694 0.86827 0.0
C1438 C 0.51267 0.13991 0.82676 0.0
C1439 C 0.54023 0.17675 0.87725 0.0
C1440 C 0.45356 0.12162 0.77621 0.0
C1441 C 0.46722 0.12193 0.7901 0.0
C1442 C 0.47818 0.13949 0.841 0.0
C1443 C 0.52477 0.15035 0.85905 0.0
C1444 C 0.50973 0.14426 0.84643 0.0
C1445 C 0.46572 0.13361 0.80719 0.0
C1446 C 0.48096 0.13595 0.82103 0.0
H1447 H 0.56679 0.13558 0.86982 0.0
H1448 H 0.54011 0.12324 0.8535 0.0
H1449 H 0.48983 0.14706 0.86865 0.0
H1450 H 0.42401 0.15167 0.79992 0.0
H1451 H 0.448 0.15343 0.82316 0.0
C1452 C 0.77236 0.57899 0.85801 0.0
C1453 C 0.76059 0.57254 0.87239 0.0
C1454 C 0.78438 0.56533 0.84982 0.0
C1455 C 0.80518 0.5143 0.85706 0.0
H1456 H 0.81335 0.5183 0.80167 0.0
C1457 C 0.83744 0.45038 0.81099 0.0
C1458 C 0.849 0.45638 0.79622 0.0
C1459 C 0.82824 0.46498 0.82176 0.0
C1460 C 0.81141 0.51712 0.8172 0.0
H1461 H 0.75284 0.54722 0.89048 0.0
H1462 H 0.77326 0.52304 0.87569 0.0
H1463 H 0.79411 0.54281 0.81742 0.0
H1464 H 0.86102 0.48207 0.78184 0.0
H1465 H 0.84488 0.50769 0.80053 0.0
H1466 H 0.82216 0.48816 0.85658 0.0
C1467 C 0.77337 0.53864 0.8707 0.0
C1468 C 0.80037 0.53123 0.82628 0.0
C1469 C 0.76144 0.55238 0.87897 0.0
C1470 C 0.85193 0.47715 0.79299 0.0
C1471 C 0.84266 0.49175 0.80363 0.0
C1472 C 0.81612 0.50006 0.84792 0.0
C1473 C 0.78489 0.54487 0.85585 0.0
C1474 C 0.79706 0.53003 0.84634 0.0
C1475 C 0.83043 0.48583 0.81788 0.0
C1476 C 0.81934 0.5013 0.82787 0.0
H1477 H 0.77209 0.59456 0.85289 0.0
H1478 H 0.79328 0.57086 0.83877 0.0
H1479 H 0.8032 0.51304 0.87257 0.0
H1480 H 0.83503 0.43439 0.81368 0.0
H1481 H 0.81888 0.45991 0.83255 0.0
C1482 C 0.54432 0.88779 0.76973 0.0
C1483 C 0.56155 0.88671 0.77753 0.0
C1484 C 0.52968 0.88275 0.78101 0.0
C1485 C 0.51761 0.85301 0.82467 0.0
H1486 H 0.47171 0.87748 0.81499 0.0
C1487 C 0.45229 0.82849 0.86342 0.0
C1488 C 0.43839 0.82401 0.85035 0.0
C1489 C 0.4678 0.83797 0.8569 0.0
C1490 C 0.48447 0.87056 0.8179 0.0
H1491 H 0.57672 0.88021 0.80369 0.0
H1492 H 0.5511 0.87217 0.82357 0.0
H1493 H 0.4979 0.89182 0.79976 0.0
H1494 H 0.43047 0.82533 0.81994 0.0
H1495 H 0.45697 0.84242 0.80895 0.0
H1496 H 0.50395 0.83173 0.84285 0.0
C1497 C 0.54896 0.87645 0.80855 0.0
C1498 C 0.49948 0.87868 0.80908 0.0
C1499 C 0.56366 0.88135 0.7972 0.0
C1500 C 0.44051 0.8291 0.83063 0.0
C1501 C 0.45579 0.83882 0.82424 0.0
C1502 C 0.50258 0.84505 0.8337 0.0
C1503 C 0.53179 0.8767 0.8005 0.0
C1504 C 0.5162 0.86967 0.81189 0.0
C1505 C 0.46957 0.8434 0.83727 0.0
C1506 C 0.48581 0.85342 0.82997 0.0
H1507 H 0.54213 0.89217 0.75475 0.0
H1508 H 0.51673 0.88294 0.77416 0.0
H1509 H 0.53019 0.84549 0.82705 0.0
H1510 H 0.45114 0.82495 0.87871 0.0
H1511 H 0.47827 0.84134 0.86724 0.0
C1512 C 0.13417 0.22764 0.56875 0.0
C1513 C 0.11815 0.23727 0.56403 0.0
C1514 C 0.14136 0.21305 0.55632 0.0
C1515 C 0.13059 0.17852 0.51532 0.0
H1516 H 0.18021 0.18475 0.5027 0.0
C1517 C 0.16124 0.14447 0.44618 0.0
C1518 C 0.17918 0.13881 0.44617 0.0
C1519 C 0.15363 0.1532 0.46262 0.0
C1520 C 0.16644 0.18245 0.50631 0.0
H1521 H 0.09664 0.23882 0.54321 0.0
H1522 H 0.10913 0.21324 0.52134 0.0
H1523 H 0.16712 0.20624 0.52753 0.0
H1524 H 0.20293 0.1368 0.46391 0.0
H1525 H 0.18952 0.15156 0.49288 0.0
H1526 H 0.12984 0.15486 0.49397 0.0
C1527 C 0.11618 0.21689 0.53464 0.0
C1528 C 0.1589 0.19485 0.52054 0.0
C1529 C 0.10907 0.2316 0.54705 0.0
C1530 C 0.18906 0.14095 0.46344 0.0
C1531 C 0.18142 0.14967 0.47996 0.0
C1532 C 0.13815 0.16601 0.50117 0.0
C1533 C 0.13257 0.20767 0.53897 0.0
C1534 C 0.14082 0.19329 0.52498 0.0
C1535 C 0.16372 0.15641 0.4796 0.0
C1536 C 0.1561 0.16806 0.4962 0.0
H1537 H 0.14134 0.23178 0.58183 0.0
H1538 H 0.15389 0.20609 0.5602 0.0
H1539 H 0.11669 0.17671 0.51862 0.0
H1540 H 0.15317 0.14277 0.43321 0.0
H1541 H 0.14002 0.15829 0.46166 0.0
C1542 C 0.81227 0.16715 0.54708 0.0
C1543 C 0.81559 0.1469 0.55245 0.0
C1544 C 0.82012 0.17547 0.53064 0.0
C1545 C 0.85937 0.17125 0.50056 0.0
H1546 H 0.83351 0.20838 0.46704 0.0
C1547 C 0.87042 0.22883 0.43061 0.0
C1548 C 0.88537 0.23947 0.43725 0.0
C1549 C 0.86232 0.21429 0.44238 0.0
C1550 C 0.84092 0.19785 0.47605 0.0
H1551 H 0.82938 0.11929 0.54462 0.0
H1552 H 0.84344 0.13401 0.51572 0.0
H1553 H 0.81765 0.18862 0.49125 0.0
H1554 H 0.90448 0.24229 0.46063 0.0
H1555 H 0.89028 0.21701 0.48145 0.0
H1556 H 0.88271 0.18088 0.48562 0.0
C1557 C 0.83469 0.14338 0.52432 0.0
C1558 C 0.83184 0.18665 0.49004 0.0
C1559 C 0.82658 0.13492 0.54072 0.0
C1560 C 0.89274 0.23452 0.45539 0.0
C1561 C 0.88471 0.2199 0.46717 0.0
C1562 C 0.8685 0.18258 0.48663 0.0
C1563 C 0.83164 0.16382 0.51922 0.0
C1564 C 0.84099 0.17354 0.50272 0.0
C1565 C 0.86915 0.20996 0.46099 0.0
C1566 C 0.85941 0.1963 0.47444 0.0
H1567 H 0.80377 0.17668 0.55584 0.0
H1568 H 0.81765 0.19131 0.52726 0.0
H1569 H 0.8668 0.16137 0.5102 0.0
H1570 H 0.86466 0.23225 0.41657 0.0
H1571 H 0.85053 0.2067 0.43704 0.0
C1572 C 0.80664 0.83566 0.44306 0.0
C1573 C 0.80229 0.85611 0.44614 0.0
C1574 C 0.81711 0.82515 0.45654 0.0
C1575 C 0.82958 0.82532 0.50828 0.0
H1576 H 0.86448 0.78572 0.49201 0.0
C1577 C 0.85445 0.76077 0.55806 0.0
C1578 C 0.87229 0.75505 0.55717 0.0
C1579 C 0.84761 0.77531 0.54528 0.0
C1580 C 0.85495 0.7969 0.49684 0.0
H1581 H 0.8051 0.88169 0.46565 0.0
H1582 H 0.82359 0.86339 0.48932 0.0
H1583 H 0.84983 0.8071 0.46778 0.0
H1584 H 0.89709 0.75988 0.54244 0.0
H1585 H 0.88517 0.78553 0.51992 0.0
H1586 H 0.83457 0.81499 0.53732 0.0
C1587 C 0.81898 0.85544 0.47646 0.0
C1588 C 0.84641 0.809 0.48292 0.0
C1589 C 0.80857 0.86598 0.46288 0.0
C1590 C 0.88332 0.76429 0.54347 0.0
C1591 C 0.87645 0.77879 0.53053 0.0
C1592 C 0.83806 0.81316 0.52219 0.0
C1593 C 0.82328 0.83484 0.47352 0.0
C1594 C 0.83343 0.82316 0.48844 0.0
C1595 C 0.85845 0.78432 0.53117 0.0
C1596 C 0.85066 0.79858 0.51661 0.0
H1597 H 0.80172 0.82774 0.43031 0.0
H1598 H 0.8199 0.80923 0.45396 0.0
H1599 H 0.81957 0.83595 0.51304 0.0
H1600 H 0.84571 0.75365 0.56841 0.0
H1601 H 0.83365 0.77895 0.54602 0.0
C1602 C 0.15363 0.76169 0.45007 0.0
C1603 C 0.13522 0.75912 0.44917 0.0
C1604 C 0.16124 0.77516 0.4634 0.0
C1605 C 0.15202 0.81879 0.49584 0.0
H1606 H 0.19421 0.79964 0.52251 0.0
C1607 C 0.19728 0.87033 0.54403 0.0
C1608 C 0.20484 0.86142 0.56064 0.0
C1609 C 0.18719 0.85855 0.53106 0.0
C1610 C 0.18235 0.8052 0.51536 0.0
H1611 H 0.11027 0.76835 0.46159 0.0
H1612 H 0.12356 0.79215 0.48497 0.0
H1613 H 0.1798 0.77803 0.49854 0.0
H1614 H 0.20765 0.83359 0.57707 0.0
H1615 H 0.18983 0.81306 0.55473 0.0
H1616 H 0.15457 0.84595 0.51294 0.0
C1617 C 0.13211 0.784 0.4751 0.0
C1618 C 0.1742 0.79288 0.5014 0.0
C1619 C 0.12448 0.77045 0.4617 0.0
C1620 C 0.20183 0.84076 0.56437 0.0
C1621 C 0.19177 0.82902 0.55149 0.0
C1622 C 0.16024 0.8312 0.50982 0.0
C1623 C 0.15062 0.78629 0.47629 0.0
C1624 C 0.15899 0.79952 0.49137 0.0
C1625 C 0.18462 0.83764 0.53444 0.0
C1626 C 0.17552 0.82453 0.51977 0.0
H1627 H 0.16217 0.75305 0.44059 0.0
H1628 H 0.17551 0.77676 0.46368 0.0
H1629 H 0.14037 0.82442 0.48832 0.0
H1630 H 0.19977 0.88615 0.54068 0.0
H1631 H 0.18206 0.86563 0.51799 0.0
C1632 C 0.63988 0.96553 0.68567 0.0
C1633 C 0.64697 0.94699 0.69208 0.0
C1634 C 0.65062 0.97965 0.67609 0.0
C1635 C 0.6976 0.99417 0.6723 0.0
H1636 H 0.6815 0.02781 0.62943 0.0
C1637 C 0.73709 0.06413 0.64744 0.0
C1638 C 0.73885 0.06719 0.6274 0.0
C1639 C 0.72533 0.04957 0.65452 0.0
C1640 C 0.68623 0.01844 0.64132 0.0
H1641 H 0.67044 0.92823 0.69327 0.0
H1642 H 0.68919 0.95265 0.67628 0.0
H1643 H 0.66201 0.00146 0.64239 0.0
H1644 H 0.73012 0.05727 0.59894 0.0
H1645 H 0.70937 0.03176 0.61127 0.0
H1646 H 0.72182 0.01091 0.6712 0.0
C1647 C 0.67546 0.95651 0.67878 0.0
C1648 C 0.675 0.00347 0.64885 0.0
C1649 C 0.66474 0.94246 0.68834 0.0
C1650 C 0.72865 0.05548 0.61448 0.0
C1651 C 0.71682 0.04088 0.62155 0.0
C1652 C 0.70876 0.00913 0.66484 0.0
C1653 C 0.66865 0.97546 0.67289 0.0
C1654 C 0.68056 0.99115 0.66445 0.0
C1655 C 0.71514 0.03763 0.64167 0.0
C1656 C 0.70321 0.02152 0.64931 0.0
H1657 H 0.62624 0.96937 0.6887 0.0
H1658 H 0.64499 0.99416 0.67192 0.0
H1659 H 0.70224 0.98516 0.68448 0.0
H1660 H 0.74489 0.073 0.65765 0.0
H1661 H 0.7242 0.04768 0.67009 0.0
C1662 C 0.95138 0.64885 0.61292 0.0
C1663 C 0.93766 0.65472 0.62545 0.0
C1664 C 0.96679 0.63964 0.62031 0.0
C1665 C 0.99164 0.63297 0.66698 0.0
H1666 H 0.01609 0.59009 0.63939 0.0
C1667 C 0.04742 0.5883 0.7038 0.0
C1668 C 0.06351 0.58909 0.69378 0.0
C1669 C 0.03158 0.59339 0.69436 0.0
C1670 C 0.00934 0.60204 0.64722 0.0
H1671 H 0.92988 0.65593 0.65577 0.0
H1672 H 0.95581 0.63904 0.66827 0.0
H1673 H 0.98969 0.60573 0.62486 0.0
H1674 H 0.07553 0.59416 0.66572 0.0
H1675 H 0.04774 0.60266 0.64911 0.0
H1676 H 0.01105 0.62907 0.68944 0.0
C1677 C 0.955 0.64183 0.65279 0.0
C1678 C 0.99431 0.61113 0.63886 0.0
C1679 C 0.93984 0.65121 0.6455 0.0
C1680 C 0.06328 0.59345 0.67378 0.0
C1681 C 0.0474 0.59827 0.66427 0.0
C1682 C 0.00641 0.6237 0.67541 0.0
C1683 C 0.96881 0.63606 0.6404 0.0
C1684 C 0.9852 0.62667 0.64871 0.0
C1685 C 0.03151 0.5991 0.67467 0.0
C1686 C 0.01539 0.6081 0.6657 0.0
H1687 H 0.95018 0.65123 0.5974 0.0
H1688 H 0.9772 0.6356 0.61032 0.0
H1689 H 0.98538 0.64527 0.6748 0.0
H1690 H 0.04723 0.58518 0.71925 0.0
H1691 H 0.01946 0.59373 0.70267 0.0
C1692 C 0.35023 0.08814 0.66901 0.0
C1693 C 0.36644 0.08254 0.67745 0.0
C1694 C 0.34135 0.07481 0.65648 0.0
C1695 C 0.34669 0.02722 0.62764 0.0
H1696 H 0.29643 0.02127 0.63699 0.0
C1697 C 0.30759 0.95414 0.61155 0.0
C1698 C 0.28957 0.95539 0.60655 0.0
C1699 C 0.31742 0.97171 0.61521 0.0
C1700 C 0.31037 0.023 0.63382 0.0
H1701 H 0.38636 0.05908 0.67948 0.0
H1702 H 0.37079 0.03547 0.65777 0.0
H1703 H 0.31285 0.04814 0.65332 0.0
H1704 H 0.26796 0.97598 0.60018 0.0
H1705 H 0.28521 0.0069 0.60643 0.0
H1706 H 0.34424 0.00152 0.60867 0.0
C1707 C 0.36502 0.05027 0.66042 0.0
C1708 C 0.31982 0.03842 0.64324 0.0
C1709 C 0.37392 0.06367 0.67291 0.0
C1710 C 0.28186 0.97462 0.60392 0.0
C1711 C 0.29169 0.99227 0.60771 0.0
C1712 C 0.33722 0.01175 0.61824 0.0
C1713 C 0.34847 0.05554 0.65229 0.0
C1714 C 0.33818 0.04048 0.64061 0.0
C1715 C 0.30943 0.99097 0.61405 0.0
C1716 C 0.31901 0.00917 0.62155 0.0
H1717 H 0.34428 0.10269 0.67243 0.0
H1718 H 0.32878 0.07949 0.6503 0.0
H1719 H 0.36075 0.02859 0.62499 0.0
H1720 H 0.31386 0.93947 0.61362 0.0
H1721 H 0.33098 0.97008 0.62018 0.0
C1722 C 0.03602 0.33635 0.62418 0.0
C1723 C 0.05118 0.33283 0.63569 0.0
C1724 C 0.02078 0.34496 0.63232 0.0
C1725 C 0.99979 0.35473 0.68044 0.0
H1726 H 0.97041 0.39235 0.65123 0.0
C1727 C 0.94366 0.39891 0.71711 0.0
C1728 C 0.92707 0.39626 0.70816 0.0
C1729 C 0.95915 0.39363 0.70729 0.0
C1730 C 0.97853 0.38187 0.65953 0.0
H1731 H 0.06177 0.33506 0.66506 0.0
H1732 H 0.03595 0.3509 0.67876 0.0
H1733 H 0.99648 0.37733 0.63598 0.0
H1734 H 0.91366 0.3874 0.68156 0.0
H1735 H 0.94075 0.37861 0.66423 0.0
H1736 H 0.98202 0.35954 0.70405 0.0
C1737 C 0.03554 0.34674 0.66355 0.0
C1738 C 0.99338 0.37312 0.65077 0.0
C1739 C 0.05059 0.33795 0.65553 0.0
C1740 C 0.92631 0.38959 0.68876 0.0
C1741 C 0.9418 0.3846 0.67885 0.0
C1742 C 0.98515 0.36369 0.68924 0.0
C1743 C 0.02035 0.35031 0.65214 0.0
C1744 C 0.00425 0.35943 0.66112 0.0
C1745 C 0.95832 0.38589 0.68824 0.0
C1746 C 0.97436 0.37736 0.67892 0.0
H1747 H 0.03598 0.33269 0.60885 0.0
H1748 H 0.00928 0.34723 0.62309 0.0
H1749 H 0.00746 0.34387 0.68878 0.0
H1750 H 0.94458 0.40385 0.7321 0.0
H1751 H 0.97174 0.39493 0.71481 0.0
C1752 C 0.72396 0.96425 0.37752 0.0
C1753 C 0.72296 0.95185 0.3941 0.0
C1754 C 0.71221 0.98032 0.37486 0.0
C1755 C 0.68307 0.01729 0.39483 0.0
H1756 H 0.65564 0.00845 0.34768 0.0
C1757 C 0.64918 0.08045 0.34944 0.0
C1758 C 0.63336 0.07573 0.33968 0.0
C1759 C 0.65765 0.0658 0.36092 0.0
C1760 C 0.66291 0.01105 0.36108 0.0
H1761 H 0.70983 0.9476 0.42167 0.0
H1762 H 0.68926 0.97634 0.4171 0.0
H1763 H 0.67629 0.98249 0.35884 0.0
H1764 H 0.61335 0.05278 0.33484 0.0
H1765 H 0.62809 0.02703 0.355 0.0
H1766 H 0.6702 0.04637 0.39651 0.0
C1767 C 0.69912 0.97327 0.40615 0.0
C1768 C 0.67482 0.99623 0.36736 0.0
C1769 C 0.71089 0.95694 0.40877 0.0
C1770 C 0.62552 0.05666 0.34239 0.0
C1771 C 0.63401 0.04197 0.3538 0.0
C1772 C 0.67124 0.03233 0.38837 0.0
C1773 C 0.69932 0.98455 0.38882 0.0
C1774 C 0.68525 0.99937 0.38404 0.0
C1775 C 0.65048 0.04615 0.36264 0.0
C1776 C 0.66125 0.02947 0.37123 0.0
H1777 H 0.73335 0.96092 0.36613 0.0
H1778 H 0.71274 0.989 0.3615 0.0
H1779 H 0.69104 0.02001 0.40771 0.0
H1780 H 0.65545 0.09509 0.34731 0.0
H1781 H 0.67039 0.06944 0.36735 0.0
C1782 C 0.94454 0.60655 0.32036 0.0
C1783 C 0.94555 0.59731 0.30197 0.0
C1784 C 0.95981 0.61043 0.33127 0.0
C1785 C 0.00754 0.61892 0.32351 0.0
H1786 H 0.0077 0.62622 0.37941 0.0
C1787 C 0.05874 0.67049 0.35999 0.0
C1788 C 0.06598 0.66488 0.37802 0.0
C1789 C 0.04431 0.66001 0.35219 0.0
C1790 C 0.00802 0.62405 0.36383 0.0
H1791 H 0.96333 0.58323 0.28144 0.0
H1792 H 0.99003 0.58924 0.30084 0.0
H1793 H 0.98281 0.6092 0.36364 0.0
H1794 H 0.06367 0.64429 0.40235 0.0
H1795 H 0.03843 0.62551 0.38855 0.0
H1796 H 0.03286 0.63332 0.32368 0.0
C1797 C 0.97743 0.59417 0.30654 0.0
C1798 C 0.99361 0.61447 0.35472 0.0
C1799 C 0.96209 0.59045 0.2955 0.0
C1800 C 0.05817 0.64896 0.38847 0.0
C1801 C 0.04376 0.63824 0.38053 0.0
C1802 C 0.02198 0.62828 0.33262 0.0
C1803 C 0.97657 0.60493 0.32424 0.0
C1804 C 0.99295 0.61226 0.33436 0.0
C1805 C 0.03688 0.64339 0.36207 0.0
C1806 C 0.0222 0.63153 0.35283 0.0
H1807 H 0.93194 0.61167 0.32597 0.0
H1808 H 0.95848 0.61882 0.34471 0.0
H1809 H 0.00756 0.61774 0.30783 0.0
H1810 H 0.0645 0.68282 0.35174 0.0
H1811 H 0.03908 0.66489 0.33826 0.0
C1812 C 0.33618 0.94426 0.30612 0.0
C1813 C 0.35402 0.94866 0.30262 0.0
C1814 C 0.32546 0.95824 0.31578 0.0
C1815 C 0.32584 0.00518 0.34599 0.0
H1816 H 0.2788 0.01197 0.32405 0.0
C1817 C 0.27183 0.05631 0.38113 0.0
C1818 C 0.26091 0.06741 0.36843 0.0
C1819 C 0.28395 0.04213 0.37382 0.0
C1820 C 0.29193 0.01042 0.33029 0.0
H1821 H 0.37481 0.9709 0.30644 0.0
H1822 H 0.35606 0.99559 0.32335 0.0
H1823 H 0.29856 0.98661 0.31053 0.0
H1824 H 0.25399 0.07266 0.33832 0.0
H1825 H 0.27524 0.04821 0.32547 0.0
H1826 H 0.31922 0.02942 0.3655 0.0
C1827 C 0.35039 0.98116 0.31898 0.0
C1828 C 0.30321 0.99563 0.3227 0.0
C1829 C 0.36115 0.96707 0.30935 0.0
C1830 C 0.26233 0.06426 0.34836 0.0
C1831 C 0.27442 0.05016 0.34105 0.0
C1832 C 0.3145 0.02001 0.35363 0.0
C1833 C 0.33229 0.97709 0.32195 0.0
C1834 C 0.32032 0.99277 0.33043 0.0
C1835 C 0.28526 0.03872 0.35368 0.0
C1836 C 0.29742 0.02288 0.34581 0.0
H1837 H 0.33042 0.93016 0.30094 0.0
H1838 H 0.3117 0.9544 0.31811 0.0
H1839 H 0.33888 0.00333 0.35239 0.0
H1840 H 0.27067 0.0582 0.39669 0.0
H1841 H 0.2919 0.03342 0.38398 0.0
C1842 C 0.07872 0.38621 0.31036 0.0
C1843 C 0.0752 0.39477 0.292 0.0
C1844 C 0.06491 0.3818 0.32313 0.0
C1845 C 0.01641 0.39028 0.33091 0.0
H1846 H 0.01918 0.33849 0.35773 0.0
C1847 C 0.95583 0.34311 0.3519 0.0
C1848 C 0.95433 0.33669 0.37135 0.0
C1849 C 0.97132 0.35214 0.34525 0.0
C1850 C 0.01836 0.35313 0.35057 0.0
H1851 H 0.05438 0.40651 0.27325 0.0
H1852 H 0.03039 0.39803 0.29493 0.0
H1853 H 0.04499 0.35131 0.34047 0.0
H1854 H 0.96846 0.33447 0.39887 0.0
H1855 H 0.99597 0.34948 0.38677 0.0
H1856 H 0.98937 0.3913 0.34003 0.0
C1857 C 0.0438 0.39497 0.29974 0.0
C1858 C 0.03315 0.36057 0.34072 0.0
C1859 C 0.0576 0.39957 0.2871 0.0
C1860 C 0.96909 0.33907 0.3838 0.0
C1861 C 0.98481 0.34777 0.37695 0.0
C1862 C 0.00158 0.38267 0.34047 0.0
C1863 C 0.04721 0.3857 0.31781 0.0
C1864 C 0.03225 0.37903 0.33035 0.0
C1865 C 0.98593 0.35459 0.35767 0.0
C1866 C 0.00232 0.36385 0.35003 0.0
H1867 H 0.09208 0.38215 0.31463 0.0
H1868 H 0.06811 0.375 0.33704 0.0
H1869 H 0.01531 0.40478 0.32358 0.0
H1870 H 0.9451 0.34094 0.3416 0.0
H1871 H 0.972 0.35689 0.3302 0.0
C1872 C 0.69378 0.64588 0.97182 0.0
C1873 C 0.68376 0.64431 0.95462 0.0
C1874 C 0.68608 0.65335 0.98886 0.0
C1875 C 0.64851 0.68573 0.00409 0.0
H1876 H 0.6627 0.66927 0.05597 0.0
C1877 C 0.61808 0.72316 0.07174 0.0
C1878 C 0.6303 0.72936 0.08595 0.0
C1879 C 0.62328 0.70992 0.05691 0.0
C1880 C 0.65863 0.67406 0.04157 0.0
H1881 H 0.65758 0.64791 0.94208 0.0
H1882 H 0.64402 0.66033 0.97181 0.0
H1883 H 0.67417 0.65096 0.02785 0.0
H1884 H 0.65725 0.72651 0.09633 0.0
H1885 H 0.66642 0.70329 0.07051 0.0
H1886 H 0.63316 0.70894 0.01772 0.0
C1887 C 0.65795 0.65648 0.9721 0.0
C1888 C 0.66525 0.6636 0.02543 0.0
C1889 C 0.66568 0.64923 0.95507 0.0
C1890 C 0.6476 0.72166 0.08558 0.0
C1891 C 0.65279 0.70836 0.07083 0.0
C1892 C 0.64185 0.69609 0.02018 0.0
C1893 C 0.66815 0.65923 0.98908 0.0
C1894 C 0.66039 0.66942 0.00645 0.0
C1895 C 0.64081 0.70268 0.05605 0.0
C1896 C 0.64694 0.69053 0.03912 0.0
H1897 H 0.70778 0.64236 0.97185 0.0
H1898 H 0.69442 0.65539 0.00157 0.0
H1899 H 0.64475 0.691 0.98974 0.0
H1900 H 0.60472 0.72914 0.07172 0.0
H1901 H 0.61368 0.70569 0.04586 0.0
C1902 C 0.32197 0.63262 0.0352 0.0
C1903 C 0.3135 0.64635 0.0477 0.0
C1904 C 0.32886 0.63933 0.01745 0.0
C1905 C 0.32496 0.68057 0.98136 0.0
H1906 H 0.37403 0.66917 0.96938 0.0
C1907 C 0.38299 0.72047 0.93471 0.0
C1908 C 0.37359 0.72494 0.91762 0.0
C1909 C 0.37595 0.70699 0.94834 0.0
C1910 C 0.36028 0.67239 0.97249 0.0
H1911 H 0.30497 0.67759 0.05118 0.0
H1912 H 0.31677 0.68921 0.02029 0.0
H1913 H 0.36032 0.65308 0.99761 0.0
H1914 H 0.35003 0.71843 0.90074 0.0
H1915 H 0.33767 0.69473 0.92447 0.0
H1916 H 0.32498 0.70039 0.95676 0.0
C1917 C 0.31821 0.67333 0.02414 0.0
C1918 C 0.3524 0.66305 0.98854 0.0
C1919 C 0.31158 0.66671 0.0419 0.0
C1920 C 0.35749 0.71508 0.91385 0.0
C1921 C 0.35039 0.70167 0.92748 0.0
C1922 C 0.33276 0.68975 0.96527 0.0
C1923 C 0.32706 0.65979 0.01178 0.0
C1924 C 0.33478 0.66744 0.9934 0.0
C1925 C 0.35932 0.69788 0.94513 0.0
C1926 C 0.35062 0.68612 0.96086 0.0
H1927 H 0.32364 0.61685 0.03937 0.0
H1928 H 0.33557 0.62857 0.00816 0.0
H1929 H 0.31131 0.68412 0.98466 0.0
H1930 H 0.3954 0.72808 0.93788 0.0
H1931 H 0.38308 0.70457 0.96185 0.0
C1932 C 0.31462 0.36549 0.96263 0.0
C1933 C 0.30392 0.35268 0.95118 0.0
C1934 C 0.32314 0.35793 0.97931 0.0
C1935 C 0.32205 0.31572 0.01485 0.0
H1936 H 0.37264 0.32444 0.01974 0.0
C1937 C 0.38472 0.27223 0.05172 0.0
C1938 C 0.37749 0.26738 0.06983 0.0
C1939 C 0.37622 0.28621 0.03948 0.0
C1940 C 0.35851 0.32193 0.01861 0.0
H1941 H 0.29307 0.32231 0.94862 0.0
H1942 H 0.3077 0.30922 0.97768 0.0
H1943 H 0.3559 0.34212 0.9943 0.0
H1944 H 0.35657 0.27421 0.09002 0.0
H1945 H 0.34166 0.29868 0.06877 0.0
H1946 H 0.32466 0.295 0.03862 0.0
C1947 C 0.30961 0.32503 0.97384 0.0
C1948 C 0.3489 0.33221 0.00417 0.0
C1949 C 0.30133 0.33248 0.95712 0.0
C1950 C 0.36226 0.27759 0.07602 0.0
C1951 C 0.3537 0.29149 0.0638 0.0
C1952 C 0.33161 0.30557 0.02934 0.0
C1953 C 0.32082 0.33755 0.98499 0.0
C1954 C 0.33063 0.32884 0.00185 0.0
C1955 C 0.36033 0.29558 0.04517 0.0
C1956 C 0.35002 0.30821 0.03115 0.0
H1957 H 0.31688 0.3811 0.9583 0.0
H1958 H 0.33163 0.36796 0.98768 0.0
H1959 H 0.30796 0.31295 0.01354 0.0
H1960 H 0.39664 0.26475 0.04679 0.0
H1961 H 0.38166 0.28894 0.02521 0.0
C1962 C 0.69848 0.35996 0.03933 0.0
C1963 C 0.68783 0.3641 0.0555 0.0
C1964 C 0.69119 0.35093 0.02266 0.0
C1965 C 0.6487 0.33789 0.99773 0.0
H1966 H 0.67525 0.29166 0.97874 0.0
C1967 C 0.61705 0.27385 0.95121 0.0
C1968 C 0.62751 0.26455 0.93705 0.0
C1969 C 0.62439 0.28854 0.96362 0.0
C1970 C 0.66776 0.30472 0.98356 0.0
H1971 H 0.66098 0.36335 0.06634 0.0
H1972 H 0.64831 0.34751 0.03742 0.0
H1973 H 0.6882 0.3135 0.00352 0.0
H1974 H 0.65349 0.26336 0.92419 0.0
H1975 H 0.6663 0.28931 0.94548 0.0
H1976 H 0.62811 0.32883 0.97796 0.0
C1977 C 0.66228 0.35121 0.03753 0.0
C1978 C 0.67522 0.31729 0.99781 0.0
C1979 C 0.66957 0.36015 0.05419 0.0
C1980 C 0.64522 0.27043 0.93506 0.0
C1981 C 0.65255 0.28516 0.94735 0.0
C1982 C 0.64124 0.32533 0.98341 0.0
C1983 C 0.67308 0.34596 0.02177 0.0
C1984 C 0.66571 0.33389 0.00526 0.0
C1985 C 0.64232 0.29415 0.96205 0.0
C1986 C 0.65059 0.30842 0.97632 0.0
H1987 H 0.7126 0.36273 0.03992 0.0
H1988 H 0.69983 0.34735 0.01066 0.0
H1989 H 0.6411 0.35069 0.00299 0.0
H1990 H 0.6034 0.26928 0.95308 0.0
H1991 H 0.61617 0.29492 0.97491 0.0
C1992 C 0.13263 0.30799 0.26331 0.0
C1993 C 0.14429 0.31815 0.25092 0.0
C1994 C 0.13713 0.28894 0.27086 0.0
C1995 C 0.16778 0.24527 0.26611 0.0
H1996 H 0.16207 0.2415 0.32191 0.0
C1997 C 0.2024 0.18336 0.31278 0.0
C1998 C 0.19297 0.17544 0.3285 0.0
C1999 C 0.19553 0.19969 0.30207 0.0
C2000 C 0.16351 0.24208 0.30628 0.0
H2001 H 0.16935 0.31652 0.23608 0.0
H2002 H 0.17726 0.28306 0.24916 0.0
H2003 H 0.15097 0.27116 0.30471 0.0
H2004 H 0.16932 0.17835 0.34578 0.0
H2005 H 0.15697 0.20634 0.32679 0.0
H2006 H 0.18042 0.21615 0.26775 0.0
C2007 C 0.16459 0.28961 0.25292 0.0
C2008 C 0.15713 0.25912 0.29641 0.0
C2009 C 0.16011 0.30871 0.24544 0.0
C2010 C 0.17665 0.18406 0.33347 0.0
C2011 C 0.16972 0.20023 0.32272 0.0
C2012 C 0.17409 0.2281 0.27599 0.0
C2013 C 0.15337 0.27979 0.26615 0.0
C2014 C 0.15926 0.26098 0.27624 0.0
C2015 C 0.17913 0.20839 0.30698 0.0
C2016 C 0.1721 0.22634 0.29623 0.0
H2017 H 0.12044 0.3152 0.2678 0.0
H2018 H 0.12812 0.28163 0.28084 0.0
H2019 H 0.16952 0.24622 0.25054 0.0
H2020 H 0.21515 0.17707 0.30895 0.0
H2021 H 0.20328 0.20579 0.29026 0.0
C2022 C 0.79879 0.24927 0.39635 0.0
C2023 C 0.81546 0.24005 0.39825 0.0
C2024 C 0.78361 0.23735 0.39394 0.0
C2025 C 0.77157 0.18745 0.37425 0.0
H2026 H 0.7244 0.20228 0.39089 0.0
C2027 C 0.70922 0.16169 0.33329 0.0
C2028 C 0.69419 0.1561 0.34394 0.0
C2029 C 0.72404 0.16985 0.34264 0.0
C2030 C 0.73751 0.19777 0.38634 0.0
H2031 H 0.82926 0.21131 0.4009 0.0
H2032 H 0.80274 0.19047 0.39704 0.0
H2033 H 0.75004 0.22042 0.40413 0.0
H2034 H 0.68317 0.15427 0.3729 0.0
H2035 H 0.70911 0.16875 0.38923 0.0
H2036 H 0.75912 0.165 0.35633 0.0
C2037 C 0.8014 0.20686 0.39685 0.0
C2038 C 0.75217 0.20828 0.39378 0.0
C2039 C 0.81656 0.21876 0.39913 0.0
C2040 C 0.69445 0.15865 0.36423 0.0
C2041 C 0.70929 0.16692 0.3736 0.0
C2042 C 0.75696 0.177 0.36682 0.0
C2043 C 0.78483 0.21601 0.3935 0.0
C2044 C 0.76935 0.20348 0.38754 0.0
C2045 C 0.72421 0.17269 0.36287 0.0
C2046 C 0.73975 0.18232 0.37245 0.0
H2047 H 0.79763 0.26567 0.39554 0.0
H2048 H 0.77109 0.2449 0.39126 0.0
H2049 H 0.78457 0.18349 0.36893 0.0
H2050 H 0.70937 0.16036 0.31761 0.0
H2051 H 0.7352 0.1745 0.3339 0.0
C2052 C 0.84343 0.67702 0.26326 0.0
C2053 C 0.86116 0.67087 0.26452 0.0
C2054 C 0.83778 0.69449 0.27298 0.0
C2055 C 0.85005 0.72473 0.3159 0.0
H2056 H 0.81289 0.76079 0.29772 0.0
C2057 C 0.82605 0.79419 0.36004 0.0
C2058 C 0.80769 0.79749 0.36049 0.0
C2059 C 0.83319 0.77942 0.34779 0.0
C2060 C 0.82319 0.75073 0.30303 0.0
H2061 H 0.88703 0.67815 0.27628 0.0
H2062 H 0.87739 0.70912 0.29265 0.0
H2063 H 0.8247 0.73497 0.27587 0.0
H2064 H 0.78241 0.78788 0.34849 0.0
H2065 H 0.79485 0.76185 0.32741 0.0
H2066 H 0.84843 0.74035 0.34309 0.0
C2067 C 0.86776 0.7004 0.28442 0.0
C2068 C 0.82997 0.73598 0.29051 0.0
C2069 C 0.87335 0.68289 0.27482 0.0
C2070 C 0.79659 0.78547 0.3487 0.0
C2071 C 0.80373 0.77079 0.3364 0.0
C2072 C 0.84331 0.7395 0.32838 0.0
C2073 C 0.8498 0.70602 0.28416 0.0
C2074 C 0.84339 0.7227 0.29685 0.0
C2075 C 0.82212 0.76775 0.33565 0.0
C2076 C 0.82969 0.75253 0.32215 0.0
H2077 H 0.8338 0.66767 0.25568 0.0
H2078 H 0.82384 0.69825 0.27264 0.0
H2079 H 0.86012 0.71449 0.32141 0.0
H2080 H 0.83491 0.80322 0.36899 0.0
H2081 H 0.84742 0.7775 0.34746 0.0
C2082 C 0.29176 0.8559 0.30755 0.0
C2083 C 0.30489 0.8671 0.31739 0.0
C2084 C 0.27887 0.84529 0.31788 0.0
C2085 C 0.25832 0.83966 0.36648 0.0
H2086 H 0.24667 0.78605 0.34677 0.0
C2087 C 0.19865 0.79273 0.39326 0.0
C2088 C 0.19968 0.77138 0.39279 0.0
C2089 C 0.21268 0.80462 0.38662 0.0
C2090 C 0.24995 0.80084 0.35269 0.0
H2091 H 0.31411 0.87685 0.34583 0.0
H2092 H 0.29192 0.85792 0.36385 0.0
H2093 H 0.26799 0.80688 0.32967 0.0
H2094 H 0.21679 0.74585 0.3863 0.0
H2095 H 0.24151 0.7666 0.37539 0.0
H2096 H 0.24051 0.83336 0.38977 0.0
C2097 C 0.29149 0.85744 0.34813 0.0
C2098 C 0.26196 0.81297 0.34265 0.0
C2099 C 0.30433 0.86814 0.33779 0.0
C2100 C 0.21556 0.76224 0.3869 0.0
C2101 C 0.22964 0.77415 0.38037 0.0
C2102 C 0.24634 0.82746 0.3766 0.0
C2103 C 0.27885 0.8455 0.33831 0.0
C2104 C 0.26617 0.83262 0.34928 0.0
C2105 C 0.22813 0.79546 0.3795 0.0
C2106 C 0.24189 0.80795 0.36974 0.0
H2107 H 0.29185 0.85459 0.29187 0.0
H2108 H 0.26911 0.8366 0.30982 0.0
H2109 H 0.2612 0.85474 0.37197 0.0
H2110 H 0.1867 0.80026 0.39802 0.0
H2111 H 0.21098 0.82096 0.38615 0.0
C2112 C 0.15315 0.68254 0.73547 0.0
C2113 C 0.14373 0.66802 0.72472 0.0
C2114 C 0.1579 0.70102 0.7269 0.0
C2115 C 0.15038 0.73301 0.68242 0.0
H2116 H 0.19741 0.75271 0.69496 0.0
C2117 C 0.18016 0.80375 0.64484 0.0
C2118 C 0.19853 0.80407 0.64167 0.0
C2119 C 0.17244 0.78823 0.65576 0.0
C2120 C 0.18433 0.74729 0.69106 0.0
H2121 H 0.13086 0.66149 0.69726 0.0
H2122 H 0.13979 0.69311 0.6819 0.0
H2123 H 0.18539 0.72425 0.71284 0.0
H2124 H 0.22307 0.78782 0.64728 0.0
H2125 H 0.20952 0.7602 0.66498 0.0
H2126 H 0.14982 0.75513 0.65973 0.0
C2127 C 0.14331 0.69075 0.697 0.0
C2128 C 0.17725 0.73116 0.70165 0.0
C2129 C 0.13833 0.67251 0.70568 0.0
C2130 C 0.20886 0.78804 0.64911 0.0
C2131 C 0.2011 0.77234 0.6597 0.0
C2132 C 0.1576 0.74889 0.67157 0.0
C2133 C 0.15345 0.70514 0.70735 0.0
C2134 C 0.16026 0.7236 0.69732 0.0
C2135 C 0.18284 0.77241 0.66351 0.0
C2136 C 0.17477 0.75608 0.67557 0.0
H2137 H 0.15717 0.67938 0.7503 0.0
H2138 H 0.16531 0.71191 0.7355 0.0
H2139 H 0.13712 0.72794 0.67888 0.0
H2140 H 0.17169 0.81562 0.63909 0.0
H2141 H 0.15836 0.78896 0.65845 0.0
C2142 C 0.2983 0.17091 0.67687 0.0
C2143 C 0.31162 0.1607 0.66661 0.0
C2144 C 0.28446 0.1805 0.66697 0.0
C2145 C 0.25989 0.18222 0.62079 0.0
H2146 H 0.24651 0.23572 0.63928 0.0
C2147 C 0.19221 0.21976 0.60551 0.0
C2148 C 0.19131 0.24106 0.60415 0.0
C2149 C 0.20836 0.21008 0.60908 0.0
C2150 C 0.25023 0.22094 0.63368 0.0
H2151 H 0.32059 0.15202 0.63794 0.0
H2152 H 0.29627 0.16887 0.62057 0.0
H2153 H 0.27163 0.21834 0.65401 0.0
H2154 H 0.20679 0.2688 0.60408 0.0
H2155 H 0.23507 0.25188 0.60999 0.0
H2156 H 0.23828 0.18481 0.60056 0.0
C2157 C 0.2966 0.1694 0.6363 0.0
C2158 C 0.26448 0.21086 0.64233 0.0
C2159 C 0.31055 0.15987 0.64622 0.0
C2160 C 0.20706 0.25237 0.60502 0.0
C2161 C 0.22323 0.24269 0.60861 0.0
C2162 C 0.24553 0.1923 0.61215 0.0
C2163 C 0.28358 0.18011 0.64658 0.0
C2164 C 0.26926 0.19124 0.63625 0.0
C2165 C 0.22396 0.22151 0.61137 0.0
C2166 C 0.24038 0.21166 0.61872 0.0
H2167 H 0.29887 0.17208 0.69255 0.0
H2168 H 0.27448 0.18837 0.67532 0.0
H2169 H 0.26327 0.1671 0.61581 0.0
H2170 H 0.1803 0.21063 0.60462 0.0
H2171 H 0.20843 0.19377 0.61119 0.0
C2172 C 0.78745 0.18775 0.68511 0.0
C2173 C 0.79803 0.18027 0.67007 0.0
C2174 C 0.79298 0.20462 0.696 0.0
C2175 C 0.82368 0.24856 0.69325 0.0
H2176 H 0.81555 0.25272 0.74867 0.0
C2177 C 0.85586 0.31169 0.73808 0.0
C2178 C 0.84429 0.32317 0.74952 0.0
C2179 C 0.85045 0.29306 0.73039 0.0
C2180 C 0.81783 0.25175 0.73319 0.0
H2181 H 0.82232 0.18454 0.65417 0.0
H2182 H 0.83239 0.21335 0.67355 0.0
H2183 H 0.80544 0.22251 0.73097 0.0
H2184 H 0.81829 0.3243 0.76236 0.0
H2185 H 0.80878 0.29134 0.74904 0.0
H2186 H 0.83625 0.27758 0.69547 0.0
C2187 C 0.81973 0.20655 0.67691 0.0
C2188 C 0.81198 0.23452 0.72302 0.0
C2189 C 0.81412 0.1899 0.66595 0.0
C2190 C 0.82747 0.31543 0.75382 0.0
C2191 C 0.82207 0.29667 0.7462 0.0
C2192 C 0.82966 0.26559 0.70341 0.0
C2193 C 0.80917 0.21429 0.69195 0.0
C2194 C 0.81495 0.23267 0.70292 0.0
C2195 C 0.83335 0.28562 0.73394 0.0
C2196 C 0.8269 0.26732 0.72348 0.0
H2197 H 0.77486 0.18066 0.68827 0.0
H2198 H 0.78439 0.21034 0.70726 0.0
H2199 H 0.82578 0.24798 0.67772 0.0
H2200 H 0.86878 0.31761 0.73435 0.0
H2201 H 0.85946 0.28477 0.72113 0.0
C2202 C 0.79095 0.75823 0.61735 0.0
C2203 C 0.80748 0.76673 0.61288 0.0
C2204 C 0.77713 0.77055 0.62385 0.0
C2205 C 0.76261 0.82445 0.62949 0.0
H2206 H 0.73696 0.80244 0.67327 0.0
C2207 C 0.70295 0.86532 0.66456 0.0
C2208 C 0.70045 0.86306 0.68467 0.0
C2209 C 0.71644 0.85479 0.65511 0.0
C2210 C 0.74413 0.80894 0.66121 0.0
H2211 H 0.822 0.79503 0.61021 0.0
H2212 H 0.79815 0.81641 0.62205 0.0
H2213 H 0.75868 0.78151 0.65688 0.0
H2214 H 0.7108 0.84873 0.71076 0.0
H2215 H 0.73474 0.83102 0.69442 0.0
H2216 H 0.74846 0.85216 0.63433 0.0
C2217 C 0.79575 0.80026 0.62047 0.0
C2218 C 0.75638 0.79677 0.65155 0.0
C2219 C 0.80951 0.78796 0.61387 0.0
C2220 C 0.71239 0.85093 0.69528 0.0
C2221 C 0.72595 0.8405 0.68585 0.0
C2222 C 0.7504 0.83668 0.63924 0.0
C2223 C 0.77956 0.79164 0.6261 0.0
C2224 C 0.76581 0.80436 0.63559 0.0
C2225 C 0.72785 0.84186 0.66557 0.0
C2226 C 0.74107 0.82909 0.65528 0.0
H2227 H 0.78895 0.74193 0.61682 0.0
H2228 H 0.7647 0.76345 0.62765 0.0
H2229 H 0.76952 0.83075 0.61716 0.0
H2230 H 0.69415 0.87479 0.65599 0.0
H2231 H 0.71744 0.85618 0.63948 0.0
C2232 C 0.24735 0.12499 0.27343 0.0
C2233 C 0.25755 0.11908 0.28961 0.0
C2234 C 0.25553 0.12989 0.25589 0.0
C2235 C 0.29713 0.12543 0.22837 0.0
H2236 H 0.28464 0.17858 0.20813 0.0
C2237 C 0.34345 0.17005 0.17821 0.0
C2238 C 0.33612 0.18268 0.16387 0.0
C2239 C 0.33257 0.16031 0.19159 0.0
C2240 C 0.28809 0.16353 0.21329 0.0
H2241 H 0.28409 0.11249 0.2999 0.0
H2242 H 0.29839 0.12084 0.26922 0.0
H2243 H 0.26764 0.16405 0.23464 0.0
H2244 H 0.31183 0.19433 0.15139 0.0
H2245 H 0.29257 0.17699 0.17463 0.0
H2246 H 0.31766 0.12492 0.20717 0.0
C2247 C 0.2841 0.12175 0.27006 0.0
C2248 C 0.27834 0.15521 0.22852 0.0
C2249 C 0.27595 0.11709 0.28765 0.0
C2250 C 0.31771 0.18491 0.16262 0.0
C2251 C 0.30676 0.17504 0.17595 0.0
C2252 C 0.30679 0.13366 0.21303 0.0
C2253 C 0.27402 0.12872 0.25416 0.0
C2254 C 0.283 0.13627 0.23649 0.0
C2255 C 0.31408 0.16274 0.19071 0.0
C2256 C 0.30265 0.15303 0.20559 0.0
H2257 H 0.23315 0.1268 0.27461 0.0
H2258 H 0.24744 0.13507 0.24381 0.0
H2259 H 0.30088 0.11068 0.23408 0.0
H2260 H 0.35765 0.16787 0.17914 0.0
H2261 H 0.33873 0.15122 0.20287 0.0
C2262 C 0.82661 0.32272 0.34364 0.0
C2263 C 0.84501 0.32489 0.34242 0.0
C2264 C 0.81552 0.33216 0.32999 0.0
C2265 C 0.81521 0.37205 0.29133 0.0
H2266 H 0.77571 0.34089 0.27087 0.0
C2267 C 0.78365 0.38513 0.2159 0.0
C2268 C 0.76518 0.3835 0.21404 0.0
C2269 C 0.79198 0.38116 0.23367 0.0
C2270 C 0.78652 0.34993 0.27665 0.0
H2271 H 0.86637 0.3393 0.32686 0.0
H2272 H 0.84722 0.35515 0.30256 0.0
H2273 H 0.79296 0.3275 0.29802 0.0
H2274 H 0.74088 0.37707 0.22935 0.0
H2275 H 0.75552 0.3699 0.26049 0.0
H2276 H 0.80917 0.39403 0.26927 0.0
C2277 C 0.84117 0.34643 0.31407 0.0
C2278 C 0.79641 0.34228 0.29226 0.0
C2279 C 0.85218 0.33714 0.3278 0.0
C2280 C 0.75513 0.37858 0.23046 0.0
C2281 C 0.7635 0.37432 0.2482 0.0
C2282 C 0.80543 0.37959 0.27559 0.0
C2283 C 0.82268 0.34398 0.31489 0.0
C2284 C 0.8111 0.35306 0.29957 0.0
C2285 C 0.78204 0.37521 0.24987 0.0
C2286 C 0.79117 0.36845 0.2679 0.0
H2287 H 0.82086 0.31361 0.35508 0.0
H2288 H 0.80135 0.33023 0.3313 0.0
H2289 H 0.82617 0.38101 0.29685 0.0
H2290 H 0.79167 0.38896 0.20344 0.0
H2291 H 0.80629 0.38182 0.23448 0.0
C2292 C 0.68767 0.78466 0.19756 0.0
C2293 C 0.67509 0.79857 0.19058 0.0
C2294 C 0.69921 0.79016 0.21268 0.0
C2295 C 0.71846 0.83492 0.23708 0.0
H2296 H 0.72384 0.79949 0.28173 0.0
C2297 C 0.74269 0.86415 0.31114 0.0
C2298 C 0.75263 0.85127 0.3232 0.0
C2299 C 0.73599 0.85707 0.29345 0.0
C2300 C 0.72282 0.80941 0.26922 0.0
H2301 H 0.66396 0.82862 0.19424 0.0
H2302 H 0.68426 0.83843 0.22043 0.0
H2303 H 0.70673 0.788 0.2536 0.0
H2304 H 0.76357 0.8211 0.32653 0.0
H2305 H 0.75219 0.80866 0.29524 0.0
H2306 H 0.73437 0.85641 0.25265 0.0
C2307 C 0.68551 0.82345 0.21404 0.0
C2308 C 0.71295 0.80283 0.25314 0.0
C2309 C 0.6739 0.81787 0.19913 0.0
C2310 C 0.75611 0.83131 0.31722 0.0
C2311 C 0.74945 0.82419 0.29945 0.0
C2312 C 0.72843 0.84144 0.25307 0.0
C2313 C 0.69832 0.80969 0.22096 0.0
C2314 C 0.71033 0.81571 0.23711 0.0
C2315 C 0.73905 0.83691 0.2875 0.0
C2316 C 0.73037 0.82897 0.26955 0.0
H2317 H 0.68859 0.7696 0.19127 0.0
H2318 H 0.70893 0.77925 0.21776 0.0
H2319 H 0.71691 0.84503 0.22477 0.0
H2320 H 0.73954 0.87946 0.31578 0.0
H2321 H 0.72776 0.86717 0.28487 0.0
C2322 C 0.25125 0.63789 0.22253 0.0
C2323 C 0.24083 0.63099 0.20688 0.0
C2324 C 0.24332 0.64381 0.23993 0.0
C2325 C 0.20221 0.64027 0.26839 0.0
H2326 H 0.21569 0.69348 0.28777 0.0
C2327 C 0.15911 0.68328 0.32309 0.0
C2328 C 0.16759 0.69445 0.3378 0.0
C2329 C 0.16884 0.67505 0.30784 0.0
C2330 C 0.21194 0.67847 0.28276 0.0
H2331 H 0.21414 0.62383 0.19743 0.0
H2332 H 0.20029 0.63398 0.22785 0.0
H2333 H 0.23167 0.67861 0.2606 0.0
H2334 H 0.19277 0.70542 0.3486 0.0
H2335 H 0.20999 0.6908 0.322 0.0
H2336 H 0.18248 0.64007 0.29048 0.0
C2337 C 0.21456 0.63487 0.2267 0.0
C2338 C 0.22111 0.66994 0.26719 0.0
C2339 C 0.22246 0.62916 0.20926 0.0
C2340 C 0.18597 0.6972 0.33712 0.0
C2341 C 0.19577 0.68884 0.32191 0.0
C2342 C 0.19312 0.64872 0.28403 0.0
C2343 C 0.22486 0.64272 0.24206 0.0
C2344 C 0.21617 0.65088 0.25967 0.0
C2345 C 0.18732 0.6775 0.30717 0.0
C2346 C 0.19767 0.66808 0.29122 0.0
H2347 H 0.26543 0.63963 0.221 0.0
H2348 H 0.25159 0.64963 0.25159 0.0
H2349 H 0.19826 0.62544 0.26306 0.0
H2350 H 0.14497 0.6806 0.32361 0.0
H2351 H 0.16185 0.66668 0.29662 0.0
C2352 C 0.33466 0.82084 0.80844 0.0
C2353 C 0.33166 0.80134 0.81593 0.0
C2354 C 0.32461 0.82803 0.79282 0.0
C2355 C 0.28351 0.81881 0.76418 0.0
H2356 H 0.30832 0.85038 0.7254 0.0
C2357 C 0.25497 0.83921 0.68781 0.0
C2358 C 0.25843 0.85892 0.68108 0.0
C2359 C 0.26236 0.8325 0.70538 0.0
C2360 C 0.30114 0.8418 0.73621 0.0
H2361 H 0.31631 0.77378 0.8129 0.0
H2362 H 0.29883 0.78614 0.78514 0.0
H2363 H 0.32436 0.83774 0.75362 0.0
H2364 H 0.27209 0.88714 0.6871 0.0
H2365 H 0.28488 0.87559 0.71791 0.0
H2366 H 0.26033 0.82262 0.74633 0.0
C2367 C 0.30857 0.79615 0.79169 0.0
C2368 C 0.31033 0.83456 0.75243 0.0
C2369 C 0.31858 0.78901 0.80747 0.0
C2370 C 0.26905 0.87199 0.69226 0.0
C2371 C 0.27648 0.86529 0.70973 0.0
C2372 C 0.27431 0.82596 0.74782 0.0
C2373 C 0.31157 0.81571 0.78408 0.0
C2374 C 0.30163 0.8231 0.76671 0.0
C2375 C 0.27352 0.84534 0.71629 0.0
C2376 C 0.28303 0.83766 0.73374 0.0
H2377 H 0.34493 0.83044 0.81458 0.0
H2378 H 0.32713 0.84326 0.78755 0.0
H2379 H 0.27636 0.81019 0.77498 0.0
H2380 H 0.24703 0.82884 0.67916 0.0
H2381 H 0.25999 0.817 0.70998 0.0
C2382 C 0.24448 0.37545 0.77582 0.0
C2383 C 0.23363 0.3824 0.79091 0.0
C2384 C 0.23724 0.37101 0.75755 0.0
C2385 C 0.19775 0.37819 0.72615 0.0
H2386 H 0.20919 0.32439 0.70691 0.0
C2387 C 0.15247 0.3353 0.67277 0.0
C2388 C 0.16005 0.32226 0.65904 0.0
C2389 C 0.16305 0.34484 0.68674 0.0
C2390 C 0.20608 0.33962 0.7118 0.0
H2391 H 0.20695 0.39125 0.79849 0.0
H2392 H 0.19428 0.38357 0.76658 0.0
H2393 H 0.22509 0.33795 0.73495 0.0
H2394 H 0.18446 0.30962 0.64827 0.0
H2395 H 0.20322 0.32657 0.67262 0.0
H2396 H 0.17856 0.37977 0.7032 0.0
C2397 C 0.20838 0.38156 0.76882 0.0
C2398 C 0.2152 0.34738 0.7279 0.0
C2399 C 0.21558 0.38582 0.78712 0.0
C2400 C 0.17841 0.31943 0.65898 0.0
C2401 C 0.18906 0.32907 0.67293 0.0
C2402 C 0.1887 0.37048 0.70997 0.0
C2403 C 0.21904 0.37361 0.75399 0.0
C2404 C 0.21087 0.36656 0.73551 0.0
C2405 C 0.18147 0.34173 0.68712 0.0
C2406 C 0.19247 0.3509 0.70287 0.0
H2407 H 0.25841 0.3725 0.77839 0.0
H2408 H 0.2458 0.36506 0.74635 0.0
H2409 H 0.19429 0.39314 0.73154 0.0
H2410 H 0.1383 0.3378 0.67286 0.0
H2411 H 0.15669 0.35422 0.69757 0.0
C2412 C 0.74468 0.12865 0.72187 0.0
C2413 C 0.73561 0.12057 0.70575 0.0
C2414 C 0.73545 0.13422 0.73857 0.0
C2415 C 0.69037 0.14957 0.75278 0.0
H2416 H 0.70976 0.14751 0.80506 0.0
C2417 C 0.64993 0.17288 0.81971 0.0
C2418 C 0.65844 0.18559 0.83322 0.0
C2419 C 0.6595 0.16388 0.80474 0.0
C2420 C 0.70425 0.1483 0.7905 0.0
H2421 H 0.71011 0.11056 0.69488 0.0
H2422 H 0.69404 0.1196 0.72424 0.0
H2423 H 0.72611 0.13209 0.77833 0.0
H2424 H 0.68353 0.19827 0.84242 0.0
H2425 H 0.70046 0.18248 0.81608 0.0
H2426 H 0.66851 0.16568 0.76495 0.0
C2427 C 0.70817 0.1223 0.72382 0.0
C2428 C 0.7136 0.13947 0.77519 0.0
C2429 C 0.71736 0.11695 0.70707 0.0
C2430 C 0.67673 0.18877 0.83189 0.0
C2431 C 0.68637 0.17962 0.81698 0.0
C2432 C 0.68099 0.15823 0.76808 0.0
C2433 C 0.71699 0.13166 0.73953 0.0
C2434 C 0.70679 0.14006 0.75612 0.0
C2435 C 0.67782 0.16716 0.8032 0.0
C2436 C 0.68785 0.15776 0.78708 0.0
H2437 H 0.75874 0.13179 0.72112 0.0
H2438 H 0.74268 0.14153 0.75029 0.0
H2439 H 0.68489 0.15079 0.73825 0.0
H2440 H 0.6359 0.1698 0.82087 0.0
H2441 H 0.65261 0.15409 0.79454 0.0
C2442 C 0.84331 0.67207 0.67795 0.0
C2443 C 0.83572 0.68458 0.66366 0.0
C2444 C 0.83303 0.6645 0.69306 0.0
C2445 C 0.79082 0.67289 0.71884 0.0
H2446 H 0.8005 0.61895 0.73908 0.0
C2447 C 0.74951 0.63747 0.7804 0.0
C2448 C 0.7596 0.62983 0.79599 0.0
C2449 C 0.7576 0.64233 0.7628 0.0
C2450 C 0.79767 0.63404 0.73359 0.0
H2451 H 0.81149 0.69839 0.65328 0.0
H2452 H 0.79325 0.68488 0.67959 0.0
H2453 H 0.81681 0.63132 0.71103 0.0
H2454 H 0.78581 0.62033 0.80517 0.0
H2455 H 0.79993 0.62863 0.77437 0.0
H2456 H 0.77166 0.67553 0.74146 0.0
C2457 C 0.80725 0.68138 0.6795 0.0
C2458 C 0.80707 0.6412 0.71758 0.0
C2459 C 0.81762 0.68908 0.66444 0.0
C2460 C 0.77776 0.62628 0.79339 0.0
C2461 C 0.7858 0.63092 0.77574 0.0
C2462 C 0.78132 0.66565 0.73475 0.0
C2463 C 0.81485 0.66898 0.69401 0.0
C2464 C 0.80398 0.66085 0.7102 0.0
C2465 C 0.77588 0.6394 0.7604 0.0
C2466 C 0.78484 0.64628 0.74247 0.0
H2467 H 0.8572 0.66807 0.67733 0.0
H2468 H 0.8394 0.65525 0.70409 0.0
H2469 H 0.78823 0.68817 0.71373 0.0
H2470 H 0.73552 0.64052 0.78209 0.0
H2471 H 0.74962 0.6487 0.75117 0.0
C2472 C 0.21135 0.34781 0.18873 0.0
C2473 C 0.199 0.36061 0.17951 0.0
C2474 C 0.22346 0.33667 0.17784 0.0
C2475 C 0.245 0.33348 0.13005 0.0
H2476 H 0.25411 0.27808 0.14655 0.0
C2477 C 0.30767 0.28876 0.11042 0.0
C2478 C 0.30693 0.26744 0.10948 0.0
C2479 C 0.29252 0.30004 0.11452 0.0
C2480 C 0.25151 0.29338 0.14147 0.0
H2481 H 0.19017 0.37236 0.15163 0.0
H2482 H 0.21125 0.35268 0.13257 0.0
H2483 H 0.23193 0.29815 0.16322 0.0
H2484 H 0.28951 0.24131 0.11034 0.0
H2485 H 0.26286 0.26106 0.11711 0.0
H2486 H 0.26469 0.32865 0.1083 0.0
C2487 C 0.21156 0.35132 0.14824 0.0
C2488 C 0.23899 0.30501 0.15126 0.0
C2489 C 0.19941 0.36247 0.15916 0.0
C2490 C 0.29046 0.25773 0.11101 0.0
C2491 C 0.27526 0.26903 0.1151 0.0
C2492 C 0.25756 0.32181 0.12021 0.0
C2493 C 0.22352 0.33803 0.15745 0.0
C2494 C 0.23587 0.32533 0.14597 0.0
C2495 C 0.27628 0.29023 0.11772 0.0
C2496 C 0.26122 0.30175 0.12607 0.0
H2497 H 0.21128 0.34583 0.20434 0.0
H2498 H 0.23273 0.32686 0.1854 0.0
H2499 H 0.24291 0.3491 0.12561 0.0
H2500 H 0.32019 0.29664 0.10902 0.0
H2501 H 0.29384 0.31631 0.11648 0.0
C2502 C 0.28623 0.72973 0.86748 0.0
C2503 C 0.30273 0.72 0.86911 0.0
C2504 C 0.27102 0.71859 0.86285 0.0
C2505 C 0.25292 0.66602 0.85769 0.0
H2506 H 0.22401 0.6911 0.81758 0.0
C2507 C 0.2036 0.62139 0.80855 0.0
C2508 C 0.18738 0.63086 0.80417 0.0
C2509 C 0.21679 0.63185 0.81888 0.0
C2510 C 0.23177 0.68396 0.82897 0.0
H2511 H 0.31592 0.69072 0.86873 0.0
H2512 H 0.28954 0.6714 0.86013 0.0
H2513 H 0.24814 0.71021 0.83225 0.0
H2514 H 0.17233 0.65878 0.80725 0.0
H2515 H 0.19513 0.67679 0.82544 0.0
H2516 H 0.2367 0.63952 0.85389 0.0
C2517 C 0.28827 0.6876 0.86251 0.0
C2518 C 0.2456 0.69496 0.83746 0.0
C2519 C 0.30346 0.69872 0.86723 0.0
C2520 C 0.18456 0.6509 0.81059 0.0
C2521 C 0.19772 0.66133 0.82083 0.0
C2522 C 0.23909 0.65496 0.8491 0.0
C2523 C 0.27196 0.69748 0.85967 0.0
C2524 C 0.25643 0.68611 0.85184 0.0
C2525 C 0.21406 0.65204 0.8249 0.0
C2526 C 0.22843 0.66379 0.83457 0.0
H2527 H 0.28519 0.74609 0.86878 0.0
H2528 H 0.25859 0.72663 0.86116 0.0
H2529 H 0.26088 0.6588 0.86887 0.0
H2530 H 0.20612 0.60593 0.80392 0.0
H2531 H 0.22931 0.62433 0.82167 0.0
C2532 C 0.29316 0.30407 0.8321 0.0
C2533 C 0.28697 0.32353 0.82728 0.0
C2534 C 0.29875 0.29078 0.8176 0.0
C2535 C 0.31901 0.28956 0.77032 0.0
H2536 H 0.30395 0.23318 0.77007 0.0
C2537 C 0.36018 0.22237 0.74152 0.0
C2538 C 0.35128 0.20649 0.73198 0.0
C2539 C 0.35074 0.23899 0.74868 0.0
C2540 C 0.30809 0.24895 0.76972 0.0
H2541 H 0.2824 0.34483 0.80382 0.0
H2542 H 0.29266 0.3216 0.77827 0.0
H2543 H 0.28977 0.25736 0.79191 0.0
H2544 H 0.32583 0.19553 0.72194 0.0
H2545 H 0.3092 0.22459 0.73464 0.0
H2546 H 0.33793 0.28088 0.74875 0.0
C2547 C 0.29274 0.31651 0.79323 0.0
C2548 C 0.30007 0.26272 0.78232 0.0
C2549 C 0.28684 0.3297 0.80776 0.0
C2550 C 0.33294 0.20782 0.729 0.0
C2551 C 0.32346 0.22433 0.73636 0.0
C2552 C 0.32722 0.2757 0.75788 0.0
C2553 C 0.29871 0.29691 0.79805 0.0
C2554 C 0.30569 0.28304 0.78301 0.0
C2555 C 0.33222 0.23978 0.74676 0.0
C2556 C 0.32204 0.25518 0.75772 0.0
H2557 H 0.29403 0.2993 0.84714 0.0
H2558 H 0.30366 0.27591 0.82173 0.0
H2559 H 0.32364 0.30515 0.77067 0.0
H2560 H 0.37424 0.22133 0.74452 0.0
H2561 H 0.3578 0.25051 0.7569 0.0
C2562 C 0.69657 0.26858 0.85708 0.0
C2563 C 0.69264 0.26621 0.87683 0.0
C2564 C 0.71115 0.27997 0.85136 0.0
C2565 C 0.73939 0.322 0.86644 0.0
H2566 H 0.76785 0.30393 0.82309 0.0
C2567 C 0.79744 0.36881 0.83323 0.0
C2568 C 0.79839 0.36869 0.81282 0.0
C2569 C 0.78524 0.35643 0.84284 0.0
C2570 C 0.75994 0.30926 0.83512 0.0
H2571 H 0.70097 0.27344 0.90618 0.0
H2572 H 0.7267 0.29375 0.8961 0.0
H2573 H 0.74624 0.28092 0.83721 0.0
H2574 H 0.78697 0.35581 0.78655 0.0
H2575 H 0.76551 0.33473 0.80323 0.0
H2576 H 0.75292 0.35055 0.86401 0.0
C2577 C 0.71839 0.28673 0.88509 0.0
C2578 C 0.74763 0.29604 0.84326 0.0
C2579 C 0.70381 0.27506 0.89086 0.0
C2580 C 0.78646 0.35651 0.80225 0.0
C2581 C 0.77434 0.34415 0.81183 0.0
C2582 C 0.75176 0.33528 0.85826 0.0
C2583 C 0.72212 0.28936 0.86525 0.0
C2584 C 0.73691 0.30243 0.85867 0.0
C2585 C 0.77385 0.34361 0.83223 0.0
C2586 C 0.76183 0.32919 0.84218 0.0
H2587 H 0.6882 0.26178 0.846 0.0
H2588 H 0.71353 0.2819 0.83597 0.0
H2589 H 0.73122 0.32736 0.87824 0.0
H2590 H 0.80638 0.37814 0.84177 0.0
H2591 H 0.78516 0.35636 0.85857 0.0
C2592 C 0.70304 0.68367 0.81573 0.0
C2593 C 0.70263 0.6871 0.83585 0.0
C2594 C 0.6971 0.69865 0.80279 0.0
C2595 C 0.69043 0.7534 0.79849 0.0
H2596 H 0.65463 0.7408 0.75961 0.0
C2597 C 0.66511 0.81436 0.74579 0.0
C2598 C 0.64669 0.81695 0.7462 0.0
C2599 C 0.67284 0.79682 0.7535 0.0
C2600 C 0.66471 0.74446 0.77032 0.0
H2601 H 0.69487 0.70822 0.85834 0.0
H2602 H 0.68518 0.73477 0.83577 0.0
H2603 H 0.66684 0.71354 0.78006 0.0
H2604 H 0.6218 0.80319 0.75418 0.0
H2605 H 0.63529 0.77215 0.76735 0.0
H2606 H 0.68821 0.78428 0.78905 0.0
C2607 C 0.69031 0.72065 0.82997 0.0
C2608 C 0.67174 0.7289 0.78192 0.0
C2609 C 0.69595 0.70557 0.84287 0.0
C2610 C 0.63602 0.80129 0.75343 0.0
C2611 C 0.64374 0.78361 0.76097 0.0
C2612 C 0.68363 0.76886 0.78672 0.0
C2613 C 0.69079 0.71733 0.80982 0.0
C2614 C 0.68443 0.73333 0.79634 0.0
C2615 C 0.66226 0.78153 0.76167 0.0
C2616 C 0.67052 0.76461 0.77272 0.0
H2617 H 0.70784 0.66934 0.81007 0.0
H2618 H 0.69755 0.69572 0.78732 0.0
H2619 H 0.70026 0.75718 0.80945 0.0
H2620 H 0.67356 0.82639 0.7404 0.0
H2621 H 0.68713 0.79553 0.75372 0.0
C2622 C 0.71685 0.72593 0.13895 0.0
C2623 C 0.69984 0.71794 0.13565 0.0
C2624 C 0.73106 0.71301 0.14331 0.0
C2625 C 0.76039 0.68078 0.14596 0.0
H2626 H 0.74907 0.64099 0.18558 0.0
C2627 C 0.81219 0.62435 0.17746 0.0
C2628 C 0.81293 0.62349 0.1979 0.0
C2629 C 0.7982 0.63421 0.16794 0.0
C2630 C 0.75243 0.65198 0.17448 0.0
H2631 H 0.68471 0.69007 0.13268 0.0
H2632 H 0.70946 0.66758 0.14036 0.0
H2633 H 0.72555 0.66165 0.17132 0.0
H2634 H 0.79923 0.63225 0.22423 0.0
H2635 H 0.77469 0.64886 0.20761 0.0
H2636 H 0.78739 0.67135 0.14953 0.0
C2637 C 0.71175 0.68384 0.13996 0.0
C2638 C 0.73894 0.66369 0.16618 0.0
C2639 C 0.69759 0.69671 0.13555 0.0
C2640 C 0.79899 0.63218 0.2085 0.0
C2641 C 0.78494 0.64183 0.19898 0.0
C2642 C 0.77389 0.6689 0.15415 0.0
C2643 C 0.7285 0.69186 0.14448 0.0
C2644 C 0.74279 0.6784 0.152 0.0
C2645 C 0.7845 0.64321 0.17862 0.0
C2646 C 0.77007 0.6546 0.16872 0.0
H2647 H 0.71898 0.74221 0.13926 0.0
H2648 H 0.7438 0.71966 0.14682 0.0
H2649 H 0.76374 0.69192 0.13501 0.0
H2650 H 0.82252 0.61755 0.16879 0.0
H2651 H 0.79809 0.63482 0.15222 0.0
C2652 C 0.33457 0.81279 0.25916 0.0
C2653 C 0.35173 0.81908 0.25448 0.0
C2654 C 0.32808 0.79418 0.2523 0.0
C2655 C 0.34179 0.74606 0.22763 0.0
H2656 H 0.29403 0.74753 0.20664 0.0
C2657 C 0.31781 0.69312 0.1666 0.0
C2658 C 0.30143 0.68346 0.16896 0.0
C2659 C 0.32335 0.70807 0.17967 0.0
C2660 C 0.30729 0.74679 0.21268 0.0
H2661 H 0.37565 0.81126 0.23919 0.0
H2662 H 0.3644 0.77897 0.22692 0.0
H2663 H 0.30509 0.77621 0.22562 0.0
H2664 H 0.27753 0.68235 0.18601 0.0
H2665 H 0.28706 0.70906 0.20883 0.0
H2666 H 0.3442 0.71703 0.21379 0.0
C2667 C 0.35602 0.78789 0.23633 0.0
C2668 C 0.31364 0.76318 0.22364 0.0
C2669 C 0.3625 0.80639 0.24331 0.0
C2670 C 0.29033 0.68949 0.18415 0.0
C2671 C 0.29576 0.70471 0.19711 0.0
C2672 C 0.33552 0.72981 0.21649 0.0
C2673 C 0.33859 0.78171 0.2404 0.0
C2674 C 0.33111 0.76322 0.23091 0.0
C2675 C 0.31241 0.71398 0.19509 0.0
C2676 C 0.31833 0.7302 0.20859 0.0
H2677 H 0.32601 0.82259 0.26757 0.0
H2678 H 0.31469 0.78981 0.25593 0.0
H2679 H 0.35517 0.74534 0.23336 0.0
H2680 H 0.32634 0.68904 0.15463 0.0
H2681 H 0.33607 0.71529 0.17752 0.0
C2682 C 0.70727 0.32281 0.19188 0.0
C2683 C 0.69792 0.33008 0.17567 0.0
C2684 C 0.70003 0.30751 0.20348 0.0
C2685 C 0.66674 0.26626 0.20179 0.0
H2686 H 0.6723 0.26674 0.25783 0.0
C2687 C 0.63184 0.20753 0.25004 0.0
C2688 C 0.64249 0.19824 0.26421 0.0
C2689 C 0.63786 0.22479 0.24029 0.0
C2690 C 0.67073 0.26637 0.24219 0.0
H2691 H 0.67404 0.32701 0.15839 0.0
H2692 H 0.66107 0.30073 0.17888 0.0
H2693 H 0.6844 0.29463 0.23861 0.0
H2694 H 0.66742 0.19947 0.27977 0.0
H2695 H 0.67805 0.22982 0.26277 0.0
H2696 H 0.65309 0.23804 0.20534 0.0
C2697 C 0.67403 0.30662 0.18267 0.0
C2698 C 0.6777 0.2823 0.23117 0.0
C2699 C 0.68132 0.3218 0.17106 0.0
C2700 C 0.659 0.20664 0.26895 0.0
C2701 C 0.66502 0.22397 0.25928 0.0
C2702 C 0.65971 0.25043 0.2128 0.0
C2703 C 0.68334 0.29917 0.19896 0.0
C2704 C 0.67581 0.28241 0.21082 0.0
C2705 C 0.65464 0.23301 0.24459 0.0
C2706 C 0.66165 0.25027 0.2331 0.0
H2707 H 0.72024 0.32886 0.19543 0.0
H2708 H 0.70769 0.3019 0.21571 0.0
H2709 H 0.66535 0.26561 0.18614 0.0
H2710 H 0.61909 0.20111 0.24618 0.0
H2711 H 0.6295 0.23156 0.22921 0.0
loop_
_geom_bond_atom_site_label_1
_geom_bond_atom_site_label_2
_geom_bond_distance
_geom_bond_site_symmetry_2
_ccdc_geom_bond_type
C0 C1 1.443 . S
C0 N4 1.376 . S
C0 C38 1.389 . S
C1 C0 1.443 . S
C1 C2 1.340 . S
C1 H41 0.951 . S
C2 C1 1.340 . S
C2 C3 1.439 . S
C2 H42 0.950 . S
C3 C2 1.439 . S
C3 N4 1.374 . S
C3 C37 1.395 . S
N4 C0 1.376 . S
N4 C3 1.374 . S
N4 Co5 2.008 . S
Co5 N4 2.008 . S
Co5 N6 1.995 . S
Co5 N11 2.008 . S
Co5 N16 1.995 . S
Co5 N21 2.282 . S
Co5 N27 2.282 . S
N6 Co5 1.995 . S
N6 C7 1.376 . S
N6 C10 1.383 . S
C7 N6 1.376 . S
C7 C8 1.446 . S
C7 C37 1.391 . S
C8 C7 1.446 . S
C8 C9 1.339 . S
C8 H43 0.949 . S
C9 C8 1.339 . S
C9 C10 1.439 . S
C9 H44 0.950 . S
C10 N6 1.383 . S
C10 C9 1.439 . S
C10 C39 1.392 . S
N11 Co5 2.008 . S
N11 C12 1.376 . S
N11 C15 1.374 . S
C12 N11 1.376 . S
C12 C13 1.443 . S
C12 C39 1.389 . S
C13 C12 1.443 . S
C13 C14 1.340 . S
C13 H45 0.951 . S
C14 C13 1.340 . S
C14 C15 1.439 . S
C14 H46 0.950 . S
C15 N11 1.374 . S
C15 C14 1.439 . S
C15 C40 1.395 . S
N16 Co5 1.995 . S
N16 C17 1.376 . S
N16 C20 1.383 . S
C17 N16 1.376 . S
C17 C18 1.446 . S
C17 C40 1.391 . S
C18 C17 1.446 . S
C18 C19 1.339 . S
C18 H47 0.949 . S
C19 C18 1.339 . S
C19 C20 1.439 . S
C19 H48 0.950 . S
C20 N16 1.383 . S
C20 C19 1.439 . S
C20 C38 1.392 . S
N21 Co5 2.282 . S
N21 C24 1.332 . S
N21 C26 1.332 . S
C22 C23 1.386 . S
C22 C25 1.388 . S
C23 C22 1.386 . S
C23 C24 1.382 . S
C23 H49 0.950 . S
C24 N21 1.332 . S
C24 C23 1.382 . S
C24 H35 0.952 . S
C25 C22 1.388 . S
C25 C26 1.382 . S
C25 H50 0.950 . S
C26 N21 1.332 . S
C26 C25 1.382 . S
C26 H36 0.948 . S
N27 Co5 2.282 . S
N27 C31 1.332 . S
N27 C32 1.332 . S
C28 C29 1.388 . S
C28 C32 1.382 . S
C28 H51 0.950 . S
C29 C28 1.388 . S
C29 C30 1.386 . S
C30 C29 1.386 . S
C30 C31 1.382 . S
C30 H52 0.950 . S
C31 N27 1.332 . S
C31 C30 1.382 . S
C31 H33 0.952 . S
C32 N27 1.332 . S
C32 C28 1.382 . S
C32 H34 0.948 . S
H33 C31 0.952 . S
H34 C32 0.948 . S
H35 C24 0.952 . S
H36 C26 0.948 . S
C37 C3 1.395 . S
C37 C7 1.391 . S
C38 C0 1.389 . S
C38 C20 1.392 . S
C39 C10 1.392 . S
C39 C12 1.389 . S
C40 C15 1.395 . S
C40 C17 1.391 . S
H41 C1 0.951 . S
H42 C2 0.950 . S
H43 C8 0.949 . S
H44 C9 0.950 . S
H45 C13 0.951 . S
H46 C14 0.950 . S
H47 C18 0.949 . S
H48 C19 0.950 . S
H49 C23 0.950 . S
H50 C25 0.950 . S
H51 C28 0.950 . S
H52 C30 0.950 . S
C53 C54 1.443 . S
C53 N57 1.376 . S
C53 C91 1.389 . S
C54 C53 1.443 . S
C54 C55 1.340 . S
C54 H94 0.951 . S
C55 C54 1.340 . S
C55 C56 1.439 . S
C55 H95 0.950 . S
C56 C55 1.439 . S
C56 N57 1.374 . S
C56 C90 1.395 . S
N57 C53 1.376 . S
N57 C56 1.374 . S
N57 Co58 2.008 . S
Co58 N57 2.008 . S
Co58 N59 1.995 . S
Co58 N64 2.008 . S
Co58 N69 1.995 . S
Co58 N74 2.282 . S
Co58 N80 2.282 . S
N59 Co58 1.995 . S
N59 C60 1.376 . S
N59 C63 1.383 . S
C60 N59 1.376 . S
C60 C61 1.446 . S
C60 C90 1.391 . S
C61 C60 1.446 . S
C61 C62 1.339 . S
C61 H96 0.949 . S
C62 C61 1.339 . S
C62 C63 1.439 . S
C62 H97 0.950 . S
C63 N59 1.383 . S
C63 C62 1.439 . S
C63 C92 1.392 . S
N64 Co58 2.008 . S
N64 C65 1.376 . S
N64 C68 1.374 . S
C65 N64 1.376 . S
C65 C66 1.443 . S
C65 C92 1.389 . S
C66 C65 1.443 . S
C66 C67 1.340 . S
C66 H98 0.951 . S
C67 C66 1.340 . S
C67 C68 1.439 . S
C67 H99 0.950 . S
C68 N64 1.374 . S
C68 C67 1.439 . S
C68 C93 1.395 . S
N69 Co58 1.995 . S
N69 C70 1.376 . S
N69 C73 1.383 . S
C70 N69 1.376 . S
C70 C71 1.446 . S
C70 C93 1.391 . S
C71 C70 1.446 . S
C71 C72 1.339 . S
C71 H100 0.949 . S
C72 C71 1.339 . S
C72 C73 1.439 . S
C72 H101 0.950 . S
C73 N69 1.383 . S
C73 C72 1.439 . S
C73 C91 1.392 . S
N74 Co58 2.282 . S
N74 C77 1.332 . S
N74 C79 1.332 . S
C75 C76 1.386 . S
C75 C78 1.388 . S
C76 C75 1.386 . S
C76 C77 1.382 . S
C76 H102 0.950 . S
C77 N74 1.332 . S
C77 C76 1.382 . S
C77 H88 0.952 . S
C78 C75 1.388 . S
C78 C79 1.382 . S
C78 H103 0.950 . S
C79 N74 1.332 . S
C79 C78 1.382 . S
C79 H89 0.948 . S
N80 Co58 2.282 . S
N80 C84 1.332 . S
N80 C85 1.332 . S
C81 C82 1.388 . S
C81 C85 1.382 . S
C81 H104 0.950 . S
C82 C81 1.388 . S
C82 C83 1.386 . S
C83 C82 1.386 . S
C83 C84 1.382 . S
C83 H105 0.950 . S
C84 N80 1.332 . S
C84 C83 1.382 . S
C84 H86 0.952 . S
C85 N80 1.332 . S
C85 C81 1.382 . S
C85 H87 0.948 . S
H86 C84 0.952 . S
H87 C85 0.948 . S
H88 C77 0.952 . S
H89 C79 0.948 . S
C90 C56 1.395 . S
C90 C60 1.391 . S
C91 C53 1.389 . S
C91 C73 1.392 . S
C92 C63 1.392 . S
C92 C65 1.389 . S
C93 C68 1.395 . S
C93 C70 1.391 . S
H94 C54 0.951 . S
H95 C55 0.950 . S
H96 C61 0.949 . S
H97 C62 0.950 . S
H98 C66 0.951 . S
H99 C67 0.950 . S
H100 C71 0.949 . S
H101 C72 0.950 . S
H102 C76 0.950 . S
H103 C78 0.950 . S
H104 C81 0.950 . S
H105 C83 0.950 . S
C106 C107 1.443 . S
C106 N110 1.376 . S
C106 C144 1.389 . S
C107 C106 1.443 . S
C107 C108 1.340 . S
C107 H147 0.951 . S
C108 C107 1.340 . S
C108 C109 1.439 . S
C108 H148 0.950 . S
C109 C108 1.439 . S
C109 N110 1.374 . S
C109 C143 1.395 . S
N110 C106 1.376 . S
N110 C109 1.374 . S
N110 Co111 2.008 . S
Co111 N110 2.008 . S
Co111 N112 1.995 . S
Co111 N117 2.008 . S
Co111 N122 1.995 . S
Co111 N127 2.282 . S
Co111 N133 2.282 . S
N112 Co111 1.995 . S
N112 C113 1.376 . S
N112 C116 1.383 . S
C113 N112 1.376 . S
C113 C114 1.446 . S
C113 C143 1.391 . S
C114 C113 1.446 . S
C114 C115 1.339 . S
C114 H149 0.949 . S
C115 C114 1.339 . S
C115 C116 1.439 . S
C115 H150 0.950 . S
C116 N112 1.383 . S
C116 C115 1.439 . S
C116 C145 1.392 . S
N117 Co111 2.008 . S
N117 C118 1.376 . S
N117 C121 1.374 . S
C118 N117 1.376 . S
C118 C119 1.443 . S
C118 C145 1.389 . S
C119 C118 1.443 . S
C119 C120 1.340 . S
C119 H151 0.951 . S
C120 C119 1.340 . S
C120 C121 1.439 . S
C120 H152 0.950 . S
C121 N117 1.374 . S
C121 C120 1.439 . S
C121 C146 1.395 . S
N122 Co111 1.995 . S
N122 C123 1.376 . S
N122 C126 1.383 . S
C123 N122 1.376 . S
C123 C124 1.446 . S
C123 C146 1.391 . S
C124 C123 1.446 . S
C124 C125 1.339 . S
C124 H153 0.949 . S
C125 C124 1.339 . S
C125 C126 1.439 . S
C125 H154 0.950 . S
C126 N122 1.383 . S
C126 C125 1.439 . S
C126 C144 1.392 . S
N127 Co111 2.282 . S
N127 C130 1.332 . S
N127 C132 1.332 . S
C128 C129 1.386 . S
C128 C131 1.388 . S
C129 C128 1.386 . S
C129 C130 1.382 . S
C129 H155 0.950 . S
C130 N127 1.332 . S
C130 C129 1.382 . S
C130 H141 0.952 . S
C131 C128 1.388 . S
C131 C132 1.382 . S
C131 H156 0.950 . S
C132 N127 1.332 . S
C132 C131 1.382 . S
C132 H142 0.948 . S
N133 Co111 2.282 . S
N133 C137 1.332 . S
N133 C138 1.332 . S
C134 C135 1.388 . S
C134 C138 1.382 . S
C134 H157 0.950 . S
C135 C134 1.388 . S
C135 C136 1.386 . S
C136 C135 1.386 . S
C136 C137 1.382 . S
C136 H158 0.950 . S
C137 N133 1.332 . S
C137 C136 1.382 . S
C137 H139 0.952 . S
C138 N133 1.332 . S
C138 C134 1.382 . S
C138 H140 0.948 . S
H139 C137 0.952 . S
H140 C138 0.948 . S
H141 C130 0.952 . S
H142 C132 0.948 . S
C143 C109 1.395 . S
C143 C113 1.391 . S
C144 C106 1.389 . S
C144 C126 1.392 . S
C145 C116 1.392 . S
C145 C118 1.389 . S
C146 C121 1.395 . S
C146 C123 1.391 . S
H147 C107 0.951 . S
H148 C108 0.950 . S
H149 C114 0.949 . S
H150 C115 0.950 . S
H151 C119 0.951 . S
H152 C120 0.950 . S
H153 C124 0.949 . S
H154 C125 0.950 . S
H155 C129 0.950 . S
H156 C131 0.950 . S
H157 C134 0.950 . S
H158 C136 0.950 . S
C159 C160 1.443 . S
C159 N163 1.376 . S
C159 C197 1.389 . S
C160 C159 1.443 . S
C160 C161 1.340 . S
C160 H200 0.951 . S
C161 C160 1.340 . S
C161 C162 1.439 . S
C161 H201 0.950 . S
C162 C161 1.439 . S
C162 N163 1.374 . S
C162 C196 1.395 . S
N163 C159 1.376 . S
N163 C162 1.374 . S
N163 Co164 2.008 . S
Co164 N163 2.008 . S
Co164 N165 1.995 . S
Co164 N170 2.008 . S
Co164 N175 1.995 . S
Co164 N180 2.282 . S
Co164 N186 2.282 . S
N165 Co164 1.995 . S
N165 C166 1.376 . S
N165 C169 1.383 . S
C166 N165 1.376 . S
C166 C167 1.446 . S
C166 C196 1.391 . S
C167 C166 1.446 . S
C167 C168 1.339 . S
C167 H202 0.949 . S
C168 C167 1.339 . S
C168 C169 1.439 . S
C168 H203 0.950 . S
C169 N165 1.383 . S
C169 C168 1.439 . S
C169 C198 1.392 . S
N170 Co164 2.008 . S
N170 C171 1.376 . S
N170 C174 1.374 . S
C171 N170 1.376 . S
C171 C172 1.443 . S
C171 C198 1.389 . S
C172 C171 1.443 . S
C172 C173 1.340 . S
C172 H204 0.951 . S
C173 C172 1.340 . S
C173 C174 1.439 . S
C173 H205 0.950 . S
C174 N170 1.374 . S
C174 C173 1.439 . S
C174 C199 1.395 . S
N175 Co164 1.995 . S
N175 C176 1.376 . S
N175 C179 1.383 . S
C176 N175 1.376 . S
C176 C177 1.446 . S
C176 C199 1.391 . S
C177 C176 1.446 . S
C177 C178 1.339 . S
C177 H206 0.949 . S
C178 C177 1.339 . S
C178 C179 1.439 . S
C178 H207 0.950 . S
C179 N175 1.383 . S
C179 C178 1.439 . S
C179 C197 1.392 . S
N180 Co164 2.282 . S
N180 C183 1.332 . S
N180 C185 1.332 . S
C181 C182 1.386 . S
C181 C184 1.388 . S
C182 C181 1.386 . S
C182 C183 1.382 . S
C182 H208 0.950 . S
C183 N180 1.332 . S
C183 C182 1.382 . S
C183 H194 0.952 . S
C184 C181 1.388 . S
C184 C185 1.382 . S
C184 H209 0.950 . S
C185 N180 1.332 . S
C185 C184 1.382 . S
C185 H195 0.948 . S
N186 Co164 2.282 . S
N186 C190 1.332 . S
N186 C191 1.332 . S
C187 C188 1.388 . S
C187 C191 1.382 . S
C187 H210 0.950 . S
C188 C187 1.388 . S
C188 C189 1.386 . S
C189 C188 1.386 . S
C189 C190 1.382 . S
C189 H211 0.950 . S
C190 N186 1.332 . S
C190 C189 1.382 . S
C190 H192 0.952 . S
C191 N186 1.332 . S
C191 C187 1.382 . S
C191 H193 0.948 . S
H192 C190 0.952 . S
H193 C191 0.948 . S
H194 C183 0.952 . S
H195 C185 0.948 . S
C196 C162 1.395 . S
C196 C166 1.391 . S
C197 C159 1.389 . S
C197 C179 1.392 . S
C198 C169 1.392 . S
C198 C171 1.389 . S
C199 C174 1.395 . S
C199 C176 1.391 . S
H200 C160 0.951 . S
H201 C161 0.950 . S
H202 C167 0.949 . S
H203 C168 0.950 . S
H204 C172 0.951 . S
H205 C173 0.950 . S
H206 C177 0.949 . S
H207 C178 0.950 . S
H208 C182 0.950 . S
H209 C184 0.950 . S
H210 C187 0.950 . S
H211 C189 0.950 . S
C212 C213 1.443 . S
C212 N216 1.376 . S
C212 C250 1.389 . S
C213 C212 1.443 . S
C213 C214 1.340 . S
C213 H253 0.951 . S
C214 C213 1.340 . S
C214 C215 1.439 . S
C214 H254 0.950 . S
C215 C214 1.439 . S
C215 N216 1.374 . S
C215 C249 1.395 . S
N216 C212 1.376 . S
N216 C215 1.374 . S
N216 Co217 2.008 . S
Co217 N216 2.008 . S
Co217 N218 1.995 . S
Co217 N223 2.008 . S
Co217 N228 1.995 . S
Co217 N233 2.282 . S
Co217 N239 2.282 . S
N218 Co217 1.995 . S
N218 C219 1.376 . S
N218 C222 1.383 . S
C219 N218 1.376 . S
C219 C220 1.446 . S
C219 C249 1.391 . S
C220 C219 1.446 . S
C220 C221 1.339 . S
C220 H255 0.949 . S
C221 C220 1.339 . S
C221 C222 1.439 . S
C221 H256 0.950 . S
C222 N218 1.383 . S
C222 C221 1.439 . S
C222 C251 1.392 . S
N223 Co217 2.008 . S
N223 C224 1.376 . S
N223 C227 1.374 . S
C224 N223 1.376 . S
C224 C225 1.443 . S
C224 C251 1.389 . S
C225 C224 1.443 . S
C225 C226 1.340 . S
C225 H257 0.951 . S
C226 C225 1.340 . S
C226 C227 1.439 . S
C226 H258 0.950 . S
C227 N223 1.374 . S
C227 C226 1.439 . S
C227 C252 1.395 . S
N228 Co217 1.995 . S
N228 C229 1.376 . S
N228 C232 1.383 . S
C229 N228 1.376 . S
C229 C230 1.446 . S
C229 C252 1.391 . S
C230 C229 1.446 . S
C230 C231 1.339 . S
C230 H259 0.949 . S
C231 C230 1.339 . S
C231 C232 1.439 . S
C231 H260 0.950 . S
C232 N228 1.383 . S
C232 C231 1.439 . S
C232 C250 1.392 . S
N233 Co217 2.282 . S
N233 C236 1.332 . S
N233 C238 1.332 . S
C234 C235 1.386 . S
C234 C237 1.388 . S
C235 C234 1.386 . S
C235 C236 1.382 . S
C235 H261 0.950 . S
C236 N233 1.332 . S
C236 C235 1.382 . S
C236 H247 0.952 . S
C237 C234 1.388 . S
C237 C238 1.382 . S
C237 H262 0.950 . S
C238 N233 1.332 . S
C238 C237 1.382 . S
C238 H248 0.948 . S
N239 Co217 2.282 . S
N239 C243 1.332 . S
N239 C244 1.332 . S
C240 C241 1.388 . S
C240 C244 1.382 . S
C240 H263 0.950 . S
C241 C240 1.388 . S
C241 C242 1.386 . S
C242 C241 1.386 . S
C242 C243 1.382 . S
C242 H264 0.950 . S
C243 N239 1.332 . S
C243 C242 1.382 . S
C243 H245 0.952 . S
C244 N239 1.332 . S
C244 C240 1.382 . S
C244 H246 0.948 . S
H245 C243 0.952 . S
H246 C244 0.948 . S
H247 C236 0.952 . S
H248 C238 0.948 . S
C249 C215 1.395 . S
C249 C219 1.391 . S
C250 C212 1.389 . S
C250 C232 1.392 . S
C251 C222 1.392 . S
C251 C224 1.389 . S
C252 C227 1.395 . S
C252 C229 1.391 . S
H253 C213 0.951 . S
H254 C214 0.950 . S
H255 C220 0.949 . S
H256 C221 0.950 . S
H257 C225 0.951 . S
H258 C226 0.950 . S
H259 C230 0.949 . S
H260 C231 0.950 . S
H261 C235 0.950 . S
H262 C237 0.950 . S
H263 C240 0.950 . S
H264 C242 0.950 . S
C265 C266 1.443 . S
C265 N269 1.376 . S
C265 C303 1.389 . S
C266 C265 1.443 . S
C266 C267 1.340 . S
C266 H306 0.951 . S
C267 C266 1.340 . S
C267 C268 1.439 . S
C267 H307 0.950 . S
C268 C267 1.439 . S
C268 N269 1.374 . S
C268 C302 1.395 . S
N269 C265 1.376 . S
N269 C268 1.374 . S
N269 Co270 2.008 . S
Co270 N269 2.008 . S
Co270 N271 1.995 . S
Co270 N276 2.008 . S
Co270 N281 1.995 . S
Co270 N286 2.282 . S
Co270 N292 2.282 . S
N271 Co270 1.995 . S
N271 C272 1.376 . S
N271 C275 1.383 . S
C272 N271 1.376 . S
C272 C273 1.446 . S
C272 C302 1.391 . S
C273 C272 1.446 . S
C273 C274 1.339 . S
C273 H308 0.949 . S
C274 C273 1.339 . S
C274 C275 1.439 . S
C274 H309 0.950 . S
C275 N271 1.383 . S
C275 C274 1.439 . S
C275 C304 1.392 . S
N276 Co270 2.008 . S
N276 C277 1.376 . S
N276 C280 1.374 . S
C277 N276 1.376 . S
C277 C278 1.443 . S
C277 C304 1.389 . S
C278 C277 1.443 . S
C278 C279 1.340 . S
C278 H310 0.951 . S
C279 C278 1.340 . S
C279 C280 1.439 . S
C279 H311 0.950 . S
C280 N276 1.374 . S
C280 C279 1.439 . S
C280 C305 1.395 . S
N281 Co270 1.995 . S
N281 C282 1.376 . S
N281 C285 1.383 . S
C282 N281 1.376 . S
C282 C283 1.446 . S
C282 C305 1.391 . S
C283 C282 1.446 . S
C283 C284 1.339 . S
C283 H312 0.949 . S
C284 C283 1.339 . S
C284 C285 1.439 . S
C284 H313 0.950 . S
C285 N281 1.383 . S
C285 C284 1.439 . S
C285 C303 1.392 . S
N286 Co270 2.282 . S
N286 C289 1.332 . S
N286 C291 1.332 . S
C287 C288 1.386 . S
C287 C290 1.388 . S
C288 C287 1.386 . S
C288 C289 1.382 . S
C288 H314 0.950 . S
C289 N286 1.332 . S
C289 C288 1.382 . S
C289 H300 0.952 . S
C290 C287 1.388 . S
C290 C291 1.382 . S
C290 H315 0.950 . S
C291 N286 1.332 . S
C291 C290 1.382 . S
C291 H301 0.948 . S
N292 Co270 2.282 . S
N292 C296 1.332 . S
N292 C297 1.332 . S
C293 C294 1.388 . S
C293 C297 1.382 . S
C293 H316 0.950 . S
C294 C293 1.388 . S
C294 C295 1.386 . S
C295 C294 1.386 . S
C295 C296 1.382 . S
C295 H317 0.950 . S
C296 N292 1.332 . S
C296 C295 1.382 . S
C296 H298 0.952 . S
C297 N292 1.332 . S
C297 C293 1.382 . S
C297 H299 0.948 . S
H298 C296 0.952 . S
H299 C297 0.948 . S
H300 C289 0.952 . S
H301 C291 0.948 . S
C302 C268 1.395 . S
C302 C272 1.391 . S
C303 C265 1.389 . S
C303 C285 1.392 . S
C304 C275 1.392 . S
C304 C277 1.389 . S
C305 C280 1.395 . S
C305 C282 1.391 . S
H306 C266 0.951 . S
H307 C267 0.950 . S
H308 C273 0.949 . S
H309 C274 0.950 . S
H310 C278 0.951 . S
H311 C279 0.950 . S
H312 C283 0.949 . S
H313 C284 0.950 . S
H314 C288 0.950 . S
H315 C290 0.950 . S
H316 C293 0.950 . S
H317 C295 0.950 . S
C318 C319 1.443 . S
C318 N322 1.376 . S
C318 C356 1.389 . S
C319 C318 1.443 . S
C319 C320 1.340 . S
C319 H359 0.951 . S
C320 C319 1.340 . S
C320 C321 1.439 . S
C320 H360 0.950 . S
C321 C320 1.439 . S
C321 N322 1.374 . S
C321 C355 1.395 . S
N322 C318 1.376 . S
N322 C321 1.374 . S
N322 Co323 2.008 . S
Co323 N322 2.008 . S
Co323 N324 1.995 . S
Co323 N329 2.008 . S
Co323 N334 1.995 . S
Co323 N339 2.282 . S
Co323 N345 2.282 . S
N324 Co323 1.995 . S
N324 C325 1.376 . S
N324 C328 1.383 . S
C325 N324 1.376 . S
C325 C326 1.446 . S
C325 C355 1.391 . S
C326 C325 1.446 . S
C326 C327 1.339 . S
C326 H361 0.949 . S
C327 C326 1.339 . S
C327 C328 1.439 . S
C327 H362 0.950 . S
C328 N324 1.383 . S
C328 C327 1.439 . S
C328 C357 1.392 . S
N329 Co323 2.008 . S
N329 C330 1.376 . S
N329 C333 1.374 . S
C330 N329 1.376 . S
C330 C331 1.443 . S
C330 C357 1.389 . S
C331 C330 1.443 . S
C331 C332 1.340 . S
C331 H363 0.951 . S
C332 C331 1.340 . S
C332 C333 1.439 . S
C332 H364 0.950 . S
C333 N329 1.374 . S
C333 C332 1.439 . S
C333 C358 1.395 . S
N334 Co323 1.995 . S
N334 C335 1.376 . S
N334 C338 1.383 . S
C335 N334 1.376 . S
C335 C336 1.446 . S
C335 C358 1.391 . S
C336 C335 1.446 . S
C336 C337 1.339 . S
C336 H365 0.949 . S
C337 C336 1.339 . S
C337 C338 1.439 . S
C337 H366 0.950 . S
C338 N334 1.383 . S
C338 C337 1.439 . S
C338 C356 1.392 . S
N339 Co323 2.282 . S
N339 C342 1.332 . S
N339 C344 1.332 . S
C340 C341 1.386 . S
C340 C343 1.388 . S
C341 C340 1.386 . S
C341 C342 1.382 . S
C341 H367 0.950 . S
C342 N339 1.332 . S
C342 C341 1.382 . S
C342 H353 0.952 . S
C343 C340 1.388 . S
C343 C344 1.382 . S
C343 H368 0.950 . S
C344 N339 1.332 . S
C344 C343 1.382 . S
C344 H354 0.948 . S
N345 Co323 2.282 . S
N345 C349 1.332 . S
N345 C350 1.332 . S
C346 C347 1.388 . S
C346 C350 1.382 . S
C346 H369 0.950 . S
C347 C346 1.388 . S
C347 C348 1.386 . S
C348 C347 1.386 . S
C348 C349 1.382 . S
C348 H370 0.950 . S
C349 N345 1.332 . S
C349 C348 1.382 . S
C349 H351 0.952 . S
C350 N345 1.332 . S
C350 C346 1.382 . S
C350 H352 0.948 . S
H351 C349 0.952 . S
H352 C350 0.948 . S
H353 C342 0.952 . S
H354 C344 0.948 . S
C355 C321 1.395 . S
C355 C325 1.391 . S
C356 C318 1.389 . S
C356 C338 1.392 . S
C357 C328 1.392 . S
C357 C330 1.389 . S
C358 C333 1.395 . S
C358 C335 1.391 . S
H359 C319 0.951 . S
H360 C320 0.950 . S
H361 C326 0.949 . S
H362 C327 0.950 . S
H363 C331 0.951 . S
H364 C332 0.950 . S
H365 C336 0.949 . S
H366 C337 0.950 . S
H367 C341 0.950 . S
H368 C343 0.950 . S
H369 C346 0.950 . S
H370 C348 0.950 . S
C371 C372 1.443 . S
C371 N375 1.376 . S
C371 C409 1.389 . S
C372 C371 1.443 . S
C372 C373 1.340 . S
C372 H412 0.951 . S
C373 C372 1.340 . S
C373 C374 1.439 . S
C373 H413 0.950 . S
C374 C373 1.439 . S
C374 N375 1.374 . S
C374 C408 1.395 . S
N375 C371 1.376 . S
N375 C374 1.374 . S
N375 Co376 2.008 . S
Co376 N375 2.008 . S
Co376 N377 1.995 . S
Co376 N382 2.008 . S
Co376 N387 1.995 . S
Co376 N392 2.282 . S
Co376 N398 2.282 . S
N377 Co376 1.995 . S
N377 C378 1.376 . S
N377 C381 1.383 . S
C378 N377 1.376 . S
C378 C379 1.446 . S
C378 C408 1.391 . S
C379 C378 1.446 . S
C379 C380 1.339 . S
C379 H414 0.949 . S
C380 C379 1.339 . S
C380 C381 1.439 . S
C380 H415 0.950 . S
C381 N377 1.383 . S
C381 C380 1.439 . S
C381 C410 1.392 . S
N382 Co376 2.008 . S
N382 C383 1.376 . S
N382 C386 1.374 . S
C383 N382 1.376 . S
C383 C384 1.443 . S
C383 C410 1.389 . S
C384 C383 1.443 . S
C384 C385 1.340 . S
C384 H416 0.951 . S
C385 C384 1.340 . S
C385 C386 1.439 . S
C385 H417 0.950 . S
C386 N382 1.374 . S
C386 C385 1.439 . S
C386 C411 1.395 . S
N387 Co376 1.995 . S
N387 C388 1.376 . S
N387 C391 1.383 . S
C388 N387 1.376 . S
C388 C389 1.446 . S
C388 C411 1.391 . S
C389 C388 1.446 . S
C389 C390 1.339 . S
C389 H418 0.949 . S
C390 C389 1.339 . S
C390 C391 1.439 . S
C390 H419 0.950 . S
C391 N387 1.383 . S
C391 C390 1.439 . S
C391 C409 1.392 . S
N392 Co376 2.282 . S
N392 C395 1.332 . S
N392 C397 1.332 . S
C393 C394 1.386 . S
C393 C396 1.388 . S
C394 C393 1.386 . S
C394 C395 1.382 . S
C394 H420 0.950 . S
C395 N392 1.332 . S
C395 C394 1.382 . S
C395 H406 0.952 . S
C396 C393 1.388 . S
C396 C397 1.382 . S
C396 H421 0.950 . S
C397 N392 1.332 . S
C397 C396 1.382 . S
C397 H407 0.948 . S
N398 Co376 2.282 . S
N398 C402 1.332 . S
N398 C403 1.332 . S
C399 C400 1.388 . S
C399 C403 1.382 . S
C399 H422 0.950 . S
C400 C399 1.388 . S
C400 C401 1.386 . S
C401 C400 1.386 . S
C401 C402 1.382 . S
C401 H423 0.950 . S
C402 N398 1.332 . S
C402 C401 1.382 . S
C402 H404 0.952 . S
C403 N398 1.332 . S
C403 C399 1.382 . S
C403 H405 0.948 . S
H404 C402 0.952 . S
H405 C403 0.948 . S
H406 C395 0.952 . S
H407 C397 0.948 . S
C408 C374 1.395 . S
C408 C378 1.391 . S
C409 C371 1.389 . S
C409 C391 1.392 . S
C410 C381 1.392 . S
C410 C383 1.389 . S
C411 C386 1.395 . S
C411 C388 1.391 . S
H412 C372 0.951 . S
H413 C373 0.950 . S
H414 C379 0.949 . S
H415 C380 0.950 . S
H416 C384 0.951 . S
H417 C385 0.950 . S
H418 C389 0.949 . S
H419 C390 0.950 . S
H420 C394 0.950 . S
H421 C396 0.950 . S
H422 C399 0.950 . S
H423 C401 0.950 . S
C424 C425 1.443 . S
C424 N428 1.376 . S
C424 C462 1.389 . S
C425 C424 1.443 . S
C425 C426 1.340 . S
C425 H465 0.951 . S
C426 C425 1.340 . S
C426 C427 1.439 . S
C426 H466 0.950 . S
C427 C426 1.439 . S
C427 N428 1.374 . S
C427 C461 1.395 . S
N428 C424 1.376 . S
N428 C427 1.374 . S
N428 Co429 2.008 . S
Co429 N428 2.008 . S
Co429 N430 1.995 . S
Co429 N435 2.008 . S
Co429 N440 1.995 . S
Co429 N445 2.282 . S
Co429 N451 2.282 . S
N430 Co429 1.995 . S
N430 C431 1.376 . S
N430 C434 1.383 . S
C431 N430 1.376 . S
C431 C432 1.446 . S
C431 C461 1.391 . S
C432 C431 1.446 . S
C432 C433 1.339 . S
C432 H467 0.949 . S
C433 C432 1.339 . S
C433 C434 1.439 . S
C433 H468 0.950 . S
C434 N430 1.383 . S
C434 C433 1.439 . S
C434 C463 1.392 . S
N435 Co429 2.008 . S
N435 C436 1.376 . S
N435 C439 1.374 . S
C436 N435 1.376 . S
C436 C437 1.443 . S
C436 C463 1.389 . S
C437 C436 1.443 . S
C437 C438 1.340 . S
C437 H469 0.951 . S
C438 C437 1.340 . S
C438 C439 1.439 . S
C438 H470 0.950 . S
C439 N435 1.374 . S
C439 C438 1.439 . S
C439 C464 1.395 . S
N440 Co429 1.995 . S
N440 C441 1.376 . S
N440 C444 1.383 . S
C441 N440 1.376 . S
C441 C442 1.446 . S
C441 C464 1.391 . S
C442 C441 1.446 . S
C442 C443 1.339 . S
C442 H471 0.949 . S
C443 C442 1.339 . S
C443 C444 1.439 . S
C443 H472 0.950 . S
C444 N440 1.383 . S
C444 C443 1.439 . S
C444 C462 1.392 . S
N445 Co429 2.282 . S
N445 C448 1.332 . S
N445 C450 1.332 . S
C446 C447 1.386 . S
C446 C449 1.388 . S
C447 C446 1.386 . S
C447 C448 1.382 . S
C447 H473 0.950 . S
C448 N445 1.332 . S
C448 C447 1.382 . S
C448 H459 0.952 . S
C449 C446 1.388 . S
C449 C450 1.382 . S
C449 H474 0.950 . S
C450 N445 1.332 . S
C450 C449 1.382 . S
C450 H460 0.948 . S
N451 Co429 2.282 . S
N451 C455 1.332 . S
N451 C456 1.332 . S
C452 C453 1.388 . S
C452 C456 1.382 . S
C452 H475 0.950 . S
C453 C452 1.388 . S
C453 C454 1.386 . S
C454 C453 1.386 . S
C454 C455 1.382 . S
C454 H476 0.950 . S
C455 N451 1.332 . S
C455 C454 1.382 . S
C455 H457 0.952 . S
C456 N451 1.332 . S
C456 C452 1.382 . S
C456 H458 0.948 . S
H457 C455 0.952 . S
H458 C456 0.948 . S
H459 C448 0.952 . S
H460 C450 0.948 . S
C461 C427 1.395 . S
C461 C431 1.391 . S
C462 C424 1.389 . S
C462 C444 1.392 . S
C463 C434 1.392 . S
C463 C436 1.389 . S
C464 C439 1.395 . S
C464 C441 1.391 . S
H465 C425 0.951 . S
H466 C426 0.950 . S
H467 C432 0.949 . S
H468 C433 0.950 . S
H469 C437 0.951 . S
H470 C438 0.950 . S
H471 C442 0.949 . S
H472 C443 0.950 . S
H473 C447 0.950 . S
H474 C449 0.950 . S
H475 C452 0.950 . S
H476 C454 0.950 . S
C477 C478 1.443 . S
C477 N481 1.376 . S
C477 C515 1.389 . S
C478 C477 1.443 . S
C478 C479 1.340 . S
C478 H518 0.951 . S
C479 C478 1.340 . S
C479 C480 1.439 . S
C479 H519 0.950 . S
C480 C479 1.439 . S
C480 N481 1.374 . S
C480 C514 1.395 . S
N481 C477 1.376 . S
N481 C480 1.374 . S
N481 Co482 2.008 . S
Co482 N481 2.008 . S
Co482 N483 1.995 . S
Co482 N488 2.008 . S
Co482 N493 1.995 . S
Co482 N498 2.282 . S
Co482 N504 2.282 . S
N483 Co482 1.995 . S
N483 C484 1.376 . S
N483 C487 1.383 . S
C484 N483 1.376 . S
C484 C485 1.446 . S
C484 C514 1.391 . S
C485 C484 1.446 . S
C485 C486 1.339 . S
C485 H520 0.949 . S
C486 C485 1.339 . S
C486 C487 1.439 . S
C486 H521 0.950 . S
C487 N483 1.383 . S
C487 C486 1.439 . S
C487 C516 1.392 . S
N488 Co482 2.008 . S
N488 C489 1.376 . S
N488 C492 1.374 . S
C489 N488 1.376 . S
C489 C490 1.443 . S
C489 C516 1.389 . S
C490 C489 1.443 . S
C490 C491 1.340 . S
C490 H522 0.951 . S
C491 C490 1.340 . S
C491 C492 1.439 . S
C491 H523 0.950 . S
C492 N488 1.374 . S
C492 C491 1.439 . S
C492 C517 1.395 . S
N493 Co482 1.995 . S
N493 C494 1.376 . S
N493 C497 1.383 . S
C494 N493 1.376 . S
C494 C495 1.446 . S
C494 C517 1.391 . S
C495 C494 1.446 . S
C495 C496 1.339 . S
C495 H524 0.949 . S
C496 C495 1.339 . S
C496 C497 1.439 . S
C496 H525 0.950 . S
C497 N493 1.383 . S
C497 C496 1.439 . S
C497 C515 1.392 . S
N498 Co482 2.282 . S
N498 C501 1.332 . S
N498 C503 1.332 . S
C499 C500 1.386 . S
C499 C502 1.388 . S
C500 C499 1.386 . S
C500 C501 1.382 . S
C500 H526 0.950 . S
C501 N498 1.332 . S
C501 C500 1.382 . S
C501 H512 0.952 . S
C502 C499 1.388 . S
C502 C503 1.382 . S
C502 H527 0.950 . S
C503 N498 1.332 . S
C503 C502 1.382 . S
C503 H513 0.948 . S
N504 Co482 2.282 . S
N504 C508 1.332 . S
N504 C509 1.332 . S
C505 C506 1.388 . S
C505 C509 1.382 . S
C505 H528 0.950 . S
C506 C505 1.388 . S
C506 C507 1.386 . S
C507 C506 1.386 . S
C507 C508 1.382 . S
C507 H529 0.950 . S
C508 N504 1.332 . S
C508 C507 1.382 . S
C508 H510 0.952 . S
C509 N504 1.332 . S
C509 C505 1.382 . S
C509 H511 0.948 . S
H510 C508 0.952 . S
H511 C509 0.948 . S
H512 C501 0.952 . S
H513 C503 0.948 . S
C514 C480 1.395 . S
C514 C484 1.391 . S
C515 C477 1.389 . S
C515 C497 1.392 . S
C516 C487 1.392 . S
C516 C489 1.389 . S
C517 C492 1.395 . S
C517 C494 1.391 . S
H518 C478 0.951 . S
H519 C479 0.950 . S
H520 C485 0.949 . S
H521 C486 0.950 . S
H522 C490 0.951 . S
H523 C491 0.950 . S
H524 C495 0.949 . S
H525 C496 0.950 . S
H526 C500 0.950 . S
H527 C502 0.950 . S
H528 C505 0.950 . S
H529 C507 0.950 . S
C530 C531 1.443 . S
C530 N534 1.376 . S
C530 C568 1.389 . S
C531 C530 1.443 . S
C531 C532 1.340 . S
C531 H571 0.951 . S
C532 C531 1.340 . S
C532 C533 1.439 . S
C532 H572 0.950 . S
C533 C532 1.439 . S
C533 N534 1.374 . S
C533 C567 1.395 . S
N534 C530 1.376 . S
N534 C533 1.374 . S
N534 Co535 2.008 . S
Co535 N534 2.008 . S
Co535 N536 1.995 . S
Co535 N541 2.008 . S
Co535 N546 1.995 . S
Co535 N551 2.282 . S
Co535 N557 2.282 . S
N536 Co535 1.995 . S
N536 C537 1.376 . S
N536 C540 1.383 . S
C537 N536 1.376 . S
C537 C538 1.446 . S
C537 C567 1.391 . S
C538 C537 1.446 . S
C538 C539 1.339 . S
C538 H573 0.949 . S
C539 C538 1.339 . S
C539 C540 1.439 . S
C539 H574 0.950 . S
C540 N536 1.383 . S
C540 C539 1.439 . S
C540 C569 1.392 . S
N541 Co535 2.008 . S
N541 C542 1.376 . S
N541 C545 1.374 . S
C542 N541 1.376 . S
C542 C543 1.443 . S
C542 C569 1.389 . S
C543 C542 1.443 . S
C543 C544 1.340 . S
C543 H575 0.951 . S
C544 C543 1.340 . S
C544 C545 1.439 . S
C544 H576 0.950 . S
C545 N541 1.374 . S
C545 C544 1.439 . S
C545 C570 1.395 . S
N546 Co535 1.995 . S
N546 C547 1.376 . S
N546 C550 1.383 . S
C547 N546 1.376 . S
C547 C548 1.446 . S
C547 C570 1.391 . S
C548 C547 1.446 . S
C548 C549 1.339 . S
C548 H577 0.949 . S
C549 C548 1.339 . S
C549 C550 1.439 . S
C549 H578 0.950 . S
C550 N546 1.383 . S
C550 C549 1.439 . S
C550 C568 1.392 . S
N551 Co535 2.282 . S
N551 C554 1.332 . S
N551 C556 1.332 . S
C552 C553 1.386 . S
C552 C555 1.388 . S
C553 C552 1.386 . S
C553 C554 1.382 . S
C553 H579 0.950 . S
C554 N551 1.332 . S
C554 C553 1.382 . S
C554 H565 0.952 . S
C555 C552 1.388 . S
C555 C556 1.382 . S
C555 H580 0.950 . S
C556 N551 1.332 . S
C556 C555 1.382 . S
C556 H566 0.948 . S
N557 Co535 2.282 . S
N557 C561 1.332 . S
N557 C562 1.332 . S
C558 C559 1.388 . S
C558 C562 1.382 . S
C558 H581 0.950 . S
C559 C558 1.388 . S
C559 C560 1.386 . S
C560 C559 1.386 . S
C560 C561 1.382 . S
C560 H582 0.950 . S
C561 N557 1.332 . S
C561 C560 1.382 . S
C561 H563 0.952 . S
C562 N557 1.332 . S
C562 C558 1.382 . S
C562 H564 0.948 . S
H563 C561 0.952 . S
H564 C562 0.948 . S
H565 C554 0.952 . S
H566 C556 0.948 . S
C567 C533 1.395 . S
C567 C537 1.391 . S
C568 C530 1.389 . S
C568 C550 1.392 . S
C569 C540 1.392 . S
C569 C542 1.389 . S
C570 C545 1.395 . S
C570 C547 1.391 . S
H571 C531 0.951 . S
H572 C532 0.950 . S
H573 C538 0.949 . S
H574 C539 0.950 . S
H575 C543 0.951 . S
H576 C544 0.950 . S
H577 C548 0.949 . S
H578 C549 0.950 . S
H579 C553 0.950 . S
H580 C555 0.950 . S
H581 C558 0.950 . S
H582 C560 0.950 . S
C583 C584 1.443 . S
C583 N587 1.376 . S
C583 C621 1.389 . S
C584 C583 1.443 . S
C584 C585 1.340 . S
C584 H624 0.951 . S
C585 C584 1.340 . S
C585 C586 1.439 . S
C585 H625 0.950 . S
C586 C585 1.439 . S
C586 N587 1.374 . S
C586 C620 1.395 . S
N587 C583 1.376 . S
N587 C586 1.374 . S
N587 Co588 2.008 . S
Co588 N587 2.008 . S
Co588 N589 1.995 . S
Co588 N594 2.008 . S
Co588 N599 1.995 . S
Co588 N604 2.282 . S
Co588 N610 2.282 . S
N589 Co588 1.995 . S
N589 C590 1.376 . S
N589 C593 1.383 . S
C590 N589 1.376 . S
C590 C591 1.446 . S
C590 C620 1.391 . S
C591 C590 1.446 . S
C591 C592 1.339 . S
C591 H626 0.949 . S
C592 C591 1.339 . S
C592 C593 1.439 . S
C592 H627 0.950 . S
C593 N589 1.383 . S
C593 C592 1.439 . S
C593 C622 1.392 . S
N594 Co588 2.008 . S
N594 C595 1.376 . S
N594 C598 1.374 . S
C595 N594 1.376 . S
C595 C596 1.443 . S
C595 C622 1.389 . S
C596 C595 1.443 . S
C596 C597 1.340 . S
C596 H628 0.951 . S
C597 C596 1.340 . S
C597 C598 1.439 . S
C597 H629 0.950 . S
C598 N594 1.374 . S
C598 C597 1.439 . S
C598 C623 1.395 . S
N599 Co588 1.995 . S
N599 C600 1.376 . S
N599 C603 1.383 . S
C600 N599 1.376 . S
C600 C601 1.446 . S
C600 C623 1.391 . S
C601 C600 1.446 . S
C601 C602 1.339 . S
C601 H630 0.949 . S
C602 C601 1.339 . S
C602 C603 1.439 . S
C602 H631 0.950 . S
C603 N599 1.383 . S
C603 C602 1.439 . S
C603 C621 1.392 . S
N604 Co588 2.282 . S
N604 C607 1.332 . S
N604 C609 1.332 . S
C605 C606 1.386 . S
C605 C608 1.388 . S
C606 C605 1.386 . S
C606 C607 1.382 . S
C606 H632 0.950 . S
C607 N604 1.332 . S
C607 C606 1.382 . S
C607 H618 0.952 . S
C608 C605 1.388 . S
C608 C609 1.382 . S
C608 H633 0.950 . S
C609 N604 1.332 . S
C609 C608 1.382 . S
C609 H619 0.948 . S
N610 Co588 2.282 . S
N610 C614 1.332 . S
N610 C615 1.332 . S
C611 C612 1.388 . S
C611 C615 1.382 . S
C611 H634 0.950 . S
C612 C611 1.388 . S
C612 C613 1.386 . S
C613 C612 1.386 . S
C613 C614 1.382 . S
C613 H635 0.950 . S
C614 N610 1.332 . S
C614 C613 1.382 . S
C614 H616 0.952 . S
C615 N610 1.332 . S
C615 C611 1.382 . S
C615 H617 0.948 . S
H616 C614 0.952 . S
H617 C615 0.948 . S
H618 C607 0.952 . S
H619 C609 0.948 . S
C620 C586 1.395 . S
C620 C590 1.391 . S
C621 C583 1.389 . S
C621 C603 1.392 . S
C622 C593 1.392 . S
C622 C595 1.389 . S
C623 C598 1.395 . S
C623 C600 1.391 . S
H624 C584 0.951 . S
H625 C585 0.950 . S
H626 C591 0.949 . S
H627 C592 0.950 . S
H628 C596 0.951 . S
H629 C597 0.950 . S
H630 C601 0.949 . S
H631 C602 0.950 . S
H632 C606 0.950 . S
H633 C608 0.950 . S
H634 C611 0.950 . S
H635 C613 0.950 . S
C636 C637 1.443 . S
C636 N640 1.376 . S
C636 C674 1.389 . S
C637 C636 1.443 . S
C637 C638 1.340 . S
C637 H677 0.951 . S
C638 C637 1.340 . S
C638 C639 1.439 . S
C638 H678 0.950 . S
C639 C638 1.439 . S
C639 N640 1.374 . S
C639 C673 1.395 . S
N640 C636 1.376 . S
N640 C639 1.374 . S
N640 Co641 2.008 . S
Co641 N640 2.008 . S
Co641 N642 1.995 . S
Co641 N647 2.008 . S
Co641 N652 1.995 . S
Co641 N657 2.282 . S
Co641 N663 2.282 . S
N642 Co641 1.995 . S
N642 C643 1.376 . S
N642 C646 1.383 . S
C643 N642 1.376 . S
C643 C644 1.446 . S
C643 C673 1.391 . S
C644 C643 1.446 . S
C644 C645 1.339 . S
C644 H679 0.949 . S
C645 C644 1.339 . S
C645 C646 1.439 . S
C645 H680 0.950 . S
C646 N642 1.383 . S
C646 C645 1.439 . S
C646 C675 1.392 . S
N647 Co641 2.008 . S
N647 C648 1.376 . S
N647 C651 1.374 . S
C648 N647 1.376 . S
C648 C649 1.443 . S
C648 C675 1.389 . S
C649 C648 1.443 . S
C649 C650 1.340 . S
C649 H681 0.951 . S
C650 C649 1.340 . S
C650 C651 1.439 . S
C650 H682 0.950 . S
C651 N647 1.374 . S
C651 C650 1.439 . S
C651 C676 1.395 . S
N652 Co641 1.995 . S
N652 C653 1.376 . S
N652 C656 1.383 . S
C653 N652 1.376 . S
C653 C654 1.446 . S
C653 C676 1.391 . S
C654 C653 1.446 . S
C654 C655 1.339 . S
C654 H683 0.949 . S
C655 C654 1.339 . S
C655 C656 1.439 . S
C655 H684 0.950 . S
C656 N652 1.383 . S
C656 C655 1.439 . S
C656 C674 1.392 . S
N657 Co641 2.282 . S
N657 C660 1.332 . S
N657 C662 1.332 . S
C658 C659 1.386 . S
C658 C661 1.388 . S
C659 C658 1.386 . S
C659 C660 1.382 . S
C659 H685 0.950 . S
C660 N657 1.332 . S
C660 C659 1.382 . S
C660 H671 0.952 . S
C661 C658 1.388 . S
C661 C662 1.382 . S
C661 H686 0.950 . S
C662 N657 1.332 . S
C662 C661 1.382 . S
C662 H672 0.948 . S
N663 Co641 2.282 . S
N663 C667 1.332 . S
N663 C668 1.332 . S
C664 C665 1.388 . S
C664 C668 1.382 . S
C664 H687 0.950 . S
C665 C664 1.388 . S
C665 C666 1.386 . S
C666 C665 1.386 . S
C666 C667 1.382 . S
C666 H688 0.950 . S
C667 N663 1.332 . S
C667 C666 1.382 . S
C667 H669 0.952 . S
C668 N663 1.332 . S
C668 C664 1.382 . S
C668 H670 0.948 . S
H669 C667 0.952 . S
H670 C668 0.948 . S
H671 C660 0.952 . S
H672 C662 0.948 . S
C673 C639 1.395 . S
C673 C643 1.391 . S
C674 C636 1.389 . S
C674 C656 1.392 . S
C675 C646 1.392 . S
C675 C648 1.389 . S
C676 C651 1.395 . S
C676 C653 1.391 . S
H677 C637 0.951 . S
H678 C638 0.950 . S
H679 C644 0.949 . S
H680 C645 0.950 . S
H681 C649 0.951 . S
H682 C650 0.950 . S
H683 C654 0.949 . S
H684 C655 0.950 . S
H685 C659 0.950 . S
H686 C661 0.950 . S
H687 C664 0.950 . S
H688 C666 0.950 . S
C689 C690 1.443 . S
C689 N693 1.376 . S
C689 C727 1.389 . S
C690 C689 1.443 . S
C690 C691 1.340 . S
C690 H730 0.951 . S
C691 C690 1.340 . S
C691 C692 1.439 . S
C691 H731 0.950 . S
C692 C691 1.439 . S
C692 N693 1.374 . S
C692 C726 1.395 . S
N693 C689 1.376 . S
N693 C692 1.374 . S
N693 Co694 2.008 . S
Co694 N693 2.008 . S
Co694 N695 1.995 . S
Co694 N700 2.008 . S
Co694 N705 1.995 . S
Co694 N710 2.282 . S
Co694 N716 2.282 . S
N695 Co694 1.995 . S
N695 C696 1.376 . S
N695 C699 1.383 . S
C696 N695 1.376 . S
C696 C697 1.446 . S
C696 C726 1.391 . S
C697 C696 1.446 . S
C697 C698 1.339 . S
C697 H732 0.949 . S
C698 C697 1.339 . S
C698 C699 1.439 . S
C698 H733 0.950 . S
C699 N695 1.383 . S
C699 C698 1.439 . S
C699 C728 1.392 . S
N700 Co694 2.008 . S
N700 C701 1.376 . S
N700 C704 1.374 . S
C701 N700 1.376 . S
C701 C702 1.443 . S
C701 C728 1.389 . S
C702 C701 1.443 . S
C702 C703 1.340 . S
C702 H734 0.951 . S
C703 C702 1.340 . S
C703 C704 1.439 . S
C703 H735 0.950 . S
C704 N700 1.374 . S
C704 C703 1.439 . S
C704 C729 1.395 . S
N705 Co694 1.995 . S
N705 C706 1.376 . S
N705 C709 1.383 . S
C706 N705 1.376 . S
C706 C707 1.446 . S
C706 C729 1.391 . S
C707 C706 1.446 . S
C707 C708 1.339 . S
C707 H736 0.949 . S
C708 C707 1.339 . S
C708 C709 1.439 . S
C708 H737 0.950 . S
C709 N705 1.383 . S
C709 C708 1.439 . S
C709 C727 1.392 . S
N710 Co694 2.282 . S
N710 C713 1.332 . S
N710 C715 1.332 . S
C711 C712 1.386 . S
C711 C714 1.388 . S
C712 C711 1.386 . S
C712 C713 1.382 . S
C712 H738 0.950 . S
C713 N710 1.332 . S
C713 C712 1.382 . S
C713 H724 0.952 . S
C714 C711 1.388 . S
C714 C715 1.382 . S
C714 H739 0.950 . S
C715 N710 1.332 . S
C715 C714 1.382 . S
C715 H725 0.948 . S
N716 Co694 2.282 . S
N716 C720 1.332 . S
N716 C721 1.332 . S
C717 C718 1.388 . S
C717 C721 1.382 . S
C717 H740 0.950 . S
C718 C717 1.388 . S
C718 C719 1.386 . S
C719 C718 1.386 . S
C719 C720 1.382 . S
C719 H741 0.950 . S
C720 N716 1.332 . S
C720 C719 1.382 . S
C720 H722 0.952 . S
C721 N716 1.332 . S
C721 C717 1.382 . S
C721 H723 0.948 . S
H722 C720 0.952 . S
H723 C721 0.948 . S
H724 C713 0.952 . S
H725 C715 0.948 . S
C726 C692 1.395 . S
C726 C696 1.391 . S
C727 C689 1.389 . S
C727 C709 1.392 . S
C728 C699 1.392 . S
C728 C701 1.389 . S
C729 C704 1.395 . S
C729 C706 1.391 . S
H730 C690 0.951 . S
H731 C691 0.950 . S
H732 C697 0.949 . S
H733 C698 0.950 . S
H734 C702 0.951 . S
H735 C703 0.950 . S
H736 C707 0.949 . S
H737 C708 0.950 . S
H738 C712 0.950 . S
H739 C714 0.950 . S
H740 C717 0.950 . S
H741 C719 0.950 . S
C742 C743 1.443 . S
C742 N746 1.376 . S
C742 C780 1.389 . S
C743 C742 1.443 . S
C743 C744 1.340 . S
C743 H783 0.951 . S
C744 C743 1.340 . S
C744 C745 1.439 . S
C744 H784 0.950 . S
C745 C744 1.439 . S
C745 N746 1.374 . S
C745 C779 1.395 . S
N746 C742 1.376 . S
N746 C745 1.374 . S
N746 Co747 2.008 . S
Co747 N746 2.008 . S
Co747 N748 1.995 . S
Co747 N753 2.008 . S
Co747 N758 1.995 . S
Co747 N763 2.282 . S
Co747 N769 2.282 . S
N748 Co747 1.995 . S
N748 C749 1.376 . S
N748 C752 1.383 . S
C749 N748 1.376 . S
C749 C750 1.446 . S
C749 C779 1.391 . S
C750 C749 1.446 . S
C750 C751 1.339 . S
C750 H785 0.949 . S
C751 C750 1.339 . S
C751 C752 1.439 . S
C751 H786 0.950 . S
C752 N748 1.383 . S
C752 C751 1.439 . S
C752 C781 1.392 . S
N753 Co747 2.008 . S
N753 C754 1.376 . S
N753 C757 1.374 . S
C754 N753 1.376 . S
C754 C755 1.443 . S
C754 C781 1.389 . S
C755 C754 1.443 . S
C755 C756 1.340 . S
C755 H787 0.951 . S
C756 C755 1.340 . S
C756 C757 1.439 . S
C756 H788 0.950 . S
C757 N753 1.374 . S
C757 C756 1.439 . S
C757 C782 1.395 . S
N758 Co747 1.995 . S
N758 C759 1.376 . S
N758 C762 1.383 . S
C759 N758 1.376 . S
C759 C760 1.446 . S
C759 C782 1.391 . S
C760 C759 1.446 . S
C760 C761 1.339 . S
C760 H789 0.949 . S
C761 C760 1.339 . S
C761 C762 1.439 . S
C761 H790 0.950 . S
C762 N758 1.383 . S
C762 C761 1.439 . S
C762 C780 1.392 . S
N763 Co747 2.282 . S
N763 C766 1.332 . S
N763 C768 1.332 . S
C764 C765 1.386 . S
C764 C767 1.388 . S
C765 C764 1.386 . S
C765 C766 1.382 . S
C765 H791 0.950 . S
C766 N763 1.332 . S
C766 C765 1.382 . S
C766 H777 0.952 . S
C767 C764 1.388 . S
C767 C768 1.382 . S
C767 H792 0.950 . S
C768 N763 1.332 . S
C768 C767 1.382 . S
C768 H778 0.948 . S
N769 Co747 2.282 . S
N769 C773 1.332 . S
N769 C774 1.332 . S
C770 C771 1.388 . S
C770 C774 1.382 . S
C770 H793 0.950 . S
C771 C770 1.388 . S
C771 C772 1.386 . S
C772 C771 1.386 . S
C772 C773 1.382 . S
C772 H794 0.950 . S
C773 N769 1.332 . S
C773 C772 1.382 . S
C773 H775 0.952 . S
C774 N769 1.332 . S
C774 C770 1.382 . S
C774 H776 0.948 . S
H775 C773 0.952 . S
H776 C774 0.948 . S
H777 C766 0.952 . S
H778 C768 0.948 . S
C779 C745 1.395 . S
C779 C749 1.391 . S
C780 C742 1.389 . S
C780 C762 1.392 . S
C781 C752 1.392 . S
C781 C754 1.389 . S
C782 C757 1.395 . S
C782 C759 1.391 . S
H783 C743 0.951 . S
H784 C744 0.950 . S
H785 C750 0.949 . S
H786 C751 0.950 . S
H787 C755 0.951 . S
H788 C756 0.950 . S
H789 C760 0.949 . S
H790 C761 0.950 . S
H791 C765 0.950 . S
H792 C767 0.950 . S
H793 C770 0.950 . S
H794 C772 0.950 . S
C795 C796 1.443 . S
C795 N799 1.376 . S
C795 C833 1.389 . S
C796 C795 1.443 . S
C796 C797 1.340 . S
C796 H836 0.951 . S
C797 C796 1.340 . S
C797 C798 1.439 . S
C797 H837 0.950 . S
C798 C797 1.439 . S
C798 N799 1.374 . S
C798 C832 1.395 . S
N799 C795 1.376 . S
N799 C798 1.374 . S
N799 Co800 2.008 . S
Co800 N799 2.008 . S
Co800 N801 1.995 . S
Co800 N806 2.008 . S
Co800 N811 1.995 . S
Co800 N816 2.282 . S
Co800 N822 2.282 . S
N801 Co800 1.995 . S
N801 C802 1.376 . S
N801 C805 1.383 . S
C802 N801 1.376 . S
C802 C803 1.446 . S
C802 C832 1.391 . S
C803 C802 1.446 . S
C803 C804 1.339 . S
C803 H838 0.949 . S
C804 C803 1.339 . S
C804 C805 1.439 . S
C804 H839 0.950 . S
C805 N801 1.383 . S
C805 C804 1.439 . S
C805 C834 1.392 . S
N806 Co800 2.008 . S
N806 C807 1.376 . S
N806 C810 1.374 . S
C807 N806 1.376 . S
C807 C808 1.443 . S
C807 C834 1.389 . S
C808 C807 1.443 . S
C808 C809 1.340 . S
C808 H840 0.951 . S
C809 C808 1.340 . S
C809 C810 1.439 . S
C809 H841 0.950 . S
C810 N806 1.374 . S
C810 C809 1.439 . S
C810 C835 1.395 . S
N811 Co800 1.995 . S
N811 C812 1.376 . S
N811 C815 1.383 . S
C812 N811 1.376 . S
C812 C813 1.446 . S
C812 C835 1.391 . S
C813 C812 1.446 . S
C813 C814 1.339 . S
C813 H842 0.949 . S
C814 C813 1.339 . S
C814 C815 1.439 . S
C814 H843 0.950 . S
C815 N811 1.383 . S
C815 C814 1.439 . S
C815 C833 1.392 . S
N816 Co800 2.282 . S
N816 C819 1.332 . S
N816 C821 1.332 . S
C817 C818 1.386 . S
C817 C820 1.388 . S
C818 C817 1.386 . S
C818 C819 1.382 . S
C818 H844 0.950 . S
C819 N816 1.332 . S
C819 C818 1.382 . S
C819 H830 0.952 . S
C820 C817 1.388 . S
C820 C821 1.382 . S
C820 H845 0.950 . S
C821 N816 1.332 . S
C821 C820 1.382 . S
C821 H831 0.948 . S
N822 Co800 2.282 . S
N822 C826 1.332 . S
N822 C827 1.332 . S
C823 C824 1.388 . S
C823 C827 1.382 . S
C823 H846 0.950 . S
C824 C823 1.388 . S
C824 C825 1.386 . S
C825 C824 1.386 . S
C825 C826 1.382 . S
C825 H847 0.950 . S
C826 N822 1.332 . S
C826 C825 1.382 . S
C826 H828 0.952 . S
C827 N822 1.332 . S
C827 C823 1.382 . S
C827 H829 0.948 . S
H828 C826 0.952 . S
H829 C827 0.948 . S
H830 C819 0.952 . S
H831 C821 0.948 . S
C832 C798 1.395 . S
C832 C802 1.391 . S
C833 C795 1.389 . S
C833 C815 1.392 . S
C834 C805 1.392 . S
C834 C807 1.389 . S
C835 C810 1.395 . S
C835 C812 1.391 . S
H836 C796 0.951 . S
H837 C797 0.950 . S
H838 C803 0.949 . S
H839 C804 0.950 . S
H840 C808 0.951 . S
H841 C809 0.950 . S
H842 C813 0.949 . S
H843 C814 0.950 . S
H844 C818 0.950 . S
H845 C820 0.950 . S
H846 C823 0.950 . S
H847 C825 0.950 . S
C848 C849 1.443 . S
C848 N852 1.376 . S
C848 C886 1.389 . S
C849 C848 1.443 . S
C849 C850 1.340 . S
C849 H889 0.951 . S
C850 C849 1.340 . S
C850 C851 1.439 . S
C850 H890 0.950 . S
C851 C850 1.439 . S
C851 N852 1.374 . S
C851 C885 1.395 . S
N852 C848 1.376 . S
N852 C851 1.374 . S
N852 Co853 2.008 . S
Co853 N852 2.008 . S
Co853 N854 1.995 . S
Co853 N859 2.008 . S
Co853 N864 1.995 . S
Co853 N869 2.282 . S
Co853 N875 2.282 . S
N854 Co853 1.995 . S
N854 C855 1.376 . S
N854 C858 1.383 . S
C855 N854 1.376 . S
C855 C856 1.446 . S
C855 C885 1.391 . S
C856 C855 1.446 . S
C856 C857 1.339 . S
C856 H891 0.949 . S
C857 C856 1.339 . S
C857 C858 1.439 . S
C857 H892 0.950 . S
C858 N854 1.383 . S
C858 C857 1.439 . S
C858 C887 1.392 . S
N859 Co853 2.008 . S
N859 C860 1.376 . S
N859 C863 1.374 . S
C860 N859 1.376 . S
C860 C861 1.443 . S
C860 C887 1.389 . S
C861 C860 1.443 . S
C861 C862 1.340 . S
C861 H893 0.951 . S
C862 C861 1.340 . S
C862 C863 1.439 . S
C862 H894 0.950 . S
C863 N859 1.374 . S
C863 C862 1.439 . S
C863 C888 1.395 . S
N864 Co853 1.995 . S
N864 C865 1.376 . S
N864 C868 1.383 . S
C865 N864 1.376 . S
C865 C866 1.446 . S
C865 C888 1.391 . S
C866 C865 1.446 . S
C866 C867 1.339 . S
C866 H895 0.949 . S
C867 C866 1.339 . S
C867 C868 1.439 . S
C867 H896 0.950 . S
C868 N864 1.383 . S
C868 C867 1.439 . S
C868 C886 1.392 . S
N869 Co853 2.282 . S
N869 C872 1.332 . S
N869 C874 1.332 . S
C870 C871 1.386 . S
C870 C873 1.388 . S
C871 C870 1.386 . S
C871 C872 1.382 . S
C871 H897 0.950 . S
C872 N869 1.332 . S
C872 C871 1.382 . S
C872 H883 0.952 . S
C873 C870 1.388 . S
C873 C874 1.382 . S
C873 H898 0.950 . S
C874 N869 1.332 . S
C874 C873 1.382 . S
C874 H884 0.948 . S
N875 Co853 2.282 . S
N875 C879 1.332 . S
N875 C880 1.332 . S
C876 C877 1.388 . S
C876 C880 1.382 . S
C876 H899 0.950 . S
C877 C876 1.388 . S
C877 C878 1.386 . S
C878 C877 1.386 . S
C878 C879 1.382 . S
C878 H900 0.950 . S
C879 N875 1.332 . S
C879 C878 1.382 . S
C879 H881 0.952 . S
C880 N875 1.332 . S
C880 C876 1.382 . S
C880 H882 0.948 . S
H881 C879 0.952 . S
H882 C880 0.948 . S
H883 C872 0.952 . S
H884 C874 0.948 . S
C885 C851 1.395 . S
C885 C855 1.391 . S
C886 C848 1.389 . S
C886 C868 1.392 . S
C887 C858 1.392 . S
C887 C860 1.389 . S
C888 C863 1.395 . S
C888 C865 1.391 . S
H889 C849 0.951 . S
H890 C850 0.950 . S
H891 C856 0.949 . S
H892 C857 0.950 . S
H893 C861 0.951 . S
H894 C862 0.950 . S
H895 C866 0.949 . S
H896 C867 0.950 . S
H897 C871 0.950 . S
H898 C873 0.950 . S
H899 C876 0.950 . S
H900 C878 0.950 . S
C901 C902 1.443 . S
C901 N905 1.376 . S
C901 C939 1.389 . S
C902 C901 1.443 . S
C902 C903 1.340 . S
C902 H942 0.951 . S
C903 C902 1.340 . S
C903 C904 1.439 . S
C903 H943 0.950 . S
C904 C903 1.439 . S
C904 N905 1.374 . S
C904 C938 1.395 . S
N905 C901 1.376 . S
N905 C904 1.374 . S
N905 Co906 2.008 . S
Co906 N905 2.008 . S
Co906 N907 1.995 . S
Co906 N912 2.008 . S
Co906 N917 1.995 . S
Co906 N922 2.282 . S
Co906 N928 2.282 . S
N907 Co906 1.995 . S
N907 C908 1.376 . S
N907 C911 1.383 . S
C908 N907 1.376 . S
C908 C909 1.446 . S
C908 C938 1.391 . S
C909 C908 1.446 . S
C909 C910 1.339 . S
C909 H944 0.949 . S
C910 C909 1.339 . S
C910 C911 1.439 . S
C910 H945 0.950 . S
C911 N907 1.383 . S
C911 C910 1.439 . S
C911 C940 1.392 . S
N912 Co906 2.008 . S
N912 C913 1.376 . S
N912 C916 1.374 . S
C913 N912 1.376 . S
C913 C914 1.443 . S
C913 C940 1.389 . S
C914 C913 1.443 . S
C914 C915 1.340 . S
C914 H946 0.951 . S
C915 C914 1.340 . S
C915 C916 1.439 . S
C915 H947 0.950 . S
C916 N912 1.374 . S
C916 C915 1.439 . S
C916 C941 1.395 . S
N917 Co906 1.995 . S
N917 C918 1.376 . S
N917 C921 1.383 . S
C918 N917 1.376 . S
C918 C919 1.446 . S
C918 C941 1.391 . S
C919 C918 1.446 . S
C919 C920 1.339 . S
C919 H948 0.949 . S
C920 C919 1.339 . S
C920 C921 1.439 . S
C920 H949 0.950 . S
C921 N917 1.383 . S
C921 C920 1.439 . S
C921 C939 1.392 . S
N922 Co906 2.282 . S
N922 C925 1.332 . S
N922 C927 1.332 . S
C923 C924 1.386 . S
C923 C926 1.388 . S
C924 C923 1.386 . S
C924 C925 1.382 . S
C924 H950 0.950 . S
C925 N922 1.332 . S
C925 C924 1.382 . S
C925 H936 0.952 . S
C926 C923 1.388 . S
C926 C927 1.382 . S
C926 H951 0.950 . S
C927 N922 1.332 . S
C927 C926 1.382 . S
C927 H937 0.948 . S
N928 Co906 2.282 . S
N928 C932 1.332 . S
N928 C933 1.332 . S
C929 C930 1.388 . S
C929 C933 1.382 . S
C929 H952 0.950 . S
C930 C929 1.388 . S
C930 C931 1.386 . S
C931 C930 1.386 . S
C931 C932 1.382 . S
C931 H953 0.950 . S
C932 N928 1.332 . S
C932 C931 1.382 . S
C932 H934 0.952 . S
C933 N928 1.332 . S
C933 C929 1.382 . S
C933 H935 0.948 . S
H934 C932 0.952 . S
H935 C933 0.948 . S
H936 C925 0.952 . S
H937 C927 0.948 . S
C938 C904 1.395 . S
C938 C908 1.391 . S
C939 C901 1.389 . S
C939 C921 1.392 . S
C940 C911 1.392 . S
C940 C913 1.389 . S
C941 C916 1.395 . S
C941 C918 1.391 . S
H942 C902 0.951 . S
H943 C903 0.950 . S
H944 C909 0.949 . S
H945 C910 0.950 . S
H946 C914 0.951 . S
H947 C915 0.950 . S
H948 C919 0.949 . S
H949 C920 0.950 . S
H950 C924 0.950 . S
H951 C926 0.950 . S
H952 C929 0.950 . S
H953 C931 0.950 . S
C954 C955 1.443 . S
C954 N958 1.376 . S
C954 C992 1.389 . S
C955 C954 1.443 . S
C955 C956 1.340 . S
C955 H995 0.951 . S
C956 C955 1.340 . S
C956 C957 1.439 . S
C956 H996 0.950 . S
C957 C956 1.439 . S
C957 N958 1.374 . S
C957 C991 1.395 . S
N958 C954 1.376 . S
N958 C957 1.374 . S
N958 Co959 2.008 . S
Co959 N958 2.008 . S
Co959 N960 1.995 . S
Co959 N965 2.008 . S
Co959 N970 1.995 . S
Co959 N975 2.282 . S
Co959 N981 2.282 . S
N960 Co959 1.995 . S
N960 C961 1.376 . S
N960 C964 1.383 . S
C961 N960 1.376 . S
C961 C962 1.446 . S
C961 C991 1.391 . S
C962 C961 1.446 . S
C962 C963 1.339 . S
C962 H997 0.949 . S
C963 C962 1.339 . S
C963 C964 1.439 . S
C963 H998 0.950 . S
C964 N960 1.383 . S
C964 C963 1.439 . S
C964 C993 1.392 . S
N965 Co959 2.008 . S
N965 C966 1.376 . S
N965 C969 1.374 . S
C966 N965 1.376 . S
C966 C967 1.443 . S
C966 C993 1.389 . S
C967 C966 1.443 . S
C967 C968 1.340 . S
C967 H999 0.951 . S
C968 C967 1.340 . S
C968 C969 1.439 . S
C968 H1000 0.950 . S
C969 N965 1.374 . S
C969 C968 1.439 . S
C969 C994 1.395 . S
N970 Co959 1.995 . S
N970 C971 1.376 . S
N970 C974 1.383 . S
C971 N970 1.376 . S
C971 C972 1.446 . S
C971 C994 1.391 . S
C972 C971 1.446 . S
C972 C973 1.339 . S
C972 H1001 0.949 . S
C973 C972 1.339 . S
C973 C974 1.439 . S
C973 H1002 0.950 . S
C974 N970 1.383 . S
C974 C973 1.439 . S
C974 C992 1.392 . S
N975 Co959 2.282 . S
N975 C978 1.332 . S
N975 C980 1.332 . S
C976 C977 1.386 . S
C976 C979 1.388 . S
C977 C976 1.386 . S
C977 C978 1.382 . S
C977 H1003 0.950 . S
C978 N975 1.332 . S
C978 C977 1.382 . S
C978 H989 0.952 . S
C979 C976 1.388 . S
C979 C980 1.382 . S
C979 H1004 0.950 . S
C980 N975 1.332 . S
C980 C979 1.382 . S
C980 H990 0.948 . S
N981 Co959 2.282 . S
N981 C985 1.332 . S
N981 C986 1.332 . S
C982 C983 1.388 . S
C982 C986 1.382 . S
C982 H1005 0.950 . S
C983 C982 1.388 . S
C983 C984 1.386 . S
C984 C983 1.386 . S
C984 C985 1.382 . S
C984 H1006 0.950 . S
C985 N981 1.332 . S
C985 C984 1.382 . S
C985 H987 0.952 . S
C986 N981 1.332 . S
C986 C982 1.382 . S
C986 H988 0.948 . S
H987 C985 0.952 . S
H988 C986 0.948 . S
H989 C978 0.952 . S
H990 C980 0.948 . S
C991 C957 1.395 . S
C991 C961 1.391 . S
C992 C954 1.389 . S
C992 C974 1.392 . S
C993 C964 1.392 . S
C993 C966 1.389 . S
C994 C969 1.395 . S
C994 C971 1.391 . S
H995 C955 0.951 . S
H996 C956 0.950 . S
H997 C962 0.949 . S
H998 C963 0.950 . S
H999 C967 0.951 . S
H1000 C968 0.950 . S
H1001 C972 0.949 . S
H1002 C973 0.950 . S
H1003 C977 0.950 . S
H1004 C979 0.950 . S
H1005 C982 0.950 . S
H1006 C984 0.950 . S
C1007 C1008 1.443 . S
C1007 N1011 1.376 . S
C1007 C1045 1.389 . S
C1008 C1007 1.443 . S
C1008 C1009 1.340 . S
C1008 H1048 0.951 . S
C1009 C1008 1.340 . S
C1009 C1010 1.439 . S
C1009 H1049 0.950 . S
C1010 C1009 1.439 . S
C1010 N1011 1.374 . S
C1010 C1044 1.395 . S
N1011 C1007 1.376 . S
N1011 C1010 1.374 . S
N1011 Co1012 2.008 . S
Co1012 N1011 2.008 . S
Co1012 N1013 1.995 . S
Co1012 N1018 2.008 . S
Co1012 N1023 1.995 . S
Co1012 N1028 2.282 . S
Co1012 N1034 2.282 . S
N1013 Co1012 1.995 . S
N1013 C1014 1.376 . S
N1013 C1017 1.383 . S
C1014 N1013 1.376 . S
C1014 C1015 1.446 . S
C1014 C1044 1.391 . S
C1015 C1014 1.446 . S
C1015 C1016 1.339 . S
C1015 H1050 0.949 . S
C1016 C1015 1.339 . S
C1016 C1017 1.439 . S
C1016 H1051 0.950 . S
C1017 N1013 1.383 . S
C1017 C1016 1.439 . S
C1017 C1046 1.392 . S
N1018 Co1012 2.008 . S
N1018 C1019 1.376 . S
N1018 C1022 1.374 . S
C1019 N1018 1.376 . S
C1019 C1020 1.443 . S
C1019 C1046 1.389 . S
C1020 C1019 1.443 . S
C1020 C1021 1.340 . S
C1020 H1052 0.951 . S
C1021 C1020 1.340 . S
C1021 C1022 1.439 . S
C1021 H1053 0.950 . S
C1022 N1018 1.374 . S
C1022 C1021 1.439 . S
C1022 C1047 1.395 . S
N1023 Co1012 1.995 . S
N1023 C1024 1.376 . S
N1023 C1027 1.383 . S
C1024 N1023 1.376 . S
C1024 C1025 1.446 . S
C1024 C1047 1.391 . S
C1025 C1024 1.446 . S
C1025 C1026 1.339 . S
C1025 H1054 0.949 . S
C1026 C1025 1.339 . S
C1026 C1027 1.439 . S
C1026 H1055 0.950 . S
C1027 N1023 1.383 . S
C1027 C1026 1.439 . S
C1027 C1045 1.392 . S
N1028 Co1012 2.282 . S
N1028 C1031 1.332 . S
N1028 C1033 1.332 . S
C1029 C1030 1.386 . S
C1029 C1032 1.388 . S
C1030 C1029 1.386 . S
C1030 C1031 1.382 . S
C1030 H1056 0.950 . S
C1031 N1028 1.332 . S
C1031 C1030 1.382 . S
C1031 H1042 0.952 . S
C1032 C1029 1.388 . S
C1032 C1033 1.382 . S
C1032 H1057 0.950 . S
C1033 N1028 1.332 . S
C1033 C1032 1.382 . S
C1033 H1043 0.948 . S
N1034 Co1012 2.282 . S
N1034 C1038 1.332 . S
N1034 C1039 1.332 . S
C1035 C1036 1.388 . S
C1035 C1039 1.382 . S
C1035 H1058 0.950 . S
C1036 C1035 1.388 . S
C1036 C1037 1.386 . S
C1037 C1036 1.386 . S
C1037 C1038 1.382 . S
C1037 H1059 0.950 . S
C1038 N1034 1.332 . S
C1038 C1037 1.382 . S
C1038 H1040 0.952 . S
C1039 N1034 1.332 . S
C1039 C1035 1.382 . S
C1039 H1041 0.948 . S
H1040 C1038 0.952 . S
H1041 C1039 0.948 . S
H1042 C1031 0.952 . S
H1043 C1033 0.948 . S
C1044 C1010 1.395 . S
C1044 C1014 1.391 . S
C1045 C1007 1.389 . S
C1045 C1027 1.392 . S
C1046 C1017 1.392 . S
C1046 C1019 1.389 . S
C1047 C1022 1.395 . S
C1047 C1024 1.391 . S
H1048 C1008 0.951 . S
H1049 C1009 0.950 . S
H1050 C1015 0.949 . S
H1051 C1016 0.950 . S
H1052 C1020 0.951 . S
H1053 C1021 0.950 . S
H1054 C1025 0.949 . S
H1055 C1026 0.950 . S
H1056 C1030 0.950 . S
H1057 C1032 0.950 . S
H1058 C1035 0.950 . S
H1059 C1037 0.950 . S
C1060 C1061 1.443 . S
C1060 N1064 1.376 . S
C1060 C1098 1.389 . S
C1061 C1060 1.443 . S
C1061 C1062 1.340 . S
C1061 H1101 0.951 . S
C1062 C1061 1.340 . S
C1062 C1063 1.439 . S
C1062 H1102 0.950 . S
C1063 C1062 1.439 . S
C1063 N1064 1.374 . S
C1063 C1097 1.395 . S
N1064 C1060 1.376 . S
N1064 C1063 1.374 . S
N1064 Co1065 2.008 . S
Co1065 N1064 2.008 . S
Co1065 N1066 1.995 . S
Co1065 N1071 2.008 . S
Co1065 N1076 1.995 . S
Co1065 N1081 2.282 . S
Co1065 N1087 2.282 . S
N1066 Co1065 1.995 . S
N1066 C1067 1.376 . S
N1066 C1070 1.383 . S
C1067 N1066 1.376 . S
C1067 C1068 1.446 . S
C1067 C1097 1.391 . S
C1068 C1067 1.446 . S
C1068 C1069 1.339 . S
C1068 H1103 0.949 . S
C1069 C1068 1.339 . S
C1069 C1070 1.439 . S
C1069 H1104 0.950 . S
C1070 N1066 1.383 . S
C1070 C1069 1.439 . S
C1070 C1099 1.392 . S
N1071 Co1065 2.008 . S
N1071 C1072 1.376 . S
N1071 C1075 1.374 . S
C1072 N1071 1.376 . S
C1072 C1073 1.443 . S
C1072 C1099 1.389 . S
C1073 C1072 1.443 . S
C1073 C1074 1.340 . S
C1073 H1105 0.951 . S
C1074 C1073 1.340 . S
C1074 C1075 1.439 . S
C1074 H1106 0.950 . S
C1075 N1071 1.374 . S
C1075 C1074 1.439 . S
C1075 C1100 1.395 . S
N1076 Co1065 1.995 . S
N1076 C1077 1.376 . S
N1076 C1080 1.383 . S
C1077 N1076 1.376 . S
C1077 C1078 1.446 . S
C1077 C1100 1.391 . S
C1078 C1077 1.446 . S
C1078 C1079 1.339 . S
C1078 H1107 0.949 . S
C1079 C1078 1.339 . S
C1079 C1080 1.439 . S
C1079 H1108 0.950 . S
C1080 N1076 1.383 . S
C1080 C1079 1.439 . S
C1080 C1098 1.392 . S
N1081 Co1065 2.282 . S
N1081 C1084 1.332 . S
N1081 C1086 1.332 . S
C1082 C1083 1.386 . S
C1082 C1085 1.388 . S
C1083 C1082 1.386 . S
C1083 C1084 1.382 . S
C1083 H1109 0.950 . S
C1084 N1081 1.332 . S
C1084 C1083 1.382 . S
C1084 H1095 0.952 . S
C1085 C1082 1.388 . S
C1085 C1086 1.382 . S
C1085 H1110 0.950 . S
C1086 N1081 1.332 . S
C1086 C1085 1.382 . S
C1086 H1096 0.948 . S
N1087 Co1065 2.282 . S
N1087 C1091 1.332 . S
N1087 C1092 1.332 . S
C1088 C1089 1.388 . S
C1088 C1092 1.382 . S
C1088 H1111 0.950 . S
C1089 C1088 1.388 . S
C1089 C1090 1.386 . S
C1090 C1089 1.386 . S
C1090 C1091 1.382 . S
C1090 H1112 0.950 . S
C1091 N1087 1.332 . S
C1091 C1090 1.382 . S
C1091 H1093 0.952 . S
C1092 N1087 1.332 . S
C1092 C1088 1.382 . S
C1092 H1094 0.948 . S
H1093 C1091 0.952 . S
H1094 C1092 0.948 . S
H1095 C1084 0.952 . S
H1096 C1086 0.948 . S
C1097 C1063 1.395 . S
C1097 C1067 1.391 . S
C1098 C1060 1.389 . S
C1098 C1080 1.392 . S
C1099 C1070 1.392 . S
C1099 C1072 1.389 . S
C1100 C1075 1.395 . S
C1100 C1077 1.391 . S
H1101 C1061 0.951 . S
H1102 C1062 0.950 . S
H1103 C1068 0.949 . S
H1104 C1069 0.950 . S
H1105 C1073 0.951 . S
H1106 C1074 0.950 . S
H1107 C1078 0.949 . S
H1108 C1079 0.950 . S
H1109 C1083 0.950 . S
H1110 C1085 0.950 . S
H1111 C1088 0.950 . S
H1112 C1090 0.950 . S
C1113 C1114 1.443 . S
C1113 N1117 1.376 . S
C1113 C1151 1.389 . S
C1114 C1113 1.443 . S
C1114 C1115 1.340 . S
C1114 H1154 0.951 . S
C1115 C1114 1.340 . S
C1115 C1116 1.439 . S
C1115 H1155 0.950 . S
C1116 C1115 1.439 . S
C1116 N1117 1.374 . S
C1116 C1150 1.395 . S
N1117 C1113 1.376 . S
N1117 C1116 1.374 . S
N1117 Co1118 2.008 . S
Co1118 N1117 2.008 . S
Co1118 N1119 1.995 . S
Co1118 N1124 2.008 . S
Co1118 N1129 1.995 . S
Co1118 N1134 2.282 . S
Co1118 N1140 2.282 . S
N1119 Co1118 1.995 . S
N1119 C1120 1.376 . S
N1119 C1123 1.383 . S
C1120 N1119 1.376 . S
C1120 C1121 1.446 . S
C1120 C1150 1.391 . S
C1121 C1120 1.446 . S
C1121 C1122 1.339 . S
C1121 H1156 0.949 . S
C1122 C1121 1.339 . S
C1122 C1123 1.439 . S
C1122 H1157 0.950 . S
C1123 N1119 1.383 . S
C1123 C1122 1.439 . S
C1123 C1152 1.392 . S
N1124 Co1118 2.008 . S
N1124 C1125 1.376 . S
N1124 C1128 1.374 . S
C1125 N1124 1.376 . S
C1125 C1126 1.443 . S
C1125 C1152 1.389 . S
C1126 C1125 1.443 . S
C1126 C1127 1.340 . S
C1126 H1158 0.951 . S
C1127 C1126 1.340 . S
C1127 C1128 1.439 . S
C1127 H1159 0.950 . S
C1128 N1124 1.374 . S
C1128 C1127 1.439 . S
C1128 C1153 1.395 . S
N1129 Co1118 1.995 . S
N1129 C1130 1.376 . S
N1129 C1133 1.383 . S
C1130 N1129 1.376 . S
C1130 C1131 1.446 . S
C1130 C1153 1.391 . S
C1131 C1130 1.446 . S
C1131 C1132 1.339 . S
C1131 H1160 0.949 . S
C1132 C1131 1.339 . S
C1132 C1133 1.439 . S
C1132 H1161 0.950 . S
C1133 N1129 1.383 . S
C1133 C1132 1.439 . S
C1133 C1151 1.392 . S
N1134 Co1118 2.282 . S
N1134 C1137 1.332 . S
N1134 C1139 1.332 . S
C1135 C1136 1.386 . S
C1135 C1138 1.388 . S
C1136 C1135 1.386 . S
C1136 C1137 1.382 . S
C1136 H1162 0.950 . S
C1137 N1134 1.332 . S
C1137 C1136 1.382 . S
C1137 H1148 0.952 . S
C1138 C1135 1.388 . S
C1138 C1139 1.382 . S
C1138 H1163 0.950 . S
C1139 N1134 1.332 . S
C1139 C1138 1.382 . S
C1139 H1149 0.948 . S
N1140 Co1118 2.282 . S
N1140 C1144 1.332 . S
N1140 C1145 1.332 . S
C1141 C1142 1.388 . S
C1141 C1145 1.382 . S
C1141 H1164 0.950 . S
C1142 C1141 1.388 . S
C1142 C1143 1.386 . S
C1143 C1142 1.386 . S
C1143 C1144 1.382 . S
C1143 H1165 0.950 . S
C1144 N1140 1.332 . S
C1144 C1143 1.382 . S
C1144 H1146 0.952 . S
C1145 N1140 1.332 . S
C1145 C1141 1.382 . S
C1145 H1147 0.948 . S
H1146 C1144 0.952 . S
H1147 C1145 0.948 . S
H1148 C1137 0.952 . S
H1149 C1139 0.948 . S
C1150 C1116 1.395 . S
C1150 C1120 1.391 . S
C1151 C1113 1.389 . S
C1151 C1133 1.392 . S
C1152 C1123 1.392 . S
C1152 C1125 1.389 . S
C1153 C1128 1.395 . S
C1153 C1130 1.391 . S
H1154 C1114 0.951 . S
H1155 C1115 0.950 . S
H1156 C1121 0.949 . S
H1157 C1122 0.950 . S
H1158 C1126 0.951 . S
H1159 C1127 0.950 . S
H1160 C1131 0.949 . S
H1161 C1132 0.950 . S
H1162 C1136 0.950 . S
H1163 C1138 0.950 . S
H1164 C1141 0.950 . S
H1165 C1143 0.950 . S
C1166 C1167 1.443 . S
C1166 N1170 1.376 . S
C1166 C1204 1.389 . S
C1167 C1166 1.443 . S
C1167 C1168 1.340 . S
C1167 H1207 0.951 . S
C1168 C1167 1.340 . S
C1168 C1169 1.439 . S
C1168 H1208 0.950 . S
C1169 C1168 1.439 . S
C1169 N1170 1.374 . S
C1169 C1203 1.395 . S
N1170 C1166 1.376 . S
N1170 C1169 1.374 . S
N1170 Co1171 2.008 . S
Co1171 N1170 2.008 . S
Co1171 N1172 1.995 . S
Co1171 N1177 2.008 . S
Co1171 N1182 1.995 . S
Co1171 N1187 2.282 . S
Co1171 N1193 2.282 . S
N1172 Co1171 1.995 . S
N1172 C1173 1.376 . S
N1172 C1176 1.383 . S
C1173 N1172 1.376 . S
C1173 C1174 1.446 . S
C1173 C1203 1.391 . S
C1174 C1173 1.446 . S
C1174 C1175 1.339 . S
C1174 H1209 0.949 . S
C1175 C1174 1.339 . S
C1175 C1176 1.439 . S
C1175 H1210 0.950 . S
C1176 N1172 1.383 . S
C1176 C1175 1.439 . S
C1176 C1205 1.392 . S
N1177 Co1171 2.008 . S
N1177 C1178 1.376 . S
N1177 C1181 1.374 . S
C1178 N1177 1.376 . S
C1178 C1179 1.443 . S
C1178 C1205 1.389 . S
C1179 C1178 1.443 . S
C1179 C1180 1.340 . S
C1179 H1211 0.951 . S
C1180 C1179 1.340 . S
C1180 C1181 1.439 . S
C1180 H1212 0.950 . S
C1181 N1177 1.374 . S
C1181 C1180 1.439 . S
C1181 C1206 1.395 . S
N1182 Co1171 1.995 . S
N1182 C1183 1.376 . S
N1182 C1186 1.383 . S
C1183 N1182 1.376 . S
C1183 C1184 1.446 . S
C1183 C1206 1.391 . S
C1184 C1183 1.446 . S
C1184 C1185 1.339 . S
C1184 H1213 0.949 . S
C1185 C1184 1.339 . S
C1185 C1186 1.439 . S
C1185 H1214 0.950 . S
C1186 N1182 1.383 . S
C1186 C1185 1.439 . S
C1186 C1204 1.392 . S
N1187 Co1171 2.282 . S
N1187 C1190 1.332 . S
N1187 C1192 1.332 . S
C1188 C1189 1.386 . S
C1188 C1191 1.388 . S
C1189 C1188 1.386 . S
C1189 C1190 1.382 . S
C1189 H1215 0.950 . S
C1190 N1187 1.332 . S
C1190 C1189 1.382 . S
C1190 H1201 0.952 . S
C1191 C1188 1.388 . S
C1191 C1192 1.382 . S
C1191 H1216 0.950 . S
C1192 N1187 1.332 . S
C1192 C1191 1.382 . S
C1192 H1202 0.948 . S
N1193 Co1171 2.282 . S
N1193 C1197 1.332 . S
N1193 C1198 1.332 . S
C1194 C1195 1.388 . S
C1194 C1198 1.382 . S
C1194 H1217 0.950 . S
C1195 C1194 1.388 . S
C1195 C1196 1.386 . S
C1196 C1195 1.386 . S
C1196 C1197 1.382 . S
C1196 H1218 0.950 . S
C1197 N1193 1.332 . S
C1197 C1196 1.382 . S
C1197 H1199 0.952 . S
C1198 N1193 1.332 . S
C1198 C1194 1.382 . S
C1198 H1200 0.948 . S
H1199 C1197 0.952 . S
H1200 C1198 0.948 . S
H1201 C1190 0.952 . S
H1202 C1192 0.948 . S
C1203 C1169 1.395 . S
C1203 C1173 1.391 . S
C1204 C1166 1.389 . S
C1204 C1186 1.392 . S
C1205 C1176 1.392 . S
C1205 C1178 1.389 . S
C1206 C1181 1.395 . S
C1206 C1183 1.391 . S
H1207 C1167 0.951 . S
H1208 C1168 0.950 . S
H1209 C1174 0.949 . S
H1210 C1175 0.950 . S
H1211 C1179 0.951 . S
H1212 C1180 0.950 . S
H1213 C1184 0.949 . S
H1214 C1185 0.950 . S
H1215 C1189 0.950 . S
H1216 C1191 0.950 . S
H1217 C1194 0.950 . S
H1218 C1196 0.950 . S
C1219 C1220 1.443 . S
C1219 N1223 1.376 . S
C1219 C1257 1.389 . S
C1220 C1219 1.443 . S
C1220 C1221 1.340 . S
C1220 H1260 0.951 . S
C1221 C1220 1.340 . S
C1221 C1222 1.439 . S
C1221 H1261 0.950 . S
C1222 C1221 1.439 . S
C1222 N1223 1.374 . S
C1222 C1256 1.395 . S
N1223 C1219 1.376 . S
N1223 C1222 1.374 . S
N1223 Co1224 2.008 . S
Co1224 N1223 2.008 . S
Co1224 N1225 1.995 . S
Co1224 N1230 2.008 . S
Co1224 N1235 1.995 . S
Co1224 N1240 2.282 . S
Co1224 N1246 2.282 . S
N1225 Co1224 1.995 . S
N1225 C1226 1.376 . S
N1225 C1229 1.383 . S
C1226 N1225 1.376 . S
C1226 C1227 1.446 . S
C1226 C1256 1.391 . S
C1227 C1226 1.446 . S
C1227 C1228 1.339 . S
C1227 H1262 0.949 . S
C1228 C1227 1.339 . S
C1228 C1229 1.439 . S
C1228 H1263 0.950 . S
C1229 N1225 1.383 . S
C1229 C1228 1.439 . S
C1229 C1258 1.392 . S
N1230 Co1224 2.008 . S
N1230 C1231 1.376 . S
N1230 C1234 1.374 . S
C1231 N1230 1.376 . S
C1231 C1232 1.443 . S
C1231 C1258 1.389 . S
C1232 C1231 1.443 . S
C1232 C1233 1.340 . S
C1232 H1264 0.951 . S
C1233 C1232 1.340 . S
C1233 C1234 1.439 . S
C1233 H1265 0.950 . S
C1234 N1230 1.374 . S
C1234 C1233 1.439 . S
C1234 C1259 1.395 . S
N1235 Co1224 1.995 . S
N1235 C1236 1.376 . S
N1235 C1239 1.383 . S
C1236 N1235 1.376 . S
C1236 C1237 1.446 . S
C1236 C1259 1.391 . S
C1237 C1236 1.446 . S
C1237 C1238 1.339 . S
C1237 H1266 0.949 . S
C1238 C1237 1.339 . S
C1238 C1239 1.439 . S
C1238 H1267 0.950 . S
C1239 N1235 1.383 . S
C1239 C1238 1.439 . S
C1239 C1257 1.392 . S
N1240 Co1224 2.282 . S
N1240 C1243 1.332 . S
N1240 C1245 1.332 . S
C1241 C1242 1.386 . S
C1241 C1244 1.388 . S
C1242 C1241 1.386 . S
C1242 C1243 1.382 . S
C1242 H1268 0.950 . S
C1243 N1240 1.332 . S
C1243 C1242 1.382 . S
C1243 H1254 0.952 . S
C1244 C1241 1.388 . S
C1244 C1245 1.382 . S
C1244 H1269 0.950 . S
C1245 N1240 1.332 . S
C1245 C1244 1.382 . S
C1245 H1255 0.948 . S
N1246 Co1224 2.282 . S
N1246 C1250 1.332 . S
N1246 C1251 1.332 . S
C1247 C1248 1.388 . S
C1247 C1251 1.382 . S
C1247 H1270 0.950 . S
C1248 C1247 1.388 . S
C1248 C1249 1.386 . S
C1249 C1248 1.386 . S
C1249 C1250 1.382 . S
C1249 H1271 0.950 . S
C1250 N1246 1.332 . S
C1250 C1249 1.382 . S
C1250 H1252 0.952 . S
C1251 N1246 1.332 . S
C1251 C1247 1.382 . S
C1251 H1253 0.948 . S
H1252 C1250 0.952 . S
H1253 C1251 0.948 . S
H1254 C1243 0.952 . S
H1255 C1245 0.948 . S
C1256 C1222 1.395 . S
C1256 C1226 1.391 . S
C1257 C1219 1.389 . S
C1257 C1239 1.392 . S
C1258 C1229 1.392 . S
C1258 C1231 1.389 . S
C1259 C1234 1.395 . S
C1259 C1236 1.391 . S
H1260 C1220 0.951 . S
H1261 C1221 0.950 . S
H1262 C1227 0.949 . S
H1263 C1228 0.950 . S
H1264 C1232 0.951 . S
H1265 C1233 0.950 . S
H1266 C1237 0.949 . S
H1267 C1238 0.950 . S
H1268 C1242 0.950 . S
H1269 C1244 0.950 . S
H1270 C1247 0.950 . S
H1271 C1249 0.950 . S
C1272 C1273 1.349 . S
C1272 C1274 1.327 . S
C1272 H1297 0.950 . S
C1273 C1272 1.349 . S
C1273 C1289 1.349 . S
C1274 C1272 1.327 . S
C1274 C1293 1.429 . S
C1274 H1298 0.950 . S
C1275 C1292 1.574 . S
C1275 C1294 1.368 . S
C1275 H1299 0.949 . S
H1276 C1280 0.949 . S
C1277 C1278 1.349 . S
C1277 C1279 1.327 . S
C1277 H1300 0.950 . S
C1278 C1277 1.349 . S
C1278 C1290 1.349 . S
C1279 C1277 1.327 . S
C1279 C1295 1.429 . S
C1279 H1301 0.950 . S
C1280 H1276 0.949 . S
C1280 C1288 1.574 . S
C1280 C1296 1.368 . S
H1281 C1289 0.950 . S
H1282 C1287 0.950 . S
H1283 C1288 0.949 . S
H1284 C1290 0.950 . S
H1285 C1291 0.950 . S
H1286 C1292 0.949 . S
C1287 H1282 0.950 . S
C1287 C1289 1.327 . S
C1287 C1293 1.429 . S
C1288 C1280 1.574 . S
C1288 H1283 0.949 . S
C1288 C1294 1.368 . S
C1289 C1273 1.349 . S
C1289 H1281 0.950 . S
C1289 C1287 1.327 . S
C1290 C1278 1.349 . S
C1290 H1284 0.950 . S
C1290 C1291 1.327 . S
C1291 H1285 0.950 . S
C1291 C1290 1.327 . S
C1291 C1295 1.429 . S
C1292 C1275 1.574 . S
C1292 H1286 0.949 . S
C1292 C1296 1.368 . S
C1293 C1274 1.429 . S
C1293 C1287 1.429 . S
C1293 C1294 1.523 . S
C1294 C1275 1.368 . S
C1294 C1288 1.368 . S
C1294 C1293 1.523 . S
C1295 C1279 1.429 . S
C1295 C1291 1.429 . S
C1295 C1296 1.523 . S
C1296 C1280 1.368 . S
C1296 C1292 1.368 . S
C1296 C1295 1.523 . S
H1297 C1272 0.950 . S
H1298 C1274 0.950 . S
H1299 C1275 0.949 . S
H1300 C1277 0.950 . S
H1301 C1279 0.950 . S
C1302 C1303 1.349 . S
C1302 C1304 1.327 . S
C1302 H1327 0.950 . S
C1303 C1302 1.349 . S
C1303 C1319 1.349 . S
C1304 C1302 1.327 . S
C1304 C1323 1.429 . S
C1304 H1328 0.950 . S
C1305 C1322 1.574 . S
C1305 C1324 1.368 . S
C1305 H1329 0.949 . S
H1306 C1310 0.949 . S
C1307 C1308 1.349 . S
C1307 C1309 1.327 . S
C1307 H1330 0.950 . S
C1308 C1307 1.349 . S
C1308 C1320 1.349 . S
C1309 C1307 1.327 . S
C1309 C1325 1.429 . S
C1309 H1331 0.950 . S
C1310 H1306 0.949 . S
C1310 C1318 1.574 . S
C1310 C1326 1.368 . S
H1311 C1319 0.950 . S
H1312 C1317 0.950 . S
H1313 C1318 0.949 . S
H1314 C1320 0.950 . S
H1315 C1321 0.950 . S
H1316 C1322 0.949 . S
C1317 H1312 0.950 . S
C1317 C1319 1.327 . S
C1317 C1323 1.429 . S
C1318 C1310 1.574 . S
C1318 H1313 0.949 . S
C1318 C1324 1.368 . S
C1319 C1303 1.349 . S
C1319 H1311 0.950 . S
C1319 C1317 1.327 . S
C1320 C1308 1.349 . S
C1320 H1314 0.950 . S
C1320 C1321 1.327 . S
C1321 H1315 0.950 . S
C1321 C1320 1.327 . S
C1321 C1325 1.429 . S
C1322 C1305 1.574 . S
C1322 H1316 0.949 . S
C1322 C1326 1.368 . S
C1323 C1304 1.429 . S
C1323 C1317 1.429 . S
C1323 C1324 1.523 . S
C1324 C1305 1.368 . S
C1324 C1318 1.368 . S
C1324 C1323 1.523 . S
C1325 C1309 1.429 . S
C1325 C1321 1.429 . S
C1325 C1326 1.523 . S
C1326 C1310 1.368 . S
C1326 C1322 1.368 . S
C1326 C1325 1.523 . S
H1327 C1302 0.950 . S
H1328 C1304 0.950 . S
H1329 C1305 0.949 . S
H1330 C1307 0.950 . S
H1331 C1309 0.950 . S
C1332 C1333 1.349 . S
C1332 C1334 1.327 . S
C1332 H1357 0.950 . S
C1333 C1332 1.349 . S
C1333 C1349 1.349 . S
C1334 C1332 1.327 . S
C1334 C1353 1.429 . S
C1334 H1358 0.950 . S
C1335 C1352 1.574 . S
C1335 C1354 1.368 . S
C1335 H1359 0.949 . S
H1336 C1340 0.949 . S
C1337 C1338 1.349 . S
C1337 C1339 1.327 . S
C1337 H1360 0.950 . S
C1338 C1337 1.349 . S
C1338 C1350 1.349 . S
C1339 C1337 1.327 . S
C1339 C1355 1.429 . S
C1339 H1361 0.950 . S
C1340 H1336 0.949 . S
C1340 C1348 1.574 . S
C1340 C1356 1.368 . S
H1341 C1349 0.950 . S
H1342 C1347 0.950 . S
H1343 C1348 0.949 . S
H1344 C1350 0.950 . S
H1345 C1351 0.950 . S
H1346 C1352 0.949 . S
C1347 H1342 0.950 . S
C1347 C1349 1.327 . S
C1347 C1353 1.429 . S
C1348 C1340 1.574 . S
C1348 H1343 0.949 . S
C1348 C1354 1.368 . S
C1349 C1333 1.349 . S
C1349 H1341 0.950 . S
C1349 C1347 1.327 . S
C1350 C1338 1.349 . S
C1350 H1344 0.950 . S
C1350 C1351 1.327 . S
C1351 H1345 0.950 . S
C1351 C1350 1.327 . S
C1351 C1355 1.429 . S
C1352 C1335 1.574 . S
C1352 H1346 0.949 . S
C1352 C1356 1.368 . S
C1353 C1334 1.429 . S
C1353 C1347 1.429 . S
C1353 C1354 1.523 . S
C1354 C1335 1.368 . S
C1354 C1348 1.368 . S
C1354 C1353 1.523 . S
C1355 C1339 1.429 . S
C1355 C1351 1.429 . S
C1355 C1356 1.523 . S
C1356 C1340 1.368 . S
C1356 C1352 1.368 . S
C1356 C1355 1.523 . S
H1357 C1332 0.950 . S
H1358 C1334 0.950 . S
H1359 C1335 0.949 . S
H1360 C1337 0.950 . S
H1361 C1339 0.950 . S
C1362 C1363 1.349 . S
C1362 C1364 1.327 . S
C1362 H1387 0.950 . S
C1363 C1362 1.349 . S
C1363 C1379 1.349 . S
C1364 C1362 1.327 . S
C1364 C1383 1.429 . S
C1364 H1388 0.950 . S
C1365 C1382 1.574 . S
C1365 C1384 1.368 . S
C1365 H1389 0.949 . S
H1366 C1370 0.949 . S
C1367 C1368 1.349 . S
C1367 C1369 1.327 . S
C1367 H1390 0.950 . S
C1368 C1367 1.349 . S
C1368 C1380 1.349 . S
C1369 C1367 1.327 . S
C1369 C1385 1.429 . S
C1369 H1391 0.950 . S
C1370 H1366 0.949 . S
C1370 C1378 1.574 . S
C1370 C1386 1.368 . S
H1371 C1379 0.950 . S
H1372 C1377 0.950 . S
H1373 C1378 0.949 . S
H1374 C1380 0.950 . S
H1375 C1381 0.950 . S
H1376 C1382 0.949 . S
C1377 H1372 0.950 . S
C1377 C1379 1.327 . S
C1377 C1383 1.429 . S
C1378 C1370 1.574 . S
C1378 H1373 0.949 . S
C1378 C1384 1.368 . S
C1379 C1363 1.349 . S
C1379 H1371 0.950 . S
C1379 C1377 1.327 . S
C1380 C1368 1.349 . S
C1380 H1374 0.950 . S
C1380 C1381 1.327 . S
C1381 H1375 0.950 . S
C1381 C1380 1.327 . S
C1381 C1385 1.429 . S
C1382 C1365 1.574 . S
C1382 H1376 0.949 . S
C1382 C1386 1.368 . S
C1383 C1364 1.429 . S
C1383 C1377 1.429 . S
C1383 C1384 1.523 . S
C1384 C1365 1.368 . S
C1384 C1378 1.368 . S
C1384 C1383 1.523 . S
C1385 C1369 1.429 . S
C1385 C1381 1.429 . S
C1385 C1386 1.523 . S
C1386 C1370 1.368 . S
C1386 C1382 1.368 . S
C1386 C1385 1.523 . S
H1387 C1362 0.950 . S
H1388 C1364 0.950 . S
H1389 C1365 0.949 . S
H1390 C1367 0.950 . S
H1391 C1369 0.950 . S
C1392 C1393 1.349 . S
C1392 C1394 1.327 . S
C1392 H1417 0.950 . S
C1393 C1392 1.349 . S
C1393 C1409 1.349 . S
C1394 C1392 1.327 . S
C1394 C1413 1.429 . S
C1394 H1418 0.950 . S
C1395 C1412 1.574 . S
C1395 C1414 1.368 . S
C1395 H1419 0.949 . S
H1396 C1400 0.949 . S
C1397 C1398 1.349 . S
C1397 C1399 1.327 . S
C1397 H1420 0.950 . S
C1398 C1397 1.349 . S
C1398 C1410 1.349 . S
C1399 C1397 1.327 . S
C1399 C1415 1.429 . S
C1399 H1421 0.950 . S
C1400 H1396 0.949 . S
C1400 C1408 1.574 . S
C1400 C1416 1.368 . S
H1401 C1409 0.950 . S
H1402 C1407 0.950 . S
H1403 C1408 0.949 . S
H1404 C1410 0.950 . S
H1405 C1411 0.950 . S
H1406 C1412 0.949 . S
C1407 H1402 0.950 . S
C1407 C1409 1.327 . S
C1407 C1413 1.429 . S
C1408 C1400 1.574 . S
C1408 H1403 0.949 . S
C1408 C1414 1.368 . S
C1409 C1393 1.349 . S
C1409 H1401 0.950 . S
C1409 C1407 1.327 . S
C1410 C1398 1.349 . S
C1410 H1404 0.950 . S
C1410 C1411 1.327 . S
C1411 H1405 0.950 . S
C1411 C1410 1.327 . S
C1411 C1415 1.429 . S
C1412 C1395 1.574 . S
C1412 H1406 0.949 . S
C1412 C1416 1.368 . S
C1413 C1394 1.429 . S
C1413 C1407 1.429 . S
C1413 C1414 1.523 . S
C1414 C1395 1.368 . S
C1414 C1408 1.368 . S
C1414 C1413 1.523 . S
C1415 C1399 1.429 . S
C1415 C1411 1.429 . S
C1415 C1416 1.523 . S
C1416 C1400 1.368 . S
C1416 C1412 1.368 . S
C1416 C1415 1.523 . S
H1417 C1392 0.950 . S
H1418 C1394 0.950 . S
H1419 C1395 0.949 . S
H1420 C1397 0.950 . S
H1421 C1399 0.950 . S
C1422 C1423 1.349 . S
C1422 C1424 1.327 . S
C1422 H1447 0.950 . S
C1423 C1422 1.349 . S
C1423 C1439 1.349 . S
C1424 C1422 1.327 . S
C1424 C1443 1.429 . S
C1424 H1448 0.950 . S
C1425 C1442 1.574 . S
C1425 C1444 1.368 . S
C1425 H1449 0.949 . S
H1426 C1430 0.949 . S
C1427 C1428 1.349 . S
C1427 C1429 1.327 . S
C1427 H1450 0.950 . S
C1428 C1427 1.349 . S
C1428 C1440 1.349 . S
C1429 C1427 1.327 . S
C1429 C1445 1.429 . S
C1429 H1451 0.950 . S
C1430 H1426 0.949 . S
C1430 C1438 1.574 . S
C1430 C1446 1.368 . S
H1431 C1439 0.950 . S
H1432 C1437 0.950 . S
H1433 C1438 0.949 . S
H1434 C1440 0.950 . S
H1435 C1441 0.950 . S
H1436 C1442 0.949 . S
C1437 H1432 0.950 . S
C1437 C1439 1.327 . S
C1437 C1443 1.429 . S
C1438 C1430 1.574 . S
C1438 H1433 0.949 . S
C1438 C1444 1.368 . S
C1439 C1423 1.349 . S
C1439 H1431 0.950 . S
C1439 C1437 1.327 . S
C1440 C1428 1.349 . S
C1440 H1434 0.950 . S
C1440 C1441 1.327 . S
C1441 H1435 0.950 . S
C1441 C1440 1.327 . S
C1441 C1445 1.429 . S
C1442 C1425 1.574 . S
C1442 H1436 0.949 . S
C1442 C1446 1.368 . S
C1443 C1424 1.429 . S
C1443 C1437 1.429 . S
C1443 C1444 1.523 . S
C1444 C1425 1.368 . S
C1444 C1438 1.368 . S
C1444 C1443 1.523 . S
C1445 C1429 1.429 . S
C1445 C1441 1.429 . S
C1445 C1446 1.523 . S
C1446 C1430 1.368 . S
C1446 C1442 1.368 . S
C1446 C1445 1.523 . S
H1447 C1422 0.950 . S
H1448 C1424 0.950 . S
H1449 C1425 0.949 . S
H1450 C1427 0.950 . S
H1451 C1429 0.950 . S
C1452 C1453 1.349 . S
C1452 C1454 1.327 . S
C1452 H1477 0.950 . S
C1453 C1452 1.349 . S
C1453 C1469 1.349 . S
C1454 C1452 1.327 . S
C1454 C1473 1.429 . S
C1454 H1478 0.950 . S
C1455 C1472 1.574 . S
C1455 C1474 1.368 . S
C1455 H1479 0.949 . S
H1456 C1460 0.949 . S
C1457 C1458 1.349 . S
C1457 C1459 1.327 . S
C1457 H1480 0.950 . S
C1458 C1457 1.349 . S
C1458 C1470 1.349 . S
C1459 C1457 1.327 . S
C1459 C1475 1.429 . S
C1459 H1481 0.950 . S
C1460 H1456 0.949 . S
C1460 C1468 1.574 . S
C1460 C1476 1.368 . S
H1461 C1469 0.950 . S
H1462 C1467 0.950 . S
H1463 C1468 0.949 . S
H1464 C1470 0.950 . S
H1465 C1471 0.950 . S
H1466 C1472 0.949 . S
C1467 H1462 0.950 . S
C1467 C1469 1.327 . S
C1467 C1473 1.429 . S
C1468 C1460 1.574 . S
C1468 H1463 0.949 . S
C1468 C1474 1.368 . S
C1469 C1453 1.349 . S
C1469 H1461 0.950 . S
C1469 C1467 1.327 . S
C1470 C1458 1.349 . S
C1470 H1464 0.950 . S
C1470 C1471 1.327 . S
C1471 H1465 0.950 . S
C1471 C1470 1.327 . S
C1471 C1475 1.429 . S
C1472 C1455 1.574 . S
C1472 H1466 0.949 . S
C1472 C1476 1.368 . S
C1473 C1454 1.429 . S
C1473 C1467 1.429 . S
C1473 C1474 1.523 . S
C1474 C1455 1.368 . S
C1474 C1468 1.368 . S
C1474 C1473 1.523 . S
C1475 C1459 1.429 . S
C1475 C1471 1.429 . S
C1475 C1476 1.523 . S
C1476 C1460 1.368 . S
C1476 C1472 1.368 . S
C1476 C1475 1.523 . S
H1477 C1452 0.950 . S
H1478 C1454 0.950 . S
H1479 C1455 0.949 . S
H1480 C1457 0.950 . S
H1481 C1459 0.950 . S
C1482 C1483 1.349 . S
C1482 C1484 1.327 . S
C1482 H1507 0.950 . S
C1483 C1482 1.349 . S
C1483 C1499 1.349 . S
C1484 C1482 1.327 . S
C1484 C1503 1.429 . S
C1484 H1508 0.950 . S
C1485 C1502 1.574 . S
C1485 C1504 1.368 . S
C1485 H1509 0.949 . S
H1486 C1490 0.949 . S
C1487 C1488 1.349 . S
C1487 C1489 1.327 . S
C1487 H1510 0.950 . S
C1488 C1487 1.349 . S
C1488 C1500 1.349 . S
C1489 C1487 1.327 . S
C1489 C1505 1.429 . S
C1489 H1511 0.950 . S
C1490 H1486 0.949 . S
C1490 C1498 1.574 . S
C1490 C1506 1.368 . S
H1491 C1499 0.950 . S
H1492 C1497 0.950 . S
H1493 C1498 0.949 . S
H1494 C1500 0.950 . S
H1495 C1501 0.950 . S
H1496 C1502 0.949 . S
C1497 H1492 0.950 . S
C1497 C1499 1.327 . S
C1497 C1503 1.429 . S
C1498 C1490 1.574 . S
C1498 H1493 0.949 . S
C1498 C1504 1.368 . S
C1499 C1483 1.349 . S
C1499 H1491 0.950 . S
C1499 C1497 1.327 . S
C1500 C1488 1.349 . S
C1500 H1494 0.950 . S
C1500 C1501 1.327 . S
C1501 H1495 0.950 . S
C1501 C1500 1.327 . S
C1501 C1505 1.429 . S
C1502 C1485 1.574 . S
C1502 H1496 0.949 . S
C1502 C1506 1.368 . S
C1503 C1484 1.429 . S
C1503 C1497 1.429 . S
C1503 C1504 1.523 . S
C1504 C1485 1.368 . S
C1504 C1498 1.368 . S
C1504 C1503 1.523 . S
C1505 C1489 1.429 . S
C1505 C1501 1.429 . S
C1505 C1506 1.523 . S
C1506 C1490 1.368 . S
C1506 C1502 1.368 . S
C1506 C1505 1.523 . S
H1507 C1482 0.950 . S
H1508 C1484 0.950 . S
H1509 C1485 0.949 . S
H1510 C1487 0.950 . S
H1511 C1489 0.950 . S
C1512 C1513 1.349 . S
C1512 C1514 1.327 . S
C1512 H1537 0.950 . S
C1513 C1512 1.349 . S
C1513 C1529 1.349 . S
C1514 C1512 1.327 . S
C1514 C1533 1.429 . S
C1514 H1538 0.950 . S
C1515 C1532 1.574 . S
C1515 C1534 1.368 . S
C1515 H1539 0.949 . S
H1516 C1520 0.949 . S
C1517 C1518 1.349 . S
C1517 C1519 1.327 . S
C1517 H1540 0.950 . S
C1518 C1517 1.349 . S
C1518 C1530 1.349 . S
C1519 C1517 1.327 . S
C1519 C1535 1.429 . S
C1519 H1541 0.950 . S
C1520 H1516 0.949 . S
C1520 C1528 1.574 . S
C1520 C1536 1.368 . S
H1521 C1529 0.950 . S
H1522 C1527 0.950 . S
H1523 C1528 0.949 . S
H1524 C1530 0.950 . S
H1525 C1531 0.950 . S
H1526 C1532 0.949 . S
C1527 H1522 0.950 . S
C1527 C1529 1.327 . S
C1527 C1533 1.429 . S
C1528 C1520 1.574 . S
C1528 H1523 0.949 . S
C1528 C1534 1.368 . S
C1529 C1513 1.349 . S
C1529 H1521 0.950 . S
C1529 C1527 1.327 . S
C1530 C1518 1.349 . S
C1530 H1524 0.950 . S
C1530 C1531 1.327 . S
C1531 H1525 0.950 . S
C1531 C1530 1.327 . S
C1531 C1535 1.429 . S
C1532 C1515 1.574 . S
C1532 H1526 0.949 . S
C1532 C1536 1.368 . S
C1533 C1514 1.429 . S
C1533 C1527 1.429 . S
C1533 C1534 1.523 . S
C1534 C1515 1.368 . S
C1534 C1528 1.368 . S
C1534 C1533 1.523 . S
C1535 C1519 1.429 . S
C1535 C1531 1.429 . S
C1535 C1536 1.523 . S
C1536 C1520 1.368 . S
C1536 C1532 1.368 . S
C1536 C1535 1.523 . S
H1537 C1512 0.950 . S
H1538 C1514 0.950 . S
H1539 C1515 0.949 . S
H1540 C1517 0.950 . S
H1541 C1519 0.950 . S
C1542 C1543 1.349 . S
C1542 C1544 1.327 . S
C1542 H1567 0.950 . S
C1543 C1542 1.349 . S
C1543 C1559 1.349 . S
C1544 C1542 1.327 . S
C1544 C1563 1.429 . S
C1544 H1568 0.950 . S
C1545 C1562 1.574 . S
C1545 C1564 1.368 . S
C1545 H1569 0.949 . S
H1546 C1550 0.949 . S
C1547 C1548 1.349 . S
C1547 C1549 1.327 . S
C1547 H1570 0.950 . S
C1548 C1547 1.349 . S
C1548 C1560 1.349 . S
C1549 C1547 1.327 . S
C1549 C1565 1.429 . S
C1549 H1571 0.950 . S
C1550 H1546 0.949 . S
C1550 C1558 1.574 . S
C1550 C1566 1.368 . S
H1551 C1559 0.950 . S
H1552 C1557 0.950 . S
H1553 C1558 0.949 . S
H1554 C1560 0.950 . S
H1555 C1561 0.950 . S
H1556 C1562 0.949 . S
C1557 H1552 0.950 . S
C1557 C1559 1.327 . S
C1557 C1563 1.429 . S
C1558 C1550 1.574 . S
C1558 H1553 0.949 . S
C1558 C1564 1.368 . S
C1559 C1543 1.349 . S
C1559 H1551 0.950 . S
C1559 C1557 1.327 . S
C1560 C1548 1.349 . S
C1560 H1554 0.950 . S
C1560 C1561 1.327 . S
C1561 H1555 0.950 . S
C1561 C1560 1.327 . S
C1561 C1565 1.429 . S
C1562 C1545 1.574 . S
C1562 H1556 0.949 . S
C1562 C1566 1.368 . S
C1563 C1544 1.429 . S
C1563 C1557 1.429 . S
C1563 C1564 1.523 . S
C1564 C1545 1.368 . S
C1564 C1558 1.368 . S
C1564 C1563 1.523 . S
C1565 C1549 1.429 . S
C1565 C1561 1.429 . S
C1565 C1566 1.523 . S
C1566 C1550 1.368 . S
C1566 C1562 1.368 . S
C1566 C1565 1.523 . S
H1567 C1542 0.950 . S
H1568 C1544 0.950 . S
H1569 C1545 0.949 . S
H1570 C1547 0.950 . S
H1571 C1549 0.950 . S
C1572 C1573 1.349 . S
C1572 C1574 1.327 . S
C1572 H1597 0.950 . S
C1573 C1572 1.349 . S
C1573 C1589 1.349 . S
C1574 C1572 1.327 . S
C1574 C1593 1.429 . S
C1574 H1598 0.950 . S
C1575 C1592 1.574 . S
C1575 C1594 1.368 . S
C1575 H1599 0.949 . S
H1576 C1580 0.949 . S
C1577 C1578 1.349 . S
C1577 C1579 1.327 . S
C1577 H1600 0.950 . S
C1578 C1577 1.349 . S
C1578 C1590 1.349 . S
C1579 C1577 1.327 . S
C1579 C1595 1.429 . S
C1579 H1601 0.950 . S
C1580 H1576 0.949 . S
C1580 C1588 1.574 . S
C1580 C1596 1.368 . S
H1581 C1589 0.950 . S
H1582 C1587 0.950 . S
H1583 C1588 0.949 . S
H1584 C1590 0.950 . S
H1585 C1591 0.950 . S
H1586 C1592 0.949 . S
C1587 H1582 0.950 . S
C1587 C1589 1.327 . S
C1587 C1593 1.429 . S
C1588 C1580 1.574 . S
C1588 H1583 0.949 . S
C1588 C1594 1.368 . S
C1589 C1573 1.349 . S
C1589 H1581 0.950 . S
C1589 C1587 1.327 . S
C1590 C1578 1.349 . S
C1590 H1584 0.950 . S
C1590 C1591 1.327 . S
C1591 H1585 0.950 . S
C1591 C1590 1.327 . S
C1591 C1595 1.429 . S
C1592 C1575 1.574 . S
C1592 H1586 0.949 . S
C1592 C1596 1.368 . S
C1593 C1574 1.429 . S
C1593 C1587 1.429 . S
C1593 C1594 1.523 . S
C1594 C1575 1.368 . S
C1594 C1588 1.368 . S
C1594 C1593 1.523 . S
C1595 C1579 1.429 . S
C1595 C1591 1.429 . S
C1595 C1596 1.523 . S
C1596 C1580 1.368 . S
C1596 C1592 1.368 . S
C1596 C1595 1.523 . S
H1597 C1572 0.950 . S
H1598 C1574 0.950 . S
H1599 C1575 0.949 . S
H1600 C1577 0.950 . S
H1601 C1579 0.950 . S
C1602 C1603 1.349 . S
C1602 C1604 1.327 . S
C1602 H1627 0.950 . S
C1603 C1602 1.349 . S
C1603 C1619 1.349 . S
C1604 C1602 1.327 . S
C1604 C1623 1.429 . S
C1604 H1628 0.950 . S
C1605 C1622 1.574 . S
C1605 C1624 1.368 . S
C1605 H1629 0.949 . S
H1606 C1610 0.949 . S
C1607 C1608 1.349 . S
C1607 C1609 1.327 . S
C1607 H1630 0.950 . S
C1608 C1607 1.349 . S
C1608 C1620 1.349 . S
C1609 C1607 1.327 . S
C1609 C1625 1.429 . S
C1609 H1631 0.950 . S
C1610 H1606 0.949 . S
C1610 C1618 1.574 . S
C1610 C1626 1.368 . S
H1611 C1619 0.950 . S
H1612 C1617 0.950 . S
H1613 C1618 0.949 . S
H1614 C1620 0.950 . S
H1615 C1621 0.950 . S
H1616 C1622 0.949 . S
C1617 H1612 0.950 . S
C1617 C1619 1.327 . S
C1617 C1623 1.429 . S
C1618 C1610 1.574 . S
C1618 H1613 0.949 . S
C1618 C1624 1.368 . S
C1619 C1603 1.349 . S
C1619 H1611 0.950 . S
C1619 C1617 1.327 . S
C1620 C1608 1.349 . S
C1620 H1614 0.950 . S
C1620 C1621 1.327 . S
C1621 H1615 0.950 . S
C1621 C1620 1.327 . S
C1621 C1625 1.429 . S
C1622 C1605 1.574 . S
C1622 H1616 0.949 . S
C1622 C1626 1.368 . S
C1623 C1604 1.429 . S
C1623 C1617 1.429 . S
C1623 C1624 1.523 . S
C1624 C1605 1.368 . S
C1624 C1618 1.368 . S
C1624 C1623 1.523 . S
C1625 C1609 1.429 . S
C1625 C1621 1.429 . S
C1625 C1626 1.523 . S
C1626 C1610 1.368 . S
C1626 C1622 1.368 . S
C1626 C1625 1.523 . S
H1627 C1602 0.950 . S
H1628 C1604 0.950 . S
H1629 C1605 0.949 . S
H1630 C1607 0.950 . S
H1631 C1609 0.950 . S
C1632 C1633 1.349 . S
C1632 C1634 1.327 . S
C1632 H1657 0.950 . S
C1633 C1632 1.349 . S
C1633 C1649 1.349 . S
C1634 C1632 1.327 . S
C1634 C1653 1.429 . S
C1634 H1658 0.950 . S
C1635 C1652 1.574 . S
C1635 C1654 1.368 . S
C1635 H1659 0.949 . S
H1636 C1640 0.921 1_545 S
C1637 C1638 1.349 . S
C1637 C1639 1.327 . S
C1637 H1660 0.950 . S
C1638 C1637 1.349 . S
C1638 C1650 1.349 . S
C1639 C1637 1.327 . S
C1639 C1655 1.429 . S
C1639 H1661 0.950 . S
C1640 H1636 0.921 1_565 S
C1640 C1648 1.600 . S
C1640 C1656 1.375 . S
H1641 C1649 0.950 . S
H1642 C1647 0.950 . S
H1643 C1648 0.949 . S
H1644 C1650 0.950 . S
H1645 C1651 0.950 . S
H1646 C1652 0.949 . S
C1647 H1642 0.950 . S
C1647 C1649 1.327 . S
C1647 C1653 1.429 . S
C1648 C1640 1.600 . S
C1648 H1643 0.949 . S
C1648 C1654 1.368 . S
C1649 C1633 1.349 . S
C1649 H1641 0.950 . S
C1649 C1647 1.327 . S
C1650 C1638 1.349 . S
C1650 H1644 0.950 . S
C1650 C1651 1.327 . S
C1651 H1645 0.950 . S
C1651 C1650 1.327 . S
C1651 C1655 1.429 . S
C1652 C1635 1.574 . S
C1652 H1646 0.949 . S
C1652 C1656 1.368 . S
C1653 C1634 1.429 . S
C1653 C1647 1.429 . S
C1653 C1654 1.523 . S
C1654 C1635 1.368 . S
C1654 C1648 1.368 . S
C1654 C1653 1.523 . S
C1655 C1639 1.429 . S
C1655 C1651 1.429 . S
C1655 C1656 1.523 1_545 S
C1656 C1640 1.375 . S
C1656 C1652 1.368 . S
C1656 C1655 1.523 1_565 S
H1657 C1632 0.950 . S
H1658 C1634 0.950 . S
H1659 C1635 0.949 . S
H1660 C1637 0.950 . S
H1661 C1639 0.950 . S
C1662 C1663 1.349 . S
C1662 C1664 1.327 . S
C1662 H1687 0.950 . S
C1663 C1662 1.349 . S
C1663 C1679 1.349 . S
C1664 C1662 1.327 . S
C1664 C1683 1.429 . S
C1664 H1688 0.950 . S
C1665 C1682 1.574 . S
C1665 C1684 1.368 . S
C1665 H1689 0.949 . S
H1666 C1670 0.949 1_455 S
C1667 C1668 1.349 . S
C1667 C1669 1.327 . S
C1667 H1690 0.950 . S
C1668 C1667 1.349 . S
C1668 C1680 1.349 . S
C1669 C1667 1.327 . S
C1669 C1685 1.429 . S
C1669 H1691 0.950 1_455 S
C1670 H1666 0.949 1_655 S
C1670 C1678 1.574 . S
C1670 C1686 1.368 . S
H1671 C1679 0.950 . S
H1672 C1677 0.950 . S
H1673 C1678 0.949 . S
H1674 C1680 0.950 . S
H1675 C1681 0.950 . S
H1676 C1682 0.949 . S
C1677 H1672 0.950 . S
C1677 C1679 1.327 . S
C1677 C1683 1.429 . S
C1678 C1670 1.574 . S
C1678 H1673 0.949 . S
C1678 C1684 1.368 . S
C1679 C1663 1.349 . S
C1679 H1671 0.950 . S
C1679 C1677 1.327 . S
C1680 C1668 1.349 . S
C1680 H1674 0.950 . S
C1680 C1681 1.327 . S
C1681 H1675 0.950 . S
C1681 C1680 1.327 . S
C1681 C1685 1.429 . S
C1682 C1665 1.574 . S
C1682 H1676 0.949 . S
C1682 C1686 1.368 . S
C1683 C1664 1.429 . S
C1683 C1677 1.429 . S
C1683 C1684 1.523 . S
C1684 C1665 1.368 . S
C1684 C1678 1.368 . S
C1684 C1683 1.523 . S
C1685 C1669 1.429 . S
C1685 C1681 1.429 . S
C1685 C1686 1.523 1_455 S
C1686 C1670 1.368 . S
C1686 C1682 1.368 . S
C1686 C1685 1.523 1_655 S
H1687 C1662 0.950 . S
H1688 C1664 0.950 . S
H1689 C1665 0.949 . S
H1690 C1667 0.950 . S
H1691 C1669 0.950 1_655 S
C1692 C1693 1.349 . S
C1692 C1694 1.327 . S
C1692 H1717 0.950 . S
C1693 C1692 1.349 . S
C1693 C1709 1.349 . S
C1694 C1692 1.327 . S
C1694 C1713 1.429 . S
C1694 H1718 0.950 . S
C1695 C1712 1.574 . S
C1695 C1714 1.368 . S
C1695 H1719 0.949 . S
H1696 C1700 0.949 . S
C1697 C1698 1.349 . S
C1697 C1699 1.327 . S
C1697 H1720 0.950 . S
C1698 C1697 1.349 . S
C1698 C1710 1.349 . S
C1699 C1697 1.327 . S
C1699 C1715 1.429 1_565 S
C1699 H1721 0.950 . S
C1700 H1696 0.949 . S
C1700 C1708 1.574 . S
C1700 C1716 1.368 . S
H1701 C1709 0.950 . S
H1702 C1707 0.950 . S
H1703 C1708 0.949 . S
H1704 C1710 0.950 . S
H1705 C1711 0.950 . S
H1706 C1712 0.949 . S
C1707 H1702 0.950 . S
C1707 C1709 1.327 . S
C1707 C1713 1.429 . S
C1708 C1700 1.574 . S
C1708 H1703 0.949 . S
C1708 C1714 1.368 . S
C1709 C1693 1.349 . S
C1709 H1701 0.950 . S
C1709 C1707 1.327 . S
C1710 C1698 1.349 . S
C1710 H1704 0.950 . S
C1710 C1711 1.327 1_565 S
C1711 H1705 0.950 . S
C1711 C1710 1.327 1_545 S
C1711 C1715 1.429 . S
C1712 C1695 1.574 . S
C1712 H1706 0.949 . S
C1712 C1716 1.368 . S
C1713 C1694 1.429 . S
C1713 C1707 1.429 . S
C1713 C1714 1.523 . S
C1714 C1695 1.368 . S
C1714 C1708 1.368 . S
C1714 C1713 1.523 . S
C1715 C1699 1.429 1_545 S
C1715 C1711 1.429 . S
C1715 C1716 1.523 . S
C1716 C1700 1.368 . S
C1716 C1712 1.368 . S
C1716 C1715 1.523 . S
H1717 C1692 0.950 . S
H1718 C1694 0.950 . S
H1719 C1695 0.949 . S
H1720 C1697 0.950 . S
H1721 C1699 0.950 . S
C1722 C1723 1.349 . S
C1722 C1724 1.327 . S
C1722 H1747 0.950 . S
C1723 C1722 1.349 . S
C1723 C1739 1.349 . S
C1724 C1722 1.327 . S
C1724 C1743 1.429 . S
C1724 H1748 0.950 . S
C1725 C1742 1.574 . S
C1725 C1744 1.368 . S
C1725 H1749 0.949 . S
H1726 C1730 0.949 . S
C1727 C1728 1.349 . S
C1727 C1729 1.327 . S
C1727 H1750 0.950 . S
C1728 C1727 1.349 . S
C1728 C1740 1.349 . S
C1729 C1727 1.327 . S
C1729 C1745 1.429 . S
C1729 H1751 0.950 . S
C1730 H1726 0.949 . S
C1730 C1738 1.574 1_655 S
C1730 C1746 1.372 . S
H1731 C1739 0.950 . S
H1732 C1737 0.950 . S
H1733 C1738 0.949 . S
H1734 C1740 0.950 . S
H1735 C1741 0.950 . S
H1736 C1742 0.949 . S
C1737 H1732 0.950 . S
C1737 C1739 1.327 . S
C1737 C1743 1.429 . S
C1738 C1730 1.574 1_455 S
C1738 H1733 0.949 . S
C1738 C1744 1.368 . S
C1739 C1723 1.349 . S
C1739 H1731 0.950 . S
C1739 C1737 1.327 . S
C1740 C1728 1.349 . S
C1740 H1734 0.950 . S
C1740 C1741 1.327 . S
C1741 H1735 0.950 . S
C1741 C1740 1.327 . S
C1741 C1745 1.429 . S
C1742 C1725 1.574 . S
C1742 H1736 0.949 . S
C1742 C1746 1.356 1_455 S
C1743 C1724 1.429 . S
C1743 C1737 1.429 . S
C1743 C1744 1.523 . S
C1744 C1725 1.368 . S
C1744 C1738 1.368 . S
C1744 C1743 1.523 . S
C1745 C1729 1.429 . S
C1745 C1741 1.429 . S
C1745 C1746 1.534 . S
C1746 C1730 1.372 . S
C1746 C1742 1.356 1_655 S
C1746 C1745 1.534 . S
H1747 C1722 0.950 . S
H1748 C1724 0.950 . S
H1749 C1725 0.949 . S
H1750 C1727 0.950 . S
H1751 C1729 0.950 . S
C1752 C1753 1.349 . S
C1752 C1754 1.327 . S
C1752 H1777 0.950 . S
C1753 C1752 1.349 . S
C1753 C1769 1.349 . S
C1754 C1752 1.327 . S
C1754 C1773 1.429 1_565 S
C1754 H1778 0.950 . S
C1755 C1772 1.574 . S
C1755 C1774 1.368 . S
C1755 H1779 0.949 . S
H1756 C1760 0.949 . S
C1757 C1758 1.349 . S
C1757 C1759 1.327 . S
C1757 H1780 0.950 . S
C1758 C1757 1.349 . S
C1758 C1770 1.349 . S
C1759 C1757 1.327 . S
C1759 C1775 1.429 . S
C1759 H1781 0.950 . S
C1760 H1756 0.949 . S
C1760 C1768 1.574 . S
C1760 C1776 1.368 . S
H1761 C1769 0.950 . S
H1762 C1767 0.981 . S
H1763 C1768 0.949 . S
H1764 C1770 0.950 . S
H1765 C1771 0.950 . S
H1766 C1772 0.949 . S
C1767 H1762 0.981 . S
C1767 C1769 1.295 1_545 S
C1767 C1773 1.432 . S
C1768 C1760 1.574 . S
C1768 H1763 0.949 . S
C1768 C1774 1.368 . S
C1769 C1753 1.349 . S
C1769 H1761 0.950 . S
C1769 C1767 1.295 1_565 S
C1770 C1758 1.349 . S
C1770 H1764 0.950 . S
C1770 C1771 1.327 . S
C1771 H1765 0.950 . S
C1771 C1770 1.327 . S
C1771 C1775 1.429 . S
C1772 C1755 1.574 . S
C1772 H1766 0.949 . S
C1772 C1776 1.368 . S
C1773 C1754 1.429 1_545 S
C1773 C1767 1.432 . S
C1773 C1774 1.523 . S
C1774 C1755 1.368 . S
C1774 C1768 1.368 . S
C1774 C1773 1.523 . S
C1775 C1759 1.429 . S
C1775 C1771 1.429 . S
C1775 C1776 1.523 . S
C1776 C1760 1.368 . S
C1776 C1772 1.368 . S
C1776 C1775 1.523 . S
H1777 C1752 0.950 . S
H1778 C1754 0.950 . S
H1779 C1755 0.949 . S
H1780 C1757 0.950 . S
H1781 C1759 0.950 . S
C1782 C1783 1.349 . S
C1782 C1784 1.327 . S
C1782 H1807 0.950 . S
C1783 C1782 1.349 . S
C1783 C1799 1.349 . S
C1784 C1782 1.327 . S
C1784 C1803 1.429 . S
C1784 H1808 0.950 . S
C1785 C1802 1.574 . S
C1785 C1804 1.368 . S
C1785 H1809 0.949 . S
H1786 C1790 0.949 . S
C1787 C1788 1.349 . S
C1787 C1789 1.327 . S
C1787 H1810 0.950 . S
C1788 C1787 1.349 . S
C1788 C1800 1.349 . S
C1789 C1787 1.327 . S
C1789 C1805 1.429 . S
C1789 H1811 0.950 . S
C1790 H1786 0.949 . S
C1790 C1798 1.574 . S
C1790 C1806 1.368 . S
H1791 C1799 0.950 . S
H1792 C1797 0.950 . S
H1793 C1798 0.949 . S
H1794 C1800 0.950 . S
H1795 C1801 0.950 . S
H1796 C1802 0.949 . S
C1797 H1792 0.950 . S
C1797 C1799 1.327 . S
C1797 C1803 1.429 . S
C1798 C1790 1.574 . S
C1798 H1793 0.949 . S
C1798 C1804 1.368 . S
C1799 C1783 1.349 . S
C1799 H1791 0.950 . S
C1799 C1797 1.327 . S
C1800 C1788 1.349 . S
C1800 H1794 0.950 . S
C1800 C1801 1.327 . S
C1801 H1795 0.950 . S
C1801 C1800 1.327 . S
C1801 C1805 1.429 . S
C1802 C1785 1.574 . S
C1802 H1796 0.949 . S
C1802 C1806 1.368 . S
C1803 C1784 1.429 . S
C1803 C1797 1.429 . S
C1803 C1804 1.523 1_655 S
C1804 C1785 1.368 . S
C1804 C1798 1.368 . S
C1804 C1803 1.523 1_455 S
C1805 C1789 1.429 . S
C1805 C1801 1.429 . S
C1805 C1806 1.523 . S
C1806 C1790 1.368 . S
C1806 C1802 1.368 . S
C1806 C1805 1.523 . S
H1807 C1782 0.950 . S
H1808 C1784 0.950 . S
H1809 C1785 0.949 . S
H1810 C1787 0.950 . S
H1811 C1789 0.950 . S
C1812 C1813 1.349 . S
C1812 C1814 1.327 . S
C1812 H1837 0.950 . S
C1813 C1812 1.349 . S
C1813 C1829 1.349 . S
C1814 C1812 1.327 . S
C1814 C1833 1.429 . S
C1814 H1838 0.950 . S
C1815 C1832 1.574 . S
C1815 C1834 1.368 . S
C1815 H1839 0.949 . S
H1816 C1820 0.949 . S
C1817 C1818 1.349 . S
C1817 C1819 1.327 . S
C1817 H1840 0.950 . S
C1818 C1817 1.349 . S
C1818 C1830 1.349 . S
C1819 C1817 1.327 . S
C1819 C1835 1.429 . S
C1819 H1841 0.950 . S
C1820 H1816 0.949 . S
C1820 C1828 1.574 . S
C1820 C1836 1.368 . S
H1821 C1829 0.950 . S
H1822 C1827 0.950 . S
H1823 C1828 0.949 . S
H1824 C1830 0.950 . S
H1825 C1831 0.950 . S
H1826 C1832 0.949 1_545 S
C1827 H1822 0.950 . S
C1827 C1829 1.327 . S
C1827 C1833 1.429 . S
C1828 C1820 1.574 . S
C1828 H1823 0.949 . S
C1828 C1834 1.368 . S
C1829 C1813 1.349 . S
C1829 H1821 0.950 . S
C1829 C1827 1.327 . S
C1830 C1818 1.349 . S
C1830 H1824 0.950 . S
C1830 C1831 1.327 . S
C1831 H1825 0.950 . S
C1831 C1830 1.327 . S
C1831 C1835 1.429 . S
C1832 C1815 1.574 . S
C1832 H1826 0.949 1_565 S
C1832 C1836 1.368 . S
C1833 C1814 1.429 . S
C1833 C1827 1.429 . S
C1833 C1834 1.523 . S
C1834 C1815 1.368 . S
C1834 C1828 1.368 . S
C1834 C1833 1.523 . S
C1835 C1819 1.429 . S
C1835 C1831 1.429 . S
C1835 C1836 1.523 1_545 S
C1836 C1820 1.368 . S
C1836 C1832 1.368 . S
C1836 C1835 1.523 1_565 S
H1837 C1812 0.950 . S
H1838 C1814 0.950 . S
H1839 C1815 0.949 . S
H1840 C1817 0.950 . S
H1841 C1819 0.950 . S
C1842 C1843 1.349 . S
C1842 C1844 1.327 . S
C1842 H1867 0.950 . S
C1843 C1842 1.349 . S
C1843 C1859 1.349 . S
C1844 C1842 1.327 . S
C1844 C1863 1.429 . S
C1844 H1868 0.950 . S
C1845 C1862 1.574 . S
C1845 C1864 1.358 1_655 S
C1845 H1869 0.949 . S
H1846 C1850 0.949 . S
C1847 C1848 1.349 . S
C1847 C1849 1.327 . S
C1847 H1870 0.950 . S
C1848 C1847 1.349 . S
C1848 C1860 1.349 . S
C1849 C1847 1.327 . S
C1849 C1865 1.429 . S
C1849 H1871 0.950 . S
C1850 H1846 0.949 . S
C1850 C1858 1.574 1_655 S
C1850 C1866 1.368 . S
H1851 C1859 0.950 . S
H1852 C1857 0.950 . S
H1853 C1858 0.949 . S
H1854 C1860 0.950 . S
H1855 C1861 0.950 . S
H1856 C1862 0.949 . S
C1857 H1852 0.950 . S
C1857 C1859 1.327 . S
C1857 C1863 1.429 . S
C1858 C1850 1.574 1_455 S
C1858 H1853 0.949 . S
C1858 C1864 1.370 . S
C1859 C1843 1.349 . S
C1859 H1851 0.950 . S
C1859 C1857 1.327 . S
C1860 C1848 1.349 . S
C1860 H1854 0.950 . S
C1860 C1861 1.327 . S
C1861 H1855 0.950 . S
C1861 C1860 1.327 . S
C1861 C1865 1.429 . S
C1862 C1845 1.574 . S
C1862 H1856 0.949 . S
C1862 C1866 1.368 . S
C1863 C1844 1.429 . S
C1863 C1857 1.429 . S
C1863 C1864 1.534 . S
C1864 C1845 1.358 1_455 S
C1864 C1858 1.370 . S
C1864 C1863 1.534 . S
C1865 C1849 1.429 . S
C1865 C1861 1.429 . S
C1865 C1866 1.523 . S
C1866 C1850 1.368 . S
C1866 C1862 1.368 . S
C1866 C1865 1.523 . S
H1867 C1842 0.950 . S
H1868 C1844 0.950 . S
H1869 C1845 0.949 . S
H1870 C1847 0.950 . S
H1871 C1849 0.950 . S
C1872 C1873 1.349 . S
C1872 C1874 1.327 . S
C1872 H1897 0.950 . S
C1873 C1872 1.349 . S
C1873 C1889 1.349 . S
C1874 C1872 1.327 . S
C1874 C1893 1.429 . S
C1874 H1898 0.950 . S
C1875 C1892 1.574 . S
C1875 C1894 1.368 . S
C1875 H1899 0.949 . S
H1876 C1880 0.949 . S
C1877 C1878 1.349 . S
C1877 C1879 1.327 . S
C1877 H1900 0.950 . S
C1878 C1877 1.349 . S
C1878 C1890 1.349 . S
C1879 C1877 1.327 . S
C1879 C1895 1.429 . S
C1879 H1901 0.950 . S
C1880 H1876 0.949 . S
C1880 C1888 1.574 1_554 S
C1880 C1896 1.380 . S
H1881 C1889 0.950 . S
H1882 C1887 0.950 . S
H1883 C1888 0.949 . S
H1884 C1890 0.950 . S
H1885 C1891 0.950 . S
H1886 C1892 0.949 . S
C1887 H1882 0.950 . S
C1887 C1889 1.327 . S
C1887 C1893 1.429 . S
C1888 C1880 1.574 1_556 S
C1888 H1883 0.949 . S
C1888 C1894 1.368 . S
C1889 C1873 1.349 . S
C1889 H1881 0.950 . S
C1889 C1887 1.327 . S
C1890 C1878 1.349 . S
C1890 H1884 0.950 . S
C1890 C1891 1.327 . S
C1891 H1885 0.950 . S
C1891 C1890 1.327 . S
C1891 C1895 1.429 . S
C1892 C1875 1.574 . S
C1892 H1886 0.949 . S
C1892 C1896 1.335 1_556 S
C1893 C1874 1.429 . S
C1893 C1887 1.429 . S
C1893 C1894 1.523 . S
C1894 C1875 1.368 . S
C1894 C1888 1.368 . S
C1894 C1893 1.523 . S
C1895 C1879 1.429 . S
C1895 C1891 1.429 . S
C1895 C1896 1.552 . S
C1896 C1880 1.380 . S
C1896 C1892 1.335 1_554 S
C1896 C1895 1.552 . S
H1897 C1872 0.950 . S
H1898 C1874 0.950 . S
H1899 C1875 0.949 . S
H1900 C1877 0.950 . S
H1901 C1879 0.950 . S
C1902 C1903 1.349 . S
C1902 C1904 1.327 . S
C1902 H1927 0.950 . S
C1903 C1902 1.349 . S
C1903 C1919 1.349 . S
C1904 C1902 1.327 . S
C1904 C1923 1.429 . S
C1904 H1928 0.950 . S
C1905 C1922 1.574 . S
C1905 C1924 1.368 . S
C1905 H1929 0.949 . S
H1906 C1910 0.949 . S
C1907 C1908 1.349 . S
C1907 C1909 1.327 . S
C1907 H1930 0.950 . S
C1908 C1907 1.349 . S
C1908 C1920 1.349 . S
C1909 C1907 1.327 . S
C1909 C1925 1.429 . S
C1909 H1931 0.950 1_556 S
C1910 H1906 0.949 . S
C1910 C1918 1.574 1_556 S
C1910 C1926 1.385 . S
H1911 C1919 0.950 . S
H1912 C1917 0.950 . S
H1913 C1918 0.949 . S
H1914 C1920 0.950 . S
H1915 C1921 0.950 . S
H1916 C1922 0.949 . S
C1917 H1912 0.950 . S
C1917 C1919 1.327 . S
C1917 C1923 1.429 . S
C1918 C1910 1.574 1_554 S
C1918 H1913 0.949 . S
C1918 C1924 1.368 . S
C1919 C1903 1.349 . S
C1919 H1911 0.950 . S
C1919 C1917 1.327 . S
C1920 C1908 1.349 . S
C1920 H1914 0.950 . S
C1920 C1921 1.327 . S
C1921 H1915 0.950 . S
C1921 C1920 1.327 . S
C1921 C1925 1.429 . S
C1922 C1905 1.574 . S
C1922 H1916 0.949 . S
C1922 C1926 1.330 1_554 S
C1923 C1904 1.429 . S
C1923 C1917 1.429 . S
C1923 C1924 1.523 . S
C1924 C1905 1.368 . S
C1924 C1918 1.368 . S
C1924 C1923 1.523 . S
C1925 C1909 1.429 . S
C1925 C1921 1.429 . S
C1925 C1926 1.552 . S
C1926 C1910 1.385 . S
C1926 C1922 1.330 1_556 S
C1926 C1925 1.552 . S
H1927 C1902 0.950 . S
H1928 C1904 0.950 . S
H1929 C1905 0.949 . S
H1930 C1907 0.950 . S
H1931 C1909 0.950 1_554 S
C1932 C1933 1.349 . S
C1932 C1934 1.327 . S
C1932 H1957 0.950 . S
C1933 C1932 1.349 . S
C1933 C1949 1.349 . S
C1934 C1932 1.327 . S
C1934 C1953 1.429 . S
C1934 H1958 0.950 . S
C1935 C1952 1.574 . S
C1935 C1954 1.368 . S
C1935 H1959 0.949 . S
H1936 C1940 0.949 . S
C1937 C1938 1.349 . S
C1937 C1939 1.327 . S
C1937 H1960 0.950 . S
C1938 C1937 1.349 . S
C1938 C1950 1.349 . S
C1939 C1937 1.327 . S
C1939 C1955 1.429 . S
C1939 H1961 0.950 1_554 S
C1940 H1936 0.949 . S
C1940 C1948 1.574 1_554 S
C1940 C1956 1.368 1_554 S
H1941 C1949 0.950 . S
H1942 C1947 0.950 . S
H1943 C1948 0.949 . S
H1944 C1950 0.950 . S
H1945 C1951 0.950 . S
H1946 C1952 0.949 . S
C1947 H1942 0.950 . S
C1947 C1949 1.327 . S
C1947 C1953 1.429 . S
C1948 C1940 1.574 1_556 S
C1948 H1943 0.949 . S
C1948 C1954 1.368 . S
C1949 C1933 1.349 . S
C1949 H1941 0.950 . S
C1949 C1947 1.327 . S
C1950 C1938 1.349 . S
C1950 H1944 0.950 . S
C1950 C1951 1.327 . S
C1951 H1945 0.950 . S
C1951 C1950 1.327 . S
C1951 C1955 1.429 . S
C1952 C1935 1.574 . S
C1952 H1946 0.949 . S
C1952 C1956 1.368 . S
C1953 C1934 1.429 . S
C1953 C1947 1.429 . S
C1953 C1954 1.523 . S
C1954 C1935 1.368 . S
C1954 C1948 1.368 . S
C1954 C1953 1.523 . S
C1955 C1939 1.429 . S
C1955 C1951 1.429 . S
C1955 C1956 1.523 1_554 S
C1956 C1940 1.368 1_556 S
C1956 C1952 1.368 . S
C1956 C1955 1.523 1_556 S
H1957 C1932 0.950 . S
H1958 C1934 0.950 . S
H1959 C1935 0.949 . S
H1960 C1937 0.950 . S
H1961 C1939 0.950 1_556 S
C1962 C1963 1.349 . S
C1962 C1964 1.327 . S
C1962 H1987 0.950 . S
C1963 C1962 1.349 . S
C1963 C1979 1.349 . S
C1964 C1962 1.327 . S
C1964 C1983 1.429 . S
C1964 H1988 0.950 . S
C1965 C1982 1.574 . S
C1965 C1984 1.368 . S
C1965 H1989 0.949 . S
H1966 C1970 0.949 . S
C1967 C1968 1.349 . S
C1967 C1969 1.327 . S
C1967 H1990 0.950 . S
C1968 C1967 1.349 . S
C1968 C1980 1.349 . S
C1969 C1967 1.327 . S
C1969 C1985 1.429 . S
C1969 H1991 0.950 . S
C1970 H1966 0.949 . S
C1970 C1978 1.574 . S
C1970 C1986 1.368 . S
H1971 C1979 0.950 . S
H1972 C1977 0.950 . S
H1973 C1978 0.949 . S
H1974 C1980 0.950 . S
H1975 C1981 0.950 . S
H1976 C1982 0.949 . S
C1977 H1972 0.950 . S
C1977 C1979 1.327 . S
C1977 C1983 1.429 . S
C1978 C1970 1.574 . S
C1978 H1973 0.949 . S
C1978 C1984 1.368 . S
C1979 C1963 1.349 . S
C1979 H1971 0.950 . S
C1979 C1977 1.327 . S
C1980 C1968 1.349 . S
C1980 H1974 0.950 . S
C1980 C1981 1.327 . S
C1981 H1975 0.950 . S
C1981 C1980 1.327 . S
C1981 C1985 1.429 . S
C1982 C1965 1.574 . S
C1982 H1976 0.949 . S
C1982 C1986 1.368 . S
C1983 C1964 1.429 . S
C1983 C1977 1.429 . S
C1983 C1984 1.523 . S
C1984 C1965 1.368 . S
C1984 C1978 1.368 . S
C1984 C1983 1.523 . S
C1985 C1969 1.429 . S
C1985 C1981 1.429 . S
C1985 C1986 1.523 1_556 S
C1986 C1970 1.368 . S
C1986 C1982 1.368 . S
C1986 C1985 1.523 1_554 S
H1987 C1962 0.950 . S
H1988 C1964 0.950 . S
H1989 C1965 0.949 . S
H1990 C1967 0.950 . S
H1991 C1969 0.950 . S
C1992 C1993 1.349 . S
C1992 C1994 1.327 . S
C1992 H2017 0.950 . S
C1993 C1992 1.349 . S
C1993 C2009 1.349 . S
C1994 C1992 1.327 . S
C1994 C2013 1.429 . S
C1994 H2018 0.950 . S
C1995 C2012 1.574 . S
C1995 C2014 1.368 . S
C1995 H2019 0.949 . S
H1996 C2000 0.949 . S
C1997 C1998 1.349 . S
C1997 C1999 1.327 . S
C1997 H2020 0.950 . S
C1998 C1997 1.349 . S
C1998 C2010 1.349 . S
C1999 C1997 1.327 . S
C1999 C2015 1.429 . S
C1999 H2021 0.950 . S
C2000 H1996 0.949 . S
C2000 C2008 1.574 . S
C2000 C2016 1.368 . S
H2001 C2009 0.950 . S
H2002 C2007 0.950 . S
H2003 C2008 0.949 . S
H2004 C2010 0.950 . S
H2005 C2011 0.950 . S
H2006 C2012 0.949 . S
C2007 H2002 0.950 . S
C2007 C2009 1.327 . S
C2007 C2013 1.429 . S
C2008 C2000 1.574 . S
C2008 H2003 0.949 . S
C2008 C2014 1.368 . S
C2009 C1993 1.349 . S
C2009 H2001 0.950 . S
C2009 C2007 1.327 . S
C2010 C1998 1.349 . S
C2010 H2004 0.950 . S
C2010 C2011 1.327 . S
C2011 H2005 0.950 . S
C2011 C2010 1.327 . S
C2011 C2015 1.429 . S
C2012 C1995 1.574 . S
C2012 H2006 0.949 . S
C2012 C2016 1.368 . S
C2013 C1994 1.429 . S
C2013 C2007 1.429 . S
C2013 C2014 1.523 . S
C2014 C1995 1.368 . S
C2014 C2008 1.368 . S
C2014 C2013 1.523 . S
C2015 C1999 1.429 . S
C2015 C2011 1.429 . S
C2015 C2016 1.523 . S
C2016 C2000 1.368 . S
C2016 C2012 1.368 . S
C2016 C2015 1.523 . S
H2017 C1992 0.950 . S
H2018 C1994 0.950 . S
H2019 C1995 0.949 . S
H2020 C1997 0.950 . S
H2021 C1999 0.950 . S
C2022 C2023 1.349 . S
C2022 C2024 1.327 . S
C2022 H2047 0.950 . S
C2023 C2022 1.349 . S
C2023 C2039 1.349 . S
C2024 C2022 1.327 . S
C2024 C2043 1.429 . S
C2024 H2048 0.950 . S
C2025 C2042 1.574 . S
C2025 C2044 1.368 . S
C2025 H2049 0.949 . S
H2026 C2030 0.949 . S
C2027 C2028 1.349 . S
C2027 C2029 1.327 . S
C2027 H2050 0.950 . S
C2028 C2027 1.349 . S
C2028 C2040 1.349 . S
C2029 C2027 1.327 . S
C2029 C2045 1.429 . S
C2029 H2051 0.950 . S
C2030 H2026 0.949 . S
C2030 C2038 1.574 . S
C2030 C2046 1.368 . S
H2031 C2039 0.950 . S
H2032 C2037 0.950 . S
H2033 C2038 0.949 . S
H2034 C2040 0.950 . S
H2035 C2041 0.950 . S
H2036 C2042 0.949 . S
C2037 H2032 0.950 . S
C2037 C2039 1.327 . S
C2037 C2043 1.429 . S
C2038 C2030 1.574 . S
C2038 H2033 0.949 . S
C2038 C2044 1.368 . S
C2039 C2023 1.349 . S
C2039 H2031 0.950 . S
C2039 C2037 1.327 . S
C2040 C2028 1.349 . S
C2040 H2034 0.950 . S
C2040 C2041 1.327 . S
C2041 H2035 0.950 . S
C2041 C2040 1.327 . S
C2041 C2045 1.429 . S
C2042 C2025 1.574 . S
C2042 H2036 0.949 . S
C2042 C2046 1.368 . S
C2043 C2024 1.429 . S
C2043 C2037 1.429 . S
C2043 C2044 1.523 . S
C2044 C2025 1.368 . S
C2044 C2038 1.368 . S
C2044 C2043 1.523 . S
C2045 C2029 1.429 . S
C2045 C2041 1.429 . S
C2045 C2046 1.523 . S
C2046 C2030 1.368 . S
C2046 C2042 1.368 . S
C2046 C2045 1.523 . S
H2047 C2022 0.950 . S
H2048 C2024 0.950 . S
H2049 C2025 0.949 . S
H2050 C2027 0.950 . S
H2051 C2029 0.950 . S
C2052 C2053 1.349 . S
C2052 C2054 1.327 . S
C2052 H2077 0.950 . S
C2053 C2052 1.349 . S
C2053 C2069 1.349 . S
C2054 C2052 1.327 . S
C2054 C2073 1.429 . S
C2054 H2078 0.950 . S
C2055 C2072 1.574 . S
C2055 C2074 1.368 . S
C2055 H2079 0.949 . S
H2056 C2060 0.949 . S
C2057 C2058 1.349 . S
C2057 C2059 1.327 . S
C2057 H2080 0.950 . S
C2058 C2057 1.349 . S
C2058 C2070 1.349 . S
C2059 C2057 1.327 . S
C2059 C2075 1.429 . S
C2059 H2081 0.950 . S
C2060 H2056 0.949 . S
C2060 C2068 1.574 . S
C2060 C2076 1.368 . S
H2061 C2069 0.950 . S
H2062 C2067 0.950 . S
H2063 C2068 0.949 . S
H2064 C2070 0.950 . S
H2065 C2071 0.950 . S
H2066 C2072 0.949 . S
C2067 H2062 0.950 . S
C2067 C2069 1.327 . S
C2067 C2073 1.429 . S
C2068 C2060 1.574 . S
C2068 H2063 0.949 . S
C2068 C2074 1.368 . S
C2069 C2053 1.349 . S
C2069 H2061 0.950 . S
C2069 C2067 1.327 . S
C2070 C2058 1.349 . S
C2070 H2064 0.950 . S
C2070 C2071 1.327 . S
C2071 H2065 0.950 . S
C2071 C2070 1.327 . S
C2071 C2075 1.429 . S
C2072 C2055 1.574 . S
C2072 H2066 0.949 . S
C2072 C2076 1.368 . S
C2073 C2054 1.429 . S
C2073 C2067 1.429 . S
C2073 C2074 1.523 . S
C2074 C2055 1.368 . S
C2074 C2068 1.368 . S
C2074 C2073 1.523 . S
C2075 C2059 1.429 . S
C2075 C2071 1.429 . S
C2075 C2076 1.523 . S
C2076 C2060 1.368 . S
C2076 C2072 1.368 . S
C2076 C2075 1.523 . S
H2077 C2052 0.950 . S
H2078 C2054 0.950 . S
H2079 C2055 0.949 . S
H2080 C2057 0.950 . S
H2081 C2059 0.950 . S
C2082 C2083 1.349 . S
C2082 C2084 1.327 . S
C2082 H2107 0.950 . S
C2083 C2082 1.349 . S
C2083 C2099 1.349 . S
C2084 C2082 1.327 . S
C2084 C2103 1.429 . S
C2084 H2108 0.950 . S
C2085 C2102 1.574 . S
C2085 C2104 1.368 . S
C2085 H2109 0.949 . S
H2086 C2090 0.949 . S
C2087 C2088 1.349 . S
C2087 C2089 1.327 . S
C2087 H2110 0.950 . S
C2088 C2087 1.349 . S
C2088 C2100 1.349 . S
C2089 C2087 1.327 . S
C2089 C2105 1.429 . S
C2089 H2111 0.950 . S
C2090 H2086 0.949 . S
C2090 C2098 1.574 . S
C2090 C2106 1.368 . S
H2091 C2099 0.950 . S
H2092 C2097 0.950 . S
H2093 C2098 0.949 . S
H2094 C2100 0.950 . S
H2095 C2101 0.950 . S
H2096 C2102 0.949 . S
C2097 H2092 0.950 . S
C2097 C2099 1.327 . S
C2097 C2103 1.429 . S
C2098 C2090 1.574 . S
C2098 H2093 0.949 . S
C2098 C2104 1.368 . S
C2099 C2083 1.349 . S
C2099 H2091 0.950 . S
C2099 C2097 1.327 . S
C2100 C2088 1.349 . S
C2100 H2094 0.950 . S
C2100 C2101 1.327 . S
C2101 H2095 0.950 . S
C2101 C2100 1.327 . S
C2101 C2105 1.429 . S
C2102 C2085 1.574 . S
C2102 H2096 0.949 . S
C2102 C2106 1.368 . S
C2103 C2084 1.429 . S
C2103 C2097 1.429 . S
C2103 C2104 1.523 . S
C2104 C2085 1.368 . S
C2104 C2098 1.368 . S
C2104 C2103 1.523 . S
C2105 C2089 1.429 . S
C2105 C2101 1.429 . S
C2105 C2106 1.523 . S
C2106 C2090 1.368 . S
C2106 C2102 1.368 . S
C2106 C2105 1.523 . S
H2107 C2082 0.950 . S
H2108 C2084 0.950 . S
H2109 C2085 0.949 . S
H2110 C2087 0.950 . S
H2111 C2089 0.950 . S
C2112 C2113 1.349 . S
C2112 C2114 1.327 . S
C2112 H2137 0.950 . S
C2113 C2112 1.349 . S
C2113 C2129 1.349 . S
C2114 C2112 1.327 . S
C2114 C2133 1.429 . S
C2114 H2138 0.950 . S
C2115 C2132 1.574 . S
C2115 C2134 1.368 . S
C2115 H2139 0.949 . S
H2116 C2120 0.949 . S
C2117 C2118 1.349 . S
C2117 C2119 1.327 . S
C2117 H2140 0.950 . S
C2118 C2117 1.349 . S
C2118 C2130 1.349 . S
C2119 C2117 1.327 . S
C2119 C2135 1.429 . S
C2119 H2141 0.950 . S
C2120 H2116 0.949 . S
C2120 C2128 1.574 . S
C2120 C2136 1.368 . S
H2121 C2129 0.950 . S
H2122 C2127 0.950 . S
H2123 C2128 0.949 . S
H2124 C2130 0.950 . S
H2125 C2131 0.950 . S
H2126 C2132 0.949 . S
C2127 H2122 0.950 . S
C2127 C2129 1.327 . S
C2127 C2133 1.429 . S
C2128 C2120 1.574 . S
C2128 H2123 0.949 . S
C2128 C2134 1.368 . S
C2129 C2113 1.349 . S
C2129 H2121 0.950 . S
C2129 C2127 1.327 . S
C2130 C2118 1.349 . S
C2130 H2124 0.950 . S
C2130 C2131 1.327 . S
C2131 H2125 0.950 . S
C2131 C2130 1.327 . S
C2131 C2135 1.429 . S
C2132 C2115 1.574 . S
C2132 H2126 0.949 . S
C2132 C2136 1.368 . S
C2133 C2114 1.429 . S
C2133 C2127 1.429 . S
C2133 C2134 1.523 . S
C2134 C2115 1.368 . S
C2134 C2128 1.368 . S
C2134 C2133 1.523 . S
C2135 C2119 1.429 . S
C2135 C2131 1.429 . S
C2135 C2136 1.523 . S
C2136 C2120 1.368 . S
C2136 C2132 1.368 . S
C2136 C2135 1.523 . S
H2137 C2112 0.950 . S
H2138 C2114 0.950 . S
H2139 C2115 0.949 . S
H2140 C2117 0.950 . S
H2141 C2119 0.950 . S
C2142 C2143 1.349 . S
C2142 C2144 1.327 . S
C2142 H2167 0.950 . S
C2143 C2142 1.349 . S
C2143 C2159 1.349 . S
C2144 C2142 1.327 . S
C2144 C2163 1.429 . S
C2144 H2168 0.950 . S
C2145 C2162 1.574 . S
C2145 C2164 1.368 . S
C2145 H2169 0.949 . S
H2146 C2150 0.949 . S
C2147 C2148 1.349 . S
C2147 C2149 1.327 . S
C2147 H2170 0.950 . S
C2148 C2147 1.349 . S
C2148 C2160 1.349 . S
C2149 C2147 1.327 . S
C2149 C2165 1.429 . S
C2149 H2171 0.950 . S
C2150 H2146 0.949 . S
C2150 C2158 1.574 . S
C2150 C2166 1.368 . S
H2151 C2159 0.950 . S
H2152 C2157 0.950 . S
H2153 C2158 0.949 . S
H2154 C2160 0.950 . S
H2155 C2161 0.950 . S
H2156 C2162 0.949 . S
C2157 H2152 0.950 . S
C2157 C2159 1.327 . S
C2157 C2163 1.429 . S
C2158 C2150 1.574 . S
C2158 H2153 0.949 . S
C2158 C2164 1.368 . S
C2159 C2143 1.349 . S
C2159 H2151 0.950 . S
C2159 C2157 1.327 . S
C2160 C2148 1.349 . S
C2160 H2154 0.950 . S
C2160 C2161 1.327 . S
C2161 H2155 0.950 . S
C2161 C2160 1.327 . S
C2161 C2165 1.429 . S
C2162 C2145 1.574 . S
C2162 H2156 0.949 . S
C2162 C2166 1.368 . S
C2163 C2144 1.429 . S
C2163 C2157 1.429 . S
C2163 C2164 1.523 . S
C2164 C2145 1.368 . S
C2164 C2158 1.368 . S
C2164 C2163 1.523 . S
C2165 C2149 1.429 . S
C2165 C2161 1.429 . S
C2165 C2166 1.523 . S
C2166 C2150 1.368 . S
C2166 C2162 1.368 . S
C2166 C2165 1.523 . S
H2167 C2142 0.950 . S
H2168 C2144 0.950 . S
H2169 C2145 0.949 . S
H2170 C2147 0.950 . S
H2171 C2149 0.950 . S
C2172 C2173 1.349 . S
C2172 C2174 1.327 . S
C2172 H2197 0.950 . S
C2173 C2172 1.349 . S
C2173 C2189 1.349 . S
C2174 C2172 1.327 . S
C2174 C2193 1.429 . S
C2174 H2198 0.950 . S
C2175 C2192 1.574 . S
C2175 C2194 1.368 . S
C2175 H2199 0.949 . S
H2176 C2180 0.949 . S
C2177 C2178 1.349 . S
C2177 C2179 1.327 . S
C2177 H2200 0.950 . S
C2178 C2177 1.349 . S
C2178 C2190 1.349 . S
C2179 C2177 1.327 . S
C2179 C2195 1.429 . S
C2179 H2201 0.950 . S
C2180 H2176 0.949 . S
C2180 C2188 1.574 . S
C2180 C2196 1.368 . S
H2181 C2189 0.950 . S
H2182 C2187 0.950 . S
H2183 C2188 0.949 . S
H2184 C2190 0.950 . S
H2185 C2191 0.950 . S
H2186 C2192 0.949 . S
C2187 H2182 0.950 . S
C2187 C2189 1.327 . S
C2187 C2193 1.429 . S
C2188 C2180 1.574 . S
C2188 H2183 0.949 . S
C2188 C2194 1.368 . S
C2189 C2173 1.349 . S
C2189 H2181 0.950 . S
C2189 C2187 1.327 . S
C2190 C2178 1.349 . S
C2190 H2184 0.950 . S
C2190 C2191 1.327 . S
C2191 H2185 0.950 . S
C2191 C2190 1.327 . S
C2191 C2195 1.429 . S
C2192 C2175 1.574 . S
C2192 H2186 0.949 . S
C2192 C2196 1.368 . S
C2193 C2174 1.429 . S
C2193 C2187 1.429 . S
C2193 C2194 1.523 . S
C2194 C2175 1.368 . S
C2194 C2188 1.368 . S
C2194 C2193 1.523 . S
C2195 C2179 1.429 . S
C2195 C2191 1.429 . S
C2195 C2196 1.523 . S
C2196 C2180 1.368 . S
C2196 C2192 1.368 . S
C2196 C2195 1.523 . S
H2197 C2172 0.950 . S
H2198 C2174 0.950 . S
H2199 C2175 0.949 . S
H2200 C2177 0.950 . S
H2201 C2179 0.950 . S
C2202 C2203 1.349 . S
C2202 C2204 1.327 . S
C2202 H2227 0.950 . S
C2203 C2202 1.349 . S
C2203 C2219 1.349 . S
C2204 C2202 1.327 . S
C2204 C2223 1.429 . S
C2204 H2228 0.950 . S
C2205 C2222 1.574 . S
C2205 C2224 1.368 . S
C2205 H2229 0.949 . S
H2206 C2210 0.949 . S
C2207 C2208 1.349 . S
C2207 C2209 1.327 . S
C2207 H2230 0.950 . S
C2208 C2207 1.349 . S
C2208 C2220 1.349 . S
C2209 C2207 1.327 . S
C2209 C2225 1.429 . S
C2209 H2231 0.950 . S
C2210 H2206 0.949 . S
C2210 C2218 1.574 . S
C2210 C2226 1.368 . S
H2211 C2219 0.950 . S
H2212 C2217 0.950 . S
H2213 C2218 0.949 . S
H2214 C2220 0.950 . S
H2215 C2221 0.950 . S
H2216 C2222 0.949 . S
C2217 H2212 0.950 . S
C2217 C2219 1.327 . S
C2217 C2223 1.429 . S
C2218 C2210 1.574 . S
C2218 H2213 0.949 . S
C2218 C2224 1.368 . S
C2219 C2203 1.349 . S
C2219 H2211 0.950 . S
C2219 C2217 1.327 . S
C2220 C2208 1.349 . S
C2220 H2214 0.950 . S
C2220 C2221 1.327 . S
C2221 H2215 0.950 . S
C2221 C2220 1.327 . S
C2221 C2225 1.429 . S
C2222 C2205 1.574 . S
C2222 H2216 0.949 . S
C2222 C2226 1.368 . S
C2223 C2204 1.429 . S
C2223 C2217 1.429 . S
C2223 C2224 1.523 . S
C2224 C2205 1.368 . S
C2224 C2218 1.368 . S
C2224 C2223 1.523 . S
C2225 C2209 1.429 . S
C2225 C2221 1.429 . S
C2225 C2226 1.523 . S
C2226 C2210 1.368 . S
C2226 C2222 1.368 . S
C2226 C2225 1.523 . S
H2227 C2202 0.950 . S
H2228 C2204 0.950 . S
H2229 C2205 0.949 . S
H2230 C2207 0.950 . S
H2231 C2209 0.950 . S
C2232 C2233 1.349 . S
C2232 C2234 1.327 . S
C2232 H2257 0.950 . S
C2233 C2232 1.349 . S
C2233 C2249 1.349 . S
C2234 C2232 1.327 . S
C2234 C2253 1.429 . S
C2234 H2258 0.950 . S
C2235 C2252 1.574 . S
C2235 C2254 1.368 . S
C2235 H2259 0.949 . S
H2236 C2240 0.949 . S
C2237 C2238 1.349 . S
C2237 C2239 1.327 . S
C2237 H2260 0.950 . S
C2238 C2237 1.349 . S
C2238 C2250 1.349 . S
C2239 C2237 1.327 . S
C2239 C2255 1.429 . S
C2239 H2261 0.950 . S
C2240 H2236 0.949 . S
C2240 C2248 1.574 . S
C2240 C2256 1.368 . S
H2241 C2249 0.950 . S
H2242 C2247 0.950 . S
H2243 C2248 0.949 . S
H2244 C2250 0.950 . S
H2245 C2251 0.950 . S
H2246 C2252 0.949 . S
C2247 H2242 0.950 . S
C2247 C2249 1.327 . S
C2247 C2253 1.429 . S
C2248 C2240 1.574 . S
C2248 H2243 0.949 . S
C2248 C2254 1.368 . S
C2249 C2233 1.349 . S
C2249 H2241 0.950 . S
C2249 C2247 1.327 . S
C2250 C2238 1.349 . S
C2250 H2244 0.950 . S
C2250 C2251 1.327 . S
C2251 H2245 0.950 . S
C2251 C2250 1.327 . S
C2251 C2255 1.429 . S
C2252 C2235 1.574 . S
C2252 H2246 0.949 . S
C2252 C2256 1.368 . S
C2253 C2234 1.429 . S
C2253 C2247 1.429 . S
C2253 C2254 1.523 . S
C2254 C2235 1.368 . S
C2254 C2248 1.368 . S
C2254 C2253 1.523 . S
C2255 C2239 1.429 . S
C2255 C2251 1.429 . S
C2255 C2256 1.523 . S
C2256 C2240 1.368 . S
C2256 C2252 1.368 . S
C2256 C2255 1.523 . S
H2257 C2232 0.950 . S
H2258 C2234 0.950 . S
H2259 C2235 0.949 . S
H2260 C2237 0.950 . S
H2261 C2239 0.950 . S
C2262 C2263 1.349 . S
C2262 C2264 1.327 . S
C2262 H2287 0.950 . S
C2263 C2262 1.349 . S
C2263 C2279 1.349 . S
C2264 C2262 1.327 . S
C2264 C2283 1.429 . S
C2264 H2288 0.950 . S
C2265 C2282 1.574 . S
C2265 C2284 1.368 . S
C2265 H2289 0.949 . S
H2266 C2270 0.949 . S
C2267 C2268 1.349 . S
C2267 C2269 1.327 . S
C2267 H2290 0.950 . S
C2268 C2267 1.349 . S
C2268 C2280 1.349 . S
C2269 C2267 1.327 . S
C2269 C2285 1.429 . S
C2269 H2291 0.950 . S
C2270 H2266 0.949 . S
C2270 C2278 1.574 . S
C2270 C2286 1.368 . S
H2271 C2279 0.950 . S
H2272 C2277 0.950 . S
H2273 C2278 0.949 . S
H2274 C2280 0.950 . S
H2275 C2281 0.950 . S
H2276 C2282 0.949 . S
C2277 H2272 0.950 . S
C2277 C2279 1.327 . S
C2277 C2283 1.429 . S
C2278 C2270 1.574 . S
C2278 H2273 0.949 . S
C2278 C2284 1.368 . S
C2279 C2263 1.349 . S
C2279 H2271 0.950 . S
C2279 C2277 1.327 . S
C2280 C2268 1.349 . S
C2280 H2274 0.950 . S
C2280 C2281 1.327 . S
C2281 H2275 0.950 . S
C2281 C2280 1.327 . S
C2281 C2285 1.429 . S
C2282 C2265 1.574 . S
C2282 H2276 0.949 . S
C2282 C2286 1.368 . S
C2283 C2264 1.429 . S
C2283 C2277 1.429 . S
C2283 C2284 1.523 . S
C2284 C2265 1.368 . S
C2284 C2278 1.368 . S
C2284 C2283 1.523 . S
C2285 C2269 1.429 . S
C2285 C2281 1.429 . S
C2285 C2286 1.523 . S
C2286 C2270 1.368 . S
C2286 C2282 1.368 . S
C2286 C2285 1.523 . S
H2287 C2262 0.950 . S
H2288 C2264 0.950 . S
H2289 C2265 0.949 . S
H2290 C2267 0.950 . S
H2291 C2269 0.950 . S
C2292 C2293 1.349 . S
C2292 C2294 1.327 . S
C2292 H2317 0.950 . S
C2293 C2292 1.349 . S
C2293 C2309 1.349 . S
C2294 C2292 1.327 . S
C2294 C2313 1.429 . S
C2294 H2318 0.950 . S
C2295 C2312 1.574 . S
C2295 C2314 1.368 . S
C2295 H2319 0.949 . S
H2296 C2300 0.949 . S
C2297 C2298 1.349 . S
C2297 C2299 1.327 . S
C2297 H2320 0.950 . S
C2298 C2297 1.349 . S
C2298 C2310 1.349 . S
C2299 C2297 1.327 . S
C2299 C2315 1.429 . S
C2299 H2321 0.950 . S
C2300 H2296 0.949 . S
C2300 C2308 1.574 . S
C2300 C2316 1.368 . S
H2301 C2309 0.950 . S
H2302 C2307 0.950 . S
H2303 C2308 0.949 . S
H2304 C2310 0.950 . S
H2305 C2311 0.950 . S
H2306 C2312 0.949 . S
C2307 H2302 0.950 . S
C2307 C2309 1.327 . S
C2307 C2313 1.429 . S
C2308 C2300 1.574 . S
C2308 H2303 0.949 . S
C2308 C2314 1.368 . S
C2309 C2293 1.349 . S
C2309 H2301 0.950 . S
C2309 C2307 1.327 . S
C2310 C2298 1.349 . S
C2310 H2304 0.950 . S
C2310 C2311 1.327 . S
C2311 H2305 0.950 . S
C2311 C2310 1.327 . S
C2311 C2315 1.429 . S
C2312 C2295 1.574 . S
C2312 H2306 0.949 . S
C2312 C2316 1.368 . S
C2313 C2294 1.429 . S
C2313 C2307 1.429 . S
C2313 C2314 1.523 . S
C2314 C2295 1.368 . S
C2314 C2308 1.368 . S
C2314 C2313 1.523 . S
C2315 C2299 1.429 . S
C2315 C2311 1.429 . S
C2315 C2316 1.523 . S
C2316 C2300 1.368 . S
C2316 C2312 1.368 . S
C2316 C2315 1.523 . S
H2317 C2292 0.950 . S
H2318 C2294 0.950 . S
H2319 C2295 0.949 . S
H2320 C2297 0.950 . S
H2321 C2299 0.950 . S
C2322 C2323 1.349 . S
C2322 C2324 1.327 . S
C2322 H2347 0.950 . S
C2323 C2322 1.349 . S
C2323 C2339 1.349 . S
C2324 C2322 1.327 . S
C2324 C2343 1.429 . S
C2324 H2348 0.950 . S
C2325 C2342 1.574 . S
C2325 C2344 1.368 . S
C2325 H2349 0.949 . S
H2326 C2330 0.949 . S
C2327 C2328 1.349 . S
C2327 C2329 1.327 . S
C2327 H2350 0.950 . S
C2328 C2327 1.349 . S
C2328 C2340 1.349 . S
C2329 C2327 1.327 . S
C2329 C2345 1.429 . S
C2329 H2351 0.950 . S
C2330 H2326 0.949 . S
C2330 C2338 1.574 . S
C2330 C2346 1.368 . S
H2331 C2339 0.950 . S
H2332 C2337 0.950 . S
H2333 C2338 0.949 . S
H2334 C2340 0.950 . S
H2335 C2341 0.950 . S
H2336 C2342 0.949 . S
C2337 H2332 0.950 . S
C2337 C2339 1.327 . S
C2337 C2343 1.429 . S
C2338 C2330 1.574 . S
C2338 H2333 0.949 . S
C2338 C2344 1.368 . S
C2339 C2323 1.349 . S
C2339 H2331 0.950 . S
C2339 C2337 1.327 . S
C2340 C2328 1.349 . S
C2340 H2334 0.950 . S
C2340 C2341 1.327 . S
C2341 H2335 0.950 . S
C2341 C2340 1.327 . S
C2341 C2345 1.429 . S
C2342 C2325 1.574 . S
C2342 H2336 0.949 . S
C2342 C2346 1.368 . S
C2343 C2324 1.429 . S
C2343 C2337 1.429 . S
C2343 C2344 1.523 . S
C2344 C2325 1.368 . S
C2344 C2338 1.368 . S
C2344 C2343 1.523 . S
C2345 C2329 1.429 . S
C2345 C2341 1.429 . S
C2345 C2346 1.523 . S
C2346 C2330 1.368 . S
C2346 C2342 1.368 . S
C2346 C2345 1.523 . S
H2347 C2322 0.950 . S
H2348 C2324 0.950 . S
H2349 C2325 0.949 . S
H2350 C2327 0.950 . S
H2351 C2329 0.950 . S
C2352 C2353 1.349 . S
C2352 C2354 1.327 . S
C2352 H2377 0.950 . S
C2353 C2352 1.349 . S
C2353 C2369 1.349 . S
C2354 C2352 1.327 . S
C2354 C2373 1.429 . S
C2354 H2378 0.950 . S
C2355 C2372 1.574 . S
C2355 C2374 1.368 . S
C2355 H2379 0.949 . S
H2356 C2360 0.949 . S
C2357 C2358 1.349 . S
C2357 C2359 1.327 . S
C2357 H2380 0.950 . S
C2358 C2357 1.349 . S
C2358 C2370 1.349 . S
C2359 C2357 1.327 . S
C2359 C2375 1.429 . S
C2359 H2381 0.950 . S
C2360 H2356 0.949 . S
C2360 C2368 1.574 . S
C2360 C2376 1.368 . S
H2361 C2369 0.950 . S
H2362 C2367 0.950 . S
H2363 C2368 0.949 . S
H2364 C2370 0.950 . S
H2365 C2371 0.950 . S
H2366 C2372 0.949 . S
C2367 H2362 0.950 . S
C2367 C2369 1.327 . S
C2367 C2373 1.429 . S
C2368 C2360 1.574 . S
C2368 H2363 0.949 . S
C2368 C2374 1.368 . S
C2369 C2353 1.349 . S
C2369 H2361 0.950 . S
C2369 C2367 1.327 . S
C2370 C2358 1.349 . S
C2370 H2364 0.950 . S
C2370 C2371 1.327 . S
C2371 H2365 0.950 . S
C2371 C2370 1.327 . S
C2371 C2375 1.429 . S
C2372 C2355 1.574 . S
C2372 H2366 0.949 . S
C2372 C2376 1.368 . S
C2373 C2354 1.429 . S
C2373 C2367 1.429 . S
C2373 C2374 1.523 . S
C2374 C2355 1.368 . S
C2374 C2368 1.368 . S
C2374 C2373 1.523 . S
C2375 C2359 1.429 . S
C2375 C2371 1.429 . S
C2375 C2376 1.523 . S
C2376 C2360 1.368 . S
C2376 C2372 1.368 . S
C2376 C2375 1.523 . S
H2377 C2352 0.950 . S
H2378 C2354 0.950 . S
H2379 C2355 0.949 . S
H2380 C2357 0.950 . S
H2381 C2359 0.950 . S
C2382 C2383 1.349 . S
C2382 C2384 1.327 . S
C2382 H2407 0.950 . S
C2383 C2382 1.349 . S
C2383 C2399 1.349 . S
C2384 C2382 1.327 . S
C2384 C2403 1.429 . S
C2384 H2408 0.950 . S
C2385 C2402 1.574 . S
C2385 C2404 1.368 . S
C2385 H2409 0.949 . S
H2386 C2390 0.949 . S
C2387 C2388 1.349 . S
C2387 C2389 1.327 . S
C2387 H2410 0.950 . S
C2388 C2387 1.349 . S
C2388 C2400 1.349 . S
C2389 C2387 1.327 . S
C2389 C2405 1.429 . S
C2389 H2411 0.950 . S
C2390 H2386 0.949 . S
C2390 C2398 1.574 . S
C2390 C2406 1.368 . S
H2391 C2399 0.950 . S
H2392 C2397 0.950 . S
H2393 C2398 0.949 . S
H2394 C2400 0.950 . S
H2395 C2401 0.950 . S
H2396 C2402 0.949 . S
C2397 H2392 0.950 . S
C2397 C2399 1.327 . S
C2397 C2403 1.429 . S
C2398 C2390 1.574 . S
C2398 H2393 0.949 . S
C2398 C2404 1.368 . S
C2399 C2383 1.349 . S
C2399 H2391 0.950 . S
C2399 C2397 1.327 . S
C2400 C2388 1.349 . S
C2400 H2394 0.950 . S
C2400 C2401 1.327 . S
C2401 H2395 0.950 . S
C2401 C2400 1.327 . S
C2401 C2405 1.429 . S
C2402 C2385 1.574 . S
C2402 H2396 0.949 . S
C2402 C2406 1.368 . S
C2403 C2384 1.429 . S
C2403 C2397 1.429 . S
C2403 C2404 1.523 . S
C2404 C2385 1.368 . S
C2404 C2398 1.368 . S
C2404 C2403 1.523 . S
C2405 C2389 1.429 . S
C2405 C2401 1.429 . S
C2405 C2406 1.523 . S
C2406 C2390 1.368 . S
C2406 C2402 1.368 . S
C2406 C2405 1.523 . S
H2407 C2382 0.950 . S
H2408 C2384 0.950 . S
H2409 C2385 0.949 . S
H2410 C2387 0.950 . S
H2411 C2389 0.950 . S
C2412 C2413 1.349 . S
C2412 C2414 1.327 . S
C2412 H2437 0.950 . S
C2413 C2412 1.349 . S
C2413 C2429 1.349 . S
C2414 C2412 1.327 . S
C2414 C2433 1.429 . S
C2414 H2438 0.950 . S
C2415 C2432 1.574 . S
C2415 C2434 1.368 . S
C2415 H2439 0.949 . S
H2416 C2420 0.949 . S
C2417 C2418 1.349 . S
C2417 C2419 1.327 . S
C2417 H2440 0.950 . S
C2418 C2417 1.349 . S
C2418 C2430 1.349 . S
C2419 C2417 1.327 . S
C2419 C2435 1.429 . S
C2419 H2441 0.950 . S
C2420 H2416 0.949 . S
C2420 C2428 1.574 . S
C2420 C2436 1.368 . S
H2421 C2429 0.950 . S
H2422 C2427 0.950 . S
H2423 C2428 0.949 . S
H2424 C2430 0.950 . S
H2425 C2431 0.950 . S
H2426 C2432 0.949 . S
C2427 H2422 0.950 . S
C2427 C2429 1.327 . S
C2427 C2433 1.429 . S
C2428 C2420 1.574 . S
C2428 H2423 0.949 . S
C2428 C2434 1.368 . S
C2429 C2413 1.349 . S
C2429 H2421 0.950 . S
C2429 C2427 1.327 . S
C2430 C2418 1.349 . S
C2430 H2424 0.950 . S
C2430 C2431 1.327 . S
C2431 H2425 0.950 . S
C2431 C2430 1.327 . S
C2431 C2435 1.429 . S
C2432 C2415 1.574 . S
C2432 H2426 0.949 . S
C2432 C2436 1.368 . S
C2433 C2414 1.429 . S
C2433 C2427 1.429 . S
C2433 C2434 1.523 . S
C2434 C2415 1.368 . S
C2434 C2428 1.368 . S
C2434 C2433 1.523 . S
C2435 C2419 1.429 . S
C2435 C2431 1.429 . S
C2435 C2436 1.523 . S
C2436 C2420 1.368 . S
C2436 C2432 1.368 . S
C2436 C2435 1.523 . S
H2437 C2412 0.950 . S
H2438 C2414 0.950 . S
H2439 C2415 0.949 . S
H2440 C2417 0.950 . S
H2441 C2419 0.950 . S
C2442 C2443 1.349 . S
C2442 C2444 1.327 . S
C2442 H2467 0.950 . S
C2443 C2442 1.349 . S
C2443 C2459 1.349 . S
C2444 C2442 1.327 . S
C2444 C2463 1.429 . S
C2444 H2468 0.950 . S
C2445 C2462 1.574 . S
C2445 C2464 1.368 . S
C2445 H2469 0.949 . S
H2446 C2450 0.949 . S
C2447 C2448 1.349 . S
C2447 C2449 1.327 . S
C2447 H2470 0.950 . S
C2448 C2447 1.349 . S
C2448 C2460 1.349 . S
C2449 C2447 1.327 . S
C2449 C2465 1.429 . S
C2449 H2471 0.950 . S
C2450 H2446 0.949 . S
C2450 C2458 1.574 . S
C2450 C2466 1.368 . S
H2451 C2459 0.950 . S
H2452 C2457 0.950 . S
H2453 C2458 0.949 . S
H2454 C2460 0.950 . S
H2455 C2461 0.950 . S
H2456 C2462 0.949 . S
C2457 H2452 0.950 . S
C2457 C2459 1.327 . S
C2457 C2463 1.429 . S
C2458 C2450 1.574 . S
C2458 H2453 0.949 . S
C2458 C2464 1.368 . S
C2459 C2443 1.349 . S
C2459 H2451 0.950 . S
C2459 C2457 1.327 . S
C2460 C2448 1.349 . S
C2460 H2454 0.950 . S
C2460 C2461 1.327 . S
C2461 H2455 0.950 . S
C2461 C2460 1.327 . S
C2461 C2465 1.429 . S
C2462 C2445 1.574 . S
C2462 H2456 0.949 . S
C2462 C2466 1.368 . S
C2463 C2444 1.429 . S
C2463 C2457 1.429 . S
C2463 C2464 1.523 . S
C2464 C2445 1.368 . S
C2464 C2458 1.368 . S
C2464 C2463 1.523 . S
C2465 C2449 1.429 . S
C2465 C2461 1.429 . S
C2465 C2466 1.523 . S
C2466 C2450 1.368 . S
C2466 C2462 1.368 . S
C2466 C2465 1.523 . S
H2467 C2442 0.950 . S
H2468 C2444 0.950 . S
H2469 C2445 0.949 . S
H2470 C2447 0.950 . S
H2471 C2449 0.950 . S
C2472 C2473 1.349 . S
C2472 C2474 1.327 . S
C2472 H2497 0.950 . S
C2473 C2472 1.349 . S
C2473 C2489 1.349 . S
C2474 C2472 1.327 . S
C2474 C2493 1.429 . S
C2474 H2498 0.950 . S
C2475 C2492 1.574 . S
C2475 C2494 1.368 . S
C2475 H2499 0.949 . S
H2476 C2480 0.949 . S
C2477 C2478 1.349 . S
C2477 C2479 1.327 . S
C2477 H2500 0.950 . S
C2478 C2477 1.349 . S
C2478 C2490 1.349 . S
C2479 C2477 1.327 . S
C2479 C2495 1.429 . S
C2479 H2501 0.950 . S
C2480 H2476 0.949 . S
C2480 C2488 1.574 . S
C2480 C2496 1.368 . S
H2481 C2489 0.950 . S
H2482 C2487 0.950 . S
H2483 C2488 0.949 . S
H2484 C2490 0.950 . S
H2485 C2491 0.950 . S
H2486 C2492 0.949 . S
C2487 H2482 0.950 . S
C2487 C2489 1.327 . S
C2487 C2493 1.429 . S
C2488 C2480 1.574 . S
C2488 H2483 0.949 . S
C2488 C2494 1.368 . S
C2489 C2473 1.349 . S
C2489 H2481 0.950 . S
C2489 C2487 1.327 . S
C2490 C2478 1.349 . S
C2490 H2484 0.950 . S
C2490 C2491 1.327 . S
C2491 H2485 0.950 . S
C2491 C2490 1.327 . S
C2491 C2495 1.429 . S
C2492 C2475 1.574 . S
C2492 H2486 0.949 . S
C2492 C2496 1.368 . S
C2493 C2474 1.429 . S
C2493 C2487 1.429 . S
C2493 C2494 1.523 . S
C2494 C2475 1.368 . S
C2494 C2488 1.368 . S
C2494 C2493 1.523 . S
C2495 C2479 1.429 . S
C2495 C2491 1.429 . S
C2495 C2496 1.523 . S
C2496 C2480 1.368 . S
C2496 C2492 1.368 . S
C2496 C2495 1.523 . S
H2497 C2472 0.950 . S
H2498 C2474 0.950 . S
H2499 C2475 0.949 . S
H2500 C2477 0.950 . S
H2501 C2479 0.950 . S
C2502 C2503 1.349 . S
C2502 C2504 1.327 . S
C2502 H2527 0.950 . S
C2503 C2502 1.349 . S
C2503 C2519 1.349 . S
C2504 C2502 1.327 . S
C2504 C2523 1.429 . S
C2504 H2528 0.950 . S
C2505 C2522 1.574 . S
C2505 C2524 1.368 . S
C2505 H2529 0.949 . S
H2506 C2510 0.949 . S
C2507 C2508 1.349 . S
C2507 C2509 1.327 . S
C2507 H2530 0.950 . S
C2508 C2507 1.349 . S
C2508 C2520 1.349 . S
C2509 C2507 1.327 . S
C2509 C2525 1.429 . S
C2509 H2531 0.950 . S
C2510 H2506 0.949 . S
C2510 C2518 1.574 . S
C2510 C2526 1.368 . S
H2511 C2519 0.950 . S
H2512 C2517 0.950 . S
H2513 C2518 0.949 . S
H2514 C2520 0.950 . S
H2515 C2521 0.950 . S
H2516 C2522 0.949 . S
C2517 H2512 0.950 . S
C2517 C2519 1.327 . S
C2517 C2523 1.429 . S
C2518 C2510 1.574 . S
C2518 H2513 0.949 . S
C2518 C2524 1.368 . S
C2519 C2503 1.349 . S
C2519 H2511 0.950 . S
C2519 C2517 1.327 . S
C2520 C2508 1.349 . S
C2520 H2514 0.950 . S
C2520 C2521 1.327 . S
C2521 H2515 0.950 . S
C2521 C2520 1.327 . S
C2521 C2525 1.429 . S
C2522 C2505 1.574 . S
C2522 H2516 0.949 . S
C2522 C2526 1.368 . S
C2523 C2504 1.429 . S
C2523 C2517 1.429 . S
C2523 C2524 1.523 . S
C2524 C2505 1.368 . S
C2524 C2518 1.368 . S
C2524 C2523 1.523 . S
C2525 C2509 1.429 . S
C2525 C2521 1.429 . S
C2525 C2526 1.523 . S
C2526 C2510 1.368 . S
C2526 C2522 1.368 . S
C2526 C2525 1.523 . S
H2527 C2502 0.950 . S
H2528 C2504 0.950 . S
H2529 C2505 0.949 . S
H2530 C2507 0.950 . S
H2531 C2509 0.950 . S
C2532 C2533 1.349 . S
C2532 C2534 1.327 . S
C2532 H2557 0.950 . S
C2533 C2532 1.349 . S
C2533 C2549 1.349 . S
C2534 C2532 1.327 . S
C2534 C2553 1.429 . S
C2534 H2558 0.950 . S
C2535 C2552 1.574 . S
C2535 C2554 1.368 . S
C2535 H2559 0.949 . S
H2536 C2540 0.949 . S
C2537 C2538 1.349 . S
C2537 C2539 1.327 . S
C2537 H2560 0.950 . S
C2538 C2537 1.349 . S
C2538 C2550 1.349 . S
C2539 C2537 1.327 . S
C2539 C2555 1.429 . S
C2539 H2561 0.950 . S
C2540 H2536 0.949 . S
C2540 C2548 1.574 . S
C2540 C2556 1.368 . S
H2541 C2549 0.950 . S
H2542 C2547 0.950 . S
H2543 C2548 0.949 . S
H2544 C2550 0.950 . S
H2545 C2551 0.950 . S
H2546 C2552 0.949 . S
C2547 H2542 0.950 . S
C2547 C2549 1.327 . S
C2547 C2553 1.429 . S
C2548 C2540 1.574 . S
C2548 H2543 0.949 . S
C2548 C2554 1.368 . S
C2549 C2533 1.349 . S
C2549 H2541 0.950 . S
C2549 C2547 1.327 . S
C2550 C2538 1.349 . S
C2550 H2544 0.950 . S
C2550 C2551 1.327 . S
C2551 H2545 0.950 . S
C2551 C2550 1.327 . S
C2551 C2555 1.429 . S
C2552 C2535 1.574 . S
C2552 H2546 0.949 . S
C2552 C2556 1.368 . S
C2553 C2534 1.429 . S
C2553 C2547 1.429 . S
C2553 C2554 1.523 . S
C2554 C2535 1.368 . S
C2554 C2548 1.368 . S
C2554 C2553 1.523 . S
C2555 C2539 1.429 . S
C2555 C2551 1.429 . S
C2555 C2556 1.523 . S
C2556 C2540 1.368 . S
C2556 C2552 1.368 . S
C2556 C2555 1.523 . S
H2557 C2532 0.950 . S
H2558 C2534 0.950 . S
H2559 C2535 0.949 . S
H2560 C2537 0.950 . S
H2561 C2539 0.950 . S
C2562 C2563 1.349 . S
C2562 C2564 1.327 . S
C2562 H2587 0.950 . S
C2563 C2562 1.349 . S
C2563 C2579 1.349 . S
C2564 C2562 1.327 . S
C2564 C2583 1.429 . S
C2564 H2588 0.950 . S
C2565 C2582 1.574 . S
C2565 C2584 1.368 . S
C2565 H2589 0.949 . S
H2566 C2570 0.949 . S
C2567 C2568 1.349 . S
C2567 C2569 1.327 . S
C2567 H2590 0.950 . S
C2568 C2567 1.349 . S
C2568 C2580 1.349 . S
C2569 C2567 1.327 . S
C2569 C2585 1.429 . S
C2569 H2591 0.950 . S
C2570 H2566 0.949 . S
C2570 C2578 1.574 . S
C2570 C2586 1.368 . S
H2571 C2579 0.950 . S
H2572 C2577 0.950 . S
H2573 C2578 0.949 . S
H2574 C2580 0.950 . S
H2575 C2581 0.950 . S
H2576 C2582 0.949 . S
C2577 H2572 0.950 . S
C2577 C2579 1.327 . S
C2577 C2583 1.429 . S
C2578 C2570 1.574 . S
C2578 H2573 0.949 . S
C2578 C2584 1.368 . S
C2579 C2563 1.349 . S
C2579 H2571 0.950 . S
C2579 C2577 1.327 . S
C2580 C2568 1.349 . S
C2580 H2574 0.950 . S
C2580 C2581 1.327 . S
C2581 H2575 0.950 . S
C2581 C2580 1.327 . S
C2581 C2585 1.429 . S
C2582 C2565 1.574 . S
C2582 H2576 0.949 . S
C2582 C2586 1.368 . S
C2583 C2564 1.429 . S
C2583 C2577 1.429 . S
C2583 C2584 1.523 . S
C2584 C2565 1.368 . S
C2584 C2578 1.368 . S
C2584 C2583 1.523 . S
C2585 C2569 1.429 . S
C2585 C2581 1.429 . S
C2585 C2586 1.523 . S
C2586 C2570 1.368 . S
C2586 C2582 1.368 . S
C2586 C2585 1.523 . S
H2587 C2562 0.950 . S
H2588 C2564 0.950 . S
H2589 C2565 0.949 . S
H2590 C2567 0.950 . S
H2591 C2569 0.950 . S
C2592 C2593 1.349 . S
C2592 C2594 1.327 . S
C2592 H2617 0.950 . S
C2593 C2592 1.349 . S
C2593 C2609 1.349 . S
C2594 C2592 1.327 . S
C2594 C2613 1.429 . S
C2594 H2618 0.950 . S
C2595 C2612 1.574 . S
C2595 C2614 1.368 . S
C2595 H2619 0.949 . S
H2596 C2600 0.949 . S
C2597 C2598 1.349 . S
C2597 C2599 1.327 . S
C2597 H2620 0.950 . S
C2598 C2597 1.349 . S
C2598 C2610 1.349 . S
C2599 C2597 1.327 . S
C2599 C2615 1.429 . S
C2599 H2621 0.950 . S
C2600 H2596 0.949 . S
C2600 C2608 1.574 . S
C2600 C2616 1.368 . S
H2601 C2609 0.950 . S
H2602 C2607 0.950 . S
H2603 C2608 0.949 . S
H2604 C2610 0.950 . S
H2605 C2611 0.950 . S
H2606 C2612 0.949 . S
C2607 H2602 0.950 . S
C2607 C2609 1.327 . S
C2607 C2613 1.429 . S
C2608 C2600 1.574 . S
C2608 H2603 0.949 . S
C2608 C2614 1.368 . S
C2609 C2593 1.349 . S
C2609 H2601 0.950 . S
C2609 C2607 1.327 . S
C2610 C2598 1.349 . S
C2610 H2604 0.950 . S
C2610 C2611 1.327 . S
C2611 H2605 0.950 . S
C2611 C2610 1.327 . S
C2611 C2615 1.429 . S
C2612 C2595 1.574 . S
C2612 H2606 0.949 . S
C2612 C2616 1.368 . S
C2613 C2594 1.429 . S
C2613 C2607 1.429 . S
C2613 C2614 1.523 . S
C2614 C2595 1.368 . S
C2614 C2608 1.368 . S
C2614 C2613 1.523 . S
C2615 C2599 1.429 . S
C2615 C2611 1.429 . S
C2615 C2616 1.523 . S
C2616 C2600 1.368 . S
C2616 C2612 1.368 . S
C2616 C2615 1.523 . S
H2617 C2592 0.950 . S
H2618 C2594 0.950 . S
H2619 C2595 0.949 . S
H2620 C2597 0.950 . S
H2621 C2599 0.950 . S
C2622 C2623 1.349 . S
C2622 C2624 1.327 . S
C2622 H2647 0.950 . S
C2623 C2622 1.349 . S
C2623 C2639 1.349 . S
C2624 C2622 1.327 . S
C2624 C2643 1.429 . S
C2624 H2648 0.950 . S
C2625 C2642 1.574 . S
C2625 C2644 1.368 . S
C2625 H2649 0.949 . S
H2626 C2630 0.949 . S
C2627 C2628 1.349 . S
C2627 C2629 1.327 . S
C2627 H2650 0.950 . S
C2628 C2627 1.349 . S
C2628 C2640 1.349 . S
C2629 C2627 1.327 . S
C2629 C2645 1.429 . S
C2629 H2651 0.950 . S
C2630 H2626 0.949 . S
C2630 C2638 1.574 . S
C2630 C2646 1.368 . S
H2631 C2639 0.950 . S
H2632 C2637 0.950 . S
H2633 C2638 0.949 . S
H2634 C2640 0.950 . S
H2635 C2641 0.950 . S
H2636 C2642 0.949 . S
C2637 H2632 0.950 . S
C2637 C2639 1.327 . S
C2637 C2643 1.429 . S
C2638 C2630 1.574 . S
C2638 H2633 0.949 . S
C2638 C2644 1.368 . S
C2639 C2623 1.349 . S
C2639 H2631 0.950 . S
C2639 C2637 1.327 . S
C2640 C2628 1.349 . S
C2640 H2634 0.950 . S
C2640 C2641 1.327 . S
C2641 H2635 0.950 . S
C2641 C2640 1.327 . S
C2641 C2645 1.429 . S
C2642 C2625 1.574 . S
C2642 H2636 0.949 . S
C2642 C2646 1.368 . S
C2643 C2624 1.429 . S
C2643 C2637 1.429 . S
C2643 C2644 1.523 . S
C2644 C2625 1.368 . S
C2644 C2638 1.368 . S
C2644 C2643 1.523 . S
C2645 C2629 1.429 . S
C2645 C2641 1.429 . S
C2645 C2646 1.523 . S
C2646 C2630 1.368 . S
C2646 C2642 1.368 . S
C2646 C2645 1.523 . S
H2647 C2622 0.950 . S
H2648 C2624 0.950 . S
H2649 C2625 0.949 . S
H2650 C2627 0.950 . S
H2651 C2629 0.950 . S
C2652 C2653 1.349 . S
C2652 C2654 1.327 . S
C2652 H2677 0.950 . S
C2653 C2652 1.349 . S
C2653 C2669 1.349 . S
C2654 C2652 1.327 . S
C2654 C2673 1.429 . S
C2654 H2678 0.950 . S
C2655 C2672 1.574 . S
C2655 C2674 1.368 . S
C2655 H2679 0.949 . S
H2656 C2660 0.949 . S
C2657 C2658 1.349 . S
C2657 C2659 1.327 . S
C2657 H2680 0.950 . S
C2658 C2657 1.349 . S
C2658 C2670 1.349 . S
C2659 C2657 1.327 . S
C2659 C2675 1.429 . S
C2659 H2681 0.950 . S
C2660 H2656 0.949 . S
C2660 C2668 1.574 . S
C2660 C2676 1.368 . S
H2661 C2669 0.950 . S
H2662 C2667 0.950 . S
H2663 C2668 0.949 . S
H2664 C2670 0.950 . S
H2665 C2671 0.950 . S
H2666 C2672 0.949 . S
C2667 H2662 0.950 . S
C2667 C2669 1.327 . S
C2667 C2673 1.429 . S
C2668 C2660 1.574 . S
C2668 H2663 0.949 . S
C2668 C2674 1.368 . S
C2669 C2653 1.349 . S
C2669 H2661 0.950 . S
C2669 C2667 1.327 . S
C2670 C2658 1.349 . S
C2670 H2664 0.950 . S
C2670 C2671 1.327 . S
C2671 H2665 0.950 . S
C2671 C2670 1.327 . S
C2671 C2675 1.429 . S
C2672 C2655 1.574 . S
C2672 H2666 0.949 . S
C2672 C2676 1.368 . S
C2673 C2654 1.429 . S
C2673 C2667 1.429 . S
C2673 C2674 1.523 . S
C2674 C2655 1.368 . S
C2674 C2668 1.368 . S
C2674 C2673 1.523 . S
C2675 C2659 1.429 . S
C2675 C2671 1.429 . S
C2675 C2676 1.523 . S
C2676 C2660 1.368 . S
C2676 C2672 1.368 . S
C2676 C2675 1.523 . S
H2677 C2652 0.950 . S
H2678 C2654 0.950 . S
H2679 C2655 0.949 . S
H2680 C2657 0.950 . S
H2681 C2659 0.950 . S
C2682 C2683 1.349 . S
C2682 C2684 1.327 . S
C2682 H2707 0.950 . S
C2683 C2682 1.349 . S
C2683 C2699 1.349 . S
C2684 C2682 1.327 . S
C2684 C2703 1.429 . S
C2684 H2708 0.950 . S
C2685 C2702 1.574 . S
C2685 C2704 1.368 . S
C2685 H2709 0.949 . S
H2686 C2690 0.949 . S
C2687 C2688 1.349 . S
C2687 C2689 1.327 . S
C2687 H2710 0.950 . S
C2688 C2687 1.349 . S
C2688 C2700 1.349 . S
C2689 C2687 1.327 . S
C2689 C2705 1.429 . S
C2689 H2711 0.950 . S
C2690 H2686 0.949 . S
C2690 C2698 1.574 . S
C2690 C2706 1.368 . S
H2691 C2699 0.950 . S
H2692 C2697 0.950 . S
H2693 C2698 0.949 . S
H2694 C2700 0.950 . S
H2695 C2701 0.950 . S
H2696 C2702 0.949 . S
C2697 H2692 0.950 . S
C2697 C2699 1.327 . S
C2697 C2703 1.429 . S
C2698 C2690 1.574 . S
C2698 H2693 0.949 . S
C2698 C2704 1.368 . S
C2699 C2683 1.349 . S
C2699 H2691 0.950 . S
C2699 C2697 1.327 . S
C2700 C2688 1.349 . S
C2700 H2694 0.950 . S
C2700 C2701 1.327 . S
C2701 H2695 0.950 . S
C2701 C2700 1.327 . S
C2701 C2705 1.429 . S
C2702 C2685 1.574 . S
C2702 H2696 0.949 . S
C2702 C2706 1.368 . S
C2703 C2684 1.429 . S
C2703 C2697 1.429 . S
C2703 C2704 1.523 . S
C2704 C2685 1.368 . S
C2704 C2698 1.368 . S
C2704 C2703 1.523 . S
C2705 C2689 1.429 . S
C2705 C2701 1.429 . S
C2705 C2706 1.523 . S
C2706 C2690 1.368 . S
C2706 C2702 1.368 . S
C2706 C2705 1.523 . S
H2707 C2682 0.950 . S
H2708 C2684 0.950 . S
H2709 C2685 0.949 . S
H2710 C2687 0.950 . S
H2711 C2689 0.950 . S
C1273 C1204 2.474 . S
C1278 C38 2.402 . S
C1303 C75 2.358 . S
C1308 C870 2.270 . S
C1333 C1257 2.227 . S
C1338 C144 2.150 . S
C1363 C1135 2.278 . S
C1368 C181 2.346 . S
C1393 C992 2.227 . S
C1398 C250 2.150 . S
C1423 C1029 2.270 . S
C1428 C287 2.358 . S
C1453 C1098 2.474 . S
C1458 C356 2.402 . S
C1483 C393 2.346 . S
C1488 C923 2.278 . S
C1513 C727 2.267 . S
C1518 C446 2.209 . S
C1543 C764 2.209 . S
C1548 C515 2.267 . S
C1573 C568 2.268 . S
C1578 C833 2.307 . S
C1603 C621 2.307 . S
C1608 C674 2.268 . S
C1633 C409 2.329 . S
C1638 C780 2.403 . S
C1663 C817 2.360 . S
C1668 C234 2.428 . S
C1693 C303 2.152 . S
C1698 C658 2.210 . S
C1723 C711 2.334 . S
C1728 C340 2.409 . S
C1753 C552 2.210 . S
C1758 C91 2.152 . S
C1783 C128 2.428 . S
C1788 C605 2.360 . S
C1813 C197 2.329 . S
C1818 C462 2.403 . S
C1843 C22 2.409 . S
C1848 C499 2.334 . S
C1873 C1082 2.285 . S
C1878 C1151 2.345 . S
C1903 C1188 2.285 . S
C1908 C939 2.345 . S
C1933 C976 2.181 . S
C1938 C886 2.245 . S
C1963 C1241 2.181 . S
C1968 C1045 2.245 . S
C1993 C39 1.746 . S
C1998 C463 1.794 . S
C2023 C506 1.142 . S
C2028 C82 1.160 . S
C2053 C145 1.359 . S
C2058 C559 1.386 . S
C2083 C188 1.259 . S
C2088 C612 1.235 . S
C2113 C251 1.359 . S
C2118 C665 1.386 . S
C2143 C294 1.160 . S
C2148 C718 1.142 . S
C2173 C781 1.794 . S
C2178 C357 1.746 . S
C2203 C824 1.235 . S
C2208 C400 1.259 . S
C2233 C453 1.486 . S
C2238 C887 1.485 . S
C2263 C516 1.482 . S
C2268 C1248 1.483 . S
C2293 C1152 1.809 . S
C2298 C569 1.817 . S
C2323 C1195 1.494 . S
C2328 C622 1.499 . S
C2353 C940 1.809 . S
C2358 C675 1.817 . S
C2383 C983 1.483 . S
C2388 C728 1.482 . S
C2413 C771 1.486 . S
C2418 C1046 1.485 . S
C2443 C834 1.499 . S
C2448 C1089 1.494 . S
C2473 C29 1.244 . S
C2478 C877 1.223 . S
C2503 C930 1.244 . S
C2508 C241 1.241 . S
C2533 C993 1.795 . S
C2538 C304 1.744 . S
C2563 C1036 1.223 . S
C2568 C347 1.244 . S
C2593 C1099 1.838 . S
C2598 C410 1.794 . S
C2623 C1142 1.244 . S
C2628 C135 1.241 . S
C2653 C198 1.794 . S
C2658 C1205 1.838 . S
C2683 C1258 1.795 . S
C2688 C92 1.743 . S
