# Generated by pormake.
# Topology mmt, (4)-cn, num edge types: 1
# Building blocks:
#     Node 0, Type 0, BuildingBlock: GALJAG_clean_sbu_0, # of connection points: 4
#     Node 1, Type 0, BuildingBlock: GALJAG_clean_sbu_0, # of connection points: 4
#     Node 2, Type 0, BuildingBlock: GALJAG_clean_sbu_0, # of connection points: 4
#     Node 3, Type 0, BuildingBlock: GALJAG_clean_sbu_0, # of connection points: 4
#     Node 4, Type 0, BuildingBlock: GALJAG_clean_sbu_0, # of connection points: 4
#     Node 5, Type 0, BuildingBlock: GALJAG_clean_sbu_0, # of connection points: 4
#     Node 6, Type 0, BuildingBlock: GALJAG_clean_sbu_0, # of connection points: 4
#     Node 7, Type 0, BuildingBlock: GALJAG_clean_sbu_0, # of connection points: 4
#     Edge 8, Type (0, 0), BuildingBlock: EZIPEK_clean_linker_0, # of connection points: 2
#     Edge 9, Type (0, 0), BuildingBlock: EZIPEK_clean_linker_0, # of connection points: 2
#     Edge 10, Type (0, 0), BuildingBlock: EZIPEK_clean_linker_0, # of connection points: 2
#     Edge 11, Type (0, 0), BuildingBlock: EZIPEK_clean_linker_0, # of connection points: 2
#     Edge 12, Type (0, 0), BuildingBlock: EZIPEK_clean_linker_0, # of connection points: 2
#     Edge 13, Type (0, 0), BuildingBlock: EZIPEK_clean_linker_0, # of connection points: 2
#     Edge 14, Type (0, 0), BuildingBlock: EZIPEK_clean_linker_0, # of connection points: 2
#     Edge 15, Type (0, 0), BuildingBlock: EZIPEK_clean_linker_0, # of connection points: 2
#     Edge 16, Type (0, 0), BuildingBlock: EZIPEK_clean_linker_0, # of connection points: 2
#     Edge 17, Type (0, 0), BuildingBlock: EZIPEK_clean_linker_0, # of connection points: 2
#     Edge 18, Type (0, 0), BuildingBlock: EZIPEK_clean_linker_0, # of connection points: 2
#     Edge 19, Type (0, 0), BuildingBlock: EZIPEK_clean_linker_0, # of connection points: 2
#     Edge 20, Type (0, 0), BuildingBlock: EZIPEK_clean_linker_0, # of connection points: 2
#     Edge 21, Type (0, 0), BuildingBlock: EZIPEK_clean_linker_0, # of connection points: 2
#     Edge 22, Type (0, 0), BuildingBlock: EZIPEK_clean_linker_0, # of connection points: 2
#     Edge 23, Type (0, 0), BuildingBlock: EZIPEK_clean_linker_0, # of connection points: 2
# Relax obj value: 0.016
# Max RMSD: 0.061
# Mean RMSD: 0.061
data_MOF--net-mmt--node1-GALJAG_clean_sbu_0--edge1-EZIPEK_clean_linker_0
_symmetry_space_group_name_H-M    P1
_symmetry_Int_Tables_number       1
_symmetry_cell_setting            triclinic
loop_
_symmetry_equiv_pos_as_xyz
'x, y, z'
_cell_length_a     18.197054
_cell_length_b     27.069335
_cell_length_c     30.163973
_cell_angle_alpha  89.92865
_cell_angle_beta   90.029575
_cell_angle_gamma 90.003477
loop_
_atom_site_label
_atom_site_type_symbol
_atom_site_fract_x
_atom_site_fract_y
_atom_site_fract_z
_atom_type_partial_charge
In0 In 0.12746 0.5557 0.33968 0.0
O1 O 0.23068 0.50781 0.34005 0.0
O2 O 0.19804 0.54068 0.27892 0.0
C3 C 0.07357 0.52977 0.4196 0.0
C4 C 0.18585 0.64682 0.34618 0.0
C5 C 0.00888 0.53336 0.29018 0.0
O6 O 0.11273 0.50108 0.39674 0.0
O7 O 0.06279 0.57179 0.40283 0.0
O8 O 0.02463 0.57716 0.30077 0.0
O9 O 0.05359 0.50104 0.30358 0.0
C10 C 0.24431 0.51453 0.29945 0.0
O11 O 0.13116 0.63742 0.32184 0.0
O12 O 0.20972 0.61065 0.36833 0.0
In13 In 0.38039 0.93131 0.34033 0.0
O14 O 0.27219 0.97373 0.34267 0.0
O15 O 0.31026 0.94829 0.27981 0.0
C16 C 0.43266 0.96589 0.41791 0.0
C17 C 0.32652 0.83884 0.34606 0.0
C18 C 0.50062 0.95282 0.29211 0.0
O19 O 0.39616 0.99241 0.39151 0.0
O20 O 0.44039 0.92153 0.40617 0.0
O21 O 0.4932 0.91197 0.31182 0.0
O22 O 0.44671 0.98182 0.2955 0.0
C23 C 0.26085 0.97033 0.30147 0.0
O24 O 0.37638 0.8506 0.31893 0.0
O25 O 0.30563 0.87322 0.37125 0.0
In26 In 0.62704 0.43257 0.15864 0.0
O27 O 0.63604 0.35214 0.18015 0.0
O28 O 0.70193 0.37577 0.12581 0.0
C29 C 0.50705 0.45262 0.20751 0.0
C30 C 0.74548 0.4723 0.19834 0.0
C31 C 0.57317 0.46425 0.08048 0.0
O32 O 0.52007 0.40993 0.19267 0.0
O33 O 0.55512 0.4847 0.19867 0.0
O34 O 0.61158 0.49142 0.10528 0.0
O35 O 0.56331 0.42081 0.09436 0.0
C36 C 0.68434 0.3412 0.1518 0.0
O37 O 0.73395 0.47668 0.15725 0.0
O38 O 0.69648 0.44929 0.21951 0.0
In39 In 0.88079 0.05727 0.16015 0.0
O40 O 0.77222 0.01503 0.16105 0.0
O41 O 0.81744 0.0378 0.22281 0.0
C42 C 0.93199 0.02982 0.08009 0.0
C43 C 0.82598 0.1496 0.15327 0.0
C44 C 0.99897 0.0339 0.20952 0.0
O45 O 0.8895 0.00287 0.10253 0.0
O46 O 0.94765 0.07081 0.09739 0.0
O47 O 0.97937 0.07806 0.20305 0.0
O48 O 0.9583 0.0016 0.192 0.0
C49 C 0.76529 0.01689 0.20264 0.0
O50 O 0.88453 0.14015 0.17406 0.0
O51 O 0.79641 0.11287 0.13483 0.0
In52 In 0.8798 0.44353 0.66272 0.0
O53 O 0.87416 0.36201 0.68129 0.0
O54 O 0.7989 0.38859 0.63276 0.0
C55 C 0.9984 0.4663 0.71206 0.0
C56 C 0.76284 0.48481 0.70272 0.0
C57 C 0.93423 0.46933 0.58294 0.0
O58 O 0.9832 0.42244 0.70131 0.0
O59 O 0.95312 0.49839 0.69895 0.0
O60 O 0.89418 0.49786 0.60543 0.0
O61 O 0.94567 0.42754 0.60003 0.0
C62 C 0.82099 0.35257 0.65575 0.0
O63 O 0.77696 0.49179 0.66222 0.0
O64 O 0.80864 0.45832 0.72327 0.0
In65 In 0.62129 0.06966 0.65742 0.0
O66 O 0.72796 0.02506 0.65412 0.0
O67 O 0.69201 0.05008 0.71735 0.0
C68 C 0.56764 0.04105 0.57787 0.0
C69 C 0.67815 0.16133 0.65327 0.0
C70 C 0.50044 0.05181 0.70681 0.0
O71 O 0.59184 0.01087 0.60615 0.0
O72 O 0.57261 0.0858 0.58889 0.0
O73 O 0.51619 0.0945 0.69284 0.0
O74 O 0.54634 0.01872 0.69692 0.0
C75 C 0.74039 0.02773 0.6952 0.0
O76 O 0.62423 0.15068 0.67787 0.0
O77 O 0.70192 0.12619 0.62987 0.0
In78 In 0.38028 0.56871 0.8429 0.0
O79 O 0.27332 0.5247 0.84432 0.0
O80 O 0.31057 0.55217 0.78203 0.0
C81 C 0.43309 0.53734 0.92151 0.0
C82 C 0.32437 0.66062 0.84859 0.0
C83 C 0.50007 0.54781 0.79407 0.0
O84 O 0.39578 0.50993 0.89635 0.0
O85 O 0.44227 0.5809 0.90781 0.0
O86 O 0.48764 0.59056 0.80892 0.0
O87 O 0.45148 0.51607 0.80283 0.0
C88 C 0.26167 0.52908 0.80324 0.0
O89 O 0.37539 0.64952 0.82207 0.0
O90 O 0.30332 0.62587 0.87343 0.0
In91 In 0.12198 0.94276 0.83647 0.0
O92 O 0.22418 0.99158 0.83828 0.0
O93 O 0.19324 0.96029 0.77629 0.0
C94 C 0.06611 0.96762 0.91605 0.0
C95 C 0.18133 0.85184 0.84463 0.0
C96 C 0.00393 0.96452 0.78596 0.0
O97 O 0.10933 0.99541 0.89498 0.0
O98 O 0.05177 0.92704 0.89757 0.0
O99 O 0.02355 0.92065 0.79371 0.0
O100 O 0.04479 0.99732 0.8025 0.0
C101 C 0.23861 0.98625 0.79767 0.0
O102 O 0.12697 0.86065 0.81987 0.0
O103 O 0.20456 0.88851 0.86622 0.0
C104 C 0.30524 0.46702 0.23841 0.0
C105 C 0.31147 0.49541 0.27772 0.0
C106 C 0.44557 0.48766 0.27468 0.0
C107 C 0.43955 0.4649 0.23253 0.0
N108 N 0.36376 0.44069 0.17041 0.0
N109 N 0.38819 0.54075 0.32898 0.0
C110 C 0.3694 0.45638 0.21335 0.0
C111 C 0.3818 0.50773 0.29492 0.0
N112 N 0.23831 0.44901 0.22564 0.0
N113 N 0.5119 0.48898 0.29597 0.0
H114 H 0.34324 0.55766 0.34404 0.0
H115 H 0.43839 0.55512 0.33943 0.0
H116 H 0.55969 0.47382 0.28259 0.0
H117 H 0.518 0.50061 0.32868 0.0
H118 H 0.23166 0.42398 0.19974 0.0
H119 H 0.19026 0.45514 0.24367 0.0
H120 H 0.31408 0.43922 0.15329 0.0
H121 H 0.40918 0.43359 0.15036 0.0
C122 C 0.05929 0.98892 0.27229 0.0
C123 C 0.06561 0.02064 0.23502 0.0
C124 C 0.19889 0.02544 0.24625 0.0
C125 C 0.19335 0.9892 0.28005 0.0
N126 N 0.11987 0.93034 0.32078 0.0
N127 N 0.14225 0.06361 0.18215 0.0
C128 C 0.12394 0.96941 0.29209 0.0
C129 C 0.1356 0.03773 0.2209 0.0
N130 N 0.99157 0.97867 0.28964 0.0
N131 N 0.2642 0.04917 0.23921 0.0
H132 H 0.09754 0.07328 0.16235 0.0
H133 H 0.19266 0.0719 0.16759 0.0
H134 H 0.3116 0.04144 0.25741 0.0
H135 H 0.26974 0.07958 0.21829 0.0
H136 H 0.98402 0.96 0.31951 0.0
H137 H 0.94297 0.99296 0.27649 0.0
H138 H 0.07156 0.91084 0.32683 0.0
H139 H 0.16589 0.91442 0.33563 0.0
C140 C 0.80772 0.52303 0.25671 0.0
C141 C 0.81317 0.4905 0.22005 0.0
C142 C 0.94751 0.49266 0.22548 0.0
C143 C 0.94163 0.52035 0.26519 0.0
N144 N 0.8655 0.55424 0.32331 0.0
N145 N 0.88748 0.43666 0.17457 0.0
C146 C 0.87157 0.53373 0.28206 0.0
C147 C 0.88287 0.47333 0.20559 0.0
N148 N 0.74195 0.54479 0.26662 0.0
N149 N 0.01462 0.48601 0.20601 0.0
H150 H 0.84158 0.42041 0.15991 0.0
H151 H 0.93653 0.419 0.16649 0.0
H152 H 0.06314 0.50042 0.21914 0.0
H153 H 0.02127 0.47044 0.1747 0.0
H154 H 0.73639 0.57271 0.29011 0.0
H155 H 0.69412 0.5384 0.24841 0.0
H156 H 0.81532 0.55967 0.33917 0.0
H157 H 0.91059 0.5615 0.34362 0.0
C158 C 0.6614 0.03178 0.25541 0.0
C159 C 0.69826 0.99952 0.22577 0.0
C160 C 0.60165 0.93749 0.23668 0.0
C161 C 0.5697 0.96773 0.26989 0.0
N162 N 0.58112 0.038 0.31883 0.0
N163 N 0.71129 0.91781 0.19472 0.0
C164 C 0.60305 0.01324 0.28163 0.0
C165 C 0.67062 0.95121 0.21817 0.0
N166 N 0.67926 0.08081 0.25698 0.0
N167 N 0.56497 0.89684 0.22146 0.0
H168 H 0.76291 0.926 0.18163 0.0
H169 H 0.69712 0.88065 0.19199 0.0
H170 H 0.51369 0.88609 0.2335 0.0
H171 H 0.58217 0.8765 0.19407 0.0
H172 H 0.64899 0.1066 0.27496 0.0
H173 H 0.71873 0.09683 0.23649 0.0
H174 H 0.60893 0.06875 0.33111 0.0
H175 H 0.54052 0.02487 0.34019 0.0
C176 C 0.63769 0.54316 0.78867 0.0
C177 C 0.5676 0.5351 0.76925 0.0
C178 C 0.62539 0.49224 0.70687 0.0
C179 C 0.6957 0.50413 0.72433 0.0
N180 N 0.76896 0.54989 0.77681 0.0
N181 N 0.49547 0.51158 0.70554 0.0
C182 C 0.70193 0.5323 0.76377 0.0
C183 C 0.56166 0.51251 0.72701 0.0
N184 N 0.64316 0.55867 0.83168 0.0
N185 N 0.61893 0.45944 0.67265 0.0
H186 H 0.44773 0.52688 0.71886 0.0
H187 H 0.48948 0.50013 0.67278 0.0
H188 H 0.66385 0.44242 0.65764 0.0
H189 H 0.56868 0.44537 0.66197 0.0
H190 H 0.6927 0.55978 0.84896 0.0
H191 H 0.59766 0.56598 0.8516 0.0
H192 H 0.77569 0.57477 0.80283 0.0
H193 H 0.81709 0.54359 0.75892 0.0
C194 C 0.80329 0.97232 0.7499 0.0
C195 C 0.80836 0.00835 0.71589 0.0
C196 C 0.94266 0.00824 0.72275 0.0
C197 C 0.93689 0.97698 0.76036 0.0
N198 N 0.86083 0.93431 0.81378 0.0
N199 N 0.88164 0.06657 0.67425 0.0
C200 C 0.86701 0.96002 0.7749 0.0
C201 C 0.87775 0.02776 0.70322 0.0
N202 N 0.73792 0.94889 0.75753 0.0
N203 N 0.01013 0.01811 0.70487 0.0
H204 H 0.83553 0.08253 0.65955 0.0
H205 H 0.92999 0.08587 0.66778 0.0
H206 H 0.05883 0.00368 0.71777 0.0
H207 H 0.0173 0.03649 0.67483 0.0
H208 H 0.73254 0.91861 0.77861 0.0
H209 H 0.69021 0.95671 0.73965 0.0
H210 H 0.81063 0.92626 0.82869 0.0
H211 H 0.90576 0.92447 0.8333 0.0
C212 C 0.12419 0.52696 0.7964 0.0
C213 C 0.19409 0.51053 0.78158 0.0
C214 C 0.13582 0.46703 0.71966 0.0
C215 C 0.06569 0.47966 0.73688 0.0
N216 N 0.9927 0.51304 0.79649 0.0
N217 N 0.2658 0.45701 0.73456 0.0
C218 C 0.05972 0.50711 0.77672 0.0
C219 C 0.19975 0.4782 0.74478 0.0
N220 N 0.11917 0.56343 0.82759 0.0
N221 N 0.14184 0.44677 0.67831 0.0
H222 H 0.31369 0.46368 0.75262 0.0
H223 H 0.2716 0.42924 0.71095 0.0
H224 H 0.09666 0.43914 0.65818 0.0
H225 H 0.19194 0.44189 0.66221 0.0
H226 H 0.06984 0.58057 0.83596 0.0
H227 H 0.16488 0.58008 0.84209 0.0
H228 H 0.9861 0.52838 0.82789 0.0
H229 H 0.94434 0.49824 0.78351 0.0
C230 C 0.2986 0.03875 0.7396 0.0
C231 C 0.30546 0.0071 0.77684 0.0
C232 C 0.43955 0.01493 0.77343 0.0
C233 C 0.433 0.04057 0.73259 0.0
N234 N 0.35583 0.07216 0.67376 0.0
N235 N 0.3827 0.95884 0.82564 0.0
C236 C 0.36239 0.05165 0.71498 0.0
C237 C 0.37599 0.99376 0.79308 0.0
N238 N 0.23134 0.05759 0.72847 0.0
N239 N 0.50631 0.01198 0.79409 0.0
H240 H 0.33784 0.94146 0.84041 0.0
H241 H 0.43293 0.94372 0.83517 0.0
H242 H 0.55379 0.02815 0.78123 0.0
H243 H 0.5131 0.9981 0.82606 0.0
H244 H 0.22399 0.08486 0.70449 0.0
H245 H 0.18354 0.04949 0.74613 0.0
H246 H 0.30599 0.07521 0.65698 0.0
H247 H 0.40076 0.08267 0.65468 0.0
C248 C 0.98158 0.47815 0.46027 0.0
C249 C 0.03847 0.51408 0.46152 0.0
C250 C 0.02627 0.52095 0.54232 0.0
C251 C 0.96945 0.48496 0.54106 0.0
N252 N 0.89759 0.42504 0.50098 0.0
N253 N 0.1108 0.57373 0.50164 0.0
C254 C 0.94849 0.46227 0.50061 0.0
C255 C 0.05956 0.5367 0.50199 0.0
N256 N 0.9562 0.46157 0.42021 0.0
N257 N 0.05132 0.5377 0.5824 0.0
H258 H 0.13973 0.58406 0.47326 0.0
H259 H 0.12254 0.59611 0.52873 0.0
H260 H 0.02894 0.52667 0.61266 0.0
H261 H 0.0975 0.55987 0.58639 0.0
H262 H 0.90985 0.43953 0.4163 0.0
H263 H 0.97832 0.47272 0.38992 0.0
H264 H 0.88615 0.40258 0.47388 0.0
H265 H 0.86884 0.41454 0.52937 0.0
C266 C 0.54484 0.98249 0.46387 0.0
C267 C 0.46749 0.98608 0.45836 0.0
C268 C 0.45832 0.03331 0.52739 0.0
C269 C 0.53422 0.02471 0.53551 0.0
N270 N 0.64943 0.98808 0.51338 0.0
N271 N 0.34874 0.00791 0.4878 0.0
C272 C 0.5773 0.99814 0.50439 0.0
C273 C 0.42371 0.00991 0.49076 0.0
N274 N 0.58779 0.96667 0.42948 0.0
N275 N 0.41904 0.06379 0.55459 0.0
H276 H 0.32118 0.99025 0.46197 0.0
H277 H 0.31367 0.01964 0.51294 0.0
H278 H 0.44124 0.08046 0.58259 0.0
H279 H 0.36604 0.07592 0.54742 0.0
H280 H 0.64494 0.9684 0.42969 0.0
H281 H 0.56657 0.95602 0.39883 0.0
H282 H 0.68085 0.9634 0.49492 0.0
H283 H 0.67717 0.00239 0.54077 0.0
C284 C 0.56059 0.46514 0.99779 0.0
C285 C 0.5377 0.48309 0.03973 0.0
C286 C 0.44557 0.53646 0.00425 0.0
C287 C 0.46855 0.51856 0.9623 0.0
N288 N 0.5542 0.47236 0.9176 0.0
N289 N 0.45243 0.52952 0.08448 0.0
C290 C 0.52735 0.48426 0.95863 0.0
C291 C 0.47897 0.51745 0.04342 0.0
N292 N 0.61341 0.42923 0.99558 0.0
N293 N 0.39246 0.57218 0.00645 0.0
H294 H 0.47502 0.51612 0.11391 0.0
H295 H 0.40497 0.55003 0.08987 0.0
H296 H 0.36376 0.58484 0.97873 0.0
H297 H 0.3789 0.59132 0.03517 0.0
H298 H 0.62667 0.41 0.96685 0.0
H299 H 0.64199 0.41644 0.02329 0.0
H300 H 0.60186 0.45202 0.9123 0.0
H301 H 0.53181 0.48583 0.88814 0.0
C302 C 0.95575 0.9951 0.95876 0.0
C303 C 0.0316 0.98269 0.95824 0.0
C304 C 0.04155 1.00042 0.03776 0.0
C305 C 0.96578 0.01307 0.0382 0.0
N306 N 0.84801 0.01748 0.00193 0.0
N307 N 0.14901 0.97683 0.9948 0.0
C308 C 0.922 0.00885 0.99948 0.0
C309 C 0.07521 0.98631 0.9971 0.0
N310 N 0.9173 0.99654 0.91975 0.0
N311 N 0.08002 0.99935 0.07679 0.0
H312 H 0.17465 0.96365 0.96625 0.0
H313 H 0.18604 0.98395 0.02026 0.0
H314 H 0.05678 0.00853 0.10727 0.0
H315 H 0.13348 0.98631 0.08003 0.0
H316 H 0.86394 0.00982 0.91664 0.0
H317 H 0.94054 0.9876 0.88921 0.0
H318 H 0.8111 0.00975 0.97654 0.0
H319 H 0.82214 0.03014 0.0306 0.0
C320 C 0.23927 0.71936 0.38728 0.0
C321 C 0.22222 0.69583 0.34652 0.0
C322 C 0.26609 0.76848 0.30603 0.0
C323 C 0.29151 0.78937 0.34636 0.0
N324 N 0.31532 0.77973 0.42469 0.0
N325 N 0.23739 0.6932 0.26687 0.0
C326 C 0.28177 0.76344 0.38688 0.0
C327 C 0.24072 0.71898 0.30577 0.0
N328 N 0.21246 0.70092 0.42625 0.0
N329 N 0.26259 0.79641 0.26829 0.0
H330 H 0.22278 0.65601 0.26518 0.0
H331 H 0.25724 0.7072 0.23698 0.0
H332 H 0.27684 0.83369 0.26725 0.0
H333 H 0.23762 0.78403 0.23926 0.0
H334 H 0.21715 0.71947 0.45637 0.0
H335 H 0.17901 0.6697 0.42791 0.0
H336 H 0.31593 0.75948 0.45409 0.0
H337 H 0.34896 0.8109 0.42554 0.0
C338 C 0.76882 0.22042 0.11163 0.0
C339 C 0.79216 0.19946 0.15247 0.0
C340 C 0.75439 0.27472 0.19123 0.0
C341 C 0.72203 0.29269 0.15156 0.0
N342 N 0.68806 0.27893 0.07519 0.0
N343 N 0.79233 0.20278 0.23267 0.0
C344 C 0.72647 0.26459 0.11198 0.0
C345 C 0.78103 0.22552 0.19275 0.0
N346 N 0.78949 0.19933 0.07242 0.0
N347 N 0.76277 0.3052 0.227 0.0
H348 H 0.80939 0.16621 0.23577 0.0
H349 H 0.7773 0.21866 0.26279 0.0
H350 H 0.74696 0.34223 0.22683 0.0
H351 H 0.79279 0.29526 0.25506 0.0
H352 H 0.78018 0.2158 0.04169 0.0
H353 H 0.82263 0.16796 0.07067 0.0
H354 H 0.6832 0.25706 0.04695 0.0
H355 H 0.65523 0.31049 0.07434 0.0
C356 C 0.72795 0.23573 0.61324 0.0
C357 C 0.71379 0.21058 0.65368 0.0
C358 C 0.76169 0.28128 0.69515 0.0
C359 C 0.78432 0.30368 0.65482 0.0
N360 N 0.80145 0.29744 0.57562 0.0
N361 N 0.73393 0.20475 0.73278 0.0
C362 C 0.77087 0.27963 0.61381 0.0
C363 C 0.73528 0.23201 0.6946 0.0
N364 N 0.69815 0.21889 0.5745 0.0
N365 N 0.76208 0.30763 0.73379 0.0
H366 H 0.71824 0.16772 0.7338 0.0
H367 H 0.75612 0.21732 0.76256 0.0
H368 H 0.77762 0.34464 0.73556 0.0
H369 H 0.73916 0.29435 0.76314 0.0
H370 H 0.70064 0.23861 0.54486 0.0
H371 H 0.6645 0.18777 0.57283 0.0
H372 H 0.79947 0.2785 0.54559 0.0
H373 H 0.83519 0.32856 0.57476 0.0
C374 C 0.27729 0.73622 0.88806 0.0
C375 C 0.28793 0.70961 0.84805 0.0
C376 C 0.23698 0.77892 0.8059 0.0
C377 C 0.21797 0.80291 0.8461 0.0
N378 N 0.20738 0.79953 0.92589 0.0
N379 N 0.26005 0.70079 0.77004 0.0
C380 C 0.23466 0.78027 0.88741 0.0
C381 C 0.26276 0.72954 0.80724 0.0
N382 N 0.31005 0.72058 0.92637 0.0
N383 N 0.23386 0.80382 0.76648 0.0
H384 H 0.27477 0.66358 0.7698 0.0
H385 H 0.23526 0.7124 0.74066 0.0
H386 H 0.21902 0.84092 0.76397 0.0
H387 H 0.25407 0.78923 0.73694 0.0
H388 H 0.31021 0.74135 0.95542 0.0
H389 H 0.34332 0.68926 0.92803 0.0
H390 H 0.21177 0.78167 0.9564 0.0
H391 H 0.17387 0.83076 0.9268 0.0
loop_
_geom_bond_atom_site_label_1
_geom_bond_atom_site_label_2
_geom_bond_distance
_geom_bond_site_symmetry_2
_ccdc_geom_bond_type
In0 O1 2.294 . S
In0 O2 2.326 . S
In0 O6 2.266 . S
In0 O7 2.326 . S
In0 O8 2.266 . S
In0 O9 2.326 . S
In0 O11 2.294 . S
In0 O12 2.326 . S
O1 In0 2.294 . S
O1 C10 1.240 . S
O2 In0 2.326 . S
O2 C10 1.252 . S
C3 O6 1.252 . S
C3 O7 1.260 . S
C4 O11 1.240 . S
C4 O12 1.252 . S
C5 O8 1.252 . S
C5 O9 1.260 . S
O6 In0 2.266 . S
O6 C3 1.252 . S
O7 In0 2.326 . S
O7 C3 1.260 . S
O8 In0 2.266 . S
O8 C5 1.252 . S
O9 In0 2.326 . S
O9 C5 1.260 . S
C10 O1 1.240 . S
C10 O2 1.252 . S
O11 In0 2.294 . S
O11 C4 1.240 . S
O12 In0 2.326 . S
O12 C4 1.252 . S
In13 O14 2.294 . S
In13 O15 2.326 . S
In13 O19 2.266 . S
In13 O20 2.326 . S
In13 O21 2.266 . S
In13 O22 2.326 1_565 S
In13 O24 2.294 . S
In13 O25 2.326 . S
O14 In13 2.294 . S
O14 C23 1.240 . S
O15 In13 2.326 . S
O15 C23 1.252 . S
C16 O19 1.252 . S
C16 O20 1.260 . S
C17 O24 1.240 . S
C17 O25 1.252 . S
C18 O21 1.252 . S
C18 O22 1.260 1_565 S
O19 In13 2.266 . S
O19 C16 1.252 . S
O20 In13 2.326 . S
O20 C16 1.260 . S
O21 In13 2.266 . S
O21 C18 1.252 . S
O22 In13 2.326 1_545 S
O22 C18 1.260 1_545 S
C23 O14 1.240 . S
C23 O15 1.252 . S
O24 In13 2.294 . S
O24 C17 1.240 . S
O25 In13 2.326 . S
O25 C17 1.252 . S
In26 O27 2.294 . S
In26 O28 2.326 . S
In26 O32 2.266 . S
In26 O33 2.326 . S
In26 O34 2.266 . S
In26 O35 2.326 . S
In26 O37 2.294 . S
In26 O38 2.326 . S
O27 In26 2.294 . S
O27 C36 1.240 . S
O28 In26 2.326 . S
O28 C36 1.252 . S
C29 O32 1.252 . S
C29 O33 1.260 . S
C30 O37 1.240 . S
C30 O38 1.252 . S
C31 O34 1.252 . S
C31 O35 1.260 . S
O32 In26 2.266 . S
O32 C29 1.252 . S
O33 In26 2.326 . S
O33 C29 1.260 . S
O34 In26 2.266 . S
O34 C31 1.252 . S
O35 In26 2.326 . S
O35 C31 1.260 . S
C36 O27 1.240 . S
C36 O28 1.252 . S
O37 In26 2.294 . S
O37 C30 1.240 . S
O38 In26 2.326 . S
O38 C30 1.252 . S
In39 O40 2.294 . S
In39 O41 2.326 . S
In39 O45 2.266 . S
In39 O46 2.326 . S
In39 O47 2.266 . S
In39 O48 2.326 1_545 S
In39 O50 2.294 . S
In39 O51 2.326 . S
O40 In39 2.294 . S
O40 C49 1.240 . S
O41 In39 2.326 . S
O41 C49 1.252 . S
C42 O45 1.252 . S
C42 O46 1.260 . S
C43 O50 1.240 . S
C43 O51 1.252 . S
C44 O47 1.252 . S
C44 O48 1.260 1_545 S
O45 In39 2.266 . S
O45 C42 1.252 . S
O46 In39 2.326 . S
O46 C42 1.260 . S
O47 In39 2.266 . S
O47 C44 1.252 . S
O48 In39 2.326 1_565 S
O48 C44 1.260 1_565 S
C49 O40 1.240 . S
C49 O41 1.252 . S
O50 In39 2.294 . S
O50 C43 1.240 . S
O51 In39 2.326 . S
O51 C43 1.252 . S
In52 O53 2.294 . S
In52 O54 2.326 . S
In52 O58 2.266 . S
In52 O59 2.326 . S
In52 O60 2.266 . S
In52 O61 2.326 . S
In52 O63 2.294 . S
In52 O64 2.326 . S
O53 In52 2.294 . S
O53 C62 1.240 . S
O54 In52 2.326 . S
O54 C62 1.252 . S
C55 O58 1.252 . S
C55 O59 1.260 . S
C56 O63 1.240 . S
C56 O64 1.252 . S
C57 O60 1.252 . S
C57 O61 1.260 . S
O58 In52 2.266 . S
O58 C55 1.252 . S
O59 In52 2.326 . S
O59 C55 1.260 . S
O60 In52 2.266 . S
O60 C57 1.252 . S
O61 In52 2.326 . S
O61 C57 1.260 . S
C62 O53 1.240 . S
C62 O54 1.252 . S
O63 In52 2.294 . S
O63 C56 1.240 . S
O64 In52 2.326 . S
O64 C56 1.252 . S
In65 O66 2.294 . S
In65 O67 2.326 . S
In65 O71 2.266 . S
In65 O72 2.326 . S
In65 O73 2.266 . S
In65 O74 2.326 1_545 S
In65 O76 2.294 . S
In65 O77 2.326 . S
O66 In65 2.294 . S
O66 C75 1.240 . S
O67 In65 2.326 . S
O67 C75 1.252 . S
C68 O71 1.252 . S
C68 O72 1.260 . S
C69 O76 1.240 . S
C69 O77 1.252 . S
C70 O73 1.252 . S
C70 O74 1.260 1_545 S
O71 In65 2.266 . S
O71 C68 1.252 . S
O72 In65 2.326 . S
O72 C68 1.260 . S
O73 In65 2.266 . S
O73 C70 1.252 . S
O74 In65 2.326 1_565 S
O74 C70 1.260 1_565 S
C75 O66 1.240 . S
C75 O67 1.252 . S
O76 In65 2.294 . S
O76 C69 1.240 . S
O77 In65 2.326 . S
O77 C69 1.252 . S
In78 O79 2.294 . S
In78 O80 2.326 . S
In78 O84 2.266 . S
In78 O85 2.326 . S
In78 O86 2.266 . S
In78 O87 2.326 . S
In78 O89 2.294 . S
In78 O90 2.326 . S
O79 In78 2.294 . S
O79 C88 1.240 . S
O80 In78 2.326 . S
O80 C88 1.252 . S
C81 O84 1.252 . S
C81 O85 1.260 . S
C82 O89 1.240 . S
C82 O90 1.252 . S
C83 O86 1.252 . S
C83 O87 1.260 . S
O84 In78 2.266 . S
O84 C81 1.252 . S
O85 In78 2.326 . S
O85 C81 1.260 . S
O86 In78 2.266 . S
O86 C83 1.252 . S
O87 In78 2.326 . S
O87 C83 1.260 . S
C88 O79 1.240 . S
C88 O80 1.252 . S
O89 In78 2.294 . S
O89 C82 1.240 . S
O90 In78 2.326 . S
O90 C82 1.252 . S
In91 O92 2.294 . S
In91 O93 2.326 . S
In91 O97 2.266 . S
In91 O98 2.326 . S
In91 O99 2.266 . S
In91 O100 2.326 1_565 S
In91 O102 2.294 . S
In91 O103 2.326 . S
O92 In91 2.294 . S
O92 C101 1.240 . S
O93 In91 2.326 . S
O93 C101 1.252 . S
C94 O97 1.252 . S
C94 O98 1.260 . S
C95 O102 1.240 . S
C95 O103 1.252 . S
C96 O99 1.252 . S
C96 O100 1.260 1_565 S
O97 In91 2.266 . S
O97 C94 1.252 . S
O98 In91 2.326 . S
O98 C94 1.260 . S
O99 In91 2.266 . S
O99 C96 1.252 . S
O100 In91 2.326 1_545 S
O100 C96 1.260 1_545 S
C101 O92 1.240 . S
C101 O93 1.252 . S
O102 In91 2.294 . S
O102 C95 1.240 . S
O103 In91 2.326 . S
O103 C95 1.252 . S
C104 C105 1.363 . S
C104 C110 1.379 . S
C104 N112 1.356 . S
C105 C104 1.363 . S
C105 C111 1.363 . S
C106 C107 1.363 . S
C106 C111 1.379 . S
C106 N113 1.356 . S
C107 C106 1.363 . S
C107 C110 1.363 . S
N108 C110 1.356 . S
N108 H120 0.984 . S
N108 H121 0.985 . S
N109 C111 1.356 . S
N109 H114 0.984 . S
N109 H115 0.985 . S
C110 C104 1.379 . S
C110 C107 1.363 . S
C110 N108 1.356 . S
C111 C105 1.363 . S
C111 C106 1.379 . S
C111 N109 1.356 . S
N112 C104 1.356 . S
N112 H118 0.984 . S
N112 H119 0.984 . S
N113 C106 1.356 . S
N113 H116 0.984 . S
N113 H117 0.985 . S
H114 N109 0.984 . S
H115 N109 0.985 . S
H116 N113 0.984 . S
H117 N113 0.985 . S
H118 N112 0.984 . S
H119 N112 0.984 . S
H120 N108 0.984 . S
H121 N108 0.985 . S
C122 C123 1.363 1_565 S
C122 C128 1.379 . S
C122 N130 1.356 1_455 S
C123 C122 1.363 1_545 S
C123 C129 1.363 . S
C124 C125 1.363 1_545 S
C124 C129 1.379 . S
C124 N131 1.356 . S
C125 C124 1.363 1_565 S
C125 C128 1.363 . S
N126 C128 1.356 . S
N126 H138 0.984 . S
N126 H139 0.985 . S
N127 C129 1.356 . S
N127 H132 0.984 . S
N127 H133 0.985 . S
C128 C122 1.379 . S
C128 C125 1.363 . S
C128 N126 1.356 . S
C129 C123 1.363 . S
C129 C124 1.379 . S
C129 N127 1.356 . S
N130 C122 1.356 1_655 S
N130 H136 0.984 . S
N130 H137 0.984 . S
N131 C124 1.356 . S
N131 H134 0.984 . S
N131 H135 0.985 . S
H132 N127 0.984 . S
H133 N127 0.985 . S
H134 N131 0.984 . S
H135 N131 0.985 . S
H136 N130 0.984 . S
H137 N130 0.984 . S
H138 N126 0.984 . S
H139 N126 0.985 . S
C140 C141 1.363 . S
C140 C146 1.379 . S
C140 N148 1.356 . S
C141 C140 1.363 . S
C141 C147 1.363 . S
C142 C143 1.363 . S
C142 C147 1.379 . S
C142 N149 1.356 . S
C143 C142 1.363 . S
C143 C146 1.363 . S
N144 C146 1.356 . S
N144 H156 0.984 . S
N144 H157 0.985 . S
N145 C147 1.356 . S
N145 H150 0.984 . S
N145 H151 0.985 . S
C146 C140 1.379 . S
C146 C143 1.363 . S
C146 N144 1.356 . S
C147 C141 1.363 . S
C147 C142 1.379 . S
C147 N145 1.356 . S
N148 C140 1.356 . S
N148 H154 0.984 . S
N148 H155 0.984 . S
N149 C142 1.356 . S
N149 H152 0.984 1_655 S
N149 H153 0.985 . S
H150 N145 0.984 . S
H151 N145 0.985 . S
H152 N149 0.984 1_455 S
H153 N149 0.985 . S
H154 N148 0.984 . S
H155 N148 0.984 . S
H156 N144 0.984 . S
H157 N144 0.985 . S
C158 C159 1.363 . S
C158 C164 1.379 . S
C158 N166 1.356 . S
C159 C158 1.363 . S
C159 C165 1.363 1_545 S
C160 C161 1.363 . S
C160 C165 1.379 . S
C160 N167 1.356 . S
C161 C160 1.363 . S
C161 C164 1.363 1_565 S
N162 C164 1.356 . S
N162 H174 0.984 . S
N162 H175 0.985 . S
N163 C165 1.356 . S
N163 H168 0.984 . S
N163 H169 0.985 . S
C164 C158 1.379 . S
C164 C161 1.363 1_545 S
C164 N162 1.356 . S
C165 C159 1.363 1_565 S
C165 C160 1.379 . S
C165 N163 1.356 . S
N166 C158 1.356 . S
N166 H172 0.984 . S
N166 H173 0.984 . S
N167 C160 1.356 . S
N167 H170 0.984 . S
N167 H171 0.985 . S
H168 N163 0.984 . S
H169 N163 0.985 . S
H170 N167 0.984 . S
H171 N167 0.985 . S
H172 N166 0.984 . S
H173 N166 0.984 . S
H174 N162 0.984 . S
H175 N162 0.985 . S
C176 C177 1.363 . S
C176 C182 1.379 . S
C176 N184 1.356 . S
C177 C176 1.363 . S
C177 C183 1.363 . S
C178 C179 1.363 . S
C178 C183 1.379 . S
C178 N185 1.356 . S
C179 C178 1.363 . S
C179 C182 1.363 . S
N180 C182 1.356 . S
N180 H192 0.984 . S
N180 H193 0.985 . S
N181 C183 1.356 . S
N181 H186 0.984 . S
N181 H187 0.985 . S
C182 C176 1.379 . S
C182 C179 1.363 . S
C182 N180 1.356 . S
C183 C177 1.363 . S
C183 C178 1.379 . S
C183 N181 1.356 . S
N184 C176 1.356 . S
N184 H190 0.984 . S
N184 H191 0.984 . S
N185 C178 1.356 . S
N185 H188 0.984 . S
N185 H189 0.985 . S
H186 N181 0.984 . S
H187 N181 0.985 . S
H188 N185 0.984 . S
H189 N185 0.985 . S
H190 N184 0.984 . S
H191 N184 0.984 . S
H192 N180 0.984 . S
H193 N180 0.985 . S
C194 C195 1.363 1_565 S
C194 C200 1.379 . S
C194 N202 1.356 . S
C195 C194 1.363 1_545 S
C195 C201 1.363 . S
C196 C197 1.363 1_545 S
C196 C201 1.379 . S
C196 N203 1.356 . S
C197 C196 1.363 1_565 S
C197 C200 1.363 . S
N198 C200 1.356 . S
N198 H210 0.984 . S
N198 H211 0.985 . S
N199 C201 1.356 . S
N199 H204 0.984 . S
N199 H205 0.985 . S
C200 C194 1.379 . S
C200 C197 1.363 . S
C200 N198 1.356 . S
C201 C195 1.363 . S
C201 C196 1.379 . S
C201 N199 1.356 . S
N202 C194 1.356 . S
N202 H208 0.984 . S
N202 H209 0.984 . S
N203 C196 1.356 . S
N203 H206 0.984 1_655 S
N203 H207 0.985 . S
H204 N199 0.984 . S
H205 N199 0.985 . S
H206 N203 0.984 1_455 S
H207 N203 0.985 . S
H208 N202 0.984 . S
H209 N202 0.984 . S
H210 N198 0.984 . S
H211 N198 0.985 . S
C212 C213 1.363 . S
C212 C218 1.379 . S
C212 N220 1.356 . S
C213 C212 1.363 . S
C213 C219 1.363 . S
C214 C215 1.363 . S
C214 C219 1.379 . S
C214 N221 1.356 . S
C215 C214 1.363 . S
C215 C218 1.363 . S
N216 C218 1.356 . S
N216 H228 0.984 . S
N216 H229 0.985 1_455 S
N217 C219 1.356 . S
N217 H222 0.984 . S
N217 H223 0.985 . S
C218 C212 1.379 . S
C218 C215 1.363 . S
C218 N216 1.356 . S
C219 C213 1.363 . S
C219 C214 1.379 . S
C219 N217 1.356 . S
N220 C212 1.356 . S
N220 H226 0.984 . S
N220 H227 0.984 . S
N221 C214 1.356 . S
N221 H224 0.984 . S
N221 H225 0.985 . S
H222 N217 0.984 . S
H223 N217 0.985 . S
H224 N221 0.984 . S
H225 N221 0.985 . S
H226 N220 0.984 . S
H227 N220 0.984 . S
H228 N216 0.984 . S
H229 N216 0.985 1_655 S
C230 C231 1.363 . S
C230 C236 1.379 . S
C230 N238 1.356 . S
C231 C230 1.363 . S
C231 C237 1.363 . S
C232 C233 1.363 . S
C232 C237 1.379 1_545 S
C232 N239 1.356 . S
C233 C232 1.363 . S
C233 C236 1.363 1_545 S
N234 C236 1.356 . S
N234 H246 0.984 . S
N234 H247 0.985 1_565 S
N235 C237 1.356 . S
N235 H240 0.984 . S
N235 H241 0.985 1_565 S
C236 C230 1.379 . S
C236 C233 1.363 1_565 S
C236 N234 1.356 . S
C237 C231 1.363 . S
C237 C232 1.379 1_565 S
C237 N235 1.356 . S
N238 C230 1.356 . S
N238 H244 0.984 . S
N238 H245 0.984 . S
N239 C232 1.356 . S
N239 H242 0.984 . S
N239 H243 0.985 . S
H240 N235 0.984 . S
H241 N235 0.985 1_545 S
H242 N239 0.984 . S
H243 N239 0.985 . S
H244 N238 0.984 . S
H245 N238 0.984 . S
H246 N234 0.984 . S
H247 N234 0.985 1_545 S
C248 C249 1.363 . S
C248 C254 1.379 . S
C248 N256 1.356 . S
C249 C248 1.363 . S
C249 C255 1.363 1_455 S
C250 C251 1.363 . S
C250 C255 1.379 . S
C250 N257 1.356 . S
C251 C250 1.363 . S
C251 C254 1.363 1_655 S
N252 C254 1.356 . S
N252 H264 0.984 . S
N252 H265 0.985 1_455 S
N253 C255 1.356 . S
N253 H258 0.984 1_655 S
N253 H259 0.985 . S
C254 C248 1.379 . S
C254 C251 1.363 1_455 S
C254 N252 1.356 . S
C255 C249 1.363 1_655 S
C255 C250 1.379 . S
C255 N253 1.356 . S
N256 C248 1.356 . S
N256 H262 0.984 . S
N256 H263 0.984 . S
N257 C250 1.356 . S
N257 H260 0.984 . S
N257 H261 0.985 . S
H258 N253 0.984 1_455 S
H259 N253 0.985 . S
H260 N257 0.984 . S
H261 N257 0.985 . S
H262 N256 0.984 . S
H263 N256 0.984 . S
H264 N252 0.984 . S
H265 N252 0.985 1_655 S
C266 C267 1.363 . S
C266 C272 1.379 . S
C266 N274 1.356 . S
C267 C266 1.363 . S
C267 C273 1.363 1_565 S
C268 C269 1.363 . S
C268 C273 1.379 . S
C268 N275 1.356 . S
C269 C268 1.363 . S
C269 C272 1.363 1_545 S
N270 C272 1.356 . S
N270 H282 0.984 . S
N270 H283 0.985 1_565 S
N271 C273 1.356 . S
N271 H276 0.984 1_545 S
N271 H277 0.985 . S
C272 C266 1.379 . S
C272 C269 1.363 1_565 S
C272 N270 1.356 . S
C273 C267 1.363 1_545 S
C273 C268 1.379 . S
C273 N271 1.356 . S
N274 C266 1.356 . S
N274 H280 0.984 . S
N274 H281 0.984 . S
N275 C268 1.356 . S
N275 H278 0.984 . S
N275 H279 0.985 . S
H276 N271 0.984 1_565 S
H277 N271 0.985 . S
H278 N275 0.984 . S
H279 N275 0.985 . S
H280 N274 0.984 . S
H281 N274 0.984 . S
H282 N270 0.984 . S
H283 N270 0.985 1_545 S
C284 C285 1.363 . S
C284 C290 1.379 1_554 S
C284 N292 1.356 . S
C285 C284 1.363 . S
C285 C291 1.363 . S
C286 C287 1.363 . S
C286 C291 1.379 1_556 S
C286 N293 1.356 . S
C287 C286 1.363 . S
C287 C290 1.363 . S
N288 C290 1.356 . S
N288 H300 0.984 . S
N288 H301 0.985 . S
N289 C291 1.356 . S
N289 H294 0.984 . S
N289 H295 0.985 . S
C290 C284 1.379 1_556 S
C290 C287 1.363 . S
C290 N288 1.356 . S
C291 C285 1.363 . S
C291 C286 1.379 1_554 S
C291 N289 1.356 . S
N292 C284 1.356 . S
N292 H298 0.984 1_554 S
N292 H299 0.984 . S
N293 C286 1.356 . S
N293 H296 0.984 . S
N293 H297 0.985 1_556 S
H294 N289 0.984 . S
H295 N289 0.985 . S
H296 N293 0.984 . S
H297 N293 0.985 1_554 S
H298 N292 0.984 1_556 S
H299 N292 0.984 . S
H300 N288 0.984 . S
H301 N288 0.985 . S
C302 C303 1.363 1_655 S
C302 C308 1.379 1_556 S
C302 N310 1.356 . S
C303 C302 1.363 1_455 S
C303 C309 1.363 1_565 S
C304 C305 1.363 1_455 S
C304 C309 1.379 1_554 S
C304 N311 1.356 . S
C305 C304 1.363 1_655 S
C305 C308 1.363 1_545 S
N306 C308 1.356 . S
N306 H318 0.984 . S
N306 H319 0.985 . S
N307 C309 1.356 . S
N307 H312 0.984 . S
N307 H313 0.985 . S
C308 C302 1.379 1_554 S
C308 C305 1.363 1_565 S
C308 N306 1.356 . S
C309 C303 1.363 1_545 S
C309 C304 1.379 1_556 S
C309 N307 1.356 . S
N310 C302 1.356 . S
N310 H316 0.984 . S
N310 H317 0.984 . S
N311 C304 1.356 . S
N311 H314 0.984 . S
N311 H315 0.985 . S
H312 N307 0.984 . S
H313 N307 0.985 . S
H314 N311 0.984 . S
H315 N311 0.985 . S
H316 N310 0.984 . S
H317 N310 0.984 . S
H318 N306 0.984 . S
H319 N306 0.985 . S
C320 C321 1.363 . S
C320 C326 1.379 . S
C320 N328 1.356 . S
C321 C320 1.363 . S
C321 C327 1.363 . S
C322 C323 1.363 . S
C322 C327 1.379 . S
C322 N329 1.356 . S
C323 C322 1.363 . S
C323 C326 1.363 . S
N324 C326 1.356 . S
N324 H336 0.984 . S
N324 H337 0.985 . S
N325 C327 1.356 . S
N325 H330 0.984 . S
N325 H331 0.985 . S
C326 C320 1.379 . S
C326 C323 1.363 . S
C326 N324 1.356 . S
C327 C321 1.363 . S
C327 C322 1.379 . S
C327 N325 1.356 . S
N328 C320 1.356 . S
N328 H334 0.984 . S
N328 H335 0.984 . S
N329 C322 1.356 . S
N329 H332 0.984 . S
N329 H333 0.985 . S
H330 N325 0.984 . S
H331 N325 0.985 . S
H332 N329 0.984 . S
H333 N329 0.985 . S
H334 N328 0.984 . S
H335 N328 0.984 . S
H336 N324 0.984 . S
H337 N324 0.985 . S
C338 C339 1.363 . S
C338 C344 1.379 . S
C338 N346 1.356 . S
C339 C338 1.363 . S
C339 C345 1.363 . S
C340 C341 1.363 . S
C340 C345 1.379 . S
C340 N347 1.356 . S
C341 C340 1.363 . S
C341 C344 1.363 . S
N342 C344 1.356 . S
N342 H354 0.984 . S
N342 H355 0.985 . S
N343 C345 1.356 . S
N343 H348 0.984 . S
N343 H349 0.985 . S
C344 C338 1.379 . S
C344 C341 1.363 . S
C344 N342 1.356 . S
C345 C339 1.363 . S
C345 C340 1.379 . S
C345 N343 1.356 . S
N346 C338 1.356 . S
N346 H352 0.984 . S
N346 H353 0.984 . S
N347 C340 1.356 . S
N347 H350 0.984 . S
N347 H351 0.985 . S
H348 N343 0.984 . S
H349 N343 0.985 . S
H350 N347 0.984 . S
H351 N347 0.985 . S
H352 N346 0.984 . S
H353 N346 0.984 . S
H354 N342 0.984 . S
H355 N342 0.985 . S
C356 C357 1.363 . S
C356 C362 1.379 . S
C356 N364 1.356 . S
C357 C356 1.363 . S
C357 C363 1.363 . S
C358 C359 1.363 . S
C358 C363 1.379 . S
C358 N365 1.356 . S
C359 C358 1.363 . S
C359 C362 1.363 . S
N360 C362 1.356 . S
N360 H372 0.984 . S
N360 H373 0.985 . S
N361 C363 1.356 . S
N361 H366 0.984 . S
N361 H367 0.985 . S
C362 C356 1.379 . S
C362 C359 1.363 . S
C362 N360 1.356 . S
C363 C357 1.363 . S
C363 C358 1.379 . S
C363 N361 1.356 . S
N364 C356 1.356 . S
N364 H370 0.984 . S
N364 H371 0.984 . S
N365 C358 1.356 . S
N365 H368 0.984 . S
N365 H369 0.985 . S
H366 N361 0.984 . S
H367 N361 0.985 . S
H368 N365 0.984 . S
H369 N365 0.985 . S
H370 N364 0.984 . S
H371 N364 0.984 . S
H372 N360 0.984 . S
H373 N360 0.985 . S
C374 C375 1.363 . S
C374 C380 1.379 . S
C374 N382 1.356 . S
C375 C374 1.363 . S
C375 C381 1.363 . S
C376 C377 1.363 . S
C376 C381 1.379 . S
C376 N383 1.356 . S
C377 C376 1.363 . S
C377 C380 1.363 . S
N378 C380 1.356 . S
N378 H390 0.984 . S
N378 H391 0.985 . S
N379 C381 1.356 . S
N379 H384 0.984 . S
N379 H385 0.985 . S
C380 C374 1.379 . S
C380 C377 1.363 . S
C380 N378 1.356 . S
C381 C375 1.363 . S
C381 C376 1.379 . S
C381 N379 1.356 . S
N382 C374 1.356 . S
N382 H388 0.984 . S
N382 H389 0.984 . S
N383 C376 1.356 . S
N383 H386 0.984 . S
N383 H387 0.985 . S
H384 N379 0.984 . S
H385 N379 0.985 . S
H386 N383 0.984 . S
H387 N383 0.985 . S
H388 N382 0.984 . S
H389 N382 0.984 . S
H390 N378 0.984 . S
H391 N378 0.985 . S
C105 C10 1.543 . S
C107 C29 1.544 . S
C123 C44 1.544 1_455 S
C125 C23 1.543 . S
C141 C30 1.543 . S
C143 C5 1.544 1_655 S
C159 C49 1.543 . S
C161 C18 1.544 . S
C177 C83 1.544 . S
C179 C56 1.543 . S
C195 C75 1.543 . S
C197 C96 1.544 1_655 S
C213 C88 1.543 . S
C215 C55 1.544 1_455 S
C231 C101 1.543 . S
C233 C70 1.544 . S
C249 C3 1.519 . S
C251 C57 1.519 . S
C267 C16 1.519 . S
C269 C68 1.519 . S
C285 C31 1.519 . S
C287 C81 1.519 . S
C303 C94 1.519 . S
C305 C42 1.519 . S
C321 C4 1.521 . S
C323 C17 1.521 . S
C339 C43 1.521 . S
C341 C36 1.521 . S
C357 C69 1.521 . S
C359 C62 1.521 . S
C375 C82 1.521 . S
C377 C95 1.521 . S
