# Generated by pormake.
# Topology mer, (4)-cn, num edge types: 1
# Building blocks:
#     Node 0, Type 0, BuildingBlock: NAHDIM_clean_sbu_0, # of connection points: 4
#     Node 1, Type 0, BuildingBlock: NAHDIM_clean_sbu_0, # of connection points: 4
#     Node 2, Type 0, BuildingBlock: NAHDIM_clean_sbu_0, # of connection points: 4
#     Node 3, Type 0, BuildingBlock: NAHDIM_clean_sbu_0, # of connection points: 4
#     Node 4, Type 0, BuildingBlock: NAHDIM_clean_sbu_0, # of connection points: 4
#     Node 5, Type 0, BuildingBlock: NAHDIM_clean_sbu_0, # of connection points: 4
#     Node 6, Type 0, BuildingBlock: NAHDIM_clean_sbu_0, # of connection points: 4
#     Node 7, Type 0, BuildingBlock: NAHDIM_clean_sbu_0, # of connection points: 4
#     Node 8, Type 0, BuildingBlock: NAHDIM_clean_sbu_0, # of connection points: 4
#     Node 9, Type 0, BuildingBlock: NAHDIM_clean_sbu_0, # of connection points: 4
#     Node 10, Type 0, BuildingBlock: NAHDIM_clean_sbu_0, # of connection points: 4
#     Node 11, Type 0, BuildingBlock: NAHDIM_clean_sbu_0, # of connection points: 4
#     Node 12, Type 0, BuildingBlock: NAHDIM_clean_sbu_0, # of connection points: 4
#     Node 13, Type 0, BuildingBlock: NAHDIM_clean_sbu_0, # of connection points: 4
#     Node 14, Type 0, BuildingBlock: NAHDIM_clean_sbu_0, # of connection points: 4
#     Node 15, Type 0, BuildingBlock: NAHDIM_clean_sbu_0, # of connection points: 4
#     Node 16, Type 0, BuildingBlock: NAHDIM_clean_sbu_0, # of connection points: 4
#     Node 17, Type 0, BuildingBlock: NAHDIM_clean_sbu_0, # of connection points: 4
#     Node 18, Type 0, BuildingBlock: NAHDIM_clean_sbu_0, # of connection points: 4
#     Node 19, Type 0, BuildingBlock: NAHDIM_clean_sbu_0, # of connection points: 4
#     Node 20, Type 0, BuildingBlock: NAHDIM_clean_sbu_0, # of connection points: 4
#     Node 21, Type 0, BuildingBlock: NAHDIM_clean_sbu_0, # of connection points: 4
#     Node 22, Type 0, BuildingBlock: NAHDIM_clean_sbu_0, # of connection points: 4
#     Node 23, Type 0, BuildingBlock: NAHDIM_clean_sbu_0, # of connection points: 4
#     Node 24, Type 0, BuildingBlock: NAHDIM_clean_sbu_0, # of connection points: 4
#     Node 25, Type 0, BuildingBlock: NAHDIM_clean_sbu_0, # of connection points: 4
#     Node 26, Type 0, BuildingBlock: NAHDIM_clean_sbu_0, # of connection points: 4
#     Node 27, Type 0, BuildingBlock: NAHDIM_clean_sbu_0, # of connection points: 4
#     Node 28, Type 0, BuildingBlock: NAHDIM_clean_sbu_0, # of connection points: 4
#     Node 29, Type 0, BuildingBlock: NAHDIM_clean_sbu_0, # of connection points: 4
#     Node 30, Type 0, BuildingBlock: NAHDIM_clean_sbu_0, # of connection points: 4
#     Node 31, Type 0, BuildingBlock: NAHDIM_clean_sbu_0, # of connection points: 4
#     Edge 32, Type (0, 0), BuildingBlock: CIFDUS_clean_linker_0, # of connection points: 2
#     Edge 33, Type (0, 0), BuildingBlock: CIFDUS_clean_linker_0, # of connection points: 2
#     Edge 34, Type (0, 0), BuildingBlock: CIFDUS_clean_linker_0, # of connection points: 2
#     Edge 35, Type (0, 0), BuildingBlock: CIFDUS_clean_linker_0, # of connection points: 2
#     Edge 36, Type (0, 0), BuildingBlock: CIFDUS_clean_linker_0, # of connection points: 2
#     Edge 37, Type (0, 0), BuildingBlock: CIFDUS_clean_linker_0, # of connection points: 2
#     Edge 38, Type (0, 0), BuildingBlock: CIFDUS_clean_linker_0, # of connection points: 2
#     Edge 39, Type (0, 0), BuildingBlock: CIFDUS_clean_linker_0, # of connection points: 2
#     Edge 40, Type (0, 0), BuildingBlock: CIFDUS_clean_linker_0, # of connection points: 2
#     Edge 41, Type (0, 0), BuildingBlock: CIFDUS_clean_linker_0, # of connection points: 2
#     Edge 42, Type (0, 0), BuildingBlock: CIFDUS_clean_linker_0, # of connection points: 2
#     Edge 43, Type (0, 0), BuildingBlock: CIFDUS_clean_linker_0, # of connection points: 2
#     Edge 44, Type (0, 0), BuildingBlock: CIFDUS_clean_linker_0, # of connection points: 2
#     Edge 45, Type (0, 0), BuildingBlock: CIFDUS_clean_linker_0, # of connection points: 2
#     Edge 46, Type (0, 0), BuildingBlock: CIFDUS_clean_linker_0, # of connection points: 2
#     Edge 47, Type (0, 0), BuildingBlock: CIFDUS_clean_linker_0, # of connection points: 2
#     Edge 48, Type (0, 0), BuildingBlock: CIFDUS_clean_linker_0, # of connection points: 2
#     Edge 49, Type (0, 0), BuildingBlock: CIFDUS_clean_linker_0, # of connection points: 2
#     Edge 50, Type (0, 0), BuildingBlock: CIFDUS_clean_linker_0, # of connection points: 2
#     Edge 51, Type (0, 0), BuildingBlock: CIFDUS_clean_linker_0, # of connection points: 2
#     Edge 52, Type (0, 0), BuildingBlock: CIFDUS_clean_linker_0, # of connection points: 2
#     Edge 53, Type (0, 0), BuildingBlock: CIFDUS_clean_linker_0, # of connection points: 2
#     Edge 54, Type (0, 0), BuildingBlock: CIFDUS_clean_linker_0, # of connection points: 2
#     Edge 55, Type (0, 0), BuildingBlock: CIFDUS_clean_linker_0, # of connection points: 2
#     Edge 56, Type (0, 0), BuildingBlock: CIFDUS_clean_linker_0, # of connection points: 2
#     Edge 57, Type (0, 0), BuildingBlock: CIFDUS_clean_linker_0, # of connection points: 2
#     Edge 58, Type (0, 0), BuildingBlock: CIFDUS_clean_linker_0, # of connection points: 2
#     Edge 59, Type (0, 0), BuildingBlock: CIFDUS_clean_linker_0, # of connection points: 2
#     Edge 60, Type (0, 0), BuildingBlock: CIFDUS_clean_linker_0, # of connection points: 2
#     Edge 61, Type (0, 0), BuildingBlock: CIFDUS_clean_linker_0, # of connection points: 2
#     Edge 62, Type (0, 0), BuildingBlock: CIFDUS_clean_linker_0, # of connection points: 2
#     Edge 63, Type (0, 0), BuildingBlock: CIFDUS_clean_linker_0, # of connection points: 2
#     Edge 64, Type (0, 0), BuildingBlock: CIFDUS_clean_linker_0, # of connection points: 2
#     Edge 65, Type (0, 0), BuildingBlock: CIFDUS_clean_linker_0, # of connection points: 2
#     Edge 66, Type (0, 0), BuildingBlock: CIFDUS_clean_linker_0, # of connection points: 2
#     Edge 67, Type (0, 0), BuildingBlock: CIFDUS_clean_linker_0, # of connection points: 2
#     Edge 68, Type (0, 0), BuildingBlock: CIFDUS_clean_linker_0, # of connection points: 2
#     Edge 69, Type (0, 0), BuildingBlock: CIFDUS_clean_linker_0, # of connection points: 2
#     Edge 70, Type (0, 0), BuildingBlock: CIFDUS_clean_linker_0, # of connection points: 2
#     Edge 71, Type (0, 0), BuildingBlock: CIFDUS_clean_linker_0, # of connection points: 2
#     Edge 72, Type (0, 0), BuildingBlock: CIFDUS_clean_linker_0, # of connection points: 2
#     Edge 73, Type (0, 0), BuildingBlock: CIFDUS_clean_linker_0, # of connection points: 2
#     Edge 74, Type (0, 0), BuildingBlock: CIFDUS_clean_linker_0, # of connection points: 2
#     Edge 75, Type (0, 0), BuildingBlock: CIFDUS_clean_linker_0, # of connection points: 2
#     Edge 76, Type (0, 0), BuildingBlock: CIFDUS_clean_linker_0, # of connection points: 2
#     Edge 77, Type (0, 0), BuildingBlock: CIFDUS_clean_linker_0, # of connection points: 2
#     Edge 78, Type (0, 0), BuildingBlock: CIFDUS_clean_linker_0, # of connection points: 2
#     Edge 79, Type (0, 0), BuildingBlock: CIFDUS_clean_linker_0, # of connection points: 2
#     Edge 80, Type (0, 0), BuildingBlock: CIFDUS_clean_linker_0, # of connection points: 2
#     Edge 81, Type (0, 0), BuildingBlock: CIFDUS_clean_linker_0, # of connection points: 2
#     Edge 82, Type (0, 0), BuildingBlock: CIFDUS_clean_linker_0, # of connection points: 2
#     Edge 83, Type (0, 0), BuildingBlock: CIFDUS_clean_linker_0, # of connection points: 2
#     Edge 84, Type (0, 0), BuildingBlock: CIFDUS_clean_linker_0, # of connection points: 2
#     Edge 85, Type (0, 0), BuildingBlock: CIFDUS_clean_linker_0, # of connection points: 2
#     Edge 86, Type (0, 0), BuildingBlock: CIFDUS_clean_linker_0, # of connection points: 2
#     Edge 87, Type (0, 0), BuildingBlock: CIFDUS_clean_linker_0, # of connection points: 2
#     Edge 88, Type (0, 0), BuildingBlock: CIFDUS_clean_linker_0, # of connection points: 2
#     Edge 89, Type (0, 0), BuildingBlock: CIFDUS_clean_linker_0, # of connection points: 2
#     Edge 90, Type (0, 0), BuildingBlock: CIFDUS_clean_linker_0, # of connection points: 2
#     Edge 91, Type (0, 0), BuildingBlock: CIFDUS_clean_linker_0, # of connection points: 2
#     Edge 92, Type (0, 0), BuildingBlock: CIFDUS_clean_linker_0, # of connection points: 2
#     Edge 93, Type (0, 0), BuildingBlock: CIFDUS_clean_linker_0, # of connection points: 2
#     Edge 94, Type (0, 0), BuildingBlock: CIFDUS_clean_linker_0, # of connection points: 2
#     Edge 95, Type (0, 0), BuildingBlock: CIFDUS_clean_linker_0, # of connection points: 2
# Relax obj value: 0.161
# Max RMSD: 0.165
# Mean RMSD: 0.153
data_MOF--net-mer--node1-NAHDIM_clean_sbu_0--edge1-CIFDUS_clean_linker_0
_symmetry_space_group_name_H-M    P1
_symmetry_Int_Tables_number       1
_symmetry_cell_setting            triclinic
loop_
_symmetry_equiv_pos_as_xyz
'x, y, z'
_cell_length_a     61.057869
_cell_length_b     59.559426
_cell_length_c     38.787844
_cell_angle_alpha  89.898847
_cell_angle_beta   89.953079
_cell_angle_gamma 90.023785
loop_
_atom_site_label
_atom_site_type_symbol
_atom_site_fract_x
_atom_site_fract_y
_atom_site_fract_z
_atom_type_partial_charge
C0 C 0.04741 0.23764 0.27516 0.0
O1 O 0.05606 0.25668 0.26473 0.0
O2 O 0.10368 0.2549 0.27088 0.0
Zn3 Zn 0.09201 0.22778 0.29631 0.0
O4 O 0.09635 0.23267 0.34702 0.0
C5 C 0.11951 0.19822 0.25513 0.0
O6 O 0.1167 0.21347 0.23102 0.0
O7 O 0.05978 0.22268 0.28812 0.0
C8 C 0.11564 0.23321 0.35926 0.0
O9 O 0.13237 0.23067 0.3383 0.0
C10 C 0.10356 0.27414 0.28505 0.0
O11 O 0.09479 0.27636 0.31579 0.0
O12 O 0.10983 0.20056 0.28391 0.0
C13 C 0.66251 0.1214 0.29877 0.0
O14 O 0.66878 0.1032 0.28242 0.0
O15 O 0.69589 0.07727 0.32735 0.0
Zn16 Zn 0.6978 0.10912 0.34406 0.0
O17 O 0.72482 0.12437 0.32578 0.0
C18 C 0.70215 0.12579 0.41423 0.0
O19 O 0.70587 0.14512 0.39892 0.0
O20 O 0.67208 0.12682 0.32664 0.0
C21 C 0.74398 0.12168 0.33784 0.0
O22 O 0.74697 0.10787 0.36387 0.0
C23 C 0.70941 0.06839 0.30652 0.0
O24 O 0.72578 0.08037 0.29447 0.0
O25 O 0.6982 0.10857 0.39595 0.0
C26 C 0.94525 0.75726 0.32648 0.0
O27 O 0.9354 0.74646 0.30138 0.0
O28 O 0.89104 0.73508 0.3277 0.0
Zn29 Zn 0.90136 0.76187 0.3544 0.0
O30 O 0.8935 0.75818 0.40434 0.0
C31 C 0.88207 0.79145 0.30417 0.0
O32 O 0.8901 0.77672 0.28238 0.0
O33 O 0.93389 0.76545 0.35084 0.0
C34 C 0.87377 0.76001 0.41439 0.0
O35 O 0.85837 0.76398 0.39154 0.0
C36 C 0.88949 0.71553 0.34057 0.0
O37 O 0.89546 0.71217 0.37271 0.0
O38 O 0.88569 0.78896 0.3362 0.0
C39 C 0.31381 0.859 0.31604 0.0
O40 O 0.29767 0.86467 0.29538 0.0
O41 O 0.2849 0.91165 0.33646 0.0
Zn42 Zn 0.28542 0.88152 0.36029 0.0
O43 O 0.2601 0.86217 0.34524 0.0
C44 C 0.27464 0.90365 0.42367 0.0
O45 O 0.26758 0.91897 0.40198 0.0
O46 O 0.31294 0.86508 0.34738 0.0
C47 C 0.24132 0.86302 0.35932 0.0
O48 O 0.23778 0.8776 0.38406 0.0
C49 C 0.26896 0.91859 0.31826 0.0
O50 O 0.25215 0.90528 0.31293 0.0
O51 O 0.28351 0.88594 0.41187 0.0
C52 C 0.05275 0.7613 0.71723 0.0
O53 O 0.06049 0.77963 0.70278 0.0
O54 O 0.11458 0.72331 0.72985 0.0
Zn55 Zn 0.09579 0.744 0.70175 0.0
O56 O 0.09485 0.73323 0.65277 0.0
C57 C 0.12186 0.78216 0.72381 0.0
O58 O 0.12539 0.76979 0.75132 0.0
O59 O 0.06516 0.74432 0.72037 0.0
C60 C 0.1127 0.73003 0.63664 0.0
O61 O 0.13132 0.73279 0.65307 0.0
C62 C 0.11014 0.70254 0.73249 0.0
O63 O 0.09275 0.69457 0.71676 0.0
O64 O 0.1092 0.77483 0.70043 0.0
C65 C 0.30945 0.11937 0.69359 0.0
O66 O 0.29811 0.10517 0.71246 0.0
O67 O 0.27538 0.07518 0.66074 0.0
Zn68 Zn 0.27736 0.10708 0.64373 0.0
O69 O 0.25154 0.12461 0.66126 0.0
C70 C 0.28813 0.09498 0.57297 0.0
O71 O 0.30035 0.07953 0.58762 0.0
O72 O 0.30415 0.12227 0.66224 0.0
C73 C 0.23338 0.12475 0.64532 0.0
O74 O 0.23126 0.11273 0.61716 0.0
C75 C 0.26177 0.06181 0.64692 0.0
O76 O 0.24969 0.06899 0.62117 0.0
O77 O 0.27729 0.10841 0.59184 0.0
C78 C 0.93534 0.22979 0.68411 0.0
O79 O 0.92586 0.21009 0.68099 0.0
O80 O 0.87592 0.27257 0.68047 0.0
Zn81 Zn 0.8932 0.24662 0.66205 0.0
O82 O 0.89403 0.24873 0.61054 0.0
C83 C 0.87326 0.21243 0.70564 0.0
O84 O 0.88011 0.22512 0.7311 0.0
O85 O 0.92418 0.24745 0.67879 0.0
C86 C 0.87636 0.24932 0.59333 0.0
O87 O 0.85755 0.24881 0.60981 0.0
C88 C 0.87915 0.28062 0.71032 0.0
O89 O 0.89489 0.27231 0.72956 0.0
O90 O 0.87767 0.21805 0.6748 0.0
C91 C 0.67299 0.87077 0.6858 0.0
O92 O 0.67967 0.88946 0.70033 0.0
O93 O 0.70157 0.91547 0.63996 0.0
Zn94 Zn 0.70572 0.88207 0.63496 0.0
O95 O 0.73368 0.87187 0.65721 0.0
C96 C 0.69918 0.8852 0.5607 0.0
O97 O 0.68744 0.90297 0.56845 0.0
O98 O 0.68126 0.86486 0.65715 0.0
C99 C 0.75208 0.87628 0.64346 0.0
O100 O 0.75266 0.88873 0.61547 0.0
C101 C 0.71227 0.92705 0.66168 0.0
O102 O 0.72621 0.91697 0.68232 0.0
O103 O 0.70788 0.87383 0.58481 0.0
C104 C 0.92298 0.76135 0.71853 0.0
O105 O 0.91596 0.74062 0.72197 0.0
O106 O 0.86952 0.74021 0.71953 0.0
Zn107 Zn 0.88004 0.76656 0.69125 0.0
O108 O 0.88312 0.75799 0.64126 0.0
C109 C 0.84276 0.79292 0.7149 0.0
O110 O 0.84059 0.77689 0.73796 0.0
O111 O 0.90994 0.77618 0.70699 0.0
C112 C 0.8678 0.76125 0.61965 0.0
O113 O 0.84902 0.76939 0.63046 0.0
C114 C 0.85739 0.72489 0.7071 0.0
O115 O 0.85122 0.7262 0.67474 0.0
O116 O 0.85871 0.79222 0.69388 0.0
C117 C 0.26888 0.93806 0.72444 0.0
O118 O 0.28337 0.92946 0.74569 0.0
O119 O 0.28444 0.87817 0.72612 0.0
Zn120 Zn 0.25919 0.89164 0.70049 0.0
O121 O 0.26362 0.88539 0.64976 0.0
C122 C 0.21426 0.87484 0.70063 0.0
O123 O 0.21281 0.88502 0.67064 0.0
O124 O 0.25723 0.92512 0.70603 0.0
C125 C 0.2572 0.89974 0.62765 0.0
O126 O 0.24694 0.91783 0.63828 0.0
C127 C 0.30455 0.88264 0.72123 0.0
O128 O 0.31009 0.89831 0.69898 0.0
O129 O 0.232 0.87614 0.71759 0.0
C130 C 0.06094 0.2574 0.65808 0.0
O131 O 0.06899 0.2761 0.64524 0.0
O132 O 0.12002 0.26713 0.65294 0.0
Zn133 Zn 0.1021 0.24136 0.63497 0.0
O134 O 0.09753 0.24549 0.58422 0.0
C135 C 0.1339 0.20976 0.66246 0.0
O136 O 0.13834 0.22596 0.6843 0.0
O137 O 0.07261 0.23976 0.65754 0.0
C138 C 0.11393 0.24402 0.56419 0.0
O139 O 0.13346 0.24076 0.57751 0.0
C140 C 0.11766 0.27499 0.68314 0.0
O141 O 0.10287 0.26617 0.70372 0.0
O142 O 0.11862 0.21246 0.64065 0.0
C143 C 0.71977 0.06048 0.6746 0.0
O144 O 0.70406 0.07037 0.65713 0.0
O145 O 0.71999 0.12257 0.71455 0.0
Zn146 Zn 0.73579 0.10554 0.67736 0.0
O147 O 0.72298 0.11167 0.63044 0.0
C148 C 0.77681 0.12334 0.70265 0.0
O149 O 0.76713 0.12165 0.7328 0.0
O150 O 0.73527 0.07232 0.68671 0.0
C151 C 0.72484 0.13096 0.61668 0.0
O152 O 0.73396 0.14724 0.63444 0.0
C153 C 0.69948 0.12605 0.71553 0.0
O154 O 0.68699 0.11785 0.69102 0.0
O155 O 0.76679 0.11666 0.67586 0.0
C156 C 0.91765 0.24774 0.28939 0.0
O157 O 0.90545 0.26546 0.28334 0.0
O158 O 0.8601 0.25515 0.29784 0.0
Zn159 Zn 0.87839 0.23245 0.3236 0.0
O160 O 0.87887 0.24054 0.3738 0.0
C161 C 0.84763 0.1987 0.3009 0.0
O162 O 0.84292 0.21388 0.27744 0.0
O163 O 0.90939 0.23117 0.30554 0.0
C164 C 0.86065 0.2408 0.38969 0.0
O165 O 0.84259 0.23672 0.37239 0.0
C166 C 0.85691 0.27507 0.30844 0.0
O167 O 0.86668 0.28188 0.33671 0.0
O168 O 0.86333 0.20236 0.32162 0.0
C169 C 0.72291 0.93738 0.27756 0.0
O170 O 0.705 0.92648 0.28617 0.0
O171 O 0.7254 0.87492 0.25767 0.0
Zn172 Zn 0.74001 0.89479 0.29258 0.0
O173 O 0.72379 0.89449 0.33779 0.0
C174 C 0.78213 0.87487 0.27771 0.0
O175 O 0.77457 0.87432 0.24602 0.0
O176 O 0.74091 0.92674 0.27655 0.0
C177 C 0.72667 0.87917 0.36014 0.0
O178 O 0.73982 0.86236 0.35295 0.0
C179 C 0.70563 0.86848 0.26028 0.0
O180 O 0.69376 0.87545 0.28641 0.0
O181 O 0.77041 0.88342 0.30135 0.0
C182 C 0.07441 0.73912 0.32542 0.0
O183 O 0.08697 0.72827 0.30356 0.0
O184 O 0.12808 0.71776 0.33846 0.0
Zn185 Zn 0.11336 0.74048 0.36878 0.0
O186 O 0.11329 0.73022 0.4181 0.0
C187 C 0.14509 0.77336 0.34516 0.0
O188 O 0.14889 0.7585 0.32091 0.0
O189 O 0.08237 0.7458 0.35388 0.0
C190 C 0.13134 0.72752 0.43383 0.0
O191 O 0.14975 0.73023 0.41675 0.0
C192 C 0.12783 0.69668 0.34345 0.0
O193 O 0.11713 0.68847 0.37004 0.0
O194 O 0.13027 0.76946 0.3674 0.0
C195 C 0.27753 0.0511 0.29991 0.0
O196 O 0.29388 0.06419 0.30893 0.0
O197 O 0.27447 0.11105 0.27478 0.0
Zn198 Zn 0.2558 0.0925 0.30674 0.0
O199 O 0.26508 0.09644 0.35621 0.0
C200 C 0.21742 0.11133 0.27424 0.0
O201 O 0.23025 0.11162 0.24704 0.0
O202 O 0.25869 0.05974 0.29575 0.0
C203 C 0.25838 0.11279 0.37438 0.0
O204 O 0.24573 0.12805 0.36015 0.0
C205 C 0.29185 0.12124 0.28364 0.0
O206 O 0.29904 0.11922 0.31541 0.0
O207 O 0.22456 0.10298 0.30225 0.0
C208 C 0.55565 0.72893 0.76375 0.0
O209 O 0.56527 0.74444 0.74497 0.0
O210 O 0.61055 0.74827 0.76513 0.0
Zn211 Zn 0.59857 0.72379 0.7954 0.0
O212 O 0.60072 0.73288 0.84518 0.0
C213 C 0.62522 0.69037 0.76083 0.0
O214 O 0.62083 0.70224 0.7331 0.0
O215 O 0.56691 0.71776 0.78533 0.0
C216 C 0.61885 0.73176 0.86117 0.0
O217 O 0.63646 0.7253 0.84441 0.0
C218 C 0.60957 0.76883 0.77363 0.0
O219 O 0.60019 0.77439 0.80289 0.0
O220 O 0.61678 0.69606 0.78944 0.0
C221 C 0.18455 0.60591 0.81314 0.0
O222 O 0.18283 0.58402 0.80994 0.0
O223 O 0.22871 0.56675 0.81251 0.0
Zn224 Zn 0.22911 0.59653 0.83659 0.0
O225 O 0.2548 0.615 0.82077 0.0
C226 C 0.22686 0.60535 0.91044 0.0
O227 O 0.2208 0.62557 0.90077 0.0
O228 O 0.2022 0.61427 0.82477 0.0
C229 C 0.27232 0.61713 0.83808 0.0
O230 O 0.27445 0.60614 0.86728 0.0
C231 C 0.24628 0.55561 0.80869 0.0
O232 O 0.26485 0.56434 0.81926 0.0
O233 O 0.23094 0.59066 0.88762 0.0
C234 C 0.43591 0.23968 0.79005 0.0
O235 O 0.4245 0.22872 0.76681 0.0
O236 O 0.38183 0.21865 0.79889 0.0
Zn237 Zn 0.39374 0.24579 0.82318 0.0
O238 O 0.38782 0.24324 0.87403 0.0
C239 C 0.3661 0.27408 0.78022 0.0
O240 O 0.36487 0.25623 0.76049 0.0
O241 O 0.42609 0.24848 0.81557 0.0
C242 C 0.36824 0.24515 0.88478 0.0
O243 O 0.35243 0.24807 0.86224 0.0
C244 C 0.37971 0.19972 0.81366 0.0
O245 O 0.38579 0.19746 0.84596 0.0
O246 O 0.37812 0.27354 0.80694 0.0
C247 C 0.79709 0.35842 0.81588 0.0
O248 O 0.78268 0.36823 0.79572 0.0
O249 O 0.77076 0.40878 0.85382 0.0
Zn250 Zn 0.76867 0.37618 0.86684 0.0
O251 O 0.74111 0.36187 0.84899 0.0
C252 C 0.77501 0.38717 0.93959 0.0
O253 O 0.7852 0.40509 0.92798 0.0
O254 O 0.79463 0.35965 0.84833 0.0
C255 C 0.72326 0.36638 0.86436 0.0
O256 O 0.72338 0.38142 0.88911 0.0
C257 C 0.75837 0.41838 0.83202 0.0
O258 O 0.74301 0.40672 0.81653 0.0
O259 O 0.76753 0.37293 0.91831 0.0
C260 C 0.54482 0.26811 0.23524 0.0
O261 O 0.55647 0.25946 0.26044 0.0
O262 O 0.59773 0.24466 0.22994 0.0
Zn263 Zn 0.58673 0.27 0.20061 0.0
O264 O 0.59279 0.26269 0.15077 0.0
C265 C 0.6103 0.30095 0.24381 0.0
O266 O 0.6043 0.28687 0.26816 0.0
O267 O 0.55439 0.27425 0.20767 0.0
C268 C 0.61243 0.26311 0.13989 0.0
O269 O 0.62821 0.2683 0.16149 0.0
C270 C 0.59585 0.22425 0.22108 0.0
O271 O 0.58597 0.21932 0.19198 0.0
O272 O 0.60375 0.29768 0.21312 0.0
C273 C 0.8223 0.63663 0.21332 0.0
O274 O 0.81485 0.61876 0.22941 0.0
O275 O 0.79578 0.58936 0.17642 0.0
Zn276 Zn 0.79285 0.62138 0.16061 0.0
O277 O 0.76296 0.63344 0.17181 0.0
C278 C 0.80452 0.60703 0.09139 0.0
O279 O 0.81363 0.59001 0.1075 0.0
O280 O 0.81548 0.64094 0.18308 0.0
C281 C 0.74669 0.6265 0.15442 0.0
O282 O 0.74981 0.61086 0.13107 0.0
C283 C 0.78282 0.5801 0.19778 0.0
O284 O 0.76678 0.59188 0.21126 0.0
O285 O 0.79568 0.62259 0.10892 0.0
C286 C 0.44806 0.73062 0.20799 0.0
O287 O 0.43676 0.72584 0.23588 0.0
O288 O 0.38945 0.76106 0.1961 0.0
Zn289 Zn 0.40605 0.73731 0.17021 0.0
O290 O 0.40296 0.74531 0.12028 0.0
C291 C 0.37821 0.70265 0.19974 0.0
O292 O 0.37461 0.71766 0.22388 0.0
O293 O 0.43819 0.73588 0.18031 0.0
C294 C 0.38397 0.74958 0.10861 0.0
O295 O 0.36711 0.74875 0.12966 0.0
C296 C 0.39382 0.77209 0.22323 0.0
O297 O 0.41219 0.76835 0.23984 0.0
O298 O 0.39166 0.70716 0.17572 0.0
C299 C 0.17352 0.3627 0.17645 0.0
O300 O 0.17895 0.38013 0.19533 0.0
O301 O 0.19807 0.41416 0.14485 0.0
Zn302 Zn 0.20364 0.38275 0.12773 0.0
O303 O 0.23386 0.37205 0.14027 0.0
C304 C 0.20871 0.36679 0.05852 0.0
O305 O 0.21567 0.34876 0.07472 0.0
O306 O 0.18169 0.36068 0.14648 0.0
C307 C 0.25062 0.37989 0.12495 0.0
O308 O 0.24807 0.39603 0.10217 0.0
C309 C 0.21074 0.42436 0.16557 0.0
O310 O 0.22783 0.41377 0.17817 0.0
O311 O 0.20198 0.38342 0.07606 0.0
C312 C 0.41633 0.26495 0.20353 0.0
O313 O 0.40635 0.252 0.22607 0.0
O314 O 0.36955 0.23068 0.19012 0.0
Zn315 Zn 0.37713 0.25809 0.16204 0.0
O316 O 0.37935 0.25028 0.11156 0.0
C317 C 0.3534 0.29992 0.15388 0.0
O318 O 0.36987 0.30518 0.13357 0.0
O319 O 0.40656 0.27017 0.17575 0.0
C320 C 0.36383 0.25268 0.09005 0.0
O321 O 0.3447 0.25992 0.10085 0.0
C322 C 0.35427 0.21773 0.18022 0.0
O323 O 0.34419 0.22211 0.15108 0.0
O324 O 0.35345 0.28104 0.16916 0.0
C325 C 0.76904 0.44875 0.22501 0.0
O326 O 0.786 0.43777 0.21274 0.0
O327 O 0.77163 0.38736 0.24239 0.0
Zn328 Zn 0.75099 0.4062 0.2141 0.0
O329 O 0.76132 0.40631 0.16468 0.0
C330 C 0.71196 0.38429 0.24175 0.0
O331 O 0.72305 0.38354 0.27075 0.0
O332 O 0.75124 0.43818 0.2299 0.0
C333 C 0.75329 0.39318 0.1422 0.0
O334 O 0.73797 0.37887 0.15136 0.0
C335 C 0.77479 0.36716 0.23314 0.0
O336 O 0.76406 0.35936 0.20639 0.0
O337 O 0.72053 0.39351 0.21546 0.0
C338 C 0.5764 0.73083 0.17008 0.0
O339 O 0.5882 0.73522 0.19756 0.0
O340 O 0.62589 0.76487 0.15704 0.0
Zn341 Zn 0.61722 0.73679 0.13177 0.0
O342 O 0.6207 0.74096 0.08043 0.0
C343 C 0.64721 0.71108 0.17462 0.0
O344 O 0.64456 0.72767 0.19651 0.0
O345 O 0.58559 0.7302 0.1407 0.0
C346 C 0.63778 0.73461 0.0644 0.0
O347 O 0.65411 0.72587 0.08189 0.0
C348 C 0.64452 0.77374 0.1518 0.0
O349 O 0.65772 0.7647 0.12896 0.0
O350 O 0.63645 0.71112 0.14658 0.0
C351 C 0.21845 0.5567 0.19095 0.0
O352 O 0.20105 0.56699 0.17881 0.0
O353 O 0.2102 0.61615 0.21542 0.0
Zn354 Zn 0.23472 0.60149 0.18942 0.0
O355 O 0.23064 0.60767 0.13859 0.0
C356 C 0.28054 0.61504 0.18943 0.0
O357 O 0.28181 0.60263 0.16153 0.0
O358 O 0.2353 0.56825 0.19833 0.0
C359 C 0.23627 0.59384 0.1153 0.0
O360 O 0.24516 0.57462 0.12431 0.0
C361 C 0.20711 0.63679 0.20864 0.0
O362 O 0.21929 0.64641 0.18489 0.0
O363 O 0.26247 0.61625 0.20554 0.0
C364 C 0.4283 0.74988 0.78071 0.0
O365 O 0.4147 0.76317 0.76422 0.0
O366 O 0.37496 0.76906 0.81372 0.0
Zn367 Zn 0.39459 0.74596 0.83514 0.0
O368 O 0.40133 0.75471 0.88377 0.0
C369 C 0.36457 0.7105 0.81588 0.0
O370 O 0.3612 0.72313 0.78858 0.0
O371 O 0.42273 0.74143 0.80952 0.0
C372 C 0.38526 0.75789 0.90399 0.0
O373 O 0.36527 0.75677 0.89157 0.0
C374 C 0.37979 0.78965 0.80979 0.0
O375 O 0.39926 0.79688 0.81895 0.0
O376 O 0.37842 0.71676 0.83828 0.0
C377 C 0.21934 0.42742 0.77368 0.0
O378 O 0.20004 0.41772 0.77223 0.0
O379 O 0.2089 0.36756 0.76706 0.0
Zn380 Zn 0.23416 0.38265 0.79092 0.0
O381 O 0.22989 0.37932 0.84203 0.0
C382 C 0.26416 0.3544 0.75229 0.0
O383 O 0.24756 0.35229 0.73101 0.0
O384 O 0.23615 0.41553 0.77996 0.0
C385 C 0.23238 0.36029 0.85637 0.0
O386 O 0.23813 0.34299 0.83745 0.0
C387 C 0.19055 0.36505 0.7821 0.0
O388 O 0.18765 0.37375 0.81286 0.0
O389 O 0.26223 0.36699 0.77854 0.0
C390 C 0.56428 0.24261 0.82371 0.0
O391 O 0.57524 0.22953 0.80261 0.0
O392 O 0.61463 0.21488 0.83909 0.0
Zn393 Zn 0.60408 0.242 0.8653 0.0
O394 O 0.60276 0.2364 0.91659 0.0
C395 C 0.63556 0.27065 0.82943 0.0
O396 O 0.63419 0.25565 0.80473 0.0
O397 O 0.57358 0.24994 0.85073 0.0
C398 C 0.61803 0.24238 0.93687 0.0
O399 O 0.63608 0.25092 0.92388 0.0
C400 C 0.63419 0.20785 0.84185 0.0
O401 O 0.64747 0.21785 0.8636 0.0
O402 O 0.62404 0.26826 0.85649 0.0
C403 C 0.78316 0.54964 0.82898 0.0
O404 O 0.79938 0.56055 0.84361 0.0
O405 O 0.78368 0.61155 0.79536 0.0
Zn406 Zn 0.76519 0.59358 0.82846 0.0
O407 O 0.77498 0.59851 0.87743 0.0
C408 C 0.72603 0.60925 0.79507 0.0
O409 O 0.73781 0.60605 0.76714 0.0
O410 O 0.76656 0.56059 0.81866 0.0
C411 C 0.7701 0.61633 0.89368 0.0
O412 O 0.7587 0.632 0.87795 0.0
C413 C 0.80058 0.62237 0.80482 0.0
O414 O 0.8073 0.62067 0.83687 0.0
O415 O 0.73419 0.60442 0.82427 0.0
H416 H 0.20004 0.13589 0.2217 0.0
H417 H 0.18708 0.11386 0.32587 0.0
H418 H 0.15437 0.13731 0.32783 0.0
H419 H 0.13143 0.16654 0.30203 0.0
H420 H 0.14497 0.18961 0.19859 0.0
H421 H 0.17533 0.16309 0.19423 0.0
C422 C 0.18992 0.13597 0.24469 0.0
C423 C 0.19615 0.12328 0.2737 0.0
C424 C 0.1713 0.1498 0.24587 0.0
C425 C 0.18277 0.12356 0.30323 0.0
C426 C 0.16407 0.13702 0.30441 0.0
C427 C 0.14083 0.16561 0.27834 0.0
C428 C 0.13603 0.18023 0.25081 0.0
C429 C 0.15848 0.1506 0.2762 0.0
C430 C 0.14835 0.17867 0.22027 0.0
C431 C 0.16577 0.16353 0.21777 0.0
H432 H 0.78609 0.12339 0.36111 0.0
H433 H 0.74322 0.14993 0.28247 0.0
H434 H 0.77243 0.17432 0.2617 0.0
H435 H 0.80899 0.19038 0.26878 0.0
H436 H 0.85166 0.16496 0.34849 0.0
H437 H 0.82381 0.13764 0.36545 0.0
C438 C 0.78319 0.13435 0.33923 0.0
C439 C 0.7624 0.13498 0.32366 0.0
C440 C 0.80003 0.14858 0.32757 0.0
C441 C 0.75899 0.14923 0.2952 0.0
C442 C 0.7757 0.16319 0.28324 0.0
C443 C 0.81237 0.17866 0.28953 0.0
C444 C 0.83233 0.17987 0.30749 0.0
C445 C 0.79613 0.16333 0.29965 0.0
C446 C 0.8364 0.16449 0.33429 0.0
C447 C 0.82044 0.14891 0.34413 0.0
H448 H 0.86131 0.82267 0.34322 0.0
H449 H 0.86758 0.79911 0.23847 0.0
H450 H 0.8383 0.82444 0.22035 0.0
H451 H 0.80874 0.85069 0.23534 0.0
H452 H 0.80203 0.87325 0.34059 0.0
H453 H 0.83377 0.85098 0.35729 0.0
C454 C 0.85648 0.82323 0.31633 0.0
C455 C 0.86648 0.80883 0.29232 0.0
C456 C 0.83943 0.83755 0.30619 0.0
C457 C 0.86008 0.80992 0.25755 0.0
C458 C 0.84329 0.82436 0.24717 0.0
C459 C 0.81437 0.85096 0.26184 0.0
C460 C 0.80286 0.86345 0.28671 0.0
C461 C 0.83249 0.83785 0.27143 0.0
C462 C 0.81046 0.86366 0.32093 0.0
C463 C 0.82861 0.8509 0.33055 0.0
H464 H 0.18176 0.78331 0.30841 0.0
H465 H 0.14069 0.80802 0.39067 0.0
H466 H 0.16619 0.83887 0.40074 0.0
H467 H 0.20131 0.8573 0.38885 0.0
H468 H 0.24291 0.8319 0.30774 0.0
H469 H 0.21595 0.80294 0.29449 0.0
C470 C 0.17825 0.79556 0.32831 0.0
C471 C 0.15941 0.79325 0.34888 0.0
C472 C 0.19314 0.81307 0.33433 0.0
C473 C 0.15513 0.80931 0.37455 0.0
C474 C 0.16972 0.82696 0.38038 0.0
C475 C 0.20441 0.84556 0.36807 0.0
C476 C 0.22417 0.84668 0.34951 0.0
C477 C 0.18897 0.82876 0.36085 0.0
C478 C 0.22789 0.83135 0.3226 0.0
C479 C 0.21249 0.81476 0.315 0.0
H480 H 0.15397 0.79969 0.76424 0.0
H481 H 0.11887 0.81105 0.66921 0.0
H482 H 0.14325 0.8422 0.65513 0.0
H483 H 0.17657 0.86387 0.66713 0.0
H484 H 0.21224 0.85175 0.76143 0.0
H485 H 0.18549 0.82342 0.77849 0.0
C486 C 0.15146 0.80915 0.74066 0.0
C487 C 0.13476 0.80285 0.71768 0.0
C488 C 0.16575 0.82683 0.73241 0.0
C489 C 0.13169 0.8154 0.68729 0.0
C490 C 0.14567 0.83321 0.67914 0.0
C491 C 0.17836 0.85524 0.69161 0.0
C492 C 0.19654 0.85977 0.71274 0.0
C493 C 0.16308 0.83871 0.7011 0.0
C494 C 0.19852 0.84848 0.74448 0.0
C495 C 0.18323 0.83224 0.75428 0.0
H496 H 0.19241 0.12783 0.61862 0.0
H497 H 0.23432 0.15569 0.69729 0.0
H498 H 0.20623 0.18323 0.71183 0.0
H499 H 0.17112 0.2014 0.69882 0.0
H500 H 0.12959 0.17386 0.61934 0.0
H501 H 0.15609 0.14406 0.60887 0.0
C502 C 0.19535 0.13979 0.63915 0.0
C503 C 0.21554 0.13986 0.65652 0.0
C504 C 0.17921 0.1557 0.6472 0.0
C505 C 0.21897 0.15534 0.68333 0.0
C506 C 0.20293 0.17114 0.69165 0.0
C507 C 0.16771 0.18872 0.67953 0.0
C508 C 0.1485 0.19004 0.65965 0.0
C509 C 0.18318 0.17177 0.67325 0.0
C510 C 0.14432 0.17337 0.63486 0.0
C511 C 0.1595 0.15633 0.62876 0.0
H512 H 0.79962 0.14511 0.75284 0.0
H513 H 0.80086 0.12963 0.64411 0.0
H514 H 0.83234 0.15427 0.63623 0.0
H515 H 0.85706 0.18293 0.65892 0.0
H516 H 0.85538 0.1994 0.76724 0.0
H517 H 0.8267 0.17143 0.77657 0.0
C518 C 0.80695 0.14687 0.72751 0.0
C519 C 0.7977 0.13574 0.69906 0.0
C520 C 0.82488 0.16137 0.723 0.0
C521 C 0.80751 0.13814 0.66644 0.0
C522 C 0.8255 0.15227 0.66186 0.0
C523 C 0.85062 0.18025 0.68467 0.0
C524 C 0.85816 0.19346 0.71224 0.0
C525 C 0.83394 0.16441 0.68977 0.0
C526 C 0.84978 0.18958 0.7455 0.0
C527 C 0.83332 0.17363 0.75085 0.0
H528 H 0.84176 0.82699 0.66822 0.0
H529 H 0.80431 0.79673 0.75059 0.0
H530 H 0.77349 0.82142 0.73758 0.0
H531 H 0.75607 0.84906 0.6995 0.0
H532 H 0.79331 0.87865 0.61632 0.0
H533 H 0.82539 0.85687 0.63326 0.0
C534 C 0.82696 0.82595 0.68364 0.0
C535 C 0.82528 0.80984 0.7101 0.0
C536 C 0.8092 0.83998 0.67574 0.0
C537 C 0.80603 0.80887 0.72994 0.0
C538 C 0.78835 0.82295 0.72246 0.0
C539 C 0.77126 0.85095 0.68528 0.0
C540 C 0.77218 0.86527 0.65641 0.0
C541 C 0.78958 0.83817 0.69488 0.0
C542 C 0.79207 0.86764 0.6385 0.0
C543 C 0.81043 0.85515 0.64811 0.0
H544 H 0.63956 0.66505 0.81447 0.0
H545 H 0.64901 0.6758 0.70535 0.0
H546 H 0.68003 0.64991 0.70575 0.0
H547 H 0.70643 0.62697 0.73815 0.0
H548 H 0.69744 0.61742 0.84766 0.0
H549 H 0.66417 0.64 0.84589 0.0
C550 C 0.64822 0.66156 0.79064 0.0
C551 C 0.64209 0.67255 0.75999 0.0
C552 C 0.66623 0.64698 0.79116 0.0
C553 C 0.65344 0.66769 0.72935 0.0
C554 C 0.67123 0.65292 0.72957 0.0
C555 C 0.69706 0.6296 0.76156 0.0
C556 C 0.70457 0.6207 0.79304 0.0
C557 C 0.67809 0.6429 0.76049 0.0
C558 C 0.69216 0.62421 0.82311 0.0
C559 C 0.67312 0.63714 0.82215 0.0
H560 H 0.30985 0.62841 0.87153 0.0
H561 H 0.27277 0.64236 0.7792 0.0
H562 H 0.29894 0.67147 0.76296 0.0
H563 H 0.33093 0.69467 0.77687 0.0
H564 H 0.36753 0.68119 0.86985 0.0
H565 H 0.34304 0.65012 0.8837 0.0
C566 C 0.30758 0.63766 0.84769 0.0
C567 C 0.28927 0.63331 0.8268 0.0
C568 C 0.32256 0.65456 0.83865 0.0
C569 C 0.28665 0.64544 0.79591 0.0
C570 C 0.3016 0.66213 0.78659 0.0
C571 C 0.33369 0.68481 0.79999 0.0
C572 C 0.35095 0.69039 0.82238 0.0
C573 C 0.3194 0.6671 0.80806 0.0
C574 C 0.35431 0.67737 0.85221 0.0
C575 C 0.34029 0.65959 0.86022 0.0
H576 H 0.33445 0.27842 0.73119 0.0
H577 H 0.364 0.31293 0.81726 0.0
H578 H 0.33607 0.34205 0.81396 0.0
H579 H 0.30132 0.35565 0.7906 0.0
H580 H 0.27111 0.32087 0.70543 0.0
H581 H 0.30139 0.2941 0.70423 0.0
C582 C 0.33498 0.29248 0.74891 0.0
C583 C 0.35115 0.29331 0.7747 0.0
C584 C 0.31865 0.30905 0.74723 0.0
C585 C 0.35164 0.31173 0.79732 0.0
C586 C 0.33564 0.3284 0.79553 0.0
C587 C 0.30145 0.34237 0.77149 0.0
C588 C 0.28382 0.3401 0.74845 0.0
C589 C 0.31874 0.32689 0.77122 0.0
C590 C 0.2844 0.32294 0.72363 0.0
C591 C 0.30168 0.30757 0.72298 0.0
H592 H 0.63778 0.30768 0.8698 0.0
H593 H 0.6701 0.2746 0.78493 0.0
H594 H 0.69939 0.30256 0.78634 0.0
H595 H 0.7173 0.33448 0.81496 0.0
H596 H 0.68471 0.36742 0.8998 0.0
H597 H 0.65394 0.34156 0.89479 0.0
C598 C 0.65113 0.30669 0.85139 0.0
C599 C 0.6519 0.28894 0.82758 0.0
C600 C 0.66791 0.32275 0.85241 0.0
C601 C 0.66915 0.28806 0.80361 0.0
C602 C 0.68595 0.304 0.80447 0.0
C603 C 0.70336 0.33617 0.8321 0.0
C604 C 0.70346 0.35269 0.858 0.0
C605 C 0.68573 0.32114 0.82925 0.0
C606 C 0.68515 0.35479 0.87975 0.0
C607 C 0.66755 0.33996 0.877 0.0
H608 H 0.62713 0.33135 0.19873 0.0
H609 H 0.63122 0.30951 0.30472 0.0
H610 H 0.66215 0.33475 0.31425 0.0
H611 H 0.69001 0.36055 0.29107 0.0
H612 H 0.68607 0.38163 0.18465 0.0
H613 H 0.65306 0.35925 0.17688 0.0
C614 C 0.6346 0.33228 0.22406 0.0
C615 C 0.62699 0.31837 0.25085 0.0
C616 C 0.65254 0.34658 0.22925 0.0
C617 C 0.6368 0.31994 0.28356 0.0
C618 C 0.65455 0.33432 0.28902 0.0
C619 C 0.68181 0.36044 0.26628 0.0
C620 C 0.69068 0.37258 0.23842 0.0
C621 C 0.66288 0.34733 0.26183 0.0
C622 C 0.67973 0.37234 0.20652 0.0
C623 C 0.66084 0.35951 0.202 0.0
H624 H 0.7342 0.65747 0.20207 0.0
H625 H 0.71076 0.62064 0.11367 0.0
H626 H 0.67687 0.64228 0.11419 0.0
H627 H 0.65545 0.67391 0.13629 0.0
H628 H 0.67889 0.71102 0.22438 0.0
H629 H 0.71107 0.6868 0.22766 0.0
C630 C 0.72158 0.65401 0.18313 0.0
C631 C 0.72515 0.63767 0.15759 0.0
C632 C 0.70216 0.66662 0.18341 0.0
C633 C 0.70852 0.63321 0.1335 0.0
C634 C 0.68913 0.64562 0.13371 0.0
C635 C 0.66745 0.67655 0.15648 0.0
C636 C 0.66488 0.69443 0.17978 0.0
C637 C 0.68601 0.66272 0.15802 0.0
C638 C 0.68048 0.69744 0.20601 0.0
C639 C 0.69896 0.68365 0.20782 0.0
H640 H 0.31966 0.62045 0.15669 0.0
H641 H 0.28283 0.64275 0.24532 0.0
H642 H 0.31109 0.67037 0.25842 0.0
H643 H 0.34437 0.69063 0.24156 0.0
H644 H 0.3807 0.66906 0.15199 0.0
H645 H 0.35467 0.6386 0.14277 0.0
C646 C 0.31793 0.63114 0.17913 0.0
C647 C 0.29901 0.62968 0.19971 0.0
C648 C 0.33411 0.64725 0.18628 0.0
C649 C 0.29713 0.64362 0.22882 0.0
C650 C 0.31327 0.65946 0.23634 0.0
C651 C 0.34679 0.67909 0.2203 0.0
C652 C 0.36433 0.68232 0.1973 0.0
C653 C 0.33156 0.66181 0.21476 0.0
C654 C 0.36726 0.6671 0.16998 0.0
C655 C 0.35234 0.64968 0.1646 0.0
H656 H 0.26089 0.34561 0.16834 0.0
H657 H 0.28915 0.39039 0.09277 0.0
H658 H 0.32404 0.37055 0.09691 0.0
H659 H 0.34568 0.33882 0.11885 0.0
H660 H 0.31697 0.29368 0.19354 0.0
H661 H 0.28319 0.31546 0.19297 0.0
C662 C 0.27473 0.35119 0.15299 0.0
C663 C 0.27233 0.36935 0.13007 0.0
C664 C 0.29466 0.33957 0.15518 0.0
C665 C 0.29048 0.3764 0.11053 0.0
C666 C 0.31045 0.36503 0.11281 0.0
C667 C 0.33213 0.33387 0.13528 0.0
C668 C 0.33384 0.31453 0.15598 0.0
C669 C 0.3126 0.34633 0.13457 0.0
C670 C 0.3161 0.30841 0.17718 0.0
C671 C 0.29673 0.32084 0.17686 0.0
H672 H 0.94788 0.21493 0.30104 0.0
H673 H 0.94042 0.28119 0.25722 0.0
H674 H 0.97975 0.2832 0.24666 0.0
H675 H 0.0165 0.2673 0.25344 0.0
H676 H 0.02414 0.20132 0.29814 0.0
H677 H 0.9845 0.19802 0.30443 0.0
C678 C 0.95482 0.22974 0.2889 0.0
C679 C 0.94121 0.24795 0.28023 0.0
C680 C 0.97751 0.23089 0.28315 0.0
C681 C 0.95049 0.26696 0.26436 0.0
C682 C 0.97301 0.26815 0.25833 0.0
C683 C 0.00952 0.25209 0.26425 0.0
C684 C 0.02333 0.23468 0.27555 0.0
C685 C 0.98671 0.25039 0.26817 0.0
C686 C 0.01393 0.21505 0.28936 0.0
C687 C 0.99124 0.21316 0.29306 0.0
H688 H 0.74013 0.04155 0.27695 0.0
H689 H 0.67415 0.04123 0.31707 0.0
H690 H 0.67177 0.00081 0.30793 0.0
H691 H 0.68939 0.96529 0.29325 0.0
H692 H 0.75606 0.96502 0.25612 0.0
H693 H 0.75708 0.006 0.25893 0.0
C694 C 0.72515 0.03267 0.28331 0.0
C695 C 0.70742 0.04433 0.29794 0.0
C696 C 0.72403 0.00933 0.27863 0.0
C697 C 0.68812 0.0326 0.30609 0.0
C698 C 0.68672 0.00949 0.30084 0.0
C699 C 0.70406 0.97418 0.28529 0.0
C700 C 0.72266 0.96212 0.27472 0.0
C701 C 0.70473 -0.00237 0.28783 0.0
C702 C 0.74154 0.97392 0.26455 0.0
C703 C 0.74217 -0.00266 0.26623 0.0
H704 H 0.04541 0.76335 0.36291 0.0
H705 H 0.05045 0.72221 0.27173 0.0
H706 H 0.01095 0.72536 0.26268 0.0
H707 H 0.97472 0.73792 0.2828 0.0
H708 H 0.97014 0.7787 0.37452 0.0
H709 H 0.00978 0.77764 0.38101 0.0
C710 C 0.03793 0.75515 0.34092 0.0
C711 C 0.05084 0.74239 0.31823 0.0
C712 C 0.01527 0.75691 0.33601 0.0
C713 C 0.04088 0.73207 0.28969 0.0
C714 C 0.01828 0.73383 0.28452 0.0
C715 C 0.9824 0.74674 0.30403 0.0
C716 C 0.96943 0.7582 0.32828 0.0
C717 C 0.00527 0.74592 0.30784 0.0
C718 C 0.97968 0.76962 0.35557 0.0
C719 C 0.00237 0.76901 0.35936 0.0
H720 H 0.30162 0.94945 0.32184 0.0
H721 H 0.23435 0.94121 0.2901 0.0
H722 H 0.23158 0.98145 0.27885 0.0
H723 H 0.24726 0.01935 0.28299 0.0
H724 H 0.31449 0.02743 0.31522 0.0
H725 H 0.31827 0.98686 0.32099 0.0
C726 C 0.28641 0.9564 0.31213 0.0
C727 C 0.26815 0.94237 0.30724 0.0
C728 C 0.28486 0.97956 0.30598 0.0
C729 C 0.24864 0.95163 0.29426 0.0
C730 C 0.24701 0.97467 0.28792 0.0
C731 C 0.26282 0.01223 0.29091 0.0
C732 C 0.28047 0.02645 0.29908 0.0
C733 C 0.26486 0.98886 0.29446 0.0
C734 C 0.30057 0.01692 0.30899 0.0
C735 C 0.30275 0.99369 0.31239 0.0
H736 H 0.02106 0.793 0.70894 0.0
H737 H 0.03147 0.72508 0.74448 0.0
H738 H 0.99212 0.71996 0.75138 0.0
H739 H 0.95475 0.73339 0.74188 0.0
H740 H 0.9441 0.80096 0.70507 0.0
H741 H 0.98355 0.80764 0.70459 0.0
C742 C 0.01475 0.77717 0.7186 0.0
C743 C 0.0292 0.75937 0.72571 0.0
C744 C 0.99204 0.77421 0.72211 0.0
C745 C 0.02073 0.73902 0.7385 0.0
C746 C -0.00179 0.73604 0.74241 0.0
C747 C 0.96101 0.74968 0.73414 0.0
C748 C 0.9465 0.76653 0.72308 0.0
C749 C 0.9837 0.75331 0.73343 0.0
C750 C 0.95491 0.78762 0.7135 0.0
C751 C 0.97748 0.79145 0.71309 0.0
H752 H 0.24339 0.95984 0.67808 0.0
H753 H 0.29324 0.97126 0.75498 0.0
H754 H 0.29495 0.01089 0.73851 0.0
H755 H 0.28378 0.04172 0.69985 0.0
H756 H 0.23461 0.02939 0.62211 0.0
H757 H 0.23132 0.99058 0.64128 0.0
C758 C 0.25453 0.97097 0.69153 0.0
C759 C 0.26826 0.96252 0.71762 0.0
C760 C 0.25573 0.99354 0.68151 0.0
C761 C 0.28251 0.97729 0.73477 0.0
C762 C 0.28357 -6e-05 0.72526 0.0
C763 C 0.2723 0.03056 0.68717 0.0
C764 C 0.25956 0.03845 0.65942 0.0
C765 C 0.27053 0.00815 0.69824 0.0
C766 C 0.24469 0.02378 0.64341 0.0
C767 C 0.24276 0.00156 0.65438 0.0
H768 H 0.03764 0.22032 0.67649 0.0
H769 H 0.03237 0.29226 0.66513 0.0
H770 H 0.99315 0.29021 0.67664 0.0
H771 H 0.95997 0.26771 0.68363 0.0
H772 H 0.9648 0.19559 0.69226 0.0
H773 H 0.00467 0.19807 0.68869 0.0
C774 C 0.02798 0.23559 0.67698 0.0
C775 C 0.03787 0.25637 0.66949 0.0
C776 C 0.00534 0.23425 0.68295 0.0
C777 C 0.02513 0.27601 0.67044 0.0
C778 C 0.00269 0.27486 0.67699 0.0
C779 C 0.96972 0.25253 0.68523 0.0
C780 C 0.95939 0.23147 0.68772 0.0
C781 C 0.99255 0.25402 0.68232 0.0
C782 C 0.97232 0.21201 0.69005 0.0
C783 C 0.99512 0.2134 0.68788 0.0
H784 H 0.69278 0.03037 0.64374 0.0
H785 H 0.74777 0.03499 0.71327 0.0
H786 H 0.74964 0.99409 0.71662 0.0
H787 H 0.73661 0.95706 0.69799 0.0
H788 H 0.68232 0.95256 0.62705 0.0
H789 H 0.67922 0.9934 0.6262 0.0
C790 C 0.70509 0.02246 0.65983 0.0
C791 C 0.72014 0.03574 0.67815 0.0
C792 C 0.70626 -0.00105 0.66129 0.0
C793 C 0.73602 0.02518 0.69879 0.0
C794 C 0.73711 0.00178 0.70072 0.0
C795 C 0.724 0.96499 0.68251 0.0
C796 C 0.70976 0.95175 0.66255 0.0
C797 C 0.72246 0.9885 0.6818 0.0
C798 C 0.69356 0.96233 0.64256 0.0
C799 C 0.69176 0.9857 0.64205 0.0
H800 H 0.52596 0.75506 0.72987 0.0
H801 H 0.53109 0.69825 0.79878 0.0
H802 H 0.49158 0.69849 0.80729 0.0
H803 H 0.45635 0.71727 0.80038 0.0
H804 H 0.45078 0.7745 0.73258 0.0
H805 H 0.48969 0.77147 0.71809 0.0
C806 C 0.5184 0.74251 0.74631 0.0
C807 C 0.53152 0.7269 0.76409 0.0
C808 C 0.49564 0.74293 0.75154 0.0
C809 C 0.52143 0.71063 0.78509 0.0
C810 C 0.49883 0.71077 0.79005 0.0
C811 C 0.46359 0.72896 0.78215 0.0
C812 C 0.45082 0.7463 0.768 0.0
C813 C 0.4859 0.72726 0.77427 0.0
C814 C 0.46031 0.76107 0.74396 0.0
C815 C 0.48257 0.7594 0.73579 0.0
H816 H 0.25641 0.45243 0.77907 0.0
H817 H 0.18635 0.4581 0.76675 0.0
H818 H 0.18882 0.49877 0.77334 0.0
H819 H 0.21038 0.53213 0.78816 0.0
H820 H 0.28032 0.52622 0.80201 0.0
H821 H 0.27836 0.48623 0.78894 0.0
C822 C 0.24169 0.46256 0.77741 0.0
C823 C 0.22119 0.45218 0.77287 0.0
C824 C 0.24318 0.48588 0.78174 0.0
C825 C 0.20232 0.46561 0.77048 0.0
C826 C 0.20371 0.48888 0.77434 0.0
C827 C 0.22524 0.52217 0.78795 0.0
C828 C 0.24542 0.53212 0.7965 0.0
C829 C 0.22397 0.49911 0.78087 0.0
C830 C 0.26454 0.51898 0.79579 0.0
C831 C 0.26344 0.49608 0.78838 0.0
H832 H 0.46343 0.26304 0.83137 0.0
H833 H 0.46274 0.21749 0.74492 0.0
H834 H 0.50273 0.21572 0.74595 0.0
H835 H 0.53767 0.22492 0.77428 0.0
H836 H 0.5378 0.27002 0.86138 0.0
H837 H 0.49825 0.27423 0.85696 0.0
C838 C 0.472 0.25283 0.81256 0.0
C839 C 0.4601 0.24023 0.78836 0.0
C840 C 0.49491 0.25173 0.81349 0.0
C841 C 0.4715 0.22729 0.76395 0.0
C842 C 0.49437 0.22622 0.76457 0.0
C843 C 0.52908 0.23586 0.79205 0.0
C844 C 0.54068 0.24694 0.81833 0.0
C845 C 0.50622 0.23804 0.78965 0.0
C846 C 0.52929 0.26113 0.84107 0.0
C847 C 0.50664 0.26355 0.83861 0.0
H848 H 0.79183 0.44538 0.85187 0.0
H849 H 0.73032 0.446 0.79705 0.0
H850 H 0.73325 0.48662 0.78933 0.0
H851 H 0.75227 0.52216 0.80106 0.0
H852 H 0.81383 0.52129 0.8558 0.0
H853 H 0.81195 0.4805 0.86029 0.0
C854 C 0.77909 0.45437 0.8381 0.0
C855 C 0.76078 0.44271 0.82536 0.0
C856 C 0.78088 0.47767 0.83374 0.0
C857 C 0.74456 0.45458 0.80723 0.0
C858 C 0.7462 0.47781 0.80284 0.0
C859 C 0.76538 0.51304 0.81371 0.0
C860 C 0.78307 0.52481 0.82833 0.0
C861 C 0.76414 0.48957 0.81641 0.0
C862 C 0.79998 0.5127 0.84442 0.0
C863 C 0.7989 0.48935 0.84711 0.0
H864 H 0.44358 0.2527 0.25592 0.0
H865 H 0.44174 0.29039 0.16073 0.0
H866 H 0.4812 0.2961 0.16362 0.0
H867 H 0.51656 0.28767 0.19032 0.0
H868 H 0.51872 0.24962 0.28509 0.0
H869 H 0.4788 0.24696 0.28529 0.0
C870 C 0.45175 0.2624 0.23602 0.0
C871 C 0.43971 0.27086 0.20795 0.0
C872 C 0.47455 0.26543 0.2376 0.0
C873 C 0.45059 0.28352 0.18251 0.0
C874 C 0.4732 0.28676 0.18407 0.0
C875 C 0.50831 0.27895 0.2112 0.0
C876 C 0.52063 0.26863 0.23741 0.0
C877 C 0.48539 0.27734 0.21104 0.0
C878 C 0.50965 0.25763 0.26448 0.0
C879 C 0.48681 0.25605 0.26458 0.0
H880 H 0.75351 0.55317 0.23081 0.0
H881 H 0.81683 0.55257 0.18115 0.0
H882 H 0.81902 0.51198 0.18848 0.0
H883 H 0.80178 0.47647 0.20466 0.0
H884 H 0.73771 0.47658 0.25179 0.0
H885 H 0.73714 0.51759 0.25016 0.0
C886 C 0.7679 0.54419 0.22195 0.0
C887 C 0.7849 0.55586 0.20522 0.0
C888 C 0.76889 0.52076 0.22567 0.0
C889 C 0.80343 0.54397 0.19386 0.0
C890 C 0.80471 0.52075 0.19804 0.0
C891 C 0.78779 0.48544 0.215 0.0
C892 C 0.76976 0.47347 0.2281 0.0
C893 C 0.78736 0.50894 0.21327 0.0
C894 C 0.75177 0.48539 0.24139 0.0
C895 C 0.7514 0.50884 0.24039 0.0
H896 H 0.47417 0.72653 0.15237 0.0
H897 H 0.47614 0.73179 0.26323 0.0
H898 H 0.51631 0.73152 0.26162 0.0
H899 H 0.55081 0.73127 0.22806 0.0
H900 H 0.54777 0.72522 0.11715 0.0
H901 H 0.50802 0.72419 0.11957 0.0
C902 C 0.48335 0.72763 0.17625 0.0
C903 C 0.47223 0.72944 0.20784 0.0
C904 C 0.50624 0.7273 0.17511 0.0
C905 C 0.48436 0.73044 0.23856 0.0
C906 C 0.5073 0.73033 0.23763 0.0
C907 C 0.54144 0.72959 0.20447 0.0
C908 C 0.55231 0.72851 0.17247 0.0
C909 C 0.51842 0.72897 0.20597 0.0
C910 C 0.5399 0.72619 0.14215 0.0
C911 C 0.51712 0.72563 0.14345 0.0
H912 H 0.23888 0.45304 0.19735 0.0
H913 H 0.17542 0.45017 0.1485 0.0
H914 H 0.1716 0.49077 0.1543 0.0
H915 H 0.18731 0.52729 0.16953 0.0
H916 H 0.25132 0.53036 0.21652 0.0
H917 H 0.25379 0.48946 0.21531 0.0
C918 C 0.2241 0.46124 0.18832 0.0
C919 C 0.20753 0.44858 0.17233 0.0
C920 C 0.22215 0.48466 0.19119 0.0
C921 C 0.1885 0.45952 0.16073 0.0
C922 C 0.1863 0.48275 0.16399 0.0
C923 C 0.20173 0.51903 0.17981 0.0
C924 C 0.21915 0.5319 0.19289 0.0
C925 C 0.20319 0.49553 0.17859 0.0
C926 C 0.2377 0.52088 0.20613 0.0
C927 C 0.23915 0.49748 0.20543 0.0
H928 H 0.08488 0.24142 0.40833 0.0
H929 H 0.15437 0.23155 0.39434 0.0
H930 H 0.16007 0.23495 0.45639 0.0
H931 H 0.14519 0.23942 0.51474 0.0
H932 H 0.07565 0.24912 0.52865 0.0
H933 H 0.07017 0.24721 0.46643 0.0
C934 C 0.10129 0.24007 0.41881 0.0
C935 C 0.11915 0.23611 0.39671 0.0
C936 C 0.10446 0.242 0.4545 0.0
C937 C 0.14032 0.23454 0.41074 0.0
C938 C 0.1436 0.23647 0.44624 0.0
C939 C 0.12884 0.24125 0.50418 0.0
C940 C 0.11086 0.24431 0.52637 0.0
C941 C 0.12577 0.24002 0.46838 0.0
C942 C 0.0898 0.2467 0.5122 0.0
C943 C 0.08663 0.24557 0.4766 0.0
H944 H 0.70952 0.09979 0.57153 0.0
H945 H 0.72746 0.16974 0.57907 0.0
H946 H 0.72112 0.17457 0.51736 0.0
H947 H 0.71238 0.15846 0.46068 0.0
H948 H 0.69514 0.0883 0.45331 0.0
H949 H 0.69929 0.08411 0.51548 0.0
C950 C 0.71187 0.11616 0.55978 0.0
C951 C 0.71906 0.13434 0.57994 0.0
C952 C 0.70846 0.11877 0.52421 0.0
C953 C 0.72199 0.15542 0.56421 0.0
C954 C 0.71842 0.1582 0.52886 0.0
C955 C 0.7094 0.14228 0.47268 0.0
C956 C 0.70357 0.12371 0.45224 0.0
C957 C 0.71196 0.13991 0.50851 0.0
C958 C 0.69973 0.10288 0.46831 0.0
C959 C 0.7021 0.10045 0.50391 0.0
H960 H 0.90115 0.74919 0.46703 0.0
H961 H 0.83445 0.76865 0.44536 0.0
H962 H 0.8264 0.76957 0.50701 0.0
H963 H 0.83883 0.76683 0.56706 0.0
H964 H 0.90561 0.7475 0.58852 0.0
H965 H 0.913 0.74443 0.52692 0.0
C966 C 0.88481 0.75354 0.47575 0.0
C967 C 0.86849 0.75903 0.4516 0.0
C968 C 0.8803 0.75411 0.51121 0.0
C969 C 0.84736 0.76442 0.46337 0.0
C970 C 0.84273 0.76499 0.49864 0.0
C971 C 0.85496 0.76179 0.5583 0.0
C972 C 0.87167 0.75758 0.58242 0.0
C973 C 0.85916 0.76016 0.5228 0.0
C974 C 0.89245 0.75093 0.57057 0.0
C975 C 0.89673 0.74921 0.53531 0.0
H976 H 0.24936 0.92934 0.57606 0.0
H977 H 0.27583 0.86337 0.59587 0.0
H978 H 0.28404 0.8589 0.53455 0.0
H979 H 0.28348 0.87373 0.47522 0.0
H980 H 0.25704 0.93986 0.45622 0.0
H981 H 0.24918 0.94425 0.5174 0.0
C982 C 0.25688 0.91393 0.56703 0.0
C983 C 0.2619 0.8967 0.59053 0.0
C984 C 0.26165 0.91153 0.53187 0.0
C985 C 0.27176 0.87691 0.57833 0.0
C986 C 0.27648 0.87434 0.54327 0.0
C987 C 0.27609 0.88914 0.48449 0.0
C988 C 0.27085 0.90642 0.46111 0.0
C989 C 0.27151 0.89156 0.5198 0.0
C990 C 0.26124 0.92626 0.47357 0.0
C991 C 0.25669 0.9288 0.50859 0.0
H992 H 0.0963 0.72348 0.47676 0.0
H993 H 0.16702 0.72424 0.47602 0.0
H994 H 0.16746 0.72323 0.53892 0.0
H995 H 0.1478 0.72533 0.59403 0.0
H996 H 0.07708 0.72543 0.59462 0.0
H997 H 0.07667 0.72272 0.53188 0.0
C998 C 0.11183 0.72319 0.4903 0.0
C999 C 0.13159 0.72418 0.47166 0.0
C1000 C 0.11199 0.7229 0.52649 0.0
C1001 C 0.15155 0.72362 0.48969 0.0
C1002 C 0.15183 0.7231 0.52569 0.0
C1003 C 0.13229 0.72452 0.5805 0.0
C1004 C 0.11251 0.72583 0.59903 0.0
C1005 C 0.13215 0.72324 0.54435 0.0
C1006 C 0.09256 0.72461 0.58103 0.0
C1007 C 0.0923 0.7231 0.54512 0.0
H1008 H 0.2841 0.08414 0.41122 0.0
H1009 H 0.24391 0.1434 0.42152 0.0
H1010 H 0.25017 0.14349 0.48365 0.0
H1011 H 0.26574 0.12591 0.53528 0.0
H1012 H 0.30587 0.06661 0.52516 0.0
H1013 H 0.30096 0.06745 0.46269 0.0
C1014 C 0.2768 0.09716 0.427 0.0
C1015 C 0.26345 0.11367 0.41169 0.0
C1016 C 0.28038 0.09707 0.46277 0.0
C1017 C 0.25422 0.13046 0.43257 0.0
C1018 C 0.25775 0.13051 0.46814 0.0
C1019 C 0.27351 0.1132 0.51944 0.0
C1020 C 0.28606 0.09615 0.53496 0.0
C1021 C 0.27059 0.11376 0.48355 0.0
C1022 C 0.29608 0.07991 0.51396 0.0
C1023 C 0.29326 0.08036 0.47821 0.0
H1024 H 0.89502 0.24611 0.43348 0.0
H1025 H 0.82439 0.24308 0.43071 0.0
H1026 H 0.82299 0.24634 0.49336 0.0
H1027 H 0.84184 0.24842 0.54909 0.0
H1028 H 0.9125 0.25081 0.55186 0.0
H1029 H 0.91381 0.24949 0.48905 0.0
C1030 C 0.87931 0.24631 0.44654 0.0
C1031 C 0.85986 0.24425 0.42742 0.0
C1032 C 0.87861 0.24797 0.4826 0.0
C1033 C 0.83963 0.24456 0.44478 0.0
C1034 C 0.8388 0.2464 0.48064 0.0
C1035 C 0.85753 0.24877 0.53598 0.0
C1036 C 0.87702 0.2496 0.5552 0.0
C1037 C 0.8582 0.24785 0.49984 0.0
C1038 C 0.89722 0.25008 0.53774 0.0
C1039 C 0.89801 0.24932 0.5018 0.0
H1040 H 0.68647 0.90796 0.50314 0.0
H1041 H 0.72249 0.84944 0.53643 0.0
H1042 H 0.73281 0.8415 0.47696 0.0
H1043 H 0.73368 0.8525 0.41604 0.0
H1044 H 0.69841 0.91151 0.38283 0.0
H1045 H 0.68562 0.91776 0.44165 0.0
C1046 C 0.69642 0.89335 0.49738 0.0
C1047 C 0.70381 0.87943 0.52429 0.0
C1048 C 0.70252 0.88899 0.46311 0.0
C1049 C 0.71665 0.86054 0.51629 0.0
C1050 C 0.72259 0.85597 0.48225 0.0
C1051 C 0.72301 0.86661 0.42156 0.0
C1052 C 0.71717 0.88159 0.39507 0.0
C1053 C 0.71593 0.87029 0.45554 0.0
C1054 C 0.70329 0.89976 0.40274 0.0
C1055 C 0.69597 0.90338 0.4364 0.0
H1056 H 0.60517 0.74696 0.02053 0.0
H1057 H 0.67215 0.72376 0.02252 0.0
H1058 H 0.67261 0.72218 0.95965 0.0
H1059 H 0.65337 0.72528 0.90433 0.0
H1060 H 0.58607 0.74749 0.90254 0.0
H1061 H 0.58646 0.75166 0.9651 0.0
C1062 C 0.61994 0.74174 0.00724 0.0
C1063 C 0.63855 0.73538 0.02627 0.0
C1064 C 0.62003 0.74059 0.9711 0.0
C1065 C 0.65755 0.72866 0.00856 0.0
C1066 C 0.65783 0.72772 0.97258 0.0
C1067 C 0.63883 0.73122 0.91757 0.0
C1068 C 0.61969 0.73594 0.89875 0.0
C1069 C 0.63907 0.73333 0.95362 0.0
C1070 C 0.601 0.74362 0.91637 0.0
C1071 C 0.60119 0.74601 0.95217 0.0
H1072 H 0.21827 0.63203 0.96587 0.0
H1073 H 0.2414 0.56596 0.93821 0.0
H1074 H 0.24628 0.55663 0.99893 0.0
H1075 H 0.24425 0.56719 0.05986 0.0
H1076 H 0.22093 0.63312 0.08784 0.0
H1077 H 0.21587 0.64247 0.02706 0.0
C1078 C 0.22436 0.61559 0.9731 0.0
C1079 C 0.22946 0.59976 0.94744 0.0
C1080 C 0.22712 0.61028 0.00815 0.0
C1081 C 0.23731 0.5785 0.95735 0.0
C1082 C 0.24013 0.57313 0.99211 0.0
C1083 C 0.23806 0.58362 0.05272 0.0
C1084 C 0.23303 0.59942 0.07842 0.0
C1085 C 0.23514 0.58889 0.01772 0.0
C1086 C 0.22495 0.62061 0.06862 0.0
C1087 C 0.22205 0.62599 0.03384 0.0
H1088 H 0.33435 0.2556 0.03762 0.0
H1089 H 0.4022 0.24064 0.05895 0.0
H1090 H 0.40932 0.23615 0.99748 0.0
H1091 H 0.39673 0.23803 0.93755 0.0
H1092 H 0.32891 0.25302 0.91609 0.0
H1093 H 0.32137 0.25581 0.97773 0.0
C1094 C 0.35067 0.25124 0.02887 0.0
C1095 C 0.36772 0.2486 0.0529 0.0
C1096 C 0.35471 0.24874 0.99343 0.0
C1097 C 0.38876 0.24284 0.04106 0.0
C1098 C 0.39288 0.24029 0.00587 0.0
C1099 C 0.38027 0.2418 0.94633 0.0
C1100 C 0.36346 0.24545 0.92219 0.0
C1101 C 0.37604 0.24345 0.98181 0.0
C1102 C 0.34219 0.25019 0.93407 0.0
C1103 C 0.33786 0.25183 0.96934 0.0
H1104 H 0.74295 0.36472 0.09021 0.0
H1105 H 0.78015 0.42457 0.11267 0.0
H1106 H 0.79087 0.42757 0.05215 0.0
H1107 H 0.78854 0.41394 0.99242 0.0
H1108 H 0.75138 0.35391 0.97053 0.0
H1109 H 0.74192 0.35023 0.03127 0.0
C1110 C 0.75345 0.3784 0.08192 0.0
C1111 C 0.76061 0.39446 0.10589 0.0
C1112 C 0.75956 0.38002 0.04714 0.0
C1113 C 0.77437 0.41198 0.09474 0.0
C1114 C 0.78049 0.41373 0.06011 0.0
C1115 C 0.77848 0.39998 0.00096 0.0
C1116 C 0.77062 0.38431 0.97687 0.0
C1117 C 0.77302 0.39795 0.03602 0.0
C1118 C 0.75766 0.36626 0.98844 0.0
C1119 C 0.75218 0.36414 0.02321 0.0
H1120 H 0.58507 0.2462 0.09097 0.0
H1121 H 0.65119 0.26983 0.10636 0.0
H1122 H 0.65914 0.26423 0.04532 0.0
H1123 H 0.64685 0.25439 0.98706 0.0
H1124 H 0.58079 0.23053 0.97166 0.0
H1125 H 0.57344 0.23423 0.03322 0.0
C1126 C 0.60124 0.25006 0.081 0.0
C1127 C 0.61743 0.25861 0.10318 0.0
C1128 C 0.60575 0.24674 0.04584 0.0
C1129 C 0.63838 0.2633 0.08988 0.0
C1130 C 0.64296 0.26012 0.05494 0.0
C1131 C 0.63089 0.24981 0.99717 0.0
C1132 C 0.61437 0.24235 0.97465 0.0
C1133 C 0.6267 0.25209 0.03261 0.0
C1134 C 0.59383 0.23637 0.98832 0.0
C1135 C 0.58956 0.23855 0.02355 0.0
H1136 H 0.78427 0.63813 0.05109 0.0
H1137 H 0.81953 0.57537 0.04624 0.0
H1138 H 0.81277 0.57323 0.98432 0.0
H1139 H 0.79509 0.58806 0.93225 0.0
H1140 H 0.75948 0.65059 0.9373 0.0
H1141 H 0.76822 0.65392 0.99847 0.0
C1142 C 0.79066 0.62407 0.03648 0.0
C1143 C 0.80229 0.60687 0.05338 0.0
C1144 C 0.78653 0.62281 0.00094 0.0
C1145 C 0.81048 0.58882 0.03396 0.0
C1146 C 0.80657 0.58754 0.99853 0.0
C1147 C 0.78932 0.60248 0.94667 0.0
C1148 C 0.7765 0.61896 0.93024 0.0
C1149 C 0.79432 0.60426 0.98188 0.0
C1150 C 0.7693 0.63761 0.94929 0.0
C1151 C 0.77428 0.63953 0.9843 0.0
H1152 H 0.35439 0.76141 0.95415 0.0
H1153 H 0.42434 0.75831 0.93831 0.0
H1154 H 0.43014 0.75678 0.00051 0.0
H1155 H 0.41527 0.75348 0.05904 0.0
H1156 H 0.34528 0.75597 0.07476 0.0
H1157 H 0.33965 0.76067 0.01291 0.0
C1158 C 0.37093 0.76064 0.96427 0.0
C1159 C 0.38888 0.75975 0.94157 0.0
C1160 C 0.37415 0.75947 3e-05 0.0
C1161 C 0.4102 0.75889 0.95518 0.0
C1162 C 0.41355 0.75795 0.99075 0.0
C1163 C 0.39878 0.75519 0.04898 0.0
C1164 C 0.38072 0.75412 0.07147 0.0
C1165 C 0.39563 0.75774 0.01337 0.0
C1166 C 0.35948 0.75658 0.05802 0.0
C1167 C 0.35623 0.75926 0.02263 0.0
H1168 H 0.21523 0.39099 0.90051 0.0
H1169 H 0.24089 0.32351 0.89634 0.0
H1170 H 0.23512 0.31929 0.95832 0.0
H1171 H 0.2236 0.33507 0.01389 0.0
H1172 H 0.19781 0.40252 0.01781 0.0
H1173 H 0.2027 0.40633 0.95567 0.0
C1174 C 0.21958 0.37535 0.91313 0.0
C1175 C 0.22859 0.35765 0.89383 0.0
C1176 C 0.21615 0.373 0.94873 0.0
C1177 C 0.23395 0.33743 0.91058 0.0
C1178 C 0.23067 0.335 0.94604 0.0
C1179 C 0.21893 0.35057 0.00115 0.0
C1180 C 0.21041 0.36849 0.02055 0.0
C1181 C 0.22187 0.35271 0.96539 0.0
C1182 C 0.20442 0.38844 0.00356 0.0
C1183 C 0.20726 0.39068 0.96801 0.0
H1184 H 0.15221 0.36252 0.23809 0.0
H1185 H 0.16293 0.32254 0.14687 0.0
H1186 H 0.14153 0.29197 0.17185 0.0
H1187 H 0.12117 0.2759 0.22059 0.0
H1188 H 0.11036 0.31593 0.31173 0.0
H1189 H 0.1303 0.34714 0.28566 0.0
C1190 C 0.14978 0.34717 0.22357 0.0
C1191 C 0.1593 0.34481 0.19075 0.0
C1192 C 0.13748 0.32961 0.2381 0.0
C1193 C 0.15585 0.32483 0.17223 0.0
C1194 C 0.14364 0.30729 0.18651 0.0
C1195 C 0.12307 0.29149 0.2347 0.0
C1196 C 0.11439 0.2935 0.26815 0.0
C1197 C 0.1346 0.3094 0.21959 0.0
C1198 C 0.11689 0.31388 0.28596 0.0
C1199 C 0.12834 0.33176 0.2711 0.0
H1200 H 0.60096 0.18014 0.20473 0.0
H1201 H 0.61434 0.22861 0.28466 0.0
H1202 H 0.63454 0.20037 0.31723 0.0
H1203 H 0.65071 0.16289 0.32098 0.0
H1204 H 0.63854 0.11468 0.24023 0.0
H1205 H 0.61537 0.1418 0.21025 0.0
C1206 C 0.60809 0.18446 0.22944 0.0
C1207 C 0.60629 0.2065 0.24207 0.0
C1208 C 0.61998 0.16823 0.24785 0.0
C1209 C 0.61562 0.21182 0.27418 0.0
C1210 C 0.62718 0.19568 0.29285 0.0
C1211 C 0.6428 0.15819 0.29703 0.0
C1212 C 0.64651 0.13684 0.28276 0.0
C1213 C 0.62982 0.17397 0.27962 0.0
C1214 C 0.63608 0.13105 0.25171 0.0
C1215 C 0.62285 0.14656 0.2345 0.0
H1216 H 0.83947 0.63256 0.27774 0.0
H1217 H 0.83825 0.67646 0.189 0.0
H1218 H 0.86008 0.70412 0.22002 0.0
H1219 H 0.87754 0.71682 0.27326 0.0
H1220 H 0.87856 0.67326 0.36234 0.0
H1221 H 0.85891 0.64441 0.33006 0.0
C1222 C 0.8441 0.64811 0.26507 0.0
C1223 C 0.83705 0.65249 0.2312 0.0
C1224 C 0.85655 0.66404 0.28313 0.0
C1225 C 0.84335 0.67267 0.21512 0.0
C1226 C 0.85581 0.68854 0.23284 0.0
C1227 C 0.8736 0.70097 0.2856 0.0
C1228 C 0.87934 0.69729 0.32027 0.0
C1229 C 0.86218 0.68454 0.26701 0.0
C1230 C 0.87427 0.67657 0.33573 0.0
C1231 C 0.86298 0.66008 0.31731 0.0
H1232 H 0.39387 0.79483 0.28452 0.0
H1233 H 0.35781 0.78731 0.18943 0.0
H1234 H 0.33066 0.81416 0.20928 0.0
H1235 H 0.31642 0.83888 0.25382 0.0
H1236 H 0.35122 0.84614 0.34995 0.0
H1237 H 0.37963 0.82043 0.32938 0.0
C1238 C 0.38012 0.79916 0.26812 0.0
C1239 C 0.37789 0.78899 0.23559 0.0
C1240 C 0.36431 0.81456 0.27983 0.0
C1241 C 0.35993 0.79476 0.21467 0.0
C1242 C 0.34436 0.81016 0.22595 0.0
C1243 C 0.33027 0.83499 0.27027 0.0
C1244 C 0.33168 0.84441 0.30336 0.0
C1245 C 0.3463 0.82003 0.25852 0.0
C1246 C 0.34972 0.83908 0.32435 0.0
C1247 C 0.36596 0.82436 0.31262 0.0
H1248 H 0.18461 0.65145 0.81282 0.0
H1249 H 0.14546 0.5942 0.78358 0.0
H1250 H 0.11839 0.61916 0.75736 0.0
H1251 H 0.10693 0.65714 0.73997 0.0
H1252 H 0.1468 0.71409 0.76844 0.0
H1253 H 0.17248 0.68927 0.79774 0.0
C1254 C 0.17009 0.64438 0.80096 0.0
C1255 C 0.16715 0.62096 0.80001 0.0
C1256 C 0.15477 0.65877 0.78558 0.0
C1257 C 0.14817 0.61216 0.78461 0.0
C1258 C 0.13271 0.62642 0.76952 0.0
C1259 C 0.12117 0.66414 0.75275 0.0
C1260 C 0.12498 0.68744 0.75179 0.0
C1261 C 0.13601 0.64974 0.7694 0.0
C1262 C 0.14349 0.69622 0.76859 0.0
C1263 C 0.15821 0.68204 0.78539 0.0
H1264 H 0.32435 0.11783 0.75963 0.0
H1265 H 0.33168 0.15419 0.66388 0.0
H1266 H 0.35525 0.18152 0.69231 0.0
H1267 H 0.37124 0.19679 0.7452 0.0
H1268 H 0.36399 0.1606 0.84105 0.0
H1269 H 0.34303 0.13143 0.81162 0.0
C1270 C 0.33129 0.13158 0.74487 0.0
C1271 C 0.32602 0.13409 0.70978 0.0
C1272 C 0.34471 0.14737 0.76143 0.0
C1273 C 0.33534 0.15191 0.69098 0.0
C1274 C 0.34878 0.16761 0.70723 0.0
C1275 C 0.36521 0.18244 0.75963 0.0
C1276 C 0.36893 0.18101 0.79533 0.0
C1277 C 0.35314 0.16579 0.74259 0.0
C1278 C 0.36127 0.16216 0.81356 0.0
C1279 C 0.34923 0.1455 0.79677 0.0
H1280 H 0.87585 0.29497 0.7766 0.0
H1281 H 0.8482 0.30444 0.67519 0.0
H1282 H 0.82112 0.33033 0.69872 0.0
H1283 H 0.80403 0.34862 0.74843 0.0
H1284 H 0.83085 0.33822 0.85017 0.0
H1285 H 0.85956 0.31443 0.82609 0.0
C1286 C 0.86404 0.30287 0.75959 0.0
C1287 C 0.864 0.29771 0.72424 0.0
C1288 C 0.84828 0.31747 0.77336 0.0
C1289 C 0.84854 0.30804 0.70256 0.0
C1290 C 0.83302 0.32284 0.71598 0.0
C1291 C 0.81623 0.34128 0.76534 0.0
C1292 C 0.81521 0.3451 0.80105 0.0
C1293 C 0.83253 0.3274 0.7514 0.0
C1294 C 0.83118 0.33546 0.82258 0.0
C1295 C 0.84761 0.32185 0.80884 0.0
H1296 H 0.66115 0.82861 0.66703 0.0
H1297 H 0.65147 0.87824 0.74659 0.0
H1298 H 0.62978 0.8514 0.77995 0.0
H1299 H 0.61565 0.8131 0.78818 0.0
H1300 H 0.62663 0.7633 0.70924 0.0
H1301 H 0.6457 0.79103 0.67399 0.0
C1302 C 0.65413 0.83368 0.69151 0.0
C1303 C 0.65804 0.85538 0.70437 0.0
C1304 C 0.64204 0.81808 0.7108 0.0
C1305 C 0.64879 0.86161 0.73614 0.0
C1306 C 0.63643 0.84626 0.75528 0.0
C1307 C 0.62206 0.80836 0.76315 0.0
C1308 C 0.61983 0.78612 0.75149 0.0
C1309 C 0.63327 0.82432 0.74313 0.0
C1310 C 0.62824 0.78026 0.71897 0.0
C1311 C 0.63914 0.79611 0.69875 0.0
H1312 H 0.8298 0.69092 0.68961 0.0
H1313 H 0.86842 0.71647 0.77412 0.0
H1314 H 0.85534 0.6861 0.81107 0.0
H1315 H 0.83179 0.65329 0.82015 0.0
H1316 H 0.79241 0.62829 0.73614 0.0
H1317 H 0.80714 0.65734 0.69818 0.0
C1318 C 0.83544 0.68981 0.71606 0.0
C1319 C 0.84998 0.70603 0.72909 0.0
C1320 C 0.82774 0.67239 0.73728 0.0
C1321 C 0.85714 0.70429 0.76344 0.0
C1322 C 0.84969 0.68691 0.78461 0.0
C1323 C 0.82658 0.65403 0.79345 0.0
C1324 C 0.81098 0.63866 0.78107 0.0
C1325 C 0.83484 0.67099 0.7719 0.0
C1326 C 0.80436 0.63994 0.7464 0.0
C1327 C 0.81274 0.65659 0.72467 0.0
H1328 H 0.38643 0.83141 0.78262 0.0
H1329 H 0.33597 0.78269 0.80506 0.0
H1330 H 0.30831 0.80772 0.7813 0.0
H1331 H 0.29845 0.84277 0.753 0.0
H1332 H 0.34853 0.89114 0.72732 0.0
H1333 H 0.37635 0.86696 0.75368 0.0
C1334 C 0.36937 0.82635 0.7824 0.0
C1335 C 0.36328 0.80522 0.79556 0.0
C1336 C 0.3535 0.84073 0.76815 0.0
C1337 C 0.34113 0.7988 0.79491 0.0
C1338 C 0.32527 0.81312 0.78141 0.0
C1339 C 0.31543 0.84816 0.75336 0.0
C1340 C 0.32141 0.86876 0.73834 0.0
C1341 C 0.33128 0.83404 0.76782 0.0
C1342 C 0.34351 0.87534 0.7387 0.0
C1343 C 0.35941 0.86152 0.75374 0.0
H1344 H 0.11428 0.29861 0.74278 0.0
H1345 H 0.15388 0.29195 0.65108 0.0
H1346 H 0.17925 0.32021 0.6728 0.0
H1347 H 0.19121 0.34535 0.719 0.0
H1348 H 0.15166 0.35212 0.81073 0.0
H1349 H 0.12516 0.32543 0.7876 0.0
C1350 C 0.12841 0.3034 0.72749 0.0
C1351 C 0.13226 0.29305 0.69551 0.0
C1352 C 0.14296 0.31968 0.7401 0.0
C1353 C 0.15054 0.29961 0.67584 0.0
C1354 C 0.16509 0.31575 0.68824 0.0
C1355 C 0.17671 0.34114 0.73384 0.0
C1356 C 0.17352 0.3506 0.76665 0.0
C1357 C 0.1616 0.32569 0.72051 0.0
C1358 C 0.15456 0.34505 0.78543 0.0
C1359 C 0.13942 0.32973 0.77229 0.0
H1360 H 0.65681 0.13834 0.7244 0.0
H1361 H 0.72117 0.14558 0.76914 0.0
H1362 H 0.70642 0.17045 0.81319 0.0
H1363 H 0.67568 0.19157 0.83752 0.0
H1364 H 0.61135 0.1849 0.79255 0.0
H1365 H 0.62566 0.1583 0.75037 0.0
C1366 C 0.66759 0.14526 0.74389 0.0
C1367 C 0.69009 0.14017 0.74326 0.0
C1368 C 0.65903 0.1597 0.76915 0.0
C1369 C 0.7038 0.14925 0.76884 0.0
C1370 C 0.69539 0.16351 0.7941 0.0
C1371 C 0.66473 0.18417 0.81869 0.0
C1372 C 0.6425 0.19032 0.81816 0.0
C1373 C 0.67309 0.16905 0.79428 0.0
C1374 C 0.62856 0.18053 0.79355 0.0
C1375 C 0.63673 0.16533 0.76933 0.0
H1376 H 0.78751 0.32507 0.2158 0.0
H1377 H 0.79809 0.37702 0.29146 0.0
H1378 H 0.82476 0.35327 0.32108 0.0
H1379 H 0.8449 0.31764 0.32562 0.0
H1380 H 0.83419 0.2659 0.24958 0.0
H1381 H 0.80782 0.28979 0.21993 0.0
C1382 C 0.7956 0.33122 0.23881 0.0
C1383 C 0.79076 0.35277 0.25142 0.0
C1384 C 0.81096 0.31754 0.25559 0.0
C1385 C 0.80149 0.36049 0.2812 0.0
C1386 C 0.81676 0.34692 0.29815 0.0
C1387 C 0.83686 0.31161 0.30249 0.0
C1388 C 0.84154 0.29 0.28989 0.0
C1389 C 0.82162 0.32542 0.28556 0.0
C1390 C 0.83093 0.28246 0.25989 0.0
C1391 C 0.8158 0.29609 0.24291 0.0
H1392 H 0.68347 0.79562 0.14795 0.0
H1393 H 0.6222 0.7948 0.20362 0.0
H1394 H 0.63536 0.82476 0.24115 0.0
H1395 H 0.66487 0.84997 0.25982 0.0
H1396 H 0.72626 0.85034 0.20443 0.0
H1397 H 0.71235 0.82184 0.16509 0.0
C1398 C 0.67292 0.80207 0.16815 0.0
C1399 C 0.65193 0.79289 0.17304 0.0
C1400 C 0.68063 0.81918 0.18979 0.0
C1401 C 0.63847 0.80152 0.1993 0.0
C1402 C 0.64598 0.81864 0.22083 0.0
C1403 C 0.67517 0.84393 0.23903 0.0
C1404 C 0.69661 0.85222 0.23525 0.0
C1405 C 0.66713 0.8274 0.21657 0.0
C1406 C 0.70971 0.84422 0.20806 0.0
C1407 C 0.70179 0.82789 0.18553 0.0
H1408 H 0.14931 0.7086 0.28509 0.0
H1409 H 0.13444 0.65133 0.34938 0.0
H1410 H 0.15683 0.62739 0.31226 0.0
H1411 H 0.18199 0.62318 0.26303 0.0
H1412 H 0.19687 0.68087 0.19955 0.0
H1413 H 0.17299 0.70414 0.23488 0.0
C1414 C 0.15086 0.69086 0.29099 0.0
C1415 C 0.14033 0.68181 0.32012 0.0
C1416 C 0.1638 0.67727 0.26971 0.0
C1417 C 0.14242 0.65876 0.32717 0.0
C1418 C 0.15525 0.64506 0.30598 0.0
C1419 C 0.17988 0.6408 0.25678 0.0
C1420 C 0.19132 0.65028 0.22878 0.0
C1421 C 0.16621 0.65419 0.2774 0.0
C1422 C 0.18836 0.67314 0.22101 0.0
C1423 C 0.17471 0.68649 0.24123 0.0
H1424 H 0.32758 0.14766 0.29502 0.0
H1425 H 0.28051 0.12949 0.2168 0.0
H1426 H 0.29649 0.15688 0.1774 0.0
H1427 H 0.32239 0.18736 0.16615 0.0
H1428 H 0.36924 0.20608 0.2443 0.0
H1429 H 0.35484 0.17698 0.28258 0.0
C1430 C 0.32092 0.14956 0.26927 0.0
C1431 C 0.30277 0.13662 0.25903 0.0
C1432 C 0.33007 0.1655 0.24673 0.0
C1433 C 0.29441 0.13927 0.22549 0.0
C1434 C 0.30351 0.15497 0.20289 0.0
C1435 C 0.32957 0.18501 0.19146 0.0
C1436 C 0.34675 0.199 0.2024 0.0
C1437 C 0.32112 0.16839 0.21342 0.0
C1438 C 0.35594 0.1956 0.23524 0.0
C1439 C 0.34769 0.17899 0.25719 0.0
loop_
_geom_bond_atom_site_label_1
_geom_bond_atom_site_label_2
_geom_bond_distance
_geom_bond_site_symmetry_2
_ccdc_geom_bond_type
C0 O1 1.160 . S
C0 O7 1.185 . S
O1 C0 1.160 . S
O2 Zn3 1.899 . S
O2 C10 1.284 . S
Zn3 O2 1.899 . S
Zn3 O4 2.032 . S
Zn3 O7 2.086 . S
Zn3 O12 1.977 . S
O4 Zn3 2.032 . S
O4 C8 1.278 . S
C5 O6 1.203 . S
C5 O12 1.267 . S
O6 C5 1.203 . S
O7 C0 1.185 . S
O7 Zn3 2.086 . S
C8 O4 1.278 . S
C8 O9 1.211 . S
O9 C8 1.211 . S
C10 O2 1.284 . S
C10 O11 1.273 . S
O11 C10 1.273 . S
O12 Zn3 1.977 . S
O12 C5 1.267 . S
C13 O14 1.160 . S
C13 O20 1.185 . S
O14 C13 1.160 . S
O15 Zn16 1.899 . S
O15 C23 1.284 . S
Zn16 O15 1.899 . S
Zn16 O17 2.032 . S
Zn16 O20 2.086 . S
Zn16 O25 1.977 . S
O17 Zn16 2.032 . S
O17 C21 1.278 . S
C18 O19 1.203 . S
C18 O25 1.267 . S
O19 C18 1.203 . S
O20 C13 1.185 . S
O20 Zn16 2.086 . S
C21 O17 1.278 . S
C21 O22 1.211 . S
O22 C21 1.211 . S
C23 O15 1.284 . S
C23 O24 1.273 . S
O24 C23 1.273 . S
O25 Zn16 1.977 . S
O25 C18 1.267 . S
C26 O27 1.160 . S
C26 O33 1.185 . S
O27 C26 1.160 . S
O28 Zn29 1.899 . S
O28 C36 1.284 . S
Zn29 O28 1.899 . S
Zn29 O30 2.032 . S
Zn29 O33 2.086 . S
Zn29 O38 1.977 . S
O30 Zn29 2.032 . S
O30 C34 1.278 . S
C31 O32 1.203 . S
C31 O38 1.267 . S
O32 C31 1.203 . S
O33 C26 1.185 . S
O33 Zn29 2.086 . S
C34 O30 1.278 . S
C34 O35 1.211 . S
O35 C34 1.211 . S
C36 O28 1.284 . S
C36 O37 1.273 . S
O37 C36 1.273 . S
O38 Zn29 1.977 . S
O38 C31 1.267 . S
C39 O40 1.160 . S
C39 O46 1.185 . S
O40 C39 1.160 . S
O41 Zn42 1.899 . S
O41 C49 1.284 . S
Zn42 O41 1.899 . S
Zn42 O43 2.032 . S
Zn42 O46 2.086 . S
Zn42 O51 1.977 . S
O43 Zn42 2.032 . S
O43 C47 1.278 . S
C44 O45 1.203 . S
C44 O51 1.267 . S
O45 C44 1.203 . S
O46 C39 1.185 . S
O46 Zn42 2.086 . S
C47 O43 1.278 . S
C47 O48 1.211 . S
O48 C47 1.211 . S
C49 O41 1.284 . S
C49 O50 1.273 . S
O50 C49 1.273 . S
O51 Zn42 1.977 . S
O51 C44 1.267 . S
C52 O53 1.160 . S
C52 O59 1.185 . S
O53 C52 1.160 . S
O54 Zn55 1.899 . S
O54 C62 1.284 . S
Zn55 O54 1.899 . S
Zn55 O56 2.032 . S
Zn55 O59 2.086 . S
Zn55 O64 1.977 . S
O56 Zn55 2.032 . S
O56 C60 1.278 . S
C57 O58 1.203 . S
C57 O64 1.267 . S
O58 C57 1.203 . S
O59 C52 1.185 . S
O59 Zn55 2.086 . S
C60 O56 1.278 . S
C60 O61 1.211 . S
O61 C60 1.211 . S
C62 O54 1.284 . S
C62 O63 1.273 . S
O63 C62 1.273 . S
O64 Zn55 1.977 . S
O64 C57 1.267 . S
C65 O66 1.160 . S
C65 O72 1.185 . S
O66 C65 1.160 . S
O67 Zn68 1.899 . S
O67 C75 1.284 . S
Zn68 O67 1.899 . S
Zn68 O69 2.032 . S
Zn68 O72 2.086 . S
Zn68 O77 1.977 . S
O69 Zn68 2.032 . S
O69 C73 1.278 . S
C70 O71 1.203 . S
C70 O77 1.267 . S
O71 C70 1.203 . S
O72 C65 1.185 . S
O72 Zn68 2.086 . S
C73 O69 1.278 . S
C73 O74 1.211 . S
O74 C73 1.211 . S
C75 O67 1.284 . S
C75 O76 1.273 . S
O76 C75 1.273 . S
O77 Zn68 1.977 . S
O77 C70 1.267 . S
C78 O79 1.160 . S
C78 O85 1.185 . S
O79 C78 1.160 . S
O80 Zn81 1.899 . S
O80 C88 1.284 . S
Zn81 O80 1.899 . S
Zn81 O82 2.032 . S
Zn81 O85 2.086 . S
Zn81 O90 1.977 . S
O82 Zn81 2.032 . S
O82 C86 1.278 . S
C83 O84 1.203 . S
C83 O90 1.267 . S
O84 C83 1.203 . S
O85 C78 1.185 . S
O85 Zn81 2.086 . S
C86 O82 1.278 . S
C86 O87 1.211 . S
O87 C86 1.211 . S
C88 O80 1.284 . S
C88 O89 1.273 . S
O89 C88 1.273 . S
O90 Zn81 1.977 . S
O90 C83 1.267 . S
C91 O92 1.160 . S
C91 O98 1.185 . S
O92 C91 1.160 . S
O93 Zn94 1.899 . S
O93 C101 1.284 . S
Zn94 O93 1.899 . S
Zn94 O95 2.032 . S
Zn94 O98 2.086 . S
Zn94 O103 1.977 . S
O95 Zn94 2.032 . S
O95 C99 1.278 . S
C96 O97 1.203 . S
C96 O103 1.267 . S
O97 C96 1.203 . S
O98 C91 1.185 . S
O98 Zn94 2.086 . S
C99 O95 1.278 . S
C99 O100 1.211 . S
O100 C99 1.211 . S
C101 O93 1.284 . S
C101 O102 1.273 . S
O102 C101 1.273 . S
O103 Zn94 1.977 . S
O103 C96 1.267 . S
C104 O105 1.160 . S
C104 O111 1.185 . S
O105 C104 1.160 . S
O106 Zn107 1.899 . S
O106 C114 1.284 . S
Zn107 O106 1.899 . S
Zn107 O108 2.032 . S
Zn107 O111 2.086 . S
Zn107 O116 1.977 . S
O108 Zn107 2.032 . S
O108 C112 1.278 . S
C109 O110 1.203 . S
C109 O116 1.267 . S
O110 C109 1.203 . S
O111 C104 1.185 . S
O111 Zn107 2.086 . S
C112 O108 1.278 . S
C112 O113 1.211 . S
O113 C112 1.211 . S
C114 O106 1.284 . S
C114 O115 1.273 . S
O115 C114 1.273 . S
O116 Zn107 1.977 . S
O116 C109 1.267 . S
C117 O118 1.160 . S
C117 O124 1.185 . S
O118 C117 1.160 . S
O119 Zn120 1.899 . S
O119 C127 1.284 . S
Zn120 O119 1.899 . S
Zn120 O121 2.032 . S
Zn120 O124 2.086 . S
Zn120 O129 1.977 . S
O121 Zn120 2.032 . S
O121 C125 1.278 . S
C122 O123 1.203 . S
C122 O129 1.267 . S
O123 C122 1.203 . S
O124 C117 1.185 . S
O124 Zn120 2.086 . S
C125 O121 1.278 . S
C125 O126 1.211 . S
O126 C125 1.211 . S
C127 O119 1.284 . S
C127 O128 1.273 . S
O128 C127 1.273 . S
O129 Zn120 1.977 . S
O129 C122 1.267 . S
C130 O131 1.160 . S
C130 O137 1.185 . S
O131 C130 1.160 . S
O132 Zn133 1.899 . S
O132 C140 1.284 . S
Zn133 O132 1.899 . S
Zn133 O134 2.032 . S
Zn133 O137 2.086 . S
Zn133 O142 1.977 . S
O134 Zn133 2.032 . S
O134 C138 1.278 . S
C135 O136 1.203 . S
C135 O142 1.267 . S
O136 C135 1.203 . S
O137 C130 1.185 . S
O137 Zn133 2.086 . S
C138 O134 1.278 . S
C138 O139 1.211 . S
O139 C138 1.211 . S
C140 O132 1.284 . S
C140 O141 1.273 . S
O141 C140 1.273 . S
O142 Zn133 1.977 . S
O142 C135 1.267 . S
C143 O144 1.160 . S
C143 O150 1.185 . S
O144 C143 1.160 . S
O145 Zn146 1.899 . S
O145 C153 1.284 . S
Zn146 O145 1.899 . S
Zn146 O147 2.032 . S
Zn146 O150 2.086 . S
Zn146 O155 1.977 . S
O147 Zn146 2.032 . S
O147 C151 1.278 . S
C148 O149 1.203 . S
C148 O155 1.267 . S
O149 C148 1.203 . S
O150 C143 1.185 . S
O150 Zn146 2.086 . S
C151 O147 1.278 . S
C151 O152 1.211 . S
O152 C151 1.211 . S
C153 O145 1.284 . S
C153 O154 1.273 . S
O154 C153 1.273 . S
O155 Zn146 1.977 . S
O155 C148 1.267 . S
C156 O157 1.160 . S
C156 O163 1.185 . S
O157 C156 1.160 . S
O158 Zn159 1.899 . S
O158 C166 1.284 . S
Zn159 O158 1.899 . S
Zn159 O160 2.032 . S
Zn159 O163 2.086 . S
Zn159 O168 1.977 . S
O160 Zn159 2.032 . S
O160 C164 1.278 . S
C161 O162 1.203 . S
C161 O168 1.267 . S
O162 C161 1.203 . S
O163 C156 1.185 . S
O163 Zn159 2.086 . S
C164 O160 1.278 . S
C164 O165 1.211 . S
O165 C164 1.211 . S
C166 O158 1.284 . S
C166 O167 1.273 . S
O167 C166 1.273 . S
O168 Zn159 1.977 . S
O168 C161 1.267 . S
C169 O170 1.160 . S
C169 O176 1.185 . S
O170 C169 1.160 . S
O171 Zn172 1.899 . S
O171 C179 1.284 . S
Zn172 O171 1.899 . S
Zn172 O173 2.032 . S
Zn172 O176 2.086 . S
Zn172 O181 1.977 . S
O173 Zn172 2.032 . S
O173 C177 1.278 . S
C174 O175 1.203 . S
C174 O181 1.267 . S
O175 C174 1.203 . S
O176 C169 1.185 . S
O176 Zn172 2.086 . S
C177 O173 1.278 . S
C177 O178 1.211 . S
O178 C177 1.211 . S
C179 O171 1.284 . S
C179 O180 1.273 . S
O180 C179 1.273 . S
O181 Zn172 1.977 . S
O181 C174 1.267 . S
C182 O183 1.160 . S
C182 O189 1.185 . S
O183 C182 1.160 . S
O184 Zn185 1.899 . S
O184 C192 1.284 . S
Zn185 O184 1.899 . S
Zn185 O186 2.032 . S
Zn185 O189 2.086 . S
Zn185 O194 1.977 . S
O186 Zn185 2.032 . S
O186 C190 1.278 . S
C187 O188 1.203 . S
C187 O194 1.267 . S
O188 C187 1.203 . S
O189 C182 1.185 . S
O189 Zn185 2.086 . S
C190 O186 1.278 . S
C190 O191 1.211 . S
O191 C190 1.211 . S
C192 O184 1.284 . S
C192 O193 1.273 . S
O193 C192 1.273 . S
O194 Zn185 1.977 . S
O194 C187 1.267 . S
C195 O196 1.160 . S
C195 O202 1.185 . S
O196 C195 1.160 . S
O197 Zn198 1.899 . S
O197 C205 1.284 . S
Zn198 O197 1.899 . S
Zn198 O199 2.032 . S
Zn198 O202 2.086 . S
Zn198 O207 1.977 . S
O199 Zn198 2.032 . S
O199 C203 1.278 . S
C200 O201 1.203 . S
C200 O207 1.267 . S
O201 C200 1.203 . S
O202 C195 1.185 . S
O202 Zn198 2.086 . S
C203 O199 1.278 . S
C203 O204 1.211 . S
O204 C203 1.211 . S
C205 O197 1.284 . S
C205 O206 1.273 . S
O206 C205 1.273 . S
O207 Zn198 1.977 . S
O207 C200 1.267 . S
C208 O209 1.160 . S
C208 O215 1.185 . S
O209 C208 1.160 . S
O210 Zn211 1.899 . S
O210 C218 1.284 . S
Zn211 O210 1.899 . S
Zn211 O212 2.032 . S
Zn211 O215 2.086 . S
Zn211 O220 1.977 . S
O212 Zn211 2.032 . S
O212 C216 1.278 . S
C213 O214 1.203 . S
C213 O220 1.267 . S
O214 C213 1.203 . S
O215 C208 1.185 . S
O215 Zn211 2.086 . S
C216 O212 1.278 . S
C216 O217 1.211 . S
O217 C216 1.211 . S
C218 O210 1.284 . S
C218 O219 1.273 . S
O219 C218 1.273 . S
O220 Zn211 1.977 . S
O220 C213 1.267 . S
C221 O222 1.160 . S
C221 O228 1.185 . S
O222 C221 1.160 . S
O223 Zn224 1.899 . S
O223 C231 1.284 . S
Zn224 O223 1.899 . S
Zn224 O225 2.032 . S
Zn224 O228 2.086 . S
Zn224 O233 1.977 . S
O225 Zn224 2.032 . S
O225 C229 1.278 . S
C226 O227 1.203 . S
C226 O233 1.267 . S
O227 C226 1.203 . S
O228 C221 1.185 . S
O228 Zn224 2.086 . S
C229 O225 1.278 . S
C229 O230 1.211 . S
O230 C229 1.211 . S
C231 O223 1.284 . S
C231 O232 1.273 . S
O232 C231 1.273 . S
O233 Zn224 1.977 . S
O233 C226 1.267 . S
C234 O235 1.160 . S
C234 O241 1.185 . S
O235 C234 1.160 . S
O236 Zn237 1.899 . S
O236 C244 1.284 . S
Zn237 O236 1.899 . S
Zn237 O238 2.032 . S
Zn237 O241 2.086 . S
Zn237 O246 1.977 . S
O238 Zn237 2.032 . S
O238 C242 1.278 . S
C239 O240 1.203 . S
C239 O246 1.267 . S
O240 C239 1.203 . S
O241 C234 1.185 . S
O241 Zn237 2.086 . S
C242 O238 1.278 . S
C242 O243 1.211 . S
O243 C242 1.211 . S
C244 O236 1.284 . S
C244 O245 1.273 . S
O245 C244 1.273 . S
O246 Zn237 1.977 . S
O246 C239 1.267 . S
C247 O248 1.160 . S
C247 O254 1.185 . S
O248 C247 1.160 . S
O249 Zn250 1.899 . S
O249 C257 1.284 . S
Zn250 O249 1.899 . S
Zn250 O251 2.032 . S
Zn250 O254 2.086 . S
Zn250 O259 1.977 . S
O251 Zn250 2.032 . S
O251 C255 1.278 . S
C252 O253 1.203 . S
C252 O259 1.267 . S
O253 C252 1.203 . S
O254 C247 1.185 . S
O254 Zn250 2.086 . S
C255 O251 1.278 . S
C255 O256 1.211 . S
O256 C255 1.211 . S
C257 O249 1.284 . S
C257 O258 1.273 . S
O258 C257 1.273 . S
O259 Zn250 1.977 . S
O259 C252 1.267 . S
C260 O261 1.160 . S
C260 O267 1.185 . S
O261 C260 1.160 . S
O262 Zn263 1.899 . S
O262 C270 1.284 . S
Zn263 O262 1.899 . S
Zn263 O264 2.032 . S
Zn263 O267 2.086 . S
Zn263 O272 1.977 . S
O264 Zn263 2.032 . S
O264 C268 1.278 . S
C265 O266 1.203 . S
C265 O272 1.267 . S
O266 C265 1.203 . S
O267 C260 1.185 . S
O267 Zn263 2.086 . S
C268 O264 1.278 . S
C268 O269 1.211 . S
O269 C268 1.211 . S
C270 O262 1.284 . S
C270 O271 1.273 . S
O271 C270 1.273 . S
O272 Zn263 1.977 . S
O272 C265 1.267 . S
C273 O274 1.160 . S
C273 O280 1.185 . S
O274 C273 1.160 . S
O275 Zn276 1.899 . S
O275 C283 1.284 . S
Zn276 O275 1.899 . S
Zn276 O277 2.032 . S
Zn276 O280 2.086 . S
Zn276 O285 1.977 . S
O277 Zn276 2.032 . S
O277 C281 1.278 . S
C278 O279 1.203 . S
C278 O285 1.267 . S
O279 C278 1.203 . S
O280 C273 1.185 . S
O280 Zn276 2.086 . S
C281 O277 1.278 . S
C281 O282 1.211 . S
O282 C281 1.211 . S
C283 O275 1.284 . S
C283 O284 1.273 . S
O284 C283 1.273 . S
O285 Zn276 1.977 . S
O285 C278 1.267 . S
C286 O287 1.160 . S
C286 O293 1.185 . S
O287 C286 1.160 . S
O288 Zn289 1.899 . S
O288 C296 1.284 . S
Zn289 O288 1.899 . S
Zn289 O290 2.032 . S
Zn289 O293 2.086 . S
Zn289 O298 1.977 . S
O290 Zn289 2.032 . S
O290 C294 1.278 . S
C291 O292 1.203 . S
C291 O298 1.267 . S
O292 C291 1.203 . S
O293 C286 1.185 . S
O293 Zn289 2.086 . S
C294 O290 1.278 . S
C294 O295 1.211 . S
O295 C294 1.211 . S
C296 O288 1.284 . S
C296 O297 1.273 . S
O297 C296 1.273 . S
O298 Zn289 1.977 . S
O298 C291 1.267 . S
C299 O300 1.160 . S
C299 O306 1.185 . S
O300 C299 1.160 . S
O301 Zn302 1.899 . S
O301 C309 1.284 . S
Zn302 O301 1.899 . S
Zn302 O303 2.032 . S
Zn302 O306 2.086 . S
Zn302 O311 1.977 . S
O303 Zn302 2.032 . S
O303 C307 1.278 . S
C304 O305 1.203 . S
C304 O311 1.267 . S
O305 C304 1.203 . S
O306 C299 1.185 . S
O306 Zn302 2.086 . S
C307 O303 1.278 . S
C307 O308 1.211 . S
O308 C307 1.211 . S
C309 O301 1.284 . S
C309 O310 1.273 . S
O310 C309 1.273 . S
O311 Zn302 1.977 . S
O311 C304 1.267 . S
C312 O313 1.160 . S
C312 O319 1.185 . S
O313 C312 1.160 . S
O314 Zn315 1.899 . S
O314 C322 1.284 . S
Zn315 O314 1.899 . S
Zn315 O316 2.032 . S
Zn315 O319 2.086 . S
Zn315 O324 1.977 . S
O316 Zn315 2.032 . S
O316 C320 1.278 . S
C317 O318 1.203 . S
C317 O324 1.267 . S
O318 C317 1.203 . S
O319 C312 1.185 . S
O319 Zn315 2.086 . S
C320 O316 1.278 . S
C320 O321 1.211 . S
O321 C320 1.211 . S
C322 O314 1.284 . S
C322 O323 1.273 . S
O323 C322 1.273 . S
O324 Zn315 1.977 . S
O324 C317 1.267 . S
C325 O326 1.160 . S
C325 O332 1.185 . S
O326 C325 1.160 . S
O327 Zn328 1.899 . S
O327 C335 1.284 . S
Zn328 O327 1.899 . S
Zn328 O329 2.032 . S
Zn328 O332 2.086 . S
Zn328 O337 1.977 . S
O329 Zn328 2.032 . S
O329 C333 1.278 . S
C330 O331 1.203 . S
C330 O337 1.267 . S
O331 C330 1.203 . S
O332 C325 1.185 . S
O332 Zn328 2.086 . S
C333 O329 1.278 . S
C333 O334 1.211 . S
O334 C333 1.211 . S
C335 O327 1.284 . S
C335 O336 1.273 . S
O336 C335 1.273 . S
O337 Zn328 1.977 . S
O337 C330 1.267 . S
C338 O339 1.160 . S
C338 O345 1.185 . S
O339 C338 1.160 . S
O340 Zn341 1.899 . S
O340 C348 1.284 . S
Zn341 O340 1.899 . S
Zn341 O342 2.032 . S
Zn341 O345 2.086 . S
Zn341 O350 1.977 . S
O342 Zn341 2.032 . S
O342 C346 1.278 . S
C343 O344 1.203 . S
C343 O350 1.267 . S
O344 C343 1.203 . S
O345 C338 1.185 . S
O345 Zn341 2.086 . S
C346 O342 1.278 . S
C346 O347 1.211 . S
O347 C346 1.211 . S
C348 O340 1.284 . S
C348 O349 1.273 . S
O349 C348 1.273 . S
O350 Zn341 1.977 . S
O350 C343 1.267 . S
C351 O352 1.160 . S
C351 O358 1.185 . S
O352 C351 1.160 . S
O353 Zn354 1.899 . S
O353 C361 1.284 . S
Zn354 O353 1.899 . S
Zn354 O355 2.032 . S
Zn354 O358 2.086 . S
Zn354 O363 1.977 . S
O355 Zn354 2.032 . S
O355 C359 1.278 . S
C356 O357 1.203 . S
C356 O363 1.267 . S
O357 C356 1.203 . S
O358 C351 1.185 . S
O358 Zn354 2.086 . S
C359 O355 1.278 . S
C359 O360 1.211 . S
O360 C359 1.211 . S
C361 O353 1.284 . S
C361 O362 1.273 . S
O362 C361 1.273 . S
O363 Zn354 1.977 . S
O363 C356 1.267 . S
C364 O365 1.160 . S
C364 O371 1.185 . S
O365 C364 1.160 . S
O366 Zn367 1.899 . S
O366 C374 1.284 . S
Zn367 O366 1.899 . S
Zn367 O368 2.032 . S
Zn367 O371 2.086 . S
Zn367 O376 1.977 . S
O368 Zn367 2.032 . S
O368 C372 1.278 . S
C369 O370 1.203 . S
C369 O376 1.267 . S
O370 C369 1.203 . S
O371 C364 1.185 . S
O371 Zn367 2.086 . S
C372 O368 1.278 . S
C372 O373 1.211 . S
O373 C372 1.211 . S
C374 O366 1.284 . S
C374 O375 1.273 . S
O375 C374 1.273 . S
O376 Zn367 1.977 . S
O376 C369 1.267 . S
C377 O378 1.160 . S
C377 O384 1.185 . S
O378 C377 1.160 . S
O379 Zn380 1.899 . S
O379 C387 1.284 . S
Zn380 O379 1.899 . S
Zn380 O381 2.032 . S
Zn380 O384 2.086 . S
Zn380 O389 1.977 . S
O381 Zn380 2.032 . S
O381 C385 1.278 . S
C382 O383 1.203 . S
C382 O389 1.267 . S
O383 C382 1.203 . S
O384 C377 1.185 . S
O384 Zn380 2.086 . S
C385 O381 1.278 . S
C385 O386 1.211 . S
O386 C385 1.211 . S
C387 O379 1.284 . S
C387 O388 1.273 . S
O388 C387 1.273 . S
O389 Zn380 1.977 . S
O389 C382 1.267 . S
C390 O391 1.160 . S
C390 O397 1.185 . S
O391 C390 1.160 . S
O392 Zn393 1.899 . S
O392 C400 1.284 . S
Zn393 O392 1.899 . S
Zn393 O394 2.032 . S
Zn393 O397 2.086 . S
Zn393 O402 1.977 . S
O394 Zn393 2.032 . S
O394 C398 1.278 . S
C395 O396 1.203 . S
C395 O402 1.267 . S
O396 C395 1.203 . S
O397 C390 1.185 . S
O397 Zn393 2.086 . S
C398 O394 1.278 . S
C398 O399 1.211 . S
O399 C398 1.211 . S
C400 O392 1.284 . S
C400 O401 1.273 . S
O401 C400 1.273 . S
O402 Zn393 1.977 . S
O402 C395 1.267 . S
C403 O404 1.160 . S
C403 O410 1.185 . S
O404 C403 1.160 . S
O405 Zn406 1.899 . S
O405 C413 1.284 . S
Zn406 O405 1.899 . S
Zn406 O407 2.032 . S
Zn406 O410 2.086 . S
Zn406 O415 1.977 . S
O407 Zn406 2.032 . S
O407 C411 1.278 . S
C408 O409 1.203 . S
C408 O415 1.267 . S
O409 C408 1.203 . S
O410 C403 1.185 . S
O410 Zn406 2.086 . S
C411 O407 1.278 . S
C411 O412 1.211 . S
O412 C411 1.211 . S
C413 O405 1.284 . S
C413 O414 1.273 . S
O414 C413 1.273 . S
O415 Zn406 1.977 . S
O415 C408 1.267 . S
H416 C422 0.930 . S
H417 C425 0.930 . S
H418 C426 0.930 . S
H419 C427 0.930 . S
H420 C430 0.930 . S
H421 C431 0.930 . S
C422 H416 0.930 . S
C422 C423 1.355 . S
C422 C424 1.415 . S
C423 C422 1.355 . S
C423 C425 1.419 . S
C424 C422 1.415 . S
C424 C429 1.425 . S
C424 C431 1.409 . S
C425 H417 0.930 . S
C425 C423 1.419 . S
C425 C426 1.362 . S
C426 H418 0.930 . S
C426 C425 1.362 . S
C426 C429 1.409 . S
C427 H419 0.930 . S
C427 C428 1.355 . S
C427 C429 1.415 . S
C428 C427 1.355 . S
C428 C430 1.419 . S
C429 C424 1.425 . S
C429 C426 1.409 . S
C429 C427 1.415 . S
C430 H420 0.930 . S
C430 C428 1.419 . S
C430 C431 1.362 . S
C431 H421 0.930 . S
C431 C424 1.409 . S
C431 C430 1.362 . S
H432 C438 0.930 . S
H433 C441 0.930 . S
H434 C442 0.930 . S
H435 C443 0.930 . S
H436 C446 0.930 . S
H437 C447 0.930 . S
C438 H432 0.930 . S
C438 C439 1.355 . S
C438 C440 1.415 . S
C439 C438 1.355 . S
C439 C441 1.419 . S
C440 C438 1.415 . S
C440 C445 1.425 . S
C440 C447 1.409 . S
C441 H433 0.930 . S
C441 C439 1.419 . S
C441 C442 1.362 . S
C442 H434 0.930 . S
C442 C441 1.362 . S
C442 C445 1.409 . S
C443 H435 0.930 . S
C443 C444 1.355 . S
C443 C445 1.415 . S
C444 C443 1.355 . S
C444 C446 1.419 . S
C445 C440 1.425 . S
C445 C442 1.409 . S
C445 C443 1.415 . S
C446 H436 0.930 . S
C446 C444 1.419 . S
C446 C447 1.362 . S
C447 H437 0.930 . S
C447 C440 1.409 . S
C447 C446 1.362 . S
H448 C454 0.930 . S
H449 C457 0.930 . S
H450 C458 0.930 . S
H451 C459 0.930 . S
H452 C462 0.930 . S
H453 C463 0.930 . S
C454 H448 0.930 . S
C454 C455 1.355 . S
C454 C456 1.415 . S
C455 C454 1.355 . S
C455 C457 1.419 . S
C456 C454 1.415 . S
C456 C461 1.425 . S
C456 C463 1.409 . S
C457 H449 0.930 . S
C457 C455 1.419 . S
C457 C458 1.362 . S
C458 H450 0.930 . S
C458 C457 1.362 . S
C458 C461 1.409 . S
C459 H451 0.930 . S
C459 C460 1.355 . S
C459 C461 1.415 . S
C460 C459 1.355 . S
C460 C462 1.419 . S
C461 C456 1.425 . S
C461 C458 1.409 . S
C461 C459 1.415 . S
C462 H452 0.930 . S
C462 C460 1.419 . S
C462 C463 1.362 . S
C463 H453 0.930 . S
C463 C456 1.409 . S
C463 C462 1.362 . S
H464 C470 0.930 . S
H465 C473 0.930 . S
H466 C474 0.930 . S
H467 C475 0.930 . S
H468 C478 0.930 . S
H469 C479 0.930 . S
C470 H464 0.930 . S
C470 C471 1.355 . S
C470 C472 1.415 . S
C471 C470 1.355 . S
C471 C473 1.419 . S
C472 C470 1.415 . S
C472 C477 1.425 . S
C472 C479 1.409 . S
C473 H465 0.930 . S
C473 C471 1.419 . S
C473 C474 1.362 . S
C474 H466 0.930 . S
C474 C473 1.362 . S
C474 C477 1.409 . S
C475 H467 0.930 . S
C475 C476 1.355 . S
C475 C477 1.415 . S
C476 C475 1.355 . S
C476 C478 1.419 . S
C477 C472 1.425 . S
C477 C474 1.409 . S
C477 C475 1.415 . S
C478 H468 0.930 . S
C478 C476 1.419 . S
C478 C479 1.362 . S
C479 H469 0.930 . S
C479 C472 1.409 . S
C479 C478 1.362 . S
H480 C486 0.930 . S
H481 C489 0.930 . S
H482 C490 0.930 . S
H483 C491 0.930 . S
H484 C494 0.930 . S
H485 C495 0.930 . S
C486 H480 0.930 . S
C486 C487 1.355 . S
C486 C488 1.415 . S
C487 C486 1.355 . S
C487 C489 1.419 . S
C488 C486 1.415 . S
C488 C493 1.425 . S
C488 C495 1.409 . S
C489 H481 0.930 . S
C489 C487 1.419 . S
C489 C490 1.362 . S
C490 H482 0.930 . S
C490 C489 1.362 . S
C490 C493 1.409 . S
C491 H483 0.930 . S
C491 C492 1.355 . S
C491 C493 1.415 . S
C492 C491 1.355 . S
C492 C494 1.419 . S
C493 C488 1.425 . S
C493 C490 1.409 . S
C493 C491 1.415 . S
C494 H484 0.930 . S
C494 C492 1.419 . S
C494 C495 1.362 . S
C495 H485 0.930 . S
C495 C488 1.409 . S
C495 C494 1.362 . S
H496 C502 0.930 . S
H497 C505 0.930 . S
H498 C506 0.930 . S
H499 C507 0.930 . S
H500 C510 0.930 . S
H501 C511 0.930 . S
C502 H496 0.930 . S
C502 C503 1.355 . S
C502 C504 1.415 . S
C503 C502 1.355 . S
C503 C505 1.419 . S
C504 C502 1.415 . S
C504 C509 1.425 . S
C504 C511 1.409 . S
C505 H497 0.930 . S
C505 C503 1.419 . S
C505 C506 1.362 . S
C506 H498 0.930 . S
C506 C505 1.362 . S
C506 C509 1.409 . S
C507 H499 0.930 . S
C507 C508 1.355 . S
C507 C509 1.415 . S
C508 C507 1.355 . S
C508 C510 1.419 . S
C509 C504 1.425 . S
C509 C506 1.409 . S
C509 C507 1.415 . S
C510 H500 0.930 . S
C510 C508 1.419 . S
C510 C511 1.362 . S
C511 H501 0.930 . S
C511 C504 1.409 . S
C511 C510 1.362 . S
H512 C518 0.930 . S
H513 C521 0.930 . S
H514 C522 0.930 . S
H515 C523 0.930 . S
H516 C526 0.930 . S
H517 C527 0.930 . S
C518 H512 0.930 . S
C518 C519 1.355 . S
C518 C520 1.415 . S
C519 C518 1.355 . S
C519 C521 1.419 . S
C520 C518 1.415 . S
C520 C525 1.425 . S
C520 C527 1.409 . S
C521 H513 0.930 . S
C521 C519 1.419 . S
C521 C522 1.362 . S
C522 H514 0.930 . S
C522 C521 1.362 . S
C522 C525 1.409 . S
C523 H515 0.930 . S
C523 C524 1.355 . S
C523 C525 1.415 . S
C524 C523 1.355 . S
C524 C526 1.419 . S
C525 C520 1.425 . S
C525 C522 1.409 . S
C525 C523 1.415 . S
C526 H516 0.930 . S
C526 C524 1.419 . S
C526 C527 1.362 . S
C527 H517 0.930 . S
C527 C520 1.409 . S
C527 C526 1.362 . S
H528 C534 0.930 . S
H529 C537 0.930 . S
H530 C538 0.930 . S
H531 C539 0.930 . S
H532 C542 0.930 . S
H533 C543 0.930 . S
C534 H528 0.930 . S
C534 C535 1.355 . S
C534 C536 1.415 . S
C535 C534 1.355 . S
C535 C537 1.419 . S
C536 C534 1.415 . S
C536 C541 1.425 . S
C536 C543 1.409 . S
C537 H529 0.930 . S
C537 C535 1.419 . S
C537 C538 1.362 . S
C538 H530 0.930 . S
C538 C537 1.362 . S
C538 C541 1.409 . S
C539 H531 0.930 . S
C539 C540 1.355 . S
C539 C541 1.415 . S
C540 C539 1.355 . S
C540 C542 1.419 . S
C541 C536 1.425 . S
C541 C538 1.409 . S
C541 C539 1.415 . S
C542 H532 0.930 . S
C542 C540 1.419 . S
C542 C543 1.362 . S
C543 H533 0.930 . S
C543 C536 1.409 . S
C543 C542 1.362 . S
H544 C550 0.930 . S
H545 C553 0.930 . S
H546 C554 0.930 . S
H547 C555 0.930 . S
H548 C558 0.930 . S
H549 C559 0.930 . S
C550 H544 0.930 . S
C550 C551 1.355 . S
C550 C552 1.415 . S
C551 C550 1.355 . S
C551 C553 1.419 . S
C552 C550 1.415 . S
C552 C557 1.425 . S
C552 C559 1.409 . S
C553 H545 0.930 . S
C553 C551 1.419 . S
C553 C554 1.362 . S
C554 H546 0.930 . S
C554 C553 1.362 . S
C554 C557 1.409 . S
C555 H547 0.930 . S
C555 C556 1.355 . S
C555 C557 1.415 . S
C556 C555 1.355 . S
C556 C558 1.419 . S
C557 C552 1.425 . S
C557 C554 1.409 . S
C557 C555 1.415 . S
C558 H548 0.930 . S
C558 C556 1.419 . S
C558 C559 1.362 . S
C559 H549 0.930 . S
C559 C552 1.409 . S
C559 C558 1.362 . S
H560 C566 0.930 . S
H561 C569 0.930 . S
H562 C570 0.930 . S
H563 C571 0.930 . S
H564 C574 0.930 . S
H565 C575 0.930 . S
C566 H560 0.930 . S
C566 C567 1.355 . S
C566 C568 1.415 . S
C567 C566 1.355 . S
C567 C569 1.419 . S
C568 C566 1.415 . S
C568 C573 1.425 . S
C568 C575 1.409 . S
C569 H561 0.930 . S
C569 C567 1.419 . S
C569 C570 1.362 . S
C570 H562 0.930 . S
C570 C569 1.362 . S
C570 C573 1.409 . S
C571 H563 0.930 . S
C571 C572 1.355 . S
C571 C573 1.415 . S
C572 C571 1.355 . S
C572 C574 1.419 . S
C573 C568 1.425 . S
C573 C570 1.409 . S
C573 C571 1.415 . S
C574 H564 0.930 . S
C574 C572 1.419 . S
C574 C575 1.362 . S
C575 H565 0.930 . S
C575 C568 1.409 . S
C575 C574 1.362 . S
H576 C582 0.930 . S
H577 C585 0.930 . S
H578 C586 0.930 . S
H579 C587 0.930 . S
H580 C590 0.930 . S
H581 C591 0.930 . S
C582 H576 0.930 . S
C582 C583 1.355 . S
C582 C584 1.415 . S
C583 C582 1.355 . S
C583 C585 1.419 . S
C584 C582 1.415 . S
C584 C589 1.425 . S
C584 C591 1.409 . S
C585 H577 0.930 . S
C585 C583 1.419 . S
C585 C586 1.362 . S
C586 H578 0.930 . S
C586 C585 1.362 . S
C586 C589 1.409 . S
C587 H579 0.930 . S
C587 C588 1.355 . S
C587 C589 1.415 . S
C588 C587 1.355 . S
C588 C590 1.419 . S
C589 C584 1.425 . S
C589 C586 1.409 . S
C589 C587 1.415 . S
C590 H580 0.930 . S
C590 C588 1.419 . S
C590 C591 1.362 . S
C591 H581 0.930 . S
C591 C584 1.409 . S
C591 C590 1.362 . S
H592 C598 0.930 . S
H593 C601 0.930 . S
H594 C602 0.930 . S
H595 C603 0.930 . S
H596 C606 0.930 . S
H597 C607 0.930 . S
C598 H592 0.930 . S
C598 C599 1.355 . S
C598 C600 1.415 . S
C599 C598 1.355 . S
C599 C601 1.419 . S
C600 C598 1.415 . S
C600 C605 1.425 . S
C600 C607 1.409 . S
C601 H593 0.930 . S
C601 C599 1.419 . S
C601 C602 1.362 . S
C602 H594 0.930 . S
C602 C601 1.362 . S
C602 C605 1.409 . S
C603 H595 0.930 . S
C603 C604 1.355 . S
C603 C605 1.415 . S
C604 C603 1.355 . S
C604 C606 1.419 . S
C605 C600 1.425 . S
C605 C602 1.409 . S
C605 C603 1.415 . S
C606 H596 0.930 . S
C606 C604 1.419 . S
C606 C607 1.362 . S
C607 H597 0.930 . S
C607 C600 1.409 . S
C607 C606 1.362 . S
H608 C614 0.930 . S
H609 C617 0.930 . S
H610 C618 0.930 . S
H611 C619 0.930 . S
H612 C622 0.930 . S
H613 C623 0.930 . S
C614 H608 0.930 . S
C614 C615 1.355 . S
C614 C616 1.415 . S
C615 C614 1.355 . S
C615 C617 1.419 . S
C616 C614 1.415 . S
C616 C621 1.425 . S
C616 C623 1.409 . S
C617 H609 0.930 . S
C617 C615 1.419 . S
C617 C618 1.362 . S
C618 H610 0.930 . S
C618 C617 1.362 . S
C618 C621 1.409 . S
C619 H611 0.930 . S
C619 C620 1.355 . S
C619 C621 1.415 . S
C620 C619 1.355 . S
C620 C622 1.419 . S
C621 C616 1.425 . S
C621 C618 1.409 . S
C621 C619 1.415 . S
C622 H612 0.930 . S
C622 C620 1.419 . S
C622 C623 1.362 . S
C623 H613 0.930 . S
C623 C616 1.409 . S
C623 C622 1.362 . S
H624 C630 0.930 . S
H625 C633 0.930 . S
H626 C634 0.930 . S
H627 C635 0.930 . S
H628 C638 0.930 . S
H629 C639 0.930 . S
C630 H624 0.930 . S
C630 C631 1.355 . S
C630 C632 1.415 . S
C631 C630 1.355 . S
C631 C633 1.419 . S
C632 C630 1.415 . S
C632 C637 1.425 . S
C632 C639 1.409 . S
C633 H625 0.930 . S
C633 C631 1.419 . S
C633 C634 1.362 . S
C634 H626 0.930 . S
C634 C633 1.362 . S
C634 C637 1.409 . S
C635 H627 0.930 . S
C635 C636 1.355 . S
C635 C637 1.415 . S
C636 C635 1.355 . S
C636 C638 1.419 . S
C637 C632 1.425 . S
C637 C634 1.409 . S
C637 C635 1.415 . S
C638 H628 0.930 . S
C638 C636 1.419 . S
C638 C639 1.362 . S
C639 H629 0.930 . S
C639 C632 1.409 . S
C639 C638 1.362 . S
H640 C646 0.930 . S
H641 C649 0.930 . S
H642 C650 0.930 . S
H643 C651 0.930 . S
H644 C654 0.930 . S
H645 C655 0.930 . S
C646 H640 0.930 . S
C646 C647 1.355 . S
C646 C648 1.415 . S
C647 C646 1.355 . S
C647 C649 1.419 . S
C648 C646 1.415 . S
C648 C653 1.425 . S
C648 C655 1.409 . S
C649 H641 0.930 . S
C649 C647 1.419 . S
C649 C650 1.362 . S
C650 H642 0.930 . S
C650 C649 1.362 . S
C650 C653 1.409 . S
C651 H643 0.930 . S
C651 C652 1.355 . S
C651 C653 1.415 . S
C652 C651 1.355 . S
C652 C654 1.419 . S
C653 C648 1.425 . S
C653 C650 1.409 . S
C653 C651 1.415 . S
C654 H644 0.930 . S
C654 C652 1.419 . S
C654 C655 1.362 . S
C655 H645 0.930 . S
C655 C648 1.409 . S
C655 C654 1.362 . S
H656 C662 0.930 . S
H657 C665 0.930 . S
H658 C666 0.930 . S
H659 C667 0.930 . S
H660 C670 0.930 . S
H661 C671 0.930 . S
C662 H656 0.930 . S
C662 C663 1.355 . S
C662 C664 1.415 . S
C663 C662 1.355 . S
C663 C665 1.419 . S
C664 C662 1.415 . S
C664 C669 1.425 . S
C664 C671 1.409 . S
C665 H657 0.930 . S
C665 C663 1.419 . S
C665 C666 1.362 . S
C666 H658 0.930 . S
C666 C665 1.362 . S
C666 C669 1.409 . S
C667 H659 0.930 . S
C667 C668 1.355 . S
C667 C669 1.415 . S
C668 C667 1.355 . S
C668 C670 1.419 . S
C669 C664 1.425 . S
C669 C666 1.409 . S
C669 C667 1.415 . S
C670 H660 0.930 . S
C670 C668 1.419 . S
C670 C671 1.362 . S
C671 H661 0.930 . S
C671 C664 1.409 . S
C671 C670 1.362 . S
H672 C678 0.930 . S
H673 C681 0.930 . S
H674 C682 0.930 . S
H675 C683 0.930 . S
H676 C686 0.930 . S
H677 C687 0.950 . S
C678 H672 0.930 . S
C678 C679 1.355 . S
C678 C680 1.415 . S
C679 C678 1.355 . S
C679 C681 1.419 . S
C680 C678 1.415 . S
C680 C685 1.442 . S
C680 C687 1.409 1_655 S
C681 H673 0.930 . S
C681 C679 1.419 . S
C681 C682 1.362 . S
C682 H674 0.930 . S
C682 C681 1.362 . S
C682 C685 1.439 . S
C683 H675 0.930 . S
C683 C684 1.355 . S
C683 C685 1.370 1_455 S
C684 C683 1.355 . S
C684 C686 1.419 . S
C685 C680 1.442 . S
C685 C682 1.439 . S
C685 C683 1.370 1_655 S
C686 H676 0.930 . S
C686 C684 1.419 . S
C686 C687 1.362 . S
C687 H677 0.950 . S
C687 C680 1.409 1_455 S
C687 C686 1.362 . S
H688 C694 0.930 . S
H689 C697 0.930 . S
H690 C698 0.930 . S
H691 C699 0.930 . S
H692 C702 0.930 . S
H693 C703 0.928 1_545 S
C694 H688 0.930 . S
C694 C695 1.355 . S
C694 C696 1.415 . S
C695 C694 1.355 . S
C695 C697 1.419 . S
C696 C694 1.415 . S
C696 C701 1.425 . S
C696 C703 1.405 1_545 S
C697 H689 0.930 . S
C697 C695 1.419 . S
C697 C698 1.362 . S
C698 H690 0.930 . S
C698 C697 1.362 . S
C698 C701 1.409 . S
C699 H691 0.930 . S
C699 C700 1.355 . S
C699 C701 1.415 1_565 S
C700 C699 1.355 . S
C700 C702 1.419 . S
C701 C696 1.425 . S
C701 C698 1.409 . S
C701 C699 1.415 1_545 S
C702 H692 0.930 . S
C702 C700 1.419 . S
C702 C703 1.369 . S
C703 H693 0.928 1_565 S
C703 C696 1.405 1_565 S
C703 C702 1.369 . S
H704 C710 0.930 . S
H705 C713 0.930 . S
H706 C714 0.930 . S
H707 C715 0.930 . S
H708 C718 0.930 . S
H709 C719 0.930 . S
C710 H704 0.930 . S
C710 C711 1.355 . S
C710 C712 1.415 . S
C711 C710 1.355 . S
C711 C713 1.419 . S
C712 C710 1.415 . S
C712 C717 1.442 . S
C712 C719 1.409 1_455 S
C713 H705 0.930 . S
C713 C711 1.419 . S
C713 C714 1.362 . S
C714 H706 0.930 . S
C714 C713 1.362 . S
C714 C717 1.440 . S
C715 H707 0.930 . S
C715 C716 1.355 . S
C715 C717 1.369 1_655 S
C716 C715 1.355 . S
C716 C718 1.419 . S
C717 C712 1.442 . S
C717 C714 1.440 . S
C717 C715 1.369 1_455 S
C718 H708 0.930 . S
C718 C716 1.419 . S
C718 C719 1.362 . S
C719 H709 0.930 . S
C719 C712 1.409 1_655 S
C719 C718 1.362 . S
H720 C726 0.930 . S
H721 C729 0.930 . S
H722 C730 0.930 . S
H723 C731 0.930 . S
H724 C734 0.930 . S
H725 C735 0.930 . S
C726 H720 0.930 . S
C726 C727 1.355 . S
C726 C728 1.415 . S
C727 C726 1.355 . S
C727 C729 1.419 . S
C728 C726 1.415 . S
C728 C733 1.425 . S
C728 C735 1.409 1_565 S
C729 H721 0.930 . S
C729 C727 1.419 . S
C729 C730 1.362 . S
C730 H722 0.930 . S
C730 C729 1.362 . S
C730 C733 1.409 . S
C731 H723 0.930 . S
C731 C732 1.355 . S
C731 C733 1.415 1_545 S
C732 C731 1.355 . S
C732 C734 1.419 . S
C733 C728 1.425 . S
C733 C730 1.409 . S
C733 C731 1.415 1_565 S
C734 H724 0.930 . S
C734 C732 1.419 . S
C734 C735 1.362 . S
C735 H725 0.930 . S
C735 C728 1.409 1_545 S
C735 C734 1.362 . S
H736 C742 0.930 . S
H737 C745 0.930 . S
H738 C746 0.930 . S
H739 C747 0.930 . S
H740 C750 0.930 . S
H741 C751 0.930 . S
C742 H736 0.930 . S
C742 C743 1.355 . S
C742 C744 1.415 1_455 S
C743 C742 1.355 . S
C743 C745 1.419 . S
C744 C742 1.415 1_655 S
C744 C749 1.425 . S
C744 C751 1.409 . S
C745 H737 0.930 . S
C745 C743 1.419 . S
C745 C746 1.362 . S
C746 H738 0.930 . S
C746 C745 1.362 . S
C746 C749 1.409 1_455 S
C747 H739 0.930 . S
C747 C748 1.355 . S
C747 C749 1.415 . S
C748 C747 1.355 . S
C748 C750 1.419 . S
C749 C744 1.425 . S
C749 C746 1.409 1_655 S
C749 C747 1.415 . S
C750 H740 0.930 . S
C750 C748 1.419 . S
C750 C751 1.362 . S
C751 H741 0.930 . S
C751 C744 1.409 . S
C751 C750 1.362 . S
H752 C758 0.930 . S
H753 C761 0.930 . S
H754 C762 0.930 1_545 S
H755 C763 0.930 . S
H756 C766 0.930 . S
H757 C767 0.930 . S
C758 H752 0.930 . S
C758 C759 1.355 . S
C758 C760 1.415 1_565 S
C759 C758 1.355 . S
C759 C761 1.419 . S
C760 C758 1.415 1_545 S
C760 C765 1.425 . S
C760 C767 1.409 . S
C761 H753 0.930 . S
C761 C759 1.419 . S
C761 C762 1.362 . S
C762 H754 0.930 1_565 S
C762 C761 1.362 . S
C762 C765 1.409 1_565 S
C763 H755 0.930 . S
C763 C764 1.355 . S
C763 C765 1.415 . S
C764 C763 1.355 . S
C764 C766 1.419 . S
C765 C760 1.425 . S
C765 C762 1.409 1_545 S
C765 C763 1.415 . S
C766 H756 0.930 . S
C766 C764 1.419 . S
C766 C767 1.362 . S
C767 H757 0.930 . S
C767 C760 1.409 . S
C767 C766 1.362 . S
H768 C774 0.930 . S
H769 C777 0.930 . S
H770 C778 0.930 . S
H771 C779 0.930 . S
H772 C782 0.930 . S
H773 C783 0.930 . S
C774 H768 0.930 . S
C774 C775 1.355 . S
C774 C776 1.415 . S
C775 C774 1.355 . S
C775 C777 1.419 . S
C776 C774 1.415 . S
C776 C781 1.425 . S
C776 C783 1.409 1_455 S
C777 H769 0.930 . S
C777 C775 1.419 . S
C777 C778 1.362 . S
C778 H770 0.930 . S
C778 C777 1.362 . S
C778 C781 1.409 . S
C779 H771 0.930 . S
C779 C780 1.355 . S
C779 C781 1.415 1_655 S
C780 C779 1.355 . S
C780 C782 1.419 . S
C781 C776 1.425 . S
C781 C778 1.409 . S
C781 C779 1.415 1_455 S
C782 H772 0.930 . S
C782 C780 1.419 . S
C782 C783 1.362 . S
C783 H773 0.930 . S
C783 C776 1.409 1_655 S
C783 C782 1.362 . S
H784 C790 0.930 . S
H785 C793 0.930 . S
H786 C794 0.930 1_565 S
H787 C795 0.930 . S
H788 C798 0.930 . S
H789 C799 0.930 . S
C790 H784 0.930 . S
C790 C791 1.355 . S
C790 C792 1.415 1_545 S
C791 C790 1.355 . S
C791 C793 1.419 . S
C792 C790 1.415 1_565 S
C792 C797 1.425 . S
C792 C799 1.409 . S
C793 H785 0.930 . S
C793 C791 1.419 . S
C793 C794 1.362 . S
C794 H786 0.930 1_545 S
C794 C793 1.362 . S
C794 C797 1.409 1_545 S
C795 H787 0.930 . S
C795 C796 1.355 . S
C795 C797 1.415 . S
C796 C795 1.355 . S
C796 C798 1.419 . S
C797 C792 1.425 . S
C797 C794 1.409 1_565 S
C797 C795 1.415 . S
C798 H788 0.930 . S
C798 C796 1.419 . S
C798 C799 1.362 . S
C799 H789 0.930 . S
C799 C792 1.409 . S
C799 C798 1.362 . S
H800 C806 0.930 . S
H801 C809 0.930 . S
H802 C810 0.930 . S
H803 C811 0.930 . S
H804 C814 0.930 . S
H805 C815 0.930 . S
C806 H800 0.930 . S
C806 C807 1.355 . S
C806 C808 1.415 . S
C807 C806 1.355 . S
C807 C809 1.419 . S
C808 C806 1.415 . S
C808 C813 1.425 . S
C808 C815 1.409 . S
C809 H801 0.930 . S
C809 C807 1.419 . S
C809 C810 1.362 . S
C810 H802 0.930 . S
C810 C809 1.362 . S
C810 C813 1.409 . S
C811 H803 0.930 . S
C811 C812 1.355 . S
C811 C813 1.415 . S
C812 C811 1.355 . S
C812 C814 1.419 . S
C813 C808 1.425 . S
C813 C810 1.409 . S
C813 C811 1.415 . S
C814 H804 0.930 . S
C814 C812 1.419 . S
C814 C815 1.362 . S
C815 H805 0.930 . S
C815 C808 1.409 . S
C815 C814 1.362 . S
H816 C822 0.930 . S
H817 C825 0.930 . S
H818 C826 0.930 . S
H819 C827 0.930 . S
H820 C830 0.930 . S
H821 C831 0.930 . S
C822 H816 0.930 . S
C822 C823 1.355 . S
C822 C824 1.415 . S
C823 C822 1.355 . S
C823 C825 1.419 . S
C824 C822 1.415 . S
C824 C829 1.425 . S
C824 C831 1.409 . S
C825 H817 0.930 . S
C825 C823 1.419 . S
C825 C826 1.362 . S
C826 H818 0.930 . S
C826 C825 1.362 . S
C826 C829 1.409 . S
C827 H819 0.930 . S
C827 C828 1.355 . S
C827 C829 1.415 . S
C828 C827 1.355 . S
C828 C830 1.419 . S
C829 C824 1.425 . S
C829 C826 1.409 . S
C829 C827 1.415 . S
C830 H820 0.930 . S
C830 C828 1.419 . S
C830 C831 1.362 . S
C831 H821 0.930 . S
C831 C824 1.409 . S
C831 C830 1.362 . S
H832 C838 0.930 . S
H833 C841 0.930 . S
H834 C842 0.930 . S
H835 C843 0.930 . S
H836 C846 0.930 . S
H837 C847 0.930 . S
C838 H832 0.930 . S
C838 C839 1.355 . S
C838 C840 1.415 . S
C839 C838 1.355 . S
C839 C841 1.419 . S
C840 C838 1.415 . S
C840 C845 1.425 . S
C840 C847 1.409 . S
C841 H833 0.930 . S
C841 C839 1.419 . S
C841 C842 1.362 . S
C842 H834 0.930 . S
C842 C841 1.362 . S
C842 C845 1.409 . S
C843 H835 0.930 . S
C843 C844 1.355 . S
C843 C845 1.415 . S
C844 C843 1.355 . S
C844 C846 1.419 . S
C845 C840 1.425 . S
C845 C842 1.409 . S
C845 C843 1.415 . S
C846 H836 0.930 . S
C846 C844 1.419 . S
C846 C847 1.362 . S
C847 H837 0.930 . S
C847 C840 1.409 . S
C847 C846 1.362 . S
H848 C854 0.930 . S
H849 C857 0.930 . S
H850 C858 0.930 . S
H851 C859 0.930 . S
H852 C862 0.930 . S
H853 C863 0.930 . S
C854 H848 0.930 . S
C854 C855 1.355 . S
C854 C856 1.415 . S
C855 C854 1.355 . S
C855 C857 1.419 . S
C856 C854 1.415 . S
C856 C861 1.425 . S
C856 C863 1.409 . S
C857 H849 0.930 . S
C857 C855 1.419 . S
C857 C858 1.362 . S
C858 H850 0.930 . S
C858 C857 1.362 . S
C858 C861 1.409 . S
C859 H851 0.930 . S
C859 C860 1.355 . S
C859 C861 1.415 . S
C860 C859 1.355 . S
C860 C862 1.419 . S
C861 C856 1.425 . S
C861 C858 1.409 . S
C861 C859 1.415 . S
C862 H852 0.930 . S
C862 C860 1.419 . S
C862 C863 1.362 . S
C863 H853 0.930 . S
C863 C856 1.409 . S
C863 C862 1.362 . S
H864 C870 0.930 . S
H865 C873 0.930 . S
H866 C874 0.930 . S
H867 C875 0.930 . S
H868 C878 0.930 . S
H869 C879 0.930 . S
C870 H864 0.930 . S
C870 C871 1.355 . S
C870 C872 1.415 . S
C871 C870 1.355 . S
C871 C873 1.419 . S
C872 C870 1.415 . S
C872 C877 1.425 . S
C872 C879 1.409 . S
C873 H865 0.930 . S
C873 C871 1.419 . S
C873 C874 1.362 . S
C874 H866 0.930 . S
C874 C873 1.362 . S
C874 C877 1.409 . S
C875 H867 0.930 . S
C875 C876 1.355 . S
C875 C877 1.415 . S
C876 C875 1.355 . S
C876 C878 1.419 . S
C877 C872 1.425 . S
C877 C874 1.409 . S
C877 C875 1.415 . S
C878 H868 0.930 . S
C878 C876 1.419 . S
C878 C879 1.362 . S
C879 H869 0.930 . S
C879 C872 1.409 . S
C879 C878 1.362 . S
H880 C886 0.930 . S
H881 C889 0.930 . S
H882 C890 0.930 . S
H883 C891 0.930 . S
H884 C894 0.930 . S
H885 C895 0.930 . S
C886 H880 0.930 . S
C886 C887 1.355 . S
C886 C888 1.415 . S
C887 C886 1.355 . S
C887 C889 1.419 . S
C888 C886 1.415 . S
C888 C893 1.425 . S
C888 C895 1.409 . S
C889 H881 0.930 . S
C889 C887 1.419 . S
C889 C890 1.362 . S
C890 H882 0.930 . S
C890 C889 1.362 . S
C890 C893 1.409 . S
C891 H883 0.930 . S
C891 C892 1.355 . S
C891 C893 1.415 . S
C892 C891 1.355 . S
C892 C894 1.419 . S
C893 C888 1.425 . S
C893 C890 1.409 . S
C893 C891 1.415 . S
C894 H884 0.930 . S
C894 C892 1.419 . S
C894 C895 1.362 . S
C895 H885 0.930 . S
C895 C888 1.409 . S
C895 C894 1.362 . S
H896 C902 0.930 . S
H897 C905 0.930 . S
H898 C906 0.930 . S
H899 C907 0.930 . S
H900 C910 0.930 . S
H901 C911 0.930 . S
C902 H896 0.930 . S
C902 C903 1.355 . S
C902 C904 1.415 . S
C903 C902 1.355 . S
C903 C905 1.419 . S
C904 C902 1.415 . S
C904 C909 1.425 . S
C904 C911 1.409 . S
C905 H897 0.930 . S
C905 C903 1.419 . S
C905 C906 1.362 . S
C906 H898 0.930 . S
C906 C905 1.362 . S
C906 C909 1.409 . S
C907 H899 0.930 . S
C907 C908 1.355 . S
C907 C909 1.415 . S
C908 C907 1.355 . S
C908 C910 1.419 . S
C909 C904 1.425 . S
C909 C906 1.409 . S
C909 C907 1.415 . S
C910 H900 0.930 . S
C910 C908 1.419 . S
C910 C911 1.362 . S
C911 H901 0.930 . S
C911 C904 1.409 . S
C911 C910 1.362 . S
H912 C918 0.930 . S
H913 C921 0.930 . S
H914 C922 0.930 . S
H915 C923 0.930 . S
H916 C926 0.930 . S
H917 C927 0.930 . S
C918 H912 0.930 . S
C918 C919 1.355 . S
C918 C920 1.415 . S
C919 C918 1.355 . S
C919 C921 1.419 . S
C920 C918 1.415 . S
C920 C925 1.425 . S
C920 C927 1.409 . S
C921 H913 0.930 . S
C921 C919 1.419 . S
C921 C922 1.362 . S
C922 H914 0.930 . S
C922 C921 1.362 . S
C922 C925 1.409 . S
C923 H915 0.930 . S
C923 C924 1.355 . S
C923 C925 1.415 . S
C924 C923 1.355 . S
C924 C926 1.419 . S
C925 C920 1.425 . S
C925 C922 1.409 . S
C925 C923 1.415 . S
C926 H916 0.930 . S
C926 C924 1.419 . S
C926 C927 1.362 . S
C927 H917 0.930 . S
C927 C920 1.409 . S
C927 C926 1.362 . S
H928 C934 0.930 . S
H929 C937 0.930 . S
H930 C938 0.930 . S
H931 C939 0.930 . S
H932 C942 0.930 . S
H933 C943 0.930 . S
C934 H928 0.930 . S
C934 C935 1.355 . S
C934 C936 1.415 . S
C935 C934 1.355 . S
C935 C937 1.419 . S
C936 C934 1.415 . S
C936 C941 1.425 . S
C936 C943 1.409 . S
C937 H929 0.930 . S
C937 C935 1.419 . S
C937 C938 1.362 . S
C938 H930 0.930 . S
C938 C937 1.362 . S
C938 C941 1.409 . S
C939 H931 0.930 . S
C939 C940 1.355 . S
C939 C941 1.415 . S
C940 C939 1.355 . S
C940 C942 1.419 . S
C941 C936 1.425 . S
C941 C938 1.409 . S
C941 C939 1.415 . S
C942 H932 0.930 . S
C942 C940 1.419 . S
C942 C943 1.362 . S
C943 H933 0.930 . S
C943 C936 1.409 . S
C943 C942 1.362 . S
H944 C950 0.930 . S
H945 C953 0.930 . S
H946 C954 0.930 . S
H947 C955 0.930 . S
H948 C958 0.930 . S
H949 C959 0.930 . S
C950 H944 0.930 . S
C950 C951 1.355 . S
C950 C952 1.415 . S
C951 C950 1.355 . S
C951 C953 1.419 . S
C952 C950 1.415 . S
C952 C957 1.425 . S
C952 C959 1.409 . S
C953 H945 0.930 . S
C953 C951 1.419 . S
C953 C954 1.362 . S
C954 H946 0.930 . S
C954 C953 1.362 . S
C954 C957 1.409 . S
C955 H947 0.930 . S
C955 C956 1.355 . S
C955 C957 1.415 . S
C956 C955 1.355 . S
C956 C958 1.419 . S
C957 C952 1.425 . S
C957 C954 1.409 . S
C957 C955 1.415 . S
C958 H948 0.930 . S
C958 C956 1.419 . S
C958 C959 1.362 . S
C959 H949 0.930 . S
C959 C952 1.409 . S
C959 C958 1.362 . S
H960 C966 0.930 . S
H961 C969 0.930 . S
H962 C970 0.930 . S
H963 C971 0.930 . S
H964 C974 0.930 . S
H965 C975 0.930 . S
C966 H960 0.930 . S
C966 C967 1.355 . S
C966 C968 1.415 . S
C967 C966 1.355 . S
C967 C969 1.419 . S
C968 C966 1.415 . S
C968 C973 1.425 . S
C968 C975 1.409 . S
C969 H961 0.930 . S
C969 C967 1.419 . S
C969 C970 1.362 . S
C970 H962 0.930 . S
C970 C969 1.362 . S
C970 C973 1.409 . S
C971 H963 0.930 . S
C971 C972 1.355 . S
C971 C973 1.415 . S
C972 C971 1.355 . S
C972 C974 1.419 . S
C973 C968 1.425 . S
C973 C970 1.409 . S
C973 C971 1.415 . S
C974 H964 0.930 . S
C974 C972 1.419 . S
C974 C975 1.362 . S
C975 H965 0.930 . S
C975 C968 1.409 . S
C975 C974 1.362 . S
H976 C982 0.930 . S
H977 C985 0.930 . S
H978 C986 0.930 . S
H979 C987 0.930 . S
H980 C990 0.930 . S
H981 C991 0.930 . S
C982 H976 0.930 . S
C982 C983 1.355 . S
C982 C984 1.415 . S
C983 C982 1.355 . S
C983 C985 1.419 . S
C984 C982 1.415 . S
C984 C989 1.425 . S
C984 C991 1.409 . S
C985 H977 0.930 . S
C985 C983 1.419 . S
C985 C986 1.362 . S
C986 H978 0.930 . S
C986 C985 1.362 . S
C986 C989 1.409 . S
C987 H979 0.930 . S
C987 C988 1.355 . S
C987 C989 1.415 . S
C988 C987 1.355 . S
C988 C990 1.419 . S
C989 C984 1.425 . S
C989 C986 1.409 . S
C989 C987 1.415 . S
C990 H980 0.930 . S
C990 C988 1.419 . S
C990 C991 1.362 . S
C991 H981 0.930 . S
C991 C984 1.409 . S
C991 C990 1.362 . S
H992 C998 0.930 . S
H993 C1001 0.930 . S
H994 C1002 0.930 . S
H995 C1003 0.930 . S
H996 C1006 0.930 . S
H997 C1007 0.930 . S
C998 H992 0.930 . S
C998 C999 1.355 . S
C998 C1000 1.415 . S
C999 C998 1.355 . S
C999 C1001 1.419 . S
C1000 C998 1.415 . S
C1000 C1005 1.425 . S
C1000 C1007 1.409 . S
C1001 H993 0.930 . S
C1001 C999 1.419 . S
C1001 C1002 1.362 . S
C1002 H994 0.930 . S
C1002 C1001 1.362 . S
C1002 C1005 1.409 . S
C1003 H995 0.930 . S
C1003 C1004 1.355 . S
C1003 C1005 1.415 . S
C1004 C1003 1.355 . S
C1004 C1006 1.419 . S
C1005 C1000 1.425 . S
C1005 C1002 1.409 . S
C1005 C1003 1.415 . S
C1006 H996 0.930 . S
C1006 C1004 1.419 . S
C1006 C1007 1.362 . S
C1007 H997 0.930 . S
C1007 C1000 1.409 . S
C1007 C1006 1.362 . S
H1008 C1014 0.930 . S
H1009 C1017 0.930 . S
H1010 C1018 0.930 . S
H1011 C1019 0.930 . S
H1012 C1022 0.930 . S
H1013 C1023 0.930 . S
C1014 H1008 0.930 . S
C1014 C1015 1.355 . S
C1014 C1016 1.415 . S
C1015 C1014 1.355 . S
C1015 C1017 1.419 . S
C1016 C1014 1.415 . S
C1016 C1021 1.425 . S
C1016 C1023 1.409 . S
C1017 H1009 0.930 . S
C1017 C1015 1.419 . S
C1017 C1018 1.362 . S
C1018 H1010 0.930 . S
C1018 C1017 1.362 . S
C1018 C1021 1.409 . S
C1019 H1011 0.930 . S
C1019 C1020 1.355 . S
C1019 C1021 1.415 . S
C1020 C1019 1.355 . S
C1020 C1022 1.419 . S
C1021 C1016 1.425 . S
C1021 C1018 1.409 . S
C1021 C1019 1.415 . S
C1022 H1012 0.930 . S
C1022 C1020 1.419 . S
C1022 C1023 1.362 . S
C1023 H1013 0.930 . S
C1023 C1016 1.409 . S
C1023 C1022 1.362 . S
H1024 C1030 0.930 . S
H1025 C1033 0.930 . S
H1026 C1034 0.930 . S
H1027 C1035 0.930 . S
H1028 C1038 0.930 . S
H1029 C1039 0.930 . S
C1030 H1024 0.930 . S
C1030 C1031 1.355 . S
C1030 C1032 1.415 . S
C1031 C1030 1.355 . S
C1031 C1033 1.419 . S
C1032 C1030 1.415 . S
C1032 C1037 1.425 . S
C1032 C1039 1.409 . S
C1033 H1025 0.930 . S
C1033 C1031 1.419 . S
C1033 C1034 1.362 . S
C1034 H1026 0.930 . S
C1034 C1033 1.362 . S
C1034 C1037 1.409 . S
C1035 H1027 0.930 . S
C1035 C1036 1.355 . S
C1035 C1037 1.415 . S
C1036 C1035 1.355 . S
C1036 C1038 1.419 . S
C1037 C1032 1.425 . S
C1037 C1034 1.409 . S
C1037 C1035 1.415 . S
C1038 H1028 0.930 . S
C1038 C1036 1.419 . S
C1038 C1039 1.362 . S
C1039 H1029 0.930 . S
C1039 C1032 1.409 . S
C1039 C1038 1.362 . S
H1040 C1046 0.930 . S
H1041 C1049 0.930 . S
H1042 C1050 0.930 . S
H1043 C1051 0.930 . S
H1044 C1054 0.930 . S
H1045 C1055 0.930 . S
C1046 H1040 0.930 . S
C1046 C1047 1.355 . S
C1046 C1048 1.415 . S
C1047 C1046 1.355 . S
C1047 C1049 1.419 . S
C1048 C1046 1.415 . S
C1048 C1053 1.425 . S
C1048 C1055 1.409 . S
C1049 H1041 0.930 . S
C1049 C1047 1.419 . S
C1049 C1050 1.362 . S
C1050 H1042 0.930 . S
C1050 C1049 1.362 . S
C1050 C1053 1.409 . S
C1051 H1043 0.930 . S
C1051 C1052 1.355 . S
C1051 C1053 1.415 . S
C1052 C1051 1.355 . S
C1052 C1054 1.419 . S
C1053 C1048 1.425 . S
C1053 C1050 1.409 . S
C1053 C1051 1.415 . S
C1054 H1044 0.930 . S
C1054 C1052 1.419 . S
C1054 C1055 1.362 . S
C1055 H1045 0.930 . S
C1055 C1048 1.409 . S
C1055 C1054 1.362 . S
H1056 C1062 0.930 . S
H1057 C1065 0.930 . S
H1058 C1066 0.930 . S
H1059 C1067 0.930 . S
H1060 C1070 0.930 . S
H1061 C1071 0.930 . S
C1062 H1056 0.930 . S
C1062 C1063 1.355 . S
C1062 C1064 1.415 . S
C1063 C1062 1.355 . S
C1063 C1065 1.419 . S
C1064 C1062 1.415 . S
C1064 C1069 1.425 1_554 S
C1064 C1071 1.409 1_554 S
C1065 H1057 0.930 . S
C1065 C1063 1.419 . S
C1065 C1066 1.362 . S
C1066 H1058 0.930 . S
C1066 C1065 1.362 . S
C1066 C1069 1.409 1_554 S
C1067 H1059 0.930 . S
C1067 C1068 1.355 . S
C1067 C1069 1.415 . S
C1068 C1067 1.355 . S
C1068 C1070 1.419 . S
C1069 C1064 1.425 1_556 S
C1069 C1066 1.409 1_556 S
C1069 C1067 1.415 . S
C1070 H1060 0.930 . S
C1070 C1068 1.419 . S
C1070 C1071 1.362 . S
C1071 H1061 0.930 . S
C1071 C1064 1.409 1_556 S
C1071 C1070 1.362 . S
H1072 C1078 0.930 . S
H1073 C1081 0.930 . S
H1074 C1082 0.930 1_554 S
H1075 C1083 0.930 . S
H1076 C1086 0.930 . S
H1077 C1087 0.930 . S
C1078 H1072 0.930 . S
C1078 C1079 1.355 . S
C1078 C1080 1.415 1_556 S
C1079 C1078 1.355 . S
C1079 C1081 1.419 . S
C1080 C1078 1.415 1_554 S
C1080 C1085 1.425 . S
C1080 C1087 1.409 . S
C1081 H1073 0.930 . S
C1081 C1079 1.419 . S
C1081 C1082 1.362 . S
C1082 H1074 0.930 1_556 S
C1082 C1081 1.362 . S
C1082 C1085 1.409 1_556 S
C1083 H1075 0.930 . S
C1083 C1084 1.355 . S
C1083 C1085 1.415 . S
C1084 C1083 1.355 . S
C1084 C1086 1.419 . S
C1085 C1080 1.425 . S
C1085 C1082 1.409 1_554 S
C1085 C1083 1.415 . S
C1086 H1076 0.930 . S
C1086 C1084 1.419 . S
C1086 C1087 1.362 . S
C1087 H1077 0.930 . S
C1087 C1080 1.409 . S
C1087 C1086 1.362 . S
H1088 C1094 0.930 . S
H1089 C1097 0.930 . S
H1090 C1098 0.930 . S
H1091 C1099 0.930 . S
H1092 C1102 0.930 . S
H1093 C1103 0.930 . S
C1094 H1088 0.930 . S
C1094 C1095 1.355 . S
C1094 C1096 1.415 . S
C1095 C1094 1.355 . S
C1095 C1097 1.419 . S
C1096 C1094 1.415 . S
C1096 C1101 1.425 1_554 S
C1096 C1103 1.409 1_554 S
C1097 H1089 0.930 . S
C1097 C1095 1.419 . S
C1097 C1098 1.362 . S
C1098 H1090 0.930 . S
C1098 C1097 1.362 . S
C1098 C1101 1.409 1_554 S
C1099 H1091 0.930 . S
C1099 C1100 1.355 . S
C1099 C1101 1.415 . S
C1100 C1099 1.355 . S
C1100 C1102 1.419 . S
C1101 C1096 1.425 1_556 S
C1101 C1098 1.409 1_556 S
C1101 C1099 1.415 . S
C1102 H1092 0.930 . S
C1102 C1100 1.419 . S
C1102 C1103 1.362 . S
C1103 H1093 0.930 . S
C1103 C1096 1.409 1_556 S
C1103 C1102 1.362 . S
H1104 C1110 0.930 . S
H1105 C1113 0.930 . S
H1106 C1114 0.930 . S
H1107 C1115 0.930 . S
H1108 C1118 0.930 . S
H1109 C1119 0.918 1_554 S
C1110 H1104 0.930 . S
C1110 C1111 1.355 . S
C1110 C1112 1.415 . S
C1111 C1110 1.355 . S
C1111 C1113 1.419 . S
C1112 C1110 1.415 . S
C1112 C1117 1.425 . S
C1112 C1119 1.389 1_554 S
C1113 H1105 0.930 . S
C1113 C1111 1.419 . S
C1113 C1114 1.362 . S
C1114 H1106 0.930 . S
C1114 C1113 1.362 . S
C1114 C1117 1.409 . S
C1115 H1107 0.930 . S
C1115 C1116 1.355 . S
C1115 C1117 1.415 1_556 S
C1116 C1115 1.355 . S
C1116 C1118 1.419 . S
C1117 C1112 1.425 . S
C1117 C1114 1.409 . S
C1117 C1115 1.415 1_554 S
C1118 H1108 0.930 . S
C1118 C1116 1.419 . S
C1118 C1119 1.395 . S
C1119 H1109 0.918 1_556 S
C1119 C1112 1.389 1_556 S
C1119 C1118 1.395 . S
H1120 C1126 0.930 . S
H1121 C1129 0.930 . S
H1122 C1130 0.930 . S
H1123 C1131 0.930 . S
H1124 C1134 0.930 . S
H1125 C1135 0.930 . S
C1126 H1120 0.930 . S
C1126 C1127 1.355 . S
C1126 C1128 1.415 . S
C1127 C1126 1.355 . S
C1127 C1129 1.419 . S
C1128 C1126 1.415 . S
C1128 C1133 1.425 1_554 S
C1128 C1135 1.409 1_554 S
C1129 H1121 0.930 . S
C1129 C1127 1.419 . S
C1129 C1130 1.362 . S
C1130 H1122 0.930 . S
C1130 C1129 1.362 . S
C1130 C1133 1.409 1_554 S
C1131 H1123 0.930 . S
C1131 C1132 1.355 . S
C1131 C1133 1.415 . S
C1132 C1131 1.355 . S
C1132 C1134 1.419 . S
C1133 C1128 1.425 1_556 S
C1133 C1130 1.409 1_556 S
C1133 C1131 1.415 . S
C1134 H1124 0.930 . S
C1134 C1132 1.419 . S
C1134 C1135 1.362 . S
C1135 H1125 0.930 . S
C1135 C1128 1.409 1_556 S
C1135 C1134 1.362 . S
H1136 C1142 0.930 . S
H1137 C1145 0.930 . S
H1138 C1146 0.931 1_556 S
H1139 C1147 0.930 . S
H1140 C1150 0.930 . S
H1141 C1151 0.930 . S
C1142 H1136 0.930 . S
C1142 C1143 1.355 . S
C1142 C1144 1.415 1_554 S
C1143 C1142 1.355 . S
C1143 C1145 1.419 . S
C1144 C1142 1.415 1_556 S
C1144 C1149 1.425 . S
C1144 C1151 1.409 . S
C1145 H1137 0.930 . S
C1145 C1143 1.419 . S
C1145 C1146 1.362 . S
C1146 H1138 0.931 1_554 S
C1146 C1145 1.362 . S
C1146 C1149 1.409 1_554 S
C1147 H1139 0.930 . S
C1147 C1148 1.355 . S
C1147 C1149 1.415 . S
C1148 C1147 1.355 . S
C1148 C1150 1.419 . S
C1149 C1144 1.425 . S
C1149 C1146 1.409 1_556 S
C1149 C1147 1.415 . S
C1150 H1140 0.930 . S
C1150 C1148 1.419 . S
C1150 C1151 1.362 . S
C1151 H1141 0.930 . S
C1151 C1144 1.409 . S
C1151 C1150 1.362 . S
H1152 C1158 0.930 . S
H1153 C1161 0.930 . S
H1154 C1162 0.930 . S
H1155 C1163 0.930 . S
H1156 C1166 0.930 . S
H1157 C1167 0.930 . S
C1158 H1152 0.930 . S
C1158 C1159 1.355 . S
C1158 C1160 1.415 . S
C1159 C1158 1.355 . S
C1159 C1161 1.419 . S
C1160 C1158 1.415 . S
C1160 C1165 1.425 1_556 S
C1160 C1167 1.409 1_556 S
C1161 H1153 0.930 . S
C1161 C1159 1.419 . S
C1161 C1162 1.362 . S
C1162 H1154 0.930 . S
C1162 C1161 1.362 . S
C1162 C1165 1.409 1_556 S
C1163 H1155 0.930 . S
C1163 C1164 1.355 . S
C1163 C1165 1.415 . S
C1164 C1163 1.355 . S
C1164 C1166 1.419 . S
C1165 C1160 1.425 1_554 S
C1165 C1162 1.409 1_554 S
C1165 C1163 1.415 . S
C1166 H1156 0.930 . S
C1166 C1164 1.419 . S
C1166 C1167 1.362 . S
C1167 H1157 0.930 . S
C1167 C1160 1.409 1_554 S
C1167 C1166 1.362 . S
H1168 C1174 0.930 . S
H1169 C1177 0.930 . S
H1170 C1178 0.930 . S
H1171 C1179 0.930 . S
H1172 C1182 0.930 . S
H1173 C1183 0.930 1_556 S
C1174 H1168 0.930 . S
C1174 C1175 1.355 . S
C1174 C1176 1.415 . S
C1175 C1174 1.355 . S
C1175 C1177 1.419 . S
C1176 C1174 1.415 . S
C1176 C1181 1.425 . S
C1176 C1183 1.409 1_556 S
C1177 H1169 0.930 . S
C1177 C1175 1.419 . S
C1177 C1178 1.362 . S
C1178 H1170 0.930 . S
C1178 C1177 1.362 . S
C1178 C1181 1.409 . S
C1179 H1171 0.930 . S
C1179 C1180 1.355 . S
C1179 C1181 1.415 1_554 S
C1180 C1179 1.355 . S
C1180 C1182 1.419 . S
C1181 C1176 1.425 . S
C1181 C1178 1.409 . S
C1181 C1179 1.415 1_556 S
C1182 H1172 0.930 . S
C1182 C1180 1.419 . S
C1182 C1183 1.362 . S
C1183 H1173 0.930 1_554 S
C1183 C1176 1.409 1_554 S
C1183 C1182 1.362 . S
H1184 C1190 0.930 . S
H1185 C1193 0.930 . S
H1186 C1194 0.930 . S
H1187 C1195 0.930 . S
H1188 C1198 0.930 . S
H1189 C1199 0.930 . S
C1190 H1184 0.930 . S
C1190 C1191 1.355 . S
C1190 C1192 1.415 . S
C1191 C1190 1.355 . S
C1191 C1193 1.419 . S
C1192 C1190 1.415 . S
C1192 C1197 1.425 . S
C1192 C1199 1.409 . S
C1193 H1185 0.930 . S
C1193 C1191 1.419 . S
C1193 C1194 1.362 . S
C1194 H1186 0.930 . S
C1194 C1193 1.362 . S
C1194 C1197 1.409 . S
C1195 H1187 0.930 . S
C1195 C1196 1.355 . S
C1195 C1197 1.415 . S
C1196 C1195 1.355 . S
C1196 C1198 1.419 . S
C1197 C1192 1.425 . S
C1197 C1194 1.409 . S
C1197 C1195 1.415 . S
C1198 H1188 0.930 . S
C1198 C1196 1.419 . S
C1198 C1199 1.362 . S
C1199 H1189 0.930 . S
C1199 C1192 1.409 . S
C1199 C1198 1.362 . S
H1200 C1206 0.930 . S
H1201 C1209 0.930 . S
H1202 C1210 0.930 . S
H1203 C1211 0.930 . S
H1204 C1214 0.930 . S
H1205 C1215 0.930 . S
C1206 H1200 0.930 . S
C1206 C1207 1.355 . S
C1206 C1208 1.415 . S
C1207 C1206 1.355 . S
C1207 C1209 1.419 . S
C1208 C1206 1.415 . S
C1208 C1213 1.425 . S
C1208 C1215 1.409 . S
C1209 H1201 0.930 . S
C1209 C1207 1.419 . S
C1209 C1210 1.362 . S
C1210 H1202 0.930 . S
C1210 C1209 1.362 . S
C1210 C1213 1.409 . S
C1211 H1203 0.930 . S
C1211 C1212 1.355 . S
C1211 C1213 1.415 . S
C1212 C1211 1.355 . S
C1212 C1214 1.419 . S
C1213 C1208 1.425 . S
C1213 C1210 1.409 . S
C1213 C1211 1.415 . S
C1214 H1204 0.930 . S
C1214 C1212 1.419 . S
C1214 C1215 1.362 . S
C1215 H1205 0.930 . S
C1215 C1208 1.409 . S
C1215 C1214 1.362 . S
H1216 C1222 0.930 . S
H1217 C1225 0.930 . S
H1218 C1226 0.930 . S
H1219 C1227 0.930 . S
H1220 C1230 0.930 . S
H1221 C1231 0.930 . S
C1222 H1216 0.930 . S
C1222 C1223 1.355 . S
C1222 C1224 1.415 . S
C1223 C1222 1.355 . S
C1223 C1225 1.419 . S
C1224 C1222 1.415 . S
C1224 C1229 1.425 . S
C1224 C1231 1.409 . S
C1225 H1217 0.930 . S
C1225 C1223 1.419 . S
C1225 C1226 1.362 . S
C1226 H1218 0.930 . S
C1226 C1225 1.362 . S
C1226 C1229 1.409 . S
C1227 H1219 0.930 . S
C1227 C1228 1.355 . S
C1227 C1229 1.415 . S
C1228 C1227 1.355 . S
C1228 C1230 1.419 . S
C1229 C1224 1.425 . S
C1229 C1226 1.409 . S
C1229 C1227 1.415 . S
C1230 H1220 0.930 . S
C1230 C1228 1.419 . S
C1230 C1231 1.362 . S
C1231 H1221 0.930 . S
C1231 C1224 1.409 . S
C1231 C1230 1.362 . S
H1232 C1238 0.930 . S
H1233 C1241 0.930 . S
H1234 C1242 0.930 . S
H1235 C1243 0.930 . S
H1236 C1246 0.930 . S
H1237 C1247 0.930 . S
C1238 H1232 0.930 . S
C1238 C1239 1.355 . S
C1238 C1240 1.415 . S
C1239 C1238 1.355 . S
C1239 C1241 1.419 . S
C1240 C1238 1.415 . S
C1240 C1245 1.425 . S
C1240 C1247 1.409 . S
C1241 H1233 0.930 . S
C1241 C1239 1.419 . S
C1241 C1242 1.362 . S
C1242 H1234 0.930 . S
C1242 C1241 1.362 . S
C1242 C1245 1.409 . S
C1243 H1235 0.930 . S
C1243 C1244 1.355 . S
C1243 C1245 1.415 . S
C1244 C1243 1.355 . S
C1244 C1246 1.419 . S
C1245 C1240 1.425 . S
C1245 C1242 1.409 . S
C1245 C1243 1.415 . S
C1246 H1236 0.930 . S
C1246 C1244 1.419 . S
C1246 C1247 1.362 . S
C1247 H1237 0.930 . S
C1247 C1240 1.409 . S
C1247 C1246 1.362 . S
H1248 C1254 0.930 . S
H1249 C1257 0.930 . S
H1250 C1258 0.930 . S
H1251 C1259 0.930 . S
H1252 C1262 0.930 . S
H1253 C1263 0.930 . S
C1254 H1248 0.930 . S
C1254 C1255 1.355 . S
C1254 C1256 1.415 . S
C1255 C1254 1.355 . S
C1255 C1257 1.419 . S
C1256 C1254 1.415 . S
C1256 C1261 1.425 . S
C1256 C1263 1.409 . S
C1257 H1249 0.930 . S
C1257 C1255 1.419 . S
C1257 C1258 1.362 . S
C1258 H1250 0.930 . S
C1258 C1257 1.362 . S
C1258 C1261 1.409 . S
C1259 H1251 0.930 . S
C1259 C1260 1.355 . S
C1259 C1261 1.415 . S
C1260 C1259 1.355 . S
C1260 C1262 1.419 . S
C1261 C1256 1.425 . S
C1261 C1258 1.409 . S
C1261 C1259 1.415 . S
C1262 H1252 0.930 . S
C1262 C1260 1.419 . S
C1262 C1263 1.362 . S
C1263 H1253 0.930 . S
C1263 C1256 1.409 . S
C1263 C1262 1.362 . S
H1264 C1270 0.930 . S
H1265 C1273 0.930 . S
H1266 C1274 0.930 . S
H1267 C1275 0.930 . S
H1268 C1278 0.930 . S
H1269 C1279 0.930 . S
C1270 H1264 0.930 . S
C1270 C1271 1.355 . S
C1270 C1272 1.415 . S
C1271 C1270 1.355 . S
C1271 C1273 1.419 . S
C1272 C1270 1.415 . S
C1272 C1277 1.425 . S
C1272 C1279 1.409 . S
C1273 H1265 0.930 . S
C1273 C1271 1.419 . S
C1273 C1274 1.362 . S
C1274 H1266 0.930 . S
C1274 C1273 1.362 . S
C1274 C1277 1.409 . S
C1275 H1267 0.930 . S
C1275 C1276 1.355 . S
C1275 C1277 1.415 . S
C1276 C1275 1.355 . S
C1276 C1278 1.419 . S
C1277 C1272 1.425 . S
C1277 C1274 1.409 . S
C1277 C1275 1.415 . S
C1278 H1268 0.930 . S
C1278 C1276 1.419 . S
C1278 C1279 1.362 . S
C1279 H1269 0.930 . S
C1279 C1272 1.409 . S
C1279 C1278 1.362 . S
H1280 C1286 0.930 . S
H1281 C1289 0.930 . S
H1282 C1290 0.930 . S
H1283 C1291 0.930 . S
H1284 C1294 0.930 . S
H1285 C1295 0.930 . S
C1286 H1280 0.930 . S
C1286 C1287 1.355 . S
C1286 C1288 1.415 . S
C1287 C1286 1.355 . S
C1287 C1289 1.419 . S
C1288 C1286 1.415 . S
C1288 C1293 1.425 . S
C1288 C1295 1.409 . S
C1289 H1281 0.930 . S
C1289 C1287 1.419 . S
C1289 C1290 1.362 . S
C1290 H1282 0.930 . S
C1290 C1289 1.362 . S
C1290 C1293 1.409 . S
C1291 H1283 0.930 . S
C1291 C1292 1.355 . S
C1291 C1293 1.415 . S
C1292 C1291 1.355 . S
C1292 C1294 1.419 . S
C1293 C1288 1.425 . S
C1293 C1290 1.409 . S
C1293 C1291 1.415 . S
C1294 H1284 0.930 . S
C1294 C1292 1.419 . S
C1294 C1295 1.362 . S
C1295 H1285 0.930 . S
C1295 C1288 1.409 . S
C1295 C1294 1.362 . S
H1296 C1302 0.930 . S
H1297 C1305 0.930 . S
H1298 C1306 0.930 . S
H1299 C1307 0.930 . S
H1300 C1310 0.930 . S
H1301 C1311 0.930 . S
C1302 H1296 0.930 . S
C1302 C1303 1.355 . S
C1302 C1304 1.415 . S
C1303 C1302 1.355 . S
C1303 C1305 1.419 . S
C1304 C1302 1.415 . S
C1304 C1309 1.425 . S
C1304 C1311 1.409 . S
C1305 H1297 0.930 . S
C1305 C1303 1.419 . S
C1305 C1306 1.362 . S
C1306 H1298 0.930 . S
C1306 C1305 1.362 . S
C1306 C1309 1.409 . S
C1307 H1299 0.930 . S
C1307 C1308 1.355 . S
C1307 C1309 1.415 . S
C1308 C1307 1.355 . S
C1308 C1310 1.419 . S
C1309 C1304 1.425 . S
C1309 C1306 1.409 . S
C1309 C1307 1.415 . S
C1310 H1300 0.930 . S
C1310 C1308 1.419 . S
C1310 C1311 1.362 . S
C1311 H1301 0.930 . S
C1311 C1304 1.409 . S
C1311 C1310 1.362 . S
H1312 C1318 0.930 . S
H1313 C1321 0.930 . S
H1314 C1322 0.930 . S
H1315 C1323 0.930 . S
H1316 C1326 0.930 . S
H1317 C1327 0.930 . S
C1318 H1312 0.930 . S
C1318 C1319 1.355 . S
C1318 C1320 1.415 . S
C1319 C1318 1.355 . S
C1319 C1321 1.419 . S
C1320 C1318 1.415 . S
C1320 C1325 1.425 . S
C1320 C1327 1.409 . S
C1321 H1313 0.930 . S
C1321 C1319 1.419 . S
C1321 C1322 1.362 . S
C1322 H1314 0.930 . S
C1322 C1321 1.362 . S
C1322 C1325 1.409 . S
C1323 H1315 0.930 . S
C1323 C1324 1.355 . S
C1323 C1325 1.415 . S
C1324 C1323 1.355 . S
C1324 C1326 1.419 . S
C1325 C1320 1.425 . S
C1325 C1322 1.409 . S
C1325 C1323 1.415 . S
C1326 H1316 0.930 . S
C1326 C1324 1.419 . S
C1326 C1327 1.362 . S
C1327 H1317 0.930 . S
C1327 C1320 1.409 . S
C1327 C1326 1.362 . S
H1328 C1334 0.930 . S
H1329 C1337 0.930 . S
H1330 C1338 0.930 . S
H1331 C1339 0.930 . S
H1332 C1342 0.930 . S
H1333 C1343 0.930 . S
C1334 H1328 0.930 . S
C1334 C1335 1.355 . S
C1334 C1336 1.415 . S
C1335 C1334 1.355 . S
C1335 C1337 1.419 . S
C1336 C1334 1.415 . S
C1336 C1341 1.425 . S
C1336 C1343 1.409 . S
C1337 H1329 0.930 . S
C1337 C1335 1.419 . S
C1337 C1338 1.362 . S
C1338 H1330 0.930 . S
C1338 C1337 1.362 . S
C1338 C1341 1.409 . S
C1339 H1331 0.930 . S
C1339 C1340 1.355 . S
C1339 C1341 1.415 . S
C1340 C1339 1.355 . S
C1340 C1342 1.419 . S
C1341 C1336 1.425 . S
C1341 C1338 1.409 . S
C1341 C1339 1.415 . S
C1342 H1332 0.930 . S
C1342 C1340 1.419 . S
C1342 C1343 1.362 . S
C1343 H1333 0.930 . S
C1343 C1336 1.409 . S
C1343 C1342 1.362 . S
H1344 C1350 0.930 . S
H1345 C1353 0.930 . S
H1346 C1354 0.930 . S
H1347 C1355 0.930 . S
H1348 C1358 0.930 . S
H1349 C1359 0.930 . S
C1350 H1344 0.930 . S
C1350 C1351 1.355 . S
C1350 C1352 1.415 . S
C1351 C1350 1.355 . S
C1351 C1353 1.419 . S
C1352 C1350 1.415 . S
C1352 C1357 1.425 . S
C1352 C1359 1.409 . S
C1353 H1345 0.930 . S
C1353 C1351 1.419 . S
C1353 C1354 1.362 . S
C1354 H1346 0.930 . S
C1354 C1353 1.362 . S
C1354 C1357 1.409 . S
C1355 H1347 0.930 . S
C1355 C1356 1.355 . S
C1355 C1357 1.415 . S
C1356 C1355 1.355 . S
C1356 C1358 1.419 . S
C1357 C1352 1.425 . S
C1357 C1354 1.409 . S
C1357 C1355 1.415 . S
C1358 H1348 0.930 . S
C1358 C1356 1.419 . S
C1358 C1359 1.362 . S
C1359 H1349 0.930 . S
C1359 C1352 1.409 . S
C1359 C1358 1.362 . S
H1360 C1366 0.930 . S
H1361 C1369 0.930 . S
H1362 C1370 0.930 . S
H1363 C1371 0.930 . S
H1364 C1374 0.930 . S
H1365 C1375 0.930 . S
C1366 H1360 0.930 . S
C1366 C1367 1.355 . S
C1366 C1368 1.415 . S
C1367 C1366 1.355 . S
C1367 C1369 1.419 . S
C1368 C1366 1.415 . S
C1368 C1373 1.425 . S
C1368 C1375 1.409 . S
C1369 H1361 0.930 . S
C1369 C1367 1.419 . S
C1369 C1370 1.362 . S
C1370 H1362 0.930 . S
C1370 C1369 1.362 . S
C1370 C1373 1.409 . S
C1371 H1363 0.930 . S
C1371 C1372 1.355 . S
C1371 C1373 1.415 . S
C1372 C1371 1.355 . S
C1372 C1374 1.419 . S
C1373 C1368 1.425 . S
C1373 C1370 1.409 . S
C1373 C1371 1.415 . S
C1374 H1364 0.930 . S
C1374 C1372 1.419 . S
C1374 C1375 1.362 . S
C1375 H1365 0.930 . S
C1375 C1368 1.409 . S
C1375 C1374 1.362 . S
H1376 C1382 0.930 . S
H1377 C1385 0.930 . S
H1378 C1386 0.930 . S
H1379 C1387 0.930 . S
H1380 C1390 0.930 . S
H1381 C1391 0.930 . S
C1382 H1376 0.930 . S
C1382 C1383 1.355 . S
C1382 C1384 1.415 . S
C1383 C1382 1.355 . S
C1383 C1385 1.419 . S
C1384 C1382 1.415 . S
C1384 C1389 1.425 . S
C1384 C1391 1.409 . S
C1385 H1377 0.930 . S
C1385 C1383 1.419 . S
C1385 C1386 1.362 . S
C1386 H1378 0.930 . S
C1386 C1385 1.362 . S
C1386 C1389 1.409 . S
C1387 H1379 0.930 . S
C1387 C1388 1.355 . S
C1387 C1389 1.415 . S
C1388 C1387 1.355 . S
C1388 C1390 1.419 . S
C1389 C1384 1.425 . S
C1389 C1386 1.409 . S
C1389 C1387 1.415 . S
C1390 H1380 0.930 . S
C1390 C1388 1.419 . S
C1390 C1391 1.362 . S
C1391 H1381 0.930 . S
C1391 C1384 1.409 . S
C1391 C1390 1.362 . S
H1392 C1398 0.930 . S
H1393 C1401 0.930 . S
H1394 C1402 0.930 . S
H1395 C1403 0.930 . S
H1396 C1406 0.930 . S
H1397 C1407 0.930 . S
C1398 H1392 0.930 . S
C1398 C1399 1.355 . S
C1398 C1400 1.415 . S
C1399 C1398 1.355 . S
C1399 C1401 1.419 . S
C1400 C1398 1.415 . S
C1400 C1405 1.425 . S
C1400 C1407 1.409 . S
C1401 H1393 0.930 . S
C1401 C1399 1.419 . S
C1401 C1402 1.362 . S
C1402 H1394 0.930 . S
C1402 C1401 1.362 . S
C1402 C1405 1.409 . S
C1403 H1395 0.930 . S
C1403 C1404 1.355 . S
C1403 C1405 1.415 . S
C1404 C1403 1.355 . S
C1404 C1406 1.419 . S
C1405 C1400 1.425 . S
C1405 C1402 1.409 . S
C1405 C1403 1.415 . S
C1406 H1396 0.930 . S
C1406 C1404 1.419 . S
C1406 C1407 1.362 . S
C1407 H1397 0.930 . S
C1407 C1400 1.409 . S
C1407 C1406 1.362 . S
H1408 C1414 0.930 . S
H1409 C1417 0.930 . S
H1410 C1418 0.930 . S
H1411 C1419 0.930 . S
H1412 C1422 0.930 . S
H1413 C1423 0.930 . S
C1414 H1408 0.930 . S
C1414 C1415 1.355 . S
C1414 C1416 1.415 . S
C1415 C1414 1.355 . S
C1415 C1417 1.419 . S
C1416 C1414 1.415 . S
C1416 C1421 1.425 . S
C1416 C1423 1.409 . S
C1417 H1409 0.930 . S
C1417 C1415 1.419 . S
C1417 C1418 1.362 . S
C1418 H1410 0.930 . S
C1418 C1417 1.362 . S
C1418 C1421 1.409 . S
C1419 H1411 0.930 . S
C1419 C1420 1.355 . S
C1419 C1421 1.415 . S
C1420 C1419 1.355 . S
C1420 C1422 1.419 . S
C1421 C1416 1.425 . S
C1421 C1418 1.409 . S
C1421 C1419 1.415 . S
C1422 H1412 0.930 . S
C1422 C1420 1.419 . S
C1422 C1423 1.362 . S
C1423 H1413 0.930 . S
C1423 C1416 1.409 . S
C1423 C1422 1.362 . S
H1424 C1430 0.930 . S
H1425 C1433 0.930 . S
H1426 C1434 0.930 . S
H1427 C1435 0.930 . S
H1428 C1438 0.930 . S
H1429 C1439 0.930 . S
C1430 H1424 0.930 . S
C1430 C1431 1.355 . S
C1430 C1432 1.415 . S
C1431 C1430 1.355 . S
C1431 C1433 1.419 . S
C1432 C1430 1.415 . S
C1432 C1437 1.425 . S
C1432 C1439 1.409 . S
C1433 H1425 0.930 . S
C1433 C1431 1.419 . S
C1433 C1434 1.362 . S
C1434 H1426 0.930 . S
C1434 C1433 1.362 . S
C1434 C1437 1.409 . S
C1435 H1427 0.930 . S
C1435 C1436 1.355 . S
C1435 C1437 1.415 . S
C1436 C1435 1.355 . S
C1436 C1438 1.419 . S
C1437 C1432 1.425 . S
C1437 C1434 1.409 . S
C1437 C1435 1.415 . S
C1438 H1428 0.930 . S
C1438 C1436 1.419 . S
C1438 C1439 1.362 . S
C1439 H1429 0.930 . S
C1439 C1432 1.409 . S
C1439 C1438 1.362 . S
C423 C200 1.342 . S
C428 C5 1.271 . S
C439 C21 1.326 . S
C444 C161 1.386 . S
C455 C31 1.272 . S
C460 C174 1.347 . S
C471 C187 1.385 . S
C476 C47 1.323 . S
C487 C57 1.279 . S
C492 C122 1.341 . S
C503 C73 1.344 . S
C508 C135 1.387 . S
C519 C148 1.301 . S
C524 C83 1.311 . S
C535 C109 1.312 . S
C540 C99 1.353 . S
C551 C213 1.315 . S
C556 C408 1.297 . S
C567 C229 1.374 . S
C572 C369 1.368 . S
C583 C239 1.328 . S
C588 C382 1.285 . S
C599 C395 1.340 . S
C604 C255 1.325 . S
C615 C265 1.266 . S
C620 C330 1.349 . S
C631 C281 1.389 . S
C636 C343 1.312 . S
C647 C356 1.345 . S
C652 C291 1.274 . S
C663 C307 1.390 . S
C668 C317 1.315 . S
C679 C156 1.155 . S
C684 C0 1.211 . S
C695 C23 1.176 . S
C700 C169 1.181 . S
C711 C182 1.162 . S
C716 C26 1.201 . S
C727 C49 1.150 . S
C732 C195 1.126 . S
C743 C52 1.173 . S
C748 C104 1.198 . S
C759 C117 1.135 . S
C764 C75 1.142 . S
C775 C130 1.193 . S
C780 C78 1.168 . S
C791 C143 1.181 . S
C796 C101 1.177 . S
C807 C208 1.212 . S
C812 C364 1.155 . S
C823 C377 1.128 . S
C828 C231 1.153 . S
C839 C234 1.158 . S
C844 C390 1.204 . S
C855 C257 1.159 . S
C860 C403 1.134 . S
C871 C312 1.208 . S
C876 C260 1.161 . S
C887 C283 1.178 . S
C892 C325 1.181 . S
C903 C286 1.153 . S
C908 C338 1.212 . S
C919 C309 1.166 . S
C924 C351 1.175 . S
C935 C8 1.398 . S
C940 C138 1.467 . S
C951 C151 1.386 . S
C956 C18 1.443 . S
C967 C34 1.445 . S
C972 C112 1.419 . S
C983 C125 1.435 . S
C988 C44 1.389 . S
C999 C190 1.401 . S
C1004 C60 1.464 . S
C1015 C203 1.386 . S
C1020 C70 1.443 . S
C1031 C164 1.448 . S
C1036 C86 1.420 . S
C1047 C96 1.448 . S
C1052 C177 1.422 . S
C1063 C346 1.452 . S
C1068 C216 1.416 . S
C1079 C226 1.412 . S
C1084 C359 1.450 . S
C1095 C320 1.456 . S
C1100 C242 1.408 . S
C1111 C333 1.414 . S
C1116 C252 1.451 . S
C1127 C268 1.433 . S
C1132 C398 1.431 . S
C1143 C278 1.395 . S
C1148 C411 1.446 . S
C1159 C372 1.457 . S
C1164 C294 1.407 . S
C1175 C385 1.387 . S
C1180 C304 1.444 . S
C1191 C299 1.195 . S
C1196 C10 1.151 . S
C1207 C270 1.197 . S
C1212 C13 1.184 . S
C1223 C273 1.189 . S
C1228 C36 1.192 . S
C1239 C296 1.173 . S
C1244 C39 1.175 . S
C1255 C221 1.180 . S
C1260 C62 1.165 . S
C1271 C65 1.200 . S
C1276 C244 1.172 . S
C1287 C88 1.166 . S
C1292 C247 1.179 . S
C1303 C91 1.168 . S
C1308 C218 1.200 . S
C1319 C114 1.376 . S
C1324 C413 1.353 . S
C1335 C374 1.336 . S
C1340 C127 1.346 . S
C1351 C140 1.336 . S
C1356 C387 1.346 . S
C1367 C153 1.363 . S
C1372 C400 1.379 . S
C1383 C335 1.338 . S
C1388 C166 1.367 . S
C1399 C348 1.379 . S
C1404 C179 1.372 . S
C1415 C192 1.344 . S
C1420 C361 1.319 . S
C1431 C205 1.376 . S
C1436 C322 1.371 . S
