# Generated by pormake.
# Topology wio, (6)-cn, num edge types: 1
# Building blocks:
#     Node 0, Type 0, BuildingBlock: CUKXOW_clean_sbu_0, # of connection points: 6
#     Node 1, Type 0, BuildingBlock: CUKXOW_clean_sbu_0, # of connection points: 6
#     Node 2, Type 0, BuildingBlock: CUKXOW_clean_sbu_0, # of connection points: 6
#     Node 3, Type 0, BuildingBlock: CUKXOW_clean_sbu_0, # of connection points: 6
#     Node 4, Type 0, BuildingBlock: CUKXOW_clean_sbu_0, # of connection points: 6
#     Node 5, Type 0, BuildingBlock: CUKXOW_clean_sbu_0, # of connection points: 6
#     Node 6, Type 0, BuildingBlock: CUKXOW_clean_sbu_0, # of connection points: 6
#     Node 7, Type 0, BuildingBlock: CUKXOW_clean_sbu_0, # of connection points: 6
#     Node 8, Type 0, BuildingBlock: CUKXOW_clean_sbu_0, # of connection points: 6
#     Node 9, Type 0, BuildingBlock: CUKXOW_clean_sbu_0, # of connection points: 6
#     Node 10, Type 0, BuildingBlock: CUKXOW_clean_sbu_0, # of connection points: 6
#     Node 11, Type 0, BuildingBlock: CUKXOW_clean_sbu_0, # of connection points: 6
#     Node 12, Type 0, BuildingBlock: CUKXOW_clean_sbu_0, # of connection points: 6
#     Node 13, Type 0, BuildingBlock: CUKXOW_clean_sbu_0, # of connection points: 6
#     Node 14, Type 0, BuildingBlock: CUKXOW_clean_sbu_0, # of connection points: 6
#     Node 15, Type 0, BuildingBlock: CUKXOW_clean_sbu_0, # of connection points: 6
#     Node 16, Type 0, BuildingBlock: CUKXOW_clean_sbu_0, # of connection points: 6
#     Node 17, Type 0, BuildingBlock: CUKXOW_clean_sbu_0, # of connection points: 6
#     Node 18, Type 0, BuildingBlock: CUKXOW_clean_sbu_0, # of connection points: 6
#     Node 19, Type 0, BuildingBlock: CUKXOW_clean_sbu_0, # of connection points: 6
#     Node 20, Type 0, BuildingBlock: CUKXOW_clean_sbu_0, # of connection points: 6
#     Node 21, Type 0, BuildingBlock: CUKXOW_clean_sbu_0, # of connection points: 6
#     Node 22, Type 0, BuildingBlock: CUKXOW_clean_sbu_0, # of connection points: 6
#     Node 23, Type 0, BuildingBlock: CUKXOW_clean_sbu_0, # of connection points: 6
#     Node 24, Type 0, BuildingBlock: CUKXOW_clean_sbu_0, # of connection points: 6
#     Node 25, Type 0, BuildingBlock: CUKXOW_clean_sbu_0, # of connection points: 6
#     Node 26, Type 0, BuildingBlock: CUKXOW_clean_sbu_0, # of connection points: 6
#     Node 27, Type 0, BuildingBlock: CUKXOW_clean_sbu_0, # of connection points: 6
#     Node 28, Type 0, BuildingBlock: CUKXOW_clean_sbu_0, # of connection points: 6
#     Node 29, Type 0, BuildingBlock: CUKXOW_clean_sbu_0, # of connection points: 6
#     Node 30, Type 0, BuildingBlock: CUKXOW_clean_sbu_0, # of connection points: 6
#     Node 31, Type 0, BuildingBlock: CUKXOW_clean_sbu_0, # of connection points: 6
#     Edge 32, Type (0, 0), BuildingBlock: KIFKEQ_clean_linker_1, # of connection points: 2
#     Edge 33, Type (0, 0), BuildingBlock: KIFKEQ_clean_linker_1, # of connection points: 2
#     Edge 34, Type (0, 0), BuildingBlock: KIFKEQ_clean_linker_1, # of connection points: 2
#     Edge 35, Type (0, 0), BuildingBlock: KIFKEQ_clean_linker_1, # of connection points: 2
#     Edge 36, Type (0, 0), BuildingBlock: KIFKEQ_clean_linker_1, # of connection points: 2
#     Edge 37, Type (0, 0), BuildingBlock: KIFKEQ_clean_linker_1, # of connection points: 2
#     Edge 38, Type (0, 0), BuildingBlock: KIFKEQ_clean_linker_1, # of connection points: 2
#     Edge 39, Type (0, 0), BuildingBlock: KIFKEQ_clean_linker_1, # of connection points: 2
#     Edge 40, Type (0, 0), BuildingBlock: KIFKEQ_clean_linker_1, # of connection points: 2
#     Edge 41, Type (0, 0), BuildingBlock: KIFKEQ_clean_linker_1, # of connection points: 2
#     Edge 42, Type (0, 0), BuildingBlock: KIFKEQ_clean_linker_1, # of connection points: 2
#     Edge 43, Type (0, 0), BuildingBlock: KIFKEQ_clean_linker_1, # of connection points: 2
#     Edge 44, Type (0, 0), BuildingBlock: KIFKEQ_clean_linker_1, # of connection points: 2
#     Edge 45, Type (0, 0), BuildingBlock: KIFKEQ_clean_linker_1, # of connection points: 2
#     Edge 46, Type (0, 0), BuildingBlock: KIFKEQ_clean_linker_1, # of connection points: 2
#     Edge 47, Type (0, 0), BuildingBlock: KIFKEQ_clean_linker_1, # of connection points: 2
#     Edge 48, Type (0, 0), BuildingBlock: KIFKEQ_clean_linker_1, # of connection points: 2
#     Edge 49, Type (0, 0), BuildingBlock: KIFKEQ_clean_linker_1, # of connection points: 2
#     Edge 50, Type (0, 0), BuildingBlock: KIFKEQ_clean_linker_1, # of connection points: 2
#     Edge 51, Type (0, 0), BuildingBlock: KIFKEQ_clean_linker_1, # of connection points: 2
#     Edge 52, Type (0, 0), BuildingBlock: KIFKEQ_clean_linker_1, # of connection points: 2
#     Edge 53, Type (0, 0), BuildingBlock: KIFKEQ_clean_linker_1, # of connection points: 2
#     Edge 54, Type (0, 0), BuildingBlock: KIFKEQ_clean_linker_1, # of connection points: 2
#     Edge 55, Type (0, 0), BuildingBlock: KIFKEQ_clean_linker_1, # of connection points: 2
#     Edge 56, Type (0, 0), BuildingBlock: KIFKEQ_clean_linker_1, # of connection points: 2
#     Edge 57, Type (0, 0), BuildingBlock: KIFKEQ_clean_linker_1, # of connection points: 2
#     Edge 58, Type (0, 0), BuildingBlock: KIFKEQ_clean_linker_1, # of connection points: 2
#     Edge 59, Type (0, 0), BuildingBlock: KIFKEQ_clean_linker_1, # of connection points: 2
#     Edge 60, Type (0, 0), BuildingBlock: KIFKEQ_clean_linker_1, # of connection points: 2
#     Edge 61, Type (0, 0), BuildingBlock: KIFKEQ_clean_linker_1, # of connection points: 2
#     Edge 62, Type (0, 0), BuildingBlock: KIFKEQ_clean_linker_1, # of connection points: 2
#     Edge 63, Type (0, 0), BuildingBlock: KIFKEQ_clean_linker_1, # of connection points: 2
#     Edge 64, Type (0, 0), BuildingBlock: KIFKEQ_clean_linker_1, # of connection points: 2
#     Edge 65, Type (0, 0), BuildingBlock: KIFKEQ_clean_linker_1, # of connection points: 2
#     Edge 66, Type (0, 0), BuildingBlock: KIFKEQ_clean_linker_1, # of connection points: 2
#     Edge 67, Type (0, 0), BuildingBlock: KIFKEQ_clean_linker_1, # of connection points: 2
#     Edge 68, Type (0, 0), BuildingBlock: KIFKEQ_clean_linker_1, # of connection points: 2
#     Edge 69, Type (0, 0), BuildingBlock: KIFKEQ_clean_linker_1, # of connection points: 2
#     Edge 70, Type (0, 0), BuildingBlock: KIFKEQ_clean_linker_1, # of connection points: 2
#     Edge 71, Type (0, 0), BuildingBlock: KIFKEQ_clean_linker_1, # of connection points: 2
#     Edge 72, Type (0, 0), BuildingBlock: KIFKEQ_clean_linker_1, # of connection points: 2
#     Edge 73, Type (0, 0), BuildingBlock: KIFKEQ_clean_linker_1, # of connection points: 2
#     Edge 74, Type (0, 0), BuildingBlock: KIFKEQ_clean_linker_1, # of connection points: 2
#     Edge 75, Type (0, 0), BuildingBlock: KIFKEQ_clean_linker_1, # of connection points: 2
#     Edge 76, Type (0, 0), BuildingBlock: KIFKEQ_clean_linker_1, # of connection points: 2
#     Edge 77, Type (0, 0), BuildingBlock: KIFKEQ_clean_linker_1, # of connection points: 2
#     Edge 78, Type (0, 0), BuildingBlock: KIFKEQ_clean_linker_1, # of connection points: 2
#     Edge 79, Type (0, 0), BuildingBlock: KIFKEQ_clean_linker_1, # of connection points: 2
#     Edge 80, Type (0, 0), BuildingBlock: KIFKEQ_clean_linker_1, # of connection points: 2
#     Edge 81, Type (0, 0), BuildingBlock: KIFKEQ_clean_linker_1, # of connection points: 2
#     Edge 82, Type (0, 0), BuildingBlock: KIFKEQ_clean_linker_1, # of connection points: 2
#     Edge 83, Type (0, 0), BuildingBlock: KIFKEQ_clean_linker_1, # of connection points: 2
#     Edge 84, Type (0, 0), BuildingBlock: KIFKEQ_clean_linker_1, # of connection points: 2
#     Edge 85, Type (0, 0), BuildingBlock: KIFKEQ_clean_linker_1, # of connection points: 2
#     Edge 86, Type (0, 0), BuildingBlock: KIFKEQ_clean_linker_1, # of connection points: 2
#     Edge 87, Type (0, 0), BuildingBlock: KIFKEQ_clean_linker_1, # of connection points: 2
#     Edge 88, Type (0, 0), BuildingBlock: KIFKEQ_clean_linker_1, # of connection points: 2
#     Edge 89, Type (0, 0), BuildingBlock: KIFKEQ_clean_linker_1, # of connection points: 2
#     Edge 90, Type (0, 0), BuildingBlock: KIFKEQ_clean_linker_1, # of connection points: 2
#     Edge 91, Type (0, 0), BuildingBlock: KIFKEQ_clean_linker_1, # of connection points: 2
#     Edge 92, Type (0, 0), BuildingBlock: KIFKEQ_clean_linker_1, # of connection points: 2
#     Edge 93, Type (0, 0), BuildingBlock: KIFKEQ_clean_linker_1, # of connection points: 2
#     Edge 94, Type (0, 0), BuildingBlock: KIFKEQ_clean_linker_1, # of connection points: 2
#     Edge 95, Type (0, 0), BuildingBlock: KIFKEQ_clean_linker_1, # of connection points: 2
#     Edge 96, Type (0, 0), BuildingBlock: KIFKEQ_clean_linker_1, # of connection points: 2
#     Edge 97, Type (0, 0), BuildingBlock: KIFKEQ_clean_linker_1, # of connection points: 2
#     Edge 98, Type (0, 0), BuildingBlock: KIFKEQ_clean_linker_1, # of connection points: 2
#     Edge 99, Type (0, 0), BuildingBlock: KIFKEQ_clean_linker_1, # of connection points: 2
#     Edge 100, Type (0, 0), BuildingBlock: KIFKEQ_clean_linker_1, # of connection points: 2
#     Edge 101, Type (0, 0), BuildingBlock: KIFKEQ_clean_linker_1, # of connection points: 2
#     Edge 102, Type (0, 0), BuildingBlock: KIFKEQ_clean_linker_1, # of connection points: 2
#     Edge 103, Type (0, 0), BuildingBlock: KIFKEQ_clean_linker_1, # of connection points: 2
#     Edge 104, Type (0, 0), BuildingBlock: KIFKEQ_clean_linker_1, # of connection points: 2
#     Edge 105, Type (0, 0), BuildingBlock: KIFKEQ_clean_linker_1, # of connection points: 2
#     Edge 106, Type (0, 0), BuildingBlock: KIFKEQ_clean_linker_1, # of connection points: 2
#     Edge 107, Type (0, 0), BuildingBlock: KIFKEQ_clean_linker_1, # of connection points: 2
#     Edge 108, Type (0, 0), BuildingBlock: KIFKEQ_clean_linker_1, # of connection points: 2
#     Edge 109, Type (0, 0), BuildingBlock: KIFKEQ_clean_linker_1, # of connection points: 2
#     Edge 110, Type (0, 0), BuildingBlock: KIFKEQ_clean_linker_1, # of connection points: 2
#     Edge 111, Type (0, 0), BuildingBlock: KIFKEQ_clean_linker_1, # of connection points: 2
#     Edge 112, Type (0, 0), BuildingBlock: KIFKEQ_clean_linker_1, # of connection points: 2
#     Edge 113, Type (0, 0), BuildingBlock: KIFKEQ_clean_linker_1, # of connection points: 2
#     Edge 114, Type (0, 0), BuildingBlock: KIFKEQ_clean_linker_1, # of connection points: 2
#     Edge 115, Type (0, 0), BuildingBlock: KIFKEQ_clean_linker_1, # of connection points: 2
#     Edge 116, Type (0, 0), BuildingBlock: KIFKEQ_clean_linker_1, # of connection points: 2
#     Edge 117, Type (0, 0), BuildingBlock: KIFKEQ_clean_linker_1, # of connection points: 2
#     Edge 118, Type (0, 0), BuildingBlock: KIFKEQ_clean_linker_1, # of connection points: 2
#     Edge 119, Type (0, 0), BuildingBlock: KIFKEQ_clean_linker_1, # of connection points: 2
#     Edge 120, Type (0, 0), BuildingBlock: KIFKEQ_clean_linker_1, # of connection points: 2
#     Edge 121, Type (0, 0), BuildingBlock: KIFKEQ_clean_linker_1, # of connection points: 2
#     Edge 122, Type (0, 0), BuildingBlock: KIFKEQ_clean_linker_1, # of connection points: 2
#     Edge 123, Type (0, 0), BuildingBlock: KIFKEQ_clean_linker_1, # of connection points: 2
#     Edge 124, Type (0, 0), BuildingBlock: KIFKEQ_clean_linker_1, # of connection points: 2
#     Edge 125, Type (0, 0), BuildingBlock: KIFKEQ_clean_linker_1, # of connection points: 2
#     Edge 126, Type (0, 0), BuildingBlock: KIFKEQ_clean_linker_1, # of connection points: 2
#     Edge 127, Type (0, 0), BuildingBlock: KIFKEQ_clean_linker_1, # of connection points: 2
# Relax obj value: 0.138
# Max RMSD: 0.173
# Mean RMSD: 0.173
data_MOF--net-wio--node1-CUKXOW_clean_sbu_0--edge1-KIFKEQ_clean_linker_1
_symmetry_space_group_name_H-M    P1
_symmetry_Int_Tables_number       1
_symmetry_cell_setting            triclinic
loop_
_symmetry_equiv_pos_as_xyz
'x, y, z'
_cell_length_a     47.630609
_cell_length_b     47.647429
_cell_length_c     48.061662
_cell_angle_alpha  90.067142
_cell_angle_beta   90.012133
_cell_angle_gamma 89.749976
loop_
_atom_site_label
_atom_site_type_symbol
_atom_site_fract_x
_atom_site_fract_y
_atom_site_fract_z
_atom_type_partial_charge
Tb0 Tb 0.16313 0.15678 0.32418 0.0
C1 C 0.17573 0.20116 0.37117 0.0
Tb2 Tb 0.18052 0.1347 0.38342 0.0
O3 O 0.1228 0.16938 0.34194 0.0
O4 O 0.14423 0.13453 0.35778 0.0
O5 O 0.17262 0.1969 0.34379 0.0
C6 C 0.17459 0.11043 0.4342 0.0
O7 O 0.17775 0.18045 0.39002 0.0
C8 C 0.22267 0.14057 0.34777 0.0
C9 C 0.17916 0.09394 0.33434 0.0
O10 O 0.15692 0.12775 0.42257 0.0
O11 O 0.19636 0.10849 0.41797 0.0
O12 O 0.22382 0.12502 0.37004 0.0
O13 O 0.19999 0.15447 0.34888 0.0
O14 O 0.17223 0.09674 0.36074 0.0
O15 O 0.1799 0.1153 0.31698 0.0
C16 C 0.15092 0.15816 0.26917 0.0
O17 O 0.13584 0.1471 0.2887 0.0
O18 O 0.17286 0.1697 0.28078 0.0
C19 C 0.123 0.15013 0.36102 0.0
Tb20 Tb 0.1173 0.90635 0.56709 0.0
C21 C 0.07485 0.92344 0.61436 0.0
Tb22 Tb 0.14136 0.92928 0.62529 0.0
O23 O 0.10504 0.86814 0.58842 0.0
O24 O 0.13968 0.89082 0.60262 0.0
O25 O 0.07838 0.91953 0.587 0.0
C26 C 0.16806 0.92595 0.67529 0.0
O27 O 0.09593 0.92553 0.63275 0.0
C28 C 0.13028 0.9706 0.58918 0.0
C29 C 0.17984 0.92676 0.57362 0.0
O30 O 0.14472 0.91335 0.66869 0.0
O31 O 0.17539 0.9412 0.65414 0.0
O32 O 0.13968 0.97466 0.61445 0.0
O33 O 0.12548 0.94458 0.58759 0.0
O34 O 0.17903 0.92321 0.60089 0.0
O35 O 0.15831 0.92189 0.55706 0.0
C36 C 0.11224 0.89004 0.51357 0.0
O37 O 0.10166 0.91305 0.52415 0.0
O38 O 0.12487 0.87631 0.53327 0.0
C39 C 0.12391 0.87022 0.60778 0.0
Tb40 Tb 0.35639 0.88539 0.81861 0.0
C41 C 0.35318 0.8452 0.86998 0.0
Tb42 Tb 0.33896 0.91087 0.87605 0.0
O43 O 0.39828 0.8783 0.83489 0.0
O44 O 0.3745 0.91241 0.84917 0.0
O45 O 0.35216 0.84643 0.84219 0.0
C46 C 0.34873 0.93808 0.92465 0.0
O47 O 0.3513 0.86781 0.88637 0.0
C48 C 0.29554 0.89547 0.84436 0.0
C49 C 0.3255 0.94455 0.8229 0.0
O50 O 0.32685 0.92252 0.91932 0.0
O51 O 0.36471 0.93774 0.90286 0.0
O52 O 0.2937 0.91237 0.86577 0.0
O53 O 0.32041 0.88557 0.84462 0.0
O54 O 0.33137 0.94678 0.84973 0.0
O55 O 0.33279 0.92264 0.80756 0.0
C56 C 0.36868 0.87903 0.76443 0.0
O57 O 0.38009 0.89672 0.78145 0.0
O58 O 0.35037 0.86407 0.77808 0.0
C59 C 0.39735 0.89904 0.8523 0.0
Tb60 Tb 0.39654 0.1216 0.06953 0.0
C61 C 0.43982 0.11773 0.11831 0.0
Tb62 Tb 0.37482 0.10342 0.12828 0.0
O63 O 0.40367 0.16374 0.08557 0.0
O64 O 0.37156 0.13924 0.10206 0.0
O65 O 0.4368 0.11619 0.09069 0.0
C66 C 0.34756 0.11128 0.17701 0.0
O67 O 0.41818 0.11703 0.13607 0.0
C68 C 0.38852 0.06046 0.09529 0.0
C69 C 0.33797 0.09086 0.07653 0.0
O70 O 0.36929 0.09478 0.17348 0.0
O71 O 0.34193 0.12309 0.15341 0.0
O72 O 0.37354 0.05821 0.11799 0.0
O73 O 0.39788 0.08537 0.09508 0.0
O74 O 0.33777 0.09513 0.10373 0.0
O75 O 0.35901 0.09807 0.06016 0.0
C76 C 0.39811 0.13355 1.01492 0.0
O77 O 0.37991 0.14268 1.03281 0.0
O78 O 0.41643 0.11779 1.02793 0.0
C79 C 0.38446 0.16223 0.10459 0.0
Tb80 Tb 0.1433 0.85258 0.25526 0.0
C81 C 0.16269 0.81406 0.20414 0.0
Tb82 Tb 0.16002 0.88085 0.196 0.0
O83 O 0.09939 0.86427 0.24898 0.0
O84 O 0.12587 0.85918 0.21484 0.0
O85 O 0.15836 0.81587 0.23172 0.0
C86 C 0.15194 0.90894 0.14773 0.0
O87 O 0.16174 0.83596 0.18668 0.0
C88 C 0.20146 0.88176 0.23408 0.0
C89 C 0.14295 0.9181 0.24652 0.0
O90 O 0.13571 0.90944 0.1694 0.0
O91 O 0.17289 0.89192 0.15296 0.0
O92 O 0.20392 0.89164 0.20891 0.0
O93 O 0.17721 0.87155 0.23499 0.0
O94 O 0.14343 0.91585 0.21917 0.0
O95 O 0.1447 0.89678 0.26393 0.0
C96 C 0.14358 0.84093 0.31014 0.0
O97 O 0.16352 0.85298 0.29619 0.0
O98 O 0.12431 0.83307 0.29249 0.0
C99 C 0.10176 0.86745 0.22225 0.0
Tb100 Tb 0.38384 0.91818 0.50195 0.0
C101 C 0.42656 0.9199 0.45218 0.0
Tb102 Tb 0.361 0.93418 0.44342 0.0
O103 O 0.38957 0.87574 0.48705 0.0
O104 O 0.35631 0.8999 0.47149 0.0
O105 O 0.42385 0.92019 0.47987 0.0
C106 C 0.33632 0.92621 0.39314 0.0
O107 O 0.40497 0.92334 0.43467 0.0
C108 C 0.37726 0.97797 0.47377 0.0
C109 C 0.32562 0.94852 0.49484 0.0
O110 O 0.35146 0.90798 0.40658 0.0
O111 O 0.3362 0.94934 0.40752 0.0
O112 O 0.3616 0.97981 0.45154 0.0
O113 O 0.38618 0.95287 0.4746 0.0
O114 O 0.32399 0.93899 0.46903 0.0
O115 O 0.34747 0.94367 0.51104 0.0
C116 C 0.38899 0.90679 0.55645 0.0
O117 O 0.37159 0.89522 0.53927 0.0
O118 O 0.40413 0.92499 0.54289 0.0
C119 C 0.36891 0.87648 0.46955 0.0
Tb120 Tb 0.34763 0.14679 0.75334 0.0
C121 C 0.34065 0.18982 0.70434 0.0
Tb122 Tb 0.32943 0.12407 0.69512 0.0
O123 O 0.38915 0.15515 0.73614 0.0
O124 O 0.36541 0.12169 0.72115 0.0
O125 O 0.34104 0.1868 0.73201 0.0
C126 C 0.33948 0.09952 0.64522 0.0
O127 O 0.33901 0.16818 0.68668 0.0
C128 C 0.28636 0.13626 0.72866 0.0
C129 C 0.31871 0.08721 0.74659 0.0
O130 O 0.3161 0.11199 0.65241 0.0
O131 O 0.35686 0.10158 0.66586 0.0
O132 O 0.28467 0.12048 0.70641 0.0
O133 O 0.31078 0.14706 0.7284 0.0
O134 O 0.32477 0.08652 0.71973 0.0
O135 O 0.32475 0.1088 0.76287 0.0
C136 C 0.36108 0.1504 0.80755 0.0
O137 O 0.34508 0.16826 0.79425 0.0
O138 O 0.36933 0.13122 0.79024 0.0
C139 C 0.38785 0.13529 0.71779 0.0
Tb140 Tb 0.11681 0.10166 1.00862 0.0
C141 C 0.07192 0.0965 0.96053 0.0
Tb142 Tb 0.13743 0.08393 0.94834 0.0
O143 O 0.10816 0.14336 0.99203 0.0
O144 O 0.14072 0.11887 0.97552 0.0
O145 O 0.07594 0.09734 0.98815 0.0
C146 C 0.16229 0.09518 0.89863 0.0
O147 O 0.0927 0.09377 0.94186 0.0
C148 C 0.12538 0.04116 0.98176 0.0
C149 C 0.17613 0.07208 0.99884 0.0
O150 O 0.16026 0.11184 0.91988 0.0
O151 O 0.14931 0.07191 0.90501 0.0
O152 O 0.14036 0.03895 0.959 0.0
O153 O 0.11539 0.06592 0.98224 0.0
O154 O 0.17554 0.07736 0.9718 0.0
O155 O 0.1553 0.07834 1.01605 0.0
C156 C 0.1168 0.11541 0.06323 0.0
O157 O 0.13207 0.12647 0.04383 0.0
O158 O 0.10059 0.09651 0.05176 0.0
C159 C 0.1273 0.14162 0.97296 0.0
Tb160 Tb 0.83724 0.89521 0.69118 0.0
C161 C 0.82044 0.93191 0.74204 0.0
Tb162 Tb 0.85586 0.87584 0.7509 0.0
O163 O 0.79195 0.89421 0.70084 0.0
O164 O 0.82041 0.87151 0.72455 0.0
O165 O 0.82574 0.93221 0.71497 0.0
C166 C 0.86834 0.87449 0.80534 0.0
O167 O 0.8293 0.91184 0.75896 0.0
C168 C 0.8955 0.88973 0.71604 0.0
C169 C 0.85407 0.83077 0.70305 0.0
O170 O 0.87588 0.89353 0.78767 0.0
O171 O 0.85366 0.85547 0.79228 0.0
O172 O 0.89841 0.87066 0.73498 0.0
O173 O 0.87173 0.9013 0.71845 0.0
O174 O 0.85416 0.83503 0.73056 0.0
O175 O 0.8502 0.85124 0.68427 0.0
C176 C 0.8487 0.92159 0.64258 0.0
O177 O 0.8645 0.92056 0.66449 0.0
O178 O 0.82616 0.90684 0.64764 0.0
C179 C 0.79489 0.87945 0.72367 0.0
Tb180 Tb 0.87533 0.09359 0.44519 0.0
C181 C 0.8381 0.07865 0.49637 0.0
Tb182 Tb 0.895 0.11252 0.50486 0.0
O183 O 0.87618 0.04847 0.45453 0.0
O184 O 0.89877 0.07652 0.4788 0.0
O185 O 0.83858 0.08206 0.46902 0.0
C186 C 0.89793 0.12401 0.55954 0.0
O187 O 0.858 0.08779 0.51331 0.0
C188 C 0.87996 0.15191 0.46967 0.0
C189 C 0.93924 0.11241 0.45638 0.0
O190 O 0.88107 0.13552 0.54171 0.0
O191 O 0.91395 0.106 0.54648 0.0
O192 O 0.89788 0.15572 0.48957 0.0
O193 O 0.86936 0.12793 0.47225 0.0
O194 O 0.93564 0.11215 0.48396 0.0
O195 O 0.91843 0.1085 0.43804 0.0
C196 C 0.84784 0.10376 0.39709 0.0
O197 O 0.86914 0.08653 0.39985 0.0
O198 O 0.84271 0.11504 0.42112 0.0
C199 C 0.89031 0.05118 0.47777 0.0
Tb200 Tb 0.67773 0.12274 0.19773 0.0
C201 C 0.69541 0.08572 0.24831 0.0
Tb202 Tb 0.66188 0.14252 0.258 0.0
O203 O 0.72323 0.12346 0.20589 0.0
O204 O 0.69602 0.14707 0.23005 0.0
O205 O 0.68978 0.08589 0.22133 0.0
C206 C 0.65004 0.14526 0.3124 0.0
O207 O 0.68751 0.10584 0.2656 0.0
C208 C 0.62018 0.13013 0.22473 0.0
C209 C 0.65724 0.18594 0.20969 0.0
O210 O 0.63867 0.12858 0.29437 0.0
O211 O 0.66851 0.16102 0.29979 0.0
O212 O 0.61885 0.14858 0.24447 0.0
O213 O 0.64378 0.11783 0.22571 0.0
O214 O 0.6614 0.18296 0.23704 0.0
O215 O 0.66008 0.16494 0.19134 0.0
C216 C 0.66864 0.09533 0.14942 0.0
O217 O 0.68581 0.11646 0.15261 0.0
O218 O 0.65664 0.09048 0.17312 0.0
C219 C 0.72126 0.13857 0.22853 0.0
Tb220 Tb 0.64827 0.92332 0.94429 0.0
C221 C 0.68039 0.89344 0.99254 0.0
Tb222 Tb 0.61694 0.90642 0.99907 0.0
O223 O 0.66736 0.96009 0.96434 0.0
O224 O 0.62982 0.94429 0.97927 0.0
O225 O 0.67729 0.89465 0.96516 0.0
C226 C 0.60715 0.89698 0.05369 0.0
O227 O 0.66133 0.90427 1.00935 0.0
C228 C 0.61812 0.86846 0.9586 0.0
C229 C 0.58063 0.92928 0.94969 0.0
O230 O 0.61138 0.87809 1.0347 0.0
O231 O 0.60686 0.92144 0.04159 0.0
O232 O 0.59895 0.86933 0.97792 0.0
O233 O 0.63619 0.88642 0.96476 0.0
O234 O 0.58141 0.9246 0.97708 0.0
O235 O 0.60348 0.9288 0.93334 0.0
C236 C 0.67395 0.9219 0.8939 0.0
O237 O 0.6481 0.91462 0.89888 0.0
O238 O 0.68456 0.93116 0.917 0.0
C239 C 0.64936 0.96133 0.98459 0.0
Tb240 Tb 0.83388 0.11656 0.87847 0.0
C241 C 0.82649 0.0801 0.82578 0.0
Tb242 Tb 0.8527 0.14064 0.82107 0.0
O243 O 0.78966 0.11257 0.86662 0.0
O244 O 0.8154 0.14033 0.84549 0.0
O245 O 0.83167 0.07921 0.85284 0.0
C246 C 0.86601 0.14712 0.7671 0.0
O247 O 0.832 0.10214 0.81014 0.0
C248 C 0.89224 0.12816 0.85694 0.0
C249 C 0.84678 0.18237 0.87102 0.0
O250 O 0.84534 0.15988 0.77977 0.0
O251 O 0.87914 0.13155 0.78498 0.0
O252 O 0.89367 0.14879 0.83946 0.0
O253 O 0.86995 0.11448 0.85275 0.0
O254 O 0.84707 0.18006 0.84332 0.0
O255 O 0.84372 0.16052 0.88822 0.0
C256 C 0.83936 0.0908 0.92841 0.0
O257 O 0.8596 0.09751 0.91166 0.0
O258 O 0.81593 0.09962 0.91746 0.0
C259 C 0.79141 0.1286 0.84471 0.0
Tb260 Tb 0.63593 0.08224 0.62954 0.0
C261 C 0.67429 0.07363 0.57832 0.0
Tb262 Tb 0.61466 0.10203 0.57154 0.0
O263 O 0.63936 0.03774 0.61729 0.0
O264 O 0.61302 0.06478 0.59562 0.0
O265 O 0.67411 0.07849 0.60543 0.0
C266 C 0.61173 0.11654 0.51764 0.0
O267 O 0.65287 0.07952 0.56186 0.0
C268 C 0.62743 0.14149 0.60737 0.0
C269 C 0.57031 0.09575 0.61978 0.0
O270 O 0.62793 0.12754 0.53627 0.0
O271 O 0.59629 0.09738 0.52946 0.0
O272 O 0.60741 0.14334 0.58922 0.0
O273 O 0.64036 0.11845 0.60399 0.0
O274 O 0.57409 0.09823 0.59232 0.0
O275 O 0.59124 0.09099 0.63782 0.0
C276 C 0.66074 0.09098 0.67966 0.0
O277 O 0.65348 0.06661 0.66958 0.0
O278 O 0.65263 0.10997 0.66212 0.0
C279 C 0.62396 0.04033 0.59491 0.0
Tb280 Tb 0.66506 0.88899 0.37521 0.0
C281 C 0.66968 0.92658 0.32364 0.0
Tb282 Tb 0.64639 0.86579 0.31634 0.0
O283 O 0.70999 0.89178 0.36415 0.0
O284 O 0.6831 0.86687 0.34138 0.0
O285 O 0.662 0.92651 0.35008 0.0
C286 C 0.63381 0.86384 0.26161 0.0
O287 O 0.66757 0.90441 0.30742 0.0
C288 C 0.60676 0.87595 0.35278 0.0
C289 C 0.65655 0.8225 0.36505 0.0
O290 O 0.6227 0.88032 0.28009 0.0
O291 O 0.65184 0.84737 0.27415 0.0
O292 O 0.60535 0.85678 0.33366 0.0
O293 O 0.6288 0.89021 0.34945 0.0
O294 O 0.6535 0.82583 0.33753 0.0
O295 O 0.65985 0.84375 0.38309 0.0
C296 C 0.65966 0.9139 0.42601 0.0
O297 O 0.64399 0.8938 0.41627 0.0
O298 O 0.67903 0.91878 0.40764 0.0
C299 C 0.70752 0.8773 0.34121 0.0
Tb300 Tb 0.86292 0.90973 0.12434 0.0
C301 C 0.83031 0.87114 0.08191 0.0
Tb302 Tb 0.88956 0.89298 0.06703 0.0
O303 O 0.86442 0.95426 0.11168 0.0
O304 O 0.86002 0.92285 0.08205 0.0
O305 O 0.83396 0.87837 0.10825 0.0
C306 C 0.90219 0.89352 1.01257 0.0
O307 O 0.84673 0.87981 0.06151 0.0
C308 C 0.88728 0.85202 0.10362 0.0
C309 C 0.92873 0.91734 0.11496 0.0
O310 O 0.90646 0.87271 1.02952 0.0
O311 O 0.89238 0.91463 1.02677 0.0
O312 O 0.88962 0.84819 0.0769 0.0
O313 O 0.88966 0.87798 0.10841 0.0
O314 O 0.92572 0.91203 0.08782 0.0
O315 O 0.90756 0.91636 0.13323 0.0
C316 C 0.83318 0.90915 0.17237 0.0
O317 O 0.85962 0.90257 0.16978 0.0
O318 O 0.82402 0.91696 0.14814 0.0
C319 C 0.86347 0.94887 0.08513 0.0
Tb320 Tb 0.65517 0.64719 0.81981 0.0
C321 C 0.67767 0.68764 0.8678 0.0
Tb322 Tb 0.67443 0.62159 0.8756 0.0
O323 O 0.61083 0.64353 0.83006 0.0
O324 O 0.64067 0.64732 0.86166 0.0
O325 O 0.6728 0.68442 0.84056 0.0
C326 C 0.67713 0.59155 0.92331 0.0
O327 O 0.67839 0.66609 0.88554 0.0
C328 C 0.71282 0.62421 0.83553 0.0
C329 C 0.63696 0.58672 0.83436 0.0
O330 O 0.66355 0.615 0.91983 0.0
O331 O 0.69006 0.58575 0.90023 0.0
O332 O 0.71837 0.6266 0.86196 0.0
O333 O 0.687 0.61893 0.83302 0.0
O334 O 0.64484 0.5906 0.86041 0.0
O335 O 0.64398 0.60381 0.81392 0.0
C336 C 0.65133 0.66084 0.76571 0.0
O337 O 0.63191 0.66446 0.78432 0.0
O338 O 0.67371 0.65128 0.77806 0.0
C339 C 0.61507 0.64246 0.85674 0.0
Tb340 Tb 0.62396 0.39603 0.06982 0.0
C341 C 0.58973 0.42746 0.11599 0.0
Tb342 Tb 0.65481 0.41585 0.12407 0.0
O343 O 0.59666 0.36739 0.09341 0.0
O344 O 0.6354 0.37936 0.10856 0.0
O345 O 0.59252 0.42358 0.08862 0.0
C346 C 0.6867 0.41919 0.17056 0.0
O347 O 0.61067 0.4234 0.13405 0.0
C348 C 0.65182 0.45263 0.08266 0.0
C349 C 0.68321 0.37012 0.0844 0.0
O350 O 0.66098 0.41002 0.16935 0.0
O351 O 0.69393 0.42728 0.14574 0.0
O352 O 0.65304 0.45938 0.10883 0.0
O353 O 0.65467 0.42638 0.08082 0.0
O354 O 0.68306 0.3827 0.1091 0.0
O355 O 0.6641 0.37512 0.06501 0.0
C356 C 0.6143 0.38499 1.0158 0.0
O357 O 0.6182 0.36661 1.03533 0.0
O358 O 0.61439 0.40995 1.02697 0.0
C359 C 0.61346 0.3663 0.11484 0.0
Tb360 Tb 0.87704 0.36281 0.31698 0.0
C361 C 0.84886 0.33146 0.36788 0.0
Tb362 Tb 0.86455 0.39693 0.37178 0.0
O363 O 0.92116 0.35545 0.32758 0.0
O364 O 0.89215 0.36485 0.35832 0.0
O365 O 0.85326 0.33142 0.3404 0.0
C366 C 0.86801 0.42826 0.41896 0.0
O367 O 0.85368 0.35388 0.38402 0.0
C368 C 0.82545 0.39864 0.3321 0.0
C369 C 0.90581 0.42027 0.32655 0.0
O370 O 0.86589 0.40107 0.41773 0.0
O371 O 0.86751 0.4377 0.39363 0.0
O372 O 0.82021 0.40183 0.35849 0.0
O373 O 0.85168 0.39744 0.32929 0.0
O374 O 0.90015 0.41898 0.35352 0.0
O375 O 0.89307 0.40413 0.3081 0.0
C376 C 0.87757 0.34707 0.2633 0.0
O377 O 0.89873 0.34643 0.28027 0.0
O378 O 0.85536 0.35462 0.27727 0.0
C379 C 0.91809 0.36207 0.35364 0.0
Tb380 Tb 0.90594 0.6084 0.57499 0.0
C381 C 0.94959 0.59761 0.62293 0.0
Tb382 Tb 0.88353 0.58627 0.6319 0.0
O383 O 0.91488 0.64816 0.59512 0.0
O384 O 0.88082 0.62393 0.6084 0.0
O385 O 0.94617 0.60157 0.59557 0.0
C386 C 0.85826 0.5905 0.68236 0.0
O387 O 0.92842 0.59272 0.64064 0.0
C388 C 0.89529 0.54611 0.59514 0.0
C389 C 0.84563 0.58291 0.58034 0.0
O390 O 0.87111 0.61049 0.66919 0.0
O391 O 0.86111 0.56765 0.66773 0.0
O392 O 0.87952 0.54261 0.61708 0.0
O393 O 0.90642 0.57015 0.59743 0.0
O394 O 0.84565 0.58819 0.60732 0.0
O395 O 0.8677 0.58693 0.56432 0.0
C396 C 0.90654 0.62587 0.52197 0.0
O397 O 0.89019 0.63484 0.54158 0.0
O398 O 0.9237 0.60709 0.53234 0.0
C399 C 0.8949 0.64583 0.61323 0.0
Tb400 Tb 0.64628 0.35703 0.7554 0.0
C401 C 0.66874 0.32278 0.70474 0.0
Tb402 Tb 0.66009 0.39008 0.70137 0.0
O403 O 0.61105 0.33595 0.73444 0.0
O404 O 0.62406 0.37558 0.72225 0.0
O405 O 0.66558 0.32283 0.73231 0.0
C406 C 0.6566 0.41554 0.6511 0.0
O407 O 0.66645 0.34591 0.68906 0.0
C408 C 0.69692 0.39491 0.74239 0.0
C409 C 0.6305 0.42132 0.75035 0.0
O410 O 0.67934 0.41289 0.66596 0.0
O411 O 0.63658 0.40268 0.66402 0.0
O412 O 0.6925 0.4139 0.72348 0.0
O413 O 0.68296 0.37326 0.73604 0.0
O414 O 0.63432 0.42068 0.72309 0.0
O415 O 0.63847 0.40058 0.76685 0.0
C416 C 0.63936 0.34623 0.80994 0.0
O417 O 0.61961 0.34944 0.79167 0.0
O418 O 0.66341 0.34737 0.7971 0.0
C419 C 0.60774 0.35585 0.71615 0.0
Tb420 Tb 0.89416 0.40357 1.00488 0.0
C421 C 0.93158 0.42342 0.95546 0.0
Tb422 Tb 0.86394 0.42224 0.95094 0.0
O423 O 0.91129 0.36674 0.98349 0.0
O424 O 0.87314 0.38381 0.97113 0.0
O425 O 0.93069 0.4187 0.98281 0.0
C426 C 0.8366 0.42241 0.90144 0.0
O427 O 0.90872 0.42511 0.93921 0.0
C428 C 0.86643 0.46096 0.99074 0.0
C429 C 0.83071 0.39957 1.00119 0.0
O430 O 0.83249 0.43974 0.92193 0.0
O431 O 0.85727 0.4059 0.9083 0.0
O432 O 0.84727 0.4602 0.97152 0.0
O433 O 0.88448 0.44228 0.98516 0.0
O434 O 0.83313 0.39763 0.97383 0.0
O435 O 0.85078 0.41133 1.01575 0.0
C436 C 0.90065 0.38766 0.05807 0.0
O437 O 0.88708 0.37433 1.0389 0.0
O438 O 0.91197 0.40997 0.04705 0.0
C439 C 0.89143 0.36569 0.96502 0.0
Tb440 Tb 0.8649 0.64732 0.26567 0.0
C441 C 0.8408 0.68131 0.21447 0.0
Tb442 Tb 0.85135 0.61504 0.2111 0.0
O443 O 0.90996 0.64692 0.25725 0.0
O444 O 0.88138 0.64478 0.22456 0.0
O445 O 0.84402 0.68088 0.24208 0.0
C446 C 0.85278 0.58352 0.16419 0.0
O447 O 0.84471 0.65863 0.19853 0.0
C448 C 0.8106 0.61752 0.24874 0.0
C449 C 0.88898 0.58759 0.2573 0.0
O450 O 0.85261 0.61079 0.16525 0.0
O451 O 0.85169 0.57417 0.1895 0.0
O452 O 0.80632 0.61525 0.22214 0.0
O453 O 0.83659 0.61549 0.2529 0.0
O454 O 0.88425 0.58948 0.2302 0.0
O455 O 0.87718 0.60484 0.27543 0.0
C456 C 0.86684 0.66427 0.31894 0.0
O457 O 0.88628 0.66791 0.30042 0.0
O458 O 0.84526 0.65293 0.30678 0.0
C459 C 0.90708 0.64309 0.23067 0.0
Tb460 Tb 0.61697 0.60618 0.50811 0.0
C461 C 0.57394 0.60075 0.45923 0.0
Tb462 Tb 0.63938 0.5864 0.45042 0.0
O463 O 0.60907 0.64719 0.4898 0.0
O464 O 0.64276 0.6226 0.47575 0.0
O465 O 0.57673 0.60176 0.4869 0.0
C466 C 0.66408 0.59037 0.39995 0.0
O467 O 0.59536 0.59647 0.4417 0.0
C468 C 0.62652 0.54463 0.48446 0.0
C469 C 0.6768 0.57934 0.50189 0.0
O470 O 0.65253 0.61083 0.41373 0.0
O471 O 0.66046 0.56741 0.41406 0.0
O472 O 0.64224 0.54204 0.4624 0.0
O473 O 0.61568 0.56902 0.48365 0.0
O474 O 0.67711 0.58626 0.47527 0.0
O475 O 0.65464 0.58301 0.51795 0.0
C476 C 0.6158 0.62173 0.56176 0.0
O477 O 0.63246 0.63112 0.54269 0.0
O478 O 0.59875 0.60346 0.55052 0.0
C479 C 0.62929 0.64517 0.47189 0.0
Tb480 Tb 0.35972 0.40839 0.20206 0.0
C481 C 0.39983 0.4362 0.24577 0.0
Tb482 Tb 0.37519 0.37695 0.25724 0.0
O483 O 0.31524 0.40891 0.21529 0.0
O484 O 0.34705 0.40921 0.24464 0.0
O485 O 0.39316 0.43407 0.21915 0.0
C486 C 0.37484 0.36221 0.31115 0.0
O487 O 0.38983 0.41912 0.26505 0.0
C488 C 0.41635 0.37888 0.22089 0.0
C489 C 0.34943 0.34225 0.2067 0.0
O490 O 0.39641 0.36165 0.29469 0.0
O491 O 0.35286 0.36933 0.29665 0.0
O492 O 0.41979 0.37295 0.24709 0.0
O493 O 0.39026 0.3793 0.21602 0.0
O494 O 0.35443 0.34303 0.2341 0.0
O495 O 0.35185 0.36472 0.19022 0.0
C496 C 0.36068 0.44064 0.15573 0.0
O497 O 0.36346 0.41347 0.15642 0.0
O498 O 0.35644 0.44933 0.18099 0.0
C499 C 0.32083 0.40767 0.24177 0.0
Tb500 Tb 0.3755 0.61136 0.95718 0.0
C501 C 0.33853 0.59471 1.00762 0.0
Tb502 Tb 0.3937 0.6309 1.01738 0.0
O503 O 0.37841 0.56632 0.9669 0.0
O504 O 0.39959 0.5956 0.99089 0.0
O505 O 0.33847 0.59967 0.9805 0.0
C506 C 0.39027 0.64312 0.07188 0.0
O507 O 0.3586 0.6032 1.02466 0.0
C508 C 0.37867 0.66975 0.98209 0.0
C509 C 0.43849 0.6323 0.96956 0.0
O510 O 0.37221 0.64959 0.05278 0.0
O511 O 0.41133 0.62978 0.06023 0.0
O512 O 0.39591 0.67411 1.00245 0.0
O513 O 0.36845 0.64552 0.98418 0.0
O514 O 0.43495 0.6308 0.99718 0.0
O515 O 0.41782 0.62826 0.9511 0.0
C516 C 0.35043 0.61982 0.9075 0.0
O517 O 0.36837 0.59973 0.91299 0.0
O518 O 0.34722 0.63488 0.92975 0.0
C519 C 0.39267 0.56989 0.98991 0.0
Tb520 Tb 0.18312 0.62963 0.7047 0.0
C521 C 0.19793 0.59358 0.75635 0.0
Tb522 Tb 0.16498 0.65126 0.76393 0.0
O523 O 0.22826 0.62986 0.7146 0.0
O524 O 0.20028 0.65449 0.73715 0.0
O525 O 0.19251 0.59291 0.72933 0.0
C526 C 0.15059 0.65177 0.81808 0.0
O527 O 0.19083 0.61477 0.7728 0.0
C528 C 0.12527 0.63653 0.72936 0.0
C529 C 0.16483 0.69412 0.71461 0.0
O530 O 0.14141 0.63485 0.79909 0.0
O531 O 0.16808 0.66939 0.80651 0.0
O532 O 0.12264 0.6566 0.74737 0.0
O533 O 0.14888 0.62481 0.73226 0.0
O534 O 0.1664 0.69157 0.74231 0.0
O535 O 0.16811 0.67257 0.69696 0.0
C536 C 0.17319 0.60342 0.65569 0.0
O537 O 0.19474 0.61949 0.66097 0.0
O538 O 0.15753 0.60283 0.67771 0.0
C539 C 0.2255 0.6457 0.73671 0.0
Tb540 Tb 0.15525 0.44085 0.45049 0.0
C541 C 0.18974 0.45217 0.50353 0.0
Tb542 Tb 0.13317 0.41871 0.50765 0.0
O543 O 0.15236 0.48555 0.46167 0.0
O544 O 0.12976 0.45596 0.48357 0.0
O545 O 0.1919 0.44551 0.47684 0.0
C546 C 0.13058 0.40166 0.56075 0.0
O547 O 0.16797 0.44503 0.5189 0.0
C548 C 0.14907 0.38135 0.47104 0.0
C549 C 0.09037 0.42338 0.45808 0.0
O550 O 0.14987 0.3953 0.5428 0.0
O551 O 0.11199 0.41791 0.54874 0.0
O552 O 0.12877 0.37769 0.48852 0.0
O553 O 0.16079 0.40465 0.47554 0.0
O554 O 0.09315 0.4211 0.48568 0.0
O555 O 0.11163 0.42949 0.4409 0.0
C556 C 0.18105 0.43675 0.40032 0.0
O557 O 0.168 0.41673 0.4132 0.0
O558 O 0.17844 0.45943 0.41519 0.0
C559 C 0.13751 0.48147 0.48413 0.0
Tb560 Tb 0.33986 0.62353 0.38792 0.0
C561 C 0.36901 0.59313 0.338 0.0
Tb562 Tb 0.34828 0.65451 0.33019 0.0
O563 O 0.30698 0.5969 0.36895 0.0
O564 O 0.31496 0.63637 0.35313 0.0
O565 O 0.36731 0.59525 0.36532 0.0
C566 C 0.34574 0.66977 0.27653 0.0
O567 O 0.3567 0.6109 0.32079 0.0
C568 C 0.39365 0.64781 0.36087 0.0
C569 C 0.32819 0.69026 0.3822 0.0
O570 O 0.36151 0.6814 0.29544 0.0
O571 O 0.32995 0.65117 0.28851 0.0
O572 O 0.39405 0.65078 0.33407 0.0
O573 O 0.36882 0.6511 0.3691 0.0
O574 O 0.3314 0.6894 0.35454 0.0
O575 O 0.33128 0.66779 0.39887 0.0
C576 C 0.35043 0.59923 0.43771 0.0
O577 O 0.32632 0.61011 0.43014 0.0
O578 O 0.3682 0.60303 0.41762 0.0
C579 C 0.30132 0.61423 0.34884 0.0
Tb580 Tb 0.14331 0.57416 0.13558 0.0
C581 C 0.18172 0.55839 0.08466 0.0
Tb582 Tb 0.12794 0.59482 0.07467 0.0
O583 O 0.13971 0.52931 0.12535 0.0
O584 O 0.12053 0.55949 0.10064 0.0
O585 O 0.18094 0.56472 0.11151 0.0
C586 C 0.1152 0.6078 1.02158 0.0
O587 O 0.16221 0.56637 0.06678 0.0
C588 C 0.15934 0.62801 0.10657 0.0
C589 C 0.0826 0.59954 0.12345 0.0
O590 O 0.12127 0.58295 1.03096 0.0
O591 O 0.11453 0.62508 0.04256 0.0
O592 O 0.1611 0.62691 0.07971 0.0
O593 O 0.13986 0.61198 0.11338 0.0
O594 O 0.08716 0.59981 0.0959 0.0
O595 O 0.10172 0.59192 0.1424 0.0
C596 C 0.1712 0.5819 0.18356 0.0
O597 O 0.14867 0.56639 0.1808 0.0
O598 O 0.17737 0.59272 0.15956 0.0
C599 C 0.12679 0.53359 0.1017 0.0
Tb600 Tb 0.16894 0.3854 0.88212 0.0
C601 C 0.17722 0.4258 0.83161 0.0
Tb602 Tb 0.15288 0.36494 0.81983 0.0
O603 O 0.21361 0.38949 0.87174 0.0
O604 O 0.18775 0.36403 0.84779 0.0
O605 O 0.17331 0.42386 0.85881 0.0
C606 C 0.15311 0.35579 0.76472 0.0
O607 O 0.17131 0.40573 0.81351 0.0
C608 C 0.10964 0.38617 0.84824 0.0
C609 C 0.15562 0.32082 0.86954 0.0
O610 O 0.17096 0.37087 0.77847 0.0
O611 O 0.13571 0.34447 0.78232 0.0
O612 O 0.10791 0.37734 0.82281 0.0
O613 O 0.13483 0.38309 0.85496 0.0
O614 O 0.15576 0.32472 0.84191 0.0
O615 O 0.15786 0.34139 0.88839 0.0
C616 C 0.15895 0.41031 0.93136 0.0
O617 O 0.1784 0.39136 0.92688 0.0
O618 O 0.14545 0.4147 0.90833 0.0
C619 C 0.21201 0.37504 0.84865 0.0
Tb620 Tb 0.36476 0.42866 0.63366 0.0
C621 C 0.33075 0.45318 0.58404 0.0
Tb622 Tb 0.38223 0.41182 0.57271 0.0
O623 O 0.37198 0.4738 0.62686 0.0
O624 O 0.39136 0.44428 0.60159 0.0
O625 O 0.32953 0.44606 0.61069 0.0
C626 C 0.38548 0.4055 0.51732 0.0
O627 O 0.35003 0.44344 0.56662 0.0
C628 C 0.36129 0.37203 0.60372 0.0
C629 C 0.42541 0.4022 0.62141 0.0
O630 O 0.3627 0.40674 0.53196 0.0
O631 O 0.40701 0.40816 0.5339 0.0
O632 O 0.37773 0.36729 0.58284 0.0
O633 O 0.35465 0.39761 0.604 0.0
O634 O 0.42244 0.40646 0.59408 0.0
O635 O 0.40513 0.40734 0.63995 0.0
C636 C 0.338 0.41762 0.68191 0.0
O637 O 0.35588 0.43803 0.67812 0.0
O638 O 0.33567 0.40385 0.65878 0.0
C639 C 0.38651 0.47047 0.60393 0.0
H640 H 0.25965 0.09801 0.33758 0.0
H641 H 0.2284 0.1751 0.30226 0.0
H642 H 0.28969 0.09079 0.29723 0.0
H643 H 0.25952 0.16891 0.26229 0.0
H644 H 0.29761 0.13849 0.18113 0.0
H645 H 0.26803 0.1454 0.22164 0.0
H646 H 0.32945 0.10221 0.27241 0.0
H647 H 0.35836 0.09399 0.23102 0.0
C648 C 0.2595 0.11368 0.32127 0.0
C649 C 0.24159 0.13716 0.32319 0.0
C650 C 0.27698 0.10964 0.29805 0.0
C651 C 0.27748 0.1292 0.27605 0.0
C652 C 0.25963 0.15293 0.27826 0.0
C653 C 0.2418 0.1567 0.30135 0.0
C654 C 0.30483 0.13039 0.20095 0.0
C655 C 0.33041 0.1156 0.20273 0.0
C656 C 0.28787 0.13462 0.22445 0.0
C657 C 0.29604 0.12462 0.25084 0.0
C658 C 0.3219 0.10994 0.25261 0.0
C659 C 0.33874 0.10535 0.22886 0.0
H660 H 0.133 0.11533 0.4738 0.0
H661 H 0.20142 0.06153 0.4485 0.0
H662 H 0.12097 0.08198 0.51093 0.0
H663 H 0.18881 0.02783 0.48494 0.0
H664 H 0.13197 0.96139 0.53209 0.0
H665 H 0.14353 0.99533 0.49552 0.0
H666 H 0.14639 0.06142 0.55673 0.0
H667 H 0.13633 0.02728 0.59346 0.0
C668 C 0.1456 0.09651 0.47626 0.0
C669 C 0.16838 0.09135 0.45826 0.0
C670 C 0.13865 0.07733 0.4975 0.0
C671 C 0.15376 0.05203 0.50085 0.0
C672 C 0.17654 0.04691 0.48284 0.0
C673 C 0.18392 0.0664 0.46208 0.0
C674 C 0.135 0.9831 0.53783 0.0
C675 C 0.13328 0.99142 0.56591 0.0
C676 C 0.14173 1.00261 0.51681 0.0
C677 C 0.14599 0.0312 0.52311 0.0
C678 C 0.14318 0.03967 0.55104 0.0
C679 C 0.13732 0.02004 0.57211 0.0
H680 H 0.30103 0.87317 0.79134 0.0
H681 H 0.24376 0.92051 0.84252 0.0
H682 H 0.27045 0.88088 0.75084 0.0
H683 H 0.21244 0.92694 0.80254 0.0
H684 H 0.15268 0.90234 0.72556 0.0
H685 H 0.18241 0.89365 0.76665 0.0
H686 H 0.25343 0.92852 0.72347 0.0
H687 H 0.22362 0.93812 0.68293 0.0
C688 C 0.28188 0.88499 0.79404 0.0
C689 C 0.27527 0.89645 0.82024 0.0
C690 C 0.26426 0.88942 0.77082 0.0
C691 C 0.2389 0.90463 0.77332 0.0
C692 C 0.23167 0.91504 0.79979 0.0
C693 C 0.24967 0.91125 0.82277 0.0
C694 C 0.17458 0.90835 0.72492 0.0
C695 C 0.18562 0.92111 0.70089 0.0
C696 C 0.19164 0.90336 0.74847 0.0
C697 C 0.22044 0.9102 0.74838 0.0
C698 C 0.23147 0.92274 0.72426 0.0
C699 C 0.21428 0.92841 0.70104 0.0
H700 H 0.314 0.94936 0.96947 0.0
H701 H 0.39718 0.96504 0.93798 0.0
H702 H 0.32405 0.97879 1.0101 0.0
H703 H 0.40777 0.99339 0.9788 0.0
H704 H 0.41075 0.06513 0.0424 0.0
H705 H 0.40045 0.03621 1.00159 0.0
H706 H 0.3485 0.98259 0.05234 0.0
H707 H 0.35806 0.01217 0.09255 0.0
C708 C 0.33455 0.95881 0.97138 0.0
C709 C 0.35474 0.95475 0.95041 0.0
C710 C 0.34046 0.97566 0.99481 0.0
C711 C 0.36686 0.98877 0.99812 0.0
C712 C 0.38705 0.98432 0.9771 0.0
C713 C 0.38104 0.96774 0.95365 0.0
C714 C 0.39724 0.04712 0.04478 0.0
C715 C 0.38521 0.04116 0.0708 0.0
C716 C 0.39135 0.03031 1.02135 0.0
C717 C 0.37342 1.00679 1.02325 0.0
C718 C 0.36195 1.00062 0.04957 0.0
C719 C 0.36778 0.01746 0.07288 0.0
H720 H 0.33808 0.88037 0.35837 0.0
H721 H 0.29339 0.95807 0.37198 0.0
H722 H 0.30635 0.86913 0.31964 0.0
H723 H 0.26134 0.94659 0.33379 0.0
H724 H 0.19037 0.89911 0.28781 0.0
H725 H 0.22356 0.90968 0.32484 0.0
H726 H 0.29227 0.88756 0.27055 0.0
H727 H 0.25867 0.87714 0.23312 0.0
C728 C 0.32164 0.89517 0.35295 0.0
C729 C 0.31844 0.92022 0.36822 0.0
C730 C 0.30344 0.88873 0.33074 0.0
C731 C 0.28112 0.90686 0.32359 0.0
C732 C 0.2781 0.932 0.3388 0.0
C733 C 0.29662 0.93869 0.3606 0.0
C734 C 0.21238 0.89579 0.28378 0.0
C735 C 0.22164 0.88646 0.25754 0.0
C736 C 0.23158 0.90235 0.30502 0.0
C737 C 0.26071 0.89944 0.30084 0.0
C738 C 0.27002 0.88981 0.27466 0.0
C739 C 0.25076 0.88385 0.25319 0.0
H740 H 0.34459 0.02509 0.47729 0.0
H741 H 0.40349 0.97594 0.52492 0.0
H742 H 0.33581 0.05496 0.51756 0.0
H743 H 0.39397 1.00506 0.56586 0.0
H744 H 0.38937 0.07681 0.62878 0.0
H745 H 0.39979 0.04907 0.5874 0.0
H746 H 0.31327 0.05684 0.56135 0.0
H747 H 0.30322 0.08551 0.60257 0.0
C748 C 0.35587 0.02073 0.49639 0.0
C749 C 0.37468 0.99788 0.49785 0.0
C750 C 0.35051 0.03772 0.51974 0.0
C751 C 0.36385 0.03254 0.54541 0.0
C752 C 0.38332 0.01008 0.54658 0.0
C753 C 0.38872 0.99313 0.52313 0.0
C754 C 0.37258 0.07277 0.61412 0.0
C755 C 0.34545 0.08355 0.61902 0.0
C756 C 0.37851 0.05655 0.59038 0.0
C757 C 0.35746 0.05037 0.57071 0.0
C758 C 0.33027 0.06136 0.5756 0.0
C759 C 0.32439 0.07777 0.59936 0.0
H760 H 0.1878 0.14447 0.88489 0.0
H761 H 0.17554 0.06041 0.85418 0.0
H762 H 0.21678 0.15537 0.84453 0.0
H763 H 0.20527 0.07095 0.81389 0.0
H764 H 0.23838 0.10533 0.73135 0.0
H765 H 0.20855 0.09555 0.77127 0.0
H766 H 0.26081 0.14854 0.8224 0.0
H767 H 0.29037 0.15876 0.78191 0.0
C768 C 0.19127 0.12823 0.86946 0.0
C769 C 0.17906 0.10155 0.87286 0.0
C770 C 0.20823 0.13443 0.84628 0.0
C771 C 0.21374 0.11417 0.82554 0.0
C772 C 0.20136 0.08743 0.82895 0.0
C773 C 0.18429 0.08125 0.85219 0.0
C774 C 0.24339 0.11523 0.75102 0.0
C775 C 0.26692 0.13294 0.75321 0.0
C776 C 0.22635 0.1093 0.77418 0.0
C777 C 0.23203 0.12097 0.80055 0.0
C778 C 0.25532 0.13924 0.80259 0.0
C779 C 0.27244 0.14514 0.77931 0.0
H780 H 0.18887 0.91973 0.10482 0.0
H781 H 0.1053 0.93907 0.13357 0.0
H782 H 0.18229 0.9516 0.06544 0.0
H783 H 0.09807 0.96995 0.09381 0.0
H784 H 0.1011 0.04448 1.03386 0.0
H785 H 0.10806 0.01303 0.07348 0.0
H786 H 0.16112 0.95992 1.02268 0.0
H787 H 0.15512 0.99216 0.98386 0.0
C788 C 0.16893 0.9305 0.10251 0.0
C789 C 0.14766 0.92677 0.12241 0.0
C790 C 0.16502 0.9488 0.07977 0.0
C791 C 0.13956 0.96376 0.07605 0.0
C792 C 0.11819 0.95952 0.09591 0.0
C793 C 0.12223 0.94148 0.11872 0.0
C794 C 0.11428 0.02613 1.03127 0.0
C795 C 0.12757 0.02102 1.00565 0.0
C796 C 0.11817 0.0078 0.05398 0.0
C797 C 0.13528 0.98356 0.05171 0.0
C798 C 0.14822 0.97841 1.0258 0.0
C799 C 0.14448 0.99683 1.00325 0.0
H800 H 0.80141 0.86008 0.77743 0.0
H801 H 0.74337 0.90494 0.72482 0.0
H802 H 0.77186 0.87059 0.81798 0.0
H803 H 0.71349 0.91484 0.76506 0.0
H804 H 0.65481 0.9033 0.84295 0.0
H805 H 0.68272 0.89124 0.80158 0.0
H806 H 0.75834 0.91461 0.84506 0.0
H807 H 0.7305 0.92696 0.8861 0.0
C808 C 0.78221 0.87186 0.77444 0.0
C809 C 0.77501 0.88181 0.74783 0.0
C810 C 0.76528 0.87803 0.79771 0.0
C811 C 0.74027 0.89377 0.79494 0.0
C812 C 0.73244 0.90256 0.76807 0.0
C813 C 0.74961 0.89681 0.74493 0.0
C814 C 0.67736 0.90612 0.84356 0.0
C815 C 0.69033 0.91624 0.86787 0.0
C816 C 0.69339 0.89917 0.81985 0.0
C817 C 0.72291 0.90166 0.81997 0.0
C818 C 0.73577 0.91199 0.84426 0.0
C819 C 0.71973 0.91932 0.86775 0.0
H820 H 0.86018 1.00275 0.47835 0.0
H821 H 0.9116 0.05416 0.53146 0.0
H822 H 0.85027 0.97155 0.51706 0.0
H823 H 0.90091 0.02343 0.5709 0.0
H824 H 0.89745 0.94876 0.63081 0.0
H825 H 0.90838 0.9792 0.59164 0.0
H826 H 0.82503 0.96607 0.55875 0.0
H827 H 0.81454 0.93474 0.59778 0.0
C828 C 0.86952 0.00741 0.49837 0.0
C829 C 0.88672 0.03118 0.50168 0.0
C830 C 0.86348 0.98958 0.52082 0.0
C831 C 0.87447 0.99474 0.54755 0.0
C832 C 0.89214 0.01834 0.55075 0.0
C833 C 0.89821 0.03621 0.52814 0.0
C834 C 0.88147 0.95219 0.61511 0.0
C835 C 0.85512 0.93907 0.61746 0.0
C836 C 0.88768 0.96999 0.59265 0.0
C837 C 0.86769 0.9755 0.5717 0.0
C838 C 0.84128 0.9622 0.57404 0.0
C839 C 0.83513 0.9442 0.59653 0.0
H840 H 0.76519 0.10208 0.23321 0.0
H841 H 0.723 0.1685 0.27769 0.0
H842 H 0.79533 0.09344 0.27295 0.0
H843 H 0.75457 0.16151 0.31714 0.0
H844 H 0.79572 0.12681 0.39485 0.0
H845 H 0.76622 0.13563 0.35468 0.0
H846 H 0.832 0.1038 0.30098 0.0
H847 H 0.86063 0.09316 0.3419 0.0
C848 C 0.76278 0.11536 0.25136 0.0
C849 C 0.74156 0.136 0.2522 0.0
C850 C 0.78034 0.1105 0.27435 0.0
C851 C 0.77786 0.12662 0.29887 0.0
C852 C 0.75706 0.14797 0.29923 0.0
C853 C 0.73901 0.15235 0.27639 0.0
C854 C 0.80386 0.12159 0.37443 0.0
C855 C 0.83056 0.10917 0.37167 0.0
C856 C 0.78694 0.12697 0.35112 0.0
C857 C 0.79634 0.12077 0.32395 0.0
C858 C 0.82338 0.10853 0.32128 0.0
C859 C 0.84008 0.10254 0.3448 0.0
H860 H 0.60843 0.97567 1.02277 0.0
H861 H 0.69421 0.99277 1.00014 0.0
H862 H 0.61193 0.00927 0.06116 0.0
H863 H 0.6982 0.02562 1.03877 0.0
H864 H 0.69232 0.1008 0.09717 0.0
H865 H 0.6864 0.0697 0.05697 0.0
H866 H 0.63073 0.01745 0.10523 0.0
H867 H 0.63585 0.04907 0.14461 0.0
C868 C 0.62814 0.98638 1.02619 0.0
C869 C 0.65106 0.98138 1.00845 0.0
C870 C 0.63025 1.0057 0.0483 0.0
C871 C 0.65542 0.02049 0.05341 0.0
C872 C 0.67828 0.01529 1.03549 0.0
C873 C 0.67608 0.99617 1.01335 0.0
C874 C 0.67865 0.0828 0.09901 0.0
C875 C 0.66458 0.0775 0.12414 0.0
C876 C 0.67538 0.06471 0.07601 0.0
C877 C 0.65809 0.04069 0.07754 0.0
C878 C 0.64384 0.03577 0.10274 0.0
C879 C 0.64696 0.05391 0.12555 0.0
H880 H 0.747 0.09338 0.84081 0.0
H881 H 0.79164 0.15541 0.79314 0.0
H882 H 0.71642 0.08415 0.80147 0.0
H883 H 0.76077 0.14606 0.75313 0.0
H884 H 0.68047 0.14154 0.69782 0.0
H885 H 0.7123 0.15133 0.73649 0.0
H886 H 0.71552 0.06291 0.75583 0.0
H887 H 0.68335 0.05325 0.71716 0.0
C888 C 0.7503 0.10522 0.82187 0.0
C889 C 0.77203 0.12514 0.82026 0.0
C890 C 0.73279 0.09966 0.79907 0.0
C891 C 0.73599 0.11411 0.77378 0.0
C892 C 0.75743 0.13452 0.77223 0.0
C893 C 0.77528 0.13988 0.79514 0.0
C894 C 0.6878 0.12417 0.71044 0.0
C895 C 0.67902 0.09659 0.70446 0.0
C896 C 0.70637 0.12978 0.73252 0.0
C897 C 0.71671 0.10801 0.74954 0.0
C898 C 0.70782 0.08037 0.74355 0.0
C899 C 0.68933 0.07475 0.72132 0.0
H900 H 0.60508 0.04746 0.54075 0.0
H901 H 0.64842 0.98834 0.59326 0.0
H902 H 0.61399 0.01714 0.50019 0.0
H903 H 0.65586 0.95732 0.55315 0.0
H904 H 0.6268 0.90141 0.47171 0.0
H905 H 0.61696 0.93115 0.51259 0.0
H906 H 0.66851 0.99651 0.4781 0.0
H907 H 0.67931 0.96647 0.43791 0.0
C908 C 0.61628 0.02799 0.54373 0.0
C909 C 0.62622 0.02071 0.57035 0.0
C910 C 0.62136 0.01052 0.52048 0.0
C911 C 0.63567 0.98473 0.52337 0.0
C912 C 0.64471 0.97694 0.55014 0.0
C913 C 0.64036 0.99478 0.57317 0.0
C914 C 0.63625 0.92201 0.47296 0.0
C915 C 0.65407 0.93136 0.45153 0.0
C916 C 0.63055 0.93908 0.49637 0.0
C917 C 0.64179 0.96633 0.49858 0.0
C918 C 0.65937 0.97575 0.47702 0.0
C919 C 0.66569 0.95842 0.45405 0.0
H920 H 0.84988 0.89725 0.22591 0.0
H921 H 0.77598 0.91148 0.17595 0.0
H922 H 0.82008 0.88882 0.26671 0.0
H923 H 0.74622 0.90271 0.21651 0.0
H924 H 0.70296 0.85404 0.28884 0.0
H925 H 0.73306 0.8623 0.24823 0.0
H926 H 0.78646 0.91516 0.29818 0.0
H927 H 0.756 0.90742 0.33836 0.0
C928 C 0.82729 0.8987 0.22366 0.0
C929 C 0.81537 0.90519 0.19766 0.0
C930 C 0.81017 0.8939 0.24705 0.0
C931 C 0.78064 0.89493 0.24497 0.0
C932 C 0.7688 0.90141 0.2189 0.0
C933 C 0.7859 0.90666 0.19566 0.0
C934 C 0.72104 0.86747 0.29107 0.0
C935 C 0.72688 0.88014 0.31684 0.0
C936 C 0.73832 0.87227 0.2678 0.0
C937 C 0.76228 0.88946 0.26982 0.0
C938 C 0.76841 0.90161 0.29582 0.0
C939 C 0.7509 0.89714 0.3189 0.0
H940 H 0.88709 0.079 0.95801 0.0
H941 H 0.79875 0.05988 0.95457 0.0
H942 H 0.89297 0.04564 0.99649 0.0
H943 H 0.8048 0.02587 0.99246 0.0
H944 H 0.83907 0.94253 1.03389 0.0
H945 H 0.83275 0.9779 0.99738 0.0
H946 H 0.87499 0.03902 0.0485 0.0
H947 H 0.88069 1.00374 0.08539 0.0
C948 C 0.86887 0.06785 0.96563 0.0
C949 C 0.8424 0.07229 0.95332 0.0
C950 C 0.87225 0.04872 0.98768 0.0
C951 C 0.84939 0.03294 0.99753 0.0
C952 C 0.82288 0.03752 0.9853 0.0
C953 C 0.81937 0.05717 0.96371 0.0
C954 C 0.84706 0.9635 1.03735 0.0
C955 C 0.86046 0.97026 0.06258 0.0
C956 C 0.84327 0.98383 1.01648 0.0
C957 C 0.85328 0.01137 1.01999 0.0
C958 C 0.86709 0.01802 0.04506 0.0
C959 C 0.87031 0.99783 0.06622 0.0
H960 H 0.70608 0.60084 0.78365 0.0
H961 H 0.76873 0.63794 0.83678 0.0
H962 H 0.7418 0.5923 0.74794 0.0
H963 H 0.80451 0.62963 0.80097 0.0
H964 H 0.85276 0.6368 0.716 0.0
H965 H 0.81826 0.64519 0.75297 0.0
H966 H 0.78448 0.56234 0.73998 0.0
H967 H 0.81924 0.55388 0.70327 0.0
C968 C 0.72745 0.60737 0.78766 0.0
C969 C 0.73443 0.62018 0.81315 0.0
C970 C 0.74805 0.60225 0.76722 0.0
C971 C 0.77625 0.61013 0.77144 0.0
C972 C 0.78309 0.62339 0.79679 0.0
C973 C 0.76255 0.62811 0.81741 0.0
C974 C 0.83824 0.62021 0.72131 0.0
C975 C 0.83899 0.59456 0.70672 0.0
C976 C 0.81839 0.62503 0.74255 0.0
C977 C 0.79832 0.60454 0.74954 0.0
C978 C 0.79931 0.57877 0.73508 0.0
C979 C 0.81946 0.57379 0.71416 0.0
H980 H 0.70415 0.54152 0.9318 0.0
H981 H 0.64402 0.59766 0.96959 0.0
H982 H 0.69797 0.50838 0.97001 0.0
H983 H 0.63705 0.56426 1.00749 0.0
H984 H 0.64965 0.50985 0.08517 0.0
H985 H 0.6566 0.5436 0.04769 0.0
H986 H 0.66674 0.47526 0.98931 0.0
H987 H 0.66092 0.44163 1.02719 0.0
C988 C 0.68966 0.54683 0.94837 0.0
C989 C 0.67473 0.57235 0.9477 0.0
C990 C 0.68584 0.52764 0.97022 0.0
C991 C 0.66682 0.5333 0.99204 0.0
C992 C 0.65216 0.5591 0.99143 0.0
C993 C 0.65609 0.57834 0.96961 0.0
C994 C 0.65327 0.50204 0.0643 0.0
C995 C 0.65452 0.47299 0.05921 0.0
C996 C 0.65712 0.52145 0.04266 0.0
C997 C 0.66229 0.51243 1.01518 0.0
C998 C 0.66325 0.48324 1.01012 0.0
C999 C 0.65952 0.46383 1.03183 0.0
H1000 H 0.67829 0.39245 0.2205 0.0
H1001 H 0.73888 0.44224 0.17621 0.0
H1002 H 0.7112 0.38721 0.25919 0.0
H1003 H 0.77139 0.43827 0.21518 0.0
H1004 H 0.83595 0.40532 0.2764 0.0
H1005 H 0.80252 0.40957 0.23835 0.0
H1006 H 0.73409 0.40658 0.29735 0.0
H1007 H 0.76787 0.40034 0.33517 0.0
C1008 C 0.69851 0.40266 0.21922 0.0
C1009 C 0.70587 0.41779 0.19521 0.0
C1010 C 0.71749 0.39978 0.24155 0.0
C1011 C 0.7444 0.41215 0.2407 0.0
C1012 C 0.75134 0.42779 0.21673 0.0
C1013 C 0.7325 0.43038 0.19434 0.0
C1014 C 0.81376 0.40495 0.2812 0.0
C1015 C 0.80469 0.40182 0.30887 0.0
C1016 C 0.79439 0.40796 0.25931 0.0
C1017 C 0.76518 0.40855 0.26433 0.0
C1018 C 0.7562 0.40575 0.29222 0.0
C1019 C 0.77564 0.40239 0.31408 0.0
H1020 H 0.9226 0.55205 0.54465 0.0
H1021 H 0.86215 0.50039 0.58697 0.0
H1022 H 0.91629 0.52405 0.5022 0.0
H1023 H 0.85561 0.47263 0.5449 0.0
H1024 H 0.86963 0.41056 0.47327 0.0
H1025 H 0.87742 0.43855 0.51524 0.0
H1026 H 0.88356 0.51335 0.465 0.0
H1027 H 0.87612 0.48512 0.42305 0.0
C1028 C 0.90801 0.53472 0.54492 0.0
C1029 C 0.89301 0.52849 0.56934 0.0
C1030 C 0.90422 0.51868 0.5205 0.0
C1031 C 0.88544 0.49579 0.51985 0.0
C1032 C 0.87062 0.48963 0.54445 0.0
C1033 C 0.87434 0.50567 0.56871 0.0
C1034 C 0.87256 0.43299 0.47119 0.0
C1035 C 0.87209 0.44553 0.44472 0.0
C1036 C 0.87694 0.44916 0.49534 0.0
C1037 C 0.88113 0.47845 0.49382 0.0
C1038 C 0.88078 0.49092 0.46722 0.0
C1039 C 0.87627 0.47473 0.44308 0.0
H1040 H 0.72177 0.44297 0.76001 0.0
H1041 H 0.71826 0.35444 0.77804 0.0
H1042 H 0.75578 0.4495 0.79733 0.0
H1043 H 0.7523 0.36096 0.81592 0.0
H1044 H 0.83575 0.37967 0.86294 0.0
H1045 H 0.80202 0.37232 0.82507 0.0
H1046 H 0.75975 0.44942 0.84748 0.0
H1047 H 0.7935 0.45671 0.88507 0.0
C1048 C 0.72817 0.42485 0.77208 0.0
C1049 C 0.71712 0.39819 0.76603 0.0
C1050 C 0.74765 0.42863 0.79368 0.0
C1051 C 0.75696 0.40582 0.80991 0.0
C1052 C 0.74592 0.37904 0.80381 0.0
C1053 C 0.72617 0.37529 0.78223 0.0
C1054 C 0.81943 0.39519 0.85955 0.0
C1055 C 0.81755 0.41894 0.87692 0.0
C1056 C 0.79985 0.39082 0.83799 0.0
C1057 C 0.77795 0.41021 0.83302 0.0
C1058 C 0.7764 0.43413 0.85029 0.0
C1059 C 0.79579 0.43835 0.87194 0.0
H1060 H 0.86353 0.52721 0.16076 0.0
H1061 H 0.84753 0.5999 0.10971 0.0
H1062 H 0.86793 0.4981 0.11891 0.0
H1063 H 0.85154 0.57074 0.06779 0.0
H1064 H 0.82796 0.50166 1.00305 0.0
H1065 H 0.82522 0.53143 0.04444 0.0
H1066 H 0.89986 0.49176 0.07708 0.0
H1067 H 0.90296 0.46244 1.03515 0.0
C1068 C 0.86088 0.53697 0.14058 0.0
C1069 C 0.85509 0.56589 0.13859 0.0
C1070 C 0.86358 0.5203 0.11656 0.0
C1071 C 0.86011 0.532 0.08988 0.0
C1072 C 0.85415 0.56094 0.08795 0.0
C1073 C 0.85192 0.5777 0.11198 0.0
C1074 C 0.8439 0.49936 1.01898 0.0
C1075 C 0.86557 0.47943 1.01586 0.0
C1076 C 0.84237 0.51653 0.04271 0.0
C1077 C 0.86226 0.51403 0.06424 0.0
C1078 C 0.88399 0.49408 0.0611 0.0
C1079 C 0.88578 0.47722 1.03708 0.0
H1080 H 0.81698 0.59989 0.30258 0.0
H1081 H 0.75428 0.62834 0.2442 0.0
H1082 H 0.78047 0.593 0.33779 0.0
H1083 H 0.71773 0.62201 0.27969 0.0
H1084 H 0.66982 0.63608 0.36583 0.0
H1085 H 0.7045 0.64307 0.32869 0.0
H1086 H 0.73732 0.55984 0.34309 0.0
H1087 H 0.70226 0.55259 0.37965 0.0
C1088 C 0.79542 0.60492 0.29734 0.0
C1089 C 0.78854 0.6147 0.27057 0.0
C1090 C 0.77447 0.60079 0.31746 0.0
C1091 C 0.74612 0.60684 0.31155 0.0
C1092 C 0.73934 0.61723 0.28496 0.0
C1093 C 0.76025 0.6208 0.26462 0.0
C1094 C 0.68414 0.61912 0.36073 0.0
C1095 C 0.68313 0.5937 0.37557 0.0
C1096 C 0.70403 0.62314 0.33948 0.0
C1097 C 0.72383 0.60208 0.33302 0.0
C1098 C 0.72255 0.57656 0.34768 0.0
C1099 C 0.7023 0.57233 0.36848 0.0
H1100 H 0.6965 0.44315 0.62007 0.0
H1101 H 0.60717 0.43014 0.62627 0.0
H1102 H 0.6888 0.47507 0.5807 0.0
H1103 H 0.59942 0.46213 0.58722 0.0
H1104 H 0.59628 0.54428 0.5338 0.0
H1105 H 0.60368 0.51347 0.57431 0.0
H1106 H 0.67224 0.47258 0.53154 0.0
H1107 H 0.66463 0.50274 0.49141 0.0
C1108 C 0.67525 0.44696 0.61294 0.0
C1109 C 0.65251 0.43386 0.6262 0.0
C1110 C 0.67079 0.46528 0.59038 0.0
C1111 C 0.64342 0.47134 0.58074 0.0
C1112 C 0.62072 0.45829 0.59418 0.0
C1113 C 0.62522 0.43969 0.61643 0.0
C1114 C 0.61277 0.52857 0.53308 0.0
C1115 C 0.62966 0.52587 0.50923 0.0
C1116 C 0.61704 0.51089 0.55625 0.0
C1117 C 0.63865 0.49047 0.5563 0.0
C1118 C 0.6556 0.48811 0.53248 0.0
C1119 C 0.65102 0.50533 0.50928 0.0
H1120 H 0.22054 0.47312 0.38021 0.0
H1121 H 0.18443 0.39178 0.36466 0.0
H1122 H 0.25393 0.46558 0.3421 0.0
H1123 H 0.21745 0.38446 0.32607 0.0
H1124 H 0.26406 0.39794 0.24029 0.0
H1125 H 0.22956 0.40479 0.2777 0.0
H1126 H 0.29558 0.43266 0.33247 0.0
H1127 H 0.33003 0.42537 0.29529 0.0
C1128 C 0.21947 0.45377 0.36842 0.0
C1129 C 0.19966 0.43313 0.37546 0.0
C1130 C 0.23878 0.44934 0.34668 0.0
C1131 C 0.23854 0.42435 0.33096 0.0
C1132 C 0.2182 0.40401 0.33756 0.0
C1133 C 0.19925 0.40821 0.35969 0.0
C1134 C 0.27121 0.40538 0.26037 0.0
C1135 C 0.29986 0.41101 0.26475 0.0
C1136 C 0.25144 0.40924 0.28186 0.0
C1137 C 0.25967 0.41943 0.30816 0.0
C1138 C 0.28837 0.42506 0.31247 0.0
C1139 C 0.30818 0.42069 0.29117 0.0
H1140 H 0.37267 0.42523 0.10197 0.0
H1141 H 0.35894 0.49799 0.15372 0.0
H1142 H 0.38213 0.45577 0.06218 0.0
H1143 H 0.36801 0.52861 0.11394 0.0
H1144 H 0.41308 0.57598 0.0434 0.0
H1145 H 0.40532 0.54486 0.08329 0.0
H1146 H 0.35961 0.48782 1.03029 0.0
H1147 H 0.3676 0.51869 0.99076 0.0
C1148 C 0.37142 0.44776 0.10479 0.0
C1149 C 0.36491 0.45912 0.13102 0.0
C1150 C 0.37681 0.46535 0.08193 0.0
C1151 C 0.37599 0.49484 0.08468 0.0
C1152 C 0.3693 0.50611 0.11099 0.0
C1153 C 0.36382 0.48851 0.13379 0.0
C1154 C 0.40163 0.55667 0.0403 0.0
C1155 C 0.39102 0.54991 1.01385 0.0
C1156 C 0.39694 0.53888 0.06321 0.0
C1157 C 0.38173 0.51367 0.0602 0.0
C1158 C 0.37173 0.50672 1.03352 0.0
C1159 C 0.37632 0.52452 1.01075 0.0
H1160 H 0.22024 0.6701 0.78847 0.0
H1161 H 0.27577 0.61823 0.73961 0.0
H1162 H 0.25047 0.66352 0.82904 0.0
H1163 H 0.3069 0.61276 0.77944 0.0
H1164 H 0.34328 0.58381 0.86309 0.0
H1165 H 0.31362 0.59078 0.82206 0.0
H1166 H 0.29231 0.67406 0.85125 0.0
H1167 H 0.32083 0.66635 0.89259 0.0
C1168 C 0.23911 0.65759 0.78632 0.0
C1169 C 0.24541 0.64462 0.7608 0.0
C1170 C 0.25671 0.65391 0.80958 0.0
C1171 C 0.28143 0.63744 0.80794 0.0
C1172 C 0.28795 0.6251 0.78204 0.0
C1173 C 0.27021 0.62856 0.75894 0.0
C1174 C 0.33235 0.60362 0.86057 0.0
C1175 C 0.33441 0.62446 0.88117 0.0
C1176 C 0.31534 0.60777 0.83692 0.0
C1177 C 0.30016 0.63305 0.833 0.0
C1178 C 0.30292 0.65406 0.85349 0.0
C1179 C 0.31959 0.64975 0.87721 0.0
H1180 H 0.20758 0.59423 0.61021 0.0
H1181 H 0.12585 0.57425 0.64301 0.0
H1182 H 0.19822 0.56467 0.56952 0.0
H1183 H 0.11598 0.54559 0.60216 0.0
H1184 H 0.11662 0.47398 0.53749 0.0
H1185 H 0.12568 0.503 0.57866 0.0
H1186 H 0.17244 0.56111 0.52784 0.0
H1187 H 0.16405 0.53177 0.48731 0.0
C1188 C 0.18748 0.58381 0.60858 0.0
C1189 C 0.16748 0.58675 0.62989 0.0
C1190 C 0.18198 0.56686 0.58513 0.0
C1191 C 0.1562 0.55252 0.58219 0.0
C1192 C 0.13622 0.55574 0.60359 0.0
C1193 C 0.14181 0.57248 0.62703 0.0
C1194 C 0.1286 0.49308 0.53515 0.0
C1195 C 0.13958 0.50041 0.50902 0.0
C1196 C 0.13382 0.50987 0.55879 0.0
C1197 C 0.15006 0.53459 0.55694 0.0
C1198 C 0.16035 0.54212 0.53053 0.0
C1199 C 0.15518 0.52538 0.50705 0.0
H1200 H 0.21534 0.61709 0.18924 0.0
H1201 H 0.16633 0.55733 0.23563 0.0
H1202 H 0.24545 0.6245 0.22936 0.0
H1203 H 0.19646 0.56511 0.27648 0.0
H1204 H 0.27645 0.56489 0.33309 0.0
H1205 H 0.24377 0.55696 0.29449 0.0
H1206 H 0.24659 0.64527 0.27452 0.0
H1207 H 0.27921 0.65296 0.31293 0.0
C1208 C 0.21084 0.60561 0.20816 0.0
C1209 C 0.18835 0.58659 0.20916 0.0
C1210 C 0.22809 0.61003 0.23136 0.0
C1211 C 0.2235 0.59557 0.25645 0.0
C1212 C 0.20088 0.5765 0.25752 0.0
C1213 C 0.18345 0.57214 0.23417 0.0
C1214 C 0.27001 0.58259 0.32044 0.0
C1215 C 0.28085 0.60948 0.3258 0.0
C1216 C 0.25111 0.57808 0.29837 0.0
C1217 C 0.24253 0.60039 0.28104 0.0
C1218 C 0.25303 0.62739 0.28691 0.0
C1219 C 0.27181 0.63186 0.30898 0.0
H1220 H 0.11152 0.43888 0.94507 0.0
H1221 H 0.19353 0.41753 0.97671 0.0
H1222 H 0.10203 0.46676 0.98645 0.0
H1223 H 0.18496 0.44686 1.01763 0.0
H1224 H 0.15565 0.48418 0.09917 0.0
H1225 H 0.16236 0.45322 0.05948 0.0
H1226 H 0.11033 0.50809 1.00946 0.0
H1227 H 0.10194 0.53768 0.05018 0.0
C1228 C 0.12762 0.44026 0.96094 0.0
C1229 C 0.15326 0.42591 0.95764 0.0
C1230 C 0.12231 0.45659 0.98467 0.0
C1231 C 0.14271 0.45957 1.00571 0.0
C1232 C 0.16838 0.4449 1.00237 0.0
C1233 C 0.17346 0.4281 0.97878 0.0
C1234 C 0.14529 0.4894 0.07978 0.0
C1235 C 0.12859 0.51373 0.07772 0.0
C1236 C 0.14951 0.47179 0.05674 0.0
C1237 C 0.13732 0.47802 1.03073 0.0
C1238 C 0.12001 0.50215 1.02896 0.0
C1239 C 0.11547 0.51952 0.05222 0.0
H1240 H 0.32374 0.45252 0.72553 0.0
H1241 H 0.3146 0.36771 0.69584 0.0
H1242 H 0.2933 0.44194 0.765 0.0
H1243 H 0.28593 0.35625 0.73604 0.0
H1244 H 0.21446 0.34723 0.79818 0.0
H1245 H 0.24394 0.35835 0.75812 0.0
H1246 H 0.28646 0.42156 0.80701 0.0
H1247 H 0.25528 0.41198 0.84567 0.0
C1248 C 0.31567 0.43143 0.72778 0.0
C1249 C 0.32164 0.411 0.70754 0.0
C1250 C 0.2982 0.42517 0.7506 0.0
C1251 C 0.28672 0.39804 0.75424 0.0
C1252 C 0.29346 0.37754 0.73408 0.0
C1253 C 0.31032 0.38401 0.71102 0.0
C1254 C 0.22976 0.36386 0.80003 0.0
C1255 C 0.23186 0.37919 0.82488 0.0
C1256 C 0.24719 0.37002 0.77716 0.0
C1257 C 0.26791 0.39119 0.77874 0.0
C1258 C 0.27053 0.4057 0.8042 0.0
C1259 C 0.25278 0.39988 0.82674 0.0
H1260 H 0.4073 0.46568 0.55035 0.0
H1261 H 0.36252 0.52265 0.60433 0.0
H1262 H 0.39893 0.49735 0.51101 0.0
H1263 H 0.35432 0.55433 0.56531 0.0
H1264 H 0.31594 0.58743 0.48257 0.0
H1265 H 0.32657 0.55771 0.52294 0.0
H1266 H 0.4099 0.54268 0.49075 0.0
H1267 H 0.39927 0.57233 0.45073 0.0
C1268 C 0.39616 0.4852 0.55396 0.0
C1269 C 0.38564 0.49149 0.58061 0.0
C1270 C 0.39127 0.50344 0.53135 0.0
C1271 C 0.37565 0.52852 0.53469 0.0
C1272 C 0.36602 0.53516 0.56162 0.0
C1273 C 0.37107 0.51706 0.58418 0.0
C1274 C 0.33656 0.57793 0.48425 0.0
C1275 C 0.3567 0.58238 0.46333 0.0
C1276 C 0.34275 0.56085 0.50746 0.0
C1277 C 0.36914 0.54743 0.51026 0.0
C1278 C 0.38924 0.55216 0.48932 0.0
C1279 C 0.38318 0.56941 0.46637 0.0
H1280 H 0.11293 0.35106 0.44054 0.0
H1281 H 0.20141 0.36411 0.45425 0.0
H1282 H 0.12343 0.31025 0.41154 0.0
H1283 H 0.21204 0.32233 0.42575 0.0
H1284 H 0.19956 0.22083 0.41915 0.0
H1285 H 0.19718 0.26857 0.43786 0.0
H1286 H 0.15088 0.29542 0.36541 0.0
H1287 H 0.15367 0.24785 0.34633 0.0
C1288 C 0.13469 0.34545 0.43681 0.0
C1289 C 0.15639 0.36058 0.44953 0.0
C1290 C 0.14069 0.32217 0.42019 0.0
C1291 C 0.16851 0.31311 0.41654 0.0
C1292 C 0.1904 0.32895 0.42831 0.0
C1293 C 0.18438 0.35284 0.4444 0.0
C1294 C 0.18924 0.237 0.40701 0.0
C1295 C 0.17663 0.23052 0.38135 0.0
C1296 C 0.18814 0.26436 0.4176 0.0
C1297 C 0.17394 0.28564 0.403 0.0
C1298 C 0.16204 0.27938 0.37699 0.0
C1299 C 0.16365 0.25216 0.36612 0.0
H1300 H 0.05532 0.94761 0.66238 0.0
H1301 H 0.02871 0.89853 0.59156 0.0
H1302 H 0.00859 0.9426 0.68305 0.0
H1303 H 0.98232 0.89303 0.61265 0.0
H1304 H 0.931 0.85416 0.69011 0.0
H1305 H 0.97187 0.86587 0.66163 0.0
H1306 H 0.95258 0.954 0.67047 0.0
H1307 H 0.91093 0.94214 0.69842 0.0
C1308 C 0.03942 0.93609 0.65106 0.0
C1309 C 0.04575 0.92341 0.62536 0.0
C1310 C 0.01266 0.93339 0.66282 0.0
C1311 C 0.99193 0.91745 0.64939 0.0
C1312 C 0.99795 0.90548 0.62335 0.0
C1313 C 0.02449 0.90871 0.61129 0.0
C1314 C 0.9352 0.876 0.68549 0.0
C1315 C 0.91785 0.89726 0.69623 0.0
C1316 C 0.95849 0.88268 0.66917 0.0
C1317 C 0.96531 0.91081 0.6639 0.0
C1318 C 0.94769 0.93215 0.67425 0.0
C1319 C 0.92388 0.9254 0.69005 0.0
H1320 H 0.34651 0.79201 0.848 0.0
H1321 H 0.36666 0.83599 0.92411 0.0
H1322 H 0.34901 0.74723 0.87314 0.0
H1323 H 0.36963 0.79189 0.94866 0.0
H1324 H 0.3477 0.71529 0.99464 0.0
H1325 H 0.33878 0.7561 0.96527 0.0
H1326 H 0.38236 0.71548 0.89726 0.0
H1327 H 0.39047 0.67426 0.92676 0.0
C1328 C 0.35162 0.79215 0.86996 0.0
C1329 C 0.35606 0.81764 0.88407 0.0
C1330 C 0.35306 0.76653 0.88434 0.0
C1331 C 0.35898 0.766 0.91304 0.0
C1332 C 0.36416 0.79149 0.92678 0.0
C1333 C 0.36263 0.81688 0.91257 0.0
C1334 C 0.35471 0.71492 0.9732 0.0
C1335 C 0.36944 0.69174 0.96276 0.0
C1336 C 0.34989 0.73833 0.95643 0.0
C1337 C 0.36029 0.73928 0.92902 0.0
C1338 C 0.37392 0.71538 0.91818 0.0
C1339 C 0.37855 0.69179 0.935 0.0
H1340 H 0.45388 0.1381 0.16922 0.0
H1341 H 0.49041 0.10183 0.0951 0.0
H1342 H 0.50012 0.14052 0.19047 0.0
H1343 H 0.53717 0.10406 0.11684 0.0
H1344 H 0.6045 0.08442 0.1927 0.0
H1345 H 0.56258 0.08148 0.16271 0.0
H1346 H 0.54474 0.16888 0.17879 0.0
H1347 H 0.58626 0.17189 0.20803 0.0
C1348 C 0.47179 0.13063 0.15742 0.0
C1349 C 0.46842 0.11987 0.13041 0.0
C1350 C 0.49833 0.1321 0.16959 0.0
C1351 C 0.52225 0.12256 0.15527 0.0
C1352 C 0.51904 0.11149 0.12834 0.0
C1353 C 0.49236 0.11044 0.11588 0.0
C1354 C 0.59207 0.10312 0.18901 0.0
C1355 C 0.59851 0.12832 0.20278 0.0
C1356 C 0.56807 0.10144 0.172 0.0
C1357 C 0.55022 0.12488 0.16881 0.0
C1358 C 0.55784 0.15039 0.18122 0.0
C1359 C 0.58163 0.15207 0.19797 0.0
H1360 H 0.16626 0.80099 0.14884 0.0
H1361 H 0.17002 0.76311 0.23044 0.0
H1362 H 0.17079 0.7552 0.12752 0.0
H1363 H 0.17554 0.71697 0.20888 0.0
H1364 H 0.14239 0.64021 0.15921 0.0
H1365 H 0.14778 0.68414 0.1842 0.0
H1366 H 0.19965 0.71593 0.11759 0.0
H1367 H 0.19336 0.67192 0.09211 0.0
C1368 C 0.16847 0.78294 0.16234 0.0
C1369 C 0.16752 0.7859 0.19148 0.0
C1370 C 0.17136 0.75653 0.15 0.0
C1371 C 0.1736 0.73219 0.16637 0.0
C1372 C 0.17349 0.73516 0.19556 0.0
C1373 C 0.17042 0.76168 0.20796 0.0
C1374 C 0.15544 0.65635 0.15012 0.0
C1375 C 0.16729 0.65268 0.12357 0.0
C1376 C 0.15863 0.68161 0.16456 0.0
C1377 C 0.17387 0.70389 0.15286 0.0
C1378 C 0.18723 0.69951 0.12701 0.0
C1379 C 0.18388 0.6742 0.11247 0.0
H1380 H 0.56055 0.84468 0.36059 0.0
H1381 H 0.59984 0.92153 0.38773 0.0
H1382 H 0.51869 0.8565 0.38712 0.0
H1383 H 0.55748 0.93327 0.4149 0.0
H1384 H 0.47834 0.92179 0.47791 0.0
H1385 H 0.52437 0.91209 0.45673 0.0
H1386 H 0.48414 0.89803 0.37754 0.0
H1387 H 0.43864 0.90774 0.39819 0.0
C1388 C 0.56035 0.86399 0.37252 0.0
C1389 C 0.58331 0.88235 0.37186 0.0
C1390 C 0.53636 0.87074 0.38768 0.0
C1391 C 0.53477 0.89593 0.40273 0.0
C1392 C 0.55827 0.9137 0.40343 0.0
C1393 C 0.5824 0.90702 0.38792 0.0
C1394 C 0.47939 0.91677 0.45595 0.0
C1395 C 0.45475 0.91541 0.4398 0.0
C1396 C 0.50571 0.91139 0.44387 0.0
C1397 C 0.50768 0.90413 0.4156 0.0
C1398 C 0.48315 0.90332 0.39945 0.0
C1399 C 0.45707 0.909 0.41133 0.0
H1400 H 0.32398 0.33136 0.59224 0.0
H1401 H 0.37845 0.36208 0.65695 0.0
H1402 H 0.31525 0.2889 0.61925 0.0
H1403 H 0.37053 0.31929 0.68384 0.0
H1404 H 0.33873 0.24119 0.73105 0.0
H1405 H 0.33897 0.28784 0.70956 0.0
H1406 H 0.34498 0.24932 0.62835 0.0
H1407 H 0.34423 0.20333 0.64941 0.0
C1408 C 0.3335 0.32925 0.61261 0.0
C1409 C 0.35151 0.35002 0.62274 0.0
C1410 C 0.32881 0.30484 0.62797 0.0
C1411 C 0.34258 0.30043 0.65354 0.0
C1412 C 0.35944 0.32204 0.66436 0.0
C1413 C 0.36397 0.34658 0.64899 0.0
C1414 C 0.34003 0.24275 0.70861 0.0
C1415 C 0.34132 0.21841 0.69202 0.0
C1416 C 0.3402 0.26947 0.69631 0.0
C1417 C 0.34159 0.27237 0.66718 0.0
C1418 C 0.34312 0.24798 0.65077 0.0
C1419 C 0.34294 0.22147 0.66296 0.0
H1420 H 0.05133 0.07167 0.9138 0.0
H1421 H 0.02698 0.12544 0.98209 0.0
H1422 H 1.00463 0.07701 0.89333 0.0
H1423 H 0.98029 0.13139 0.96105 0.0
H1424 H 0.92614 0.16532 0.88272 0.0
H1425 H 0.96691 0.15543 0.91212 0.0
H1426 H 0.95033 0.0667 0.90579 0.0
H1427 H 0.90882 0.07672 0.87687 0.0
C1428 C 0.03592 0.08449 0.92454 0.0
C1429 C 0.04286 0.09823 0.94951 0.0
C1430 C 0.00912 0.08735 0.91291 0.0
C1431 C 0.98883 0.10454 0.92564 0.0
C1432 C 0.99555 0.11795 0.95086 0.0
C1433 C 0.0222 0.11451 0.9629 0.0
C1434 C 0.9309 0.14373 0.88806 0.0
C1435 C 0.91443 0.12176 0.87752 0.0
C1436 C 0.95413 0.1381 0.90498 0.0
C1437 C 0.96181 0.11032 0.91118 0.0
C1438 C 0.94486 0.08831 0.90129 0.0
C1439 C 0.92112 0.09402 0.88487 0.0
H1440 H 0.83461 0.808 0.65454 0.0
H1441 H 0.88194 0.78773 0.72857 0.0
H1442 H 0.84186 0.76011 0.63729 0.0
H1443 H 0.88973 0.74009 0.71087 0.0
H1444 H 0.93011 0.68185 0.63848 0.0
H1445 H 0.91797 0.72472 0.66384 0.0
H1446 H 0.82995 0.70585 0.6545 0.0
H1447 H 0.8422 0.66216 0.62979 0.0
C1448 C 0.8465 0.79333 0.66713 0.0
C1449 C 0.85782 0.80166 0.69285 0.0
C1450 C 0.85039 0.76589 0.65738 0.0
C1451 C 0.86618 0.74646 0.67287 0.0
C1452 C 0.87735 0.75468 0.69865 0.0
C1453 C 0.87291 0.78192 0.70871 0.0
C1454 C 0.90818 0.68654 0.64244 0.0
C1455 C 0.88707 0.66883 0.63225 0.0
C1456 C 0.90126 0.711 0.65695 0.0
C1457 C 0.87306 0.71859 0.66094 0.0
C1458 C 0.85185 0.70041 0.65158 0.0
C1459 C 0.85883 0.67544 0.63765 0.0
H1460 H 0.0834 0.18707 0.37885 0.0
H1461 H 0.10798 0.09996 0.38433 0.0
H1462 H 0.04065 0.17697 0.40535 0.0
H1463 H 0.06456 0.0897 0.41 0.0
H1464 H 0.96139 0.09121 0.40844 0.0
H1465 H 0.00825 0.09917 0.38912 0.0
H1466 H 0.02852 0.15218 0.45898 0.0
H1467 H 0.98186 0.14347 0.47898 0.0
C1468 C 0.07976 0.16583 0.38597 0.0
C1469 C 0.09891 0.14428 0.37951 0.0
C1470 C 0.05538 0.1601 0.40116 0.0
C1471 C 0.04937 0.13258 0.40959 0.0
C1472 C 0.06879 0.11109 0.40369 0.0
C1473 C 0.09359 0.11696 0.3891 0.0
C1474 C 0.97589 0.1044 0.41981 0.0
C1475 C 0.96792 0.11678 0.4452 0.0
C1476 C 1.00273 0.10878 0.40883 0.0
C1477 C 0.02193 0.12618 0.42265 0.0
C1478 C 0.01407 0.13858 0.44803 0.0
C1479 C 0.98744 0.13358 0.45943 0.0
H1480 H 0.57635 0.32289 0.11953 0.0
H1481 H 0.65185 0.35717 0.15551 0.0
H1482 H 0.58325 0.27979 0.14642 0.0
H1483 H 0.65877 0.3144 0.18222 0.0
H1484 H 0.65722 0.23672 0.23676 0.0
H1485 H 0.64135 0.28204 0.21865 0.0
H1486 H 0.61947 0.24261 0.1407 0.0
H1487 H 0.63496 0.1975 0.15869 0.0
C1488 C 0.59397 0.32152 0.13372 0.0
C1489 C 0.61367 0.34328 0.13532 0.0
C1490 C 0.59805 0.2968 0.14894 0.0
C1491 C 0.62176 0.29358 0.16615 0.0
C1492 C 0.64021 0.31627 0.16931 0.0
C1493 C 0.63624 0.34081 0.15398 0.0
C1494 C 0.64892 0.23772 0.2158 0.0
C1495 C 0.6477 0.21353 0.19906 0.0
C1496 C 0.63982 0.26367 0.20546 0.0
C1497 C 0.62903 0.26586 0.17831 0.0
C1498 C 0.62726 0.24156 0.16185 0.0
C1499 C 0.63654 0.21573 0.17206 0.0
H1500 H 0.44099 0.86593 0.86628 0.0
H1501 H 0.40986 0.9506 0.87611 0.0
H1502 H 0.48417 0.8787 0.89036 0.0
H1503 H 0.45306 0.96304 0.90153 0.0
H1504 H 0.56842 0.93048 0.89395 0.0
H1505 H 0.52224 0.92709 0.87216 0.0
H1506 H 0.4827 0.9313 0.95267 0.0
H1507 H 0.52891 0.93432 0.97489 0.0
C1508 C 0.44317 0.88719 0.87398 0.0
C1509 C 0.42182 0.90716 0.86958 0.0
C1510 C 0.4679 0.89444 0.88773 0.0
C1511 C 0.47185 0.92178 0.89769 0.0
C1512 C 0.45032 0.94175 0.89411 0.0
C1513 C 0.42554 0.93456 0.87987 0.0
C1514 C 0.54998 0.93134 0.90711 0.0
C1515 C 0.55256 0.93246 0.93627 0.0
C1516 C 0.52354 0.92941 0.89456 0.0
C1517 C 0.49905 0.92902 0.91078 0.0
C1518 C 0.50132 0.93183 0.93975 0.0
C1519 C 0.52783 0.93344 0.9524 0.0
H1520 H 0.84568 0.35543 0.93212 0.0
H1521 H 0.92454 0.31951 0.95898 0.0
H1522 H 0.83458 0.31187 0.90743 0.0
H1523 H 0.91321 0.27592 0.93475 0.0
H1524 H 0.86375 0.1938 0.92395 0.0
H1525 H 0.87509 0.23925 0.94411 0.0
H1526 H 0.85294 0.27995 0.86695 0.0
H1527 H 0.8417 0.23421 0.84644 0.0
C1528 C 0.86083 0.33842 0.93237 0.0
C1529 C 0.88597 0.34082 0.9475 0.0
C1530 C 0.85445 0.31351 0.91827 0.0
C1531 C 0.87292 0.29046 0.91944 0.0
C1532 C 0.89845 0.29325 0.93382 0.0
C1533 C 0.90498 0.31823 0.94757 0.0
C1534 C 0.86103 0.21239 0.91127 0.0
C1535 C 0.85176 0.21035 0.88357 0.0
C1536 C 0.86779 0.23841 0.92278 0.0
C1537 C 0.86511 0.26307 0.90701 0.0
C1538 C 0.85516 0.26123 0.87955 0.0
C1539 C 0.8488 0.23507 0.86783 0.0
H1540 H 0.40426 0.08306 0.69964 0.0
H1541 H 0.42501 0.17092 0.69447 0.0
H1542 H 0.44705 0.0713 0.67327 0.0
H1543 H 0.46712 0.15931 0.66756 0.0
H1544 H 0.52653 0.12596 0.59801 0.0
H1545 H 0.4801 0.13398 0.61866 0.0
H1546 H 0.5021 0.08017 0.68744 0.0
H1547 H 0.54879 0.0727 0.6673 0.0
C1548 C 0.41764 0.09983 0.69235 0.0
C1549 C 0.41138 0.12789 0.69902 0.0
C1550 C 0.44214 0.09313 0.67744 0.0
C1551 C 0.46036 0.11442 0.66839 0.0
C1552 C 0.45337 0.14251 0.67411 0.0
C1553 C 0.42935 0.14913 0.68955 0.0
C1554 C 0.52137 0.1156 0.61739 0.0
C1555 C 0.5414 0.09877 0.63107 0.0
C1556 C 0.49483 0.12025 0.6292 0.0
C1557 C 0.4875 0.1076 0.65458 0.0
C1558 C 0.50712 0.08997 0.66774 0.0
C1559 C 0.53389 0.08586 0.65629 0.0
H1560 H 0.68298 0.80324 0.41172 0.0
H1561 H 0.62901 0.77666 0.34455 0.0
H1562 H 0.6791 0.75677 0.43299 0.0
H1563 H 0.62458 0.73036 0.36634 0.0
H1564 H 0.5917 0.67929 0.44689 0.0
H1565 H 0.60108 0.7194 0.41667 0.0
H1566 H 0.68984 0.70131 0.42047 0.0
H1567 H 0.68029 0.66032 0.45017 0.0
C1568 C 0.6705 0.7874 0.40138 0.0
C1569 C 0.6562 0.79363 0.37652 0.0
C1570 C 0.66848 0.76076 0.41344 0.0
C1571 C 0.65161 0.74002 0.40124 0.0
C1572 C 0.6378 0.746 0.37608 0.0
C1573 C 0.64037 0.77244 0.36364 0.0
C1574 C 0.61317 0.68357 0.44083 0.0
C1575 C 0.6353 0.66687 0.45087 0.0
C1576 C 0.61851 0.70641 0.42346 0.0
C1577 C 0.64617 0.71344 0.41633 0.0
C1578 C 0.66833 0.69627 0.42572 0.0
C1579 C 0.6629 0.67287 0.44257 0.0
H1580 H 0.97456 0.88982 0.09512 0.0
H1581 H 0.94778 0.94528 0.16104 0.0
H1582 H 0.01828 0.88099 0.11928 0.0
H1583 H 0.9927 0.93854 0.18439 0.0
H1584 H 0.05235 0.88935 0.23924 0.0
H1585 H 0.0135 0.90586 0.21136 0.0
H1586 H 0.06163 0.88959 0.13656 0.0
H1587 H 0.09943 0.87006 0.16498 0.0
C1588 C 0.97854 0.90106 0.11432 0.0
C1589 C 0.95762 0.9181 0.12629 0.0
C1590 C 1.00382 0.89603 0.12829 0.0
C1591 C 0.0092 0.90847 0.15435 0.0
C1592 C 0.98913 0.92757 0.165 0.0
C1593 C 0.96345 0.93189 0.15141 0.0
C1594 C 0.05464 0.88929 0.21681 0.0
C1595 C 0.07915 0.87879 0.20432 0.0
C1596 C 0.03239 0.89926 0.20066 0.0
C1597 C 0.03413 0.89961 0.1714 0.0
C1598 C 0.05907 0.88949 0.15892 0.0
C1599 C 0.08108 0.87872 0.1752 0.0
H1600 H 0.67448 0.70187 0.92284 0.0
H1601 H 0.67341 0.73833 0.84047 0.0
H1602 H 0.65898 0.74636 0.94241 0.0
H1603 H 0.65825 0.78319 0.86048 0.0
H1604 H 0.65831 0.86417 0.91867 0.0
H1605 H 0.67499 0.82176 0.89525 0.0
H1606 H 0.61182 0.77342 0.93787 0.0
H1607 H 0.59467 0.81611 0.96089 0.0
C1608 C 0.67159 0.71947 0.90888 0.0
C1609 C 0.67508 0.71629 0.87993 0.0
C1610 C 0.66235 0.74492 0.92016 0.0
C1611 C 0.6568 0.76803 0.90291 0.0
C1612 C 0.66217 0.76561 0.87424 0.0
C1613 C 0.67102 0.73994 0.86282 0.0
C1614 C 0.64751 0.84464 0.92251 0.0
C1615 C 0.62506 0.84351 0.9415 0.0
C1616 C 0.65716 0.82034 0.90917 0.0
C1617 C 0.64493 0.79426 0.91497 0.0
C1618 C 0.62187 0.79324 0.93328 0.0
C1619 C 0.61188 0.81767 0.94625 0.0
H1620 H 0.57444 0.44815 0.1668 0.0
H1621 H 0.54017 0.41173 0.0919 0.0
H1622 H 0.52976 0.44106 0.19033 0.0
H1623 H 0.49582 0.40354 0.11574 0.0
H1624 H 0.41416 0.39906 0.16695 0.0
H1625 H 0.45333 0.41805 0.13964 0.0
H1626 H 0.50987 0.3991 0.20752 0.0
H1627 H 0.47102 0.38142 0.23459 0.0
C1628 C 0.55717 0.43917 0.15517 0.0
C1629 C 0.561 0.43026 0.12758 0.0
C1630 C 0.53161 0.4348 0.16874 0.0
C1631 C 0.50938 0.42091 0.15522 0.0
C1632 C 0.51241 0.41425 0.12685 0.0
C1633 C 0.53791 0.41901 0.11314 0.0
C1634 C 0.43495 0.39923 0.17591 0.0
C1635 C 0.43945 0.38899 0.20294 0.0
C1636 C 0.45743 0.41001 0.16031 0.0
C1637 C 0.4848 0.41063 0.17152 0.0
C1638 C 0.48908 0.39986 0.19842 0.0
C1639 C 0.46677 0.38932 0.21387 0.0
H1640 H 0.84671 0.32105 0.4238 0.0
H1641 H 0.84096 0.27942 0.34408 0.0
H1642 H 0.84927 0.27604 0.44682 0.0
H1643 H 0.84234 0.23398 0.36739 0.0
H1644 H 0.88992 0.16319 0.41517 0.0
H1645 H 0.87619 0.2054 0.38953 0.0
H1646 H 0.82908 0.23418 0.46114 0.0
H1647 H 0.84421 0.19259 0.48687 0.0
C1648 C 0.84518 0.30229 0.41114 0.0
C1649 C 0.84395 0.30406 0.38195 0.0
C1650 C 0.84653 0.27625 0.42446 0.0
C1651 C 0.84634 0.25109 0.40906 0.0
C1652 C 0.84319 0.25283 0.37997 0.0
C1653 C 0.84208 0.27897 0.36658 0.0
C1654 C 0.87629 0.17846 0.42511 0.0
C1655 C 0.86811 0.17488 0.45287 0.0
C1656 C 0.86823 0.20261 0.41044 0.0
C1657 C 0.85167 0.22358 0.42325 0.0
C1658 C 0.84234 0.21897 0.4507 0.0
C1659 C 0.85074 0.19503 0.46541 0.0
H1660 H 0.99407 0.6271 0.60243 0.0
H1661 H 0.9698 0.57278 0.6701 0.0
H1662 H 0.03974 0.63451 0.62464 0.0
H1663 H 0.01567 0.57977 0.69189 0.0
H1664 H 0.11116 0.58415 0.71085 0.0
H1665 H 0.07075 0.57181 0.68144 0.0
H1666 H 0.04983 0.65965 0.67331 0.0
H1667 H 0.08965 0.67184 0.70307 0.0
C1668 C 0.99868 0.6163 0.62172 0.0
C1669 C 0.97829 0.59948 0.6346 0.0
C1670 C 0.02476 0.62061 0.63443 0.0
C1671 C 0.03117 0.60767 0.65992 0.0
C1672 C 0.01132 0.58979 0.67212 0.0
C1673 C 0.98503 0.58596 0.65974 0.0
C1674 C 0.09813 0.60074 0.70234 0.0
C1675 C 0.10339 0.62891 0.70909 0.0
C1676 C 0.07503 0.59371 0.68569 0.0
C1677 C 0.05727 0.61481 0.67512 0.0
C1678 C 0.06334 0.64302 0.68098 0.0
C1679 C 0.08598 0.64997 0.69809 0.0
H1680 H 0.67798 0.27045 0.72757 0.0
H1681 H 0.66335 0.31228 0.64907 0.0
H1682 H 0.67196 0.22489 0.70455 0.0
H1683 H 0.65697 0.26696 0.62656 0.0
H1684 H 0.59855 0.18939 0.61607 0.0
H1685 H 0.614 0.23208 0.63919 0.0
H1686 H 0.69305 0.19259 0.65938 0.0
H1687 H 0.67803 0.14975 0.63484 0.0
C1688 C 0.67411 0.27 0.70537 0.0
C1689 C 0.67091 0.29517 0.69028 0.0
C1690 C 0.67074 0.24388 0.69223 0.0
C1691 C 0.66373 0.24249 0.66388 0.0
C1692 C 0.66219 0.26749 0.6485 0.0
C1693 C 0.66596 0.29348 0.66146 0.0
C1694 C 0.61924 0.18965 0.62545 0.0
C1695 C 0.63694 0.16604 0.62383 0.0
C1696 C 0.62809 0.21417 0.63862 0.0
C1697 C 0.65476 0.21568 0.65089 0.0
C1698 C 0.67234 0.19189 0.6501 0.0
C1699 C 0.66365 0.16734 0.6363 0.0
H1700 H 0.94825 0.45117 0.90824 0.0
H1701 H 0.97781 0.39464 0.97197 0.0
H1702 H 0.99316 0.4468 0.88421 0.0
H1703 H 0.02148 0.38822 0.9472 0.0
H1704 H 0.10408 0.38548 0.90511 0.0
H1705 H 0.06412 0.4012 0.9325 0.0
H1706 H 0.01839 0.41797 0.85636 0.0
H1707 H 0.05991 0.40598 0.82962 0.0
C1708 C 0.96442 0.43786 0.91711 0.0
C1709 C 0.95957 0.4234 0.94204 0.0
C1710 C 0.99015 0.435 0.90318 0.0
C1711 C 0.01131 0.41683 0.91335 0.0
C1712 C 1.00638 0.40291 0.93872 0.0
C1713 C 0.98107 0.40645 0.953 0.0
C1714 C 0.08611 0.3942 0.89444 0.0
C1715 C 0.08569 0.39589 0.86535 0.0
C1716 C 0.06261 0.40231 0.91008 0.0
C1717 C 0.03752 0.41102 0.89691 0.0
C1718 C 0.03724 0.41228 0.86761 0.0
C1719 C 0.06103 0.40502 0.85212 0.0
H1720 H 0.89439 0.84556 0.1602 0.0
H1721 H 0.85222 0.81061 0.08887 0.0
H1722 H 0.87761 0.80635 0.1887 0.0
H1723 H 0.8326 0.774 0.11733 0.0
H1724 H 0.83974 0.69016 0.15866 0.0
H1725 H 0.84769 0.73315 0.13434 0.0
H1726 H 0.84461 0.77911 0.21202 0.0
H1727 H 0.8387 0.73481 0.23699 0.0
C1728 C 0.88096 0.82987 0.15085 0.0
C1729 C 0.87497 0.83078 0.1223 0.0
C1730 C 0.87104 0.80751 0.16718 0.0
C1731 C 0.8542 0.78626 0.15532 0.0
C1732 C 0.84651 0.78892 0.12717 0.0
C1733 C 0.85743 0.81029 0.11078 0.0
C1734 C 0.84029 0.70936 0.17076 0.0
C1735 C 0.83881 0.70878 0.19993 0.0
C1736 C 0.84464 0.73442 0.1566 0.0
C1737 C 0.84684 0.7601 0.17098 0.0
C1738 C 0.84359 0.75983 0.20015 0.0
C1739 C 0.83978 0.73442 0.21449 0.0
H1740 H 0.52161 0.59604 0.48338 0.0
H1741 H 0.56331 0.6178 0.40659 0.0
H1742 H 0.47598 0.60462 0.46114 0.0
H1743 H 0.51855 0.62729 0.38502 0.0
H1744 H 0.43791 0.6181 0.34203 0.0
H1745 H 0.4794 0.60347 0.36756 0.0
H1746 H 0.44561 0.64101 0.44246 0.0
H1747 H 0.40304 0.65435 0.41677 0.0
C1748 C 0.52104 0.60268 0.46184 0.0
C1749 C 0.54604 0.60579 0.44662 0.0
C1750 C 0.49495 0.60772 0.44915 0.0
C1751 C 0.49351 0.61621 0.42112 0.0
C1752 C 0.51867 0.61989 0.40631 0.0
C1753 C 0.54448 0.61455 0.41879 0.0
C1754 C 0.43925 0.62301 0.36401 0.0
C1755 C 0.41757 0.63763 0.37742 0.0
C1756 C 0.46311 0.61478 0.37865 0.0
C1757 C 0.46623 0.62166 0.40695 0.0
C1758 C 0.44391 0.63533 0.42071 0.0
C1759 C 0.41964 0.64312 0.40603 0.0
H1760 H 0.33502 0.17113 0.1336 0.0
H1761 H 0.41494 0.20881 0.11441 0.0
H1762 H 0.32188 0.21301 0.1607 0.0
H1763 H 0.40118 0.25093 0.14002 0.0
H1764 H 0.34569 0.28991 0.23107 0.0
H1765 H 0.35063 0.24429 0.20776 0.0
H1766 H 0.35265 0.28574 0.12817 0.0
H1767 H 0.34713 0.33109 0.15092 0.0
C1768 C 0.35002 0.18794 0.13573 0.0
C1769 C 0.37628 0.18638 0.12237 0.0
C1770 C 0.34235 0.21202 0.15092 0.0
C1771 C 0.36055 0.23511 0.15233 0.0
C1772 C 0.38678 0.23341 0.13916 0.0
C1773 C 0.39461 0.20929 0.12451 0.0
C1774 C 0.34639 0.2893 0.20856 0.0
C1775 C 0.34628 0.31436 0.19297 0.0
C1776 C 0.34921 0.26316 0.19528 0.0
C1777 C 0.35226 0.26166 0.16625 0.0
C1778 C 0.35045 0.28642 0.1506 0.0
C1779 C 0.34723 0.31241 0.16374 0.0
H1780 H 0.61474 0.65486 0.91306 0.0
H1781 H 0.56356 0.62262 0.84625 0.0
H1782 H 0.57352 0.6541 0.94419 0.0
H1783 H 0.52314 0.62153 0.87687 0.0
H1784 H 0.45012 0.65768 0.9207 0.0
H1785 H 0.49491 0.66037 0.89688 0.0
H1786 H 0.53597 0.62138 0.96708 0.0
H1787 H 0.49054 0.61903 0.99147 0.0
C1788 C 0.59485 0.64727 0.9052 0.0
C1789 C 0.59214 0.63924 0.87717 0.0
C1790 C 0.57133 0.64682 0.92295 0.0
C1791 C 0.54493 0.63838 0.91278 0.0
C1792 C 0.54294 0.6289 0.88516 0.0
C1793 C 0.56616 0.62942 0.86762 0.0
C1794 C 0.46868 0.64991 0.93129 0.0
C1795 C 0.46671 0.63768 0.95777 0.0
C1796 C 0.49438 0.65139 0.91757 0.0
C1797 C 0.51888 0.64045 0.9298 0.0
C1798 C 0.5174 0.62988 0.9571 0.0
C1799 C 0.49145 0.62854 0.97104 0.0
H1800 H 0.16949 0.86282 0.64253 0.0
H1801 H 0.08888 0.82798 0.62074 0.0
H1802 H 0.17897 0.82178 0.67225 0.0
H1803 H 0.09825 0.78749 0.65012 0.0
H1804 H 0.14446 0.70438 0.6629 0.0
H1805 H 0.13431 0.74923 0.64131 0.0
H1806 H 0.16078 0.79231 0.71581 0.0
H1807 H 0.17109 0.7468 0.73788 0.0
C1808 C 0.15364 0.84671 0.64452 0.0
C1809 C 0.12864 0.84831 0.62902 0.0
C1810 C 0.15902 0.82332 0.66154 0.0
C1811 C 0.13951 0.80126 0.6631 0.0
C1812 C 0.11386 0.80392 0.64893 0.0
C1813 C 0.1085 0.82714 0.63213 0.0
C1814 C 0.14824 0.7233 0.67482 0.0
C1815 C 0.15863 0.72194 0.70216 0.0
C1816 C 0.14222 0.74905 0.66245 0.0
C1817 C 0.14656 0.77427 0.67693 0.0
C1818 C 0.15727 0.77315 0.70419 0.0
C1819 C 0.163 0.74715 0.71682 0.0
H1820 H 0.97299 0.36058 0.3405 0.0
H1821 H 0.91657 0.38286 0.40725 0.0
H1822 H 0.01253 0.37727 0.36752 0.0
H1823 H 0.95653 0.40046 0.43451 0.0
H1824 H 0.04419 0.39847 0.48179 0.0
H1825 H 1.00075 0.38449 0.45841 0.0
H1826 H 0.03017 0.42258 0.38239 0.0
H1827 H 0.07348 0.43599 0.40535 0.0
C1828 C 0.96903 0.36909 0.36105 0.0
C1829 C 0.94165 0.37067 0.3717 0.0
C1830 C 0.99171 0.37891 0.37646 0.0
C1831 C 0.98766 0.39069 0.40297 0.0
C1832 C 0.96031 0.39154 0.4141 0.0
C1833 C 0.93745 0.3816 0.39853 0.0
C1834 C 0.0412 0.40417 0.46019 0.0
C1835 C 0.06252 0.418 0.44535 0.0
C1836 C 0.01627 0.39622 0.44683 0.0
C1837 C 0.01223 0.40198 0.41842 0.0
C1838 C 0.03292 0.41719 0.40411 0.0
C1839 C 0.05775 0.42499 0.41735 0.0
H1840 H 0.32163 0.86903 0.43643 0.0
H1841 H 0.39344 0.82555 0.47076 0.0
H1842 H 0.30572 0.82466 0.41517 0.0
H1843 H 0.37738 0.78191 0.45049 0.0
H1844 H 0.32004 0.74142 0.35673 0.0
H1845 H 0.32522 0.78789 0.37774 0.0
H1846 H 0.33526 0.74963 0.45843 0.0
H1847 H 0.33012 0.70328 0.43772 0.0
C1848 C 0.33402 0.85016 0.43933 0.0
C1849 C 0.35879 0.85082 0.45526 0.0
C1850 C 0.32488 0.8248 0.42731 0.0
C1851 C 0.34007 0.79972 0.43161 0.0
C1852 C 0.36489 0.80069 0.44728 0.0
C1853 C 0.37418 0.82584 0.45876 0.0
C1854 C 0.3227 0.74288 0.37906 0.0
C1855 C 0.3251 0.71842 0.39542 0.0
C1856 C 0.32554 0.76958 0.39107 0.0
C1857 C 0.33106 0.77236 0.41964 0.0
C1858 C 0.33139 0.74809 0.43626 0.0
C1859 C 0.32832 0.72148 0.42436 0.0
H1860 H 0.0295 0.58952 0.10284 0.0
H1861 H 0.07421 0.63086 0.16925 0.0
H1862 H 0.98474 0.59975 0.12653 0.0
H1863 H 0.03017 0.64194 0.19211 0.0
H1864 H 0.95752 0.62321 0.24612 0.0
H1865 H 0.99798 0.61319 0.21722 0.0
H1866 H 0.9505 0.63581 0.14388 0.0
H1867 H 0.90909 0.64498 0.17333 0.0
C1868 C 0.02967 0.60127 0.12215 0.0
C1869 C 0.05524 0.60895 0.13454 0.0
C1870 C 1.00412 0.60714 0.13568 0.0
C1871 C 1.00393 0.62101 0.16159 0.0
C1872 C 0.02954 0.63036 0.17271 0.0
C1873 C 0.05482 0.62417 0.15953 0.0
C1874 C 0.95563 0.62601 0.22383 0.0
C1875 C 0.93041 0.63537 0.21197 0.0
C1876 C 0.97889 0.62041 0.20722 0.0
C1877 C 0.97778 0.62447 0.17827 0.0
C1878 C 0.95209 0.63264 0.16613 0.0
C1879 C 0.92847 0.63797 0.18291 0.0
H1880 H 0.18054 0.30028 0.91607 0.0
H1881 H 0.12682 0.27612 0.84781 0.0
H1882 H 0.17562 0.25362 0.93638 0.0
H1883 H 0.12127 0.22937 0.86875 0.0
H1884 H 0.08894 0.17532 0.94828 0.0
H1885 H 0.09769 0.21603 0.91849 0.0
H1886 H 0.18678 0.19975 0.92289 0.0
H1887 H 0.17792 0.15854 0.95228 0.0
C1888 C 0.16778 0.28491 0.90534 0.0
C1889 C 0.15391 0.29185 0.88044 0.0
C1890 C 0.16517 0.25816 0.91686 0.0
C1891 C 0.14815 0.23794 0.90407 0.0
C1892 C 0.13458 0.24464 0.87894 0.0
C1893 C 0.13777 0.27128 0.86698 0.0
C1894 C 0.11033 0.18017 0.9424 0.0
C1895 C 0.13277 0.16387 0.95242 0.0
C1896 C 0.11531 0.2033 0.92526 0.0
C1897 C 0.14289 0.21095 0.91841 0.0
C1898 C 0.16533 0.19421 0.92786 0.0
C1899 C 0.16028 0.17066 0.94454 0.0
H1900 H 0.56677 0.31739 0.70426 0.0
H1901 H 0.59063 0.40342 0.68973 0.0
H1902 H 0.52292 0.3256 0.67849 0.0
H1903 H 0.54795 0.41111 0.66307 0.0
H1904 H 0.47758 0.40804 0.59807 0.0
H1905 H 0.5228 0.39379 0.61806 0.0
H1906 H 0.47995 0.35848 0.68886 0.0
H1907 H 0.43489 0.37301 0.66922 0.0
C1908 C 0.56298 0.33781 0.69508 0.0
C1909 C 0.58248 0.35958 0.69853 0.0
C1910 C 0.53793 0.34251 0.68039 0.0
C1911 C 0.53221 0.36892 0.66854 0.0
C1912 C 0.55205 0.39039 0.67146 0.0
C1913 C 0.57668 0.38588 0.68657 0.0
C1914 C 0.47782 0.39699 0.61775 0.0
C1915 C 0.45271 0.3919 0.6322 0.0
C1916 C 0.50367 0.3889 0.62919 0.0
C1917 C 0.50484 0.375 0.65498 0.0
C1918 C 0.47966 0.36893 0.66885 0.0
C1919 C 0.4539 0.37749 0.65771 0.0
H1920 H 0.18244 0.04484 0.36324 0.0
H1921 H 0.19337 0.08106 0.28136 0.0
H1922 H 0.1839 0.99807 0.3428 0.0
H1923 H 0.19339 0.03497 0.26108 0.0
H1924 H 0.18423 0.95041 0.22774 0.0
H1925 H 0.20684 0.98813 0.25316 0.0
H1926 H 0.14348 0.98172 0.3175 0.0
H1927 H 0.12226 0.9425 0.29283 0.0
C1928 C 0.18555 0.04278 0.341 0.0
C1929 C 0.1861 0.06632 0.32357 0.0
C1930 C 0.18656 0.01613 0.3294 0.0
C1931 C 0.18755 0.01314 0.30038 0.0
C1932 C 0.1923 0.03663 0.28353 0.0
C1933 C 0.19172 0.06314 0.29512 0.0
C1934 C 0.17485 0.95766 0.24701 0.0
C1935 C 0.15097 0.94471 0.25807 0.0
C1936 C 0.18812 0.97869 0.26179 0.0
C1937 C 0.17708 0.98758 0.28734 0.0
C1938 C 0.15291 0.97473 0.29818 0.0
C1939 C 0.14015 0.95308 0.28376 0.0
H1940 H 0.20659 0.96966 0.59965 0.0
H1941 H 0.19657 0.92818 0.52039 0.0
H1942 H 0.23644 1.00488 0.57784 0.0
H1943 H 0.22573 0.96247 0.49863 0.0
H1944 H 0.28663 0.97767 0.46411 0.0
H1945 H 0.24772 1.00517 0.48303 0.0
H1946 H 0.28328 0.99809 0.56503 0.0
H1947 H 0.32203 0.97131 0.54669 0.0
C1948 C 0.21136 0.96776 0.57769 0.0
C1949 C 0.20098 0.94527 0.56191 0.0
C1950 C 0.22759 0.98841 0.56504 0.0
C1951 C 0.23428 0.98641 0.53659 0.0
C1952 C 0.22158 0.96507 0.52062 0.0
C1953 C 0.20549 0.94463 0.5332 0.0
C1954 C 0.28607 0.98206 0.48622 0.0
C1955 C 0.30522 0.96937 0.5046 0.0
C1956 C 0.26451 0.99882 0.49691 0.0
C1957 C 0.2604 0.99926 0.52589 0.0
C1958 C 0.28409 0.99478 0.54276 0.0
C1959 C 0.30592 0.97846 0.53241 0.0
H1960 H 0.31017 0.9488 0.76875 0.0
H1961 H 0.2867 0.9757 0.85139 0.0
H1962 H 0.27542 0.97932 0.74914 0.0
H1963 H 0.25094 1.00636 0.83158 0.0
H1964 H 0.30115 0.08184 0.80001 0.0
H1965 H 0.2692 0.04794 0.81827 0.0
H1966 H 0.25176 0.01814 0.7351 0.0
H1967 H 0.28447 0.05249 0.71658 0.0
C1968 C 0.29771 0.96161 0.78276 0.0
C1969 C 0.30333 0.96244 0.81136 0.0
C1970 C 0.27694 0.97867 0.77158 0.0
C1971 C 0.26287 0.99824 0.78872 0.0
C1972 C 0.26358 0.99367 0.81764 0.0
C1973 C 0.28465 0.97684 0.82898 0.0
C1974 C 0.29085 0.06779 0.78554 0.0
C1975 C 0.29778 0.0675 0.7572 0.0
C1976 C 0.27165 0.04869 0.79592 0.0
C1977 C 0.26091 0.02759 0.77835 0.0
C1978 C 0.26215 0.03223 0.74946 0.0
C1979 C 0.28157 0.05124 0.7389 0.0
H1980 H 0.21573 0.0423 0.96979 0.0
H1981 H 0.18647 0.06031 0.05309 0.0
H1982 H 0.25809 0.02104 0.989 0.0
H1983 H 0.2286 0.04049 0.07202 0.0
H1984 H 0.30692 0.05148 0.10356 0.0
H1985 H 0.27157 0.02085 0.08322 0.0
H1986 H 0.28991 0.05558 1.00198 0.0
H1987 H 0.32542 0.08481 1.02208 0.0
C1988 C 0.21831 0.04163 0.99217 0.0
C1989 C 0.19918 0.05512 1.00997 0.0
C1990 C 0.24222 0.02891 1.00319 0.0
C1991 C 0.24779 0.03115 1.03183 0.0
C1992 C 0.22584 0.03941 0.0497 0.0
C1993 C 0.2018 0.05162 1.03879 0.0
C1994 C 0.30317 0.05245 0.08135 0.0
C1995 C 0.31724 0.07191 0.06456 0.0
C1996 C 0.2835 0.03443 0.06962 0.0
C1997 C 0.27677 0.03672 0.04123 0.0
C1998 C 0.29386 0.0534 1.02405 0.0
C1999 C 0.31378 0.07095 1.03566 0.0
H2000 H 0.81677 0.07215 0.77107 0.0
H2001 H 0.79 0.04524 0.8526 0.0
H2002 H 0.78584 0.03933 0.74982 0.0
H2003 H 0.75779 0.01202 0.83117 0.0
H2004 H 0.78672 0.96914 0.71371 0.0
H2005 H 0.75658 1.00497 0.7345 0.0
H2006 H 0.77292 0.96997 0.8158 0.0
H2007 H 0.80195 0.93455 0.79546 0.0
C2008 C 0.80424 0.05893 0.78451 0.0
C2009 C 0.80758 0.05944 0.81346 0.0
C2010 C 0.78563 0.04043 0.77229 0.0
C2011 C 0.77064 0.02115 0.78875 0.0
C2012 C 0.77045 0.02516 0.81781 0.0
C2013 C 0.78941 0.04361 0.83013 0.0
C2014 C 0.78387 0.96932 0.73607 0.0
C2015 C 0.79924 0.95119 0.75335 0.0
C2016 C 0.766 0.9893 0.74793 0.0
C2017 C 0.76573 0.99271 0.77705 0.0
C2018 C 0.77485 0.96996 0.79338 0.0
C2019 C 0.79241 0.94989 0.78174 0.0
H2020 H 0.68527 0.06647 0.52359 0.0
H2021 H 0.71272 0.04085 0.60547 0.0
H2022 H 0.72546 0.0442 0.50323 0.0
H2023 H 0.75309 0.01707 0.5848 0.0
H2024 H 0.82872 0.06965 0.55123 0.0
H2025 H 0.79031 0.04498 0.57169 0.0
H2026 H 0.76365 0.01706 0.49011 0.0
H2027 H 0.80217 0.04319 0.4693 0.0
C2028 C 0.69983 0.05565 0.53724 0.0
C2029 C 0.69719 0.05718 0.56622 0.0
C2030 C 0.72267 0.04206 0.52547 0.0
C2031 C 0.74348 0.03004 0.54256 0.0
C2032 C 0.73811 0.02737 0.57122 0.0
C2033 C 0.71539 0.04145 0.5831 0.0
C2034 C 0.81478 0.05816 0.53756 0.0
C2035 C 0.81692 0.06024 0.50855 0.0
C2036 C 0.79301 0.04318 0.5494 0.0
C2037 C 0.77274 0.03041 0.53235 0.0
C2038 C 0.77811 0.02802 0.50366 0.0
C2039 C 0.79975 0.04345 0.4917 0.0
H2040 H 0.71031 0.07827 0.30241 0.0
H2041 H 0.72536 0.04566 0.21976 0.0
H2042 H 0.72929 0.03623 0.32229 0.0
H2043 H 0.74604 1.00351 0.24003 0.0
H2044 H 0.67532 0.94256 0.2705 0.0
H2045 H 0.70701 0.97673 0.25202 0.0
H2046 H 0.74077 0.99108 0.33464 0.0
H2047 H 0.70762 0.95691 0.35319 0.0
C2048 C 0.71817 0.06222 0.28843 0.0
C2049 C 0.7136 0.06368 0.25962 0.0
C2050 C 0.72997 0.03823 0.29988 0.0
C2051 C 0.7362 0.01525 0.28255 0.0
C2052 C 0.73905 0.02013 0.25382 0.0
C2053 C 0.7266 0.0439 0.2422 0.0
C2054 C 0.68936 0.95326 0.28471 0.0
C2055 C 0.68785 0.94871 0.31338 0.0
C2056 C 0.70834 0.97232 0.27406 0.0
C2057 C 0.72618 0.98749 0.29196 0.0
C2058 C 0.72671 0.9805 0.32041 0.0
C2059 C 0.7073 0.96158 0.33113 0.0
H2060 H 0.73189 0.87881 0.97346 0.0
H2061 H 0.66994 0.85874 1.03579 0.0
H2062 H 0.76549 0.84858 0.99656 0.0
H2063 H 0.70303 0.82717 0.05845 0.0
H2064 H 0.83034 0.83176 0.04119 0.0
H2065 H 0.78862 0.81148 1.02011 0.0
H2066 H 0.73814 0.84746 0.08607 0.0
H2067 H 0.77984 0.86619 0.10762 0.0
C2068 C 0.72542 0.86737 0.99183 0.0
C2069 C 0.69933 0.8724 1.00406 0.0
C2070 C 0.74437 0.8494 1.00483 0.0
C2071 C 0.73725 0.83618 1.03015 0.0
C2072 C 0.70943 0.83783 0.0396 0.0
C2073 C 0.69075 0.85631 1.02697 0.0
C2074 C 0.8103 0.83438 0.05156 0.0
C2075 C 0.80757 0.8521 0.07475 0.0
C2076 C 0.78654 0.82241 0.03979 0.0
C2077 C 0.75998 0.82985 0.05013 0.0
C2078 C 0.75818 0.84224 0.07675 0.0
C2079 C 0.78205 0.85354 0.08899 0.0
H2080 H 0.59604 0.58556 0.79529 0.0
H2081 H 0.63483 0.53632 0.86025 0.0
H2082 H 0.57248 0.5438 0.77779 0.0
H2083 H 0.61263 0.49452 0.84225 0.0
H2084 H 0.62145 0.47291 0.72827 0.0
H2085 H 0.60231 0.51327 0.75212 0.0
H2086 H 0.58128 0.46124 0.82286 0.0
H2087 H 0.60159 0.42083 0.7991 0.0
C2088 C 0.59912 0.56578 0.80602 0.0
C2089 C 0.61839 0.56342 0.82796 0.0
C2090 C 0.58535 0.54206 0.7963 0.0
C2091 C 0.59176 0.51571 0.80774 0.0
C2092 C 0.60747 0.51439 0.83257 0.0
C2093 C 0.62071 0.53824 0.84266 0.0
C2094 C 0.61225 0.47002 0.74868 0.0
C2095 C 0.61437 0.44434 0.76256 0.0
C2096 C 0.60066 0.49306 0.76224 0.0
C2097 C 0.59104 0.49059 0.78986 0.0
C2098 C 0.58931 0.46387 0.80194 0.0
C2099 C 0.60132 0.44091 0.78853 0.0
H2100 H 0.80831 0.35063 0.98188 0.0
H2101 H 0.81577 0.40282 0.05502 0.0
H2102 H 0.78052 0.31701 1.00828 0.0
H2103 H 0.78787 0.37039 0.08106 0.0
H2104 H 0.68995 0.34044 1.03634 0.0
H2105 H 0.73385 0.32199 1.01997 0.0
H2106 H 0.7691 0.33018 0.10231 0.0
H2107 H 0.72501 0.35028 0.11873 0.0
C2108 C 0.80363 0.35506 1.00351 0.0
C2109 C 0.81269 0.38001 1.01614 0.0
C2110 C 0.78833 0.33551 1.0188 0.0
C2111 C 0.78117 0.34106 0.04669 0.0
C2112 C 0.79264 0.36497 0.0597 0.0
C2113 C 0.80806 0.38421 0.04456 0.0
C2114 C 0.70686 0.33788 0.05122 0.0
C2115 C 0.70526 0.34953 0.07801 0.0
C2116 C 0.73208 0.32652 0.04197 0.0
C2117 C 0.75587 0.32816 0.0592 0.0
C2118 C 0.75153 0.33127 0.08801 0.0
C2119 C 0.72649 0.34332 0.09731 0.0
H2120 H 0.92758 0.55691 0.2278 0.0
H2121 H 0.89703 0.57266 0.31104 0.0
H2122 H 0.95595 0.51797 0.24532 0.0
H2123 H 0.92383 0.53375 0.32824 0.0
H2124 H 0.93802 0.45693 0.35686 0.0
H2125 H 0.95763 0.50058 0.33919 0.0
H2126 H 0.93666 0.47494 0.25533 0.0
H2127 H 0.91889 0.43138 0.27267 0.0
C2128 C 0.92704 0.5521 0.24985 0.0
C2129 C 0.90894 0.56665 0.26786 0.0
C2130 C 0.94354 0.53007 0.25993 0.0
C2131 C 0.94138 0.52181 0.28798 0.0
C2132 C 0.9261 0.539 0.30645 0.0
C2133 C 0.91003 0.56115 0.29647 0.0
C2134 C 0.93847 0.4604 0.33456 0.0
C2135 C 0.92504 0.44189 0.31622 0.0
C2136 C 0.9499 0.48528 0.32442 0.0
C2137 C 0.94672 0.49224 0.29611 0.0
C2138 C 0.93863 0.47102 0.27743 0.0
C2139 C 0.92777 0.44601 0.28745 0.0
H2140 H 0.68858 0.5716 0.55628 0.0
H2141 H 0.71523 0.54792 0.47356 0.0
H2142 H 0.73004 0.55043 0.57557 0.0
H2143 H 0.75679 0.52525 0.49308 0.0
H2144 H 0.83211 0.57955 0.52602 0.0
H2145 H 0.79217 0.55655 0.50594 0.0
H2146 H 0.76954 0.52372 0.5869 0.0
H2147 H 0.80952 0.54815 0.60725 0.0
C2148 C 0.70321 0.56135 0.54227 0.0
C2149 C 0.70007 0.56321 0.51338 0.0
C2150 C 0.72674 0.54841 0.55338 0.0
C2151 C 0.74755 0.53742 0.53564 0.0
C2152 C 0.74169 0.53477 0.50709 0.0
C2153 C 0.71833 0.54826 0.49588 0.0
C2154 C 0.81865 0.56731 0.5395 0.0
C2155 C 0.82251 0.56715 0.56834 0.0
C2156 C 0.79609 0.55334 0.52789 0.0
C2157 C 0.77693 0.5391 0.54506 0.0
C2158 C 0.78338 0.53544 0.57336 0.0
C2159 C 0.80577 0.5499 0.58508 0.0
H2160 H 0.40265 0.60076 0.29342 0.0
H2161 H 0.38142 0.54124 0.35757 0.0
H2162 H 0.43299 0.56605 0.27131 0.0
H2163 H 0.40997 0.50591 0.33483 0.0
H2164 H 0.40439 0.48682 0.22058 0.0
H2165 H 0.41617 0.52975 0.24419 0.0
H2166 H 0.44766 0.48216 0.31435 0.0
H2167 H 0.43409 0.43891 0.29095 0.0
C2168 C 0.40448 0.5801 0.30266 0.0
C2169 C 0.38876 0.5729 0.32626 0.0
C2170 C 0.42211 0.5604 0.29026 0.0
C2171 C 0.42331 0.53288 0.30064 0.0
C2172 C 0.40976 0.52681 0.32604 0.0
C2173 C 0.39279 0.54681 0.33886 0.0
C2174 C 0.41474 0.4855 0.24062 0.0
C2175 C 0.41675 0.45998 0.25484 0.0
C2176 C 0.42191 0.51022 0.25419 0.0
C2177 C 0.43121 0.50939 0.28202 0.0
C2178 C 0.43907 0.48342 0.29351 0.0
C2179 C 0.43122 0.45871 0.28022 0.0
H2180 H 0.31135 0.55296 0.97964 0.0
H2181 H 0.325 0.5876 0.06159 0.0
H2182 H 0.27961 0.51822 0.99935 0.0
H2183 H 0.29312 0.55434 0.08109 0.0
H2184 H 0.22385 0.53239 0.11407 0.0
H2185 H 0.26789 0.5154 0.09441 0.0
H2186 H 0.23412 0.52701 1.01167 0.0
H2187 H 0.19022 0.54196 1.03108 0.0
C2188 C 0.30721 0.55335 1.00179 0.0
C2189 C 0.31909 0.574 1.01892 0.0
C2190 C 0.28956 0.53312 1.01318 0.0
C2191 C 0.28274 0.53395 0.04168 0.0
C2192 C 0.29732 0.55279 0.05902 0.0
C2193 C 0.31516 0.57261 0.04773 0.0
C2194 C 0.22576 0.5306 0.09168 0.0
C2195 C 0.20482 0.54107 0.07394 0.0
C2196 C 0.25078 0.52046 0.0804 0.0
C2197 C 0.25549 0.52287 0.05158 0.0
C2198 C 0.23209 0.5266 1.03408 0.0
C2199 C 0.2069 0.53599 0.04525 0.0
H2200 H 0.18084 0.44342 0.77833 0.0
H2201 H 0.21368 0.45835 0.86086 0.0
H2202 H 0.20829 0.48157 0.76056 0.0
H2203 H 0.24229 0.49653 0.84284 0.0
H2204 H 0.20645 0.58361 0.81128 0.0
H2205 H 0.22286 0.54038 0.83128 0.0
H2206 H 0.24712 0.51052 0.74967 0.0
H2207 H 0.22926 0.55386 0.72929 0.0
C2208 C 0.19418 0.45484 0.79264 0.0
C2209 C 0.19393 0.44911 0.82117 0.0
C2210 C 0.21067 0.47629 0.78234 0.0
C2211 C 0.22725 0.49255 0.80043 0.0
C2212 C 0.22925 0.48479 0.82854 0.0
C2213 C 0.21239 0.46345 0.83894 0.0
C2214 C 0.21574 0.56806 0.79759 0.0
C2215 C 0.21444 0.57084 0.76859 0.0
C2216 C 0.2259 0.54339 0.80916 0.0
C2217 C 0.23448 0.52127 0.79171 0.0
C2218 C 0.23913 0.52677 0.76337 0.0
C2219 C 0.2284 0.55127 0.75166 0.0
H2220 H 0.22441 0.48845 0.47587 0.0
H2221 H 0.19252 0.46827 0.55748 0.0
H2222 H 0.25629 0.52232 0.4967 0.0
H2223 H 0.22402 0.501 0.57812 0.0
H2224 H 0.29566 0.48796 0.61397 0.0
H2225 H 0.26238 0.52174 0.5947 0.0
H2226 H 0.29735 0.50768 0.51292 0.0
H2227 H 0.33022 0.47501 0.53184 0.0
C2228 C 0.22467 0.49081 0.49828 0.0
C2229 C 0.20824 0.4736 0.51536 0.0
C2230 C 0.24244 0.51067 0.51025 0.0
C2231 C 0.2455 0.51185 0.53943 0.0
C2232 C 0.22447 0.49917 0.55571 0.0
C2233 C 0.20664 0.4796 0.54389 0.0
C2234 C 0.29593 0.49203 0.59181 0.0
C2235 C 0.31325 0.47645 0.57386 0.0
C2236 C 0.2773 0.51182 0.58079 0.0
C2237 C 0.27422 0.51397 0.55167 0.0
C2238 C 0.29666 0.50427 0.53514 0.0
C2239 C 0.31533 0.48474 0.54593 0.0
H2240 H 0.1459 0.15878 0.08577 0.0
H2241 H 0.09496 0.08813 0.1092 0.0
H2242 H 0.15336 0.17032 0.13451 0.0
H2243 H 0.10322 0.09892 0.1584 0.0
H2244 H 0.10331 0.13804 0.24509 0.0
H2245 H 0.09402 0.1285 0.19616 0.0
H2246 H 0.17694 0.15834 0.17528 0.0
H2247 H 0.18563 0.16881 0.2244 0.0
C2248 C 0.13626 0.14562 0.10142 0.0
C2249 C 0.1197 0.12256 0.09345 0.0
C2250 C 0.14081 0.1521 0.12958 0.0
C2251 C 0.12917 0.13558 0.15093 0.0
C2252 C 0.11232 0.11254 0.14286 0.0
C2253 C 0.10759 0.10619 0.11455 0.0
C2254 C 0.11948 0.14285 0.23001 0.0
C2255 C 0.14516 0.15443 0.23876 0.0
C2256 C 0.11426 0.13705 0.2018 0.0
C2257 C 0.13466 0.14238 0.18125 0.0
C2258 C 0.16036 0.15425 0.1901 0.0
C2259 C 0.16548 0.16026 0.2184 0.0
H2260 H 0.11886 0.83753 0.49188 0.0
H2261 H 0.10892 0.92407 0.46753 0.0
H2262 H 0.12524 0.82405 0.44298 0.0
H2263 H 0.11636 0.91069 0.41862 0.0
H2264 H 0.1724 0.87573 0.34469 0.0
H2265 H 0.16223 0.88746 0.39319 0.0
H2266 H 0.09519 0.82697 0.39388 0.0
H2267 H 0.10469 0.81587 0.34467 0.0
C2268 C 0.11776 0.85365 0.47603 0.0
C2269 C 0.1132 0.88187 0.48359 0.0
C2270 C 0.12141 0.8459 0.44803 0.0
C2271 C 0.12142 0.86628 0.4269 0.0
C2272 C 0.11654 0.89449 0.43442 0.0
C2273 C 0.1121 0.90215 0.46239 0.0
C2274 C 0.15566 0.86464 0.35518 0.0
C2275 C 0.13949 0.84466 0.34076 0.0
C2276 C 0.14967 0.87161 0.38294 0.0
C2277 C 0.12776 0.85835 0.39736 0.0
C2278 C 0.11219 0.8376 0.38333 0.0
C2279 C 0.11772 0.83112 0.35521 0.0
H2280 H 0.41364 0.90055 0.73743 0.0
H2281 H 0.33492 0.85879 0.72275 0.0
H2282 H 0.42084 0.90542 0.68755 0.0
H2283 H 0.34112 0.8649 0.67266 0.0
H2284 H 0.36719 0.86152 0.58257 0.0
H2285 H 0.36426 0.85229 0.63223 0.0
H2286 H 0.40676 0.93062 0.64877 0.0
H2287 H 0.41091 0.93887 0.59873 0.0
C2288 C 0.39787 0.8923 0.72342 0.0
C2289 C 0.37379 0.87913 0.73398 0.0
C2290 C 0.40182 0.89541 0.69472 0.0
C2291 C 0.3815 0.88588 0.67567 0.0
C2292 C 0.35757 0.87218 0.6864 0.0
C2293 C 0.35388 0.86867 0.71519 0.0
C2294 C 0.37619 0.87661 0.59686 0.0
C2295 C 0.38936 0.90089 0.58676 0.0
C2296 C 0.37425 0.87147 0.62547 0.0
C2297 C 0.38498 0.89074 0.64494 0.0
C2298 C 0.39857 0.91494 0.63466 0.0
C2299 C 0.40092 0.91983 0.60592 0.0
H2300 H 0.38864 0.10954 0.8358 0.0
H2301 H 0.34972 0.19059 0.84744 0.0
H2302 H 0.39935 0.10705 0.88513 0.0
H2303 H 0.36153 0.18885 0.89703 0.0
H2304 H 0.35661 0.16173 0.9883 0.0
H2305 H 0.34908 0.16726 0.93871 0.0
H2306 H 0.4266 0.12263 0.92246 0.0
H2307 H 0.43337 0.11607 0.9726 0.0
C2308 C 0.38265 0.12706 0.84893 0.0
C2309 C 0.36822 0.15024 0.83769 0.0
C2310 C 0.38906 0.12575 0.87733 0.0
C2311 C 0.38148 0.14773 0.89545 0.0
C2312 C 0.36739 0.17123 0.884 0.0
C2313 C 0.36072 0.17239 0.8555 0.0
C2314 C 0.37219 0.15322 0.97417 0.0
C2315 C 0.3956 0.13839 0.98444 0.0
C2316 C 0.36796 0.15661 0.94556 0.0
C2317 C 0.38715 0.14547 0.92617 0.0
C2318 C 0.41103 0.13116 0.93655 0.0
C2319 C 0.41512 0.12755 0.96534 0.0
H2320 H 0.89649 0.9157 0.8321 0.0
H2321 H 0.85489 0.83684 0.84685 0.0
H2322 H 0.90679 0.92002 0.88149 0.0
H2323 H 0.86509 0.84124 0.89682 0.0
H2324 H 0.9119 0.84682 0.9809 0.0
H2325 H 0.90447 0.84126 0.9308 0.0
H2326 H 0.88168 0.92888 0.92484 0.0
H2327 H 0.88923 0.93437 0.97484 0.0
C2328 C 0.88955 0.8992 0.84595 0.0
C2329 C 0.87483 0.87591 0.83554 0.0
C2330 C 0.89534 0.90179 0.87435 0.0
C2331 C 0.8867 0.88108 0.89326 0.0
C2332 C 0.87229 0.85749 0.88282 0.0
C2333 C 0.86631 0.85498 0.85425 0.0
C2334 C 0.90574 0.86498 0.96878 0.0
C2335 C 0.90139 0.8911 0.98178 0.0
C2336 C 0.90115 0.86171 0.94011 0.0
C2337 C 0.89232 0.88455 0.92372 0.0
C2338 C 0.88872 0.91086 0.9367 0.0
C2339 C 0.8931 0.91406 0.96538 0.0
H2340 H 0.83263 0.16528 0.72403 0.0
H2341 H 0.91334 0.12812 0.74176 0.0
H2342 H 0.84155 0.16023 0.67418 0.0
H2343 H 0.92304 0.12421 0.69217 0.0
H2344 H 0.91948 0.09204 0.6022 0.0
H2345 H 0.91228 0.09887 0.65216 0.0
H2346 H 0.86614 0.17536 0.63529 0.0
H2347 H 0.87229 0.16761 0.58563 0.0
C2348 C 0.85252 0.15657 0.71722 0.0
C2349 C 0.87227 0.14715 0.73681 0.0
C2350 C 0.85777 0.15369 0.68857 0.0
C2351 C 0.88308 0.14164 0.67876 0.0
C2352 C 0.90308 0.13299 0.69861 0.0
C2353 C 0.89765 0.13553 0.72716 0.0
C2354 C 0.90805 0.11041 0.6093 0.0
C2355 C 0.89648 0.12926 0.58999 0.0
C2356 C 0.90393 0.11446 0.638 0.0
C2357 C 0.88841 0.13769 0.64813 0.0
C2358 C 0.87761 0.15689 0.62859 0.0
C2359 C 0.88141 0.15262 0.59999 0.0
H2360 H 0.63562 0.16218 0.49392 0.0
H2361 H 0.59373 0.08484 0.47347 0.0
H2362 H 0.64353 0.17141 0.44474 0.0
H2363 H 0.60278 0.09313 0.42414 0.0
H2364 H 0.60329 0.12375 0.33573 0.0
H2365 H 0.59195 0.11882 0.38472 0.0
H2366 H 0.67052 0.15846 0.40635 0.0
H2367 H 0.68102 0.16464 0.35685 0.0
C2368 C 0.628 0.14716 0.47879 0.0
C2369 C 0.61387 0.12287 0.48752 0.0
C2370 C 0.63284 0.15228 0.45052 0.0
C2371 C 0.62406 0.13301 0.43011 0.0
C2372 C 0.6095 0.10882 0.43898 0.0
C2373 C 0.6043 0.10393 0.46732 0.0
C2374 C 0.61802 0.13169 0.35098 0.0
C2375 C 0.64304 0.14463 0.34245 0.0
C2376 C 0.61165 0.12859 0.3792 0.0
C2377 C 0.63037 0.13787 0.39987 0.0
C2378 C 0.6553 0.15132 0.39123 0.0
C2379 C 0.66146 0.15484 0.36283 0.0
H2380 H 0.60408 0.93498 0.0967 0.0
H2381 H 0.61383 0.84657 0.07988 0.0
H2382 H 0.61025 0.92601 0.14647 0.0
H2383 H 0.61962 0.83741 0.12956 0.0
H2384 H 0.6594 0.8358 0.21792 0.0
H2385 H 0.65201 0.84344 0.16791 0.0
H2386 H 0.58858 0.9057 0.1866 0.0
H2387 H 0.59631 0.89834 0.23613 0.0
C2388 C 0.60712 0.91357 0.10367 0.0
C2389 C 0.6082 0.8915 0.08427 0.0
C2390 C 0.61065 0.90834 0.13228 0.0
C2391 C 0.61552 0.8809 0.14233 0.0
C2392 C 0.61631 0.85884 0.1228 0.0
C2393 C 0.61267 0.86407 0.09425 0.0
C2394 C 0.64374 0.85092 0.21126 0.0
C2395 C 0.62844 0.86639 0.23108 0.0
C2396 C 0.63941 0.85531 0.18256 0.0
C2397 C 0.61975 0.87539 0.17294 0.0
C2398 C 0.60424 0.89046 0.19295 0.0
C2399 C 0.60852 0.88603 0.22149 0.0
H2400 H 0.60119 0.66662 0.7388 0.0
H2401 H 0.68918 0.65056 0.72413 0.0
H2402 H 0.59114 0.65772 0.68962 0.0
H2403 H 0.6792 0.64187 0.67492 0.0
H2404 H 0.65479 0.65597 0.58415 0.0
H2405 H 0.66281 0.66738 0.6328 0.0
H2406 H 0.59204 0.61627 0.65616 0.0
H2407 H 0.584 0.60461 0.60687 0.0
C2408 C 0.61846 0.66167 0.72496 0.0
C2409 C 0.64604 0.65954 0.73529 0.0
C2410 C 0.61263 0.65623 0.69686 0.0
C2411 C 0.63431 0.64892 0.67833 0.0
C2412 C 0.66202 0.64764 0.68856 0.0
C2413 C 0.66779 0.65271 0.71673 0.0
C2414 C 0.64078 0.6472 0.59958 0.0
C2415 C 0.61874 0.62933 0.59161 0.0
C2416 C 0.64552 0.65365 0.62754 0.0
C2417 C 0.62823 0.64263 0.64845 0.0
C2418 C 0.60568 0.62524 0.64053 0.0
C2419 C 0.60108 0.61849 0.61235 0.0
H2420 H 0.59151 0.3621 0.83648 0.0
H2421 H 0.67727 0.33724 0.85229 0.0
H2422 H 0.58473 0.37158 0.88603 0.0
H2423 H 0.67013 0.34596 0.90227 0.0
H2424 H 0.63106 0.336 0.99193 0.0
H2425 H 0.63733 0.32554 0.94249 0.0
H2426 H 0.60702 0.40831 0.92164 0.0
H2427 H 0.6015 0.41918 0.9714 0.0
C2428 C 0.60881 0.35819 0.85062 0.0
C2429 C 0.6349 0.34869 0.84047 0.0
C2430 C 0.60495 0.36388 0.87897 0.0
C2431 C 0.6269 0.35965 0.89804 0.0
C2432 C 0.6528 0.34935 0.88806 0.0
C2433 C 0.65687 0.34427 0.85951 0.0
C2434 C 0.62553 0.35195 0.97682 0.0
C2435 C 0.61559 0.37839 0.98558 0.0
C2436 C 0.62935 0.34599 0.94851 0.0
C2437 C 0.62275 0.36609 0.92817 0.0
C2438 C 0.61218 0.39235 0.93686 0.0
C2439 C 0.60897 0.39857 0.96529 0.0
H2440 H 0.93039 0.40947 0.1024 0.0
H2441 H 0.86612 0.34944 0.08145 0.0
H2442 H 0.92484 0.39751 0.15191 0.0
H2443 H 0.86032 0.33795 0.13049 0.0
H2444 H 0.83627 0.35382 0.224 0.0
H2445 H 0.84261 0.36302 0.17418 0.0
H2446 H 0.93232 0.3546 0.18387 0.0
H2447 H 0.92599 0.34491 0.23338 0.0
C2448 C 0.91526 0.39367 0.10834 0.0
C2449 C 0.89889 0.38026 0.08802 0.0
C2450 C 0.91207 0.38679 0.13662 0.0
C2451 C 0.89206 0.3668 0.14512 0.0
C2452 C 0.87573 0.35355 0.1247 0.0
C2453 C 0.87925 0.36003 0.09655 0.0
C2454 C 0.85726 0.35332 0.21534 0.0
C2455 C 0.88058 0.34836 0.23258 0.0
C2456 C 0.86093 0.35874 0.18686 0.0
C2457 C 0.88803 0.35982 0.17513 0.0
C2458 C 0.91124 0.35428 0.19231 0.0
C2459 C 0.90755 0.3484 0.22063 0.0
H2460 H 0.82965 0.65303 0.36087 0.0
H2461 H 0.91658 0.67295 0.34555 0.0
H2462 H 0.84049 0.64496 0.41005 0.0
H2463 H 0.92749 0.66453 0.39458 0.0
H2464 H 0.93789 0.60996 0.47608 0.0
H2465 H 0.92852 0.62194 0.42711 0.0
H2466 H 0.85673 0.67129 0.45245 0.0
H2467 H 0.86615 0.65967 0.50085 0.0
C2468 C 0.85095 0.65621 0.36812 0.0
C2469 C 0.87218 0.66388 0.34937 0.0
C2470 C 0.85721 0.65146 0.39625 0.0
C2471 C 0.88494 0.65385 0.4062 0.0
C2472 C 0.90602 0.66217 0.38754 0.0
C2473 C 0.89968 0.66732 0.35951 0.0
C2474 C 0.92033 0.62357 0.47111 0.0
C2475 C 0.90282 0.63388 0.49233 0.0
C2476 C 0.91496 0.63048 0.44313 0.0
C2477 C 0.89174 0.64747 0.43588 0.0
C2478 C 0.87455 0.65793 0.45724 0.0
C2479 C 0.8801 0.65136 0.48503 0.0
H2480 H 0.42214 0.36776 0.34222 0.0
H2481 H 0.33219 0.36119 0.34941 0.0
H2482 H 0.42566 0.37853 0.39146 0.0
H2483 H 0.33559 0.36985 0.39933 0.0
H2484 H 0.34407 0.4165 0.48039 0.0
H2485 H 0.34196 0.40436 0.43138 0.0
H2486 H 0.42456 0.36659 0.43733 0.0
H2487 H 0.42714 0.38078 0.48614 0.0
C2488 C 0.40313 0.36779 0.35459 0.0
C2489 C 0.37687 0.36358 0.34193 0.0
C2490 C 0.40512 0.37392 0.38303 0.0
C2491 C 0.38093 0.37547 0.39984 0.0
C2492 C 0.35474 0.36976 0.38723 0.0
C2493 C 0.35272 0.36429 0.3586 0.0
C2494 C 0.36191 0.40589 0.47106 0.0
C2495 C 0.38582 0.39971 0.48702 0.0
C2496 C 0.36057 0.39848 0.44292 0.0
C2497 C 0.38287 0.38394 0.42998 0.0
C2498 C 0.40702 0.37804 0.44611 0.0
C2499 C 0.40858 0.38612 0.4742 0.0
H2500 H 0.39164 0.69071 0.24928 0.0
H2501 H 0.31285 0.64873 0.23513 0.0
H2502 H 0.40379 0.68477 0.19999 0.0
H2503 H 0.32477 0.64307 0.18597 0.0
H2504 H 0.34283 0.66384 0.09495 0.0
H2505 H 0.33224 0.67243 0.14368 0.0
H2506 H 0.41529 0.64404 0.16637 0.0
H2507 H 0.42596 0.6351 0.11693 0.0
C2508 C 0.37666 0.68075 0.23553 0.0
C2509 C 0.35112 0.67048 0.24605 0.0
C2510 C 0.3838 0.677 0.20738 0.0
C2511 C 0.36537 0.6633 0.189 0.0
C2512 C 0.33943 0.65386 0.19944 0.0
C2513 C 0.33251 0.65721 0.22762 0.0
C2514 C 0.35897 0.65944 0.11023 0.0
C2515 C 0.38528 0.64873 0.10198 0.0
C2516 C 0.35279 0.66428 0.13826 0.0
C2517 C 0.37281 0.65886 0.15903 0.0
C2518 C 0.39943 0.64861 0.15086 0.0
C2519 C 0.40554 0.64338 0.1226 0.0
H2520 H 0.11276 0.61607 0.84012 0.0
H2521 H 0.17173 0.68023 0.86397 0.0
H2522 H 0.10197 0.60725 0.88868 0.0
H2523 H 0.16103 0.67113 0.91328 0.0
H2524 H 0.11657 0.66078 0.99911 0.0
H2525 H 0.12415 0.67361 0.95024 0.0
H2526 H 0.12527 0.58579 0.92797 0.0
H2527 H 0.11757 0.57315 0.97651 0.0
C2528 C 0.12339 0.62845 0.8558 0.0
C2529 C 0.14322 0.64882 0.84809 0.0
C2530 C 0.11729 0.62323 0.88377 0.0
C2531 C 0.1308 0.63819 0.9051 0.0
C2532 C 0.15008 0.65927 0.89745 0.0
C2533 C 0.15629 0.66448 0.86921 0.0
C2534 C 0.11798 0.64427 0.98365 0.0
C2535 C 0.11618 0.61593 0.99167 0.0
C2536 C 0.12267 0.65162 0.95568 0.0
C2537 C 0.12539 0.6308 0.935 0.0
C2538 C 0.12295 0.60249 0.94312 0.0
C2539 C 0.11851 0.59518 0.97102 0.0
H2540 H 0.1063 0.34369 0.73362 0.0
H2541 H 0.19154 0.3732 0.72701 0.0
H2542 H 0.09897 0.35357 0.68393 0.0
H2543 H 0.18439 0.38282 0.67768 0.0
H2544 H 0.17147 0.37093 0.58514 0.0
H2545 H 0.17589 0.35694 0.63355 0.0
H2546 H 0.09679 0.3973 0.6522 0.0
H2547 H 0.09233 0.41153 0.6031 0.0
C2548 C 0.12361 0.35174 0.72143 0.0
C2549 C 0.14958 0.35743 0.73411 0.0
C2550 C 0.1193 0.35773 0.6931 0.0
C2551 C 0.14105 0.36908 0.67683 0.0
C2552 C 0.16725 0.37389 0.68948 0.0
C2553 C 0.17139 0.36832 0.71776 0.0
C2554 C 0.15488 0.37679 0.59945 0.0
C2555 C 0.13159 0.3925 0.59028 0.0
C2556 C 0.15749 0.36881 0.62728 0.0
C2557 C 0.13681 0.37612 0.64683 0.0
C2558 C 0.11302 0.3912 0.6376 0.0
C2559 C 0.11051 0.39947 0.60957 0.0
loop_
_geom_bond_atom_site_label_1
_geom_bond_atom_site_label_2
_geom_bond_distance
_geom_bond_site_symmetry_2
_ccdc_geom_bond_type
Tb0 O3 2.453 . S
Tb0 O4 2.596 . S
Tb0 O5 2.374 . S
Tb0 O13 2.343 . S
Tb0 O15 2.353 . S
Tb0 O17 2.427 . S
Tb0 O18 2.513 . S
C1 O5 1.251 . S
C1 O7 1.263 . S
Tb2 O4 2.343 . S
Tb2 O7 2.353 . S
Tb2 O10 2.427 . S
Tb2 O11 2.513 . S
Tb2 O12 2.453 . S
Tb2 O13 2.596 . S
Tb2 O14 2.374 . S
O3 Tb0 2.453 . S
O3 C19 1.245 . S
O4 Tb0 2.596 . S
O4 Tb2 2.343 . S
O4 C19 1.259 . S
O5 Tb0 2.374 . S
O5 C1 1.251 . S
C6 O10 1.275 . S
C6 O11 1.246 . S
O7 C1 1.263 . S
O7 Tb2 2.353 . S
C8 O12 1.245 . S
C8 O13 1.259 . S
C9 O14 1.250 . S
C9 O15 1.263 . S
O10 Tb2 2.427 . S
O10 C6 1.275 . S
O11 Tb2 2.513 . S
O11 C6 1.246 . S
O12 Tb2 2.453 . S
O12 C8 1.245 . S
O13 Tb0 2.343 . S
O13 Tb2 2.596 . S
O13 C8 1.259 . S
O14 Tb2 2.374 . S
O14 C9 1.250 . S
O15 Tb0 2.353 . S
O15 C9 1.263 . S
C16 O17 1.275 . S
C16 O18 1.246 . S
O17 Tb0 2.427 . S
O17 C16 1.275 . S
O18 Tb0 2.513 . S
O18 C16 1.246 . S
C19 O3 1.245 . S
C19 O4 1.259 . S
Tb20 O23 2.453 . S
Tb20 O24 2.596 . S
Tb20 O25 2.374 . S
Tb20 O33 2.343 . S
Tb20 O35 2.353 . S
Tb20 O37 2.427 . S
Tb20 O38 2.513 . S
C21 O25 1.251 . S
C21 O27 1.263 . S
Tb22 O24 2.343 . S
Tb22 O27 2.353 . S
Tb22 O30 2.427 . S
Tb22 O31 2.513 . S
Tb22 O32 2.453 . S
Tb22 O33 2.596 . S
Tb22 O34 2.374 . S
O23 Tb20 2.453 . S
O23 C39 1.245 . S
O24 Tb20 2.596 . S
O24 Tb22 2.343 . S
O24 C39 1.259 . S
O25 Tb20 2.374 . S
O25 C21 1.251 . S
C26 O30 1.275 . S
C26 O31 1.246 . S
O27 C21 1.263 . S
O27 Tb22 2.353 . S
C28 O32 1.245 . S
C28 O33 1.259 . S
C29 O34 1.250 . S
C29 O35 1.263 . S
O30 Tb22 2.427 . S
O30 C26 1.275 . S
O31 Tb22 2.513 . S
O31 C26 1.246 . S
O32 Tb22 2.453 . S
O32 C28 1.245 . S
O33 Tb20 2.343 . S
O33 Tb22 2.596 . S
O33 C28 1.259 . S
O34 Tb22 2.374 . S
O34 C29 1.250 . S
O35 Tb20 2.353 . S
O35 C29 1.263 . S
C36 O37 1.275 . S
C36 O38 1.246 . S
O37 Tb20 2.427 . S
O37 C36 1.275 . S
O38 Tb20 2.513 . S
O38 C36 1.246 . S
C39 O23 1.245 . S
C39 O24 1.259 . S
Tb40 O43 2.453 . S
Tb40 O44 2.596 . S
Tb40 O45 2.374 . S
Tb40 O53 2.343 . S
Tb40 O55 2.353 . S
Tb40 O57 2.427 . S
Tb40 O58 2.513 . S
C41 O45 1.251 . S
C41 O47 1.263 . S
Tb42 O44 2.343 . S
Tb42 O47 2.353 . S
Tb42 O50 2.427 . S
Tb42 O51 2.513 . S
Tb42 O52 2.453 . S
Tb42 O53 2.596 . S
Tb42 O54 2.374 . S
O43 Tb40 2.453 . S
O43 C59 1.245 . S
O44 Tb40 2.596 . S
O44 Tb42 2.343 . S
O44 C59 1.259 . S
O45 Tb40 2.374 . S
O45 C41 1.251 . S
C46 O50 1.275 . S
C46 O51 1.246 . S
O47 C41 1.263 . S
O47 Tb42 2.353 . S
C48 O52 1.245 . S
C48 O53 1.259 . S
C49 O54 1.250 . S
C49 O55 1.263 . S
O50 Tb42 2.427 . S
O50 C46 1.275 . S
O51 Tb42 2.513 . S
O51 C46 1.246 . S
O52 Tb42 2.453 . S
O52 C48 1.245 . S
O53 Tb40 2.343 . S
O53 Tb42 2.596 . S
O53 C48 1.259 . S
O54 Tb42 2.374 . S
O54 C49 1.250 . S
O55 Tb40 2.353 . S
O55 C49 1.263 . S
C56 O57 1.275 . S
C56 O58 1.246 . S
O57 Tb40 2.427 . S
O57 C56 1.275 . S
O58 Tb40 2.513 . S
O58 C56 1.246 . S
C59 O43 1.245 . S
C59 O44 1.259 . S
Tb60 O63 2.453 . S
Tb60 O64 2.596 . S
Tb60 O65 2.374 . S
Tb60 O73 2.343 . S
Tb60 O75 2.353 . S
Tb60 O77 2.427 1_554 S
Tb60 O78 2.513 1_554 S
C61 O65 1.251 . S
C61 O67 1.263 . S
Tb62 O64 2.343 . S
Tb62 O67 2.353 . S
Tb62 O70 2.427 . S
Tb62 O71 2.513 . S
Tb62 O72 2.453 . S
Tb62 O73 2.596 . S
Tb62 O74 2.374 . S
O63 Tb60 2.453 . S
O63 C79 1.245 . S
O64 Tb60 2.596 . S
O64 Tb62 2.343 . S
O64 C79 1.259 . S
O65 Tb60 2.374 . S
O65 C61 1.251 . S
C66 O70 1.275 . S
C66 O71 1.246 . S
O67 C61 1.263 . S
O67 Tb62 2.353 . S
C68 O72 1.245 . S
C68 O73 1.259 . S
C69 O74 1.250 . S
C69 O75 1.263 . S
O70 Tb62 2.427 . S
O70 C66 1.275 . S
O71 Tb62 2.513 . S
O71 C66 1.246 . S
O72 Tb62 2.453 . S
O72 C68 1.245 . S
O73 Tb60 2.343 . S
O73 Tb62 2.596 . S
O73 C68 1.259 . S
O74 Tb62 2.374 . S
O74 C69 1.250 . S
O75 Tb60 2.353 . S
O75 C69 1.263 . S
C76 O77 1.275 . S
C76 O78 1.246 . S
O77 Tb60 2.427 1_556 S
O77 C76 1.275 . S
O78 Tb60 2.513 1_556 S
O78 C76 1.246 . S
C79 O63 1.245 . S
C79 O64 1.259 . S
Tb80 O83 2.453 . S
Tb80 O84 2.596 . S
Tb80 O85 2.374 . S
Tb80 O93 2.343 . S
Tb80 O95 2.353 . S
Tb80 O97 2.427 . S
Tb80 O98 2.513 . S
C81 O85 1.251 . S
C81 O87 1.263 . S
Tb82 O84 2.343 . S
Tb82 O87 2.353 . S
Tb82 O90 2.427 . S
Tb82 O91 2.513 . S
Tb82 O92 2.453 . S
Tb82 O93 2.596 . S
Tb82 O94 2.374 . S
O83 Tb80 2.453 . S
O83 C99 1.245 . S
O84 Tb80 2.596 . S
O84 Tb82 2.343 . S
O84 C99 1.259 . S
O85 Tb80 2.374 . S
O85 C81 1.251 . S
C86 O90 1.275 . S
C86 O91 1.246 . S
O87 C81 1.263 . S
O87 Tb82 2.353 . S
C88 O92 1.245 . S
C88 O93 1.259 . S
C89 O94 1.250 . S
C89 O95 1.263 . S
O90 Tb82 2.427 . S
O90 C86 1.275 . S
O91 Tb82 2.513 . S
O91 C86 1.246 . S
O92 Tb82 2.453 . S
O92 C88 1.245 . S
O93 Tb80 2.343 . S
O93 Tb82 2.596 . S
O93 C88 1.259 . S
O94 Tb82 2.374 . S
O94 C89 1.250 . S
O95 Tb80 2.353 . S
O95 C89 1.263 . S
C96 O97 1.275 . S
C96 O98 1.246 . S
O97 Tb80 2.427 . S
O97 C96 1.275 . S
O98 Tb80 2.513 . S
O98 C96 1.246 . S
C99 O83 1.245 . S
C99 O84 1.259 . S
Tb100 O103 2.453 . S
Tb100 O104 2.596 . S
Tb100 O105 2.374 . S
Tb100 O113 2.343 . S
Tb100 O115 2.353 . S
Tb100 O117 2.427 . S
Tb100 O118 2.513 . S
C101 O105 1.251 . S
C101 O107 1.263 . S
Tb102 O104 2.343 . S
Tb102 O107 2.353 . S
Tb102 O110 2.427 . S
Tb102 O111 2.513 . S
Tb102 O112 2.453 . S
Tb102 O113 2.596 . S
Tb102 O114 2.374 . S
O103 Tb100 2.453 . S
O103 C119 1.245 . S
O104 Tb100 2.596 . S
O104 Tb102 2.343 . S
O104 C119 1.259 . S
O105 Tb100 2.374 . S
O105 C101 1.251 . S
C106 O110 1.275 . S
C106 O111 1.246 . S
O107 C101 1.263 . S
O107 Tb102 2.353 . S
C108 O112 1.245 . S
C108 O113 1.259 . S
C109 O114 1.250 . S
C109 O115 1.263 . S
O110 Tb102 2.427 . S
O110 C106 1.275 . S
O111 Tb102 2.513 . S
O111 C106 1.246 . S
O112 Tb102 2.453 . S
O112 C108 1.245 . S
O113 Tb100 2.343 . S
O113 Tb102 2.596 . S
O113 C108 1.259 . S
O114 Tb102 2.374 . S
O114 C109 1.250 . S
O115 Tb100 2.353 . S
O115 C109 1.263 . S
C116 O117 1.275 . S
C116 O118 1.246 . S
O117 Tb100 2.427 . S
O117 C116 1.275 . S
O118 Tb100 2.513 . S
O118 C116 1.246 . S
C119 O103 1.245 . S
C119 O104 1.259 . S
Tb120 O123 2.453 . S
Tb120 O124 2.596 . S
Tb120 O125 2.374 . S
Tb120 O133 2.343 . S
Tb120 O135 2.353 . S
Tb120 O137 2.427 . S
Tb120 O138 2.513 . S
C121 O125 1.251 . S
C121 O127 1.263 . S
Tb122 O124 2.343 . S
Tb122 O127 2.353 . S
Tb122 O130 2.427 . S
Tb122 O131 2.513 . S
Tb122 O132 2.453 . S
Tb122 O133 2.596 . S
Tb122 O134 2.374 . S
O123 Tb120 2.453 . S
O123 C139 1.245 . S
O124 Tb120 2.596 . S
O124 Tb122 2.343 . S
O124 C139 1.259 . S
O125 Tb120 2.374 . S
O125 C121 1.251 . S
C126 O130 1.275 . S
C126 O131 1.246 . S
O127 C121 1.263 . S
O127 Tb122 2.353 . S
C128 O132 1.245 . S
C128 O133 1.259 . S
C129 O134 1.250 . S
C129 O135 1.263 . S
O130 Tb122 2.427 . S
O130 C126 1.275 . S
O131 Tb122 2.513 . S
O131 C126 1.246 . S
O132 Tb122 2.453 . S
O132 C128 1.245 . S
O133 Tb120 2.343 . S
O133 Tb122 2.596 . S
O133 C128 1.259 . S
O134 Tb122 2.374 . S
O134 C129 1.250 . S
O135 Tb120 2.353 . S
O135 C129 1.263 . S
C136 O137 1.275 . S
C136 O138 1.246 . S
O137 Tb120 2.427 . S
O137 C136 1.275 . S
O138 Tb120 2.513 . S
O138 C136 1.246 . S
C139 O123 1.245 . S
C139 O124 1.259 . S
Tb140 O143 2.453 . S
Tb140 O144 2.596 . S
Tb140 O145 2.374 . S
Tb140 O153 2.343 . S
Tb140 O155 2.353 . S
Tb140 O157 2.427 1_556 S
Tb140 O158 2.513 1_556 S
C141 O145 1.251 . S
C141 O147 1.263 . S
Tb142 O144 2.343 . S
Tb142 O147 2.353 . S
Tb142 O150 2.427 . S
Tb142 O151 2.513 . S
Tb142 O152 2.453 . S
Tb142 O153 2.596 . S
Tb142 O154 2.374 . S
O143 Tb140 2.453 . S
O143 C159 1.245 . S
O144 Tb140 2.596 . S
O144 Tb142 2.343 . S
O144 C159 1.259 . S
O145 Tb140 2.374 . S
O145 C141 1.251 . S
C146 O150 1.275 . S
C146 O151 1.246 . S
O147 C141 1.263 . S
O147 Tb142 2.353 . S
C148 O152 1.245 . S
C148 O153 1.259 . S
C149 O154 1.250 . S
C149 O155 1.263 . S
O150 Tb142 2.427 . S
O150 C146 1.275 . S
O151 Tb142 2.513 . S
O151 C146 1.246 . S
O152 Tb142 2.453 . S
O152 C148 1.245 . S
O153 Tb140 2.343 . S
O153 Tb142 2.596 . S
O153 C148 1.259 . S
O154 Tb142 2.374 . S
O154 C149 1.250 . S
O155 Tb140 2.353 . S
O155 C149 1.263 . S
C156 O157 1.275 . S
C156 O158 1.246 . S
O157 Tb140 2.427 1_554 S
O157 C156 1.275 . S
O158 Tb140 2.513 1_554 S
O158 C156 1.246 . S
C159 O143 1.245 . S
C159 O144 1.259 . S
Tb160 O163 2.453 . S
Tb160 O164 2.596 . S
Tb160 O165 2.374 . S
Tb160 O173 2.343 . S
Tb160 O175 2.353 . S
Tb160 O177 2.427 . S
Tb160 O178 2.513 . S
C161 O165 1.251 . S
C161 O167 1.263 . S
Tb162 O164 2.343 . S
Tb162 O167 2.353 . S
Tb162 O170 2.427 . S
Tb162 O171 2.513 . S
Tb162 O172 2.453 . S
Tb162 O173 2.596 . S
Tb162 O174 2.374 . S
O163 Tb160 2.453 . S
O163 C179 1.245 . S
O164 Tb160 2.596 . S
O164 Tb162 2.343 . S
O164 C179 1.259 . S
O165 Tb160 2.374 . S
O165 C161 1.251 . S
C166 O170 1.275 . S
C166 O171 1.246 . S
O167 C161 1.263 . S
O167 Tb162 2.353 . S
C168 O172 1.245 . S
C168 O173 1.259 . S
C169 O174 1.250 . S
C169 O175 1.263 . S
O170 Tb162 2.427 . S
O170 C166 1.275 . S
O171 Tb162 2.513 . S
O171 C166 1.246 . S
O172 Tb162 2.453 . S
O172 C168 1.245 . S
O173 Tb160 2.343 . S
O173 Tb162 2.596 . S
O173 C168 1.259 . S
O174 Tb162 2.374 . S
O174 C169 1.250 . S
O175 Tb160 2.353 . S
O175 C169 1.263 . S
C176 O177 1.275 . S
C176 O178 1.246 . S
O177 Tb160 2.427 . S
O177 C176 1.275 . S
O178 Tb160 2.513 . S
O178 C176 1.246 . S
C179 O163 1.245 . S
C179 O164 1.259 . S
Tb180 O183 2.453 . S
Tb180 O184 2.596 . S
Tb180 O185 2.374 . S
Tb180 O193 2.343 . S
Tb180 O195 2.353 . S
Tb180 O197 2.427 . S
Tb180 O198 2.513 . S
C181 O185 1.251 . S
C181 O187 1.263 . S
Tb182 O184 2.343 . S
Tb182 O187 2.353 . S
Tb182 O190 2.427 . S
Tb182 O191 2.513 . S
Tb182 O192 2.453 . S
Tb182 O193 2.596 . S
Tb182 O194 2.374 . S
O183 Tb180 2.453 . S
O183 C199 1.245 . S
O184 Tb180 2.596 . S
O184 Tb182 2.343 . S
O184 C199 1.259 . S
O185 Tb180 2.374 . S
O185 C181 1.251 . S
C186 O190 1.275 . S
C186 O191 1.246 . S
O187 C181 1.263 . S
O187 Tb182 2.353 . S
C188 O192 1.245 . S
C188 O193 1.259 . S
C189 O194 1.250 . S
C189 O195 1.263 . S
O190 Tb182 2.427 . S
O190 C186 1.275 . S
O191 Tb182 2.513 . S
O191 C186 1.246 . S
O192 Tb182 2.453 . S
O192 C188 1.245 . S
O193 Tb180 2.343 . S
O193 Tb182 2.596 . S
O193 C188 1.259 . S
O194 Tb182 2.374 . S
O194 C189 1.250 . S
O195 Tb180 2.353 . S
O195 C189 1.263 . S
C196 O197 1.275 . S
C196 O198 1.246 . S
O197 Tb180 2.427 . S
O197 C196 1.275 . S
O198 Tb180 2.513 . S
O198 C196 1.246 . S
C199 O183 1.245 . S
C199 O184 1.259 . S
Tb200 O203 2.453 . S
Tb200 O204 2.596 . S
Tb200 O205 2.374 . S
Tb200 O213 2.343 . S
Tb200 O215 2.353 . S
Tb200 O217 2.427 . S
Tb200 O218 2.513 . S
C201 O205 1.251 . S
C201 O207 1.263 . S
Tb202 O204 2.343 . S
Tb202 O207 2.353 . S
Tb202 O210 2.427 . S
Tb202 O211 2.513 . S
Tb202 O212 2.453 . S
Tb202 O213 2.596 . S
Tb202 O214 2.374 . S
O203 Tb200 2.453 . S
O203 C219 1.245 . S
O204 Tb200 2.596 . S
O204 Tb202 2.343 . S
O204 C219 1.259 . S
O205 Tb200 2.374 . S
O205 C201 1.251 . S
C206 O210 1.275 . S
C206 O211 1.246 . S
O207 C201 1.263 . S
O207 Tb202 2.353 . S
C208 O212 1.245 . S
C208 O213 1.259 . S
C209 O214 1.250 . S
C209 O215 1.263 . S
O210 Tb202 2.427 . S
O210 C206 1.275 . S
O211 Tb202 2.513 . S
O211 C206 1.246 . S
O212 Tb202 2.453 . S
O212 C208 1.245 . S
O213 Tb200 2.343 . S
O213 Tb202 2.596 . S
O213 C208 1.259 . S
O214 Tb202 2.374 . S
O214 C209 1.250 . S
O215 Tb200 2.353 . S
O215 C209 1.263 . S
C216 O217 1.275 . S
C216 O218 1.246 . S
O217 Tb200 2.427 . S
O217 C216 1.275 . S
O218 Tb200 2.513 . S
O218 C216 1.246 . S
C219 O203 1.245 . S
C219 O204 1.259 . S
Tb220 O223 2.453 . S
Tb220 O224 2.596 . S
Tb220 O225 2.374 . S
Tb220 O233 2.343 . S
Tb220 O235 2.353 . S
Tb220 O237 2.427 . S
Tb220 O238 2.513 . S
C221 O225 1.251 . S
C221 O227 1.263 . S
Tb222 O224 2.343 . S
Tb222 O227 2.353 . S
Tb222 O230 2.427 1_556 S
Tb222 O231 2.513 1_556 S
Tb222 O232 2.453 . S
Tb222 O233 2.596 . S
Tb222 O234 2.374 . S
O223 Tb220 2.453 . S
O223 C239 1.245 . S
O224 Tb220 2.596 . S
O224 Tb222 2.343 . S
O224 C239 1.259 . S
O225 Tb220 2.374 . S
O225 C221 1.251 . S
C226 O230 1.275 . S
C226 O231 1.246 . S
O227 C221 1.263 . S
O227 Tb222 2.353 . S
C228 O232 1.245 . S
C228 O233 1.259 . S
C229 O234 1.250 . S
C229 O235 1.263 . S
O230 Tb222 2.427 1_554 S
O230 C226 1.275 . S
O231 Tb222 2.513 1_554 S
O231 C226 1.246 . S
O232 Tb222 2.453 . S
O232 C228 1.245 . S
O233 Tb220 2.343 . S
O233 Tb222 2.596 . S
O233 C228 1.259 . S
O234 Tb222 2.374 . S
O234 C229 1.250 . S
O235 Tb220 2.353 . S
O235 C229 1.263 . S
C236 O237 1.275 . S
C236 O238 1.246 . S
O237 Tb220 2.427 . S
O237 C236 1.275 . S
O238 Tb220 2.513 . S
O238 C236 1.246 . S
C239 O223 1.245 . S
C239 O224 1.259 . S
Tb240 O243 2.453 . S
Tb240 O244 2.596 . S
Tb240 O245 2.374 . S
Tb240 O253 2.343 . S
Tb240 O255 2.353 . S
Tb240 O257 2.427 . S
Tb240 O258 2.513 . S
C241 O245 1.251 . S
C241 O247 1.263 . S
Tb242 O244 2.343 . S
Tb242 O247 2.353 . S
Tb242 O250 2.427 . S
Tb242 O251 2.513 . S
Tb242 O252 2.453 . S
Tb242 O253 2.596 . S
Tb242 O254 2.374 . S
O243 Tb240 2.453 . S
O243 C259 1.245 . S
O244 Tb240 2.596 . S
O244 Tb242 2.343 . S
O244 C259 1.259 . S
O245 Tb240 2.374 . S
O245 C241 1.251 . S
C246 O250 1.275 . S
C246 O251 1.246 . S
O247 C241 1.263 . S
O247 Tb242 2.353 . S
C248 O252 1.245 . S
C248 O253 1.259 . S
C249 O254 1.250 . S
C249 O255 1.263 . S
O250 Tb242 2.427 . S
O250 C246 1.275 . S
O251 Tb242 2.513 . S
O251 C246 1.246 . S
O252 Tb242 2.453 . S
O252 C248 1.245 . S
O253 Tb240 2.343 . S
O253 Tb242 2.596 . S
O253 C248 1.259 . S
O254 Tb242 2.374 . S
O254 C249 1.250 . S
O255 Tb240 2.353 . S
O255 C249 1.263 . S
C256 O257 1.275 . S
C256 O258 1.246 . S
O257 Tb240 2.427 . S
O257 C256 1.275 . S
O258 Tb240 2.513 . S
O258 C256 1.246 . S
C259 O243 1.245 . S
C259 O244 1.259 . S
Tb260 O263 2.453 . S
Tb260 O264 2.596 . S
Tb260 O265 2.374 . S
Tb260 O273 2.343 . S
Tb260 O275 2.353 . S
Tb260 O277 2.427 . S
Tb260 O278 2.513 . S
C261 O265 1.251 . S
C261 O267 1.263 . S
Tb262 O264 2.343 . S
Tb262 O267 2.353 . S
Tb262 O270 2.427 . S
Tb262 O271 2.513 . S
Tb262 O272 2.453 . S
Tb262 O273 2.596 . S
Tb262 O274 2.374 . S
O263 Tb260 2.453 . S
O263 C279 1.245 . S
O264 Tb260 2.596 . S
O264 Tb262 2.343 . S
O264 C279 1.259 . S
O265 Tb260 2.374 . S
O265 C261 1.251 . S
C266 O270 1.275 . S
C266 O271 1.246 . S
O267 C261 1.263 . S
O267 Tb262 2.353 . S
C268 O272 1.245 . S
C268 O273 1.259 . S
C269 O274 1.250 . S
C269 O275 1.263 . S
O270 Tb262 2.427 . S
O270 C266 1.275 . S
O271 Tb262 2.513 . S
O271 C266 1.246 . S
O272 Tb262 2.453 . S
O272 C268 1.245 . S
O273 Tb260 2.343 . S
O273 Tb262 2.596 . S
O273 C268 1.259 . S
O274 Tb262 2.374 . S
O274 C269 1.250 . S
O275 Tb260 2.353 . S
O275 C269 1.263 . S
C276 O277 1.275 . S
C276 O278 1.246 . S
O277 Tb260 2.427 . S
O277 C276 1.275 . S
O278 Tb260 2.513 . S
O278 C276 1.246 . S
C279 O263 1.245 . S
C279 O264 1.259 . S
Tb280 O283 2.453 . S
Tb280 O284 2.596 . S
Tb280 O285 2.374 . S
Tb280 O293 2.343 . S
Tb280 O295 2.353 . S
Tb280 O297 2.427 . S
Tb280 O298 2.513 . S
C281 O285 1.251 . S
C281 O287 1.263 . S
Tb282 O284 2.343 . S
Tb282 O287 2.353 . S
Tb282 O290 2.427 . S
Tb282 O291 2.513 . S
Tb282 O292 2.453 . S
Tb282 O293 2.596 . S
Tb282 O294 2.374 . S
O283 Tb280 2.453 . S
O283 C299 1.245 . S
O284 Tb280 2.596 . S
O284 Tb282 2.343 . S
O284 C299 1.259 . S
O285 Tb280 2.374 . S
O285 C281 1.251 . S
C286 O290 1.275 . S
C286 O291 1.246 . S
O287 C281 1.263 . S
O287 Tb282 2.353 . S
C288 O292 1.245 . S
C288 O293 1.259 . S
C289 O294 1.250 . S
C289 O295 1.263 . S
O290 Tb282 2.427 . S
O290 C286 1.275 . S
O291 Tb282 2.513 . S
O291 C286 1.246 . S
O292 Tb282 2.453 . S
O292 C288 1.245 . S
O293 Tb280 2.343 . S
O293 Tb282 2.596 . S
O293 C288 1.259 . S
O294 Tb282 2.374 . S
O294 C289 1.250 . S
O295 Tb280 2.353 . S
O295 C289 1.263 . S
C296 O297 1.275 . S
C296 O298 1.246 . S
O297 Tb280 2.427 . S
O297 C296 1.275 . S
O298 Tb280 2.513 . S
O298 C296 1.246 . S
C299 O283 1.245 . S
C299 O284 1.259 . S
Tb300 O303 2.453 . S
Tb300 O304 2.596 . S
Tb300 O305 2.374 . S
Tb300 O313 2.343 . S
Tb300 O315 2.353 . S
Tb300 O317 2.427 . S
Tb300 O318 2.513 . S
C301 O305 1.251 . S
C301 O307 1.263 . S
Tb302 O304 2.343 . S
Tb302 O307 2.353 . S
Tb302 O310 2.427 1_554 S
Tb302 O311 2.513 1_554 S
Tb302 O312 2.453 . S
Tb302 O313 2.596 . S
Tb302 O314 2.374 . S
O303 Tb300 2.453 . S
O303 C319 1.245 . S
O304 Tb300 2.596 . S
O304 Tb302 2.343 . S
O304 C319 1.259 . S
O305 Tb300 2.374 . S
O305 C301 1.251 . S
C306 O310 1.275 . S
C306 O311 1.246 . S
O307 C301 1.263 . S
O307 Tb302 2.353 . S
C308 O312 1.245 . S
C308 O313 1.259 . S
C309 O314 1.250 . S
C309 O315 1.263 . S
O310 Tb302 2.427 1_556 S
O310 C306 1.275 . S
O311 Tb302 2.513 1_556 S
O311 C306 1.246 . S
O312 Tb302 2.453 . S
O312 C308 1.245 . S
O313 Tb300 2.343 . S
O313 Tb302 2.596 . S
O313 C308 1.259 . S
O314 Tb302 2.374 . S
O314 C309 1.250 . S
O315 Tb300 2.353 . S
O315 C309 1.263 . S
C316 O317 1.275 . S
C316 O318 1.246 . S
O317 Tb300 2.427 . S
O317 C316 1.275 . S
O318 Tb300 2.513 . S
O318 C316 1.246 . S
C319 O303 1.245 . S
C319 O304 1.259 . S
Tb320 O323 2.453 . S
Tb320 O324 2.596 . S
Tb320 O325 2.374 . S
Tb320 O333 2.343 . S
Tb320 O335 2.353 . S
Tb320 O337 2.427 . S
Tb320 O338 2.513 . S
C321 O325 1.251 . S
C321 O327 1.263 . S
Tb322 O324 2.343 . S
Tb322 O327 2.353 . S
Tb322 O330 2.427 . S
Tb322 O331 2.513 . S
Tb322 O332 2.453 . S
Tb322 O333 2.596 . S
Tb322 O334 2.374 . S
O323 Tb320 2.453 . S
O323 C339 1.245 . S
O324 Tb320 2.596 . S
O324 Tb322 2.343 . S
O324 C339 1.259 . S
O325 Tb320 2.374 . S
O325 C321 1.251 . S
C326 O330 1.275 . S
C326 O331 1.246 . S
O327 C321 1.263 . S
O327 Tb322 2.353 . S
C328 O332 1.245 . S
C328 O333 1.259 . S
C329 O334 1.250 . S
C329 O335 1.263 . S
O330 Tb322 2.427 . S
O330 C326 1.275 . S
O331 Tb322 2.513 . S
O331 C326 1.246 . S
O332 Tb322 2.453 . S
O332 C328 1.245 . S
O333 Tb320 2.343 . S
O333 Tb322 2.596 . S
O333 C328 1.259 . S
O334 Tb322 2.374 . S
O334 C329 1.250 . S
O335 Tb320 2.353 . S
O335 C329 1.263 . S
C336 O337 1.275 . S
C336 O338 1.246 . S
O337 Tb320 2.427 . S
O337 C336 1.275 . S
O338 Tb320 2.513 . S
O338 C336 1.246 . S
C339 O323 1.245 . S
C339 O324 1.259 . S
Tb340 O343 2.453 . S
Tb340 O344 2.596 . S
Tb340 O345 2.374 . S
Tb340 O353 2.343 . S
Tb340 O355 2.353 . S
Tb340 O357 2.427 1_554 S
Tb340 O358 2.513 1_554 S
C341 O345 1.251 . S
C341 O347 1.263 . S
Tb342 O344 2.343 . S
Tb342 O347 2.353 . S
Tb342 O350 2.427 . S
Tb342 O351 2.513 . S
Tb342 O352 2.453 . S
Tb342 O353 2.596 . S
Tb342 O354 2.374 . S
O343 Tb340 2.453 . S
O343 C359 1.245 . S
O344 Tb340 2.596 . S
O344 Tb342 2.343 . S
O344 C359 1.259 . S
O345 Tb340 2.374 . S
O345 C341 1.251 . S
C346 O350 1.275 . S
C346 O351 1.246 . S
O347 C341 1.263 . S
O347 Tb342 2.353 . S
C348 O352 1.245 . S
C348 O353 1.259 . S
C349 O354 1.250 . S
C349 O355 1.263 . S
O350 Tb342 2.427 . S
O350 C346 1.275 . S
O351 Tb342 2.513 . S
O351 C346 1.246 . S
O352 Tb342 2.453 . S
O352 C348 1.245 . S
O353 Tb340 2.343 . S
O353 Tb342 2.596 . S
O353 C348 1.259 . S
O354 Tb342 2.374 . S
O354 C349 1.250 . S
O355 Tb340 2.353 . S
O355 C349 1.263 . S
C356 O357 1.275 . S
C356 O358 1.246 . S
O357 Tb340 2.427 1_556 S
O357 C356 1.275 . S
O358 Tb340 2.513 1_556 S
O358 C356 1.246 . S
C359 O343 1.245 . S
C359 O344 1.259 . S
Tb360 O363 2.453 . S
Tb360 O364 2.596 . S
Tb360 O365 2.374 . S
Tb360 O373 2.343 . S
Tb360 O375 2.353 . S
Tb360 O377 2.427 . S
Tb360 O378 2.513 . S
C361 O365 1.251 . S
C361 O367 1.263 . S
Tb362 O364 2.343 . S
Tb362 O367 2.353 . S
Tb362 O370 2.427 . S
Tb362 O371 2.513 . S
Tb362 O372 2.453 . S
Tb362 O373 2.596 . S
Tb362 O374 2.374 . S
O363 Tb360 2.453 . S
O363 C379 1.245 . S
O364 Tb360 2.596 . S
O364 Tb362 2.343 . S
O364 C379 1.259 . S
O365 Tb360 2.374 . S
O365 C361 1.251 . S
C366 O370 1.275 . S
C366 O371 1.246 . S
O367 C361 1.263 . S
O367 Tb362 2.353 . S
C368 O372 1.245 . S
C368 O373 1.259 . S
C369 O374 1.250 . S
C369 O375 1.263 . S
O370 Tb362 2.427 . S
O370 C366 1.275 . S
O371 Tb362 2.513 . S
O371 C366 1.246 . S
O372 Tb362 2.453 . S
O372 C368 1.245 . S
O373 Tb360 2.343 . S
O373 Tb362 2.596 . S
O373 C368 1.259 . S
O374 Tb362 2.374 . S
O374 C369 1.250 . S
O375 Tb360 2.353 . S
O375 C369 1.263 . S
C376 O377 1.275 . S
C376 O378 1.246 . S
O377 Tb360 2.427 . S
O377 C376 1.275 . S
O378 Tb360 2.513 . S
O378 C376 1.246 . S
C379 O363 1.245 . S
C379 O364 1.259 . S
Tb380 O383 2.453 . S
Tb380 O384 2.596 . S
Tb380 O385 2.374 . S
Tb380 O393 2.343 . S
Tb380 O395 2.353 . S
Tb380 O397 2.427 . S
Tb380 O398 2.513 . S
C381 O385 1.251 . S
C381 O387 1.263 . S
Tb382 O384 2.343 . S
Tb382 O387 2.353 . S
Tb382 O390 2.427 . S
Tb382 O391 2.513 . S
Tb382 O392 2.453 . S
Tb382 O393 2.596 . S
Tb382 O394 2.374 . S
O383 Tb380 2.453 . S
O383 C399 1.245 . S
O384 Tb380 2.596 . S
O384 Tb382 2.343 . S
O384 C399 1.259 . S
O385 Tb380 2.374 . S
O385 C381 1.251 . S
C386 O390 1.275 . S
C386 O391 1.246 . S
O387 C381 1.263 . S
O387 Tb382 2.353 . S
C388 O392 1.245 . S
C388 O393 1.259 . S
C389 O394 1.250 . S
C389 O395 1.263 . S
O390 Tb382 2.427 . S
O390 C386 1.275 . S
O391 Tb382 2.513 . S
O391 C386 1.246 . S
O392 Tb382 2.453 . S
O392 C388 1.245 . S
O393 Tb380 2.343 . S
O393 Tb382 2.596 . S
O393 C388 1.259 . S
O394 Tb382 2.374 . S
O394 C389 1.250 . S
O395 Tb380 2.353 . S
O395 C389 1.263 . S
C396 O397 1.275 . S
C396 O398 1.246 . S
O397 Tb380 2.427 . S
O397 C396 1.275 . S
O398 Tb380 2.513 . S
O398 C396 1.246 . S
C399 O383 1.245 . S
C399 O384 1.259 . S
Tb400 O403 2.453 . S
Tb400 O404 2.596 . S
Tb400 O405 2.374 . S
Tb400 O413 2.343 . S
Tb400 O415 2.353 . S
Tb400 O417 2.427 . S
Tb400 O418 2.513 . S
C401 O405 1.251 . S
C401 O407 1.263 . S
Tb402 O404 2.343 . S
Tb402 O407 2.353 . S
Tb402 O410 2.427 . S
Tb402 O411 2.513 . S
Tb402 O412 2.453 . S
Tb402 O413 2.596 . S
Tb402 O414 2.374 . S
O403 Tb400 2.453 . S
O403 C419 1.245 . S
O404 Tb400 2.596 . S
O404 Tb402 2.343 . S
O404 C419 1.259 . S
O405 Tb400 2.374 . S
O405 C401 1.251 . S
C406 O410 1.275 . S
C406 O411 1.246 . S
O407 C401 1.263 . S
O407 Tb402 2.353 . S
C408 O412 1.245 . S
C408 O413 1.259 . S
C409 O414 1.250 . S
C409 O415 1.263 . S
O410 Tb402 2.427 . S
O410 C406 1.275 . S
O411 Tb402 2.513 . S
O411 C406 1.246 . S
O412 Tb402 2.453 . S
O412 C408 1.245 . S
O413 Tb400 2.343 . S
O413 Tb402 2.596 . S
O413 C408 1.259 . S
O414 Tb402 2.374 . S
O414 C409 1.250 . S
O415 Tb400 2.353 . S
O415 C409 1.263 . S
C416 O417 1.275 . S
C416 O418 1.246 . S
O417 Tb400 2.427 . S
O417 C416 1.275 . S
O418 Tb400 2.513 . S
O418 C416 1.246 . S
C419 O403 1.245 . S
C419 O404 1.259 . S
Tb420 O423 2.453 . S
Tb420 O424 2.596 . S
Tb420 O425 2.374 . S
Tb420 O433 2.343 . S
Tb420 O435 2.353 . S
Tb420 O437 2.427 1_556 S
Tb420 O438 2.513 1_556 S
C421 O425 1.251 . S
C421 O427 1.263 . S
Tb422 O424 2.343 . S
Tb422 O427 2.353 . S
Tb422 O430 2.427 . S
Tb422 O431 2.513 . S
Tb422 O432 2.453 . S
Tb422 O433 2.596 . S
Tb422 O434 2.374 . S
O423 Tb420 2.453 . S
O423 C439 1.245 . S
O424 Tb420 2.596 . S
O424 Tb422 2.343 . S
O424 C439 1.259 . S
O425 Tb420 2.374 . S
O425 C421 1.251 . S
C426 O430 1.275 . S
C426 O431 1.246 . S
O427 C421 1.263 . S
O427 Tb422 2.353 . S
C428 O432 1.245 . S
C428 O433 1.259 . S
C429 O434 1.250 . S
C429 O435 1.263 . S
O430 Tb422 2.427 . S
O430 C426 1.275 . S
O431 Tb422 2.513 . S
O431 C426 1.246 . S
O432 Tb422 2.453 . S
O432 C428 1.245 . S
O433 Tb420 2.343 . S
O433 Tb422 2.596 . S
O433 C428 1.259 . S
O434 Tb422 2.374 . S
O434 C429 1.250 . S
O435 Tb420 2.353 . S
O435 C429 1.263 . S
C436 O437 1.275 . S
C436 O438 1.246 . S
O437 Tb420 2.427 1_554 S
O437 C436 1.275 . S
O438 Tb420 2.513 1_554 S
O438 C436 1.246 . S
C439 O423 1.245 . S
C439 O424 1.259 . S
Tb440 O443 2.453 . S
Tb440 O444 2.596 . S
Tb440 O445 2.374 . S
Tb440 O453 2.343 . S
Tb440 O455 2.353 . S
Tb440 O457 2.427 . S
Tb440 O458 2.513 . S
C441 O445 1.251 . S
C441 O447 1.263 . S
Tb442 O444 2.343 . S
Tb442 O447 2.353 . S
Tb442 O450 2.427 . S
Tb442 O451 2.513 . S
Tb442 O452 2.453 . S
Tb442 O453 2.596 . S
Tb442 O454 2.374 . S
O443 Tb440 2.453 . S
O443 C459 1.245 . S
O444 Tb440 2.596 . S
O444 Tb442 2.343 . S
O444 C459 1.259 . S
O445 Tb440 2.374 . S
O445 C441 1.251 . S
C446 O450 1.275 . S
C446 O451 1.246 . S
O447 C441 1.263 . S
O447 Tb442 2.353 . S
C448 O452 1.245 . S
C448 O453 1.259 . S
C449 O454 1.250 . S
C449 O455 1.263 . S
O450 Tb442 2.427 . S
O450 C446 1.275 . S
O451 Tb442 2.513 . S
O451 C446 1.246 . S
O452 Tb442 2.453 . S
O452 C448 1.245 . S
O453 Tb440 2.343 . S
O453 Tb442 2.596 . S
O453 C448 1.259 . S
O454 Tb442 2.374 . S
O454 C449 1.250 . S
O455 Tb440 2.353 . S
O455 C449 1.263 . S
C456 O457 1.275 . S
C456 O458 1.246 . S
O457 Tb440 2.427 . S
O457 C456 1.275 . S
O458 Tb440 2.513 . S
O458 C456 1.246 . S
C459 O443 1.245 . S
C459 O444 1.259 . S
Tb460 O463 2.453 . S
Tb460 O464 2.596 . S
Tb460 O465 2.374 . S
Tb460 O473 2.343 . S
Tb460 O475 2.353 . S
Tb460 O477 2.427 . S
Tb460 O478 2.513 . S
C461 O465 1.251 . S
C461 O467 1.263 . S
Tb462 O464 2.343 . S
Tb462 O467 2.353 . S
Tb462 O470 2.427 . S
Tb462 O471 2.513 . S
Tb462 O472 2.453 . S
Tb462 O473 2.596 . S
Tb462 O474 2.374 . S
O463 Tb460 2.453 . S
O463 C479 1.245 . S
O464 Tb460 2.596 . S
O464 Tb462 2.343 . S
O464 C479 1.259 . S
O465 Tb460 2.374 . S
O465 C461 1.251 . S
C466 O470 1.275 . S
C466 O471 1.246 . S
O467 C461 1.263 . S
O467 Tb462 2.353 . S
C468 O472 1.245 . S
C468 O473 1.259 . S
C469 O474 1.250 . S
C469 O475 1.263 . S
O470 Tb462 2.427 . S
O470 C466 1.275 . S
O471 Tb462 2.513 . S
O471 C466 1.246 . S
O472 Tb462 2.453 . S
O472 C468 1.245 . S
O473 Tb460 2.343 . S
O473 Tb462 2.596 . S
O473 C468 1.259 . S
O474 Tb462 2.374 . S
O474 C469 1.250 . S
O475 Tb460 2.353 . S
O475 C469 1.263 . S
C476 O477 1.275 . S
C476 O478 1.246 . S
O477 Tb460 2.427 . S
O477 C476 1.275 . S
O478 Tb460 2.513 . S
O478 C476 1.246 . S
C479 O463 1.245 . S
C479 O464 1.259 . S
Tb480 O483 2.453 . S
Tb480 O484 2.596 . S
Tb480 O485 2.374 . S
Tb480 O493 2.343 . S
Tb480 O495 2.353 . S
Tb480 O497 2.427 . S
Tb480 O498 2.513 . S
C481 O485 1.251 . S
C481 O487 1.263 . S
Tb482 O484 2.343 . S
Tb482 O487 2.353 . S
Tb482 O490 2.427 . S
Tb482 O491 2.513 . S
Tb482 O492 2.453 . S
Tb482 O493 2.596 . S
Tb482 O494 2.374 . S
O483 Tb480 2.453 . S
O483 C499 1.245 . S
O484 Tb480 2.596 . S
O484 Tb482 2.343 . S
O484 C499 1.259 . S
O485 Tb480 2.374 . S
O485 C481 1.251 . S
C486 O490 1.275 . S
C486 O491 1.246 . S
O487 C481 1.263 . S
O487 Tb482 2.353 . S
C488 O492 1.245 . S
C488 O493 1.259 . S
C489 O494 1.250 . S
C489 O495 1.263 . S
O490 Tb482 2.427 . S
O490 C486 1.275 . S
O491 Tb482 2.513 . S
O491 C486 1.246 . S
O492 Tb482 2.453 . S
O492 C488 1.245 . S
O493 Tb480 2.343 . S
O493 Tb482 2.596 . S
O493 C488 1.259 . S
O494 Tb482 2.374 . S
O494 C489 1.250 . S
O495 Tb480 2.353 . S
O495 C489 1.263 . S
C496 O497 1.275 . S
C496 O498 1.246 . S
O497 Tb480 2.427 . S
O497 C496 1.275 . S
O498 Tb480 2.513 . S
O498 C496 1.246 . S
C499 O483 1.245 . S
C499 O484 1.259 . S
Tb500 O503 2.453 . S
Tb500 O504 2.596 . S
Tb500 O505 2.374 . S
Tb500 O513 2.343 . S
Tb500 O515 2.353 . S
Tb500 O517 2.427 . S
Tb500 O518 2.513 . S
C501 O505 1.251 . S
C501 O507 1.263 . S
Tb502 O504 2.343 . S
Tb502 O507 2.353 . S
Tb502 O510 2.427 1_556 S
Tb502 O511 2.513 1_556 S
Tb502 O512 2.453 . S
Tb502 O513 2.596 . S
Tb502 O514 2.374 . S
O503 Tb500 2.453 . S
O503 C519 1.245 . S
O504 Tb500 2.596 . S
O504 Tb502 2.343 . S
O504 C519 1.259 . S
O505 Tb500 2.374 . S
O505 C501 1.251 . S
C506 O510 1.275 . S
C506 O511 1.246 . S
O507 C501 1.263 . S
O507 Tb502 2.353 . S
C508 O512 1.245 . S
C508 O513 1.259 . S
C509 O514 1.250 . S
C509 O515 1.263 . S
O510 Tb502 2.427 1_554 S
O510 C506 1.275 . S
O511 Tb502 2.513 1_554 S
O511 C506 1.246 . S
O512 Tb502 2.453 . S
O512 C508 1.245 . S
O513 Tb500 2.343 . S
O513 Tb502 2.596 . S
O513 C508 1.259 . S
O514 Tb502 2.374 . S
O514 C509 1.250 . S
O515 Tb500 2.353 . S
O515 C509 1.263 . S
C516 O517 1.275 . S
C516 O518 1.246 . S
O517 Tb500 2.427 . S
O517 C516 1.275 . S
O518 Tb500 2.513 . S
O518 C516 1.246 . S
C519 O503 1.245 . S
C519 O504 1.259 . S
Tb520 O523 2.453 . S
Tb520 O524 2.596 . S
Tb520 O525 2.374 . S
Tb520 O533 2.343 . S
Tb520 O535 2.353 . S
Tb520 O537 2.427 . S
Tb520 O538 2.513 . S
C521 O525 1.251 . S
C521 O527 1.263 . S
Tb522 O524 2.343 . S
Tb522 O527 2.353 . S
Tb522 O530 2.427 . S
Tb522 O531 2.513 . S
Tb522 O532 2.453 . S
Tb522 O533 2.596 . S
Tb522 O534 2.374 . S
O523 Tb520 2.453 . S
O523 C539 1.245 . S
O524 Tb520 2.596 . S
O524 Tb522 2.343 . S
O524 C539 1.259 . S
O525 Tb520 2.374 . S
O525 C521 1.251 . S
C526 O530 1.275 . S
C526 O531 1.246 . S
O527 C521 1.263 . S
O527 Tb522 2.353 . S
C528 O532 1.245 . S
C528 O533 1.259 . S
C529 O534 1.250 . S
C529 O535 1.263 . S
O530 Tb522 2.427 . S
O530 C526 1.275 . S
O531 Tb522 2.513 . S
O531 C526 1.246 . S
O532 Tb522 2.453 . S
O532 C528 1.245 . S
O533 Tb520 2.343 . S
O533 Tb522 2.596 . S
O533 C528 1.259 . S
O534 Tb522 2.374 . S
O534 C529 1.250 . S
O535 Tb520 2.353 . S
O535 C529 1.263 . S
C536 O537 1.275 . S
C536 O538 1.246 . S
O537 Tb520 2.427 . S
O537 C536 1.275 . S
O538 Tb520 2.513 . S
O538 C536 1.246 . S
C539 O523 1.245 . S
C539 O524 1.259 . S
Tb540 O543 2.453 . S
Tb540 O544 2.596 . S
Tb540 O545 2.374 . S
Tb540 O553 2.343 . S
Tb540 O555 2.353 . S
Tb540 O557 2.427 . S
Tb540 O558 2.513 . S
C541 O545 1.251 . S
C541 O547 1.263 . S
Tb542 O544 2.343 . S
Tb542 O547 2.353 . S
Tb542 O550 2.427 . S
Tb542 O551 2.513 . S
Tb542 O552 2.453 . S
Tb542 O553 2.596 . S
Tb542 O554 2.374 . S
O543 Tb540 2.453 . S
O543 C559 1.245 . S
O544 Tb540 2.596 . S
O544 Tb542 2.343 . S
O544 C559 1.259 . S
O545 Tb540 2.374 . S
O545 C541 1.251 . S
C546 O550 1.275 . S
C546 O551 1.246 . S
O547 C541 1.263 . S
O547 Tb542 2.353 . S
C548 O552 1.245 . S
C548 O553 1.259 . S
C549 O554 1.250 . S
C549 O555 1.263 . S
O550 Tb542 2.427 . S
O550 C546 1.275 . S
O551 Tb542 2.513 . S
O551 C546 1.246 . S
O552 Tb542 2.453 . S
O552 C548 1.245 . S
O553 Tb540 2.343 . S
O553 Tb542 2.596 . S
O553 C548 1.259 . S
O554 Tb542 2.374 . S
O554 C549 1.250 . S
O555 Tb540 2.353 . S
O555 C549 1.263 . S
C556 O557 1.275 . S
C556 O558 1.246 . S
O557 Tb540 2.427 . S
O557 C556 1.275 . S
O558 Tb540 2.513 . S
O558 C556 1.246 . S
C559 O543 1.245 . S
C559 O544 1.259 . S
Tb560 O563 2.453 . S
Tb560 O564 2.596 . S
Tb560 O565 2.374 . S
Tb560 O573 2.343 . S
Tb560 O575 2.353 . S
Tb560 O577 2.427 . S
Tb560 O578 2.513 . S
C561 O565 1.251 . S
C561 O567 1.263 . S
Tb562 O564 2.343 . S
Tb562 O567 2.353 . S
Tb562 O570 2.427 . S
Tb562 O571 2.513 . S
Tb562 O572 2.453 . S
Tb562 O573 2.596 . S
Tb562 O574 2.374 . S
O563 Tb560 2.453 . S
O563 C579 1.245 . S
O564 Tb560 2.596 . S
O564 Tb562 2.343 . S
O564 C579 1.259 . S
O565 Tb560 2.374 . S
O565 C561 1.251 . S
C566 O570 1.275 . S
C566 O571 1.246 . S
O567 C561 1.263 . S
O567 Tb562 2.353 . S
C568 O572 1.245 . S
C568 O573 1.259 . S
C569 O574 1.250 . S
C569 O575 1.263 . S
O570 Tb562 2.427 . S
O570 C566 1.275 . S
O571 Tb562 2.513 . S
O571 C566 1.246 . S
O572 Tb562 2.453 . S
O572 C568 1.245 . S
O573 Tb560 2.343 . S
O573 Tb562 2.596 . S
O573 C568 1.259 . S
O574 Tb562 2.374 . S
O574 C569 1.250 . S
O575 Tb560 2.353 . S
O575 C569 1.263 . S
C576 O577 1.275 . S
C576 O578 1.246 . S
O577 Tb560 2.427 . S
O577 C576 1.275 . S
O578 Tb560 2.513 . S
O578 C576 1.246 . S
C579 O563 1.245 . S
C579 O564 1.259 . S
Tb580 O583 2.453 . S
Tb580 O584 2.596 . S
Tb580 O585 2.374 . S
Tb580 O593 2.343 . S
Tb580 O595 2.353 . S
Tb580 O597 2.427 . S
Tb580 O598 2.513 . S
C581 O585 1.251 . S
C581 O587 1.263 . S
Tb582 O584 2.343 . S
Tb582 O587 2.353 . S
Tb582 O590 2.427 1_554 S
Tb582 O591 2.513 1_554 S
Tb582 O592 2.453 . S
Tb582 O593 2.596 . S
Tb582 O594 2.374 . S
O583 Tb580 2.453 . S
O583 C599 1.245 . S
O584 Tb580 2.596 . S
O584 Tb582 2.343 . S
O584 C599 1.259 . S
O585 Tb580 2.374 . S
O585 C581 1.251 . S
C586 O590 1.275 . S
C586 O591 1.246 . S
O587 C581 1.263 . S
O587 Tb582 2.353 . S
C588 O592 1.245 . S
C588 O593 1.259 . S
C589 O594 1.250 . S
C589 O595 1.263 . S
O590 Tb582 2.427 1_556 S
O590 C586 1.275 . S
O591 Tb582 2.513 1_556 S
O591 C586 1.246 . S
O592 Tb582 2.453 . S
O592 C588 1.245 . S
O593 Tb580 2.343 . S
O593 Tb582 2.596 . S
O593 C588 1.259 . S
O594 Tb582 2.374 . S
O594 C589 1.250 . S
O595 Tb580 2.353 . S
O595 C589 1.263 . S
C596 O597 1.275 . S
C596 O598 1.246 . S
O597 Tb580 2.427 . S
O597 C596 1.275 . S
O598 Tb580 2.513 . S
O598 C596 1.246 . S
C599 O583 1.245 . S
C599 O584 1.259 . S
Tb600 O603 2.453 . S
Tb600 O604 2.596 . S
Tb600 O605 2.374 . S
Tb600 O613 2.343 . S
Tb600 O615 2.353 . S
Tb600 O617 2.427 . S
Tb600 O618 2.513 . S
C601 O605 1.251 . S
C601 O607 1.263 . S
Tb602 O604 2.343 . S
Tb602 O607 2.353 . S
Tb602 O610 2.427 . S
Tb602 O611 2.513 . S
Tb602 O612 2.453 . S
Tb602 O613 2.596 . S
Tb602 O614 2.374 . S
O603 Tb600 2.453 . S
O603 C619 1.245 . S
O604 Tb600 2.596 . S
O604 Tb602 2.343 . S
O604 C619 1.259 . S
O605 Tb600 2.374 . S
O605 C601 1.251 . S
C606 O610 1.275 . S
C606 O611 1.246 . S
O607 C601 1.263 . S
O607 Tb602 2.353 . S
C608 O612 1.245 . S
C608 O613 1.259 . S
C609 O614 1.250 . S
C609 O615 1.263 . S
O610 Tb602 2.427 . S
O610 C606 1.275 . S
O611 Tb602 2.513 . S
O611 C606 1.246 . S
O612 Tb602 2.453 . S
O612 C608 1.245 . S
O613 Tb600 2.343 . S
O613 Tb602 2.596 . S
O613 C608 1.259 . S
O614 Tb602 2.374 . S
O614 C609 1.250 . S
O615 Tb600 2.353 . S
O615 C609 1.263 . S
C616 O617 1.275 . S
C616 O618 1.246 . S
O617 Tb600 2.427 . S
O617 C616 1.275 . S
O618 Tb600 2.513 . S
O618 C616 1.246 . S
C619 O603 1.245 . S
C619 O604 1.259 . S
Tb620 O623 2.453 . S
Tb620 O624 2.596 . S
Tb620 O625 2.374 . S
Tb620 O633 2.343 . S
Tb620 O635 2.353 . S
Tb620 O637 2.427 . S
Tb620 O638 2.513 . S
C621 O625 1.251 . S
C621 O627 1.263 . S
Tb622 O624 2.343 . S
Tb622 O627 2.353 . S
Tb622 O630 2.427 . S
Tb622 O631 2.513 . S
Tb622 O632 2.453 . S
Tb622 O633 2.596 . S
Tb622 O634 2.374 . S
O623 Tb620 2.453 . S
O623 C639 1.245 . S
O624 Tb620 2.596 . S
O624 Tb622 2.343 . S
O624 C639 1.259 . S
O625 Tb620 2.374 . S
O625 C621 1.251 . S
C626 O630 1.275 . S
C626 O631 1.246 . S
O627 C621 1.263 . S
O627 Tb622 2.353 . S
C628 O632 1.245 . S
C628 O633 1.259 . S
C629 O634 1.250 . S
C629 O635 1.263 . S
O630 Tb622 2.427 . S
O630 C626 1.275 . S
O631 Tb622 2.513 . S
O631 C626 1.246 . S
O632 Tb622 2.453 . S
O632 C628 1.245 . S
O633 Tb620 2.343 . S
O633 Tb622 2.596 . S
O633 C628 1.259 . S
O634 Tb622 2.374 . S
O634 C629 1.250 . S
O635 Tb620 2.353 . S
O635 C629 1.263 . S
C636 O637 1.275 . S
C636 O638 1.246 . S
O637 Tb620 2.427 . S
O637 C636 1.275 . S
O638 Tb620 2.513 . S
O638 C636 1.246 . S
C639 O623 1.245 . S
C639 O624 1.259 . S
H640 C648 0.950 . S
H641 C653 0.950 . S
H642 C650 0.950 . S
H643 C652 0.950 . S
H644 C654 0.950 . S
H645 C656 0.950 . S
H646 C658 0.950 . S
H647 C659 0.950 . S
C648 H640 0.950 . S
C648 C649 1.386 . S
C648 C650 1.391 . S
C649 C648 1.386 . S
C649 C653 1.393 . S
C650 H642 0.950 . S
C650 C648 1.391 . S
C650 C651 1.400 . S
C651 C650 1.400 . S
C651 C652 1.398 . S
C651 C657 1.491 . S
C652 H643 0.950 . S
C652 C651 1.398 . S
C652 C653 1.391 . S
C653 H641 0.950 . S
C653 C649 1.393 . S
C653 C652 1.391 . S
C654 H644 0.950 . S
C654 C655 1.386 . S
C654 C656 1.391 . S
C655 C654 1.386 . S
C655 C659 1.393 . S
C656 H645 0.950 . S
C656 C654 1.391 . S
C656 C657 1.400 . S
C657 C651 1.491 . S
C657 C656 1.400 . S
C657 C658 1.398 . S
C658 H646 0.950 . S
C658 C657 1.398 . S
C658 C659 1.391 . S
C659 H647 0.950 . S
C659 C655 1.393 . S
C659 C658 1.391 . S
H660 C668 0.950 . S
H661 C673 0.950 . S
H662 C670 0.950 . S
H663 C672 0.950 1_565 S
H664 C674 0.950 . S
H665 C676 0.950 . S
H666 C678 0.960 . S
H667 C679 0.950 . S
C668 H660 0.950 . S
C668 C669 1.386 . S
C668 C670 1.391 . S
C669 C668 1.386 . S
C669 C673 1.393 . S
C670 H662 0.950 . S
C670 C668 1.391 . S
C670 C671 1.400 . S
C671 C670 1.400 . S
C671 C672 1.398 . S
C671 C677 1.491 1_545 S
C672 H663 0.950 1_545 S
C672 C671 1.398 . S
C672 C673 1.391 . S
C673 H661 0.950 . S
C673 C669 1.393 . S
C673 C672 1.391 . S
C674 H664 0.950 . S
C674 C675 1.386 . S
C674 C676 1.391 . S
C675 C674 1.386 . S
C675 C679 1.393 . S
C676 H665 0.950 . S
C676 C674 1.391 . S
C676 C677 1.400 . S
C677 C671 1.491 1_565 S
C677 C676 1.400 . S
C677 C678 1.396 1_565 S
C678 H666 0.960 . S
C678 C677 1.396 1_545 S
C678 C679 1.383 1_545 S
C679 H667 0.950 . S
C679 C675 1.393 . S
C679 C678 1.383 1_565 S
H680 C688 0.950 . S
H681 C693 0.950 . S
H682 C690 0.950 . S
H683 C692 0.950 . S
H684 C694 0.950 . S
H685 C696 0.950 . S
H686 C698 0.950 . S
H687 C699 0.950 . S
C688 H680 0.950 . S
C688 C689 1.386 . S
C688 C690 1.391 . S
C689 C688 1.386 . S
C689 C693 1.393 . S
C690 H682 0.950 . S
C690 C688 1.391 . S
C690 C691 1.400 . S
C691 C690 1.400 . S
C691 C692 1.398 . S
C691 C697 1.491 . S
C692 H683 0.950 . S
C692 C691 1.398 . S
C692 C693 1.391 . S
C693 H681 0.950 . S
C693 C689 1.393 . S
C693 C692 1.391 . S
C694 H684 0.950 . S
C694 C695 1.386 . S
C694 C696 1.391 . S
C695 C694 1.386 . S
C695 C699 1.393 . S
C696 H685 0.950 . S
C696 C694 1.391 . S
C696 C697 1.400 . S
C697 C691 1.491 . S
C697 C696 1.400 . S
C697 C698 1.398 . S
C698 H686 0.950 . S
C698 C697 1.398 . S
C698 C699 1.391 . S
C699 H687 0.950 . S
C699 C695 1.393 . S
C699 C698 1.391 . S
H700 C708 0.950 . S
H701 C713 0.950 . S
H702 C710 0.950 . S
H703 C712 0.950 . S
H704 C714 0.950 . S
H705 C716 0.950 . S
H706 C718 0.950 . S
H707 C719 0.948 1_554 S
C708 H700 0.950 . S
C708 C709 1.386 . S
C708 C710 1.391 . S
C709 C708 1.386 . S
C709 C713 1.393 . S
C710 H702 0.950 . S
C710 C708 1.391 . S
C710 C711 1.400 . S
C711 C710 1.400 . S
C711 C712 1.398 . S
C711 C717 1.491 1_565 S
C712 H703 0.950 . S
C712 C711 1.398 . S
C712 C713 1.391 . S
C713 H701 0.950 . S
C713 C709 1.393 . S
C713 C712 1.391 . S
C714 H704 0.950 . S
C714 C715 1.386 . S
C714 C716 1.391 . S
C715 C714 1.386 . S
C715 C719 1.393 . S
C716 H705 0.950 . S
C716 C714 1.391 . S
C716 C717 1.400 . S
C717 C711 1.491 1_545 S
C717 C716 1.400 . S
C717 C718 1.398 . S
C718 H706 0.950 . S
C718 C717 1.398 . S
C718 C719 1.391 . S
C719 H707 0.948 1_556 S
C719 C715 1.393 . S
C719 C718 1.391 . S
H720 C728 0.950 . S
H721 C733 0.950 . S
H722 C730 0.950 . S
H723 C732 0.950 . S
H724 C734 0.950 . S
H725 C736 0.950 . S
H726 C738 0.950 . S
H727 C739 0.950 . S
C728 H720 0.950 . S
C728 C729 1.386 . S
C728 C730 1.391 . S
C729 C728 1.386 . S
C729 C733 1.393 . S
C730 H722 0.950 . S
C730 C728 1.391 . S
C730 C731 1.400 . S
C731 C730 1.400 . S
C731 C732 1.398 . S
C731 C737 1.491 . S
C732 H723 0.950 . S
C732 C731 1.398 . S
C732 C733 1.391 . S
C733 H721 0.950 . S
C733 C729 1.393 . S
C733 C732 1.391 . S
C734 H724 0.950 . S
C734 C735 1.386 . S
C734 C736 1.391 . S
C735 C734 1.386 . S
C735 C739 1.393 . S
C736 H725 0.950 . S
C736 C734 1.391 . S
C736 C737 1.400 . S
C737 C731 1.491 . S
C737 C736 1.400 . S
C737 C738 1.398 . S
C738 H726 0.950 . S
C738 C737 1.398 . S
C738 C739 1.391 . S
C739 H727 0.950 . S
C739 C735 1.393 . S
C739 C738 1.391 . S
H740 C748 0.950 . S
H741 C753 0.950 . S
H742 C750 0.950 . S
H743 C752 0.950 . S
H744 C754 0.950 . S
H745 C756 0.950 . S
H746 C758 0.950 . S
H747 C759 0.950 . S
C748 H740 0.950 . S
C748 C749 1.386 . S
C748 C750 1.391 . S
C749 C748 1.386 . S
C749 C753 1.393 . S
C750 H742 0.950 . S
C750 C748 1.391 . S
C750 C751 1.400 . S
C751 C750 1.400 . S
C751 C752 1.398 . S
C751 C757 1.491 1_565 S
C752 H743 0.950 . S
C752 C751 1.398 . S
C752 C753 1.391 . S
C753 H741 0.950 . S
C753 C749 1.393 . S
C753 C752 1.391 . S
C754 H744 0.950 . S
C754 C755 1.386 . S
C754 C756 1.391 . S
C755 C754 1.386 . S
C755 C759 1.393 . S
C756 H745 0.950 . S
C756 C754 1.391 . S
C756 C757 1.400 . S
C757 C751 1.491 1_545 S
C757 C756 1.400 . S
C757 C758 1.398 . S
C758 H746 0.950 . S
C758 C757 1.398 . S
C758 C759 1.391 . S
C759 H747 0.950 . S
C759 C755 1.393 . S
C759 C758 1.391 . S
H760 C768 0.950 . S
H761 C773 0.950 . S
H762 C770 0.950 . S
H763 C772 0.950 . S
H764 C774 0.950 . S
H765 C776 0.950 . S
H766 C778 0.950 . S
H767 C779 0.950 . S
C768 H760 0.950 . S
C768 C769 1.386 . S
C768 C770 1.391 . S
C769 C768 1.386 . S
C769 C773 1.393 . S
C770 H762 0.950 . S
C770 C768 1.391 . S
C770 C771 1.400 . S
C771 C770 1.400 . S
C771 C772 1.398 . S
C771 C777 1.491 . S
C772 H763 0.950 . S
C772 C771 1.398 . S
C772 C773 1.391 . S
C773 H761 0.950 . S
C773 C769 1.393 . S
C773 C772 1.391 . S
C774 H764 0.950 . S
C774 C775 1.386 . S
C774 C776 1.391 . S
C775 C774 1.386 . S
C775 C779 1.393 . S
C776 H765 0.950 . S
C776 C774 1.391 . S
C776 C777 1.400 . S
C777 C771 1.491 . S
C777 C776 1.400 . S
C777 C778 1.398 . S
C778 H766 0.950 . S
C778 C777 1.398 . S
C778 C779 1.391 . S
C779 H767 0.950 . S
C779 C775 1.393 . S
C779 C778 1.391 . S
H780 C788 0.950 . S
H781 C793 0.950 . S
H782 C790 0.950 . S
H783 C792 0.950 . S
H784 C794 0.950 1_556 S
H785 C796 0.947 1_565 S
H786 C798 0.950 . S
H787 C799 0.950 . S
C788 H780 0.950 . S
C788 C789 1.386 . S
C788 C790 1.391 . S
C789 C788 1.386 . S
C789 C793 1.393 . S
C790 H782 0.950 . S
C790 C788 1.391 . S
C790 C791 1.400 . S
C791 C790 1.400 . S
C791 C792 1.398 . S
C791 C797 1.491 1_565 S
C792 H783 0.950 . S
C792 C791 1.398 . S
C792 C793 1.391 . S
C793 H781 0.950 . S
C793 C789 1.393 . S
C793 C792 1.391 . S
C794 H784 0.950 1_554 S
C794 C795 1.386 . S
C794 C796 1.391 . S
C795 C794 1.386 . S
C795 C799 1.393 . S
C796 H785 0.947 1_545 S
C796 C794 1.391 . S
C796 C797 1.400 . S
C797 C791 1.491 1_545 S
C797 C796 1.400 . S
C797 C798 1.398 . S
C798 H786 0.950 . S
C798 C797 1.398 . S
C798 C799 1.391 . S
C799 H787 0.950 . S
C799 C795 1.393 . S
C799 C798 1.391 . S
H800 C808 0.950 . S
H801 C813 0.950 . S
H802 C810 0.950 . S
H803 C812 0.950 . S
H804 C814 0.950 . S
H805 C816 0.950 . S
H806 C818 0.950 . S
H807 C819 0.950 . S
C808 H800 0.950 . S
C808 C809 1.386 . S
C808 C810 1.391 . S
C809 C808 1.386 . S
C809 C813 1.393 . S
C810 H802 0.950 . S
C810 C808 1.391 . S
C810 C811 1.400 . S
C811 C810 1.400 . S
C811 C812 1.398 . S
C811 C817 1.491 . S
C812 H803 0.950 . S
C812 C811 1.398 . S
C812 C813 1.391 . S
C813 H801 0.950 . S
C813 C809 1.393 . S
C813 C812 1.391 . S
C814 H804 0.950 . S
C814 C815 1.386 . S
C814 C816 1.391 . S
C815 C814 1.386 . S
C815 C819 1.393 . S
C816 H805 0.950 . S
C816 C814 1.391 . S
C816 C817 1.400 . S
C817 C811 1.491 . S
C817 C816 1.400 . S
C817 C818 1.398 . S
C818 H806 0.950 . S
C818 C817 1.398 . S
C818 C819 1.391 . S
C819 H807 0.950 . S
C819 C815 1.393 . S
C819 C818 1.391 . S
H820 C828 0.950 . S
H821 C833 0.950 . S
H822 C830 0.950 . S
H823 C832 0.948 1_565 S
H824 C834 0.950 . S
H825 C836 0.950 . S
H826 C838 0.950 . S
H827 C839 0.950 . S
C828 H820 0.950 . S
C828 C829 1.386 . S
C828 C830 1.391 . S
C829 C828 1.386 . S
C829 C833 1.393 . S
C830 H822 0.950 . S
C830 C828 1.391 . S
C830 C831 1.400 . S
C831 C830 1.400 . S
C831 C832 1.398 . S
C831 C837 1.491 1_545 S
C832 H823 0.948 1_545 S
C832 C831 1.398 . S
C832 C833 1.391 . S
C833 H821 0.950 . S
C833 C829 1.393 . S
C833 C832 1.391 . S
C834 H824 0.950 . S
C834 C835 1.386 . S
C834 C836 1.391 . S
C835 C834 1.386 . S
C835 C839 1.393 . S
C836 H825 0.950 . S
C836 C834 1.391 . S
C836 C837 1.400 . S
C837 C831 1.491 1_565 S
C837 C836 1.400 . S
C837 C838 1.398 . S
C838 H826 0.950 . S
C838 C837 1.398 . S
C838 C839 1.391 . S
C839 H827 0.950 . S
C839 C835 1.393 . S
C839 C838 1.391 . S
H840 C848 0.950 . S
H841 C853 0.950 . S
H842 C850 0.950 . S
H843 C852 0.950 . S
H844 C854 0.950 . S
H845 C856 0.950 . S
H846 C858 0.950 . S
H847 C859 0.950 . S
C848 H840 0.950 . S
C848 C849 1.386 . S
C848 C850 1.391 . S
C849 C848 1.386 . S
C849 C853 1.393 . S
C850 H842 0.950 . S
C850 C848 1.391 . S
C850 C851 1.400 . S
C851 C850 1.400 . S
C851 C852 1.398 . S
C851 C857 1.491 . S
C852 H843 0.950 . S
C852 C851 1.398 . S
C852 C853 1.391 . S
C853 H841 0.950 . S
C853 C849 1.393 . S
C853 C852 1.391 . S
C854 H844 0.950 . S
C854 C855 1.386 . S
C854 C856 1.391 . S
C855 C854 1.386 . S
C855 C859 1.393 . S
C856 H845 0.950 . S
C856 C854 1.391 . S
C856 C857 1.400 . S
C857 C851 1.491 . S
C857 C856 1.400 . S
C857 C858 1.398 . S
C858 H846 0.950 . S
C858 C857 1.398 . S
C858 C859 1.391 . S
C859 H847 0.950 . S
C859 C855 1.393 . S
C859 C858 1.391 . S
H860 C868 0.950 1_556 S
H861 C873 0.950 . S
H862 C870 0.950 . S
H863 C872 0.950 . S
H864 C874 0.950 . S
H865 C876 0.950 . S
H866 C878 0.950 . S
H867 C879 0.950 . S
C868 H860 0.950 1_554 S
C868 C869 1.386 . S
C868 C870 1.391 . S
C869 C868 1.386 . S
C869 C873 1.393 . S
C870 H862 0.950 . S
C870 C868 1.391 . S
C870 C871 1.400 . S
C871 C870 1.400 . S
C871 C872 1.398 . S
C871 C877 1.491 1_565 S
C872 H863 0.950 . S
C872 C871 1.398 . S
C872 C873 1.391 . S
C873 H861 0.950 . S
C873 C869 1.393 . S
C873 C872 1.391 . S
C874 H864 0.950 . S
C874 C875 1.386 . S
C874 C876 1.391 . S
C875 C874 1.386 . S
C875 C879 1.393 . S
C876 H865 0.950 . S
C876 C874 1.391 . S
C876 C877 1.400 . S
C877 C871 1.491 1_545 S
C877 C876 1.400 . S
C877 C878 1.398 . S
C878 H866 0.950 . S
C878 C877 1.398 . S
C878 C879 1.391 . S
C879 H867 0.950 . S
C879 C875 1.393 . S
C879 C878 1.391 . S
H880 C888 0.950 . S
H881 C893 0.950 . S
H882 C890 0.950 . S
H883 C892 0.950 . S
H884 C894 0.950 . S
H885 C896 0.950 . S
H886 C898 0.950 . S
H887 C899 0.950 . S
C888 H880 0.950 . S
C888 C889 1.386 . S
C888 C890 1.391 . S
C889 C888 1.386 . S
C889 C893 1.393 . S
C890 H882 0.950 . S
C890 C888 1.391 . S
C890 C891 1.400 . S
C891 C890 1.400 . S
C891 C892 1.398 . S
C891 C897 1.491 . S
C892 H883 0.950 . S
C892 C891 1.398 . S
C892 C893 1.391 . S
C893 H881 0.950 . S
C893 C889 1.393 . S
C893 C892 1.391 . S
C894 H884 0.950 . S
C894 C895 1.386 . S
C894 C896 1.391 . S
C895 C894 1.386 . S
C895 C899 1.393 . S
C896 H885 0.950 . S
C896 C894 1.391 . S
C896 C897 1.400 . S
C897 C891 1.491 . S
C897 C896 1.400 . S
C897 C898 1.398 . S
C898 H886 0.950 . S
C898 C897 1.398 . S
C898 C899 1.391 . S
C899 H887 0.950 . S
C899 C895 1.393 . S
C899 C898 1.391 . S
H900 C908 0.950 . S
H901 C913 0.950 . S
H902 C910 0.950 . S
H903 C912 0.950 1_565 S
H904 C914 0.950 . S
H905 C916 0.950 . S
H906 C918 0.950 1_545 S
H907 C919 0.950 . S
C908 H900 0.950 . S
C908 C909 1.386 . S
C908 C910 1.391 . S
C909 C908 1.386 . S
C909 C913 1.393 . S
C910 H902 0.950 . S
C910 C908 1.391 . S
C910 C911 1.400 . S
C911 C910 1.400 . S
C911 C912 1.398 . S
C911 C917 1.491 1_545 S
C912 H903 0.950 1_545 S
C912 C911 1.398 . S
C912 C913 1.391 . S
C913 H901 0.950 . S
C913 C909 1.393 . S
C913 C912 1.391 . S
C914 H904 0.950 . S
C914 C915 1.386 . S
C914 C916 1.391 . S
C915 C914 1.386 . S
C915 C919 1.393 . S
C916 H905 0.950 . S
C916 C914 1.391 . S
C916 C917 1.400 . S
C917 C911 1.491 1_565 S
C917 C916 1.400 . S
C917 C918 1.398 . S
C918 H906 0.950 1_565 S
C918 C917 1.398 . S
C918 C919 1.391 . S
C919 H907 0.950 . S
C919 C915 1.393 . S
C919 C918 1.391 . S
H920 C928 0.950 . S
H921 C933 0.950 . S
H922 C930 0.950 . S
H923 C932 0.950 . S
H924 C934 0.950 . S
H925 C936 0.950 . S
H926 C938 0.950 . S
H927 C939 0.950 . S
C928 H920 0.950 . S
C928 C929 1.386 . S
C928 C930 1.391 . S
C929 C928 1.386 . S
C929 C933 1.393 . S
C930 H922 0.950 . S
C930 C928 1.391 . S
C930 C931 1.400 . S
C931 C930 1.400 . S
C931 C932 1.398 . S
C931 C937 1.491 . S
C932 H923 0.950 . S
C932 C931 1.398 . S
C932 C933 1.391 . S
C933 H921 0.950 . S
C933 C929 1.393 . S
C933 C932 1.391 . S
C934 H924 0.950 . S
C934 C935 1.386 . S
C934 C936 1.391 . S
C935 C934 1.386 . S
C935 C939 1.393 . S
C936 H925 0.950 . S
C936 C934 1.391 . S
C936 C937 1.400 . S
C937 C931 1.491 . S
C937 C936 1.400 . S
C937 C938 1.398 . S
C938 H926 0.950 . S
C938 C937 1.398 . S
C938 C939 1.391 . S
C939 H927 0.950 . S
C939 C935 1.393 . S
C939 C938 1.391 . S
H940 C948 0.950 . S
H941 C953 0.950 . S
H942 C950 0.950 . S
H943 C952 0.950 1_565 S
H944 C954 0.950 . S
H945 C956 0.950 . S
H946 C958 0.950 1_545 S
H947 C959 0.950 . S
C948 H940 0.950 . S
C948 C949 1.386 . S
C948 C950 1.391 . S
C949 C948 1.386 . S
C949 C953 1.393 . S
C950 H942 0.950 . S
C950 C948 1.391 . S
C950 C951 1.400 . S
C951 C950 1.400 . S
C951 C952 1.398 . S
C951 C957 1.491 1_545 S
C952 H943 0.950 1_545 S
C952 C951 1.398 . S
C952 C953 1.391 . S
C953 H941 0.950 . S
C953 C949 1.393 . S
C953 C952 1.391 . S
C954 H944 0.950 . S
C954 C955 1.386 . S
C954 C956 1.391 . S
C955 C954 1.386 . S
C955 C959 1.393 1_556 S
C956 H945 0.950 . S
C956 C954 1.391 . S
C956 C957 1.400 . S
C957 C951 1.491 1_565 S
C957 C956 1.400 . S
C957 C958 1.398 . S
C958 H946 0.950 1_565 S
C958 C957 1.398 . S
C958 C959 1.391 1_556 S
C959 H947 0.950 . S
C959 C955 1.393 1_554 S
C959 C958 1.391 1_554 S
H960 C968 0.950 . S
H961 C973 0.950 . S
H962 C970 0.950 . S
H963 C972 0.950 . S
H964 C974 0.950 . S
H965 C976 0.950 . S
H966 C978 0.950 . S
H967 C979 0.950 . S
C968 H960 0.950 . S
C968 C969 1.386 . S
C968 C970 1.391 . S
C969 C968 1.386 . S
C969 C973 1.393 . S
C970 H962 0.950 . S
C970 C968 1.391 . S
C970 C971 1.400 . S
C971 C970 1.400 . S
C971 C972 1.398 . S
C971 C977 1.491 . S
C972 H963 0.950 . S
C972 C971 1.398 . S
C972 C973 1.391 . S
C973 H961 0.950 . S
C973 C969 1.393 . S
C973 C972 1.391 . S
C974 H964 0.950 . S
C974 C975 1.386 . S
C974 C976 1.391 . S
C975 C974 1.386 . S
C975 C979 1.393 . S
C976 H965 0.950 . S
C976 C974 1.391 . S
C976 C977 1.400 . S
C977 C971 1.491 . S
C977 C976 1.400 . S
C977 C978 1.398 . S
C978 H966 0.950 . S
C978 C977 1.398 . S
C978 C979 1.391 . S
C979 H967 0.950 . S
C979 C975 1.393 . S
C979 C978 1.391 . S
H980 C988 0.950 . S
H981 C993 0.950 . S
H982 C990 0.950 . S
H983 C992 0.950 . S
H984 C994 0.950 . S
H985 C996 0.950 . S
H986 C998 0.950 . S
H987 C999 0.950 . S
C988 H980 0.950 . S
C988 C989 1.386 . S
C988 C990 1.391 . S
C989 C988 1.386 . S
C989 C993 1.393 . S
C990 H982 0.950 . S
C990 C988 1.391 . S
C990 C991 1.400 . S
C991 C990 1.400 . S
C991 C992 1.398 . S
C991 C997 1.491 . S
C992 H983 0.950 . S
C992 C991 1.398 . S
C992 C993 1.391 . S
C993 H981 0.950 . S
C993 C989 1.393 . S
C993 C992 1.391 . S
C994 H984 0.950 . S
C994 C995 1.386 1_554 S
C994 C996 1.391 1_554 S
C995 C994 1.386 1_556 S
C995 C999 1.393 . S
C996 H985 0.950 . S
C996 C994 1.391 1_556 S
C996 C997 1.400 . S
C997 C991 1.491 . S
C997 C996 1.400 . S
C997 C998 1.398 . S
C998 H986 0.950 . S
C998 C997 1.398 . S
C998 C999 1.391 . S
C999 H987 0.950 . S
C999 C995 1.393 . S
C999 C998 1.391 . S
H1000 C1008 0.950 . S
H1001 C1013 0.950 . S
H1002 C1010 0.950 . S
H1003 C1012 0.950 . S
H1004 C1014 0.950 . S
H1005 C1016 0.950 . S
H1006 C1018 0.950 . S
H1007 C1019 0.950 . S
C1008 H1000 0.950 . S
C1008 C1009 1.386 . S
C1008 C1010 1.391 . S
C1009 C1008 1.386 . S
C1009 C1013 1.393 . S
C1010 H1002 0.950 . S
C1010 C1008 1.391 . S
C1010 C1011 1.400 . S
C1011 C1010 1.400 . S
C1011 C1012 1.398 . S
C1011 C1017 1.491 . S
C1012 H1003 0.950 . S
C1012 C1011 1.398 . S
C1012 C1013 1.391 . S
C1013 H1001 0.950 . S
C1013 C1009 1.393 . S
C1013 C1012 1.391 . S
C1014 H1004 0.950 . S
C1014 C1015 1.386 . S
C1014 C1016 1.391 . S
C1015 C1014 1.386 . S
C1015 C1019 1.393 . S
C1016 H1005 0.950 . S
C1016 C1014 1.391 . S
C1016 C1017 1.400 . S
C1017 C1011 1.491 . S
C1017 C1016 1.400 . S
C1017 C1018 1.398 . S
C1018 H1006 0.950 . S
C1018 C1017 1.398 . S
C1018 C1019 1.391 . S
C1019 H1007 0.950 . S
C1019 C1015 1.393 . S
C1019 C1018 1.391 . S
H1020 C1028 0.950 . S
H1021 C1033 0.950 . S
H1022 C1030 0.950 . S
H1023 C1032 0.950 . S
H1024 C1034 0.950 . S
H1025 C1036 0.950 . S
H1026 C1038 0.950 . S
H1027 C1039 0.950 . S
C1028 H1020 0.950 . S
C1028 C1029 1.386 . S
C1028 C1030 1.391 . S
C1029 C1028 1.386 . S
C1029 C1033 1.393 . S
C1030 H1022 0.950 . S
C1030 C1028 1.391 . S
C1030 C1031 1.400 . S
C1031 C1030 1.400 . S
C1031 C1032 1.398 . S
C1031 C1037 1.491 . S
C1032 H1023 0.950 . S
C1032 C1031 1.398 . S
C1032 C1033 1.391 . S
C1033 H1021 0.950 . S
C1033 C1029 1.393 . S
C1033 C1032 1.391 . S
C1034 H1024 0.950 . S
C1034 C1035 1.386 . S
C1034 C1036 1.391 . S
C1035 C1034 1.386 . S
C1035 C1039 1.393 . S
C1036 H1025 0.950 . S
C1036 C1034 1.391 . S
C1036 C1037 1.400 . S
C1037 C1031 1.491 . S
C1037 C1036 1.400 . S
C1037 C1038 1.398 . S
C1038 H1026 0.950 . S
C1038 C1037 1.398 . S
C1038 C1039 1.391 . S
C1039 H1027 0.950 . S
C1039 C1035 1.393 . S
C1039 C1038 1.391 . S
H1040 C1048 0.950 . S
H1041 C1053 0.950 . S
H1042 C1050 0.950 . S
H1043 C1052 0.950 . S
H1044 C1054 0.950 . S
H1045 C1056 0.950 . S
H1046 C1058 0.950 . S
H1047 C1059 0.950 . S
C1048 H1040 0.950 . S
C1048 C1049 1.386 . S
C1048 C1050 1.391 . S
C1049 C1048 1.386 . S
C1049 C1053 1.393 . S
C1050 H1042 0.950 . S
C1050 C1048 1.391 . S
C1050 C1051 1.400 . S
C1051 C1050 1.400 . S
C1051 C1052 1.398 . S
C1051 C1057 1.491 . S
C1052 H1043 0.950 . S
C1052 C1051 1.398 . S
C1052 C1053 1.391 . S
C1053 H1041 0.950 . S
C1053 C1049 1.393 . S
C1053 C1052 1.391 . S
C1054 H1044 0.950 . S
C1054 C1055 1.386 . S
C1054 C1056 1.391 . S
C1055 C1054 1.386 . S
C1055 C1059 1.393 . S
C1056 H1045 0.950 . S
C1056 C1054 1.391 . S
C1056 C1057 1.400 . S
C1057 C1051 1.491 . S
C1057 C1056 1.400 . S
C1057 C1058 1.398 . S
C1058 H1046 0.950 . S
C1058 C1057 1.398 . S
C1058 C1059 1.391 . S
C1059 H1047 0.950 . S
C1059 C1055 1.393 . S
C1059 C1058 1.391 . S
H1060 C1068 0.950 . S
H1061 C1073 0.950 . S
H1062 C1070 0.950 . S
H1063 C1072 0.950 . S
H1064 C1074 0.950 . S
H1065 C1076 0.950 . S
H1066 C1078 0.950 . S
H1067 C1079 0.950 . S
C1068 H1060 0.950 . S
C1068 C1069 1.386 . S
C1068 C1070 1.391 . S
C1069 C1068 1.386 . S
C1069 C1073 1.393 . S
C1070 H1062 0.950 . S
C1070 C1068 1.391 . S
C1070 C1071 1.400 . S
C1071 C1070 1.400 . S
C1071 C1072 1.398 . S
C1071 C1077 1.491 . S
C1072 H1063 0.950 . S
C1072 C1071 1.398 . S
C1072 C1073 1.391 . S
C1073 H1061 0.950 . S
C1073 C1069 1.393 . S
C1073 C1072 1.391 . S
C1074 H1064 0.950 . S
C1074 C1075 1.376 1_556 S
C1074 C1076 1.391 1_556 S
C1075 C1074 1.376 1_554 S
C1075 C1079 1.431 . S
C1076 H1065 0.950 . S
C1076 C1074 1.391 1_554 S
C1076 C1077 1.400 . S
C1077 C1071 1.491 . S
C1077 C1076 1.400 . S
C1077 C1078 1.398 . S
C1078 H1066 0.950 . S
C1078 C1077 1.398 . S
C1078 C1079 1.391 . S
C1079 H1067 0.950 . S
C1079 C1075 1.431 . S
C1079 C1078 1.391 . S
H1080 C1088 0.950 . S
H1081 C1093 0.950 . S
H1082 C1090 0.950 . S
H1083 C1092 0.950 . S
H1084 C1094 0.950 . S
H1085 C1096 0.950 . S
H1086 C1098 0.950 . S
H1087 C1099 0.950 . S
C1088 H1080 0.950 . S
C1088 C1089 1.386 . S
C1088 C1090 1.391 . S
C1089 C1088 1.386 . S
C1089 C1093 1.393 . S
C1090 H1082 0.950 . S
C1090 C1088 1.391 . S
C1090 C1091 1.400 . S
C1091 C1090 1.400 . S
C1091 C1092 1.398 . S
C1091 C1097 1.491 . S
C1092 H1083 0.950 . S
C1092 C1091 1.398 . S
C1092 C1093 1.391 . S
C1093 H1081 0.950 . S
C1093 C1089 1.393 . S
C1093 C1092 1.391 . S
C1094 H1084 0.950 . S
C1094 C1095 1.386 . S
C1094 C1096 1.391 . S
C1095 C1094 1.386 . S
C1095 C1099 1.393 . S
C1096 H1085 0.950 . S
C1096 C1094 1.391 . S
C1096 C1097 1.400 . S
C1097 C1091 1.491 . S
C1097 C1096 1.400 . S
C1097 C1098 1.398 . S
C1098 H1086 0.950 . S
C1098 C1097 1.398 . S
C1098 C1099 1.391 . S
C1099 H1087 0.950 . S
C1099 C1095 1.393 . S
C1099 C1098 1.391 . S
H1100 C1108 0.950 . S
H1101 C1113 0.950 . S
H1102 C1110 0.950 . S
H1103 C1112 0.950 . S
H1104 C1114 0.950 . S
H1105 C1116 0.950 . S
H1106 C1118 0.950 . S
H1107 C1119 0.950 . S
C1108 H1100 0.950 . S
C1108 C1109 1.386 . S
C1108 C1110 1.391 . S
C1109 C1108 1.386 . S
C1109 C1113 1.393 . S
C1110 H1102 0.950 . S
C1110 C1108 1.391 . S
C1110 C1111 1.400 . S
C1111 C1110 1.400 . S
C1111 C1112 1.398 . S
C1111 C1117 1.491 . S
C1112 H1103 0.950 . S
C1112 C1111 1.398 . S
C1112 C1113 1.391 . S
C1113 H1101 0.950 . S
C1113 C1109 1.393 . S
C1113 C1112 1.391 . S
C1114 H1104 0.950 . S
C1114 C1115 1.386 . S
C1114 C1116 1.391 . S
C1115 C1114 1.386 . S
C1115 C1119 1.393 . S
C1116 H1105 0.950 . S
C1116 C1114 1.391 . S
C1116 C1117 1.400 . S
C1117 C1111 1.491 . S
C1117 C1116 1.400 . S
C1117 C1118 1.398 . S
C1118 H1106 0.950 . S
C1118 C1117 1.398 . S
C1118 C1119 1.391 . S
C1119 H1107 0.950 . S
C1119 C1115 1.393 . S
C1119 C1118 1.391 . S
H1120 C1128 0.950 . S
H1121 C1133 0.950 . S
H1122 C1130 0.950 . S
H1123 C1132 0.950 . S
H1124 C1134 0.950 . S
H1125 C1136 0.950 . S
H1126 C1138 0.950 . S
H1127 C1139 0.950 . S
C1128 H1120 0.950 . S
C1128 C1129 1.386 . S
C1128 C1130 1.391 . S
C1129 C1128 1.386 . S
C1129 C1133 1.393 . S
C1130 H1122 0.950 . S
C1130 C1128 1.391 . S
C1130 C1131 1.400 . S
C1131 C1130 1.400 . S
C1131 C1132 1.398 . S
C1131 C1137 1.491 . S
C1132 H1123 0.950 . S
C1132 C1131 1.398 . S
C1132 C1133 1.391 . S
C1133 H1121 0.950 . S
C1133 C1129 1.393 . S
C1133 C1132 1.391 . S
C1134 H1124 0.950 . S
C1134 C1135 1.386 . S
C1134 C1136 1.391 . S
C1135 C1134 1.386 . S
C1135 C1139 1.393 . S
C1136 H1125 0.950 . S
C1136 C1134 1.391 . S
C1136 C1137 1.400 . S
C1137 C1131 1.491 . S
C1137 C1136 1.400 . S
C1137 C1138 1.398 . S
C1138 H1126 0.950 . S
C1138 C1137 1.398 . S
C1138 C1139 1.391 . S
C1139 H1127 0.950 . S
C1139 C1135 1.393 . S
C1139 C1138 1.391 . S
H1140 C1148 0.950 . S
H1141 C1153 0.950 . S
H1142 C1150 0.950 . S
H1143 C1152 0.950 . S
H1144 C1154 0.950 . S
H1145 C1156 0.950 . S
H1146 C1158 0.950 . S
H1147 C1159 0.950 . S
C1148 H1140 0.950 . S
C1148 C1149 1.386 . S
C1148 C1150 1.391 . S
C1149 C1148 1.386 . S
C1149 C1153 1.393 . S
C1150 H1142 0.950 . S
C1150 C1148 1.391 . S
C1150 C1151 1.400 . S
C1151 C1150 1.400 . S
C1151 C1152 1.398 . S
C1151 C1157 1.491 . S
C1152 H1143 0.950 . S
C1152 C1151 1.398 . S
C1152 C1153 1.391 . S
C1153 H1141 0.950 . S
C1153 C1149 1.393 . S
C1153 C1152 1.391 . S
C1154 H1144 0.950 . S
C1154 C1155 1.430 . S
C1154 C1156 1.391 . S
C1155 C1154 1.430 . S
C1155 C1159 1.381 1_554 S
C1156 H1145 0.950 . S
C1156 C1154 1.391 . S
C1156 C1157 1.400 . S
C1157 C1151 1.491 . S
C1157 C1156 1.400 . S
C1157 C1158 1.398 . S
C1158 H1146 0.950 . S
C1158 C1157 1.398 . S
C1158 C1159 1.391 1_554 S
C1159 H1147 0.950 . S
C1159 C1155 1.381 1_556 S
C1159 C1158 1.391 1_556 S
H1160 C1168 0.950 . S
H1161 C1173 0.950 . S
H1162 C1170 0.950 . S
H1163 C1172 0.950 . S
H1164 C1174 0.950 . S
H1165 C1176 0.950 . S
H1166 C1178 0.950 . S
H1167 C1179 0.950 . S
C1168 H1160 0.950 . S
C1168 C1169 1.386 . S
C1168 C1170 1.391 . S
C1169 C1168 1.386 . S
C1169 C1173 1.393 . S
C1170 H1162 0.950 . S
C1170 C1168 1.391 . S
C1170 C1171 1.400 . S
C1171 C1170 1.400 . S
C1171 C1172 1.398 . S
C1171 C1177 1.491 . S
C1172 H1163 0.950 . S
C1172 C1171 1.398 . S
C1172 C1173 1.391 . S
C1173 H1161 0.950 . S
C1173 C1169 1.393 . S
C1173 C1172 1.391 . S
C1174 H1164 0.950 . S
C1174 C1175 1.386 . S
C1174 C1176 1.391 . S
C1175 C1174 1.386 . S
C1175 C1179 1.393 . S
C1176 H1165 0.950 . S
C1176 C1174 1.391 . S
C1176 C1177 1.400 . S
C1177 C1171 1.491 . S
C1177 C1176 1.400 . S
C1177 C1178 1.398 . S
C1178 H1166 0.950 . S
C1178 C1177 1.398 . S
C1178 C1179 1.391 . S
C1179 H1167 0.950 . S
C1179 C1175 1.393 . S
C1179 C1178 1.391 . S
H1180 C1188 0.950 . S
H1181 C1193 0.950 . S
H1182 C1190 0.950 . S
H1183 C1192 0.950 . S
H1184 C1194 0.950 . S
H1185 C1196 0.950 . S
H1186 C1198 0.950 . S
H1187 C1199 0.950 . S
C1188 H1180 0.950 . S
C1188 C1189 1.386 . S
C1188 C1190 1.391 . S
C1189 C1188 1.386 . S
C1189 C1193 1.393 . S
C1190 H1182 0.950 . S
C1190 C1188 1.391 . S
C1190 C1191 1.400 . S
C1191 C1190 1.400 . S
C1191 C1192 1.398 . S
C1191 C1197 1.491 . S
C1192 H1183 0.950 . S
C1192 C1191 1.398 . S
C1192 C1193 1.391 . S
C1193 H1181 0.950 . S
C1193 C1189 1.393 . S
C1193 C1192 1.391 . S
C1194 H1184 0.950 . S
C1194 C1195 1.386 . S
C1194 C1196 1.391 . S
C1195 C1194 1.386 . S
C1195 C1199 1.393 . S
C1196 H1185 0.950 . S
C1196 C1194 1.391 . S
C1196 C1197 1.400 . S
C1197 C1191 1.491 . S
C1197 C1196 1.400 . S
C1197 C1198 1.398 . S
C1198 H1186 0.950 . S
C1198 C1197 1.398 . S
C1198 C1199 1.391 . S
C1199 H1187 0.950 . S
C1199 C1195 1.393 . S
C1199 C1198 1.391 . S
H1200 C1208 0.950 . S
H1201 C1213 0.950 . S
H1202 C1210 0.950 . S
H1203 C1212 0.950 . S
H1204 C1214 0.950 . S
H1205 C1216 0.950 . S
H1206 C1218 0.950 . S
H1207 C1219 0.950 . S
C1208 H1200 0.950 . S
C1208 C1209 1.386 . S
C1208 C1210 1.391 . S
C1209 C1208 1.386 . S
C1209 C1213 1.393 . S
C1210 H1202 0.950 . S
C1210 C1208 1.391 . S
C1210 C1211 1.400 . S
C1211 C1210 1.400 . S
C1211 C1212 1.398 . S
C1211 C1217 1.491 . S
C1212 H1203 0.950 . S
C1212 C1211 1.398 . S
C1212 C1213 1.391 . S
C1213 H1201 0.950 . S
C1213 C1209 1.393 . S
C1213 C1212 1.391 . S
C1214 H1204 0.950 . S
C1214 C1215 1.386 . S
C1214 C1216 1.391 . S
C1215 C1214 1.386 . S
C1215 C1219 1.393 . S
C1216 H1205 0.950 . S
C1216 C1214 1.391 . S
C1216 C1217 1.400 . S
C1217 C1211 1.491 . S
C1217 C1216 1.400 . S
C1217 C1218 1.398 . S
C1218 H1206 0.950 . S
C1218 C1217 1.398 . S
C1218 C1219 1.391 . S
C1219 H1207 0.950 . S
C1219 C1215 1.393 . S
C1219 C1218 1.391 . S
H1220 C1228 0.950 . S
H1221 C1233 0.950 . S
H1222 C1230 0.950 . S
H1223 C1232 0.950 . S
H1224 C1234 0.950 . S
H1225 C1236 0.950 . S
H1226 C1238 0.950 . S
H1227 C1239 0.950 1_554 S
C1228 H1220 0.950 . S
C1228 C1229 1.386 . S
C1228 C1230 1.391 . S
C1229 C1228 1.386 . S
C1229 C1233 1.393 . S
C1230 H1222 0.950 . S
C1230 C1228 1.391 . S
C1230 C1231 1.400 . S
C1231 C1230 1.400 . S
C1231 C1232 1.398 . S
C1231 C1237 1.491 . S
C1232 H1223 0.950 . S
C1232 C1231 1.398 . S
C1232 C1233 1.391 . S
C1233 H1221 0.950 . S
C1233 C1229 1.393 . S
C1233 C1232 1.391 . S
C1234 H1224 0.950 . S
C1234 C1235 1.386 . S
C1234 C1236 1.391 . S
C1235 C1234 1.386 . S
C1235 C1239 1.393 . S
C1236 H1225 0.950 . S
C1236 C1234 1.391 . S
C1236 C1237 1.400 . S
C1237 C1231 1.491 . S
C1237 C1236 1.400 . S
C1237 C1238 1.398 . S
C1238 H1226 0.950 . S
C1238 C1237 1.398 . S
C1238 C1239 1.391 . S
C1239 H1227 0.950 1_556 S
C1239 C1235 1.393 . S
C1239 C1238 1.391 . S
H1240 C1248 0.950 . S
H1241 C1253 0.950 . S
H1242 C1250 0.950 . S
H1243 C1252 0.950 . S
H1244 C1254 0.950 . S
H1245 C1256 0.950 . S
H1246 C1258 0.950 . S
H1247 C1259 0.950 . S
C1248 H1240 0.950 . S
C1248 C1249 1.386 . S
C1248 C1250 1.391 . S
C1249 C1248 1.386 . S
C1249 C1253 1.393 . S
C1250 H1242 0.950 . S
C1250 C1248 1.391 . S
C1250 C1251 1.400 . S
C1251 C1250 1.400 . S
C1251 C1252 1.398 . S
C1251 C1257 1.491 . S
C1252 H1243 0.950 . S
C1252 C1251 1.398 . S
C1252 C1253 1.391 . S
C1253 H1241 0.950 . S
C1253 C1249 1.393 . S
C1253 C1252 1.391 . S
C1254 H1244 0.950 . S
C1254 C1255 1.386 . S
C1254 C1256 1.391 . S
C1255 C1254 1.386 . S
C1255 C1259 1.393 . S
C1256 H1245 0.950 . S
C1256 C1254 1.391 . S
C1256 C1257 1.400 . S
C1257 C1251 1.491 . S
C1257 C1256 1.400 . S
C1257 C1258 1.398 . S
C1258 H1246 0.950 . S
C1258 C1257 1.398 . S
C1258 C1259 1.391 . S
C1259 H1247 0.950 . S
C1259 C1255 1.393 . S
C1259 C1258 1.391 . S
H1260 C1268 0.950 . S
H1261 C1273 0.950 . S
H1262 C1270 0.950 . S
H1263 C1272 0.950 . S
H1264 C1274 0.950 . S
H1265 C1276 0.950 . S
H1266 C1278 0.950 . S
H1267 C1279 0.950 . S
C1268 H1260 0.950 . S
C1268 C1269 1.386 . S
C1268 C1270 1.391 . S
C1269 C1268 1.386 . S
C1269 C1273 1.393 . S
C1270 H1262 0.950 . S
C1270 C1268 1.391 . S
C1270 C1271 1.400 . S
C1271 C1270 1.400 . S
C1271 C1272 1.398 . S
C1271 C1277 1.491 . S
C1272 H1263 0.950 . S
C1272 C1271 1.398 . S
C1272 C1273 1.391 . S
C1273 H1261 0.950 . S
C1273 C1269 1.393 . S
C1273 C1272 1.391 . S
C1274 H1264 0.950 . S
C1274 C1275 1.386 . S
C1274 C1276 1.391 . S
C1275 C1274 1.386 . S
C1275 C1279 1.393 . S
C1276 H1265 0.950 . S
C1276 C1274 1.391 . S
C1276 C1277 1.400 . S
C1277 C1271 1.491 . S
C1277 C1276 1.400 . S
C1277 C1278 1.398 . S
C1278 H1266 0.950 . S
C1278 C1277 1.398 . S
C1278 C1279 1.391 . S
C1279 H1267 0.950 . S
C1279 C1275 1.393 . S
C1279 C1278 1.391 . S
H1280 C1288 0.950 . S
H1281 C1293 0.950 . S
H1282 C1290 0.950 . S
H1283 C1292 0.950 . S
H1284 C1294 0.950 . S
H1285 C1296 0.950 . S
H1286 C1298 0.950 . S
H1287 C1299 0.950 . S
C1288 H1280 0.950 . S
C1288 C1289 1.386 . S
C1288 C1290 1.391 . S
C1289 C1288 1.386 . S
C1289 C1293 1.393 . S
C1290 H1282 0.950 . S
C1290 C1288 1.391 . S
C1290 C1291 1.400 . S
C1291 C1290 1.400 . S
C1291 C1292 1.398 . S
C1291 C1297 1.491 . S
C1292 H1283 0.950 . S
C1292 C1291 1.398 . S
C1292 C1293 1.391 . S
C1293 H1281 0.950 . S
C1293 C1289 1.393 . S
C1293 C1292 1.391 . S
C1294 H1284 0.950 . S
C1294 C1295 1.386 . S
C1294 C1296 1.391 . S
C1295 C1294 1.386 . S
C1295 C1299 1.393 . S
C1296 H1285 0.950 . S
C1296 C1294 1.391 . S
C1296 C1297 1.400 . S
C1297 C1291 1.491 . S
C1297 C1296 1.400 . S
C1297 C1298 1.398 . S
C1298 H1286 0.950 . S
C1298 C1297 1.398 . S
C1298 C1299 1.391 . S
C1299 H1287 0.950 . S
C1299 C1295 1.393 . S
C1299 C1298 1.391 . S
H1300 C1308 0.950 . S
H1301 C1313 0.950 . S
H1302 C1310 0.950 . S
H1303 C1312 0.950 . S
H1304 C1314 0.950 . S
H1305 C1316 0.950 . S
H1306 C1318 0.950 . S
H1307 C1319 0.950 . S
C1308 H1300 0.950 . S
C1308 C1309 1.386 . S
C1308 C1310 1.391 . S
C1309 C1308 1.386 . S
C1309 C1313 1.393 . S
C1310 H1302 0.950 . S
C1310 C1308 1.391 . S
C1310 C1311 1.400 . S
C1311 C1310 1.400 . S
C1311 C1312 1.398 . S
C1311 C1317 1.491 1_455 S
C1312 H1303 0.950 . S
C1312 C1311 1.398 . S
C1312 C1313 1.391 . S
C1313 H1301 0.950 . S
C1313 C1309 1.393 . S
C1313 C1312 1.391 . S
C1314 H1304 0.950 . S
C1314 C1315 1.386 . S
C1314 C1316 1.391 . S
C1315 C1314 1.386 . S
C1315 C1319 1.393 . S
C1316 H1305 0.950 . S
C1316 C1314 1.391 . S
C1316 C1317 1.400 . S
C1317 C1311 1.491 1_655 S
C1317 C1316 1.400 . S
C1317 C1318 1.398 . S
C1318 H1306 0.950 . S
C1318 C1317 1.398 . S
C1318 C1319 1.391 . S
C1319 H1307 0.950 . S
C1319 C1315 1.393 . S
C1319 C1318 1.391 . S
H1320 C1328 0.950 . S
H1321 C1333 0.950 . S
H1322 C1330 0.950 . S
H1323 C1332 0.950 . S
H1324 C1334 0.950 . S
H1325 C1336 0.950 . S
H1326 C1338 0.950 . S
H1327 C1339 0.950 . S
C1328 H1320 0.950 . S
C1328 C1329 1.386 . S
C1328 C1330 1.391 . S
C1329 C1328 1.386 . S
C1329 C1333 1.393 . S
C1330 H1322 0.950 . S
C1330 C1328 1.391 . S
C1330 C1331 1.400 . S
C1331 C1330 1.400 . S
C1331 C1332 1.398 . S
C1331 C1337 1.491 . S
C1332 H1323 0.950 . S
C1332 C1331 1.398 . S
C1332 C1333 1.391 . S
C1333 H1321 0.950 . S
C1333 C1329 1.393 . S
C1333 C1332 1.391 . S
C1334 H1324 0.950 . S
C1334 C1335 1.386 . S
C1334 C1336 1.391 . S
C1335 C1334 1.386 . S
C1335 C1339 1.393 . S
C1336 H1325 0.950 . S
C1336 C1334 1.391 . S
C1336 C1337 1.400 . S
C1337 C1331 1.491 . S
C1337 C1336 1.400 . S
C1337 C1338 1.398 . S
C1338 H1326 0.950 . S
C1338 C1337 1.398 . S
C1338 C1339 1.391 . S
C1339 H1327 0.950 . S
C1339 C1335 1.393 . S
C1339 C1338 1.391 . S
H1340 C1348 0.950 . S
H1341 C1353 0.950 . S
H1342 C1350 0.950 . S
H1343 C1352 0.950 . S
H1344 C1354 0.950 . S
H1345 C1356 0.950 . S
H1346 C1358 0.950 . S
H1347 C1359 0.950 . S
C1348 H1340 0.950 . S
C1348 C1349 1.386 . S
C1348 C1350 1.391 . S
C1349 C1348 1.386 . S
C1349 C1353 1.393 . S
C1350 H1342 0.950 . S
C1350 C1348 1.391 . S
C1350 C1351 1.400 . S
C1351 C1350 1.400 . S
C1351 C1352 1.398 . S
C1351 C1357 1.491 . S
C1352 H1343 0.950 . S
C1352 C1351 1.398 . S
C1352 C1353 1.391 . S
C1353 H1341 0.950 . S
C1353 C1349 1.393 . S
C1353 C1352 1.391 . S
C1354 H1344 0.950 . S
C1354 C1355 1.386 . S
C1354 C1356 1.391 . S
C1355 C1354 1.386 . S
C1355 C1359 1.393 . S
C1356 H1345 0.950 . S
C1356 C1354 1.391 . S
C1356 C1357 1.400 . S
C1357 C1351 1.491 . S
C1357 C1356 1.400 . S
C1357 C1358 1.398 . S
C1358 H1346 0.950 . S
C1358 C1357 1.398 . S
C1358 C1359 1.391 . S
C1359 H1347 0.950 . S
C1359 C1355 1.393 . S
C1359 C1358 1.391 . S
H1360 C1368 0.950 . S
H1361 C1373 0.950 . S
H1362 C1370 0.950 . S
H1363 C1372 0.950 . S
H1364 C1374 0.950 . S
H1365 C1376 0.950 . S
H1366 C1378 0.950 . S
H1367 C1379 0.950 . S
C1368 H1360 0.950 . S
C1368 C1369 1.386 . S
C1368 C1370 1.391 . S
C1369 C1368 1.386 . S
C1369 C1373 1.393 . S
C1370 H1362 0.950 . S
C1370 C1368 1.391 . S
C1370 C1371 1.400 . S
C1371 C1370 1.400 . S
C1371 C1372 1.398 . S
C1371 C1377 1.491 . S
C1372 H1363 0.950 . S
C1372 C1371 1.398 . S
C1372 C1373 1.391 . S
C1373 H1361 0.950 . S
C1373 C1369 1.393 . S
C1373 C1372 1.391 . S
C1374 H1364 0.950 . S
C1374 C1375 1.386 . S
C1374 C1376 1.391 . S
C1375 C1374 1.386 . S
C1375 C1379 1.393 . S
C1376 H1365 0.950 . S
C1376 C1374 1.391 . S
C1376 C1377 1.400 . S
C1377 C1371 1.491 . S
C1377 C1376 1.400 . S
C1377 C1378 1.398 . S
C1378 H1366 0.950 . S
C1378 C1377 1.398 . S
C1378 C1379 1.391 . S
C1379 H1367 0.950 . S
C1379 C1375 1.393 . S
C1379 C1378 1.391 . S
H1380 C1388 0.950 . S
H1381 C1393 0.950 . S
H1382 C1390 0.950 . S
H1383 C1392 0.950 . S
H1384 C1394 0.950 . S
H1385 C1396 0.950 . S
H1386 C1398 0.950 . S
H1387 C1399 0.950 . S
C1388 H1380 0.950 . S
C1388 C1389 1.386 . S
C1388 C1390 1.391 . S
C1389 C1388 1.386 . S
C1389 C1393 1.393 . S
C1390 H1382 0.950 . S
C1390 C1388 1.391 . S
C1390 C1391 1.400 . S
C1391 C1390 1.400 . S
C1391 C1392 1.398 . S
C1391 C1397 1.491 . S
C1392 H1383 0.950 . S
C1392 C1391 1.398 . S
C1392 C1393 1.391 . S
C1393 H1381 0.950 . S
C1393 C1389 1.393 . S
C1393 C1392 1.391 . S
C1394 H1384 0.950 . S
C1394 C1395 1.386 . S
C1394 C1396 1.391 . S
C1395 C1394 1.386 . S
C1395 C1399 1.393 . S
C1396 H1385 0.950 . S
C1396 C1394 1.391 . S
C1396 C1397 1.400 . S
C1397 C1391 1.491 . S
C1397 C1396 1.400 . S
C1397 C1398 1.398 . S
C1398 H1386 0.950 . S
C1398 C1397 1.398 . S
C1398 C1399 1.391 . S
C1399 H1387 0.950 . S
C1399 C1395 1.393 . S
C1399 C1398 1.391 . S
H1400 C1408 0.950 . S
H1401 C1413 0.950 . S
H1402 C1410 0.950 . S
H1403 C1412 0.950 . S
H1404 C1414 0.950 . S
H1405 C1416 0.950 . S
H1406 C1418 0.950 . S
H1407 C1419 0.950 . S
C1408 H1400 0.950 . S
C1408 C1409 1.386 . S
C1408 C1410 1.391 . S
C1409 C1408 1.386 . S
C1409 C1413 1.393 . S
C1410 H1402 0.950 . S
C1410 C1408 1.391 . S
C1410 C1411 1.400 . S
C1411 C1410 1.400 . S
C1411 C1412 1.398 . S
C1411 C1417 1.491 . S
C1412 H1403 0.950 . S
C1412 C1411 1.398 . S
C1412 C1413 1.391 . S
C1413 H1401 0.950 . S
C1413 C1409 1.393 . S
C1413 C1412 1.391 . S
C1414 H1404 0.950 . S
C1414 C1415 1.386 . S
C1414 C1416 1.391 . S
C1415 C1414 1.386 . S
C1415 C1419 1.393 . S
C1416 H1405 0.950 . S
C1416 C1414 1.391 . S
C1416 C1417 1.400 . S
C1417 C1411 1.491 . S
C1417 C1416 1.400 . S
C1417 C1418 1.398 . S
C1418 H1406 0.950 . S
C1418 C1417 1.398 . S
C1418 C1419 1.391 . S
C1419 H1407 0.950 . S
C1419 C1415 1.393 . S
C1419 C1418 1.391 . S
H1420 C1428 0.950 . S
H1421 C1433 0.950 . S
H1422 C1430 0.950 . S
H1423 C1432 0.950 . S
H1424 C1434 0.950 . S
H1425 C1436 0.950 . S
H1426 C1438 0.950 . S
H1427 C1439 0.950 . S
C1428 H1420 0.950 . S
C1428 C1429 1.386 . S
C1428 C1430 1.391 . S
C1429 C1428 1.386 . S
C1429 C1433 1.393 . S
C1430 H1422 0.950 . S
C1430 C1428 1.391 . S
C1430 C1431 1.400 . S
C1431 C1430 1.400 . S
C1431 C1432 1.398 . S
C1431 C1437 1.491 1_455 S
C1432 H1423 0.950 . S
C1432 C1431 1.398 . S
C1432 C1433 1.391 . S
C1433 H1421 0.950 . S
C1433 C1429 1.393 . S
C1433 C1432 1.391 . S
C1434 H1424 0.950 . S
C1434 C1435 1.386 . S
C1434 C1436 1.391 . S
C1435 C1434 1.386 . S
C1435 C1439 1.393 . S
C1436 H1425 0.950 . S
C1436 C1434 1.391 . S
C1436 C1437 1.400 . S
C1437 C1431 1.491 1_655 S
C1437 C1436 1.400 . S
C1437 C1438 1.398 . S
C1438 H1426 0.950 . S
C1438 C1437 1.398 . S
C1438 C1439 1.391 . S
C1439 H1427 0.950 . S
C1439 C1435 1.393 . S
C1439 C1438 1.391 . S
H1440 C1448 0.950 . S
H1441 C1453 0.950 . S
H1442 C1450 0.950 . S
H1443 C1452 0.950 . S
H1444 C1454 0.950 . S
H1445 C1456 0.950 . S
H1446 C1458 0.950 . S
H1447 C1459 0.950 . S
C1448 H1440 0.950 . S
C1448 C1449 1.386 . S
C1448 C1450 1.391 . S
C1449 C1448 1.386 . S
C1449 C1453 1.393 . S
C1450 H1442 0.950 . S
C1450 C1448 1.391 . S
C1450 C1451 1.400 . S
C1451 C1450 1.400 . S
C1451 C1452 1.398 . S
C1451 C1457 1.491 . S
C1452 H1443 0.950 . S
C1452 C1451 1.398 . S
C1452 C1453 1.391 . S
C1453 H1441 0.950 . S
C1453 C1449 1.393 . S
C1453 C1452 1.391 . S
C1454 H1444 0.950 . S
C1454 C1455 1.386 . S
C1454 C1456 1.391 . S
C1455 C1454 1.386 . S
C1455 C1459 1.393 . S
C1456 H1445 0.950 . S
C1456 C1454 1.391 . S
C1456 C1457 1.400 . S
C1457 C1451 1.491 . S
C1457 C1456 1.400 . S
C1457 C1458 1.398 . S
C1458 H1446 0.950 . S
C1458 C1457 1.398 . S
C1458 C1459 1.391 . S
C1459 H1447 0.950 . S
C1459 C1455 1.393 . S
C1459 C1458 1.391 . S
H1460 C1468 0.950 . S
H1461 C1473 0.950 . S
H1462 C1470 0.950 . S
H1463 C1472 0.950 . S
H1464 C1474 0.950 . S
H1465 C1476 0.950 . S
H1466 C1478 0.950 . S
H1467 C1479 0.950 . S
C1468 H1460 0.950 . S
C1468 C1469 1.386 . S
C1468 C1470 1.391 . S
C1469 C1468 1.386 . S
C1469 C1473 1.393 . S
C1470 H1462 0.950 . S
C1470 C1468 1.391 . S
C1470 C1471 1.400 . S
C1471 C1470 1.400 . S
C1471 C1472 1.398 . S
C1471 C1477 1.491 1_455 S
C1472 H1463 0.950 . S
C1472 C1471 1.398 . S
C1472 C1473 1.391 . S
C1473 H1461 0.950 . S
C1473 C1469 1.393 . S
C1473 C1472 1.391 . S
C1474 H1464 0.950 . S
C1474 C1475 1.386 . S
C1474 C1476 1.391 . S
C1475 C1474 1.386 . S
C1475 C1479 1.393 . S
C1476 H1465 0.950 . S
C1476 C1474 1.391 . S
C1476 C1477 1.400 . S
C1477 C1471 1.491 1_655 S
C1477 C1476 1.400 . S
C1477 C1478 1.398 . S
C1478 H1466 0.950 . S
C1478 C1477 1.398 . S
C1478 C1479 1.391 . S
C1479 H1467 0.950 . S
C1479 C1475 1.393 . S
C1479 C1478 1.391 . S
H1480 C1488 0.950 . S
H1481 C1493 0.950 . S
H1482 C1490 0.950 . S
H1483 C1492 0.950 . S
H1484 C1494 0.950 . S
H1485 C1496 0.950 . S
H1486 C1498 0.950 . S
H1487 C1499 0.950 . S
C1488 H1480 0.950 . S
C1488 C1489 1.386 . S
C1488 C1490 1.391 . S
C1489 C1488 1.386 . S
C1489 C1493 1.393 . S
C1490 H1482 0.950 . S
C1490 C1488 1.391 . S
C1490 C1491 1.400 . S
C1491 C1490 1.400 . S
C1491 C1492 1.398 . S
C1491 C1497 1.491 . S
C1492 H1483 0.950 . S
C1492 C1491 1.398 . S
C1492 C1493 1.391 . S
C1493 H1481 0.950 . S
C1493 C1489 1.393 . S
C1493 C1492 1.391 . S
C1494 H1484 0.950 . S
C1494 C1495 1.386 . S
C1494 C1496 1.391 . S
C1495 C1494 1.386 . S
C1495 C1499 1.393 . S
C1496 H1485 0.950 . S
C1496 C1494 1.391 . S
C1496 C1497 1.400 . S
C1497 C1491 1.491 . S
C1497 C1496 1.400 . S
C1497 C1498 1.398 . S
C1498 H1486 0.950 . S
C1498 C1497 1.398 . S
C1498 C1499 1.391 . S
C1499 H1487 0.950 . S
C1499 C1495 1.393 . S
C1499 C1498 1.391 . S
H1500 C1508 0.950 . S
H1501 C1513 0.950 . S
H1502 C1510 0.950 . S
H1503 C1512 0.950 . S
H1504 C1514 0.950 . S
H1505 C1516 0.950 . S
H1506 C1518 0.950 . S
H1507 C1519 0.950 . S
C1508 H1500 0.950 . S
C1508 C1509 1.386 . S
C1508 C1510 1.391 . S
C1509 C1508 1.386 . S
C1509 C1513 1.393 . S
C1510 H1502 0.950 . S
C1510 C1508 1.391 . S
C1510 C1511 1.400 . S
C1511 C1510 1.400 . S
C1511 C1512 1.398 . S
C1511 C1517 1.491 . S
C1512 H1503 0.950 . S
C1512 C1511 1.398 . S
C1512 C1513 1.391 . S
C1513 H1501 0.950 . S
C1513 C1509 1.393 . S
C1513 C1512 1.391 . S
C1514 H1504 0.950 . S
C1514 C1515 1.386 . S
C1514 C1516 1.391 . S
C1515 C1514 1.386 . S
C1515 C1519 1.393 . S
C1516 H1505 0.950 . S
C1516 C1514 1.391 . S
C1516 C1517 1.400 . S
C1517 C1511 1.491 . S
C1517 C1516 1.400 . S
C1517 C1518 1.398 . S
C1518 H1506 0.950 . S
C1518 C1517 1.398 . S
C1518 C1519 1.391 . S
C1519 H1507 0.950 . S
C1519 C1515 1.393 . S
C1519 C1518 1.391 . S
H1520 C1528 0.950 . S
H1521 C1533 0.950 . S
H1522 C1530 0.950 . S
H1523 C1532 0.950 . S
H1524 C1534 0.950 . S
H1525 C1536 0.950 . S
H1526 C1538 0.950 . S
H1527 C1539 0.950 . S
C1528 H1520 0.950 . S
C1528 C1529 1.386 . S
C1528 C1530 1.391 . S
C1529 C1528 1.386 . S
C1529 C1533 1.393 . S
C1530 H1522 0.950 . S
C1530 C1528 1.391 . S
C1530 C1531 1.400 . S
C1531 C1530 1.400 . S
C1531 C1532 1.398 . S
C1531 C1537 1.491 . S
C1532 H1523 0.950 . S
C1532 C1531 1.398 . S
C1532 C1533 1.391 . S
C1533 H1521 0.950 . S
C1533 C1529 1.393 . S
C1533 C1532 1.391 . S
C1534 H1524 0.950 . S
C1534 C1535 1.386 . S
C1534 C1536 1.391 . S
C1535 C1534 1.386 . S
C1535 C1539 1.393 . S
C1536 H1525 0.950 . S
C1536 C1534 1.391 . S
C1536 C1537 1.400 . S
C1537 C1531 1.491 . S
C1537 C1536 1.400 . S
C1537 C1538 1.398 . S
C1538 H1526 0.950 . S
C1538 C1537 1.398 . S
C1538 C1539 1.391 . S
C1539 H1527 0.950 . S
C1539 C1535 1.393 . S
C1539 C1538 1.391 . S
H1540 C1548 0.950 . S
H1541 C1553 0.950 . S
H1542 C1550 0.950 . S
H1543 C1552 0.950 . S
H1544 C1554 0.950 . S
H1545 C1556 0.950 . S
H1546 C1558 0.950 . S
H1547 C1559 0.950 . S
C1548 H1540 0.950 . S
C1548 C1549 1.386 . S
C1548 C1550 1.391 . S
C1549 C1548 1.386 . S
C1549 C1553 1.393 . S
C1550 H1542 0.950 . S
C1550 C1548 1.391 . S
C1550 C1551 1.400 . S
C1551 C1550 1.400 . S
C1551 C1552 1.398 . S
C1551 C1557 1.491 . S
C1552 H1543 0.950 . S
C1552 C1551 1.398 . S
C1552 C1553 1.391 . S
C1553 H1541 0.950 . S
C1553 C1549 1.393 . S
C1553 C1552 1.391 . S
C1554 H1544 0.950 . S
C1554 C1555 1.386 . S
C1554 C1556 1.391 . S
C1555 C1554 1.386 . S
C1555 C1559 1.393 . S
C1556 H1545 0.950 . S
C1556 C1554 1.391 . S
C1556 C1557 1.400 . S
C1557 C1551 1.491 . S
C1557 C1556 1.400 . S
C1557 C1558 1.398 . S
C1558 H1546 0.950 . S
C1558 C1557 1.398 . S
C1558 C1559 1.391 . S
C1559 H1547 0.950 . S
C1559 C1555 1.393 . S
C1559 C1558 1.391 . S
H1560 C1568 0.950 . S
H1561 C1573 0.950 . S
H1562 C1570 0.950 . S
H1563 C1572 0.950 . S
H1564 C1574 0.950 . S
H1565 C1576 0.950 . S
H1566 C1578 0.950 . S
H1567 C1579 0.950 . S
C1568 H1560 0.950 . S
C1568 C1569 1.386 . S
C1568 C1570 1.391 . S
C1569 C1568 1.386 . S
C1569 C1573 1.393 . S
C1570 H1562 0.950 . S
C1570 C1568 1.391 . S
C1570 C1571 1.400 . S
C1571 C1570 1.400 . S
C1571 C1572 1.398 . S
C1571 C1577 1.491 . S
C1572 H1563 0.950 . S
C1572 C1571 1.398 . S
C1572 C1573 1.391 . S
C1573 H1561 0.950 . S
C1573 C1569 1.393 . S
C1573 C1572 1.391 . S
C1574 H1564 0.950 . S
C1574 C1575 1.386 . S
C1574 C1576 1.391 . S
C1575 C1574 1.386 . S
C1575 C1579 1.393 . S
C1576 H1565 0.950 . S
C1576 C1574 1.391 . S
C1576 C1577 1.400 . S
C1577 C1571 1.491 . S
C1577 C1576 1.400 . S
C1577 C1578 1.398 . S
C1578 H1566 0.950 . S
C1578 C1577 1.398 . S
C1578 C1579 1.391 . S
C1579 H1567 0.950 . S
C1579 C1575 1.393 . S
C1579 C1578 1.391 . S
H1580 C1588 0.950 . S
H1581 C1593 0.950 . S
H1582 C1590 0.968 . S
H1583 C1592 0.950 . S
H1584 C1594 0.950 . S
H1585 C1596 0.950 . S
H1586 C1598 0.950 . S
H1587 C1599 0.950 . S
C1588 H1580 0.950 . S
C1588 C1589 1.386 . S
C1588 C1590 1.391 . S
C1589 C1588 1.386 . S
C1589 C1593 1.393 . S
C1590 H1582 0.968 . S
C1590 C1588 1.391 . S
C1590 C1591 1.400 . S
C1591 C1590 1.400 . S
C1591 C1592 1.398 . S
C1591 C1597 1.491 1_655 S
C1592 H1583 0.950 . S
C1592 C1591 1.398 . S
C1592 C1593 1.391 . S
C1593 H1581 0.950 . S
C1593 C1589 1.393 . S
C1593 C1592 1.391 . S
C1594 H1584 0.950 . S
C1594 C1595 1.386 . S
C1594 C1596 1.391 . S
C1595 C1594 1.386 . S
C1595 C1599 1.393 . S
C1596 H1585 0.950 . S
C1596 C1594 1.391 . S
C1596 C1597 1.400 . S
C1597 C1591 1.491 1_455 S
C1597 C1596 1.400 . S
C1597 C1598 1.398 . S
C1598 H1586 0.950 . S
C1598 C1597 1.398 . S
C1598 C1599 1.391 . S
C1599 H1587 0.950 . S
C1599 C1595 1.393 . S
C1599 C1598 1.391 . S
H1600 C1608 0.950 . S
H1601 C1613 0.950 . S
H1602 C1610 0.950 . S
H1603 C1612 0.950 . S
H1604 C1614 0.950 . S
H1605 C1616 0.950 . S
H1606 C1618 0.950 . S
H1607 C1619 0.950 . S
C1608 H1600 0.950 . S
C1608 C1609 1.386 . S
C1608 C1610 1.391 . S
C1609 C1608 1.386 . S
C1609 C1613 1.393 . S
C1610 H1602 0.950 . S
C1610 C1608 1.391 . S
C1610 C1611 1.400 . S
C1611 C1610 1.400 . S
C1611 C1612 1.398 . S
C1611 C1617 1.491 . S
C1612 H1603 0.950 . S
C1612 C1611 1.398 . S
C1612 C1613 1.391 . S
C1613 H1601 0.950 . S
C1613 C1609 1.393 . S
C1613 C1612 1.391 . S
C1614 H1604 0.950 . S
C1614 C1615 1.386 . S
C1614 C1616 1.391 . S
C1615 C1614 1.386 . S
C1615 C1619 1.393 . S
C1616 H1605 0.950 . S
C1616 C1614 1.391 . S
C1616 C1617 1.400 . S
C1617 C1611 1.491 . S
C1617 C1616 1.400 . S
C1617 C1618 1.398 . S
C1618 H1606 0.950 . S
C1618 C1617 1.398 . S
C1618 C1619 1.391 . S
C1619 H1607 0.950 . S
C1619 C1615 1.393 . S
C1619 C1618 1.391 . S
H1620 C1628 0.950 . S
H1621 C1633 0.950 . S
H1622 C1630 0.950 . S
H1623 C1632 0.950 . S
H1624 C1634 0.950 . S
H1625 C1636 0.950 . S
H1626 C1638 0.950 . S
H1627 C1639 0.950 . S
C1628 H1620 0.950 . S
C1628 C1629 1.386 . S
C1628 C1630 1.391 . S
C1629 C1628 1.386 . S
C1629 C1633 1.393 . S
C1630 H1622 0.950 . S
C1630 C1628 1.391 . S
C1630 C1631 1.400 . S
C1631 C1630 1.400 . S
C1631 C1632 1.398 . S
C1631 C1637 1.491 . S
C1632 H1623 0.950 . S
C1632 C1631 1.398 . S
C1632 C1633 1.391 . S
C1633 H1621 0.950 . S
C1633 C1629 1.393 . S
C1633 C1632 1.391 . S
C1634 H1624 0.950 . S
C1634 C1635 1.386 . S
C1634 C1636 1.391 . S
C1635 C1634 1.386 . S
C1635 C1639 1.393 . S
C1636 H1625 0.950 . S
C1636 C1634 1.391 . S
C1636 C1637 1.400 . S
C1637 C1631 1.491 . S
C1637 C1636 1.400 . S
C1637 C1638 1.398 . S
C1638 H1626 0.950 . S
C1638 C1637 1.398 . S
C1638 C1639 1.391 . S
C1639 H1627 0.950 . S
C1639 C1635 1.393 . S
C1639 C1638 1.391 . S
H1640 C1648 0.950 . S
H1641 C1653 0.950 . S
H1642 C1650 0.950 . S
H1643 C1652 0.950 . S
H1644 C1654 0.950 . S
H1645 C1656 0.950 . S
H1646 C1658 0.950 . S
H1647 C1659 0.950 . S
C1648 H1640 0.950 . S
C1648 C1649 1.386 . S
C1648 C1650 1.391 . S
C1649 C1648 1.386 . S
C1649 C1653 1.393 . S
C1650 H1642 0.950 . S
C1650 C1648 1.391 . S
C1650 C1651 1.400 . S
C1651 C1650 1.400 . S
C1651 C1652 1.398 . S
C1651 C1657 1.491 . S
C1652 H1643 0.950 . S
C1652 C1651 1.398 . S
C1652 C1653 1.391 . S
C1653 H1641 0.950 . S
C1653 C1649 1.393 . S
C1653 C1652 1.391 . S
C1654 H1644 0.950 . S
C1654 C1655 1.386 . S
C1654 C1656 1.391 . S
C1655 C1654 1.386 . S
C1655 C1659 1.393 . S
C1656 H1645 0.950 . S
C1656 C1654 1.391 . S
C1656 C1657 1.400 . S
C1657 C1651 1.491 . S
C1657 C1656 1.400 . S
C1657 C1658 1.398 . S
C1658 H1646 0.950 . S
C1658 C1657 1.398 . S
C1658 C1659 1.391 . S
C1659 H1647 0.950 . S
C1659 C1655 1.393 . S
C1659 C1658 1.391 . S
H1660 C1668 0.950 . S
H1661 C1673 0.950 . S
H1662 C1670 0.971 . S
H1663 C1672 0.950 . S
H1664 C1674 0.950 . S
H1665 C1676 0.950 . S
H1666 C1678 0.950 . S
H1667 C1679 0.950 . S
C1668 H1660 0.950 . S
C1668 C1669 1.386 . S
C1668 C1670 1.391 . S
C1669 C1668 1.386 . S
C1669 C1673 1.393 . S
C1670 H1662 0.971 . S
C1670 C1668 1.391 . S
C1670 C1671 1.400 . S
C1671 C1670 1.400 . S
C1671 C1672 1.398 . S
C1671 C1677 1.491 1_655 S
C1672 H1663 0.950 . S
C1672 C1671 1.398 . S
C1672 C1673 1.391 . S
C1673 H1661 0.950 . S
C1673 C1669 1.393 . S
C1673 C1672 1.391 . S
C1674 H1664 0.950 . S
C1674 C1675 1.386 . S
C1674 C1676 1.391 . S
C1675 C1674 1.386 . S
C1675 C1679 1.393 . S
C1676 H1665 0.950 . S
C1676 C1674 1.391 . S
C1676 C1677 1.400 . S
C1677 C1671 1.491 1_455 S
C1677 C1676 1.400 . S
C1677 C1678 1.398 . S
C1678 H1666 0.950 . S
C1678 C1677 1.398 . S
C1678 C1679 1.391 . S
C1679 H1667 0.950 . S
C1679 C1675 1.393 . S
C1679 C1678 1.391 . S
H1680 C1688 0.950 . S
H1681 C1693 0.950 . S
H1682 C1690 0.950 . S
H1683 C1692 0.950 . S
H1684 C1694 0.950 . S
H1685 C1696 0.950 . S
H1686 C1698 0.950 . S
H1687 C1699 0.950 . S
C1688 H1680 0.950 . S
C1688 C1689 1.386 . S
C1688 C1690 1.391 . S
C1689 C1688 1.386 . S
C1689 C1693 1.393 . S
C1690 H1682 0.950 . S
C1690 C1688 1.391 . S
C1690 C1691 1.400 . S
C1691 C1690 1.400 . S
C1691 C1692 1.398 . S
C1691 C1697 1.491 . S
C1692 H1683 0.950 . S
C1692 C1691 1.398 . S
C1692 C1693 1.391 . S
C1693 H1681 0.950 . S
C1693 C1689 1.393 . S
C1693 C1692 1.391 . S
C1694 H1684 0.950 . S
C1694 C1695 1.386 . S
C1694 C1696 1.391 . S
C1695 C1694 1.386 . S
C1695 C1699 1.393 . S
C1696 H1685 0.950 . S
C1696 C1694 1.391 . S
C1696 C1697 1.400 . S
C1697 C1691 1.491 . S
C1697 C1696 1.400 . S
C1697 C1698 1.398 . S
C1698 H1686 0.950 . S
C1698 C1697 1.398 . S
C1698 C1699 1.391 . S
C1699 H1687 0.950 . S
C1699 C1695 1.393 . S
C1699 C1698 1.391 . S
H1700 C1708 0.950 . S
H1701 C1713 0.950 . S
H1702 C1710 0.950 . S
H1703 C1712 0.950 . S
H1704 C1714 0.950 . S
H1705 C1716 0.950 . S
H1706 C1718 0.950 . S
H1707 C1719 0.950 . S
C1708 H1700 0.950 . S
C1708 C1709 1.386 . S
C1708 C1710 1.391 . S
C1709 C1708 1.386 . S
C1709 C1713 1.393 . S
C1710 H1702 0.950 . S
C1710 C1708 1.391 . S
C1710 C1711 1.400 . S
C1711 C1710 1.400 . S
C1711 C1712 1.398 . S
C1711 C1717 1.491 1_655 S
C1712 H1703 0.950 . S
C1712 C1711 1.398 . S
C1712 C1713 1.391 . S
C1713 H1701 0.950 . S
C1713 C1709 1.393 . S
C1713 C1712 1.391 . S
C1714 H1704 0.950 . S
C1714 C1715 1.386 . S
C1714 C1716 1.391 . S
C1715 C1714 1.386 . S
C1715 C1719 1.393 . S
C1716 H1705 0.950 . S
C1716 C1714 1.391 . S
C1716 C1717 1.400 . S
C1717 C1711 1.491 1_455 S
C1717 C1716 1.400 . S
C1717 C1718 1.398 . S
C1718 H1706 0.950 . S
C1718 C1717 1.398 . S
C1718 C1719 1.391 . S
C1719 H1707 0.950 . S
C1719 C1715 1.393 . S
C1719 C1718 1.391 . S
H1720 C1728 0.950 . S
H1721 C1733 0.950 . S
H1722 C1730 0.950 . S
H1723 C1732 0.950 . S
H1724 C1734 0.950 . S
H1725 C1736 0.950 . S
H1726 C1738 0.950 . S
H1727 C1739 0.950 . S
C1728 H1720 0.950 . S
C1728 C1729 1.386 . S
C1728 C1730 1.391 . S
C1729 C1728 1.386 . S
C1729 C1733 1.393 . S
C1730 H1722 0.950 . S
C1730 C1728 1.391 . S
C1730 C1731 1.400 . S
C1731 C1730 1.400 . S
C1731 C1732 1.398 . S
C1731 C1737 1.491 . S
C1732 H1723 0.950 . S
C1732 C1731 1.398 . S
C1732 C1733 1.391 . S
C1733 H1721 0.950 . S
C1733 C1729 1.393 . S
C1733 C1732 1.391 . S
C1734 H1724 0.950 . S
C1734 C1735 1.386 . S
C1734 C1736 1.391 . S
C1735 C1734 1.386 . S
C1735 C1739 1.393 . S
C1736 H1725 0.950 . S
C1736 C1734 1.391 . S
C1736 C1737 1.400 . S
C1737 C1731 1.491 . S
C1737 C1736 1.400 . S
C1737 C1738 1.398 . S
C1738 H1726 0.950 . S
C1738 C1737 1.398 . S
C1738 C1739 1.391 . S
C1739 H1727 0.950 . S
C1739 C1735 1.393 . S
C1739 C1738 1.391 . S
H1740 C1748 0.950 . S
H1741 C1753 0.950 . S
H1742 C1750 0.950 . S
H1743 C1752 0.950 . S
H1744 C1754 0.950 . S
H1745 C1756 0.950 . S
H1746 C1758 0.950 . S
H1747 C1759 0.950 . S
C1748 H1740 0.950 . S
C1748 C1749 1.386 . S
C1748 C1750 1.391 . S
C1749 C1748 1.386 . S
C1749 C1753 1.393 . S
C1750 H1742 0.950 . S
C1750 C1748 1.391 . S
C1750 C1751 1.400 . S
C1751 C1750 1.400 . S
C1751 C1752 1.398 . S
C1751 C1757 1.491 . S
C1752 H1743 0.950 . S
C1752 C1751 1.398 . S
C1752 C1753 1.391 . S
C1753 H1741 0.950 . S
C1753 C1749 1.393 . S
C1753 C1752 1.391 . S
C1754 H1744 0.950 . S
C1754 C1755 1.386 . S
C1754 C1756 1.391 . S
C1755 C1754 1.386 . S
C1755 C1759 1.393 . S
C1756 H1745 0.950 . S
C1756 C1754 1.391 . S
C1756 C1757 1.400 . S
C1757 C1751 1.491 . S
C1757 C1756 1.400 . S
C1757 C1758 1.398 . S
C1758 H1746 0.950 . S
C1758 C1757 1.398 . S
C1758 C1759 1.391 . S
C1759 H1747 0.950 . S
C1759 C1755 1.393 . S
C1759 C1758 1.391 . S
H1760 C1768 0.950 . S
H1761 C1773 0.950 . S
H1762 C1770 0.950 . S
H1763 C1772 0.950 . S
H1764 C1774 0.950 . S
H1765 C1776 0.950 . S
H1766 C1778 0.950 . S
H1767 C1779 0.950 . S
C1768 H1760 0.950 . S
C1768 C1769 1.386 . S
C1768 C1770 1.391 . S
C1769 C1768 1.386 . S
C1769 C1773 1.393 . S
C1770 H1762 0.950 . S
C1770 C1768 1.391 . S
C1770 C1771 1.400 . S
C1771 C1770 1.400 . S
C1771 C1772 1.398 . S
C1771 C1777 1.491 . S
C1772 H1763 0.950 . S
C1772 C1771 1.398 . S
C1772 C1773 1.391 . S
C1773 H1761 0.950 . S
C1773 C1769 1.393 . S
C1773 C1772 1.391 . S
C1774 H1764 0.950 . S
C1774 C1775 1.386 . S
C1774 C1776 1.391 . S
C1775 C1774 1.386 . S
C1775 C1779 1.393 . S
C1776 H1765 0.950 . S
C1776 C1774 1.391 . S
C1776 C1777 1.400 . S
C1777 C1771 1.491 . S
C1777 C1776 1.400 . S
C1777 C1778 1.398 . S
C1778 H1766 0.950 . S
C1778 C1777 1.398 . S
C1778 C1779 1.391 . S
C1779 H1767 0.950 . S
C1779 C1775 1.393 . S
C1779 C1778 1.391 . S
H1780 C1788 0.950 . S
H1781 C1793 0.950 . S
H1782 C1790 0.950 . S
H1783 C1792 0.950 . S
H1784 C1794 0.950 . S
H1785 C1796 0.950 . S
H1786 C1798 0.950 . S
H1787 C1799 0.950 . S
C1788 H1780 0.950 . S
C1788 C1789 1.386 . S
C1788 C1790 1.391 . S
C1789 C1788 1.386 . S
C1789 C1793 1.393 . S
C1790 H1782 0.950 . S
C1790 C1788 1.391 . S
C1790 C1791 1.400 . S
C1791 C1790 1.400 . S
C1791 C1792 1.398 . S
C1791 C1797 1.491 . S
C1792 H1783 0.950 . S
C1792 C1791 1.398 . S
C1792 C1793 1.391 . S
C1793 H1781 0.950 . S
C1793 C1789 1.393 . S
C1793 C1792 1.391 . S
C1794 H1784 0.950 . S
C1794 C1795 1.386 . S
C1794 C1796 1.391 . S
C1795 C1794 1.386 . S
C1795 C1799 1.393 . S
C1796 H1785 0.950 . S
C1796 C1794 1.391 . S
C1796 C1797 1.400 . S
C1797 C1791 1.491 . S
C1797 C1796 1.400 . S
C1797 C1798 1.398 . S
C1798 H1786 0.950 . S
C1798 C1797 1.398 . S
C1798 C1799 1.391 . S
C1799 H1787 0.950 . S
C1799 C1795 1.393 . S
C1799 C1798 1.391 . S
H1800 C1808 0.950 . S
H1801 C1813 0.950 . S
H1802 C1810 0.950 . S
H1803 C1812 0.950 . S
H1804 C1814 0.950 . S
H1805 C1816 0.950 . S
H1806 C1818 0.950 . S
H1807 C1819 0.950 . S
C1808 H1800 0.950 . S
C1808 C1809 1.386 . S
C1808 C1810 1.391 . S
C1809 C1808 1.386 . S
C1809 C1813 1.393 . S
C1810 H1802 0.950 . S
C1810 C1808 1.391 . S
C1810 C1811 1.400 . S
C1811 C1810 1.400 . S
C1811 C1812 1.398 . S
C1811 C1817 1.491 . S
C1812 H1803 0.950 . S
C1812 C1811 1.398 . S
C1812 C1813 1.391 . S
C1813 H1801 0.950 . S
C1813 C1809 1.393 . S
C1813 C1812 1.391 . S
C1814 H1804 0.950 . S
C1814 C1815 1.386 . S
C1814 C1816 1.391 . S
C1815 C1814 1.386 . S
C1815 C1819 1.393 . S
C1816 H1805 0.950 . S
C1816 C1814 1.391 . S
C1816 C1817 1.400 . S
C1817 C1811 1.491 . S
C1817 C1816 1.400 . S
C1817 C1818 1.398 . S
C1818 H1806 0.950 . S
C1818 C1817 1.398 . S
C1818 C1819 1.391 . S
C1819 H1807 0.950 . S
C1819 C1815 1.393 . S
C1819 C1818 1.391 . S
H1820 C1828 0.950 . S
H1821 C1833 0.950 . S
H1822 C1830 0.950 . S
H1823 C1832 0.950 . S
H1824 C1834 0.950 . S
H1825 C1836 0.950 1_655 S
H1826 C1838 0.950 . S
H1827 C1839 0.950 . S
C1828 H1820 0.950 . S
C1828 C1829 1.386 . S
C1828 C1830 1.391 . S
C1829 C1828 1.386 . S
C1829 C1833 1.393 . S
C1830 H1822 0.950 . S
C1830 C1828 1.391 . S
C1830 C1831 1.400 . S
C1831 C1830 1.400 . S
C1831 C1832 1.398 . S
C1831 C1837 1.491 1_655 S
C1832 H1823 0.950 . S
C1832 C1831 1.398 . S
C1832 C1833 1.391 . S
C1833 H1821 0.950 . S
C1833 C1829 1.393 . S
C1833 C1832 1.391 . S
C1834 H1824 0.950 . S
C1834 C1835 1.386 . S
C1834 C1836 1.391 . S
C1835 C1834 1.386 . S
C1835 C1839 1.393 . S
C1836 H1825 0.950 1_455 S
C1836 C1834 1.391 . S
C1836 C1837 1.400 . S
C1837 C1831 1.491 1_455 S
C1837 C1836 1.400 . S
C1837 C1838 1.398 . S
C1838 H1826 0.950 . S
C1838 C1837 1.398 . S
C1838 C1839 1.391 . S
C1839 H1827 0.950 . S
C1839 C1835 1.393 . S
C1839 C1838 1.391 . S
H1840 C1848 0.950 . S
H1841 C1853 0.950 . S
H1842 C1850 0.950 . S
H1843 C1852 0.950 . S
H1844 C1854 0.950 . S
H1845 C1856 0.950 . S
H1846 C1858 0.950 . S
H1847 C1859 0.950 . S
C1848 H1840 0.950 . S
C1848 C1849 1.386 . S
C1848 C1850 1.391 . S
C1849 C1848 1.386 . S
C1849 C1853 1.393 . S
C1850 H1842 0.950 . S
C1850 C1848 1.391 . S
C1850 C1851 1.400 . S
C1851 C1850 1.400 . S
C1851 C1852 1.398 . S
C1851 C1857 1.491 . S
C1852 H1843 0.950 . S
C1852 C1851 1.398 . S
C1852 C1853 1.391 . S
C1853 H1841 0.950 . S
C1853 C1849 1.393 . S
C1853 C1852 1.391 . S
C1854 H1844 0.950 . S
C1854 C1855 1.386 . S
C1854 C1856 1.391 . S
C1855 C1854 1.386 . S
C1855 C1859 1.393 . S
C1856 H1845 0.950 . S
C1856 C1854 1.391 . S
C1856 C1857 1.400 . S
C1857 C1851 1.491 . S
C1857 C1856 1.400 . S
C1857 C1858 1.398 . S
C1858 H1846 0.950 . S
C1858 C1857 1.398 . S
C1858 C1859 1.391 . S
C1859 H1847 0.950 . S
C1859 C1855 1.393 . S
C1859 C1858 1.391 . S
H1860 C1868 0.950 . S
H1861 C1873 0.950 . S
H1862 C1870 0.950 1_655 S
H1863 C1872 0.950 . S
H1864 C1874 0.950 . S
H1865 C1876 0.950 . S
H1866 C1878 0.950 . S
H1867 C1879 0.950 . S
C1868 H1860 0.950 . S
C1868 C1869 1.386 . S
C1868 C1870 1.391 . S
C1869 C1868 1.386 . S
C1869 C1873 1.393 . S
C1870 H1862 0.950 1_455 S
C1870 C1868 1.391 . S
C1870 C1871 1.400 . S
C1871 C1870 1.400 . S
C1871 C1872 1.398 . S
C1871 C1877 1.491 1_455 S
C1872 H1863 0.950 . S
C1872 C1871 1.398 . S
C1872 C1873 1.391 . S
C1873 H1861 0.950 . S
C1873 C1869 1.393 . S
C1873 C1872 1.391 . S
C1874 H1864 0.950 . S
C1874 C1875 1.386 . S
C1874 C1876 1.391 . S
C1875 C1874 1.386 . S
C1875 C1879 1.393 . S
C1876 H1865 0.950 . S
C1876 C1874 1.391 . S
C1876 C1877 1.400 . S
C1877 C1871 1.491 1_655 S
C1877 C1876 1.400 . S
C1877 C1878 1.398 . S
C1878 H1866 0.950 . S
C1878 C1877 1.398 . S
C1878 C1879 1.391 . S
C1879 H1867 0.950 . S
C1879 C1875 1.393 . S
C1879 C1878 1.391 . S
H1880 C1888 0.950 . S
H1881 C1893 0.950 . S
H1882 C1890 0.950 . S
H1883 C1892 0.950 . S
H1884 C1894 0.950 . S
H1885 C1896 0.950 . S
H1886 C1898 0.950 . S
H1887 C1899 0.950 . S
C1888 H1880 0.950 . S
C1888 C1889 1.386 . S
C1888 C1890 1.391 . S
C1889 C1888 1.386 . S
C1889 C1893 1.393 . S
C1890 H1882 0.950 . S
C1890 C1888 1.391 . S
C1890 C1891 1.400 . S
C1891 C1890 1.400 . S
C1891 C1892 1.398 . S
C1891 C1897 1.491 . S
C1892 H1883 0.950 . S
C1892 C1891 1.398 . S
C1892 C1893 1.391 . S
C1893 H1881 0.950 . S
C1893 C1889 1.393 . S
C1893 C1892 1.391 . S
C1894 H1884 0.950 . S
C1894 C1895 1.386 . S
C1894 C1896 1.391 . S
C1895 C1894 1.386 . S
C1895 C1899 1.393 . S
C1896 H1885 0.950 . S
C1896 C1894 1.391 . S
C1896 C1897 1.400 . S
C1897 C1891 1.491 . S
C1897 C1896 1.400 . S
C1897 C1898 1.398 . S
C1898 H1886 0.950 . S
C1898 C1897 1.398 . S
C1898 C1899 1.391 . S
C1899 H1887 0.950 . S
C1899 C1895 1.393 . S
C1899 C1898 1.391 . S
H1900 C1908 0.950 . S
H1901 C1913 0.950 . S
H1902 C1910 0.950 . S
H1903 C1912 0.950 . S
H1904 C1914 0.950 . S
H1905 C1916 0.950 . S
H1906 C1918 0.950 . S
H1907 C1919 0.950 . S
C1908 H1900 0.950 . S
C1908 C1909 1.386 . S
C1908 C1910 1.391 . S
C1909 C1908 1.386 . S
C1909 C1913 1.393 . S
C1910 H1902 0.950 . S
C1910 C1908 1.391 . S
C1910 C1911 1.400 . S
C1911 C1910 1.400 . S
C1911 C1912 1.398 . S
C1911 C1917 1.491 . S
C1912 H1903 0.950 . S
C1912 C1911 1.398 . S
C1912 C1913 1.391 . S
C1913 H1901 0.950 . S
C1913 C1909 1.393 . S
C1913 C1912 1.391 . S
C1914 H1904 0.950 . S
C1914 C1915 1.386 . S
C1914 C1916 1.391 . S
C1915 C1914 1.386 . S
C1915 C1919 1.393 . S
C1916 H1905 0.950 . S
C1916 C1914 1.391 . S
C1916 C1917 1.400 . S
C1917 C1911 1.491 . S
C1917 C1916 1.400 . S
C1917 C1918 1.398 . S
C1918 H1906 0.950 . S
C1918 C1917 1.398 . S
C1918 C1919 1.391 . S
C1919 H1907 0.950 . S
C1919 C1915 1.393 . S
C1919 C1918 1.391 . S
H1920 C1928 0.950 . S
H1921 C1933 0.950 . S
H1922 C1930 0.950 . S
H1923 C1932 0.950 . S
H1924 C1934 0.950 . S
H1925 C1936 0.950 . S
H1926 C1938 0.950 . S
H1927 C1939 0.950 . S
C1928 H1920 0.950 . S
C1928 C1929 1.386 . S
C1928 C1930 1.391 . S
C1929 C1928 1.386 . S
C1929 C1933 1.393 . S
C1930 H1922 0.950 . S
C1930 C1928 1.391 . S
C1930 C1931 1.400 . S
C1931 C1930 1.400 . S
C1931 C1932 1.398 . S
C1931 C1937 1.491 1_545 S
C1932 H1923 0.950 . S
C1932 C1931 1.398 . S
C1932 C1933 1.391 . S
C1933 H1921 0.950 . S
C1933 C1929 1.393 . S
C1933 C1932 1.391 . S
C1934 H1924 0.950 . S
C1934 C1935 1.386 . S
C1934 C1936 1.391 . S
C1935 C1934 1.386 . S
C1935 C1939 1.393 . S
C1936 H1925 0.950 . S
C1936 C1934 1.391 . S
C1936 C1937 1.400 . S
C1937 C1931 1.491 1_565 S
C1937 C1936 1.400 . S
C1937 C1938 1.398 . S
C1938 H1926 0.950 . S
C1938 C1937 1.398 . S
C1938 C1939 1.391 . S
C1939 H1927 0.950 . S
C1939 C1935 1.393 . S
C1939 C1938 1.391 . S
H1940 C1948 0.950 . S
H1941 C1953 0.950 . S
H1942 C1950 0.950 . S
H1943 C1952 0.950 . S
H1944 C1954 0.950 . S
H1945 C1956 0.950 . S
H1946 C1958 0.950 . S
H1947 C1959 0.950 . S
C1948 H1940 0.950 . S
C1948 C1949 1.386 . S
C1948 C1950 1.391 . S
C1949 C1948 1.386 . S
C1949 C1953 1.393 . S
C1950 H1942 0.950 . S
C1950 C1948 1.391 . S
C1950 C1951 1.400 . S
C1951 C1950 1.400 . S
C1951 C1952 1.398 . S
C1951 C1957 1.491 . S
C1952 H1943 0.950 . S
C1952 C1951 1.398 . S
C1952 C1953 1.391 . S
C1953 H1941 0.950 . S
C1953 C1949 1.393 . S
C1953 C1952 1.391 . S
C1954 H1944 0.950 . S
C1954 C1955 1.386 . S
C1954 C1956 1.391 . S
C1955 C1954 1.386 . S
C1955 C1959 1.393 . S
C1956 H1945 0.950 . S
C1956 C1954 1.391 . S
C1956 C1957 1.400 . S
C1957 C1951 1.491 . S
C1957 C1956 1.400 . S
C1957 C1958 1.398 . S
C1958 H1946 0.950 . S
C1958 C1957 1.398 . S
C1958 C1959 1.391 . S
C1959 H1947 0.950 . S
C1959 C1955 1.393 . S
C1959 C1958 1.391 . S
H1960 C1968 0.950 . S
H1961 C1973 0.950 . S
H1962 C1970 0.950 . S
H1963 C1972 0.950 . S
H1964 C1974 0.950 . S
H1965 C1976 0.950 . S
H1966 C1978 0.950 . S
H1967 C1979 0.950 . S
C1968 H1960 0.950 . S
C1968 C1969 1.386 . S
C1968 C1970 1.391 . S
C1969 C1968 1.386 . S
C1969 C1973 1.393 . S
C1970 H1962 0.950 . S
C1970 C1968 1.391 . S
C1970 C1971 1.400 . S
C1971 C1970 1.400 . S
C1971 C1972 1.398 . S
C1971 C1977 1.491 1_565 S
C1972 H1963 0.950 . S
C1972 C1971 1.398 . S
C1972 C1973 1.391 . S
C1973 H1961 0.950 . S
C1973 C1969 1.393 . S
C1973 C1972 1.391 . S
C1974 H1964 0.950 . S
C1974 C1975 1.386 . S
C1974 C1976 1.391 . S
C1975 C1974 1.386 . S
C1975 C1979 1.393 . S
C1976 H1965 0.950 . S
C1976 C1974 1.391 . S
C1976 C1977 1.400 . S
C1977 C1971 1.491 1_545 S
C1977 C1976 1.400 . S
C1977 C1978 1.398 . S
C1978 H1966 0.950 . S
C1978 C1977 1.398 . S
C1978 C1979 1.391 . S
C1979 H1967 0.950 . S
C1979 C1975 1.393 . S
C1979 C1978 1.391 . S
H1980 C1988 0.950 . S
H1981 C1993 0.937 1_554 S
H1982 C1990 0.950 . S
H1983 C1992 0.950 . S
H1984 C1994 0.950 . S
H1985 C1996 0.950 . S
H1986 C1998 0.950 . S
H1987 C1999 0.938 1_556 S
C1988 H1980 0.950 . S
C1988 C1989 1.386 . S
C1988 C1990 1.391 . S
C1989 C1988 1.386 . S
C1989 C1993 1.393 . S
C1990 H1982 0.950 . S
C1990 C1988 1.391 . S
C1990 C1991 1.400 . S
C1991 C1990 1.400 . S
C1991 C1992 1.398 1_556 S
C1991 C1997 1.491 1_556 S
C1992 H1983 0.950 . S
C1992 C1991 1.398 1_554 S
C1992 C1993 1.391 1_554 S
C1993 H1981 0.937 1_556 S
C1993 C1989 1.393 . S
C1993 C1992 1.391 1_556 S
C1994 H1984 0.950 . S
C1994 C1995 1.386 . S
C1994 C1996 1.391 . S
C1995 C1994 1.386 . S
C1995 C1999 1.393 . S
C1996 H1985 0.950 . S
C1996 C1994 1.391 . S
C1996 C1997 1.400 . S
C1997 C1991 1.491 1_554 S
C1997 C1996 1.400 . S
C1997 C1998 1.398 1_554 S
C1998 H1986 0.950 . S
C1998 C1997 1.398 1_556 S
C1998 C1999 1.391 1_556 S
C1999 H1987 0.938 1_554 S
C1999 C1995 1.393 . S
C1999 C1998 1.391 1_554 S
H2000 C2008 0.950 . S
H2001 C2013 0.950 . S
H2002 C2010 0.950 . S
H2003 C2012 0.950 . S
H2004 C2014 0.950 . S
H2005 C2016 0.950 . S
H2006 C2018 0.950 . S
H2007 C2019 0.950 . S
C2008 H2000 0.950 . S
C2008 C2009 1.386 . S
C2008 C2010 1.391 . S
C2009 C2008 1.386 . S
C2009 C2013 1.393 . S
C2010 H2002 0.950 . S
C2010 C2008 1.391 . S
C2010 C2011 1.400 . S
C2011 C2010 1.400 . S
C2011 C2012 1.398 . S
C2011 C2017 1.491 1_545 S
C2012 H2003 0.950 . S
C2012 C2011 1.398 . S
C2012 C2013 1.391 . S
C2013 H2001 0.950 . S
C2013 C2009 1.393 . S
C2013 C2012 1.391 . S
C2014 H2004 0.950 . S
C2014 C2015 1.386 . S
C2014 C2016 1.391 . S
C2015 C2014 1.386 . S
C2015 C2019 1.393 . S
C2016 H2005 0.950 . S
C2016 C2014 1.391 . S
C2016 C2017 1.400 . S
C2017 C2011 1.491 1_565 S
C2017 C2016 1.400 . S
C2017 C2018 1.398 . S
C2018 H2006 0.950 . S
C2018 C2017 1.398 . S
C2018 C2019 1.391 . S
C2019 H2007 0.950 . S
C2019 C2015 1.393 . S
C2019 C2018 1.391 . S
H2020 C2028 0.950 . S
H2021 C2033 0.950 . S
H2022 C2030 0.950 . S
H2023 C2032 0.950 . S
H2024 C2034 0.950 . S
H2025 C2036 0.950 . S
H2026 C2038 0.950 . S
H2027 C2039 0.950 . S
C2028 H2020 0.950 . S
C2028 C2029 1.386 . S
C2028 C2030 1.391 . S
C2029 C2028 1.386 . S
C2029 C2033 1.393 . S
C2030 H2022 0.950 . S
C2030 C2028 1.391 . S
C2030 C2031 1.400 . S
C2031 C2030 1.400 . S
C2031 C2032 1.398 . S
C2031 C2037 1.491 . S
C2032 H2023 0.950 . S
C2032 C2031 1.398 . S
C2032 C2033 1.391 . S
C2033 H2021 0.950 . S
C2033 C2029 1.393 . S
C2033 C2032 1.391 . S
C2034 H2024 0.950 . S
C2034 C2035 1.386 . S
C2034 C2036 1.391 . S
C2035 C2034 1.386 . S
C2035 C2039 1.393 . S
C2036 H2025 0.950 . S
C2036 C2034 1.391 . S
C2036 C2037 1.400 . S
C2037 C2031 1.491 . S
C2037 C2036 1.400 . S
C2037 C2038 1.398 . S
C2038 H2026 0.950 . S
C2038 C2037 1.398 . S
C2038 C2039 1.391 . S
C2039 H2027 0.950 . S
C2039 C2035 1.393 . S
C2039 C2038 1.391 . S
H2040 C2048 0.950 . S
H2041 C2053 0.950 . S
H2042 C2050 0.950 . S
H2043 C2052 0.950 . S
H2044 C2054 0.950 . S
H2045 C2056 0.950 . S
H2046 C2058 0.950 . S
H2047 C2059 0.950 . S
C2048 H2040 0.950 . S
C2048 C2049 1.386 . S
C2048 C2050 1.391 . S
C2049 C2048 1.386 . S
C2049 C2053 1.393 . S
C2050 H2042 0.950 . S
C2050 C2048 1.391 . S
C2050 C2051 1.400 . S
C2051 C2050 1.400 . S
C2051 C2052 1.398 . S
C2051 C2057 1.491 1_545 S
C2052 H2043 0.950 . S
C2052 C2051 1.398 . S
C2052 C2053 1.391 . S
C2053 H2041 0.950 . S
C2053 C2049 1.393 . S
C2053 C2052 1.391 . S
C2054 H2044 0.950 . S
C2054 C2055 1.386 . S
C2054 C2056 1.391 . S
C2055 C2054 1.386 . S
C2055 C2059 1.393 . S
C2056 H2045 0.950 . S
C2056 C2054 1.391 . S
C2056 C2057 1.400 . S
C2057 C2051 1.491 1_565 S
C2057 C2056 1.400 . S
C2057 C2058 1.398 . S
C2058 H2046 0.950 . S
C2058 C2057 1.398 . S
C2058 C2059 1.391 . S
C2059 H2047 0.950 . S
C2059 C2055 1.393 . S
C2059 C2058 1.391 . S
H2060 C2068 0.950 . S
H2061 C2073 0.950 . S
H2062 C2070 0.950 . S
H2063 C2072 0.950 1_554 S
H2064 C2074 0.950 . S
H2065 C2076 0.950 . S
H2066 C2078 0.950 1_556 S
H2067 C2079 0.950 . S
C2068 H2060 0.950 . S
C2068 C2069 1.386 . S
C2068 C2070 1.391 . S
C2069 C2068 1.386 . S
C2069 C2073 1.393 . S
C2070 H2062 0.950 . S
C2070 C2068 1.391 . S
C2070 C2071 1.400 . S
C2071 C2070 1.400 . S
C2071 C2072 1.398 . S
C2071 C2077 1.491 1_556 S
C2072 H2063 0.950 1_556 S
C2072 C2071 1.398 . S
C2072 C2073 1.391 . S
C2073 H2061 0.950 . S
C2073 C2069 1.393 . S
C2073 C2072 1.391 . S
C2074 H2064 0.950 . S
C2074 C2075 1.386 . S
C2074 C2076 1.391 . S
C2075 C2074 1.386 . S
C2075 C2079 1.393 . S
C2076 H2065 0.950 . S
C2076 C2074 1.391 . S
C2076 C2077 1.400 . S
C2077 C2071 1.491 1_554 S
C2077 C2076 1.400 . S
C2077 C2078 1.398 . S
C2078 H2066 0.950 1_554 S
C2078 C2077 1.398 . S
C2078 C2079 1.391 . S
C2079 H2067 0.950 . S
C2079 C2075 1.393 . S
C2079 C2078 1.391 . S
H2080 C2088 0.950 . S
H2081 C2093 0.950 . S
H2082 C2090 0.950 . S
H2083 C2092 0.950 . S
H2084 C2094 0.950 . S
H2085 C2096 0.950 . S
H2086 C2098 0.950 . S
H2087 C2099 0.950 . S
C2088 H2080 0.950 . S
C2088 C2089 1.386 . S
C2088 C2090 1.391 . S
C2089 C2088 1.386 . S
C2089 C2093 1.393 . S
C2090 H2082 0.950 . S
C2090 C2088 1.391 . S
C2090 C2091 1.400 . S
C2091 C2090 1.400 . S
C2091 C2092 1.398 . S
C2091 C2097 1.491 . S
C2092 H2083 0.950 . S
C2092 C2091 1.398 . S
C2092 C2093 1.391 . S
C2093 H2081 0.950 . S
C2093 C2089 1.393 . S
C2093 C2092 1.391 . S
C2094 H2084 0.950 . S
C2094 C2095 1.386 . S
C2094 C2096 1.391 . S
C2095 C2094 1.386 . S
C2095 C2099 1.393 . S
C2096 H2085 0.950 . S
C2096 C2094 1.391 . S
C2096 C2097 1.400 . S
C2097 C2091 1.491 . S
C2097 C2096 1.400 . S
C2097 C2098 1.398 . S
C2098 H2086 0.950 . S
C2098 C2097 1.398 . S
C2098 C2099 1.391 . S
C2099 H2087 0.950 . S
C2099 C2095 1.393 . S
C2099 C2098 1.391 . S
H2100 C2108 0.950 . S
H2101 C2113 0.950 . S
H2102 C2110 0.958 . S
H2103 C2112 0.950 . S
H2104 C2114 0.950 . S
H2105 C2116 0.958 . S
H2106 C2118 0.950 . S
H2107 C2119 0.950 . S
C2108 H2100 0.950 . S
C2108 C2109 1.386 . S
C2108 C2110 1.391 . S
C2109 C2108 1.386 . S
C2109 C2113 1.393 . S
C2110 H2102 0.958 . S
C2110 C2108 1.391 . S
C2110 C2111 1.400 . S
C2111 C2110 1.400 . S
C2111 C2112 1.398 . S
C2111 C2117 1.491 1_556 S
C2112 H2103 0.950 . S
C2112 C2111 1.398 . S
C2112 C2113 1.391 . S
C2113 H2101 0.950 . S
C2113 C2109 1.393 . S
C2113 C2112 1.391 . S
C2114 H2104 0.950 . S
C2114 C2115 1.386 . S
C2114 C2116 1.391 . S
C2115 C2114 1.386 . S
C2115 C2119 1.393 . S
C2116 H2105 0.958 . S
C2116 C2114 1.391 . S
C2116 C2117 1.400 . S
C2117 C2111 1.491 1_554 S
C2117 C2116 1.400 . S
C2117 C2118 1.398 . S
C2118 H2106 0.950 . S
C2118 C2117 1.398 . S
C2118 C2119 1.391 . S
C2119 H2107 0.950 . S
C2119 C2115 1.393 . S
C2119 C2118 1.391 . S
H2120 C2128 0.950 . S
H2121 C2133 0.950 . S
H2122 C2130 0.950 . S
H2123 C2132 0.950 . S
H2124 C2134 0.950 . S
H2125 C2136 0.950 . S
H2126 C2138 0.950 . S
H2127 C2139 0.950 . S
C2128 H2120 0.950 . S
C2128 C2129 1.386 . S
C2128 C2130 1.391 . S
C2129 C2128 1.386 . S
C2129 C2133 1.393 . S
C2130 H2122 0.950 . S
C2130 C2128 1.391 . S
C2130 C2131 1.400 . S
C2131 C2130 1.400 . S
C2131 C2132 1.398 . S
C2131 C2137 1.491 . S
C2132 H2123 0.950 . S
C2132 C2131 1.398 . S
C2132 C2133 1.391 . S
C2133 H2121 0.950 . S
C2133 C2129 1.393 . S
C2133 C2132 1.391 . S
C2134 H2124 0.950 . S
C2134 C2135 1.386 . S
C2134 C2136 1.391 . S
C2135 C2134 1.386 . S
C2135 C2139 1.393 . S
C2136 H2125 0.950 . S
C2136 C2134 1.391 . S
C2136 C2137 1.400 . S
C2137 C2131 1.491 . S
C2137 C2136 1.400 . S
C2137 C2138 1.398 . S
C2138 H2126 0.950 . S
C2138 C2137 1.398 . S
C2138 C2139 1.391 . S
C2139 H2127 0.950 . S
C2139 C2135 1.393 . S
C2139 C2138 1.391 . S
H2140 C2148 0.950 . S
H2141 C2153 0.950 . S
H2142 C2150 0.950 . S
H2143 C2152 0.950 . S
H2144 C2154 0.950 . S
H2145 C2156 0.950 . S
H2146 C2158 0.950 . S
H2147 C2159 0.950 . S
C2148 H2140 0.950 . S
C2148 C2149 1.386 . S
C2148 C2150 1.391 . S
C2149 C2148 1.386 . S
C2149 C2153 1.393 . S
C2150 H2142 0.950 . S
C2150 C2148 1.391 . S
C2150 C2151 1.400 . S
C2151 C2150 1.400 . S
C2151 C2152 1.398 . S
C2151 C2157 1.491 . S
C2152 H2143 0.950 . S
C2152 C2151 1.398 . S
C2152 C2153 1.391 . S
C2153 H2141 0.950 . S
C2153 C2149 1.393 . S
C2153 C2152 1.391 . S
C2154 H2144 0.950 . S
C2154 C2155 1.386 . S
C2154 C2156 1.391 . S
C2155 C2154 1.386 . S
C2155 C2159 1.393 . S
C2156 H2145 0.950 . S
C2156 C2154 1.391 . S
C2156 C2157 1.400 . S
C2157 C2151 1.491 . S
C2157 C2156 1.400 . S
C2157 C2158 1.398 . S
C2158 H2146 0.950 . S
C2158 C2157 1.398 . S
C2158 C2159 1.391 . S
C2159 H2147 0.950 . S
C2159 C2155 1.393 . S
C2159 C2158 1.391 . S
H2160 C2168 0.950 . S
H2161 C2173 0.950 . S
H2162 C2170 0.950 . S
H2163 C2172 0.950 . S
H2164 C2174 0.950 . S
H2165 C2176 0.950 . S
H2166 C2178 0.950 . S
H2167 C2179 0.950 . S
C2168 H2160 0.950 . S
C2168 C2169 1.386 . S
C2168 C2170 1.391 . S
C2169 C2168 1.386 . S
C2169 C2173 1.393 . S
C2170 H2162 0.950 . S
C2170 C2168 1.391 . S
C2170 C2171 1.400 . S
C2171 C2170 1.400 . S
C2171 C2172 1.398 . S
C2171 C2177 1.491 . S
C2172 H2163 0.950 . S
C2172 C2171 1.398 . S
C2172 C2173 1.391 . S
C2173 H2161 0.950 . S
C2173 C2169 1.393 . S
C2173 C2172 1.391 . S
C2174 H2164 0.950 . S
C2174 C2175 1.386 . S
C2174 C2176 1.391 . S
C2175 C2174 1.386 . S
C2175 C2179 1.393 . S
C2176 H2165 0.950 . S
C2176 C2174 1.391 . S
C2176 C2177 1.400 . S
C2177 C2171 1.491 . S
C2177 C2176 1.400 . S
C2177 C2178 1.398 . S
C2178 H2166 0.950 . S
C2178 C2177 1.398 . S
C2178 C2179 1.391 . S
C2179 H2167 0.950 . S
C2179 C2175 1.393 . S
C2179 C2178 1.391 . S
H2180 C2188 0.950 . S
H2181 C2193 0.950 . S
H2182 C2190 0.950 . S
H2183 C2192 0.950 . S
H2184 C2194 0.950 . S
H2185 C2196 0.950 . S
H2186 C2198 0.950 . S
H2187 C2199 0.950 . S
C2188 H2180 0.950 . S
C2188 C2189 1.386 . S
C2188 C2190 1.391 . S
C2189 C2188 1.386 . S
C2189 C2193 1.393 . S
C2190 H2182 0.950 . S
C2190 C2188 1.391 . S
C2190 C2191 1.400 . S
C2191 C2190 1.400 . S
C2191 C2192 1.398 1_556 S
C2191 C2197 1.491 1_556 S
C2192 H2183 0.950 . S
C2192 C2191 1.398 1_554 S
C2192 C2193 1.391 1_554 S
C2193 H2181 0.950 . S
C2193 C2189 1.393 . S
C2193 C2192 1.391 1_556 S
C2194 H2184 0.950 . S
C2194 C2195 1.386 . S
C2194 C2196 1.391 . S
C2195 C2194 1.386 . S
C2195 C2199 1.393 . S
C2196 H2185 0.950 . S
C2196 C2194 1.391 . S
C2196 C2197 1.400 . S
C2197 C2191 1.491 1_554 S
C2197 C2196 1.400 . S
C2197 C2198 1.398 1_554 S
C2198 H2186 0.950 . S
C2198 C2197 1.398 1_556 S
C2198 C2199 1.391 1_556 S
C2199 H2187 0.950 . S
C2199 C2195 1.393 . S
C2199 C2198 1.391 1_554 S
H2200 C2208 0.950 . S
H2201 C2213 0.950 . S
H2202 C2210 0.950 . S
H2203 C2212 0.950 . S
H2204 C2214 0.950 . S
H2205 C2216 0.950 . S
H2206 C2218 0.950 . S
H2207 C2219 0.950 . S
C2208 H2200 0.950 . S
C2208 C2209 1.386 . S
C2208 C2210 1.391 . S
C2209 C2208 1.386 . S
C2209 C2213 1.393 . S
C2210 H2202 0.950 . S
C2210 C2208 1.391 . S
C2210 C2211 1.400 . S
C2211 C2210 1.400 . S
C2211 C2212 1.398 . S
C2211 C2217 1.491 . S
C2212 H2203 0.950 . S
C2212 C2211 1.398 . S
C2212 C2213 1.391 . S
C2213 H2201 0.950 . S
C2213 C2209 1.393 . S
C2213 C2212 1.391 . S
C2214 H2204 0.950 . S
C2214 C2215 1.386 . S
C2214 C2216 1.391 . S
C2215 C2214 1.386 . S
C2215 C2219 1.393 . S
C2216 H2205 0.950 . S
C2216 C2214 1.391 . S
C2216 C2217 1.400 . S
C2217 C2211 1.491 . S
C2217 C2216 1.400 . S
C2217 C2218 1.398 . S
C2218 H2206 0.950 . S
C2218 C2217 1.398 . S
C2218 C2219 1.391 . S
C2219 H2207 0.950 . S
C2219 C2215 1.393 . S
C2219 C2218 1.391 . S
H2220 C2228 0.950 . S
H2221 C2233 0.950 . S
H2222 C2230 0.950 . S
H2223 C2232 0.950 . S
H2224 C2234 0.950 . S
H2225 C2236 0.950 . S
H2226 C2238 0.950 . S
H2227 C2239 0.950 . S
C2228 H2220 0.950 . S
C2228 C2229 1.386 . S
C2228 C2230 1.391 . S
C2229 C2228 1.386 . S
C2229 C2233 1.393 . S
C2230 H2222 0.950 . S
C2230 C2228 1.391 . S
C2230 C2231 1.400 . S
C2231 C2230 1.400 . S
C2231 C2232 1.398 . S
C2231 C2237 1.491 . S
C2232 H2223 0.950 . S
C2232 C2231 1.398 . S
C2232 C2233 1.391 . S
C2233 H2221 0.950 . S
C2233 C2229 1.393 . S
C2233 C2232 1.391 . S
C2234 H2224 0.950 . S
C2234 C2235 1.386 . S
C2234 C2236 1.391 . S
C2235 C2234 1.386 . S
C2235 C2239 1.393 . S
C2236 H2225 0.950 . S
C2236 C2234 1.391 . S
C2236 C2237 1.400 . S
C2237 C2231 1.491 . S
C2237 C2236 1.400 . S
C2237 C2238 1.398 . S
C2238 H2226 0.950 . S
C2238 C2237 1.398 . S
C2238 C2239 1.391 . S
C2239 H2227 0.950 . S
C2239 C2235 1.393 . S
C2239 C2238 1.391 . S
H2240 C2248 0.950 . S
H2241 C2253 0.950 . S
H2242 C2250 0.950 . S
H2243 C2252 0.950 . S
H2244 C2254 0.950 . S
H2245 C2256 0.950 . S
H2246 C2258 0.950 . S
H2247 C2259 0.950 . S
C2248 H2240 0.950 . S
C2248 C2249 1.386 . S
C2248 C2250 1.391 . S
C2249 C2248 1.386 . S
C2249 C2253 1.393 . S
C2250 H2242 0.950 . S
C2250 C2248 1.391 . S
C2250 C2251 1.400 . S
C2251 C2250 1.400 . S
C2251 C2252 1.398 . S
C2251 C2257 1.491 . S
C2252 H2243 0.950 . S
C2252 C2251 1.398 . S
C2252 C2253 1.391 . S
C2253 H2241 0.950 . S
C2253 C2249 1.393 . S
C2253 C2252 1.391 . S
C2254 H2244 0.950 . S
C2254 C2255 1.386 . S
C2254 C2256 1.391 . S
C2255 C2254 1.386 . S
C2255 C2259 1.393 . S
C2256 H2245 0.950 . S
C2256 C2254 1.391 . S
C2256 C2257 1.400 . S
C2257 C2251 1.491 . S
C2257 C2256 1.400 . S
C2257 C2258 1.398 . S
C2258 H2246 0.950 . S
C2258 C2257 1.398 . S
C2258 C2259 1.391 . S
C2259 H2247 0.950 . S
C2259 C2255 1.393 . S
C2259 C2258 1.391 . S
H2260 C2268 0.950 . S
H2261 C2273 0.950 . S
H2262 C2270 0.950 . S
H2263 C2272 0.950 . S
H2264 C2274 0.950 . S
H2265 C2276 0.950 . S
H2266 C2278 0.950 . S
H2267 C2279 0.950 . S
C2268 H2260 0.950 . S
C2268 C2269 1.386 . S
C2268 C2270 1.391 . S
C2269 C2268 1.386 . S
C2269 C2273 1.393 . S
C2270 H2262 0.950 . S
C2270 C2268 1.391 . S
C2270 C2271 1.400 . S
C2271 C2270 1.400 . S
C2271 C2272 1.398 . S
C2271 C2277 1.491 . S
C2272 H2263 0.950 . S
C2272 C2271 1.398 . S
C2272 C2273 1.391 . S
C2273 H2261 0.950 . S
C2273 C2269 1.393 . S
C2273 C2272 1.391 . S
C2274 H2264 0.950 . S
C2274 C2275 1.386 . S
C2274 C2276 1.391 . S
C2275 C2274 1.386 . S
C2275 C2279 1.393 . S
C2276 H2265 0.950 . S
C2276 C2274 1.391 . S
C2276 C2277 1.400 . S
C2277 C2271 1.491 . S
C2277 C2276 1.400 . S
C2277 C2278 1.398 . S
C2278 H2266 0.950 . S
C2278 C2277 1.398 . S
C2278 C2279 1.391 . S
C2279 H2267 0.950 . S
C2279 C2275 1.393 . S
C2279 C2278 1.391 . S
H2280 C2288 0.950 . S
H2281 C2293 0.950 . S
H2282 C2290 0.950 . S
H2283 C2292 0.950 . S
H2284 C2294 0.950 . S
H2285 C2296 0.950 . S
H2286 C2298 0.950 . S
H2287 C2299 0.950 . S
C2288 H2280 0.950 . S
C2288 C2289 1.386 . S
C2288 C2290 1.391 . S
C2289 C2288 1.386 . S
C2289 C2293 1.393 . S
C2290 H2282 0.950 . S
C2290 C2288 1.391 . S
C2290 C2291 1.400 . S
C2291 C2290 1.400 . S
C2291 C2292 1.398 . S
C2291 C2297 1.491 . S
C2292 H2283 0.950 . S
C2292 C2291 1.398 . S
C2292 C2293 1.391 . S
C2293 H2281 0.950 . S
C2293 C2289 1.393 . S
C2293 C2292 1.391 . S
C2294 H2284 0.950 . S
C2294 C2295 1.386 . S
C2294 C2296 1.391 . S
C2295 C2294 1.386 . S
C2295 C2299 1.393 . S
C2296 H2285 0.950 . S
C2296 C2294 1.391 . S
C2296 C2297 1.400 . S
C2297 C2291 1.491 . S
C2297 C2296 1.400 . S
C2297 C2298 1.398 . S
C2298 H2286 0.950 . S
C2298 C2297 1.398 . S
C2298 C2299 1.391 . S
C2299 H2287 0.950 . S
C2299 C2295 1.393 . S
C2299 C2298 1.391 . S
H2300 C2308 0.950 . S
H2301 C2313 0.950 . S
H2302 C2310 0.950 . S
H2303 C2312 0.950 . S
H2304 C2314 0.950 . S
H2305 C2316 0.950 . S
H2306 C2318 0.950 . S
H2307 C2319 0.950 . S
C2308 H2300 0.950 . S
C2308 C2309 1.386 . S
C2308 C2310 1.391 . S
C2309 C2308 1.386 . S
C2309 C2313 1.393 . S
C2310 H2302 0.950 . S
C2310 C2308 1.391 . S
C2310 C2311 1.400 . S
C2311 C2310 1.400 . S
C2311 C2312 1.398 . S
C2311 C2317 1.491 . S
C2312 H2303 0.950 . S
C2312 C2311 1.398 . S
C2312 C2313 1.391 . S
C2313 H2301 0.950 . S
C2313 C2309 1.393 . S
C2313 C2312 1.391 . S
C2314 H2304 0.950 . S
C2314 C2315 1.386 . S
C2314 C2316 1.391 . S
C2315 C2314 1.386 . S
C2315 C2319 1.393 . S
C2316 H2305 0.950 . S
C2316 C2314 1.391 . S
C2316 C2317 1.400 . S
C2317 C2311 1.491 . S
C2317 C2316 1.400 . S
C2317 C2318 1.398 . S
C2318 H2306 0.950 . S
C2318 C2317 1.398 . S
C2318 C2319 1.391 . S
C2319 H2307 0.950 . S
C2319 C2315 1.393 . S
C2319 C2318 1.391 . S
H2320 C2328 0.950 . S
H2321 C2333 0.950 . S
H2322 C2330 0.950 . S
H2323 C2332 0.950 . S
H2324 C2334 0.950 . S
H2325 C2336 0.950 . S
H2326 C2338 0.950 . S
H2327 C2339 0.950 . S
C2328 H2320 0.950 . S
C2328 C2329 1.386 . S
C2328 C2330 1.391 . S
C2329 C2328 1.386 . S
C2329 C2333 1.393 . S
C2330 H2322 0.950 . S
C2330 C2328 1.391 . S
C2330 C2331 1.400 . S
C2331 C2330 1.400 . S
C2331 C2332 1.398 . S
C2331 C2337 1.491 . S
C2332 H2323 0.950 . S
C2332 C2331 1.398 . S
C2332 C2333 1.391 . S
C2333 H2321 0.950 . S
C2333 C2329 1.393 . S
C2333 C2332 1.391 . S
C2334 H2324 0.950 . S
C2334 C2335 1.386 . S
C2334 C2336 1.391 . S
C2335 C2334 1.386 . S
C2335 C2339 1.393 . S
C2336 H2325 0.950 . S
C2336 C2334 1.391 . S
C2336 C2337 1.400 . S
C2337 C2331 1.491 . S
C2337 C2336 1.400 . S
C2337 C2338 1.398 . S
C2338 H2326 0.950 . S
C2338 C2337 1.398 . S
C2338 C2339 1.391 . S
C2339 H2327 0.950 . S
C2339 C2335 1.393 . S
C2339 C2338 1.391 . S
H2340 C2348 0.950 . S
H2341 C2353 0.950 . S
H2342 C2350 0.950 . S
H2343 C2352 0.950 . S
H2344 C2354 0.950 . S
H2345 C2356 0.950 . S
H2346 C2358 0.950 . S
H2347 C2359 0.950 . S
C2348 H2340 0.950 . S
C2348 C2349 1.386 . S
C2348 C2350 1.391 . S
C2349 C2348 1.386 . S
C2349 C2353 1.393 . S
C2350 H2342 0.950 . S
C2350 C2348 1.391 . S
C2350 C2351 1.400 . S
C2351 C2350 1.400 . S
C2351 C2352 1.398 . S
C2351 C2357 1.491 . S
C2352 H2343 0.950 . S
C2352 C2351 1.398 . S
C2352 C2353 1.391 . S
C2353 H2341 0.950 . S
C2353 C2349 1.393 . S
C2353 C2352 1.391 . S
C2354 H2344 0.950 . S
C2354 C2355 1.386 . S
C2354 C2356 1.391 . S
C2355 C2354 1.386 . S
C2355 C2359 1.393 . S
C2356 H2345 0.950 . S
C2356 C2354 1.391 . S
C2356 C2357 1.400 . S
C2357 C2351 1.491 . S
C2357 C2356 1.400 . S
C2357 C2358 1.398 . S
C2358 H2346 0.950 . S
C2358 C2357 1.398 . S
C2358 C2359 1.391 . S
C2359 H2347 0.950 . S
C2359 C2355 1.393 . S
C2359 C2358 1.391 . S
H2360 C2368 0.950 . S
H2361 C2373 0.950 . S
H2362 C2370 0.950 . S
H2363 C2372 0.950 . S
H2364 C2374 0.950 . S
H2365 C2376 0.950 . S
H2366 C2378 0.950 . S
H2367 C2379 0.950 . S
C2368 H2360 0.950 . S
C2368 C2369 1.386 . S
C2368 C2370 1.391 . S
C2369 C2368 1.386 . S
C2369 C2373 1.393 . S
C2370 H2362 0.950 . S
C2370 C2368 1.391 . S
C2370 C2371 1.400 . S
C2371 C2370 1.400 . S
C2371 C2372 1.398 . S
C2371 C2377 1.491 . S
C2372 H2363 0.950 . S
C2372 C2371 1.398 . S
C2372 C2373 1.391 . S
C2373 H2361 0.950 . S
C2373 C2369 1.393 . S
C2373 C2372 1.391 . S
C2374 H2364 0.950 . S
C2374 C2375 1.386 . S
C2374 C2376 1.391 . S
C2375 C2374 1.386 . S
C2375 C2379 1.393 . S
C2376 H2365 0.950 . S
C2376 C2374 1.391 . S
C2376 C2377 1.400 . S
C2377 C2371 1.491 . S
C2377 C2376 1.400 . S
C2377 C2378 1.398 . S
C2378 H2366 0.950 . S
C2378 C2377 1.398 . S
C2378 C2379 1.391 . S
C2379 H2367 0.950 . S
C2379 C2375 1.393 . S
C2379 C2378 1.391 . S
H2380 C2388 0.950 . S
H2381 C2393 0.950 . S
H2382 C2390 0.950 . S
H2383 C2392 0.950 . S
H2384 C2394 0.950 . S
H2385 C2396 0.950 . S
H2386 C2398 0.950 . S
H2387 C2399 0.950 . S
C2388 H2380 0.950 . S
C2388 C2389 1.386 . S
C2388 C2390 1.391 . S
C2389 C2388 1.386 . S
C2389 C2393 1.393 . S
C2390 H2382 0.950 . S
C2390 C2388 1.391 . S
C2390 C2391 1.400 . S
C2391 C2390 1.400 . S
C2391 C2392 1.398 . S
C2391 C2397 1.491 . S
C2392 H2383 0.950 . S
C2392 C2391 1.398 . S
C2392 C2393 1.391 . S
C2393 H2381 0.950 . S
C2393 C2389 1.393 . S
C2393 C2392 1.391 . S
C2394 H2384 0.950 . S
C2394 C2395 1.386 . S
C2394 C2396 1.391 . S
C2395 C2394 1.386 . S
C2395 C2399 1.393 . S
C2396 H2385 0.950 . S
C2396 C2394 1.391 . S
C2396 C2397 1.400 . S
C2397 C2391 1.491 . S
C2397 C2396 1.400 . S
C2397 C2398 1.398 . S
C2398 H2386 0.950 . S
C2398 C2397 1.398 . S
C2398 C2399 1.391 . S
C2399 H2387 0.950 . S
C2399 C2395 1.393 . S
C2399 C2398 1.391 . S
H2400 C2408 0.950 . S
H2401 C2413 0.950 . S
H2402 C2410 0.950 . S
H2403 C2412 0.950 . S
H2404 C2414 0.950 . S
H2405 C2416 0.950 . S
H2406 C2418 0.950 . S
H2407 C2419 0.950 . S
C2408 H2400 0.950 . S
C2408 C2409 1.386 . S
C2408 C2410 1.391 . S
C2409 C2408 1.386 . S
C2409 C2413 1.393 . S
C2410 H2402 0.950 . S
C2410 C2408 1.391 . S
C2410 C2411 1.400 . S
C2411 C2410 1.400 . S
C2411 C2412 1.398 . S
C2411 C2417 1.491 . S
C2412 H2403 0.950 . S
C2412 C2411 1.398 . S
C2412 C2413 1.391 . S
C2413 H2401 0.950 . S
C2413 C2409 1.393 . S
C2413 C2412 1.391 . S
C2414 H2404 0.950 . S
C2414 C2415 1.386 . S
C2414 C2416 1.391 . S
C2415 C2414 1.386 . S
C2415 C2419 1.393 . S
C2416 H2405 0.950 . S
C2416 C2414 1.391 . S
C2416 C2417 1.400 . S
C2417 C2411 1.491 . S
C2417 C2416 1.400 . S
C2417 C2418 1.398 . S
C2418 H2406 0.950 . S
C2418 C2417 1.398 . S
C2418 C2419 1.391 . S
C2419 H2407 0.950 . S
C2419 C2415 1.393 . S
C2419 C2418 1.391 . S
H2420 C2428 0.950 . S
H2421 C2433 0.950 . S
H2422 C2430 0.950 . S
H2423 C2432 0.950 . S
H2424 C2434 0.950 . S
H2425 C2436 0.950 . S
H2426 C2438 0.950 . S
H2427 C2439 0.950 . S
C2428 H2420 0.950 . S
C2428 C2429 1.386 . S
C2428 C2430 1.391 . S
C2429 C2428 1.386 . S
C2429 C2433 1.393 . S
C2430 H2422 0.950 . S
C2430 C2428 1.391 . S
C2430 C2431 1.400 . S
C2431 C2430 1.400 . S
C2431 C2432 1.398 . S
C2431 C2437 1.491 . S
C2432 H2423 0.950 . S
C2432 C2431 1.398 . S
C2432 C2433 1.391 . S
C2433 H2421 0.950 . S
C2433 C2429 1.393 . S
C2433 C2432 1.391 . S
C2434 H2424 0.950 . S
C2434 C2435 1.386 . S
C2434 C2436 1.391 . S
C2435 C2434 1.386 . S
C2435 C2439 1.393 . S
C2436 H2425 0.950 . S
C2436 C2434 1.391 . S
C2436 C2437 1.400 . S
C2437 C2431 1.491 . S
C2437 C2436 1.400 . S
C2437 C2438 1.398 . S
C2438 H2426 0.950 . S
C2438 C2437 1.398 . S
C2438 C2439 1.391 . S
C2439 H2427 0.950 . S
C2439 C2435 1.393 . S
C2439 C2438 1.391 . S
H2440 C2448 0.950 . S
H2441 C2453 0.950 . S
H2442 C2450 0.950 . S
H2443 C2452 0.950 . S
H2444 C2454 0.950 . S
H2445 C2456 0.950 . S
H2446 C2458 0.950 . S
H2447 C2459 0.950 . S
C2448 H2440 0.950 . S
C2448 C2449 1.386 . S
C2448 C2450 1.391 . S
C2449 C2448 1.386 . S
C2449 C2453 1.393 . S
C2450 H2442 0.950 . S
C2450 C2448 1.391 . S
C2450 C2451 1.400 . S
C2451 C2450 1.400 . S
C2451 C2452 1.398 . S
C2451 C2457 1.491 . S
C2452 H2443 0.950 . S
C2452 C2451 1.398 . S
C2452 C2453 1.391 . S
C2453 H2441 0.950 . S
C2453 C2449 1.393 . S
C2453 C2452 1.391 . S
C2454 H2444 0.950 . S
C2454 C2455 1.386 . S
C2454 C2456 1.391 . S
C2455 C2454 1.386 . S
C2455 C2459 1.393 . S
C2456 H2445 0.950 . S
C2456 C2454 1.391 . S
C2456 C2457 1.400 . S
C2457 C2451 1.491 . S
C2457 C2456 1.400 . S
C2457 C2458 1.398 . S
C2458 H2446 0.950 . S
C2458 C2457 1.398 . S
C2458 C2459 1.391 . S
C2459 H2447 0.950 . S
C2459 C2455 1.393 . S
C2459 C2458 1.391 . S
H2460 C2468 0.950 . S
H2461 C2473 0.950 . S
H2462 C2470 0.950 . S
H2463 C2472 0.950 . S
H2464 C2474 0.950 . S
H2465 C2476 0.950 . S
H2466 C2478 0.950 . S
H2467 C2479 0.950 . S
C2468 H2460 0.950 . S
C2468 C2469 1.386 . S
C2468 C2470 1.391 . S
C2469 C2468 1.386 . S
C2469 C2473 1.393 . S
C2470 H2462 0.950 . S
C2470 C2468 1.391 . S
C2470 C2471 1.400 . S
C2471 C2470 1.400 . S
C2471 C2472 1.398 . S
C2471 C2477 1.491 . S
C2472 H2463 0.950 . S
C2472 C2471 1.398 . S
C2472 C2473 1.391 . S
C2473 H2461 0.950 . S
C2473 C2469 1.393 . S
C2473 C2472 1.391 . S
C2474 H2464 0.950 . S
C2474 C2475 1.386 . S
C2474 C2476 1.391 . S
C2475 C2474 1.386 . S
C2475 C2479 1.393 . S
C2476 H2465 0.950 . S
C2476 C2474 1.391 . S
C2476 C2477 1.400 . S
C2477 C2471 1.491 . S
C2477 C2476 1.400 . S
C2477 C2478 1.398 . S
C2478 H2466 0.950 . S
C2478 C2477 1.398 . S
C2478 C2479 1.391 . S
C2479 H2467 0.950 . S
C2479 C2475 1.393 . S
C2479 C2478 1.391 . S
H2480 C2488 0.950 . S
H2481 C2493 0.950 . S
H2482 C2490 0.950 . S
H2483 C2492 0.950 . S
H2484 C2494 0.950 . S
H2485 C2496 0.950 . S
H2486 C2498 0.950 . S
H2487 C2499 0.950 . S
C2488 H2480 0.950 . S
C2488 C2489 1.386 . S
C2488 C2490 1.391 . S
C2489 C2488 1.386 . S
C2489 C2493 1.393 . S
C2490 H2482 0.950 . S
C2490 C2488 1.391 . S
C2490 C2491 1.400 . S
C2491 C2490 1.400 . S
C2491 C2492 1.398 . S
C2491 C2497 1.491 . S
C2492 H2483 0.950 . S
C2492 C2491 1.398 . S
C2492 C2493 1.391 . S
C2493 H2481 0.950 . S
C2493 C2489 1.393 . S
C2493 C2492 1.391 . S
C2494 H2484 0.950 . S
C2494 C2495 1.386 . S
C2494 C2496 1.391 . S
C2495 C2494 1.386 . S
C2495 C2499 1.393 . S
C2496 H2485 0.950 . S
C2496 C2494 1.391 . S
C2496 C2497 1.400 . S
C2497 C2491 1.491 . S
C2497 C2496 1.400 . S
C2497 C2498 1.398 . S
C2498 H2486 0.950 . S
C2498 C2497 1.398 . S
C2498 C2499 1.391 . S
C2499 H2487 0.950 . S
C2499 C2495 1.393 . S
C2499 C2498 1.391 . S
H2500 C2508 0.950 . S
H2501 C2513 0.950 . S
H2502 C2510 0.950 . S
H2503 C2512 0.950 . S
H2504 C2514 0.950 . S
H2505 C2516 0.950 . S
H2506 C2518 0.950 . S
H2507 C2519 0.950 . S
C2508 H2500 0.950 . S
C2508 C2509 1.386 . S
C2508 C2510 1.391 . S
C2509 C2508 1.386 . S
C2509 C2513 1.393 . S
C2510 H2502 0.950 . S
C2510 C2508 1.391 . S
C2510 C2511 1.400 . S
C2511 C2510 1.400 . S
C2511 C2512 1.398 . S
C2511 C2517 1.491 . S
C2512 H2503 0.950 . S
C2512 C2511 1.398 . S
C2512 C2513 1.391 . S
C2513 H2501 0.950 . S
C2513 C2509 1.393 . S
C2513 C2512 1.391 . S
C2514 H2504 0.950 . S
C2514 C2515 1.386 . S
C2514 C2516 1.391 . S
C2515 C2514 1.386 . S
C2515 C2519 1.393 . S
C2516 H2505 0.950 . S
C2516 C2514 1.391 . S
C2516 C2517 1.400 . S
C2517 C2511 1.491 . S
C2517 C2516 1.400 . S
C2517 C2518 1.398 . S
C2518 H2506 0.950 . S
C2518 C2517 1.398 . S
C2518 C2519 1.391 . S
C2519 H2507 0.950 . S
C2519 C2515 1.393 . S
C2519 C2518 1.391 . S
H2520 C2528 0.950 . S
H2521 C2533 0.950 . S
H2522 C2530 0.950 . S
H2523 C2532 0.950 . S
H2524 C2534 0.950 . S
H2525 C2536 0.950 . S
H2526 C2538 0.950 . S
H2527 C2539 0.950 . S
C2528 H2520 0.950 . S
C2528 C2529 1.386 . S
C2528 C2530 1.391 . S
C2529 C2528 1.386 . S
C2529 C2533 1.393 . S
C2530 H2522 0.950 . S
C2530 C2528 1.391 . S
C2530 C2531 1.400 . S
C2531 C2530 1.400 . S
C2531 C2532 1.398 . S
C2531 C2537 1.491 . S
C2532 H2523 0.950 . S
C2532 C2531 1.398 . S
C2532 C2533 1.391 . S
C2533 H2521 0.950 . S
C2533 C2529 1.393 . S
C2533 C2532 1.391 . S
C2534 H2524 0.950 . S
C2534 C2535 1.386 . S
C2534 C2536 1.391 . S
C2535 C2534 1.386 . S
C2535 C2539 1.393 . S
C2536 H2525 0.950 . S
C2536 C2534 1.391 . S
C2536 C2537 1.400 . S
C2537 C2531 1.491 . S
C2537 C2536 1.400 . S
C2537 C2538 1.398 . S
C2538 H2526 0.950 . S
C2538 C2537 1.398 . S
C2538 C2539 1.391 . S
C2539 H2527 0.950 . S
C2539 C2535 1.393 . S
C2539 C2538 1.391 . S
H2540 C2548 0.950 . S
H2541 C2553 0.950 . S
H2542 C2550 0.950 . S
H2543 C2552 0.950 . S
H2544 C2554 0.950 . S
H2545 C2556 0.950 . S
H2546 C2558 0.950 . S
H2547 C2559 0.950 . S
C2548 H2540 0.950 . S
C2548 C2549 1.386 . S
C2548 C2550 1.391 . S
C2549 C2548 1.386 . S
C2549 C2553 1.393 . S
C2550 H2542 0.950 . S
C2550 C2548 1.391 . S
C2550 C2551 1.400 . S
C2551 C2550 1.400 . S
C2551 C2552 1.398 . S
C2551 C2557 1.491 . S
C2552 H2543 0.950 . S
C2552 C2551 1.398 . S
C2552 C2553 1.391 . S
C2553 H2541 0.950 . S
C2553 C2549 1.393 . S
C2553 C2552 1.391 . S
C2554 H2544 0.950 . S
C2554 C2555 1.386 . S
C2554 C2556 1.391 . S
C2555 C2554 1.386 . S
C2555 C2559 1.393 . S
C2556 H2545 0.950 . S
C2556 C2554 1.391 . S
C2556 C2557 1.400 . S
C2557 C2551 1.491 . S
C2557 C2556 1.400 . S
C2557 C2558 1.398 . S
C2558 H2546 0.950 . S
C2558 C2557 1.398 . S
C2558 C2559 1.391 . S
C2559 H2547 0.950 . S
C2559 C2555 1.393 . S
C2559 C2558 1.391 . S
C649 C8 1.795 . S
C655 C66 1.760 . S
C669 C6 1.750 . S
C675 C28 1.786 . S
C689 C48 1.784 . S
C695 C26 1.737 . S
C709 C46 1.761 . S
C715 C68 1.799 1_556 S
C729 C106 1.751 . S
C735 C88 1.787 . S
C749 C108 1.799 . S
C755 C126 1.760 . S
C769 C146 1.740 . S
C775 C128 1.781 . S
C789 C86 1.757 . S
C795 C148 1.799 1_554 S
C809 C179 1.785 . S
C815 C236 1.748 . S
C829 C199 1.781 . S
C835 C176 1.739 . S
C849 C219 1.796 . S
C855 C196 1.750 . S
C869 C239 1.799 1_554 S
C875 C216 1.759 . S
C889 C259 1.781 . S
C895 C276 1.741 . S
C909 C279 1.783 . S
C915 C296 1.745 . S
C929 C316 1.738 . S
C935 C299 1.786 . S
C949 C256 1.748 . S
C955 C319 1.794 1_556 S
C969 C328 1.791 . S
C975 C386 1.743 . S
C989 C326 1.743 . S
C995 C348 1.790 1_556 S
C1009 C346 1.746 . S
C1015 C368 1.783 . S
C1029 C388 1.781 . S
C1035 C366 1.736 . S
C1049 C408 1.799 . S
C1055 C426 1.759 . S
C1069 C446 1.741 . S
C1075 C428 1.756 1_554 S
C1089 C448 1.789 . S
C1095 C466 1.741 . S
C1109 C406 1.761 . S
C1115 C468 1.798 . S
C1129 C556 1.754 . S
C1135 C499 1.789 . S
C1149 C496 1.742 . S
C1155 C519 1.753 1_554 S
C1169 C539 1.788 . S
C1175 C516 1.752 . S
C1189 C536 1.745 . S
C1195 C559 1.792 . S
C1209 C596 1.761 . S
C1215 C579 1.798 . S
C1229 C616 1.756 . S
C1235 C599 1.798 1_556 S
C1249 C636 1.737 . S
C1255 C619 1.781 . S
C1269 C639 1.798 . S
C1275 C576 1.761 . S
C1289 C548 1.425 . S
C1295 C1 1.501 . S
C1309 C21 1.492 . S
C1315 C168 1.391 . S
C1329 C41 1.502 . S
C1335 C508 1.409 . S
C1349 C61 1.494 . S
C1355 C208 1.413 . S
C1369 C81 1.491 . S
C1375 C588 1.394 . S
C1389 C288 1.417 . S
C1395 C101 1.496 . S
C1409 C628 1.397 . S
C1415 C121 1.491 . S
C1429 C141 1.495 . S
C1435 C248 1.390 . S
C1449 C169 1.500 . S
C1455 C399 1.400 . S
C1469 C19 1.391 . S
C1475 C189 1.492 . S
C1489 C359 1.391 . S
C1495 C209 1.496 . S
C1509 C59 1.391 . S
C1515 C229 1.492 . S
C1529 C439 1.419 . S
C1535 C249 1.496 . S
C1549 C139 1.420 . S
C1555 C269 1.503 . S
C1569 C289 1.503 . S
C1575 C479 1.419 . S
C1589 C309 1.491 . S
C1595 C99 1.395 . S
C1609 C321 1.495 . S
C1615 C228 1.415 . S
C1629 C341 1.492 . S
C1635 C488 1.390 . S
C1649 C361 1.493 . S
C1655 C188 1.407 . S
C1669 C381 1.503 . S
C1675 C528 1.422 . S
C1689 C401 1.495 . S
C1695 C268 1.390 . S
C1709 C421 1.492 . S
C1715 C608 1.391 . S
C1729 C308 1.410 . S
C1735 C441 1.502 . S
C1749 C461 1.503 . S
C1755 C568 1.420 . S
C1769 C79 1.421 . S
C1775 C489 1.503 . S
C1789 C339 1.398 . S
C1795 C509 1.491 . S
C1809 C39 1.423 . S
C1815 C529 1.499 . S
C1829 C379 1.401 . S
C1835 C549 1.500 . S
C1849 C119 1.424 . S
C1855 C569 1.501 . S
C1869 C589 1.492 . S
C1875 C459 1.401 . S
C1889 C609 1.503 . S
C1895 C159 1.419 . S
C1909 C419 1.393 . S
C1915 C629 1.497 . S
C1929 C9 0.297 . S
C1935 C89 0.332 . S
C1949 C29 0.316 . S
C1955 C109 0.348 . S
C1969 C49 0.349 . S
C1975 C129 0.321 . S
C1989 C149 0.298 . S
C1995 C69 0.334 . S
C2009 C241 0.323 . S
C2015 C161 0.295 . S
C2029 C261 0.301 . S
C2035 C181 0.339 . S
C2049 C201 0.317 . S
C2055 C281 0.349 . S
C2069 C221 0.345 . S
C2075 C301 0.336 . S
C2089 C329 0.341 . S
C2095 C409 0.342 . S
C2109 C429 0.346 . S
C2115 C349 0.334 . S
C2129 C449 0.296 . S
C2135 C369 0.317 . S
C2149 C469 0.347 . S
C2155 C389 0.311 . S
C2169 C561 0.302 . S
C2175 C481 0.306 . S
C2189 C501 0.349 . S
C2195 C581 0.327 . S
C2209 C601 0.296 . S
C2215 C521 0.317 . S
C2229 C541 0.349 . S
C2235 C621 0.318 . S
C2249 C156 1.806 . S
C2255 C16 1.807 . S
C2269 C36 1.826 . S
C2275 C96 1.824 . S
C2289 C56 1.825 . S
C2295 C116 1.827 . S
C2309 C136 1.825 . S
C2315 C76 1.826 . S
C2329 C166 1.814 . S
C2335 C306 1.812 . S
C2349 C246 1.828 . S
C2355 C186 1.828 . S
C2369 C266 1.826 . S
C2375 C206 1.824 . S
C2389 C226 1.827 . S
C2395 C286 1.828 . S
C2409 C336 1.813 . S
C2415 C476 1.815 . S
C2429 C416 1.814 . S
C2435 C356 1.816 . S
C2449 C436 1.826 . S
C2455 C376 1.825 . S
C2469 C456 1.820 . S
C2475 C396 1.818 . S
C2489 C486 1.812 . S
C2495 C626 1.811 . S
C2509 C566 1.826 . S
C2515 C506 1.824 . S
C2529 C526 1.827 . S
C2535 C586 1.826 . S
C2549 C606 1.809 . S
C2555 C546 1.808 . S
