# Generated by pormake.
# Topology tzs, (4)-cn, num edge types: 1
# Building blocks:
#     Node 0, Type 0, BuildingBlock: TATPOV_clean_sbu_0, # of connection points: 4
#     Node 1, Type 0, BuildingBlock: TATPOV_clean_sbu_0, # of connection points: 4
#     Node 2, Type 0, BuildingBlock: TATPOV_clean_sbu_0, # of connection points: 4
#     Node 3, Type 0, BuildingBlock: TATPOV_clean_sbu_0, # of connection points: 4
#     Node 4, Type 0, BuildingBlock: TATPOV_clean_sbu_0, # of connection points: 4
#     Node 5, Type 0, BuildingBlock: TATPOV_clean_sbu_0, # of connection points: 4
#     Node 6, Type 0, BuildingBlock: TATPOV_clean_sbu_0, # of connection points: 4
#     Node 7, Type 0, BuildingBlock: TATPOV_clean_sbu_0, # of connection points: 4
#     Node 8, Type 0, BuildingBlock: TATPOV_clean_sbu_0, # of connection points: 4
#     Node 9, Type 0, BuildingBlock: TATPOV_clean_sbu_0, # of connection points: 4
#     Node 10, Type 0, BuildingBlock: TATPOV_clean_sbu_0, # of connection points: 4
#     Node 11, Type 0, BuildingBlock: TATPOV_clean_sbu_0, # of connection points: 4
#     Node 12, Type 0, BuildingBlock: TATPOV_clean_sbu_0, # of connection points: 4
#     Node 13, Type 0, BuildingBlock: TATPOV_clean_sbu_0, # of connection points: 4
#     Node 14, Type 0, BuildingBlock: TATPOV_clean_sbu_0, # of connection points: 4
#     Node 15, Type 0, BuildingBlock: TATPOV_clean_sbu_0, # of connection points: 4
#     Edge 16, Type (0, 0), BuildingBlock: XUDNAN_clean_linker_2, # of connection points: 2
#     Edge 17, Type (0, 0), BuildingBlock: XUDNAN_clean_linker_2, # of connection points: 2
#     Edge 18, Type (0, 0), BuildingBlock: XUDNAN_clean_linker_2, # of connection points: 2
#     Edge 19, Type (0, 0), BuildingBlock: XUDNAN_clean_linker_2, # of connection points: 2
#     Edge 20, Type (0, 0), BuildingBlock: XUDNAN_clean_linker_2, # of connection points: 2
#     Edge 21, Type (0, 0), BuildingBlock: XUDNAN_clean_linker_2, # of connection points: 2
#     Edge 22, Type (0, 0), BuildingBlock: XUDNAN_clean_linker_2, # of connection points: 2
#     Edge 23, Type (0, 0), BuildingBlock: XUDNAN_clean_linker_2, # of connection points: 2
#     Edge 24, Type (0, 0), BuildingBlock: XUDNAN_clean_linker_2, # of connection points: 2
#     Edge 25, Type (0, 0), BuildingBlock: XUDNAN_clean_linker_2, # of connection points: 2
#     Edge 26, Type (0, 0), BuildingBlock: XUDNAN_clean_linker_2, # of connection points: 2
#     Edge 27, Type (0, 0), BuildingBlock: XUDNAN_clean_linker_2, # of connection points: 2
#     Edge 28, Type (0, 0), BuildingBlock: XUDNAN_clean_linker_2, # of connection points: 2
#     Edge 29, Type (0, 0), BuildingBlock: XUDNAN_clean_linker_2, # of connection points: 2
#     Edge 30, Type (0, 0), BuildingBlock: XUDNAN_clean_linker_2, # of connection points: 2
#     Edge 31, Type (0, 0), BuildingBlock: XUDNAN_clean_linker_2, # of connection points: 2
#     Edge 32, Type (0, 0), BuildingBlock: XUDNAN_clean_linker_2, # of connection points: 2
#     Edge 33, Type (0, 0), BuildingBlock: XUDNAN_clean_linker_2, # of connection points: 2
#     Edge 34, Type (0, 0), BuildingBlock: XUDNAN_clean_linker_2, # of connection points: 2
#     Edge 35, Type (0, 0), BuildingBlock: XUDNAN_clean_linker_2, # of connection points: 2
#     Edge 36, Type (0, 0), BuildingBlock: XUDNAN_clean_linker_2, # of connection points: 2
#     Edge 37, Type (0, 0), BuildingBlock: XUDNAN_clean_linker_2, # of connection points: 2
#     Edge 38, Type (0, 0), BuildingBlock: XUDNAN_clean_linker_2, # of connection points: 2
#     Edge 39, Type (0, 0), BuildingBlock: XUDNAN_clean_linker_2, # of connection points: 2
#     Edge 40, Type (0, 0), BuildingBlock: XUDNAN_clean_linker_2, # of connection points: 2
#     Edge 41, Type (0, 0), BuildingBlock: XUDNAN_clean_linker_2, # of connection points: 2
#     Edge 42, Type (0, 0), BuildingBlock: XUDNAN_clean_linker_2, # of connection points: 2
#     Edge 43, Type (0, 0), BuildingBlock: XUDNAN_clean_linker_2, # of connection points: 2
#     Edge 44, Type (0, 0), BuildingBlock: XUDNAN_clean_linker_2, # of connection points: 2
#     Edge 45, Type (0, 0), BuildingBlock: XUDNAN_clean_linker_2, # of connection points: 2
#     Edge 46, Type (0, 0), BuildingBlock: XUDNAN_clean_linker_2, # of connection points: 2
#     Edge 47, Type (0, 0), BuildingBlock: XUDNAN_clean_linker_2, # of connection points: 2
# Relax obj value: 0.049
# Max RMSD: 0.075
# Mean RMSD: 0.075
data_MOF--net-tzs--node1-TATPOV_clean_sbu_0--edge1-XUDNAN_clean_linker_2
_symmetry_space_group_name_H-M    P1
_symmetry_Int_Tables_number       1
_symmetry_cell_setting            triclinic
loop_
_symmetry_equiv_pos_as_xyz
'x, y, z'
_cell_length_a     47.783113
_cell_length_b     47.852492
_cell_length_c     41.706931
_cell_angle_alpha  89.969292
_cell_angle_beta   89.8996
_cell_angle_gamma 90.149232
loop_
_atom_site_label
_atom_site_type_symbol
_atom_site_fract_x
_atom_site_fract_y
_atom_site_fract_z
_atom_type_partial_charge
Zn0 Zn 0.09716 0.36913 0.16514 0.0
Zn1 Zn 0.13571 0.33533 0.18956 0.0
O2 O 0.09928 0.31551 0.2029 0.0
O3 O 0.06762 0.34099 0.17805 0.0
O4 O 0.1657 0.30983 0.20621 0.0
O5 O 0.11442 0.36651 0.1219 0.0
O6 O 0.14381 0.3352 0.14066 0.0
C7 C 0.07398 0.31995 0.19491 0.0
C8 C 0.13065 0.3963 0.21266 0.0
O9 O 0.14285 0.37262 0.21342 0.0
O10 O 0.10988 0.4001 0.19439 0.0
C11 C 0.19064 0.31319 0.19628 0.0
O12 O 0.19618 0.33387 0.17651 0.0
C13 C 0.13414 0.3494 0.11735 0.0
Zn14 Zn 0.63349 0.10053 0.10813 0.0
Zn15 Zn 0.65601 0.12788 0.15863 0.0
O16 O 0.66762 0.0871 0.16613 0.0
O17 O 0.64922 0.06442 0.12523 0.0
O18 O 0.67617 0.14952 0.19295 0.0
O19 O 0.65686 0.12314 0.07778 0.0
O20 O 0.67163 0.1481 0.11878 0.0
C21 C 0.6632 0.06437 0.15099 0.0
C22 C 0.5927 0.12679 0.15019 0.0
O23 O 0.61415 0.13288 0.16688 0.0
O24 O 0.59534 0.11435 0.12352 0.0
C25 C 0.66541 0.16863 0.21013 0.0
O26 O 0.63845 0.17361 0.2081 0.0
C27 C 0.67107 0.14325 0.08882 0.0
Zn28 Zn 0.88302 0.6263 0.14327 0.0
Zn29 Zn 0.84061 0.64217 0.18224 0.0
O30 O 0.87634 0.65442 0.20628 0.0
O31 O 0.91085 0.64234 0.17412 0.0
O32 O 0.80917 0.65533 0.21046 0.0
O33 O 0.86747 0.65097 0.1086 0.0
O34 O 0.83182 0.66184 0.13975 0.0
C35 C 0.90246 0.65319 0.20006 0.0
C36 C 0.84849 0.5804 0.16631 0.0
O37 O 0.83514 0.59981 0.1805 0.0
O38 O 0.86961 0.58617 0.14907 0.0
C39 C 0.80353 0.68125 0.21062 0.0
O40 O 0.81912 0.69837 0.19356 0.0
C41 C 0.84482 0.66396 0.11325 0.0
Zn42 Zn 0.35798 0.87488 0.15944 0.0
Zn43 Zn 0.3237 0.83654 0.17206 0.0
O44 O 0.30723 0.87229 0.19395 0.0
O45 O 0.33196 0.9056 0.17113 0.0
O46 O 0.29453 0.80685 0.18056 0.0
O47 O 0.36222 0.8641 0.1139 0.0
O48 O 0.32627 0.83631 0.12204 0.0
C49 C 0.31205 0.89825 0.18926 0.0
C50 C 0.38116 0.83567 0.20265 0.0
O51 O 0.3593 0.82185 0.1951 0.0
O52 O 0.38463 0.86028 0.19234 0.0
C53 C 0.28864 0.79823 0.20862 0.0
O54 O 0.30193 0.809 0.23326 0.0
C55 C 0.344 0.84747 0.10299 0.0
Zn56 Zn 0.09459 0.59854 0.37467 0.0
Zn57 Zn 0.12788 0.63105 0.33931 0.0
O58 O 0.08839 0.6428 0.32453 0.0
O59 O 0.061 0.61531 0.35331 0.0
O60 O 0.15374 0.65597 0.31374 0.0
O61 O 0.10765 0.61716 0.41427 0.0
O62 O 0.13714 0.6428 0.38608 0.0
C63 C 0.06402 0.63458 0.3328 0.0
C64 C 0.13184 0.56676 0.33576 0.0
O65 O 0.1387 0.59091 0.32539 0.0
O66 O 0.11391 0.56416 0.35792 0.0
C67 C 0.15243 0.65792 0.28339 0.0
O68 O 0.13382 0.64292 0.26783 0.0
C69 C 0.12639 0.63581 0.41291 0.0
Zn70 Zn 0.39008 0.09028 0.32388 0.0
Zn71 Zn 0.35668 0.12574 0.29218 0.0
O72 O 0.33583 0.08856 0.28582 0.0
O73 O 0.3609 0.06005 0.31575 0.0
O74 O 0.33414 0.15426 0.26838 0.0
O75 O 0.38727 0.11466 0.36276 0.0
O76 O 0.35644 0.1414 0.33837 0.0
C77 C 0.33994 0.06444 0.29787 0.0
C78 C 0.41779 0.11577 0.27073 0.0
O79 O 0.3942 0.12788 0.26805 0.0
O80 O 0.42167 0.09791 0.29267 0.0
C81 C 0.30973 0.16168 0.27687 0.0
O82 O 0.29778 0.14937 0.30153 0.0
C83 C 0.37062 0.13518 0.36318 0.0
Zn84 Zn 0.88782 0.37775 0.30623 0.0
Zn85 Zn 0.84636 0.34546 0.298 0.0
O86 O 0.88098 0.32131 0.28622 0.0
O87 O 0.9153 0.34637 0.30626 0.0
O88 O 0.8131 0.31989 0.29205 0.0
O89 O 0.87203 0.39203 0.34735 0.0
O90 O 0.84275 0.35649 0.34572 0.0
C91 C 0.90679 0.32405 0.2933 0.0
C92 C 0.85498 0.39671 0.2552 0.0
O93 O 0.83845 0.37834 0.26687 0.0
O94 O 0.8797 0.39877 0.26574 0.0
C95 C 0.81357 0.29794 0.27492 0.0
O96 O 0.83667 0.29124 0.25965 0.0
C97 C 0.85328 0.37728 0.36048 0.0
Zn98 Zn 0.59464 0.88527 0.32878 0.0
Zn99 Zn 0.62301 0.84233 0.30585 0.0
O100 O 0.63652 0.87549 0.278 0.0
O101 O 0.61342 0.91128 0.29793 0.0
O102 O 0.64655 0.811 0.28901 0.0
O103 O 0.61239 0.8806 0.37147 0.0
O104 O 0.6357 0.8443 0.35321 0.0
C105 C 0.6311 0.90156 0.27831 0.0
C106 C 0.5589 0.84185 0.30406 0.0
O107 O 0.58208 0.82991 0.29767 0.0
O108 O 0.55882 0.86553 0.3176 0.0
C109 C 0.64623 0.78662 0.30107 0.0
O110 O 0.62878 0.78097 0.3246 0.0
C111 C 0.6299 0.86121 0.37583 0.0
Zn112 Zn 0.86262 0.60955 0.86773 0.0
Zn113 Zn 0.84042 0.64718 0.82731 0.0
O114 O 0.82376 0.60902 0.81328 0.0
O115 O 0.83905 0.579 0.84925 0.0
O116 O 0.82008 0.67499 0.79975 0.0
O117 O 0.84722 0.63082 0.90516 0.0
O118 O 0.82946 0.66178 0.87182 0.0
C119 C 0.82442 0.58429 0.82477 0.0
C120 C 0.90351 0.63815 0.82715 0.0
O121 O 0.88237 0.65179 0.81712 0.0
O122 O 0.90045 0.61893 0.84783 0.0
C123 C 0.82847 0.68567 0.77355 0.0
O124 O 0.85271 0.67805 0.76154 0.0
C125 C 0.83341 0.6529 0.90016 0.0
Zn126 Zn 0.39993 0.89809 0.82668 0.0
Zn127 Zn 0.36424 0.86275 0.79855 0.0
O128 O 0.40181 0.84778 0.78125 0.0
O129 O 0.43103 0.8777 0.80386 0.0
O130 O 0.33416 0.83925 0.77826 0.0
O131 O 0.38774 0.88476 0.86985 0.0
O132 O 0.3574 0.85639 0.8471 0.0
C133 C 0.4266 0.85672 0.78609 0.0
C134 C 0.36276 0.92652 0.78524 0.0
O135 O 0.35482 0.9015 0.78 0.0
O136 O 0.38156 0.93139 0.80584 0.0
C137 C 0.32795 0.81447 0.78668 0.0
O138 O 0.34284 0.80207 0.80895 0.0
C139 C 0.36874 0.86641 0.87224 0.0
Zn140 Zn 0.13685 0.39573 0.83493 0.0
Zn141 Zn 0.16101 0.35181 0.81369 0.0
O142 O 0.18512 0.38444 0.79504 0.0
O143 O 0.16796 0.42054 0.82109 0.0
O144 O 0.18193 0.31725 0.80008 0.0
O145 O 0.1366 0.38313 0.87993 0.0
O146 O 0.1618 0.34756 0.86349 0.0
C147 C 0.18593 0.41032 0.80226 0.0
C148 C 0.10215 0.36627 0.7907 0.0
O149 O 0.12186 0.34836 0.79212 0.0
O150 O 0.10412 0.38898 0.80607 0.0
C151 C 0.19518 0.31501 0.77375 0.0
O152 O 0.1945 0.33572 0.75307 0.0
C153 C 0.1507 0.36153 0.88622 0.0
Zn154 Zn 0.63526 0.14246 0.85363 0.0
Zn155 Zn 0.66681 0.1714 0.81168 0.0
O156 O 0.62648 0.18124 0.79812 0.0
O157 O 0.60057 0.15895 0.83378 0.0
O158 O 0.69133 0.19524 0.78353 0.0
O159 O 0.65327 0.16195 0.89034 0.0
O160 O 0.68009 0.18493 0.85625 0.0
C161 C 0.60256 0.17492 0.80968 0.0
C162 C 0.67044 0.10766 0.81368 0.0
O163 O 0.67742 0.13084 0.80086 0.0
O164 O 0.65313 0.10701 0.83671 0.0
C165 C 0.69999 0.18959 0.75546 0.0
O166 O 0.69205 0.16624 0.74161 0.0
C167 C 0.67249 0.17948 0.88483 0.0
Zn168 Zn 0.89079 0.42617 0.64292 0.0
Zn169 Zn 0.86372 0.37935 0.65633 0.0
O170 O 0.84273 0.40888 0.68376 0.0
O171 O 0.86413 0.44787 0.66981 0.0
O172 O 0.84209 0.34372 0.66413 0.0
O173 O 0.8819 0.42325 0.59656 0.0
O174 O 0.85841 0.3847 0.60745 0.0
C175 C 0.84513 0.43539 0.6854 0.0
C176 C 0.92603 0.38547 0.67315 0.0
O177 O 0.90393 0.37047 0.67216 0.0
O178 O 0.92572 0.41012 0.66212 0.0
C179 C 0.83097 0.33802 0.69106 0.0
O180 O 0.83439 0.3554 0.71512 0.0
C181 C 0.86655 0.40322 0.58751 0.0
Zn182 Zn 0.63382 0.91534 0.64824 0.0
Zn183 Zn 0.66669 0.87626 0.67263 0.0
O184 O 0.62832 0.86184 0.68825 0.0
O185 O 0.60107 0.89375 0.66661 0.0
O186 O 0.69533 0.84781 0.6861 0.0
O187 O 0.6465 0.90796 0.60365 0.0
O188 O 0.67174 0.87374 0.62345 0.0
C189 C 0.60395 0.87162 0.68298 0.0
C190 C 0.67211 0.9382 0.69304 0.0
O191 O 0.67935 0.91265 0.6957 0.0
O192 O 0.65303 0.9451 0.67363 0.0
C193 C 0.69398 0.83019 0.70884 0.0
O194 O 0.67185 0.82972 0.72757 0.0
C195 C 0.663 0.88769 0.59949 0.0
Zn196 Zn 0.11875 0.60281 0.68149 0.0
Zn197 Zn 0.15069 0.64022 0.70816 0.0
O198 O 0.17103 0.60323 0.71869 0.0
O199 O 0.14764 0.57316 0.68916 0.0
O200 O 0.1756 0.66976 0.72737 0.0
O201 O 0.11902 0.6245 0.64026 0.0
O202 O 0.15253 0.65074 0.66033 0.0
C203 C 0.16794 0.57857 0.70761 0.0
C204 C 0.08982 0.63114 0.73077 0.0
O205 O 0.11186 0.64628 0.73002 0.0
O206 O 0.08826 0.60935 0.71371 0.0
C207 C 0.17091 0.69502 0.71969 0.0
O208 O 0.14921 0.70068 0.70152 0.0
C209 C 0.13721 0.64354 0.63684 0.0
Zn210 Zn 0.41482 0.12798 0.63194 0.0
Zn211 Zn 0.37529 0.15942 0.65923 0.0
O212 O 0.41148 0.17239 0.68195 0.0
O213 O 0.44383 0.14549 0.66047 0.0
O214 O 0.34512 0.18304 0.67947 0.0
O215 O 0.40697 0.14558 0.58968 0.0
O216 O 0.37179 0.16888 0.61076 0.0
C217 C 0.43694 0.1646 0.6799 0.0
C218 C 0.37272 0.09535 0.66333 0.0
O219 O 0.36381 0.11934 0.67158 0.0
O220 O 0.39385 0.09303 0.64521 0.0
C221 C 0.33579 0.17718 0.70725 0.0
O222 O 0.34644 0.15586 0.72285 0.0
C223 C 0.38662 0.16219 0.5865 0.0
H224 H 0.25635 0.18143 0.28623 0.0
H225 H 0.33192 0.19543 0.23037 0.0
H226 H 0.30987 0.23608 0.20445 0.0
H227 H 0.20774 0.19973 0.22337 0.0
H228 H 0.18343 0.21641 0.2503 0.0
H229 H 0.20517 0.18832 0.26448 0.0
H230 H 0.22404 0.22029 0.30974 0.0
H231 H 0.20249 0.24853 0.29558 0.0
H232 H 0.23974 0.25344 0.29954 0.0
H233 H 0.28029 0.27581 0.18558 0.0
H234 H 0.24397 0.31056 0.17266 0.0
H235 H 0.18726 0.27027 0.23992 0.0
C236 C 0.26824 0.19297 0.26847 0.0
C237 C 0.29589 0.18525 0.26038 0.0
C238 C 0.31069 0.20089 0.23695 0.0
C239 C 0.29839 0.22408 0.22214 0.0
C240 C 0.27123 0.23127 0.23088 0.0
C241 C 0.25623 0.2161 0.2533 0.0
C242 C 0.22723 0.22815 0.25808 0.0
C243 C 0.20456 0.20688 0.24848 0.0
C244 C 0.22315 0.2382 0.29279 0.0
C245 C 0.22835 0.25249 0.2349 0.0
C246 C 0.25397 0.25399 0.21959 0.0
C247 C 0.26009 0.27482 0.19731 0.0
C248 C 0.23934 0.2945 0.19021 0.0
C249 C 0.21276 0.29311 0.20522 0.0
C250 C 0.20734 0.27187 0.22798 0.0
H251 H 0.80835 0.24836 0.24264 0.0
H252 H 0.76149 0.30756 0.30035 0.0
H253 H 0.71897 0.27866 0.29391 0.0
H254 H 0.7553 0.23474 0.18641 0.0
H255 H 0.76343 0.19816 0.18218 0.0
H256 H 0.79044 0.22253 0.19331 0.0
H257 H 0.80101 0.19314 0.24409 0.0
H258 H 0.7739 0.16871 0.23316 0.0
H259 H 0.77315 0.18534 0.27193 0.0
H260 H 0.68076 0.24499 0.27775 0.0
H261 H 0.65007 0.20943 0.25288 0.0
H262 H 0.7225 0.17196 0.20712 0.0
C263 C 0.78924 0.25516 0.25419 0.0
C264 C 0.78827 0.28023 0.272 0.0
C265 C 0.76277 0.2884 0.28662 0.0
C266 C 0.73851 0.27209 0.28318 0.0
C267 C 0.74017 0.24757 0.26528 0.0
C268 C 0.76491 0.2391 0.25114 0.0
C269 C 0.76091 0.21254 0.23201 0.0
C270 C 0.76792 0.21729 0.19637 0.0
C271 C 0.77827 0.18851 0.24616 0.0
C272 C 0.72991 0.20771 0.23701 0.0
C273 C 0.71831 0.22802 0.25642 0.0
C274 C 0.68968 0.22877 0.26286 0.0
C275 C 0.67241 0.2085 0.24862 0.0
C276 C 0.68387 0.1878 0.22824 0.0
C277 C 0.71309 0.18721 0.22296 0.0
H278 H 0.78197 0.73406 0.20865 0.0
H279 H 0.76894 0.65242 0.25169 0.0
H280 H 0.7267 0.67016 0.27925 0.0
H281 H 0.76006 0.7749 0.27641 0.0
H282 H 0.74331 0.80113 0.25213 0.0
H283 H 0.77263 0.78192 0.23642 0.0
H284 H 0.74273 0.76668 0.18761 0.0
H285 H 0.71326 0.7857 0.20327 0.0
H286 H 0.70985 0.74902 0.19425 0.0
H287 H 0.68578 0.69725 0.30222 0.0
H288 H 0.64977 0.73143 0.31876 0.0
H289 H 0.68966 0.79454 0.25927 0.0
C290 C 0.77038 0.7199 0.224 0.0
C291 C 0.7788 0.69187 0.2281 0.0
C292 C 0.76288 0.674 0.24823 0.0
C293 C 0.73886 0.68387 0.26395 0.0
C294 C 0.73103 0.7116 0.25916 0.0
C295 C 0.74634 0.72932 0.23966 0.0
C296 C 0.73341 0.7581 0.23816 0.0
C297 C 0.75355 0.78032 0.25159 0.0
C298 C 0.72427 0.76528 0.20378 0.0
C299 C 0.70845 0.75386 0.25993 0.0
C300 C 0.70739 0.72694 0.27189 0.0
C301 C 0.68636 0.71836 0.29294 0.0
C302 C 0.666 0.7379 0.30217 0.0
C303 C 0.66683 0.76562 0.29023 0.0
C304 C 0.68828 0.77348 0.26868 0.0
H305 H 0.27132 0.77462 0.26538 0.0
H306 H 0.25705 0.77221 0.16261 0.0
H307 H 0.221 0.73579 0.17046 0.0
H308 H 0.26311 0.70073 0.2793 0.0
H309 H 0.24563 0.70524 0.31727 0.0
H310 H 0.27039 0.73106 0.30355 0.0
H311 H 0.2327 0.76959 0.30934 0.0
H312 H 0.20783 0.74389 0.32309 0.0
H313 H 0.19964 0.76559 0.28905 0.0
H314 H 0.18619 0.69979 0.18955 0.0
H315 H 0.15519 0.66698 0.21854 0.0
H316 H 0.19235 0.69288 0.30875 0.0
C317 C 0.26065 0.76644 0.24449 0.0
C318 C 0.26705 0.77631 0.21337 0.0
C319 C 0.25255 0.76501 0.1867 0.0
C320 C 0.23203 0.74429 0.1909 0.0
C321 C 0.22625 0.73506 0.2219 0.0
C322 C 0.24013 0.74575 0.24824 0.0
C323 C 0.2299 0.7323 0.279 0.0
C324 C 0.25367 0.71639 0.29576 0.0
C325 C 0.21673 0.75415 0.30143 0.0
C326 C 0.20803 0.71244 0.26586 0.0
C327 C 0.20625 0.71432 0.23287 0.0
C328 C 0.18742 0.69811 0.21539 0.0
C329 C 0.16989 0.67952 0.23208 0.0
C330 C 0.17131 0.67729 0.26592 0.0
C331 C 0.19074 0.69401 0.28288 0.0
H332 H 0.69972 0.7906 0.75629 0.0
H333 H 0.74045 0.82379 0.67118 0.0
H334 H 0.77868 0.78981 0.67768 0.0
H335 H 0.7626 0.7789 0.80134 0.0
H336 H 0.75009 0.74704 0.81951 0.0
H337 H 0.72563 0.77374 0.80787 0.0
H338 H 0.69876 0.73771 0.77311 0.0
H339 H 0.72319 0.71092 0.78458 0.0
H340 H 0.71732 0.71834 0.74276 0.0
H341 H 0.81274 0.7523 0.69347 0.0
H342 H 0.8406 0.71467 0.7184 0.0
H343 H 0.77775 0.7062 0.79317 0.0
C344 C 0.71665 0.79072 0.739 0.0
C345 C 0.71702 0.80989 0.71322 0.0
C346 C 0.73966 0.80937 0.69117 0.0
C347 C 0.76148 0.79009 0.6946 0.0
C348 C 0.76045 0.77147 0.72022 0.0
C349 C 0.73867 0.77166 0.74209 0.0
C350 C 0.74282 0.74966 0.76774 0.0
C351 C 0.74545 0.76315 0.80108 0.0
C352 C 0.71911 0.72787 0.76698 0.0
C353 C 0.77033 0.73716 0.75688 0.0
C354 C 0.78013 0.74995 0.72938 0.0
C355 C 0.80528 0.74209 0.71502 0.0
C356 C 0.82095 0.72068 0.72934 0.0
C357 C 0.81141 0.70746 0.75773 0.0
C358 C 0.78566 0.71582 0.77145 0.0
H359 H 0.21786 0.69086 0.75755 0.0
H360 H 0.16954 0.74972 0.70102 0.0
H361 H 0.20453 0.7864 0.71199 0.0
H362 H 0.24004 0.74072 0.81845 0.0
H363 H 0.2743 0.72546 0.82256 0.0
H364 H 0.24501 0.70396 0.81098 0.0
H365 H 0.27205 0.68824 0.76022 0.0
H366 H 0.30132 0.70986 0.77149 0.0
H367 H 0.28524 0.71425 0.73275 0.0
H368 H 0.24559 0.81601 0.72672 0.0
H369 H 0.28868 0.8378 0.74741 0.0
H370 H 0.31014 0.76022 0.79549 0.0
C371 C 0.21451 0.71153 0.7477 0.0
C372 C 0.19095 0.71739 0.72838 0.0
C373 C 0.18737 0.7447 0.71593 0.0
C374 C 0.20717 0.76569 0.72195 0.0
C375 C 0.23035 0.75909 0.74064 0.0
C376 C 0.23401 0.73279 0.75362 0.0
C377 C 0.26087 0.73126 0.77283 0.0
C378 C 0.25468 0.72499 0.80831 0.0
C379 C 0.28106 0.70962 0.75845 0.0
C380 C 0.27182 0.76075 0.76837 0.0
C381 C 0.25391 0.77639 0.74961 0.0
C382 C 0.2597 0.80405 0.74161 0.0
C383 C 0.28431 0.8162 0.7534 0.0
C384 C 0.3028 0.80075 0.77314 0.0
C385 C 0.29642 0.77261 0.78056 0.0
H386 H 0.22947 0.30509 0.72202 0.0
H387 H 0.20145 0.26904 0.81216 0.0
H388 H 0.23339 0.22924 0.80411 0.0
H389 H 0.23739 0.23909 0.67895 0.0
H390 H 0.2682 0.25071 0.65776 0.0
H391 H 0.24202 0.27564 0.66979 0.0
H392 H 0.27985 0.30416 0.70001 0.0
H393 H 0.3061 0.27926 0.68824 0.0
H394 H 0.30089 0.28717 0.73007 0.0
H395 H 0.27011 0.19469 0.78783 0.0
H396 H 0.30806 0.16694 0.7635 0.0
H397 H 0.31198 0.22525 0.68377 0.0
C398 C 0.22979 0.28868 0.7399 0.0
C399 C 0.21291 0.29021 0.76772 0.0
C400 C 0.21414 0.26835 0.79063 0.0
C401 C 0.23222 0.24564 0.78629 0.0
C402 C 0.24887 0.245 0.75886 0.0
C403 C 0.2477 0.26584 0.73595 0.0
C404 C 0.26835 0.26048 0.70904 0.0
C405 C 0.25307 0.25622 0.67699 0.0
C406 C 0.29008 0.28418 0.70672 0.0
C407 C 0.28155 0.23357 0.72064 0.0
C408 C 0.26996 0.22498 0.74938 0.0
C409 C 0.27921 0.20109 0.7652 0.0
C410 C 0.30085 0.18551 0.75123 0.0
C411 C 0.31298 0.19386 0.7217 0.0
C412 C 0.30307 0.21821 0.70627 0.0
H413 H 0.72308 0.23729 0.78011 0.0
H414 H 0.72208 0.18546 0.69469 0.0
H415 H 0.75608 0.21748 0.66887 0.0
H416 H 0.72766 0.30343 0.74007 0.0
H417 H 0.75059 0.31851 0.76969 0.0
H418 H 0.72617 0.29154 0.78106 0.0
H419 H 0.76694 0.26195 0.80382 0.0
H420 H 0.79152 0.28878 0.79241 0.0
H421 H 0.79623 0.2535 0.77833 0.0
H422 H 0.79022 0.2556 0.65253 0.0
H423 H 0.82135 0.29664 0.64684 0.0
H424 H 0.79998 0.32263 0.74354 0.0
C425 C 0.72989 0.23263 0.75592 0.0
C426 C 0.71986 0.20886 0.73939 0.0
C427 C 0.72945 0.20355 0.70782 0.0
C428 C 0.74877 0.2216 0.69298 0.0
C429 C 0.75831 0.24477 0.71009 0.0
C430 C 0.74916 0.25029 0.74087 0.0
C431 C 0.7626 0.27646 0.75422 0.0
C432 C 0.74043 0.2988 0.76168 0.0
C433 C 0.78038 0.26976 0.78395 0.0
C434 C 0.78075 0.28494 0.7261 0.0
C435 C 0.77802 0.26643 0.70086 0.0
C436 C 0.79255 0.27019 0.67218 0.0
C437 C 0.81019 0.29356 0.66919 0.0
C438 C 0.81317 0.31284 0.69477 0.0
C439 C 0.7983 0.30825 0.72359 0.0
H440 H 0.14228 0.39506 0.93731 0.0
H441 H 0.16875 0.31128 0.91196 0.0
H442 H 0.1729 0.29966 0.9699 0.0
H443 H 0.18681 0.40319 0.00808 0.0
H444 H 0.16024 0.42266 0.02905 0.0
H445 H 0.16253 0.42457 0.98598 0.0
H446 H 0.11058 0.40912 0.98143 0.0
H447 H 0.10812 0.40725 0.02435 0.0
H448 H 0.09943 0.3771 0.00042 0.0
H449 H 0.16978 0.29692 0.03184 0.0
H450 H 0.15825 0.3029 0.0896 0.0
H451 H 0.1341 0.38864 0.07107 0.0
C452 C 0.1492 0.37426 0.94375 0.0
C453 C 0.155 0.35398 0.92019 0.0
C454 C 0.1642 0.32713 0.92973 0.0
C455 C 0.16668 0.32042 0.96252 0.0
C456 C 0.1603 0.34097 0.98516 0.0
C457 C 0.15192 0.3674 0.97594 0.0
C458 C 0.14452 0.38551 0.00422 0.0
C459 C 0.16474 0.41045 0.00699 0.0
C460 C 0.11385 0.39529 0.00249 0.0
C461 C 0.14892 0.36491 0.03101 0.0
C462 C 0.1585 0.33943 0.01992 0.0
C463 C 0.1626 0.3169 0.04072 0.0
C464 C 0.15608 0.32047 0.07342 0.0
C465 C 0.14519 0.34618 0.08458 0.0
C466 C 0.14232 0.36871 0.06316 0.0
H467 H 0.7125 0.15277 0.91629 0.0
H468 H 0.66339 0.22822 0.91666 0.0
H469 H 0.67417 0.23527 0.97391 0.0
H470 H 0.68483 0.12527 0.97487 0.0
H471 H 0.71405 0.10833 -0.00595 0.0
H472 H 0.71589 0.11644 0.95238 0.0
H473 H 0.76123 0.14498 0.96133 0.0
H474 H 0.75981 0.13654 0.00347 0.0
H475 H 0.76193 0.1725 0.9908 0.0
H476 H 0.67485 0.22535 0.03137 0.0
H477 H 0.66343 0.19908 0.0807 0.0
H478 H 0.70881 0.12776 0.04466 0.0
C479 C 0.70594 0.17179 0.92816 0.0
C480 C 0.68792 0.19038 0.91236 0.0
C481 C 0.67805 0.21434 0.92837 0.0
C482 C 0.68409 0.21839 0.96094 0.0
C483 C 0.69985 0.19817 0.97699 0.0
C484 C 0.71116 0.17547 0.96084 0.0
C485 C 0.72072 0.15304 0.98397 0.0
C486 C 0.70806 0.12414 0.97584 0.0
C487 C 0.75283 0.1517 0.98495 0.0
C488 C 0.70927 0.16468 0.01501 0.0
C489 C 0.69904 0.19153 0.01098 0.0
C490 C 0.68365 0.20479 0.03508 0.0
C491 C 0.67721 0.18977 0.06305 0.0
C492 C 0.68556 0.16165 0.06612 0.0
C493 C 0.70286 0.14951 0.04271 0.0
H494 H 0.7985 0.63398 0.94578 0.0
H495 H 0.84766 0.70573 0.91735 0.0
H496 H 0.84293 0.72542 0.97183 0.0
H497 H 0.75364 0.67439 0.01168 0.0
H498 H 0.75388 0.64326 0.03603 0.0
H499 H 0.75193 0.64049 0.99295 0.0
H500 H 0.79539 0.60832 -0.00671 0.0
H501 H 0.79763 0.61113 0.0359 0.0
H502 H 0.82737 0.62062 0.01149 0.0
H503 H 0.84863 0.72718 0.03006 0.0
H504 H 0.8601 0.71307 0.08547 0.0
H505 H 0.80327 0.64311 0.07801 0.0
C506 C 0.80672 0.65463 0.9508 0.0
C507 C 0.82315 0.6686 0.92783 0.0
C508 C 0.83454 0.69512 0.93476 0.0
C509 C 0.83189 0.70641 0.96562 0.0
C510 C 0.8171 0.6912 0.98874 0.0
C511 C 0.80378 0.66627 0.98132 0.0
C512 C 0.7934 0.65155 0.0112 0.0
C513 C 0.76131 0.6525 0.01307 0.0
C514 C 0.80414 0.62117 0.01306 0.0
C515 C 0.80635 0.66995 0.03667 0.0
C516 C 0.81912 0.6933 0.02334 0.0
C517 C 0.83754 0.70992 0.04107 0.0
C518 C 0.84401 0.7018 0.07249 0.0
C519 C 0.83171 0.67764 0.08585 0.0
C520 C 0.81171 0.66242 0.06842 0.0
H521 H 0.38425 0.86137 0.0601 0.0
H522 H 0.30224 0.82267 0.06674 0.0
H523 H 0.30056 0.81942 0.00731 0.0
H524 H 0.36988 0.90415 -0.00429 0.0
H525 H 0.40412 0.90117 0.97787 0.0
H526 H 0.39994 0.89701 0.02044 0.0
H527 H 0.42338 0.84823 0.01755 0.0
H528 H 0.42784 0.85232 0.97491 0.0
H529 H 0.40963 0.82221 0.99055 0.0
H530 H 0.30714 0.82452 0.94593 0.0
H531 H 0.32104 0.83753 0.89043 0.0
H532 H 0.39799 0.8735 0.92717 0.0
C533 C 0.36602 0.8518 0.04925 0.0
C534 C 0.34334 0.84232 0.06804 0.0
C535 C 0.31993 0.82996 0.05276 0.0
C536 C 0.31881 0.82805 0.01906 0.0
C537 C 0.34139 0.83837 0.00124 0.0
C538 C 0.3646 0.8498 0.01604 0.0
C539 C 0.38545 0.86112 0.99215 0.0
C540 C 0.39009 0.89273 -0.00317 0.0
C541 C 0.41321 0.845 -0.0061 0.0
C542 C 0.37012 0.85504 0.9614 0.0
C543 C 0.34491 0.84159 0.96679 0.0
C544 C 0.32696 0.83485 0.94153 0.0
C545 C 0.33498 0.84231 0.91014 0.0
C546 C 0.36049 0.85669 0.90455 0.0
C547 C 0.37826 0.86269 0.9306 0.0
H548 H 0.09718 0.65428 0.59327 0.0
H549 H 0.18669 0.65856 0.60817 0.0
H550 H 0.19366 0.66796 0.55024 0.0
H551 H 0.09784 0.61618 0.52841 0.0
H552 H 0.06926 0.63264 0.50757 0.0
H553 H 0.07098 0.63444 0.55038 0.0
H554 H 0.0693 0.68855 0.548 0.0
H555 H 0.06731 0.68693 0.50487 0.0
H556 H 0.0944 0.7073 0.52383 0.0
H557 H 0.19106 0.66517 0.48959 0.0
H558 H 0.17887 0.65152 0.43384 0.0
H559 H 0.09117 0.65019 0.45994 0.0
C560 C 0.11814 0.65836 0.58446 0.0
C561 C 0.14138 0.65576 0.60484 0.0
C562 C 0.1686 0.66084 0.59277 0.0
C563 C 0.17271 0.66621 0.55995 0.0
C564 C 0.14931 0.66715 0.53996 0.0
C565 C 0.12245 0.664 0.55205 0.0
C566 C 0.10101 0.66195 0.52566 0.0
C567 C 0.08382 0.63469 0.52816 0.0
C568 C 0.08188 0.68773 0.52559 0.0
C569 C 0.12009 0.66192 0.49681 0.0
C570 C 0.14783 0.66578 0.5052 0.0
C571 C 0.16935 0.66298 0.48265 0.0
C572 C 0.16233 0.65522 0.45109 0.0
C573 C 0.13414 0.64987 0.44293 0.0
C574 C 0.11288 0.65437 0.46572 0.0
H575 H 0.42181 0.16573 0.53605 0.0
H576 H 0.33516 0.17819 0.56304 0.0
H577 H 0.32248 0.18265 0.50564 0.0
H578 H 0.42136 0.2101 0.46006 0.0
H579 H 0.44409 0.18538 0.44051 0.0
H580 H 0.4471 0.19131 0.48306 0.0
H581 H 0.44062 0.13823 0.49319 0.0
H582 H 0.4373 0.13217 0.45099 0.0
H583 H 0.40991 0.12085 0.47783 0.0
H584 H 0.31827 0.1757 0.44535 0.0
H585 H 0.32298 0.15742 0.38989 0.0
H586 H 0.41217 0.1479 0.40414 0.0
C587 C 0.40031 0.17045 0.52995 0.0
C588 C 0.37946 0.17164 0.55384 0.0
C589 C 0.35151 0.17755 0.54503 0.0
C590 C 0.34416 0.1801 0.51249 0.0
C591 C 0.36512 0.17716 0.48932 0.0
C592 C 0.39275 0.17289 0.49785 0.0
C593 C 0.41079 0.16615 0.46913 0.0
C594 C 0.43209 0.18964 0.46282 0.0
C595 C 0.42547 0.13767 0.47304 0.0
C596 C 0.38875 0.16526 0.44332 0.0
C597 C 0.36264 0.17255 0.45498 0.0
C598 C 0.33872 0.1706 0.43585 0.0
C599 C 0.34154 0.16022 0.40444 0.0
C600 C 0.36794 0.15132 0.39304 0.0
C601 C 0.39179 0.15474 0.41238 0.0
H602 H 0.84792 0.3425 0.4122 0.0
H603 H 0.84082 0.4288 0.38186 0.0
H604 H 0.83508 0.4435 0.43806 0.0
H605 H 0.80036 0.34801 0.48623 0.0
H606 H 0.82297 0.32532 0.50891 0.0
H607 H 0.81926 0.32048 0.46624 0.0
H608 H 0.87302 0.32439 0.45969 0.0
H609 H 0.87691 0.32963 0.50211 0.0
H610 H 0.89085 0.35506 0.47442 0.0
H611 H 0.84004 0.45017 0.49539 0.0
H612 H 0.8535 0.44851 0.55222 0.0
H613 H 0.85762 0.35804 0.54789 0.0
C614 C 0.84383 0.36426 0.41752 0.0
C615 C 0.8443 0.38458 0.393 0.0
C616 C 0.84018 0.41304 0.40052 0.0
C617 C 0.83679 0.42153 0.43229 0.0
C618 C 0.83768 0.40126 0.45621 0.0
C619 C 0.84082 0.37315 0.44936 0.0
C620 C 0.84517 0.35633 0.47982 0.0
C621 C 0.82046 0.33635 0.48565 0.0
C622 C 0.87315 0.34044 0.47894 0.0
C623 C 0.84565 0.3796 0.50448 0.0
C624 C 0.84073 0.40523 0.49025 0.0
C625 C 0.84318 0.43021 0.50704 0.0
C626 C 0.8511 0.42907 0.53919 0.0
C627 C 0.85642 0.40315 0.55427 0.0
C628 C 0.85308 0.37804 0.53694 0.0
H629 H 0.66104 0.92025 0.54661 0.0
H630 H 0.67891 0.83578 0.57784 0.0
H631 H 0.68008 0.82027 0.52117 0.0
H632 H 0.61353 0.9037 0.49164 0.0
H633 H 0.62276 0.9301 0.46262 0.0
H634 H 0.63025 0.93568 0.50425 0.0
H635 H 0.68272 0.94365 0.49107 0.0
H636 H 0.67534 0.93848 0.44911 0.0
H637 H 0.70167 0.91763 0.46862 0.0
H638 H 0.67042 0.81287 0.46159 0.0
H639 H 0.65177 0.81479 0.40604 0.0
H640 H 0.6397 0.90411 0.41604 0.0
C641 C 0.66614 0.89866 0.5415 0.0
C642 C 0.66986 0.8792 0.56644 0.0
C643 C 0.67627 0.85108 0.55894 0.0
C644 C 0.67696 0.8421 0.52685 0.0
C645 C 0.67172 0.86167 0.50276 0.0
C646 C 0.66692 0.88951 0.50985 0.0
C647 C 0.65845 0.90589 0.48055 0.0
C648 C 0.62954 0.91961 0.48505 0.0
C649 C 0.68089 0.92769 0.47182 0.0
C650 C 0.65748 0.88267 0.45618 0.0
C651 C 0.66583 0.85739 0.46897 0.0
C652 C 0.66438 0.83267 0.45119 0.0
C653 C 0.65372 0.8339 0.41977 0.0
C654 C 0.64415 0.85956 0.40704 0.0
C655 C 0.64676 0.88417 0.42527 0.0
H656 H 0.12868 0.55326 0.27276 0.0
H657 H 0.1562 0.52228 0.36494 0.0
H658 H 0.16599 0.47605 0.34077 0.0
H659 H 0.09016 0.49537 0.25455 0.0
H660 H 0.09687 0.49545 0.21201 0.0
H661 H 0.09858 0.52758 0.2342 0.0
H662 H 0.14927 0.53599 0.21416 0.0
H663 H 0.14764 0.50392 0.19156 0.0
H664 H 0.17537 0.50937 0.22015 0.0
H665 H 0.16755 0.4319 0.308 0.0
H666 H 0.15724 0.39289 0.27078 0.0
H667 H 0.12458 0.45205 0.20158 0.0
C668 C 0.13795 0.53703 0.28739 0.0
C669 C 0.14256 0.54133 0.32036 0.0
C670 C 0.15321 0.51936 0.33941 0.0
C671 C 0.15883 0.49312 0.32588 0.0
C672 C 0.15323 0.48916 0.29339 0.0
C673 C 0.14291 0.51052 0.27441 0.0
C674 C 0.13451 0.49984 0.24164 0.0
C675 C 0.10318 0.50485 0.23526 0.0
C676 C 0.1528 0.51307 0.21532 0.0
C677 C 0.14083 0.46904 0.2455 0.0
C678 C 0.15235 0.46337 0.27515 0.0
C679 C 0.15882 0.43614 0.28458 0.0
C680 C 0.15291 0.41413 0.26333 0.0
C681 C 0.14004 0.41949 0.23344 0.0
C682 C 0.1344 0.44735 0.22434 0.0
H683 H 0.57633 0.12249 0.21246 0.0
H684 H 0.54534 0.1403 0.11702 0.0
H685 H 0.49709 0.14356 0.13852 0.0
H686 H 0.52204 0.07692 0.23275 0.0
H687 H 0.52044 0.08679 0.27441 0.0
H688 H 0.55277 0.09028 0.25261 0.0
H689 H 0.55528 0.14279 0.26754 0.0
H690 H 0.52301 0.13943 0.28965 0.0
H691 H 0.52614 0.16525 0.25836 0.0
H692 H 0.45201 0.14272 0.17032 0.0
H693 H 0.4134 0.13406 0.20877 0.0
H694 H 0.47394 0.11248 0.28204 0.0
C695 C 0.55945 0.12786 0.19629 0.0
C696 C 0.56446 0.13171 0.16324 0.0
C697 C 0.54183 0.13762 0.1425 0.0
C698 C 0.51444 0.13956 0.15451 0.0
C699 C 0.51009 0.13509 0.18719 0.0
C700 C 0.53197 0.12914 0.20773 0.0
C701 C 0.52149 0.1222 0.24106 0.0
C702 C 0.52966 0.09227 0.25076 0.0
C703 C 0.53211 0.1437 0.2656 0.0
C704 C 0.49026 0.12477 0.236 0.0
C705 C 0.4841 0.1328 0.20497 0.0
C706 C 0.4566 0.13645 0.19469 0.0
C707 C 0.43483 0.13151 0.21665 0.0
C708 C 0.44074 0.12242 0.24822 0.0
C709 C 0.46883 0.1192 0.25795 0.0
H710 H 0.88212 0.53489 0.16022 0.0
H711 H 0.79803 0.55957 0.18699 0.0
H712 H 0.78745 0.51083 0.20276 0.0
H713 H 0.86561 0.4614 0.13369 0.0
H714 H 0.89746 0.44846 0.15132 0.0
H715 H 0.89625 0.48342 0.13522 0.0
H716 H 0.9129 0.50321 0.18984 0.0
H717 H 0.91423 0.46848 0.20597 0.0
H718 H 0.89347 0.49479 0.22568 0.0
H719 H 0.78821 0.46115 0.2225 0.0
H720 H 0.80174 0.41718 0.24952 0.0
H721 H 0.88599 0.42612 0.21218 0.0
C722 C 0.86116 0.52985 0.16832 0.0
C723 C 0.84077 0.55088 0.17199 0.0
C724 C 0.81389 0.54368 0.18378 0.0
C725 C 0.80764 0.51602 0.19256 0.0
C726 C 0.82851 0.49587 0.18947 0.0
C727 C 0.85479 0.50253 0.17769 0.0
C728 C 0.87489 0.47838 0.18136 0.0
C729 C 0.88408 0.46726 0.14843 0.0
C730 C 0.90034 0.48672 0.20194 0.0
C731 C 0.85627 0.45757 0.19848 0.0
C732 C 0.82933 0.46759 0.20202 0.0
C733 C 0.80909 0.45288 0.21938 0.0
C734 C 0.81691 0.42787 0.23454 0.0
C735 C 0.84487 0.41831 0.23281 0.0
C736 C 0.8644 0.43286 0.2136 0.0
H737 H 0.507 0.86268 0.31551 0.0
H738 H 0.54959 0.79414 0.26822 0.0
H739 H 0.50448 0.77873 0.24487 0.0
H740 H 0.43784 0.82684 0.32892 0.0
H741 H 0.41927 0.85871 0.32032 0.0
H742 H 0.45328 0.86011 0.33893 0.0
H743 H 0.47104 0.89275 0.29354 0.0
H744 H 0.43726 0.89148 0.27495 0.0
H745 H 0.4679 0.88159 0.25241 0.0
H746 H 0.45595 0.7757 0.21985 0.0
H747 H 0.41093 0.78747 0.19346 0.0
H748 H 0.40193 0.85894 0.25605 0.0
C749 C 0.50684 0.84391 0.30102 0.0
C750 C 0.53185 0.82958 0.29378 0.0
C751 C 0.53066 0.80536 0.2743 0.0
C752 C 0.50509 0.7964 0.26105 0.0
C753 C 0.48093 0.81172 0.26779 0.0
C754 C 0.48171 0.83492 0.28753 0.0
C755 C 0.45414 0.85029 0.28768 0.0
C756 C 0.44032 0.84889 0.32094 0.0
C757 C 0.45783 0.8808 0.27645 0.0
C758 C 0.43808 0.8331 0.26356 0.0
C759 C 0.45341 0.81038 0.253 0.0
C760 C 0.44356 0.79304 0.2285 0.0
C761 C 0.41796 0.79974 0.21374 0.0
C762 C 0.40305 0.82383 0.22321 0.0
C763 C 0.41282 0.84008 0.24898 0.0
H764 H 0.81657 0.57956 0.76053 0.0
H765 H 0.80564 0.5352 0.85018 0.0
H766 H 0.79664 0.49156 0.82055 0.0
H767 H 0.76772 0.53231 0.70871 0.0
H768 H 0.79192 0.53517 0.67568 0.0
H769 H 0.78712 0.56424 0.70265 0.0
H770 H 0.8405 0.56527 0.71335 0.0
H771 H 0.84543 0.53626 0.68689 0.0
H772 H 0.85754 0.5341 0.72773 0.0
H773 H 0.80135 0.45158 0.78327 0.0
H774 H 0.82088 0.41964 0.74236 0.0
H775 H 0.8305 0.48938 0.67699 0.0
C776 C 0.81069 0.56097 0.77375 0.0
C777 C 0.81147 0.56072 0.80749 0.0
C778 C 0.80488 0.5358 0.82422 0.0
C779 C 0.79959 0.51094 0.80757 0.0
C780 C 0.80089 0.51134 0.77418 0.0
C781 C 0.80594 0.53586 0.75739 0.0
C782 C 0.81196 0.52998 0.72242 0.0
C783 C 0.78826 0.54108 0.70111 0.0
C784 C 0.84055 0.54209 0.71205 0.0
C785 C 0.81212 0.49836 0.72284 0.0
C786 C 0.8045 0.48791 0.75252 0.0
C787 C 0.80656 0.45945 0.75967 0.0
C788 C 0.81769 0.44142 0.73635 0.0
C789 C 0.82718 0.45218 0.7067 0.0
C790 C 0.82319 0.48069 0.69949 0.0
H791 H 0.54964 0.88267 0.66809 0.0
H792 H 0.60108 0.8312 0.72999 0.0
H793 H 0.5584 0.81417 0.75758 0.0
H794 H 0.50544 0.90601 0.72565 0.0
H795 H 0.47439 0.90622 0.70116 0.0
H796 H 0.50817 0.90987 0.68275 0.0
H797 H 0.49768 0.86728 0.64625 0.0
H798 H 0.46375 0.86343 0.66474 0.0
H799 H 0.4877 0.8344 0.66409 0.0
H800 H 0.51129 0.80993 0.78455 0.0
H801 H 0.46441 0.81887 0.80794 0.0
H802 H 0.44392 0.8717 0.72725 0.0
C803 C 0.55196 0.86726 0.68691 0.0
C804 C 0.5787 0.85827 0.69691 0.0
C805 C 0.5808 0.83826 0.7218 0.0
C806 C 0.55665 0.82842 0.73753 0.0
C807 C 0.53061 0.83842 0.72767 0.0
C808 C 0.52818 0.8572 0.70264 0.0
C809 C 0.49838 0.86719 0.69873 0.0
C810 C 0.49651 0.8992 0.70231 0.0
C811 C 0.48616 0.85748 0.66654 0.0
C812 C 0.48455 0.85225 0.72651 0.0
C813 C 0.50332 0.83535 0.74267 0.0
C814 C 0.49618 0.8223 0.7715 0.0
C815 C 0.46954 0.82735 0.78457 0.0
C816 C 0.45049 0.84507 0.76863 0.0
C817 C 0.45781 0.85704 0.73896 0.0
H818 H 0.18457 0.42126 0.73928 0.0
H819 H 0.22358 0.44607 0.82812 0.0
H820 H 0.23609 0.49162 0.80456 0.0
H821 H 0.22896 0.47058 0.68156 0.0
H822 H 0.19763 0.47713 0.65878 0.0
H823 H 0.20346 0.44315 0.67625 0.0
H824 H 0.15541 0.44642 0.70462 0.0
H825 H 0.14967 0.48042 0.68818 0.0
H826 H 0.14849 0.47547 0.73102 0.0
H827 H 0.22976 0.53767 0.77996 0.0
H828 H 0.20678 0.57883 0.75615 0.0
H829 H 0.16963 0.52575 0.68347 0.0
C830 C 0.19769 0.43558 0.75265 0.0
C831 C 0.20391 0.43011 0.785 0.0
C832 C 0.21948 0.44974 0.80292 0.0
C833 C 0.22654 0.47573 0.7897 0.0
C834 C 0.2177 0.48176 0.7586 0.0
C835 C 0.20406 0.46196 0.73994 0.0
C836 C 0.19096 0.4753 0.71064 0.0
C837 C 0.20617 0.46599 0.67999 0.0
C838 C 0.15929 0.46905 0.70857 0.0
C839 C 0.19661 0.50584 0.71761 0.0
C840 C 0.21309 0.50912 0.74456 0.0
C841 C 0.21765 0.53539 0.75822 0.0
C842 C 0.20437 0.55869 0.74465 0.0
C843 C 0.18634 0.55546 0.71804 0.0
C844 C 0.18346 0.52888 0.70369 0.0
H845 H 0.49328 0.16572 0.66989 0.0
H846 H 0.42934 0.18888 0.73879 0.0
H847 H 0.4662 0.20124 0.77794 0.0
H848 H 0.53686 0.13261 0.72149 0.0
H849 H 0.56927 0.14436 0.70379 0.0
H850 H 0.53827 0.14197 0.67964 0.0
H851 H 0.54345 0.1941 0.66374 0.0
H852 H 0.57466 0.19663 0.68781 0.0
H853 H 0.546 0.22033 0.69461 0.0
H854 H 0.50913 0.20168 0.8124 0.0
H855 H 0.55506 0.19393 0.83817 0.0
H856 H 0.59142 0.17405 0.7458 0.0
C857 C 0.48705 0.17412 0.69292 0.0
C858 C 0.4585 0.17635 0.70138 0.0
C859 C 0.45111 0.18725 0.73176 0.0
C860 C 0.4719 0.19431 0.75412 0.0
C861 C 0.4999 0.19097 0.74536 0.0
C862 C 0.50749 0.18166 0.71522 0.0
C863 C 0.53885 0.17779 0.71252 0.0
C864 C 0.54622 0.14739 0.70387 0.0
C865 C 0.55148 0.19845 0.68823 0.0
C866 C 0.54765 0.18492 0.74637 0.0
C867 C 0.52489 0.19265 0.76492 0.0
C868 C 0.52722 0.19659 0.79792 0.0
C869 C 0.55331 0.19209 0.81236 0.0
C870 C 0.57674 0.18411 0.79374 0.0
C871 C 0.57401 0.18119 0.76028 0.0
H872 H 0.67827 0.09405 0.75096 0.0
H873 H 0.6845 0.06104 0.84738 0.0
H874 H 0.69565 0.01436 0.82551 0.0
H875 H 0.64051 0.03978 0.72203 0.0
H876 H 0.65556 0.03933 0.68237 0.0
H877 H 0.65545 0.07115 0.70513 0.0
H878 H 0.70931 0.07503 0.6989 0.0
H879 H 0.70957 0.04308 0.67601 0.0
H880 H 0.73116 0.04632 0.71121 0.0
H881 H 0.69951 0.97026 0.79353 0.0
H882 H 0.69051 0.93213 0.75479 0.0
H883 H 0.67828 0.99342 0.67958 0.0
C884 C 0.68312 0.07719 0.76736 0.0
C885 C 0.6811 0.08109 0.80077 0.0
C886 C 0.6863 0.05839 0.82167 0.0
C887 C 0.69283 0.03189 0.80946 0.0
C888 C 0.6938 0.02841 0.77629 0.0
C889 C 0.68895 0.05046 0.75552 0.0
C890 C 0.68646 0.04041 0.72124 0.0
C891 C 0.6578 0.04811 0.70688 0.0
C892 C 0.71057 0.05189 0.70063 0.0
C893 C 0.68925 0.0092 0.72617 0.0
C894 C 0.69448 0.00272 0.75789 0.0
C895 C 0.69588 0.97509 0.76853 0.0
C896 C 0.69083 0.95355 0.74639 0.0
C897 C 0.68377 0.95992 0.7143 0.0
C898 C 0.68385 0.98802 0.70398 0.0
H899 H 0.94538 0.60066 0.81798 0.0
H900 H 0.925 0.68829 0.80633 0.0
H901 H 0.97279 0.69726 0.78519 0.0
H902 H 0.01841 0.60839 0.83978 0.0
H903 H 0.02924 0.57849 0.81666 0.0
H904 H 0.99452 0.5797 0.83351 0.0
H905 H 0.97314 0.57181 0.77713 0.0
H906 H 0.00775 0.57031 0.76019 0.0
H907 H 0.98268 0.59496 0.74477 0.0
H908 H 0.02351 0.69611 0.76529 0.0
H909 H 0.06938 0.68389 0.74106 0.0
H910 H 0.05398 0.59649 0.76209 0.0
C911 C 0.9511 0.62182 0.81136 0.0
C912 C 0.93174 0.6439 0.81419 0.0
C913 C 0.93966 0.67114 0.80446 0.0
C914 C 0.96677 0.67642 0.79265 0.0
C915 C 0.98545 0.65413 0.79028 0.0
C916 C 0.97771 0.62728 0.79888 0.0
C917 C 0.00055 0.60646 0.7914 0.0
C918 C 0.01131 0.59244 0.82218 0.0
C919 C 0.99042 0.58461 0.76691 0.0
C920 C 0.02239 0.62568 0.77707 0.0
C921 C 0.01365 0.6532 0.77723 0.0
C922 C 0.03051 0.67462 0.76504 0.0
C923 C 0.05656 0.66756 0.75155 0.0
C924 C 0.06508 0.6393 0.74978 0.0
C925 C 0.04793 0.61828 0.76318 0.0
H926 H 0.36707 0.08289 0.72629 0.0
H927 H 0.35291 0.05017 0.63097 0.0
H928 H 0.33908 0.00452 0.65417 0.0
H929 H 0.40213 0.02602 0.75259 0.0
H930 H 0.38966 0.02664 0.7934 0.0
H931 H 0.39082 0.05839 0.77047 0.0
H932 H 0.33796 0.06627 0.78108 0.0
H933 H 0.33666 0.03446 0.80424 0.0
H934 H 0.31319 0.03923 0.77091 0.0
H935 H 0.33307 0.96122 0.68683 0.0
H936 H 0.34079 0.92257 0.72498 0.0
H937 H 0.36331 0.98245 0.79864 0.0
C938 C 0.35985 0.06638 0.71055 0.0
C939 C 0.36018 0.06998 0.67704 0.0
C940 C 0.35214 0.04773 0.65678 0.0
C941 C 0.34416 0.02187 0.66977 0.0
C942 C 0.34481 0.01858 0.703 0.0
C943 C 0.35266 0.04021 0.72313 0.0
C944 C 0.35654 0.03003 0.75722 0.0
C945 C 0.38656 0.03559 0.76908 0.0
C946 C 0.33478 0.04329 0.77969 0.0
C947 C 0.35099 0.99911 0.75284 0.0
C948 C 0.34324 0.99309 0.72168 0.0
C949 C 0.33873 0.96572 0.71141 0.0
C950 C 0.34313 0.94389 0.73327 0.0
C951 C 0.35266 0.94955 0.76473 0.0
C952 C 0.35587 0.97755 0.77478 0.0
H953 H 0.06951 0.40621 0.76449 0.0
H954 H 0.07805 0.31625 0.7718 0.0
H955 H 0.03371 0.31034 0.74131 0.0
H956 H 0.9965 0.40978 0.77467 0.0
H957 H 0.99207 0.43787 0.74634 0.0
H958 H 0.02454 0.43434 0.76772 0.0
H959 H 0.05172 0.43282 0.71385 0.0
H960 H 0.01933 0.43649 0.69228 0.0
H961 H 0.0421 0.40741 0.68391 0.0
H962 H 0.98561 0.31552 0.7129 0.0
H963 H 0.94188 0.33098 0.68605 0.0
H964 H 0.96836 0.41727 0.6964 0.0
C965 C 0.06218 0.38519 0.75964 0.0
C966 C 0.07703 0.36167 0.7707 0.0
C967 C 0.06693 0.33455 0.76346 0.0
C968 C 0.04176 0.33104 0.74629 0.0
C969 C 0.02737 0.35487 0.73619 0.0
C970 C 0.03759 0.38138 0.74232 0.0
C971 C 0.01871 0.40379 0.72907 0.0
C972 C 0.00728 0.42253 0.75606 0.0
C973 C 0.03387 0.42114 0.70324 0.0
C974 C 0.99594 0.38591 0.71472 0.0
C975 C 0.00096 0.35773 0.71913 0.0
C976 C 0.98174 0.33753 0.70899 0.0
C977 C 0.95695 0.34647 0.69387 0.0
C978 C 0.95189 0.3753 0.68877 0.0
C979 C 0.97178 0.39505 0.69938 0.0
H980 H 0.31996 0.0527 0.23855 0.0
H981 H 0.32236 0.02151 0.33589 0.0
H982 H 0.30103 0.97709 0.31806 0.0
H983 H 0.25583 0.01055 0.20939 0.0
H984 H 0.27262 0.00463 0.17127 0.0
H985 H 0.27871 0.03681 0.19269 0.0
H986 H 0.33218 0.02797 0.19047 0.0
H987 H 0.32624 0.99607 0.16909 0.0
H988 H 0.34588 0.99559 0.20596 0.0
H989 H 0.28934 0.93348 0.28894 0.0
H990 H 0.29451 0.89393 0.25143 0.0
H991 H 0.30256 0.95208 0.17237 0.0
C992 C 0.3146 0.03699 0.25624 0.0
C993 C 0.32212 0.0406 0.28862 0.0
C994 C 0.31626 0.01918 0.31102 0.0
C995 C 0.30398 0.99398 0.30112 0.0
C996 C 0.29791 0.99043 0.26866 0.0
C997 C 0.30309 0.01142 0.24649 0.0
C998 C 0.30052 0.00057 0.21252 0.0
C999 C 0.27542 0.01393 0.19547 0.0
C1000 C 0.32782 0.00531 0.19344 0.0
C1001 C 0.29525 0.96985 0.219 0.0
C1002 C 0.29248 0.96461 0.25147 0.0
C1003 C 0.29077 0.93738 0.26343 0.0
C1004 C 0.29357 0.91498 0.24193 0.0
C1005 C 0.29878 0.92006 0.20906 0.0
C1006 C 0.29812 0.94774 0.19736 0.0
H1007 H 0.95812 0.31451 0.31833 0.0
H1008 H 0.9036 0.29099 0.24007 0.0
H1009 H 0.94415 0.2728 0.2102 0.0
H1010 H 0.00526 0.34418 0.2782 0.0
H1011 H 0.03628 0.33311 0.2992 0.0
H1012 H 0.00337 0.33333 0.3196 0.0
H1013 H 0.00858 0.28092 0.33356 0.0
H1014 H 0.04207 0.28056 0.31351 0.0
H1015 H 0.01526 0.25592 0.30217 0.0
H1016 H 0.98902 0.27517 0.18212 0.0
H1017 H 0.03403 0.29267 0.16095 0.0
H1018 H 0.06154 0.31151 0.25719 0.0
C1019 C 0.95465 0.304 0.29569 0.0
C1020 C 0.92792 0.30418 0.28139 0.0
C1021 C 0.9239 0.29076 0.25158 0.0
C1022 C 0.9469 0.28039 0.23443 0.0
C1023 C 0.97355 0.28291 0.24787 0.0
C1024 C 0.97744 0.2935 0.27844 0.0
C1025 C 0.00816 0.29875 0.28525 0.0
C1026 C 0.01354 0.32913 0.29614 0.0
C1027 C 0.01917 0.27778 0.31009 0.0
C1028 C 0.02052 0.293 0.25248 0.0
C1029 C 1.00037 0.28297 0.23151 0.0
C1030 C 0.00531 0.28163 0.19855 0.0
C1031 C 0.03085 0.2917 0.18666 0.0
C1032 C 0.05125 0.30257 0.20771 0.0
C1033 C 0.04657 0.30204 0.241 0.0
H1034 H 0.64233 0.95632 0.28868 0.0
H1035 H 0.65119 0.89063 0.21789 0.0
H1036 H 0.66919 0.92533 0.17874 0.0
H1037 H 0.61636 0.00613 0.23979 0.0
H1038 H 0.63442 0.03533 0.25767 0.0
H1039 H 0.62717 0.00472 0.28116 0.0
H1040 H 0.67994 2e-05 0.29449 0.0
H1041 H 0.68738 0.03074 0.27088 0.0
H1042 H 0.70518 0.99841 0.26238 0.0
H1043 H 0.67667 0.96829 0.14504 0.0
H1044 H 0.67515 0.01529 0.12043 0.0
H1045 H 0.6649 0.05233 0.21448 0.0
C1046 C 0.6487 0.94913 0.26516 0.0
C1047 C 0.6453 0.92093 0.25611 0.0
C1048 C 0.65381 0.91219 0.22522 0.0
C1049 C 0.66409 0.93173 0.20294 0.0
C1050 C 0.66642 0.95964 0.21236 0.0
C1051 C 0.65943 0.96819 0.24299 0.0
C1052 C 0.66145 0.99957 0.24651 0.0
C1053 C 0.63317 0.01215 0.25686 0.0
C1054 C 0.68489 0.00765 0.26995 0.0
C1055 C 0.66897 0.00762 0.21253 0.0
C1056 C 0.6721 0.98431 0.19322 0.0
C1057 C 0.67519 0.98666 0.16008 0.0
C1058 C 0.67425 0.01339 0.1463 0.0
C1059 C 0.67046 0.03736 0.16569 0.0
C1060 C 0.66882 0.03442 0.19926 0.0
H1061 H 0.05499 0.64818 0.27009 0.0
H1062 H 0.01599 0.64754 0.36392 0.0
H1063 H 0.97122 0.66225 0.3399 0.0
H1064 H 0.01126 0.70628 0.23333 0.0
H1065 H 0.00957 0.68817 0.1955 0.0
H1066 H 0.04007 0.68469 0.22059 0.0
H1067 H 0.03428 0.63083 0.21982 0.0
H1068 H 0.00388 0.63413 0.19489 0.0
H1069 H 0.00151 0.61557 0.23243 0.0
H1070 H 0.92953 0.66949 0.30564 0.0
H1071 H 0.89353 0.66504 0.26359 0.0
H1072 H 0.95888 0.65882 0.19154 0.0
C1073 C 0.03724 0.65226 0.28556 0.0
C1074 C 0.03885 0.64721 0.31878 0.0
C1075 C 0.01506 0.65157 0.33838 0.0
C1076 C 0.98964 0.66011 0.32499 0.0
C1077 C 0.98834 0.66403 0.29194 0.0
C1078 C 0.0115 0.66021 0.27242 0.0
C1079 C 0.00348 0.66122 0.23735 0.0
C1080 C 0.01689 0.68661 0.22071 0.0
C1081 C 0.01123 0.63381 0.22014 0.0
C1082 C 0.97208 0.66466 0.24027 0.0
C1083 C 0.96386 0.66714 0.2719 0.0
C1084 C 0.9357 0.6681 0.28072 0.0
C1085 C 0.91539 0.66554 0.25667 0.0
C1086 C 0.92339 0.66154 0.22431 0.0
C1087 C 0.9521 0.66205 0.21604 0.0
loop_
_geom_bond_atom_site_label_1
_geom_bond_atom_site_label_2
_geom_bond_distance
_geom_bond_site_symmetry_2
_ccdc_geom_bond_type
Zn0 O3 2.031 . S
Zn0 O5 2.049 . S
Zn0 O10 2.067 . S
Zn1 O2 1.962 . S
Zn1 O4 1.986 . S
Zn1 O6 1.996 . S
Zn1 O9 1.943 . S
O2 Zn1 1.962 . S
O2 C7 1.254 . S
O3 Zn0 2.031 . S
O3 C7 1.269 . S
O4 Zn1 1.986 . S
O4 C11 1.262 . S
O5 Zn0 2.049 . S
O5 C13 1.260 . S
O6 Zn1 1.996 . S
O6 C13 1.257 . S
C7 O2 1.254 . S
C7 O3 1.269 . S
C8 O9 1.249 . S
C8 O10 1.270 . S
O9 Zn1 1.943 . S
O9 C8 1.249 . S
O10 Zn0 2.067 . S
O10 C8 1.270 . S
C11 O4 1.262 . S
C11 O12 1.232 . S
O12 C11 1.232 . S
C13 O5 1.260 . S
C13 O6 1.257 . S
Zn14 O17 2.031 . S
Zn14 O19 2.049 . S
Zn14 O24 2.067 . S
Zn15 O16 1.962 . S
Zn15 O18 1.986 . S
Zn15 O20 1.996 . S
Zn15 O23 1.943 . S
O16 Zn15 1.962 . S
O16 C21 1.254 . S
O17 Zn14 2.031 . S
O17 C21 1.269 . S
O18 Zn15 1.986 . S
O18 C25 1.262 . S
O19 Zn14 2.049 . S
O19 C27 1.260 . S
O20 Zn15 1.996 . S
O20 C27 1.257 . S
C21 O16 1.254 . S
C21 O17 1.269 . S
C22 O23 1.249 . S
C22 O24 1.270 . S
O23 Zn15 1.943 . S
O23 C22 1.249 . S
O24 Zn14 2.067 . S
O24 C22 1.270 . S
C25 O18 1.262 . S
C25 O26 1.232 . S
O26 C25 1.232 . S
C27 O19 1.260 . S
C27 O20 1.257 . S
Zn28 O31 2.031 . S
Zn28 O33 2.049 . S
Zn28 O38 2.067 . S
Zn29 O30 1.962 . S
Zn29 O32 1.986 . S
Zn29 O34 1.996 . S
Zn29 O37 1.943 . S
O30 Zn29 1.962 . S
O30 C35 1.254 . S
O31 Zn28 2.031 . S
O31 C35 1.269 . S
O32 Zn29 1.986 . S
O32 C39 1.262 . S
O33 Zn28 2.049 . S
O33 C41 1.260 . S
O34 Zn29 1.996 . S
O34 C41 1.257 . S
C35 O30 1.254 . S
C35 O31 1.269 . S
C36 O37 1.249 . S
C36 O38 1.270 . S
O37 Zn29 1.943 . S
O37 C36 1.249 . S
O38 Zn28 2.067 . S
O38 C36 1.270 . S
C39 O32 1.262 . S
C39 O40 1.232 . S
O40 C39 1.232 . S
C41 O33 1.260 . S
C41 O34 1.257 . S
Zn42 O45 2.031 . S
Zn42 O47 2.049 . S
Zn42 O52 2.067 . S
Zn43 O44 1.962 . S
Zn43 O46 1.986 . S
Zn43 O48 1.996 . S
Zn43 O51 1.943 . S
O44 Zn43 1.962 . S
O44 C49 1.254 . S
O45 Zn42 2.031 . S
O45 C49 1.269 . S
O46 Zn43 1.986 . S
O46 C53 1.262 . S
O47 Zn42 2.049 . S
O47 C55 1.260 . S
O48 Zn43 1.996 . S
O48 C55 1.257 . S
C49 O44 1.254 . S
C49 O45 1.269 . S
C50 O51 1.249 . S
C50 O52 1.270 . S
O51 Zn43 1.943 . S
O51 C50 1.249 . S
O52 Zn42 2.067 . S
O52 C50 1.270 . S
C53 O46 1.262 . S
C53 O54 1.232 . S
O54 C53 1.232 . S
C55 O47 1.260 . S
C55 O48 1.257 . S
Zn56 O59 2.031 . S
Zn56 O61 2.049 . S
Zn56 O66 2.067 . S
Zn57 O58 1.962 . S
Zn57 O60 1.986 . S
Zn57 O62 1.996 . S
Zn57 O65 1.943 . S
O58 Zn57 1.962 . S
O58 C63 1.254 . S
O59 Zn56 2.031 . S
O59 C63 1.269 . S
O60 Zn57 1.986 . S
O60 C67 1.262 . S
O61 Zn56 2.049 . S
O61 C69 1.260 . S
O62 Zn57 1.996 . S
O62 C69 1.257 . S
C63 O58 1.254 . S
C63 O59 1.269 . S
C64 O65 1.249 . S
C64 O66 1.270 . S
O65 Zn57 1.943 . S
O65 C64 1.249 . S
O66 Zn56 2.067 . S
O66 C64 1.270 . S
C67 O60 1.262 . S
C67 O68 1.232 . S
O68 C67 1.232 . S
C69 O61 1.260 . S
C69 O62 1.257 . S
Zn70 O73 2.031 . S
Zn70 O75 2.049 . S
Zn70 O80 2.067 . S
Zn71 O72 1.962 . S
Zn71 O74 1.986 . S
Zn71 O76 1.996 . S
Zn71 O79 1.943 . S
O72 Zn71 1.962 . S
O72 C77 1.254 . S
O73 Zn70 2.031 . S
O73 C77 1.269 . S
O74 Zn71 1.986 . S
O74 C81 1.262 . S
O75 Zn70 2.049 . S
O75 C83 1.260 . S
O76 Zn71 1.996 . S
O76 C83 1.257 . S
C77 O72 1.254 . S
C77 O73 1.269 . S
C78 O79 1.249 . S
C78 O80 1.270 . S
O79 Zn71 1.943 . S
O79 C78 1.249 . S
O80 Zn70 2.067 . S
O80 C78 1.270 . S
C81 O74 1.262 . S
C81 O82 1.232 . S
O82 C81 1.232 . S
C83 O75 1.260 . S
C83 O76 1.257 . S
Zn84 O87 2.031 . S
Zn84 O89 2.049 . S
Zn84 O94 2.067 . S
Zn85 O86 1.962 . S
Zn85 O88 1.986 . S
Zn85 O90 1.996 . S
Zn85 O93 1.943 . S
O86 Zn85 1.962 . S
O86 C91 1.254 . S
O87 Zn84 2.031 . S
O87 C91 1.269 . S
O88 Zn85 1.986 . S
O88 C95 1.262 . S
O89 Zn84 2.049 . S
O89 C97 1.260 . S
O90 Zn85 1.996 . S
O90 C97 1.257 . S
C91 O86 1.254 . S
C91 O87 1.269 . S
C92 O93 1.249 . S
C92 O94 1.270 . S
O93 Zn85 1.943 . S
O93 C92 1.249 . S
O94 Zn84 2.067 . S
O94 C92 1.270 . S
C95 O88 1.262 . S
C95 O96 1.232 . S
O96 C95 1.232 . S
C97 O89 1.260 . S
C97 O90 1.257 . S
Zn98 O101 2.031 . S
Zn98 O103 2.049 . S
Zn98 O108 2.067 . S
Zn99 O100 1.962 . S
Zn99 O102 1.986 . S
Zn99 O104 1.996 . S
Zn99 O107 1.943 . S
O100 Zn99 1.962 . S
O100 C105 1.254 . S
O101 Zn98 2.031 . S
O101 C105 1.269 . S
O102 Zn99 1.986 . S
O102 C109 1.262 . S
O103 Zn98 2.049 . S
O103 C111 1.260 . S
O104 Zn99 1.996 . S
O104 C111 1.257 . S
C105 O100 1.254 . S
C105 O101 1.269 . S
C106 O107 1.249 . S
C106 O108 1.270 . S
O107 Zn99 1.943 . S
O107 C106 1.249 . S
O108 Zn98 2.067 . S
O108 C106 1.270 . S
C109 O102 1.262 . S
C109 O110 1.232 . S
O110 C109 1.232 . S
C111 O103 1.260 . S
C111 O104 1.257 . S
Zn112 O115 2.031 . S
Zn112 O117 2.049 . S
Zn112 O122 2.067 . S
Zn113 O114 1.962 . S
Zn113 O116 1.986 . S
Zn113 O118 1.996 . S
Zn113 O121 1.943 . S
O114 Zn113 1.962 . S
O114 C119 1.254 . S
O115 Zn112 2.031 . S
O115 C119 1.269 . S
O116 Zn113 1.986 . S
O116 C123 1.262 . S
O117 Zn112 2.049 . S
O117 C125 1.260 . S
O118 Zn113 1.996 . S
O118 C125 1.257 . S
C119 O114 1.254 . S
C119 O115 1.269 . S
C120 O121 1.249 . S
C120 O122 1.270 . S
O121 Zn113 1.943 . S
O121 C120 1.249 . S
O122 Zn112 2.067 . S
O122 C120 1.270 . S
C123 O116 1.262 . S
C123 O124 1.232 . S
O124 C123 1.232 . S
C125 O117 1.260 . S
C125 O118 1.257 . S
Zn126 O129 2.031 . S
Zn126 O131 2.049 . S
Zn126 O136 2.067 . S
Zn127 O128 1.962 . S
Zn127 O130 1.986 . S
Zn127 O132 1.996 . S
Zn127 O135 1.943 . S
O128 Zn127 1.962 . S
O128 C133 1.254 . S
O129 Zn126 2.031 . S
O129 C133 1.269 . S
O130 Zn127 1.986 . S
O130 C137 1.262 . S
O131 Zn126 2.049 . S
O131 C139 1.260 . S
O132 Zn127 1.996 . S
O132 C139 1.257 . S
C133 O128 1.254 . S
C133 O129 1.269 . S
C134 O135 1.249 . S
C134 O136 1.270 . S
O135 Zn127 1.943 . S
O135 C134 1.249 . S
O136 Zn126 2.067 . S
O136 C134 1.270 . S
C137 O130 1.262 . S
C137 O138 1.232 . S
O138 C137 1.232 . S
C139 O131 1.260 . S
C139 O132 1.257 . S
Zn140 O143 2.031 . S
Zn140 O145 2.049 . S
Zn140 O150 2.067 . S
Zn141 O142 1.962 . S
Zn141 O144 1.986 . S
Zn141 O146 1.996 . S
Zn141 O149 1.943 . S
O142 Zn141 1.962 . S
O142 C147 1.254 . S
O143 Zn140 2.031 . S
O143 C147 1.269 . S
O144 Zn141 1.986 . S
O144 C151 1.262 . S
O145 Zn140 2.049 . S
O145 C153 1.260 . S
O146 Zn141 1.996 . S
O146 C153 1.257 . S
C147 O142 1.254 . S
C147 O143 1.269 . S
C148 O149 1.249 . S
C148 O150 1.270 . S
O149 Zn141 1.943 . S
O149 C148 1.249 . S
O150 Zn140 2.067 . S
O150 C148 1.270 . S
C151 O144 1.262 . S
C151 O152 1.232 . S
O152 C151 1.232 . S
C153 O145 1.260 . S
C153 O146 1.257 . S
Zn154 O157 2.031 . S
Zn154 O159 2.049 . S
Zn154 O164 2.067 . S
Zn155 O156 1.962 . S
Zn155 O158 1.986 . S
Zn155 O160 1.996 . S
Zn155 O163 1.943 . S
O156 Zn155 1.962 . S
O156 C161 1.254 . S
O157 Zn154 2.031 . S
O157 C161 1.269 . S
O158 Zn155 1.986 . S
O158 C165 1.262 . S
O159 Zn154 2.049 . S
O159 C167 1.260 . S
O160 Zn155 1.996 . S
O160 C167 1.257 . S
C161 O156 1.254 . S
C161 O157 1.269 . S
C162 O163 1.249 . S
C162 O164 1.270 . S
O163 Zn155 1.943 . S
O163 C162 1.249 . S
O164 Zn154 2.067 . S
O164 C162 1.270 . S
C165 O158 1.262 . S
C165 O166 1.232 . S
O166 C165 1.232 . S
C167 O159 1.260 . S
C167 O160 1.257 . S
Zn168 O171 2.031 . S
Zn168 O173 2.049 . S
Zn168 O178 2.067 . S
Zn169 O170 1.962 . S
Zn169 O172 1.986 . S
Zn169 O174 1.996 . S
Zn169 O177 1.943 . S
O170 Zn169 1.962 . S
O170 C175 1.254 . S
O171 Zn168 2.031 . S
O171 C175 1.269 . S
O172 Zn169 1.986 . S
O172 C179 1.262 . S
O173 Zn168 2.049 . S
O173 C181 1.260 . S
O174 Zn169 1.996 . S
O174 C181 1.257 . S
C175 O170 1.254 . S
C175 O171 1.269 . S
C176 O177 1.249 . S
C176 O178 1.270 . S
O177 Zn169 1.943 . S
O177 C176 1.249 . S
O178 Zn168 2.067 . S
O178 C176 1.270 . S
C179 O172 1.262 . S
C179 O180 1.232 . S
O180 C179 1.232 . S
C181 O173 1.260 . S
C181 O174 1.257 . S
Zn182 O185 2.031 . S
Zn182 O187 2.049 . S
Zn182 O192 2.067 . S
Zn183 O184 1.962 . S
Zn183 O186 1.986 . S
Zn183 O188 1.996 . S
Zn183 O191 1.943 . S
O184 Zn183 1.962 . S
O184 C189 1.254 . S
O185 Zn182 2.031 . S
O185 C189 1.269 . S
O186 Zn183 1.986 . S
O186 C193 1.262 . S
O187 Zn182 2.049 . S
O187 C195 1.260 . S
O188 Zn183 1.996 . S
O188 C195 1.257 . S
C189 O184 1.254 . S
C189 O185 1.269 . S
C190 O191 1.249 . S
C190 O192 1.270 . S
O191 Zn183 1.943 . S
O191 C190 1.249 . S
O192 Zn182 2.067 . S
O192 C190 1.270 . S
C193 O186 1.262 . S
C193 O194 1.232 . S
O194 C193 1.232 . S
C195 O187 1.260 . S
C195 O188 1.257 . S
Zn196 O199 2.031 . S
Zn196 O201 2.049 . S
Zn196 O206 2.067 . S
Zn197 O198 1.962 . S
Zn197 O200 1.986 . S
Zn197 O202 1.996 . S
Zn197 O205 1.943 . S
O198 Zn197 1.962 . S
O198 C203 1.254 . S
O199 Zn196 2.031 . S
O199 C203 1.269 . S
O200 Zn197 1.986 . S
O200 C207 1.262 . S
O201 Zn196 2.049 . S
O201 C209 1.260 . S
O202 Zn197 1.996 . S
O202 C209 1.257 . S
C203 O198 1.254 . S
C203 O199 1.269 . S
C204 O205 1.249 . S
C204 O206 1.270 . S
O205 Zn197 1.943 . S
O205 C204 1.249 . S
O206 Zn196 2.067 . S
O206 C204 1.270 . S
C207 O200 1.262 . S
C207 O208 1.232 . S
O208 C207 1.232 . S
C209 O201 1.260 . S
C209 O202 1.257 . S
Zn210 O213 2.031 . S
Zn210 O215 2.049 . S
Zn210 O220 2.067 . S
Zn211 O212 1.962 . S
Zn211 O214 1.986 . S
Zn211 O216 1.996 . S
Zn211 O219 1.943 . S
O212 Zn211 1.962 . S
O212 C217 1.254 . S
O213 Zn210 2.031 . S
O213 C217 1.269 . S
O214 Zn211 1.986 . S
O214 C221 1.262 . S
O215 Zn210 2.049 . S
O215 C223 1.260 . S
O216 Zn211 1.996 . S
O216 C223 1.257 . S
C217 O212 1.254 . S
C217 O213 1.269 . S
C218 O219 1.249 . S
C218 O220 1.270 . S
O219 Zn211 1.943 . S
O219 C218 1.249 . S
O220 Zn210 2.067 . S
O220 C218 1.270 . S
C221 O214 1.262 . S
C221 O222 1.232 . S
O222 C221 1.232 . S
C223 O215 1.260 . S
C223 O216 1.257 . S
H224 C236 0.930 . S
H225 C238 0.930 . S
H226 C239 0.930 . S
H227 C243 0.959 . S
H228 C243 0.959 . S
H229 C243 0.961 . S
H230 C244 0.960 . S
H231 C244 0.961 . S
H232 C244 0.959 . S
H233 C247 0.929 . S
H234 C248 0.931 . S
H235 C250 0.930 . S
C236 H224 0.930 . S
C236 C237 1.399 . S
C236 C241 1.399 . S
C237 C236 1.399 . S
C237 C238 1.376 . S
C238 H225 0.930 . S
C238 C237 1.376 . S
C238 C239 1.388 . S
C239 H226 0.930 . S
C239 C238 1.388 . S
C239 C240 1.390 . S
C240 C239 1.390 . S
C240 C241 1.394 . S
C240 C246 1.465 . S
C241 C236 1.399 . S
C241 C240 1.394 . S
C241 C242 1.516 . S
C242 C241 1.516 . S
C242 C243 1.502 . S
C242 C244 1.561 . S
C242 C245 1.526 . S
C243 H227 0.959 . S
C243 H228 0.959 . S
C243 H229 0.961 . S
C243 C242 1.502 . S
C244 H230 0.960 . S
C244 H231 0.961 . S
C244 H232 0.959 . S
C244 C242 1.561 . S
C245 C242 1.526 . S
C245 C246 1.396 . S
C245 C250 1.390 . S
C246 C240 1.465 . S
C246 C245 1.396 . S
C246 C247 1.399 . S
C247 H233 0.929 . S
C247 C246 1.399 . S
C247 C248 1.385 . S
C248 H234 0.931 . S
C248 C247 1.385 . S
C248 C249 1.389 . S
C249 C248 1.389 . S
C249 C250 1.387 . S
C250 H235 0.930 . S
C250 C245 1.390 . S
C250 C249 1.387 . S
H251 C263 0.930 . S
H252 C265 0.930 . S
H253 C266 0.930 . S
H254 C270 0.959 . S
H255 C270 0.959 . S
H256 C270 0.961 . S
H257 C271 0.960 . S
H258 C271 0.961 . S
H259 C271 0.959 . S
H260 C274 0.929 . S
H261 C275 0.931 . S
H262 C277 0.930 . S
C263 H251 0.930 . S
C263 C264 1.399 . S
C263 C268 1.399 . S
C264 C263 1.399 . S
C264 C265 1.376 . S
C265 H252 0.930 . S
C265 C264 1.376 . S
C265 C266 1.388 . S
C266 H253 0.930 . S
C266 C265 1.388 . S
C266 C267 1.390 . S
C267 C266 1.390 . S
C267 C268 1.394 . S
C267 C273 1.465 . S
C268 C263 1.399 . S
C268 C267 1.394 . S
C268 C269 1.516 . S
C269 C268 1.516 . S
C269 C270 1.502 . S
C269 C271 1.561 . S
C269 C272 1.526 . S
C270 H254 0.959 . S
C270 H255 0.959 . S
C270 H256 0.961 . S
C270 C269 1.502 . S
C271 H257 0.960 . S
C271 H258 0.961 . S
C271 H259 0.959 . S
C271 C269 1.561 . S
C272 C269 1.526 . S
C272 C273 1.396 . S
C272 C277 1.390 . S
C273 C267 1.465 . S
C273 C272 1.396 . S
C273 C274 1.399 . S
C274 H260 0.929 . S
C274 C273 1.399 . S
C274 C275 1.385 . S
C275 H261 0.931 . S
C275 C274 1.385 . S
C275 C276 1.389 . S
C276 C275 1.389 . S
C276 C277 1.387 . S
C277 H262 0.930 . S
C277 C272 1.390 . S
C277 C276 1.387 . S
H278 C290 0.930 . S
H279 C292 0.930 . S
H280 C293 0.930 . S
H281 C297 0.959 . S
H282 C297 0.959 . S
H283 C297 0.961 . S
H284 C298 0.960 . S
H285 C298 0.961 . S
H286 C298 0.959 . S
H287 C301 0.929 . S
H288 C302 0.931 . S
H289 C304 0.930 . S
C290 H278 0.930 . S
C290 C291 1.399 . S
C290 C295 1.399 . S
C291 C290 1.399 . S
C291 C292 1.376 . S
C292 H279 0.930 . S
C292 C291 1.376 . S
C292 C293 1.388 . S
C293 H280 0.930 . S
C293 C292 1.388 . S
C293 C294 1.390 . S
C294 C293 1.390 . S
C294 C295 1.394 . S
C294 C300 1.465 . S
C295 C290 1.399 . S
C295 C294 1.394 . S
C295 C296 1.516 . S
C296 C295 1.516 . S
C296 C297 1.502 . S
C296 C298 1.561 . S
C296 C299 1.526 . S
C297 H281 0.959 . S
C297 H282 0.959 . S
C297 H283 0.961 . S
C297 C296 1.502 . S
C298 H284 0.960 . S
C298 H285 0.961 . S
C298 H286 0.959 . S
C298 C296 1.561 . S
C299 C296 1.526 . S
C299 C300 1.396 . S
C299 C304 1.390 . S
C300 C294 1.465 . S
C300 C299 1.396 . S
C300 C301 1.399 . S
C301 H287 0.929 . S
C301 C300 1.399 . S
C301 C302 1.385 . S
C302 H288 0.931 . S
C302 C301 1.385 . S
C302 C303 1.389 . S
C303 C302 1.389 . S
C303 C304 1.387 . S
C304 H289 0.930 . S
C304 C299 1.390 . S
C304 C303 1.387 . S
H305 C317 0.930 . S
H306 C319 0.930 . S
H307 C320 0.930 . S
H308 C324 0.959 . S
H309 C324 0.959 . S
H310 C324 0.961 . S
H311 C325 0.960 . S
H312 C325 0.961 . S
H313 C325 0.959 . S
H314 C328 0.929 . S
H315 C329 0.931 . S
H316 C331 0.930 . S
C317 H305 0.930 . S
C317 C318 1.399 . S
C317 C322 1.399 . S
C318 C317 1.399 . S
C318 C319 1.376 . S
C319 H306 0.930 . S
C319 C318 1.376 . S
C319 C320 1.388 . S
C320 H307 0.930 . S
C320 C319 1.388 . S
C320 C321 1.390 . S
C321 C320 1.390 . S
C321 C322 1.394 . S
C321 C327 1.465 . S
C322 C317 1.399 . S
C322 C321 1.394 . S
C322 C323 1.516 . S
C323 C322 1.516 . S
C323 C324 1.502 . S
C323 C325 1.561 . S
C323 C326 1.526 . S
C324 H308 0.959 . S
C324 H309 0.959 . S
C324 H310 0.961 . S
C324 C323 1.502 . S
C325 H311 0.960 . S
C325 H312 0.961 . S
C325 H313 0.959 . S
C325 C323 1.561 . S
C326 C323 1.526 . S
C326 C327 1.396 . S
C326 C331 1.390 . S
C327 C321 1.465 . S
C327 C326 1.396 . S
C327 C328 1.399 . S
C328 H314 0.929 . S
C328 C327 1.399 . S
C328 C329 1.385 . S
C329 H315 0.931 . S
C329 C328 1.385 . S
C329 C330 1.389 . S
C330 C329 1.389 . S
C330 C331 1.387 . S
C331 H316 0.930 . S
C331 C326 1.390 . S
C331 C330 1.387 . S
H332 C344 0.930 . S
H333 C346 0.930 . S
H334 C347 0.930 . S
H335 C351 0.959 . S
H336 C351 0.959 . S
H337 C351 0.961 . S
H338 C352 0.960 . S
H339 C352 0.961 . S
H340 C352 0.959 . S
H341 C355 0.929 . S
H342 C356 0.931 . S
H343 C358 0.930 . S
C344 H332 0.930 . S
C344 C345 1.399 . S
C344 C349 1.399 . S
C345 C344 1.399 . S
C345 C346 1.376 . S
C346 H333 0.930 . S
C346 C345 1.376 . S
C346 C347 1.388 . S
C347 H334 0.930 . S
C347 C346 1.388 . S
C347 C348 1.390 . S
C348 C347 1.390 . S
C348 C349 1.394 . S
C348 C354 1.465 . S
C349 C344 1.399 . S
C349 C348 1.394 . S
C349 C350 1.516 . S
C350 C349 1.516 . S
C350 C351 1.502 . S
C350 C352 1.561 . S
C350 C353 1.526 . S
C351 H335 0.959 . S
C351 H336 0.959 . S
C351 H337 0.961 . S
C351 C350 1.502 . S
C352 H338 0.960 . S
C352 H339 0.961 . S
C352 H340 0.959 . S
C352 C350 1.561 . S
C353 C350 1.526 . S
C353 C354 1.396 . S
C353 C358 1.390 . S
C354 C348 1.465 . S
C354 C353 1.396 . S
C354 C355 1.399 . S
C355 H341 0.929 . S
C355 C354 1.399 . S
C355 C356 1.385 . S
C356 H342 0.931 . S
C356 C355 1.385 . S
C356 C357 1.389 . S
C357 C356 1.389 . S
C357 C358 1.387 . S
C358 H343 0.930 . S
C358 C353 1.390 . S
C358 C357 1.387 . S
H359 C371 0.930 . S
H360 C373 0.930 . S
H361 C374 0.930 . S
H362 C378 0.959 . S
H363 C378 0.959 . S
H364 C378 0.961 . S
H365 C379 0.960 . S
H366 C379 0.961 . S
H367 C379 0.959 . S
H368 C382 0.929 . S
H369 C383 0.931 . S
H370 C385 0.930 . S
C371 H359 0.930 . S
C371 C372 1.399 . S
C371 C376 1.399 . S
C372 C371 1.399 . S
C372 C373 1.376 . S
C373 H360 0.930 . S
C373 C372 1.376 . S
C373 C374 1.388 . S
C374 H361 0.930 . S
C374 C373 1.388 . S
C374 C375 1.390 . S
C375 C374 1.390 . S
C375 C376 1.394 . S
C375 C381 1.465 . S
C376 C371 1.399 . S
C376 C375 1.394 . S
C376 C377 1.516 . S
C377 C376 1.516 . S
C377 C378 1.502 . S
C377 C379 1.561 . S
C377 C380 1.526 . S
C378 H362 0.959 . S
C378 H363 0.959 . S
C378 H364 0.961 . S
C378 C377 1.502 . S
C379 H365 0.960 . S
C379 H366 0.961 . S
C379 H367 0.959 . S
C379 C377 1.561 . S
C380 C377 1.526 . S
C380 C381 1.396 . S
C380 C385 1.390 . S
C381 C375 1.465 . S
C381 C380 1.396 . S
C381 C382 1.399 . S
C382 H368 0.929 . S
C382 C381 1.399 . S
C382 C383 1.385 . S
C383 H369 0.931 . S
C383 C382 1.385 . S
C383 C384 1.389 . S
C384 C383 1.389 . S
C384 C385 1.387 . S
C385 H370 0.930 . S
C385 C380 1.390 . S
C385 C384 1.387 . S
H386 C398 0.930 . S
H387 C400 0.930 . S
H388 C401 0.930 . S
H389 C405 0.959 . S
H390 C405 0.959 . S
H391 C405 0.961 . S
H392 C406 0.960 . S
H393 C406 0.961 . S
H394 C406 0.959 . S
H395 C409 0.929 . S
H396 C410 0.931 . S
H397 C412 0.930 . S
C398 H386 0.930 . S
C398 C399 1.399 . S
C398 C403 1.399 . S
C399 C398 1.399 . S
C399 C400 1.376 . S
C400 H387 0.930 . S
C400 C399 1.376 . S
C400 C401 1.388 . S
C401 H388 0.930 . S
C401 C400 1.388 . S
C401 C402 1.390 . S
C402 C401 1.390 . S
C402 C403 1.394 . S
C402 C408 1.465 . S
C403 C398 1.399 . S
C403 C402 1.394 . S
C403 C404 1.516 . S
C404 C403 1.516 . S
C404 C405 1.502 . S
C404 C406 1.561 . S
C404 C407 1.526 . S
C405 H389 0.959 . S
C405 H390 0.959 . S
C405 H391 0.961 . S
C405 C404 1.502 . S
C406 H392 0.960 . S
C406 H393 0.961 . S
C406 H394 0.959 . S
C406 C404 1.561 . S
C407 C404 1.526 . S
C407 C408 1.396 . S
C407 C412 1.390 . S
C408 C402 1.465 . S
C408 C407 1.396 . S
C408 C409 1.399 . S
C409 H395 0.929 . S
C409 C408 1.399 . S
C409 C410 1.385 . S
C410 H396 0.931 . S
C410 C409 1.385 . S
C410 C411 1.389 . S
C411 C410 1.389 . S
C411 C412 1.387 . S
C412 H397 0.930 . S
C412 C407 1.390 . S
C412 C411 1.387 . S
H413 C425 0.930 . S
H414 C427 0.930 . S
H415 C428 0.930 . S
H416 C432 0.959 . S
H417 C432 0.959 . S
H418 C432 0.961 . S
H419 C433 0.960 . S
H420 C433 0.961 . S
H421 C433 0.959 . S
H422 C436 0.929 . S
H423 C437 0.931 . S
H424 C439 0.930 . S
C425 H413 0.930 . S
C425 C426 1.399 . S
C425 C430 1.399 . S
C426 C425 1.399 . S
C426 C427 1.376 . S
C427 H414 0.930 . S
C427 C426 1.376 . S
C427 C428 1.388 . S
C428 H415 0.930 . S
C428 C427 1.388 . S
C428 C429 1.390 . S
C429 C428 1.390 . S
C429 C430 1.394 . S
C429 C435 1.465 . S
C430 C425 1.399 . S
C430 C429 1.394 . S
C430 C431 1.516 . S
C431 C430 1.516 . S
C431 C432 1.502 . S
C431 C433 1.561 . S
C431 C434 1.526 . S
C432 H416 0.959 . S
C432 H417 0.959 . S
C432 H418 0.961 . S
C432 C431 1.502 . S
C433 H419 0.960 . S
C433 H420 0.961 . S
C433 H421 0.959 . S
C433 C431 1.561 . S
C434 C431 1.526 . S
C434 C435 1.396 . S
C434 C439 1.390 . S
C435 C429 1.465 . S
C435 C434 1.396 . S
C435 C436 1.399 . S
C436 H422 0.929 . S
C436 C435 1.399 . S
C436 C437 1.385 . S
C437 H423 0.931 . S
C437 C436 1.385 . S
C437 C438 1.389 . S
C438 C437 1.389 . S
C438 C439 1.387 . S
C439 H424 0.930 . S
C439 C434 1.390 . S
C439 C438 1.387 . S
H440 C452 0.930 . S
H441 C454 0.930 . S
H442 C455 0.930 . S
H443 C459 0.960 1_554 S
H444 C459 0.959 1_554 S
H445 C459 0.961 . S
H446 C460 0.960 . S
H447 C460 0.961 1_554 S
H448 C460 0.959 1_554 S
H449 C463 0.929 . S
H450 C464 0.931 . S
H451 C466 0.930 . S
C452 H440 0.930 . S
C452 C453 1.399 . S
C452 C457 1.399 . S
C453 C452 1.399 . S
C453 C454 1.376 . S
C454 H441 0.930 . S
C454 C453 1.376 . S
C454 C455 1.388 . S
C455 H442 0.930 . S
C455 C454 1.388 . S
C455 C456 1.390 . S
C456 C455 1.390 . S
C456 C457 1.394 . S
C456 C462 1.465 1_556 S
C457 C452 1.399 . S
C457 C456 1.394 . S
C457 C458 1.516 . S
C458 C457 1.516 . S
C458 C459 1.502 . S
C458 C460 1.561 . S
C458 C461 1.526 1_556 S
C459 H443 0.960 1_556 S
C459 H444 0.959 1_556 S
C459 H445 0.961 . S
C459 C458 1.502 . S
C460 H446 0.960 . S
C460 H447 0.961 1_556 S
C460 H448 0.959 1_556 S
C460 C458 1.561 . S
C461 C458 1.526 1_554 S
C461 C462 1.396 . S
C461 C466 1.390 . S
C462 C456 1.465 1_554 S
C462 C461 1.396 . S
C462 C463 1.399 . S
C463 H449 0.929 . S
C463 C462 1.399 . S
C463 C464 1.385 . S
C464 H450 0.931 . S
C464 C463 1.385 . S
C464 C465 1.389 . S
C465 C464 1.389 . S
C465 C466 1.387 . S
C466 H451 0.930 . S
C466 C461 1.390 . S
C466 C465 1.387 . S
H467 C479 0.930 . S
H468 C481 0.930 . S
H469 C482 0.930 . S
H470 C486 0.959 . S
H471 C486 0.959 . S
H472 C486 0.961 1_556 S
H473 C487 0.963 1_556 S
H474 C487 0.959 . S
H475 C487 0.959 . S
H476 C490 0.929 . S
H477 C491 0.931 . S
H478 C493 0.930 . S
C479 H467 0.930 . S
C479 C480 1.399 . S
C479 C484 1.399 . S
C480 C479 1.399 . S
C480 C481 1.376 . S
C481 H468 0.930 . S
C481 C480 1.376 . S
C481 C482 1.388 . S
C482 H469 0.930 . S
C482 C481 1.388 . S
C482 C483 1.390 . S
C483 C482 1.390 . S
C483 C484 1.394 . S
C483 C489 1.465 1_556 S
C484 C479 1.399 . S
C484 C483 1.394 . S
C484 C485 1.495 1_556 S
C485 C484 1.495 1_554 S
C485 C486 1.503 . S
C485 C487 1.561 . S
C485 C488 1.546 . S
C486 H470 0.959 . S
C486 H471 0.959 . S
C486 H472 0.961 1_554 S
C486 C485 1.503 . S
C487 H473 0.963 1_554 S
C487 H474 0.959 . S
C487 H475 0.959 . S
C487 C485 1.561 . S
C488 C485 1.546 . S
C488 C489 1.396 . S
C488 C493 1.390 . S
C489 C483 1.465 1_554 S
C489 C488 1.396 . S
C489 C490 1.399 . S
C490 H476 0.929 . S
C490 C489 1.399 . S
C490 C491 1.385 . S
C491 H477 0.931 . S
C491 C490 1.385 . S
C491 C492 1.389 . S
C492 C491 1.389 . S
C492 C493 1.387 . S
C493 H478 0.930 . S
C493 C488 1.390 . S
C493 C492 1.387 . S
H494 C506 0.930 . S
H495 C508 0.930 . S
H496 C509 0.930 . S
H497 C513 0.959 . S
H498 C513 0.959 1_554 S
H499 C513 0.961 . S
H500 C514 0.970 . S
H501 C514 0.952 1_554 S
H502 C514 0.958 1_554 S
H503 C517 0.929 . S
H504 C518 0.931 . S
H505 C520 0.930 . S
C506 H494 0.930 . S
C506 C507 1.399 . S
C506 C511 1.399 . S
C507 C506 1.399 . S
C507 C508 1.376 . S
C508 H495 0.930 . S
C508 C507 1.376 . S
C508 C509 1.388 . S
C509 H496 0.930 . S
C509 C508 1.388 . S
C509 C510 1.390 . S
C510 C509 1.390 . S
C510 C511 1.394 . S
C510 C516 1.465 1_556 S
C511 C506 1.399 . S
C511 C510 1.394 . S
C511 C512 1.541 . S
C512 C511 1.541 . S
C512 C513 1.503 . S
C512 C514 1.561 . S
C512 C515 1.500 1_556 S
C513 H497 0.959 . S
C513 H498 0.959 1_556 S
C513 H499 0.961 . S
C513 C512 1.503 . S
C514 H500 0.970 . S
C514 H501 0.952 1_556 S
C514 H502 0.958 1_556 S
C514 C512 1.561 . S
C515 C512 1.500 1_554 S
C515 C516 1.396 . S
C515 C520 1.390 . S
C516 C510 1.465 1_554 S
C516 C515 1.396 . S
C516 C517 1.399 . S
C517 H503 0.929 . S
C517 C516 1.399 . S
C517 C518 1.385 . S
C518 H504 0.931 . S
C518 C517 1.385 . S
C518 C519 1.389 . S
C519 C518 1.389 . S
C519 C520 1.387 . S
C520 H505 0.930 . S
C520 C515 1.390 . S
C520 C519 1.387 . S
H521 C533 0.930 . S
H522 C535 0.930 . S
H523 C536 0.930 . S
H524 C540 0.959 . S
H525 C540 0.959 . S
H526 C540 0.961 1_554 S
H527 C541 0.960 1_554 S
H528 C541 0.961 . S
H529 C541 0.959 . S
H530 C544 0.929 . S
H531 C545 0.931 . S
H532 C547 0.930 . S
C533 H521 0.930 . S
C533 C534 1.399 . S
C533 C538 1.399 . S
C534 C533 1.399 . S
C534 C535 1.376 . S
C535 H522 0.930 . S
C535 C534 1.376 . S
C535 C536 1.388 . S
C536 H523 0.930 . S
C536 C535 1.388 . S
C536 C537 1.390 . S
C537 C536 1.390 . S
C537 C538 1.394 . S
C537 C543 1.465 1_554 S
C538 C533 1.399 . S
C538 C537 1.394 . S
C538 C539 1.516 1_554 S
C539 C538 1.516 1_556 S
C539 C540 1.502 . S
C539 C541 1.561 . S
C539 C542 1.526 . S
C540 H524 0.959 . S
C540 H525 0.959 . S
C540 H526 0.961 1_556 S
C540 C539 1.502 . S
C541 H527 0.960 1_556 S
C541 H528 0.961 . S
C541 H529 0.959 . S
C541 C539 1.561 . S
C542 C539 1.526 . S
C542 C543 1.396 . S
C542 C547 1.390 . S
C543 C537 1.465 1_556 S
C543 C542 1.396 . S
C543 C544 1.399 . S
C544 H530 0.929 . S
C544 C543 1.399 . S
C544 C545 1.385 . S
C545 H531 0.931 . S
C545 C544 1.385 . S
C545 C546 1.389 . S
C546 C545 1.389 . S
C546 C547 1.387 . S
C547 H532 0.930 . S
C547 C542 1.390 . S
C547 C546 1.387 . S
H548 C560 0.930 . S
H549 C562 0.930 . S
H550 C563 0.930 . S
H551 C567 0.959 . S
H552 C567 0.959 . S
H553 C567 0.961 . S
H554 C568 0.960 . S
H555 C568 0.961 . S
H556 C568 0.959 . S
H557 C571 0.929 . S
H558 C572 0.931 . S
H559 C574 0.930 . S
C560 H548 0.930 . S
C560 C561 1.399 . S
C560 C565 1.399 . S
C561 C560 1.399 . S
C561 C562 1.376 . S
C562 H549 0.930 . S
C562 C561 1.376 . S
C562 C563 1.388 . S
C563 H550 0.930 . S
C563 C562 1.388 . S
C563 C564 1.390 . S
C564 C563 1.390 . S
C564 C565 1.394 . S
C564 C570 1.465 . S
C565 C560 1.399 . S
C565 C564 1.394 . S
C565 C566 1.516 . S
C566 C565 1.516 . S
C566 C567 1.502 . S
C566 C568 1.561 . S
C566 C569 1.526 . S
C567 H551 0.959 . S
C567 H552 0.959 . S
C567 H553 0.961 . S
C567 C566 1.502 . S
C568 H554 0.960 . S
C568 H555 0.961 . S
C568 H556 0.959 . S
C568 C566 1.561 . S
C569 C566 1.526 . S
C569 C570 1.396 . S
C569 C574 1.390 . S
C570 C564 1.465 . S
C570 C569 1.396 . S
C570 C571 1.399 . S
C571 H557 0.929 . S
C571 C570 1.399 . S
C571 C572 1.385 . S
C572 H558 0.931 . S
C572 C571 1.385 . S
C572 C573 1.389 . S
C573 C572 1.389 . S
C573 C574 1.387 . S
C574 H559 0.930 . S
C574 C569 1.390 . S
C574 C573 1.387 . S
H575 C587 0.930 . S
H576 C589 0.930 . S
H577 C590 0.930 . S
H578 C594 0.959 . S
H579 C594 0.959 . S
H580 C594 0.961 . S
H581 C595 0.960 . S
H582 C595 0.961 . S
H583 C595 0.959 . S
H584 C598 0.929 . S
H585 C599 0.931 . S
H586 C601 0.930 . S
C587 H575 0.930 . S
C587 C588 1.399 . S
C587 C592 1.399 . S
C588 C587 1.399 . S
C588 C589 1.376 . S
C589 H576 0.930 . S
C589 C588 1.376 . S
C589 C590 1.388 . S
C590 H577 0.930 . S
C590 C589 1.388 . S
C590 C591 1.390 . S
C591 C590 1.390 . S
C591 C592 1.394 . S
C591 C597 1.465 . S
C592 C587 1.399 . S
C592 C591 1.394 . S
C592 C593 1.516 . S
C593 C592 1.516 . S
C593 C594 1.502 . S
C593 C595 1.561 . S
C593 C596 1.526 . S
C594 H578 0.959 . S
C594 H579 0.959 . S
C594 H580 0.961 . S
C594 C593 1.502 . S
C595 H581 0.960 . S
C595 H582 0.961 . S
C595 H583 0.959 . S
C595 C593 1.561 . S
C596 C593 1.526 . S
C596 C597 1.396 . S
C596 C601 1.390 . S
C597 C591 1.465 . S
C597 C596 1.396 . S
C597 C598 1.399 . S
C598 H584 0.929 . S
C598 C597 1.399 . S
C598 C599 1.385 . S
C599 H585 0.931 . S
C599 C598 1.385 . S
C599 C600 1.389 . S
C600 C599 1.389 . S
C600 C601 1.387 . S
C601 H586 0.930 . S
C601 C596 1.390 . S
C601 C600 1.387 . S
H602 C614 0.930 . S
H603 C616 0.930 . S
H604 C617 0.930 . S
H605 C621 0.959 . S
H606 C621 0.959 . S
H607 C621 0.961 . S
H608 C622 0.960 . S
H609 C622 0.961 . S
H610 C622 0.959 . S
H611 C625 0.929 . S
H612 C626 0.931 . S
H613 C628 0.930 . S
C614 H602 0.930 . S
C614 C615 1.399 . S
C614 C619 1.399 . S
C615 C614 1.399 . S
C615 C616 1.376 . S
C616 H603 0.930 . S
C616 C615 1.376 . S
C616 C617 1.388 . S
C617 H604 0.930 . S
C617 C616 1.388 . S
C617 C618 1.390 . S
C618 C617 1.390 . S
C618 C619 1.394 . S
C618 C624 1.465 . S
C619 C614 1.399 . S
C619 C618 1.394 . S
C619 C620 1.516 . S
C620 C619 1.516 . S
C620 C621 1.502 . S
C620 C622 1.561 . S
C620 C623 1.526 . S
C621 H605 0.959 . S
C621 H606 0.959 . S
C621 H607 0.961 . S
C621 C620 1.502 . S
C622 H608 0.960 . S
C622 H609 0.961 . S
C622 H610 0.959 . S
C622 C620 1.561 . S
C623 C620 1.526 . S
C623 C624 1.396 . S
C623 C628 1.390 . S
C624 C618 1.465 . S
C624 C623 1.396 . S
C624 C625 1.399 . S
C625 H611 0.929 . S
C625 C624 1.399 . S
C625 C626 1.385 . S
C626 H612 0.931 . S
C626 C625 1.385 . S
C626 C627 1.389 . S
C627 C626 1.389 . S
C627 C628 1.387 . S
C628 H613 0.930 . S
C628 C623 1.390 . S
C628 C627 1.387 . S
H629 C641 0.930 . S
H630 C643 0.930 . S
H631 C644 0.930 . S
H632 C648 0.959 . S
H633 C648 0.959 . S
H634 C648 0.961 . S
H635 C649 0.960 . S
H636 C649 0.961 . S
H637 C649 0.959 . S
H638 C652 0.929 . S
H639 C653 0.931 . S
H640 C655 0.930 . S
C641 H629 0.930 . S
C641 C642 1.399 . S
C641 C646 1.399 . S
C642 C641 1.399 . S
C642 C643 1.376 . S
C643 H630 0.930 . S
C643 C642 1.376 . S
C643 C644 1.388 . S
C644 H631 0.930 . S
C644 C643 1.388 . S
C644 C645 1.390 . S
C645 C644 1.390 . S
C645 C646 1.394 . S
C645 C651 1.465 . S
C646 C641 1.399 . S
C646 C645 1.394 . S
C646 C647 1.516 . S
C647 C646 1.516 . S
C647 C648 1.502 . S
C647 C649 1.561 . S
C647 C650 1.526 . S
C648 H632 0.959 . S
C648 H633 0.959 . S
C648 H634 0.961 . S
C648 C647 1.502 . S
C649 H635 0.960 . S
C649 H636 0.961 . S
C649 H637 0.959 . S
C649 C647 1.561 . S
C650 C647 1.526 . S
C650 C651 1.396 . S
C650 C655 1.390 . S
C651 C645 1.465 . S
C651 C650 1.396 . S
C651 C652 1.399 . S
C652 H638 0.929 . S
C652 C651 1.399 . S
C652 C653 1.385 . S
C653 H639 0.931 . S
C653 C652 1.385 . S
C653 C654 1.389 . S
C654 C653 1.389 . S
C654 C655 1.387 . S
C655 H640 0.930 . S
C655 C650 1.390 . S
C655 C654 1.387 . S
H656 C668 0.930 . S
H657 C670 0.930 . S
H658 C671 0.930 . S
H659 C675 0.959 . S
H660 C675 0.959 . S
H661 C675 0.961 . S
H662 C676 0.960 . S
H663 C676 0.961 . S
H664 C676 0.959 . S
H665 C679 0.929 . S
H666 C680 0.931 . S
H667 C682 0.930 . S
C668 H656 0.930 . S
C668 C669 1.399 . S
C668 C673 1.399 . S
C669 C668 1.399 . S
C669 C670 1.376 . S
C670 H657 0.930 . S
C670 C669 1.376 . S
C670 C671 1.388 . S
C671 H658 0.930 . S
C671 C670 1.388 . S
C671 C672 1.390 . S
C672 C671 1.390 . S
C672 C673 1.394 . S
C672 C678 1.465 . S
C673 C668 1.399 . S
C673 C672 1.394 . S
C673 C674 1.516 . S
C674 C673 1.516 . S
C674 C675 1.502 . S
C674 C676 1.561 . S
C674 C677 1.526 . S
C675 H659 0.959 . S
C675 H660 0.959 . S
C675 H661 0.961 . S
C675 C674 1.502 . S
C676 H662 0.960 . S
C676 H663 0.961 . S
C676 H664 0.959 . S
C676 C674 1.561 . S
C677 C674 1.526 . S
C677 C678 1.396 . S
C677 C682 1.390 . S
C678 C672 1.465 . S
C678 C677 1.396 . S
C678 C679 1.399 . S
C679 H665 0.929 . S
C679 C678 1.399 . S
C679 C680 1.385 . S
C680 H666 0.931 . S
C680 C679 1.385 . S
C680 C681 1.389 . S
C681 C680 1.389 . S
C681 C682 1.387 . S
C682 H667 0.930 . S
C682 C677 1.390 . S
C682 C681 1.387 . S
H683 C695 0.930 . S
H684 C697 0.930 . S
H685 C698 0.930 . S
H686 C702 0.959 . S
H687 C702 0.959 . S
H688 C702 0.961 . S
H689 C703 0.960 . S
H690 C703 0.961 . S
H691 C703 0.959 . S
H692 C706 0.929 . S
H693 C707 0.931 . S
H694 C709 0.930 . S
C695 H683 0.930 . S
C695 C696 1.399 . S
C695 C700 1.399 . S
C696 C695 1.399 . S
C696 C697 1.376 . S
C697 H684 0.930 . S
C697 C696 1.376 . S
C697 C698 1.388 . S
C698 H685 0.930 . S
C698 C697 1.388 . S
C698 C699 1.390 . S
C699 C698 1.390 . S
C699 C700 1.394 . S
C699 C705 1.465 . S
C700 C695 1.399 . S
C700 C699 1.394 . S
C700 C701 1.516 . S
C701 C700 1.516 . S
C701 C702 1.502 . S
C701 C703 1.561 . S
C701 C704 1.526 . S
C702 H686 0.959 . S
C702 H687 0.959 . S
C702 H688 0.961 . S
C702 C701 1.502 . S
C703 H689 0.960 . S
C703 H690 0.961 . S
C703 H691 0.959 . S
C703 C701 1.561 . S
C704 C701 1.526 . S
C704 C705 1.396 . S
C704 C709 1.390 . S
C705 C699 1.465 . S
C705 C704 1.396 . S
C705 C706 1.399 . S
C706 H692 0.929 . S
C706 C705 1.399 . S
C706 C707 1.385 . S
C707 H693 0.931 . S
C707 C706 1.385 . S
C707 C708 1.389 . S
C708 C707 1.389 . S
C708 C709 1.387 . S
C709 H694 0.930 . S
C709 C704 1.390 . S
C709 C708 1.387 . S
H710 C722 0.930 . S
H711 C724 0.930 . S
H712 C725 0.930 . S
H713 C729 0.959 . S
H714 C729 0.959 . S
H715 C729 0.961 . S
H716 C730 0.960 . S
H717 C730 0.961 . S
H718 C730 0.959 . S
H719 C733 0.929 . S
H720 C734 0.931 . S
H721 C736 0.930 . S
C722 H710 0.930 . S
C722 C723 1.399 . S
C722 C727 1.399 . S
C723 C722 1.399 . S
C723 C724 1.376 . S
C724 H711 0.930 . S
C724 C723 1.376 . S
C724 C725 1.388 . S
C725 H712 0.930 . S
C725 C724 1.388 . S
C725 C726 1.390 . S
C726 C725 1.390 . S
C726 C727 1.394 . S
C726 C732 1.465 . S
C727 C722 1.399 . S
C727 C726 1.394 . S
C727 C728 1.516 . S
C728 C727 1.516 . S
C728 C729 1.502 . S
C728 C730 1.561 . S
C728 C731 1.526 . S
C729 H713 0.959 . S
C729 H714 0.959 . S
C729 H715 0.961 . S
C729 C728 1.502 . S
C730 H716 0.960 . S
C730 H717 0.961 . S
C730 H718 0.959 . S
C730 C728 1.561 . S
C731 C728 1.526 . S
C731 C732 1.396 . S
C731 C736 1.390 . S
C732 C726 1.465 . S
C732 C731 1.396 . S
C732 C733 1.399 . S
C733 H719 0.929 . S
C733 C732 1.399 . S
C733 C734 1.385 . S
C734 H720 0.931 . S
C734 C733 1.385 . S
C734 C735 1.389 . S
C735 C734 1.389 . S
C735 C736 1.387 . S
C736 H721 0.930 . S
C736 C731 1.390 . S
C736 C735 1.387 . S
H737 C749 0.930 . S
H738 C751 0.930 . S
H739 C752 0.930 . S
H740 C756 0.959 . S
H741 C756 0.959 . S
H742 C756 0.961 . S
H743 C757 0.960 . S
H744 C757 0.961 . S
H745 C757 0.959 . S
H746 C760 0.929 . S
H747 C761 0.931 . S
H748 C763 0.930 . S
C749 H737 0.930 . S
C749 C750 1.399 . S
C749 C754 1.399 . S
C750 C749 1.399 . S
C750 C751 1.376 . S
C751 H738 0.930 . S
C751 C750 1.376 . S
C751 C752 1.388 . S
C752 H739 0.930 . S
C752 C751 1.388 . S
C752 C753 1.390 . S
C753 C752 1.390 . S
C753 C754 1.394 . S
C753 C759 1.465 . S
C754 C749 1.399 . S
C754 C753 1.394 . S
C754 C755 1.516 . S
C755 C754 1.516 . S
C755 C756 1.502 . S
C755 C757 1.561 . S
C755 C758 1.526 . S
C756 H740 0.959 . S
C756 H741 0.959 . S
C756 H742 0.961 . S
C756 C755 1.502 . S
C757 H743 0.960 . S
C757 H744 0.961 . S
C757 H745 0.959 . S
C757 C755 1.561 . S
C758 C755 1.526 . S
C758 C759 1.396 . S
C758 C763 1.390 . S
C759 C753 1.465 . S
C759 C758 1.396 . S
C759 C760 1.399 . S
C760 H746 0.929 . S
C760 C759 1.399 . S
C760 C761 1.385 . S
C761 H747 0.931 . S
C761 C760 1.385 . S
C761 C762 1.389 . S
C762 C761 1.389 . S
C762 C763 1.387 . S
C763 H748 0.930 . S
C763 C758 1.390 . S
C763 C762 1.387 . S
H764 C776 0.930 . S
H765 C778 0.930 . S
H766 C779 0.930 . S
H767 C783 0.959 . S
H768 C783 0.959 . S
H769 C783 0.961 . S
H770 C784 0.960 . S
H771 C784 0.961 . S
H772 C784 0.959 . S
H773 C787 0.929 . S
H774 C788 0.931 . S
H775 C790 0.930 . S
C776 H764 0.930 . S
C776 C777 1.399 . S
C776 C781 1.399 . S
C777 C776 1.399 . S
C777 C778 1.376 . S
C778 H765 0.930 . S
C778 C777 1.376 . S
C778 C779 1.388 . S
C779 H766 0.930 . S
C779 C778 1.388 . S
C779 C780 1.390 . S
C780 C779 1.390 . S
C780 C781 1.394 . S
C780 C786 1.465 . S
C781 C776 1.399 . S
C781 C780 1.394 . S
C781 C782 1.516 . S
C782 C781 1.516 . S
C782 C783 1.502 . S
C782 C784 1.561 . S
C782 C785 1.526 . S
C783 H767 0.959 . S
C783 H768 0.959 . S
C783 H769 0.961 . S
C783 C782 1.502 . S
C784 H770 0.960 . S
C784 H771 0.961 . S
C784 H772 0.959 . S
C784 C782 1.561 . S
C785 C782 1.526 . S
C785 C786 1.396 . S
C785 C790 1.390 . S
C786 C780 1.465 . S
C786 C785 1.396 . S
C786 C787 1.399 . S
C787 H773 0.929 . S
C787 C786 1.399 . S
C787 C788 1.385 . S
C788 H774 0.931 . S
C788 C787 1.385 . S
C788 C789 1.389 . S
C789 C788 1.389 . S
C789 C790 1.387 . S
C790 H775 0.930 . S
C790 C785 1.390 . S
C790 C789 1.387 . S
H791 C803 0.930 . S
H792 C805 0.930 . S
H793 C806 0.930 . S
H794 C810 0.959 . S
H795 C810 0.959 . S
H796 C810 0.961 . S
H797 C811 0.960 . S
H798 C811 0.961 . S
H799 C811 0.959 . S
H800 C814 0.929 . S
H801 C815 0.931 . S
H802 C817 0.930 . S
C803 H791 0.930 . S
C803 C804 1.399 . S
C803 C808 1.399 . S
C804 C803 1.399 . S
C804 C805 1.376 . S
C805 H792 0.930 . S
C805 C804 1.376 . S
C805 C806 1.388 . S
C806 H793 0.930 . S
C806 C805 1.388 . S
C806 C807 1.390 . S
C807 C806 1.390 . S
C807 C808 1.394 . S
C807 C813 1.465 . S
C808 C803 1.399 . S
C808 C807 1.394 . S
C808 C809 1.516 . S
C809 C808 1.516 . S
C809 C810 1.502 . S
C809 C811 1.561 . S
C809 C812 1.526 . S
C810 H794 0.959 . S
C810 H795 0.959 . S
C810 H796 0.961 . S
C810 C809 1.502 . S
C811 H797 0.960 . S
C811 H798 0.961 . S
C811 H799 0.959 . S
C811 C809 1.561 . S
C812 C809 1.526 . S
C812 C813 1.396 . S
C812 C817 1.390 . S
C813 C807 1.465 . S
C813 C812 1.396 . S
C813 C814 1.399 . S
C814 H800 0.929 . S
C814 C813 1.399 . S
C814 C815 1.385 . S
C815 H801 0.931 . S
C815 C814 1.385 . S
C815 C816 1.389 . S
C816 C815 1.389 . S
C816 C817 1.387 . S
C817 H802 0.930 . S
C817 C812 1.390 . S
C817 C816 1.387 . S
H818 C830 0.930 . S
H819 C832 0.930 . S
H820 C833 0.930 . S
H821 C837 0.959 . S
H822 C837 0.959 . S
H823 C837 0.961 . S
H824 C838 0.960 . S
H825 C838 0.961 . S
H826 C838 0.959 . S
H827 C841 0.929 . S
H828 C842 0.931 . S
H829 C844 0.930 . S
C830 H818 0.930 . S
C830 C831 1.399 . S
C830 C835 1.399 . S
C831 C830 1.399 . S
C831 C832 1.376 . S
C832 H819 0.930 . S
C832 C831 1.376 . S
C832 C833 1.388 . S
C833 H820 0.930 . S
C833 C832 1.388 . S
C833 C834 1.390 . S
C834 C833 1.390 . S
C834 C835 1.394 . S
C834 C840 1.465 . S
C835 C830 1.399 . S
C835 C834 1.394 . S
C835 C836 1.516 . S
C836 C835 1.516 . S
C836 C837 1.502 . S
C836 C838 1.561 . S
C836 C839 1.526 . S
C837 H821 0.959 . S
C837 H822 0.959 . S
C837 H823 0.961 . S
C837 C836 1.502 . S
C838 H824 0.960 . S
C838 H825 0.961 . S
C838 H826 0.959 . S
C838 C836 1.561 . S
C839 C836 1.526 . S
C839 C840 1.396 . S
C839 C844 1.390 . S
C840 C834 1.465 . S
C840 C839 1.396 . S
C840 C841 1.399 . S
C841 H827 0.929 . S
C841 C840 1.399 . S
C841 C842 1.385 . S
C842 H828 0.931 . S
C842 C841 1.385 . S
C842 C843 1.389 . S
C843 C842 1.389 . S
C843 C844 1.387 . S
C844 H829 0.930 . S
C844 C839 1.390 . S
C844 C843 1.387 . S
H845 C857 0.930 . S
H846 C859 0.930 . S
H847 C860 0.930 . S
H848 C864 0.959 . S
H849 C864 0.959 . S
H850 C864 0.961 . S
H851 C865 0.960 . S
H852 C865 0.961 . S
H853 C865 0.959 . S
H854 C868 0.929 . S
H855 C869 0.931 . S
H856 C871 0.930 . S
C857 H845 0.930 . S
C857 C858 1.399 . S
C857 C862 1.399 . S
C858 C857 1.399 . S
C858 C859 1.376 . S
C859 H846 0.930 . S
C859 C858 1.376 . S
C859 C860 1.388 . S
C860 H847 0.930 . S
C860 C859 1.388 . S
C860 C861 1.390 . S
C861 C860 1.390 . S
C861 C862 1.394 . S
C861 C867 1.465 . S
C862 C857 1.399 . S
C862 C861 1.394 . S
C862 C863 1.516 . S
C863 C862 1.516 . S
C863 C864 1.502 . S
C863 C865 1.561 . S
C863 C866 1.526 . S
C864 H848 0.959 . S
C864 H849 0.959 . S
C864 H850 0.961 . S
C864 C863 1.502 . S
C865 H851 0.960 . S
C865 H852 0.961 . S
C865 H853 0.959 . S
C865 C863 1.561 . S
C866 C863 1.526 . S
C866 C867 1.396 . S
C866 C871 1.390 . S
C867 C861 1.465 . S
C867 C866 1.396 . S
C867 C868 1.399 . S
C868 H854 0.929 . S
C868 C867 1.399 . S
C868 C869 1.385 . S
C869 H855 0.931 . S
C869 C868 1.385 . S
C869 C870 1.389 . S
C870 C869 1.389 . S
C870 C871 1.387 . S
C871 H856 0.930 . S
C871 C866 1.390 . S
C871 C870 1.387 . S
H872 C884 0.930 . S
H873 C886 0.930 . S
H874 C887 0.930 . S
H875 C891 0.959 . S
H876 C891 0.959 . S
H877 C891 0.961 . S
H878 C892 0.960 . S
H879 C892 0.961 . S
H880 C892 0.959 . S
H881 C895 0.929 . S
H882 C896 0.931 . S
H883 C898 0.930 . S
C884 H872 0.930 . S
C884 C885 1.399 . S
C884 C889 1.399 . S
C885 C884 1.399 . S
C885 C886 1.376 . S
C886 H873 0.930 . S
C886 C885 1.376 . S
C886 C887 1.388 . S
C887 H874 0.930 . S
C887 C886 1.388 . S
C887 C888 1.390 . S
C888 C887 1.390 . S
C888 C889 1.394 . S
C888 C894 1.465 1_545 S
C889 C884 1.399 . S
C889 C888 1.394 . S
C889 C890 1.516 . S
C890 C889 1.516 . S
C890 C891 1.502 . S
C890 C892 1.561 . S
C890 C893 1.526 1_545 S
C891 H875 0.959 . S
C891 H876 0.959 . S
C891 H877 0.961 . S
C891 C890 1.502 . S
C892 H878 0.960 . S
C892 H879 0.961 . S
C892 H880 0.959 . S
C892 C890 1.561 . S
C893 C890 1.526 1_565 S
C893 C894 1.396 . S
C893 C898 1.390 . S
C894 C888 1.465 1_565 S
C894 C893 1.396 . S
C894 C895 1.399 . S
C895 H881 0.929 . S
C895 C894 1.399 . S
C895 C896 1.385 . S
C896 H882 0.931 . S
C896 C895 1.385 . S
C896 C897 1.389 . S
C897 C896 1.389 . S
C897 C898 1.387 . S
C898 H883 0.930 . S
C898 C893 1.390 . S
C898 C897 1.387 . S
H899 C911 0.930 . S
H900 C913 0.930 . S
H901 C914 0.930 . S
H902 C918 0.959 . S
H903 C918 0.959 . S
H904 C918 0.961 1_655 S
H905 C919 0.960 . S
H906 C919 0.961 1_455 S
H907 C919 0.959 . S
H908 C922 0.929 . S
H909 C923 0.931 . S
H910 C925 0.930 . S
C911 H899 0.930 . S
C911 C912 1.399 . S
C911 C916 1.399 . S
C912 C911 1.399 . S
C912 C913 1.376 . S
C913 H900 0.930 . S
C913 C912 1.376 . S
C913 C914 1.388 . S
C914 H901 0.930 . S
C914 C913 1.388 . S
C914 C915 1.390 . S
C915 C914 1.390 . S
C915 C916 1.394 . S
C915 C921 1.465 1_655 S
C916 C911 1.399 . S
C916 C915 1.394 . S
C916 C917 1.516 1_655 S
C917 C916 1.516 1_455 S
C917 C918 1.502 . S
C917 C919 1.561 1_455 S
C917 C920 1.526 . S
C918 H902 0.959 . S
C918 H903 0.959 . S
C918 H904 0.961 1_455 S
C918 C917 1.502 . S
C919 H905 0.960 . S
C919 H906 0.961 1_655 S
C919 H907 0.959 . S
C919 C917 1.561 1_655 S
C920 C917 1.526 . S
C920 C921 1.396 . S
C920 C925 1.390 . S
C921 C915 1.465 1_455 S
C921 C920 1.396 . S
C921 C922 1.399 . S
C922 H908 0.929 . S
C922 C921 1.399 . S
C922 C923 1.385 . S
C923 H909 0.931 . S
C923 C922 1.385 . S
C923 C924 1.389 . S
C924 C923 1.389 . S
C924 C925 1.387 . S
C925 H910 0.930 . S
C925 C920 1.390 . S
C925 C924 1.387 . S
H926 C938 0.930 . S
H927 C940 0.930 . S
H928 C941 0.930 . S
H929 C945 0.959 . S
H930 C945 0.959 . S
H931 C945 0.961 . S
H932 C946 0.960 . S
H933 C946 0.961 . S
H934 C946 0.959 . S
H935 C949 0.929 . S
H936 C950 0.931 . S
H937 C952 0.930 . S
C938 H926 0.930 . S
C938 C939 1.399 . S
C938 C943 1.399 . S
C939 C938 1.399 . S
C939 C940 1.376 . S
C940 H927 0.930 . S
C940 C939 1.376 . S
C940 C941 1.388 . S
C941 H928 0.930 . S
C941 C940 1.388 . S
C941 C942 1.390 . S
C942 C941 1.390 . S
C942 C943 1.394 . S
C942 C948 1.465 1_545 S
C943 C938 1.399 . S
C943 C942 1.394 . S
C943 C944 1.516 . S
C944 C943 1.516 . S
C944 C945 1.502 . S
C944 C946 1.561 . S
C944 C947 1.526 1_545 S
C945 H929 0.959 . S
C945 H930 0.959 . S
C945 H931 0.961 . S
C945 C944 1.502 . S
C946 H932 0.960 . S
C946 H933 0.961 . S
C946 H934 0.959 . S
C946 C944 1.561 . S
C947 C944 1.526 1_565 S
C947 C948 1.396 . S
C947 C952 1.390 . S
C948 C942 1.465 1_565 S
C948 C947 1.396 . S
C948 C949 1.399 . S
C949 H935 0.929 . S
C949 C948 1.399 . S
C949 C950 1.385 . S
C950 H936 0.931 . S
C950 C949 1.385 . S
C950 C951 1.389 . S
C951 C950 1.389 . S
C951 C952 1.387 . S
C952 H937 0.930 . S
C952 C947 1.390 . S
C952 C951 1.387 . S
H953 C965 0.930 . S
H954 C967 0.930 . S
H955 C968 0.930 . S
H956 C972 0.959 . S
H957 C972 0.959 . S
H958 C972 0.954 1_455 S
H959 C973 0.960 . S
H960 C973 0.961 1_655 S
H961 C973 0.959 . S
H962 C976 0.929 . S
H963 C977 0.931 . S
H964 C979 0.930 . S
C965 H953 0.930 . S
C965 C966 1.399 . S
C965 C970 1.399 . S
C966 C965 1.399 . S
C966 C967 1.376 . S
C967 H954 0.930 . S
C967 C966 1.376 . S
C967 C968 1.388 . S
C968 H955 0.930 . S
C968 C967 1.388 . S
C968 C969 1.390 . S
C969 C968 1.390 . S
C969 C970 1.394 . S
C969 C975 1.465 1_455 S
C970 C965 1.399 . S
C970 C969 1.394 . S
C970 C971 1.516 1_455 S
C971 C970 1.516 1_655 S
C971 C972 1.502 . S
C971 C973 1.561 1_655 S
C971 C974 1.526 . S
C972 H956 0.959 . S
C972 H957 0.959 . S
C972 H958 0.954 1_655 S
C972 C971 1.502 . S
C973 H959 0.960 . S
C973 H960 0.961 1_455 S
C973 H961 0.959 . S
C973 C971 1.561 1_455 S
C974 C971 1.526 . S
C974 C975 1.396 . S
C974 C979 1.390 . S
C975 C969 1.465 1_655 S
C975 C974 1.396 . S
C975 C976 1.399 . S
C976 H962 0.929 . S
C976 C975 1.399 . S
C976 C977 1.385 . S
C977 H963 0.931 . S
C977 C976 1.385 . S
C977 C978 1.389 . S
C978 C977 1.389 . S
C978 C979 1.387 . S
C979 H964 0.930 . S
C979 C974 1.390 . S
C979 C978 1.387 . S
H980 C992 0.930 . S
H981 C994 0.930 . S
H982 C995 0.930 . S
H983 C999 0.959 . S
H984 C999 0.959 . S
H985 C999 0.961 . S
H986 C1000 0.960 . S
H987 C1000 0.961 . S
H988 C1000 0.959 . S
H989 C1003 0.929 . S
H990 C1004 0.931 . S
H991 C1006 0.930 . S
C992 H980 0.930 . S
C992 C993 1.399 . S
C992 C997 1.399 . S
C993 C992 1.399 . S
C993 C994 1.376 . S
C994 H981 0.930 . S
C994 C993 1.376 . S
C994 C995 1.388 . S
C995 H982 0.930 . S
C995 C994 1.388 . S
C995 C996 1.390 . S
C996 C995 1.390 . S
C996 C997 1.394 . S
C996 C1002 1.465 1_545 S
C997 C992 1.399 . S
C997 C996 1.394 . S
C997 C998 1.516 . S
C998 C997 1.516 . S
C998 C999 1.502 . S
C998 C1000 1.561 . S
C998 C1001 1.526 1_545 S
C999 H983 0.959 . S
C999 H984 0.959 . S
C999 H985 0.961 . S
C999 C998 1.502 . S
C1000 H986 0.960 . S
C1000 H987 0.961 . S
C1000 H988 0.959 . S
C1000 C998 1.561 . S
C1001 C998 1.526 1_565 S
C1001 C1002 1.396 . S
C1001 C1006 1.390 . S
C1002 C996 1.465 1_565 S
C1002 C1001 1.396 . S
C1002 C1003 1.399 . S
C1003 H989 0.929 . S
C1003 C1002 1.399 . S
C1003 C1004 1.385 . S
C1004 H990 0.931 . S
C1004 C1003 1.385 . S
C1004 C1005 1.389 . S
C1005 C1004 1.389 . S
C1005 C1006 1.387 . S
C1006 H991 0.930 . S
C1006 C1001 1.390 . S
C1006 C1005 1.387 . S
H1007 C1019 0.930 . S
H1008 C1021 0.930 . S
H1009 C1022 0.930 . S
H1010 C1026 0.959 . S
H1011 C1026 0.959 . S
H1012 C1026 0.961 . S
H1013 C1027 0.960 1_655 S
H1014 C1027 0.961 . S
H1015 C1027 0.968 . S
H1016 C1030 0.929 . S
H1017 C1031 0.931 . S
H1018 C1033 0.930 . S
C1019 H1007 0.930 . S
C1019 C1020 1.399 . S
C1019 C1024 1.399 . S
C1020 C1019 1.399 . S
C1020 C1021 1.376 . S
C1021 H1008 0.930 . S
C1021 C1020 1.376 . S
C1021 C1022 1.388 . S
C1022 H1009 0.930 . S
C1022 C1021 1.388 . S
C1022 C1023 1.390 . S
C1023 C1022 1.390 . S
C1023 C1024 1.394 . S
C1023 C1029 1.465 1_655 S
C1024 C1019 1.399 . S
C1024 C1023 1.394 . S
C1024 C1025 1.516 1_655 S
C1025 C1024 1.516 1_455 S
C1025 C1026 1.502 . S
C1025 C1027 1.561 . S
C1025 C1028 1.526 . S
C1026 H1010 0.959 . S
C1026 H1011 0.959 . S
C1026 H1012 0.961 . S
C1026 C1025 1.502 . S
C1027 H1013 0.960 1_455 S
C1027 H1014 0.961 . S
C1027 H1015 0.968 . S
C1027 C1025 1.561 . S
C1028 C1025 1.526 . S
C1028 C1029 1.396 . S
C1028 C1033 1.390 . S
C1029 C1023 1.465 1_455 S
C1029 C1028 1.396 . S
C1029 C1030 1.399 . S
C1030 H1016 0.929 . S
C1030 C1029 1.399 . S
C1030 C1031 1.385 . S
C1031 H1017 0.931 . S
C1031 C1030 1.385 . S
C1031 C1032 1.389 . S
C1032 C1031 1.389 . S
C1032 C1033 1.387 . S
C1033 H1018 0.930 . S
C1033 C1028 1.390 . S
C1033 C1032 1.387 . S
H1034 C1046 0.930 . S
H1035 C1048 0.930 . S
H1036 C1049 0.930 . S
H1037 C1053 0.961 . S
H1038 C1053 0.959 . S
H1039 C1053 0.961 1_565 S
H1040 C1054 0.960 . S
H1041 C1054 0.961 . S
H1042 C1054 0.959 . S
H1043 C1057 0.929 . S
H1044 C1058 0.931 . S
H1045 C1060 0.930 . S
C1046 H1034 0.930 . S
C1046 C1047 1.399 . S
C1046 C1051 1.399 . S
C1047 C1046 1.399 . S
C1047 C1048 1.376 . S
C1048 H1035 0.930 . S
C1048 C1047 1.376 . S
C1048 C1049 1.388 . S
C1049 H1036 0.930 . S
C1049 C1048 1.388 . S
C1049 C1050 1.390 . S
C1050 C1049 1.390 . S
C1050 C1051 1.394 . S
C1050 C1056 1.465 1_565 S
C1051 C1046 1.399 . S
C1051 C1050 1.394 . S
C1051 C1052 1.516 1_565 S
C1052 C1051 1.516 1_545 S
C1052 C1053 1.502 . S
C1052 C1054 1.561 . S
C1052 C1055 1.526 . S
C1053 H1037 0.961 . S
C1053 H1038 0.959 . S
C1053 H1039 0.961 1_545 S
C1053 C1052 1.502 . S
C1054 H1040 0.960 . S
C1054 H1041 0.961 . S
C1054 H1042 0.959 . S
C1054 C1052 1.561 . S
C1055 C1052 1.526 . S
C1055 C1056 1.396 . S
C1055 C1060 1.390 . S
C1056 C1050 1.465 1_545 S
C1056 C1055 1.396 . S
C1056 C1057 1.399 . S
C1057 H1043 0.929 . S
C1057 C1056 1.399 . S
C1057 C1058 1.385 . S
C1058 H1044 0.931 . S
C1058 C1057 1.385 . S
C1058 C1059 1.389 . S
C1059 C1058 1.389 . S
C1059 C1060 1.387 . S
C1060 H1045 0.930 . S
C1060 C1055 1.390 . S
C1060 C1059 1.387 . S
H1061 C1073 0.930 . S
H1062 C1075 0.930 . S
H1063 C1076 0.930 . S
H1064 C1080 0.959 . S
H1065 C1080 0.959 . S
H1066 C1080 0.961 . S
H1067 C1081 0.960 . S
H1068 C1081 0.961 1_655 S
H1069 C1081 0.959 1_655 S
H1070 C1084 0.929 . S
H1071 C1085 0.931 . S
H1072 C1087 0.930 . S
C1073 H1061 0.930 . S
C1073 C1074 1.399 . S
C1073 C1078 1.399 . S
C1074 C1073 1.399 . S
C1074 C1075 1.376 . S
C1075 H1062 0.930 . S
C1075 C1074 1.376 . S
C1075 C1076 1.388 . S
C1076 H1063 0.930 . S
C1076 C1075 1.388 . S
C1076 C1077 1.390 . S
C1077 C1076 1.390 . S
C1077 C1078 1.394 . S
C1077 C1083 1.465 1_455 S
C1078 C1073 1.399 . S
C1078 C1077 1.394 . S
C1078 C1079 1.516 . S
C1079 C1078 1.516 . S
C1079 C1080 1.502 . S
C1079 C1081 1.561 . S
C1079 C1082 1.526 1_455 S
C1080 H1064 0.959 . S
C1080 H1065 0.959 . S
C1080 H1066 0.961 . S
C1080 C1079 1.502 . S
C1081 H1067 0.960 . S
C1081 H1068 0.961 1_455 S
C1081 H1069 0.959 1_455 S
C1081 C1079 1.561 . S
C1082 C1079 1.526 1_655 S
C1082 C1083 1.396 . S
C1082 C1087 1.390 . S
C1083 C1077 1.465 1_655 S
C1083 C1082 1.396 . S
C1083 C1084 1.399 . S
C1084 H1070 0.929 . S
C1084 C1083 1.399 . S
C1084 C1085 1.385 . S
C1085 H1071 0.931 . S
C1085 C1084 1.385 . S
C1085 C1086 1.389 . S
C1086 C1085 1.389 . S
C1086 C1087 1.387 . S
C1087 H1072 0.930 . S
C1087 C1082 1.390 . S
C1087 C1086 1.387 . S
C237 C81 1.320 . S
C249 C11 1.313 . S
C264 C95 1.302 . S
C276 C25 1.295 . S
C291 C39 1.304 . S
C303 C109 1.295 . S
C318 C53 1.307 . S
C330 C67 1.296 . S
C345 C193 1.319 . S
C357 C123 1.309 . S
C372 C207 1.316 . S
C384 C137 1.320 . S
C399 C151 1.309 . S
C411 C221 1.298 . S
C426 C165 1.302 . S
C438 C179 1.315 . S
C453 C153 1.406 . S
C465 C13 1.390 . S
C480 C167 1.344 . S
C492 C27 1.357 . S
C507 C125 1.422 . S
C519 C41 1.407 . S
C534 C55 1.381 . S
C546 C139 1.399 . S
C561 C209 1.375 . S
C573 C69 1.393 . S
C588 C223 1.335 . S
C600 C83 1.333 . S
C615 C97 1.334 . S
C627 C181 1.333 . S
C642 C195 1.443 . S
C654 C111 1.443 . S
C669 C64 1.572 . S
C681 C8 1.600 . S
C696 C22 1.548 . S
C708 C78 1.587 . S
C723 C36 1.600 . S
C735 C92 1.576 . S
C750 C106 1.600 . S
C762 C50 1.567 . S
C777 C119 1.185 . S
C789 C175 1.229 . S
C804 C189 1.222 . S
C816 C133 1.241 . S
C831 C147 1.184 . S
C843 C203 1.223 . S
C858 C217 1.210 . S
C870 C161 1.188 . S
C885 C162 1.555 . S
C897 C190 1.595 . S
C912 C120 1.600 . S
C924 C204 1.579 . S
C939 C218 1.563 . S
C951 C134 1.599 . S
C966 C148 1.600 . S
C978 C176 1.578 . S
C993 C77 1.185 . S
C1005 C49 1.227 . S
C1020 C91 1.230 . S
C1032 C7 1.186 . S
C1047 C105 1.239 . S
C1059 C21 1.226 . S
C1074 C63 1.201 . S
C1086 C35 1.244 . S
