# Generated by pormake.
# Topology uoc, (4)-cn, num edge types: 1
# Building blocks:
#     Node 0, Type 0, BuildingBlock: QUQFOY_clean_sbu_3, # of connection points: 4
#     Node 1, Type 0, BuildingBlock: QUQFOY_clean_sbu_3, # of connection points: 4
#     Node 2, Type 0, BuildingBlock: QUQFOY_clean_sbu_3, # of connection points: 4
#     Node 3, Type 0, BuildingBlock: QUQFOY_clean_sbu_3, # of connection points: 4
#     Node 4, Type 0, BuildingBlock: QUQFOY_clean_sbu_3, # of connection points: 4
#     Node 5, Type 0, BuildingBlock: QUQFOY_clean_sbu_3, # of connection points: 4
#     Node 6, Type 0, BuildingBlock: QUQFOY_clean_sbu_3, # of connection points: 4
#     Node 7, Type 0, BuildingBlock: QUQFOY_clean_sbu_3, # of connection points: 4
#     Edge 8, Type (0, 0), BuildingBlock: AJUNOK_clean_linker_0, # of connection points: 2
#     Edge 9, Type (0, 0), BuildingBlock: AJUNOK_clean_linker_0, # of connection points: 2
#     Edge 10, Type (0, 0), BuildingBlock: AJUNOK_clean_linker_0, # of connection points: 2
#     Edge 11, Type (0, 0), BuildingBlock: AJUNOK_clean_linker_0, # of connection points: 2
#     Edge 12, Type (0, 0), BuildingBlock: AJUNOK_clean_linker_0, # of connection points: 2
#     Edge 13, Type (0, 0), BuildingBlock: AJUNOK_clean_linker_0, # of connection points: 2
#     Edge 14, Type (0, 0), BuildingBlock: AJUNOK_clean_linker_0, # of connection points: 2
#     Edge 15, Type (0, 0), BuildingBlock: AJUNOK_clean_linker_0, # of connection points: 2
#     Edge 16, Type (0, 0), BuildingBlock: AJUNOK_clean_linker_0, # of connection points: 2
#     Edge 17, Type (0, 0), BuildingBlock: AJUNOK_clean_linker_0, # of connection points: 2
#     Edge 18, Type (0, 0), BuildingBlock: AJUNOK_clean_linker_0, # of connection points: 2
#     Edge 19, Type (0, 0), BuildingBlock: AJUNOK_clean_linker_0, # of connection points: 2
#     Edge 20, Type (0, 0), BuildingBlock: AJUNOK_clean_linker_0, # of connection points: 2
#     Edge 21, Type (0, 0), BuildingBlock: AJUNOK_clean_linker_0, # of connection points: 2
#     Edge 22, Type (0, 0), BuildingBlock: AJUNOK_clean_linker_0, # of connection points: 2
#     Edge 23, Type (0, 0), BuildingBlock: AJUNOK_clean_linker_0, # of connection points: 2
# Relax obj value: 0.101
# Max RMSD: 0.112
# Mean RMSD: 0.112
data_MOF--net-uoc--node1-QUQFOY_clean_sbu_3--edge1-AJUNOK_clean_linker_0
_symmetry_space_group_name_H-M    P1
_symmetry_Int_Tables_number       1
_symmetry_cell_setting            triclinic
loop_
_symmetry_equiv_pos_as_xyz
'x, y, z'
_cell_length_a     20.521887
_cell_length_b     20.488487
_cell_length_c     42.813492
_cell_angle_alpha  89.93232
_cell_angle_beta   90.238409
_cell_angle_gamma 96.345493
loop_
_atom_site_label
_atom_site_type_symbol
_atom_site_fract_x
_atom_site_fract_y
_atom_site_fract_z
_atom_type_partial_charge
C0 C 0.25713 0.25943 0.03814 0.0
O1 O 0.28917 0.22093 0.05371 0.0
Cd2 Cd 0.24792 0.17787 0.10262 0.0
O3 O 0.20508 0.27809 0.04931 0.0
Cd4 Cd 0.14122 0.26778 0.09718 0.0
C5 C 0.09239 0.11032 0.08305 0.0
O6 O 0.22651 0.26578 0.13684 0.0
O7 O 0.12781 0.22783 0.15003 0.0
O8 O 0.13733 0.38582 0.09754 0.0
C9 C 0.18625 0.24668 0.15824 0.0
O10 O 0.14984 0.10092 0.09213 0.0
C11 C 0.0753 0.38289 0.09795 0.0
O12 O 0.07667 0.16831 0.08031 0.0
O13 O 0.04382 0.32592 0.09775 0.0
C14 C 0.75635 0.75674 0.4049 0.0
O15 O 0.71675 0.78869 0.38999 0.0
Cd16 Cd 0.67163 0.74864 0.34107 0.0
O17 O 0.77388 0.7043 0.39349 0.0
Cd18 Cd 0.75895 0.63854 0.34626 0.0
C19 C 0.60014 0.59501 0.36047 0.0
O20 O 0.75964 0.72529 0.30731 0.0
O21 O 0.72181 0.62727 0.29271 0.0
O22 O 0.87572 0.62733 0.34677 0.0
C23 C 0.7411 0.68611 0.28532 0.0
O24 O 0.59167 0.65263 0.35126 0.0
C25 C 0.86884 0.56501 0.34674 0.0
O26 O 0.65767 0.57831 0.36317 0.0
O27 O 0.81049 0.53703 0.34643 0.0
C28 C 0.23236 0.24605 0.54149 0.0
O29 O 0.20319 0.285 0.55804 0.0
Cd30 Cd 0.24889 0.32076 0.60764 0.0
O31 O 0.28476 0.22539 0.5514 0.0
Cd32 Cd 0.35596 0.23339 0.59694 0.0
C33 C 0.40054 0.39393 0.58745 0.0
O34 O 0.27279 0.22588 0.63739 0.0
O35 O 0.37203 0.26012 0.65163 0.0
O36 O 0.36729 0.11698 0.59192 0.0
C37 C 0.31404 0.23853 0.65927 0.0
O38 O 0.3443 0.402 0.59832 0.0
C39 C 0.42945 0.12423 0.59093 0.0
O40 O 0.41562 0.33651 0.5823 0.0
O41 O 0.45723 0.18262 0.59254 0.0
C42 C 0.74551 0.714 0.90376 0.0
O43 O 0.78571 0.68622 0.88733 0.0
Cd44 Cd 0.82163 0.73432 0.83818 0.0
O45 O 0.72456 0.76661 0.89435 0.0
Cd46 Cd 0.73208 0.84097 0.85031 0.0
C47 C 0.89225 0.88676 0.85979 0.0
O48 O 0.72925 0.7621 0.8077 0.0
O49 O 0.76209 0.8637 0.79684 0.0
O50 O 0.61505 0.85017 0.85339 0.0
C51 C 0.74434 0.80599 0.78725 0.0
O52 O 0.90078 0.83084 0.84851 0.0
C53 C 0.62147 0.91191 0.85741 0.0
O54 O 0.83485 0.90114 0.86547 0.0
O55 O 0.67959 0.94039 0.85809 0.0
C56 C 0.75914 0.76599 0.53728 0.0
O57 O 0.79157 0.72951 0.55381 0.0
Cd58 Cd 0.75096 0.69282 0.60394 0.0
O59 O 0.70698 0.7856 0.5479 0.0
Cd60 Cd 0.64047 0.78159 0.59485 0.0
C61 C 0.59579 0.62137 0.5855 0.0
O62 O 0.72646 0.78577 0.63421 0.0
O63 O 0.62776 0.75248 0.64926 0.0
O64 O 0.63486 0.8988 0.59006 0.0
C65 C 0.68689 0.77091 0.65642 0.0
O66 O 0.65365 0.61412 0.59475 0.0
C67 C 0.57277 0.89506 0.59008 0.0
O68 O 0.57827 0.6784 0.58153 0.0
O69 O 0.54201 0.83794 0.59218 0.0
C70 C 0.26411 0.24816 0.90577 0.0
O71 O 0.22804 0.27929 0.88837 0.0
Cd72 Cd 0.19262 0.23566 0.83852 0.0
O73 O 0.28381 0.19496 0.89633 0.0
Cd74 Cd 0.28048 0.12377 0.85072 0.0
C75 C 0.11942 0.0822 0.85903 0.0
O76 O 0.28694 0.20791 0.81055 0.0
O77 O 0.25544 0.1084 0.79581 0.0
O78 O 0.39662 0.11672 0.85838 0.0
C79 C 0.27298 0.16762 0.78845 0.0
O80 O 0.11314 0.13937 0.84851 0.0
C81 C 0.39223 0.05449 0.85824 0.0
O82 O 0.17599 0.06452 0.86407 0.0
O83 O 0.33522 0.02426 0.85478 0.0
C84 C 0.74668 0.71807 0.03536 0.0
O85 O 0.71166 0.75685 0.04877 0.0
Cd86 Cd 0.74475 0.80584 0.0979 0.0
O87 O 0.79867 0.70321 0.04845 0.0
Cd88 Cd 0.85888 0.72237 0.09723 0.0
C89 C 0.89813 0.88198 0.0819 0.0
O90 O 0.7673 0.71975 0.13329 0.0
O91 O 0.86255 0.75904 0.15091 0.0
O92 O 0.87158 0.60616 0.09771 0.0
C93 C 0.80318 0.73853 0.15645 0.0
O94 O 0.83901 0.88854 0.089 0.0
C95 C 0.93369 0.6135 0.09933 0.0
O96 O 0.91767 0.82528 0.081 0.0
O97 O 0.96119 0.67211 0.10025 0.0
C98 C 0.22029 0.24269 0.40918 0.0
O99 O 0.25729 0.20802 0.39434 0.0
Cd100 Cd 0.30102 0.24446 0.3448 0.0
O101 O 0.20339 0.29479 0.397 0.0
Cd102 Cd 0.21346 0.35607 0.34824 0.0
C103 C 0.37226 0.40049 0.36181 0.0
O104 O 0.2126 0.26659 0.31088 0.0
O105 O 0.24896 0.36381 0.29458 0.0
O106 O 0.09612 0.36123 0.34931 0.0
C107 C 0.23021 0.30428 0.28822 0.0
O108 O 0.3798 0.3417 0.35422 0.0
C109 C 0.09931 0.42331 0.34784 0.0
O110 O 0.31521 0.4189 0.36342 0.0
O111 O 0.15629 0.45449 0.34659 0.0
C112 C 0.3161 0.23515 -0.01039 0.0
C113 C 0.27324 0.27319 0.00502 0.0
C114 C 0.31743 0.23228 0.95705 0.0
C115 C 0.27603 0.2674 0.93873 0.0
H116 H 0.34497 0.20316 0.00263 0.0
H117 H 0.34771 0.19851 0.94633 0.0
S118 S 0.16909 0.38872 0.96776 0.0
N119 N 0.19919 0.35769 -0.00037 0.0
N120 N 0.2014 0.35192 0.93825 0.0
C121 C 0.23959 0.31232 0.95375 0.0
C122 C 0.23824 0.31527 -0.013 0.0
C123 C 0.79831 0.75525 0.24404 0.0
C124 C 0.74852 0.70583 0.25244 0.0
C125 C 0.81385 0.76748 0.21269 0.0
C126 C 0.77929 0.73156 0.18874 0.0
H127 H 0.82787 0.78224 0.26179 0.0
H128 H 0.85458 0.80394 0.20723 0.0
S129 S 0.63859 0.60312 0.19862 0.0
N130 N 0.66061 0.62504 0.23457 0.0
N131 N 0.68893 0.64894 0.17543 0.0
C132 C 0.72631 0.68524 0.1968 0.0
C133 C 0.7112 0.67206 0.22876 0.0
C134 C 0.2459 0.18764 0.49149 0.0
C135 C 0.21226 0.23167 0.50881 0.0
C136 C 0.24293 0.18648 0.45892 0.0
C137 C 0.20621 0.22934 0.44253 0.0
H138 H 0.27877 0.1572 0.50295 0.0
H139 H 0.27395 0.15566 0.44663 0.0
S140 S 0.09397 0.3396 0.47718 0.0
N141 N 0.13 0.30866 0.50748 0.0
N142 N 0.12392 0.30611 0.44607 0.0
C143 C 0.16527 0.26691 0.45965 0.0
C144 C 0.16837 0.26814 0.49291 0.0
C145 C 0.68706 0.7441 0.74354 0.0
C146 C 0.73658 0.79218 0.75376 0.0
C147 C 0.67244 0.73637 0.71177 0.0
C148 C 0.70786 0.77545 0.68923 0.0
H149 H 0.65737 0.71435 0.76023 0.0
H150 H 0.6323 0.70036 0.70486 0.0
S151 S 0.84656 0.90379 0.70399 0.0
N152 N 0.82388 0.87652 0.73904 0.0
N153 N 0.79737 0.86084 0.67909 0.0
C154 C 0.75987 0.82121 0.69905 0.0
C155 C 0.77395 0.82994 0.73144 0.0
C156 C 0.26222 0.31774 0.23254 0.0
C157 C 0.22543 0.28166 0.25565 0.0
C158 C 0.25221 0.30317 0.2009 0.0
C159 C 0.20419 0.2529 0.19139 0.0
H160 H 0.29763 0.35883 0.23887 0.0
H161 H 0.27971 0.33386 0.1838 0.0
S162 S 0.09997 0.13941 0.24276 0.0
N163 N 0.14354 0.18957 0.26703 0.0
N164 N 0.12375 0.16309 0.20733 0.0
C165 C 0.16959 0.21415 0.21425 0.0
C166 C 0.18054 0.22827 0.24651 0.0
C167 C 0.73745 0.81856 0.48649 0.0
C168 C 0.77504 0.77796 0.50399 0.0
C169 C 0.73666 0.8165 0.4539 0.0
C170 C 0.77343 0.77372 0.43767 0.0
H171 H 0.7045 0.84863 0.49798 0.0
H172 H 0.70287 0.84462 0.44163 0.0
S173 S 0.89447 0.67211 0.4722 0.0
N174 N 0.86057 0.70458 0.50253 0.0
N175 N 0.85948 0.70101 0.44109 0.0
C176 C 0.81796 0.73974 0.45469 0.0
C177 C 0.81873 0.74182 0.48796 0.0
C178 C 0.33352 0.25887 0.71586 0.0
C179 C 0.29734 0.22419 0.69206 0.0
C180 C 0.32335 0.24181 0.74721 0.0
C181 C 0.27779 0.18854 0.75566 0.0
H182 H 0.37068 0.29885 0.7102 0.0
H183 H 0.35318 0.26894 0.76483 0.0
S184 S 0.16839 0.08411 0.70226 0.0
N185 N 0.21185 0.1364 0.67903 0.0
N186 N 0.19382 0.10327 0.73807 0.0
C187 C 0.24004 0.15454 0.73217 0.0
C188 C 0.24948 0.17274 0.70029 0.0
C189 C 0.78138 0.66791 -0.01399 0.0
C190 C 0.73359 0.69816 0.00255 0.0
C191 C 0.78079 0.6658 0.95339 0.0
C192 C 0.73238 0.69382 0.93633 0.0
H193 H 0.82274 0.65069 -0.00193 0.0
H194 H 0.82197 0.64799 0.94161 0.0
S195 S 0.58516 0.75923 0.96853 0.0
N196 N 0.62829 0.74227 -0.00044 0.0
N197 N 0.6273 0.73819 0.93808 0.0
C198 C 0.67931 0.71531 0.95259 0.0
C199 C 0.67987 0.71753 -0.01419 0.0
C200 C 0.06075 0.98913 0.08029 0.0
C201 C 0.0423 0.05313 0.07825 0.0
C202 C 0.0139 0.9341 0.07992 0.0
C203 C 0.94647 0.94066 0.07772 0.0
H204 H 0.11177 0.98126 0.08318 0.0
H205 H 0.0308 0.88618 0.0827 0.0
S206 S 0.87246 0.09674 0.06774 0.0
N207 N 0.95191 0.11951 0.07085 0.0
N208 N 0.86389 0.01587 0.07036 0.0
C209 C 0.9274 0.00407 0.0739 0.0
C210 C 0.97525 0.06029 0.07408 0.0
C211 C 0.04544 0.52679 0.34673 0.0
C212 C 0.03958 0.45777 0.34759 0.0
C213 C 0.98997 0.56083 0.34648 0.0
C214 C 0.92634 0.52727 0.34703 0.0
H215 H 0.0933 0.55499 0.34627 0.0
H216 H -0.00277 0.614 0.34583 0.0
S217 S 0.88395 0.34636 0.34933 0.0
N218 N 0.96484 0.35683 0.34899 0.0
N219 N 0.86061 0.42087 0.34849 0.0
C220 C 0.91965 0.45819 0.34787 0.0
C221 C 0.97622 0.42346 0.34816 0.0
C222 C 0.43247 0.51535 0.58607 0.0
C223 C 0.45044 0.45134 0.58306 0.0
C224 C 0.47959 0.57023 0.58539 0.0
C225 C 0.54666 0.56328 0.58204 0.0
H226 H 0.38175 0.52325 0.58975 0.0
H227 H 0.46342 0.61828 0.58881 0.0
S228 S 0.61921 0.40728 0.56994 0.0
N229 N 0.53997 0.38475 0.57397 0.0
N230 N 0.62829 0.48805 0.57306 0.0
C231 C 0.56514 0.49994 0.57759 0.0
C232 C 0.51712 0.44398 0.57797 0.0
C233 C 0.50055 0.91651 0.85468 0.0
C234 C 0.56373 0.94886 0.85996 0.0
C235 C 0.44527 0.95082 0.85495 0.0
C236 C 0.45097 0.01885 0.86052 0.0
H237 H 0.49367 0.8644 0.84963 0.0
H238 H 0.3979 0.92389 0.85006 0.0
S239 S 0.60469 0.12564 0.8786 0.0
N240 N 0.62835 0.05215 0.87302 0.0
N241 N 0.52443 0.11668 0.87354 0.0
C242 C 0.51359 0.05148 0.86694 0.0
C243 C 0.56996 0.01649 0.86666 0.0
C244 C 0.93813 0.49236 0.0986 0.0
C245 C 0.97159 0.5561 0.09959 0.0
C246 C 0.97214 0.43688 0.09815 0.0
C247 C 0.04105 0.44277 0.09865 0.0
H248 H 0.88505 0.48501 0.09803 0.0
H249 H 0.94396 0.38897 0.09729 0.0
S250 S 0.1522 0.59862 0.10175 0.0
N251 N 0.07777 0.62198 0.10142 0.0
N252 N 0.14181 0.51762 0.10056 0.0
C253 C 0.0753 0.50622 0.09984 0.0
C254 C 0.04056 0.56285 0.10033 0.0
C255 C 0.42384 0.51675 0.36224 0.0
C256 C 0.43034 0.44951 0.36592 0.0
C257 C 0.47883 0.5637 0.36183 0.0
C258 C 0.54259 0.54544 0.36533 0.0
H259 H 0.37611 0.53321 0.35828 0.0
H260 H 0.4712 0.61448 0.35772 0.0
S261 S 0.58536 0.37641 0.38021 0.0
N262 N 0.50483 0.36758 0.37631 0.0
N263 N 0.60832 0.45565 0.37583 0.0
C264 C 0.54945 0.4787 0.37101 0.0
C265 C 0.49335 0.43082 0.3712 0.0
C266 C 0.43441 0.00312 0.59055 0.0
C267 C 0.46737 0.06702 0.58901 0.0
C268 C 0.46892 0.94795 0.59038 0.0
C269 C 0.53773 0.95437 0.58863 0.0
H270 H 0.38154 0.99548 0.59238 0.0
H271 H 0.44122 0.89985 0.59206 0.0
S272 S 0.64725 0.11078 0.58234 0.0
N273 N 0.57274 0.13357 0.58437 0.0
N274 N 0.63763 0.02981 0.58402 0.0
C275 C 0.57133 0.01796 0.58633 0.0
C276 C 0.53612 0.07424 0.58653 0.0
C277 C 0.01309 0.91903 0.86353 0.0
C278 C 0.94908 0.93744 0.8636 0.0
C279 C 0.06786 0.96628 0.86347 0.0
C280 C 0.06082 0.03386 0.86304 0.0
H281 H 0.02109 0.86767 0.86281 0.0
H282 H 0.11604 0.94946 0.86252 0.0
S283 S 0.90396 0.10818 0.86556 0.0
N284 N 0.88184 0.02826 0.86526 0.0
N285 N 0.98486 0.11688 0.86486 0.0
C286 C -0.00282 0.05304 0.86437 0.0
C287 C 0.94133 0.00491 0.86477 0.0
loop_
_geom_bond_atom_site_label_1
_geom_bond_atom_site_label_2
_geom_bond_distance
_geom_bond_site_symmetry_2
_ccdc_geom_bond_type
C0 O1 1.306 . S
C0 O3 1.160 . S
O1 C0 1.306 . S
O1 Cd2 2.228 . S
Cd2 O1 2.228 . S
Cd2 O6 2.273 . S
Cd2 O10 2.277 . S
O3 C0 1.160 . S
O3 Cd4 2.203 . S
Cd4 O3 2.203 . S
Cd4 O6 2.411 . S
Cd4 O7 2.333 . S
Cd4 O8 2.352 . S
Cd4 O12 2.277 . S
Cd4 O13 2.356 . S
C5 O10 1.209 . S
C5 O12 1.226 . S
O6 Cd2 2.273 . S
O6 Cd4 2.411 . S
O6 C9 1.320 . S
O7 Cd4 2.333 . S
O7 C9 1.214 . S
O8 Cd4 2.352 . S
O8 C11 1.258 . S
C9 O6 1.320 . S
C9 O7 1.214 . S
O10 Cd2 2.277 . S
O10 C5 1.209 . S
C11 O8 1.258 . S
C11 O13 1.282 . S
O12 Cd4 2.277 . S
O12 C5 1.226 . S
O13 Cd4 2.356 . S
O13 C11 1.282 . S
C14 O15 1.306 . S
C14 O17 1.160 . S
O15 C14 1.306 . S
O15 Cd16 2.228 . S
Cd16 O15 2.228 . S
Cd16 O20 2.273 . S
Cd16 O24 2.277 . S
O17 C14 1.160 . S
O17 Cd18 2.203 . S
Cd18 O17 2.203 . S
Cd18 O20 2.411 . S
Cd18 O21 2.333 . S
Cd18 O22 2.352 . S
Cd18 O26 2.277 . S
Cd18 O27 2.356 . S
C19 O24 1.209 . S
C19 O26 1.226 . S
O20 Cd16 2.273 . S
O20 Cd18 2.411 . S
O20 C23 1.320 . S
O21 Cd18 2.333 . S
O21 C23 1.214 . S
O22 Cd18 2.352 . S
O22 C25 1.258 . S
C23 O20 1.320 . S
C23 O21 1.214 . S
O24 Cd16 2.277 . S
O24 C19 1.209 . S
C25 O22 1.258 . S
C25 O27 1.282 . S
O26 Cd18 2.277 . S
O26 C19 1.226 . S
O27 Cd18 2.356 . S
O27 C25 1.282 . S
C28 O29 1.306 . S
C28 O31 1.160 . S
O29 C28 1.306 . S
O29 Cd30 2.228 . S
Cd30 O29 2.228 . S
Cd30 O34 2.273 . S
Cd30 O38 2.277 . S
O31 C28 1.160 . S
O31 Cd32 2.203 . S
Cd32 O31 2.203 . S
Cd32 O34 2.411 . S
Cd32 O35 2.333 . S
Cd32 O36 2.352 . S
Cd32 O40 2.277 . S
Cd32 O41 2.356 . S
C33 O38 1.209 . S
C33 O40 1.226 . S
O34 Cd30 2.273 . S
O34 Cd32 2.411 . S
O34 C37 1.320 . S
O35 Cd32 2.333 . S
O35 C37 1.214 . S
O36 Cd32 2.352 . S
O36 C39 1.258 . S
C37 O34 1.320 . S
C37 O35 1.214 . S
O38 Cd30 2.277 . S
O38 C33 1.209 . S
C39 O36 1.258 . S
C39 O41 1.282 . S
O40 Cd32 2.277 . S
O40 C33 1.226 . S
O41 Cd32 2.356 . S
O41 C39 1.282 . S
C42 O43 1.306 . S
C42 O45 1.160 . S
O43 C42 1.306 . S
O43 Cd44 2.228 . S
Cd44 O43 2.228 . S
Cd44 O48 2.273 . S
Cd44 O52 2.277 . S
O45 C42 1.160 . S
O45 Cd46 2.203 . S
Cd46 O45 2.203 . S
Cd46 O48 2.411 . S
Cd46 O49 2.333 . S
Cd46 O50 2.352 . S
Cd46 O54 2.277 . S
Cd46 O55 2.356 . S
C47 O52 1.209 . S
C47 O54 1.226 . S
O48 Cd44 2.273 . S
O48 Cd46 2.411 . S
O48 C51 1.320 . S
O49 Cd46 2.333 . S
O49 C51 1.214 . S
O50 Cd46 2.352 . S
O50 C53 1.258 . S
C51 O48 1.320 . S
C51 O49 1.214 . S
O52 Cd44 2.277 . S
O52 C47 1.209 . S
C53 O50 1.258 . S
C53 O55 1.282 . S
O54 Cd46 2.277 . S
O54 C47 1.226 . S
O55 Cd46 2.356 . S
O55 C53 1.282 . S
C56 O57 1.306 . S
C56 O59 1.160 . S
O57 C56 1.306 . S
O57 Cd58 2.228 . S
Cd58 O57 2.228 . S
Cd58 O62 2.273 . S
Cd58 O66 2.277 . S
O59 C56 1.160 . S
O59 Cd60 2.203 . S
Cd60 O59 2.203 . S
Cd60 O62 2.411 . S
Cd60 O63 2.333 . S
Cd60 O64 2.352 . S
Cd60 O68 2.277 . S
Cd60 O69 2.356 . S
C61 O66 1.209 . S
C61 O68 1.226 . S
O62 Cd58 2.273 . S
O62 Cd60 2.411 . S
O62 C65 1.320 . S
O63 Cd60 2.333 . S
O63 C65 1.214 . S
O64 Cd60 2.352 . S
O64 C67 1.258 . S
C65 O62 1.320 . S
C65 O63 1.214 . S
O66 Cd58 2.277 . S
O66 C61 1.209 . S
C67 O64 1.258 . S
C67 O69 1.282 . S
O68 Cd60 2.277 . S
O68 C61 1.226 . S
O69 Cd60 2.356 . S
O69 C67 1.282 . S
C70 O71 1.306 . S
C70 O73 1.160 . S
O71 C70 1.306 . S
O71 Cd72 2.228 . S
Cd72 O71 2.228 . S
Cd72 O76 2.273 . S
Cd72 O80 2.277 . S
O73 C70 1.160 . S
O73 Cd74 2.203 . S
Cd74 O73 2.203 . S
Cd74 O76 2.411 . S
Cd74 O77 2.333 . S
Cd74 O78 2.352 . S
Cd74 O82 2.277 . S
Cd74 O83 2.356 . S
C75 O80 1.209 . S
C75 O82 1.226 . S
O76 Cd72 2.273 . S
O76 Cd74 2.411 . S
O76 C79 1.320 . S
O77 Cd74 2.333 . S
O77 C79 1.214 . S
O78 Cd74 2.352 . S
O78 C81 1.258 . S
C79 O76 1.320 . S
C79 O77 1.214 . S
O80 Cd72 2.277 . S
O80 C75 1.209 . S
C81 O78 1.258 . S
C81 O83 1.282 . S
O82 Cd74 2.277 . S
O82 C75 1.226 . S
O83 Cd74 2.356 . S
O83 C81 1.282 . S
C84 O85 1.306 . S
C84 O87 1.160 . S
O85 C84 1.306 . S
O85 Cd86 2.228 . S
Cd86 O85 2.228 . S
Cd86 O90 2.273 . S
Cd86 O94 2.277 . S
O87 C84 1.160 . S
O87 Cd88 2.203 . S
Cd88 O87 2.203 . S
Cd88 O90 2.411 . S
Cd88 O91 2.333 . S
Cd88 O92 2.352 . S
Cd88 O96 2.277 . S
Cd88 O97 2.356 . S
C89 O94 1.209 . S
C89 O96 1.226 . S
O90 Cd86 2.273 . S
O90 Cd88 2.411 . S
O90 C93 1.320 . S
O91 Cd88 2.333 . S
O91 C93 1.214 . S
O92 Cd88 2.352 . S
O92 C95 1.258 . S
C93 O90 1.320 . S
C93 O91 1.214 . S
O94 Cd86 2.277 . S
O94 C89 1.209 . S
C95 O92 1.258 . S
C95 O97 1.282 . S
O96 Cd88 2.277 . S
O96 C89 1.226 . S
O97 Cd88 2.356 . S
O97 C95 1.282 . S
C98 O99 1.306 . S
C98 O101 1.160 . S
O99 C98 1.306 . S
O99 Cd100 2.228 . S
Cd100 O99 2.228 . S
Cd100 O104 2.273 . S
Cd100 O108 2.277 . S
O101 C98 1.160 . S
O101 Cd102 2.203 . S
Cd102 O101 2.203 . S
Cd102 O104 2.411 . S
Cd102 O105 2.333 . S
Cd102 O106 2.352 . S
Cd102 O110 2.277 . S
Cd102 O111 2.356 . S
C103 O108 1.209 . S
C103 O110 1.226 . S
O104 Cd100 2.273 . S
O104 Cd102 2.411 . S
O104 C107 1.320 . S
O105 Cd102 2.333 . S
O105 C107 1.214 . S
O106 Cd102 2.352 . S
O106 C109 1.258 . S
C107 O104 1.320 . S
C107 O105 1.214 . S
O108 Cd100 2.277 . S
O108 C103 1.209 . S
C109 O106 1.258 . S
C109 O111 1.282 . S
O110 Cd102 2.277 . S
O110 C103 1.226 . S
O111 Cd102 2.356 . S
O111 C109 1.282 . S
C112 C113 1.369 . S
C112 C114 1.419 1_554 S
C112 H116 0.930 . S
C113 C112 1.369 . S
C113 C122 1.429 . S
C114 C112 1.419 1_556 S
C114 C115 1.363 . S
C114 H117 0.929 . S
C115 C114 1.363 . S
C115 C121 1.428 . S
H116 C112 0.930 . S
H117 C114 0.929 . S
S118 N119 1.613 1_556 S
S118 N120 1.610 . S
N119 S118 1.613 1_554 S
N119 C122 1.350 . S
N120 S118 1.610 . S
N120 C121 1.351 . S
C121 C115 1.428 . S
C121 N120 1.351 . S
C121 C122 1.434 1_556 S
C122 C113 1.429 . S
C122 N119 1.350 . S
C122 C121 1.434 1_554 S
C123 C124 1.369 . S
C123 C125 1.419 . S
C123 H127 0.930 . S
C124 C123 1.369 . S
C124 C133 1.429 . S
C125 C123 1.419 . S
C125 C126 1.363 . S
C125 H128 0.929 . S
C126 C125 1.363 . S
C126 C132 1.428 . S
H127 C123 0.930 . S
H128 C125 0.929 . S
S129 N130 1.613 . S
S129 N131 1.610 . S
N130 S129 1.613 . S
N130 C133 1.350 . S
N131 S129 1.610 . S
N131 C132 1.351 . S
C132 C126 1.428 . S
C132 N131 1.351 . S
C132 C133 1.434 . S
C133 C124 1.429 . S
C133 N130 1.350 . S
C133 C132 1.434 . S
C134 C135 1.369 . S
C134 C136 1.419 . S
C134 H138 0.930 . S
C135 C134 1.369 . S
C135 C144 1.429 . S
C136 C134 1.419 . S
C136 C137 1.363 . S
C136 H139 0.929 . S
C137 C136 1.363 . S
C137 C143 1.428 . S
H138 C134 0.930 . S
H139 C136 0.929 . S
S140 N141 1.613 . S
S140 N142 1.610 . S
N141 S140 1.613 . S
N141 C144 1.350 . S
N142 S140 1.610 . S
N142 C143 1.351 . S
C143 C137 1.428 . S
C143 N142 1.351 . S
C143 C144 1.434 . S
C144 C135 1.429 . S
C144 N141 1.350 . S
C144 C143 1.434 . S
C145 C146 1.369 . S
C145 C147 1.419 . S
C145 H149 0.930 . S
C146 C145 1.369 . S
C146 C155 1.429 . S
C147 C145 1.419 . S
C147 C148 1.363 . S
C147 H150 0.929 . S
C148 C147 1.363 . S
C148 C154 1.428 . S
H149 C145 0.930 . S
H150 C147 0.929 . S
S151 N152 1.613 . S
S151 N153 1.610 . S
N152 S151 1.613 . S
N152 C155 1.350 . S
N153 S151 1.610 . S
N153 C154 1.351 . S
C154 C148 1.428 . S
C154 N153 1.351 . S
C154 C155 1.434 . S
C155 C146 1.429 . S
C155 N152 1.350 . S
C155 C154 1.434 . S
C156 C157 1.369 . S
C156 C158 1.419 . S
C156 H160 0.930 . S
C157 C156 1.369 . S
C157 C166 1.429 . S
C158 C156 1.419 . S
C158 C159 1.363 . S
C158 H161 0.929 . S
C159 C158 1.363 . S
C159 C165 1.428 . S
H160 C156 0.930 . S
H161 C158 0.929 . S
S162 N163 1.613 . S
S162 N164 1.610 . S
N163 S162 1.613 . S
N163 C166 1.350 . S
N164 S162 1.610 . S
N164 C165 1.351 . S
C165 C159 1.428 . S
C165 N164 1.351 . S
C165 C166 1.434 . S
C166 C157 1.429 . S
C166 N163 1.350 . S
C166 C165 1.434 . S
C167 C168 1.369 . S
C167 C169 1.419 . S
C167 H171 0.930 . S
C168 C167 1.369 . S
C168 C177 1.429 . S
C169 C167 1.419 . S
C169 C170 1.363 . S
C169 H172 0.929 . S
C170 C169 1.363 . S
C170 C176 1.428 . S
H171 C167 0.930 . S
H172 C169 0.929 . S
S173 N174 1.613 . S
S173 N175 1.610 . S
N174 S173 1.613 . S
N174 C177 1.350 . S
N175 S173 1.610 . S
N175 C176 1.351 . S
C176 C170 1.428 . S
C176 N175 1.351 . S
C176 C177 1.434 . S
C177 C168 1.429 . S
C177 N174 1.350 . S
C177 C176 1.434 . S
C178 C179 1.369 . S
C178 C180 1.419 . S
C178 H182 0.930 . S
C179 C178 1.369 . S
C179 C188 1.429 . S
C180 C178 1.419 . S
C180 C181 1.363 . S
C180 H183 0.929 . S
C181 C180 1.363 . S
C181 C187 1.428 . S
H182 C178 0.930 . S
H183 C180 0.929 . S
S184 N185 1.613 . S
S184 N186 1.610 . S
N185 S184 1.613 . S
N185 C188 1.350 . S
N186 S184 1.610 . S
N186 C187 1.351 . S
C187 C181 1.428 . S
C187 N186 1.351 . S
C187 C188 1.434 . S
C188 C179 1.429 . S
C188 N185 1.350 . S
C188 C187 1.434 . S
C189 C190 1.369 . S
C189 C191 1.419 1_554 S
C189 H193 0.930 . S
C190 C189 1.369 . S
C190 C199 1.429 . S
C191 C189 1.419 1_556 S
C191 C192 1.363 . S
C191 H194 0.929 . S
C192 C191 1.363 . S
C192 C198 1.428 . S
H193 C189 0.930 . S
H194 C191 0.929 . S
S195 N196 1.613 . S
S195 N197 1.610 1_554 S
N196 S195 1.613 . S
N196 C199 1.350 . S
N197 S195 1.610 1_556 S
N197 C198 1.351 . S
C198 C192 1.428 . S
C198 N197 1.351 . S
C198 C199 1.434 1_556 S
C199 C190 1.429 . S
C199 N196 1.350 . S
C199 C198 1.434 1_554 S
C200 C201 1.369 . S
C200 C202 1.419 1_545 S
C200 H204 0.930 . S
C201 C200 1.369 . S
C201 C210 1.429 1_455 S
C202 C200 1.419 1_565 S
C202 C203 1.363 1_455 S
C202 H205 0.929 . S
C203 C202 1.363 1_655 S
C203 C209 1.428 . S
H204 C200 0.930 . S
H205 C202 0.929 . S
S206 N207 1.613 . S
S206 N208 1.610 1_545 S
N207 S206 1.613 . S
N207 C210 1.350 . S
N208 S206 1.610 1_565 S
N208 C209 1.351 . S
C209 C203 1.428 . S
C209 N208 1.351 . S
C209 C210 1.434 1_565 S
C210 C201 1.429 1_655 S
C210 N207 1.350 . S
C210 C209 1.434 1_545 S
C211 C212 1.369 . S
C211 C213 1.419 . S
C211 H215 0.930 . S
C212 C211 1.369 . S
C212 C221 1.429 1_455 S
C213 C211 1.419 . S
C213 C214 1.363 1_455 S
C213 H216 0.929 . S
C214 C213 1.363 1_655 S
C214 C220 1.428 . S
H215 C211 0.930 . S
H216 C213 0.929 . S
S217 N218 1.613 . S
S217 N219 1.610 . S
N218 S217 1.613 . S
N218 C221 1.350 . S
N219 S217 1.610 . S
N219 C220 1.351 . S
C220 C214 1.428 . S
C220 N219 1.351 . S
C220 C221 1.434 . S
C221 C212 1.429 1_655 S
C221 N218 1.350 . S
C221 C220 1.434 . S
C222 C223 1.369 . S
C222 C224 1.419 . S
C222 H226 0.930 . S
C223 C222 1.369 . S
C223 C232 1.429 . S
C224 C222 1.419 . S
C224 C225 1.363 . S
C224 H227 0.929 . S
C225 C224 1.363 . S
C225 C231 1.428 . S
H226 C222 0.930 . S
H227 C224 0.929 . S
S228 N229 1.613 . S
S228 N230 1.610 . S
N229 S228 1.613 . S
N229 C232 1.350 . S
N230 S228 1.610 . S
N230 C231 1.351 . S
C231 C225 1.428 . S
C231 N230 1.351 . S
C231 C232 1.434 . S
C232 C223 1.429 . S
C232 N229 1.350 . S
C232 C231 1.434 . S
C233 C234 1.369 . S
C233 C235 1.419 . S
C233 H237 0.930 . S
C234 C233 1.369 . S
C234 C243 1.429 1_565 S
C235 C233 1.419 . S
C235 C236 1.363 1_565 S
C235 H238 0.929 . S
C236 C235 1.363 1_545 S
C236 C242 1.428 . S
H237 C233 0.930 . S
H238 C235 0.929 . S
S239 N240 1.613 . S
S239 N241 1.610 . S
N240 S239 1.613 . S
N240 C243 1.350 . S
N241 S239 1.610 . S
N241 C242 1.351 . S
C242 C236 1.428 . S
C242 N241 1.351 . S
C242 C243 1.434 . S
C243 C234 1.429 1_545 S
C243 N240 1.350 . S
C243 C242 1.434 . S
C244 C245 1.369 . S
C244 C246 1.419 . S
C244 H248 0.930 . S
C245 C244 1.369 . S
C245 C254 1.429 1_655 S
C246 C244 1.419 . S
C246 C247 1.363 1_655 S
C246 H249 0.929 . S
C247 C246 1.363 1_455 S
C247 C253 1.428 . S
H248 C244 0.930 . S
H249 C246 0.929 . S
S250 N251 1.613 . S
S250 N252 1.610 . S
N251 S250 1.613 . S
N251 C254 1.350 . S
N252 S250 1.610 . S
N252 C253 1.351 . S
C253 C247 1.428 . S
C253 N252 1.351 . S
C253 C254 1.434 . S
C254 C245 1.429 1_455 S
C254 N251 1.350 . S
C254 C253 1.434 . S
C255 C256 1.369 . S
C255 C257 1.419 . S
C255 H259 0.930 . S
C256 C255 1.369 . S
C256 C265 1.429 . S
C257 C255 1.419 . S
C257 C258 1.363 . S
C257 H260 0.929 . S
C258 C257 1.363 . S
C258 C264 1.428 . S
H259 C255 0.930 . S
H260 C257 0.929 . S
S261 N262 1.613 . S
S261 N263 1.610 . S
N262 S261 1.613 . S
N262 C265 1.350 . S
N263 S261 1.610 . S
N263 C264 1.351 . S
C264 C258 1.428 . S
C264 N263 1.351 . S
C264 C265 1.434 . S
C265 C256 1.429 . S
C265 N262 1.350 . S
C265 C264 1.434 . S
C266 C267 1.369 . S
C266 C268 1.419 1_545 S
C266 H270 0.930 . S
C267 C266 1.369 . S
C267 C276 1.429 . S
C268 C266 1.419 1_565 S
C268 C269 1.363 . S
C268 H271 0.929 . S
C269 C268 1.363 . S
C269 C275 1.428 . S
H270 C266 0.930 . S
H271 C268 0.929 . S
S272 N273 1.613 . S
S272 N274 1.610 1_545 S
N273 S272 1.613 . S
N273 C276 1.350 . S
N274 S272 1.610 1_565 S
N274 C275 1.351 . S
C275 C269 1.428 . S
C275 N274 1.351 . S
C275 C276 1.434 1_565 S
C276 C267 1.429 . S
C276 N273 1.350 . S
C276 C275 1.434 1_545 S
C277 C278 1.369 . S
C277 C279 1.419 1_665 S
C277 H281 0.930 . S
C278 C277 1.369 . S
C278 C287 1.429 . S
C279 C277 1.419 1_445 S
C279 C280 1.363 . S
C279 H282 0.929 . S
C280 C279 1.363 . S
C280 C286 1.428 . S
H281 C277 0.930 . S
H282 C279 0.929 . S
S283 N284 1.613 1_455 S
S283 N285 1.610 1_565 S
N284 S283 1.613 1_655 S
N284 C287 1.350 . S
N285 S283 1.610 1_545 S
N285 C286 1.351 . S
C286 C280 1.428 . S
C286 N285 1.351 . S
C286 C287 1.434 1_445 S
C287 C278 1.429 . S
C287 N284 1.350 . S
C287 C286 1.434 1_665 S
C113 C0 1.339 . S
C115 C70 1.339 . S
C124 C23 1.311 . S
C126 C93 1.316 . S
C135 C28 1.337 . S
C137 C98 1.336 . S
C146 C51 1.311 . S
C148 C65 1.316 . S
C157 C107 1.319 . S
C159 C9 1.314 . S
C168 C56 1.335 . S
C170 C14 1.335 . S
C179 C37 1.314 . S
C181 C79 1.311 . S
C190 C84 1.340 . S
C192 C42 1.338 . S
C201 C5 1.572 . S
C203 C89 1.575 . S
C212 C109 1.567 . S
C214 C25 1.563 . S
C223 C33 1.572 . S
C225 C61 1.575 . S
C234 C53 1.564 . S
C236 C81 1.567 . S
C245 C95 1.563 . S
C247 C11 1.567 . S
C256 C103 1.575 . S
C258 C19 1.572 . S
C267 C39 1.562 . S
C269 C67 1.566 . S
C278 C47 1.575 . S
C280 C75 1.574 . S
