# Generated by pormake.
# Topology reo, (8)-cn, num edge types: 1
# Building blocks:
#     Node 0, Type 0, BuildingBlock: TAGTUT_clean_sbu_1, # of connection points: 8
#     Node 1, Type 0, BuildingBlock: TAGTUT_clean_sbu_1, # of connection points: 8
#     Node 2, Type 0, BuildingBlock: TAGTUT_clean_sbu_1, # of connection points: 8
#     Edge 3, Type (0, 0), BuildingBlock: ZUJKAS_clean_linker_0, # of connection points: 2
#     Edge 4, Type (0, 0), BuildingBlock: ZUJKAS_clean_linker_0, # of connection points: 2
#     Edge 5, Type (0, 0), BuildingBlock: ZUJKAS_clean_linker_0, # of connection points: 2
#     Edge 6, Type (0, 0), BuildingBlock: ZUJKAS_clean_linker_0, # of connection points: 2
#     Edge 7, Type (0, 0), BuildingBlock: ZUJKAS_clean_linker_0, # of connection points: 2
#     Edge 8, Type (0, 0), BuildingBlock: ZUJKAS_clean_linker_0, # of connection points: 2
#     Edge 9, Type (0, 0), BuildingBlock: ZUJKAS_clean_linker_0, # of connection points: 2
#     Edge 10, Type (0, 0), BuildingBlock: ZUJKAS_clean_linker_0, # of connection points: 2
#     Edge 11, Type (0, 0), BuildingBlock: ZUJKAS_clean_linker_0, # of connection points: 2
#     Edge 12, Type (0, 0), BuildingBlock: ZUJKAS_clean_linker_0, # of connection points: 2
#     Edge 13, Type (0, 0), BuildingBlock: ZUJKAS_clean_linker_0, # of connection points: 2
#     Edge 14, Type (0, 0), BuildingBlock: ZUJKAS_clean_linker_0, # of connection points: 2
# Relax obj value: 0.185
# Max RMSD: 0.227
# Mean RMSD: 0.181
data_MOF--net-reo--node1-TAGTUT_clean_sbu_1--edge1-ZUJKAS_clean_linker_0
_symmetry_space_group_name_H-M    P1
_symmetry_Int_Tables_number       1
_symmetry_cell_setting            triclinic
loop_
_symmetry_equiv_pos_as_xyz
'x, y, z'
_cell_length_a     26.729216
_cell_length_b     29.425407
_cell_length_c     32.828952
_cell_angle_alpha  91.569711
_cell_angle_beta   89.180327
_cell_angle_gamma 93.148765
loop_
_atom_site_label
_atom_site_type_symbol
_atom_site_fract_x
_atom_site_fract_y
_atom_site_fract_z
_atom_type_partial_charge
C0 C 0.03423 0.83951 0.54292 0.0
C1 C 0.95182 0.86919 0.43465 0.0
C2 C 0.08803 0.00367 0.41377 0.0
Mg3 Mg 0.95325 0.90673 0.52191 0.0
O4 O 0.01237 0.94193 0.51157 0.0
Mg5 Mg 0.06156 0.91697 0.47122 0.0
Mg6 Mg 0.00554 0.00257 0.48822 0.0
O7 O 0.99903 0.06329 0.46488 0.0
Mg8 Mg 0.05862 0.09809 0.45486 0.0
Mg9 Mg 0.95053 0.08835 0.50571 0.0
C10 C 0.92318 1.00122 0.56258 0.0
C11 C 0.89324 0.00731 0.45199 0.0
O12 O 0.06442 0.85684 0.5159 0.0
O13 O 0.99024 0.85347 0.54974 0.0
O14 O 0.99924 0.87806 0.43395 0.0
O15 O 0.92458 0.88083 0.46496 0.0
O16 O 0.91496 0.95785 0.55844 0.0
O17 O 0.95776 0.02301 0.54239 0.0
C18 C 0.11794 0.99882 0.52447 0.0
O19 O 0.07918 0.02224 0.52112 0.0
O20 O 0.12001 0.95884 0.50826 0.0
O21 O 0.9483 0.14905 0.46171 0.0
O22 O 0.02229 0.15221 0.42762 0.0
O23 O 0.01337 0.12625 0.5431 0.0
C24 C 0.9785 0.1665 0.43477 0.0
O25 O 0.0879 0.12299 0.51196 0.0
O26 O 0.09644 0.04701 0.41791 0.0
C27 C 0.06088 0.13462 0.5424 0.0
O28 O 0.05352 0.98199 0.43412 0.0
O29 O 0.93156 0.98324 0.45535 0.0
O30 O 0.89188 0.04729 0.46834 0.0
C31 C 0.53597 0.9716 0.14435 0.0
C32 C 0.39343 0.98765 0.08776 0.0
C33 C 0.46786 0.89998 0.96008 0.0
Mg34 Mg 0.49585 0.04072 0.08433 0.0
O35 O 0.51956 0.99696 0.04707 0.0
Mg36 Mg 0.49293 0.93217 0.05284 0.0
Mg37 Mg 0.50548 0.00342 0.98819 0.0
O38 O 0.49137 0.0098 0.92932 0.0
Mg39 Mg 0.5149 0.96596 0.89205 0.0
Mg40 Mg 0.51783 0.07456 0.92342 0.0
C41 C 0.54271 0.10691 0.01622 0.0
C42 C 0.41609 0.07572 0.97869 0.0
O43 O 0.52391 0.93892 0.11888 0.0
O44 O 0.52968 0.01351 0.13692 0.0
O45 O 0.41617 0.95249 0.07608 0.0
O46 O 0.41628 0.0268 0.09102 0.0
O47 O 0.52564 0.10207 0.05285 0.0
O48 O 0.54384 0.07351 -0.00969 0.0
C49 C 0.59473 0.93097 -0.00234 0.0
O50 O 0.57986 0.96433 0.97706 0.0
O51 O 0.56849 0.91457 0.02727 0.0
O52 O 0.48659 0.06768 0.85746 0.0
O53 O 0.48071 0.99306 0.83959 0.0
O54 O 0.59453 0.05421 0.90007 0.0
C55 C 0.47432 0.03493 0.83211 0.0
O56 O 0.59444 0.97985 0.88525 0.0
O57 O 0.48487 0.90466 0.92343 0.0
C58 C 0.61727 0.01903 0.88843 0.0
O59 O 0.46714 0.93342 0.98596 0.0
O60 O 0.43107 0.04243 -0.00068 0.0
O61 O 0.44226 0.09214 0.94906 0.0
C62 C 0.0752 0.46404 0.84029 0.0
C63 C 0.03235 0.59527 0.88671 0.0
C64 C 0.10657 0.54836 0.02645 0.0
Mg65 Mg 0.98273 0.49893 0.88855 0.0
O66 O 0.02448 0.48475 0.93136 0.0
Mg67 Mg 0.09418 0.51423 0.93273 0.0
Mg68 Mg 1.00322 0.50179 0.98757 0.0
O69 O 0.98206 0.51888 0.04376 0.0
Mg70 Mg 0.0239 0.50448 0.08646 0.0
Mg71 Mg 0.9122 0.48987 0.04254 0.0
C72 C 0.89975 0.45541 0.94874 0.0
C73 C 0.91664 0.57676 0.98318 0.0
O74 O 0.10431 0.47976 0.86884 0.0
O75 O 0.02747 0.46717 0.84192 0.0
O76 O 0.07053 0.57887 0.90263 0.0
O77 O 0.99155 0.57132 0.88144 0.0
O78 O 0.9116 0.46786 0.9124 0.0
O79 O 0.93039 0.46075 0.97841 0.0
C80 C 0.09015 0.42713 -0.00817 0.0
O81 O 0.04732 0.43857 0.00606 0.0
O82 O 0.11372 0.4504 0.96451 0.0
O83 O 0.90245 0.52476 0.10635 0.0
O84 O 0.97949 0.53644 0.13313 0.0
O85 O 0.93543 0.42537 0.07308 0.0
C86 C 0.93185 0.54012 0.13486 0.0
O87 O 0.01467 0.43213 0.09373 0.0
O88 O 0.09501 0.53572 0.06278 0.0
C89 C 0.97347 0.40864 0.08892 0.0
O90 O 0.07584 0.54284 -0.00313 0.0
O91 O 0.95938 0.56506 0.96902 0.0
O92 O 0.8929 0.55367 0.01054 0.0
H93 H 0.0436 0.36142 0.12748 0.0
H94 H 0.0257 0.30579 0.18011 0.0
H95 H 0.86858 0.3019 0.1514 0.0
H96 H 0.88593 0.35736 0.09853 0.0
H97 H 0.89283 0.33507 0.23096 0.0
H98 H 0.97907 0.17141 0.19609 0.0
H99 H 0.01991 0.22002 0.18465 0.0
H100 H 0.96266 0.20978 0.15691 0.0
C101 C 0.0055 0.34748 0.13122 0.0
C102 C 0.96604 0.36481 0.10966 0.0
C103 C 0.99535 0.31545 0.16121 0.0
C104 C 0.94575 0.30015 0.16977 0.0
C105 C 0.90705 0.31349 0.14522 0.0
H106 H 0.8844 0.16777 0.40411 0.0
H107 H 0.86316 0.20218 0.33973 0.0
C108 C 0.91718 0.34522 0.115 0.0
C109 C 0.93397 0.27815 0.20883 0.0
H110 H 0.96868 0.19194 0.26754 0.0
C111 C 0.90806 0.30305 0.23873 0.0
C112 C 0.95397 0.23655 0.21874 0.0
C113 C 0.98005 0.20764 0.18727 0.0
C114 C 0.90512 0.28907 0.27921 0.0
C115 C 0.9284 0.24931 0.28959 0.0
C116 C 0.95113 0.22268 0.25921 0.0
C117 C 0.93558 0.23763 0.33227 0.0
C118 C 0.88034 0.31822 0.31122 0.0
C119 C 0.98229 0.2483 0.3499 0.0
C120 C 0.9945 0.22882 0.38634 0.0
C121 C 0.96005 0.19847 0.40562 0.0
C122 C 0.91141 0.19147 0.39003 0.0
C123 C 0.89935 0.21072 0.35319 0.0
H124 H 0.86113 0.34669 0.29778 0.0
H125 H 0.8526 0.29708 0.32896 0.0
H126 H 0.90903 0.33259 0.33283 0.0
H127 H 0.01052 0.26918 0.334 0.0
H128 H 0.03219 0.23473 0.3978 0.0
H129 H 0.88533 0.92924 0.40457 0.0
H130 H 0.81696 0.9037 0.35948 0.0
H131 H 0.73786 0.02293 0.39432 0.0
H132 H 0.80439 0.04691 0.44141 0.0
H133 H 0.67399 0.94932 0.38542 0.0
H134 H 0.80347 0.96136 0.25136 0.0
H135 H 0.81982 0.92148 0.28866 0.0
H136 H 0.82203 0.98137 0.30154 0.0
C137 C 0.8528 0.94927 0.40354 0.0
C138 C 0.85043 0.98994 0.42678 0.0
C139 C 0.81402 0.93501 0.37724 0.0
C140 C 0.77279 0.96192 0.37285 0.0
C141 C 0.7694 1.00166 0.39712 0.0
H142 H 0.54857 0.02616 0.21241 0.0
H143 H 0.60062 0.01341 0.27103 0.0
C144 C 0.8077 0.01547 0.42389 0.0
C145 C 0.73455 0.95083 0.34133 0.0
H146 H 0.71878 0.94303 0.23831 0.0
C147 C 0.68382 0.9474 0.35327 0.0
C148 C 0.74744 0.94827 0.29934 0.0
C149 C 0.80106 0.95367 0.2843 0.0
C150 C 0.64561 0.9432 0.32432 0.0
C151 C 0.65856 0.94246 0.28247 0.0
C152 C 0.70916 0.94341 0.27053 0.0
C153 C 0.62084 0.9463 0.25046 0.0
C154 C 0.59169 0.94074 0.33861 0.0
C155 C 0.6147 0.91259 0.21964 0.0
C156 C 0.58483 0.91973 0.18602 0.0
C157 C 0.56145 0.9611 0.1824 0.0
C158 C 0.56623 0.99402 0.21417 0.0
C159 C 0.59562 0.98665 0.24789 0.0
H160 H 0.58795 0.92875 0.37036 0.0
H161 H 0.5769 0.97521 0.33786 0.0
H162 H 0.56828 0.91766 0.31839 0.0
H163 H 0.63434 0.88143 0.22096 0.0
H164 H 0.58206 0.89376 0.16201 0.0
H165 H 0.85465 0.83451 0.42862 0.0
H166 H 0.82062 0.78068 0.37651 0.0
H167 H 0.96247 0.78843 0.31213 0.0
H168 H 0.99655 0.84248 0.36337 0.0
H169 H 0.87658 0.78474 0.26095 0.0
H170 H 0.86913 0.64933 0.37693 0.0
H171 H 0.83513 0.69954 0.38734 0.0
H172 H 0.90235 0.70362 0.38594 0.0
C173 C 0.87838 0.82527 0.40303 0.0
C174 C 0.92868 0.84205 0.40058 0.0
C175 C 0.85884 0.79449 0.37337 0.0
C176 C 0.88936 0.78006 0.34099 0.0
C177 C 0.9384 0.79907 0.33705 0.0
H178 H 0.97766 0.56542 0.20613 0.0
H179 H 0.95003 0.62036 0.25723 0.0
C180 C 0.95791 0.82978 0.36653 0.0
C181 C 0.87299 0.74204 0.31313 0.0
H182 H 0.863 0.62593 0.30856 0.0
C183 C 0.8721 0.75002 0.27125 0.0
C184 C 0.86732 0.6969 0.32695 0.0
C185 C 0.86868 0.68645 0.37168 0.0
C186 C 0.86978 0.71379 0.24256 0.0
C187 C 0.86771 0.66859 0.25637 0.0
C188 C 0.86441 0.6607 0.29827 0.0
C189 C 0.87915 0.63014 0.22855 0.0
C190 C 0.87394 0.72409 0.1978 0.0
C191 C 0.84752 0.61619 0.19633 0.0
C192 C 0.86331 0.58466 0.16684 0.0
C193 C 0.91102 0.56689 0.16923 0.0
C194 C 0.94099 0.57882 0.20309 0.0
C195 C 0.92515 0.61008 0.23246 0.0
H196 H 0.87996 0.76113 0.19248 0.0
H197 H 0.90546 0.70619 0.18344 0.0
H198 H 0.83899 0.71166 0.18231 0.0
H199 H 0.81158 0.63093 0.19317 0.0
H200 H 0.83924 0.57601 0.1412 0.0
H201 H 0.33821 0.04927 0.13006 0.0
H202 H 0.26615 0.03087 0.17413 0.0
H203 H 0.25947 0.89243 0.12713 0.0
H204 H 0.33195 0.91024 0.08312 0.0
H205 H 0.16599 0.9868 0.16958 0.0
H206 H 0.30503 0.8852 0.2473 0.0
H207 H 0.32375 0.92494 0.20837 0.0
H208 H 0.29174 0.8716 0.1947 0.0
C209 C 0.32055 0.01527 0.12806 0.0
C210 C 0.34182 0.98086 0.10411 0.0
C211 C 0.27923 0.00482 0.15322 0.0
C212 C 0.25853 0.96001 0.15456 0.0
C213 C 0.27567 0.92699 0.127 0.0
H214 H 0.05398 0.92977 0.36786 0.0
H215 H 0.08965 0.90397 0.30237 0.0
C216 C 0.31711 0.93733 0.1019 0.0
C217 C 0.22577 0.94698 0.18938 0.0
H218 H 0.23254 0.90197 0.28377 0.0
C219 C 0.17959 0.96701 0.1941 0.0
C220 C 0.24405 0.92129 0.22131 0.0
C221 C 0.29392 0.89959 0.21805 0.0
C222 C 0.15285 0.96472 0.23113 0.0
C223 C 0.17308 0.94196 0.26395 0.0
C224 C 0.21722 0.91903 0.25824 0.0
C225 C 0.15518 0.95031 0.30597 0.0
C226 C 0.10537 0.98987 0.23621 0.0
C227 C 0.18154 0.98329 0.33007 0.0
C228 C 0.16135 0.99819 0.36705 0.0
C229 C 0.11467 0.97997 0.38068 0.0
C230 C 0.09023 0.94415 0.35813 0.0
C231 C 0.11027 0.92961 0.32068 0.0
H232 H 0.09414 0.00525 0.20742 0.0
H233 H 0.07438 0.96618 0.24668 0.0
H234 H 0.11068 0.01733 0.25988 0.0
H235 H 0.21638 0.99948 0.31909 0.0
H236 H 0.18099 0.02568 0.38394 0.0
H237 H 0.12725 0.84119 0.57594 0.0
H238 H 0.14696 0.8084 0.64142 0.0
H239 H 1.00163 0.73723 0.64371 0.0
H240 H 0.98154 0.77007 0.57882 0.0
H241 H 0.03299 0.81293 0.71027 0.0
H242 H 0.15924 0.66963 0.6858 0.0
H243 H 0.16634 0.72037 0.65602 0.0
H244 H 0.11375 0.681 0.64773 0.0
C245 C 0.10051 0.81688 0.58953 0.0
C246 C 0.05277 0.80823 0.57262 0.0
C247 C 0.11165 0.79856 0.62701 0.0
C248 C 0.07541 0.771 0.64729 0.0
C249 C 0.02985 0.75867 0.62837 0.0
H250 H 0.96252 0.64045 0.84589 0.0
H251 H 0.98088 0.69793 0.79509 0.0
C252 C 0.01855 0.77718 0.59128 0.0
C253 C 0.08112 0.76004 0.69035 0.0
H254 H 0.12212 0.6783 0.75094 0.0
C255 C 0.05336 0.78411 0.71953 0.0
C256 C 0.10831 0.72302 0.70207 0.0
C257 C 0.13881 0.6968 0.67147 0.0
C258 C 0.04922 0.76996 0.75987 0.0
C259 C 0.0729 0.73048 0.77086 0.0
C260 C 0.10394 0.70862 0.74238 0.0
C261 C 0.05986 0.70682 0.80895 0.0
C262 C 0.0179 0.79621 0.78987 0.0
C263 C 0.09767 0.6944 0.83488 0.0
C264 C 0.08729 0.66136 0.86395 0.0
C265 C 0.0391 0.6397 0.86687 0.0
C266 C 1.00015 0.65599 0.84403 0.0
C267 C 0.01055 0.68915 0.8151 0.0
H268 H 0.01783 0.83267 0.78191 0.0
H269 H 0.97859 0.78201 0.78894 0.0
H270 H 0.03172 0.79384 0.82144 0.0
H271 H 0.13591 0.70779 0.83062 0.0
H272 H 0.11809 0.65009 0.8815 0.0
H273 H 0.43105 0.11399 0.81345 0.0
H274 H 0.37742 0.12631 0.75528 0.0
H275 H 0.40436 0.99184 0.70752 0.0
H276 H 0.4578 0.97901 0.76535 0.0
H277 H 0.40362 0.072 0.64781 0.0
H278 H 0.23788 0.04649 0.75159 0.0
H279 H 0.28839 0.08603 0.76691 0.0
H280 H 0.29824 0.02626 0.76396 0.0
C281 C 0.42639 0.08736 0.79017 0.0
C282 C 0.44822 0.04528 0.79428 0.0
C283 C 0.39573 0.09449 0.75704 0.0
C284 C 0.38686 0.05984 0.72745 0.0
C285 C 0.41091 0.01894 0.73015 0.0
H286 H 0.21145 0.96627 0.52824 0.0
H287 H 0.27841 0.99104 0.57464 0.0
C288 C 0.44121 0.01163 0.76333 0.0
C289 C 0.34864 0.06385 0.69595 0.0
H290 H 0.22262 0.05014 0.68189 0.0
C291 C 0.36395 0.06799 0.65515 0.0
C292 C 0.29707 0.05891 0.70587 0.0
C293 C 0.27901 0.05399 0.74938 0.0
C294 C 0.32881 0.06585 0.62367 0.0
C295 C 0.27733 0.05798 0.63338 0.0
C296 C 0.26205 0.05611 0.67443 0.0
C297 C 0.2391 0.047 0.6018 0.0
C298 C 0.3473 0.07158 0.5804 0.0
C299 C 0.19416 0.06957 0.60206 0.0
C300 C 0.15521 0.05466 0.57619 0.0
C301 C 0.16056 0.01718 0.54933 0.0
C302 C 0.20612 0.99544 0.54837 0.0
C303 C 0.24481 0.00999 0.57454 0.0
H304 H 0.38227 0.09377 0.57934 0.0
H305 H 0.35605 0.03783 0.56707 0.0
H306 H 0.31878 0.08644 0.56125 0.0
H307 H 0.18859 0.09779 0.62325 0.0
H308 H 0.12019 0.07125 0.57852 0.0
H309 H 0.0295 0.43659 0.76944 0.0
H310 H 0.05865 0.38198 0.71865 0.0
H311 H 0.19818 0.37611 0.78215 0.0
H312 H 0.16905 0.43069 0.83378 0.0
H313 H 0.14593 0.37842 0.667 0.0
H314 H 0.13399 0.24428 0.78418 0.0
H315 H 0.10656 0.29842 0.79284 0.0
H316 H 0.17332 0.29493 0.79385 0.0
C317 C 0.06671 0.42431 0.77241 0.0
C318 C 0.0966 0.43745 0.80603 0.0
C319 C 0.08341 0.39323 0.74323 0.0
C320 C 0.13021 0.37459 0.74707 0.0
C321 C 0.16166 0.38976 0.77904 0.0
H322 H 0.15802 0.16954 0.54805 0.0
H323 H 0.19196 0.22373 0.59993 0.0
C324 C 0.145 0.42109 0.80834 0.0
C325 C 0.1428 0.33625 0.71953 0.0
H326 H 0.13742 0.2201 0.71585 0.0
C327 C 0.14566 0.34379 0.67756 0.0
C328 C 0.14225 0.29125 0.73369 0.0
C329 C 0.13868 0.28133 0.77854 0.0
C330 C 0.14373 0.30731 0.64915 0.0
C331 C 0.13943 0.26226 0.66333 0.0
C332 C 0.14086 0.25475 0.70527 0.0
C333 C 0.12351 0.22375 0.63586 0.0
C334 C 0.14178 0.31724 0.60434 0.0
C335 C 0.07473 0.20424 0.64015 0.0
C336 C 0.05526 0.17337 0.61079 0.0
C337 C 0.08428 0.16145 0.57652 0.0
C338 C 0.13445 0.17854 0.57381 0.0
C339 C 0.15394 0.20952 0.60334 0.0
H340 H 0.14063 0.35425 0.5988 0.0
H341 H 0.17544 0.30447 0.58861 0.0
H342 H 0.10825 0.29946 0.59041 0.0
H343 H 0.05074 0.21472 0.66519 0.0
H344 H 0.01675 0.16039 0.61416 0.0
H345 H 0.67854 0.09659 0.89251 0.0
H346 H 0.75103 0.11412 0.84844 0.0
H347 H 0.74474 0.97528 0.80249 0.0
H348 H 0.67267 0.95715 0.84661 0.0
H349 H 0.84479 0.01961 0.80679 0.0
H350 H 0.70547 0.12006 0.72815 0.0
H351 H 0.7187 0.13419 0.78067 0.0
H352 H 0.68684 0.08067 0.76739 0.0
C353 C 0.69347 0.06936 0.87395 0.0
C354 C 0.66886 0.02577 0.87204 0.0
C355 C 0.73492 0.07954 0.84882 0.0
C356 C 0.75216 0.04631 0.82153 0.0
C357 C 0.73157 1.00148 0.82319 0.0
H358 H 0.83048 0.97854 0.59268 0.0
H359 H 0.79488 0.00498 0.65738 0.0
C360 C 0.69024 0.99119 0.84838 0.0
C361 C 0.7849 0.05908 0.78664 0.0
H362 H 0.77802 0.10308 0.69185 0.0
C363 C 0.83114 0.03911 0.78211 0.0
C364 C 0.76654 0.08438 0.75447 0.0
C365 C 0.71661 0.10598 0.75754 0.0
C366 C 0.85788 0.04109 0.74507 0.0
C367 C 0.83758 0.06345 0.71205 0.0
C368 C 0.79337 0.08633 0.71753 0.0
C369 C 0.85557 0.05479 0.67011 0.0
C370 C 0.90544 0.01602 0.74022 0.0
C371 C 0.90026 0.07575 0.65525 0.0
C372 C 0.92042 0.06106 0.6179 0.0
C373 C 0.89633 0.02485 0.59559 0.0
C374 C 0.84986 0.00633 0.60937 0.0
C375 C 0.82954 0.02136 0.64627 0.0
H376 H 0.9168 1.00109 0.76917 0.0
H377 H 0.90015 0.98823 0.71685 0.0
H378 H 0.93634 0.03963 0.72943 0.0
H379 H 0.92063 0.10173 0.67337 0.0
H380 H 0.95652 0.07569 0.60806 0.0
H381 H 0.18815 0.40871 0.98446 0.0
H382 H 0.22741 0.33847 -0.00165 0.0
H383 H 0.08699 0.28059 0.04486 0.0
H384 H 0.04659 0.35169 0.03038 0.0
H385 H 0.23761 0.28942 0.06976 0.0
H386 H 0.12633 0.19034 0.95194 0.0
H387 H 0.12844 0.25175 0.95471 0.0
H388 H 0.09303 0.21953 -0.00809 0.0
C389 C 0.16534 0.38131 -0.00211 0.0
C390 C 0.1139 0.38575 0.00573 0.0
C391 C 0.18808 0.34109 0.00602 0.0
C392 C 0.16017 0.30391 0.02212 0.0
C393 C 0.10918 0.30861 0.03185 0.0
H394 H 0.36166 0.0761 0.05138 0.0
H395 H 0.29095 0.12305 0.06925 0.0
C396 C 0.0862 0.34934 0.02383 0.0
C397 C 0.18515 0.26018 0.02603 0.0
H398 H 0.19654 0.15699 0.97733 0.0
C399 C 0.22794 0.25987 0.05039 0.0
C400 C 0.17272 0.22182 0.00047 0.0
C401 C 0.12782 0.22055 0.97304 0.0
C402 C 0.26036 0.22375 0.0479 0.0
C403 C 0.24937 0.18648 0.02068 0.0
C404 C 0.20482 0.18542 -0.00167 0.0
C405 C 0.28742 0.15278 0.0098 0.0
C406 C 0.30813 0.22747 0.07202 0.0
C407 C 0.30751 0.15215 0.97013 0.0
C408 C 0.34753 0.12531 0.95994 0.0
C409 C 0.36866 0.0981 -0.01089 0.0
C410 C 0.34661 0.0966 0.02826 0.0
C411 C 0.30636 0.12378 0.03857 0.0
H412 H 0.3142 0.26135 0.08748 0.0
H413 H 0.30646 0.20118 0.09566 0.0
H414 H 0.34091 0.22141 0.05183 0.0
H415 H 0.29357 0.17398 0.94729 0.0
H416 H 0.36293 0.12706 0.92928 0.0
H417 H 0.1955 0.53772 0.06473 0.0
H418 H 0.2747 0.58246 0.05458 0.0
H419 H 0.20521 0.65934 0.96273 0.0
H420 H 0.12777 0.613 0.97086 0.0
H421 H 0.29521 0.64608 0.94028 0.0
H422 H 0.3006 0.70575 0.10243 0.0
H423 H 0.3048 0.64551 0.0949 0.0
H424 H 0.2482 0.67201 0.08194 0.0
C425 C 0.19758 0.5639 0.0421 0.0
C426 C 0.15555 0.57218 0.01875 0.0
C427 C 0.24264 0.58968 0.03656 0.0
C428 C 0.24565 0.62519 0.00869 0.0
C429 C 0.204 0.63224 0.98448 0.0
H430 H 0.3897 0.88405 0.01192 0.0
H431 H 0.34531 0.81141 0.02514 0.0
C432 C 0.15963 0.60574 -0.01084 0.0
C433 C 0.29078 0.65673 0.00531 0.0
H434 H 0.36234 0.73681 0.05867 0.0
C435 C 0.31015 0.66578 0.9662 0.0
C436 C 0.31034 0.68234 0.03923 0.0
C437 C 0.28973 0.67629 0.08193 0.0
C438 C 0.34548 0.70192 0.95953 0.0
C439 C 0.36432 0.72815 -0.00664 0.0
C440 C 0.34784 0.71675 0.03279 0.0
C441 C 0.3954 0.77113 -0.01165 0.0
C442 C 0.35904 0.7135 0.91606 0.0
C443 C 0.43936 0.77284 0.96429 0.0
C444 C 0.46388 0.81476 0.95558 0.0
C445 C 0.44595 0.85532 0.97222 0.0
C446 C 0.40432 0.85325 -0.00127 0.0
C447 C 0.37898 0.81165 0.00635 0.0
H448 H 0.3321 0.69703 0.894 0.0
H449 H 0.35997 0.75084 0.9118 0.0
H450 H 0.39663 0.70125 0.9084 0.0
H451 H 0.45395 0.74197 0.95133 0.0
H452 H 0.49648 0.81553 0.93557 0.0
H453 H 0.51458 0.19064 0.04328 0.0
H454 H 0.55406 0.26496 0.02614 0.0
H455 H 0.65924 0.19797 0.94699 0.0
H456 H 0.61794 0.12459 0.96188 0.0
H457 H 0.63899 0.29777 0.04318 0.0
H458 H 0.63472 0.29869 0.87645 0.0
H459 H 0.59792 0.25687 0.90483 0.0
H460 H 0.66192 0.24712 0.88996 0.0
C461 C 0.54543 0.19211 0.02152 0.0
C462 C 0.56314 0.15201 0.00376 0.0
C463 C 0.56796 0.23452 0.0117 0.0
C464 C 0.60914 0.23743 0.98456 0.0
C465 C 0.62635 0.19717 0.96663 0.0
H466 H 0.87533 0.39434 0.00698 0.0
H467 H 0.79647 0.35065 0.01613 0.0
C468 C 0.60303 0.15502 0.97554 0.0
C469 C 0.63813 0.28139 0.97866 0.0
H470 H 0.70891 0.33888 0.90762 0.0
C471 C 0.65315 0.3074 0.01334 0.0
C472 C 0.65551 0.29544 0.93979 0.0
C473 C 0.63602 0.27324 0.90074 0.0
C474 C 0.68845 0.34424 0.01052 0.0
C475 C 0.71125 0.35392 0.97232 0.0
C476 C 0.69274 0.33078 0.9372 0.0
C477 C 0.7576 0.38388 0.96867 0.0
C478 C 0.70145 0.3717 0.04879 0.0
C479 C 0.76304 0.41625 0.93797 0.0
C480 C 0.80902 0.44035 0.93177 0.0
C481 C 0.85003 0.43289 0.95657 0.0
C482 C 0.84413 0.40144 0.98788 0.0
C483 C 0.79873 0.37669 -0.00659 0.0
H484 H 0.66799 0.37409 0.06906 0.0
H485 H 0.73002 0.3543 0.06589 0.0
H486 H 0.71624 0.40669 0.04194 0.0
H487 H 0.73205 0.42221 0.91825 0.0
H488 H 0.81261 0.46446 0.90742 0.0
H489 H 0.96116 0.65211 0.94523 0.0
H490 H 0.92161 0.72365 0.93093 0.0
H491 H 0.78027 0.66646 0.97623 0.0
H492 H 0.81873 0.59574 -0.01005 0.0
H493 H 0.77125 0.71659 0.9052 0.0
H494 H 0.88257 0.81312 0.02452 0.0
H495 H 0.91589 0.78412 0.98446 0.0
H496 H 0.87976 0.75173 0.02111 0.0
C497 C 0.92152 0.65468 0.95152 0.0
C498 C 0.89333 0.61834 0.96926 0.0
C499 C 0.89903 0.69567 0.94362 0.0
C500 C 0.84803 0.70071 0.9531 0.0
C501 C 0.81962 0.66358 0.96877 0.0
H502 H 0.64716 0.87863 0.04673 0.0
H503 H 0.71602 0.83125 0.02847 0.0
C504 C 0.84188 0.62309 0.9768 0.0
C505 C 0.82363 0.74476 0.94946 0.0
H506 H 0.81318 0.8476 -0.001 0.0
C507 C 0.78112 0.74583 0.92487 0.0
C508 C 0.83633 0.78272 0.97542 0.0
C509 C 0.88093 0.78319 0.00312 0.0
C510 C 0.74918 0.78231 0.92751 0.0
C511 C 0.7604 0.81917 0.95512 0.0
C512 C 0.80473 0.81949 0.9777 0.0
C513 C 0.72269 0.85313 0.96618 0.0
C514 C 0.70165 0.7794 0.90308 0.0
C515 C 0.70423 0.88267 0.93764 0.0
C516 C 0.66426 0.91013 0.9481 0.0
C517 C 0.642 0.90836 0.98717 0.0
C518 C 0.66271 0.88061 0.01614 0.0
C519 C 0.70244 0.8535 0.0058 0.0
H520 H 0.6953 0.74576 0.88726 0.0
H521 H 0.66877 0.78556 0.92313 0.0
H522 H 0.7039 0.806 0.87971 0.0
H523 H 0.7198 0.88364 0.90702 0.0
H524 H 0.64957 0.93108 0.92515 0.0
loop_
_geom_bond_atom_site_label_1
_geom_bond_atom_site_label_2
_geom_bond_distance
_geom_bond_site_symmetry_2
_ccdc_geom_bond_type
C0 O12 1.241 . S
C0 O13 1.280 1_455 S
C1 O14 1.277 1_655 S
C1 O15 1.245 . S
C2 O26 1.247 . S
C2 O28 1.289 1_545 S
Mg3 O4 1.926 . S
Mg3 O13 1.984 . S
Mg3 O15 1.988 . S
Mg3 O16 2.061 . S
O4 Mg3 1.926 . S
O4 Mg5 1.986 1_655 S
O4 Mg6 1.917 1_665 S
Mg5 O4 1.986 1_455 S
Mg5 O12 2.042 . S
Mg5 O14 2.041 . S
Mg5 O20 2.038 . S
Mg5 O28 2.238 . S
Mg6 O4 1.917 1_445 S
Mg6 O7 1.917 . S
Mg6 O17 2.106 1_455 S
Mg6 O19 2.079 . S
Mg6 O28 2.106 1_545 S
Mg6 O29 2.079 1_445 S
O7 Mg6 1.917 . S
O7 Mg8 1.926 . S
O7 Mg9 1.986 1_455 S
Mg8 O7 1.926 . S
Mg8 O22 1.984 . S
Mg8 O25 1.988 . S
Mg8 O26 2.061 . S
Mg9 O7 1.986 1_655 S
Mg9 O17 2.238 . S
Mg9 O21 2.042 . S
Mg9 O23 2.041 . S
Mg9 O30 2.038 . S
C10 O16 1.247 . S
C10 O17 1.289 1_565 S
C11 O29 1.245 1_545 S
C11 O30 1.274 . S
O12 C0 1.241 . S
O12 Mg5 2.042 . S
O13 C0 1.280 1_655 S
O13 Mg3 1.984 . S
O14 C1 1.277 1_455 S
O14 Mg5 2.041 . S
O15 C1 1.245 . S
O15 Mg3 1.988 . S
O16 Mg3 2.061 . S
O16 C10 1.247 . S
O17 Mg6 2.106 1_655 S
O17 Mg9 2.238 . S
O17 C10 1.289 1_545 S
C18 O19 1.245 1_565 S
C18 O20 1.274 . S
O19 Mg6 2.079 . S
O19 C18 1.245 1_545 S
O20 Mg5 2.038 . S
O20 C18 1.274 . S
O21 Mg9 2.042 . S
O21 C24 1.241 . S
O22 Mg8 1.984 . S
O22 C24 1.280 1_455 S
O23 Mg9 2.041 . S
O23 C27 1.277 1_655 S
C24 O21 1.241 . S
C24 O22 1.280 1_655 S
O25 Mg8 1.988 . S
O25 C27 1.245 . S
O26 C2 1.247 . S
O26 Mg8 2.061 . S
C27 O23 1.277 1_455 S
C27 O25 1.245 . S
O28 C2 1.289 1_565 S
O28 Mg5 2.238 . S
O28 Mg6 2.106 1_565 S
O29 Mg6 2.079 1_665 S
O29 C11 1.245 1_565 S
O30 Mg9 2.038 . S
O30 C11 1.274 . S
C31 O43 1.241 . S
C31 O44 1.280 1_565 S
C32 O45 1.277 1_545 S
C32 O46 1.245 . S
C33 O57 1.247 . S
C33 O59 1.289 1_556 S
Mg34 O35 1.926 . S
Mg34 O44 1.984 . S
Mg34 O46 1.988 . S
Mg34 O47 2.061 . S
O35 Mg34 1.926 . S
O35 Mg36 1.986 1_545 S
O35 Mg37 1.917 . S
Mg36 O35 1.986 1_565 S
Mg36 O43 2.042 . S
Mg36 O45 2.041 . S
Mg36 O51 2.038 . S
Mg36 O59 2.238 . S
Mg37 O35 1.917 . S
Mg37 O38 1.917 1_544 S
Mg37 O48 2.106 1_554 S
Mg37 O50 2.079 1_544 S
Mg37 O59 2.106 1_545 S
Mg37 O60 2.079 . S
O38 Mg37 1.917 1_566 S
O38 Mg39 1.926 . S
O38 Mg40 1.986 1_565 S
Mg39 O38 1.926 . S
Mg39 O53 1.984 . S
Mg39 O56 1.988 . S
Mg39 O57 2.061 . S
Mg40 O38 1.986 1_545 S
Mg40 O48 2.238 . S
Mg40 O52 2.042 . S
Mg40 O54 2.041 . S
Mg40 O61 2.038 . S
C41 O47 1.247 . S
C41 O48 1.289 1_554 S
C42 O60 1.245 1_556 S
C42 O61 1.274 . S
O43 C31 1.241 . S
O43 Mg36 2.042 . S
O44 C31 1.280 1_545 S
O44 Mg34 1.984 . S
O45 C32 1.277 1_565 S
O45 Mg36 2.041 . S
O46 C32 1.245 . S
O46 Mg34 1.988 . S
O47 Mg34 2.061 . S
O47 C41 1.247 . S
O48 Mg37 2.106 1_556 S
O48 Mg40 2.238 . S
O48 C41 1.289 1_556 S
C49 O50 1.245 1_554 S
C49 O51 1.274 . S
O50 Mg37 2.079 1_566 S
O50 C49 1.245 1_556 S
O51 Mg36 2.038 . S
O51 C49 1.274 . S
O52 Mg40 2.042 . S
O52 C55 1.241 . S
O53 Mg39 1.984 . S
O53 C55 1.280 1_565 S
O54 Mg40 2.041 . S
O54 C58 1.277 1_545 S
C55 O52 1.241 . S
C55 O53 1.280 1_545 S
O56 Mg39 1.988 . S
O56 C58 1.245 . S
O57 C33 1.247 . S
O57 Mg39 2.061 . S
C58 O54 1.277 1_565 S
C58 O56 1.245 . S
O59 C33 1.289 1_554 S
O59 Mg36 2.238 . S
O59 Mg37 2.106 1_565 S
O60 Mg37 2.079 . S
O60 C42 1.245 1_554 S
O61 Mg40 2.038 . S
O61 C42 1.274 . S
C62 O74 1.241 . S
C62 O75 1.280 1_455 S
C63 O76 1.277 1_655 S
C63 O77 1.245 . S
C64 O88 1.247 . S
C64 O90 1.289 1_554 S
Mg65 O66 1.926 . S
Mg65 O75 1.984 . S
Mg65 O77 1.988 . S
Mg65 O78 2.061 . S
O66 Mg65 1.926 . S
O66 Mg67 1.986 1_655 S
O66 Mg68 1.917 1_656 S
Mg67 O66 1.986 1_455 S
Mg67 O74 2.042 . S
Mg67 O76 2.041 . S
Mg67 O82 2.038 . S
Mg67 O90 2.238 . S
Mg68 O66 1.917 1_454 S
Mg68 O69 1.917 . S
Mg68 O79 2.106 1_455 S
Mg68 O81 2.079 . S
Mg68 O90 2.106 1_554 S
Mg68 O91 2.079 1_454 S
O69 Mg68 1.917 . S
O69 Mg70 1.926 . S
O69 Mg71 1.986 1_455 S
Mg70 O69 1.926 . S
Mg70 O84 1.984 . S
Mg70 O87 1.988 . S
Mg70 O88 2.061 . S
Mg71 O69 1.986 1_655 S
Mg71 O79 2.238 . S
Mg71 O83 2.042 . S
Mg71 O85 2.041 . S
Mg71 O92 2.038 . S
C72 O78 1.247 . S
C72 O79 1.289 1_556 S
C73 O91 1.245 1_554 S
C73 O92 1.274 . S
O74 C62 1.241 . S
O74 Mg67 2.042 . S
O75 C62 1.280 1_655 S
O75 Mg65 1.984 . S
O76 C63 1.277 1_455 S
O76 Mg67 2.041 . S
O77 C63 1.245 . S
O77 Mg65 1.988 . S
O78 Mg65 2.061 . S
O78 C72 1.247 . S
O79 Mg68 2.106 1_655 S
O79 Mg71 2.238 . S
O79 C72 1.289 1_554 S
C80 O81 1.245 1_556 S
C80 O82 1.274 . S
O81 Mg68 2.079 . S
O81 C80 1.245 1_554 S
O82 Mg67 2.038 . S
O82 C80 1.274 . S
O83 Mg71 2.042 . S
O83 C86 1.241 . S
O84 Mg70 1.984 . S
O84 C86 1.280 1_455 S
O85 Mg71 2.041 . S
O85 C89 1.277 1_655 S
C86 O83 1.241 . S
C86 O84 1.280 1_655 S
O87 Mg70 1.988 . S
O87 C89 1.245 . S
O88 C64 1.247 . S
O88 Mg70 2.061 . S
C89 O85 1.277 1_455 S
C89 O87 1.245 . S
O90 C64 1.289 1_556 S
O90 Mg67 2.238 . S
O90 Mg68 2.106 1_556 S
O91 Mg68 2.079 1_656 S
O91 C73 1.245 1_556 S
O92 Mg71 2.038 . S
O92 C73 1.274 . S
H93 C101 0.929 . S
H94 C103 0.930 . S
H95 C105 0.930 . S
H96 C108 0.929 . S
H97 C111 0.930 . S
H98 C113 0.960 . S
H99 C113 0.960 . S
H100 C113 0.960 1_655 S
C101 H93 0.929 . S
C101 C102 1.377 . S
C101 C103 1.384 . S
C102 C101 1.377 . S
C102 C108 1.390 1_455 S
C103 H94 0.930 . S
C103 C101 1.384 . S
C103 C104 1.372 . S
C104 C103 1.372 . S
C104 C105 1.400 1_455 S
C104 C109 1.490 1_455 S
C105 H95 0.930 . S
C105 C104 1.400 1_655 S
C105 C108 1.386 . S
H106 C122 0.930 . S
H107 C123 0.931 . S
C108 H96 0.929 . S
C108 C102 1.390 1_655 S
C108 C105 1.386 . S
C109 C104 1.490 1_655 S
C109 C111 1.396 . S
C109 C112 1.401 1_655 S
H110 C116 0.931 . S
C111 H97 0.930 . S
C111 C109 1.396 . S
C111 C114 1.403 . S
C112 C109 1.401 1_455 S
C112 C113 1.524 . S
C112 C116 1.400 1_455 S
C113 H98 0.960 . S
C113 H99 0.960 . S
C113 H100 0.960 1_455 S
C113 C112 1.524 . S
C114 C111 1.403 . S
C114 C115 1.392 . S
C114 C118 1.495 . S
C115 C114 1.392 . S
C115 C116 1.385 . S
C115 C117 1.478 . S
C116 H110 0.931 . S
C116 C112 1.400 1_655 S
C116 C115 1.385 . S
C117 C115 1.478 . S
C117 C119 1.381 1_655 S
C117 C123 1.383 . S
C118 C114 1.495 . S
C118 H124 0.959 . S
C118 H125 0.961 . S
C118 H126 0.960 1_655 S
C119 C117 1.381 1_455 S
C119 C120 1.394 . S
C119 H127 0.930 . S
C120 C119 1.394 . S
C120 C121 1.383 1_455 S
C120 H128 0.929 . S
C121 C120 1.383 1_655 S
C121 C122 1.377 . S
C122 H106 0.930 . S
C122 C121 1.377 . S
C122 C123 1.379 . S
C123 H107 0.931 . S
C123 C117 1.383 . S
C123 C122 1.379 . S
H124 C118 0.959 . S
H125 C118 0.961 . S
H126 C118 0.960 1_455 S
H127 C119 0.930 . S
H128 C120 0.929 . S
H129 C137 0.929 . S
H130 C139 0.930 . S
H131 C141 0.930 . S
H132 C144 0.929 . S
H133 C147 0.930 . S
H134 C149 0.960 . S
H135 C149 0.960 . S
H136 C149 0.960 . S
C137 H129 0.929 . S
C137 C138 1.377 . S
C137 C139 1.384 . S
C138 C137 1.377 . S
C138 C144 1.390 1_565 S
C139 H130 0.930 . S
C139 C137 1.384 . S
C139 C140 1.372 . S
C140 C139 1.372 . S
C140 C141 1.400 1_565 S
C140 C145 1.490 . S
C141 H131 0.930 . S
C141 C140 1.400 1_545 S
C141 C144 1.386 . S
H142 C158 0.930 . S
H143 C159 0.931 . S
C144 H132 0.929 . S
C144 C138 1.390 1_545 S
C144 C141 1.386 . S
C145 C140 1.490 . S
C145 C147 1.395 1_565 S
C145 C148 1.403 . S
H146 C152 0.930 . S
C147 H133 0.930 . S
C147 C145 1.395 1_545 S
C147 C150 1.403 . S
C148 C145 1.403 . S
C148 C149 1.524 . S
C148 C152 1.400 . S
C149 H134 0.960 . S
C149 H135 0.960 . S
C149 H136 0.960 . S
C149 C148 1.524 . S
C150 C147 1.403 . S
C150 C151 1.392 1_545 S
C150 C154 1.495 . S
C151 C150 1.392 1_565 S
C151 C152 1.385 . S
C151 C153 1.478 . S
C152 H146 0.930 . S
C152 C148 1.400 . S
C152 C151 1.385 . S
C153 C151 1.478 . S
C153 C155 1.381 . S
C153 C159 1.383 1_565 S
C154 C150 1.495 . S
C154 H160 0.959 . S
C154 H161 0.961 . S
C154 H162 0.960 . S
C155 C153 1.381 . S
C155 C156 1.394 . S
C155 H163 0.930 . S
C156 C155 1.394 . S
C156 C157 1.383 . S
C156 H164 0.929 . S
C157 C156 1.383 . S
C157 C158 1.377 1_565 S
C158 H142 0.930 . S
C158 C157 1.377 1_545 S
C158 C159 1.379 . S
C159 H143 0.931 . S
C159 C153 1.383 1_545 S
C159 C158 1.379 . S
H160 C154 0.959 . S
H161 C154 0.961 . S
H162 C154 0.960 . S
H163 C155 0.930 . S
H164 C156 0.929 . S
H165 C173 0.929 . S
H166 C175 0.930 . S
H167 C177 0.930 . S
H168 C180 0.929 . S
H169 C183 0.930 . S
H170 C185 0.960 . S
H171 C185 0.960 . S
H172 C185 0.960 1_455 S
C173 H165 0.929 . S
C173 C174 1.377 . S
C173 C175 1.384 . S
C174 C173 1.377 . S
C174 C180 1.390 1_655 S
C175 H166 0.930 . S
C175 C173 1.384 . S
C175 C176 1.372 . S
C176 C175 1.372 . S
C176 C177 1.400 1_655 S
C176 C181 1.490 . S
C177 H167 0.930 . S
C177 C176 1.400 1_455 S
C177 C180 1.386 . S
H178 C194 0.930 . S
H179 C195 0.931 . S
C180 H168 0.929 . S
C180 C174 1.390 1_455 S
C180 C177 1.386 . S
C181 C176 1.490 . S
C181 C183 1.395 . S
C181 C184 1.403 . S
H182 C188 0.930 . S
C183 H169 0.930 . S
C183 C181 1.395 . S
C183 C186 1.403 . S
C184 C181 1.403 . S
C184 C185 1.524 . S
C184 C188 1.400 . S
C185 H170 0.960 . S
C185 H171 0.960 . S
C185 H172 0.960 1_655 S
C185 C184 1.524 . S
C186 C183 1.403 . S
C186 C187 1.392 . S
C186 C190 1.495 . S
C187 C186 1.392 . S
C187 C188 1.385 . S
C187 C189 1.478 . S
C188 H182 0.930 . S
C188 C184 1.400 . S
C188 C187 1.385 . S
C189 C187 1.478 . S
C189 C191 1.381 . S
C189 C195 1.383 1_655 S
C190 C186 1.495 . S
C190 H196 0.959 . S
C190 H197 0.961 1_655 S
C190 H198 0.960 . S
C191 C189 1.381 . S
C191 C192 1.394 . S
C191 H199 0.930 . S
C192 C191 1.394 . S
C192 C193 1.383 . S
C192 H200 0.929 . S
C193 C192 1.383 . S
C193 C194 1.377 1_655 S
C194 H178 0.930 . S
C194 C193 1.377 1_455 S
C194 C195 1.379 . S
C195 H179 0.931 . S
C195 C189 1.383 1_455 S
C195 C194 1.379 . S
H196 C190 0.959 . S
H197 C190 0.961 1_455 S
H198 C190 0.960 . S
H199 C191 0.930 . S
H200 C192 0.929 . S
H201 C209 0.929 . S
H202 C211 0.930 . S
H203 C213 0.930 . S
H204 C216 0.929 . S
H205 C219 0.930 . S
H206 C221 0.960 . S
H207 C221 0.960 . S
H208 C221 0.960 . S
C209 H201 0.929 . S
C209 C210 1.377 . S
C209 C211 1.384 . S
C210 C209 1.377 . S
C210 C216 1.390 1_545 S
C211 H202 0.930 . S
C211 C209 1.384 . S
C211 C212 1.372 . S
C212 C211 1.372 . S
C212 C213 1.400 1_545 S
C212 C217 1.490 . S
C213 H203 0.930 . S
C213 C212 1.400 1_565 S
C213 C216 1.386 . S
H214 C230 0.930 . S
H215 C231 0.931 . S
C216 H204 0.929 . S
C216 C210 1.390 1_565 S
C216 C213 1.386 . S
C217 C212 1.490 . S
C217 C219 1.395 . S
C217 C220 1.403 1_545 S
H218 C224 0.930 . S
C219 H205 0.930 . S
C219 C217 1.395 . S
C219 C222 1.403 . S
C220 C217 1.403 1_565 S
C220 C221 1.524 . S
C220 C224 1.400 . S
C221 H206 0.960 . S
C221 H207 0.960 . S
C221 H208 0.960 . S
C221 C220 1.524 . S
C222 C219 1.403 . S
C222 C223 1.392 . S
C222 C226 1.495 . S
C223 C222 1.392 . S
C223 C224 1.385 1_545 S
C223 C225 1.478 . S
C224 H218 0.930 . S
C224 C220 1.400 . S
C224 C223 1.385 1_565 S
C225 C223 1.478 . S
C225 C227 1.381 . S
C225 C231 1.383 1_545 S
C226 C222 1.495 . S
C226 H232 0.959 . S
C226 H233 0.961 . S
C226 H234 0.960 . S
C227 C225 1.381 . S
C227 C228 1.394 . S
C227 H235 0.930 . S
C228 C227 1.394 . S
C228 C229 1.383 . S
C228 H236 0.929 . S
C229 C228 1.383 . S
C229 C230 1.377 1_545 S
C230 H214 0.930 . S
C230 C229 1.377 1_565 S
C230 C231 1.379 . S
C231 H215 0.931 . S
C231 C225 1.383 1_565 S
C231 C230 1.379 . S
H232 C226 0.959 . S
H233 C226 0.961 . S
H234 C226 0.960 . S
H235 C227 0.930 . S
H236 C228 0.929 . S
H237 C245 0.929 . S
H238 C247 0.930 . S
H239 C249 0.927 1_655 S
H240 C252 0.929 1_655 S
H241 C255 0.930 . S
H242 C257 0.960 . S
H243 C257 0.960 . S
H244 C257 0.960 . S
C245 H237 0.929 . S
C245 C246 1.377 . S
C245 C247 1.384 . S
C246 C245 1.377 . S
C246 C252 1.390 . S
C247 H238 0.930 . S
C247 C245 1.384 . S
C247 C248 1.372 . S
C248 C247 1.372 . S
C248 C249 1.404 . S
C248 C253 1.490 . S
C249 H239 0.927 1_455 S
C249 C248 1.404 . S
C249 C252 1.385 . S
H250 C266 0.930 . S
H251 C267 0.931 . S
C252 H240 0.929 1_455 S
C252 C246 1.390 . S
C252 C249 1.385 . S
C253 C248 1.490 . S
C253 C255 1.395 1_455 S
C253 C256 1.403 . S
H254 C260 0.930 . S
C255 H241 0.930 . S
C255 C253 1.395 1_655 S
C255 C258 1.403 . S
C256 C253 1.403 . S
C256 C257 1.524 . S
C256 C260 1.400 . S
C257 H242 0.960 . S
C257 H243 0.960 . S
C257 H244 0.960 . S
C257 C256 1.524 . S
C258 C255 1.403 . S
C258 C259 1.392 . S
C258 C262 1.495 . S
C259 C258 1.392 . S
C259 C260 1.385 1_655 S
C259 C261 1.478 . S
C260 H254 0.930 . S
C260 C256 1.400 . S
C260 C259 1.385 1_455 S
C261 C259 1.478 . S
C261 C263 1.381 1_655 S
C261 C267 1.383 . S
C262 C258 1.495 . S
C262 H268 0.959 . S
C262 H269 0.961 . S
C262 H270 0.960 . S
C263 C261 1.381 1_455 S
C263 C264 1.394 . S
C263 H271 0.930 . S
C264 C263 1.394 . S
C264 C265 1.383 1_455 S
C264 H272 0.929 . S
C265 C264 1.383 1_655 S
C265 C266 1.377 . S
C266 H250 0.930 . S
C266 C265 1.377 . S
C266 C267 1.379 . S
C267 H251 0.931 . S
C267 C261 1.383 . S
C267 C266 1.379 . S
H268 C262 0.959 . S
H269 C262 0.961 . S
H270 C262 0.960 . S
H271 C263 0.930 . S
H272 C264 0.929 . S
H273 C281 0.929 . S
H274 C283 0.930 . S
H275 C285 0.930 . S
H276 C288 0.929 . S
H277 C291 0.930 . S
H278 C293 0.960 . S
H279 C293 0.960 . S
H280 C293 0.960 . S
C281 H273 0.929 . S
C281 C282 1.377 . S
C281 C283 1.384 . S
C282 C281 1.377 . S
C282 C288 1.390 1_545 S
C283 H274 0.930 . S
C283 C281 1.384 . S
C283 C284 1.372 . S
C284 C283 1.372 . S
C284 C285 1.400 1_545 S
C284 C289 1.490 . S
C285 H275 0.930 . S
C285 C284 1.400 1_565 S
C285 C288 1.386 . S
H286 C302 0.930 . S
H287 C303 0.931 . S
C288 H276 0.929 . S
C288 C282 1.390 1_565 S
C288 C285 1.386 . S
C289 C284 1.490 . S
C289 C291 1.394 1_545 S
C289 C292 1.403 . S
H290 C296 0.930 . S
C291 H277 0.930 . S
C291 C289 1.394 1_565 S
C291 C294 1.403 . S
C292 C289 1.403 . S
C292 C293 1.524 . S
C292 C296 1.400 . S
C293 H278 0.960 . S
C293 H279 0.960 . S
C293 H280 0.960 . S
C293 C292 1.524 . S
C294 C291 1.403 . S
C294 C295 1.392 1_565 S
C294 C298 1.495 . S
C295 C294 1.392 1_545 S
C295 C296 1.385 . S
C295 C297 1.478 . S
C296 H290 0.930 . S
C296 C292 1.400 . S
C296 C295 1.385 . S
C297 C295 1.478 . S
C297 C299 1.381 . S
C297 C303 1.383 1_545 S
C298 C294 1.495 . S
C298 H304 0.959 . S
C298 H305 0.961 . S
C298 H306 0.960 1_565 S
C299 C297 1.381 . S
C299 C300 1.394 . S
C299 H307 0.930 . S
C300 C299 1.394 . S
C300 C301 1.375 1_545 S
C300 H308 0.929 . S
C301 C300 1.375 1_565 S
C301 C302 1.386 . S
C302 H286 0.930 . S
C302 C301 1.386 . S
C302 C303 1.379 . S
C303 H287 0.931 . S
C303 C297 1.383 1_565 S
C303 C302 1.379 . S
H304 C298 0.959 . S
H305 C298 0.961 . S
H306 C298 0.960 1_545 S
H307 C299 0.930 . S
H308 C300 0.929 . S
H309 C317 0.929 . S
H310 C319 0.930 . S
H311 C321 0.930 . S
H312 C324 0.929 . S
H313 C327 0.930 . S
H314 C329 0.960 . S
H315 C329 0.960 1_655 S
H316 C329 0.960 . S
C317 H309 0.929 . S
C317 C318 1.377 1_655 S
C317 C319 1.384 . S
C318 C317 1.377 1_455 S
C318 C324 1.390 . S
C319 H310 0.930 . S
C319 C317 1.384 . S
C319 C320 1.372 1_655 S
C320 C319 1.372 1_455 S
C320 C321 1.400 . S
C320 C325 1.490 . S
C321 H311 0.930 . S
C321 C320 1.400 . S
C321 C324 1.386 . S
H322 C338 0.930 . S
H323 C339 0.931 . S
C324 H312 0.929 . S
C324 C318 1.390 . S
C324 C321 1.386 . S
C325 C320 1.490 . S
C325 C327 1.395 . S
C325 C328 1.403 . S
H326 C332 0.930 . S
C327 H313 0.930 . S
C327 C325 1.395 . S
C327 C330 1.403 . S
C328 C325 1.403 . S
C328 C329 1.524 . S
C328 C332 1.400 . S
C329 H314 0.960 . S
C329 H315 0.960 1_455 S
C329 H316 0.960 . S
C329 C328 1.524 . S
C330 C327 1.403 . S
C330 C331 1.392 . S
C330 C334 1.495 . S
C331 C330 1.392 . S
C331 C332 1.385 . S
C331 C333 1.478 . S
C332 H326 0.930 . S
C332 C328 1.400 . S
C332 C331 1.385 . S
C333 C331 1.478 . S
C333 C335 1.381 1_455 S
C333 C339 1.383 . S
C334 C330 1.495 . S
C334 H340 0.955 1_455 S
C334 H341 0.961 . S
C334 H342 0.960 1_455 S
C335 C333 1.381 1_655 S
C335 C336 1.394 . S
C335 H343 0.930 . S
C336 C335 1.394 . S
C336 C337 1.383 1_655 S
C336 H344 0.929 . S
C337 C336 1.383 1_455 S
C337 C338 1.377 . S
C338 H322 0.930 . S
C338 C337 1.377 . S
C338 C339 1.379 . S
C339 H323 0.931 . S
C339 C333 1.383 . S
C339 C338 1.379 . S
H340 C334 0.955 1_655 S
H341 C334 0.961 . S
H342 C334 0.960 1_655 S
H343 C335 0.930 . S
H344 C336 0.929 . S
H345 C353 0.929 . S
H346 C355 0.930 . S
H347 C357 0.930 . S
H348 C360 0.929 . S
H349 C363 0.930 . S
H350 C365 0.960 . S
H351 C365 0.960 . S
H352 C365 0.960 . S
C353 H345 0.929 . S
C353 C354 1.377 1_545 S
C353 C355 1.384 . S
C354 C353 1.377 1_565 S
C354 C360 1.390 . S
C355 H346 0.930 . S
C355 C353 1.384 . S
C355 C356 1.372 1_545 S
C356 C355 1.372 1_565 S
C356 C357 1.400 . S
C356 C361 1.490 . S
C357 H347 0.930 . S
C357 C356 1.400 . S
C357 C360 1.386 . S
H358 C374 0.930 . S
H359 C375 0.931 . S
C360 H348 0.929 . S
C360 C354 1.390 . S
C360 C357 1.386 . S
C361 C356 1.490 . S
C361 C363 1.395 . S
C361 C364 1.403 1_565 S
H362 C368 0.930 . S
C363 H349 0.930 . S
C363 C361 1.395 . S
C363 C366 1.403 . S
C364 C361 1.403 1_545 S
C364 C365 1.524 . S
C364 C368 1.400 . S
C365 H350 0.960 . S
C365 H351 0.960 . S
C365 H352 0.960 . S
C365 C364 1.524 . S
C366 C363 1.403 . S
C366 C367 1.392 . S
C366 C370 1.495 . S
C367 C366 1.392 . S
C367 C368 1.385 1_565 S
C367 C369 1.478 . S
C368 H362 0.930 . S
C368 C364 1.400 . S
C368 C367 1.385 1_545 S
C369 C367 1.478 . S
C369 C371 1.381 1_565 S
C369 C375 1.383 . S
C370 C366 1.495 . S
C370 H376 0.959 . S
C370 H377 0.961 . S
C370 H378 0.960 . S
C371 C369 1.381 1_545 S
C371 C372 1.394 . S
C371 H379 0.930 . S
C372 C371 1.394 . S
C372 C373 1.383 1_545 S
C372 H380 0.929 . S
C373 C372 1.383 1_565 S
C373 C374 1.377 . S
C374 H358 0.930 . S
C374 C373 1.377 . S
C374 C375 1.379 . S
C375 H359 0.931 . S
C375 C369 1.383 . S
C375 C374 1.379 . S
H376 C370 0.959 . S
H377 C370 0.961 . S
H378 C370 0.960 . S
H379 C371 0.930 . S
H380 C372 0.929 . S
H381 C389 0.929 . S
H382 C391 0.930 . S
H383 C393 0.930 . S
H384 C396 0.929 . S
H385 C399 0.930 . S
H386 C401 0.960 . S
H387 C401 0.960 . S
H388 C401 0.960 1_554 S
C389 H381 0.929 . S
C389 C390 1.377 . S
C389 C391 1.384 . S
C390 C389 1.377 . S
C390 C396 1.390 1_556 S
C391 H382 0.930 . S
C391 C389 1.384 . S
C391 C392 1.372 . S
C392 C391 1.372 . S
C392 C393 1.400 1_556 S
C392 C397 1.490 . S
C393 H383 0.930 . S
C393 C392 1.400 1_554 S
C393 C396 1.386 . S
H394 C410 0.930 . S
H395 C411 0.931 . S
C396 H384 0.929 . S
C396 C390 1.390 1_554 S
C396 C393 1.386 . S
C397 C392 1.490 . S
C397 C399 1.395 . S
C397 C400 1.403 . S
H398 C404 0.930 . S
C399 H385 0.930 . S
C399 C397 1.395 . S
C399 C402 1.403 . S
C400 C397 1.403 . S
C400 C401 1.524 . S
C400 C404 1.400 . S
C401 H386 0.960 . S
C401 H387 0.960 . S
C401 H388 0.960 1_556 S
C401 C400 1.524 . S
C402 C399 1.403 . S
C402 C403 1.392 . S
C402 C406 1.495 1_556 S
C403 C402 1.392 . S
C403 C404 1.385 . S
C403 C405 1.478 . S
C404 H398 0.930 . S
C404 C400 1.400 . S
C404 C403 1.385 . S
C405 C403 1.478 . S
C405 C407 1.381 . S
C405 C411 1.383 1_556 S
C406 C402 1.495 1_554 S
C406 H412 0.959 . S
C406 H413 0.961 . S
C406 H414 0.959 1_554 S
C407 C405 1.381 . S
C407 C408 1.394 . S
C407 H415 0.930 . S
C408 C407 1.394 . S
C408 C409 1.383 . S
C408 H416 0.929 . S
C409 C408 1.383 . S
C409 C410 1.377 1_556 S
C410 H394 0.930 . S
C410 C409 1.377 1_554 S
C410 C411 1.379 . S
C411 H395 0.931 . S
C411 C405 1.383 1_554 S
C411 C410 1.379 . S
H412 C406 0.959 . S
H413 C406 0.961 . S
H414 C406 0.959 1_556 S
H415 C407 0.930 . S
H416 C408 0.929 . S
H417 C425 0.929 . S
H418 C427 0.930 . S
H419 C429 0.930 . S
H420 C432 0.929 . S
H421 C435 0.930 . S
H422 C437 0.960 . S
H423 C437 0.960 . S
H424 C437 0.960 . S
C425 H417 0.929 . S
C425 C426 1.377 . S
C425 C427 1.384 . S
C426 C425 1.377 . S
C426 C432 1.390 1_556 S
C427 H418 0.930 . S
C427 C425 1.384 . S
C427 C428 1.372 . S
C428 C427 1.372 . S
C428 C429 1.400 1_556 S
C428 C433 1.490 . S
C429 H419 0.930 . S
C429 C428 1.400 1_554 S
C429 C432 1.386 . S
H430 C446 0.930 . S
H431 C447 0.931 . S
C432 H420 0.929 . S
C432 C426 1.390 1_554 S
C432 C429 1.386 . S
C433 C428 1.490 . S
C433 C435 1.395 . S
C433 C436 1.403 1_556 S
H434 C440 0.930 . S
C435 H421 0.930 . S
C435 C433 1.395 . S
C435 C438 1.403 . S
C436 C433 1.403 1_554 S
C436 C437 1.524 . S
C436 C440 1.400 . S
C437 H422 0.960 . S
C437 H423 0.960 . S
C437 H424 0.960 . S
C437 C436 1.524 . S
C438 C435 1.403 . S
C438 C439 1.392 . S
C438 C442 1.495 . S
C439 C438 1.392 . S
C439 C440 1.385 1_556 S
C439 C441 1.478 . S
C440 H434 0.930 . S
C440 C436 1.400 . S
C440 C439 1.385 1_554 S
C441 C439 1.478 . S
C441 C443 1.381 . S
C441 C447 1.383 1_556 S
C442 C438 1.495 . S
C442 H448 0.959 . S
C442 H449 0.961 . S
C442 H450 0.960 . S
C443 C441 1.381 . S
C443 C444 1.394 . S
C443 H451 0.930 . S
C444 C443 1.394 . S
C444 C445 1.377 1_556 S
C444 H452 0.929 . S
C445 C444 1.377 1_554 S
C445 C446 1.382 . S
C446 H430 0.930 . S
C446 C445 1.382 . S
C446 C447 1.379 . S
C447 H431 0.931 . S
C447 C441 1.383 1_554 S
C447 C446 1.379 . S
H448 C442 0.959 . S
H449 C442 0.961 . S
H450 C442 0.960 . S
H451 C443 0.930 . S
H452 C444 0.929 . S
H453 C461 0.929 . S
H454 C463 0.930 . S
H455 C465 0.930 . S
H456 C468 0.929 . S
H457 C471 0.930 . S
H458 C473 0.960 . S
H459 C473 0.960 . S
H460 C473 0.960 . S
C461 H453 0.929 . S
C461 C462 1.377 1_554 S
C461 C463 1.384 . S
C462 C461 1.377 1_556 S
C462 C468 1.390 . S
C463 H454 0.930 . S
C463 C461 1.384 . S
C463 C464 1.372 1_554 S
C464 C463 1.372 1_556 S
C464 C465 1.400 . S
C464 C469 1.490 1_556 S
C465 H455 0.930 . S
C465 C464 1.400 . S
C465 C468 1.386 . S
H466 C482 0.930 . S
H467 C483 0.935 . S
C468 H456 0.929 . S
C468 C462 1.390 . S
C468 C465 1.386 . S
C469 C464 1.490 1_554 S
C469 C471 1.395 . S
C469 C472 1.403 1_554 S
H470 C476 0.930 . S
C471 H457 0.930 . S
C471 C469 1.395 . S
C471 C474 1.403 . S
C472 C469 1.403 1_556 S
C472 C473 1.524 . S
C472 C476 1.400 . S
C473 H458 0.960 . S
C473 H459 0.960 . S
C473 H460 0.960 . S
C473 C472 1.524 . S
C474 C471 1.403 . S
C474 C475 1.392 . S
C474 C478 1.495 . S
C475 C474 1.392 . S
C475 C476 1.385 1_554 S
C475 C477 1.478 . S
C476 H470 0.930 . S
C476 C472 1.400 . S
C476 C475 1.385 1_556 S
C477 C475 1.478 . S
C477 C479 1.381 . S
C477 C483 1.378 1_554 S
C478 C474 1.495 . S
C478 H484 0.959 . S
C478 H485 0.961 . S
C478 H486 0.960 . S
C479 C477 1.381 . S
C479 C480 1.394 . S
C479 H487 0.930 . S
C480 C479 1.394 . S
C480 C481 1.383 . S
C480 H488 0.929 . S
C481 C480 1.383 . S
C481 C482 1.377 1_554 S
C482 H466 0.930 . S
C482 C481 1.377 1_556 S
C482 C483 1.380 . S
C483 H467 0.935 . S
C483 C477 1.378 1_556 S
C483 C482 1.380 . S
H484 C478 0.959 . S
H485 C478 0.961 . S
H486 C478 0.960 . S
H487 C479 0.930 . S
H488 C480 0.929 . S
H489 C497 0.929 . S
H490 C499 0.930 . S
H491 C501 0.930 . S
H492 C504 0.929 . S
H493 C507 0.930 . S
H494 C509 0.960 . S
H495 C509 0.960 . S
H496 C509 0.960 . S
C497 H489 0.929 . S
C497 C498 1.377 . S
C497 C499 1.384 . S
C498 C497 1.377 . S
C498 C504 1.390 1_554 S
C499 H490 0.930 . S
C499 C497 1.384 . S
C499 C500 1.372 . S
C500 C499 1.372 . S
C500 C501 1.400 1_554 S
C500 C505 1.490 . S
C501 H491 0.930 . S
C501 C500 1.400 1_556 S
C501 C504 1.386 . S
H502 C518 0.930 . S
H503 C519 0.931 . S
C504 H492 0.929 . S
C504 C498 1.390 1_556 S
C504 C501 1.386 . S
C505 C500 1.490 . S
C505 C507 1.395 1_554 S
C505 C508 1.403 . S
H506 C512 0.930 . S
C507 H493 0.930 . S
C507 C505 1.395 1_556 S
C507 C510 1.403 . S
C508 C505 1.403 . S
C508 C509 1.524 . S
C508 C512 1.400 . S
C509 H494 0.960 . S
C509 H495 0.960 . S
C509 H496 0.960 . S
C509 C508 1.524 . S
C510 C507 1.403 . S
C510 C511 1.401 . S
C510 C514 1.495 . S
C511 C510 1.401 . S
C511 C512 1.375 1_556 S
C511 C513 1.479 . S
C512 H506 0.930 . S
C512 C508 1.400 . S
C512 C511 1.375 1_554 S
C513 C511 1.479 . S
C513 C515 1.381 1_556 S
C513 C519 1.383 . S
C514 C510 1.495 . S
C514 H520 0.959 . S
C514 H521 0.961 . S
C514 H522 0.960 . S
C515 C513 1.381 1_554 S
C515 C516 1.394 . S
C515 H523 0.930 . S
C516 C515 1.394 . S
C516 C517 1.388 . S
C516 H524 0.929 . S
C517 C516 1.388 . S
C517 C518 1.372 1_554 S
C518 H502 0.930 . S
C518 C517 1.372 1_556 S
C518 C519 1.379 . S
C519 H503 0.931 . S
C519 C513 1.383 . S
C519 C518 1.379 . S
H520 C514 0.959 . S
H521 C514 0.961 . S
H522 C514 0.960 . S
H523 C515 0.930 . S
H524 C516 0.929 . S
C102 C89 1.050 . S
C121 C24 1.036 . S
C138 C11 1.175 1_565 S
C157 C31 1.157 . S
C174 C1 0.862 . S
C193 C86 0.887 . S
C210 C32 1.127 . S
C229 C2 1.115 . S
C246 C0 1.057 . S
C265 C63 1.071 . S
C282 C55 1.185 . S
C301 C18 1.145 . S
C318 C62 0.857 . S
C337 C27 0.843 . S
C354 C58 1.130 . S
C373 C10 1.129 . S
C390 C80 1.841 . S
C409 C42 1.791 . S
C426 C64 0.987 1_556 S
C445 C33 0.949 1_554 S
C462 C41 0.982 1_556 S
C481 C72 1.020 1_554 S
C498 C73 1.841 . S
C517 C49 1.837 . S
