# Generated by pormake.
# Topology wlj, (5)-cn, num edge types: 1
# Building blocks:
#     Node 0, Type 0, BuildingBlock: XOMCOT_clean_sbu_1, # of connection points: 5
#     Node 1, Type 0, BuildingBlock: XOMCOT_clean_sbu_1, # of connection points: 5
#     Node 2, Type 0, BuildingBlock: XOMCOT_clean_sbu_1, # of connection points: 5
#     Node 3, Type 0, BuildingBlock: XOMCOT_clean_sbu_1, # of connection points: 5
#     Node 4, Type 0, BuildingBlock: XOMCOT_clean_sbu_1, # of connection points: 5
#     Node 5, Type 0, BuildingBlock: XOMCOT_clean_sbu_1, # of connection points: 5
#     Edge 6, Type (0, 0), BuildingBlock: ZUJKAS_clean_linker_0, # of connection points: 2
#     Edge 7, Type (0, 0), BuildingBlock: ZUJKAS_clean_linker_0, # of connection points: 2
#     Edge 8, Type (0, 0), BuildingBlock: ZUJKAS_clean_linker_0, # of connection points: 2
#     Edge 9, Type (0, 0), BuildingBlock: ZUJKAS_clean_linker_0, # of connection points: 2
#     Edge 10, Type (0, 0), BuildingBlock: ZUJKAS_clean_linker_0, # of connection points: 2
#     Edge 11, Type (0, 0), BuildingBlock: ZUJKAS_clean_linker_0, # of connection points: 2
#     Edge 12, Type (0, 0), BuildingBlock: ZUJKAS_clean_linker_0, # of connection points: 2
#     Edge 13, Type (0, 0), BuildingBlock: ZUJKAS_clean_linker_0, # of connection points: 2
#     Edge 14, Type (0, 0), BuildingBlock: ZUJKAS_clean_linker_0, # of connection points: 2
#     Edge 15, Type (0, 0), BuildingBlock: ZUJKAS_clean_linker_0, # of connection points: 2
#     Edge 16, Type (0, 0), BuildingBlock: ZUJKAS_clean_linker_0, # of connection points: 2
#     Edge 17, Type (0, 0), BuildingBlock: ZUJKAS_clean_linker_0, # of connection points: 2
#     Edge 18, Type (0, 0), BuildingBlock: ZUJKAS_clean_linker_0, # of connection points: 2
#     Edge 19, Type (0, 0), BuildingBlock: ZUJKAS_clean_linker_0, # of connection points: 2
#     Edge 20, Type (0, 0), BuildingBlock: ZUJKAS_clean_linker_0, # of connection points: 2
# Relax obj value: 0.123
# Max RMSD: 0.180
# Mean RMSD: 0.180
data_MOF--net-wlj--node1-XOMCOT_clean_sbu_1--edge1-ZUJKAS_clean_linker_0
_symmetry_space_group_name_H-M    P1
_symmetry_Int_Tables_number       1
_symmetry_cell_setting            triclinic
loop_
_symmetry_equiv_pos_as_xyz
'x, y, z'
_cell_length_a     32.031343
_cell_length_b     31.993459
_cell_length_c     68.379119
_cell_angle_alpha  89.712587
_cell_angle_beta   90.090821
_cell_angle_gamma 120.03225
loop_
_atom_site_label
_atom_site_type_symbol
_atom_site_fract_x
_atom_site_fract_y
_atom_site_fract_z
_atom_type_partial_charge
C0 C 0.6464 0.29808 0.30444 0.0
C1 C 0.64848 0.26461 0.31647 0.0
N2 N 0.61308 0.22015 0.31133 0.0
N3 N 0.60961 0.27531 0.29178 0.0
C4 C 0.58996 0.22785 0.29632 0.0
H5 H 0.67084 0.33665 0.30468 0.0
Co6 Co 0.59561 0.30655 0.2717 0.0
C7 C 0.5076 0.22806 0.25396 0.0
O8 O 0.48641 0.2539 0.25601 0.0
N9 N 0.58222 0.3381 0.25129 0.0
C10 C 0.57047 0.35744 0.22129 0.0
C11 C 0.58179 0.32822 0.23208 0.0
C12 C 0.57103 0.37372 0.25174 0.0
N13 N 0.56365 0.38611 0.23365 0.0
O14 O 0.54642 0.30731 0.28786 0.0
H15 H 0.58848 0.30077 0.22623 0.0
H16 H 0.5685 0.39051 0.26501 0.0
O17 O 0.55062 0.24455 0.26013 0.0
C18 C 0.56772 0.34489 0.29857 0.0
O19 O 0.61455 0.37277 0.29642 0.0
N20 N 0.64697 0.31086 0.25727 0.0
C21 C 0.7319 0.33323 0.2376 0.0
C22 C 0.69232 0.2859 0.23744 0.0
C23 C 0.65005 0.27522 0.24762 0.0
C24 C 0.6851 0.35665 0.25772 0.0
C25 C 0.72775 0.36867 0.24798 0.0
H26 H 0.62009 0.23863 0.24768 0.0
H27 H 0.68203 0.3842 0.26563 0.0
H28 H 0.56008 0.19942 0.28842 0.0
H29 H 0.67435 0.2728 0.32809 0.0
H30 H 0.56626 0.35662 0.20557 0.0
H31 H 0.69422 0.25744 0.2297 0.0
H32 H 0.75695 0.40577 0.24827 0.0
C33 C 0.73825 0.37606 0.96229 0.0
C34 C 0.77183 0.41622 0.97223 0.0
N35 N 0.81353 0.41544 0.97302 0.0
N36 N 0.75852 0.34997 0.95664 0.0
C37 C 0.80433 0.37474 0.96341 0.0
H38 H 0.70122 0.36627 0.9595 0.0
Co39 Co 0.72743 0.29083 0.94349 0.0
C40 C 0.79268 0.30188 0.91106 0.0
O41 O 0.75389 0.28011 0.90008 0.0
N42 N 0.69661 0.22984 0.9308 0.0
C43 C 0.68913 0.15989 0.92124 0.0
C44 C 0.71837 0.20292 0.93026 0.0
C45 C 0.65306 0.20118 0.92228 0.0
N46 N 0.64803 0.15871 0.91615 0.0
O47 O 0.74254 0.26037 0.96452 0.0
H48 H 0.7537 0.21391 0.93617 0.0
H49 H 0.62532 0.21058 0.92051 0.0
O50 O 0.78827 0.30872 0.92924 0.0
C51 C 0.71186 0.24935 0.9783 0.0
O52 O 0.68296 0.26741 0.97769 0.0
N53 N 0.70738 0.31949 0.92415 0.0
C54 C 0.66677 0.36015 0.89976 0.0
C55 C 0.71682 0.37843 0.89991 0.0
C56 C 0.73657 0.35815 0.91251 0.0
C57 C 0.65936 0.30401 0.92521 0.0
C58 C 0.63813 0.32286 0.91286 0.0
H59 H 0.7753 0.37443 0.91323 0.0
H60 H 0.63748 0.27758 0.93616 0.0
H61 H 0.82997 0.36236 0.96176 0.0
H62 H 0.76581 0.44389 0.97834 0.0
H63 H 0.69715 0.13116 0.91901 0.0
H64 H 0.74053 0.40831 0.89051 0.0
H65 H 0.59975 0.30938 0.91405 0.0
C66 C 0.66534 0.37107 0.63543 0.0
C67 C 0.63171 0.3697 0.64826 0.0
N68 N 0.63153 0.41167 0.64681 0.0
N69 N 0.68651 0.41364 0.62582 0.0
C70 C 0.66526 0.43773 0.63308 0.0
H71 H 0.67348 0.34251 0.63303 0.0
Co72 Co 0.73336 0.43033 0.60638 0.0
C73 C 0.74068 0.51789 0.58871 0.0
O74 O 0.78765 0.54037 0.59117 0.0
N75 N 0.78008 0.44638 0.58674 0.0
C76 C 0.81474 0.46008 0.55747 0.0
C77 C 0.77287 0.44795 0.56735 0.0
C78 C 0.82675 0.45775 0.58827 0.0
N79 N 0.84866 0.46629 0.57063 0.0
O80 O 0.78114 0.47954 0.62308 0.0
H81 H 0.73927 0.44099 0.56078 0.0
H82 H 0.84426 0.45919 0.60198 0.0
O83 O 0.71494 0.47442 0.59469 0.0
C84 C 0.79533 0.45907 0.63537 0.0
O85 O 0.77492 0.41179 0.63488 0.0
N86 N 0.68847 0.37916 0.59119 0.0
C87 C 0.62782 0.29466 0.57095 0.0
C88 C 0.61795 0.3328 0.57154 0.0
C89 C 0.64863 0.37485 0.582 0.0
C90 C 0.69843 0.34254 0.59077 0.0
C91 C 0.66877 0.30014 0.58072 0.0
H92 H 0.64012 0.40348 0.58279 0.0
H93 H 0.72984 0.34648 0.59837 0.0
H94 H 0.67451 0.47371 0.62841 0.0
H95 H 0.6084 0.33951 0.65758 0.0
H96 H 0.82003 0.4649 0.54181 0.0
H97 H 0.58646 0.32979 0.56431 0.0
H98 H 0.67823 0.27204 0.58042 0.0
C99 C 0.30786 0.65038 0.75103 0.0
C100 C 0.27572 0.65301 0.73849 0.0
N101 N 0.23156 0.61448 0.74168 0.0
N102 N 0.28459 0.61022 0.76209 0.0
C103 C 0.23811 0.58897 0.75607 0.0
H104 H 0.34587 0.67654 0.75221 0.0
Co105 Co 0.31462 0.59433 0.78198 0.0
C106 C 0.2348 0.50707 0.79976 0.0
O107 O 0.25972 0.48497 0.79749 0.0
N108 N 0.34515 0.57923 0.80207 0.0
C109 C 0.36444 0.56552 0.8317 0.0
C110 C 0.33574 0.57826 0.82136 0.0
C111 C 0.37995 0.56705 0.80108 0.0
N112 N 0.39231 0.55842 0.81897 0.0
O113 O 0.31346 0.54436 0.76586 0.0
H114 H 0.30902 0.5856 0.82754 0.0
H115 H 0.39607 0.56471 0.78756 0.0
O116 O 0.25212 0.5504 0.79365 0.0
C117 C 0.34762 0.56347 0.75335 0.0
O118 O 0.37508 0.61068 0.75311 0.0
N119 N 0.32053 0.64604 0.79662 0.0
C120 C 0.34416 0.73079 0.8166 0.0
C121 C 0.29627 0.69237 0.81617 0.0
C122 C 0.285 0.65019 0.80585 0.0
C123 C 0.36692 0.68303 0.79677 0.0
C124 C 0.37957 0.72557 0.80669 0.0
H125 H 0.24798 0.62123 0.80527 0.0
H126 H 0.39437 0.67916 0.78915 0.0
H127 H 0.2095 0.55609 0.76246 0.0
H128 H 0.2846 0.68131 0.72782 0.0
H129 H 0.36377 0.56055 0.84739 0.0
H130 H 0.26783 0.69516 0.8235 0.0
H131 H 0.41705 0.75387 0.80685 0.0
C132 C 0.37404 0.65073 0.42409 0.0
C133 C 0.36786 0.61169 0.41342 0.0
N134 N 0.40992 0.61151 0.41316 0.0
N135 N 0.41973 0.67524 0.4307 0.0
C136 C 0.44077 0.65065 0.42378 0.0
H137 H 0.34723 0.66127 0.42648 0.0
Co138 Co 0.4475 0.73337 0.44458 0.0
C139 C 0.49999 0.7197 0.47709 0.0
O140 O 0.48215 0.74047 0.48817 0.0
N141 N 0.47741 0.79343 0.45797 0.0
C142 C 0.53978 0.86259 0.46827 0.0
C143 C 0.52607 0.81995 0.45895 0.0
C144 C 0.46249 0.82197 0.46654 0.0
N145 N 0.49985 0.86396 0.47311 0.0
O146 O 0.49366 0.76518 0.42389 0.0
H147 H 0.55045 0.80904 0.45305 0.0
H148 H 0.42536 0.81289 0.46796 0.0
O149 O 0.4898 0.71424 0.45878 0.0
C150 C 0.47323 0.77716 0.41071 0.0
O151 O 0.42649 0.75986 0.41209 0.0
N152 N 0.39799 0.70352 0.46344 0.0
C153 C 0.31394 0.65994 0.4862 0.0
C154 C 0.34617 0.64218 0.48643 0.0
C155 C 0.3875 0.66382 0.47458 0.0
C156 C 0.36571 0.7193 0.46225 0.0
C157 C 0.32435 0.69909 0.47383 0.0
H158 H 0.40993 0.64751 0.4739 0.0
H159 H 0.37141 0.747 0.45173 0.0
H160 H 0.47822 0.66178 0.42635 0.0
H161 H 0.33516 0.58643 0.4059 0.0
H162 H 0.57651 0.89104 0.47081 0.0
H163 H 0.33863 0.61072 0.49508 0.0
H164 H 0.30048 0.71384 0.47285 0.0
C165 C 0.37792 0.7346 0.09134 0.0
C166 C 0.41847 0.76934 0.08183 0.0
N167 N 0.41728 0.81089 0.08161 0.0
N168 N 0.35129 0.75407 0.09729 0.0
C169 C 0.37598 0.80048 0.09102 0.0
H170 H 0.36824 0.69735 0.09363 0.0
Co171 Co 0.29224 0.72188 0.1106 0.0
C172 C 0.30272 0.78602 0.14334 0.0
O173 O 0.28148 0.74695 0.1543 0.0
N174 N 0.23138 0.69004 0.12349 0.0
C175 C 0.16142 0.68168 0.13357 0.0
C176 C 0.20409 0.71136 0.12431 0.0
C177 C 0.20328 0.64627 0.1321 0.0
N178 N 0.16083 0.64072 0.13855 0.0
O179 O 0.26147 0.73735 0.08984 0.0
H180 H 0.21461 0.74675 0.11845 0.0
H181 H 0.21313 0.61878 0.13374 0.0
O182 O 0.30951 0.7821 0.1251 0.0
C183 C 0.25057 0.70694 0.07601 0.0
O184 O 0.26855 0.67795 0.07653 0.0
N185 N 0.32132 0.70156 0.12959 0.0
C186 C 0.36368 0.66076 0.15293 0.0
C187 C 0.38103 0.71071 0.15325 0.0
C188 C 0.3599 0.73058 0.14117 0.0
C189 C 0.30647 0.65368 0.12817 0.0
C190 C 0.32621 0.63235 0.13997 0.0
H191 H 0.37561 0.76932 0.14074 0.0
H192 H 0.27994 0.63206 0.11728 0.0
H193 H 0.3639 0.82616 0.0934 0.0
H194 H 0.44609 0.76401 0.0752 0.0
H195 H 0.13254 0.68931 0.13607 0.0
H196 H 0.41094 0.73429 0.16257 0.0
H197 H 0.31336 0.59414 0.13841 0.0
H198 H 0.42832 0.19487 0.23035 0.0
H199 H 0.39264 0.12297 0.20978 0.0
H200 H 0.49731 0.08637 0.23095 0.0
H201 H 0.53417 0.15914 0.2511 0.0
H202 H 0.48742 0.07552 0.19216 0.0
H203 H 0.3057 0.98551 0.22597 0.0
H204 H 0.32355 0.04466 0.2167 0.0
H205 H 0.3563 0.0377 0.23667 0.0
C206 C 0.44349 0.17129 0.23079 0.0
C207 C 0.48395 0.18266 0.24249 0.0
C208 C 0.42289 0.13001 0.21905 0.0
C209 C 0.44168 0.09863 0.21901 0.0
C210 C 0.48203 0.10988 0.23072 0.0
H211 H 0.30305 0.8037 0.1822 0.0
H212 H 0.3371 0.88096 0.19867 0.0
C213 C 0.50299 0.15145 0.24231 0.0
C214 C 0.41996 0.05458 0.20654 0.0
H215 H 0.31483 0.95002 0.19717 0.0
C216 C 0.44967 0.04804 0.19326 0.0
C217 C 0.37074 0.01848 0.20803 0.0
C218 C 0.33731 0.0216 0.22274 0.0
C219 C 0.43176 1.00638 0.18163 0.0
C220 C 0.38236 0.97067 0.18291 0.0
C221 C 0.35256 0.97754 0.19601 0.0
C222 C 0.36159 0.92395 0.1722 0.0
C223 C 0.46637 1.00024 0.16866 0.0
C224 C 0.36348 0.92194 0.15167 0.0
C225 C 0.34426 0.87729 0.14209 0.0
C226 C 0.32222 0.83389 0.15287 0.0
C227 C 0.31965 0.83623 0.17335 0.0
C228 C 0.33912 0.88057 0.18286 0.0
H229 H 0.50451 0.02476 0.17293 0.0
H230 H 0.45913 0.96249 0.16919 0.0
H231 H 0.46189 1.00884 0.15334 0.0
H232 H 0.37963 0.95482 0.14305 0.0
H233 H 0.34664 0.87677 0.1263 0.0
H234 H 0.20085 0.42746 0.82342 0.0
H235 H 0.12917 0.39231 0.8442 0.0
H236 H 0.09444 0.49878 0.8234 0.0
H237 H 0.16712 0.53519 0.80302 0.0
H238 H 0.08287 0.48791 0.86215 0.0
H239 H 0.99203 0.3068 0.82808 0.0
H240 H 0.05083 0.32377 0.83729 0.0
H241 H 0.04458 0.35739 0.81742 0.0
C242 C 0.17774 0.44316 0.8231 0.0
C243 C 0.18958 0.48395 0.81142 0.0
C244 C 0.13658 0.42287 0.83497 0.0
C245 C 0.10574 0.44226 0.83516 0.0
C246 C 0.11751 0.48302 0.8235 0.0
H247 H 0.81099 0.30339 0.8722 0.0
H248 H 0.88835 0.33805 0.85572 0.0
C249 C 0.15901 0.50372 0.81179 0.0
C250 C 0.06162 0.42057 0.84767 0.0
H251 H 0.9568 0.31548 0.85708 0.0
C252 C 0.05525 0.4502 0.86103 0.0
C253 C 0.02534 0.37141 0.84615 0.0
C254 C 0.0282 0.3381 0.83134 0.0
C255 C 1.01358 0.43224 0.87273 0.0
C256 C 0.97771 0.38289 0.87144 0.0
C257 C 0.98443 0.35318 0.85825 0.0
C258 C 0.93094 0.36208 0.88218 0.0
C259 C 1.00764 0.46678 0.8858 0.0
C260 C 0.92864 0.36359 0.90272 0.0
C261 C 0.88389 0.34403 0.91232 0.0
C262 C 0.84069 0.32199 0.90154 0.0
C263 C 0.84334 0.31992 0.88105 0.0
C264 C 0.88775 0.33975 0.87154 0.0
H265 H 0.03232 0.50502 0.88155 0.0
H266 H 0.97001 0.45976 0.88537 0.0
H267 H 0.01611 0.46192 0.90109 0.0
H268 H 0.96136 0.37962 0.91133 0.0
H269 H 0.88313 0.34606 0.92811 0.0
H270 H 0.54851 0.67794 0.45996 0.0
H271 H 0.59392 0.64502 0.47673 0.0
H272 H 0.55864 0.6821 0.53245 0.0
H273 H 0.51507 0.71599 0.51601 0.0
H274 H 0.65072 0.70734 0.53149 0.0
H275 H 0.54118 0.51834 0.50569 0.0
H276 H 0.56771 0.56254 0.48651 0.0
H277 H 0.52261 0.56256 0.50213 0.0
C278 C 0.55056 0.67907 0.47578 0.0
C279 C 0.52809 0.69966 0.48659 0.0
C280 C 0.57621 0.6599 0.48537 0.0
C281 C 0.57923 0.66041 0.50593 0.0
C282 C 0.55698 0.6812 0.51662 0.0
H283 H 0.64465 0.4885 0.58496 0.0
H284 H 0.60791 0.52436 0.56447 0.0
C285 C 0.53191 0.7006 0.50712 0.0
C286 C 0.60583 0.64017 0.51667 0.0
H287 H 0.60834 0.53617 0.52561 0.0
C288 C 0.64155 0.66993 0.53013 0.0
C289 C 0.59352 0.59118 0.51514 0.0
C290 C 0.55389 0.55658 0.50174 0.0
C291 C 0.66462 0.65208 0.54226 0.0
C292 C 0.65284 0.60327 0.54054 0.0
C293 C 0.61759 0.57361 0.5269 0.0
C294 C 0.6756 0.58192 0.55313 0.0
C295 C 0.69998 0.68534 0.55734 0.0
C296 C 0.72592 0.60209 0.55361 0.0
C297 C 0.74705 0.58206 0.56555 0.0
C298 C 0.71829 0.54079 0.577 0.0
C299 C 0.66788 0.52032 0.57636 0.0
C300 C 0.64681 0.54071 0.56458 0.0
H301 H 0.69434 0.71615 0.56062 0.0
H302 H 0.69694 0.66578 0.5712 0.0
H303 H 0.7372 0.70039 0.55163 0.0
H304 H 0.74895 0.63306 0.54457 0.0
H305 H 0.78593 0.59836 0.56545 0.0
H306 H 0.45983 0.69475 0.16009 0.0
H307 H 0.49587 0.65264 0.17694 0.0
H308 H 0.35403 0.53354 0.18978 0.0
H309 H 0.31775 0.57536 0.17308 0.0
H310 H 0.48493 0.61226 0.21582 0.0
H311 H 0.41951 0.47301 0.15765 0.0
H312 H 0.4202 0.52944 0.15474 0.0
H313 H 0.37349 0.48127 0.16887 0.0
C314 C 0.4363 0.66001 0.16681 0.0
C315 C 0.38589 0.63816 0.16503 0.0
C316 C 0.45696 0.63592 0.17639 0.0
C317 C 0.42763 0.58962 0.18431 0.0
C318 C 0.37735 0.56885 0.18344 0.0
H319 H 0.5102 0.41367 0.25516 0.0
H320 H 0.47932 0.46641 0.24443 0.0
C321 C 0.35669 0.59278 0.17386 0.0
C322 C 0.4494 0.56179 0.19247 0.0
H323 H 0.45657 0.46009 0.18509 0.0
C324 C 0.4788 0.57899 0.20914 0.0
C325 C 0.4418 0.5187 0.18357 0.0
C326 C 0.4124 0.4996 0.16512 0.0
C327 C 0.50036 0.55384 0.21727 0.0
C328 C 0.4919 0.51023 0.20857 0.0
C329 C 0.46279 0.49336 0.19183 0.0
C330 C 0.51396 0.48199 0.21606 0.0
C331 C 0.53278 0.57461 0.23482 0.0
C332 C 0.54368 0.47322 0.20374 0.0
C333 C 0.56114 0.44307 0.20979 0.0
C334 C 0.54914 0.42073 0.2283 0.0
C335 C 0.52054 0.4307 0.24091 0.0
C336 C 0.50291 0.46089 0.23479 0.0
H337 H 0.54452 0.61338 0.2369 0.0
H338 H 0.51291 0.55463 0.24814 0.0
H339 H 0.56524 0.5708 0.23339 0.0
H340 H 0.55278 0.48916 0.18924 0.0
H341 H 0.58368 0.43683 0.19984 0.0
H342 H 0.40489 0.82338 0.80465 0.0
H343 H 0.43944 0.89633 0.82447 0.0
H344 H 0.34954 0.81428 0.87306 0.0
H345 H 0.31578 0.74043 0.8534 0.0
H346 H 0.40424 0.94688 0.84563 0.0
H347 H 0.48645 0.86723 0.89417 0.0
H348 H 0.45847 0.84012 0.87122 0.0
H349 H 0.42187 0.83406 0.8921 0.0
C350 C 0.39218 0.82085 0.81952 0.0
C351 C 0.35832 0.77596 0.82759 0.0
C352 C 0.41167 0.86269 0.83078 0.0
C353 C 0.39775 0.86062 0.85035 0.0
C354 C 0.3614 0.81652 0.85807 0.0
H355 H 0.5528 0.13023 0.92008 0.0
H356 H 0.48445 0.05817 0.90551 0.0
C357 C 0.34185 0.77445 0.84678 0.0
C358 C 0.42501 0.90379 0.86288 0.0
H359 H 0.50958 0.94819 0.89913 0.0
C360 C 0.42661 0.94708 0.85759 0.0
C361 C 0.45452 0.90398 0.87836 0.0
C362 C 0.45574 0.85906 0.88429 0.0
C363 C 0.45842 0.99091 0.86682 0.0
C364 C 0.48907 0.99123 0.88177 0.0
C365 C 0.4858 0.94764 0.88769 0.0
C366 C 0.52916 0.03674 0.88971 0.0
C367 C 0.46117 0.03698 0.85981 0.0
C368 C 0.57667 0.04867 0.88551 0.0
C369 C 0.61538 0.08944 0.89372 0.0
C370 C 0.60759 0.11925 0.90644 0.0
C371 C 0.55993 0.10816 0.91022 0.0
C372 C 0.52092 0.06702 0.90195 0.0
H373 H 0.43809 0.03116 0.8468 0.0
H374 H 0.44931 0.05217 0.8717 0.0
H375 H 0.49899 0.06416 0.85607 0.0
H376 H 0.58381 0.02596 0.87599 0.0
H377 H 0.65158 0.09743 0.89021 0.0
H378 H 0.88226 0.44419 0.53842 0.0
H379 H 0.96642 0.47405 0.52965 0.0
H380 H 1.012 0.55064 0.58429 0.0
H381 H 0.92734 0.52109 0.5931 0.0
H382 H 0.05795 0.60766 0.55063 0.0
H383 H 0.06566 0.43856 0.55043 0.0
H384 H 0.01535 0.434 0.53699 0.0
H385 H 0.0189 0.44386 0.56296 0.0
C386 C 0.91013 0.46712 0.54864 0.0
C387 C 0.89815 0.48045 0.56642 0.0
C388 C 0.95823 0.48374 0.5437 0.0
C389 C 0.99548 0.51407 0.55641 0.0
C390 C 0.98375 0.52688 0.57435 0.0
H391 H 0.29994 0.62269 0.5236 0.0
H392 H 0.22554 0.58755 0.5431 0.0
C393 C 0.93543 0.50984 0.5794 0.0
C394 C 0.04644 0.53535 0.55004 0.0
H395 H 0.1277 0.50543 0.53225 0.0
C396 C 0.07353 0.58543 0.54695 0.0
C397 C 0.06693 0.50638 0.54538 0.0
C398 C 0.0404 0.45275 0.54928 0.0
C399 C 0.11942 0.60688 0.53827 0.0
C400 C 0.13854 0.57748 0.53245 0.0
C401 C 0.11273 0.52783 0.53657 0.0
C402 C 0.18338 0.59724 0.52069 0.0
C403 C 0.14667 0.66074 0.5349 0.0
C404 C 0.18387 0.61314 0.50152 0.0
C405 C 0.22589 0.63256 0.49029 0.0
C406 C 0.26864 0.63686 0.49802 0.0
C407 C 0.26771 0.61978 0.51714 0.0
C408 C 0.22534 0.59995 0.52835 0.0
H409 H 0.13292 0.67944 0.54431 0.0
H410 H 0.18576 0.67597 0.53779 0.0
H411 H 0.14242 0.6684 0.51941 0.0
H412 H 0.15157 0.61045 0.49521 0.0
H413 H 0.22469 0.644 0.47547 0.0
H414 H 0.58334 0.31181 0.8788 0.0
H415 H 0.54138 0.34582 0.86064 0.0
H416 H 0.65625 0.48958 0.87383 0.0
H417 H 0.69856 0.45575 0.89198 0.0
H418 H 0.50817 0.4008 0.87663 0.0
H419 H 0.63365 0.50169 0.81597 0.0
H420 H 0.63879 0.457 0.83037 0.0
H421 H 0.66159 0.51708 0.83963 0.0
C422 C 0.59993 0.3507 0.87767 0.0
C423 C 0.64421 0.38107 0.88691 0.0
C424 C 0.57599 0.37008 0.86721 0.0
C425 C 0.59581 0.42027 0.86569 0.0
C426 C 0.64072 0.45076 0.8744 0.0
H427 H 0.44243 0.57475 0.85265 0.0
H428 H 0.49277 0.54095 0.86244 0.0
C429 C 0.66485 0.43136 0.88482 0.0
C430 C 0.56725 0.44035 0.85666 0.0
H431 H 0.57006 0.51893 0.82186 0.0
C432 C 0.52161 0.42629 0.86454 0.0
C433 C 0.5845 0.47328 0.84076 0.0
C434 C 0.63212 0.48784 0.83104 0.0
C435 C 0.4934 0.44522 0.85736 0.0
C436 C 0.51154 0.47976 0.84207 0.0
C437 C 0.55648 0.4928 0.83372 0.0
C438 C 0.48467 0.50368 0.83518 0.0
C439 C 0.44434 0.42816 0.86626 0.0
C440 C 0.46478 0.49535 0.81631 0.0
C441 C 0.43565 0.51458 0.81066 0.0
C442 C 0.42608 0.5425 0.8238 0.0
C443 C 0.44806 0.5525 0.84234 0.0
C444 C 0.47703 0.53336 0.84794 0.0
H445 H 0.43085 0.3934 0.87423 0.0
H446 H 0.44679 0.45551 0.87682 0.0
H447 H 0.41769 0.42358 0.85484 0.0
H448 H 0.47041 0.47264 0.80621 0.0
H449 H 0.41919 0.50605 0.79631 0.0
H450 H 0.59624 0.20236 0.58316 0.0
H451 H 0.55708 0.12895 0.56362 0.0
H452 H 0.54844 0.21012 0.51479 0.0
H453 H 0.58915 0.28441 0.53419 0.0
H454 H 0.47034 0.0785 0.54267 0.0
H455 H 0.63138 0.15555 0.49389 0.0
H456 H 0.63133 0.18323 0.51678 0.0
H457 H 0.60062 0.18935 0.49593 0.0
C458 C 0.58572 0.20459 0.5683 0.0
C459 C 0.59665 0.24934 0.56008 0.0
C460 C 0.56295 0.16251 0.5572 0.0
C461 C 0.5506 0.16418 0.53764 0.0
C462 C 0.55839 0.20818 0.52977 0.0
H463 H 0.43407 0.89356 0.46853 0.0
H464 H 0.43835 0.96609 0.48283 0.0
C465 C 0.58129 0.2505 0.54091 0.0
C466 C 0.5341 0.12064 0.5253 0.0
H467 H 0.57311 0.07452 0.48938 0.0
C468 C 0.49222 0.07773 0.53075 0.0
C469 C 0.56305 0.1197 0.50987 0.0
C470 C 0.60929 0.16421 0.50378 0.0
C471 C 0.47965 0.03355 0.52171 0.0
C472 C 0.50963 0.03246 0.50684 0.0
C473 C 0.55015 0.07567 0.50076 0.0
C474 C 0.50365 0.98654 0.49917 0.0
C475 C 0.43611 0.98789 0.52886 0.0
C476 C 0.53852 0.97387 0.50381 0.0
C477 C 0.53611 0.9328 0.49576 0.0
C478 C 0.49889 0.90346 0.48277 0.0
C479 C 0.46295 0.91524 0.47859 0.0
C480 C 0.46542 0.95666 0.4867 0.0
H481 H 0.41871 0.99437 0.54162 0.0
H482 H 0.40925 0.97222 0.51689 0.0
H483 H 0.44659 0.96081 0.53303 0.0
H484 H 0.56813 0.99627 0.5135 0.0
H485 H 0.56382 0.92427 0.49957 0.0
H486 H 0.10084 0.64359 0.16537 0.0
H487 H 0.02948 0.57538 0.17967 0.0
H488 H 0.06005 0.47665 0.14869 0.0
H489 H 0.13207 0.54549 0.1341 0.0
H490 H 0.95148 0.5038 0.15655 0.0
H491 H 0.03203 0.42555 0.20672 0.0
H492 H 0.06597 0.48703 0.19792 0.0
H493 H 0.05282 0.438 0.18176 0.0
C494 C 0.09255 0.60742 0.1616 0.0
C495 C 0.12183 0.59996 0.14843 0.0
C496 C 0.05184 0.56845 0.16985 0.0
C497 C 0.03941 0.52099 0.16523 0.0
C498 C 0.06928 0.51305 0.15258 0.0
H499 H 0.74172 0.30777 0.20029 0.0
H500 H 0.81593 0.34222 0.18073 0.0
C501 C 0.1104 0.55233 0.1443 0.0
C502 C 0.99362 0.48069 0.17303 0.0
H503 H 0.94788 0.39223 0.208 0.0
C504 C 0.95044 0.47873 0.16755 0.0
C505 C 0.99263 0.44832 0.1874 0.0
C506 C 0.03822 0.44962 0.19397 0.0
C507 C 0.90659 0.44699 0.17675 0.0
C508 C 0.90571 0.41559 0.19162 0.0
C509 C 0.94858 0.41602 0.19648 0.0
C510 C 0.86224 0.38732 0.20399 0.0
C511 C 0.86224 0.44965 0.17134 0.0
C512 C 0.86411 0.39905 0.22383 0.0
C513 C 0.82204 0.37911 0.23504 0.0
C514 C 0.77711 0.347 0.22665 0.0
C515 C 0.77574 0.33246 0.20717 0.0
C516 C 0.81804 0.35244 0.19593 0.0
H517 H 0.87104 0.48168 0.16209 0.0
H518 H 0.83708 0.41688 0.16302 0.0
H519 H 0.84326 0.45112 0.18467 0.0
H520 H 0.8978 0.42563 0.23041 0.0
H521 H 0.82443 0.39029 0.25012 0.0
H522 H 0.44204 0.79033 0.37575 0.0
H523 H 0.47475 0.8654 0.35707 0.0
H524 H 0.59693 0.93198 0.39588 0.0
H525 H 0.56412 0.85635 0.4148 0.0
H526 H 0.48997 0.95162 0.37813 0.0
H527 H 0.65359 0.97838 0.33871 0.0
H528 H 0.60578 0.91922 0.34601 0.0
H529 H 0.64639 0.95985 0.36399 0.0
C530 C 0.4767 0.82042 0.37997 0.0
C531 C 0.50051 0.81739 0.39675 0.0
C532 C 0.49525 0.86339 0.3693 0.0
C533 C 0.53817 0.90434 0.37508 0.0
C534 C 0.56398 0.90063 0.39103 0.0
H535 H 0.67248 0.20281 0.33445 0.0
H536 H 0.65449 0.127 0.34996 0.0
C537 C 0.54536 0.85732 0.40176 0.0
C538 C 0.55194 0.95181 0.36593 0.0
H539 H 0.63407 0.04019 0.33579 0.0
C540 C 0.52149 0.97102 0.36886 0.0
C541 C 0.59327 0.97724 0.35403 0.0
C542 C 0.62673 0.95778 0.35032 0.0
C543 C 0.53117 0.01494 0.36025 0.0
C544 C 0.57176 0.03986 0.34783 0.0
C545 C 0.60272 0.02098 0.34514 0.0
C546 C 0.58289 0.0858 0.33775 0.0
C547 C 0.49828 0.03466 0.36494 0.0
C548 C 0.54901 0.08807 0.32536 0.0
C549 C 0.55882 0.13183 0.31665 0.0
C550 C 0.60312 0.17442 0.31989 0.0
C551 C 0.63754 0.17147 0.33183 0.0
C552 C 0.62752 0.1278 0.34063 0.0
H553 H 0.47837 0.01941 0.37885 0.0
H554 H 0.51881 0.07462 0.36613 0.0
H555 H 0.47126 0.02467 0.35309 0.0
H556 H 0.51472 0.05595 0.32248 0.0
H557 H 0.53126 0.13218 0.30762 0.0
H558 H 0.90473 0.43361 0.96557 0.0
H559 H 0.97905 0.49193 0.98215 0.0
H560 H 0.8979 0.53598 1.0183 0.0
H561 H 0.82354 0.47692 1.00238 0.0
H562 H 0.02203 0.59254 0.98538 0.0
H563 H 0.97256 0.50549 0.05864 0.0
H564 H 0.94012 0.47532 0.03676 0.0
H565 H 0.9292 0.51925 0.04836 0.0
C566 C 0.90252 0.45523 0.9772 0.0
C567 C 0.85778 0.45013 0.98262 0.0
C568 C 0.94517 0.4889 0.98657 0.0
C569 C 0.94408 0.51797 1.00167 0.0
C570 C 0.89967 0.51344 1.00694 0.0
H571 H 0.17184 0.71867 0.08106 0.0
H572 H 0.09716 0.68005 0.06173 0.0
C573 C 0.85708 0.47986 0.99761 0.0
C574 C 0.98931 0.55307 1.01188 0.0
H575 H 0.04438 0.58094 0.0566 0.0
C576 C 0.0269 0.59002 1.00096 0.0
C577 C 0.99563 0.55008 0.03225 0.0
C578 C 0.95747 0.51019 0.0447 0.0
C579 C 0.07054 0.62388 1.00981 0.0
C580 C 0.07717 0.62035 0.03011 0.0
C581 C 0.03922 0.58399 0.04109 0.0
C582 C 0.12445 0.65085 0.03997 0.0
C583 C 0.10909 0.66329 0.99735 0.0
C584 C 0.16502 0.6484 0.03393 0.0
C585 C 0.2075 0.6704 0.0449 0.0
C586 C 0.21052 0.69537 0.0622 0.0
C587 C 0.17093 0.70037 0.06765 0.0
C588 C 0.1281 0.67792 0.0567 0.0
H589 H 0.0934 0.67082 0.98422 0.0
H590 H 0.12983 0.69724 1.00574 0.0
H591 H 0.13448 0.65158 0.99225 0.0
H592 H 0.16301 0.62704 1.02135 0.0
H593 H 0.23723 0.66557 0.0404 0.0
H594 H 0.38156 0.58563 0.71653 0.0
H595 H 0.42244 0.5517 0.69794 0.0
H596 H 0.39064 0.44634 0.74358 0.0
H597 H 0.34834 0.4798 0.76212 0.0
H598 H 0.50302 0.55396 0.71159 0.0
H599 H 0.36415 0.36498 0.69444 0.0
H600 H 0.34875 0.40954 0.7021 0.0
H601 H 0.36804 0.38102 0.71979 0.0
C602 C 0.38195 0.55423 0.72232 0.0
C603 C 0.36151 0.5351 0.74068 0.0
C604 C 0.40555 0.53502 0.71173 0.0
C605 C 0.40972 0.49643 0.71929 0.0
C606 C 0.38721 0.47555 0.73724 0.0
H607 H 0.58742 0.37568 0.68179 0.0
H608 H 0.53337 0.3956 0.69928 0.0
C609 C 0.36291 0.49455 0.74781 0.0
C610 C 0.44188 0.48211 0.70924 0.0
H611 H 0.44531 0.38848 0.6869 0.0
C612 C 0.49027 0.51778 0.70614 0.0
C613 C 0.42547 0.43484 0.70225 0.0
C614 C 0.37368 0.3954 0.70463 0.0
C615 C 0.52256 0.50761 0.69627 0.0
C616 C 0.50602 0.46059 0.68901 0.0
C617 C 0.45788 0.42461 0.69237 0.0
C618 C 0.53837 0.44814 0.67802 0.0
C619 C 0.57439 0.54718 0.69397 0.0
C620 C 0.55905 0.47083 0.66013 0.0
C621 C 0.58995 0.45935 0.64997 0.0
C622 C 0.60066 0.4247 0.65745 0.0
C623 C 0.57966 0.40202 0.67538 0.0
C624 C 0.54876 0.41346 0.68548 0.0
H625 H 0.58401 0.57713 0.70442 0.0
H626 H 0.59934 0.53294 0.69622 0.0
H627 H 0.57997 0.56225 0.67893 0.0
H628 H 0.55094 0.49716 0.65392 0.0
H629 H 0.60469 0.477 0.6361 0.0
H630 H 0.14711 0.52826 0.74019 0.0
H631 H 0.07295 0.51124 0.72319 0.0
H632 H 0.14016 0.65917 0.70376 0.0
H633 H 0.21375 0.67709 0.72103 0.0
H634 H 0.01711 0.56448 0.7278 0.0
H635 H 0.08869 0.57279 0.65284 0.0
H636 H 0.11488 0.56163 0.67425 0.0
H637 H 0.12536 0.62123 0.66931 0.0
C638 C 0.14621 0.5574 0.73249 0.0
C639 C 0.18708 0.60405 0.73195 0.0
C640 C 0.10373 0.5475 0.72269 0.0
C641 C 0.10129 0.58382 0.71202 0.0
C642 C 0.14153 0.63043 0.71166 0.0
H643 H 0.87088 0.55293 0.63202 0.0
H644 H 0.94533 0.59065 0.65169 0.0
C645 C 0.18382 0.64049 0.72152 0.0
C646 C 0.05667 0.57306 0.70127 0.0
H647 H 1.00922 0.55807 0.65532 0.0
C648 C 0.01537 0.56322 0.71196 0.0
C649 C 0.05473 0.57227 0.6806 0.0
C650 C 0.09808 0.58225 0.66846 0.0
C651 C 0.97193 0.5519 0.70253 0.0
C652 C 0.96931 0.54903 0.68184 0.0
C653 C 1.01113 0.56037 0.67115 0.0
C654 C 0.92263 0.52941 0.67117 0.0
C655 C 0.9293 0.54325 0.71487 0.0
C656 C 0.88505 0.4828 0.67563 0.0
C657 C 0.84286 0.46154 0.66456 0.0
C658 C 0.8371 0.48607 0.64859 0.0
C659 C 0.874 0.5334 0.6444 0.0
C660 C 0.91663 0.55479 0.65554 0.0
H661 H 0.94118 0.56352 0.72883 0.0
H662 H 0.90574 0.55401 0.70702 0.0
H663 H 0.90773 0.50428 0.71857 0.0
H664 H 0.88906 0.4619 0.68722 0.0
H665 H 0.81524 0.42496 0.66815 0.0
H666 H 0.60868 0.41607 0.32536 0.0
H667 H 0.5708 0.44907 0.34588 0.0
H668 H 0.4311 0.34428 0.32363 0.0
H669 H 0.46952 0.3111 0.30231 0.0
H670 H 0.44512 0.4371 0.32404 0.0
H671 H 0.49639 0.39798 0.39599 0.0
H672 H 0.54808 0.42875 0.38041 0.0
H673 H 0.50003 0.3695 0.37384 0.0
C674 C 0.56978 0.39942 0.32485 0.0
C675 C 0.54214 0.36069 0.31216 0.0
C676 C 0.54809 0.41825 0.33681 0.0
C677 C 0.49798 0.39866 0.33669 0.0
C678 C 0.46986 0.35969 0.32414 0.0
H679 H 0.34477 0.52192 0.39972 0.0
H680 H 0.36137 0.46684 0.38121 0.0
C681 C 0.49176 0.34061 0.31203 0.0
C682 C 0.47643 0.42153 0.34892 0.0
H683 H 0.47974 0.46392 0.39507 0.0
C684 C 0.45173 0.44207 0.33965 0.0
C685 C 0.48502 0.42812 0.36932 0.0
C686 C 0.50839 0.40444 0.38048 0.0
C687 C 0.43795 0.47122 0.35 0.0
C688 C 0.44902 0.47991 0.37014 0.0
C689 C 0.47184 0.45775 0.37957 0.0
C690 C 0.43877 0.51329 0.3815 0.0
C691 C 0.41358 0.49434 0.33918 0.0
C692 C 0.47683 0.55748 0.38814 0.0
C693 C 0.46755 0.58951 0.39861 0.0
C694 C 0.41987 0.57788 0.40286 0.0
C695 C 0.3819 0.53292 0.39648 0.0
C696 C 0.39127 0.50111 0.3859 0.0
H697 H 0.4137 0.48962 0.3231 0.0
H698 H 0.37558 0.47778 0.34414 0.0
H699 H 0.43168 0.53354 0.34246 0.0
H700 H 0.51383 0.56753 0.38494 0.0
H701 H 0.49784 0.62368 0.40303 0.0
H702 H 0.72207 0.16972 0.97293 0.0
H703 H 0.68157 0.09417 0.99192 0.0
H704 H 0.63064 0.16068 0.03289 0.0
H705 H 0.67084 0.23583 1.0141 0.0
H706 H 0.65899 0.0973 0.05062 0.0
H707 H 0.53181 0.01325 0.98848 0.0
H708 H 0.59485 0.03874 0.98299 0.0
H709 H 0.57213 0.07757 0.99011 0.0
C710 C 0.70359 0.16867 0.98633 0.0
C711 C 0.69953 0.2087 0.992 0.0
C712 C 0.67997 0.12531 0.99705 0.0
C713 C 0.65227 0.1215 1.01363 0.0
C714 C 0.65152 0.16263 1.02011 0.0
H715 H 0.40183 0.88106 0.06679 0.0
H716 H 0.46103 0.95638 0.05078 0.0
C717 C 0.67466 0.20564 1.00937 0.0
C718 C 0.62061 0.07417 1.02337 0.0
H719 H 0.51748 0.96565 1.01671 0.0
C720 C 0.62835 0.06828 0.04317 0.0
C721 C 0.58005 0.03668 1.01372 0.0
C722 C 0.56873 0.04169 0.9927 0.0
C723 C 0.59664 0.02601 0.05357 0.0
C724 C 0.55619 0.98852 0.0439 0.0
C725 C 0.54857 0.99433 1.02409 0.0
C726 C 0.52074 0.94336 0.05416 0.0
C727 C 0.60581 0.02235 0.07498 0.0
C728 C 0.53451 0.91089 0.06136 0.0
C729 C 0.50075 0.86783 0.07052 0.0
C730 C 0.45236 0.85618 0.0727 0.0
C731 C 0.43878 0.88902 0.06559 0.0
C732 C 0.47255 0.93198 0.05631 0.0
H733 H 0.63225 0.05797 0.08121 0.0
H734 H 0.57174 1.00728 0.08348 0.0
H735 H 0.62046 0.99764 0.07682 0.0
H736 H 0.57131 0.91857 0.05968 0.0
H737 H 0.51266 0.84371 0.07596 0.0
loop_
_geom_bond_atom_site_label_1
_geom_bond_atom_site_label_2
_geom_bond_distance
_geom_bond_site_symmetry_2
_ccdc_geom_bond_type
C0 C1 1.351 . S
C0 N3 1.368 . S
C0 H5 0.931 . S
C1 C0 1.351 . S
C1 N2 1.373 . S
C1 H29 0.930 . S
N2 C1 1.373 . S
N2 C4 1.340 . S
N3 C0 1.368 . S
N3 C4 1.321 . S
N3 Co6 2.135 . S
C4 N2 1.340 . S
C4 N3 1.321 . S
C4 H28 0.930 . S
H5 C0 0.931 . S
Co6 N3 2.135 . S
Co6 N9 2.121 . S
Co6 O14 2.055 . S
Co6 O17 2.039 . S
Co6 N20 2.140 . S
C7 O8 1.227 . S
C7 O17 1.265 . S
O8 C7 1.227 . S
N9 Co6 2.121 . S
N9 C11 1.375 . S
N9 C12 1.313 . S
C10 C11 1.338 . S
C10 N13 1.377 . S
C10 H30 0.930 . S
C11 N9 1.375 . S
C11 C10 1.338 . S
C11 H15 0.931 . S
C12 N9 1.313 . S
C12 N13 1.344 . S
C12 H16 0.930 . S
N13 C10 1.377 . S
N13 C12 1.344 . S
O14 Co6 2.055 . S
O14 C18 1.253 . S
H15 C11 0.931 . S
H16 C12 0.930 . S
O17 Co6 2.039 . S
O17 C7 1.265 . S
C18 O14 1.253 . S
C18 O19 1.227 . S
O19 C18 1.227 . S
N20 Co6 2.140 . S
N20 C23 1.346 . S
N20 C24 1.345 . S
C21 C22 1.387 . S
C21 C25 1.391 . S
C22 C21 1.387 . S
C22 C23 1.369 . S
C22 H31 0.929 . S
C23 N20 1.346 . S
C23 C22 1.369 . S
C23 H26 0.928 . S
C24 N20 1.345 . S
C24 C25 1.371 . S
C24 H27 0.931 . S
C25 C21 1.391 . S
C25 C24 1.371 . S
C25 H32 0.930 . S
H26 C23 0.928 . S
H27 C24 0.931 . S
H28 C4 0.930 . S
H29 C1 0.930 . S
H30 C10 0.930 . S
H31 C22 0.929 . S
H32 C25 0.930 . S
C33 C34 1.351 . S
C33 N36 1.368 . S
C33 H38 0.931 . S
C34 C33 1.351 . S
C34 N35 1.373 . S
C34 H62 0.930 . S
N35 C34 1.373 . S
N35 C37 1.340 . S
N36 C33 1.368 . S
N36 C37 1.321 . S
N36 Co39 2.135 . S
C37 N35 1.340 . S
C37 N36 1.321 . S
C37 H61 0.930 . S
H38 C33 0.931 . S
Co39 N36 2.135 . S
Co39 N42 2.121 . S
Co39 O47 2.055 . S
Co39 O50 2.039 . S
Co39 N53 2.140 . S
C40 O41 1.227 . S
C40 O50 1.265 . S
O41 C40 1.227 . S
N42 Co39 2.121 . S
N42 C44 1.375 . S
N42 C45 1.313 . S
C43 C44 1.338 . S
C43 N46 1.377 . S
C43 H63 0.930 . S
C44 N42 1.375 . S
C44 C43 1.338 . S
C44 H48 0.931 . S
C45 N42 1.313 . S
C45 N46 1.344 . S
C45 H49 0.930 . S
N46 C43 1.377 . S
N46 C45 1.344 . S
O47 Co39 2.055 . S
O47 C51 1.253 . S
H48 C44 0.931 . S
H49 C45 0.930 . S
O50 Co39 2.039 . S
O50 C40 1.265 . S
C51 O47 1.253 . S
C51 O52 1.227 . S
O52 C51 1.227 . S
N53 Co39 2.140 . S
N53 C56 1.346 . S
N53 C57 1.345 . S
C54 C55 1.387 . S
C54 C58 1.391 . S
C55 C54 1.387 . S
C55 C56 1.369 . S
C55 H64 0.929 . S
C56 N53 1.346 . S
C56 C55 1.369 . S
C56 H59 0.928 . S
C57 N53 1.345 . S
C57 C58 1.371 . S
C57 H60 0.931 . S
C58 C54 1.391 . S
C58 C57 1.371 . S
C58 H65 0.930 . S
H59 C56 0.928 . S
H60 C57 0.931 . S
H61 C37 0.930 . S
H62 C34 0.930 . S
H63 C43 0.930 . S
H64 C55 0.929 . S
H65 C58 0.930 . S
C66 C67 1.351 . S
C66 N69 1.368 . S
C66 H71 0.931 . S
C67 C66 1.351 . S
C67 N68 1.373 . S
C67 H95 0.930 . S
N68 C67 1.373 . S
N68 C70 1.340 . S
N69 C66 1.368 . S
N69 C70 1.321 . S
N69 Co72 2.135 . S
C70 N68 1.340 . S
C70 N69 1.321 . S
C70 H94 0.930 . S
H71 C66 0.931 . S
Co72 N69 2.135 . S
Co72 N75 2.121 . S
Co72 O80 2.055 . S
Co72 O83 2.039 . S
Co72 N86 2.140 . S
C73 O74 1.227 . S
C73 O83 1.265 . S
O74 C73 1.227 . S
N75 Co72 2.121 . S
N75 C77 1.375 . S
N75 C78 1.313 . S
C76 C77 1.338 . S
C76 N79 1.377 . S
C76 H96 0.930 . S
C77 N75 1.375 . S
C77 C76 1.338 . S
C77 H81 0.931 . S
C78 N75 1.313 . S
C78 N79 1.344 . S
C78 H82 0.930 . S
N79 C76 1.377 . S
N79 C78 1.344 . S
O80 Co72 2.055 . S
O80 C84 1.253 . S
H81 C77 0.931 . S
H82 C78 0.930 . S
O83 Co72 2.039 . S
O83 C73 1.265 . S
C84 O80 1.253 . S
C84 O85 1.227 . S
O85 C84 1.227 . S
N86 Co72 2.140 . S
N86 C89 1.346 . S
N86 C90 1.345 . S
C87 C88 1.387 . S
C87 C91 1.391 . S
C88 C87 1.387 . S
C88 C89 1.369 . S
C88 H97 0.929 . S
C89 N86 1.346 . S
C89 C88 1.369 . S
C89 H92 0.928 . S
C90 N86 1.345 . S
C90 C91 1.371 . S
C90 H93 0.931 . S
C91 C87 1.391 . S
C91 C90 1.371 . S
C91 H98 0.930 . S
H92 C89 0.928 . S
H93 C90 0.931 . S
H94 C70 0.930 . S
H95 C67 0.930 . S
H96 C76 0.930 . S
H97 C88 0.929 . S
H98 C91 0.930 . S
C99 C100 1.351 . S
C99 N102 1.368 . S
C99 H104 0.931 . S
C100 C99 1.351 . S
C100 N101 1.373 . S
C100 H128 0.930 . S
N101 C100 1.373 . S
N101 C103 1.340 . S
N102 C99 1.368 . S
N102 C103 1.321 . S
N102 Co105 2.135 . S
C103 N101 1.340 . S
C103 N102 1.321 . S
C103 H127 0.930 . S
H104 C99 0.931 . S
Co105 N102 2.135 . S
Co105 N108 2.121 . S
Co105 O113 2.055 . S
Co105 O116 2.039 . S
Co105 N119 2.140 . S
C106 O107 1.227 . S
C106 O116 1.265 . S
O107 C106 1.227 . S
N108 Co105 2.121 . S
N108 C110 1.375 . S
N108 C111 1.313 . S
C109 C110 1.338 . S
C109 N112 1.377 . S
C109 H129 0.930 . S
C110 N108 1.375 . S
C110 C109 1.338 . S
C110 H114 0.931 . S
C111 N108 1.313 . S
C111 N112 1.344 . S
C111 H115 0.930 . S
N112 C109 1.377 . S
N112 C111 1.344 . S
O113 Co105 2.055 . S
O113 C117 1.253 . S
H114 C110 0.931 . S
H115 C111 0.930 . S
O116 Co105 2.039 . S
O116 C106 1.265 . S
C117 O113 1.253 . S
C117 O118 1.227 . S
O118 C117 1.227 . S
N119 Co105 2.140 . S
N119 C122 1.346 . S
N119 C123 1.345 . S
C120 C121 1.387 . S
C120 C124 1.391 . S
C121 C120 1.387 . S
C121 C122 1.369 . S
C121 H130 0.929 . S
C122 N119 1.346 . S
C122 C121 1.369 . S
C122 H125 0.928 . S
C123 N119 1.345 . S
C123 C124 1.371 . S
C123 H126 0.931 . S
C124 C120 1.391 . S
C124 C123 1.371 . S
C124 H131 0.930 . S
H125 C122 0.928 . S
H126 C123 0.931 . S
H127 C103 0.930 . S
H128 C100 0.930 . S
H129 C109 0.930 . S
H130 C121 0.929 . S
H131 C124 0.930 . S
C132 C133 1.351 . S
C132 N135 1.368 . S
C132 H137 0.931 . S
C133 C132 1.351 . S
C133 N134 1.373 . S
C133 H161 0.930 . S
N134 C133 1.373 . S
N134 C136 1.340 . S
N135 C132 1.368 . S
N135 C136 1.321 . S
N135 Co138 2.135 . S
C136 N134 1.340 . S
C136 N135 1.321 . S
C136 H160 0.930 . S
H137 C132 0.931 . S
Co138 N135 2.135 . S
Co138 N141 2.121 . S
Co138 O146 2.055 . S
Co138 O149 2.039 . S
Co138 N152 2.140 . S
C139 O140 1.227 . S
C139 O149 1.265 . S
O140 C139 1.227 . S
N141 Co138 2.121 . S
N141 C143 1.375 . S
N141 C144 1.313 . S
C142 C143 1.338 . S
C142 N145 1.377 . S
C142 H162 0.930 . S
C143 N141 1.375 . S
C143 C142 1.338 . S
C143 H147 0.931 . S
C144 N141 1.313 . S
C144 N145 1.344 . S
C144 H148 0.930 . S
N145 C142 1.377 . S
N145 C144 1.344 . S
O146 Co138 2.055 . S
O146 C150 1.253 . S
H147 C143 0.931 . S
H148 C144 0.930 . S
O149 Co138 2.039 . S
O149 C139 1.265 . S
C150 O146 1.253 . S
C150 O151 1.227 . S
O151 C150 1.227 . S
N152 Co138 2.140 . S
N152 C155 1.346 . S
N152 C156 1.345 . S
C153 C154 1.387 . S
C153 C157 1.391 . S
C154 C153 1.387 . S
C154 C155 1.369 . S
C154 H163 0.929 . S
C155 N152 1.346 . S
C155 C154 1.369 . S
C155 H158 0.928 . S
C156 N152 1.345 . S
C156 C157 1.371 . S
C156 H159 0.931 . S
C157 C153 1.391 . S
C157 C156 1.371 . S
C157 H164 0.930 . S
H158 C155 0.928 . S
H159 C156 0.931 . S
H160 C136 0.930 . S
H161 C133 0.930 . S
H162 C142 0.930 . S
H163 C154 0.929 . S
H164 C157 0.930 . S
C165 C166 1.351 . S
C165 N168 1.368 . S
C165 H170 0.931 . S
C166 C165 1.351 . S
C166 N167 1.373 . S
C166 H194 0.930 . S
N167 C166 1.373 . S
N167 C169 1.340 . S
N168 C165 1.368 . S
N168 C169 1.321 . S
N168 Co171 2.135 . S
C169 N167 1.340 . S
C169 N168 1.321 . S
C169 H193 0.930 . S
H170 C165 0.931 . S
Co171 N168 2.135 . S
Co171 N174 2.121 . S
Co171 O179 2.055 . S
Co171 O182 2.039 . S
Co171 N185 2.140 . S
C172 O173 1.227 . S
C172 O182 1.265 . S
O173 C172 1.227 . S
N174 Co171 2.121 . S
N174 C176 1.375 . S
N174 C177 1.313 . S
C175 C176 1.338 . S
C175 N178 1.377 . S
C175 H195 0.930 . S
C176 N174 1.375 . S
C176 C175 1.338 . S
C176 H180 0.931 . S
C177 N174 1.313 . S
C177 N178 1.344 . S
C177 H181 0.930 . S
N178 C175 1.377 . S
N178 C177 1.344 . S
O179 Co171 2.055 . S
O179 C183 1.253 . S
H180 C176 0.931 . S
H181 C177 0.930 . S
O182 Co171 2.039 . S
O182 C172 1.265 . S
C183 O179 1.253 . S
C183 O184 1.227 . S
O184 C183 1.227 . S
N185 Co171 2.140 . S
N185 C188 1.346 . S
N185 C189 1.345 . S
C186 C187 1.387 . S
C186 C190 1.391 . S
C187 C186 1.387 . S
C187 C188 1.369 . S
C187 H196 0.929 . S
C188 N185 1.346 . S
C188 C187 1.369 . S
C188 H191 0.928 . S
C189 N185 1.345 . S
C189 C190 1.371 . S
C189 H192 0.931 . S
C190 C186 1.391 . S
C190 C189 1.371 . S
C190 H197 0.930 . S
H191 C188 0.928 . S
H192 C189 0.931 . S
H193 C169 0.930 . S
H194 C166 0.930 . S
H195 C175 0.930 . S
H196 C187 0.929 . S
H197 C190 0.930 . S
H198 C206 0.929 . S
H199 C208 0.930 . S
H200 C210 0.930 . S
H201 C213 0.929 . S
H202 C216 0.930 . S
H203 C218 0.960 . S
H204 C218 0.960 . S
H205 C218 0.960 . S
C206 H198 0.929 . S
C206 C207 1.377 . S
C206 C208 1.384 . S
C207 C206 1.377 . S
C207 C213 1.390 . S
C208 H199 0.930 . S
C208 C206 1.384 . S
C208 C209 1.372 . S
C209 C208 1.372 . S
C209 C210 1.400 . S
C209 C214 1.490 . S
C210 H200 0.930 . S
C210 C209 1.400 . S
C210 C213 1.386 . S
H211 C227 0.930 . S
H212 C228 0.931 . S
C213 H201 0.929 . S
C213 C207 1.390 . S
C213 C210 1.386 . S
C214 C209 1.490 . S
C214 C216 1.395 . S
C214 C217 1.403 . S
H215 C221 0.930 . S
C216 H202 0.930 . S
C216 C214 1.395 . S
C216 C219 1.403 1_545 S
C217 C214 1.403 . S
C217 C218 1.524 . S
C217 C221 1.400 1_545 S
C218 H203 0.960 . S
C218 H204 0.960 . S
C218 H205 0.960 . S
C218 C217 1.524 . S
C219 C216 1.403 1_565 S
C219 C220 1.392 . S
C219 C223 1.495 . S
C220 C219 1.392 . S
C220 C221 1.385 . S
C220 C222 1.478 . S
C221 H215 0.930 . S
C221 C217 1.400 1_565 S
C221 C220 1.385 . S
C222 C220 1.478 . S
C222 C224 1.381 . S
C222 C228 1.383 . S
C223 C219 1.495 . S
C223 H229 0.959 . S
C223 H230 0.961 . S
C223 H231 0.960 . S
C224 C222 1.381 . S
C224 C225 1.394 . S
C224 H232 0.930 . S
C225 C224 1.394 . S
C225 C226 1.383 . S
C225 H233 0.929 . S
C226 C225 1.383 . S
C226 C227 1.377 . S
C227 H211 0.930 . S
C227 C226 1.377 . S
C227 C228 1.379 . S
C228 H212 0.931 . S
C228 C222 1.383 . S
C228 C227 1.379 . S
H229 C223 0.959 . S
H230 C223 0.961 . S
H231 C223 0.960 . S
H232 C224 0.930 . S
H233 C225 0.929 . S
H234 C242 0.929 . S
H235 C244 0.930 . S
H236 C246 0.930 . S
H237 C249 0.929 . S
H238 C252 0.930 . S
H239 C254 0.960 . S
H240 C254 0.960 . S
H241 C254 0.960 . S
C242 H234 0.929 . S
C242 C243 1.377 . S
C242 C244 1.384 . S
C243 C242 1.377 . S
C243 C249 1.390 . S
C244 H235 0.930 . S
C244 C242 1.384 . S
C244 C245 1.372 . S
C245 C244 1.372 . S
C245 C246 1.400 . S
C245 C250 1.490 . S
C246 H236 0.930 . S
C246 C245 1.400 . S
C246 C249 1.386 . S
H247 C263 0.930 . S
H248 C264 0.931 . S
C249 H237 0.929 . S
C249 C243 1.390 . S
C249 C246 1.386 . S
C250 C245 1.490 . S
C250 C252 1.395 . S
C250 C253 1.403 . S
H251 C257 0.930 . S
C252 H238 0.930 . S
C252 C250 1.395 . S
C252 C255 1.403 1_455 S
C253 C250 1.403 . S
C253 C254 1.524 . S
C253 C257 1.400 1_455 S
C254 H239 0.960 . S
C254 H240 0.960 . S
C254 H241 0.960 . S
C254 C253 1.524 . S
C255 C252 1.403 1_655 S
C255 C256 1.392 . S
C255 C259 1.495 . S
C256 C255 1.392 . S
C256 C257 1.385 . S
C256 C258 1.478 . S
C257 H251 0.930 . S
C257 C253 1.400 1_655 S
C257 C256 1.385 . S
C258 C256 1.478 . S
C258 C260 1.381 . S
C258 C264 1.383 . S
C259 C255 1.495 . S
C259 H265 0.959 . S
C259 H266 0.961 . S
C259 H267 0.960 . S
C260 C258 1.381 . S
C260 C261 1.394 . S
C260 H268 0.930 . S
C261 C260 1.394 . S
C261 C262 1.383 . S
C261 H269 0.929 . S
C262 C261 1.383 . S
C262 C263 1.377 . S
C263 H247 0.930 . S
C263 C262 1.377 . S
C263 C264 1.379 . S
C264 H248 0.931 . S
C264 C258 1.383 . S
C264 C263 1.379 . S
H265 C259 0.959 . S
H266 C259 0.961 . S
H267 C259 0.960 . S
H268 C260 0.930 . S
H269 C261 0.929 . S
H270 C278 0.929 . S
H271 C280 0.930 . S
H272 C282 0.930 . S
H273 C285 0.929 . S
H274 C288 0.930 . S
H275 C290 0.960 . S
H276 C290 0.960 . S
H277 C290 0.960 . S
C278 H270 0.929 . S
C278 C279 1.377 . S
C278 C280 1.384 . S
C279 C278 1.377 . S
C279 C285 1.390 . S
C280 H271 0.930 . S
C280 C278 1.384 . S
C280 C281 1.372 . S
C281 C280 1.372 . S
C281 C282 1.400 . S
C281 C286 1.490 . S
C282 H272 0.930 . S
C282 C281 1.400 . S
C282 C285 1.386 . S
H283 C299 0.930 . S
H284 C300 0.931 . S
C285 H273 0.929 . S
C285 C279 1.390 . S
C285 C282 1.386 . S
C286 C281 1.490 . S
C286 C288 1.395 . S
C286 C289 1.403 . S
H287 C293 0.930 . S
C288 H274 0.930 . S
C288 C286 1.395 . S
C288 C291 1.403 . S
C289 C286 1.403 . S
C289 C290 1.524 . S
C289 C293 1.400 . S
C290 H275 0.960 . S
C290 H276 0.960 . S
C290 H277 0.960 . S
C290 C289 1.524 . S
C291 C288 1.403 . S
C291 C292 1.392 . S
C291 C295 1.495 . S
C292 C291 1.392 . S
C292 C293 1.385 . S
C292 C294 1.478 . S
C293 H287 0.930 . S
C293 C289 1.400 . S
C293 C292 1.385 . S
C294 C292 1.478 . S
C294 C296 1.381 . S
C294 C300 1.383 . S
C295 C291 1.495 . S
C295 H301 0.959 . S
C295 H302 0.961 . S
C295 H303 0.960 . S
C296 C294 1.381 . S
C296 C297 1.394 . S
C296 H304 0.930 . S
C297 C296 1.394 . S
C297 C298 1.383 . S
C297 H305 0.929 . S
C298 C297 1.383 . S
C298 C299 1.377 . S
C299 H283 0.930 . S
C299 C298 1.377 . S
C299 C300 1.379 . S
C300 H284 0.931 . S
C300 C294 1.383 . S
C300 C299 1.379 . S
H301 C295 0.959 . S
H302 C295 0.961 . S
H303 C295 0.960 . S
H304 C296 0.930 . S
H305 C297 0.929 . S
H306 C314 0.929 . S
H307 C316 0.930 . S
H308 C318 0.930 . S
H309 C321 0.929 . S
H310 C324 0.930 . S
H311 C326 0.960 . S
H312 C326 0.960 . S
H313 C326 0.960 . S
C314 H306 0.929 . S
C314 C315 1.377 . S
C314 C316 1.384 . S
C315 C314 1.377 . S
C315 C321 1.390 . S
C316 H307 0.930 . S
C316 C314 1.384 . S
C316 C317 1.372 . S
C317 C316 1.372 . S
C317 C318 1.400 . S
C317 C322 1.490 . S
C318 H308 0.930 . S
C318 C317 1.400 . S
C318 C321 1.386 . S
H319 C335 0.930 . S
H320 C336 0.931 . S
C321 H309 0.929 . S
C321 C315 1.390 . S
C321 C318 1.386 . S
C322 C317 1.490 . S
C322 C324 1.395 . S
C322 C325 1.403 . S
H323 C329 0.930 . S
C324 H310 0.930 . S
C324 C322 1.395 . S
C324 C327 1.403 . S
C325 C322 1.403 . S
C325 C326 1.524 . S
C325 C329 1.400 . S
C326 H311 0.960 . S
C326 H312 0.960 . S
C326 H313 0.960 . S
C326 C325 1.524 . S
C327 C324 1.403 . S
C327 C328 1.392 . S
C327 C331 1.495 . S
C328 C327 1.392 . S
C328 C329 1.385 . S
C328 C330 1.478 . S
C329 H323 0.930 . S
C329 C325 1.400 . S
C329 C328 1.385 . S
C330 C328 1.478 . S
C330 C332 1.381 . S
C330 C336 1.383 . S
C331 C327 1.495 . S
C331 H337 0.959 . S
C331 H338 0.961 . S
C331 H339 0.960 . S
C332 C330 1.381 . S
C332 C333 1.394 . S
C332 H340 0.930 . S
C333 C332 1.394 . S
C333 C334 1.383 . S
C333 H341 0.929 . S
C334 C333 1.383 . S
C334 C335 1.377 . S
C335 H319 0.930 . S
C335 C334 1.377 . S
C335 C336 1.379 . S
C336 H320 0.931 . S
C336 C330 1.383 . S
C336 C335 1.379 . S
H337 C331 0.959 . S
H338 C331 0.961 . S
H339 C331 0.960 . S
H340 C332 0.930 . S
H341 C333 0.929 . S
H342 C350 0.929 . S
H343 C352 0.930 . S
H344 C354 0.930 . S
H345 C357 0.929 . S
H346 C360 0.930 . S
H347 C362 0.960 . S
H348 C362 0.960 . S
H349 C362 0.960 . S
C350 H342 0.929 . S
C350 C351 1.377 . S
C350 C352 1.384 . S
C351 C350 1.377 . S
C351 C357 1.390 . S
C352 H343 0.930 . S
C352 C350 1.384 . S
C352 C353 1.372 . S
C353 C352 1.372 . S
C353 C354 1.400 . S
C353 C358 1.490 . S
C354 H344 0.930 . S
C354 C353 1.400 . S
C354 C357 1.386 . S
H355 C371 0.930 . S
H356 C372 0.931 . S
C357 H345 0.929 . S
C357 C351 1.390 . S
C357 C354 1.386 . S
C358 C353 1.490 . S
C358 C360 1.395 . S
C358 C361 1.403 . S
H359 C365 0.930 . S
C360 H346 0.930 . S
C360 C358 1.395 . S
C360 C363 1.403 . S
C361 C358 1.403 . S
C361 C362 1.524 . S
C361 C365 1.400 . S
C362 H347 0.960 . S
C362 H348 0.960 . S
C362 H349 0.960 . S
C362 C361 1.524 . S
C363 C360 1.403 . S
C363 C364 1.392 . S
C363 C367 1.495 . S
C364 C363 1.392 . S
C364 C365 1.385 . S
C364 C366 1.478 . S
C365 H359 0.930 . S
C365 C361 1.400 . S
C365 C364 1.385 . S
C366 C364 1.478 . S
C366 C368 1.381 . S
C366 C372 1.383 . S
C367 C363 1.495 . S
C367 H373 0.959 . S
C367 H374 0.961 . S
C367 H375 0.960 . S
C368 C366 1.381 . S
C368 C369 1.394 1_565 S
C368 H376 0.930 . S
C369 C368 1.394 1_545 S
C369 C370 1.383 . S
C369 H377 0.929 . S
C370 C369 1.383 . S
C370 C371 1.377 . S
C371 H355 0.930 . S
C371 C370 1.377 . S
C371 C372 1.379 1_545 S
C372 H356 0.931 . S
C372 C366 1.383 . S
C372 C371 1.379 1_565 S
H373 C367 0.959 . S
H374 C367 0.961 . S
H375 C367 0.960 . S
H376 C368 0.930 . S
H377 C369 0.929 . S
H378 C386 0.929 . S
H379 C388 0.930 . S
H380 C390 0.930 . S
H381 C393 0.929 . S
H382 C396 0.930 . S
H383 C398 0.960 . S
H384 C398 0.960 . S
H385 C398 0.960 . S
C386 H378 0.929 . S
C386 C387 1.377 . S
C386 C388 1.384 1_655 S
C387 C386 1.377 . S
C387 C393 1.390 . S
C388 H379 0.930 . S
C388 C386 1.384 1_455 S
C388 C389 1.372 . S
C389 C388 1.372 . S
C389 C390 1.400 . S
C389 C394 1.490 . S
C390 H380 0.930 . S
C390 C389 1.400 . S
C390 C393 1.386 1_455 S
H391 C407 0.930 . S
H392 C408 0.931 . S
C393 H381 0.929 . S
C393 C387 1.390 . S
C393 C390 1.386 1_655 S
C394 C389 1.490 . S
C394 C396 1.395 . S
C394 C397 1.403 . S
H395 C401 0.930 . S
C396 H382 0.930 . S
C396 C394 1.395 . S
C396 C399 1.403 . S
C397 C394 1.403 . S
C397 C398 1.524 . S
C397 C401 1.400 . S
C398 H383 0.960 . S
C398 H384 0.960 . S
C398 H385 0.960 . S
C398 C397 1.524 . S
C399 C396 1.403 . S
C399 C400 1.392 . S
C399 C403 1.495 . S
C400 C399 1.392 . S
C400 C401 1.385 . S
C400 C402 1.478 . S
C401 H395 0.930 . S
C401 C397 1.400 . S
C401 C400 1.385 . S
C402 C400 1.478 . S
C402 C404 1.381 . S
C402 C408 1.383 . S
C403 C399 1.495 . S
C403 H409 0.959 . S
C403 H410 0.961 . S
C403 H411 0.960 . S
C404 C402 1.381 . S
C404 C405 1.394 . S
C404 H412 0.930 . S
C405 C404 1.394 . S
C405 C406 1.383 . S
C405 H413 0.929 . S
C406 C405 1.383 . S
C406 C407 1.377 . S
C407 H391 0.930 . S
C407 C406 1.377 . S
C407 C408 1.379 . S
C408 H392 0.931 . S
C408 C402 1.383 . S
C408 C407 1.379 . S
H409 C403 0.959 . S
H410 C403 0.961 . S
H411 C403 0.960 . S
H412 C404 0.930 . S
H413 C405 0.929 . S
H414 C422 0.929 . S
H415 C424 0.930 . S
H416 C426 0.930 . S
H417 C429 0.929 . S
H418 C432 0.930 . S
H419 C434 0.960 . S
H420 C434 0.960 . S
H421 C434 0.960 . S
C422 H414 0.929 . S
C422 C423 1.377 . S
C422 C424 1.384 . S
C423 C422 1.377 . S
C423 C429 1.390 . S
C424 H415 0.930 . S
C424 C422 1.384 . S
C424 C425 1.372 . S
C425 C424 1.372 . S
C425 C426 1.400 . S
C425 C430 1.490 . S
C426 H416 0.930 . S
C426 C425 1.400 . S
C426 C429 1.386 . S
H427 C443 0.930 . S
H428 C444 0.931 . S
C429 H417 0.929 . S
C429 C423 1.390 . S
C429 C426 1.386 . S
C430 C425 1.490 . S
C430 C432 1.395 . S
C430 C433 1.403 . S
H431 C437 0.930 . S
C432 H418 0.930 . S
C432 C430 1.395 . S
C432 C435 1.403 . S
C433 C430 1.403 . S
C433 C434 1.524 . S
C433 C437 1.400 . S
C434 H419 0.960 . S
C434 H420 0.960 . S
C434 H421 0.960 . S
C434 C433 1.524 . S
C435 C432 1.403 . S
C435 C436 1.392 . S
C435 C439 1.495 . S
C436 C435 1.392 . S
C436 C437 1.385 . S
C436 C438 1.478 . S
C437 H431 0.930 . S
C437 C433 1.400 . S
C437 C436 1.385 . S
C438 C436 1.478 . S
C438 C440 1.381 . S
C438 C444 1.383 . S
C439 C435 1.495 . S
C439 H445 0.959 . S
C439 H446 0.961 . S
C439 H447 0.960 . S
C440 C438 1.381 . S
C440 C441 1.394 . S
C440 H448 0.930 . S
C441 C440 1.394 . S
C441 C442 1.383 . S
C441 H449 0.929 . S
C442 C441 1.383 . S
C442 C443 1.377 . S
C443 H427 0.930 . S
C443 C442 1.377 . S
C443 C444 1.379 . S
C444 H428 0.931 . S
C444 C438 1.383 . S
C444 C443 1.379 . S
H445 C439 0.959 . S
H446 C439 0.961 . S
H447 C439 0.960 . S
H448 C440 0.930 . S
H449 C441 0.929 . S
H450 C458 0.929 . S
H451 C460 0.930 . S
H452 C462 0.930 . S
H453 C465 0.929 . S
H454 C468 0.930 . S
H455 C470 0.960 . S
H456 C470 0.960 . S
H457 C470 0.960 . S
C458 H450 0.929 . S
C458 C459 1.377 . S
C458 C460 1.384 . S
C459 C458 1.377 . S
C459 C465 1.390 . S
C460 H451 0.930 . S
C460 C458 1.384 . S
C460 C461 1.372 . S
C461 C460 1.372 . S
C461 C462 1.400 . S
C461 C466 1.490 . S
C462 H452 0.930 . S
C462 C461 1.400 . S
C462 C465 1.386 . S
H463 C479 0.930 . S
H464 C480 0.931 . S
C465 H453 0.929 . S
C465 C459 1.390 . S
C465 C462 1.386 . S
C466 C461 1.490 . S
C466 C468 1.395 . S
C466 C469 1.403 . S
H467 C473 0.930 . S
C468 H454 0.930 . S
C468 C466 1.395 . S
C468 C471 1.403 . S
C469 C466 1.403 . S
C469 C470 1.524 . S
C469 C473 1.400 . S
C470 H455 0.960 . S
C470 H456 0.960 . S
C470 H457 0.960 . S
C470 C469 1.524 . S
C471 C468 1.403 . S
C471 C472 1.392 . S
C471 C475 1.495 . S
C472 C471 1.392 . S
C472 C473 1.385 . S
C472 C474 1.478 . S
C473 H467 0.930 . S
C473 C469 1.400 . S
C473 C472 1.385 . S
C474 C472 1.478 . S
C474 C476 1.381 . S
C474 C480 1.383 . S
C475 C471 1.495 . S
C475 H481 0.959 . S
C475 H482 0.961 . S
C475 H483 0.960 . S
C476 C474 1.381 . S
C476 C477 1.394 1_545 S
C476 H484 0.930 . S
C477 C476 1.394 1_565 S
C477 C478 1.383 . S
C477 H485 0.929 . S
C478 C477 1.383 . S
C478 C479 1.377 . S
C479 H463 0.930 . S
C479 C478 1.377 . S
C479 C480 1.379 1_565 S
C480 H464 0.931 . S
C480 C474 1.383 . S
C480 C479 1.379 1_545 S
H481 C475 0.959 . S
H482 C475 0.961 . S
H483 C475 0.960 . S
H484 C476 0.930 . S
H485 C477 0.929 . S
H486 C494 0.929 . S
H487 C496 0.930 . S
H488 C498 0.930 . S
H489 C501 0.929 . S
H490 C504 0.930 . S
H491 C506 0.960 . S
H492 C506 0.960 . S
H493 C506 0.960 . S
C494 H486 0.929 . S
C494 C495 1.377 . S
C494 C496 1.384 1_455 S
C495 C494 1.377 . S
C495 C501 1.390 . S
C496 H487 0.930 . S
C496 C494 1.384 1_655 S
C496 C497 1.372 . S
C497 C496 1.372 . S
C497 C498 1.400 . S
C497 C502 1.490 . S
C498 H488 0.930 . S
C498 C497 1.400 . S
C498 C501 1.386 1_655 S
H499 C515 0.930 . S
H500 C516 0.931 . S
C501 H489 0.929 . S
C501 C495 1.390 . S
C501 C498 1.386 1_455 S
C502 C497 1.490 . S
C502 C504 1.395 . S
C502 C505 1.403 . S
H503 C509 0.930 . S
C504 H490 0.930 . S
C504 C502 1.395 . S
C504 C507 1.403 . S
C505 C502 1.403 . S
C505 C506 1.524 . S
C505 C509 1.400 . S
C506 H491 0.960 . S
C506 H492 0.960 . S
C506 H493 0.960 . S
C506 C505 1.524 . S
C507 C504 1.403 . S
C507 C508 1.392 . S
C507 C511 1.495 . S
C508 C507 1.392 . S
C508 C509 1.385 . S
C508 C510 1.478 . S
C509 H503 0.930 . S
C509 C505 1.400 . S
C509 C508 1.385 . S
C510 C508 1.478 . S
C510 C512 1.381 . S
C510 C516 1.383 . S
C511 C507 1.495 . S
C511 H517 0.959 . S
C511 H518 0.961 . S
C511 H519 0.960 . S
C512 C510 1.381 . S
C512 C513 1.394 . S
C512 H520 0.930 . S
C513 C512 1.394 . S
C513 C514 1.383 . S
C513 H521 0.929 . S
C514 C513 1.383 . S
C514 C515 1.377 . S
C515 H499 0.930 . S
C515 C514 1.377 . S
C515 C516 1.379 . S
C516 H500 0.931 . S
C516 C510 1.383 . S
C516 C515 1.379 . S
H517 C511 0.959 . S
H518 C511 0.961 . S
H519 C511 0.960 . S
H520 C512 0.930 . S
H521 C513 0.929 . S
H522 C530 0.929 . S
H523 C532 0.930 . S
H524 C534 0.930 . S
H525 C537 0.929 . S
H526 C540 0.930 . S
H527 C542 0.960 . S
H528 C542 0.960 . S
H529 C542 0.960 . S
C530 H522 0.929 . S
C530 C531 1.377 . S
C530 C532 1.384 . S
C531 C530 1.377 . S
C531 C537 1.390 . S
C532 H523 0.930 . S
C532 C530 1.384 . S
C532 C533 1.372 . S
C533 C532 1.372 . S
C533 C534 1.400 . S
C533 C538 1.490 1_565 S
C534 H524 0.930 . S
C534 C533 1.400 . S
C534 C537 1.386 . S
H535 C551 0.930 . S
H536 C552 0.931 . S
C537 H525 0.929 . S
C537 C531 1.390 . S
C537 C534 1.386 . S
C538 C533 1.490 1_545 S
C538 C540 1.395 . S
C538 C541 1.403 . S
H539 C545 0.930 . S
C540 H526 0.930 . S
C540 C538 1.395 . S
C540 C543 1.403 . S
C541 C538 1.403 . S
C541 C542 1.524 1_545 S
C541 C545 1.400 . S
C542 H527 0.960 . S
C542 H528 0.960 . S
C542 H529 0.960 . S
C542 C541 1.524 1_565 S
C543 C540 1.403 . S
C543 C544 1.392 . S
C543 C547 1.495 . S
C544 C543 1.392 . S
C544 C545 1.385 . S
C544 C546 1.478 . S
C545 H539 0.930 . S
C545 C541 1.400 . S
C545 C544 1.385 . S
C546 C544 1.478 . S
C546 C548 1.381 . S
C546 C552 1.383 . S
C547 C543 1.495 . S
C547 H553 0.959 . S
C547 H554 0.961 . S
C547 H555 0.960 . S
C548 C546 1.381 . S
C548 C549 1.394 . S
C548 H556 0.930 . S
C549 C548 1.394 . S
C549 C550 1.383 . S
C549 H557 0.929 . S
C550 C549 1.383 . S
C550 C551 1.377 . S
C551 H535 0.930 . S
C551 C550 1.377 . S
C551 C552 1.379 . S
C552 H536 0.931 . S
C552 C546 1.383 . S
C552 C551 1.379 . S
H553 C547 0.959 . S
H554 C547 0.961 . S
H555 C547 0.960 . S
H556 C548 0.930 . S
H557 C549 0.929 . S
H558 C566 0.929 . S
H559 C568 0.930 . S
H560 C570 0.930 . S
H561 C573 0.929 . S
H562 C576 0.930 . S
H563 C578 0.960 . S
H564 C578 0.960 . S
H565 C578 0.960 . S
C566 H558 0.929 . S
C566 C567 1.377 . S
C566 C568 1.384 . S
C567 C566 1.377 . S
C567 C573 1.390 . S
C568 H559 0.930 . S
C568 C566 1.384 . S
C568 C569 1.372 . S
C569 C568 1.372 . S
C569 C570 1.400 . S
C569 C574 1.490 . S
C570 H560 0.930 . S
C570 C569 1.400 . S
C570 C573 1.386 . S
H571 C587 0.930 . S
H572 C588 0.931 1_655 S
C573 H561 0.929 . S
C573 C567 1.390 . S
C573 C570 1.386 . S
C574 C569 1.490 . S
C574 C576 1.395 . S
C574 C577 1.403 1_556 S
H575 C581 0.930 . S
C576 H562 0.930 . S
C576 C574 1.395 . S
C576 C579 1.403 . S
C577 C574 1.403 1_554 S
C577 C578 1.524 . S
C577 C581 1.400 . S
C578 H563 0.960 . S
C578 H564 0.960 . S
C578 H565 0.960 . S
C578 C577 1.524 . S
C579 C576 1.403 . S
C579 C580 1.392 1_556 S
C579 C583 1.495 1_655 S
C580 C579 1.392 1_554 S
C580 C581 1.385 . S
C580 C582 1.478 1_655 S
C581 H575 0.930 . S
C581 C577 1.400 . S
C581 C580 1.385 . S
C582 C580 1.478 1_455 S
C582 C584 1.381 . S
C582 C588 1.383 . S
C583 C579 1.495 1_455 S
C583 H589 0.959 . S
C583 H590 0.961 . S
C583 H591 0.960 . S
C584 C582 1.381 . S
C584 C585 1.394 . S
C584 H592 0.930 . S
C585 C584 1.394 . S
C585 C586 1.383 . S
C585 H593 0.929 . S
C586 C585 1.383 . S
C586 C587 1.377 . S
C587 H571 0.930 . S
C587 C586 1.377 . S
C587 C588 1.379 . S
C588 H572 0.931 1_455 S
C588 C582 1.383 . S
C588 C587 1.379 . S
H589 C583 0.959 . S
H590 C583 0.961 . S
H591 C583 0.960 . S
H592 C584 0.930 . S
H593 C585 0.929 . S
H594 C602 0.929 . S
H595 C604 0.930 . S
H596 C606 0.930 . S
H597 C609 0.929 . S
H598 C612 0.930 . S
H599 C614 0.960 . S
H600 C614 0.960 . S
H601 C614 0.960 . S
C602 H594 0.929 . S
C602 C603 1.377 . S
C602 C604 1.384 . S
C603 C602 1.377 . S
C603 C609 1.390 . S
C604 H595 0.930 . S
C604 C602 1.384 . S
C604 C605 1.372 . S
C605 C604 1.372 . S
C605 C606 1.400 . S
C605 C610 1.490 . S
C606 H596 0.930 . S
C606 C605 1.400 . S
C606 C609 1.386 . S
H607 C623 0.930 . S
H608 C624 0.931 . S
C609 H597 0.929 . S
C609 C603 1.390 . S
C609 C606 1.386 . S
C610 C605 1.490 . S
C610 C612 1.395 . S
C610 C613 1.403 . S
H611 C617 0.930 . S
C612 H598 0.930 . S
C612 C610 1.395 . S
C612 C615 1.403 . S
C613 C610 1.403 . S
C613 C614 1.524 . S
C613 C617 1.400 . S
C614 H599 0.960 . S
C614 H600 0.960 . S
C614 H601 0.960 . S
C614 C613 1.524 . S
C615 C612 1.403 . S
C615 C616 1.392 . S
C615 C619 1.495 . S
C616 C615 1.392 . S
C616 C617 1.385 . S
C616 C618 1.478 . S
C617 H611 0.930 . S
C617 C613 1.400 . S
C617 C616 1.385 . S
C618 C616 1.478 . S
C618 C620 1.381 . S
C618 C624 1.383 . S
C619 C615 1.495 . S
C619 H625 0.959 . S
C619 H626 0.961 . S
C619 H627 0.960 . S
C620 C618 1.381 . S
C620 C621 1.394 . S
C620 H628 0.930 . S
C621 C620 1.394 . S
C621 C622 1.383 . S
C621 H629 0.929 . S
C622 C621 1.383 . S
C622 C623 1.377 . S
C623 H607 0.930 . S
C623 C622 1.377 . S
C623 C624 1.379 . S
C624 H608 0.931 . S
C624 C618 1.383 . S
C624 C623 1.379 . S
H625 C619 0.959 . S
H626 C619 0.961 . S
H627 C619 0.960 . S
H628 C620 0.930 . S
H629 C621 0.929 . S
H630 C638 0.929 . S
H631 C640 0.930 . S
H632 C642 0.930 . S
H633 C645 0.929 . S
H634 C648 0.930 . S
H635 C650 0.960 . S
H636 C650 0.960 . S
H637 C650 0.960 . S
C638 H630 0.929 . S
C638 C639 1.377 . S
C638 C640 1.384 . S
C639 C638 1.377 . S
C639 C645 1.390 . S
C640 H631 0.930 . S
C640 C638 1.384 . S
C640 C641 1.372 . S
C641 C640 1.372 . S
C641 C642 1.400 . S
C641 C646 1.490 . S
C642 H632 0.930 . S
C642 C641 1.400 . S
C642 C645 1.386 . S
H643 C659 0.930 . S
H644 C660 0.931 1_455 S
C645 H633 0.929 . S
C645 C639 1.390 . S
C645 C642 1.386 . S
C646 C641 1.490 . S
C646 C648 1.395 . S
C646 C649 1.403 . S
H647 C653 0.930 . S
C648 H634 0.930 . S
C648 C646 1.395 . S
C648 C651 1.403 1_455 S
C649 C646 1.403 . S
C649 C650 1.524 . S
C649 C653 1.400 . S
C650 H635 0.960 . S
C650 H636 0.960 . S
C650 H637 0.960 . S
C650 C649 1.524 . S
C651 C648 1.403 1_655 S
C651 C652 1.392 1_655 S
C651 C655 1.495 . S
C652 C651 1.392 1_455 S
C652 C653 1.385 . S
C652 C654 1.478 1_455 S
C653 H647 0.930 . S
C653 C649 1.400 . S
C653 C652 1.385 . S
C654 C652 1.478 1_655 S
C654 C656 1.381 . S
C654 C660 1.383 . S
C655 C651 1.495 . S
C655 H661 0.959 . S
C655 H662 0.961 . S
C655 H663 0.960 . S
C656 C654 1.381 . S
C656 C657 1.394 . S
C656 H664 0.930 . S
C657 C656 1.394 . S
C657 C658 1.383 . S
C657 H665 0.929 . S
C658 C657 1.383 . S
C658 C659 1.377 . S
C659 H643 0.930 . S
C659 C658 1.377 . S
C659 C660 1.379 . S
C660 H644 0.931 1_655 S
C660 C654 1.383 . S
C660 C659 1.379 . S
H661 C655 0.959 . S
H662 C655 0.961 . S
H663 C655 0.960 . S
H664 C656 0.930 . S
H665 C657 0.929 . S
H666 C674 0.929 . S
H667 C676 0.930 . S
H668 C678 0.930 . S
H669 C681 0.929 . S
H670 C684 0.930 . S
H671 C686 0.960 . S
H672 C686 0.960 . S
H673 C686 0.960 . S
C674 H666 0.929 . S
C674 C675 1.377 . S
C674 C676 1.384 . S
C675 C674 1.377 . S
C675 C681 1.390 . S
C676 H667 0.930 . S
C676 C674 1.384 . S
C676 C677 1.372 . S
C677 C676 1.372 . S
C677 C678 1.400 . S
C677 C682 1.490 . S
C678 H668 0.930 . S
C678 C677 1.400 . S
C678 C681 1.386 . S
H679 C695 0.930 . S
H680 C696 0.931 . S
C681 H669 0.929 . S
C681 C675 1.390 . S
C681 C678 1.386 . S
C682 C677 1.490 . S
C682 C684 1.395 . S
C682 C685 1.403 . S
H683 C689 0.930 . S
C684 H670 0.930 . S
C684 C682 1.395 . S
C684 C687 1.403 . S
C685 C682 1.403 . S
C685 C686 1.524 . S
C685 C689 1.400 . S
C686 H671 0.960 . S
C686 H672 0.960 . S
C686 H673 0.960 . S
C686 C685 1.524 . S
C687 C684 1.403 . S
C687 C688 1.392 . S
C687 C691 1.495 . S
C688 C687 1.392 . S
C688 C689 1.385 . S
C688 C690 1.478 . S
C689 H683 0.930 . S
C689 C685 1.400 . S
C689 C688 1.385 . S
C690 C688 1.478 . S
C690 C692 1.381 . S
C690 C696 1.383 . S
C691 C687 1.495 . S
C691 H697 0.959 . S
C691 H698 0.961 . S
C691 H699 0.960 . S
C692 C690 1.381 . S
C692 C693 1.394 . S
C692 H700 0.930 . S
C693 C692 1.394 . S
C693 C694 1.383 . S
C693 H701 0.929 . S
C694 C693 1.383 . S
C694 C695 1.377 . S
C695 H679 0.930 . S
C695 C694 1.377 . S
C695 C696 1.379 . S
C696 H680 0.931 . S
C696 C690 1.383 . S
C696 C695 1.379 . S
H697 C691 0.959 . S
H698 C691 0.961 . S
H699 C691 0.960 . S
H700 C692 0.930 . S
H701 C693 0.929 . S
H702 C710 0.929 . S
H703 C712 0.930 . S
H704 C714 0.930 . S
H705 C717 0.929 . S
H706 C720 0.930 1_545 S
H707 C722 0.960 . S
H708 C722 0.960 . S
H709 C722 0.960 . S
C710 H702 0.929 . S
C710 C711 1.377 . S
C710 C712 1.384 . S
C711 C710 1.377 . S
C711 C717 1.390 . S
C712 H703 0.930 . S
C712 C710 1.384 . S
C712 C713 1.372 . S
C713 C712 1.372 . S
C713 C714 1.400 . S
C713 C718 1.490 1_545 S
C714 H704 0.930 . S
C714 C713 1.400 . S
C714 C717 1.386 . S
H715 C731 0.930 . S
H716 C732 0.931 . S
C717 H705 0.929 . S
C717 C711 1.390 . S
C717 C714 1.386 . S
C718 C713 1.490 1_565 S
C718 C720 1.395 1_556 S
C718 C721 1.403 . S
H719 C725 0.930 . S
C720 H706 0.930 1_565 S
C720 C718 1.395 1_554 S
C720 C723 1.403 . S
C721 C718 1.403 . S
C721 C722 1.524 . S
C721 C725 1.400 . S
C722 H707 0.960 . S
C722 H708 0.960 . S
C722 H709 0.960 . S
C722 C721 1.524 . S
C723 C720 1.403 . S
C723 C724 1.392 . S
C723 C727 1.495 . S
C724 C723 1.392 . S
C724 C725 1.385 1_554 S
C724 C726 1.478 . S
C725 H719 0.930 . S
C725 C721 1.400 . S
C725 C724 1.385 1_556 S
C726 C724 1.478 . S
C726 C728 1.381 . S
C726 C732 1.383 . S
C727 C723 1.495 . S
C727 H733 0.959 . S
C727 H734 0.961 . S
C727 H735 0.960 . S
C728 C726 1.381 . S
C728 C729 1.394 . S
C728 H736 0.930 . S
C729 C728 1.394 . S
C729 C730 1.383 . S
C729 H737 0.929 . S
C730 C729 1.383 . S
C730 C731 1.377 . S
C731 H715 0.930 . S
C731 C730 1.377 . S
C731 C732 1.379 . S
C732 H716 0.931 . S
C732 C726 1.383 . S
C732 C731 1.379 . S
H733 C727 0.959 . S
H734 C727 0.961 . S
H735 C727 0.960 . S
H736 C728 0.930 . S
H737 C729 0.929 . S
C207 C7 1.408 . S
C226 C172 1.384 . S
C243 C106 1.406 . S
C262 C40 1.383 . S
C279 C139 1.403 . S
C298 C73 1.414 . S
C315 C186 1.076 . S
C334 N13 1.082 . S
C351 C120 1.074 . S
C370 N46 1.050 . S
C387 N79 1.062 . S
C406 C153 1.065 . S
C423 C54 1.074 . S
C442 N112 1.039 . S
C459 C87 1.074 . S
C478 N145 1.047 . S
C495 N178 1.061 . S
C514 C21 1.065 . S
C531 C150 1.642 . S
C550 N2 1.568 . S
C567 N35 1.594 . S
C586 C183 1.651 . S
C603 C117 1.645 . S
C622 N68 1.598 . S
C639 N101 1.591 . S
C658 C84 1.646 . S
C675 C18 1.641 . S
C694 N134 1.574 . S
C711 C51 1.643 . S
C730 N167 1.617 . S
