# Generated by pormake.
# Topology uli, (4)-cn, num edge types: 1
# Building blocks:
#     Node 0, Type 0, BuildingBlock: NAHDIM_clean_sbu_0, # of connection points: 4
#     Node 1, Type 0, BuildingBlock: NAHDIM_clean_sbu_0, # of connection points: 4
#     Node 2, Type 0, BuildingBlock: NAHDIM_clean_sbu_0, # of connection points: 4
#     Node 3, Type 0, BuildingBlock: NAHDIM_clean_sbu_0, # of connection points: 4
#     Node 4, Type 0, BuildingBlock: NAHDIM_clean_sbu_0, # of connection points: 4
#     Node 5, Type 0, BuildingBlock: NAHDIM_clean_sbu_0, # of connection points: 4
#     Node 6, Type 0, BuildingBlock: NAHDIM_clean_sbu_0, # of connection points: 4
#     Node 7, Type 0, BuildingBlock: NAHDIM_clean_sbu_0, # of connection points: 4
#     Node 8, Type 0, BuildingBlock: NAHDIM_clean_sbu_0, # of connection points: 4
#     Node 9, Type 0, BuildingBlock: NAHDIM_clean_sbu_0, # of connection points: 4
#     Node 10, Type 0, BuildingBlock: NAHDIM_clean_sbu_0, # of connection points: 4
#     Node 11, Type 0, BuildingBlock: NAHDIM_clean_sbu_0, # of connection points: 4
#     Node 12, Type 0, BuildingBlock: NAHDIM_clean_sbu_0, # of connection points: 4
#     Node 13, Type 0, BuildingBlock: NAHDIM_clean_sbu_0, # of connection points: 4
#     Node 14, Type 0, BuildingBlock: NAHDIM_clean_sbu_0, # of connection points: 4
#     Node 15, Type 0, BuildingBlock: NAHDIM_clean_sbu_0, # of connection points: 4
#     Node 16, Type 0, BuildingBlock: NAHDIM_clean_sbu_0, # of connection points: 4
#     Node 17, Type 0, BuildingBlock: NAHDIM_clean_sbu_0, # of connection points: 4
#     Node 18, Type 0, BuildingBlock: NAHDIM_clean_sbu_0, # of connection points: 4
#     Node 19, Type 0, BuildingBlock: NAHDIM_clean_sbu_0, # of connection points: 4
#     Node 20, Type 0, BuildingBlock: NAHDIM_clean_sbu_0, # of connection points: 4
#     Node 21, Type 0, BuildingBlock: NAHDIM_clean_sbu_0, # of connection points: 4
#     Node 22, Type 0, BuildingBlock: NAHDIM_clean_sbu_0, # of connection points: 4
#     Node 23, Type 0, BuildingBlock: NAHDIM_clean_sbu_0, # of connection points: 4
#     Node 24, Type 0, BuildingBlock: NAHDIM_clean_sbu_0, # of connection points: 4
#     Node 25, Type 0, BuildingBlock: NAHDIM_clean_sbu_0, # of connection points: 4
#     Node 26, Type 0, BuildingBlock: NAHDIM_clean_sbu_0, # of connection points: 4
#     Node 27, Type 0, BuildingBlock: NAHDIM_clean_sbu_0, # of connection points: 4
#     Node 28, Type 0, BuildingBlock: NAHDIM_clean_sbu_0, # of connection points: 4
#     Node 29, Type 0, BuildingBlock: NAHDIM_clean_sbu_0, # of connection points: 4
#     Node 30, Type 0, BuildingBlock: NAHDIM_clean_sbu_0, # of connection points: 4
#     Node 31, Type 0, BuildingBlock: NAHDIM_clean_sbu_0, # of connection points: 4
#     Node 32, Type 0, BuildingBlock: NAHDIM_clean_sbu_0, # of connection points: 4
#     Node 33, Type 0, BuildingBlock: NAHDIM_clean_sbu_0, # of connection points: 4
#     Node 34, Type 0, BuildingBlock: NAHDIM_clean_sbu_0, # of connection points: 4
#     Node 35, Type 0, BuildingBlock: NAHDIM_clean_sbu_0, # of connection points: 4
#     Node 36, Type 0, BuildingBlock: NAHDIM_clean_sbu_0, # of connection points: 4
#     Node 37, Type 0, BuildingBlock: NAHDIM_clean_sbu_0, # of connection points: 4
#     Node 38, Type 0, BuildingBlock: NAHDIM_clean_sbu_0, # of connection points: 4
#     Node 39, Type 0, BuildingBlock: NAHDIM_clean_sbu_0, # of connection points: 4
#     Node 40, Type 0, BuildingBlock: NAHDIM_clean_sbu_0, # of connection points: 4
#     Node 41, Type 0, BuildingBlock: NAHDIM_clean_sbu_0, # of connection points: 4
#     Node 42, Type 0, BuildingBlock: NAHDIM_clean_sbu_0, # of connection points: 4
#     Node 43, Type 0, BuildingBlock: NAHDIM_clean_sbu_0, # of connection points: 4
#     Node 44, Type 0, BuildingBlock: NAHDIM_clean_sbu_0, # of connection points: 4
#     Node 45, Type 0, BuildingBlock: NAHDIM_clean_sbu_0, # of connection points: 4
#     Node 46, Type 0, BuildingBlock: NAHDIM_clean_sbu_0, # of connection points: 4
#     Node 47, Type 0, BuildingBlock: NAHDIM_clean_sbu_0, # of connection points: 4
#     Edge 48, Type (0, 0), BuildingBlock: OJICUG_clean_linker_0, # of connection points: 2
#     Edge 49, Type (0, 0), BuildingBlock: OJICUG_clean_linker_0, # of connection points: 2
#     Edge 50, Type (0, 0), BuildingBlock: OJICUG_clean_linker_0, # of connection points: 2
#     Edge 51, Type (0, 0), BuildingBlock: OJICUG_clean_linker_0, # of connection points: 2
#     Edge 52, Type (0, 0), BuildingBlock: OJICUG_clean_linker_0, # of connection points: 2
#     Edge 53, Type (0, 0), BuildingBlock: OJICUG_clean_linker_0, # of connection points: 2
#     Edge 54, Type (0, 0), BuildingBlock: OJICUG_clean_linker_0, # of connection points: 2
#     Edge 55, Type (0, 0), BuildingBlock: OJICUG_clean_linker_0, # of connection points: 2
#     Edge 56, Type (0, 0), BuildingBlock: OJICUG_clean_linker_0, # of connection points: 2
#     Edge 57, Type (0, 0), BuildingBlock: OJICUG_clean_linker_0, # of connection points: 2
#     Edge 58, Type (0, 0), BuildingBlock: OJICUG_clean_linker_0, # of connection points: 2
#     Edge 59, Type (0, 0), BuildingBlock: OJICUG_clean_linker_0, # of connection points: 2
#     Edge 60, Type (0, 0), BuildingBlock: OJICUG_clean_linker_0, # of connection points: 2
#     Edge 61, Type (0, 0), BuildingBlock: OJICUG_clean_linker_0, # of connection points: 2
#     Edge 62, Type (0, 0), BuildingBlock: OJICUG_clean_linker_0, # of connection points: 2
#     Edge 63, Type (0, 0), BuildingBlock: OJICUG_clean_linker_0, # of connection points: 2
#     Edge 64, Type (0, 0), BuildingBlock: OJICUG_clean_linker_0, # of connection points: 2
#     Edge 65, Type (0, 0), BuildingBlock: OJICUG_clean_linker_0, # of connection points: 2
#     Edge 66, Type (0, 0), BuildingBlock: OJICUG_clean_linker_0, # of connection points: 2
#     Edge 67, Type (0, 0), BuildingBlock: OJICUG_clean_linker_0, # of connection points: 2
#     Edge 68, Type (0, 0), BuildingBlock: OJICUG_clean_linker_0, # of connection points: 2
#     Edge 69, Type (0, 0), BuildingBlock: OJICUG_clean_linker_0, # of connection points: 2
#     Edge 70, Type (0, 0), BuildingBlock: OJICUG_clean_linker_0, # of connection points: 2
#     Edge 71, Type (0, 0), BuildingBlock: OJICUG_clean_linker_0, # of connection points: 2
#     Edge 72, Type (0, 0), BuildingBlock: OJICUG_clean_linker_0, # of connection points: 2
#     Edge 73, Type (0, 0), BuildingBlock: OJICUG_clean_linker_0, # of connection points: 2
#     Edge 74, Type (0, 0), BuildingBlock: OJICUG_clean_linker_0, # of connection points: 2
#     Edge 75, Type (0, 0), BuildingBlock: OJICUG_clean_linker_0, # of connection points: 2
#     Edge 76, Type (0, 0), BuildingBlock: OJICUG_clean_linker_0, # of connection points: 2
#     Edge 77, Type (0, 0), BuildingBlock: OJICUG_clean_linker_0, # of connection points: 2
#     Edge 78, Type (0, 0), BuildingBlock: OJICUG_clean_linker_0, # of connection points: 2
#     Edge 79, Type (0, 0), BuildingBlock: OJICUG_clean_linker_0, # of connection points: 2
#     Edge 80, Type (0, 0), BuildingBlock: OJICUG_clean_linker_0, # of connection points: 2
#     Edge 81, Type (0, 0), BuildingBlock: OJICUG_clean_linker_0, # of connection points: 2
#     Edge 82, Type (0, 0), BuildingBlock: OJICUG_clean_linker_0, # of connection points: 2
#     Edge 83, Type (0, 0), BuildingBlock: OJICUG_clean_linker_0, # of connection points: 2
#     Edge 84, Type (0, 0), BuildingBlock: OJICUG_clean_linker_0, # of connection points: 2
#     Edge 85, Type (0, 0), BuildingBlock: OJICUG_clean_linker_0, # of connection points: 2
#     Edge 86, Type (0, 0), BuildingBlock: OJICUG_clean_linker_0, # of connection points: 2
#     Edge 87, Type (0, 0), BuildingBlock: OJICUG_clean_linker_0, # of connection points: 2
#     Edge 88, Type (0, 0), BuildingBlock: OJICUG_clean_linker_0, # of connection points: 2
#     Edge 89, Type (0, 0), BuildingBlock: OJICUG_clean_linker_0, # of connection points: 2
#     Edge 90, Type (0, 0), BuildingBlock: OJICUG_clean_linker_0, # of connection points: 2
#     Edge 91, Type (0, 0), BuildingBlock: OJICUG_clean_linker_0, # of connection points: 2
#     Edge 92, Type (0, 0), BuildingBlock: OJICUG_clean_linker_0, # of connection points: 2
#     Edge 93, Type (0, 0), BuildingBlock: OJICUG_clean_linker_0, # of connection points: 2
#     Edge 94, Type (0, 0), BuildingBlock: OJICUG_clean_linker_0, # of connection points: 2
#     Edge 95, Type (0, 0), BuildingBlock: OJICUG_clean_linker_0, # of connection points: 2
#     Edge 96, Type (0, 0), BuildingBlock: OJICUG_clean_linker_0, # of connection points: 2
#     Edge 97, Type (0, 0), BuildingBlock: OJICUG_clean_linker_0, # of connection points: 2
#     Edge 98, Type (0, 0), BuildingBlock: OJICUG_clean_linker_0, # of connection points: 2
#     Edge 99, Type (0, 0), BuildingBlock: OJICUG_clean_linker_0, # of connection points: 2
#     Edge 100, Type (0, 0), BuildingBlock: OJICUG_clean_linker_0, # of connection points: 2
#     Edge 101, Type (0, 0), BuildingBlock: OJICUG_clean_linker_0, # of connection points: 2
#     Edge 102, Type (0, 0), BuildingBlock: OJICUG_clean_linker_0, # of connection points: 2
#     Edge 103, Type (0, 0), BuildingBlock: OJICUG_clean_linker_0, # of connection points: 2
#     Edge 104, Type (0, 0), BuildingBlock: OJICUG_clean_linker_0, # of connection points: 2
#     Edge 105, Type (0, 0), BuildingBlock: OJICUG_clean_linker_0, # of connection points: 2
#     Edge 106, Type (0, 0), BuildingBlock: OJICUG_clean_linker_0, # of connection points: 2
#     Edge 107, Type (0, 0), BuildingBlock: OJICUG_clean_linker_0, # of connection points: 2
#     Edge 108, Type (0, 0), BuildingBlock: OJICUG_clean_linker_0, # of connection points: 2
#     Edge 109, Type (0, 0), BuildingBlock: OJICUG_clean_linker_0, # of connection points: 2
#     Edge 110, Type (0, 0), BuildingBlock: OJICUG_clean_linker_0, # of connection points: 2
#     Edge 111, Type (0, 0), BuildingBlock: OJICUG_clean_linker_0, # of connection points: 2
#     Edge 112, Type (0, 0), BuildingBlock: OJICUG_clean_linker_0, # of connection points: 2
#     Edge 113, Type (0, 0), BuildingBlock: OJICUG_clean_linker_0, # of connection points: 2
#     Edge 114, Type (0, 0), BuildingBlock: OJICUG_clean_linker_0, # of connection points: 2
#     Edge 115, Type (0, 0), BuildingBlock: OJICUG_clean_linker_0, # of connection points: 2
#     Edge 116, Type (0, 0), BuildingBlock: OJICUG_clean_linker_0, # of connection points: 2
#     Edge 117, Type (0, 0), BuildingBlock: OJICUG_clean_linker_0, # of connection points: 2
#     Edge 118, Type (0, 0), BuildingBlock: OJICUG_clean_linker_0, # of connection points: 2
#     Edge 119, Type (0, 0), BuildingBlock: OJICUG_clean_linker_0, # of connection points: 2
#     Edge 120, Type (0, 0), BuildingBlock: OJICUG_clean_linker_0, # of connection points: 2
#     Edge 121, Type (0, 0), BuildingBlock: OJICUG_clean_linker_0, # of connection points: 2
#     Edge 122, Type (0, 0), BuildingBlock: OJICUG_clean_linker_0, # of connection points: 2
#     Edge 123, Type (0, 0), BuildingBlock: OJICUG_clean_linker_0, # of connection points: 2
#     Edge 124, Type (0, 0), BuildingBlock: OJICUG_clean_linker_0, # of connection points: 2
#     Edge 125, Type (0, 0), BuildingBlock: OJICUG_clean_linker_0, # of connection points: 2
#     Edge 126, Type (0, 0), BuildingBlock: OJICUG_clean_linker_0, # of connection points: 2
#     Edge 127, Type (0, 0), BuildingBlock: OJICUG_clean_linker_0, # of connection points: 2
#     Edge 128, Type (0, 0), BuildingBlock: OJICUG_clean_linker_0, # of connection points: 2
#     Edge 129, Type (0, 0), BuildingBlock: OJICUG_clean_linker_0, # of connection points: 2
#     Edge 130, Type (0, 0), BuildingBlock: OJICUG_clean_linker_0, # of connection points: 2
#     Edge 131, Type (0, 0), BuildingBlock: OJICUG_clean_linker_0, # of connection points: 2
#     Edge 132, Type (0, 0), BuildingBlock: OJICUG_clean_linker_0, # of connection points: 2
#     Edge 133, Type (0, 0), BuildingBlock: OJICUG_clean_linker_0, # of connection points: 2
#     Edge 134, Type (0, 0), BuildingBlock: OJICUG_clean_linker_0, # of connection points: 2
#     Edge 135, Type (0, 0), BuildingBlock: OJICUG_clean_linker_0, # of connection points: 2
#     Edge 136, Type (0, 0), BuildingBlock: OJICUG_clean_linker_0, # of connection points: 2
#     Edge 137, Type (0, 0), BuildingBlock: OJICUG_clean_linker_0, # of connection points: 2
#     Edge 138, Type (0, 0), BuildingBlock: OJICUG_clean_linker_0, # of connection points: 2
#     Edge 139, Type (0, 0), BuildingBlock: OJICUG_clean_linker_0, # of connection points: 2
#     Edge 140, Type (0, 0), BuildingBlock: OJICUG_clean_linker_0, # of connection points: 2
#     Edge 141, Type (0, 0), BuildingBlock: OJICUG_clean_linker_0, # of connection points: 2
#     Edge 142, Type (0, 0), BuildingBlock: OJICUG_clean_linker_0, # of connection points: 2
#     Edge 143, Type (0, 0), BuildingBlock: OJICUG_clean_linker_0, # of connection points: 2
# Relax obj value: 0.421
# Max RMSD: 0.223
# Mean RMSD: 0.223
data_MOF--net-uli--node1-NAHDIM_clean_sbu_0--edge1-OJICUG_clean_linker_0
_symmetry_space_group_name_H-M    P1
_symmetry_Int_Tables_number       1
_symmetry_cell_setting            triclinic
loop_
_symmetry_equiv_pos_as_xyz
'x, y, z'
_cell_length_a     49.78186
_cell_length_b     49.839786
_cell_length_c     49.704614
_cell_angle_alpha  89.909109
_cell_angle_beta   90.042753
_cell_angle_gamma 90.202623
loop_
_atom_site_label
_atom_site_type_symbol
_atom_site_fract_x
_atom_site_fract_y
_atom_site_fract_z
_atom_type_partial_charge
C0 C 0.05255 0.27784 0.26989 0.0
O1 O 0.06921 0.29829 0.26857 0.0
O2 O 0.12458 0.27016 0.25803 0.0
Zn3 Zn 0.09524 0.24553 0.24529 0.0
O4 O 0.10285 0.20802 0.25756 0.0
C5 C 0.10688 0.2665 0.19308 0.0
O6 O 0.10864 0.28902 0.20668 0.0
O7 O 0.05935 0.2553 0.2602 0.0
C8 C 0.09069 0.18864 0.24619 0.0
O9 O 0.07331 0.19376 0.22697 0.0
C10 C 0.14843 0.26346 0.25195 0.0
O11 O 0.15255 0.24016 0.24036 0.0
O12 O 0.09774 0.24572 0.20486 0.0
C13 C 0.80536 0.02822 0.27685 0.0
O14 O 0.79701 0.04384 0.29637 0.0
O15 O 0.76602 0.09229 0.24745 0.0
Zn16 Zn 0.80357 0.07722 0.24553 0.0
O17 O 0.82641 0.0996 0.2703 0.0
C18 C 0.80114 0.08699 0.1885 0.0
O19 O 0.77796 0.07444 0.1902 0.0
O20 O 0.80826 0.03792 0.25336 0.0
C21 C 0.81657 0.11136 0.29068 0.0
O22 O 0.79155 0.10641 0.2975 0.0
C23 C 0.74264 0.08335 0.24228 0.0
O24 O 0.7393 0.058 0.23587 0.0
O25 O 0.81668 0.08705 0.20879 0.0
C26 C 0.98146 0.67408 0.29546 0.0
O27 O 0.96668 0.68455 0.31462 0.0
O28 O 0.90667 0.64383 0.27215 0.0
Zn29 Zn 0.93145 0.67554 0.2661 0.0
O30 O 0.92071 0.70823 0.28747 0.0
C31 C 0.90324 0.68519 0.21734 0.0
O32 O 0.88356 0.67606 0.23241 0.0
O33 O 0.97038 0.66729 0.27341 0.0
C34 C 0.93356 0.72978 0.28238 0.0
O35 O 0.95327 0.72906 0.26482 0.0
C36 C 0.88726 0.64457 0.28872 0.0
O37 O 0.88531 0.66511 0.30512 0.0
O38 O 0.9268 0.68642 0.22719 0.0
C39 C 0.2434 0.91667 0.26146 0.0
O40 O 0.23866 0.90104 0.28223 0.0
O41 O 0.29848 0.85832 0.22948 0.0
Zn42 Zn 0.25946 0.86765 0.23388 0.0
O43 O 0.24079 0.84374 0.26077 0.0
C44 C 0.25404 0.85854 0.17634 0.0
O45 O 0.27898 0.86714 0.17502 0.0
O46 O 0.25308 0.9067 0.24009 0.0
C47 C 0.21532 0.84272 0.25876 0.0
O48 O 0.20326 0.85964 0.24247 0.0
C49 C 0.31327 0.84665 0.24668 0.0
O50 O 0.30377 0.84191 0.27089 0.0
O51 O 0.24209 0.85814 0.19888 0.0
C52 C 0.02554 0.78682 0.67801 0.0
O53 O 0.0421 0.77658 0.66025 0.0
O54 O 0.07089 0.73212 0.7084 0.0
Zn55 Zn 0.06821 0.77218 0.71268 0.0
O56 O 0.09591 0.79054 0.68996 0.0
C57 C 0.10094 0.76797 0.75723 0.0
O58 O 0.11162 0.75141 0.73974 0.0
O59 O 0.03199 0.78667 0.70277 0.0
C60 C 0.09601 0.81603 0.69014 0.0
O61 O 0.07693 0.82865 0.70323 0.0
C62 C 0.0801 0.72156 0.68712 0.0
O63 O 0.08405 0.73676 0.66586 0.0
O64 O 0.0796 0.78043 0.75077 0.0
C65 C 0.25786 0.06548 0.73704 0.0
O66 O 0.2757 0.0837 0.73011 0.0
O67 O 0.2489 0.13474 0.73534 0.0
Zn68 Zn 0.23068 0.11027 0.76154 0.0
O69 O 0.19084 0.11635 0.76055 0.0
C70 C 0.26829 0.13169 0.79939 0.0
O71 O 0.28481 0.12864 0.77903 0.0
O72 O 0.2381 0.07213 0.75174 0.0
C73 C 0.17666 0.11288 0.78154 0.0
O74 O 0.18825 0.1047 0.80382 0.0
C75 C 0.24324 0.15955 0.73474 0.0
O76 O 0.22273 0.16837 0.74876 0.0
O77 O 0.24467 0.12197 0.79768 0.0
C78 C 0.92146 0.29886 0.80593 0.0
O79 O 0.90747 0.30756 0.78529 0.0
O80 O 0.85194 0.31538 0.80149 0.0
Zn81 Zn 0.86942 0.28676 0.82384 0.0
O82 O 0.86445 0.25054 0.8068 0.0
C83 C 0.83695 0.30488 0.86894 0.0
O84 O 0.84138 0.32908 0.85939 0.0
O85 O 0.90914 0.29137 0.82703 0.0
C86 C 0.87375 0.23073 0.81998 0.0
O87 O 0.88586 0.23521 0.84305 0.0
C88 C 0.82672 0.31272 0.79857 0.0
O89 O 0.81488 0.29132 0.8086 0.0
O90 O 0.84934 0.28503 0.85881 0.0
C91 C 0.71729 0.95033 0.78913 0.0
O92 O 0.71098 0.93788 0.76675 0.0
O93 O 0.68092 0.87897 0.80505 0.0
Zn94 Zn 0.71739 0.89678 0.80743 0.0
O95 O 0.74102 0.88893 0.77566 0.0
C96 C 0.73038 0.85979 0.85129 0.0
O97 O 0.70556 0.85117 0.84863 0.0
O98 O 0.71802 0.93699 0.81096 0.0
C99 C 0.73655 0.88482 0.75085 0.0
O100 O 0.71174 0.88388 0.74188 0.0
C101 C 0.66105 0.88374 0.78973 0.0
O102 O 0.66241 0.90362 0.7724 0.0
O103 O 0.73822 0.87993 0.83762 0.0
C104 C 0.20611 0.0262 0.25947 0.0
O105 O 0.19996 0.03895 0.28172 0.0
O106 O 0.20799 0.0971 0.2668 0.0
Zn107 Zn 0.1933 0.07682 0.23508 0.0
O108 O 0.20643 0.09411 0.20101 0.0
C109 C 0.1425 0.08802 0.25825 0.0
O110 O 0.15511 0.08155 0.28055 0.0
O111 O 0.20404 0.03827 0.23702 0.0
C112 C 0.23099 0.09726 0.19482 0.0
O113 O 0.24962 0.0877 0.21089 0.0
C114 C 0.20305 0.12205 0.26839 0.0
O115 O 0.19083 0.134 0.24825 0.0
O116 O 0.15348 0.08256 0.23585 0.0
C117 C 0.9463 0.28392 0.31481 0.0
O118 O 0.93156 0.30485 0.30858 0.0
O119 O 0.87222 0.27535 0.34566 0.0
Zn120 Zn 0.8951 0.25862 0.31671 0.0
O121 O 0.88708 0.27418 0.28018 0.0
C122 C 0.86574 0.20918 0.32767 0.0
O123 O 0.85299 0.22419 0.34516 0.0
O124 O 0.93471 0.26232 0.32204 0.0
C125 C 0.90042 0.26554 0.26019 0.0
O126 O 0.91906 0.24737 0.26426 0.0
C127 C 0.8539 0.29183 0.33917 0.0
O128 O 0.85372 0.30169 0.31465 0.0
O129 O 0.88499 0.21931 0.31416 0.0
C130 C 0.83453 0.91784 0.29721 0.0
O131 O 0.82081 0.90383 0.31493 0.0
O132 O 0.82036 0.84817 0.29698 0.0
Zn133 Zn 0.85153 0.86554 0.27792 0.0
O134 O 0.85 0.85684 0.23851 0.0
C135 C 0.88399 0.82966 0.30928 0.0
O136 O 0.86284 0.82943 0.32506 0.0
O137 O 0.85037 0.9058 0.28125 0.0
C138 C 0.83985 0.87145 0.22017 0.0
O139 O 0.8277 0.89388 0.22666 0.0
C140 C 0.79597 0.8485 0.28959 0.0
O141 O 0.78922 0.86173 0.26774 0.0
O142 O 0.88533 0.84708 0.29057 0.0
C143 C 0.09571 0.69009 0.29195 0.0
O144 O 0.10607 0.71066 0.30485 0.0
O145 O 0.17636 0.67385 0.26953 0.0
Zn146 Zn 0.14326 0.69362 0.25721 0.0
O147 O 0.13893 0.69043 0.21709 0.0
C148 C 0.16569 0.74164 0.28255 0.0
O149 O 0.17723 0.72438 0.29879 0.0
O150 O 0.10883 0.67951 0.27285 0.0
C151 C 0.12073 0.70472 0.20629 0.0
O152 O 0.10612 0.72041 0.22162 0.0
C153 C 0.17904 0.665 0.29337 0.0
O154 O 0.15841 0.666 0.30981 0.0
O155 O 0.14927 0.73315 0.26482 0.0
C156 C 0.25919 0.95985 0.68957 0.0
O157 O 0.2818 0.94868 0.68194 0.0
O158 O 0.25859 0.89275 0.65391 0.0
Zn159 Zn 0.23623 0.90625 0.68479 0.0
O160 O 0.24375 0.88889 0.72064 0.0
C161 C 0.19525 0.87075 0.66947 0.0
O162 O 0.21668 0.856 0.66532 0.0
O163 O 0.23783 0.94587 0.69034 0.0
C164 C 0.25924 0.89756 0.73907 0.0
O165 O 0.27531 0.91794 0.73422 0.0
C166 C 0.28153 0.88178 0.65518 0.0
O167 O 0.29421 0.88093 0.67835 0.0
O168 O 0.19832 0.89492 0.67703 0.0
C169 C 0.0277 0.26069 0.78243 0.0
O170 O 0.04535 0.2753 0.76926 0.0
O171 O 0.08315 0.22527 0.74479 0.0
Zn172 Zn 0.07162 0.22501 0.78377 0.0
O173 O 0.09578 0.24937 0.80479 0.0
C174 C 0.07713 0.16846 0.78021 0.0
O175 O 0.06393 0.17232 0.75764 0.0
O176 O 0.03396 0.23711 0.78981 0.0
C177 C 0.09665 0.24638 0.83016 0.0
O178 O 0.08119 0.22821 0.84153 0.0
C179 C 0.107 0.21689 0.74107 0.0
O180 O 0.12184 0.21114 0.76217 0.0
O181 O 0.07858 0.18759 0.79701 0.0
C182 C 0.76948 0.0538 0.78268 0.0
O183 O 0.77435 0.06486 0.75917 0.0
O184 O 0.77207 0.12514 0.76939 0.0
Zn185 Zn 0.78258 0.10651 0.80379 0.0
O186 O 0.7622 0.12315 0.83407 0.0
C187 C 0.83429 0.12689 0.79105 0.0
O188 O 0.82627 0.12212 0.76633 0.0
O189 O 0.77371 0.06722 0.80395 0.0
C190 C 0.73725 0.11974 0.83822 0.0
O191 O 0.7232 0.10459 0.82178 0.0
C192 C 0.75131 0.1225 0.7548 0.0
O193 O 0.73245 0.10537 0.76182 0.0
O194 O 0.82118 0.11655 0.81045 0.0
C195 C 0.91803 0.81782 0.65204 0.0
O196 O 0.90378 0.79754 0.64292 0.0
O197 O 0.84657 0.80499 0.6553 0.0
Zn198 Zn 0.87068 0.82547 0.68049 0.0
O199 O 0.88038 0.8025 0.7123 0.0
C200 C 0.82745 0.86339 0.68284 0.0
O201 O 0.82387 0.85625 0.65766 0.0
O202 O 0.90618 0.83607 0.66523 0.0
C203 C 0.89384 0.81372 0.73094 0.0
O204 O 0.90041 0.83916 0.72844 0.0
C205 C 0.82632 0.79499 0.66728 0.0
O206 O 0.82526 0.79638 0.69366 0.0
O207 O 0.84845 0.85564 0.69518 0.0
C208 C 0.2462 0.26761 0.05846 0.0
O209 O 0.23744 0.28545 0.07577 0.0
O210 O 0.27291 0.24495 0.12932 0.0
Zn211 Zn 0.24245 0.23441 0.10492 0.0
O212 O 0.20857 0.25261 0.11747 0.0
C213 C 0.25647 0.17994 0.11849 0.0
O214 O 0.28105 0.18959 0.11763 0.0
O215 O 0.25025 0.24369 0.06639 0.0
C216 C 0.18591 0.24124 0.1141 0.0
O217 O 0.18475 0.21871 0.10044 0.0
C218 C 0.2678 0.24334 0.15432 0.0
O219 O 0.24321 0.23747 0.16198 0.0
O220 O 0.23708 0.1948 0.11116 0.0
C221 C 0.23248 0.78656 0.9215 0.0
O222 O 0.25512 0.77815 0.911 0.0
O223 O 0.25651 0.78477 0.85507 0.0
Zn224 Zn 0.22292 0.80341 0.8669 0.0
O225 O 0.1921 0.78643 0.84722 0.0
C226 C 0.24842 0.84983 0.84423 0.0
O227 O 0.27032 0.83917 0.85434 0.0
O228 O 0.21624 0.79979 0.90688 0.0
C229 C 0.16998 0.79884 0.84458 0.0
O230 O 0.16695 0.82216 0.85647 0.0
C231 C 0.25839 0.75963 0.85169 0.0
O232 O 0.23786 0.74413 0.85774 0.0
O233 O 0.22567 0.8406 0.85144 0.0
C234 C 0.24747 0.28941 0.94466 0.0
O235 O 0.23043 0.30709 0.93507 0.0
O236 O 0.25766 0.29918 0.86519 0.0
Zn237 Zn 0.24588 0.26944 0.89044 0.0
O238 O 0.25611 0.23306 0.87639 0.0
C239 C 0.19096 0.28743 0.88085 0.0
O240 O 0.20202 0.31058 0.87462 0.0
O241 O 0.25807 0.27264 0.92871 0.0
C242 C 0.27749 0.22587 0.86455 0.0
O243 O 0.29691 0.24341 0.86084 0.0
C244 C 0.25055 0.29533 0.84089 0.0
O245 O 0.23917 0.27234 0.8346 0.0
O246 O 0.20557 0.26846 0.88959 0.0
C247 C 0.73183 0.24242 0.9857 0.0
O248 O 0.74789 0.23535 0.96601 0.0
O249 O 0.66011 0.25226 0.93109 0.0
Zn250 Zn 0.69801 0.2427 0.94145 0.0
O251 O 0.72559 0.26309 0.9201 0.0
C252 C 0.6896 0.19225 0.91356 0.0
O253 O 0.66634 0.20274 0.90698 0.0
O254 O 0.70716 0.24662 0.98056 0.0
C255 C 0.73848 0.28416 0.9266 0.0
O256 O 0.73153 0.29767 0.94815 0.0
C257 C 0.65292 0.2748 0.92161 0.0
O258 O 0.67025 0.29474 0.92134 0.0
O259 O 0.70491 0.20479 0.92975 0.0
C260 C 0.86139 0.73277 0.92757 0.0
O261 O 0.84865 0.7128 0.91591 0.0
O262 O 0.84837 0.72155 0.85544 0.0
Zn263 Zn 0.8597 0.75577 0.87421 0.0
O264 O 0.82955 0.78234 0.87227 0.0
C265 C 0.8985 0.75874 0.83193 0.0
O266 O 0.89653 0.73247 0.83289 0.0
O267 O 0.8698 0.75218 0.91325 0.0
C268 C 0.80932 0.78438 0.88771 0.0
O269 O 0.80587 0.76716 0.90745 0.0
C270 C 0.82493 0.71145 0.85513 0.0
O271 O 0.80625 0.72166 0.87064 0.0
O272 O 0.8882 0.7725 0.85079 0.0
C273 C 0.84841 0.74576 0.04207 0.0
O274 O 0.84102 0.72536 0.05715 0.0
O275 O 0.79699 0.77531 0.09499 0.0
Zn276 Zn 0.83708 0.77306 0.09085 0.0
O277 O 0.85006 0.74216 0.11332 0.0
C278 C 0.83699 0.82587 0.11418 0.0
O279 O 0.81438 0.82843 0.10078 0.0
O280 O 0.8486 0.76918 0.05222 0.0
C281 C 0.87463 0.74139 0.12028 0.0
O282 O 0.89133 0.75929 0.1103 0.0
C283 C 0.77787 0.76569 0.08104 0.0
O284 O 0.78319 0.75119 0.05967 0.0
O285 O 0.85175 0.8056 0.10968 0.0
C286 C 0.20129 0.74867 0.02709 0.0
O287 O 0.21859 0.73521 0.04178 0.0
O288 O 0.19334 0.71698 0.09185 0.0
Zn289 Zn 0.17332 0.74913 0.07718 0.0
O290 O 0.18644 0.78128 0.09764 0.0
C291 C 0.1285 0.71879 0.09264 0.0
O292 O 0.14017 0.7001 0.07818 0.0
O293 O 0.17909 0.75562 0.03755 0.0
C294 C 0.20863 0.79304 0.09292 0.0
O295 O 0.22363 0.78484 0.07286 0.0
C296 C 0.19226 0.71436 0.11732 0.0
O297 O 0.18054 0.7332 0.13153 0.0
O298 O 0.13489 0.7431 0.08811 0.0
C299 C 0.77439 0.24781 0.09342 0.0
O300 O 0.75827 0.24223 0.1136 0.0
O301 O 0.78523 0.25873 0.16251 0.0
Zn302 Zn 0.81145 0.24293 0.13587 0.0
O303 O 0.81337 0.20314 0.14212 0.0
C304 C 0.85149 0.27922 0.15756 0.0
O305 O 0.83306 0.29769 0.15434 0.0
O306 O 0.79949 0.25001 0.09784 0.0
C307 C 0.80277 0.18415 0.12871 0.0
O308 O 0.78758 0.18953 0.10781 0.0
C309 C 0.77501 0.28179 0.15884 0.0
O310 O 0.78042 0.29495 0.13654 0.0
O311 O 0.8482 0.25654 0.14635 0.0
C312 C 0.52307 0.73583 0.77677 0.0
O313 O 0.53881 0.74303 0.79672 0.0
O314 O 0.57263 0.79488 0.75676 0.0
Zn315 Zn 0.56507 0.75776 0.742 0.0
O316 O 0.5947 0.73301 0.75336 0.0
C317 C 0.57949 0.77772 0.68913 0.0
O318 O 0.58574 0.79958 0.7025 0.0
O319 O 0.5298 0.74128 0.7527 0.0
C320 C 0.61849 0.7412 0.74897 0.0
O321 O 0.62213 0.7655 0.73932 0.0
C322 C 0.58459 0.7978 0.77918 0.0
O323 O 0.58802 0.77667 0.79462 0.0
O324 O 0.5684 0.75831 0.70157 0.0
C325 C 0.19091 0.55656 0.67922 0.0
O326 O 0.18227 0.56831 0.70121 0.0
O327 O 0.16325 0.62578 0.67255 0.0
Zn328 Zn 0.20004 0.60994 0.6692 0.0
O329 O 0.22281 0.61198 0.70283 0.0
C330 C 0.22045 0.65729 0.65037 0.0
O331 O 0.2088 0.6634 0.67327 0.0
O332 O 0.19832 0.57112 0.65955 0.0
C333 C 0.24553 0.60067 0.69989 0.0
O334 O 0.25083 0.58889 0.67688 0.0
C335 C 0.15098 0.63213 0.69396 0.0
O336 O 0.16177 0.62627 0.71737 0.0
O337 O 0.21943 0.6331 0.64228 0.0
C338 C 0.41451 0.23899 0.71899 0.0
O339 O 0.39448 0.2267 0.73106 0.0
O340 O 0.34676 0.23124 0.70167 0.0
Zn341 Zn 0.37354 0.25365 0.68156 0.0
O342 O 0.36429 0.29202 0.68776 0.0
C343 C 0.36026 0.21855 0.641 0.0
O344 O 0.37062 0.20144 0.65825 0.0
O345 O 0.41083 0.24937 0.69591 0.0
C346 C 0.36525 0.31069 0.67039 0.0
O347 O 0.37199 0.30519 0.64546 0.0
C348 C 0.322 0.23576 0.69736 0.0
O349 O 0.31506 0.25642 0.68248 0.0
O350 O 0.36686 0.24313 0.6432 0.0
C351 C 0.74062 0.4602 0.70205 0.0
O352 O 0.75642 0.44681 0.68575 0.0
O353 O 0.73859 0.38859 0.74092 0.0
Zn354 Zn 0.71521 0.40836 0.71473 0.0
O355 O 0.6771 0.40198 0.7262 0.0
C356 C 0.7419 0.3789 0.67228 0.0
O357 O 0.76383 0.38463 0.68583 0.0
O358 O 0.72255 0.44782 0.71514 0.0
C359 C 0.66847 0.40984 0.7489 0.0
O360 O 0.6846 0.42352 0.76474 0.0
C361 C 0.76286 0.39418 0.74655 0.0
O362 O 0.77399 0.41581 0.73624 0.0
O363 O 0.71991 0.38993 0.67907 0.0
C364 C 0.55509 0.17773 0.23108 0.0
O365 O 0.56963 0.18356 0.20981 0.0
O366 O 0.63154 0.15327 0.24306 0.0
Zn367 Zn 0.60597 0.18124 0.25762 0.0
O368 O 0.61125 0.21834 0.2422 0.0
C369 C 0.63138 0.17453 0.3109 0.0
O370 O 0.64509 0.15489 0.30001 0.0
O371 O 0.56685 0.17288 0.25325 0.0
C372 C 0.61822 0.22734 0.21931 0.0
O373 O 0.62478 0.21062 0.20001 0.0
C374 C 0.656 0.1605 0.24134 0.0
O375 O 0.66209 0.18572 0.24618 0.0
O376 O 0.61358 0.18659 0.29712 0.0
C377 C 0.72279 0.53161 0.24837 0.0
O378 O 0.73249 0.54524 0.2279 0.0
O379 O 0.76984 0.5899 0.28124 0.0
Zn380 Zn 0.73065 0.58207 0.27418 0.0
O381 O 0.71766 0.60126 0.24105 0.0
C382 C 0.72078 0.6083 0.32531 0.0
O383 O 0.74526 0.60053 0.33128 0.0
O384 O 0.72117 0.54291 0.27123 0.0
C385 C 0.69269 0.59869 0.23615 0.0
O386 O 0.67839 0.58231 0.25119 0.0
C387 C 0.79038 0.58476 0.26705 0.0
O388 O 0.78751 0.57148 0.24442 0.0
O389 O 0.71001 0.60019 0.30359 0.0
C390 C 0.4712 0.74991 0.17681 0.0
O391 O 0.45405 0.76872 0.17009 0.0
O392 O 0.4138 0.76756 0.22354 0.0
Zn393 Zn 0.42853 0.73168 0.21222 0.0
O394 O 0.40167 0.71444 0.18791 0.0
C395 C 0.43159 0.7171 0.26873 0.0
O396 O 0.4396 0.74203 0.27195 0.0
O397 O 0.46478 0.73277 0.19465 0.0
C398 C 0.40301 0.68927 0.18426 0.0
O399 O 0.42433 0.67638 0.1929 0.0
C400 C 0.39932 0.78126 0.20762 0.0
O401 O 0.39686 0.77346 0.18249 0.0
O402 O 0.428 0.70818 0.24508 0.0
C403 C 0.25729 0.43462 0.24782 0.0
O404 O 0.26719 0.41811 0.22982 0.0
O405 O 0.2324 0.36366 0.26133 0.0
Zn406 Zn 0.25963 0.38718 0.27956 0.0
O407 O 0.29658 0.37592 0.26743 0.0
C408 C 0.23055 0.37312 0.3262 0.0
O409 O 0.21073 0.38159 0.31095 0.0
O410 O 0.2524 0.42592 0.27138 0.0
C411 C 0.31573 0.37258 0.28404 0.0
O412 O 0.3119 0.37849 0.3095 0.0
C413 C 0.23602 0.33854 0.26382 0.0
O414 O 0.25853 0.32989 0.27454 0.0
O415 O 0.25455 0.37746 0.31853 0.0
C416 C 0.75416 0.57403 0.71934 0.0
O417 O 0.77378 0.58729 0.70761 0.0
O418 O 0.76573 0.63743 0.76633 0.0
Zn419 Zn 0.74105 0.62671 0.7361 0.0
O420 O 0.75033 0.64139 0.69932 0.0
C421 C 0.70908 0.66984 0.74686 0.0
O422 O 0.73321 0.6801 0.74354 0.0
O423 O 0.73734 0.58678 0.73364 0.0
C424 C 0.7321 0.63602 0.68213 0.0
O425 O 0.71183 0.62078 0.68958 0.0
C426 C 0.78885 0.64818 0.76522 0.0
O427 O 0.80052 0.65149 0.74174 0.0
O428 O 0.70611 0.64455 0.74509 0.0
C429 C 0.42095 0.68363 0.79219 0.0
O430 O 0.40457 0.69469 0.80961 0.0
O431 O 0.34986 0.69086 0.79039 0.0
Zn432 Zn 0.37206 0.67052 0.76366 0.0
O433 O 0.37048 0.68878 0.72758 0.0
C434 C 0.33216 0.62938 0.76995 0.0
O435 O 0.32714 0.64213 0.79247 0.0
O436 O 0.41125 0.66943 0.77327 0.0
C437 C 0.38685 0.70669 0.71947 0.0
O438 O 0.4054 0.71585 0.7359 0.0
C439 C 0.34723 0.71611 0.79194 0.0
O440 O 0.36136 0.73173 0.77597 0.0
O441 O 0.35354 0.63504 0.75705 0.0
C442 C 0.22565 0.44671 0.68415 0.0
O443 O 0.23349 0.43417 0.6623 0.0
O444 O 0.24063 0.37532 0.73812 0.0
Zn445 Zn 0.24204 0.3977 0.70419 0.0
O446 O 0.22094 0.378 0.67643 0.0
C447 C 0.3003 0.39639 0.70432 0.0
O448 O 0.29802 0.40209 0.72999 0.0
O449 O 0.22784 0.43494 0.70674 0.0
C450 C 0.19612 0.37221 0.67721 0.0
O451 O 0.18158 0.38007 0.69777 0.0
C452 C 0.24718 0.38111 0.76217 0.0
O453 O 0.2546 0.40572 0.76809 0.0
O454 O 0.27946 0.39667 0.68964 0.0
C455 C 0.50646 0.26995 0.78225 0.0
O456 O 0.52163 0.25125 0.79292 0.0
O457 O 0.56355 0.29839 0.83038 0.0
Zn458 Zn 0.55336 0.30097 0.79112 0.0
O459 O 0.57443 0.27456 0.76959 0.0
C460 C 0.57716 0.35421 0.7916 0.0
O461 O 0.57553 0.35166 0.81785 0.0
O462 O 0.51492 0.29404 0.78161 0.0
C463 C 0.5998 0.27473 0.77182 0.0
O464 O 0.611 0.29018 0.79009 0.0
C465 C 0.56996 0.27656 0.84189 0.0
O466 O 0.56653 0.25383 0.82898 0.0
O467 O 0.56653 0.33639 0.7767 0.0
C468 C 0.68535 0.42273 0.23424 0.0
O469 O 0.69657 0.40786 0.2156 0.0
O470 O 0.70391 0.35618 0.2386 0.0
Zn471 Zn 0.67117 0.37138 0.25636 0.0
O472 O 0.67178 0.36256 0.2957 0.0
C473 C 0.6425 0.33978 0.21768 0.0
O474 O 0.66149 0.34826 0.20137 0.0
O475 O 0.67128 0.41149 0.25238 0.0
C476 C 0.68456 0.37606 0.31324 0.0
O477 O 0.69881 0.39699 0.30568 0.0
C478 C 0.70846 0.33113 0.23974 0.0
O479 O 0.69335 0.31596 0.25525 0.0
O480 O 0.63992 0.35108 0.24048 0.0
C481 C 0.58071 0.74995 0.14068 0.0
O482 O 0.59281 0.77342 0.14017 0.0
O483 O 0.65743 0.74856 0.1265 0.0
Zn484 Zn 0.63289 0.73428 0.15538 0.0
O485 O 0.63128 0.7579 0.18837 0.0
C486 C 0.63688 0.6783 0.17369 0.0
O487 O 0.61064 0.6774 0.17094 0.0
O488 O 0.59483 0.72898 0.14365 0.0
C489 C 0.61424 0.75127 0.2063 0.0
O490 O 0.59854 0.73048 0.20195 0.0
C491 C 0.67476 0.76633 0.13256 0.0
O492 O 0.67358 0.77762 0.15639 0.0
O493 O 0.64944 0.69972 0.16777 0.0
C494 C 0.24617 0.54769 0.22556 0.0
O495 O 0.2334 0.56307 0.24274 0.0
O496 O 0.2362 0.62025 0.1966 0.0
Zn497 Zn 0.26655 0.59837 0.21212 0.0
O498 O 0.2721 0.60413 0.2522 0.0
C499 C 0.3023 0.63581 0.18868 0.0
O500 O 0.28227 0.65157 0.19528 0.0
O501 O 0.26102 0.55866 0.20785 0.0
C502 C 0.29591 0.60107 0.26105 0.0
O503 O 0.31543 0.59664 0.24389 0.0
C504 C 0.23484 0.62075 0.17103 0.0
O505 O 0.25001 0.60418 0.15726 0.0
O506 O 0.30028 0.61078 0.19326 0.0
C507 C 0.44568 0.21457 0.23286 0.0
O508 O 0.43004 0.21456 0.21156 0.0
O509 O 0.37525 0.23506 0.22943 0.0
Zn510 Zn 0.40033 0.2391 0.26102 0.0
O511 O 0.38392 0.21875 0.29174 0.0
C512 C 0.3946 0.29577 0.2529 0.0
O513 O 0.39644 0.28873 0.2275 0.0
O514 O 0.43734 0.22475 0.25472 0.0
C515 C 0.38668 0.2268 0.31583 0.0
O516 O 0.40211 0.24768 0.32072 0.0
C517 C 0.35136 0.24226 0.23485 0.0
O518 O 0.34571 0.24992 0.25949 0.0
O519 O 0.39926 0.2783 0.27095 0.0
C520 C 0.68599 0.77629 0.52183 0.0
O521 O 0.68926 0.79737 0.53736 0.0
O522 O 0.72685 0.76859 0.58514 0.0
Zn523 Zn 0.69374 0.74941 0.57187 0.0
O524 O 0.66221 0.76482 0.59171 0.0
C525 C 0.72197 0.70178 0.58777 0.0
O526 O 0.74255 0.71505 0.57784 0.0
O527 O 0.68783 0.75298 0.53207 0.0
C528 C 0.6411 0.75102 0.59581 0.0
O529 O 0.63919 0.72699 0.58514 0.0
C530 C 0.72918 0.76634 0.61054 0.0
O531 O 0.70964 0.75479 0.62409 0.0
O532 O 0.69841 0.71109 0.58443 0.0
C533 C 0.71251 0.23584 0.47357 0.0
O534 O 0.72532 0.21986 0.45699 0.0
O535 O 0.74897 0.27312 0.41634 0.0
Zn536 Zn 0.71001 0.26703 0.42621 0.0
O537 O 0.69593 0.23649 0.40398 0.0
C538 C 0.69986 0.32286 0.41378 0.0
O539 O 0.7224 0.32708 0.42691 0.0
O540 O 0.70435 0.25844 0.46508 0.0
C541 C 0.67064 0.23391 0.40162 0.0
O542 O 0.65488 0.2503 0.41492 0.0
C543 C 0.75231 0.28211 0.39259 0.0
O544 O 0.73116 0.28541 0.37711 0.0
O545 O 0.68946 0.29955 0.41425 0.0
C546 C 0.66673 0.7876 0.40779 0.0
O547 O 0.67793 0.8077 0.39481 0.0
O548 O 0.69331 0.7859 0.34087 0.0
Zn549 Zn 0.66314 0.76291 0.35494 0.0
O550 O 0.67282 0.7243 0.34945 0.0
C551 C 0.63231 0.7881 0.31359 0.0
O552 O 0.64921 0.80795 0.31778 0.0
O553 O 0.65721 0.76795 0.39457 0.0
C554 C 0.68574 0.70982 0.36605 0.0
O555 O 0.69447 0.72033 0.38865 0.0
C556 C 0.71775 0.78532 0.34808 0.0
O557 O 0.72521 0.76888 0.36734 0.0
O558 O 0.63138 0.76894 0.33054 0.0
C559 C 0.32299 0.69041 0.41116 0.0
O560 O 0.31161 0.70059 0.3896 0.0
O561 O 0.28972 0.64866 0.36154 0.0
Zn562 Zn 0.32657 0.64315 0.37777 0.0
O563 O 0.35531 0.65314 0.35093 0.0
C564 C 0.32141 0.58537 0.37288 0.0
O565 O 0.32076 0.56056 0.38178 0.0
O566 O 0.33069 0.66612 0.41085 0.0
C567 C 0.376 0.66697 0.35683 0.0
O568 O 0.37984 0.67456 0.38183 0.0
C569 C 0.28614 0.65511 0.33704 0.0
O570 O 0.30709 0.65994 0.32173 0.0
O571 O 0.32881 0.60416 0.38852 0.0
C572 C 0.21059 0.21267 0.4406 0.0
O573 O 0.19315 0.22498 0.42511 0.0
O574 O 0.22923 0.20449 0.3659 0.0
Zn575 Zn 0.24669 0.22402 0.39674 0.0
O576 O 0.24002 0.26364 0.39308 0.0
C577 C 0.2981 0.19974 0.38276 0.0
O578 O 0.28389 0.17789 0.37861 0.0
O579 O 0.23461 0.20983 0.43251 0.0
C580 C 0.21925 0.27387 0.38239 0.0
O581 O 0.19936 0.25807 0.37511 0.0
C582 C 0.22398 0.17956 0.36705 0.0
O583 O 0.22806 0.16656 0.3897 0.0
O584 O 0.28664 0.22043 0.39219 0.0
C585 C 0.19502 0.19854 0.55366 0.0
O586 O 0.21169 0.18355 0.56757 0.0
O587 O 0.17761 0.211 0.63342 0.0
Zn588 Zn 0.196 0.22884 0.60207 0.0
O589 O 0.23622 0.22421 0.60432 0.0
C590 C 0.16976 0.28006 0.61549 0.0
O591 O 0.14781 0.266 0.61959 0.0
O592 O 0.18347 0.218 0.56531 0.0
C593 C 0.24876 0.2047 0.61491 0.0
O594 O 0.23509 0.18463 0.62533 0.0
C595 C 0.15236 0.20737 0.63478 0.0
O596 O 0.13766 0.2111 0.61314 0.0
O597 O 0.19079 0.26847 0.60692 0.0
C598 C 0.7009 0.21031 0.58586 0.0
O599 O 0.7221 0.20019 0.59786 0.0
O600 O 0.7117 0.19507 0.6548 0.0
Zn601 Zn 0.6913 0.22618 0.63902 0.0
O602 O 0.70932 0.26219 0.641 0.0
C603 C 0.66811 0.23575 0.68733 0.0
O604 O 0.69417 0.23685 0.69131 0.0
O605 O 0.68259 0.22086 0.60011 0.0
C606 C 0.7312 0.27234 0.6326 0.0
O607 O 0.74928 0.25729 0.62078 0.0
C608 C 0.73362 0.19672 0.66776 0.0
O609 O 0.74669 0.21965 0.66821 0.0
O610 O 0.65951 0.23058 0.66373 0.0
C611 C 0.32814 0.74916 0.51099 0.0
O612 O 0.30826 0.76552 0.51647 0.0
O613 O 0.33061 0.79037 0.57718 0.0
Zn614 Zn 0.33419 0.75098 0.56822 0.0
O615 O 0.29976 0.7318 0.57687 0.0
C616 C 0.3723 0.74851 0.61235 0.0
O617 O 0.37375 0.77465 0.6093 0.0
O618 O 0.34361 0.74173 0.52993 0.0
C619 C 0.29075 0.73467 0.60058 0.0
O620 O 0.3026 0.75188 0.61674 0.0
C621 C 0.30839 0.80276 0.57602 0.0
O622 O 0.28763 0.79092 0.56474 0.0
O623 O 0.35944 0.73462 0.59517 0.0
C624 C 0.98812 0.25848 0.30486 0.0
C625 C 0.97494 0.28325 0.30704 0.0
H626 H 0.02271 0.23742 0.29107 0.0
C627 C 0.98834 0.30669 0.2986 0.0
H628 H 0.97841 0.24001 0.31111 0.0
C629 C 0.01401 0.3052 0.2872 0.0
C630 C 0.02642 0.28019 0.28367 0.0
H631 H 0.97868 0.32607 0.30003 0.0
H632 H 0.02367 0.32344 0.28027 0.0
C633 C 0.01345 0.25695 0.29311 0.0
C634 C 0.83635 0.95942 0.26902 0.0
C635 C 0.82851 0.9466 0.293 0.0
H636 H 0.8348 -0.00503 0.24496 0.0
C637 C 0.81321 0.96098 0.31183 0.0
H638 H 0.84796 0.94887 0.25398 0.0
C639 C 0.80576 0.98755 0.30669 0.0
C640 C 0.81312 0.00012 0.28245 0.0
H641 H 0.8068 0.95163 0.33045 0.0
H642 H 0.79393 -0.00189 0.32155 0.0
C643 C 0.82858 0.98579 0.26373 0.0
C644 C 0.05459 0.66483 0.27776 0.0
C645 C 0.06724 0.68239 0.29598 0.0
H646 H 0.01754 0.64838 0.26336 0.0
C647 C 0.05174 0.69451 0.31617 0.0
H648 H 0.06593 0.65501 0.26204 0.0
C649 C 0.02393 0.69047 0.31706 0.0
C650 C 0.01109 0.67446 0.29759 0.0
H651 H 0.06089 0.708 0.33061 0.0
H652 H 0.01237 0.70103 0.33212 0.0
C653 C 0.02681 0.66104 0.27847 0.0
C654 C 0.22461 0.95697 0.285 0.0
C655 C 0.23506 0.94509 0.26164 0.0
H656 H 0.20725 0.99204 0.30269 0.0
C657 C 0.23631 0.96028 0.23781 0.0
H658 H 0.22338 0.94578 0.30366 0.0
C659 C 0.22686 0.98655 0.23719 0.0
C660 C 0.21614 -0.00163 0.26043 0.0
H661 H 0.24419 0.95175 0.21942 0.0
H662 H 0.22797 -0.00242 0.21842 0.0
C663 C 0.21534 0.98343 0.28443 0.0
C664 C 0.96006 0.82476 0.67841 0.0
C665 C 0.94722 0.81429 0.65548 0.0
H666 H -0.00521 0.82375 0.70382 0.0
C667 C 0.96136 0.79667 0.63869 0.0
H668 H 0.94962 0.8382 0.69191 0.0
C669 C 0.98738 0.78863 0.64541 0.0
C670 C -0.0006 0.7976 0.66935 0.0
H671 H 0.95188 0.78823 0.62098 0.0
H672 H -0.00248 0.77435 0.63256 0.0
C673 C 0.9858 0.81624 0.68544 0.0
C674 C 0.23639 0.02127 0.72743 0.0
C675 C 0.25883 0.03828 0.72533 0.0
H676 H 0.21874 0.98357 0.71739 0.0
C677 C 0.28143 0.02952 0.71088 0.0
H678 H 0.21857 0.02747 0.73824 0.0
C679 C 0.28157 0.00411 0.69891 0.0
C680 C 0.25899 0.98722 0.70091 0.0
H681 H 0.29899 0.04224 0.70884 0.0
H682 H 0.29931 -0.00227 0.6881 0.0
C683 C 0.2364 -0.00386 0.71524 0.0
C684 C 0.98664 0.26099 0.81114 0.0
C685 C 0.00129 0.27188 0.78958 0.0
H686 H 0.95019 0.26163 0.8338 0.0
C687 C 0.9905 0.29347 0.77501 0.0
H688 H -0.00535 0.24457 0.82294 0.0
C689 C 0.96489 0.30313 0.78108 0.0
C690 C 0.94993 0.29173 0.80218 0.0
H691 H 0.00147 0.30233 0.75839 0.0
H692 H 0.95654 0.31909 0.76887 0.0
C693 C 0.96132 0.271 0.81756 0.0
C694 C 0.75138 0.01521 0.80958 0.0
C695 C 0.75612 0.02732 0.78443 0.0
H696 H 0.73503 0.98154 0.83089 0.0
C697 C 0.74667 0.01458 0.76109 0.0
H698 H 0.75821 0.02464 0.82798 0.0
C699 C 0.73305 0.99011 0.7628 0.0
C700 C 0.72875 0.97772 0.78788 0.0
H701 H 0.7497 0.02352 0.74144 0.0
H702 H 0.72642 0.98065 0.74434 0.0
C703 C 0.73789 0.99062 0.81128 0.0
C704 C 0.23852 0.29875 0.01965 0.0
C705 C 0.24931 0.27472 0.02975 0.0
H706 H 0.22957 0.32234 0.98475 0.0
C707 C 0.26187 0.25693 0.01189 0.0
H708 H 0.2288 0.31293 0.03292 0.0
C709 C 0.26259 0.26248 0.98436 0.0
C710 C 0.25048 0.28579 0.97405 0.0
H711 H 0.2706 0.23838 0.01909 0.0
H712 H 0.27168 0.2479 0.97106 0.0
C713 C 0.23897 0.30416 0.99205 0.0
C714 C 0.19936 0.78427 0.95955 0.0
C715 C 0.22471 0.77789 0.94893 0.0
H716 H 0.17191 0.77984 0.99245 0.0
C717 C 0.24208 0.76166 0.96413 0.0
H718 H 0.18543 0.79661 0.94829 0.0
C719 C 0.23427 0.7519 0.98929 0.0
C720 C 0.2089 0.75814 -0.00012 0.0
H721 H 0.26172 0.75625 0.95653 0.0
H722 H 0.24822 0.7395 0.00044 0.0
C723 C 0.19153 0.7745 0.98478 0.0
C724 C 0.77051 0.24554 0.01753 0.0
C725 C 0.7426 0.24541 0.0132 0.0
H726 H 0.80251 0.24682 0.04628 0.0
C727 C 0.72529 0.24767 0.03534 0.0
H728 H 0.78439 0.24407 0.00083 0.0
C729 C 0.7357 0.24913 0.06141 0.0
C730 C 0.76361 0.24863 0.06577 0.0
H731 H 0.7037 0.24772 0.03261 0.0
H732 H 0.72184 0.25026 0.07815 0.0
C733 C 0.78092 0.24728 0.04355 0.0
C734 C 0.86796 0.75956 0.96969 0.0
C735 C 0.86155 0.73502 0.95726 0.0
H736 H 0.86869 0.78228 0.00622 0.0
C737 C 0.85274 0.7135 0.9733 0.0
H738 H 0.87477 0.77657 0.95792 0.0
C739 C 0.84936 0.71676 0.00101 0.0
C740 C 0.85449 0.74169 0.01323 0.0
H741 H 0.8477 0.69432 0.96436 0.0
H742 H 0.84188 0.69996 0.01268 0.0
C743 C 0.86435 0.7629 -0.00263 0.0
C744 C 0.48516 0.7218 0.80696 0.0
C745 C 0.49816 0.72051 0.78193 0.0
H746 H 0.45033 0.71095 0.82997 0.0
C747 C 0.487 0.70459 0.76147 0.0
H748 H 0.49345 0.73379 0.82314 0.0
C749 C 0.4628 0.69102 0.76557 0.0
C750 C 0.44891 0.69352 0.79004 0.0
H751 H 0.49679 0.70287 0.74209 0.0
H752 H 0.45438 0.67965 0.74901 0.0
C753 C 0.46058 0.70863 0.8109 0.0
C754 C 0.20351 0.48648 0.70499 0.0
C755 C 0.21484 0.47415 0.68234 0.0
H756 H 0.1865 0.52207 0.72159 0.0
C757 C 0.21613 0.48844 0.65796 0.0
H758 H 0.20199 0.47588 0.72398 0.0
C759 C 0.20728 0.51495 0.65657 0.0
C760 C 0.19681 0.52759 0.67949 0.0
H761 H 0.22461 0.4794 0.64009 0.0
H762 H 0.20933 0.52574 0.63774 0.0
C763 C 0.19447 0.5129 0.70355 0.0
C764 C 0.45299 0.26959 0.72848 0.0
C765 C 0.43886 0.24587 0.73442 0.0
H766 H 0.48487 0.29621 0.73952 0.0
C767 C 0.44673 0.23034 0.75666 0.0
H768 H 0.44713 0.28218 0.7117 0.0
C769 C 0.46859 0.23828 0.77249 0.0
C770 C 0.4824 0.26225 0.76676 0.0
H771 H 0.43601 0.21208 0.76178 0.0
H772 H 0.47457 0.2258 0.78931 0.0
C773 C 0.47434 0.27785 0.74466 0.0
C774 C 0.76512 0.50344 0.69343 0.0
C775 C 0.74419 0.48936 0.70615 0.0
H776 H 0.7848 0.54128 0.68773 0.0
C777 C 0.72675 0.50332 0.72336 0.0
H778 H 0.77893 0.49324 0.68012 0.0
C779 C 0.73011 0.53075 0.72775 0.0
C780 C 0.75102 0.54486 0.71506 0.0
H781 H 0.71041 0.49309 0.73353 0.0
H782 H 0.71625 0.54088 0.74107 0.0
C783 C 0.76852 0.53094 0.69787 0.0
C784 C 0.48591 0.19842 0.20724 0.0
C785 C 0.47273 0.20254 0.23186 0.0
H786 H 0.52249 0.18712 0.18762 0.0
C787 C 0.48587 0.19559 0.25589 0.0
H788 H 0.47619 0.20343 0.1884 0.0
C789 C 0.51206 0.18581 0.25544 0.0
C790 C 0.5259 0.18315 0.23096 0.0
H791 H 0.47607 0.19815 0.27517 0.0
H792 H 0.52184 0.18151 0.27443 0.0
C793 C 0.51237 0.189 0.20681 0.0
C794 C 0.68751 0.4653 0.26082 0.0
C795 C 0.6929 0.45133 0.23687 0.0
H796 H 0.69306 0.50142 0.2834 0.0
C797 C 0.70765 0.46423 0.2165 0.0
H798 H 0.67634 0.45589 0.277 0.0
C799 C 0.71723 0.49037 0.22018 0.0
C800 C 0.71247 0.50404 0.24442 0.0
H801 H 0.71218 0.454 0.19785 0.0
H802 H 0.72871 0.49968 0.20417 0.0
C803 C 0.69731 0.49132 0.2646 0.0
C804 C 0.54002 0.72536 0.15679 0.0
C805 C 0.55144 0.74856 0.14539 0.0
H806 H 0.50579 0.70775 0.17597 0.0
C807 C 0.5354 0.7715 0.14216 0.0
H808 H 0.55182 0.70735 0.15964 0.0
C809 C 0.50889 0.77165 0.15141 0.0
C810 C 0.49811 0.749 0.16441 0.0
H811 H 0.54365 0.78967 0.13341 0.0
H812 H 0.49725 0.78988 0.14943 0.0
C813 C 0.5137 0.72565 0.16639 0.0
C814 C 0.26 0.50146 0.21145 0.0
C815 C 0.24661 0.5183 0.22965 0.0
H816 H 0.27375 0.46173 0.20284 0.0
C817 C 0.23549 0.50707 0.25311 0.0
H818 H 0.26877 0.5095 0.19318 0.0
C819 C 0.23861 0.47982 0.2588 0.0
C820 C 0.25269 0.46313 0.24102 0.0
H821 H 0.22507 0.51948 0.26759 0.0
H822 H 0.2303 0.47193 0.27734 0.0
C823 C 0.26289 0.4741 0.21702 0.0
C824 C 0.68314 0.80467 0.48024 0.0
C825 C 0.67982 0.77964 0.49292 0.0
H826 H 0.68154 0.82688 0.44332 0.0
C827 C 0.67052 0.75778 0.4777 0.0
H828 H 0.69019 0.82193 0.49147 0.0
C829 C 0.66516 0.76072 0.45029 0.0
C830 C 0.66932 0.78552 0.43738 0.0
H831 H 0.66752 0.73829 0.48693 0.0
H832 H 0.65853 0.74329 0.43907 0.0
C833 C 0.67812 0.80754 0.45269 0.0
C834 C 0.68893 0.24131 0.51759 0.0
C835 C 0.70785 0.22773 0.50175 0.0
H836 H 0.67134 0.24593 0.55655 0.0
C837 C 0.72261 0.20663 0.51321 0.0
H838 H 0.67704 0.25747 0.50921 0.0
C839 C 0.71946 0.20013 0.54037 0.0
C840 C 0.7012 0.21432 0.55645 0.0
H841 H 0.73723 0.19571 0.50144 0.0
H842 H 0.73184 0.18445 0.54894 0.0
C843 C 0.68547 0.23453 0.54464 0.0
C844 C 0.31223 0.73101 0.43875 0.0
C845 C 0.32619 0.70674 0.4358 0.0
H846 H 0.302 0.76356 0.46485 0.0
C847 C 0.34268 0.69783 0.45695 0.0
H848 H 0.29946 0.73849 0.42278 0.0
C849 C 0.34443 0.71238 0.4809 0.0
C850 C 0.32947 0.73599 0.48435 0.0
H851 H 0.35392 0.67934 0.45519 0.0
H852 H 0.35671 0.70454 0.49708 0.0
C853 C 0.31372 0.7454 0.46285 0.0
C854 C 0.21593 0.18377 0.51059 0.0
C855 C 0.19526 0.19746 0.52397 0.0
H856 H 0.23708 0.17801 0.47361 0.0
C857 C 0.1774 0.21327 0.50887 0.0
H858 H 0.22999 0.17136 0.5216 0.0
C859 C 0.18136 0.21689 0.48126 0.0
C860 C 0.20346 0.20506 0.4684 0.0
H861 H 0.16116 0.22392 0.5186 0.0
H862 H 0.16806 0.23022 0.47039 0.0
C863 C 0.22012 0.18771 0.4831 0.0
C864 C 0.12471 0.12964 0.27912 0.0
C865 C 0.12315 0.11034 0.25858 0.0
H866 H 0.11588 0.16988 0.29108 0.0
C867 C 0.10726 0.11562 0.23583 0.0
H868 H 0.13698 0.12627 0.29681 0.0
C869 C 0.09494 0.14058 0.23269 0.0
C870 C 0.0988 0.16079 0.252 0.0
H871 H 0.10577 0.1011 0.2197 0.0
H872 H 0.08405 0.14463 0.21426 0.0
C873 C 0.11287 0.15476 0.27572 0.0
C874 C 0.86812 0.16623 0.30162 0.0
C875 C 0.8554 0.18208 0.32117 0.0
H876 H 0.86604 0.13118 0.27692 0.0
C877 C 0.83142 0.17271 0.33285 0.0
H878 H 0.88671 0.17276 0.29237 0.0
C879 C 0.81951 0.14889 0.32398 0.0
C880 C 0.83139 0.13388 0.30328 0.0
H881 H 0.82116 0.18435 0.3481 0.0
H882 H 0.80045 0.14287 0.33256 0.0
C883 C 0.85626 0.14235 0.29282 0.0
C884 C 0.93434 0.77999 0.28251 0.0
C885 C 0.92441 0.75581 0.29329 0.0
H886 H 0.92958 0.82255 0.27943 0.0
C887 C 0.9041 0.75683 0.31286 0.0
H888 H 0.95018 0.77994 0.26758 0.0
C889 C 0.89256 0.78136 0.31996 0.0
C890 C 0.90085 0.8053 0.30735 0.0
H891 H 0.89627 0.73859 0.32181 0.0
H892 H 0.87592 0.78123 0.33398 0.0
C893 C 0.9226 0.80447 0.28937 0.0
C894 C 0.21284 0.80102 0.28693 0.0
C895 C 0.20033 0.81937 0.26953 0.0
H896 H 0.21137 0.76215 0.30519 0.0
C897 C 0.17446 0.81344 0.25973 0.0
H898 H 0.23267 0.8051 0.29497 0.0
C899 C 0.16239 0.7887 0.2653 0.0
C900 C 0.17575 0.76956 0.2811 0.0
H901 H 0.16418 0.82719 0.24637 0.0
H902 H 0.14314 0.78411 0.25619 0.0
C903 C 0.20058 0.77642 0.29282 0.0
C904 C 0.12173 0.85881 0.68413 0.0
C905 C 0.11963 0.83098 0.68007 0.0
H906 H 0.14732 0.89339 0.68372 0.0
C907 C 0.14152 0.81718 0.66894 0.0
H908 H 0.10514 0.87007 0.69246 0.0
C909 C 0.16567 0.83056 0.66391 0.0
C910 C 0.16842 0.85798 0.66992 0.0
H911 H 0.14046 0.79578 0.66532 0.0
H912 H 0.18256 0.81908 0.65652 0.0
C913 C 0.14592 0.8722 0.67911 0.0
C914 C 0.13584 0.12872 0.80601 0.0
C915 C 0.14837 0.12166 0.78172 0.0
H916 H 0.10288 0.14905 0.82461 0.0
C917 C 0.13459 0.12569 0.75739 0.0
H918 H 0.14593 0.12573 0.82509 0.0
C919 C 0.10968 0.13846 0.75718 0.0
C920 C 0.09838 0.14791 0.78127 0.0
H921 H 0.14365 0.12017 0.73838 0.0
H922 H 0.10046 0.14287 0.73794 0.0
C923 C 0.11115 0.14197 0.80577 0.0
C924 C 0.86961 0.18165 0.82966 0.0
C925 C 0.8684 0.20294 0.81111 0.0
H926 H 0.85993 0.14049 0.83772 0.0
C927 C 0.86012 0.19767 0.78464 0.0
H928 H 0.8761 0.18505 0.85018 0.0
C929 C 0.85146 0.17199 0.77735 0.0
C930 C 0.8504 0.15125 0.79656 0.0
H931 H 0.85932 0.21362 0.76983 0.0
H932 H 0.84376 0.16899 0.75718 0.0
C933 C 0.86047 0.15608 0.82252 0.0
C934 C 0.8081 0.88014 0.72589 0.0
C935 C 0.80446 0.87325 0.69877 0.0
H936 H 0.78963 0.88906 0.76349 0.0
C937 C 0.77821 0.87216 0.68827 0.0
H938 H 0.82804 0.88121 0.7346 0.0
C939 C 0.75601 0.87644 0.70497 0.0
C940 C 0.75969 0.88195 0.73243 0.0
H941 H 0.7747 0.86675 0.66746 0.0
H942 H 0.73601 0.87466 0.69654 0.0
C943 C 0.786 0.88445 0.74251 0.0
C944 C 0.26505 0.12226 0.1672 0.0
C945 C 0.2382 0.11481 0.17185 0.0
H946 H 0.29201 0.1485 0.14625 0.0
C947 C 0.21794 0.12623 0.15583 0.0
H948 H 0.28116 0.11368 0.17903 0.0
C949 C 0.22414 0.14614 0.13702 0.0
C950 C 0.25075 0.15506 0.13379 0.0
H951 H 0.19706 0.12072 0.15865 0.0
H952 H 0.20786 0.15548 0.12601 0.0
C953 C 0.27127 0.14219 0.14832 0.0
C954 C 0.86329 0.2981 0.20254 0.0
C955 C 0.86938 0.28054 0.18129 0.0
H956 H 0.8682 0.30693 0.2444 0.0
C957 C 0.88913 0.26084 0.18525 0.0
H958 H 0.84821 0.31353 0.2002 0.0
C959 C 0.90071 0.25718 0.2106 0.0
C960 C 0.89249 0.27294 0.23251 0.0
H961 H 0.89436 0.24712 0.16921 0.0
H962 H 0.91473 0.24084 0.21338 0.0
C963 C 0.87458 0.29418 0.22798 0.0
C964 C 0.82373 0.87286 0.17234 0.0
C965 C 0.84142 0.86267 0.19184 0.0
H966 H 0.8086 0.86936 0.13212 0.0
C967 C 0.86009 0.84299 0.18433 0.0
H968 H 0.80927 0.88819 0.17751 0.0
C969 C 0.86007 0.83258 0.1583 0.0
C970 C 0.84108 0.84131 0.13929 0.0
H971 H 0.8743 0.83506 0.19879 0.0
H972 H 0.874 0.81661 0.15362 0.0
C973 C 0.82344 0.86215 0.14632 0.0
C974 C 0.10634 0.72841 0.16435 0.0
C975 C 0.11788 0.70584 0.17672 0.0
H976 H 0.10031 0.7501 0.12761 0.0
C977 C 0.12834 0.68534 0.16053 0.0
H978 H 0.09791 0.74445 0.17632 0.0
C979 C 0.12903 0.68825 0.13257 0.0
C980 C 0.11992 0.71205 0.12036 0.0
H981 H 0.13703 0.66756 0.16951 0.0
H982 H 0.13876 0.67278 0.12084 0.0
C983 C 0.10755 0.73159 0.13644 0.0
C984 C 0.23193 0.87527 0.7747 0.0
C985 C 0.25641 0.88686 0.76666 0.0
H986 H 0.20987 0.85554 0.80579 0.0
C987 C 0.27752 0.88862 0.78535 0.0
H988 H 0.21512 0.87406 0.7609 0.0
C989 C 0.27461 0.8777 0.8112 0.0
C990 C 0.2503 0.86548 0.81897 0.0
H991 H 0.29652 0.89768 0.77973 0.0
H992 H 0.29156 0.87823 0.82486 0.0
C993 C 0.2288 0.86499 0.80062 0.0
C994 C 0.13064 0.28299 0.83552 0.0
C995 C 0.1176 0.2602 0.84595 0.0
H996 H 0.16389 0.3101 0.83904 0.0
C997 C 0.12657 0.24914 0.87034 0.0
H998 H 0.12398 0.29206 0.81686 0.0
C999 C 0.14958 0.25924 0.88284 0.0
C1000 C 0.16365 0.28092 0.87146 0.0
H1001 H 0.11686 0.23162 0.8789 0.0
H1002 H 0.15711 0.24929 0.90071 0.0
C1003 C 0.15335 0.29344 0.84834 0.0
C1004 C 0.73966 0.14635 0.88057 0.0
C1005 C 0.72407 0.1347 0.86011 0.0
H1006 H 0.74086 0.17311 0.91403 0.0
C1007 C 0.69623 0.1392 0.85974 0.0
H1008 H 0.76112 0.14292 0.8816 0.0
C1009 C 0.68457 0.15671 0.8783 0.0
C1010 C 0.70052 0.16975 0.89768 0.0
H1011 H 0.68369 0.13034 0.84429 0.0
H1012 H 0.66331 0.16095 0.87666 0.0
C1013 C 0.728 0.16355 0.89927 0.0
C1014 C 0.90004 0.75762 0.78177 0.0
C1015 C 0.90356 0.77205 0.80582 0.0
H1016 H 0.8938 0.75958 0.73918 0.0
C1017 C 0.9072 0.79999 0.80452 0.0
H1018 H 0.89707 0.73608 0.78205 0.0
C1019 C 0.90555 0.81341 0.77987 0.0
C1020 C 0.89975 0.79918 0.75615 0.0
H1021 H 0.90998 0.81162 0.82271 0.0
H1022 H 0.90729 0.83508 0.77965 0.0
C1023 C 0.89789 0.77109 0.7572 0.0
C1024 C 0.12106 0.23916 0.15339 0.0
C1025 C 0.12285 0.26308 0.16824 0.0
H1026 H 0.13944 0.21368 0.12417 0.0
C1027 C 0.14322 0.28165 0.16186 0.0
H1028 H 0.10551 0.22453 0.15774 0.0
C1029 C 0.1629 0.27527 0.14291 0.0
C1030 C 0.16236 0.25038 0.12969 0.0
H1031 H 0.14518 0.30028 0.17289 0.0
H1032 H 0.1793 0.28925 0.13967 0.0
C1033 C 0.14054 0.23295 0.13416 0.0
C1034 C 0.12708 0.80461 0.81863 0.0
C1035 C 0.14968 0.78901 0.82518 0.0
H1036 H 0.09362 0.81011 0.79197 0.0
C1037 C 0.15403 0.76494 0.81122 0.0
H1038 H 0.1231 0.8232 0.82912 0.0
C1039 C 0.13724 0.75753 0.79003 0.0
C1040 C 0.11565 0.77394 0.78235 0.0
H1041 H 0.17107 0.75231 0.81591 0.0
H1042 H 0.1418 0.73935 0.77904 0.0
C1043 C 0.11016 0.79711 0.79739 0.0
C1044 C 0.29847 0.19273 0.83295 0.0
C1045 C 0.27834 0.19912 0.85165 0.0
H1046 H 0.31134 0.16598 0.80193 0.0
C1047 C 0.25732 0.18067 0.85599 0.0
H1048 H 0.31503 0.2064 0.82929 0.0
C1049 C 0.25522 0.1575 0.84039 0.0
C1050 C 0.27409 0.15223 0.8201 0.0
H1051 H 0.24167 0.18476 0.87053 0.0
H1052 H 0.23794 0.14452 0.84323 0.0
C1053 C 0.29637 0.16948 0.81733 0.0
C1054 C 0.7778 0.26904 0.89994 0.0
C1055 C 0.76406 0.29002 0.91273 0.0
H1056 H 0.81184 0.25709 0.87702 0.0
C1057 C 0.7755 0.31583 0.91277 0.0
H1058 H 0.76977 0.2488 0.89997 0.0
C1059 C 0.79976 0.32071 0.89925 0.0
C1060 C 0.81323 0.29969 0.8861 0.0
H1061 H 0.76542 0.33229 0.9227 0.0
H1062 H 0.80776 0.34094 0.89876 0.0
C1063 C 0.80217 0.27374 0.88705 0.0
C1064 C 0.77808 0.84742 0.86015 0.0
C1065 C 0.75061 0.84287 0.86494 0.0
H1066 H 0.81806 0.8323 0.86344 0.0
C1067 C 0.74285 0.82022 0.88001 0.0
H1068 H 0.78482 0.86468 0.84868 0.0
C1069 C 0.76211 0.80174 0.8888 0.0
C1070 C 0.7893 0.80543 0.88222 0.0
H1071 H 0.72185 0.81622 0.8841 0.0
H1072 H 0.75556 0.78392 0.89948 0.0
C1073 C 0.79716 0.82878 0.86846 0.0
C1074 C 0.90958 0.72514 0.15274 0.0
C1075 C 0.8832 0.72376 0.14266 0.0
H1076 H 0.93674 0.71388 0.18422 0.0
C1077 C 0.86437 0.70734 0.15589 0.0
H1078 H 0.92461 0.73752 0.14296 0.0
C1079 C 0.8713 0.6939 0.17955 0.0
C1080 C 0.89723 0.69649 0.19047 0.0
H1081 H 0.84392 0.70569 0.1486 0.0
H1082 H 0.85601 0.68218 0.18974 0.0
C1083 C 0.91655 0.7116 0.1764 0.0
C1084 C 0.20349 0.82051 0.13453 0.0
C1085 C 0.21894 0.81322 0.11208 0.0
H1086 H 0.20238 0.84082 0.17228 0.0
C1087 C 0.24507 0.82368 0.10942 0.0
H1088 H 0.1832 0.81301 0.13707 0.0
C1089 C 0.25611 0.83974 0.12968 0.0
C1090 C 0.24121 0.84554 0.15293 0.0
H1091 H 0.25742 0.81858 0.09225 0.0
H1092 H 0.2767 0.84653 0.12765 0.0
C1093 C 0.21451 0.83648 0.15474 0.0
C1094 C 0.827 0.12566 0.16979 0.0
C1095 C 0.80517 0.10782 0.16763 0.0
H1096 H 0.84319 0.16399 0.15916 0.0
C1097 C 0.78489 0.11325 0.14867 0.0
H1098 H 0.84317 0.12196 0.1839 0.0
C1099 C 0.78507 0.13739 0.13425 0.0
C1100 C 0.80538 0.15647 0.13882 0.0
H1101 H 0.7679 0.09981 0.14636 0.0
H1102 H 0.76831 0.14192 0.12112 0.0
C1103 C 0.82697 0.14985 0.15571 0.0
C1104 C 0.65969 0.67764 0.75329 0.0
C1105 C 0.68585 0.68786 0.75027 0.0
H1106 H 0.61769 0.6866 0.75562 0.0
C1107 C 0.68969 0.71579 0.74913 0.0
H1108 H 0.65613 0.65621 0.75436 0.0
C1109 C 0.66779 0.7331 0.74973 0.0
C1110 C 0.64156 0.7229 0.75168 0.0
H1111 H 0.7096 0.72437 0.74698 0.0
H1112 H 0.67142 0.75448 0.74803 0.0
C1113 C 0.63771 0.69504 0.75411 0.0
C1114 C 0.29347 0.59602 0.714 0.0
C1115 C 0.26698 0.60346 0.72032 0.0
H1116 H 0.33501 0.59806 0.72502 0.0
C1117 C 0.26183 0.61542 0.74533 0.0
H1118 H 0.29812 0.58647 0.69501 0.0
C1119 C 0.28301 0.62162 0.76277 0.0
C1120 C 0.30976 0.61634 0.75533 0.0
H1121 H 0.2416 0.62107 0.75092 0.0
H1122 H 0.27849 0.63224 0.78121 0.0
C1123 C 0.31466 0.60253 0.73125 0.0
C1124 C 0.34183 0.35335 0.65872 0.0
C1125 C 0.35496 0.33731 0.67781 0.0
H1126 H 0.31417 0.38551 0.6523 0.0
C1127 C 0.35487 0.34512 0.70495 0.0
H1128 H 0.3418 0.3479 0.63763 0.0
C1129 C 0.33947 0.36687 0.71331 0.0
C1130 C 0.3235 0.38079 0.69469 0.0
H1131 H 0.36529 0.33332 0.72 0.0
H1132 H 0.33812 0.37102 0.73465 0.0
C1133 C 0.32606 0.37489 0.66713 0.0
C1134 C 0.61258 0.38972 0.79638 0.0
C1135 C 0.59676 0.37324 0.77973 0.0
H1136 H 0.64767 0.41446 0.79964 0.0
C1137 C 0.60256 0.37221 0.75207 0.0
H1138 H 0.60855 0.3911 0.81775 0.0
C1139 C 0.62506 0.38546 0.74174 0.0
C1140 C 0.64216 0.40013 0.75881 0.0
H1141 H 0.59067 0.3599 0.73861 0.0
H1142 H 0.62975 0.38311 0.7206 0.0
C1143 C 0.63506 0.40308 0.78601 0.0
C1144 C 0.6141 0.30158 0.2338 0.0
C1145 C 0.63126 0.31242 0.21413 0.0
H1146 H 0.59658 0.26626 0.25078 0.0
C1147 C 0.64116 0.29541 0.19384 0.0
H1148 H 0.60595 0.31408 0.24959 0.0
C1149 C 0.63579 0.2678 0.19455 0.0
C1150 C 0.62052 0.25674 0.2156 0.0
H1151 H 0.65443 0.30308 0.17836 0.0
H1152 H 0.64483 0.25499 0.17951 0.0
C1153 C 0.60889 0.27407 0.23458 0.0
C1154 C 0.69329 0.63772 0.20436 0.0
C1155 C 0.67909 0.61673 0.21684 0.0
H1156 H 0.69109 0.67356 0.18081 0.0
C1157 C 0.65121 0.61465 0.21268 0.0
H1158 H 0.71478 0.63983 0.20705 0.0
C1159 C 0.63758 0.63401 0.19761 0.0
C1160 C 0.65156 0.65587 0.18646 0.0
H1161 H 0.6397 0.5986 0.22187 0.0
H1162 H 0.61597 0.63237 0.19561 0.0
C1163 C 0.67966 0.6571 0.18936 0.0
C1164 C 0.35216 0.63319 0.18299 0.0
C1165 C 0.32821 0.64784 0.18071 0.0
H1166 H 0.39503 0.6349 0.18545 0.0
C1167 C 0.32952 0.67523 0.17415 0.0
H1168 H 0.35176 0.61199 0.18778 0.0
C1169 C 0.35426 0.68833 0.17268 0.0
C1170 C 0.37814 0.6743 0.17791 0.0
H1171 H 0.31138 0.68694 0.17176 0.0
H1172 H 0.35449 0.70982 0.16935 0.0
C1173 C 0.37697 0.64634 0.18161 0.0
C1174 C 0.37631 0.32729 0.28747 0.0
C1175 C 0.37944 0.32017 0.26029 0.0
H1176 H 0.35391 0.34983 0.3163 0.0
C1177 C 0.36429 0.33379 0.24071 0.0
H1178 H 0.38779 0.31728 0.30303 0.0
C1179 C 0.34462 0.35221 0.24834 0.0
C1180 C 0.33995 0.35762 0.27568 0.0
H1181 H 0.36622 0.32888 0.21959 0.0
H1182 H 0.33215 0.36114 0.23289 0.0
C1183 C 0.35684 0.34594 0.29507 0.0
C1184 C 0.7531 0.66512 0.64654 0.0
C1185 C 0.73136 0.64954 0.65561 0.0
H1186 H 0.76739 0.69344 0.61742 0.0
C1187 C 0.70773 0.64867 0.64005 0.0
H1188 H 0.7716 0.66609 0.658 0.0
C1189 C 0.70521 0.66448 0.61698 0.0
C1190 C 0.72642 0.68116 0.6087 0.0
H1191 H 0.69061 0.63679 0.64638 0.0
H1192 H 0.68627 0.66447 0.60623 0.0
C1193 C 0.75073 0.68063 0.62317 0.0
C1194 C 0.37098 0.70174 0.67211 0.0
C1195 C 0.3852 0.71657 0.69148 0.0
H1196 H 0.35646 0.69979 0.63174 0.0
C1197 C 0.39746 0.74085 0.68387 0.0
H1198 H 0.3616 0.68277 0.67726 0.0
C1199 C 0.39438 0.75077 0.65768 0.0
C1200 C 0.37937 0.73632 0.63856 0.0
H1201 H 0.40868 0.75263 0.69835 0.0
H1202 H 0.40311 0.77006 0.65264 0.0
C1203 C 0.36828 0.71139 0.6459 0.0
C1204 C 0.16149 0.3387 0.66242 0.0
C1205 C 0.1855 0.35275 0.6575 0.0
H1206 H 0.13733 0.30448 0.65249 0.0
C1207 C 0.20131 0.34556 0.63525 0.0
H1208 H 0.14877 0.34394 0.67927 0.0
C1209 C 0.19483 0.32304 0.62001 0.0
C1210 C 0.17233 0.30734 0.62662 0.0
H1211 H 0.21968 0.35634 0.63059 0.0
H1212 H 0.20838 0.31699 0.60411 0.0
C1213 C 0.15491 0.31613 0.64703 0.0
C1214 C 0.66085 0.2502 0.73468 0.0
C1215 C 0.6499 0.24264 0.7097 0.0
H1216 H 0.65359 0.26605 0.77391 0.0
C1217 C 0.62192 0.24318 0.70626 0.0
H1218 H 0.68233 0.24979 0.73815 0.0
C1219 C 0.60535 0.25231 0.72704 0.0
C1220 C 0.61656 0.26125 0.75147 0.0
H1221 H 0.61289 0.23732 0.68731 0.0
H1222 H 0.58391 0.25343 0.72353 0.0
C1223 C 0.64439 0.25951 0.75527 0.0
C1224 C 0.70544 0.37521 0.35916 0.0
C1225 C 0.68531 0.36646 0.34136 0.0
H1226 H 0.72566 0.36849 0.39658 0.0
C1227 C 0.66708 0.34667 0.34996 0.0
H1228 H 0.71962 0.39063 0.35318 0.0
C1229 C 0.67028 0.33425 0.3749 0.0
C1230 C 0.69199 0.34114 0.39167 0.0
H1231 H 0.65101 0.33986 0.33691 0.0
H1232 H 0.65677 0.318 0.38021 0.0
C1233 C 0.7088 0.36261 0.38411 0.0
C1234 C 0.63035 0.7871 0.23782 0.0
C1235 C 0.6145 0.76424 0.23306 0.0
H1236 H 0.64771 0.81325 0.26716 0.0
C1237 C 0.6007 0.75237 0.25473 0.0
H1238 H 0.64094 0.79691 0.22149 0.0
C1239 C 0.60467 0.76162 0.28096 0.0
C1240 C 0.62229 0.78311 0.286 0.0
H1241 H 0.58805 0.7349 0.2517 0.0
H1242 H 0.59517 0.75094 0.29742 0.0
C1243 C 0.63405 0.79658 0.26403 0.0
C1244 C 0.33409 0.59943 0.32673 0.0
C1245 C 0.31419 0.59106 0.3448 0.0
H1246 H 0.34377 0.60937 0.28598 0.0
C1247 C 0.28785 0.58699 0.33556 0.0
H1248 H 0.35462 0.60217 0.33343 0.0
C1249 C 0.28146 0.59146 0.30847 0.0
C1250 C 0.30153 0.59937 0.29019 0.0
H1251 H 0.27227 0.58037 0.34929 0.0
H1252 H 0.26107 0.58793 0.3017 0.0
C1253 C 0.32787 0.60341 0.29962 0.0
C1254 C 0.34077 0.22536 0.37597 0.0
C1255 C 0.32478 0.2028 0.37017 0.0
H1256 H 0.37344 0.25041 0.36349 0.0
C1257 C 0.33243 0.18566 0.34912 0.0
H1258 H 0.3355 0.23878 0.39223 0.0
C1259 C 0.35395 0.19251 0.33244 0.0
C1260 C 0.36841 0.21637 0.33678 0.0
H1261 H 0.3206 0.16806 0.34421 0.0
H1262 H 0.35826 0.17991 0.31525 0.0
C1263 C 0.36254 0.23199 0.35951 0.0
C1264 C 0.60176 0.74215 0.62594 0.0
C1265 C 0.62142 0.75997 0.61618 0.0
H1266 H 0.57274 0.73392 0.65662 0.0
C1267 C 0.62402 0.78536 0.62819 0.0
H1268 H 0.59909 0.72251 0.61701 0.0
C1269 C 0.6088 0.79196 0.65081 0.0
C1270 C 0.5908 0.77324 0.66199 0.0
H1271 H 0.63876 0.79968 0.62095 0.0
H1272 H 0.61236 0.81114 0.66043 0.0
C1273 C 0.58664 0.7487 0.64867 0.0
C1274 C 0.67564 0.19634 0.36862 0.0
C1275 C 0.65931 0.21549 0.38127 0.0
H1276 H 0.67937 0.16786 0.33667 0.0
C1277 C 0.63261 0.21851 0.37262 0.0
H1278 H 0.69624 0.19343 0.37498 0.0
C1279 C 0.62304 0.20407 0.35054 0.0
C1280 C 0.63984 0.18604 0.33693 0.0
H1281 H 0.61947 0.23302 0.38201 0.0
H1282 H 0.60278 0.20777 0.34351 0.0
C1283 C 0.66592 0.1816 0.34676 0.0
C1284 C 0.72204 0.64341 0.36141 0.0
C1285 C 0.70877 0.63141 0.33949 0.0
H1286 H 0.72503 0.67773 0.38721 0.0
C1287 C 0.68593 0.64401 0.32873 0.0
H1288 H 0.73964 0.63416 0.37022 0.0
C1289 C 0.67787 0.66903 0.33816 0.0
C1290 C 0.69222 0.68187 0.35882 0.0
H1291 H 0.67509 0.63529 0.31196 0.0
H1292 H 0.6609 0.67874 0.32862 0.0
C1293 C 0.71373 0.66839 0.3711 0.0
C1294 C 0.39152 0.66662 0.30901 0.0
C1295 C 0.3936 0.67716 0.33512 0.0
H1296 H 0.40243 0.67058 0.26763 0.0
C1297 C 0.41102 0.69893 0.33974 0.0
H1298 H 0.37847 0.64968 0.30485 0.0
C1299 C 0.42463 0.71111 0.31833 0.0
C1300 C 0.42133 0.70152 0.29195 0.0
H1301 H 0.41313 0.70744 0.35967 0.0
H1302 H 0.43688 0.72867 0.3223 0.0
C1303 C 0.40538 0.67856 0.28768 0.0
C1304 C 0.24386 0.31725 0.37555 0.0
C1305 C 0.21998 0.30221 0.37339 0.0
H1306 H 0.26586 0.35188 0.36251 0.0
C1307 C 0.19806 0.31336 0.35958 0.0
H1308 H 0.26108 0.3094 0.38627 0.0
C1309 C 0.20073 0.33792 0.34622 0.0
C1310 C 0.22548 0.35166 0.34619 0.0
H1311 H 0.1793 0.30243 0.35777 0.0
H1312 H 0.18399 0.34506 0.33429 0.0
C1313 C 0.24662 0.34167 0.36197 0.0
C1314 C 0.32 0.23163 0.61378 0.0
C1315 C 0.33371 0.21221 0.62897 0.0
H1316 H 0.28248 0.24445 0.59735 0.0
C1317 C 0.31991 0.18867 0.63657 0.0
H1318 H 0.33 0.24994 0.60755 0.0
C1319 C 0.29252 0.18567 0.63103 0.0
C1320 C 0.2784 0.20599 0.61754 0.0
H1321 H 0.32978 0.17327 0.64833 0.0
H1322 H 0.28221 0.16794 0.63839 0.0
C1323 C 0.29266 0.22853 0.6081 0.0
C1324 C 0.7611 0.3115 0.64342 0.0
C1325 C 0.73564 0.30126 0.6369 0.0
H1326 H 0.78323 0.3447 0.65967 0.0
C1327 C 0.71337 0.31846 0.63732 0.0
H1328 H 0.77859 0.29864 0.64308 0.0
C1329 C 0.716 0.34478 0.64631 0.0
C1330 C 0.74091 0.35434 0.65559 0.0
H1331 H 0.69357 0.31115 0.63188 0.0
H1332 H 0.69807 0.35695 0.64778 0.0
C1333 C 0.76371 0.33788 0.65286 0.0
C1334 C 0.24069 0.70306 0.64796 0.0
C1335 C 0.2362 0.67794 0.63589 0.0
H1336 H 0.26133 0.74071 0.64614 0.0
C1337 C 0.24789 0.67259 0.61076 0.0
H1338 H 0.23188 0.70793 0.66726 0.0
C1339 C 0.26458 0.69165 0.59846 0.0
C1340 C 0.27009 0.71621 0.61127 0.0
H1341 H 0.24466 0.65348 0.6009 0.0
H1342 H 0.27403 0.68667 0.5795 0.0
C1343 C 0.25757 0.72191 0.63586 0.0
C1344 C 0.18698 0.32849 0.26006 0.0
C1345 C 0.2137 0.31957 0.25916 0.0
H1346 H 0.14535 0.31762 0.25911 0.0
C1347 C 0.21881 0.29206 0.256 0.0
H1348 H 0.18244 0.34954 0.26283 0.0
C1349 C 0.19758 0.2738 0.25373 0.0
C1350 C 0.17085 0.28265 0.25511 0.0
H1351 H 0.23924 0.28464 0.25535 0.0
H1352 H 0.20211 0.25271 0.25118 0.0
C1353 C 0.16575 0.31017 0.25827 0.0
C1354 C 0.69318 0.09394 0.23917 0.0
C1355 C 0.72003 0.1026 0.24093 0.0
H1356 H 0.65167 0.10545 0.2378 0.0
C1357 C 0.72547 0.13031 0.24096 0.0
H1358 H 0.68835 0.07273 0.23893 0.0
C1359 C 0.70466 0.14891 0.23993 0.0
C1360 C 0.67776 0.1404 0.23907 0.0
H1361 H 0.74591 0.13777 0.24187 0.0
H1362 H 0.70974 0.17006 0.24042 0.0
C1363 C 0.6722 0.11268 0.23837 0.0
C1364 C 0.83919 0.5941 0.25784 0.0
C1365 C 0.81665 0.59673 0.27461 0.0
H1366 H 0.87942 0.60686 0.24933 0.0
C1367 C 0.81882 0.61272 0.29784 0.0
H1368 H 0.83827 0.58183 0.2399 0.0
C1369 C 0.84236 0.62708 0.30324 0.0
C1370 C 0.86435 0.62572 0.28563 0.0
H1371 H 0.80195 0.61503 0.31138 0.0
H1372 H 0.8429 0.64007 0.32069 0.0
C1373 C 0.86283 0.60841 0.26332 0.0
C1374 C 0.3757 0.80347 0.24611 0.0
C1375 C 0.38115 0.80207 0.21837 0.0
H1376 H 0.34988 0.81874 0.27693 0.0
C1377 C 0.36651 0.81843 0.20067 0.0
H1378 H 0.38667 0.79115 0.26029 0.0
C1379 C 0.34559 0.83438 0.21023 0.0
C1380 C 0.33865 0.8341 0.23767 0.0
H1381 H 0.37038 0.81799 0.17923 0.0
H1382 H 0.33395 0.84578 0.19581 0.0
C1383 C 0.35455 0.81923 0.25565 0.0
C1384 C 0.09855 0.68306 0.71366 0.0
C1385 C 0.09271 0.69479 0.68855 0.0
H1386 H 0.12166 0.65385 0.73514 0.0
C1387 C 0.10267 0.68274 0.66513 0.0
H1388 H 0.09107 0.6918 0.73213 0.0
C1389 C 0.12003 0.66088 0.66687 0.0
C1390 C 0.12801 0.65081 0.69211 0.0
H1391 H 0.09829 0.69112 0.64549 0.0
H1392 H 0.12848 0.65301 0.64844 0.0
C1393 C 0.11616 0.66133 0.71543 0.0
C1394 C 0.27452 0.22395 0.70903 0.0
C1395 C 0.30153 0.21632 0.70632 0.0
H1396 H 0.2347 0.21183 0.72034 0.0
C1397 C 0.30878 0.1896 0.71132 0.0
H1398 H 0.2684 0.24441 0.70504 0.0
C1399 C 0.28949 0.1709 0.71931 0.0
C1400 C 0.26264 0.17868 0.72302 0.0
H1401 H 0.32936 0.18306 0.70889 0.0
H1402 H 0.29584 0.15054 0.72342 0.0
C1403 C 0.25526 0.20533 0.71765 0.0
C1404 C 0.76709 0.35095 0.77159 0.0
C1405 C 0.77921 0.37434 0.76135 0.0
H1406 H 0.77257 0.31319 0.79113 0.0
C1407 C 0.80715 0.37758 0.76385 0.0
H1408 H 0.74561 0.3478 0.77001 0.0
C1409 C 0.82271 0.35755 0.7759 0.0
C1410 C 0.81057 0.33397 0.78569 0.0
H1411 H 0.8171 0.39533 0.75608 0.0
H1412 H 0.84422 0.36049 0.77739 0.0
C1413 C 0.78259 0.33101 0.78361 0.0
C1414 C 0.636 0.84479 0.80936 0.0
C1415 C 0.63819 0.86462 0.78932 0.0
H1416 H 0.61695 0.80848 0.8222 0.0
C1417 C 0.61984 0.86435 0.76783 0.0
H1418 H 0.64959 0.84459 0.82639 0.0
C1419 C 0.60103 0.84353 0.7654 0.0
C1420 C 0.60017 0.82264 0.78448 0.0
H1421 H 0.62088 0.87942 0.75213 0.0
H1422 H 0.58814 0.8431 0.74784 0.0
C1423 C 0.61718 0.82409 0.80701 0.0
C1424 C 0.21953 0.13671 0.34128 0.0
C1425 C 0.21725 0.16479 0.34216 0.0
H1426 H 0.2173 0.10124 0.31718 0.0
C1427 C 0.21017 0.1787 0.31859 0.0
H1428 H 0.22512 0.12542 0.35904 0.0
C1429 C 0.20562 0.16483 0.2946 0.0
C1430 C 0.2084 0.1368 0.29361 0.0
H1431 H 0.20827 0.20035 0.31863 0.0
H1432 H 0.20014 0.17611 0.27679 0.0
C1433 C 0.2153 0.12288 0.31722 0.0
C1434 C 0.82734 0.27953 0.38039 0.0
C1435 C 0.82949 0.29389 0.35605 0.0
H1436 H 0.80109 0.26456 0.41123 0.0
C1437 C 0.80668 0.30701 0.34593 0.0
H1438 H 0.84457 0.26928 0.38879 0.0
C1439 C 0.78184 0.30401 0.35857 0.0
C1440 C 0.7793 0.28808 0.38178 0.0
H1441 H 0.80761 0.31841 0.32739 0.0
H1442 H 0.76443 0.31346 0.34959 0.0
C1443 C 0.80244 0.27674 0.39321 0.0
C1444 C 0.78352 0.81783 0.3276 0.0
C1445 C 0.77572 0.83322 0.30516 0.0
H1446 H 0.7714 0.79067 0.35876 0.0
C1447 C 0.74858 0.83333 0.2975 0.0
H1448 H 0.80429 0.81732 0.33409 0.0
C1449 C 0.72972 0.81809 0.31172 0.0
C1450 C 0.73761 0.80234 0.33387 0.0
H1451 H 0.7419 0.84499 0.28036 0.0
H1452 H 0.70899 0.81841 0.30508 0.0
C1453 C 0.76468 0.80253 0.34177 0.0
C1454 C 0.23609 0.65208 0.34209 0.0
C1455 C 0.25869 0.65592 0.32557 0.0
H1456 H 0.1932 0.65155 0.34484 0.0
C1457 C 0.25483 0.66035 0.29791 0.0
H1458 H 0.23838 0.64828 0.36343 0.0
C1459 C 0.22892 0.66198 0.2872 0.0
C1460 C 0.20628 0.65929 0.30392 0.0
H1461 H 0.27181 0.66293 0.28453 0.0
H1462 H 0.22668 0.66614 0.26591 0.0
C1463 C 0.21017 0.65378 0.33139 0.0
C1464 C 0.28024 0.84145 0.59083 0.0
C1465 C 0.30425 0.82689 0.59283 0.0
H1466 H 0.25448 0.87062 0.60865 0.0
C1467 C 0.32251 0.83336 0.61349 0.0
H1468 H 0.26585 0.83709 0.57506 0.0
C1469 C 0.31586 0.8524 0.63303 0.0
C1470 C 0.29098 0.86558 0.63209 0.0
H1471 H 0.34122 0.82255 0.6156 0.0
H1472 H 0.32967 0.85585 0.64952 0.0
C1473 C 0.27375 0.8607 0.61014 0.0
C1474 C 0.15531 0.20102 0.68458 0.0
C1475 C 0.1396 0.20605 0.66164 0.0
H1476 H 0.15736 0.2005 0.72751 0.0
C1477 C 0.11249 0.2132 0.665 0.0
H1478 H 0.17624 0.19544 0.68271 0.0
C1479 C 0.10172 0.2165 0.69078 0.0
C1480 C 0.11778 0.21251 0.71369 0.0
H1481 H 0.09989 0.21737 0.64774 0.0
H1482 H 0.08097 0.22265 0.69274 0.0
C1483 C 0.1445 0.20411 0.71029 0.0
C1484 C 0.76714 0.15997 0.72514 0.0
C1485 C 0.74829 0.13957 0.73062 0.0
H1486 H 0.77749 0.19386 0.70072 0.0
C1487 C 0.72623 0.13633 0.71334 0.0
H1488 H 0.78454 0.16287 0.73792 0.0
C1489 C 0.72238 0.15395 0.69179 0.0
C1490 C 0.7404 0.17531 0.68724 0.0
H1491 H 0.71153 0.12063 0.71683 0.0
H1492 H 0.70461 0.15147 0.67945 0.0
C1493 C 0.76319 0.1777 0.70372 0.0
C1494 C 0.77666 0.78376 0.61044 0.0
C1495 C 0.75433 0.7737 0.62455 0.0
H1496 H 0.81726 0.79811 0.61282 0.0
C1497 C 0.75644 0.76958 0.65244 0.0
H1498 H 0.77571 0.78692 0.58889 0.0
C1499 C 0.78014 0.77572 0.66602 0.0
C1500 C 0.80237 0.78615 0.65208 0.0
H1501 H 0.73971 0.76164 0.66393 0.0
H1502 H 0.78086 0.7726 0.68758 0.0
C1503 C 0.8005 0.78993 0.62409 0.0
C1504 C 0.31653 0.24138 0.16697 0.0
C1505 C 0.28953 0.2448 0.1745 0.0
H1506 H 0.35733 0.23746 0.18023 0.0
C1507 C 0.2832 0.2478 0.20184 0.0
H1508 H 0.32197 0.23882 0.14604 0.0
C1509 C 0.30336 0.24712 0.22131 0.0
C1510 C 0.33029 0.24308 0.21392 0.0
H1511 H 0.26259 0.2505 0.20826 0.0
H1512 H 0.29774 0.24941 0.24223 0.0
C1513 C 0.33673 0.24037 0.18654 0.0
C1514 C 0.30766 0.71017 0.82235 0.0
C1515 C 0.32619 0.72734 0.80955 0.0
H1516 H 0.27167 0.7069 0.84566 0.0
C1517 C 0.3233 0.75518 0.81241 0.0
H1518 H 0.30933 0.68859 0.82061 0.0
C1519 C 0.30178 0.76566 0.82699 0.0
C1520 C 0.28259 0.74848 0.83876 0.0
H1521 H 0.3373 0.76892 0.80291 0.0
H1522 H 0.29973 0.78725 0.82827 0.0
C1523 C 0.28601 0.72064 0.83668 0.0
C1524 C 0.24281 0.31228 0.79427 0.0
C1525 C 0.25131 0.31729 0.82076 0.0
H1526 H 0.23461 0.32831 0.7553 0.0
C1527 C 0.25868 0.3436 0.82793 0.0
H1528 H 0.23694 0.29229 0.78801 0.0
C1529 C 0.25721 0.36448 0.80904 0.0
C1530 C 0.24836 0.35943 0.78263 0.0
H1531 H 0.26517 0.34814 0.84823 0.0
H1532 H 0.26294 0.38455 0.81515 0.0
C1533 C 0.24134 0.33304 0.77548 0.0
C1534 C 0.59295 0.25342 0.88014 0.0
C1535 C 0.58679 0.27727 0.86645 0.0
H1536 H 0.61821 0.23405 0.90893 0.0
C1537 C 0.59973 0.30118 0.87423 0.0
H1538 H 0.58315 0.23473 0.8748 0.0
C1539 C 0.62014 0.30076 0.89358 0.0
C1540 C 0.62777 0.2765 0.90574 0.0
H1541 H 0.59538 0.31995 0.86416 0.0
H1542 H 0.63086 0.3192 0.89793 0.0
C1543 C 0.61309 0.25307 0.89973 0.0
C1544 C 0.78412 0.66311 0.81304 0.0
C1545 C 0.80004 0.66088 0.78975 0.0
H1546 H 0.77953 0.6808 0.85199 0.0
C1547 C 0.82556 0.67298 0.78949 0.0
H1548 H 0.76437 0.65397 0.81401 0.0
C1549 C 0.83436 0.68814 0.81149 0.0
C1550 C 0.81767 0.69177 0.83405 0.0
H1551 H 0.83835 0.67155 0.77194 0.0
H1552 H 0.85369 0.6981 0.81021 0.0
C1553 C 0.79277 0.67853 0.83486 0.0
C1554 C 0.72905 0.7527 0.08108 0.0
C1555 C 0.75002 0.76891 0.09086 0.0
H1556 H 0.68846 0.73932 0.08646 0.0
C1557 C 0.74467 0.78697 0.11188 0.0
H1558 H 0.7325 0.73873 0.06478 0.0
C1559 C 0.71951 0.78742 0.12418 0.0
C1560 C 0.69912 0.76977 0.11583 0.0
H1561 H 0.76026 0.80008 0.11961 0.0
H1562 H 0.71651 0.80072 0.14113 0.0
C1563 C 0.70381 0.75309 0.09349 0.0
C1564 C 0.20898 0.66383 0.17183 0.0
C1565 C 0.22136 0.64329 0.15707 0.0
H1566 H 0.19035 0.7024 0.17091 0.0
C1567 C 0.22322 0.64589 0.12894 0.0
H1568 H 0.20723 0.66251 0.19352 0.0
C1569 C 0.21371 0.66889 0.11595 0.0
C1570 C 0.20213 0.68979 0.13082 0.0
H1571 H 0.23267 0.63046 0.11694 0.0
H1572 H 0.21575 0.67042 0.09431 0.0
C1573 C 0.1995 0.68683 0.15886 0.0
C1574 C 0.73306 0.29126 0.22167 0.0
C1575 C 0.72711 0.31877 0.2203 0.0
H1576 H 0.75294 0.25793 0.20331 0.0
C1577 C 0.73748 0.33403 0.19886 0.0
H1578 H 0.72528 0.27896 0.2379 0.0
C1579 C 0.75291 0.32193 0.17888 0.0
C1580 C 0.75859 0.29438 0.18005 0.0
H1581 H 0.73315 0.35524 0.19709 0.0
H1582 H 0.76037 0.33422 0.1625 0.0
C1583 C 0.7488 0.27921 0.20182 0.0
loop_
_geom_bond_atom_site_label_1
_geom_bond_atom_site_label_2
_geom_bond_distance
_geom_bond_site_symmetry_2
_ccdc_geom_bond_type
C0 O1 1.160 . S
C0 O7 1.185 . S
O1 C0 1.160 . S
O2 Zn3 1.899 . S
O2 C10 1.284 . S
Zn3 O2 1.899 . S
Zn3 O4 2.032 . S
Zn3 O7 2.086 . S
Zn3 O12 1.977 . S
O4 Zn3 2.032 . S
O4 C8 1.278 . S
C5 O6 1.203 . S
C5 O12 1.267 . S
O6 C5 1.203 . S
O7 C0 1.185 . S
O7 Zn3 2.086 . S
C8 O4 1.278 . S
C8 O9 1.211 . S
O9 C8 1.211 . S
C10 O2 1.284 . S
C10 O11 1.273 . S
O11 C10 1.273 . S
O12 Zn3 1.977 . S
O12 C5 1.267 . S
C13 O14 1.160 . S
C13 O20 1.185 . S
O14 C13 1.160 . S
O15 Zn16 1.899 . S
O15 C23 1.284 . S
Zn16 O15 1.899 . S
Zn16 O17 2.032 . S
Zn16 O20 2.086 . S
Zn16 O25 1.977 . S
O17 Zn16 2.032 . S
O17 C21 1.278 . S
C18 O19 1.203 . S
C18 O25 1.267 . S
O19 C18 1.203 . S
O20 C13 1.185 . S
O20 Zn16 2.086 . S
C21 O17 1.278 . S
C21 O22 1.211 . S
O22 C21 1.211 . S
C23 O15 1.284 . S
C23 O24 1.273 . S
O24 C23 1.273 . S
O25 Zn16 1.977 . S
O25 C18 1.267 . S
C26 O27 1.160 . S
C26 O33 1.185 . S
O27 C26 1.160 . S
O28 Zn29 1.899 . S
O28 C36 1.284 . S
Zn29 O28 1.899 . S
Zn29 O30 2.032 . S
Zn29 O33 2.086 . S
Zn29 O38 1.977 . S
O30 Zn29 2.032 . S
O30 C34 1.278 . S
C31 O32 1.203 . S
C31 O38 1.267 . S
O32 C31 1.203 . S
O33 C26 1.185 . S
O33 Zn29 2.086 . S
C34 O30 1.278 . S
C34 O35 1.211 . S
O35 C34 1.211 . S
C36 O28 1.284 . S
C36 O37 1.273 . S
O37 C36 1.273 . S
O38 Zn29 1.977 . S
O38 C31 1.267 . S
C39 O40 1.160 . S
C39 O46 1.185 . S
O40 C39 1.160 . S
O41 Zn42 1.899 . S
O41 C49 1.284 . S
Zn42 O41 1.899 . S
Zn42 O43 2.032 . S
Zn42 O46 2.086 . S
Zn42 O51 1.977 . S
O43 Zn42 2.032 . S
O43 C47 1.278 . S
C44 O45 1.203 . S
C44 O51 1.267 . S
O45 C44 1.203 . S
O46 C39 1.185 . S
O46 Zn42 2.086 . S
C47 O43 1.278 . S
C47 O48 1.211 . S
O48 C47 1.211 . S
C49 O41 1.284 . S
C49 O50 1.273 . S
O50 C49 1.273 . S
O51 Zn42 1.977 . S
O51 C44 1.267 . S
C52 O53 1.160 . S
C52 O59 1.185 . S
O53 C52 1.160 . S
O54 Zn55 1.899 . S
O54 C62 1.284 . S
Zn55 O54 1.899 . S
Zn55 O56 2.032 . S
Zn55 O59 2.086 . S
Zn55 O64 1.977 . S
O56 Zn55 2.032 . S
O56 C60 1.278 . S
C57 O58 1.203 . S
C57 O64 1.267 . S
O58 C57 1.203 . S
O59 C52 1.185 . S
O59 Zn55 2.086 . S
C60 O56 1.278 . S
C60 O61 1.211 . S
O61 C60 1.211 . S
C62 O54 1.284 . S
C62 O63 1.273 . S
O63 C62 1.273 . S
O64 Zn55 1.977 . S
O64 C57 1.267 . S
C65 O66 1.160 . S
C65 O72 1.185 . S
O66 C65 1.160 . S
O67 Zn68 1.899 . S
O67 C75 1.284 . S
Zn68 O67 1.899 . S
Zn68 O69 2.032 . S
Zn68 O72 2.086 . S
Zn68 O77 1.977 . S
O69 Zn68 2.032 . S
O69 C73 1.278 . S
C70 O71 1.203 . S
C70 O77 1.267 . S
O71 C70 1.203 . S
O72 C65 1.185 . S
O72 Zn68 2.086 . S
C73 O69 1.278 . S
C73 O74 1.211 . S
O74 C73 1.211 . S
C75 O67 1.284 . S
C75 O76 1.273 . S
O76 C75 1.273 . S
O77 Zn68 1.977 . S
O77 C70 1.267 . S
C78 O79 1.160 . S
C78 O85 1.185 . S
O79 C78 1.160 . S
O80 Zn81 1.899 . S
O80 C88 1.284 . S
Zn81 O80 1.899 . S
Zn81 O82 2.032 . S
Zn81 O85 2.086 . S
Zn81 O90 1.977 . S
O82 Zn81 2.032 . S
O82 C86 1.278 . S
C83 O84 1.203 . S
C83 O90 1.267 . S
O84 C83 1.203 . S
O85 C78 1.185 . S
O85 Zn81 2.086 . S
C86 O82 1.278 . S
C86 O87 1.211 . S
O87 C86 1.211 . S
C88 O80 1.284 . S
C88 O89 1.273 . S
O89 C88 1.273 . S
O90 Zn81 1.977 . S
O90 C83 1.267 . S
C91 O92 1.160 . S
C91 O98 1.185 . S
O92 C91 1.160 . S
O93 Zn94 1.899 . S
O93 C101 1.284 . S
Zn94 O93 1.899 . S
Zn94 O95 2.032 . S
Zn94 O98 2.086 . S
Zn94 O103 1.977 . S
O95 Zn94 2.032 . S
O95 C99 1.278 . S
C96 O97 1.203 . S
C96 O103 1.267 . S
O97 C96 1.203 . S
O98 C91 1.185 . S
O98 Zn94 2.086 . S
C99 O95 1.278 . S
C99 O100 1.211 . S
O100 C99 1.211 . S
C101 O93 1.284 . S
C101 O102 1.273 . S
O102 C101 1.273 . S
O103 Zn94 1.977 . S
O103 C96 1.267 . S
C104 O105 1.160 . S
C104 O111 1.185 . S
O105 C104 1.160 . S
O106 Zn107 1.899 . S
O106 C114 1.284 . S
Zn107 O106 1.899 . S
Zn107 O108 2.032 . S
Zn107 O111 2.086 . S
Zn107 O116 1.977 . S
O108 Zn107 2.032 . S
O108 C112 1.278 . S
C109 O110 1.203 . S
C109 O116 1.267 . S
O110 C109 1.203 . S
O111 C104 1.185 . S
O111 Zn107 2.086 . S
C112 O108 1.278 . S
C112 O113 1.211 . S
O113 C112 1.211 . S
C114 O106 1.284 . S
C114 O115 1.273 . S
O115 C114 1.273 . S
O116 Zn107 1.977 . S
O116 C109 1.267 . S
C117 O118 1.160 . S
C117 O124 1.185 . S
O118 C117 1.160 . S
O119 Zn120 1.899 . S
O119 C127 1.284 . S
Zn120 O119 1.899 . S
Zn120 O121 2.032 . S
Zn120 O124 2.086 . S
Zn120 O129 1.977 . S
O121 Zn120 2.032 . S
O121 C125 1.278 . S
C122 O123 1.203 . S
C122 O129 1.267 . S
O123 C122 1.203 . S
O124 C117 1.185 . S
O124 Zn120 2.086 . S
C125 O121 1.278 . S
C125 O126 1.211 . S
O126 C125 1.211 . S
C127 O119 1.284 . S
C127 O128 1.273 . S
O128 C127 1.273 . S
O129 Zn120 1.977 . S
O129 C122 1.267 . S
C130 O131 1.160 . S
C130 O137 1.185 . S
O131 C130 1.160 . S
O132 Zn133 1.899 . S
O132 C140 1.284 . S
Zn133 O132 1.899 . S
Zn133 O134 2.032 . S
Zn133 O137 2.086 . S
Zn133 O142 1.977 . S
O134 Zn133 2.032 . S
O134 C138 1.278 . S
C135 O136 1.203 . S
C135 O142 1.267 . S
O136 C135 1.203 . S
O137 C130 1.185 . S
O137 Zn133 2.086 . S
C138 O134 1.278 . S
C138 O139 1.211 . S
O139 C138 1.211 . S
C140 O132 1.284 . S
C140 O141 1.273 . S
O141 C140 1.273 . S
O142 Zn133 1.977 . S
O142 C135 1.267 . S
C143 O144 1.160 . S
C143 O150 1.185 . S
O144 C143 1.160 . S
O145 Zn146 1.899 . S
O145 C153 1.284 . S
Zn146 O145 1.899 . S
Zn146 O147 2.032 . S
Zn146 O150 2.086 . S
Zn146 O155 1.977 . S
O147 Zn146 2.032 . S
O147 C151 1.278 . S
C148 O149 1.203 . S
C148 O155 1.267 . S
O149 C148 1.203 . S
O150 C143 1.185 . S
O150 Zn146 2.086 . S
C151 O147 1.278 . S
C151 O152 1.211 . S
O152 C151 1.211 . S
C153 O145 1.284 . S
C153 O154 1.273 . S
O154 C153 1.273 . S
O155 Zn146 1.977 . S
O155 C148 1.267 . S
C156 O157 1.160 . S
C156 O163 1.185 . S
O157 C156 1.160 . S
O158 Zn159 1.899 . S
O158 C166 1.284 . S
Zn159 O158 1.899 . S
Zn159 O160 2.032 . S
Zn159 O163 2.086 . S
Zn159 O168 1.977 . S
O160 Zn159 2.032 . S
O160 C164 1.278 . S
C161 O162 1.203 . S
C161 O168 1.267 . S
O162 C161 1.203 . S
O163 C156 1.185 . S
O163 Zn159 2.086 . S
C164 O160 1.278 . S
C164 O165 1.211 . S
O165 C164 1.211 . S
C166 O158 1.284 . S
C166 O167 1.273 . S
O167 C166 1.273 . S
O168 Zn159 1.977 . S
O168 C161 1.267 . S
C169 O170 1.160 . S
C169 O176 1.185 . S
O170 C169 1.160 . S
O171 Zn172 1.899 . S
O171 C179 1.284 . S
Zn172 O171 1.899 . S
Zn172 O173 2.032 . S
Zn172 O176 2.086 . S
Zn172 O181 1.977 . S
O173 Zn172 2.032 . S
O173 C177 1.278 . S
C174 O175 1.203 . S
C174 O181 1.267 . S
O175 C174 1.203 . S
O176 C169 1.185 . S
O176 Zn172 2.086 . S
C177 O173 1.278 . S
C177 O178 1.211 . S
O178 C177 1.211 . S
C179 O171 1.284 . S
C179 O180 1.273 . S
O180 C179 1.273 . S
O181 Zn172 1.977 . S
O181 C174 1.267 . S
C182 O183 1.160 . S
C182 O189 1.185 . S
O183 C182 1.160 . S
O184 Zn185 1.899 . S
O184 C192 1.284 . S
Zn185 O184 1.899 . S
Zn185 O186 2.032 . S
Zn185 O189 2.086 . S
Zn185 O194 1.977 . S
O186 Zn185 2.032 . S
O186 C190 1.278 . S
C187 O188 1.203 . S
C187 O194 1.267 . S
O188 C187 1.203 . S
O189 C182 1.185 . S
O189 Zn185 2.086 . S
C190 O186 1.278 . S
C190 O191 1.211 . S
O191 C190 1.211 . S
C192 O184 1.284 . S
C192 O193 1.273 . S
O193 C192 1.273 . S
O194 Zn185 1.977 . S
O194 C187 1.267 . S
C195 O196 1.160 . S
C195 O202 1.185 . S
O196 C195 1.160 . S
O197 Zn198 1.899 . S
O197 C205 1.284 . S
Zn198 O197 1.899 . S
Zn198 O199 2.032 . S
Zn198 O202 2.086 . S
Zn198 O207 1.977 . S
O199 Zn198 2.032 . S
O199 C203 1.278 . S
C200 O201 1.203 . S
C200 O207 1.267 . S
O201 C200 1.203 . S
O202 C195 1.185 . S
O202 Zn198 2.086 . S
C203 O199 1.278 . S
C203 O204 1.211 . S
O204 C203 1.211 . S
C205 O197 1.284 . S
C205 O206 1.273 . S
O206 C205 1.273 . S
O207 Zn198 1.977 . S
O207 C200 1.267 . S
C208 O209 1.160 . S
C208 O215 1.185 . S
O209 C208 1.160 . S
O210 Zn211 1.899 . S
O210 C218 1.284 . S
Zn211 O210 1.899 . S
Zn211 O212 2.032 . S
Zn211 O215 2.086 . S
Zn211 O220 1.977 . S
O212 Zn211 2.032 . S
O212 C216 1.278 . S
C213 O214 1.203 . S
C213 O220 1.267 . S
O214 C213 1.203 . S
O215 C208 1.185 . S
O215 Zn211 2.086 . S
C216 O212 1.278 . S
C216 O217 1.211 . S
O217 C216 1.211 . S
C218 O210 1.284 . S
C218 O219 1.273 . S
O219 C218 1.273 . S
O220 Zn211 1.977 . S
O220 C213 1.267 . S
C221 O222 1.160 . S
C221 O228 1.185 . S
O222 C221 1.160 . S
O223 Zn224 1.899 . S
O223 C231 1.284 . S
Zn224 O223 1.899 . S
Zn224 O225 2.032 . S
Zn224 O228 2.086 . S
Zn224 O233 1.977 . S
O225 Zn224 2.032 . S
O225 C229 1.278 . S
C226 O227 1.203 . S
C226 O233 1.267 . S
O227 C226 1.203 . S
O228 C221 1.185 . S
O228 Zn224 2.086 . S
C229 O225 1.278 . S
C229 O230 1.211 . S
O230 C229 1.211 . S
C231 O223 1.284 . S
C231 O232 1.273 . S
O232 C231 1.273 . S
O233 Zn224 1.977 . S
O233 C226 1.267 . S
C234 O235 1.160 . S
C234 O241 1.185 . S
O235 C234 1.160 . S
O236 Zn237 1.899 . S
O236 C244 1.284 . S
Zn237 O236 1.899 . S
Zn237 O238 2.032 . S
Zn237 O241 2.086 . S
Zn237 O246 1.977 . S
O238 Zn237 2.032 . S
O238 C242 1.278 . S
C239 O240 1.203 . S
C239 O246 1.267 . S
O240 C239 1.203 . S
O241 C234 1.185 . S
O241 Zn237 2.086 . S
C242 O238 1.278 . S
C242 O243 1.211 . S
O243 C242 1.211 . S
C244 O236 1.284 . S
C244 O245 1.273 . S
O245 C244 1.273 . S
O246 Zn237 1.977 . S
O246 C239 1.267 . S
C247 O248 1.160 . S
C247 O254 1.185 . S
O248 C247 1.160 . S
O249 Zn250 1.899 . S
O249 C257 1.284 . S
Zn250 O249 1.899 . S
Zn250 O251 2.032 . S
Zn250 O254 2.086 . S
Zn250 O259 1.977 . S
O251 Zn250 2.032 . S
O251 C255 1.278 . S
C252 O253 1.203 . S
C252 O259 1.267 . S
O253 C252 1.203 . S
O254 C247 1.185 . S
O254 Zn250 2.086 . S
C255 O251 1.278 . S
C255 O256 1.211 . S
O256 C255 1.211 . S
C257 O249 1.284 . S
C257 O258 1.273 . S
O258 C257 1.273 . S
O259 Zn250 1.977 . S
O259 C252 1.267 . S
C260 O261 1.160 . S
C260 O267 1.185 . S
O261 C260 1.160 . S
O262 Zn263 1.899 . S
O262 C270 1.284 . S
Zn263 O262 1.899 . S
Zn263 O264 2.032 . S
Zn263 O267 2.086 . S
Zn263 O272 1.977 . S
O264 Zn263 2.032 . S
O264 C268 1.278 . S
C265 O266 1.203 . S
C265 O272 1.267 . S
O266 C265 1.203 . S
O267 C260 1.185 . S
O267 Zn263 2.086 . S
C268 O264 1.278 . S
C268 O269 1.211 . S
O269 C268 1.211 . S
C270 O262 1.284 . S
C270 O271 1.273 . S
O271 C270 1.273 . S
O272 Zn263 1.977 . S
O272 C265 1.267 . S
C273 O274 1.160 . S
C273 O280 1.185 . S
O274 C273 1.160 . S
O275 Zn276 1.899 . S
O275 C283 1.284 . S
Zn276 O275 1.899 . S
Zn276 O277 2.032 . S
Zn276 O280 2.086 . S
Zn276 O285 1.977 . S
O277 Zn276 2.032 . S
O277 C281 1.278 . S
C278 O279 1.203 . S
C278 O285 1.267 . S
O279 C278 1.203 . S
O280 C273 1.185 . S
O280 Zn276 2.086 . S
C281 O277 1.278 . S
C281 O282 1.211 . S
O282 C281 1.211 . S
C283 O275 1.284 . S
C283 O284 1.273 . S
O284 C283 1.273 . S
O285 Zn276 1.977 . S
O285 C278 1.267 . S
C286 O287 1.160 . S
C286 O293 1.185 . S
O287 C286 1.160 . S
O288 Zn289 1.899 . S
O288 C296 1.284 . S
Zn289 O288 1.899 . S
Zn289 O290 2.032 . S
Zn289 O293 2.086 . S
Zn289 O298 1.977 . S
O290 Zn289 2.032 . S
O290 C294 1.278 . S
C291 O292 1.203 . S
C291 O298 1.267 . S
O292 C291 1.203 . S
O293 C286 1.185 . S
O293 Zn289 2.086 . S
C294 O290 1.278 . S
C294 O295 1.211 . S
O295 C294 1.211 . S
C296 O288 1.284 . S
C296 O297 1.273 . S
O297 C296 1.273 . S
O298 Zn289 1.977 . S
O298 C291 1.267 . S
C299 O300 1.160 . S
C299 O306 1.185 . S
O300 C299 1.160 . S
O301 Zn302 1.899 . S
O301 C309 1.284 . S
Zn302 O301 1.899 . S
Zn302 O303 2.032 . S
Zn302 O306 2.086 . S
Zn302 O311 1.977 . S
O303 Zn302 2.032 . S
O303 C307 1.278 . S
C304 O305 1.203 . S
C304 O311 1.267 . S
O305 C304 1.203 . S
O306 C299 1.185 . S
O306 Zn302 2.086 . S
C307 O303 1.278 . S
C307 O308 1.211 . S
O308 C307 1.211 . S
C309 O301 1.284 . S
C309 O310 1.273 . S
O310 C309 1.273 . S
O311 Zn302 1.977 . S
O311 C304 1.267 . S
C312 O313 1.160 . S
C312 O319 1.185 . S
O313 C312 1.160 . S
O314 Zn315 1.899 . S
O314 C322 1.284 . S
Zn315 O314 1.899 . S
Zn315 O316 2.032 . S
Zn315 O319 2.086 . S
Zn315 O324 1.977 . S
O316 Zn315 2.032 . S
O316 C320 1.278 . S
C317 O318 1.203 . S
C317 O324 1.267 . S
O318 C317 1.203 . S
O319 C312 1.185 . S
O319 Zn315 2.086 . S
C320 O316 1.278 . S
C320 O321 1.211 . S
O321 C320 1.211 . S
C322 O314 1.284 . S
C322 O323 1.273 . S
O323 C322 1.273 . S
O324 Zn315 1.977 . S
O324 C317 1.267 . S
C325 O326 1.160 . S
C325 O332 1.185 . S
O326 C325 1.160 . S
O327 Zn328 1.899 . S
O327 C335 1.284 . S
Zn328 O327 1.899 . S
Zn328 O329 2.032 . S
Zn328 O332 2.086 . S
Zn328 O337 1.977 . S
O329 Zn328 2.032 . S
O329 C333 1.278 . S
C330 O331 1.203 . S
C330 O337 1.267 . S
O331 C330 1.203 . S
O332 C325 1.185 . S
O332 Zn328 2.086 . S
C333 O329 1.278 . S
C333 O334 1.211 . S
O334 C333 1.211 . S
C335 O327 1.284 . S
C335 O336 1.273 . S
O336 C335 1.273 . S
O337 Zn328 1.977 . S
O337 C330 1.267 . S
C338 O339 1.160 . S
C338 O345 1.185 . S
O339 C338 1.160 . S
O340 Zn341 1.899 . S
O340 C348 1.284 . S
Zn341 O340 1.899 . S
Zn341 O342 2.032 . S
Zn341 O345 2.086 . S
Zn341 O350 1.977 . S
O342 Zn341 2.032 . S
O342 C346 1.278 . S
C343 O344 1.203 . S
C343 O350 1.267 . S
O344 C343 1.203 . S
O345 C338 1.185 . S
O345 Zn341 2.086 . S
C346 O342 1.278 . S
C346 O347 1.211 . S
O347 C346 1.211 . S
C348 O340 1.284 . S
C348 O349 1.273 . S
O349 C348 1.273 . S
O350 Zn341 1.977 . S
O350 C343 1.267 . S
C351 O352 1.160 . S
C351 O358 1.185 . S
O352 C351 1.160 . S
O353 Zn354 1.899 . S
O353 C361 1.284 . S
Zn354 O353 1.899 . S
Zn354 O355 2.032 . S
Zn354 O358 2.086 . S
Zn354 O363 1.977 . S
O355 Zn354 2.032 . S
O355 C359 1.278 . S
C356 O357 1.203 . S
C356 O363 1.267 . S
O357 C356 1.203 . S
O358 C351 1.185 . S
O358 Zn354 2.086 . S
C359 O355 1.278 . S
C359 O360 1.211 . S
O360 C359 1.211 . S
C361 O353 1.284 . S
C361 O362 1.273 . S
O362 C361 1.273 . S
O363 Zn354 1.977 . S
O363 C356 1.267 . S
C364 O365 1.160 . S
C364 O371 1.185 . S
O365 C364 1.160 . S
O366 Zn367 1.899 . S
O366 C374 1.284 . S
Zn367 O366 1.899 . S
Zn367 O368 2.032 . S
Zn367 O371 2.086 . S
Zn367 O376 1.977 . S
O368 Zn367 2.032 . S
O368 C372 1.278 . S
C369 O370 1.203 . S
C369 O376 1.267 . S
O370 C369 1.203 . S
O371 C364 1.185 . S
O371 Zn367 2.086 . S
C372 O368 1.278 . S
C372 O373 1.211 . S
O373 C372 1.211 . S
C374 O366 1.284 . S
C374 O375 1.273 . S
O375 C374 1.273 . S
O376 Zn367 1.977 . S
O376 C369 1.267 . S
C377 O378 1.160 . S
C377 O384 1.185 . S
O378 C377 1.160 . S
O379 Zn380 1.899 . S
O379 C387 1.284 . S
Zn380 O379 1.899 . S
Zn380 O381 2.032 . S
Zn380 O384 2.086 . S
Zn380 O389 1.977 . S
O381 Zn380 2.032 . S
O381 C385 1.278 . S
C382 O383 1.203 . S
C382 O389 1.267 . S
O383 C382 1.203 . S
O384 C377 1.185 . S
O384 Zn380 2.086 . S
C385 O381 1.278 . S
C385 O386 1.211 . S
O386 C385 1.211 . S
C387 O379 1.284 . S
C387 O388 1.273 . S
O388 C387 1.273 . S
O389 Zn380 1.977 . S
O389 C382 1.267 . S
C390 O391 1.160 . S
C390 O397 1.185 . S
O391 C390 1.160 . S
O392 Zn393 1.899 . S
O392 C400 1.284 . S
Zn393 O392 1.899 . S
Zn393 O394 2.032 . S
Zn393 O397 2.086 . S
Zn393 O402 1.977 . S
O394 Zn393 2.032 . S
O394 C398 1.278 . S
C395 O396 1.203 . S
C395 O402 1.267 . S
O396 C395 1.203 . S
O397 C390 1.185 . S
O397 Zn393 2.086 . S
C398 O394 1.278 . S
C398 O399 1.211 . S
O399 C398 1.211 . S
C400 O392 1.284 . S
C400 O401 1.273 . S
O401 C400 1.273 . S
O402 Zn393 1.977 . S
O402 C395 1.267 . S
C403 O404 1.160 . S
C403 O410 1.185 . S
O404 C403 1.160 . S
O405 Zn406 1.899 . S
O405 C413 1.284 . S
Zn406 O405 1.899 . S
Zn406 O407 2.032 . S
Zn406 O410 2.086 . S
Zn406 O415 1.977 . S
O407 Zn406 2.032 . S
O407 C411 1.278 . S
C408 O409 1.203 . S
C408 O415 1.267 . S
O409 C408 1.203 . S
O410 C403 1.185 . S
O410 Zn406 2.086 . S
C411 O407 1.278 . S
C411 O412 1.211 . S
O412 C411 1.211 . S
C413 O405 1.284 . S
C413 O414 1.273 . S
O414 C413 1.273 . S
O415 Zn406 1.977 . S
O415 C408 1.267 . S
C416 O417 1.160 . S
C416 O423 1.185 . S
O417 C416 1.160 . S
O418 Zn419 1.899 . S
O418 C426 1.284 . S
Zn419 O418 1.899 . S
Zn419 O420 2.032 . S
Zn419 O423 2.086 . S
Zn419 O428 1.977 . S
O420 Zn419 2.032 . S
O420 C424 1.278 . S
C421 O422 1.203 . S
C421 O428 1.267 . S
O422 C421 1.203 . S
O423 C416 1.185 . S
O423 Zn419 2.086 . S
C424 O420 1.278 . S
C424 O425 1.211 . S
O425 C424 1.211 . S
C426 O418 1.284 . S
C426 O427 1.273 . S
O427 C426 1.273 . S
O428 Zn419 1.977 . S
O428 C421 1.267 . S
C429 O430 1.160 . S
C429 O436 1.185 . S
O430 C429 1.160 . S
O431 Zn432 1.899 . S
O431 C439 1.284 . S
Zn432 O431 1.899 . S
Zn432 O433 2.032 . S
Zn432 O436 2.086 . S
Zn432 O441 1.977 . S
O433 Zn432 2.032 . S
O433 C437 1.278 . S
C434 O435 1.203 . S
C434 O441 1.267 . S
O435 C434 1.203 . S
O436 C429 1.185 . S
O436 Zn432 2.086 . S
C437 O433 1.278 . S
C437 O438 1.211 . S
O438 C437 1.211 . S
C439 O431 1.284 . S
C439 O440 1.273 . S
O440 C439 1.273 . S
O441 Zn432 1.977 . S
O441 C434 1.267 . S
C442 O443 1.160 . S
C442 O449 1.185 . S
O443 C442 1.160 . S
O444 Zn445 1.899 . S
O444 C452 1.284 . S
Zn445 O444 1.899 . S
Zn445 O446 2.032 . S
Zn445 O449 2.086 . S
Zn445 O454 1.977 . S
O446 Zn445 2.032 . S
O446 C450 1.278 . S
C447 O448 1.203 . S
C447 O454 1.267 . S
O448 C447 1.203 . S
O449 C442 1.185 . S
O449 Zn445 2.086 . S
C450 O446 1.278 . S
C450 O451 1.211 . S
O451 C450 1.211 . S
C452 O444 1.284 . S
C452 O453 1.273 . S
O453 C452 1.273 . S
O454 Zn445 1.977 . S
O454 C447 1.267 . S
C455 O456 1.160 . S
C455 O462 1.185 . S
O456 C455 1.160 . S
O457 Zn458 1.899 . S
O457 C465 1.284 . S
Zn458 O457 1.899 . S
Zn458 O459 2.032 . S
Zn458 O462 2.086 . S
Zn458 O467 1.977 . S
O459 Zn458 2.032 . S
O459 C463 1.278 . S
C460 O461 1.203 . S
C460 O467 1.267 . S
O461 C460 1.203 . S
O462 C455 1.185 . S
O462 Zn458 2.086 . S
C463 O459 1.278 . S
C463 O464 1.211 . S
O464 C463 1.211 . S
C465 O457 1.284 . S
C465 O466 1.273 . S
O466 C465 1.273 . S
O467 Zn458 1.977 . S
O467 C460 1.267 . S
C468 O469 1.160 . S
C468 O475 1.185 . S
O469 C468 1.160 . S
O470 Zn471 1.899 . S
O470 C478 1.284 . S
Zn471 O470 1.899 . S
Zn471 O472 2.032 . S
Zn471 O475 2.086 . S
Zn471 O480 1.977 . S
O472 Zn471 2.032 . S
O472 C476 1.278 . S
C473 O474 1.203 . S
C473 O480 1.267 . S
O474 C473 1.203 . S
O475 C468 1.185 . S
O475 Zn471 2.086 . S
C476 O472 1.278 . S
C476 O477 1.211 . S
O477 C476 1.211 . S
C478 O470 1.284 . S
C478 O479 1.273 . S
O479 C478 1.273 . S
O480 Zn471 1.977 . S
O480 C473 1.267 . S
C481 O482 1.160 . S
C481 O488 1.185 . S
O482 C481 1.160 . S
O483 Zn484 1.899 . S
O483 C491 1.284 . S
Zn484 O483 1.899 . S
Zn484 O485 2.032 . S
Zn484 O488 2.086 . S
Zn484 O493 1.977 . S
O485 Zn484 2.032 . S
O485 C489 1.278 . S
C486 O487 1.203 . S
C486 O493 1.267 . S
O487 C486 1.203 . S
O488 C481 1.185 . S
O488 Zn484 2.086 . S
C489 O485 1.278 . S
C489 O490 1.211 . S
O490 C489 1.211 . S
C491 O483 1.284 . S
C491 O492 1.273 . S
O492 C491 1.273 . S
O493 Zn484 1.977 . S
O493 C486 1.267 . S
C494 O495 1.160 . S
C494 O501 1.185 . S
O495 C494 1.160 . S
O496 Zn497 1.899 . S
O496 C504 1.284 . S
Zn497 O496 1.899 . S
Zn497 O498 2.032 . S
Zn497 O501 2.086 . S
Zn497 O506 1.977 . S
O498 Zn497 2.032 . S
O498 C502 1.278 . S
C499 O500 1.203 . S
C499 O506 1.267 . S
O500 C499 1.203 . S
O501 C494 1.185 . S
O501 Zn497 2.086 . S
C502 O498 1.278 . S
C502 O503 1.211 . S
O503 C502 1.211 . S
C504 O496 1.284 . S
C504 O505 1.273 . S
O505 C504 1.273 . S
O506 Zn497 1.977 . S
O506 C499 1.267 . S
C507 O508 1.160 . S
C507 O514 1.185 . S
O508 C507 1.160 . S
O509 Zn510 1.899 . S
O509 C517 1.284 . S
Zn510 O509 1.899 . S
Zn510 O511 2.032 . S
Zn510 O514 2.086 . S
Zn510 O519 1.977 . S
O511 Zn510 2.032 . S
O511 C515 1.278 . S
C512 O513 1.203 . S
C512 O519 1.267 . S
O513 C512 1.203 . S
O514 C507 1.185 . S
O514 Zn510 2.086 . S
C515 O511 1.278 . S
C515 O516 1.211 . S
O516 C515 1.211 . S
C517 O509 1.284 . S
C517 O518 1.273 . S
O518 C517 1.273 . S
O519 Zn510 1.977 . S
O519 C512 1.267 . S
C520 O521 1.160 . S
C520 O527 1.185 . S
O521 C520 1.160 . S
O522 Zn523 1.899 . S
O522 C530 1.284 . S
Zn523 O522 1.899 . S
Zn523 O524 2.032 . S
Zn523 O527 2.086 . S
Zn523 O532 1.977 . S
O524 Zn523 2.032 . S
O524 C528 1.278 . S
C525 O526 1.203 . S
C525 O532 1.267 . S
O526 C525 1.203 . S
O527 C520 1.185 . S
O527 Zn523 2.086 . S
C528 O524 1.278 . S
C528 O529 1.211 . S
O529 C528 1.211 . S
C530 O522 1.284 . S
C530 O531 1.273 . S
O531 C530 1.273 . S
O532 Zn523 1.977 . S
O532 C525 1.267 . S
C533 O534 1.160 . S
C533 O540 1.185 . S
O534 C533 1.160 . S
O535 Zn536 1.899 . S
O535 C543 1.284 . S
Zn536 O535 1.899 . S
Zn536 O537 2.032 . S
Zn536 O540 2.086 . S
Zn536 O545 1.977 . S
O537 Zn536 2.032 . S
O537 C541 1.278 . S
C538 O539 1.203 . S
C538 O545 1.267 . S
O539 C538 1.203 . S
O540 C533 1.185 . S
O540 Zn536 2.086 . S
C541 O537 1.278 . S
C541 O542 1.211 . S
O542 C541 1.211 . S
C543 O535 1.284 . S
C543 O544 1.273 . S
O544 C543 1.273 . S
O545 Zn536 1.977 . S
O545 C538 1.267 . S
C546 O547 1.160 . S
C546 O553 1.185 . S
O547 C546 1.160 . S
O548 Zn549 1.899 . S
O548 C556 1.284 . S
Zn549 O548 1.899 . S
Zn549 O550 2.032 . S
Zn549 O553 2.086 . S
Zn549 O558 1.977 . S
O550 Zn549 2.032 . S
O550 C554 1.278 . S
C551 O552 1.203 . S
C551 O558 1.267 . S
O552 C551 1.203 . S
O553 C546 1.185 . S
O553 Zn549 2.086 . S
C554 O550 1.278 . S
C554 O555 1.211 . S
O555 C554 1.211 . S
C556 O548 1.284 . S
C556 O557 1.273 . S
O557 C556 1.273 . S
O558 Zn549 1.977 . S
O558 C551 1.267 . S
C559 O560 1.160 . S
C559 O566 1.185 . S
O560 C559 1.160 . S
O561 Zn562 1.899 . S
O561 C569 1.284 . S
Zn562 O561 1.899 . S
Zn562 O563 2.032 . S
Zn562 O566 2.086 . S
Zn562 O571 1.977 . S
O563 Zn562 2.032 . S
O563 C567 1.278 . S
C564 O565 1.203 . S
C564 O571 1.267 . S
O565 C564 1.203 . S
O566 C559 1.185 . S
O566 Zn562 2.086 . S
C567 O563 1.278 . S
C567 O568 1.211 . S
O568 C567 1.211 . S
C569 O561 1.284 . S
C569 O570 1.273 . S
O570 C569 1.273 . S
O571 Zn562 1.977 . S
O571 C564 1.267 . S
C572 O573 1.160 . S
C572 O579 1.185 . S
O573 C572 1.160 . S
O574 Zn575 1.899 . S
O574 C582 1.284 . S
Zn575 O574 1.899 . S
Zn575 O576 2.032 . S
Zn575 O579 2.086 . S
Zn575 O584 1.977 . S
O576 Zn575 2.032 . S
O576 C580 1.278 . S
C577 O578 1.203 . S
C577 O584 1.267 . S
O578 C577 1.203 . S
O579 C572 1.185 . S
O579 Zn575 2.086 . S
C580 O576 1.278 . S
C580 O581 1.211 . S
O581 C580 1.211 . S
C582 O574 1.284 . S
C582 O583 1.273 . S
O583 C582 1.273 . S
O584 Zn575 1.977 . S
O584 C577 1.267 . S
C585 O586 1.160 . S
C585 O592 1.185 . S
O586 C585 1.160 . S
O587 Zn588 1.899 . S
O587 C595 1.284 . S
Zn588 O587 1.899 . S
Zn588 O589 2.032 . S
Zn588 O592 2.086 . S
Zn588 O597 1.977 . S
O589 Zn588 2.032 . S
O589 C593 1.278 . S
C590 O591 1.203 . S
C590 O597 1.267 . S
O591 C590 1.203 . S
O592 C585 1.185 . S
O592 Zn588 2.086 . S
C593 O589 1.278 . S
C593 O594 1.211 . S
O594 C593 1.211 . S
C595 O587 1.284 . S
C595 O596 1.273 . S
O596 C595 1.273 . S
O597 Zn588 1.977 . S
O597 C590 1.267 . S
C598 O599 1.160 . S
C598 O605 1.185 . S
O599 C598 1.160 . S
O600 Zn601 1.899 . S
O600 C608 1.284 . S
Zn601 O600 1.899 . S
Zn601 O602 2.032 . S
Zn601 O605 2.086 . S
Zn601 O610 1.977 . S
O602 Zn601 2.032 . S
O602 C606 1.278 . S
C603 O604 1.203 . S
C603 O610 1.267 . S
O604 C603 1.203 . S
O605 C598 1.185 . S
O605 Zn601 2.086 . S
C606 O602 1.278 . S
C606 O607 1.211 . S
O607 C606 1.211 . S
C608 O600 1.284 . S
C608 O609 1.273 . S
O609 C608 1.273 . S
O610 Zn601 1.977 . S
O610 C603 1.267 . S
C611 O612 1.160 . S
C611 O618 1.185 . S
O612 C611 1.160 . S
O613 Zn614 1.899 . S
O613 C621 1.284 . S
Zn614 O613 1.899 . S
Zn614 O615 2.032 . S
Zn614 O618 2.086 . S
Zn614 O623 1.977 . S
O615 Zn614 2.032 . S
O615 C619 1.278 . S
C616 O617 1.203 . S
C616 O623 1.267 . S
O617 C616 1.203 . S
O618 C611 1.185 . S
O618 Zn614 2.086 . S
C619 O615 1.278 . S
C619 O620 1.211 . S
O620 C619 1.211 . S
C621 O613 1.284 . S
C621 O622 1.273 . S
O622 C621 1.273 . S
O623 Zn614 1.977 . S
O623 C616 1.267 . S
C624 C625 1.387 . S
C624 H628 0.950 . S
C624 C633 1.379 1_655 S
C625 C624 1.387 . S
C625 C627 1.398 . S
H626 C633 0.950 . S
C627 C625 1.398 . S
C627 C629 1.379 1_655 S
C627 H631 0.950 . S
H628 C624 0.950 . S
C629 C627 1.379 1_455 S
C629 C630 1.387 . S
C629 H632 0.950 . S
C630 C629 1.387 . S
C630 C633 1.398 . S
H631 C627 0.950 . S
H632 C629 0.950 . S
C633 C624 1.379 1_455 S
C633 H626 0.950 . S
C633 C630 1.398 . S
C634 C635 1.387 . S
C634 H638 0.950 . S
C634 C643 1.390 . S
C635 C634 1.387 . S
C635 C637 1.387 1_565 S
H636 C643 0.950 . S
C637 C635 1.387 1_545 S
C637 C639 1.390 . S
C637 H641 0.950 . S
H638 C634 0.950 . S
C639 C637 1.390 . S
C639 C640 1.387 . S
C639 H642 0.950 . S
C640 C639 1.387 . S
C640 C643 1.387 1_545 S
H641 C637 0.950 . S
H642 C639 0.950 . S
C643 C634 1.390 . S
C643 H636 0.950 . S
C643 C640 1.387 1_565 S
C644 C645 1.387 . S
C644 H648 0.950 . S
C644 C653 1.390 1_455 S
C645 C644 1.387 . S
C645 C647 1.387 . S
H646 C653 0.950 . S
C647 C645 1.387 . S
C647 C649 1.390 1_455 S
C647 H651 0.950 . S
H648 C644 0.950 . S
C649 C647 1.390 1_655 S
C649 C650 1.387 . S
C649 H652 0.950 . S
C650 C649 1.387 . S
C650 C653 1.387 . S
H651 C647 0.950 . S
H652 C649 0.950 . S
C653 C644 1.390 1_655 S
C653 H646 0.950 . S
C653 C650 1.387 . S
C654 C655 1.387 . S
C654 H658 0.950 . S
C654 C663 1.390 . S
C655 C654 1.387 . S
C655 C657 1.387 1_565 S
H656 C663 0.950 . S
C657 C655 1.387 1_545 S
C657 C659 1.390 . S
C657 H661 0.950 . S
H658 C654 0.950 . S
C659 C657 1.390 . S
C659 C660 1.387 . S
C659 H662 0.950 . S
C660 C659 1.387 . S
C660 C663 1.387 1_545 S
H661 C657 0.950 . S
H662 C659 0.950 . S
C663 C654 1.390 . S
C663 H656 0.950 . S
C663 C660 1.387 1_565 S
C664 C665 1.387 . S
C664 H668 0.950 . S
C664 C673 1.390 . S
C665 C664 1.387 . S
C665 C667 1.387 1_655 S
H666 C673 0.950 . S
C667 C665 1.387 1_455 S
C667 C669 1.390 . S
C667 H671 0.950 . S
H668 C664 0.950 . S
C669 C667 1.390 . S
C669 C670 1.387 . S
C669 H672 0.950 . S
C670 C669 1.387 . S
C670 C673 1.387 1_455 S
H671 C667 0.950 . S
H672 C669 0.950 . S
C673 C664 1.390 . S
C673 H666 0.950 . S
C673 C670 1.387 1_655 S
C674 C675 1.387 1_565 S
C674 H678 0.950 . S
C674 C683 1.390 . S
C675 C674 1.387 1_545 S
C675 C677 1.387 . S
H676 C683 0.950 . S
C677 C675 1.387 . S
C677 C679 1.390 . S
C677 H681 0.950 . S
H678 C674 0.950 . S
C679 C677 1.390 . S
C679 C680 1.387 1_545 S
C679 H682 0.950 . S
C680 C679 1.387 1_565 S
C680 C683 1.387 . S
H681 C677 0.950 . S
H682 C679 0.950 . S
C683 C674 1.390 . S
C683 H676 0.950 . S
C683 C680 1.387 . S
C684 C685 1.387 . S
C684 H688 0.950 . S
C684 C693 1.390 . S
C685 C684 1.387 . S
C685 C687 1.387 1_455 S
H686 C693 0.950 . S
C687 C685 1.387 1_655 S
C687 C689 1.390 . S
C687 H691 0.950 . S
H688 C684 0.950 . S
C689 C687 1.390 . S
C689 C690 1.387 . S
C689 H692 0.950 . S
C690 C689 1.387 . S
C690 C693 1.387 1_655 S
H691 C687 0.950 . S
H692 C689 0.950 . S
C693 C684 1.390 . S
C693 H686 0.950 . S
C693 C690 1.387 1_455 S
C694 C695 1.387 . S
C694 H698 0.950 . S
C694 C703 1.390 . S
C695 C694 1.387 . S
C695 C697 1.387 1_545 S
H696 C703 0.950 . S
C697 C695 1.387 1_565 S
C697 C699 1.390 . S
C697 H701 0.950 . S
H698 C694 0.950 . S
C699 C697 1.390 . S
C699 C700 1.387 . S
C699 H702 0.950 . S
C700 C699 1.387 . S
C700 C703 1.387 1_565 S
H701 C697 0.950 . S
H702 C699 0.950 . S
C703 C694 1.390 . S
C703 H696 0.950 . S
C703 C700 1.387 1_545 S
C704 C705 1.387 1_556 S
C704 H708 0.950 . S
C704 C713 1.390 . S
C705 C704 1.387 1_554 S
C705 C707 1.387 . S
H706 C713 0.950 . S
C707 C705 1.387 . S
C707 C709 1.390 . S
C707 H711 0.950 . S
H708 C704 0.950 . S
C709 C707 1.390 . S
C709 C710 1.387 1_554 S
C709 H712 0.950 . S
C710 C709 1.387 1_556 S
C710 C713 1.387 . S
H711 C707 0.950 . S
H712 C709 0.950 . S
C713 C704 1.390 . S
C713 H706 0.950 . S
C713 C710 1.387 . S
C714 C715 1.387 1_554 S
C714 H718 0.950 . S
C714 C723 1.390 . S
C715 C714 1.387 1_556 S
C715 C717 1.387 . S
H716 C723 0.950 . S
C717 C715 1.387 . S
C717 C719 1.390 . S
C717 H721 0.950 . S
H718 C714 0.950 . S
C719 C717 1.390 . S
C719 C720 1.387 1_556 S
C719 H722 0.950 . S
C720 C719 1.387 1_554 S
C720 C723 1.387 . S
H721 C717 0.950 . S
H722 C719 0.950 . S
C723 C714 1.390 . S
C723 H716 0.950 . S
C723 C720 1.387 . S
C724 C725 1.387 . S
C724 H728 0.950 . S
C724 C733 1.390 . S
C725 C724 1.387 . S
C725 C727 1.387 1_556 S
H726 C733 0.950 . S
C727 C725 1.387 1_554 S
C727 C729 1.390 . S
C727 H731 0.950 . S
H728 C724 0.950 . S
C729 C727 1.390 . S
C729 C730 1.387 . S
C729 H732 0.950 . S
C730 C729 1.387 . S
C730 C733 1.387 1_554 S
H731 C727 0.950 . S
H732 C729 0.950 . S
C733 C724 1.390 . S
C733 H726 0.950 . S
C733 C730 1.387 1_556 S
C734 C735 1.387 . S
C734 H738 0.950 . S
C734 C743 1.390 1_556 S
C735 C734 1.387 . S
C735 C737 1.387 . S
H736 C743 0.950 . S
C737 C735 1.387 . S
C737 C739 1.390 1_556 S
C737 H741 0.950 . S
H738 C734 0.950 . S
C739 C737 1.390 1_554 S
C739 C740 1.387 . S
C739 H742 0.950 . S
C740 C739 1.387 . S
C740 C743 1.387 . S
H741 C737 0.950 . S
H742 C739 0.950 . S
C743 C734 1.390 1_554 S
C743 H736 0.950 . S
C743 C740 1.387 . S
C744 C745 1.387 . S
C744 H748 0.950 . S
C744 C753 1.390 . S
C745 C744 1.387 . S
C745 C747 1.387 . S
H746 C753 0.950 . S
C747 C745 1.387 . S
C747 C749 1.390 . S
C747 H751 0.950 . S
H748 C744 0.950 . S
C749 C747 1.390 . S
C749 C750 1.387 . S
C749 H752 0.950 . S
C750 C749 1.387 . S
C750 C753 1.387 . S
H751 C747 0.950 . S
H752 C749 0.950 . S
C753 C744 1.390 . S
C753 H746 0.950 . S
C753 C750 1.387 . S
C754 C755 1.387 . S
C754 H758 0.950 . S
C754 C763 1.390 . S
C755 C754 1.387 . S
C755 C757 1.387 . S
H756 C763 0.950 . S
C757 C755 1.387 . S
C757 C759 1.390 . S
C757 H761 0.950 . S
H758 C754 0.950 . S
C759 C757 1.390 . S
C759 C760 1.387 . S
C759 H762 0.950 . S
C760 C759 1.387 . S
C760 C763 1.387 . S
H761 C757 0.950 . S
H762 C759 0.950 . S
C763 C754 1.390 . S
C763 H756 0.950 . S
C763 C760 1.387 . S
C764 C765 1.387 . S
C764 H768 0.950 . S
C764 C773 1.390 . S
C765 C764 1.387 . S
C765 C767 1.387 . S
H766 C773 0.950 . S
C767 C765 1.387 . S
C767 C769 1.390 . S
C767 H771 0.950 . S
H768 C764 0.950 . S
C769 C767 1.390 . S
C769 C770 1.387 . S
C769 H772 0.950 . S
C770 C769 1.387 . S
C770 C773 1.387 . S
H771 C767 0.950 . S
H772 C769 0.950 . S
C773 C764 1.390 . S
C773 H766 0.950 . S
C773 C770 1.387 . S
C774 C775 1.387 . S
C774 H778 0.950 . S
C774 C783 1.390 . S
C775 C774 1.387 . S
C775 C777 1.387 . S
H776 C783 0.950 . S
C777 C775 1.387 . S
C777 C779 1.390 . S
C777 H781 0.950 . S
H778 C774 0.950 . S
C779 C777 1.390 . S
C779 C780 1.387 . S
C779 H782 0.950 . S
C780 C779 1.387 . S
C780 C783 1.387 . S
H781 C777 0.950 . S
H782 C779 0.950 . S
C783 C774 1.390 . S
C783 H776 0.950 . S
C783 C780 1.387 . S
C784 C785 1.387 . S
C784 H788 0.950 . S
C784 C793 1.390 . S
C785 C784 1.387 . S
C785 C787 1.387 . S
H786 C793 0.950 . S
C787 C785 1.387 . S
C787 C789 1.390 . S
C787 H791 0.950 . S
H788 C784 0.950 . S
C789 C787 1.390 . S
C789 C790 1.387 . S
C789 H792 0.950 . S
C790 C789 1.387 . S
C790 C793 1.387 . S
H791 C787 0.950 . S
H792 C789 0.950 . S
C793 C784 1.390 . S
C793 H786 0.950 . S
C793 C790 1.387 . S
C794 C795 1.387 . S
C794 H798 0.950 . S
C794 C803 1.390 . S
C795 C794 1.387 . S
C795 C797 1.387 . S
H796 C803 0.950 . S
C797 C795 1.387 . S
C797 C799 1.390 . S
C797 H801 0.950 . S
H798 C794 0.950 . S
C799 C797 1.390 . S
C799 C800 1.387 . S
C799 H802 0.950 . S
C800 C799 1.387 . S
C800 C803 1.387 . S
H801 C797 0.950 . S
H802 C799 0.950 . S
C803 C794 1.390 . S
C803 H796 0.950 . S
C803 C800 1.387 . S
C804 C805 1.387 . S
C804 H808 0.950 . S
C804 C813 1.390 . S
C805 C804 1.387 . S
C805 C807 1.387 . S
H806 C813 0.950 . S
C807 C805 1.387 . S
C807 C809 1.390 . S
C807 H811 0.950 . S
H808 C804 0.950 . S
C809 C807 1.390 . S
C809 C810 1.387 . S
C809 H812 0.950 . S
C810 C809 1.387 . S
C810 C813 1.387 . S
H811 C807 0.950 . S
H812 C809 0.950 . S
C813 C804 1.390 . S
C813 H806 0.950 . S
C813 C810 1.387 . S
C814 C815 1.387 . S
C814 H818 0.950 . S
C814 C823 1.390 . S
C815 C814 1.387 . S
C815 C817 1.387 . S
H816 C823 0.950 . S
C817 C815 1.387 . S
C817 C819 1.390 . S
C817 H821 0.950 . S
H818 C814 0.950 . S
C819 C817 1.390 . S
C819 C820 1.387 . S
C819 H822 0.950 . S
C820 C819 1.387 . S
C820 C823 1.387 . S
H821 C817 0.950 . S
H822 C819 0.950 . S
C823 C814 1.390 . S
C823 H816 0.950 . S
C823 C820 1.387 . S
C824 C825 1.387 . S
C824 H828 0.950 . S
C824 C833 1.390 . S
C825 C824 1.387 . S
C825 C827 1.387 . S
H826 C833 0.950 . S
C827 C825 1.387 . S
C827 C829 1.390 . S
C827 H831 0.950 . S
H828 C824 0.950 . S
C829 C827 1.390 . S
C829 C830 1.387 . S
C829 H832 0.950 . S
C830 C829 1.387 . S
C830 C833 1.387 . S
H831 C827 0.950 . S
H832 C829 0.950 . S
C833 C824 1.390 . S
C833 H826 0.950 . S
C833 C830 1.387 . S
C834 C835 1.387 . S
C834 H838 0.950 . S
C834 C843 1.390 . S
C835 C834 1.387 . S
C835 C837 1.387 . S
H836 C843 0.950 . S
C837 C835 1.387 . S
C837 C839 1.390 . S
C837 H841 0.950 . S
H838 C834 0.950 . S
C839 C837 1.390 . S
C839 C840 1.387 . S
C839 H842 0.950 . S
C840 C839 1.387 . S
C840 C843 1.387 . S
H841 C837 0.950 . S
H842 C839 0.950 . S
C843 C834 1.390 . S
C843 H836 0.950 . S
C843 C840 1.387 . S
C844 C845 1.387 . S
C844 H848 0.950 . S
C844 C853 1.390 . S
C845 C844 1.387 . S
C845 C847 1.387 . S
H846 C853 0.950 . S
C847 C845 1.387 . S
C847 C849 1.390 . S
C847 H851 0.950 . S
H848 C844 0.950 . S
C849 C847 1.390 . S
C849 C850 1.387 . S
C849 H852 0.950 . S
C850 C849 1.387 . S
C850 C853 1.387 . S
H851 C847 0.950 . S
H852 C849 0.950 . S
C853 C844 1.390 . S
C853 H846 0.950 . S
C853 C850 1.387 . S
C854 C855 1.387 . S
C854 H858 0.950 . S
C854 C863 1.390 . S
C855 C854 1.387 . S
C855 C857 1.387 . S
H856 C863 0.950 . S
C857 C855 1.387 . S
C857 C859 1.390 . S
C857 H861 0.950 . S
H858 C854 0.950 . S
C859 C857 1.390 . S
C859 C860 1.387 . S
C859 H862 0.950 . S
C860 C859 1.387 . S
C860 C863 1.387 . S
H861 C857 0.950 . S
H862 C859 0.950 . S
C863 C854 1.390 . S
C863 H856 0.950 . S
C863 C860 1.387 . S
C864 C865 1.387 . S
C864 H868 0.950 . S
C864 C873 1.390 . S
C865 C864 1.387 . S
C865 C867 1.387 . S
H866 C873 0.950 . S
C867 C865 1.387 . S
C867 C869 1.390 . S
C867 H871 0.950 . S
H868 C864 0.950 . S
C869 C867 1.390 . S
C869 C870 1.387 . S
C869 H872 0.950 . S
C870 C869 1.387 . S
C870 C873 1.387 . S
H871 C867 0.950 . S
H872 C869 0.950 . S
C873 C864 1.390 . S
C873 H866 0.950 . S
C873 C870 1.387 . S
C874 C875 1.387 . S
C874 H878 0.950 . S
C874 C883 1.390 . S
C875 C874 1.387 . S
C875 C877 1.387 . S
H876 C883 0.950 . S
C877 C875 1.387 . S
C877 C879 1.390 . S
C877 H881 0.950 . S
H878 C874 0.950 . S
C879 C877 1.390 . S
C879 C880 1.387 . S
C879 H882 0.950 . S
C880 C879 1.387 . S
C880 C883 1.387 . S
H881 C877 0.950 . S
H882 C879 0.950 . S
C883 C874 1.390 . S
C883 H876 0.950 . S
C883 C880 1.387 . S
C884 C885 1.387 . S
C884 H888 0.950 . S
C884 C893 1.390 . S
C885 C884 1.387 . S
C885 C887 1.387 . S
H886 C893 0.950 . S
C887 C885 1.387 . S
C887 C889 1.390 . S
C887 H891 0.950 . S
H888 C884 0.950 . S
C889 C887 1.390 . S
C889 C890 1.387 . S
C889 H892 0.950 . S
C890 C889 1.387 . S
C890 C893 1.387 . S
H891 C887 0.950 . S
H892 C889 0.950 . S
C893 C884 1.390 . S
C893 H886 0.950 . S
C893 C890 1.387 . S
C894 C895 1.387 . S
C894 H898 0.950 . S
C894 C903 1.390 . S
C895 C894 1.387 . S
C895 C897 1.387 . S
H896 C903 0.950 . S
C897 C895 1.387 . S
C897 C899 1.390 . S
C897 H901 0.950 . S
H898 C894 0.950 . S
C899 C897 1.390 . S
C899 C900 1.387 . S
C899 H902 0.950 . S
C900 C899 1.387 . S
C900 C903 1.387 . S
H901 C897 0.950 . S
H902 C899 0.950 . S
C903 C894 1.390 . S
C903 H896 0.950 . S
C903 C900 1.387 . S
C904 C905 1.387 . S
C904 H908 0.950 . S
C904 C913 1.390 . S
C905 C904 1.387 . S
C905 C907 1.387 . S
H906 C913 0.950 . S
C907 C905 1.387 . S
C907 C909 1.390 . S
C907 H911 0.950 . S
H908 C904 0.950 . S
C909 C907 1.390 . S
C909 C910 1.387 . S
C909 H912 0.950 . S
C910 C909 1.387 . S
C910 C913 1.387 . S
H911 C907 0.950 . S
H912 C909 0.950 . S
C913 C904 1.390 . S
C913 H906 0.950 . S
C913 C910 1.387 . S
C914 C915 1.387 . S
C914 H918 0.950 . S
C914 C923 1.390 . S
C915 C914 1.387 . S
C915 C917 1.387 . S
H916 C923 0.950 . S
C917 C915 1.387 . S
C917 C919 1.390 . S
C917 H921 0.950 . S
H918 C914 0.950 . S
C919 C917 1.390 . S
C919 C920 1.387 . S
C919 H922 0.950 . S
C920 C919 1.387 . S
C920 C923 1.387 . S
H921 C917 0.950 . S
H922 C919 0.950 . S
C923 C914 1.390 . S
C923 H916 0.950 . S
C923 C920 1.387 . S
C924 C925 1.387 . S
C924 H928 0.950 . S
C924 C933 1.390 . S
C925 C924 1.387 . S
C925 C927 1.387 . S
H926 C933 0.950 . S
C927 C925 1.387 . S
C927 C929 1.390 . S
C927 H931 0.950 . S
H928 C924 0.950 . S
C929 C927 1.390 . S
C929 C930 1.387 . S
C929 H932 0.950 . S
C930 C929 1.387 . S
C930 C933 1.387 . S
H931 C927 0.950 . S
H932 C929 0.950 . S
C933 C924 1.390 . S
C933 H926 0.950 . S
C933 C930 1.387 . S
C934 C935 1.387 . S
C934 H938 0.950 . S
C934 C943 1.390 . S
C935 C934 1.387 . S
C935 C937 1.387 . S
H936 C943 0.950 . S
C937 C935 1.387 . S
C937 C939 1.390 . S
C937 H941 0.950 . S
H938 C934 0.950 . S
C939 C937 1.390 . S
C939 C940 1.387 . S
C939 H942 0.950 . S
C940 C939 1.387 . S
C940 C943 1.387 . S
H941 C937 0.950 . S
H942 C939 0.950 . S
C943 C934 1.390 . S
C943 H936 0.950 . S
C943 C940 1.387 . S
C944 C945 1.387 . S
C944 H948 0.950 . S
C944 C953 1.390 . S
C945 C944 1.387 . S
C945 C947 1.387 . S
H946 C953 0.950 . S
C947 C945 1.387 . S
C947 C949 1.390 . S
C947 H951 0.950 . S
H948 C944 0.950 . S
C949 C947 1.390 . S
C949 C950 1.387 . S
C949 H952 0.950 . S
C950 C949 1.387 . S
C950 C953 1.387 . S
H951 C947 0.950 . S
H952 C949 0.950 . S
C953 C944 1.390 . S
C953 H946 0.950 . S
C953 C950 1.387 . S
C954 C955 1.387 . S
C954 H958 0.950 . S
C954 C963 1.390 . S
C955 C954 1.387 . S
C955 C957 1.387 . S
H956 C963 0.950 . S
C957 C955 1.387 . S
C957 C959 1.390 . S
C957 H961 0.950 . S
H958 C954 0.950 . S
C959 C957 1.390 . S
C959 C960 1.387 . S
C959 H962 0.950 . S
C960 C959 1.387 . S
C960 C963 1.387 . S
H961 C957 0.950 . S
H962 C959 0.950 . S
C963 C954 1.390 . S
C963 H956 0.950 . S
C963 C960 1.387 . S
C964 C965 1.387 . S
C964 H968 0.950 . S
C964 C973 1.390 . S
C965 C964 1.387 . S
C965 C967 1.387 . S
H966 C973 0.950 . S
C967 C965 1.387 . S
C967 C969 1.390 . S
C967 H971 0.950 . S
H968 C964 0.950 . S
C969 C967 1.390 . S
C969 C970 1.387 . S
C969 H972 0.950 . S
C970 C969 1.387 . S
C970 C973 1.387 . S
H971 C967 0.950 . S
H972 C969 0.950 . S
C973 C964 1.390 . S
C973 H966 0.950 . S
C973 C970 1.387 . S
C974 C975 1.387 . S
C974 H978 0.950 . S
C974 C983 1.390 . S
C975 C974 1.387 . S
C975 C977 1.387 . S
H976 C983 0.950 . S
C977 C975 1.387 . S
C977 C979 1.390 . S
C977 H981 0.950 . S
H978 C974 0.950 . S
C979 C977 1.390 . S
C979 C980 1.387 . S
C979 H982 0.950 . S
C980 C979 1.387 . S
C980 C983 1.387 . S
H981 C977 0.950 . S
H982 C979 0.950 . S
C983 C974 1.390 . S
C983 H976 0.950 . S
C983 C980 1.387 . S
C984 C985 1.387 . S
C984 H988 0.950 . S
C984 C993 1.390 . S
C985 C984 1.387 . S
C985 C987 1.387 . S
H986 C993 0.950 . S
C987 C985 1.387 . S
C987 C989 1.390 . S
C987 H991 0.950 . S
H988 C984 0.950 . S
C989 C987 1.390 . S
C989 C990 1.387 . S
C989 H992 0.950 . S
C990 C989 1.387 . S
C990 C993 1.387 . S
H991 C987 0.950 . S
H992 C989 0.950 . S
C993 C984 1.390 . S
C993 H986 0.950 . S
C993 C990 1.387 . S
C994 C995 1.387 . S
C994 H998 0.950 . S
C994 C1003 1.390 . S
C995 C994 1.387 . S
C995 C997 1.387 . S
H996 C1003 0.950 . S
C997 C995 1.387 . S
C997 C999 1.390 . S
C997 H1001 0.950 . S
H998 C994 0.950 . S
C999 C997 1.390 . S
C999 C1000 1.387 . S
C999 H1002 0.950 . S
C1000 C999 1.387 . S
C1000 C1003 1.387 . S
H1001 C997 0.950 . S
H1002 C999 0.950 . S
C1003 C994 1.390 . S
C1003 H996 0.950 . S
C1003 C1000 1.387 . S
C1004 C1005 1.387 . S
C1004 H1008 0.950 . S
C1004 C1013 1.390 . S
C1005 C1004 1.387 . S
C1005 C1007 1.387 . S
H1006 C1013 0.950 . S
C1007 C1005 1.387 . S
C1007 C1009 1.390 . S
C1007 H1011 0.950 . S
H1008 C1004 0.950 . S
C1009 C1007 1.390 . S
C1009 C1010 1.387 . S
C1009 H1012 0.950 . S
C1010 C1009 1.387 . S
C1010 C1013 1.387 . S
H1011 C1007 0.950 . S
H1012 C1009 0.950 . S
C1013 C1004 1.390 . S
C1013 H1006 0.950 . S
C1013 C1010 1.387 . S
C1014 C1015 1.387 . S
C1014 H1018 0.950 . S
C1014 C1023 1.390 . S
C1015 C1014 1.387 . S
C1015 C1017 1.387 . S
H1016 C1023 0.950 . S
C1017 C1015 1.387 . S
C1017 C1019 1.390 . S
C1017 H1021 0.950 . S
H1018 C1014 0.950 . S
C1019 C1017 1.390 . S
C1019 C1020 1.387 . S
C1019 H1022 0.950 . S
C1020 C1019 1.387 . S
C1020 C1023 1.387 . S
H1021 C1017 0.950 . S
H1022 C1019 0.950 . S
C1023 C1014 1.390 . S
C1023 H1016 0.950 . S
C1023 C1020 1.387 . S
C1024 C1025 1.387 . S
C1024 H1028 0.950 . S
C1024 C1033 1.390 . S
C1025 C1024 1.387 . S
C1025 C1027 1.387 . S
H1026 C1033 0.950 . S
C1027 C1025 1.387 . S
C1027 C1029 1.390 . S
C1027 H1031 0.950 . S
H1028 C1024 0.950 . S
C1029 C1027 1.390 . S
C1029 C1030 1.387 . S
C1029 H1032 0.950 . S
C1030 C1029 1.387 . S
C1030 C1033 1.387 . S
H1031 C1027 0.950 . S
H1032 C1029 0.950 . S
C1033 C1024 1.390 . S
C1033 H1026 0.950 . S
C1033 C1030 1.387 . S
C1034 C1035 1.387 . S
C1034 H1038 0.950 . S
C1034 C1043 1.390 . S
C1035 C1034 1.387 . S
C1035 C1037 1.387 . S
H1036 C1043 0.950 . S
C1037 C1035 1.387 . S
C1037 C1039 1.390 . S
C1037 H1041 0.950 . S
H1038 C1034 0.950 . S
C1039 C1037 1.390 . S
C1039 C1040 1.387 . S
C1039 H1042 0.950 . S
C1040 C1039 1.387 . S
C1040 C1043 1.387 . S
H1041 C1037 0.950 . S
H1042 C1039 0.950 . S
C1043 C1034 1.390 . S
C1043 H1036 0.950 . S
C1043 C1040 1.387 . S
C1044 C1045 1.387 . S
C1044 H1048 0.950 . S
C1044 C1053 1.390 . S
C1045 C1044 1.387 . S
C1045 C1047 1.387 . S
H1046 C1053 0.950 . S
C1047 C1045 1.387 . S
C1047 C1049 1.390 . S
C1047 H1051 0.950 . S
H1048 C1044 0.950 . S
C1049 C1047 1.390 . S
C1049 C1050 1.387 . S
C1049 H1052 0.950 . S
C1050 C1049 1.387 . S
C1050 C1053 1.387 . S
H1051 C1047 0.950 . S
H1052 C1049 0.950 . S
C1053 C1044 1.390 . S
C1053 H1046 0.950 . S
C1053 C1050 1.387 . S
C1054 C1055 1.387 . S
C1054 H1058 0.950 . S
C1054 C1063 1.390 . S
C1055 C1054 1.387 . S
C1055 C1057 1.387 . S
H1056 C1063 0.950 . S
C1057 C1055 1.387 . S
C1057 C1059 1.390 . S
C1057 H1061 0.950 . S
H1058 C1054 0.950 . S
C1059 C1057 1.390 . S
C1059 C1060 1.387 . S
C1059 H1062 0.950 . S
C1060 C1059 1.387 . S
C1060 C1063 1.387 . S
H1061 C1057 0.950 . S
H1062 C1059 0.950 . S
C1063 C1054 1.390 . S
C1063 H1056 0.950 . S
C1063 C1060 1.387 . S
C1064 C1065 1.387 . S
C1064 H1068 0.950 . S
C1064 C1073 1.390 . S
C1065 C1064 1.387 . S
C1065 C1067 1.387 . S
H1066 C1073 0.950 . S
C1067 C1065 1.387 . S
C1067 C1069 1.390 . S
C1067 H1071 0.950 . S
H1068 C1064 0.950 . S
C1069 C1067 1.390 . S
C1069 C1070 1.387 . S
C1069 H1072 0.950 . S
C1070 C1069 1.387 . S
C1070 C1073 1.387 . S
H1071 C1067 0.950 . S
H1072 C1069 0.950 . S
C1073 C1064 1.390 . S
C1073 H1066 0.950 . S
C1073 C1070 1.387 . S
C1074 C1075 1.387 . S
C1074 H1078 0.950 . S
C1074 C1083 1.390 . S
C1075 C1074 1.387 . S
C1075 C1077 1.387 . S
H1076 C1083 0.950 . S
C1077 C1075 1.387 . S
C1077 C1079 1.390 . S
C1077 H1081 0.950 . S
H1078 C1074 0.950 . S
C1079 C1077 1.390 . S
C1079 C1080 1.387 . S
C1079 H1082 0.950 . S
C1080 C1079 1.387 . S
C1080 C1083 1.387 . S
H1081 C1077 0.950 . S
H1082 C1079 0.950 . S
C1083 C1074 1.390 . S
C1083 H1076 0.950 . S
C1083 C1080 1.387 . S
C1084 C1085 1.387 . S
C1084 H1088 0.950 . S
C1084 C1093 1.390 . S
C1085 C1084 1.387 . S
C1085 C1087 1.387 . S
H1086 C1093 0.950 . S
C1087 C1085 1.387 . S
C1087 C1089 1.390 . S
C1087 H1091 0.950 . S
H1088 C1084 0.950 . S
C1089 C1087 1.390 . S
C1089 C1090 1.387 . S
C1089 H1092 0.950 . S
C1090 C1089 1.387 . S
C1090 C1093 1.387 . S
H1091 C1087 0.950 . S
H1092 C1089 0.950 . S
C1093 C1084 1.390 . S
C1093 H1086 0.950 . S
C1093 C1090 1.387 . S
C1094 C1095 1.387 . S
C1094 H1098 0.950 . S
C1094 C1103 1.390 . S
C1095 C1094 1.387 . S
C1095 C1097 1.387 . S
H1096 C1103 0.950 . S
C1097 C1095 1.387 . S
C1097 C1099 1.390 . S
C1097 H1101 0.950 . S
H1098 C1094 0.950 . S
C1099 C1097 1.390 . S
C1099 C1100 1.387 . S
C1099 H1102 0.950 . S
C1100 C1099 1.387 . S
C1100 C1103 1.387 . S
H1101 C1097 0.950 . S
H1102 C1099 0.950 . S
C1103 C1094 1.390 . S
C1103 H1096 0.950 . S
C1103 C1100 1.387 . S
C1104 C1105 1.387 . S
C1104 H1108 0.950 . S
C1104 C1113 1.390 . S
C1105 C1104 1.387 . S
C1105 C1107 1.387 . S
H1106 C1113 0.950 . S
C1107 C1105 1.387 . S
C1107 C1109 1.390 . S
C1107 H1111 0.950 . S
H1108 C1104 0.950 . S
C1109 C1107 1.390 . S
C1109 C1110 1.387 . S
C1109 H1112 0.950 . S
C1110 C1109 1.387 . S
C1110 C1113 1.387 . S
H1111 C1107 0.950 . S
H1112 C1109 0.950 . S
C1113 C1104 1.390 . S
C1113 H1106 0.950 . S
C1113 C1110 1.387 . S
C1114 C1115 1.387 . S
C1114 H1118 0.950 . S
C1114 C1123 1.390 . S
C1115 C1114 1.387 . S
C1115 C1117 1.387 . S
H1116 C1123 0.950 . S
C1117 C1115 1.387 . S
C1117 C1119 1.390 . S
C1117 H1121 0.950 . S
H1118 C1114 0.950 . S
C1119 C1117 1.390 . S
C1119 C1120 1.387 . S
C1119 H1122 0.950 . S
C1120 C1119 1.387 . S
C1120 C1123 1.387 . S
H1121 C1117 0.950 . S
H1122 C1119 0.950 . S
C1123 C1114 1.390 . S
C1123 H1116 0.950 . S
C1123 C1120 1.387 . S
C1124 C1125 1.387 . S
C1124 H1128 0.950 . S
C1124 C1133 1.390 . S
C1125 C1124 1.387 . S
C1125 C1127 1.387 . S
H1126 C1133 0.950 . S
C1127 C1125 1.387 . S
C1127 C1129 1.390 . S
C1127 H1131 0.950 . S
H1128 C1124 0.950 . S
C1129 C1127 1.390 . S
C1129 C1130 1.387 . S
C1129 H1132 0.950 . S
C1130 C1129 1.387 . S
C1130 C1133 1.387 . S
H1131 C1127 0.950 . S
H1132 C1129 0.950 . S
C1133 C1124 1.390 . S
C1133 H1126 0.950 . S
C1133 C1130 1.387 . S
C1134 C1135 1.387 . S
C1134 H1138 0.950 . S
C1134 C1143 1.390 . S
C1135 C1134 1.387 . S
C1135 C1137 1.387 . S
H1136 C1143 0.950 . S
C1137 C1135 1.387 . S
C1137 C1139 1.390 . S
C1137 H1141 0.950 . S
H1138 C1134 0.950 . S
C1139 C1137 1.390 . S
C1139 C1140 1.387 . S
C1139 H1142 0.950 . S
C1140 C1139 1.387 . S
C1140 C1143 1.387 . S
H1141 C1137 0.950 . S
H1142 C1139 0.950 . S
C1143 C1134 1.390 . S
C1143 H1136 0.950 . S
C1143 C1140 1.387 . S
C1144 C1145 1.387 . S
C1144 H1148 0.950 . S
C1144 C1153 1.390 . S
C1145 C1144 1.387 . S
C1145 C1147 1.387 . S
H1146 C1153 0.950 . S
C1147 C1145 1.387 . S
C1147 C1149 1.390 . S
C1147 H1151 0.950 . S
H1148 C1144 0.950 . S
C1149 C1147 1.390 . S
C1149 C1150 1.387 . S
C1149 H1152 0.950 . S
C1150 C1149 1.387 . S
C1150 C1153 1.387 . S
H1151 C1147 0.950 . S
H1152 C1149 0.950 . S
C1153 C1144 1.390 . S
C1153 H1146 0.950 . S
C1153 C1150 1.387 . S
C1154 C1155 1.387 . S
C1154 H1158 0.950 . S
C1154 C1163 1.390 . S
C1155 C1154 1.387 . S
C1155 C1157 1.387 . S
H1156 C1163 0.950 . S
C1157 C1155 1.387 . S
C1157 C1159 1.390 . S
C1157 H1161 0.950 . S
H1158 C1154 0.950 . S
C1159 C1157 1.390 . S
C1159 C1160 1.387 . S
C1159 H1162 0.950 . S
C1160 C1159 1.387 . S
C1160 C1163 1.387 . S
H1161 C1157 0.950 . S
H1162 C1159 0.950 . S
C1163 C1154 1.390 . S
C1163 H1156 0.950 . S
C1163 C1160 1.387 . S
C1164 C1165 1.387 . S
C1164 H1168 0.950 . S
C1164 C1173 1.390 . S
C1165 C1164 1.387 . S
C1165 C1167 1.387 . S
H1166 C1173 0.950 . S
C1167 C1165 1.387 . S
C1167 C1169 1.390 . S
C1167 H1171 0.950 . S
H1168 C1164 0.950 . S
C1169 C1167 1.390 . S
C1169 C1170 1.387 . S
C1169 H1172 0.950 . S
C1170 C1169 1.387 . S
C1170 C1173 1.387 . S
H1171 C1167 0.950 . S
H1172 C1169 0.950 . S
C1173 C1164 1.390 . S
C1173 H1166 0.950 . S
C1173 C1170 1.387 . S
C1174 C1175 1.387 . S
C1174 H1178 0.950 . S
C1174 C1183 1.390 . S
C1175 C1174 1.387 . S
C1175 C1177 1.387 . S
H1176 C1183 0.950 . S
C1177 C1175 1.387 . S
C1177 C1179 1.390 . S
C1177 H1181 0.950 . S
H1178 C1174 0.950 . S
C1179 C1177 1.390 . S
C1179 C1180 1.387 . S
C1179 H1182 0.950 . S
C1180 C1179 1.387 . S
C1180 C1183 1.387 . S
H1181 C1177 0.950 . S
H1182 C1179 0.950 . S
C1183 C1174 1.390 . S
C1183 H1176 0.950 . S
C1183 C1180 1.387 . S
C1184 C1185 1.387 . S
C1184 H1188 0.950 . S
C1184 C1193 1.390 . S
C1185 C1184 1.387 . S
C1185 C1187 1.387 . S
H1186 C1193 0.950 . S
C1187 C1185 1.387 . S
C1187 C1189 1.390 . S
C1187 H1191 0.950 . S
H1188 C1184 0.950 . S
C1189 C1187 1.390 . S
C1189 C1190 1.387 . S
C1189 H1192 0.950 . S
C1190 C1189 1.387 . S
C1190 C1193 1.387 . S
H1191 C1187 0.950 . S
H1192 C1189 0.950 . S
C1193 C1184 1.390 . S
C1193 H1186 0.950 . S
C1193 C1190 1.387 . S
C1194 C1195 1.387 . S
C1194 H1198 0.950 . S
C1194 C1203 1.390 . S
C1195 C1194 1.387 . S
C1195 C1197 1.387 . S
H1196 C1203 0.950 . S
C1197 C1195 1.387 . S
C1197 C1199 1.390 . S
C1197 H1201 0.950 . S
H1198 C1194 0.950 . S
C1199 C1197 1.390 . S
C1199 C1200 1.387 . S
C1199 H1202 0.950 . S
C1200 C1199 1.387 . S
C1200 C1203 1.387 . S
H1201 C1197 0.950 . S
H1202 C1199 0.950 . S
C1203 C1194 1.390 . S
C1203 H1196 0.950 . S
C1203 C1200 1.387 . S
C1204 C1205 1.387 . S
C1204 H1208 0.950 . S
C1204 C1213 1.390 . S
C1205 C1204 1.387 . S
C1205 C1207 1.387 . S
H1206 C1213 0.950 . S
C1207 C1205 1.387 . S
C1207 C1209 1.390 . S
C1207 H1211 0.950 . S
H1208 C1204 0.950 . S
C1209 C1207 1.390 . S
C1209 C1210 1.387 . S
C1209 H1212 0.950 . S
C1210 C1209 1.387 . S
C1210 C1213 1.387 . S
H1211 C1207 0.950 . S
H1212 C1209 0.950 . S
C1213 C1204 1.390 . S
C1213 H1206 0.950 . S
C1213 C1210 1.387 . S
C1214 C1215 1.387 . S
C1214 H1218 0.950 . S
C1214 C1223 1.390 . S
C1215 C1214 1.387 . S
C1215 C1217 1.387 . S
H1216 C1223 0.950 . S
C1217 C1215 1.387 . S
C1217 C1219 1.390 . S
C1217 H1221 0.950 . S
H1218 C1214 0.950 . S
C1219 C1217 1.390 . S
C1219 C1220 1.387 . S
C1219 H1222 0.950 . S
C1220 C1219 1.387 . S
C1220 C1223 1.387 . S
H1221 C1217 0.950 . S
H1222 C1219 0.950 . S
C1223 C1214 1.390 . S
C1223 H1216 0.950 . S
C1223 C1220 1.387 . S
C1224 C1225 1.387 . S
C1224 H1228 0.950 . S
C1224 C1233 1.390 . S
C1225 C1224 1.387 . S
C1225 C1227 1.387 . S
H1226 C1233 0.950 . S
C1227 C1225 1.387 . S
C1227 C1229 1.390 . S
C1227 H1231 0.950 . S
H1228 C1224 0.950 . S
C1229 C1227 1.390 . S
C1229 C1230 1.387 . S
C1229 H1232 0.950 . S
C1230 C1229 1.387 . S
C1230 C1233 1.387 . S
H1231 C1227 0.950 . S
H1232 C1229 0.950 . S
C1233 C1224 1.390 . S
C1233 H1226 0.950 . S
C1233 C1230 1.387 . S
C1234 C1235 1.387 . S
C1234 H1238 0.950 . S
C1234 C1243 1.390 . S
C1235 C1234 1.387 . S
C1235 C1237 1.387 . S
H1236 C1243 0.950 . S
C1237 C1235 1.387 . S
C1237 C1239 1.390 . S
C1237 H1241 0.950 . S
H1238 C1234 0.950 . S
C1239 C1237 1.390 . S
C1239 C1240 1.387 . S
C1239 H1242 0.950 . S
C1240 C1239 1.387 . S
C1240 C1243 1.387 . S
H1241 C1237 0.950 . S
H1242 C1239 0.950 . S
C1243 C1234 1.390 . S
C1243 H1236 0.950 . S
C1243 C1240 1.387 . S
C1244 C1245 1.387 . S
C1244 H1248 0.950 . S
C1244 C1253 1.390 . S
C1245 C1244 1.387 . S
C1245 C1247 1.387 . S
H1246 C1253 0.950 . S
C1247 C1245 1.387 . S
C1247 C1249 1.390 . S
C1247 H1251 0.950 . S
H1248 C1244 0.950 . S
C1249 C1247 1.390 . S
C1249 C1250 1.387 . S
C1249 H1252 0.950 . S
C1250 C1249 1.387 . S
C1250 C1253 1.387 . S
H1251 C1247 0.950 . S
H1252 C1249 0.950 . S
C1253 C1244 1.390 . S
C1253 H1246 0.950 . S
C1253 C1250 1.387 . S
C1254 C1255 1.387 . S
C1254 H1258 0.950 . S
C1254 C1263 1.390 . S
C1255 C1254 1.387 . S
C1255 C1257 1.387 . S
H1256 C1263 0.950 . S
C1257 C1255 1.387 . S
C1257 C1259 1.390 . S
C1257 H1261 0.950 . S
H1258 C1254 0.950 . S
C1259 C1257 1.390 . S
C1259 C1260 1.387 . S
C1259 H1262 0.950 . S
C1260 C1259 1.387 . S
C1260 C1263 1.387 . S
H1261 C1257 0.950 . S
H1262 C1259 0.950 . S
C1263 C1254 1.390 . S
C1263 H1256 0.950 . S
C1263 C1260 1.387 . S
C1264 C1265 1.387 . S
C1264 H1268 0.950 . S
C1264 C1273 1.390 . S
C1265 C1264 1.387 . S
C1265 C1267 1.387 . S
H1266 C1273 0.950 . S
C1267 C1265 1.387 . S
C1267 C1269 1.390 . S
C1267 H1271 0.950 . S
H1268 C1264 0.950 . S
C1269 C1267 1.390 . S
C1269 C1270 1.387 . S
C1269 H1272 0.950 . S
C1270 C1269 1.387 . S
C1270 C1273 1.387 . S
H1271 C1267 0.950 . S
H1272 C1269 0.950 . S
C1273 C1264 1.390 . S
C1273 H1266 0.950 . S
C1273 C1270 1.387 . S
C1274 C1275 1.387 . S
C1274 H1278 0.950 . S
C1274 C1283 1.390 . S
C1275 C1274 1.387 . S
C1275 C1277 1.387 . S
H1276 C1283 0.950 . S
C1277 C1275 1.387 . S
C1277 C1279 1.390 . S
C1277 H1281 0.950 . S
H1278 C1274 0.950 . S
C1279 C1277 1.390 . S
C1279 C1280 1.387 . S
C1279 H1282 0.950 . S
C1280 C1279 1.387 . S
C1280 C1283 1.387 . S
H1281 C1277 0.950 . S
H1282 C1279 0.950 . S
C1283 C1274 1.390 . S
C1283 H1276 0.950 . S
C1283 C1280 1.387 . S
C1284 C1285 1.387 . S
C1284 H1288 0.950 . S
C1284 C1293 1.390 . S
C1285 C1284 1.387 . S
C1285 C1287 1.387 . S
H1286 C1293 0.950 . S
C1287 C1285 1.387 . S
C1287 C1289 1.390 . S
C1287 H1291 0.950 . S
H1288 C1284 0.950 . S
C1289 C1287 1.390 . S
C1289 C1290 1.387 . S
C1289 H1292 0.950 . S
C1290 C1289 1.387 . S
C1290 C1293 1.387 . S
H1291 C1287 0.950 . S
H1292 C1289 0.950 . S
C1293 C1284 1.390 . S
C1293 H1286 0.950 . S
C1293 C1290 1.387 . S
C1294 C1295 1.387 . S
C1294 H1298 0.950 . S
C1294 C1303 1.390 . S
C1295 C1294 1.387 . S
C1295 C1297 1.387 . S
H1296 C1303 0.950 . S
C1297 C1295 1.387 . S
C1297 C1299 1.390 . S
C1297 H1301 0.950 . S
H1298 C1294 0.950 . S
C1299 C1297 1.390 . S
C1299 C1300 1.387 . S
C1299 H1302 0.950 . S
C1300 C1299 1.387 . S
C1300 C1303 1.387 . S
H1301 C1297 0.950 . S
H1302 C1299 0.950 . S
C1303 C1294 1.390 . S
C1303 H1296 0.950 . S
C1303 C1300 1.387 . S
C1304 C1305 1.387 . S
C1304 H1308 0.950 . S
C1304 C1313 1.390 . S
C1305 C1304 1.387 . S
C1305 C1307 1.387 . S
H1306 C1313 0.950 . S
C1307 C1305 1.387 . S
C1307 C1309 1.390 . S
C1307 H1311 0.950 . S
H1308 C1304 0.950 . S
C1309 C1307 1.390 . S
C1309 C1310 1.387 . S
C1309 H1312 0.950 . S
C1310 C1309 1.387 . S
C1310 C1313 1.387 . S
H1311 C1307 0.950 . S
H1312 C1309 0.950 . S
C1313 C1304 1.390 . S
C1313 H1306 0.950 . S
C1313 C1310 1.387 . S
C1314 C1315 1.387 . S
C1314 H1318 0.950 . S
C1314 C1323 1.390 . S
C1315 C1314 1.387 . S
C1315 C1317 1.387 . S
H1316 C1323 0.950 . S
C1317 C1315 1.387 . S
C1317 C1319 1.390 . S
C1317 H1321 0.950 . S
H1318 C1314 0.950 . S
C1319 C1317 1.390 . S
C1319 C1320 1.387 . S
C1319 H1322 0.950 . S
C1320 C1319 1.387 . S
C1320 C1323 1.387 . S
H1321 C1317 0.950 . S
H1322 C1319 0.950 . S
C1323 C1314 1.390 . S
C1323 H1316 0.950 . S
C1323 C1320 1.387 . S
C1324 C1325 1.387 . S
C1324 H1328 0.950 . S
C1324 C1333 1.390 . S
C1325 C1324 1.387 . S
C1325 C1327 1.387 . S
H1326 C1333 0.950 . S
C1327 C1325 1.387 . S
C1327 C1329 1.390 . S
C1327 H1331 0.950 . S
H1328 C1324 0.950 . S
C1329 C1327 1.390 . S
C1329 C1330 1.387 . S
C1329 H1332 0.950 . S
C1330 C1329 1.387 . S
C1330 C1333 1.387 . S
H1331 C1327 0.950 . S
H1332 C1329 0.950 . S
C1333 C1324 1.390 . S
C1333 H1326 0.950 . S
C1333 C1330 1.387 . S
C1334 C1335 1.387 . S
C1334 H1338 0.950 . S
C1334 C1343 1.390 . S
C1335 C1334 1.387 . S
C1335 C1337 1.387 . S
H1336 C1343 0.950 . S
C1337 C1335 1.387 . S
C1337 C1339 1.390 . S
C1337 H1341 0.950 . S
H1338 C1334 0.950 . S
C1339 C1337 1.390 . S
C1339 C1340 1.387 . S
C1339 H1342 0.950 . S
C1340 C1339 1.387 . S
C1340 C1343 1.387 . S
H1341 C1337 0.950 . S
H1342 C1339 0.950 . S
C1343 C1334 1.390 . S
C1343 H1336 0.950 . S
C1343 C1340 1.387 . S
C1344 C1345 1.387 . S
C1344 H1348 0.950 . S
C1344 C1353 1.390 . S
C1345 C1344 1.387 . S
C1345 C1347 1.387 . S
H1346 C1353 0.950 . S
C1347 C1345 1.387 . S
C1347 C1349 1.390 . S
C1347 H1351 0.950 . S
H1348 C1344 0.950 . S
C1349 C1347 1.390 . S
C1349 C1350 1.387 . S
C1349 H1352 0.950 . S
C1350 C1349 1.387 . S
C1350 C1353 1.387 . S
H1351 C1347 0.950 . S
H1352 C1349 0.950 . S
C1353 C1344 1.390 . S
C1353 H1346 0.950 . S
C1353 C1350 1.387 . S
C1354 C1355 1.387 . S
C1354 H1358 0.950 . S
C1354 C1363 1.390 . S
C1355 C1354 1.387 . S
C1355 C1357 1.387 . S
H1356 C1363 0.950 . S
C1357 C1355 1.387 . S
C1357 C1359 1.390 . S
C1357 H1361 0.950 . S
H1358 C1354 0.950 . S
C1359 C1357 1.390 . S
C1359 C1360 1.387 . S
C1359 H1362 0.950 . S
C1360 C1359 1.387 . S
C1360 C1363 1.387 . S
H1361 C1357 0.950 . S
H1362 C1359 0.950 . S
C1363 C1354 1.390 . S
C1363 H1356 0.950 . S
C1363 C1360 1.387 . S
C1364 C1365 1.387 . S
C1364 H1368 0.950 . S
C1364 C1373 1.390 . S
C1365 C1364 1.387 . S
C1365 C1367 1.387 . S
H1366 C1373 0.950 . S
C1367 C1365 1.387 . S
C1367 C1369 1.390 . S
C1367 H1371 0.950 . S
H1368 C1364 0.950 . S
C1369 C1367 1.390 . S
C1369 C1370 1.387 . S
C1369 H1372 0.950 . S
C1370 C1369 1.387 . S
C1370 C1373 1.387 . S
H1371 C1367 0.950 . S
H1372 C1369 0.950 . S
C1373 C1364 1.390 . S
C1373 H1366 0.950 . S
C1373 C1370 1.387 . S
C1374 C1375 1.387 . S
C1374 H1378 0.950 . S
C1374 C1383 1.390 . S
C1375 C1374 1.387 . S
C1375 C1377 1.387 . S
H1376 C1383 0.950 . S
C1377 C1375 1.387 . S
C1377 C1379 1.390 . S
C1377 H1381 0.950 . S
H1378 C1374 0.950 . S
C1379 C1377 1.390 . S
C1379 C1380 1.387 . S
C1379 H1382 0.950 . S
C1380 C1379 1.387 . S
C1380 C1383 1.387 . S
H1381 C1377 0.950 . S
H1382 C1379 0.950 . S
C1383 C1374 1.390 . S
C1383 H1376 0.950 . S
C1383 C1380 1.387 . S
C1384 C1385 1.387 . S
C1384 H1388 0.950 . S
C1384 C1393 1.390 . S
C1385 C1384 1.387 . S
C1385 C1387 1.387 . S
H1386 C1393 0.950 . S
C1387 C1385 1.387 . S
C1387 C1389 1.390 . S
C1387 H1391 0.950 . S
H1388 C1384 0.950 . S
C1389 C1387 1.390 . S
C1389 C1390 1.387 . S
C1389 H1392 0.950 . S
C1390 C1389 1.387 . S
C1390 C1393 1.387 . S
H1391 C1387 0.950 . S
H1392 C1389 0.950 . S
C1393 C1384 1.390 . S
C1393 H1386 0.950 . S
C1393 C1390 1.387 . S
C1394 C1395 1.387 . S
C1394 H1398 0.950 . S
C1394 C1403 1.390 . S
C1395 C1394 1.387 . S
C1395 C1397 1.387 . S
H1396 C1403 0.950 . S
C1397 C1395 1.387 . S
C1397 C1399 1.390 . S
C1397 H1401 0.950 . S
H1398 C1394 0.950 . S
C1399 C1397 1.390 . S
C1399 C1400 1.387 . S
C1399 H1402 0.950 . S
C1400 C1399 1.387 . S
C1400 C1403 1.387 . S
H1401 C1397 0.950 . S
H1402 C1399 0.950 . S
C1403 C1394 1.390 . S
C1403 H1396 0.950 . S
C1403 C1400 1.387 . S
C1404 C1405 1.387 . S
C1404 H1408 0.950 . S
C1404 C1413 1.390 . S
C1405 C1404 1.387 . S
C1405 C1407 1.387 . S
H1406 C1413 0.950 . S
C1407 C1405 1.387 . S
C1407 C1409 1.390 . S
C1407 H1411 0.950 . S
H1408 C1404 0.950 . S
C1409 C1407 1.390 . S
C1409 C1410 1.387 . S
C1409 H1412 0.950 . S
C1410 C1409 1.387 . S
C1410 C1413 1.387 . S
H1411 C1407 0.950 . S
H1412 C1409 0.950 . S
C1413 C1404 1.390 . S
C1413 H1406 0.950 . S
C1413 C1410 1.387 . S
C1414 C1415 1.387 . S
C1414 H1418 0.950 . S
C1414 C1423 1.390 . S
C1415 C1414 1.387 . S
C1415 C1417 1.387 . S
H1416 C1423 0.950 . S
C1417 C1415 1.387 . S
C1417 C1419 1.390 . S
C1417 H1421 0.950 . S
H1418 C1414 0.950 . S
C1419 C1417 1.390 . S
C1419 C1420 1.387 . S
C1419 H1422 0.950 . S
C1420 C1419 1.387 . S
C1420 C1423 1.387 . S
H1421 C1417 0.950 . S
H1422 C1419 0.950 . S
C1423 C1414 1.390 . S
C1423 H1416 0.950 . S
C1423 C1420 1.387 . S
C1424 C1425 1.387 . S
C1424 H1428 0.950 . S
C1424 C1433 1.390 . S
C1425 C1424 1.387 . S
C1425 C1427 1.387 . S
H1426 C1433 0.950 . S
C1427 C1425 1.387 . S
C1427 C1429 1.390 . S
C1427 H1431 0.950 . S
H1428 C1424 0.950 . S
C1429 C1427 1.390 . S
C1429 C1430 1.387 . S
C1429 H1432 0.950 . S
C1430 C1429 1.387 . S
C1430 C1433 1.387 . S
H1431 C1427 0.950 . S
H1432 C1429 0.950 . S
C1433 C1424 1.390 . S
C1433 H1426 0.950 . S
C1433 C1430 1.387 . S
C1434 C1435 1.387 . S
C1434 H1438 0.950 . S
C1434 C1443 1.390 . S
C1435 C1434 1.387 . S
C1435 C1437 1.387 . S
H1436 C1443 0.950 . S
C1437 C1435 1.387 . S
C1437 C1439 1.390 . S
C1437 H1441 0.950 . S
H1438 C1434 0.950 . S
C1439 C1437 1.390 . S
C1439 C1440 1.387 . S
C1439 H1442 0.950 . S
C1440 C1439 1.387 . S
C1440 C1443 1.387 . S
H1441 C1437 0.950 . S
H1442 C1439 0.950 . S
C1443 C1434 1.390 . S
C1443 H1436 0.950 . S
C1443 C1440 1.387 . S
C1444 C1445 1.387 . S
C1444 H1448 0.950 . S
C1444 C1453 1.390 . S
C1445 C1444 1.387 . S
C1445 C1447 1.387 . S
H1446 C1453 0.950 . S
C1447 C1445 1.387 . S
C1447 C1449 1.390 . S
C1447 H1451 0.950 . S
H1448 C1444 0.950 . S
C1449 C1447 1.390 . S
C1449 C1450 1.387 . S
C1449 H1452 0.950 . S
C1450 C1449 1.387 . S
C1450 C1453 1.387 . S
H1451 C1447 0.950 . S
H1452 C1449 0.950 . S
C1453 C1444 1.390 . S
C1453 H1446 0.950 . S
C1453 C1450 1.387 . S
C1454 C1455 1.387 . S
C1454 H1458 0.950 . S
C1454 C1463 1.390 . S
C1455 C1454 1.387 . S
C1455 C1457 1.387 . S
H1456 C1463 0.950 . S
C1457 C1455 1.387 . S
C1457 C1459 1.390 . S
C1457 H1461 0.950 . S
H1458 C1454 0.950 . S
C1459 C1457 1.390 . S
C1459 C1460 1.387 . S
C1459 H1462 0.950 . S
C1460 C1459 1.387 . S
C1460 C1463 1.387 . S
H1461 C1457 0.950 . S
H1462 C1459 0.950 . S
C1463 C1454 1.390 . S
C1463 H1456 0.950 . S
C1463 C1460 1.387 . S
C1464 C1465 1.387 . S
C1464 H1468 0.950 . S
C1464 C1473 1.390 . S
C1465 C1464 1.387 . S
C1465 C1467 1.387 . S
H1466 C1473 0.950 . S
C1467 C1465 1.387 . S
C1467 C1469 1.390 . S
C1467 H1471 0.950 . S
H1468 C1464 0.950 . S
C1469 C1467 1.390 . S
C1469 C1470 1.387 . S
C1469 H1472 0.950 . S
C1470 C1469 1.387 . S
C1470 C1473 1.387 . S
H1471 C1467 0.950 . S
H1472 C1469 0.950 . S
C1473 C1464 1.390 . S
C1473 H1466 0.950 . S
C1473 C1470 1.387 . S
C1474 C1475 1.387 . S
C1474 H1478 0.950 . S
C1474 C1483 1.390 . S
C1475 C1474 1.387 . S
C1475 C1477 1.387 . S
H1476 C1483 0.950 . S
C1477 C1475 1.387 . S
C1477 C1479 1.390 . S
C1477 H1481 0.950 . S
H1478 C1474 0.950 . S
C1479 C1477 1.390 . S
C1479 C1480 1.387 . S
C1479 H1482 0.950 . S
C1480 C1479 1.387 . S
C1480 C1483 1.387 . S
H1481 C1477 0.950 . S
H1482 C1479 0.950 . S
C1483 C1474 1.390 . S
C1483 H1476 0.950 . S
C1483 C1480 1.387 . S
C1484 C1485 1.387 . S
C1484 H1488 0.950 . S
C1484 C1493 1.390 . S
C1485 C1484 1.387 . S
C1485 C1487 1.387 . S
H1486 C1493 0.950 . S
C1487 C1485 1.387 . S
C1487 C1489 1.390 . S
C1487 H1491 0.950 . S
H1488 C1484 0.950 . S
C1489 C1487 1.390 . S
C1489 C1490 1.387 . S
C1489 H1492 0.950 . S
C1490 C1489 1.387 . S
C1490 C1493 1.387 . S
H1491 C1487 0.950 . S
H1492 C1489 0.950 . S
C1493 C1484 1.390 . S
C1493 H1486 0.950 . S
C1493 C1490 1.387 . S
C1494 C1495 1.387 . S
C1494 H1498 0.950 . S
C1494 C1503 1.390 . S
C1495 C1494 1.387 . S
C1495 C1497 1.387 . S
H1496 C1503 0.950 . S
C1497 C1495 1.387 . S
C1497 C1499 1.390 . S
C1497 H1501 0.950 . S
H1498 C1494 0.950 . S
C1499 C1497 1.390 . S
C1499 C1500 1.387 . S
C1499 H1502 0.950 . S
C1500 C1499 1.387 . S
C1500 C1503 1.387 . S
H1501 C1497 0.950 . S
H1502 C1499 0.950 . S
C1503 C1494 1.390 . S
C1503 H1496 0.950 . S
C1503 C1500 1.387 . S
C1504 C1505 1.387 . S
C1504 H1508 0.950 . S
C1504 C1513 1.390 . S
C1505 C1504 1.387 . S
C1505 C1507 1.387 . S
H1506 C1513 0.950 . S
C1507 C1505 1.387 . S
C1507 C1509 1.390 . S
C1507 H1511 0.950 . S
H1508 C1504 0.950 . S
C1509 C1507 1.390 . S
C1509 C1510 1.387 . S
C1509 H1512 0.950 . S
C1510 C1509 1.387 . S
C1510 C1513 1.387 . S
H1511 C1507 0.950 . S
H1512 C1509 0.950 . S
C1513 C1504 1.390 . S
C1513 H1506 0.950 . S
C1513 C1510 1.387 . S
C1514 C1515 1.387 . S
C1514 H1518 0.950 . S
C1514 C1523 1.390 . S
C1515 C1514 1.387 . S
C1515 C1517 1.387 . S
H1516 C1523 0.950 . S
C1517 C1515 1.387 . S
C1517 C1519 1.390 . S
C1517 H1521 0.950 . S
H1518 C1514 0.950 . S
C1519 C1517 1.390 . S
C1519 C1520 1.387 . S
C1519 H1522 0.950 . S
C1520 C1519 1.387 . S
C1520 C1523 1.387 . S
H1521 C1517 0.950 . S
H1522 C1519 0.950 . S
C1523 C1514 1.390 . S
C1523 H1516 0.950 . S
C1523 C1520 1.387 . S
C1524 C1525 1.387 . S
C1524 H1528 0.950 . S
C1524 C1533 1.390 . S
C1525 C1524 1.387 . S
C1525 C1527 1.387 . S
H1526 C1533 0.950 . S
C1527 C1525 1.387 . S
C1527 C1529 1.390 . S
C1527 H1531 0.950 . S
H1528 C1524 0.950 . S
C1529 C1527 1.390 . S
C1529 C1530 1.387 . S
C1529 H1532 0.950 . S
C1530 C1529 1.387 . S
C1530 C1533 1.387 . S
H1531 C1527 0.950 . S
H1532 C1529 0.950 . S
C1533 C1524 1.390 . S
C1533 H1526 0.950 . S
C1533 C1530 1.387 . S
C1534 C1535 1.387 . S
C1534 H1538 0.950 . S
C1534 C1543 1.390 . S
C1535 C1534 1.387 . S
C1535 C1537 1.387 . S
H1536 C1543 0.950 . S
C1537 C1535 1.387 . S
C1537 C1539 1.390 . S
C1537 H1541 0.950 . S
H1538 C1534 0.950 . S
C1539 C1537 1.390 . S
C1539 C1540 1.387 . S
C1539 H1542 0.950 . S
C1540 C1539 1.387 . S
C1540 C1543 1.387 . S
H1541 C1537 0.950 . S
H1542 C1539 0.950 . S
C1543 C1534 1.390 . S
C1543 H1536 0.950 . S
C1543 C1540 1.387 . S
C1544 C1545 1.387 . S
C1544 H1548 0.950 . S
C1544 C1553 1.390 . S
C1545 C1544 1.387 . S
C1545 C1547 1.387 . S
H1546 C1553 0.950 . S
C1547 C1545 1.387 . S
C1547 C1549 1.390 . S
C1547 H1551 0.950 . S
H1548 C1544 0.950 . S
C1549 C1547 1.390 . S
C1549 C1550 1.387 . S
C1549 H1552 0.950 . S
C1550 C1549 1.387 . S
C1550 C1553 1.387 . S
H1551 C1547 0.950 . S
H1552 C1549 0.950 . S
C1553 C1544 1.390 . S
C1553 H1546 0.950 . S
C1553 C1550 1.387 . S
C1554 C1555 1.387 . S
C1554 H1558 0.950 . S
C1554 C1563 1.390 . S
C1555 C1554 1.387 . S
C1555 C1557 1.387 . S
H1556 C1563 0.950 . S
C1557 C1555 1.387 . S
C1557 C1559 1.390 . S
C1557 H1561 0.950 . S
H1558 C1554 0.950 . S
C1559 C1557 1.390 . S
C1559 C1560 1.387 . S
C1559 H1562 0.950 . S
C1560 C1559 1.387 . S
C1560 C1563 1.387 . S
H1561 C1557 0.950 . S
H1562 C1559 0.950 . S
C1563 C1554 1.390 . S
C1563 H1556 0.950 . S
C1563 C1560 1.387 . S
C1564 C1565 1.387 . S
C1564 H1568 0.950 . S
C1564 C1573 1.390 . S
C1565 C1564 1.387 . S
C1565 C1567 1.387 . S
H1566 C1573 0.950 . S
C1567 C1565 1.387 . S
C1567 C1569 1.390 . S
C1567 H1571 0.950 . S
H1568 C1564 0.950 . S
C1569 C1567 1.390 . S
C1569 C1570 1.387 . S
C1569 H1572 0.950 . S
C1570 C1569 1.387 . S
C1570 C1573 1.387 . S
H1571 C1567 0.950 . S
H1572 C1569 0.950 . S
C1573 C1564 1.390 . S
C1573 H1566 0.950 . S
C1573 C1570 1.387 . S
C1574 C1575 1.387 . S
C1574 H1578 0.950 . S
C1574 C1583 1.390 . S
C1575 C1574 1.387 . S
C1575 C1577 1.387 . S
H1576 C1583 0.950 . S
C1577 C1575 1.387 . S
C1577 C1579 1.390 . S
C1577 H1581 0.950 . S
H1578 C1574 0.950 . S
C1579 C1577 1.390 . S
C1579 C1580 1.387 . S
C1579 H1582 0.950 . S
C1580 C1579 1.387 . S
C1580 C1583 1.387 . S
H1581 C1577 0.950 . S
H1582 C1579 0.950 . S
C1583 C1574 1.390 . S
C1583 H1576 0.950 . S
C1583 C1580 1.387 . S
C625 C117 1.799 . S
C630 C0 1.798 . S
C635 C130 1.799 . S
C640 C13 1.797 . S
C645 C143 1.798 . S
C650 C26 1.799 . S
C655 C39 1.797 . S
C660 C104 1.795 . S
C665 C195 1.799 . S
C670 C52 1.798 . S
C675 C65 1.797 . S
C680 C156 1.799 . S
C685 C169 1.799 . S
C690 C78 1.798 . S
C695 C182 1.799 . S
C700 C91 1.798 . S
C705 C208 1.795 . S
C710 C234 1.797 . S
C715 C221 1.796 . S
C720 C286 1.798 . S
C725 C247 1.798 . S
C730 C299 1.796 . S
C735 C260 1.799 . S
C740 C273 1.798 . S
C745 C312 1.795 . S
C750 C429 1.795 . S
C755 C442 1.796 . S
C760 C325 1.798 . S
C765 C338 1.799 . S
C770 C455 1.798 . S
C775 C351 1.796 . S
C780 C416 1.795 . S
C785 C507 1.795 . S
C790 C364 1.795 . S
C795 C468 1.799 . S
C800 C377 1.798 . S
C805 C481 1.798 . S
C810 C390 1.799 . S
C815 C494 1.796 . S
C820 C403 1.798 . S
C825 C520 1.795 . S
C830 C546 1.795 . S
C835 C533 1.797 . S
C840 C598 1.799 . S
C845 C559 1.795 . S
C850 C611 1.797 . S
C855 C585 1.798 . S
C860 C572 1.796 . S
C865 C109 1.139 . S
C870 C8 1.394 . S
C875 C122 1.136 . S
C880 C21 1.394 . S
C885 C34 1.394 . S
C890 C135 1.133 . S
C895 C47 1.394 . S
C900 C148 1.137 . S
C905 C60 1.393 . S
C910 C161 1.132 . S
C915 C73 1.392 . S
C920 C174 1.135 . S
C925 C86 1.392 . S
C930 C187 1.135 . S
C935 C200 1.137 . S
C940 C99 1.394 . S
C945 C112 1.392 . S
C950 C213 1.135 . S
C955 C304 1.137 . S
C960 C125 1.392 . S
C965 C138 1.392 . S
C970 C278 1.136 . S
C975 C151 1.393 . S
C980 C291 1.134 . S
C985 C164 1.394 . S
C990 C226 1.136 . S
C995 C177 1.392 . S
C1000 C239 1.137 . S
C1005 C190 1.394 . S
C1010 C252 1.136 . S
C1015 C265 1.137 . S
C1020 C203 1.392 . S
C1025 C5 1.133 . S
C1030 C216 1.393 . S
C1035 C229 1.392 . S
C1040 C57 1.135 . S
C1045 C242 1.392 . S
C1050 C70 1.135 . S
C1055 C255 1.394 . S
C1060 C83 1.137 . S
C1065 C96 1.136 . S
C1070 C268 1.394 . S
C1075 C281 1.392 . S
C1080 C31 1.135 . S
C1085 C294 1.394 . S
C1090 C44 1.134 . S
C1095 C18 1.136 . S
C1100 C307 1.394 . S
C1105 C421 1.134 . S
C1110 C320 1.394 . S
C1115 C333 1.393 . S
C1120 C434 1.134 . S
C1125 C346 1.394 . S
C1130 C447 1.135 . S
C1135 C460 1.135 . S
C1140 C359 1.392 . S
C1145 C473 1.135 . S
C1150 C372 1.394 . S
C1155 C385 1.394 . S
C1160 C486 1.135 . S
C1165 C499 1.135 . S
C1170 C398 1.392 . S
C1175 C512 1.134 . S
C1180 C411 1.393 . S
C1185 C424 1.394 . S
C1190 C525 1.138 . S
C1195 C437 1.394 . S
C1200 C616 1.135 . S
C1205 C450 1.392 . S
C1210 C590 1.136 . S
C1215 C603 1.137 . S
C1220 C463 1.392 . S
C1225 C476 1.392 . S
C1230 C538 1.136 . S
C1235 C489 1.394 . S
C1240 C551 1.139 . S
C1245 C564 1.134 . S
C1250 C502 1.393 . S
C1255 C577 1.134 . S
C1260 C515 1.393 . S
C1265 C528 1.393 . S
C1270 C317 1.134 . S
C1275 C541 1.394 . S
C1280 C369 1.138 . S
C1285 C382 1.135 . S
C1290 C554 1.392 . S
C1295 C567 1.394 . S
C1300 C395 1.136 . S
C1305 C580 1.394 . S
C1310 C408 1.136 . S
C1315 C343 1.136 . S
C1320 C593 1.394 . S
C1325 C606 1.392 . S
C1330 C356 1.136 . S
C1335 C330 1.135 . S
C1340 C619 1.392 . S
C1345 C413 1.461 . S
C1350 C10 1.460 . S
C1355 C23 1.461 . S
C1360 C374 1.458 . S
C1365 C387 1.461 . S
C1370 C36 1.459 . S
C1375 C400 1.458 . S
C1380 C49 1.461 . S
C1385 C62 1.459 . S
C1390 C335 1.461 . S
C1395 C348 1.458 . S
C1400 C75 1.460 . S
C1405 C361 1.458 . S
C1410 C88 1.461 . S
C1415 C101 1.458 . S
C1420 C322 1.461 . S
C1425 C582 1.461 . S
C1430 C114 1.459 . S
C1435 C127 1.459 . S
C1440 C543 1.461 . S
C1445 C140 1.460 . S
C1450 C556 1.460 . S
C1455 C569 1.458 . S
C1460 C153 1.461 . S
C1465 C621 1.461 . S
C1470 C166 1.459 . S
C1475 C595 1.458 . S
C1480 C179 1.461 . S
C1485 C192 1.458 . S
C1490 C608 1.460 . S
C1495 C530 1.459 . S
C1500 C205 1.461 . S
C1505 C218 1.461 . S
C1510 C517 1.459 . S
C1515 C439 1.458 . S
C1520 C231 1.461 . S
C1525 C244 1.461 . S
C1530 C452 1.459 . S
C1535 C465 1.461 . S
C1540 C257 1.458 . S
C1545 C426 1.460 . S
C1550 C270 1.461 . S
C1555 C283 1.461 . S
C1560 C491 1.458 . S
C1565 C504 1.460 . S
C1570 C296 1.460 . S
C1575 C478 1.461 . S
C1580 C309 1.460 . S
