# Generated by pormake.
# Topology wns, (7)-cn, num edge types: 1
# Building blocks:
#     Node 0, Type 0, BuildingBlock: NUHQUE_clean_sbu_2, # of connection points: 7
#     Node 1, Type 0, BuildingBlock: NUHQUE_clean_sbu_2, # of connection points: 7
#     Node 2, Type 0, BuildingBlock: NUHQUE_clean_sbu_2, # of connection points: 7
#     Node 3, Type 0, BuildingBlock: NUHQUE_clean_sbu_2, # of connection points: 7
#     Node 4, Type 0, BuildingBlock: NUHQUE_clean_sbu_2, # of connection points: 7
#     Node 5, Type 0, BuildingBlock: NUHQUE_clean_sbu_2, # of connection points: 7
#     Node 6, Type 0, BuildingBlock: NUHQUE_clean_sbu_2, # of connection points: 7
#     Node 7, Type 0, BuildingBlock: NUHQUE_clean_sbu_2, # of connection points: 7
#     Node 8, Type 0, BuildingBlock: NUHQUE_clean_sbu_2, # of connection points: 7
#     Node 9, Type 0, BuildingBlock: NUHQUE_clean_sbu_2, # of connection points: 7
#     Node 10, Type 0, BuildingBlock: NUHQUE_clean_sbu_2, # of connection points: 7
#     Node 11, Type 0, BuildingBlock: NUHQUE_clean_sbu_2, # of connection points: 7
#     Edge 12, Type (0, 0), BuildingBlock: AJUNOK_clean_linker_0, # of connection points: 2
#     Edge 13, Type (0, 0), BuildingBlock: AJUNOK_clean_linker_0, # of connection points: 2
#     Edge 14, Type (0, 0), BuildingBlock: AJUNOK_clean_linker_0, # of connection points: 2
#     Edge 15, Type (0, 0), BuildingBlock: AJUNOK_clean_linker_0, # of connection points: 2
#     Edge 16, Type (0, 0), BuildingBlock: AJUNOK_clean_linker_0, # of connection points: 2
#     Edge 17, Type (0, 0), BuildingBlock: AJUNOK_clean_linker_0, # of connection points: 2
#     Edge 18, Type (0, 0), BuildingBlock: AJUNOK_clean_linker_0, # of connection points: 2
#     Edge 19, Type (0, 0), BuildingBlock: AJUNOK_clean_linker_0, # of connection points: 2
#     Edge 20, Type (0, 0), BuildingBlock: AJUNOK_clean_linker_0, # of connection points: 2
#     Edge 21, Type (0, 0), BuildingBlock: AJUNOK_clean_linker_0, # of connection points: 2
#     Edge 22, Type (0, 0), BuildingBlock: AJUNOK_clean_linker_0, # of connection points: 2
#     Edge 23, Type (0, 0), BuildingBlock: AJUNOK_clean_linker_0, # of connection points: 2
#     Edge 24, Type (0, 0), BuildingBlock: AJUNOK_clean_linker_0, # of connection points: 2
#     Edge 25, Type (0, 0), BuildingBlock: AJUNOK_clean_linker_0, # of connection points: 2
#     Edge 26, Type (0, 0), BuildingBlock: AJUNOK_clean_linker_0, # of connection points: 2
#     Edge 27, Type (0, 0), BuildingBlock: AJUNOK_clean_linker_0, # of connection points: 2
#     Edge 28, Type (0, 0), BuildingBlock: AJUNOK_clean_linker_0, # of connection points: 2
#     Edge 29, Type (0, 0), BuildingBlock: AJUNOK_clean_linker_0, # of connection points: 2
#     Edge 30, Type (0, 0), BuildingBlock: AJUNOK_clean_linker_0, # of connection points: 2
#     Edge 31, Type (0, 0), BuildingBlock: AJUNOK_clean_linker_0, # of connection points: 2
#     Edge 32, Type (0, 0), BuildingBlock: AJUNOK_clean_linker_0, # of connection points: 2
#     Edge 33, Type (0, 0), BuildingBlock: AJUNOK_clean_linker_0, # of connection points: 2
#     Edge 34, Type (0, 0), BuildingBlock: AJUNOK_clean_linker_0, # of connection points: 2
#     Edge 35, Type (0, 0), BuildingBlock: AJUNOK_clean_linker_0, # of connection points: 2
#     Edge 36, Type (0, 0), BuildingBlock: AJUNOK_clean_linker_0, # of connection points: 2
#     Edge 37, Type (0, 0), BuildingBlock: AJUNOK_clean_linker_0, # of connection points: 2
#     Edge 38, Type (0, 0), BuildingBlock: AJUNOK_clean_linker_0, # of connection points: 2
#     Edge 39, Type (0, 0), BuildingBlock: AJUNOK_clean_linker_0, # of connection points: 2
#     Edge 40, Type (0, 0), BuildingBlock: AJUNOK_clean_linker_0, # of connection points: 2
#     Edge 41, Type (0, 0), BuildingBlock: AJUNOK_clean_linker_0, # of connection points: 2
#     Edge 42, Type (0, 0), BuildingBlock: AJUNOK_clean_linker_0, # of connection points: 2
#     Edge 43, Type (0, 0), BuildingBlock: AJUNOK_clean_linker_0, # of connection points: 2
#     Edge 44, Type (0, 0), BuildingBlock: AJUNOK_clean_linker_0, # of connection points: 2
#     Edge 45, Type (0, 0), BuildingBlock: AJUNOK_clean_linker_0, # of connection points: 2
#     Edge 46, Type (0, 0), BuildingBlock: AJUNOK_clean_linker_0, # of connection points: 2
#     Edge 47, Type (0, 0), BuildingBlock: AJUNOK_clean_linker_0, # of connection points: 2
#     Edge 48, Type (0, 0), BuildingBlock: AJUNOK_clean_linker_0, # of connection points: 2
#     Edge 49, Type (0, 0), BuildingBlock: AJUNOK_clean_linker_0, # of connection points: 2
#     Edge 50, Type (0, 0), BuildingBlock: AJUNOK_clean_linker_0, # of connection points: 2
#     Edge 51, Type (0, 0), BuildingBlock: AJUNOK_clean_linker_0, # of connection points: 2
#     Edge 52, Type (0, 0), BuildingBlock: AJUNOK_clean_linker_0, # of connection points: 2
#     Edge 53, Type (0, 0), BuildingBlock: AJUNOK_clean_linker_0, # of connection points: 2
# Relax obj value: 0.194
# Max RMSD: 0.263
# Mean RMSD: 0.263
data_MOF--net-wns--node1-NUHQUE_clean_sbu_2--edge1-AJUNOK_clean_linker_0
_symmetry_space_group_name_H-M    P1
_symmetry_Int_Tables_number       1
_symmetry_cell_setting            triclinic
loop_
_symmetry_equiv_pos_as_xyz
'x, y, z'
_cell_length_a     37.883599
_cell_length_b     37.750347
_cell_length_c     28.555308
_cell_angle_alpha  90.044542
_cell_angle_beta   89.770368
_cell_angle_gamma 119.91205
loop_
_atom_site_label
_atom_site_type_symbol
_atom_site_fract_x
_atom_site_fract_y
_atom_site_fract_z
_atom_type_partial_charge
O0 O 0.46717 0.19572 0.94065 0.0
Tb1 Tb 0.48492 0.21909 0.01162 0.0
Eu2 Eu 0.41271 0.2367 0.10168 0.0
C3 C 0.44874 0.20902 0.91264 0.0
O4 O 0.43677 0.23374 0.9294 0.0
C5 C 0.40403 0.15298 0.05401 0.0
O6 O 0.42355 0.22863 0.17776 0.0
C7 C 0.35934 0.26084 0.09649 0.0
C8 C 0.42839 0.25692 0.20826 0.0
O9 O 0.42697 0.28905 0.19319 0.0
C10 C 0.49516 0.29637 0.05184 0.0
C11 C 0.34687 0.28993 0.11406 0.0
C12 C 0.33314 0.30861 0.08188 0.0
C13 C 0.31671 0.33267 0.09767 0.0
C14 C 0.31478 0.33857 0.14581 0.0
C15 C 0.3277 0.3198 0.17847 0.0
C16 C 0.34405 0.29572 0.16243 0.0
O17 O 0.44346 0.16728 0.05394 0.0
O18 O 0.38823 0.17708 0.05974 0.0
O19 O 0.54469 0.23192 0.98685 0.0
O20 O 0.53358 0.2284 0.05991 0.0
C21 C 0.56022 0.23362 0.02785 0.0
O22 O 0.47733 0.28982 0.0929 0.0
O23 O 0.47515 0.27012 0.01885 0.0
O24 O 0.35645 0.23261 0.12568 0.0
O25 O 0.39104 0.27457 0.06826 0.0
H26 H 0.33395 0.30329 0.04468 0.0
H27 H 0.30314 0.35806 0.15791 0.0
H28 H 0.35309 0.28037 0.18766 0.0
O29 O 0.75654 0.24274 0.90514 0.0
Tb30 Tb 0.76359 0.24866 0.98094 0.0
Eu31 Eu 0.77251 0.2043 0.09432 0.0
C32 C 0.77636 0.23016 0.87823 0.0
O33 O 0.79998 0.21812 0.89765 0.0
C34 C 0.84455 0.26365 0.02315 0.0
O35 O 0.76798 0.2016 0.1735 0.0
C36 C 0.75929 0.13326 0.06513 0.0
C37 C 0.76299 0.229 0.19659 0.0
O38 O 0.76275 0.25863 0.17277 0.0
C39 C 0.69681 0.20607 0.04999 0.0
C40 C 0.73505 0.0901 0.08029 0.0
C41 C 0.72159 0.05826 0.04728 0.0
C42 C 0.70106 0.01726 0.06219 0.0
C43 C 0.69371 1.00828 0.11013 0.0
C44 C 0.70619 0.03962 0.14336 0.0
C45 C 0.72691 0.0805 0.12814 0.0
O46 O 0.81952 0.24704 0.98781 0.0
O47 O 0.8319 0.25789 0.06717 0.0
O48 O 0.753 0.29912 0.96593 0.0
O49 O 0.78292 0.30082 0.02903 0.0
C50 C 0.76936 0.32011 1.00361 0.0
O51 O 0.71886 0.21495 0.08817 0.0
O52 O 0.71057 0.19825 0.01162 0.0
O53 O 0.78954 0.15732 0.09272 0.0
O54 O 0.73918 0.15071 0.04921 0.0
H55 H 0.72756 0.0653 0.01031 0.0
H56 H 0.67756 0.97663 0.12149 0.0
H57 H 0.73763 0.10493 0.15368 0.0
O58 O 0.72587 0.51136 0.92658 0.0
Tb59 Tb 0.72891 0.49995 1.0008 0.0
Eu60 Eu 0.83152 0.57332 0.07437 0.0
C61 C 0.75728 0.53835 0.90201 0.0
O62 O 0.79141 0.56323 0.9235 0.0
C63 C 0.76115 0.58896 0.02752 0.0
O64 O 0.81739 0.57701 0.15071 0.0
C65 C 0.91009 0.62019 0.06287 0.0
C66 C 0.79156 0.5454 0.17599 0.0
O67 O 0.77108 0.50944 0.15591 0.0
C68 C 0.79481 0.48393 0.03522 0.0
C69 C 0.95074 0.6322 0.08258 0.0
C70 C 0.98468 0.64687 0.05221 0.0
C71 C 0.02434 0.66297 0.07023 0.0
C72 C 0.02959 0.66442 0.11898 0.0
C73 C 0.99641 0.65054 0.14977 0.0
C74 C 0.95685 0.63372 0.13141 0.0
O75 O 0.73125 0.55179 0.03599 0.0
O76 O 0.79959 0.59749 0.02665 0.0
O77 O 0.67225 0.44653 0.97923 0.0
O78 O 0.68868 0.45192 0.05078 0.0
C79 C 0.66111 0.42938 0.02009 0.0
O80 O 0.81335 0.50599 0.07225 0.0
O81 O 0.78655 0.50161 1.00115 0.0
O82 O 0.88715 0.63052 0.08712 0.0
O83 O 0.88916 0.58426 0.04278 0.0
H84 H 0.98025 0.6463 0.01468 0.0
H85 H 0.06003 0.67742 0.13329 0.0
H86 H 0.93115 0.62352 0.1551 0.0
O87 O 0.2466 0.49923 0.61279 0.0
Tb88 Tb 0.25663 0.50371 0.53774 0.0
Eu89 Eu 0.25557 0.44848 0.42929 0.0
C90 C 0.25673 0.47796 0.64041 0.0
O91 O 0.27528 0.45945 0.62264 0.0
C92 C 0.1794 0.43686 0.49147 0.0
O93 O 0.26247 0.44979 0.35047 0.0
C94 C 0.26625 0.38914 0.45945 0.0
C95 C 0.26487 0.48032 0.32574 0.0
O96 O 0.26269 0.5097 0.34788 0.0
C97 C 0.33071 0.52271 0.48069 0.0
C98 C 0.28889 0.36873 0.44287 0.0
C99 C 0.30279 0.34976 0.47468 0.0
C100 C 0.32099 0.32739 0.458 0.0
C101 C 0.32537 0.32436 0.40966 0.0
C102 C 0.31217 0.34334 0.37764 0.0
C103 C 0.29453 0.36599 0.39451 0.0
O104 O 0.20265 0.44509 0.52826 0.0
O105 O 0.19456 0.44316 0.44866 0.0
O106 O 0.26938 0.56592 0.5507 0.0
O107 O 0.24107 0.53749 0.48668 0.0
C108 C 0.25464 0.57075 0.51173 0.0
O109 O 0.31054 0.51153 0.44086 0.0
O110 O 0.31242 0.50488 0.51986 0.0
O111 O 0.23559 0.38371 0.43317 0.0
O112 O 0.28774 0.42686 0.4746 0.0
H113 H 0.29865 0.35158 0.512 0.0
H114 H 0.33875 0.30658 0.39692 0.0
H115 H 0.28464 0.38112 0.36991 0.0
O116 O 0.5738 0.75856 0.57684 0.0
Tb117 Tb 0.55173 0.74738 0.50449 0.0
Eu118 Eu 0.61979 0.84386 0.42124 0.0
C119 C 0.55609 0.77128 0.60709 0.0
O120 O 0.52678 0.77718 0.59194 0.0
C121 C 0.63394 0.77268 0.46309 0.0
O122 O 0.61962 0.83274 0.34342 0.0
C123 C 0.66505 0.92244 0.4327 0.0
C124 C 0.58747 0.80512 0.32066 0.0
O125 O 0.5544 0.78045 0.34437 0.0
C126 C 0.52923 0.80773 0.46328 0.0
C127 C 0.67429 0.96213 0.41227 0.0
C128 C 0.68961 0.9966 0.44145 0.0
C129 C 0.70449 0.03578 0.42226 0.0
C130 C 0.703 0.04014 0.37367 0.0
C131 C 0.68686 1.00601 0.34393 0.0
C132 C 0.67263 0.96695 0.36354 0.0
O133 O 0.59538 0.7479 0.4554 0.0
O134 O 0.64805 0.81239 0.46244 0.0
O135 O 0.50937 0.6862 0.53029 0.0
O136 O 0.49537 0.70642 0.46731 0.0
C137 C 0.48321 0.67601 0.49647 0.0
O138 O 0.55197 0.82338 0.42553 0.0
O139 O 0.54484 0.80077 0.50049 0.0
O140 O 0.67569 0.90027 0.40735 0.0
O141 O 0.63019 0.90061 0.4548 0.0
H142 H 0.69152 0.99317 0.47891 0.0
H143 H 0.71511 0.07049 0.35893 0.0
H144 H 0.66107 0.94046 0.34085 0.0
O145 O 0.31282 0.81846 0.58898 0.0
Tb146 Tb 0.30435 0.79518 0.51756 0.0
Eu147 Eu 0.19118 0.76012 0.43558 0.0
C148 C 0.28216 0.81566 0.6138 0.0
O149 O 0.24629 0.80052 0.59396 0.0
C150 C 0.26134 0.83913 0.48421 0.0
O151 O 0.21247 0.77568 0.36094 0.0
C152 C 0.11248 0.72825 0.43923 0.0
C153 C 0.20651 0.74657 0.33138 0.0
O154 O 0.18831 0.70858 0.34627 0.0
C155 C 0.23539 0.71327 0.4792 0.0
C156 C 0.07293 0.69785 0.41896 0.0
C157 C 0.03884 0.67853 0.4487 0.0
C158 C 0.99956 0.65448 0.43022 0.0
C159 C 0.99484 0.64961 0.38142 0.0
C160 C 0.02847 0.66819 0.351 0.0
C161 C 0.06768 0.69192 0.37019 0.0
O162 O 0.28333 0.82381 0.46832 0.0
O163 O 0.22171 0.81814 0.4784 0.0
O164 O 0.33826 0.76286 0.50911 0.0
O165 O 0.36338 0.8231 0.48166 0.0
C166 C 0.36936 0.79224 0.4872 0.0
O167 O 0.21203 0.7134 0.44503 0.0
O168 O 0.24514 0.73973 0.5136 0.0
O169 O 0.13654 0.75956 0.41268 0.0
O170 O 0.13216 0.71545 0.46583 0.0
H171 H 0.04288 0.68306 0.48622 0.0
H172 H 0.96447 0.63258 0.36685 0.0
H173 H 0.094 0.70652 0.34725 0.0
O174 O 0.54537 0.77987 0.09554 0.0
Tb175 Tb 0.53919 0.78156 0.01985 0.0
Eu176 Eu 0.60657 0.7786 0.91161 0.0
C177 C 0.58115 0.80016 0.11595 0.0
O178 O 0.61382 0.82032 0.08975 0.0
C179 C 0.61779 0.8606 0.97616 0.0
O180 O 0.60547 0.77834 0.83239 0.0
C181 C 0.65751 0.7539 0.93408 0.0
C182 C 0.58353 0.79055 0.80928 0.0
O183 O 0.56316 0.8043 0.83323 0.0
C184 C 0.52572 0.71386 0.95776 0.0
C185 C 0.6708 0.72557 0.91591 0.0
C186 C 0.68635 0.70757 0.94674 0.0
C187 C 0.70363 0.68472 0.92909 0.0
C188 C 0.7044 0.6793 0.8806 0.0
C189 C 0.68911 0.69692 0.84943 0.0
C190 C 0.67185 0.71962 0.8673 0.0
O191 O 0.58851 0.84275 1.00772 0.0
O192 O 0.62634 0.84259 0.94123 0.0
O193 O 0.47742 0.76808 0.03706 0.0
O194 O 0.49982 0.78811 0.96836 0.0
C195 C 0.46886 0.77727 0.99633 0.0
O196 O 0.54043 0.72817 0.91609 0.0
O197 O 0.54837 0.73378 0.99333 0.0
O198 O 0.66696 0.78593 0.90778 0.0
O199 O 0.62091 0.73811 0.95261 0.0
H200 H 0.68628 0.71245 0.98415 0.0
H201 H 0.71787 0.66189 0.86696 0.0
H202 H 0.66004 0.7334 0.84331 0.0
O203 O 0.26092 0.76455 0.10884 0.0
Tb204 Tb 0.26253 0.7653 0.03294 0.0
Eu205 Eu 0.26005 0.81237 0.92149 0.0
C206 C 0.24726 0.78432 0.13404 0.0
O207 O 0.23806 0.80974 0.11341 0.0
C208 C 0.18428 0.75394 0.98829 0.0
O209 O 0.26001 0.81811 0.84251 0.0
C210 C 0.27523 0.8822 0.95779 0.0
C211 C 0.29339 0.8308 0.81729 0.0
O212 O 0.32767 0.84036 0.83858 0.0
C213 C 0.33303 0.80653 0.96849 0.0
C214 C 0.29445 0.92506 0.94178 0.0
C215 C 0.30588 0.9571 0.9742 0.0
C216 C 0.32275 0.99776 0.95847 0.0
C217 C 0.3282 1.00593 0.91028 0.0
C218 C 0.31816 0.97451 0.87778 0.0
C219 C 0.30099 0.93405 0.89374 0.0
O220 O 0.20835 0.76986 0.02443 0.0
O221 O 0.19894 0.75886 0.94526 0.0
O222 O 0.27322 0.71497 0.04698 0.0
O223 O 0.2415 0.71291 0.98505 0.0
C224 C 0.25571 0.69378 0.00979 0.0
O225 O 0.31117 0.7975 0.92993 0.0
O226 O 0.31889 0.81445 1.00659 0.0
O227 O 0.24087 0.85667 0.93731 0.0
O228 O 0.29935 0.86691 0.96273 0.0
H229 H 0.30138 0.95041 0.01136 0.0
H230 H 0.34091 0.03716 0.89806 0.0
H231 H 0.29291 0.90951 0.86882 0.0
O232 O 0.28444 0.5104 0.0958 0.0
Tb233 Tb 0.29205 0.51505 0.01992 0.0
Eu234 Eu 0.19176 0.44068 0.94138 0.0
C235 C 0.28824 0.48399 0.12226 0.0
O236 O 0.29726 0.458 0.10266 0.0
C237 C 0.26066 0.4258 0.99211 0.0
O238 O 0.21783 0.447 0.86894 0.0
C239 C 0.11339 0.39122 0.94059 0.0
C240 C 0.20373 0.46024 0.83537 0.0
O241 O 0.17541 0.46939 0.84594 0.0
C242 C 0.22598 0.5287 0.97968 0.0
C243 C 0.07369 0.38292 0.92139 0.0
C244 C 0.04001 0.36813 0.95189 0.0
C245 C 1.0009 0.35569 0.93457 0.0
C246 C 0.99562 0.35749 0.88617 0.0
C247 C 0.02878 0.37295 0.85501 0.0
C248 C 0.06796 0.38565 0.87299 0.0
O249 O 0.28987 0.4634 0.98426 0.0
O250 O 0.22173 0.41543 0.9904 0.0
O251 O 0.35514 0.55947 0.03482 0.0
O252 O 0.3274 0.56901 0.97506 0.0
C253 C 0.36102 0.58328 0.99918 0.0
O254 O 0.20622 0.50663 0.94339 0.0
O255 O 0.23324 0.5101 0.0135 0.0
O256 O 0.13889 0.38794 0.912 0.0
O257 O 0.13148 0.42081 0.97141 0.0
H258 H 0.0441 0.36554 0.98905 0.0
H259 H 0.96506 0.34511 0.87252 0.0
H260 H 0.09374 0.39687 0.8493 0.0
O261 O 0.75792 0.52415 0.40356 0.0
Tb262 Tb 0.75973 0.52405 0.48004 0.0
Eu263 Eu 0.77318 0.57469 0.59434 0.0
C264 C 0.77573 0.55806 0.37866 0.0
O265 O 0.79247 0.59335 0.40046 0.0
C266 C 0.84278 0.58766 0.52019 0.0
O267 O 0.77366 0.57239 0.67373 0.0
C268 C 0.76367 0.63636 0.57171 0.0
C269 C 0.75591 0.53767 0.69712 0.0
O270 O 0.73886 0.50318 0.67368 0.0
C271 C 0.69246 0.50315 0.54817 0.0
C272 C 0.74069 0.65647 0.58768 0.0
C273 C 0.72815 0.67571 0.55478 0.0
C274 C 0.70912 0.69769 0.56968 0.0
C275 C 0.70247 0.7 0.61758 0.0
C276 C 0.71495 0.68134 0.6509 0.0
C277 C 0.73357 0.65907 0.63573 0.0
O278 O 0.81684 0.58053 0.48627 0.0
O279 O 0.83128 0.57976 0.56444 0.0
O280 O 0.74497 0.46103 0.4689 0.0
O281 O 0.77905 0.49195 0.529 0.0
C282 C 0.76264 0.45754 0.50609 0.0
O283 O 0.71632 0.51272 0.58499 0.0
O284 O 0.70678 0.52335 0.50894 0.0
O285 O 0.79218 0.63908 0.59992 0.0
O286 O 0.74306 0.6003 0.55192 0.0
H287 H 0.73392 0.67429 0.5178 0.0
H288 H 0.6869 0.71605 0.62896 0.0
H289 H 0.74352 0.64478 0.66139 0.0
O290 O 0.45379 0.2715 0.43781 0.0
Tb291 Tb 0.47557 0.27785 0.50956 0.0
Eu292 Eu 0.40668 0.17718 0.6074 0.0
C293 C 0.46524 0.25375 0.40623 0.0
O294 O 0.48919 0.23974 0.4193 0.0
C295 C 0.39563 0.24829 0.55995 0.0
O296 O 0.41343 0.19003 0.6852 0.0
C297 C 0.36301 0.09851 0.59448 0.0
C298 C 0.43313 0.17679 0.71118 0.0
O299 O 0.44851 0.15621 0.6909 0.0
C300 C 0.49355 0.21602 0.55492 0.0
C301 C 0.35536 0.05853 0.61269 0.0
C302 C 0.34337 0.02552 0.58157 0.0
C303 C 0.32973 0.98585 0.59883 0.0
C304 C 0.32879 0.97945 0.64714 0.0
C305 C 0.34089 0.0119 0.67861 0.0
C306 C 0.35453 0.05152 0.66124 0.0
O307 O 0.43487 0.27005 0.56676 0.0
O308 O 0.37673 0.20923 0.57103 0.0
O309 O 0.51018 0.34434 0.51144 0.0
O310 O 0.54075 0.31106 0.52564 0.0
C311 C 0.54486 0.3474 0.52256 0.0
O312 O 0.47446 0.20088 0.59501 0.0
O313 O 0.47372 0.22007 0.51973 0.0
O314 O 0.35223 0.11948 0.62186 0.0
O315 O 0.39705 0.1216 0.57144 0.0
H316 H 0.34269 0.03029 0.54422 0.0
H317 H 0.31795 0.94875 0.66032 0.0
H318 H 0.36249 0.07644 0.68555 0.0
O319 O 0.73481 0.24244 0.4241 0.0
Tb320 Tb 0.72511 0.24038 0.49963 0.0
Eu321 Eu 0.8295 0.27102 0.57721 0.0
C322 C 0.73026 0.21136 0.39861 0.0
O323 O 0.71831 0.17594 0.41889 0.0
C324 C 0.76051 0.18641 0.5264 0.0
O325 O 0.81337 0.25151 0.65261 0.0
C326 C 0.90816 0.30307 0.56818 0.0
C327 C 0.78396 0.25314 0.67536 0.0
O328 O 0.76134 0.26489 0.65295 0.0
C329 C 0.78955 0.3208 0.54103 0.0
C330 C 0.94865 0.33224 0.58764 0.0
C331 C 0.98228 0.35096 0.55695 0.0
C332 C 0.0219 0.37516 0.57446 0.0
C333 C 0.02773 0.37986 0.62308 0.0
C334 C 0.99476 0.36131 0.65429 0.0
C335 C 0.95507 0.33787 0.63637 0.0
O336 O 0.73037 0.19301 0.53615 0.0
O337 O 0.79896 0.21623 0.52751 0.0
O338 O 0.66177 0.22084 0.48366 0.0
O339 O 0.68871 0.25844 0.54338 0.0
C340 C 0.65536 0.2389 0.51885 0.0
O341 O 0.8107 0.31966 0.57668 0.0
O342 O 0.78305 0.29541 0.50681 0.0
O343 O 0.88504 0.27035 0.5932 0.0
O344 O 0.88749 0.31746 0.54628 0.0
H345 H 0.97773 0.34605 0.51952 0.0
H346 H 0.05836 0.39739 0.63686 0.0
H347 H 0.92953 0.32262 0.66032 0.0
C348 C 0.32468 0.06192 0.98556 0.0
C349 C 0.33736 0.03287 0.99128 0.0
C350 C 0.34441 0.09974 0.00881 0.0
C351 C 0.37805 0.11015 0.03794 0.0
H352 H 0.30054 0.05611 0.96117 0.0
H353 H 0.33492 0.12189 1.00145 0.0
S354 S 0.42049 0.04317 0.06818 0.0
N355 N 0.38331 0.01575 0.03118 0.0
N356 N 0.42065 0.08674 0.07462 0.0
C357 C 0.38936 0.08034 0.04612 0.0
C358 C 0.36894 0.04171 0.0229 0.0
C359 C 0.91775 0.28231 0.01771 0.0
C360 C 0.88728 0.29267 0.01105 0.0
C361 C 0.9559 0.30469 0.99542 0.0
C362 C 0.9645 0.33794 0.96579 0.0
H363 H 0.91115 0.25524 0.03758 0.0
H364 H 0.97772 0.29426 0.99892 0.0
S365 S 0.89645 0.38034 0.94288 0.0
N366 N 0.86931 0.34032 0.97687 0.0
N367 N 0.94096 0.38286 0.93595 0.0
C368 C 0.93516 0.35022 0.96197 0.0
C369 C 0.8965 0.32739 0.9843 0.0
C370 C 0.71065 0.6128 0.01627 0.0
C371 C 0.74983 0.61838 1.0076 0.0
C372 C 0.69676 0.63637 0.99317 0.0
C373 C 0.7214 0.66619 0.96023 0.0
H374 H 0.68995 0.58908 0.04004 0.0
H375 H 0.6658 0.62971 0.99927 0.0
S376 S 0.82752 0.69585 0.92772 0.0
N377 N 0.81406 0.6585 0.96604 0.0
N378 N 0.78779 0.70247 0.92267 0.0
C379 C 0.76131 0.67365 0.95303 0.0
C380 C 0.7756 0.64991 0.97674 0.0
C381 C 0.10542 0.38377 0.493 0.0
C382 C 0.13638 0.42433 0.50047 0.0
C383 C 0.06679 0.3686 0.514 0.0
C384 C 0.05823 0.39357 0.54316 0.0
H385 H 0.11199 0.36293 0.47385 0.0
H386 H 0.04459 0.33647 0.51021 0.0
S387 S 0.12745 0.5035 0.56772 0.0
N388 N 0.15472 0.49013 0.53462 0.0
N389 N 0.08236 0.46198 0.57343 0.0
C390 C 0.08803 0.43497 0.54757 0.0
C391 C 0.1271 0.45024 0.52643 0.0
C392 C 0.70662 0.75954 0.5428 0.0
C393 C 0.69518 0.71818 0.53618 0.0
C394 C 0.68849 0.77788 0.51704 0.0
C395 C 0.65774 0.75529 0.48426 0.0
H396 H 0.72875 0.77743 0.56938 0.0
H397 H 0.69712 0.80928 0.52468 0.0
S398 S 0.61928 0.64692 0.45126 0.0
N399 N 0.6533 0.65604 0.49237 0.0
N400 N 0.61899 0.69018 0.44399 0.0
C401 C 0.64753 0.71447 0.4757 0.0
C402 C 0.66632 0.696 0.5016 0.0
C403 C 0.25542 0.88377 0.54493 0.0
C404 C 0.27982 0.87663 0.51335 0.0
C405 C 0.27182 0.91949 0.5719 0.0
C406 C 0.31297 0.94989 0.56749 0.0
H407 H 0.22349 0.86138 0.54937 0.0
H408 H 0.25217 0.9234 0.5965 0.0
S409 S 0.38973 0.94678 0.48963 0.0
N410 N 0.34742 0.9033 0.47928 0.0
N411 N 0.3778 0.97087 0.52949 0.0
C412 C 0.33764 0.94353 0.53585 0.0
C413 C 0.32118 0.90677 0.50895 0.0
C414 C 0.62716 0.93021 0.986 0.0
C415 C 0.64456 0.90485 0.98403 0.0
C416 C 0.64757 0.96874 1.00758 0.0
C417 C 0.68574 0.98285 0.02859 0.0
H418 H 0.5964 0.91899 0.97358 0.0
H419 H 0.63207 0.9862 0.01098 0.0
S420 S 0.74507 0.92912 0.03118 0.0
N421 N 0.70309 0.89761 1.00262 0.0
N422 N 0.74107 0.96966 0.04411 0.0
C423 C 0.7044 0.95883 0.02463 0.0
C424 C 0.68391 0.91989 1.00203 0.0
C425 C 0.13077 0.69265 0.02914 0.0
C426 C 0.1408 0.72554 0.99864 0.0
C427 C 0.09179 0.67032 0.04891 0.0
C428 C 0.06138 0.68046 0.03972 0.0
H429 H 0.1539 0.68535 0.0396 0.0
H430 H 0.08609 0.64633 0.07374 0.0
S431 S 0.07181 0.76265 0.95978 0.0
N432 N 0.11683 0.76564 0.95751 0.0
N433 N 0.04354 0.72437 0.99562 0.0
C434 C 0.07034 0.71181 1.00701 0.0
C435 C 0.11012 0.73429 0.98636 0.0
C436 C 0.26124 0.3457 0.07158 0.0
C437 C 0.30067 0.3516 0.06478 0.0
C438 C 0.24737 0.36793 0.04575 0.0
C439 C 0.27272 0.39736 0.01271 0.0
H440 H 0.24144 0.32468 0.09824 0.0
H441 H 0.21747 0.36359 0.05363 0.0
S442 S 0.37721 0.42153 0.97887 0.0
N443 N 0.36368 0.38662 0.02037 0.0
N444 N 0.33792 0.42863 0.9718 0.0
C445 C 0.31144 0.40195 1.0039 0.0
C446 C 0.32534 0.37899 0.0299 0.0
C447 C 0.89339 0.57935 0.47386 0.0
C448 C 0.88531 0.60241 0.50629 0.0
C449 C 0.93143 0.59558 0.45189 0.0
C450 C 0.96261 0.63587 0.46073 0.0
H451 H 0.86953 0.54904 0.46403 0.0
H452 H 0.93586 0.57699 0.42621 0.0
S453 S 0.95661 0.70827 0.54413 0.0
N454 N 0.91155 0.66646 0.54817 0.0
N455 N 0.98295 0.69793 0.50572 0.0
C456 C 0.9554 0.65863 0.49481 0.0
C457 C 0.91668 0.64168 0.51778 0.0
C458 C 0.39064 0.3101 0.5381 0.0
C459 C 0.37384 0.26728 0.53688 0.0
C460 C 0.37183 0.32928 0.5152 0.0
C461 C 0.33572 0.30643 0.4898 0.0
H462 H 0.41892 0.3291 0.55643 0.0
H463 H 0.38657 0.36233 0.51566 0.0
S464 S 0.27864 0.1938 0.47608 0.0
N465 N 0.31796 0.20271 0.50903 0.0
N466 N 0.28333 0.23894 0.4653 0.0
C467 C 0.3181 0.26368 0.48906 0.0
C468 C 0.33691 0.24405 0.51281 0.0
C469 C 0.69804 0.07561 0.48847 0.0
C470 C 0.72179 0.0726 0.45251 0.0
C471 C 0.71163 0.11216 0.51338 0.0
C472 C 0.74971 0.14689 0.50371 0.0
H473 H 0.668 0.05012 0.49602 0.0
H474 H 0.69164 0.11351 0.53969 0.0
S475 S 0.82476 0.15333 0.41523 0.0
N476 N 0.78613 0.10627 0.41027 0.0
N477 N 0.81191 0.1749 0.45721 0.0
C478 C 0.77462 0.14352 0.46937 0.0
C479 C 0.76054 0.10643 0.44366 0.0
C480 C 0.35594 0.33658 0.2599 0.0
C481 C 0.32297 0.32483 0.2293 0.0
C482 C 0.35239 0.34307 0.30766 0.0
C483 C 0.31572 0.33799 0.32657 0.0
H484 H 0.38487 0.34142 0.2467 0.0
H485 H 0.37867 0.35242 0.32992 0.0
S486 S 0.21936 0.30401 0.26189 0.0
N487 N 0.25179 0.30605 0.22173 0.0
N488 N 0.24515 0.31818 0.31136 0.0
C489 C 0.28236 0.32563 0.29643 0.0
C490 C 0.28596 0.31901 0.24789 0.0
C491 C 0.70877 1.00193 0.21446 0.0
C492 C 0.69854 0.02958 0.19409 0.0
C493 C 0.7036 0.99338 0.26263 0.0
C494 C 0.68786 0.01203 0.29227 0.0
H495 H 0.72199 0.98769 0.19322 0.0
H496 H 0.71333 0.97309 0.27696 0.0
S497 S 0.65184 0.08291 0.25529 0.0
N498 N 0.66897 0.07304 0.20659 0.0
N499 N 0.65878 0.05668 0.29692 0.0
C500 C 0.67601 0.03849 0.27197 0.0
C501 C 0.6815 0.04735 0.22301 0.0
C502 C 0.98523 0.62187 0.23135 0.0
C503 C 1.00401 0.65567 0.20107 0.0
C504 C 0.99399 0.62604 0.27949 0.0
C505 C 0.02162 0.66425 0.29929 0.0
H506 H 0.96419 0.59187 0.21759 0.0
H507 H 0.97911 0.59903 0.30139 0.0
S508 S 0.07615 0.76283 0.23514 0.0
N509 N 0.04996 0.72886 0.19432 0.0
N510 N 0.06574 0.73693 0.28468 0.0
C511 C 0.04002 0.69839 0.26931 0.0
C512 C 0.03132 0.69405 0.22032 0.0
C513 C 0.68993 0.65133 0.73079 0.0
C514 C 0.70872 0.68585 0.7015 0.0
C515 C 0.68265 0.65501 0.77829 0.0
C516 C 0.69387 0.69334 0.79823 0.0
H517 H 0.6804 0.62122 0.71678 0.0
H518 H 0.66819 0.62764 0.79965 0.0
S519 S 0.74655 0.79342 0.73723 0.0
N520 N 0.74014 0.75981 0.69633 0.0
N521 N 0.7263 0.76661 0.78543 0.0
C522 C 0.71289 0.72809 0.76937 0.0
C523 C 0.72042 0.72438 0.72111 0.0
C524 C 0.29913 0.97112 0.7471 0.0
C525 C 0.3361 1.00327 0.72959 0.0
C526 C 0.29376 0.9617 0.79493 0.0
C527 C 0.32514 0.9841 0.82706 0.0
H528 H 0.27394 0.95334 0.72368 0.0
H529 H 0.26459 0.93713 0.80692 0.0
S530 S 0.42884 0.06875 0.79857 0.0
N531 N 0.40521 0.05604 0.74766 0.0
N532 N 0.39529 0.03816 0.83772 0.0
C533 C 0.36248 0.01587 0.80993 0.0
C534 C 0.3679 0.02554 0.76119 0.0
C535 C 0.03064 0.35402 0.72405 0.0
C536 C 1.00282 0.36474 0.70554 0.0
C537 C 0.03963 0.35772 0.77207 0.0
C538 C 0.02142 0.37263 0.80355 0.0
H539 H 0.04517 0.34209 0.70124 0.0
H540 H 0.06025 0.34784 0.78472 0.0
S541 S 0.94948 0.40868 0.77179 0.0
N542 N 0.9588 0.39286 0.72174 0.0
N543 N 0.97639 0.40103 0.81175 0.0
C544 C 0.99437 0.38455 0.78512 0.0
C545 C 0.98486 0.38025 0.73628 0.0
C546 C 0.6191 0.22924 0.99651 0.0
C547 C 0.59784 0.23183 0.03553 0.0
C548 C 0.65105 0.22111 1.00178 0.0
C549 C 0.66338 0.2156 0.04636 0.0
H550 H 0.61019 0.23219 0.96136 0.0
H551 H 0.66592 0.21884 0.97036 0.0
S552 S 0.61963 0.22271 0.16013 0.0
N553 N 0.59261 0.23057 0.12049 0.0
N554 N 0.65323 0.21574 0.13053 0.0
C555 C 0.64352 0.21987 0.08589 0.0
C556 C 0.61063 0.2279 0.08044 0.0
C557 C 0.79735 0.38467 0.05135 0.0
C558 C 0.77331 0.36046 0.01394 0.0
C559 C 0.80337 0.4242 0.0591 0.0
C560 C 0.78569 0.44092 0.02953 0.0
H561 H 0.81234 0.37338 0.0742 0.0
H562 H 0.82284 0.4421 0.08764 0.0
S563 S 0.71709 0.38821 0.929 0.0
N564 N 0.72949 0.35493 0.94908 0.0
N565 N 0.74099 0.42868 0.96295 0.0
C566 C 0.7605 0.41627 0.99294 0.0
C567 C 0.75426 0.3762 0.98529 0.0
C568 C 0.60257 0.38566 0.0741 0.0
C569 C 0.62097 0.39265 0.0296 0.0
C570 C 0.56212 0.35408 0.08141 0.0
C571 C 0.53876 0.32814 0.04456 0.0
H572 H 0.61894 0.40566 0.10303 0.0
H573 H 0.54887 0.35053 0.11597 0.0
S574 S 0.5749 0.33142 0.92242 0.0
N575 N 0.61404 0.36935 0.94914 0.0
N576 N 0.5387 0.31034 0.96245 0.0
C577 C 0.55771 0.33392 1.00037 0.0
C578 C 0.59862 0.36605 0.99303 0.0
C579 C 0.26001 0.67344 0.52591 0.0
C580 C 0.24244 0.67783 0.4845 0.0
C581 C 0.26454 0.63921 0.5336 0.0
C582 C 0.25157 0.60759 0.50042 0.0
H583 H 0.26977 0.69627 0.55325 0.0
H584 H 0.27771 0.63723 0.56643 0.0
S585 S 0.20603 0.60479 0.38478 0.0
N586 N 0.21389 0.64802 0.40854 0.0
N587 N 0.22206 0.58357 0.42356 0.0
C588 C 0.2349 0.61183 0.45833 0.0
C589 C 0.23043 0.64691 0.45028 0.0
C590 C 0.42082 0.62729 0.45218 0.0
C591 C 0.44535 0.63622 0.49219 0.0
C592 C 0.38445 0.58984 0.44778 0.0
C593 C 0.37117 0.5602 0.48349 0.0
H594 H 0.4296 0.6495 0.42417 0.0
H595 H 0.36612 0.58463 0.41677 0.0
S596 S 0.42538 0.5683 0.59464 0.0
N597 N 0.45453 0.61206 0.56754 0.0
N598 N 0.3864 0.5419 0.55951 0.0
C599 C 0.39592 0.56859 0.52332 0.0
C600 C 0.43294 0.60656 0.52764 0.0
C601 C 0.47585 0.82583 0.4404 0.0
C602 C 0.48716 0.80131 0.46622 0.0
C603 C 0.43725 0.82222 0.44643 0.0
C604 C 0.40822 0.79313 0.47737 0.0
H605 H 0.49745 0.84898 0.41673 0.0
H606 H 0.4303 0.84271 0.42722 0.0
S607 S 0.42137 0.71953 0.55064 0.0
N608 N 0.46522 0.74611 0.52294 0.0
N609 N 0.39262 0.73806 0.53218 0.0
C610 C 0.41846 0.76727 0.50168 0.0
C611 C 0.45795 0.77172 0.49667 0.0
C612 C 0.3762 0.78846 0.01776 0.0
C613 C 0.36685 0.79742 0.97313 0.0
C614 C 0.40812 0.78036 0.02428 0.0
C615 C 0.43264 0.78147 0.98664 0.0
H616 H 0.35873 0.78768 0.04826 0.0
H617 H 0.41426 0.77427 0.05949 0.0
S618 S 0.42007 0.80126 0.86226 0.0
N619 N 0.38372 0.80492 0.89016 0.0
N620 N 0.4445 0.79056 0.90265 0.0
C621 C 0.42326 0.78944 0.94159 0.0
C622 C 0.39019 0.79716 0.93479 0.0
C623 C 0.22663 0.62919 0.96238 0.0
C624 C 0.25101 0.6532 0.99965 0.0
C625 C 0.21958 0.5893 0.95508 0.0
C626 C 0.23644 0.57202 0.98504 0.0
H627 H 0.21216 0.64091 0.93935 0.0
H628 H 0.19988 0.57155 0.9266 0.0
S629 S 0.30558 0.624 0.08529 0.0
N630 N 0.2945 0.65806 0.06462 0.0
N631 N 0.28064 0.58335 0.05183 0.0
C632 C 0.26194 0.59642 0.02151 0.0
C633 C 0.2694 0.63694 0.02857 0.0
C634 C 0.43193 0.63354 0.0214 0.0
C635 C 0.4012 0.61898 0.98737 0.0
C636 C 0.47156 0.66454 0.01121 0.0
C637 C 0.48253 0.68223 0.96632 0.0
H638 H 0.42553 0.62046 0.05628 0.0
H639 H 0.49405 0.67405 0.03877 0.0
S640 S 0.4127 0.65675 0.86524 0.0
N641 N 0.38364 0.62586 0.9074 0.0
N642 N 0.45866 0.68414 0.88789 0.0
C643 C 0.45188 0.66872 0.93205 0.0
C644 C 0.41108 0.63719 0.94269 0.0
C645 C 0.78986 0.42152 0.55574 0.0
C646 C 0.76594 0.42103 0.51788 0.0
C647 C 0.79617 0.38836 0.56437 0.0
C648 C 0.779 0.35365 0.53517 0.0
H649 H 0.8047 0.44815 0.57817 0.0
H650 H 0.81571 0.39056 0.59309 0.0
S651 S 0.71053 0.33581 0.43402 0.0
N652 N 0.72228 0.38156 0.45341 0.0
N653 N 0.73474 0.32008 0.46858 0.0
C654 C 0.75371 0.35232 0.49832 0.0
C655 C 0.74699 0.38575 0.48993 0.0
C656 C 0.58582 0.42294 0.51381 0.0
C657 C 0.58261 0.38653 0.53097 0.0
C658 C 0.62124 0.46067 0.52056 0.0
C659 C 0.65426 0.46352 0.54589 0.0
H660 H 0.56108 0.42223 0.49414 0.0
H661 H 0.62289 0.48784 0.50563 0.0
S662 S 0.66113 0.37726 0.59835 0.0
N663 N 0.61553 0.35554 0.57415 0.0
N664 N 0.68175 0.42675 0.58812 0.0
C665 C 0.65124 0.42746 0.56404 0.0
C666 C 0.61548 0.38885 0.5562 0.0
C667 C 0.5857 0.22205 0.49396 0.0
C668 C 0.61547 0.23585 0.52919 0.0
C669 C 0.5468 0.2165 0.5026 0.0
C670 C 0.53565 0.22372 0.54714 0.0
H671 H 0.59241 0.21523 0.45928 0.0
H672 H 0.52494 0.20542 0.47432 0.0
S673 S 0.6027 0.26151 0.65122 0.0
N674 N 0.63166 0.25808 0.61007 0.0
N675 N 0.55801 0.24654 0.6267 0.0
C676 C 0.56519 0.23788 0.5827 0.0
C677 C 0.60524 0.24433 0.57361 0.0
C678 C 0.41233 0.19627 0.78626 0.0
C679 C 0.43748 0.1844 0.76262 0.0
C680 C 0.41576 0.2035 0.83477 0.0
C681 C 0.4443 0.19899 0.86178 0.0
H682 H 0.3897 0.19991 0.76722 0.0
H683 H 0.39577 0.21272 0.85123 0.0
S684 S 0.51964 0.17167 0.8164 0.0
N685 N 0.49353 0.17066 0.76978 0.0
N686 N 0.4995 0.18367 0.86071 0.0
C687 C 0.4698 0.18734 0.83857 0.0
C688 C 0.46651 0.18025 0.78912 0.0
C689 C 0.80396 0.23246 0.74961 0.0
C690 C 0.77874 0.24445 0.72661 0.0
C691 C 0.80207 0.2268 0.79827 0.0
C692 C 0.77497 0.23299 0.82629 0.0
H693 H 0.82602 0.22805 0.73005 0.0
H694 H 0.82283 0.21842 0.81405 0.0
S695 S 0.70016 0.26176 0.7833 0.0
N696 N 0.72414 0.26024 0.73561 0.0
N697 N 0.72065 0.24971 0.82697 0.0
C698 C 0.74863 0.24376 0.80368 0.0
C699 C 0.75048 0.24943 0.75396 0.0
C700 C 0.78152 0.57327 0.82397 0.0
C701 C 0.75521 0.53812 0.84995 0.0
C702 C 0.78116 0.57306 0.77469 0.0
C703 C 0.755 0.53744 0.74936 0.0
H704 H 0.80257 0.60126 0.84182 0.0
H705 H 0.80202 0.6009 0.75637 0.0
S706 S 0.68022 0.43706 0.8009 0.0
N707 N 0.7021 0.4667 0.84659 0.0
N708 N 0.70174 0.46607 0.75448 0.0
C709 C 0.72845 0.5021 0.77503 0.0
C710 C 0.72844 0.50249 0.82513 0.0
C711 C 0.21701 0.48555 0.70568 0.0
C712 C 0.24487 0.47349 0.69065 0.0
C713 C 0.20416 0.48115 0.75237 0.0
C714 C 0.21873 0.4647 0.78635 0.0
H715 H 0.20448 0.49817 0.68111 0.0
H716 H 0.18246 0.49076 0.7617 0.0
S717 S 0.29301 0.42924 0.76571 0.0
N718 N 0.28722 0.44485 0.71379 0.0
N719 N 0.26321 0.43675 0.80181 0.0
C720 C 0.24693 0.45279 0.77205 0.0
C721 C 0.25992 0.4571 0.7242 0.0
C722 C 0.55073 0.79736 0.68562 0.0
C723 C 0.5669 0.77798 0.65775 0.0
C724 C 0.5571 0.8019 0.73402 0.0
C725 C 0.57998 0.78727 0.7572 0.0
H726 H 0.53235 0.80886 0.6701 0.0
H727 H 0.54334 0.8166 0.75344 0.0
S728 S 0.63061 0.73549 0.70047 0.0
N729 N 0.60812 0.74511 0.65683 0.0
N730 N 0.62023 0.75358 0.74805 0.0
C731 C 0.59738 0.76871 0.72973 0.0
C732 C 0.59086 0.76412 0.68004 0.0
C733 C 0.32174 0.82831 0.73856 0.0
C734 C 0.29184 0.83111 0.76519 0.0
C735 C 0.31923 0.82498 0.68953 0.0
C736 C 0.28675 0.82437 0.66501 0.0
H737 H 0.34663 0.82728 0.75578 0.0
H738 H 0.34222 0.82138 0.67095 0.0
S739 S 0.2044 0.83788 0.71749 0.0
N740 N 0.23133 0.83787 0.76282 0.0
N741 N 0.22666 0.83175 0.67081 0.0
C742 C 0.25792 0.82949 0.69097 0.0
C743 C 0.26043 0.8328 0.74096 0.0
C744 C 0.55137 0.77275 0.19533 0.0
C745 C 0.58431 0.80127 0.16795 0.0
C746 C 0.55302 0.77377 0.24447 0.0
C747 C 0.58761 0.80352 0.26845 0.0
H748 H 0.52391 0.74936 0.17873 0.0
H749 H 0.52667 0.75119 0.26372 0.0
S750 S 0.68192 0.88604 0.21309 0.0
N751 N 0.65255 0.86053 0.16856 0.0
N752 N 0.65566 0.86265 0.26058 0.0
C753 C 0.62091 0.8322 0.24144 0.0
C754 C 0.61927 0.83102 0.19136 0.0
C755 C 0.233 0.80162 0.21413 0.0
C756 C 0.23911 0.77518 0.18478 0.0
C757 C 0.22332 0.79255 0.26172 0.0
C758 C 0.21869 0.75635 0.2816 0.0
H759 H 0.23555 0.8295 0.20027 0.0
H760 H 0.21856 0.81368 0.2828 0.0
S761 S 0.23218 0.67714 0.22032 0.0
N762 N 0.2406 0.71148 0.17957 0.0
N763 N 0.22196 0.69439 0.26863 0.0
C764 C 0.22506 0.72981 0.25283 0.0
C765 C 0.23543 0.73926 0.20455 0.0
C766 C 0.28172 0.45273 0.20207 0.0
C767 C 0.2822 0.48368 0.17403 0.0
C768 C 0.27591 0.45176 0.25085 0.0
C769 C 0.2705 0.4818 0.27383 0.0
H770 H 0.28572 0.42885 0.18628 0.0
H771 H 0.27582 0.42724 0.27064 0.0
S772 S 0.26932 0.56969 0.21673 0.0
N773 N 0.27673 0.54528 0.17328 0.0
N774 N 0.26597 0.5435 0.2644 0.0
C775 C 0.27093 0.51295 0.24622 0.0
C776 C 0.27672 0.51387 0.19657 0.0
C777 C 0.75605 0.51889 0.30294 0.0
C778 C 0.77894 0.55624 0.3267 0.0
C779 C 0.75984 0.51586 0.25432 0.0
C780 C 0.78687 0.55 0.22724 0.0
H781 H 0.73509 0.49155 0.32204 0.0
H782 H 0.74166 0.48629 0.23801 0.0
S783 S 0.85429 0.65503 0.27242 0.0
N784 N 0.82978 0.62826 0.31918 0.0
N785 N 0.83702 0.62262 0.22825 0.0
C786 C 0.80977 0.58767 0.25052 0.0
C787 C 0.80577 0.59077 0.30003 0.0
C788 C 0.43845 0.27683 0.33963 0.0
C789 C 0.45364 0.25192 0.35612 0.0
C790 C 0.43001 0.27783 0.29196 0.0
C791 C 0.43585 0.25352 0.25877 0.0
H792 H 0.43388 0.29653 0.36351 0.0
H793 H 0.41896 0.29802 0.28107 0.0
S794 S 0.47281 0.18113 0.28401 0.0
N795 N 0.47269 0.20106 0.33546 0.0
N796 N 0.45641 0.20268 0.24618 0.0
C797 C 0.44986 0.22756 0.27494 0.0
C798 C 0.45889 0.22684 0.32345 0.0
C799 C 0.73981 0.18543 0.32086 0.0
C800 C 0.73895 0.21659 0.34723 0.0
C801 C 0.74816 0.18987 0.27246 0.0
C802 C 0.75575 0.22555 0.24826 0.0
H803 H 0.73409 0.15731 0.33765 0.0
H804 H 0.7482 0.16487 0.25386 0.0
S805 S 0.75729 0.31642 0.3009 0.0
N806 N 0.74669 0.28458 0.34516 0.0
N807 N 0.76218 0.29281 0.25481 0.0
C808 C 0.75509 0.25697 0.27426 0.0
C809 C 0.74677 0.25253 0.32349 0.0
loop_
_geom_bond_atom_site_label_1
_geom_bond_atom_site_label_2
_geom_bond_distance
_geom_bond_site_symmetry_2
_ccdc_geom_bond_type
O0 Tb1 2.292 1_556 S
O0 C3 1.255 . S
Tb1 O0 2.292 1_554 S
Tb1 O17 2.326 . S
Tb1 O19 2.500 1_554 S
Tb1 O20 2.473 . S
Tb1 O23 2.324 . S
Eu2 O6 2.292 . S
Eu2 C7 2.852 . S
Eu2 O18 2.324 . S
Eu2 O22 2.326 . S
Eu2 O24 2.500 . S
Eu2 O25 2.473 . S
C3 O0 1.255 . S
C3 O4 1.247 . S
O4 C3 1.247 . S
C5 O17 1.242 . S
C5 O18 1.258 . S
O6 Eu2 2.292 . S
O6 C8 1.255 . S
C7 Eu2 2.852 . S
C7 C11 1.503 . S
C7 O24 1.273 . S
C7 O25 1.257 . S
C8 O6 1.255 . S
C8 O9 1.247 . S
O9 C8 1.247 . S
C10 O22 1.242 . S
C10 O23 1.258 . S
C11 C7 1.503 . S
C11 C12 1.379 . S
C11 C16 1.392 . S
C12 C11 1.379 . S
C12 C13 1.404 . S
C12 H26 0.929 . S
C13 C12 1.404 . S
C13 C14 1.389 . S
C14 C13 1.389 . S
C14 C15 1.399 . S
C14 H27 0.931 . S
C15 C14 1.399 . S
C15 C16 1.390 . S
C16 C11 1.392 . S
C16 C15 1.390 . S
C16 H28 0.929 . S
O17 Tb1 2.326 . S
O17 C5 1.242 . S
O18 Eu2 2.324 . S
O18 C5 1.258 . S
O19 Tb1 2.500 1_556 S
O19 C21 1.273 1_556 S
O20 Tb1 2.473 . S
O20 C21 1.257 . S
C21 O19 1.273 1_554 S
C21 O20 1.257 . S
O22 Eu2 2.326 . S
O22 C10 1.242 . S
O23 Tb1 2.324 . S
O23 C10 1.258 . S
O24 Eu2 2.500 . S
O24 C7 1.273 . S
O25 Eu2 2.473 . S
O25 C7 1.257 . S
H26 C12 0.929 . S
H27 C14 0.931 . S
H28 C16 0.929 . S
O29 Tb30 2.292 1_556 S
O29 C32 1.255 . S
Tb30 O29 2.292 1_554 S
Tb30 O46 2.326 . S
Tb30 O48 2.500 1_554 S
Tb30 O49 2.473 . S
Tb30 O52 2.324 . S
Eu31 O35 2.292 . S
Eu31 C36 2.852 . S
Eu31 O47 2.324 . S
Eu31 O51 2.326 . S
Eu31 O53 2.500 . S
Eu31 O54 2.473 . S
C32 O29 1.255 . S
C32 O33 1.247 . S
O33 C32 1.247 . S
C34 O46 1.242 . S
C34 O47 1.258 . S
O35 Eu31 2.292 . S
O35 C37 1.255 . S
C36 Eu31 2.852 . S
C36 C40 1.503 . S
C36 O53 1.273 . S
C36 O54 1.257 . S
C37 O35 1.255 . S
C37 O38 1.247 . S
O38 C37 1.247 . S
C39 O51 1.242 . S
C39 O52 1.258 . S
C40 C36 1.503 . S
C40 C41 1.379 . S
C40 C45 1.392 . S
C41 C40 1.379 . S
C41 C42 1.404 . S
C41 H55 0.929 . S
C42 C41 1.404 . S
C42 C43 1.389 . S
C43 C42 1.389 . S
C43 C44 1.399 . S
C43 H56 0.931 1_545 S
C44 C43 1.399 . S
C44 C45 1.390 . S
C45 C40 1.392 . S
C45 C44 1.390 . S
C45 H57 0.929 . S
O46 Tb30 2.326 . S
O46 C34 1.242 . S
O47 Eu31 2.324 . S
O47 C34 1.258 . S
O48 Tb30 2.500 1_556 S
O48 C50 1.273 1_556 S
O49 Tb30 2.473 . S
O49 C50 1.257 . S
C50 O48 1.273 1_554 S
C50 O49 1.257 . S
O51 Eu31 2.326 . S
O51 C39 1.242 . S
O52 Tb30 2.324 . S
O52 C39 1.258 . S
O53 Eu31 2.500 . S
O53 C36 1.273 . S
O54 Eu31 2.473 . S
O54 C36 1.257 . S
H55 C41 0.929 . S
H56 C43 0.931 1_565 S
H57 C45 0.929 . S
O58 Tb59 2.292 1_556 S
O58 C61 1.255 . S
Tb59 O58 2.292 1_554 S
Tb59 O75 2.326 . S
Tb59 O77 2.500 1_554 S
Tb59 O78 2.473 . S
Tb59 O81 2.324 . S
Eu60 O64 2.292 . S
Eu60 C65 2.852 . S
Eu60 O76 2.324 . S
Eu60 O80 2.326 . S
Eu60 O82 2.500 . S
Eu60 O83 2.473 . S
C61 O58 1.255 . S
C61 O62 1.247 . S
O62 C61 1.247 . S
C63 O75 1.242 . S
C63 O76 1.258 . S
O64 Eu60 2.292 . S
O64 C66 1.255 . S
C65 Eu60 2.852 . S
C65 C69 1.503 . S
C65 O82 1.273 . S
C65 O83 1.257 . S
C66 O64 1.255 . S
C66 O67 1.247 . S
O67 C66 1.247 . S
C68 O80 1.242 . S
C68 O81 1.258 . S
C69 C65 1.503 . S
C69 C70 1.379 . S
C69 C74 1.392 . S
C70 C69 1.379 . S
C70 C71 1.404 . S
C70 H84 0.929 . S
C71 C70 1.404 . S
C71 C72 1.389 . S
C72 C71 1.389 . S
C72 C73 1.399 . S
C72 H85 0.931 1_655 S
C73 C72 1.399 . S
C73 C74 1.390 . S
C74 C69 1.392 . S
C74 C73 1.390 . S
C74 H86 0.929 . S
O75 Tb59 2.326 . S
O75 C63 1.242 . S
O76 Eu60 2.324 . S
O76 C63 1.258 . S
O77 Tb59 2.500 1_556 S
O77 C79 1.273 1_556 S
O78 Tb59 2.473 . S
O78 C79 1.257 . S
C79 O77 1.273 1_554 S
C79 O78 1.257 . S
O80 Eu60 2.326 . S
O80 C68 1.242 . S
O81 Tb59 2.324 . S
O81 C68 1.258 . S
O82 Eu60 2.500 . S
O82 C65 1.273 . S
O83 Eu60 2.473 . S
O83 C65 1.257 . S
H84 C70 0.929 . S
H85 C72 0.931 1_455 S
H86 C74 0.929 . S
O87 Tb88 2.292 . S
O87 C90 1.255 . S
Tb88 O87 2.292 . S
Tb88 O104 2.326 . S
Tb88 O106 2.500 . S
Tb88 O107 2.473 . S
Tb88 O110 2.324 . S
Eu89 O93 2.292 . S
Eu89 C94 2.852 . S
Eu89 O105 2.324 . S
Eu89 O109 2.326 . S
Eu89 O111 2.500 . S
Eu89 O112 2.473 . S
C90 O87 1.255 . S
C90 O91 1.247 . S
O91 C90 1.247 . S
C92 O104 1.242 . S
C92 O105 1.258 . S
O93 Eu89 2.292 . S
O93 C95 1.255 . S
C94 Eu89 2.852 . S
C94 C98 1.503 . S
C94 O111 1.273 . S
C94 O112 1.257 . S
C95 O93 1.255 . S
C95 O96 1.247 . S
O96 C95 1.247 . S
C97 O109 1.242 . S
C97 O110 1.258 . S
C98 C94 1.503 . S
C98 C99 1.379 . S
C98 C103 1.392 . S
C99 C98 1.379 . S
C99 C100 1.404 . S
C99 H113 0.929 . S
C100 C99 1.404 . S
C100 C101 1.389 . S
C101 C100 1.389 . S
C101 C102 1.399 . S
C101 H114 0.931 . S
C102 C101 1.399 . S
C102 C103 1.390 . S
C103 C98 1.392 . S
C103 C102 1.390 . S
C103 H115 0.929 . S
O104 Tb88 2.326 . S
O104 C92 1.242 . S
O105 Eu89 2.324 . S
O105 C92 1.258 . S
O106 Tb88 2.500 . S
O106 C108 1.273 . S
O107 Tb88 2.473 . S
O107 C108 1.257 . S
C108 O106 1.273 . S
C108 O107 1.257 . S
O109 Eu89 2.326 . S
O109 C97 1.242 . S
O110 Tb88 2.324 . S
O110 C97 1.258 . S
O111 Eu89 2.500 . S
O111 C94 1.273 . S
O112 Eu89 2.473 . S
O112 C94 1.257 . S
H113 C99 0.929 . S
H114 C101 0.931 . S
H115 C103 0.929 . S
O116 Tb117 2.292 . S
O116 C119 1.255 . S
Tb117 O116 2.292 . S
Tb117 O133 2.326 . S
Tb117 O135 2.500 . S
Tb117 O136 2.473 . S
Tb117 O139 2.324 . S
Eu118 O122 2.292 . S
Eu118 C123 2.852 . S
Eu118 O134 2.324 . S
Eu118 O138 2.326 . S
Eu118 O140 2.500 . S
Eu118 O141 2.473 . S
C119 O116 1.255 . S
C119 O120 1.247 . S
O120 C119 1.247 . S
C121 O133 1.242 . S
C121 O134 1.258 . S
O122 Eu118 2.292 . S
O122 C124 1.255 . S
C123 Eu118 2.852 . S
C123 C127 1.503 . S
C123 O140 1.273 . S
C123 O141 1.257 . S
C124 O122 1.255 . S
C124 O125 1.247 . S
O125 C124 1.247 . S
C126 O138 1.242 . S
C126 O139 1.258 . S
C127 C123 1.503 . S
C127 C128 1.379 . S
C127 C132 1.392 . S
C128 C127 1.379 . S
C128 C129 1.404 . S
C128 H142 0.929 . S
C129 C128 1.404 . S
C129 C130 1.389 . S
C130 C129 1.389 . S
C130 C131 1.399 . S
C130 H143 0.931 1_565 S
C131 C130 1.399 . S
C131 C132 1.390 . S
C132 C127 1.392 . S
C132 C131 1.390 . S
C132 H144 0.929 . S
O133 Tb117 2.326 . S
O133 C121 1.242 . S
O134 Eu118 2.324 . S
O134 C121 1.258 . S
O135 Tb117 2.500 . S
O135 C137 1.273 . S
O136 Tb117 2.473 . S
O136 C137 1.257 . S
C137 O135 1.273 . S
C137 O136 1.257 . S
O138 Eu118 2.326 . S
O138 C126 1.242 . S
O139 Tb117 2.324 . S
O139 C126 1.258 . S
O140 Eu118 2.500 . S
O140 C123 1.273 . S
O141 Eu118 2.473 . S
O141 C123 1.257 . S
H142 C128 0.929 . S
H143 C130 0.931 1_545 S
H144 C132 0.929 . S
O145 Tb146 2.292 . S
O145 C148 1.255 . S
Tb146 O145 2.292 . S
Tb146 O162 2.326 . S
Tb146 O164 2.500 . S
Tb146 O165 2.473 . S
Tb146 O168 2.324 . S
Eu147 O151 2.292 . S
Eu147 C152 2.852 . S
Eu147 O163 2.324 . S
Eu147 O167 2.326 . S
Eu147 O169 2.500 . S
Eu147 O170 2.473 . S
C148 O145 1.255 . S
C148 O149 1.247 . S
O149 C148 1.247 . S
C150 O162 1.242 . S
C150 O163 1.258 . S
O151 Eu147 2.292 . S
O151 C153 1.255 . S
C152 Eu147 2.852 . S
C152 C156 1.503 . S
C152 O169 1.273 . S
C152 O170 1.257 . S
C153 O151 1.255 . S
C153 O154 1.247 . S
O154 C153 1.247 . S
C155 O167 1.242 . S
C155 O168 1.258 . S
C156 C152 1.503 . S
C156 C157 1.379 . S
C156 C161 1.392 . S
C157 C156 1.379 . S
C157 C158 1.404 . S
C157 H171 0.929 . S
C158 C157 1.404 . S
C158 C159 1.389 . S
C159 C158 1.389 . S
C159 C160 1.399 . S
C159 H172 0.931 1_455 S
C160 C159 1.399 . S
C160 C161 1.390 . S
C161 C156 1.392 . S
C161 C160 1.390 . S
C161 H173 0.929 . S
O162 Tb146 2.326 . S
O162 C150 1.242 . S
O163 Eu147 2.324 . S
O163 C150 1.258 . S
O164 Tb146 2.500 . S
O164 C166 1.273 . S
O165 Tb146 2.473 . S
O165 C166 1.257 . S
C166 O164 1.273 . S
C166 O165 1.257 . S
O167 Eu147 2.326 . S
O167 C155 1.242 . S
O168 Tb146 2.324 . S
O168 C155 1.258 . S
O169 Eu147 2.500 . S
O169 C152 1.273 . S
O170 Eu147 2.473 . S
O170 C152 1.257 . S
H171 C157 0.929 . S
H172 C159 0.931 1_655 S
H173 C161 0.929 . S
O174 Tb175 2.292 1_554 S
O174 C177 1.255 . S
Tb175 O174 2.292 1_556 S
Tb175 O191 2.326 . S
Tb175 O193 2.500 1_556 S
Tb175 O194 2.473 . S
Tb175 O197 2.324 . S
Eu176 O180 2.292 . S
Eu176 C181 2.852 . S
Eu176 O192 2.324 . S
Eu176 O196 2.326 . S
Eu176 O198 2.500 . S
Eu176 O199 2.473 . S
C177 O174 1.255 . S
C177 O178 1.247 . S
O178 C177 1.247 . S
C179 O191 1.242 . S
C179 O192 1.258 . S
O180 Eu176 2.292 . S
O180 C182 1.255 . S
C181 Eu176 2.852 . S
C181 C185 1.503 . S
C181 O198 1.273 . S
C181 O199 1.257 . S
C182 O180 1.255 . S
C182 O183 1.247 . S
O183 C182 1.247 . S
C184 O196 1.242 . S
C184 O197 1.258 . S
C185 C181 1.503 . S
C185 C186 1.379 . S
C185 C190 1.392 . S
C186 C185 1.379 . S
C186 C187 1.404 . S
C186 H200 0.929 . S
C187 C186 1.404 . S
C187 C188 1.389 . S
C188 C187 1.389 . S
C188 C189 1.399 . S
C188 H201 0.931 . S
C189 C188 1.399 . S
C189 C190 1.390 . S
C190 C185 1.392 . S
C190 C189 1.390 . S
C190 H202 0.929 . S
O191 Tb175 2.326 . S
O191 C179 1.242 . S
O192 Eu176 2.324 . S
O192 C179 1.258 . S
O193 Tb175 2.500 1_554 S
O193 C195 1.273 1_554 S
O194 Tb175 2.473 . S
O194 C195 1.257 . S
C195 O193 1.273 1_556 S
C195 O194 1.257 . S
O196 Eu176 2.326 . S
O196 C184 1.242 . S
O197 Tb175 2.324 . S
O197 C184 1.258 . S
O198 Eu176 2.500 . S
O198 C181 1.273 . S
O199 Eu176 2.473 . S
O199 C181 1.257 . S
H200 C186 0.929 . S
H201 C188 0.931 . S
H202 C190 0.929 . S
O203 Tb204 2.292 1_554 S
O203 C206 1.255 . S
Tb204 O203 2.292 1_556 S
Tb204 O220 2.326 . S
Tb204 O222 2.500 1_556 S
Tb204 O223 2.473 . S
Tb204 O226 2.324 . S
Eu205 O209 2.292 . S
Eu205 C210 2.852 . S
Eu205 O221 2.324 . S
Eu205 O225 2.326 . S
Eu205 O227 2.500 . S
Eu205 O228 2.473 . S
C206 O203 1.255 . S
C206 O207 1.247 . S
O207 C206 1.247 . S
C208 O220 1.242 . S
C208 O221 1.258 . S
O209 Eu205 2.292 . S
O209 C211 1.255 . S
C210 Eu205 2.852 . S
C210 C214 1.503 . S
C210 O227 1.273 . S
C210 O228 1.257 . S
C211 O209 1.255 . S
C211 O212 1.247 . S
O212 C211 1.247 . S
C213 O225 1.242 . S
C213 O226 1.258 . S
C214 C210 1.503 . S
C214 C215 1.379 . S
C214 C219 1.392 . S
C215 C214 1.379 . S
C215 C216 1.404 . S
C215 H229 0.929 . S
C216 C215 1.404 . S
C216 C217 1.389 . S
C217 C216 1.389 . S
C217 C218 1.399 . S
C217 H230 0.931 1_565 S
C218 C217 1.399 . S
C218 C219 1.390 . S
C219 C214 1.392 . S
C219 C218 1.390 . S
C219 H231 0.929 . S
O220 Tb204 2.326 . S
O220 C208 1.242 . S
O221 Eu205 2.324 . S
O221 C208 1.258 . S
O222 Tb204 2.500 1_554 S
O222 C224 1.273 1_554 S
O223 Tb204 2.473 . S
O223 C224 1.257 . S
C224 O222 1.273 1_556 S
C224 O223 1.257 . S
O225 Eu205 2.326 . S
O225 C213 1.242 . S
O226 Tb204 2.324 . S
O226 C213 1.258 . S
O227 Eu205 2.500 . S
O227 C210 1.273 . S
O228 Eu205 2.473 . S
O228 C210 1.257 . S
H229 C215 0.929 . S
H230 C217 0.931 1_545 S
H231 C219 0.929 . S
O232 Tb233 2.292 1_554 S
O232 C235 1.255 . S
Tb233 O232 2.292 1_556 S
Tb233 O249 2.326 . S
Tb233 O251 2.500 1_556 S
Tb233 O252 2.473 . S
Tb233 O255 2.324 . S
Eu234 O238 2.292 . S
Eu234 C239 2.852 . S
Eu234 O250 2.324 . S
Eu234 O254 2.326 . S
Eu234 O256 2.500 . S
Eu234 O257 2.473 . S
C235 O232 1.255 . S
C235 O236 1.247 . S
O236 C235 1.247 . S
C237 O249 1.242 . S
C237 O250 1.258 . S
O238 Eu234 2.292 . S
O238 C240 1.255 . S
C239 Eu234 2.852 . S
C239 C243 1.503 . S
C239 O256 1.273 . S
C239 O257 1.257 . S
C240 O238 1.255 . S
C240 O241 1.247 . S
O241 C240 1.247 . S
C242 O254 1.242 . S
C242 O255 1.258 . S
C243 C239 1.503 . S
C243 C244 1.379 . S
C243 C248 1.392 . S
C244 C243 1.379 . S
C244 C245 1.404 . S
C244 H258 0.929 . S
C245 C244 1.404 . S
C245 C246 1.389 . S
C246 C245 1.389 . S
C246 C247 1.399 . S
C246 H259 0.931 1_455 S
C247 C246 1.399 . S
C247 C248 1.390 . S
C248 C243 1.392 . S
C248 C247 1.390 . S
C248 H260 0.929 . S
O249 Tb233 2.326 . S
O249 C237 1.242 . S
O250 Eu234 2.324 . S
O250 C237 1.258 . S
O251 Tb233 2.500 1_554 S
O251 C253 1.273 1_554 S
O252 Tb233 2.473 . S
O252 C253 1.257 . S
C253 O251 1.273 1_556 S
C253 O252 1.257 . S
O254 Eu234 2.326 . S
O254 C242 1.242 . S
O255 Tb233 2.324 . S
O255 C242 1.258 . S
O256 Eu234 2.500 . S
O256 C239 1.273 . S
O257 Eu234 2.473 . S
O257 C239 1.257 . S
H258 C244 0.929 . S
H259 C246 0.931 1_655 S
H260 C248 0.929 . S
O261 Tb262 2.292 . S
O261 C264 1.255 . S
Tb262 O261 2.292 . S
Tb262 O278 2.326 . S
Tb262 O280 2.500 . S
Tb262 O281 2.473 . S
Tb262 O284 2.324 . S
Eu263 O267 2.292 . S
Eu263 C268 2.852 . S
Eu263 O279 2.324 . S
Eu263 O283 2.326 . S
Eu263 O285 2.500 . S
Eu263 O286 2.473 . S
C264 O261 1.255 . S
C264 O265 1.247 . S
O265 C264 1.247 . S
C266 O278 1.242 . S
C266 O279 1.258 . S
O267 Eu263 2.292 . S
O267 C269 1.255 . S
C268 Eu263 2.852 . S
C268 C272 1.503 . S
C268 O285 1.273 . S
C268 O286 1.257 . S
C269 O267 1.255 . S
C269 O270 1.247 . S
O270 C269 1.247 . S
C271 O283 1.242 . S
C271 O284 1.258 . S
C272 C268 1.503 . S
C272 C273 1.379 . S
C272 C277 1.392 . S
C273 C272 1.379 . S
C273 C274 1.404 . S
C273 H287 0.929 . S
C274 C273 1.404 . S
C274 C275 1.389 . S
C275 C274 1.389 . S
C275 C276 1.399 . S
C275 H288 0.931 . S
C276 C275 1.399 . S
C276 C277 1.390 . S
C277 C272 1.392 . S
C277 C276 1.390 . S
C277 H289 0.929 . S
O278 Tb262 2.326 . S
O278 C266 1.242 . S
O279 Eu263 2.324 . S
O279 C266 1.258 . S
O280 Tb262 2.500 . S
O280 C282 1.273 . S
O281 Tb262 2.473 . S
O281 C282 1.257 . S
C282 O280 1.273 . S
C282 O281 1.257 . S
O283 Eu263 2.326 . S
O283 C271 1.242 . S
O284 Tb262 2.324 . S
O284 C271 1.258 . S
O285 Eu263 2.500 . S
O285 C268 1.273 . S
O286 Eu263 2.473 . S
O286 C268 1.257 . S
H287 C273 0.929 . S
H288 C275 0.931 . S
H289 C277 0.929 . S
O290 Tb291 2.292 . S
O290 C293 1.255 . S
Tb291 O290 2.292 . S
Tb291 O307 2.326 . S
Tb291 O309 2.500 . S
Tb291 O310 2.473 . S
Tb291 O313 2.324 . S
Eu292 O296 2.292 . S
Eu292 C297 2.852 . S
Eu292 O308 2.324 . S
Eu292 O312 2.326 . S
Eu292 O314 2.500 . S
Eu292 O315 2.473 . S
C293 O290 1.255 . S
C293 O294 1.247 . S
O294 C293 1.247 . S
C295 O307 1.242 . S
C295 O308 1.258 . S
O296 Eu292 2.292 . S
O296 C298 1.255 . S
C297 Eu292 2.852 . S
C297 C301 1.503 . S
C297 O314 1.273 . S
C297 O315 1.257 . S
C298 O296 1.255 . S
C298 O299 1.247 . S
O299 C298 1.247 . S
C300 O312 1.242 . S
C300 O313 1.258 . S
C301 C297 1.503 . S
C301 C302 1.379 . S
C301 C306 1.392 . S
C302 C301 1.379 . S
C302 C303 1.404 . S
C302 H316 0.929 . S
C303 C302 1.404 . S
C303 C304 1.389 . S
C304 C303 1.389 . S
C304 C305 1.399 . S
C304 H317 0.931 1_545 S
C305 C304 1.399 . S
C305 C306 1.390 . S
C306 C301 1.392 . S
C306 C305 1.390 . S
C306 H318 0.929 . S
O307 Tb291 2.326 . S
O307 C295 1.242 . S
O308 Eu292 2.324 . S
O308 C295 1.258 . S
O309 Tb291 2.500 . S
O309 C311 1.273 . S
O310 Tb291 2.473 . S
O310 C311 1.257 . S
C311 O309 1.273 . S
C311 O310 1.257 . S
O312 Eu292 2.326 . S
O312 C300 1.242 . S
O313 Tb291 2.324 . S
O313 C300 1.258 . S
O314 Eu292 2.500 . S
O314 C297 1.273 . S
O315 Eu292 2.473 . S
O315 C297 1.257 . S
H316 C302 0.929 . S
H317 C304 0.931 1_565 S
H318 C306 0.929 . S
O319 Tb320 2.292 . S
O319 C322 1.255 . S
Tb320 O319 2.292 . S
Tb320 O336 2.326 . S
Tb320 O338 2.500 . S
Tb320 O339 2.473 . S
Tb320 O342 2.324 . S
Eu321 O325 2.292 . S
Eu321 C326 2.852 . S
Eu321 O337 2.324 . S
Eu321 O341 2.326 . S
Eu321 O343 2.500 . S
Eu321 O344 2.473 . S
C322 O319 1.255 . S
C322 O323 1.247 . S
O323 C322 1.247 . S
C324 O336 1.242 . S
C324 O337 1.258 . S
O325 Eu321 2.292 . S
O325 C327 1.255 . S
C326 Eu321 2.852 . S
C326 C330 1.503 . S
C326 O343 1.273 . S
C326 O344 1.257 . S
C327 O325 1.255 . S
C327 O328 1.247 . S
O328 C327 1.247 . S
C329 O341 1.242 . S
C329 O342 1.258 . S
C330 C326 1.503 . S
C330 C331 1.379 . S
C330 C335 1.392 . S
C331 C330 1.379 . S
C331 C332 1.404 . S
C331 H345 0.929 . S
C332 C331 1.404 . S
C332 C333 1.389 . S
C333 C332 1.389 . S
C333 C334 1.399 . S
C333 H346 0.931 1_655 S
C334 C333 1.399 . S
C334 C335 1.390 . S
C335 C330 1.392 . S
C335 C334 1.390 . S
C335 H347 0.929 . S
O336 Tb320 2.326 . S
O336 C324 1.242 . S
O337 Eu321 2.324 . S
O337 C324 1.258 . S
O338 Tb320 2.500 . S
O338 C340 1.273 . S
O339 Tb320 2.473 . S
O339 C340 1.257 . S
C340 O338 1.273 . S
C340 O339 1.257 . S
O341 Eu321 2.326 . S
O341 C329 1.242 . S
O342 Tb320 2.324 . S
O342 C329 1.258 . S
O343 Eu321 2.500 . S
O343 C326 1.273 . S
O344 Eu321 2.473 . S
O344 C326 1.257 . S
H345 C331 0.929 . S
H346 C333 0.931 1_455 S
H347 C335 0.929 . S
C348 C349 1.369 1_554 S
C348 C350 1.419 . S
C348 H352 0.930 . S
C349 C348 1.369 1_556 S
C349 C358 1.429 . S
C350 C348 1.419 . S
C350 C351 1.363 . S
C350 H353 0.929 . S
C351 C350 1.363 . S
C351 C357 1.428 1_554 S
H352 C348 0.930 . S
H353 C350 0.929 . S
S354 N355 1.613 . S
S354 N356 1.610 . S
N355 S354 1.613 . S
N355 C358 1.350 . S
N356 S354 1.610 . S
N356 C357 1.351 . S
C357 C351 1.428 1_556 S
C357 N356 1.351 . S
C357 C358 1.434 . S
C358 C349 1.429 . S
C358 N355 1.350 . S
C358 C357 1.434 . S
C359 C360 1.369 . S
C359 C361 1.419 1_554 S
C359 H363 0.930 . S
C360 C359 1.369 . S
C360 C369 1.429 1_554 S
C361 C359 1.419 1_556 S
C361 C362 1.363 . S
C361 H364 0.929 . S
C362 C361 1.363 . S
C362 C368 1.428 . S
H363 C359 0.930 . S
H364 C361 0.929 . S
S365 N366 1.613 . S
S365 N367 1.610 . S
N366 S365 1.613 . S
N366 C369 1.350 . S
N367 S365 1.610 . S
N367 C368 1.351 . S
C368 C362 1.428 . S
C368 N367 1.351 . S
C368 C369 1.434 . S
C369 C360 1.429 1_556 S
C369 N366 1.350 . S
C369 C368 1.434 . S
C370 C371 1.369 1_556 S
C370 C372 1.419 . S
C370 H374 0.930 . S
C371 C370 1.369 1_554 S
C371 C380 1.429 . S
C372 C370 1.419 . S
C372 C373 1.363 . S
C372 H375 0.929 . S
C373 C372 1.363 . S
C373 C379 1.428 1_556 S
H374 C370 0.930 . S
H375 C372 0.929 . S
S376 N377 1.613 . S
S376 N378 1.610 . S
N377 S376 1.613 . S
N377 C380 1.350 . S
N378 S376 1.610 . S
N378 C379 1.351 . S
C379 C373 1.428 1_554 S
C379 N378 1.351 . S
C379 C380 1.434 . S
C380 C371 1.429 . S
C380 N377 1.350 . S
C380 C379 1.434 . S
C381 C382 1.369 . S
C381 C383 1.419 . S
C381 H385 0.930 . S
C382 C381 1.369 . S
C382 C391 1.429 . S
C383 C381 1.419 . S
C383 C384 1.363 . S
C383 H386 0.929 . S
C384 C383 1.363 . S
C384 C390 1.428 . S
H385 C381 0.930 . S
H386 C383 0.929 . S
S387 N388 1.613 . S
S387 N389 1.610 . S
N388 S387 1.613 . S
N388 C391 1.350 . S
N389 S387 1.610 . S
N389 C390 1.351 . S
C390 C384 1.428 . S
C390 N389 1.351 . S
C390 C391 1.434 . S
C391 C382 1.429 . S
C391 N388 1.350 . S
C391 C390 1.434 . S
C392 C393 1.369 . S
C392 C394 1.419 . S
C392 H396 0.930 . S
C393 C392 1.369 . S
C393 C402 1.429 . S
C394 C392 1.419 . S
C394 C395 1.363 . S
C394 H397 0.929 . S
C395 C394 1.363 . S
C395 C401 1.428 . S
H396 C392 0.930 . S
H397 C394 0.929 . S
S398 N399 1.613 . S
S398 N400 1.610 . S
N399 S398 1.613 . S
N399 C402 1.350 . S
N400 S398 1.610 . S
N400 C401 1.351 . S
C401 C395 1.428 . S
C401 N400 1.351 . S
C401 C402 1.434 . S
C402 C393 1.429 . S
C402 N399 1.350 . S
C402 C401 1.434 . S
C403 C404 1.369 . S
C403 C405 1.419 . S
C403 H407 0.930 . S
C404 C403 1.369 . S
C404 C413 1.429 . S
C405 C403 1.419 . S
C405 C406 1.363 . S
C405 H408 0.929 . S
C406 C405 1.363 . S
C406 C412 1.428 . S
H407 C403 0.930 . S
H408 C405 0.929 . S
S409 N410 1.613 . S
S409 N411 1.610 . S
N410 S409 1.613 . S
N410 C413 1.350 . S
N411 S409 1.610 . S
N411 C412 1.351 . S
C412 C406 1.428 . S
C412 N411 1.351 . S
C412 C413 1.434 . S
C413 C404 1.429 . S
C413 N410 1.350 . S
C413 C412 1.434 . S
C414 C415 1.369 . S
C414 C416 1.419 1_556 S
C414 H418 0.930 . S
C415 C414 1.369 . S
C415 C424 1.430 . S
C416 C414 1.419 1_554 S
C416 C417 1.363 . S
C416 H419 0.929 . S
C417 C416 1.363 . S
C417 C423 1.428 . S
H418 C414 0.930 . S
H419 C416 0.929 . S
S420 N421 1.613 . S
S420 N422 1.610 . S
N421 S420 1.613 . S
N421 C424 1.350 1_554 S
N422 S420 1.610 . S
N422 C423 1.351 . S
C423 C417 1.428 . S
C423 N422 1.351 . S
C423 C424 1.432 1_554 S
C424 C415 1.430 . S
C424 N421 1.350 1_556 S
C424 C423 1.432 1_556 S
C425 C426 1.369 . S
C425 C427 1.419 . S
C425 H429 0.930 . S
C426 C425 1.369 . S
C426 C435 1.429 1_556 S
C427 C425 1.419 . S
C427 C428 1.363 1_556 S
C427 H430 0.929 . S
C428 C427 1.363 1_554 S
C428 C434 1.428 . S
H429 C425 0.930 . S
H430 C427 0.929 . S
S431 N432 1.613 . S
S431 N433 1.610 . S
N432 S431 1.613 . S
N432 C435 1.350 . S
N433 S431 1.610 . S
N433 C434 1.351 . S
C434 C428 1.428 . S
C434 N433 1.351 . S
C434 C435 1.434 . S
C435 C426 1.429 1_554 S
C435 N432 1.350 . S
C435 C434 1.434 . S
C436 C437 1.369 . S
C436 C438 1.412 1_554 S
C436 H440 0.930 . S
C437 C436 1.369 . S
C437 C446 1.429 . S
C438 C436 1.412 1_556 S
C438 C439 1.369 . S
C438 H441 0.930 . S
C439 C438 1.369 . S
C439 C445 1.428 . S
H440 C436 0.930 . S
H441 C438 0.930 . S
S442 N443 1.613 1_556 S
S442 N444 1.610 . S
N443 S442 1.613 1_554 S
N443 C446 1.350 . S
N444 S442 1.610 . S
N444 C445 1.351 . S
C445 C439 1.428 . S
C445 N444 1.351 . S
C445 C446 1.434 1_556 S
C446 C437 1.429 . S
C446 N443 1.350 . S
C446 C445 1.434 1_554 S
C447 C448 1.369 . S
C447 C449 1.419 . S
C447 H451 0.930 . S
C448 C447 1.369 . S
C448 C457 1.429 . S
C449 C447 1.419 . S
C449 C450 1.363 . S
C449 H452 0.929 . S
C450 C449 1.363 . S
C450 C456 1.428 . S
H451 C447 0.930 . S
H452 C449 0.929 . S
S453 N454 1.613 . S
S453 N455 1.610 . S
N454 S453 1.613 . S
N454 C457 1.350 . S
N455 S453 1.610 . S
N455 C456 1.351 . S
C456 C450 1.428 . S
C456 N455 1.351 . S
C456 C457 1.434 . S
C457 C448 1.429 . S
C457 N454 1.350 . S
C457 C456 1.434 . S
C458 C459 1.369 . S
C458 C460 1.419 . S
C458 H462 0.930 . S
C459 C458 1.369 . S
C459 C468 1.429 . S
C460 C458 1.419 . S
C460 C461 1.363 . S
C460 H463 0.929 . S
C461 C460 1.363 . S
C461 C467 1.428 . S
H462 C458 0.930 . S
H463 C460 0.929 . S
S464 N465 1.613 . S
S464 N466 1.610 . S
N465 S464 1.613 . S
N465 C468 1.350 . S
N466 S464 1.610 . S
N466 C467 1.351 . S
C467 C461 1.428 . S
C467 N466 1.351 . S
C467 C468 1.434 . S
C468 C459 1.429 . S
C468 N465 1.350 . S
C468 C467 1.434 . S
C469 C470 1.369 . S
C469 C471 1.419 . S
C469 H473 0.930 . S
C470 C469 1.369 . S
C470 C479 1.429 . S
C471 C469 1.419 . S
C471 C472 1.363 . S
C471 H474 0.929 . S
C472 C471 1.363 . S
C472 C478 1.428 . S
H473 C469 0.930 . S
H474 C471 0.929 . S
S475 N476 1.613 . S
S475 N477 1.610 . S
N476 S475 1.613 . S
N476 C479 1.350 . S
N477 S475 1.610 . S
N477 C478 1.351 . S
C478 C472 1.428 . S
C478 N477 1.351 . S
C478 C479 1.434 . S
C479 C470 1.429 . S
C479 N476 1.350 . S
C479 C478 1.434 . S
C480 C481 1.369 . S
C480 C482 1.419 . S
C480 H484 0.930 . S
C481 C480 1.369 . S
C481 C490 1.429 . S
C482 C480 1.419 . S
C482 C483 1.363 . S
C482 H485 0.929 . S
C483 C482 1.363 . S
C483 C489 1.428 . S
H484 C480 0.930 . S
H485 C482 0.929 . S
S486 N487 1.613 . S
S486 N488 1.610 . S
N487 S486 1.613 . S
N487 C490 1.350 . S
N488 S486 1.610 . S
N488 C489 1.351 . S
C489 C483 1.428 . S
C489 N488 1.351 . S
C489 C490 1.434 . S
C490 C481 1.429 . S
C490 N487 1.350 . S
C490 C489 1.434 . S
C491 C492 1.369 1_565 S
C491 C493 1.419 . S
C491 H495 0.930 . S
C492 C491 1.369 1_545 S
C492 C501 1.429 . S
C493 C491 1.419 . S
C493 C494 1.363 . S
C493 H496 0.929 . S
C494 C493 1.363 . S
C494 C500 1.428 1_565 S
H495 C491 0.930 . S
H496 C493 0.929 . S
S497 N498 1.613 . S
S497 N499 1.610 . S
N498 S497 1.613 . S
N498 C501 1.350 . S
N499 S497 1.610 . S
N499 C500 1.351 . S
C500 C494 1.428 1_545 S
C500 N499 1.351 . S
C500 C501 1.434 . S
C501 C492 1.429 . S
C501 N498 1.350 . S
C501 C500 1.434 . S
C502 C503 1.369 . S
C502 C504 1.419 . S
C502 H506 0.930 . S
C503 C502 1.369 . S
C503 C512 1.429 1_655 S
C504 C502 1.419 . S
C504 C505 1.363 1_655 S
C504 H507 0.929 . S
C505 C504 1.363 1_455 S
C505 C511 1.428 . S
H506 C502 0.930 . S
H507 C504 0.929 . S
S508 N509 1.613 . S
S508 N510 1.610 . S
N509 S508 1.613 . S
N509 C512 1.350 . S
N510 S508 1.610 . S
N510 C511 1.351 . S
C511 C505 1.428 . S
C511 N510 1.351 . S
C511 C512 1.434 . S
C512 C503 1.429 1_455 S
C512 N509 1.350 . S
C512 C511 1.434 . S
C513 C514 1.369 . S
C513 C515 1.419 . S
C513 H517 0.930 . S
C514 C513 1.369 . S
C514 C523 1.429 . S
C515 C513 1.419 . S
C515 C516 1.363 . S
C515 H518 0.929 . S
C516 C515 1.363 . S
C516 C522 1.428 . S
H517 C513 0.930 . S
H518 C515 0.929 . S
S519 N520 1.613 . S
S519 N521 1.610 . S
N520 S519 1.613 . S
N520 C523 1.350 . S
N521 S519 1.610 . S
N521 C522 1.351 . S
C522 C516 1.428 . S
C522 N521 1.351 . S
C522 C523 1.434 . S
C523 C514 1.429 . S
C523 N520 1.350 . S
C523 C522 1.434 . S
C524 C525 1.369 1_565 S
C524 C526 1.419 . S
C524 H528 0.930 . S
C525 C524 1.369 1_545 S
C525 C534 1.429 . S
C526 C524 1.419 . S
C526 C527 1.363 . S
C526 H529 0.929 . S
C527 C526 1.363 . S
C527 C533 1.428 1_565 S
H528 C524 0.930 . S
H529 C526 0.929 . S
S530 N531 1.613 . S
S530 N532 1.610 . S
N531 S530 1.613 . S
N531 C534 1.350 . S
N532 S530 1.610 . S
N532 C533 1.351 . S
C533 C527 1.428 1_545 S
C533 N532 1.351 . S
C533 C534 1.434 . S
C534 C525 1.429 . S
C534 N531 1.350 . S
C534 C533 1.434 . S
C535 C536 1.369 1_455 S
C535 C537 1.419 . S
C535 H539 0.930 . S
C536 C535 1.369 1_655 S
C536 C545 1.429 . S
C537 C535 1.419 . S
C537 C538 1.363 . S
C537 H540 0.929 . S
C538 C537 1.363 . S
C538 C544 1.428 1_455 S
H539 C535 0.930 . S
H540 C537 0.929 . S
S541 N542 1.613 . S
S541 N543 1.610 . S
N542 S541 1.613 . S
N542 C545 1.350 . S
N543 S541 1.610 . S
N543 C544 1.351 . S
C544 C538 1.428 1_655 S
C544 N543 1.351 . S
C544 C545 1.434 . S
C545 C536 1.429 . S
C545 N542 1.350 . S
C545 C544 1.434 . S
C546 C547 1.369 . S
C546 C548 1.419 . S
C546 H550 0.930 . S
C547 C546 1.369 . S
C547 C556 1.429 . S
C548 C546 1.419 . S
C548 C549 1.363 . S
C548 H551 0.929 . S
C549 C548 1.363 . S
C549 C555 1.428 . S
H550 C546 0.930 . S
H551 C548 0.929 . S
S552 N553 1.613 . S
S552 N554 1.610 . S
N553 S552 1.613 . S
N553 C556 1.350 . S
N554 S552 1.610 . S
N554 C555 1.351 . S
C555 C549 1.428 . S
C555 N554 1.351 . S
C555 C556 1.434 . S
C556 C547 1.429 . S
C556 N553 1.350 . S
C556 C555 1.434 . S
C557 C558 1.369 . S
C557 C559 1.419 . S
C557 H561 0.930 . S
C558 C557 1.369 . S
C558 C567 1.429 . S
C559 C557 1.419 . S
C559 C560 1.363 . S
C559 H562 0.929 . S
C560 C559 1.363 . S
C560 C566 1.428 . S
H561 C557 0.930 . S
H562 C559 0.929 . S
S563 N564 1.613 . S
S563 N565 1.610 1_556 S
N564 S563 1.613 . S
N564 C567 1.350 1_556 S
N565 S563 1.610 1_554 S
N565 C566 1.351 . S
C566 C560 1.428 . S
C566 N565 1.351 . S
C566 C567 1.434 . S
C567 C558 1.429 . S
C567 N564 1.350 1_554 S
C567 C566 1.434 . S
C568 C569 1.369 . S
C568 C570 1.419 . S
C568 H572 0.930 . S
C569 C568 1.369 . S
C569 C578 1.429 . S
C570 C568 1.419 . S
C570 C571 1.363 . S
C570 H573 0.929 . S
C571 C570 1.363 . S
C571 C577 1.428 . S
H572 C568 0.930 . S
H573 C570 0.929 . S
S574 N575 1.613 . S
S574 N576 1.610 1_556 S
N575 S574 1.613 . S
N575 C578 1.350 1_556 S
N576 S574 1.610 1_554 S
N576 C577 1.351 . S
C577 C571 1.428 . S
C577 N576 1.351 . S
C577 C578 1.434 . S
C578 C569 1.429 . S
C578 N575 1.350 1_554 S
C578 C577 1.434 . S
C579 C580 1.369 . S
C579 C581 1.419 . S
C579 H583 0.930 . S
C580 C579 1.369 . S
C580 C589 1.429 . S
C581 C579 1.419 . S
C581 C582 1.363 . S
C581 H584 0.929 . S
C582 C581 1.363 . S
C582 C588 1.428 . S
H583 C579 0.930 . S
H584 C581 0.929 . S
S585 N586 1.613 . S
S585 N587 1.610 . S
N586 S585 1.613 . S
N586 C589 1.350 . S
N587 S585 1.610 . S
N587 C588 1.351 . S
C588 C582 1.428 . S
C588 N587 1.351 . S
C588 C589 1.434 . S
C589 C580 1.429 . S
C589 N586 1.350 . S
C589 C588 1.434 . S
C590 C591 1.369 . S
C590 C592 1.419 . S
C590 H594 0.930 . S
C591 C590 1.369 . S
C591 C600 1.429 . S
C592 C590 1.419 . S
C592 C593 1.363 . S
C592 H595 0.929 . S
C593 C592 1.363 . S
C593 C599 1.428 . S
H594 C590 0.930 . S
H595 C592 0.929 . S
S596 N597 1.613 . S
S596 N598 1.610 . S
N597 S596 1.613 . S
N597 C600 1.350 . S
N598 S596 1.610 . S
N598 C599 1.351 . S
C599 C593 1.428 . S
C599 N598 1.351 . S
C599 C600 1.434 . S
C600 C591 1.429 . S
C600 N597 1.350 . S
C600 C599 1.434 . S
C601 C602 1.369 . S
C601 C603 1.419 . S
C601 H605 0.930 . S
C602 C601 1.369 . S
C602 C611 1.429 . S
C603 C601 1.419 . S
C603 C604 1.363 . S
C603 H606 0.929 . S
C604 C603 1.363 . S
C604 C610 1.428 . S
H605 C601 0.930 . S
H606 C603 0.929 . S
S607 N608 1.613 . S
S607 N609 1.610 . S
N608 S607 1.613 . S
N608 C611 1.350 . S
N609 S607 1.610 . S
N609 C610 1.351 . S
C610 C604 1.428 . S
C610 N609 1.351 . S
C610 C611 1.434 . S
C611 C602 1.429 . S
C611 N608 1.350 . S
C611 C610 1.434 . S
C612 C613 1.369 . S
C612 C614 1.419 . S
C612 H616 0.930 . S
C613 C612 1.369 . S
C613 C622 1.429 . S
C614 C612 1.419 . S
C614 C615 1.363 . S
C614 H617 0.929 1_556 S
C615 C614 1.363 . S
C615 C621 1.428 . S
H616 C612 0.930 . S
H617 C614 0.929 1_554 S
S618 N619 1.613 . S
S618 N620 1.610 . S
N619 S618 1.613 . S
N619 C622 1.350 . S
N620 S618 1.610 . S
N620 C621 1.351 . S
C621 C615 1.428 . S
C621 N620 1.351 . S
C621 C622 1.434 . S
C622 C613 1.429 . S
C622 N619 1.350 . S
C622 C621 1.434 . S
C623 C624 1.369 . S
C623 C625 1.419 . S
C623 H627 0.930 . S
C624 C623 1.369 . S
C624 C633 1.429 . S
C625 C623 1.419 . S
C625 C626 1.363 . S
C625 H628 0.929 . S
C626 C625 1.363 . S
C626 C632 1.428 . S
H627 C623 0.930 . S
H628 C625 0.929 . S
S629 N630 1.613 . S
S629 N631 1.610 . S
N630 S629 1.613 . S
N630 C633 1.350 . S
N631 S629 1.610 . S
N631 C632 1.351 . S
C632 C626 1.428 . S
C632 N631 1.351 . S
C632 C633 1.434 . S
C633 C624 1.429 . S
C633 N630 1.350 . S
C633 C632 1.434 . S
C634 C635 1.369 . S
C634 C636 1.419 . S
C634 H638 0.930 . S
C635 C634 1.369 . S
C635 C644 1.429 . S
C636 C634 1.419 . S
C636 C637 1.363 . S
C636 H639 0.929 . S
C637 C636 1.363 . S
C637 C643 1.428 . S
H638 C634 0.930 . S
H639 C636 0.929 . S
S640 N641 1.613 . S
S640 N642 1.610 . S
N641 S640 1.613 . S
N641 C644 1.350 . S
N642 S640 1.610 . S
N642 C643 1.351 . S
C643 C637 1.428 . S
C643 N642 1.351 . S
C643 C644 1.434 . S
C644 C635 1.429 . S
C644 N641 1.350 . S
C644 C643 1.434 . S
C645 C646 1.369 . S
C645 C647 1.419 . S
C645 H649 0.930 . S
C646 C645 1.369 . S
C646 C655 1.429 . S
C647 C645 1.419 . S
C647 C648 1.363 . S
C647 H650 0.929 . S
C648 C647 1.363 . S
C648 C654 1.428 . S
H649 C645 0.930 . S
H650 C647 0.929 . S
S651 N652 1.613 . S
S651 N653 1.610 . S
N652 S651 1.613 . S
N652 C655 1.350 . S
N653 S651 1.610 . S
N653 C654 1.351 . S
C654 C648 1.428 . S
C654 N653 1.351 . S
C654 C655 1.434 . S
C655 C646 1.429 . S
C655 N652 1.350 . S
C655 C654 1.434 . S
C656 C657 1.369 . S
C656 C658 1.419 . S
C656 H660 0.930 . S
C657 C656 1.369 . S
C657 C666 1.429 . S
C658 C656 1.419 . S
C658 C659 1.363 . S
C658 H661 0.929 . S
C659 C658 1.363 . S
C659 C665 1.428 . S
H660 C656 0.930 . S
H661 C658 0.929 . S
S662 N663 1.613 . S
S662 N664 1.610 . S
N663 S662 1.613 . S
N663 C666 1.350 . S
N664 S662 1.610 . S
N664 C665 1.351 . S
C665 C659 1.428 . S
C665 N664 1.351 . S
C665 C666 1.434 . S
C666 C657 1.429 . S
C666 N663 1.350 . S
C666 C665 1.434 . S
C667 C668 1.369 . S
C667 C669 1.419 . S
C667 H671 0.930 . S
C668 C667 1.369 . S
C668 C677 1.429 . S
C669 C667 1.419 . S
C669 C670 1.363 . S
C669 H672 0.929 . S
C670 C669 1.363 . S
C670 C676 1.428 . S
H671 C667 0.930 . S
H672 C669 0.929 . S
S673 N674 1.613 . S
S673 N675 1.610 . S
N674 S673 1.613 . S
N674 C677 1.350 . S
N675 S673 1.610 . S
N675 C676 1.351 . S
C676 C670 1.428 . S
C676 N675 1.351 . S
C676 C677 1.434 . S
C677 C668 1.429 . S
C677 N674 1.350 . S
C677 C676 1.434 . S
C678 C679 1.369 . S
C678 C680 1.419 . S
C678 H682 0.930 . S
C679 C678 1.369 . S
C679 C688 1.429 . S
C680 C678 1.419 . S
C680 C681 1.363 . S
C680 H683 0.929 . S
C681 C680 1.363 . S
C681 C687 1.428 . S
H682 C678 0.930 . S
H683 C680 0.929 . S
S684 N685 1.613 . S
S684 N686 1.610 . S
N685 S684 1.613 . S
N685 C688 1.350 . S
N686 S684 1.610 . S
N686 C687 1.351 . S
C687 C681 1.428 . S
C687 N686 1.351 . S
C687 C688 1.434 . S
C688 C679 1.429 . S
C688 N685 1.350 . S
C688 C687 1.434 . S
C689 C690 1.369 . S
C689 C691 1.419 . S
C689 H693 0.930 . S
C690 C689 1.369 . S
C690 C699 1.429 . S
C691 C689 1.419 . S
C691 C692 1.363 . S
C691 H694 0.929 . S
C692 C691 1.363 . S
C692 C698 1.428 . S
H693 C689 0.930 . S
H694 C691 0.929 . S
S695 N696 1.613 . S
S695 N697 1.610 . S
N696 S695 1.613 . S
N696 C699 1.350 . S
N697 S695 1.610 . S
N697 C698 1.351 . S
C698 C692 1.428 . S
C698 N697 1.351 . S
C698 C699 1.434 . S
C699 C690 1.429 . S
C699 N696 1.350 . S
C699 C698 1.434 . S
C700 C701 1.369 . S
C700 C702 1.419 . S
C700 H704 0.930 . S
C701 C700 1.369 . S
C701 C710 1.429 . S
C702 C700 1.419 . S
C702 C703 1.363 . S
C702 H705 0.929 . S
C703 C702 1.363 . S
C703 C709 1.428 . S
H704 C700 0.930 . S
H705 C702 0.929 . S
S706 N707 1.613 . S
S706 N708 1.610 . S
N707 S706 1.613 . S
N707 C710 1.350 . S
N708 S706 1.610 . S
N708 C709 1.351 . S
C709 C703 1.428 . S
C709 N708 1.351 . S
C709 C710 1.434 . S
C710 C701 1.429 . S
C710 N707 1.350 . S
C710 C709 1.434 . S
C711 C712 1.369 . S
C711 C713 1.419 . S
C711 H715 0.930 . S
C712 C711 1.369 . S
C712 C721 1.429 . S
C713 C711 1.419 . S
C713 C714 1.363 . S
C713 H716 0.929 . S
C714 C713 1.363 . S
C714 C720 1.428 . S
H715 C711 0.930 . S
H716 C713 0.929 . S
S717 N718 1.613 . S
S717 N719 1.610 . S
N718 S717 1.613 . S
N718 C721 1.350 . S
N719 S717 1.610 . S
N719 C720 1.351 . S
C720 C714 1.428 . S
C720 N719 1.351 . S
C720 C721 1.434 . S
C721 C712 1.429 . S
C721 N718 1.350 . S
C721 C720 1.434 . S
C722 C723 1.369 . S
C722 C724 1.419 . S
C722 H726 0.930 . S
C723 C722 1.369 . S
C723 C732 1.429 . S
C724 C722 1.419 . S
C724 C725 1.363 . S
C724 H727 0.929 . S
C725 C724 1.363 . S
C725 C731 1.428 . S
H726 C722 0.930 . S
H727 C724 0.929 . S
S728 N729 1.613 . S
S728 N730 1.610 . S
N729 S728 1.613 . S
N729 C732 1.350 . S
N730 S728 1.610 . S
N730 C731 1.351 . S
C731 C725 1.428 . S
C731 N730 1.351 . S
C731 C732 1.434 . S
C732 C723 1.429 . S
C732 N729 1.350 . S
C732 C731 1.434 . S
C733 C734 1.369 . S
C733 C735 1.419 . S
C733 H737 0.930 . S
C734 C733 1.369 . S
C734 C743 1.429 . S
C735 C733 1.419 . S
C735 C736 1.363 . S
C735 H738 0.929 . S
C736 C735 1.363 . S
C736 C742 1.428 . S
H737 C733 0.930 . S
H738 C735 0.929 . S
S739 N740 1.613 . S
S739 N741 1.610 . S
N740 S739 1.613 . S
N740 C743 1.350 . S
N741 S739 1.610 . S
N741 C742 1.351 . S
C742 C736 1.428 . S
C742 N741 1.351 . S
C742 C743 1.434 . S
C743 C734 1.429 . S
C743 N740 1.350 . S
C743 C742 1.434 . S
C744 C745 1.369 . S
C744 C746 1.419 . S
C744 H748 0.930 . S
C745 C744 1.369 . S
C745 C754 1.429 . S
C746 C744 1.419 . S
C746 C747 1.363 . S
C746 H749 0.929 . S
C747 C746 1.363 . S
C747 C753 1.428 . S
H748 C744 0.930 . S
H749 C746 0.929 . S
S750 N751 1.613 . S
S750 N752 1.610 . S
N751 S750 1.613 . S
N751 C754 1.350 . S
N752 S750 1.610 . S
N752 C753 1.351 . S
C753 C747 1.428 . S
C753 N752 1.351 . S
C753 C754 1.434 . S
C754 C745 1.429 . S
C754 N751 1.350 . S
C754 C753 1.434 . S
C755 C756 1.369 . S
C755 C757 1.419 . S
C755 H759 0.930 . S
C756 C755 1.369 . S
C756 C765 1.429 . S
C757 C755 1.419 . S
C757 C758 1.363 . S
C757 H760 0.929 . S
C758 C757 1.363 . S
C758 C764 1.428 . S
H759 C755 0.930 . S
H760 C757 0.929 . S
S761 N762 1.613 . S
S761 N763 1.610 . S
N762 S761 1.613 . S
N762 C765 1.350 . S
N763 S761 1.610 . S
N763 C764 1.351 . S
C764 C758 1.428 . S
C764 N763 1.351 . S
C764 C765 1.434 . S
C765 C756 1.429 . S
C765 N762 1.350 . S
C765 C764 1.434 . S
C766 C767 1.369 . S
C766 C768 1.419 . S
C766 H770 0.930 . S
C767 C766 1.369 . S
C767 C776 1.429 . S
C768 C766 1.419 . S
C768 C769 1.363 . S
C768 H771 0.929 . S
C769 C768 1.363 . S
C769 C775 1.428 . S
H770 C766 0.930 . S
H771 C768 0.929 . S
S772 N773 1.613 . S
S772 N774 1.610 . S
N773 S772 1.613 . S
N773 C776 1.350 . S
N774 S772 1.610 . S
N774 C775 1.351 . S
C775 C769 1.428 . S
C775 N774 1.351 . S
C775 C776 1.434 . S
C776 C767 1.429 . S
C776 N773 1.350 . S
C776 C775 1.434 . S
C777 C778 1.369 . S
C777 C779 1.419 . S
C777 H781 0.930 . S
C778 C777 1.369 . S
C778 C787 1.429 . S
C779 C777 1.419 . S
C779 C780 1.363 . S
C779 H782 0.929 . S
C780 C779 1.363 . S
C780 C786 1.428 . S
H781 C777 0.930 . S
H782 C779 0.929 . S
S783 N784 1.613 . S
S783 N785 1.610 . S
N784 S783 1.613 . S
N784 C787 1.350 . S
N785 S783 1.610 . S
N785 C786 1.351 . S
C786 C780 1.428 . S
C786 N785 1.351 . S
C786 C787 1.434 . S
C787 C778 1.429 . S
C787 N784 1.350 . S
C787 C786 1.434 . S
C788 C789 1.369 . S
C788 C790 1.419 . S
C788 H792 0.930 . S
C789 C788 1.369 . S
C789 C798 1.429 . S
C790 C788 1.419 . S
C790 C791 1.363 . S
C790 H793 0.929 . S
C791 C790 1.363 . S
C791 C797 1.428 . S
H792 C788 0.930 . S
H793 C790 0.929 . S
S794 N795 1.613 . S
S794 N796 1.610 . S
N795 S794 1.613 . S
N795 C798 1.350 . S
N796 S794 1.610 . S
N796 C797 1.351 . S
C797 C791 1.428 . S
C797 N796 1.351 . S
C797 C798 1.434 . S
C798 C789 1.429 . S
C798 N795 1.350 . S
C798 C797 1.434 . S
C799 C800 1.369 . S
C799 C801 1.419 . S
C799 H803 0.930 . S
C800 C799 1.369 . S
C800 C809 1.429 . S
C801 C799 1.419 . S
C801 C802 1.363 . S
C801 H804 0.929 . S
C802 C801 1.363 . S
C802 C808 1.428 . S
H803 C799 0.930 . S
H804 C801 0.929 . S
S805 N806 1.613 . S
S805 N807 1.610 . S
N806 S805 1.613 . S
N806 C809 1.350 . S
N807 S805 1.610 . S
N807 C808 1.351 . S
C808 C802 1.428 . S
C808 N807 1.351 . S
C808 C809 1.434 . S
C809 C800 1.429 . S
C809 N806 1.350 . S
C809 C808 1.434 . S
C349 C216 2.289 1_545 S
C351 C5 2.484 . S
C360 C34 2.484 . S
C362 C245 2.290 1_655 S
C371 C63 2.482 . S
C373 C187 2.295 . S
C382 C92 2.483 . S
C384 C332 2.291 1_455 S
C393 C274 2.292 . S
C395 C121 2.483 . S
C404 C150 2.481 . S
C406 C303 2.295 1_565 S
C415 C179 2.484 . S
C417 C42 2.290 1_565 S
C426 C208 2.485 . S
C428 C71 2.288 1_455 S
C437 C13 2.290 . S
C439 C237 2.483 . S
C448 C266 2.484 . S
C450 C158 2.290 1_655 S
C459 C295 2.483 . S
C461 C100 2.293 . S
C470 C129 2.296 1_545 S
C472 C324 2.483 . S
C481 C15 1.799 . S
C483 C102 1.794 . S
C492 C44 1.793 . S
C494 C131 1.800 . S
C503 C73 1.799 . S
C505 C160 1.794 . S
C514 C276 1.799 . S
C516 C189 1.794 . S
C525 C305 1.796 . S
C527 C218 1.801 . S
C536 C334 1.797 . S
C538 C247 1.801 . S
C547 C21 1.898 . S
C549 C39 1.693 . S
C558 C50 1.898 . S
C560 C68 1.682 . S
C569 C79 1.900 . S
C571 C10 1.683 . S
C580 C155 1.693 . S
C582 C108 1.896 . S
C591 C137 1.896 . S
C593 C97 1.683 . S
C602 C126 1.683 . S
C604 C166 1.901 . S
C613 C213 1.692 . S
C615 C195 1.896 . S
C624 C224 1.894 . S
C626 C242 1.684 . S
C635 C253 1.894 . S
C637 C184 1.686 . S
C646 C282 1.895 . S
C648 C329 1.683 . S
C657 C311 1.898 . S
C659 C271 1.693 . S
C668 C340 1.894 . S
C670 C300 1.688 . S
C679 C298 1.341 . S
C681 C3 1.360 . S
C690 C327 1.341 . S
C692 C32 1.359 . S
C701 C61 1.355 . S
C703 C269 1.334 . S
C712 C90 1.363 . S
C714 C240 1.330 . S
C723 C119 1.362 . S
C725 C182 1.339 . S
C734 C211 1.328 . S
C736 C148 1.362 . S
C745 C177 1.362 . S
C747 C124 1.330 . S
C756 C206 1.359 . S
C758 C153 1.340 . S
C767 C235 1.354 . S
C769 C95 1.335 . S
C778 C264 1.365 . S
C780 C66 1.331 . S
C789 C293 1.365 . S
C791 C8 1.331 . S
C800 C322 1.354 . S
C802 C37 1.337 . S
