# Generated by pormake.
# Topology mdf, (4)-cn, num edge types: 1
# Building blocks:
#     Node 0, Type 0, BuildingBlock: NAHDIM_clean_sbu_0, # of connection points: 4
#     Node 1, Type 0, BuildingBlock: NAHDIM_clean_sbu_0, # of connection points: 4
#     Node 2, Type 0, BuildingBlock: NAHDIM_clean_sbu_0, # of connection points: 4
#     Node 3, Type 0, BuildingBlock: NAHDIM_clean_sbu_0, # of connection points: 4
#     Node 4, Type 0, BuildingBlock: NAHDIM_clean_sbu_0, # of connection points: 4
#     Node 5, Type 0, BuildingBlock: NAHDIM_clean_sbu_0, # of connection points: 4
#     Node 6, Type 0, BuildingBlock: NAHDIM_clean_sbu_0, # of connection points: 4
#     Node 7, Type 0, BuildingBlock: NAHDIM_clean_sbu_0, # of connection points: 4
#     Edge 8, Type (0, 0), BuildingBlock: FUNLAD_clean_linker_0, # of connection points: 2
#     Edge 9, Type (0, 0), BuildingBlock: FUNLAD_clean_linker_0, # of connection points: 2
#     Edge 10, Type (0, 0), BuildingBlock: FUNLAD_clean_linker_0, # of connection points: 2
#     Edge 11, Type (0, 0), BuildingBlock: FUNLAD_clean_linker_0, # of connection points: 2
#     Edge 12, Type (0, 0), BuildingBlock: FUNLAD_clean_linker_0, # of connection points: 2
#     Edge 13, Type (0, 0), BuildingBlock: FUNLAD_clean_linker_0, # of connection points: 2
#     Edge 14, Type (0, 0), BuildingBlock: FUNLAD_clean_linker_0, # of connection points: 2
#     Edge 15, Type (0, 0), BuildingBlock: FUNLAD_clean_linker_0, # of connection points: 2
#     Edge 16, Type (0, 0), BuildingBlock: FUNLAD_clean_linker_0, # of connection points: 2
#     Edge 17, Type (0, 0), BuildingBlock: FUNLAD_clean_linker_0, # of connection points: 2
#     Edge 18, Type (0, 0), BuildingBlock: FUNLAD_clean_linker_0, # of connection points: 2
#     Edge 19, Type (0, 0), BuildingBlock: FUNLAD_clean_linker_0, # of connection points: 2
#     Edge 20, Type (0, 0), BuildingBlock: FUNLAD_clean_linker_0, # of connection points: 2
#     Edge 21, Type (0, 0), BuildingBlock: FUNLAD_clean_linker_0, # of connection points: 2
#     Edge 22, Type (0, 0), BuildingBlock: FUNLAD_clean_linker_0, # of connection points: 2
#     Edge 23, Type (0, 0), BuildingBlock: FUNLAD_clean_linker_0, # of connection points: 2
# Relax obj value: 0.051
# Max RMSD: 0.056
# Mean RMSD: 0.056
data_MOF--net-mdf--node1-NAHDIM_clean_sbu_0--edge1-FUNLAD_clean_linker_0
_symmetry_space_group_name_H-M    P1
_symmetry_Int_Tables_number       1
_symmetry_cell_setting            triclinic
loop_
_symmetry_equiv_pos_as_xyz
'x, y, z'
_cell_length_a     40.916535
_cell_length_b     40.955021
_cell_length_c     17.364231
_cell_angle_alpha  89.871502
_cell_angle_beta   89.965208
_cell_angle_gamma 95.360923
loop_
_atom_site_label
_atom_site_type_symbol
_atom_site_fract_x
_atom_site_fract_y
_atom_site_fract_z
_atom_type_partial_charge
C0 C 0.22475 0.59879 0.46935 0.0
O1 O 0.21626 0.60422 0.39785 0.0
O2 O 0.27622 0.58069 0.31131 0.0
Zn3 Zn 0.25864 0.54981 0.39529 0.0
O4 O 0.22062 0.51872 0.35959 0.0
C5 C 0.31768 0.51666 0.38718 0.0
O6 O 0.31803 0.52761 0.31599 0.0
O7 O 0.24332 0.57629 0.48319 0.0
C8 C 0.2227 0.49969 0.30245 0.0
O9 O 0.25022 0.50095 0.26312 0.0
C10 C 0.26069 0.58749 0.25088 0.0
O11 O 0.23076 0.57374 0.2399 0.0
O12 O 0.29467 0.52333 0.43209 0.0
C13 C 0.4146 0.77098 0.5039 0.0
O14 O 0.41976 0.7858 0.57039 0.0
O15 O 0.42294 0.71293 0.6652 0.0
Zn16 Zn 0.45395 0.72831 0.57942 0.0
O17 O 0.48708 0.76561 0.60995 0.0
C18 C 0.49018 0.67333 0.60042 0.0
O19 O 0.48394 0.68044 0.67236 0.0
O20 O 0.42727 0.74426 0.49194 0.0
C21 C 0.50173 0.76913 0.67432 0.0
O22 O 0.49472 0.74762 0.72948 0.0
C23 C 0.41322 0.73 0.72025 0.0
O24 O 0.42416 0.76109 0.7258 0.0
O25 O 0.479 0.69045 0.54703 0.0
C26 C 0.27284 0.89881 0.96872 0.0
O27 O 0.27843 0.89303 0.89572 0.0
O28 O 0.22221 0.91959 0.81768 0.0
Zn29 Zn 0.241 0.95023 0.90022 0.0
O30 O 0.27941 0.98009 0.86071 0.0
C31 C 0.18108 0.9819 0.89496 0.0
O32 O 0.17877 0.96741 0.82752 0.0
O33 O 0.25676 0.92283 0.98638 0.0
C34 C 0.27498 0.00626 0.82427 0.0
O35 O 0.24487 0.0133 0.81041 0.0
C36 C 0.23337 0.91798 0.74964 0.0
O37 O 0.25944 0.93721 0.72929 0.0
O38 O 0.20562 0.97782 0.93773 0.0
C39 C 0.08797 0.71592 0.02511 0.0
O40 O 0.09273 0.70896 0.09792 0.0
O41 O 0.07207 0.77372 0.17139 0.0
Zn42 Zn 0.04034 0.75322 0.09276 0.0
O43 O 0.01026 0.71673 0.14025 0.0
C44 C 0.02222 0.81792 0.05162 0.0
O45 O 0.05143 0.82784 0.07875 0.0
O46 O 0.06615 0.73481 0.00779 0.0
C47 C 0.98299 0.72291 0.16935 0.0
O48 O 0.97502 0.75325 0.16884 0.0
C49 C 0.06602 0.77308 0.24316 0.0
O50 O 0.03814 0.7583 0.26804 0.0
O51 O 0.01295 0.78743 0.05048 0.0
C52 C 0.72697 0.08878 0.96518 0.0
O53 O 0.71727 0.09101 0.89341 0.0
O54 O 0.77852 0.07068 0.80936 0.0
Zn55 Zn 0.76145 0.04067 0.89502 0.0
O56 O 0.72237 0.01031 0.86333 0.0
C57 C 0.82685 0.02577 0.93538 0.0
O58 O 0.83401 0.05728 0.92289 0.0
O59 O 0.74728 0.06822 0.98198 0.0
C60 C 0.72459 0.98691 0.8163 0.0
O61 O 0.75307 0.98322 0.78403 0.0
C62 C 0.76355 0.07591 0.74711 0.0
O63 O 0.73453 0.06034 0.73419 0.0
O64 O 0.7973 0.01353 0.92852 0.0
C65 C 0.9136 0.27748 0.02335 0.0
O66 O 0.91301 0.28988 0.09298 0.0
O67 O 0.92376 0.22004 0.18015 0.0
Zn68 Zn 0.95645 0.23867 0.10111 0.0
O69 O 0.98581 0.27719 0.14097 0.0
C70 C 0.99208 0.18221 0.1187 0.0
O71 O 0.98035 0.18367 0.18892 0.0
O72 O 0.93128 0.25413 0.01074 0.0
C73 C 0.00149 0.2772 0.20413 0.0
O74 O 0.99794 0.25118 0.24879 0.0
C75 C 0.91335 0.23515 0.23769 0.0
O76 O 0.92448 0.26583 0.24999 0.0
O77 O 0.98481 0.20328 0.06916 0.0
C78 C 0.77321 0.39272 0.46879 0.0
O79 O 0.78097 0.38765 0.39663 0.0
O80 O 0.72226 0.40944 0.3126 0.0
Zn81 Zn 0.73876 0.44082 0.39556 0.0
O82 O 0.7766 0.47096 0.35557 0.0
C83 C 0.67351 0.46347 0.40412 0.0
O84 O 0.66572 0.43882 0.35732 0.0
O85 O 0.75455 0.41497 0.48413 0.0
C86 C 0.78952 0.49338 0.39934 0.0
O87 O 0.77801 0.49586 0.46954 0.0
C88 C 0.72318 0.41785 0.24215 0.0
O89 O 0.73551 0.44757 0.22331 0.0
O90 O 0.7028 0.46837 0.42892 0.0
C91 C 0.59374 0.22051 0.50519 0.0
O92 O 0.59671 0.21241 0.57792 0.0
O93 O 0.57488 0.2764 0.65187 0.0
Zn94 Zn 0.54469 0.2575 0.56877 0.0
O95 O 0.51239 0.22145 0.60944 0.0
C96 C 0.51632 0.31938 0.56174 0.0
O97 O 0.53024 0.32337 0.62963 0.0
O98 O 0.57232 0.23963 0.4864 0.0
C99 C 0.49007 0.22823 0.6561 0.0
O100 O 0.48924 0.25868 0.67909 0.0
C101 C 0.57985 0.26256 0.71576 0.0
O102 O 0.56439 0.23371 0.73111 0.0
O103 O 0.51946 0.29318 0.52439 0.0
C104 C 0.38177 0.73167 0.84411 0.0
C105 C 0.38982 0.71463 0.77761 0.0
C106 C 0.36033 0.71657 0.89908 0.0
C107 C 0.34653 0.68411 0.88843 0.0
C108 C 0.35379 0.66753 0.82087 0.0
C109 C 0.37537 0.68249 0.76632 0.0
C110 C 0.32474 0.66656 0.94647 0.0
C111 C 0.3272 0.67264 0.02251 0.0
C112 C 0.30865 0.65197 0.08111 0.0
C113 C 0.32283 0.64845 0.15381 0.0
C114 C 0.30713 0.6277 0.20906 0.0
C115 C 0.2766 0.61037 0.19315 0.0
H116 H 0.26548 0.63834 0.01123 0.0
C117 C 0.26177 0.61482 0.12139 0.0
C118 C 0.27763 0.63541 0.06583 0.0
H119 H 0.2381 0.60208 0.10766 0.0
H120 H 0.39224 0.75658 0.85411 0.0
H121 H 0.35452 0.73046 0.94941 0.0
H122 H 0.34328 0.64262 0.81094 0.0
H123 H 0.38078 0.66875 0.71538 0.0
H124 H 0.30847 0.64585 0.9264 0.0
H125 H 0.34577 0.69122 0.04327 0.0
H126 H 0.34656 0.66116 0.16731 0.0
H127 H 0.31909 0.62509 0.26407 0.0
C128 C 0.39053 0.77143 0.37091 0.0
C129 C 0.39488 0.78578 0.44404 0.0
C130 C 0.37264 0.78622 0.31404 0.0
C131 C 0.35855 0.81566 0.32947 0.0
C132 C 0.36278 0.82971 0.40287 0.0
C133 C 0.38064 0.81497 0.45947 0.0
C134 C 0.34056 0.83352 0.2707 0.0
C135 C 0.32973 0.82082 0.20282 0.0
C136 C 0.31357 0.84036 0.14425 0.0
C137 C 0.31676 0.83255 0.06615 0.0
C138 C 0.30327 0.85134 0.00918 0.0
C139 C 0.28595 0.87816 0.02924 0.0
H140 H 0.29117 0.87254 0.22415 0.0
C141 C 0.2817 0.88526 0.10753 0.0
C142 C 0.29527 0.86652 0.16449 0.0
H143 H 0.26809 0.90547 0.12494 0.0
H144 H 0.40132 0.74899 0.35716 0.0
H145 H 0.37073 0.77475 0.25807 0.0
H146 H 0.35236 0.85238 0.41652 0.0
H147 H 0.38346 0.8267 0.51522 0.0
H148 H 0.33664 0.85875 0.28406 0.0
H149 H 0.33398 0.79595 0.18733 0.0
H150 H 0.33038 0.8123 0.04901 0.0
H151 H 0.30673 0.845 0.9494 0.0
C152 C 0.08303 0.7891 0.37719 0.0
C153 C 0.08983 0.78948 0.2979 0.0
C154 C 0.10506 0.80527 0.42889 0.0
C155 C 0.13457 0.82202 0.40241 0.0
C156 C 0.14129 0.82247 0.32314 0.0
C157 C 0.11926 0.80625 0.2714 0.0
C158 C 0.15782 0.84086 0.45512 0.0
C159 C 0.16013 0.83393 0.53068 0.0
C160 C 0.18065 0.85465 0.58554 0.0
C161 C 0.17162 0.85384 0.6635 0.0
C162 C 0.189 0.8741 0.71681 0.0
C163 C 0.21612 0.89543 0.69346 0.0
H164 H 0.21692 0.87578 0.50337 0.0
C165 C 0.22597 0.89545 0.61594 0.0
C166 C 0.20845 0.87523 0.56241 0.0
H167 H 0.24698 0.91134 0.59631 0.0
H168 H 0.06044 0.77666 0.39943 0.0
H169 H 0.0983 0.80529 0.48911 0.0
H170 H 0.16364 0.83548 0.3011 0.0
H171 H 0.12519 0.80713 0.21058 0.0
H172 H 0.17297 0.86142 0.43044 0.0
H173 H 0.14509 0.81315 0.5548 0.0
H174 H 0.15052 0.83802 0.68304 0.0
H175 H 0.1809 0.87326 0.77625 0.0
C176 C 0.10266 0.70948 0.88636 0.0
C177 C 0.1075 0.70173 0.96413 0.0
C178 C 0.12068 0.69567 0.82858 0.0
C179 C 0.14416 0.67392 0.84741 0.0
C180 C 0.14888 0.66611 0.92512 0.0
C181 C 0.13089 0.67997 0.98294 0.0
C182 C 0.16276 0.6575 0.78762 0.0
C183 C 0.16848 0.66984 0.71635 0.0
C184 C 0.18463 0.65215 0.65451 0.0
C185 C 0.17793 0.65965 0.57755 0.0
C186 C 0.19126 0.6426 0.51742 0.0
C187 C 0.21187 0.61782 0.533 0.0
H188 H 0.21294 0.62235 0.72845 0.0
C189 C 0.21954 0.61104 0.60993 0.0
C190 C 0.20615 0.62807 0.67012 0.0
H191 H 0.2357 0.59238 0.62382 0.0
H192 H 0.08465 0.72598 0.86988 0.0
H193 H 0.11539 0.7015 0.76938 0.0
H194 H 0.16655 0.64918 0.9412 0.0
H195 H 0.13515 0.6734 0.0423 0.0
H196 H 0.17154 0.6342 0.80331 0.0
H197 H 0.15979 0.69322 0.70097 0.0
H198 H 0.16173 0.67832 0.56384 0.0
H199 H 0.18508 0.64863 0.45877 0.0
C200 C 0.76405 0.1042 0.61868 0.0
C201 C 0.77873 0.09982 0.69065 0.0
C202 C 0.77898 0.12643 0.56515 0.0
C203 C 0.80893 0.14468 0.58269 0.0
C204 C 0.823 0.14096 0.65543 0.0
C205 C 0.80822 0.11866 0.70864 0.0
C206 C 0.8265 0.16752 0.5268 0.0
C207 C 0.82429 0.16345 0.45001 0.0
C208 C 0.84565 0.1833 0.39491 0.0
C209 C 0.85395 0.16892 0.32524 0.0
C210 C 0.87569 0.18589 0.27398 0.0
C211 C 0.8893 0.21786 0.29086 0.0
H212 H 0.85169 0.228 0.46281 0.0
C213 C 0.88002 0.23281 0.35922 0.0
C214 C 0.85838 0.21573 0.41079 0.0
H215 H 0.88976 0.25756 0.37344 0.0
H216 H 0.74114 0.09033 0.60343 0.0
H217 H 0.76687 0.12937 0.51051 0.0
H218 H 0.8459 0.15488 0.67067 0.0
H219 H 0.82005 0.11614 0.76385 0.0
H220 H 0.8443 0.18625 0.55007 0.0
H221 H 0.80888 0.14276 0.42684 0.0
H222 H 0.84426 0.14411 0.31126 0.0
H223 H 0.88206 0.17375 0.22143 0.0
C224 C 0.89564 0.27892 0.88533 0.0
C225 C 0.89427 0.29095 0.96086 0.0
C226 C 0.87787 0.29235 0.82624 0.0
C227 C 0.85816 0.31801 0.84172 0.0
C228 C 0.85682 0.32986 0.91732 0.0
C229 C 0.87455 0.31647 0.97624 0.0
C230 C 0.83989 0.33426 0.78082 0.0
C231 C 0.83248 0.32116 0.71116 0.0
C232 C 0.81574 0.33892 0.65028 0.0
C233 C 0.8217 0.33177 0.57284 0.0
C234 C 0.80762 0.34899 0.51387 0.0
C235 C 0.78695 0.37354 0.53119 0.0
H236 H 0.78789 0.36806 0.72653 0.0
C237 C 0.78001 0.3799 0.60868 0.0
C238 C 0.79415 0.36272 0.66764 0.0
H239 H 0.76382 0.39834 0.62394 0.0
H240 H 0.91077 0.25939 0.87154 0.0
H241 H 0.88045 0.28299 0.76862 0.0
H242 H 0.84203 0.3497 0.93095 0.0
H243 H 0.87293 0.32634 0.03379 0.0
H244 H 0.83259 0.35841 0.79436 0.0
H245 H 0.83996 0.29725 0.69633 0.0
H246 H 0.83791 0.31328 0.55785 0.0
H247 H 0.81326 0.34328 0.45473 0.0
C248 C 0.70844 0.40467 0.10517 0.0
C249 C 0.70888 0.39501 0.18276 0.0
C250 C 0.69342 0.38374 0.04959 0.0
C251 C 0.6787 0.35249 0.07044 0.0
C252 C 0.67944 0.34278 0.14791 0.0
C253 C 0.69447 0.36371 0.20347 0.0
C254 C 0.6604 0.33038 0.01436 0.0
C255 C 0.66535 0.33214 0.93773 0.0
C256 C 0.64441 0.31271 0.88137 0.0
C257 C 0.6413 0.32555 0.80708 0.0
C258 C 0.62053 0.30912 0.75326 0.0
C259 C 0.60265 0.27921 0.7723 0.0
H260 H 0.62989 0.27099 0.95565 0.0
C261 C 0.60657 0.26572 0.84579 0.0
C262 C 0.62729 0.28226 0.89987 0.0
H263 H 0.59344 0.24251 0.86188 0.0
H264 H 0.71912 0.42871 0.08742 0.0
H265 H 0.69251 0.39273 0.99113 0.0
H266 H 0.66807 0.31899 0.16571 0.0
H267 H 0.69433 0.35552 0.26283 0.0
H268 H 0.64157 0.31265 0.03765 0.0
H269 H 0.68423 0.34979 0.9144 0.0
H270 H 0.65442 0.34879 0.79108 0.0
H271 H 0.61831 0.32008 0.69689 0.0
C272 C 0.72111 0.1046 0.10352 0.0
C273 C 0.71301 0.10867 0.02569 0.0
C274 C 0.70631 0.12206 0.16089 0.0
C275 C 0.68324 0.14419 0.14139 0.0
C276 C 0.67564 0.14855 0.06346 0.0
C277 C 0.69039 0.13109 0.00623 0.0
C278 C 0.66498 0.16164 0.20003 0.0
C279 C 0.67447 0.16587 0.2739 0.0
C280 C 0.65434 0.18131 0.3323 0.0
C281 C 0.65744 0.17261 0.40999 0.0
C282 C 0.63789 0.18545 0.46627 0.0
C283 C 0.61498 0.2075 0.44599 0.0
H284 H 0.62992 0.21259 0.25364 0.0
C285 C 0.61259 0.21702 0.36858 0.0
C286 C 0.63215 0.20421 0.31235 0.0
H287 H 0.59556 0.23437 0.35124 0.0
H288 H 0.73834 0.08736 0.12038 0.0
H289 H 0.71235 0.11721 0.22014 0.0
H290 H 0.65789 0.16529 0.0467 0.0
H291 H 0.68363 0.13485 0.94679 0.0
H292 H 0.64225 0.17076 0.18106 0.0
H293 H 0.69694 0.15656 0.29383 0.0
H294 H 0.6746 0.15531 0.42706 0.0
H295 H 0.64056 0.17784 0.52554 0.0
C296 C 0.3681 0.48779 0.3638 0.0
C297 C 0.34327 0.49609 0.41413 0.0
C298 C 0.39181 0.46768 0.3886 0.0
C299 C 0.39107 0.45527 0.4643 0.0
C300 C 0.36672 0.46421 0.515 0.0
C301 C 0.34298 0.48427 0.49019 0.0
C302 C 0.41544 0.43341 0.49292 0.0
C303 C 0.43169 0.41405 0.44663 0.0
C304 C 0.45448 0.39077 0.47626 0.0
C305 C 0.45945 0.36283 0.43268 0.0
C306 C 0.47982 0.33979 0.45985 0.0
C307 C 0.49593 0.3444 0.53101 0.0
H308 H 0.4692 0.4177 0.58034 0.0
C309 C 0.4918 0.37289 0.5735 0.0
C310 C 0.47141 0.3959 0.54637 0.0
H311 H 0.50417 0.3774 0.62811 0.0
H312 H 0.36923 0.49677 0.30505 0.0
H313 H 0.4108 0.46229 0.34847 0.0
H314 H 0.36575 0.45528 0.57382 0.0
H315 H 0.32431 0.49033 0.53059 0.0
H316 H 0.41829 0.43167 0.55491 0.0
H317 H 0.42649 0.41339 0.38533 0.0
H318 H 0.44702 0.35846 0.37806 0.0
H319 H 0.48264 0.3182 0.42544 0.0
C320 C 0.69746 0.93783 0.74769 0.0
C321 C 0.6959 0.96288 0.80233 0.0
C322 C 0.67088 0.9142 0.73741 0.0
C323 C 0.64214 0.91517 0.78167 0.0
C324 C 0.64061 0.94022 0.83614 0.0
C325 C 0.66706 0.96398 0.84599 0.0
C326 C 0.61404 0.88963 0.77518 0.0
C327 C 0.6067 0.87292 0.70982 0.0
C328 C 0.57884 0.84711 0.70342 0.0
C329 C 0.56428 0.84094 0.63118 0.0
C330 C 0.5388 0.81609 0.62217 0.0
C331 C 0.52766 0.79644 0.68512 0.0
H332 H 0.5788 0.83106 0.82286 0.0
C333 C 0.54225 0.80253 0.75754 0.0
C334 C 0.56758 0.82762 0.76669 0.0
H335 H 0.53435 0.78772 0.80708 0.0
H336 H 0.7194 0.93616 0.71351 0.0
H337 H 0.67334 0.89474 0.69634 0.0
H338 H 0.61888 0.9414 0.87134 0.0
H339 H 0.66508 0.98285 0.8889 0.0
H340 H 0.59811 0.88556 0.82504 0.0
H341 H 0.62064 0.87931 0.6578 0.0
H342 H 0.57266 0.85541 0.58142 0.0
H343 H 0.52823 0.81197 0.56545 0.0
C344 C 0.02753 0.15548 0.02422 0.0
C345 C 0.01419 0.1569 0.0986 0.0
C346 C 0.04906 0.13204 0.00612 0.0
C347 C 0.05754 0.10932 0.06202 0.0
C348 C 0.0443 0.1109 0.13633 0.0
C349 C 0.02277 0.1343 0.1544 0.0
C350 C 0.08107 0.0846 0.04606 0.0
C351 C 0.0868 0.07334 0.97494 0.0
C352 C 0.11061 0.04896 0.95829 0.0
C353 C 0.10723 0.03109 0.88944 0.0
C354 C 0.12976 0.00892 0.86971 0.0
C355 C 0.15642 0.00424 0.91821 0.0
H356 H 0.14137 0.05813 0.05965 0.0
C357 C 0.15982 0.02198 0.98738 0.0
C358 C 0.13724 0.0442 0.00716 0.0
H359 H 0.18025 0.01915 0.02569 0.0
H360 H 0.02166 0.17273 0.9801 0.0
H361 H 0.05951 0.1324 0.94885 0.0
H362 H 0.05061 0.09393 0.18069 0.0
H363 H 0.01305 0.13477 0.21237 0.0
H364 H 0.09294 0.07444 0.09535 0.0
H365 H 0.0726 0.08126 0.92671 0.0
H366 H 0.08712 0.03439 0.85046 0.0
H367 H 0.12642 0.99572 0.81588 0.0
C368 C 0.96795 0.66362 0.20132 0.0
C369 C 0.9606 0.69645 0.20413 0.0
C370 C 0.9465 0.63868 0.23362 0.0
C371 C 0.9172 0.64612 0.26928 0.0
C372 C 0.91022 0.67898 0.27321 0.0
C373 C 0.93155 0.70385 0.24066 0.0
C374 C 0.89364 0.62054 0.30443 0.0
C375 C 0.89053 0.58897 0.28164 0.0
C376 C 0.86544 0.56416 0.31419 0.0
C377 C 0.85341 0.53754 0.2683 0.0
C378 C 0.82896 0.51436 0.29605 0.0
C379 C 0.81629 0.51714 0.37078 0.0
H380 H 0.86289 0.58594 0.42788 0.0
C381 C 0.82907 0.5432 0.41763 0.0
C382 C 0.85342 0.56643 0.38977 0.0
H383 H 0.82012 0.54585 0.47578 0.0
H384 H 0.99028 0.65713 0.17416 0.0
H385 H 0.95326 0.61379 0.23147 0.0
H386 H 0.88798 0.68543 0.3009 0.0
H387 H 0.92522 0.72889 0.24425 0.0
H388 H 0.87676 0.62865 0.34709 0.0
H389 H 0.90514 0.58143 0.23376 0.0
H390 H 0.8625 0.53501 0.21019 0.0
H391 H 0.81982 0.49444 0.25865 0.0
C392 C 0.29822 0.05955 0.76685 0.0
C393 C 0.3033 0.02921 0.80054 0.0
C394 C 0.32484 0.08187 0.74717 0.0
C395 C 0.3572 0.07436 0.761 0.0
C396 C 0.36229 0.04367 0.79256 0.0
C397 C 0.33564 0.02138 0.81263 0.0
C398 C 0.38605 0.0977 0.74158 0.0
C399 C 0.3849 0.13048 0.74207 0.0
C400 C 0.41326 0.15443 0.72244 0.0
C401 C 0.41313 0.18685 0.74843 0.0
C402 C 0.43842 0.21063 0.72828 0.0
C403 C 0.46432 0.20257 0.68094 0.0
H404 H 0.44 0.1218 0.65257 0.0
C405 C 0.46466 0.17007 0.65527 0.0
C406 C 0.43937 0.14625 0.67559 0.0
H407 H 0.48416 0.1631 0.61831 0.0
H408 H 0.27364 0.06623 0.75606 0.0
H409 H 0.31993 0.10478 0.72039 0.0
H410 H 0.38696 0.03711 0.80291 0.0
H411 H 0.34041 0.99812 0.838 0.0
H412 H 0.40915 0.0875 0.73065 0.0
H413 H 0.36251 0.14049 0.76048 0.0
H414 H 0.39325 0.19391 0.78417 0.0
H415 H 0.43735 0.23544 0.74892 0.0
C416 C 0.84553 0.97028 0.96043 0.0
C417 C 0.85304 0.00434 0.95334 0.0
C418 C 0.87026 0.94977 0.97445 0.0
C419 C 0.90318 0.96285 0.98134 0.0
C420 C 0.91057 0.99695 0.97637 0.0
C421 C 0.8858 0.01751 0.96199 0.0
C422 C 0.93004 0.94164 -0.00373 0.0
C423 C 0.92887 0.91034 0.97179 0.0
C424 C 0.95415 0.88761 0.98967 0.0
C425 C 0.94551 0.85378 0.98215 0.0
C426 C 0.96778 0.83122 0.00098 0.0
C427 C -0.0006 0.84197 0.02735 0.0
H428 H 0.99433 0.92427 0.01818 0.0
C429 C 0.00852 0.87584 0.03266 0.0
C430 C 0.98619 0.89846 0.01387 0.0
H431 H 0.03283 0.88493 0.05209 0.0
H432 H 0.8205 0.95935 0.95483 0.0
H433 H 0.86335 0.92375 0.98094 0.0
H434 H 0.93566 0.00769 0.98252 0.0
H435 H 0.89239 0.04367 0.95729 0.0
H436 H 0.95115 0.95246 0.02796 0.0
H437 H 0.90776 0.90026 0.93879 0.0
H438 H 0.92115 0.84468 0.96301 0.0
H439 H 0.95997 0.8053 -0.00416 0.0
C440 C 0.03166 0.33162 0.17246 0.0
C441 C 0.02473 0.30569 0.22494 0.0
C442 C 0.05483 0.35775 0.19022 0.0
C443 C 0.07161 0.35852 0.26096 0.0
C444 C 0.06388 0.33321 0.31442 0.0
C445 C 0.04086 0.30692 0.29645 0.0
C446 C 0.09701 0.38547 0.28095 0.0
C447 C 0.11608 0.40191 0.22765 0.0
C448 C 0.14275 0.42762 0.24748 0.0
C449 C 0.1699 0.43288 0.19805 0.0
C450 C 0.19579 0.45641 0.21555 0.0
C451 C 0.19481 0.47556 0.28241 0.0
H452 H 0.12044 0.44461 0.35182 0.0
C453 C 0.16719 0.47095 0.33082 0.0
C454 C 0.14143 0.44724 0.31362 0.0
H455 H 0.16555 0.48547 0.3825 0.0
H456 H 0.01945 0.33161 0.11712 0.0
H457 H 0.05934 0.37737 0.1486 0.0
H458 H 0.07618 0.33341 0.36969 0.0
H459 H 0.03591 0.28747 0.33839 0.0
H460 H 0.10162 0.39021 0.34168 0.0
H461 H 0.11368 0.39482 0.16752 0.0
H462 H 0.17136 0.41834 0.1463 0.0
H463 H 0.2166 0.45948 0.17678 0.0
C464 C 0.51768 0.63828 0.50623 0.0
C465 C 0.5113 0.64687 0.58273 0.0
C466 C 0.53876 0.61415 0.49017 0.0
C467 C 0.55385 0.59808 0.55048 0.0
C468 C 0.54737 0.60668 0.62675 0.0
C469 C 0.52621 0.63063 0.64278 0.0
C470 C 0.57777 0.57359 0.53635 0.0
C471 C 0.57812 0.55538 0.47192 0.0
C472 C 0.60262 0.53144 0.458 0.0
C473 C 0.59451 0.50497 0.40824 0.0
C474 C 0.61729 0.48254 0.3919 0.0
C475 C 0.64888 0.48634 0.42434 0.0
H476 H 0.64184 0.55585 0.52734 0.0
C477 C 0.65707 0.51287 0.47407 0.0
C478 C 0.63425 0.53522 0.49061 0.0
H479 H 0.68129 0.51668 0.49948 0.0
H480 H 0.50674 0.6505 0.45866 0.0
H481 H 0.54382 0.60888 0.43055 0.0
H482 H 0.55883 0.5949 0.67427 0.0
H483 H 0.52196 0.63671 0.7024 0.0
H484 H 0.59489 0.56961 0.58246 0.0
H485 H 0.55904 0.55695 0.42897 0.0
H486 H 0.57044 0.50162 0.38185 0.0
H487 H 0.61022 0.46247 0.35304 0.0
loop_
_geom_bond_atom_site_label_1
_geom_bond_atom_site_label_2
_geom_bond_distance
_geom_bond_site_symmetry_2
_ccdc_geom_bond_type
C0 O1 1.160 . S
C0 O7 1.185 . S
O1 C0 1.160 . S
O2 Zn3 1.899 . S
O2 C10 1.284 . S
Zn3 O2 1.899 . S
Zn3 O4 2.032 . S
Zn3 O7 2.086 . S
Zn3 O12 1.977 . S
O4 Zn3 2.032 . S
O4 C8 1.278 . S
C5 O6 1.203 . S
C5 O12 1.267 . S
O6 C5 1.203 . S
O7 C0 1.185 . S
O7 Zn3 2.086 . S
C8 O4 1.278 . S
C8 O9 1.211 . S
O9 C8 1.211 . S
C10 O2 1.284 . S
C10 O11 1.273 . S
O11 C10 1.273 . S
O12 Zn3 1.977 . S
O12 C5 1.267 . S
C13 O14 1.160 . S
C13 O20 1.185 . S
O14 C13 1.160 . S
O15 Zn16 1.899 . S
O15 C23 1.284 . S
Zn16 O15 1.899 . S
Zn16 O17 2.032 . S
Zn16 O20 2.086 . S
Zn16 O25 1.977 . S
O17 Zn16 2.032 . S
O17 C21 1.278 . S
C18 O19 1.203 . S
C18 O25 1.267 . S
O19 C18 1.203 . S
O20 C13 1.185 . S
O20 Zn16 2.086 . S
C21 O17 1.278 . S
C21 O22 1.211 . S
O22 C21 1.211 . S
C23 O15 1.284 . S
C23 O24 1.273 . S
O24 C23 1.273 . S
O25 Zn16 1.977 . S
O25 C18 1.267 . S
C26 O27 1.160 . S
C26 O33 1.185 1_556 S
O27 C26 1.160 . S
O28 Zn29 1.899 . S
O28 C36 1.284 . S
Zn29 O28 1.899 . S
Zn29 O30 2.032 . S
Zn29 O33 2.086 1_556 S
Zn29 O38 1.977 . S
O30 Zn29 2.032 . S
O30 C34 1.257 1_565 S
C31 O32 1.203 . S
C31 O38 1.267 . S
O32 C31 1.203 . S
O33 C26 1.185 1_554 S
O33 Zn29 2.086 1_554 S
C34 O30 1.257 1_545 S
C34 O35 1.227 . S
O35 C34 1.227 . S
C36 O28 1.284 . S
C36 O37 1.273 . S
O37 C36 1.273 . S
O38 Zn29 1.977 . S
O38 C31 1.267 . S
C39 O40 1.160 . S
C39 O46 1.185 1_554 S
O40 C39 1.160 . S
O41 Zn42 1.899 . S
O41 C49 1.284 . S
Zn42 O41 1.899 . S
Zn42 O43 2.032 . S
Zn42 O46 2.086 1_554 S
Zn42 O51 1.977 . S
O43 Zn42 2.032 . S
O43 C47 1.257 1_455 S
C44 O45 1.203 . S
C44 O51 1.267 . S
O45 C44 1.203 . S
O46 C39 1.185 1_556 S
O46 Zn42 2.086 1_556 S
C47 O43 1.257 1_655 S
C47 O48 1.227 . S
O48 C47 1.227 . S
C49 O41 1.284 . S
C49 O50 1.273 . S
O50 C49 1.273 . S
O51 Zn42 1.977 . S
O51 C44 1.267 . S
C52 O53 1.160 . S
C52 O59 1.185 1_556 S
O53 C52 1.160 . S
O54 Zn55 1.899 . S
O54 C62 1.284 . S
Zn55 O54 1.899 . S
Zn55 O56 2.032 . S
Zn55 O59 2.086 1_556 S
Zn55 O64 1.977 . S
O56 Zn55 2.032 . S
O56 C60 1.257 1_545 S
C57 O58 1.203 . S
C57 O64 1.267 . S
O58 C57 1.203 . S
O59 C52 1.185 1_554 S
O59 Zn55 2.086 1_554 S
C60 O56 1.257 1_565 S
C60 O61 1.227 . S
O61 C60 1.227 . S
C62 O54 1.284 . S
C62 O63 1.273 . S
O63 C62 1.273 . S
O64 Zn55 1.977 . S
O64 C57 1.267 . S
C65 O66 1.160 . S
C65 O72 1.185 1_554 S
O66 C65 1.160 . S
O67 Zn68 1.899 . S
O67 C75 1.284 . S
Zn68 O67 1.899 . S
Zn68 O69 2.032 . S
Zn68 O72 2.086 1_554 S
Zn68 O77 1.977 . S
O69 Zn68 2.032 . S
O69 C73 1.257 1_655 S
C70 O71 1.203 . S
C70 O77 1.267 . S
O71 C70 1.203 . S
O72 C65 1.185 1_556 S
O72 Zn68 2.086 1_556 S
C73 O69 1.257 1_455 S
C73 O74 1.227 . S
O74 C73 1.227 . S
C75 O67 1.284 . S
C75 O76 1.273 . S
O76 C75 1.273 . S
O77 Zn68 1.977 . S
O77 C70 1.267 . S
C78 O79 1.160 . S
C78 O85 1.185 . S
O79 C78 1.160 . S
O80 Zn81 1.899 . S
O80 C88 1.284 . S
Zn81 O80 1.899 . S
Zn81 O82 2.032 . S
Zn81 O85 2.086 . S
Zn81 O90 1.977 . S
O82 Zn81 2.032 . S
O82 C86 1.278 . S
C83 O84 1.203 . S
C83 O90 1.267 . S
O84 C83 1.203 . S
O85 C78 1.185 . S
O85 Zn81 2.086 . S
C86 O82 1.278 . S
C86 O87 1.211 . S
O87 C86 1.211 . S
C88 O80 1.284 . S
C88 O89 1.273 . S
O89 C88 1.273 . S
O90 Zn81 1.977 . S
O90 C83 1.267 . S
C91 O92 1.160 . S
C91 O98 1.185 . S
O92 C91 1.160 . S
O93 Zn94 1.899 . S
O93 C101 1.284 . S
Zn94 O93 1.899 . S
Zn94 O95 2.032 . S
Zn94 O98 2.086 . S
Zn94 O103 1.977 . S
O95 Zn94 2.032 . S
O95 C99 1.278 . S
C96 O97 1.203 . S
C96 O103 1.267 . S
O97 C96 1.203 . S
O98 C91 1.185 . S
O98 Zn94 2.086 . S
C99 O95 1.278 . S
C99 O100 1.211 . S
O100 C99 1.211 . S
C101 O93 1.284 . S
C101 O102 1.273 . S
O102 C101 1.273 . S
O103 Zn94 1.977 . S
O103 C96 1.267 . S
C104 C105 1.386 . S
C104 C106 1.383 . S
C104 H120 0.951 . S
C105 C104 1.386 . S
C105 C109 1.383 . S
C106 C104 1.383 . S
C106 C107 1.402 . S
C106 H121 0.951 . S
C107 C106 1.402 . S
C107 C108 1.375 . S
C107 C110 1.481 . S
C108 C107 1.375 . S
C108 C109 1.367 . S
C108 H122 0.951 . S
C109 C105 1.383 . S
C109 C108 1.367 . S
C109 H123 0.950 . S
C110 C107 1.481 . S
C110 C111 1.297 1_556 S
C110 H124 0.950 . S
C111 C110 1.297 1_554 S
C111 C112 1.479 . S
C111 H125 0.950 . S
C112 C111 1.479 . S
C112 C113 1.375 . S
C112 C118 1.404 . S
C113 C112 1.375 . S
C113 C114 1.369 . S
C113 H126 0.950 . S
C114 C113 1.369 . S
C114 C115 1.392 . S
C114 H127 0.951 . S
C115 C114 1.392 . S
C115 C117 1.384 . S
H116 C118 0.949 . S
C117 C115 1.384 . S
C117 C118 1.385 . S
C117 H119 0.950 . S
C118 C112 1.404 . S
C118 H116 0.949 . S
C118 C117 1.385 . S
H119 C117 0.950 . S
H120 C104 0.951 . S
H121 C106 0.951 . S
H122 C108 0.951 . S
H123 C109 0.950 . S
H124 C110 0.950 . S
H125 C111 0.950 . S
H126 C113 0.950 . S
H127 C114 0.951 . S
C128 C129 1.386 . S
C128 C130 1.383 . S
C128 H144 0.951 . S
C129 C128 1.386 . S
C129 C133 1.383 . S
C130 C128 1.383 . S
C130 C131 1.402 . S
C130 H145 0.951 . S
C131 C130 1.402 . S
C131 C132 1.375 . S
C131 C134 1.481 . S
C132 C131 1.375 . S
C132 C133 1.367 . S
C132 H146 0.951 . S
C133 C129 1.383 . S
C133 C132 1.367 . S
C133 H147 0.950 . S
C134 C131 1.481 . S
C134 C135 1.297 . S
C134 H148 0.950 . S
C135 C134 1.297 . S
C135 C136 1.479 . S
C135 H149 0.950 . S
C136 C135 1.479 . S
C136 C137 1.375 . S
C136 C142 1.404 . S
C137 C136 1.375 . S
C137 C138 1.369 . S
C137 H150 0.950 . S
C138 C137 1.369 . S
C138 C139 1.392 . S
C138 H151 0.951 1_554 S
C139 C138 1.392 . S
C139 C141 1.384 . S
H140 C142 0.949 . S
C141 C139 1.384 . S
C141 C142 1.385 . S
C141 H143 0.950 . S
C142 C136 1.404 . S
C142 H140 0.949 . S
C142 C141 1.385 . S
H143 C141 0.950 . S
H144 C128 0.951 . S
H145 C130 0.951 . S
H146 C132 0.951 . S
H147 C133 0.950 . S
H148 C134 0.950 . S
H149 C135 0.950 . S
H150 C137 0.950 . S
H151 C138 0.951 1_556 S
C152 C153 1.386 . S
C152 C154 1.383 . S
C152 H168 0.951 . S
C153 C152 1.386 . S
C153 C157 1.383 . S
C154 C152 1.383 . S
C154 C155 1.402 . S
C154 H169 0.951 . S
C155 C154 1.402 . S
C155 C156 1.375 . S
C155 C158 1.481 . S
C156 C155 1.375 . S
C156 C157 1.367 . S
C156 H170 0.951 . S
C157 C153 1.383 . S
C157 C156 1.367 . S
C157 H171 0.950 . S
C158 C155 1.481 . S
C158 C159 1.297 . S
C158 H172 0.950 . S
C159 C158 1.297 . S
C159 C160 1.479 . S
C159 H173 0.950 . S
C160 C159 1.479 . S
C160 C161 1.375 . S
C160 C166 1.404 . S
C161 C160 1.375 . S
C161 C162 1.369 . S
C161 H174 0.950 . S
C162 C161 1.369 . S
C162 C163 1.392 . S
C162 H175 0.951 . S
C163 C162 1.392 . S
C163 C165 1.384 . S
H164 C166 0.949 . S
C165 C163 1.384 . S
C165 C166 1.385 . S
C165 H167 0.950 . S
C166 C160 1.404 . S
C166 H164 0.949 . S
C166 C165 1.385 . S
H167 C165 0.950 . S
H168 C152 0.951 . S
H169 C154 0.951 . S
H170 C156 0.951 . S
H171 C157 0.950 . S
H172 C158 0.950 . S
H173 C159 0.950 . S
H174 C161 0.950 . S
H175 C162 0.951 . S
C176 C177 1.386 . S
C176 C178 1.383 . S
C176 H192 0.951 . S
C177 C176 1.386 . S
C177 C181 1.383 . S
C178 C176 1.383 . S
C178 C179 1.402 . S
C178 H193 0.951 . S
C179 C178 1.402 . S
C179 C180 1.375 . S
C179 C182 1.481 . S
C180 C179 1.375 . S
C180 C181 1.367 . S
C180 H194 0.951 . S
C181 C177 1.383 . S
C181 C180 1.367 . S
C181 H195 0.950 1_556 S
C182 C179 1.481 . S
C182 C183 1.297 . S
C182 H196 0.950 . S
C183 C182 1.297 . S
C183 C184 1.479 . S
C183 H197 0.950 . S
C184 C183 1.479 . S
C184 C185 1.375 . S
C184 C190 1.404 . S
C185 C184 1.375 . S
C185 C186 1.369 . S
C185 H198 0.950 . S
C186 C185 1.369 . S
C186 C187 1.392 . S
C186 H199 0.951 . S
C187 C186 1.392 . S
C187 C189 1.384 . S
H188 C190 0.949 . S
C189 C187 1.384 . S
C189 C190 1.385 . S
C189 H191 0.950 . S
C190 C184 1.404 . S
C190 H188 0.949 . S
C190 C189 1.385 . S
H191 C189 0.950 . S
H192 C176 0.951 . S
H193 C178 0.951 . S
H194 C180 0.951 . S
H195 C181 0.950 1_554 S
H196 C182 0.950 . S
H197 C183 0.950 . S
H198 C185 0.950 . S
H199 C186 0.951 . S
C200 C201 1.386 . S
C200 C202 1.383 . S
C200 H216 0.951 . S
C201 C200 1.386 . S
C201 C205 1.383 . S
C202 C200 1.383 . S
C202 C203 1.402 . S
C202 H217 0.951 . S
C203 C202 1.402 . S
C203 C204 1.375 . S
C203 C206 1.481 . S
C204 C203 1.375 . S
C204 C205 1.367 . S
C204 H218 0.951 . S
C205 C201 1.383 . S
C205 C204 1.367 . S
C205 H219 0.950 . S
C206 C203 1.481 . S
C206 C207 1.297 . S
C206 H220 0.950 . S
C207 C206 1.297 . S
C207 C208 1.479 . S
C207 H221 0.950 . S
C208 C207 1.479 . S
C208 C209 1.375 . S
C208 C214 1.404 . S
C209 C208 1.375 . S
C209 C210 1.369 . S
C209 H222 0.950 . S
C210 C209 1.369 . S
C210 C211 1.392 . S
C210 H223 0.951 . S
C211 C210 1.392 . S
C211 C213 1.384 . S
H212 C214 0.949 . S
C213 C211 1.384 . S
C213 C214 1.385 . S
C213 H215 0.950 . S
C214 C208 1.404 . S
C214 H212 0.949 . S
C214 C213 1.385 . S
H215 C213 0.950 . S
H216 C200 0.951 . S
H217 C202 0.951 . S
H218 C204 0.951 . S
H219 C205 0.950 . S
H220 C206 0.950 . S
H221 C207 0.950 . S
H222 C209 0.950 . S
H223 C210 0.951 . S
C224 C225 1.386 . S
C224 C226 1.383 . S
C224 H240 0.951 . S
C225 C224 1.386 . S
C225 C229 1.383 . S
C226 C224 1.383 . S
C226 C227 1.402 . S
C226 H241 0.951 . S
C227 C226 1.402 . S
C227 C228 1.375 . S
C227 C230 1.481 . S
C228 C227 1.375 . S
C228 C229 1.367 . S
C228 H242 0.951 . S
C229 C225 1.383 . S
C229 C228 1.367 . S
C229 H243 0.950 1_556 S
C230 C227 1.481 . S
C230 C231 1.297 . S
C230 H244 0.950 . S
C231 C230 1.297 . S
C231 C232 1.479 . S
C231 H245 0.950 . S
C232 C231 1.479 . S
C232 C233 1.375 . S
C232 C238 1.404 . S
C233 C232 1.375 . S
C233 C234 1.369 . S
C233 H246 0.950 . S
C234 C233 1.369 . S
C234 C235 1.392 . S
C234 H247 0.951 . S
C235 C234 1.392 . S
C235 C237 1.384 . S
H236 C238 0.949 . S
C237 C235 1.384 . S
C237 C238 1.385 . S
C237 H239 0.950 . S
C238 C232 1.404 . S
C238 H236 0.949 . S
C238 C237 1.385 . S
H239 C237 0.950 . S
H240 C224 0.951 . S
H241 C226 0.951 . S
H242 C228 0.951 . S
H243 C229 0.950 1_554 S
H244 C230 0.950 . S
H245 C231 0.950 . S
H246 C233 0.950 . S
H247 C234 0.951 . S
C248 C249 1.386 . S
C248 C250 1.383 . S
C248 H264 0.951 . S
C249 C248 1.386 . S
C249 C253 1.383 . S
C250 C248 1.383 . S
C250 C251 1.402 . S
C250 H265 0.951 . S
C251 C250 1.402 . S
C251 C252 1.375 . S
C251 C254 1.481 . S
C252 C251 1.375 . S
C252 C253 1.367 . S
C252 H266 0.951 . S
C253 C249 1.383 . S
C253 C252 1.367 . S
C253 H267 0.950 . S
C254 C251 1.481 . S
C254 C255 1.297 1_554 S
C254 H268 0.950 . S
C255 C254 1.297 1_556 S
C255 C256 1.479 . S
C255 H269 0.950 . S
C256 C255 1.479 . S
C256 C257 1.375 . S
C256 C262 1.404 . S
C257 C256 1.375 . S
C257 C258 1.369 . S
C257 H270 0.950 . S
C258 C257 1.369 . S
C258 C259 1.392 . S
C258 H271 0.951 . S
C259 C258 1.392 . S
C259 C261 1.384 . S
H260 C262 0.949 . S
C261 C259 1.384 . S
C261 C262 1.385 . S
C261 H263 0.950 . S
C262 C256 1.404 . S
C262 H260 0.949 . S
C262 C261 1.385 . S
H263 C261 0.950 . S
H264 C248 0.951 . S
H265 C250 0.951 . S
H266 C252 0.951 . S
H267 C253 0.950 . S
H268 C254 0.950 . S
H269 C255 0.950 . S
H270 C257 0.950 . S
H271 C258 0.951 . S
C272 C273 1.386 . S
C272 C274 1.383 . S
C272 H288 0.951 . S
C273 C272 1.386 . S
C273 C277 1.383 . S
C274 C272 1.383 . S
C274 C275 1.402 . S
C274 H289 0.951 . S
C275 C274 1.402 . S
C275 C276 1.375 . S
C275 C278 1.481 . S
C276 C275 1.375 . S
C276 C277 1.367 . S
C276 H290 0.951 . S
C277 C273 1.383 . S
C277 C276 1.367 . S
C277 H291 0.950 1_554 S
C278 C275 1.481 . S
C278 C279 1.297 . S
C278 H292 0.950 . S
C279 C278 1.297 . S
C279 C280 1.479 . S
C279 H293 0.950 . S
C280 C279 1.479 . S
C280 C281 1.375 . S
C280 C286 1.404 . S
C281 C280 1.375 . S
C281 C282 1.369 . S
C281 H294 0.950 . S
C282 C281 1.369 . S
C282 C283 1.392 . S
C282 H295 0.951 . S
C283 C282 1.392 . S
C283 C285 1.384 . S
H284 C286 0.949 . S
C285 C283 1.384 . S
C285 C286 1.385 . S
C285 H287 0.950 . S
C286 C280 1.404 . S
C286 H284 0.949 . S
C286 C285 1.385 . S
H287 C285 0.950 . S
H288 C272 0.951 . S
H289 C274 0.951 . S
H290 C276 0.951 . S
H291 C277 0.950 1_556 S
H292 C278 0.950 . S
H293 C279 0.950 . S
H294 C281 0.950 . S
H295 C282 0.951 . S
C296 C297 1.386 . S
C296 C298 1.383 . S
C296 H312 0.951 . S
C297 C296 1.386 . S
C297 C301 1.383 . S
C298 C296 1.383 . S
C298 C299 1.402 . S
C298 H313 0.951 . S
C299 C298 1.402 . S
C299 C300 1.375 . S
C299 C302 1.481 . S
C300 C299 1.375 . S
C300 C301 1.367 . S
C300 H314 0.951 . S
C301 C297 1.383 . S
C301 C300 1.367 . S
C301 H315 0.950 . S
C302 C299 1.481 . S
C302 C303 1.297 . S
C302 H316 0.950 . S
C303 C302 1.297 . S
C303 C304 1.479 . S
C303 H317 0.950 . S
C304 C303 1.479 . S
C304 C305 1.375 . S
C304 C310 1.404 . S
C305 C304 1.375 . S
C305 C306 1.369 . S
C305 H318 0.950 . S
C306 C305 1.369 . S
C306 C307 1.392 . S
C306 H319 0.951 . S
C307 C306 1.392 . S
C307 C309 1.384 . S
H308 C310 0.949 . S
C309 C307 1.384 . S
C309 C310 1.385 . S
C309 H311 0.950 . S
C310 C304 1.404 . S
C310 H308 0.949 . S
C310 C309 1.385 . S
H311 C309 0.950 . S
H312 C296 0.951 . S
H313 C298 0.951 . S
H314 C300 0.951 . S
H315 C301 0.950 . S
H316 C302 0.950 . S
H317 C303 0.950 . S
H318 C305 0.950 . S
H319 C306 0.951 . S
C320 C321 1.386 . S
C320 C322 1.383 . S
C320 H336 0.951 . S
C321 C320 1.386 . S
C321 C325 1.383 . S
C322 C320 1.383 . S
C322 C323 1.402 . S
C322 H337 0.951 . S
C323 C322 1.402 . S
C323 C324 1.375 . S
C323 C326 1.481 . S
C324 C323 1.375 . S
C324 C325 1.367 . S
C324 H338 0.951 . S
C325 C321 1.383 . S
C325 C324 1.367 . S
C325 H339 0.950 . S
C326 C323 1.481 . S
C326 C327 1.297 . S
C326 H340 0.950 . S
C327 C326 1.297 . S
C327 C328 1.479 . S
C327 H341 0.950 . S
C328 C327 1.479 . S
C328 C329 1.375 . S
C328 C334 1.404 . S
C329 C328 1.375 . S
C329 C330 1.369 . S
C329 H342 0.950 . S
C330 C329 1.369 . S
C330 C331 1.392 . S
C330 H343 0.951 . S
C331 C330 1.392 . S
C331 C333 1.384 . S
H332 C334 0.949 . S
C333 C331 1.384 . S
C333 C334 1.385 . S
C333 H335 0.950 . S
C334 C328 1.404 . S
C334 H332 0.949 . S
C334 C333 1.385 . S
H335 C333 0.950 . S
H336 C320 0.951 . S
H337 C322 0.951 . S
H338 C324 0.951 . S
H339 C325 0.950 . S
H340 C326 0.950 . S
H341 C327 0.950 . S
H342 C329 0.950 . S
H343 C330 0.951 . S
C344 C345 1.386 1_556 S
C344 C346 1.383 . S
C344 H360 0.951 1_455 S
C345 C344 1.386 1_554 S
C345 C349 1.383 . S
C346 C344 1.383 . S
C346 C347 1.402 1_556 S
C346 H361 0.951 . S
C347 C346 1.402 1_554 S
C347 C348 1.375 . S
C347 C350 1.481 . S
C348 C347 1.375 . S
C348 C349 1.367 . S
C348 H362 0.951 . S
C349 C345 1.383 . S
C349 C348 1.367 . S
C349 H363 0.950 . S
C350 C347 1.481 . S
C350 C351 1.297 1_554 S
C350 H364 0.950 . S
C351 C350 1.297 1_556 S
C351 C352 1.479 . S
C351 H365 0.950 . S
C352 C351 1.479 . S
C352 C353 1.375 . S
C352 C358 1.404 . S
C353 C352 1.375 . S
C353 C354 1.369 . S
C353 H366 0.950 . S
C354 C353 1.369 . S
C354 C355 1.392 . S
C354 H367 0.951 1_545 S
C355 C354 1.392 . S
C355 C357 1.384 . S
H356 C358 0.949 1_554 S
C357 C355 1.384 . S
C357 C358 1.385 . S
C357 H359 0.950 1_556 S
C358 C352 1.404 . S
C358 H356 0.949 1_556 S
C358 C357 1.385 . S
H359 C357 0.950 1_554 S
H360 C344 0.951 1_655 S
H361 C346 0.951 . S
H362 C348 0.951 . S
H363 C349 0.950 . S
H364 C350 0.950 . S
H365 C351 0.950 . S
H366 C353 0.950 . S
H367 C354 0.951 1_565 S
C368 C369 1.386 . S
C368 C370 1.383 . S
C368 H384 0.951 . S
C369 C368 1.386 . S
C369 C373 1.383 . S
C370 C368 1.383 . S
C370 C371 1.402 . S
C370 H385 0.951 . S
C371 C370 1.402 . S
C371 C372 1.375 . S
C371 C374 1.481 . S
C372 C371 1.375 . S
C372 C373 1.367 . S
C372 H386 0.951 . S
C373 C369 1.383 . S
C373 C372 1.367 . S
C373 H387 0.950 . S
C374 C371 1.481 . S
C374 C375 1.297 . S
C374 H388 0.950 . S
C375 C374 1.297 . S
C375 C376 1.479 . S
C375 H389 0.950 . S
C376 C375 1.479 . S
C376 C377 1.375 . S
C376 C382 1.404 . S
C377 C376 1.375 . S
C377 C378 1.369 . S
C377 H390 0.950 . S
C378 C377 1.369 . S
C378 C379 1.392 . S
C378 H391 0.951 . S
C379 C378 1.392 . S
C379 C381 1.384 . S
H380 C382 0.949 . S
C381 C379 1.384 . S
C381 C382 1.385 . S
C381 H383 0.950 . S
C382 C376 1.404 . S
C382 H380 0.949 . S
C382 C381 1.385 . S
H383 C381 0.950 . S
H384 C368 0.951 . S
H385 C370 0.951 . S
H386 C372 0.951 . S
H387 C373 0.950 . S
H388 C374 0.950 . S
H389 C375 0.950 . S
H390 C377 0.950 . S
H391 C378 0.951 . S
C392 C393 1.386 . S
C392 C394 1.383 . S
C392 H408 0.951 . S
C393 C392 1.386 . S
C393 C397 1.383 . S
C394 C392 1.383 . S
C394 C395 1.402 . S
C394 H409 0.951 . S
C395 C394 1.402 . S
C395 C396 1.375 . S
C395 C398 1.481 . S
C396 C395 1.375 . S
C396 C397 1.367 . S
C396 H410 0.951 . S
C397 C393 1.383 . S
C397 C396 1.367 . S
C397 H411 0.950 1_545 S
C398 C395 1.481 . S
C398 C399 1.297 . S
C398 H412 0.950 . S
C399 C398 1.297 . S
C399 C400 1.479 . S
C399 H413 0.950 . S
C400 C399 1.479 . S
C400 C401 1.375 . S
C400 C406 1.404 . S
C401 C400 1.375 . S
C401 C402 1.369 . S
C401 H414 0.950 . S
C402 C401 1.369 . S
C402 C403 1.392 . S
C402 H415 0.951 . S
C403 C402 1.392 . S
C403 C405 1.384 . S
H404 C406 0.949 . S
C405 C403 1.384 . S
C405 C406 1.385 . S
C405 H407 0.950 . S
C406 C400 1.404 . S
C406 H404 0.949 . S
C406 C405 1.385 . S
H407 C405 0.950 . S
H408 C392 0.951 . S
H409 C394 0.951 . S
H410 C396 0.951 . S
H411 C397 0.950 1_565 S
H412 C398 0.950 . S
H413 C399 0.950 . S
H414 C401 0.950 . S
H415 C402 0.951 . S
C416 C417 1.386 . S
C416 C418 1.383 . S
C416 H432 0.951 . S
C417 C416 1.386 . S
C417 C421 1.383 . S
C418 C416 1.383 . S
C418 C419 1.402 . S
C418 H433 0.951 . S
C419 C418 1.402 . S
C419 C420 1.375 . S
C419 C422 1.481 . S
C420 C419 1.375 . S
C420 C421 1.367 . S
C420 H434 0.951 . S
C421 C417 1.383 . S
C421 C420 1.367 . S
C421 H435 0.950 1_565 S
C422 C419 1.481 . S
C422 C423 1.297 . S
C422 H436 0.950 . S
C423 C422 1.297 . S
C423 C424 1.479 . S
C423 H437 0.950 . S
C424 C423 1.479 . S
C424 C425 1.375 1_556 S
C424 C430 1.404 . S
C425 C424 1.375 1_554 S
C425 C426 1.369 . S
C425 H438 0.950 . S
C426 C425 1.369 . S
C426 C427 1.392 . S
C426 H439 0.951 . S
C427 C426 1.392 . S
C427 C429 1.384 . S
H428 C430 0.949 . S
C429 C427 1.384 . S
C429 C430 1.385 1_554 S
C429 H431 0.950 1_654 S
C430 C424 1.404 . S
C430 H428 0.949 . S
C430 C429 1.385 1_556 S
H431 C429 0.950 1_456 S
H432 C416 0.951 . S
H433 C418 0.951 . S
H434 C420 0.951 . S
H435 C421 0.950 1_545 S
H436 C422 0.950 . S
H437 C423 0.950 . S
H438 C425 0.950 . S
H439 C426 0.951 . S
C440 C441 1.386 . S
C440 C442 1.383 . S
C440 H456 0.951 . S
C441 C440 1.386 . S
C441 C445 1.383 . S
C442 C440 1.383 . S
C442 C443 1.402 . S
C442 H457 0.951 . S
C443 C442 1.402 . S
C443 C444 1.375 . S
C443 C446 1.481 . S
C444 C443 1.375 . S
C444 C445 1.367 . S
C444 H458 0.951 . S
C445 C441 1.383 . S
C445 C444 1.367 . S
C445 H459 0.950 . S
C446 C443 1.481 . S
C446 C447 1.297 . S
C446 H460 0.950 . S
C447 C446 1.297 . S
C447 C448 1.479 . S
C447 H461 0.950 . S
C448 C447 1.479 . S
C448 C449 1.375 . S
C448 C454 1.404 . S
C449 C448 1.375 . S
C449 C450 1.369 . S
C449 H462 0.950 . S
C450 C449 1.369 . S
C450 C451 1.392 . S
C450 H463 0.951 . S
C451 C450 1.392 . S
C451 C453 1.384 . S
H452 C454 0.949 . S
C453 C451 1.384 . S
C453 C454 1.385 . S
C453 H455 0.950 . S
C454 C448 1.404 . S
C454 H452 0.949 . S
C454 C453 1.385 . S
H455 C453 0.950 . S
H456 C440 0.951 . S
H457 C442 0.951 . S
H458 C444 0.951 . S
H459 C445 0.950 . S
H460 C446 0.950 . S
H461 C447 0.950 . S
H462 C449 0.950 . S
H463 C450 0.951 . S
C464 C465 1.386 . S
C464 C466 1.383 . S
C464 H480 0.951 . S
C465 C464 1.386 . S
C465 C469 1.383 . S
C466 C464 1.383 . S
C466 C467 1.402 . S
C466 H481 0.951 . S
C467 C466 1.402 . S
C467 C468 1.375 . S
C467 C470 1.481 . S
C468 C467 1.375 . S
C468 C469 1.367 . S
C468 H482 0.951 . S
C469 C465 1.383 . S
C469 C468 1.367 . S
C469 H483 0.950 . S
C470 C467 1.481 . S
C470 C471 1.297 . S
C470 H484 0.950 . S
C471 C470 1.297 . S
C471 C472 1.479 . S
C471 H485 0.950 . S
C472 C471 1.479 . S
C472 C473 1.375 . S
C472 C478 1.404 . S
C473 C472 1.375 . S
C473 C474 1.369 . S
C473 H486 0.950 . S
C474 C473 1.369 . S
C474 C475 1.392 . S
C474 H487 0.951 . S
C475 C474 1.392 . S
C475 C477 1.384 . S
H476 C478 0.949 . S
C477 C475 1.384 . S
C477 C478 1.385 . S
C477 H479 0.950 . S
C478 C472 1.404 . S
C478 H476 0.949 . S
C478 C477 1.385 . S
H479 C477 0.950 . S
H480 C464 0.951 . S
H481 C466 0.951 . S
H482 C468 0.951 . S
H483 C469 0.950 . S
H484 C470 0.950 . S
H485 C471 0.950 . S
H486 C473 0.950 . S
H487 C474 0.951 . S
C105 C23 1.379 . S
C115 C10 1.340 . S
C129 C13 1.359 . S
C139 C26 1.346 1_554 S
C153 C49 1.368 . S
C163 C36 1.382 . S
C177 C39 1.365 1_556 S
C187 C0 1.368 . S
C201 C62 1.373 . S
C211 C75 1.376 . S
C225 C65 1.360 1_556 S
C235 C78 1.341 . S
C249 C88 1.372 . S
C259 C101 1.377 . S
C273 C52 1.362 1_554 S
C283 C91 1.363 . S
C297 C5 1.439 . S
C307 C96 1.421 . S
C321 C60 1.410 . S
C331 C21 1.367 . S
C345 C70 1.417 1_455 S
C355 C31 1.375 1_545 S
C369 C47 1.436 . S
C379 C86 1.441 . S
C393 C34 1.454 . S
C403 C99 1.440 . S
C417 C57 1.398 1_565 S
C427 C44 1.453 1_655 S
C441 C73 1.449 . S
C451 C8 1.457 . S
C465 C18 1.423 . S
C475 C83 1.370 . S
