# Generated by pormake.
# Topology uli, (4)-cn, num edge types: 1
# Building blocks:
#     Node 0, Type 0, BuildingBlock: QUQFOY_clean_sbu_1, # of connection points: 4
#     Node 1, Type 0, BuildingBlock: QUQFOY_clean_sbu_1, # of connection points: 4
#     Node 2, Type 0, BuildingBlock: QUQFOY_clean_sbu_1, # of connection points: 4
#     Node 3, Type 0, BuildingBlock: QUQFOY_clean_sbu_1, # of connection points: 4
#     Node 4, Type 0, BuildingBlock: QUQFOY_clean_sbu_1, # of connection points: 4
#     Node 5, Type 0, BuildingBlock: QUQFOY_clean_sbu_1, # of connection points: 4
#     Node 6, Type 0, BuildingBlock: QUQFOY_clean_sbu_1, # of connection points: 4
#     Node 7, Type 0, BuildingBlock: QUQFOY_clean_sbu_1, # of connection points: 4
#     Node 8, Type 0, BuildingBlock: QUQFOY_clean_sbu_1, # of connection points: 4
#     Node 9, Type 0, BuildingBlock: QUQFOY_clean_sbu_1, # of connection points: 4
#     Node 10, Type 0, BuildingBlock: QUQFOY_clean_sbu_1, # of connection points: 4
#     Node 11, Type 0, BuildingBlock: QUQFOY_clean_sbu_1, # of connection points: 4
#     Node 12, Type 0, BuildingBlock: QUQFOY_clean_sbu_1, # of connection points: 4
#     Node 13, Type 0, BuildingBlock: QUQFOY_clean_sbu_1, # of connection points: 4
#     Node 14, Type 0, BuildingBlock: QUQFOY_clean_sbu_1, # of connection points: 4
#     Node 15, Type 0, BuildingBlock: QUQFOY_clean_sbu_1, # of connection points: 4
#     Node 16, Type 0, BuildingBlock: QUQFOY_clean_sbu_1, # of connection points: 4
#     Node 17, Type 0, BuildingBlock: QUQFOY_clean_sbu_1, # of connection points: 4
#     Node 18, Type 0, BuildingBlock: QUQFOY_clean_sbu_1, # of connection points: 4
#     Node 19, Type 0, BuildingBlock: QUQFOY_clean_sbu_1, # of connection points: 4
#     Node 20, Type 0, BuildingBlock: QUQFOY_clean_sbu_1, # of connection points: 4
#     Node 21, Type 0, BuildingBlock: QUQFOY_clean_sbu_1, # of connection points: 4
#     Node 22, Type 0, BuildingBlock: QUQFOY_clean_sbu_1, # of connection points: 4
#     Node 23, Type 0, BuildingBlock: QUQFOY_clean_sbu_1, # of connection points: 4
#     Node 24, Type 0, BuildingBlock: QUQFOY_clean_sbu_1, # of connection points: 4
#     Node 25, Type 0, BuildingBlock: QUQFOY_clean_sbu_1, # of connection points: 4
#     Node 26, Type 0, BuildingBlock: QUQFOY_clean_sbu_1, # of connection points: 4
#     Node 27, Type 0, BuildingBlock: QUQFOY_clean_sbu_1, # of connection points: 4
#     Node 28, Type 0, BuildingBlock: QUQFOY_clean_sbu_1, # of connection points: 4
#     Node 29, Type 0, BuildingBlock: QUQFOY_clean_sbu_1, # of connection points: 4
#     Node 30, Type 0, BuildingBlock: QUQFOY_clean_sbu_1, # of connection points: 4
#     Node 31, Type 0, BuildingBlock: QUQFOY_clean_sbu_1, # of connection points: 4
#     Node 32, Type 0, BuildingBlock: QUQFOY_clean_sbu_1, # of connection points: 4
#     Node 33, Type 0, BuildingBlock: QUQFOY_clean_sbu_1, # of connection points: 4
#     Node 34, Type 0, BuildingBlock: QUQFOY_clean_sbu_1, # of connection points: 4
#     Node 35, Type 0, BuildingBlock: QUQFOY_clean_sbu_1, # of connection points: 4
#     Node 36, Type 0, BuildingBlock: QUQFOY_clean_sbu_1, # of connection points: 4
#     Node 37, Type 0, BuildingBlock: QUQFOY_clean_sbu_1, # of connection points: 4
#     Node 38, Type 0, BuildingBlock: QUQFOY_clean_sbu_1, # of connection points: 4
#     Node 39, Type 0, BuildingBlock: QUQFOY_clean_sbu_1, # of connection points: 4
#     Node 40, Type 0, BuildingBlock: QUQFOY_clean_sbu_1, # of connection points: 4
#     Node 41, Type 0, BuildingBlock: QUQFOY_clean_sbu_1, # of connection points: 4
#     Node 42, Type 0, BuildingBlock: QUQFOY_clean_sbu_1, # of connection points: 4
#     Node 43, Type 0, BuildingBlock: QUQFOY_clean_sbu_1, # of connection points: 4
#     Node 44, Type 0, BuildingBlock: QUQFOY_clean_sbu_1, # of connection points: 4
#     Node 45, Type 0, BuildingBlock: QUQFOY_clean_sbu_1, # of connection points: 4
#     Node 46, Type 0, BuildingBlock: QUQFOY_clean_sbu_1, # of connection points: 4
#     Node 47, Type 0, BuildingBlock: QUQFOY_clean_sbu_1, # of connection points: 4
#     Edge 48, Type (0, 0), BuildingBlock: UVAHIK_clean_linker_0, # of connection points: 2
#     Edge 49, Type (0, 0), BuildingBlock: UVAHIK_clean_linker_0, # of connection points: 2
#     Edge 50, Type (0, 0), BuildingBlock: UVAHIK_clean_linker_0, # of connection points: 2
#     Edge 51, Type (0, 0), BuildingBlock: UVAHIK_clean_linker_0, # of connection points: 2
#     Edge 52, Type (0, 0), BuildingBlock: UVAHIK_clean_linker_0, # of connection points: 2
#     Edge 53, Type (0, 0), BuildingBlock: UVAHIK_clean_linker_0, # of connection points: 2
#     Edge 54, Type (0, 0), BuildingBlock: UVAHIK_clean_linker_0, # of connection points: 2
#     Edge 55, Type (0, 0), BuildingBlock: UVAHIK_clean_linker_0, # of connection points: 2
#     Edge 56, Type (0, 0), BuildingBlock: UVAHIK_clean_linker_0, # of connection points: 2
#     Edge 57, Type (0, 0), BuildingBlock: UVAHIK_clean_linker_0, # of connection points: 2
#     Edge 58, Type (0, 0), BuildingBlock: UVAHIK_clean_linker_0, # of connection points: 2
#     Edge 59, Type (0, 0), BuildingBlock: UVAHIK_clean_linker_0, # of connection points: 2
#     Edge 60, Type (0, 0), BuildingBlock: UVAHIK_clean_linker_0, # of connection points: 2
#     Edge 61, Type (0, 0), BuildingBlock: UVAHIK_clean_linker_0, # of connection points: 2
#     Edge 62, Type (0, 0), BuildingBlock: UVAHIK_clean_linker_0, # of connection points: 2
#     Edge 63, Type (0, 0), BuildingBlock: UVAHIK_clean_linker_0, # of connection points: 2
#     Edge 64, Type (0, 0), BuildingBlock: UVAHIK_clean_linker_0, # of connection points: 2
#     Edge 65, Type (0, 0), BuildingBlock: UVAHIK_clean_linker_0, # of connection points: 2
#     Edge 66, Type (0, 0), BuildingBlock: UVAHIK_clean_linker_0, # of connection points: 2
#     Edge 67, Type (0, 0), BuildingBlock: UVAHIK_clean_linker_0, # of connection points: 2
#     Edge 68, Type (0, 0), BuildingBlock: UVAHIK_clean_linker_0, # of connection points: 2
#     Edge 69, Type (0, 0), BuildingBlock: UVAHIK_clean_linker_0, # of connection points: 2
#     Edge 70, Type (0, 0), BuildingBlock: UVAHIK_clean_linker_0, # of connection points: 2
#     Edge 71, Type (0, 0), BuildingBlock: UVAHIK_clean_linker_0, # of connection points: 2
#     Edge 72, Type (0, 0), BuildingBlock: UVAHIK_clean_linker_0, # of connection points: 2
#     Edge 73, Type (0, 0), BuildingBlock: UVAHIK_clean_linker_0, # of connection points: 2
#     Edge 74, Type (0, 0), BuildingBlock: UVAHIK_clean_linker_0, # of connection points: 2
#     Edge 75, Type (0, 0), BuildingBlock: UVAHIK_clean_linker_0, # of connection points: 2
#     Edge 76, Type (0, 0), BuildingBlock: UVAHIK_clean_linker_0, # of connection points: 2
#     Edge 77, Type (0, 0), BuildingBlock: UVAHIK_clean_linker_0, # of connection points: 2
#     Edge 78, Type (0, 0), BuildingBlock: UVAHIK_clean_linker_0, # of connection points: 2
#     Edge 79, Type (0, 0), BuildingBlock: UVAHIK_clean_linker_0, # of connection points: 2
#     Edge 80, Type (0, 0), BuildingBlock: UVAHIK_clean_linker_0, # of connection points: 2
#     Edge 81, Type (0, 0), BuildingBlock: UVAHIK_clean_linker_0, # of connection points: 2
#     Edge 82, Type (0, 0), BuildingBlock: UVAHIK_clean_linker_0, # of connection points: 2
#     Edge 83, Type (0, 0), BuildingBlock: UVAHIK_clean_linker_0, # of connection points: 2
#     Edge 84, Type (0, 0), BuildingBlock: UVAHIK_clean_linker_0, # of connection points: 2
#     Edge 85, Type (0, 0), BuildingBlock: UVAHIK_clean_linker_0, # of connection points: 2
#     Edge 86, Type (0, 0), BuildingBlock: UVAHIK_clean_linker_0, # of connection points: 2
#     Edge 87, Type (0, 0), BuildingBlock: UVAHIK_clean_linker_0, # of connection points: 2
#     Edge 88, Type (0, 0), BuildingBlock: UVAHIK_clean_linker_0, # of connection points: 2
#     Edge 89, Type (0, 0), BuildingBlock: UVAHIK_clean_linker_0, # of connection points: 2
#     Edge 90, Type (0, 0), BuildingBlock: UVAHIK_clean_linker_0, # of connection points: 2
#     Edge 91, Type (0, 0), BuildingBlock: UVAHIK_clean_linker_0, # of connection points: 2
#     Edge 92, Type (0, 0), BuildingBlock: UVAHIK_clean_linker_0, # of connection points: 2
#     Edge 93, Type (0, 0), BuildingBlock: UVAHIK_clean_linker_0, # of connection points: 2
#     Edge 94, Type (0, 0), BuildingBlock: UVAHIK_clean_linker_0, # of connection points: 2
#     Edge 95, Type (0, 0), BuildingBlock: UVAHIK_clean_linker_0, # of connection points: 2
#     Edge 96, Type (0, 0), BuildingBlock: UVAHIK_clean_linker_0, # of connection points: 2
#     Edge 97, Type (0, 0), BuildingBlock: UVAHIK_clean_linker_0, # of connection points: 2
#     Edge 98, Type (0, 0), BuildingBlock: UVAHIK_clean_linker_0, # of connection points: 2
#     Edge 99, Type (0, 0), BuildingBlock: UVAHIK_clean_linker_0, # of connection points: 2
#     Edge 100, Type (0, 0), BuildingBlock: UVAHIK_clean_linker_0, # of connection points: 2
#     Edge 101, Type (0, 0), BuildingBlock: UVAHIK_clean_linker_0, # of connection points: 2
#     Edge 102, Type (0, 0), BuildingBlock: UVAHIK_clean_linker_0, # of connection points: 2
#     Edge 103, Type (0, 0), BuildingBlock: UVAHIK_clean_linker_0, # of connection points: 2
#     Edge 104, Type (0, 0), BuildingBlock: UVAHIK_clean_linker_0, # of connection points: 2
#     Edge 105, Type (0, 0), BuildingBlock: UVAHIK_clean_linker_0, # of connection points: 2
#     Edge 106, Type (0, 0), BuildingBlock: UVAHIK_clean_linker_0, # of connection points: 2
#     Edge 107, Type (0, 0), BuildingBlock: UVAHIK_clean_linker_0, # of connection points: 2
#     Edge 108, Type (0, 0), BuildingBlock: UVAHIK_clean_linker_0, # of connection points: 2
#     Edge 109, Type (0, 0), BuildingBlock: UVAHIK_clean_linker_0, # of connection points: 2
#     Edge 110, Type (0, 0), BuildingBlock: UVAHIK_clean_linker_0, # of connection points: 2
#     Edge 111, Type (0, 0), BuildingBlock: UVAHIK_clean_linker_0, # of connection points: 2
#     Edge 112, Type (0, 0), BuildingBlock: UVAHIK_clean_linker_0, # of connection points: 2
#     Edge 113, Type (0, 0), BuildingBlock: UVAHIK_clean_linker_0, # of connection points: 2
#     Edge 114, Type (0, 0), BuildingBlock: UVAHIK_clean_linker_0, # of connection points: 2
#     Edge 115, Type (0, 0), BuildingBlock: UVAHIK_clean_linker_0, # of connection points: 2
#     Edge 116, Type (0, 0), BuildingBlock: UVAHIK_clean_linker_0, # of connection points: 2
#     Edge 117, Type (0, 0), BuildingBlock: UVAHIK_clean_linker_0, # of connection points: 2
#     Edge 118, Type (0, 0), BuildingBlock: UVAHIK_clean_linker_0, # of connection points: 2
#     Edge 119, Type (0, 0), BuildingBlock: UVAHIK_clean_linker_0, # of connection points: 2
#     Edge 120, Type (0, 0), BuildingBlock: UVAHIK_clean_linker_0, # of connection points: 2
#     Edge 121, Type (0, 0), BuildingBlock: UVAHIK_clean_linker_0, # of connection points: 2
#     Edge 122, Type (0, 0), BuildingBlock: UVAHIK_clean_linker_0, # of connection points: 2
#     Edge 123, Type (0, 0), BuildingBlock: UVAHIK_clean_linker_0, # of connection points: 2
#     Edge 124, Type (0, 0), BuildingBlock: UVAHIK_clean_linker_0, # of connection points: 2
#     Edge 125, Type (0, 0), BuildingBlock: UVAHIK_clean_linker_0, # of connection points: 2
#     Edge 126, Type (0, 0), BuildingBlock: UVAHIK_clean_linker_0, # of connection points: 2
#     Edge 127, Type (0, 0), BuildingBlock: UVAHIK_clean_linker_0, # of connection points: 2
#     Edge 128, Type (0, 0), BuildingBlock: UVAHIK_clean_linker_0, # of connection points: 2
#     Edge 129, Type (0, 0), BuildingBlock: UVAHIK_clean_linker_0, # of connection points: 2
#     Edge 130, Type (0, 0), BuildingBlock: UVAHIK_clean_linker_0, # of connection points: 2
#     Edge 131, Type (0, 0), BuildingBlock: UVAHIK_clean_linker_0, # of connection points: 2
#     Edge 132, Type (0, 0), BuildingBlock: UVAHIK_clean_linker_0, # of connection points: 2
#     Edge 133, Type (0, 0), BuildingBlock: UVAHIK_clean_linker_0, # of connection points: 2
#     Edge 134, Type (0, 0), BuildingBlock: UVAHIK_clean_linker_0, # of connection points: 2
#     Edge 135, Type (0, 0), BuildingBlock: UVAHIK_clean_linker_0, # of connection points: 2
#     Edge 136, Type (0, 0), BuildingBlock: UVAHIK_clean_linker_0, # of connection points: 2
#     Edge 137, Type (0, 0), BuildingBlock: UVAHIK_clean_linker_0, # of connection points: 2
#     Edge 138, Type (0, 0), BuildingBlock: UVAHIK_clean_linker_0, # of connection points: 2
#     Edge 139, Type (0, 0), BuildingBlock: UVAHIK_clean_linker_0, # of connection points: 2
#     Edge 140, Type (0, 0), BuildingBlock: UVAHIK_clean_linker_0, # of connection points: 2
#     Edge 141, Type (0, 0), BuildingBlock: UVAHIK_clean_linker_0, # of connection points: 2
#     Edge 142, Type (0, 0), BuildingBlock: UVAHIK_clean_linker_0, # of connection points: 2
#     Edge 143, Type (0, 0), BuildingBlock: UVAHIK_clean_linker_0, # of connection points: 2
# Relax obj value: 0.325
# Max RMSD: 0.101
# Mean RMSD: 0.101
data_MOF--net-uli--node1-QUQFOY_clean_sbu_1--edge1-UVAHIK_clean_linker_0
_symmetry_space_group_name_H-M    P1
_symmetry_Int_Tables_number       1
_symmetry_cell_setting            triclinic
loop_
_symmetry_equiv_pos_as_xyz
'x, y, z'
_cell_length_a     92.15387
_cell_length_b     92.10781
_cell_length_c     92.125879
_cell_angle_alpha  90.004341
_cell_angle_beta   90.002843
_cell_angle_gamma 89.996768
loop_
_atom_site_label
_atom_site_type_symbol
_atom_site_fract_x
_atom_site_fract_y
_atom_site_fract_z
_atom_type_partial_charge
O0 O 0.09292 0.23054 0.20202 0.0
Cd1 Cd 0.08587 0.25 0.19381 0.0
Cd2 Cd 0.10519 0.26222 0.21186 0.0
O3 O 0.10372 0.2414 0.22041 0.0
O4 O 0.06441 0.25005 0.19163 0.0
O5 O 0.07629 0.26244 0.20858 0.0
C6 C 0.06411 0.2581 0.20314 0.0
C7 C 0.11036 0.28126 0.22787 0.0
C8 C 0.09937 0.22986 0.21418 0.0
C9 C 0.11007 0.26393 0.17905 0.0
O10 O 0.11491 0.26538 0.19189 0.0
O11 O 0.09756 0.25859 0.17686 0.0
O12 O 0.11963 0.27119 0.22513 0.0
O13 O 0.09773 0.28035 0.2219 0.0
O14 O 0.76766 0.09994 0.2235 0.0
Cd15 Cd 0.74974 0.09338 0.21199 0.0
Cd16 Cd 0.73591 0.11125 0.22932 0.0
O17 O 0.75529 0.11095 0.24072 0.0
O18 O 0.75437 0.0738 0.20447 0.0
O19 O 0.73757 0.07797 0.22122 0.0
C20 C 0.74501 0.0688 0.21363 0.0
C21 C 0.71355 0.11084 0.24116 0.0
C22 C 0.76731 0.10648 0.23562 0.0
C23 C 0.73784 0.11916 0.19757 0.0
O24 O 0.73515 0.12331 0.21046 0.0
O25 O 0.74299 0.10658 0.19527 0.0
O26 O 0.72227 0.1217 0.24233 0.0
O27 O 0.71788 0.09966 0.23389 0.0
O28 O 0.89605 0.76206 0.20025 0.0
Cd29 Cd 0.90711 0.74651 0.18885 0.0
Cd30 Cd 0.88823 0.72765 0.20116 0.0
O31 O 0.8837 0.74617 0.21319 0.0
O32 O 0.92758 0.75273 0.18719 0.0
O33 O 0.92029 0.73426 0.20092 0.0
C34 C 0.93057 0.74283 0.19667 0.0
C35 C 0.88329 0.70542 0.21248 0.0
C36 C 0.88734 0.75923 0.21054 0.0
C37 C 0.88758 0.73266 0.16818 0.0
O38 O 0.88223 0.72707 0.17958 0.0
O39 O 0.89867 0.74079 0.16899 0.0
O40 O 0.87317 0.71412 0.20844 0.0
O41 O 0.89655 0.70951 0.21065 0.0
O42 O 0.23408 0.88931 0.22661 0.0
Cd43 Cd 0.25026 0.89685 0.21324 0.0
Cd44 Cd 0.26641 0.87927 0.22891 0.0
O45 O 0.24871 0.87951 0.24272 0.0
O46 O 0.24271 0.91541 0.20549 0.0
O47 O 0.26153 0.91406 0.22042 0.0
C48 C 0.25233 0.92192 0.21331 0.0
C49 C 0.29001 0.87923 0.23803 0.0
C50 C 0.23601 0.88317 0.23879 0.0
C51 C 0.26073 0.87112 0.19773 0.0
O52 O 0.2646 0.86696 0.2103 0.0
O53 O 0.25571 0.88383 0.1959 0.0
O54 O 0.28126 0.86856 0.24025 0.0
O55 O 0.28514 0.89047 0.23122 0.0
O56 O 0.09583 0.76559 0.77759 0.0
Cd57 Cd 0.08939 0.74682 0.78776 0.0
Cd58 Cd 0.11015 0.7349 0.77253 0.0
O59 O 0.10898 0.75425 0.76115 0.0
O60 O 0.06823 0.74818 0.79165 0.0
O61 O 0.07792 0.73344 0.77523 0.0
C62 C 0.0665 0.73898 0.78119 0.0
C63 C 0.11292 0.71252 0.76098 0.0
C64 C 0.10333 0.76588 0.76602 0.0
C65 C 0.11431 0.73712 0.80492 0.0
O66 O 0.12014 0.73539 0.79254 0.0
O67 O 0.101 0.7406 0.80587 0.0
O68 O 0.12304 0.72217 0.76075 0.0
O69 O 0.10077 0.71588 0.76707 0.0
O70 O 0.23581 0.10618 0.77174 0.0
Cd71 Cd 0.25375 0.10048 0.78369 0.0
Cd72 Cd 0.26663 0.11922 0.76678 0.0
O73 O 0.24774 0.11793 0.7547 0.0
O74 O 0.24879 0.0813 0.79199 0.0
O75 O 0.26603 0.08447 0.77552 0.0
C76 C 0.25827 0.07575 0.7833 0.0
C77 C 0.28957 0.119 0.75622 0.0
C78 C 0.23594 0.11276 0.75963 0.0
C79 C 0.26333 0.12719 0.79826 0.0
O80 O 0.26583 0.13157 0.78542 0.0
O81 O 0.25939 0.11416 0.80048 0.0
O82 O 0.2807 0.12964 0.75424 0.0
O83 O 0.28509 0.10793 0.76357 0.0
O84 O 0.89512 0.22866 0.78073 0.0
Cd85 Cd 0.90287 0.24646 0.79161 0.0
Cd86 Cd 0.88276 0.26085 0.77722 0.0
O87 O 0.88211 0.24164 0.76542 0.0
O88 O 0.924 0.24394 0.79488 0.0
O89 O 0.91458 0.2599 0.77943 0.0
C90 C 0.92587 0.25358 0.78485 0.0
C91 C 0.88062 0.28338 0.7658 0.0
C92 C 0.88717 0.22944 0.7695 0.0
C93 C 0.87929 0.25765 0.80973 0.0
O94 O 0.87355 0.26087 0.79762 0.0
O95 O 0.89203 0.2524 0.81022 0.0
O96 O 0.87003 0.27428 0.76606 0.0
O97 O 0.89284 0.27943 0.77138 0.0
O98 O 0.76699 0.90337 0.79145 0.0
Cd99 Cd 0.74907 0.91105 0.80219 0.0
Cd100 Cd 0.73524 0.88858 0.79009 0.0
O101 O 0.75466 0.88726 0.77874 0.0
O102 O 0.74991 0.93251 0.80282 0.0
O103 O 0.7342 0.92008 0.78933 0.0
C104 C 0.73978 0.93241 0.79311 0.0
C105 C 0.71399 0.88067 0.77862 0.0
C106 C 0.76651 0.89377 0.78156 0.0
C107 C 0.73922 0.88952 0.8231 0.0
O108 O 0.73525 0.88285 0.81171 0.0
O109 O 0.74481 0.90208 0.8222 0.0
O110 O 0.72404 0.8718 0.78248 0.0
O111 O 0.71622 0.89436 0.78056 0.0
O112 O 0.22015 0.10459 0.23213 0.0
Cd113 Cd 0.20612 0.09288 0.24479 0.0
Cd114 Cd 0.21432 0.11495 0.26566 0.0
O115 O 0.22848 0.11969 0.24878 0.0
O116 O 0.2038 0.07435 0.2341 0.0
O117 O 0.21402 0.07574 0.2558 0.0
C118 C 0.21034 0.06798 0.2447 0.0
C119 C 0.22088 0.12417 0.28855 0.0
C120 C 0.22865 0.11477 0.23588 0.0
C121 C 0.18253 0.1119 0.25514 0.0
O122 O 0.19237 0.11807 0.26255 0.0
O123 O 0.18548 0.10106 0.24717 0.0
O124 O 0.21738 0.13243 0.27789 0.0
O125 O 0.2214 0.11038 0.28616 0.0
O126 O 0.90096 0.21854 0.23703 0.0
Cd127 Cd 0.90961 0.20858 0.25502 0.0
Cd128 Cd 0.89054 0.22378 0.26953 0.0
O129 O 0.89016 0.23529 0.2502 0.0
O130 O 0.93053 0.20503 0.25149 0.0
O131 O 0.92214 0.22145 0.26706 0.0
C132 C 0.93301 0.2156 0.26039 0.0
C133 C 0.8884 0.23621 0.29153 0.0
C134 C 0.894 0.23041 0.23787 0.0
C135 C 0.88624 0.1913 0.2676 0.0
O136 O 0.88062 0.20367 0.27002 0.0
O137 O 0.89906 0.19041 0.26262 0.0
O138 O 0.87791 0.2357 0.28232 0.0
O139 O 0.90052 0.23011 0.28804 0.0
O140 O 0.77057 0.89097 0.23232 0.0
Cd141 Cd 0.78328 0.89904 0.24874 0.0
Cd142 Cd 0.76788 0.88138 0.26465 0.0
O143 O 0.75427 0.88125 0.24678 0.0
O144 O 0.78991 0.91814 0.24155 0.0
O145 O 0.7749 0.91551 0.26018 0.0
C146 C 0.78148 0.92396 0.25111 0.0
C147 C 0.75859 0.88146 0.28817 0.0
C148 C 0.75841 0.88476 0.23409 0.0
C149 C 0.79936 0.87399 0.25955 0.0
O150 O 0.78682 0.86952 0.26316 0.0
O151 O 0.80098 0.88674 0.25455 0.0
O152 O 0.75665 0.87064 0.27955 0.0
O153 O 0.7652 0.89278 0.2832 0.0
O154 O 0.09407 0.78039 0.23713 0.0
Cd155 Cd 0.08718 0.78984 0.25609 0.0
Cd156 Cd 0.10372 0.77053 0.26847 0.0
O157 O 0.10151 0.76064 0.24833 0.0
O158 O 0.06703 0.79677 0.25314 0.0
O159 O 0.07284 0.7778 0.26688 0.0
C160 C 0.06298 0.78574 0.26081 0.0
C161 C 0.10405 0.75715 0.28998 0.0
C162 C 0.09856 0.76736 0.23663 0.0
C163 C 0.11315 0.80192 0.26933 0.0
O164 O 0.11683 0.78865 0.27011 0.0
O165 O 0.10048 0.80534 0.26512 0.0
O166 O 0.11424 0.75602 0.28048 0.0
O167 O 0.09302 0.7652 0.28684 0.0
O168 O 0.20901 0.90389 0.77055 0.0
Cd169 Cd 0.19963 0.91256 0.75232 0.0
Cd170 Cd 0.2163 0.89426 0.73813 0.0
O171 O 0.22695 0.89448 0.75795 0.0
O172 O 0.19525 0.93303 0.75698 0.0
O173 O 0.21216 0.92628 0.74117 0.0
C174 C 0.2059 0.93649 0.74852 0.0
C175 C 0.23061 0.89112 0.71743 0.0
C176 C 0.22134 0.89778 0.77012 0.0
C177 C 0.18372 0.88903 0.73862 0.0
O178 O 0.19639 0.88394 0.7366 0.0
O179 O 0.18212 0.9017 0.74382 0.0
O180 O 0.2291 0.88103 0.72696 0.0
O181 O 0.2242 0.90337 0.71971 0.0
O182 O 0.09076 0.21373 0.76704 0.0
Cd183 Cd 0.08492 0.20497 0.7474 0.0
Cd184 Cd 0.10428 0.2232 0.73686 0.0
O185 O 0.10177 0.23256 0.75721 0.0
O186 O 0.06385 0.20022 0.74779 0.0
O187 O 0.07337 0.21842 0.73519 0.0
C188 C 0.06202 0.21159 0.73975 0.0
C189 C 0.10597 0.23682 0.71553 0.0
C190 C 0.09684 0.22605 0.76836 0.0
C191 C 0.11097 0.19111 0.7357 0.0
O192 O 0.11577 0.20404 0.7354 0.0
O193 O 0.09783 0.18867 0.7391 0.0
O194 O 0.11609 0.23712 0.72519 0.0
O195 O 0.09438 0.22952 0.71841 0.0
O196 O 0.77289 0.09556 0.76175 0.0
Cd197 Cd 0.78343 0.08761 0.74377 0.0
Cd198 Cd 0.76836 0.10702 0.72978 0.0
O199 O 0.75636 0.10699 0.74881 0.0
O200 O 0.78738 0.06665 0.74684 0.0
O201 O 0.77117 0.07508 0.7311 0.0
C202 C 0.77711 0.06415 0.73761 0.0
C203 C 0.75714 0.10838 0.70709 0.0
C204 C 0.76108 0.10264 0.76104 0.0
C205 C 0.80062 0.1118 0.73257 0.0
O206 O 0.78823 0.11735 0.73014 0.0
O207 O 0.80159 0.09876 0.73698 0.0
O208 O 0.75673 0.11905 0.71613 0.0
O209 O 0.7633 0.0965 0.71122 0.0
O210 O 0.90738 0.78719 0.77161 0.0
Cd211 Cd 0.91186 0.79559 0.75145 0.0
Cd212 Cd 0.89067 0.77872 0.74242 0.0
O213 O 0.89532 0.76885 0.76213 0.0
O214 O 0.93312 0.79824 0.74936 0.0
O215 O 0.92048 0.78117 0.73789 0.0
C216 C 0.9329 0.78683 0.74117 0.0
C217 C 0.8828 0.76448 0.72292 0.0
C218 C 0.90124 0.77493 0.77303 0.0
C219 C 0.88614 0.81142 0.7426 0.0
O220 O 0.88064 0.79877 0.74242 0.0
O221 O 0.89965 0.81305 0.74479 0.0
O222 O 0.87506 0.76617 0.73442 0.0
O223 O 0.89552 0.77033 0.72268 0.0
O224 O 0.23791 0.22636 0.09959 0.0
Cd225 Cd 0.25674 0.21625 0.09324 0.0
Cd226 Cd 0.26905 0.23543 0.10974 0.0
O227 O 0.24925 0.24584 0.10752 0.0
O228 O 0.25371 0.20842 0.07341 0.0
O229 O 0.26791 0.22727 0.07837 0.0
C230 C 0.26175 0.21899 0.06887 0.0
C231 C 0.2911 0.24781 0.109 0.0
C232 C 0.23751 0.23932 0.1043 0.0
C233 C 0.26889 0.20441 0.11998 0.0
O234 O 0.26986 0.21773 0.12345 0.0
O235 O 0.26514 0.20089 0.10718 0.0
O236 O 0.28195 0.24978 0.11939 0.0
O237 O 0.28734 0.23945 0.09841 0.0
O238 O 0.23081 0.78487 0.90138 0.0
Cd239 Cd 0.24852 0.79504 0.91023 0.0
Cd240 Cd 0.2632 0.7817 0.888 0.0
O241 O 0.24356 0.77072 0.88688 0.0
O242 O 0.24404 0.79845 0.93093 0.0
O243 O 0.26065 0.78267 0.92338 0.0
C244 C 0.25334 0.7884 0.93391 0.0
C245 C 0.28376 0.77008 0.87849 0.0
C246 C 0.23146 0.77441 0.89243 0.0
C247 C 0.26044 0.81493 0.88864 0.0
O248 O 0.26384 0.80329 0.8821 0.0
O249 O 0.25456 0.81448 0.90108 0.0
O250 O 0.27292 0.77374 0.87053 0.0
O251 O 0.28267 0.77218 0.8923 0.0
O252 O 0.20551 0.23791 0.89771 0.0
Cd253 Cd 0.1939 0.25309 0.90916 0.0
Cd254 Cd 0.20426 0.27188 0.88945 0.0
O255 O 0.21715 0.25412 0.88452 0.0
O256 O 0.19262 0.24626 0.92947 0.0
O257 O 0.20565 0.26539 0.92265 0.0
C258 C 0.20169 0.25645 0.93273 0.0
C259 C 0.21428 0.29482 0.88502 0.0
C260 C 0.21524 0.24102 0.88846 0.0
C261 C 0.17175 0.26528 0.89 0.0
O262 O 0.18262 0.27103 0.88379 0.0
O263 O 0.17347 0.25796 0.90155 0.0
O264 O 0.21063 0.28618 0.8747 0.0
O265 O 0.21274 0.2903 0.89819 0.0
O266 O 0.76313 0.20585 0.9025 0.0
Cd267 Cd 0.74505 0.19578 0.91068 0.0
Cd268 Cd 0.7301 0.21367 0.89411 0.0
O269 O 0.7501 0.22399 0.89403 0.0
O270 O 0.74836 0.19086 0.93137 0.0
O271 O 0.73352 0.20838 0.92389 0.0
C272 C 0.73998 0.20171 0.93442 0.0
C273 C 0.70938 0.22828 0.8931 0.0
C274 C 0.7624 0.21838 0.89682 0.0
C275 C 0.73046 0.18163 0.88638 0.0
O276 O 0.72786 0.19462 0.88248 0.0
O277 O 0.7365 0.17911 0.89852 0.0
O278 O 0.71842 0.22756 0.88249 0.0
O279 O 0.71219 0.22092 0.90468 0.0
O280 O 0.80144 0.77172 0.90931 0.0
Cd281 Cd 0.81078 0.75349 0.91789 0.0
Cd282 Cd 0.79864 0.73893 0.89465 0.0
O283 O 0.78807 0.75891 0.89409 0.0
O284 O 0.80918 0.75374 0.9393 0.0
O285 O 0.79638 0.73903 0.92503 0.0
C286 C 0.79906 0.74411 0.93785 0.0
C287 C 0.78726 0.72009 0.88188 0.0
C288 C 0.79127 0.77097 0.90005 0.0
C289 C 0.83207 0.74119 0.89842 0.0
O290 O 0.8208 0.73743 0.89144 0.0
O291 O 0.83097 0.7479 0.91038 0.0
O292 O 0.79313 0.73095 0.87543 0.0
O293 O 0.7871 0.72009 0.89588 0.0
O294 O 0.75993 0.78003 0.09227 0.0
Cd295 Cd 0.74057 0.7891 0.08602 0.0
Cd296 Cd 0.7291 0.77025 0.10411 0.0
O297 O 0.74933 0.76066 0.10144 0.0
O298 O 0.74149 0.79402 0.06504 0.0
O299 O 0.72844 0.77587 0.07407 0.0
C300 C 0.73342 0.78273 0.06289 0.0
C301 C 0.70789 0.75657 0.10636 0.0
C302 C 0.76079 0.7673 0.0975 0.0
C303 C 0.72827 0.80219 0.11196 0.0
O304 O 0.72762 0.78907 0.11618 0.0
O305 O 0.73217 0.80517 0.09908 0.0
O306 O 0.71793 0.75616 0.11609 0.0
O307 O 0.71032 0.76399 0.09473 0.0
O308 O 0.20195 0.75832 0.10122 0.0
Cd309 Cd 0.19011 0.74277 0.09058 0.0
Cd310 Cd 0.20239 0.72415 0.10936 0.0
O311 O 0.21469 0.74249 0.11385 0.0
O312 O 0.18767 0.74903 0.07021 0.0
O313 O 0.20149 0.73039 0.07686 0.0
C314 C 0.19682 0.73897 0.06677 0.0
C315 C 0.21345 0.70165 0.11351 0.0
C316 C 0.2122 0.75552 0.11 0.0
C317 C 0.1696 0.7295 0.1107 0.0
O318 O 0.18099 0.7238 0.11594 0.0
O319 O 0.17036 0.73747 0.0995 0.0
O320 O 0.2099 0.71022 0.12392 0.0
O321 O 0.21131 0.70604 0.10039 0.0
O322 O 0.78236 0.23677 0.1028 0.0
Cd323 Cd 0.79351 0.25369 0.09358 0.0
Cd324 Cd 0.778 0.2699 0.11096 0.0
O325 O 0.76581 0.25105 0.11244 0.0
O326 O 0.79855 0.24802 0.07347 0.0
O327 O 0.78219 0.26491 0.07891 0.0
C328 C 0.7886 0.25696 0.06926 0.0
C329 C 0.76654 0.29251 0.11101 0.0
C330 C 0.77039 0.23837 0.10943 0.0
C331 C 0.81012 0.26696 0.11705 0.0
O332 O 0.79763 0.27042 0.12176 0.0
O333 O 0.81145 0.26099 0.10469 0.0
O334 O 0.76615 0.28405 0.12211 0.0
O335 O 0.7729 0.28789 0.09942 0.0
O336 O 0.59164 0.7325 0.70511 0.0
Cd337 Cd 0.58387 0.75083 0.69509 0.0
Cd338 Cd 0.60607 0.76428 0.708 0.0
O339 O 0.60604 0.74496 0.7196 0.0
O340 O 0.56244 0.74976 0.69436 0.0
O341 O 0.5746 0.765 0.70859 0.0
C342 C 0.56236 0.75942 0.70454 0.0
C343 C 0.61471 0.78515 0.71961 0.0
C344 C 0.60016 0.73301 0.71593 0.0
C345 C 0.60565 0.76112 0.67485 0.0
O346 O 0.61239 0.76411 0.6865 0.0
O347 O 0.59279 0.75622 0.67537 0.0
O348 O 0.62315 0.77463 0.71605 0.0
O349 O 0.60098 0.78361 0.7173 0.0
O350 O 0.26585 0.59944 0.72845 0.0
Cd351 Cd 0.24669 0.59461 0.71803 0.0
Cd352 Cd 0.2363 0.61325 0.7363 0.0
O353 O 0.25568 0.61023 0.74717 0.0
O354 O 0.24982 0.57525 0.70918 0.0
O355 O 0.23457 0.57919 0.72737 0.0
C356 C 0.24101 0.57014 0.7188 0.0
C357 C 0.21365 0.613 0.74737 0.0
C358 C 0.2669 0.60513 0.74097 0.0
C359 C 0.23718 0.62214 0.70511 0.0
O360 O 0.23674 0.6264 0.71822 0.0
O361 O 0.23962 0.60886 0.70226 0.0
O362 O 0.22287 0.62323 0.74988 0.0
O363 O 0.21771 0.60225 0.73932 0.0
O364 O 0.40466 0.26594 0.71072 0.0
Cd365 Cd 0.41012 0.24649 0.70136 0.0
Cd366 Cd 0.39257 0.23551 0.7209 0.0
O367 O 0.39489 0.25596 0.73012 0.0
O368 O 0.43019 0.2485 0.69393 0.0
O369 O 0.4242 0.23455 0.71265 0.0
C370 C 0.43415 0.2402 0.70452 0.0
C371 C 0.39191 0.21436 0.73482 0.0
C372 C 0.39925 0.26718 0.72334 0.0
C373 C 0.38355 0.23415 0.68934 0.0
O374 O 0.37981 0.23341 0.70259 0.0
O375 O 0.39625 0.23829 0.68592 0.0
O376 O 0.38176 0.22395 0.73558 0.0
O377 O 0.40309 0.21725 0.72689 0.0
O378 O 0.73647 0.40363 0.71547 0.0
Cd379 Cd 0.75646 0.40973 0.70777 0.0
Cd380 Cd 0.76628 0.39133 0.72694 0.0
O381 O 0.74548 0.39371 0.73526 0.0
O382 O 0.75514 0.4303 0.70158 0.0
O383 O 0.76726 0.42293 0.72108 0.0
C384 C 0.76234 0.43346 0.71321 0.0
C385 C 0.78681 0.38956 0.74161 0.0
C386 C 0.7346 0.39803 0.72793 0.0
C387 C 0.76932 0.38369 0.69523 0.0
O388 O 0.76898 0.37925 0.70828 0.0
O389 O 0.7658 0.39668 0.69221 0.0
O390 O 0.77692 0.37968 0.74167 0.0
O391 O 0.78453 0.40112 0.73402 0.0
O392 O 0.60728 0.26514 0.27138 0.0
Cd393 Cd 0.59782 0.2482 0.28238 0.0
Cd394 Cd 0.61668 0.2328 0.26786 0.0
O395 O 0.61821 0.25134 0.25527 0.0
O396 O 0.57858 0.25576 0.2881 0.0
O397 O 0.58154 0.23788 0.27227 0.0
C398 C 0.57299 0.24687 0.27884 0.0
C399 C 0.6168 0.20986 0.25719 0.0
C400 C 0.61451 0.26387 0.25973 0.0
C401 C 0.62107 0.23588 0.30012 0.0
O402 O 0.62677 0.23301 0.28789 0.0
O403 O 0.60826 0.24095 0.30073 0.0
O404 O 0.62799 0.21822 0.25677 0.0
O405 O 0.60509 0.21478 0.26312 0.0
O406 O 0.73607 0.59937 0.29454 0.0
Cd407 Cd 0.75279 0.58932 0.30528 0.0
Cd408 Cd 0.76948 0.60986 0.2935 0.0
O409 O 0.75074 0.61298 0.28143 0.0
O410 O 0.7491 0.56814 0.30578 0.0
O411 O 0.76632 0.57844 0.29236 0.0
C412 C 0.75916 0.56694 0.29607 0.0
C413 C 0.79161 0.6155 0.28236 0.0
C414 C 0.73805 0.60836 0.28427 0.0
C415 C 0.76478 0.60958 0.32639 0.0
O416 O 0.76936 0.61594 0.31505 0.0
O417 O 0.75823 0.5975 0.32536 0.0
O418 O 0.78241 0.62534 0.28598 0.0
O419 O 0.78807 0.60212 0.28452 0.0
O420 O 0.40461 0.72987 0.28343 0.0
Cd421 Cd 0.41038 0.74965 0.29185 0.0
Cd422 Cd 0.39182 0.76016 0.27249 0.0
O423 O 0.39408 0.73931 0.26412 0.0
O424 O 0.43136 0.74943 0.29695 0.0
O425 O 0.42209 0.76157 0.27829 0.0
C426 C 0.43335 0.75719 0.28542 0.0
C427 C 0.39015 0.78074 0.25773 0.0
C428 C 0.39873 0.72829 0.27106 0.0
C429 C 0.38428 0.7625 0.30447 0.0
O430 O 0.38005 0.76287 0.29134 0.0
O431 O 0.39708 0.7584 0.30755 0.0
O432 O 0.38007 0.77105 0.25791 0.0
O433 O 0.40175 0.77826 0.26517 0.0
O434 O 0.26408 0.40503 0.28628 0.0
Cd435 Cd 0.24649 0.41389 0.29669 0.0
Cd436 Cd 0.23218 0.39056 0.28613 0.0
O437 O 0.25111 0.38905 0.27408 0.0
O438 O 0.24926 0.43518 0.29726 0.0
O439 O 0.23251 0.4243 0.28373 0.0
C440 C 0.23917 0.43606 0.28757 0.0
C441 C 0.21105 0.38052 0.27611 0.0
C442 C 0.26318 0.39526 0.2766 0.0
C443 C 0.23691 0.39352 0.31893 0.0
O444 O 0.23315 0.38598 0.30802 0.0
O445 O 0.24202 0.40619 0.31718 0.0
O446 O 0.22195 0.37268 0.27986 0.0
O447 O 0.21232 0.39442 0.27729 0.0
O448 O 0.70267 0.59551 0.72983 0.0
Cd449 Cd 0.69352 0.58848 0.74883 0.0
Cd450 Cd 0.70829 0.61135 0.7612 0.0
O451 O 0.71785 0.61042 0.74079 0.0
O452 O 0.691 0.56724 0.74725 0.0
O453 O 0.70712 0.57769 0.76184 0.0
C454 C 0.70175 0.56601 0.75617 0.0
C455 C 0.72188 0.62316 0.77924 0.0
C456 C 0.71344 0.60409 0.72933 0.0
C457 C 0.67478 0.611 0.76055 0.0
O458 O 0.68677 0.61729 0.76308 0.0
O459 O 0.67454 0.59834 0.75513 0.0
O460 O 0.71659 0.62992 0.76826 0.0
O461 O 0.72007 0.60929 0.77981 0.0
O462 O 0.40892 0.70508 0.72908 0.0
Cd463 Cd 0.41536 0.69789 0.74919 0.0
Cd464 Cd 0.39418 0.71447 0.75938 0.0
O465 O 0.39597 0.72282 0.73854 0.0
O466 O 0.43685 0.69641 0.74989 0.0
O467 O 0.42416 0.71335 0.76144 0.0
C468 C 0.43661 0.70814 0.7576 0.0
C469 C 0.38771 0.73004 0.77836 0.0
C470 C 0.40154 0.71662 0.72752 0.0
C471 C 0.39136 0.68164 0.76182 0.0
O472 O 0.38539 0.69407 0.76219 0.0
O473 O 0.40448 0.68036 0.75778 0.0
O474 O 0.37888 0.72701 0.76797 0.0
O475 O 0.40065 0.72474 0.77773 0.0
O476 O 0.28787 0.39378 0.73647 0.0
Cd477 Cd 0.30007 0.40613 0.75041 0.0
Cd478 Cd 0.29074 0.38648 0.77025 0.0
O479 O 0.27736 0.38037 0.75324 0.0
O480 O 0.3012 0.42532 0.74088 0.0
O481 O 0.28956 0.42156 0.7616 0.0
C482 C 0.29295 0.43022 0.75108 0.0
C483 C 0.2816 0.38298 0.7937 0.0
C484 C 0.27863 0.38422 0.74005 0.0
C485 C 0.32303 0.38775 0.76242 0.0
O486 O 0.31252 0.38151 0.7688 0.0
O487 O 0.32079 0.39896 0.75472 0.0
O488 O 0.28534 0.37232 0.78552 0.0
O489 O 0.28261 0.39594 0.78846 0.0
O490 O 0.60814 0.28441 0.73683 0.0
Cd491 Cd 0.59544 0.29665 0.75041 0.0
Cd492 Cd 0.61551 0.28735 0.77048 0.0
O493 O 0.62142 0.27372 0.7536 0.0
O494 O 0.57695 0.29825 0.73964 0.0
O495 O 0.57902 0.28642 0.76047 0.0
C496 C 0.57118 0.29006 0.74942 0.0
C497 C 0.62015 0.27928 0.79414 0.0
C498 C 0.61764 0.2751 0.7404 0.0
C499 C 0.6138 0.31966 0.76226 0.0
O500 O 0.6202 0.30917 0.76851 0.0
O501 O 0.60247 0.31739 0.75476 0.0
O502 O 0.63038 0.28265 0.78529 0.0
O503 O 0.60698 0.27978 0.78941 0.0
O504 O 0.72267 0.40324 0.26088 0.0
Cd505 Cd 0.71254 0.41127 0.24273 0.0
Cd506 Cd 0.73012 0.39392 0.2285 0.0
O507 O 0.74079 0.394 0.24832 0.0
O508 O 0.70765 0.43201 0.24597 0.0
O509 O 0.72496 0.42445 0.23097 0.0
C510 C 0.71835 0.43503 0.23741 0.0
C511 C 0.74309 0.39308 0.20672 0.0
C512 C 0.73507 0.39722 0.26047 0.0
C513 C 0.69806 0.38661 0.22918 0.0
O514 O 0.711 0.38236 0.22701 0.0
O515 O 0.69567 0.39911 0.23451 0.0
O516 O 0.74336 0.3825 0.21583 0.0
O517 O 0.73608 0.40467 0.2103 0.0
O518 O 0.60338 0.72202 0.26831 0.0
Cd519 Cd 0.5957 0.71049 0.25087 0.0
Cd520 Cd 0.61402 0.72622 0.23585 0.0
O521 O 0.61391 0.7386 0.25466 0.0
O522 O 0.57488 0.70597 0.25403 0.0
O523 O 0.58289 0.72185 0.23774 0.0
C524 C 0.57213 0.71582 0.24441 0.0
C525 C 0.61479 0.73695 0.21289 0.0
C526 C 0.60999 0.73407 0.26711 0.0
C527 C 0.62043 0.69424 0.23959 0.0
O528 O 0.62516 0.7068 0.23641 0.0
O529 O 0.60769 0.6927 0.24461 0.0
O530 O 0.62548 0.73802 0.22183 0.0
O531 O 0.60319 0.73044 0.21725 0.0
O532 O 0.2897 0.59738 0.26086 0.0
Cd533 Cd 0.30109 0.58674 0.24492 0.0
Cd534 Cd 0.29086 0.60719 0.22733 0.0
O535 O 0.27816 0.61151 0.24539 0.0
O536 O 0.30119 0.56566 0.24919 0.0
O537 O 0.28885 0.57557 0.23096 0.0
C538 C 0.29212 0.56423 0.23858 0.0
C539 C 0.28082 0.612 0.20449 0.0
C540 C 0.28008 0.60692 0.25827 0.0
C541 C 0.32338 0.60621 0.23364 0.0
O542 O 0.31251 0.61272 0.22821 0.0
O543 O 0.32163 0.59439 0.2405 0.0
O544 O 0.28433 0.6222 0.21334 0.0
O545 O 0.28245 0.59876 0.20877 0.0
O546 O 0.39796 0.27938 0.26398 0.0
Cd547 Cd 0.40537 0.29153 0.2468 0.0
Cd548 Cd 0.38672 0.27638 0.23201 0.0
O549 O 0.38675 0.26334 0.25029 0.0
O550 O 0.42521 0.29779 0.25208 0.0
O551 O 0.4205 0.28233 0.23423 0.0
C552 C 0.42991 0.28906 0.24218 0.0
C553 C 0.38674 0.26622 0.20884 0.0
C554 C 0.39111 0.26749 0.26271 0.0
C555 C 0.38034 0.30814 0.2364 0.0
O556 O 0.37536 0.29568 0.23315 0.0
O557 O 0.39325 0.30939 0.24105 0.0
O558 O 0.3758 0.26487 0.21743 0.0
O559 O 0.39812 0.27284 0.21362 0.0
O560 O 0.72815 0.71123 0.59237 0.0
Cd561 Cd 0.74796 0.70235 0.58734 0.0
Cd562 Cd 0.75718 0.71638 0.61056 0.0
O563 O 0.73758 0.72706 0.60761 0.0
O564 O 0.74974 0.70115 0.56597 0.0
O565 O 0.76225 0.71663 0.57963 0.0
C566 C 0.75857 0.71202 0.56688 0.0
C567 C 0.77707 0.72865 0.62049 0.0
C568 C 0.72676 0.72232 0.60044 0.0
C569 C 0.75591 0.68329 0.61108 0.0
O570 O 0.75681 0.69523 0.61792 0.0
O571 O 0.7534 0.68324 0.59754 0.0
O572 O 0.76552 0.72609 0.62789 0.0
O573 O 0.77704 0.72512 0.60693 0.0
O574 O 0.73403 0.2848 0.39739 0.0
Cd575 Cd 0.75113 0.29616 0.40595 0.0
Cd576 Cd 0.7669 0.28007 0.38817 0.0
O577 O 0.74772 0.26842 0.38666 0.0
O578 O 0.74496 0.30185 0.4257 0.0
O579 O 0.76245 0.28587 0.42132 0.0
C580 C 0.75408 0.29236 0.43054 0.0
C581 C 0.78897 0.26763 0.38776 0.0
C582 C 0.73525 0.27299 0.3904 0.0
C583 C 0.7646 0.31239 0.38219 0.0
O584 O 0.76808 0.29983 0.37764 0.0
O585 O 0.75831 0.31387 0.39438 0.0
O586 O 0.78044 0.26785 0.37671 0.0
O587 O 0.78475 0.27404 0.39948 0.0
O588 O 0.71766 0.73366 0.40875 0.0
Cd589 Cd 0.70884 0.75335 0.41424 0.0
Cd590 Cd 0.72682 0.76382 0.39431 0.0
O591 O 0.73591 0.74329 0.39663 0.0
O592 O 0.70487 0.75376 0.43547 0.0
O593 O 0.72247 0.76628 0.42479 0.0
C594 C 0.71613 0.76207 0.43657 0.0
C595 C 0.74092 0.78468 0.39121 0.0
C596 C 0.72966 0.73224 0.4021 0.0
C597 C 0.6944 0.76476 0.38841 0.0
O598 O 0.70728 0.76559 0.38353 0.0
O599 O 0.69212 0.76091 0.40145 0.0
O600 O 0.74041 0.77469 0.38144 0.0
O601 O 0.73419 0.7824 0.40327 0.0
O602 O 0.26245 0.72353 0.39201 0.0
Cd603 Cd 0.24569 0.71105 0.39976 0.0
Cd604 Cd 0.2302 0.72722 0.38241 0.0
O605 O 0.24845 0.74032 0.38242 0.0
O606 O 0.25275 0.70354 0.4186 0.0
O607 O 0.23466 0.71929 0.4166 0.0
C608 C 0.24353 0.71211 0.42477 0.0
C609 C 0.20696 0.73719 0.38329 0.0
C610 C 0.26101 0.73581 0.38594 0.0
C611 C 0.23447 0.6958 0.37427 0.0
O612 O 0.23111 0.70851 0.37009 0.0
O613 O 0.23945 0.6938 0.38697 0.0
O614 O 0.21536 0.73911 0.37229 0.0
O615 O 0.21202 0.73015 0.39431 0.0
O616 O 0.28818 0.27394 0.40491 0.0
Cd617 Cd 0.2961 0.25404 0.411 0.0
Cd618 Cd 0.27716 0.24332 0.39227 0.0
O619 O 0.26913 0.26431 0.39413 0.0
O620 O 0.30081 0.25442 0.432 0.0
O621 O 0.28211 0.24242 0.42262 0.0
C622 C 0.28914 0.24686 0.43392 0.0
C623 C 0.26116 0.22387 0.38918 0.0
C624 C 0.27594 0.27542 0.39874 0.0
C625 C 0.30931 0.24056 0.38554 0.0
O626 O 0.29627 0.24002 0.38106 0.0
O627 O 0.31211 0.24507 0.39826 0.0
O628 O 0.26267 0.23377 0.37944 0.0
O629 O 0.26823 0.22532 0.40118 0.0
O630 O 0.2586 0.27111 0.60499 0.0
Cd631 Cd 0.24078 0.28275 0.59837 0.0
Cd632 Cd 0.22697 0.26524 0.61532 0.0
O633 O 0.24568 0.25297 0.6136 0.0
O634 O 0.24515 0.29046 0.57878 0.0
O635 O 0.22894 0.27311 0.583 0.0
C636 C 0.23618 0.28088 0.57382 0.0
C637 C 0.20389 0.25496 0.61494 0.0
C638 C 0.25792 0.25836 0.6102 0.0
C639 C 0.23002 0.29625 0.6249 0.0
O640 O 0.22785 0.28317 0.62868 0.0
O641 O 0.23395 0.29913 0.612 0.0
O642 O 0.21289 0.25234 0.6253 0.0
O643 O 0.20831 0.26274 0.60415 0.0
O644 O 0.73338 0.26307 0.6055 0.0
Cd645 Cd 0.72075 0.24622 0.59813 0.0
Cd646 Cd 0.73824 0.23076 0.61388 0.0
O647 O 0.75103 0.2492 0.61364 0.0
O648 O 0.71223 0.25309 0.57964 0.0
O649 O 0.72837 0.23528 0.581 0.0
C650 C 0.72061 0.24393 0.57313 0.0
C651 C 0.74786 0.20754 0.61117 0.0
C652 C 0.74604 0.26175 0.61079 0.0
C653 C 0.70746 0.23395 0.62423 0.0
O654 O 0.72051 0.23096 0.62754 0.0
O655 O 0.70453 0.23912 0.61178 0.0
O656 O 0.75082 0.21546 0.62231 0.0
O657 O 0.74009 0.21317 0.60095 0.0
O658 O 0.2815 0.73552 0.60331 0.0
Cd659 Cd 0.29495 0.74938 0.5922 0.0
Cd660 Cd 0.28683 0.76794 0.61521 0.0
O661 O 0.27318 0.7507 0.61985 0.0
O662 O 0.29756 0.73931 0.57338 0.0
O663 O 0.28646 0.76051 0.57537 0.0
C664 C 0.29048 0.74974 0.56733 0.0
C665 C 0.27917 0.79108 0.62258 0.0
C666 C 0.27323 0.73821 0.61399 0.0
C667 C 0.31864 0.75859 0.61187 0.0
O668 O 0.30871 0.76507 0.6189 0.0
O669 O 0.31569 0.7519 0.60019 0.0
O670 O 0.28278 0.78118 0.63171 0.0
O671 O 0.27928 0.78775 0.60897 0.0
C672 C 0.95979 0.21409 0.25672 0.0
C673 C 0.94762 0.2221 0.26119 0.0
C674 C 0.97307 0.22101 0.2544 0.0
C675 C 0.98602 0.25465 0.24038 0.0
H676 H 0.02413 0.24007 0.25069 0.0
C677 C 0.05066 0.26365 0.22599 0.0
C678 C 0.05038 0.26044 0.21106 0.0
C679 C 0.03803 0.26258 0.2343 0.0
C680 C 0.01357 0.24444 0.24791 0.0
H681 H 0.93996 0.24344 0.26755 0.0
H682 H 0.96315 0.2556 0.26309 0.0
H683 H 0.00261 0.23034 0.26285 0.0
H684 H 0.03648 0.25486 0.19292 0.0
H685 H 0.01432 0.2534 0.20741 0.0
H686 H 0.99691 0.26802 0.22473 0.0
C687 C 0.9624 0.24397 0.26156 0.0
C688 C 0.0013 0.23883 0.25481 0.0
C689 C 0.94919 0.23698 0.26418 0.0
C690 C 0.03702 0.25736 0.2044 0.0
C691 C 0.02435 0.25656 0.21268 0.0
C692 C 0.99828 0.26007 0.23328 0.0
C693 C 0.97432 0.2361 0.25625 0.0
C694 C 0.98741 0.24367 0.25088 0.0
C695 C 0.02486 0.25861 0.22778 0.0
C696 C 0.01213 0.25477 0.23678 0.0
H697 H 0.95887 0.20261 0.25433 0.0
H698 H 0.98208 0.21472 0.25022 0.0
H699 H 0.9754 0.25844 0.23706 0.0
H700 H 0.0608 0.26602 0.23144 0.0
H701 H 0.03866 0.26427 0.24592 0.0
C702 C 0.76693 0.94569 0.25881 0.0
C703 C 0.77801 0.93961 0.25022 0.0
C704 C 0.76174 0.95967 0.25586 0.0
C705 C 0.75753 0.98394 0.22501 0.0
H706 H 0.75216 0.01496 0.25293 0.0
C707 C 0.75252 0.04341 0.2081 0.0
C708 C 0.7442 0.05303 0.21649 0.0
C709 C 0.75404 0.02894 0.21226 0.0
C710 C 0.75328 0.00631 0.24504 0.0
H711 H 0.79301 0.94381 0.23254 0.0
H712 H 0.78394 0.96807 0.22746 0.0
H713 H 0.76082 0.99122 0.26114 0.0
H714 H 0.73018 0.05483 0.23531 0.0
H715 H 0.73266 0.02939 0.24247 0.0
H716 H 0.75008 0.99886 0.20889 0.0
C717 C 0.77914 0.96197 0.23629 0.0
C718 C 0.75833 0.99277 0.24975 0.0
C719 C 0.78439 0.94811 0.23929 0.0
C720 C 0.73669 0.04767 0.22864 0.0
C721 C 0.73822 0.03314 0.23282 0.0
C722 C 0.75237 0.99738 0.22033 0.0
C723 C 0.76746 0.96769 0.24423 0.0
C724 C 0.76087 0.98162 0.23969 0.0
C725 C 0.74724 0.02372 0.22488 0.0
C726 C 0.75057 0.00886 0.23021 0.0
H727 H 0.76179 0.9394 0.26731 0.0
H728 H 0.75277 0.9639 0.26217 0.0
H729 H 0.75909 0.97539 0.21708 0.0
H730 H 0.75844 0.04718 0.19867 0.0
H731 H 0.7612 0.02206 0.20596 0.0
C732 C 0.04443 0.76608 0.26094 0.0
C733 C 0.04771 0.78096 0.26041 0.0
C734 C 0.03082 0.76107 0.2565 0.0
C735 C 0.00133 0.77319 0.23217 0.0
H736 H 0.98377 0.7366 0.24325 0.0
C737 C 0.95691 0.74885 0.19674 0.0
C738 C 0.94488 0.7428 0.20382 0.0
C739 C 0.96964 0.75177 0.2044 0.0
C740 C 0.98845 0.7469 0.24009 0.0
H741 H 0.03891 0.8024 0.25648 0.0
H742 H 0.01487 0.79378 0.24964 0.0
H743 H 0.00399 0.7462 0.25735 0.0
H744 H 0.93694 0.73428 0.22425 0.0
H745 H 0.95896 0.73986 0.23781 0.0
H746 H 0.98552 0.77429 0.21534 0.0
C747 C 0.02299 0.78587 0.25272 0.0
C748 C 0.00016 0.75236 0.24811 0.0
C749 C 0.03671 0.79085 0.25682 0.0
C750 C 0.94611 0.73887 0.2185 0.0
C751 C 0.95876 0.74208 0.22627 0.0
C752 C 0.98955 0.76786 0.22432 0.0
C753 C 0.02013 0.77087 0.25171 0.0
C754 C 0.00684 0.76553 0.24417 0.0
C755 C 0.9705 0.74906 0.21942 0.0
C756 C 0.98307 0.75455 0.228 0.0
H757 H 0.05275 0.7582 0.26359 0.0
H758 H 0.02911 0.74946 0.25586 0.0
H759 H 0.00629 0.7832 0.22853 0.0
H760 H 0.95629 0.75186 0.18539 0.0
H761 H 0.97863 0.75666 0.19863 0.0
C762 C 0.242 0.94604 0.20676 0.0
C763 C 0.25146 0.93781 0.21542 0.0
C764 C 0.23873 0.96035 0.21042 0.0
C765 C 0.24923 0.99183 0.23286 0.0
H766 H 0.20794 -6e-05 0.23123 0.0
C767 C 0.22421 0.04608 0.25318 0.0
C768 C 0.21425 0.05246 0.24354 0.0
C769 C 0.22897 0.0318 0.25097 0.0
C770 C 0.21951 0.99789 0.23168 0.0
H771 H 0.26573 0.93844 0.23413 0.0
H772 H 0.25997 0.96356 0.24056 0.0
H773 H 0.21686 0.97614 0.22411 0.0
H774 H 0.20115 0.04877 0.22432 0.0
H775 H 0.20938 0.02403 0.22051 0.0
H776 H 0.25181 0.01374 0.24032 0.0
C777 C 0.25509 0.9589 0.23093 0.0
C778 C 0.22463 0.98427 0.22754 0.0
C779 C 0.25841 0.94452 0.22724 0.0
C780 C 0.20882 0.04417 0.23196 0.0
C781 C 0.21349 0.02995 0.22981 0.0
C782 C 0.24408 0.00553 0.23699 0.0
C783 C 0.2448 0.96676 0.22286 0.0
C784 C 0.23956 0.98116 0.22783 0.0
C785 C 0.22375 0.02364 0.23917 0.0
C786 C 0.22918 0.00877 0.2362 0.0
H787 H 0.23659 0.94123 0.19749 0.0
H788 H 0.23105 0.96627 0.20377 0.0
H789 H 0.26079 0.98974 0.2332 0.0
H790 H 0.22863 0.05223 0.26217 0.0
H791 H 0.23679 0.02718 0.25843 0.0
C792 C 0.95992 0.78632 0.73932 0.0
C793 C 0.94655 0.7792 0.73767 0.0
C794 C 0.97283 0.77839 0.7395 0.0
C795 C 0.98506 0.74414 0.75292 0.0
H796 H 0.02231 0.75592 0.73728 0.0
C797 C 0.05056 0.73267 0.76022 0.0
C798 C 0.05197 0.73659 0.77491 0.0
C799 C 0.03713 0.73377 0.75325 0.0
C800 C 0.01196 0.75229 0.74152 0.0
H801 H 0.93626 0.75835 0.73387 0.0
H802 H 0.95886 0.74447 0.73453 0.0
H803 H 1e-05 0.76658 0.72756 0.0
H804 H 0.04028 0.74347 0.79413 0.0
H805 H 0.01676 0.745 0.78205 0.0
H806 H 0.99707 0.73063 0.76759 0.0
C807 C 0.95932 0.75618 0.73557 0.0
C808 C 0.99924 0.75845 0.73602 0.0
C809 C 0.94641 0.76415 0.73512 0.0
C810 C 0.03951 0.7404 0.7828 0.0
C811 C 0.02604 0.74123 0.7759 0.0
C812 C 0.99779 0.73817 0.75859 0.0
C813 C 0.97257 0.76318 0.73828 0.0
C814 C 0.98572 0.75471 0.74194 0.0
C815 C 0.02486 0.7385 0.76094 0.0
C816 C 0.01137 0.74249 0.75321 0.0
H817 H 0.96034 0.7979 0.74128 0.0
H818 H 0.9829 0.78405 0.74169 0.0
H819 H 0.97478 0.74118 0.75778 0.0
H820 H 0.06 0.72975 0.75385 0.0
H821 H 0.03646 0.73156 0.74172 0.0
C822 C 0.2501 0.05081 0.78975 0.0
C823 C 0.25864 0.05988 0.78098 0.0
C824 C 0.24772 0.03638 0.78586 0.0
C825 C 0.24607 0.01379 0.75309 0.0
H826 H 0.23713 0.98385 0.78128 0.0
C827 C 0.22438 0.95497 0.74076 0.0
C828 C 0.21204 0.95131 0.749 0.0
C829 C 0.2318 0.96798 0.7434 0.0
C830 C 0.23964 0.99211 0.7733 0.0
H831 H 0.27234 0.06064 0.76186 0.0
H832 H 0.2684 0.03525 0.75518 0.0
H833 H 0.24904 0.0061 0.78922 0.0
H834 H 0.19734 0.95884 0.76581 0.0
H835 H 0.21036 0.98134 0.77045 0.0
H836 H 0.23654 -0.00038 0.73721 0.0
C837 C 0.26329 0.03942 0.76491 0.0
C838 C 0.24643 0.00486 0.77782 0.0
C839 C 0.26567 0.05392 0.76882 0.0
C840 C 0.20682 0.96127 0.7593 0.0
C841 C 0.21432 0.97411 0.76205 0.0
C842 C 0.23944 0.0009 0.74853 0.0
C843 C 0.25389 0.03063 0.77313 0.0
C844 C 0.24926 0.01608 0.76788 0.0
C845 C 0.22709 0.97738 0.75443 0.0
C846 C 0.23574 0.99019 0.7587 0.0
H847 H 0.24455 0.05505 0.79921 0.0
H848 H 0.2403 0.03003 0.7924 0.0
H849 H 0.24796 0.02224 0.74515 0.0
H850 H 0.22867 0.94751 0.73275 0.0
H851 H 0.2416 0.97035 0.73735 0.0
C852 C 0.035 0.20964 0.74101 0.0
C853 C 0.04742 0.21784 0.73772 0.0
C854 C 0.02147 0.21639 0.74216 0.0
C855 C 0.99319 0.23413 0.73932 0.0
H856 H 0.99481 0.26297 0.77002 0.0
C857 C 0.94165 0.25969 0.76374 0.0
C858 C 0.94036 0.25573 0.77842 0.0
C859 C 0.95501 0.25851 0.75664 0.0
C860 C 0.99424 0.25513 0.76127 0.0
H861 H 0.05528 0.23934 0.73212 0.0
H862 H 0.03166 0.25114 0.73454 0.0
H863 H 0.01736 0.25348 0.75963 0.0
H864 H 0.95214 0.24863 0.7975 0.0
H865 H 0.97559 0.24708 0.78521 0.0
H866 H 0.97006 0.23547 0.74128 0.0
C867 C 0.03242 0.23951 0.73608 0.0
C868 C 0.00709 0.24975 0.75529 0.0
C869 C 0.0459 0.23272 0.73465 0.0
C870 C 0.95284 0.25174 0.78618 0.0
C871 C 0.96625 0.25088 0.77917 0.0
C872 C 0.98034 0.23974 0.74509 0.0
C873 C 0.0202 0.23147 0.74028 0.0
C874 C 0.00666 0.2389 0.74458 0.0
C875 C 0.96731 0.25373 0.76423 0.0
C876 C 0.98078 0.24995 0.75641 0.0
H877 H 0.03585 0.19816 0.74341 0.0
H878 H 0.0122 0.20997 0.74549 0.0
H879 H 0.99263 0.22575 0.73109 0.0
H880 H 0.93217 0.26272 0.75747 0.0
H881 H 0.95562 0.26077 0.74512 0.0
C882 C 0.77914 0.03731 0.74059 0.0
C883 C 0.771 0.04942 0.73619 0.0
C884 C 0.77246 0.02381 0.74231 0.0
C885 C 0.73884 0.00998 0.75518 0.0
H886 H 0.75468 0.97232 0.74501 0.0
C887 C 0.73911 0.95941 0.79148 0.0
C888 C 0.73628 0.94584 0.78514 0.0
C889 C 0.73899 0.97198 0.78302 0.0
C890 C 0.74994 0.98274 0.74772 0.0
H891 H 0.74973 0.05677 0.72928 0.0
H892 H 0.73797 0.03319 0.73272 0.0
H893 H 0.76391 0.99417 0.73301 0.0
H894 H 0.73031 0.93483 0.76521 0.0
H895 H 0.73056 0.95685 0.75031 0.0
H896 H 0.72569 0.99866 0.77071 0.0
C897 C 0.74953 0.03415 0.73465 0.0
C898 C 0.75527 0.99521 0.74091 0.0
C899 C 0.75628 0.04759 0.73262 0.0
C900 C 0.73242 0.94517 0.77039 0.0
C901 C 0.73264 0.95772 0.76185 0.0
C902 C 0.73371 0.99754 0.76219 0.0
C903 C 0.75748 0.02227 0.73992 0.0
C904 C 0.75002 0.00895 0.74487 0.0
C905 C 0.73635 0.97115 0.76803 0.0
C906 C 0.73949 0.98387 0.75877 0.0
H907 H 0.7905 0.03842 0.74341 0.0
H908 H 0.7788 0.01483 0.74649 0.0
H909 H 0.73473 0.02048 0.75853 0.0
H910 H 0.74212 0.96021 0.80282 0.0
H911 H 0.74199 0.9822 0.78801 0.0
C912 C 0.26253 0.23754 0.04925 0.0
C913 C 0.26176 0.22288 0.05335 0.0
C914 C 0.2586 0.24179 0.03522 0.0
C915 C 0.23539 0.22808 0.00544 0.0
H916 H 0.24697 0.26393 0.98673 0.0
C917 C 0.20125 0.25064 0.95909 0.0
C918 C 0.20857 0.25658 0.94715 0.0
C919 C 0.20861 0.24802 0.97206 0.0
C920 C 0.24369 0.25381 0.99172 0.0
H921 H 0.25791 0.201 0.04568 0.0
H922 H 0.25204 0.20824 0.02094 0.0
H923 H 0.26038 0.25527 0.00781 0.0
H924 H 0.22911 0.26511 0.93954 0.0
H925 H 0.24217 0.26001 0.96199 0.0
H926 H 0.21918 0.22618 0.98909 0.0
C927 C 0.25488 0.2166 0.0287 0.0
C928 C 0.2513 0.2489 0.00393 0.0
C929 C 0.25844 0.2124 0.04282 0.0
C930 C 0.22319 0.26062 0.94865 0.0
C931 C 0.23067 0.25768 0.96154 0.0
C932 C 0.22798 0.23283 0.99315 0.0
C933 C 0.25411 0.23141 0.02494 0.0
C934 C 0.24713 0.23605 0.01108 0.0
C935 C 0.22357 0.2509 0.97326 0.0
C936 C 0.23182 0.24589 0.98625 0.0
H937 H 0.26497 0.24586 0.05719 0.0
H938 H 0.25812 0.25328 0.03285 0.0
H939 H 0.23158 0.2183 0.01072 0.0
H940 H 0.18994 0.24756 0.95824 0.0
H941 H 0.20263 0.2433 0.981 0.0
C942 C 0.25472 0.76728 0.95073 0.0
C943 C 0.25383 0.78235 0.94868 0.0
C944 C 0.25101 0.76115 0.96413 0.0
C945 C 0.22764 0.77071 0.99517 0.0
H946 H 0.24047 0.73377 0.01069 0.0
C947 C 0.19518 0.74439 0.04038 0.0
C948 C 0.20311 0.73874 0.05207 0.0
C949 C 0.20203 0.74738 0.02722 0.0
C950 C 0.23682 0.74414 0.00654 0.0
H951 H 0.25007 0.80298 0.95928 0.0
H952 H 0.24455 0.79244 0.98288 0.0
H953 H 0.25338 0.7446 0.99019 0.0
H954 H 0.22416 0.73086 0.05896 0.0
H955 H 0.23632 0.7366 0.03614 0.0
H956 H 0.2115 0.77067 0.01168 0.0
C957 C 0.24734 0.78522 0.97403 0.0
C958 C 0.24416 0.75031 0.99472 0.0
C959 C 0.25068 0.7913 0.96058 0.0
C960 C 0.21778 0.73515 0.05006 0.0
C961 C 0.22475 0.73844 0.03696 0.0
C962 C 0.22045 0.76466 0.007 0.0
C963 C 0.2466 0.77005 0.97575 0.0
C964 C 0.23963 0.76368 0.98887 0.0
C965 C 0.21706 0.74517 0.0256 0.0
C966 C 0.22481 0.75123 0.01277 0.0
H967 H 0.25702 0.76015 0.94166 0.0
H968 H 0.25057 0.74944 0.965 0.0
H969 H 0.22355 0.78084 0.99083 0.0
H970 H 0.18381 0.7471 0.04162 0.0
H971 H 0.19565 0.75206 0.01853 0.0
C972 C 0.74398 0.19906 0.96107 0.0
C973 C 0.73973 0.20768 0.94927 0.0
C974 C 0.74701 0.20541 0.9745 0.0
C975 C 0.74625 0.24048 0.99523 0.0
H976 H 0.78009 0.22337 0.0134 0.0
C977 C 0.76851 0.25869 0.05123 0.0
C978 C 0.78328 0.25636 0.05419 0.0
C979 C 0.76263 0.25454 0.03786 0.0
C980 C 0.7708 0.2285 0.00837 0.0
H981 H 0.73437 0.22956 0.94246 0.0
H982 H 0.74019 0.24073 0.96565 0.0
H983 H 0.76981 0.21207 0.99215 0.0
H984 H 0.80377 0.24931 0.04511 0.0
H985 H 0.79376 0.24293 0.0215 0.0
H986 H 0.74779 0.25735 0.01115 0.0
C987 C 0.7409 0.22904 0.96475 0.0
C988 C 0.76463 0.22177 0.99631 0.0
C989 C 0.73757 0.22263 0.95141 0.0
C990 C 0.79231 0.25108 0.04314 0.0
C991 C 0.78651 0.24725 0.02968 0.0
C992 C 0.75257 0.24736 0.00722 0.0
C993 C 0.74622 0.22058 0.9763 0.0
C994 C 0.75223 0.22759 0.98959 0.0
C995 C 0.77147 0.24822 0.02712 0.0
C996 C 0.76495 0.24145 0.01395 0.0
H997 H 0.74559 0.18748 0.95975 0.0
H998 H 0.75056 0.19846 0.98328 0.0
H999 H 0.73665 0.24525 0.99043 0.0
H1000 H 0.76128 0.26265 0.05961 0.0
H1001 H 0.75101 0.25543 0.03637 0.0
C1002 C 0.79435 0.74314 0.96447 0.0
C1003 C 0.78952 0.74069 0.95023 0.0
C1004 C 0.78452 0.7431 0.97599 0.0
C1005 C 0.74824 0.75451 0.98285 0.0
H1006 H 0.7553 0.7395 0.02153 0.0
C1007 C 0.73643 0.7845 0.03601 0.0
C1008 C 0.73204 0.77647 0.0482 0.0
C1009 C 0.73873 0.77758 0.02272 0.0
C1010 C 0.75296 0.74354 0.01074 0.0
H1011 H 0.77082 0.73543 0.93694 0.0
H1012 H 0.75354 0.73577 0.95713 0.0
H1013 H 0.76942 0.73023 0.00107 0.0
H1014 H 0.72538 0.75516 0.05573 0.0
H1015 H 0.7297 0.74305 0.03254 0.0
H1016 H 0.73254 0.76861 0.99271 0.0
C1017 C 0.76495 0.73754 0.95934 0.0
C1018 C 0.76109 0.73829 0.99908 0.0
C1019 C 0.77485 0.73726 0.94783 0.0
C1020 C 0.72878 0.76164 0.04653 0.0
C1021 C 0.73131 0.75468 0.03329 0.0
C1022 C 0.74026 0.75994 0.99456 0.0
C1023 C 0.76965 0.74088 0.97344 0.0
C1024 C 0.7591 0.74405 0.98512 0.0
C1025 C 0.73686 0.76249 0.02145 0.0
C1026 C 0.74286 0.7548 0.00867 0.0
H1027 H 0.8056 0.74582 0.9666 0.0
H1028 H 0.78841 0.74582 0.98676 0.0
H1029 H 0.74659 0.75922 0.9722 0.0
H1030 H 0.73897 0.79594 0.03696 0.0
H1031 H 0.74308 0.78385 0.01377 0.0
C1032 C 0.5354 0.75892 0.70642 0.0
C1033 C 0.54888 0.76227 0.71268 0.0
C1034 C 0.52295 0.75818 0.71501 0.0
C1035 C 0.51358 0.74629 0.75071 0.0
H1036 H 0.47454 0.75665 0.73893 0.0
C1037 C 0.44937 0.7315 0.76276 0.0
C1038 C 0.45007 0.71649 0.76002 0.0
C1039 C 0.46179 0.74012 0.76146 0.0
C1040 C 0.48537 0.75391 0.74259 0.0
H1041 H 0.55978 0.76846 0.7326 0.0
H1042 H 0.53799 0.76682 0.74771 0.0
H1043 H 0.49529 0.76814 0.72708 0.0
H1044 H 0.46451 0.69856 0.75518 0.0
H1045 H 0.48621 0.71356 0.75319 0.0
H1046 H 0.50366 0.7313 0.7655 0.0
C1047 C 0.53708 0.7649 0.73615 0.0
C1048 C 0.49723 0.76043 0.73575 0.0
C1049 C 0.54951 0.76592 0.72748 0.0
C1050 C 0.46363 0.71009 0.7573 0.0
C1051 C 0.47607 0.71868 0.75622 0.0
C1052 C 0.50173 0.73963 0.75742 0.0
C1053 C 0.5238 0.76054 0.73006 0.0
C1054 C 0.51143 0.75631 0.7394 0.0
C1055 C 0.47514 0.73385 0.75766 0.0
C1056 C 0.48752 0.74302 0.75307 0.0
H1057 H 0.53462 0.75608 0.69504 0.0
H1058 H 0.51288 0.75469 0.71005 0.0
H1059 H 0.52443 0.74283 0.75366 0.0
H1060 H 0.43907 0.73675 0.76487 0.0
H1061 H 0.46081 0.75178 0.76271 0.0
C1062 C 0.28908 0.45317 0.73731 0.0
C1063 C 0.28637 0.4448 0.74977 0.0
C1064 C 0.28135 0.46592 0.73478 0.0
C1065 C 0.26056 0.49494 0.75161 0.0
H1066 H 0.24531 0.49985 0.71265 0.0
C1067 C 0.23418 0.54874 0.73412 0.0
C1068 C 0.24005 0.55431 0.72118 0.0
C1069 C 0.23626 0.53415 0.73784 0.0
C1070 C 0.24948 0.49865 0.72358 0.0
H1071 H 0.2739 0.44364 0.76971 0.0
H1072 H 0.26054 0.46625 0.76537 0.0
H1073 H 0.25698 0.47707 0.7194 0.0
H1074 H 0.2516 0.54872 0.70145 0.0
H1075 H 0.25525 0.52346 0.70789 0.0
H1076 H 0.2537 0.51677 0.7556 0.0
C1077 C 0.26857 0.46276 0.75752 0.0
C1078 C 0.25617 0.48562 0.72743 0.0
C1079 C 0.27624 0.44986 0.76001 0.0
C1080 C 0.24699 0.54478 0.71152 0.0
C1081 C 0.24902 0.53024 0.7152 0.0
C1082 C 0.25396 0.50805 0.74772 0.0
C1083 C 0.27081 0.47068 0.74469 0.0
C1084 C 0.26215 0.4838 0.74134 0.0
C1085 C 0.24415 0.52488 0.72864 0.0
C1086 C 0.24873 0.5102 0.73352 0.0
H1087 H 0.29683 0.44964 0.72921 0.0
H1088 H 0.28351 0.472 0.72494 0.0
H1089 H 0.2651 0.49381 0.7624 0.0
H1090 H 0.22875 0.55581 0.74178 0.0
H1091 H 0.23217 0.53028 0.74816 0.0
C1092 C 0.45382 0.2332 0.72193 0.0
C1093 C 0.44966 0.23899 0.70844 0.0
C1094 C 0.46799 0.23507 0.72704 0.0
C1095 C 0.50492 0.24758 0.71619 0.0
H1096 H 0.50627 0.26332 0.75525 0.0
C1097 C 0.54923 0.28678 0.734 0.0
C1098 C 0.55661 0.28378 0.747 0.0
C1099 C 0.53663 0.27925 0.7304 0.0
C1100 C 0.5061 0.25875 0.74442 0.0
H1101 H 0.45736 0.25017 0.68921 0.0
H1102 H 0.4819 0.2535 0.69808 0.0
H1103 H 0.48389 0.25225 0.74632 0.0
H1104 H 0.55611 0.27106 0.76682 0.0
H1105 H 0.53371 0.25806 0.7606 0.0
H1106 H 0.5269 0.25476 0.71408 0.0
C1107 C 0.47434 0.24747 0.70476 0.0
C1108 C 0.49332 0.25233 0.73931 0.0
C1109 C 0.46021 0.24563 0.69968 0.0
C1110 C 0.55066 0.27361 0.75672 0.0
C1111 C 0.53789 0.26615 0.75316 0.0
C1112 C 0.51761 0.2541 0.72126 0.0
C1113 C 0.47827 0.24269 0.71872 0.0
C1114 C 0.49247 0.24706 0.72498 0.0
C1115 C 0.53102 0.26864 0.73977 0.0
C1116 C 0.51818 0.26012 0.73526 0.0
H1117 H 0.44594 0.22798 0.72892 0.0
H1118 H 0.47075 0.23103 0.73773 0.0
H1119 H 0.50473 0.24337 0.70522 0.0
H1120 H 0.55346 0.29458 0.72629 0.0
H1121 H 0.53135 0.28159 0.72015 0.0
C1122 C 0.75928 0.46003 0.70907 0.0
C1123 C 0.76268 0.44858 0.71852 0.0
C1124 C 0.75569 0.47368 0.71458 0.0
C1125 C 0.75277 0.49613 0.74827 0.0
H1126 H 0.71815 0.51003 0.72882 0.0
C1127 C 0.72405 0.55117 0.76032 0.0
C1128 C 0.70902 0.55184 0.75784 0.0
C1129 C 0.73165 0.53825 0.75784 0.0
C1130 C 0.72769 0.50621 0.73453 0.0
H1131 H 0.76629 0.44275 0.74104 0.0
H1132 H 0.75963 0.46645 0.75068 0.0
H1133 H 0.73094 0.48929 0.71914 0.0
H1134 H 0.6899 0.53924 0.75251 0.0
H1135 H 0.70301 0.5166 0.7488 0.0
H1136 H 0.74909 0.51298 0.76395 0.0
C1137 C 0.75991 0.465 0.73902 0.0
C1138 C 0.73524 0.49447 0.72878 0.0
C1139 C 0.76373 0.45138 0.73348 0.0
C1140 C 0.70152 0.53907 0.75432 0.0
C1141 C 0.70906 0.52614 0.75206 0.0
C1142 C 0.74514 0.50795 0.75409 0.0
C1143 C 0.75515 0.47608 0.72966 0.0
C1144 C 0.74788 0.48925 0.73553 0.0
C1145 C 0.72429 0.52577 0.753 0.0
C1146 C 0.73243 0.51304 0.74733 0.0
H1147 H 0.75857 0.45822 0.69748 0.0
H1148 H 0.75254 0.48213 0.70703 0.0
H1149 H 0.76249 0.4924 0.75373 0.0
H1150 H 0.73012 0.56089 0.76298 0.0
H1151 H 0.74337 0.53834 0.75869 0.0
C1152 C 0.45547 0.29352 0.24973 0.0
C1153 C 0.44556 0.28573 0.24118 0.0
C1154 C 0.46983 0.28895 0.25092 0.0
C1155 C 0.4916 0.25572 0.24878 0.0
H1156 H 0.52316 0.28278 0.25532 0.0
C1157 C 0.55177 0.24033 0.26302 0.0
C1158 C 0.55759 0.24836 0.27463 0.0
C1159 C 0.53804 0.24374 0.25744 0.0
C1160 C 0.51443 0.2751 0.25351 0.0
H1161 H 0.44312 0.26751 0.22646 0.0
H1162 H 0.46839 0.2596 0.2284 0.0
H1163 H 0.49991 0.29176 0.24651 0.0
H1164 H 0.55318 0.2656 0.2901 0.0
H1165 H 0.5294 0.27152 0.28034 0.0
H1166 H 0.50628 0.23908 0.25594 0.0
C1167 C 0.46494 0.26913 0.23436 0.0
C1168 C 0.50113 0.28023 0.24848 0.0
C1169 C 0.45052 0.27374 0.23315 0.0
C1170 C 0.54909 0.25926 0.28108 0.0
C1171 C 0.5355 0.26274 0.27544 0.0
C1172 C 0.50501 0.25056 0.2537 0.0
C1173 C 0.47466 0.27648 0.24355 0.0
C1174 C 0.48941 0.27068 0.24649 0.0
C1175 C 0.53005 0.25532 0.26331 0.0
C1176 C 0.51638 0.26029 0.25653 0.0
H1177 H 0.452 0.30282 0.25605 0.0
H1178 H 0.47695 0.29479 0.25823 0.0
H1179 H 0.48276 0.24809 0.24748 0.0
H1180 H 0.55806 0.23186 0.25782 0.0
H1181 H 0.534 0.23783 0.24812 0.0
C1182 C 0.71578 0.46171 0.24154 0.0
C1183 C 0.72422 0.44993 0.23681 0.0
C1184 C 0.7222 0.47522 0.24408 0.0
C1185 C 0.75528 0.48899 0.25841 0.0
H1186 H 0.7402 0.52699 0.24835 0.0
C1187 C 0.7567 0.54002 0.29458 0.0
C1188 C 0.76098 0.55315 0.28814 0.0
C1189 C 0.7557 0.52738 0.28626 0.0
C1190 C 0.74467 0.51645 0.25106 0.0
H1191 H 0.7458 0.44325 0.23017 0.0
H1192 H 0.75707 0.46679 0.23501 0.0
H1193 H 0.73083 0.50536 0.23595 0.0
H1194 H 0.76812 0.56331 0.26815 0.0
H1195 H 0.76589 0.54122 0.25348 0.0
H1196 H 0.76835 0.49997 0.27426 0.0
C1197 C 0.74548 0.46557 0.23658 0.0
C1198 C 0.73928 0.50413 0.24404 0.0
C1199 C 0.739 0.45215 0.23375 0.0
C1200 C 0.76492 0.55329 0.2734 0.0
C1201 C 0.76357 0.54071 0.265 0.0
C1202 C 0.76044 0.50127 0.26566 0.0
C1203 C 0.73721 0.47707 0.24218 0.0
C1204 C 0.74436 0.49028 0.24784 0.0
C1205 C 0.75864 0.52776 0.27131 0.0
C1206 C 0.75498 0.51507 0.26222 0.0
H1207 H 0.70437 0.4603 0.24399 0.0
H1208 H 0.71562 0.48391 0.24847 0.0
H1209 H 0.75925 0.4784 0.26165 0.0
H1210 H 0.75357 0.53964 0.30591 0.0
H1211 H 0.75178 0.51752 0.29133 0.0
C1212 C 0.55501 0.73588 0.23835 0.0
C1213 C 0.55724 0.72139 0.24263 0.0
C1214 C 0.54131 0.74224 0.23971 0.0
C1215 C 0.51566 0.75287 0.25863 0.0
H1216 H 0.47935 0.73636 0.24522 0.0
C1217 C 0.46034 0.75622 0.2879 0.0
C1218 C 0.44804 0.75912 0.27937 0.0
C1219 C 0.47401 0.75504 0.28145 0.0
C1220 C 0.48941 0.74121 0.24886 0.0
H1221 H 0.54676 0.70189 0.25057 0.0
H1222 H 0.52268 0.71289 0.25243 0.0
H1223 H 0.50238 0.72662 0.23614 0.0
H1224 H 0.44052 0.76392 0.25756 0.0
H1225 H 0.4644 0.76145 0.24629 0.0
H1226 H 0.50271 0.76679 0.2721 0.0
C1227 C 0.53157 0.71934 0.24824 0.0
C1228 C 0.50253 0.73562 0.24373 0.0
C1229 C 0.54533 0.71307 0.2472 0.0
C1230 C 0.44981 0.76172 0.26443 0.0
C1231 C 0.46343 0.76024 0.25795 0.0
C1232 C 0.50254 0.75826 0.26401 0.0
C1233 C 0.52958 0.7341 0.245 0.0
C1234 C 0.51575 0.74126 0.24875 0.0
C1235 C 0.47555 0.75648 0.26636 0.0
C1236 C 0.48933 0.75232 0.25932 0.0
H1237 H 0.56403 0.74258 0.23487 0.0
H1238 H 0.53998 0.75364 0.23713 0.0
H1239 H 0.52575 0.75728 0.26277 0.0
H1240 H 0.45929 0.75418 0.29943 0.0
H1241 H 0.48322 0.75207 0.28814 0.0
C1242 C 0.26993 0.55028 0.23173 0.0
C1243 C 0.28442 0.55036 0.23651 0.0
C1244 C 0.26156 0.53765 0.23288 0.0
C1245 C 0.26257 0.49817 0.23813 0.0
H1246 H 0.23152 0.50375 0.26604 0.0
C1247 C 0.23383 0.44974 0.26483 0.0
C1248 C 0.23692 0.44984 0.27977 0.0
C1249 C 0.23545 0.46241 0.25661 0.0
C1250 C 0.23994 0.50207 0.25801 0.0
H1251 H 0.30187 0.53714 0.24509 0.0
H1252 H 0.28741 0.51496 0.24658 0.0
H1253 H 0.24349 0.52489 0.25524 0.0
H1254 H 0.24278 0.46338 0.29807 0.0
H1255 H 0.24508 0.4856 0.28382 0.0
H1256 H 0.25948 0.47536 0.2414 0.0
C1257 C 0.28248 0.52467 0.24214 0.0
C1258 C 0.24674 0.51413 0.25179 0.0
C1259 C 0.29073 0.53736 0.24134 0.0
C1260 C 0.24033 0.46303 0.28657 0.0
C1261 C 0.2416 0.47575 0.27843 0.0
C1262 C 0.25558 0.48612 0.24413 0.0
C1263 C 0.26769 0.52485 0.23843 0.0
C1264 C 0.25849 0.51226 0.24224 0.0
C1265 C 0.23979 0.47541 0.26329 0.0
C1266 C 0.24459 0.48798 0.25454 0.0
H1267 H 0.26477 0.56019 0.22808 0.0
H1268 H 0.25018 0.53802 0.22997 0.0
H1269 H 0.27162 0.49649 0.23081 0.0
H1270 H 0.2313 0.43967 0.25931 0.0
H1271 H 0.234 0.46191 0.24495 0.0
C1272 C 0.76089 0.71382 0.54 0.0
C1273 C 0.76236 0.7203 0.55371 0.0
C1274 C 0.76076 0.72236 0.52748 0.0
C1275 C 0.76374 0.74337 0.50201 0.0
H1276 H 0.7318 0.7706 0.5057 0.0
C1277 C 0.73755 0.76879 0.45173 0.0
C1278 C 0.72284 0.76481 0.45086 0.0
C1279 C 0.74497 0.76793 0.46494 0.0
C1280 C 0.74091 0.76324 0.50455 0.0
H1281 H 0.76597 0.74061 0.56506 0.0
H1282 H 0.7654 0.75559 0.54313 0.0
H1283 H 0.74227 0.75956 0.52745 0.0
H1284 H 0.70403 0.7582 0.46334 0.0
H1285 H 0.7169 0.75698 0.48643 0.0
H1286 H 0.76187 0.74645 0.47906 0.0
C1287 C 0.76446 0.74391 0.5421 0.0
C1288 C 0.74696 0.757 0.51697 0.0
C1289 C 0.76487 0.73533 0.55461 0.0
C1290 C 0.71537 0.76127 0.46367 0.0
C1291 C 0.72274 0.76063 0.4769 0.0
C1292 C 0.75783 0.74977 0.4896 0.0
C1293 C 0.76186 0.73754 0.52849 0.0
C1294 C 0.75804 0.74658 0.51577 0.0
C1295 C 0.73773 0.76335 0.47753 0.0
C1296 C 0.74598 0.75932 0.49073 0.0
H1297 H 0.75896 0.70226 0.539 0.0
H1298 H 0.75865 0.71718 0.51714 0.0
H1299 H 0.77228 0.73538 0.50081 0.0
H1300 H 0.74362 0.77158 0.44205 0.0
H1301 H 0.75651 0.77017 0.46517 0.0
C1302 C 0.76158 0.27575 0.45079 0.0
C1303 C 0.75343 0.28769 0.44588 0.0
C1304 C 0.75878 0.2696 0.4644 0.0
C1305 C 0.72857 0.26522 0.48959 0.0
H1306 H 0.75747 0.25481 0.51833 0.0
C1307 C 0.71422 0.25453 0.54908 0.0
C1308 C 0.72254 0.24471 0.55723 0.0
C1309 C 0.71773 0.25747 0.53465 0.0
C1310 C 0.74928 0.25736 0.51029 0.0
H1311 H 0.73667 0.30316 0.45182 0.0
H1312 H 0.73185 0.29246 0.47547 0.0
H1313 H 0.76514 0.26534 0.4952 0.0
H1314 H 0.74051 0.22952 0.55636 0.0
H1315 H 0.7465 0.23447 0.531 0.0
H1316 H 0.7127 0.25731 0.50454 0.0
C1317 C 0.74023 0.28771 0.46872 0.0
C1318 C 0.75369 0.26347 0.4971 0.0
C1319 C 0.74308 0.29391 0.45521 0.0
C1320 C 0.7339 0.23718 0.55037 0.0
C1321 C 0.73743 0.24012 0.53589 0.0
C1322 C 0.72418 0.25901 0.50268 0.0
C1323 C 0.74771 0.27524 0.47325 0.0
C1324 C 0.74333 0.26778 0.4868 0.0
C1325 C 0.72963 0.25062 0.528 0.0
C1326 C 0.73445 0.25532 0.51334 0.0
H1327 H 0.76962 0.27071 0.44384 0.0
H1328 H 0.76474 0.26001 0.46768 0.0
H1329 H 0.72038 0.26814 0.48167 0.0
H1330 H 0.70539 0.26052 0.55403 0.0
H1331 H 0.71157 0.26572 0.52899 0.0
C1332 C 0.2544 0.70692 0.44897 0.0
C1333 C 0.24467 0.71504 0.4405 0.0
C1334 C 0.25813 0.7115 0.4629 0.0
C1335 C 0.24875 0.73538 0.49343 0.0
H1336 H 0.29047 0.73576 0.49915 0.0
C1337 C 0.27552 0.75771 0.54597 0.0
C1338 C 0.28621 0.7486 0.55191 0.0
C1339 C 0.27025 0.75522 0.53191 0.0
C1340 C 0.27879 0.73566 0.49778 0.0
H1341 H 0.23033 0.73372 0.44043 0.0
H1342 H 0.23682 0.7417 0.46494 0.0
H1343 H 0.2805 0.72722 0.47624 0.0
H1344 H 0.30017 0.73012 0.54761 0.0
H1345 H 0.29105 0.72579 0.52332 0.0
H1346 H 0.24709 0.74354 0.51517 0.0
C1347 C 0.24159 0.73182 0.46071 0.0
C1348 C 0.27309 0.73073 0.48467 0.0
C1349 C 0.23786 0.72723 0.4467 0.0
C1350 C 0.29193 0.73735 0.54336 0.0
C1351 C 0.28674 0.73491 0.52937 0.0
C1352 C 0.25449 0.74025 0.50665 0.0
C1353 C 0.2522 0.7243 0.46868 0.0
C1354 C 0.25801 0.73026 0.48245 0.0
C1355 C 0.27569 0.74366 0.52355 0.0
C1356 C 0.26957 0.74016 0.50905 0.0
H1357 H 0.25973 0.69739 0.44458 0.0
H1358 H 0.26608 0.70531 0.46895 0.0
H1359 H 0.23709 0.73516 0.49198 0.0
H1360 H 0.27087 0.76644 0.55232 0.0
H1361 H 0.26183 0.76224 0.52766 0.0
C1362 C 0.24105 0.28773 0.54812 0.0
C1363 C 0.23608 0.27745 0.55819 0.0
C1364 C 0.24439 0.28355 0.53395 0.0
C1365 C 0.24338 0.25259 0.50759 0.0
H1366 H 0.279 0.27065 0.49439 0.0
C1367 C 0.26786 0.24361 0.45032 0.0
C1368 C 0.28291 0.2453 0.44859 0.0
C1369 C 0.26142 0.24564 0.46391 0.0
C1370 C 0.26918 0.26528 0.49798 0.0
H1371 H 0.22968 0.255 0.56112 0.0
H1372 H 0.23599 0.24757 0.53656 0.0
H1373 H 0.268 0.27869 0.51676 0.0
H1374 H 0.3032 0.24895 0.45988 0.0
H1375 H 0.29212 0.25172 0.48371 0.0
H1376 H 0.24503 0.23871 0.48901 0.0
C1377 C 0.23706 0.25891 0.53943 0.0
C1378 C 0.26265 0.27016 0.51071 0.0
C1379 C 0.23344 0.26317 0.55354 0.0
C1380 C 0.29155 0.24775 0.46088 0.0
C1381 C 0.28515 0.24951 0.47451 0.0
C1382 C 0.25004 0.24757 0.49488 0.0
C1383 C 0.24317 0.26893 0.52965 0.0
C1384 C 0.24962 0.26396 0.51568 0.0
C1385 C 0.26995 0.24918 0.47607 0.0
C1386 C 0.26305 0.25386 0.48992 0.0
H1387 H 0.24303 0.29885 0.5514 0.0
H1388 H 0.24857 0.29169 0.52656 0.0
H1389 H 0.23332 0.2476 0.51104 0.0
H1390 H 0.26091 0.24178 0.44101 0.0
H1391 H 0.2497 0.24534 0.46465 0.0
C1392 C 0.15989 0.11849 0.24164 0.0
C1393 C 0.16812 0.11888 0.25447 0.0
C1394 C 0.14838 0.12821 0.23965 0.0
C1395 C 0.13973 0.16494 0.25153 0.0
H1396 H 0.10528 0.16034 0.22783 0.0
C1397 C 0.10666 0.21475 0.2355 0.0
C1398 C 0.10262 0.21561 0.22082 0.0
C1399 C 0.11131 0.20162 0.24144 0.0
C1400 C 0.11488 0.16179 0.23444 0.0
H1401 H 0.1697 0.1284 0.27593 0.0
H1402 H 0.1494 0.14499 0.27264 0.0
H1403 H 0.11908 0.13887 0.2353 0.0
H1404 H 0.09958 0.20321 0.20105 0.0
H1405 H 0.10819 0.18036 0.21128 0.0
H1406 H 0.1361 0.18773 0.25021 0.0
C1407 C 0.15211 0.13758 0.26392 0.0
C1408 C 0.12275 0.1495 0.23875 0.0
C1409 C 0.16368 0.12802 0.26584 0.0
C1410 C 0.10265 0.20289 0.2124 0.0
C1411 C 0.1075 0.18976 0.2183 0.0
C1412 C 0.13195 0.17715 0.2472 0.0
C1413 C 0.14486 0.13836 0.25051 0.0
C1414 C 0.13536 0.15097 0.24721 0.0
C1415 C 0.11227 0.18906 0.23279 0.0
C1416 C 0.11953 0.17579 0.23845 0.0
H1417 H 0.16308 0.11156 0.23269 0.0
H1418 H 0.14302 0.12853 0.22919 0.0
H1419 H 0.14959 0.16654 0.25772 0.0
H1420 H 0.10653 0.22432 0.24234 0.0
H1421 H 0.11455 0.2014 0.25274 0.0
C1422 C 0.86366 0.17905 0.27624 0.0
C1423 C 0.87721 0.17813 0.26931 0.0
C1424 C 0.85402 0.16738 0.27589 0.0
C1425 C 0.84452 0.13776 0.25176 0.0
H1426 H 0.81635 0.12883 0.28173 0.0
C1427 C 0.79422 0.10389 0.23827 0.0
C1428 C 0.78108 0.10991 0.24315 0.0
C1429 C 0.80744 0.1086 0.24401 0.0
C1430 C 0.82414 0.13119 0.27325 0.0
H1431 H 0.8917 0.16385 0.25745 0.0
H1432 H 0.87478 0.14342 0.2568 0.0
H1433 H 0.83752 0.14368 0.28761 0.0
H1434 H 0.77146 0.12496 0.25849 0.0
H1435 H 0.79449 0.13343 0.26823 0.0
H1436 H 0.83087 0.12601 0.2372 0.0
C1437 C 0.8716 0.15326 0.2624 0.0
C1438 C 0.83628 0.13965 0.27663 0.0
C1439 C 0.8813 0.16493 0.26283 0.0
C1440 C 0.78139 0.12012 0.25447 0.0
C1441 C 0.79462 0.12491 0.26013 0.0
C1442 C 0.83238 0.12936 0.24837 0.0
C1443 C 0.85768 0.15453 0.26854 0.0
C1444 C 0.84637 0.14339 0.26581 0.0
C1445 C 0.80783 0.11951 0.25467 0.0
C1446 C 0.82181 0.12634 0.25896 0.0
H1447 H 0.86021 0.18903 0.28143 0.0
H1448 H 0.84335 0.16878 0.28062 0.0
H1449 H 0.85196 0.1406 0.24312 0.0
H1450 H 0.79435 0.09585 0.22969 0.0
H1451 H 0.81739 0.104 0.23976 0.0
C1452 C 0.88385 0.78576 0.21553 0.0
C1453 C 0.88105 0.77121 0.21921 0.0
C1454 C 0.87709 0.79705 0.22306 0.0
C1455 C 0.84407 0.80406 0.24406 0.0
H1456 H 0.86213 0.84132 0.25168 0.0
C1457 C 0.81039 0.85047 0.26724 0.0
C1458 C 0.81167 0.8637 0.25976 0.0
C1459 C 0.82077 0.83959 0.26545 0.0
C1460 C 0.85695 0.83098 0.24961 0.0
H1461 H 0.86949 0.75715 0.23417 0.0
H1462 H 0.85782 0.77686 0.24738 0.0
H1463 H 0.87683 0.8212 0.24252 0.0
H1464 H 0.82536 0.8763 0.24535 0.0
H1465 H 0.84334 0.85718 0.24196 0.0
H1466 H 0.82415 0.81382 0.25064 0.0
C1467 C 0.86505 0.77952 0.2385 0.0
C1468 C 0.86535 0.81947 0.24435 0.0
C1469 C 0.87177 0.76823 0.23095 0.0
C1470 C 0.82407 0.86621 0.25125 0.0
C1471 C 0.83441 0.85526 0.24935 0.0
C1472 C 0.8357 0.81552 0.24928 0.0
C1473 C 0.8674 0.79405 0.23446 0.0
C1474 C 0.85895 0.80594 0.24132 0.0
C1475 C 0.83258 0.84164 0.25602 0.0
C1476 C 0.84198 0.82918 0.25194 0.0
H1477 H 0.89097 0.78844 0.20657 0.0
H1478 H 0.87902 0.80811 0.21956 0.0
H1479 H 0.83873 0.79388 0.24158 0.0
H1480 H 0.80107 0.84828 0.27407 0.0
H1481 H 0.81924 0.82935 0.27103 0.0
C1482 C 0.20921 0.88298 0.24324 0.0
C1483 C 0.22326 0.87896 0.24763 0.0
C1484 C 0.19703 0.87712 0.25008 0.0
C1485 C 0.18684 0.84362 0.26815 0.0
H1486 H 0.14972 0.86278 0.27332 0.0
C1487 C 0.13646 0.80989 0.28055 0.0
C1488 C 0.12415 0.81323 0.27221 0.0
C1489 C 0.14797 0.81968 0.28151 0.0
C1490 C 0.16 0.85727 0.2719 0.0
H1491 H 0.23553 0.86649 0.2634 0.0
H1492 H 0.21423 0.85626 0.27536 0.0
H1493 H 0.17135 0.87722 0.26798 0.0
H1494 H 0.11385 0.82976 0.25903 0.0
H1495 H 0.13416 0.84667 0.26025 0.0
H1496 H 0.17558 0.82366 0.27125 0.0
C1497 C 0.21267 0.86381 0.26648 0.0
C1498 C 0.17238 0.86554 0.2689 0.0
C1499 C 0.22486 0.86972 0.25967 0.0
C1500 C 0.1232 0.82691 0.26555 0.0
C1501 C 0.13484 0.83663 0.26632 0.0
C1502 C 0.1745 0.83536 0.27105 0.0
C1503 C 0.19863 0.86707 0.26144 0.0
C1504 C 0.18588 0.85876 0.26671 0.0
C1505 C 0.14757 0.83292 0.27393 0.0
C1506 C 0.16086 0.84203 0.27268 0.0
H1507 H 0.20759 0.89016 0.23407 0.0
H1508 H 0.18638 0.87978 0.24587 0.0
H1509 H 0.197 0.83802 0.26626 0.0
H1510 H 0.13739 0.7995 0.286 0.0
H1511 H 0.15742 0.81662 0.2878 0.0
C1512 C 0.09967 0.79275 0.76376 0.0
C1513 C 0.10645 0.77996 0.75892 0.0
C1514 C 0.10397 0.80627 0.75841 0.0
C1515 C 0.12671 0.8244 0.73015 0.0
H1516 H 0.13383 0.85226 0.76088 0.0
C1517 C 0.17276 0.8661 0.72917 0.0
C1518 C 0.17101 0.8795 0.73626 0.0
C1519 C 0.16153 0.85595 0.72901 0.0
C1520 C 0.13162 0.8448 0.75207 0.0
H1521 H 0.1225 0.7713 0.74402 0.0
H1522 H 0.13023 0.79484 0.73494 0.0
H1523 H 0.12005 0.83044 0.76607 0.0
H1524 H 0.15572 0.89317 0.74783 0.0
H1525 H 0.13607 0.87536 0.74757 0.0
H1526 H 0.13901 0.83853 0.71635 0.0
C1527 C 0.12143 0.79446 0.74272 0.0
C1528 C 0.12369 0.83224 0.75505 0.0
C1529 C 0.11707 0.78094 0.74801 0.0
C1530 C 0.15744 0.88292 0.74234 0.0
C1531 C 0.14621 0.87269 0.74226 0.0
C1532 C 0.1347 0.83696 0.72718 0.0
C1533 C 0.11522 0.80732 0.74814 0.0
C1534 C 0.12151 0.82167 0.74424 0.0
C1535 C 0.1483 0.85893 0.73599 0.0
C1536 C 0.13761 0.84708 0.73823 0.0
H1537 H 0.09132 0.79237 0.77203 0.0
H1538 H 0.09877 0.81593 0.76261 0.0
H1539 H 0.12498 0.81661 0.72151 0.0
H1540 H 0.18304 0.86317 0.72428 0.0
H1541 H 0.16355 0.84541 0.7242 0.0
C1542 C 0.2094 0.10814 0.7563 0.0
C1543 C 0.22204 0.11557 0.7521 0.0
C1544 C 0.19587 0.11233 0.75093 0.0
C1545 C 0.17743 0.13669 0.72418 0.0
H1546 H 0.14916 0.14064 0.75511 0.0
C1547 C 0.13473 0.18175 0.72666 0.0
C1548 C 0.12114 0.17898 0.73301 0.0
C1549 C 0.14521 0.17087 0.72585 0.0
C1550 C 0.15675 0.13933 0.74623 0.0
H1551 H 0.2305 0.13263 0.73826 0.0
H1552 H 0.20689 0.14022 0.72921 0.0
H1553 H 0.17126 0.127 0.75939 0.0
H1554 H 0.10758 0.16236 0.74271 0.0
H1555 H 0.12605 0.1433 0.74141 0.0
H1556 H 0.16314 0.14981 0.71133 0.0
C1557 C 0.2074 0.13098 0.73645 0.0
C1558 C 0.16947 0.13148 0.74868 0.0
C1559 C 0.22096 0.12668 0.74171 0.0
C1560 C 0.11797 0.16484 0.73781 0.0
C1561 C 0.12855 0.15395 0.73711 0.0
C1562 C 0.16472 0.14463 0.72177 0.0
C1563 C 0.19464 0.12416 0.74136 0.0
C1564 C 0.18017 0.13042 0.73783 0.0
C1565 C 0.1424 0.15697 0.73146 0.0
C1566 C 0.15445 0.14639 0.73292 0.0
H1567 H 0.2099 0.09938 0.76413 0.0
H1568 H 0.1863 0.10661 0.75468 0.0
H1569 H 0.18531 0.13586 0.7155 0.0
H1570 H 0.13747 0.1925 0.72276 0.0
H1571 H 0.15581 0.17359 0.72157 0.0
C1572 C 0.87229 0.2163 0.75089 0.0
C1573 C 0.88296 0.21598 0.76178 0.0
C1574 C 0.86705 0.2034 0.74486 0.0
C1575 C 0.86237 0.16515 0.75479 0.0
H1576 H 0.84769 0.16198 0.71548 0.0
C1577 C 0.82686 0.11681 0.73796 0.0
C1578 C 0.81369 0.12108 0.73155 0.0
C1579 C 0.83842 0.12661 0.739 0.0
C1580 C 0.85179 0.16268 0.72647 0.0
H1581 H 0.8972 0.20188 0.77418 0.0
H1582 H 0.88819 0.17941 0.76351 0.0
H1583 H 0.86263 0.18281 0.72226 0.0
H1584 H 0.80272 0.13859 0.72023 0.0
H1585 H 0.82275 0.15561 0.72212 0.0
H1586 H 0.85113 0.14534 0.75918 0.0
C1587 C 0.88365 0.18962 0.75986 0.0
C1588 C 0.86031 0.17462 0.73037 0.0
C1589 C 0.88885 0.20252 0.76593 0.0
C1590 C 0.81267 0.13499 0.72534 0.0
C1591 C 0.82423 0.14473 0.72631 0.0
C1592 C 0.8539 0.15321 0.75089 0.0
C1593 C 0.87241 0.18989 0.74954 0.0
C1594 C 0.86534 0.17621 0.7447 0.0
C1595 C 0.83706 0.14081 0.73356 0.0
C1596 C 0.84815 0.15206 0.73681 0.0
H1597 H 0.86753 0.22648 0.74742 0.0
H1598 H 0.85828 0.20403 0.73706 0.0
H1599 H 0.86588 0.16609 0.76597 0.0
H1600 H 0.82801 0.10615 0.74279 0.0
H1601 H 0.84825 0.12323 0.7445 0.0
C1602 C 0.88059 0.83778 0.74677 0.0
C1603 C 0.8764 0.82412 0.74144 0.0
C1604 C 0.87043 0.84904 0.74784 0.0
C1605 C 0.83315 0.8603 0.73699 0.0
H1606 H 0.83118 0.87588 0.77603 0.0
C1607 C 0.77986 0.87826 0.76365 0.0
C1608 C 0.77996 0.88966 0.77379 0.0
C1609 C 0.79276 0.87352 0.75727 0.0
C1610 C 0.8317 0.87194 0.76497 0.0
H1611 H 0.85863 0.81187 0.73199 0.0
H1612 H 0.84103 0.83139 0.73386 0.0
H1613 H 0.85236 0.86202 0.76859 0.0
H1614 H 0.79364 0.90551 0.7846 0.0
H1615 H 0.81614 0.89727 0.77337 0.0
H1616 H 0.81219 0.86974 0.73359 0.0
C1617 C 0.8521 0.83349 0.73722 0.0
C1618 C 0.84388 0.86399 0.76069 0.0
C1619 C 0.86218 0.82225 0.73627 0.0
C1620 C 0.79319 0.89661 0.77693 0.0
C1621 C 0.8061 0.89187 0.77053 0.0
C1622 C 0.82098 0.86827 0.74126 0.0
C1623 C 0.85598 0.84686 0.74344 0.0
C1624 C 0.84452 0.85767 0.74683 0.0
C1625 C 0.80607 0.88008 0.76084 0.0
C1626 C 0.8199 0.87376 0.75546 0.0
H1627 H 0.89148 0.83956 0.75081 0.0
H1628 H 0.87376 0.85929 0.75256 0.0
H1629 H 0.83344 0.85574 0.72616 0.0
H1630 H 0.76987 0.87268 0.76095 0.0
H1631 H 0.79236 0.86428 0.75001 0.0
C1632 C 0.23728 0.11713 0.21021 0.0
C1633 C 0.23804 0.12164 0.22478 0.0
C1634 C 0.24472 0.1247 0.19939 0.0
C1635 C 0.25817 0.16137 0.19214 0.0
H1636 H 0.2732 0.14377 0.15696 0.0
C1637 C 0.27658 0.19704 0.14492 0.0
C1638 C 0.27078 0.19321 0.13133 0.0
C1639 C 0.27629 0.18723 0.15645 0.0
C1640 C 0.26904 0.14884 0.16672 0.0
H1641 H 0.24801 0.13709 0.23951 0.0
H1642 H 0.26115 0.15018 0.22062 0.0
H1643 H 0.26612 0.12836 0.17738 0.0
H1644 H 0.26101 0.17573 0.11894 0.0
H1645 H 0.26028 0.15867 0.13918 0.0
H1646 H 0.2606 0.18176 0.18143 0.0
C1647 C 0.25455 0.14095 0.21755 0.0
C1648 C 0.26498 0.14002 0.17841 0.0
C1649 C 0.24706 0.13341 0.22838 0.0
C1650 C 0.26555 0.17903 0.12928 0.0
C1651 C 0.26518 0.16922 0.14087 0.0
C1652 C 0.26222 0.17015 0.1805 0.0
C1653 C 0.25314 0.13692 0.20288 0.0
C1654 C 0.25923 0.14618 0.19115 0.0
C1655 C 0.27012 0.17339 0.15471 0.0
C1656 C 0.26746 0.16399 0.16755 0.0
H1657 H 0.23048 0.10808 0.20704 0.0
H1658 H 0.24326 0.12137 0.18821 0.0
H1659 H 0.25353 0.16649 0.20165 0.0
H1660 H 0.28088 0.20782 0.1468 0.0
H1661 H 0.28047 0.19067 0.16689 0.0
C1662 C 0.83472 0.25908 0.12546 0.0
C1663 C 0.82275 0.26843 0.12681 0.0
C1664 C 0.84518 0.2584 0.13645 0.0
C1665 C 0.84708 0.26473 0.17576 0.0
H1666 H 0.88738 0.25359 0.17109 0.0
C1667 C 0.88183 0.25125 0.22536 0.0
C1668 C 0.88947 0.23807 0.22449 0.0
C1669 C 0.87608 0.25765 0.21289 0.0
C1670 C 0.87615 0.2567 0.17254 0.0
H1671 H 0.81311 0.28545 0.13989 0.0
H1672 H 0.83159 0.28465 0.15875 0.0
H1673 H 0.87312 0.26055 0.14979 0.0
H1674 H 0.89777 0.22172 0.20969 0.0
H1675 H 0.88752 0.23279 0.18796 0.0
H1676 H 0.8499 0.26056 0.19836 0.0
C1677 C 0.83265 0.27744 0.14953 0.0
C1678 C 0.86798 0.26068 0.16035 0.0
C1679 C 0.82211 0.27796 0.13868 0.0
C1680 C 0.89189 0.23185 0.21076 0.0
C1681 C 0.8861 0.23824 0.19827 0.0
C1682 C 0.85523 0.26084 0.18789 0.0
C1683 C 0.84395 0.26719 0.14889 0.0
C1684 C 0.85327 0.26453 0.1618 0.0
C1685 C 0.87779 0.25101 0.19926 0.0
C1686 C 0.86978 0.25656 0.18642 0.0
H1687 H 0.83549 0.25158 0.11643 0.0
H1688 H 0.85369 0.25033 0.1356 0.0
H1689 H 0.83572 0.26728 0.1773 0.0
H1690 H 0.87992 0.25643 0.23574 0.0
H1691 H 0.86995 0.26763 0.21397 0.0
C1692 C 0.75451 0.88421 0.20722 0.0
C1693 C 0.7498 0.88041 0.22124 0.0
C1694 C 0.7478 0.87831 0.19498 0.0
C1695 C 0.72924 0.84505 0.18482 0.0
H1696 H 0.7252 0.86388 0.14738 0.0
C1697 C 0.71675 0.81099 0.13478 0.0
C1698 C 0.72544 0.81385 0.12259 0.0
C1699 C 0.71582 0.82102 0.14608 0.0
C1700 C 0.72629 0.85846 0.15775 0.0
H1701 H 0.73364 0.86832 0.23336 0.0
H1702 H 0.7219 0.85805 0.21195 0.0
H1703 H 0.73048 0.87845 0.16895 0.0
H1704 H 0.73927 0.82978 0.11222 0.0
H1705 H 0.73812 0.84713 0.13221 0.0
H1706 H 0.72585 0.82504 0.17374 0.0
C1707 C 0.73092 0.86544 0.21046 0.0
C1708 C 0.72927 0.86681 0.1701 0.0
C1709 C 0.73762 0.87136 0.22272 0.0
C1710 C 0.73248 0.82732 0.1215 0.0
C1711 C 0.73175 0.83728 0.13295 0.0
C1712 C 0.72636 0.83672 0.17252 0.0
C1713 C 0.73625 0.86848 0.19649 0.0
C1714 C 0.73105 0.86014 0.18372 0.0
C1715 C 0.7238 0.83402 0.14559 0.0
C1716 C 0.72511 0.84327 0.15878 0.0
H1717 H 0.7638 0.89125 0.20568 0.0
H1718 H 0.75223 0.8808 0.18438 0.0
H1719 H 0.73083 0.83952 0.19507 0.0
H1720 H 0.711 0.80077 0.13579 0.0
H1721 H 0.70927 0.81832 0.15545 0.0
C1722 C 0.0995 0.7682 0.20945 0.0
C1723 C 0.10099 0.76027 0.22241 0.0
C1724 C 0.10306 0.76193 0.19611 0.0
C1725 C 0.12686 0.73366 0.18151 0.0
H1726 H 0.10835 0.74339 0.14497 0.0
C1727 C 0.15416 0.71704 0.12903 0.0
C1728 C 0.15607 0.72855 0.11922 0.0
C1729 C 0.1437 0.71792 0.13994 0.0
C1730 C 0.11361 0.74055 0.15509 0.0
H1731 H 0.10657 0.73923 0.2314 0.0
H1732 H 0.1126 0.72823 0.20811 0.0
H1733 H 0.09699 0.75069 0.16784 0.0
H1734 H 0.14764 0.74936 0.11223 0.0
H1735 H 0.1296 0.7511 0.1315 0.0
H1736 H 0.14374 0.72408 0.16895 0.0
C1737 C 0.10896 0.73941 0.2083 0.0
C1738 C 0.10713 0.74474 0.16818 0.0
C1739 C 0.10546 0.7457 0.22165 0.0
C1740 C 0.14638 0.74031 0.11963 0.0
C1741 C 0.13603 0.74129 0.1307 0.0
C1742 C 0.13332 0.72949 0.16848 0.0
C1743 C 0.10814 0.74756 0.19541 0.0
C1744 C 0.11385 0.7416 0.18154 0.0
C1745 C 0.13509 0.73043 0.14141 0.0
C1746 C 0.12694 0.73311 0.15509 0.0
H1747 H 0.09604 0.77944 0.20963 0.0
H1748 H 0.10245 0.76858 0.18643 0.0
H1749 H 0.1325 0.73129 0.19155 0.0
H1750 H 0.16136 0.70774 0.12883 0.0
H1751 H 0.14297 0.70917 0.14776 0.0
C1752 C 0.22184 0.89522 0.79721 0.0
C1753 C 0.2289 0.89388 0.78374 0.0
C1754 C 0.22844 0.89017 0.8099 0.0
C1755 C 0.25483 0.86268 0.82096 0.0
H1756 H 0.24955 0.87926 0.8593 0.0
C1757 C 0.27251 0.83016 0.86994 0.0
C1758 C 0.2618 0.82873 0.88068 0.0
C1759 C 0.27176 0.84139 0.85982 0.0
C1760 C 0.25113 0.87451 0.84866 0.0
H1761 H 0.24883 0.88709 0.77319 0.0
H1762 H 0.2604 0.87848 0.79534 0.0
H1763 H 0.24191 0.89297 0.83784 0.0
H1764 H 0.24263 0.83858 0.89008 0.0
H1765 H 0.24101 0.85796 0.87209 0.0
H1766 H 0.26342 0.84403 0.83157 0.0
C1767 C 0.24963 0.88313 0.79605 0.0
C1768 C 0.24675 0.88235 0.83639 0.0
C1769 C 0.243 0.8881 0.78336 0.0
C1770 C 0.25105 0.83947 0.88192 0.0
C1771 C 0.25015 0.85059 0.8716 0.0
C1772 C 0.25917 0.85488 0.83316 0.0
C1773 C 0.24227 0.88374 0.8094 0.0
C1774 C 0.24834 0.87639 0.82241 0.0
C1775 C 0.2601 0.85123 0.86002 0.0
C1776 C 0.25717 0.86057 0.84718 0.0
H1777 H 0.21098 0.89967 0.79789 0.0
H1778 H 0.22241 0.89068 0.81998 0.0
H1779 H 0.25594 0.85761 0.81041 0.0
H1780 H 0.28102 0.82212 0.86888 0.0
H1781 H 0.27985 0.84183 0.85131 0.0
C1782 C 0.09378 0.22508 0.79538 0.0
C1783 C 0.09881 0.23244 0.78299 0.0
C1784 C 0.09682 0.23038 0.80927 0.0
C1785 C 0.11061 0.26249 0.82953 0.0
H1786 H 0.12747 0.23342 0.85486 0.0
C1787 C 0.1557 0.27441 0.87021 0.0
C1788 C 0.1576 0.26543 0.8824 0.0
C1789 C 0.14406 0.27223 0.86079 0.0
C1790 C 0.12245 0.24168 0.84817 0.0
H1791 H 0.11034 0.25155 0.77547 0.0
H1792 H 0.1158 0.26068 0.79966 0.0
H1793 H 0.11537 0.22591 0.83272 0.0
H1794 H 0.14793 0.24812 0.8951 0.0
H1795 H 0.12744 0.24442 0.87868 0.0
H1796 H 0.11828 0.27831 0.84476 0.0
C1797 C 0.10938 0.25088 0.79867 0.0
C1798 C 0.11553 0.23736 0.8354 0.0
C1799 C 0.10635 0.24557 0.78478 0.0
C1800 C 0.14683 0.25515 0.88574 0.0
C1801 C 0.13515 0.25296 0.87627 0.0
C1802 C 0.1175 0.26683 0.84235 0.0
C1803 C 0.10493 0.24318 0.81107 0.0
C1804 C 0.10997 0.24773 0.8257 0.0
C1805 C 0.13402 0.26103 0.86334 0.0
C1806 C 0.12396 0.25649 0.85155 0.0
H1807 H 0.08782 0.21499 0.7944 0.0
H1808 H 0.09308 0.2243 0.8186 0.0
H1809 H 0.10619 0.27073 0.8224 0.0
H1810 H 0.16372 0.28253 0.86741 0.0
H1811 H 0.14361 0.27862 0.85094 0.0
C1812 C 0.74078 0.11535 0.77397 0.0
C1813 C 0.75342 0.10681 0.77455 0.0
C1814 C 0.7346 0.1208 0.7867 0.0
C1815 C 0.73512 0.11837 0.82702 0.0
H1816 H 0.72767 0.15971 0.82464 0.0
C1817 C 0.7363 0.15702 0.8764 0.0
C1818 C 0.72793 0.16976 0.87589 0.0
C1819 C 0.73606 0.14721 0.86481 0.0
C1820 C 0.72934 0.1481 0.82551 0.0
H1821 H 0.76893 0.09659 0.78904 0.0
H1822 H 0.75825 0.10628 0.81119 0.0
H1823 H 0.73328 0.14628 0.80276 0.0
H1824 H 0.71169 0.18151 0.86357 0.0
H1825 H 0.71088 0.1642 0.84362 0.0
H1826 H 0.73155 0.12037 0.84993 0.0
C1827 C 0.75306 0.10866 0.80091 0.0
C1828 C 0.73258 0.14038 0.81291 0.0
C1829 C 0.75924 0.10319 0.78819 0.0
C1830 C 0.71842 0.17188 0.86417 0.0
C1831 C 0.71803 0.162 0.85269 0.0
C1832 C 0.7318 0.12611 0.83967 0.0
C1833 C 0.7409 0.11786 0.80028 0.0
C1834 C 0.73577 0.12549 0.81353 0.0
C1835 C 0.72732 0.14989 0.85256 0.0
C1836 C 0.72912 0.14114 0.83909 0.0
H1837 H 0.73592 0.11823 0.76366 0.0
H1838 H 0.72509 0.12767 0.78587 0.0
H1839 H 0.73738 0.10686 0.82782 0.0
H1840 H 0.74375 0.1551 0.88529 0.0
H1841 H 0.74341 0.13804 0.86506 0.0
C1842 C 0.84847 0.72751 0.88204 0.0
C1843 C 0.84619 0.7395 0.89115 0.0
C1844 C 0.85939 0.72782 0.87157 0.0
C1845 C 0.88939 0.75015 0.8557 0.0
H1846 H 0.8704 0.73943 0.81971 0.0
C1847 C 0.90238 0.77625 0.80019 0.0
C1848 C 0.90014 0.76806 0.78751 0.0
C1849 C 0.89951 0.77024 0.81383 0.0
C1850 C 0.87611 0.74219 0.8296 0.0
H1851 H 0.85436 0.7606 0.89751 0.0
H1852 H 0.87318 0.7614 0.87888 0.0
H1853 H 0.85943 0.73282 0.84253 0.0
H1854 H 0.89432 0.7468 0.77924 0.0
H1855 H 0.8897 0.73622 0.803 0.0
H1856 H 0.90581 0.76009 0.84251 0.0
C1857 C 0.86675 0.75162 0.87995 0.0
C1858 C 0.8698 0.73836 0.84278 0.0
C1859 C 0.85597 0.75118 0.89065 0.0
C1860 C 0.89591 0.75347 0.78879 0.0
C1861 C 0.89322 0.74742 0.80242 0.0
C1862 C 0.89577 0.75398 0.84242 0.0
C1863 C 0.868 0.74029 0.86976 0.0
C1864 C 0.87617 0.74252 0.85601 0.0
C1865 C 0.89448 0.75588 0.81508 0.0
C1866 C 0.88902 0.7503 0.82922 0.0
H1867 H 0.84113 0.71832 0.88233 0.0
H1868 H 0.86035 0.71872 0.86418 0.0
H1869 H 0.89463 0.75344 0.86569 0.0
H1870 H 0.90567 0.78752 0.79956 0.0
H1871 H 0.90049 0.77712 0.82331 0.0
C1872 C 0.13058 0.27788 0.16841 0.0
C1873 C 0.11987 0.26717 0.16683 0.0
C1874 C 0.14183 0.27902 0.15836 0.0
C1875 C 0.15633 0.26422 0.12334 0.0
H1876 H 0.193 0.26798 0.14364 0.0
C1877 C 0.21032 0.239 0.10409 0.0
C1878 C 0.22335 0.24636 0.10714 0.0
C1879 C 0.19701 0.24474 0.10854 0.0
C1880 C 0.18289 0.26721 0.13769 0.0
H1881 H 0.11191 0.2499 0.15302 0.0
H1882 H 0.13189 0.25143 0.13573 0.0
H1883 H 0.1706 0.27253 0.1565 0.0
H1884 H 0.2325 0.26603 0.11634 0.0
H1885 H 0.20925 0.27603 0.12408 0.0
H1886 H 0.16888 0.25808 0.1047 0.0
C1887 C 0.13147 0.25922 0.14452 0.0
C1888 C 0.16997 0.26987 0.14507 0.0
C1889 C 0.12001 0.25829 0.15445 0.0
C1890 C 0.22268 0.26 0.11394 0.0
C1891 C 0.20938 0.26572 0.11842 0.0
C1892 C 0.16932 0.26145 0.11595 0.0
C1893 C 0.14285 0.26921 0.1467 0.0
C1894 C 0.15649 0.26817 0.1381 0.0
C1895 C 0.19644 0.25795 0.11615 0.0
C1896 C 0.18273 0.26267 0.12315 0.0
H1897 H 0.13059 0.285 0.17779 0.0
H1898 H 0.15013 0.28715 0.16014 0.0
H1899 H 0.14617 0.263 0.11757 0.0
H1900 H 0.21043 0.22851 0.09878 0.0
H1901 H 0.18726 0.23843 0.10672 0.0
C1902 C 0.20448 0.77107 0.89371 0.0
C1903 C 0.21796 0.76702 0.8878 0.0
C1904 C 0.1916 0.7651 0.88835 0.0
C1905 C 0.17682 0.73567 0.86486 0.0
H1906 H 0.14725 0.7642 0.85574 0.0
C1907 C 0.13756 0.73036 0.81706 0.0
C1908 C 0.12354 0.73628 0.81804 0.0
C1909 C 0.14721 0.73147 0.82867 0.0
C1910 C 0.15521 0.75599 0.85849 0.0
H1911 H 0.22849 0.75301 0.87205 0.0
H1912 H 0.20608 0.74281 0.86256 0.0
H1913 H 0.16794 0.77118 0.87054 0.0
H1914 H 0.10833 0.74719 0.83231 0.0
H1915 H 0.12528 0.74917 0.85266 0.0
H1916 H 0.16435 0.72068 0.8522 0.0
C1917 C 0.20544 0.75046 0.87147 0.0
C1918 C 0.1671 0.76 0.86698 0.0
C1919 C 0.2183 0.75641 0.87684 0.0
C1920 C 0.11907 0.74257 0.83121 0.0
C1921 C 0.1288 0.74377 0.84282 0.0
C1922 C 0.16493 0.73167 0.85634 0.0
C1923 C 0.19192 0.75495 0.87695 0.0
C1924 C 0.17827 0.75001 0.8699 0.0
C1925 C 0.1431 0.73857 0.84152 0.0
C1926 C 0.15422 0.74192 0.85269 0.0
H1927 H 0.20382 0.77912 0.90225 0.0
H1928 H 0.18138 0.76863 0.89294 0.0
H1929 H 0.1851 0.72765 0.86715 0.0
H1930 H 0.1413 0.72535 0.80711 0.0
H1931 H 0.15817 0.72747 0.82724 0.0
C1932 C 0.22109 0.21466 0.88498 0.0
C1933 C 0.22399 0.22931 0.88179 0.0
C1934 C 0.22853 0.20358 0.87777 0.0
C1935 C 0.24715 0.19705 0.84328 0.0
H1936 H 0.25784 0.16035 0.86095 0.0
C1937 C 0.27013 0.15142 0.80831 0.0
C1938 C 0.26363 0.13778 0.81031 0.0
C1939 C 0.2684 0.16236 0.81865 0.0
C1940 C 0.25488 0.17053 0.85587 0.0
H1941 H 0.23754 0.24379 0.86907 0.0
H1942 H 0.25059 0.22446 0.85662 0.0
H1943 H 0.24893 0.1802 0.87619 0.0
H1944 H 0.25103 0.12458 0.82518 0.0
H1945 H 0.24773 0.14378 0.8431 0.0
H1946 H 0.25259 0.18738 0.82297 0.0
C1947 C 0.24238 0.22155 0.8645 0.0
C1948 C 0.24978 0.18189 0.86459 0.0
C1949 C 0.23492 0.23262 0.87168 0.0
C1950 C 0.25616 0.13499 0.82332 0.0
C1951 C 0.25432 0.14599 0.83362 0.0
C1952 C 0.25221 0.18574 0.8346 0.0
C1953 C 0.23905 0.2069 0.86724 0.0
C1954 C 0.24569 0.19521 0.85835 0.0
C1955 C 0.26001 0.15995 0.83115 0.0
C1956 C 0.25598 0.17228 0.84075 0.0
H1957 H 0.21276 0.21172 0.89274 0.0
H1958 H 0.22561 0.19242 0.88003 0.0
H1959 H 0.24382 0.20705 0.83808 0.0
H1960 H 0.27614 0.15385 0.79849 0.0
H1961 H 0.27323 0.17288 0.81659 0.0
C1962 C 0.78943 0.21933 0.89362 0.0
C1963 C 0.7758 0.22611 0.89249 0.0
C1964 C 0.80181 0.22594 0.88784 0.0
C1965 C 0.81115 0.25065 0.85846 0.0
H1966 H 0.85014 0.24822 0.8741 0.0
C1967 C 0.85871 0.26844 0.82351 0.0
C1968 C 0.87038 0.25868 0.82299 0.0
C1969 C 0.84852 0.26762 0.83468 0.0
C1970 C 0.83932 0.24896 0.86958 0.0
H1971 H 0.76468 0.24563 0.88534 0.0
H1972 H 0.78627 0.25713 0.87536 0.0
H1973 H 0.82948 0.24071 0.88902 0.0
H1974 H 0.88117 0.24106 0.83423 0.0
H1975 H 0.86308 0.23921 0.85347 0.0
H1976 H 0.82079 0.25816 0.83885 0.0
C1977 C 0.78733 0.2466 0.88048 0.0
C1978 C 0.82751 0.24468 0.87813 0.0
C1979 C 0.77497 0.24001 0.88624 0.0
C1980 C 0.87227 0.24874 0.83439 0.0
C1981 C 0.86191 0.24773 0.84545 0.0
C1982 C 0.8229 0.25482 0.84992 0.0
C1983 C 0.8008 0.23945 0.88083 0.0
C1984 C 0.81331 0.24531 0.87257 0.0
C1985 C 0.8496 0.2568 0.84539 0.0
C1986 C 0.83717 0.25386 0.85527 0.0
H1987 H 0.79045 0.20865 0.89844 0.0
H1988 H 0.81201 0.22011 0.88819 0.0
H1989 H 0.8004 0.25099 0.85373 0.0
H1990 H 0.85713 0.27637 0.81496 0.0
H1991 H 0.83943 0.27507 0.83454 0.0
C1992 C 0.72954 0.86983 0.83876 0.0
C1993 C 0.73926 0.88142 0.8369 0.0
C1994 C 0.73206 0.85935 0.84938 0.0
C1995 C 0.74885 0.83348 0.85954 0.0
H1996 H 0.76615 0.83704 0.89772 0.0
C1997 C 0.76963 0.78301 0.889 0.0
C1998 C 0.78312 0.78419 0.89598 0.0
C1999 C 0.76221 0.7954 0.88445 0.0
C2000 C 0.7614 0.83588 0.88703 0.0
H2001 H 0.75835 0.89201 0.84565 0.0
H2002 H 0.76292 0.8735 0.8641 0.0
H2003 H 0.75611 0.85857 0.88575 0.0
H2004 H 0.79922 0.79933 0.90408 0.0
H2005 H 0.78654 0.82099 0.89563 0.0
H2006 H 0.75464 0.81111 0.86032 0.0
C2007 C 0.75329 0.87258 0.85743 0.0
C2008 C 0.7556 0.8482 0.88023 0.0
C2009 C 0.75067 0.88319 0.84687 0.0
C2010 C 0.78884 0.79807 0.89871 0.0
C2011 C 0.78151 0.8105 0.89396 0.0
C2012 C 0.7547 0.82127 0.86625 0.0
C2013 C 0.74445 0.86014 0.85823 0.0
C2014 C 0.74934 0.84712 0.86636 0.0
C2015 C 0.76821 0.80929 0.88654 0.0
C2016 C 0.76116 0.82229 0.88003 0.0
H2017 H 0.72055 0.86831 0.83133 0.0
H2018 H 0.72484 0.85008 0.84999 0.0
H2019 H 0.74448 0.83231 0.84869 0.0
H2020 H 0.76481 0.77248 0.88696 0.0
H2021 H 0.75184 0.79406 0.8791 0.0
C2022 C 0.7763 0.74605 0.10445 0.0
C2023 C 0.77519 0.7605 0.09972 0.0
C2024 C 0.78982 0.74008 0.10786 0.0
C2025 C 0.82983 0.74631 0.10562 0.0
H2026 H 0.82973 0.72591 0.14239 0.0
C2027 C 0.87857 0.74317 0.14485 0.0
C2028 C 0.87925 0.73143 0.15455 0.0
C2029 C 0.8675 0.74387 0.13447 0.0
C2030 C 0.83001 0.73126 0.13193 0.0
H2031 H 0.78749 0.77982 0.09419 0.0
H2032 H 0.81099 0.76955 0.10049 0.0
H2033 H 0.80693 0.73255 0.13125 0.0
H2034 H 0.87015 0.71039 0.15984 0.0
H2035 H 0.85122 0.71134 0.14142 0.0
H2036 H 0.85307 0.7455 0.10674 0.0
C2037 C 0.80147 0.76272 0.10135 0.0
C2038 C 0.81687 0.7351 0.12552 0.0
C2039 C 0.78796 0.76865 0.09785 0.0
C2040 C 0.86974 0.71967 0.15262 0.0
C2041 C 0.85883 0.72027 0.14214 0.0
C2042 C 0.84305 0.74247 0.11207 0.0
C2043 C 0.80253 0.74847 0.10673 0.0
C2044 C 0.81658 0.74292 0.11243 0.0
C2045 C 0.85705 0.73275 0.13354 0.0
C2046 C 0.84328 0.73512 0.12545 0.0
H2047 H 0.7667 0.73941 0.10584 0.0
H2048 H 0.79028 0.72898 0.11171 0.0
H2049 H 0.82999 0.75217 0.09543 0.0
H2050 H 0.88574 0.7524 0.14613 0.0
H2051 H 0.86645 0.75365 0.12804 0.0
C2052 C 0.23242 0.76458 0.12578 0.0
C2053 C 0.22087 0.76752 0.11626 0.0
C2054 C 0.23985 0.77592 0.13258 0.0
C2055 C 0.24575 0.81587 0.13215 0.0
H2056 H 0.25122 0.81048 0.17352 0.0
C2057 C 0.25234 0.86296 0.17315 0.0
C2058 C 0.26075 0.86054 0.18565 0.0
C2059 C 0.25039 0.85188 0.16295 0.0
C2060 C 0.25008 0.81211 0.16193 0.0
H2061 H 0.20849 0.78471 0.10594 0.0
H2062 H 0.22129 0.80444 0.11799 0.0
H2063 H 0.24242 0.79046 0.15888 0.0
H2064 H 0.27476 0.84509 0.19658 0.0
H2065 H 0.27162 0.82594 0.17866 0.0
H2066 H 0.25306 0.83773 0.13538 0.0
C2067 C 0.22472 0.79339 0.12008 0.0
C2068 C 0.24501 0.8006 0.15352 0.0
C2069 C 0.21731 0.78206 0.11325 0.0
C2070 C 0.26803 0.84722 0.18718 0.0
C2071 C 0.26617 0.83621 0.17695 0.0
C2072 C 0.25085 0.82743 0.14059 0.0
C2073 C 0.23589 0.79044 0.13004 0.0
C2074 C 0.24258 0.80238 0.13857 0.0
C2075 C 0.2569 0.83822 0.165 0.0
C2076 C 0.25289 0.82572 0.15562 0.0
H2077 H 0.23555 0.75352 0.12823 0.0
H2078 H 0.24857 0.77329 0.14002 0.0
H2079 H 0.24416 0.81753 0.12062 0.0
H2080 H 0.2466 0.87311 0.17165 0.0
H2081 H 0.24312 0.85378 0.15391 0.0
C2082 C 0.72728 0.14193 0.18735 0.0
C2083 C 0.736 0.12956 0.1855 0.0
C2084 C 0.72712 0.15286 0.17688 0.0
C2085 C 0.73958 0.16274 0.13957 0.0
H2086 H 0.74312 0.20099 0.15679 0.0
C2087 C 0.76773 0.21142 0.11199 0.0
C2088 C 0.7624 0.22547 0.11471 0.0
C2089 C 0.76133 0.19934 0.11855 0.0
C2090 C 0.74185 0.19045 0.15174 0.0
H2091 H 0.75073 0.11854 0.17084 0.0
H2092 H 0.75084 0.13784 0.15274 0.0
H2093 H 0.73758 0.18035 0.1721 0.0
H2094 H 0.74553 0.23772 0.12567 0.0
H2095 H 0.73436 0.21662 0.13708 0.0
H2096 H 0.74457 0.17295 0.11925 0.0
C2097 C 0.7439 0.13901 0.16215 0.0
C2098 C 0.73864 0.17857 0.16053 0.0
C2099 C 0.7439 0.12795 0.17256 0.0
C2100 C 0.75 0.22708 0.12345 0.0
C2101 C 0.74362 0.215 0.13003 0.0
C2102 C 0.74289 0.17466 0.13076 0.0
C2103 C 0.73585 0.1518 0.16441 0.0
C2104 C 0.73769 0.16452 0.15462 0.0
C2105 C 0.74948 0.20105 0.12799 0.0
C2106 C 0.74428 0.18861 0.1368 0.0
H2107 H 0.72088 0.14336 0.19712 0.0
H2108 H 0.72049 0.16239 0.17879 0.0
H2109 H 0.73873 0.1521 0.13463 0.0
H2110 H 0.77722 0.20978 0.10524 0.0
H2111 H 0.76617 0.18876 0.11684 0.0
C2112 C 0.66088 0.631 0.77209 0.0
C2113 C 0.66137 0.61962 0.76197 0.0
C2114 C 0.65046 0.6419 0.77086 0.0
C2115 C 0.61816 0.65471 0.75005 0.0
H2116 H 0.63903 0.69125 0.75112 0.0
C2117 C 0.60037 0.70587 0.71824 0.0
C2118 C 0.60364 0.7196 0.72406 0.0
C2119 C 0.60477 0.69322 0.72538 0.0
C2120 C 0.63286 0.68125 0.75105 0.0
H2121 H 0.65054 0.60989 0.74351 0.0
H2122 H 0.6325 0.62916 0.7411 0.0
H2123 H 0.65065 0.66946 0.75993 0.0
H2124 H 0.61325 0.73079 0.74241 0.0
H2125 H 0.6206 0.70878 0.75502 0.0
H2126 H 0.60049 0.66663 0.74069 0.0
C2127 C 0.64003 0.62959 0.75011 0.0
C2128 C 0.63955 0.66869 0.75615 0.0
C2129 C 0.65036 0.61853 0.75149 0.0
C2130 C 0.61076 0.72039 0.73752 0.0
C2131 C 0.61502 0.70776 0.74473 0.0
C2132 C 0.61141 0.66737 0.74497 0.0
C2133 C 0.64049 0.64179 0.75931 0.0
C2134 C 0.63239 0.65522 0.75553 0.0
C2135 C 0.61242 0.69402 0.73857 0.0
C2136 C 0.61879 0.68075 0.74521 0.0
H2137 H 0.66916 0.63199 0.78039 0.0
H2138 H 0.65084 0.65094 0.77837 0.0
H2139 H 0.61233 0.64452 0.74949 0.0
H2140 H 0.59487 0.70489 0.70789 0.0
H2141 H 0.60272 0.68285 0.72024 0.0
C2142 C 0.29352 0.59982 0.74173 0.0
C2143 C 0.28139 0.60695 0.74763 0.0
C2144 C 0.3075 0.60314 0.74655 0.0
C2145 C 0.32829 0.62408 0.77449 0.0
H2146 H 0.35424 0.63146 0.74219 0.0
C2147 C 0.36943 0.6703 0.77282 0.0
C2148 C 0.38241 0.66871 0.76498 0.0
C2149 C 0.35957 0.65886 0.77376 0.0
C2150 C 0.34733 0.62914 0.75142 0.0
H2151 H 0.27436 0.62248 0.76386 0.0
H2152 H 0.2987 0.62858 0.77198 0.0
H2153 H 0.33185 0.61825 0.73808 0.0
H2154 H 0.39574 0.65358 0.75286 0.0
H2155 H 0.37833 0.63354 0.75435 0.0
H2156 H 0.34347 0.63586 0.78759 0.0
C2157 C 0.29747 0.62023 0.7638 0.0
C2158 C 0.33444 0.62154 0.74907 0.0
C2159 C 0.28348 0.61681 0.75907 0.0
C2160 C 0.3858 0.65512 0.75894 0.0
C2161 C 0.37582 0.64368 0.75974 0.0
C2162 C 0.34116 0.63177 0.77682 0.0
C2163 C 0.30969 0.61377 0.75728 0.0
C2164 C 0.3245 0.61936 0.76046 0.0
C2165 C 0.36241 0.6456 0.76678 0.0
C2166 C 0.35056 0.63481 0.76519 0.0
H2167 H 0.29227 0.59201 0.73303 0.0
H2168 H 0.31664 0.59773 0.74151 0.0
H2169 H 0.32103 0.62232 0.78357 0.0
H2170 H 0.36657 0.68061 0.7777 0.0
H2171 H 0.34929 0.66075 0.77914 0.0
C2172 C 0.39006 0.28362 0.74302 0.0
C2173 C 0.39734 0.28181 0.72974 0.0
C2174 C 0.38696 0.29752 0.74827 0.0
C2175 C 0.3799 0.33393 0.73435 0.0
H2176 H 0.37777 0.34394 0.77517 0.0
C2177 C 0.3478 0.38384 0.75178 0.0
C2178 C 0.33736 0.38049 0.76239 0.0
C2179 C 0.35967 0.37462 0.74954 0.0
C2180 C 0.37836 0.34134 0.76372 0.0
H2181 H 0.40785 0.29322 0.71199 0.0
H2182 H 0.40247 0.31742 0.72118 0.0
H2183 H 0.39011 0.32166 0.76773 0.0
H2184 H 0.33205 0.36579 0.78 0.0
H2185 H 0.35245 0.34972 0.77599 0.0
H2186 H 0.3675 0.35307 0.73031 0.0
C2187 C 0.39898 0.30809 0.72743 0.0
C2188 C 0.3854 0.32858 0.75947 0.0
C2189 C 0.40208 0.29421 0.72219 0.0
C2190 C 0.3398 0.36859 0.77162 0.0
C2191 C 0.35161 0.3594 0.76938 0.0
C2192 C 0.37282 0.34663 0.73859 0.0
C2193 C 0.39108 0.30991 0.74035 0.0
C2194 C 0.38584 0.32451 0.74477 0.0
C2195 C 0.36131 0.36192 0.75788 0.0
C2196 C 0.37152 0.35025 0.75336 0.0
H2197 H 0.3863 0.27431 0.74914 0.0
H2198 H 0.38072 0.29854 0.75818 0.0
H2199 H 0.37988 0.33105 0.72295 0.0
H2200 H 0.34631 0.393 0.74456 0.0
H2201 H 0.36712 0.37702 0.74078 0.0
C2202 C 0.6325 0.33672 0.77183 0.0
C2203 C 0.62091 0.33407 0.76228 0.0
C2204 C 0.64154 0.34869 0.76983 0.0
C2205 C 0.65501 0.37004 0.7395 0.0
H2206 H 0.67823 0.38818 0.76955 0.0
C2207 C 0.70761 0.40021 0.72527 0.0
C2208 C 0.71968 0.39584 0.73353 0.0
C2209 C 0.69354 0.39686 0.72983 0.0
C2210 C 0.67181 0.38324 0.76104 0.0
H2211 H 0.60883 0.3427 0.74402 0.0
H2212 H 0.6246 0.36377 0.74059 0.0
H2213 H 0.65597 0.37536 0.77612 0.0
H2214 H 0.72638 0.38518 0.75343 0.0
H2215 H 0.70188 0.37917 0.76126 0.0
H2216 H 0.6711 0.37732 0.7245 0.0
C2217 C 0.62683 0.3564 0.74948 0.0
C2218 C 0.65905 0.37592 0.76479 0.0
C2219 C 0.61773 0.34439 0.7515 0.0
C2220 C 0.71734 0.38866 0.74678 0.0
C2221 C 0.70326 0.38532 0.75134 0.0
C2222 C 0.66772 0.37737 0.73576 0.0
C2223 C 0.63921 0.35831 0.75823 0.0
C2224 C 0.65079 0.36878 0.75411 0.0
C2225 C 0.69122 0.38909 0.74274 0.0
C2226 C 0.67653 0.38362 0.74653 0.0
H2227 H 0.63516 0.32905 0.78035 0.0
H2228 H 0.65099 0.34973 0.77675 0.0
H2229 H 0.64906 0.3645 0.73101 0.0
H2230 H 0.70901 0.40588 0.71507 0.0
H2231 H 0.68448 0.40007 0.72306 0.0
C2232 C 0.67316 0.37725 0.23484 0.0
C2233 C 0.68605 0.37626 0.22677 0.0
C2234 C 0.66309 0.36587 0.23462 0.0
C2235 C 0.66314 0.32643 0.22868 0.0
H2236 H 0.6217 0.32993 0.23502 0.0
C2237 C 0.62858 0.27594 0.23978 0.0
C2238 C 0.6195 0.27705 0.25199 0.0
C2239 C 0.63468 0.28838 0.23359 0.0
C2240 C 0.63327 0.3288 0.23324 0.0
H2241 H 0.69788 0.36332 0.21107 0.0
H2242 H 0.68016 0.34374 0.21031 0.0
H2243 H 0.63601 0.35159 0.22941 0.0
H2244 H 0.60902 0.29217 0.26671 0.0
H2245 H 0.6198 0.31378 0.25605 0.0
H2246 H 0.66057 0.30379 0.23291 0.0
C2247 C 0.67802 0.35301 0.21722 0.0
C2248 C 0.64145 0.3412 0.23005 0.0
C2249 C 0.68813 0.36427 0.21759 0.0
C2250 C 0.61603 0.29091 0.25736 0.0
C2251 C 0.62213 0.30334 0.25117 0.0
C2252 C 0.65498 0.31408 0.23182 0.0
C2253 C 0.66569 0.35337 0.2262 0.0
C2254 C 0.65654 0.34018 0.22797 0.0
C2255 C 0.63182 0.30219 0.23946 0.0
C2256 C 0.63999 0.31513 0.2344 0.0
H2257 H 0.67128 0.38636 0.24203 0.0
H2258 H 0.65376 0.36649 0.24173 0.0
H2259 H 0.67477 0.32523 0.22748 0.0
H2260 H 0.63138 0.26544 0.23528 0.0
H2261 H 0.64193 0.28716 0.22442 0.0
C2262 C 0.71122 0.61087 0.28039 0.0
C2263 C 0.72549 0.61398 0.27598 0.0
C2264 C 0.69941 0.61724 0.27332 0.0
C2265 C 0.69084 0.64989 0.25225 0.0
H2266 H 0.65342 0.63138 0.2469 0.0
C2267 C 0.64332 0.68286 0.2307 0.0
C2268 C 0.63051 0.68178 0.23888 0.0
C2269 C 0.65424 0.67247 0.23211 0.0
C2270 C 0.6638 0.63668 0.24834 0.0
H2271 H 0.7385 0.62555 0.26011 0.0
H2272 H 0.71792 0.63648 0.24767 0.0
H2273 H 0.67412 0.61701 0.2553 0.0
H2274 H 0.6186 0.66838 0.25413 0.0
H2275 H 0.63783 0.65036 0.25686 0.0
H2276 H 0.68059 0.6696 0.24579 0.0
C2277 C 0.71586 0.62937 0.25681 0.0
C2278 C 0.67565 0.62847 0.25316 0.0
C2279 C 0.72766 0.62306 0.26391 0.0
C2280 C 0.62837 0.66951 0.24769 0.0
C2281 C 0.63938 0.65916 0.24922 0.0
C2282 C 0.67906 0.65806 0.24745 0.0
C2283 C 0.70161 0.62682 0.26165 0.0
C2284 C 0.68926 0.63504 0.25533 0.0
C2285 C 0.65266 0.66085 0.24187 0.0
C2286 C 0.66535 0.65162 0.24559 0.0
H2287 H 0.70916 0.60389 0.28963 0.0
H2288 H 0.68859 0.61515 0.27741 0.0
H2289 H 0.70107 0.65538 0.2541 0.0
H2290 H 0.64519 0.69209 0.22364 0.0
H2291 H 0.66418 0.67388 0.226 0.0
C2292 C 0.34816 0.61049 0.24408 0.0
C2293 C 0.33758 0.61371 0.23358 0.0
C2294 C 0.35987 0.61993 0.24629 0.0
C2295 C 0.37802 0.65339 0.23197 0.0
H2296 H 0.3795 0.66405 0.27265 0.0
C2297 C 0.38933 0.71141 0.25185 0.0
C2298 C 0.39667 0.7135 0.26506 0.0
C2299 C 0.38624 0.69741 0.24689 0.0
C2300 C 0.37953 0.66107 0.26127 0.0
H2301 H 0.33179 0.62844 0.21615 0.0
H2302 H 0.35197 0.64485 0.22004 0.0
H2303 H 0.36737 0.6418 0.26548 0.0
H2304 H 0.40722 0.70246 0.28302 0.0
H2305 H 0.40184 0.67806 0.27432 0.0
H2306 H 0.38956 0.67314 0.22777 0.0
C2307 C 0.35136 0.63511 0.2266 0.0
C2308 C 0.37259 0.64824 0.25715 0.0
C2309 C 0.33968 0.62573 0.22443 0.0
C2310 C 0.40141 0.70126 0.27287 0.0
C2311 C 0.39831 0.68726 0.2679 0.0
C2312 C 0.38494 0.66625 0.2361 0.0
C2313 C 0.36121 0.63269 0.23799 0.0
C2314 C 0.3713 0.6445 0.24241 0.0
C2315 C 0.39042 0.68518 0.25502 0.0
C2316 C 0.38534 0.67047 0.25076 0.0
H2317 H 0.34689 0.60126 0.25126 0.0
H2318 H 0.36743 0.61764 0.25499 0.0
H2319 H 0.37743 0.65069 0.22054 0.0
H2320 H 0.38556 0.72059 0.24555 0.0
H2321 H 0.37999 0.6962 0.23701 0.0
C2322 C 0.37487 0.33423 0.24206 0.0
C2323 C 0.3706 0.32091 0.23594 0.0
C2324 C 0.3649 0.34559 0.24347 0.0
C2325 C 0.32812 0.35813 0.23234 0.0
H2326 H 0.32652 0.37352 0.27148 0.0
C2327 C 0.27567 0.37908 0.25866 0.0
C2328 C 0.27639 0.39047 0.26879 0.0
C2329 C 0.2883 0.37357 0.25235 0.0
C2330 C 0.32695 0.36962 0.26039 0.0
H2331 H 0.3528 0.30944 0.22561 0.0
H2332 H 0.33547 0.32913 0.22819 0.0
H2333 H 0.34703 0.35864 0.26416 0.0
H2334 H 0.29091 0.40553 0.27963 0.0
H2335 H 0.31295 0.39595 0.26853 0.0
H2336 H 0.30771 0.36869 0.22879 0.0
C2337 C 0.3465 0.33088 0.23184 0.0
C2338 C 0.33874 0.36108 0.25619 0.0
C2339 C 0.35643 0.31952 0.23047 0.0
C2340 C 0.28998 0.39666 0.27197 0.0
C2341 C 0.30262 0.39115 0.26564 0.0
C2342 C 0.31632 0.36669 0.23654 0.0
C2343 C 0.3505 0.34389 0.23872 0.0
C2344 C 0.33926 0.35489 0.24225 0.0
C2345 C 0.30195 0.37934 0.256 0.0
C2346 C 0.31541 0.37218 0.25076 0.0
H2347 H 0.38573 0.33569 0.24631 0.0
H2348 H 0.36835 0.35557 0.24866 0.0
H2349 H 0.32832 0.35371 0.22144 0.0
H2350 H 0.26539 0.37407 0.25593 0.0
H2351 H 0.2874 0.36436 0.2451 0.0
C2352 C 0.71546 0.60086 0.70235 0.0
C2353 C 0.72065 0.60709 0.71529 0.0
C2354 C 0.72168 0.60451 0.68899 0.0
C2355 C 0.75363 0.62263 0.67214 0.0
H2356 H 0.72585 0.6347 0.64293 0.0
C2357 C 0.76303 0.66957 0.63321 0.0
C2358 C 0.75649 0.66963 0.61944 0.0
C2359 C 0.76129 0.65776 0.64249 0.0
C2360 C 0.73382 0.63103 0.65076 0.0
H2361 H 0.73685 0.62158 0.72437 0.0
H2362 H 0.74752 0.62808 0.70115 0.0
H2363 H 0.71748 0.62161 0.66426 0.0
H2364 H 0.7439 0.65694 0.60414 0.0
H2365 H 0.74073 0.63621 0.62051 0.0
H2366 H 0.76986 0.63278 0.65895 0.0
C2367 C 0.73876 0.62024 0.7013 0.0
C2368 C 0.729 0.62354 0.66303 0.0
C2369 C 0.73254 0.61662 0.71462 0.0
C2370 C 0.74905 0.65719 0.61471 0.0
C2371 C 0.74716 0.64537 0.6241 0.0
C2372 C 0.75844 0.63013 0.65987 0.0
C2373 C 0.73326 0.61442 0.6883 0.0
C2374 C 0.73877 0.61977 0.67412 0.0
C2375 C 0.75287 0.64577 0.63826 0.0
C2376 C 0.7485 0.63492 0.64934 0.0
H2377 H 0.70638 0.59339 0.70248 0.0
H2378 H 0.71729 0.59975 0.67918 0.0
H2379 H 0.76147 0.61958 0.68036 0.0
H2380 H 0.76893 0.67897 0.6371 0.0
H2381 H 0.76572 0.65849 0.65336 0.0
C2382 C 0.39162 0.73592 0.71117 0.0
C2383 C 0.39877 0.72255 0.71283 0.0
C2384 C 0.3878 0.74096 0.6974 0.0
C2385 C 0.37798 0.727 0.66179 0.0
H2386 H 0.37672 0.76787 0.65177 0.0
C2387 C 0.34287 0.74637 0.61434 0.0
C2388 C 0.33321 0.75742 0.61852 0.0
C2389 C 0.35515 0.74332 0.62276 0.0
C2390 C 0.37706 0.75641 0.65436 0.0
H2391 H 0.40812 0.70429 0.70123 0.0
H2392 H 0.40135 0.7131 0.67715 0.0
H2393 H 0.39055 0.75997 0.67296 0.0
H2394 H 0.32962 0.77483 0.63397 0.0
H2395 H 0.3508 0.7695 0.6486 0.0
H2396 H 0.36386 0.72348 0.64374 0.0
C2397 C 0.39864 0.71962 0.68655 0.0
C2398 C 0.38497 0.75189 0.6665 0.0
C2399 C 0.40255 0.71461 0.70034 0.0
C2400 C 0.33676 0.76615 0.63052 0.0
C2401 C 0.34902 0.76315 0.63887 0.0
C2402 C 0.37004 0.73152 0.64969 0.0
C2403 C 0.39099 0.73273 0.68495 0.0
C2404 C 0.38506 0.7372 0.67064 0.0
C2405 C 0.35804 0.75134 0.63544 0.0
C2406 C 0.36903 0.74634 0.64615 0.0
H2407 H 0.3886 0.74235 0.72054 0.0
H2408 H 0.38175 0.75101 0.69658 0.0
H2409 H 0.37773 0.71562 0.66475 0.0
H2410 H 0.34048 0.73948 0.60511 0.0
H2411 H 0.36202 0.73428 0.61971 0.0
C2412 C 0.25956 0.36639 0.73227 0.0
C2413 C 0.26966 0.37724 0.72868 0.0
C2414 C 0.25183 0.35917 0.72138 0.0
C2415 C 0.24204 0.36057 0.68222 0.0
H2416 H 0.24152 0.31865 0.68582 0.0
C2417 C 0.23623 0.32126 0.63369 0.0
C2418 C 0.22944 0.3078 0.63604 0.0
C2419 C 0.23789 0.33111 0.64512 0.0
C2420 C 0.24126 0.33036 0.68473 0.0
H2421 H 0.27917 0.38938 0.71085 0.0
H2422 H 0.26591 0.37664 0.69193 0.0
H2423 H 0.25046 0.33329 0.7058 0.0
H2424 H 0.21791 0.29468 0.65184 0.0
H2425 H 0.22056 0.31196 0.67165 0.0
H2426 H 0.23324 0.35752 0.6609 0.0
C2427 C 0.2638 0.37382 0.70315 0.0
C2428 C 0.24641 0.33876 0.69622 0.0
C2429 C 0.2715 0.38104 0.71401 0.0
C2430 C 0.2234 0.30487 0.64973 0.0
C2431 C 0.22497 0.31474 0.66111 0.0
C2432 C 0.23688 0.35214 0.67069 0.0
C2433 C 0.25405 0.36264 0.70668 0.0
C2434 C 0.2471 0.35395 0.69502 0.0
C2435 C 0.23271 0.32773 0.65908 0.0
C2436 C 0.23665 0.33691 0.67174 0.0
H2437 H 0.25779 0.36327 0.74347 0.0
H2438 H 0.24424 0.35074 0.72447 0.0
H2439 H 0.24225 0.37227 0.68104 0.0
H2440 H 0.24099 0.32384 0.62326 0.0
H2441 H 0.24398 0.34099 0.64321 0.0
C2442 C 0.68239 0.2392 0.63346 0.0
C2443 C 0.69603 0.23265 0.63543 0.0
C2444 C 0.67247 0.23988 0.64492 0.0
C2445 C 0.67281 0.24092 0.68462 0.0
H2446 H 0.63095 0.24039 0.68054 0.0
C2447 C 0.63582 0.25643 0.7324 0.0
C2448 C 0.62474 0.26633 0.72895 0.0
C2449 C 0.6433 0.24913 0.72139 0.0
C2450 C 0.64263 0.24059 0.68184 0.0
H2451 H 0.70946 0.22063 0.6506 0.0
H2452 H 0.6921 0.22165 0.67048 0.0
H2453 H 0.64621 0.23302 0.66013 0.0
H2454 H 0.61242 0.27584 0.71125 0.0
H2455 H 0.6256 0.26336 0.69214 0.0
H2456 H 0.66934 0.24896 0.70608 0.0
C2457 C 0.68921 0.22657 0.6602 0.0
C2458 C 0.65136 0.23637 0.67016 0.0
C2459 C 0.69913 0.22595 0.64878 0.0
C2460 C 0.62093 0.26832 0.7143 0.0
C2461 C 0.62841 0.26106 0.70332 0.0
C2462 C 0.66411 0.24515 0.69627 0.0
C2463 C 0.67597 0.23396 0.65856 0.0
C2464 C 0.66656 0.23675 0.67134 0.0
C2465 C 0.63987 0.25159 0.70671 0.0
C2466 C 0.64893 0.24532 0.69493 0.0
H2467 H 0.67966 0.24445 0.6233 0.0
H2468 H 0.66241 0.24573 0.64332 0.0
H2469 H 0.68449 0.24159 0.68584 0.0
H2470 H 0.63895 0.25455 0.74357 0.0
H2471 H 0.65195 0.24174 0.72436 0.0
C2472 C 0.75562 0.38543 0.27383 0.0
C2473 C 0.74232 0.39288 0.27415 0.0
C2474 C 0.7615 0.37963 0.28655 0.0
C2475 C 0.75848 0.3791 0.32681 0.0
H2476 H 0.76885 0.3386 0.32205 0.0
C2477 C 0.75744 0.3371 0.3734 0.0
C2478 C 0.76665 0.32498 0.37249 0.0
C2479 C 0.75756 0.34766 0.36248 0.0
C2480 C 0.76636 0.34998 0.32362 0.0
H2481 H 0.72523 0.4009 0.28826 0.0
H2482 H 0.73539 0.39061 0.31039 0.0
H2483 H 0.7636 0.3532 0.30085 0.0
H2484 H 0.78418 0.31512 0.36027 0.0
H2485 H 0.78477 0.33377 0.34156 0.0
H2486 H 0.7609 0.37568 0.3497 0.0
C2487 C 0.74134 0.38934 0.30033 0.0
C2488 C 0.76331 0.35837 0.31141 0.0
C2489 C 0.73546 0.39515 0.28761 0.0
C2490 C 0.77679 0.32424 0.36113 0.0
C2491 C 0.77706 0.33488 0.35036 0.0
C2492 C 0.76161 0.37069 0.33908 0.0
C2493 C 0.7542 0.38114 0.29986 0.0
C2494 C 0.75909 0.37294 0.31285 0.0
C2495 C 0.76702 0.34638 0.35055 0.0
C2496 C 0.76534 0.35595 0.33764 0.0
H2497 H 0.76127 0.38362 0.26368 0.0
H2498 H 0.77155 0.37357 0.28589 0.0
H2499 H 0.75538 0.39035 0.32825 0.0
H2500 H 0.7495 0.33795 0.38202 0.0
H2501 H 0.74962 0.35631 0.36296 0.0
C2502 C 0.62285 0.75474 0.27926 0.0
C2503 C 0.61433 0.74213 0.28033 0.0
C2504 C 0.62878 0.76108 0.2917 0.0
C2505 C 0.62832 0.76095 0.33208 0.0
H2506 H 0.6697 0.76689 0.32756 0.0
C2507 C 0.66922 0.75942 0.37971 0.0
C2508 C 0.68222 0.76724 0.37832 0.0
C2509 C 0.65889 0.7597 0.36856 0.0
C2510 C 0.65811 0.76567 0.32904 0.0
H2511 H 0.6045 0.72691 0.29541 0.0
H2512 H 0.615 0.73787 0.31704 0.0
H2513 H 0.65501 0.76164 0.30645 0.0
H2514 H 0.69403 0.78259 0.36498 0.0
H2515 H 0.67582 0.7836 0.34588 0.0
H2516 H 0.63157 0.76465 0.35483 0.0
C2517 C 0.61703 0.74292 0.30661 0.0
C2518 C 0.64966 0.76262 0.31688 0.0
C2519 C 0.61109 0.73657 0.29418 0.0
C2520 C 0.68419 0.77626 0.3662 0.0
C2521 C 0.67379 0.77676 0.35522 0.0
C2522 C 0.63679 0.76411 0.34431 0.0
C2523 C 0.62633 0.75495 0.30546 0.0
C2524 C 0.63473 0.75997 0.31826 0.0
C2525 C 0.66132 0.76798 0.35594 0.0
C2526 C 0.65184 0.76626 0.34296 0.0
H2527 H 0.62543 0.7594 0.26878 0.0
H2528 H 0.63572 0.77049 0.29049 0.0
H2529 H 0.6168 0.75907 0.33346 0.0
H2530 H 0.66745 0.75234 0.38893 0.0
H2531 H 0.64947 0.75274 0.36947 0.0
C2532 C 0.24198 0.67092 0.36614 0.0
C2533 C 0.23404 0.68372 0.36369 0.0
C2534 C 0.24366 0.66067 0.35505 0.0
C2535 C 0.24432 0.6598 0.31529 0.0
H2536 H 0.24854 0.61824 0.32049 0.0
C2537 C 0.2605 0.62335 0.26754 0.0
C2538 C 0.2716 0.61328 0.27036 0.0
C2539 C 0.25336 0.63033 0.27894 0.0
C2540 C 0.24743 0.62984 0.31889 0.0
H2541 H 0.22057 0.69519 0.34815 0.0
H2542 H 0.22325 0.67721 0.32897 0.0
H2543 H 0.24014 0.63325 0.34073 0.0
H2544 H 0.28346 0.60217 0.28742 0.0
H2545 H 0.27118 0.61456 0.30729 0.0
H2546 H 0.25197 0.65657 0.29367 0.0
C2547 C 0.22853 0.67527 0.3393 0.0
C2548 C 0.24261 0.63842 0.33047 0.0
C2549 C 0.22694 0.68554 0.35032 0.0
C2550 C 0.27498 0.6099 0.28486 0.0
C2551 C 0.26787 0.61693 0.29627 0.0
C2552 C 0.24911 0.65125 0.30376 0.0
C2553 C 0.23736 0.663 0.34134 0.0
C2554 C 0.24116 0.65353 0.32884 0.0
C2555 C 0.25719 0.62746 0.29343 0.0
C2556 C 0.2509 0.6362 0.30545 0.0
H2557 H 0.24758 0.66918 0.37633 0.0
H2558 H 0.25059 0.65137 0.35698 0.0
H2559 H 0.24364 0.67143 0.31372 0.0
H2560 H 0.2575 0.62609 0.2565 0.0
H2561 H 0.24499 0.63819 0.27639 0.0
C2562 C 0.31837 0.22789 0.36345 0.0
C2563 C 0.3211 0.23711 0.37527 0.0
C2564 C 0.32847 0.22656 0.35225 0.0
C2565 C 0.36576 0.23715 0.34015 0.0
H2566 H 0.34661 0.24035 0.3028 0.0
C2567 C 0.39087 0.26435 0.28972 0.0
C2568 C 0.387 0.25922 0.27587 0.0
C2569 C 0.38515 0.25791 0.3022 0.0
C2570 C 0.3522 0.23913 0.31307 0.0
H2571 H 0.33691 0.25142 0.38517 0.0
H2572 H 0.35437 0.24956 0.36535 0.0
H2573 H 0.33231 0.2357 0.32431 0.0
H2574 H 0.37501 0.24255 0.26433 0.0
H2575 H 0.36511 0.23127 0.28612 0.0
H2576 H 0.38562 0.24138 0.32877 0.0
C2577 C 0.34457 0.24309 0.36482 0.0
C2578 C 0.34398 0.23644 0.32547 0.0
C2579 C 0.33454 0.24422 0.37618 0.0
C2580 C 0.37809 0.24688 0.27481 0.0
C2581 C 0.37237 0.24044 0.2873 0.0
C2582 C 0.37401 0.23994 0.32769 0.0
C2583 C 0.3414 0.23466 0.35247 0.0
C2584 C 0.35059 0.23568 0.33922 0.0
C2585 C 0.37545 0.2462 0.3011 0.0
C2586 C 0.36726 0.24124 0.31406 0.0
H2587 H 0.30817 0.2221 0.36259 0.0
H2588 H 0.32585 0.21964 0.34312 0.0
H2589 H 0.37123 0.23644 0.35053 0.0
H2590 H 0.39778 0.27378 0.29094 0.0
H2591 H 0.38766 0.26268 0.31265 0.0
C2592 C 0.69997 0.72317 0.59561 0.0
C2593 C 0.71236 0.72927 0.60212 0.0
C2594 C 0.6862 0.72889 0.5984 0.0
C2595 C 0.66682 0.76049 0.61444 0.0
H2596 H 0.63951 0.73137 0.6277 0.0
C2597 C 0.62663 0.76988 0.66026 0.0
C2598 C 0.61367 0.76187 0.66098 0.0
C2599 C 0.63601 0.76827 0.64851 0.0
C2600 C 0.64677 0.73969 0.62368 0.0
H2601 H 0.72005 0.74664 0.61605 0.0
H2602 H 0.69607 0.75649 0.62101 0.0
H2603 H 0.66154 0.72386 0.61536 0.0
H2604 H 0.59977 0.74687 0.64935 0.0
H2605 H 0.61625 0.74405 0.6287 0.0
H2606 H 0.65233 0.77629 0.62342 0.0
C2607 C 0.69698 0.74737 0.61365 0.0
C2608 C 0.65946 0.73536 0.61661 0.0
C2609 C 0.71074 0.74163 0.61091 0.0
C2610 C 0.60971 0.75314 0.64912 0.0
C2611 C 0.61919 0.75146 0.63735 0.0
C2612 C 0.6541 0.76483 0.62147 0.0
C2613 C 0.68453 0.74087 0.6077 0.0
C2614 C 0.6699 0.74568 0.61244 0.0
C2615 C 0.6327 0.75858 0.63721 0.0
C2616 C 0.64423 0.75443 0.62671 0.0
H2617 H 0.70085 0.7137 0.5887 0.0
H2618 H 0.67682 0.72373 0.59354 0.0
H2619 H 0.67453 0.76871 0.61109 0.0
H2620 H 0.62992 0.7768 0.66918 0.0
H2621 H 0.64636 0.77385 0.64886 0.0
C2622 C 0.72286 0.25405 0.37533 0.0
C2623 C 0.72205 0.26509 0.38583 0.0
C2624 C 0.71021 0.24785 0.36972 0.0
C2625 C 0.6721 0.25755 0.36368 0.0
H2626 H 0.66974 0.21826 0.34875 0.0
C2627 C 0.62518 0.24075 0.32659 0.0
C2628 C 0.62993 0.23461 0.31345 0.0
C2629 C 0.63455 0.24161 0.3385 0.0
C2630 C 0.67021 0.22924 0.35293 0.0
H2631 H 0.70738 0.27752 0.39943 0.0
H2632 H 0.68535 0.26651 0.38983 0.0
H2633 H 0.68998 0.22514 0.36445 0.0
H2634 H 0.64782 0.22351 0.30289 0.0
H2635 H 0.66413 0.22511 0.32355 0.0
H2636 H 0.65267 0.26183 0.3518 0.0
C2637 C 0.69574 0.2629 0.38567 0.0
C2638 C 0.68181 0.23319 0.36188 0.0
C2639 C 0.70837 0.26918 0.3912 0.0
C2640 C 0.64386 0.22843 0.31281 0.0
C2641 C 0.65319 0.22923 0.32471 0.0
C2642 C 0.66049 0.25359 0.3548 0.0
C2643 C 0.69649 0.25247 0.37455 0.0
C2644 C 0.68311 0.24752 0.36701 0.0
C2645 C 0.64881 0.23626 0.33752 0.0
C2646 C 0.65965 0.23952 0.34897 0.0
H2647 H 0.73323 0.25063 0.37098 0.0
H2648 H 0.71121 0.23996 0.36106 0.0
H2649 H 0.67283 0.26873 0.36724 0.0
H2650 H 0.61447 0.24553 0.32748 0.0
H2651 H 0.63082 0.24692 0.3483 0.0
C2652 C 0.75578 0.6142 0.35169 0.0
C2653 C 0.76548 0.61744 0.34038 0.0
C2654 C 0.75411 0.62383 0.36334 0.0
C2655 C 0.76891 0.65784 0.38 0.0
H2656 H 0.72824 0.6677 0.38419 0.0
C2657 C 0.74863 0.71561 0.39183 0.0
C2658 C 0.7359 0.71755 0.40001 0.0
C2659 C 0.75368 0.70166 0.38865 0.0
C2660 C 0.73964 0.66495 0.38346 0.0
H2661 H 0.78212 0.63247 0.33317 0.0
H2662 H 0.77916 0.64918 0.35326 0.0
H2663 H 0.735 0.64543 0.37186 0.0
H2664 H 0.71897 0.70633 0.41196 0.0
H2665 H 0.72784 0.68202 0.40643 0.0
H2666 H 0.7735 0.67784 0.39097 0.0
C2667 C 0.77281 0.63929 0.35326 0.0
C2668 C 0.74353 0.65212 0.3764 0.0
C2669 C 0.77443 0.62973 0.34164 0.0
C2670 C 0.72874 0.70524 0.40551 0.0
C2671 C 0.73379 0.69129 0.40231 0.0
C2672 C 0.76501 0.67072 0.38703 0.0
C2673 C 0.76218 0.63679 0.36391 0.0
C2674 C 0.75822 0.64865 0.37413 0.0
C2675 C 0.74613 0.68934 0.39357 0.0
C2676 C 0.75033 0.67464 0.38841 0.0
H2677 H 0.74877 0.60478 0.35106 0.0
H2678 H 0.746 0.62148 0.37151 0.0
H2679 H 0.78032 0.65537 0.37864 0.0
H2680 H 0.75444 0.72485 0.38746 0.0
H2681 H 0.76313 0.70055 0.38174 0.0
C2682 C 0.27297 0.75642 0.37277 0.0
C2683 C 0.27409 0.74415 0.38176 0.0
C2684 C 0.28542 0.76287 0.36698 0.0
C2685 C 0.32578 0.76359 0.36866 0.0
H2686 H 0.32256 0.76706 0.32687 0.0
C2687 C 0.37456 0.75893 0.3296 0.0
C2688 C 0.37373 0.76584 0.31604 0.0
C2689 C 0.36308 0.76008 0.33948 0.0
C2690 C 0.32367 0.76654 0.33855 0.0
H2691 H 0.28923 0.72973 0.39264 0.0
H2692 H 0.31087 0.74087 0.38244 0.0
H2693 H 0.301 0.76263 0.34118 0.0
H2694 H 0.36102 0.78049 0.30273 0.0
H2695 H 0.34133 0.78299 0.32015 0.0
H2696 H 0.34861 0.7671 0.36591 0.0
C2697 C 0.3004 0.74557 0.37989 0.0
C2698 C 0.31125 0.76397 0.34678 0.0
C2699 C 0.28797 0.7391 0.38565 0.0
C2700 C 0.36182 0.77484 0.31302 0.0
C2701 C 0.3505 0.77621 0.32298 0.0
C2702 C 0.33826 0.76626 0.36041 0.0
C2703 C 0.29924 0.7572 0.3701 0.0
C2704 C 0.31219 0.76213 0.36188 0.0
C2705 C 0.35068 0.76834 0.33606 0.0
C2706 C 0.33739 0.76744 0.3452 0.0
H2707 H 0.26245 0.76067 0.36966 0.0
H2708 H 0.28421 0.77196 0.35962 0.0
H2709 H 0.32682 0.76235 0.3803 0.0
H2710 H 0.38362 0.7519 0.33218 0.0
H2711 H 0.36358 0.75379 0.3494 0.0
C2712 C 0.27758 0.30255 0.4007 0.0
C2713 C 0.26988 0.29012 0.39632 0.0
C2714 C 0.27245 0.31642 0.39726 0.0
C2715 C 0.24024 0.33652 0.38326 0.0
H2716 H 0.26917 0.36099 0.36496 0.0
C2717 C 0.22843 0.37407 0.33566 0.0
C2718 C 0.23691 0.38653 0.33337 0.0
C2719 C 0.23068 0.36536 0.34782 0.0
C2720 C 0.26096 0.35453 0.37037 0.0
H2721 H 0.25039 0.28255 0.38547 0.0
H2722 H 0.2416 0.30664 0.37929 0.0
H2723 H 0.27677 0.33941 0.37805 0.0
H2724 H 0.25353 0.40035 0.34266 0.0
H2725 H 0.25752 0.38503 0.36401 0.0
H2726 H 0.22438 0.3513 0.37486 0.0
C2727 C 0.25151 0.30573 0.38554 0.0
C2728 C 0.26534 0.34211 0.37787 0.0
C2729 C 0.25663 0.29188 0.38897 0.0
C2730 C 0.24685 0.39079 0.34413 0.0
C2731 C 0.2492 0.38197 0.35629 0.0
C2732 C 0.23587 0.34895 0.37574 0.0
C2733 C 0.2595 0.31816 0.38938 0.0
C2734 C 0.25499 0.33266 0.38392 0.0
C2735 C 0.24153 0.36886 0.35795 0.0
C2736 C 0.24615 0.35779 0.36873 0.0
H2737 H 0.28777 0.30159 0.40648 0.0
H2738 H 0.27877 0.32578 0.40052 0.0
H2739 H 0.23203 0.32962 0.38807 0.0
H2740 H 0.2206 0.37057 0.32761 0.0
H2741 H 0.22464 0.3553 0.34868 0.0
C2742 C 0.37314 0.2382 0.66457 0.0
C2743 C 0.37265 0.23107 0.67802 0.0
C2744 C 0.36153 0.23703 0.65485 0.0
C2745 C 0.32225 0.22943 0.65598 0.0
H2746 H 0.32503 0.23456 0.6143 0.0
C2747 C 0.27106 0.23775 0.62213 0.0
C2748 C 0.27147 0.25049 0.61374 0.0
C2749 C 0.28387 0.23174 0.62759 0.0
C2750 C 0.32411 0.23304 0.62592 0.0
H2751 H 0.36036 0.21609 0.69135 0.0
H2752 H 0.34045 0.2135 0.67419 0.0
H2753 H 0.34705 0.23029 0.62851 0.0
H2754 H 0.28573 0.26619 0.60348 0.0
H2755 H 0.30802 0.25575 0.61308 0.0
H2756 H 0.29942 0.23247 0.65349 0.0
C2757 C 0.34944 0.2205 0.67133 0.0
C2758 C 0.33671 0.23067 0.63407 0.0
C2759 C 0.36089 0.2219 0.68114 0.0
C2760 C 0.28502 0.25644 0.61002 0.0
C2761 C 0.29782 0.25039 0.61543 0.0
C2762 C 0.3097 0.23165 0.64784 0.0
C2763 C 0.34932 0.22851 0.65833 0.0
C2764 C 0.33596 0.22916 0.64926 0.0
C2765 C 0.29733 0.2383 0.62471 0.0
C2766 C 0.31051 0.2338 0.63278 0.0
H2767 H 0.38208 0.24536 0.66191 0.0
H2768 H 0.3618 0.24345 0.64502 0.0
H2769 H 0.32119 0.22865 0.66765 0.0
H2770 H 0.26081 0.23281 0.6251 0.0
H2771 H 0.28319 0.22229 0.63456 0.0
C2772 C 0.74886 0.28876 0.61154 0.0
C2773 C 0.75422 0.2749 0.61506 0.0
C2774 C 0.75505 0.30119 0.61762 0.0
C2775 C 0.77261 0.31143 0.65121 0.0
H2776 H 0.77568 0.34939 0.63327 0.0
C2777 C 0.78171 0.36122 0.68674 0.0
C2778 C 0.77291 0.37326 0.68362 0.0
C2779 C 0.78342 0.35012 0.67659 0.0
C2780 C 0.77483 0.33887 0.63845 0.0
H2781 H 0.77102 0.26331 0.62682 0.0
H2782 H 0.78179 0.28505 0.63747 0.0
H2783 H 0.77161 0.32795 0.61813 0.0
H2784 H 0.75963 0.38357 0.66719 0.0
H2785 H 0.76206 0.36388 0.64964 0.0
H2786 H 0.77492 0.32218 0.67153 0.0
C2787 C 0.77269 0.28625 0.63011 0.0
C2788 C 0.77257 0.3266 0.62977 0.0
C2789 C 0.76655 0.27381 0.62397 0.0
C2790 C 0.7665 0.3744 0.66985 0.0
C2791 C 0.76797 0.36313 0.65977 0.0
C2792 C 0.77473 0.32365 0.65987 0.0
C2793 C 0.76668 0.30001 0.6274 0.0
C2794 C 0.77118 0.31279 0.63611 0.0
C2795 C 0.77608 0.35062 0.66321 0.0
C2796 C 0.7756 0.33758 0.65366 0.0
H2797 H 0.73944 0.28999 0.60461 0.0
H2798 H 0.75011 0.31162 0.61538 0.0
H2799 H 0.7713 0.30099 0.65646 0.0
H2800 H 0.78697 0.36019 0.69721 0.0
H2801 H 0.7901 0.34088 0.67946 0.0
C2802 C 0.23293 0.64755 0.69656 0.0
C2803 C 0.23578 0.63292 0.69327 0.0
C2804 C 0.23322 0.65809 0.68569 0.0
C2805 C 0.25071 0.66491 0.65081 0.0
H2806 H 0.22688 0.69963 0.65119 0.0
C2807 C 0.26386 0.71271 0.61331 0.0
C2808 C 0.26444 0.7263 0.62025 0.0
C2809 C 0.2572 0.70089 0.62005 0.0
C2810 C 0.23361 0.68999 0.65095 0.0
H2811 H 0.24033 0.61777 0.67582 0.0
H2812 H 0.24076 0.63622 0.65679 0.0
H2813 H 0.22062 0.67921 0.66693 0.0
H2814 H 0.25772 0.73832 0.63936 0.0
H2815 H 0.2463 0.71763 0.65123 0.0
H2816 H 0.264 0.6758 0.63527 0.0
C2817 C 0.2385 0.63954 0.66784 0.0
C2818 C 0.23003 0.67831 0.65995 0.0
C2819 C 0.2382 0.62896 0.67874 0.0
C2820 C 0.2575 0.728 0.63373 0.0
C2821 C 0.25087 0.71614 0.6405 0.0
C2822 C 0.25428 0.67657 0.64183 0.0
C2823 C 0.23636 0.65427 0.67127 0.0
C2824 C 0.23875 0.66578 0.66023 0.0
C2825 C 0.251 0.70237 0.63391 0.0
C2826 C 0.24598 0.68938 0.64204 0.0
H2827 H 0.23095 0.65098 0.70763 0.0
H2828 H 0.23168 0.66934 0.68875 0.0
H2829 H 0.25779 0.65553 0.65091 0.0
H2830 H 0.26894 0.71107 0.60284 0.0
H2831 H 0.25724 0.69049 0.61457 0.0
C2832 C 0.18536 0.38146 0.26659 0.0
C2833 C 0.19731 0.37345 0.27174 0.0
C2834 C 0.1722 0.37445 0.26343 0.0
C2835 C 0.15164 0.34173 0.27293 0.0
H2836 H 0.13587 0.34223 0.23393 0.0
C2837 C 0.12622 0.29247 0.24653 0.0
C2838 C 0.11475 0.29391 0.23664 0.0
C2839 C 0.13229 0.30468 0.25307 0.0
C2840 C 0.13985 0.34225 0.24499 0.0
H2841 H 0.20483 0.35184 0.27746 0.0
H2842 H 0.18207 0.33983 0.27214 0.0
H2843 H 0.15465 0.35977 0.24076 0.0
H2844 H 0.10012 0.30915 0.22629 0.0
H2845 H 0.11098 0.33071 0.23763 0.0
H2846 H 0.1375 0.32377 0.27699 0.0
C2847 C 0.18278 0.35147 0.2706 0.0
C2848 C 0.15061 0.35227 0.24887 0.0
C2849 C 0.19588 0.35837 0.27352 0.0
C2850 C 0.10892 0.30776 0.23396 0.0
C2851 C 0.11518 0.32007 0.24035 0.0
C2852 C 0.1409 0.33179 0.26909 0.0
C2853 C 0.17077 0.35942 0.26567 0.0
C2854 C 0.15707 0.3516 0.26265 0.0
C2855 C 0.12713 0.31865 0.24974 0.0
C2856 C 0.13541 0.33148 0.25487 0.0
H2857 H 0.18615 0.3931 0.26513 0.0
H2858 H 0.16309 0.38077 0.25953 0.0
H2859 H 0.15632 0.34115 0.2837 0.0
H2860 H 0.13091 0.28192 0.2488 0.0
H2861 H 0.1416 0.3032 0.2601 0.0
C2862 C 0.68704 0.10559 0.23866 0.0
C2863 C 0.69845 0.11228 0.24627 0.0
C2864 C 0.67271 0.11021 0.24077 0.0
C2865 C 0.64973 0.13372 0.2369 0.0
H2866 H 0.635 0.15021 0.2727 0.0
C2867 C 0.62861 0.19097 0.24204 0.0
C2868 C 0.61822 0.19461 0.25254 0.0
C2869 C 0.6328 0.17656 0.24006 0.0
C2870 C 0.63864 0.1454 0.26261 0.0
H2871 H 0.70374 0.1278 0.26312 0.0
H2872 H 0.67888 0.13566 0.26696 0.0
H2873 H 0.6533 0.13111 0.27364 0.0
H2874 H 0.60322 0.18601 0.26848 0.0
H2875 H 0.61079 0.16068 0.26523 0.0
H2876 H 0.63581 0.14872 0.22587 0.0
C2877 C 0.68087 0.12695 0.25932 0.0
C2878 C 0.64922 0.13454 0.26316 0.0
C2879 C 0.69516 0.12251 0.25707 0.0
C2880 C 0.61122 0.18346 0.26025 0.0
C2881 C 0.61561 0.169 0.25845 0.0
C2882 C 0.6392 0.14462 0.23636 0.0
C2883 C 0.66957 0.12139 0.25068 0.0
C2884 C 0.65545 0.12917 0.25031 0.0
C2885 C 0.62683 0.16549 0.24872 0.0
C2886 C 0.63416 0.15114 0.24919 0.0
H2887 H 0.68929 0.0977 0.23024 0.0
H2888 H 0.66421 0.10566 0.23404 0.0
H2889 H 0.65432 0.12986 0.22679 0.0
H2890 H 0.63416 0.19936 0.23595 0.0
H2891 H 0.64157 0.17428 0.23258 0.0
C2892 C 0.81095 0.6339 0.27884 0.0
C2893 C 0.80587 0.61975 0.27642 0.0
C2894 C 0.82404 0.63851 0.27289 0.0
C2895 C 0.84611 0.63339 0.24124 0.0
H2896 H 0.87048 0.66144 0.2611 0.0
C2897 C 0.86592 0.68505 0.21509 0.0
C2898 C 0.87944 0.69113 0.2186 0.0
C2899 C 0.86139 0.67216 0.2215 0.0
C2900 C 0.86409 0.65336 0.25542 0.0
H2901 H 0.81069 0.59912 0.26619 0.0
H2902 H 0.83362 0.6074 0.25527 0.0
H2903 H 0.85427 0.64588 0.27511 0.0
H2904 H 0.8991 0.68823 0.23115 0.0
H2905 H 0.89089 0.66566 0.24287 0.0
H2906 H 0.85526 0.64153 0.22149 0.0
C2907 C 0.82744 0.61482 0.26198 0.0
C2908 C 0.85472 0.64453 0.26344 0.0
C2909 C 0.81436 0.61011 0.26819 0.0
C2910 C 0.88861 0.68376 0.22829 0.0
C2911 C 0.88393 0.67089 0.23497 0.0
C2912 C 0.85546 0.64225 0.23322 0.0
C2913 C 0.83234 0.62912 0.26421 0.0
C2914 C 0.84507 0.63505 0.25636 0.0
C2915 C 0.87017 0.66508 0.23175 0.0
C2916 C 0.86393 0.65287 0.24019 0.0
H2917 H 0.80472 0.64155 0.28525 0.0
H2918 H 0.82735 0.64966 0.2746 0.0
H2919 H 0.83882 0.62619 0.23549 0.0
H2920 H 0.85867 0.69042 0.20755 0.0
H2921 H 0.85063 0.66813 0.21897 0.0
C2922 C 0.39461 0.80749 0.25618 0.0
C2923 C 0.3874 0.79505 0.25104 0.0
C2924 C 0.3894 0.82135 0.25275 0.0
C2925 C 0.3662 0.84477 0.25594 0.0
H2926 H 0.34652 0.85496 0.22017 0.0
C2927 C 0.30951 0.86825 0.25303 0.0
C2928 C 0.3055 0.87749 0.24162 0.0
C2929 C 0.32378 0.86338 0.2543 0.0
C2930 C 0.35223 0.85256 0.23017 0.0
H2931 H 0.3701 0.78736 0.23709 0.0
H2932 H 0.36116 0.81142 0.23096 0.0
H2933 H 0.36491 0.83589 0.22003 0.0
H2934 H 0.31338 0.88976 0.22318 0.0
H2935 H 0.33842 0.88095 0.2252 0.0
H2936 H 0.35279 0.86073 0.26625 0.0
C2937 C 0.37076 0.81056 0.2377 0.0
C2938 C 0.36267 0.84154 0.2301 0.0
C2939 C 0.37583 0.79674 0.24127 0.0
C2940 C 0.31624 0.88271 0.23214 0.0
C2941 C 0.33052 0.8776 0.23323 0.0
C2942 C 0.35568 0.8557 0.25602 0.0
C2943 C 0.37706 0.82299 0.24394 0.0
C2944 C 0.36924 0.83707 0.24311 0.0
C2945 C 0.33428 0.86745 0.24401 0.0
C2946 C 0.3481 0.85921 0.24327 0.0
H2947 H 0.40356 0.80652 0.26374 0.0
H2948 H 0.39453 0.83074 0.25762 0.0
H2949 H 0.37101 0.84154 0.26617 0.0
H2950 H 0.30141 0.86407 0.26047 0.0
H2951 H 0.32627 0.85547 0.26263 0.0
C2952 C 0.12759 0.69503 0.74653 0.0
C2953 C 0.11602 0.69758 0.75609 0.0
C2954 C 0.13281 0.68098 0.74438 0.0
C2955 C 0.14058 0.64937 0.73951 0.0
H2956 H 0.15213 0.63404 0.77698 0.0
C2957 C 0.18717 0.60887 0.74324 0.0
C2958 C 0.19835 0.61489 0.7517 0.0
C2959 C 0.17292 0.61396 0.74465 0.0
C2960 C 0.14877 0.63799 0.76643 0.0
H2961 H 0.10015 0.68737 0.77014 0.0
H2962 H 0.10951 0.66273 0.7666 0.0
H2963 H 0.13379 0.65313 0.7757 0.0
H2964 H 0.20319 0.6297 0.76931 0.0
H2965 H 0.17841 0.63838 0.77194 0.0
H2966 H 0.15632 0.63502 0.7303 0.0
C2967 C 0.11446 0.67162 0.76071 0.0
C2968 C 0.1382 0.64885 0.76567 0.0
C2969 C 0.10906 0.6857 0.76266 0.0
C2970 C 0.1948 0.62492 0.76261 0.0
C2971 C 0.18056 0.62984 0.76415 0.0
C2972 C 0.15106 0.63844 0.74025 0.0
C2973 C 0.12669 0.66921 0.75192 0.0
C2974 C 0.13455 0.65515 0.75226 0.0
C2975 C 0.16962 0.62496 0.7547 0.0
C2976 C 0.15579 0.63317 0.75378 0.0
H2977 H 0.13313 0.70399 0.7413 0.0
H2978 H 0.14234 0.67951 0.73765 0.0
H2979 H 0.13787 0.65396 0.72902 0.0
H2980 H 0.18961 0.60114 0.73472 0.0
H2981 H 0.16468 0.60993 0.7373 0.0
C2982 C 0.39575 0.18749 0.73445 0.0
C2983 C 0.38953 0.19978 0.74102 0.0
C2984 C 0.39034 0.17361 0.73748 0.0
C2985 C 0.3659 0.15144 0.73484 0.0
H2986 H 0.34868 0.1397 0.77139 0.0
C2987 C 0.30849 0.1303 0.74065 0.0
C2988 C 0.30487 0.12055 0.75178 0.0
C2989 C 0.32283 0.13468 0.73865 0.0
C2990 C 0.35367 0.14253 0.76113 0.0
H2991 H 0.37396 0.2071 0.75705 0.0
H2992 H 0.36471 0.183 0.7625 0.0
H2993 H 0.36806 0.15774 0.77125 0.0
H2994 H 0.31351 0.10688 0.76886 0.0
H2995 H 0.3387 0.11478 0.76552 0.0
H2996 H 0.35084 0.13695 0.72465 0.0
C2997 C 0.37367 0.18398 0.75495 0.0
C2998 C 0.36469 0.15296 0.76105 0.0
C2999 C 0.37891 0.19783 0.75177 0.0
C3000 C 0.31602 0.11437 0.76015 0.0
C3001 C 0.3304 0.11895 0.75831 0.0
C3002 C 0.35482 0.14109 0.73492 0.0
C3003 C 0.37881 0.1718 0.74731 0.0
C3004 C 0.37042 0.15804 0.74785 0.0
C3005 C 0.33385 0.12955 0.74788 0.0
C3006 C 0.3481 0.13707 0.748 0.0
H3007 H 0.40393 0.18868 0.72609 0.0
H3008 H 0.39459 0.1644 0.73153 0.0
H3009 H 0.37003 0.15516 0.72448 0.0
H3010 H 0.3001 0.13521 0.73403 0.0
H3011 H 0.32508 0.14296 0.73061 0.0
C3012 C 0.8138 0.39179 0.74142 0.0
C3013 C 0.80114 0.38641 0.74801 0.0
C3014 C 0.82728 0.38549 0.74447 0.0
C3015 C 0.84728 0.3591 0.74197 0.0
H3016 H 0.85965 0.34329 0.77896 0.0
C3017 C 0.86703 0.30121 0.75076 0.0
C3018 C 0.87809 0.29838 0.76082 0.0
C3019 C 0.8624 0.31541 0.74824 0.0
C3020 C 0.85659 0.34785 0.76856 0.0
H3021 H 0.79279 0.37141 0.76408 0.0
H3022 H 0.81629 0.36069 0.76968 0.0
H3023 H 0.84238 0.36344 0.7784 0.0
H3024 H 0.89357 0.30817 0.77559 0.0
H3025 H 0.88513 0.3331 0.77149 0.0
H3026 H 0.8606 0.34276 0.73212 0.0
C3027 C 0.81586 0.36964 0.76206 0.0
C3028 C 0.84666 0.35932 0.76825 0.0
C3029 C 0.80238 0.37574 0.75882 0.0
C3030 C 0.88508 0.31008 0.76769 0.0
C3031 C 0.88021 0.32431 0.76541 0.0
C3032 C 0.85706 0.34751 0.74228 0.0
C3033 C 0.82832 0.37393 0.75438 0.0
C3034 C 0.84147 0.36466 0.75494 0.0
C3035 C 0.86856 0.32704 0.75597 0.0
C3036 C 0.86135 0.34141 0.75557 0.0
H3037 H 0.81314 0.39996 0.73298 0.0
H3038 H 0.83674 0.38904 0.73846 0.0
H3039 H 0.84338 0.3629 0.73154 0.0
H3040 H 0.86147 0.29238 0.74534 0.0
H3041 H 0.8533 0.31717 0.74101 0.0
C3042 C 0.696 0.86074 0.77646 0.0
C3043 C 0.70012 0.875 0.77296 0.0
C3044 C 0.68305 0.85498 0.77124 0.0
C3045 C 0.65983 0.85567 0.7404 0.0
H3046 H 0.6351 0.83161 0.7646 0.0
C3047 C 0.63546 0.80214 0.72207 0.0
C3048 C 0.62095 0.79878 0.72528 0.0
C3049 C 0.64174 0.81485 0.72726 0.0
C3050 C 0.64167 0.83853 0.75772 0.0
H3051 H 0.69385 0.8945 0.7614 0.0
H3052 H 0.67124 0.88407 0.75166 0.0
H3053 H 0.65244 0.84827 0.7759 0.0
H3054 H 0.60154 0.80616 0.73633 0.0
H3055 H 0.61288 0.82836 0.74605 0.0
H3056 H 0.64984 0.8451 0.72223 0.0
C3057 C 0.67802 0.87754 0.7587 0.0
C3058 C 0.65162 0.84799 0.76417 0.0
C3059 C 0.69092 0.88347 0.76423 0.0
C3060 C 0.61276 0.8085 0.73372 0.0
C3061 C 0.61921 0.82116 0.73923 0.0
C3062 C 0.65001 0.84607 0.73395 0.0
C3063 C 0.67401 0.86323 0.7622 0.0
C3064 C 0.66119 0.85619 0.75556 0.0
C3065 C 0.63376 0.82442 0.736 0.0
C3066 C 0.64127 0.83701 0.74257 0.0
H3067 H 0.7028 0.85399 0.78328 0.0
H3068 H 0.68034 0.84385 0.77391 0.0
H3069 H 0.66713 0.86182 0.73353 0.0
H3070 H 0.64201 0.79492 0.71548 0.0
H3071 H 0.65305 0.81698 0.7248 0.0
C3072 C 0.24194 0.21119 0.37515 0.0
C3073 C 0.2528 0.21065 0.3858 0.0
C3074 C 0.23601 0.19843 0.36959 0.0
C3075 C 0.24745 0.16204 0.36104 0.0
H3076 H 0.20803 0.15919 0.34662 0.0
C3077 C 0.23002 0.12279 0.31436 0.0
C3078 C 0.22332 0.13057 0.30307 0.0
C3079 C 0.23216 0.12932 0.32798 0.0
C3080 C 0.21904 0.1597 0.35072 0.0
H3081 H 0.26542 0.1964 0.39963 0.0
H3082 H 0.25517 0.17392 0.38965 0.0
H3083 H 0.21383 0.17687 0.36549 0.0
H3084 H 0.2133 0.15111 0.29729 0.0
H3085 H 0.21689 0.1623 0.32079 0.0
H3086 H 0.25281 0.14549 0.34556 0.0
C3087 C 0.25121 0.18427 0.3857 0.0
C3088 C 0.22235 0.16981 0.3615 0.0
C3089 C 0.25699 0.19711 0.39147 0.0
C3090 C 0.21858 0.14482 0.30571 0.0
C3091 C 0.22048 0.1512 0.31925 0.0
C3092 C 0.24412 0.15189 0.35023 0.0
C3093 C 0.24095 0.18482 0.37442 0.0
C3094 C 0.23672 0.1716 0.36624 0.0
C3095 C 0.22731 0.14358 0.33053 0.0
C3096 C 0.23003 0.15118 0.34445 0.0
H3097 H 0.23852 0.22148 0.3706 0.0
H3098 H 0.22825 0.19925 0.3608 0.0
H3099 H 0.25864 0.16321 0.36443 0.0
H3100 H 0.23377 0.11178 0.31263 0.0
H3101 H 0.23754 0.12326 0.33649 0.0
C3102 C 0.89207 0.23583 0.31842 0.0
C3103 C 0.88583 0.24229 0.3061 0.0
C3104 C 0.88691 0.23927 0.33231 0.0
C3105 C 0.8624 0.23847 0.35493 0.0
H3106 H 0.84865 0.27658 0.36637 0.0
C3107 C 0.80605 0.25024 0.3763 0.0
C3108 C 0.80368 0.26158 0.38618 0.0
C3109 C 0.82009 0.24671 0.3719 0.0
C3110 C 0.85268 0.26588 0.36363 0.0
H3111 H 0.87033 0.25828 0.29858 0.0
H3112 H 0.86161 0.26457 0.32271 0.0
H3113 H 0.86745 0.27444 0.34784 0.0
H3114 H 0.81409 0.27751 0.4 0.0
H3115 H 0.83879 0.27157 0.39197 0.0
H3116 H 0.84679 0.22988 0.36989 0.0
C3117 C 0.87038 0.25679 0.32176 0.0
C3118 C 0.86338 0.26466 0.35295 0.0
C3119 C 0.8753 0.25313 0.30792 0.0
C3120 C 0.81566 0.26864 0.39243 0.0
C3121 C 0.82976 0.26531 0.38779 0.0
C3122 C 0.85159 0.23968 0.36552 0.0
C3123 C 0.87569 0.24947 0.33404 0.0
C3124 C 0.86782 0.25094 0.348 0.0
C3125 C 0.83204 0.25465 0.37709 0.0
C3126 C 0.84614 0.25338 0.36944 0.0
H3127 H 0.90014 0.22735 0.31727 0.0
H3128 H 0.89118 0.23348 0.34161 0.0
H3129 H 0.86555 0.22774 0.35129 0.0
H3130 H 0.79697 0.24465 0.37133 0.0
H3131 H 0.82145 0.23856 0.36354 0.0
C3132 C 0.7643 0.88548 0.31437 0.0
C3133 C 0.75499 0.87987 0.30367 0.0
C3134 C 0.76328 0.88056 0.32873 0.0
C3135 C 0.76686 0.85584 0.35074 0.0
H3136 H 0.73113 0.84468 0.36995 0.0
C3137 C 0.75663 0.80044 0.37583 0.0
C3138 C 0.74723 0.799 0.38773 0.0
C3139 C 0.75989 0.81414 0.37025 0.0
C3140 C 0.74128 0.84796 0.365 0.0
H3141 H 0.73648 0.86593 0.29974 0.0
H3142 H 0.73444 0.85767 0.32474 0.0
H3143 H 0.73066 0.86347 0.35128 0.0
H3144 H 0.73479 0.8108 0.40386 0.0
H3145 H 0.74033 0.83481 0.3939 0.0
H3146 H 0.77729 0.83959 0.36371 0.0
C3147 C 0.74259 0.86574 0.32214 0.0
C3148 C 0.74098 0.85866 0.35424 0.0
C3149 C 0.74379 0.87041 0.30779 0.0
C3150 C 0.74209 0.81159 0.39467 0.0
C3151 C 0.74518 0.82532 0.38894 0.0
C3152 C 0.76714 0.84505 0.3614 0.0
C3153 C 0.75275 0.87022 0.33261 0.0
C3154 C 0.75365 0.86222 0.34655 0.0
C3155 C 0.75368 0.82668 0.37635 0.0
C3156 C 0.75423 0.84054 0.36816 0.0
H3157 H 0.7731 0.8927 0.31143 0.0
H3158 H 0.77121 0.88421 0.3366 0.0
H3159 H 0.77679 0.85829 0.34494 0.0
H3160 H 0.76078 0.79093 0.37029 0.0
H3161 H 0.76638 0.8148 0.36046 0.0
C3162 C 0.18071 0.73302 0.38883 0.0
C3163 C 0.19158 0.74148 0.38228 0.0
C3164 C 0.16616 0.73477 0.38476 0.0
C3165 C 0.14212 0.73176 0.36204 0.0
H3166 H 0.12558 0.76825 0.34919 0.0
C3167 C 0.11664 0.74027 0.30688 0.0
C3168 C 0.10624 0.75118 0.30469 0.0
C3169 C 0.12179 0.73727 0.3208 0.0
C3170 C 0.12973 0.75793 0.35298 0.0
H3171 H 0.19571 0.7593 0.36751 0.0
H3172 H 0.17047 0.76254 0.36063 0.0
H3173 H 0.14499 0.7683 0.36713 0.0
H3174 H 0.09207 0.76658 0.31544 0.0
H3175 H 0.10121 0.76141 0.33985 0.0
H3176 H 0.1275 0.72144 0.34719 0.0
C3177 C 0.17304 0.75451 0.36882 0.0
C3178 C 0.14096 0.75798 0.36319 0.0
C3179 C 0.18754 0.7526 0.3727 0.0
C3180 C 0.10009 0.7581 0.31682 0.0
C3181 C 0.10539 0.75521 0.33078 0.0
C3182 C 0.13093 0.73171 0.35179 0.0
C3183 C 0.16227 0.74519 0.3743 0.0
C3184 C 0.14779 0.74495 0.36722 0.0
C3185 C 0.11676 0.74522 0.33282 0.0
C3186 C 0.12516 0.74484 0.34658 0.0
H3187 H 0.18355 0.72432 0.39622 0.0
H3188 H 0.15807 0.72749 0.38921 0.0
H3189 H 0.14717 0.72153 0.36489 0.0
H3190 H 0.12153 0.73473 0.29773 0.0
H3191 H 0.13062 0.72958 0.32192 0.0
C3192 C 0.26794 0.81587 0.61936 0.0
C3193 C 0.27576 0.80585 0.62782 0.0
C3194 C 0.26457 0.82966 0.62494 0.0
C3195 C 0.27544 0.85567 0.65354 0.0
H3196 H 0.23454 0.86472 0.65736 0.0
C3197 C 0.25053 0.87843 0.7046 0.0
C3198 C 0.23879 0.88809 0.70404 0.0
C3199 C 0.25679 0.87324 0.69185 0.0
C3200 C 0.24603 0.86265 0.65605 0.0
H3201 H 0.28658 0.80256 0.64849 0.0
H3202 H 0.2809 0.8264 0.65803 0.0
H3203 H 0.24228 0.84581 0.6404 0.0
H3204 H 0.22475 0.90048 0.68983 0.0
H3205 H 0.23553 0.891 0.66731 0.0
H3206 H 0.27912 0.87172 0.66992 0.0
C3207 C 0.27734 0.82372 0.64714 0.0
C3208 C 0.25046 0.85181 0.64635 0.0
C3209 C 0.28046 0.80998 0.64172 0.0
C3210 C 0.23388 0.8931 0.6905 0.0
C3211 C 0.23997 0.88764 0.67766 0.0
C3212 C 0.27103 0.86646 0.66321 0.0
C3213 C 0.2693 0.83369 0.63889 0.0
C3214 C 0.26512 0.84769 0.64562 0.0
C3215 C 0.25129 0.87741 0.67825 0.0
C3216 C 0.25622 0.86949 0.66513 0.0
H3217 H 0.2642 0.81295 0.6086 0.0
H3218 H 0.25827 0.83713 0.61841 0.0
H3219 H 0.28684 0.85285 0.65299 0.0
H3220 H 0.25449 0.8744 0.71491 0.0
H3221 H 0.26535 0.86522 0.69269 0.0
C3222 C 0.18475 0.23955 0.62605 0.0
C3223 C 0.1885 0.25097 0.6167 0.0
C3224 C 0.17056 0.23812 0.63109 0.0
C3225 C 0.14216 0.26229 0.64201 0.0
H3226 H 0.12404 0.22642 0.6545 0.0
C3227 C 0.10111 0.23736 0.68883 0.0
C3228 C 0.10859 0.24289 0.70093 0.0
C3229 C 0.10601 0.24035 0.67476 0.0
C3230 C 0.12867 0.2366 0.65086 0.0
H3231 H 0.18015 0.26912 0.60428 0.0
H3232 H 0.15527 0.26678 0.61335 0.0
H3233 H 0.14175 0.22598 0.63483 0.0
H3234 H 0.12609 0.25701 0.70782 0.0
H3235 H 0.13449 0.26239 0.68337 0.0
H3236 H 0.12984 0.27275 0.65873 0.0
C3237 C 0.16332 0.2589 0.6167 0.0
C3238 C 0.13889 0.23632 0.63965 0.0
C3239 C 0.17753 0.26017 0.61145 0.0
C3240 C 0.12016 0.25255 0.6987 0.0
C3241 C 0.12491 0.25569 0.68466 0.0
C3242 C 0.13202 0.26256 0.65329 0.0
C3243 C 0.15987 0.24823 0.62706 0.0
C3244 C 0.14625 0.24905 0.6356 0.0
C3245 C 0.1183 0.24911 0.67258 0.0
C3246 C 0.12571 0.24961 0.65829 0.0
H3247 H 0.19301 0.23229 0.63024 0.0
H3248 H 0.16829 0.22985 0.63914 0.0
H3249 H 0.14769 0.27228 0.6392 0.0
H3250 H 0.09215 0.22988 0.69022 0.0
H3251 H 0.10065 0.23522 0.66564 0.0
C3252 C 0.74269 0.12195 0.68877 0.0
C3253 C 0.75227 0.11056 0.69199 0.0
C3254 C 0.74062 0.12642 0.67446 0.0
C3255 C 0.76239 0.12988 0.64227 0.0
H3256 H 0.72796 0.14985 0.62865 0.0
C3257 C 0.74213 0.18176 0.60493 0.0
C3258 C 0.75144 0.19193 0.61144 0.0
C3259 C 0.74287 0.16709 0.60888 0.0
C3260 C 0.73764 0.14405 0.63195 0.0
H3261 H 0.76631 0.09411 0.68272 0.0
H3262 H 0.76285 0.10211 0.65758 0.0
H3263 H 0.72579 0.13137 0.6474 0.0
H3264 H 0.7699 0.1946 0.62575 0.0
H3265 H 0.77132 0.16918 0.6325 0.0
H3266 H 0.77435 0.14323 0.62747 0.0
C3267 C 0.75693 0.10754 0.66616 0.0
C3268 C 0.73639 0.13354 0.64281 0.0
C3269 C 0.75884 0.10293 0.68053 0.0
C3270 C 0.76253 0.18699 0.62064 0.0
C3271 C 0.76338 0.17236 0.62443 0.0
C3272 C 0.76364 0.1404 0.63141 0.0
C3273 C 0.74822 0.11969 0.66305 0.0
C3274 C 0.74885 0.12699 0.64869 0.0
C3275 C 0.75306 0.16238 0.61923 0.0
C3276 C 0.75138 0.14822 0.62677 0.0
H3277 H 0.73744 0.12799 0.69739 0.0
H3278 H 0.73395 0.1359 0.6725 0.0
H3279 H 0.77221 0.12504 0.64654 0.0
H3280 H 0.73346 0.18529 0.59782 0.0
H3281 H 0.73486 0.15962 0.60459 0.0
C3282 C 0.80361 0.73529 0.62048 0.0
C3283 C 0.79035 0.73382 0.62792 0.0
C3284 C 0.81649 0.73793 0.62818 0.0
C3285 C 0.83284 0.72909 0.66218 0.0
H3286 H 0.85534 0.76464 0.66169 0.0
C3287 C 0.86375 0.74909 0.71157 0.0
C3288 C 0.87651 0.75726 0.71005 0.0
C3289 C 0.85622 0.74424 0.69938 0.0
C3290 C 0.84944 0.75448 0.66171 0.0
H3291 H 0.78012 0.73473 0.64915 0.0
H3292 H 0.8025 0.73905 0.66242 0.0
H3293 H 0.83611 0.76094 0.64366 0.0
H3294 H 0.89183 0.76614 0.69456 0.0
H3295 H 0.8786 0.75759 0.67311 0.0
H3296 H 0.84573 0.72268 0.68037 0.0
C3297 C 0.80293 0.73814 0.65069 0.0
C3298 C 0.83842 0.75242 0.65143 0.0
C3299 C 0.79012 0.73573 0.64306 0.0
C3300 C 0.88203 0.75983 0.69606 0.0
C3301 C 0.87441 0.75504 0.68379 0.0
C3302 C 0.8439 0.73105 0.67232 0.0
C3303 C 0.81624 0.73891 0.64338 0.0
C3304 C 0.8297 0.73995 0.65199 0.0
C3305 C 0.86123 0.74747 0.68533 0.0
C3306 C 0.85191 0.74404 0.67262 0.0
H3307 H 0.80413 0.73387 0.60882 0.0
H3308 H 0.82669 0.73856 0.62236 0.0
H3309 H 0.8263 0.71933 0.66269 0.0
H3310 H 0.85922 0.74691 0.7222 0.0
H3311 H 0.84603 0.73863 0.70102 0.0
C3312 C 0.31772 0.24576 0.10408 0.0
C3313 C 0.30609 0.25326 0.11051 0.0
C3314 C 0.33196 0.24826 0.10876 0.0
C3315 C 0.3548 0.24519 0.13242 0.0
H3316 H 0.36851 0.28142 0.14885 0.0
C3317 C 0.37526 0.25095 0.18981 0.0
C3318 C 0.38535 0.26171 0.19354 0.0
C3319 C 0.37122 0.24888 0.17538 0.0
C3320 C 0.36516 0.27122 0.14407 0.0
H3321 H 0.30034 0.27037 0.12558 0.0
H3322 H 0.32502 0.27483 0.13362 0.0
H3323 H 0.35045 0.28183 0.12953 0.0
H3324 H 0.39999 0.27805 0.18506 0.0
H3325 H 0.39268 0.27464 0.15969 0.0
H3326 H 0.36881 0.23456 0.14762 0.0
C3327 C 0.32328 0.26698 0.12504 0.0
C3328 C 0.35471 0.27146 0.13307 0.0
C3329 C 0.30908 0.26436 0.1205 0.0
C3330 C 0.3922 0.26964 0.18245 0.0
C3331 C 0.38797 0.26774 0.16796 0.0
C3332 C 0.36522 0.24495 0.14343 0.0
C3333 C 0.33479 0.25844 0.11978 0.0
C3334 C 0.34882 0.25843 0.12773 0.0
C3335 C 0.37705 0.2577 0.16437 0.0
C3336 C 0.36988 0.25794 0.14994 0.0
H3337 H 0.31573 0.23713 0.09634 0.0
H3338 H 0.34063 0.24161 0.10441 0.0
H3339 H 0.3505 0.23495 0.12857 0.0
H3340 H 0.36985 0.24466 0.19816 0.0
H3341 H 0.36267 0.24116 0.17303 0.0
C3342 C 0.37006 0.74691 0.78979 0.0
C3343 C 0.38247 0.73819 0.79111 0.0
C3344 C 0.36332 0.75257 0.80208 0.0
C3345 C 0.35686 0.74323 0.83973 0.0
H3346 H 0.33573 0.77963 0.83882 0.0
C3347 C 0.31012 0.7627 0.87963 0.0
C3348 C 0.29739 0.76516 0.87155 0.0
C3349 C 0.32335 0.76008 0.87251 0.0
C3350 C 0.34175 0.76953 0.83935 0.0
H3351 H 0.39803 0.72913 0.80625 0.0
H3352 H 0.38605 0.73897 0.82793 0.0
H3353 H 0.3551 0.7753 0.82127 0.0
H3354 H 0.28845 0.76612 0.84974 0.0
H3355 H 0.31136 0.76179 0.83753 0.0
H3356 H 0.3429 0.73729 0.85746 0.0
C3357 C 0.3816 0.74142 0.81733 0.0
C3358 C 0.35278 0.76703 0.8293 0.0
C3359 C 0.3885 0.73589 0.80494 0.0
C3360 C 0.29803 0.76436 0.85633 0.0
C3361 C 0.31116 0.76196 0.8493 0.0
C3362 C 0.34584 0.7458 0.84989 0.0
C3363 C 0.36874 0.74954 0.81602 0.0
C3364 C 0.35996 0.75358 0.82891 0.0
C3365 C 0.32397 0.76012 0.85728 0.0
C3366 C 0.33779 0.75871 0.84931 0.0
H3367 H 0.36518 0.74887 0.77927 0.0
H3368 H 0.35333 0.75861 0.80067 0.0
H3369 H 0.36214 0.73273 0.83966 0.0
H3370 H 0.30997 0.76326 0.89137 0.0
H3371 H 0.33314 0.75858 0.87884 0.0
C3372 C 0.22875 0.31721 0.8911 0.0
C3373 C 0.21979 0.30944 0.88151 0.0
C3374 C 0.23495 0.33044 0.88677 0.0
C3375 C 0.23312 0.3589 0.85797 0.0
H3376 H 0.27512 0.35738 0.85912 0.0
C3377 C 0.26737 0.38985 0.816 0.0
C3378 C 0.27645 0.38009 0.80859 0.0
C3379 C 0.26133 0.38598 0.82944 0.0
C3380 C 0.26339 0.35814 0.8589 0.0
H3381 H 0.20948 0.30982 0.86035 0.0
H3382 H 0.22012 0.33265 0.85288 0.0
H3383 H 0.26104 0.34155 0.87497 0.0
H3384 H 0.28719 0.35918 0.80983 0.0
H3385 H 0.2768 0.3525 0.83301 0.0
H3386 H 0.23545 0.37448 0.84093 0.0
C3387 C 0.22243 0.3287 0.86371 0.0
C3388 C 0.25532 0.34916 0.86808 0.0
C3389 C 0.21647 0.31548 0.86792 0.0
C3390 C 0.28009 0.36687 0.81521 0.0
C3391 C 0.27428 0.36311 0.82863 0.0
C3392 C 0.24118 0.36785 0.84877 0.0
C3393 C 0.23199 0.3362 0.87292 0.0
C3394 C 0.24012 0.3488 0.86704 0.0
C3395 C 0.26453 0.37243 0.83575 0.0
C3396 C 0.25639 0.36687 0.8485 0.0
H3397 H 0.23144 0.31279 0.90166 0.0
H3398 H 0.2423 0.33598 0.89407 0.0
H3399 H 0.22139 0.35904 0.85714 0.0
H3400 H 0.26443 0.40015 0.81114 0.0
H3401 H 0.25385 0.39338 0.83469 0.0
C3402 C 0.63676 0.28102 0.8152 0.0
C3403 C 0.62371 0.27577 0.80936 0.0
C3404 C 0.64079 0.2776 0.82933 0.0
C3405 C 0.63883 0.24892 0.85527 0.0
H3406 H 0.65989 0.27697 0.87859 0.0
C3407 C 0.6825 0.23073 0.89589 0.0
C3408 C 0.69583 0.23652 0.89131 0.0
C3409 C 0.66944 0.23692 0.89112 0.0
C3410 C 0.65381 0.26903 0.8724 0.0
H3411 H 0.60445 0.26305 0.81383 0.0
H3412 H 0.61187 0.25652 0.8387 0.0
H3413 H 0.64356 0.28539 0.85949 0.0
H3414 H 0.70613 0.25386 0.87927 0.0
H3415 H 0.68352 0.26491 0.87133 0.0
H3416 H 0.64998 0.23254 0.86743 0.0
C3417 C 0.6188 0.26351 0.83227 0.0
C3418 C 0.64449 0.27383 0.86147 0.0
C3419 C 0.61458 0.26721 0.81809 0.0
C3420 C 0.69597 0.24923 0.88295 0.0
C3421 C 0.683 0.25558 0.87848 0.0
C3422 C 0.64816 0.2441 0.86625 0.0
C3423 C 0.63199 0.26868 0.83797 0.0
C3424 C 0.63763 0.26381 0.85223 0.0
C3425 C 0.66962 0.24919 0.88203 0.0
C3426 C 0.6564 0.25412 0.87429 0.0
H3427 H 0.64397 0.28775 0.80879 0.0
H3428 H 0.65115 0.28152 0.83329 0.0
H3429 H 0.6337 0.24097 0.8483 0.0
H3430 H 0.68217 0.22083 0.90225 0.0
H3431 H 0.65927 0.23177 0.89397 0.0
C3432 C 0.73702 0.62459 0.80203 0.0
C3433 C 0.72911 0.63145 0.79093 0.0
C3434 C 0.74378 0.63287 0.8129 0.0
C3435 C 0.75664 0.6704 0.81942 0.0
H3436 H 0.7577 0.65929 0.86 0.0
C3437 C 0.78803 0.70503 0.85964 0.0
C3438 C 0.7817 0.70785 0.8732 0.0
C3439 C 0.78257 0.69416 0.8507 0.0
C3440 C 0.7574 0.66258 0.84872 0.0
H3441 H 0.72156 0.65228 0.78289 0.0
H3442 H 0.73288 0.66649 0.80179 0.0
H3443 H 0.74594 0.64333 0.84225 0.0
H3444 H 0.76504 0.70115 0.88835 0.0
H3445 H 0.7549 0.68241 0.8723 0.0
H3446 H 0.76737 0.68985 0.82571 0.0
C3447 C 0.73436 0.65483 0.80196 0.0
C3448 C 0.75083 0.65335 0.83853 0.0
C3449 C 0.72779 0.64664 0.79111 0.0
C3450 C 0.77006 0.6992 0.8779 0.0
C3451 C 0.76434 0.68844 0.86874 0.0
C3452 C 0.76303 0.67962 0.82953 0.0
C3453 C 0.74264 0.64812 0.81286 0.0
C3454 C 0.75026 0.65726 0.82378 0.0
C3455 C 0.77036 0.68603 0.85488 0.0
C3456 C 0.76354 0.67586 0.84432 0.0
H3457 H 0.73814 0.61288 0.80221 0.0
H3458 H 0.75012 0.62737 0.82112 0.0
H3459 H 0.75664 0.67367 0.80813 0.0
H3460 H 0.79724 0.7113 0.85588 0.0
H3461 H 0.78783 0.6923 0.84035 0.0
C3462 C 0.69185 0.74018 0.12062 0.0
C3463 C 0.69339 0.75067 0.10968 0.0
C3464 C 0.67825 0.73733 0.12664 0.0
C3465 C 0.64741 0.7318 0.13687 0.0
H3466 H 0.6333 0.76856 0.15182 0.0
C3467 C 0.60979 0.73379 0.18641 0.0
C3468 C 0.61669 0.74145 0.19765 0.0
C3469 C 0.61429 0.73561 0.172 0.0
C3470 C 0.63689 0.75821 0.14752 0.0
H3471 H 0.68179 0.76551 0.09558 0.0
H3472 H 0.65798 0.7607 0.10634 0.0
H3473 H 0.65067 0.76834 0.13183 0.0
H3474 H 0.6327 0.75795 0.2026 0.0
H3475 H 0.64028 0.7614 0.17752 0.0
H3476 H 0.6344 0.72173 0.15327 0.0
C3477 C 0.6673 0.75465 0.11019 0.0
C3478 C 0.64676 0.75807 0.13601 0.0
C3479 C 0.6809 0.75733 0.10398 0.0
C3480 C 0.62722 0.75189 0.19414 0.0
C3481 C 0.6315 0.75391 0.17976 0.0
C3482 C 0.63742 0.73194 0.14829 0.0
C3483 C 0.66596 0.74506 0.12198 0.0
C3484 C 0.65266 0.74489 0.13105 0.0
C3485 C 0.62552 0.74536 0.16862 0.0
C3486 C 0.63264 0.74518 0.15419 0.0
H3487 H 0.70129 0.73486 0.12519 0.0
H3488 H 0.67761 0.72996 0.13578 0.0
H3489 H 0.65172 0.72149 0.1332 0.0
H3490 H 0.60169 0.72561 0.18884 0.0
H3491 H 0.60948 0.72892 0.16361 0.0
C3492 C 0.27844 0.6295 0.18417 0.0
C3493 C 0.27546 0.61568 0.18985 0.0
C3494 C 0.27282 0.6337 0.17079 0.0
C3495 C 0.24102 0.6285 0.14895 0.0
H3496 H 0.26111 0.65618 0.12437 0.0
C3497 C 0.21584 0.68081 0.13032 0.0
C3498 C 0.21928 0.68713 0.1169 0.0
C3499 C 0.22198 0.66765 0.13443 0.0
C3500 C 0.25536 0.64818 0.1308 0.0
H3501 H 0.26471 0.59517 0.18576 0.0
H3502 H 0.2544 0.60274 0.16232 0.0
H3503 H 0.27501 0.6404 0.14046 0.0
H3504 H 0.23138 0.68438 0.09693 0.0
H3505 H 0.24266 0.66132 0.1044 0.0
H3506 H 0.22133 0.63695 0.13996 0.0
C3507 C 0.26125 0.61022 0.16825 0.0
C3508 C 0.26331 0.63923 0.14011 0.0
C3509 C 0.26712 0.60591 0.18163 0.0
C3510 C 0.2286 0.67973 0.10736 0.0
C3511 C 0.23501 0.66657 0.11162 0.0
C3512 C 0.23308 0.63745 0.13964 0.0
C3513 C 0.26393 0.62424 0.1628 0.0
C3514 C 0.25616 0.62996 0.14991 0.0
C3515 C 0.23188 0.66052 0.1253 0.0
C3516 C 0.24013 0.648 0.13116 0.0
H3517 H 0.28495 0.63723 0.19018 0.0
H3518 H 0.27487 0.64466 0.16707 0.0
H3519 H 0.2352 0.62145 0.15633 0.0
H3520 H 0.20857 0.6862 0.13784 0.0
H3521 H 0.21953 0.66345 0.14514 0.0
C3522 C 0.7421 0.39734 0.17994 0.0
C3523 C 0.74896 0.39096 0.19198 0.0
C3524 C 0.74499 0.39225 0.1659 0.0
C3525 C 0.7688 0.36771 0.14432 0.0
H3526 H 0.73262 0.35259 0.12903 0.0
C3527 C 0.75041 0.31078 0.12253 0.0
C3528 C 0.76136 0.30758 0.11244 0.0
C3529 C 0.74782 0.32508 0.12676 0.0
C3530 C 0.74281 0.35696 0.13294 0.0
H3531 H 0.76523 0.37541 0.19875 0.0
H3532 H 0.77049 0.36676 0.17438 0.0
H3533 H 0.73214 0.37165 0.1474 0.0
H3534 H 0.77749 0.31683 0.09806 0.0
H3535 H 0.77318 0.34197 0.10576 0.0
H3536 H 0.77944 0.3522 0.1307 0.0
C3537 C 0.76283 0.37559 0.17566 0.0
C3538 C 0.74255 0.36796 0.1434 0.0
C3539 C 0.75976 0.38048 0.18966 0.0
C3540 C 0.76892 0.31904 0.1058 0.0
C3541 C 0.76652 0.33339 0.11026 0.0
C3542 C 0.76907 0.35679 0.13378 0.0
C3543 C 0.75498 0.38092 0.16371 0.0
C3544 C 0.75552 0.37286 0.14976 0.0
C3545 C 0.75631 0.33647 0.12117 0.0
C3546 C 0.75605 0.35076 0.12859 0.0
H3547 H 0.73367 0.4054 0.18144 0.0
H3548 H 0.73884 0.39659 0.15687 0.0
H3549 H 0.77897 0.37139 0.14895 0.0
H3550 H 0.74443 0.30213 0.1278 0.0
H3551 H 0.73998 0.32705 0.13529 0.0
loop_
_geom_bond_atom_site_label_1
_geom_bond_atom_site_label_2
_geom_bond_distance
_geom_bond_site_symmetry_2
_ccdc_geom_bond_type
O0 Cd1 2.223 . S
O0 C8 1.315 . S
Cd1 O0 2.223 . S
Cd1 O4 2.297 . S
Cd1 O5 2.439 . S
Cd1 O11 2.240 . S
Cd2 O3 2.240 . S
Cd2 O10 2.223 . S
Cd2 O12 2.297 . S
Cd2 O13 2.439 . S
O3 Cd2 2.240 . S
O3 C8 1.279 . S
O4 Cd1 2.297 . S
O4 C6 1.247 . S
O5 Cd1 2.439 . S
O5 C6 1.208 . S
C6 O4 1.247 . S
C6 O5 1.208 . S
C7 O12 1.247 . S
C7 O13 1.208 . S
C8 O0 1.315 . S
C8 O3 1.279 . S
C9 O10 1.315 . S
C9 O11 1.279 . S
O10 Cd2 2.223 . S
O10 C9 1.315 . S
O11 Cd1 2.240 . S
O11 C9 1.279 . S
O12 Cd2 2.297 . S
O12 C7 1.247 . S
O13 Cd2 2.439 . S
O13 C7 1.208 . S
O14 Cd15 2.223 . S
O14 C22 1.315 . S
Cd15 O14 2.223 . S
Cd15 O18 2.297 . S
Cd15 O19 2.439 . S
Cd15 O25 2.240 . S
Cd16 O17 2.240 . S
Cd16 O24 2.223 . S
Cd16 O26 2.297 . S
Cd16 O27 2.439 . S
O17 Cd16 2.240 . S
O17 C22 1.279 . S
O18 Cd15 2.297 . S
O18 C20 1.247 . S
O19 Cd15 2.439 . S
O19 C20 1.208 . S
C20 O18 1.247 . S
C20 O19 1.208 . S
C21 O26 1.247 . S
C21 O27 1.208 . S
C22 O14 1.315 . S
C22 O17 1.279 . S
C23 O24 1.315 . S
C23 O25 1.279 . S
O24 Cd16 2.223 . S
O24 C23 1.315 . S
O25 Cd15 2.240 . S
O25 C23 1.279 . S
O26 Cd16 2.297 . S
O26 C21 1.247 . S
O27 Cd16 2.439 . S
O27 C21 1.208 . S
O28 Cd29 2.223 . S
O28 C36 1.315 . S
Cd29 O28 2.223 . S
Cd29 O32 2.297 . S
Cd29 O33 2.439 . S
Cd29 O39 2.240 . S
Cd30 O31 2.240 . S
Cd30 O38 2.223 . S
Cd30 O40 2.297 . S
Cd30 O41 2.439 . S
O31 Cd30 2.240 . S
O31 C36 1.279 . S
O32 Cd29 2.297 . S
O32 C34 1.247 . S
O33 Cd29 2.439 . S
O33 C34 1.208 . S
C34 O32 1.247 . S
C34 O33 1.208 . S
C35 O40 1.247 . S
C35 O41 1.208 . S
C36 O28 1.315 . S
C36 O31 1.279 . S
C37 O38 1.315 . S
C37 O39 1.279 . S
O38 Cd30 2.223 . S
O38 C37 1.315 . S
O39 Cd29 2.240 . S
O39 C37 1.279 . S
O40 Cd30 2.297 . S
O40 C35 1.247 . S
O41 Cd30 2.439 . S
O41 C35 1.208 . S
O42 Cd43 2.223 . S
O42 C50 1.315 . S
Cd43 O42 2.223 . S
Cd43 O46 2.297 . S
Cd43 O47 2.439 . S
Cd43 O53 2.240 . S
Cd44 O45 2.240 . S
Cd44 O52 2.223 . S
Cd44 O54 2.297 . S
Cd44 O55 2.439 . S
O45 Cd44 2.240 . S
O45 C50 1.279 . S
O46 Cd43 2.297 . S
O46 C48 1.247 . S
O47 Cd43 2.439 . S
O47 C48 1.208 . S
C48 O46 1.247 . S
C48 O47 1.208 . S
C49 O54 1.247 . S
C49 O55 1.208 . S
C50 O42 1.315 . S
C50 O45 1.279 . S
C51 O52 1.315 . S
C51 O53 1.279 . S
O52 Cd44 2.223 . S
O52 C51 1.315 . S
O53 Cd43 2.240 . S
O53 C51 1.279 . S
O54 Cd44 2.297 . S
O54 C49 1.247 . S
O55 Cd44 2.439 . S
O55 C49 1.208 . S
O56 Cd57 2.223 . S
O56 C64 1.315 . S
Cd57 O56 2.223 . S
Cd57 O60 2.297 . S
Cd57 O61 2.439 . S
Cd57 O67 2.240 . S
Cd58 O59 2.240 . S
Cd58 O66 2.223 . S
Cd58 O68 2.297 . S
Cd58 O69 2.439 . S
O59 Cd58 2.240 . S
O59 C64 1.279 . S
O60 Cd57 2.297 . S
O60 C62 1.247 . S
O61 Cd57 2.439 . S
O61 C62 1.208 . S
C62 O60 1.247 . S
C62 O61 1.208 . S
C63 O68 1.247 . S
C63 O69 1.208 . S
C64 O56 1.315 . S
C64 O59 1.279 . S
C65 O66 1.315 . S
C65 O67 1.279 . S
O66 Cd58 2.223 . S
O66 C65 1.315 . S
O67 Cd57 2.240 . S
O67 C65 1.279 . S
O68 Cd58 2.297 . S
O68 C63 1.247 . S
O69 Cd58 2.439 . S
O69 C63 1.208 . S
O70 Cd71 2.223 . S
O70 C78 1.315 . S
Cd71 O70 2.223 . S
Cd71 O74 2.297 . S
Cd71 O75 2.439 . S
Cd71 O81 2.240 . S
Cd72 O73 2.240 . S
Cd72 O80 2.223 . S
Cd72 O82 2.297 . S
Cd72 O83 2.439 . S
O73 Cd72 2.240 . S
O73 C78 1.279 . S
O74 Cd71 2.297 . S
O74 C76 1.247 . S
O75 Cd71 2.439 . S
O75 C76 1.208 . S
C76 O74 1.247 . S
C76 O75 1.208 . S
C77 O82 1.247 . S
C77 O83 1.208 . S
C78 O70 1.315 . S
C78 O73 1.279 . S
C79 O80 1.315 . S
C79 O81 1.279 . S
O80 Cd72 2.223 . S
O80 C79 1.315 . S
O81 Cd71 2.240 . S
O81 C79 1.279 . S
O82 Cd72 2.297 . S
O82 C77 1.247 . S
O83 Cd72 2.439 . S
O83 C77 1.208 . S
O84 Cd85 2.223 . S
O84 C92 1.315 . S
Cd85 O84 2.223 . S
Cd85 O88 2.297 . S
Cd85 O89 2.439 . S
Cd85 O95 2.240 . S
Cd86 O87 2.240 . S
Cd86 O94 2.223 . S
Cd86 O96 2.297 . S
Cd86 O97 2.439 . S
O87 Cd86 2.240 . S
O87 C92 1.279 . S
O88 Cd85 2.297 . S
O88 C90 1.247 . S
O89 Cd85 2.439 . S
O89 C90 1.208 . S
C90 O88 1.247 . S
C90 O89 1.208 . S
C91 O96 1.247 . S
C91 O97 1.208 . S
C92 O84 1.315 . S
C92 O87 1.279 . S
C93 O94 1.315 . S
C93 O95 1.279 . S
O94 Cd86 2.223 . S
O94 C93 1.315 . S
O95 Cd85 2.240 . S
O95 C93 1.279 . S
O96 Cd86 2.297 . S
O96 C91 1.247 . S
O97 Cd86 2.439 . S
O97 C91 1.208 . S
O98 Cd99 2.223 . S
O98 C106 1.315 . S
Cd99 O98 2.223 . S
Cd99 O102 2.297 . S
Cd99 O103 2.439 . S
Cd99 O109 2.240 . S
Cd100 O101 2.240 . S
Cd100 O108 2.223 . S
Cd100 O110 2.297 . S
Cd100 O111 2.439 . S
O101 Cd100 2.240 . S
O101 C106 1.279 . S
O102 Cd99 2.297 . S
O102 C104 1.247 . S
O103 Cd99 2.439 . S
O103 C104 1.208 . S
C104 O102 1.247 . S
C104 O103 1.208 . S
C105 O110 1.247 . S
C105 O111 1.208 . S
C106 O98 1.315 . S
C106 O101 1.279 . S
C107 O108 1.315 . S
C107 O109 1.279 . S
O108 Cd100 2.223 . S
O108 C107 1.315 . S
O109 Cd99 2.240 . S
O109 C107 1.279 . S
O110 Cd100 2.297 . S
O110 C105 1.247 . S
O111 Cd100 2.439 . S
O111 C105 1.208 . S
O112 Cd113 2.223 . S
O112 C120 1.315 . S
Cd113 O112 2.223 . S
Cd113 O116 2.297 . S
Cd113 O117 2.439 . S
Cd113 O123 2.240 . S
Cd114 O115 2.240 . S
Cd114 O122 2.223 . S
Cd114 O124 2.297 . S
Cd114 O125 2.439 . S
O115 Cd114 2.240 . S
O115 C120 1.279 . S
O116 Cd113 2.297 . S
O116 C118 1.247 . S
O117 Cd113 2.439 . S
O117 C118 1.208 . S
C118 O116 1.247 . S
C118 O117 1.208 . S
C119 O124 1.247 . S
C119 O125 1.208 . S
C120 O112 1.315 . S
C120 O115 1.279 . S
C121 O122 1.315 . S
C121 O123 1.279 . S
O122 Cd114 2.223 . S
O122 C121 1.315 . S
O123 Cd113 2.240 . S
O123 C121 1.279 . S
O124 Cd114 2.297 . S
O124 C119 1.247 . S
O125 Cd114 2.439 . S
O125 C119 1.208 . S
O126 Cd127 2.223 . S
O126 C134 1.315 . S
Cd127 O126 2.223 . S
Cd127 O130 2.297 . S
Cd127 O131 2.439 . S
Cd127 O137 2.240 . S
Cd128 O129 2.240 . S
Cd128 O136 2.223 . S
Cd128 O138 2.297 . S
Cd128 O139 2.439 . S
O129 Cd128 2.240 . S
O129 C134 1.279 . S
O130 Cd127 2.297 . S
O130 C132 1.247 . S
O131 Cd127 2.439 . S
O131 C132 1.208 . S
C132 O130 1.247 . S
C132 O131 1.208 . S
C133 O138 1.247 . S
C133 O139 1.208 . S
C134 O126 1.315 . S
C134 O129 1.279 . S
C135 O136 1.315 . S
C135 O137 1.279 . S
O136 Cd128 2.223 . S
O136 C135 1.315 . S
O137 Cd127 2.240 . S
O137 C135 1.279 . S
O138 Cd128 2.297 . S
O138 C133 1.247 . S
O139 Cd128 2.439 . S
O139 C133 1.208 . S
O140 Cd141 2.223 . S
O140 C148 1.315 . S
Cd141 O140 2.223 . S
Cd141 O144 2.297 . S
Cd141 O145 2.439 . S
Cd141 O151 2.240 . S
Cd142 O143 2.240 . S
Cd142 O150 2.223 . S
Cd142 O152 2.297 . S
Cd142 O153 2.439 . S
O143 Cd142 2.240 . S
O143 C148 1.279 . S
O144 Cd141 2.297 . S
O144 C146 1.247 . S
O145 Cd141 2.439 . S
O145 C146 1.208 . S
C146 O144 1.247 . S
C146 O145 1.208 . S
C147 O152 1.247 . S
C147 O153 1.208 . S
C148 O140 1.315 . S
C148 O143 1.279 . S
C149 O150 1.315 . S
C149 O151 1.279 . S
O150 Cd142 2.223 . S
O150 C149 1.315 . S
O151 Cd141 2.240 . S
O151 C149 1.279 . S
O152 Cd142 2.297 . S
O152 C147 1.247 . S
O153 Cd142 2.439 . S
O153 C147 1.208 . S
O154 Cd155 2.223 . S
O154 C162 1.315 . S
Cd155 O154 2.223 . S
Cd155 O158 2.297 . S
Cd155 O159 2.439 . S
Cd155 O165 2.240 . S
Cd156 O157 2.240 . S
Cd156 O164 2.223 . S
Cd156 O166 2.297 . S
Cd156 O167 2.439 . S
O157 Cd156 2.240 . S
O157 C162 1.279 . S
O158 Cd155 2.297 . S
O158 C160 1.247 . S
O159 Cd155 2.439 . S
O159 C160 1.208 . S
C160 O158 1.247 . S
C160 O159 1.208 . S
C161 O166 1.247 . S
C161 O167 1.208 . S
C162 O154 1.315 . S
C162 O157 1.279 . S
C163 O164 1.315 . S
C163 O165 1.279 . S
O164 Cd156 2.223 . S
O164 C163 1.315 . S
O165 Cd155 2.240 . S
O165 C163 1.279 . S
O166 Cd156 2.297 . S
O166 C161 1.247 . S
O167 Cd156 2.439 . S
O167 C161 1.208 . S
O168 Cd169 2.223 . S
O168 C176 1.315 . S
Cd169 O168 2.223 . S
Cd169 O172 2.297 . S
Cd169 O173 2.439 . S
Cd169 O179 2.240 . S
Cd170 O171 2.240 . S
Cd170 O178 2.223 . S
Cd170 O180 2.297 . S
Cd170 O181 2.439 . S
O171 Cd170 2.240 . S
O171 C176 1.279 . S
O172 Cd169 2.297 . S
O172 C174 1.247 . S
O173 Cd169 2.439 . S
O173 C174 1.208 . S
C174 O172 1.247 . S
C174 O173 1.208 . S
C175 O180 1.247 . S
C175 O181 1.208 . S
C176 O168 1.315 . S
C176 O171 1.279 . S
C177 O178 1.315 . S
C177 O179 1.279 . S
O178 Cd170 2.223 . S
O178 C177 1.315 . S
O179 Cd169 2.240 . S
O179 C177 1.279 . S
O180 Cd170 2.297 . S
O180 C175 1.247 . S
O181 Cd170 2.439 . S
O181 C175 1.208 . S
O182 Cd183 2.223 . S
O182 C190 1.315 . S
Cd183 O182 2.223 . S
Cd183 O186 2.297 . S
Cd183 O187 2.439 . S
Cd183 O193 2.240 . S
Cd184 O185 2.240 . S
Cd184 O192 2.223 . S
Cd184 O194 2.297 . S
Cd184 O195 2.439 . S
O185 Cd184 2.240 . S
O185 C190 1.279 . S
O186 Cd183 2.297 . S
O186 C188 1.247 . S
O187 Cd183 2.439 . S
O187 C188 1.208 . S
C188 O186 1.247 . S
C188 O187 1.208 . S
C189 O194 1.247 . S
C189 O195 1.208 . S
C190 O182 1.315 . S
C190 O185 1.279 . S
C191 O192 1.315 . S
C191 O193 1.279 . S
O192 Cd184 2.223 . S
O192 C191 1.315 . S
O193 Cd183 2.240 . S
O193 C191 1.279 . S
O194 Cd184 2.297 . S
O194 C189 1.247 . S
O195 Cd184 2.439 . S
O195 C189 1.208 . S
O196 Cd197 2.223 . S
O196 C204 1.315 . S
Cd197 O196 2.223 . S
Cd197 O200 2.297 . S
Cd197 O201 2.439 . S
Cd197 O207 2.240 . S
Cd198 O199 2.240 . S
Cd198 O206 2.223 . S
Cd198 O208 2.297 . S
Cd198 O209 2.439 . S
O199 Cd198 2.240 . S
O199 C204 1.279 . S
O200 Cd197 2.297 . S
O200 C202 1.247 . S
O201 Cd197 2.439 . S
O201 C202 1.208 . S
C202 O200 1.247 . S
C202 O201 1.208 . S
C203 O208 1.247 . S
C203 O209 1.208 . S
C204 O196 1.315 . S
C204 O199 1.279 . S
C205 O206 1.315 . S
C205 O207 1.279 . S
O206 Cd198 2.223 . S
O206 C205 1.315 . S
O207 Cd197 2.240 . S
O207 C205 1.279 . S
O208 Cd198 2.297 . S
O208 C203 1.247 . S
O209 Cd198 2.439 . S
O209 C203 1.208 . S
O210 Cd211 2.223 . S
O210 C218 1.315 . S
Cd211 O210 2.223 . S
Cd211 O214 2.297 . S
Cd211 O215 2.439 . S
Cd211 O221 2.240 . S
Cd212 O213 2.240 . S
Cd212 O220 2.223 . S
Cd212 O222 2.297 . S
Cd212 O223 2.439 . S
O213 Cd212 2.240 . S
O213 C218 1.279 . S
O214 Cd211 2.297 . S
O214 C216 1.247 . S
O215 Cd211 2.439 . S
O215 C216 1.208 . S
C216 O214 1.247 . S
C216 O215 1.208 . S
C217 O222 1.247 . S
C217 O223 1.208 . S
C218 O210 1.315 . S
C218 O213 1.279 . S
C219 O220 1.315 . S
C219 O221 1.279 . S
O220 Cd212 2.223 . S
O220 C219 1.315 . S
O221 Cd211 2.240 . S
O221 C219 1.279 . S
O222 Cd212 2.297 . S
O222 C217 1.247 . S
O223 Cd212 2.439 . S
O223 C217 1.208 . S
O224 Cd225 2.223 . S
O224 C232 1.315 . S
Cd225 O224 2.223 . S
Cd225 O228 2.297 . S
Cd225 O229 2.439 . S
Cd225 O235 2.240 . S
Cd226 O227 2.240 . S
Cd226 O234 2.223 . S
Cd226 O236 2.297 . S
Cd226 O237 2.439 . S
O227 Cd226 2.240 . S
O227 C232 1.279 . S
O228 Cd225 2.297 . S
O228 C230 1.247 . S
O229 Cd225 2.439 . S
O229 C230 1.208 . S
C230 O228 1.247 . S
C230 O229 1.208 . S
C231 O236 1.247 . S
C231 O237 1.208 . S
C232 O224 1.315 . S
C232 O227 1.279 . S
C233 O234 1.315 . S
C233 O235 1.279 . S
O234 Cd226 2.223 . S
O234 C233 1.315 . S
O235 Cd225 2.240 . S
O235 C233 1.279 . S
O236 Cd226 2.297 . S
O236 C231 1.247 . S
O237 Cd226 2.439 . S
O237 C231 1.208 . S
O238 Cd239 2.223 . S
O238 C246 1.315 . S
Cd239 O238 2.223 . S
Cd239 O242 2.297 . S
Cd239 O243 2.439 . S
Cd239 O249 2.240 . S
Cd240 O241 2.240 . S
Cd240 O248 2.223 . S
Cd240 O250 2.297 . S
Cd240 O251 2.439 . S
O241 Cd240 2.240 . S
O241 C246 1.279 . S
O242 Cd239 2.297 . S
O242 C244 1.247 . S
O243 Cd239 2.439 . S
O243 C244 1.208 . S
C244 O242 1.247 . S
C244 O243 1.208 . S
C245 O250 1.247 . S
C245 O251 1.208 . S
C246 O238 1.315 . S
C246 O241 1.279 . S
C247 O248 1.315 . S
C247 O249 1.279 . S
O248 Cd240 2.223 . S
O248 C247 1.315 . S
O249 Cd239 2.240 . S
O249 C247 1.279 . S
O250 Cd240 2.297 . S
O250 C245 1.247 . S
O251 Cd240 2.439 . S
O251 C245 1.208 . S
O252 Cd253 2.223 . S
O252 C260 1.315 . S
Cd253 O252 2.223 . S
Cd253 O256 2.297 . S
Cd253 O257 2.439 . S
Cd253 O263 2.240 . S
Cd254 O255 2.240 . S
Cd254 O262 2.223 . S
Cd254 O264 2.297 . S
Cd254 O265 2.439 . S
O255 Cd254 2.240 . S
O255 C260 1.279 . S
O256 Cd253 2.297 . S
O256 C258 1.247 . S
O257 Cd253 2.439 . S
O257 C258 1.208 . S
C258 O256 1.247 . S
C258 O257 1.208 . S
C259 O264 1.247 . S
C259 O265 1.208 . S
C260 O252 1.315 . S
C260 O255 1.279 . S
C261 O262 1.315 . S
C261 O263 1.279 . S
O262 Cd254 2.223 . S
O262 C261 1.315 . S
O263 Cd253 2.240 . S
O263 C261 1.279 . S
O264 Cd254 2.297 . S
O264 C259 1.247 . S
O265 Cd254 2.439 . S
O265 C259 1.208 . S
O266 Cd267 2.223 . S
O266 C274 1.315 . S
Cd267 O266 2.223 . S
Cd267 O270 2.297 . S
Cd267 O271 2.439 . S
Cd267 O277 2.240 . S
Cd268 O269 2.240 . S
Cd268 O276 2.223 . S
Cd268 O278 2.297 . S
Cd268 O279 2.439 . S
O269 Cd268 2.240 . S
O269 C274 1.279 . S
O270 Cd267 2.297 . S
O270 C272 1.247 . S
O271 Cd267 2.439 . S
O271 C272 1.208 . S
C272 O270 1.247 . S
C272 O271 1.208 . S
C273 O278 1.247 . S
C273 O279 1.208 . S
C274 O266 1.315 . S
C274 O269 1.279 . S
C275 O276 1.315 . S
C275 O277 1.279 . S
O276 Cd268 2.223 . S
O276 C275 1.315 . S
O277 Cd267 2.240 . S
O277 C275 1.279 . S
O278 Cd268 2.297 . S
O278 C273 1.247 . S
O279 Cd268 2.439 . S
O279 C273 1.208 . S
O280 Cd281 2.223 . S
O280 C288 1.315 . S
Cd281 O280 2.223 . S
Cd281 O284 2.297 . S
Cd281 O285 2.439 . S
Cd281 O291 2.240 . S
Cd282 O283 2.240 . S
Cd282 O290 2.223 . S
Cd282 O292 2.297 . S
Cd282 O293 2.439 . S
O283 Cd282 2.240 . S
O283 C288 1.279 . S
O284 Cd281 2.297 . S
O284 C286 1.247 . S
O285 Cd281 2.439 . S
O285 C286 1.208 . S
C286 O284 1.247 . S
C286 O285 1.208 . S
C287 O292 1.247 . S
C287 O293 1.208 . S
C288 O280 1.315 . S
C288 O283 1.279 . S
C289 O290 1.315 . S
C289 O291 1.279 . S
O290 Cd282 2.223 . S
O290 C289 1.315 . S
O291 Cd281 2.240 . S
O291 C289 1.279 . S
O292 Cd282 2.297 . S
O292 C287 1.247 . S
O293 Cd282 2.439 . S
O293 C287 1.208 . S
O294 Cd295 2.223 . S
O294 C302 1.315 . S
Cd295 O294 2.223 . S
Cd295 O298 2.297 . S
Cd295 O299 2.439 . S
Cd295 O305 2.240 . S
Cd296 O297 2.240 . S
Cd296 O304 2.223 . S
Cd296 O306 2.297 . S
Cd296 O307 2.439 . S
O297 Cd296 2.240 . S
O297 C302 1.279 . S
O298 Cd295 2.297 . S
O298 C300 1.247 . S
O299 Cd295 2.439 . S
O299 C300 1.208 . S
C300 O298 1.247 . S
C300 O299 1.208 . S
C301 O306 1.247 . S
C301 O307 1.208 . S
C302 O294 1.315 . S
C302 O297 1.279 . S
C303 O304 1.315 . S
C303 O305 1.279 . S
O304 Cd296 2.223 . S
O304 C303 1.315 . S
O305 Cd295 2.240 . S
O305 C303 1.279 . S
O306 Cd296 2.297 . S
O306 C301 1.247 . S
O307 Cd296 2.439 . S
O307 C301 1.208 . S
O308 Cd309 2.223 . S
O308 C316 1.315 . S
Cd309 O308 2.223 . S
Cd309 O312 2.297 . S
Cd309 O313 2.439 . S
Cd309 O319 2.240 . S
Cd310 O311 2.240 . S
Cd310 O318 2.223 . S
Cd310 O320 2.297 . S
Cd310 O321 2.439 . S
O311 Cd310 2.240 . S
O311 C316 1.279 . S
O312 Cd309 2.297 . S
O312 C314 1.247 . S
O313 Cd309 2.439 . S
O313 C314 1.208 . S
C314 O312 1.247 . S
C314 O313 1.208 . S
C315 O320 1.247 . S
C315 O321 1.208 . S
C316 O308 1.315 . S
C316 O311 1.279 . S
C317 O318 1.315 . S
C317 O319 1.279 . S
O318 Cd310 2.223 . S
O318 C317 1.315 . S
O319 Cd309 2.240 . S
O319 C317 1.279 . S
O320 Cd310 2.297 . S
O320 C315 1.247 . S
O321 Cd310 2.439 . S
O321 C315 1.208 . S
O322 Cd323 2.223 . S
O322 C330 1.315 . S
Cd323 O322 2.223 . S
Cd323 O326 2.297 . S
Cd323 O327 2.439 . S
Cd323 O333 2.240 . S
Cd324 O325 2.240 . S
Cd324 O332 2.223 . S
Cd324 O334 2.297 . S
Cd324 O335 2.439 . S
O325 Cd324 2.240 . S
O325 C330 1.279 . S
O326 Cd323 2.297 . S
O326 C328 1.247 . S
O327 Cd323 2.439 . S
O327 C328 1.208 . S
C328 O326 1.247 . S
C328 O327 1.208 . S
C329 O334 1.247 . S
C329 O335 1.208 . S
C330 O322 1.315 . S
C330 O325 1.279 . S
C331 O332 1.315 . S
C331 O333 1.279 . S
O332 Cd324 2.223 . S
O332 C331 1.315 . S
O333 Cd323 2.240 . S
O333 C331 1.279 . S
O334 Cd324 2.297 . S
O334 C329 1.247 . S
O335 Cd324 2.439 . S
O335 C329 1.208 . S
O336 Cd337 2.223 . S
O336 C344 1.315 . S
Cd337 O336 2.223 . S
Cd337 O340 2.297 . S
Cd337 O341 2.439 . S
Cd337 O347 2.240 . S
Cd338 O339 2.240 . S
Cd338 O346 2.223 . S
Cd338 O348 2.297 . S
Cd338 O349 2.439 . S
O339 Cd338 2.240 . S
O339 C344 1.279 . S
O340 Cd337 2.297 . S
O340 C342 1.247 . S
O341 Cd337 2.439 . S
O341 C342 1.208 . S
C342 O340 1.247 . S
C342 O341 1.208 . S
C343 O348 1.247 . S
C343 O349 1.208 . S
C344 O336 1.315 . S
C344 O339 1.279 . S
C345 O346 1.315 . S
C345 O347 1.279 . S
O346 Cd338 2.223 . S
O346 C345 1.315 . S
O347 Cd337 2.240 . S
O347 C345 1.279 . S
O348 Cd338 2.297 . S
O348 C343 1.247 . S
O349 Cd338 2.439 . S
O349 C343 1.208 . S
O350 Cd351 2.223 . S
O350 C358 1.315 . S
Cd351 O350 2.223 . S
Cd351 O354 2.297 . S
Cd351 O355 2.439 . S
Cd351 O361 2.240 . S
Cd352 O353 2.240 . S
Cd352 O360 2.223 . S
Cd352 O362 2.297 . S
Cd352 O363 2.439 . S
O353 Cd352 2.240 . S
O353 C358 1.279 . S
O354 Cd351 2.297 . S
O354 C356 1.247 . S
O355 Cd351 2.439 . S
O355 C356 1.208 . S
C356 O354 1.247 . S
C356 O355 1.208 . S
C357 O362 1.247 . S
C357 O363 1.208 . S
C358 O350 1.315 . S
C358 O353 1.279 . S
C359 O360 1.315 . S
C359 O361 1.279 . S
O360 Cd352 2.223 . S
O360 C359 1.315 . S
O361 Cd351 2.240 . S
O361 C359 1.279 . S
O362 Cd352 2.297 . S
O362 C357 1.247 . S
O363 Cd352 2.439 . S
O363 C357 1.208 . S
O364 Cd365 2.223 . S
O364 C372 1.315 . S
Cd365 O364 2.223 . S
Cd365 O368 2.297 . S
Cd365 O369 2.439 . S
Cd365 O375 2.240 . S
Cd366 O367 2.240 . S
Cd366 O374 2.223 . S
Cd366 O376 2.297 . S
Cd366 O377 2.439 . S
O367 Cd366 2.240 . S
O367 C372 1.279 . S
O368 Cd365 2.297 . S
O368 C370 1.247 . S
O369 Cd365 2.439 . S
O369 C370 1.208 . S
C370 O368 1.247 . S
C370 O369 1.208 . S
C371 O376 1.247 . S
C371 O377 1.208 . S
C372 O364 1.315 . S
C372 O367 1.279 . S
C373 O374 1.315 . S
C373 O375 1.279 . S
O374 Cd366 2.223 . S
O374 C373 1.315 . S
O375 Cd365 2.240 . S
O375 C373 1.279 . S
O376 Cd366 2.297 . S
O376 C371 1.247 . S
O377 Cd366 2.439 . S
O377 C371 1.208 . S
O378 Cd379 2.223 . S
O378 C386 1.315 . S
Cd379 O378 2.223 . S
Cd379 O382 2.297 . S
Cd379 O383 2.439 . S
Cd379 O389 2.240 . S
Cd380 O381 2.240 . S
Cd380 O388 2.223 . S
Cd380 O390 2.297 . S
Cd380 O391 2.439 . S
O381 Cd380 2.240 . S
O381 C386 1.279 . S
O382 Cd379 2.297 . S
O382 C384 1.247 . S
O383 Cd379 2.439 . S
O383 C384 1.208 . S
C384 O382 1.247 . S
C384 O383 1.208 . S
C385 O390 1.247 . S
C385 O391 1.208 . S
C386 O378 1.315 . S
C386 O381 1.279 . S
C387 O388 1.315 . S
C387 O389 1.279 . S
O388 Cd380 2.223 . S
O388 C387 1.315 . S
O389 Cd379 2.240 . S
O389 C387 1.279 . S
O390 Cd380 2.297 . S
O390 C385 1.247 . S
O391 Cd380 2.439 . S
O391 C385 1.208 . S
O392 Cd393 2.223 . S
O392 C400 1.315 . S
Cd393 O392 2.223 . S
Cd393 O396 2.297 . S
Cd393 O397 2.439 . S
Cd393 O403 2.240 . S
Cd394 O395 2.240 . S
Cd394 O402 2.223 . S
Cd394 O404 2.297 . S
Cd394 O405 2.439 . S
O395 Cd394 2.240 . S
O395 C400 1.279 . S
O396 Cd393 2.297 . S
O396 C398 1.247 . S
O397 Cd393 2.439 . S
O397 C398 1.208 . S
C398 O396 1.247 . S
C398 O397 1.208 . S
C399 O404 1.247 . S
C399 O405 1.208 . S
C400 O392 1.315 . S
C400 O395 1.279 . S
C401 O402 1.315 . S
C401 O403 1.279 . S
O402 Cd394 2.223 . S
O402 C401 1.315 . S
O403 Cd393 2.240 . S
O403 C401 1.279 . S
O404 Cd394 2.297 . S
O404 C399 1.247 . S
O405 Cd394 2.439 . S
O405 C399 1.208 . S
O406 Cd407 2.223 . S
O406 C414 1.315 . S
Cd407 O406 2.223 . S
Cd407 O410 2.297 . S
Cd407 O411 2.439 . S
Cd407 O417 2.240 . S
Cd408 O409 2.240 . S
Cd408 O416 2.223 . S
Cd408 O418 2.297 . S
Cd408 O419 2.439 . S
O409 Cd408 2.240 . S
O409 C414 1.279 . S
O410 Cd407 2.297 . S
O410 C412 1.247 . S
O411 Cd407 2.439 . S
O411 C412 1.208 . S
C412 O410 1.247 . S
C412 O411 1.208 . S
C413 O418 1.247 . S
C413 O419 1.208 . S
C414 O406 1.315 . S
C414 O409 1.279 . S
C415 O416 1.315 . S
C415 O417 1.279 . S
O416 Cd408 2.223 . S
O416 C415 1.315 . S
O417 Cd407 2.240 . S
O417 C415 1.279 . S
O418 Cd408 2.297 . S
O418 C413 1.247 . S
O419 Cd408 2.439 . S
O419 C413 1.208 . S
O420 Cd421 2.223 . S
O420 C428 1.315 . S
Cd421 O420 2.223 . S
Cd421 O424 2.297 . S
Cd421 O425 2.439 . S
Cd421 O431 2.240 . S
Cd422 O423 2.240 . S
Cd422 O430 2.223 . S
Cd422 O432 2.297 . S
Cd422 O433 2.439 . S
O423 Cd422 2.240 . S
O423 C428 1.279 . S
O424 Cd421 2.297 . S
O424 C426 1.247 . S
O425 Cd421 2.439 . S
O425 C426 1.208 . S
C426 O424 1.247 . S
C426 O425 1.208 . S
C427 O432 1.247 . S
C427 O433 1.208 . S
C428 O420 1.315 . S
C428 O423 1.279 . S
C429 O430 1.315 . S
C429 O431 1.279 . S
O430 Cd422 2.223 . S
O430 C429 1.315 . S
O431 Cd421 2.240 . S
O431 C429 1.279 . S
O432 Cd422 2.297 . S
O432 C427 1.247 . S
O433 Cd422 2.439 . S
O433 C427 1.208 . S
O434 Cd435 2.223 . S
O434 C442 1.315 . S
Cd435 O434 2.223 . S
Cd435 O438 2.297 . S
Cd435 O439 2.439 . S
Cd435 O445 2.240 . S
Cd436 O437 2.240 . S
Cd436 O444 2.223 . S
Cd436 O446 2.297 . S
Cd436 O447 2.439 . S
O437 Cd436 2.240 . S
O437 C442 1.279 . S
O438 Cd435 2.297 . S
O438 C440 1.247 . S
O439 Cd435 2.439 . S
O439 C440 1.208 . S
C440 O438 1.247 . S
C440 O439 1.208 . S
C441 O446 1.247 . S
C441 O447 1.208 . S
C442 O434 1.315 . S
C442 O437 1.279 . S
C443 O444 1.315 . S
C443 O445 1.279 . S
O444 Cd436 2.223 . S
O444 C443 1.315 . S
O445 Cd435 2.240 . S
O445 C443 1.279 . S
O446 Cd436 2.297 . S
O446 C441 1.247 . S
O447 Cd436 2.439 . S
O447 C441 1.208 . S
O448 Cd449 2.223 . S
O448 C456 1.315 . S
Cd449 O448 2.223 . S
Cd449 O452 2.297 . S
Cd449 O453 2.439 . S
Cd449 O459 2.240 . S
Cd450 O451 2.240 . S
Cd450 O458 2.223 . S
Cd450 O460 2.297 . S
Cd450 O461 2.439 . S
O451 Cd450 2.240 . S
O451 C456 1.279 . S
O452 Cd449 2.297 . S
O452 C454 1.247 . S
O453 Cd449 2.439 . S
O453 C454 1.208 . S
C454 O452 1.247 . S
C454 O453 1.208 . S
C455 O460 1.247 . S
C455 O461 1.208 . S
C456 O448 1.315 . S
C456 O451 1.279 . S
C457 O458 1.315 . S
C457 O459 1.279 . S
O458 Cd450 2.223 . S
O458 C457 1.315 . S
O459 Cd449 2.240 . S
O459 C457 1.279 . S
O460 Cd450 2.297 . S
O460 C455 1.247 . S
O461 Cd450 2.439 . S
O461 C455 1.208 . S
O462 Cd463 2.223 . S
O462 C470 1.315 . S
Cd463 O462 2.223 . S
Cd463 O466 2.297 . S
Cd463 O467 2.439 . S
Cd463 O473 2.240 . S
Cd464 O465 2.240 . S
Cd464 O472 2.223 . S
Cd464 O474 2.297 . S
Cd464 O475 2.439 . S
O465 Cd464 2.240 . S
O465 C470 1.279 . S
O466 Cd463 2.297 . S
O466 C468 1.247 . S
O467 Cd463 2.439 . S
O467 C468 1.208 . S
C468 O466 1.247 . S
C468 O467 1.208 . S
C469 O474 1.247 . S
C469 O475 1.208 . S
C470 O462 1.315 . S
C470 O465 1.279 . S
C471 O472 1.315 . S
C471 O473 1.279 . S
O472 Cd464 2.223 . S
O472 C471 1.315 . S
O473 Cd463 2.240 . S
O473 C471 1.279 . S
O474 Cd464 2.297 . S
O474 C469 1.247 . S
O475 Cd464 2.439 . S
O475 C469 1.208 . S
O476 Cd477 2.223 . S
O476 C484 1.315 . S
Cd477 O476 2.223 . S
Cd477 O480 2.297 . S
Cd477 O481 2.439 . S
Cd477 O487 2.240 . S
Cd478 O479 2.240 . S
Cd478 O486 2.223 . S
Cd478 O488 2.297 . S
Cd478 O489 2.439 . S
O479 Cd478 2.240 . S
O479 C484 1.279 . S
O480 Cd477 2.297 . S
O480 C482 1.247 . S
O481 Cd477 2.439 . S
O481 C482 1.208 . S
C482 O480 1.247 . S
C482 O481 1.208 . S
C483 O488 1.247 . S
C483 O489 1.208 . S
C484 O476 1.315 . S
C484 O479 1.279 . S
C485 O486 1.315 . S
C485 O487 1.279 . S
O486 Cd478 2.223 . S
O486 C485 1.315 . S
O487 Cd477 2.240 . S
O487 C485 1.279 . S
O488 Cd478 2.297 . S
O488 C483 1.247 . S
O489 Cd478 2.439 . S
O489 C483 1.208 . S
O490 Cd491 2.223 . S
O490 C498 1.315 . S
Cd491 O490 2.223 . S
Cd491 O494 2.297 . S
Cd491 O495 2.439 . S
Cd491 O501 2.240 . S
Cd492 O493 2.240 . S
Cd492 O500 2.223 . S
Cd492 O502 2.297 . S
Cd492 O503 2.439 . S
O493 Cd492 2.240 . S
O493 C498 1.279 . S
O494 Cd491 2.297 . S
O494 C496 1.247 . S
O495 Cd491 2.439 . S
O495 C496 1.208 . S
C496 O494 1.247 . S
C496 O495 1.208 . S
C497 O502 1.247 . S
C497 O503 1.208 . S
C498 O490 1.315 . S
C498 O493 1.279 . S
C499 O500 1.315 . S
C499 O501 1.279 . S
O500 Cd492 2.223 . S
O500 C499 1.315 . S
O501 Cd491 2.240 . S
O501 C499 1.279 . S
O502 Cd492 2.297 . S
O502 C497 1.247 . S
O503 Cd492 2.439 . S
O503 C497 1.208 . S
O504 Cd505 2.223 . S
O504 C512 1.315 . S
Cd505 O504 2.223 . S
Cd505 O508 2.297 . S
Cd505 O509 2.439 . S
Cd505 O515 2.240 . S
Cd506 O507 2.240 . S
Cd506 O514 2.223 . S
Cd506 O516 2.297 . S
Cd506 O517 2.439 . S
O507 Cd506 2.240 . S
O507 C512 1.279 . S
O508 Cd505 2.297 . S
O508 C510 1.247 . S
O509 Cd505 2.439 . S
O509 C510 1.208 . S
C510 O508 1.247 . S
C510 O509 1.208 . S
C511 O516 1.247 . S
C511 O517 1.208 . S
C512 O504 1.315 . S
C512 O507 1.279 . S
C513 O514 1.315 . S
C513 O515 1.279 . S
O514 Cd506 2.223 . S
O514 C513 1.315 . S
O515 Cd505 2.240 . S
O515 C513 1.279 . S
O516 Cd506 2.297 . S
O516 C511 1.247 . S
O517 Cd506 2.439 . S
O517 C511 1.208 . S
O518 Cd519 2.223 . S
O518 C526 1.315 . S
Cd519 O518 2.223 . S
Cd519 O522 2.297 . S
Cd519 O523 2.439 . S
Cd519 O529 2.240 . S
Cd520 O521 2.240 . S
Cd520 O528 2.223 . S
Cd520 O530 2.297 . S
Cd520 O531 2.439 . S
O521 Cd520 2.240 . S
O521 C526 1.279 . S
O522 Cd519 2.297 . S
O522 C524 1.247 . S
O523 Cd519 2.439 . S
O523 C524 1.208 . S
C524 O522 1.247 . S
C524 O523 1.208 . S
C525 O530 1.247 . S
C525 O531 1.208 . S
C526 O518 1.315 . S
C526 O521 1.279 . S
C527 O528 1.315 . S
C527 O529 1.279 . S
O528 Cd520 2.223 . S
O528 C527 1.315 . S
O529 Cd519 2.240 . S
O529 C527 1.279 . S
O530 Cd520 2.297 . S
O530 C525 1.247 . S
O531 Cd520 2.439 . S
O531 C525 1.208 . S
O532 Cd533 2.223 . S
O532 C540 1.315 . S
Cd533 O532 2.223 . S
Cd533 O536 2.297 . S
Cd533 O537 2.439 . S
Cd533 O543 2.240 . S
Cd534 O535 2.240 . S
Cd534 O542 2.223 . S
Cd534 O544 2.297 . S
Cd534 O545 2.439 . S
O535 Cd534 2.240 . S
O535 C540 1.279 . S
O536 Cd533 2.297 . S
O536 C538 1.247 . S
O537 Cd533 2.439 . S
O537 C538 1.208 . S
C538 O536 1.247 . S
C538 O537 1.208 . S
C539 O544 1.247 . S
C539 O545 1.208 . S
C540 O532 1.315 . S
C540 O535 1.279 . S
C541 O542 1.315 . S
C541 O543 1.279 . S
O542 Cd534 2.223 . S
O542 C541 1.315 . S
O543 Cd533 2.240 . S
O543 C541 1.279 . S
O544 Cd534 2.297 . S
O544 C539 1.247 . S
O545 Cd534 2.439 . S
O545 C539 1.208 . S
O546 Cd547 2.223 . S
O546 C554 1.315 . S
Cd547 O546 2.223 . S
Cd547 O550 2.297 . S
Cd547 O551 2.439 . S
Cd547 O557 2.240 . S
Cd548 O549 2.240 . S
Cd548 O556 2.223 . S
Cd548 O558 2.297 . S
Cd548 O559 2.439 . S
O549 Cd548 2.240 . S
O549 C554 1.279 . S
O550 Cd547 2.297 . S
O550 C552 1.247 . S
O551 Cd547 2.439 . S
O551 C552 1.208 . S
C552 O550 1.247 . S
C552 O551 1.208 . S
C553 O558 1.247 . S
C553 O559 1.208 . S
C554 O546 1.315 . S
C554 O549 1.279 . S
C555 O556 1.315 . S
C555 O557 1.279 . S
O556 Cd548 2.223 . S
O556 C555 1.315 . S
O557 Cd547 2.240 . S
O557 C555 1.279 . S
O558 Cd548 2.297 . S
O558 C553 1.247 . S
O559 Cd548 2.439 . S
O559 C553 1.208 . S
O560 Cd561 2.223 . S
O560 C568 1.315 . S
Cd561 O560 2.223 . S
Cd561 O564 2.297 . S
Cd561 O565 2.439 . S
Cd561 O571 2.240 . S
Cd562 O563 2.240 . S
Cd562 O570 2.223 . S
Cd562 O572 2.297 . S
Cd562 O573 2.439 . S
O563 Cd562 2.240 . S
O563 C568 1.279 . S
O564 Cd561 2.297 . S
O564 C566 1.247 . S
O565 Cd561 2.439 . S
O565 C566 1.208 . S
C566 O564 1.247 . S
C566 O565 1.208 . S
C567 O572 1.247 . S
C567 O573 1.208 . S
C568 O560 1.315 . S
C568 O563 1.279 . S
C569 O570 1.315 . S
C569 O571 1.279 . S
O570 Cd562 2.223 . S
O570 C569 1.315 . S
O571 Cd561 2.240 . S
O571 C569 1.279 . S
O572 Cd562 2.297 . S
O572 C567 1.247 . S
O573 Cd562 2.439 . S
O573 C567 1.208 . S
O574 Cd575 2.223 . S
O574 C582 1.315 . S
Cd575 O574 2.223 . S
Cd575 O578 2.297 . S
Cd575 O579 2.439 . S
Cd575 O585 2.240 . S
Cd576 O577 2.240 . S
Cd576 O584 2.223 . S
Cd576 O586 2.297 . S
Cd576 O587 2.439 . S
O577 Cd576 2.240 . S
O577 C582 1.279 . S
O578 Cd575 2.297 . S
O578 C580 1.247 . S
O579 Cd575 2.439 . S
O579 C580 1.208 . S
C580 O578 1.247 . S
C580 O579 1.208 . S
C581 O586 1.247 . S
C581 O587 1.208 . S
C582 O574 1.315 . S
C582 O577 1.279 . S
C583 O584 1.315 . S
C583 O585 1.279 . S
O584 Cd576 2.223 . S
O584 C583 1.315 . S
O585 Cd575 2.240 . S
O585 C583 1.279 . S
O586 Cd576 2.297 . S
O586 C581 1.247 . S
O587 Cd576 2.439 . S
O587 C581 1.208 . S
O588 Cd589 2.223 . S
O588 C596 1.315 . S
Cd589 O588 2.223 . S
Cd589 O592 2.297 . S
Cd589 O593 2.439 . S
Cd589 O599 2.240 . S
Cd590 O591 2.240 . S
Cd590 O598 2.223 . S
Cd590 O600 2.297 . S
Cd590 O601 2.439 . S
O591 Cd590 2.240 . S
O591 C596 1.279 . S
O592 Cd589 2.297 . S
O592 C594 1.247 . S
O593 Cd589 2.439 . S
O593 C594 1.208 . S
C594 O592 1.247 . S
C594 O593 1.208 . S
C595 O600 1.247 . S
C595 O601 1.208 . S
C596 O588 1.315 . S
C596 O591 1.279 . S
C597 O598 1.315 . S
C597 O599 1.279 . S
O598 Cd590 2.223 . S
O598 C597 1.315 . S
O599 Cd589 2.240 . S
O599 C597 1.279 . S
O600 Cd590 2.297 . S
O600 C595 1.247 . S
O601 Cd590 2.439 . S
O601 C595 1.208 . S
O602 Cd603 2.223 . S
O602 C610 1.315 . S
Cd603 O602 2.223 . S
Cd603 O606 2.297 . S
Cd603 O607 2.439 . S
Cd603 O613 2.240 . S
Cd604 O605 2.240 . S
Cd604 O612 2.223 . S
Cd604 O614 2.297 . S
Cd604 O615 2.439 . S
O605 Cd604 2.240 . S
O605 C610 1.279 . S
O606 Cd603 2.297 . S
O606 C608 1.247 . S
O607 Cd603 2.439 . S
O607 C608 1.208 . S
C608 O606 1.247 . S
C608 O607 1.208 . S
C609 O614 1.247 . S
C609 O615 1.208 . S
C610 O602 1.315 . S
C610 O605 1.279 . S
C611 O612 1.315 . S
C611 O613 1.279 . S
O612 Cd604 2.223 . S
O612 C611 1.315 . S
O613 Cd603 2.240 . S
O613 C611 1.279 . S
O614 Cd604 2.297 . S
O614 C609 1.247 . S
O615 Cd604 2.439 . S
O615 C609 1.208 . S
O616 Cd617 2.223 . S
O616 C624 1.315 . S
Cd617 O616 2.223 . S
Cd617 O620 2.297 . S
Cd617 O621 2.439 . S
Cd617 O627 2.240 . S
Cd618 O619 2.240 . S
Cd618 O626 2.223 . S
Cd618 O628 2.297 . S
Cd618 O629 2.439 . S
O619 Cd618 2.240 . S
O619 C624 1.279 . S
O620 Cd617 2.297 . S
O620 C622 1.247 . S
O621 Cd617 2.439 . S
O621 C622 1.208 . S
C622 O620 1.247 . S
C622 O621 1.208 . S
C623 O628 1.247 . S
C623 O629 1.208 . S
C624 O616 1.315 . S
C624 O619 1.279 . S
C625 O626 1.315 . S
C625 O627 1.279 . S
O626 Cd618 2.223 . S
O626 C625 1.315 . S
O627 Cd617 2.240 . S
O627 C625 1.279 . S
O628 Cd618 2.297 . S
O628 C623 1.247 . S
O629 Cd618 2.439 . S
O629 C623 1.208 . S
O630 Cd631 2.223 . S
O630 C638 1.315 . S
Cd631 O630 2.223 . S
Cd631 O634 2.297 . S
Cd631 O635 2.439 . S
Cd631 O641 2.240 . S
Cd632 O633 2.240 . S
Cd632 O640 2.223 . S
Cd632 O642 2.297 . S
Cd632 O643 2.439 . S
O633 Cd632 2.240 . S
O633 C638 1.279 . S
O634 Cd631 2.297 . S
O634 C636 1.247 . S
O635 Cd631 2.439 . S
O635 C636 1.208 . S
C636 O634 1.247 . S
C636 O635 1.208 . S
C637 O642 1.247 . S
C637 O643 1.208 . S
C638 O630 1.315 . S
C638 O633 1.279 . S
C639 O640 1.315 . S
C639 O641 1.279 . S
O640 Cd632 2.223 . S
O640 C639 1.315 . S
O641 Cd631 2.240 . S
O641 C639 1.279 . S
O642 Cd632 2.297 . S
O642 C637 1.247 . S
O643 Cd632 2.439 . S
O643 C637 1.208 . S
O644 Cd645 2.223 . S
O644 C652 1.315 . S
Cd645 O644 2.223 . S
Cd645 O648 2.297 . S
Cd645 O649 2.439 . S
Cd645 O655 2.240 . S
Cd646 O647 2.240 . S
Cd646 O654 2.223 . S
Cd646 O656 2.297 . S
Cd646 O657 2.439 . S
O647 Cd646 2.240 . S
O647 C652 1.279 . S
O648 Cd645 2.297 . S
O648 C650 1.247 . S
O649 Cd645 2.439 . S
O649 C650 1.208 . S
C650 O648 1.247 . S
C650 O649 1.208 . S
C651 O656 1.247 . S
C651 O657 1.208 . S
C652 O644 1.315 . S
C652 O647 1.279 . S
C653 O654 1.315 . S
C653 O655 1.279 . S
O654 Cd646 2.223 . S
O654 C653 1.315 . S
O655 Cd645 2.240 . S
O655 C653 1.279 . S
O656 Cd646 2.297 . S
O656 C651 1.247 . S
O657 Cd646 2.439 . S
O657 C651 1.208 . S
O658 Cd659 2.223 . S
O658 C666 1.315 . S
Cd659 O658 2.223 . S
Cd659 O662 2.297 . S
Cd659 O663 2.439 . S
Cd659 O669 2.240 . S
Cd660 O661 2.240 . S
Cd660 O668 2.223 . S
Cd660 O670 2.297 . S
Cd660 O671 2.439 . S
O661 Cd660 2.240 . S
O661 C666 1.279 . S
O662 Cd659 2.297 . S
O662 C664 1.247 . S
O663 Cd659 2.439 . S
O663 C664 1.208 . S
C664 O662 1.247 . S
C664 O663 1.208 . S
C665 O670 1.247 . S
C665 O671 1.208 . S
C666 O658 1.315 . S
C666 O661 1.279 . S
C667 O668 1.315 . S
C667 O669 1.279 . S
O668 Cd660 2.223 . S
O668 C667 1.315 . S
O669 Cd659 2.240 . S
O669 C667 1.279 . S
O670 Cd660 2.297 . S
O670 C665 1.247 . S
O671 Cd660 2.439 . S
O671 C665 1.208 . S
C672 C673 1.349 . S
C672 C674 1.327 . S
C672 H697 0.950 . S
C673 C672 1.349 . S
C673 C689 1.349 . S
C674 C672 1.327 . S
C674 C693 1.429 . S
C674 H698 0.950 . S
C675 C692 1.574 1_655 S
C675 C694 1.368 . S
C675 H699 0.949 . S
H676 C680 0.949 . S
C677 C678 1.349 . S
C677 C679 1.327 . S
C677 H700 0.950 . S
C678 C677 1.349 . S
C678 C690 1.349 . S
C679 C677 1.327 . S
C679 C695 1.429 . S
C679 H701 0.950 . S
C680 H676 0.949 . S
C680 C688 1.574 1_455 S
C680 C696 1.368 . S
H681 C689 0.950 . S
H682 C687 0.950 . S
H683 C688 0.949 . S
H684 C690 0.950 . S
H685 C691 0.950 . S
H686 C692 0.949 . S
C687 H682 0.950 . S
C687 C689 1.327 . S
C687 C693 1.429 . S
C688 C680 1.574 1_655 S
C688 H683 0.949 . S
C688 C694 1.368 . S
C689 C673 1.349 . S
C689 H681 0.950 . S
C689 C687 1.327 . S
C690 C678 1.349 . S
C690 H684 0.950 . S
C690 C691 1.327 . S
C691 H685 0.950 . S
C691 C690 1.327 . S
C691 C695 1.429 . S
C692 C675 1.574 1_455 S
C692 H686 0.949 . S
C692 C696 1.368 . S
C693 C674 1.429 . S
C693 C687 1.429 . S
C693 C694 1.523 . S
C694 C675 1.368 . S
C694 C688 1.368 . S
C694 C693 1.523 . S
C695 C679 1.429 . S
C695 C691 1.429 . S
C695 C696 1.523 . S
C696 C680 1.368 . S
C696 C692 1.368 . S
C696 C695 1.523 . S
H697 C672 0.950 . S
H698 C674 0.950 . S
H699 C675 0.949 . S
H700 C677 0.950 . S
H701 C679 0.950 . S
C702 C703 1.349 . S
C702 C704 1.327 . S
C702 H727 0.950 . S
C703 C702 1.349 . S
C703 C719 1.349 . S
C704 C702 1.327 . S
C704 C723 1.429 . S
C704 H728 0.950 . S
C705 C722 1.581 . S
C705 C724 1.368 . S
C705 H729 0.949 . S
H706 C710 0.949 . S
C707 C708 1.349 . S
C707 C709 1.327 . S
C707 H730 0.950 . S
C708 C707 1.349 . S
C708 C720 1.349 . S
C709 C707 1.327 . S
C709 C725 1.429 . S
C709 H731 0.950 . S
C710 H706 0.949 . S
C710 C718 1.581 . S
C710 C726 1.368 . S
H711 C719 0.950 . S
H712 C717 0.950 . S
H713 C718 0.949 . S
H714 C720 0.950 . S
H715 C721 0.950 . S
H716 C722 0.949 . S
C717 H712 0.950 . S
C717 C719 1.327 . S
C717 C723 1.429 . S
C718 C710 1.581 . S
C718 H713 0.949 . S
C718 C724 1.361 1_545 S
C719 C703 1.349 . S
C719 H711 0.950 . S
C719 C717 1.327 . S
C720 C708 1.349 . S
C720 H714 0.950 . S
C720 C721 1.327 . S
C721 H715 0.950 . S
C721 C720 1.327 . S
C721 C725 1.429 . S
C722 C705 1.581 . S
C722 H716 0.949 . S
C722 C726 1.361 1_565 S
C723 C704 1.429 . S
C723 C717 1.429 . S
C723 C724 1.523 . S
C724 C705 1.368 . S
C724 C718 1.361 1_565 S
C724 C723 1.523 . S
C725 C709 1.429 . S
C725 C721 1.429 . S
C725 C726 1.523 . S
C726 C710 1.368 . S
C726 C722 1.361 1_545 S
C726 C725 1.523 . S
H727 C702 0.950 . S
H728 C704 0.950 . S
H729 C705 0.949 . S
H730 C707 0.950 . S
H731 C709 0.950 . S
C732 C733 1.349 . S
C732 C734 1.327 . S
C732 H757 0.950 . S
C733 C732 1.349 . S
C733 C749 1.349 . S
C734 C732 1.327 . S
C734 C753 1.429 . S
C734 H758 0.950 . S
C735 C752 1.574 1_455 S
C735 C754 1.368 . S
C735 H759 0.949 . S
H736 C740 0.949 . S
C737 C738 1.349 . S
C737 C739 1.327 . S
C737 H760 0.950 . S
C738 C737 1.349 . S
C738 C750 1.349 . S
C739 C737 1.327 . S
C739 C755 1.429 . S
C739 H761 0.950 . S
C740 H736 0.949 . S
C740 C748 1.574 1_655 S
C740 C756 1.368 . S
H741 C749 0.950 . S
H742 C747 0.950 . S
H743 C748 0.949 . S
H744 C750 0.950 . S
H745 C751 0.950 . S
H746 C752 0.949 . S
C747 H742 0.950 . S
C747 C749 1.327 . S
C747 C753 1.429 . S
C748 C740 1.574 1_455 S
C748 H743 0.949 . S
C748 C754 1.368 . S
C749 C733 1.349 . S
C749 H741 0.950 . S
C749 C747 1.327 . S
C750 C738 1.349 . S
C750 H744 0.950 . S
C750 C751 1.327 . S
C751 H745 0.950 . S
C751 C750 1.327 . S
C751 C755 1.429 . S
C752 C735 1.574 1_655 S
C752 H746 0.949 . S
C752 C756 1.368 . S
C753 C734 1.429 . S
C753 C747 1.429 . S
C753 C754 1.523 . S
C754 C735 1.368 . S
C754 C748 1.368 . S
C754 C753 1.523 . S
C755 C739 1.429 . S
C755 C751 1.429 . S
C755 C756 1.523 . S
C756 C740 1.368 . S
C756 C752 1.368 . S
C756 C755 1.523 . S
H757 C732 0.950 . S
H758 C734 0.950 . S
H759 C735 0.949 . S
H760 C737 0.950 . S
H761 C739 0.950 . S
C762 C763 1.349 . S
C762 C764 1.327 . S
C762 H787 0.950 . S
C763 C762 1.349 . S
C763 C779 1.349 . S
C764 C762 1.327 . S
C764 C783 1.429 . S
C764 H788 0.950 . S
C765 C782 1.574 1_565 S
C765 C784 1.368 . S
C765 H789 0.949 . S
H766 C770 0.949 . S
C767 C768 1.349 . S
C767 C769 1.327 . S
C767 H790 0.950 . S
C768 C767 1.349 . S
C768 C780 1.349 . S
C769 C767 1.327 . S
C769 C785 1.429 . S
C769 H791 0.950 . S
C770 H766 0.949 . S
C770 C778 1.574 1_545 S
C770 C786 1.368 . S
H771 C779 0.950 . S
H772 C777 0.950 . S
H773 C778 0.949 . S
H774 C780 0.950 . S
H775 C781 0.950 . S
H776 C782 0.949 . S
C777 H772 0.950 . S
C777 C779 1.327 . S
C777 C783 1.429 . S
C778 C770 1.574 1_565 S
C778 H773 0.949 . S
C778 C784 1.368 . S
C779 C763 1.349 . S
C779 H771 0.950 . S
C779 C777 1.327 . S
C780 C768 1.349 . S
C780 H774 0.950 . S
C780 C781 1.327 . S
C781 H775 0.950 . S
C781 C780 1.327 . S
C781 C785 1.429 . S
C782 C765 1.574 1_545 S
C782 H776 0.949 . S
C782 C786 1.368 . S
C783 C764 1.429 . S
C783 C777 1.429 . S
C783 C784 1.523 . S
C784 C765 1.368 . S
C784 C778 1.368 . S
C784 C783 1.523 . S
C785 C769 1.429 . S
C785 C781 1.429 . S
C785 C786 1.523 . S
C786 C770 1.368 . S
C786 C782 1.368 . S
C786 C785 1.523 . S
H787 C762 0.950 . S
H788 C764 0.950 . S
H789 C765 0.949 . S
H790 C767 0.950 . S
H791 C769 0.950 . S
C792 C793 1.349 . S
C792 C794 1.327 . S
C792 H817 0.950 . S
C793 C792 1.349 . S
C793 C809 1.349 . S
C794 C792 1.327 . S
C794 C813 1.429 . S
C794 H818 0.950 . S
C795 C812 1.574 1_655 S
C795 C814 1.368 . S
C795 H819 0.949 . S
H796 C800 0.949 . S
C797 C798 1.349 . S
C797 C799 1.327 . S
C797 H820 0.950 . S
C798 C797 1.349 . S
C798 C810 1.349 . S
C799 C797 1.327 . S
C799 C815 1.429 . S
C799 H821 0.950 . S
C800 H796 0.949 . S
C800 C808 1.574 1_455 S
C800 C816 1.368 . S
H801 C809 0.950 . S
H802 C807 0.950 . S
H803 C808 0.949 . S
H804 C810 0.950 . S
H805 C811 0.950 . S
H806 C812 0.949 . S
C807 H802 0.950 . S
C807 C809 1.327 . S
C807 C813 1.429 . S
C808 C800 1.574 1_655 S
C808 H803 0.949 . S
C808 C814 1.368 . S
C809 C793 1.349 . S
C809 H801 0.950 . S
C809 C807 1.327 . S
C810 C798 1.349 . S
C810 H804 0.950 . S
C810 C811 1.327 . S
C811 H805 0.950 . S
C811 C810 1.327 . S
C811 C815 1.429 . S
C812 C795 1.574 1_455 S
C812 H806 0.949 . S
C812 C816 1.368 . S
C813 C794 1.429 . S
C813 C807 1.429 . S
C813 C814 1.523 . S
C814 C795 1.368 . S
C814 C808 1.368 . S
C814 C813 1.523 . S
C815 C799 1.429 . S
C815 C811 1.429 . S
C815 C816 1.523 . S
C816 C800 1.368 . S
C816 C812 1.368 . S
C816 C815 1.523 . S
H817 C792 0.950 . S
H818 C794 0.950 . S
H819 C795 0.949 . S
H820 C797 0.950 . S
H821 C799 0.950 . S
C822 C823 1.349 . S
C822 C824 1.327 . S
C822 H847 0.950 . S
C823 C822 1.349 . S
C823 C839 1.349 . S
C824 C822 1.327 . S
C824 C843 1.429 . S
C824 H848 0.950 . S
C825 C842 1.574 1_545 S
C825 C844 1.368 . S
C825 H849 0.949 . S
H826 C830 0.949 . S
C827 C828 1.349 . S
C827 C829 1.327 . S
C827 H850 0.950 . S
C828 C827 1.349 . S
C828 C840 1.349 . S
C829 C827 1.327 . S
C829 C845 1.429 . S
C829 H851 0.950 . S
C830 H826 0.949 . S
C830 C838 1.574 1_565 S
C830 C846 1.368 . S
H831 C839 0.950 . S
H832 C837 0.950 . S
H833 C838 0.949 . S
H834 C840 0.950 . S
H835 C841 0.950 . S
H836 C842 0.949 . S
C837 H832 0.950 . S
C837 C839 1.327 . S
C837 C843 1.429 . S
C838 C830 1.574 1_545 S
C838 H833 0.949 . S
C838 C844 1.368 . S
C839 C823 1.349 . S
C839 H831 0.950 . S
C839 C837 1.327 . S
C840 C828 1.349 . S
C840 H834 0.950 . S
C840 C841 1.327 . S
C841 H835 0.950 . S
C841 C840 1.327 . S
C841 C845 1.429 . S
C842 C825 1.574 1_565 S
C842 H836 0.949 . S
C842 C846 1.368 . S
C843 C824 1.429 . S
C843 C837 1.429 . S
C843 C844 1.523 . S
C844 C825 1.368 . S
C844 C838 1.368 . S
C844 C843 1.523 . S
C845 C829 1.429 . S
C845 C841 1.429 . S
C845 C846 1.523 . S
C846 C830 1.368 . S
C846 C842 1.368 . S
C846 C845 1.523 . S
H847 C822 0.950 . S
H848 C824 0.950 . S
H849 C825 0.949 . S
H850 C827 0.950 . S
H851 C829 0.950 . S
C852 C853 1.349 . S
C852 C854 1.327 . S
C852 H877 0.950 . S
C853 C852 1.349 . S
C853 C869 1.349 . S
C854 C852 1.327 . S
C854 C873 1.429 . S
C854 H878 0.950 . S
C855 C872 1.574 1_455 S
C855 C874 1.368 . S
C855 H879 0.949 . S
H856 C860 0.949 . S
C857 C858 1.349 . S
C857 C859 1.327 . S
C857 H880 0.950 . S
C858 C857 1.349 . S
C858 C870 1.349 . S
C859 C857 1.327 . S
C859 C875 1.429 . S
C859 H881 0.950 . S
C860 H856 0.949 . S
C860 C868 1.574 1_655 S
C860 C876 1.368 . S
H861 C869 0.950 . S
H862 C867 0.950 . S
H863 C868 0.949 . S
H864 C870 0.950 . S
H865 C871 0.950 . S
H866 C872 0.949 . S
C867 H862 0.950 . S
C867 C869 1.327 . S
C867 C873 1.429 . S
C868 C860 1.574 1_455 S
C868 H863 0.949 . S
C868 C874 1.368 . S
C869 C853 1.349 . S
C869 H861 0.950 . S
C869 C867 1.327 . S
C870 C858 1.349 . S
C870 H864 0.950 . S
C870 C871 1.327 . S
C871 H865 0.950 . S
C871 C870 1.327 . S
C871 C875 1.429 . S
C872 C855 1.574 1_655 S
C872 H866 0.949 . S
C872 C876 1.368 . S
C873 C854 1.429 . S
C873 C867 1.429 . S
C873 C874 1.523 . S
C874 C855 1.368 . S
C874 C868 1.368 . S
C874 C873 1.523 . S
C875 C859 1.429 . S
C875 C871 1.429 . S
C875 C876 1.523 . S
C876 C860 1.368 . S
C876 C872 1.368 . S
C876 C875 1.523 . S
H877 C852 0.950 . S
H878 C854 0.950 . S
H879 C855 0.949 . S
H880 C857 0.950 . S
H881 C859 0.950 . S
C882 C883 1.349 . S
C882 C884 1.327 . S
C882 H907 0.950 . S
C883 C882 1.349 . S
C883 C899 1.349 . S
C884 C882 1.327 . S
C884 C903 1.429 . S
C884 H908 0.950 . S
C885 C902 1.574 . S
C885 C904 1.368 . S
C885 H909 0.949 . S
H886 C890 0.949 . S
C887 C888 1.349 . S
C887 C889 1.327 . S
C887 H910 0.950 . S
C888 C887 1.349 . S
C888 C900 1.349 . S
C889 C887 1.327 . S
C889 C905 1.429 . S
C889 H911 0.950 . S
C890 H886 0.949 . S
C890 C898 1.574 . S
C890 C906 1.368 . S
H891 C899 0.950 . S
H892 C897 0.950 . S
H893 C898 0.949 . S
H894 C900 0.950 . S
H895 C901 0.950 . S
H896 C902 0.949 . S
C897 H892 0.950 . S
C897 C899 1.327 . S
C897 C903 1.429 . S
C898 C890 1.574 . S
C898 H893 0.949 . S
C898 C904 1.368 1_565 S
C899 C883 1.349 . S
C899 H891 0.950 . S
C899 C897 1.327 . S
C900 C888 1.349 . S
C900 H894 0.950 . S
C900 C901 1.327 . S
C901 H895 0.950 . S
C901 C900 1.327 . S
C901 C905 1.429 . S
C902 C885 1.574 . S
C902 H896 0.949 . S
C902 C906 1.368 1_545 S
C903 C884 1.429 . S
C903 C897 1.429 . S
C903 C904 1.523 . S
C904 C885 1.368 . S
C904 C898 1.368 1_545 S
C904 C903 1.523 . S
C905 C889 1.429 . S
C905 C901 1.429 . S
C905 C906 1.523 . S
C906 C890 1.368 . S
C906 C902 1.368 1_565 S
C906 C905 1.523 . S
H907 C882 0.950 . S
H908 C884 0.950 . S
H909 C885 0.949 . S
H910 C887 0.950 . S
H911 C889 0.950 . S
C912 C913 1.349 . S
C912 C914 1.327 . S
C912 H937 0.950 . S
C913 C912 1.349 . S
C913 C929 1.349 . S
C914 C912 1.327 . S
C914 C933 1.429 . S
C914 H938 0.950 . S
C915 C932 1.574 1_554 S
C915 C934 1.368 . S
C915 H939 0.949 . S
H916 C920 0.949 . S
C917 C918 1.349 . S
C917 C919 1.327 . S
C917 H940 0.950 . S
C918 C917 1.349 . S
C918 C930 1.349 . S
C919 C917 1.327 . S
C919 C935 1.429 . S
C919 H941 0.950 . S
C920 H916 0.949 . S
C920 C928 1.574 1_556 S
C920 C936 1.368 . S
H921 C929 0.950 . S
H922 C927 0.950 . S
H923 C928 0.949 . S
H924 C930 0.950 . S
H925 C931 0.950 . S
H926 C932 0.949 . S
C927 H922 0.950 . S
C927 C929 1.327 . S
C927 C933 1.429 . S
C928 C920 1.574 1_554 S
C928 H923 0.949 . S
C928 C934 1.368 . S
C929 C913 1.349 . S
C929 H921 0.950 . S
C929 C927 1.327 . S
C930 C918 1.349 . S
C930 H924 0.950 . S
C930 C931 1.327 . S
C931 H925 0.950 . S
C931 C930 1.327 . S
C931 C935 1.429 . S
C932 C915 1.574 1_556 S
C932 H926 0.949 . S
C932 C936 1.368 . S
C933 C914 1.429 . S
C933 C927 1.429 . S
C933 C934 1.523 . S
C934 C915 1.368 . S
C934 C928 1.368 . S
C934 C933 1.523 . S
C935 C919 1.429 . S
C935 C931 1.429 . S
C935 C936 1.523 . S
C936 C920 1.368 . S
C936 C932 1.368 . S
C936 C935 1.523 . S
H937 C912 0.950 . S
H938 C914 0.950 . S
H939 C915 0.949 . S
H940 C917 0.950 . S
H941 C919 0.950 . S
C942 C943 1.349 . S
C942 C944 1.327 . S
C942 H967 0.950 . S
C943 C942 1.349 . S
C943 C959 1.349 . S
C944 C942 1.327 . S
C944 C963 1.429 . S
C944 H968 0.950 . S
C945 C962 1.574 1_556 S
C945 C964 1.368 . S
C945 H969 0.949 . S
H946 C950 0.949 . S
C947 C948 1.349 . S
C947 C949 1.327 . S
C947 H970 0.950 . S
C948 C947 1.349 . S
C948 C960 1.349 . S
C949 C947 1.327 . S
C949 C965 1.429 . S
C949 H971 0.950 . S
C950 H946 0.949 . S
C950 C958 1.574 1_554 S
C950 C966 1.368 . S
H951 C959 0.950 . S
H952 C957 0.950 . S
H953 C958 0.949 . S
H954 C960 0.950 . S
H955 C961 0.950 . S
H956 C962 0.949 . S
C957 H952 0.950 . S
C957 C959 1.327 . S
C957 C963 1.429 . S
C958 C950 1.574 1_556 S
C958 H953 0.949 . S
C958 C964 1.368 . S
C959 C943 1.349 . S
C959 H951 0.950 . S
C959 C957 1.327 . S
C960 C948 1.349 . S
C960 H954 0.950 . S
C960 C961 1.327 . S
C961 H955 0.950 . S
C961 C960 1.327 . S
C961 C965 1.429 . S
C962 C945 1.574 1_554 S
C962 H956 0.949 . S
C962 C966 1.368 . S
C963 C944 1.429 . S
C963 C957 1.429 . S
C963 C964 1.523 . S
C964 C945 1.368 . S
C964 C958 1.368 . S
C964 C963 1.523 . S
C965 C949 1.429 . S
C965 C961 1.429 . S
C965 C966 1.523 . S
C966 C950 1.368 . S
C966 C962 1.368 . S
C966 C965 1.523 . S
H967 C942 0.950 . S
H968 C944 0.950 . S
H969 C945 0.949 . S
H970 C947 0.950 . S
H971 C949 0.950 . S
C972 C973 1.349 . S
C972 C974 1.327 . S
C972 H997 0.950 . S
C973 C972 1.349 . S
C973 C989 1.349 . S
C974 C972 1.327 . S
C974 C993 1.429 . S
C974 H998 0.950 . S
C975 C992 1.574 1_556 S
C975 C994 1.368 . S
C975 H999 0.949 . S
H976 C980 0.949 . S
C977 C978 1.349 . S
C977 C979 1.327 . S
C977 H1000 0.950 . S
C978 C977 1.349 . S
C978 C990 1.349 . S
C979 C977 1.327 . S
C979 C995 1.429 . S
C979 H1001 0.950 . S
C980 H976 0.949 . S
C980 C988 1.574 1_554 S
C980 C996 1.368 . S
H981 C989 0.950 . S
H982 C987 0.950 . S
H983 C988 0.949 . S
H984 C990 0.950 . S
H985 C991 0.950 . S
H986 C992 0.949 . S
C987 H982 0.950 . S
C987 C989 1.327 . S
C987 C993 1.429 . S
C988 C980 1.574 1_556 S
C988 H983 0.949 . S
C988 C994 1.368 . S
C989 C973 1.349 . S
C989 H981 0.950 . S
C989 C987 1.327 . S
C990 C978 1.349 . S
C990 H984 0.950 . S
C990 C991 1.327 . S
C991 H985 0.950 . S
C991 C990 1.327 . S
C991 C995 1.429 . S
C992 C975 1.574 1_554 S
C992 H986 0.949 . S
C992 C996 1.368 . S
C993 C974 1.429 . S
C993 C987 1.429 . S
C993 C994 1.523 . S
C994 C975 1.368 . S
C994 C988 1.368 . S
C994 C993 1.523 . S
C995 C979 1.429 . S
C995 C991 1.429 . S
C995 C996 1.523 . S
C996 C980 1.368 . S
C996 C992 1.368 . S
C996 C995 1.523 . S
H997 C972 0.950 . S
H998 C974 0.950 . S
H999 C975 0.949 . S
H1000 C977 0.950 . S
H1001 C979 0.950 . S
C1002 C1003 1.349 . S
C1002 C1004 1.327 . S
C1002 H1027 0.950 . S
C1003 C1002 1.349 . S
C1003 C1019 1.349 . S
C1004 C1002 1.327 . S
C1004 C1023 1.429 . S
C1004 H1028 0.950 . S
C1005 C1022 1.574 . S
C1005 C1024 1.368 . S
C1005 H1029 0.949 . S
H1006 C1010 0.949 . S
C1007 C1008 1.349 . S
C1007 C1009 1.327 . S
C1007 H1030 0.950 . S
C1008 C1007 1.349 . S
C1008 C1020 1.349 . S
C1009 C1007 1.327 . S
C1009 C1025 1.429 . S
C1009 H1031 0.950 . S
C1010 H1006 0.949 . S
C1010 C1018 1.574 . S
C1010 C1026 1.368 . S
H1011 C1019 0.950 . S
H1012 C1017 0.950 . S
H1013 C1018 0.949 . S
H1014 C1020 0.950 . S
H1015 C1021 0.950 . S
H1016 C1022 0.949 . S
C1017 H1012 0.950 . S
C1017 C1019 1.327 . S
C1017 C1023 1.429 . S
C1018 C1010 1.574 . S
C1018 H1013 0.949 . S
C1018 C1024 1.368 1_554 S
C1019 C1003 1.349 . S
C1019 H1011 0.950 . S
C1019 C1017 1.327 . S
C1020 C1008 1.349 . S
C1020 H1014 0.950 . S
C1020 C1021 1.327 . S
C1021 H1015 0.950 . S
C1021 C1020 1.327 . S
C1021 C1025 1.429 . S
C1022 C1005 1.574 . S
C1022 H1016 0.949 . S
C1022 C1026 1.368 1_556 S
C1023 C1004 1.429 . S
C1023 C1017 1.429 . S
C1023 C1024 1.523 . S
C1024 C1005 1.368 . S
C1024 C1018 1.368 1_556 S
C1024 C1023 1.523 . S
C1025 C1009 1.429 . S
C1025 C1021 1.429 . S
C1025 C1026 1.523 . S
C1026 C1010 1.368 . S
C1026 C1022 1.368 1_554 S
C1026 C1025 1.523 . S
H1027 C1002 0.950 . S
H1028 C1004 0.950 . S
H1029 C1005 0.949 . S
H1030 C1007 0.950 . S
H1031 C1009 0.950 . S
C1032 C1033 1.349 . S
C1032 C1034 1.327 . S
C1032 H1057 0.950 . S
C1033 C1032 1.349 . S
C1033 C1049 1.349 . S
C1034 C1032 1.327 . S
C1034 C1053 1.429 . S
C1034 H1058 0.950 . S
C1035 C1052 1.574 . S
C1035 C1054 1.368 . S
C1035 H1059 0.949 . S
H1036 C1040 0.949 . S
C1037 C1038 1.349 . S
C1037 C1039 1.327 . S
C1037 H1060 0.950 . S
C1038 C1037 1.349 . S
C1038 C1050 1.349 . S
C1039 C1037 1.327 . S
C1039 C1055 1.429 . S
C1039 H1061 0.950 . S
C1040 H1036 0.949 . S
C1040 C1048 1.574 . S
C1040 C1056 1.368 . S
H1041 C1049 0.950 . S
H1042 C1047 0.950 . S
H1043 C1048 0.949 . S
H1044 C1050 0.950 . S
H1045 C1051 0.950 . S
H1046 C1052 0.949 . S
C1047 H1042 0.950 . S
C1047 C1049 1.327 . S
C1047 C1053 1.429 . S
C1048 C1040 1.574 . S
C1048 H1043 0.949 . S
C1048 C1054 1.368 . S
C1049 C1033 1.349 . S
C1049 H1041 0.950 . S
C1049 C1047 1.327 . S
C1050 C1038 1.349 . S
C1050 H1044 0.950 . S
C1050 C1051 1.327 . S
C1051 H1045 0.950 . S
C1051 C1050 1.327 . S
C1051 C1055 1.429 . S
C1052 C1035 1.574 . S
C1052 H1046 0.949 . S
C1052 C1056 1.368 . S
C1053 C1034 1.429 . S
C1053 C1047 1.429 . S
C1053 C1054 1.523 . S
C1054 C1035 1.368 . S
C1054 C1048 1.368 . S
C1054 C1053 1.523 . S
C1055 C1039 1.429 . S
C1055 C1051 1.429 . S
C1055 C1056 1.523 . S
C1056 C1040 1.368 . S
C1056 C1052 1.368 . S
C1056 C1055 1.523 . S
H1057 C1032 0.950 . S
H1058 C1034 0.950 . S
H1059 C1035 0.949 . S
H1060 C1037 0.950 . S
H1061 C1039 0.950 . S
C1062 C1063 1.349 . S
C1062 C1064 1.327 . S
C1062 H1087 0.950 . S
C1063 C1062 1.349 . S
C1063 C1079 1.349 . S
C1064 C1062 1.327 . S
C1064 C1083 1.429 . S
C1064 H1088 0.950 . S
C1065 C1082 1.574 . S
C1065 C1084 1.368 . S
C1065 H1089 0.949 . S
H1066 C1070 0.949 . S
C1067 C1068 1.349 . S
C1067 C1069 1.327 . S
C1067 H1090 0.950 . S
C1068 C1067 1.349 . S
C1068 C1080 1.349 . S
C1069 C1067 1.327 . S
C1069 C1085 1.429 . S
C1069 H1091 0.950 . S
C1070 H1066 0.949 . S
C1070 C1078 1.574 . S
C1070 C1086 1.368 . S
H1071 C1079 0.950 . S
H1072 C1077 0.950 . S
H1073 C1078 0.949 . S
H1074 C1080 0.950 . S
H1075 C1081 0.950 . S
H1076 C1082 0.949 . S
C1077 H1072 0.950 . S
C1077 C1079 1.327 . S
C1077 C1083 1.429 . S
C1078 C1070 1.574 . S
C1078 H1073 0.949 . S
C1078 C1084 1.368 . S
C1079 C1063 1.349 . S
C1079 H1071 0.950 . S
C1079 C1077 1.327 . S
C1080 C1068 1.349 . S
C1080 H1074 0.950 . S
C1080 C1081 1.327 . S
C1081 H1075 0.950 . S
C1081 C1080 1.327 . S
C1081 C1085 1.429 . S
C1082 C1065 1.574 . S
C1082 H1076 0.949 . S
C1082 C1086 1.368 . S
C1083 C1064 1.429 . S
C1083 C1077 1.429 . S
C1083 C1084 1.523 . S
C1084 C1065 1.368 . S
C1084 C1078 1.368 . S
C1084 C1083 1.523 . S
C1085 C1069 1.429 . S
C1085 C1081 1.429 . S
C1085 C1086 1.523 . S
C1086 C1070 1.368 . S
C1086 C1082 1.368 . S
C1086 C1085 1.523 . S
H1087 C1062 0.950 . S
H1088 C1064 0.950 . S
H1089 C1065 0.949 . S
H1090 C1067 0.950 . S
H1091 C1069 0.950 . S
C1092 C1093 1.349 . S
C1092 C1094 1.327 . S
C1092 H1117 0.950 . S
C1093 C1092 1.349 . S
C1093 C1109 1.349 . S
C1094 C1092 1.327 . S
C1094 C1113 1.429 . S
C1094 H1118 0.950 . S
C1095 C1112 1.574 . S
C1095 C1114 1.368 . S
C1095 H1119 0.949 . S
H1096 C1100 0.949 . S
C1097 C1098 1.349 . S
C1097 C1099 1.327 . S
C1097 H1120 0.950 . S
C1098 C1097 1.349 . S
C1098 C1110 1.349 . S
C1099 C1097 1.327 . S
C1099 C1115 1.429 . S
C1099 H1121 0.950 . S
C1100 H1096 0.949 . S
C1100 C1108 1.574 . S
C1100 C1116 1.368 . S
H1101 C1109 0.950 . S
H1102 C1107 0.950 . S
H1103 C1108 0.949 . S
H1104 C1110 0.950 . S
H1105 C1111 0.950 . S
H1106 C1112 0.949 . S
C1107 H1102 0.950 . S
C1107 C1109 1.327 . S
C1107 C1113 1.429 . S
C1108 C1100 1.574 . S
C1108 H1103 0.949 . S
C1108 C1114 1.368 . S
C1109 C1093 1.349 . S
C1109 H1101 0.950 . S
C1109 C1107 1.327 . S
C1110 C1098 1.349 . S
C1110 H1104 0.950 . S
C1110 C1111 1.327 . S
C1111 H1105 0.950 . S
C1111 C1110 1.327 . S
C1111 C1115 1.429 . S
C1112 C1095 1.574 . S
C1112 H1106 0.949 . S
C1112 C1116 1.368 . S
C1113 C1094 1.429 . S
C1113 C1107 1.429 . S
C1113 C1114 1.523 . S
C1114 C1095 1.368 . S
C1114 C1108 1.368 . S
C1114 C1113 1.523 . S
C1115 C1099 1.429 . S
C1115 C1111 1.429 . S
C1115 C1116 1.523 . S
C1116 C1100 1.368 . S
C1116 C1112 1.368 . S
C1116 C1115 1.523 . S
H1117 C1092 0.950 . S
H1118 C1094 0.950 . S
H1119 C1095 0.949 . S
H1120 C1097 0.950 . S
H1121 C1099 0.950 . S
C1122 C1123 1.349 . S
C1122 C1124 1.327 . S
C1122 H1147 0.950 . S
C1123 C1122 1.349 . S
C1123 C1139 1.349 . S
C1124 C1122 1.327 . S
C1124 C1143 1.429 . S
C1124 H1148 0.950 . S
C1125 C1142 1.574 . S
C1125 C1144 1.368 . S
C1125 H1149 0.949 . S
H1126 C1130 0.949 . S
C1127 C1128 1.349 . S
C1127 C1129 1.327 . S
C1127 H1150 0.950 . S
C1128 C1127 1.349 . S
C1128 C1140 1.349 . S
C1129 C1127 1.327 . S
C1129 C1145 1.429 . S
C1129 H1151 0.950 . S
C1130 H1126 0.949 . S
C1130 C1138 1.574 . S
C1130 C1146 1.368 . S
H1131 C1139 0.950 . S
H1132 C1137 0.950 . S
H1133 C1138 0.949 . S
H1134 C1140 0.950 . S
H1135 C1141 0.950 . S
H1136 C1142 0.949 . S
C1137 H1132 0.950 . S
C1137 C1139 1.327 . S
C1137 C1143 1.429 . S
C1138 C1130 1.574 . S
C1138 H1133 0.949 . S
C1138 C1144 1.368 . S
C1139 C1123 1.349 . S
C1139 H1131 0.950 . S
C1139 C1137 1.327 . S
C1140 C1128 1.349 . S
C1140 H1134 0.950 . S
C1140 C1141 1.327 . S
C1141 H1135 0.950 . S
C1141 C1140 1.327 . S
C1141 C1145 1.429 . S
C1142 C1125 1.574 . S
C1142 H1136 0.949 . S
C1142 C1146 1.368 . S
C1143 C1124 1.429 . S
C1143 C1137 1.429 . S
C1143 C1144 1.523 . S
C1144 C1125 1.368 . S
C1144 C1138 1.368 . S
C1144 C1143 1.523 . S
C1145 C1129 1.429 . S
C1145 C1141 1.429 . S
C1145 C1146 1.523 . S
C1146 C1130 1.368 . S
C1146 C1142 1.368 . S
C1146 C1145 1.523 . S
H1147 C1122 0.950 . S
H1148 C1124 0.950 . S
H1149 C1125 0.949 . S
H1150 C1127 0.950 . S
H1151 C1129 0.950 . S
C1152 C1153 1.349 . S
C1152 C1154 1.327 . S
C1152 H1177 0.950 . S
C1153 C1152 1.349 . S
C1153 C1169 1.349 . S
C1154 C1152 1.327 . S
C1154 C1173 1.429 . S
C1154 H1178 0.950 . S
C1155 C1172 1.574 . S
C1155 C1174 1.368 . S
C1155 H1179 0.949 . S
H1156 C1160 0.949 . S
C1157 C1158 1.349 . S
C1157 C1159 1.327 . S
C1157 H1180 0.950 . S
C1158 C1157 1.349 . S
C1158 C1170 1.349 . S
C1159 C1157 1.327 . S
C1159 C1175 1.429 . S
C1159 H1181 0.950 . S
C1160 H1156 0.949 . S
C1160 C1168 1.574 . S
C1160 C1176 1.368 . S
H1161 C1169 0.950 . S
H1162 C1167 0.950 . S
H1163 C1168 0.949 . S
H1164 C1170 0.950 . S
H1165 C1171 0.950 . S
H1166 C1172 0.949 . S
C1167 H1162 0.950 . S
C1167 C1169 1.327 . S
C1167 C1173 1.429 . S
C1168 C1160 1.574 . S
C1168 H1163 0.949 . S
C1168 C1174 1.368 . S
C1169 C1153 1.349 . S
C1169 H1161 0.950 . S
C1169 C1167 1.327 . S
C1170 C1158 1.349 . S
C1170 H1164 0.950 . S
C1170 C1171 1.327 . S
C1171 H1165 0.950 . S
C1171 C1170 1.327 . S
C1171 C1175 1.429 . S
C1172 C1155 1.574 . S
C1172 H1166 0.949 . S
C1172 C1176 1.368 . S
C1173 C1154 1.429 . S
C1173 C1167 1.429 . S
C1173 C1174 1.523 . S
C1174 C1155 1.368 . S
C1174 C1168 1.368 . S
C1174 C1173 1.523 . S
C1175 C1159 1.429 . S
C1175 C1171 1.429 . S
C1175 C1176 1.523 . S
C1176 C1160 1.368 . S
C1176 C1172 1.368 . S
C1176 C1175 1.523 . S
H1177 C1152 0.950 . S
H1178 C1154 0.950 . S
H1179 C1155 0.949 . S
H1180 C1157 0.950 . S
H1181 C1159 0.950 . S
C1182 C1183 1.349 . S
C1182 C1184 1.327 . S
C1182 H1207 0.950 . S
C1183 C1182 1.349 . S
C1183 C1199 1.349 . S
C1184 C1182 1.327 . S
C1184 C1203 1.429 . S
C1184 H1208 0.950 . S
C1185 C1202 1.574 . S
C1185 C1204 1.368 . S
C1185 H1209 0.949 . S
H1186 C1190 0.949 . S
C1187 C1188 1.349 . S
C1187 C1189 1.327 . S
C1187 H1210 0.950 . S
C1188 C1187 1.349 . S
C1188 C1200 1.349 . S
C1189 C1187 1.327 . S
C1189 C1205 1.429 . S
C1189 H1211 0.950 . S
C1190 H1186 0.949 . S
C1190 C1198 1.574 . S
C1190 C1206 1.368 . S
H1191 C1199 0.950 . S
H1192 C1197 0.950 . S
H1193 C1198 0.949 . S
H1194 C1200 0.950 . S
H1195 C1201 0.950 . S
H1196 C1202 0.949 . S
C1197 H1192 0.950 . S
C1197 C1199 1.327 . S
C1197 C1203 1.429 . S
C1198 C1190 1.574 . S
C1198 H1193 0.949 . S
C1198 C1204 1.368 . S
C1199 C1183 1.349 . S
C1199 H1191 0.950 . S
C1199 C1197 1.327 . S
C1200 C1188 1.349 . S
C1200 H1194 0.950 . S
C1200 C1201 1.327 . S
C1201 H1195 0.950 . S
C1201 C1200 1.327 . S
C1201 C1205 1.429 . S
C1202 C1185 1.574 . S
C1202 H1196 0.949 . S
C1202 C1206 1.368 . S
C1203 C1184 1.429 . S
C1203 C1197 1.429 . S
C1203 C1204 1.523 . S
C1204 C1185 1.368 . S
C1204 C1198 1.368 . S
C1204 C1203 1.523 . S
C1205 C1189 1.429 . S
C1205 C1201 1.429 . S
C1205 C1206 1.523 . S
C1206 C1190 1.368 . S
C1206 C1202 1.368 . S
C1206 C1205 1.523 . S
H1207 C1182 0.950 . S
H1208 C1184 0.950 . S
H1209 C1185 0.949 . S
H1210 C1187 0.950 . S
H1211 C1189 0.950 . S
C1212 C1213 1.349 . S
C1212 C1214 1.327 . S
C1212 H1237 0.950 . S
C1213 C1212 1.349 . S
C1213 C1229 1.349 . S
C1214 C1212 1.327 . S
C1214 C1233 1.429 . S
C1214 H1238 0.950 . S
C1215 C1232 1.574 . S
C1215 C1234 1.368 . S
C1215 H1239 0.949 . S
H1216 C1220 0.949 . S
C1217 C1218 1.349 . S
C1217 C1219 1.327 . S
C1217 H1240 0.950 . S
C1218 C1217 1.349 . S
C1218 C1230 1.349 . S
C1219 C1217 1.327 . S
C1219 C1235 1.429 . S
C1219 H1241 0.950 . S
C1220 H1216 0.949 . S
C1220 C1228 1.574 . S
C1220 C1236 1.368 . S
H1221 C1229 0.950 . S
H1222 C1227 0.950 . S
H1223 C1228 0.949 . S
H1224 C1230 0.950 . S
H1225 C1231 0.950 . S
H1226 C1232 0.949 . S
C1227 H1222 0.950 . S
C1227 C1229 1.327 . S
C1227 C1233 1.429 . S
C1228 C1220 1.574 . S
C1228 H1223 0.949 . S
C1228 C1234 1.368 . S
C1229 C1213 1.349 . S
C1229 H1221 0.950 . S
C1229 C1227 1.327 . S
C1230 C1218 1.349 . S
C1230 H1224 0.950 . S
C1230 C1231 1.327 . S
C1231 H1225 0.950 . S
C1231 C1230 1.327 . S
C1231 C1235 1.429 . S
C1232 C1215 1.574 . S
C1232 H1226 0.949 . S
C1232 C1236 1.368 . S
C1233 C1214 1.429 . S
C1233 C1227 1.429 . S
C1233 C1234 1.523 . S
C1234 C1215 1.368 . S
C1234 C1228 1.368 . S
C1234 C1233 1.523 . S
C1235 C1219 1.429 . S
C1235 C1231 1.429 . S
C1235 C1236 1.523 . S
C1236 C1220 1.368 . S
C1236 C1232 1.368 . S
C1236 C1235 1.523 . S
H1237 C1212 0.950 . S
H1238 C1214 0.950 . S
H1239 C1215 0.949 . S
H1240 C1217 0.950 . S
H1241 C1219 0.950 . S
C1242 C1243 1.349 . S
C1242 C1244 1.327 . S
C1242 H1267 0.950 . S
C1243 C1242 1.349 . S
C1243 C1259 1.349 . S
C1244 C1242 1.327 . S
C1244 C1263 1.429 . S
C1244 H1268 0.950 . S
C1245 C1262 1.574 . S
C1245 C1264 1.368 . S
C1245 H1269 0.949 . S
H1246 C1250 0.949 . S
C1247 C1248 1.349 . S
C1247 C1249 1.327 . S
C1247 H1270 0.950 . S
C1248 C1247 1.349 . S
C1248 C1260 1.349 . S
C1249 C1247 1.327 . S
C1249 C1265 1.429 . S
C1249 H1271 0.950 . S
C1250 H1246 0.949 . S
C1250 C1258 1.574 . S
C1250 C1266 1.368 . S
H1251 C1259 0.950 . S
H1252 C1257 0.950 . S
H1253 C1258 0.949 . S
H1254 C1260 0.950 . S
H1255 C1261 0.950 . S
H1256 C1262 0.949 . S
C1257 H1252 0.950 . S
C1257 C1259 1.327 . S
C1257 C1263 1.429 . S
C1258 C1250 1.574 . S
C1258 H1253 0.949 . S
C1258 C1264 1.368 . S
C1259 C1243 1.349 . S
C1259 H1251 0.950 . S
C1259 C1257 1.327 . S
C1260 C1248 1.349 . S
C1260 H1254 0.950 . S
C1260 C1261 1.327 . S
C1261 H1255 0.950 . S
C1261 C1260 1.327 . S
C1261 C1265 1.429 . S
C1262 C1245 1.574 . S
C1262 H1256 0.949 . S
C1262 C1266 1.368 . S
C1263 C1244 1.429 . S
C1263 C1257 1.429 . S
C1263 C1264 1.523 . S
C1264 C1245 1.368 . S
C1264 C1258 1.368 . S
C1264 C1263 1.523 . S
C1265 C1249 1.429 . S
C1265 C1261 1.429 . S
C1265 C1266 1.523 . S
C1266 C1250 1.368 . S
C1266 C1262 1.368 . S
C1266 C1265 1.523 . S
H1267 C1242 0.950 . S
H1268 C1244 0.950 . S
H1269 C1245 0.949 . S
H1270 C1247 0.950 . S
H1271 C1249 0.950 . S
C1272 C1273 1.349 . S
C1272 C1274 1.327 . S
C1272 H1297 0.950 . S
C1273 C1272 1.349 . S
C1273 C1289 1.349 . S
C1274 C1272 1.327 . S
C1274 C1293 1.429 . S
C1274 H1298 0.950 . S
C1275 C1292 1.574 . S
C1275 C1294 1.368 . S
C1275 H1299 0.949 . S
H1276 C1280 0.949 . S
C1277 C1278 1.349 . S
C1277 C1279 1.327 . S
C1277 H1300 0.950 . S
C1278 C1277 1.349 . S
C1278 C1290 1.349 . S
C1279 C1277 1.327 . S
C1279 C1295 1.429 . S
C1279 H1301 0.950 . S
C1280 H1276 0.949 . S
C1280 C1288 1.574 . S
C1280 C1296 1.368 . S
H1281 C1289 0.950 . S
H1282 C1287 0.950 . S
H1283 C1288 0.949 . S
H1284 C1290 0.950 . S
H1285 C1291 0.950 . S
H1286 C1292 0.949 . S
C1287 H1282 0.950 . S
C1287 C1289 1.327 . S
C1287 C1293 1.429 . S
C1288 C1280 1.574 . S
C1288 H1283 0.949 . S
C1288 C1294 1.368 . S
C1289 C1273 1.349 . S
C1289 H1281 0.950 . S
C1289 C1287 1.327 . S
C1290 C1278 1.349 . S
C1290 H1284 0.950 . S
C1290 C1291 1.327 . S
C1291 H1285 0.950 . S
C1291 C1290 1.327 . S
C1291 C1295 1.429 . S
C1292 C1275 1.574 . S
C1292 H1286 0.949 . S
C1292 C1296 1.368 . S
C1293 C1274 1.429 . S
C1293 C1287 1.429 . S
C1293 C1294 1.523 . S
C1294 C1275 1.368 . S
C1294 C1288 1.368 . S
C1294 C1293 1.523 . S
C1295 C1279 1.429 . S
C1295 C1291 1.429 . S
C1295 C1296 1.523 . S
C1296 C1280 1.368 . S
C1296 C1292 1.368 . S
C1296 C1295 1.523 . S
H1297 C1272 0.950 . S
H1298 C1274 0.950 . S
H1299 C1275 0.949 . S
H1300 C1277 0.950 . S
H1301 C1279 0.950 . S
C1302 C1303 1.349 . S
C1302 C1304 1.327 . S
C1302 H1327 0.950 . S
C1303 C1302 1.349 . S
C1303 C1319 1.349 . S
C1304 C1302 1.327 . S
C1304 C1323 1.429 . S
C1304 H1328 0.950 . S
C1305 C1322 1.574 . S
C1305 C1324 1.368 . S
C1305 H1329 0.949 . S
H1306 C1310 0.949 . S
C1307 C1308 1.349 . S
C1307 C1309 1.327 . S
C1307 H1330 0.950 . S
C1308 C1307 1.349 . S
C1308 C1320 1.349 . S
C1309 C1307 1.327 . S
C1309 C1325 1.429 . S
C1309 H1331 0.950 . S
C1310 H1306 0.949 . S
C1310 C1318 1.574 . S
C1310 C1326 1.368 . S
H1311 C1319 0.950 . S
H1312 C1317 0.950 . S
H1313 C1318 0.949 . S
H1314 C1320 0.950 . S
H1315 C1321 0.950 . S
H1316 C1322 0.949 . S
C1317 H1312 0.950 . S
C1317 C1319 1.327 . S
C1317 C1323 1.429 . S
C1318 C1310 1.574 . S
C1318 H1313 0.949 . S
C1318 C1324 1.368 . S
C1319 C1303 1.349 . S
C1319 H1311 0.950 . S
C1319 C1317 1.327 . S
C1320 C1308 1.349 . S
C1320 H1314 0.950 . S
C1320 C1321 1.327 . S
C1321 H1315 0.950 . S
C1321 C1320 1.327 . S
C1321 C1325 1.429 . S
C1322 C1305 1.574 . S
C1322 H1316 0.949 . S
C1322 C1326 1.368 . S
C1323 C1304 1.429 . S
C1323 C1317 1.429 . S
C1323 C1324 1.523 . S
C1324 C1305 1.368 . S
C1324 C1318 1.368 . S
C1324 C1323 1.523 . S
C1325 C1309 1.429 . S
C1325 C1321 1.429 . S
C1325 C1326 1.523 . S
C1326 C1310 1.368 . S
C1326 C1322 1.368 . S
C1326 C1325 1.523 . S
H1327 C1302 0.950 . S
H1328 C1304 0.950 . S
H1329 C1305 0.949 . S
H1330 C1307 0.950 . S
H1331 C1309 0.950 . S
C1332 C1333 1.349 . S
C1332 C1334 1.327 . S
C1332 H1357 0.950 . S
C1333 C1332 1.349 . S
C1333 C1349 1.349 . S
C1334 C1332 1.327 . S
C1334 C1353 1.429 . S
C1334 H1358 0.950 . S
C1335 C1352 1.574 . S
C1335 C1354 1.368 . S
C1335 H1359 0.949 . S
H1336 C1340 0.949 . S
C1337 C1338 1.349 . S
C1337 C1339 1.327 . S
C1337 H1360 0.950 . S
C1338 C1337 1.349 . S
C1338 C1350 1.349 . S
C1339 C1337 1.327 . S
C1339 C1355 1.429 . S
C1339 H1361 0.950 . S
C1340 H1336 0.949 . S
C1340 C1348 1.574 . S
C1340 C1356 1.368 . S
H1341 C1349 0.950 . S
H1342 C1347 0.950 . S
H1343 C1348 0.949 . S
H1344 C1350 0.950 . S
H1345 C1351 0.950 . S
H1346 C1352 0.949 . S
C1347 H1342 0.950 . S
C1347 C1349 1.327 . S
C1347 C1353 1.429 . S
C1348 C1340 1.574 . S
C1348 H1343 0.949 . S
C1348 C1354 1.368 . S
C1349 C1333 1.349 . S
C1349 H1341 0.950 . S
C1349 C1347 1.327 . S
C1350 C1338 1.349 . S
C1350 H1344 0.950 . S
C1350 C1351 1.327 . S
C1351 H1345 0.950 . S
C1351 C1350 1.327 . S
C1351 C1355 1.429 . S
C1352 C1335 1.574 . S
C1352 H1346 0.949 . S
C1352 C1356 1.368 . S
C1353 C1334 1.429 . S
C1353 C1347 1.429 . S
C1353 C1354 1.523 . S
C1354 C1335 1.368 . S
C1354 C1348 1.368 . S
C1354 C1353 1.523 . S
C1355 C1339 1.429 . S
C1355 C1351 1.429 . S
C1355 C1356 1.523 . S
C1356 C1340 1.368 . S
C1356 C1352 1.368 . S
C1356 C1355 1.523 . S
H1357 C1332 0.950 . S
H1358 C1334 0.950 . S
H1359 C1335 0.949 . S
H1360 C1337 0.950 . S
H1361 C1339 0.950 . S
C1362 C1363 1.349 . S
C1362 C1364 1.327 . S
C1362 H1387 0.950 . S
C1363 C1362 1.349 . S
C1363 C1379 1.349 . S
C1364 C1362 1.327 . S
C1364 C1383 1.429 . S
C1364 H1388 0.950 . S
C1365 C1382 1.574 . S
C1365 C1384 1.368 . S
C1365 H1389 0.949 . S
H1366 C1370 0.949 . S
C1367 C1368 1.349 . S
C1367 C1369 1.327 . S
C1367 H1390 0.950 . S
C1368 C1367 1.349 . S
C1368 C1380 1.349 . S
C1369 C1367 1.327 . S
C1369 C1385 1.429 . S
C1369 H1391 0.950 . S
C1370 H1366 0.949 . S
C1370 C1378 1.574 . S
C1370 C1386 1.368 . S
H1371 C1379 0.950 . S
H1372 C1377 0.950 . S
H1373 C1378 0.949 . S
H1374 C1380 0.950 . S
H1375 C1381 0.950 . S
H1376 C1382 0.949 . S
C1377 H1372 0.950 . S
C1377 C1379 1.327 . S
C1377 C1383 1.429 . S
C1378 C1370 1.574 . S
C1378 H1373 0.949 . S
C1378 C1384 1.368 . S
C1379 C1363 1.349 . S
C1379 H1371 0.950 . S
C1379 C1377 1.327 . S
C1380 C1368 1.349 . S
C1380 H1374 0.950 . S
C1380 C1381 1.327 . S
C1381 H1375 0.950 . S
C1381 C1380 1.327 . S
C1381 C1385 1.429 . S
C1382 C1365 1.574 . S
C1382 H1376 0.949 . S
C1382 C1386 1.368 . S
C1383 C1364 1.429 . S
C1383 C1377 1.429 . S
C1383 C1384 1.523 . S
C1384 C1365 1.368 . S
C1384 C1378 1.368 . S
C1384 C1383 1.523 . S
C1385 C1369 1.429 . S
C1385 C1381 1.429 . S
C1385 C1386 1.523 . S
C1386 C1370 1.368 . S
C1386 C1382 1.368 . S
C1386 C1385 1.523 . S
H1387 C1362 0.950 . S
H1388 C1364 0.950 . S
H1389 C1365 0.949 . S
H1390 C1367 0.950 . S
H1391 C1369 0.950 . S
C1392 C1393 1.349 . S
C1392 C1394 1.327 . S
C1392 H1417 0.950 . S
C1393 C1392 1.349 . S
C1393 C1409 1.349 . S
C1394 C1392 1.327 . S
C1394 C1413 1.429 . S
C1394 H1418 0.950 . S
C1395 C1412 1.574 . S
C1395 C1414 1.368 . S
C1395 H1419 0.949 . S
H1396 C1400 0.949 . S
C1397 C1398 1.349 . S
C1397 C1399 1.327 . S
C1397 H1420 0.950 . S
C1398 C1397 1.349 . S
C1398 C1410 1.349 . S
C1399 C1397 1.327 . S
C1399 C1415 1.429 . S
C1399 H1421 0.950 . S
C1400 H1396 0.949 . S
C1400 C1408 1.574 . S
C1400 C1416 1.368 . S
H1401 C1409 0.950 . S
H1402 C1407 0.950 . S
H1403 C1408 0.949 . S
H1404 C1410 0.950 . S
H1405 C1411 0.950 . S
H1406 C1412 0.949 . S
C1407 H1402 0.950 . S
C1407 C1409 1.327 . S
C1407 C1413 1.429 . S
C1408 C1400 1.574 . S
C1408 H1403 0.949 . S
C1408 C1414 1.368 . S
C1409 C1393 1.349 . S
C1409 H1401 0.950 . S
C1409 C1407 1.327 . S
C1410 C1398 1.349 . S
C1410 H1404 0.950 . S
C1410 C1411 1.327 . S
C1411 H1405 0.950 . S
C1411 C1410 1.327 . S
C1411 C1415 1.429 . S
C1412 C1395 1.574 . S
C1412 H1406 0.949 . S
C1412 C1416 1.368 . S
C1413 C1394 1.429 . S
C1413 C1407 1.429 . S
C1413 C1414 1.523 . S
C1414 C1395 1.368 . S
C1414 C1408 1.368 . S
C1414 C1413 1.523 . S
C1415 C1399 1.429 . S
C1415 C1411 1.429 . S
C1415 C1416 1.523 . S
C1416 C1400 1.368 . S
C1416 C1412 1.368 . S
C1416 C1415 1.523 . S
H1417 C1392 0.950 . S
H1418 C1394 0.950 . S
H1419 C1395 0.949 . S
H1420 C1397 0.950 . S
H1421 C1399 0.950 . S
C1422 C1423 1.349 . S
C1422 C1424 1.327 . S
C1422 H1447 0.950 . S
C1423 C1422 1.349 . S
C1423 C1439 1.349 . S
C1424 C1422 1.327 . S
C1424 C1443 1.429 . S
C1424 H1448 0.950 . S
C1425 C1442 1.574 . S
C1425 C1444 1.368 . S
C1425 H1449 0.949 . S
H1426 C1430 0.949 . S
C1427 C1428 1.349 . S
C1427 C1429 1.327 . S
C1427 H1450 0.950 . S
C1428 C1427 1.349 . S
C1428 C1440 1.349 . S
C1429 C1427 1.327 . S
C1429 C1445 1.429 . S
C1429 H1451 0.950 . S
C1430 H1426 0.949 . S
C1430 C1438 1.574 . S
C1430 C1446 1.368 . S
H1431 C1439 0.950 . S
H1432 C1437 0.950 . S
H1433 C1438 0.949 . S
H1434 C1440 0.950 . S
H1435 C1441 0.950 . S
H1436 C1442 0.949 . S
C1437 H1432 0.950 . S
C1437 C1439 1.327 . S
C1437 C1443 1.429 . S
C1438 C1430 1.574 . S
C1438 H1433 0.949 . S
C1438 C1444 1.368 . S
C1439 C1423 1.349 . S
C1439 H1431 0.950 . S
C1439 C1437 1.327 . S
C1440 C1428 1.349 . S
C1440 H1434 0.950 . S
C1440 C1441 1.327 . S
C1441 H1435 0.950 . S
C1441 C1440 1.327 . S
C1441 C1445 1.429 . S
C1442 C1425 1.574 . S
C1442 H1436 0.949 . S
C1442 C1446 1.368 . S
C1443 C1424 1.429 . S
C1443 C1437 1.429 . S
C1443 C1444 1.523 . S
C1444 C1425 1.368 . S
C1444 C1438 1.368 . S
C1444 C1443 1.523 . S
C1445 C1429 1.429 . S
C1445 C1441 1.429 . S
C1445 C1446 1.523 . S
C1446 C1430 1.368 . S
C1446 C1442 1.368 . S
C1446 C1445 1.523 . S
H1447 C1422 0.950 . S
H1448 C1424 0.950 . S
H1449 C1425 0.949 . S
H1450 C1427 0.950 . S
H1451 C1429 0.950 . S
C1452 C1453 1.349 . S
C1452 C1454 1.327 . S
C1452 H1477 0.950 . S
C1453 C1452 1.349 . S
C1453 C1469 1.349 . S
C1454 C1452 1.327 . S
C1454 C1473 1.429 . S
C1454 H1478 0.950 . S
C1455 C1472 1.574 . S
C1455 C1474 1.368 . S
C1455 H1479 0.949 . S
H1456 C1460 0.949 . S
C1457 C1458 1.349 . S
C1457 C1459 1.327 . S
C1457 H1480 0.950 . S
C1458 C1457 1.349 . S
C1458 C1470 1.349 . S
C1459 C1457 1.327 . S
C1459 C1475 1.429 . S
C1459 H1481 0.950 . S
C1460 H1456 0.949 . S
C1460 C1468 1.574 . S
C1460 C1476 1.368 . S
H1461 C1469 0.950 . S
H1462 C1467 0.950 . S
H1463 C1468 0.949 . S
H1464 C1470 0.950 . S
H1465 C1471 0.950 . S
H1466 C1472 0.949 . S
C1467 H1462 0.950 . S
C1467 C1469 1.327 . S
C1467 C1473 1.429 . S
C1468 C1460 1.574 . S
C1468 H1463 0.949 . S
C1468 C1474 1.368 . S
C1469 C1453 1.349 . S
C1469 H1461 0.950 . S
C1469 C1467 1.327 . S
C1470 C1458 1.349 . S
C1470 H1464 0.950 . S
C1470 C1471 1.327 . S
C1471 H1465 0.950 . S
C1471 C1470 1.327 . S
C1471 C1475 1.429 . S
C1472 C1455 1.574 . S
C1472 H1466 0.949 . S
C1472 C1476 1.368 . S
C1473 C1454 1.429 . S
C1473 C1467 1.429 . S
C1473 C1474 1.523 . S
C1474 C1455 1.368 . S
C1474 C1468 1.368 . S
C1474 C1473 1.523 . S
C1475 C1459 1.429 . S
C1475 C1471 1.429 . S
C1475 C1476 1.523 . S
C1476 C1460 1.368 . S
C1476 C1472 1.368 . S
C1476 C1475 1.523 . S
H1477 C1452 0.950 . S
H1478 C1454 0.950 . S
H1479 C1455 0.949 . S
H1480 C1457 0.950 . S
H1481 C1459 0.950 . S
C1482 C1483 1.349 . S
C1482 C1484 1.327 . S
C1482 H1507 0.950 . S
C1483 C1482 1.349 . S
C1483 C1499 1.349 . S
C1484 C1482 1.327 . S
C1484 C1503 1.429 . S
C1484 H1508 0.950 . S
C1485 C1502 1.574 . S
C1485 C1504 1.368 . S
C1485 H1509 0.949 . S
H1486 C1490 0.949 . S
C1487 C1488 1.349 . S
C1487 C1489 1.327 . S
C1487 H1510 0.950 . S
C1488 C1487 1.349 . S
C1488 C1500 1.349 . S
C1489 C1487 1.327 . S
C1489 C1505 1.429 . S
C1489 H1511 0.950 . S
C1490 H1486 0.949 . S
C1490 C1498 1.574 . S
C1490 C1506 1.368 . S
H1491 C1499 0.950 . S
H1492 C1497 0.950 . S
H1493 C1498 0.949 . S
H1494 C1500 0.950 . S
H1495 C1501 0.950 . S
H1496 C1502 0.949 . S
C1497 H1492 0.950 . S
C1497 C1499 1.327 . S
C1497 C1503 1.429 . S
C1498 C1490 1.574 . S
C1498 H1493 0.949 . S
C1498 C1504 1.368 . S
C1499 C1483 1.349 . S
C1499 H1491 0.950 . S
C1499 C1497 1.327 . S
C1500 C1488 1.349 . S
C1500 H1494 0.950 . S
C1500 C1501 1.327 . S
C1501 H1495 0.950 . S
C1501 C1500 1.327 . S
C1501 C1505 1.429 . S
C1502 C1485 1.574 . S
C1502 H1496 0.949 . S
C1502 C1506 1.368 . S
C1503 C1484 1.429 . S
C1503 C1497 1.429 . S
C1503 C1504 1.523 . S
C1504 C1485 1.368 . S
C1504 C1498 1.368 . S
C1504 C1503 1.523 . S
C1505 C1489 1.429 . S
C1505 C1501 1.429 . S
C1505 C1506 1.523 . S
C1506 C1490 1.368 . S
C1506 C1502 1.368 . S
C1506 C1505 1.523 . S
H1507 C1482 0.950 . S
H1508 C1484 0.950 . S
H1509 C1485 0.949 . S
H1510 C1487 0.950 . S
H1511 C1489 0.950 . S
C1512 C1513 1.349 . S
C1512 C1514 1.327 . S
C1512 H1537 0.950 . S
C1513 C1512 1.349 . S
C1513 C1529 1.349 . S
C1514 C1512 1.327 . S
C1514 C1533 1.429 . S
C1514 H1538 0.950 . S
C1515 C1532 1.574 . S
C1515 C1534 1.368 . S
C1515 H1539 0.949 . S
H1516 C1520 0.949 . S
C1517 C1518 1.349 . S
C1517 C1519 1.327 . S
C1517 H1540 0.950 . S
C1518 C1517 1.349 . S
C1518 C1530 1.349 . S
C1519 C1517 1.327 . S
C1519 C1535 1.429 . S
C1519 H1541 0.950 . S
C1520 H1516 0.949 . S
C1520 C1528 1.574 . S
C1520 C1536 1.368 . S
H1521 C1529 0.950 . S
H1522 C1527 0.950 . S
H1523 C1528 0.949 . S
H1524 C1530 0.950 . S
H1525 C1531 0.950 . S
H1526 C1532 0.949 . S
C1527 H1522 0.950 . S
C1527 C1529 1.327 . S
C1527 C1533 1.429 . S
C1528 C1520 1.574 . S
C1528 H1523 0.949 . S
C1528 C1534 1.368 . S
C1529 C1513 1.349 . S
C1529 H1521 0.950 . S
C1529 C1527 1.327 . S
C1530 C1518 1.349 . S
C1530 H1524 0.950 . S
C1530 C1531 1.327 . S
C1531 H1525 0.950 . S
C1531 C1530 1.327 . S
C1531 C1535 1.429 . S
C1532 C1515 1.574 . S
C1532 H1526 0.949 . S
C1532 C1536 1.368 . S
C1533 C1514 1.429 . S
C1533 C1527 1.429 . S
C1533 C1534 1.523 . S
C1534 C1515 1.368 . S
C1534 C1528 1.368 . S
C1534 C1533 1.523 . S
C1535 C1519 1.429 . S
C1535 C1531 1.429 . S
C1535 C1536 1.523 . S
C1536 C1520 1.368 . S
C1536 C1532 1.368 . S
C1536 C1535 1.523 . S
H1537 C1512 0.950 . S
H1538 C1514 0.950 . S
H1539 C1515 0.949 . S
H1540 C1517 0.950 . S
H1541 C1519 0.950 . S
C1542 C1543 1.349 . S
C1542 C1544 1.327 . S
C1542 H1567 0.950 . S
C1543 C1542 1.349 . S
C1543 C1559 1.349 . S
C1544 C1542 1.327 . S
C1544 C1563 1.429 . S
C1544 H1568 0.950 . S
C1545 C1562 1.574 . S
C1545 C1564 1.368 . S
C1545 H1569 0.949 . S
H1546 C1550 0.949 . S
C1547 C1548 1.349 . S
C1547 C1549 1.327 . S
C1547 H1570 0.950 . S
C1548 C1547 1.349 . S
C1548 C1560 1.349 . S
C1549 C1547 1.327 . S
C1549 C1565 1.429 . S
C1549 H1571 0.950 . S
C1550 H1546 0.949 . S
C1550 C1558 1.574 . S
C1550 C1566 1.368 . S
H1551 C1559 0.950 . S
H1552 C1557 0.950 . S
H1553 C1558 0.949 . S
H1554 C1560 0.950 . S
H1555 C1561 0.950 . S
H1556 C1562 0.949 . S
C1557 H1552 0.950 . S
C1557 C1559 1.327 . S
C1557 C1563 1.429 . S
C1558 C1550 1.574 . S
C1558 H1553 0.949 . S
C1558 C1564 1.368 . S
C1559 C1543 1.349 . S
C1559 H1551 0.950 . S
C1559 C1557 1.327 . S
C1560 C1548 1.349 . S
C1560 H1554 0.950 . S
C1560 C1561 1.327 . S
C1561 H1555 0.950 . S
C1561 C1560 1.327 . S
C1561 C1565 1.429 . S
C1562 C1545 1.574 . S
C1562 H1556 0.949 . S
C1562 C1566 1.368 . S
C1563 C1544 1.429 . S
C1563 C1557 1.429 . S
C1563 C1564 1.523 . S
C1564 C1545 1.368 . S
C1564 C1558 1.368 . S
C1564 C1563 1.523 . S
C1565 C1549 1.429 . S
C1565 C1561 1.429 . S
C1565 C1566 1.523 . S
C1566 C1550 1.368 . S
C1566 C1562 1.368 . S
C1566 C1565 1.523 . S
H1567 C1542 0.950 . S
H1568 C1544 0.950 . S
H1569 C1545 0.949 . S
H1570 C1547 0.950 . S
H1571 C1549 0.950 . S
C1572 C1573 1.349 . S
C1572 C1574 1.327 . S
C1572 H1597 0.950 . S
C1573 C1572 1.349 . S
C1573 C1589 1.349 . S
C1574 C1572 1.327 . S
C1574 C1593 1.429 . S
C1574 H1598 0.950 . S
C1575 C1592 1.574 . S
C1575 C1594 1.368 . S
C1575 H1599 0.949 . S
H1576 C1580 0.949 . S
C1577 C1578 1.349 . S
C1577 C1579 1.327 . S
C1577 H1600 0.950 . S
C1578 C1577 1.349 . S
C1578 C1590 1.349 . S
C1579 C1577 1.327 . S
C1579 C1595 1.429 . S
C1579 H1601 0.950 . S
C1580 H1576 0.949 . S
C1580 C1588 1.574 . S
C1580 C1596 1.368 . S
H1581 C1589 0.950 . S
H1582 C1587 0.950 . S
H1583 C1588 0.949 . S
H1584 C1590 0.950 . S
H1585 C1591 0.950 . S
H1586 C1592 0.949 . S
C1587 H1582 0.950 . S
C1587 C1589 1.327 . S
C1587 C1593 1.429 . S
C1588 C1580 1.574 . S
C1588 H1583 0.949 . S
C1588 C1594 1.368 . S
C1589 C1573 1.349 . S
C1589 H1581 0.950 . S
C1589 C1587 1.327 . S
C1590 C1578 1.349 . S
C1590 H1584 0.950 . S
C1590 C1591 1.327 . S
C1591 H1585 0.950 . S
C1591 C1590 1.327 . S
C1591 C1595 1.429 . S
C1592 C1575 1.574 . S
C1592 H1586 0.949 . S
C1592 C1596 1.368 . S
C1593 C1574 1.429 . S
C1593 C1587 1.429 . S
C1593 C1594 1.523 . S
C1594 C1575 1.368 . S
C1594 C1588 1.368 . S
C1594 C1593 1.523 . S
C1595 C1579 1.429 . S
C1595 C1591 1.429 . S
C1595 C1596 1.523 . S
C1596 C1580 1.368 . S
C1596 C1592 1.368 . S
C1596 C1595 1.523 . S
H1597 C1572 0.950 . S
H1598 C1574 0.950 . S
H1599 C1575 0.949 . S
H1600 C1577 0.950 . S
H1601 C1579 0.950 . S
C1602 C1603 1.349 . S
C1602 C1604 1.327 . S
C1602 H1627 0.950 . S
C1603 C1602 1.349 . S
C1603 C1619 1.349 . S
C1604 C1602 1.327 . S
C1604 C1623 1.429 . S
C1604 H1628 0.950 . S
C1605 C1622 1.574 . S
C1605 C1624 1.368 . S
C1605 H1629 0.949 . S
H1606 C1610 0.949 . S
C1607 C1608 1.349 . S
C1607 C1609 1.327 . S
C1607 H1630 0.950 . S
C1608 C1607 1.349 . S
C1608 C1620 1.349 . S
C1609 C1607 1.327 . S
C1609 C1625 1.429 . S
C1609 H1631 0.950 . S
C1610 H1606 0.949 . S
C1610 C1618 1.574 . S
C1610 C1626 1.368 . S
H1611 C1619 0.950 . S
H1612 C1617 0.950 . S
H1613 C1618 0.949 . S
H1614 C1620 0.950 . S
H1615 C1621 0.950 . S
H1616 C1622 0.949 . S
C1617 H1612 0.950 . S
C1617 C1619 1.327 . S
C1617 C1623 1.429 . S
C1618 C1610 1.574 . S
C1618 H1613 0.949 . S
C1618 C1624 1.368 . S
C1619 C1603 1.349 . S
C1619 H1611 0.950 . S
C1619 C1617 1.327 . S
C1620 C1608 1.349 . S
C1620 H1614 0.950 . S
C1620 C1621 1.327 . S
C1621 H1615 0.950 . S
C1621 C1620 1.327 . S
C1621 C1625 1.429 . S
C1622 C1605 1.574 . S
C1622 H1616 0.949 . S
C1622 C1626 1.368 . S
C1623 C1604 1.429 . S
C1623 C1617 1.429 . S
C1623 C1624 1.523 . S
C1624 C1605 1.368 . S
C1624 C1618 1.368 . S
C1624 C1623 1.523 . S
C1625 C1609 1.429 . S
C1625 C1621 1.429 . S
C1625 C1626 1.523 . S
C1626 C1610 1.368 . S
C1626 C1622 1.368 . S
C1626 C1625 1.523 . S
H1627 C1602 0.950 . S
H1628 C1604 0.950 . S
H1629 C1605 0.949 . S
H1630 C1607 0.950 . S
H1631 C1609 0.950 . S
C1632 C1633 1.349 . S
C1632 C1634 1.327 . S
C1632 H1657 0.950 . S
C1633 C1632 1.349 . S
C1633 C1649 1.349 . S
C1634 C1632 1.327 . S
C1634 C1653 1.429 . S
C1634 H1658 0.950 . S
C1635 C1652 1.574 . S
C1635 C1654 1.368 . S
C1635 H1659 0.949 . S
H1636 C1640 0.949 . S
C1637 C1638 1.349 . S
C1637 C1639 1.327 . S
C1637 H1660 0.950 . S
C1638 C1637 1.349 . S
C1638 C1650 1.349 . S
C1639 C1637 1.327 . S
C1639 C1655 1.429 . S
C1639 H1661 0.950 . S
C1640 H1636 0.949 . S
C1640 C1648 1.574 . S
C1640 C1656 1.368 . S
H1641 C1649 0.950 . S
H1642 C1647 0.950 . S
H1643 C1648 0.949 . S
H1644 C1650 0.950 . S
H1645 C1651 0.950 . S
H1646 C1652 0.949 . S
C1647 H1642 0.950 . S
C1647 C1649 1.327 . S
C1647 C1653 1.429 . S
C1648 C1640 1.574 . S
C1648 H1643 0.949 . S
C1648 C1654 1.368 . S
C1649 C1633 1.349 . S
C1649 H1641 0.950 . S
C1649 C1647 1.327 . S
C1650 C1638 1.349 . S
C1650 H1644 0.950 . S
C1650 C1651 1.327 . S
C1651 H1645 0.950 . S
C1651 C1650 1.327 . S
C1651 C1655 1.429 . S
C1652 C1635 1.574 . S
C1652 H1646 0.949 . S
C1652 C1656 1.368 . S
C1653 C1634 1.429 . S
C1653 C1647 1.429 . S
C1653 C1654 1.523 . S
C1654 C1635 1.368 . S
C1654 C1648 1.368 . S
C1654 C1653 1.523 . S
C1655 C1639 1.429 . S
C1655 C1651 1.429 . S
C1655 C1656 1.523 . S
C1656 C1640 1.368 . S
C1656 C1652 1.368 . S
C1656 C1655 1.523 . S
H1657 C1632 0.950 . S
H1658 C1634 0.950 . S
H1659 C1635 0.949 . S
H1660 C1637 0.950 . S
H1661 C1639 0.950 . S
C1662 C1663 1.349 . S
C1662 C1664 1.327 . S
C1662 H1687 0.950 . S
C1663 C1662 1.349 . S
C1663 C1679 1.349 . S
C1664 C1662 1.327 . S
C1664 C1683 1.429 . S
C1664 H1688 0.950 . S
C1665 C1682 1.574 . S
C1665 C1684 1.368 . S
C1665 H1689 0.949 . S
H1666 C1670 0.949 . S
C1667 C1668 1.349 . S
C1667 C1669 1.327 . S
C1667 H1690 0.950 . S
C1668 C1667 1.349 . S
C1668 C1680 1.349 . S
C1669 C1667 1.327 . S
C1669 C1685 1.429 . S
C1669 H1691 0.950 . S
C1670 H1666 0.949 . S
C1670 C1678 1.574 . S
C1670 C1686 1.368 . S
H1671 C1679 0.950 . S
H1672 C1677 0.950 . S
H1673 C1678 0.949 . S
H1674 C1680 0.950 . S
H1675 C1681 0.950 . S
H1676 C1682 0.949 . S
C1677 H1672 0.950 . S
C1677 C1679 1.327 . S
C1677 C1683 1.429 . S
C1678 C1670 1.574 . S
C1678 H1673 0.949 . S
C1678 C1684 1.368 . S
C1679 C1663 1.349 . S
C1679 H1671 0.950 . S
C1679 C1677 1.327 . S
C1680 C1668 1.349 . S
C1680 H1674 0.950 . S
C1680 C1681 1.327 . S
C1681 H1675 0.950 . S
C1681 C1680 1.327 . S
C1681 C1685 1.429 . S
C1682 C1665 1.574 . S
C1682 H1676 0.949 . S
C1682 C1686 1.368 . S
C1683 C1664 1.429 . S
C1683 C1677 1.429 . S
C1683 C1684 1.523 . S
C1684 C1665 1.368 . S
C1684 C1678 1.368 . S
C1684 C1683 1.523 . S
C1685 C1669 1.429 . S
C1685 C1681 1.429 . S
C1685 C1686 1.523 . S
C1686 C1670 1.368 . S
C1686 C1682 1.368 . S
C1686 C1685 1.523 . S
H1687 C1662 0.950 . S
H1688 C1664 0.950 . S
H1689 C1665 0.949 . S
H1690 C1667 0.950 . S
H1691 C1669 0.950 . S
C1692 C1693 1.349 . S
C1692 C1694 1.327 . S
C1692 H1717 0.950 . S
C1693 C1692 1.349 . S
C1693 C1709 1.349 . S
C1694 C1692 1.327 . S
C1694 C1713 1.429 . S
C1694 H1718 0.950 . S
C1695 C1712 1.574 . S
C1695 C1714 1.368 . S
C1695 H1719 0.949 . S
H1696 C1700 0.949 . S
C1697 C1698 1.349 . S
C1697 C1699 1.327 . S
C1697 H1720 0.950 . S
C1698 C1697 1.349 . S
C1698 C1710 1.349 . S
C1699 C1697 1.327 . S
C1699 C1715 1.429 . S
C1699 H1721 0.950 . S
C1700 H1696 0.949 . S
C1700 C1708 1.574 . S
C1700 C1716 1.368 . S
H1701 C1709 0.950 . S
H1702 C1707 0.950 . S
H1703 C1708 0.949 . S
H1704 C1710 0.950 . S
H1705 C1711 0.950 . S
H1706 C1712 0.949 . S
C1707 H1702 0.950 . S
C1707 C1709 1.327 . S
C1707 C1713 1.429 . S
C1708 C1700 1.574 . S
C1708 H1703 0.949 . S
C1708 C1714 1.368 . S
C1709 C1693 1.349 . S
C1709 H1701 0.950 . S
C1709 C1707 1.327 . S
C1710 C1698 1.349 . S
C1710 H1704 0.950 . S
C1710 C1711 1.327 . S
C1711 H1705 0.950 . S
C1711 C1710 1.327 . S
C1711 C1715 1.429 . S
C1712 C1695 1.574 . S
C1712 H1706 0.949 . S
C1712 C1716 1.368 . S
C1713 C1694 1.429 . S
C1713 C1707 1.429 . S
C1713 C1714 1.523 . S
C1714 C1695 1.368 . S
C1714 C1708 1.368 . S
C1714 C1713 1.523 . S
C1715 C1699 1.429 . S
C1715 C1711 1.429 . S
C1715 C1716 1.523 . S
C1716 C1700 1.368 . S
C1716 C1712 1.368 . S
C1716 C1715 1.523 . S
H1717 C1692 0.950 . S
H1718 C1694 0.950 . S
H1719 C1695 0.949 . S
H1720 C1697 0.950 . S
H1721 C1699 0.950 . S
C1722 C1723 1.349 . S
C1722 C1724 1.327 . S
C1722 H1747 0.950 . S
C1723 C1722 1.349 . S
C1723 C1739 1.349 . S
C1724 C1722 1.327 . S
C1724 C1743 1.429 . S
C1724 H1748 0.950 . S
C1725 C1742 1.574 . S
C1725 C1744 1.368 . S
C1725 H1749 0.949 . S
H1726 C1730 0.949 . S
C1727 C1728 1.349 . S
C1727 C1729 1.327 . S
C1727 H1750 0.950 . S
C1728 C1727 1.349 . S
C1728 C1740 1.349 . S
C1729 C1727 1.327 . S
C1729 C1745 1.429 . S
C1729 H1751 0.950 . S
C1730 H1726 0.949 . S
C1730 C1738 1.574 . S
C1730 C1746 1.368 . S
H1731 C1739 0.950 . S
H1732 C1737 0.950 . S
H1733 C1738 0.949 . S
H1734 C1740 0.950 . S
H1735 C1741 0.950 . S
H1736 C1742 0.949 . S
C1737 H1732 0.950 . S
C1737 C1739 1.327 . S
C1737 C1743 1.429 . S
C1738 C1730 1.574 . S
C1738 H1733 0.949 . S
C1738 C1744 1.368 . S
C1739 C1723 1.349 . S
C1739 H1731 0.950 . S
C1739 C1737 1.327 . S
C1740 C1728 1.349 . S
C1740 H1734 0.950 . S
C1740 C1741 1.327 . S
C1741 H1735 0.950 . S
C1741 C1740 1.327 . S
C1741 C1745 1.429 . S
C1742 C1725 1.574 . S
C1742 H1736 0.949 . S
C1742 C1746 1.368 . S
C1743 C1724 1.429 . S
C1743 C1737 1.429 . S
C1743 C1744 1.523 . S
C1744 C1725 1.368 . S
C1744 C1738 1.368 . S
C1744 C1743 1.523 . S
C1745 C1729 1.429 . S
C1745 C1741 1.429 . S
C1745 C1746 1.523 . S
C1746 C1730 1.368 . S
C1746 C1742 1.368 . S
C1746 C1745 1.523 . S
H1747 C1722 0.950 . S
H1748 C1724 0.950 . S
H1749 C1725 0.949 . S
H1750 C1727 0.950 . S
H1751 C1729 0.950 . S
C1752 C1753 1.349 . S
C1752 C1754 1.327 . S
C1752 H1777 0.950 . S
C1753 C1752 1.349 . S
C1753 C1769 1.349 . S
C1754 C1752 1.327 . S
C1754 C1773 1.429 . S
C1754 H1778 0.950 . S
C1755 C1772 1.574 . S
C1755 C1774 1.368 . S
C1755 H1779 0.949 . S
H1756 C1760 0.949 . S
C1757 C1758 1.349 . S
C1757 C1759 1.327 . S
C1757 H1780 0.950 . S
C1758 C1757 1.349 . S
C1758 C1770 1.349 . S
C1759 C1757 1.327 . S
C1759 C1775 1.429 . S
C1759 H1781 0.950 . S
C1760 H1756 0.949 . S
C1760 C1768 1.574 . S
C1760 C1776 1.368 . S
H1761 C1769 0.950 . S
H1762 C1767 0.950 . S
H1763 C1768 0.949 . S
H1764 C1770 0.950 . S
H1765 C1771 0.950 . S
H1766 C1772 0.949 . S
C1767 H1762 0.950 . S
C1767 C1769 1.327 . S
C1767 C1773 1.429 . S
C1768 C1760 1.574 . S
C1768 H1763 0.949 . S
C1768 C1774 1.368 . S
C1769 C1753 1.349 . S
C1769 H1761 0.950 . S
C1769 C1767 1.327 . S
C1770 C1758 1.349 . S
C1770 H1764 0.950 . S
C1770 C1771 1.327 . S
C1771 H1765 0.950 . S
C1771 C1770 1.327 . S
C1771 C1775 1.429 . S
C1772 C1755 1.574 . S
C1772 H1766 0.949 . S
C1772 C1776 1.368 . S
C1773 C1754 1.429 . S
C1773 C1767 1.429 . S
C1773 C1774 1.523 . S
C1774 C1755 1.368 . S
C1774 C1768 1.368 . S
C1774 C1773 1.523 . S
C1775 C1759 1.429 . S
C1775 C1771 1.429 . S
C1775 C1776 1.523 . S
C1776 C1760 1.368 . S
C1776 C1772 1.368 . S
C1776 C1775 1.523 . S
H1777 C1752 0.950 . S
H1778 C1754 0.950 . S
H1779 C1755 0.949 . S
H1780 C1757 0.950 . S
H1781 C1759 0.950 . S
C1782 C1783 1.349 . S
C1782 C1784 1.327 . S
C1782 H1807 0.950 . S
C1783 C1782 1.349 . S
C1783 C1799 1.349 . S
C1784 C1782 1.327 . S
C1784 C1803 1.429 . S
C1784 H1808 0.950 . S
C1785 C1802 1.574 . S
C1785 C1804 1.368 . S
C1785 H1809 0.949 . S
H1786 C1790 0.949 . S
C1787 C1788 1.349 . S
C1787 C1789 1.327 . S
C1787 H1810 0.950 . S
C1788 C1787 1.349 . S
C1788 C1800 1.349 . S
C1789 C1787 1.327 . S
C1789 C1805 1.429 . S
C1789 H1811 0.950 . S
C1790 H1786 0.949 . S
C1790 C1798 1.574 . S
C1790 C1806 1.368 . S
H1791 C1799 0.950 . S
H1792 C1797 0.950 . S
H1793 C1798 0.949 . S
H1794 C1800 0.950 . S
H1795 C1801 0.950 . S
H1796 C1802 0.949 . S
C1797 H1792 0.950 . S
C1797 C1799 1.327 . S
C1797 C1803 1.429 . S
C1798 C1790 1.574 . S
C1798 H1793 0.949 . S
C1798 C1804 1.368 . S
C1799 C1783 1.349 . S
C1799 H1791 0.950 . S
C1799 C1797 1.327 . S
C1800 C1788 1.349 . S
C1800 H1794 0.950 . S
C1800 C1801 1.327 . S
C1801 H1795 0.950 . S
C1801 C1800 1.327 . S
C1801 C1805 1.429 . S
C1802 C1785 1.574 . S
C1802 H1796 0.949 . S
C1802 C1806 1.368 . S
C1803 C1784 1.429 . S
C1803 C1797 1.429 . S
C1803 C1804 1.523 . S
C1804 C1785 1.368 . S
C1804 C1798 1.368 . S
C1804 C1803 1.523 . S
C1805 C1789 1.429 . S
C1805 C1801 1.429 . S
C1805 C1806 1.523 . S
C1806 C1790 1.368 . S
C1806 C1802 1.368 . S
C1806 C1805 1.523 . S
H1807 C1782 0.950 . S
H1808 C1784 0.950 . S
H1809 C1785 0.949 . S
H1810 C1787 0.950 . S
H1811 C1789 0.950 . S
C1812 C1813 1.349 . S
C1812 C1814 1.327 . S
C1812 H1837 0.950 . S
C1813 C1812 1.349 . S
C1813 C1829 1.349 . S
C1814 C1812 1.327 . S
C1814 C1833 1.429 . S
C1814 H1838 0.950 . S
C1815 C1832 1.574 . S
C1815 C1834 1.368 . S
C1815 H1839 0.949 . S
H1816 C1820 0.949 . S
C1817 C1818 1.349 . S
C1817 C1819 1.327 . S
C1817 H1840 0.950 . S
C1818 C1817 1.349 . S
C1818 C1830 1.349 . S
C1819 C1817 1.327 . S
C1819 C1835 1.429 . S
C1819 H1841 0.950 . S
C1820 H1816 0.949 . S
C1820 C1828 1.574 . S
C1820 C1836 1.368 . S
H1821 C1829 0.950 . S
H1822 C1827 0.950 . S
H1823 C1828 0.949 . S
H1824 C1830 0.950 . S
H1825 C1831 0.950 . S
H1826 C1832 0.949 . S
C1827 H1822 0.950 . S
C1827 C1829 1.327 . S
C1827 C1833 1.429 . S
C1828 C1820 1.574 . S
C1828 H1823 0.949 . S
C1828 C1834 1.368 . S
C1829 C1813 1.349 . S
C1829 H1821 0.950 . S
C1829 C1827 1.327 . S
C1830 C1818 1.349 . S
C1830 H1824 0.950 . S
C1830 C1831 1.327 . S
C1831 H1825 0.950 . S
C1831 C1830 1.327 . S
C1831 C1835 1.429 . S
C1832 C1815 1.574 . S
C1832 H1826 0.949 . S
C1832 C1836 1.368 . S
C1833 C1814 1.429 . S
C1833 C1827 1.429 . S
C1833 C1834 1.523 . S
C1834 C1815 1.368 . S
C1834 C1828 1.368 . S
C1834 C1833 1.523 . S
C1835 C1819 1.429 . S
C1835 C1831 1.429 . S
C1835 C1836 1.523 . S
C1836 C1820 1.368 . S
C1836 C1832 1.368 . S
C1836 C1835 1.523 . S
H1837 C1812 0.950 . S
H1838 C1814 0.950 . S
H1839 C1815 0.949 . S
H1840 C1817 0.950 . S
H1841 C1819 0.950 . S
C1842 C1843 1.349 . S
C1842 C1844 1.327 . S
C1842 H1867 0.950 . S
C1843 C1842 1.349 . S
C1843 C1859 1.349 . S
C1844 C1842 1.327 . S
C1844 C1863 1.429 . S
C1844 H1868 0.950 . S
C1845 C1862 1.574 . S
C1845 C1864 1.368 . S
C1845 H1869 0.949 . S
H1846 C1850 0.949 . S
C1847 C1848 1.349 . S
C1847 C1849 1.327 . S
C1847 H1870 0.950 . S
C1848 C1847 1.349 . S
C1848 C1860 1.349 . S
C1849 C1847 1.327 . S
C1849 C1865 1.429 . S
C1849 H1871 0.950 . S
C1850 H1846 0.949 . S
C1850 C1858 1.574 . S
C1850 C1866 1.368 . S
H1851 C1859 0.950 . S
H1852 C1857 0.950 . S
H1853 C1858 0.949 . S
H1854 C1860 0.950 . S
H1855 C1861 0.950 . S
H1856 C1862 0.949 . S
C1857 H1852 0.950 . S
C1857 C1859 1.327 . S
C1857 C1863 1.429 . S
C1858 C1850 1.574 . S
C1858 H1853 0.949 . S
C1858 C1864 1.368 . S
C1859 C1843 1.349 . S
C1859 H1851 0.950 . S
C1859 C1857 1.327 . S
C1860 C1848 1.349 . S
C1860 H1854 0.950 . S
C1860 C1861 1.327 . S
C1861 H1855 0.950 . S
C1861 C1860 1.327 . S
C1861 C1865 1.429 . S
C1862 C1845 1.574 . S
C1862 H1856 0.949 . S
C1862 C1866 1.368 . S
C1863 C1844 1.429 . S
C1863 C1857 1.429 . S
C1863 C1864 1.523 . S
C1864 C1845 1.368 . S
C1864 C1858 1.368 . S
C1864 C1863 1.523 . S
C1865 C1849 1.429 . S
C1865 C1861 1.429 . S
C1865 C1866 1.523 . S
C1866 C1850 1.368 . S
C1866 C1862 1.368 . S
C1866 C1865 1.523 . S
H1867 C1842 0.950 . S
H1868 C1844 0.950 . S
H1869 C1845 0.949 . S
H1870 C1847 0.950 . S
H1871 C1849 0.950 . S
C1872 C1873 1.349 . S
C1872 C1874 1.327 . S
C1872 H1897 0.950 . S
C1873 C1872 1.349 . S
C1873 C1889 1.349 . S
C1874 C1872 1.327 . S
C1874 C1893 1.429 . S
C1874 H1898 0.950 . S
C1875 C1892 1.574 . S
C1875 C1894 1.368 . S
C1875 H1899 0.949 . S
H1876 C1880 0.949 . S
C1877 C1878 1.349 . S
C1877 C1879 1.327 . S
C1877 H1900 0.950 . S
C1878 C1877 1.349 . S
C1878 C1890 1.349 . S
C1879 C1877 1.327 . S
C1879 C1895 1.429 . S
C1879 H1901 0.950 . S
C1880 H1876 0.949 . S
C1880 C1888 1.574 . S
C1880 C1896 1.368 . S
H1881 C1889 0.950 . S
H1882 C1887 0.950 . S
H1883 C1888 0.949 . S
H1884 C1890 0.950 . S
H1885 C1891 0.950 . S
H1886 C1892 0.949 . S
C1887 H1882 0.950 . S
C1887 C1889 1.327 . S
C1887 C1893 1.429 . S
C1888 C1880 1.574 . S
C1888 H1883 0.949 . S
C1888 C1894 1.368 . S
C1889 C1873 1.349 . S
C1889 H1881 0.950 . S
C1889 C1887 1.327 . S
C1890 C1878 1.349 . S
C1890 H1884 0.950 . S
C1890 C1891 1.327 . S
C1891 H1885 0.950 . S
C1891 C1890 1.327 . S
C1891 C1895 1.429 . S
C1892 C1875 1.574 . S
C1892 H1886 0.949 . S
C1892 C1896 1.368 . S
C1893 C1874 1.429 . S
C1893 C1887 1.429 . S
C1893 C1894 1.523 . S
C1894 C1875 1.368 . S
C1894 C1888 1.368 . S
C1894 C1893 1.523 . S
C1895 C1879 1.429 . S
C1895 C1891 1.429 . S
C1895 C1896 1.523 . S
C1896 C1880 1.368 . S
C1896 C1892 1.368 . S
C1896 C1895 1.523 . S
H1897 C1872 0.950 . S
H1898 C1874 0.950 . S
H1899 C1875 0.949 . S
H1900 C1877 0.950 . S
H1901 C1879 0.950 . S
C1902 C1903 1.349 . S
C1902 C1904 1.327 . S
C1902 H1927 0.950 . S
C1903 C1902 1.349 . S
C1903 C1919 1.349 . S
C1904 C1902 1.327 . S
C1904 C1923 1.429 . S
C1904 H1928 0.950 . S
C1905 C1922 1.574 . S
C1905 C1924 1.368 . S
C1905 H1929 0.949 . S
H1906 C1910 0.949 . S
C1907 C1908 1.349 . S
C1907 C1909 1.327 . S
C1907 H1930 0.950 . S
C1908 C1907 1.349 . S
C1908 C1920 1.349 . S
C1909 C1907 1.327 . S
C1909 C1925 1.429 . S
C1909 H1931 0.950 . S
C1910 H1906 0.949 . S
C1910 C1918 1.574 . S
C1910 C1926 1.368 . S
H1911 C1919 0.950 . S
H1912 C1917 0.950 . S
H1913 C1918 0.949 . S
H1914 C1920 0.950 . S
H1915 C1921 0.950 . S
H1916 C1922 0.949 . S
C1917 H1912 0.950 . S
C1917 C1919 1.327 . S
C1917 C1923 1.429 . S
C1918 C1910 1.574 . S
C1918 H1913 0.949 . S
C1918 C1924 1.368 . S
C1919 C1903 1.349 . S
C1919 H1911 0.950 . S
C1919 C1917 1.327 . S
C1920 C1908 1.349 . S
C1920 H1914 0.950 . S
C1920 C1921 1.327 . S
C1921 H1915 0.950 . S
C1921 C1920 1.327 . S
C1921 C1925 1.429 . S
C1922 C1905 1.574 . S
C1922 H1916 0.949 . S
C1922 C1926 1.368 . S
C1923 C1904 1.429 . S
C1923 C1917 1.429 . S
C1923 C1924 1.523 . S
C1924 C1905 1.368 . S
C1924 C1918 1.368 . S
C1924 C1923 1.523 . S
C1925 C1909 1.429 . S
C1925 C1921 1.429 . S
C1925 C1926 1.523 . S
C1926 C1910 1.368 . S
C1926 C1922 1.368 . S
C1926 C1925 1.523 . S
H1927 C1902 0.950 . S
H1928 C1904 0.950 . S
H1929 C1905 0.949 . S
H1930 C1907 0.950 . S
H1931 C1909 0.950 . S
C1932 C1933 1.349 . S
C1932 C1934 1.327 . S
C1932 H1957 0.950 . S
C1933 C1932 1.349 . S
C1933 C1949 1.349 . S
C1934 C1932 1.327 . S
C1934 C1953 1.429 . S
C1934 H1958 0.950 . S
C1935 C1952 1.574 . S
C1935 C1954 1.368 . S
C1935 H1959 0.949 . S
H1936 C1940 0.949 . S
C1937 C1938 1.349 . S
C1937 C1939 1.327 . S
C1937 H1960 0.950 . S
C1938 C1937 1.349 . S
C1938 C1950 1.349 . S
C1939 C1937 1.327 . S
C1939 C1955 1.429 . S
C1939 H1961 0.950 . S
C1940 H1936 0.949 . S
C1940 C1948 1.574 . S
C1940 C1956 1.368 . S
H1941 C1949 0.950 . S
H1942 C1947 0.950 . S
H1943 C1948 0.949 . S
H1944 C1950 0.950 . S
H1945 C1951 0.950 . S
H1946 C1952 0.949 . S
C1947 H1942 0.950 . S
C1947 C1949 1.327 . S
C1947 C1953 1.429 . S
C1948 C1940 1.574 . S
C1948 H1943 0.949 . S
C1948 C1954 1.368 . S
C1949 C1933 1.349 . S
C1949 H1941 0.950 . S
C1949 C1947 1.327 . S
C1950 C1938 1.349 . S
C1950 H1944 0.950 . S
C1950 C1951 1.327 . S
C1951 H1945 0.950 . S
C1951 C1950 1.327 . S
C1951 C1955 1.429 . S
C1952 C1935 1.574 . S
C1952 H1946 0.949 . S
C1952 C1956 1.368 . S
C1953 C1934 1.429 . S
C1953 C1947 1.429 . S
C1953 C1954 1.523 . S
C1954 C1935 1.368 . S
C1954 C1948 1.368 . S
C1954 C1953 1.523 . S
C1955 C1939 1.429 . S
C1955 C1951 1.429 . S
C1955 C1956 1.523 . S
C1956 C1940 1.368 . S
C1956 C1952 1.368 . S
C1956 C1955 1.523 . S
H1957 C1932 0.950 . S
H1958 C1934 0.950 . S
H1959 C1935 0.949 . S
H1960 C1937 0.950 . S
H1961 C1939 0.950 . S
C1962 C1963 1.349 . S
C1962 C1964 1.327 . S
C1962 H1987 0.950 . S
C1963 C1962 1.349 . S
C1963 C1979 1.349 . S
C1964 C1962 1.327 . S
C1964 C1983 1.429 . S
C1964 H1988 0.950 . S
C1965 C1982 1.574 . S
C1965 C1984 1.368 . S
C1965 H1989 0.949 . S
H1966 C1970 0.949 . S
C1967 C1968 1.349 . S
C1967 C1969 1.327 . S
C1967 H1990 0.950 . S
C1968 C1967 1.349 . S
C1968 C1980 1.349 . S
C1969 C1967 1.327 . S
C1969 C1985 1.429 . S
C1969 H1991 0.950 . S
C1970 H1966 0.949 . S
C1970 C1978 1.574 . S
C1970 C1986 1.368 . S
H1971 C1979 0.950 . S
H1972 C1977 0.950 . S
H1973 C1978 0.949 . S
H1974 C1980 0.950 . S
H1975 C1981 0.950 . S
H1976 C1982 0.949 . S
C1977 H1972 0.950 . S
C1977 C1979 1.327 . S
C1977 C1983 1.429 . S
C1978 C1970 1.574 . S
C1978 H1973 0.949 . S
C1978 C1984 1.368 . S
C1979 C1963 1.349 . S
C1979 H1971 0.950 . S
C1979 C1977 1.327 . S
C1980 C1968 1.349 . S
C1980 H1974 0.950 . S
C1980 C1981 1.327 . S
C1981 H1975 0.950 . S
C1981 C1980 1.327 . S
C1981 C1985 1.429 . S
C1982 C1965 1.574 . S
C1982 H1976 0.949 . S
C1982 C1986 1.368 . S
C1983 C1964 1.429 . S
C1983 C1977 1.429 . S
C1983 C1984 1.523 . S
C1984 C1965 1.368 . S
C1984 C1978 1.368 . S
C1984 C1983 1.523 . S
C1985 C1969 1.429 . S
C1985 C1981 1.429 . S
C1985 C1986 1.523 . S
C1986 C1970 1.368 . S
C1986 C1982 1.368 . S
C1986 C1985 1.523 . S
H1987 C1962 0.950 . S
H1988 C1964 0.950 . S
H1989 C1965 0.949 . S
H1990 C1967 0.950 . S
H1991 C1969 0.950 . S
C1992 C1993 1.349 . S
C1992 C1994 1.327 . S
C1992 H2017 0.950 . S
C1993 C1992 1.349 . S
C1993 C2009 1.349 . S
C1994 C1992 1.327 . S
C1994 C2013 1.429 . S
C1994 H2018 0.950 . S
C1995 C2012 1.574 . S
C1995 C2014 1.368 . S
C1995 H2019 0.949 . S
H1996 C2000 0.949 . S
C1997 C1998 1.349 . S
C1997 C1999 1.327 . S
C1997 H2020 0.950 . S
C1998 C1997 1.349 . S
C1998 C2010 1.349 . S
C1999 C1997 1.327 . S
C1999 C2015 1.429 . S
C1999 H2021 0.950 . S
C2000 H1996 0.949 . S
C2000 C2008 1.574 . S
C2000 C2016 1.368 . S
H2001 C2009 0.950 . S
H2002 C2007 0.950 . S
H2003 C2008 0.949 . S
H2004 C2010 0.950 . S
H2005 C2011 0.950 . S
H2006 C2012 0.949 . S
C2007 H2002 0.950 . S
C2007 C2009 1.327 . S
C2007 C2013 1.429 . S
C2008 C2000 1.574 . S
C2008 H2003 0.949 . S
C2008 C2014 1.368 . S
C2009 C1993 1.349 . S
C2009 H2001 0.950 . S
C2009 C2007 1.327 . S
C2010 C1998 1.349 . S
C2010 H2004 0.950 . S
C2010 C2011 1.327 . S
C2011 H2005 0.950 . S
C2011 C2010 1.327 . S
C2011 C2015 1.429 . S
C2012 C1995 1.574 . S
C2012 H2006 0.949 . S
C2012 C2016 1.368 . S
C2013 C1994 1.429 . S
C2013 C2007 1.429 . S
C2013 C2014 1.523 . S
C2014 C1995 1.368 . S
C2014 C2008 1.368 . S
C2014 C2013 1.523 . S
C2015 C1999 1.429 . S
C2015 C2011 1.429 . S
C2015 C2016 1.523 . S
C2016 C2000 1.368 . S
C2016 C2012 1.368 . S
C2016 C2015 1.523 . S
H2017 C1992 0.950 . S
H2018 C1994 0.950 . S
H2019 C1995 0.949 . S
H2020 C1997 0.950 . S
H2021 C1999 0.950 . S
C2022 C2023 1.349 . S
C2022 C2024 1.327 . S
C2022 H2047 0.950 . S
C2023 C2022 1.349 . S
C2023 C2039 1.349 . S
C2024 C2022 1.327 . S
C2024 C2043 1.429 . S
C2024 H2048 0.950 . S
C2025 C2042 1.574 . S
C2025 C2044 1.368 . S
C2025 H2049 0.949 . S
H2026 C2030 0.949 . S
C2027 C2028 1.349 . S
C2027 C2029 1.327 . S
C2027 H2050 0.950 . S
C2028 C2027 1.349 . S
C2028 C2040 1.349 . S
C2029 C2027 1.327 . S
C2029 C2045 1.429 . S
C2029 H2051 0.950 . S
C2030 H2026 0.949 . S
C2030 C2038 1.574 . S
C2030 C2046 1.368 . S
H2031 C2039 0.950 . S
H2032 C2037 0.950 . S
H2033 C2038 0.949 . S
H2034 C2040 0.950 . S
H2035 C2041 0.950 . S
H2036 C2042 0.949 . S
C2037 H2032 0.950 . S
C2037 C2039 1.327 . S
C2037 C2043 1.429 . S
C2038 C2030 1.574 . S
C2038 H2033 0.949 . S
C2038 C2044 1.368 . S
C2039 C2023 1.349 . S
C2039 H2031 0.950 . S
C2039 C2037 1.327 . S
C2040 C2028 1.349 . S
C2040 H2034 0.950 . S
C2040 C2041 1.327 . S
C2041 H2035 0.950 . S
C2041 C2040 1.327 . S
C2041 C2045 1.429 . S
C2042 C2025 1.574 . S
C2042 H2036 0.949 . S
C2042 C2046 1.368 . S
C2043 C2024 1.429 . S
C2043 C2037 1.429 . S
C2043 C2044 1.523 . S
C2044 C2025 1.368 . S
C2044 C2038 1.368 . S
C2044 C2043 1.523 . S
C2045 C2029 1.429 . S
C2045 C2041 1.429 . S
C2045 C2046 1.523 . S
C2046 C2030 1.368 . S
C2046 C2042 1.368 . S
C2046 C2045 1.523 . S
H2047 C2022 0.950 . S
H2048 C2024 0.950 . S
H2049 C2025 0.949 . S
H2050 C2027 0.950 . S
H2051 C2029 0.950 . S
C2052 C2053 1.349 . S
C2052 C2054 1.327 . S
C2052 H2077 0.950 . S
C2053 C2052 1.349 . S
C2053 C2069 1.349 . S
C2054 C2052 1.327 . S
C2054 C2073 1.429 . S
C2054 H2078 0.950 . S
C2055 C2072 1.574 . S
C2055 C2074 1.368 . S
C2055 H2079 0.949 . S
H2056 C2060 0.949 . S
C2057 C2058 1.349 . S
C2057 C2059 1.327 . S
C2057 H2080 0.950 . S
C2058 C2057 1.349 . S
C2058 C2070 1.349 . S
C2059 C2057 1.327 . S
C2059 C2075 1.429 . S
C2059 H2081 0.950 . S
C2060 H2056 0.949 . S
C2060 C2068 1.574 . S
C2060 C2076 1.368 . S
H2061 C2069 0.950 . S
H2062 C2067 0.950 . S
H2063 C2068 0.949 . S
H2064 C2070 0.950 . S
H2065 C2071 0.950 . S
H2066 C2072 0.949 . S
C2067 H2062 0.950 . S
C2067 C2069 1.327 . S
C2067 C2073 1.429 . S
C2068 C2060 1.574 . S
C2068 H2063 0.949 . S
C2068 C2074 1.368 . S
C2069 C2053 1.349 . S
C2069 H2061 0.950 . S
C2069 C2067 1.327 . S
C2070 C2058 1.349 . S
C2070 H2064 0.950 . S
C2070 C2071 1.327 . S
C2071 H2065 0.950 . S
C2071 C2070 1.327 . S
C2071 C2075 1.429 . S
C2072 C2055 1.574 . S
C2072 H2066 0.949 . S
C2072 C2076 1.368 . S
C2073 C2054 1.429 . S
C2073 C2067 1.429 . S
C2073 C2074 1.523 . S
C2074 C2055 1.368 . S
C2074 C2068 1.368 . S
C2074 C2073 1.523 . S
C2075 C2059 1.429 . S
C2075 C2071 1.429 . S
C2075 C2076 1.523 . S
C2076 C2060 1.368 . S
C2076 C2072 1.368 . S
C2076 C2075 1.523 . S
H2077 C2052 0.950 . S
H2078 C2054 0.950 . S
H2079 C2055 0.949 . S
H2080 C2057 0.950 . S
H2081 C2059 0.950 . S
C2082 C2083 1.349 . S
C2082 C2084 1.327 . S
C2082 H2107 0.950 . S
C2083 C2082 1.349 . S
C2083 C2099 1.349 . S
C2084 C2082 1.327 . S
C2084 C2103 1.429 . S
C2084 H2108 0.950 . S
C2085 C2102 1.574 . S
C2085 C2104 1.368 . S
C2085 H2109 0.949 . S
H2086 C2090 0.949 . S
C2087 C2088 1.349 . S
C2087 C2089 1.327 . S
C2087 H2110 0.950 . S
C2088 C2087 1.349 . S
C2088 C2100 1.349 . S
C2089 C2087 1.327 . S
C2089 C2105 1.429 . S
C2089 H2111 0.950 . S
C2090 H2086 0.949 . S
C2090 C2098 1.574 . S
C2090 C2106 1.368 . S
H2091 C2099 0.950 . S
H2092 C2097 0.950 . S
H2093 C2098 0.949 . S
H2094 C2100 0.950 . S
H2095 C2101 0.950 . S
H2096 C2102 0.949 . S
C2097 H2092 0.950 . S
C2097 C2099 1.327 . S
C2097 C2103 1.429 . S
C2098 C2090 1.574 . S
C2098 H2093 0.949 . S
C2098 C2104 1.368 . S
C2099 C2083 1.349 . S
C2099 H2091 0.950 . S
C2099 C2097 1.327 . S
C2100 C2088 1.349 . S
C2100 H2094 0.950 . S
C2100 C2101 1.327 . S
C2101 H2095 0.950 . S
C2101 C2100 1.327 . S
C2101 C2105 1.429 . S
C2102 C2085 1.574 . S
C2102 H2096 0.949 . S
C2102 C2106 1.368 . S
C2103 C2084 1.429 . S
C2103 C2097 1.429 . S
C2103 C2104 1.523 . S
C2104 C2085 1.368 . S
C2104 C2098 1.368 . S
C2104 C2103 1.523 . S
C2105 C2089 1.429 . S
C2105 C2101 1.429 . S
C2105 C2106 1.523 . S
C2106 C2090 1.368 . S
C2106 C2102 1.368 . S
C2106 C2105 1.523 . S
H2107 C2082 0.950 . S
H2108 C2084 0.950 . S
H2109 C2085 0.949 . S
H2110 C2087 0.950 . S
H2111 C2089 0.950 . S
C2112 C2113 1.349 . S
C2112 C2114 1.327 . S
C2112 H2137 0.950 . S
C2113 C2112 1.349 . S
C2113 C2129 1.349 . S
C2114 C2112 1.327 . S
C2114 C2133 1.429 . S
C2114 H2138 0.950 . S
C2115 C2132 1.574 . S
C2115 C2134 1.368 . S
C2115 H2139 0.949 . S
H2116 C2120 0.949 . S
C2117 C2118 1.349 . S
C2117 C2119 1.327 . S
C2117 H2140 0.950 . S
C2118 C2117 1.349 . S
C2118 C2130 1.349 . S
C2119 C2117 1.327 . S
C2119 C2135 1.429 . S
C2119 H2141 0.950 . S
C2120 H2116 0.949 . S
C2120 C2128 1.574 . S
C2120 C2136 1.368 . S
H2121 C2129 0.950 . S
H2122 C2127 0.950 . S
H2123 C2128 0.949 . S
H2124 C2130 0.950 . S
H2125 C2131 0.950 . S
H2126 C2132 0.949 . S
C2127 H2122 0.950 . S
C2127 C2129 1.327 . S
C2127 C2133 1.429 . S
C2128 C2120 1.574 . S
C2128 H2123 0.949 . S
C2128 C2134 1.368 . S
C2129 C2113 1.349 . S
C2129 H2121 0.950 . S
C2129 C2127 1.327 . S
C2130 C2118 1.349 . S
C2130 H2124 0.950 . S
C2130 C2131 1.327 . S
C2131 H2125 0.950 . S
C2131 C2130 1.327 . S
C2131 C2135 1.429 . S
C2132 C2115 1.574 . S
C2132 H2126 0.949 . S
C2132 C2136 1.368 . S
C2133 C2114 1.429 . S
C2133 C2127 1.429 . S
C2133 C2134 1.523 . S
C2134 C2115 1.368 . S
C2134 C2128 1.368 . S
C2134 C2133 1.523 . S
C2135 C2119 1.429 . S
C2135 C2131 1.429 . S
C2135 C2136 1.523 . S
C2136 C2120 1.368 . S
C2136 C2132 1.368 . S
C2136 C2135 1.523 . S
H2137 C2112 0.950 . S
H2138 C2114 0.950 . S
H2139 C2115 0.949 . S
H2140 C2117 0.950 . S
H2141 C2119 0.950 . S
C2142 C2143 1.349 . S
C2142 C2144 1.327 . S
C2142 H2167 0.950 . S
C2143 C2142 1.349 . S
C2143 C2159 1.349 . S
C2144 C2142 1.327 . S
C2144 C2163 1.429 . S
C2144 H2168 0.950 . S
C2145 C2162 1.574 . S
C2145 C2164 1.368 . S
C2145 H2169 0.949 . S
H2146 C2150 0.949 . S
C2147 C2148 1.349 . S
C2147 C2149 1.327 . S
C2147 H2170 0.950 . S
C2148 C2147 1.349 . S
C2148 C2160 1.349 . S
C2149 C2147 1.327 . S
C2149 C2165 1.429 . S
C2149 H2171 0.950 . S
C2150 H2146 0.949 . S
C2150 C2158 1.574 . S
C2150 C2166 1.368 . S
H2151 C2159 0.950 . S
H2152 C2157 0.950 . S
H2153 C2158 0.949 . S
H2154 C2160 0.950 . S
H2155 C2161 0.950 . S
H2156 C2162 0.949 . S
C2157 H2152 0.950 . S
C2157 C2159 1.327 . S
C2157 C2163 1.429 . S
C2158 C2150 1.574 . S
C2158 H2153 0.949 . S
C2158 C2164 1.368 . S
C2159 C2143 1.349 . S
C2159 H2151 0.950 . S
C2159 C2157 1.327 . S
C2160 C2148 1.349 . S
C2160 H2154 0.950 . S
C2160 C2161 1.327 . S
C2161 H2155 0.950 . S
C2161 C2160 1.327 . S
C2161 C2165 1.429 . S
C2162 C2145 1.574 . S
C2162 H2156 0.949 . S
C2162 C2166 1.368 . S
C2163 C2144 1.429 . S
C2163 C2157 1.429 . S
C2163 C2164 1.523 . S
C2164 C2145 1.368 . S
C2164 C2158 1.368 . S
C2164 C2163 1.523 . S
C2165 C2149 1.429 . S
C2165 C2161 1.429 . S
C2165 C2166 1.523 . S
C2166 C2150 1.368 . S
C2166 C2162 1.368 . S
C2166 C2165 1.523 . S
H2167 C2142 0.950 . S
H2168 C2144 0.950 . S
H2169 C2145 0.949 . S
H2170 C2147 0.950 . S
H2171 C2149 0.950 . S
C2172 C2173 1.349 . S
C2172 C2174 1.327 . S
C2172 H2197 0.950 . S
C2173 C2172 1.349 . S
C2173 C2189 1.349 . S
C2174 C2172 1.327 . S
C2174 C2193 1.429 . S
C2174 H2198 0.950 . S
C2175 C2192 1.574 . S
C2175 C2194 1.368 . S
C2175 H2199 0.949 . S
H2176 C2180 0.949 . S
C2177 C2178 1.349 . S
C2177 C2179 1.327 . S
C2177 H2200 0.950 . S
C2178 C2177 1.349 . S
C2178 C2190 1.349 . S
C2179 C2177 1.327 . S
C2179 C2195 1.429 . S
C2179 H2201 0.950 . S
C2180 H2176 0.949 . S
C2180 C2188 1.574 . S
C2180 C2196 1.368 . S
H2181 C2189 0.950 . S
H2182 C2187 0.950 . S
H2183 C2188 0.949 . S
H2184 C2190 0.950 . S
H2185 C2191 0.950 . S
H2186 C2192 0.949 . S
C2187 H2182 0.950 . S
C2187 C2189 1.327 . S
C2187 C2193 1.429 . S
C2188 C2180 1.574 . S
C2188 H2183 0.949 . S
C2188 C2194 1.368 . S
C2189 C2173 1.349 . S
C2189 H2181 0.950 . S
C2189 C2187 1.327 . S
C2190 C2178 1.349 . S
C2190 H2184 0.950 . S
C2190 C2191 1.327 . S
C2191 H2185 0.950 . S
C2191 C2190 1.327 . S
C2191 C2195 1.429 . S
C2192 C2175 1.574 . S
C2192 H2186 0.949 . S
C2192 C2196 1.368 . S
C2193 C2174 1.429 . S
C2193 C2187 1.429 . S
C2193 C2194 1.523 . S
C2194 C2175 1.368 . S
C2194 C2188 1.368 . S
C2194 C2193 1.523 . S
C2195 C2179 1.429 . S
C2195 C2191 1.429 . S
C2195 C2196 1.523 . S
C2196 C2180 1.368 . S
C2196 C2192 1.368 . S
C2196 C2195 1.523 . S
H2197 C2172 0.950 . S
H2198 C2174 0.950 . S
H2199 C2175 0.949 . S
H2200 C2177 0.950 . S
H2201 C2179 0.950 . S
C2202 C2203 1.349 . S
C2202 C2204 1.327 . S
C2202 H2227 0.950 . S
C2203 C2202 1.349 . S
C2203 C2219 1.349 . S
C2204 C2202 1.327 . S
C2204 C2223 1.429 . S
C2204 H2228 0.950 . S
C2205 C2222 1.574 . S
C2205 C2224 1.368 . S
C2205 H2229 0.949 . S
H2206 C2210 0.949 . S
C2207 C2208 1.349 . S
C2207 C2209 1.327 . S
C2207 H2230 0.950 . S
C2208 C2207 1.349 . S
C2208 C2220 1.349 . S
C2209 C2207 1.327 . S
C2209 C2225 1.429 . S
C2209 H2231 0.950 . S
C2210 H2206 0.949 . S
C2210 C2218 1.574 . S
C2210 C2226 1.368 . S
H2211 C2219 0.950 . S
H2212 C2217 0.950 . S
H2213 C2218 0.949 . S
H2214 C2220 0.950 . S
H2215 C2221 0.950 . S
H2216 C2222 0.949 . S
C2217 H2212 0.950 . S
C2217 C2219 1.327 . S
C2217 C2223 1.429 . S
C2218 C2210 1.574 . S
C2218 H2213 0.949 . S
C2218 C2224 1.368 . S
C2219 C2203 1.349 . S
C2219 H2211 0.950 . S
C2219 C2217 1.327 . S
C2220 C2208 1.349 . S
C2220 H2214 0.950 . S
C2220 C2221 1.327 . S
C2221 H2215 0.950 . S
C2221 C2220 1.327 . S
C2221 C2225 1.429 . S
C2222 C2205 1.574 . S
C2222 H2216 0.949 . S
C2222 C2226 1.368 . S
C2223 C2204 1.429 . S
C2223 C2217 1.429 . S
C2223 C2224 1.523 . S
C2224 C2205 1.368 . S
C2224 C2218 1.368 . S
C2224 C2223 1.523 . S
C2225 C2209 1.429 . S
C2225 C2221 1.429 . S
C2225 C2226 1.523 . S
C2226 C2210 1.368 . S
C2226 C2222 1.368 . S
C2226 C2225 1.523 . S
H2227 C2202 0.950 . S
H2228 C2204 0.950 . S
H2229 C2205 0.949 . S
H2230 C2207 0.950 . S
H2231 C2209 0.950 . S
C2232 C2233 1.349 . S
C2232 C2234 1.327 . S
C2232 H2257 0.950 . S
C2233 C2232 1.349 . S
C2233 C2249 1.349 . S
C2234 C2232 1.327 . S
C2234 C2253 1.429 . S
C2234 H2258 0.950 . S
C2235 C2252 1.574 . S
C2235 C2254 1.368 . S
C2235 H2259 0.949 . S
H2236 C2240 0.949 . S
C2237 C2238 1.349 . S
C2237 C2239 1.327 . S
C2237 H2260 0.950 . S
C2238 C2237 1.349 . S
C2238 C2250 1.349 . S
C2239 C2237 1.327 . S
C2239 C2255 1.429 . S
C2239 H2261 0.950 . S
C2240 H2236 0.949 . S
C2240 C2248 1.574 . S
C2240 C2256 1.368 . S
H2241 C2249 0.950 . S
H2242 C2247 0.950 . S
H2243 C2248 0.949 . S
H2244 C2250 0.950 . S
H2245 C2251 0.950 . S
H2246 C2252 0.949 . S
C2247 H2242 0.950 . S
C2247 C2249 1.327 . S
C2247 C2253 1.429 . S
C2248 C2240 1.574 . S
C2248 H2243 0.949 . S
C2248 C2254 1.368 . S
C2249 C2233 1.349 . S
C2249 H2241 0.950 . S
C2249 C2247 1.327 . S
C2250 C2238 1.349 . S
C2250 H2244 0.950 . S
C2250 C2251 1.327 . S
C2251 H2245 0.950 . S
C2251 C2250 1.327 . S
C2251 C2255 1.429 . S
C2252 C2235 1.574 . S
C2252 H2246 0.949 . S
C2252 C2256 1.368 . S
C2253 C2234 1.429 . S
C2253 C2247 1.429 . S
C2253 C2254 1.523 . S
C2254 C2235 1.368 . S
C2254 C2248 1.368 . S
C2254 C2253 1.523 . S
C2255 C2239 1.429 . S
C2255 C2251 1.429 . S
C2255 C2256 1.523 . S
C2256 C2240 1.368 . S
C2256 C2252 1.368 . S
C2256 C2255 1.523 . S
H2257 C2232 0.950 . S
H2258 C2234 0.950 . S
H2259 C2235 0.949 . S
H2260 C2237 0.950 . S
H2261 C2239 0.950 . S
C2262 C2263 1.349 . S
C2262 C2264 1.327 . S
C2262 H2287 0.950 . S
C2263 C2262 1.349 . S
C2263 C2279 1.349 . S
C2264 C2262 1.327 . S
C2264 C2283 1.429 . S
C2264 H2288 0.950 . S
C2265 C2282 1.574 . S
C2265 C2284 1.368 . S
C2265 H2289 0.949 . S
H2266 C2270 0.949 . S
C2267 C2268 1.349 . S
C2267 C2269 1.327 . S
C2267 H2290 0.950 . S
C2268 C2267 1.349 . S
C2268 C2280 1.349 . S
C2269 C2267 1.327 . S
C2269 C2285 1.429 . S
C2269 H2291 0.950 . S
C2270 H2266 0.949 . S
C2270 C2278 1.574 . S
C2270 C2286 1.368 . S
H2271 C2279 0.950 . S
H2272 C2277 0.950 . S
H2273 C2278 0.949 . S
H2274 C2280 0.950 . S
H2275 C2281 0.950 . S
H2276 C2282 0.949 . S
C2277 H2272 0.950 . S
C2277 C2279 1.327 . S
C2277 C2283 1.429 . S
C2278 C2270 1.574 . S
C2278 H2273 0.949 . S
C2278 C2284 1.368 . S
C2279 C2263 1.349 . S
C2279 H2271 0.950 . S
C2279 C2277 1.327 . S
C2280 C2268 1.349 . S
C2280 H2274 0.950 . S
C2280 C2281 1.327 . S
C2281 H2275 0.950 . S
C2281 C2280 1.327 . S
C2281 C2285 1.429 . S
C2282 C2265 1.574 . S
C2282 H2276 0.949 . S
C2282 C2286 1.368 . S
C2283 C2264 1.429 . S
C2283 C2277 1.429 . S
C2283 C2284 1.523 . S
C2284 C2265 1.368 . S
C2284 C2278 1.368 . S
C2284 C2283 1.523 . S
C2285 C2269 1.429 . S
C2285 C2281 1.429 . S
C2285 C2286 1.523 . S
C2286 C2270 1.368 . S
C2286 C2282 1.368 . S
C2286 C2285 1.523 . S
H2287 C2262 0.950 . S
H2288 C2264 0.950 . S
H2289 C2265 0.949 . S
H2290 C2267 0.950 . S
H2291 C2269 0.950 . S
C2292 C2293 1.349 . S
C2292 C2294 1.327 . S
C2292 H2317 0.950 . S
C2293 C2292 1.349 . S
C2293 C2309 1.349 . S
C2294 C2292 1.327 . S
C2294 C2313 1.429 . S
C2294 H2318 0.950 . S
C2295 C2312 1.574 . S
C2295 C2314 1.368 . S
C2295 H2319 0.949 . S
H2296 C2300 0.949 . S
C2297 C2298 1.349 . S
C2297 C2299 1.327 . S
C2297 H2320 0.950 . S
C2298 C2297 1.349 . S
C2298 C2310 1.349 . S
C2299 C2297 1.327 . S
C2299 C2315 1.429 . S
C2299 H2321 0.950 . S
C2300 H2296 0.949 . S
C2300 C2308 1.574 . S
C2300 C2316 1.368 . S
H2301 C2309 0.950 . S
H2302 C2307 0.950 . S
H2303 C2308 0.949 . S
H2304 C2310 0.950 . S
H2305 C2311 0.950 . S
H2306 C2312 0.949 . S
C2307 H2302 0.950 . S
C2307 C2309 1.327 . S
C2307 C2313 1.429 . S
C2308 C2300 1.574 . S
C2308 H2303 0.949 . S
C2308 C2314 1.368 . S
C2309 C2293 1.349 . S
C2309 H2301 0.950 . S
C2309 C2307 1.327 . S
C2310 C2298 1.349 . S
C2310 H2304 0.950 . S
C2310 C2311 1.327 . S
C2311 H2305 0.950 . S
C2311 C2310 1.327 . S
C2311 C2315 1.429 . S
C2312 C2295 1.574 . S
C2312 H2306 0.949 . S
C2312 C2316 1.368 . S
C2313 C2294 1.429 . S
C2313 C2307 1.429 . S
C2313 C2314 1.523 . S
C2314 C2295 1.368 . S
C2314 C2308 1.368 . S
C2314 C2313 1.523 . S
C2315 C2299 1.429 . S
C2315 C2311 1.429 . S
C2315 C2316 1.523 . S
C2316 C2300 1.368 . S
C2316 C2312 1.368 . S
C2316 C2315 1.523 . S
H2317 C2292 0.950 . S
H2318 C2294 0.950 . S
H2319 C2295 0.949 . S
H2320 C2297 0.950 . S
H2321 C2299 0.950 . S
C2322 C2323 1.349 . S
C2322 C2324 1.327 . S
C2322 H2347 0.950 . S
C2323 C2322 1.349 . S
C2323 C2339 1.349 . S
C2324 C2322 1.327 . S
C2324 C2343 1.429 . S
C2324 H2348 0.950 . S
C2325 C2342 1.574 . S
C2325 C2344 1.368 . S
C2325 H2349 0.949 . S
H2326 C2330 0.949 . S
C2327 C2328 1.349 . S
C2327 C2329 1.327 . S
C2327 H2350 0.950 . S
C2328 C2327 1.349 . S
C2328 C2340 1.349 . S
C2329 C2327 1.327 . S
C2329 C2345 1.429 . S
C2329 H2351 0.950 . S
C2330 H2326 0.949 . S
C2330 C2338 1.574 . S
C2330 C2346 1.368 . S
H2331 C2339 0.950 . S
H2332 C2337 0.950 . S
H2333 C2338 0.949 . S
H2334 C2340 0.950 . S
H2335 C2341 0.950 . S
H2336 C2342 0.949 . S
C2337 H2332 0.950 . S
C2337 C2339 1.327 . S
C2337 C2343 1.429 . S
C2338 C2330 1.574 . S
C2338 H2333 0.949 . S
C2338 C2344 1.368 . S
C2339 C2323 1.349 . S
C2339 H2331 0.950 . S
C2339 C2337 1.327 . S
C2340 C2328 1.349 . S
C2340 H2334 0.950 . S
C2340 C2341 1.327 . S
C2341 H2335 0.950 . S
C2341 C2340 1.327 . S
C2341 C2345 1.429 . S
C2342 C2325 1.574 . S
C2342 H2336 0.949 . S
C2342 C2346 1.368 . S
C2343 C2324 1.429 . S
C2343 C2337 1.429 . S
C2343 C2344 1.523 . S
C2344 C2325 1.368 . S
C2344 C2338 1.368 . S
C2344 C2343 1.523 . S
C2345 C2329 1.429 . S
C2345 C2341 1.429 . S
C2345 C2346 1.523 . S
C2346 C2330 1.368 . S
C2346 C2342 1.368 . S
C2346 C2345 1.523 . S
H2347 C2322 0.950 . S
H2348 C2324 0.950 . S
H2349 C2325 0.949 . S
H2350 C2327 0.950 . S
H2351 C2329 0.950 . S
C2352 C2353 1.349 . S
C2352 C2354 1.327 . S
C2352 H2377 0.950 . S
C2353 C2352 1.349 . S
C2353 C2369 1.349 . S
C2354 C2352 1.327 . S
C2354 C2373 1.429 . S
C2354 H2378 0.950 . S
C2355 C2372 1.574 . S
C2355 C2374 1.368 . S
C2355 H2379 0.949 . S
H2356 C2360 0.949 . S
C2357 C2358 1.349 . S
C2357 C2359 1.327 . S
C2357 H2380 0.950 . S
C2358 C2357 1.349 . S
C2358 C2370 1.349 . S
C2359 C2357 1.327 . S
C2359 C2375 1.429 . S
C2359 H2381 0.950 . S
C2360 H2356 0.949 . S
C2360 C2368 1.574 . S
C2360 C2376 1.368 . S
H2361 C2369 0.950 . S
H2362 C2367 0.950 . S
H2363 C2368 0.949 . S
H2364 C2370 0.950 . S
H2365 C2371 0.950 . S
H2366 C2372 0.949 . S
C2367 H2362 0.950 . S
C2367 C2369 1.327 . S
C2367 C2373 1.429 . S
C2368 C2360 1.574 . S
C2368 H2363 0.949 . S
C2368 C2374 1.368 . S
C2369 C2353 1.349 . S
C2369 H2361 0.950 . S
C2369 C2367 1.327 . S
C2370 C2358 1.349 . S
C2370 H2364 0.950 . S
C2370 C2371 1.327 . S
C2371 H2365 0.950 . S
C2371 C2370 1.327 . S
C2371 C2375 1.429 . S
C2372 C2355 1.574 . S
C2372 H2366 0.949 . S
C2372 C2376 1.368 . S
C2373 C2354 1.429 . S
C2373 C2367 1.429 . S
C2373 C2374 1.523 . S
C2374 C2355 1.368 . S
C2374 C2368 1.368 . S
C2374 C2373 1.523 . S
C2375 C2359 1.429 . S
C2375 C2371 1.429 . S
C2375 C2376 1.523 . S
C2376 C2360 1.368 . S
C2376 C2372 1.368 . S
C2376 C2375 1.523 . S
H2377 C2352 0.950 . S
H2378 C2354 0.950 . S
H2379 C2355 0.949 . S
H2380 C2357 0.950 . S
H2381 C2359 0.950 . S
C2382 C2383 1.349 . S
C2382 C2384 1.327 . S
C2382 H2407 0.950 . S
C2383 C2382 1.349 . S
C2383 C2399 1.349 . S
C2384 C2382 1.327 . S
C2384 C2403 1.429 . S
C2384 H2408 0.950 . S
C2385 C2402 1.574 . S
C2385 C2404 1.368 . S
C2385 H2409 0.949 . S
H2386 C2390 0.949 . S
C2387 C2388 1.349 . S
C2387 C2389 1.327 . S
C2387 H2410 0.950 . S
C2388 C2387 1.349 . S
C2388 C2400 1.349 . S
C2389 C2387 1.327 . S
C2389 C2405 1.429 . S
C2389 H2411 0.950 . S
C2390 H2386 0.949 . S
C2390 C2398 1.574 . S
C2390 C2406 1.368 . S
H2391 C2399 0.950 . S
H2392 C2397 0.950 . S
H2393 C2398 0.949 . S
H2394 C2400 0.950 . S
H2395 C2401 0.950 . S
H2396 C2402 0.949 . S
C2397 H2392 0.950 . S
C2397 C2399 1.327 . S
C2397 C2403 1.429 . S
C2398 C2390 1.574 . S
C2398 H2393 0.949 . S
C2398 C2404 1.368 . S
C2399 C2383 1.349 . S
C2399 H2391 0.950 . S
C2399 C2397 1.327 . S
C2400 C2388 1.349 . S
C2400 H2394 0.950 . S
C2400 C2401 1.327 . S
C2401 H2395 0.950 . S
C2401 C2400 1.327 . S
C2401 C2405 1.429 . S
C2402 C2385 1.574 . S
C2402 H2396 0.949 . S
C2402 C2406 1.368 . S
C2403 C2384 1.429 . S
C2403 C2397 1.429 . S
C2403 C2404 1.523 . S
C2404 C2385 1.368 . S
C2404 C2398 1.368 . S
C2404 C2403 1.523 . S
C2405 C2389 1.429 . S
C2405 C2401 1.429 . S
C2405 C2406 1.523 . S
C2406 C2390 1.368 . S
C2406 C2402 1.368 . S
C2406 C2405 1.523 . S
H2407 C2382 0.950 . S
H2408 C2384 0.950 . S
H2409 C2385 0.949 . S
H2410 C2387 0.950 . S
H2411 C2389 0.950 . S
C2412 C2413 1.349 . S
C2412 C2414 1.327 . S
C2412 H2437 0.950 . S
C2413 C2412 1.349 . S
C2413 C2429 1.349 . S
C2414 C2412 1.327 . S
C2414 C2433 1.429 . S
C2414 H2438 0.950 . S
C2415 C2432 1.574 . S
C2415 C2434 1.368 . S
C2415 H2439 0.949 . S
H2416 C2420 0.949 . S
C2417 C2418 1.349 . S
C2417 C2419 1.327 . S
C2417 H2440 0.950 . S
C2418 C2417 1.349 . S
C2418 C2430 1.349 . S
C2419 C2417 1.327 . S
C2419 C2435 1.429 . S
C2419 H2441 0.950 . S
C2420 H2416 0.949 . S
C2420 C2428 1.574 . S
C2420 C2436 1.368 . S
H2421 C2429 0.950 . S
H2422 C2427 0.950 . S
H2423 C2428 0.949 . S
H2424 C2430 0.950 . S
H2425 C2431 0.950 . S
H2426 C2432 0.949 . S
C2427 H2422 0.950 . S
C2427 C2429 1.327 . S
C2427 C2433 1.429 . S
C2428 C2420 1.574 . S
C2428 H2423 0.949 . S
C2428 C2434 1.368 . S
C2429 C2413 1.349 . S
C2429 H2421 0.950 . S
C2429 C2427 1.327 . S
C2430 C2418 1.349 . S
C2430 H2424 0.950 . S
C2430 C2431 1.327 . S
C2431 H2425 0.950 . S
C2431 C2430 1.327 . S
C2431 C2435 1.429 . S
C2432 C2415 1.574 . S
C2432 H2426 0.949 . S
C2432 C2436 1.368 . S
C2433 C2414 1.429 . S
C2433 C2427 1.429 . S
C2433 C2434 1.523 . S
C2434 C2415 1.368 . S
C2434 C2428 1.368 . S
C2434 C2433 1.523 . S
C2435 C2419 1.429 . S
C2435 C2431 1.429 . S
C2435 C2436 1.523 . S
C2436 C2420 1.368 . S
C2436 C2432 1.368 . S
C2436 C2435 1.523 . S
H2437 C2412 0.950 . S
H2438 C2414 0.950 . S
H2439 C2415 0.949 . S
H2440 C2417 0.950 . S
H2441 C2419 0.950 . S
C2442 C2443 1.349 . S
C2442 C2444 1.327 . S
C2442 H2467 0.950 . S
C2443 C2442 1.349 . S
C2443 C2459 1.349 . S
C2444 C2442 1.327 . S
C2444 C2463 1.429 . S
C2444 H2468 0.950 . S
C2445 C2462 1.574 . S
C2445 C2464 1.368 . S
C2445 H2469 0.949 . S
H2446 C2450 0.949 . S
C2447 C2448 1.349 . S
C2447 C2449 1.327 . S
C2447 H2470 0.950 . S
C2448 C2447 1.349 . S
C2448 C2460 1.349 . S
C2449 C2447 1.327 . S
C2449 C2465 1.429 . S
C2449 H2471 0.950 . S
C2450 H2446 0.949 . S
C2450 C2458 1.574 . S
C2450 C2466 1.368 . S
H2451 C2459 0.950 . S
H2452 C2457 0.950 . S
H2453 C2458 0.949 . S
H2454 C2460 0.950 . S
H2455 C2461 0.950 . S
H2456 C2462 0.949 . S
C2457 H2452 0.950 . S
C2457 C2459 1.327 . S
C2457 C2463 1.429 . S
C2458 C2450 1.574 . S
C2458 H2453 0.949 . S
C2458 C2464 1.368 . S
C2459 C2443 1.349 . S
C2459 H2451 0.950 . S
C2459 C2457 1.327 . S
C2460 C2448 1.349 . S
C2460 H2454 0.950 . S
C2460 C2461 1.327 . S
C2461 H2455 0.950 . S
C2461 C2460 1.327 . S
C2461 C2465 1.429 . S
C2462 C2445 1.574 . S
C2462 H2456 0.949 . S
C2462 C2466 1.368 . S
C2463 C2444 1.429 . S
C2463 C2457 1.429 . S
C2463 C2464 1.523 . S
C2464 C2445 1.368 . S
C2464 C2458 1.368 . S
C2464 C2463 1.523 . S
C2465 C2449 1.429 . S
C2465 C2461 1.429 . S
C2465 C2466 1.523 . S
C2466 C2450 1.368 . S
C2466 C2462 1.368 . S
C2466 C2465 1.523 . S
H2467 C2442 0.950 . S
H2468 C2444 0.950 . S
H2469 C2445 0.949 . S
H2470 C2447 0.950 . S
H2471 C2449 0.950 . S
C2472 C2473 1.349 . S
C2472 C2474 1.327 . S
C2472 H2497 0.950 . S
C2473 C2472 1.349 . S
C2473 C2489 1.349 . S
C2474 C2472 1.327 . S
C2474 C2493 1.429 . S
C2474 H2498 0.950 . S
C2475 C2492 1.574 . S
C2475 C2494 1.368 . S
C2475 H2499 0.949 . S
H2476 C2480 0.949 . S
C2477 C2478 1.349 . S
C2477 C2479 1.327 . S
C2477 H2500 0.950 . S
C2478 C2477 1.349 . S
C2478 C2490 1.349 . S
C2479 C2477 1.327 . S
C2479 C2495 1.429 . S
C2479 H2501 0.950 . S
C2480 H2476 0.949 . S
C2480 C2488 1.574 . S
C2480 C2496 1.368 . S
H2481 C2489 0.950 . S
H2482 C2487 0.950 . S
H2483 C2488 0.949 . S
H2484 C2490 0.950 . S
H2485 C2491 0.950 . S
H2486 C2492 0.949 . S
C2487 H2482 0.950 . S
C2487 C2489 1.327 . S
C2487 C2493 1.429 . S
C2488 C2480 1.574 . S
C2488 H2483 0.949 . S
C2488 C2494 1.368 . S
C2489 C2473 1.349 . S
C2489 H2481 0.950 . S
C2489 C2487 1.327 . S
C2490 C2478 1.349 . S
C2490 H2484 0.950 . S
C2490 C2491 1.327 . S
C2491 H2485 0.950 . S
C2491 C2490 1.327 . S
C2491 C2495 1.429 . S
C2492 C2475 1.574 . S
C2492 H2486 0.949 . S
C2492 C2496 1.368 . S
C2493 C2474 1.429 . S
C2493 C2487 1.429 . S
C2493 C2494 1.523 . S
C2494 C2475 1.368 . S
C2494 C2488 1.368 . S
C2494 C2493 1.523 . S
C2495 C2479 1.429 . S
C2495 C2491 1.429 . S
C2495 C2496 1.523 . S
C2496 C2480 1.368 . S
C2496 C2492 1.368 . S
C2496 C2495 1.523 . S
H2497 C2472 0.950 . S
H2498 C2474 0.950 . S
H2499 C2475 0.949 . S
H2500 C2477 0.950 . S
H2501 C2479 0.950 . S
C2502 C2503 1.349 . S
C2502 C2504 1.327 . S
C2502 H2527 0.950 . S
C2503 C2502 1.349 . S
C2503 C2519 1.349 . S
C2504 C2502 1.327 . S
C2504 C2523 1.429 . S
C2504 H2528 0.950 . S
C2505 C2522 1.574 . S
C2505 C2524 1.368 . S
C2505 H2529 0.949 . S
H2506 C2510 0.949 . S
C2507 C2508 1.349 . S
C2507 C2509 1.327 . S
C2507 H2530 0.950 . S
C2508 C2507 1.349 . S
C2508 C2520 1.349 . S
C2509 C2507 1.327 . S
C2509 C2525 1.429 . S
C2509 H2531 0.950 . S
C2510 H2506 0.949 . S
C2510 C2518 1.574 . S
C2510 C2526 1.368 . S
H2511 C2519 0.950 . S
H2512 C2517 0.950 . S
H2513 C2518 0.949 . S
H2514 C2520 0.950 . S
H2515 C2521 0.950 . S
H2516 C2522 0.949 . S
C2517 H2512 0.950 . S
C2517 C2519 1.327 . S
C2517 C2523 1.429 . S
C2518 C2510 1.574 . S
C2518 H2513 0.949 . S
C2518 C2524 1.368 . S
C2519 C2503 1.349 . S
C2519 H2511 0.950 . S
C2519 C2517 1.327 . S
C2520 C2508 1.349 . S
C2520 H2514 0.950 . S
C2520 C2521 1.327 . S
C2521 H2515 0.950 . S
C2521 C2520 1.327 . S
C2521 C2525 1.429 . S
C2522 C2505 1.574 . S
C2522 H2516 0.949 . S
C2522 C2526 1.368 . S
C2523 C2504 1.429 . S
C2523 C2517 1.429 . S
C2523 C2524 1.523 . S
C2524 C2505 1.368 . S
C2524 C2518 1.368 . S
C2524 C2523 1.523 . S
C2525 C2509 1.429 . S
C2525 C2521 1.429 . S
C2525 C2526 1.523 . S
C2526 C2510 1.368 . S
C2526 C2522 1.368 . S
C2526 C2525 1.523 . S
H2527 C2502 0.950 . S
H2528 C2504 0.950 . S
H2529 C2505 0.949 . S
H2530 C2507 0.950 . S
H2531 C2509 0.950 . S
C2532 C2533 1.349 . S
C2532 C2534 1.327 . S
C2532 H2557 0.950 . S
C2533 C2532 1.349 . S
C2533 C2549 1.349 . S
C2534 C2532 1.327 . S
C2534 C2553 1.429 . S
C2534 H2558 0.950 . S
C2535 C2552 1.574 . S
C2535 C2554 1.368 . S
C2535 H2559 0.949 . S
H2536 C2540 0.949 . S
C2537 C2538 1.349 . S
C2537 C2539 1.327 . S
C2537 H2560 0.950 . S
C2538 C2537 1.349 . S
C2538 C2550 1.349 . S
C2539 C2537 1.327 . S
C2539 C2555 1.429 . S
C2539 H2561 0.950 . S
C2540 H2536 0.949 . S
C2540 C2548 1.574 . S
C2540 C2556 1.368 . S
H2541 C2549 0.950 . S
H2542 C2547 0.950 . S
H2543 C2548 0.949 . S
H2544 C2550 0.950 . S
H2545 C2551 0.950 . S
H2546 C2552 0.949 . S
C2547 H2542 0.950 . S
C2547 C2549 1.327 . S
C2547 C2553 1.429 . S
C2548 C2540 1.574 . S
C2548 H2543 0.949 . S
C2548 C2554 1.368 . S
C2549 C2533 1.349 . S
C2549 H2541 0.950 . S
C2549 C2547 1.327 . S
C2550 C2538 1.349 . S
C2550 H2544 0.950 . S
C2550 C2551 1.327 . S
C2551 H2545 0.950 . S
C2551 C2550 1.327 . S
C2551 C2555 1.429 . S
C2552 C2535 1.574 . S
C2552 H2546 0.949 . S
C2552 C2556 1.368 . S
C2553 C2534 1.429 . S
C2553 C2547 1.429 . S
C2553 C2554 1.523 . S
C2554 C2535 1.368 . S
C2554 C2548 1.368 . S
C2554 C2553 1.523 . S
C2555 C2539 1.429 . S
C2555 C2551 1.429 . S
C2555 C2556 1.523 . S
C2556 C2540 1.368 . S
C2556 C2552 1.368 . S
C2556 C2555 1.523 . S
H2557 C2532 0.950 . S
H2558 C2534 0.950 . S
H2559 C2535 0.949 . S
H2560 C2537 0.950 . S
H2561 C2539 0.950 . S
C2562 C2563 1.349 . S
C2562 C2564 1.327 . S
C2562 H2587 0.950 . S
C2563 C2562 1.349 . S
C2563 C2579 1.349 . S
C2564 C2562 1.327 . S
C2564 C2583 1.429 . S
C2564 H2588 0.950 . S
C2565 C2582 1.574 . S
C2565 C2584 1.368 . S
C2565 H2589 0.949 . S
H2566 C2570 0.949 . S
C2567 C2568 1.349 . S
C2567 C2569 1.327 . S
C2567 H2590 0.950 . S
C2568 C2567 1.349 . S
C2568 C2580 1.349 . S
C2569 C2567 1.327 . S
C2569 C2585 1.429 . S
C2569 H2591 0.950 . S
C2570 H2566 0.949 . S
C2570 C2578 1.574 . S
C2570 C2586 1.368 . S
H2571 C2579 0.950 . S
H2572 C2577 0.950 . S
H2573 C2578 0.949 . S
H2574 C2580 0.950 . S
H2575 C2581 0.950 . S
H2576 C2582 0.949 . S
C2577 H2572 0.950 . S
C2577 C2579 1.327 . S
C2577 C2583 1.429 . S
C2578 C2570 1.574 . S
C2578 H2573 0.949 . S
C2578 C2584 1.368 . S
C2579 C2563 1.349 . S
C2579 H2571 0.950 . S
C2579 C2577 1.327 . S
C2580 C2568 1.349 . S
C2580 H2574 0.950 . S
C2580 C2581 1.327 . S
C2581 H2575 0.950 . S
C2581 C2580 1.327 . S
C2581 C2585 1.429 . S
C2582 C2565 1.574 . S
C2582 H2576 0.949 . S
C2582 C2586 1.368 . S
C2583 C2564 1.429 . S
C2583 C2577 1.429 . S
C2583 C2584 1.523 . S
C2584 C2565 1.368 . S
C2584 C2578 1.368 . S
C2584 C2583 1.523 . S
C2585 C2569 1.429 . S
C2585 C2581 1.429 . S
C2585 C2586 1.523 . S
C2586 C2570 1.368 . S
C2586 C2582 1.368 . S
C2586 C2585 1.523 . S
H2587 C2562 0.950 . S
H2588 C2564 0.950 . S
H2589 C2565 0.949 . S
H2590 C2567 0.950 . S
H2591 C2569 0.950 . S
C2592 C2593 1.349 . S
C2592 C2594 1.327 . S
C2592 H2617 0.950 . S
C2593 C2592 1.349 . S
C2593 C2609 1.349 . S
C2594 C2592 1.327 . S
C2594 C2613 1.429 . S
C2594 H2618 0.950 . S
C2595 C2612 1.574 . S
C2595 C2614 1.368 . S
C2595 H2619 0.949 . S
H2596 C2600 0.949 . S
C2597 C2598 1.349 . S
C2597 C2599 1.327 . S
C2597 H2620 0.950 . S
C2598 C2597 1.349 . S
C2598 C2610 1.349 . S
C2599 C2597 1.327 . S
C2599 C2615 1.429 . S
C2599 H2621 0.950 . S
C2600 H2596 0.949 . S
C2600 C2608 1.574 . S
C2600 C2616 1.368 . S
H2601 C2609 0.950 . S
H2602 C2607 0.950 . S
H2603 C2608 0.949 . S
H2604 C2610 0.950 . S
H2605 C2611 0.950 . S
H2606 C2612 0.949 . S
C2607 H2602 0.950 . S
C2607 C2609 1.327 . S
C2607 C2613 1.429 . S
C2608 C2600 1.574 . S
C2608 H2603 0.949 . S
C2608 C2614 1.368 . S
C2609 C2593 1.349 . S
C2609 H2601 0.950 . S
C2609 C2607 1.327 . S
C2610 C2598 1.349 . S
C2610 H2604 0.950 . S
C2610 C2611 1.327 . S
C2611 H2605 0.950 . S
C2611 C2610 1.327 . S
C2611 C2615 1.429 . S
C2612 C2595 1.574 . S
C2612 H2606 0.949 . S
C2612 C2616 1.368 . S
C2613 C2594 1.429 . S
C2613 C2607 1.429 . S
C2613 C2614 1.523 . S
C2614 C2595 1.368 . S
C2614 C2608 1.368 . S
C2614 C2613 1.523 . S
C2615 C2599 1.429 . S
C2615 C2611 1.429 . S
C2615 C2616 1.523 . S
C2616 C2600 1.368 . S
C2616 C2612 1.368 . S
C2616 C2615 1.523 . S
H2617 C2592 0.950 . S
H2618 C2594 0.950 . S
H2619 C2595 0.949 . S
H2620 C2597 0.950 . S
H2621 C2599 0.950 . S
C2622 C2623 1.349 . S
C2622 C2624 1.327 . S
C2622 H2647 0.950 . S
C2623 C2622 1.349 . S
C2623 C2639 1.349 . S
C2624 C2622 1.327 . S
C2624 C2643 1.429 . S
C2624 H2648 0.950 . S
C2625 C2642 1.574 . S
C2625 C2644 1.368 . S
C2625 H2649 0.949 . S
H2626 C2630 0.949 . S
C2627 C2628 1.349 . S
C2627 C2629 1.327 . S
C2627 H2650 0.950 . S
C2628 C2627 1.349 . S
C2628 C2640 1.349 . S
C2629 C2627 1.327 . S
C2629 C2645 1.429 . S
C2629 H2651 0.950 . S
C2630 H2626 0.949 . S
C2630 C2638 1.574 . S
C2630 C2646 1.368 . S
H2631 C2639 0.950 . S
H2632 C2637 0.950 . S
H2633 C2638 0.949 . S
H2634 C2640 0.950 . S
H2635 C2641 0.950 . S
H2636 C2642 0.949 . S
C2637 H2632 0.950 . S
C2637 C2639 1.327 . S
C2637 C2643 1.429 . S
C2638 C2630 1.574 . S
C2638 H2633 0.949 . S
C2638 C2644 1.368 . S
C2639 C2623 1.349 . S
C2639 H2631 0.950 . S
C2639 C2637 1.327 . S
C2640 C2628 1.349 . S
C2640 H2634 0.950 . S
C2640 C2641 1.327 . S
C2641 H2635 0.950 . S
C2641 C2640 1.327 . S
C2641 C2645 1.429 . S
C2642 C2625 1.574 . S
C2642 H2636 0.949 . S
C2642 C2646 1.368 . S
C2643 C2624 1.429 . S
C2643 C2637 1.429 . S
C2643 C2644 1.523 . S
C2644 C2625 1.368 . S
C2644 C2638 1.368 . S
C2644 C2643 1.523 . S
C2645 C2629 1.429 . S
C2645 C2641 1.429 . S
C2645 C2646 1.523 . S
C2646 C2630 1.368 . S
C2646 C2642 1.368 . S
C2646 C2645 1.523 . S
H2647 C2622 0.950 . S
H2648 C2624 0.950 . S
H2649 C2625 0.949 . S
H2650 C2627 0.950 . S
H2651 C2629 0.950 . S
C2652 C2653 1.349 . S
C2652 C2654 1.327 . S
C2652 H2677 0.950 . S
C2653 C2652 1.349 . S
C2653 C2669 1.349 . S
C2654 C2652 1.327 . S
C2654 C2673 1.429 . S
C2654 H2678 0.950 . S
C2655 C2672 1.574 . S
C2655 C2674 1.368 . S
C2655 H2679 0.949 . S
H2656 C2660 0.949 . S
C2657 C2658 1.349 . S
C2657 C2659 1.327 . S
C2657 H2680 0.950 . S
C2658 C2657 1.349 . S
C2658 C2670 1.349 . S
C2659 C2657 1.327 . S
C2659 C2675 1.429 . S
C2659 H2681 0.950 . S
C2660 H2656 0.949 . S
C2660 C2668 1.574 . S
C2660 C2676 1.368 . S
H2661 C2669 0.950 . S
H2662 C2667 0.950 . S
H2663 C2668 0.949 . S
H2664 C2670 0.950 . S
H2665 C2671 0.950 . S
H2666 C2672 0.949 . S
C2667 H2662 0.950 . S
C2667 C2669 1.327 . S
C2667 C2673 1.429 . S
C2668 C2660 1.574 . S
C2668 H2663 0.949 . S
C2668 C2674 1.368 . S
C2669 C2653 1.349 . S
C2669 H2661 0.950 . S
C2669 C2667 1.327 . S
C2670 C2658 1.349 . S
C2670 H2664 0.950 . S
C2670 C2671 1.327 . S
C2671 H2665 0.950 . S
C2671 C2670 1.327 . S
C2671 C2675 1.429 . S
C2672 C2655 1.574 . S
C2672 H2666 0.949 . S
C2672 C2676 1.368 . S
C2673 C2654 1.429 . S
C2673 C2667 1.429 . S
C2673 C2674 1.523 . S
C2674 C2655 1.368 . S
C2674 C2668 1.368 . S
C2674 C2673 1.523 . S
C2675 C2659 1.429 . S
C2675 C2671 1.429 . S
C2675 C2676 1.523 . S
C2676 C2660 1.368 . S
C2676 C2672 1.368 . S
C2676 C2675 1.523 . S
H2677 C2652 0.950 . S
H2678 C2654 0.950 . S
H2679 C2655 0.949 . S
H2680 C2657 0.950 . S
H2681 C2659 0.950 . S
C2682 C2683 1.349 . S
C2682 C2684 1.327 . S
C2682 H2707 0.950 . S
C2683 C2682 1.349 . S
C2683 C2699 1.349 . S
C2684 C2682 1.327 . S
C2684 C2703 1.429 . S
C2684 H2708 0.950 . S
C2685 C2702 1.574 . S
C2685 C2704 1.368 . S
C2685 H2709 0.949 . S
H2686 C2690 0.949 . S
C2687 C2688 1.349 . S
C2687 C2689 1.327 . S
C2687 H2710 0.950 . S
C2688 C2687 1.349 . S
C2688 C2700 1.349 . S
C2689 C2687 1.327 . S
C2689 C2705 1.429 . S
C2689 H2711 0.950 . S
C2690 H2686 0.949 . S
C2690 C2698 1.574 . S
C2690 C2706 1.368 . S
H2691 C2699 0.950 . S
H2692 C2697 0.950 . S
H2693 C2698 0.949 . S
H2694 C2700 0.950 . S
H2695 C2701 0.950 . S
H2696 C2702 0.949 . S
C2697 H2692 0.950 . S
C2697 C2699 1.327 . S
C2697 C2703 1.429 . S
C2698 C2690 1.574 . S
C2698 H2693 0.949 . S
C2698 C2704 1.368 . S
C2699 C2683 1.349 . S
C2699 H2691 0.950 . S
C2699 C2697 1.327 . S
C2700 C2688 1.349 . S
C2700 H2694 0.950 . S
C2700 C2701 1.327 . S
C2701 H2695 0.950 . S
C2701 C2700 1.327 . S
C2701 C2705 1.429 . S
C2702 C2685 1.574 . S
C2702 H2696 0.949 . S
C2702 C2706 1.368 . S
C2703 C2684 1.429 . S
C2703 C2697 1.429 . S
C2703 C2704 1.523 . S
C2704 C2685 1.368 . S
C2704 C2698 1.368 . S
C2704 C2703 1.523 . S
C2705 C2689 1.429 . S
C2705 C2701 1.429 . S
C2705 C2706 1.523 . S
C2706 C2690 1.368 . S
C2706 C2702 1.368 . S
C2706 C2705 1.523 . S
H2707 C2682 0.950 . S
H2708 C2684 0.950 . S
H2709 C2685 0.949 . S
H2710 C2687 0.950 . S
H2711 C2689 0.950 . S
C2712 C2713 1.349 . S
C2712 C2714 1.327 . S
C2712 H2737 0.950 . S
C2713 C2712 1.349 . S
C2713 C2729 1.349 . S
C2714 C2712 1.327 . S
C2714 C2733 1.429 . S
C2714 H2738 0.950 . S
C2715 C2732 1.574 . S
C2715 C2734 1.368 . S
C2715 H2739 0.949 . S
H2716 C2720 0.949 . S
C2717 C2718 1.349 . S
C2717 C2719 1.327 . S
C2717 H2740 0.950 . S
C2718 C2717 1.349 . S
C2718 C2730 1.349 . S
C2719 C2717 1.327 . S
C2719 C2735 1.429 . S
C2719 H2741 0.950 . S
C2720 H2716 0.949 . S
C2720 C2728 1.574 . S
C2720 C2736 1.368 . S
H2721 C2729 0.950 . S
H2722 C2727 0.950 . S
H2723 C2728 0.949 . S
H2724 C2730 0.950 . S
H2725 C2731 0.950 . S
H2726 C2732 0.949 . S
C2727 H2722 0.950 . S
C2727 C2729 1.327 . S
C2727 C2733 1.429 . S
C2728 C2720 1.574 . S
C2728 H2723 0.949 . S
C2728 C2734 1.368 . S
C2729 C2713 1.349 . S
C2729 H2721 0.950 . S
C2729 C2727 1.327 . S
C2730 C2718 1.349 . S
C2730 H2724 0.950 . S
C2730 C2731 1.327 . S
C2731 H2725 0.950 . S
C2731 C2730 1.327 . S
C2731 C2735 1.429 . S
C2732 C2715 1.574 . S
C2732 H2726 0.949 . S
C2732 C2736 1.368 . S
C2733 C2714 1.429 . S
C2733 C2727 1.429 . S
C2733 C2734 1.523 . S
C2734 C2715 1.368 . S
C2734 C2728 1.368 . S
C2734 C2733 1.523 . S
C2735 C2719 1.429 . S
C2735 C2731 1.429 . S
C2735 C2736 1.523 . S
C2736 C2720 1.368 . S
C2736 C2732 1.368 . S
C2736 C2735 1.523 . S
H2737 C2712 0.950 . S
H2738 C2714 0.950 . S
H2739 C2715 0.949 . S
H2740 C2717 0.950 . S
H2741 C2719 0.950 . S
C2742 C2743 1.349 . S
C2742 C2744 1.327 . S
C2742 H2767 0.950 . S
C2743 C2742 1.349 . S
C2743 C2759 1.349 . S
C2744 C2742 1.327 . S
C2744 C2763 1.429 . S
C2744 H2768 0.950 . S
C2745 C2762 1.574 . S
C2745 C2764 1.368 . S
C2745 H2769 0.949 . S
H2746 C2750 0.949 . S
C2747 C2748 1.349 . S
C2747 C2749 1.327 . S
C2747 H2770 0.950 . S
C2748 C2747 1.349 . S
C2748 C2760 1.349 . S
C2749 C2747 1.327 . S
C2749 C2765 1.429 . S
C2749 H2771 0.950 . S
C2750 H2746 0.949 . S
C2750 C2758 1.574 . S
C2750 C2766 1.368 . S
H2751 C2759 0.950 . S
H2752 C2757 0.950 . S
H2753 C2758 0.949 . S
H2754 C2760 0.950 . S
H2755 C2761 0.950 . S
H2756 C2762 0.949 . S
C2757 H2752 0.950 . S
C2757 C2759 1.327 . S
C2757 C2763 1.429 . S
C2758 C2750 1.574 . S
C2758 H2753 0.949 . S
C2758 C2764 1.368 . S
C2759 C2743 1.349 . S
C2759 H2751 0.950 . S
C2759 C2757 1.327 . S
C2760 C2748 1.349 . S
C2760 H2754 0.950 . S
C2760 C2761 1.327 . S
C2761 H2755 0.950 . S
C2761 C2760 1.327 . S
C2761 C2765 1.429 . S
C2762 C2745 1.574 . S
C2762 H2756 0.949 . S
C2762 C2766 1.368 . S
C2763 C2744 1.429 . S
C2763 C2757 1.429 . S
C2763 C2764 1.523 . S
C2764 C2745 1.368 . S
C2764 C2758 1.368 . S
C2764 C2763 1.523 . S
C2765 C2749 1.429 . S
C2765 C2761 1.429 . S
C2765 C2766 1.523 . S
C2766 C2750 1.368 . S
C2766 C2762 1.368 . S
C2766 C2765 1.523 . S
H2767 C2742 0.950 . S
H2768 C2744 0.950 . S
H2769 C2745 0.949 . S
H2770 C2747 0.950 . S
H2771 C2749 0.950 . S
C2772 C2773 1.349 . S
C2772 C2774 1.327 . S
C2772 H2797 0.950 . S
C2773 C2772 1.349 . S
C2773 C2789 1.349 . S
C2774 C2772 1.327 . S
C2774 C2793 1.429 . S
C2774 H2798 0.950 . S
C2775 C2792 1.574 . S
C2775 C2794 1.368 . S
C2775 H2799 0.949 . S
H2776 C2780 0.949 . S
C2777 C2778 1.349 . S
C2777 C2779 1.327 . S
C2777 H2800 0.950 . S
C2778 C2777 1.349 . S
C2778 C2790 1.349 . S
C2779 C2777 1.327 . S
C2779 C2795 1.429 . S
C2779 H2801 0.950 . S
C2780 H2776 0.949 . S
C2780 C2788 1.574 . S
C2780 C2796 1.368 . S
H2781 C2789 0.950 . S
H2782 C2787 0.950 . S
H2783 C2788 0.949 . S
H2784 C2790 0.950 . S
H2785 C2791 0.950 . S
H2786 C2792 0.949 . S
C2787 H2782 0.950 . S
C2787 C2789 1.327 . S
C2787 C2793 1.429 . S
C2788 C2780 1.574 . S
C2788 H2783 0.949 . S
C2788 C2794 1.368 . S
C2789 C2773 1.349 . S
C2789 H2781 0.950 . S
C2789 C2787 1.327 . S
C2790 C2778 1.349 . S
C2790 H2784 0.950 . S
C2790 C2791 1.327 . S
C2791 H2785 0.950 . S
C2791 C2790 1.327 . S
C2791 C2795 1.429 . S
C2792 C2775 1.574 . S
C2792 H2786 0.949 . S
C2792 C2796 1.368 . S
C2793 C2774 1.429 . S
C2793 C2787 1.429 . S
C2793 C2794 1.523 . S
C2794 C2775 1.368 . S
C2794 C2788 1.368 . S
C2794 C2793 1.523 . S
C2795 C2779 1.429 . S
C2795 C2791 1.429 . S
C2795 C2796 1.523 . S
C2796 C2780 1.368 . S
C2796 C2792 1.368 . S
C2796 C2795 1.523 . S
H2797 C2772 0.950 . S
H2798 C2774 0.950 . S
H2799 C2775 0.949 . S
H2800 C2777 0.950 . S
H2801 C2779 0.950 . S
C2802 C2803 1.349 . S
C2802 C2804 1.327 . S
C2802 H2827 0.950 . S
C2803 C2802 1.349 . S
C2803 C2819 1.349 . S
C2804 C2802 1.327 . S
C2804 C2823 1.429 . S
C2804 H2828 0.950 . S
C2805 C2822 1.574 . S
C2805 C2824 1.368 . S
C2805 H2829 0.949 . S
H2806 C2810 0.949 . S
C2807 C2808 1.349 . S
C2807 C2809 1.327 . S
C2807 H2830 0.950 . S
C2808 C2807 1.349 . S
C2808 C2820 1.349 . S
C2809 C2807 1.327 . S
C2809 C2825 1.429 . S
C2809 H2831 0.950 . S
C2810 H2806 0.949 . S
C2810 C2818 1.574 . S
C2810 C2826 1.368 . S
H2811 C2819 0.950 . S
H2812 C2817 0.950 . S
H2813 C2818 0.949 . S
H2814 C2820 0.950 . S
H2815 C2821 0.950 . S
H2816 C2822 0.949 . S
C2817 H2812 0.950 . S
C2817 C2819 1.327 . S
C2817 C2823 1.429 . S
C2818 C2810 1.574 . S
C2818 H2813 0.949 . S
C2818 C2824 1.368 . S
C2819 C2803 1.349 . S
C2819 H2811 0.950 . S
C2819 C2817 1.327 . S
C2820 C2808 1.349 . S
C2820 H2814 0.950 . S
C2820 C2821 1.327 . S
C2821 H2815 0.950 . S
C2821 C2820 1.327 . S
C2821 C2825 1.429 . S
C2822 C2805 1.574 . S
C2822 H2816 0.949 . S
C2822 C2826 1.368 . S
C2823 C2804 1.429 . S
C2823 C2817 1.429 . S
C2823 C2824 1.523 . S
C2824 C2805 1.368 . S
C2824 C2818 1.368 . S
C2824 C2823 1.523 . S
C2825 C2809 1.429 . S
C2825 C2821 1.429 . S
C2825 C2826 1.523 . S
C2826 C2810 1.368 . S
C2826 C2822 1.368 . S
C2826 C2825 1.523 . S
H2827 C2802 0.950 . S
H2828 C2804 0.950 . S
H2829 C2805 0.949 . S
H2830 C2807 0.950 . S
H2831 C2809 0.950 . S
C2832 C2833 1.349 . S
C2832 C2834 1.327 . S
C2832 H2857 0.950 . S
C2833 C2832 1.349 . S
C2833 C2849 1.349 . S
C2834 C2832 1.327 . S
C2834 C2853 1.429 . S
C2834 H2858 0.950 . S
C2835 C2852 1.574 . S
C2835 C2854 1.368 . S
C2835 H2859 0.949 . S
H2836 C2840 0.949 . S
C2837 C2838 1.349 . S
C2837 C2839 1.327 . S
C2837 H2860 0.950 . S
C2838 C2837 1.349 . S
C2838 C2850 1.349 . S
C2839 C2837 1.327 . S
C2839 C2855 1.429 . S
C2839 H2861 0.950 . S
C2840 H2836 0.949 . S
C2840 C2848 1.574 . S
C2840 C2856 1.368 . S
H2841 C2849 0.950 . S
H2842 C2847 0.950 . S
H2843 C2848 0.949 . S
H2844 C2850 0.950 . S
H2845 C2851 0.950 . S
H2846 C2852 0.949 . S
C2847 H2842 0.950 . S
C2847 C2849 1.327 . S
C2847 C2853 1.429 . S
C2848 C2840 1.574 . S
C2848 H2843 0.949 . S
C2848 C2854 1.368 . S
C2849 C2833 1.349 . S
C2849 H2841 0.950 . S
C2849 C2847 1.327 . S
C2850 C2838 1.349 . S
C2850 H2844 0.950 . S
C2850 C2851 1.327 . S
C2851 H2845 0.950 . S
C2851 C2850 1.327 . S
C2851 C2855 1.429 . S
C2852 C2835 1.574 . S
C2852 H2846 0.949 . S
C2852 C2856 1.368 . S
C2853 C2834 1.429 . S
C2853 C2847 1.429 . S
C2853 C2854 1.523 . S
C2854 C2835 1.368 . S
C2854 C2848 1.368 . S
C2854 C2853 1.523 . S
C2855 C2839 1.429 . S
C2855 C2851 1.429 . S
C2855 C2856 1.523 . S
C2856 C2840 1.368 . S
C2856 C2852 1.368 . S
C2856 C2855 1.523 . S
H2857 C2832 0.950 . S
H2858 C2834 0.950 . S
H2859 C2835 0.949 . S
H2860 C2837 0.950 . S
H2861 C2839 0.950 . S
C2862 C2863 1.349 . S
C2862 C2864 1.327 . S
C2862 H2887 0.950 . S
C2863 C2862 1.349 . S
C2863 C2879 1.349 . S
C2864 C2862 1.327 . S
C2864 C2883 1.429 . S
C2864 H2888 0.950 . S
C2865 C2882 1.574 . S
C2865 C2884 1.368 . S
C2865 H2889 0.949 . S
H2866 C2870 0.949 . S
C2867 C2868 1.349 . S
C2867 C2869 1.327 . S
C2867 H2890 0.950 . S
C2868 C2867 1.349 . S
C2868 C2880 1.349 . S
C2869 C2867 1.327 . S
C2869 C2885 1.429 . S
C2869 H2891 0.950 . S
C2870 H2866 0.949 . S
C2870 C2878 1.574 . S
C2870 C2886 1.368 . S
H2871 C2879 0.950 . S
H2872 C2877 0.950 . S
H2873 C2878 0.949 . S
H2874 C2880 0.950 . S
H2875 C2881 0.950 . S
H2876 C2882 0.949 . S
C2877 H2872 0.950 . S
C2877 C2879 1.327 . S
C2877 C2883 1.429 . S
C2878 C2870 1.574 . S
C2878 H2873 0.949 . S
C2878 C2884 1.368 . S
C2879 C2863 1.349 . S
C2879 H2871 0.950 . S
C2879 C2877 1.327 . S
C2880 C2868 1.349 . S
C2880 H2874 0.950 . S
C2880 C2881 1.327 . S
C2881 H2875 0.950 . S
C2881 C2880 1.327 . S
C2881 C2885 1.429 . S
C2882 C2865 1.574 . S
C2882 H2876 0.949 . S
C2882 C2886 1.368 . S
C2883 C2864 1.429 . S
C2883 C2877 1.429 . S
C2883 C2884 1.523 . S
C2884 C2865 1.368 . S
C2884 C2878 1.368 . S
C2884 C2883 1.523 . S
C2885 C2869 1.429 . S
C2885 C2881 1.429 . S
C2885 C2886 1.523 . S
C2886 C2870 1.368 . S
C2886 C2882 1.368 . S
C2886 C2885 1.523 . S
H2887 C2862 0.950 . S
H2888 C2864 0.950 . S
H2889 C2865 0.949 . S
H2890 C2867 0.950 . S
H2891 C2869 0.950 . S
C2892 C2893 1.349 . S
C2892 C2894 1.327 . S
C2892 H2917 0.950 . S
C2893 C2892 1.349 . S
C2893 C2909 1.349 . S
C2894 C2892 1.327 . S
C2894 C2913 1.429 . S
C2894 H2918 0.950 . S
C2895 C2912 1.574 . S
C2895 C2914 1.368 . S
C2895 H2919 0.949 . S
H2896 C2900 0.949 . S
C2897 C2898 1.349 . S
C2897 C2899 1.327 . S
C2897 H2920 0.950 . S
C2898 C2897 1.349 . S
C2898 C2910 1.349 . S
C2899 C2897 1.327 . S
C2899 C2915 1.429 . S
C2899 H2921 0.950 . S
C2900 H2896 0.949 . S
C2900 C2908 1.574 . S
C2900 C2916 1.368 . S
H2901 C2909 0.950 . S
H2902 C2907 0.950 . S
H2903 C2908 0.949 . S
H2904 C2910 0.950 . S
H2905 C2911 0.950 . S
H2906 C2912 0.949 . S
C2907 H2902 0.950 . S
C2907 C2909 1.327 . S
C2907 C2913 1.429 . S
C2908 C2900 1.574 . S
C2908 H2903 0.949 . S
C2908 C2914 1.368 . S
C2909 C2893 1.349 . S
C2909 H2901 0.950 . S
C2909 C2907 1.327 . S
C2910 C2898 1.349 . S
C2910 H2904 0.950 . S
C2910 C2911 1.327 . S
C2911 H2905 0.950 . S
C2911 C2910 1.327 . S
C2911 C2915 1.429 . S
C2912 C2895 1.574 . S
C2912 H2906 0.949 . S
C2912 C2916 1.368 . S
C2913 C2894 1.429 . S
C2913 C2907 1.429 . S
C2913 C2914 1.523 . S
C2914 C2895 1.368 . S
C2914 C2908 1.368 . S
C2914 C2913 1.523 . S
C2915 C2899 1.429 . S
C2915 C2911 1.429 . S
C2915 C2916 1.523 . S
C2916 C2900 1.368 . S
C2916 C2912 1.368 . S
C2916 C2915 1.523 . S
H2917 C2892 0.950 . S
H2918 C2894 0.950 . S
H2919 C2895 0.949 . S
H2920 C2897 0.950 . S
H2921 C2899 0.950 . S
C2922 C2923 1.349 . S
C2922 C2924 1.327 . S
C2922 H2947 0.950 . S
C2923 C2922 1.349 . S
C2923 C2939 1.349 . S
C2924 C2922 1.327 . S
C2924 C2943 1.429 . S
C2924 H2948 0.950 . S
C2925 C2942 1.574 . S
C2925 C2944 1.368 . S
C2925 H2949 0.949 . S
H2926 C2930 0.949 . S
C2927 C2928 1.349 . S
C2927 C2929 1.327 . S
C2927 H2950 0.950 . S
C2928 C2927 1.349 . S
C2928 C2940 1.349 . S
C2929 C2927 1.327 . S
C2929 C2945 1.429 . S
C2929 H2951 0.950 . S
C2930 H2926 0.949 . S
C2930 C2938 1.574 . S
C2930 C2946 1.368 . S
H2931 C2939 0.950 . S
H2932 C2937 0.950 . S
H2933 C2938 0.949 . S
H2934 C2940 0.950 . S
H2935 C2941 0.950 . S
H2936 C2942 0.949 . S
C2937 H2932 0.950 . S
C2937 C2939 1.327 . S
C2937 C2943 1.429 . S
C2938 C2930 1.574 . S
C2938 H2933 0.949 . S
C2938 C2944 1.368 . S
C2939 C2923 1.349 . S
C2939 H2931 0.950 . S
C2939 C2937 1.327 . S
C2940 C2928 1.349 . S
C2940 H2934 0.950 . S
C2940 C2941 1.327 . S
C2941 H2935 0.950 . S
C2941 C2940 1.327 . S
C2941 C2945 1.429 . S
C2942 C2925 1.574 . S
C2942 H2936 0.949 . S
C2942 C2946 1.368 . S
C2943 C2924 1.429 . S
C2943 C2937 1.429 . S
C2943 C2944 1.523 . S
C2944 C2925 1.368 . S
C2944 C2938 1.368 . S
C2944 C2943 1.523 . S
C2945 C2929 1.429 . S
C2945 C2941 1.429 . S
C2945 C2946 1.523 . S
C2946 C2930 1.368 . S
C2946 C2942 1.368 . S
C2946 C2945 1.523 . S
H2947 C2922 0.950 . S
H2948 C2924 0.950 . S
H2949 C2925 0.949 . S
H2950 C2927 0.950 . S
H2951 C2929 0.950 . S
C2952 C2953 1.349 . S
C2952 C2954 1.327 . S
C2952 H2977 0.950 . S
C2953 C2952 1.349 . S
C2953 C2969 1.349 . S
C2954 C2952 1.327 . S
C2954 C2973 1.429 . S
C2954 H2978 0.950 . S
C2955 C2972 1.574 . S
C2955 C2974 1.368 . S
C2955 H2979 0.949 . S
H2956 C2960 0.949 . S
C2957 C2958 1.349 . S
C2957 C2959 1.327 . S
C2957 H2980 0.950 . S
C2958 C2957 1.349 . S
C2958 C2970 1.349 . S
C2959 C2957 1.327 . S
C2959 C2975 1.429 . S
C2959 H2981 0.950 . S
C2960 H2956 0.949 . S
C2960 C2968 1.574 . S
C2960 C2976 1.368 . S
H2961 C2969 0.950 . S
H2962 C2967 0.950 . S
H2963 C2968 0.949 . S
H2964 C2970 0.950 . S
H2965 C2971 0.950 . S
H2966 C2972 0.949 . S
C2967 H2962 0.950 . S
C2967 C2969 1.327 . S
C2967 C2973 1.429 . S
C2968 C2960 1.574 . S
C2968 H2963 0.949 . S
C2968 C2974 1.368 . S
C2969 C2953 1.349 . S
C2969 H2961 0.950 . S
C2969 C2967 1.327 . S
C2970 C2958 1.349 . S
C2970 H2964 0.950 . S
C2970 C2971 1.327 . S
C2971 H2965 0.950 . S
C2971 C2970 1.327 . S
C2971 C2975 1.429 . S
C2972 C2955 1.574 . S
C2972 H2966 0.949 . S
C2972 C2976 1.368 . S
C2973 C2954 1.429 . S
C2973 C2967 1.429 . S
C2973 C2974 1.523 . S
C2974 C2955 1.368 . S
C2974 C2968 1.368 . S
C2974 C2973 1.523 . S
C2975 C2959 1.429 . S
C2975 C2971 1.429 . S
C2975 C2976 1.523 . S
C2976 C2960 1.368 . S
C2976 C2972 1.368 . S
C2976 C2975 1.523 . S
H2977 C2952 0.950 . S
H2978 C2954 0.950 . S
H2979 C2955 0.949 . S
H2980 C2957 0.950 . S
H2981 C2959 0.950 . S
C2982 C2983 1.349 . S
C2982 C2984 1.327 . S
C2982 H3007 0.950 . S
C2983 C2982 1.349 . S
C2983 C2999 1.349 . S
C2984 C2982 1.327 . S
C2984 C3003 1.429 . S
C2984 H3008 0.950 . S
C2985 C3002 1.574 . S
C2985 C3004 1.368 . S
C2985 H3009 0.949 . S
H2986 C2990 0.949 . S
C2987 C2988 1.349 . S
C2987 C2989 1.327 . S
C2987 H3010 0.950 . S
C2988 C2987 1.349 . S
C2988 C3000 1.349 . S
C2989 C2987 1.327 . S
C2989 C3005 1.429 . S
C2989 H3011 0.950 . S
C2990 H2986 0.949 . S
C2990 C2998 1.574 . S
C2990 C3006 1.368 . S
H2991 C2999 0.950 . S
H2992 C2997 0.950 . S
H2993 C2998 0.949 . S
H2994 C3000 0.950 . S
H2995 C3001 0.950 . S
H2996 C3002 0.949 . S
C2997 H2992 0.950 . S
C2997 C2999 1.327 . S
C2997 C3003 1.429 . S
C2998 C2990 1.574 . S
C2998 H2993 0.949 . S
C2998 C3004 1.368 . S
C2999 C2983 1.349 . S
C2999 H2991 0.950 . S
C2999 C2997 1.327 . S
C3000 C2988 1.349 . S
C3000 H2994 0.950 . S
C3000 C3001 1.327 . S
C3001 H2995 0.950 . S
C3001 C3000 1.327 . S
C3001 C3005 1.429 . S
C3002 C2985 1.574 . S
C3002 H2996 0.949 . S
C3002 C3006 1.368 . S
C3003 C2984 1.429 . S
C3003 C2997 1.429 . S
C3003 C3004 1.523 . S
C3004 C2985 1.368 . S
C3004 C2998 1.368 . S
C3004 C3003 1.523 . S
C3005 C2989 1.429 . S
C3005 C3001 1.429 . S
C3005 C3006 1.523 . S
C3006 C2990 1.368 . S
C3006 C3002 1.368 . S
C3006 C3005 1.523 . S
H3007 C2982 0.950 . S
H3008 C2984 0.950 . S
H3009 C2985 0.949 . S
H3010 C2987 0.950 . S
H3011 C2989 0.950 . S
C3012 C3013 1.349 . S
C3012 C3014 1.327 . S
C3012 H3037 0.950 . S
C3013 C3012 1.349 . S
C3013 C3029 1.349 . S
C3014 C3012 1.327 . S
C3014 C3033 1.429 . S
C3014 H3038 0.950 . S
C3015 C3032 1.574 . S
C3015 C3034 1.368 . S
C3015 H3039 0.949 . S
H3016 C3020 0.949 . S
C3017 C3018 1.349 . S
C3017 C3019 1.327 . S
C3017 H3040 0.950 . S
C3018 C3017 1.349 . S
C3018 C3030 1.349 . S
C3019 C3017 1.327 . S
C3019 C3035 1.429 . S
C3019 H3041 0.950 . S
C3020 H3016 0.949 . S
C3020 C3028 1.574 . S
C3020 C3036 1.368 . S
H3021 C3029 0.950 . S
H3022 C3027 0.950 . S
H3023 C3028 0.949 . S
H3024 C3030 0.950 . S
H3025 C3031 0.950 . S
H3026 C3032 0.949 . S
C3027 H3022 0.950 . S
C3027 C3029 1.327 . S
C3027 C3033 1.429 . S
C3028 C3020 1.574 . S
C3028 H3023 0.949 . S
C3028 C3034 1.368 . S
C3029 C3013 1.349 . S
C3029 H3021 0.950 . S
C3029 C3027 1.327 . S
C3030 C3018 1.349 . S
C3030 H3024 0.950 . S
C3030 C3031 1.327 . S
C3031 H3025 0.950 . S
C3031 C3030 1.327 . S
C3031 C3035 1.429 . S
C3032 C3015 1.574 . S
C3032 H3026 0.949 . S
C3032 C3036 1.368 . S
C3033 C3014 1.429 . S
C3033 C3027 1.429 . S
C3033 C3034 1.523 . S
C3034 C3015 1.368 . S
C3034 C3028 1.368 . S
C3034 C3033 1.523 . S
C3035 C3019 1.429 . S
C3035 C3031 1.429 . S
C3035 C3036 1.523 . S
C3036 C3020 1.368 . S
C3036 C3032 1.368 . S
C3036 C3035 1.523 . S
H3037 C3012 0.950 . S
H3038 C3014 0.950 . S
H3039 C3015 0.949 . S
H3040 C3017 0.950 . S
H3041 C3019 0.950 . S
C3042 C3043 1.349 . S
C3042 C3044 1.327 . S
C3042 H3067 0.950 . S
C3043 C3042 1.349 . S
C3043 C3059 1.349 . S
C3044 C3042 1.327 . S
C3044 C3063 1.429 . S
C3044 H3068 0.950 . S
C3045 C3062 1.574 . S
C3045 C3064 1.368 . S
C3045 H3069 0.949 . S
H3046 C3050 0.949 . S
C3047 C3048 1.349 . S
C3047 C3049 1.327 . S
C3047 H3070 0.950 . S
C3048 C3047 1.349 . S
C3048 C3060 1.349 . S
C3049 C3047 1.327 . S
C3049 C3065 1.429 . S
C3049 H3071 0.950 . S
C3050 H3046 0.949 . S
C3050 C3058 1.574 . S
C3050 C3066 1.368 . S
H3051 C3059 0.950 . S
H3052 C3057 0.950 . S
H3053 C3058 0.949 . S
H3054 C3060 0.950 . S
H3055 C3061 0.950 . S
H3056 C3062 0.949 . S
C3057 H3052 0.950 . S
C3057 C3059 1.327 . S
C3057 C3063 1.429 . S
C3058 C3050 1.574 . S
C3058 H3053 0.949 . S
C3058 C3064 1.368 . S
C3059 C3043 1.349 . S
C3059 H3051 0.950 . S
C3059 C3057 1.327 . S
C3060 C3048 1.349 . S
C3060 H3054 0.950 . S
C3060 C3061 1.327 . S
C3061 H3055 0.950 . S
C3061 C3060 1.327 . S
C3061 C3065 1.429 . S
C3062 C3045 1.574 . S
C3062 H3056 0.949 . S
C3062 C3066 1.368 . S
C3063 C3044 1.429 . S
C3063 C3057 1.429 . S
C3063 C3064 1.523 . S
C3064 C3045 1.368 . S
C3064 C3058 1.368 . S
C3064 C3063 1.523 . S
C3065 C3049 1.429 . S
C3065 C3061 1.429 . S
C3065 C3066 1.523 . S
C3066 C3050 1.368 . S
C3066 C3062 1.368 . S
C3066 C3065 1.523 . S
H3067 C3042 0.950 . S
H3068 C3044 0.950 . S
H3069 C3045 0.949 . S
H3070 C3047 0.950 . S
H3071 C3049 0.950 . S
C3072 C3073 1.349 . S
C3072 C3074 1.327 . S
C3072 H3097 0.950 . S
C3073 C3072 1.349 . S
C3073 C3089 1.349 . S
C3074 C3072 1.327 . S
C3074 C3093 1.429 . S
C3074 H3098 0.950 . S
C3075 C3092 1.574 . S
C3075 C3094 1.368 . S
C3075 H3099 0.949 . S
H3076 C3080 0.949 . S
C3077 C3078 1.349 . S
C3077 C3079 1.327 . S
C3077 H3100 0.950 . S
C3078 C3077 1.349 . S
C3078 C3090 1.349 . S
C3079 C3077 1.327 . S
C3079 C3095 1.429 . S
C3079 H3101 0.950 . S
C3080 H3076 0.949 . S
C3080 C3088 1.574 . S
C3080 C3096 1.368 . S
H3081 C3089 0.950 . S
H3082 C3087 0.950 . S
H3083 C3088 0.949 . S
H3084 C3090 0.950 . S
H3085 C3091 0.950 . S
H3086 C3092 0.949 . S
C3087 H3082 0.950 . S
C3087 C3089 1.327 . S
C3087 C3093 1.429 . S
C3088 C3080 1.574 . S
C3088 H3083 0.949 . S
C3088 C3094 1.368 . S
C3089 C3073 1.349 . S
C3089 H3081 0.950 . S
C3089 C3087 1.327 . S
C3090 C3078 1.349 . S
C3090 H3084 0.950 . S
C3090 C3091 1.327 . S
C3091 H3085 0.950 . S
C3091 C3090 1.327 . S
C3091 C3095 1.429 . S
C3092 C3075 1.574 . S
C3092 H3086 0.949 . S
C3092 C3096 1.368 . S
C3093 C3074 1.429 . S
C3093 C3087 1.429 . S
C3093 C3094 1.523 . S
C3094 C3075 1.368 . S
C3094 C3088 1.368 . S
C3094 C3093 1.523 . S
C3095 C3079 1.429 . S
C3095 C3091 1.429 . S
C3095 C3096 1.523 . S
C3096 C3080 1.368 . S
C3096 C3092 1.368 . S
C3096 C3095 1.523 . S
H3097 C3072 0.950 . S
H3098 C3074 0.950 . S
H3099 C3075 0.949 . S
H3100 C3077 0.950 . S
H3101 C3079 0.950 . S
C3102 C3103 1.349 . S
C3102 C3104 1.327 . S
C3102 H3127 0.950 . S
C3103 C3102 1.349 . S
C3103 C3119 1.349 . S
C3104 C3102 1.327 . S
C3104 C3123 1.429 . S
C3104 H3128 0.950 . S
C3105 C3122 1.574 . S
C3105 C3124 1.368 . S
C3105 H3129 0.949 . S
H3106 C3110 0.949 . S
C3107 C3108 1.349 . S
C3107 C3109 1.327 . S
C3107 H3130 0.950 . S
C3108 C3107 1.349 . S
C3108 C3120 1.349 . S
C3109 C3107 1.327 . S
C3109 C3125 1.429 . S
C3109 H3131 0.950 . S
C3110 H3106 0.949 . S
C3110 C3118 1.574 . S
C3110 C3126 1.368 . S
H3111 C3119 0.950 . S
H3112 C3117 0.950 . S
H3113 C3118 0.949 . S
H3114 C3120 0.950 . S
H3115 C3121 0.950 . S
H3116 C3122 0.949 . S
C3117 H3112 0.950 . S
C3117 C3119 1.327 . S
C3117 C3123 1.429 . S
C3118 C3110 1.574 . S
C3118 H3113 0.949 . S
C3118 C3124 1.368 . S
C3119 C3103 1.349 . S
C3119 H3111 0.950 . S
C3119 C3117 1.327 . S
C3120 C3108 1.349 . S
C3120 H3114 0.950 . S
C3120 C3121 1.327 . S
C3121 H3115 0.950 . S
C3121 C3120 1.327 . S
C3121 C3125 1.429 . S
C3122 C3105 1.574 . S
C3122 H3116 0.949 . S
C3122 C3126 1.368 . S
C3123 C3104 1.429 . S
C3123 C3117 1.429 . S
C3123 C3124 1.523 . S
C3124 C3105 1.368 . S
C3124 C3118 1.368 . S
C3124 C3123 1.523 . S
C3125 C3109 1.429 . S
C3125 C3121 1.429 . S
C3125 C3126 1.523 . S
C3126 C3110 1.368 . S
C3126 C3122 1.368 . S
C3126 C3125 1.523 . S
H3127 C3102 0.950 . S
H3128 C3104 0.950 . S
H3129 C3105 0.949 . S
H3130 C3107 0.950 . S
H3131 C3109 0.950 . S
C3132 C3133 1.349 . S
C3132 C3134 1.327 . S
C3132 H3157 0.950 . S
C3133 C3132 1.349 . S
C3133 C3149 1.349 . S
C3134 C3132 1.327 . S
C3134 C3153 1.429 . S
C3134 H3158 0.950 . S
C3135 C3152 1.574 . S
C3135 C3154 1.368 . S
C3135 H3159 0.949 . S
H3136 C3140 0.949 . S
C3137 C3138 1.349 . S
C3137 C3139 1.327 . S
C3137 H3160 0.950 . S
C3138 C3137 1.349 . S
C3138 C3150 1.349 . S
C3139 C3137 1.327 . S
C3139 C3155 1.429 . S
C3139 H3161 0.950 . S
C3140 H3136 0.949 . S
C3140 C3148 1.574 . S
C3140 C3156 1.368 . S
H3141 C3149 0.950 . S
H3142 C3147 0.950 . S
H3143 C3148 0.949 . S
H3144 C3150 0.950 . S
H3145 C3151 0.950 . S
H3146 C3152 0.949 . S
C3147 H3142 0.950 . S
C3147 C3149 1.327 . S
C3147 C3153 1.429 . S
C3148 C3140 1.574 . S
C3148 H3143 0.949 . S
C3148 C3154 1.368 . S
C3149 C3133 1.349 . S
C3149 H3141 0.950 . S
C3149 C3147 1.327 . S
C3150 C3138 1.349 . S
C3150 H3144 0.950 . S
C3150 C3151 1.327 . S
C3151 H3145 0.950 . S
C3151 C3150 1.327 . S
C3151 C3155 1.429 . S
C3152 C3135 1.574 . S
C3152 H3146 0.949 . S
C3152 C3156 1.368 . S
C3153 C3134 1.429 . S
C3153 C3147 1.429 . S
C3153 C3154 1.523 . S
C3154 C3135 1.368 . S
C3154 C3148 1.368 . S
C3154 C3153 1.523 . S
C3155 C3139 1.429 . S
C3155 C3151 1.429 . S
C3155 C3156 1.523 . S
C3156 C3140 1.368 . S
C3156 C3152 1.368 . S
C3156 C3155 1.523 . S
H3157 C3132 0.950 . S
H3158 C3134 0.950 . S
H3159 C3135 0.949 . S
H3160 C3137 0.950 . S
H3161 C3139 0.950 . S
C3162 C3163 1.349 . S
C3162 C3164 1.327 . S
C3162 H3187 0.950 . S
C3163 C3162 1.349 . S
C3163 C3179 1.349 . S
C3164 C3162 1.327 . S
C3164 C3183 1.429 . S
C3164 H3188 0.950 . S
C3165 C3182 1.574 . S
C3165 C3184 1.368 . S
C3165 H3189 0.949 . S
H3166 C3170 0.949 . S
C3167 C3168 1.349 . S
C3167 C3169 1.327 . S
C3167 H3190 0.950 . S
C3168 C3167 1.349 . S
C3168 C3180 1.349 . S
C3169 C3167 1.327 . S
C3169 C3185 1.429 . S
C3169 H3191 0.950 . S
C3170 H3166 0.949 . S
C3170 C3178 1.574 . S
C3170 C3186 1.368 . S
H3171 C3179 0.950 . S
H3172 C3177 0.950 . S
H3173 C3178 0.949 . S
H3174 C3180 0.950 . S
H3175 C3181 0.950 . S
H3176 C3182 0.949 . S
C3177 H3172 0.950 . S
C3177 C3179 1.327 . S
C3177 C3183 1.429 . S
C3178 C3170 1.574 . S
C3178 H3173 0.949 . S
C3178 C3184 1.368 . S
C3179 C3163 1.349 . S
C3179 H3171 0.950 . S
C3179 C3177 1.327 . S
C3180 C3168 1.349 . S
C3180 H3174 0.950 . S
C3180 C3181 1.327 . S
C3181 H3175 0.950 . S
C3181 C3180 1.327 . S
C3181 C3185 1.429 . S
C3182 C3165 1.574 . S
C3182 H3176 0.949 . S
C3182 C3186 1.368 . S
C3183 C3164 1.429 . S
C3183 C3177 1.429 . S
C3183 C3184 1.523 . S
C3184 C3165 1.368 . S
C3184 C3178 1.368 . S
C3184 C3183 1.523 . S
C3185 C3169 1.429 . S
C3185 C3181 1.429 . S
C3185 C3186 1.523 . S
C3186 C3170 1.368 . S
C3186 C3182 1.368 . S
C3186 C3185 1.523 . S
H3187 C3162 0.950 . S
H3188 C3164 0.950 . S
H3189 C3165 0.949 . S
H3190 C3167 0.950 . S
H3191 C3169 0.950 . S
C3192 C3193 1.349 . S
C3192 C3194 1.327 . S
C3192 H3217 0.950 . S
C3193 C3192 1.349 . S
C3193 C3209 1.349 . S
C3194 C3192 1.327 . S
C3194 C3213 1.429 . S
C3194 H3218 0.950 . S
C3195 C3212 1.574 . S
C3195 C3214 1.368 . S
C3195 H3219 0.949 . S
H3196 C3200 0.949 . S
C3197 C3198 1.349 . S
C3197 C3199 1.327 . S
C3197 H3220 0.950 . S
C3198 C3197 1.349 . S
C3198 C3210 1.349 . S
C3199 C3197 1.327 . S
C3199 C3215 1.429 . S
C3199 H3221 0.950 . S
C3200 H3196 0.949 . S
C3200 C3208 1.574 . S
C3200 C3216 1.368 . S
H3201 C3209 0.950 . S
H3202 C3207 0.950 . S
H3203 C3208 0.949 . S
H3204 C3210 0.950 . S
H3205 C3211 0.950 . S
H3206 C3212 0.949 . S
C3207 H3202 0.950 . S
C3207 C3209 1.327 . S
C3207 C3213 1.429 . S
C3208 C3200 1.574 . S
C3208 H3203 0.949 . S
C3208 C3214 1.368 . S
C3209 C3193 1.349 . S
C3209 H3201 0.950 . S
C3209 C3207 1.327 . S
C3210 C3198 1.349 . S
C3210 H3204 0.950 . S
C3210 C3211 1.327 . S
C3211 H3205 0.950 . S
C3211 C3210 1.327 . S
C3211 C3215 1.429 . S
C3212 C3195 1.574 . S
C3212 H3206 0.949 . S
C3212 C3216 1.368 . S
C3213 C3194 1.429 . S
C3213 C3207 1.429 . S
C3213 C3214 1.523 . S
C3214 C3195 1.368 . S
C3214 C3208 1.368 . S
C3214 C3213 1.523 . S
C3215 C3199 1.429 . S
C3215 C3211 1.429 . S
C3215 C3216 1.523 . S
C3216 C3200 1.368 . S
C3216 C3212 1.368 . S
C3216 C3215 1.523 . S
H3217 C3192 0.950 . S
H3218 C3194 0.950 . S
H3219 C3195 0.949 . S
H3220 C3197 0.950 . S
H3221 C3199 0.950 . S
C3222 C3223 1.349 . S
C3222 C3224 1.327 . S
C3222 H3247 0.950 . S
C3223 C3222 1.349 . S
C3223 C3239 1.349 . S
C3224 C3222 1.327 . S
C3224 C3243 1.429 . S
C3224 H3248 0.950 . S
C3225 C3242 1.574 . S
C3225 C3244 1.368 . S
C3225 H3249 0.949 . S
H3226 C3230 0.949 . S
C3227 C3228 1.349 . S
C3227 C3229 1.327 . S
C3227 H3250 0.950 . S
C3228 C3227 1.349 . S
C3228 C3240 1.349 . S
C3229 C3227 1.327 . S
C3229 C3245 1.429 . S
C3229 H3251 0.950 . S
C3230 H3226 0.949 . S
C3230 C3238 1.574 . S
C3230 C3246 1.368 . S
H3231 C3239 0.950 . S
H3232 C3237 0.950 . S
H3233 C3238 0.949 . S
H3234 C3240 0.950 . S
H3235 C3241 0.950 . S
H3236 C3242 0.949 . S
C3237 H3232 0.950 . S
C3237 C3239 1.327 . S
C3237 C3243 1.429 . S
C3238 C3230 1.574 . S
C3238 H3233 0.949 . S
C3238 C3244 1.368 . S
C3239 C3223 1.349 . S
C3239 H3231 0.950 . S
C3239 C3237 1.327 . S
C3240 C3228 1.349 . S
C3240 H3234 0.950 . S
C3240 C3241 1.327 . S
C3241 H3235 0.950 . S
C3241 C3240 1.327 . S
C3241 C3245 1.429 . S
C3242 C3225 1.574 . S
C3242 H3236 0.949 . S
C3242 C3246 1.368 . S
C3243 C3224 1.429 . S
C3243 C3237 1.429 . S
C3243 C3244 1.523 . S
C3244 C3225 1.368 . S
C3244 C3238 1.368 . S
C3244 C3243 1.523 . S
C3245 C3229 1.429 . S
C3245 C3241 1.429 . S
C3245 C3246 1.523 . S
C3246 C3230 1.368 . S
C3246 C3242 1.368 . S
C3246 C3245 1.523 . S
H3247 C3222 0.950 . S
H3248 C3224 0.950 . S
H3249 C3225 0.949 . S
H3250 C3227 0.950 . S
H3251 C3229 0.950 . S
C3252 C3253 1.349 . S
C3252 C3254 1.327 . S
C3252 H3277 0.950 . S
C3253 C3252 1.349 . S
C3253 C3269 1.349 . S
C3254 C3252 1.327 . S
C3254 C3273 1.429 . S
C3254 H3278 0.950 . S
C3255 C3272 1.574 . S
C3255 C3274 1.368 . S
C3255 H3279 0.949 . S
H3256 C3260 0.949 . S
C3257 C3258 1.349 . S
C3257 C3259 1.327 . S
C3257 H3280 0.950 . S
C3258 C3257 1.349 . S
C3258 C3270 1.349 . S
C3259 C3257 1.327 . S
C3259 C3275 1.429 . S
C3259 H3281 0.950 . S
C3260 H3256 0.949 . S
C3260 C3268 1.574 . S
C3260 C3276 1.368 . S
H3261 C3269 0.950 . S
H3262 C3267 0.950 . S
H3263 C3268 0.949 . S
H3264 C3270 0.950 . S
H3265 C3271 0.950 . S
H3266 C3272 0.949 . S
C3267 H3262 0.950 . S
C3267 C3269 1.327 . S
C3267 C3273 1.429 . S
C3268 C3260 1.574 . S
C3268 H3263 0.949 . S
C3268 C3274 1.368 . S
C3269 C3253 1.349 . S
C3269 H3261 0.950 . S
C3269 C3267 1.327 . S
C3270 C3258 1.349 . S
C3270 H3264 0.950 . S
C3270 C3271 1.327 . S
C3271 H3265 0.950 . S
C3271 C3270 1.327 . S
C3271 C3275 1.429 . S
C3272 C3255 1.574 . S
C3272 H3266 0.949 . S
C3272 C3276 1.368 . S
C3273 C3254 1.429 . S
C3273 C3267 1.429 . S
C3273 C3274 1.523 . S
C3274 C3255 1.368 . S
C3274 C3268 1.368 . S
C3274 C3273 1.523 . S
C3275 C3259 1.429 . S
C3275 C3271 1.429 . S
C3275 C3276 1.523 . S
C3276 C3260 1.368 . S
C3276 C3272 1.368 . S
C3276 C3275 1.523 . S
H3277 C3252 0.950 . S
H3278 C3254 0.950 . S
H3279 C3255 0.949 . S
H3280 C3257 0.950 . S
H3281 C3259 0.950 . S
C3282 C3283 1.349 . S
C3282 C3284 1.327 . S
C3282 H3307 0.950 . S
C3283 C3282 1.349 . S
C3283 C3299 1.349 . S
C3284 C3282 1.327 . S
C3284 C3303 1.429 . S
C3284 H3308 0.950 . S
C3285 C3302 1.574 . S
C3285 C3304 1.368 . S
C3285 H3309 0.949 . S
H3286 C3290 0.949 . S
C3287 C3288 1.349 . S
C3287 C3289 1.327 . S
C3287 H3310 0.950 . S
C3288 C3287 1.349 . S
C3288 C3300 1.349 . S
C3289 C3287 1.327 . S
C3289 C3305 1.429 . S
C3289 H3311 0.950 . S
C3290 H3286 0.949 . S
C3290 C3298 1.574 . S
C3290 C3306 1.368 . S
H3291 C3299 0.950 . S
H3292 C3297 0.950 . S
H3293 C3298 0.949 . S
H3294 C3300 0.950 . S
H3295 C3301 0.950 . S
H3296 C3302 0.949 . S
C3297 H3292 0.950 . S
C3297 C3299 1.327 . S
C3297 C3303 1.429 . S
C3298 C3290 1.574 . S
C3298 H3293 0.949 . S
C3298 C3304 1.368 . S
C3299 C3283 1.349 . S
C3299 H3291 0.950 . S
C3299 C3297 1.327 . S
C3300 C3288 1.349 . S
C3300 H3294 0.950 . S
C3300 C3301 1.327 . S
C3301 H3295 0.950 . S
C3301 C3300 1.327 . S
C3301 C3305 1.429 . S
C3302 C3285 1.574 . S
C3302 H3296 0.949 . S
C3302 C3306 1.368 . S
C3303 C3284 1.429 . S
C3303 C3297 1.429 . S
C3303 C3304 1.523 . S
C3304 C3285 1.368 . S
C3304 C3298 1.368 . S
C3304 C3303 1.523 . S
C3305 C3289 1.429 . S
C3305 C3301 1.429 . S
C3305 C3306 1.523 . S
C3306 C3290 1.368 . S
C3306 C3302 1.368 . S
C3306 C3305 1.523 . S
H3307 C3282 0.950 . S
H3308 C3284 0.950 . S
H3309 C3285 0.949 . S
H3310 C3287 0.950 . S
H3311 C3289 0.950 . S
C3312 C3313 1.349 . S
C3312 C3314 1.327 . S
C3312 H3337 0.950 . S
C3313 C3312 1.349 . S
C3313 C3329 1.349 . S
C3314 C3312 1.327 . S
C3314 C3333 1.429 . S
C3314 H3338 0.950 . S
C3315 C3332 1.574 . S
C3315 C3334 1.368 . S
C3315 H3339 0.949 . S
H3316 C3320 0.949 . S
C3317 C3318 1.349 . S
C3317 C3319 1.327 . S
C3317 H3340 0.950 . S
C3318 C3317 1.349 . S
C3318 C3330 1.349 . S
C3319 C3317 1.327 . S
C3319 C3335 1.429 . S
C3319 H3341 0.950 . S
C3320 H3316 0.949 . S
C3320 C3328 1.574 . S
C3320 C3336 1.368 . S
H3321 C3329 0.950 . S
H3322 C3327 0.950 . S
H3323 C3328 0.949 . S
H3324 C3330 0.950 . S
H3325 C3331 0.950 . S
H3326 C3332 0.949 . S
C3327 H3322 0.950 . S
C3327 C3329 1.327 . S
C3327 C3333 1.429 . S
C3328 C3320 1.574 . S
C3328 H3323 0.949 . S
C3328 C3334 1.368 . S
C3329 C3313 1.349 . S
C3329 H3321 0.950 . S
C3329 C3327 1.327 . S
C3330 C3318 1.349 . S
C3330 H3324 0.950 . S
C3330 C3331 1.327 . S
C3331 H3325 0.950 . S
C3331 C3330 1.327 . S
C3331 C3335 1.429 . S
C3332 C3315 1.574 . S
C3332 H3326 0.949 . S
C3332 C3336 1.368 . S
C3333 C3314 1.429 . S
C3333 C3327 1.429 . S
C3333 C3334 1.523 . S
C3334 C3315 1.368 . S
C3334 C3328 1.368 . S
C3334 C3333 1.523 . S
C3335 C3319 1.429 . S
C3335 C3331 1.429 . S
C3335 C3336 1.523 . S
C3336 C3320 1.368 . S
C3336 C3332 1.368 . S
C3336 C3335 1.523 . S
H3337 C3312 0.950 . S
H3338 C3314 0.950 . S
H3339 C3315 0.949 . S
H3340 C3317 0.950 . S
H3341 C3319 0.950 . S
C3342 C3343 1.349 . S
C3342 C3344 1.327 . S
C3342 H3367 0.950 . S
C3343 C3342 1.349 . S
C3343 C3359 1.349 . S
C3344 C3342 1.327 . S
C3344 C3363 1.429 . S
C3344 H3368 0.950 . S
C3345 C3362 1.574 . S
C3345 C3364 1.368 . S
C3345 H3369 0.949 . S
H3346 C3350 0.949 . S
C3347 C3348 1.349 . S
C3347 C3349 1.327 . S
C3347 H3370 0.950 . S
C3348 C3347 1.349 . S
C3348 C3360 1.349 . S
C3349 C3347 1.327 . S
C3349 C3365 1.429 . S
C3349 H3371 0.950 . S
C3350 H3346 0.949 . S
C3350 C3358 1.574 . S
C3350 C3366 1.368 . S
H3351 C3359 0.950 . S
H3352 C3357 0.950 . S
H3353 C3358 0.949 . S
H3354 C3360 0.950 . S
H3355 C3361 0.950 . S
H3356 C3362 0.949 . S
C3357 H3352 0.950 . S
C3357 C3359 1.327 . S
C3357 C3363 1.429 . S
C3358 C3350 1.574 . S
C3358 H3353 0.949 . S
C3358 C3364 1.368 . S
C3359 C3343 1.349 . S
C3359 H3351 0.950 . S
C3359 C3357 1.327 . S
C3360 C3348 1.349 . S
C3360 H3354 0.950 . S
C3360 C3361 1.327 . S
C3361 H3355 0.950 . S
C3361 C3360 1.327 . S
C3361 C3365 1.429 . S
C3362 C3345 1.574 . S
C3362 H3356 0.949 . S
C3362 C3366 1.368 . S
C3363 C3344 1.429 . S
C3363 C3357 1.429 . S
C3363 C3364 1.523 . S
C3364 C3345 1.368 . S
C3364 C3358 1.368 . S
C3364 C3363 1.523 . S
C3365 C3349 1.429 . S
C3365 C3361 1.429 . S
C3365 C3366 1.523 . S
C3366 C3350 1.368 . S
C3366 C3362 1.368 . S
C3366 C3365 1.523 . S
H3367 C3342 0.950 . S
H3368 C3344 0.950 . S
H3369 C3345 0.949 . S
H3370 C3347 0.950 . S
H3371 C3349 0.950 . S
C3372 C3373 1.349 . S
C3372 C3374 1.327 . S
C3372 H3397 0.950 . S
C3373 C3372 1.349 . S
C3373 C3389 1.349 . S
C3374 C3372 1.327 . S
C3374 C3393 1.429 . S
C3374 H3398 0.950 . S
C3375 C3392 1.574 . S
C3375 C3394 1.368 . S
C3375 H3399 0.949 . S
H3376 C3380 0.949 . S
C3377 C3378 1.349 . S
C3377 C3379 1.327 . S
C3377 H3400 0.950 . S
C3378 C3377 1.349 . S
C3378 C3390 1.349 . S
C3379 C3377 1.327 . S
C3379 C3395 1.429 . S
C3379 H3401 0.950 . S
C3380 H3376 0.949 . S
C3380 C3388 1.574 . S
C3380 C3396 1.368 . S
H3381 C3389 0.950 . S
H3382 C3387 0.950 . S
H3383 C3388 0.949 . S
H3384 C3390 0.950 . S
H3385 C3391 0.950 . S
H3386 C3392 0.949 . S
C3387 H3382 0.950 . S
C3387 C3389 1.327 . S
C3387 C3393 1.429 . S
C3388 C3380 1.574 . S
C3388 H3383 0.949 . S
C3388 C3394 1.368 . S
C3389 C3373 1.349 . S
C3389 H3381 0.950 . S
C3389 C3387 1.327 . S
C3390 C3378 1.349 . S
C3390 H3384 0.950 . S
C3390 C3391 1.327 . S
C3391 H3385 0.950 . S
C3391 C3390 1.327 . S
C3391 C3395 1.429 . S
C3392 C3375 1.574 . S
C3392 H3386 0.949 . S
C3392 C3396 1.368 . S
C3393 C3374 1.429 . S
C3393 C3387 1.429 . S
C3393 C3394 1.523 . S
C3394 C3375 1.368 . S
C3394 C3388 1.368 . S
C3394 C3393 1.523 . S
C3395 C3379 1.429 . S
C3395 C3391 1.429 . S
C3395 C3396 1.523 . S
C3396 C3380 1.368 . S
C3396 C3392 1.368 . S
C3396 C3395 1.523 . S
H3397 C3372 0.950 . S
H3398 C3374 0.950 . S
H3399 C3375 0.949 . S
H3400 C3377 0.950 . S
H3401 C3379 0.950 . S
C3402 C3403 1.349 . S
C3402 C3404 1.327 . S
C3402 H3427 0.950 . S
C3403 C3402 1.349 . S
C3403 C3419 1.349 . S
C3404 C3402 1.327 . S
C3404 C3423 1.429 . S
C3404 H3428 0.950 . S
C3405 C3422 1.574 . S
C3405 C3424 1.368 . S
C3405 H3429 0.949 . S
H3406 C3410 0.949 . S
C3407 C3408 1.349 . S
C3407 C3409 1.327 . S
C3407 H3430 0.950 . S
C3408 C3407 1.349 . S
C3408 C3420 1.349 . S
C3409 C3407 1.327 . S
C3409 C3425 1.429 . S
C3409 H3431 0.950 . S
C3410 H3406 0.949 . S
C3410 C3418 1.574 . S
C3410 C3426 1.368 . S
H3411 C3419 0.950 . S
H3412 C3417 0.950 . S
H3413 C3418 0.949 . S
H3414 C3420 0.950 . S
H3415 C3421 0.950 . S
H3416 C3422 0.949 . S
C3417 H3412 0.950 . S
C3417 C3419 1.327 . S
C3417 C3423 1.429 . S
C3418 C3410 1.574 . S
C3418 H3413 0.949 . S
C3418 C3424 1.368 . S
C3419 C3403 1.349 . S
C3419 H3411 0.950 . S
C3419 C3417 1.327 . S
C3420 C3408 1.349 . S
C3420 H3414 0.950 . S
C3420 C3421 1.327 . S
C3421 H3415 0.950 . S
C3421 C3420 1.327 . S
C3421 C3425 1.429 . S
C3422 C3405 1.574 . S
C3422 H3416 0.949 . S
C3422 C3426 1.368 . S
C3423 C3404 1.429 . S
C3423 C3417 1.429 . S
C3423 C3424 1.523 . S
C3424 C3405 1.368 . S
C3424 C3418 1.368 . S
C3424 C3423 1.523 . S
C3425 C3409 1.429 . S
C3425 C3421 1.429 . S
C3425 C3426 1.523 . S
C3426 C3410 1.368 . S
C3426 C3422 1.368 . S
C3426 C3425 1.523 . S
H3427 C3402 0.950 . S
H3428 C3404 0.950 . S
H3429 C3405 0.949 . S
H3430 C3407 0.950 . S
H3431 C3409 0.950 . S
C3432 C3433 1.349 . S
C3432 C3434 1.327 . S
C3432 H3457 0.950 . S
C3433 C3432 1.349 . S
C3433 C3449 1.349 . S
C3434 C3432 1.327 . S
C3434 C3453 1.429 . S
C3434 H3458 0.950 . S
C3435 C3452 1.574 . S
C3435 C3454 1.368 . S
C3435 H3459 0.949 . S
H3436 C3440 0.949 . S
C3437 C3438 1.349 . S
C3437 C3439 1.327 . S
C3437 H3460 0.950 . S
C3438 C3437 1.349 . S
C3438 C3450 1.349 . S
C3439 C3437 1.327 . S
C3439 C3455 1.429 . S
C3439 H3461 0.950 . S
C3440 H3436 0.949 . S
C3440 C3448 1.574 . S
C3440 C3456 1.368 . S
H3441 C3449 0.950 . S
H3442 C3447 0.950 . S
H3443 C3448 0.949 . S
H3444 C3450 0.950 . S
H3445 C3451 0.950 . S
H3446 C3452 0.949 . S
C3447 H3442 0.950 . S
C3447 C3449 1.327 . S
C3447 C3453 1.429 . S
C3448 C3440 1.574 . S
C3448 H3443 0.949 . S
C3448 C3454 1.368 . S
C3449 C3433 1.349 . S
C3449 H3441 0.950 . S
C3449 C3447 1.327 . S
C3450 C3438 1.349 . S
C3450 H3444 0.950 . S
C3450 C3451 1.327 . S
C3451 H3445 0.950 . S
C3451 C3450 1.327 . S
C3451 C3455 1.429 . S
C3452 C3435 1.574 . S
C3452 H3446 0.949 . S
C3452 C3456 1.368 . S
C3453 C3434 1.429 . S
C3453 C3447 1.429 . S
C3453 C3454 1.523 . S
C3454 C3435 1.368 . S
C3454 C3448 1.368 . S
C3454 C3453 1.523 . S
C3455 C3439 1.429 . S
C3455 C3451 1.429 . S
C3455 C3456 1.523 . S
C3456 C3440 1.368 . S
C3456 C3452 1.368 . S
C3456 C3455 1.523 . S
H3457 C3432 0.950 . S
H3458 C3434 0.950 . S
H3459 C3435 0.949 . S
H3460 C3437 0.950 . S
H3461 C3439 0.950 . S
C3462 C3463 1.349 . S
C3462 C3464 1.327 . S
C3462 H3487 0.950 . S
C3463 C3462 1.349 . S
C3463 C3479 1.349 . S
C3464 C3462 1.327 . S
C3464 C3483 1.429 . S
C3464 H3488 0.950 . S
C3465 C3482 1.574 . S
C3465 C3484 1.368 . S
C3465 H3489 0.949 . S
H3466 C3470 0.949 . S
C3467 C3468 1.349 . S
C3467 C3469 1.327 . S
C3467 H3490 0.950 . S
C3468 C3467 1.349 . S
C3468 C3480 1.349 . S
C3469 C3467 1.327 . S
C3469 C3485 1.429 . S
C3469 H3491 0.950 . S
C3470 H3466 0.949 . S
C3470 C3478 1.574 . S
C3470 C3486 1.368 . S
H3471 C3479 0.950 . S
H3472 C3477 0.950 . S
H3473 C3478 0.949 . S
H3474 C3480 0.950 . S
H3475 C3481 0.950 . S
H3476 C3482 0.949 . S
C3477 H3472 0.950 . S
C3477 C3479 1.327 . S
C3477 C3483 1.429 . S
C3478 C3470 1.574 . S
C3478 H3473 0.949 . S
C3478 C3484 1.368 . S
C3479 C3463 1.349 . S
C3479 H3471 0.950 . S
C3479 C3477 1.327 . S
C3480 C3468 1.349 . S
C3480 H3474 0.950 . S
C3480 C3481 1.327 . S
C3481 H3475 0.950 . S
C3481 C3480 1.327 . S
C3481 C3485 1.429 . S
C3482 C3465 1.574 . S
C3482 H3476 0.949 . S
C3482 C3486 1.368 . S
C3483 C3464 1.429 . S
C3483 C3477 1.429 . S
C3483 C3484 1.523 . S
C3484 C3465 1.368 . S
C3484 C3478 1.368 . S
C3484 C3483 1.523 . S
C3485 C3469 1.429 . S
C3485 C3481 1.429 . S
C3485 C3486 1.523 . S
C3486 C3470 1.368 . S
C3486 C3482 1.368 . S
C3486 C3485 1.523 . S
H3487 C3462 0.950 . S
H3488 C3464 0.950 . S
H3489 C3465 0.949 . S
H3490 C3467 0.950 . S
H3491 C3469 0.950 . S
C3492 C3493 1.349 . S
C3492 C3494 1.327 . S
C3492 H3517 0.950 . S
C3493 C3492 1.349 . S
C3493 C3509 1.349 . S
C3494 C3492 1.327 . S
C3494 C3513 1.429 . S
C3494 H3518 0.950 . S
C3495 C3512 1.574 . S
C3495 C3514 1.368 . S
C3495 H3519 0.949 . S
H3496 C3500 0.949 . S
C3497 C3498 1.349 . S
C3497 C3499 1.327 . S
C3497 H3520 0.950 . S
C3498 C3497 1.349 . S
C3498 C3510 1.349 . S
C3499 C3497 1.327 . S
C3499 C3515 1.429 . S
C3499 H3521 0.950 . S
C3500 H3496 0.949 . S
C3500 C3508 1.574 . S
C3500 C3516 1.368 . S
H3501 C3509 0.950 . S
H3502 C3507 0.950 . S
H3503 C3508 0.949 . S
H3504 C3510 0.950 . S
H3505 C3511 0.950 . S
H3506 C3512 0.949 . S
C3507 H3502 0.950 . S
C3507 C3509 1.327 . S
C3507 C3513 1.429 . S
C3508 C3500 1.574 . S
C3508 H3503 0.949 . S
C3508 C3514 1.368 . S
C3509 C3493 1.349 . S
C3509 H3501 0.950 . S
C3509 C3507 1.327 . S
C3510 C3498 1.349 . S
C3510 H3504 0.950 . S
C3510 C3511 1.327 . S
C3511 H3505 0.950 . S
C3511 C3510 1.327 . S
C3511 C3515 1.429 . S
C3512 C3495 1.574 . S
C3512 H3506 0.949 . S
C3512 C3516 1.368 . S
C3513 C3494 1.429 . S
C3513 C3507 1.429 . S
C3513 C3514 1.523 . S
C3514 C3495 1.368 . S
C3514 C3508 1.368 . S
C3514 C3513 1.523 . S
C3515 C3499 1.429 . S
C3515 C3511 1.429 . S
C3515 C3516 1.523 . S
C3516 C3500 1.368 . S
C3516 C3512 1.368 . S
C3516 C3515 1.523 . S
H3517 C3492 0.950 . S
H3518 C3494 0.950 . S
H3519 C3495 0.949 . S
H3520 C3497 0.950 . S
H3521 C3499 0.950 . S
C3522 C3523 1.349 . S
C3522 C3524 1.327 . S
C3522 H3547 0.950 . S
C3523 C3522 1.349 . S
C3523 C3539 1.349 . S
C3524 C3522 1.327 . S
C3524 C3543 1.429 . S
C3524 H3548 0.950 . S
C3525 C3542 1.574 . S
C3525 C3544 1.368 . S
C3525 H3549 0.949 . S
H3526 C3530 0.949 . S
C3527 C3528 1.349 . S
C3527 C3529 1.327 . S
C3527 H3550 0.950 . S
C3528 C3527 1.349 . S
C3528 C3540 1.349 . S
C3529 C3527 1.327 . S
C3529 C3545 1.429 . S
C3529 H3551 0.950 . S
C3530 H3526 0.949 . S
C3530 C3538 1.574 . S
C3530 C3546 1.368 . S
H3531 C3539 0.950 . S
H3532 C3537 0.950 . S
H3533 C3538 0.949 . S
H3534 C3540 0.950 . S
H3535 C3541 0.950 . S
H3536 C3542 0.949 . S
C3537 H3532 0.950 . S
C3537 C3539 1.327 . S
C3537 C3543 1.429 . S
C3538 C3530 1.574 . S
C3538 H3533 0.949 . S
C3538 C3544 1.368 . S
C3539 C3523 1.349 . S
C3539 H3531 0.950 . S
C3539 C3537 1.327 . S
C3540 C3528 1.349 . S
C3540 H3534 0.950 . S
C3540 C3541 1.327 . S
C3541 H3535 0.950 . S
C3541 C3540 1.327 . S
C3541 C3545 1.429 . S
C3542 C3525 1.574 . S
C3542 H3536 0.949 . S
C3542 C3546 1.368 . S
C3543 C3524 1.429 . S
C3543 C3537 1.429 . S
C3543 C3544 1.523 . S
C3544 C3525 1.368 . S
C3544 C3538 1.368 . S
C3544 C3543 1.523 . S
C3545 C3529 1.429 . S
C3545 C3541 1.429 . S
C3545 C3546 1.523 . S
C3546 C3530 1.368 . S
C3546 C3542 1.368 . S
C3546 C3545 1.523 . S
H3547 C3522 0.950 . S
H3548 C3524 0.950 . S
H3549 C3525 0.949 . S
H3550 C3527 0.950 . S
H3551 C3529 0.950 . S
C673 C132 1.439 . S
C678 C6 1.439 . S
C703 C146 1.439 . S
C708 C20 1.439 . S
C733 C160 1.439 . S
C738 C34 1.439 . S
C763 C48 1.439 . S
C768 C118 1.439 . S
C793 C216 1.439 . S
C798 C62 1.439 . S
C823 C76 1.439 . S
C828 C174 1.439 . S
C853 C188 1.439 . S
C858 C90 1.439 . S
C883 C202 1.439 . S
C888 C104 1.439 . S
C913 C230 1.439 . S
C918 C258 1.439 . S
C943 C244 1.439 . S
C948 C314 1.439 . S
C973 C272 1.439 . S
C978 C328 1.439 . S
C1003 C286 1.439 . S
C1008 C300 1.439 . S
C1033 C342 1.439 . S
C1038 C468 1.439 . S
C1063 C482 1.439 . S
C1068 C356 1.439 . S
C1093 C370 1.439 . S
C1098 C496 1.439 . S
C1123 C384 1.439 . S
C1128 C454 1.439 . S
C1153 C552 1.439 . S
C1158 C398 1.439 . S
C1183 C510 1.439 . S
C1188 C412 1.439 . S
C1213 C524 1.439 . S
C1218 C426 1.439 . S
C1243 C538 1.439 . S
C1248 C440 1.439 . S
C1273 C566 1.439 . S
C1278 C594 1.439 . S
C1303 C580 1.439 . S
C1308 C650 1.439 . S
C1333 C608 1.439 . S
C1338 C664 1.439 . S
C1363 C636 1.439 . S
C1368 C622 1.439 . S
C1393 C121 1.262 . S
C1398 C8 1.345 . S
C1423 C135 1.262 . S
C1428 C22 1.345 . S
C1453 C36 1.345 . S
C1458 C149 1.262 . S
C1483 C50 1.345 . S
C1488 C163 1.262 . S
C1513 C64 1.345 . S
C1518 C177 1.262 . S
C1543 C78 1.345 . S
C1548 C191 1.262 . S
C1573 C92 1.345 . S
C1578 C205 1.262 . S
C1603 C219 1.262 . S
C1608 C106 1.345 . S
C1633 C120 1.345 . S
C1638 C233 1.262 . S
C1663 C331 1.262 . S
C1668 C134 1.345 . S
C1693 C148 1.345 . S
C1698 C303 1.262 . S
C1723 C162 1.345 . S
C1728 C317 1.262 . S
C1753 C176 1.345 . S
C1758 C247 1.262 . S
C1783 C190 1.345 . S
C1788 C261 1.262 . S
C1813 C204 1.345 . S
C1818 C275 1.262 . S
C1843 C289 1.262 . S
C1848 C218 1.345 . S
C1873 C9 1.262 . S
C1878 C232 1.345 . S
C1903 C246 1.345 . S
C1908 C65 1.262 . S
C1933 C260 1.345 . S
C1938 C79 1.262 . S
C1963 C274 1.345 . S
C1968 C93 1.262 . S
C1993 C107 1.262 . S
C1998 C288 1.345 . S
C2023 C302 1.345 . S
C2028 C37 1.262 . S
C2053 C316 1.345 . S
C2058 C51 1.262 . S
C2083 C23 1.262 . S
C2088 C330 1.345 . S
C2113 C457 1.262 . S
C2118 C344 1.345 . S
C2143 C358 1.345 . S
C2148 C471 1.262 . S
C2173 C372 1.345 . S
C2178 C485 1.262 . S
C2203 C499 1.262 . S
C2208 C386 1.345 . S
C2233 C513 1.262 . S
C2238 C400 1.345 . S
C2263 C414 1.345 . S
C2268 C527 1.262 . S
C2293 C541 1.262 . S
C2298 C428 1.345 . S
C2323 C555 1.262 . S
C2328 C442 1.345 . S
C2353 C456 1.345 . S
C2358 C569 1.262 . S
C2383 C470 1.345 . S
C2388 C667 1.262 . S
C2413 C484 1.345 . S
C2418 C639 1.262 . S
C2443 C653 1.262 . S
C2448 C498 1.345 . S
C2473 C512 1.345 . S
C2478 C583 1.262 . S
C2503 C526 1.345 . S
C2508 C597 1.262 . S
C2533 C611 1.262 . S
C2538 C540 1.345 . S
C2563 C625 1.262 . S
C2568 C554 1.345 . S
C2593 C568 1.345 . S
C2598 C345 1.262 . S
C2623 C582 1.345 . S
C2628 C401 1.262 . S
C2653 C415 1.262 . S
C2658 C596 1.345 . S
C2683 C610 1.345 . S
C2688 C429 1.262 . S
C2713 C624 1.345 . S
C2718 C443 1.262 . S
C2743 C373 1.262 . S
C2748 C638 1.345 . S
C2773 C652 1.345 . S
C2778 C387 1.262 . S
C2803 C359 1.262 . S
C2808 C666 1.345 . S
C2833 C441 1.579 . S
C2838 C7 1.579 . S
C2863 C21 1.579 . S
C2868 C399 1.579 . S
C2893 C413 1.579 . S
C2898 C35 1.579 . S
C2923 C427 1.579 . S
C2928 C49 1.579 . S
C2953 C63 1.579 . S
C2958 C357 1.579 . S
C2983 C371 1.579 . S
C2988 C77 1.579 . S
C3013 C385 1.579 . S
C3018 C91 1.579 . S
C3043 C105 1.579 . S
C3048 C343 1.579 . S
C3073 C623 1.579 . S
C3078 C119 1.579 . S
C3103 C133 1.579 . S
C3108 C581 1.579 . S
C3133 C147 1.579 . S
C3138 C595 1.579 . S
C3163 C609 1.579 . S
C3168 C161 1.579 . S
C3193 C665 1.579 . S
C3198 C175 1.579 . S
C3223 C637 1.579 . S
C3228 C189 1.579 . S
C3253 C203 1.579 . S
C3258 C651 1.579 . S
C3283 C567 1.579 . S
C3288 C217 1.579 . S
C3313 C231 1.579 . S
C3318 C553 1.579 . S
C3343 C469 1.579 . S
C3348 C245 1.579 . S
C3373 C259 1.579 . S
C3378 C483 1.579 . S
C3403 C497 1.579 . S
C3408 C273 1.579 . S
C3433 C455 1.579 . S
C3438 C287 1.579 . S
C3463 C301 1.579 . S
C3468 C525 1.579 . S
C3493 C539 1.579 . S
C3498 C315 1.579 . S
C3523 C511 1.579 . S
C3528 C329 1.579 . S
