# Generated by pormake.
# Topology why, (6)-cn, num edge types: 1
# Building blocks:
#     Node 0, Type 0, BuildingBlock: BETFEN_clean_sbu_0, # of connection points: 6
#     Node 1, Type 0, BuildingBlock: BETFEN_clean_sbu_0, # of connection points: 6
#     Node 2, Type 0, BuildingBlock: BETFEN_clean_sbu_0, # of connection points: 6
#     Node 3, Type 0, BuildingBlock: BETFEN_clean_sbu_0, # of connection points: 6
#     Node 4, Type 0, BuildingBlock: BETFEN_clean_sbu_0, # of connection points: 6
#     Node 5, Type 0, BuildingBlock: BETFEN_clean_sbu_0, # of connection points: 6
#     Node 6, Type 0, BuildingBlock: BETFEN_clean_sbu_0, # of connection points: 6
#     Node 7, Type 0, BuildingBlock: BETFEN_clean_sbu_0, # of connection points: 6
#     Node 8, Type 0, BuildingBlock: BETFEN_clean_sbu_0, # of connection points: 6
#     Node 9, Type 0, BuildingBlock: BETFEN_clean_sbu_0, # of connection points: 6
#     Node 10, Type 0, BuildingBlock: BETFEN_clean_sbu_0, # of connection points: 6
#     Node 11, Type 0, BuildingBlock: BETFEN_clean_sbu_0, # of connection points: 6
#     Node 12, Type 0, BuildingBlock: BETFEN_clean_sbu_0, # of connection points: 6
#     Node 13, Type 0, BuildingBlock: BETFEN_clean_sbu_0, # of connection points: 6
#     Node 14, Type 0, BuildingBlock: BETFEN_clean_sbu_0, # of connection points: 6
#     Node 15, Type 0, BuildingBlock: BETFEN_clean_sbu_0, # of connection points: 6
#     Edge 16, Type (0, 0), BuildingBlock: XIVTED_clean_linker_0, # of connection points: 2
#     Edge 17, Type (0, 0), BuildingBlock: XIVTED_clean_linker_0, # of connection points: 2
#     Edge 18, Type (0, 0), BuildingBlock: XIVTED_clean_linker_0, # of connection points: 2
#     Edge 19, Type (0, 0), BuildingBlock: XIVTED_clean_linker_0, # of connection points: 2
#     Edge 20, Type (0, 0), BuildingBlock: XIVTED_clean_linker_0, # of connection points: 2
#     Edge 21, Type (0, 0), BuildingBlock: XIVTED_clean_linker_0, # of connection points: 2
#     Edge 22, Type (0, 0), BuildingBlock: XIVTED_clean_linker_0, # of connection points: 2
#     Edge 23, Type (0, 0), BuildingBlock: XIVTED_clean_linker_0, # of connection points: 2
#     Edge 24, Type (0, 0), BuildingBlock: XIVTED_clean_linker_0, # of connection points: 2
#     Edge 25, Type (0, 0), BuildingBlock: XIVTED_clean_linker_0, # of connection points: 2
#     Edge 26, Type (0, 0), BuildingBlock: XIVTED_clean_linker_0, # of connection points: 2
#     Edge 27, Type (0, 0), BuildingBlock: XIVTED_clean_linker_0, # of connection points: 2
#     Edge 28, Type (0, 0), BuildingBlock: XIVTED_clean_linker_0, # of connection points: 2
#     Edge 29, Type (0, 0), BuildingBlock: XIVTED_clean_linker_0, # of connection points: 2
#     Edge 30, Type (0, 0), BuildingBlock: XIVTED_clean_linker_0, # of connection points: 2
#     Edge 31, Type (0, 0), BuildingBlock: XIVTED_clean_linker_0, # of connection points: 2
#     Edge 32, Type (0, 0), BuildingBlock: XIVTED_clean_linker_0, # of connection points: 2
#     Edge 33, Type (0, 0), BuildingBlock: XIVTED_clean_linker_0, # of connection points: 2
#     Edge 34, Type (0, 0), BuildingBlock: XIVTED_clean_linker_0, # of connection points: 2
#     Edge 35, Type (0, 0), BuildingBlock: XIVTED_clean_linker_0, # of connection points: 2
#     Edge 36, Type (0, 0), BuildingBlock: XIVTED_clean_linker_0, # of connection points: 2
#     Edge 37, Type (0, 0), BuildingBlock: XIVTED_clean_linker_0, # of connection points: 2
#     Edge 38, Type (0, 0), BuildingBlock: XIVTED_clean_linker_0, # of connection points: 2
#     Edge 39, Type (0, 0), BuildingBlock: XIVTED_clean_linker_0, # of connection points: 2
#     Edge 40, Type (0, 0), BuildingBlock: XIVTED_clean_linker_0, # of connection points: 2
#     Edge 41, Type (0, 0), BuildingBlock: XIVTED_clean_linker_0, # of connection points: 2
#     Edge 42, Type (0, 0), BuildingBlock: XIVTED_clean_linker_0, # of connection points: 2
#     Edge 43, Type (0, 0), BuildingBlock: XIVTED_clean_linker_0, # of connection points: 2
#     Edge 44, Type (0, 0), BuildingBlock: XIVTED_clean_linker_0, # of connection points: 2
#     Edge 45, Type (0, 0), BuildingBlock: XIVTED_clean_linker_0, # of connection points: 2
#     Edge 46, Type (0, 0), BuildingBlock: XIVTED_clean_linker_0, # of connection points: 2
#     Edge 47, Type (0, 0), BuildingBlock: XIVTED_clean_linker_0, # of connection points: 2
#     Edge 48, Type (0, 0), BuildingBlock: XIVTED_clean_linker_0, # of connection points: 2
#     Edge 49, Type (0, 0), BuildingBlock: XIVTED_clean_linker_0, # of connection points: 2
#     Edge 50, Type (0, 0), BuildingBlock: XIVTED_clean_linker_0, # of connection points: 2
#     Edge 51, Type (0, 0), BuildingBlock: XIVTED_clean_linker_0, # of connection points: 2
#     Edge 52, Type (0, 0), BuildingBlock: XIVTED_clean_linker_0, # of connection points: 2
#     Edge 53, Type (0, 0), BuildingBlock: XIVTED_clean_linker_0, # of connection points: 2
#     Edge 54, Type (0, 0), BuildingBlock: XIVTED_clean_linker_0, # of connection points: 2
#     Edge 55, Type (0, 0), BuildingBlock: XIVTED_clean_linker_0, # of connection points: 2
#     Edge 56, Type (0, 0), BuildingBlock: XIVTED_clean_linker_0, # of connection points: 2
#     Edge 57, Type (0, 0), BuildingBlock: XIVTED_clean_linker_0, # of connection points: 2
#     Edge 58, Type (0, 0), BuildingBlock: XIVTED_clean_linker_0, # of connection points: 2
#     Edge 59, Type (0, 0), BuildingBlock: XIVTED_clean_linker_0, # of connection points: 2
#     Edge 60, Type (0, 0), BuildingBlock: XIVTED_clean_linker_0, # of connection points: 2
#     Edge 61, Type (0, 0), BuildingBlock: XIVTED_clean_linker_0, # of connection points: 2
#     Edge 62, Type (0, 0), BuildingBlock: XIVTED_clean_linker_0, # of connection points: 2
#     Edge 63, Type (0, 0), BuildingBlock: XIVTED_clean_linker_0, # of connection points: 2
# Relax obj value: 0.424
# Max RMSD: 0.230
# Mean RMSD: 0.230
data_MOF--net-why--node1-BETFEN_clean_sbu_0--edge1-XIVTED_clean_linker_0
_symmetry_space_group_name_H-M    P1
_symmetry_Int_Tables_number       1
_symmetry_cell_setting            triclinic
loop_
_symmetry_equiv_pos_as_xyz
'x, y, z'
_cell_length_a     48.220801
_cell_length_b     48.624484
_cell_length_c     39.532164
_cell_angle_alpha  89.985556
_cell_angle_beta   89.935088
_cell_angle_gamma 90.402414
loop_
_atom_site_label
_atom_site_type_symbol
_atom_site_fract_x
_atom_site_fract_y
_atom_site_fract_z
_atom_type_partial_charge
Pr0 Pr 0.50384 0.2327 0.05279 0.0
Pr1 Pr 0.47525 0.26542 0.09359 0.0
C2 C 0.53902 0.20578 0.01171 0.0
C3 C 0.55359 0.21253 0.98014 0.0
C4 C 0.55613 0.1924 0.95501 0.0
C5 C 0.56834 0.1989 0.92396 0.0
C6 C 0.57835 0.22563 0.91767 0.0
C7 C 0.57591 0.24576 0.94297 0.0
C8 C 0.56342 0.23932 0.9739 0.0
C9 C 0.48622 0.20082 0.11017 0.0
C10 C 0.53925 0.28726 0.08515 0.0
C11 C 0.442 0.29047 0.13819 0.0
C12 C 0.43335 0.31934 0.13773 0.0
C13 C 0.42948 0.33294 0.10669 0.0
C14 C 0.42392 0.36104 0.10591 0.0
C15 C 0.42251 0.37609 0.13611 0.0
C16 C 0.42649 0.36242 0.16713 0.0
C17 C 0.43189 0.33425 0.16791 0.0
C18 C 0.4882 0.29585 0.0355 0.0
C19 C 0.43822 0.23775 0.02988 0.0
O20 O 0.51213 0.2037 0.00927 0.0
O21 O 0.54707 0.21879 0.03895 0.0
O22 O 0.49702 0.22482 0.11179 0.0
O23 O 0.48228 0.19453 0.07882 0.0
O24 O 0.51812 0.28791 0.10636 0.0
O25 O 0.53809 0.26892 0.06039 0.0
O26 O 0.43247 0.27509 0.11375 0.0
O27 O 0.46831 0.28668 0.14389 0.0
O28 O 0.4809 0.271 0.03564 0.0
O29 O 0.48711 0.30645 0.06547 0.0
O30 O 0.4633 0.2324 0.01811 0.0
O31 O 0.43655 0.24745 0.0612 0.0
H32 H 0.54841 0.1717 0.95931 0.0
H33 H 0.57022 0.18295 0.90499 0.0
H34 H 0.58324 0.26658 0.93862 0.0
H35 H 0.56119 0.25533 -0.00726 0.0
H36 H 0.43114 0.32192 0.08296 0.0
H37 H 0.42097 0.37105 0.0817 0.0
H38 H 0.42497 0.37342 0.19088 0.0
H39 H 0.43524 0.32419 0.19201 0.0
Pr40 Pr 0.74212 0.75953 0.30454 0.0
Pr41 Pr 0.71392 0.7293 0.34845 0.0
C42 C 0.77208 0.78481 0.25564 0.0
C43 C 0.76804 0.79823 0.22284 0.0
C44 C 0.79097 0.80966 0.20615 0.0
C45 C 0.78762 0.82293 0.17514 0.0
C46 C 0.76123 0.82498 0.16022 0.0
C47 C 0.73822 0.81345 0.17715 0.0
C48 C 0.74161 0.80014 0.20826 0.0
C49 C 0.77353 0.75246 0.36583 0.0
C50 C 0.68855 0.79355 0.33615 0.0
C51 C 0.70106 0.71056 0.41038 0.0
C52 C 0.71438 0.69239 0.43544 0.0
C53 C 0.71096 0.66377 0.43341 0.0
C54 C 0.72196 0.64677 0.45828 0.0
C55 C 0.73658 0.65794 0.48593 0.0
C56 C 0.74122 0.68648 0.48706 0.0
C57 C 0.73015 0.70356 0.4621 0.0
C58 C 0.68239 0.72845 0.29035 0.0
C59 C 0.73827 0.69173 0.287 0.0
O60 O 0.76794 0.75827 0.25668 0.0
O61 O 0.76209 0.79756 0.28194 0.0
O62 O 0.76196 0.73374 0.34852 0.0
O63 O 0.7661 0.77602 0.35373 0.0
O64 O 0.68892 0.77217 0.35706 0.0
O65 O 0.70623 0.79307 0.31056 0.0
O66 O 0.71304 0.7344 0.40517 0.0
O67 O 0.69164 0.69916 0.38265 0.0
O68 O 0.69536 0.74968 0.3005 0.0
O69 O 0.68371 0.70795 0.31141 0.0
O70 O 0.74249 0.71665 0.27437 0.0
O71 O 0.73041 0.68983 0.31902 0.0
H72 H 0.81147 0.80847 0.21722 0.0
H73 H 0.80569 0.83199 0.16311 0.0
H74 H 0.71767 0.81448 0.16622 0.0
H75 H 0.72369 0.79138 0.22095 0.0
H76 H 0.69897 0.65447 0.41322 0.0
H77 H 0.71736 0.62497 0.45684 0.0
H78 H 0.75243 0.69572 0.50793 0.0
H79 H 0.73329 0.72557 0.46424 0.0
Pr80 Pr 0.22124 0.99889 0.55476 0.0
Pr81 Pr 0.2488 0.96687 0.59642 0.0
C82 C 0.18626 1.02566 0.51331 0.0
C83 C 0.1711 1.01908 0.48206 0.0
C84 C 0.1714 1.03803 0.45536 0.0
C85 C 0.15858 1.0316 0.4247 0.0
C86 C 0.14507 1.00615 0.42033 0.0
C87 C 0.14456 0.98725 0.44723 0.0
C88 C 0.15766 0.99357 0.4778 0.0
C89 C 0.23796 1.03143 0.61202 0.0
C90 C 0.18522 0.94462 0.58606 0.0
C91 C 0.28159 0.94257 0.64203 0.0
C92 C 0.29208 0.91433 0.64065 0.0
C93 C 0.29896 0.90245 0.60931 0.0
C94 C 0.30597 0.87472 0.60727 0.0
C95 C 0.30576 0.85829 0.63643 0.0
C96 C 0.29878 0.8702 0.66774 0.0
C97 C 0.292 0.89802 0.66981 0.0
C98 C 0.23759 0.9352 0.53897 0.0
C99 C 0.28693 0.99399 0.53298 0.0
O100 O 0.21317 1.0271 0.51038 0.0
O101 O 0.17817 1.0133 0.54101 0.0
O102 O 0.22692 1.00754 0.61381 0.0
O103 O 0.24264 1.03722 0.58065 0.0
O104 O 0.20553 0.94464 0.6084 0.0
O105 O 0.18719 0.96246 0.56087 0.0
O106 O 0.29118 0.95946 0.61912 0.0
O107 O 0.25487 0.94448 0.64612 0.0
O108 O 0.24441 0.96022 0.53831 0.0
O109 O 0.23803 0.92535 0.56934 0.0
O110 O 0.26211 0.99976 0.52087 0.0
O111 O 0.2881 0.98388 0.56413 0.0
H112 H 0.18181 1.05772 0.45813 0.0
H113 H 0.15899 1.04665 0.40449 0.0
H114 H 0.13447 0.96742 0.4444 0.0
H115 H 0.15752 0.97842 0.49789 0.0
H116 H 0.29846 0.91448 0.58625 0.0
H117 H 0.31124 0.86604 0.58288 0.0
H118 H 0.29898 0.85809 0.69074 0.0
H119 H 0.28629 0.9067 0.69406 0.0
Pr120 Pr 0.97861 0.47289 0.80414 0.0
Pr121 Pr 1.01152 0.50249 0.84313 0.0
C122 C 0.95008 0.43703 0.76504 0.0
C123 C 0.95433 0.4226 0.73297 0.0
C124 C 0.93233 0.40783 0.71856 0.0
C125 C 0.93567 0.39496 0.68728 0.0
C126 C 0.9611 0.39671 0.66987 0.0
C127 C 0.98326 0.41129 0.68472 0.0
C128 C 0.97987 0.4242 0.71604 0.0
C129 C 0.94686 0.49085 0.86139 0.0
C130 C 1.03406 0.43905 0.83685 0.0
C131 C 1.03696 0.53661 0.88648 0.0
C132 C 1.0663 0.54491 0.88628 0.0
C133 C 1.08011 0.54966 0.85542 0.0
C134 C 1.10845 0.55558 0.8549 0.0
C135 C 0.12356 0.55636 0.88517 0.0
C136 C 1.10978 0.55121 0.91597 0.0
C137 C 1.08136 0.54556 0.91651 0.0
C138 C 1.04231 0.48893 0.78562 0.0
C139 C 0.98346 0.53779 0.77929 0.0
O140 O 0.94748 0.46363 0.76289 0.0
O141 O 0.96568 0.42946 0.7903 0.0
O142 O 0.97105 0.48048 0.863 0.0
O143 O 0.94035 0.49428 0.83003 0.0
O144 O 1.03668 0.46167 0.85503 0.0
O145 O 1.01363 0.43815 0.81443 0.0
O146 O 1.0221 0.5454 0.86118 0.0
O147 O 1.03223 0.51081 0.89363 0.0
O148 O 1.01716 0.49563 0.78514 0.0
O149 O 1.0527 0.49071 0.81567 0.0
O150 O 0.97863 0.51256 0.76796 0.0
O151 O 0.99284 0.54004 0.81066 0.0
H152 H 0.9125 0.40643 0.73138 0.0
H153 H 0.91835 0.38354 0.67677 0.0
H154 H 1.00301 0.41321 0.67181 0.0
H155 H 0.99703 0.43569 0.72687 0.0
H156 H 1.06906 0.5486 0.8316 0.0
H157 H 0.11858 0.55946 0.83088 0.0
H158 H 0.12088 0.5522 0.93976 0.0
H159 H 1.07116 0.54152 0.94046 0.0
Pr160 Pr 0.75127 0.96881 0.88999 0.0
Pr161 Pr 0.72134 0.99745 0.93384 0.0
C162 C 0.76954 0.95503 0.82819 0.0
C163 C 0.78578 0.9684 0.801 0.0
C164 C 0.81458 0.96497 0.79939 0.0
C165 C 0.82959 0.97505 0.77189 0.0
C166 C 0.81611 0.98864 0.74514 0.0
C167 C 0.78756 0.99372 0.74786 0.0
C168 C 0.77251 0.98362 0.77548 0.0
C169 C 0.75107 0.93795 0.94871 0.0
C170 C 0.78957 0.99323 0.9513 0.0
C171 C 0.69704 1.02636 0.98376 0.0
C172 C 0.68386 1.02044 0.01631 0.0
C173 C 0.66432 1.03882 0.02917 0.0
C174 C 0.64998 1.03258 0.05886 0.0
C175 C 0.655 1.00783 0.07612 0.0
C176 C 0.6751 0.98969 0.06355 0.0
C177 C 0.68934 0.99589 0.03368 0.0
C178 C 0.72767 1.0285 0.87232 0.0
C179 C 0.6861 0.94408 0.90229 0.0
O180 O 0.74475 0.96474 0.83379 0.0
O181 O 0.78268 0.94834 0.85592 0.0
O182 O 0.73013 0.95106 0.93824 0.0
O183 O 0.77177 0.93867 0.92762 0.0
O184 O 0.76456 0.99802 0.96366 0.0
O185 O 0.79143 0.98487 0.91951 0.0
O186 O 0.72377 1.02252 0.98193 0.0
O187 O 0.68372 1.01742 0.95721 0.0
O188 O 0.74685 1.01638 0.88833 0.0
O189 O 0.70429 1.0228 0.88684 0.0
O190 O 0.70786 0.94395 0.88171 0.0
O191 O 0.6867 0.96199 0.92751 0.0
H192 H 0.82544 0.9534 0.81863 0.0
H193 H 0.85145 0.97023 0.77048 0.0
H194 H 0.77661 1.00419 0.72777 0.0
H195 H 0.75031 0.98684 0.77612 0.0
H196 H 0.65985 1.0578 0.01595 0.0
H197 H 0.63485 1.04707 0.06826 0.0
H198 H 0.67919 0.9704 0.07625 0.0
H199 H 0.70424 0.98136 0.02382 0.0
Pr200 Pr 0.513 0.50258 0.64511 0.0
Pr201 Pr 0.47921 0.47415 0.68507 0.0
C202 C 0.5399 0.53524 0.60116 0.0
C203 C 0.56962 0.542 0.6005 0.0
C204 C 0.58436 0.54527 0.63095 0.0
C205 C 0.61292 0.54998 0.63055 0.0
C206 C 0.6273 0.55111 0.59972 0.0
C207 C 0.61257 0.54737 0.56931 0.0
C208 C 0.58394 0.54286 0.56972 0.0
C209 C 0.5427 0.48964 0.70395 0.0
C210 C 0.48461 0.53908 0.70795 0.0
C211 C 0.45095 0.43928 0.72553 0.0
C212 C 0.45719 0.42446 0.75699 0.0
C213 C 0.48301 0.41184 0.76184 0.0
C214 C 0.4891 0.39904 0.79255 0.0
C215 C 0.46964 0.399 0.81902 0.0
C216 C 0.44387 0.41172 0.81411 0.0
C217 C 0.43768 0.42427 0.78328 0.0
C218 C 0.44797 0.49215 0.62743 0.0
C219 C 0.53375 0.43881 0.65309 0.0
O220 O 0.52596 0.54482 0.62683 0.0
O221 O 0.5337 0.50971 0.59427 0.0
O222 O 0.51781 0.49695 0.70318 0.0
O223 O 0.55376 0.49028 0.67414 0.0
O224 O 0.4807 0.51407 0.72031 0.0
O225 O 0.4929 0.54078 0.67598 0.0
O226 O 0.4494 0.46595 0.72824 0.0
O227 O 0.46398 0.43137 0.69825 0.0
O228 O 0.47193 0.48121 0.62609 0.0
O229 O 0.44142 0.496 0.65875 0.0
O230 O 0.53505 0.45995 0.6322 0.0
O231 O 0.51506 0.43994 0.67764 0.0
H232 H 0.57383 0.54406 0.65514 0.0
H233 H 0.62377 0.55276 0.6543 0.0
H234 H 0.62308 0.54866 0.54512 0.0
H235 H 0.57299 0.53998 0.54604 0.0
H236 H 0.4986 0.41211 0.74209 0.0
H237 H 0.5092 0.38959 0.7958 0.0
H238 H 0.4284 0.41173 0.834 0.0
H239 H 0.41775 0.43409 0.78007 0.0
Pr240 Pr 0.974 0.26396 0.3919 0.0
Pr241 Pr 1.00421 0.23554 0.43349 0.0
C242 C 0.95605 0.27838 0.33017 0.0
C243 C 0.94089 0.26524 0.30195 0.0
C244 C 0.91184 0.26592 0.30076 0.0
C245 C 0.89774 0.25611 0.27242 0.0
C246 C 0.91237 0.24554 0.2445 0.0
C247 C 0.94133 0.24322 0.24664 0.0
C248 C 0.95546 0.25306 0.27504 0.0
C249 C 0.97431 0.2947 0.45059 0.0
C250 C 0.93624 0.23959 0.45341 0.0
C251 C 1.02948 0.20453 0.48075 0.0
C252 C 1.04395 0.20802 0.51309 0.0
C253 C 1.04159 0.18748 0.53774 0.0
C254 C 1.05603 0.18985 0.56818 0.0
C255 C 1.07324 0.21278 0.57439 0.0
C256 C 1.07505 0.23366 0.5498 0.0
C257 C 1.06043 0.23135 0.51945 0.0
C258 C 0.99665 0.20551 0.37154 0.0
C259 C 1.03922 0.28914 0.40335 0.0
O260 O 0.98107 0.26937 0.33597 0.0
O261 O 0.9422 0.28384 0.35783 0.0
O262 O 0.99537 0.28179 0.44001 0.0
O263 O 0.95351 0.29387 0.42971 0.0
O264 O 0.96151 0.23474 0.46494 0.0
O265 O 0.93391 0.24811 0.42176 0.0
O266 O 1.00287 0.2091 0.48078 0.0
O267 O 1.04202 0.21414 0.45394 0.0
O268 O 0.97781 0.21623 0.38947 0.0
O269 O 1.02043 0.21348 0.38321 0.0
O270 O 1.01719 0.28941 0.38325 0.0
O271 O 1.03889 0.2709 0.42817 0.0
H272 H 0.89999 0.27512 0.32105 0.0
H273 H 0.87547 0.25878 0.27149 0.0
H274 H 0.95316 0.2351 0.22563 0.0
H275 H 0.9779 0.25207 0.27529 0.0
H276 H 1.02874 0.16946 0.53331 0.0
H277 H 1.0537 0.17368 0.58683 0.0
H278 H 1.0883 0.25146 0.5536 0.0
H279 H 1.06233 0.24757 0.50077 0.0
Pr280 Pr 0.21291 0.72878 0.14256 0.0
Pr281 Pr 0.24321 0.76006 0.18402 0.0
C282 C 0.19776 0.71023 0.08142 0.0
C283 C 0.21075 0.69344 0.05467 0.0
C284 C 0.20755 0.66476 0.05477 0.0
C285 C 0.21825 0.64903 0.02844 0.0
C286 C 0.2323 0.66159 0.00121 0.0
C287 C 0.23664 0.69018 0.00189 0.0
C288 C 0.22593 0.70597 0.02834 0.0
C289 C 0.185 0.72912 0.20339 0.0
C290 C 0.23939 0.69176 0.20263 0.0
C291 C 0.27286 0.78532 0.23299 0.0
C292 C 0.26637 0.7991 0.26501 0.0
C293 C 0.28622 0.80004 0.29082 0.0
C294 C 0.28029 0.81328 0.32132 0.0
C295 C 0.25446 0.82591 0.32631 0.0
C296 C 0.23448 0.82459 0.3005 0.0
C297 C 0.24033 0.81113 0.27015 0.0
C298 C 0.27267 0.75211 0.1216 0.0
C299 C 0.18773 0.79314 0.15388 0.0
O300 O 0.20841 0.73473 0.08631 0.0
O301 O 0.19073 0.69774 0.10954 0.0
O302 O 0.19689 0.75022 0.19108 0.0
O303 O 0.18503 0.70808 0.18303 0.0
O304 O 0.24528 0.71676 0.2142 0.0
O305 O 0.2294 0.68956 0.1716 0.0
O306 O 0.26861 0.75882 0.23225 0.0
O307 O 0.26456 0.79766 0.20554 0.0
O308 O 0.26116 0.7336 0.13949 0.0
O309 O 0.26663 0.77582 0.13433 0.0
O310 O 0.18503 0.76976 0.13689 0.0
O311 O 0.20865 0.79503 0.17549 0.0
H312 H 0.19597 0.65445 0.07462 0.0
H313 H 0.21388 0.62715 0.02847 0.0
H314 H 0.24737 0.70046 0.98134 0.0
H315 H 0.22888 0.72806 0.02761 0.0
H316 H 0.30635 0.7907 0.28728 0.0
H317 H 0.29613 0.81419 0.3407 0.0
H318 H 0.21431 0.83387 0.30385 0.0
H319 H 0.22458 0.81024 0.25063 0.0
Pr320 Pr 1.00257 0.7327 0.55273 0.0
Pr321 Pr 0.97523 0.76388 0.59686 0.0
C322 C 1.0364 0.70395 0.51181 0.0
C323 C 1.0569 0.70818 0.48492 0.0
C324 C 1.0619 0.68668 0.46231 0.0
C325 C 1.07937 0.69069 0.43462 0.0
C326 C 1.09235 0.71632 0.42908 0.0
C327 C 1.08765 0.73777 0.4523 0.0
C328 C 1.06995 0.73375 0.47998 0.0
C329 C 0.98417 0.69936 0.60884 0.0
C330 C 1.0391 0.7871 0.58473 0.0
C331 C 0.95134 0.79004 0.64891 0.0
C332 C 0.93569 0.81578 0.64838 0.0
C333 C 0.9196 0.82261 0.62002 0.0
C334 C 0.90963 0.84928 0.61595 0.0
C335 C 0.91557 0.86958 0.6402 0.0
C336 C 0.93087 0.86237 0.66916 0.0
C337 C 0.94093 0.83572 0.67312 0.0
C338 C 0.97341 0.79125 0.53508 0.0
C339 C 0.93676 0.73832 0.53354 0.0
O340 O 1.0109 0.71013 0.50398 0.0
O341 O 1.04334 0.71137 0.54248 0.0
O342 O 0.99657 0.72243 0.61113 0.0
O343 O 0.97813 0.69511 0.57745 0.0
O344 O 1.01718 0.78936 0.60445 0.0
O345 O 1.03868 0.76727 0.56155 0.0
O346 O 0.93991 0.76862 0.63438 0.0
O347 O 0.97743 0.79312 0.64108 0.0
O348 O 0.99455 0.77893 0.54594 0.0
O349 O 0.95321 0.79073 0.55655 0.0
O350 O 0.96135 0.73407 0.51995 0.0
O351 O 0.93589 0.74576 0.56592 0.0
H352 H 1.05168 0.66693 0.46557 0.0
H353 H 1.08193 0.67388 0.41695 0.0
H354 H 1.09748 0.75768 0.44897 0.0
H355 H 1.06608 0.75067 0.49714 0.0
H356 H 0.91556 0.80763 0.60034 0.0
H357 H 0.89791 0.85415 0.59341 0.0
H358 H 0.93516 0.87733 0.68879 0.0
H359 H 0.95365 0.83094 0.6949 0.0
Pr360 Pr 0.24337 0.25859 0.8011 0.0
Pr361 Pr 0.21417 0.22796 0.84728 0.0
C362 C 0.27007 0.29276 0.75817 0.0
C363 C 0.26665 0.31257 0.73064 0.0
C364 C 0.28842 0.31577 0.70756 0.0
C365 C 0.28553 0.33294 0.67963 0.0
C366 C 0.26078 0.34743 0.67427 0.0
C367 C 0.23897 0.34439 0.69777 0.0
C368 C 0.24187 0.32698 0.72579 0.0
C369 C 0.27831 0.24231 0.85621 0.0
C370 C 0.18789 0.29068 0.83717 0.0
C371 C 0.2022 0.19959 0.90363 0.0
C372 C 0.20528 0.17014 0.91197 0.0
C373 C 0.1846 0.15103 0.90317 0.0
C374 C 0.18845 0.12307 0.9092 0.0
C375 C 0.21309 0.11352 0.92413 0.0
C376 C 0.23382 0.13265 0.93283 0.0
C377 C 0.2299 0.16066 0.92697 0.0
C378 C 0.18624 0.225 0.78634 0.0
C379 C 0.2415 0.19262 0.78274 0.0
O380 O 0.26402 0.26722 0.75099 0.0
O381 O 0.26266 0.30006 0.78869 0.0
O382 O 0.25453 0.25318 0.85859 0.0
O383 O 0.28304 0.23708 0.82474 0.0
O384 O 0.18546 0.26755 0.85479 0.0
O385 O 0.20872 0.29282 0.81514 0.0
O386 O 0.22542 0.21313 0.89935 0.0
O387 O 0.18319 0.20626 0.88154 0.0
O388 O 0.19722 0.24681 0.79781 0.0
O389 O 0.18888 0.20412 0.80663 0.0
O390 O 0.24287 0.21732 0.76894 0.0
O391 O 0.23563 0.1911 0.81562 0.0
H392 H 0.30755 0.3045 0.71078 0.0
H393 H 0.3025 0.33421 0.66172 0.0
H394 H 0.21971 0.35538 0.69449 0.0
H395 H 0.22475 0.32451 0.74333 0.0
H396 H 0.16539 0.15763 0.89167 0.0
H397 H 0.17165 1.10904 0.90313 0.0
H398 H 0.25297 0.12602 0.94444 0.0
H399 H 0.24629 0.17488 0.93404 0.0
Pr400 Pr 0.72084 0.49996 0.05694 0.0
Pr401 Pr 0.74852 0.46727 0.09846 0.0
C402 C 0.68561 0.52679 0.01581 0.0
C403 C 0.67108 0.52023 0.98427 0.0
C404 C 0.64819 0.53584 0.97447 0.0
C405 C 0.63427 0.52978 0.9444 0.0
C406 C 0.64313 0.50804 0.92363 0.0
C407 C 0.66611 0.49239 0.93362 0.0
C408 C 0.6799 0.49836 0.96383 0.0
C409 C 0.7373 0.53185 0.1147 0.0
C410 C 0.68492 0.44544 0.08846 0.0
C411 C 0.78172 0.44266 0.14344 0.0
C412 C 0.79387 0.41518 0.14082 0.0
C413 C 0.80088 0.40442 0.10893 0.0
C414 C 0.80931 0.37714 0.10576 0.0
C415 C 0.81038 0.36008 0.13433 0.0
C416 C 0.80342 0.37096 0.16621 0.0
C417 C 0.79522 0.39831 0.16941 0.0
C418 C 0.73751 0.43715 0.03954 0.0
C419 C 0.78683 0.49504 0.03526 0.0
O420 O 0.71253 0.52894 0.01357 0.0
O421 O 0.67744 0.5133 0.04263 0.0
O422 O 0.72645 0.50785 0.11613 0.0
O423 O 0.7418 0.53813 0.08344 0.0
O424 O 0.70519 0.44556 0.11084 0.0
O425 O 0.68696 0.46316 0.06309 0.0
O426 O 0.79082 0.46098 0.12194 0.0
O427 O 0.75484 0.44284 0.14658 0.0
O428 O 0.74465 0.46199 0.04044 0.0
O429 O 0.73738 0.42634 0.06944 0.0
O430 O 0.762 0.50116 0.02329 0.0
O431 O 0.78789 0.48436 0.06616 0.0
H432 H 0.64115 0.55277 -0.00998 0.0
H433 H 0.61681 0.54237 0.93715 0.0
H434 H 0.67319 0.47535 0.91831 0.0
H435 H 0.69746 0.48594 0.97124 0.0
H436 H 0.79931 0.41694 0.08634 0.0
H437 H 0.81456 0.36928 0.08094 0.0
H438 H 0.80461 0.35839 0.18878 0.0
H439 H 0.78945 0.40613 0.19408 0.0
Pr440 Pr 0.47817 0.97464 0.30179 0.0
Pr441 Pr 0.51248 1.00273 0.34399 0.0
C442 C 0.44932 0.94052 0.26081 0.0
C443 C 0.45383 0.92517 0.22946 0.0
C444 C 0.43189 0.91008 0.21545 0.0
C445 C 0.43538 0.89637 0.18475 0.0
C446 C 0.46091 0.8976 0.16751 0.0
C447 C 0.48307 0.91241 0.18203 0.0
C448 C 0.47953 0.92616 0.2128 0.0
C449 C 0.4469 0.99214 0.35942 0.0
C450 C 0.53182 0.93842 0.33482 0.0
C451 C 0.53827 1.03128 0.39292 0.0
C452 C 0.56647 1.02796 0.4062 0.0
C453 C 0.58778 1.01846 0.38501 0.0
C454 C 0.6143 1.01399 0.3978 0.0
C455 C 0.62 1.01886 0.43208 0.0
C456 C 0.59846 1.02793 0.45338 0.0
C457 C 0.57189 1.03238 0.44052 0.0
C458 C 0.54207 0.98892 0.28568 0.0
C459 C 0.48428 1.04039 0.28183 0.0
O460 O 0.4491 0.96723 0.2579 0.0
O461 O 0.46282 0.93209 0.28744 0.0
O462 O 0.47079 0.98108 0.36063 0.0
O463 O 0.4403 0.99614 0.3282 0.0
O464 O 0.53354 0.95949 0.35581 0.0
O465 O 0.5134 0.93992 0.31 0.0
O466 O 0.53646 1.04011 0.36181 0.0
O467 O 0.52123 1.01097 0.3994 0.0
O468 O 0.5175 0.99739 0.28608 0.0
O469 O 0.55278 0.98854 0.31571 0.0
O470 O 0.47931 1.01573 0.26887 0.0
O471 O 0.49334 1.04151 0.31358 0.0
H472 H 0.41196 0.90911 0.2281 0.0
H473 H 0.41806 0.88477 0.17452 0.0
H474 H 0.50289 0.91392 0.16924 0.0
H475 H 0.49666 0.93787 0.22335 0.0
H476 H 0.58399 1.01456 0.35847 0.0
H477 H 0.63039 1.00693 0.38082 0.0
H478 H 0.60231 1.03241 0.4798 0.0
H479 H 0.55563 1.03938 0.45732 0.0
Pr480 Pr 0.25163 0.47092 0.39018 0.0
Pr481 Pr 0.22065 0.49976 0.4332 0.0
C482 C 0.27094 0.4567 0.329 0.0
C483 C 0.28854 0.46958 0.30271 0.0
C484 C 0.31747 0.46687 0.30378 0.0
C485 C 0.33386 0.47701 0.27749 0.0
C486 C 0.32171 0.48999 0.24937 0.0
C487 C 0.29291 0.4941 0.24923 0.0
C488 C 0.27647 0.48391 0.2756 0.0
C489 C 0.25045 0.44142 0.44989 0.0
C490 C 0.28911 0.49586 0.45172 0.0
C491 C 0.19546 0.52845 0.48262 0.0
C492 C 0.18175 0.5213 0.51453 0.0
C493 C 0.16997 0.49508 0.5192 0.0
C494 C 0.15666 0.48852 0.54953 0.0
C495 C 0.1553 0.50794 0.57576 0.0
C496 C 0.16768 0.53395 0.57124 0.0
C497 C 0.18075 0.54059 0.54076 0.0
C498 C 0.22834 0.53002 0.37144 0.0
C499 C 0.1861 0.4461 0.40146 0.0
O500 O 0.24653 0.4676 0.33368 0.0
O501 O 0.28292 0.44915 0.35718 0.0
O502 O 0.22964 0.45365 0.4378 0.0
O503 O 0.27181 0.44193 0.42978 0.0
O504 O 0.26388 0.50061 0.46364 0.0
O505 O 0.29134 0.48743 0.42 0.0
O506 O 0.2222 0.52461 0.48165 0.0
O507 O 0.18288 0.52039 0.4551 0.0
O508 O 0.24714 0.51868 0.38887 0.0
O509 O 0.20448 0.52317 0.38399 0.0
O510 O 0.20821 0.4459 0.38136 0.0
O511 O 0.1863 0.46413 0.42656 0.0
H512 H 0.32744 0.45598 0.32429 0.0
H513 H 0.35589 0.4729 0.2782 0.0
H514 H 0.28294 0.50406 0.22801 0.0
H515 H 0.25421 0.48648 0.27414 0.0
H516 H 0.17095 0.47976 0.49933 0.0
H517 H 0.14753 0.46824 0.55255 0.0
H518 H 0.1667 0.54935 0.591 0.0
H519 H 0.18993 0.56084 0.53757 0.0
Pr520 Pr 1.01245 1.00379 0.14481 0.0
Pr521 Pr 0.97763 0.97513 0.18598 0.0
C522 C 1.03619 1.03101 0.09334 0.0
C523 C 1.06101 1.02354 0.07413 0.0
C524 C 1.081 1.00634 0.08876 0.0
C525 C 1.10424 0.99833 0.07029 0.0
C526 C 1.10771 1.00719 0.03677 0.0
C527 C 1.08716 1.02372 0.02188 0.0
C528 C 1.06396 1.03181 0.04045 0.0
C529 C 1.04142 0.98986 0.20341 0.0
C530 C 0.98403 1.04125 0.20671 0.0
C531 C 0.94837 0.94058 0.22601 0.0
C532 C 0.9531 0.92454 0.2567 0.0
C533 C 0.93139 0.90888 0.27033 0.0
C534 C 0.93525 0.89431 0.30033 0.0
C535 C 0.96091 0.89528 0.31722 0.0
C536 C 0.98283 0.91067 0.30305 0.0
C537 C 0.97893 0.92523 0.27296 0.0
C538 C 0.94736 0.99248 0.12776 0.0
C539 C 1.03254 0.9397 0.1536 0.0
O540 O 1.04021 1.03783 0.12493 0.0
O541 O 1.01508 1.01441 0.08919 0.0
O542 O 1.01662 0.99779 0.20285 0.0
O543 O 1.05264 0.99027 0.17355 0.0
O544 O 0.97762 1.01658 0.21891 0.0
O545 O 0.9945 1.04255 0.17565 0.0
O546 O 0.9485 0.96722 0.22977 0.0
O547 O 0.96162 0.93256 0.19899 0.0
O548 O 0.97131 0.98146 0.12729 0.0
O549 O 0.94018 0.99662 0.15879 0.0
O550 O 1.03549 0.96164 0.13424 0.0
O551 O 1.01252 0.93994 0.17671 0.0
H552 H 1.07877 0.99925 0.11457 0.0
H553 H 0.11971 0.98562 0.08237 0.0
H554 H 1.08954 1.03134 -0.00371 0.0
H555 H 1.04849 1.04469 0.02864 0.0
H556 H 0.91137 0.90809 0.25791 0.0
H557 H 0.91812 0.88227 0.31031 0.0
H558 H 1.00275 0.912 0.3156 0.0
H559 H 0.99591 0.93729 0.2626 0.0
Pr560 Pr 0.4747 0.76285 0.8908 0.0
Pr561 Pr 0.50357 0.73363 0.93572 0.0
C562 C 0.45737 0.77676 0.82865 0.0
C563 C 0.44063 0.76393 0.80157 0.0
C564 C 0.41166 0.76623 0.80168 0.0
C565 C 0.39611 0.75636 0.77455 0.0
C566 C 0.40914 0.74405 0.74654 0.0
C567 C 0.43799 0.74024 0.74739 0.0
C568 C 0.4536 0.75019 0.77459 0.0
C569 C 0.4745 0.79341 0.94966 0.0
C570 C 0.43511 0.73927 0.95195 0.0
C571 C 0.52709 0.70427 0.98585 0.0
C572 C 0.54004 0.70903 0.01877 0.0
C573 C 0.55204 0.68695 0.03586 0.0
C574 C 0.56524 0.69117 0.06681 0.0
C575 C 0.56662 0.71762 0.08118 0.0
C576 C 0.55443 0.73976 0.06391 0.0
C577 C 0.5412 0.73548 0.03288 0.0
C578 C 0.49765 0.70266 0.87407 0.0
C579 C 0.5399 0.78666 0.90416 0.0
O580 O 0.48159 0.76584 0.8345 0.0
O581 O 0.44449 0.78437 0.85622 0.0
O582 O 0.49541 0.7801 0.93946 0.0
O583 O 0.45411 0.79319 0.92815 0.0
O584 O 0.45972 0.73327 0.96466 0.0
O585 O 0.43397 0.7482 0.9203 0.0
O586 O 0.50048 0.7087 0.98394 0.0
O587 O 0.54079 0.71347 0.95968 0.0
O588 O 0.47843 0.71517 0.88962 0.0
O589 O 0.52085 0.7079 0.88919 0.0
O590 O 0.51847 0.78706 0.88316 0.0
O591 O 0.53866 0.76882 0.9295 0.0
H592 H 0.401 0.77665 0.82207 0.0
H593 H 0.37402 0.76022 0.77461 0.0
H594 H 0.44864 0.73074 0.72633 0.0
H595 H 0.47592 0.74793 0.7739 0.0
H596 H 0.55144 0.66645 0.0251 0.0
H597 H 0.57484 0.67378 0.07914 0.0
H598 H 0.55497 0.76031 0.07447 0.0
H599 H 0.53202 0.75275 0.01982 0.0
Pr600 Pr 0.71196 0.22836 0.64296 0.0
Pr601 Pr 0.74385 0.25834 0.68542 0.0
C602 C 0.69785 0.19247 0.59419 0.0
C603 C 0.70886 0.16589 0.58243 0.0
C604 C 0.69388 0.14173 0.58926 0.0
C605 C 0.70321 0.1165 0.57734 0.0
C606 C 0.72766 0.11484 0.55799 0.0
C607 C 0.74326 0.13889 0.5522 0.0
C608 C 0.734 0.16422 0.56441 0.0
C609 C 0.67993 0.24076 0.69937 0.0
C610 C 0.73957 0.19341 0.70808 0.0
C611 C 0.77031 0.29379 0.72681 0.0
C612 C 0.76516 0.30768 0.75935 0.0
C613 C 0.76031 0.33608 0.75983 0.0
C614 C 0.75569 0.34966 0.79036 0.0
C615 C 0.75617 0.33517 0.82115 0.0
C616 C 0.76087 0.30668 0.82064 0.0
C617 C 0.76529 0.29305 0.79004 0.0
C618 C 0.7763 0.24235 0.62798 0.0
C619 C 0.68904 0.29169 0.65059 0.0
O620 O 0.71293 0.21441 0.58842 0.0
O621 O 0.68629 0.1925 0.62404 0.0
O622 O 0.70514 0.23409 0.70041 0.0
O623 O 0.66983 0.23971 0.66888 0.0
O624 O 0.74198 0.21853 0.72061 0.0
O625 O 0.7327 0.19137 0.67563 0.0
O626 O 0.77413 0.26724 0.72757 0.0
O627 O 0.75541 0.30172 0.70104 0.0
O628 O 0.7521 0.25268 0.62691 0.0
O629 O 0.78281 0.23811 0.65921 0.0
O630 O 0.68858 0.2704 0.62962 0.0
O631 O 0.70728 0.29123 0.67568 0.0
H632 H 0.67448 0.14242 0.60308 0.0
H633 H 0.69026 1.09853 0.58157 0.0
H634 H 0.76209 0.13825 0.53727 0.0
H635 H 0.74619 0.18249 0.55902 0.0
H636 H 0.76012 0.34784 0.73654 0.0
H637 H 0.75167 0.37154 0.78977 0.0
H638 H 0.76174 0.29497 0.84391 0.0
H639 H 0.76903 0.27112 0.79055 0.0
H640 H 0.57366 0.30622 0.0334 0.0
H641 H 0.66503 0.41419 0.14273 0.0
H642 H 0.55658 0.32086 0.13874 0.0
H643 H 0.65348 0.42375 0.03545 0.0
H644 H 0.63048 0.37647 0.14249 0.0
H645 H 0.60755 0.34443 0.0342 0.0
C646 C 0.57717 0.31712 0.05691 0.0
C647 C 0.56192 0.30966 0.08612 0.0
C648 C 0.63536 0.38684 0.11897 0.0
C649 C 0.60169 0.35423 0.08724 0.0
C650 C 0.65523 0.40858 0.11907 0.0
C651 C 0.66236 0.42292 0.08914 0.0
C652 C 0.62267 0.37828 0.08852 0.0
C653 C 0.64871 0.41396 0.05937 0.0
C654 C 0.59655 0.33926 0.05725 0.0
C655 C 0.5676 0.32538 0.11551 0.0
N656 N 0.63004 0.39235 0.05979 0.0
N657 N 0.58694 0.34642 0.11536 0.0
H658 H 0.65602 0.81086 0.39093 0.0
H659 H 0.55031 0.90457 0.28288 0.0
H660 H 0.66751 0.82602 0.28453 0.0
H661 H 0.56458 0.92018 0.38864 0.0
H662 H 0.5879 0.87049 0.28365 0.0
H663 H 0.61836 0.84516 0.39145 0.0
C664 C 0.6508 0.82133 0.36763 0.0
C665 C 0.66564 0.81532 0.33771 0.0
C666 C 0.58275 0.88119 0.30681 0.0
C667 C 0.62123 0.85467 0.33794 0.0
C668 C 0.56096 0.90066 0.30648 0.0
C669 C 0.55362 0.91556 0.33581 0.0
C670 C 0.59744 0.87559 0.3369 0.0
C671 C 0.56903 0.90941 0.36532 0.0
C672 C 0.62914 0.84105 0.36797 0.0
C673 C 0.65726 0.82984 0.30843 0.0
N674 N 0.58973 0.88998 0.36516 0.0
N675 N 0.63576 0.84832 0.30924 0.0
H676 H 0.15419 0.92386 0.53248 0.0
H677 H 1.05555 0.82044 0.63833 0.0
H678 H 0.16511 0.91235 0.63959 0.0
H679 H 1.07502 0.80549 0.53368 0.0
H680 H 1.09041 0.85777 0.63916 0.0
H681 H 0.12052 0.88546 0.53208 0.0
C682 C 0.14936 0.9136 0.5561 0.0
C683 C 0.1628 0.92199 0.58619 0.0
C684 C 1.08722 0.8463 0.616 0.0
C685 C 0.12327 0.87726 0.58589 0.0
C686 C 1.06719 0.82477 0.61547 0.0
C687 C 1.06213 0.80907 0.58599 0.0
C688 C 1.10221 0.85332 0.58651 0.0
C689 C 1.07811 0.81641 0.55725 0.0
C690 C 0.13012 0.89136 0.55576 0.0
C691 C 0.15551 0.90709 0.6157 0.0
N692 N 1.09691 0.83791 0.55815 0.0
N693 N 0.13629 0.88596 0.61484 0.0
H694 H 1.08965 0.44445 0.85343 0.0
H695 H 0.13209 0.28483 0.85371 0.0
H696 H 1.03079 0.38235 0.82285 0.0
H697 H 0.19079 0.34729 0.8236 0.0
H698 H 1.09508 0.3196 0.85327 0.0
H699 H 0.12643 0.40953 0.85333 0.0
C700 C 1.08421 0.42344 0.84705 0.0
C701 C 1.05652 0.41677 0.83833 0.0
C702 C 1.11606 0.32581 0.84691 0.0
C703 C 1.09944 0.37576 0.83875 0.0
C704 C 0.13745 0.30587 0.84738 0.0
C705 C 0.16516 0.3127 0.83888 0.0
C706 C 0.12202 0.3535 0.83885 0.0
C707 C 0.17008 0.34063 0.83048 0.0
C708 C 1.10547 0.40341 0.8468 0.0
C709 C 1.0515 0.38887 0.82987 0.0
N710 N 0.14908 0.35977 0.83111 0.0
N711 N 1.07241 0.36961 0.83073 0.0
H712 H 0.66874 0.91144 0.84778 0.0
H713 H 0.57327 0.80643 0.95606 0.0
H714 H 0.65251 0.92361 0.9538 0.0
H715 H 0.55818 0.8194 0.84996 0.0
H716 H 0.60742 0.84431 0.95512 0.0
H717 H 0.63387 0.8739 0.84727 0.0
C718 C 0.65789 0.90641 0.87099 0.0
C719 C 0.66379 0.92139 0.9008 0.0
C720 C 0.5968 0.83885 0.93193 0.0
C721 C 0.62377 0.8771 0.9006 0.0
C722 C 0.57725 0.81692 0.93236 0.0
C723 C 0.56246 0.80911 0.903 0.0
C724 C 0.60262 0.85326 0.90171 0.0
C725 C 0.5688 0.82426 0.87333 0.0
C726 C 0.63784 0.88481 0.87066 0.0
C727 C 0.64878 0.91325 0.92999 0.0
N728 N 0.58834 0.84514 0.8734 0.0
N729 N 0.63 0.89179 0.9292 0.0
H730 H 0.55211 0.40459 0.70477 0.0
H731 H 0.65664 0.30982 0.59611 0.0
H732 H 0.56683 0.42072 0.59919 0.0
H733 H 0.66876 0.32466 0.70241 0.0
H734 H 0.61959 0.34475 0.5959 0.0
H735 H 0.58943 0.3702 0.7038 0.0
C736 C 0.56284 0.40078 0.68117 0.0
C737 C 0.55568 0.41595 0.65197 0.0
C738 C 0.63038 0.34046 0.61929 0.0
C739 C 0.59919 0.37549 0.65061 0.0
C740 C 0.65171 0.32036 0.61945 0.0
C741 C 0.66659 0.31404 0.64924 0.0
C742 C 0.62274 0.35419 0.64938 0.0
C743 C 0.65852 0.3287 0.67859 0.0
C744 C 0.58447 0.38109 0.68072 0.0
C745 C 0.57115 0.40981 0.62244 0.0
N746 N 0.63729 0.34754 0.67796 0.0
N747 N 0.59167 0.39015 0.62247 0.0
H748 H 1.07326 0.30849 0.45468 0.0
H749 H 0.16886 0.41341 0.34678 0.0
H750 H 1.05658 0.32262 0.34917 0.0
H751 H 0.15217 0.4258 0.45265 0.0
H752 H 0.13365 0.37612 0.34608 0.0
H753 H 1.10753 0.34622 0.45358 0.0
C754 C 1.07689 0.31923 0.43106 0.0
C755 C 1.0616 0.31179 0.40194 0.0
C756 C 0.13761 0.38703 0.36946 0.0
C757 C 1.10201 0.35573 0.40043 0.0
C758 C 0.15787 0.40847 0.36992 0.0
C759 C 0.16375 0.42344 0.39975 0.0
C760 C 0.12333 0.37945 0.39932 0.0
C761 C 0.14851 0.41543 0.42883 0.0
C762 C 1.09653 0.34108 0.43055 0.0
C763 C 1.06756 0.32722 0.37237 0.0
N764 N 0.12956 0.39412 0.42794 0.0
N765 N 1.08724 0.34799 0.37232 0.0
H766 H 0.1916 0.8497 0.16554 0.0
H767 H 1.02869 0.88388 0.17148 0.0
H768 H 0.13132 0.78738 0.14016 0.0
H769 H 1.08776 0.94349 0.13444 0.0
H770 H 1.06555 0.84868 0.17047 0.0
H771 H 0.1544 0.8844 0.16456 0.0
C772 C 0.17063 0.84317 0.15971 0.0
C773 C 0.16511 0.81521 0.15252 0.0
C774 C 1.07046 0.86946 0.16249 0.0
C775 C 0.12149 0.8554 0.15256 0.0
C776 C 1.04929 0.88971 0.16309 0.0
C777 C 1.05458 0.91704 0.15265 0.0
C778 C 1.0978 0.87642 0.15256 0.0
C779 C 1.08217 0.92287 0.14235 0.0
C780 C 0.14926 0.86315 0.15915 0.0
C781 C 0.13706 0.8085 0.14546 0.0
N782 N 1.10247 0.90311 0.14298 0.0
N783 N 1.11656 0.82812 0.14606 0.0
H784 H 0.33131 0.22262 0.85017 0.0
H785 H 0.38331 0.25369 0.04163 0.0
H786 H 0.27734 0.25809 0.92495 0.0
H787 H 0.43514 0.22021 0.96322 0.0
H788 H 0.34418 0.25444 0.00139 0.0
H789 H 0.36845 0.22069 0.89221 0.0
C790 C 0.32709 0.23 0.87549 0.0
C791 C 0.30071 0.2406 0.88349 0.0
C792 C 0.36406 0.24679 -0.00702 0.0
C793 C 0.34423 0.23842 0.93295 0.0
C794 C 0.38657 0.24624 0.01614 0.0
C795 C 0.41302 0.2367 0.00635 0.0
C796 C 0.3676 0.23776 0.9593 0.0
C797 C 0.41545 0.22764 0.9725 0.0
C798 C 0.34856 0.22889 0.8997 0.0
C799 C 0.29709 0.24974 0.91718 0.0
N800 N 0.39336 0.22843 0.9506 0.0
N801 N 0.31841 0.24848 0.94039 0.0
H802 H 0.75701 0.58453 0.10955 0.0
H803 H 0.72367 0.63677 0.29999 0.0
H804 H 0.72005 0.53048 0.18348 0.0
H805 H 0.75519 0.68851 0.22009 0.0
H806 H 0.72357 0.59741 0.26041 0.0
H807 H 0.75784 0.62146 0.15127 0.0
C808 C 0.74907 0.58021 0.13465 0.0
C809 C 0.7384 0.55384 0.14242 0.0
C810 C 0.73064 0.61733 0.25154 0.0
C811 C 0.73933 0.5973 0.19167 0.0
C812 C 0.73082 0.63997 0.27431 0.0
C813 C 0.73963 0.66648 0.2639 0.0
C814 C 0.73938 0.62078 0.21768 0.0
C815 C 0.74831 0.66881 0.22986 0.0
C816 C 0.74955 0.60161 0.1587 0.0
C817 C 0.72854 0.55019 0.17587 0.0
N818 N 0.74797 0.6466 0.20841 0.0
N819 N 0.72922 0.57149 0.19901 0.0
H820 H 0.39484 1.01367 0.35551 0.0
H821 H 0.3414 0.97653 0.54466 0.0
H822 H 0.44811 0.97391 0.42761 0.0
H823 H 0.29104 1.01369 0.46747 0.0
H824 H 0.38094 0.97641 0.50481 0.0
H825 H 0.35794 1.01483 0.39772 0.0
C826 C 0.39898 1.0052 0.38032 0.0
C827 C 0.4251 0.99364 0.38746 0.0
C828 C 0.3613 0.98473 0.49662 0.0
C829 C 0.38172 0.99488 0.4372 0.0
C830 C 0.33857 0.98492 0.51954 0.0
C831 C 0.3124 0.9953 0.50993 0.0
C832 C 0.35824 0.99501 0.46342 0.0
C833 C 0.31048 1.00555 0.47658 0.0
C834 C 0.37762 1.00586 0.40464 0.0
C835 C 0.42859 0.98311 0.42054 0.0
N836 N 0.33275 1.00511 0.45494 0.0
N837 N 0.40731 0.98393 0.44393 0.0
H838 H 0.96357 0.64674 0.60213 0.0
H839 H 0.99843 0.5925 0.79143 0.0
H840 H 1.00213 0.69881 0.6768 0.0
H841 H 0.96589 0.54075 0.71229 0.0
H842 H 0.99832 0.63174 0.75189 0.0
H843 H 0.9627 0.60892 0.64308 0.0
C844 C 0.97182 0.65042 0.6272 0.0
C845 C 0.98296 0.6765 0.6355 0.0
C846 C 0.99108 0.61186 0.74312 0.0
C847 C 0.98199 0.63218 0.68367 0.0
C848 C 0.99102 0.58926 0.76589 0.0
C849 C 0.982 0.56278 0.75573 0.0
C850 C 0.98198 0.60848 0.70944 0.0
C851 C 0.97294 0.56044 0.72183 0.0
C852 C 0.97134 0.62855 0.65077 0.0
C853 C 0.99328 0.67937 0.66882 0.0
N854 N 0.97317 0.58268 0.7003 0.0
N855 N 0.99254 0.65771 0.6914 0.0
H856 H 0.84473 0.97735 0.93991 0.0
H857 H 0.89497 1.0133 0.13062 0.0
H858 H 0.79252 1.01163 0.01741 0.0
H859 H 0.94983 0.97446 0.05941 0.0
H860 H 0.8587 1.01413 0.08774 0.0
H861 H 0.88381 0.97741 0.98041 0.0
C862 C 0.84138 0.98515 0.96522 0.0
C863 C 0.81483 0.99467 0.97471 0.0
C864 C 0.87859 1.00543 0.08115 0.0
C865 C 0.86014 0.99459 0.02196 0.0
C866 C 0.89961 1.00496 0.10587 0.0
C867 C 0.92598 0.99375 0.09922 0.0
C868 C 0.8833 0.99464 0.04861 0.0
C869 C 0.93008 0.98338 0.06615 0.0
C870 C 0.86385 0.98505 0.98852 0.0
C871 C 0.81227 1.00417 0.00834 0.0
N872 N 0.90913 0.98403 0.04233 0.0
N873 N 0.83429 1.00387 0.0303 0.0
H874 H 0.52676 0.65426 0.87145 0.0
H875 H 0.47443 0.59473 0.69373 0.0
H876 H 0.46079 0.69582 0.81949 0.0
H877 H 0.49505 0.54117 0.77656 0.0
H878 H 0.47566 0.6343 0.73325 0.0
H879 H 0.52223 0.61559 0.83176 0.0
C880 C 0.51128 0.65539 0.85168 0.0
C881 C 0.49402 0.67864 0.84943 0.0
C882 C 0.4798 0.61386 0.74279 0.0
C883 C 0.48927 0.63392 0.80234 0.0
C884 C 0.47916 0.59114 0.72012 0.0
C885 C 0.48436 0.5641 0.73148 0.0
C886 C 0.48669 0.61003 0.77719 0.0
C887 C 0.49054 0.56128 0.76628 0.0
C888 C 0.50869 0.63311 0.82891 0.0
C889 C 0.47444 0.67845 0.82278 0.0
N890 N 0.49189 0.58368 0.78742 0.0
N891 N 0.47287 0.6568 0.80023 0.0
H892 H 0.77304 0.25793 0.5591 0.0
H893 H 0.93451 0.22233 0.52008 0.0
H894 H 0.82996 0.22419 0.63169 0.0
H895 H 0.88057 0.25441 0.44303 0.0
H896 H 0.89572 0.22259 0.56006 0.0
H897 H 0.81039 0.25662 0.51594 0.0
C898 C 0.79322 0.25017 0.56611 0.0
C899 C 0.79795 0.24122 0.59961 0.0
C900 C 0.89212 0.2295 0.53441 0.0
C901 C 0.84142 0.2397 0.5497 0.0
C902 C 0.91449 0.22928 0.51126 0.0
C903 C 0.91131 0.23818 0.47751 0.0
C904 C 0.8657 0.23882 0.52447 0.0
C905 C 0.88441 0.24712 0.46844 0.0
C906 C 0.8147 0.24945 0.54131 0.0
C907 C 0.8249 0.23142 0.60656 0.0
N908 N 0.86292 0.24726 0.49155 0.0
N909 N 0.84521 0.231 0.58225 0.0
H910 H 0.27391 0.5648 0.35985 0.0
H911 H 0.21 0.6428 0.19757 0.0
H912 H 0.19147 0.5483 0.32312 0.0
H913 H 0.26924 0.68321 0.26245 0.0
H914 H 0.20816 0.60393 0.23734 0.0
H915 H 0.27774 0.60346 0.31934 0.0
C916 C 0.25668 0.56902 0.34314 0.0
C917 C 0.23227 0.55289 0.3453 0.0
C918 C 0.22176 0.62116 0.24285 0.0
C919 C 0.23675 0.59747 0.29789 0.0
C920 C 0.223 0.64347 0.21988 0.0
C921 C 0.23999 0.6667 0.22607 0.0
C922 C 0.23808 0.62123 0.27243 0.0
C923 C 0.25589 0.66599 0.25613 0.0
C924 C 0.25884 0.59132 0.32002 0.0
C925 C 0.21071 0.5599 0.32275 0.0
N926 N 0.25473 0.64378 0.27777 0.0
N927 N 0.21354 0.58121 0.30012 0.0
H928 H 0.80731 0.70709 0.37775 0.0
H929 H 0.88814 0.76833 0.54052 0.0
H930 H 0.79278 0.78911 0.41429 0.0
H931 H 0.92627 0.70953 0.47404 0.0
H932 H 0.84857 0.77131 0.50116 0.0
H933 H 0.84582 0.70274 0.41854 0.0
C934 C 0.81195 0.72415 0.39446 0.0
C935 C 0.79643 0.74859 0.39211 0.0
C936 C 0.86546 0.75755 0.49527 0.0
C937 C 0.84085 0.74347 0.44 0.0
C938 C 0.88811 0.75564 0.51801 0.0
C939 C 0.9109 0.73843 0.51117 0.0
C940 C 0.86481 0.74166 0.46538 0.0
C941 C 0.9094 0.72301 0.48086 0.0
C942 C 0.83416 0.72167 0.41778 0.0
C943 C 0.80394 0.76988 0.41476 0.0
N944 N 0.88693 0.7248 0.45954 0.0
N945 N 0.82518 0.76676 0.43763 0.0
H946 H 0.22913 0.13727 0.79745 0.0
H947 H 0.25669 1.08441 0.60573 0.0
H948 H 0.25573 0.1891 0.71507 0.0
H949 H 0.22236 1.0303 0.68143 0.0
H950 H 0.25819 0.12155 0.64716 0.0
H951 H 0.22832 1.09758 0.75826 0.0
C952 C 0.23511 0.14043 0.77132 0.0
C953 C 0.24275 0.16706 0.76009 0.0
C954 C 0.25033 1.10164 0.65504 0.0
C955 C 0.24163 0.121 0.71433 0.0
C956 C 0.24946 1.08012 0.63115 0.0
C957 C 0.23932 1.05366 0.63949 0.0
C958 C 0.2411 1.09737 0.68846 0.0
C959 C 0.23039 1.05008 0.67336 0.0
C960 C 0.23448 0.1176 0.74877 0.0
C961 C 0.24983 0.16932 0.72548 0.0
N962 N 0.23148 1.07148 0.69635 0.0
N963 N 0.24913 0.14696 0.7043 0.0
H964 H 0.84129 0.47754 0.04699 0.0
H965 H 0.89446 0.51158 0.85677 0.0
H966 H 0.79092 0.51405 0.96935 0.0
H967 H 0.94819 0.47411 0.93021 0.0
H968 H 0.85754 0.51331 0.89895 0.0
H969 H 0.88076 0.47686 0.00705 0.0
C970 C 0.83843 0.48568 0.02175 0.0
C971 C 0.81228 0.49607 0.01207 0.0
C972 C 0.87733 0.50473 0.90617 0.0
C973 C 0.85807 0.49508 0.96541 0.0
C974 C 0.89871 0.50373 0.88186 0.0
C975 C 0.92498 0.49266 0.88937 0.0
C976 C 0.88155 0.49456 0.93911 0.0
C977 C 0.92856 0.48292 0.92282 0.0
C978 C 0.86113 0.48516 -0.00123 0.0
C979 C 0.81036 0.50596 0.97855 0.0
N980 N 0.90726 0.48404 0.94619 0.0
N981 N 0.83259 0.50518 0.95684 0.0
H982 H 0.5002 1.0951 0.29491 0.0
H983 H 0.46578 0.14839 0.10516 0.0
H984 H 0.46617 1.04443 0.21562 0.0
H985 H 0.50351 0.20198 0.17889 0.0
H986 H 0.46463 1.11143 0.14688 0.0
H987 H 0.50039 0.13466 0.25556 0.0
C988 C 0.49252 1.09217 0.26944 0.0
C989 C 0.483 1.0659 0.25911 0.0
C990 C 0.47315 0.13119 0.15427 0.0
C991 C 0.48337 1.11182 0.21315 0.0
C992 C 0.47381 0.1526 0.13021 0.0
C993 C 0.48479 0.17885 0.13792 0.0
C994 C 0.48353 0.13535 0.18717 0.0
C995 C 0.49477 0.18237 0.17133 0.0
C996 C 0.49275 0.11493 0.24679 0.0
C997 C 0.47363 1.06393 0.22532 0.0
N998 N 0.49394 0.16105 0.19446 0.0
N999 N 0.47408 1.08622 0.20399 0.0
H1000 H 0.34439 0.48094 0.44002 0.0
H1001 H 0.395 0.51172 0.63207 0.0
H1002 H 0.29169 0.51229 0.51889 0.0
H1003 H 0.44986 0.47608 0.55836 0.0
H1004 H 0.35828 0.51323 0.58966 0.0
H1005 H 0.38341 0.48023 0.48048 0.0
C1006 C 0.34091 0.48795 0.46566 0.0
C1007 C 0.31423 0.49692 0.47547 0.0
C1008 C 0.37827 0.50509 0.58244 0.0
C1009 C 0.35958 0.49591 0.52279 0.0
C1010 C 0.39955 0.50423 0.60688 0.0
C1011 C 0.42609 0.49372 0.59938 0.0
C1012 C 0.38288 0.49544 0.54933 0.0
C1013 C 0.43002 0.48443 0.56579 0.0
C1014 C 0.36337 0.4874 0.48894 0.0
C1015 C 0.31155 0.50535 0.50954 0.0
N1016 N 0.40885 0.48548 0.54228 0.0
N1017 N 0.33359 0.50464 0.53152 0.0
H1018 H 1.03333 0.1888 0.32218 0.0
H1019 H 0.95402 1.05003 0.26598 0.0
H1020 H 0.95222 0.16898 0.36104 0.0
H1021 H 1.01308 1.09073 0.20097 0.0
H1022 H 0.95547 1.09006 0.30431 0.0
H1023 H 1.02901 0.15061 0.28163 0.0
C1024 C 1.01451 0.17652 0.32224 0.0
C1025 C 0.9931 0.18261 0.34537 0.0
C1026 C 0.96801 1.09036 0.28157 0.0
C1027 C 0.98823 0.13759 0.29872 0.0
C1028 C 0.96719 1.06737 0.25949 0.0
C1029 C 0.98323 1.06665 0.22957 0.0
C1030 C 0.98561 0.11298 0.27462 0.0
C1031 C 1.00003 1.09006 0.22325 0.0
C1032 C 1.01205 0.15458 0.29888 0.0
C1033 C 0.96929 0.1655 0.34381 0.0
N1034 N 1.00099 1.11181 0.2455 0.0
N1035 N 0.96768 0.14382 0.32141 0.0
H1036 H 0.30638 0.70652 0.10921 0.0
H1037 H 0.38647 0.76936 0.94634 0.0
H1038 H 0.29149 0.78852 0.07284 0.0
H1039 H 0.42492 0.70953 0.01107 0.0
H1040 H 0.34711 0.7717 0.98608 0.0
H1041 H 0.34479 0.70233 0.06804 0.0
C1042 C 0.31089 0.72359 0.09244 0.0
C1043 C 0.2953 0.74799 0.09495 0.0
C1044 C 0.36402 0.75786 -0.00847 0.0
C1045 C 0.33962 0.74309 0.04669 0.0
C1046 C 0.38658 0.75634 0.96857 0.0
C1047 C 0.40942 0.73904 0.97478 0.0
C1048 C 0.36348 0.74153 0.02106 0.0
C1049 C 0.40803 0.72313 0.00474 0.0
C1050 C 0.33305 0.72121 0.06892 0.0
C1051 C 0.30268 0.76931 0.07224 0.0
N1052 N 0.38564 0.72458 0.02632 0.0
N1053 N 0.32386 0.7663 0.04923 0.0
H1054 H 0.72604 0.19152 0.7757 0.0
H1055 H 0.76695 1.03615 0.82065 0.0
H1056 H 0.75254 0.13791 0.69543 0.0
H1057 H 0.69652 1.07556 0.86618 0.0
H1058 H 0.77051 1.07477 0.7798 0.0
H1059 H 0.72381 0.15184 0.8141 0.0
C1060 C 0.73174 0.17149 0.76606 0.0
C1061 C 0.7396 0.16854 0.73184 0.0
C1062 C 0.75432 1.07498 0.79878 0.0
C1063 C 0.73753 0.1222 0.77685 0.0
C1064 C 0.75235 1.05291 0.82234 0.0
C1065 C 0.73135 1.05224 0.8473 0.0
C1066 C 0.73579 1.09733 0.8006 0.0
C1067 C 0.71303 1.0748 0.84764 0.0
C1068 C 0.7303 0.14867 0.78817 0.0
C1069 C 0.74636 0.14156 0.72136 0.0
N1070 N 0.7159 1.09627 0.82528 0.0
N1071 N 0.74549 0.11971 0.74367 0.0
H1072 H 0.62712 0.25318 0.90708 0.0
H1073 H 0.62335 0.23747 0.70561 0.0
H1074 H 0.55992 0.21316 0.85404 0.0
H1075 H 0.69843 0.24969 0.76312 0.0
H1076 H 0.59672 0.23764 0.75866 0.0
H1077 H 0.65042 0.26131 0.85293 0.0
C1078 C 0.61715 0.24639 0.88397 0.0
C1079 C 0.59171 0.23228 0.88496 0.0
C1080 C 0.61901 0.24046 0.75953 0.0
C1081 C 0.61816 0.24146 0.82311 0.0
C1082 C 0.63414 0.24045 0.72936 0.0
C1083 C 0.66307 0.24321 0.7302 0.0
C1084 C 0.63298 0.24367 0.79047 0.0
C1085 C 0.67614 0.24715 0.76151 0.0
C1086 C 0.63049 0.2509 0.85315 0.0
C1087 C 0.57973 0.22376 0.85432 0.0
N1088 N 0.661 0.24719 0.79043 0.0
N1089 N 0.5931 0.22844 0.82458 0.0
H1090 H 0.79509 0.82244 0.10472 0.0
H1091 H 0.70962 0.93179 -0.00433 0.0
H1092 H 0.71989 0.86029 0.14063 0.0
H1093 H 0.79148 0.90323 0.9699 0.0
H1094 H 0.71038 0.90262 0.04633 0.0
H1095 H 0.79136 0.84859 0.05236 0.0
C1096 C 0.77779 0.8363 0.10163 0.0
C1097 C 0.75795 0.83938 0.12732 0.0
C1098 C 0.72811 0.90268 0.02949 0.0
C1099 C 0.75338 0.86929 0.0671 0.0
C1100 C 0.72766 0.91927 0.00061 0.0
C1101 C 0.75053 0.91986 0.97863 0.0
C1102 C 0.75152 0.88652 0.03623 0.0
C1103 C 0.77341 0.90334 0.98616 0.0
C1104 C 0.77561 0.85117 0.07164 0.0
C1105 C 0.7356 0.85716 0.12147 0.0
N1106 N 0.77331 0.88736 0.0143 0.0
N1107 N 0.734 0.87157 0.09204 0.0
H1108 H 1.02079 0.98548 0.26711 0.0
H1109 H 0.16566 1.01285 0.35638 0.0
H1110 H 1.0978 0.98894 0.21157 0.0
H1111 H 1.09315 0.98469 0.4106 0.0
H1112 H 0.1413 1.00481 0.30295 0.0
H1113 H 1.04689 0.98537 0.32002 0.0
C1114 C 1.04324 0.98603 0.26611 0.0
C1115 C 1.05722 0.98748 0.23506 0.0
C1116 C 0.13081 1.00014 0.32653 0.0
C1117 C 1.08718 0.98768 0.29538 0.0
C1118 C 0.14462 1.00489 0.35697 0.0
C1119 C 0.13128 0.99961 0.38787 0.0
C1120 C 1.10333 0.99042 0.32703 0.0
C1121 C 1.10419 0.98895 0.3873 0.0
C1122 C 1.05812 0.98591 0.29629 0.0
C1123 C 1.08628 0.98798 0.23507 0.0
N1124 N 1.09098 0.98499 0.35734 0.0
N1125 N 1.10035 0.98842 0.26486 0.0
H1126 H 1.01603 0.30123 0.49695 0.0
H1127 H 0.92397 0.39643 0.61769 0.0
H1128 H 0.9325 0.32657 0.47434 0.0
H1129 H 1.0053 0.36746 0.64518 0.0
H1130 H 0.92832 0.37331 0.56329 0.0
H1131 H 1.01418 0.32783 0.5496 0.0
C1132 C 0.99741 0.31257 0.50297 0.0
C1133 C 0.97438 0.31179 0.48133 0.0
C1134 C 0.94527 0.37201 0.58115 0.0
C1135 C 0.97206 0.34204 0.54133 0.0
C1136 C 0.94273 0.3851 0.61232 0.0
C1137 C 0.96418 0.38365 0.63618 0.0
C1138 C 0.96946 0.35728 0.57365 0.0
C1139 C 0.98829 0.36921 0.62748 0.0
C1140 C 0.99634 0.32768 0.533 0.0
C1141 C 0.95073 0.3267 0.4903 0.0
N1142 N 0.99022 0.35645 0.59696 0.0
N1143 N 0.95016 0.34115 0.51964 0.0
H1144 H 0.67358 0.98738 0.13662 0.0
H1145 H 0.52294 0.99245 0.22133 0.0
H1146 H 0.59917 1.01208 0.08463 0.0
H1147 H 0.59784 0.98014 0.27886 0.0
H1148 H 0.55027 0.99289 0.16945 0.0
H1149 H 0.64585 0.9782 0.18752 0.0
C1150 C 0.65139 0.99064 0.13588 0.0
C1151 C 0.63863 1.0008 0.10659 0.0
C1152 C 0.56078 0.98998 0.19336 0.0
C1153 C 0.60695 0.99038 0.16439 0.0
C1154 C 0.54518 0.98972 0.22297 0.0
C1155 C 0.55829 0.98671 0.25434 0.0
C1156 C 0.58971 0.98726 0.19513 0.0
C1157 C 0.58706 0.98283 0.25509 0.0
C1158 C 0.63563 0.98551 0.1649 0.0
C1159 C 0.60987 1.00475 0.10691 0.0
N1160 N 0.60192 0.98345 0.22584 0.0
N1161 N 0.59503 0.99962 0.13538 0.0
H1162 H 0.46127 0.41881 0.88296 0.0
H1163 H 0.49592 0.27644 0.97198 0.0
H1164 H 0.49238 0.34835 0.82898 0.0
H1165 H 0.48457 0.3517 0.02791 0.0
H1166 H 0.495 0.30261 0.91928 0.0
H1167 H 0.46957 0.39485 0.93643 0.0
C1168 C 0.46989 0.3983 0.88243 0.0
C1169 C 0.47599 0.38542 0.85157 0.0
C1170 C 0.49294 0.31348 0.94305 0.0
C1171 C 0.48554 0.35796 0.91246 0.0
C1172 C 0.49338 0.29855 0.97309 0.0
C1173 C 0.49002 0.31198 0.00416 0.0
C1174 C 0.48875 0.34202 0.9441 0.0
C1175 C 0.4871 0.34063 0.00436 0.0
C1176 C 0.4748 0.38473 0.9129 0.0
C1177 C 0.48751 0.35903 0.85223 0.0
N1178 N 0.4862 0.35472 0.97468 0.0
N1179 N 0.49167 0.34606 0.8822 0.0
H1180 H 0.16904 0.26805 0.74734 0.0
H1181 H 1.09995 0.17112 0.60738 0.0
H1182 H 0.16611 0.17953 0.7546 0.0
H1183 H 1.08459 0.2584 0.61325 0.0
H1184 H 0.12722 0.17423 0.65908 0.0
H1185 H 0.14131 0.26542 0.6955 0.0
C1186 C 0.16251 0.24809 0.73799 0.0
C1187 C 0.16963 0.22396 0.75524 0.0
C1188 C 1.11782 0.1927 0.64912 0.0
C1189 C 0.13823 0.22078 0.69615 0.0
C1190 C 1.10208 0.19092 0.61968 0.0
C1191 C 1.08978 0.21451 0.60597 0.0
C1192 C 0.12154 0.21829 0.66492 0.0
C1193 C 1.09392 0.23972 0.62265 0.0
C1194 C 0.14667 0.2466 0.70852 0.0
C1195 C 0.16081 0.19861 0.74214 0.0
N1196 N 1.10949 0.24095 0.65124 0.0
N1197 N 0.1456 0.19767 0.71329 0.0
H1198 H 0.24005 0.87913 0.53489 0.0
H1199 H 0.23165 0.87687 0.33286 0.0
H1200 H 0.2332 0.95228 0.47374 0.0
H1201 H 0.26441 0.80969 0.3915 0.0
H1202 H 0.22441 0.90278 0.38512 0.0
H1203 H 0.24146 0.85136 0.48315 0.0
C1204 C 0.23866 0.88929 0.51056 0.0
C1205 C 0.23678 0.91798 0.50841 0.0
C1206 C 0.23309 0.88232 0.38655 0.0
C1207 C 0.23819 0.88651 0.44945 0.0
C1208 C 0.23706 0.86748 0.3568 0.0
C1209 C 0.24875 0.84117 0.35792 0.0
C1210 C 0.24062 0.87066 0.41767 0.0
C1211 C 0.25564 0.83006 0.38955 0.0
C1212 C 0.23956 0.87348 0.48112 0.0
C1213 C 0.23495 0.93019 0.47638 0.0
N1214 N 0.25147 0.84488 0.41823 0.0
N1215 N 0.23572 0.91437 0.44811 0.0
H1216 H 1.09574 0.7624 0.38869 0.0
H1217 H 0.17013 0.68381 0.23902 0.0
H1218 H 0.12807 0.68018 0.39884 0.0
H1219 H 0.17146 0.77243 0.24459 0.0
H1220 H 0.15035 0.682 0.29582 0.0
H1221 H 0.1203 0.76695 0.33472 0.0
C1222 C 1.10829 0.74545 0.37992 0.0
C1223 C 1.10951 0.72071 0.39825 0.0
C1224 C 0.15497 0.70186 0.28467 0.0
C1225 C 0.13699 0.72562 0.33617 0.0
C1226 C 0.16601 0.7029 0.25216 0.0
C1227 C 0.17212 0.72831 0.2371 0.0
C1228 C 0.1496 0.72641 0.30207 0.0
C1229 C 0.16682 0.75244 0.25537 0.0
C1230 C 0.12215 0.74804 0.34901 0.0
C1231 C 0.12587 0.69937 0.38527 0.0
N1232 N 0.15559 0.75093 0.28692 0.0
N1233 N 0.13867 0.7022 0.35488 0.0
H1234 H 0.29988 0.38065 0.64448 0.0
H1235 H 0.20583 0.42888 0.49007 0.0
H1236 H 0.21484 0.3536 0.63372 0.0
H1237 H 0.29507 0.42393 0.48543 0.0
H1238 H 0.20703 0.40804 0.54669 0.0
H1239 H 0.29652 0.40429 0.59029 0.0
C1240 C 0.28047 0.37968 0.63077 0.0
C1241 C 0.25775 0.36468 0.64348 0.0
C1242 C 0.22628 0.41143 0.53313 0.0
C1243 C 0.25369 0.39215 0.5816 0.0
C1244 C 0.22562 0.42324 0.50092 0.0
C1245 C 0.2504 0.42776 0.48306 0.0
C1246 C 0.25191 0.40467 0.54762 0.0
C1247 C 0.27551 0.42042 0.49824 0.0
C1248 C 0.27857 0.39325 0.59987 0.0
C1249 C 0.23286 0.36495 0.62501 0.0
N1250 N 0.27563 0.40935 0.52974 0.0
N1251 N 0.23152 0.37837 0.59486 0.0
H1252 H 0.59908 0.48597 0.71263 0.0
H1253 H 0.58723 0.50541 0.91315 0.0
H1254 H 0.52186 0.49 0.76758 0.0
H1255 H 0.6655 0.4966 0.8614 0.0
H1256 H 0.56314 0.49766 0.85979 0.0
H1257 H 0.6242 0.48732 0.76665 0.0
C1258 C 0.58747 0.48694 0.73606 0.0
C1259 C 0.55844 0.48822 0.73575 0.0
C1260 C 0.58559 0.49728 0.86003 0.0
C1261 C 0.5868 0.48981 0.79728 0.0
C1262 C 0.59934 0.50186 0.89049 0.0
C1263 C 0.62839 0.50188 0.89163 0.0
C1264 C 0.60096 0.49285 0.83034 0.0
C1265 C 0.64305 0.49664 0.86162 0.0
C1266 C 0.60175 0.48773 0.76682 0.0
C1267 C 0.54429 0.48932 0.76671 0.0
N1268 N 0.62917 0.49255 0.83209 0.0
N1269 N 0.5586 0.49027 0.79617 0.0
H1270 H 0.51608 0.80005 -0.00377 0.0
H1271 H 0.42394 0.8966 0.11523 0.0
H1272 H 0.43245 0.82494 0.97339 0.0
H1273 H 0.50501 0.86761 0.14378 0.0
H1274 H 0.42827 0.87257 0.06146 0.0
H1275 H 0.51405 0.82677 0.0488 0.0
C1276 C 0.49738 0.81126 0.00222 0.0
C1277 C 0.4744 0.81036 0.98051 0.0
C1278 C 0.44517 0.87144 0.07942 0.0
C1279 C 0.47191 0.84085 0.04033 0.0
C1280 C 0.44263 0.88505 0.11024 0.0
C1281 C 0.46402 0.88388 0.13421 0.0
C1282 C 0.46928 0.85647 0.07236 0.0
C1283 C 0.48806 0.86915 0.12597 0.0
C1284 C 0.49622 0.82648 0.03218 0.0
C1285 C 0.45067 0.82518 -0.01062 0.0
N1286 N 0.49 0.85589 0.09577 0.0
N1287 N 0.45003 0.83977 0.01861 0.0
H1288 H 0.17229 0.51673 0.64084 0.0
H1289 H 1.0245 0.48391 0.72064 0.0
H1290 H 1.10387 0.48477 0.58225 0.0
H1291 H 1.09877 0.49094 0.78091 0.0
H1292 H 1.05298 0.48504 0.66941 0.0
H1293 H 0.14552 0.50861 0.69259 0.0
C1294 C 0.15166 0.50791 0.63895 0.0
C1295 C 0.14018 0.5015 0.60733 0.0
C1296 C 1.06307 0.48611 0.69384 0.0
C1297 C 1.10948 0.49227 0.66616 0.0
C1298 C 1.04684 0.48553 0.72302 0.0
C1299 C 1.05937 0.48757 0.75488 0.0
C1300 C 1.09196 0.48912 0.69663 0.0
C1301 C 1.08835 0.48945 0.75672 0.0
C1302 C 0.13647 0.50313 0.66843 0.0
C1303 C 1.1135 0.48984 0.60619 0.0
N1304 N 1.10369 0.4905 0.72792 0.0
N1305 N 1.09892 0.48585 0.63519 0.0
H1306 H 1.00552 0.86527 0.33924 0.0
H1307 H 0.93054 0.82152 0.51181 0.0
H1308 H 0.92428 0.89259 0.36979 0.0
H1309 H 1.01428 0.79783 0.48734 0.0
H1310 H 0.92843 0.84778 0.4595 0.0
H1311 H 1.0099 0.84082 0.39316 0.0
C1312 C 0.98869 0.86625 0.35735 0.0
C1313 C 0.96439 0.8808 0.34991 0.0
C1314 C 0.94735 0.83698 0.46552 0.0
C1315 C 0.96917 0.85278 0.41135 0.0
C1316 C 0.94857 0.82199 0.49542 0.0
C1317 C 0.97266 0.80763 0.50386 0.0
C1318 C 0.97037 0.83752 0.44372 0.0
C1319 C 0.99535 0.80875 0.48168 0.0
C1320 C 0.99116 0.85221 0.38803 0.0
C1321 C 0.94315 0.8812 0.37415 0.0
N1322 N 0.99364 0.82344 0.45247 0.0
N1323 N 0.94602 0.86736 0.40369 0.0
H1324 H 0.60158 0.76003 0.09913 0.0
H1325 H 0.64727 0.68749 0.2711 0.0
H1326 H 0.56504 0.68492 0.13743 0.0
H1327 H 0.67473 0.76908 0.24324 0.0
H1328 H 0.617 0.68661 0.22186 0.0
H1329 H 0.62806 0.76457 0.15165 0.0
C1330 C 0.59887 0.74467 0.11872 0.0
C1331 C 0.58126 0.72191 0.11375 0.0
C1332 C 0.62948 0.70481 0.22654 0.0
C1333 C 0.61175 0.72678 0.17358 0.0
C1334 C 0.6468 0.7053 0.25465 0.0
C1335 C 0.66346 0.7284 0.2612 0.0
C1336 C 0.62898 0.72749 0.20456 0.0
C1337 C 0.66214 0.75088 0.23902 0.0
C1338 C 0.6141 0.7472 0.1486 0.0
C1339 C 0.57879 0.70249 0.13986 0.0
N1340 N 0.64526 0.74982 0.2115 0.0
N1341 N 0.59399 0.70529 0.16851 0.0
H1342 H 0.72703 0.38203 0.03053 0.0
H1343 H 0.77648 0.38586 0.83841 0.0
H1344 H 0.74859 0.45642 0.97669 0.0
H1345 H 0.72812 0.31807 0.87825 0.0
H1346 H 0.77018 0.41029 0.89146 0.0
H1347 H 0.73049 0.35633 0.97706 0.0
C1348 C 0.73239 0.3929 0.00748 0.0
C1349 C 0.73779 0.42126 0.00794 0.0
C1350 C 0.76081 0.39012 0.88857 0.0
C1351 C 0.74196 0.39227 0.94734 0.0
C1352 C 0.76428 0.37619 0.85818 0.0
C1353 C 0.75258 0.34996 0.85366 0.0
C1354 C 0.74577 0.37769 0.91492 0.0
C1355 C 0.7377 0.33816 0.8807 0.0
C1356 C 0.73431 0.3783 0.97709 0.0
C1357 C 0.74446 0.43452 0.97749 0.0
N1358 N 0.73474 0.35212 0.91027 0.0
N1359 N 0.74657 0.41987 0.9485 0.0
H1360 H 0.38156 0.40076 0.09944 0.0
H1361 H 0.37545 0.50894 0.24291 0.0
H1362 H 0.446 0.41834 0.17201 0.0
H1363 H 0.30624 0.47889 0.18417 0.0
H1364 H 0.40679 0.49442 0.19787 0.0
H1365 H 0.36136 0.4457 0.11089 0.0
C1366 C 0.39196 0.41443 0.11702 0.0
C1367 C 0.41483 0.40548 0.13585 0.0
C1368 C 0.38464 0.49193 0.19431 0.0
C1369 C 0.39162 0.45658 0.14941 0.0
C1370 C 0.36674 0.5002 0.22004 0.0
C1371 C 0.33838 0.49367 0.21812 0.0
C1372 C 0.37397 0.47687 0.16689 0.0
C1373 C 0.32807 0.48349 0.18734 0.0
C1374 C 0.38041 0.4401 0.12356 0.0
C1375 C 0.42767 0.42411 0.15798 0.0
N1376 N 0.34597 0.47451 0.16335 0.0
N1377 N 0.4155 0.44856 0.1648 0.0
H1378 H 0.72994 0.67115 0.55284 0.0
H1379 H 0.66889 0.52775 0.56249 0.0
H1380 H 0.75477 0.60433 0.48798 0.0
H1381 H 0.65324 0.59227 0.63469 0.0
H1382 H 0.71354 0.54908 0.54922 0.0
H1383 H 0.71844 0.63827 0.59678 0.0
C1384 C 0.73405 0.64962 0.54817 0.0
C1385 C 0.7418 0.64034 0.51591 0.0
C1386 C 0.70077 0.55821 0.56871 0.0
C1387 C 0.72732 0.60247 0.56568 0.0
C1388 C 0.67519 0.54609 0.5761 0.0
C1389 C 0.65698 0.5589 0.59871 0.0
C1390 C 0.70767 0.58374 0.58328 0.0
C1391 C 0.66643 0.58207 0.6165 0.0
C1392 C 0.72719 0.63069 0.57335 0.0
C1393 C 0.7473 0.61222 0.5119 0.0
N1394 N 0.6908 0.59422 0.60768 0.0
N1395 N 0.73891 0.59411 0.53601 0.0
H1396 H 0.2811 0.81327 0.66554 0.0
H1397 H 0.42641 0.75585 0.68204 0.0
H1398 H 0.351 0.83746 0.60398 0.0
H1399 H 0.35555 0.72526 0.73757 0.0
H1400 H 0.39587 0.77019 0.63687 0.0
H1401 H 0.30291 0.76886 0.67545 0.0
C1402 C 0.30081 0.80895 0.65354 0.0
C1403 C 0.31482 0.82934 0.63503 0.0
C1404 C 0.38694 0.75959 0.65842 0.0
C1405 C 0.34014 0.7789 0.64667 0.0
C1406 C 0.40452 0.75109 0.68428 0.0
C1407 C 0.39333 0.74077 0.71458 0.0
C1408 C 0.35811 0.75845 0.6635 0.0
C1409 C 0.36486 0.73461 0.7154 0.0
C1410 C 0.3132 0.78352 0.65899 0.0
C1411 C 0.3398 0.82248 0.61907 0.0
N1412 N 0.34803 0.74453 0.69084 0.0
N1413 N 0.35206 0.79809 0.62605 0.0
H1414 H 0.22377 0.67744 0.93557 0.0
H1415 H 0.16688 0.53273 0.91876 0.0
H1416 H 0.25173 0.60868 -0.00484 0.0
H1417 H 0.14709 0.59986 0.85196 0.0
H1418 H 0.21123 0.55485 0.93148 0.0
H1419 H 0.21217 0.64614 0.88994 0.0
C1420 C 0.22854 0.65586 0.93867 0.0
C1421 C 0.23727 0.64544 0.96999 0.0
C1422 C 0.19761 0.56444 0.91327 0.0
C1423 C 0.22274 0.60935 0.91835 0.0
C1424 C 0.17222 0.55184 0.90618 0.0
C1425 C 0.15297 0.56507 0.88535 0.0
C1426 C 0.20325 0.59082 0.90026 0.0
C1427 C 0.16114 0.5893 0.8688 0.0
C1428 C 0.22165 0.63784 0.91254 0.0
C1429 C 0.24358 0.61736 0.97202 0.0
N1430 N 0.18535 0.60185 0.87739 0.0
N1431 N 0.23518 0.60008 0.94705 0.0
H1432 H 0.79582 0.97748 0.68197 0.0
H1433 H 0.9418 0.91847 0.65475 0.0
H1434 H 0.86989 1.00559 0.73279 0.0
H1435 H 0.8647 0.88534 0.61656 0.0
H1436 H 0.91965 0.96316 0.66151 0.0
H1437 H 0.82411 0.96057 0.6358 0.0
C1438 C 0.81797 0.98124 0.68287 0.0
C1439 C 0.83069 0.99149 0.71226 0.0
C1440 C 0.9078 0.94631 0.65074 0.0
C1441 C 0.86317 0.97101 0.66013 0.0
C1442 C 0.92034 0.92071 0.64725 0.0
C1443 C 0.90471 0.89787 0.6365 0.0
C1444 C 0.87937 0.9489 0.6439 0.0
C1445 C 0.8774 0.9022 0.62567 0.0
C1446 C 0.83421 0.97126 0.65649 0.0
C1447 C 0.8594 0.99638 0.71136 0.0
N1448 N 0.8654 0.92705 0.63045 0.0
N1449 N 0.87487 0.98507 0.68635 0.0
H1450 H 0.85558 0.34136 0.09964 0.0
H1451 H 0.86055 0.2238 0.23136 0.0
H1452 H 0.78793 0.31375 0.1628 0.0
H1453 H 0.93097 0.26175 0.18216 0.0
H1454 H 0.83108 0.2394 0.1851 0.0
H1455 H 0.87841 0.29724 0.10825 0.0
C1456 C 0.84512 0.32568 0.11448 0.0
C1457 C 0.82041 0.3315 0.13168 0.0
C1458 C 0.85317 0.24345 0.18381 0.0
C1459 C 0.84653 0.28131 0.14203 0.0
C1460 C 0.87001 0.23455 0.21025 0.0
C1461 C 0.89792 0.24285 0.21155 0.0
C1462 C 0.86443 0.26097 0.15901 0.0
C1463 C 0.90935 0.25567 0.18287 0.0
C1464 C 0.85817 0.30048 0.1194 0.0
C1465 C 0.80757 0.31038 0.15022 0.0
N1466 N 0.89236 0.2652 0.15827 0.0
N1467 N 0.82111 0.28643 0.1556 0.0
H1468 H 0.23506 1.09253 0.98262 0.0
H1469 H 1.11588 0.99214 0.97062 0.0
H1470 H 0.19616 1.06744 0.88923 0.0
H1471 H 0.1601 1.01265 0.06204 0.0
H1472 H 0.15767 1.00223 0.93796 0.0
H1473 H 0.22337 1.04821 0.00707 0.0
C1474 C 0.22485 1.0774 0.96677 0.0
C1475 C 0.21518 1.08427 0.9344 0.0
C1476 C 0.15859 1.00368 0.96527 0.0
C1477 C 0.2006 1.03389 0.96289 0.0
C1478 C 0.13466 0.99799 0.98388 0.0
C1479 C 0.13424 1.00289 0.01882 0.0
C1480 C 0.18176 1.01518 0.98174 0.0
C1481 C 0.1593 1.00942 0.03497 0.0
C1482 C 0.21802 1.05198 0.98088 0.0
C1483 C 0.20259 1.06351 0.915 0.0
N1484 N 0.18185 1.01628 0.01617 0.0
N1485 N 0.19477 1.03956 0.92992 0.0
H1486 H 0.72465 1.06135 0.5805 0.0
H1487 H 0.66765 1.03646 0.4009 0.0
H1488 H 0.74284 1.10974 0.49167 0.0
H1489 H 0.63812 0.99808 0.49267 0.0
H1490 H 0.71176 1.04612 0.42851 0.0
H1491 H 0.71232 1.02258 0.54414 0.0
C1492 C 0.72706 1.06349 0.55338 0.0
C1493 C 0.73325 1.08921 0.53898 0.0
C1494 C 0.69596 1.03483 0.44233 0.0
C1495 C 0.71887 1.0453 0.49745 0.0
C1496 C 0.67072 1.02924 0.42654 0.0
C1497 C 0.64878 1.01747 0.44503 0.0
C1498 C 0.69899 1.0291 0.47695 0.0
C1499 C 0.65412 1.00831 0.47801 0.0
C1500 C 0.72002 1.04135 0.53262 0.0
C1501 C 0.73722 1.09056 0.50386 0.0
N1502 N 0.67845 1.01497 0.49325 0.0
N1503 N 0.72902 1.06918 0.48417 0.0
loop_
_geom_bond_atom_site_label_1
_geom_bond_atom_site_label_2
_geom_bond_distance
_geom_bond_site_symmetry_2
_ccdc_geom_bond_type
Pr0 C2 2.880 . S
Pr0 O20 2.562 . S
Pr0 O21 2.490 . S
Pr0 O22 2.695 1_556 S
Pr0 O23 2.512 1_556 S
Pr0 O25 2.437 1_556 S
Pr0 O28 2.436 1_556 S
Pr0 O30 2.438 . S
Pr1 C11 2.880 . S
Pr1 O22 2.436 . S
Pr1 O24 2.438 . S
Pr1 O26 2.562 . S
Pr1 O27 2.490 . S
Pr1 O28 2.695 . S
Pr1 O29 2.512 . S
Pr1 O31 2.437 . S
C2 Pr0 2.880 . S
C2 C3 1.491 . S
C2 O20 1.254 . S
C2 O21 1.225 . S
C3 C2 1.491 . S
C3 C4 1.392 . S
C3 C8 1.356 . S
C4 C3 1.392 . S
C4 C5 1.368 . S
C4 H32 0.929 . S
C5 C4 1.368 . S
C5 C6 1.386 . S
C5 H33 0.929 . S
C6 C5 1.386 . S
C6 C7 1.373 . S
C7 C6 1.373 . S
C7 C8 1.409 . S
C7 H34 0.931 . S
C8 C3 1.356 . S
C8 C7 1.409 . S
C8 H35 0.930 . S
C9 O22 1.270 . S
C9 O23 1.248 . S
C10 O24 1.267 . S
C10 O25 1.278 . S
C11 Pr1 2.880 . S
C11 C12 1.491 . S
C11 O26 1.254 . S
C11 O27 1.225 . S
C12 C11 1.491 . S
C12 C13 1.392 . S
C12 C17 1.356 . S
C13 C12 1.392 . S
C13 C14 1.368 . S
C13 H36 0.929 . S
C14 C13 1.368 . S
C14 C15 1.386 . S
C14 H37 0.929 . S
C15 C14 1.386 . S
C15 C16 1.373 . S
C16 C15 1.373 . S
C16 C17 1.409 . S
C16 H38 0.931 . S
C17 C12 1.356 . S
C17 C16 1.409 . S
C17 H39 0.930 . S
C18 O28 1.270 1_556 S
C18 O29 1.248 1_556 S
C19 O30 1.267 1_554 S
C19 O31 1.278 . S
O20 Pr0 2.562 . S
O20 C2 1.254 . S
O21 Pr0 2.490 . S
O21 C2 1.225 . S
O22 Pr0 2.695 1_554 S
O22 Pr1 2.436 . S
O22 C9 1.270 . S
O23 Pr0 2.512 1_554 S
O23 C9 1.248 . S
O24 Pr1 2.438 . S
O24 C10 1.267 . S
O25 Pr0 2.437 1_554 S
O25 C10 1.278 . S
O26 Pr1 2.562 . S
O26 C11 1.254 . S
O27 Pr1 2.490 . S
O27 C11 1.225 . S
O28 Pr0 2.436 1_554 S
O28 Pr1 2.695 . S
O28 C18 1.270 1_554 S
O29 Pr1 2.512 . S
O29 C18 1.248 1_554 S
O30 Pr0 2.438 . S
O30 C19 1.267 1_556 S
O31 Pr1 2.437 . S
O31 C19 1.278 . S
H32 C4 0.929 . S
H33 C5 0.929 . S
H34 C7 0.931 . S
H35 C8 0.930 . S
H36 C13 0.929 . S
H37 C14 0.929 . S
H38 C16 0.931 . S
H39 C17 0.930 . S
Pr40 C42 2.880 . S
Pr40 O60 2.562 . S
Pr40 O61 2.490 . S
Pr40 O62 2.695 . S
Pr40 O63 2.512 . S
Pr40 O65 2.437 . S
Pr40 O68 2.436 . S
Pr40 O70 2.438 . S
Pr41 C51 2.880 . S
Pr41 O62 2.436 . S
Pr41 O64 2.438 . S
Pr41 O66 2.562 . S
Pr41 O67 2.490 . S
Pr41 O68 2.695 . S
Pr41 O69 2.512 . S
Pr41 O71 2.437 . S
C42 Pr40 2.880 . S
C42 C43 1.491 . S
C42 O60 1.254 . S
C42 O61 1.225 . S
C43 C42 1.491 . S
C43 C44 1.392 . S
C43 C48 1.356 . S
C44 C43 1.392 . S
C44 C45 1.368 . S
C44 H72 0.929 . S
C45 C44 1.368 . S
C45 C46 1.386 . S
C45 H73 0.929 . S
C46 C45 1.386 . S
C46 C47 1.373 . S
C47 C46 1.373 . S
C47 C48 1.409 . S
C47 H74 0.931 . S
C48 C43 1.356 . S
C48 C47 1.409 . S
C48 H75 0.930 . S
C49 O62 1.270 . S
C49 O63 1.248 . S
C50 O64 1.267 . S
C50 O65 1.278 . S
C51 Pr41 2.880 . S
C51 C52 1.491 . S
C51 O66 1.254 . S
C51 O67 1.225 . S
C52 C51 1.491 . S
C52 C53 1.392 . S
C52 C57 1.356 . S
C53 C52 1.392 . S
C53 C54 1.368 . S
C53 H76 0.929 . S
C54 C53 1.368 . S
C54 C55 1.386 . S
C54 H77 0.929 . S
C55 C54 1.386 . S
C55 C56 1.373 . S
C56 C55 1.373 . S
C56 C57 1.409 . S
C56 H78 0.931 . S
C57 C52 1.356 . S
C57 C56 1.409 . S
C57 H79 0.930 . S
C58 O68 1.270 . S
C58 O69 1.248 . S
C59 O70 1.267 . S
C59 O71 1.278 . S
O60 Pr40 2.562 . S
O60 C42 1.254 . S
O61 Pr40 2.490 . S
O61 C42 1.225 . S
O62 Pr40 2.695 . S
O62 Pr41 2.436 . S
O62 C49 1.270 . S
O63 Pr40 2.512 . S
O63 C49 1.248 . S
O64 Pr41 2.438 . S
O64 C50 1.267 . S
O65 Pr40 2.437 . S
O65 C50 1.278 . S
O66 Pr41 2.562 . S
O66 C51 1.254 . S
O67 Pr41 2.490 . S
O67 C51 1.225 . S
O68 Pr40 2.436 . S
O68 Pr41 2.695 . S
O68 C58 1.270 . S
O69 Pr41 2.512 . S
O69 C58 1.248 . S
O70 Pr40 2.438 . S
O70 C59 1.267 . S
O71 Pr41 2.437 . S
O71 C59 1.278 . S
H72 C44 0.929 . S
H73 C45 0.929 . S
H74 C47 0.931 . S
H75 C48 0.930 . S
H76 C53 0.929 . S
H77 C54 0.929 . S
H78 C56 0.931 . S
H79 C57 0.930 . S
Pr80 C82 2.880 . S
Pr80 O100 2.562 . S
Pr80 O101 2.490 . S
Pr80 O102 2.695 . S
Pr80 O103 2.512 . S
Pr80 O105 2.437 . S
Pr80 O108 2.436 . S
Pr80 O110 2.438 . S
Pr81 C91 2.880 . S
Pr81 O102 2.436 . S
Pr81 O104 2.438 . S
Pr81 O106 2.562 . S
Pr81 O107 2.490 . S
Pr81 O108 2.695 . S
Pr81 O109 2.512 . S
Pr81 O111 2.437 . S
C82 Pr80 2.880 . S
C82 C83 1.491 . S
C82 O100 1.254 . S
C82 O101 1.225 . S
C83 C82 1.491 . S
C83 C84 1.392 . S
C83 C88 1.356 . S
C84 C83 1.392 . S
C84 C85 1.368 . S
C84 H112 0.929 . S
C85 C84 1.368 . S
C85 C86 1.386 . S
C85 H113 0.929 . S
C86 C85 1.386 . S
C86 C87 1.373 . S
C87 C86 1.373 . S
C87 C88 1.409 . S
C87 H114 0.931 . S
C88 C83 1.356 . S
C88 C87 1.409 . S
C88 H115 0.930 . S
C89 O102 1.270 . S
C89 O103 1.248 . S
C90 O104 1.267 . S
C90 O105 1.278 . S
C91 Pr81 2.880 . S
C91 C92 1.491 . S
C91 O106 1.254 . S
C91 O107 1.225 . S
C92 C91 1.491 . S
C92 C93 1.392 . S
C92 C97 1.356 . S
C93 C92 1.392 . S
C93 C94 1.368 . S
C93 H116 0.929 . S
C94 C93 1.368 . S
C94 C95 1.386 . S
C94 H117 0.929 . S
C95 C94 1.386 . S
C95 C96 1.373 . S
C96 C95 1.373 . S
C96 C97 1.409 . S
C96 H118 0.931 . S
C97 C92 1.356 . S
C97 C96 1.409 . S
C97 H119 0.930 . S
C98 O108 1.270 . S
C98 O109 1.248 . S
C99 O110 1.267 . S
C99 O111 1.278 . S
O100 Pr80 2.562 . S
O100 C82 1.254 . S
O101 Pr80 2.490 . S
O101 C82 1.225 . S
O102 Pr80 2.695 . S
O102 Pr81 2.436 . S
O102 C89 1.270 . S
O103 Pr80 2.512 . S
O103 C89 1.248 . S
O104 Pr81 2.438 . S
O104 C90 1.267 . S
O105 Pr80 2.437 . S
O105 C90 1.278 . S
O106 Pr81 2.562 . S
O106 C91 1.254 . S
O107 Pr81 2.490 . S
O107 C91 1.225 . S
O108 Pr80 2.436 . S
O108 Pr81 2.695 . S
O108 C98 1.270 . S
O109 Pr81 2.512 . S
O109 C98 1.248 . S
O110 Pr80 2.438 . S
O110 C99 1.267 . S
O111 Pr81 2.437 . S
O111 C99 1.278 . S
H112 C84 0.929 . S
H113 C85 0.929 . S
H114 C87 0.931 . S
H115 C88 0.930 . S
H116 C93 0.929 . S
H117 C94 0.929 . S
H118 C96 0.931 . S
H119 C97 0.930 . S
Pr120 C122 2.880 . S
Pr120 O140 2.562 . S
Pr120 O141 2.490 . S
Pr120 O142 2.695 . S
Pr120 O143 2.512 . S
Pr120 O145 2.437 . S
Pr120 O148 2.436 . S
Pr120 O150 2.438 . S
Pr121 C131 2.880 . S
Pr121 O142 2.436 . S
Pr121 O144 2.438 . S
Pr121 O146 2.562 . S
Pr121 O147 2.490 . S
Pr121 O148 2.695 . S
Pr121 O149 2.512 . S
Pr121 O151 2.437 . S
C122 Pr120 2.880 . S
C122 C123 1.491 . S
C122 O140 1.254 . S
C122 O141 1.225 . S
C123 C122 1.491 . S
C123 C124 1.392 . S
C123 C128 1.356 . S
C124 C123 1.392 . S
C124 C125 1.368 . S
C124 H152 0.929 . S
C125 C124 1.368 . S
C125 C126 1.386 . S
C125 H153 0.929 . S
C126 C125 1.386 . S
C126 C127 1.373 . S
C127 C126 1.373 . S
C127 C128 1.409 . S
C127 H154 0.931 . S
C128 C123 1.356 . S
C128 C127 1.409 . S
C128 H155 0.930 . S
C129 O142 1.270 . S
C129 O143 1.248 . S
C130 O144 1.267 . S
C130 O145 1.278 . S
C131 Pr121 2.880 . S
C131 C132 1.491 . S
C131 O146 1.254 . S
C131 O147 1.225 . S
C132 C131 1.491 . S
C132 C133 1.392 . S
C132 C137 1.356 . S
C133 C132 1.392 . S
C133 C134 1.368 . S
C133 H156 0.929 . S
C134 C133 1.368 . S
C134 C135 1.386 . S
C134 H157 0.929 . S
C135 C134 1.386 . S
C135 C136 1.373 . S
C136 C135 1.373 . S
C136 C137 1.409 . S
C136 H158 0.931 . S
C137 C132 1.356 . S
C137 C136 1.409 . S
C137 H159 0.930 . S
C138 O148 1.270 . S
C138 O149 1.248 . S
C139 O150 1.267 . S
C139 O151 1.278 . S
O140 Pr120 2.562 . S
O140 C122 1.254 . S
O141 Pr120 2.490 . S
O141 C122 1.225 . S
O142 Pr120 2.695 . S
O142 Pr121 2.436 . S
O142 C129 1.270 . S
O143 Pr120 2.512 . S
O143 C129 1.248 . S
O144 Pr121 2.438 . S
O144 C130 1.267 . S
O145 Pr120 2.437 . S
O145 C130 1.278 . S
O146 Pr121 2.562 . S
O146 C131 1.254 . S
O147 Pr121 2.490 . S
O147 C131 1.225 . S
O148 Pr120 2.436 . S
O148 Pr121 2.695 . S
O148 C138 1.270 . S
O149 Pr121 2.512 . S
O149 C138 1.248 . S
O150 Pr120 2.438 . S
O150 C139 1.267 . S
O151 Pr121 2.437 . S
O151 C139 1.278 . S
H152 C124 0.929 . S
H153 C125 0.929 . S
H154 C127 0.931 . S
H155 C128 0.930 . S
H156 C133 0.929 . S
H157 C134 0.929 . S
H158 C136 0.931 . S
H159 C137 0.930 . S
Pr160 C162 2.880 . S
Pr160 O180 2.562 . S
Pr160 O181 2.490 . S
Pr160 O182 2.695 . S
Pr160 O183 2.512 . S
Pr160 O185 2.437 . S
Pr160 O188 2.436 . S
Pr160 O190 2.438 . S
Pr161 C171 2.880 . S
Pr161 O182 2.436 1_554 S
Pr161 O184 2.438 . S
Pr161 O186 2.562 . S
Pr161 O187 2.490 . S
Pr161 O188 2.695 1_554 S
Pr161 O189 2.512 1_554 S
Pr161 O191 2.437 1_554 S
C162 Pr160 2.880 . S
C162 C163 1.491 . S
C162 O180 1.254 . S
C162 O181 1.225 . S
C163 C162 1.491 . S
C163 C164 1.392 . S
C163 C168 1.356 . S
C164 C163 1.392 . S
C164 C165 1.368 . S
C164 H192 0.929 . S
C165 C164 1.368 . S
C165 C166 1.386 . S
C165 H193 0.929 . S
C166 C165 1.386 . S
C166 C167 1.373 . S
C167 C166 1.373 . S
C167 C168 1.409 . S
C167 H194 0.931 . S
C168 C163 1.356 . S
C168 C167 1.409 . S
C168 H195 0.930 . S
C169 O182 1.270 1_554 S
C169 O183 1.248 1_554 S
C170 O184 1.267 1_556 S
C170 O185 1.278 . S
C171 Pr161 2.880 . S
C171 C172 1.491 . S
C171 O186 1.254 . S
C171 O187 1.225 . S
C172 C171 1.491 . S
C172 C173 1.392 . S
C172 C177 1.356 . S
C173 C172 1.392 . S
C173 C174 1.368 . S
C173 H196 0.929 . S
C174 C173 1.368 . S
C174 C175 1.386 . S
C174 H197 0.929 . S
C175 C174 1.386 . S
C175 C176 1.373 . S
C176 C175 1.373 . S
C176 C177 1.409 . S
C176 H198 0.931 . S
C177 C172 1.356 . S
C177 C176 1.409 . S
C177 H199 0.930 . S
C178 O188 1.270 . S
C178 O189 1.248 . S
C179 O190 1.267 . S
C179 O191 1.278 . S
O180 Pr160 2.562 . S
O180 C162 1.254 . S
O181 Pr160 2.490 . S
O181 C162 1.225 . S
O182 Pr160 2.695 . S
O182 Pr161 2.436 1_556 S
O182 C169 1.270 1_556 S
O183 Pr160 2.512 . S
O183 C169 1.248 1_556 S
O184 Pr161 2.438 . S
O184 C170 1.267 1_554 S
O185 Pr160 2.437 . S
O185 C170 1.278 . S
O186 Pr161 2.562 . S
O186 C171 1.254 . S
O187 Pr161 2.490 . S
O187 C171 1.225 . S
O188 Pr160 2.436 . S
O188 Pr161 2.695 1_556 S
O188 C178 1.270 . S
O189 Pr161 2.512 1_556 S
O189 C178 1.248 . S
O190 Pr160 2.438 . S
O190 C179 1.267 . S
O191 Pr161 2.437 1_556 S
O191 C179 1.278 . S
H192 C164 0.929 . S
H193 C165 0.929 . S
H194 C167 0.931 . S
H195 C168 0.930 . S
H196 C173 0.929 . S
H197 C174 0.929 . S
H198 C176 0.931 . S
H199 C177 0.930 . S
Pr200 C202 2.880 . S
Pr200 O220 2.562 . S
Pr200 O221 2.490 . S
Pr200 O222 2.695 . S
Pr200 O223 2.512 . S
Pr200 O225 2.437 . S
Pr200 O228 2.436 . S
Pr200 O230 2.438 . S
Pr201 C211 2.880 . S
Pr201 O222 2.436 . S
Pr201 O224 2.438 . S
Pr201 O226 2.562 . S
Pr201 O227 2.490 . S
Pr201 O228 2.695 . S
Pr201 O229 2.512 . S
Pr201 O231 2.437 . S
C202 Pr200 2.880 . S
C202 C203 1.491 . S
C202 O220 1.254 . S
C202 O221 1.225 . S
C203 C202 1.491 . S
C203 C204 1.392 . S
C203 C208 1.356 . S
C204 C203 1.392 . S
C204 C205 1.368 . S
C204 H232 0.929 . S
C205 C204 1.368 . S
C205 C206 1.386 . S
C205 H233 0.929 . S
C206 C205 1.386 . S
C206 C207 1.373 . S
C207 C206 1.373 . S
C207 C208 1.409 . S
C207 H234 0.931 . S
C208 C203 1.356 . S
C208 C207 1.409 . S
C208 H235 0.930 . S
C209 O222 1.270 . S
C209 O223 1.248 . S
C210 O224 1.267 . S
C210 O225 1.278 . S
C211 Pr201 2.880 . S
C211 C212 1.491 . S
C211 O226 1.254 . S
C211 O227 1.225 . S
C212 C211 1.491 . S
C212 C213 1.392 . S
C212 C217 1.356 . S
C213 C212 1.392 . S
C213 C214 1.368 . S
C213 H236 0.929 . S
C214 C213 1.368 . S
C214 C215 1.386 . S
C214 H237 0.929 . S
C215 C214 1.386 . S
C215 C216 1.373 . S
C216 C215 1.373 . S
C216 C217 1.409 . S
C216 H238 0.931 . S
C217 C212 1.356 . S
C217 C216 1.409 . S
C217 H239 0.930 . S
C218 O228 1.270 . S
C218 O229 1.248 . S
C219 O230 1.267 . S
C219 O231 1.278 . S
O220 Pr200 2.562 . S
O220 C202 1.254 . S
O221 Pr200 2.490 . S
O221 C202 1.225 . S
O222 Pr200 2.695 . S
O222 Pr201 2.436 . S
O222 C209 1.270 . S
O223 Pr200 2.512 . S
O223 C209 1.248 . S
O224 Pr201 2.438 . S
O224 C210 1.267 . S
O225 Pr200 2.437 . S
O225 C210 1.278 . S
O226 Pr201 2.562 . S
O226 C211 1.254 . S
O227 Pr201 2.490 . S
O227 C211 1.225 . S
O228 Pr200 2.436 . S
O228 Pr201 2.695 . S
O228 C218 1.270 . S
O229 Pr201 2.512 . S
O229 C218 1.248 . S
O230 Pr200 2.438 . S
O230 C219 1.267 . S
O231 Pr201 2.437 . S
O231 C219 1.278 . S
H232 C204 0.929 . S
H233 C205 0.929 . S
H234 C207 0.931 . S
H235 C208 0.930 . S
H236 C213 0.929 . S
H237 C214 0.929 . S
H238 C216 0.931 . S
H239 C217 0.930 . S
Pr240 C242 2.880 . S
Pr240 O260 2.562 . S
Pr240 O261 2.490 . S
Pr240 O262 2.695 . S
Pr240 O263 2.512 . S
Pr240 O265 2.437 . S
Pr240 O268 2.436 . S
Pr240 O270 2.438 . S
Pr241 C251 2.880 . S
Pr241 O262 2.436 . S
Pr241 O264 2.438 . S
Pr241 O266 2.562 . S
Pr241 O267 2.490 . S
Pr241 O268 2.695 . S
Pr241 O269 2.512 . S
Pr241 O271 2.437 . S
C242 Pr240 2.880 . S
C242 C243 1.491 . S
C242 O260 1.254 . S
C242 O261 1.225 . S
C243 C242 1.491 . S
C243 C244 1.392 . S
C243 C248 1.356 . S
C244 C243 1.392 . S
C244 C245 1.368 . S
C244 H272 0.929 . S
C245 C244 1.368 . S
C245 C246 1.386 . S
C245 H273 0.929 . S
C246 C245 1.386 . S
C246 C247 1.373 . S
C247 C246 1.373 . S
C247 C248 1.409 . S
C247 H274 0.931 . S
C248 C243 1.356 . S
C248 C247 1.409 . S
C248 H275 0.930 . S
C249 O262 1.270 . S
C249 O263 1.248 . S
C250 O264 1.267 . S
C250 O265 1.278 . S
C251 Pr241 2.880 . S
C251 C252 1.491 . S
C251 O266 1.254 . S
C251 O267 1.225 . S
C252 C251 1.491 . S
C252 C253 1.392 . S
C252 C257 1.356 . S
C253 C252 1.392 . S
C253 C254 1.368 . S
C253 H276 0.929 . S
C254 C253 1.368 . S
C254 C255 1.386 . S
C254 H277 0.929 . S
C255 C254 1.386 . S
C255 C256 1.373 . S
C256 C255 1.373 . S
C256 C257 1.409 . S
C256 H278 0.931 . S
C257 C252 1.356 . S
C257 C256 1.409 . S
C257 H279 0.930 . S
C258 O268 1.270 . S
C258 O269 1.248 . S
C259 O270 1.267 . S
C259 O271 1.278 . S
O260 Pr240 2.562 . S
O260 C242 1.254 . S
O261 Pr240 2.490 . S
O261 C242 1.225 . S
O262 Pr240 2.695 . S
O262 Pr241 2.436 . S
O262 C249 1.270 . S
O263 Pr240 2.512 . S
O263 C249 1.248 . S
O264 Pr241 2.438 . S
O264 C250 1.267 . S
O265 Pr240 2.437 . S
O265 C250 1.278 . S
O266 Pr241 2.562 . S
O266 C251 1.254 . S
O267 Pr241 2.490 . S
O267 C251 1.225 . S
O268 Pr240 2.436 . S
O268 Pr241 2.695 . S
O268 C258 1.270 . S
O269 Pr241 2.512 . S
O269 C258 1.248 . S
O270 Pr240 2.438 . S
O270 C259 1.267 . S
O271 Pr241 2.437 . S
O271 C259 1.278 . S
H272 C244 0.929 . S
H273 C245 0.929 . S
H274 C247 0.931 . S
H275 C248 0.930 . S
H276 C253 0.929 . S
H277 C254 0.929 . S
H278 C256 0.931 . S
H279 C257 0.930 . S
Pr280 C282 2.880 . S
Pr280 O300 2.562 . S
Pr280 O301 2.490 . S
Pr280 O302 2.695 . S
Pr280 O303 2.512 . S
Pr280 O305 2.437 . S
Pr280 O308 2.436 . S
Pr280 O310 2.438 . S
Pr281 C291 2.880 . S
Pr281 O302 2.436 . S
Pr281 O304 2.438 . S
Pr281 O306 2.562 . S
Pr281 O307 2.490 . S
Pr281 O308 2.695 . S
Pr281 O309 2.512 . S
Pr281 O311 2.437 . S
C282 Pr280 2.880 . S
C282 C283 1.491 . S
C282 O300 1.254 . S
C282 O301 1.225 . S
C283 C282 1.491 . S
C283 C284 1.392 . S
C283 C288 1.356 . S
C284 C283 1.392 . S
C284 C285 1.368 . S
C284 H312 0.929 . S
C285 C284 1.368 . S
C285 C286 1.386 . S
C285 H313 0.929 . S
C286 C285 1.386 . S
C286 C287 1.373 . S
C287 C286 1.373 . S
C287 C288 1.409 . S
C287 H314 0.931 . S
C288 C283 1.356 . S
C288 C287 1.409 . S
C288 H315 0.930 . S
C289 O302 1.270 . S
C289 O303 1.248 . S
C290 O304 1.267 . S
C290 O305 1.278 . S
C291 Pr281 2.880 . S
C291 C292 1.491 . S
C291 O306 1.254 . S
C291 O307 1.225 . S
C292 C291 1.491 . S
C292 C293 1.392 . S
C292 C297 1.356 . S
C293 C292 1.392 . S
C293 C294 1.368 . S
C293 H316 0.929 . S
C294 C293 1.368 . S
C294 C295 1.386 . S
C294 H317 0.929 . S
C295 C294 1.386 . S
C295 C296 1.373 . S
C296 C295 1.373 . S
C296 C297 1.409 . S
C296 H318 0.931 . S
C297 C292 1.356 . S
C297 C296 1.409 . S
C297 H319 0.930 . S
C298 O308 1.270 . S
C298 O309 1.248 . S
C299 O310 1.267 . S
C299 O311 1.278 . S
O300 Pr280 2.562 . S
O300 C282 1.254 . S
O301 Pr280 2.490 . S
O301 C282 1.225 . S
O302 Pr280 2.695 . S
O302 Pr281 2.436 . S
O302 C289 1.270 . S
O303 Pr280 2.512 . S
O303 C289 1.248 . S
O304 Pr281 2.438 . S
O304 C290 1.267 . S
O305 Pr280 2.437 . S
O305 C290 1.278 . S
O306 Pr281 2.562 . S
O306 C291 1.254 . S
O307 Pr281 2.490 . S
O307 C291 1.225 . S
O308 Pr280 2.436 . S
O308 Pr281 2.695 . S
O308 C298 1.270 . S
O309 Pr281 2.512 . S
O309 C298 1.248 . S
O310 Pr280 2.438 . S
O310 C299 1.267 . S
O311 Pr281 2.437 . S
O311 C299 1.278 . S
H312 C284 0.929 . S
H313 C285 0.929 . S
H314 C287 0.931 . S
H315 C288 0.930 . S
H316 C293 0.929 . S
H317 C294 0.929 . S
H318 C296 0.931 . S
H319 C297 0.930 . S
Pr320 C322 2.880 . S
Pr320 O340 2.562 . S
Pr320 O341 2.490 . S
Pr320 O342 2.695 . S
Pr320 O343 2.512 . S
Pr320 O345 2.437 . S
Pr320 O348 2.436 . S
Pr320 O350 2.438 . S
Pr321 C331 2.880 . S
Pr321 O342 2.436 . S
Pr321 O344 2.438 . S
Pr321 O346 2.562 . S
Pr321 O347 2.490 . S
Pr321 O348 2.695 . S
Pr321 O349 2.512 . S
Pr321 O351 2.437 . S
C322 Pr320 2.880 . S
C322 C323 1.491 . S
C322 O340 1.254 . S
C322 O341 1.225 . S
C323 C322 1.491 . S
C323 C324 1.392 . S
C323 C328 1.356 . S
C324 C323 1.392 . S
C324 C325 1.368 . S
C324 H352 0.929 . S
C325 C324 1.368 . S
C325 C326 1.386 . S
C325 H353 0.929 . S
C326 C325 1.386 . S
C326 C327 1.373 . S
C327 C326 1.373 . S
C327 C328 1.409 . S
C327 H354 0.931 . S
C328 C323 1.356 . S
C328 C327 1.409 . S
C328 H355 0.930 . S
C329 O342 1.270 . S
C329 O343 1.248 . S
C330 O344 1.267 . S
C330 O345 1.278 . S
C331 Pr321 2.880 . S
C331 C332 1.491 . S
C331 O346 1.254 . S
C331 O347 1.225 . S
C332 C331 1.491 . S
C332 C333 1.392 . S
C332 C337 1.356 . S
C333 C332 1.392 . S
C333 C334 1.368 . S
C333 H356 0.929 . S
C334 C333 1.368 . S
C334 C335 1.386 . S
C334 H357 0.929 . S
C335 C334 1.386 . S
C335 C336 1.373 . S
C336 C335 1.373 . S
C336 C337 1.409 . S
C336 H358 0.931 . S
C337 C332 1.356 . S
C337 C336 1.409 . S
C337 H359 0.930 . S
C338 O348 1.270 . S
C338 O349 1.248 . S
C339 O350 1.267 . S
C339 O351 1.278 . S
O340 Pr320 2.562 . S
O340 C322 1.254 . S
O341 Pr320 2.490 . S
O341 C322 1.225 . S
O342 Pr320 2.695 . S
O342 Pr321 2.436 . S
O342 C329 1.270 . S
O343 Pr320 2.512 . S
O343 C329 1.248 . S
O344 Pr321 2.438 . S
O344 C330 1.267 . S
O345 Pr320 2.437 . S
O345 C330 1.278 . S
O346 Pr321 2.562 . S
O346 C331 1.254 . S
O347 Pr321 2.490 . S
O347 C331 1.225 . S
O348 Pr320 2.436 . S
O348 Pr321 2.695 . S
O348 C338 1.270 . S
O349 Pr321 2.512 . S
O349 C338 1.248 . S
O350 Pr320 2.438 . S
O350 C339 1.267 . S
O351 Pr321 2.437 . S
O351 C339 1.278 . S
H352 C324 0.929 . S
H353 C325 0.929 . S
H354 C327 0.931 . S
H355 C328 0.930 . S
H356 C333 0.929 . S
H357 C334 0.929 . S
H358 C336 0.931 . S
H359 C337 0.930 . S
Pr360 C362 2.880 . S
Pr360 O380 2.562 . S
Pr360 O381 2.490 . S
Pr360 O382 2.695 . S
Pr360 O383 2.512 . S
Pr360 O385 2.437 . S
Pr360 O388 2.436 . S
Pr360 O390 2.438 . S
Pr361 C371 2.880 . S
Pr361 O382 2.436 . S
Pr361 O384 2.438 . S
Pr361 O386 2.562 . S
Pr361 O387 2.490 . S
Pr361 O388 2.695 . S
Pr361 O389 2.512 . S
Pr361 O391 2.437 . S
C362 Pr360 2.880 . S
C362 C363 1.491 . S
C362 O380 1.254 . S
C362 O381 1.225 . S
C363 C362 1.491 . S
C363 C364 1.392 . S
C363 C368 1.356 . S
C364 C363 1.392 . S
C364 C365 1.368 . S
C364 H392 0.929 . S
C365 C364 1.368 . S
C365 C366 1.386 . S
C365 H393 0.929 . S
C366 C365 1.386 . S
C366 C367 1.373 . S
C367 C366 1.373 . S
C367 C368 1.409 . S
C367 H394 0.931 . S
C368 C363 1.356 . S
C368 C367 1.409 . S
C368 H395 0.930 . S
C369 O382 1.270 . S
C369 O383 1.248 . S
C370 O384 1.267 . S
C370 O385 1.278 . S
C371 Pr361 2.880 . S
C371 C372 1.491 . S
C371 O386 1.254 . S
C371 O387 1.225 . S
C372 C371 1.491 . S
C372 C373 1.392 . S
C372 C377 1.356 . S
C373 C372 1.392 . S
C373 C374 1.368 . S
C373 H396 0.929 . S
C374 C373 1.368 . S
C374 C375 1.386 . S
C374 H397 0.929 . S
C375 C374 1.386 . S
C375 C376 1.373 . S
C376 C375 1.373 . S
C376 C377 1.409 . S
C376 H398 0.931 . S
C377 C372 1.356 . S
C377 C376 1.409 . S
C377 H399 0.930 . S
C378 O388 1.270 . S
C378 O389 1.248 . S
C379 O390 1.267 . S
C379 O391 1.278 . S
O380 Pr360 2.562 . S
O380 C362 1.254 . S
O381 Pr360 2.490 . S
O381 C362 1.225 . S
O382 Pr360 2.695 . S
O382 Pr361 2.436 . S
O382 C369 1.270 . S
O383 Pr360 2.512 . S
O383 C369 1.248 . S
O384 Pr361 2.438 . S
O384 C370 1.267 . S
O385 Pr360 2.437 . S
O385 C370 1.278 . S
O386 Pr361 2.562 . S
O386 C371 1.254 . S
O387 Pr361 2.490 . S
O387 C371 1.225 . S
O388 Pr360 2.436 . S
O388 Pr361 2.695 . S
O388 C378 1.270 . S
O389 Pr361 2.512 . S
O389 C378 1.248 . S
O390 Pr360 2.438 . S
O390 C379 1.267 . S
O391 Pr361 2.437 . S
O391 C379 1.278 . S
H392 C364 0.929 . S
H393 C365 0.929 . S
H394 C367 0.931 . S
H395 C368 0.930 . S
H396 C373 0.929 . S
H397 C374 0.929 . S
H398 C376 0.931 . S
H399 C377 0.930 . S
Pr400 C402 2.880 . S
Pr400 O420 2.562 . S
Pr400 O421 2.490 . S
Pr400 O422 2.695 1_556 S
Pr400 O423 2.512 1_556 S
Pr400 O425 2.437 1_556 S
Pr400 O428 2.436 1_556 S
Pr400 O430 2.438 . S
Pr401 C411 2.880 . S
Pr401 O422 2.436 . S
Pr401 O424 2.438 . S
Pr401 O426 2.562 . S
Pr401 O427 2.490 . S
Pr401 O428 2.695 . S
Pr401 O429 2.512 . S
Pr401 O431 2.437 . S
C402 Pr400 2.880 . S
C402 C403 1.491 . S
C402 O420 1.254 . S
C402 O421 1.225 . S
C403 C402 1.491 . S
C403 C404 1.392 . S
C403 C408 1.356 . S
C404 C403 1.392 . S
C404 C405 1.368 . S
C404 H432 0.929 . S
C405 C404 1.368 . S
C405 C406 1.386 . S
C405 H433 0.929 . S
C406 C405 1.386 . S
C406 C407 1.373 . S
C407 C406 1.373 . S
C407 C408 1.409 . S
C407 H434 0.931 . S
C408 C403 1.356 . S
C408 C407 1.409 . S
C408 H435 0.930 . S
C409 O422 1.270 . S
C409 O423 1.248 . S
C410 O424 1.267 . S
C410 O425 1.278 . S
C411 Pr401 2.880 . S
C411 C412 1.491 . S
C411 O426 1.254 . S
C411 O427 1.225 . S
C412 C411 1.491 . S
C412 C413 1.392 . S
C412 C417 1.356 . S
C413 C412 1.392 . S
C413 C414 1.368 . S
C413 H436 0.929 . S
C414 C413 1.368 . S
C414 C415 1.386 . S
C414 H437 0.929 . S
C415 C414 1.386 . S
C415 C416 1.373 . S
C416 C415 1.373 . S
C416 C417 1.409 . S
C416 H438 0.931 . S
C417 C412 1.356 . S
C417 C416 1.409 . S
C417 H439 0.930 . S
C418 O428 1.270 1_556 S
C418 O429 1.248 1_556 S
C419 O430 1.267 1_554 S
C419 O431 1.278 . S
O420 Pr400 2.562 . S
O420 C402 1.254 . S
O421 Pr400 2.490 . S
O421 C402 1.225 . S
O422 Pr400 2.695 1_554 S
O422 Pr401 2.436 . S
O422 C409 1.270 . S
O423 Pr400 2.512 1_554 S
O423 C409 1.248 . S
O424 Pr401 2.438 . S
O424 C410 1.267 . S
O425 Pr400 2.437 1_554 S
O425 C410 1.278 . S
O426 Pr401 2.562 . S
O426 C411 1.254 . S
O427 Pr401 2.490 . S
O427 C411 1.225 . S
O428 Pr400 2.436 1_554 S
O428 Pr401 2.695 . S
O428 C418 1.270 1_554 S
O429 Pr401 2.512 . S
O429 C418 1.248 1_554 S
O430 Pr400 2.438 . S
O430 C419 1.267 1_556 S
O431 Pr401 2.437 . S
O431 C419 1.278 . S
H432 C404 0.929 . S
H433 C405 0.929 . S
H434 C407 0.931 . S
H435 C408 0.930 . S
H436 C413 0.929 . S
H437 C414 0.929 . S
H438 C416 0.931 . S
H439 C417 0.930 . S
Pr440 C442 2.880 . S
Pr440 O460 2.562 . S
Pr440 O461 2.490 . S
Pr440 O462 2.695 . S
Pr440 O463 2.512 . S
Pr440 O465 2.437 . S
Pr440 O468 2.436 . S
Pr440 O470 2.438 . S
Pr441 C451 2.880 . S
Pr441 O462 2.436 . S
Pr441 O464 2.438 . S
Pr441 O466 2.562 . S
Pr441 O467 2.490 . S
Pr441 O468 2.695 . S
Pr441 O469 2.512 . S
Pr441 O471 2.437 . S
C442 Pr440 2.880 . S
C442 C443 1.491 . S
C442 O460 1.254 . S
C442 O461 1.225 . S
C443 C442 1.491 . S
C443 C444 1.392 . S
C443 C448 1.356 . S
C444 C443 1.392 . S
C444 C445 1.368 . S
C444 H472 0.929 . S
C445 C444 1.368 . S
C445 C446 1.386 . S
C445 H473 0.929 . S
C446 C445 1.386 . S
C446 C447 1.373 . S
C447 C446 1.373 . S
C447 C448 1.409 . S
C447 H474 0.931 . S
C448 C443 1.356 . S
C448 C447 1.409 . S
C448 H475 0.930 . S
C449 O462 1.270 . S
C449 O463 1.248 . S
C450 O464 1.267 . S
C450 O465 1.278 . S
C451 Pr441 2.880 . S
C451 C452 1.491 . S
C451 O466 1.254 . S
C451 O467 1.225 . S
C452 C451 1.491 . S
C452 C453 1.392 . S
C452 C457 1.356 . S
C453 C452 1.392 . S
C453 C454 1.368 . S
C453 H476 0.929 . S
C454 C453 1.368 . S
C454 C455 1.386 . S
C454 H477 0.929 . S
C455 C454 1.386 . S
C455 C456 1.373 . S
C456 C455 1.373 . S
C456 C457 1.409 . S
C456 H478 0.931 . S
C457 C452 1.356 . S
C457 C456 1.409 . S
C457 H479 0.930 . S
C458 O468 1.270 . S
C458 O469 1.248 . S
C459 O470 1.267 . S
C459 O471 1.278 . S
O460 Pr440 2.562 . S
O460 C442 1.254 . S
O461 Pr440 2.490 . S
O461 C442 1.225 . S
O462 Pr440 2.695 . S
O462 Pr441 2.436 . S
O462 C449 1.270 . S
O463 Pr440 2.512 . S
O463 C449 1.248 . S
O464 Pr441 2.438 . S
O464 C450 1.267 . S
O465 Pr440 2.437 . S
O465 C450 1.278 . S
O466 Pr441 2.562 . S
O466 C451 1.254 . S
O467 Pr441 2.490 . S
O467 C451 1.225 . S
O468 Pr440 2.436 . S
O468 Pr441 2.695 . S
O468 C458 1.270 . S
O469 Pr441 2.512 . S
O469 C458 1.248 . S
O470 Pr440 2.438 . S
O470 C459 1.267 . S
O471 Pr441 2.437 . S
O471 C459 1.278 . S
H472 C444 0.929 . S
H473 C445 0.929 . S
H474 C447 0.931 . S
H475 C448 0.930 . S
H476 C453 0.929 . S
H477 C454 0.929 . S
H478 C456 0.931 . S
H479 C457 0.930 . S
Pr480 C482 2.880 . S
Pr480 O500 2.562 . S
Pr480 O501 2.490 . S
Pr480 O502 2.695 . S
Pr480 O503 2.512 . S
Pr480 O505 2.437 . S
Pr480 O508 2.436 . S
Pr480 O510 2.438 . S
Pr481 C491 2.880 . S
Pr481 O502 2.436 . S
Pr481 O504 2.438 . S
Pr481 O506 2.562 . S
Pr481 O507 2.490 . S
Pr481 O508 2.695 . S
Pr481 O509 2.512 . S
Pr481 O511 2.437 . S
C482 Pr480 2.880 . S
C482 C483 1.491 . S
C482 O500 1.254 . S
C482 O501 1.225 . S
C483 C482 1.491 . S
C483 C484 1.392 . S
C483 C488 1.356 . S
C484 C483 1.392 . S
C484 C485 1.368 . S
C484 H512 0.929 . S
C485 C484 1.368 . S
C485 C486 1.386 . S
C485 H513 0.929 . S
C486 C485 1.386 . S
C486 C487 1.373 . S
C487 C486 1.373 . S
C487 C488 1.409 . S
C487 H514 0.931 . S
C488 C483 1.356 . S
C488 C487 1.409 . S
C488 H515 0.930 . S
C489 O502 1.270 . S
C489 O503 1.248 . S
C490 O504 1.267 . S
C490 O505 1.278 . S
C491 Pr481 2.880 . S
C491 C492 1.491 . S
C491 O506 1.254 . S
C491 O507 1.225 . S
C492 C491 1.491 . S
C492 C493 1.392 . S
C492 C497 1.356 . S
C493 C492 1.392 . S
C493 C494 1.368 . S
C493 H516 0.929 . S
C494 C493 1.368 . S
C494 C495 1.386 . S
C494 H517 0.929 . S
C495 C494 1.386 . S
C495 C496 1.373 . S
C496 C495 1.373 . S
C496 C497 1.409 . S
C496 H518 0.931 . S
C497 C492 1.356 . S
C497 C496 1.409 . S
C497 H519 0.930 . S
C498 O508 1.270 . S
C498 O509 1.248 . S
C499 O510 1.267 . S
C499 O511 1.278 . S
O500 Pr480 2.562 . S
O500 C482 1.254 . S
O501 Pr480 2.490 . S
O501 C482 1.225 . S
O502 Pr480 2.695 . S
O502 Pr481 2.436 . S
O502 C489 1.270 . S
O503 Pr480 2.512 . S
O503 C489 1.248 . S
O504 Pr481 2.438 . S
O504 C490 1.267 . S
O505 Pr480 2.437 . S
O505 C490 1.278 . S
O506 Pr481 2.562 . S
O506 C491 1.254 . S
O507 Pr481 2.490 . S
O507 C491 1.225 . S
O508 Pr480 2.436 . S
O508 Pr481 2.695 . S
O508 C498 1.270 . S
O509 Pr481 2.512 . S
O509 C498 1.248 . S
O510 Pr480 2.438 . S
O510 C499 1.267 . S
O511 Pr481 2.437 . S
O511 C499 1.278 . S
H512 C484 0.929 . S
H513 C485 0.929 . S
H514 C487 0.931 . S
H515 C488 0.930 . S
H516 C493 0.929 . S
H517 C494 0.929 . S
H518 C496 0.931 . S
H519 C497 0.930 . S
Pr520 C522 2.880 . S
Pr520 O540 2.562 . S
Pr520 O541 2.490 . S
Pr520 O542 2.695 . S
Pr520 O543 2.512 . S
Pr520 O545 2.437 . S
Pr520 O548 2.436 . S
Pr520 O550 2.438 . S
Pr521 C531 2.880 . S
Pr521 O542 2.436 . S
Pr521 O544 2.438 . S
Pr521 O546 2.562 . S
Pr521 O547 2.490 . S
Pr521 O548 2.695 . S
Pr521 O549 2.512 . S
Pr521 O551 2.437 . S
C522 Pr520 2.880 . S
C522 C523 1.491 . S
C522 O540 1.254 . S
C522 O541 1.225 . S
C523 C522 1.491 . S
C523 C524 1.392 . S
C523 C528 1.356 . S
C524 C523 1.392 . S
C524 C525 1.368 . S
C524 H552 0.929 . S
C525 C524 1.368 . S
C525 C526 1.386 . S
C525 H553 0.929 . S
C526 C525 1.386 . S
C526 C527 1.373 . S
C527 C526 1.373 . S
C527 C528 1.409 . S
C527 H554 0.931 . S
C528 C523 1.356 . S
C528 C527 1.409 . S
C528 H555 0.930 . S
C529 O542 1.270 . S
C529 O543 1.248 . S
C530 O544 1.267 . S
C530 O545 1.278 . S
C531 Pr521 2.880 . S
C531 C532 1.491 . S
C531 O546 1.254 . S
C531 O547 1.225 . S
C532 C531 1.491 . S
C532 C533 1.392 . S
C532 C537 1.356 . S
C533 C532 1.392 . S
C533 C534 1.368 . S
C533 H556 0.929 . S
C534 C533 1.368 . S
C534 C535 1.386 . S
C534 H557 0.929 . S
C535 C534 1.386 . S
C535 C536 1.373 . S
C536 C535 1.373 . S
C536 C537 1.409 . S
C536 H558 0.931 . S
C537 C532 1.356 . S
C537 C536 1.409 . S
C537 H559 0.930 . S
C538 O548 1.270 . S
C538 O549 1.248 . S
C539 O550 1.267 . S
C539 O551 1.278 . S
O540 Pr520 2.562 . S
O540 C522 1.254 . S
O541 Pr520 2.490 . S
O541 C522 1.225 . S
O542 Pr520 2.695 . S
O542 Pr521 2.436 . S
O542 C529 1.270 . S
O543 Pr520 2.512 . S
O543 C529 1.248 . S
O544 Pr521 2.438 . S
O544 C530 1.267 . S
O545 Pr520 2.437 . S
O545 C530 1.278 . S
O546 Pr521 2.562 . S
O546 C531 1.254 . S
O547 Pr521 2.490 . S
O547 C531 1.225 . S
O548 Pr520 2.436 . S
O548 Pr521 2.695 . S
O548 C538 1.270 . S
O549 Pr521 2.512 . S
O549 C538 1.248 . S
O550 Pr520 2.438 . S
O550 C539 1.267 . S
O551 Pr521 2.437 . S
O551 C539 1.278 . S
H552 C524 0.929 . S
H553 C525 0.929 . S
H554 C527 0.931 . S
H555 C528 0.930 . S
H556 C533 0.929 . S
H557 C534 0.929 . S
H558 C536 0.931 . S
H559 C537 0.930 . S
Pr560 C562 2.880 . S
Pr560 O580 2.562 . S
Pr560 O581 2.490 . S
Pr560 O582 2.695 . S
Pr560 O583 2.512 . S
Pr560 O585 2.437 . S
Pr560 O588 2.436 . S
Pr560 O590 2.438 . S
Pr561 C571 2.880 . S
Pr561 O582 2.436 1_554 S
Pr561 O584 2.438 . S
Pr561 O586 2.562 . S
Pr561 O587 2.490 . S
Pr561 O588 2.695 1_554 S
Pr561 O589 2.512 1_554 S
Pr561 O591 2.437 1_554 S
C562 Pr560 2.880 . S
C562 C563 1.491 . S
C562 O580 1.254 . S
C562 O581 1.225 . S
C563 C562 1.491 . S
C563 C564 1.392 . S
C563 C568 1.356 . S
C564 C563 1.392 . S
C564 C565 1.368 . S
C564 H592 0.929 . S
C565 C564 1.368 . S
C565 C566 1.386 . S
C565 H593 0.929 . S
C566 C565 1.386 . S
C566 C567 1.373 . S
C567 C566 1.373 . S
C567 C568 1.409 . S
C567 H594 0.931 . S
C568 C563 1.356 . S
C568 C567 1.409 . S
C568 H595 0.930 . S
C569 O582 1.270 1_554 S
C569 O583 1.248 1_554 S
C570 O584 1.267 1_556 S
C570 O585 1.278 . S
C571 Pr561 2.880 . S
C571 C572 1.491 . S
C571 O586 1.254 . S
C571 O587 1.225 . S
C572 C571 1.491 . S
C572 C573 1.392 . S
C572 C577 1.356 . S
C573 C572 1.392 . S
C573 C574 1.368 . S
C573 H596 0.929 . S
C574 C573 1.368 . S
C574 C575 1.386 . S
C574 H597 0.929 . S
C575 C574 1.386 . S
C575 C576 1.373 . S
C576 C575 1.373 . S
C576 C577 1.409 . S
C576 H598 0.931 . S
C577 C572 1.356 . S
C577 C576 1.409 . S
C577 H599 0.930 . S
C578 O588 1.270 . S
C578 O589 1.248 . S
C579 O590 1.267 . S
C579 O591 1.278 . S
O580 Pr560 2.562 . S
O580 C562 1.254 . S
O581 Pr560 2.490 . S
O581 C562 1.225 . S
O582 Pr560 2.695 . S
O582 Pr561 2.436 1_556 S
O582 C569 1.270 1_556 S
O583 Pr560 2.512 . S
O583 C569 1.248 1_556 S
O584 Pr561 2.438 . S
O584 C570 1.267 1_554 S
O585 Pr560 2.437 . S
O585 C570 1.278 . S
O586 Pr561 2.562 . S
O586 C571 1.254 . S
O587 Pr561 2.490 . S
O587 C571 1.225 . S
O588 Pr560 2.436 . S
O588 Pr561 2.695 1_556 S
O588 C578 1.270 . S
O589 Pr561 2.512 1_556 S
O589 C578 1.248 . S
O590 Pr560 2.438 . S
O590 C579 1.267 . S
O591 Pr561 2.437 1_556 S
O591 C579 1.278 . S
H592 C564 0.929 . S
H593 C565 0.929 . S
H594 C567 0.931 . S
H595 C568 0.930 . S
H596 C573 0.929 . S
H597 C574 0.929 . S
H598 C576 0.931 . S
H599 C577 0.930 . S
Pr600 C602 2.880 . S
Pr600 O620 2.562 . S
Pr600 O621 2.490 . S
Pr600 O622 2.695 . S
Pr600 O623 2.512 . S
Pr600 O625 2.437 . S
Pr600 O628 2.436 . S
Pr600 O630 2.438 . S
Pr601 C611 2.880 . S
Pr601 O622 2.436 . S
Pr601 O624 2.438 . S
Pr601 O626 2.562 . S
Pr601 O627 2.490 . S
Pr601 O628 2.695 . S
Pr601 O629 2.512 . S
Pr601 O631 2.437 . S
C602 Pr600 2.880 . S
C602 C603 1.491 . S
C602 O620 1.254 . S
C602 O621 1.225 . S
C603 C602 1.491 . S
C603 C604 1.392 . S
C603 C608 1.356 . S
C604 C603 1.392 . S
C604 C605 1.368 . S
C604 H632 0.929 . S
C605 C604 1.368 . S
C605 C606 1.386 . S
C605 H633 0.929 . S
C606 C605 1.386 . S
C606 C607 1.373 . S
C607 C606 1.373 . S
C607 C608 1.409 . S
C607 H634 0.931 . S
C608 C603 1.356 . S
C608 C607 1.409 . S
C608 H635 0.930 . S
C609 O622 1.270 . S
C609 O623 1.248 . S
C610 O624 1.267 . S
C610 O625 1.278 . S
C611 Pr601 2.880 . S
C611 C612 1.491 . S
C611 O626 1.254 . S
C611 O627 1.225 . S
C612 C611 1.491 . S
C612 C613 1.392 . S
C612 C617 1.356 . S
C613 C612 1.392 . S
C613 C614 1.368 . S
C613 H636 0.929 . S
C614 C613 1.368 . S
C614 C615 1.386 . S
C614 H637 0.929 . S
C615 C614 1.386 . S
C615 C616 1.373 . S
C616 C615 1.373 . S
C616 C617 1.409 . S
C616 H638 0.931 . S
C617 C612 1.356 . S
C617 C616 1.409 . S
C617 H639 0.930 . S
C618 O628 1.270 . S
C618 O629 1.248 . S
C619 O630 1.267 . S
C619 O631 1.278 . S
O620 Pr600 2.562 . S
O620 C602 1.254 . S
O621 Pr600 2.490 . S
O621 C602 1.225 . S
O622 Pr600 2.695 . S
O622 Pr601 2.436 . S
O622 C609 1.270 . S
O623 Pr600 2.512 . S
O623 C609 1.248 . S
O624 Pr601 2.438 . S
O624 C610 1.267 . S
O625 Pr600 2.437 . S
O625 C610 1.278 . S
O626 Pr601 2.562 . S
O626 C611 1.254 . S
O627 Pr601 2.490 . S
O627 C611 1.225 . S
O628 Pr600 2.436 . S
O628 Pr601 2.695 . S
O628 C618 1.270 . S
O629 Pr601 2.512 . S
O629 C618 1.248 . S
O630 Pr600 2.438 . S
O630 C619 1.267 . S
O631 Pr601 2.437 . S
O631 C619 1.278 . S
H632 C604 0.929 . S
H633 C605 0.929 . S
H634 C607 0.931 . S
H635 C608 0.930 . S
H636 C613 0.929 . S
H637 C614 0.929 . S
H638 C616 0.931 . S
H639 C617 0.930 . S
H640 C646 0.930 . S
H641 C650 0.930 . S
H642 C655 0.929 . S
H643 C653 0.929 . S
H644 C648 0.929 . S
H645 C654 0.929 . S
C646 H640 0.930 . S
C646 C647 1.367 . S
C646 C654 1.378 . S
C647 C646 1.367 . S
C647 C655 1.433 . S
C648 H644 0.929 . S
C648 C650 1.378 . S
C648 C652 1.350 . S
C649 C652 1.463 . S
C649 C654 1.350 . S
C649 N657 1.427 . S
C650 H641 0.930 . S
C650 C648 1.378 . S
C650 C651 1.367 . S
C651 C650 1.367 . S
C651 C653 1.433 . S
C652 C648 1.350 . S
C652 C649 1.463 . S
C652 N656 1.427 . S
C653 H643 0.929 . S
C653 C651 1.433 . S
C653 N656 1.384 . S
C654 H645 0.929 . S
C654 C646 1.378 . S
C654 C649 1.350 . S
C655 H642 0.929 . S
C655 C647 1.433 . S
C655 N657 1.384 . S
N656 C652 1.427 . S
N656 C653 1.384 . S
N657 C649 1.427 . S
N657 C655 1.384 . S
H658 C664 0.930 . S
H659 C668 0.930 . S
H660 C673 0.929 . S
H661 C671 0.929 . S
H662 C666 0.929 . S
H663 C672 0.929 . S
C664 H658 0.930 . S
C664 C665 1.367 . S
C664 C672 1.378 . S
C665 C664 1.367 . S
C665 C673 1.433 . S
C666 H662 0.929 . S
C666 C668 1.378 . S
C666 C670 1.350 . S
C667 C670 1.463 . S
C667 C672 1.350 . S
C667 N675 1.427 . S
C668 H659 0.930 . S
C668 C666 1.378 . S
C668 C669 1.367 . S
C669 C668 1.367 . S
C669 C671 1.433 . S
C670 C666 1.350 . S
C670 C667 1.463 . S
C670 N674 1.427 . S
C671 H661 0.929 . S
C671 C669 1.433 . S
C671 N674 1.384 . S
C672 H663 0.929 . S
C672 C664 1.378 . S
C672 C667 1.350 . S
C673 H660 0.929 . S
C673 C665 1.433 . S
C673 N675 1.384 . S
N674 C670 1.427 . S
N674 C671 1.384 . S
N675 C667 1.427 . S
N675 C673 1.384 . S
H676 C682 0.930 . S
H677 C686 0.930 . S
H678 C691 0.929 . S
H679 C689 0.929 . S
H680 C684 0.929 1_455 S
H681 C690 0.929 1_655 S
C682 H676 0.930 . S
C682 C683 1.367 . S
C682 C690 1.378 . S
C683 C682 1.367 . S
C683 C691 1.433 . S
C684 H680 0.929 1_655 S
C684 C686 1.378 . S
C684 C688 1.350 . S
C685 C688 1.463 1_455 S
C685 C690 1.350 . S
C685 N693 1.427 . S
C686 H677 0.930 . S
C686 C684 1.378 . S
C686 C687 1.367 . S
C687 C686 1.367 . S
C687 C689 1.433 . S
C688 C684 1.350 . S
C688 C685 1.463 1_655 S
C688 N692 1.427 . S
C689 H679 0.929 . S
C689 C687 1.433 . S
C689 N692 1.384 . S
C690 H681 0.929 1_455 S
C690 C682 1.378 . S
C690 C685 1.350 . S
C691 H678 0.929 . S
C691 C683 1.433 . S
C691 N693 1.384 . S
N692 C688 1.427 . S
N692 C689 1.384 . S
N693 C685 1.427 . S
N693 C691 1.384 . S
H694 C700 0.930 . S
H695 C704 0.930 . S
H696 C709 0.929 . S
H697 C707 0.929 . S
H698 C702 0.929 1_655 S
H699 C708 0.929 1_455 S
C700 H694 0.930 . S
C700 C701 1.367 . S
C700 C708 1.378 . S
C701 C700 1.367 . S
C701 C709 1.433 . S
C702 H698 0.929 1_455 S
C702 C704 1.378 . S
C702 C706 1.350 . S
C703 C706 1.463 1_655 S
C703 C708 1.350 . S
C703 N711 1.427 . S
C704 H695 0.930 . S
C704 C702 1.378 . S
C704 C705 1.367 . S
C705 C704 1.367 . S
C705 C707 1.433 . S
C706 C702 1.350 . S
C706 C703 1.463 1_455 S
C706 N710 1.427 . S
C707 H697 0.929 . S
C707 C705 1.433 . S
C707 N710 1.384 . S
C708 H699 0.929 1_655 S
C708 C700 1.378 . S
C708 C703 1.350 . S
C709 H696 0.929 . S
C709 C701 1.433 . S
C709 N711 1.384 . S
N710 C706 1.427 . S
N710 C707 1.384 . S
N711 C703 1.427 . S
N711 C709 1.384 . S
H712 C718 0.930 . S
H713 C722 0.930 1_554 S
H714 C727 0.929 1_554 S
H715 C725 0.929 . S
H716 C720 0.929 1_554 S
H717 C726 0.929 . S
C718 H712 0.930 . S
C718 C719 1.367 . S
C718 C726 1.378 . S
C719 C718 1.367 . S
C719 C727 1.433 . S
C720 H716 0.929 1_556 S
C720 C722 1.378 . S
C720 C724 1.350 . S
C721 C724 1.463 . S
C721 C726 1.350 . S
C721 N729 1.427 . S
C722 H713 0.930 1_556 S
C722 C720 1.378 . S
C722 C723 1.367 . S
C723 C722 1.367 . S
C723 C725 1.433 . S
C724 C720 1.350 . S
C724 C721 1.463 . S
C724 N728 1.427 . S
C725 H715 0.929 . S
C725 C723 1.433 . S
C725 N728 1.384 . S
C726 H717 0.929 . S
C726 C718 1.378 . S
C726 C721 1.350 . S
C727 H714 0.929 1_556 S
C727 C719 1.433 . S
C727 N729 1.384 . S
N728 C724 1.427 . S
N728 C725 1.384 . S
N729 C721 1.427 . S
N729 C727 1.384 . S
H730 C736 0.930 . S
H731 C740 0.930 . S
H732 C745 0.929 . S
H733 C743 0.929 . S
H734 C738 0.929 . S
H735 C744 0.929 . S
C736 H730 0.930 . S
C736 C737 1.367 . S
C736 C744 1.378 . S
C737 C736 1.367 . S
C737 C745 1.433 . S
C738 H734 0.929 . S
C738 C740 1.378 . S
C738 C742 1.350 . S
C739 C742 1.463 . S
C739 C744 1.350 . S
C739 N747 1.427 . S
C740 H731 0.930 . S
C740 C738 1.378 . S
C740 C741 1.367 . S
C741 C740 1.367 . S
C741 C743 1.433 . S
C742 C738 1.350 . S
C742 C739 1.463 . S
C742 N746 1.427 . S
C743 H733 0.929 . S
C743 C741 1.433 . S
C743 N746 1.384 . S
C744 H735 0.929 . S
C744 C736 1.378 . S
C744 C739 1.350 . S
C745 H732 0.929 . S
C745 C737 1.433 . S
C745 N747 1.384 . S
N746 C742 1.427 . S
N746 C743 1.384 . S
N747 C739 1.427 . S
N747 C745 1.384 . S
H748 C754 0.930 . S
H749 C758 0.930 . S
H750 C763 0.929 . S
H751 C761 0.929 . S
H752 C756 0.929 . S
H753 C762 0.929 . S
C754 H748 0.930 . S
C754 C755 1.367 . S
C754 C762 1.378 . S
C755 C754 1.367 . S
C755 C763 1.433 . S
C756 H752 0.929 . S
C756 C758 1.378 . S
C756 C760 1.350 . S
C757 C760 1.463 1_655 S
C757 C762 1.350 . S
C757 N765 1.427 . S
C758 H749 0.930 . S
C758 C756 1.378 . S
C758 C759 1.367 . S
C759 C758 1.367 . S
C759 C761 1.433 . S
C760 C756 1.350 . S
C760 C757 1.463 1_455 S
C760 N764 1.427 . S
C761 H751 0.929 . S
C761 C759 1.433 . S
C761 N764 1.384 . S
C762 H753 0.929 . S
C762 C754 1.378 . S
C762 C757 1.350 . S
C763 H750 0.929 . S
C763 C755 1.433 . S
C763 N765 1.384 . S
N764 C760 1.427 . S
N764 C761 1.384 . S
N765 C757 1.427 . S
N765 C763 1.384 . S
H766 C772 0.930 . S
H767 C776 0.930 . S
H768 C781 0.929 . S
H769 C779 0.929 . S
H770 C774 0.929 . S
H771 C780 0.929 . S
C772 H766 0.930 . S
C772 C773 1.367 . S
C772 C780 1.378 . S
C773 C772 1.367 . S
C773 C781 1.433 . S
C774 H770 0.929 . S
C774 C776 1.378 . S
C774 C778 1.350 . S
C775 C778 1.463 1_455 S
C775 C780 1.350 . S
C775 N783 1.427 . S
C776 H767 0.930 . S
C776 C774 1.378 . S
C776 C777 1.367 . S
C777 C776 1.367 . S
C777 C779 1.433 . S
C778 C774 1.350 . S
C778 C775 1.463 1_655 S
C778 N782 1.427 . S
C779 H769 0.929 . S
C779 C777 1.433 . S
C779 N782 1.384 . S
C780 H771 0.929 . S
C780 C772 1.378 . S
C780 C775 1.350 . S
C781 H768 0.929 . S
C781 C773 1.433 . S
C781 N783 1.384 . S
N782 C778 1.427 . S
N782 C779 1.384 . S
N783 C775 1.427 . S
N783 C781 1.384 . S
H784 C790 0.930 . S
H785 C794 0.930 1_554 S
H786 C799 0.929 . S
H787 C797 0.929 . S
H788 C792 0.929 . S
H789 C798 0.929 . S
C790 H784 0.930 . S
C790 C791 1.367 . S
C790 C798 1.378 . S
C791 C790 1.367 . S
C791 C799 1.433 . S
C792 H788 0.929 . S
C792 C794 1.378 . S
C792 C796 1.350 . S
C793 C796 1.463 . S
C793 C798 1.350 . S
C793 N801 1.427 . S
C794 H785 0.930 1_556 S
C794 C792 1.378 . S
C794 C795 1.367 . S
C795 C794 1.367 . S
C795 C797 1.433 . S
C796 C792 1.350 . S
C796 C793 1.463 . S
C796 N800 1.427 . S
C797 H787 0.929 . S
C797 C795 1.433 . S
C797 N800 1.384 . S
C798 H789 0.929 . S
C798 C790 1.378 . S
C798 C793 1.350 . S
C799 H786 0.929 . S
C799 C791 1.433 . S
C799 N801 1.384 . S
N800 C796 1.427 . S
N800 C797 1.384 . S
N801 C793 1.427 . S
N801 C799 1.384 . S
H802 C808 0.930 . S
H803 C812 0.930 . S
H804 C817 0.929 . S
H805 C815 0.929 . S
H806 C810 0.929 . S
H807 C816 0.929 . S
C808 H802 0.930 . S
C808 C809 1.367 . S
C808 C816 1.378 . S
C809 C808 1.367 . S
C809 C817 1.433 . S
C810 H806 0.929 . S
C810 C812 1.378 . S
C810 C814 1.350 . S
C811 C814 1.463 . S
C811 C816 1.350 . S
C811 N819 1.427 . S
C812 H803 0.930 . S
C812 C810 1.378 . S
C812 C813 1.367 . S
C813 C812 1.367 . S
C813 C815 1.433 . S
C814 C810 1.350 . S
C814 C811 1.463 . S
C814 N818 1.427 . S
C815 H805 0.929 . S
C815 C813 1.433 . S
C815 N818 1.384 . S
C816 H807 0.929 . S
C816 C808 1.378 . S
C816 C811 1.350 . S
C817 H804 0.929 . S
C817 C809 1.433 . S
C817 N819 1.384 . S
N818 C814 1.427 . S
N818 C815 1.384 . S
N819 C811 1.427 . S
N819 C817 1.384 . S
H820 C826 0.930 . S
H821 C830 0.930 . S
H822 C835 0.929 . S
H823 C833 0.929 . S
H824 C828 0.929 . S
H825 C834 0.929 . S
C826 H820 0.930 . S
C826 C827 1.367 . S
C826 C834 1.378 . S
C827 C826 1.367 . S
C827 C835 1.433 . S
C828 H824 0.929 . S
C828 C830 1.378 . S
C828 C832 1.350 . S
C829 C832 1.463 . S
C829 C834 1.350 . S
C829 N837 1.427 . S
C830 H821 0.930 . S
C830 C828 1.378 . S
C830 C831 1.367 . S
C831 C830 1.367 . S
C831 C833 1.433 . S
C832 C828 1.350 . S
C832 C829 1.463 . S
C832 N836 1.427 . S
C833 H823 0.929 . S
C833 C831 1.433 . S
C833 N836 1.384 . S
C834 H825 0.929 . S
C834 C826 1.378 . S
C834 C829 1.350 . S
C835 H822 0.929 . S
C835 C827 1.433 . S
C835 N837 1.384 . S
N836 C832 1.427 . S
N836 C833 1.384 . S
N837 C829 1.427 . S
N837 C835 1.384 . S
H838 C844 0.930 . S
H839 C848 0.930 . S
H840 C853 0.929 . S
H841 C851 0.929 . S
H842 C846 0.929 . S
H843 C852 0.929 . S
C844 H838 0.930 . S
C844 C845 1.367 . S
C844 C852 1.378 . S
C845 C844 1.367 . S
C845 C853 1.433 . S
C846 H842 0.929 . S
C846 C848 1.378 . S
C846 C850 1.350 . S
C847 C850 1.463 . S
C847 C852 1.350 . S
C847 N855 1.427 . S
C848 H839 0.930 . S
C848 C846 1.378 . S
C848 C849 1.367 . S
C849 C848 1.367 . S
C849 C851 1.433 . S
C850 C846 1.350 . S
C850 C847 1.463 . S
C850 N854 1.427 . S
C851 H841 0.929 . S
C851 C849 1.433 . S
C851 N854 1.384 . S
C852 H843 0.929 . S
C852 C844 1.378 . S
C852 C847 1.350 . S
C853 H840 0.929 . S
C853 C845 1.433 . S
C853 N855 1.384 . S
N854 C850 1.427 . S
N854 C851 1.384 . S
N855 C847 1.427 . S
N855 C853 1.384 . S
H856 C862 0.930 . S
H857 C866 0.930 . S
H858 C871 0.929 . S
H859 C869 0.929 . S
H860 C864 0.929 . S
H861 C870 0.929 . S
C862 H856 0.930 . S
C862 C863 1.367 . S
C862 C870 1.378 . S
C863 C862 1.367 . S
C863 C871 1.433 . S
C864 H860 0.929 . S
C864 C866 1.378 . S
C864 C868 1.350 . S
C865 C868 1.463 . S
C865 C870 1.350 . S
C865 N873 1.427 . S
C866 H857 0.930 . S
C866 C864 1.378 . S
C866 C867 1.367 . S
C867 C866 1.367 . S
C867 C869 1.433 . S
C868 C864 1.350 . S
C868 C865 1.463 . S
C868 N872 1.427 . S
C869 H859 0.929 . S
C869 C867 1.433 . S
C869 N872 1.384 . S
C870 H861 0.929 . S
C870 C862 1.378 . S
C870 C865 1.350 . S
C871 H858 0.929 . S
C871 C863 1.433 . S
C871 N873 1.384 . S
N872 C868 1.427 . S
N872 C869 1.384 . S
N873 C865 1.427 . S
N873 C871 1.384 . S
H874 C880 0.930 . S
H875 C884 0.930 . S
H876 C889 0.929 . S
H877 C887 0.929 . S
H878 C882 0.929 . S
H879 C888 0.929 . S
C880 H874 0.930 . S
C880 C881 1.367 . S
C880 C888 1.378 . S
C881 C880 1.367 . S
C881 C889 1.433 . S
C882 H878 0.929 . S
C882 C884 1.378 . S
C882 C886 1.350 . S
C883 C886 1.463 . S
C883 C888 1.350 . S
C883 N891 1.427 . S
C884 H875 0.930 . S
C884 C882 1.378 . S
C884 C885 1.367 . S
C885 C884 1.367 . S
C885 C887 1.433 . S
C886 C882 1.350 . S
C886 C883 1.463 . S
C886 N890 1.427 . S
C887 H877 0.929 . S
C887 C885 1.433 . S
C887 N890 1.384 . S
C888 H879 0.929 . S
C888 C880 1.378 . S
C888 C883 1.350 . S
C889 H876 0.929 . S
C889 C881 1.433 . S
C889 N891 1.384 . S
N890 C886 1.427 . S
N890 C887 1.384 . S
N891 C883 1.427 . S
N891 C889 1.384 . S
H892 C898 0.930 . S
H893 C902 0.930 . S
H894 C907 0.929 . S
H895 C905 0.929 . S
H896 C900 0.929 . S
H897 C906 0.929 . S
C898 H892 0.930 . S
C898 C899 1.367 . S
C898 C906 1.378 . S
C899 C898 1.367 . S
C899 C907 1.433 . S
C900 H896 0.929 . S
C900 C902 1.378 . S
C900 C904 1.350 . S
C901 C904 1.463 . S
C901 C906 1.350 . S
C901 N909 1.427 . S
C902 H893 0.930 . S
C902 C900 1.378 . S
C902 C903 1.367 . S
C903 C902 1.367 . S
C903 C905 1.433 . S
C904 C900 1.350 . S
C904 C901 1.463 . S
C904 N908 1.427 . S
C905 H895 0.929 . S
C905 C903 1.433 . S
C905 N908 1.384 . S
C906 H897 0.929 . S
C906 C898 1.378 . S
C906 C901 1.350 . S
C907 H894 0.929 . S
C907 C899 1.433 . S
C907 N909 1.384 . S
N908 C904 1.427 . S
N908 C905 1.384 . S
N909 C901 1.427 . S
N909 C907 1.384 . S
H910 C916 0.930 . S
H911 C920 0.930 . S
H912 C925 0.929 . S
H913 C923 0.929 . S
H914 C918 0.929 . S
H915 C924 0.929 . S
C916 H910 0.930 . S
C916 C917 1.367 . S
C916 C924 1.378 . S
C917 C916 1.367 . S
C917 C925 1.433 . S
C918 H914 0.929 . S
C918 C920 1.378 . S
C918 C922 1.350 . S
C919 C922 1.463 . S
C919 C924 1.350 . S
C919 N927 1.427 . S
C920 H911 0.930 . S
C920 C918 1.378 . S
C920 C921 1.367 . S
C921 C920 1.367 . S
C921 C923 1.433 . S
C922 C918 1.350 . S
C922 C919 1.463 . S
C922 N926 1.427 . S
C923 H913 0.929 . S
C923 C921 1.433 . S
C923 N926 1.384 . S
C924 H915 0.929 . S
C924 C916 1.378 . S
C924 C919 1.350 . S
C925 H912 0.929 . S
C925 C917 1.433 . S
C925 N927 1.384 . S
N926 C922 1.427 . S
N926 C923 1.384 . S
N927 C919 1.427 . S
N927 C925 1.384 . S
H928 C934 0.930 . S
H929 C938 0.930 . S
H930 C943 0.929 . S
H931 C941 0.929 . S
H932 C936 0.929 . S
H933 C942 0.929 . S
C934 H928 0.930 . S
C934 C935 1.367 . S
C934 C942 1.378 . S
C935 C934 1.367 . S
C935 C943 1.433 . S
C936 H932 0.929 . S
C936 C938 1.378 . S
C936 C940 1.350 . S
C937 C940 1.463 . S
C937 C942 1.350 . S
C937 N945 1.427 . S
C938 H929 0.930 . S
C938 C936 1.378 . S
C938 C939 1.367 . S
C939 C938 1.367 . S
C939 C941 1.433 . S
C940 C936 1.350 . S
C940 C937 1.463 . S
C940 N944 1.427 . S
C941 H931 0.929 . S
C941 C939 1.433 . S
C941 N944 1.384 . S
C942 H933 0.929 . S
C942 C934 1.378 . S
C942 C937 1.350 . S
C943 H930 0.929 . S
C943 C935 1.433 . S
C943 N945 1.384 . S
N944 C940 1.427 . S
N944 C941 1.384 . S
N945 C937 1.427 . S
N945 C943 1.384 . S
H946 C952 0.930 . S
H947 C956 0.930 . S
H948 C961 0.929 . S
H949 C959 0.929 . S
H950 C954 0.929 . S
H951 C960 0.929 . S
C952 H946 0.930 . S
C952 C953 1.367 . S
C952 C960 1.378 1_545 S
C953 C952 1.367 . S
C953 C961 1.433 . S
C954 H950 0.929 . S
C954 C956 1.378 . S
C954 C958 1.350 . S
C955 C958 1.463 . S
C955 C960 1.350 . S
C955 N963 1.427 1_565 S
C956 H947 0.930 . S
C956 C954 1.378 . S
C956 C957 1.367 . S
C957 C956 1.367 . S
C957 C959 1.433 . S
C958 C954 1.350 . S
C958 C955 1.463 . S
C958 N962 1.427 . S
C959 H949 0.929 . S
C959 C957 1.433 . S
C959 N962 1.384 . S
C960 H951 0.929 . S
C960 C952 1.378 1_565 S
C960 C955 1.350 . S
C961 H948 0.929 . S
C961 C953 1.433 . S
C961 N963 1.384 . S
N962 C958 1.427 . S
N962 C959 1.384 . S
N963 C955 1.427 1_545 S
N963 C961 1.384 . S
H964 C970 0.930 1_554 S
H965 C974 0.930 . S
H966 C979 0.929 . S
H967 C977 0.929 . S
H968 C972 0.929 . S
H969 C978 0.929 . S
C970 H964 0.930 1_556 S
C970 C971 1.367 . S
C970 C978 1.378 . S
C971 C970 1.367 . S
C971 C979 1.433 . S
C972 H968 0.929 . S
C972 C974 1.378 . S
C972 C976 1.350 . S
C973 C976 1.463 . S
C973 C978 1.350 . S
C973 N981 1.427 . S
C974 H965 0.930 . S
C974 C972 1.378 . S
C974 C975 1.367 . S
C975 C974 1.367 . S
C975 C977 1.433 . S
C976 C972 1.350 . S
C976 C973 1.463 . S
C976 N980 1.427 . S
C977 H967 0.929 . S
C977 C975 1.433 . S
C977 N980 1.384 . S
C978 H969 0.929 . S
C978 C970 1.378 . S
C978 C973 1.350 . S
C979 H966 0.929 . S
C979 C971 1.433 . S
C979 N981 1.384 . S
N980 C976 1.427 . S
N980 C977 1.384 . S
N981 C973 1.427 . S
N981 C979 1.384 . S
H982 C988 0.930 . S
H983 C992 0.930 . S
H984 C997 0.929 . S
H985 C995 0.929 . S
H986 C990 0.929 . S
H987 C996 0.929 . S
C988 H982 0.930 . S
C988 C989 1.367 . S
C988 C996 1.378 1_565 S
C989 C988 1.367 . S
C989 C997 1.433 . S
C990 H986 0.929 . S
C990 C992 1.378 . S
C990 C994 1.350 . S
C991 C994 1.463 . S
C991 C996 1.350 . S
C991 N999 1.427 1_545 S
C992 H983 0.930 . S
C992 C990 1.378 . S
C992 C993 1.367 . S
C993 C992 1.367 . S
C993 C995 1.433 . S
C994 C990 1.350 . S
C994 C991 1.463 . S
C994 N998 1.427 . S
C995 H985 0.929 . S
C995 C993 1.433 . S
C995 N998 1.384 . S
C996 H987 0.929 . S
C996 C988 1.378 1_545 S
C996 C991 1.350 . S
C997 H984 0.929 . S
C997 C989 1.433 . S
C997 N999 1.384 . S
N998 C994 1.427 . S
N998 C995 1.384 . S
N999 C991 1.427 1_565 S
N999 C997 1.384 . S
H1000 C1006 0.930 . S
H1001 C1010 0.930 . S
H1002 C1015 0.929 . S
H1003 C1013 0.929 . S
H1004 C1008 0.929 . S
H1005 C1014 0.929 . S
C1006 H1000 0.930 . S
C1006 C1007 1.367 . S
C1006 C1014 1.378 . S
C1007 C1006 1.367 . S
C1007 C1015 1.433 . S
C1008 H1004 0.929 . S
C1008 C1010 1.378 . S
C1008 C1012 1.350 . S
C1009 C1012 1.463 . S
C1009 C1014 1.350 . S
C1009 N1017 1.427 . S
C1010 H1001 0.930 . S
C1010 C1008 1.378 . S
C1010 C1011 1.367 . S
C1011 C1010 1.367 . S
C1011 C1013 1.433 . S
C1012 C1008 1.350 . S
C1012 C1009 1.463 . S
C1012 N1016 1.427 . S
C1013 H1003 0.929 . S
C1013 C1011 1.433 . S
C1013 N1016 1.384 . S
C1014 H1005 0.929 . S
C1014 C1006 1.378 . S
C1014 C1009 1.350 . S
C1015 H1002 0.929 . S
C1015 C1007 1.433 . S
C1015 N1017 1.384 . S
N1016 C1012 1.427 . S
N1016 C1013 1.384 . S
N1017 C1009 1.427 . S
N1017 C1015 1.384 . S
H1018 C1024 0.930 . S
H1019 C1028 0.930 . S
H1020 C1033 0.929 . S
H1021 C1031 0.929 . S
H1022 C1026 0.929 . S
H1023 C1032 0.929 . S
C1024 H1018 0.930 . S
C1024 C1025 1.367 . S
C1024 C1032 1.378 . S
C1025 C1024 1.367 . S
C1025 C1033 1.433 . S
C1026 H1022 0.929 . S
C1026 C1028 1.378 . S
C1026 C1030 1.350 1_565 S
C1027 C1030 1.463 . S
C1027 C1032 1.350 . S
C1027 N1035 1.427 . S
C1028 H1019 0.930 . S
C1028 C1026 1.378 . S
C1028 C1029 1.367 . S
C1029 C1028 1.367 . S
C1029 C1031 1.433 . S
C1030 C1026 1.350 1_545 S
C1030 C1027 1.463 . S
C1030 N1034 1.427 . S
C1031 H1021 0.929 . S
C1031 C1029 1.433 . S
C1031 N1034 1.384 1_565 S
C1032 H1023 0.929 . S
C1032 C1024 1.378 . S
C1032 C1027 1.350 . S
C1033 H1020 0.929 . S
C1033 C1025 1.433 . S
C1033 N1035 1.384 . S
N1034 C1030 1.427 . S
N1034 C1031 1.384 1_545 S
N1035 C1027 1.427 . S
N1035 C1033 1.384 . S
H1036 C1042 0.930 . S
H1037 C1046 0.930 . S
H1038 C1051 0.929 . S
H1039 C1049 0.929 . S
H1040 C1044 0.929 . S
H1041 C1050 0.929 . S
C1042 H1036 0.930 . S
C1042 C1043 1.367 . S
C1042 C1050 1.378 . S
C1043 C1042 1.367 . S
C1043 C1051 1.433 . S
C1044 H1040 0.929 . S
C1044 C1046 1.378 . S
C1044 C1048 1.350 . S
C1045 C1048 1.463 . S
C1045 C1050 1.350 . S
C1045 N1053 1.427 . S
C1046 H1037 0.930 . S
C1046 C1044 1.378 . S
C1046 C1047 1.367 . S
C1047 C1046 1.367 . S
C1047 C1049 1.433 . S
C1048 C1044 1.350 . S
C1048 C1045 1.463 . S
C1048 N1052 1.427 . S
C1049 H1039 0.929 . S
C1049 C1047 1.433 . S
C1049 N1052 1.384 . S
C1050 H1041 0.929 . S
C1050 C1042 1.378 . S
C1050 C1045 1.350 . S
C1051 H1038 0.929 . S
C1051 C1043 1.433 . S
C1051 N1053 1.384 . S
N1052 C1048 1.427 . S
N1052 C1049 1.384 . S
N1053 C1045 1.427 . S
N1053 C1051 1.384 . S
H1054 C1060 0.930 . S
H1055 C1064 0.930 . S
H1056 C1069 0.929 . S
H1057 C1067 0.929 . S
H1058 C1062 0.929 . S
H1059 C1068 0.929 . S
C1060 H1054 0.930 . S
C1060 C1061 1.367 . S
C1060 C1068 1.378 . S
C1061 C1060 1.367 . S
C1061 C1069 1.433 . S
C1062 H1058 0.929 . S
C1062 C1064 1.378 . S
C1062 C1066 1.350 . S
C1063 C1066 1.463 . S
C1063 C1068 1.350 1_565 S
C1063 N1071 1.427 . S
C1064 H1055 0.930 . S
C1064 C1062 1.378 . S
C1064 C1065 1.367 . S
C1065 C1064 1.367 . S
C1065 C1067 1.433 . S
C1066 C1062 1.350 . S
C1066 C1063 1.463 . S
C1066 N1070 1.427 . S
C1067 H1057 0.929 . S
C1067 C1065 1.433 . S
C1067 N1070 1.384 . S
C1068 H1059 0.929 . S
C1068 C1060 1.378 . S
C1068 C1063 1.350 1_545 S
C1069 H1056 0.929 . S
C1069 C1061 1.433 . S
C1069 N1071 1.384 1_545 S
N1070 C1066 1.427 . S
N1070 C1067 1.384 . S
N1071 C1063 1.427 . S
N1071 C1069 1.384 1_565 S
H1072 C1078 0.930 . S
H1073 C1082 0.930 . S
H1074 C1087 0.929 . S
H1075 C1085 0.929 . S
H1076 C1080 0.929 . S
H1077 C1086 0.929 . S
C1078 H1072 0.930 . S
C1078 C1079 1.367 . S
C1078 C1086 1.378 . S
C1079 C1078 1.367 . S
C1079 C1087 1.433 . S
C1080 H1076 0.929 . S
C1080 C1082 1.378 . S
C1080 C1084 1.350 . S
C1081 C1084 1.463 . S
C1081 C1086 1.350 . S
C1081 N1089 1.427 . S
C1082 H1073 0.930 . S
C1082 C1080 1.378 . S
C1082 C1083 1.367 . S
C1083 C1082 1.367 . S
C1083 C1085 1.433 . S
C1084 C1080 1.350 . S
C1084 C1081 1.463 . S
C1084 N1088 1.427 . S
C1085 H1075 0.929 . S
C1085 C1083 1.433 . S
C1085 N1088 1.384 . S
C1086 H1077 0.929 . S
C1086 C1078 1.378 . S
C1086 C1081 1.350 . S
C1087 H1074 0.929 . S
C1087 C1079 1.433 . S
C1087 N1089 1.384 . S
N1088 C1084 1.427 . S
N1088 C1085 1.384 . S
N1089 C1081 1.427 . S
N1089 C1087 1.384 . S
H1090 C1096 0.930 . S
H1091 C1100 0.930 . S
H1092 C1105 0.929 . S
H1093 C1103 0.929 1_556 S
H1094 C1098 0.929 . S
H1095 C1104 0.929 . S
C1096 H1090 0.930 . S
C1096 C1097 1.367 . S
C1096 C1104 1.378 . S
C1097 C1096 1.367 . S
C1097 C1105 1.433 . S
C1098 H1094 0.929 . S
C1098 C1100 1.378 . S
C1098 C1102 1.350 . S
C1099 C1102 1.463 . S
C1099 C1104 1.350 . S
C1099 N1107 1.427 . S
C1100 H1091 0.930 . S
C1100 C1098 1.378 . S
C1100 C1101 1.367 . S
C1101 C1100 1.367 . S
C1101 C1103 1.433 . S
C1102 C1098 1.350 . S
C1102 C1099 1.463 . S
C1102 N1106 1.427 . S
C1103 H1093 0.929 1_554 S
C1103 C1101 1.433 . S
C1103 N1106 1.384 . S
C1104 H1095 0.929 . S
C1104 C1096 1.378 . S
C1104 C1099 1.350 . S
C1105 H1092 0.929 . S
C1105 C1097 1.433 . S
C1105 N1107 1.384 . S
N1106 C1102 1.427 . S
N1106 C1103 1.384 . S
N1107 C1099 1.427 . S
N1107 C1105 1.384 . S
H1108 C1114 0.930 . S
H1109 C1118 0.930 . S
H1110 C1123 0.929 . S
H1111 C1121 0.929 . S
H1112 C1116 0.928 1_455 S
H1113 C1122 0.929 . S
C1114 H1108 0.930 . S
C1114 C1115 1.367 . S
C1114 C1122 1.378 . S
C1115 C1114 1.367 . S
C1115 C1123 1.433 . S
C1116 H1112 0.928 1_655 S
C1116 C1118 1.377 1_655 S
C1116 C1120 1.351 . S
C1117 C1120 1.463 . S
C1117 C1122 1.350 . S
C1117 N1125 1.427 . S
C1118 H1109 0.930 . S
C1118 C1116 1.377 1_455 S
C1118 C1119 1.367 . S
C1119 C1118 1.367 . S
C1119 C1121 1.433 1_455 S
C1120 C1116 1.351 . S
C1120 C1117 1.463 . S
C1120 N1124 1.427 . S
C1121 H1111 0.929 . S
C1121 C1119 1.433 1_655 S
C1121 N1124 1.384 . S
C1122 H1113 0.929 . S
C1122 C1114 1.378 . S
C1122 C1117 1.350 . S
C1123 H1110 0.929 . S
C1123 C1115 1.433 . S
C1123 N1125 1.384 . S
N1124 C1120 1.427 . S
N1124 C1121 1.384 . S
N1125 C1117 1.427 . S
N1125 C1123 1.384 . S
H1126 C1132 0.930 . S
H1127 C1136 0.930 . S
H1128 C1141 0.929 . S
H1129 C1139 0.929 . S
H1130 C1134 0.929 . S
H1131 C1140 0.929 . S
C1132 H1126 0.930 . S
C1132 C1133 1.367 . S
C1132 C1140 1.378 . S
C1133 C1132 1.367 . S
C1133 C1141 1.433 . S
C1134 H1130 0.929 . S
C1134 C1136 1.378 . S
C1134 C1138 1.350 . S
C1135 C1138 1.463 . S
C1135 C1140 1.350 . S
C1135 N1143 1.427 . S
C1136 H1127 0.930 . S
C1136 C1134 1.378 . S
C1136 C1137 1.367 . S
C1137 C1136 1.367 . S
C1137 C1139 1.433 . S
C1138 C1134 1.350 . S
C1138 C1135 1.463 . S
C1138 N1142 1.427 . S
C1139 H1129 0.929 . S
C1139 C1137 1.433 . S
C1139 N1142 1.384 . S
C1140 H1131 0.929 . S
C1140 C1132 1.378 . S
C1140 C1135 1.350 . S
C1141 H1128 0.929 . S
C1141 C1133 1.433 . S
C1141 N1143 1.384 . S
N1142 C1138 1.427 . S
N1142 C1139 1.384 . S
N1143 C1135 1.427 . S
N1143 C1141 1.384 . S
H1144 C1150 0.930 . S
H1145 C1154 0.930 . S
H1146 C1159 0.929 . S
H1147 C1157 0.929 . S
H1148 C1152 0.929 . S
H1149 C1158 0.929 . S
C1150 H1144 0.930 . S
C1150 C1151 1.367 . S
C1150 C1158 1.378 . S
C1151 C1150 1.367 . S
C1151 C1159 1.433 . S
C1152 H1148 0.929 . S
C1152 C1154 1.378 . S
C1152 C1156 1.350 . S
C1153 C1156 1.463 . S
C1153 C1158 1.350 . S
C1153 N1161 1.427 . S
C1154 H1145 0.930 . S
C1154 C1152 1.378 . S
C1154 C1155 1.367 . S
C1155 C1154 1.367 . S
C1155 C1157 1.433 . S
C1156 C1152 1.350 . S
C1156 C1153 1.463 . S
C1156 N1160 1.427 . S
C1157 H1147 0.929 . S
C1157 C1155 1.433 . S
C1157 N1160 1.384 . S
C1158 H1149 0.929 . S
C1158 C1150 1.378 . S
C1158 C1153 1.350 . S
C1159 H1146 0.929 . S
C1159 C1151 1.433 . S
C1159 N1161 1.384 . S
N1160 C1156 1.427 . S
N1160 C1157 1.384 . S
N1161 C1153 1.427 . S
N1161 C1159 1.384 . S
H1162 C1168 0.930 . S
H1163 C1172 0.930 . S
H1164 C1177 0.929 . S
H1165 C1175 0.929 . S
H1166 C1170 0.929 . S
H1167 C1176 0.929 . S
C1168 H1162 0.930 . S
C1168 C1169 1.367 . S
C1168 C1176 1.378 . S
C1169 C1168 1.367 . S
C1169 C1177 1.433 . S
C1170 H1166 0.929 . S
C1170 C1172 1.378 . S
C1170 C1174 1.350 . S
C1171 C1174 1.463 . S
C1171 C1176 1.350 . S
C1171 N1179 1.427 . S
C1172 H1163 0.930 . S
C1172 C1170 1.378 . S
C1172 C1173 1.367 . S
C1173 C1172 1.367 . S
C1173 C1175 1.433 . S
C1174 C1170 1.350 . S
C1174 C1171 1.463 . S
C1174 N1178 1.427 . S
C1175 H1165 0.929 . S
C1175 C1173 1.433 . S
C1175 N1178 1.384 . S
C1176 H1167 0.929 . S
C1176 C1168 1.378 . S
C1176 C1171 1.350 . S
C1177 H1164 0.929 . S
C1177 C1169 1.433 . S
C1177 N1179 1.384 . S
N1178 C1174 1.427 . S
N1178 C1175 1.384 . S
N1179 C1171 1.427 . S
N1179 C1177 1.384 . S
H1180 C1186 0.930 . S
H1181 C1190 0.930 . S
H1182 C1195 0.929 . S
H1183 C1193 0.929 . S
H1184 C1188 0.929 . S
H1185 C1194 0.929 . S
C1186 H1180 0.930 . S
C1186 C1187 1.367 . S
C1186 C1194 1.378 . S
C1187 C1186 1.367 . S
C1187 C1195 1.433 . S
C1188 H1184 0.929 . S
C1188 C1190 1.378 . S
C1188 C1192 1.350 . S
C1189 C1192 1.463 . S
C1189 C1194 1.350 . S
C1189 N1197 1.427 . S
C1190 H1181 0.930 . S
C1190 C1188 1.378 . S
C1190 C1191 1.367 1_455 S
C1191 C1190 1.367 1_655 S
C1191 C1193 1.433 . S
C1192 C1188 1.350 . S
C1192 C1189 1.463 . S
C1192 N1196 1.427 1_455 S
C1193 H1183 0.929 . S
C1193 C1191 1.433 . S
C1193 N1196 1.384 . S
C1194 H1185 0.929 . S
C1194 C1186 1.378 . S
C1194 C1189 1.350 . S
C1195 H1182 0.929 . S
C1195 C1187 1.433 . S
C1195 N1197 1.384 . S
N1196 C1192 1.427 1_655 S
N1196 C1193 1.384 . S
N1197 C1189 1.427 . S
N1197 C1195 1.384 . S
H1198 C1204 0.930 . S
H1199 C1208 0.930 . S
H1200 C1213 0.929 . S
H1201 C1211 0.929 . S
H1202 C1206 0.929 . S
H1203 C1212 0.929 . S
C1204 H1198 0.930 . S
C1204 C1205 1.367 . S
C1204 C1212 1.378 . S
C1205 C1204 1.367 . S
C1205 C1213 1.433 . S
C1206 H1202 0.929 . S
C1206 C1208 1.378 . S
C1206 C1210 1.350 . S
C1207 C1210 1.463 . S
C1207 C1212 1.350 . S
C1207 N1215 1.427 . S
C1208 H1199 0.930 . S
C1208 C1206 1.378 . S
C1208 C1209 1.367 . S
C1209 C1208 1.367 . S
C1209 C1211 1.433 . S
C1210 C1206 1.350 . S
C1210 C1207 1.463 . S
C1210 N1214 1.427 . S
C1211 H1201 0.929 . S
C1211 C1209 1.433 . S
C1211 N1214 1.384 . S
C1212 H1203 0.929 . S
C1212 C1204 1.378 . S
C1212 C1207 1.350 . S
C1213 H1200 0.929 . S
C1213 C1205 1.433 . S
C1213 N1215 1.384 . S
N1214 C1210 1.427 . S
N1214 C1211 1.384 . S
N1215 C1207 1.427 . S
N1215 C1213 1.384 . S
H1216 C1222 0.930 . S
H1217 C1226 0.930 . S
H1218 C1231 0.929 . S
H1219 C1229 0.929 . S
H1220 C1224 0.929 . S
H1221 C1230 0.918 1_655 S
C1222 H1216 0.930 . S
C1222 C1223 1.367 . S
C1222 C1230 1.362 1_655 S
C1223 C1222 1.367 . S
C1223 C1231 1.433 1_655 S
C1224 H1220 0.929 . S
C1224 C1226 1.378 . S
C1224 C1228 1.350 . S
C1225 C1228 1.463 . S
C1225 C1230 1.377 . S
C1225 N1233 1.427 . S
C1226 H1217 0.930 . S
C1226 C1224 1.378 . S
C1226 C1227 1.367 . S
C1227 C1226 1.367 . S
C1227 C1229 1.433 . S
C1228 C1224 1.350 . S
C1228 C1225 1.463 . S
C1228 N1232 1.427 . S
C1229 H1219 0.929 . S
C1229 C1227 1.433 . S
C1229 N1232 1.384 . S
C1230 H1221 0.918 1_455 S
C1230 C1222 1.362 1_455 S
C1230 C1225 1.377 . S
C1231 H1218 0.929 . S
C1231 C1223 1.433 1_455 S
C1231 N1233 1.384 . S
N1232 C1228 1.427 . S
N1232 C1229 1.384 . S
N1233 C1225 1.427 . S
N1233 C1231 1.384 . S
H1234 C1240 0.930 . S
H1235 C1244 0.930 . S
H1236 C1249 0.929 . S
H1237 C1247 0.929 . S
H1238 C1242 0.929 . S
H1239 C1248 0.929 . S
C1240 H1234 0.930 . S
C1240 C1241 1.367 . S
C1240 C1248 1.378 . S
C1241 C1240 1.367 . S
C1241 C1249 1.433 . S
C1242 H1238 0.929 . S
C1242 C1244 1.378 . S
C1242 C1246 1.350 . S
C1243 C1246 1.463 . S
C1243 C1248 1.350 . S
C1243 N1251 1.427 . S
C1244 H1235 0.930 . S
C1244 C1242 1.378 . S
C1244 C1245 1.367 . S
C1245 C1244 1.367 . S
C1245 C1247 1.433 . S
C1246 C1242 1.350 . S
C1246 C1243 1.463 . S
C1246 N1250 1.427 . S
C1247 H1237 0.929 . S
C1247 C1245 1.433 . S
C1247 N1250 1.384 . S
C1248 H1239 0.929 . S
C1248 C1240 1.378 . S
C1248 C1243 1.350 . S
C1249 H1236 0.929 . S
C1249 C1241 1.433 . S
C1249 N1251 1.384 . S
N1250 C1246 1.427 . S
N1250 C1247 1.384 . S
N1251 C1243 1.427 . S
N1251 C1249 1.384 . S
H1252 C1258 0.930 . S
H1253 C1262 0.930 . S
H1254 C1267 0.929 . S
H1255 C1265 0.929 . S
H1256 C1260 0.929 . S
H1257 C1266 0.929 . S
C1258 H1252 0.930 . S
C1258 C1259 1.367 . S
C1258 C1266 1.378 . S
C1259 C1258 1.367 . S
C1259 C1267 1.433 . S
C1260 H1256 0.929 . S
C1260 C1262 1.378 . S
C1260 C1264 1.350 . S
C1261 C1264 1.463 . S
C1261 C1266 1.350 . S
C1261 N1269 1.427 . S
C1262 H1253 0.930 . S
C1262 C1260 1.378 . S
C1262 C1263 1.367 . S
C1263 C1262 1.367 . S
C1263 C1265 1.433 . S
C1264 C1260 1.350 . S
C1264 C1261 1.463 . S
C1264 N1268 1.427 . S
C1265 H1255 0.929 . S
C1265 C1263 1.433 . S
C1265 N1268 1.384 . S
C1266 H1257 0.929 . S
C1266 C1258 1.378 . S
C1266 C1261 1.350 . S
C1267 H1254 0.929 . S
C1267 C1259 1.433 . S
C1267 N1269 1.384 . S
N1268 C1264 1.427 . S
N1268 C1265 1.384 . S
N1269 C1261 1.427 . S
N1269 C1267 1.384 . S
H1270 C1276 0.930 . S
H1271 C1280 0.930 . S
H1272 C1285 0.929 1_556 S
H1273 C1283 0.929 . S
H1274 C1278 0.929 . S
H1275 C1284 0.929 . S
C1276 H1270 0.930 . S
C1276 C1277 1.367 . S
C1276 C1284 1.378 . S
C1277 C1276 1.367 . S
C1277 C1285 1.433 . S
C1278 H1274 0.929 . S
C1278 C1280 1.378 . S
C1278 C1282 1.350 . S
C1279 C1282 1.463 . S
C1279 C1284 1.350 . S
C1279 N1287 1.427 . S
C1280 H1271 0.930 . S
C1280 C1278 1.378 . S
C1280 C1281 1.367 . S
C1281 C1280 1.367 . S
C1281 C1283 1.433 . S
C1282 C1278 1.350 . S
C1282 C1279 1.463 . S
C1282 N1286 1.427 . S
C1283 H1273 0.929 . S
C1283 C1281 1.433 . S
C1283 N1286 1.384 . S
C1284 H1275 0.929 . S
C1284 C1276 1.378 . S
C1284 C1279 1.350 . S
C1285 H1272 0.929 1_554 S
C1285 C1277 1.433 . S
C1285 N1287 1.384 . S
N1286 C1282 1.427 . S
N1286 C1283 1.384 . S
N1287 C1279 1.427 . S
N1287 C1285 1.384 . S
H1288 C1294 0.930 . S
H1289 C1298 0.930 . S
H1290 C1303 0.929 . S
H1291 C1301 0.929 . S
H1292 C1296 0.929 . S
H1293 C1302 0.929 . S
C1294 H1288 0.930 . S
C1294 C1295 1.367 . S
C1294 C1302 1.378 1_455 S
C1295 C1294 1.367 . S
C1295 C1303 1.433 1_455 S
C1296 H1292 0.929 . S
C1296 C1298 1.378 . S
C1296 C1300 1.350 . S
C1297 C1300 1.463 . S
C1297 C1302 1.350 . S
C1297 N1305 1.427 . S
C1298 H1289 0.930 . S
C1298 C1296 1.378 . S
C1298 C1299 1.367 . S
C1299 C1298 1.367 . S
C1299 C1301 1.433 . S
C1300 C1296 1.350 . S
C1300 C1297 1.463 . S
C1300 N1304 1.427 . S
C1301 H1291 0.929 . S
C1301 C1299 1.433 . S
C1301 N1304 1.384 . S
C1302 H1293 0.929 . S
C1302 C1294 1.378 1_655 S
C1302 C1297 1.350 . S
C1303 H1290 0.929 . S
C1303 C1295 1.433 1_655 S
C1303 N1305 1.384 . S
N1304 C1300 1.427 . S
N1304 C1301 1.384 . S
N1305 C1297 1.427 . S
N1305 C1303 1.384 . S
H1306 C1312 0.930 . S
H1307 C1316 0.930 . S
H1308 C1321 0.929 . S
H1309 C1319 0.929 . S
H1310 C1314 0.929 . S
H1311 C1320 0.929 . S
C1312 H1306 0.930 . S
C1312 C1313 1.367 . S
C1312 C1320 1.378 . S
C1313 C1312 1.367 . S
C1313 C1321 1.433 . S
C1314 H1310 0.929 . S
C1314 C1316 1.378 . S
C1314 C1318 1.350 . S
C1315 C1318 1.463 . S
C1315 C1320 1.350 . S
C1315 N1323 1.427 . S
C1316 H1307 0.930 . S
C1316 C1314 1.378 . S
C1316 C1317 1.367 . S
C1317 C1316 1.367 . S
C1317 C1319 1.433 . S
C1318 C1314 1.350 . S
C1318 C1315 1.463 . S
C1318 N1322 1.427 . S
C1319 H1309 0.929 . S
C1319 C1317 1.433 . S
C1319 N1322 1.384 . S
C1320 H1311 0.929 . S
C1320 C1312 1.378 . S
C1320 C1315 1.350 . S
C1321 H1308 0.929 . S
C1321 C1313 1.433 . S
C1321 N1323 1.384 . S
N1322 C1318 1.427 . S
N1322 C1319 1.384 . S
N1323 C1315 1.427 . S
N1323 C1321 1.384 . S
H1324 C1330 0.930 . S
H1325 C1334 0.930 . S
H1326 C1339 0.929 . S
H1327 C1337 0.929 . S
H1328 C1332 0.929 . S
H1329 C1338 0.929 . S
C1330 H1324 0.930 . S
C1330 C1331 1.367 . S
C1330 C1338 1.378 . S
C1331 C1330 1.367 . S
C1331 C1339 1.433 . S
C1332 H1328 0.929 . S
C1332 C1334 1.378 . S
C1332 C1336 1.350 . S
C1333 C1336 1.463 . S
C1333 C1338 1.350 . S
C1333 N1341 1.427 . S
C1334 H1325 0.930 . S
C1334 C1332 1.378 . S
C1334 C1335 1.367 . S
C1335 C1334 1.367 . S
C1335 C1337 1.433 . S
C1336 C1332 1.350 . S
C1336 C1333 1.463 . S
C1336 N1340 1.427 . S
C1337 H1327 0.929 . S
C1337 C1335 1.433 . S
C1337 N1340 1.384 . S
C1338 H1329 0.929 . S
C1338 C1330 1.378 . S
C1338 C1333 1.350 . S
C1339 H1326 0.929 . S
C1339 C1331 1.433 . S
C1339 N1341 1.384 . S
N1340 C1336 1.427 . S
N1340 C1337 1.384 . S
N1341 C1333 1.427 . S
N1341 C1339 1.384 . S
H1342 C1348 0.930 . S
H1343 C1352 0.930 . S
H1344 C1357 0.929 . S
H1345 C1355 0.929 . S
H1346 C1350 0.929 . S
H1347 C1356 0.929 . S
C1348 H1342 0.930 . S
C1348 C1349 1.367 . S
C1348 C1356 1.378 . S
C1349 C1348 1.367 . S
C1349 C1357 1.433 . S
C1350 H1346 0.929 . S
C1350 C1352 1.378 . S
C1350 C1354 1.350 . S
C1351 C1354 1.463 . S
C1351 C1356 1.350 . S
C1351 N1359 1.427 . S
C1352 H1343 0.930 . S
C1352 C1350 1.378 . S
C1352 C1353 1.367 . S
C1353 C1352 1.367 . S
C1353 C1355 1.433 . S
C1354 C1350 1.350 . S
C1354 C1351 1.463 . S
C1354 N1358 1.427 . S
C1355 H1345 0.929 . S
C1355 C1353 1.433 . S
C1355 N1358 1.384 . S
C1356 H1347 0.929 . S
C1356 C1348 1.378 . S
C1356 C1351 1.350 . S
C1357 H1344 0.929 . S
C1357 C1349 1.433 . S
C1357 N1359 1.384 . S
N1358 C1354 1.427 . S
N1358 C1355 1.384 . S
N1359 C1351 1.427 . S
N1359 C1357 1.384 . S
H1360 C1366 0.930 . S
H1361 C1370 0.930 . S
H1362 C1375 0.929 . S
H1363 C1373 0.929 . S
H1364 C1368 0.929 . S
H1365 C1374 0.929 . S
C1366 H1360 0.930 . S
C1366 C1367 1.367 . S
C1366 C1374 1.378 . S
C1367 C1366 1.367 . S
C1367 C1375 1.433 . S
C1368 H1364 0.929 . S
C1368 C1370 1.378 . S
C1368 C1372 1.350 . S
C1369 C1372 1.463 . S
C1369 C1374 1.350 . S
C1369 N1377 1.427 . S
C1370 H1361 0.930 . S
C1370 C1368 1.378 . S
C1370 C1371 1.367 . S
C1371 C1370 1.367 . S
C1371 C1373 1.433 . S
C1372 C1368 1.350 . S
C1372 C1369 1.463 . S
C1372 N1376 1.427 . S
C1373 H1363 0.929 . S
C1373 C1371 1.433 . S
C1373 N1376 1.384 . S
C1374 H1365 0.929 . S
C1374 C1366 1.378 . S
C1374 C1369 1.350 . S
C1375 H1362 0.929 . S
C1375 C1367 1.433 . S
C1375 N1377 1.384 . S
N1376 C1372 1.427 . S
N1376 C1373 1.384 . S
N1377 C1369 1.427 . S
N1377 C1375 1.384 . S
H1378 C1384 0.930 . S
H1379 C1388 0.930 . S
H1380 C1393 0.929 . S
H1381 C1391 0.929 . S
H1382 C1386 0.929 . S
H1383 C1392 0.929 . S
C1384 H1378 0.930 . S
C1384 C1385 1.367 . S
C1384 C1392 1.378 . S
C1385 C1384 1.367 . S
C1385 C1393 1.433 . S
C1386 H1382 0.929 . S
C1386 C1388 1.378 . S
C1386 C1390 1.350 . S
C1387 C1390 1.463 . S
C1387 C1392 1.350 . S
C1387 N1395 1.427 . S
C1388 H1379 0.930 . S
C1388 C1386 1.378 . S
C1388 C1389 1.367 . S
C1389 C1388 1.367 . S
C1389 C1391 1.433 . S
C1390 C1386 1.350 . S
C1390 C1387 1.463 . S
C1390 N1394 1.427 . S
C1391 H1381 0.929 . S
C1391 C1389 1.433 . S
C1391 N1394 1.384 . S
C1392 H1383 0.929 . S
C1392 C1384 1.378 . S
C1392 C1387 1.350 . S
C1393 H1380 0.929 . S
C1393 C1385 1.433 . S
C1393 N1395 1.384 . S
N1394 C1390 1.427 . S
N1394 C1391 1.384 . S
N1395 C1387 1.427 . S
N1395 C1393 1.384 . S
H1396 C1402 0.930 . S
H1397 C1406 0.930 . S
H1398 C1411 0.929 . S
H1399 C1409 0.929 . S
H1400 C1404 0.929 . S
H1401 C1410 0.929 . S
C1402 H1396 0.930 . S
C1402 C1403 1.367 . S
C1402 C1410 1.378 . S
C1403 C1402 1.367 . S
C1403 C1411 1.433 . S
C1404 H1400 0.929 . S
C1404 C1406 1.378 . S
C1404 C1408 1.350 . S
C1405 C1408 1.463 . S
C1405 C1410 1.350 . S
C1405 N1413 1.427 . S
C1406 H1397 0.930 . S
C1406 C1404 1.378 . S
C1406 C1407 1.367 . S
C1407 C1406 1.367 . S
C1407 C1409 1.433 . S
C1408 C1404 1.350 . S
C1408 C1405 1.463 . S
C1408 N1412 1.427 . S
C1409 H1399 0.929 . S
C1409 C1407 1.433 . S
C1409 N1412 1.384 . S
C1410 H1401 0.929 . S
C1410 C1402 1.378 . S
C1410 C1405 1.350 . S
C1411 H1398 0.929 . S
C1411 C1403 1.433 . S
C1411 N1413 1.384 . S
N1412 C1408 1.427 . S
N1412 C1409 1.384 . S
N1413 C1405 1.427 . S
N1413 C1411 1.384 . S
H1414 C1420 0.930 . S
H1415 C1424 0.930 . S
H1416 C1429 0.929 . S
H1417 C1427 0.929 . S
H1418 C1422 0.929 1_554 S
H1419 C1428 0.929 1_556 S
C1420 H1414 0.930 . S
C1420 C1421 1.367 . S
C1420 C1428 1.378 . S
C1421 C1420 1.367 . S
C1421 C1429 1.433 . S
C1422 H1418 0.929 1_556 S
C1422 C1424 1.378 . S
C1422 C1426 1.350 . S
C1423 C1426 1.463 1_454 S
C1423 C1428 1.350 . S
C1423 N1431 1.427 . S
C1424 H1415 0.930 . S
C1424 C1422 1.378 . S
C1424 C1425 1.367 . S
C1425 C1424 1.367 . S
C1425 C1427 1.433 . S
C1426 C1422 1.350 . S
C1426 C1423 1.463 1_656 S
C1426 N1430 1.427 . S
C1427 H1417 0.929 . S
C1427 C1425 1.433 . S
C1427 N1430 1.384 . S
C1428 H1419 0.929 1_554 S
C1428 C1420 1.378 . S
C1428 C1423 1.350 . S
C1429 H1416 0.929 . S
C1429 C1421 1.433 . S
C1429 N1431 1.384 . S
N1430 C1426 1.427 . S
N1430 C1427 1.384 . S
N1431 C1423 1.427 . S
N1431 C1429 1.384 . S
H1432 C1438 0.930 . S
H1433 C1442 0.930 . S
H1434 C1447 0.929 . S
H1435 C1445 0.929 . S
H1436 C1440 0.929 . S
H1437 C1446 0.929 . S
C1438 H1432 0.930 . S
C1438 C1439 1.367 . S
C1438 C1446 1.378 . S
C1439 C1438 1.367 . S
C1439 C1447 1.433 . S
C1440 H1436 0.929 . S
C1440 C1442 1.378 . S
C1440 C1444 1.350 . S
C1441 C1444 1.463 . S
C1441 C1446 1.350 . S
C1441 N1449 1.427 . S
C1442 H1433 0.930 . S
C1442 C1440 1.378 . S
C1442 C1443 1.367 . S
C1443 C1442 1.367 . S
C1443 C1445 1.433 . S
C1444 C1440 1.350 . S
C1444 C1441 1.463 . S
C1444 N1448 1.427 . S
C1445 H1435 0.929 . S
C1445 C1443 1.433 . S
C1445 N1448 1.384 . S
C1446 H1437 0.929 . S
C1446 C1438 1.378 . S
C1446 C1441 1.350 . S
C1447 H1434 0.929 . S
C1447 C1439 1.433 . S
C1447 N1449 1.384 . S
N1448 C1444 1.427 . S
N1448 C1445 1.384 . S
N1449 C1441 1.427 . S
N1449 C1447 1.384 . S
H1450 C1456 0.930 . S
H1451 C1460 0.930 . S
H1452 C1465 0.929 . S
H1453 C1463 0.929 . S
H1454 C1458 0.929 . S
H1455 C1464 0.929 . S
C1456 H1450 0.930 . S
C1456 C1457 1.367 . S
C1456 C1464 1.378 . S
C1457 C1456 1.367 . S
C1457 C1465 1.433 . S
C1458 H1454 0.929 . S
C1458 C1460 1.378 . S
C1458 C1462 1.350 . S
C1459 C1462 1.463 . S
C1459 C1464 1.350 . S
C1459 N1467 1.427 . S
C1460 H1451 0.930 . S
C1460 C1458 1.378 . S
C1460 C1461 1.367 . S
C1461 C1460 1.367 . S
C1461 C1463 1.433 . S
C1462 C1458 1.350 . S
C1462 C1459 1.463 . S
C1462 N1466 1.427 . S
C1463 H1453 0.929 . S
C1463 C1461 1.433 . S
C1463 N1466 1.384 . S
C1464 H1455 0.929 . S
C1464 C1456 1.378 . S
C1464 C1459 1.350 . S
C1465 H1452 0.929 . S
C1465 C1457 1.433 . S
C1465 N1467 1.384 . S
N1466 C1462 1.427 . S
N1466 C1463 1.384 . S
N1467 C1459 1.427 . S
N1467 C1465 1.384 . S
H1468 C1474 0.930 . S
H1469 C1478 0.930 . S
H1470 C1483 0.929 . S
H1471 C1481 0.929 . S
H1472 C1476 0.929 . S
H1473 C1482 0.929 . S
C1474 H1468 0.930 . S
C1474 C1475 1.367 . S
C1474 C1482 1.378 . S
C1475 C1474 1.367 . S
C1475 C1483 1.433 1_545 S
C1476 H1472 0.929 . S
C1476 C1478 1.378 . S
C1476 C1480 1.350 . S
C1477 C1480 1.463 1_446 S
C1477 C1482 1.350 . S
C1477 N1485 1.427 1_545 S
C1478 H1469 0.930 . S
C1478 C1476 1.378 . S
C1478 C1479 1.367 . S
C1479 C1478 1.367 . S
C1479 C1481 1.433 1_565 S
C1480 C1476 1.350 . S
C1480 C1477 1.463 1_664 S
C1480 N1484 1.427 1_565 S
C1481 H1471 0.929 . S
C1481 C1479 1.433 1_545 S
C1481 N1484 1.384 . S
C1482 H1473 0.929 . S
C1482 C1474 1.378 . S
C1482 C1477 1.350 . S
C1483 H1470 0.929 . S
C1483 C1475 1.433 1_565 S
C1483 N1485 1.384 . S
N1484 C1480 1.427 1_545 S
N1484 C1481 1.384 . S
N1485 C1477 1.427 1_565 S
N1485 C1483 1.384 . S
H1486 C1492 0.930 . S
H1487 C1496 0.930 . S
H1488 C1501 0.929 . S
H1489 C1499 0.929 . S
H1490 C1494 0.929 . S
H1491 C1500 0.929 . S
C1492 H1486 0.930 . S
C1492 C1493 1.367 1_565 S
C1492 C1500 1.378 . S
C1493 C1492 1.367 1_545 S
C1493 C1501 1.433 . S
C1494 H1490 0.929 . S
C1494 C1496 1.378 . S
C1494 C1498 1.355 1_545 S
C1495 C1498 1.463 1_545 S
C1495 C1500 1.355 1_545 S
C1495 N1503 1.422 . S
C1496 H1487 0.930 . S
C1496 C1494 1.378 . S
C1496 C1497 1.367 1_545 S
C1497 C1496 1.367 1_565 S
C1497 C1499 1.433 . S
C1498 C1494 1.355 1_565 S
C1498 C1495 1.463 1_565 S
C1498 N1502 1.422 . S
C1499 H1489 0.929 . S
C1499 C1497 1.433 . S
C1499 N1502 1.384 . S
C1500 H1491 0.929 . S
C1500 C1492 1.378 . S
C1500 C1495 1.355 1_565 S
C1501 H1488 0.929 . S
C1501 C1493 1.433 . S
C1501 N1503 1.384 . S
N1502 C1498 1.422 . S
N1502 C1499 1.384 . S
N1503 C1495 1.422 . S
N1503 C1501 1.384 . S
C647 C10 3.318 . S
C651 C410 3.318 . S
C665 C50 3.321 . S
C669 C450 3.322 . S
C683 C90 3.322 . S
C687 C330 3.321 . S
C701 C130 3.318 . S
C705 C370 3.317 . S
C719 C179 3.319 . S
C723 C579 3.319 . S
C737 C219 3.321 . S
C741 C619 3.320 . S
C755 C259 3.321 . S
C759 C499 3.321 . S
C773 C299 3.323 . S
C777 C539 3.323 . S
C791 C369 3.749 . S
C795 C19 3.712 1_556 S
C809 C409 3.752 . S
C813 C59 3.708 . S
C827 C449 3.752 . S
C831 C99 3.708 . S
C845 C329 3.749 . S
C849 C139 3.712 . S
C863 C170 3.708 1_554 S
C867 C538 3.752 . S
C881 C578 3.748 . S
C885 C210 3.713 . S
C899 C618 3.753 . S
C903 C250 3.707 . S
C917 C498 3.750 . S
C921 C290 3.711 . S
C935 C49 3.751 . S
C939 C339 3.709 . S
C953 C379 3.712 . S
C957 C89 3.748 . S
C971 C419 3.713 1_556 S
C975 C129 3.748 . S
C989 C459 3.710 . S
C993 C9 3.750 . S
C1007 C490 3.708 . S
C1011 C218 3.752 . S
C1025 C258 3.754 . S
C1029 C530 3.706 . S
C1043 C298 3.751 . S
C1047 C570 3.709 1_554 S
C1061 C610 3.706 . S
C1065 C178 3.754 . S
C1079 C6 0.401 . S
C1083 C609 0.160 . S
C1097 C46 0.377 . S
C1101 C169 0.203 . S
C1115 C529 0.207 . S
C1119 C86 0.383 . S
C1133 C249 0.203 . S
C1137 C126 0.377 . S
C1151 C175 0.369 . S
C1155 C458 0.172 . S
C1169 C215 0.376 . S
C1173 C18 0.163 . S
C1187 C378 0.181 . S
C1191 C255 0.420 . S
C1205 C98 0.159 . S
C1209 C295 0.399 . S
C1223 C326 0.367 . S
C1227 C289 0.182 . S
C1241 C366 0.422 . S
C1245 C489 0.186 . S
C1259 C209 0.203 . S
C1263 C406 0.420 . S
C1277 C569 0.206 . S
C1281 C446 0.380 . S
C1295 C495 0.373 . S
C1299 C138 0.166 . S
C1313 C535 0.413 . S
C1317 C338 0.169 . S
C1331 C575 0.414 . S
C1335 C58 0.170 . S
C1349 C418 0.208 . S
C1353 C615 0.416 . S
C1367 C15 1.627 . S
C1371 C486 1.627 . S
C1385 C55 1.629 . S
C1389 C206 1.629 . S
C1403 C95 1.631 . S
C1407 C566 1.631 . S
C1421 C286 1.627 . S
C1425 C135 1.627 . S
C1439 C166 1.638 . S
C1443 C335 1.638 . S
C1457 C415 1.638 . S
C1461 C246 1.638 . S
C1475 C375 1.624 . S
C1479 C526 1.624 . S
C1493 C606 1.642 . S
C1497 C455 1.642 . S
