# Generated by pormake.
# Topology bcu-j, (5)-cn, num edge types: 1
# Building blocks:
#     Node 0, Type 0, BuildingBlock: XOMCOT_clean_sbu_1, # of connection points: 5
#     Node 1, Type 0, BuildingBlock: XOMCOT_clean_sbu_1, # of connection points: 5
#     Node 2, Type 0, BuildingBlock: XOMCOT_clean_sbu_1, # of connection points: 5
#     Node 3, Type 0, BuildingBlock: XOMCOT_clean_sbu_1, # of connection points: 5
#     Node 4, Type 0, BuildingBlock: XOMCOT_clean_sbu_1, # of connection points: 5
#     Node 5, Type 0, BuildingBlock: XOMCOT_clean_sbu_1, # of connection points: 5
#     Node 6, Type 0, BuildingBlock: XOMCOT_clean_sbu_1, # of connection points: 5
#     Node 7, Type 0, BuildingBlock: XOMCOT_clean_sbu_1, # of connection points: 5
#     Node 8, Type 0, BuildingBlock: XOMCOT_clean_sbu_1, # of connection points: 5
#     Node 9, Type 0, BuildingBlock: XOMCOT_clean_sbu_1, # of connection points: 5
#     Node 10, Type 0, BuildingBlock: XOMCOT_clean_sbu_1, # of connection points: 5
#     Node 11, Type 0, BuildingBlock: XOMCOT_clean_sbu_1, # of connection points: 5
#     Node 12, Type 0, BuildingBlock: XOMCOT_clean_sbu_1, # of connection points: 5
#     Node 13, Type 0, BuildingBlock: XOMCOT_clean_sbu_1, # of connection points: 5
#     Node 14, Type 0, BuildingBlock: XOMCOT_clean_sbu_1, # of connection points: 5
#     Node 15, Type 0, BuildingBlock: XOMCOT_clean_sbu_1, # of connection points: 5
#     Edge 16, Type (0, 0), BuildingBlock: CIFDUS_clean_linker_0, # of connection points: 2
#     Edge 17, Type (0, 0), BuildingBlock: CIFDUS_clean_linker_0, # of connection points: 2
#     Edge 18, Type (0, 0), BuildingBlock: CIFDUS_clean_linker_0, # of connection points: 2
#     Edge 19, Type (0, 0), BuildingBlock: CIFDUS_clean_linker_0, # of connection points: 2
#     Edge 20, Type (0, 0), BuildingBlock: CIFDUS_clean_linker_0, # of connection points: 2
#     Edge 21, Type (0, 0), BuildingBlock: CIFDUS_clean_linker_0, # of connection points: 2
#     Edge 22, Type (0, 0), BuildingBlock: CIFDUS_clean_linker_0, # of connection points: 2
#     Edge 23, Type (0, 0), BuildingBlock: CIFDUS_clean_linker_0, # of connection points: 2
#     Edge 24, Type (0, 0), BuildingBlock: CIFDUS_clean_linker_0, # of connection points: 2
#     Edge 25, Type (0, 0), BuildingBlock: CIFDUS_clean_linker_0, # of connection points: 2
#     Edge 26, Type (0, 0), BuildingBlock: CIFDUS_clean_linker_0, # of connection points: 2
#     Edge 27, Type (0, 0), BuildingBlock: CIFDUS_clean_linker_0, # of connection points: 2
#     Edge 28, Type (0, 0), BuildingBlock: CIFDUS_clean_linker_0, # of connection points: 2
#     Edge 29, Type (0, 0), BuildingBlock: CIFDUS_clean_linker_0, # of connection points: 2
#     Edge 30, Type (0, 0), BuildingBlock: CIFDUS_clean_linker_0, # of connection points: 2
#     Edge 31, Type (0, 0), BuildingBlock: CIFDUS_clean_linker_0, # of connection points: 2
#     Edge 32, Type (0, 0), BuildingBlock: CIFDUS_clean_linker_0, # of connection points: 2
#     Edge 33, Type (0, 0), BuildingBlock: CIFDUS_clean_linker_0, # of connection points: 2
#     Edge 34, Type (0, 0), BuildingBlock: CIFDUS_clean_linker_0, # of connection points: 2
#     Edge 35, Type (0, 0), BuildingBlock: CIFDUS_clean_linker_0, # of connection points: 2
#     Edge 36, Type (0, 0), BuildingBlock: CIFDUS_clean_linker_0, # of connection points: 2
#     Edge 37, Type (0, 0), BuildingBlock: CIFDUS_clean_linker_0, # of connection points: 2
#     Edge 38, Type (0, 0), BuildingBlock: CIFDUS_clean_linker_0, # of connection points: 2
#     Edge 39, Type (0, 0), BuildingBlock: CIFDUS_clean_linker_0, # of connection points: 2
#     Edge 40, Type (0, 0), BuildingBlock: CIFDUS_clean_linker_0, # of connection points: 2
#     Edge 41, Type (0, 0), BuildingBlock: CIFDUS_clean_linker_0, # of connection points: 2
#     Edge 42, Type (0, 0), BuildingBlock: CIFDUS_clean_linker_0, # of connection points: 2
#     Edge 43, Type (0, 0), BuildingBlock: CIFDUS_clean_linker_0, # of connection points: 2
#     Edge 44, Type (0, 0), BuildingBlock: CIFDUS_clean_linker_0, # of connection points: 2
#     Edge 45, Type (0, 0), BuildingBlock: CIFDUS_clean_linker_0, # of connection points: 2
#     Edge 46, Type (0, 0), BuildingBlock: CIFDUS_clean_linker_0, # of connection points: 2
#     Edge 47, Type (0, 0), BuildingBlock: CIFDUS_clean_linker_0, # of connection points: 2
#     Edge 48, Type (0, 0), BuildingBlock: CIFDUS_clean_linker_0, # of connection points: 2
#     Edge 49, Type (0, 0), BuildingBlock: CIFDUS_clean_linker_0, # of connection points: 2
#     Edge 50, Type (0, 0), BuildingBlock: CIFDUS_clean_linker_0, # of connection points: 2
#     Edge 51, Type (0, 0), BuildingBlock: CIFDUS_clean_linker_0, # of connection points: 2
#     Edge 52, Type (0, 0), BuildingBlock: CIFDUS_clean_linker_0, # of connection points: 2
#     Edge 53, Type (0, 0), BuildingBlock: CIFDUS_clean_linker_0, # of connection points: 2
#     Edge 54, Type (0, 0), BuildingBlock: CIFDUS_clean_linker_0, # of connection points: 2
#     Edge 55, Type (0, 0), BuildingBlock: CIFDUS_clean_linker_0, # of connection points: 2
# Relax obj value: 0.639
# Max RMSD: 0.292
# Mean RMSD: 0.292
data_MOF--net-bcu-j--node1-XOMCOT_clean_sbu_1--edge1-CIFDUS_clean_linker_0
_symmetry_space_group_name_H-M    P1
_symmetry_Int_Tables_number       1
_symmetry_cell_setting            triclinic
loop_
_symmetry_equiv_pos_as_xyz
'x, y, z'
_cell_length_a     39.350609
_cell_length_b     39.321845
_cell_length_c     41.617792
_cell_angle_alpha  89.871713
_cell_angle_beta   89.991072
_cell_angle_gamma 90.039517
loop_
_atom_site_label
_atom_site_type_symbol
_atom_site_fract_x
_atom_site_fract_y
_atom_site_fract_z
_atom_type_partial_charge
C0 C 0.07017 0.16272 0.56725 0.0
C1 C 0.1032 0.1515 0.56457 0.0
N2 N 0.11543 0.14638 0.59439 0.0
N3 N 0.06155 0.16347 0.5986 0.0
C4 C 0.08993 0.15418 0.61451 0.0
H5 H 0.05275 0.1673 0.54763 0.0
Co6 Co 0.0183 0.16846 0.61541 0.0
C7 C 0.01499 0.11731 0.66766 0.0
O8 O 0.98433 0.10904 0.65782 0.0
N9 N 0.97447 0.17444 0.63288 0.0
C10 C 0.91991 0.18579 0.64296 0.0
C11 C 0.94321 0.17745 0.61951 0.0
C12 C 0.96933 0.18144 0.66421 0.0
N13 N 0.93656 0.18762 0.67104 0.0
O14 O 0.0333 0.20887 0.63572 0.0
H15 H 0.93745 0.17566 0.59427 0.0
H16 H 0.98965 0.18372 0.68162 0.0
O17 O 0.03128 0.14101 0.6532 0.0
C18 C 0.02306 0.23553 0.6213 0.0
O19 O -0.00056 0.23255 0.59918 0.0
N20 N 0.00487 0.13009 0.59221 0.0
C21 C 0.99671 0.08113 0.5446 0.0
C22 C 0.01594 0.07409 0.57214 0.0
C23 C 0.0203 0.09911 0.59532 0.0
C24 C 0.98661 0.13749 0.56528 0.0
C25 C 0.9815 0.11315 0.5415 0.0
H26 H 0.0386 0.09434 0.61406 0.0
H27 H 0.97851 0.16328 0.56079 0.0
H28 H 0.09119 0.15019 0.64021 0.0
H29 H 0.11637 0.14522 0.54253 0.0
H30 H 0.89321 0.19136 0.63952 0.0
H31 H 0.0296 0.05033 0.5747 0.0
H32 H 0.96718 0.11992 0.52022 0.0
C33 C 0.3135 0.07168 0.58551 0.0
C34 C 0.32356 0.10512 0.58239 0.0
N35 N 0.3503 0.11015 0.60197 0.0
N36 N 0.33364 0.05605 0.60721 0.0
C37 C 0.35583 0.08019 0.61671 0.0
H38 H 0.29261 0.05962 0.57306 0.0
Co39 Co 0.32937 0.01176 0.62202 0.0
C40 C 0.37074 0.01057 0.68209 0.0
O41 O 0.3816 0.97973 0.67558 0.0
N42 N 0.32414 0.96705 0.63693 0.0
C43 C 0.31789 0.91098 0.64332 0.0
C44 C 0.32742 0.93651 0.62226 0.0
C45 C 0.31216 0.95944 0.66637 0.0
N46 N 0.30893 0.92583 0.67104 0.0
O47 O 0.28575 0.02318 0.63809 0.0
H48 H 0.33526 0.93276 0.59767 0.0
H49 H 0.30528 0.97835 0.6841 0.0
O50 O 0.35012 0.02538 0.66289 0.0
C51 C 0.26179 0.01254 0.62021 0.0
O52 O 0.26911 0.99065 0.59741 0.0
N53 N 0.37088 0.0014 0.60295 0.0
C54 C 0.42477 0.99709 0.56014 0.0
C55 C 0.42996 0.00926 0.59131 0.0
C56 C 0.40253 0.01189 0.6122 0.0
C57 C 0.36569 0.98871 0.57294 0.0
C58 C 0.39236 0.98601 0.55116 0.0
H59 H 0.40679 0.02505 0.6344 0.0
H60 H 0.34015 0.98263 0.56522 0.0
H61 H 0.37531 0.07632 0.63466 0.0
H62 H 0.31241 0.12412 0.56676 0.0
H63 H 0.31721 0.88393 0.63862 0.0
H64 H 0.45444 0.01922 0.59863 0.0
H65 H 0.38738 0.97689 0.52707 0.0
C66 C 0.44284 0.33848 0.56487 0.0
C67 C 0.40995 0.34941 0.56029 0.0
N68 N 0.39456 0.35089 0.58917 0.0
N69 N 0.44822 0.33393 0.59658 0.0
C70 C 0.41802 0.34063 0.61058 0.0
H71 H 0.46234 0.3368 0.54664 0.0
Co72 Co 0.49009 0.32918 0.61659 0.0
C73 C 0.47229 0.34161 0.68401 0.0
O74 O 0.4877 0.31339 0.69254 0.0
N75 N 0.53292 0.3248 0.63698 0.0
C76 C 0.58103 0.33729 0.6627 0.0
C77 C 0.55516 0.34997 0.64408 0.0
C78 C 0.54628 0.29709 0.65142 0.0
N79 N 0.57519 0.30399 0.66768 0.0
O80 O 0.47523 0.28618 0.63185 0.0
H81 H 0.55196 0.3765 0.63802 0.0
H82 H 0.53331 0.27298 0.65292 0.0
O83 O 0.4723 0.35095 0.65468 0.0
C84 C 0.48178 0.261 0.6138 0.0
O85 O 0.50217 0.26519 0.58912 0.0
N86 N 0.50323 0.37034 0.59895 0.0
C87 C 0.5155 0.42582 0.55947 0.0
C88 C 0.49487 0.42914 0.58677 0.0
C89 C 0.48875 0.40091 0.60616 0.0
C90 C 0.52474 0.36704 0.57354 0.0
C91 C 0.53142 0.3946 0.55349 0.0
H92 H 0.47083 0.40331 0.62565 0.0
H93 H 0.53517 0.34233 0.56785 0.0
H94 H 0.41395 0.34094 0.63625 0.0
H95 H 0.39894 0.35789 0.53782 0.0
H96 H 0.60124 0.35205 0.67348 0.0
H97 H 0.48232 0.45294 0.59225 0.0
H98 H 0.54709 0.39088 0.53239 0.0
C99 C 0.16231 0.42917 0.56171 0.0
C100 C 0.15406 0.39552 0.55688 0.0
N101 N 0.15658 0.37905 0.58519 0.0
N102 N 0.16878 0.43391 0.59319 0.0
C103 C 0.16627 0.40273 0.60652 0.0
H104 H 0.15994 0.44942 0.54423 0.0
Co105 Co 0.16969 0.47494 0.6153 0.0
C106 C 0.15169 0.45322 0.68203 0.0
O107 O 0.17478 0.47246 0.69577 0.0
N108 N 0.17029 0.51629 0.63776 0.0
C109 C 0.15478 0.55907 0.66947 0.0
C110 C 0.14339 0.53258 0.6508 0.0
C111 C 0.19754 0.53385 0.64827 0.0
N112 N 0.18893 0.55967 0.66794 0.0
O113 O 0.21384 0.46315 0.63021 0.0
H114 H 0.11727 0.52429 0.64888 0.0
H115 H 0.22349 0.52598 0.64432 0.0
O116 O 0.1485 0.45319 0.65163 0.0
C117 C 0.23507 0.47122 0.60837 0.0
O118 O 0.22433 0.48993 0.5842 0.0
N119 N 0.1277 0.4857 0.59795 0.0
C120 C 0.07379 0.49233 0.55572 0.0
C121 C 0.07161 0.46984 0.58178 0.0
C122 C 0.09907 0.46667 0.60262 0.0
C123 C 0.12923 0.50955 0.57425 0.0
C124 C 0.1024 0.51334 0.55275 0.0
H125 H 0.09822 0.44687 0.62059 0.0
H126 H 0.15245 0.52377 0.57057 0.0
H127 H 0.16757 0.39796 0.63209 0.0
H128 H 0.14335 0.38485 0.53515 0.0
H129 H 0.13933 0.57492 0.68488 0.0
H130 H 0.0501 0.45286 0.58452 0.0
H131 H 0.10479 0.53114 0.53298 0.0
C132 C 0.05207 0.33602 0.92768 0.0
C133 C 0.08378 0.3473 0.93684 0.0
N134 N 0.10039 0.3582 0.91039 0.0
N135 N 0.04869 0.34 0.89567 0.0
C136 C 0.07871 0.35295 0.88585 0.0
H137 H 0.03214 0.3271 0.94349 0.0
Co138 Co 0.00899 0.33471 0.87194 0.0
C139 C 0.03362 0.35394 0.8075 0.0
O140 O 0.02211 0.32538 0.7953 0.0
N141 N 0.9686 0.32985 0.84804 0.0
C142 C 0.92163 0.34133 0.8202 0.0
C143 C 0.94563 0.35426 0.84076 0.0
C144 C 0.95772 0.30232 0.83166 0.0
N145 N 0.92944 0.30865 0.8142 0.0
O146 O 0.0272 0.29357 0.85494 0.0
H147 H 0.94689 0.38044 0.84847 0.0
H148 H 0.97175 0.27877 0.83045 0.0
O149 O 0.02871 0.36055 0.83707 0.0
C150 C 0.02414 0.26912 0.87481 0.0
O151 O 0.00626 0.27417 0.90105 0.0
N152 N 0.99211 0.37341 0.89137 0.0
C153 C 0.97427 0.42451 0.93387 0.0
C154 C 0.99497 0.43167 0.90724 0.0
C155 C 0.00395 0.4056 0.88635 0.0
C156 C 0.97033 0.3664 0.91591 0.0
C157 C 0.96092 0.3917 0.9375 0.0
H158 H 0.02183 0.41112 0.86741 0.0
H159 H 0.9619 0.34052 0.91978 0.0
H160 H 0.08402 0.36034 0.86139 0.0
H161 H 0.09331 0.34846 0.9612 0.0
H162 H 0.90109 0.35551 0.80928 0.0
H163 H 0.00545 0.45684 0.90346 0.0
H164 H 0.9452 0.38508 0.95795 0.0
C165 C 0.16883 0.05956 0.90714 0.0
C166 C 0.15682 0.09094 0.91617 0.0
N167 N 0.13667 0.10284 0.89251 0.0
N168 N 0.15624 0.05172 0.87799 0.0
C169 C 0.13699 0.07873 0.86952 0.0
H170 H 0.18432 0.04275 0.92159 0.0
Co171 Co 0.16039 0.00937 0.85908 0.0
C172 C 0.12851 0.01573 0.79473 0.0
O173 O 0.11843 0.98393 0.79634 0.0
N174 N 0.16515 0.96568 0.84065 0.0
C175 C 0.15964 0.91138 0.82559 0.0
C176 C 0.14709 0.93664 0.8452 0.0
C177 C 0.18869 0.95707 0.81855 0.0
N178 N 0.18603 0.92442 0.80934 0.0
O179 O 0.20637 0.02012 0.84921 0.0
H180 H 0.12549 0.93378 0.86094 0.0
H181 H 0.20683 0.97471 0.80831 0.0
O182 O 0.1456 0.02851 0.81787 0.0
C183 C 0.22689 0.00801 0.86992 0.0
O184 O 0.21492 0.98696 0.89176 0.0
N185 N 0.11643 -0.00024 0.87243 0.0
C186 C 0.05929 -0.00154 0.91131 0.0
C187 C 0.05758 0.01271 0.88049 0.0
C188 C 0.08673 0.01355 0.86144 0.0
C189 C 0.11784 0.98419 0.90162 0.0
C190 C 0.08942 0.98282 0.92132 0.0
H191 H 0.08577 0.02814 0.83957 0.0
H192 H 0.1419 0.9747 0.91044 0.0
H193 H 0.12155 0.07976 0.84804 0.0
H194 H 0.16152 0.10346 0.93887 0.0
H195 H 0.15007 0.88569 0.82323 0.0
H196 H 0.03487 0.02567 0.87235 0.0
H197 H 0.09159 0.97149 0.94499 0.0
C198 C 0.44202 0.13237 0.91251 0.0
C199 C 0.40981 0.11917 0.91588 0.0
N200 N 0.39646 0.11514 0.88634 0.0
N201 N 0.44901 0.13599 0.88097 0.0
C202 C 0.4205 0.12592 0.86567 0.0
H203 H 0.45978 0.13758 0.93171 0.0
Co204 Co 0.49079 0.14765 0.8634 0.0
C205 C 0.49486 0.10382 0.80529 0.0
O206 O 0.52674 0.09653 0.81177 0.0
N207 N 0.53294 0.16034 0.84571 0.0
C208 C 0.58589 0.17844 0.83669 0.0
C209 C 0.56349 0.16649 0.85954 0.0
C210 C 0.53737 0.16961 0.81477 0.0
N211 N 0.56934 0.17972 0.80854 0.0
O212 O 0.47139 0.18862 0.84774 0.0
H213 H 0.56926 0.16418 0.88474 0.0
H214 H 0.51705 0.17044 0.79725 0.0
O215 O 0.47845 0.12401 0.82366 0.0
C216 C 0.47283 0.21083 0.86988 0.0
O217 O 0.48928 0.20311 0.89641 0.0
N218 N 0.50905 0.10839 0.88188 0.0
C219 C 0.52289 0.05628 0.92519 0.0
C220 C 0.5051 0.04957 0.89679 0.0
C221 C 0.4977 0.07615 0.87578 0.0
C222 C 0.52678 0.11506 0.90924 0.0
C223 C 0.5347 0.08928 0.93087 0.0
H224 H 0.47991 0.07113 0.8567 0.0
H225 H 0.5316 0.14104 0.91617 0.0
H226 H 0.41788 0.12476 0.83985 0.0
H227 H 0.39749 0.11224 0.93822 0.0
H228 H 0.61187 0.1865 0.84058 0.0
H229 H 0.49419 0.02471 0.89233 0.0
H230 H 0.5477 0.09562 0.95302 0.0
C231 C 0.33374 0.42234 0.91278 0.0
C232 C 0.34621 0.39118 0.9221 0.0
N233 N 0.36312 0.3776 0.89707 0.0
N234 N 0.34261 0.42833 0.882 0.0
C235 C 0.36039 0.40055 0.87312 0.0
H236 H 0.32045 0.44017 0.928 0.0
Co237 Co 0.33638 0.46914 0.86023 0.0
C238 C 0.34449 0.44995 0.79202 0.0
O239 O 0.31673 0.46634 0.7838 0.0
N240 N 0.33044 0.51091 0.83882 0.0
C241 C 0.3399 0.55749 0.80964 0.0
C242 C 0.35481 0.53108 0.82606 0.0
C243 C 0.30102 0.52601 0.83018 0.0
N244 N 0.30596 0.5541 0.81206 0.0
O245 O 0.29171 0.45449 0.84926 0.0
H246 H 0.38178 0.52608 0.82693 0.0
H247 H 0.27626 0.51513 0.83458 0.0
O248 O 0.35398 0.44938 0.82128 0.0
C249 C 0.27003 0.45962 0.87142 0.0
O250 O 0.27883 0.47878 0.89589 0.0
N251 N 0.37923 0.48229 0.87351 0.0
C252 C 0.43835 0.49104 0.90869 0.0
C253 C 0.43936 0.47524 0.87854 0.0
C254 C 0.40935 0.47085 0.86131 0.0
C255 C 0.37814 0.49996 0.90149 0.0
C256 C 0.40747 0.50464 0.91958 0.0
H257 H 0.41038 0.45662 0.83923 0.0
H258 H 0.35388 0.50819 0.91091 0.0
H259 H 0.37301 0.39801 0.8503 0.0
H260 H 0.34386 0.37991 0.94574 0.0
H261 H 0.35301 0.57644 0.79537 0.0
H262 H 0.4628 0.46482 0.86913 0.0
H263 H 0.40537 0.51655 0.94293 0.0
C264 C 0.92216 0.83989 0.413 0.0
C265 C 0.89048 0.85292 0.41937 0.0
N266 N 0.87703 0.86413 0.39154 0.0
N267 N 0.92866 0.84304 0.38135 0.0
C268 C 0.90053 0.85756 0.36881 0.0
H269 H 0.93992 0.82995 0.43048 0.0
Co270 Co 0.97015 0.83272 0.36274 0.0
C271 C 0.9708 0.87466 0.3032 0.0
O272 O 0.00219 0.88409 0.30895 0.0
N273 N 0.01308 0.82136 0.34446 0.0
C274 C 0.06717 0.81997 0.32769 0.0
C275 C 0.04312 0.8384 0.34425 0.0
C276 C 0.02009 0.79245 0.32829 0.0
N277 N 0.05253 0.79088 0.31825 0.0
O278 O 0.95116 0.79083 0.34896 0.0
H279 H 0.04738 0.86335 0.35427 0.0
H280 H 0.00158 0.77315 0.32245 0.0
O281 O 0.9558 0.85424 0.32245 0.0
C282 C 0.95347 0.76884 0.37132 0.0
O283 O 0.97051 0.77687 0.39739 0.0
N284 N 0.98719 0.87281 0.37978 0.0
C285 C -0.00144 0.9246 0.4237 0.0
C286 C 0.97893 0.93053 0.39614 0.0
C287 C 0.97316 0.90411 0.3746 0.0
C288 C 0.00739 0.86703 0.40578 0.0
C289 C 0.01399 0.89278 0.42775 0.0
H290 H 0.95471 0.90806 0.3558 0.0
H291 H 0.01663 0.84161 0.41055 0.0
H292 H 0.89797 0.86498 0.34389 0.0
H293 H 0.87863 0.85477 0.44278 0.0
H294 H 0.09301 0.8276 0.32239 0.0
H295 H 0.96572 0.95441 0.39264 0.0
H296 H 0.02937 0.88722 0.44869 0.0
C297 C 0.63252 0.96028 0.42943 0.0
C298 C 0.61461 0.9312 0.43641 0.0
N299 N 0.60449 0.91709 0.40852 0.0
N300 N 0.63362 0.96455 0.39734 0.0
C301 C 0.6165 0.9377 0.38517 0.0
H302 H 0.64339 0.97773 0.44665 0.0
Co303 Co 0.65251 0.00249 0.37792 0.0
C304 C 0.62731 0.00217 0.31081 0.0
O305 O 0.62712 0.03556 0.3105 0.0
N306 N 0.67253 0.04147 0.35919 0.0
C307 C 0.68729 0.09378 0.34334 0.0
C308 C 0.66439 0.07494 0.36098 0.0
C309 C 0.7005 0.04093 0.34044 0.0
N310 N 0.71013 0.07218 0.33092 0.0
O311 O 0.69386 0.97816 0.3735 0.0
H312 H 0.64288 0.08546 0.37354 0.0
H313 H 0.71316 0.01792 0.33281 0.0
O314 O 0.63756 0.98635 0.33585 0.0
C315 C 0.71372 0.98227 0.39729 0.0
O316 O 0.7045 0.00318 0.42029 0.0
N317 N 0.61206 0.02531 0.38553 0.0
C318 C 0.55363 0.04025 0.41962 0.0
C319 C 0.55139 0.02424 0.38972 0.0
C320 C 0.58113 0.01644 0.37314 0.0
C321 C 0.61425 0.04351 0.41324 0.0
C322 C 0.58522 0.05185 0.43044 0.0
H323 H 0.579 -0.00037 0.35286 0.0
H324 H 0.63894 0.04864 0.42361 0.0
H325 H 0.61172 0.93392 0.35985 0.0
H326 H 0.60934 0.92129 0.46017 0.0
H327 H 0.68713 0.12106 0.33979 0.0
H328 H 0.52742 0.01412 0.38119 0.0
H329 H 0.58778 0.06398 0.45366 0.0
C330 C 0.57033 0.67338 0.41596 0.0
C331 C 0.6012 0.6583 0.42206 0.0
N332 N 0.60926 0.63858 0.39676 0.0
N333 N 0.55895 0.66296 0.38709 0.0
C334 C 0.58345 0.6421 0.37578 0.0
H335 H 0.55603 0.68917 0.43235 0.0
Co336 Co 0.51522 0.67029 0.37236 0.0
C337 C 0.51189 0.62979 0.31195 0.0
O338 O 0.48105 0.61936 0.31911 0.0
N339 N 0.47062 0.67856 0.35815 0.0
C340 C 0.41564 0.69228 0.35536 0.0
C341 C 0.44116 0.68019 0.37494 0.0
C342 C 0.4623 0.69019 0.32872 0.0
N343 N 0.42912 0.698 0.32624 0.0
O344 O 0.52875 0.71389 0.35697 0.0
H345 H 0.4383 0.67508 0.40023 0.0
H346 H 0.48071 0.69487 0.30987 0.0
O347 O 0.52744 0.65003 0.33092 0.0
C348 C 0.52124 0.73701 0.37709 0.0
O349 O 0.50362 0.7284 0.40269 0.0
N350 N 0.50272 0.62868 0.39051 0.0
C351 C 0.49204 0.57326 0.43076 0.0
C352 C 0.50797 0.56892 0.401 0.0
C353 C 0.51351 0.5971 0.38132 0.0
C354 C 0.4881 0.63321 0.41984 0.0
C355 C 0.48162 0.60574 0.44001 0.0
H356 H 0.52865 0.59348 0.36008 0.0
H357 H 0.48341 0.65865 0.42853 0.0
H358 H 0.58127 0.62745 0.35391 0.0
H359 H 0.6158 0.66033 0.44402 0.0
H360 H 0.3897 0.69781 0.36225 0.0
H361 H 0.51741 0.54424 0.3937 0.0
H362 H 0.47069 0.61019 0.46353 0.0
C363 C 0.82146 0.55297 0.41459 0.0
C364 C 0.83208 0.58504 0.42301 0.0
N365 N 0.85131 0.59747 0.39889 0.0
N366 N 0.83405 0.54526 0.38542 0.0
C367 C 0.85191 0.57296 0.37632 0.0
H368 H 0.80636 0.53589 0.42917 0.0
Co369 Co 0.82906 0.50335 0.36608 0.0
C370 C 0.87779 0.50363 0.31173 0.0
O371 O 0.88611 0.47212 0.31885 0.0
N372 N 0.82269 0.46062 0.34691 0.0
C373 C 0.8095 0.40653 0.33669 0.0
C374 C 0.82022 0.42909 0.35986 0.0
C375 C 0.81324 0.4564 0.31603 0.0
N376 N 0.80559 0.42389 0.30914 0.0
O377 O 0.78831 0.51933 0.3468 0.0
H378 H 0.82369 0.42274 0.38483 0.0
H379 H 0.80976 0.47728 0.29933 0.0
O380 O 0.85529 0.51892 0.32855 0.0
C381 C 0.76293 0.51326 0.36485 0.0
O382 O 0.76732 0.49288 0.38958 0.0
N383 N 0.8678 0.48883 0.38811 0.0
C384 C 0.91732 0.47964 0.43525 0.0
C385 C 0.9244 0.49838 0.40734 0.0
C386 C 0.89923 0.50308 0.38432 0.0
C387 C 0.8604 0.47084 0.41524 0.0
C388 C 0.88501 0.46508 0.43868 0.0
H389 H 0.90442 0.52093 0.3653 0.0
H390 H 0.8345 0.46327 0.42003 0.0
H391 H 0.86657 0.57458 0.3544 0.0
H392 H 0.82659 0.59795 0.44535 0.0
H393 H 0.80335 0.37994 0.34017 0.0
H394 H 0.94832 0.51163 0.40431 0.0
H395 H 0.87815 0.45086 0.46003 0.0
C396 C 0.89816 0.6775 0.09166 0.0
C397 C 0.86503 0.66605 0.09217 0.0
N398 N 0.86265 0.64146 0.11463 0.0
N399 N 0.91629 0.66037 0.11393 0.0
C400 C 0.89391 0.63855 0.12739 0.0
H401 H 0.90832 0.69711 0.07615 0.0
Co402 Co 0.96173 0.66681 0.12428 0.0
C403 C 0.96896 0.62624 0.18491 0.0
O404 O -0.00101 0.61481 0.17628 0.0
N405 N 0.00768 0.67415 0.13463 0.0
C406 C 0.06286 0.68749 0.13342 0.0
C407 C 0.03564 0.67584 0.11568 0.0
C408 C 0.01858 0.68525 0.16344 0.0
N409 N 0.05192 0.69281 0.16352 0.0
O410 O 0.95079 0.71077 0.14028 0.0
H411 H 0.03622 0.67112 0.09018 0.0
H412 H 0.00185 0.68989 0.18362 0.0
O413 O 0.95301 0.64689 0.16662 0.0
C414 C 0.95689 0.7329 0.11866 0.0
O415 O 0.97211 0.72287 0.0922 0.0
N416 N 0.97173 0.62509 0.10538 0.0
C417 C 0.9833 0.56998 0.06534 0.0
C418 C 0.96907 0.56502 0.0958 0.0
C419 C 0.96317 0.59309 0.1155 0.0
C420 C 0.98382 0.63018 0.07512 0.0
C421 C 0.99071 0.60296 0.05498 0.0
H422 H 0.95026 0.58886 0.13794 0.0
H423 H 0.98707 0.6558 0.06618 0.0
H424 H 0.90006 0.62105 0.14658 0.0
H425 H 0.84448 0.6747 0.07693 0.0
H426 H 0.08818 0.69299 0.12465 0.0
H427 H 0.96194 0.53983 0.10397 0.0
H428 H 0.00032 0.60774 0.03099 0.0
C429 C 0.83911 0.95497 0.07017 0.0
C430 C 0.85084 0.92312 0.06234 0.0
N431 N 0.86838 0.91083 0.08762 0.0
N432 N 0.84937 0.96269 0.10015 0.0
C433 C 0.86697 0.93522 0.11028 0.0
H434 H 0.82479 0.97187 0.05476 0.0
Co435 Co 0.84224 0.00435 0.11931 0.0
C436 C 0.88413 0.00294 0.17858 0.0
O437 O 0.89283 0.03475 0.17326 0.0
N438 N 0.83394 0.04686 0.13822 0.0
C439 C 0.82289 0.10128 0.14916 0.0
C440 C 0.83494 0.07895 0.12634 0.0
C441 C 0.82088 0.05045 0.16792 0.0
N442 N 0.81455 0.0831 0.17534 0.0
O443 O 0.79935 0.98849 0.13393 0.0
H444 H 0.84263 0.08603 0.10239 0.0
H445 H 0.81497 0.0292 0.18355 0.0
O446 O 0.864 0.98799 0.15903 0.0
C447 C 0.77591 -0.00182 0.11496 0.0
O448 O 0.78379 0.01963 0.09185 0.0
N449 N 0.88303 0.01921 0.10157 0.0
C450 C 0.93628 0.03031 0.05901 0.0
C451 C 0.94183 0.01288 0.0879 0.0
C452 C 0.91464 0.00685 0.10857 0.0
C453 C 0.87746 0.03656 0.07372 0.0
C454 C 0.90383 0.04298 0.05234 0.0
H455 H 0.91875 0.98963 0.12832 0.0
H456 H 0.85179 0.04315 0.06687 0.0
H457 H 0.87991 0.9336 0.13315 0.0
H458 H 0.84713 0.91018 0.03967 0.0
H459 H 0.81988 0.12851 0.14655 0.0
H460 H 0.96624 0.00141 0.09314 0.0
H461 H 0.89845 0.0559 0.02989 0.0
C462 C 0.57278 0.8537 0.08608 0.0
C463 C 0.60438 0.86791 0.08189 0.0
N464 N 0.61729 0.8749 0.11109 0.0
N465 N 0.56572 0.85221 0.11774 0.0
C466 C 0.59359 0.86487 0.13244 0.0
H467 H 0.55515 0.84684 0.06723 0.0
Co468 Co 0.52321 0.84147 0.1341 0.0
C469 C 0.52216 0.8784 0.19651 0.0
O470 O 0.49128 0.88971 0.19134 0.0
N471 N 0.47936 0.83 0.15001 0.0
C472 C 0.4248 0.82942 0.16519 0.0
C473 C 0.4501 0.84826 0.1508 0.0
C474 C 0.47063 0.80002 0.16358 0.0
N475 N 0.43786 0.79895 0.17274 0.0
O476 O 0.54046 0.79828 0.14606 0.0
H477 H 0.44727 0.87425 0.1428 0.0
H478 H 0.48822 0.77959 0.16847 0.0
O479 O 0.53652 0.85926 0.17589 0.0
C480 C 0.54042 0.77763 0.1226 0.0
O481 O 0.52705 0.78748 0.09518 0.0
N482 N 0.5079 0.88326 0.11925 0.0
C483 C 0.49969 0.93849 0.0786 0.0
C484 C 0.51761 0.94209 0.10743 0.0
C485 C 0.52199 0.91386 0.12728 0.0
C486 C 0.48892 0.87992 0.09209 0.0
C487 C 0.48409 0.9074 0.07157 0.0
H488 H 0.53958 0.91598 0.14702 0.0
H489 H 0.47962 0.85509 0.08518 0.0
H490 H 0.59561 0.86915 0.15803 0.0
H491 H 0.61631 0.87412 0.05918 0.0
H492 H 0.39925 0.83781 0.17064 0.0
H493 H 0.53082 0.96552 0.11304 0.0
H494 H 0.47029 0.90375 0.04931 0.0
C495 C 0.66979 0.55879 0.08958 0.0
C496 C 0.66216 0.59185 0.0816 0.0
N497 N 0.63792 0.60293 0.10189 0.0
N498 N 0.65034 0.5492 0.11463 0.0
C499 C 0.63129 0.57666 0.12177 0.0
H500 H 0.68783 0.54245 0.07755 0.0
Co501 Co 0.65025 0.50588 0.13126 0.0
C502 C 0.60105 0.50605 0.18538 0.0
O503 O 0.5918 0.47491 0.178 0.0
N504 N 0.6515 0.46134 0.14745 0.0
C505 C 0.65921 0.4054 0.15204 0.0
C506 C 0.64832 0.43121 0.13209 0.0
C507 C 0.6637 0.453 0.17667 0.0
N508 N 0.66859 0.41935 0.18007 0.0
O509 O 0.69078 0.51711 0.15357 0.0
H510 H 0.64151 0.42805 0.10719 0.0
H511 H 0.67201 0.47157 0.19417 0.0
O512 O 0.6237 0.52109 0.16848 0.0
C513 C 0.71901 0.5056 0.14349 0.0
O514 O 0.71904 0.48058 0.12263 0.0
N515 N 0.61191 0.49668 0.10656 0.0
C516 C 0.56583 0.49847 0.05598 0.0
C517 C 0.55662 0.51055 0.08637 0.0
C518 C 0.58025 0.51006 0.11123 0.0
C519 C 0.6209 0.48402 0.07733 0.0
C520 C 0.5981 0.48422 0.05177 0.0
H521 H 0.57361 0.5233 0.13289 0.0
H522 H 0.64685 0.47608 0.07321 0.0
H523 H 0.61186 0.577 0.14015 0.0
H524 H 0.67326 0.60648 0.06218 0.0
H525 H 0.663 0.37905 0.14545 0.0
H526 H 0.53196 0.52198 0.09047 0.0
H527 H 0.60648 0.47542 0.02843 0.0
H528 H 0.07528 0.12905 0.69881 0.0
H529 H 0.9936 0.05615 0.69026 0.0
H530 H 0.02259 0.01794 0.7271 0.0
H531 H 0.07063 0.00484 0.76168 0.0
H532 H 0.15121 0.07806 0.77395 0.0
H533 H 0.12334 0.11637 0.73549 0.0
C534 C 0.06383 0.10484 0.70511 0.0
C535 C 0.03229 0.09553 0.69169 0.0
C536 C 0.08054 0.08291 0.72674 0.0
C537 C 0.01772 0.06414 0.70026 0.0
C538 C 0.03436 0.04211 0.72125 0.0
C539 C 0.08238 0.02901 0.75573 0.0
C540 C 0.1132 0.03839 0.77027 0.0
C541 C 0.06578 0.05115 0.7345 0.0
C542 C 0.1276 0.07016 0.76284 0.0
C543 C 0.11162 0.09209 0.74096 0.0
H544 H 0.43382 2e-05 0.70568 0.0
H545 H 0.34773 0.06741 0.71288 0.0
H546 H 0.37879 0.10288 0.75134 0.0
H547 H 0.43083 0.11488 0.7823 0.0
H548 H 0.51747 0.04829 0.77268 0.0
H549 H 0.48593 0.01274 0.73523 0.0
C550 C 0.42167 0.02225 0.71594 0.0
C551 C 0.38837 0.03084 0.70685 0.0
C552 C 0.43996 0.04293 0.7372 0.0
C553 C 0.37328 0.06017 0.71975 0.0
C554 C 0.39107 0.0805 0.74159 0.0
C555 C 0.44282 0.09261 0.77199 0.0
C556 C 0.47643 0.0842 0.78048 0.0
C557 C 0.42452 0.07221 0.75035 0.0
C558 C 0.4917 0.05547 0.76657 0.0
C559 C 0.47361 0.03497 0.74526 0.0
H560 H 0.39811 0.40781 0.80212 0.0
H561 H 0.33851 0.45345 0.72643 0.0
H562 H 0.3741 0.42542 0.68619 0.0
H563 H 0.42193 0.3877 0.6728 0.0
H564 H 0.47816 0.33887 0.74911 0.0
H565 H 0.44401 0.36875 0.78905 0.0
C566 C 0.39261 0.41159 0.77692 0.0
C567 C 0.36552 0.43267 0.76743 0.0
C568 C 0.41273 0.39499 0.75405 0.0
C569 C 0.35911 0.43728 0.73447 0.0
C570 C 0.37951 0.42134 0.71144 0.0
C571 C 0.42677 0.3836 0.69815 0.0
C572 C 0.45259 0.36106 0.70797 0.0
C573 C 0.40639 0.40013 0.721 0.0
C574 C 0.45844 0.35603 0.74093 0.0
C575 C 0.43891 0.37308 0.76377 0.0
H576 H 0.04726 0.34986 0.74347 0.0
H577 H 0.06954 0.40953 0.82788 0.0
H578 H 0.10885 0.44455 0.79704 0.0
H579 H 0.13757 0.45819 0.74604 0.0
H580 H 0.11318 0.39997 0.66126 0.0
H581 H 0.07436 0.36465 0.69223 0.0
C582 C 0.06056 0.37062 0.75512 0.0
C583 C 0.0555 0.37678 0.78803 0.0
C584 C 0.083 0.39098 0.73716 0.0
C585 C 0.07289 0.404 0.80261 0.0
C586 C 0.09551 0.4241 0.785 0.0
C587 C 0.12387 0.43768 0.73441 0.0
C588 C 0.12856 0.43167 0.70143 0.0
C589 C 0.10094 0.41772 0.75228 0.0
C590 C 0.11022 0.40522 0.68662 0.0
C591 C 0.08789 0.38495 0.70432 0.0
H592 H 0.98216 0.93826 0.28153 0.0
H593 H 0.91413 0.85308 0.27069 0.0
H594 H 0.8808 0.88519 0.23102 0.0
H595 H 0.87131 0.93793 0.19945 0.0
H596 H 0.93832 0.02363 0.21394 0.0
H597 H 0.97144 0.99095 0.25238 0.0
C598 C 0.9602 0.92655 0.2703 0.0
C599 C 0.95091 0.89317 0.2786 0.0
C600 C 0.94077 0.94542 0.24839 0.0
C601 C 0.9219 0.87869 0.26445 0.0
C602 C 0.90284 0.89707 0.24187 0.0
C603 C 0.89305 0.94947 0.21115 0.0
C604 C 0.9023 0.98322 0.20365 0.0
C605 C 0.91201 0.93055 0.23368 0.0
C606 C 0.93047 -0.0022 0.2192 0.0
C607 C 0.9496 0.97907 0.24115 0.0
H608 H 0.62614 0.93358 0.29964 0.0
H609 H 0.5843 0.02889 0.26632 0.0
H610 H 0.54693 -0.00134 0.22964 0.0
H611 H 0.5248 0.94541 0.20785 0.0
H612 H 0.56875 0.84998 0.23716 0.0
H613 H 0.60621 0.87984 0.27504 0.0
C614 C 0.609 0.94771 0.28419 0.0
C615 C 0.60795 0.98348 0.28594 0.0
C616 C 0.58758 0.93012 0.26282 0.0
C617 C 0.58582 0.0014 0.2655 0.0
C618 C 0.56419 0.98413 0.24462 0.0
C619 C 0.54234 0.93117 0.22284 0.0
C620 C 0.54359 0.89561 0.22048 0.0
C621 C 0.56454 0.94855 0.24339 0.0
C622 C 0.56714 0.8774 0.23908 0.0
C623 C 0.58861 0.89447 0.26053 0.0
H624 H 0.49908 0.56793 0.28645 0.0
H625 H 0.56859 0.65254 0.28042 0.0
H626 H 0.60246 0.62195 0.24038 0.0
H627 H 0.61288 0.57032 0.20804 0.0
H628 H 0.54437 0.48494 0.21716 0.0
H629 H 0.50984 0.51658 0.25523 0.0
C630 C 0.52142 0.57988 0.27612 0.0
C631 C 0.53111 0.61259 0.28611 0.0
C632 C 0.54121 0.56181 0.25393 0.0
C633 C 0.56052 0.62742 0.27297 0.0
C634 C 0.57994 0.60989 0.25018 0.0
C635 C 0.59045 0.55862 0.21843 0.0
C636 C 0.58132 0.52524 0.20967 0.0
C637 C 0.57069 0.57691 0.24068 0.0
C638 C 0.55217 0.51049 0.22345 0.0
C639 C 0.53225 0.52862 0.24519 0.0
H640 H 0.86834 0.56881 0.29026 0.0
H641 H 0.93324 0.48109 0.27898 0.0
H642 H 0.96848 0.51221 0.24091 0.0
H643 H 0.98058 0.56373 0.20996 0.0
H644 H 0.91459 0.65076 0.2185 0.0
H645 H 0.88046 0.62074 0.25882 0.0
C646 C 0.89015 0.55649 0.27943 0.0
C647 C 0.89802 0.52259 0.28753 0.0
C648 C 0.91035 0.57451 0.25725 0.0
C649 C 0.9264 0.50706 0.27318 0.0
C650 C 0.94673 0.52489 0.25145 0.0
C651 C 0.95902 0.57633 0.22096 0.0
C652 C 0.95034 0.60954 0.21151 0.0
C653 C 0.93898 0.55859 0.24332 0.0
C654 C 0.92189 0.62524 0.22552 0.0
C655 C 0.90229 0.60804 0.24845 0.0
H656 H 0.00536 0.99321 0.41847 0.0
H657 H 0.99182 0.91246 0.4878 0.0
H658 H 0.98899 0.95388 0.5311 0.0
H659 H 0.98909 0.01289 0.5492 0.0
H660 H 0.00301 0.09389 0.48027 0.0
H661 H 0.00545 0.05254 0.43671 0.0
C662 C 0.00175 0.98474 0.44306 0.0
C663 C -0.00082 0.94986 0.44993 0.0
C664 C -0.00045 0.0087 0.46783 0.0
C665 C 0.9947 0.93916 0.48193 0.0
C666 C 0.99265 0.96281 0.50668 0.0
C667 C 0.99277 0.02147 0.52465 0.0
C668 C 0.99571 0.05634 0.51797 0.0
C669 C 0.9949 -0.00239 0.49988 0.0
C670 C 3e-05 0.06718 0.486 0.0
C671 C 0.00183 0.04355 0.46112 0.0
H672 H 0.55734 0.01189 0.47782 0.0
H673 H 0.48698 0.05861 0.41173 0.0
H674 H 0.44003 0.04753 0.44924 0.0
H675 H 0.41979 0.02497 0.50101 0.0
H676 H 0.49076 0.97769 0.56629 0.0
H677 H 0.53721 0.98859 0.52863 0.0
C678 C 0.5318 0.02025 0.47193 0.0
C679 C 0.52548 0.03677 0.44261 0.0
C680 C 0.50527 0.01331 0.49316 0.0
C681 C 0.49224 0.04633 0.43452 0.0
C682 C 0.46555 0.03984 0.45581 0.0
C683 C 0.44535 0.01655 0.50667 0.0
C684 C 0.45202 0.00036 0.53614 0.0
C685 C 0.47182 0.02322 0.48512 0.0
C686 C 0.48524 0.99018 0.54366 0.0
C687 C 0.51169 0.99649 0.52225 0.0
H688 H 0.46341 0.46404 0.5376 0.0
H689 H 0.57138 0.44856 0.52674 0.0
H690 H 0.57308 0.49161 0.48424 0.0
H691 H 0.54384 0.53397 0.45079 0.0
H692 H 0.4364 0.55086 0.46323 0.0
H693 H 0.43442 0.5068 0.5049 0.0
C694 C 0.48743 0.47051 0.52634 0.0
C695 C 0.51729 0.45343 0.53542 0.0
C696 C 0.48819 0.4952 0.50214 0.0
C697 C 0.54807 0.46138 0.52004 0.0
C698 C 0.54905 0.48593 0.4958 0.0
C699 C 0.51996 0.52757 0.46238 0.0
C700 C 0.49021 0.54507 0.45393 0.0
C701 C 0.51924 0.50286 0.4866 0.0
C702 C 0.4595 0.53738 0.46944 0.0
C703 C 0.45842 0.51238 0.49322 0.0
H704 H 0.98607 0.47543 0.43075 0.0
H705 H 0.90461 0.48316 0.49997 0.0
H706 H 0.94583 0.48733 0.5434 0.0
H707 H 0.00512 0.49171 0.56155 0.0
H708 H 0.08612 0.48784 0.49178 0.0
H709 H 0.04485 0.48086 0.44856 0.0
C710 C 0.97725 0.47826 0.45529 0.0
C711 C 0.94226 0.47891 0.46195 0.0
C712 C 0.001 0.48211 0.48001 0.0
C713 C 0.93137 0.48187 0.49405 0.0
C714 C 0.95492 0.48475 0.51894 0.0
C715 C 0.0136 0.48941 0.53684 0.0
C716 C 0.04843 0.49063 0.52972 0.0
C717 C 0.98977 0.48537 0.51214 0.0
C718 C 0.0593 0.48767 0.49769 0.0
C719 C 0.03579 0.48331 0.47304 0.0
H720 H 0.02285 0.46486 0.95888 0.0
H721 H 0.91629 0.44034 0.9671 0.0
H722 H 0.91038 0.48139 0.01091 0.0
H723 H 0.93534 0.5258 0.04535 0.0
H724 H 0.04122 0.55177 0.03481 0.0
H725 H 0.04772 0.50845 0.99316 0.0
C726 C -0.00181 0.46886 0.96991 0.0
C727 C 0.96993 0.45003 0.95953 0.0
C728 C 0.99501 0.49249 0.99473 0.0
C729 C 0.93839 0.45465 0.97471 0.0
C730 C 0.93501 0.47807 -0.00031 0.0
C731 C 0.95988 0.52146 0.03419 0.0
C732 C 0.98787 0.54149 0.04301 0.0
C733 C 0.96314 0.49719 0.00979 0.0
C734 C 0.01947 0.53637 0.02823 0.0
C735 C 0.02312 0.5118 0.00444 0.0
H736 H 0.06578 0.02256 0.97134 0.0
H737 H 0.9912 0.988 0.90282 0.0
H738 H 0.94588 -0.00246 0.94221 0.0
H739 H 0.92839 0.0128 -0.00315 0.0
H740 H 0.00331 0.04646 0.0655 0.0
H741 H 0.04807 0.03994 0.02515 0.0
C742 C 0.03961 0.0168 0.96518 0.0
C743 C 0.03169 0.00401 0.9346 0.0
C744 C 0.014 0.02229 0.9878 0.0
C745 C -0.00228 -0.00236 0.9264 0.0
C746 C 0.97194 0.00308 0.94885 0.0
C747 C 0.95443 0.01941 0.00274 0.0
C748 C 0.96269 0.03031 0.03392 0.0
C749 C 0.97988 0.01514 0.97967 0.0
C750 C 0.99654 0.03801 0.04158 0.0
C751 C 0.02203 0.03423 0.01861 0.0
H752 H 0.50668 0.06594 0.98747 0.0
H753 H 0.53926 0.98904 0.92037 0.0
H754 H 0.53421 0.94557 0.9623 0.0
H755 H 0.51929 0.92963 0.01741 0.0
H756 H 0.48707 0.00644 0.08463 0.0
H757 H 0.49358 0.05028 0.04309 0.0
C758 C 0.5134 0.03978 0.98221 0.0
C759 C 0.52364 0.03061 0.95105 0.0
C760 C 0.51012 0.01509 0.00623 0.0
C761 C 0.53136 0.99654 0.94427 0.0
C762 C 0.5284 0.97178 0.96814 0.0
C763 C 0.51328 0.95595 0.02278 0.0
C764 C 0.50212 0.96495 0.05366 0.0
C765 C 0.51739 0.98076 -0.00097 0.0
C766 C 0.4954 -0.00088 0.06082 0.0
C767 C 0.49919 0.02405 0.03717 0.0
H768 H 0.46096 0.54033 0.94897 0.0
H769 H 0.48136 0.43757 0.91818 0.0
H770 H 0.52414 0.43146 0.96008 0.0
H771 H 0.55163 0.45327 0.00872 0.0
H772 H 0.52954 0.55519 0.04079 0.0
H773 H 0.49067 0.56323 -0.00423 0.0
C774 C 0.4749 0.51667 0.95135 0.0
C775 C 0.46789 0.48947 0.93059 0.0
C776 C 0.49858 0.51287 0.97616 0.0
C777 C 0.48657 0.45913 0.93356 0.0
C778 C 0.51075 0.45542 0.95778 0.0
C779 C 0.53853 0.47732 0.00563 0.0
C780 C 0.54295 0.50336 0.02825 0.0
C781 C 0.51631 0.48181 0.9797 0.0
C782 C 0.52583 0.53443 0.02408 0.0
C783 C 0.50388 0.53918 -0.00179 0.0
H784 H 0.90222 0.2452 0.68061 0.0
H785 H 0.94618 0.15882 0.72858 0.0
H786 H 0.94053 0.1873 0.78056 0.0
H787 H 0.93328 0.24049 0.80997 0.0
H788 H 0.89623 0.32949 0.76025 0.0
H789 H 0.8875 0.29619 0.71184 0.0
C790 C 0.90928 0.23232 0.70269 0.0
C791 C 0.92459 0.20021 0.70117 0.0
C792 C 0.90759 0.24959 0.73208 0.0
C793 C 0.93433 0.18365 0.72959 0.0
C794 C 0.93132 0.2 0.75912 0.0
C795 C 0.92299 0.25254 0.78865 0.0
C796 C 0.91649 0.28768 0.7886 0.0
C797 C 0.91967 0.23364 0.76036 0.0
C798 C 0.90183 0.3026 0.76111 0.0
C799 C 0.89708 0.2836 0.73319 0.0
H800 H 0.24948 0.89398 0.6775 0.0
H801 H 0.33837 0.92731 0.72853 0.0
H802 H 0.30823 0.92249 0.77972 0.0
H803 H 0.25323 0.92232 0.80722 0.0
H804 H 0.1629 0.89302 0.75625 0.0
H805 H 0.19651 0.88198 0.70767 0.0
C806 C 0.26245 0.89845 0.70009 0.0
C807 C 0.29584 0.91088 0.69973 0.0
C808 C 0.24436 0.89715 0.72914 0.0
C809 C 0.31266 0.91745 0.72874 0.0
C810 C 0.29532 0.91511 0.75781 0.0
C811 C 0.24133 0.91236 0.78568 0.0
C812 C 0.20596 0.90882 0.78475 0.0
C813 C 0.26066 0.90705 0.75798 0.0
C814 C 0.19026 0.89582 0.75714 0.0
C815 C 0.20942 0.88984 0.72942 0.0
H816 H 0.60197 0.23871 0.80031 0.0
H817 H 0.56078 0.15239 0.75027 0.0
H818 H 0.56733 0.18192 0.69881 0.0
H819 H 0.57448 0.2357 0.67022 0.0
H820 H 0.60805 0.32462 0.72189 0.0
H821 H 0.6166 0.29055 0.77 0.0
C822 C 0.59559 0.22615 0.77794 0.0
C823 C 0.58075 0.19375 0.7787 0.0
C824 C 0.59786 0.24394 0.74878 0.0
C825 C 0.57205 0.17753 0.74987 0.0
C826 C 0.57569 0.19442 0.72061 0.0
C827 C 0.58405 0.24755 0.69189 0.0
C828 C 0.58944 0.28287 0.69261 0.0
C829 C 0.58691 0.22824 0.72004 0.0
C830 C 0.60325 0.29759 0.72053 0.0
C831 C 0.60782 0.27815 0.74829 0.0
H832 H 0.17715 0.57103 0.73059 0.0
H833 H 0.2526 0.58151 0.6562 0.0
H834 H 0.29693 0.58883 0.69674 0.0
H835 H 0.31488 0.57823 0.75205 0.0
H836 H 0.23972 0.56396 0.82627 0.0
H837 H 0.19432 0.57285 0.78712 0.0
C838 C 0.20303 0.57635 0.72324 0.0
C839 C 0.21183 0.57506 0.69053 0.0
C840 C 0.22845 0.57909 0.74668 0.0
C841 C 0.2455 0.58187 0.68133 0.0
C842 C 0.2708 0.58584 0.70449 0.0
C843 C 0.28865 0.57836 0.75997 0.0
C844 C 0.28061 0.56951 0.79183 0.0
C845 C 0.26279 0.58236 0.73715 0.0
C846 C 0.24644 0.56987 0.80165 0.0
C847 C 0.22051 0.57489 0.77928 0.0
H848 H 0.05282 0.67212 0.22406 0.0
H849 H 0.08792 0.7511 0.16063 0.0
H850 H 0.09971 0.78805 0.20671 0.0
H851 H 0.08619 0.80175 0.26322 0.0
H852 H 0.0465 0.72355 0.32528 0.0
H853 H 0.05102 0.68186 0.28205 0.0
C854 C 0.06427 0.69698 0.22066 0.0
C855 C 0.0691 0.70932 0.18942 0.0
C856 C 0.06961 0.71823 0.24703 0.0
C857 C 0.08408 0.74132 0.1847 0.0
C858 C 0.09041 0.76249 0.21099 0.0
C859 C 0.07999 0.77525 0.26747 0.0
C860 C 0.06558 0.76554 0.29695 0.0
C861 C 0.08131 0.75188 0.24206 0.0
C862 C 0.05729 0.73132 0.30247 0.0
C863 C 0.05968 0.70765 0.27778 0.0
H864 H 0.82856 0.06125 0.23419 0.0
H865 H 0.7643 0.12956 0.1809 0.0
H866 H 0.72803 0.13739 0.22828 0.0
H867 H 0.7093 0.11588 0.28131 0.0
H868 H 0.7721 0.04415 0.33234 0.0
H869 H 0.8146 0.04652 0.28963 0.0
C870 C 0.80698 0.07838 0.23334 0.0
C871 C 0.79854 0.09434 0.2043 0.0
C872 C 0.78587 0.08167 0.2601 0.0
C873 C 0.77105 0.11703 0.20319 0.0
C874 C 0.75022 0.12119 0.23012 0.0
C875 C 0.7328 0.10166 0.28335 0.0
C876 C 0.7376 0.07949 0.30944 0.0
C877 C 0.75654 0.10238 0.25821 0.0
C878 C 0.76791 0.06093 0.31205 0.0
C879 C 0.79209 0.06227 0.28771 0.0
H880 H 0.43306 0.67863 0.26544 0.0
H881 H 0.39285 0.75606 0.32749 0.0
H882 H 0.38366 0.79364 0.28123 0.0
H883 H 0.40056 0.80841 0.22587 0.0
H884 H 0.44439 0.73163 0.16504 0.0
H885 H 0.43793 0.68925 0.20761 0.0
C886 C 0.42116 0.7033 0.26843 0.0
C887 C 0.4141 0.71505 0.29943 0.0
C888 C 0.41709 0.72487 0.24199 0.0
C889 C 0.39844 0.74677 0.3036 0.0
C890 C 0.39355 0.76828 0.27724 0.0
C891 C 0.40726 0.78207 0.2216 0.0
C892 C 0.42354 0.77305 0.19285 0.0
C893 C 0.40468 0.75828 0.24664 0.0
C894 C 0.4323 0.73896 0.18736 0.0
C895 C 0.4288 0.71488 0.21169 0.0
H896 H 0.73532 0.42365 0.1769 0.0
H897 H 0.6528 0.38611 0.2345 0.0
H898 H 0.69169 0.37683 0.27993 0.0
H899 H 0.74657 0.39052 0.30552 0.0
H900 H 0.82674 0.43496 0.24898 0.0
H901 H 0.79203 0.43008 0.20039 0.0
C902 C 0.72643 0.41223 0.19913 0.0
C903 C 0.69176 0.40522 0.20277 0.0
C904 C 0.7485 0.40878 0.22522 0.0
C905 C 0.67967 0.39118 0.23151 0.0
C906 C 0.7018 0.38627 0.25739 0.0
C907 C 0.75669 0.39786 0.28227 0.0
C908 C 0.78893 0.41301 0.28043 0.0
C909 C 0.73592 0.3965 0.25493 0.0
C910 C 0.80189 0.42321 0.25055 0.0
C911 C 0.78202 0.4206 0.22297 0.0
H912 H 0.24697 0.07488 0.64499 0.0
H913 H 0.2041 0.9921 0.59032 0.0
H914 H 0.15487 0.02695 0.57687 0.0
H915 H 0.12609 0.08235 0.57716 0.0
H916 H 0.16734 0.16479 0.63248 0.0
H917 H 0.21556 0.12897 0.649 0.0
C918 C 0.22648 0.06422 0.63077 0.0
C919 C 0.22924 0.03102 0.61851 0.0
C920 C 0.1985 0.08463 0.62261 0.0
C921 C 0.20261 0.01764 0.59993 0.0
C922 C 0.17458 0.03761 0.59201 0.0
C923 C 0.14595 0.09232 0.59257 0.0
C924 C 0.14419 0.12612 0.60295 0.0
C925 C 0.17278 0.0714 0.60242 0.0
C926 C 0.16902 0.13889 0.62382 0.0
C927 C 0.19625 0.1184 0.63336 0.0
H928 H 0.41781 0.11487 0.60746 0.0
H929 H 0.32573 0.17396 0.60605 0.0
H930 H 0.35864 0.22632 0.61368 0.0
H931 H 0.41397 0.25525 0.61825 0.0
H932 H 0.50624 0.19656 0.6138 0.0
H933 H 0.47311 0.14375 0.61167 0.0
C934 C 0.40508 0.13926 0.6091 0.0
C935 C 0.36954 0.14081 0.6063 0.0
C936 C 0.42422 0.16909 0.61268 0.0
C937 C 0.35313 0.17242 0.6079 0.0
C938 C 0.3719 0.20221 0.61243 0.0
C939 C 0.42666 0.23077 0.61746 0.0
C940 C 0.46229 0.22938 0.61675 0.0
C941 C 0.40747 0.20085 0.61462 0.0
C942 C 0.47876 0.19787 0.61471 0.0
C943 C 0.45986 0.16784 0.61332 0.0
H944 H 0.37509 0.41074 0.56515 0.0
H945 H 0.34684 0.33229 0.63227 0.0
H946 H 0.29574 0.36446 0.64728 0.0
H947 H 0.25784 0.41395 0.63888 0.0
H948 H 0.28803 0.49262 0.57219 0.0
H949 H 0.33996 0.4617 0.55982 0.0
C950 C 0.35744 0.40057 0.58273 0.0
C951 C 0.36395 0.3689 0.59698 0.0
C952 C 0.32879 0.41948 0.59159 0.0
C953 C 0.34177 0.35644 0.62068 0.0
C954 C 0.31278 0.37488 0.62932 0.0
C955 C 0.27615 0.4246 0.62218 0.0
C956 C 0.269 0.45541 0.60632 0.0
C957 C 0.3059 0.40639 0.61476 0.0
C958 C 0.29285 0.46884 0.58457 0.0
C959 C 0.32248 0.4511 0.57732 0.0
H960 H 0.08958 0.37592 0.58935 0.0
H961 H 0.18099 0.31796 0.60307 0.0
H962 H 0.14731 0.26849 0.62073 0.0
H963 H 0.09132 0.2412 0.62852 0.0
H964 H 4e-05 0.29971 0.61317 0.0
H965 H 0.03403 0.35011 0.60081 0.0
C966 C 0.10184 0.35221 0.59598 0.0
C967 C 0.13729 0.34971 0.59411 0.0
C968 C 0.08239 0.32448 0.60635 0.0
C969 C 0.15353 0.31969 0.60369 0.0
C970 C 0.13433 0.29173 0.61398 0.0
C971 C 0.07896 0.26527 0.62339 0.0
C972 C 0.04329 0.26697 0.62192 0.0
C973 C 0.09868 0.29375 0.61509 0.0
C974 C 0.02748 0.29801 0.61459 0.0
C975 C 0.04687 0.32667 0.60722 0.0
H976 H 0.22778 0.45291 0.92221 0.0
H977 H 0.24035 0.42254 0.82331 0.0
H978 H 0.18917 0.38727 0.82708 0.0
H979 H 0.14198 0.36413 0.85901 0.0
H980 H 0.12982 0.39508 0.95784 0.0
H981 H 0.18062 0.43023 0.9538 0.0
C982 C 0.21921 0.43885 0.90132 0.0
C983 C 0.23773 0.4405 0.87245 0.0
C984 C 0.19029 0.41823 0.90386 0.0
C985 C 0.22646 0.42178 0.84578 0.0
C986 C 0.19732 0.40151 0.84798 0.0
C987 C 0.15025 0.37869 0.87964 0.0
C988 C 0.13192 0.37687 0.9087 0.0
C989 C 0.17922 0.39935 0.877 0.0
C990 C 0.14356 0.39548 0.93533 0.0
C991 C 0.17244 0.41593 0.93294 0.0
H992 H 0.119 0.14368 0.84316 0.0
H993 H 0.10511 0.12757 0.94484 0.0
H994 H 0.06752 0.1767 0.94763 0.0
H995 H 0.03943 0.22449 0.9217 0.0
H996 H 0.05462 0.24354 0.8206 0.0
H997 H 0.09057 0.19271 0.81684 0.0
C998 C 0.10761 0.151 0.86582 0.0
C999 C 0.115 0.13224 0.8938 0.0
C1000 C 0.08619 0.17959 0.86729 0.0
C1001 C 0.1003 0.14198 0.92312 0.0
C1002 C 0.0786 0.1699 0.92468 0.0
C1003 C 0.05029 0.21742 0.89872 0.0
C1004 C 0.04419 0.23758 0.87141 0.0
C1005 C 0.07148 0.1889 0.89698 0.0
C1006 C 0.05891 0.22833 0.84194 0.0
C1007 C 0.0795 0.19935 0.83983 0.0
H1008 H 0.37004 0.06032 0.91513 0.0
H1009 H 0.35352 0.13193 0.83832 0.0
H1010 H 0.30011 0.10337 0.82429 0.0
H1011 H 0.25689 0.05948 0.83591 0.0
H1012 H 0.27507 0.98722 0.91231 0.0
H1013 H 0.32921 0.01429 0.92422 0.0
C1014 C 0.35454 0.06975 0.89551 0.0
C1015 C 0.36517 0.09845 0.87813 0.0
C1016 C 0.32434 0.05294 0.88739 0.0
C1017 C 0.34554 0.10994 0.85211 0.0
C1018 C 0.31511 0.09363 0.84411 0.0
C1019 C 0.27292 0.04938 0.85485 0.0
C1020 C 0.26175 0.02155 0.87336 0.0
C1021 C 0.30411 0.06523 0.86178 0.0
C1022 C 0.2829 0.00873 0.89778 0.0
C1023 C 0.31385 0.02428 0.90475 0.0
H1024 H 0.37795 0.338 0.84604 0.0
H1025 H 0.39528 0.34933 0.94787 0.0
H1026 H 0.43174 0.29935 0.94778 0.0
H1027 H 0.45862 0.25272 0.91918 0.0
H1028 H 0.44119 0.23959 0.81758 0.0
H1029 H 0.40537 0.29064 0.81699 0.0
C1030 C 0.38984 0.3296 0.86815 0.0
C1031 C 0.38372 0.34734 0.89696 0.0
C1032 C 0.41094 0.30078 0.86791 0.0
C1033 C 0.39902 0.33588 0.9255 0.0
C1034 C 0.42015 0.30746 0.92541 0.0
C1035 C 0.44723 0.26106 0.89677 0.0
C1036 C 0.45269 0.24249 0.86841 0.0
C1037 C 0.42628 0.28979 0.8968 0.0
C1038 C 0.4374 0.25351 0.83972 0.0
C1039 C 0.41688 0.2826 0.83942 0.0
H1040 H 0.84975 0.90756 0.43378 0.0
H1041 H 0.83543 0.86408 0.33981 0.0
H1042 H 0.78343 0.89751 0.33263 0.0
H1043 H 0.74179 0.93878 0.35366 0.0
H1044 H 0.75752 0.98231 0.44771 0.0
H1045 H 0.80917 0.94907 0.4543 0.0
C1046 C 0.83501 0.90508 0.41191 0.0
C1047 C 0.84613 0.88316 0.38751 0.0
C1048 C 0.80549 0.92448 0.40793 0.0
C1049 C 0.82731 0.88088 0.3589 0.0
C1050 C 0.7976 0.89991 0.35484 0.0
C1051 C 0.75658 0.94102 0.37555 0.0
C1052 C 0.74572 0.96291 0.40017 0.0
C1053 C 0.78643 0.92181 0.37924 0.0
C1054 C 0.76524 0.96566 0.42834 0.0
C1055 C 0.79478 0.9466 0.43221 0.0
H1056 H 0.60653 0.87193 0.35971 0.0
H1057 H 0.5558 0.89494 0.44895 0.0
H1058 H 0.52332 0.84235 0.44525 0.0
H1059 H 0.51196 0.78852 0.41881 0.0
H1060 H 0.56347 0.76326 0.33048 0.0
H1061 H 0.59241 0.8185 0.33119 0.0
C1062 C 0.58806 0.86555 0.37809 0.0
C1063 C 0.58392 0.88707 0.40482 0.0
C1064 C 0.56963 0.83496 0.37595 0.0
C1065 C 0.56 0.87846 0.42854 0.0
C1066 C 0.54126 0.8485 0.42633 0.0
C1067 C 0.52928 0.79509 0.39948 0.0
C1068 C 0.53574 0.77167 0.37477 0.0
C1069 C 0.54632 0.82632 0.40049 0.0
C1070 C 0.55812 0.7808 0.34986 0.0
C1071 C 0.57478 0.8123 0.35034 0.0
H1072 H 0.71932 0.52559 0.41319 0.0
H1073 H 0.73891 0.5509 0.31399 0.0
H1074 H 0.69166 0.59162 0.31472 0.0
H1075 H 0.64651 0.62203 0.34489 0.0
H1076 H 0.63101 0.59872 0.44506 0.0
H1077 H 0.67523 0.55531 0.44281 0.0
C1078 C 0.71303 0.5396 0.39152 0.0
C1079 C 0.73238 0.53503 0.36348 0.0
C1080 C 0.6869 0.5637 0.39253 0.0
C1081 C 0.72423 0.55388 0.33582 0.0
C1082 C 0.69736 0.57725 0.3363 0.0
C1083 C 0.65296 0.60733 0.3661 0.0
C1084 C 0.63591 0.61369 0.39519 0.0
C1085 C 0.67886 0.58274 0.3647 0.0
C1086 C 0.64432 0.59467 0.42262 0.0
C1087 C 0.66936 0.5697 0.42126 0.0
H1088 H 0.86718 0.63579 0.34725 0.0
H1089 H 0.87874 0.62899 0.45015 0.0
H1090 H 0.91238 0.68104 0.45018 0.0
H1091 H 0.93829 0.72823 0.42133 0.0
H1092 H 0.92607 0.7371 0.31863 0.0
H1093 H 0.89324 0.68402 0.318 0.0
C1094 C 0.87722 0.6457 0.3696 0.0
C1095 C 0.87038 0.62867 0.39868 0.0
C1096 C 0.8965 0.67577 0.36943 0.0
C1097 C 0.88319 0.64192 0.42755 0.0
C1098 C 0.90264 0.67152 0.42755 0.0
C1099 C 0.92868 0.71849 0.39871 0.0
C1100 C 0.93473 0.73638 0.37003 0.0
C1101 C 0.90943 0.68859 0.39868 0.0
C1102 C 0.92171 0.72368 0.34101 0.0
C1103 C 0.90295 0.69342 0.34067 0.0
H1104 H 0.86164 0.57528 0.13029 0.0
H1105 H 0.79782 0.66331 0.11771 0.0
H1106 H 0.7475 0.62931 0.13083 0.0
H1107 H 0.72162 0.57392 0.14208 0.0
H1108 H 0.78467 0.48458 0.149 0.0
H1109 H 0.83574 0.51985 0.14303 0.0
C1110 C 0.83673 0.58701 0.13086 0.0
C1111 C 0.83326 0.62166 0.12305 0.0
C1112 C 0.808 0.56714 0.1377 0.0
C1113 C 0.80089 0.63658 0.1233 0.0
C1114 C 0.77225 0.61723 0.13099 0.0
C1115 C 0.7466 0.5623 0.14305 0.0
C1116 C 0.74961 0.52684 0.14634 0.0
C1117 C 0.77548 0.58241 0.13781 0.0
C1118 C 0.78196 0.51191 0.14676 0.0
C1119 C 0.81103 0.532 0.14309 0.0
H1120 H 0.95217 0.77749 0.06976 0.0
H1121 H 0.92766 0.76542 0.17022 0.0
H1122 H 0.89892 0.82081 0.16985 0.0
H1123 H 0.8783 0.87122 0.13976 0.0
H1124 H 0.90113 0.88045 0.03875 0.0
H1125 H 0.93276 0.82719 0.04043 0.0
C1126 C 0.94087 0.787 0.09175 0.0
C1127 C 0.94211 0.7674 0.12001 0.0
C1128 C 0.92372 0.81813 0.09108 0.0
C1129 C 0.92706 0.78008 0.14816 0.0
C1130 C 0.91055 0.81164 0.14791 0.0
C1131 C 0.89043 0.86158 0.11825 0.0
C1132 C 0.88721 0.87955 0.0891 0.0
C1133 C 0.90832 0.83066 0.11934 0.0
C1134 C 0.90277 0.86676 0.06129 0.0
C1135 C 0.92104 0.83646 0.0623 0.0
H1136 H 0.75399 0.94462 0.15167 0.0
H1137 H 0.72221 0.01425 0.07707 0.0
H1138 H 0.67001 0.98216 0.0696 0.0
H1139 H 0.6351 0.93223 0.08139 0.0
H1140 H 0.6646 0.86315 0.15664 0.0
H1141 H 0.71603 0.89701 0.16687 0.0
C1142 C 0.73539 0.95303 0.13415 0.0
C1143 C 0.74223 0.98156 0.1147 0.0
C1144 C 0.70529 0.9343 0.12979 0.0
C1145 C 0.71779 0.99223 0.09219 0.0
C1146 C 0.68793 0.97383 0.08777 0.0
C1147 C 0.65296 0.92464 0.0999 0.0
C1148 C 0.6468 0.89505 0.11779 0.0
C1149 C 0.68184 0.94442 0.10584 0.0
C1150 C 0.66932 0.88578 0.14244 0.0
C1151 C 0.69855 0.90511 0.14825 0.0
H1152 H 0.61413 0.63848 0.15221 0.0
H1153 H 0.62237 0.63906 0.0489 0.0
H1154 H 0.59182 0.69297 0.04639 0.0
H1155 H 0.5631 0.73976 0.07336 0.0
H1156 H 0.55625 0.74128 0.17681 0.0
H1157 H 0.58569 0.68638 0.17959 0.0
C1158 C 0.60905 0.65045 0.12922 0.0
C1159 C 0.62049 0.63497 0.10077 0.0
C1160 C 0.5917 0.68161 0.12802 0.0
C1161 C 0.61419 0.65078 0.0711 0.0
C1162 C 0.59655 0.68145 0.06965 0.0
C1163 C 0.56783 0.72801 0.09654 0.0
C1164 C 0.55739 0.74433 0.12483 0.0
C1165 C 0.58524 0.69704 0.09793 0.0
C1166 C 0.56412 0.72909 0.15471 0.0
C1167 C 0.58092 0.69778 0.15629 0.0
loop_
_geom_bond_atom_site_label_1
_geom_bond_atom_site_label_2
_geom_bond_distance
_geom_bond_site_symmetry_2
_ccdc_geom_bond_type
C0 C1 1.351 . S
C0 N3 1.368 . S
C0 H5 0.931 . S
C1 C0 1.351 . S
C1 N2 1.373 . S
C1 H29 0.930 . S
N2 C1 1.373 . S
N2 C4 1.340 . S
N3 C0 1.368 . S
N3 C4 1.321 . S
N3 Co6 2.135 . S
C4 N2 1.340 . S
C4 N3 1.321 . S
C4 H28 0.930 . S
H5 C0 0.931 . S
Co6 N3 2.135 . S
Co6 N9 2.121 1_455 S
Co6 O14 2.055 . S
Co6 O17 2.039 . S
Co6 N20 2.140 1_455 S
C7 O8 1.227 . S
C7 O17 1.265 . S
O8 C7 1.227 . S
N9 Co6 2.121 1_655 S
N9 C11 1.375 . S
N9 C12 1.313 . S
C10 C11 1.338 . S
C10 N13 1.377 . S
C10 H30 0.930 . S
C11 N9 1.375 . S
C11 C10 1.338 . S
C11 H15 0.931 . S
C12 N9 1.313 . S
C12 N13 1.344 . S
C12 H16 0.930 . S
N13 C10 1.377 . S
N13 C12 1.344 . S
O14 Co6 2.055 . S
O14 C18 1.253 . S
H15 C11 0.931 . S
H16 C12 0.930 . S
O17 Co6 2.039 . S
O17 C7 1.265 . S
C18 O14 1.253 . S
C18 O19 1.227 . S
O19 C18 1.227 . S
N20 Co6 2.140 1_655 S
N20 C23 1.349 . S
N20 C24 1.345 . S
C21 C22 1.387 . S
C21 C25 1.391 . S
C22 C21 1.387 . S
C22 C23 1.377 . S
C22 H31 0.929 . S
C23 N20 1.349 . S
C23 C22 1.377 . S
C23 H26 0.917 1_655 S
C24 N20 1.345 . S
C24 C25 1.371 . S
C24 H27 0.931 . S
C25 C21 1.391 . S
C25 C24 1.371 . S
C25 H32 0.930 . S
H26 C23 0.917 1_455 S
H27 C24 0.931 . S
H28 C4 0.930 . S
H29 C1 0.930 . S
H30 C10 0.930 . S
H31 C22 0.929 . S
H32 C25 0.930 . S
C33 C34 1.351 . S
C33 N36 1.368 . S
C33 H38 0.931 . S
C34 C33 1.351 . S
C34 N35 1.373 . S
C34 H62 0.930 . S
N35 C34 1.373 . S
N35 C37 1.340 . S
N36 C33 1.368 . S
N36 C37 1.321 . S
N36 Co39 2.135 . S
C37 N35 1.340 . S
C37 N36 1.321 . S
C37 H61 0.930 . S
H38 C33 0.931 . S
Co39 N36 2.135 . S
Co39 N42 2.121 1_545 S
Co39 O47 2.055 . S
Co39 O50 2.039 . S
Co39 N53 2.140 1_545 S
C40 O41 1.227 . S
C40 O50 1.265 . S
O41 C40 1.227 . S
N42 Co39 2.121 1_565 S
N42 C44 1.375 . S
N42 C45 1.313 . S
C43 C44 1.338 . S
C43 N46 1.377 . S
C43 H63 0.930 . S
C44 N42 1.375 . S
C44 C43 1.338 . S
C44 H48 0.931 . S
C45 N42 1.313 . S
C45 N46 1.344 . S
C45 H49 0.930 . S
N46 C43 1.377 . S
N46 C45 1.344 . S
O47 Co39 2.055 . S
O47 C51 1.253 . S
H48 C44 0.931 . S
H49 C45 0.930 . S
O50 Co39 2.039 . S
O50 C40 1.265 . S
C51 O47 1.253 . S
C51 O52 1.227 . S
O52 C51 1.227 . S
N53 Co39 2.140 1_565 S
N53 C56 1.349 . S
N53 C57 1.345 . S
C54 C55 1.387 . S
C54 C58 1.391 . S
C55 C54 1.387 . S
C55 C56 1.377 . S
C55 H64 0.929 . S
C56 N53 1.349 . S
C56 C55 1.377 . S
C56 H59 0.917 1_565 S
C57 N53 1.345 . S
C57 C58 1.371 . S
C57 H60 0.931 . S
C58 C54 1.391 . S
C58 C57 1.371 . S
C58 H65 0.930 . S
H59 C56 0.917 1_545 S
H60 C57 0.931 . S
H61 C37 0.930 . S
H62 C34 0.930 . S
H63 C43 0.930 . S
H64 C55 0.929 . S
H65 C58 0.930 . S
C66 C67 1.351 . S
C66 N69 1.368 . S
C66 H71 0.931 . S
C67 C66 1.351 . S
C67 N68 1.373 . S
C67 H95 0.930 . S
N68 C67 1.373 . S
N68 C70 1.340 . S
N69 C66 1.368 . S
N69 C70 1.321 . S
N69 Co72 2.135 . S
C70 N68 1.340 . S
C70 N69 1.321 . S
C70 H94 0.930 . S
H71 C66 0.931 . S
Co72 N69 2.135 . S
Co72 N75 2.121 . S
Co72 O80 2.055 . S
Co72 O83 2.039 . S
Co72 N86 2.140 . S
C73 O74 1.227 . S
C73 O83 1.265 . S
O74 C73 1.227 . S
N75 Co72 2.121 . S
N75 C77 1.375 . S
N75 C78 1.313 . S
C76 C77 1.338 . S
C76 N79 1.377 . S
C76 H96 0.930 . S
C77 N75 1.375 . S
C77 C76 1.338 . S
C77 H81 0.931 . S
C78 N75 1.313 . S
C78 N79 1.344 . S
C78 H82 0.930 . S
N79 C76 1.377 . S
N79 C78 1.344 . S
O80 Co72 2.055 . S
O80 C84 1.253 . S
H81 C77 0.931 . S
H82 C78 0.930 . S
O83 Co72 2.039 . S
O83 C73 1.265 . S
C84 O80 1.253 . S
C84 O85 1.227 . S
O85 C84 1.227 . S
N86 Co72 2.140 . S
N86 C89 1.346 . S
N86 C90 1.345 . S
C87 C88 1.387 . S
C87 C91 1.391 . S
C88 C87 1.387 . S
C88 C89 1.369 . S
C88 H97 0.929 . S
C89 N86 1.346 . S
C89 C88 1.369 . S
C89 H92 0.928 . S
C90 N86 1.345 . S
C90 C91 1.371 . S
C90 H93 0.931 . S
C91 C87 1.391 . S
C91 C90 1.371 . S
C91 H98 0.930 . S
H92 C89 0.928 . S
H93 C90 0.931 . S
H94 C70 0.930 . S
H95 C67 0.930 . S
H96 C76 0.930 . S
H97 C88 0.929 . S
H98 C91 0.930 . S
C99 C100 1.351 . S
C99 N102 1.368 . S
C99 H104 0.931 . S
C100 C99 1.351 . S
C100 N101 1.373 . S
C100 H128 0.930 . S
N101 C100 1.373 . S
N101 C103 1.340 . S
N102 C99 1.368 . S
N102 C103 1.321 . S
N102 Co105 2.135 . S
C103 N101 1.340 . S
C103 N102 1.321 . S
C103 H127 0.930 . S
H104 C99 0.931 . S
Co105 N102 2.135 . S
Co105 N108 2.121 . S
Co105 O113 2.055 . S
Co105 O116 2.039 . S
Co105 N119 2.140 . S
C106 O107 1.227 . S
C106 O116 1.265 . S
O107 C106 1.227 . S
N108 Co105 2.121 . S
N108 C110 1.375 . S
N108 C111 1.313 . S
C109 C110 1.338 . S
C109 N112 1.377 . S
C109 H129 0.930 . S
C110 N108 1.375 . S
C110 C109 1.338 . S
C110 H114 0.931 . S
C111 N108 1.313 . S
C111 N112 1.344 . S
C111 H115 0.930 . S
N112 C109 1.377 . S
N112 C111 1.344 . S
O113 Co105 2.055 . S
O113 C117 1.253 . S
H114 C110 0.931 . S
H115 C111 0.930 . S
O116 Co105 2.039 . S
O116 C106 1.265 . S
C117 O113 1.253 . S
C117 O118 1.227 . S
O118 C117 1.227 . S
N119 Co105 2.140 . S
N119 C122 1.346 . S
N119 C123 1.345 . S
C120 C121 1.387 . S
C120 C124 1.391 . S
C121 C120 1.387 . S
C121 C122 1.369 . S
C121 H130 0.929 . S
C122 N119 1.346 . S
C122 C121 1.369 . S
C122 H125 0.928 . S
C123 N119 1.345 . S
C123 C124 1.371 . S
C123 H126 0.931 . S
C124 C120 1.391 . S
C124 C123 1.371 . S
C124 H131 0.930 . S
H125 C122 0.928 . S
H126 C123 0.931 . S
H127 C103 0.930 . S
H128 C100 0.930 . S
H129 C109 0.930 . S
H130 C121 0.929 . S
H131 C124 0.930 . S
C132 C133 1.351 . S
C132 N135 1.368 . S
C132 H137 0.931 . S
C133 C132 1.351 . S
C133 N134 1.373 . S
C133 H161 0.930 . S
N134 C133 1.373 . S
N134 C136 1.340 . S
N135 C132 1.368 . S
N135 C136 1.321 . S
N135 Co138 2.135 . S
C136 N134 1.340 . S
C136 N135 1.321 . S
C136 H160 0.930 . S
H137 C132 0.931 . S
Co138 N135 2.135 . S
Co138 N141 2.121 1_455 S
Co138 O146 2.055 . S
Co138 O149 2.039 . S
Co138 N152 2.140 1_455 S
C139 O140 1.227 . S
C139 O149 1.265 . S
O140 C139 1.227 . S
N141 Co138 2.121 1_655 S
N141 C143 1.375 . S
N141 C144 1.313 . S
C142 C143 1.338 . S
C142 N145 1.377 . S
C142 H162 0.930 . S
C143 N141 1.375 . S
C143 C142 1.338 . S
C143 H147 0.931 . S
C144 N141 1.313 . S
C144 N145 1.344 . S
C144 H148 0.930 . S
N145 C142 1.377 . S
N145 C144 1.344 . S
O146 Co138 2.055 . S
O146 C150 1.253 . S
H147 C143 0.931 . S
H148 C144 0.930 . S
O149 Co138 2.039 . S
O149 C139 1.265 . S
C150 O146 1.253 . S
C150 O151 1.227 . S
O151 C150 1.227 . S
N152 Co138 2.140 1_655 S
N152 C155 1.349 . S
N152 C156 1.345 . S
C153 C154 1.387 . S
C153 C157 1.391 . S
C154 C153 1.387 . S
C154 C155 1.377 . S
C154 H163 0.929 . S
C155 N152 1.349 . S
C155 C154 1.377 . S
C155 H158 0.917 1_655 S
C156 N152 1.345 . S
C156 C157 1.371 . S
C156 H159 0.931 . S
C157 C153 1.391 . S
C157 C156 1.371 . S
C157 H164 0.930 . S
H158 C155 0.917 1_455 S
H159 C156 0.931 . S
H160 C136 0.930 . S
H161 C133 0.930 . S
H162 C142 0.930 . S
H163 C154 0.929 . S
H164 C157 0.930 . S
C165 C166 1.351 . S
C165 N168 1.368 . S
C165 H170 0.931 . S
C166 C165 1.351 . S
C166 N167 1.373 . S
C166 H194 0.930 . S
N167 C166 1.373 . S
N167 C169 1.340 . S
N168 C165 1.368 . S
N168 C169 1.321 . S
N168 Co171 2.135 . S
C169 N167 1.340 . S
C169 N168 1.321 . S
C169 H193 0.930 . S
H170 C165 0.931 . S
Co171 N168 2.135 . S
Co171 N174 2.121 1_545 S
Co171 O179 2.055 . S
Co171 O182 2.039 . S
Co171 N185 2.140 1_545 S
C172 O173 1.227 . S
C172 O182 1.265 . S
O173 C172 1.227 . S
N174 Co171 2.121 1_565 S
N174 C176 1.375 . S
N174 C177 1.313 . S
C175 C176 1.338 . S
C175 N178 1.377 . S
C175 H195 0.930 . S
C176 N174 1.375 . S
C176 C175 1.338 . S
C176 H180 0.931 . S
C177 N174 1.313 . S
C177 N178 1.344 . S
C177 H181 0.930 . S
N178 C175 1.377 . S
N178 C177 1.344 . S
O179 Co171 2.055 . S
O179 C183 1.253 . S
H180 C176 0.931 . S
H181 C177 0.930 . S
O182 Co171 2.039 . S
O182 C172 1.265 . S
C183 O179 1.253 . S
C183 O184 1.227 . S
O184 C183 1.227 . S
N185 Co171 2.140 1_565 S
N185 C188 1.349 . S
N185 C189 1.345 . S
C186 C187 1.387 . S
C186 C190 1.391 . S
C187 C186 1.387 . S
C187 C188 1.377 . S
C187 H196 0.929 . S
C188 N185 1.349 . S
C188 C187 1.377 . S
C188 H191 0.917 1_565 S
C189 N185 1.345 . S
C189 C190 1.371 . S
C189 H192 0.931 . S
C190 C186 1.391 . S
C190 C189 1.371 . S
C190 H197 0.930 . S
H191 C188 0.917 1_545 S
H192 C189 0.931 . S
H193 C169 0.930 . S
H194 C166 0.930 . S
H195 C175 0.930 . S
H196 C187 0.929 . S
H197 C190 0.930 . S
C198 C199 1.351 . S
C198 N201 1.368 . S
C198 H203 0.931 . S
C199 C198 1.351 . S
C199 N200 1.373 . S
C199 H227 0.930 . S
N200 C199 1.373 . S
N200 C202 1.340 . S
N201 C198 1.368 . S
N201 C202 1.321 . S
N201 Co204 2.135 . S
C202 N200 1.340 . S
C202 N201 1.321 . S
C202 H226 0.930 . S
H203 C198 0.931 . S
Co204 N201 2.135 . S
Co204 N207 2.121 . S
Co204 O212 2.055 . S
Co204 O215 2.039 . S
Co204 N218 2.140 . S
C205 O206 1.227 . S
C205 O215 1.265 . S
O206 C205 1.227 . S
N207 Co204 2.121 . S
N207 C209 1.375 . S
N207 C210 1.313 . S
C208 C209 1.338 . S
C208 N211 1.377 . S
C208 H228 0.930 . S
C209 N207 1.375 . S
C209 C208 1.338 . S
C209 H213 0.931 . S
C210 N207 1.313 . S
C210 N211 1.344 . S
C210 H214 0.930 . S
N211 C208 1.377 . S
N211 C210 1.344 . S
O212 Co204 2.055 . S
O212 C216 1.253 . S
H213 C209 0.931 . S
H214 C210 0.930 . S
O215 Co204 2.039 . S
O215 C205 1.265 . S
C216 O212 1.253 . S
C216 O217 1.227 . S
O217 C216 1.227 . S
N218 Co204 2.140 . S
N218 C221 1.346 . S
N218 C222 1.345 . S
C219 C220 1.387 . S
C219 C223 1.391 . S
C220 C219 1.387 . S
C220 C221 1.369 . S
C220 H229 0.929 . S
C221 N218 1.346 . S
C221 C220 1.369 . S
C221 H224 0.928 . S
C222 N218 1.345 . S
C222 C223 1.371 . S
C222 H225 0.931 . S
C223 C219 1.391 . S
C223 C222 1.371 . S
C223 H230 0.930 . S
H224 C221 0.928 . S
H225 C222 0.931 . S
H226 C202 0.930 . S
H227 C199 0.930 . S
H228 C208 0.930 . S
H229 C220 0.929 . S
H230 C223 0.930 . S
C231 C232 1.351 . S
C231 N234 1.368 . S
C231 H236 0.931 . S
C232 C231 1.351 . S
C232 N233 1.373 . S
C232 H260 0.930 . S
N233 C232 1.373 . S
N233 C235 1.340 . S
N234 C231 1.368 . S
N234 C235 1.321 . S
N234 Co237 2.135 . S
C235 N233 1.340 . S
C235 N234 1.321 . S
C235 H259 0.930 . S
H236 C231 0.931 . S
Co237 N234 2.135 . S
Co237 N240 2.121 . S
Co237 O245 2.055 . S
Co237 O248 2.039 . S
Co237 N251 2.140 . S
C238 O239 1.227 . S
C238 O248 1.265 . S
O239 C238 1.227 . S
N240 Co237 2.121 . S
N240 C242 1.375 . S
N240 C243 1.313 . S
C241 C242 1.338 . S
C241 N244 1.377 . S
C241 H261 0.930 . S
C242 N240 1.375 . S
C242 C241 1.338 . S
C242 H246 0.931 . S
C243 N240 1.313 . S
C243 N244 1.344 . S
C243 H247 0.930 . S
N244 C241 1.377 . S
N244 C243 1.344 . S
O245 Co237 2.055 . S
O245 C249 1.253 . S
H246 C242 0.931 . S
H247 C243 0.930 . S
O248 Co237 2.039 . S
O248 C238 1.265 . S
C249 O245 1.253 . S
C249 O250 1.227 . S
O250 C249 1.227 . S
N251 Co237 2.140 . S
N251 C254 1.346 . S
N251 C255 1.345 . S
C252 C253 1.387 . S
C252 C256 1.391 . S
C253 C252 1.387 . S
C253 C254 1.369 . S
C253 H262 0.929 . S
C254 N251 1.346 . S
C254 C253 1.369 . S
C254 H257 0.928 . S
C255 N251 1.345 . S
C255 C256 1.371 . S
C255 H258 0.931 . S
C256 C252 1.391 . S
C256 C255 1.371 . S
C256 H263 0.930 . S
H257 C254 0.928 . S
H258 C255 0.931 . S
H259 C235 0.930 . S
H260 C232 0.930 . S
H261 C241 0.930 . S
H262 C253 0.929 . S
H263 C256 0.930 . S
C264 C265 1.351 . S
C264 N267 1.368 . S
C264 H269 0.931 . S
C265 C264 1.351 . S
C265 N266 1.373 . S
C265 H293 0.930 . S
N266 C265 1.373 . S
N266 C268 1.340 . S
N267 C264 1.368 . S
N267 C268 1.321 . S
N267 Co270 2.135 . S
C268 N266 1.340 . S
C268 N267 1.321 . S
C268 H292 0.930 . S
H269 C264 0.931 . S
Co270 N267 2.135 . S
Co270 N273 2.121 1_655 S
Co270 O278 2.055 . S
Co270 O281 2.039 . S
Co270 N284 2.140 1_655 S
C271 O272 1.227 . S
C271 O281 1.265 . S
O272 C271 1.227 . S
N273 Co270 2.121 1_455 S
N273 C275 1.375 . S
N273 C276 1.313 . S
C274 C275 1.338 . S
C274 N277 1.377 . S
C274 H294 0.930 . S
C275 N273 1.375 . S
C275 C274 1.338 . S
C275 H279 0.931 . S
C276 N273 1.313 . S
C276 N277 1.344 . S
C276 H280 0.930 . S
N277 C274 1.377 . S
N277 C276 1.344 . S
O278 Co270 2.055 . S
O278 C282 1.253 . S
H279 C275 0.931 . S
H280 C276 0.930 . S
O281 Co270 2.039 . S
O281 C271 1.265 . S
C282 O278 1.253 . S
C282 O283 1.227 . S
O283 C282 1.227 . S
N284 Co270 2.140 1_455 S
N284 C287 1.349 . S
N284 C288 1.345 . S
C285 C286 1.387 . S
C285 C289 1.391 . S
C286 C285 1.387 . S
C286 C287 1.377 . S
C286 H295 0.929 . S
C287 N284 1.349 . S
C287 C286 1.377 . S
C287 H290 0.917 1_455 S
C288 N284 1.345 . S
C288 C289 1.371 . S
C288 H291 0.931 . S
C289 C285 1.391 . S
C289 C288 1.371 . S
C289 H296 0.930 . S
H290 C287 0.917 1_655 S
H291 C288 0.931 . S
H292 C268 0.930 . S
H293 C265 0.930 . S
H294 C274 0.930 . S
H295 C286 0.929 . S
H296 C289 0.930 . S
C297 C298 1.351 . S
C297 N300 1.368 . S
C297 H302 0.931 . S
C298 C297 1.351 . S
C298 N299 1.373 . S
C298 H326 0.930 . S
N299 C298 1.373 . S
N299 C301 1.340 . S
N300 C297 1.368 . S
N300 C301 1.321 . S
N300 Co303 2.135 . S
C301 N299 1.340 . S
C301 N300 1.321 . S
C301 H325 0.930 . S
H302 C297 0.931 . S
Co303 N300 2.135 . S
Co303 N306 2.121 1_565 S
Co303 O311 2.055 . S
Co303 O314 2.039 . S
Co303 N317 2.140 1_565 S
C304 O305 1.227 . S
C304 O314 1.265 . S
O305 C304 1.227 . S
N306 Co303 2.121 1_545 S
N306 C308 1.375 . S
N306 C309 1.313 . S
C307 C308 1.338 . S
C307 N310 1.377 . S
C307 H327 0.930 . S
C308 N306 1.375 . S
C308 C307 1.338 . S
C308 H312 0.931 . S
C309 N306 1.313 . S
C309 N310 1.344 . S
C309 H313 0.930 . S
N310 C307 1.377 . S
N310 C309 1.344 . S
O311 Co303 2.055 . S
O311 C315 1.253 . S
H312 C308 0.931 . S
H313 C309 0.930 . S
O314 Co303 2.039 . S
O314 C304 1.265 . S
C315 O311 1.253 . S
C315 O316 1.227 . S
O316 C315 1.227 . S
N317 Co303 2.140 1_545 S
N317 C320 1.349 . S
N317 C321 1.345 . S
C318 C319 1.387 . S
C318 C322 1.391 . S
C319 C318 1.387 . S
C319 C320 1.377 . S
C319 H328 0.929 . S
C320 N317 1.349 . S
C320 C319 1.377 . S
C320 H323 0.917 1_545 S
C321 N317 1.345 . S
C321 C322 1.371 . S
C321 H324 0.931 . S
C322 C318 1.391 . S
C322 C321 1.371 . S
C322 H329 0.930 . S
H323 C320 0.917 1_565 S
H324 C321 0.931 . S
H325 C301 0.930 . S
H326 C298 0.930 . S
H327 C307 0.930 . S
H328 C319 0.929 . S
H329 C322 0.930 . S
C330 C331 1.351 . S
C330 N333 1.368 . S
C330 H335 0.931 . S
C331 C330 1.351 . S
C331 N332 1.373 . S
C331 H359 0.930 . S
N332 C331 1.373 . S
N332 C334 1.340 . S
N333 C330 1.368 . S
N333 C334 1.321 . S
N333 Co336 2.135 . S
C334 N332 1.340 . S
C334 N333 1.321 . S
C334 H358 0.930 . S
H335 C330 0.931 . S
Co336 N333 2.135 . S
Co336 N339 2.121 . S
Co336 O344 2.055 . S
Co336 O347 2.039 . S
Co336 N350 2.140 . S
C337 O338 1.227 . S
C337 O347 1.265 . S
O338 C337 1.227 . S
N339 Co336 2.121 . S
N339 C341 1.375 . S
N339 C342 1.313 . S
C340 C341 1.338 . S
C340 N343 1.377 . S
C340 H360 0.930 . S
C341 N339 1.375 . S
C341 C340 1.338 . S
C341 H345 0.931 . S
C342 N339 1.313 . S
C342 N343 1.344 . S
C342 H346 0.930 . S
N343 C340 1.377 . S
N343 C342 1.344 . S
O344 Co336 2.055 . S
O344 C348 1.253 . S
H345 C341 0.931 . S
H346 C342 0.930 . S
O347 Co336 2.039 . S
O347 C337 1.265 . S
C348 O344 1.253 . S
C348 O349 1.227 . S
O349 C348 1.227 . S
N350 Co336 2.140 . S
N350 C353 1.346 . S
N350 C354 1.345 . S
C351 C352 1.387 . S
C351 C355 1.391 . S
C352 C351 1.387 . S
C352 C353 1.369 . S
C352 H361 0.929 . S
C353 N350 1.346 . S
C353 C352 1.369 . S
C353 H356 0.928 . S
C354 N350 1.345 . S
C354 C355 1.371 . S
C354 H357 0.931 . S
C355 C351 1.391 . S
C355 C354 1.371 . S
C355 H362 0.930 . S
H356 C353 0.928 . S
H357 C354 0.931 . S
H358 C334 0.930 . S
H359 C331 0.930 . S
H360 C340 0.930 . S
H361 C352 0.929 . S
H362 C355 0.930 . S
C363 C364 1.351 . S
C363 N366 1.368 . S
C363 H368 0.931 . S
C364 C363 1.351 . S
C364 N365 1.373 . S
C364 H392 0.930 . S
N365 C364 1.373 . S
N365 C367 1.340 . S
N366 C363 1.368 . S
N366 C367 1.321 . S
N366 Co369 2.135 . S
C367 N365 1.340 . S
C367 N366 1.321 . S
C367 H391 0.930 . S
H368 C363 0.931 . S
Co369 N366 2.135 . S
Co369 N372 2.121 . S
Co369 O377 2.055 . S
Co369 O380 2.039 . S
Co369 N383 2.140 . S
C370 O371 1.227 . S
C370 O380 1.265 . S
O371 C370 1.227 . S
N372 Co369 2.121 . S
N372 C374 1.375 . S
N372 C375 1.313 . S
C373 C374 1.338 . S
C373 N376 1.377 . S
C373 H393 0.930 . S
C374 N372 1.375 . S
C374 C373 1.338 . S
C374 H378 0.931 . S
C375 N372 1.313 . S
C375 N376 1.344 . S
C375 H379 0.930 . S
N376 C373 1.377 . S
N376 C375 1.344 . S
O377 Co369 2.055 . S
O377 C381 1.253 . S
H378 C374 0.931 . S
H379 C375 0.930 . S
O380 Co369 2.039 . S
O380 C370 1.265 . S
C381 O377 1.253 . S
C381 O382 1.227 . S
O382 C381 1.227 . S
N383 Co369 2.140 . S
N383 C386 1.346 . S
N383 C387 1.345 . S
C384 C385 1.387 . S
C384 C388 1.391 . S
C385 C384 1.387 . S
C385 C386 1.369 . S
C385 H394 0.929 . S
C386 N383 1.346 . S
C386 C385 1.369 . S
C386 H389 0.928 . S
C387 N383 1.345 . S
C387 C388 1.371 . S
C387 H390 0.931 . S
C388 C384 1.391 . S
C388 C387 1.371 . S
C388 H395 0.930 . S
H389 C386 0.928 . S
H390 C387 0.931 . S
H391 C367 0.930 . S
H392 C364 0.930 . S
H393 C373 0.930 . S
H394 C385 0.929 . S
H395 C388 0.930 . S
C396 C397 1.351 . S
C396 N399 1.368 . S
C396 H401 0.931 . S
C397 C396 1.351 . S
C397 N398 1.373 . S
C397 H425 0.930 . S
N398 C397 1.373 . S
N398 C400 1.340 . S
N399 C396 1.368 . S
N399 C400 1.321 . S
N399 Co402 2.135 . S
C400 N398 1.340 . S
C400 N399 1.321 . S
C400 H424 0.930 . S
H401 C396 0.931 . S
Co402 N399 2.135 . S
Co402 N405 2.121 1_655 S
Co402 O410 2.055 . S
Co402 O413 2.039 . S
Co402 N416 2.140 1_655 S
C403 O404 1.227 . S
C403 O413 1.265 . S
O404 C403 1.227 . S
N405 Co402 2.121 1_455 S
N405 C407 1.375 . S
N405 C408 1.313 . S
C406 C407 1.338 . S
C406 N409 1.377 . S
C406 H426 0.930 . S
C407 N405 1.375 . S
C407 C406 1.338 . S
C407 H411 0.931 . S
C408 N405 1.313 . S
C408 N409 1.344 . S
C408 H412 0.930 . S
N409 C406 1.377 . S
N409 C408 1.344 . S
O410 Co402 2.055 . S
O410 C414 1.253 . S
H411 C407 0.931 . S
H412 C408 0.930 . S
O413 Co402 2.039 . S
O413 C403 1.265 . S
C414 O410 1.253 . S
C414 O415 1.227 . S
O415 C414 1.227 . S
N416 Co402 2.140 1_455 S
N416 C419 1.349 . S
N416 C420 1.345 . S
C417 C418 1.387 . S
C417 C421 1.391 . S
C418 C417 1.387 . S
C418 C419 1.377 . S
C418 H427 0.929 . S
C419 N416 1.349 . S
C419 C418 1.377 . S
C419 H422 0.917 1_455 S
C420 N416 1.345 . S
C420 C421 1.371 . S
C420 H423 0.931 . S
C421 C417 1.391 . S
C421 C420 1.371 . S
C421 H428 0.930 . S
H422 C419 0.917 1_655 S
H423 C420 0.931 . S
H424 C400 0.930 . S
H425 C397 0.930 . S
H426 C406 0.930 . S
H427 C418 0.929 . S
H428 C421 0.930 . S
C429 C430 1.351 . S
C429 N432 1.368 . S
C429 H434 0.931 . S
C430 C429 1.351 . S
C430 N431 1.373 . S
C430 H458 0.930 . S
N431 C430 1.373 . S
N431 C433 1.340 . S
N432 C429 1.368 . S
N432 C433 1.321 . S
N432 Co435 2.135 . S
C433 N431 1.340 . S
C433 N432 1.321 . S
C433 H457 0.930 . S
H434 C429 0.931 . S
Co435 N432 2.135 . S
Co435 N438 2.121 1_565 S
Co435 O443 2.055 . S
Co435 O446 2.039 . S
Co435 N449 2.140 1_565 S
C436 O437 1.227 . S
C436 O446 1.265 . S
O437 C436 1.227 . S
N438 Co435 2.121 1_545 S
N438 C440 1.375 . S
N438 C441 1.313 . S
C439 C440 1.338 . S
C439 N442 1.377 . S
C439 H459 0.930 . S
C440 N438 1.375 . S
C440 C439 1.338 . S
C440 H444 0.931 . S
C441 N438 1.313 . S
C441 N442 1.344 . S
C441 H445 0.930 . S
N442 C439 1.377 . S
N442 C441 1.344 . S
O443 Co435 2.055 . S
O443 C447 1.253 . S
H444 C440 0.931 . S
H445 C441 0.930 . S
O446 Co435 2.039 . S
O446 C436 1.265 . S
C447 O443 1.253 . S
C447 O448 1.227 . S
O448 C447 1.227 . S
N449 Co435 2.140 1_545 S
N449 C452 1.349 . S
N449 C453 1.345 . S
C450 C451 1.387 . S
C450 C454 1.391 . S
C451 C450 1.387 . S
C451 C452 1.377 . S
C451 H460 0.929 . S
C452 N449 1.349 . S
C452 C451 1.377 . S
C452 H455 0.917 1_545 S
C453 N449 1.345 . S
C453 C454 1.371 . S
C453 H456 0.931 . S
C454 C450 1.391 . S
C454 C453 1.371 . S
C454 H461 0.930 . S
H455 C452 0.917 1_565 S
H456 C453 0.931 . S
H457 C433 0.930 . S
H458 C430 0.930 . S
H459 C439 0.930 . S
H460 C451 0.929 . S
H461 C454 0.930 . S
C462 C463 1.351 . S
C462 N465 1.368 . S
C462 H467 0.931 . S
C463 C462 1.351 . S
C463 N464 1.373 . S
C463 H491 0.930 . S
N464 C463 1.373 . S
N464 C466 1.340 . S
N465 C462 1.368 . S
N465 C466 1.321 . S
N465 Co468 2.135 . S
C466 N464 1.340 . S
C466 N465 1.321 . S
C466 H490 0.930 . S
H467 C462 0.931 . S
Co468 N465 2.135 . S
Co468 N471 2.121 . S
Co468 O476 2.055 . S
Co468 O479 2.039 . S
Co468 N482 2.140 . S
C469 O470 1.227 . S
C469 O479 1.265 . S
O470 C469 1.227 . S
N471 Co468 2.121 . S
N471 C473 1.375 . S
N471 C474 1.313 . S
C472 C473 1.338 . S
C472 N475 1.377 . S
C472 H492 0.930 . S
C473 N471 1.375 . S
C473 C472 1.338 . S
C473 H477 0.931 . S
C474 N471 1.313 . S
C474 N475 1.344 . S
C474 H478 0.930 . S
N475 C472 1.377 . S
N475 C474 1.344 . S
O476 Co468 2.055 . S
O476 C480 1.253 . S
H477 C473 0.931 . S
H478 C474 0.930 . S
O479 Co468 2.039 . S
O479 C469 1.265 . S
C480 O476 1.253 . S
C480 O481 1.227 . S
O481 C480 1.227 . S
N482 Co468 2.140 . S
N482 C485 1.346 . S
N482 C486 1.345 . S
C483 C484 1.387 . S
C483 C487 1.391 . S
C484 C483 1.387 . S
C484 C485 1.369 . S
C484 H493 0.929 . S
C485 N482 1.346 . S
C485 C484 1.369 . S
C485 H488 0.928 . S
C486 N482 1.345 . S
C486 C487 1.371 . S
C486 H489 0.931 . S
C487 C483 1.391 . S
C487 C486 1.371 . S
C487 H494 0.930 . S
H488 C485 0.928 . S
H489 C486 0.931 . S
H490 C466 0.930 . S
H491 C463 0.930 . S
H492 C472 0.930 . S
H493 C484 0.929 . S
H494 C487 0.930 . S
C495 C496 1.351 . S
C495 N498 1.368 . S
C495 H500 0.931 . S
C496 C495 1.351 . S
C496 N497 1.373 . S
C496 H524 0.930 . S
N497 C496 1.373 . S
N497 C499 1.340 . S
N498 C495 1.368 . S
N498 C499 1.321 . S
N498 Co501 2.135 . S
C499 N497 1.340 . S
C499 N498 1.321 . S
C499 H523 0.930 . S
H500 C495 0.931 . S
Co501 N498 2.135 . S
Co501 N504 2.121 . S
Co501 O509 2.055 . S
Co501 O512 2.039 . S
Co501 N515 2.140 . S
C502 O503 1.227 . S
C502 O512 1.265 . S
O503 C502 1.227 . S
N504 Co501 2.121 . S
N504 C506 1.375 . S
N504 C507 1.313 . S
C505 C506 1.338 . S
C505 N508 1.377 . S
C505 H525 0.930 . S
C506 N504 1.375 . S
C506 C505 1.338 . S
C506 H510 0.931 . S
C507 N504 1.313 . S
C507 N508 1.344 . S
C507 H511 0.930 . S
N508 C505 1.377 . S
N508 C507 1.344 . S
O509 Co501 2.055 . S
O509 C513 1.253 . S
H510 C506 0.931 . S
H511 C507 0.930 . S
O512 Co501 2.039 . S
O512 C502 1.265 . S
C513 O509 1.253 . S
C513 O514 1.227 . S
O514 C513 1.227 . S
N515 Co501 2.140 . S
N515 C518 1.346 . S
N515 C519 1.345 . S
C516 C517 1.387 . S
C516 C520 1.391 . S
C517 C516 1.387 . S
C517 C518 1.369 . S
C517 H526 0.929 . S
C518 N515 1.346 . S
C518 C517 1.369 . S
C518 H521 0.928 . S
C519 N515 1.345 . S
C519 C520 1.371 . S
C519 H522 0.931 . S
C520 C516 1.391 . S
C520 C519 1.371 . S
C520 H527 0.930 . S
H521 C518 0.928 . S
H522 C519 0.931 . S
H523 C499 0.930 . S
H524 C496 0.930 . S
H525 C505 0.930 . S
H526 C517 0.929 . S
H527 C520 0.930 . S
H528 C534 0.930 . S
H529 C537 0.930 . S
H530 C538 0.930 1_655 S
H531 C539 0.930 . S
H532 C542 0.930 . S
H533 C543 0.930 . S
C534 H528 0.930 . S
C534 C535 1.355 . S
C534 C536 1.415 . S
C535 C534 1.355 . S
C535 C537 1.419 1_455 S
C536 C534 1.415 . S
C536 C541 1.425 . S
C536 C543 1.409 . S
C537 H529 0.930 . S
C537 C535 1.419 1_655 S
C537 C538 1.362 1_655 S
C538 H530 0.930 1_455 S
C538 C537 1.362 1_455 S
C538 C541 1.409 . S
C539 H531 0.930 . S
C539 C540 1.355 . S
C539 C541 1.415 . S
C540 C539 1.355 . S
C540 C542 1.419 . S
C541 C536 1.425 . S
C541 C538 1.409 . S
C541 C539 1.415 . S
C542 H532 0.930 . S
C542 C540 1.419 . S
C542 C543 1.362 . S
C543 H533 0.930 . S
C543 C536 1.409 . S
C543 C542 1.362 . S
H544 C550 0.930 1_565 S
H545 C553 0.930 . S
H546 C554 0.930 . S
H547 C555 0.930 . S
H548 C558 0.930 . S
H549 C559 0.921 1_565 S
C550 H544 0.930 1_545 S
C550 C551 1.355 . S
C550 C552 1.415 . S
C551 C550 1.355 . S
C551 C553 1.419 . S
C552 C550 1.415 . S
C552 C557 1.425 . S
C552 C559 1.409 . S
C553 H545 0.930 . S
C553 C551 1.419 . S
C553 C554 1.362 . S
C554 H546 0.930 . S
C554 C553 1.362 . S
C554 C557 1.409 . S
C555 H547 0.930 . S
C555 C556 1.355 . S
C555 C557 1.415 . S
C556 C555 1.355 . S
C556 C558 1.419 . S
C557 C552 1.425 . S
C557 C554 1.409 . S
C557 C555 1.415 . S
C558 H548 0.930 . S
C558 C556 1.419 . S
C558 C559 1.362 . S
C559 H549 0.921 1_545 S
C559 C552 1.409 . S
C559 C558 1.362 . S
H560 C566 0.930 . S
H561 C569 0.930 . S
H562 C570 0.930 . S
H563 C571 0.930 . S
H564 C574 0.930 . S
H565 C575 0.930 . S
C566 H560 0.930 . S
C566 C567 1.355 . S
C566 C568 1.415 . S
C567 C566 1.355 . S
C567 C569 1.419 . S
C568 C566 1.415 . S
C568 C573 1.425 . S
C568 C575 1.409 . S
C569 H561 0.930 . S
C569 C567 1.419 . S
C569 C570 1.362 . S
C570 H562 0.930 . S
C570 C569 1.362 . S
C570 C573 1.409 . S
C571 H563 0.930 . S
C571 C572 1.355 . S
C571 C573 1.415 . S
C572 C571 1.355 . S
C572 C574 1.419 . S
C573 C568 1.425 . S
C573 C570 1.409 . S
C573 C571 1.415 . S
C574 H564 0.930 . S
C574 C572 1.419 . S
C574 C575 1.362 . S
C575 H565 0.930 . S
C575 C568 1.409 . S
C575 C574 1.362 . S
H576 C582 0.930 . S
H577 C585 0.930 . S
H578 C586 0.930 . S
H579 C587 0.930 . S
H580 C590 0.930 . S
H581 C591 0.930 . S
C582 H576 0.930 . S
C582 C583 1.355 . S
C582 C584 1.415 . S
C583 C582 1.355 . S
C583 C585 1.419 . S
C584 C582 1.415 . S
C584 C589 1.425 . S
C584 C591 1.409 . S
C585 H577 0.930 . S
C585 C583 1.419 . S
C585 C586 1.362 . S
C586 H578 0.930 . S
C586 C585 1.362 . S
C586 C589 1.409 . S
C587 H579 0.930 . S
C587 C588 1.355 . S
C587 C589 1.415 . S
C588 C587 1.355 . S
C588 C590 1.419 . S
C589 C584 1.425 . S
C589 C586 1.409 . S
C589 C587 1.415 . S
C590 H580 0.930 . S
C590 C588 1.419 . S
C590 C591 1.362 . S
C591 H581 0.930 . S
C591 C584 1.409 . S
C591 C590 1.362 . S
H592 C598 0.930 1_455 S
H593 C601 0.930 . S
H594 C602 0.930 . S
H595 C603 0.930 . S
H596 C606 0.930 . S
H597 C607 0.930 . S
C598 H592 0.930 1_655 S
C598 C599 1.355 . S
C598 C600 1.415 . S
C599 C598 1.355 . S
C599 C601 1.419 . S
C600 C598 1.415 . S
C600 C605 1.425 . S
C600 C607 1.409 . S
C601 H593 0.930 . S
C601 C599 1.419 . S
C601 C602 1.362 . S
C602 H594 0.930 . S
C602 C601 1.362 . S
C602 C605 1.409 . S
C603 H595 0.930 . S
C603 C604 1.355 . S
C603 C605 1.415 . S
C604 C603 1.355 . S
C604 C606 1.419 . S
C605 C600 1.425 . S
C605 C602 1.409 . S
C605 C603 1.415 . S
C606 H596 0.930 . S
C606 C604 1.419 . S
C606 C607 1.362 . S
C607 H597 0.930 . S
C607 C600 1.409 . S
C607 C606 1.362 . S
H608 C614 0.930 . S
H609 C617 0.930 . S
H610 C618 0.930 . S
H611 C619 0.930 . S
H612 C622 0.930 . S
H613 C623 0.930 . S
C614 H608 0.930 . S
C614 C615 1.355 . S
C614 C616 1.415 . S
C615 C614 1.355 . S
C615 C617 1.419 . S
C616 C614 1.415 . S
C616 C621 1.425 . S
C616 C623 1.409 . S
C617 H609 0.930 . S
C617 C615 1.419 . S
C617 C618 1.362 . S
C618 H610 0.930 . S
C618 C617 1.362 . S
C618 C621 1.409 . S
C619 H611 0.930 . S
C619 C620 1.355 . S
C619 C621 1.415 . S
C620 C619 1.355 . S
C620 C622 1.419 . S
C621 C616 1.425 . S
C621 C618 1.409 . S
C621 C619 1.415 . S
C622 H612 0.930 . S
C622 C620 1.419 . S
C622 C623 1.362 . S
C623 H613 0.930 . S
C623 C616 1.409 . S
C623 C622 1.362 . S
H624 C630 0.930 . S
H625 C633 0.930 . S
H626 C634 0.930 . S
H627 C635 0.930 . S
H628 C638 0.930 . S
H629 C639 0.930 . S
C630 H624 0.930 . S
C630 C631 1.355 . S
C630 C632 1.415 . S
C631 C630 1.355 . S
C631 C633 1.419 . S
C632 C630 1.415 . S
C632 C637 1.425 . S
C632 C639 1.409 . S
C633 H625 0.930 . S
C633 C631 1.419 . S
C633 C634 1.362 . S
C634 H626 0.930 . S
C634 C633 1.362 . S
C634 C637 1.409 . S
C635 H627 0.930 . S
C635 C636 1.355 . S
C635 C637 1.415 . S
C636 C635 1.355 . S
C636 C638 1.419 . S
C637 C632 1.425 . S
C637 C634 1.409 . S
C637 C635 1.415 . S
C638 H628 0.930 . S
C638 C636 1.419 . S
C638 C639 1.362 . S
C639 H629 0.930 . S
C639 C632 1.409 . S
C639 C638 1.362 . S
H640 C646 0.930 . S
H641 C649 0.930 . S
H642 C650 0.930 1_455 S
H643 C651 0.930 1_455 S
H644 C654 0.930 . S
H645 C655 0.930 . S
C646 H640 0.930 . S
C646 C647 1.355 . S
C646 C648 1.415 . S
C647 C646 1.355 . S
C647 C649 1.419 . S
C648 C646 1.415 . S
C648 C653 1.425 . S
C648 C655 1.409 . S
C649 H641 0.930 . S
C649 C647 1.419 . S
C649 C650 1.362 . S
C650 H642 0.930 1_655 S
C650 C649 1.362 . S
C650 C653 1.409 . S
C651 H643 0.930 1_655 S
C651 C652 1.355 . S
C651 C653 1.415 . S
C652 C651 1.355 . S
C652 C654 1.419 . S
C653 C648 1.425 . S
C653 C650 1.409 . S
C653 C651 1.415 . S
C654 H644 0.930 . S
C654 C652 1.419 . S
C654 C655 1.362 . S
C655 H645 0.930 . S
C655 C648 1.409 . S
C655 C654 1.362 . S
H656 C662 0.930 . S
H657 C665 0.930 . S
H658 C666 0.930 . S
H659 C667 0.930 . S
H660 C670 0.930 . S
H661 C671 0.930 . S
C662 H656 0.930 . S
C662 C663 1.355 . S
C662 C664 1.415 1_465 S
C663 C662 1.355 . S
C663 C665 1.419 . S
C664 C662 1.415 1_645 S
C664 C669 1.425 1_645 S
C664 C671 1.409 . S
C665 H657 0.930 . S
C665 C663 1.419 . S
C665 C666 1.362 . S
C666 H658 0.930 . S
C666 C665 1.362 . S
C666 C669 1.409 . S
C667 H659 0.930 . S
C667 C668 1.355 . S
C667 C669 1.415 1_645 S
C668 C667 1.355 . S
C668 C670 1.419 . S
C669 C664 1.425 1_465 S
C669 C666 1.409 . S
C669 C667 1.415 1_465 S
C670 H660 0.930 . S
C670 C668 1.419 . S
C670 C671 1.362 . S
C671 H661 0.930 . S
C671 C664 1.409 . S
C671 C670 1.362 . S
H672 C678 0.930 . S
H673 C681 0.930 . S
H674 C682 0.930 . S
H675 C683 0.930 . S
H676 C686 0.930 . S
H677 C687 0.930 . S
C678 H672 0.930 . S
C678 C679 1.355 . S
C678 C680 1.415 1_545 S
C679 C678 1.355 . S
C679 C681 1.419 . S
C680 C678 1.415 1_565 S
C680 C685 1.425 1_565 S
C680 C687 1.409 . S
C681 H673 0.930 . S
C681 C679 1.419 . S
C681 C682 1.362 . S
C682 H674 0.930 . S
C682 C681 1.362 . S
C682 C685 1.409 . S
C683 H675 0.930 . S
C683 C684 1.355 . S
C683 C685 1.415 1_565 S
C684 C683 1.355 . S
C684 C686 1.419 . S
C685 C680 1.425 1_545 S
C685 C682 1.409 . S
C685 C683 1.415 1_545 S
C686 H676 0.930 . S
C686 C684 1.419 . S
C686 C687 1.362 . S
C687 H677 0.930 . S
C687 C680 1.409 . S
C687 C686 1.362 . S
H688 C694 0.930 . S
H689 C697 0.930 . S
H690 C698 0.930 . S
H691 C699 0.930 . S
H692 C702 0.930 . S
H693 C703 0.930 . S
C694 H688 0.930 . S
C694 C695 1.355 . S
C694 C696 1.415 . S
C695 C694 1.355 . S
C695 C697 1.419 . S
C696 C694 1.415 . S
C696 C701 1.425 . S
C696 C703 1.409 . S
C697 H689 0.930 . S
C697 C695 1.419 . S
C697 C698 1.362 . S
C698 H690 0.930 . S
C698 C697 1.362 . S
C698 C701 1.409 . S
C699 H691 0.930 . S
C699 C700 1.355 . S
C699 C701 1.415 . S
C700 C699 1.355 . S
C700 C702 1.419 . S
C701 C696 1.425 . S
C701 C698 1.409 . S
C701 C699 1.415 . S
C702 H692 0.930 . S
C702 C700 1.419 . S
C702 C703 1.362 . S
C703 H693 0.930 . S
C703 C696 1.409 . S
C703 C702 1.362 . S
H704 C710 0.930 . S
H705 C713 0.930 . S
H706 C714 0.930 . S
H707 C715 0.930 . S
H708 C718 0.930 . S
H709 C719 0.930 . S
C710 H704 0.930 . S
C710 C711 1.355 . S
C710 C712 1.418 . S
C711 C710 1.355 . S
C711 C713 1.419 . S
C712 C710 1.418 . S
C712 C717 1.425 1_655 S
C712 C719 1.406 1_655 S
C713 H705 0.930 . S
C713 C711 1.419 . S
C713 C714 1.362 . S
C714 H706 0.930 . S
C714 C713 1.362 . S
C714 C717 1.406 1_655 S
C715 H707 0.930 . S
C715 C716 1.355 . S
C715 C717 1.418 . S
C716 C715 1.355 . S
C716 C718 1.419 . S
C717 C712 1.425 1_455 S
C717 C714 1.406 1_455 S
C717 C715 1.418 . S
C718 H708 0.930 . S
C718 C716 1.419 . S
C718 C719 1.362 . S
C719 H709 0.930 . S
C719 C712 1.406 1_455 S
C719 C718 1.362 . S
H720 C726 0.930 1_455 S
H721 C729 0.933 . S
H722 C730 0.930 . S
H723 C731 0.930 1_655 S
H724 C734 0.933 . S
H725 C735 0.930 . S
C726 H720 0.930 1_655 S
C726 C727 1.355 . S
C726 C728 1.415 1_655 S
C727 C726 1.355 . S
C727 C729 1.419 . S
C728 C726 1.415 1_455 S
C728 C733 1.425 1_456 S
C728 C735 1.409 . S
C729 H721 0.933 . S
C729 C727 1.419 . S
C729 C730 1.362 1_556 S
C730 H722 0.930 . S
C730 C729 1.362 1_554 S
C730 C733 1.409 . S
C731 H723 0.930 1_455 S
C731 C732 1.355 . S
C731 C733 1.415 1_455 S
C732 C731 1.355 . S
C732 C734 1.419 . S
C733 C728 1.425 1_654 S
C733 C730 1.409 . S
C733 C731 1.415 1_655 S
C734 H724 0.933 . S
C734 C732 1.419 . S
C734 C735 1.362 1_554 S
C735 H725 0.930 . S
C735 C728 1.409 . S
C735 C734 1.362 1_556 S
H736 C742 0.930 . S
H737 C745 0.930 . S
H738 C746 0.930 . S
H739 C747 0.930 . S
H740 C750 0.930 . S
H741 C751 0.930 . S
C742 H736 0.930 . S
C742 C743 1.355 . S
C742 C744 1.415 1_566 S
C743 C742 1.355 . S
C743 C745 1.419 . S
C744 C742 1.415 1_544 S
C744 C749 1.425 1_444 S
C744 C751 1.409 . S
C745 H737 0.930 . S
C745 C743 1.419 . S
C745 C746 1.362 1_455 S
C746 H738 0.930 . S
C746 C745 1.362 1_655 S
C746 C749 1.409 . S
C747 H739 0.930 . S
C747 C748 1.355 . S
C747 C749 1.415 1_544 S
C748 C747 1.355 . S
C748 C750 1.419 . S
C749 C744 1.425 1_666 S
C749 C746 1.409 . S
C749 C747 1.415 1_566 S
C750 H740 0.930 . S
C750 C748 1.419 . S
C750 C751 1.362 1_655 S
C751 H741 0.930 . S
C751 C744 1.409 . S
C751 C750 1.362 1_455 S
H752 C758 0.930 1_554 S
H753 C761 0.930 . S
H754 C762 0.930 . S
H755 C763 0.930 1_556 S
H756 C766 0.930 . S
H757 C767 0.930 . S
C758 H752 0.930 1_556 S
C758 C759 1.355 . S
C758 C760 1.415 1_556 S
C759 C758 1.355 . S
C759 C761 1.419 . S
C760 C758 1.415 1_554 S
C760 C765 1.425 1_544 S
C760 C767 1.409 . S
C761 H753 0.930 . S
C761 C759 1.419 . S
C761 C762 1.362 1_545 S
C762 H754 0.930 . S
C762 C761 1.362 1_565 S
C762 C765 1.409 . S
C763 H755 0.930 1_554 S
C763 C764 1.355 . S
C763 C765 1.415 1_554 S
C764 C763 1.355 . S
C764 C766 1.419 . S
C765 C760 1.425 1_566 S
C765 C762 1.409 . S
C765 C763 1.415 1_556 S
C766 H756 0.930 . S
C766 C764 1.419 . S
C766 C767 1.362 1_565 S
C767 H757 0.930 . S
C767 C760 1.409 . S
C767 C766 1.362 1_545 S
H768 C774 0.930 1_554 S
H769 C777 0.930 . S
H770 C778 0.930 . S
H771 C779 0.930 1_556 S
H772 C782 0.930 . S
H773 C783 0.930 . S
C774 H768 0.930 1_556 S
C774 C775 1.355 . S
C774 C776 1.415 1_556 S
C775 C774 1.355 . S
C775 C777 1.419 . S
C776 C774 1.415 1_554 S
C776 C781 1.425 1_554 S
C776 C783 1.409 . S
C777 H769 0.930 . S
C777 C775 1.419 . S
C777 C778 1.362 . S
C778 H770 0.930 . S
C778 C777 1.362 . S
C778 C781 1.409 . S
C779 H771 0.930 1_554 S
C779 C780 1.355 . S
C779 C781 1.415 1_554 S
C780 C779 1.355 . S
C780 C782 1.419 . S
C781 C776 1.425 1_556 S
C781 C778 1.409 . S
C781 C779 1.415 1_556 S
C782 H772 0.930 . S
C782 C780 1.419 . S
C782 C783 1.362 . S
C783 H773 0.930 . S
C783 C776 1.409 . S
C783 C782 1.362 . S
H784 C790 0.930 . S
H785 C793 0.930 . S
H786 C794 0.930 . S
H787 C795 0.930 . S
H788 C798 0.930 . S
H789 C799 0.930 . S
C790 H784 0.930 . S
C790 C791 1.355 . S
C790 C792 1.415 . S
C791 C790 1.355 . S
C791 C793 1.419 . S
C792 C790 1.415 . S
C792 C797 1.425 . S
C792 C799 1.409 . S
C793 H785 0.930 . S
C793 C791 1.419 . S
C793 C794 1.362 . S
C794 H786 0.930 . S
C794 C793 1.362 . S
C794 C797 1.409 . S
C795 H787 0.930 . S
C795 C796 1.355 . S
C795 C797 1.415 . S
C796 C795 1.355 . S
C796 C798 1.419 . S
C797 C792 1.425 . S
C797 C794 1.409 . S
C797 C795 1.415 . S
C798 H788 0.930 . S
C798 C796 1.419 . S
C798 C799 1.362 . S
C799 H789 0.930 . S
C799 C792 1.409 . S
C799 C798 1.362 . S
H800 C806 0.930 . S
H801 C809 0.930 . S
H802 C810 0.930 . S
H803 C811 0.930 . S
H804 C814 0.930 . S
H805 C815 0.930 . S
C806 H800 0.930 . S
C806 C807 1.355 . S
C806 C808 1.415 . S
C807 C806 1.355 . S
C807 C809 1.419 . S
C808 C806 1.415 . S
C808 C813 1.425 . S
C808 C815 1.409 . S
C809 H801 0.930 . S
C809 C807 1.419 . S
C809 C810 1.362 . S
C810 H802 0.930 . S
C810 C809 1.362 . S
C810 C813 1.409 . S
C811 H803 0.930 . S
C811 C812 1.355 . S
C811 C813 1.415 . S
C812 C811 1.355 . S
C812 C814 1.419 . S
C813 C808 1.425 . S
C813 C810 1.409 . S
C813 C811 1.415 . S
C814 H804 0.930 . S
C814 C812 1.419 . S
C814 C815 1.362 . S
C815 H805 0.930 . S
C815 C808 1.409 . S
C815 C814 1.362 . S
H816 C822 0.930 . S
H817 C825 0.930 . S
H818 C826 0.930 . S
H819 C827 0.930 . S
H820 C830 0.930 . S
H821 C831 0.930 . S
C822 H816 0.930 . S
C822 C823 1.355 . S
C822 C824 1.415 . S
C823 C822 1.355 . S
C823 C825 1.419 . S
C824 C822 1.415 . S
C824 C829 1.425 . S
C824 C831 1.409 . S
C825 H817 0.930 . S
C825 C823 1.419 . S
C825 C826 1.362 . S
C826 H818 0.930 . S
C826 C825 1.362 . S
C826 C829 1.409 . S
C827 H819 0.930 . S
C827 C828 1.355 . S
C827 C829 1.415 . S
C828 C827 1.355 . S
C828 C830 1.419 . S
C829 C824 1.425 . S
C829 C826 1.409 . S
C829 C827 1.415 . S
C830 H820 0.930 . S
C830 C828 1.419 . S
C830 C831 1.362 . S
C831 H821 0.930 . S
C831 C824 1.409 . S
C831 C830 1.362 . S
H832 C838 0.930 . S
H833 C841 0.930 . S
H834 C842 0.930 . S
H835 C843 0.930 . S
H836 C846 0.930 . S
H837 C847 0.930 . S
C838 H832 0.930 . S
C838 C839 1.355 . S
C838 C840 1.415 . S
C839 C838 1.355 . S
C839 C841 1.419 . S
C840 C838 1.415 . S
C840 C845 1.425 . S
C840 C847 1.409 . S
C841 H833 0.930 . S
C841 C839 1.419 . S
C841 C842 1.362 . S
C842 H834 0.930 . S
C842 C841 1.362 . S
C842 C845 1.409 . S
C843 H835 0.930 . S
C843 C844 1.355 . S
C843 C845 1.415 . S
C844 C843 1.355 . S
C844 C846 1.419 . S
C845 C840 1.425 . S
C845 C842 1.409 . S
C845 C843 1.415 . S
C846 H836 0.930 . S
C846 C844 1.419 . S
C846 C847 1.362 . S
C847 H837 0.930 . S
C847 C840 1.409 . S
C847 C846 1.362 . S
H848 C854 0.930 . S
H849 C857 0.930 . S
H850 C858 0.930 . S
H851 C859 0.930 . S
H852 C862 0.930 . S
H853 C863 0.930 . S
C854 H848 0.930 . S
C854 C855 1.355 . S
C854 C856 1.415 . S
C855 C854 1.355 . S
C855 C857 1.419 . S
C856 C854 1.415 . S
C856 C861 1.425 . S
C856 C863 1.409 . S
C857 H849 0.930 . S
C857 C855 1.419 . S
C857 C858 1.362 . S
C858 H850 0.930 . S
C858 C857 1.362 . S
C858 C861 1.409 . S
C859 H851 0.930 . S
C859 C860 1.355 . S
C859 C861 1.415 . S
C860 C859 1.355 . S
C860 C862 1.419 . S
C861 C856 1.425 . S
C861 C858 1.409 . S
C861 C859 1.415 . S
C862 H852 0.930 . S
C862 C860 1.419 . S
C862 C863 1.362 . S
C863 H853 0.930 . S
C863 C856 1.409 . S
C863 C862 1.362 . S
H864 C870 0.930 . S
H865 C873 0.930 . S
H866 C874 0.930 . S
H867 C875 0.930 . S
H868 C878 0.930 . S
H869 C879 0.930 . S
C870 H864 0.930 . S
C870 C871 1.355 . S
C870 C872 1.415 . S
C871 C870 1.355 . S
C871 C873 1.419 . S
C872 C870 1.415 . S
C872 C877 1.425 . S
C872 C879 1.409 . S
C873 H865 0.930 . S
C873 C871 1.419 . S
C873 C874 1.362 . S
C874 H866 0.930 . S
C874 C873 1.362 . S
C874 C877 1.409 . S
C875 H867 0.930 . S
C875 C876 1.355 . S
C875 C877 1.415 . S
C876 C875 1.355 . S
C876 C878 1.419 . S
C877 C872 1.425 . S
C877 C874 1.409 . S
C877 C875 1.415 . S
C878 H868 0.930 . S
C878 C876 1.419 . S
C878 C879 1.362 . S
C879 H869 0.930 . S
C879 C872 1.409 . S
C879 C878 1.362 . S
H880 C886 0.930 . S
H881 C889 0.930 . S
H882 C890 0.930 . S
H883 C891 0.930 . S
H884 C894 0.930 . S
H885 C895 0.930 . S
C886 H880 0.930 . S
C886 C887 1.355 . S
C886 C888 1.415 . S
C887 C886 1.355 . S
C887 C889 1.419 . S
C888 C886 1.415 . S
C888 C893 1.425 . S
C888 C895 1.409 . S
C889 H881 0.930 . S
C889 C887 1.419 . S
C889 C890 1.362 . S
C890 H882 0.930 . S
C890 C889 1.362 . S
C890 C893 1.409 . S
C891 H883 0.930 . S
C891 C892 1.355 . S
C891 C893 1.415 . S
C892 C891 1.355 . S
C892 C894 1.419 . S
C893 C888 1.425 . S
C893 C890 1.409 . S
C893 C891 1.415 . S
C894 H884 0.930 . S
C894 C892 1.419 . S
C894 C895 1.362 . S
C895 H885 0.930 . S
C895 C888 1.409 . S
C895 C894 1.362 . S
H896 C902 0.930 . S
H897 C905 0.930 . S
H898 C906 0.930 . S
H899 C907 0.930 . S
H900 C910 0.930 . S
H901 C911 0.930 . S
C902 H896 0.930 . S
C902 C903 1.355 . S
C902 C904 1.415 . S
C903 C902 1.355 . S
C903 C905 1.419 . S
C904 C902 1.415 . S
C904 C909 1.425 . S
C904 C911 1.409 . S
C905 H897 0.930 . S
C905 C903 1.419 . S
C905 C906 1.362 . S
C906 H898 0.930 . S
C906 C905 1.362 . S
C906 C909 1.409 . S
C907 H899 0.930 . S
C907 C908 1.355 . S
C907 C909 1.415 . S
C908 C907 1.355 . S
C908 C910 1.419 . S
C909 C904 1.425 . S
C909 C906 1.409 . S
C909 C907 1.415 . S
C910 H900 0.930 . S
C910 C908 1.419 . S
C910 C911 1.362 . S
C911 H901 0.930 . S
C911 C904 1.409 . S
C911 C910 1.362 . S
H912 C918 0.930 . S
H913 C921 0.930 1_565 S
H914 C922 0.930 1_565 S
H915 C923 0.930 . S
H916 C926 0.930 . S
H917 C927 0.930 . S
C918 H912 0.930 . S
C918 C919 1.355 . S
C918 C920 1.415 . S
C919 C918 1.355 . S
C919 C921 1.419 . S
C920 C918 1.415 . S
C920 C925 1.425 . S
C920 C927 1.409 . S
C921 H913 0.930 1_545 S
C921 C919 1.419 . S
C921 C922 1.362 . S
C922 H914 0.930 1_545 S
C922 C921 1.362 . S
C922 C925 1.409 . S
C923 H915 0.930 . S
C923 C924 1.355 . S
C923 C925 1.415 . S
C924 C923 1.355 . S
C924 C926 1.419 . S
C925 C920 1.425 . S
C925 C922 1.409 . S
C925 C923 1.415 . S
C926 H916 0.930 . S
C926 C924 1.419 . S
C926 C927 1.362 . S
C927 H917 0.930 . S
C927 C920 1.409 . S
C927 C926 1.362 . S
H928 C934 0.930 . S
H929 C937 0.930 . S
H930 C938 0.930 . S
H931 C939 0.930 . S
H932 C942 0.930 . S
H933 C943 0.930 . S
C934 H928 0.930 . S
C934 C935 1.355 . S
C934 C936 1.415 . S
C935 C934 1.355 . S
C935 C937 1.419 . S
C936 C934 1.415 . S
C936 C941 1.425 . S
C936 C943 1.409 . S
C937 H929 0.930 . S
C937 C935 1.419 . S
C937 C938 1.362 . S
C938 H930 0.930 . S
C938 C937 1.362 . S
C938 C941 1.409 . S
C939 H931 0.930 . S
C939 C940 1.355 . S
C939 C941 1.415 . S
C940 C939 1.355 . S
C940 C942 1.419 . S
C941 C936 1.425 . S
C941 C938 1.409 . S
C941 C939 1.415 . S
C942 H932 0.930 . S
C942 C940 1.419 . S
C942 C943 1.362 . S
C943 H933 0.930 . S
C943 C936 1.409 . S
C943 C942 1.362 . S
H944 C950 0.930 . S
H945 C953 0.930 . S
H946 C954 0.930 . S
H947 C955 0.930 . S
H948 C958 0.930 . S
H949 C959 0.930 . S
C950 H944 0.930 . S
C950 C951 1.355 . S
C950 C952 1.415 . S
C951 C950 1.355 . S
C951 C953 1.419 . S
C952 C950 1.415 . S
C952 C957 1.425 . S
C952 C959 1.409 . S
C953 H945 0.930 . S
C953 C951 1.419 . S
C953 C954 1.362 . S
C954 H946 0.930 . S
C954 C953 1.362 . S
C954 C957 1.409 . S
C955 H947 0.930 . S
C955 C956 1.355 . S
C955 C957 1.415 . S
C956 C955 1.355 . S
C956 C958 1.419 . S
C957 C952 1.425 . S
C957 C954 1.409 . S
C957 C955 1.415 . S
C958 H948 0.930 . S
C958 C956 1.419 . S
C958 C959 1.362 . S
C959 H949 0.930 . S
C959 C952 1.409 . S
C959 C958 1.362 . S
H960 C966 0.930 . S
H961 C969 0.930 . S
H962 C970 0.930 . S
H963 C971 0.930 . S
H964 C974 0.930 . S
H965 C975 0.930 . S
C966 H960 0.930 . S
C966 C967 1.355 . S
C966 C968 1.415 . S
C967 C966 1.355 . S
C967 C969 1.419 . S
C968 C966 1.415 . S
C968 C973 1.425 . S
C968 C975 1.409 . S
C969 H961 0.930 . S
C969 C967 1.419 . S
C969 C970 1.362 . S
C970 H962 0.930 . S
C970 C969 1.362 . S
C970 C973 1.409 . S
C971 H963 0.930 . S
C971 C972 1.355 . S
C971 C973 1.415 . S
C972 C971 1.355 . S
C972 C974 1.419 . S
C973 C968 1.425 . S
C973 C970 1.409 . S
C973 C971 1.415 . S
C974 H964 0.930 . S
C974 C972 1.419 . S
C974 C975 1.362 . S
C975 H965 0.930 . S
C975 C968 1.409 . S
C975 C974 1.362 . S
H976 C982 0.930 . S
H977 C985 0.930 . S
H978 C986 0.930 . S
H979 C987 0.930 . S
H980 C990 0.930 . S
H981 C991 0.930 . S
C982 H976 0.930 . S
C982 C983 1.355 . S
C982 C984 1.415 . S
C983 C982 1.355 . S
C983 C985 1.419 . S
C984 C982 1.415 . S
C984 C989 1.425 . S
C984 C991 1.409 . S
C985 H977 0.930 . S
C985 C983 1.419 . S
C985 C986 1.362 . S
C986 H978 0.930 . S
C986 C985 1.362 . S
C986 C989 1.409 . S
C987 H979 0.930 . S
C987 C988 1.355 . S
C987 C989 1.415 . S
C988 C987 1.355 . S
C988 C990 1.419 . S
C989 C984 1.425 . S
C989 C986 1.409 . S
C989 C987 1.415 . S
C990 H980 0.930 . S
C990 C988 1.419 . S
C990 C991 1.362 . S
C991 H981 0.930 . S
C991 C984 1.409 . S
C991 C990 1.362 . S
H992 C998 0.930 . S
H993 C1001 0.930 . S
H994 C1002 0.930 . S
H995 C1003 0.930 . S
H996 C1006 0.930 1_655 S
H997 C1007 0.930 1_655 S
C998 H992 0.930 . S
C998 C999 1.355 . S
C998 C1000 1.415 . S
C999 C998 1.355 . S
C999 C1001 1.419 . S
C1000 C998 1.415 . S
C1000 C1005 1.425 . S
C1000 C1007 1.409 . S
C1001 H993 0.930 . S
C1001 C999 1.419 . S
C1001 C1002 1.362 . S
C1002 H994 0.930 . S
C1002 C1001 1.362 . S
C1002 C1005 1.409 . S
C1003 H995 0.930 . S
C1003 C1004 1.355 . S
C1003 C1005 1.415 . S
C1004 C1003 1.355 . S
C1004 C1006 1.419 . S
C1005 C1000 1.425 . S
C1005 C1002 1.409 . S
C1005 C1003 1.415 . S
C1006 H996 0.930 1_455 S
C1006 C1004 1.419 . S
C1006 C1007 1.362 . S
C1007 H997 0.930 1_455 S
C1007 C1000 1.409 . S
C1007 C1006 1.362 . S
H1008 C1014 0.930 . S
H1009 C1017 0.930 . S
H1010 C1018 0.930 . S
H1011 C1019 0.930 . S
H1012 C1022 0.930 . S
H1013 C1023 0.930 . S
C1014 H1008 0.930 . S
C1014 C1015 1.355 . S
C1014 C1016 1.415 . S
C1015 C1014 1.355 . S
C1015 C1017 1.419 . S
C1016 C1014 1.415 . S
C1016 C1021 1.425 . S
C1016 C1023 1.409 . S
C1017 H1009 0.930 . S
C1017 C1015 1.419 . S
C1017 C1018 1.362 . S
C1018 H1010 0.930 . S
C1018 C1017 1.362 . S
C1018 C1021 1.409 . S
C1019 H1011 0.930 . S
C1019 C1020 1.355 . S
C1019 C1021 1.415 . S
C1020 C1019 1.355 . S
C1020 C1022 1.419 . S
C1021 C1016 1.425 . S
C1021 C1018 1.409 . S
C1021 C1019 1.415 . S
C1022 H1012 0.930 . S
C1022 C1020 1.419 . S
C1022 C1023 1.362 . S
C1023 H1013 0.930 . S
C1023 C1016 1.409 . S
C1023 C1022 1.362 . S
H1024 C1030 0.930 . S
H1025 C1033 0.930 . S
H1026 C1034 0.930 . S
H1027 C1035 0.930 . S
H1028 C1038 0.930 . S
H1029 C1039 0.930 . S
C1030 H1024 0.930 . S
C1030 C1031 1.355 . S
C1030 C1032 1.415 . S
C1031 C1030 1.355 . S
C1031 C1033 1.419 . S
C1032 C1030 1.415 . S
C1032 C1037 1.425 . S
C1032 C1039 1.409 . S
C1033 H1025 0.930 . S
C1033 C1031 1.419 . S
C1033 C1034 1.362 . S
C1034 H1026 0.930 . S
C1034 C1033 1.362 . S
C1034 C1037 1.409 . S
C1035 H1027 0.930 . S
C1035 C1036 1.355 . S
C1035 C1037 1.415 . S
C1036 C1035 1.355 . S
C1036 C1038 1.419 . S
C1037 C1032 1.425 . S
C1037 C1034 1.409 . S
C1037 C1035 1.415 . S
C1038 H1028 0.930 . S
C1038 C1036 1.419 . S
C1038 C1039 1.362 . S
C1039 H1029 0.930 . S
C1039 C1032 1.409 . S
C1039 C1038 1.362 . S
H1040 C1046 0.930 . S
H1041 C1049 0.930 . S
H1042 C1050 0.930 . S
H1043 C1051 0.930 . S
H1044 C1054 0.930 1_545 S
H1045 C1055 0.930 1_545 S
C1046 H1040 0.930 . S
C1046 C1047 1.355 . S
C1046 C1048 1.415 . S
C1047 C1046 1.355 . S
C1047 C1049 1.419 . S
C1048 C1046 1.415 . S
C1048 C1053 1.425 . S
C1048 C1055 1.409 . S
C1049 H1041 0.930 . S
C1049 C1047 1.419 . S
C1049 C1050 1.362 . S
C1050 H1042 0.930 . S
C1050 C1049 1.362 . S
C1050 C1053 1.409 . S
C1051 H1043 0.930 . S
C1051 C1052 1.355 . S
C1051 C1053 1.415 . S
C1052 C1051 1.355 . S
C1052 C1054 1.419 . S
C1053 C1048 1.425 . S
C1053 C1050 1.409 . S
C1053 C1051 1.415 . S
C1054 H1044 0.930 1_565 S
C1054 C1052 1.419 . S
C1054 C1055 1.362 . S
C1055 H1045 0.930 1_565 S
C1055 C1048 1.409 . S
C1055 C1054 1.362 . S
H1056 C1062 0.930 . S
H1057 C1065 0.930 . S
H1058 C1066 0.930 . S
H1059 C1067 0.930 . S
H1060 C1070 0.930 . S
H1061 C1071 0.930 . S
C1062 H1056 0.930 . S
C1062 C1063 1.355 . S
C1062 C1064 1.415 . S
C1063 C1062 1.355 . S
C1063 C1065 1.419 . S
C1064 C1062 1.415 . S
C1064 C1069 1.425 . S
C1064 C1071 1.409 . S
C1065 H1057 0.930 . S
C1065 C1063 1.419 . S
C1065 C1066 1.362 . S
C1066 H1058 0.930 . S
C1066 C1065 1.362 . S
C1066 C1069 1.409 . S
C1067 H1059 0.930 . S
C1067 C1068 1.355 . S
C1067 C1069 1.415 . S
C1068 C1067 1.355 . S
C1068 C1070 1.419 . S
C1069 C1064 1.425 . S
C1069 C1066 1.409 . S
C1069 C1067 1.415 . S
C1070 H1060 0.930 . S
C1070 C1068 1.419 . S
C1070 C1071 1.362 . S
C1071 H1061 0.930 . S
C1071 C1064 1.409 . S
C1071 C1070 1.362 . S
H1072 C1078 0.930 . S
H1073 C1081 0.930 . S
H1074 C1082 0.930 . S
H1075 C1083 0.930 . S
H1076 C1086 0.930 . S
H1077 C1087 0.930 . S
C1078 H1072 0.930 . S
C1078 C1079 1.355 . S
C1078 C1080 1.415 . S
C1079 C1078 1.355 . S
C1079 C1081 1.419 . S
C1080 C1078 1.415 . S
C1080 C1085 1.425 . S
C1080 C1087 1.409 . S
C1081 H1073 0.930 . S
C1081 C1079 1.419 . S
C1081 C1082 1.362 . S
C1082 H1074 0.930 . S
C1082 C1081 1.362 . S
C1082 C1085 1.409 . S
C1083 H1075 0.930 . S
C1083 C1084 1.355 . S
C1083 C1085 1.415 . S
C1084 C1083 1.355 . S
C1084 C1086 1.419 . S
C1085 C1080 1.425 . S
C1085 C1082 1.409 . S
C1085 C1083 1.415 . S
C1086 H1076 0.930 . S
C1086 C1084 1.419 . S
C1086 C1087 1.362 . S
C1087 H1077 0.930 . S
C1087 C1080 1.409 . S
C1087 C1086 1.362 . S
H1088 C1094 0.930 . S
H1089 C1097 0.930 . S
H1090 C1098 0.930 . S
H1091 C1099 0.930 . S
H1092 C1102 0.930 . S
H1093 C1103 0.930 . S
C1094 H1088 0.930 . S
C1094 C1095 1.355 . S
C1094 C1096 1.415 . S
C1095 C1094 1.355 . S
C1095 C1097 1.419 . S
C1096 C1094 1.415 . S
C1096 C1101 1.425 . S
C1096 C1103 1.409 . S
C1097 H1089 0.930 . S
C1097 C1095 1.419 . S
C1097 C1098 1.362 . S
C1098 H1090 0.930 . S
C1098 C1097 1.362 . S
C1098 C1101 1.409 . S
C1099 H1091 0.930 . S
C1099 C1100 1.355 . S
C1099 C1101 1.415 . S
C1100 C1099 1.355 . S
C1100 C1102 1.419 . S
C1101 C1096 1.425 . S
C1101 C1098 1.409 . S
C1101 C1099 1.415 . S
C1102 H1092 0.930 . S
C1102 C1100 1.419 . S
C1102 C1103 1.362 . S
C1103 H1093 0.930 . S
C1103 C1096 1.409 . S
C1103 C1102 1.362 . S
H1104 C1110 0.930 . S
H1105 C1113 0.930 . S
H1106 C1114 0.930 . S
H1107 C1115 0.930 . S
H1108 C1118 0.930 . S
H1109 C1119 0.930 . S
C1110 H1104 0.930 . S
C1110 C1111 1.355 . S
C1110 C1112 1.415 . S
C1111 C1110 1.355 . S
C1111 C1113 1.419 . S
C1112 C1110 1.415 . S
C1112 C1117 1.425 . S
C1112 C1119 1.409 . S
C1113 H1105 0.930 . S
C1113 C1111 1.419 . S
C1113 C1114 1.362 . S
C1114 H1106 0.930 . S
C1114 C1113 1.362 . S
C1114 C1117 1.409 . S
C1115 H1107 0.930 . S
C1115 C1116 1.355 . S
C1115 C1117 1.415 . S
C1116 C1115 1.355 . S
C1116 C1118 1.419 . S
C1117 C1112 1.425 . S
C1117 C1114 1.409 . S
C1117 C1115 1.415 . S
C1118 H1108 0.930 . S
C1118 C1116 1.419 . S
C1118 C1119 1.362 . S
C1119 H1109 0.930 . S
C1119 C1112 1.409 . S
C1119 C1118 1.362 . S
H1120 C1126 0.930 . S
H1121 C1129 0.930 . S
H1122 C1130 0.930 . S
H1123 C1131 0.930 . S
H1124 C1134 0.930 . S
H1125 C1135 0.930 . S
C1126 H1120 0.930 . S
C1126 C1127 1.355 . S
C1126 C1128 1.415 . S
C1127 C1126 1.355 . S
C1127 C1129 1.419 . S
C1128 C1126 1.415 . S
C1128 C1133 1.425 . S
C1128 C1135 1.409 . S
C1129 H1121 0.930 . S
C1129 C1127 1.419 . S
C1129 C1130 1.362 . S
C1130 H1122 0.930 . S
C1130 C1129 1.362 . S
C1130 C1133 1.409 . S
C1131 H1123 0.930 . S
C1131 C1132 1.355 . S
C1131 C1133 1.415 . S
C1132 C1131 1.355 . S
C1132 C1134 1.419 . S
C1133 C1128 1.425 . S
C1133 C1130 1.409 . S
C1133 C1131 1.415 . S
C1134 H1124 0.930 . S
C1134 C1132 1.419 . S
C1134 C1135 1.362 . S
C1135 H1125 0.930 . S
C1135 C1128 1.409 . S
C1135 C1134 1.362 . S
H1136 C1142 0.930 . S
H1137 C1145 0.930 . S
H1138 C1146 0.930 . S
H1139 C1147 0.930 . S
H1140 C1150 0.930 . S
H1141 C1151 0.930 . S
C1142 H1136 0.930 . S
C1142 C1143 1.355 . S
C1142 C1144 1.415 . S
C1143 C1142 1.355 . S
C1143 C1145 1.419 . S
C1144 C1142 1.415 . S
C1144 C1149 1.425 . S
C1144 C1151 1.409 . S
C1145 H1137 0.930 . S
C1145 C1143 1.419 . S
C1145 C1146 1.362 . S
C1146 H1138 0.930 . S
C1146 C1145 1.362 . S
C1146 C1149 1.409 . S
C1147 H1139 0.930 . S
C1147 C1148 1.355 . S
C1147 C1149 1.415 . S
C1148 C1147 1.355 . S
C1148 C1150 1.419 . S
C1149 C1144 1.425 . S
C1149 C1146 1.409 . S
C1149 C1147 1.415 . S
C1150 H1140 0.930 . S
C1150 C1148 1.419 . S
C1150 C1151 1.362 . S
C1151 H1141 0.930 . S
C1151 C1144 1.409 . S
C1151 C1150 1.362 . S
H1152 C1158 0.930 . S
H1153 C1161 0.930 . S
H1154 C1162 0.930 . S
H1155 C1163 0.930 . S
H1156 C1166 0.930 . S
H1157 C1167 0.930 . S
C1158 H1152 0.930 . S
C1158 C1159 1.355 . S
C1158 C1160 1.415 . S
C1159 C1158 1.355 . S
C1159 C1161 1.419 . S
C1160 C1158 1.415 . S
C1160 C1165 1.425 . S
C1160 C1167 1.409 . S
C1161 H1153 0.930 . S
C1161 C1159 1.419 . S
C1161 C1162 1.362 . S
C1162 H1154 0.930 . S
C1162 C1161 1.362 . S
C1162 C1165 1.409 . S
C1163 H1155 0.930 . S
C1163 C1164 1.355 . S
C1163 C1165 1.415 . S
C1164 C1163 1.355 . S
C1164 C1166 1.419 . S
C1165 C1160 1.425 . S
C1165 C1162 1.409 . S
C1165 C1163 1.415 . S
C1166 H1156 0.930 . S
C1166 C1164 1.419 . S
C1166 C1167 1.362 . S
C1167 H1157 0.930 . S
C1167 C1160 1.409 . S
C1167 C1166 1.362 . S
C535 C7 0.586 . S
C540 C172 0.509 . S
C551 C40 0.465 . S
C556 C205 0.530 . S
C567 C238 0.588 . S
C572 C73 0.592 . S
C583 C139 0.470 . S
C588 C106 0.487 . S
C599 C271 0.478 . S
C604 C436 0.478 . S
C615 C304 0.540 . S
C620 C469 0.468 . S
C631 C337 0.505 . S
C636 C502 0.583 . S
C647 C370 0.543 . S
C652 C403 0.470 . S
C663 C285 1.802 . S
C668 C21 1.802 . S
C679 C318 1.744 . S
C684 C54 1.744 . S
C695 C87 1.802 . S
C700 C351 1.802 . S
C711 C384 1.701 . S
C716 C120 1.701 . S
C727 C153 1.803 . S
C732 C417 1.803 . S
C743 C186 1.788 . S
C748 C450 1.788 . S
C759 C219 1.758 . S
C764 C483 1.758 . S
C775 C252 1.713 . S
C780 C516 1.713 . S
C791 N13 1.584 . S
C796 N145 1.659 . S
C807 N46 1.567 . S
C812 N178 1.646 . S
C823 N211 1.556 . S
C828 N79 1.615 . S
C839 N112 1.658 . S
C844 N244 1.633 . S
C855 N409 1.652 . S
C860 N277 1.643 . S
C871 N442 1.664 . S
C876 N310 1.619 . S
C887 N343 1.621 . S
C892 N475 1.663 . S
C903 N508 1.594 . S
C908 N376 1.561 . S
C919 C51 1.465 . S
C924 N2 1.349 . S
C935 N35 1.337 . S
C940 C84 1.467 . S
C951 N68 1.358 . S
C956 C117 1.475 . S
C967 N101 1.405 . S
C972 C18 1.485 . S
C983 C249 1.467 . S
C988 N134 1.364 . S
C999 N167 1.337 . S
C1004 C150 1.465 . S
C1015 N200 1.421 . S
C1020 C183 1.487 . S
C1031 N233 1.425 . S
C1036 C216 1.481 . S
C1047 N266 1.346 . S
C1052 C315 1.465 . S
C1063 N299 1.413 . S
C1068 C348 1.486 . S
C1079 C381 1.488 . S
C1084 N332 1.428 . S
C1095 N365 1.425 . S
C1100 C282 1.481 . S
C1111 N398 1.353 . S
C1116 C513 1.466 . S
C1127 C414 1.488 . S
C1132 N431 1.428 . S
C1143 C447 1.480 . S
C1148 N464 1.381 . S
C1159 N497 1.434 . S
C1164 C480 1.487 . S
