# Generated by pormake.
# Topology vbv, (6)-cn, num edge types: 1
# Building blocks:
#     Node 0, Type 0, BuildingBlock: OJICUG_clean_sbu_0, # of connection points: 6
#     Node 1, Type 0, BuildingBlock: OJICUG_clean_sbu_0, # of connection points: 6
#     Node 2, Type 0, BuildingBlock: OJICUG_clean_sbu_0, # of connection points: 6
#     Node 3, Type 0, BuildingBlock: OJICUG_clean_sbu_0, # of connection points: 6
#     Node 4, Type 0, BuildingBlock: OJICUG_clean_sbu_0, # of connection points: 6
#     Node 5, Type 0, BuildingBlock: OJICUG_clean_sbu_0, # of connection points: 6
#     Node 6, Type 0, BuildingBlock: OJICUG_clean_sbu_0, # of connection points: 6
#     Node 7, Type 0, BuildingBlock: OJICUG_clean_sbu_0, # of connection points: 6
#     Node 8, Type 0, BuildingBlock: OJICUG_clean_sbu_0, # of connection points: 6
#     Node 9, Type 0, BuildingBlock: OJICUG_clean_sbu_0, # of connection points: 6
#     Node 10, Type 0, BuildingBlock: OJICUG_clean_sbu_0, # of connection points: 6
#     Node 11, Type 0, BuildingBlock: OJICUG_clean_sbu_0, # of connection points: 6
#     Node 12, Type 0, BuildingBlock: OJICUG_clean_sbu_0, # of connection points: 6
#     Node 13, Type 0, BuildingBlock: OJICUG_clean_sbu_0, # of connection points: 6
#     Node 14, Type 0, BuildingBlock: OJICUG_clean_sbu_0, # of connection points: 6
#     Node 15, Type 0, BuildingBlock: OJICUG_clean_sbu_0, # of connection points: 6
#     Edge 16, Type (0, 0), BuildingBlock: EZIPEK_clean_linker_0, # of connection points: 2
#     Edge 17, Type (0, 0), BuildingBlock: EZIPEK_clean_linker_0, # of connection points: 2
#     Edge 18, Type (0, 0), BuildingBlock: EZIPEK_clean_linker_0, # of connection points: 2
#     Edge 19, Type (0, 0), BuildingBlock: EZIPEK_clean_linker_0, # of connection points: 2
#     Edge 20, Type (0, 0), BuildingBlock: EZIPEK_clean_linker_0, # of connection points: 2
#     Edge 21, Type (0, 0), BuildingBlock: EZIPEK_clean_linker_0, # of connection points: 2
#     Edge 22, Type (0, 0), BuildingBlock: EZIPEK_clean_linker_0, # of connection points: 2
#     Edge 23, Type (0, 0), BuildingBlock: EZIPEK_clean_linker_0, # of connection points: 2
#     Edge 24, Type (0, 0), BuildingBlock: EZIPEK_clean_linker_0, # of connection points: 2
#     Edge 25, Type (0, 0), BuildingBlock: EZIPEK_clean_linker_0, # of connection points: 2
#     Edge 26, Type (0, 0), BuildingBlock: EZIPEK_clean_linker_0, # of connection points: 2
#     Edge 27, Type (0, 0), BuildingBlock: EZIPEK_clean_linker_0, # of connection points: 2
#     Edge 28, Type (0, 0), BuildingBlock: EZIPEK_clean_linker_0, # of connection points: 2
#     Edge 29, Type (0, 0), BuildingBlock: EZIPEK_clean_linker_0, # of connection points: 2
#     Edge 30, Type (0, 0), BuildingBlock: EZIPEK_clean_linker_0, # of connection points: 2
#     Edge 31, Type (0, 0), BuildingBlock: EZIPEK_clean_linker_0, # of connection points: 2
#     Edge 32, Type (0, 0), BuildingBlock: EZIPEK_clean_linker_0, # of connection points: 2
#     Edge 33, Type (0, 0), BuildingBlock: EZIPEK_clean_linker_0, # of connection points: 2
#     Edge 34, Type (0, 0), BuildingBlock: EZIPEK_clean_linker_0, # of connection points: 2
#     Edge 35, Type (0, 0), BuildingBlock: EZIPEK_clean_linker_0, # of connection points: 2
#     Edge 36, Type (0, 0), BuildingBlock: EZIPEK_clean_linker_0, # of connection points: 2
#     Edge 37, Type (0, 0), BuildingBlock: EZIPEK_clean_linker_0, # of connection points: 2
#     Edge 38, Type (0, 0), BuildingBlock: EZIPEK_clean_linker_0, # of connection points: 2
#     Edge 39, Type (0, 0), BuildingBlock: EZIPEK_clean_linker_0, # of connection points: 2
#     Edge 40, Type (0, 0), BuildingBlock: EZIPEK_clean_linker_0, # of connection points: 2
#     Edge 41, Type (0, 0), BuildingBlock: EZIPEK_clean_linker_0, # of connection points: 2
#     Edge 42, Type (0, 0), BuildingBlock: EZIPEK_clean_linker_0, # of connection points: 2
#     Edge 43, Type (0, 0), BuildingBlock: EZIPEK_clean_linker_0, # of connection points: 2
#     Edge 44, Type (0, 0), BuildingBlock: EZIPEK_clean_linker_0, # of connection points: 2
#     Edge 45, Type (0, 0), BuildingBlock: EZIPEK_clean_linker_0, # of connection points: 2
#     Edge 46, Type (0, 0), BuildingBlock: EZIPEK_clean_linker_0, # of connection points: 2
#     Edge 47, Type (0, 0), BuildingBlock: EZIPEK_clean_linker_0, # of connection points: 2
#     Edge 48, Type (0, 0), BuildingBlock: EZIPEK_clean_linker_0, # of connection points: 2
#     Edge 49, Type (0, 0), BuildingBlock: EZIPEK_clean_linker_0, # of connection points: 2
#     Edge 50, Type (0, 0), BuildingBlock: EZIPEK_clean_linker_0, # of connection points: 2
#     Edge 51, Type (0, 0), BuildingBlock: EZIPEK_clean_linker_0, # of connection points: 2
#     Edge 52, Type (0, 0), BuildingBlock: EZIPEK_clean_linker_0, # of connection points: 2
#     Edge 53, Type (0, 0), BuildingBlock: EZIPEK_clean_linker_0, # of connection points: 2
#     Edge 54, Type (0, 0), BuildingBlock: EZIPEK_clean_linker_0, # of connection points: 2
#     Edge 55, Type (0, 0), BuildingBlock: EZIPEK_clean_linker_0, # of connection points: 2
#     Edge 56, Type (0, 0), BuildingBlock: EZIPEK_clean_linker_0, # of connection points: 2
#     Edge 57, Type (0, 0), BuildingBlock: EZIPEK_clean_linker_0, # of connection points: 2
#     Edge 58, Type (0, 0), BuildingBlock: EZIPEK_clean_linker_0, # of connection points: 2
#     Edge 59, Type (0, 0), BuildingBlock: EZIPEK_clean_linker_0, # of connection points: 2
#     Edge 60, Type (0, 0), BuildingBlock: EZIPEK_clean_linker_0, # of connection points: 2
#     Edge 61, Type (0, 0), BuildingBlock: EZIPEK_clean_linker_0, # of connection points: 2
#     Edge 62, Type (0, 0), BuildingBlock: EZIPEK_clean_linker_0, # of connection points: 2
#     Edge 63, Type (0, 0), BuildingBlock: EZIPEK_clean_linker_0, # of connection points: 2
# Relax obj value: 0.217
# Max RMSD: 0.236
# Mean RMSD: 0.236
data_MOF--net-vbv--node1-OJICUG_clean_sbu_0--edge1-EZIPEK_clean_linker_0
_symmetry_space_group_name_H-M    P1
_symmetry_Int_Tables_number       1
_symmetry_cell_setting            triclinic
loop_
_symmetry_equiv_pos_as_xyz
'x, y, z'
_cell_length_a     41.504098
_cell_length_b     21.236128
_cell_length_c     35.672807
_cell_angle_alpha  90.08646
_cell_angle_beta   89.877144
_cell_angle_gamma 89.890341
loop_
_atom_site_label
_atom_site_type_symbol
_atom_site_fract_x
_atom_site_fract_y
_atom_site_fract_z
_atom_type_partial_charge
Sc0 Sc 0.11661 0.39933 0.10105 0.0
Sc1 Sc 0.16872 0.26874 0.10113 0.0
Sc2 Sc 0.11814 0.29535 0.02387 0.0
O3 O 0.1347 0.3214 0.07525 0.0
C4 C 0.0547 0.32143 0.07214 0.0
C5 C 0.12537 0.30485 0.17011 0.0
C6 C 0.12748 0.16071 0.06119 0.0
C7 C 0.19367 0.41159 0.11495 0.0
C8 C 0.11751 0.44373 0.01492 0.0
C9 C 0.19154 0.2683 0.01693 0.0
O10 O 0.06706 0.36329 0.09367 0.0
O11 O 0.14513 0.2694 0.15336 0.0
O12 O 0.11729 0.19836 0.03656 0.0
O13 O 0.1658 0.43697 0.11057 0.0
O14 O 0.11763 0.38857 0.0017 0.0
O15 O 0.19517 0.26166 0.05178 0.0
O16 O 0.11672 0.45529 0.04992 0.0
O17 O 0.19764 0.35189 0.11448 0.0
O18 O 0.16538 0.28405 0.00116 0.0
O19 O 0.11382 0.35465 0.15564 0.0
O20 O 0.06999 0.29817 0.04449 0.0
O21 O 0.14509 0.17876 0.08846 0.0
Sc22 Sc 0.38635 0.67192 0.02646 0.0
Sc23 Sc 0.33397 0.71109 0.10036 0.0
Sc24 Sc 0.38919 0.58733 0.11113 0.0
O25 O 0.36987 0.65672 0.07941 0.0
C26 C 0.39474 0.52379 0.0298 0.0
C27 C 0.31418 0.6894 0.01535 0.0
C28 C 0.31162 0.56878 0.11964 0.0
C29 C 0.3714 0.81293 0.0533 0.0
C30 C 0.44887 0.66607 0.07755 0.0
C31 C 0.37324 0.68995 0.17483 0.0
O32 O 0.3918 0.57513 0.01243 0.0
O33 O 0.31054 0.7096 0.04842 0.0
O34 O 0.34041 0.54588 0.11912 0.0
O35 O 0.38143 0.77177 0.03034 0.0
O36 O 0.43721 0.62981 0.10299 0.0
O37 O 0.35348 0.72111 0.15532 0.0
O38 O 0.43379 0.68121 0.04795 0.0
O39 O 0.35748 0.79896 0.08415 0.0
O40 O 0.38711 0.64053 0.16285 0.0
O41 O 0.33991 0.66614 0.00237 0.0
O42 O 0.39563 0.52121 0.0653 0.0
O43 O 0.30602 0.62761 0.11555 0.0
Sc44 Sc 0.62009 0.62078 0.38627 0.0
Sc45 Sc 0.67536 0.74302 0.37485 0.0
Sc46 Sc 0.63832 0.71854 0.46258 0.0
O47 O 0.64447 0.69428 0.40785 0.0
C48 C 0.56735 0.70675 0.42957 0.0
C49 C 0.62239 0.70938 0.31449 0.0
C50 C 0.64545 0.85323 0.42145 0.0
C51 C 0.69377 0.59676 0.36167 0.0
C52 C 0.63214 0.57148 0.47082 0.0
C53 C 0.71129 0.74197 0.45268 0.0
O54 O 0.5754 0.66807 0.4035 0.0
O55 O 0.64623 0.7406 0.326 0.0
O56 O 0.64122 0.81703 0.44933 0.0
O57 O 0.6653 0.57595 0.36814 0.0
O58 O 0.63599 0.62534 0.48505 0.0
O59 O 0.70798 0.75674 0.41872 0.0
O60 O 0.62591 0.56418 0.43622 0.0
O61 O 0.70058 0.65548 0.36168 0.0
O62 O 0.68934 0.7169 0.47249 0.0
O63 O 0.61033 0.66419 0.33284 0.0
O64 O 0.58664 0.72214 0.45576 0.0
O65 O 0.654 0.83355 0.3891 0.0
Sc66 Sc 0.8818 0.40486 0.37943 0.0
Sc67 Sc 0.82435 0.29901 0.41313 0.0
Sc68 Sc 0.88786 0.34681 0.47123 0.0
O69 O 0.86467 0.35018 0.42137 0.0
C70 C 0.94289 0.32802 0.40968 0.0
C71 C 0.85767 0.28163 0.33515 0.0
C72 C 0.86448 0.20696 0.46766 0.0
C73 C 0.80665 0.43127 0.37366 0.0
C74 C 0.89775 0.48928 0.45183 0.0
C75 C 0.81387 0.36099 0.49328 0.0
O76 O 0.92771 0.35475 0.38289 0.0
O77 O 0.84346 0.25621 0.3629 0.0
O78 O 0.88464 0.24857 0.47643 0.0
O79 O 0.83537 0.45308 0.37413 0.0
O80 O 0.89415 0.4445 0.4744 0.0
O81 O 0.8037 0.34012 0.46201 0.0
O82 O 0.89666 0.48198 0.4164 0.0
O83 O 0.80031 0.37414 0.38187 0.0
O84 O 0.84358 0.36191 0.50224 0.0
O85 O 0.86916 0.33717 0.33627 0.0
O86 O 0.93316 0.32879 0.44357 0.0
O87 O 0.84076 0.21738 0.44581 0.0
Sc88 Sc 0.88411 0.59029 0.8932 0.0
Sc89 Sc 0.83409 0.72453 0.89579 0.0
Sc90 Sc 0.8844 0.69128 0.9719 0.0
O91 O 0.8673 0.66821 0.92032 0.0
C92 C 0.88573 0.54126 0.97874 0.0
C93 C 0.80673 0.58415 0.87949 0.0
C94 C 0.81268 0.72238 0.98122 0.0
C95 C 0.87455 0.68553 0.82442 0.0
C96 C 0.94687 0.66427 0.92302 0.0
C97 C 0.87592 0.82933 0.93678 0.0
O98 O 0.88452 0.53094 0.94356 0.0
O99 O 0.80338 0.64367 0.88335 0.0
O100 O 0.83794 0.69976 0.9958 0.0
O101 O 0.88637 0.63611 0.83904 0.0
O102 O 0.9316 0.68946 0.94996 0.0
O103 O 0.86011 0.81213 0.90787 0.0
O104 O 0.93426 0.62291 0.90127 0.0
O105 O 0.85576 0.72249 0.84168 0.0
O106 O 0.88435 0.79037 0.96177 0.0
O107 O 0.83445 0.55722 0.88205 0.0
O108 O 0.88642 0.59629 0.99233 0.0
O109 O 0.80926 0.73411 0.94672 0.0
Sc110 Sc 0.61294 0.41355 0.88203 0.0
Sc111 Sc 0.66858 0.29659 0.88276 0.0
Sc112 Sc 0.6219 0.3239 0.96152 0.0
O113 O 0.63403 0.34393 0.90857 0.0
C114 C 0.61915 0.46724 0.96687 0.0
C115 C 0.68659 0.43475 0.86279 0.0
C116 C 0.69691 0.30829 0.95853 0.0
C117 C 0.62403 0.30914 0.81632 0.0
C118 C 0.55776 0.33672 0.92122 0.0
C119 C 0.63259 0.19109 0.93385 0.0
O120 O 0.60666 0.4702 0.93401 0.0
O121 O 0.68603 0.37799 0.85127 0.0
O122 O 0.67061 0.296 0.97537 0.0
O123 O 0.61663 0.36494 0.82727 0.0
O124 O 0.57229 0.34955 0.95142 0.0
O125 O 0.65626 0.20874 0.91323 0.0
O126 O 0.56861 0.35892 0.89028 0.0
O127 O 0.63838 0.27043 0.83769 0.0
O128 O 0.61157 0.22951 0.94576 0.0
O129 O 0.66068 0.45967 0.87593 0.0
O130 O 0.63198 0.41743 0.97949 0.0
O131 O 0.69822 0.32873 0.92572 0.0
Sc132 Sc 0.37856 0.31049 0.53034 0.0
Sc133 Sc 0.33486 0.28884 0.61123 0.0
Sc134 Sc 0.39243 0.40299 0.60815 0.0
O135 O 0.36917 0.33357 0.5832 0.0
C136 C 0.44743 0.32677 0.56771 0.0
C137 C 0.36588 0.17935 0.55895 0.0
C138 C 0.38774 0.29555 0.67005 0.0
C139 C 0.30183 0.30105 0.53894 0.0
C140 C 0.38718 0.45278 0.52251 0.0
C141 C 0.3201 0.42915 0.63015 0.0
O142 O 0.43034 0.32391 0.53795 0.0
O143 O 0.34342 0.19932 0.58056 0.0
O144 O 0.3905 0.35436 0.66264 0.0
O145 O 0.32749 0.28989 0.52004 0.0
O146 O 0.39809 0.45631 0.55596 0.0
O147 O 0.31975 0.37272 0.64258 0.0
O148 O 0.37136 0.40504 0.51198 0.0
O149 O 0.30198 0.32085 0.57199 0.0
O150 O 0.34598 0.4516 0.61594 0.0
O151 O 0.38689 0.21568 0.54545 0.0
O152 O 0.4372 0.352 0.59808 0.0
O153 O 0.36919 0.26054 0.65112 0.0
Sc154 Sc 0.12087 0.58875 0.60664 0.0
Sc155 Sc 0.17517 0.7096 0.59412 0.0
Sc156 Sc 0.11637 0.68236 0.52852 0.0
O157 O 0.13828 0.65837 0.5763 0.0
C158 C 0.11935 0.54015 0.5196 0.0
C159 C 0.19674 0.56994 0.61849 0.0
C160 C 0.18996 0.70525 0.51227 0.0
C161 C 0.13606 0.6963 0.668 0.0
C162 C 0.05846 0.65789 0.57783 0.0
C163 C 0.12856 0.81166 0.55401 0.0
O164 O 0.11271 0.53234 0.55465 0.0
O165 O 0.20039 0.62965 0.61972 0.0
O166 O 0.16081 0.71718 0.50407 0.0
O167 O 0.12707 0.64068 0.65896 0.0
O168 O 0.07002 0.64789 0.54576 0.0
O169 O 0.15635 0.79589 0.56655 0.0
O170 O 0.07396 0.63774 0.60617 0.0
O171 O 0.15156 0.73199 0.64571 0.0
O172 O 0.10604 0.77183 0.55296 0.0
O173 O 0.16937 0.54484 0.61061 0.0
O174 O 0.12615 0.59327 0.5055 0.0
O175 O 0.19841 0.68477 0.54399 0.0
Sc176 Sc 0.60761 0.91821 0.11067 0.0
Sc177 Sc 0.6615 0.79764 0.11453 0.0
Sc178 Sc 0.62178 0.8285 0.03179 0.0
O179 O 0.63026 0.84786 0.08544 0.0
C180 C 0.55466 0.84132 0.06861 0.0
C181 C 0.60898 0.81256 0.17356 0.0
C182 C 0.62909 0.69305 0.05843 0.0
C183 C 0.6799 0.93802 0.13402 0.0
C184 C 0.61846 0.97212 0.0276 0.0
C185 C 0.69702 0.80783 0.04316 0.0
O186 O 0.56376 0.86526 0.09978 0.0
O187 O 0.62532 0.77423 0.15394 0.0
O188 O 0.61054 0.733 0.04357 0.0
O189 O 0.65466 0.963 0.11964 0.0
O190 O 0.63266 0.9229 0.01606 0.0
O191 O 0.69652 0.82456 0.07676 0.0
O192 O 0.60339 0.97426 0.0589 0.0
O193 O 0.67922 0.88082 0.14561 0.0
O194 O 0.67191 0.80174 0.02281 0.0
O195 O 0.60821 0.87112 0.16544 0.0
O196 O 0.57097 0.85128 0.03895 0.0
O197 O 0.65025 0.70913 0.08291 0.0
Sc198 Sc 0.88286 0.19312 0.03956 0.0
Sc199 Sc 0.8294 0.22134 0.11252 0.0
Sc200 Sc 0.87989 0.09162 0.1151 0.0
O201 O 0.86337 0.16813 0.08902 0.0
C202 C 0.8782 0.05109 0.02692 0.0
C203 C 0.81064 0.23442 0.0309 0.0
C204 C 0.80381 0.07826 0.12667 0.0
C205 C 0.87889 0.32435 0.0751 0.0
C206 C 0.94274 0.15707 0.08476 0.0
C207 C 0.86569 0.18467 0.18489 0.0
O208 O 0.86959 0.10512 0.01537 0.0
O209 O 0.80229 0.21719 0.06326 0.0
O210 O 0.83068 0.05182 0.11774 0.0
O211 O 0.89726 0.2823 0.06133 0.0
O212 O 0.92813 0.13641 0.11383 0.0
O213 O 0.85401 0.22815 0.16477 0.0
O214 O 0.92863 0.15379 0.05345 0.0
O215 O 0.85291 0.3093 0.0926 0.0
O216 O 0.87344 0.1307 0.17176 0.0
O217 O 0.83949 0.23574 0.01935 0.0
O218 O 0.88713 0.04139 0.06094 0.0
O219 O 0.80125 0.13821 0.13057 0.0
Sc220 Sc 0.11591 0.09452 0.37862 0.0
Sc221 Sc 0.16878 0.22137 0.38859 0.0
Sc222 Sc 0.11304 0.18692 0.46066 0.0
O223 O 0.13282 0.1674 0.40949 0.0
C224 C 0.05215 0.16301 0.40912 0.0
C225 C 0.12854 0.19832 0.31522 0.0
C226 C 0.12178 0.32414 0.42725 0.0
C227 C 0.1931 0.08064 0.36914 0.0
C228 C 0.1155 0.03811 0.46263 0.0
C229 C 0.18609 0.21935 0.4742 0.0
O230 O 0.06691 0.13084 0.3842 0.0
O231 O 0.14913 0.22814 0.33416 0.0
O232 O 0.10885 0.28415 0.44879 0.0
O233 O 0.16482 0.0565 0.36979 0.0
O234 O 0.11589 0.09116 0.47894 0.0
O235 O 0.19297 0.22243 0.43982 0.0
O236 O 0.11375 0.03231 0.42708 0.0
O237 O 0.19791 0.13948 0.37381 0.0
O238 O 0.15843 0.20563 0.48692 0.0
O239 O 0.11513 0.14842 0.32709 0.0
O240 O 0.06476 0.17822 0.44015 0.0
O241 O 0.14378 0.30894 0.4037 0.0
Sc242 Sc 0.38468 0.90519 0.38136 0.0
Sc243 Sc 0.33014 0.78461 0.39151 0.0
Sc244 Sc 0.38216 0.81965 0.46321 0.0
O245 O 0.36544 0.83723 0.41199 0.0
C246 C 0.44431 0.83922 0.41746 0.0
C247 C 0.3759 0.79227 0.3228 0.0
C248 C 0.37276 0.68592 0.43971 0.0
C249 C 0.31028 0.92318 0.36607 0.0
C250 C 0.38045 0.96318 0.46484 0.0
C251 C 0.30708 0.79811 0.47074 0.0
O252 O 0.43126 0.85899 0.38737 0.0
O253 O 0.35931 0.75827 0.34485 0.0
O254 O 0.39403 0.72698 0.44603 0.0
O255 O 0.33711 0.94814 0.3754 0.0
O256 O 0.37109 0.91255 0.48006 0.0
O257 O 0.30155 0.81221 0.43704 0.0
O258 O 0.39138 0.96576 0.43119 0.0
O259 O 0.30743 0.86364 0.36158 0.0
O260 O 0.33531 0.79018 0.48363 0.0
O261 O 0.37999 0.85101 0.32921 0.0
O262 O 0.4307 0.84537 0.44911 0.0
O263 O 0.3465 0.69982 0.42269 0.0
Sc264 Sc 0.39162 0.08659 0.87995 0.0
Sc265 Sc 0.33756 0.20735 0.88253 0.0
Sc266 Sc 0.38695 0.18215 0.95846 0.0
O267 O 0.3733 0.1599 0.90621 0.0
C268 C 0.38459 0.03741 0.96524 0.0
C269 C 0.31679 0.07051 0.8616 0.0
C270 C 0.31202 0.20082 0.95821 0.0
C271 C 0.38244 0.19556 0.81608 0.0
C272 C 0.45084 0.15697 0.91568 0.0
C273 C 0.37755 0.3129 0.93062 0.0
O274 O 0.39552 0.03027 0.93182 0.0
O275 O 0.31702 0.12802 0.85169 0.0
O276 O 0.3386 0.21436 0.97402 0.0
O277 O 0.39024 0.1396 0.82669 0.0
O278 O 0.4364 0.15592 0.94721 0.0
O279 O 0.35258 0.29534 0.91217 0.0
O280 O 0.43888 0.13036 0.88672 0.0
O281 O 0.36502 0.23189 0.83572 0.0
O282 O 0.39891 0.27394 0.94047 0.0
O283 O 0.34268 0.04514 0.87413 0.0
O284 O 0.37567 0.09026 0.97827 0.0
O285 O 0.31066 0.1742 0.92718 0.0
Sc286 Sc 0.12182 0.89436 0.88486 0.0
Sc287 Sc 0.17724 0.76961 0.88578 0.0
Sc288 Sc 0.12999 0.79801 0.96422 0.0
O289 O 0.14303 0.82144 0.9114 0.0
C290 C 0.12 0.94505 0.96959 0.0
C291 C 0.19903 0.91232 0.86931 0.0
C292 C 0.20203 0.78411 0.9689 0.0
C293 C 0.13309 0.79998 0.81596 0.0
C294 C 0.06477 0.80778 0.91943 0.0
C295 C 0.14257 0.66276 0.9296 0.0
O296 O 0.12228 0.95529 0.93452 0.0
O297 O 0.20513 0.85389 0.87407 0.0
O298 O 0.17767 0.80944 0.98408 0.0
O299 O 0.11777 0.84492 0.83149 0.0
O300 O 0.08275 0.78386 0.9444 0.0
O301 O 0.15256 0.68109 0.8976 0.0
O302 O 0.07379 0.85336 0.89804 0.0
O303 O 0.15563 0.77074 0.83211 0.0
O304 O 0.13793 0.69997 0.95669 0.0
O305 O 0.17002 0.93434 0.87054 0.0
O306 O 0.11992 0.89052 0.98332 0.0
O307 O 0.20273 0.76161 0.93611 0.0
Sc308 Sc 0.89622 0.83775 0.53979 0.0
Sc309 Sc 0.83774 0.78963 0.60249 0.0
Sc310 Sc 0.89184 0.90586 0.62785 0.0
O311 O 0.8752 0.84402 0.59018 0.0
C312 C 0.9533 0.8392 0.59558 0.0
C313 C 0.883 0.6988 0.5508 0.0
C314 C 0.87715 0.78446 0.67694 0.0
C315 C 0.82269 0.82518 0.52047 0.0
C316 C 0.89403 0.98137 0.55072 0.0
C317 C 0.816 0.92527 0.63363 0.0
O318 O 0.94341 0.85393 0.56302 0.0
O319 O 0.85759 0.70971 0.57025 0.0
O320 O 0.88189 0.84374 0.67503 0.0
O321 O 0.85197 0.82024 0.51083 0.0
O322 O 0.90409 0.97612 0.58446 0.0
O323 O 0.81185 0.86554 0.63215 0.0
O324 O 0.88662 0.93392 0.53128 0.0
O325 O 0.81349 0.82219 0.55431 0.0
O326 O 0.84412 0.94983 0.63135 0.0
O327 O 0.90444 0.74011 0.54532 0.0
O328 O 0.9383 0.85768 0.62483 0.0
O329 O 0.86166 0.75561 0.65154 0.0
Sc330 Sc 0.62656 0.11342 0.59794 0.0
Sc331 Sc 0.68494 0.22877 0.59952 0.0
Sc332 Sc 0.63513 0.21464 0.52376 0.0
O333 O 0.64919 0.18407 0.57413 0.0
C334 C 0.63799 0.0734 0.51 0.0
C335 C 0.69944 0.08469 0.62184 0.0
C336 C 0.71062 0.23928 0.52366 0.0
C337 C 0.63673 0.21303 0.666 0.0
C338 C 0.56963 0.18724 0.55919 0.0
C339 C 0.64468 0.33901 0.55728 0.0
O340 O 0.6258 0.06314 0.5428 0.0
O341 O 0.70512 0.14357 0.62496 0.0
O342 O 0.68297 0.25314 0.51077 0.0
O343 O 0.62625 0.16065 0.65286 0.0
O344 O 0.58588 0.1822 0.52935 0.0
O345 O 0.67078 0.32054 0.57323 0.0
O346 O 0.5811 0.16472 0.58947 0.0
O347 O 0.65662 0.2477 0.64825 0.0
O348 O 0.62232 0.30016 0.55113 0.0
O349 O 0.67246 0.0641 0.60937 0.0
O350 O 0.64726 0.12736 0.49907 0.0
O351 O 0.71218 0.20441 0.55199 0.0
C352 C 0.09195 0.07763 0.03443 0.0
C353 C 0.12144 0.09284 0.05252 0.0
C354 C 0.1488 0.00852 0.01823 0.0
C355 C 0.12029 0.9976 -0.0029 0.0
N356 N 0.06283 0.00986 0.99101 0.0
N357 N 0.1721 0.0531 0.07471 0.0
C358 C 0.09112 0.02833 0.0072 0.0
C359 C 0.14804 0.05175 0.04873 0.0
N360 N 0.06516 0.11248 0.04278 0.0
N361 N 0.17689 0.97893 0.00843 0.0
H362 H 0.17079 0.08123 0.09862 0.0
H363 H 0.19112 0.02106 0.07506 0.0
H364 H 0.17849 0.94691 0.9863 0.0
H365 H 0.1991 0.98972 0.02029 0.0
H366 H 0.04347 0.10956 0.02838 0.0
H367 H 0.06511 0.14551 0.06453 0.0
H368 H 0.04025 0.02647 -0.00097 0.0
H369 H 0.06174 0.97507 0.97036 0.0
C370 C 0.35011 0.96062 0.00045 0.0
C371 C 0.3814 0.98219 0.99056 0.0
C372 C 0.4058 0.90205 0.03129 0.0
C373 C 0.37457 0.87927 0.04041 0.0
N374 N 0.31693 0.89366 0.04001 0.0
N375 N 0.43858 0.98307 0.00198 0.0
C376 C 0.34669 0.91132 0.02732 0.0
C377 C 0.40916 0.95573 0.00764 0.0
N378 N 0.32375 0.98551 0.98275 0.0
N379 N 0.43224 0.87081 0.04461 0.0
H380 H 0.44195 0.02172 0.98439 0.0
H381 H 0.45935 0.97042 0.01644 0.0
H382 H 0.43046 0.83462 0.06429 0.0
H383 H 0.4557 0.87907 0.03554 0.0
H384 H 0.30035 0.96913 0.98609 0.0
H385 H 0.32534 0.02073 0.96248 0.0
H386 H 0.29574 0.91799 0.0343 0.0
H387 H 0.31341 0.85695 0.05887 0.0
C388 C 0.61263 0.99956 0.46329 0.0
C389 C 0.64065 0.02159 0.48203 0.0
C390 C 0.67396 0.94712 0.446 0.0
C391 C 0.64557 0.92127 0.43049 0.0
N392 N 0.59119 0.93789 0.41139 0.0
N393 N 0.69874 0.03003 0.48273 0.0
C394 C 0.61584 0.95243 0.43507 0.0
C395 C 0.67165 0.9999 0.47051 0.0
N396 N 0.58305 0.02319 0.47269 0.0
N397 N 0.70295 0.91962 0.43797 0.0
H398 H 0.69797 0.06863 0.50066 0.0
H399 H 0.72189 0.02025 0.47312 0.0
H400 H 0.70524 0.88384 0.41808 0.0
H401 H 0.72452 0.93112 0.45105 0.0
H402 H 0.56153 0.00509 0.46244 0.0
H403 H 0.57988 0.05925 0.49224 0.0
H404 H 0.56952 0.96257 0.41047 0.0
H405 H 0.59391 0.90394 0.39037 0.0
C406 C 0.87435 0.09514 0.54996 0.0
C407 C 0.88984 0.04357 0.53185 0.0
C408 C 0.87997 0.09334 0.47067 0.0
C409 C 0.86774 0.14731 0.48881 0.0
N410 N 0.85891 0.20446 0.54657 0.0
N411 N 0.91669 0.0056 0.47597 0.0
C412 C 0.86669 0.14959 0.52871 0.0
C413 C 0.89538 0.04629 0.49242 0.0
N414 N 0.86526 0.09192 0.58676 0.0
N415 N 0.87719 0.08704 0.43274 0.0
H416 H 0.93046 0.97383 0.49149 0.0
H417 H 0.92353 0.00887 0.4479 0.0
H418 H 0.86628 0.12119 0.41602 0.0
H419 H 0.8833 0.04572 0.41858 0.0
H420 H 0.85001 0.12493 0.59925 0.0
H421 H 0.87032 0.05435 0.60434 0.0
H422 H 0.86266 0.21166 0.57514 0.0
H423 H 0.85019 0.24382 0.53248 0.0
C424 C 0.90927 0.96643 0.99186 0.0
C425 C 0.8798 0.99899 -0.00147 0.0
C426 C 0.85546 0.94075 0.94589 0.0
C427 C 0.88154 0.89755 0.94641 0.0
N428 N 0.93629 0.87583 0.96405 0.0
N429 N 0.82398 0.01582 0.98196 0.0
C430 C 0.90956 0.91314 0.96736 0.0
C431 C 0.85277 0.98647 0.97512 0.0
N432 N 0.93715 0.9879 0.0077 0.0
N433 N 0.83338 0.93829 0.91765 0.0
H434 H 0.8202 0.04582 0.0047 0.0
H435 H 0.80292 0.00624 0.96724 0.0
H436 H 0.83608 0.90864 0.89459 0.0
H437 H 0.81501 0.97129 0.91443 0.0
H438 H 0.95987 0.96998 0.00133 0.0
H439 H 0.93804 0.02765 0.02483 0.0
H440 H 0.95612 0.87845 0.9818 0.0
H441 H 0.93806 0.84074 0.94358 0.0
C442 C 0.65342 0.11757 0.98277 0.0
C443 C 0.63239 0.12793 0.95203 0.0
C444 C 0.60176 0.03365 0.97031 0.0
C445 C 0.62051 0.02898 0.00353 0.0
N446 N 0.65929 0.07551 0.04525 0.0
N447 N 0.58523 0.0981 0.91726 0.0
C448 C 0.64485 0.07368 0.0109 0.0
C449 C 0.60613 0.0864 0.94597 0.0
N450 N 0.68201 0.14875 0.98487 0.0
N451 N 0.57986 0.98771 0.96211 0.0
H452 H 0.58896 0.13421 0.89791 0.0
H453 H 0.56372 0.07385 0.91338 0.0
H454 H 0.5749 0.95055 0.98032 0.0
H455 H 0.56778 0.98464 0.93664 0.0
H456 H 0.69958 0.13911 0.0049 0.0
H457 H 0.68987 0.17819 0.96366 0.0
H458 H 0.67506 0.11105 0.05345 0.0
H459 H 0.65284 0.04532 0.06695 0.0
C460 C 0.39611 0.02307 0.52256 0.0
C461 C 0.37842 0.02043 0.48844 0.0
C462 C 0.34491 0.1084 0.5094 0.0
C463 C 0.36466 0.11595 0.54144 0.0
N464 N 0.40821 0.08045 0.57998 0.0
N465 N 0.33966 0.06722 0.44654 0.0
C466 C 0.38996 0.07283 0.54852 0.0
C467 C 0.35394 0.06514 0.481 0.0
N468 N 0.41884 0.97804 0.52988 0.0
N469 N 0.31696 0.14176 0.5066 0.0
H470 H 0.34567 0.03656 0.42486 0.0
H471 H 0.32401 0.10294 0.43824 0.0
H472 H 0.30922 0.17107 0.52804 0.0
H473 H 0.2998 0.13455 0.48578 0.0
H474 H 0.43029 0.97281 0.55559 0.0
H475 H 0.42584 0.94436 0.51013 0.0
H476 H 0.42937 0.05582 0.58543 0.0
H477 H 0.40198 0.11301 0.6007 0.0
C478 C 0.14113 0.9268 0.54126 0.0
C479 C 0.1247 0.87068 0.53134 0.0
C480 C 0.09843 0.92808 0.47999 0.0
C481 C 0.1185 0.98063 0.48633 0.0
N482 N 0.16663 0.01984 0.51635 0.0
N483 N 0.098 0.81549 0.48004 0.0
C484 C 0.14205 0.97737 0.5152 0.0
C485 C 0.10602 0.87036 0.49765 0.0
N486 N 0.15539 0.93281 0.57552 0.0
N487 N 0.07198 0.93269 0.45746 0.0
H488 H 0.10664 0.77167 0.48812 0.0
H489 H 0.08648 0.81462 0.45408 0.0
H490 H 0.0647 0.97488 0.44514 0.0
H491 H 0.05544 0.89602 0.4547 0.0
H492 H 0.16562 0.97497 0.5846 0.0
H493 H 0.15371 0.89843 0.59626 0.0
H494 H 0.18582 0.01583 0.53502 0.0
H495 H 0.16997 0.05361 0.49553 0.0
C496 C 0.59789 0.53634 0.01932 0.0
C497 C 0.62122 0.5247 0.99084 0.0
C498 C 0.6535 0.61333 0.01393 0.0
C499 C 0.629 0.62889 0.04048 0.0
N500 N 0.57738 0.60657 0.06805 0.0
N501 N 0.67006 0.55388 0.95894 0.0
C502 C 0.60106 0.59045 0.04311 0.0
C503 C 0.64876 0.56356 0.98775 0.0
N504 N 0.57294 0.49505 0.02381 0.0
N505 N 0.68159 0.64625 0.0138 0.0
H506 H 0.66815 0.5165 0.94014 0.0
H507 H 0.68843 0.58493 0.9518 0.0
H508 H 0.68511 0.68435 0.03124 0.0
H509 H 0.70215 0.63333 -0.00111 0.0
H510 H 0.55668 0.49658 0.04601 0.0
H511 H 0.56932 0.45673 0.00597 0.0
H512 H 0.5549 0.58511 0.06926 0.0
H513 H 0.57993 0.64348 0.08717 0.0
C514 C 0.85853 0.43445 0.05896 0.0
C515 C 0.88438 0.39105 0.0613 0.0
C516 C 0.91371 0.45254 0.01335 0.0
C517 C 0.88526 0.48777 0.00608 0.0
N518 N 0.82935 0.50831 0.02008 0.0
N519 N 0.94162 0.37924 0.05456 0.0
C520 C 0.85743 0.47804 0.02865 0.0
C521 C 0.91361 0.40611 0.04242 0.0
N522 N 0.83654 0.43786 0.08737 0.0
N523 N 0.94053 0.46234 0.99185 0.0
H524 H 0.94227 0.34972 0.07794 0.0
H525 H 0.96434 0.39194 0.04485 0.0
H526 H 0.94168 0.49709 0.97125 0.0
H527 H 0.96092 0.43378 0.99272 0.0
H528 H 0.8186 0.47218 0.08871 0.0
H529 H 0.83912 0.41195 0.112 0.0
H530 H 0.80748 0.4981 0.03313 0.0
H531 H 0.82733 0.5391 -0.00255 0.0
C532 C 0.08802 0.45614 0.48544 0.0
C533 C 0.11774 0.48706 0.49245 0.0
C534 C 0.14105 0.43464 0.43724 0.0
C535 C 0.11525 0.3916 0.43729 0.0
N536 N 0.06008 0.37091 0.45364 0.0
N537 N 0.17331 0.50465 0.47495 0.0
C538 C 0.08721 0.40609 0.45875 0.0
C539 C 0.1444 0.47644 0.46802 0.0
N540 N 0.06055 0.47609 0.50311 0.0
N541 N 0.16181 0.4365 0.40757 0.0
H542 H 0.1772 0.53309 0.49829 0.0
H543 H 0.19411 0.49559 0.45947 0.0
H544 H 0.15772 0.41058 0.38319 0.0
H545 H 0.18005 0.46986 0.40501 0.0
H546 H 0.03762 0.45949 0.49681 0.0
H547 H 0.06022 0.51292 0.52246 0.0
H548 H 0.0399 0.3727 0.47097 0.0
H549 H 0.05833 0.33864 0.43171 0.0
C550 C 0.37766 0.50799 0.459 0.0
C551 C 0.38988 0.5088 0.49656 0.0
C552 C 0.38959 0.6232 0.49593 0.0
C553 C 0.37717 0.62392 0.45872 0.0
N554 N 0.36669 0.5666 0.40172 0.0
N555 N 0.42544 0.56783 0.53703 0.0
C556 C 0.373 0.5661 0.43932 0.0
C557 C 0.40143 0.56648 0.51094 0.0
N558 N 0.37216 0.45204 0.44128 0.0
N559 N 0.38926 0.67594 0.51791 0.0
H560 H 0.43869 0.52782 0.54411 0.0
H561 H 0.4357 0.60976 0.54644 0.0
H562 H 0.37879 0.71828 0.50978 0.0
H563 H 0.39592 0.67499 0.54609 0.0
H564 H 0.35786 0.4477 0.41747 0.0
H565 H 0.38317 0.41017 0.44953 0.0
H566 H 0.36652 0.52647 0.38495 0.0
H567 H 0.36405 0.60796 0.38635 0.0
C568 C 0.35788 0.38507 0.98108 0.0
C569 C 0.37895 0.37501 0.95029 0.0
C570 C 0.41353 0.46033 0.97411 0.0
C571 C 0.39374 0.46526 0.00668 0.0
N572 N 0.35288 0.41647 0.04562 0.0
N573 N 0.42798 0.40113 0.91801 0.0
C574 C 0.36787 0.42263 0.01168 0.0
C575 C 0.40717 0.41235 0.94697 0.0
N576 N 0.32767 0.36035 0.98082 0.0
N577 N 0.43856 0.50131 0.96939 0.0
H578 H 0.42229 0.37041 0.89617 0.0
H579 H 0.45091 0.42061 0.91606 0.0
H580 H 0.44588 0.53236 0.99041 0.0
H581 H 0.4516 0.50563 0.94457 0.0
H582 H 0.31027 0.37054 0.00104 0.0
H583 H 0.31868 0.33748 0.95756 0.0
H584 H 0.33623 0.38099 0.05119 0.0
H585 H 0.35928 0.44133 0.06954 0.0
C586 C 0.15617 0.51236 0.9799 0.0
C587 C 0.12373 0.49569 0.98814 0.0
C588 C 0.10421 0.5771 0.94503 0.0
C589 C 0.13653 0.59578 0.93835 0.0
N590 N 0.19315 0.57417 0.9417 0.0
N591 N 0.06727 0.50178 0.9731 0.0
C592 C 0.16249 0.56039 0.95303 0.0
C593 C 0.09783 0.52461 0.96876 0.0
N594 N 0.1808 0.48355 -0.00124 0.0
N595 N 0.0797 0.61203 0.93006 0.0
H596 H 0.06179 0.46469 0.99117 0.0
H597 H 0.04766 0.51679 0.95731 0.0
H598 H 0.08394 0.64829 0.91093 0.0
H599 H 0.05555 0.60669 0.93723 0.0
H600 H 0.20489 0.4962 -0.00356 0.0
H601 H 0.1771 0.44796 0.01841 0.0
H602 H 0.2134 0.54806 0.949 0.0
H603 H 0.198 0.60939 0.92213 0.0
C604 C 0.91579 0.60737 0.52741 0.0
C605 C 0.88606 0.64096 0.52735 0.0
C606 C 0.87197 0.59132 0.46727 0.0
C607 C 0.89942 0.55226 0.46974 0.0
N608 N 0.94865 0.52353 0.50055 0.0
N609 N 0.83308 0.65561 0.49986 0.0
C610 C 0.92189 0.5611 0.49924 0.0
C611 C 0.86332 0.63019 0.49814 0.0
N612 N 0.93802 0.61963 0.55469 0.0
N613 N 0.85431 0.59224 0.43502 0.0
H614 H 0.82504 0.6854 0.52098 0.0
H615 H 0.81455 0.64193 0.482 0.0
H616 H 0.8604 0.56612 0.41134 0.0
H617 H 0.83594 0.62448 0.43011 0.0
H618 H 0.96164 0.60315 0.5542 0.0
H619 H 0.93286 0.64796 0.57785 0.0
H620 H 0.96442 0.52147 0.52315 0.0
H621 H 0.95467 0.49285 0.47871 0.0
C622 C 0.65817 0.51024 0.52493 0.0
C623 C 0.63517 0.51442 0.4952 0.0
C624 C 0.62615 0.40213 0.50129 0.0
C625 C 0.64324 0.39996 0.53591 0.0
N626 N 0.67107 0.45939 0.58383 0.0
N627 N 0.58938 0.46483 0.46533 0.0
C628 C 0.65795 0.45628 0.54885 0.0
C629 C 0.6165 0.46072 0.48677 0.0
N630 N 0.68151 0.55488 0.5292 0.0
N631 N 0.62137 0.34945 0.48014 0.0
H632 H 0.57949 0.50774 0.45696 0.0
H633 H 0.57467 0.42595 0.46025 0.0
H634 H 0.6321 0.30643 0.48619 0.0
H635 H 0.61062 0.35117 0.45373 0.0
H636 H 0.70012 0.55027 0.54859 0.0
H637 H 0.68488 0.59188 0.5105 0.0
H638 H 0.67972 0.50131 0.59522 0.0
H639 H 0.67012 0.42217 0.6028 0.0
C640 C 0.1175 0.29328 0.27556 0.0
C641 C 0.11918 0.2263 0.27867 0.0
C642 C 0.10787 0.2187 0.21176 0.0
C643 C 0.11525 0.28348 0.20765 0.0
N644 N 0.129 0.38305 0.23638 0.0
N645 N 0.11957 0.1249 0.24699 0.0
C646 C 0.11995 0.32147 0.23973 0.0
C647 C 0.11461 0.18854 0.24621 0.0
N648 N 0.1135 0.3301 0.30668 0.0
N649 N 0.09555 0.18574 0.18218 0.0
H650 H 0.12722 0.10039 0.27058 0.0
H651 H 0.11954 0.09714 0.22287 0.0
H652 H 0.09047 0.20704 0.15649 0.0
H653 H 0.0873 0.13957 0.18456 0.0
H654 H 0.10921 0.37842 0.30527 0.0
H655 H 0.11088 0.31175 0.33355 0.0
H656 H 0.1367 0.40998 0.2591 0.0
H657 H 0.13113 0.40617 0.2108 0.0
C658 C 0.39215 0.77602 0.21813 0.0
C659 C 0.38071 0.71332 0.21306 0.0
C660 C 0.38237 0.69738 0.28085 0.0
C661 C 0.3862 0.76316 0.28613 0.0
N662 N 0.41319 0.85437 0.26126 0.0
N663 N 0.36272 0.61511 0.24031 0.0
C664 C 0.39645 0.8 0.25517 0.0
C665 C 0.37581 0.67372 0.24455 0.0
N666 N 0.39856 0.81276 0.18756 0.0
N667 N 0.38716 0.65718 0.31017 0.0
H668 H 0.35629 0.59618 0.21443 0.0
H669 H 0.35538 0.58762 0.26295 0.0
H670 H 0.39574 0.67282 0.33604 0.0
H671 H 0.38722 0.60833 0.30728 0.0
H672 H 0.40257 0.86106 0.189 0.0
H673 H 0.39879 0.79536 0.16021 0.0
H674 H 0.42302 0.88192 0.24006 0.0
H675 H 0.42162 0.86706 0.2877 0.0
C676 C 0.59375 0.82592 0.24253 0.0
C677 C 0.59623 0.78775 0.20997 0.0
C678 C 0.60307 0.69333 0.24817 0.0
C679 C 0.60649 0.7324 0.28009 0.0
N680 N 0.59244 0.82981 0.31074 0.0
N681 N 0.58352 0.68604 0.18432 0.0
C682 C 0.59764 0.79704 0.27824 0.0
C683 C 0.59401 0.72146 0.21381 0.0
N684 N 0.58785 0.88891 0.23941 0.0
N685 N 0.6107 0.63081 0.24976 0.0
H686 H 0.57561 0.70687 0.15945 0.0
H687 H 0.57927 0.63779 0.18615 0.0
H688 H 0.61772 0.60831 0.27435 0.0
H689 H 0.61204 0.60221 0.22604 0.0
H690 H 0.59084 0.92093 0.26123 0.0
H691 H 0.5785 0.90881 0.21508 0.0
H692 H 0.58403 0.87594 0.31184 0.0
H693 H 0.59395 0.80858 0.33707 0.0
C694 C 0.89352 0.21738 0.24457 0.0
C695 C 0.8655 0.19587 0.22599 0.0
C696 C 0.83233 0.22586 0.28021 0.0
C697 C 0.86046 0.24623 0.29926 0.0
N698 N 0.91845 0.24613 0.30363 0.0
N699 N 0.80994 0.16398 0.22949 0.0
C700 C 0.89131 0.23718 0.28267 0.0
C701 C 0.8355 0.19474 0.2451 0.0
N702 N 0.92192 0.22123 0.22535 0.0
N703 N 0.80247 0.24008 0.29416 0.0
H704 H 0.81152 0.14114 0.20369 0.0
H705 H 0.78839 0.15578 0.24367 0.0
H706 H 0.79879 0.26449 0.31917 0.0
H707 H 0.78124 0.23272 0.27927 0.0
H708 H 0.94236 0.24343 0.23584 0.0
H709 H 0.92427 0.20541 0.19781 0.0
H710 H 0.94154 0.23514 0.29418 0.0
H711 H 0.91758 0.25868 0.3319 0.0
C712 C 0.90388 0.77996 0.74093 0.0
C713 C 0.88645 0.74945 0.71197 0.0
C714 C 0.87126 0.6653 0.7553 0.0
C715 C 0.88299 0.70219 0.78547 0.0
N716 N 0.91282 0.79218 0.80772 0.0
N717 N 0.87403 0.64539 0.68868 0.0
C718 C 0.90042 0.75846 0.77844 0.0
C719 C 0.87619 0.6865 0.71804 0.0
N720 N 0.92594 0.82522 0.73202 0.0
N721 N 0.85375 0.61207 0.7621 0.0
H722 H 0.88266 0.65635 0.66201 0.0
H723 H 0.86883 0.59774 0.692 0.0
H724 H 0.84964 0.59449 0.78896 0.0
H725 H 0.84129 0.58802 0.74119 0.0
H726 H 0.94117 0.8463 0.75147 0.0
H727 H 0.9323 0.83503 0.70435 0.0
H728 H 0.92204 0.83751 0.805 0.0
H729 H 0.9126 0.77578 0.83528 0.0
C730 C 0.62381 0.3283 0.7453 0.0
C731 C 0.61852 0.28815 0.77669 0.0
C732 C 0.62177 0.19627 0.73498 0.0
C733 C 0.62554 0.23655 0.70346 0.0
N734 N 0.61539 0.34064 0.6787 0.0
N735 N 0.59881 0.18679 0.79708 0.0
C736 C 0.62153 0.3025 0.70866 0.0
C737 C 0.61276 0.22308 0.76999 0.0
N738 N 0.6334 0.38938 0.74958 0.0
N739 N 0.62893 0.13356 0.73287 0.0
H740 H 0.59039 0.20576 0.82229 0.0
H741 H 0.59215 0.14009 0.79245 0.0
H742 H 0.63808 0.11174 0.70899 0.0
H743 H 0.62916 0.10452 0.75642 0.0
H744 H 0.64036 0.41721 0.72691 0.0
H745 H 0.63791 0.41072 0.77525 0.0
H746 H 0.61005 0.3884 0.68166 0.0
H747 H 0.61162 0.32293 0.65175 0.0
C748 C 0.40833 0.30583 0.73651 0.0
C749 C 0.40026 0.26777 0.70565 0.0
C750 C 0.38931 0.17851 0.74666 0.0
C751 C 0.39209 0.21888 0.77838 0.0
N752 N 0.40371 0.32396 0.80288 0.0
N753 N 0.40323 0.16213 0.68167 0.0
C754 C 0.40199 0.28318 0.77326 0.0
C755 C 0.39759 0.20202 0.71096 0.0
N756 N 0.42432 0.36114 0.73077 0.0
N757 N 0.37513 0.12056 0.74939 0.0
H758 H 0.41066 0.17886 0.65565 0.0
H759 H 0.40449 0.11335 0.68457 0.0
H760 H 0.36471 0.10303 0.77377 0.0
H761 H 0.36984 0.09284 0.72608 0.0
H762 H 0.43355 0.38883 0.75232 0.0
H763 H 0.43271 0.37431 0.70435 0.0
H764 H 0.40577 0.37253 0.79973 0.0
H765 H 0.40134 0.31085 0.83075 0.0
C766 C 0.12288 0.70937 0.77387 0.0
C767 C 0.12394 0.77564 0.7784 0.0
C768 C 0.12004 0.78621 0.71035 0.0
C769 C 0.12829 0.7214 0.70607 0.0
N770 N 0.14243 0.62288 0.73669 0.0
N771 N 0.12533 0.87861 0.74951 0.0
C772 C 0.13053 0.68284 0.73854 0.0
C773 C 0.12253 0.8148 0.7463 0.0
N774 N 0.11521 0.67182 0.80362 0.0
N775 N 0.10904 0.82004 0.68044 0.0
H776 H 0.12738 0.90177 0.77513 0.0
H777 H 0.12802 0.90804 0.72635 0.0
H778 H 0.1047 0.79964 0.65431 0.0
H779 H 0.10049 0.86606 0.68291 0.0
H780 H 0.11185 0.62336 0.80103 0.0
H781 H 0.10861 0.69041 0.82966 0.0
H782 H 0.147 0.596 0.76054 0.0
H783 H 0.15143 0.60242 0.71233 0.0
C784 C 0.2466 0.45034 0.08663 0.0
C785 C 0.22379 0.45252 0.11665 0.0
C786 C 0.26071 0.52464 0.15089 0.0
C787 C 0.28255 0.5251 0.11999 0.0
N788 N 0.29332 0.49628 0.05589 0.0
N789 N 0.20797 0.49604 0.1762 0.0
C790 C 0.27476 0.48958 0.08734 0.0
C791 C 0.23054 0.49117 0.14839 0.0
N792 N 0.24128 0.41079 0.05698 0.0
N793 N 0.26941 0.55476 0.1832 0.0
H794 H 0.18662 0.47022 0.17613 0.0
H795 H 0.20934 0.52801 0.19825 0.0
H796 H 0.29111 0.57912 0.18582 0.0
H797 H 0.25656 0.55204 0.2082 0.0
H798 H 0.25866 0.39964 0.03697 0.0
H799 H 0.21983 0.38623 0.05316 0.0
H800 H 0.28736 0.47764 0.02983 0.0
H801 H 0.31375 0.52475 0.05488 0.0
C802 C 0.73325 0.51867 0.33162 0.0
C803 C 0.72171 0.55156 0.36368 0.0
C804 C 0.7681 0.51216 0.39997 0.0
C805 C 0.77853 0.47549 0.36886 0.0
N806 N 0.76898 0.43776 0.30621 0.0
N807 N 0.72426 0.56817 0.43045 0.0
C808 C 0.76042 0.47691 0.33498 0.0
C809 C 0.73809 0.54496 0.39841 0.0
N810 N 0.71862 0.52838 0.29786 0.0
N811 N 0.78707 0.51633 0.43113 0.0
H812 H 0.70212 0.59153 0.43078 0.0
H813 H 0.73363 0.56112 0.45713 0.0
H814 H 0.80817 0.49029 0.43465 0.0
H815 H 0.78327 0.54963 0.45214 0.0
H816 H 0.72757 0.51125 0.27254 0.0
H817 H 0.69832 0.55705 0.29498 0.0
H818 H 0.7551 0.43126 0.28225 0.0
H819 H 0.7893 0.40876 0.3073 0.0
C820 C 0.7724 0.48582 0.89098 0.0
C821 C 0.77653 0.54476 0.87286 0.0
C822 C 0.72093 0.53301 0.84763 0.0
C823 C 0.71852 0.47095 0.86257 0.0
N824 N 0.75036 0.38191 0.88484 0.0
N825 N 0.75666 0.6153 0.82502 0.0
C826 C 0.74672 0.44524 0.87998 0.0
C827 C 0.75123 0.56602 0.84877 0.0
N828 N 0.79192 0.46888 0.92007 0.0
N829 N 0.69472 0.56006 0.83109 0.0
H830 H 0.77899 0.63734 0.8226 0.0
H831 H 0.74031 0.62928 0.80453 0.0
H832 H 0.67341 0.53563 0.82599 0.0
H833 H 0.6938 0.6076 0.82396 0.0
H834 H 0.78772 0.42876 0.9362 0.0
H835 H 0.80951 0.49844 0.93115 0.0
H836 H 0.77145 0.36207 0.89548 0.0
H837 H 0.73515 0.34859 0.87314 0.0
C838 C 0.24396 0.51055 0.58927 0.0
C839 C 0.22701 0.52969 0.62214 0.0
C840 C 0.27057 0.4818 0.66067 0.0
C841 C 0.2885 0.46601 0.62778 0.0
N842 N 0.29291 0.47033 0.56021 0.0
N843 N 0.22586 0.53964 0.68921 0.0
C844 C 0.27532 0.48195 0.59198 0.0
C845 C 0.24083 0.51679 0.65785 0.0
N846 N 0.22968 0.51892 0.55512 0.0
N847 N 0.28198 0.46324 0.69483 0.0
H848 H 0.20372 0.5629 0.68822 0.0
H849 H 0.23598 0.5389 0.71586 0.0
H850 H 0.30444 0.44195 0.69829 0.0
H851 H 0.26872 0.46602 0.71956 0.0
H852 H 0.23818 0.49936 0.53023 0.0
H853 H 0.20776 0.54224 0.55192 0.0
H854 H 0.28719 0.48837 0.53395 0.0
H855 H 0.31447 0.44523 0.56 0.0
C856 C 0.75313 0.03313 0.09644 0.0
C857 C 0.77303 0.03922 0.1287 0.0
C858 C 0.73097 0.98308 0.16559 0.0
C859 C 0.71198 0.97358 0.13277 0.0
N860 N 0.71018 0.97662 0.06511 0.0
N861 N 0.78316 0.01011 0.19266 0.0
C862 C 0.72449 0.99531 0.09774 0.0
C863 C 0.76257 0.01115 0.16288 0.0
N864 N 0.76137 0.06422 0.06429 0.0
N865 N 0.71832 0.96749 0.1997 0.0
H866 H 0.80619 0.02959 0.19141 0.0
H867 H 0.77867 0.98534 0.21727 0.0
H868 H 0.69546 0.94778 0.20274 0.0
H869 H 0.72918 0.97886 0.2251 0.0
H870 H 0.74595 0.06872 0.04143 0.0
H871 H 0.78275 0.08947 0.06137 0.0
H872 H 0.72008 0.98483 0.03873 0.0
H873 H 0.68981 0.9481 0.06425 0.0
C874 C 0.24158 0.03122 0.40075 0.0
C875 C 0.22235 0.03806 0.36796 0.0
C876 C 0.2617 0.97239 0.33288 0.0
C877 C 0.28012 0.96342 0.36608 0.0
N878 N 0.28393 0.97432 0.43323 0.0
N879 N 0.21197 0.00955 0.30384 0.0
C880 C 0.26911 0.99048 0.40039 0.0
C881 C 0.23176 0.00667 0.33436 0.0
N882 N 0.23345 0.06367 0.43259 0.0
N883 N 0.27353 0.95014 0.29961 0.0
H884 H 0.19079 0.03608 0.30354 0.0
H885 H 0.21531 0.98284 0.27967 0.0
H886 H 0.29514 0.92516 0.29768 0.0
H887 H 0.26336 0.95998 0.27364 0.0
H888 H 0.24868 0.06866 0.45555 0.0
H889 H 0.21199 0.0888 0.43555 0.0
H890 H 0.27552 0.98742 0.4596 0.0
H891 H 0.30358 0.94378 0.43463 0.0
C892 C 0.2309 0.01195 0.88581 0.0
C893 C 0.2278 0.9561 0.86414 0.0
C894 C 0.28351 0.97424 0.84037 0.0
C895 C 0.28525 0.03315 0.8595 0.0
N896 N 0.25356 0.11602 0.88923 0.0
N897 N 0.24923 0.89291 0.81364 0.0
C898 C 0.25685 0.05455 0.87866 0.0
C899 C 0.25367 0.93966 0.83946 0.0
N900 N 0.21015 0.02348 0.91483 0.0
N901 N 0.31012 0.95158 0.82222 0.0
H902 H 0.22741 0.86914 0.81064 0.0
H903 H 0.26579 0.88247 0.79256 0.0
H904 H 0.33117 0.97772 0.81891 0.0
H905 H 0.31175 0.90572 0.81196 0.0
H906 H 0.21368 0.05988 0.93405 0.0
H907 H 0.19172 0.99283 0.92246 0.0
H908 H 0.2324 0.13396 0.90091 0.0
H909 H 0.26948 0.15117 0.88141 0.0
C910 C 0.78074 0.00563 0.60023 0.0
C911 C 0.78638 0.96751 0.63243 0.0
C912 C 0.73441 0.00631 0.65894 0.0
C913 C 0.72806 0.04054 0.62551 0.0
N914 N 0.7423 0.06111 0.56143 0.0
N915 N 0.76693 0.92755 0.69142 0.0
C916 C 0.75056 0.03704 0.59554 0.0
C917 C 0.76257 0.9665 0.66142 0.0
N918 N 0.8042 0.01218 0.57361 0.0
N919 N 0.71393 0.0132 0.68869 0.0
H920 H 0.78795 0.9014 0.69534 0.0
H921 H 0.74928 0.91882 0.7115 0.0
H922 H 0.69298 0.04036 0.68719 0.0
H923 H 0.71847 0.99529 0.7153 0.0
H924 H 0.80355 0.04681 0.55296 0.0
H925 H 0.82493 0.98463 0.57255 0.0
H926 H 0.75542 0.0529 0.53698 0.0
H927 H 0.72062 0.08452 0.55688 0.0
C928 C 0.2634 0.26823 0.95403 0.0
C929 C 0.2813 0.2205 0.97304 0.0
C930 C 0.23318 0.18972 0.00578 0.0
C931 C 0.21873 0.24737 0.99491 0.0
N932 N 0.22153 0.34581 0.96117 0.0
N933 N 0.28308 0.13487 0.01748 0.0
C934 C 0.23403 0.28799 0.96953 0.0
C935 C 0.26622 0.18105 -0.00063 0.0
N936 N 0.27329 0.29262 0.92054 0.0
N937 N 0.21496 0.14335 0.02154 0.0
H938 H 0.30753 0.12641 0.01272 0.0
H939 H 0.27334 0.10841 0.0393 0.0
H940 H 0.19007 0.14807 0.02451 0.0
H941 H 0.22384 0.09851 0.02734 0.0
H942 H 0.25894 0.32288 0.9047 0.0
H943 H 0.2943 0.27878 0.90696 0.0
H944 H 0.23429 0.37923 0.94573 0.0
H945 H 0.19964 0.36203 0.97179 0.0
C946 C 0.25929 0.67279 0.00057 0.0
C947 C 0.28784 0.70419 0.99095 0.0
C948 C 0.25853 0.80048 0.97735 0.0
C949 C 0.23032 0.77011 0.99018 0.0
N950 N 0.20363 0.68315 0.02001 0.0
N951 N 0.31622 0.79382 0.96681 0.0
C952 C 0.23083 0.70813 0.00437 0.0
C953 C 0.28781 0.76672 0.97749 0.0
N954 N 0.26033 0.60958 0.00712 0.0
N955 N 0.25639 0.86026 0.96335 0.0
H956 H 0.33759 0.76794 0.96526 0.0
H957 H 0.31881 0.84096 0.95959 0.0
H958 H 0.23505 0.88632 0.9651 0.0
H959 H 0.27502 0.88342 0.9496 0.0
H960 H 0.24029 0.58231 0.01356 0.0
H961 H 0.2816 0.5842 0.00285 0.0
H962 H 0.20263 0.63877 0.03228 0.0
H963 H 0.18258 0.70961 0.02322 0.0
C964 C 0.77064 0.74804 0.45205 0.0
C965 C 0.7409 0.76468 0.46957 0.0
C966 C 0.7673 0.84931 0.50331 0.0
C967 C 0.79711 0.82403 0.49215 0.0
N968 N 0.82712 0.77412 0.44277 0.0
N969 N 0.71015 0.83424 0.51044 0.0
C970 C 0.79893 0.78097 0.46218 0.0
C971 C 0.73889 0.81638 0.49479 0.0
N972 N 0.77157 0.70055 0.42612 0.0
N973 N 0.76686 0.90591 0.52135 0.0
H974 H 0.68808 0.8143 0.50356 0.0
H975 H 0.70824 0.86729 0.53191 0.0
H976 H 0.7882 0.93086 0.52524 0.0
H977 H 0.74599 0.93066 0.52819 0.0
H978 H 0.79232 0.68443 0.41295 0.0
H979 H 0.7513 0.67496 0.41844 0.0
H980 H 0.83023 0.7446 0.41979 0.0
H981 H 0.84663 0.80415 0.44689 0.0
C982 C 0.78922 0.31678 0.54637 0.0
C983 C 0.78923 0.36861 0.52267 0.0
C984 C 0.73507 0.34339 0.50194 0.0
C985 C 0.73884 0.28176 0.51767 0.0
N986 N 0.77582 0.20704 0.54638 0.0
N987 N 0.7552 0.45119 0.50174 0.0
C988 C 0.76766 0.26766 0.53805 0.0
C989 C 0.75926 0.38904 0.50927 0.0
N990 N 0.81171 0.31237 0.57386 0.0
N991 N 0.71086 0.3568 0.47733 0.0
H992 H 0.77387 0.48308 0.50671 0.0
H993 H 0.73297 0.47065 0.49475 0.0
H994 H 0.69654 0.32225 0.46514 0.0
H995 H 0.70825 0.40053 0.4645 0.0
H996 H 0.81171 0.27597 0.59346 0.0
H997 H 0.82845 0.3484 0.57807 0.0
H998 H 0.79659 0.195 0.56106 0.0
H999 H 0.76398 0.16904 0.5341 0.0
C1000 C 0.77057 0.70832 0.02985 0.0
C1001 C 0.7876 0.74731 0.00505 0.0
C1002 C 0.74504 0.82545 0.00496 0.0
C1003 C 0.72798 0.78693 0.02999 0.0
N1004 N 0.73039 0.70498 0.07805 0.0
N1005 N 0.79796 0.85242 0.98306 0.0
C1006 C 0.74268 0.73287 0.0466 0.0
C1007 C 0.77702 0.80924 -0.00283 0.0
N1008 N 0.77972 0.64736 0.03587 0.0
N1009 N 0.73106 0.87723 0.98903 0.0
H1010 H 0.82234 0.84206 0.97994 0.0
H1011 H 0.7919 0.89953 0.97932 0.0
H1012 H 0.70754 0.89153 0.995 0.0
H1013 H 0.7421 0.90322 0.96784 0.0
H1014 H 0.76538 0.61516 0.05028 0.0
H1015 H 0.80047 0.6278 0.02429 0.0
H1016 H 0.74265 0.66979 0.0926 0.0
H1017 H 0.70942 0.71959 0.09141 0.0
C1018 C 0.74718 0.24571 0.95767 0.0
C1019 C 0.72737 0.29218 0.97525 0.0
C1020 C 0.76857 0.31341 0.02112 0.0
C1021 C 0.78551 0.25998 0.00766 0.0
N1022 N 0.79087 0.17179 0.96547 0.0
N1023 N 0.71842 0.37118 0.02294 0.0
C1024 C 0.77519 0.22568 0.97617 0.0
C1025 C 0.73781 0.32645 0.0068 0.0
N1026 N 0.73929 0.22028 0.92364 0.0
N1027 N 0.78245 0.35214 0.04698 0.0
H1028 H 0.69641 0.38525 0.01162 0.0
H1029 H 0.72328 0.39216 0.04871 0.0
H1030 H 0.80545 0.3438 0.05721 0.0
H1031 H 0.77278 0.39516 0.05542 0.0
H1032 H 0.75528 0.19331 0.90775 0.0
H1033 H 0.71761 0.22841 0.90993 0.0
H1034 H 0.78161 0.13998 0.94604 0.0
H1035 H 0.81223 0.15645 0.97779 0.0
C1036 C 0.25568 0.31905 0.4972 0.0
C1037 C 0.27047 0.28233 0.52509 0.0
C1038 C 0.22462 0.21047 0.52727 0.0
C1039 C 0.21038 0.24638 0.49875 0.0
N1040 N 0.20539 0.3465 0.46779 0.0
N1041 N 0.26422 0.2067 0.5761 0.0
C1042 C 0.22374 0.30478 0.48744 0.0
C1043 C 0.25339 0.23257 0.54337 0.0
N1044 N 0.27192 0.36736 0.48032 0.0
N1045 N 0.21163 0.15421 0.53782 0.0
H1046 H 0.2857 0.21904 0.58895 0.0
H1047 H 0.25049 0.17591 0.59225 0.0
H1048 H 0.18916 0.13922 0.52866 0.0
H1049 H 0.22376 0.12154 0.55442 0.0
H1050 H 0.26321 0.39137 0.457 0.0
H1051 H 0.29512 0.38094 0.48806 0.0
H1052 H 0.2131 0.39139 0.46047 0.0
H1053 H 0.18111 0.338 0.4626 0.0
C1054 C 0.27386 0.7092 0.48892 0.0
C1055 C 0.27911 0.77491 0.4908 0.0
C1056 C 0.22141 0.79509 0.49077 0.0
C1057 C 0.2163 0.72935 0.48959 0.0
N1058 N 0.23562 0.62559 0.47657 0.0
N1059 N 0.25966 0.87962 0.50128 0.0
C1060 C 0.24212 0.68705 0.48474 0.0
C1061 C 0.25324 0.81767 0.49429 0.0
N1062 N 0.29917 0.66845 0.4922 0.0
N1063 N 0.1959 0.83527 0.48726 0.0
H1064 H 0.28325 0.89565 0.50479 0.0
H1065 H 0.24206 0.9134 0.50676 0.0
H1066 H 0.17281 0.81913 0.48123 0.0
H1067 H 0.19804 0.88403 0.48593 0.0
H1068 H 0.29678 0.6197 0.49319 0.0
H1069 H 0.32233 0.68391 0.49827 0.0
H1070 H 0.25313 0.59196 0.47036 0.0
H1071 H 0.21198 0.61048 0.4725 0.0
C1072 C 0.00541 0.26917 0.04826 0.0
C1073 C 0.02254 0.29071 0.08001 0.0
C1074 C 0.98871 0.21904 0.11875 0.0
C1075 C 0.97454 0.1932 0.08559 0.0
N1076 N 0.9847 0.1756 0.0195 0.0
N1077 N 0.03265 0.27835 0.14654 0.0
C1078 C 0.98742 0.21294 0.05053 0.0
C1079 C 0.01455 0.26415 0.11573 0.0
N1080 N 0.00723 0.30133 0.01523 0.0
N1081 N 0.97868 0.19956 0.15324 0.0
H1082 H 0.05039 0.31269 0.14691 0.0
H1083 H 0.03117 0.2537 0.1717 0.0
H1084 H 0.96615 0.1579 0.15759 0.0
H1085 H 0.98362 0.22436 0.17778 0.0
H1086 H 0.99352 0.28897 0.99187 0.0
H1087 H 0.01952 0.34404 0.01294 0.0
H1088 H 0.99549 0.18695 0.99395 0.0
H1089 H 0.97625 0.12941 0.021 0.0
C1090 C 0.50312 0.69184 0.05262 0.0
C1091 C 0.48041 0.69865 0.08201 0.0
C1092 C 0.50204 0.80358 0.09627 0.0
C1093 C 0.5263 0.7963 0.06832 0.0
N1094 N 0.54747 0.73314 0.01658 0.0
N1095 N 0.46291 0.75407 0.13721 0.0
C1096 C 0.52618 0.74035 0.04553 0.0
C1097 C 0.48166 0.75206 0.10574 0.0
N1098 N 0.50121 0.63966 0.03014 0.0
N1099 N 0.49656 0.8617 0.11154 0.0
H1100 H 0.44775 0.71724 0.14493 0.0
H1101 H 0.46504 0.78895 0.15762 0.0
H1102 H 0.50859 0.90195 0.10236 0.0
H1103 H 0.4773 0.87165 0.12937 0.0
H1104 H 0.51351 0.63386 0.00494 0.0
H1105 H 0.48633 0.6016 0.0367 0.0
H1106 H 0.55348 0.68978 0.00487 0.0
H1107 H 0.55849 0.77017 0.0027 0.0
C1108 C 0.47888 0.74396 0.40546 0.0
C1109 C 0.47634 0.80791 0.41678 0.0
C1110 C 0.53265 0.80628 0.43736 0.0
C1111 C 0.53534 0.74097 0.42705 0.0
N1112 N 0.50726 0.64477 0.41197 0.0
N1113 N 0.50062 0.9024 0.43997 0.0
C1114 C 0.50748 0.70911 0.41363 0.0
C1115 C 0.50303 0.83928 0.43244 0.0
N1116 N 0.45391 0.71638 0.3867 0.0
N1117 N 0.5583 0.83742 0.45222 0.0
H1118 H 0.47954 0.92825 0.43573 0.0
H1119 H 0.51974 0.93077 0.44807 0.0
H1120 H 0.58194 0.82558 0.44622 0.0
H1121 H 0.55618 0.87678 0.46948 0.0
H1122 H 0.45553 0.67235 0.37393 0.0
H1123 H 0.43236 0.73975 0.38098 0.0
H1124 H 0.48676 0.61841 0.40605 0.0
H1125 H 0.52642 0.61704 0.42113 0.0
C1126 C 0.025 0.25843 0.3826 0.0
C1127 C 0.02214 0.19771 0.39918 0.0
C1128 C 0.96485 0.21802 0.40956 0.0
C1129 C 0.96944 0.28276 0.40087 0.0
N1130 N 0.0041 0.36535 0.37876 0.0
N1131 N 0.98928 0.11954 0.4292 0.0
C1132 C 0.99944 0.30306 0.38656 0.0
C1133 C 0.99194 0.17721 0.4126 0.0
N1134 N 0.05237 0.27367 0.36347 0.0
N1135 N 0.93438 0.19501 0.41345 0.0
H1136 H 0.00841 0.08759 0.43015 0.0
H1137 H 0.96874 0.10508 0.44365 0.0
H1138 H 0.91394 0.22285 0.40939 0.0
H1139 H 0.92962 0.14714 0.41595 0.0
H1140 H 0.05459 0.31456 0.34764 0.0
H1141 H 0.07169 0.24259 0.36066 0.0
H1142 H 0.02652 0.38457 0.37243 0.0
H1143 H 0.98576 0.39879 0.38106 0.0
C1144 C 0.99127 0.71525 0.88296 0.0
C1145 C 0.98023 0.68972 0.91769 0.0
C1146 C 0.01796 0.75805 0.95075 0.0
C1147 C 0.03233 0.77738 0.91657 0.0
N1148 N 0.03638 0.76118 0.84948 0.0
N1149 N 0.99226 0.67195 0.9829 0.0
C1150 C 0.02009 0.75235 0.88233 0.0
C1151 C 0.99688 0.70603 0.95091 0.0
N1152 N 0.97399 0.70675 0.85085 0.0
N1153 N 0.02414 0.79001 0.98319 0.0
H1154 H 0.97781 0.63174 0.98342 0.0
H1155 H 0.00557 0.67969 0.00724 0.0
H1156 H 0.03812 0.83084 0.98373 0.0
H1157 H 0.01235 0.78004 0.00834 0.0
H1158 H 0.97922 0.73062 0.82606 0.0
H1159 H 0.95325 0.67946 0.84943 0.0
H1160 H 0.03022 0.73804 0.82472 0.0
H1161 H 0.05753 0.78722 0.84753 0.0
C1162 C 0.50445 0.2999 0.89411 0.0
C1163 C 0.52904 0.29234 0.92158 0.0
C1164 C 0.50572 0.18841 0.93804 0.0
C1165 C 0.48021 0.19795 0.91263 0.0
N1166 N 0.45419 0.26407 0.86696 0.0
N1167 N 0.54613 0.23418 0.97758 0.0
C1168 C 0.47963 0.2535 0.8903 0.0
C1169 C 0.52783 0.23811 0.94579 0.0
N1170 N 0.50369 0.35381 0.87315 0.0
N1171 N 0.50929 0.13056 0.95435 0.0
H1172 H 0.56174 0.26829 0.98741 0.0
H1173 H 0.54296 0.19914 -0.00236 0.0
H1174 H 0.49374 0.09312 0.94877 0.0
H1175 H 0.52949 0.11749 0.9698 0.0
H1176 H 0.49126 0.35879 0.84806 0.0
H1177 H 0.51561 0.39484 0.88116 0.0
H1178 H 0.45148 0.30451 0.85111 0.0
H1179 H 0.43483 0.23353 0.86409 0.0
C1180 C 0.53304 0.28006 0.53989 0.0
C1181 C 0.53728 0.22103 0.55904 0.0
C1182 C 0.48171 0.23207 0.58387 0.0
C1183 C 0.47914 0.29289 0.56751 0.0
N1184 N 0.50426 0.37969 0.53625 0.0
N1185 N 0.5141 0.13938 0.59754 0.0
C1186 C 0.50534 0.31808 0.54735 0.0
C1187 C 0.51119 0.19706 0.58085 0.0
N1188 N 0.55444 0.29978 0.51326 0.0
N1189 N 0.45527 0.2065 0.60087 0.0
H1190 H 0.53209 0.10721 0.59041 0.0
H1191 H 0.49889 0.123 0.61856 0.0
H1192 H 0.43343 0.23042 0.60354 0.0
H1193 H 0.45421 0.16073 0.61096 0.0
H1194 H 0.54979 0.33728 0.49529 0.0
H1195 H 0.57519 0.27613 0.50558 0.0
H1196 H 0.52417 0.40392 0.52587 0.0
H1197 H 0.48429 0.40862 0.54097 0.0
C1198 C 0.00686 0.69298 0.61182 0.0
C1199 C 0.02971 0.70167 0.58232 0.0
C1200 C 0.0078 0.80827 0.57277 0.0
C1201 C 0.98228 0.79681 0.59794 0.0
N1202 N 0.95484 0.72191 0.6379 0.0
N1203 N 0.04024 0.76162 0.52491 0.0
C1204 C 0.98124 0.73774 0.61703 0.0
C1205 C 0.027 0.75741 0.5599 0.0
N1206 N 0.00841 0.64043 0.63377 0.0
N1207 N 0.01347 0.86806 0.56037 0.0
H1208 H 0.05079 0.72462 0.51041 0.0
H1209 H 0.03594 0.80006 0.50743 0.0
H1210 H 1.00014 0.90666 0.56991 0.0
H1211 H 0.0336 0.87962 0.54421 0.0
H1212 H 0.99576 0.63598 0.65888 0.0
H1213 H 0.02281 0.60167 0.62729 0.0
H1214 H 0.95093 0.67697 0.64861 0.0
H1215 H 0.93536 0.75182 0.64214 0.0
loop_
_geom_bond_atom_site_label_1
_geom_bond_atom_site_label_2
_geom_bond_distance
_geom_bond_site_symmetry_2
_ccdc_geom_bond_type
Sc0 O3 2.025 . S
Sc0 O10 2.105 . S
Sc0 O13 2.105 . S
Sc0 O16 2.105 . S
Sc0 O19 2.105 . S
Sc1 O3 2.025 . S
Sc1 O11 2.105 . S
Sc1 O15 2.105 . S
Sc1 O17 2.105 . S
Sc1 O21 2.105 . S
Sc2 O3 2.025 . S
Sc2 O12 2.105 . S
Sc2 O14 2.105 . S
Sc2 O18 2.105 . S
Sc2 O20 2.105 . S
O3 Sc0 2.025 . S
O3 Sc1 2.025 . S
O3 Sc2 2.025 . S
C4 O10 1.268 . S
C4 O20 1.268 . S
C5 O11 1.268 . S
C5 O19 1.268 . S
C6 O12 1.268 . S
C6 O21 1.268 . S
C7 O13 1.268 . S
C7 O17 1.268 . S
C8 O14 1.268 . S
C8 O16 1.268 . S
C9 O15 1.268 . S
C9 O18 1.268 . S
O10 Sc0 2.105 . S
O10 C4 1.268 . S
O11 Sc1 2.105 . S
O11 C5 1.268 . S
O12 Sc2 2.105 . S
O12 C6 1.268 . S
O13 Sc0 2.105 . S
O13 C7 1.268 . S
O14 Sc2 2.105 . S
O14 C8 1.268 . S
O15 Sc1 2.105 . S
O15 C9 1.268 . S
O16 Sc0 2.105 . S
O16 C8 1.268 . S
O17 Sc1 2.105 . S
O17 C7 1.268 . S
O18 Sc2 2.105 . S
O18 C9 1.268 . S
O19 Sc0 2.105 . S
O19 C5 1.268 . S
O20 Sc2 2.105 . S
O20 C4 1.268 . S
O21 Sc1 2.105 . S
O21 C6 1.268 . S
Sc22 O25 2.025 . S
Sc22 O32 2.105 . S
Sc22 O35 2.105 . S
Sc22 O38 2.105 . S
Sc22 O41 2.105 . S
Sc23 O25 2.025 . S
Sc23 O33 2.105 . S
Sc23 O37 2.105 . S
Sc23 O39 2.105 . S
Sc23 O43 2.105 . S
Sc24 O25 2.025 . S
Sc24 O34 2.105 . S
Sc24 O36 2.105 . S
Sc24 O40 2.105 . S
Sc24 O42 2.105 . S
O25 Sc22 2.025 . S
O25 Sc23 2.025 . S
O25 Sc24 2.025 . S
C26 O32 1.268 . S
C26 O42 1.268 . S
C27 O33 1.268 . S
C27 O41 1.268 . S
C28 O34 1.268 . S
C28 O43 1.268 . S
C29 O35 1.268 . S
C29 O39 1.268 . S
C30 O36 1.268 . S
C30 O38 1.268 . S
C31 O37 1.268 . S
C31 O40 1.268 . S
O32 Sc22 2.105 . S
O32 C26 1.268 . S
O33 Sc23 2.105 . S
O33 C27 1.268 . S
O34 Sc24 2.105 . S
O34 C28 1.268 . S
O35 Sc22 2.105 . S
O35 C29 1.268 . S
O36 Sc24 2.105 . S
O36 C30 1.268 . S
O37 Sc23 2.105 . S
O37 C31 1.268 . S
O38 Sc22 2.105 . S
O38 C30 1.268 . S
O39 Sc23 2.105 . S
O39 C29 1.268 . S
O40 Sc24 2.105 . S
O40 C31 1.268 . S
O41 Sc22 2.105 . S
O41 C27 1.268 . S
O42 Sc24 2.105 . S
O42 C26 1.268 . S
O43 Sc23 2.105 . S
O43 C28 1.268 . S
Sc44 O47 2.025 . S
Sc44 O54 2.105 . S
Sc44 O57 2.105 . S
Sc44 O60 2.105 . S
Sc44 O63 2.105 . S
Sc45 O47 2.025 . S
Sc45 O55 2.105 . S
Sc45 O59 2.105 . S
Sc45 O61 2.105 . S
Sc45 O65 2.105 . S
Sc46 O47 2.025 . S
Sc46 O56 2.105 . S
Sc46 O58 2.105 . S
Sc46 O62 2.105 . S
Sc46 O64 2.105 . S
O47 Sc44 2.025 . S
O47 Sc45 2.025 . S
O47 Sc46 2.025 . S
C48 O54 1.268 . S
C48 O64 1.268 . S
C49 O55 1.268 . S
C49 O63 1.268 . S
C50 O56 1.268 . S
C50 O65 1.268 . S
C51 O57 1.268 . S
C51 O61 1.268 . S
C52 O58 1.268 . S
C52 O60 1.268 . S
C53 O59 1.268 . S
C53 O62 1.268 . S
O54 Sc44 2.105 . S
O54 C48 1.268 . S
O55 Sc45 2.105 . S
O55 C49 1.268 . S
O56 Sc46 2.105 . S
O56 C50 1.268 . S
O57 Sc44 2.105 . S
O57 C51 1.268 . S
O58 Sc46 2.105 . S
O58 C52 1.268 . S
O59 Sc45 2.105 . S
O59 C53 1.268 . S
O60 Sc44 2.105 . S
O60 C52 1.268 . S
O61 Sc45 2.105 . S
O61 C51 1.268 . S
O62 Sc46 2.105 . S
O62 C53 1.268 . S
O63 Sc44 2.105 . S
O63 C49 1.268 . S
O64 Sc46 2.105 . S
O64 C48 1.268 . S
O65 Sc45 2.105 . S
O65 C50 1.268 . S
Sc66 O69 2.025 . S
Sc66 O76 2.105 . S
Sc66 O79 2.105 . S
Sc66 O82 2.105 . S
Sc66 O85 2.105 . S
Sc67 O69 2.025 . S
Sc67 O77 2.105 . S
Sc67 O81 2.105 . S
Sc67 O83 2.105 . S
Sc67 O87 2.105 . S
Sc68 O69 2.025 . S
Sc68 O78 2.105 . S
Sc68 O80 2.105 . S
Sc68 O84 2.105 . S
Sc68 O86 2.105 . S
O69 Sc66 2.025 . S
O69 Sc67 2.025 . S
O69 Sc68 2.025 . S
C70 O76 1.268 . S
C70 O86 1.268 . S
C71 O77 1.268 . S
C71 O85 1.268 . S
C72 O78 1.268 . S
C72 O87 1.268 . S
C73 O79 1.268 . S
C73 O83 1.268 . S
C74 O80 1.268 . S
C74 O82 1.268 . S
C75 O81 1.268 . S
C75 O84 1.268 . S
O76 Sc66 2.105 . S
O76 C70 1.268 . S
O77 Sc67 2.105 . S
O77 C71 1.268 . S
O78 Sc68 2.105 . S
O78 C72 1.268 . S
O79 Sc66 2.105 . S
O79 C73 1.268 . S
O80 Sc68 2.105 . S
O80 C74 1.268 . S
O81 Sc67 2.105 . S
O81 C75 1.268 . S
O82 Sc66 2.105 . S
O82 C74 1.268 . S
O83 Sc67 2.105 . S
O83 C73 1.268 . S
O84 Sc68 2.105 . S
O84 C75 1.268 . S
O85 Sc66 2.105 . S
O85 C71 1.268 . S
O86 Sc68 2.105 . S
O86 C70 1.268 . S
O87 Sc67 2.105 . S
O87 C72 1.268 . S
Sc88 O91 2.025 . S
Sc88 O98 2.105 . S
Sc88 O101 2.105 . S
Sc88 O104 2.105 . S
Sc88 O107 2.105 . S
Sc89 O91 2.025 . S
Sc89 O99 2.105 . S
Sc89 O103 2.105 . S
Sc89 O105 2.105 . S
Sc89 O109 2.105 . S
Sc90 O91 2.025 . S
Sc90 O100 2.105 . S
Sc90 O102 2.105 . S
Sc90 O106 2.105 . S
Sc90 O108 2.105 . S
O91 Sc88 2.025 . S
O91 Sc89 2.025 . S
O91 Sc90 2.025 . S
C92 O98 1.268 . S
C92 O108 1.268 . S
C93 O99 1.268 . S
C93 O107 1.268 . S
C94 O100 1.268 . S
C94 O109 1.268 . S
C95 O101 1.268 . S
C95 O105 1.268 . S
C96 O102 1.268 . S
C96 O104 1.268 . S
C97 O103 1.268 . S
C97 O106 1.268 . S
O98 Sc88 2.105 . S
O98 C92 1.268 . S
O99 Sc89 2.105 . S
O99 C93 1.268 . S
O100 Sc90 2.105 . S
O100 C94 1.268 . S
O101 Sc88 2.105 . S
O101 C95 1.268 . S
O102 Sc90 2.105 . S
O102 C96 1.268 . S
O103 Sc89 2.105 . S
O103 C97 1.268 . S
O104 Sc88 2.105 . S
O104 C96 1.268 . S
O105 Sc89 2.105 . S
O105 C95 1.268 . S
O106 Sc90 2.105 . S
O106 C97 1.268 . S
O107 Sc88 2.105 . S
O107 C93 1.268 . S
O108 Sc90 2.105 . S
O108 C92 1.268 . S
O109 Sc89 2.105 . S
O109 C94 1.268 . S
Sc110 O113 2.025 . S
Sc110 O120 2.105 . S
Sc110 O123 2.105 . S
Sc110 O126 2.105 . S
Sc110 O129 2.105 . S
Sc111 O113 2.025 . S
Sc111 O121 2.105 . S
Sc111 O125 2.105 . S
Sc111 O127 2.105 . S
Sc111 O131 2.105 . S
Sc112 O113 2.025 . S
Sc112 O122 2.105 . S
Sc112 O124 2.105 . S
Sc112 O128 2.105 . S
Sc112 O130 2.105 . S
O113 Sc110 2.025 . S
O113 Sc111 2.025 . S
O113 Sc112 2.025 . S
C114 O120 1.268 . S
C114 O130 1.268 . S
C115 O121 1.268 . S
C115 O129 1.268 . S
C116 O122 1.268 . S
C116 O131 1.268 . S
C117 O123 1.268 . S
C117 O127 1.268 . S
C118 O124 1.268 . S
C118 O126 1.268 . S
C119 O125 1.268 . S
C119 O128 1.268 . S
O120 Sc110 2.105 . S
O120 C114 1.268 . S
O121 Sc111 2.105 . S
O121 C115 1.268 . S
O122 Sc112 2.105 . S
O122 C116 1.268 . S
O123 Sc110 2.105 . S
O123 C117 1.268 . S
O124 Sc112 2.105 . S
O124 C118 1.268 . S
O125 Sc111 2.105 . S
O125 C119 1.268 . S
O126 Sc110 2.105 . S
O126 C118 1.268 . S
O127 Sc111 2.105 . S
O127 C117 1.268 . S
O128 Sc112 2.105 . S
O128 C119 1.268 . S
O129 Sc110 2.105 . S
O129 C115 1.268 . S
O130 Sc112 2.105 . S
O130 C114 1.268 . S
O131 Sc111 2.105 . S
O131 C116 1.268 . S
Sc132 O135 2.025 . S
Sc132 O142 2.105 . S
Sc132 O145 2.105 . S
Sc132 O148 2.105 . S
Sc132 O151 2.105 . S
Sc133 O135 2.025 . S
Sc133 O143 2.105 . S
Sc133 O147 2.105 . S
Sc133 O149 2.105 . S
Sc133 O153 2.105 . S
Sc134 O135 2.025 . S
Sc134 O144 2.105 . S
Sc134 O146 2.105 . S
Sc134 O150 2.105 . S
Sc134 O152 2.105 . S
O135 Sc132 2.025 . S
O135 Sc133 2.025 . S
O135 Sc134 2.025 . S
C136 O142 1.268 . S
C136 O152 1.268 . S
C137 O143 1.268 . S
C137 O151 1.268 . S
C138 O144 1.268 . S
C138 O153 1.268 . S
C139 O145 1.268 . S
C139 O149 1.268 . S
C140 O146 1.268 . S
C140 O148 1.268 . S
C141 O147 1.268 . S
C141 O150 1.268 . S
O142 Sc132 2.105 . S
O142 C136 1.268 . S
O143 Sc133 2.105 . S
O143 C137 1.268 . S
O144 Sc134 2.105 . S
O144 C138 1.268 . S
O145 Sc132 2.105 . S
O145 C139 1.268 . S
O146 Sc134 2.105 . S
O146 C140 1.268 . S
O147 Sc133 2.105 . S
O147 C141 1.268 . S
O148 Sc132 2.105 . S
O148 C140 1.268 . S
O149 Sc133 2.105 . S
O149 C139 1.268 . S
O150 Sc134 2.105 . S
O150 C141 1.268 . S
O151 Sc132 2.105 . S
O151 C137 1.268 . S
O152 Sc134 2.105 . S
O152 C136 1.268 . S
O153 Sc133 2.105 . S
O153 C138 1.268 . S
Sc154 O157 2.025 . S
Sc154 O164 2.105 . S
Sc154 O167 2.105 . S
Sc154 O170 2.105 . S
Sc154 O173 2.105 . S
Sc155 O157 2.025 . S
Sc155 O165 2.105 . S
Sc155 O169 2.105 . S
Sc155 O171 2.105 . S
Sc155 O175 2.105 . S
Sc156 O157 2.025 . S
Sc156 O166 2.105 . S
Sc156 O168 2.105 . S
Sc156 O172 2.105 . S
Sc156 O174 2.105 . S
O157 Sc154 2.025 . S
O157 Sc155 2.025 . S
O157 Sc156 2.025 . S
C158 O164 1.268 . S
C158 O174 1.268 . S
C159 O165 1.268 . S
C159 O173 1.268 . S
C160 O166 1.268 . S
C160 O175 1.268 . S
C161 O167 1.268 . S
C161 O171 1.268 . S
C162 O168 1.268 . S
C162 O170 1.268 . S
C163 O169 1.268 . S
C163 O172 1.268 . S
O164 Sc154 2.105 . S
O164 C158 1.268 . S
O165 Sc155 2.105 . S
O165 C159 1.268 . S
O166 Sc156 2.105 . S
O166 C160 1.268 . S
O167 Sc154 2.105 . S
O167 C161 1.268 . S
O168 Sc156 2.105 . S
O168 C162 1.268 . S
O169 Sc155 2.105 . S
O169 C163 1.268 . S
O170 Sc154 2.105 . S
O170 C162 1.268 . S
O171 Sc155 2.105 . S
O171 C161 1.268 . S
O172 Sc156 2.105 . S
O172 C163 1.268 . S
O173 Sc154 2.105 . S
O173 C159 1.268 . S
O174 Sc156 2.105 . S
O174 C158 1.268 . S
O175 Sc155 2.105 . S
O175 C160 1.268 . S
Sc176 O179 2.025 . S
Sc176 O186 2.105 . S
Sc176 O189 2.105 . S
Sc176 O192 2.105 . S
Sc176 O195 2.105 . S
Sc177 O179 2.025 . S
Sc177 O187 2.105 . S
Sc177 O191 2.105 . S
Sc177 O193 2.105 . S
Sc177 O197 2.105 . S
Sc178 O179 2.025 . S
Sc178 O188 2.105 . S
Sc178 O190 2.105 . S
Sc178 O194 2.105 . S
Sc178 O196 2.105 . S
O179 Sc176 2.025 . S
O179 Sc177 2.025 . S
O179 Sc178 2.025 . S
C180 O186 1.268 . S
C180 O196 1.268 . S
C181 O187 1.268 . S
C181 O195 1.268 . S
C182 O188 1.268 . S
C182 O197 1.268 . S
C183 O189 1.268 . S
C183 O193 1.268 . S
C184 O190 1.268 . S
C184 O192 1.268 . S
C185 O191 1.268 . S
C185 O194 1.268 . S
O186 Sc176 2.105 . S
O186 C180 1.268 . S
O187 Sc177 2.105 . S
O187 C181 1.268 . S
O188 Sc178 2.105 . S
O188 C182 1.268 . S
O189 Sc176 2.105 . S
O189 C183 1.268 . S
O190 Sc178 2.105 . S
O190 C184 1.268 . S
O191 Sc177 2.105 . S
O191 C185 1.268 . S
O192 Sc176 2.105 . S
O192 C184 1.268 . S
O193 Sc177 2.105 . S
O193 C183 1.268 . S
O194 Sc178 2.105 . S
O194 C185 1.268 . S
O195 Sc176 2.105 . S
O195 C181 1.268 . S
O196 Sc178 2.105 . S
O196 C180 1.268 . S
O197 Sc177 2.105 . S
O197 C182 1.268 . S
Sc198 O201 2.025 . S
Sc198 O208 2.105 . S
Sc198 O211 2.105 . S
Sc198 O214 2.105 . S
Sc198 O217 2.105 . S
Sc199 O201 2.025 . S
Sc199 O209 2.105 . S
Sc199 O213 2.105 . S
Sc199 O215 2.105 . S
Sc199 O219 2.105 . S
Sc200 O201 2.025 . S
Sc200 O210 2.105 . S
Sc200 O212 2.105 . S
Sc200 O216 2.105 . S
Sc200 O218 2.105 . S
O201 Sc198 2.025 . S
O201 Sc199 2.025 . S
O201 Sc200 2.025 . S
C202 O208 1.268 . S
C202 O218 1.268 . S
C203 O209 1.268 . S
C203 O217 1.268 . S
C204 O210 1.268 . S
C204 O219 1.268 . S
C205 O211 1.268 . S
C205 O215 1.268 . S
C206 O212 1.268 . S
C206 O214 1.268 . S
C207 O213 1.268 . S
C207 O216 1.268 . S
O208 Sc198 2.105 . S
O208 C202 1.268 . S
O209 Sc199 2.105 . S
O209 C203 1.268 . S
O210 Sc200 2.105 . S
O210 C204 1.268 . S
O211 Sc198 2.105 . S
O211 C205 1.268 . S
O212 Sc200 2.105 . S
O212 C206 1.268 . S
O213 Sc199 2.105 . S
O213 C207 1.268 . S
O214 Sc198 2.105 . S
O214 C206 1.268 . S
O215 Sc199 2.105 . S
O215 C205 1.268 . S
O216 Sc200 2.105 . S
O216 C207 1.268 . S
O217 Sc198 2.105 . S
O217 C203 1.268 . S
O218 Sc200 2.105 . S
O218 C202 1.268 . S
O219 Sc199 2.105 . S
O219 C204 1.268 . S
Sc220 O223 2.025 . S
Sc220 O230 2.105 . S
Sc220 O233 2.105 . S
Sc220 O236 2.105 . S
Sc220 O239 2.105 . S
Sc221 O223 2.025 . S
Sc221 O231 2.105 . S
Sc221 O235 2.105 . S
Sc221 O237 2.105 . S
Sc221 O241 2.105 . S
Sc222 O223 2.025 . S
Sc222 O232 2.105 . S
Sc222 O234 2.105 . S
Sc222 O238 2.105 . S
Sc222 O240 2.105 . S
O223 Sc220 2.025 . S
O223 Sc221 2.025 . S
O223 Sc222 2.025 . S
C224 O230 1.268 . S
C224 O240 1.268 . S
C225 O231 1.268 . S
C225 O239 1.268 . S
C226 O232 1.268 . S
C226 O241 1.268 . S
C227 O233 1.268 . S
C227 O237 1.268 . S
C228 O234 1.268 . S
C228 O236 1.268 . S
C229 O235 1.268 . S
C229 O238 1.268 . S
O230 Sc220 2.105 . S
O230 C224 1.268 . S
O231 Sc221 2.105 . S
O231 C225 1.268 . S
O232 Sc222 2.105 . S
O232 C226 1.268 . S
O233 Sc220 2.105 . S
O233 C227 1.268 . S
O234 Sc222 2.105 . S
O234 C228 1.268 . S
O235 Sc221 2.105 . S
O235 C229 1.268 . S
O236 Sc220 2.105 . S
O236 C228 1.268 . S
O237 Sc221 2.105 . S
O237 C227 1.268 . S
O238 Sc222 2.105 . S
O238 C229 1.268 . S
O239 Sc220 2.105 . S
O239 C225 1.268 . S
O240 Sc222 2.105 . S
O240 C224 1.268 . S
O241 Sc221 2.105 . S
O241 C226 1.268 . S
Sc242 O245 2.025 . S
Sc242 O252 2.105 . S
Sc242 O255 2.105 . S
Sc242 O258 2.105 . S
Sc242 O261 2.105 . S
Sc243 O245 2.025 . S
Sc243 O253 2.105 . S
Sc243 O257 2.105 . S
Sc243 O259 2.105 . S
Sc243 O263 2.105 . S
Sc244 O245 2.025 . S
Sc244 O254 2.105 . S
Sc244 O256 2.105 . S
Sc244 O260 2.105 . S
Sc244 O262 2.105 . S
O245 Sc242 2.025 . S
O245 Sc243 2.025 . S
O245 Sc244 2.025 . S
C246 O252 1.268 . S
C246 O262 1.268 . S
C247 O253 1.268 . S
C247 O261 1.268 . S
C248 O254 1.268 . S
C248 O263 1.268 . S
C249 O255 1.268 . S
C249 O259 1.268 . S
C250 O256 1.268 . S
C250 O258 1.268 . S
C251 O257 1.268 . S
C251 O260 1.268 . S
O252 Sc242 2.105 . S
O252 C246 1.268 . S
O253 Sc243 2.105 . S
O253 C247 1.268 . S
O254 Sc244 2.105 . S
O254 C248 1.268 . S
O255 Sc242 2.105 . S
O255 C249 1.268 . S
O256 Sc244 2.105 . S
O256 C250 1.268 . S
O257 Sc243 2.105 . S
O257 C251 1.268 . S
O258 Sc242 2.105 . S
O258 C250 1.268 . S
O259 Sc243 2.105 . S
O259 C249 1.268 . S
O260 Sc244 2.105 . S
O260 C251 1.268 . S
O261 Sc242 2.105 . S
O261 C247 1.268 . S
O262 Sc244 2.105 . S
O262 C246 1.268 . S
O263 Sc243 2.105 . S
O263 C248 1.268 . S
Sc264 O267 2.025 . S
Sc264 O274 2.105 . S
Sc264 O277 2.105 . S
Sc264 O280 2.105 . S
Sc264 O283 2.105 . S
Sc265 O267 2.025 . S
Sc265 O275 2.105 . S
Sc265 O279 2.105 . S
Sc265 O281 2.105 . S
Sc265 O285 2.105 . S
Sc266 O267 2.025 . S
Sc266 O276 2.105 . S
Sc266 O278 2.105 . S
Sc266 O282 2.105 . S
Sc266 O284 2.105 . S
O267 Sc264 2.025 . S
O267 Sc265 2.025 . S
O267 Sc266 2.025 . S
C268 O274 1.268 . S
C268 O284 1.268 . S
C269 O275 1.268 . S
C269 O283 1.268 . S
C270 O276 1.268 . S
C270 O285 1.268 . S
C271 O277 1.268 . S
C271 O281 1.268 . S
C272 O278 1.268 . S
C272 O280 1.268 . S
C273 O279 1.268 . S
C273 O282 1.268 . S
O274 Sc264 2.105 . S
O274 C268 1.268 . S
O275 Sc265 2.105 . S
O275 C269 1.268 . S
O276 Sc266 2.105 . S
O276 C270 1.268 . S
O277 Sc264 2.105 . S
O277 C271 1.268 . S
O278 Sc266 2.105 . S
O278 C272 1.268 . S
O279 Sc265 2.105 . S
O279 C273 1.268 . S
O280 Sc264 2.105 . S
O280 C272 1.268 . S
O281 Sc265 2.105 . S
O281 C271 1.268 . S
O282 Sc266 2.105 . S
O282 C273 1.268 . S
O283 Sc264 2.105 . S
O283 C269 1.268 . S
O284 Sc266 2.105 . S
O284 C268 1.268 . S
O285 Sc265 2.105 . S
O285 C270 1.268 . S
Sc286 O289 2.025 . S
Sc286 O296 2.105 . S
Sc286 O299 2.105 . S
Sc286 O302 2.105 . S
Sc286 O305 2.105 . S
Sc287 O289 2.025 . S
Sc287 O297 2.105 . S
Sc287 O301 2.105 . S
Sc287 O303 2.105 . S
Sc287 O307 2.105 . S
Sc288 O289 2.025 . S
Sc288 O298 2.105 . S
Sc288 O300 2.105 . S
Sc288 O304 2.105 . S
Sc288 O306 2.105 . S
O289 Sc286 2.025 . S
O289 Sc287 2.025 . S
O289 Sc288 2.025 . S
C290 O296 1.268 . S
C290 O306 1.268 . S
C291 O297 1.268 . S
C291 O305 1.268 . S
C292 O298 1.268 . S
C292 O307 1.268 . S
C293 O299 1.268 . S
C293 O303 1.268 . S
C294 O300 1.268 . S
C294 O302 1.268 . S
C295 O301 1.268 . S
C295 O304 1.268 . S
O296 Sc286 2.105 . S
O296 C290 1.268 . S
O297 Sc287 2.105 . S
O297 C291 1.268 . S
O298 Sc288 2.105 . S
O298 C292 1.268 . S
O299 Sc286 2.105 . S
O299 C293 1.268 . S
O300 Sc288 2.105 . S
O300 C294 1.268 . S
O301 Sc287 2.105 . S
O301 C295 1.268 . S
O302 Sc286 2.105 . S
O302 C294 1.268 . S
O303 Sc287 2.105 . S
O303 C293 1.268 . S
O304 Sc288 2.105 . S
O304 C295 1.268 . S
O305 Sc286 2.105 . S
O305 C291 1.268 . S
O306 Sc288 2.105 . S
O306 C290 1.268 . S
O307 Sc287 2.105 . S
O307 C292 1.268 . S
Sc308 O311 2.025 . S
Sc308 O318 2.105 . S
Sc308 O321 2.105 . S
Sc308 O324 2.105 . S
Sc308 O327 2.105 . S
Sc309 O311 2.025 . S
Sc309 O319 2.105 . S
Sc309 O323 2.105 . S
Sc309 O325 2.105 . S
Sc309 O329 2.105 . S
Sc310 O311 2.025 . S
Sc310 O320 2.105 . S
Sc310 O322 2.105 . S
Sc310 O326 2.105 . S
Sc310 O328 2.105 . S
O311 Sc308 2.025 . S
O311 Sc309 2.025 . S
O311 Sc310 2.025 . S
C312 O318 1.268 . S
C312 O328 1.268 . S
C313 O319 1.268 . S
C313 O327 1.268 . S
C314 O320 1.268 . S
C314 O329 1.268 . S
C315 O321 1.268 . S
C315 O325 1.268 . S
C316 O322 1.268 . S
C316 O324 1.268 . S
C317 O323 1.268 . S
C317 O326 1.268 . S
O318 Sc308 2.105 . S
O318 C312 1.268 . S
O319 Sc309 2.105 . S
O319 C313 1.268 . S
O320 Sc310 2.105 . S
O320 C314 1.268 . S
O321 Sc308 2.105 . S
O321 C315 1.268 . S
O322 Sc310 2.105 . S
O322 C316 1.268 . S
O323 Sc309 2.105 . S
O323 C317 1.268 . S
O324 Sc308 2.105 . S
O324 C316 1.268 . S
O325 Sc309 2.105 . S
O325 C315 1.268 . S
O326 Sc310 2.105 . S
O326 C317 1.268 . S
O327 Sc308 2.105 . S
O327 C313 1.268 . S
O328 Sc310 2.105 . S
O328 C312 1.268 . S
O329 Sc309 2.105 . S
O329 C314 1.268 . S
Sc330 O333 2.025 . S
Sc330 O340 2.105 . S
Sc330 O343 2.105 . S
Sc330 O346 2.105 . S
Sc330 O349 2.105 . S
Sc331 O333 2.025 . S
Sc331 O341 2.105 . S
Sc331 O345 2.105 . S
Sc331 O347 2.105 . S
Sc331 O351 2.105 . S
Sc332 O333 2.025 . S
Sc332 O342 2.105 . S
Sc332 O344 2.105 . S
Sc332 O348 2.105 . S
Sc332 O350 2.105 . S
O333 Sc330 2.025 . S
O333 Sc331 2.025 . S
O333 Sc332 2.025 . S
C334 O340 1.268 . S
C334 O350 1.268 . S
C335 O341 1.268 . S
C335 O349 1.268 . S
C336 O342 1.268 . S
C336 O351 1.268 . S
C337 O343 1.268 . S
C337 O347 1.268 . S
C338 O344 1.268 . S
C338 O346 1.268 . S
C339 O345 1.268 . S
C339 O348 1.268 . S
O340 Sc330 2.105 . S
O340 C334 1.268 . S
O341 Sc331 2.105 . S
O341 C335 1.268 . S
O342 Sc332 2.105 . S
O342 C336 1.268 . S
O343 Sc330 2.105 . S
O343 C337 1.268 . S
O344 Sc332 2.105 . S
O344 C338 1.268 . S
O345 Sc331 2.105 . S
O345 C339 1.268 . S
O346 Sc330 2.105 . S
O346 C338 1.268 . S
O347 Sc331 2.105 . S
O347 C337 1.268 . S
O348 Sc332 2.105 . S
O348 C339 1.268 . S
O349 Sc330 2.105 . S
O349 C335 1.268 . S
O350 Sc332 2.105 . S
O350 C334 1.268 . S
O351 Sc331 2.105 . S
O351 C336 1.268 . S
C352 C353 1.363 . S
C352 C358 1.379 1_554 S
C352 N360 1.356 . S
C353 C352 1.363 . S
C353 C359 1.363 . S
C354 C355 1.363 1_554 S
C354 C359 1.379 1_565 S
C354 N361 1.356 . S
C355 C354 1.363 1_556 S
C355 C358 1.363 1_565 S
N356 C358 1.356 . S
N356 H368 0.984 . S
N356 H369 0.985 1_545 S
N357 C359 1.356 . S
N357 H362 0.984 . S
N357 H363 0.985 . S
C358 C352 1.379 1_556 S
C358 C355 1.363 1_545 S
C358 N356 1.356 . S
C359 C353 1.363 . S
C359 C354 1.379 1_545 S
C359 N357 1.356 . S
N360 C352 1.356 . S
N360 H366 0.984 1_554 S
N360 H367 0.984 . S
N361 C354 1.356 . S
N361 H364 0.984 . S
N361 H365 0.985 . S
H362 N357 0.984 . S
H363 N357 0.985 . S
H364 N361 0.984 . S
H365 N361 0.985 . S
H366 N360 0.984 1_556 S
H367 N360 0.984 . S
H368 N356 0.984 . S
H369 N356 0.985 1_565 S
C370 C371 1.363 1_565 S
C370 C376 1.379 1_556 S
C370 N378 1.356 . S
C371 C370 1.363 1_545 S
C371 C377 1.363 1_556 S
C372 C373 1.363 . S
C372 C377 1.379 1_565 S
C372 N379 1.356 . S
C373 C372 1.363 . S
C373 C376 1.363 . S
N374 C376 1.356 . S
N374 H386 0.984 1_554 S
N374 H387 0.985 . S
N375 C377 1.356 . S
N375 H380 0.984 . S
N375 H381 0.985 . S
C376 C370 1.379 1_554 S
C376 C373 1.363 . S
C376 N374 1.356 . S
C377 C371 1.363 1_554 S
C377 C372 1.379 1_545 S
C377 N375 1.356 . S
N378 C370 1.356 . S
N378 H384 0.984 . S
N378 H385 0.984 1_565 S
N379 C372 1.356 . S
N379 H382 0.984 . S
N379 H383 0.985 . S
H380 N375 0.984 . S
H381 N375 0.985 . S
H382 N379 0.984 . S
H383 N379 0.985 . S
H384 N378 0.984 . S
H385 N378 0.984 1_545 S
H386 N374 0.984 1_556 S
H387 N374 0.985 . S
C388 C389 1.363 1_565 S
C388 C394 1.379 . S
C388 N396 1.356 1_565 S
C389 C388 1.363 1_545 S
C389 C395 1.363 1_545 S
C390 C391 1.363 . S
C390 C395 1.379 . S
C390 N397 1.356 . S
C391 C390 1.363 . S
C391 C394 1.363 . S
N392 C394 1.356 . S
N392 H404 0.984 . S
N392 H405 0.985 . S
N393 C395 1.356 1_545 S
N393 H398 0.984 . S
N393 H399 0.985 . S
C394 C388 1.379 . S
C394 C391 1.363 . S
C394 N392 1.356 . S
C395 C389 1.363 1_565 S
C395 C390 1.379 . S
C395 N393 1.356 1_565 S
N396 C388 1.356 1_545 S
N396 H402 0.984 . S
N396 H403 0.984 . S
N397 C390 1.356 . S
N397 H400 0.984 . S
N397 H401 0.985 . S
H398 N393 0.984 . S
H399 N393 0.985 . S
H400 N397 0.984 . S
H401 N397 0.985 . S
H402 N396 0.984 . S
H403 N396 0.984 . S
H404 N392 0.984 . S
H405 N392 0.985 . S
C406 C407 1.363 1_545 S
C406 C412 1.379 . S
C406 N414 1.356 . S
C407 C406 1.363 1_565 S
C407 C413 1.363 . S
C408 C409 1.363 . S
C408 C413 1.379 1_545 S
C408 N415 1.356 . S
C409 C408 1.363 . S
C409 C412 1.363 . S
N410 C412 1.356 . S
N410 H422 0.984 . S
N410 H423 0.985 . S
N411 C413 1.356 . S
N411 H416 0.984 . S
N411 H417 0.985 . S
C412 C406 1.379 . S
C412 C409 1.363 . S
C412 N410 1.356 . S
C413 C407 1.363 . S
C413 C408 1.379 1_565 S
C413 N411 1.356 . S
N414 C406 1.356 . S
N414 H420 0.984 . S
N414 H421 0.984 1_545 S
N415 C408 1.356 . S
N415 H418 0.984 . S
N415 H419 0.985 . S
H416 N411 0.984 . S
H417 N411 0.985 . S
H418 N415 0.984 . S
H419 N415 0.985 . S
H420 N414 0.984 . S
H421 N414 0.984 1_565 S
H422 N410 0.984 . S
H423 N410 0.985 . S
C424 C425 1.363 1_565 S
C424 C430 1.379 1_554 S
C424 N432 1.356 . S
C425 C424 1.363 1_545 S
C425 C431 1.363 1_554 S
C426 C427 1.363 . S
C426 C431 1.379 1_565 S
C426 N433 1.356 . S
C427 C426 1.363 . S
C427 C430 1.363 . S
N428 C430 1.356 . S
N428 H440 0.984 1_556 S
N428 H441 0.985 . S
N429 C431 1.356 . S
N429 H434 0.984 . S
N429 H435 0.985 . S
C430 C424 1.379 1_556 S
C430 C427 1.363 . S
C430 N428 1.356 . S
C431 C425 1.363 1_556 S
C431 C426 1.379 1_545 S
C431 N429 1.356 . S
N432 C424 1.356 . S
N432 H438 0.984 . S
N432 H439 0.984 1_565 S
N433 C426 1.356 . S
N433 H436 0.984 . S
N433 H437 0.985 . S
H434 N429 0.984 . S
H435 N429 0.985 . S
H436 N433 0.984 . S
H437 N433 0.985 . S
H438 N432 0.984 . S
H439 N432 0.984 1_545 S
H440 N428 0.984 1_554 S
H441 N428 0.985 . S
C442 C443 1.363 . S
C442 C448 1.379 1_556 S
C442 N450 1.356 . S
C443 C442 1.363 . S
C443 C449 1.363 . S
C444 C445 1.363 1_556 S
C444 C449 1.379 1_565 S
C444 N451 1.356 . S
C445 C444 1.363 1_554 S
C445 C448 1.363 1_565 S
N446 C448 1.356 . S
N446 H458 0.984 . S
N446 H459 0.985 1_545 S
N447 C449 1.356 . S
N447 H452 0.984 . S
N447 H453 0.985 . S
C448 C442 1.379 1_554 S
C448 C445 1.363 1_545 S
C448 N446 1.356 . S
C449 C443 1.363 . S
C449 C444 1.379 1_545 S
C449 N447 1.356 . S
N450 C442 1.356 . S
N450 H456 0.984 1_556 S
N450 H457 0.984 . S
N451 C444 1.356 . S
N451 H454 0.984 . S
N451 H455 0.985 . S
H452 N447 0.984 . S
H453 N447 0.985 . S
H454 N451 0.984 . S
H455 N451 0.985 . S
H456 N450 0.984 1_554 S
H457 N450 0.984 . S
H458 N446 0.984 . S
H459 N446 0.985 1_565 S
C460 C461 1.363 . S
C460 C466 1.379 1_565 S
C460 N468 1.356 . S
C461 C460 1.363 . S
C461 C467 1.363 1_565 S
C462 C463 1.363 . S
C462 C467 1.379 . S
C462 N469 1.356 . S
C463 C462 1.363 . S
C463 C466 1.363 . S
N464 C466 1.356 . S
N464 H476 0.984 . S
N464 H477 0.985 . S
N465 C467 1.356 . S
N465 H470 0.984 1_545 S
N465 H471 0.985 . S
C466 C460 1.379 1_545 S
C466 C463 1.363 . S
C466 N464 1.356 . S
C467 C461 1.363 1_545 S
C467 C462 1.379 . S
C467 N465 1.356 . S
N468 C460 1.356 . S
N468 H474 0.984 . S
N468 H475 0.984 . S
N469 C462 1.356 . S
N469 H472 0.984 . S
N469 H473 0.985 . S
H470 N465 0.984 1_565 S
H471 N465 0.985 . S
H472 N469 0.984 . S
H473 N469 0.985 . S
H474 N468 0.984 . S
H475 N468 0.984 . S
H476 N464 0.984 . S
H477 N464 0.985 . S
C478 C479 1.363 . S
C478 C484 1.379 1_565 S
C478 N486 1.356 . S
C479 C478 1.363 . S
C479 C485 1.363 . S
C480 C481 1.363 1_565 S
C480 C485 1.379 . S
C480 N487 1.356 . S
C481 C480 1.363 1_545 S
C481 C484 1.363 . S
N482 C484 1.356 . S
N482 H494 0.984 . S
N482 H495 0.985 . S
N483 C485 1.356 . S
N483 H488 0.984 . S
N483 H489 0.985 . S
C484 C478 1.379 1_545 S
C484 C481 1.363 . S
C484 N482 1.356 . S
C485 C479 1.363 . S
C485 C480 1.379 . S
C485 N483 1.356 . S
N486 C478 1.356 . S
N486 H492 0.984 . S
N486 H493 0.984 . S
N487 C480 1.356 . S
N487 H490 0.984 . S
N487 H491 0.985 . S
H488 N483 0.984 . S
H489 N483 0.985 . S
H490 N487 0.984 . S
H491 N487 0.985 . S
H492 N486 0.984 . S
H493 N486 0.984 . S
H494 N482 0.984 . S
H495 N482 0.985 . S
C496 C497 1.363 1_554 S
C496 C502 1.379 . S
C496 N504 1.356 . S
C497 C496 1.363 1_556 S
C497 C503 1.363 . S
C498 C499 1.363 . S
C498 C503 1.379 1_554 S
C498 N505 1.356 . S
C499 C498 1.363 . S
C499 C502 1.363 . S
N500 C502 1.356 . S
N500 H512 0.984 . S
N500 H513 0.985 . S
N501 C503 1.356 . S
N501 H506 0.984 . S
N501 H507 0.985 . S
C502 C496 1.379 . S
C502 C499 1.363 . S
C502 N500 1.356 . S
C503 C497 1.363 . S
C503 C498 1.379 1_556 S
C503 N501 1.356 . S
N504 C496 1.356 . S
N504 H510 0.984 . S
N504 H511 0.984 . S
N505 C498 1.356 . S
N505 H508 0.984 . S
N505 H509 0.985 1_554 S
H506 N501 0.984 . S
H507 N501 0.985 . S
H508 N505 0.984 . S
H509 N505 0.985 1_556 S
H510 N504 0.984 . S
H511 N504 0.984 . S
H512 N500 0.984 . S
H513 N500 0.985 . S
C514 C515 1.363 . S
C514 C520 1.379 . S
C514 N522 1.356 . S
C515 C514 1.363 . S
C515 C521 1.363 . S
C516 C517 1.363 . S
C516 C521 1.379 1_556 S
C516 N523 1.356 . S
C517 C516 1.363 . S
C517 C520 1.363 1_556 S
N518 C520 1.356 . S
N518 H530 0.984 . S
N518 H531 0.985 . S
N519 C521 1.356 . S
N519 H524 0.984 . S
N519 H525 0.985 1_554 S
C520 C514 1.379 . S
C520 C517 1.363 1_554 S
C520 N518 1.356 . S
C521 C515 1.363 . S
C521 C516 1.379 1_554 S
C521 N519 1.356 . S
N522 C514 1.356 . S
N522 H528 0.984 . S
N522 H529 0.984 . S
N523 C516 1.356 . S
N523 H526 0.984 . S
N523 H527 0.985 . S
H524 N519 0.984 . S
H525 N519 0.985 1_556 S
H526 N523 0.984 . S
H527 N523 0.985 . S
H528 N522 0.984 . S
H529 N522 0.984 . S
H530 N518 0.984 . S
H531 N518 0.985 . S
C532 C533 1.363 . S
C532 C538 1.379 . S
C532 N540 1.356 . S
C533 C532 1.363 . S
C533 C539 1.363 . S
C534 C535 1.363 . S
C534 C539 1.379 . S
C534 N541 1.356 . S
C535 C534 1.363 . S
C535 C538 1.363 . S
N536 C538 1.356 . S
N536 H548 0.984 . S
N536 H549 0.985 . S
N537 C539 1.356 . S
N537 H542 0.984 . S
N537 H543 0.985 . S
C538 C532 1.379 . S
C538 C535 1.363 . S
C538 N536 1.356 . S
C539 C533 1.363 . S
C539 C534 1.379 . S
C539 N537 1.356 . S
N540 C532 1.356 . S
N540 H546 0.984 . S
N540 H547 0.984 . S
N541 C534 1.356 . S
N541 H544 0.984 . S
N541 H545 0.985 . S
H542 N537 0.984 . S
H543 N537 0.985 . S
H544 N541 0.984 . S
H545 N541 0.985 . S
H546 N540 0.984 . S
H547 N540 0.984 . S
H548 N536 0.984 . S
H549 N536 0.985 . S
C550 C551 1.363 . S
C550 C556 1.379 . S
C550 N558 1.356 . S
C551 C550 1.363 . S
C551 C557 1.363 . S
C552 C553 1.363 . S
C552 C557 1.379 . S
C552 N559 1.356 . S
C553 C552 1.363 . S
C553 C556 1.363 . S
N554 C556 1.356 . S
N554 H566 0.984 . S
N554 H567 0.985 . S
N555 C557 1.356 . S
N555 H560 0.984 . S
N555 H561 0.985 . S
C556 C550 1.379 . S
C556 C553 1.363 . S
C556 N554 1.356 . S
C557 C551 1.363 . S
C557 C552 1.379 . S
C557 N555 1.356 . S
N558 C550 1.356 . S
N558 H564 0.984 . S
N558 H565 0.984 . S
N559 C552 1.356 . S
N559 H562 0.984 . S
N559 H563 0.985 . S
H560 N555 0.984 . S
H561 N555 0.985 . S
H562 N559 0.984 . S
H563 N559 0.985 . S
H564 N558 0.984 . S
H565 N558 0.984 . S
H566 N554 0.984 . S
H567 N554 0.985 . S
C568 C569 1.363 . S
C568 C574 1.379 1_556 S
C568 N576 1.356 . S
C569 C568 1.363 . S
C569 C575 1.363 . S
C570 C571 1.363 1_556 S
C570 C575 1.379 . S
C570 N577 1.356 . S
C571 C570 1.363 1_554 S
C571 C574 1.363 . S
N572 C574 1.356 . S
N572 H584 0.984 . S
N572 H585 0.985 . S
N573 C575 1.356 . S
N573 H578 0.984 . S
N573 H579 0.985 . S
C574 C568 1.379 1_554 S
C574 C571 1.363 . S
C574 N572 1.356 . S
C575 C569 1.363 . S
C575 C570 1.379 . S
C575 N573 1.356 . S
N576 C568 1.356 . S
N576 H582 0.984 1_556 S
N576 H583 0.984 . S
N577 C570 1.356 . S
N577 H580 0.984 . S
N577 H581 0.985 . S
H578 N573 0.984 . S
H579 N573 0.985 . S
H580 N577 0.984 . S
H581 N577 0.985 . S
H582 N576 0.984 1_554 S
H583 N576 0.984 . S
H584 N572 0.984 . S
H585 N572 0.985 . S
C586 C587 1.363 1_556 S
C586 C592 1.379 . S
C586 N594 1.356 . S
C587 C586 1.363 1_554 S
C587 C593 1.363 . S
C588 C589 1.363 . S
C588 C593 1.379 1_556 S
C588 N595 1.356 . S
C589 C588 1.363 . S
C589 C592 1.363 . S
N590 C592 1.356 . S
N590 H602 0.984 . S
N590 H603 0.985 . S
N591 C593 1.356 . S
N591 H596 0.984 . S
N591 H597 0.985 . S
C592 C586 1.379 . S
C592 C589 1.363 . S
C592 N590 1.356 . S
C593 C587 1.363 . S
C593 C588 1.379 1_554 S
C593 N591 1.356 . S
N594 C586 1.356 . S
N594 H600 0.984 . S
N594 H601 0.984 . S
N595 C588 1.356 . S
N595 H598 0.984 . S
N595 H599 0.985 1_556 S
H596 N591 0.984 . S
H597 N591 0.985 . S
H598 N595 0.984 . S
H599 N595 0.985 1_554 S
H600 N594 0.984 . S
H601 N594 0.984 . S
H602 N590 0.984 . S
H603 N590 0.985 . S
C604 C605 1.363 . S
C604 C610 1.379 . S
C604 N612 1.356 . S
C605 C604 1.363 . S
C605 C611 1.363 . S
C606 C607 1.363 . S
C606 C611 1.379 . S
C606 N613 1.356 . S
C607 C606 1.363 . S
C607 C610 1.363 . S
N608 C610 1.356 . S
N608 H620 0.984 . S
N608 H621 0.985 . S
N609 C611 1.356 . S
N609 H614 0.984 . S
N609 H615 0.985 . S
C610 C604 1.379 . S
C610 C607 1.363 . S
C610 N608 1.356 . S
C611 C605 1.363 . S
C611 C606 1.379 . S
C611 N609 1.356 . S
N612 C604 1.356 . S
N612 H618 0.984 . S
N612 H619 0.984 . S
N613 C606 1.356 . S
N613 H616 0.984 . S
N613 H617 0.985 . S
H614 N609 0.984 . S
H615 N609 0.985 . S
H616 N613 0.984 . S
H617 N613 0.985 . S
H618 N612 0.984 . S
H619 N612 0.984 . S
H620 N608 0.984 . S
H621 N608 0.985 . S
C622 C623 1.363 . S
C622 C628 1.379 . S
C622 N630 1.356 . S
C623 C622 1.363 . S
C623 C629 1.363 . S
C624 C625 1.363 . S
C624 C629 1.379 . S
C624 N631 1.356 . S
C625 C624 1.363 . S
C625 C628 1.363 . S
N626 C628 1.356 . S
N626 H638 0.984 . S
N626 H639 0.985 . S
N627 C629 1.356 . S
N627 H632 0.984 . S
N627 H633 0.985 . S
C628 C622 1.379 . S
C628 C625 1.363 . S
C628 N626 1.356 . S
C629 C623 1.363 . S
C629 C624 1.379 . S
C629 N627 1.356 . S
N630 C622 1.356 . S
N630 H636 0.984 . S
N630 H637 0.984 . S
N631 C624 1.356 . S
N631 H634 0.984 . S
N631 H635 0.985 . S
H632 N627 0.984 . S
H633 N627 0.985 . S
H634 N631 0.984 . S
H635 N631 0.985 . S
H636 N630 0.984 . S
H637 N630 0.984 . S
H638 N626 0.984 . S
H639 N626 0.985 . S
C640 C641 1.363 . S
C640 C646 1.379 . S
C640 N648 1.356 . S
C641 C640 1.363 . S
C641 C647 1.363 . S
C642 C643 1.363 . S
C642 C647 1.379 . S
C642 N649 1.356 . S
C643 C642 1.363 . S
C643 C646 1.363 . S
N644 C646 1.356 . S
N644 H656 0.984 . S
N644 H657 0.985 . S
N645 C647 1.356 . S
N645 H650 0.984 . S
N645 H651 0.985 . S
C646 C640 1.379 . S
C646 C643 1.363 . S
C646 N644 1.356 . S
C647 C641 1.363 . S
C647 C642 1.379 . S
C647 N645 1.356 . S
N648 C640 1.356 . S
N648 H654 0.984 . S
N648 H655 0.984 . S
N649 C642 1.356 . S
N649 H652 0.984 . S
N649 H653 0.985 . S
H650 N645 0.984 . S
H651 N645 0.985 . S
H652 N649 0.984 . S
H653 N649 0.985 . S
H654 N648 0.984 . S
H655 N648 0.984 . S
H656 N644 0.984 . S
H657 N644 0.985 . S
C658 C659 1.363 . S
C658 C664 1.379 . S
C658 N666 1.356 . S
C659 C658 1.363 . S
C659 C665 1.363 . S
C660 C661 1.363 . S
C660 C665 1.379 . S
C660 N667 1.356 . S
C661 C660 1.363 . S
C661 C664 1.363 . S
N662 C664 1.356 . S
N662 H674 0.984 . S
N662 H675 0.985 . S
N663 C665 1.356 . S
N663 H668 0.984 . S
N663 H669 0.985 . S
C664 C658 1.379 . S
C664 C661 1.363 . S
C664 N662 1.356 . S
C665 C659 1.363 . S
C665 C660 1.379 . S
C665 N663 1.356 . S
N666 C658 1.356 . S
N666 H672 0.984 . S
N666 H673 0.984 . S
N667 C660 1.356 . S
N667 H670 0.984 . S
N667 H671 0.985 . S
H668 N663 0.984 . S
H669 N663 0.985 . S
H670 N667 0.984 . S
H671 N667 0.985 . S
H672 N666 0.984 . S
H673 N666 0.984 . S
H674 N662 0.984 . S
H675 N662 0.985 . S
C676 C677 1.363 . S
C676 C682 1.379 . S
C676 N684 1.356 . S
C677 C676 1.363 . S
C677 C683 1.363 . S
C678 C679 1.363 . S
C678 C683 1.379 . S
C678 N685 1.356 . S
C679 C678 1.363 . S
C679 C682 1.363 . S
N680 C682 1.356 . S
N680 H692 0.984 . S
N680 H693 0.985 . S
N681 C683 1.356 . S
N681 H686 0.984 . S
N681 H687 0.985 . S
C682 C676 1.379 . S
C682 C679 1.363 . S
C682 N680 1.356 . S
C683 C677 1.363 . S
C683 C678 1.379 . S
C683 N681 1.356 . S
N684 C676 1.356 . S
N684 H690 0.984 . S
N684 H691 0.984 . S
N685 C678 1.356 . S
N685 H688 0.984 . S
N685 H689 0.985 . S
H686 N681 0.984 . S
H687 N681 0.985 . S
H688 N685 0.984 . S
H689 N685 0.985 . S
H690 N684 0.984 . S
H691 N684 0.984 . S
H692 N680 0.984 . S
H693 N680 0.985 . S
C694 C695 1.363 . S
C694 C700 1.379 . S
C694 N702 1.356 . S
C695 C694 1.363 . S
C695 C701 1.363 . S
C696 C697 1.363 . S
C696 C701 1.379 . S
C696 N703 1.356 . S
C697 C696 1.363 . S
C697 C700 1.363 . S
N698 C700 1.356 . S
N698 H710 0.984 . S
N698 H711 0.985 . S
N699 C701 1.356 . S
N699 H704 0.984 . S
N699 H705 0.985 . S
C700 C694 1.379 . S
C700 C697 1.363 . S
C700 N698 1.356 . S
C701 C695 1.363 . S
C701 C696 1.379 . S
C701 N699 1.356 . S
N702 C694 1.356 . S
N702 H708 0.984 . S
N702 H709 0.984 . S
N703 C696 1.356 . S
N703 H706 0.984 . S
N703 H707 0.985 . S
H704 N699 0.984 . S
H705 N699 0.985 . S
H706 N703 0.984 . S
H707 N703 0.985 . S
H708 N702 0.984 . S
H709 N702 0.984 . S
H710 N698 0.984 . S
H711 N698 0.985 . S
C712 C713 1.363 . S
C712 C718 1.379 . S
C712 N720 1.356 . S
C713 C712 1.363 . S
C713 C719 1.363 . S
C714 C715 1.363 . S
C714 C719 1.379 . S
C714 N721 1.356 . S
C715 C714 1.363 . S
C715 C718 1.363 . S
N716 C718 1.356 . S
N716 H728 0.984 . S
N716 H729 0.985 . S
N717 C719 1.356 . S
N717 H722 0.984 . S
N717 H723 0.985 . S
C718 C712 1.379 . S
C718 C715 1.363 . S
C718 N716 1.356 . S
C719 C713 1.363 . S
C719 C714 1.379 . S
C719 N717 1.356 . S
N720 C712 1.356 . S
N720 H726 0.984 . S
N720 H727 0.984 . S
N721 C714 1.356 . S
N721 H724 0.984 . S
N721 H725 0.985 . S
H722 N717 0.984 . S
H723 N717 0.985 . S
H724 N721 0.984 . S
H725 N721 0.985 . S
H726 N720 0.984 . S
H727 N720 0.984 . S
H728 N716 0.984 . S
H729 N716 0.985 . S
C730 C731 1.363 . S
C730 C736 1.379 . S
C730 N738 1.356 . S
C731 C730 1.363 . S
C731 C737 1.363 . S
C732 C733 1.363 . S
C732 C737 1.379 . S
C732 N739 1.356 . S
C733 C732 1.363 . S
C733 C736 1.363 . S
N734 C736 1.356 . S
N734 H746 0.984 . S
N734 H747 0.985 . S
N735 C737 1.356 . S
N735 H740 0.984 . S
N735 H741 0.985 . S
C736 C730 1.379 . S
C736 C733 1.363 . S
C736 N734 1.356 . S
C737 C731 1.363 . S
C737 C732 1.379 . S
C737 N735 1.356 . S
N738 C730 1.356 . S
N738 H744 0.984 . S
N738 H745 0.984 . S
N739 C732 1.356 . S
N739 H742 0.984 . S
N739 H743 0.985 . S
H740 N735 0.984 . S
H741 N735 0.985 . S
H742 N739 0.984 . S
H743 N739 0.985 . S
H744 N738 0.984 . S
H745 N738 0.984 . S
H746 N734 0.984 . S
H747 N734 0.985 . S
C748 C749 1.363 . S
C748 C754 1.379 . S
C748 N756 1.356 . S
C749 C748 1.363 . S
C749 C755 1.363 . S
C750 C751 1.363 . S
C750 C755 1.379 . S
C750 N757 1.356 . S
C751 C750 1.363 . S
C751 C754 1.363 . S
N752 C754 1.356 . S
N752 H764 0.984 . S
N752 H765 0.985 . S
N753 C755 1.356 . S
N753 H758 0.984 . S
N753 H759 0.985 . S
C754 C748 1.379 . S
C754 C751 1.363 . S
C754 N752 1.356 . S
C755 C749 1.363 . S
C755 C750 1.379 . S
C755 N753 1.356 . S
N756 C748 1.356 . S
N756 H762 0.984 . S
N756 H763 0.984 . S
N757 C750 1.356 . S
N757 H760 0.984 . S
N757 H761 0.985 . S
H758 N753 0.984 . S
H759 N753 0.985 . S
H760 N757 0.984 . S
H761 N757 0.985 . S
H762 N756 0.984 . S
H763 N756 0.984 . S
H764 N752 0.984 . S
H765 N752 0.985 . S
C766 C767 1.363 . S
C766 C772 1.379 . S
C766 N774 1.356 . S
C767 C766 1.363 . S
C767 C773 1.363 . S
C768 C769 1.363 . S
C768 C773 1.379 . S
C768 N775 1.356 . S
C769 C768 1.363 . S
C769 C772 1.363 . S
N770 C772 1.356 . S
N770 H782 0.984 . S
N770 H783 0.985 . S
N771 C773 1.356 . S
N771 H776 0.984 . S
N771 H777 0.985 . S
C772 C766 1.379 . S
C772 C769 1.363 . S
C772 N770 1.356 . S
C773 C767 1.363 . S
C773 C768 1.379 . S
C773 N771 1.356 . S
N774 C766 1.356 . S
N774 H780 0.984 . S
N774 H781 0.984 . S
N775 C768 1.356 . S
N775 H778 0.984 . S
N775 H779 0.985 . S
H776 N771 0.984 . S
H777 N771 0.985 . S
H778 N775 0.984 . S
H779 N775 0.985 . S
H780 N774 0.984 . S
H781 N774 0.984 . S
H782 N770 0.984 . S
H783 N770 0.985 . S
C784 C785 1.363 . S
C784 C790 1.379 . S
C784 N792 1.356 . S
C785 C784 1.363 . S
C785 C791 1.363 . S
C786 C787 1.363 . S
C786 C791 1.379 . S
C786 N793 1.356 . S
C787 C786 1.363 . S
C787 C790 1.363 . S
N788 C790 1.356 . S
N788 H800 0.984 . S
N788 H801 0.985 . S
N789 C791 1.356 . S
N789 H794 0.984 . S
N789 H795 0.985 . S
C790 C784 1.379 . S
C790 C787 1.363 . S
C790 N788 1.356 . S
C791 C785 1.363 . S
C791 C786 1.379 . S
C791 N789 1.356 . S
N792 C784 1.356 . S
N792 H798 0.984 . S
N792 H799 0.984 . S
N793 C786 1.356 . S
N793 H796 0.984 . S
N793 H797 0.985 . S
H794 N789 0.984 . S
H795 N789 0.985 . S
H796 N793 0.984 . S
H797 N793 0.985 . S
H798 N792 0.984 . S
H799 N792 0.984 . S
H800 N788 0.984 . S
H801 N788 0.985 . S
C802 C803 1.363 . S
C802 C808 1.379 . S
C802 N810 1.356 . S
C803 C802 1.363 . S
C803 C809 1.363 . S
C804 C805 1.363 . S
C804 C809 1.379 . S
C804 N811 1.356 . S
C805 C804 1.363 . S
C805 C808 1.363 . S
N806 C808 1.356 . S
N806 H818 0.984 . S
N806 H819 0.985 . S
N807 C809 1.356 . S
N807 H812 0.984 . S
N807 H813 0.985 . S
C808 C802 1.379 . S
C808 C805 1.363 . S
C808 N806 1.356 . S
C809 C803 1.363 . S
C809 C804 1.379 . S
C809 N807 1.356 . S
N810 C802 1.356 . S
N810 H816 0.984 . S
N810 H817 0.984 . S
N811 C804 1.356 . S
N811 H814 0.984 . S
N811 H815 0.985 . S
H812 N807 0.984 . S
H813 N807 0.985 . S
H814 N811 0.984 . S
H815 N811 0.985 . S
H816 N810 0.984 . S
H817 N810 0.984 . S
H818 N806 0.984 . S
H819 N806 0.985 . S
C820 C821 1.363 . S
C820 C826 1.379 . S
C820 N828 1.356 . S
C821 C820 1.363 . S
C821 C827 1.363 . S
C822 C823 1.363 . S
C822 C827 1.379 . S
C822 N829 1.356 . S
C823 C822 1.363 . S
C823 C826 1.363 . S
N824 C826 1.356 . S
N824 H836 0.984 . S
N824 H837 0.985 . S
N825 C827 1.356 . S
N825 H830 0.984 . S
N825 H831 0.985 . S
C826 C820 1.379 . S
C826 C823 1.363 . S
C826 N824 1.356 . S
C827 C821 1.363 . S
C827 C822 1.379 . S
C827 N825 1.356 . S
N828 C820 1.356 . S
N828 H834 0.984 . S
N828 H835 0.984 . S
N829 C822 1.356 . S
N829 H832 0.984 . S
N829 H833 0.985 . S
H830 N825 0.984 . S
H831 N825 0.985 . S
H832 N829 0.984 . S
H833 N829 0.985 . S
H834 N828 0.984 . S
H835 N828 0.984 . S
H836 N824 0.984 . S
H837 N824 0.985 . S
C838 C839 1.363 . S
C838 C844 1.379 . S
C838 N846 1.356 . S
C839 C838 1.363 . S
C839 C845 1.363 . S
C840 C841 1.363 . S
C840 C845 1.379 . S
C840 N847 1.356 . S
C841 C840 1.363 . S
C841 C844 1.363 . S
N842 C844 1.356 . S
N842 H854 0.984 . S
N842 H855 0.985 . S
N843 C845 1.356 . S
N843 H848 0.984 . S
N843 H849 0.985 . S
C844 C838 1.379 . S
C844 C841 1.363 . S
C844 N842 1.356 . S
C845 C839 1.363 . S
C845 C840 1.379 . S
C845 N843 1.356 . S
N846 C838 1.356 . S
N846 H852 0.984 . S
N846 H853 0.984 . S
N847 C840 1.356 . S
N847 H850 0.984 . S
N847 H851 0.985 . S
H848 N843 0.984 . S
H849 N843 0.985 . S
H850 N847 0.984 . S
H851 N847 0.985 . S
H852 N846 0.984 . S
H853 N846 0.984 . S
H854 N842 0.984 . S
H855 N842 0.985 . S
C856 C857 1.363 . S
C856 C862 1.370 1_545 S
C856 N864 1.356 . S
C857 C856 1.363 . S
C857 C863 1.372 . S
C858 C859 1.363 . S
C858 C863 1.370 1_565 S
C858 N865 1.356 . S
C859 C858 1.363 . S
C859 C862 1.372 . S
N860 C862 1.359 . S
N860 H872 0.984 1_565 S
N860 H873 0.985 . S
N861 C863 1.359 . S
N861 H866 0.984 . S
N861 H867 0.985 1_545 S
C862 C856 1.370 1_565 S
C862 C859 1.372 . S
C862 N860 1.359 . S
C863 C857 1.372 . S
C863 C858 1.370 1_545 S
C863 N861 1.359 . S
N864 C856 1.356 . S
N864 H870 0.984 . S
N864 H871 0.984 . S
N865 C858 1.356 . S
N865 H868 0.984 . S
N865 H869 0.985 . S
H866 N861 0.984 . S
H867 N861 0.985 1_565 S
H868 N865 0.984 . S
H869 N865 0.985 . S
H870 N864 0.984 . S
H871 N864 0.984 . S
H872 N860 0.984 1_545 S
H873 N860 0.985 . S
C874 C875 1.363 . S
C874 C880 1.370 1_545 S
C874 N882 1.356 . S
C875 C874 1.363 . S
C875 C881 1.372 . S
C876 C877 1.363 . S
C876 C881 1.370 1_565 S
C876 N883 1.356 . S
C877 C876 1.363 . S
C877 C880 1.372 . S
N878 C880 1.359 . S
N878 H890 0.984 1_565 S
N878 H891 0.985 . S
N879 C881 1.359 . S
N879 H884 0.984 . S
N879 H885 0.985 1_545 S
C880 C874 1.370 1_565 S
C880 C877 1.372 . S
C880 N878 1.359 . S
C881 C875 1.372 . S
C881 C876 1.370 1_545 S
C881 N879 1.359 . S
N882 C874 1.356 . S
N882 H888 0.984 . S
N882 H889 0.984 . S
N883 C876 1.356 . S
N883 H886 0.984 . S
N883 H887 0.985 . S
H884 N879 0.984 . S
H885 N879 0.985 1_565 S
H886 N883 0.984 . S
H887 N883 0.985 . S
H888 N882 0.984 . S
H889 N882 0.984 . S
H890 N878 0.984 1_545 S
H891 N878 0.985 . S
C892 C893 1.372 . S
C892 C898 1.370 1_565 S
C892 N900 1.359 . S
C893 C892 1.372 . S
C893 C899 1.363 . S
C894 C895 1.372 . S
C894 C899 1.370 1_545 S
C894 N901 1.359 . S
C895 C894 1.372 . S
C895 C898 1.363 . S
N896 C898 1.356 . S
N896 H908 0.984 . S
N896 H909 0.985 . S
N897 C899 1.356 . S
N897 H902 0.984 . S
N897 H903 0.985 . S
C898 C892 1.370 1_545 S
C898 C895 1.363 . S
C898 N896 1.356 . S
C899 C893 1.363 . S
C899 C894 1.370 1_565 S
C899 N897 1.356 . S
N900 C892 1.359 . S
N900 H906 0.984 1_565 S
N900 H907 0.984 . S
N901 C894 1.359 . S
N901 H904 0.984 . S
N901 H905 0.985 1_545 S
H902 N897 0.984 . S
H903 N897 0.985 . S
H904 N901 0.984 . S
H905 N901 0.985 1_565 S
H906 N900 0.984 1_545 S
H907 N900 0.984 . S
H908 N896 0.984 . S
H909 N896 0.985 . S
C910 C911 1.372 . S
C910 C916 1.370 1_565 S
C910 N918 1.359 . S
C911 C910 1.372 . S
C911 C917 1.363 . S
C912 C913 1.372 . S
C912 C917 1.370 1_545 S
C912 N919 1.359 . S
C913 C912 1.372 . S
C913 C916 1.363 . S
N914 C916 1.356 . S
N914 H926 0.984 . S
N914 H927 0.985 . S
N915 C917 1.356 . S
N915 H920 0.984 . S
N915 H921 0.985 . S
C916 C910 1.370 1_545 S
C916 C913 1.363 . S
C916 N914 1.356 . S
C917 C911 1.363 . S
C917 C912 1.370 1_565 S
C917 N915 1.356 . S
N918 C910 1.359 . S
N918 H924 0.984 1_565 S
N918 H925 0.984 . S
N919 C912 1.359 . S
N919 H922 0.984 . S
N919 H923 0.985 1_545 S
H920 N915 0.984 . S
H921 N915 0.985 . S
H922 N919 0.984 . S
H923 N919 0.985 1_565 S
H924 N918 0.984 1_545 S
H925 N918 0.984 . S
H926 N914 0.984 . S
H927 N914 0.985 . S
C928 C929 1.360 1_556 S
C928 C934 1.379 . S
C928 N936 1.356 . S
C929 C928 1.360 1_554 S
C929 C935 1.366 . S
C930 C931 1.360 1_554 S
C930 C935 1.379 . S
C930 N937 1.356 . S
C931 C930 1.360 1_556 S
C931 C934 1.366 . S
N932 C934 1.356 . S
N932 H944 0.984 . S
N932 H945 0.985 . S
N933 C935 1.356 . S
N933 H938 0.984 . S
N933 H939 0.985 . S
C934 C928 1.379 . S
C934 C931 1.366 . S
C934 N932 1.356 . S
C935 C929 1.366 . S
C935 C930 1.379 . S
C935 N933 1.356 . S
N936 C928 1.356 . S
N936 H942 0.984 . S
N936 H943 0.984 . S
N937 C930 1.356 . S
N937 H940 0.984 . S
N937 H941 0.985 . S
H938 N933 0.984 . S
H939 N933 0.985 . S
H940 N937 0.984 . S
H941 N937 0.985 . S
H942 N936 0.984 . S
H943 N936 0.984 . S
H944 N932 0.984 . S
H945 N932 0.985 . S
C946 C947 1.360 1_554 S
C946 C952 1.379 . S
C946 N954 1.356 . S
C947 C946 1.360 1_556 S
C947 C953 1.366 . S
C948 C949 1.360 1_556 S
C948 C953 1.379 . S
C948 N955 1.356 . S
C949 C948 1.360 1_554 S
C949 C952 1.366 . S
N950 C952 1.356 . S
N950 H962 0.984 . S
N950 H963 0.985 . S
N951 C953 1.356 . S
N951 H956 0.984 . S
N951 H957 0.985 . S
C952 C946 1.379 . S
C952 C949 1.366 . S
C952 N950 1.356 . S
C953 C947 1.366 . S
C953 C948 1.379 . S
C953 N951 1.356 . S
N954 C946 1.356 . S
N954 H960 0.984 . S
N954 H961 0.984 . S
N955 C948 1.356 . S
N955 H958 0.984 . S
N955 H959 0.985 . S
H956 N951 0.984 . S
H957 N951 0.985 . S
H958 N955 0.984 . S
H959 N955 0.985 . S
H960 N954 0.984 . S
H961 N954 0.984 . S
H962 N950 0.984 . S
H963 N950 0.985 . S
C964 C965 1.363 . S
C964 C970 1.379 . S
C964 N972 1.356 . S
C965 C964 1.363 . S
C965 C971 1.363 . S
C966 C967 1.363 . S
C966 C971 1.379 . S
C966 N973 1.356 . S
C967 C966 1.363 . S
C967 C970 1.363 . S
N968 C970 1.356 . S
N968 H980 0.984 . S
N968 H981 0.985 . S
N969 C971 1.356 . S
N969 H974 0.984 . S
N969 H975 0.985 . S
C970 C964 1.379 . S
C970 C967 1.363 . S
C970 N968 1.356 . S
C971 C965 1.363 . S
C971 C966 1.379 . S
C971 N969 1.356 . S
N972 C964 1.356 . S
N972 H978 0.984 . S
N972 H979 0.984 . S
N973 C966 1.356 . S
N973 H976 0.984 . S
N973 H977 0.985 . S
H974 N969 0.984 . S
H975 N969 0.985 . S
H976 N973 0.984 . S
H977 N973 0.985 . S
H978 N972 0.984 . S
H979 N972 0.984 . S
H980 N968 0.984 . S
H981 N968 0.985 . S
C982 C983 1.363 . S
C982 C988 1.379 . S
C982 N990 1.356 . S
C983 C982 1.363 . S
C983 C989 1.363 . S
C984 C985 1.363 . S
C984 C989 1.379 . S
C984 N991 1.356 . S
C985 C984 1.363 . S
C985 C988 1.363 . S
N986 C988 1.356 . S
N986 H998 0.984 . S
N986 H999 0.985 . S
N987 C989 1.356 . S
N987 H992 0.984 . S
N987 H993 0.985 . S
C988 C982 1.379 . S
C988 C985 1.363 . S
C988 N986 1.356 . S
C989 C983 1.363 . S
C989 C984 1.379 . S
C989 N987 1.356 . S
N990 C982 1.356 . S
N990 H996 0.984 . S
N990 H997 0.984 . S
N991 C984 1.356 . S
N991 H994 0.984 . S
N991 H995 0.985 . S
H992 N987 0.984 . S
H993 N987 0.985 . S
H994 N991 0.984 . S
H995 N991 0.985 . S
H996 N990 0.984 . S
H997 N990 0.984 . S
H998 N986 0.984 . S
H999 N986 0.985 . S
C1000 C1001 1.366 . S
C1000 C1006 1.379 . S
C1000 N1008 1.356 . S
C1001 C1000 1.366 . S
C1001 C1007 1.360 1_554 S
C1002 C1003 1.366 . S
C1002 C1007 1.379 . S
C1002 N1009 1.356 . S
C1003 C1002 1.366 . S
C1003 C1006 1.360 1_556 S
N1004 C1006 1.356 . S
N1004 H1016 0.984 . S
N1004 H1017 0.985 . S
N1005 C1007 1.356 . S
N1005 H1010 0.984 . S
N1005 H1011 0.985 . S
C1006 C1000 1.379 . S
C1006 C1003 1.360 1_554 S
C1006 N1004 1.356 . S
C1007 C1001 1.360 1_556 S
C1007 C1002 1.379 . S
C1007 N1005 1.356 . S
N1008 C1000 1.356 . S
N1008 H1014 0.984 . S
N1008 H1015 0.984 . S
N1009 C1002 1.356 . S
N1009 H1012 0.984 . S
N1009 H1013 0.985 . S
H1010 N1005 0.984 . S
H1011 N1005 0.985 . S
H1012 N1009 0.984 . S
H1013 N1009 0.985 . S
H1014 N1008 0.984 . S
H1015 N1008 0.984 . S
H1016 N1004 0.984 . S
H1017 N1004 0.985 . S
C1018 C1019 1.360 1_556 S
C1018 C1024 1.379 . S
C1018 N1026 1.356 . S
C1019 C1018 1.360 1_554 S
C1019 C1025 1.366 . S
C1020 C1021 1.360 1_554 S
C1020 C1025 1.379 . S
C1020 N1027 1.356 . S
C1021 C1020 1.360 1_556 S
C1021 C1024 1.366 . S
N1022 C1024 1.356 . S
N1022 H1034 0.984 . S
N1022 H1035 0.985 . S
N1023 C1025 1.356 . S
N1023 H1028 0.984 . S
N1023 H1029 0.985 . S
C1024 C1018 1.379 . S
C1024 C1021 1.366 . S
C1024 N1022 1.356 . S
C1025 C1019 1.366 . S
C1025 C1020 1.379 . S
C1025 N1023 1.356 . S
N1026 C1018 1.356 . S
N1026 H1032 0.984 . S
N1026 H1033 0.984 . S
N1027 C1020 1.356 . S
N1027 H1030 0.984 . S
N1027 H1031 0.985 . S
H1028 N1023 0.984 . S
H1029 N1023 0.985 . S
H1030 N1027 0.984 . S
H1031 N1027 0.985 . S
H1032 N1026 0.984 . S
H1033 N1026 0.984 . S
H1034 N1022 0.984 . S
H1035 N1022 0.985 . S
C1036 C1037 1.363 . S
C1036 C1042 1.379 . S
C1036 N1044 1.356 . S
C1037 C1036 1.363 . S
C1037 C1043 1.363 . S
C1038 C1039 1.363 . S
C1038 C1043 1.379 . S
C1038 N1045 1.356 . S
C1039 C1038 1.363 . S
C1039 C1042 1.363 . S
N1040 C1042 1.356 . S
N1040 H1052 0.984 . S
N1040 H1053 0.985 . S
N1041 C1043 1.356 . S
N1041 H1046 0.984 . S
N1041 H1047 0.985 . S
C1042 C1036 1.379 . S
C1042 C1039 1.363 . S
C1042 N1040 1.356 . S
C1043 C1037 1.363 . S
C1043 C1038 1.379 . S
C1043 N1041 1.356 . S
N1044 C1036 1.356 . S
N1044 H1050 0.984 . S
N1044 H1051 0.984 . S
N1045 C1038 1.356 . S
N1045 H1048 0.984 . S
N1045 H1049 0.985 . S
H1046 N1041 0.984 . S
H1047 N1041 0.985 . S
H1048 N1045 0.984 . S
H1049 N1045 0.985 . S
H1050 N1044 0.984 . S
H1051 N1044 0.984 . S
H1052 N1040 0.984 . S
H1053 N1040 0.985 . S
C1054 C1055 1.363 . S
C1054 C1060 1.379 . S
C1054 N1062 1.356 . S
C1055 C1054 1.363 . S
C1055 C1061 1.363 . S
C1056 C1057 1.363 . S
C1056 C1061 1.379 . S
C1056 N1063 1.356 . S
C1057 C1056 1.363 . S
C1057 C1060 1.363 . S
N1058 C1060 1.356 . S
N1058 H1070 0.984 . S
N1058 H1071 0.985 . S
N1059 C1061 1.356 . S
N1059 H1064 0.984 . S
N1059 H1065 0.985 . S
C1060 C1054 1.379 . S
C1060 C1057 1.363 . S
C1060 N1058 1.356 . S
C1061 C1055 1.363 . S
C1061 C1056 1.379 . S
C1061 N1059 1.356 . S
N1062 C1054 1.356 . S
N1062 H1068 0.984 . S
N1062 H1069 0.984 . S
N1063 C1056 1.356 . S
N1063 H1066 0.984 . S
N1063 H1067 0.985 . S
H1064 N1059 0.984 . S
H1065 N1059 0.985 . S
H1066 N1063 0.984 . S
H1067 N1063 0.985 . S
H1068 N1062 0.984 . S
H1069 N1062 0.984 . S
H1070 N1058 0.984 . S
H1071 N1058 0.985 . S
C1072 C1073 1.363 . S
C1072 C1078 1.379 1_455 S
C1072 N1080 1.356 . S
C1073 C1072 1.363 . S
C1073 C1079 1.363 . S
C1074 C1075 1.363 . S
C1074 C1079 1.379 1_655 S
C1074 N1081 1.356 . S
C1075 C1074 1.363 . S
C1075 C1078 1.363 . S
N1076 C1078 1.356 . S
N1076 H1088 0.984 . S
N1076 H1089 0.985 . S
N1077 C1079 1.356 . S
N1077 H1082 0.984 . S
N1077 H1083 0.985 . S
C1078 C1072 1.379 1_655 S
C1078 C1075 1.363 . S
C1078 N1076 1.356 . S
C1079 C1073 1.363 . S
C1079 C1074 1.379 1_455 S
C1079 N1077 1.356 . S
N1080 C1072 1.356 . S
N1080 H1086 0.984 . S
N1080 H1087 0.984 . S
N1081 C1074 1.356 . S
N1081 H1084 0.984 . S
N1081 H1085 0.985 . S
H1082 N1077 0.984 . S
H1083 N1077 0.985 . S
H1084 N1081 0.984 . S
H1085 N1081 0.985 . S
H1086 N1080 0.984 . S
H1087 N1080 0.984 . S
H1088 N1076 0.984 . S
H1089 N1076 0.985 . S
C1090 C1091 1.363 . S
C1090 C1096 1.379 . S
C1090 N1098 1.356 . S
C1091 C1090 1.363 . S
C1091 C1097 1.363 . S
C1092 C1093 1.363 . S
C1092 C1097 1.379 . S
C1092 N1099 1.356 . S
C1093 C1092 1.363 . S
C1093 C1096 1.363 . S
N1094 C1096 1.356 . S
N1094 H1106 0.984 . S
N1094 H1107 0.985 . S
N1095 C1097 1.356 . S
N1095 H1100 0.984 . S
N1095 H1101 0.985 . S
C1096 C1090 1.379 . S
C1096 C1093 1.363 . S
C1096 N1094 1.356 . S
C1097 C1091 1.363 . S
C1097 C1092 1.379 . S
C1097 N1095 1.356 . S
N1098 C1090 1.356 . S
N1098 H1104 0.984 . S
N1098 H1105 0.984 . S
N1099 C1092 1.356 . S
N1099 H1102 0.984 . S
N1099 H1103 0.985 . S
H1100 N1095 0.984 . S
H1101 N1095 0.985 . S
H1102 N1099 0.984 . S
H1103 N1099 0.985 . S
H1104 N1098 0.984 . S
H1105 N1098 0.984 . S
H1106 N1094 0.984 . S
H1107 N1094 0.985 . S
C1108 C1109 1.363 . S
C1108 C1114 1.379 . S
C1108 N1116 1.356 . S
C1109 C1108 1.363 . S
C1109 C1115 1.363 . S
C1110 C1111 1.363 . S
C1110 C1115 1.379 . S
C1110 N1117 1.356 . S
C1111 C1110 1.363 . S
C1111 C1114 1.363 . S
N1112 C1114 1.356 . S
N1112 H1124 0.984 . S
N1112 H1125 0.985 . S
N1113 C1115 1.356 . S
N1113 H1118 0.984 . S
N1113 H1119 0.985 . S
C1114 C1108 1.379 . S
C1114 C1111 1.363 . S
C1114 N1112 1.356 . S
C1115 C1109 1.363 . S
C1115 C1110 1.379 . S
C1115 N1113 1.356 . S
N1116 C1108 1.356 . S
N1116 H1122 0.984 . S
N1116 H1123 0.984 . S
N1117 C1110 1.356 . S
N1117 H1120 0.984 . S
N1117 H1121 0.985 . S
H1118 N1113 0.984 . S
H1119 N1113 0.985 . S
H1120 N1117 0.984 . S
H1121 N1117 0.985 . S
H1122 N1116 0.984 . S
H1123 N1116 0.984 . S
H1124 N1112 0.984 . S
H1125 N1112 0.985 . S
C1126 C1127 1.363 . S
C1126 C1132 1.379 1_455 S
C1126 N1134 1.356 . S
C1127 C1126 1.363 . S
C1127 C1133 1.363 . S
C1128 C1129 1.363 . S
C1128 C1133 1.379 1_655 S
C1128 N1135 1.356 . S
C1129 C1128 1.363 . S
C1129 C1132 1.363 . S
N1130 C1132 1.356 . S
N1130 H1142 0.984 . S
N1130 H1143 0.985 . S
N1131 C1133 1.356 . S
N1131 H1136 0.984 . S
N1131 H1137 0.985 . S
C1132 C1126 1.379 1_655 S
C1132 C1129 1.363 . S
C1132 N1130 1.356 . S
C1133 C1127 1.363 . S
C1133 C1128 1.379 1_455 S
C1133 N1131 1.356 . S
N1134 C1126 1.356 . S
N1134 H1140 0.984 . S
N1134 H1141 0.984 . S
N1135 C1128 1.356 . S
N1135 H1138 0.984 . S
N1135 H1139 0.985 . S
H1136 N1131 0.984 . S
H1137 N1131 0.985 . S
H1138 N1135 0.984 . S
H1139 N1135 0.985 . S
H1140 N1134 0.984 . S
H1141 N1134 0.984 . S
H1142 N1130 0.984 . S
H1143 N1130 0.985 . S
C1144 C1145 1.363 . S
C1144 C1150 1.379 1_655 S
C1144 N1152 1.356 . S
C1145 C1144 1.363 . S
C1145 C1151 1.363 . S
C1146 C1147 1.363 . S
C1146 C1151 1.379 1_455 S
C1146 N1153 1.356 . S
C1147 C1146 1.363 . S
C1147 C1150 1.363 . S
N1148 C1150 1.356 . S
N1148 H1160 0.984 . S
N1148 H1161 0.985 . S
N1149 C1151 1.356 . S
N1149 H1154 0.984 . S
N1149 H1155 0.985 . S
C1150 C1144 1.379 1_455 S
C1150 C1147 1.363 . S
C1150 N1148 1.356 . S
C1151 C1145 1.363 . S
C1151 C1146 1.379 1_655 S
C1151 N1149 1.356 . S
N1152 C1144 1.356 . S
N1152 H1158 0.984 . S
N1152 H1159 0.984 . S
N1153 C1146 1.356 . S
N1153 H1156 0.984 . S
N1153 H1157 0.985 . S
H1154 N1149 0.984 . S
H1155 N1149 0.985 . S
H1156 N1153 0.984 . S
H1157 N1153 0.985 . S
H1158 N1152 0.984 . S
H1159 N1152 0.984 . S
H1160 N1148 0.984 . S
H1161 N1148 0.985 . S
C1162 C1163 1.363 . S
C1162 C1168 1.379 . S
C1162 N1170 1.356 . S
C1163 C1162 1.363 . S
C1163 C1169 1.363 . S
C1164 C1165 1.363 . S
C1164 C1169 1.379 . S
C1164 N1171 1.356 . S
C1165 C1164 1.363 . S
C1165 C1168 1.363 . S
N1166 C1168 1.356 . S
N1166 H1178 0.984 . S
N1166 H1179 0.985 . S
N1167 C1169 1.356 . S
N1167 H1172 0.984 . S
N1167 H1173 0.985 . S
C1168 C1162 1.379 . S
C1168 C1165 1.363 . S
C1168 N1166 1.356 . S
C1169 C1163 1.363 . S
C1169 C1164 1.379 . S
C1169 N1167 1.356 . S
N1170 C1162 1.356 . S
N1170 H1176 0.984 . S
N1170 H1177 0.984 . S
N1171 C1164 1.356 . S
N1171 H1174 0.984 . S
N1171 H1175 0.985 . S
H1172 N1167 0.984 . S
H1173 N1167 0.985 . S
H1174 N1171 0.984 . S
H1175 N1171 0.985 . S
H1176 N1170 0.984 . S
H1177 N1170 0.984 . S
H1178 N1166 0.984 . S
H1179 N1166 0.985 . S
C1180 C1181 1.363 . S
C1180 C1186 1.379 . S
C1180 N1188 1.356 . S
C1181 C1180 1.363 . S
C1181 C1187 1.363 . S
C1182 C1183 1.363 . S
C1182 C1187 1.379 . S
C1182 N1189 1.356 . S
C1183 C1182 1.363 . S
C1183 C1186 1.363 . S
N1184 C1186 1.356 . S
N1184 H1196 0.984 . S
N1184 H1197 0.985 . S
N1185 C1187 1.356 . S
N1185 H1190 0.984 . S
N1185 H1191 0.985 . S
C1186 C1180 1.379 . S
C1186 C1183 1.363 . S
C1186 N1184 1.356 . S
C1187 C1181 1.363 . S
C1187 C1182 1.379 . S
C1187 N1185 1.356 . S
N1188 C1180 1.356 . S
N1188 H1194 0.984 . S
N1188 H1195 0.984 . S
N1189 C1182 1.356 . S
N1189 H1192 0.984 . S
N1189 H1193 0.985 . S
H1190 N1185 0.984 . S
H1191 N1185 0.985 . S
H1192 N1189 0.984 . S
H1193 N1189 0.985 . S
H1194 N1188 0.984 . S
H1195 N1188 0.984 . S
H1196 N1184 0.984 . S
H1197 N1184 0.985 . S
C1198 C1199 1.363 . S
C1198 C1204 1.379 1_455 S
C1198 N1206 1.356 . S
C1199 C1198 1.363 . S
C1199 C1205 1.363 . S
C1200 C1201 1.363 . S
C1200 C1205 1.379 1_655 S
C1200 N1207 1.356 . S
C1201 C1200 1.363 . S
C1201 C1204 1.363 . S
N1202 C1204 1.356 . S
N1202 H1214 0.984 . S
N1202 H1215 0.985 . S
N1203 C1205 1.356 . S
N1203 H1208 0.984 . S
N1203 H1209 0.985 . S
C1204 C1198 1.379 1_655 S
C1204 C1201 1.363 . S
C1204 N1202 1.356 . S
C1205 C1199 1.363 . S
C1205 C1200 1.379 1_455 S
C1205 N1203 1.356 . S
N1206 C1198 1.356 . S
N1206 H1212 0.984 . S
N1206 H1213 0.984 . S
N1207 C1200 1.356 . S
N1207 H1210 0.984 . S
N1207 H1211 0.985 . S
H1208 N1203 0.984 . S
H1209 N1203 0.985 . S
H1210 N1207 0.984 . S
H1211 N1207 0.985 . S
H1212 N1206 0.984 . S
H1213 N1206 0.984 . S
H1214 N1202 0.984 . S
H1215 N1202 0.985 . S
C353 C6 1.478 . S
C355 C290 1.610 . S
C371 C268 1.610 . S
C373 C29 1.478 . S
C389 C334 1.610 . S
C391 C50 1.478 . S
C407 C316 1.610 . S
C409 C72 1.478 . S
C425 C202 1.610 . S
C427 C97 1.478 . S
C443 C119 1.478 . S
C445 C184 1.610 . S
C461 C250 1.610 . S
C463 C137 1.478 . S
C479 C163 1.478 . S
C481 C228 1.610 . S
C497 C114 1.610 . S
C499 C182 1.478 . S
C515 C205 1.478 . S
C517 C92 1.610 . S
C533 C158 1.610 . S
C535 C226 1.478 . S
C551 C140 1.610 . S
C553 C248 1.478 . S
C569 C273 1.478 . S
C571 C26 1.610 . S
C587 C8 1.610 . S
C589 C295 1.478 . S
C605 C313 1.478 . S
C607 C74 1.610 . S
C623 C52 1.610 . S
C625 C339 1.478 . S
C641 C225 1.488 . S
C643 C5 1.488 . S
C659 C31 1.488 . S
C661 C247 1.488 . S
C677 C181 1.488 . S
C679 C49 1.488 . S
C695 C207 1.488 . S
C697 C71 1.488 . S
C713 C314 1.488 . S
C715 C95 1.488 . S
C731 C117 1.488 . S
C733 C337 1.488 . S
C749 C138 1.488 . S
C751 C271 1.488 . S
C767 C293 1.488 . S
C769 C161 1.488 . S
C785 C7 1.705 . S
C787 C28 1.705 . S
C803 C51 1.705 . S
C805 C73 1.705 . S
C821 C93 1.705 . S
C823 C115 1.705 . S
C839 C159 1.705 . S
C841 C141 1.705 . S
C857 C204 1.705 . S
C859 C183 1.705 . S
C875 C227 1.705 . S
C877 C249 1.705 . S
C893 C291 1.705 . S
C895 C269 1.705 . S
C911 C317 1.705 . S
C913 C335 1.705 . S
C929 C270 1.024 1_554 S
C931 C9 1.024 1_556 S
C947 C27 1.024 1_556 S
C949 C292 1.024 1_554 S
C965 C53 1.026 . S
C967 C315 1.026 . S
C983 C75 1.026 . S
C985 C336 1.026 . S
C1001 C94 1.024 1_554 S
C1003 C185 1.024 1_556 S
C1019 C116 1.024 1_554 S
C1021 C203 1.024 1_556 S
C1037 C139 1.026 . S
C1039 C229 1.026 . S
C1055 C251 1.026 . S
C1057 C160 1.026 . S
C1073 C4 1.536 . S
C1075 C206 1.536 . S
C1091 C30 1.536 . S
C1093 C180 1.536 . S
C1109 C246 1.536 . S
C1111 C48 1.536 . S
C1127 C224 1.536 . S
C1129 C70 1.536 . S
C1145 C96 1.536 . S
C1147 C294 1.536 . S
C1163 C118 1.536 . S
C1165 C272 1.536 . S
C1181 C338 1.536 . S
C1183 C136 1.536 . S
C1199 C162 1.536 . S
C1201 C312 1.536 . S
