# Generated by pormake.
# Topology vbm, (6)-cn, num edge types: 1
# Building blocks:
#     Node 0, Type 0, BuildingBlock: LEVNOQ01_clean_sbu_1, # of connection points: 6
#     Node 1, Type 0, BuildingBlock: LEVNOQ01_clean_sbu_1, # of connection points: 6
#     Node 2, Type 0, BuildingBlock: LEVNOQ01_clean_sbu_1, # of connection points: 6
#     Node 3, Type 0, BuildingBlock: LEVNOQ01_clean_sbu_1, # of connection points: 6
#     Node 4, Type 0, BuildingBlock: LEVNOQ01_clean_sbu_1, # of connection points: 6
#     Node 5, Type 0, BuildingBlock: LEVNOQ01_clean_sbu_1, # of connection points: 6
#     Node 6, Type 0, BuildingBlock: LEVNOQ01_clean_sbu_1, # of connection points: 6
#     Node 7, Type 0, BuildingBlock: LEVNOQ01_clean_sbu_1, # of connection points: 6
#     Node 8, Type 0, BuildingBlock: LEVNOQ01_clean_sbu_1, # of connection points: 6
#     Node 9, Type 0, BuildingBlock: LEVNOQ01_clean_sbu_1, # of connection points: 6
#     Node 10, Type 0, BuildingBlock: LEVNOQ01_clean_sbu_1, # of connection points: 6
#     Node 11, Type 0, BuildingBlock: LEVNOQ01_clean_sbu_1, # of connection points: 6
#     Node 12, Type 0, BuildingBlock: LEVNOQ01_clean_sbu_1, # of connection points: 6
#     Node 13, Type 0, BuildingBlock: LEVNOQ01_clean_sbu_1, # of connection points: 6
#     Node 14, Type 0, BuildingBlock: LEVNOQ01_clean_sbu_1, # of connection points: 6
#     Node 15, Type 0, BuildingBlock: LEVNOQ01_clean_sbu_1, # of connection points: 6
#     Edge 16, Type (0, 0), None
#     Edge 17, Type (0, 0), None
#     Edge 18, Type (0, 0), None
#     Edge 19, Type (0, 0), None
#     Edge 20, Type (0, 0), None
#     Edge 21, Type (0, 0), None
#     Edge 22, Type (0, 0), None
#     Edge 23, Type (0, 0), None
#     Edge 24, Type (0, 0), None
#     Edge 25, Type (0, 0), None
#     Edge 26, Type (0, 0), None
#     Edge 27, Type (0, 0), None
#     Edge 28, Type (0, 0), None
#     Edge 29, Type (0, 0), None
#     Edge 30, Type (0, 0), None
#     Edge 31, Type (0, 0), None
#     Edge 32, Type (0, 0), None
#     Edge 33, Type (0, 0), None
#     Edge 34, Type (0, 0), None
#     Edge 35, Type (0, 0), None
#     Edge 36, Type (0, 0), None
#     Edge 37, Type (0, 0), None
#     Edge 38, Type (0, 0), None
#     Edge 39, Type (0, 0), None
#     Edge 40, Type (0, 0), None
#     Edge 41, Type (0, 0), None
#     Edge 42, Type (0, 0), None
#     Edge 43, Type (0, 0), None
#     Edge 44, Type (0, 0), None
#     Edge 45, Type (0, 0), None
#     Edge 46, Type (0, 0), None
#     Edge 47, Type (0, 0), None
#     Edge 48, Type (0, 0), None
#     Edge 49, Type (0, 0), None
#     Edge 50, Type (0, 0), None
#     Edge 51, Type (0, 0), None
#     Edge 52, Type (0, 0), None
#     Edge 53, Type (0, 0), None
#     Edge 54, Type (0, 0), None
#     Edge 55, Type (0, 0), None
#     Edge 56, Type (0, 0), None
#     Edge 57, Type (0, 0), None
#     Edge 58, Type (0, 0), None
#     Edge 59, Type (0, 0), None
#     Edge 60, Type (0, 0), None
#     Edge 61, Type (0, 0), None
#     Edge 62, Type (0, 0), None
#     Edge 63, Type (0, 0), None
# Relax obj value: 0.035
# Max RMSD: 0.076
# Mean RMSD: 0.076
data_MOF--net-vbm--node1-LEVNOQ01_clean_sbu_1--edge1-none
_symmetry_space_group_name_H-M    P1
_symmetry_Int_Tables_number       1
_symmetry_cell_setting            triclinic
loop_
_symmetry_equiv_pos_as_xyz
'x, y, z'
_cell_length_a     29.080746
_cell_length_b     8.0491712
_cell_length_c     28.678234
_cell_angle_alpha  89.994829
_cell_angle_beta   88.824531
_cell_angle_gamma 89.993924
loop_
_atom_site_label
_atom_site_type_symbol
_atom_site_fract_x
_atom_site_fract_y
_atom_site_fract_z
_atom_type_partial_charge
O0 O 0.18413 0.35037 0.19129 0.0
Mg1 Mg 0.11279 0.36062 0.21008 0.0
O2 O 0.18649 0.18525 0.12794 0.0
Mg3 Mg 0.10896 0.12613 0.11027 0.0
O4 O 0.09179 0.13899 0.18759 0.0
O5 O 0.08915 0.19265 0.26257 0.0
O6 O 0.03086 0.07674 0.0968 0.0
O7 O 0.11298 0.83277 0.11978 0.0
Mg8 Mg 0.09401 0.91044 0.01832 0.0
O9 O 0.13041 0.12526 0.03041 0.0
O10 O 0.02787 0.02171 0.0213 0.0
O11 O 0.07649 0.71311 0.06145 0.0
O12 O 0.16563 0.89292 0.03786 0.0
C13 C 0.09102 0.54711 0.12582 0.0
C14 C 0.20616 0.27926 0.15798 0.0
C15 C 0.09045 0.08349 0.22985 0.0
C16 C 0.00793 0.04537 0.06037 0.0
C17 C 0.09263 0.70699 0.10175 0.0
C18 C 0.1646 0.0337 0.0178 0.0
O19 O 0.08234 0.545 0.16935 0.0
O20 O 0.10083 0.41482 0.10278 0.0
O21 O 0.85127 0.32672 0.05965 0.0
Mg22 Mg 0.86193 0.12381 0.01774 0.0
O23 O 0.85885 0.17549 0.12321 0.0
Mg24 Mg 0.86129 0.88906 0.11148 0.0
O25 O 0.85149 0.87474 0.03129 0.0
O26 O 0.79324 0.02421 0.0113 0.0
O27 O 0.86368 0.60531 0.1054 0.0
O28 O 0.78142 0.84488 0.12713 0.0
Mg29 Mg 0.84226 0.67683 0.21312 0.0
O30 O 0.87688 0.87687 0.18769 0.0
O31 O 0.86057 0.46691 0.1729 0.0
O32 O 0.77314 0.73204 0.19846 0.0
O33 O 0.88023 0.81552 0.26151 0.0
C34 C 0.95772 0.02866 0.06301 0.0
C35 C 0.85693 0.31585 0.10285 0.0
C36 C 0.81907 0.89962 0.00233 0.0
C37 C 0.86185 0.47002 0.12869 0.0
C38 C 0.75637 0.78461 0.1606 0.0
C39 C 0.89086 0.9161 0.22852 0.0
O40 O 0.93478 0.0969 0.0308 0.0
O41 O 0.93871 0.93887 0.09502 0.0
O42 O 0.14635 0.32724 0.40964 0.0
Mg43 Mg 0.136 0.12408 0.45153 0.0
O44 O 0.1393 0.17603 0.34602 0.0
Mg45 Mg 0.13682 0.88956 0.35776 0.0
O46 O 0.14668 0.87515 0.43797 0.0
O47 O 0.20486 0.02549 0.45761 0.0
O48 O 0.13436 0.60586 0.36383 0.0
O49 O 0.21667 0.84527 0.34211 0.0
Mg50 Mg 0.15587 0.67737 0.25609 0.0
O51 O 0.1213 0.87748 0.28155 0.0
O52 O 0.13753 0.46748 0.29633 0.0
O53 O 0.22496 0.73252 0.27077 0.0
O54 O 0.11794 0.8163 0.20771 0.0
C55 C 0.04028 0.02843 0.4063 0.0
C56 C 0.14099 0.31638 0.3664 0.0
C57 C 0.17923 0.90052 0.46675 0.0
C58 C 0.13619 0.47058 0.34055 0.0
C59 C 0.24171 0.78506 0.30864 0.0
C60 C 0.10735 0.91685 0.24071 0.0
O61 O 0.06317 0.09638 0.4386 0.0
O62 O 0.05937 0.93929 0.3742 0.0
O63 O 0.92151 0.7127 0.40776 0.0
Mg64 Mg 0.90396 0.90978 0.45095 0.0
O65 O 0.88492 0.83227 0.34947 0.0
Mg66 Mg 0.88899 0.12569 0.35898 0.0
O67 O 0.86754 0.12475 0.43878 0.0
O68 O 0.83236 0.89158 0.4319 0.0
O69 O 0.89712 0.41437 0.36645 0.0
O70 O 0.81152 0.18527 0.34131 0.0
Mg71 Mg 0.8853 0.36062 0.25904 0.0
O72 O 0.90573 0.13859 0.28165 0.0
O73 O 0.91584 0.54441 0.29993 0.0
O74 O 0.81397 0.35061 0.27796 0.0
O75 O 0.90911 0.19194 0.2067 0.0
C76 C 0.99005 0.04485 0.4089 0.0
C77 C 0.90534 0.70654 0.36748 0.0
C78 C 0.83366 0.0324 0.45192 0.0
C79 C 0.90699 0.54663 0.34342 0.0
C80 C 0.79191 0.2795 0.31127 0.0
C81 C 0.90763 0.08289 0.23945 0.0
O82 O 0.9701 0.02111 0.44798 0.0
O83 O 0.96712 0.07618 0.37246 0.0
O84 O 0.92049 0.21027 0.90833 0.0
Mg85 Mg 0.90306 0.01286 0.95141 0.0
O86 O 0.88448 0.09028 0.84972 0.0
Mg87 Mg 0.88849 0.79686 0.85929 0.0
O88 O 0.86686 0.7977 0.93901 0.0
O89 O 0.83154 0.03072 0.93194 0.0
O90 O 0.89651 0.50836 0.86687 0.0
O91 O 0.81103 0.73762 0.84157 0.0
Mg92 Mg 0.88484 0.56189 0.75943 0.0
O93 O 0.90543 0.78375 0.78199 0.0
O94 O 0.91531 0.37829 0.80039 0.0
O95 O 0.81343 0.5726 0.77818 0.0
O96 O 0.9093 0.72955 0.70713 0.0
C97 C 0.98944 0.87854 0.90926 0.0
C98 C 0.90464 0.21621 0.86791 0.0
C99 C 0.83286 0.88983 0.95193 0.0
C100 C 0.90639 0.37608 0.84386 0.0
C101 C 0.79139 0.64367 0.8115 0.0
C102 C 0.9079 0.83897 0.73976 0.0
O103 O 0.96943 0.90295 0.94828 0.0
O104 O 0.96657 0.84628 0.87285 0.0
O105 O 0.14594 0.59623 0.91011 0.0
Mg106 Mg 0.13538 0.79932 0.952 0.0
O107 O 0.13871 0.74734 0.84648 0.0
Mg108 Mg 0.13628 0.03376 0.85815 0.0
O109 O 0.14614 0.0482 0.93839 0.0
O110 O 0.20418 0.89781 0.95872 0.0
O111 O 0.13387 0.31749 0.8643 0.0
O112 O 0.21617 0.07785 0.84241 0.0
Mg113 Mg 0.15525 0.24633 0.75659 0.0
O114 O 0.12075 0.04578 0.78185 0.0
O115 O 0.13686 0.45601 0.79683 0.0
O116 O 0.22438 0.19132 0.77115 0.0
O117 O 0.11754 0.10781 0.70803 0.0
C118 C 0.03968 0.8949 0.9067 0.0
C119 C 0.14048 0.60702 0.86688 0.0
C120 C 0.17851 0.02305 0.96742 0.0
C121 C 0.13564 0.45283 0.84104 0.0
C122 C 0.24118 0.13828 0.80894 0.0
C123 C 0.10703 0.00663 0.74091 0.0
O124 O 0.06254 0.82678 0.93898 0.0
O125 O 0.05879 -0.01584 0.87463 0.0
O126 O 0.85321 0.59595 0.55939 0.0
Mg127 Mg 0.86344 0.7992 0.51751 0.0
O128 O 0.86009 0.74708 0.62305 0.0
Mg129 Mg 0.86255 0.03356 0.61137 0.0
O130 O 0.85266 0.04802 0.53116 0.0
O131 O 0.79452 0.89729 0.51144 0.0
O132 O 0.86503 0.31724 0.60524 0.0
O133 O 0.78268 0.07785 0.62707 0.0
Mg134 Mg 0.84359 0.24608 0.71292 0.0
O135 O 0.87807 0.04552 0.68764 0.0
O136 O 0.86201 0.45573 0.6727 0.0
O137 O 0.77445 0.19131 0.69833 0.0
O138 O 0.88129 0.10743 0.76147 0.0
C139 C 0.95913 0.895 0.56275 0.0
C140 C 0.85848 0.60677 0.60264 0.0
C141 C 0.82012 0.02242 0.5024 0.0
C142 C 0.86327 0.45257 0.62849 0.0
C143 C 0.75766 0.13838 0.66052 0.0
C144 C 0.8918 0.00629 0.72858 0.0
O145 O 0.93627 0.82715 0.53042 0.0
O146 O 0.94002 -0.01612 0.59489 0.0
O147 O 0.07817 0.21048 0.56122 0.0
Mg148 Mg 0.09562 0.0133 0.51806 0.0
O149 O 0.11442 0.09068 0.61971 0.0
Mg150 Mg 0.11035 0.79726 0.61013 0.0
O151 O 0.13188 0.79817 0.53036 0.0
O152 O 0.1672 0.03129 0.53726 0.0
O153 O 0.10231 0.5087 0.60258 0.0
O154 O 0.18782 0.73782 0.62784 0.0
Mg155 Mg 0.11401 0.56228 0.71002 0.0
O156 O 0.09346 0.7842 0.68746 0.0
O157 O 0.08353 0.3787 0.66907 0.0
O158 O 0.1854 0.5729 0.69127 0.0
O159 O 0.08955 0.72985 0.76233 0.0
C160 C 0.00936 0.87868 0.56016 0.0
C161 C 0.09416 0.21653 0.60158 0.0
C162 C 0.16577 0.89048 0.51724 0.0
C163 C 0.09244 0.37645 0.6256 0.0
C164 C 0.20745 0.64388 0.65794 0.0
C165 C 0.09097 0.83928 0.7297 0.0
O166 O 0.02933 0.90288 0.52111 0.0
O167 O 0.03226 0.84677 0.59658 0.0
O168 O 0.68413 0.85041 0.19128 0.0
Mg169 Mg 0.61279 0.86064 0.21008 0.0
O170 O 0.68649 0.68526 0.12793 0.0
Mg171 Mg 0.60896 0.62613 0.11027 0.0
O172 O 0.59179 0.63899 0.18759 0.0
O173 O 0.58915 0.69265 0.26257 0.0
O174 O 0.53086 0.57674 0.0968 0.0
O175 O 0.61298 0.33277 0.11978 0.0
Mg176 Mg 0.59401 0.41044 0.01831 0.0
O177 O 0.63041 0.62527 0.03041 0.0
O178 O 0.52787 0.52172 0.02129 0.0
O179 O 0.57649 0.21312 0.06145 0.0
O180 O 0.66562 0.39292 0.03785 0.0
C181 C 0.59102 0.04712 0.12582 0.0
C182 C 0.70615 0.77933 0.15797 0.0
C183 C 0.59044 0.5835 0.22985 0.0
C184 C 0.50793 0.54537 0.06037 0.0
C185 C 0.59263 0.20699 0.10175 0.0
C186 C 0.6646 0.5337 0.0178 0.0
O187 O 0.58233 0.045 0.16934 0.0
O188 O 0.60083 0.91482 0.10278 0.0
O189 O 0.35127 0.82671 0.05966 0.0
Mg190 Mg 0.36193 0.6238 0.01774 0.0
O191 O 0.35885 0.67549 0.12321 0.0
Mg192 Mg 0.36129 0.38906 0.11149 0.0
O193 O 0.35149 0.37474 0.0313 0.0
O194 O 0.29324 0.52421 0.0113 0.0
O195 O 0.36368 0.10531 0.1054 0.0
O196 O 0.28142 0.34485 0.12714 0.0
Mg197 Mg 0.34227 0.17682 0.21312 0.0
O198 O 0.37689 0.37687 0.18769 0.0
O199 O 0.36058 -0.0331 0.1729 0.0
O200 O 0.27315 0.23202 0.19847 0.0
O201 O 0.38024 0.31551 0.26151 0.0
C202 C 0.45772 0.52866 0.06301 0.0
C203 C 0.35693 0.81585 0.10285 0.0
C204 C 0.31907 0.39961 0.00233 0.0
C205 C 0.36185 -0.02998 0.12869 0.0
C206 C 0.25638 0.28457 0.1606 0.0
C207 C 0.39087 0.4161 0.22852 0.0
O208 O 0.43477 0.5969 0.0308 0.0
O209 O 0.43871 0.43887 0.09502 0.0
O210 O 0.64635 0.82723 0.40964 0.0
Mg211 Mg 0.63601 0.62408 0.45153 0.0
O212 O 0.6393 0.67602 0.34602 0.0
Mg213 Mg 0.63682 0.38956 0.35776 0.0
O214 O 0.64668 0.37514 0.43796 0.0
O215 O 0.70486 0.52548 0.45761 0.0
O216 O 0.63436 0.10585 0.36383 0.0
O217 O 0.71667 0.34525 0.3421 0.0
Mg218 Mg 0.65585 0.17736 0.25609 0.0
O219 O 0.6213 0.37748 0.28154 0.0
O220 O 0.63752 -0.03252 0.29633 0.0
O221 O 0.72495 0.2325 0.27076 0.0
O222 O 0.61792 0.31629 0.20771 0.0
C223 C 0.54028 0.52843 0.4063 0.0
C224 C 0.64099 0.81637 0.3664 0.0
C225 C 0.67923 0.40051 0.46675 0.0
C226 C 0.63618 -0.02943 0.34054 0.0
C227 C 0.74171 0.28501 0.30863 0.0
C228 C 0.60735 0.41685 0.24071 0.0
O229 O 0.56317 0.59638 0.4386 0.0
O230 O 0.55937 0.43929 0.3742 0.0
O231 O 0.42152 0.2127 0.40776 0.0
Mg232 Mg 0.40396 0.40978 0.45096 0.0
O233 O 0.38492 0.33227 0.34948 0.0
Mg234 Mg 0.38899 0.62569 0.35898 0.0
O235 O 0.36754 0.62475 0.43878 0.0
O236 O 0.33236 0.39158 0.4319 0.0
O237 O 0.39712 0.91437 0.36646 0.0
O238 O 0.31152 0.68528 0.34132 0.0
Mg239 Mg 0.3853 0.86063 0.25904 0.0
O240 O 0.40573 0.6386 0.28165 0.0
O241 O 0.41585 0.04441 0.29993 0.0
O242 O 0.31397 0.85066 0.27797 0.0
O243 O 0.40911 0.69195 0.2067 0.0
C244 C 0.49006 0.54486 0.4089 0.0
C245 C 0.40535 0.20655 0.36748 0.0
C246 C 0.33366 0.5324 0.45192 0.0
C247 C 0.407 0.04663 0.34343 0.0
C248 C 0.29191 0.77957 0.31128 0.0
C249 C 0.40763 0.5829 0.23945 0.0
O250 O 0.47011 0.52113 0.44798 0.0
O251 O 0.46712 0.57617 0.37246 0.0
O252 O 0.42049 0.71026 0.90833 0.0
Mg253 Mg 0.40306 0.51286 0.95141 0.0
O254 O 0.38448 0.59029 0.84973 0.0
Mg255 Mg 0.38849 0.29686 0.85929 0.0
O256 O 0.36686 0.2977 0.93901 0.0
O257 O 0.33154 0.53072 0.93195 0.0
O258 O 0.39651 0.00835 0.86687 0.0
O259 O 0.31103 0.23761 0.84158 0.0
Mg260 Mg 0.38484 0.06188 0.75943 0.0
O261 O 0.40543 0.28374 0.78199 0.0
O262 O 0.41532 0.8783 0.8004 0.0
O263 O 0.31343 0.07256 0.77818 0.0
O264 O 0.4093 0.22955 0.70713 0.0
C265 C 0.48944 0.37853 0.90926 0.0
C266 C 0.40464 0.7162 0.86791 0.0
C267 C 0.33286 0.38983 0.95193 0.0
C268 C 0.40639 0.87608 0.84386 0.0
C269 C 0.29139 0.1436 0.81152 0.0
C270 C 0.40791 0.33897 0.73977 0.0
O271 O 0.46943 0.40293 0.94828 0.0
O272 O 0.46657 0.34629 0.87285 0.0
O273 O 0.64594 0.09624 0.9101 0.0
Mg274 Mg 0.63539 0.29932 0.952 0.0
O275 O 0.63871 0.24734 0.84648 0.0
Mg276 Mg 0.63628 0.53377 0.85815 0.0
O277 O 0.64614 0.5482 0.93839 0.0
O278 O 0.70418 0.39781 0.95871 0.0
O279 O 0.63387 0.81749 0.86429 0.0
O280 O 0.71617 0.57788 0.84241 0.0
Mg281 Mg 0.65524 0.74634 0.75659 0.0
O282 O 0.62074 0.54578 0.78185 0.0
O283 O 0.63685 0.95601 0.79683 0.0
O284 O 0.72437 0.69134 0.77114 0.0
O285 O 0.61753 0.60782 0.70803 0.0
C286 C 0.53968 0.3949 0.9067 0.0
C287 C 0.64048 0.10703 0.86688 0.0
C288 C 0.67851 0.52306 0.96742 0.0
C289 C 0.63563 0.95283 0.84104 0.0
C290 C 0.74117 0.63832 0.80893 0.0
C291 C 0.60702 0.50663 0.74091 0.0
O292 O 0.56254 0.32678 0.93898 0.0
O293 O 0.55879 0.48417 0.87463 0.0
O294 O 0.35321 0.09595 0.55939 0.0
Mg295 Mg 0.36344 0.29921 0.51752 0.0
O296 O 0.36009 0.24709 0.62306 0.0
Mg297 Mg 0.36255 0.53356 0.61137 0.0
O298 O 0.35266 0.54803 0.53117 0.0
O299 O 0.29452 0.3973 0.51144 0.0
O300 O 0.36503 0.81724 0.60524 0.0
O301 O 0.28268 0.57788 0.62708 0.0
Mg302 Mg 0.3436 0.74609 0.71292 0.0
O303 O 0.37808 0.54552 0.68765 0.0
O304 O 0.36202 0.95574 0.6727 0.0
O305 O 0.27446 0.69133 0.69834 0.0
O306 O 0.38131 0.60743 0.76147 0.0
C307 C 0.45913 0.395 0.56274 0.0
C308 C 0.35848 0.10677 0.60264 0.0
C309 C 0.32011 0.52243 0.5024 0.0
C310 C 0.36328 0.95258 0.62849 0.0
C311 C 0.25767 0.63842 0.66053 0.0
C312 C 0.3918 0.50629 0.72858 0.0
O313 O 0.43627 0.32715 0.53042 0.0
O314 O 0.44002 0.48388 0.59489 0.0
O315 O 0.57817 0.71047 0.56121 0.0
Mg316 Mg 0.59561 0.51329 0.51806 0.0
O317 O 0.61442 0.59069 0.6197 0.0
Mg318 Mg 0.61035 0.29726 0.61013 0.0
O319 O 0.63188 0.29817 0.53036 0.0
O320 O 0.66719 0.53129 0.53725 0.0
O321 O 0.6023 0.0087 0.60257 0.0
O322 O 0.68782 0.23781 0.62784 0.0
Mg323 Mg 0.614 0.06227 0.71001 0.0
O324 O 0.59346 0.2842 0.68745 0.0
O325 O 0.58352 0.8787 0.66907 0.0
O326 O 0.6854 0.07286 0.69126 0.0
O327 O 0.58955 0.22984 0.76233 0.0
C328 C 0.50936 0.37867 0.56016 0.0
C329 C 0.59415 0.71653 0.60157 0.0
C330 C 0.66577 0.39048 0.51724 0.0
C331 C 0.59244 0.87644 0.6256 0.0
C332 C 0.70745 0.14381 0.65793 0.0
C333 C 0.59097 0.33928 0.7297 0.0
O334 O 0.52933 0.40287 0.52111 0.0
O335 O 0.53226 0.34677 0.59658 0.0
loop_
_geom_bond_atom_site_label_1
_geom_bond_atom_site_label_2
_geom_bond_distance
_geom_bond_site_symmetry_2
_ccdc_geom_bond_type
O0 Mg1 1.990 . S
O0 C14 1.253 . S
Mg1 O0 1.990 . S
Mg1 O4 2.180 . S
Mg1 O5 2.117 . S
Mg1 O19 2.030 . S
O2 Mg3 2.072 . S
O2 C14 1.260 . S
Mg3 O2 2.072 . S
Mg3 O4 2.099 . S
Mg3 O6 2.079 . S
Mg3 O7 2.072 1_545 S
Mg3 O9 2.099 . S
Mg3 O20 2.079 . S
O4 Mg1 2.180 . S
O4 Mg3 2.099 . S
O4 C15 1.279 . S
O5 Mg1 2.117 . S
O5 C15 1.250 . S
O6 Mg3 2.079 . S
O6 C16 1.264 1_545 S
O7 Mg3 2.072 1_565 S
O7 C17 1.260 . S
Mg8 O9 2.180 1_565 S
Mg8 O10 2.030 . S
Mg8 O11 1.990 . S
Mg8 O12 2.117 1_554 S
O9 Mg3 2.099 . S
O9 Mg8 2.180 1_545 S
O9 C18 1.279 . S
O10 Mg8 2.030 . S
O10 C16 1.248 . S
O11 Mg8 1.990 . S
O11 C17 1.253 . S
O12 Mg8 2.117 1_556 S
O12 C18 1.250 1_566 S
C13 O19 1.248 . S
C13 O20 1.264 . S
C14 O0 1.253 . S
C14 O2 1.260 . S
C15 O4 1.279 . S
C15 O5 1.250 . S
C16 O6 1.264 1_565 S
C16 O10 1.248 . S
C17 O7 1.260 . S
C17 O11 1.253 . S
C18 O9 1.279 . S
C18 O12 1.250 1_544 S
O19 Mg1 2.030 . S
O19 C13 1.248 . S
O20 Mg3 2.079 . S
O20 C13 1.264 . S
O21 Mg22 1.990 . S
O21 C35 1.253 . S
Mg22 O21 1.990 . S
Mg22 O25 2.180 1_545 S
Mg22 O26 2.117 1_554 S
Mg22 O40 2.030 . S
O23 Mg24 2.072 1_545 S
O23 C35 1.260 . S
Mg24 O23 2.072 1_565 S
Mg24 O25 2.099 . S
Mg24 O27 2.079 . S
Mg24 O28 2.072 . S
Mg24 O30 2.099 . S
Mg24 O41 2.079 . S
O25 Mg22 2.180 1_565 S
O25 Mg24 2.099 . S
O25 C36 1.279 . S
O26 Mg22 2.117 1_556 S
O26 C36 1.250 1_546 S
O27 Mg24 2.079 . S
O27 C37 1.264 . S
O28 Mg24 2.072 . S
O28 C38 1.260 . S
Mg29 O30 2.180 . S
Mg29 O31 2.030 . S
Mg29 O32 1.990 . S
Mg29 O33 2.117 . S
O30 Mg24 2.099 . S
O30 Mg29 2.180 . S
O30 C39 1.279 . S
O31 Mg29 2.030 . S
O31 C37 1.248 . S
O32 Mg29 1.990 . S
O32 C38 1.253 . S
O33 Mg29 2.117 . S
O33 C39 1.250 . S
C34 O40 1.248 . S
C34 O41 1.264 1_545 S
C35 O21 1.253 . S
C35 O23 1.260 . S
C36 O25 1.279 . S
C36 O26 1.250 1_564 S
C37 O27 1.264 . S
C37 O31 1.248 . S
C38 O28 1.260 . S
C38 O32 1.253 . S
C39 O30 1.279 . S
C39 O33 1.250 . S
O40 Mg22 2.030 . S
O40 C34 1.248 . S
O41 Mg24 2.079 . S
O41 C34 1.264 1_565 S
O42 Mg43 1.990 . S
O42 C56 1.253 . S
Mg43 O42 1.990 . S
Mg43 O46 2.180 1_545 S
Mg43 O47 2.117 . S
Mg43 O61 2.030 . S
O44 Mg45 2.072 1_545 S
O44 C56 1.260 . S
Mg45 O44 2.072 1_565 S
Mg45 O46 2.099 . S
Mg45 O48 2.079 . S
Mg45 O49 2.072 . S
Mg45 O51 2.099 . S
Mg45 O62 2.079 . S
O46 Mg43 2.180 1_565 S
O46 Mg45 2.099 . S
O46 C57 1.279 . S
O47 Mg43 2.117 . S
O47 C57 1.250 1_545 S
O48 Mg45 2.079 . S
O48 C58 1.264 . S
O49 Mg45 2.072 . S
O49 C59 1.260 . S
Mg50 O51 2.180 . S
Mg50 O52 2.030 . S
Mg50 O53 1.990 . S
Mg50 O54 2.117 . S
O51 Mg45 2.099 . S
O51 Mg50 2.180 . S
O51 C60 1.279 . S
O52 Mg50 2.030 . S
O52 C58 1.248 . S
O53 Mg50 1.990 . S
O53 C59 1.253 . S
O54 Mg50 2.117 . S
O54 C60 1.250 . S
C55 O61 1.248 . S
C55 O62 1.264 1_545 S
C56 O42 1.253 . S
C56 O44 1.260 . S
C57 O46 1.279 . S
C57 O47 1.250 1_565 S
C58 O48 1.264 . S
C58 O52 1.248 . S
C59 O49 1.260 . S
C59 O53 1.253 . S
C60 O51 1.279 . S
C60 O54 1.250 . S
O61 Mg43 2.030 . S
O61 C55 1.248 . S
O62 Mg45 2.079 . S
O62 C55 1.264 1_565 S
O63 Mg64 1.990 . S
O63 C77 1.253 . S
Mg64 O63 1.990 . S
Mg64 O67 2.180 1_565 S
Mg64 O68 2.117 . S
Mg64 O82 2.030 . S
O65 Mg66 2.072 1_565 S
O65 C77 1.260 . S
Mg66 O65 2.072 1_545 S
Mg66 O67 2.099 . S
Mg66 O69 2.079 . S
Mg66 O70 2.072 . S
Mg66 O72 2.099 . S
Mg66 O83 2.079 . S
O67 Mg64 2.180 1_545 S
O67 Mg66 2.099 . S
O67 C78 1.279 . S
O68 Mg64 2.117 . S
O68 C78 1.250 1_565 S
O69 Mg66 2.079 . S
O69 C79 1.264 . S
O70 Mg66 2.072 . S
O70 C80 1.260 . S
Mg71 O72 2.180 . S
Mg71 O73 2.030 . S
Mg71 O74 1.990 . S
Mg71 O75 2.117 . S
O72 Mg66 2.099 . S
O72 Mg71 2.180 . S
O72 C81 1.279 . S
O73 Mg71 2.030 . S
O73 C79 1.248 . S
O74 Mg71 1.990 . S
O74 C80 1.253 . S
O75 Mg71 2.117 . S
O75 C81 1.250 . S
C76 O82 1.248 . S
C76 O83 1.264 1_565 S
C77 O63 1.253 . S
C77 O65 1.260 . S
C78 O67 1.279 . S
C78 O68 1.250 1_545 S
C79 O69 1.264 . S
C79 O73 1.248 . S
C80 O70 1.260 . S
C80 O74 1.253 . S
C81 O72 1.279 . S
C81 O75 1.250 . S
O82 Mg64 2.030 . S
O82 C76 1.248 . S
O83 Mg66 2.079 . S
O83 C76 1.264 1_545 S
O84 Mg85 1.990 . S
O84 C98 1.253 . S
Mg85 O84 1.990 . S
Mg85 O88 2.180 1_545 S
Mg85 O89 2.117 1_556 S
Mg85 O103 2.030 . S
O86 Mg87 2.072 1_545 S
O86 C98 1.260 . S
Mg87 O86 2.072 1_565 S
Mg87 O88 2.099 . S
Mg87 O90 2.079 . S
Mg87 O91 2.072 . S
Mg87 O93 2.099 . S
Mg87 O104 2.079 . S
O88 Mg85 2.180 1_565 S
O88 Mg87 2.099 . S
O88 C99 1.279 . S
O89 Mg85 2.117 1_554 S
O89 C99 1.250 1_544 S
O90 Mg87 2.079 . S
O90 C100 1.264 . S
O91 Mg87 2.072 . S
O91 C101 1.260 . S
Mg92 O93 2.180 . S
Mg92 O94 2.030 . S
Mg92 O95 1.990 . S
Mg92 O96 2.117 . S
O93 Mg87 2.099 . S
O93 Mg92 2.180 . S
O93 C102 1.279 . S
O94 Mg92 2.030 . S
O94 C100 1.248 . S
O95 Mg92 1.990 . S
O95 C101 1.253 . S
O96 Mg92 2.117 . S
O96 C102 1.250 . S
C97 O103 1.248 . S
C97 O104 1.264 1_545 S
C98 O84 1.253 . S
C98 O86 1.260 . S
C99 O88 1.279 . S
C99 O89 1.250 1_566 S
C100 O90 1.264 . S
C100 O94 1.248 . S
C101 O91 1.260 . S
C101 O95 1.253 . S
C102 O93 1.279 . S
C102 O96 1.250 . S
O103 Mg85 2.030 . S
O103 C97 1.248 . S
O104 Mg87 2.079 . S
O104 C97 1.264 1_565 S
O105 Mg106 1.990 . S
O105 C119 1.253 . S
Mg106 O105 1.990 . S
Mg106 O109 2.180 1_565 S
Mg106 O110 2.117 1_556 S
Mg106 O124 2.030 . S
O107 Mg108 2.072 1_565 S
O107 C119 1.260 . S
Mg108 O107 2.072 1_545 S
Mg108 O109 2.099 . S
Mg108 O111 2.079 . S
Mg108 O112 2.072 . S
Mg108 O114 2.099 . S
Mg108 O125 2.079 . S
O109 Mg106 2.180 1_545 S
O109 Mg108 2.099 . S
O109 C120 1.279 . S
O110 Mg106 2.117 1_554 S
O110 C120 1.250 1_564 S
O111 Mg108 2.079 . S
O111 C121 1.264 . S
O112 Mg108 2.072 . S
O112 C122 1.260 . S
Mg113 O114 2.180 . S
Mg113 O115 2.030 . S
Mg113 O116 1.990 . S
Mg113 O117 2.117 . S
O114 Mg108 2.099 . S
O114 Mg113 2.180 . S
O114 C123 1.279 . S
O115 Mg113 2.030 . S
O115 C121 1.248 . S
O116 Mg113 1.990 . S
O116 C122 1.253 . S
O117 Mg113 2.117 . S
O117 C123 1.250 . S
C118 O124 1.248 . S
C118 O125 1.264 1_565 S
C119 O105 1.253 . S
C119 O107 1.260 . S
C120 O109 1.279 . S
C120 O110 1.250 1_546 S
C121 O111 1.264 . S
C121 O115 1.248 . S
C122 O112 1.260 . S
C122 O116 1.253 . S
C123 O114 1.279 . S
C123 O117 1.250 . S
O124 Mg106 2.030 . S
O124 C118 1.248 . S
O125 Mg108 2.079 . S
O125 C118 1.264 1_545 S
O126 Mg127 1.990 . S
O126 C140 1.253 . S
Mg127 O126 1.990 . S
Mg127 O130 2.180 1_565 S
Mg127 O131 2.117 . S
Mg127 O145 2.030 . S
O128 Mg129 2.072 1_565 S
O128 C140 1.260 . S
Mg129 O128 2.072 1_545 S
Mg129 O130 2.099 . S
Mg129 O132 2.079 . S
Mg129 O133 2.072 . S
Mg129 O135 2.099 . S
Mg129 O146 2.079 . S
O130 Mg127 2.180 1_545 S
O130 Mg129 2.099 . S
O130 C141 1.279 . S
O131 Mg127 2.117 . S
O131 C141 1.250 1_565 S
O132 Mg129 2.079 . S
O132 C142 1.264 . S
O133 Mg129 2.072 . S
O133 C143 1.260 . S
Mg134 O135 2.180 . S
Mg134 O136 2.030 . S
Mg134 O137 1.990 . S
Mg134 O138 2.117 . S
O135 Mg129 2.099 . S
O135 Mg134 2.180 . S
O135 C144 1.279 . S
O136 Mg134 2.030 . S
O136 C142 1.248 . S
O137 Mg134 1.990 . S
O137 C143 1.253 . S
O138 Mg134 2.117 . S
O138 C144 1.250 . S
C139 O145 1.248 . S
C139 O146 1.264 1_565 S
C140 O126 1.253 . S
C140 O128 1.260 . S
C141 O130 1.279 . S
C141 O131 1.250 1_545 S
C142 O132 1.264 . S
C142 O136 1.248 . S
C143 O133 1.260 . S
C143 O137 1.253 . S
C144 O135 1.279 . S
C144 O138 1.250 . S
O145 Mg127 2.030 . S
O145 C139 1.248 . S
O146 Mg129 2.079 . S
O146 C139 1.264 1_545 S
O147 Mg148 1.990 . S
O147 C161 1.253 . S
Mg148 O147 1.990 . S
Mg148 O151 2.180 1_545 S
Mg148 O152 2.117 . S
Mg148 O166 2.030 . S
O149 Mg150 2.072 1_545 S
O149 C161 1.260 . S
Mg150 O149 2.072 1_565 S
Mg150 O151 2.099 . S
Mg150 O153 2.079 . S
Mg150 O154 2.072 . S
Mg150 O156 2.099 . S
Mg150 O167 2.079 . S
O151 Mg148 2.180 1_565 S
O151 Mg150 2.099 . S
O151 C162 1.279 . S
O152 Mg148 2.117 . S
O152 C162 1.250 1_545 S
O153 Mg150 2.079 . S
O153 C163 1.264 . S
O154 Mg150 2.072 . S
O154 C164 1.260 . S
Mg155 O156 2.180 . S
Mg155 O157 2.030 . S
Mg155 O158 1.990 . S
Mg155 O159 2.117 . S
O156 Mg150 2.099 . S
O156 Mg155 2.180 . S
O156 C165 1.279 . S
O157 Mg155 2.030 . S
O157 C163 1.248 . S
O158 Mg155 1.990 . S
O158 C164 1.253 . S
O159 Mg155 2.117 . S
O159 C165 1.250 . S
C160 O166 1.248 . S
C160 O167 1.264 1_545 S
C161 O147 1.253 . S
C161 O149 1.260 . S
C162 O151 1.279 . S
C162 O152 1.250 1_565 S
C163 O153 1.264 . S
C163 O157 1.248 . S
C164 O154 1.260 . S
C164 O158 1.253 . S
C165 O156 1.279 . S
C165 O159 1.250 . S
O166 Mg148 2.030 . S
O166 C160 1.248 . S
O167 Mg150 2.079 . S
O167 C160 1.264 1_565 S
O168 Mg169 1.990 . S
O168 C182 1.253 . S
Mg169 O168 1.990 . S
Mg169 O172 2.180 . S
Mg169 O173 2.117 . S
Mg169 O187 2.030 1_565 S
O170 Mg171 2.072 . S
O170 C182 1.260 . S
Mg171 O170 2.072 . S
Mg171 O172 2.099 . S
Mg171 O174 2.079 . S
Mg171 O175 2.072 . S
Mg171 O177 2.099 . S
Mg171 O188 2.079 . S
O172 Mg169 2.180 . S
O172 Mg171 2.099 . S
O172 C183 1.279 . S
O173 Mg169 2.117 . S
O173 C183 1.250 . S
O174 Mg171 2.079 . S
O174 C184 1.264 . S
O175 Mg171 2.072 . S
O175 C185 1.260 . S
Mg176 O177 2.180 . S
Mg176 O178 2.030 . S
Mg176 O179 1.990 . S
Mg176 O180 2.117 1_554 S
O177 Mg171 2.099 . S
O177 Mg176 2.180 . S
O177 C186 1.279 . S
O178 Mg176 2.030 . S
O178 C184 1.248 . S
O179 Mg176 1.990 . S
O179 C185 1.253 . S
O180 Mg176 2.117 1_556 S
O180 C186 1.250 1_556 S
C181 O187 1.248 . S
C181 O188 1.264 1_545 S
C182 O168 1.253 . S
C182 O170 1.260 . S
C183 O172 1.279 . S
C183 O173 1.250 . S
C184 O174 1.264 . S
C184 O178 1.248 . S
C185 O175 1.260 . S
C185 O179 1.253 . S
C186 O177 1.279 . S
C186 O180 1.250 1_554 S
O187 Mg169 2.030 1_545 S
O187 C181 1.248 . S
O188 Mg171 2.079 . S
O188 C181 1.264 1_565 S
O189 Mg190 1.990 . S
O189 C203 1.253 . S
Mg190 O189 1.990 . S
Mg190 O193 2.180 . S
Mg190 O194 2.117 1_554 S
Mg190 O208 2.030 . S
O191 Mg192 2.072 . S
O191 C203 1.260 . S
Mg192 O191 2.072 . S
Mg192 O193 2.099 . S
Mg192 O195 2.079 . S
Mg192 O196 2.072 . S
Mg192 O198 2.099 . S
Mg192 O209 2.079 . S
O193 Mg190 2.180 . S
O193 Mg192 2.099 . S
O193 C204 1.279 . S
O194 Mg190 2.117 1_556 S
O194 C204 1.250 1_556 S
O195 Mg192 2.079 . S
O195 C205 1.264 1_545 S
O196 Mg192 2.072 . S
O196 C206 1.260 . S
Mg197 O198 2.180 . S
Mg197 O199 2.030 1_545 S
Mg197 O200 1.990 . S
Mg197 O201 2.117 . S
O198 Mg192 2.099 . S
O198 Mg197 2.180 . S
O198 C207 1.279 . S
O199 Mg197 2.030 1_565 S
O199 C205 1.248 . S
O200 Mg197 1.990 . S
O200 C206 1.253 . S
O201 Mg197 2.117 . S
O201 C207 1.250 . S
C202 O208 1.248 . S
C202 O209 1.264 . S
C203 O189 1.253 . S
C203 O191 1.260 . S
C204 O193 1.279 . S
C204 O194 1.250 1_554 S
C205 O195 1.264 1_565 S
C205 O199 1.248 . S
C206 O196 1.260 . S
C206 O200 1.253 . S
C207 O198 1.279 . S
C207 O201 1.250 . S
O208 Mg190 2.030 . S
O208 C202 1.248 . S
O209 Mg192 2.079 . S
O209 C202 1.264 . S
O210 Mg211 1.990 . S
O210 C224 1.253 . S
Mg211 O210 1.990 . S
Mg211 O214 2.180 . S
Mg211 O215 2.117 . S
Mg211 O229 2.030 . S
O212 Mg213 2.072 . S
O212 C224 1.260 . S
Mg213 O212 2.072 . S
Mg213 O214 2.099 . S
Mg213 O216 2.079 . S
Mg213 O217 2.072 . S
Mg213 O219 2.099 . S
Mg213 O230 2.079 . S
O214 Mg211 2.180 . S
O214 Mg213 2.099 . S
O214 C225 1.279 . S
O215 Mg211 2.117 . S
O215 C225 1.250 . S
O216 Mg213 2.079 . S
O216 C226 1.264 1_545 S
O217 Mg213 2.072 . S
O217 C227 1.260 . S
Mg218 O219 2.180 . S
Mg218 O220 2.030 1_545 S
Mg218 O221 1.990 . S
Mg218 O222 2.117 . S
O219 Mg213 2.099 . S
O219 Mg218 2.180 . S
O219 C228 1.279 . S
O220 Mg218 2.030 1_565 S
O220 C226 1.248 . S
O221 Mg218 1.990 . S
O221 C227 1.253 . S
O222 Mg218 2.117 . S
O222 C228 1.250 . S
C223 O229 1.248 . S
C223 O230 1.264 . S
C224 O210 1.253 . S
C224 O212 1.260 . S
C225 O214 1.279 . S
C225 O215 1.250 . S
C226 O216 1.264 1_565 S
C226 O220 1.248 . S
C227 O217 1.260 . S
C227 O221 1.253 . S
C228 O219 1.279 . S
C228 O222 1.250 . S
O229 Mg211 2.030 . S
O229 C223 1.248 . S
O230 Mg213 2.079 . S
O230 C223 1.264 . S
O231 Mg232 1.990 . S
O231 C245 1.253 . S
Mg232 O231 1.990 . S
Mg232 O235 2.180 . S
Mg232 O236 2.117 . S
Mg232 O250 2.030 . S
O233 Mg234 2.072 . S
O233 C245 1.260 . S
Mg234 O233 2.072 . S
Mg234 O235 2.099 . S
Mg234 O237 2.079 . S
Mg234 O238 2.072 . S
Mg234 O240 2.099 . S
Mg234 O251 2.079 . S
O235 Mg232 2.180 . S
O235 Mg234 2.099 . S
O235 C246 1.279 . S
O236 Mg232 2.117 . S
O236 C246 1.250 . S
O237 Mg234 2.079 . S
O237 C247 1.264 1_565 S
O238 Mg234 2.072 . S
O238 C248 1.260 . S
Mg239 O240 2.180 . S
Mg239 O241 2.030 1_565 S
Mg239 O242 1.990 . S
Mg239 O243 2.117 . S
O240 Mg234 2.099 . S
O240 Mg239 2.180 . S
O240 C249 1.279 . S
O241 Mg239 2.030 1_545 S
O241 C247 1.248 . S
O242 Mg239 1.990 . S
O242 C248 1.253 . S
O243 Mg239 2.117 . S
O243 C249 1.250 . S
C244 O250 1.248 . S
C244 O251 1.264 . S
C245 O231 1.253 . S
C245 O233 1.260 . S
C246 O235 1.279 . S
C246 O236 1.250 . S
C247 O237 1.264 1_545 S
C247 O241 1.248 . S
C248 O238 1.260 . S
C248 O242 1.253 . S
C249 O240 1.279 . S
C249 O243 1.250 . S
O250 Mg232 2.030 . S
O250 C244 1.248 . S
O251 Mg234 2.079 . S
O251 C244 1.264 . S
O252 Mg253 1.990 . S
O252 C266 1.253 . S
Mg253 O252 1.990 . S
Mg253 O256 2.180 . S
Mg253 O257 2.117 1_556 S
Mg253 O271 2.030 . S
O254 Mg255 2.072 . S
O254 C266 1.260 . S
Mg255 O254 2.072 . S
Mg255 O256 2.099 . S
Mg255 O258 2.079 . S
Mg255 O259 2.072 . S
Mg255 O261 2.099 . S
Mg255 O272 2.079 . S
O256 Mg253 2.180 . S
O256 Mg255 2.099 . S
O256 C267 1.279 . S
O257 Mg253 2.117 1_554 S
O257 C267 1.250 1_554 S
O258 Mg255 2.079 . S
O258 C268 1.264 1_545 S
O259 Mg255 2.072 . S
O259 C269 1.260 . S
Mg260 O261 2.180 . S
Mg260 O262 2.030 1_545 S
Mg260 O263 1.990 . S
Mg260 O264 2.117 . S
O261 Mg255 2.099 . S
O261 Mg260 2.180 . S
O261 C270 1.279 . S
O262 Mg260 2.030 1_565 S
O262 C268 1.248 . S
O263 Mg260 1.990 . S
O263 C269 1.253 . S
O264 Mg260 2.117 . S
O264 C270 1.250 . S
C265 O271 1.248 . S
C265 O272 1.264 . S
C266 O252 1.253 . S
C266 O254 1.260 . S
C267 O256 1.279 . S
C267 O257 1.250 1_556 S
C268 O258 1.264 1_565 S
C268 O262 1.248 . S
C269 O259 1.260 . S
C269 O263 1.253 . S
C270 O261 1.279 . S
C270 O264 1.250 . S
O271 Mg253 2.030 . S
O271 C265 1.248 . S
O272 Mg255 2.079 . S
O272 C265 1.264 . S
O273 Mg274 1.990 . S
O273 C287 1.253 . S
Mg274 O273 1.990 . S
Mg274 O277 2.180 . S
Mg274 O278 2.117 1_556 S
Mg274 O292 2.030 . S
O275 Mg276 2.072 . S
O275 C287 1.260 . S
Mg276 O275 2.072 . S
Mg276 O277 2.099 . S
Mg276 O279 2.079 . S
Mg276 O280 2.072 . S
Mg276 O282 2.099 . S
Mg276 O293 2.079 . S
O277 Mg274 2.180 . S
O277 Mg276 2.099 . S
O277 C288 1.279 . S
O278 Mg274 2.117 1_554 S
O278 C288 1.250 1_554 S
O279 Mg276 2.079 . S
O279 C289 1.264 1_565 S
O280 Mg276 2.072 . S
O280 C290 1.260 . S
Mg281 O282 2.180 . S
Mg281 O283 2.030 1_565 S
Mg281 O284 1.990 . S
Mg281 O285 2.117 . S
O282 Mg276 2.099 . S
O282 Mg281 2.180 . S
O282 C291 1.279 . S
O283 Mg281 2.030 1_545 S
O283 C289 1.248 . S
O284 Mg281 1.990 . S
O284 C290 1.253 . S
O285 Mg281 2.117 . S
O285 C291 1.250 . S
C286 O292 1.248 . S
C286 O293 1.264 . S
C287 O273 1.253 . S
C287 O275 1.260 . S
C288 O277 1.279 . S
C288 O278 1.250 1_556 S
C289 O279 1.264 1_545 S
C289 O283 1.248 . S
C290 O280 1.260 . S
C290 O284 1.253 . S
C291 O282 1.279 . S
C291 O285 1.250 . S
O292 Mg274 2.030 . S
O292 C286 1.248 . S
O293 Mg276 2.079 . S
O293 C286 1.264 . S
O294 Mg295 1.990 . S
O294 C308 1.253 . S
Mg295 O294 1.990 . S
Mg295 O298 2.180 . S
Mg295 O299 2.117 . S
Mg295 O313 2.030 . S
O296 Mg297 2.072 . S
O296 C308 1.260 . S
Mg297 O296 2.072 . S
Mg297 O298 2.099 . S
Mg297 O300 2.079 . S
Mg297 O301 2.072 . S
Mg297 O303 2.099 . S
Mg297 O314 2.079 . S
O298 Mg295 2.180 . S
O298 Mg297 2.099 . S
O298 C309 1.279 . S
O299 Mg295 2.117 . S
O299 C309 1.250 . S
O300 Mg297 2.079 . S
O300 C310 1.264 1_565 S
O301 Mg297 2.072 . S
O301 C311 1.260 . S
Mg302 O303 2.180 . S
Mg302 O304 2.030 1_565 S
Mg302 O305 1.990 . S
Mg302 O306 2.117 . S
O303 Mg297 2.099 . S
O303 Mg302 2.180 . S
O303 C312 1.279 . S
O304 Mg302 2.030 1_545 S
O304 C310 1.248 . S
O305 Mg302 1.990 . S
O305 C311 1.253 . S
O306 Mg302 2.117 . S
O306 C312 1.250 . S
C307 O313 1.248 . S
C307 O314 1.264 . S
C308 O294 1.253 . S
C308 O296 1.260 . S
C309 O298 1.279 . S
C309 O299 1.250 . S
C310 O300 1.264 1_545 S
C310 O304 1.248 . S
C311 O301 1.260 . S
C311 O305 1.253 . S
C312 O303 1.279 . S
C312 O306 1.250 . S
O313 Mg295 2.030 . S
O313 C307 1.248 . S
O314 Mg297 2.079 . S
O314 C307 1.264 . S
O315 Mg316 1.990 . S
O315 C329 1.253 . S
Mg316 O315 1.990 . S
Mg316 O319 2.180 . S
Mg316 O320 2.117 . S
Mg316 O334 2.030 . S
O317 Mg318 2.072 . S
O317 C329 1.260 . S
Mg318 O317 2.072 . S
Mg318 O319 2.099 . S
Mg318 O321 2.079 . S
Mg318 O322 2.072 . S
Mg318 O324 2.099 . S
Mg318 O335 2.079 . S
O319 Mg316 2.180 . S
O319 Mg318 2.099 . S
O319 C330 1.279 . S
O320 Mg316 2.117 . S
O320 C330 1.250 . S
O321 Mg318 2.079 . S
O321 C331 1.264 1_545 S
O322 Mg318 2.072 . S
O322 C332 1.260 . S
Mg323 O324 2.180 . S
Mg323 O325 2.030 1_545 S
Mg323 O326 1.990 . S
Mg323 O327 2.117 . S
O324 Mg318 2.099 . S
O324 Mg323 2.180 . S
O324 C333 1.279 . S
O325 Mg323 2.030 1_565 S
O325 C331 1.248 . S
O326 Mg323 1.990 . S
O326 C332 1.253 . S
O327 Mg323 2.117 . S
O327 C333 1.250 . S
C328 O334 1.248 . S
C328 O335 1.264 . S
C329 O315 1.253 . S
C329 O317 1.260 . S
C330 O319 1.279 . S
C330 O320 1.250 . S
C331 O321 1.264 1_565 S
C331 O325 1.248 . S
C332 O322 1.260 . S
C332 O326 1.253 . S
C333 O324 1.279 . S
C333 O327 1.250 . S
O334 Mg316 2.030 . S
O334 C328 1.248 . S
O335 Mg318 2.079 . S
O335 C328 1.264 . S
C14 C206 1.254 . S
C38 C182 1.254 . S
C248 C59 1.254 . S
C80 C227 1.254 . S
C290 C101 1.254 . S
C269 C122 1.254 . S
C332 C143 1.254 . S
C164 C311 1.254 . S
C60 C15 1.510 1_565 S
C81 C39 1.510 1_545 S
C144 C102 1.510 1_545 S
C123 C165 1.510 1_545 S
C228 C183 1.510 . S
C249 C207 1.510 . S
C270 C312 1.510 . S
C291 C333 1.510 . S
C120 C18 0.673 1_556 S
C99 C36 0.673 1_556 S
C57 C162 0.673 . S
C141 C78 0.673 . S
C186 C288 0.673 1_554 S
C267 C204 0.673 1_556 S
C225 C330 0.673 . S
C309 C246 0.673 . S
C34 C16 1.325 1_645 S
C76 C55 1.325 1_665 S
C118 C97 1.325 1_465 S
C139 C160 1.325 1_665 S
C202 C184 1.325 . S
C244 C223 1.325 . S
C265 C286 1.325 . S
C307 C328 1.325 . S
C17 C13 1.372 . S
C35 C37 1.372 . S
C56 C58 1.372 . S
C79 C77 1.372 . S
C98 C100 1.372 . S
C121 C119 1.372 . S
C140 C142 1.372 . S
C161 C163 1.372 . S
C181 C185 1.372 . S
C203 C205 1.372 . S
C226 C224 1.372 . S
C247 C245 1.372 . S
C266 C268 1.372 . S
C287 C289 1.372 . S
C310 C308 1.372 . S
C329 C331 1.372 . S
