# Generated by pormake.
# Topology fnu, (5)-cn, num edge types: 1
# Building blocks:
#     Node 0, Type 0, BuildingBlock: BEQFEK_clean_sbu_0, # of connection points: 5
#     Node 1, Type 0, BuildingBlock: BEQFEK_clean_sbu_0, # of connection points: 5
#     Node 2, Type 0, BuildingBlock: BEQFEK_clean_sbu_0, # of connection points: 5
#     Node 3, Type 0, BuildingBlock: BEQFEK_clean_sbu_0, # of connection points: 5
#     Node 4, Type 0, BuildingBlock: BEQFEK_clean_sbu_0, # of connection points: 5
#     Node 5, Type 0, BuildingBlock: BEQFEK_clean_sbu_0, # of connection points: 5
#     Edge 6, Type (0, 0), BuildingBlock: TEMPAE_clean_linker_10, # of connection points: 2
#     Edge 7, Type (0, 0), BuildingBlock: TEMPAE_clean_linker_10, # of connection points: 2
#     Edge 8, Type (0, 0), BuildingBlock: TEMPAE_clean_linker_10, # of connection points: 2
#     Edge 9, Type (0, 0), BuildingBlock: TEMPAE_clean_linker_10, # of connection points: 2
#     Edge 10, Type (0, 0), BuildingBlock: TEMPAE_clean_linker_10, # of connection points: 2
#     Edge 11, Type (0, 0), BuildingBlock: TEMPAE_clean_linker_10, # of connection points: 2
#     Edge 12, Type (0, 0), BuildingBlock: TEMPAE_clean_linker_10, # of connection points: 2
#     Edge 13, Type (0, 0), BuildingBlock: TEMPAE_clean_linker_10, # of connection points: 2
#     Edge 14, Type (0, 0), BuildingBlock: TEMPAE_clean_linker_10, # of connection points: 2
#     Edge 15, Type (0, 0), BuildingBlock: TEMPAE_clean_linker_10, # of connection points: 2
#     Edge 16, Type (0, 0), BuildingBlock: TEMPAE_clean_linker_10, # of connection points: 2
#     Edge 17, Type (0, 0), BuildingBlock: TEMPAE_clean_linker_10, # of connection points: 2
#     Edge 18, Type (0, 0), BuildingBlock: TEMPAE_clean_linker_10, # of connection points: 2
#     Edge 19, Type (0, 0), BuildingBlock: TEMPAE_clean_linker_10, # of connection points: 2
#     Edge 20, Type (0, 0), BuildingBlock: TEMPAE_clean_linker_10, # of connection points: 2
# Relax obj value: 0.175
# Max RMSD: 0.165
# Mean RMSD: 0.165
data_MOF--net-fnu--node1-BEQFEK_clean_sbu_0--edge1-TEMPAE_clean_linker_10
_symmetry_space_group_name_H-M    P1
_symmetry_Int_Tables_number       1
_symmetry_cell_setting            triclinic
loop_
_symmetry_equiv_pos_as_xyz
'x, y, z'
_cell_length_a     25.075967
_cell_length_b     29.669152
_cell_length_c     37.096672
_cell_angle_alpha  90.017562
_cell_angle_beta   96.934861
_cell_angle_gamma 126.28307
loop_
_atom_site_label
_atom_site_type_symbol
_atom_site_fract_x
_atom_site_fract_y
_atom_site_fract_z
_atom_type_partial_charge
Co0 Co 1.00928 0.98278 0.17883 0.0
Co1 Co 0.05743 0.01812 0.26306 0.0
C2 C 0.99766 0.90107 0.22872 0.0
O3 O 0.99035 0.91682 0.19819 0.0
O4 O 0.02165 0.93417 0.25795 0.0
C5 C 0.94001 0.91326 0.11121 0.0
O6 O 0.92407 0.87095 0.13051 0.0
C7 C 0.04473 0.02026 0.34302 0.0
C8 C 0.14002 0.10147 0.36401 0.0
C9 C 0.08262 0.0555 0.37527 0.0
N10 N 0.07879 0.04444 0.31479 0.0
N11 N 0.13564 0.09302 0.32779 0.0
C12 C 0.97607 0.96599 0.33834 0.0
H13 H 0.95213 0.95666 0.30945 0.0
H14 H 0.94479 0.96768 0.35625 0.0
H15 H 0.97972 0.93159 0.34583 0.0
C16 C 0.94239 0.03286 0.18633 0.0
N17 N 0.97416 0.01271 0.20239 0.0
N18 N 0.99834 0.03392 0.23653 0.0
C19 C 0.98487 0.07118 0.24255 0.0
C20 C 0.94947 0.07209 0.21055 0.0
C21 C 0.91189 0.01905 0.14695 0.0
H22 H 0.95219 0.04142 0.12974 0.0
H23 H 0.88294 0.97326 0.13973 0.0
H24 H 0.87796 0.03145 0.1411 0.0
O25 O 0.10739 0.03679 0.18253 0.0
O26 O 0.14466 0.06255 0.24178 0.0
H27 H 0.06987 0.1369 0.27902 0.0
H28 H 0.99861 0.13907 0.27478 0.0
C29 C 1.01448 0.11116 0.27601 0.0
H30 H 0.99891 0.08705 0.30031 0.0
H31 H 0.17175 0.12054 0.31188 0.0
O32 O 0.97331 0.96267 0.12686 0.0
C33 C 0.15552 0.06484 0.20874 0.0
Co34 Co 0.0983 0.0652 0.84082 0.0
Co35 Co 0.04468 0.03492 0.75678 0.0
C36 C 0.0987 0.97965 0.79886 0.0
O37 O 0.10685 1.00806 0.82707 0.0
O38 O 0.07847 0.98657 0.76742 0.0
C39 C 0.1646 0.06706 0.90695 0.0
O40 O 0.19847 0.05724 0.88826 0.0
C41 C 0.05432 0.04069 0.67623 0.0
C42 C 0.95167 1.00941 0.65327 0.0
C43 C 1.01274 0.02832 0.643 0.0
N44 N 0.01893 0.02921 0.70406 0.0
N45 N 0.95762 1.01053 0.68988 0.0
C46 C 0.12711 0.06551 0.68207 0.0
H47 H 0.14958 0.08377 0.7107 0.0
H48 H 0.15373 0.09838 0.66316 0.0
H49 H 0.13306 0.03203 0.67674 0.0
C50 C 0.17231 0.17824 0.82186 0.0
N51 N 0.13505 0.12331 0.81107 0.0
N52 N 0.10887 0.11379 0.77651 0.0
C53 C 0.12708 0.16369 0.76468 0.0
C54 C 0.16858 0.20622 0.79311 0.0
C55 C 0.2001 0.20149 0.86092 0.0
H56 H 0.15813 0.18542 0.87667 0.0
H57 H 0.22998 0.18706 0.87248 0.0
H58 H 0.23224 0.24799 0.86412 0.0
O59 O 1.00272 0.02887 0.83942 0.0
O60 O 0.96035 0.99914 0.78096 0.0
H61 H 0.04421 0.13713 0.72337 0.0
H62 H 0.1115 0.212 0.72716 0.0
C63 C 0.09927 0.16951 0.72851 0.0
H64 H 0.12065 0.16201 0.70681 0.0
H65 H 0.91958 0.99839 0.70523 0.0
O66 O 0.13923 0.09004 0.89194 0.0
C67 C 0.95263 1.00188 0.81425 0.0
Co68 Co 0.64489 0.33424 0.50483 0.0
Co69 Co 0.67374 0.34425 0.59085 0.0
C70 C 0.60726 0.23405 0.54539 0.0
O71 O 0.61209 0.2597 0.51725 0.0
O72 O 0.62906 0.26003 0.57741 0.0
C73 C 0.5599 0.28825 0.43375 0.0
O74 O 0.51492 0.24384 0.44901 0.0
C75 C 0.67228 0.33568 0.67372 0.0
C76 C 0.74532 0.42572 0.69205 0.0
C77 C 0.70538 0.37356 0.7052 0.0
N78 N 0.69219 0.36466 0.64382 0.0
N79 N 0.7357 0.41842 0.65543 0.0
C80 C 0.62566 0.27308 0.6722 0.0
H81 H 0.62584 0.25389 0.64664 0.0
H82 H 0.57415 0.25989 0.67284 0.0
H83 H 0.63992 0.25774 0.69602 0.0
C84 C 0.57978 0.38487 0.51787 0.0
N85 N 0.61155 0.36318 0.53084 0.0
N86 N 0.61965 0.36689 0.56674 0.0
C87 C 0.59072 0.39051 0.57756 0.0
C88 C 0.56376 0.40179 0.54666 0.0
C89 C 0.57197 0.39549 0.47872 0.0
H90 H 0.61779 0.41001 0.46705 0.0
H91 H 0.52861 0.35605 0.46309 0.0
H92 H 0.5635 0.42808 0.47567 0.0
O93 O 0.74193 0.38529 0.51311 0.0
O94 O 0.76611 0.39131 0.57343 0.0
H95 H 0.63983 0.44167 0.62789 0.0
H96 H 0.55148 0.40985 0.61865 0.0
C97 C 0.59004 0.40305 0.61643 0.0
H98 H 0.58064 0.36812 0.63253 0.0
H99 H 0.75957 0.45041 0.63818 0.0
O100 O 0.61504 0.32748 0.45262 0.0
C101 C 0.78443 0.40444 0.54195 0.0
Co102 Co 0.77046 0.35801 0.17687 0.0
Co103 Co 0.7285 0.35112 0.09144 0.0
C104 C 0.80302 0.30609 0.12272 0.0
O105 O 0.8022 0.32266 0.15379 0.0
O106 O 0.77526 0.31231 0.09386 0.0
C107 C 0.81884 0.37181 0.25872 0.0
O108 O 0.87279 0.39294 0.28284 0.0
C109 C 0.7279 0.35625 0.00955 0.0
C110 C 0.64748 0.36568 0.99433 0.0
C111 C 0.6921 0.36069 0.9794 0.0
N112 N 0.70466 0.35794 0.04029 0.0
N113 N 0.65661 0.36366 0.03067 0.0
C114 C 0.78573 0.35377 0.00961 0.0
H115 H 0.81908 0.37205 0.03621 0.0
H116 H 0.8146 0.37678 0.98734 0.0
H117 H 0.76664 0.30925 1.00546 0.0
C118 C 0.82615 0.47495 0.1722 0.0
N119 N 0.7953 0.42354 0.15538 0.0
N120 N 0.78278 0.42421 0.11994 0.0
C121 C 0.8066 0.47767 0.1133 0.0
C122 C 0.83576 0.51173 0.14639 0.0
C123 C 0.8402 0.48732 0.21285 0.0
H124 H 0.80025 0.45133 0.22561 0.0
H125 H 0.88842 0.49481 0.22335 0.0
H126 H 0.84292 0.52463 0.2211 0.0
O127 O 0.67214 0.30423 0.17278 0.0
O128 O 0.64125 0.30297 0.11351 0.0
H129 H 0.74911 0.48328 0.0688 0.0
H130 H 0.83693 0.54157 0.07582 0.0
C131 C 0.80051 0.49544 0.07629 0.0
H132 H 0.80859 0.47352 0.05586 0.0
H133 H 0.62971 0.36601 0.04901 0.0
O134 O 0.82587 0.37959 0.22551 0.0
C135 C 0.62678 0.28778 0.14545 0.0
Co136 Co 0.35391 0.69685 0.8417 0.0
Co137 Co 0.3701 0.69687 0.92674 0.0
C138 C 0.32046 0.59416 0.87908 0.0
O139 O 0.33037 0.62464 0.85316 0.0
O140 O 0.33092 0.61396 0.91198 0.0
C141 C 0.28508 0.64034 0.77306 0.0
O142 O 0.23962 0.60174 0.79148 0.0
C143 C 0.35583 0.68203 1.00774 0.0
C144 C 0.42814 0.77084 0.02931 0.0
C145 C 0.38454 0.71755 0.04023 0.0
N146 N 0.3816 0.7134 0.97943 0.0
N147 N 0.42463 0.76636 0.9929 0.0
C148 C 0.30747 0.61941 1.00383 0.0
H149 H 0.31038 0.60189 0.9784 0.0
H150 H 0.25593 0.60706 1.0025 0.0
H151 H 0.31774 0.60151 0.02758 0.0
C152 C 0.27382 0.73393 0.85206 0.0
N153 N 0.30887 0.71549 0.86571 0.0
N154 N 0.31478 0.71786 0.90153 0.0
C155 C 0.28275 0.73892 0.91175 0.0
C156 C 0.2552 0.74907 0.88051 0.0
C157 C 0.26545 0.7429 0.81261 0.0
H158 H 0.31402 0.76383 0.80238 0.0
H159 H 0.22915 0.70154 0.79669 0.0
H160 H 0.24745 0.76902 0.808 0.0
O161 O 0.44925 0.75343 0.8535 0.0
O162 O 0.46562 0.74803 0.91311 0.0
H163 H 0.33074 0.78904 0.96253 0.0
H164 H 0.24289 0.75892 0.95212 0.0
C165 C 0.2808 0.75119 0.95042 0.0
H166 H 0.26949 0.71559 0.96634 0.0
H167 H 0.45209 0.79973 0.9771 0.0
O168 O 0.33101 0.68863 0.78896 0.0
C169 C 0.48818 0.76802 0.88335 0.0
Co170 Co 0.39634 0.70506 0.50397 0.0
Co171 Co 0.34809 0.68154 0.41982 0.0
C172 C 0.39589 0.62117 0.45867 0.0
O173 O 0.40041 0.64684 0.48723 0.0
O174 O 0.38112 0.63212 0.42731 0.0
C175 C 0.48262 0.71408 0.5647 0.0
O176 O 0.50472 0.69925 0.5404 0.0
C177 C 0.35359 0.68293 0.33915 0.0
C178 C 0.26695 0.68237 0.3185 0.0
C179 C 0.31833 0.68344 0.30706 0.0
N180 N 0.32399 0.68137 0.36777 0.0
N181 N 0.27207 0.68082 0.35498 0.0
C182 C 0.41677 0.68762 0.34309 0.0
H183 H 0.44466 0.70517 0.37109 0.0
H184 H 0.44861 0.71447 0.32278 0.0
H185 H 0.40407 0.64516 0.33831 0.0
C186 C 0.47056 0.82001 0.48948 0.0
N187 N 0.43624 0.76611 0.47661 0.0
N188 N 0.41198 0.75919 0.44194 0.0
C189 C 0.42881 0.80969 0.43211 0.0
C190 C 0.46642 0.84986 0.46214 0.0
C191 C 0.49675 0.84037 0.52902 0.0
H192 H 0.45407 0.82191 0.54454 0.0
H193 H 0.52753 0.82639 0.53967 0.0
H194 H 0.52787 0.88685 0.53337 0.0
O195 O 0.3013 0.67167 0.50281 0.0
O196 O 0.26311 0.64389 0.44367 0.0
H197 H 0.34529 0.79265 0.39542 0.0
H198 H 0.42209 0.86219 0.39437 0.0
C199 C 0.40036 0.81731 0.3969 0.0
H200 H 0.41044 0.80084 0.37387 0.0
H201 H 0.24043 0.68003 0.37126 0.0
O202 O 0.44048 0.72399 0.55443 0.0
C203 C 0.25291 0.6455 0.47657 0.0
C204 C 0.2376 0.08402 0.16754 0.0
C205 C 0.22507 0.09854 0.1999 0.0
C206 C 0.30243 0.11437 0.15825 0.0
C207 C 0.35647 0.16161 0.18133 0.0
C208 C 0.34403 0.17712 0.21381 0.0
C209 C 0.27875 0.14485 0.223 0.0
C210 C 0.31313 0.09528 0.12385 0.0
C211 C 0.39958 0.22739 0.23918 0.0
C212 C 0.53412 0.21011 0.17568 0.0
C213 C 0.55614 0.2529 0.15212 0.0
C214 C 0.46927 0.17981 0.18511 0.0
C215 C 0.42584 0.19377 0.17164 0.0
C216 C 0.44817 0.23737 0.14804 0.0
C217 C 0.5126 0.26576 0.1381 0.0
C218 C 0.44708 0.13249 0.20923 0.0
C219 C 0.40453 0.25494 0.13403 0.0
H220 H 0.19663 0.048 0.1496 0.0
H221 H 0.26958 0.15646 0.24797 0.0
H222 H 0.33418 0.12921 0.10521 0.0
H223 H 0.34989 0.08604 0.13062 0.0
H224 H 0.26604 0.05718 0.10912 0.0
H225 H 0.37999 0.24051 0.25878 0.0
H226 H 0.43046 0.21666 0.25504 0.0
H227 H 0.43255 0.26349 0.22362 0.0
H228 H 0.56782 0.20028 0.18675 0.0
H229 H 0.52995 0.29961 0.1205 0.0
H230 H 0.40728 0.09198 0.19318 0.0
H231 H 0.42534 0.13678 0.23213 0.0
H232 H 0.48884 0.13074 0.22057 0.0
H233 H 0.35744 0.21913 0.11776 0.0
H234 H 0.42978 0.29059 0.11679 0.0
H235 H 0.3906 0.2674 0.15734 0.0
C236 C 0.96871 0.14525 0.16938 0.0
C237 C 0.93989 0.11533 0.19925 0.0
C238 C 0.94997 0.17725 0.1525 0.0
C239 C 0.90272 0.18119 0.16652 0.0
C240 C 0.87622 0.15361 0.19803 0.0
C241 C 0.89466 0.12051 0.21383 0.0
C242 C 0.97909 0.20529 0.1189 0.0
C243 C 0.82727 0.15811 0.21456 0.0
C244 C 0.89758 0.30436 0.14679 0.0
C245 C 0.83699 0.27883 0.12301 0.0
C246 C 0.92052 0.27356 0.16019 0.0
C247 C 0.88276 0.21566 0.14898 0.0
C248 C 0.82466 0.19069 0.12235 0.0
C249 C 0.802 0.2225 0.10988 0.0
C250 C 0.98228 0.30212 0.18866 0.0
C251 C 0.7841 0.12949 0.1088 0.0
H252 H 1.00408 0.14157 0.15815 0.0
H253 H 0.87197 0.09714 0.23672 0.0
H254 H 0.93824 0.18924 0.0956 0.0
H255 H 1.00526 0.25121 0.12336 0.0
H256 H 1.01496 0.19784 0.11129 0.0
H257 H 0.81339 0.13618 0.23983 0.0
H258 H 0.84905 0.2029 0.22108 0.0
H259 H 0.78111 0.13973 0.19461 0.0
H260 H 0.92433 0.34778 0.15739 0.0
H261 H 0.75448 0.20222 0.09217 0.0
H262 H 1.01769 0.29417 0.18115 0.0
H263 H 0.96786 0.28455 0.21515 0.0
H264 H 1.00869 0.34822 0.19244 0.0
H265 H 0.81722 0.11906 0.101 0.0
H266 H 0.74563 0.11819 0.085 0.0
H267 H 0.75854 0.10324 0.13098 0.0
C268 C 0.83481 0.59622 0.14346 0.0
C269 C 0.86771 0.5725 0.155 0.0
C270 C 0.85897 0.65019 0.15799 0.0
C271 C 0.91608 0.68025 0.18547 0.0
C272 C 0.95031 0.65688 0.19632 0.0
C273 C 0.92682 0.60422 0.18023 0.0
C274 C 0.82282 0.67471 0.14437 0.0
C275 C 1.01061 0.68668 0.2258 0.0
C276 C 1.01611 0.83875 0.19862 0.0
C277 C 0.98824 0.84685 0.22636 0.0
C278 C 0.99321 0.7851 0.18529 0.0
C279 C 0.94289 0.7377 0.20113 0.0
C280 C 0.91826 0.74564 0.23129 0.0
C281 C 0.94044 0.80027 0.24323 0.0
C282 C 0.01978 0.77916 0.15253 0.0
C283 C 0.86641 0.69624 0.24984 0.0
H284 H 0.78892 0.57183 0.12418 0.0
H285 H 0.9529 0.58628 0.18892 0.0
H286 H 0.80176 0.68069 0.16695 0.0
H287 H 0.85843 0.71663 0.13481 0.0
H288 H 0.78148 0.64746 0.12168 0.0
H289 H 0.02937 0.66142 0.23251 0.0
H290 H 0.05171 0.72733 0.21713 0.0
H291 H 0.99769 0.6961 0.25093 0.0
H292 H 0.05277 0.87471 0.18527 0.0
H293 H 0.91783 0.80606 0.26415 0.0
H294 H 0.97832 0.7553 0.12938 0.0
H295 H 0.04033 0.75518 0.15859 0.0
H296 H 0.05958 0.82042 0.14372 0.0
H297 H 0.81813 0.67105 0.23117 0.0
H298 H 0.85841 0.70962 0.27536 0.0
H299 H 0.88166 0.66851 0.25636 0.0
C300 C 0.25566 0.3092 0.80541 0.0
C301 C 0.18771 0.26389 0.7979 0.0
C302 C 0.2764 0.36165 0.82056 0.0
C303 C 0.22797 0.36907 0.82842 0.0
C304 C 0.15905 0.3238 0.81965 0.0
C305 C 0.13977 0.27169 0.8046 0.0
C306 C 0.35029 0.40877 0.82898 0.0
C307 C 0.10572 0.33005 0.82696 0.0
C308 C 0.28582 0.49642 0.89317 0.0
C309 C 0.295 0.53514 0.86822 0.0
C310 C 0.2633 0.44175 0.8808 0.0
C311 C 0.24945 0.42557 0.84275 0.0
C312 C 0.25784 0.46426 0.81773 0.0
C313 C 0.28035 0.51787 0.83067 0.0
C314 C 0.25503 0.40148 0.90834 0.0
C315 C 0.2439 0.44945 0.77698 0.0
H316 H 0.29272 0.30261 0.80122 0.0
H317 H 0.08731 0.23615 0.79983 0.0
H318 H 0.3623 0.4451 0.81371 0.0
H319 H 0.36414 0.42325 0.85843 0.0
H320 H 0.38159 0.39596 0.82181 0.0
H321 H 0.05442 0.29089 0.8187 0.0
H322 H 0.11227 0.3417 0.85643 0.0
H323 H 0.11065 0.3644 0.81197 0.0
H324 H 0.29681 0.50889 0.92212 0.0
H325 H 0.28677 0.54654 0.81071 0.0
H326 H 0.28876 0.38963 0.90498 0.0
H327 H 0.20306 0.36235 0.90359 0.0
H328 H 0.26631 0.41966 0.93681 0.0
H329 H 0.27766 0.43976 0.76916 0.0
H330 H 0.25102 0.48393 0.7611 0.0
H331 H 0.1918 0.41137 0.76896 0.0
C332 C 0.60449 0.7943 0.89229 0.0
C333 C 0.56071 0.80824 0.88176 0.0
C334 C 0.66952 0.8263 0.88272 0.0
C335 C 0.69139 0.87377 0.86275 0.0
C336 C 0.64831 0.88953 0.85392 0.0
C337 C 0.58338 0.85618 0.86306 0.0
C338 C 0.71343 0.80755 0.89223 0.0
C339 C 0.6699 0.94055 0.83363 0.0
C340 C 0.87774 0.98299 0.86026 0.0
C341 C 0.88473 0.97058 0.82529 0.0
C342 C 0.81552 0.95182 0.8728 0.0
C343 C 0.7584 0.90631 0.85012 0.0
C344 C 0.76492 0.89335 0.8148 0.0
C345 C 0.82783 0.9259 0.80269 0.0
C346 C 0.81096 0.96781 0.91036 0.0
C347 C 0.70549 0.84462 0.78994 0.0
H348 H 0.58651 0.75651 0.90597 0.0
H349 H 0.54928 0.86666 0.85457 0.0
H350 H 0.72174 0.79426 0.86682 0.0
H351 H 0.76321 0.84281 0.90661 0.0
H352 H 0.69092 0.77198 0.90967 0.0
H353 H 0.63256 0.9496 0.83139 0.0
H354 H 0.7185 0.97794 0.84761 0.0
H355 H 0.67724 0.93399 0.80574 0.0
H356 H 0.92125 0.01732 0.87809 0.0
H357 H 0.83272 0.91544 0.77588 0.0
H358 H 0.79315 0.93219 0.92748 0.0
H359 H 0.774 0.9772 0.90841 0.0
H360 H 0.85982 1.00496 0.92439 0.0
H361 H 0.68274 0.80542 0.80388 0.0
H362 H 0.71923 0.83849 0.76397 0.0
H363 H 0.66667 0.8516 0.78348 0.0
C364 C 0.14452 0.9258 0.78556 0.0
C365 C 0.10759 0.93503 0.80571 0.0
C366 C 0.1641 0.89191 0.79823 0.0
C367 C 0.14668 0.86738 0.83179 0.0
C368 C 0.10653 0.87451 0.85104 0.0
C369 C 0.08709 0.90758 0.83759 0.0
C370 C 0.20591 0.88435 0.7766 0.0
C371 C 0.08674 0.84958 0.88687 0.0
C372 C 0.15869 0.74809 0.8543 0.0
C373 C 0.22153 0.77664 0.87608 0.0
C374 C 0.13345 0.77691 0.83996 0.0
C375 C 0.17195 0.83581 0.84768 0.0
C376 C 0.23394 0.86438 0.87135 0.0
C377 C 0.2581 0.8344 0.88521 0.0
C378 C 0.06702 0.74466 0.81516 0.0
C379 C 0.27601 0.92698 0.88083 0.0
H380 H 0.16093 0.94722 0.76114 0.0
H381 H 0.0578 0.91401 0.8531 0.0
H382 H 0.25677 0.90554 0.79226 0.0
H383 H 0.18372 0.83914 0.77205 0.0
H384 H 0.21053 0.90197 0.74977 0.0
H385 H 0.05326 0.85743 0.89775 0.0
H386 H 0.06099 0.80362 0.88359 0.0
H387 H 0.13221 0.86789 0.90738 0.0
H388 H 0.13112 0.70354 0.84664 0.0
H389 H 0.30736 0.85664 0.90134 0.0
H390 H 0.07464 0.75931 0.78746 0.0
H391 H 0.03309 0.75257 0.8252 0.0
H392 H 0.04201 0.69871 0.81307 0.0
H393 H 0.29143 0.94899 0.85573 0.0
H394 H 0.32164 0.94257 0.90065 0.0
H395 H 0.2463 0.93831 0.89254 0.0
C396 C 0.8739 0.48571 0.51309 0.0
C397 C 0.85593 0.44451 0.53756 0.0
C398 C 0.93902 0.52028 0.5043 0.0
C399 C 0.98736 0.51257 0.51949 0.0
C400 C 0.96992 0.47163 0.54481 0.0
C401 C 0.90452 0.43851 0.55393 0.0
C402 C 0.95561 0.56439 0.47813 0.0
C403 C 0.01953 0.46132 0.56112 0.0
C404 C 0.13099 0.56326 0.4652 0.0
C405 C 0.18375 0.61336 0.48569 0.0
C406 C 0.06734 0.52946 0.47633 0.0
C407 C 0.05554 0.54683 0.5082 0.0
C408 C 0.10828 0.59811 0.52844 0.0
C409 C 0.17173 0.63027 0.51723 0.0
C410 C 1.01295 0.47463 0.45429 0.0
C411 C 0.09768 0.61918 0.56192 0.0
H412 H 0.83642 0.4905 0.50041 0.0
H413 H 0.89051 0.40617 0.57244 0.0
H414 H 1.00073 0.60599 0.49032 0.0
H415 H 0.96722 0.55419 0.45279 0.0
H416 H 0.91383 0.56768 0.47073 0.0
H417 H 0.99891 0.42901 0.58097 0.0
H418 H 0.03423 0.44727 0.53909 0.0
H419 H 0.06567 0.50079 0.57509 0.0
H420 H 0.1401 0.54945 0.44116 0.0
H421 H 0.21222 0.66894 0.53325 0.0
H422 H 0.97033 0.47534 0.44332 0.0
H423 H 0.99372 0.43956 0.47204 0.0
H424 H 0.03079 0.46591 0.43115 0.0
H425 H 0.05659 0.62334 0.5548 0.0
H426 H 0.14342 0.66046 0.57421 0.0
H427 H 0.08243 0.58852 0.58274 0.0
C428 C 0.56022 0.48406 0.55222 0.0
C429 C 0.52727 0.42701 0.54209 0.0
C430 C 0.53443 0.51249 0.53742 0.0
C431 C 0.47519 0.48331 0.51139 0.0
C432 C 0.44012 0.42499 0.5027 0.0
C433 C 0.4661 0.39752 0.51854 0.0
C434 C 0.57199 0.57425 0.54849 0.0
C435 C 0.37721 0.39216 0.47503 0.0
C436 C 0.38038 0.54614 0.4954 0.0
C437 C 0.40524 0.57672 0.46505 0.0
C438 C 0.40209 0.51529 0.51032 0.0
C439 C 0.44878 0.51331 0.49402 0.0
C440 C 0.47066 0.54072 0.46175 0.0
C441 C 0.44902 0.57266 0.44772 0.0
C442 C 0.37769 0.48735 0.54478 0.0
C443 C 0.51926 0.53838 0.44308 0.0
H444 H 0.6081 0.50713 0.56985 0.0
H445 H 0.44119 0.35352 0.51025 0.0
H446 H 0.59131 0.59854 0.52459 0.0
H447 H 0.53785 0.58242 0.55792 0.0
H448 H 0.61478 0.59002 0.57057 0.0
H449 H 0.35475 0.34669 0.47216 0.0
H450 H 0.33945 0.39706 0.48279 0.0
H451 H 0.38886 0.40885 0.44805 0.0
H452 H 0.34648 0.54914 0.50897 0.0
H453 H 0.4692 0.59681 0.4247 0.0
H454 H 0.42082 0.50493 0.56686 0.0
H455 H 0.35328 0.44172 0.54036 0.0
H456 H 0.34154 0.49317 0.55417 0.0
H457 H 0.56837 0.56129 0.46097 0.0
H458 H 0.52668 0.55731 0.41662 0.0
H459 H 0.50122 0.49423 0.43823 0.0
C460 C 0.53437 0.95428 0.46052 0.0
C461 C 0.47741 0.90424 0.4694 0.0
C462 C 0.55313 1.00675 0.47458 0.0
C463 C 0.51452 1.0091 0.49853 0.0
C464 C 0.456 0.95841 0.50678 0.0
C465 C 0.43804 0.90675 0.49198 0.0
C466 C 0.61514 0.05971 0.46447 0.0
C467 C 0.41339 0.95865 0.53216 0.0
C468 C 0.599 0.14647 0.55892 0.0
C469 C 0.57618 0.17318 0.53844 0.0
C470 C 0.57808 0.0923 0.54684 0.0
C471 C 0.5336 0.06453 0.51358 0.0
C472 C 0.5081 0.0904 0.49398 0.0
C473 C 0.52929 0.14388 0.50671 0.0
C474 C 0.60562 0.06572 0.56885 0.0
C475 C 0.46052 0.0627 0.45857 0.0
H476 H 0.56557 0.95231 0.44373 0.0
H477 H 0.39468 0.86792 0.49943 0.0
H478 H 0.60245 0.08684 0.45198 0.0
H479 H 0.65206 0.08382 0.48937 0.0
H480 H 0.63897 0.05088 0.44505 0.0
H481 H 0.36933 0.91562 0.53574 0.0
H482 H 0.44379 0.97941 0.55928 0.0
H483 H 0.39548 0.98316 0.52154 0.0
H484 H 0.63556 0.16888 0.58323 0.0
H485 H 0.51077 0.16389 0.49085 0.0
H486 H 0.63818 0.06226 0.55314 0.0
H487 H 0.56425 0.02254 0.5741 0.0
H488 H 0.63528 0.09038 0.59535 0.0
H489 H 0.48543 0.05714 0.43809 0.0
H490 H 0.44353 0.08762 0.44724 0.0
H491 H 0.41592 0.02037 0.46266 0.0
C492 C 0.98382 0.03666 0.57715 0.0
C493 C 0.02567 0.03312 0.60403 0.0
C494 C 0.99158 0.03871 0.54004 0.0
C495 C 0.04284 0.03752 0.52891 0.0
C496 C 0.08536 0.03393 0.55572 0.0
C497 C 0.07596 0.03128 0.59273 0.0
C498 C 0.94464 0.04215 0.51267 0.0
C499 C 0.14085 0.03271 0.54528 0.0
C500 C 0.0285 0.99679 0.42789 0.0
C501 C 0.06942 0.04937 0.41417 0.0
C502 C 0.01934 0.99223 0.46496 0.0
C503 C 0.05261 0.04132 0.48939 0.0
C504 C 0.09438 0.09439 0.4758 0.0
C505 C 0.10211 0.09772 0.43866 0.0
C506 C 0.97418 0.93472 0.47806 0.0
C507 C 0.13122 0.14796 0.50058 0.0
H508 H 0.94448 0.03788 0.58511 0.0
H509 H 0.10724 0.02643 0.61243 0.0
H510 H 0.97345 0.08138 0.49892 0.0
H511 H 0.91881 1.00654 0.49126 0.0
H512 H 0.90628 0.04134 0.52545 0.0
H513 H 0.17035 0.0307 0.56923 0.0
H514 H 0.11961 0.99582 0.52559 0.0
H515 H 0.17518 0.07074 0.53152 0.0
H516 H 1.00476 0.95891 0.41007 0.0
H517 H 0.13417 0.13871 0.42878 0.0
H518 H 0.93384 0.93133 0.49032 0.0
H519 H 1.00309 0.92818 0.49965 0.0
H520 H 0.95093 0.90064 0.45572 0.0
H521 H 0.0949 0.15115 0.51244 0.0
H522 H 0.16292 0.18594 0.48609 0.0
H523 H 0.16352 0.1475 0.5236 0.0
C524 C 0.67964 0.38963 0.91702 0.0
C525 C 0.6969 0.36046 0.93934 0.0
C526 C 0.68015 0.38853 0.87906 0.0
C527 C 0.6979 0.3571 0.86234 0.0
C528 C 0.71498 0.32719 0.88459 0.0
C529 C 0.71409 0.32906 0.92264 0.0
C530 C 0.66186 0.4214 0.85682 0.0
C531 C 0.73385 0.29284 0.86811 0.0
C532 C 0.64501 0.32198 0.75844 0.0
C533 C 0.70349 0.36462 0.74511 0.0
C534 C 0.64296 0.31782 0.79636 0.0
C535 C 0.70057 0.35735 0.82185 0.0
C536 C 0.76002 0.3996 0.80847 0.0
C537 C 0.76065 0.40276 0.77059 0.0
C538 C 0.57832 0.27217 0.80916 0.0
C539 C 0.82278 0.44272 0.83424 0.0
H540 H 0.66587 0.41382 0.92935 0.0
H541 H 0.72523 0.30467 0.93904 0.0
H542 H 0.7046 0.45339 0.84322 0.0
H543 H 0.61915 0.39299 0.83507 0.0
H544 H 0.64808 0.44296 0.87369 0.0
H545 H 0.74565 0.27181 0.88887 0.0
H546 H 0.69224 0.26038 0.84724 0.0
H547 H 0.77805 0.32013 0.85411 0.0
H548 H 0.59995 0.2931 0.7394 0.0
H549 H 0.80627 0.43593 0.76086 0.0
H550 H 0.55836 0.29122 0.82303 0.0
H551 H 0.58723 0.24886 0.82934 0.0
H552 H 0.53975 0.24193 0.7863 0.0
H553 H 0.81386 0.46873 0.85018 0.0
H554 H 0.86599 0.47093 0.81969 0.0
H555 H 0.83617 0.42161 0.85398 0.0
C556 C 0.3543 0.6583 0.2541 0.0
C557 C 0.33078 0.68633 0.26833 0.0
C558 C 0.36246 0.65912 0.21699 0.0
C559 C 0.34709 0.68888 0.1934 0.0
C560 C 0.32335 0.71719 0.20771 0.0
C561 C 0.31506 0.7152 0.2447 0.0
C562 C 0.38702 0.62772 0.20292 0.0
C563 C 0.30708 0.7501 0.18396 0.0
C564 C 0.42776 0.74263 0.10723 0.0
C565 C 0.37515 0.70557 0.07922 0.0
C566 C 0.41989 0.73663 0.14427 0.0
C567 C 0.35772 0.69226 0.1541 0.0
C568 C 0.3048 0.65367 0.12613 0.0
C569 C 0.31393 0.66098 0.08912 0.0
C570 C 0.47771 0.77908 0.17287 0.0
C571 C 0.2377 0.60563 0.13523 0.0
H572 H 0.3647 0.63443 0.27165 0.0
H573 H 0.29666 0.73687 0.25528 0.0
H574 H 0.34979 0.59611 0.18027 0.0
H575 H 0.43425 0.65718 0.19178 0.0
H576 H 0.39605 0.60602 0.22448 0.0
H577 H 0.28881 0.76956 0.19911 0.0
H578 H 0.35226 0.78378 0.1727 0.0
H579 H 0.26825 0.72224 0.16052 0.0
H580 H 0.4754 0.77727 0.10017 0.0
H581 H 0.27212 0.63294 0.06811 0.0
H582 H 0.48885 0.7575 0.19342 0.0
H583 H 0.46407 0.80276 0.18745 0.0
H584 H 0.52382 0.8095 0.16098 0.0
H585 H 0.24418 0.5819 0.15618 0.0
H586 H 0.20387 0.57621 0.1109 0.0
H587 H 0.21322 0.62229 0.14688 0.0
C588 C 0.95405 0.87427 0.05724 0.0
C589 C 0.93835 0.90797 0.0718 0.0
C590 C 0.97953 0.88535 0.02417 0.0
C591 C 0.98861 0.93065 1.00581 0.0
C592 C 0.96253 0.95841 0.01756 0.0
C593 C 0.93788 0.94685 0.05075 0.0
C594 C 1.00407 0.85327 0.01134 0.0
C595 C 0.96858 1.00532 0.99768 0.0
C596 C 0.14839 0.03492 0.96885 0.0
C597 C 0.12465 0.02573 0.93171 0.0
C598 C 0.10513 1.00092 0.9933 0.0
C599 C 0.03706 0.95712 0.9798 0.0
C600 C 1.01461 0.94513 0.94189 0.0
C601 C 0.05882 0.98009 0.91823 0.0
C602 C 0.131 0.01474 0.03369 0.0
C603 C 0.94302 0.89864 0.92622 0.0
H604 H 0.95366 0.84366 0.07343 0.0
H605 H 0.92432 0.972 0.06188 0.0
H606 H 0.99408 0.84579 0.98116 0.0
H607 H 0.05899 0.8783 0.01982 0.0
H608 H 0.98017 0.8123 0.02327 0.0
H609 H 0.93797 0.01718 1.00756 0.0
H610 H 0.02169 0.04287 1.00188 0.0
H611 H 0.95267 0.99301 0.96796 0.0
H612 H 0.19945 0.07046 0.97886 0.0
H613 H 0.04088 0.97352 0.88925 0.0
H614 H 0.11774 0.97643 0.04676 0.0
H615 H 0.10724 0.03109 0.04665 0.0
H616 H 0.18617 0.04677 0.03939 0.0
H617 H 0.91996 0.86312 0.94362 0.0
H618 H 0.93979 0.88261 0.89836 0.0
H619 H 0.91319 0.91526 0.92408 0.0
C620 C 0.74492 0.31632 0.30379 0.0
C621 C 0.75311 0.34136 0.27105 0.0
C622 C 0.68849 0.29657 0.32028 0.0
C623 C 0.63804 0.30069 0.30292 0.0
C624 C 0.64269 0.32025 0.26789 0.0
C625 C 0.7013 0.34194 0.2528 0.0
C626 C 0.68619 0.27595 0.35777 0.0
C627 C 0.58688 0.31976 0.24696 0.0
C628 C 0.52106 0.24132 0.3705 0.0
C629 C 0.55346 0.29029 0.39401 0.0
C630 C 0.53875 0.24447 0.33558 0.0
C631 C 0.59106 0.29723 0.32542 0.0
C632 C 0.61325 0.34695 0.34624 0.0
C633 C 0.59323 0.34267 0.38032 0.0
C634 C 0.50854 0.19092 0.31217 0.0
C635 C 0.66746 0.40457 0.33606 0.0
H636 H 0.78461 0.31507 0.31765 0.0
H637 H 0.7081 0.36249 0.22802 0.0
H638 H 0.68485 0.30284 0.37788 0.0
H639 H 0.64037 0.23247 0.3575 0.0
H640 H 0.73008 0.27618 0.36734 0.0
H641 H 0.60109 0.34174 0.22173 0.0
H642 H 0.54327 0.27557 0.23923 0.0
H643 H 0.57035 0.33882 0.26395 0.0
H644 H 0.48799 0.20058 0.38053 0.0
H645 H 0.61565 0.38058 0.39808 0.0
H646 H 0.52874 0.16858 0.32398 0.0
H647 H 0.51928 0.19894 0.28378 0.0
H648 H 0.45349 0.16268 0.31177 0.0
H649 H 0.71584 0.41037 0.33971 0.0
H650 H 0.67375 0.43859 0.35321 0.0
H651 H 0.65617 0.40932 0.30713 0.0
C652 C 0.49206 0.73254 0.63034 0.0
C653 C 0.48249 0.69715 0.60151 0.0
C654 C 0.46346 0.71031 0.66173 0.0
C655 C 0.42288 0.65128 0.6633 0.0
C656 C 0.42094 0.61645 0.63637 0.0
C657 C 0.45177 0.64016 0.60567 0.0
C658 C 0.46952 0.74929 0.6909 0.0
C659 C 0.37969 0.55358 0.63728 0.0
C660 C 0.35762 0.61945 0.75207 0.0
C661 C 0.30409 0.62274 0.74358 0.0
C662 C 0.39274 0.62131 0.72495 0.0
C663 C 0.37366 0.62703 0.6889 0.0
C664 C 0.31393 0.6225 0.67959 0.0
C665 C 0.27999 0.62112 0.70741 0.0
C666 C 0.45486 0.62439 0.73573 0.0
C667 C 0.29043 0.62583 0.64093 0.0
H668 H 0.51604 0.77661 0.6268 0.0
H669 H 0.44428 0.61283 0.58305 0.0
H670 H 0.42192 0.74466 0.68868 0.0
H671 H 0.47891 0.73861 0.71844 0.0
H672 H 0.51056 0.79394 0.68826 0.0
H673 H 0.40476 0.53719 0.62599 0.0
H674 H 0.37061 0.5404 0.66521 0.0
H675 H 0.33056 0.53399 0.61988 0.0
H676 H 0.37599 0.62082 0.78036 0.0
H677 H 0.23835 0.62347 0.70119 0.0
H678 H 0.49925 0.66907 0.73971 0.0
H679 H 0.46177 0.60313 0.71415 0.0
H680 H 0.453 0.6051 0.76167 0.0
H681 H 0.32321 0.66982 0.63377 0.0
H682 H 0.23809 0.61227 0.63732 0.0
H683 H 0.29365 0.59928 0.62157 0.0
loop_
_geom_bond_atom_site_label_1
_geom_bond_atom_site_label_2
_geom_bond_distance
_geom_bond_site_symmetry_2
_ccdc_geom_bond_type
Co0 O3 1.970 1_455 S
Co0 N17 1.989 1_465 S
Co0 O25 1.967 1_565 S
Co0 O32 1.920 1_565 S
Co1 O4 1.966 1_445 S
Co1 N10 2.022 . S
Co1 N18 1.993 1_455 S
Co1 O26 1.941 . S
C2 O3 1.258 . S
C2 O4 1.263 . S
O3 Co0 1.970 1_655 S
O3 C2 1.258 . S
O4 Co1 1.966 1_665 S
O4 C2 1.263 . S
C5 O6 1.235 . S
C5 O32 1.289 1_665 S
O6 C5 1.235 . S
C7 C9 1.400 1_565 S
C7 N10 1.351 1_665 S
C7 C12 1.501 . S
C8 C9 1.387 1_455 S
C8 N11 1.341 . S
C9 C7 1.400 1_545 S
C9 C8 1.387 1_655 S
N10 Co1 2.022 . S
N10 C7 1.351 1_445 S
N10 N11 1.365 . S
N11 C8 1.341 . S
N11 N10 1.365 . S
N11 H31 0.862 . S
C12 C7 1.501 . S
C12 H13 0.961 . S
C12 H14 0.961 . S
C12 H15 0.960 . S
H13 C12 0.961 . S
H14 C12 0.961 . S
H15 C12 0.960 . S
C16 N17 1.342 . S
C16 C20 1.401 . S
C16 C21 1.499 . S
N17 Co0 1.989 1_645 S
N17 C16 1.342 . S
N17 N18 1.388 . S
N18 Co1 1.993 1_655 S
N18 N17 1.388 . S
N18 C19 1.346 . S
C19 N18 1.346 . S
C19 C20 1.396 . S
C19 C29 1.510 . S
C20 C16 1.401 . S
C20 C19 1.396 . S
C21 C16 1.499 . S
C21 H22 0.959 . S
C21 H23 0.960 . S
C21 H24 0.961 . S
H22 C21 0.959 . S
H23 C21 0.960 . S
H24 C21 0.961 . S
O25 Co0 1.967 1_545 S
O25 C33 1.258 . S
O26 Co1 1.941 . S
O26 C33 1.266 . S
H27 C29 0.959 . S
H28 C29 0.961 . S
C29 C19 1.510 . S
C29 H27 0.959 . S
C29 H28 0.961 . S
C29 H30 0.960 . S
H30 C29 0.960 . S
H31 N11 0.862 . S
O32 Co0 1.920 1_545 S
O32 C5 1.289 1_445 S
C33 O25 1.258 . S
C33 O26 1.266 . S
Co34 O37 1.970 1_545 S
Co34 N51 1.989 . S
Co34 O59 1.967 1_445 S
Co34 O66 1.920 . S
Co35 O38 1.954 1_655 S
Co35 N44 2.021 . S
Co35 N52 1.994 1_665 S
Co35 O60 1.953 . S
C36 O37 1.258 . S
C36 O38 1.263 . S
O37 Co34 1.970 1_565 S
O37 C36 1.258 . S
O38 Co35 1.954 1_455 S
O38 C36 1.263 . S
C39 O40 1.235 . S
C39 O66 1.289 . S
O40 C39 1.235 . S
C41 C43 1.400 . S
C41 N44 1.351 1_445 S
C41 C46 1.501 1_545 S
C42 C43 1.387 1_655 S
C42 N45 1.341 . S
C43 C41 1.400 . S
C43 C42 1.387 1_455 S
N44 Co35 2.021 . S
N44 C41 1.351 1_665 S
N44 N45 1.365 1_565 S
N45 C42 1.341 . S
N45 N44 1.365 1_545 S
N45 H65 0.862 . S
C46 C41 1.501 1_565 S
C46 H47 0.961 . S
C46 H48 0.961 1_565 S
C46 H49 0.960 . S
H47 C46 0.961 . S
H48 C46 0.961 1_545 S
H49 C46 0.960 . S
C50 N51 1.342 . S
C50 C54 1.401 . S
C50 C55 1.499 . S
N51 Co34 1.989 . S
N51 C50 1.342 . S
N51 N52 1.388 . S
N52 Co35 1.994 1_445 S
N52 N51 1.388 . S
N52 C53 1.346 . S
C53 N52 1.346 . S
C53 C54 1.396 . S
C53 C63 1.510 . S
C54 C50 1.401 . S
C54 C53 1.396 . S
C55 C50 1.499 . S
C55 H56 0.959 . S
C55 H57 0.960 . S
C55 H58 0.961 . S
H56 C55 0.959 . S
H57 C55 0.960 . S
H58 C55 0.961 . S
O59 Co34 1.967 1_665 S
O59 C67 1.258 . S
O60 Co35 1.953 . S
O60 C67 1.266 . S
H61 C63 0.959 . S
H62 C63 0.961 . S
C63 C53 1.510 . S
C63 H61 0.959 . S
C63 H62 0.961 . S
C63 H64 0.960 . S
H64 C63 0.960 . S
H65 N45 0.862 . S
O66 Co34 1.920 . S
O66 C39 1.289 . S
C67 O59 1.258 . S
C67 O60 1.266 . S
Co68 O71 1.970 . S
Co68 N85 1.989 . S
Co68 O93 1.967 . S
Co68 O100 1.920 . S
Co69 O72 1.966 . S
Co69 N78 2.022 . S
Co69 N86 1.993 . S
Co69 O94 1.941 . S
C70 O71 1.258 . S
C70 O72 1.263 . S
O71 Co68 1.970 . S
O71 C70 1.258 . S
O72 Co69 1.966 . S
O72 C70 1.263 . S
C73 O74 1.235 . S
C73 O100 1.289 . S
O74 C73 1.235 . S
C75 C77 1.400 . S
C75 N78 1.351 . S
C75 C80 1.501 . S
C76 C77 1.387 . S
C76 N79 1.341 . S
C77 C75 1.400 . S
C77 C76 1.387 . S
N78 Co69 2.022 . S
N78 C75 1.351 . S
N78 N79 1.365 . S
N79 C76 1.341 . S
N79 N78 1.365 . S
N79 H99 0.862 . S
C80 C75 1.501 . S
C80 H81 0.961 . S
C80 H82 0.961 . S
C80 H83 0.960 . S
H81 C80 0.961 . S
H82 C80 0.961 . S
H83 C80 0.960 . S
C84 N85 1.342 . S
C84 C88 1.401 . S
C84 C89 1.499 . S
N85 Co68 1.989 . S
N85 C84 1.342 . S
N85 N86 1.388 . S
N86 Co69 1.993 . S
N86 N85 1.388 . S
N86 C87 1.346 . S
C87 N86 1.346 . S
C87 C88 1.396 . S
C87 C97 1.510 . S
C88 C84 1.401 . S
C88 C87 1.396 . S
C89 C84 1.499 . S
C89 H90 0.959 . S
C89 H91 0.960 . S
C89 H92 0.961 . S
H90 C89 0.959 . S
H91 C89 0.960 . S
H92 C89 0.961 . S
O93 Co68 1.967 . S
O93 C101 1.258 . S
O94 Co69 1.941 . S
O94 C101 1.266 . S
H95 C97 0.959 . S
H96 C97 0.961 . S
C97 C87 1.510 . S
C97 H95 0.959 . S
C97 H96 0.961 . S
C97 H98 0.960 . S
H98 C97 0.960 . S
H99 N79 0.862 . S
O100 Co68 1.920 . S
O100 C73 1.289 . S
C101 O93 1.258 . S
C101 O94 1.266 . S
Co102 O105 1.970 . S
Co102 N119 1.989 . S
Co102 O127 1.967 . S
Co102 O134 1.920 . S
Co103 O106 1.966 . S
Co103 N112 2.022 . S
Co103 N120 1.993 . S
Co103 O128 1.941 . S
C104 O105 1.258 . S
C104 O106 1.263 . S
O105 Co102 1.970 . S
O105 C104 1.258 . S
O106 Co103 1.966 . S
O106 C104 1.263 . S
C107 O108 1.235 . S
C107 O134 1.289 . S
O108 C107 1.235 . S
C109 C111 1.400 1_554 S
C109 N112 1.351 . S
C109 C114 1.501 . S
C110 C111 1.387 . S
C110 N113 1.341 1_556 S
C111 C109 1.400 1_556 S
C111 C110 1.387 . S
N112 Co103 2.022 . S
N112 C109 1.351 . S
N112 N113 1.365 . S
N113 C110 1.341 1_554 S
N113 N112 1.365 . S
N113 H133 0.862 . S
C114 C109 1.501 . S
C114 H115 0.961 . S
C114 H116 0.961 . S
C114 H117 0.960 . S
H115 C114 0.961 . S
H116 C114 0.961 . S
H117 C114 0.960 . S
C118 N119 1.342 . S
C118 C122 1.401 . S
C118 C123 1.499 . S
N119 Co102 1.989 . S
N119 C118 1.342 . S
N119 N120 1.388 . S
N120 Co103 1.993 . S
N120 N119 1.388 . S
N120 C121 1.346 . S
C121 N120 1.346 . S
C121 C122 1.396 . S
C121 C131 1.510 . S
C122 C118 1.401 . S
C122 C121 1.396 . S
C123 C118 1.499 . S
C123 H124 0.959 . S
C123 H125 0.960 . S
C123 H126 0.961 . S
H124 C123 0.959 . S
H125 C123 0.960 . S
H126 C123 0.961 . S
O127 Co102 1.967 . S
O127 C135 1.258 . S
O128 Co103 1.941 . S
O128 C135 1.266 . S
H129 C131 0.959 . S
H130 C131 0.961 . S
C131 C121 1.510 . S
C131 H129 0.959 . S
C131 H130 0.961 . S
C131 H132 0.960 . S
H132 C131 0.960 . S
H133 N113 0.862 . S
O134 Co102 1.920 . S
O134 C107 1.289 . S
C135 O127 1.258 . S
C135 O128 1.266 . S
Co136 O139 1.970 . S
Co136 N153 1.989 . S
Co136 O161 1.967 . S
Co136 O168 1.920 . S
Co137 O140 1.966 . S
Co137 N146 2.022 . S
Co137 N154 1.993 . S
Co137 O162 1.941 . S
C138 O139 1.258 . S
C138 O140 1.263 . S
O139 Co136 1.970 . S
O139 C138 1.258 . S
O140 Co137 1.966 . S
O140 C138 1.263 . S
C141 O142 1.235 . S
C141 O168 1.289 . S
O142 C141 1.235 . S
C143 C145 1.400 1_556 S
C143 N146 1.351 . S
C143 C148 1.501 . S
C144 C145 1.387 . S
C144 N147 1.341 1_554 S
C145 C143 1.400 1_554 S
C145 C144 1.387 . S
N146 Co137 2.022 . S
N146 C143 1.351 . S
N146 N147 1.365 . S
N147 C144 1.341 1_556 S
N147 N146 1.365 . S
N147 H167 0.862 . S
C148 C143 1.501 . S
C148 H149 0.961 . S
C148 H150 0.961 . S
C148 H151 0.960 . S
H149 C148 0.961 . S
H150 C148 0.961 . S
H151 C148 0.960 . S
C152 N153 1.342 . S
C152 C156 1.401 . S
C152 C157 1.499 . S
N153 Co136 1.989 . S
N153 C152 1.342 . S
N153 N154 1.388 . S
N154 Co137 1.993 . S
N154 N153 1.388 . S
N154 C155 1.346 . S
C155 N154 1.346 . S
C155 C156 1.396 . S
C155 C165 1.510 . S
C156 C152 1.401 . S
C156 C155 1.396 . S
C157 C152 1.499 . S
C157 H158 0.959 . S
C157 H159 0.960 . S
C157 H160 0.961 . S
H158 C157 0.959 . S
H159 C157 0.960 . S
H160 C157 0.961 . S
O161 Co136 1.967 . S
O161 C169 1.258 . S
O162 Co137 1.941 . S
O162 C169 1.266 . S
H163 C165 0.959 . S
H164 C165 0.961 . S
C165 C155 1.510 . S
C165 H163 0.959 . S
C165 H164 0.961 . S
C165 H166 0.960 . S
H166 C165 0.960 . S
H167 N147 0.862 . S
O168 Co136 1.920 . S
O168 C141 1.289 . S
C169 O161 1.258 . S
C169 O162 1.266 . S
Co170 O173 1.970 . S
Co170 N187 1.989 . S
Co170 O195 1.967 . S
Co170 O202 1.920 . S
Co171 O174 1.966 . S
Co171 N180 2.022 . S
Co171 N188 1.993 . S
Co171 O196 1.941 . S
C172 O173 1.258 . S
C172 O174 1.263 . S
O173 Co170 1.970 . S
O173 C172 1.258 . S
O174 Co171 1.966 . S
O174 C172 1.263 . S
C175 O176 1.235 . S
C175 O202 1.289 . S
O176 C175 1.235 . S
C177 C179 1.400 . S
C177 N180 1.351 . S
C177 C182 1.501 . S
C178 C179 1.387 . S
C178 N181 1.341 . S
C179 C177 1.400 . S
C179 C178 1.387 . S
N180 Co171 2.022 . S
N180 C177 1.351 . S
N180 N181 1.365 . S
N181 C178 1.341 . S
N181 N180 1.365 . S
N181 H201 0.862 . S
C182 C177 1.501 . S
C182 H183 0.961 . S
C182 H184 0.961 . S
C182 H185 0.960 . S
H183 C182 0.961 . S
H184 C182 0.961 . S
H185 C182 0.960 . S
C186 N187 1.342 . S
C186 C190 1.401 . S
C186 C191 1.499 . S
N187 Co170 1.989 . S
N187 C186 1.342 . S
N187 N188 1.388 . S
N188 Co171 1.993 . S
N188 N187 1.388 . S
N188 C189 1.346 . S
C189 N188 1.346 . S
C189 C190 1.396 . S
C189 C199 1.510 . S
C190 C186 1.401 . S
C190 C189 1.396 . S
C191 C186 1.499 . S
C191 H192 0.959 . S
C191 H193 0.960 . S
C191 H194 0.961 . S
H192 C191 0.959 . S
H193 C191 0.960 . S
H194 C191 0.961 . S
O195 Co170 1.967 . S
O195 C203 1.258 . S
O196 Co171 1.941 . S
O196 C203 1.266 . S
H197 C199 0.959 . S
H198 C199 0.961 . S
C199 C189 1.510 . S
C199 H197 0.959 . S
C199 H198 0.961 . S
C199 H200 0.960 . S
H200 C199 0.960 . S
H201 N181 0.862 . S
O202 Co170 1.920 . S
O202 C175 1.289 . S
C203 O195 1.258 . S
C203 O196 1.266 . S
C204 C205 1.391 . S
C204 C206 1.394 . S
C204 H220 0.931 . S
C205 C204 1.391 . S
C205 C209 1.376 . S
C206 C204 1.394 . S
C206 C207 1.369 . S
C206 C210 1.531 . S
C207 C206 1.369 . S
C207 C208 1.410 . S
C207 C215 1.503 . S
C208 C207 1.410 . S
C208 C209 1.392 . S
C208 C211 1.511 . S
C209 C205 1.376 . S
C209 C208 1.392 . S
C209 H221 0.929 . S
C210 C206 1.531 . S
C210 H222 0.960 . S
C210 H223 0.962 . S
C210 H224 0.960 . S
C211 C208 1.511 . S
C211 H225 0.961 . S
C211 H226 0.961 . S
C211 H227 0.961 . S
C212 C213 1.370 . S
C212 C214 1.363 . S
C212 H228 0.931 . S
C213 C212 1.370 . S
C213 C217 1.408 . S
C214 C212 1.363 . S
C214 C215 1.370 . S
C214 C218 1.524 . S
C215 C207 1.503 . S
C215 C214 1.370 . S
C215 C216 1.403 . S
C216 C215 1.403 . S
C216 C217 1.404 . S
C216 C219 1.539 . S
C217 C213 1.408 . S
C217 C216 1.404 . S
C217 H229 0.930 . S
C218 C214 1.524 . S
C218 H230 0.956 . S
C218 H231 0.961 . S
C218 H232 0.961 . S
C219 C216 1.539 . S
C219 H233 0.958 . S
C219 H234 0.961 . S
C219 H235 0.960 . S
H220 C204 0.931 . S
H221 C209 0.929 . S
H222 C210 0.960 . S
H223 C210 0.962 . S
H224 C210 0.960 . S
H225 C211 0.961 . S
H226 C211 0.961 . S
H227 C211 0.961 . S
H228 C212 0.931 . S
H229 C217 0.930 . S
H230 C218 0.956 . S
H231 C218 0.961 . S
H232 C218 0.961 . S
H233 C219 0.958 . S
H234 C219 0.961 . S
H235 C219 0.960 . S
C236 C237 1.391 . S
C236 C238 1.394 . S
C236 H252 0.931 . S
C237 C236 1.391 . S
C237 C241 1.376 . S
C238 C236 1.394 . S
C238 C239 1.369 . S
C238 C242 1.531 . S
C239 C238 1.369 . S
C239 C240 1.410 . S
C239 C247 1.503 . S
C240 C239 1.410 . S
C240 C241 1.392 . S
C240 C243 1.511 . S
C241 C237 1.376 . S
C241 C240 1.392 . S
C241 H253 0.929 . S
C242 C238 1.531 . S
C242 H254 0.960 . S
C242 H255 0.962 . S
C242 H256 0.960 . S
C243 C240 1.511 . S
C243 H257 0.961 . S
C243 H258 0.961 . S
C243 H259 0.961 . S
C244 C245 1.370 . S
C244 C246 1.363 . S
C244 H260 0.931 . S
C245 C244 1.370 . S
C245 C249 1.408 . S
C246 C244 1.363 . S
C246 C247 1.370 . S
C246 C250 1.524 . S
C247 C239 1.503 . S
C247 C246 1.370 . S
C247 C248 1.403 . S
C248 C247 1.403 . S
C248 C249 1.404 . S
C248 C251 1.539 . S
C249 C245 1.408 . S
C249 C248 1.404 . S
C249 H261 0.930 . S
C250 C246 1.524 . S
C250 H262 0.956 . S
C250 H263 0.961 . S
C250 H264 0.961 . S
C251 C248 1.539 . S
C251 H265 0.958 . S
C251 H266 0.961 . S
C251 H267 0.960 . S
H252 C236 0.931 . S
H253 C241 0.929 . S
H254 C242 0.960 . S
H255 C242 0.962 . S
H256 C242 0.960 . S
H257 C243 0.961 . S
H258 C243 0.961 . S
H259 C243 0.961 . S
H260 C244 0.931 . S
H261 C249 0.930 . S
H262 C250 0.956 . S
H263 C250 0.961 . S
H264 C250 0.961 . S
H265 C251 0.958 . S
H266 C251 0.961 . S
H267 C251 0.960 . S
C268 C269 1.391 . S
C268 C270 1.394 . S
C268 H284 0.931 . S
C269 C268 1.391 . S
C269 C273 1.376 . S
C270 C268 1.394 . S
C270 C271 1.369 . S
C270 C274 1.531 . S
C271 C270 1.369 . S
C271 C272 1.410 . S
C271 C279 1.503 . S
C272 C271 1.410 . S
C272 C273 1.392 . S
C272 C275 1.511 . S
C273 C269 1.376 . S
C273 C272 1.392 . S
C273 H285 0.929 . S
C274 C270 1.531 . S
C274 H286 0.960 . S
C274 H287 0.962 . S
C274 H288 0.960 . S
C275 C272 1.511 . S
C275 H289 0.961 . S
C275 H290 0.961 . S
C275 H291 0.961 . S
C276 C277 1.370 . S
C276 C278 1.363 . S
C276 H292 0.931 . S
C277 C276 1.370 . S
C277 C281 1.408 . S
C278 C276 1.363 . S
C278 C279 1.370 . S
C278 C282 1.524 . S
C279 C271 1.503 . S
C279 C278 1.370 . S
C279 C280 1.403 . S
C280 C279 1.403 . S
C280 C281 1.404 . S
C280 C283 1.539 . S
C281 C277 1.408 . S
C281 C280 1.404 . S
C281 H293 0.930 . S
C282 C278 1.524 . S
C282 H294 0.956 . S
C282 H295 0.961 . S
C282 H296 0.961 . S
C283 C280 1.539 . S
C283 H297 0.958 . S
C283 H298 0.961 . S
C283 H299 0.960 . S
H284 C268 0.931 . S
H285 C273 0.929 . S
H286 C274 0.960 . S
H287 C274 0.962 . S
H288 C274 0.960 . S
H289 C275 0.961 . S
H290 C275 0.961 . S
H291 C275 0.961 . S
H292 C276 0.931 . S
H293 C281 0.930 . S
H294 C282 0.956 . S
H295 C282 0.961 . S
H296 C282 0.961 . S
H297 C283 0.958 . S
H298 C283 0.961 . S
H299 C283 0.960 . S
C300 C301 1.391 . S
C300 C302 1.394 . S
C300 H316 0.931 . S
C301 C300 1.391 . S
C301 C305 1.376 . S
C302 C300 1.394 . S
C302 C303 1.369 . S
C302 C306 1.531 . S
C303 C302 1.369 . S
C303 C304 1.410 . S
C303 C311 1.503 . S
C304 C303 1.410 . S
C304 C305 1.392 . S
C304 C307 1.511 . S
C305 C301 1.376 . S
C305 C304 1.392 . S
C305 H317 0.929 . S
C306 C302 1.531 . S
C306 H318 0.960 . S
C306 H319 0.962 . S
C306 H320 0.960 . S
C307 C304 1.511 . S
C307 H321 0.961 . S
C307 H322 0.961 . S
C307 H323 0.961 . S
C308 C309 1.370 . S
C308 C310 1.363 . S
C308 H324 0.931 . S
C309 C308 1.370 . S
C309 C313 1.408 . S
C310 C308 1.363 . S
C310 C311 1.370 . S
C310 C314 1.524 . S
C311 C303 1.503 . S
C311 C310 1.370 . S
C311 C312 1.403 . S
C312 C311 1.403 . S
C312 C313 1.404 . S
C312 C315 1.539 . S
C313 C309 1.408 . S
C313 C312 1.404 . S
C313 H325 0.930 . S
C314 C310 1.524 . S
C314 H326 0.956 . S
C314 H327 0.961 . S
C314 H328 0.961 . S
C315 C312 1.539 . S
C315 H329 0.958 . S
C315 H330 0.961 . S
C315 H331 0.960 . S
H316 C300 0.931 . S
H317 C305 0.929 . S
H318 C306 0.960 . S
H319 C306 0.962 . S
H320 C306 0.960 . S
H321 C307 0.961 . S
H322 C307 0.961 . S
H323 C307 0.961 . S
H324 C308 0.931 . S
H325 C313 0.930 . S
H326 C314 0.956 . S
H327 C314 0.961 . S
H328 C314 0.961 . S
H329 C315 0.958 . S
H330 C315 0.961 . S
H331 C315 0.960 . S
C332 C333 1.391 . S
C332 C334 1.394 . S
C332 H348 0.931 . S
C333 C332 1.391 . S
C333 C337 1.376 . S
C334 C332 1.394 . S
C334 C335 1.369 . S
C334 C338 1.531 . S
C335 C334 1.369 . S
C335 C336 1.410 . S
C335 C343 1.503 . S
C336 C335 1.410 . S
C336 C337 1.392 . S
C336 C339 1.511 . S
C337 C333 1.376 . S
C337 C336 1.392 . S
C337 H349 0.929 . S
C338 C334 1.531 . S
C338 H350 0.960 . S
C338 H351 0.962 . S
C338 H352 0.960 . S
C339 C336 1.511 . S
C339 H353 0.961 . S
C339 H354 0.961 . S
C339 H355 0.961 . S
C340 C341 1.370 . S
C340 C342 1.363 . S
C340 H356 0.931 . S
C341 C340 1.370 . S
C341 C345 1.408 . S
C342 C340 1.363 . S
C342 C343 1.370 . S
C342 C346 1.524 . S
C343 C335 1.503 . S
C343 C342 1.370 . S
C343 C344 1.403 . S
C344 C343 1.403 . S
C344 C345 1.404 . S
C344 C347 1.539 . S
C345 C341 1.408 . S
C345 C344 1.404 . S
C345 H357 0.930 . S
C346 C342 1.524 . S
C346 H358 0.956 . S
C346 H359 0.961 . S
C346 H360 0.961 . S
C347 C344 1.539 . S
C347 H361 0.958 . S
C347 H362 0.961 . S
C347 H363 0.960 . S
H348 C332 0.931 . S
H349 C337 0.929 . S
H350 C338 0.960 . S
H351 C338 0.962 . S
H352 C338 0.960 . S
H353 C339 0.961 . S
H354 C339 0.961 . S
H355 C339 0.961 . S
H356 C340 0.931 . S
H357 C345 0.930 . S
H358 C346 0.956 . S
H359 C346 0.961 . S
H360 C346 0.961 . S
H361 C347 0.958 . S
H362 C347 0.961 . S
H363 C347 0.960 . S
C364 C365 1.391 . S
C364 C366 1.394 . S
C364 H380 0.931 . S
C365 C364 1.391 . S
C365 C369 1.376 . S
C366 C364 1.394 . S
C366 C367 1.369 . S
C366 C370 1.531 . S
C367 C366 1.369 . S
C367 C368 1.410 . S
C367 C375 1.503 . S
C368 C367 1.410 . S
C368 C369 1.392 . S
C368 C371 1.511 . S
C369 C365 1.376 . S
C369 C368 1.392 . S
C369 H381 0.929 . S
C370 C366 1.531 . S
C370 H382 0.960 . S
C370 H383 0.962 . S
C370 H384 0.960 . S
C371 C368 1.511 . S
C371 H385 0.961 . S
C371 H386 0.961 . S
C371 H387 0.961 . S
C372 C373 1.370 . S
C372 C374 1.363 . S
C372 H388 0.931 . S
C373 C372 1.370 . S
C373 C377 1.408 . S
C374 C372 1.363 . S
C374 C375 1.370 . S
C374 C378 1.524 . S
C375 C367 1.503 . S
C375 C374 1.370 . S
C375 C376 1.403 . S
C376 C375 1.403 . S
C376 C377 1.404 . S
C376 C379 1.539 . S
C377 C373 1.408 . S
C377 C376 1.404 . S
C377 H389 0.930 . S
C378 C374 1.524 . S
C378 H390 0.956 . S
C378 H391 0.961 . S
C378 H392 0.961 . S
C379 C376 1.539 . S
C379 H393 0.958 . S
C379 H394 0.961 . S
C379 H395 0.960 . S
H380 C364 0.931 . S
H381 C369 0.929 . S
H382 C370 0.960 . S
H383 C370 0.962 . S
H384 C370 0.960 . S
H385 C371 0.961 . S
H386 C371 0.961 . S
H387 C371 0.961 . S
H388 C372 0.931 . S
H389 C377 0.930 . S
H390 C378 0.956 . S
H391 C378 0.961 . S
H392 C378 0.961 . S
H393 C379 0.958 . S
H394 C379 0.961 . S
H395 C379 0.960 . S
C396 C397 1.391 . S
C396 C398 1.394 . S
C396 H412 0.931 . S
C397 C396 1.391 . S
C397 C401 1.376 . S
C398 C396 1.394 . S
C398 C399 1.369 . S
C398 C402 1.531 . S
C399 C398 1.369 . S
C399 C400 1.410 . S
C399 C407 1.503 1_655 S
C400 C399 1.410 . S
C400 C401 1.392 . S
C400 C403 1.511 1_655 S
C401 C397 1.376 . S
C401 C400 1.392 . S
C401 H413 0.929 . S
C402 C398 1.531 . S
C402 H414 0.960 . S
C402 H415 0.962 . S
C402 H416 0.960 . S
C403 C400 1.511 1_455 S
C403 H417 0.961 . S
C403 H418 0.961 . S
C403 H419 0.961 . S
C404 C405 1.370 . S
C404 C406 1.363 . S
C404 H420 0.931 . S
C405 C404 1.370 . S
C405 C409 1.408 . S
C406 C404 1.363 . S
C406 C407 1.370 . S
C406 C410 1.524 . S
C407 C399 1.503 1_455 S
C407 C406 1.370 . S
C407 C408 1.403 . S
C408 C407 1.403 . S
C408 C409 1.404 . S
C408 C411 1.539 . S
C409 C405 1.408 . S
C409 C408 1.404 . S
C409 H421 0.930 . S
C410 C406 1.524 . S
C410 H422 0.956 1_455 S
C410 H423 0.961 . S
C410 H424 0.961 . S
C411 C408 1.539 . S
C411 H425 0.958 . S
C411 H426 0.961 . S
C411 H427 0.960 . S
H412 C396 0.931 . S
H413 C401 0.929 . S
H414 C402 0.960 . S
H415 C402 0.962 . S
H416 C402 0.960 . S
H417 C403 0.961 . S
H418 C403 0.961 . S
H419 C403 0.961 . S
H420 C404 0.931 . S
H421 C409 0.930 . S
H422 C410 0.956 1_655 S
H423 C410 0.961 . S
H424 C410 0.961 . S
H425 C411 0.958 . S
H426 C411 0.961 . S
H427 C411 0.960 . S
C428 C429 1.391 . S
C428 C430 1.394 . S
C428 H444 0.931 . S
C429 C428 1.391 . S
C429 C433 1.376 . S
C430 C428 1.394 . S
C430 C431 1.369 . S
C430 C434 1.531 . S
C431 C430 1.369 . S
C431 C432 1.410 . S
C431 C439 1.503 . S
C432 C431 1.410 . S
C432 C433 1.392 . S
C432 C435 1.511 . S
C433 C429 1.376 . S
C433 C432 1.392 . S
C433 H445 0.929 . S
C434 C430 1.531 . S
C434 H446 0.960 . S
C434 H447 0.962 . S
C434 H448 0.960 . S
C435 C432 1.511 . S
C435 H449 0.961 . S
C435 H450 0.961 . S
C435 H451 0.961 . S
C436 C437 1.370 . S
C436 C438 1.363 . S
C436 H452 0.931 . S
C437 C436 1.370 . S
C437 C441 1.408 . S
C438 C436 1.363 . S
C438 C439 1.370 . S
C438 C442 1.524 . S
C439 C431 1.503 . S
C439 C438 1.370 . S
C439 C440 1.403 . S
C440 C439 1.403 . S
C440 C441 1.404 . S
C440 C443 1.539 . S
C441 C437 1.408 . S
C441 C440 1.404 . S
C441 H453 0.930 . S
C442 C438 1.524 . S
C442 H454 0.956 . S
C442 H455 0.961 . S
C442 H456 0.961 . S
C443 C440 1.539 . S
C443 H457 0.958 . S
C443 H458 0.961 . S
C443 H459 0.960 . S
H444 C428 0.931 . S
H445 C433 0.929 . S
H446 C434 0.960 . S
H447 C434 0.962 . S
H448 C434 0.960 . S
H449 C435 0.961 . S
H450 C435 0.961 . S
H451 C435 0.961 . S
H452 C436 0.931 . S
H453 C441 0.930 . S
H454 C442 0.956 . S
H455 C442 0.961 . S
H456 C442 0.961 . S
H457 C443 0.958 . S
H458 C443 0.961 . S
H459 C443 0.960 . S
C460 C461 1.391 . S
C460 C462 1.394 . S
C460 H476 0.931 . S
C461 C460 1.391 . S
C461 C465 1.376 . S
C462 C460 1.394 . S
C462 C463 1.369 1_565 S
C462 C466 1.531 1_565 S
C463 C462 1.369 1_545 S
C463 C464 1.410 1_545 S
C463 C471 1.503 . S
C464 C463 1.410 1_565 S
C464 C465 1.392 . S
C464 C467 1.511 . S
C465 C461 1.376 . S
C465 C464 1.392 . S
C465 H477 0.929 . S
C466 C462 1.531 1_545 S
C466 H478 0.960 . S
C466 H479 0.962 . S
C466 H480 0.960 . S
C467 C464 1.511 . S
C467 H481 0.961 . S
C467 H482 0.961 1_565 S
C467 H483 0.961 . S
C468 C469 1.370 . S
C468 C470 1.363 . S
C468 H484 0.931 . S
C469 C468 1.370 . S
C469 C473 1.408 . S
C470 C468 1.363 . S
C470 C471 1.370 . S
C470 C474 1.524 . S
C471 C463 1.503 . S
C471 C470 1.370 . S
C471 C472 1.403 . S
C472 C471 1.403 . S
C472 C473 1.404 . S
C472 C475 1.539 . S
C473 C469 1.408 . S
C473 C472 1.404 . S
C473 H485 0.930 . S
C474 C470 1.524 . S
C474 H486 0.956 . S
C474 H487 0.961 . S
C474 H488 0.961 . S
C475 C472 1.539 . S
C475 H489 0.958 . S
C475 H490 0.961 . S
C475 H491 0.960 . S
H476 C460 0.931 . S
H477 C465 0.929 . S
H478 C466 0.960 . S
H479 C466 0.962 . S
H480 C466 0.960 . S
H481 C467 0.961 . S
H482 C467 0.961 1_545 S
H483 C467 0.961 . S
H484 C468 0.931 . S
H485 C473 0.930 . S
H486 C474 0.956 . S
H487 C474 0.961 . S
H488 C474 0.961 . S
H489 C475 0.958 . S
H490 C475 0.961 . S
H491 C475 0.960 . S
C492 C493 1.391 . S
C492 C494 1.394 1_455 S
C492 H508 0.931 1_455 S
C493 C492 1.391 . S
C493 C497 1.376 . S
C494 C492 1.394 1_655 S
C494 C495 1.369 1_655 S
C494 C498 1.531 . S
C495 C494 1.369 1_455 S
C495 C496 1.410 . S
C495 C503 1.503 . S
C496 C495 1.410 . S
C496 C497 1.392 . S
C496 C499 1.511 . S
C497 C493 1.376 . S
C497 C496 1.392 . S
C497 H509 0.929 . S
C498 C494 1.531 . S
C498 H510 0.960 . S
C498 H511 0.969 . S
C498 H512 0.960 . S
C499 C496 1.511 . S
C499 H513 0.961 1_545 S
C499 H514 0.961 1_545 S
C499 H515 0.961 . S
C500 C501 1.370 . S
C500 C502 1.363 . S
C500 H516 0.931 . S
C501 C500 1.370 . S
C501 C505 1.408 1_665 S
C502 C500 1.363 . S
C502 C503 1.370 1_665 S
C502 C506 1.524 . S
C503 C495 1.503 . S
C503 C502 1.370 1_445 S
C503 C504 1.403 . S
C504 C503 1.403 . S
C504 C505 1.404 . S
C504 C507 1.539 . S
C505 C501 1.408 1_445 S
C505 C504 1.404 . S
C505 H517 0.930 . S
C506 C502 1.524 . S
C506 H518 0.956 . S
C506 H519 0.961 . S
C506 H520 0.961 . S
C507 C504 1.539 . S
C507 H521 0.958 . S
C507 H522 0.961 . S
C507 H523 0.960 . S
H508 C492 0.931 1_655 S
H509 C497 0.929 . S
H510 C498 0.960 . S
H511 C498 0.969 . S
H512 C498 0.960 . S
H513 C499 0.961 1_565 S
H514 C499 0.961 1_565 S
H515 C499 0.961 . S
H516 C500 0.931 . S
H517 C505 0.930 . S
H518 C506 0.956 . S
H519 C506 0.961 . S
H520 C506 0.961 . S
H521 C507 0.958 . S
H522 C507 0.961 . S
H523 C507 0.960 . S
C524 C525 1.391 . S
C524 C526 1.394 . S
C524 H540 0.931 . S
C525 C524 1.391 . S
C525 C529 1.376 . S
C526 C524 1.394 . S
C526 C527 1.369 . S
C526 C530 1.531 . S
C527 C526 1.369 . S
C527 C528 1.410 . S
C527 C535 1.503 . S
C528 C527 1.410 . S
C528 C529 1.392 . S
C528 C531 1.511 . S
C529 C525 1.376 . S
C529 C528 1.392 . S
C529 H541 0.929 . S
C530 C526 1.531 . S
C530 H542 0.960 . S
C530 H543 0.962 . S
C530 H544 0.960 . S
C531 C528 1.511 . S
C531 H545 0.961 . S
C531 H546 0.961 . S
C531 H547 0.961 . S
C532 C533 1.370 . S
C532 C534 1.363 . S
C532 H548 0.931 . S
C533 C532 1.370 . S
C533 C537 1.408 . S
C534 C532 1.363 . S
C534 C535 1.370 . S
C534 C538 1.524 . S
C535 C527 1.503 . S
C535 C534 1.370 . S
C535 C536 1.403 . S
C536 C535 1.403 . S
C536 C537 1.404 . S
C536 C539 1.539 . S
C537 C533 1.408 . S
C537 C536 1.404 . S
C537 H549 0.930 . S
C538 C534 1.524 . S
C538 H550 0.956 . S
C538 H551 0.961 . S
C538 H552 0.961 . S
C539 C536 1.539 . S
C539 H553 0.958 . S
C539 H554 0.961 . S
C539 H555 0.960 . S
H540 C524 0.931 . S
H541 C529 0.929 . S
H542 C530 0.960 . S
H543 C530 0.962 . S
H544 C530 0.960 . S
H545 C531 0.961 . S
H546 C531 0.961 . S
H547 C531 0.961 . S
H548 C532 0.931 . S
H549 C537 0.930 . S
H550 C538 0.956 . S
H551 C538 0.961 . S
H552 C538 0.961 . S
H553 C539 0.958 . S
H554 C539 0.961 . S
H555 C539 0.960 . S
C556 C557 1.391 . S
C556 C558 1.394 . S
C556 H572 0.931 . S
C557 C556 1.391 . S
C557 C561 1.376 . S
C558 C556 1.394 . S
C558 C559 1.369 . S
C558 C562 1.531 . S
C559 C558 1.369 . S
C559 C560 1.410 . S
C559 C567 1.503 . S
C560 C559 1.410 . S
C560 C561 1.392 . S
C560 C563 1.511 . S
C561 C557 1.376 . S
C561 C560 1.392 . S
C561 H573 0.929 . S
C562 C558 1.531 . S
C562 H574 0.960 . S
C562 H575 0.962 . S
C562 H576 0.960 . S
C563 C560 1.511 . S
C563 H577 0.961 . S
C563 H578 0.961 . S
C563 H579 0.961 . S
C564 C565 1.370 . S
C564 C566 1.363 . S
C564 H580 0.931 . S
C565 C564 1.370 . S
C565 C569 1.408 . S
C566 C564 1.363 . S
C566 C567 1.370 . S
C566 C570 1.524 . S
C567 C559 1.503 . S
C567 C566 1.370 . S
C567 C568 1.403 . S
C568 C567 1.403 . S
C568 C569 1.404 . S
C568 C571 1.539 . S
C569 C565 1.408 . S
C569 C568 1.404 . S
C569 H581 0.930 . S
C570 C566 1.524 . S
C570 H582 0.956 . S
C570 H583 0.961 . S
C570 H584 0.961 . S
C571 C568 1.539 . S
C571 H585 0.958 . S
C571 H586 0.961 . S
C571 H587 0.960 . S
H572 C556 0.931 . S
H573 C561 0.929 . S
H574 C562 0.960 . S
H575 C562 0.962 . S
H576 C562 0.960 . S
H577 C563 0.961 . S
H578 C563 0.961 . S
H579 C563 0.961 . S
H580 C564 0.931 . S
H581 C569 0.930 . S
H582 C570 0.956 . S
H583 C570 0.961 . S
H584 C570 0.961 . S
H585 C571 0.958 . S
H586 C571 0.961 . S
H587 C571 0.960 . S
C588 C589 1.391 . S
C588 C590 1.394 1_655 S
C588 H604 0.931 1_655 S
C589 C588 1.391 . S
C589 C593 1.376 . S
C590 C588 1.394 1_455 S
C590 C591 1.369 1_455 S
C590 C594 1.531 . S
C591 C590 1.369 1_655 S
C591 C592 1.410 . S
C591 C599 1.503 1_664 S
C592 C591 1.410 . S
C592 C593 1.392 . S
C592 C595 1.511 1_564 S
C593 C589 1.376 . S
C593 C592 1.392 . S
C593 H605 0.929 . S
C594 C590 1.531 . S
C594 H606 0.960 . S
C594 H607 0.962 . S
C594 H608 0.960 . S
C595 C592 1.511 1_546 S
C595 H609 0.954 1_556 S
C595 H610 0.961 . S
C595 H611 0.961 1_545 S
C596 C597 1.370 . S
C596 C598 1.363 . S
C596 H612 0.931 . S
C597 C596 1.370 . S
C597 C601 1.408 1_545 S
C598 C596 1.363 . S
C598 C599 1.370 . S
C598 C602 1.524 1_556 S
C599 C591 1.503 1_446 S
C599 C598 1.370 . S
C599 C600 1.403 1_445 S
C600 C599 1.403 1_665 S
C600 C601 1.404 1_655 S
C600 C603 1.539 . S
C601 C597 1.408 1_565 S
C601 C600 1.404 1_455 S
C601 H613 0.930 . S
C602 C598 1.524 1_554 S
C602 H614 0.956 . S
C602 H615 0.961 . S
C602 H616 0.961 . S
C603 C600 1.539 . S
C603 H617 0.958 . S
C603 H618 0.961 . S
C603 H619 0.960 . S
H604 C588 0.931 1_455 S
H605 C593 0.929 . S
H606 C594 0.960 . S
H607 C594 0.962 . S
H608 C594 0.960 . S
H609 C595 0.954 1_554 S
H610 C595 0.961 . S
H611 C595 0.961 1_565 S
H612 C596 0.931 . S
H613 C601 0.930 . S
H614 C602 0.956 . S
H615 C602 0.961 . S
H616 C602 0.961 . S
H617 C603 0.958 . S
H618 C603 0.961 . S
H619 C603 0.960 . S
C620 C621 1.391 . S
C620 C622 1.394 . S
C620 H636 0.931 . S
C621 C620 1.391 . S
C621 C625 1.376 . S
C622 C620 1.394 . S
C622 C623 1.369 . S
C622 C626 1.531 . S
C623 C622 1.369 . S
C623 C624 1.410 . S
C623 C631 1.503 . S
C624 C623 1.410 . S
C624 C625 1.392 . S
C624 C627 1.511 . S
C625 C621 1.376 . S
C625 C624 1.392 . S
C625 H637 0.929 . S
C626 C622 1.531 . S
C626 H638 0.960 . S
C626 H639 0.962 . S
C626 H640 0.960 . S
C627 C624 1.511 . S
C627 H641 0.961 . S
C627 H642 0.961 . S
C627 H643 0.961 . S
C628 C629 1.370 . S
C628 C630 1.363 . S
C628 H644 0.931 . S
C629 C628 1.370 . S
C629 C633 1.408 . S
C630 C628 1.363 . S
C630 C631 1.370 . S
C630 C634 1.524 . S
C631 C623 1.503 . S
C631 C630 1.370 . S
C631 C632 1.403 . S
C632 C631 1.403 . S
C632 C633 1.404 . S
C632 C635 1.539 . S
C633 C629 1.408 . S
C633 C632 1.404 . S
C633 H645 0.930 . S
C634 C630 1.524 . S
C634 H646 0.956 . S
C634 H647 0.961 . S
C634 H648 0.961 . S
C635 C632 1.539 . S
C635 H649 0.958 . S
C635 H650 0.961 . S
C635 H651 0.960 . S
H636 C620 0.931 . S
H637 C625 0.929 . S
H638 C626 0.960 . S
H639 C626 0.962 . S
H640 C626 0.960 . S
H641 C627 0.961 . S
H642 C627 0.961 . S
H643 C627 0.961 . S
H644 C628 0.931 . S
H645 C633 0.930 . S
H646 C634 0.956 . S
H647 C634 0.961 . S
H648 C634 0.961 . S
H649 C635 0.958 . S
H650 C635 0.961 . S
H651 C635 0.960 . S
C652 C653 1.391 . S
C652 C654 1.394 . S
C652 H668 0.931 . S
C653 C652 1.391 . S
C653 C657 1.376 . S
C654 C652 1.394 . S
C654 C655 1.369 . S
C654 C658 1.531 . S
C655 C654 1.369 . S
C655 C656 1.410 . S
C655 C663 1.503 . S
C656 C655 1.410 . S
C656 C657 1.392 . S
C656 C659 1.511 . S
C657 C653 1.376 . S
C657 C656 1.392 . S
C657 H669 0.929 . S
C658 C654 1.531 . S
C658 H670 0.960 . S
C658 H671 0.962 . S
C658 H672 0.960 . S
C659 C656 1.511 . S
C659 H673 0.961 . S
C659 H674 0.961 . S
C659 H675 0.961 . S
C660 C661 1.370 . S
C660 C662 1.363 . S
C660 H676 0.931 . S
C661 C660 1.370 . S
C661 C665 1.408 . S
C662 C660 1.363 . S
C662 C663 1.370 . S
C662 C666 1.524 . S
C663 C655 1.503 . S
C663 C662 1.370 . S
C663 C664 1.403 . S
C664 C663 1.403 . S
C664 C665 1.404 . S
C664 C667 1.539 . S
C665 C661 1.408 . S
C665 C664 1.404 . S
C665 H677 0.930 . S
C666 C662 1.524 . S
C666 H678 0.956 . S
C666 H679 0.961 . S
C666 H680 0.961 . S
C667 C664 1.539 . S
C667 H681 0.958 . S
C667 H682 0.961 . S
C667 H683 0.960 . S
H668 C652 0.931 . S
H669 C657 0.929 . S
H670 C658 0.960 . S
H671 C658 0.962 . S
H672 C658 0.960 . S
H673 C659 0.961 . S
H674 C659 0.961 . S
H675 C659 0.961 . S
H676 C660 0.931 . S
H677 C665 0.930 . S
H678 C666 0.956 . S
H679 C666 0.961 . S
H680 C666 0.961 . S
H681 C667 0.958 . S
H682 C667 0.961 . S
H683 C667 0.960 . S
C205 C33 1.267 . S
C213 C135 1.298 . S
C237 C20 1.793 . S
C245 C104 1.822 . S
C269 C122 1.795 . S
C277 C2 1.821 . S
C301 C54 1.829 . S
C309 C138 1.806 . S
C333 C169 1.268 . S
C341 C67 1.300 . S
C365 C36 1.809 . S
C373 C156 1.816 . S
C397 C101 1.291 . S
C405 C203 1.286 . S
C429 C88 1.820 . S
C437 C172 1.811 . S
C461 C190 1.828 . S
C469 C70 1.807 . S
C493 C43 1.937 . S
C501 C9 1.914 1_565 S
C525 C111 1.954 . S
C533 C77 1.918 . S
C557 C179 1.896 . S
C565 C145 1.940 . S
C589 C5 0.460 . S
C597 C39 0.383 . S
C621 C107 0.423 . S
C629 C73 0.425 . S
C653 C175 0.362 . S
C661 C141 0.439 . S
