# Generated by pormake.
# Topology fne, (5)-cn, num edge types: 1
# Building blocks:
#     Node 0, Type 0, BuildingBlock: XOMCOT_clean_sbu_0, # of connection points: 5
#     Node 1, Type 0, BuildingBlock: XOMCOT_clean_sbu_0, # of connection points: 5
#     Node 2, Type 0, BuildingBlock: XOMCOT_clean_sbu_0, # of connection points: 5
#     Node 3, Type 0, BuildingBlock: XOMCOT_clean_sbu_0, # of connection points: 5
#     Node 4, Type 0, BuildingBlock: XOMCOT_clean_sbu_0, # of connection points: 5
#     Node 5, Type 0, BuildingBlock: XOMCOT_clean_sbu_0, # of connection points: 5
#     Edge 6, Type (0, 0), BuildingBlock: XIVTED_clean_linker_0, # of connection points: 2
#     Edge 7, Type (0, 0), BuildingBlock: XIVTED_clean_linker_0, # of connection points: 2
#     Edge 8, Type (0, 0), BuildingBlock: XIVTED_clean_linker_0, # of connection points: 2
#     Edge 9, Type (0, 0), BuildingBlock: XIVTED_clean_linker_0, # of connection points: 2
#     Edge 10, Type (0, 0), BuildingBlock: XIVTED_clean_linker_0, # of connection points: 2
#     Edge 11, Type (0, 0), BuildingBlock: XIVTED_clean_linker_0, # of connection points: 2
#     Edge 12, Type (0, 0), BuildingBlock: XIVTED_clean_linker_0, # of connection points: 2
#     Edge 13, Type (0, 0), BuildingBlock: XIVTED_clean_linker_0, # of connection points: 2
#     Edge 14, Type (0, 0), BuildingBlock: XIVTED_clean_linker_0, # of connection points: 2
#     Edge 15, Type (0, 0), BuildingBlock: XIVTED_clean_linker_0, # of connection points: 2
#     Edge 16, Type (0, 0), BuildingBlock: XIVTED_clean_linker_0, # of connection points: 2
#     Edge 17, Type (0, 0), BuildingBlock: XIVTED_clean_linker_0, # of connection points: 2
#     Edge 18, Type (0, 0), BuildingBlock: XIVTED_clean_linker_0, # of connection points: 2
#     Edge 19, Type (0, 0), BuildingBlock: XIVTED_clean_linker_0, # of connection points: 2
#     Edge 20, Type (0, 0), BuildingBlock: XIVTED_clean_linker_0, # of connection points: 2
# Relax obj value: 0.065
# Max RMSD: 0.098
# Mean RMSD: 0.098
data_MOF--net-fne--node1-XOMCOT_clean_sbu_0--edge1-XIVTED_clean_linker_0
_symmetry_space_group_name_H-M    P1
_symmetry_Int_Tables_number       1
_symmetry_cell_setting            triclinic
loop_
_symmetry_equiv_pos_as_xyz
'x, y, z'
_cell_length_a     46.715694
_cell_length_b     46.698646
_cell_length_c     17.638161
_cell_angle_alpha  90.002294
_cell_angle_beta   89.979318
_cell_angle_gamma 120.051
loop_
_atom_site_label
_atom_site_type_symbol
_atom_site_fract_x
_atom_site_fract_y
_atom_site_fract_z
_atom_type_partial_charge
Co0 Co 0.35844 0.0775 0.0685 0.0
C1 C 0.35468 0.06912 0.23654 0.0
C2 C 0.30844 0.03699 0.18282 0.0
C3 C 0.30388 0.03377 0.26005 0.0
N4 N 0.34057 0.05848 0.16766 0.0
N5 N 0.33302 0.05408 0.29383 0.0
H6 H 0.37932 0.08957 0.2452 0.0
H7 H 0.28906 0.02573 0.14083 0.0
C8 C 0.31778 1.00515 0.0352 0.0
O9 O 0.33292 1.0 0.09186 0.0
N10 N 0.37547 0.09677 0.9703 0.0
C11 C 0.40653 0.12095 0.95489 0.0
C12 C 0.41001 0.12507 0.8775 0.0
C13 C 0.3604 0.08664 0.90246 0.0
N14 N 0.38103 0.10335 0.84459 0.0
C15 C 0.41622 0.0779 0.12616 0.0
C16 C 0.42057 0.03893 0.01411 0.0
C17 C 0.44483 0.05168 0.07095 0.0
C18 C 0.44241 0.07157 0.12719 0.0
C19 C 0.39476 0.04596 0.01519 0.0
N20 N 0.39199 0.06418 0.07251 0.0
H21 H 0.41665 0.09536 0.16636 0.0
H22 H 0.37749 0.03738 0.96851 0.0
H23 H 0.42564 0.13384 0.99686 0.0
H24 H 0.33535 0.06641 0.89538 0.0
O25 O 0.38348 0.12059 0.11451 0.0
O26 O 0.33218 0.09909 0.0718 0.0
O27 O 0.32514 0.03466 0.01792 0.0
C28 C 0.35754 0.12362 0.10501 0.0
H29 H 0.28062 0.01848 0.28883 0.0
H30 H 0.43237 0.14234 0.84787 0.0
H31 H 0.4216 0.02388 0.96867 0.0
H32 H 0.46136 0.08336 0.17014 0.0
Co33 Co 0.31743 0.35103 0.40019 0.0
C34 C 0.32231 0.34774 0.56804 0.0
C35 C 0.3087 0.3015 0.51489 0.0
C36 C 0.30736 0.2971 0.59216 0.0
N37 N 0.3191 0.33356 0.49937 0.0
N38 N 0.31576 0.3262 0.62549 0.0
H39 H 0.32708 0.37259 0.57635 0.0
H40 H 0.30046 0.28199 0.47319 0.0
C41 C 0.34881 0.3102 0.36592 0.0
O42 O 0.36954 0.3256 0.42176 0.0
N43 N 0.3146 0.36753 0.30199 0.0
C44 C 0.32203 0.39862 0.2851 0.0
C45 C 0.32035 0.40119 0.20762 0.0
C46 C 0.30833 0.35155 0.23514 0.0
N47 N 0.31195 0.37161 0.17632 0.0
C48 C 0.37534 0.40892 0.45587 0.0
C49 C 0.41787 0.41288 0.34221 0.0
C50 C 0.42982 0.43733 0.39869 0.0
C51 C 0.4079 0.4351 0.45575 0.0
C52 C 0.38498 0.38709 0.34442 0.0
N53 N 0.36439 0.38453 0.40251 0.0
H54 H 0.3586 0.40948 0.49672 0.0
H55 H 0.37592 0.36967 0.29803 0.0
H56 H 0.3295 0.41837 0.32597 0.0
H57 H 0.30192 0.32595 0.22957 0.0
O58 O 0.29986 0.37641 0.44638 0.0
O59 O 0.26956 0.32489 0.40519 0.0
O60 O 0.32651 0.31743 0.34955 0.0
C61 C 0.27075 0.35046 0.43808 0.0
H62 H 0.2987 0.2738 0.62135 0.0
H63 H 0.32642 0.42353 0.17666 0.0
H64 H 0.43362 0.41375 0.29618 0.0
H65 H 0.41539 0.45419 0.49847 0.0
Co66 Co 1.0014 0.30692 0.73285 0.0
C67 C 1.00995 0.31178 0.90082 0.0
C68 C 0.042 0.2976 0.84711 0.0
C69 C 0.04523 0.29631 0.92434 0.0
N70 N 0.02056 0.30826 0.83192 0.0
N71 N 0.02496 0.30517 0.95813 0.0
H72 H 0.98953 0.31599 0.90946 0.0
H73 H 0.0532 0.2894 0.80516 0.0
C74 C 0.07364 0.33806 0.69828 0.0
O75 O 0.07926 0.35869 0.75454 0.0
N76 N 0.98201 0.30451 0.63474 0.0
C77 C 0.95789 0.31145 0.61941 0.0
C78 C 0.95375 0.31081 0.54203 0.0
C79 C 0.99207 0.29952 0.56684 0.0
N80 N 0.97539 0.30348 0.50902 0.0
C81 C 1.0016 0.36472 0.78983 0.0
C82 C 0.04037 0.40758 0.67678 0.0
C83 C 0.02781 0.41938 0.73341 0.0
C84 C 1.00805 0.39731 0.79022 0.0
C85 C 0.03322 0.37469 0.67848 0.0
N86 N 1.01505 0.35391 0.7362 0.0
H87 H 0.98425 0.34787 0.8305 0.0
H88 H 0.04162 0.36576 0.63191 0.0
H89 H 0.94509 0.31776 0.66142 0.0
H90 H 1.01225 0.29467 0.55966 0.0
O91 O 0.95844 0.28918 0.77936 0.0
O92 O 0.97958 0.25904 0.73684 0.0
O93 O 0.04399 0.31601 0.68183 0.0
C94 C 0.95523 0.26009 0.77023 0.0
H95 H 0.06047 0.28831 0.95311 0.0
H96 H 0.93654 0.31596 0.51247 0.0
H97 H 0.05534 0.42347 0.63097 0.0
H98 H 0.99641 0.40469 0.83309 0.0
Co99 Co 0.72855 0.99302 0.06955 0.0
C100 C 0.73154 1.00067 0.23708 0.0
C101 C 0.77779 0.03389 0.18469 0.0
C102 C 0.78206 0.03652 0.26202 0.0
N103 N 0.74581 1.01211 0.16874 0.0
N104 N 0.75294 0.01542 0.29479 0.0
H105 H 0.70676 0.98037 0.2449 0.0
H106 H 0.79737 0.04544 0.14322 0.0
C107 C 0.7694 0.06535 0.0353 0.0
O108 O 0.75399 0.07073 0.09104 0.0
N109 N 0.71228 0.97376 0.97137 0.0
C110 C 0.68115 0.95048 0.95358 0.0
C111 C 0.67901 0.94648 0.876 0.0
C112 C 0.72872 0.98341 0.90513 0.0
N113 N 0.70891 0.96741 0.84571 0.0
C114 C 0.67065 0.99303 0.12501 0.0
C115 C 0.66685 0.03168 0.01135 0.0
C116 C 0.64241 0.01922 0.06785 0.0
C117 C 0.64455 0.99948 0.12489 0.0
C118 C 0.69257 0.02451 0.01356 0.0
N119 N 0.69506 1.00645 0.07166 0.0
H120 H 0.67003 0.97571 0.16589 0.0
H121 H 0.71 0.03285 0.96718 0.0
H122 H 0.6611 0.93839 0.99383 0.0
H123 H 0.75446 1.00232 0.90041 0.0
O124 O 0.7031 0.94996 0.11544 0.0
O125 O 0.75469 0.97134 0.07475 0.0
O126 O 0.76219 0.03579 0.01914 0.0
C127 C 0.72907 0.94686 0.10736 0.0
H128 H 0.80527 0.05106 0.29156 0.0
H129 H 0.65676 0.93064 0.84426 0.0
H130 H 0.66604 0.04659 0.96533 0.0
H131 H 0.62545 0.9879 0.16762 0.0
Co132 Co 0.77267 0.72097 0.40117 0.0
C133 C 0.76803 0.72444 0.56903 0.0
C134 C 0.78174 0.77068 0.51574 0.0
C135 C 0.78316 0.77514 0.59301 0.0
N136 N 0.77124 0.7386 0.50033 0.0
N137 N 0.77469 0.74603 0.62642 0.0
H138 H 0.76315 0.69956 0.57741 0.0
H139 H 0.78998 0.79016 0.47395 0.0
C140 C 0.74147 0.76202 0.36693 0.0
O141 O 0.72081 0.74691 0.42311 0.0
N142 N 0.77525 0.70431 0.30297 0.0
C143 C 0.76759 0.67316 0.28608 0.0
C144 C 0.7692 0.67056 0.20858 0.0
C145 C 0.78159 0.7203 0.23611 0.0
N146 N 0.7778 0.70019 0.17727 0.0
C147 C 0.71492 0.66316 0.45768 0.0
C148 C 0.67197 0.65926 0.34525 0.0
C149 C 0.66017 0.63492 0.40197 0.0
C150 C 0.6823 0.63709 0.45835 0.0
C151 C 0.70491 0.68497 0.3467 0.0
N152 N 0.72571 0.68752 0.40425 0.0
H153 H 0.7318 0.66255 0.49799 0.0
H154 H 0.71384 0.70232 0.30016 0.0
H155 H 0.76004 0.6534 0.32697 0.0
H156 H 0.7882 0.74595 0.23055 0.0
O157 O 0.79036 0.69565 0.44722 0.0
O158 O 0.82053 0.7471 0.40542 0.0
O159 O 0.76357 0.75451 0.35049 0.0
C160 C 0.81944 0.7216 0.43844 0.0
H161 H 0.7919 0.79846 0.62212 0.0
H162 H 0.76299 0.64818 0.17762 0.0
H163 H 0.65603 0.65839 0.29967 0.0
H164 H 0.67493 0.61805 0.50117 0.0
Co165 Co 0.08634 0.76198 0.73625 0.0
C166 C 0.07825 0.75731 0.90412 0.0
C167 C 0.04551 0.77069 0.85087 0.0
C168 C 0.04245 0.77209 0.92814 0.0
N169 N 0.06724 0.76041 0.83543 0.0
N170 N 0.06322 0.76382 0.96153 0.0
H171 H 0.09835 0.75261 0.91247 0.0
H172 H 0.03417 0.7788 0.80909 0.0
C173 C 1.01399 0.73015 0.7023 0.0
O174 O 1.00864 0.70958 0.75851 0.0
N175 N 0.10561 0.7647 0.63803 0.0
C176 C 0.12929 0.75732 0.62113 0.0
C177 C 0.13351 0.75896 0.54363 0.0
C178 C 0.09587 0.7709 0.57118 0.0
N179 N 0.1123 0.7673 0.51233 0.0
C180 C 0.08692 0.70452 0.79282 0.0
C181 C 0.04788 0.66131 0.68065 0.0
C182 C 0.06059 0.6497 0.73735 0.0
C183 C 0.08055 0.67196 0.79359 0.0
C184 C 0.05496 0.69419 0.68199 0.0
N185 N 0.07318 0.71511 0.73944 0.0
H186 H 0.10442 0.72152 0.83303 0.0
H187 H 0.04641 0.70298 0.63546 0.0
H188 H 0.14162 0.74994 0.66201 0.0
H189 H 0.07668 0.77729 0.56564 0.0
O190 O 0.12943 0.78011 0.78222 0.0
O191 O 0.10772 0.80983 0.74033 0.0
O192 O 0.04354 0.75243 0.68569 0.0
C193 C 0.1323 0.80907 0.77331 0.0
H194 H 0.02775 0.78066 0.95728 0.0
H195 H 0.1498 0.75295 0.51265 0.0
H196 H 0.03281 0.64528 0.63518 0.0
H197 H 0.09233 0.66473 0.83638 0.0
H198 H 0.47503 0.04096 0.19225 0.0
H199 H 0.60789 0.02175 0.94376 0.0
H200 H 0.47991 0.04897 0.94814 0.0
H201 H 0.61174 0.03029 0.18778 0.0
H202 H 0.55987 0.02952 0.94336 0.0
H203 H 0.52343 0.03404 0.19089 0.0
C204 C 0.4863 0.04137 0.13829 0.0
C205 C 0.47333 0.04572 0.07023 0.0
C206 C 0.57129 0.02976 0.99695 0.0
C207 C 0.52879 0.03743 0.06826 0.0
C208 C 0.59891 0.02557 0.99723 0.0
C209 C 0.61398 0.0253 0.06597 0.0
C210 C 0.5585 0.03358 0.06588 0.0
C211 C 0.60071 0.02978 0.13348 0.0
C212 C 0.51392 0.0373 0.13757 0.0
C213 C 0.48871 0.04532 0.002 0.0
N214 N 0.57375 0.03363 0.13171 0.0
N215 N 0.51563 0.04131 0.00278 0.0
H216 H 0.61899 0.60491 0.52305 0.0
H217 H 0.46689 0.47194 0.27454 0.0
H218 H 0.62236 0.6 0.279 0.0
H219 H 0.47154 0.46812 0.51858 0.0
H220 H 0.5227 0.52007 0.27409 0.0
H221 H 0.56356 0.55659 0.52158 0.0
C222 C 0.60815 0.59365 0.46908 0.0
C223 C 0.62559 0.60656 0.40107 0.0
C224 C 0.5115 0.50863 0.32769 0.0
C225 C 0.56169 0.55119 0.39898 0.0
C226 C 0.47969 0.48095 0.32801 0.0
C227 C 0.46432 0.46584 0.39676 0.0
C228 C 0.5281 0.52145 0.39661 0.0
C229 C 0.48206 0.47916 0.46426 0.0
C230 C 0.57639 0.56607 0.46829 0.0
C231 C 0.60982 0.59122 0.33281 0.0
N232 N 0.51288 0.50617 0.46245 0.0
N233 N 0.57883 0.56433 0.33352 0.0
H234 H 0.03038 0.45658 0.60956 0.0
H235 H 0.04976 0.60865 0.85855 0.0
H236 H 0.03856 0.46094 0.85364 0.0
H237 H 0.05766 0.61185 0.61443 0.0
H238 H 0.04265 0.55324 0.85707 0.0
H239 H 0.03813 0.51239 0.60941 0.0
C240 C 0.03412 0.46932 0.6631 0.0
C241 C 0.03377 0.45387 0.73177 0.0
C242 C 0.04592 0.56603 0.80377 0.0
C243 C 0.04205 0.51767 0.73196 0.0
C244 C 0.0501 0.59778 0.80456 0.0
C245 C 0.05449 0.61516 0.73653 0.0
C246 C 0.04597 0.55128 0.73443 0.0
C247 C 0.05399 0.59936 0.66826 0.0
C248 C 0.0383 0.50114 0.66296 0.0
C249 C 0.03813 0.47153 0.79938 0.0
N250 N 0.04988 0.56838 0.66898 0.0
N251 N 0.04199 0.50237 0.79774 0.0
H252 H 0.2885 0.04487 0.4047 0.0
H253 H 0.42549 0.11548 0.73209 0.0
H254 H 0.3919 0.07863 0.36675 0.0
H255 H 0.32142 0.07665 0.7736 0.0
H256 H 0.41372 0.10365 0.59754 0.0
H257 H 0.29999 0.05694 0.53944 0.0
C258 C 0.31359 0.05462 0.42454 0.0
C259 C 0.33927 0.06075 0.37388 0.0
C260 C 0.39343 0.09774 0.63601 0.0
C261 C 0.35267 0.07505 0.52851 0.0
C262 C 0.40017 0.10474 0.71298 0.0
C263 C 0.37443 0.09715 0.76455 0.0
C264 C 0.36068 0.08307 0.61001 0.0
C265 C 0.34202 0.08262 0.73622 0.0
C266 C 0.32017 0.0617 0.50161 0.0
C267 C 0.37139 0.07392 0.40325 0.0
N268 N 0.33608 0.07609 0.66091 0.0
N269 N 0.37715 0.08062 0.47847 0.0
H270 H 0.32498 0.29392 0.74221 0.0
H271 H 0.29909 0.40151 0.05979 0.0
H272 H 0.30366 0.37175 0.69177 0.0
H273 H 0.32198 0.32472 0.1101 0.0
H274 H 0.29946 0.39017 0.92473 0.0
H275 H 0.32253 0.30383 0.87745 0.0
C276 C 0.31968 0.31301 0.75953 0.0
C277 C 0.31466 0.33209 0.70539 0.0
C278 C 0.3043 0.37573 0.96536 0.0
C279 C 0.312 0.34376 0.86025 0.0
C280 C 0.30421 0.38229 0.04254 0.0
C281 C 0.31054 0.3641 0.09662 0.0
C282 C 0.31084 0.35083 0.94187 0.0
C283 C 0.31654 0.33912 0.07079 0.0
C284 C 0.31841 0.31877 0.83678 0.0
C285 C 0.30826 0.35679 0.73122 0.0
N286 N 0.31665 0.33331 0.99534 0.0
N287 N 0.30709 0.36189 0.80672 0.0
H288 H 0.03413 0.26982 0.06895 0.0
H289 H 0.9633 0.33587 0.39662 0.0
H290 H 1.00032 0.33941 0.03117 0.0
H291 H 1.00211 0.27063 0.43782 0.0
H292 H 0.9752 0.33605 0.26205 0.0
H293 H 0.02197 0.26914 0.20366 0.0
C294 C 0.02436 0.28514 0.08881 0.0
C295 C 1.01824 0.30471 0.03819 0.0
C296 C 0.98109 0.32164 0.30046 0.0
C297 C 1.00384 0.30368 0.19284 0.0
C298 C 0.97405 0.32132 0.37744 0.0
C299 C 0.98161 0.30312 0.42894 0.0
C300 C 0.99577 0.30359 0.27436 0.0
C301 C 0.99615 0.28528 0.40051 0.0
C302 C 1.01722 0.28457 0.16588 0.0
C303 C 1.00503 0.3236 0.06762 0.0
N304 N 1.00272 0.28594 0.32519 0.0
N305 N 0.99828 0.3226 0.14284 0.0
H306 H 0.7566 0.02464 0.78224 0.0
H307 H 0.70791 0.95679 0.35829 0.0
H308 H 0.67944 0.92555 0.72747 0.0
H309 H 0.78442 0.05613 0.41325 0.0
H310 H 0.69786 0.94455 0.49316 0.0
H311 H 0.76843 0.03596 0.64763 0.0
C312 C 0.74235 1.00509 0.74207 0.0
C313 C 0.71697 0.974 0.76642 0.0
C314 C 0.71685 0.96904 0.47579 0.0
C315 C 0.7301 0.98708 0.61164 0.0
C316 C 0.72244 0.97616 0.39863 0.0
C317 C 0.7469 1.00768 0.3743 0.0
C318 C 0.73582 0.9936 0.5292 0.0
C319 C 0.76549 0.03146 0.42947 0.0
C320 C 0.74897 1.01169 0.665 0.0
C321 C 0.69895 0.94994 0.71131 0.0
N322 N 0.7595 0.02397 0.50432 0.0
N323 N 0.70583 0.95699 0.63652 0.0
H324 H 0.76572 0.7785 0.74317 0.0
H325 H 0.79036 0.67007 0.06068 0.0
H326 H 0.78647 0.70027 0.69274 0.0
H327 H 0.76827 0.74741 0.11111 0.0
H328 H 0.7902 0.68155 0.92564 0.0
H329 H 0.768 0.76848 0.87842 0.0
C330 C 0.77087 0.7593 0.76049 0.0
C331 C 0.77576 0.74014 0.70635 0.0
C332 C 0.78549 0.69608 0.96629 0.0
C333 C 0.77822 0.72834 0.86122 0.0
C334 C 0.78546 0.68944 0.04346 0.0
C335 C 0.7793 0.70774 0.09757 0.0
C336 C 0.77924 0.72118 0.94284 0.0
C337 C 0.77357 0.73291 0.07177 0.0
C338 C 0.77203 0.75349 0.83774 0.0
C339 C 0.78197 0.7153 0.73218 0.0
N340 N 0.77358 0.73879 0.99633 0.0
N341 N 0.78303 0.71015 0.80768 0.0
H342 H 0.1551 0.78025 0.39575 0.0
H343 H 0.02167 0.75451 0.07829 0.0
H344 H 0.05538 0.75724 0.44619 0.0
H345 H 0.12091 0.77604 0.02782 0.0
H346 H 0.03399 0.75688 0.21353 0.0
H347 H 0.14342 0.78 0.26072 0.0
C348 C 0.13075 0.77513 0.37853 0.0
C349 C 0.10622 0.76874 0.43264 0.0
C350 C 0.05307 0.76106 0.17284 0.0
C351 C 0.09268 0.76857 0.27792 0.0
C352 C 0.04608 0.75985 0.0956 0.0
C353 C 0.0702 0.76494 0.04144 0.0
C354 C 0.08448 0.7675 0.1963 0.0
C355 C 0.10132 0.77138 0.06726 0.0
C356 C 0.12412 0.77511 0.30137 0.0
C357 C 0.07523 0.76273 0.40685 0.0
N358 N 0.10755 0.77249 0.14276 0.0
N359 N 0.06934 0.76269 0.33141 0.0
H360 H 0.30728 0.13801 0.09515 0.0
H361 H 0.39649 0.29278 0.37641 0.0
H362 H 0.40538 0.17503 0.18591 0.0
H363 H 0.30622 0.26802 0.25758 0.0
H364 H 0.3992 0.24881 0.30819 0.0
H365 H 0.3055 0.18465 0.1545 0.0
C366 C 0.3285 0.15604 0.12704 0.0
C367 C 0.3565 0.1526 0.13563 0.0
C368 C 0.37883 0.25301 0.29672 0.0
C369 C 0.35453 0.20574 0.20414 0.0
C370 C 0.37722 0.27812 0.33588 0.0
C371 C 0.35102 0.28408 0.323 0.0
C372 C 0.35393 0.2334 0.24449 0.0
C373 C 0.32685 0.26429 0.26944 0.0
C374 C 0.32747 0.18263 0.16092 0.0
C375 C 0.38327 0.17666 0.17771 0.0
N376 N 0.32879 0.23972 0.23244 0.0
N377 N 0.38153 0.20203 0.21065 0.0
H378 H 0.2681 0.39862 0.51965 0.0
H379 H 0.07238 0.2956 0.58865 0.0
H380 H 0.20581 0.30051 0.42973 0.0
H381 H 0.13909 0.38517 0.70866 0.0
H382 H 0.11966 0.29899 0.52032 0.0
H383 H 0.2198 0.39622 0.57883 0.0
C384 C 0.24419 0.37661 0.51185 0.0
C385 C 0.24101 0.34969 0.46968 0.0
C386 C 0.1239 0.31789 0.56156 0.0
C387 C 0.18542 0.34672 0.53787 0.0
C388 C 0.09692 0.31603 0.60052 0.0
C389 C 0.10176 0.34008 0.6548 0.0
C390 C 0.15592 0.34413 0.57652 0.0
C391 C 0.13413 0.36598 0.66766 0.0
C392 C 0.21659 0.37522 0.54598 0.0
C393 C 0.20938 0.32182 0.46179 0.0
N394 N 0.15991 0.3673 0.62887 0.0
N395 N 0.18277 0.32102 0.49569 0.0
H396 H 0.78708 0.1306 0.04578 0.0
H397 H 0.94047 0.1953 0.76061 0.0
H398 H 0.81111 0.06472 0.92608 0.0
H399 H 0.90433 0.25692 0.85253 0.0
H400 H 0.89402 0.14707 0.82112 0.0
H401 H 0.83085 0.17718 0.97662 0.0
C402 C 0.80153 0.12588 0.00487 0.0
C403 C 0.79544 0.09365 0.99202 0.0
C404 C 0.89618 0.17113 0.82756 0.0
C405 C 0.84585 0.14711 0.91244 0.0
C406 C 0.92266 0.19865 0.79301 0.0
C407 C 0.9263 0.23019 0.80156 0.0
C408 C 0.87337 0.17528 0.87143 0.0
C409 C 0.90253 0.2331 0.84432 0.0
C410 C 0.82652 0.15254 0.96519 0.0
C411 C 0.81495 0.08914 0.93797 0.0
N412 N 0.87726 0.20609 0.87791 0.0
N413 N 0.8394 0.11559 0.90045 0.0
H414 H 0.68101 0.89611 0.18943 0.0
H415 H 0.78365 0.80304 0.25657 0.0
H416 H 0.77889 0.93179 0.09845 0.0
H417 H 0.69457 0.78055 0.37818 0.0
H418 H 0.78024 0.84695 0.18842 0.0
H419 H 0.68339 0.85017 0.24845 0.0
C420 C 0.70296 0.89416 0.18135 0.0
C421 C 0.72982 0.91788 0.13893 0.0
C422 C 0.76145 0.83236 0.22998 0.0
C423 C 0.73277 0.8652 0.20693 0.0
C424 C 0.76333 0.80724 0.26885 0.0
C425 C 0.73943 0.78813 0.32354 0.0
C426 C 0.73535 0.83826 0.24545 0.0
C427 C 0.71364 0.7947 0.33687 0.0
C428 C 0.70434 0.86794 0.2154 0.0
C429 C 0.75763 0.91407 0.13072 0.0
N430 N 0.71231 0.81916 0.29816 0.0
N431 N 0.75841 0.88824 0.16452 0.0
H432 H 0.9487 0.68273 0.71363 0.0
H433 H 0.88429 0.77148 0.42824 0.0
H434 H 1.01466 0.77232 0.59264 0.0
H435 H 0.82239 0.6739 0.52134 0.0
H436 H 0.93244 0.77314 0.48851 0.0
H437 H 0.90211 0.68 0.64489 0.0
C438 C 0.95343 0.70183 0.67252 0.0
C439 C 0.98568 0.72786 0.65918 0.0
C440 C 0.90833 0.7513 0.49526 0.0
C441 C 0.93224 0.72493 0.58011 0.0
C442 C 0.88086 0.75034 0.46086 0.0
C443 C 0.84927 0.72251 0.46976 0.0
C444 C 0.90409 0.72436 0.53936 0.0
C445 C 0.84625 0.69585 0.51281 0.0
C446 C 0.92677 0.70022 0.63309 0.0
C447 C 0.99022 0.75183 0.60489 0.0
N448 N 0.87323 0.69752 0.54625 0.0
N449 N 0.96378 0.74988 0.56764 0.0
H450 H 0.14668 0.8737 0.76264 0.0
H451 H 0.30038 0.94003 0.04707 0.0
H452 H 0.18328 0.81274 0.85613 0.0
H453 H 0.2759 1.0052 0.92573 0.0
H454 H 0.25663 0.89309 0.97887 0.0
H455 H 0.19302 0.92225 0.82243 0.0
C456 C 0.16456 0.87056 0.79525 0.0
C457 C 0.16111 0.83912 0.8044 0.0
C458 C 0.26085 0.91765 0.96685 0.0
C459 C 0.2139 0.89439 0.87345 0.0
C460 C 0.28583 0.94451 0.00599 0.0
C461 C 0.29181 0.97665 0.99236 0.0
C462 C 0.2414 0.92278 0.9139 0.0
C463 C 0.27217 0.98086 0.93814 0.0
C464 C 0.19098 0.89826 0.82938 0.0
C465 C 0.18495 0.83648 0.84741 0.0
N466 N 0.24773 0.95422 0.90118 0.0
N467 N 0.21017 0.86367 0.88059 0.0
loop_
_geom_bond_atom_site_label_1
_geom_bond_atom_site_label_2
_geom_bond_distance
_geom_bond_site_symmetry_2
_ccdc_geom_bond_type
Co0 N4 2.148 . S
Co0 N10 2.128 1_554 S
Co0 N20 2.194 . S
Co0 O25 2.351 . S
Co0 O26 2.155 . S
Co0 O27 2.096 1_545 S
C1 N4 1.301 . S
C1 N5 1.328 . S
C1 H6 0.930 . S
C2 C3 1.333 . S
C2 N4 1.317 1_565 S
C2 H7 0.930 . S
C3 C2 1.333 . S
C3 N5 1.350 1_565 S
C3 H29 0.931 . S
N4 Co0 2.148 . S
N4 C1 1.301 . S
N4 C2 1.317 1_545 S
N5 C1 1.328 . S
N5 C3 1.350 1_545 S
H6 C1 0.930 . S
H7 C2 0.930 . S
C8 O9 1.224 . S
C8 O27 1.247 . S
O9 C8 1.224 . S
N10 Co0 2.128 1_556 S
N10 C11 1.355 . S
N10 C13 1.311 . S
C11 N10 1.355 . S
C11 C12 1.363 . S
C11 H23 0.929 . S
C12 C11 1.363 . S
C12 N14 1.375 . S
C12 H30 0.931 . S
C13 N10 1.311 . S
C13 N14 1.347 . S
C13 H24 0.929 . S
N14 C12 1.375 . S
N14 C13 1.347 . S
C15 C18 1.365 . S
C15 N20 1.328 . S
C15 H21 0.929 . S
C16 C17 1.362 1_565 S
C16 C19 1.378 . S
C16 H31 0.929 . S
C17 C16 1.362 1_545 S
C17 C18 1.366 . S
C18 C15 1.365 . S
C18 C17 1.366 . S
C18 H32 0.930 . S
C19 C16 1.378 . S
C19 N20 1.315 1_565 S
C19 H22 0.930 . S
N20 Co0 2.194 . S
N20 C15 1.328 . S
N20 C19 1.315 1_545 S
H21 C15 0.929 . S
H22 C19 0.930 . S
H23 C11 0.929 . S
H24 C13 0.929 . S
O25 Co0 2.351 . S
O25 C28 1.244 . S
O26 Co0 2.155 . S
O26 C28 1.240 . S
O27 Co0 2.096 1_565 S
O27 C8 1.247 . S
C28 O25 1.244 . S
C28 O26 1.240 . S
H29 C3 0.931 . S
H30 C12 0.931 . S
H31 C16 0.929 . S
H32 C18 0.930 . S
Co33 N37 2.148 . S
Co33 N43 2.128 . S
Co33 N53 2.194 . S
Co33 O58 2.351 . S
Co33 O59 2.155 . S
Co33 O60 2.096 . S
C34 N37 1.301 . S
C34 N38 1.328 . S
C34 H39 0.930 . S
C35 C36 1.333 . S
C35 N37 1.317 . S
C35 H40 0.930 . S
C36 C35 1.333 . S
C36 N38 1.350 . S
C36 H62 0.931 . S
N37 Co33 2.148 . S
N37 C34 1.301 . S
N37 C35 1.317 . S
N38 C34 1.328 . S
N38 C36 1.350 . S
H39 C34 0.930 . S
H40 C35 0.930 . S
C41 O42 1.224 . S
C41 O60 1.247 . S
O42 C41 1.224 . S
N43 Co33 2.128 . S
N43 C44 1.355 . S
N43 C46 1.311 . S
C44 N43 1.355 . S
C44 C45 1.363 . S
C44 H56 0.929 . S
C45 C44 1.363 . S
C45 N47 1.375 . S
C45 H63 0.931 . S
C46 N43 1.311 . S
C46 N47 1.347 . S
C46 H57 0.929 . S
N47 C45 1.375 . S
N47 C46 1.347 . S
C48 C51 1.365 . S
C48 N53 1.328 . S
C48 H54 0.929 . S
C49 C50 1.362 . S
C49 C52 1.378 . S
C49 H64 0.929 . S
C50 C49 1.362 . S
C50 C51 1.366 . S
C51 C48 1.365 . S
C51 C50 1.366 . S
C51 H65 0.930 . S
C52 C49 1.378 . S
C52 N53 1.315 . S
C52 H55 0.930 . S
N53 Co33 2.194 . S
N53 C48 1.328 . S
N53 C52 1.315 . S
H54 C48 0.929 . S
H55 C52 0.930 . S
H56 C44 0.929 . S
H57 C46 0.929 . S
O58 Co33 2.351 . S
O58 C61 1.244 . S
O59 Co33 2.155 . S
O59 C61 1.240 . S
O60 Co33 2.096 . S
O60 C41 1.247 . S
C61 O58 1.244 . S
C61 O59 1.240 . S
H62 C36 0.931 . S
H63 C45 0.931 . S
H64 C49 0.929 . S
H65 C51 0.930 . S
Co66 N70 2.148 . S
Co66 N76 2.128 . S
Co66 N86 2.194 . S
Co66 O91 2.351 1_455 S
Co66 O92 2.155 1_455 S
Co66 O93 2.096 . S
C67 N70 1.301 . S
C67 N71 1.328 . S
C67 H72 0.971 . S
C68 C69 1.333 . S
C68 N70 1.317 . S
C68 H73 0.930 . S
C69 C68 1.333 . S
C69 N71 1.350 . S
C69 H95 0.931 . S
N70 Co66 2.148 . S
N70 C67 1.301 . S
N70 C68 1.317 . S
N71 C67 1.328 . S
N71 C69 1.350 . S
H72 C67 0.971 . S
H73 C68 0.930 . S
C74 O75 1.224 . S
C74 O93 1.247 . S
O75 C74 1.224 . S
N76 Co66 2.128 . S
N76 C77 1.355 1_455 S
N76 C79 1.311 . S
C77 N76 1.355 1_655 S
C77 C78 1.363 . S
C77 H89 0.929 . S
C78 C77 1.363 . S
C78 N80 1.375 1_655 S
C78 H96 0.931 . S
C79 N76 1.311 . S
C79 N80 1.347 . S
C79 H90 0.929 . S
N80 C78 1.375 1_455 S
N80 C79 1.347 . S
C81 C84 1.365 . S
C81 N86 1.328 1_655 S
C81 H87 0.929 . S
C82 C83 1.362 . S
C82 C85 1.378 . S
C82 H97 0.929 . S
C83 C82 1.362 . S
C83 C84 1.366 1_455 S
C84 C81 1.365 . S
C84 C83 1.366 1_655 S
C84 H98 0.930 . S
C85 C82 1.378 . S
C85 N86 1.315 . S
C85 H88 0.930 . S
N86 Co66 2.194 . S
N86 C81 1.328 1_455 S
N86 C85 1.315 . S
H87 C81 0.929 . S
H88 C85 0.930 . S
H89 C77 0.929 . S
H90 C79 0.929 . S
O91 Co66 2.351 1_655 S
O91 C94 1.244 . S
O92 Co66 2.155 1_655 S
O92 C94 1.240 . S
O93 Co66 2.096 . S
O93 C74 1.247 . S
C94 O91 1.244 . S
C94 O92 1.240 . S
H95 C69 0.931 . S
H96 C78 0.931 . S
H97 C82 0.929 . S
H98 C84 0.930 . S
Co99 N103 2.148 . S
Co99 N109 2.128 1_554 S
Co99 N119 2.194 . S
Co99 O124 2.351 1_545 S
Co99 O125 2.155 1_545 S
Co99 O126 2.096 . S
C100 N103 1.301 . S
C100 N104 1.328 . S
C100 H105 0.930 1_545 S
C101 C102 1.333 . S
C101 N103 1.317 . S
C101 H106 0.930 . S
C102 C101 1.333 . S
C102 N104 1.350 . S
C102 H128 0.931 . S
N103 Co99 2.148 . S
N103 C100 1.301 . S
N103 C101 1.317 . S
N104 C100 1.328 . S
N104 C102 1.350 . S
H105 C100 0.930 1_565 S
H106 C101 0.930 . S
C107 O108 1.224 . S
C107 O126 1.247 . S
O108 C107 1.224 . S
N109 Co99 2.128 1_556 S
N109 C110 1.355 1_545 S
N109 C112 1.311 . S
C110 N109 1.355 1_565 S
C110 C111 1.363 . S
C110 H122 0.929 . S
C111 C110 1.363 . S
C111 N113 1.375 1_565 S
C111 H129 0.931 . S
C112 N109 1.311 . S
C112 N113 1.347 . S
C112 H123 0.929 . S
N113 C111 1.375 1_545 S
N113 C112 1.347 . S
C114 C117 1.365 . S
C114 N119 1.328 1_565 S
C114 H120 0.929 . S
C115 C116 1.362 . S
C115 C118 1.378 . S
C115 H130 0.929 . S
C116 C115 1.362 . S
C116 C117 1.366 1_545 S
C117 C114 1.365 . S
C117 C116 1.366 1_565 S
C117 H131 0.930 . S
C118 C115 1.378 . S
C118 N119 1.315 . S
C118 H121 0.930 . S
N119 Co99 2.194 . S
N119 C114 1.328 1_545 S
N119 C118 1.315 . S
H120 C114 0.929 . S
H121 C118 0.930 . S
H122 C110 0.929 . S
H123 C112 0.929 . S
O124 Co99 2.351 1_565 S
O124 C127 1.244 . S
O125 Co99 2.155 1_565 S
O125 C127 1.240 . S
O126 Co99 2.096 . S
O126 C107 1.247 . S
C127 O124 1.244 . S
C127 O125 1.240 . S
H128 C102 0.931 . S
H129 C111 0.931 . S
H130 C115 0.929 . S
H131 C117 0.930 . S
Co132 N136 2.148 . S
Co132 N142 2.128 . S
Co132 N152 2.194 . S
Co132 O157 2.351 . S
Co132 O158 2.155 . S
Co132 O159 2.096 . S
C133 N136 1.301 . S
C133 N137 1.328 . S
C133 H138 0.930 . S
C134 C135 1.333 . S
C134 N136 1.317 . S
C134 H139 0.930 . S
C135 C134 1.333 . S
C135 N137 1.350 . S
C135 H161 0.931 . S
N136 Co132 2.148 . S
N136 C133 1.301 . S
N136 C134 1.317 . S
N137 C133 1.328 . S
N137 C135 1.350 . S
H138 C133 0.930 . S
H139 C134 0.930 . S
C140 O141 1.224 . S
C140 O159 1.247 . S
O141 C140 1.224 . S
N142 Co132 2.128 . S
N142 C143 1.355 . S
N142 C145 1.311 . S
C143 N142 1.355 . S
C143 C144 1.363 . S
C143 H155 0.929 . S
C144 C143 1.363 . S
C144 N146 1.375 . S
C144 H162 0.931 . S
C145 N142 1.311 . S
C145 N146 1.347 . S
C145 H156 0.929 . S
N146 C144 1.375 . S
N146 C145 1.347 . S
C147 C150 1.365 . S
C147 N152 1.328 . S
C147 H153 0.929 . S
C148 C149 1.362 . S
C148 C151 1.378 . S
C148 H163 0.929 . S
C149 C148 1.362 . S
C149 C150 1.366 . S
C150 C147 1.365 . S
C150 C149 1.366 . S
C150 H164 0.930 . S
C151 C148 1.378 . S
C151 N152 1.315 . S
C151 H154 0.930 . S
N152 Co132 2.194 . S
N152 C147 1.328 . S
N152 C151 1.315 . S
H153 C147 0.929 . S
H154 C151 0.930 . S
H155 C143 0.929 . S
H156 C145 0.929 . S
O157 Co132 2.351 . S
O157 C160 1.244 . S
O158 Co132 2.155 . S
O158 C160 1.240 . S
O159 Co132 2.096 . S
O159 C140 1.247 . S
C160 O157 1.244 . S
C160 O158 1.240 . S
H161 C135 0.931 . S
H162 C144 0.931 . S
H163 C148 0.929 . S
H164 C150 0.930 . S
Co165 N169 2.148 . S
Co165 N175 2.128 . S
Co165 N185 2.194 . S
Co165 O190 2.351 . S
Co165 O191 2.155 . S
Co165 O192 2.096 1_455 S
C166 N169 1.301 . S
C166 N170 1.328 . S
C166 H171 0.930 . S
C167 C168 1.333 . S
C167 N169 1.317 1_655 S
C167 H172 0.930 . S
C168 C167 1.333 . S
C168 N170 1.350 1_655 S
C168 H194 0.931 . S
N169 Co165 2.148 . S
N169 C166 1.301 . S
N169 C167 1.317 1_455 S
N170 C166 1.328 . S
N170 C168 1.350 1_455 S
H171 C166 0.930 . S
H172 C167 0.930 . S
C173 O174 1.224 . S
C173 O192 1.247 . S
O174 C173 1.224 . S
N175 Co165 2.128 . S
N175 C176 1.355 . S
N175 C178 1.311 . S
C176 N175 1.355 . S
C176 C177 1.363 . S
C176 H188 0.929 . S
C177 C176 1.363 . S
C177 N179 1.375 . S
C177 H195 0.931 . S
C178 N175 1.311 . S
C178 N179 1.347 . S
C178 H189 0.929 . S
N179 C177 1.375 . S
N179 C178 1.347 . S
C180 C183 1.365 . S
C180 N185 1.328 . S
C180 H186 0.929 . S
C181 C182 1.334 1_655 S
C181 C184 1.391 1_655 S
C181 H196 0.944 . S
C182 C181 1.334 1_455 S
C182 C183 1.366 . S
C183 C180 1.365 . S
C183 C182 1.366 . S
C183 H197 0.930 . S
C184 C181 1.391 1_455 S
C184 N185 1.315 . S
C184 H187 0.930 1_455 S
N185 Co165 2.194 . S
N185 C180 1.328 . S
N185 C184 1.315 . S
H186 C180 0.929 . S
H187 C184 0.930 1_655 S
H188 C176 0.929 . S
H189 C178 0.929 . S
O190 Co165 2.351 . S
O190 C193 1.244 . S
O191 Co165 2.155 . S
O191 C193 1.240 . S
O192 Co165 2.096 1_655 S
O192 C173 1.247 . S
C193 O190 1.244 . S
C193 O191 1.240 . S
H194 C168 0.931 . S
H195 C177 0.931 . S
H196 C181 0.944 . S
H197 C183 0.930 . S
H198 C204 0.930 . S
H199 C208 0.930 . S
H200 C213 0.929 . S
H201 C211 0.929 . S
H202 C206 0.929 . S
H203 C212 0.929 . S
C204 H198 0.930 . S
C204 C205 1.367 . S
C204 C212 1.378 . S
C205 C204 1.367 . S
C205 C213 1.433 1_554 S
C206 H202 0.929 . S
C206 C208 1.378 . S
C206 C210 1.350 1_556 S
C207 C210 1.463 . S
C207 C212 1.350 . S
C207 N215 1.427 1_554 S
C208 H199 0.930 . S
C208 C206 1.378 . S
C208 C209 1.367 1_556 S
C209 C208 1.367 1_554 S
C209 C211 1.433 . S
C210 C206 1.350 1_554 S
C210 C207 1.463 . S
C210 N214 1.427 . S
C211 H201 0.929 . S
C211 C209 1.433 . S
C211 N214 1.384 . S
C212 H203 0.929 . S
C212 C204 1.378 . S
C212 C207 1.350 . S
C213 H200 0.929 . S
C213 C205 1.433 1_556 S
C213 N215 1.384 . S
N214 C210 1.427 . S
N214 C211 1.384 . S
N215 C207 1.427 1_556 S
N215 C213 1.384 . S
H216 C222 0.930 . S
H217 C226 0.930 . S
H218 C231 0.929 . S
H219 C229 0.929 . S
H220 C224 0.929 . S
H221 C230 0.929 . S
C222 H216 0.930 . S
C222 C223 1.367 . S
C222 C230 1.378 . S
C223 C222 1.367 . S
C223 C231 1.433 . S
C224 H220 0.929 . S
C224 C226 1.378 . S
C224 C228 1.350 . S
C225 C228 1.463 . S
C225 C230 1.350 . S
C225 N233 1.427 . S
C226 H217 0.930 . S
C226 C224 1.378 . S
C226 C227 1.367 . S
C227 C226 1.367 . S
C227 C229 1.433 . S
C228 C224 1.350 . S
C228 C225 1.463 . S
C228 N232 1.427 . S
C229 H219 0.929 . S
C229 C227 1.433 . S
C229 N232 1.384 . S
C230 H221 0.929 . S
C230 C222 1.378 . S
C230 C225 1.350 . S
C231 H218 0.929 . S
C231 C223 1.433 . S
C231 N233 1.384 . S
N232 C228 1.427 . S
N232 C229 1.384 . S
N233 C225 1.427 . S
N233 C231 1.384 . S
H234 C240 0.930 . S
H235 C244 0.930 . S
H236 C249 0.929 . S
H237 C247 0.929 . S
H238 C242 0.929 . S
H239 C248 0.929 . S
C240 H234 0.930 . S
C240 C241 1.367 . S
C240 C248 1.378 . S
C241 C240 1.367 . S
C241 C249 1.433 . S
C242 H238 0.929 . S
C242 C244 1.378 . S
C242 C246 1.350 . S
C243 C246 1.463 . S
C243 C248 1.350 . S
C243 N251 1.427 . S
C244 H235 0.930 . S
C244 C242 1.378 . S
C244 C245 1.367 . S
C245 C244 1.367 . S
C245 C247 1.433 . S
C246 C242 1.350 . S
C246 C243 1.463 . S
C246 N250 1.427 . S
C247 H237 0.929 . S
C247 C245 1.433 . S
C247 N250 1.384 . S
C248 H239 0.929 . S
C248 C240 1.378 . S
C248 C243 1.350 . S
C249 H236 0.929 . S
C249 C241 1.433 . S
C249 N251 1.384 . S
N250 C246 1.427 . S
N250 C247 1.384 . S
N251 C243 1.427 . S
N251 C249 1.384 . S
H252 C258 0.930 . S
H253 C262 0.930 . S
H254 C267 0.929 . S
H255 C265 0.929 . S
H256 C260 0.929 . S
H257 C266 0.929 . S
C258 H252 0.930 . S
C258 C259 1.367 . S
C258 C266 1.378 . S
C259 C258 1.367 . S
C259 C267 1.433 . S
C260 H256 0.929 . S
C260 C262 1.378 . S
C260 C264 1.350 . S
C261 C264 1.463 . S
C261 C266 1.350 . S
C261 N269 1.427 . S
C262 H253 0.930 . S
C262 C260 1.378 . S
C262 C263 1.367 . S
C263 C262 1.367 . S
C263 C265 1.433 . S
C264 C260 1.350 . S
C264 C261 1.463 . S
C264 N268 1.427 . S
C265 H255 0.929 . S
C265 C263 1.433 . S
C265 N268 1.384 . S
C266 H257 0.929 . S
C266 C258 1.378 . S
C266 C261 1.350 . S
C267 H254 0.929 . S
C267 C259 1.433 . S
C267 N269 1.384 . S
N268 C264 1.427 . S
N268 C265 1.384 . S
N269 C261 1.427 . S
N269 C267 1.384 . S
H270 C276 0.930 . S
H271 C280 0.930 . S
H272 C285 0.929 . S
H273 C283 0.929 . S
H274 C278 0.929 . S
H275 C284 0.929 . S
C276 H270 0.930 . S
C276 C277 1.367 . S
C276 C284 1.378 . S
C277 C276 1.367 . S
C277 C285 1.433 . S
C278 H274 0.929 . S
C278 C280 1.378 1_556 S
C278 C282 1.350 . S
C279 C282 1.463 . S
C279 C284 1.350 . S
C279 N287 1.427 . S
C280 H271 0.930 . S
C280 C278 1.378 1_554 S
C280 C281 1.367 . S
C281 C280 1.367 . S
C281 C283 1.433 . S
C282 C278 1.350 . S
C282 C279 1.463 . S
C282 N286 1.427 . S
C283 H273 0.929 . S
C283 C281 1.433 . S
C283 N286 1.384 1_554 S
C284 H275 0.929 . S
C284 C276 1.378 . S
C284 C279 1.350 . S
C285 H272 0.929 . S
C285 C277 1.433 . S
C285 N287 1.384 . S
N286 C282 1.427 . S
N286 C283 1.384 1_556 S
N287 C279 1.427 . S
N287 C285 1.384 . S
H288 C294 0.930 . S
H289 C298 0.930 . S
H290 C303 0.929 . S
H291 C301 0.929 . S
H292 C296 0.929 . S
H293 C302 0.929 . S
C294 H288 0.930 . S
C294 C295 1.367 . S
C294 C302 1.378 . S
C295 C294 1.367 . S
C295 C303 1.433 . S
C296 H292 0.929 . S
C296 C298 1.378 . S
C296 C300 1.350 . S
C297 C300 1.463 . S
C297 C302 1.350 . S
C297 N305 1.427 . S
C298 H289 0.930 . S
C298 C296 1.378 . S
C298 C299 1.367 . S
C299 C298 1.367 . S
C299 C301 1.433 . S
C300 C296 1.350 . S
C300 C297 1.463 . S
C300 N304 1.427 . S
C301 H291 0.929 . S
C301 C299 1.433 . S
C301 N304 1.384 . S
C302 H293 0.929 . S
C302 C294 1.378 . S
C302 C297 1.350 . S
C303 H290 0.929 . S
C303 C295 1.433 . S
C303 N305 1.384 . S
N304 C300 1.427 . S
N304 C301 1.384 . S
N305 C297 1.427 . S
N305 C303 1.384 . S
H306 C312 0.930 . S
H307 C316 0.930 1_565 S
H308 C321 0.929 . S
H309 C319 0.929 . S
H310 C314 0.933 . S
H311 C320 0.929 . S
C312 H306 0.930 . S
C312 C313 1.367 . S
C312 C320 1.378 . S
C313 C312 1.367 . S
C313 C321 1.433 1_545 S
C314 H310 0.933 . S
C314 C316 1.377 1_565 S
C314 C318 1.347 1_565 S
C315 C318 1.463 . S
C315 C320 1.350 . S
C315 N323 1.427 1_545 S
C316 H307 0.930 1_545 S
C316 C314 1.377 1_545 S
C316 C317 1.367 . S
C317 C316 1.367 . S
C317 C319 1.433 . S
C318 C314 1.347 1_545 S
C318 C315 1.463 . S
C318 N322 1.427 . S
C319 H309 0.929 . S
C319 C317 1.433 . S
C319 N322 1.384 . S
C320 H311 0.929 . S
C320 C312 1.378 . S
C320 C315 1.350 . S
C321 H308 0.929 . S
C321 C313 1.433 1_565 S
C321 N323 1.384 . S
N322 C318 1.427 . S
N322 C319 1.384 . S
N323 C315 1.427 1_565 S
N323 C321 1.384 . S
H324 C330 0.930 . S
H325 C334 0.930 . S
H326 C339 0.929 . S
H327 C337 0.929 . S
H328 C332 0.929 . S
H329 C338 0.929 . S
C330 H324 0.930 . S
C330 C331 1.367 . S
C330 C338 1.378 . S
C331 C330 1.367 . S
C331 C339 1.433 . S
C332 H328 0.929 . S
C332 C334 1.378 1_556 S
C332 C336 1.350 . S
C333 C336 1.463 . S
C333 C338 1.350 . S
C333 N341 1.427 . S
C334 H325 0.930 . S
C334 C332 1.378 1_554 S
C334 C335 1.367 . S
C335 C334 1.367 . S
C335 C337 1.433 . S
C336 C332 1.350 . S
C336 C333 1.463 . S
C336 N340 1.427 . S
C337 H327 0.929 . S
C337 C335 1.433 . S
C337 N340 1.384 1_554 S
C338 H329 0.929 . S
C338 C330 1.378 . S
C338 C333 1.350 . S
C339 H326 0.929 . S
C339 C331 1.433 . S
C339 N341 1.384 . S
N340 C336 1.427 . S
N340 C337 1.384 1_556 S
N341 C333 1.427 . S
N341 C339 1.384 . S
H342 C348 0.930 . S
H343 C352 0.930 . S
H344 C357 0.929 1_655 S
H345 C355 0.929 . S
H346 C350 0.929 . S
H347 C356 0.929 . S
C348 H342 0.930 . S
C348 C349 1.367 . S
C348 C356 1.378 . S
C349 C348 1.367 . S
C349 C357 1.433 . S
C350 H346 0.929 . S
C350 C352 1.378 . S
C350 C354 1.350 1_655 S
C351 C354 1.463 . S
C351 C356 1.350 . S
C351 N359 1.427 . S
C352 H343 0.930 . S
C352 C350 1.378 . S
C352 C353 1.367 1_655 S
C353 C352 1.367 1_455 S
C353 C355 1.433 . S
C354 C350 1.350 1_455 S
C354 C351 1.463 . S
C354 N358 1.427 . S
C355 H345 0.929 . S
C355 C353 1.433 . S
C355 N358 1.384 . S
C356 H347 0.929 . S
C356 C348 1.378 . S
C356 C351 1.350 . S
C357 H344 0.929 1_455 S
C357 C349 1.433 . S
C357 N359 1.384 . S
N358 C354 1.427 . S
N358 C355 1.384 . S
N359 C351 1.427 . S
N359 C357 1.384 . S
H360 C366 0.930 . S
H361 C370 0.930 . S
H362 C375 0.929 . S
H363 C373 0.929 . S
H364 C368 0.929 . S
H365 C374 0.929 . S
C366 H360 0.930 . S
C366 C367 1.367 . S
C366 C374 1.378 . S
C367 C366 1.367 . S
C367 C375 1.433 . S
C368 H364 0.929 . S
C368 C370 1.378 . S
C368 C372 1.350 . S
C369 C372 1.463 . S
C369 C374 1.350 . S
C369 N377 1.427 . S
C370 H361 0.930 . S
C370 C368 1.378 . S
C370 C371 1.367 . S
C371 C370 1.367 . S
C371 C373 1.433 . S
C372 C368 1.350 . S
C372 C369 1.463 . S
C372 N376 1.427 . S
C373 H363 0.929 . S
C373 C371 1.433 . S
C373 N376 1.384 . S
C374 H365 0.929 . S
C374 C366 1.378 . S
C374 C369 1.350 . S
C375 H362 0.929 . S
C375 C367 1.433 . S
C375 N377 1.384 . S
N376 C372 1.427 . S
N376 C373 1.384 . S
N377 C369 1.427 . S
N377 C375 1.384 . S
H378 C384 0.930 . S
H379 C388 0.930 . S
H380 C393 0.929 . S
H381 C391 0.929 . S
H382 C386 0.929 . S
H383 C392 0.929 . S
C384 H378 0.930 . S
C384 C385 1.367 . S
C384 C392 1.378 . S
C385 C384 1.367 . S
C385 C393 1.433 . S
C386 H382 0.929 . S
C386 C388 1.378 . S
C386 C390 1.350 . S
C387 C390 1.463 . S
C387 C392 1.350 . S
C387 N395 1.427 . S
C388 H379 0.930 . S
C388 C386 1.378 . S
C388 C389 1.367 . S
C389 C388 1.367 . S
C389 C391 1.433 . S
C390 C386 1.350 . S
C390 C387 1.463 . S
C390 N394 1.427 . S
C391 H381 0.929 . S
C391 C389 1.433 . S
C391 N394 1.384 . S
C392 H383 0.929 . S
C392 C384 1.378 . S
C392 C387 1.350 . S
C393 H380 0.929 . S
C393 C385 1.433 . S
C393 N395 1.384 . S
N394 C390 1.427 . S
N394 C391 1.384 . S
N395 C387 1.427 . S
N395 C393 1.384 . S
H396 C402 0.930 . S
H397 C406 0.930 . S
H398 C411 0.929 . S
H399 C409 0.929 . S
H400 C404 0.929 . S
H401 C410 0.929 . S
C402 H396 0.930 . S
C402 C403 1.367 1_554 S
C402 C410 1.378 1_554 S
C403 C402 1.367 1_556 S
C403 C411 1.433 . S
C404 H400 0.929 . S
C404 C406 1.378 . S
C404 C408 1.350 . S
C405 C408 1.463 . S
C405 C410 1.350 . S
C405 N413 1.427 . S
C406 H397 0.930 . S
C406 C404 1.378 . S
C406 C407 1.367 . S
C407 C406 1.367 . S
C407 C409 1.433 . S
C408 C404 1.350 . S
C408 C405 1.463 . S
C408 N412 1.427 . S
C409 H399 0.929 . S
C409 C407 1.433 . S
C409 N412 1.384 . S
C410 H401 0.929 . S
C410 C402 1.378 1_556 S
C410 C405 1.350 . S
C411 H398 0.929 . S
C411 C403 1.433 . S
C411 N413 1.384 . S
N412 C408 1.427 . S
N412 C409 1.384 . S
N413 C405 1.427 . S
N413 C411 1.384 . S
H414 C420 0.930 . S
H415 C424 0.930 . S
H416 C429 0.929 . S
H417 C427 0.929 . S
H418 C422 0.929 . S
H419 C428 0.929 . S
C420 H414 0.930 . S
C420 C421 1.367 . S
C420 C428 1.378 . S
C421 C420 1.367 . S
C421 C429 1.433 . S
C422 H418 0.929 . S
C422 C424 1.378 . S
C422 C426 1.350 . S
C423 C426 1.463 . S
C423 C428 1.350 . S
C423 N431 1.427 . S
C424 H415 0.930 . S
C424 C422 1.378 . S
C424 C425 1.367 . S
C425 C424 1.367 . S
C425 C427 1.433 . S
C426 C422 1.350 . S
C426 C423 1.463 . S
C426 N430 1.427 . S
C427 H417 0.929 . S
C427 C425 1.433 . S
C427 N430 1.384 . S
C428 H419 0.929 . S
C428 C420 1.378 . S
C428 C423 1.350 . S
C429 H416 0.929 . S
C429 C421 1.433 . S
C429 N431 1.384 . S
N430 C426 1.427 . S
N430 C427 1.384 . S
N431 C423 1.427 . S
N431 C429 1.384 . S
H432 C438 0.930 . S
H433 C442 0.930 . S
H434 C447 0.929 . S
H435 C445 0.929 . S
H436 C440 0.929 . S
H437 C446 0.929 . S
C438 H432 0.930 . S
C438 C439 1.367 . S
C438 C446 1.378 . S
C439 C438 1.367 . S
C439 C447 1.433 . S
C440 H436 0.929 . S
C440 C442 1.378 . S
C440 C444 1.350 . S
C441 C444 1.463 . S
C441 C446 1.350 . S
C441 N449 1.427 . S
C442 H433 0.930 . S
C442 C440 1.378 . S
C442 C443 1.367 . S
C443 C442 1.367 . S
C443 C445 1.433 . S
C444 C440 1.350 . S
C444 C441 1.463 . S
C444 N448 1.427 . S
C445 H435 0.929 . S
C445 C443 1.433 . S
C445 N448 1.384 . S
C446 H437 0.929 . S
C446 C438 1.378 . S
C446 C441 1.350 . S
C447 H434 0.929 . S
C447 C439 1.433 . S
C447 N449 1.384 . S
N448 C444 1.427 . S
N448 C445 1.384 . S
N449 C441 1.427 . S
N449 C447 1.384 . S
H450 C456 0.930 . S
H451 C460 0.930 . S
H452 C465 0.929 . S
H453 C463 0.929 . S
H454 C458 0.929 1_554 S
H455 C464 0.929 . S
C456 H450 0.930 . S
C456 C457 1.367 . S
C456 C464 1.378 . S
C457 C456 1.367 . S
C457 C465 1.433 . S
C458 H454 0.929 1_556 S
C458 C460 1.378 1_556 S
C458 C462 1.350 . S
C459 C462 1.463 . S
C459 C464 1.350 . S
C459 N467 1.427 . S
C460 H451 0.930 . S
C460 C458 1.378 1_554 S
C460 C461 1.367 1_554 S
C461 C460 1.367 1_556 S
C461 C463 1.433 . S
C462 C458 1.350 . S
C462 C459 1.463 . S
C462 N466 1.427 . S
C463 H453 0.929 . S
C463 C461 1.433 . S
C463 N466 1.384 . S
C464 H455 0.929 . S
C464 C456 1.378 . S
C464 C459 1.350 . S
C465 H452 0.929 . S
C465 C457 1.433 . S
C465 N467 1.384 . S
N466 C462 1.427 . S
N466 C463 1.384 . S
N467 C459 1.427 . S
N467 C465 1.384 . S
C205 C17 1.589 . S
C209 C116 1.592 . S
C223 C149 1.589 . S
C227 C50 1.592 . S
C241 C83 1.592 . S
C245 C182 1.589 . S
C259 N5 1.213 . S
C263 N14 1.208 . S
C277 N38 1.212 . S
C281 N47 1.207 . S
C295 N71 1.212 1_554 S
C299 N80 1.207 . S
C313 N113 1.216 . S
C317 N104 1.220 . S
C331 N137 1.212 . S
C335 N146 1.207 . S
C349 N179 1.210 . S
C353 N170 1.214 1_554 S
C367 C28 1.516 . S
C371 C41 1.510 . S
C385 C61 1.515 . S
C389 C74 1.510 . S
C403 C107 1.511 1_556 S
C407 C94 1.516 . S
C421 C127 1.513 . S
C425 C140 1.507 . S
C439 C173 1.508 . S
C443 C160 1.514 . S
C457 C193 1.517 . S
C461 C8 1.513 1_556 S
