# Generated by pormake.
# Topology kag, (6)-cn, num edge types: 1
# Building blocks:
#     Node 0, Type 0, BuildingBlock: KUMBUR_clean_sbu_1, # of connection points: 6
#     Node 1, Type 0, BuildingBlock: KUMBUR_clean_sbu_1, # of connection points: 6
#     Node 2, Type 0, BuildingBlock: KUMBUR_clean_sbu_1, # of connection points: 6
#     Edge 3, Type (0, 0), BuildingBlock: XIVTED_clean_linker_0, # of connection points: 2
#     Edge 4, Type (0, 0), BuildingBlock: XIVTED_clean_linker_0, # of connection points: 2
#     Edge 5, Type (0, 0), BuildingBlock: XIVTED_clean_linker_0, # of connection points: 2
#     Edge 6, Type (0, 0), BuildingBlock: XIVTED_clean_linker_0, # of connection points: 2
#     Edge 7, Type (0, 0), BuildingBlock: XIVTED_clean_linker_0, # of connection points: 2
#     Edge 8, Type (0, 0), BuildingBlock: XIVTED_clean_linker_0, # of connection points: 2
#     Edge 9, Type (0, 0), BuildingBlock: XIVTED_clean_linker_0, # of connection points: 2
#     Edge 10, Type (0, 0), BuildingBlock: XIVTED_clean_linker_0, # of connection points: 2
#     Edge 11, Type (0, 0), BuildingBlock: XIVTED_clean_linker_0, # of connection points: 2
# Relax obj value: 0.095
# Max RMSD: 0.183
# Mean RMSD: 0.126
data_MOF--net-kag--node1-KUMBUR_clean_sbu_1--edge1-XIVTED_clean_linker_0
_symmetry_space_group_name_H-M    P1
_symmetry_Int_Tables_number       1
_symmetry_cell_setting            triclinic
loop_
_symmetry_equiv_pos_as_xyz
'x, y, z'
_cell_length_a     30.470194
_cell_length_b     40.367094
_cell_length_c     14.92746
_cell_angle_alpha  108.04142
_cell_angle_beta   96.656428
_cell_angle_gamma 98.844718
loop_
_atom_site_label
_atom_site_type_symbol
_atom_site_fract_x
_atom_site_fract_y
_atom_site_fract_z
_atom_type_partial_charge
Tb0 Tb 0.06269 0.55708 0.0523 0.0
C1 C 0.11917 0.41749 0.90195 0.0
N2 N 0.08916 0.43117 0.85654 0.0
C3 C 0.12396 0.4163 0.71712 0.0
C4 C 0.15454 0.40445 0.8585 0.0
C5 C 0.08974 0.42933 0.76372 0.0
C6 C 0.15691 0.40429 0.76521 0.0
C7 C 0.14387 0.40185 0.0408 0.0
C8 C 0.11381 0.41634 0.99185 0.0
C9 C 0.18051 0.39032 -4e-05 0.0
C10 C 0.18578 0.39155 0.90888 0.0
Tb11 Tb 1.03394 0.45081 0.93708 0.0
N12 N 0.07755 0.42729 0.02832 0.0
C13 C 0.13521 0.39812 0.12751 0.0
C14 C 0.06675 0.42037 0.10812 0.0
C15 C 0.09598 0.40675 0.16026 0.0
H16 H 0.06418 0.43849 0.72657 0.0
H17 H 0.08773 0.40222 0.22466 0.0
H18 H 0.08283 0.57644 0.2893 0.0
H19 H 0.957 0.6056 0.82652 0.0
H20 H 1.03517 0.42445 0.13128 0.0
H21 H 0.15746 0.38711 0.16739 0.0
H22 H 1.01575 0.57368 0.86328 0.0
H23 H 0.12497 0.41559 0.64433 0.0
H24 H 0.20421 0.37946 0.037 0.0
H25 H 0.21359 0.38181 0.87731 0.0
H26 H 1.04833 0.60569 0.42636 0.0
H27 H 0.18351 0.39439 0.72916 0.0
H28 H 0.91756 0.63628 0.95397 0.0
N29 N 1.03532 0.58462 0.18622 0.0
C30 C 1.00207 0.60233 0.17222 0.0
C31 C 1.03446 0.60443 0.355 0.0
C32 C 0.98256 0.62083 0.24895 0.0
C33 C 0.05315 0.58692 0.27671 0.0
C34 C 0.99859 0.62108 0.34093 0.0
N35 N 1.00783 0.5844 0.00871 0.0
C36 C 0.99817 0.58631 0.91895 0.0
C37 C 0.95498 0.62163 0.06336 0.0
C38 C 0.98847 0.60282 0.08081 0.0
C39 C 0.94311 0.62209 0.97036 0.0
C40 C 0.96517 0.60468 0.89811 0.0
H41 H 0.98448 0.63496 0.40183 0.0
H42 H 0.93283 0.65319 0.28966 0.0
H43 H 0.90867 0.65387 0.12713 0.0
O44 O 0.10887 0.58478 0.99299 0.0
O45 O 0.98985 0.53188 0.99885 0.0
O46 O 0.97848 0.47346 0.99894 0.0
O47 O 0.09897 0.60787 0.13766 0.0
O48 O 0.0661 0.53388 0.90056 0.0
O49 O 1.01293 0.4818 0.84926 0.0
O50 O 1.00378 0.39779 0.91636 0.0
O51 O 0.09973 0.4829 0.93424 0.0
O52 O 0.11488 0.52736 0.07788 0.0
O53 O 0.99091 0.42095 0.8072 0.0
O54 O 1.02271 0.47347 0.08479 0.0
O55 O 0.07617 0.52566 0.14506 0.0
C56 C 0.96353 0.50264 -0.00015 0.0
C57 C 0.17162 0.62206 0.10492 0.0
C58 C 0.24252 0.65964 0.10611 0.0
C59 C 0.26537 0.64352 0.1631 0.0
C60 C 0.19466 0.60679 0.16367 0.0
C61 C 0.24143 0.6173 0.1919 0.0
C62 C 0.19557 0.64843 0.0766 0.0
C63 C 1.03861 0.50754 0.83217 0.0
C64 C 0.12264 0.61113 0.07296 0.0
C65 C 0.9484 0.63899 0.23169 0.0
C66 C 0.9347 0.63943 0.13915 0.0
C67 C 0.12907 0.50502 0.00823 0.0
C68 C 0.93137 0.37778 0.81829 0.0
C69 C 0.87117 0.33453 0.83918 0.0
C70 C 0.83964 0.34548 0.78368 0.0
C71 C 0.8993 0.38776 0.76142 0.0
C72 C 0.91698 0.35109 0.85656 0.0
C73 C 0.85372 0.37193 0.74524 0.0
C74 C 1.048 0.49986 0.15706 0.0
C75 C 0.97999 0.39358 0.83414 0.0
H76 H 0.30152 0.65169 0.18693 0.0
H77 H 0.17646 0.58692 0.18789 0.0
H78 H 0.25911 0.6053 0.23679 0.0
H79 H 0.17758 0.6601 0.03102 0.0
H80 H 0.80423 0.33308 0.76809 0.0
H81 H 0.90929 0.40791 0.72972 0.0
H82 H 0.9416 0.34324 0.90016 0.0
H83 H 0.82926 0.37995 0.70188 0.0
Tb84 Tb 0.48208 0.99248 0.95818 0.0
C85 C 0.66919 0.96293 0.07198 0.0
N86 N 0.64866 0.98799 0.12461 0.0
C87 C 0.66847 0.97161 0.26306 0.0
C88 C 0.68929 0.94052 0.11264 0.0
C89 C 0.64873 0.99307 0.21942 0.0
C90 C 0.68864 0.94509 0.20934 0.0
C91 C 0.68964 0.93347 0.91949 0.0
C92 C 0.66855 0.95915 0.97618 0.0
C93 C 0.70932 0.91077 0.95928 0.0
C94 C 0.70908 0.91425 0.05556 0.0
Tb95 Tb 0.61706 0.0213 0.04642 0.0
N96 N 0.64871 0.9814 0.93968 0.0
C97 C 0.69152 0.93201 0.82529 0.0
C98 C 0.6547 0.98223 0.85084 0.0
C99 C 0.6748 0.95699 0.79156 0.0
H100 H 0.63412 0.01401 0.26154 0.0
H101 H 0.67839 0.9574 0.72059 0.0
H102 H 0.46519 1.00002 0.74322 0.0
H103 H 0.41749 0.0537 0.28183 0.0
H104 H 0.64586 0.00294 0.82543 0.0
H105 H 0.7075 0.91274 0.77947 0.0
H106 H 0.45198 0.00938 0.17798 0.0
H107 H 0.66823 0.97562 0.33811 0.0
H108 H 0.72539 0.89076 0.91652 0.0
H109 H 0.72459 0.89668 0.08535 0.0
H110 H 0.42972 0.03775 0.66634 0.0
H111 H 0.70376 0.92841 0.24325 0.0
H112 H 0.38696 0.09777 0.22267 0.0
N113 N 0.44955 0.02524 0.87963 0.0
C114 C 0.42804 0.04962 0.93189 0.0
C115 C 0.42926 0.04153 0.74122 0.0
C116 C 0.40699 0.07155 0.89092 0.0
C117 C 0.44984 0.0205 0.78507 0.0
C118 C 0.4079 0.06728 0.79444 0.0
N119 N 0.44883 0.03121 0.06425 0.0
C120 C 0.44252 0.02992 0.15256 0.0
C121 C 0.40606 0.07801 0.08355 0.0
C122 C 0.42834 0.0531 0.02749 0.0
C123 C 0.40383 0.07909 0.17736 0.0
C124 C 0.42133 0.05444 0.21125 0.0
H125 H 0.39209 0.0836 0.76034 0.0
H126 H 0.36982 0.11426 0.91742 0.0
H127 H 0.36854 0.11967 0.08577 0.0
O128 O 0.43481 0.95423 0.98505 0.0
O129 O 0.51513 0.04599 0.96327 0.0
O130 O 0.57498 0.06132 0.08591 0.0
O131 O 0.42679 0.96314 0.85057 0.0
O132 O 0.5102 0.99095 0.09946 0.0
O133 O 0.57432 0.03536 0.15506 0.0
O134 O 0.66708 0.05721 0.01686 0.0
O135 O 0.58316 0.96822 0.04258 0.0
O136 O 0.52494 0.95306 0.91709 0.0
O137 O 0.66991 0.05256 0.15878 0.0
O138 O 0.58903 0.02373 0.906 0.0
O139 O 0.52491 0.97927 0.8494 0.0
C140 C 0.54762 0.07004 0.02627 0.0
C141 C 0.40601 0.90388 0.84671 0.0
C142 C 0.38351 0.843 0.84582 0.0
C143 C 0.3937 0.83025 0.7533 0.0
C144 C 0.41564 0.8905 0.75376 0.0
C145 C 0.40961 0.85391 0.70776 0.0
C146 C 0.38985 0.87994 0.89205 0.0
C147 C 0.54162 0.01325 0.16961 0.0
C148 C 0.41308 0.94256 0.89745 0.0
C149 C 0.38604 0.09706 0.94746 0.0
C150 C 0.38553 0.10026 0.04348 0.0
C151 C 0.55168 0.9441 0.97729 0.0
C152 C 0.73058 0.09496 0.13981 0.0
C153 C 0.78109 0.14606 0.12849 0.0
C154 C 0.81043 0.14666 0.2092 0.0
C155 C 0.76011 0.0962 0.22083 0.0
C156 C 0.74115 0.12 0.09398 0.0
C157 C 0.79988 0.12189 0.25505 0.0
C158 C 0.55746 1.00171 0.83557 0.0
C159 C 0.68857 0.06794 0.10449 0.0
H160 H 0.38867 0.80197 0.7154 0.0
H161 H 0.42829 0.90821 0.71678 0.0
H162 H 0.41725 0.84384 0.63643 0.0
H163 H 0.38273 0.89017 0.96391 0.0
H164 H 0.84124 0.16662 0.23767 0.0
H165 H 0.75257 0.0772 0.25744 0.0
H166 H 0.7184 0.11918 0.03148 0.0
H167 H 0.82253 0.12268 0.31747 0.0
Tb168 Tb 0.52807 0.45253 0.95526 0.0
C169 C 0.65368 0.60376 0.17974 0.0
N170 N 0.61044 0.59151 0.18641 0.0
C171 C 0.62682 0.62108 0.35639 0.0
C172 C 0.68547 0.62477 0.26181 0.0
C173 C 0.59637 0.6006 0.27288 0.0
C174 C 0.67161 0.63307 0.35096 0.0
C175 C 0.71051 0.60767 0.07993 0.0
C176 C 0.66611 0.59533 0.08996 0.0
C177 C 0.74232 0.62849 0.16158 0.0
C178 C 0.72985 0.63698 0.25226 0.0
Tb179 Tb 0.5643 0.55952 0.04404 0.0
N180 N 0.63493 0.5739 0.01282 0.0
C181 C 0.72162 0.59844 0.98817 0.0
C182 C 0.64498 0.56625 0.92279 0.0
C183 C 0.6886 0.57788 0.90924 0.0
H184 H 0.56141 0.59304 0.27757 0.0
H185 H 0.69662 0.57124 0.83783 0.0
H186 H 0.52901 0.4193 0.7209 0.0
H187 H 0.39687 0.44285 0.16554 0.0
H188 H 0.61951 0.55146 0.86135 0.0
H189 H 0.75539 0.60733 0.97742 0.0
H190 H 0.47438 0.46018 0.1402 0.0
H191 H 0.61555 0.62805 0.42475 0.0
H192 H 0.77666 0.63813 0.15539 0.0
H193 H 0.75476 0.65313 0.31455 0.0
H194 H 0.47343 0.3862 0.57448 0.0
H195 H 0.69502 0.64913 0.41575 0.0
H196 H 0.33642 0.40948 0.0267 0.0
N197 N 0.48067 0.42164 0.81374 0.0
C198 C 0.43722 0.4105 0.82141 0.0
C199 C 0.46272 0.39318 0.64342 0.0
C200 C 0.40451 0.39082 0.73971 0.0
C201 C 0.49402 0.41254 0.72654 0.0
C202 C 0.41771 0.38246 0.64991 0.0
N203 N 0.45765 0.43901 0.98871 0.0
C204 C 0.44825 0.44651 0.07919 0.0
C205 C 0.38079 0.40804 0.92282 0.0
C206 C 0.42546 0.41892 0.91182 0.0
C207 C 0.37039 0.41724 0.01519 0.0
C208 C 0.40438 0.43626 0.09373 0.0
H209 H 0.3936 0.36736 0.58536 0.0
H210 H 0.33421 0.365 0.68823 0.0
H211 H 0.31343 0.38018 0.84845 0.0
O212 O 0.53886 0.42111 0.04192 0.0
O213 O 0.47467 0.4839 0.9435 0.0
O214 O 0.49447 0.54031 0.05838 0.0
O215 O 0.53737 0.40023 0.89064 0.0
O216 O 0.55947 0.48381 0.10351 0.0
O217 O 0.5361 0.53726 0.14612 0.0
O218 O 0.55369 0.59016 0.95532 0.0
O219 O 0.61875 0.52884 0.054 0.0
O220 O 0.5981 0.47156 0.94287 0.0
O221 O 0.5539 0.61176 0.10601 0.0
O222 O 0.53326 0.5279 0.89584 0.0
O223 O 0.557 0.47463 0.85359 0.0
C224 C 0.46393 0.51282 0.00015 0.0
C225 C 0.57867 0.37485 0.98761 0.0
C226 C 0.60197 0.32182 0.00986 0.0
C227 C 0.64727 0.33898 0.02249 0.0
C228 C 0.62402 0.39126 0.00094 0.0
C229 C 0.65806 0.37332 0.01801 0.0
C230 C 0.56774 0.34013 0.99185 0.0
C231 C 0.5462 0.50947 0.16598 0.0
C232 C 0.54235 0.39372 0.97081 0.0
C233 C 0.35984 0.38006 0.75024 0.0
C234 C 0.34802 0.38864 0.84152 0.0
C235 C 0.6289 0.49897 0.00062 0.0
C236 C 0.51477 0.63722 0.00548 0.0
C237 C 0.49427 0.6906 0.97981 0.0
C238 C 0.44874 0.67302 0.95682 0.0
C239 C 0.46915 0.6206 0.9832 0.0
C240 C 0.52721 0.67234 0.00471 0.0
C241 C 0.43635 0.63852 0.95928 0.0
C242 C 0.54726 0.50255 0.83387 0.0
C243 C 0.55003 0.61788 0.02523 0.0
H244 H 0.67453 0.3257 0.03467 0.0
H245 H 0.63304 0.41791 0.99833 0.0
H246 H 0.69305 0.38609 0.02778 0.0
H247 H 0.53261 0.3277 0.98273 0.0
H248 H 0.42254 0.68606 0.93751 0.0
H249 H 0.45901 0.59368 0.98332 0.0
H250 H 0.56258 0.68502 0.02105 0.0
H251 H 0.40113 0.62553 0.94186 0.0
H252 H 0.97732 0.46543 0.67265 0.0
H253 H 0.11671 0.52702 0.31027 0.0
H254 H 0.09975 0.54571 0.76275 0.0
H255 H 0.97861 0.46985 0.22603 0.0
H256 H 0.11397 0.52869 0.47444 0.0
H257 H 0.97971 0.46184 0.50655 0.0
C258 C 1.00461 0.48237 0.65761 0.0
C259 C 1.03833 0.50599 0.73181 0.0
C260 C 0.08421 0.51582 0.42018 0.0
C261 C 1.04144 0.50172 0.54203 0.0
C262 C 0.08573 0.51491 0.32654 0.0
C263 C 1.04753 0.49889 0.25504 0.0
C264 C 1.04438 0.50013 0.44239 0.0
C265 C 1.0087 0.48269 0.27937 0.0
C266 C 1.00592 0.4803 0.56282 0.0
C267 C 0.07288 0.52727 0.70805 0.0
N268 N 1.00804 0.48381 0.37122 0.0
N269 N 0.07364 0.52451 0.61526 0.0
H270 H 0.50133 0.95861 0.22295 0.0
H271 H 0.59776 0.05654 0.78278 0.0
H272 H 0.58281 0.06459 0.33975 0.0
H273 H 0.51682 0.95037 0.66524 0.0
H274 H 0.59336 0.05983 0.62115 0.0
H275 H 0.50593 0.95538 0.38455 0.0
C276 C 0.51986 0.98134 0.28272 0.0
C277 C 0.54177 0.01191 0.26778 0.0
C278 C 0.57666 0.03576 0.6306 0.0
C279 C 0.54757 0.00827 0.4532 0.0
C280 C 0.5794 0.03379 0.72286 0.0
C281 C 0.55754 0.00316 0.73756 0.0
C282 C 0.55198 0.00685 0.55224 0.0
C283 C 0.53399 0.97458 0.65726 0.0
C284 C 0.52271 0.9794 0.37499 0.0
C285 C 0.56557 0.04044 0.34792 0.0
N286 N 0.53172 0.97717 0.56821 0.0
N287 N 0.56794 0.03789 0.43705 0.0
H288 H 0.5074 0.54491 0.75187 0.0
H289 H 0.58685 0.46753 0.24829 0.0
H290 H 0.5866 0.46316 0.69171 0.0
H291 H 0.50649 0.54849 0.3079 0.0
H292 H 0.58716 0.46558 0.4101 0.0
H293 H 0.50726 0.54687 0.59019 0.0
C294 C 0.5247 0.52726 0.70462 0.0
C295 C 0.54665 0.50352 0.73526 0.0
C296 C 0.5696 0.48389 0.38803 0.0
C297 C 0.54668 0.50575 0.54949 0.0
C298 C 0.56937 0.48503 0.29548 0.0
C299 C 0.54706 0.50857 0.26468 0.0
C300 C 0.54719 0.50633 0.45049 0.0
C301 C 0.52486 0.53044 0.32907 0.0
C302 C 0.52454 0.5284 0.61211 0.0
C303 C 0.56858 0.48143 0.67072 0.0
N304 N 0.52551 0.52881 0.41887 0.0
N305 N 0.56802 0.48307 0.58093 0.0
H306 H 0.19885 0.52987 0.16279 0.0
H307 H 0.39234 0.47701 0.85449 0.0
H308 H 0.17326 0.48471 0.85536 0.0
H309 H 0.42267 0.5496 0.14459 0.0
H310 H 0.31178 0.47507 0.85722 0.0
H311 H 0.28004 0.53352 0.16144 0.0
C312 C 0.2102 0.52083 0.09486 0.0
C313 C 0.17878 0.50698 0.00899 0.0
C314 C 0.33596 0.49161 0.92024 0.0
C315 C 0.27221 0.51024 0.00704 0.0
C316 C 0.38214 0.49265 0.91889 0.0
C317 C 0.41471 0.51345 -0.00047 0.0
C318 C 0.32161 0.51134 0.00315 0.0
C319 C 0.39903 0.53333 0.08047 0.0
C320 C 0.25667 0.52276 0.09421 0.0
C321 C 0.19583 0.49504 0.92349 0.0
N322 N 0.3538 0.5316 0.08045 0.0
N323 N 0.24104 0.49678 0.92471 0.0
H324 H 0.72592 0.18573 0.06959 0.0
H325 H 0.91479 0.28112 0.85115 0.0
H326 H 0.86169 0.16685 0.07913 0.0
H327 H 0.79424 0.32119 0.91326 0.0
H328 H 0.89188 0.23459 0.91807 0.0
H329 H 0.74627 0.23081 0.99471 0.0
C330 C 0.7599 0.19093 0.0553 0.0
C331 C 0.79227 0.17267 0.08079 0.0
C332 C 0.87045 0.25359 0.91716 0.0
C333 C 0.81568 0.224 0.99549 0.0
C334 C 0.88363 0.28034 0.87946 0.0
C335 C 0.85669 0.30546 0.87742 0.0
C336 C 0.82977 0.25159 0.95253 0.0
C337 C 0.81596 0.30232 0.91266 0.0
C338 C 0.77154 0.21676 0.01318 0.0
C339 C 0.83589 0.18061 0.06155 0.0
N340 N 0.80376 0.2759 0.94889 0.0
N341 N 0.84629 0.20562 0.01989 0.0
H342 H 0.50158 0.88455 0.8358 0.0
H343 H 0.55668 0.74776 0.10675 0.0
H344 H 0.5877 0.91702 0.1108 0.0
H345 H 0.46004 0.71836 0.84634 0.0
H346 H 0.57281 0.80896 0.10445 0.0
H347 H 0.48939 0.82299 0.83428 0.0
C348 C 0.51786 0.8788 0.896 0.0
C349 C 0.54553 0.90623 0.97363 0.0
C350 C 0.54816 0.78908 0.04766 0.0
C351 C 0.53233 0.83533 0.97197 0.0
C352 C 0.53914 0.75402 0.0486 0.0
C353 C 0.50669 0.72768 0.97699 0.0
C354 C 0.52492 0.79801 0.97408 0.0
C355 C 0.48481 0.73769 0.90398 0.0
C356 C 0.51107 0.84354 0.89495 0.0
C357 C 0.56641 0.89688 0.04891 0.0
N358 N 0.49433 0.77184 0.90445 0.0
N359 N 0.55937 0.86235 0.04624 0.0
H360 H 0.92213 0.55535 0.09934 0.0
H361 H 0.66773 0.45137 0.87314 0.0
H362 H 0.89157 0.44747 0.90743 0.0
H363 H 0.70285 0.54185 0.13291 0.0
H364 H 0.74839 0.45132 0.87316 0.0
H365 H 0.84171 0.55384 0.0989 0.0
C366 C 0.89863 0.53161 0.05516 0.0
C367 C 0.91412 0.50196 0.00094 0.0
C368 C 0.7384 0.47128 0.92993 0.0
C369 C 0.82077 0.49938 0.00207 0.0
C370 C 0.69221 0.47132 0.93016 0.0
C371 C 0.67797 0.49721 0.00201 0.0
C372 C 0.771 0.49755 0.00149 0.0
C373 C 0.71177 0.52212 0.0741 0.0
C374 C 0.85242 0.53048 0.0562 0.0
C375 C 0.88139 0.47113 0.94932 0.0
N376 N 0.75637 0.5219 0.07143 0.0
N377 N 0.83646 0.47071 0.9504 0.0
H378 H 0.32252 0.66209 0.03852 0.0
H379 H 0.31569 0.8474 0.95174 0.0
H380 H 0.21848 0.72233 0.10889 0.0
H381 H 0.40962 0.78103 0.84682 0.0
H382 H 0.28467 0.80476 0.02483 0.0
H383 H 0.35988 0.70853 0.98351 0.0
C384 C 0.30779 0.68521 0.04314 0.0
C385 C 0.26713 0.68825 0.07747 0.0
C386 C 0.31223 0.79958 0.98624 0.0
C387 C 0.30957 0.74117 0.0142 0.0
C388 C 0.33018 0.82405 0.945 0.0
C389 C 0.36541 0.81781 0.8932 0.0
C390 C 0.32963 0.7686 0.97582 0.0
C391 C 0.38228 0.78675 0.88551 0.0
C392 C 0.32899 0.71156 0.01125 0.0
C393 C 0.24937 0.71866 0.08135 0.0
N394 N 0.36421 0.76327 0.92626 0.0
N395 N 0.27063 0.74388 0.04984 0.0
H396 H 0.53408 0.26541 0.89858 0.0
H397 H 0.60764 0.12851 0.15239 0.0
H398 H 0.64501 0.29386 0.13364 0.0
H399 H 0.50396 0.09773 0.90279 0.0
H400 H 0.61933 0.18973 0.15128 0.0
H401 H 0.51935 0.20484 0.90504 0.0
C402 C 0.55515 0.2591 0.95209 0.0
C403 C 0.59105 0.285 0.0153 0.0
C404 C 0.59375 0.16964 0.09711 0.0
C405 C 0.57453 0.21524 0.02255 0.0
C406 C 0.58699 0.13457 0.09775 0.0
C407 C 0.55422 0.10773 0.02832 0.0
C408 C 0.56761 0.1782 0.02653 0.0
C409 C 0.52892 0.11743 0.95891 0.0
C410 C 0.54689 0.22435 0.9553 0.0
C411 C 0.61743 0.27484 0.0823 0.0
N412 N 0.53608 0.15172 0.95984 0.0
N413 N 0.60869 0.24093 0.08405 0.0
loop_
_geom_bond_atom_site_label_1
_geom_bond_atom_site_label_2
_geom_bond_distance
_geom_bond_site_symmetry_2
_ccdc_geom_bond_type
Tb0 N29 2.617 1_455 S
Tb0 N35 2.572 1_455 S
Tb0 O44 2.465 1_554 S
Tb0 O45 2.387 1_455 S
Tb0 O47 2.428 . S
Tb0 O48 2.308 1_454 S
Tb0 O52 2.349 . S
Tb0 O55 2.393 . S
Tb0 C64 2.802 . S
C1 N2 1.379 . S
C1 C4 1.416 . S
C1 C8 1.424 . S
N2 C1 1.379 . S
N2 C5 1.334 1_455 S
N2 Tb11 2.617 1_455 S
C3 C5 1.390 1_455 S
C3 C6 1.339 . S
C3 H23 0.930 . S
C4 C1 1.416 . S
C4 C6 1.416 . S
C4 C10 1.448 . S
C5 N2 1.334 1_655 S
C5 C3 1.390 1_655 S
C5 H16 0.930 . S
C6 C3 1.339 . S
C6 C4 1.416 . S
C6 H27 0.930 . S
C7 C8 1.413 . S
C7 C9 1.427 . S
C7 C13 1.416 1_556 S
C8 C1 1.424 . S
C8 C7 1.413 . S
C8 N12 1.361 . S
C9 C7 1.427 . S
C9 C10 1.328 . S
C9 H24 0.929 . S
C10 C4 1.448 . S
C10 C9 1.328 . S
C10 H25 0.930 . S
Tb11 N2 2.617 1_655 S
Tb11 N12 2.572 1_655 S
Tb11 O46 2.349 . S
Tb11 O49 2.393 . S
Tb11 O50 2.465 1_556 S
Tb11 O51 2.387 1_655 S
Tb11 O53 2.428 . S
Tb11 O54 2.308 1_656 S
Tb11 C75 2.802 . S
N12 C8 1.361 . S
N12 Tb11 2.572 1_455 S
N12 C14 1.340 1_556 S
C13 C7 1.416 1_554 S
C13 C15 1.332 . S
C13 H21 0.931 . S
C14 N12 1.340 1_554 S
C14 C15 1.407 . S
C14 H20 0.930 . S
C15 C13 1.332 . S
C15 C14 1.407 . S
C15 H17 0.929 . S
H16 C5 0.930 . S
H17 C15 0.929 . S
H18 C33 0.930 . S
H19 C40 0.929 . S
H20 C14 0.930 . S
H21 C13 0.931 . S
H22 C36 0.930 . S
H23 C3 0.930 . S
H24 C9 0.929 . S
H25 C10 0.930 . S
H26 C31 0.930 . S
H27 C6 0.930 . S
H28 C39 0.931 . S
N29 Tb0 2.617 1_655 S
N29 C30 1.379 . S
N29 C33 1.334 1_655 S
C30 N29 1.379 . S
C30 C32 1.416 . S
C30 C38 1.424 . S
C31 H26 0.930 . S
C31 C33 1.390 1_655 S
C31 C34 1.339 . S
C32 C30 1.416 . S
C32 C34 1.416 . S
C32 C65 1.448 . S
C33 H18 0.930 . S
C33 N29 1.334 1_455 S
C33 C31 1.390 1_455 S
C34 C31 1.339 . S
C34 C32 1.416 . S
C34 H41 0.930 . S
N35 Tb0 2.572 1_655 S
N35 C36 1.340 1_554 S
N35 C38 1.361 . S
C36 H22 0.930 . S
C36 N35 1.340 1_556 S
C36 C40 1.407 . S
C37 C38 1.413 . S
C37 C39 1.416 1_554 S
C37 C66 1.427 . S
C38 C30 1.424 . S
C38 N35 1.361 . S
C38 C37 1.413 . S
C39 H28 0.931 . S
C39 C37 1.416 1_556 S
C39 C40 1.332 . S
C40 H19 0.929 . S
C40 C36 1.407 . S
C40 C39 1.332 . S
H41 C34 0.930 . S
H42 C65 0.930 . S
H43 C66 0.929 . S
O44 Tb0 2.465 1_556 S
O44 C64 1.264 1_556 S
O45 Tb0 2.387 1_655 S
O45 C56 1.264 1_554 S
O46 Tb11 2.349 . S
O46 C56 1.243 . S
O47 Tb0 2.428 . S
O47 C64 1.256 . S
O48 Tb0 2.308 1_656 S
O48 C63 1.266 . S
O49 Tb11 2.393 . S
O49 C63 1.248 . S
O50 Tb11 2.465 1_554 S
O50 C75 1.264 1_554 S
O51 Tb11 2.387 1_455 S
O51 C67 1.264 1_556 S
O52 Tb0 2.349 . S
O52 C67 1.243 . S
O53 Tb11 2.428 . S
O53 C75 1.256 . S
O54 Tb11 2.308 1_454 S
O54 C74 1.266 . S
O55 Tb0 2.393 . S
O55 C74 1.248 . S
C56 O45 1.264 1_556 S
C56 O46 1.243 . S
C57 C60 1.399 . S
C57 C62 1.383 . S
C57 C64 1.496 . S
C58 C59 1.399 . S
C58 C62 1.389 . S
C59 C58 1.399 . S
C59 C61 1.380 . S
C59 H76 0.929 . S
C60 C57 1.399 . S
C60 C61 1.392 . S
C60 H77 0.929 . S
C61 C59 1.380 . S
C61 C60 1.392 . S
C61 H78 0.929 . S
C62 C57 1.383 . S
C62 C58 1.389 . S
C62 H79 0.931 1_554 S
C63 O48 1.266 . S
C63 O49 1.248 . S
C64 Tb0 2.802 . S
C64 O44 1.264 1_554 S
C64 O47 1.256 . S
C64 C57 1.496 . S
C65 C32 1.448 . S
C65 H42 0.930 . S
C65 C66 1.328 . S
C66 C37 1.427 . S
C66 H43 0.929 . S
C66 C65 1.328 . S
C67 O51 1.264 1_554 S
C67 O52 1.243 . S
C68 C71 1.399 . S
C68 C72 1.383 . S
C68 C75 1.496 . S
C69 C70 1.399 . S
C69 C72 1.389 . S
C70 C69 1.399 . S
C70 C73 1.380 . S
C70 H80 0.929 . S
C71 C68 1.399 . S
C71 C73 1.392 . S
C71 H81 0.929 . S
C72 C68 1.383 . S
C72 C69 1.389 . S
C72 H82 0.931 1_556 S
C73 C70 1.380 . S
C73 C71 1.392 . S
C73 H83 0.929 . S
C74 O54 1.266 . S
C74 O55 1.248 . S
C75 Tb11 2.802 . S
C75 O50 1.264 1_556 S
C75 O53 1.256 . S
C75 C68 1.496 . S
H76 C59 0.929 . S
H77 C60 0.929 . S
H78 C61 0.929 . S
H79 C62 0.931 1_556 S
H80 C70 0.929 . S
H81 C71 0.929 . S
H82 C72 0.931 1_554 S
H83 C73 0.929 . S
Tb84 N113 2.617 . S
Tb84 N119 2.572 1_566 S
Tb84 O128 2.465 1_556 S
Tb84 O129 2.387 1_565 S
Tb84 O131 2.428 . S
Tb84 O132 2.308 1_566 S
Tb84 O136 2.349 . S
Tb84 O139 2.393 . S
Tb84 C148 2.802 . S
C85 N86 1.379 1_565 S
C85 C88 1.416 . S
C85 C92 1.424 . S
N86 C85 1.379 1_545 S
N86 C89 1.334 . S
N86 Tb95 2.617 . S
C87 C89 1.390 . S
C87 C90 1.339 1_545 S
C87 H107 0.930 . S
C88 C85 1.416 . S
C88 C90 1.416 . S
C88 C94 1.448 . S
C89 N86 1.334 . S
C89 C87 1.390 . S
C89 H100 0.930 . S
C90 C87 1.339 1_565 S
C90 C88 1.416 . S
C90 H111 0.930 . S
C91 C92 1.413 1_556 S
C91 C93 1.427 1_556 S
C91 C97 1.416 . S
C92 C85 1.424 . S
C92 C91 1.413 1_554 S
C92 N96 1.361 1_554 S
C93 C91 1.427 1_554 S
C93 C94 1.328 . S
C93 H108 0.929 . S
C94 C88 1.448 . S
C94 C93 1.328 . S
C94 H109 0.930 . S
Tb95 N86 2.617 . S
Tb95 N96 2.572 1_544 S
Tb95 O130 2.349 . S
Tb95 O133 2.393 . S
Tb95 O134 2.465 1_554 S
Tb95 O135 2.387 1_545 S
Tb95 O137 2.428 . S
Tb95 O138 2.308 1_544 S
Tb95 C159 2.802 . S
N96 C92 1.361 1_556 S
N96 Tb95 2.572 1_566 S
N96 C98 1.340 . S
C97 C91 1.416 . S
C97 C99 1.332 . S
C97 H105 0.931 . S
C98 N96 1.340 . S
C98 C99 1.407 . S
C98 H104 0.930 . S
C99 C97 1.332 . S
C99 C98 1.407 . S
C99 H101 0.929 . S
H100 C89 0.930 . S
H101 C99 0.929 . S
H102 C117 0.930 . S
H103 C124 0.929 . S
H104 C98 0.930 . S
H105 C97 0.931 . S
H106 C120 0.930 . S
H107 C87 0.930 . S
H108 C93 0.929 . S
H109 C94 0.930 . S
H110 C115 0.930 . S
H111 C90 0.930 . S
H112 C123 0.931 . S
N113 Tb84 2.617 . S
N113 C114 1.379 1_565 S
N113 C117 1.334 . S
C114 N113 1.379 1_545 S
C114 C116 1.416 . S
C114 C122 1.424 . S
C115 H110 0.930 . S
C115 C117 1.390 . S
C115 C118 1.339 1_565 S
C116 C114 1.416 . S
C116 C118 1.416 . S
C116 C149 1.448 . S
C117 H102 0.930 . S
C117 N113 1.334 . S
C117 C115 1.390 . S
C118 C115 1.339 1_545 S
C118 C116 1.416 . S
C118 H125 0.930 . S
N119 Tb84 2.572 1_544 S
N119 C120 1.340 . S
N119 C122 1.361 1_554 S
C120 H106 0.930 . S
C120 N119 1.340 . S
C120 C124 1.407 . S
C121 C122 1.413 1_554 S
C121 C123 1.416 . S
C121 C150 1.427 1_554 S
C122 C114 1.424 . S
C122 N119 1.361 1_556 S
C122 C121 1.413 1_556 S
C123 H112 0.931 . S
C123 C121 1.416 . S
C123 C124 1.332 . S
C124 H103 0.929 . S
C124 C120 1.407 . S
C124 C123 1.332 . S
H125 C118 0.930 . S
H126 C149 0.930 . S
H127 C150 0.929 . S
O128 Tb84 2.465 1_554 S
O128 C148 1.264 1_554 S
O129 Tb84 2.387 1_545 S
O129 C140 1.264 1_556 S
O130 Tb95 2.349 . S
O130 C140 1.243 . S
O131 Tb84 2.428 . S
O131 C148 1.256 . S
O132 Tb84 2.308 1_544 S
O132 C147 1.266 . S
O133 Tb95 2.393 . S
O133 C147 1.248 . S
O134 Tb95 2.465 1_556 S
O134 C159 1.264 1_556 S
O135 Tb95 2.387 1_565 S
O135 C151 1.264 1_554 S
O136 Tb84 2.349 . S
O136 C151 1.243 . S
O137 Tb95 2.428 . S
O137 C159 1.256 . S
O138 Tb95 2.308 1_566 S
O138 C158 1.264 . S
O139 Tb84 2.393 . S
O139 C158 1.248 . S
C140 O129 1.264 1_554 S
C140 O130 1.243 . S
C141 C144 1.399 . S
C141 C146 1.383 1_556 S
C141 C148 1.496 . S
C142 C143 1.399 1_554 S
C142 C146 1.389 . S
C143 C142 1.399 1_556 S
C143 C145 1.380 . S
C143 H160 0.929 . S
C144 C141 1.399 . S
C144 C145 1.392 . S
C144 H161 0.929 . S
C145 C143 1.380 . S
C145 C144 1.392 . S
C145 H162 0.929 . S
C146 C141 1.383 1_554 S
C146 C142 1.389 . S
C146 H163 0.931 . S
C147 O132 1.266 . S
C147 O133 1.248 . S
C148 Tb84 2.802 . S
C148 O128 1.264 1_556 S
C148 O131 1.256 . S
C148 C141 1.496 . S
C149 C116 1.448 . S
C149 H126 0.930 . S
C149 C150 1.328 . S
C150 C121 1.427 1_556 S
C150 H127 0.929 . S
C150 C149 1.328 . S
C151 O135 1.264 1_556 S
C151 O136 1.243 . S
C152 C155 1.399 . S
C152 C156 1.383 1_554 S
C152 C159 1.496 . S
C153 C154 1.399 1_556 S
C153 C156 1.389 . S
C154 C153 1.399 1_554 S
C154 C157 1.380 . S
C154 H164 0.929 . S
C155 C152 1.399 . S
C155 C157 1.392 . S
C155 H165 0.929 . S
C156 C152 1.383 1_556 S
C156 C153 1.389 . S
C156 H166 0.931 . S
C157 C154 1.380 . S
C157 C155 1.392 . S
C157 H167 0.929 . S
C158 O138 1.264 . S
C158 O139 1.248 . S
C159 Tb95 2.802 . S
C159 O134 1.264 1_554 S
C159 O137 1.256 . S
C159 C152 1.496 . S
H160 C143 0.929 . S
H161 C144 0.929 . S
H162 C145 0.929 . S
H163 C146 0.931 . S
H164 C154 0.929 . S
H165 C155 0.929 . S
H166 C156 0.931 . S
H167 C157 0.929 . S
Tb168 N197 2.617 . S
Tb168 N203 2.572 . S
Tb168 O212 2.465 1_556 S
Tb168 O213 2.387 . S
Tb168 O215 2.428 . S
Tb168 O216 2.308 1_556 S
Tb168 O220 2.349 . S
Tb168 O223 2.393 . S
Tb168 C232 2.802 . S
C169 N170 1.379 . S
C169 C172 1.416 . S
C169 C176 1.424 . S
N170 C169 1.379 . S
N170 C173 1.334 . S
N170 Tb179 2.617 . S
C171 C173 1.390 . S
C171 C174 1.339 . S
C171 H191 0.930 . S
C172 C169 1.416 . S
C172 C174 1.416 . S
C172 C178 1.448 . S
C173 N170 1.334 . S
C173 C171 1.390 . S
C173 H184 0.930 . S
C174 C171 1.339 . S
C174 C172 1.416 . S
C174 H195 0.930 . S
C175 C176 1.413 . S
C175 C177 1.427 . S
C175 C181 1.415 1_554 S
C176 C169 1.424 . S
C176 C175 1.413 . S
C176 N180 1.361 . S
C177 C175 1.427 . S
C177 C178 1.328 . S
C177 H192 0.929 . S
C178 C172 1.448 . S
C178 C177 1.328 . S
C178 H193 0.930 . S
Tb179 N170 2.617 . S
Tb179 N180 2.572 . S
Tb179 O214 2.349 . S
Tb179 O217 2.393 . S
Tb179 O218 2.465 1_554 S
Tb179 O219 2.387 . S
Tb179 O221 2.428 . S
Tb179 O222 2.308 1_554 S
Tb179 C243 2.802 . S
N180 C176 1.361 . S
N180 Tb179 2.572 . S
N180 C182 1.340 1_554 S
C181 C175 1.415 1_556 S
C181 C183 1.333 . S
C181 H189 0.931 . S
C182 N180 1.340 1_556 S
C182 C183 1.407 . S
C182 H188 0.930 . S
C183 C181 1.333 . S
C183 C182 1.407 . S
C183 H185 0.929 . S
H184 C173 0.930 . S
H185 C183 0.929 . S
H186 C201 0.930 . S
H187 C208 0.929 . S
H188 C182 0.930 . S
H189 C181 0.931 . S
H190 C204 0.930 . S
H191 C171 0.930 . S
H192 C177 0.929 . S
H193 C178 0.930 . S
H194 C199 0.930 . S
H195 C174 0.930 . S
H196 C207 0.931 . S
N197 Tb168 2.617 . S
N197 C198 1.379 . S
N197 C201 1.334 . S
C198 N197 1.379 . S
C198 C200 1.416 . S
C198 C206 1.424 . S
C199 H194 0.930 . S
C199 C201 1.390 . S
C199 C202 1.339 . S
C200 C198 1.416 . S
C200 C202 1.416 . S
C200 C233 1.448 . S
C201 H186 0.930 . S
C201 N197 1.334 . S
C201 C199 1.390 . S
C202 C199 1.339 . S
C202 C200 1.416 . S
C202 H209 0.930 . S
N203 Tb168 2.572 . S
N203 C204 1.340 1_556 S
N203 C206 1.361 . S
C204 H190 0.930 . S
C204 N203 1.340 1_554 S
C204 C208 1.407 . S
C205 C206 1.413 . S
C205 C207 1.416 1_556 S
C205 C234 1.427 . S
C206 C198 1.424 . S
C206 N203 1.361 . S
C206 C205 1.413 . S
C207 H196 0.931 . S
C207 C205 1.416 1_554 S
C207 C208 1.332 . S
C208 H187 0.929 . S
C208 C204 1.407 . S
C208 C207 1.332 . S
H209 C202 0.930 . S
H210 C233 0.930 . S
H211 C234 0.929 . S
O212 Tb168 2.465 1_554 S
O212 C232 1.264 1_554 S
O213 Tb168 2.387 . S
O213 C224 1.264 . S
O214 Tb179 2.349 . S
O214 C224 1.243 1_554 S
O215 Tb168 2.428 . S
O215 C232 1.256 . S
O216 Tb168 2.308 1_554 S
O216 C231 1.266 . S
O217 Tb179 2.393 . S
O217 C231 1.248 . S
O218 Tb179 2.465 1_556 S
O218 C243 1.264 1_556 S
O219 Tb179 2.387 . S
O219 C235 1.264 . S
O220 Tb168 2.349 . S
O220 C235 1.243 1_556 S
O221 Tb179 2.428 . S
O221 C243 1.256 . S
O222 Tb179 2.308 1_556 S
O222 C242 1.266 . S
O223 Tb168 2.393 . S
O223 C242 1.248 . S
C224 O213 1.264 . S
C224 O214 1.243 1_556 S
C225 C228 1.399 . S
C225 C230 1.374 1_556 S
C225 C232 1.496 . S
C226 C227 1.399 . S
C226 C230 1.392 1_556 S
C227 C226 1.399 . S
C227 C229 1.380 . S
C227 H244 0.929 . S
C228 C225 1.399 . S
C228 C229 1.392 . S
C228 H245 0.929 . S
C229 C227 1.380 . S
C229 C228 1.392 . S
C229 H246 0.929 . S
C230 C225 1.374 1_554 S
C230 C226 1.392 1_554 S
C230 H247 0.938 . S
C231 O216 1.266 . S
C231 O217 1.248 . S
C232 Tb168 2.802 . S
C232 O212 1.264 1_556 S
C232 O215 1.256 . S
C232 C225 1.496 . S
C233 C200 1.448 . S
C233 H210 0.930 . S
C233 C234 1.328 . S
C234 C205 1.427 . S
C234 H211 0.929 . S
C234 C233 1.328 . S
C235 O219 1.264 . S
C235 O220 1.243 1_554 S
C236 C239 1.399 . S
C236 C240 1.389 . S
C236 C243 1.496 . S
C237 C238 1.399 . S
C237 C240 1.388 . S
C238 C237 1.399 . S
C238 C241 1.380 . S
C238 H248 0.929 . S
C239 C236 1.399 . S
C239 C241 1.392 . S
C239 H249 0.929 . S
C240 C236 1.389 . S
C240 C237 1.388 . S
C240 H250 0.927 1_554 S
C241 C238 1.380 . S
C241 C239 1.392 . S
C241 H251 0.929 . S
C242 O222 1.266 . S
C242 O223 1.248 . S
C243 Tb179 2.802 . S
C243 O218 1.264 1_554 S
C243 O221 1.256 . S
C243 C236 1.496 . S
H244 C227 0.929 . S
H245 C228 0.929 . S
H246 C229 0.929 . S
H247 C230 0.938 . S
H248 C238 0.929 . S
H249 C239 0.929 . S
H250 C240 0.927 1_556 S
H251 C241 0.929 . S
H252 C258 0.930 . S
H253 C262 0.930 . S
H254 C267 0.929 . S
H255 C265 0.929 . S
H256 C260 0.929 . S
H257 C266 0.929 . S
C258 H252 0.930 . S
C258 C259 1.367 . S
C258 C266 1.378 . S
C259 C258 1.367 . S
C259 C267 1.433 1_655 S
C260 H256 0.929 . S
C260 C262 1.378 . S
C260 C264 1.350 . S
C261 C264 1.460 1_655 S
C261 C266 1.361 . S
C261 N269 1.419 1_655 S
C262 H253 0.930 . S
C262 C260 1.378 . S
C262 C263 1.367 . S
C263 C262 1.367 . S
C263 C265 1.433 1_455 S
C264 C260 1.350 . S
C264 C261 1.460 1_455 S
C264 N268 1.427 1_455 S
C265 H255 0.929 . S
C265 C263 1.433 1_655 S
C265 N268 1.384 . S
C266 H257 0.929 . S
C266 C258 1.378 . S
C266 C261 1.361 . S
C267 H254 0.929 . S
C267 C259 1.433 1_455 S
C267 N269 1.384 . S
N268 C264 1.427 1_655 S
N268 C265 1.384 . S
N269 C261 1.419 1_455 S
N269 C267 1.384 . S
H270 C276 0.930 . S
H271 C280 0.930 . S
H272 C285 0.929 . S
H273 C283 0.929 . S
H274 C278 0.929 . S
H275 C284 0.929 . S
C276 H270 0.930 . S
C276 C277 1.367 1_565 S
C276 C284 1.378 . S
C277 C276 1.367 1_545 S
C277 C285 1.433 . S
C278 H274 0.929 . S
C278 C280 1.378 . S
C278 C282 1.367 . S
C279 C282 1.475 . S
C279 C284 1.350 1_545 S
C279 N287 1.427 . S
C280 H271 0.930 . S
C280 C278 1.378 . S
C280 C281 1.367 1_545 S
C281 C280 1.367 1_565 S
C281 C283 1.433 . S
C282 C278 1.367 . S
C282 C279 1.475 . S
C282 N286 1.398 1_545 S
C283 H273 0.929 . S
C283 C281 1.433 . S
C283 N286 1.384 . S
C284 H275 0.929 . S
C284 C276 1.378 . S
C284 C279 1.350 1_565 S
C285 H272 0.929 . S
C285 C277 1.433 . S
C285 N287 1.384 . S
N286 C282 1.398 1_565 S
N286 C283 1.384 . S
N287 C279 1.427 . S
N287 C285 1.384 . S
H288 C294 0.930 . S
H289 C298 0.930 . S
H290 C303 0.929 . S
H291 C301 0.929 . S
H292 C296 0.929 . S
H293 C302 0.929 . S
C294 H288 0.930 . S
C294 C295 1.367 . S
C294 C302 1.378 . S
C295 C294 1.367 . S
C295 C303 1.433 . S
C296 H292 0.929 . S
C296 C298 1.378 . S
C296 C300 1.350 . S
C297 C300 1.463 . S
C297 C302 1.350 . S
C297 N305 1.427 . S
C298 H289 0.930 . S
C298 C296 1.378 . S
C298 C299 1.367 . S
C299 C298 1.367 . S
C299 C301 1.433 . S
C300 C296 1.350 . S
C300 C297 1.463 . S
C300 N304 1.427 . S
C301 H291 0.929 . S
C301 C299 1.433 . S
C301 N304 1.384 . S
C302 H293 0.929 . S
C302 C294 1.378 . S
C302 C297 1.350 . S
C303 H290 0.929 . S
C303 C295 1.433 . S
C303 N305 1.384 . S
N304 C300 1.427 . S
N304 C301 1.384 . S
N305 C297 1.427 . S
N305 C303 1.384 . S
H306 C312 0.930 . S
H307 C316 0.930 . S
H308 C321 0.929 . S
H309 C319 0.929 . S
H310 C314 0.929 . S
H311 C320 0.929 . S
C312 H306 0.930 . S
C312 C313 1.367 . S
C312 C320 1.378 . S
C313 C312 1.367 . S
C313 C321 1.433 1_554 S
C314 H310 0.929 . S
C314 C316 1.378 . S
C314 C318 1.350 . S
C315 C318 1.463 1_554 S
C315 C320 1.350 . S
C315 N323 1.427 1_554 S
C316 H307 0.930 . S
C316 C314 1.378 . S
C316 C317 1.367 . S
C317 C316 1.367 . S
C317 C319 1.433 1_556 S
C318 C314 1.350 . S
C318 C315 1.463 1_556 S
C318 N322 1.427 1_556 S
C319 H309 0.929 . S
C319 C317 1.433 1_554 S
C319 N322 1.384 . S
C320 H311 0.929 . S
C320 C312 1.378 . S
C320 C315 1.350 . S
C321 H308 0.929 . S
C321 C313 1.433 1_556 S
C321 N323 1.384 . S
N322 C318 1.427 1_554 S
N322 C319 1.384 . S
N323 C315 1.427 1_556 S
N323 C321 1.384 . S
H324 C330 0.930 . S
H325 C334 0.930 . S
H326 C339 0.929 . S
H327 C337 0.929 . S
H328 C332 0.929 . S
H329 C338 0.929 . S
C330 H324 0.930 . S
C330 C331 1.367 . S
C330 C338 1.378 . S
C331 C330 1.367 . S
C331 C339 1.433 1_556 S
C332 H328 0.929 . S
C332 C334 1.378 . S
C332 C336 1.350 1_554 S
C333 C336 1.463 . S
C333 C338 1.350 . S
C333 N341 1.427 1_556 S
C334 H325 0.930 . S
C334 C332 1.378 . S
C334 C335 1.367 . S
C335 C334 1.367 . S
C335 C337 1.433 1_554 S
C336 C332 1.350 1_556 S
C336 C333 1.463 . S
C336 N340 1.427 . S
C337 H327 0.929 . S
C337 C335 1.433 1_556 S
C337 N340 1.384 . S
C338 H329 0.929 . S
C338 C330 1.378 . S
C338 C333 1.350 . S
C339 H326 0.929 . S
C339 C331 1.433 1_554 S
C339 N341 1.384 . S
N340 C336 1.427 . S
N340 C337 1.384 . S
N341 C333 1.427 1_554 S
N341 C339 1.384 . S
H342 C348 0.930 . S
H343 C352 0.930 . S
H344 C357 0.929 . S
H345 C355 0.929 . S
H346 C350 0.929 . S
H347 C356 0.929 . S
C348 H342 0.930 . S
C348 C349 1.367 . S
C348 C356 1.378 . S
C349 C348 1.367 . S
C349 C357 1.433 1_556 S
C350 H346 0.929 . S
C350 C352 1.378 . S
C350 C354 1.350 1_554 S
C351 C354 1.463 . S
C351 C356 1.350 . S
C351 N359 1.427 1_556 S
C352 H343 0.930 . S
C352 C350 1.378 . S
C352 C353 1.367 1_554 S
C353 C352 1.367 1_556 S
C353 C355 1.433 . S
C354 C350 1.350 1_556 S
C354 C351 1.463 . S
C354 N358 1.427 . S
C355 H345 0.929 . S
C355 C353 1.433 . S
C355 N358 1.384 . S
C356 H347 0.929 . S
C356 C348 1.378 . S
C356 C351 1.350 . S
C357 H344 0.929 . S
C357 C349 1.433 1_554 S
C357 N359 1.384 . S
N358 C354 1.427 . S
N358 C355 1.384 . S
N359 C351 1.427 1_554 S
N359 C357 1.384 . S
H360 C366 0.930 . S
H361 C370 0.930 . S
H362 C375 0.929 . S
H363 C373 0.929 . S
H364 C368 0.929 . S
H365 C374 0.929 . S
C366 H360 0.930 . S
C366 C367 1.367 1_554 S
C366 C374 1.378 . S
C367 C366 1.367 1_556 S
C367 C375 1.433 . S
C368 H364 0.929 . S
C368 C370 1.378 . S
C368 C372 1.350 . S
C369 C372 1.463 . S
C369 C374 1.350 1_556 S
C369 N377 1.427 . S
C370 H361 0.930 . S
C370 C368 1.378 . S
C370 C371 1.367 1_556 S
C371 C370 1.367 1_554 S
C371 C373 1.433 . S
C372 C368 1.350 . S
C372 C369 1.463 . S
C372 N376 1.427 1_556 S
C373 H363 0.929 . S
C373 C371 1.433 . S
C373 N376 1.384 . S
C374 H365 0.929 . S
C374 C366 1.378 . S
C374 C369 1.350 1_554 S
C375 H362 0.929 . S
C375 C367 1.433 . S
C375 N377 1.384 . S
N376 C372 1.427 1_554 S
N376 C373 1.384 . S
N377 C369 1.427 . S
N377 C375 1.384 . S
H378 C384 0.933 . S
H379 C388 0.930 . S
H380 C393 0.929 . S
H381 C391 0.929 . S
H382 C386 0.929 . S
H383 C392 0.929 . S
C384 H378 0.933 . S
C384 C385 1.367 . S
C384 C392 1.378 1_556 S
C385 C384 1.367 . S
C385 C393 1.433 . S
C386 H382 0.929 . S
C386 C388 1.378 . S
C386 C390 1.350 . S
C387 C390 1.463 . S
C387 C392 1.350 . S
C387 N395 1.427 1_554 S
C388 H379 0.930 . S
C388 C386 1.378 . S
C388 C389 1.367 . S
C389 C388 1.367 . S
C389 C391 1.433 . S
C390 C386 1.350 . S
C390 C387 1.463 . S
C390 N394 1.427 . S
C391 H381 0.929 . S
C391 C389 1.433 . S
C391 N394 1.384 . S
C392 H383 0.929 . S
C392 C384 1.378 1_554 S
C392 C387 1.350 . S
C393 H380 0.929 . S
C393 C385 1.433 . S
C393 N395 1.384 . S
N394 C390 1.427 . S
N394 C391 1.384 . S
N395 C387 1.427 1_556 S
N395 C393 1.384 . S
H396 C402 0.930 . S
H397 C406 0.930 . S
H398 C411 0.929 . S
H399 C409 0.929 . S
H400 C404 0.929 . S
H401 C410 0.929 . S
C402 H396 0.930 . S
C402 C403 1.367 1_556 S
C402 C410 1.378 . S
C403 C402 1.367 1_554 S
C403 C411 1.433 . S
C404 H400 0.929 . S
C404 C406 1.378 . S
C404 C408 1.350 . S
C405 C408 1.463 . S
C405 C410 1.350 1_554 S
C405 N413 1.427 . S
C406 H397 0.930 . S
C406 C404 1.378 . S
C406 C407 1.367 . S
C407 C406 1.367 . S
C407 C409 1.433 1_554 S
C408 C404 1.350 . S
C408 C405 1.463 . S
C408 N412 1.427 1_554 S
C409 H399 0.929 . S
C409 C407 1.433 1_556 S
C409 N412 1.384 . S
C410 H401 0.929 . S
C410 C402 1.378 . S
C410 C405 1.350 1_556 S
C411 H398 0.929 . S
C411 C403 1.433 . S
C411 N413 1.384 . S
N412 C408 1.427 1_556 S
N412 C409 1.384 . S
N413 C405 1.427 . S
N413 C411 1.384 . S
C259 C63 1.480 . S
C263 C74 1.480 . S
C277 C147 1.522 . S
C281 C158 1.522 . S
C295 C242 1.476 . S
C299 C231 1.476 . S
C313 C67 2.306 . S
C317 C224 2.320 . S
C331 C153 0.807 . S
C335 C69 0.807 1_554 S
C349 C151 1.623 . S
C353 C237 1.480 1_556 S
C367 C56 2.306 . S
C371 C235 2.323 . S
C385 C58 0.782 1_556 S
C389 C142 0.780 . S
C403 C226 1.481 1_554 S
C407 C140 1.624 . S
