# Generated by pormake.
# Topology wjd, (6)-cn, num edge types: 1
# Building blocks:
#     Node 0, Type 0, BuildingBlock: KUMBOL_clean_sbu_0, # of connection points: 6
#     Node 1, Type 0, BuildingBlock: KUMBOL_clean_sbu_0, # of connection points: 6
#     Node 2, Type 0, BuildingBlock: KUMBOL_clean_sbu_0, # of connection points: 6
#     Node 3, Type 0, BuildingBlock: KUMBOL_clean_sbu_0, # of connection points: 6
#     Node 4, Type 0, BuildingBlock: KUMBOL_clean_sbu_0, # of connection points: 6
#     Node 5, Type 0, BuildingBlock: KUMBOL_clean_sbu_0, # of connection points: 6
#     Node 6, Type 0, BuildingBlock: KUMBOL_clean_sbu_0, # of connection points: 6
#     Node 7, Type 0, BuildingBlock: KUMBOL_clean_sbu_0, # of connection points: 6
#     Node 8, Type 0, BuildingBlock: KUMBOL_clean_sbu_0, # of connection points: 6
#     Node 9, Type 0, BuildingBlock: KUMBOL_clean_sbu_0, # of connection points: 6
#     Node 10, Type 0, BuildingBlock: KUMBOL_clean_sbu_0, # of connection points: 6
#     Node 11, Type 0, BuildingBlock: KUMBOL_clean_sbu_0, # of connection points: 6
#     Edge 12, Type (0, 0), BuildingBlock: XIVTED_clean_linker_0, # of connection points: 2
#     Edge 13, Type (0, 0), BuildingBlock: XIVTED_clean_linker_0, # of connection points: 2
#     Edge 14, Type (0, 0), BuildingBlock: XIVTED_clean_linker_0, # of connection points: 2
#     Edge 15, Type (0, 0), BuildingBlock: XIVTED_clean_linker_0, # of connection points: 2
#     Edge 16, Type (0, 0), BuildingBlock: XIVTED_clean_linker_0, # of connection points: 2
#     Edge 17, Type (0, 0), BuildingBlock: XIVTED_clean_linker_0, # of connection points: 2
#     Edge 18, Type (0, 0), BuildingBlock: XIVTED_clean_linker_0, # of connection points: 2
#     Edge 19, Type (0, 0), BuildingBlock: XIVTED_clean_linker_0, # of connection points: 2
#     Edge 20, Type (0, 0), BuildingBlock: XIVTED_clean_linker_0, # of connection points: 2
#     Edge 21, Type (0, 0), BuildingBlock: XIVTED_clean_linker_0, # of connection points: 2
#     Edge 22, Type (0, 0), BuildingBlock: XIVTED_clean_linker_0, # of connection points: 2
#     Edge 23, Type (0, 0), BuildingBlock: XIVTED_clean_linker_0, # of connection points: 2
#     Edge 24, Type (0, 0), BuildingBlock: XIVTED_clean_linker_0, # of connection points: 2
#     Edge 25, Type (0, 0), BuildingBlock: XIVTED_clean_linker_0, # of connection points: 2
#     Edge 26, Type (0, 0), BuildingBlock: XIVTED_clean_linker_0, # of connection points: 2
#     Edge 27, Type (0, 0), BuildingBlock: XIVTED_clean_linker_0, # of connection points: 2
#     Edge 28, Type (0, 0), BuildingBlock: XIVTED_clean_linker_0, # of connection points: 2
#     Edge 29, Type (0, 0), BuildingBlock: XIVTED_clean_linker_0, # of connection points: 2
#     Edge 30, Type (0, 0), BuildingBlock: XIVTED_clean_linker_0, # of connection points: 2
#     Edge 31, Type (0, 0), BuildingBlock: XIVTED_clean_linker_0, # of connection points: 2
#     Edge 32, Type (0, 0), BuildingBlock: XIVTED_clean_linker_0, # of connection points: 2
#     Edge 33, Type (0, 0), BuildingBlock: XIVTED_clean_linker_0, # of connection points: 2
#     Edge 34, Type (0, 0), BuildingBlock: XIVTED_clean_linker_0, # of connection points: 2
#     Edge 35, Type (0, 0), BuildingBlock: XIVTED_clean_linker_0, # of connection points: 2
#     Edge 36, Type (0, 0), BuildingBlock: XIVTED_clean_linker_0, # of connection points: 2
#     Edge 37, Type (0, 0), BuildingBlock: XIVTED_clean_linker_0, # of connection points: 2
#     Edge 38, Type (0, 0), BuildingBlock: XIVTED_clean_linker_0, # of connection points: 2
#     Edge 39, Type (0, 0), BuildingBlock: XIVTED_clean_linker_0, # of connection points: 2
#     Edge 40, Type (0, 0), BuildingBlock: XIVTED_clean_linker_0, # of connection points: 2
#     Edge 41, Type (0, 0), BuildingBlock: XIVTED_clean_linker_0, # of connection points: 2
#     Edge 42, Type (0, 0), BuildingBlock: XIVTED_clean_linker_0, # of connection points: 2
#     Edge 43, Type (0, 0), BuildingBlock: XIVTED_clean_linker_0, # of connection points: 2
#     Edge 44, Type (0, 0), BuildingBlock: XIVTED_clean_linker_0, # of connection points: 2
#     Edge 45, Type (0, 0), BuildingBlock: XIVTED_clean_linker_0, # of connection points: 2
#     Edge 46, Type (0, 0), BuildingBlock: XIVTED_clean_linker_0, # of connection points: 2
#     Edge 47, Type (0, 0), BuildingBlock: XIVTED_clean_linker_0, # of connection points: 2
# Relax obj value: 0.097
# Max RMSD: 0.214
# Mean RMSD: 0.214
data_MOF--net-wjd--node1-KUMBOL_clean_sbu_0--edge1-XIVTED_clean_linker_0
_symmetry_space_group_name_H-M    P1
_symmetry_Int_Tables_number       1
_symmetry_cell_setting            triclinic
loop_
_symmetry_equiv_pos_as_xyz
'x, y, z'
_cell_length_a     38.419649
_cell_length_b     38.513407
_cell_length_c     55.227864
_cell_angle_alpha  89.943368
_cell_angle_beta   90.003651
_cell_angle_gamma 120.02658
loop_
_atom_site_label
_atom_site_type_symbol
_atom_site_fract_x
_atom_site_fract_y
_atom_site_fract_z
_atom_type_partial_charge
Gd0 Gd 0.3323 0.09154 0.13539 0.0
Gd1 Gd 0.37355 0.19238 0.10707 0.0
C2 C 0.29699 0.24927 0.08867 0.0
C3 C 0.29296 0.24405 0.0448 0.0
C4 C 0.33032 0.21914 0.06743 0.0
C5 C 0.31949 0.22943 0.08891 0.0
C6 C 0.31812 0.22732 0.04508 0.0
C7 C 0.28253 0.25516 0.06659 0.0
C8 C 0.29145 0.26436 0.11046 0.0
C9 C 0.30924 0.26061 0.13159 0.0
N10 N 0.33464 0.22396 0.10984 0.0
C11 C 0.33119 0.2406 0.1309 0.0
H12 H 0.34482 0.23804 0.14737 0.0
C13 C 0.37324 0.20077 0.04764 0.0
N14 N 0.35608 0.20477 0.06838 0.0
C15 C 0.36146 0.20766 0.02501 0.0
C16 C 0.33327 0.22039 0.0237 0.0
H17 H 0.39503 0.19087 0.04858 0.0
H18 H 0.26462 0.26971 0.06609 0.0
H19 H 0.37613 0.05747 0.09645 0.0
H20 H 0.27444 0.27985 0.11105 0.0
H21 H 0.30589 0.27294 0.14845 0.0
H22 H 0.2829 0.25016 0.02782 0.0
H23 H 0.30105 0.08859 0.19243 0.0
H24 H 0.43659 1.0092 0.13707 0.0
H25 H 0.41818 0.02626 0.09774 0.0
H26 H 0.39791 1.01417 0.21882 0.0
H27 H 0.37422 0.20328 0.00862 0.0
H28 H 0.32457 0.22622 0.00617 0.0
H29 H 0.42889 1.00485 0.18225 0.0
H30 H 0.30828 0.06493 0.23246 0.0
N31 N 0.37223 0.06076 0.13482 0.0
C32 C 0.41842 0.02347 0.13666 0.0
C33 C 0.408 0.03294 0.11445 0.0
C34 C 0.40396 0.03114 0.15803 0.0
C35 C 0.38063 0.05005 0.15649 0.0
C36 C 0.3841 0.05087 0.11385 0.0
N37 N 0.34036 0.07271 0.17468 0.0
C38 C 0.36376 0.05577 0.17705 0.0
C39 C 0.32435 0.0625 0.21707 0.0
C40 C 0.34877 0.0455 0.21981 0.0
C41 C 0.32027 0.07581 0.19426 0.0
C42 C 0.36904 0.04216 0.19973 0.0
H43 H 0.35103 0.03413 0.23732 0.0
O44 O 0.26856 0.05262 0.14292 0.0
O45 O 0.32 0.1391 0.12198 0.0
O46 O 0.37363 0.19373 0.1492 0.0
O47 O 0.37459 0.13623 0.16217 0.0
O48 O 0.2908 0.10971 0.15334 0.0
O49 O 0.29816 0.03414 0.11706 0.0
O50 O 0.43171 0.23749 0.09244 0.0
O51 O 0.38694 0.14596 0.12093 0.0
O52 O 0.33786 0.09022 0.09496 0.0
O53 O 0.3313 0.14295 0.08012 0.0
O54 O 0.41681 0.1763 0.08991 0.0
O55 O 0.41165 0.24814 0.12652 0.0
C56 C 0.29511 0.13653 0.13785 0.0
C57 C 0.39326 0.02451 0.20152 0.0
C58 C 0.41091 0.01923 0.18071 0.0
C59 C 0.26474 0.02438 0.12841 0.0
C60 C 0.24124 0.98308 0.1378 0.0
C61 C 0.26022 0.96544 0.1503 0.0
C62 C 0.19905 0.96157 0.13499 0.0
C63 C 0.17582 0.92275 0.1449 0.0
C64 C 0.23751 0.92687 0.15984 0.0
C65 C 0.19572 0.90571 0.15725 0.0
C66 C 0.37979 0.17242 0.1661 0.0
C67 C 0.41305 0.14978 0.1055 0.0
C68 C 0.43909 0.26338 0.10969 0.0
C69 C 0.45188 0.30518 0.10201 0.0
C70 C 0.42419 0.31263 0.08995 0.0
C71 C 0.49134 0.33771 0.10623 0.0
C72 C 0.5025 0.37691 0.09799 0.0
C73 C 0.43471 0.35112 0.08237 0.0
C74 C 0.47341 0.38293 0.0863 0.0
C75 C 0.32626 0.10616 0.07791 0.0
H76 H 0.29252 0.98155 0.15276 0.0
H77 H 0.18431 0.97546 0.12565 0.0
H78 H 0.25235 0.91336 0.16942 0.0
H79 H 0.17893 0.87581 0.16484 0.0
H80 H 0.39434 0.28861 0.08621 0.0
H81 H 0.51332 0.33242 0.11522 0.0
H82 H 0.41279 0.35625 0.07317 0.0
H83 H 0.48076 0.4125 0.08002 0.0
Gd84 Gd 0.85439 0.66952 0.40123 0.0
Gd85 Gd 0.79298 0.71039 0.37492 0.0
C86 C 0.66235 0.63226 0.35103 0.0
C87 C 0.6677 0.63932 0.30725 0.0
C88 C 0.72721 0.67507 0.33248 0.0
C89 C 0.70425 0.6582 0.35297 0.0
C90 C 0.70912 0.66632 0.30939 0.0
C91 C 0.64434 0.6223 0.32804 0.0
C92 C 0.63968 0.61796 0.37227 0.0
C93 C 0.65864 0.63079 0.39467 0.0
N94 N 0.72256 0.66872 0.37488 0.0
C95 C 0.70023 0.65676 0.39563 0.0
H96 H 0.71438 0.66637 0.4131 0.0
C97 C 0.79029 0.72127 0.3156 0.0
N98 N 0.76712 0.70115 0.33521 0.0
C99 C 0.77375 0.71341 0.29234 0.0
C100 C 0.73308 0.68555 0.2892 0.0
H101 H 0.8218 0.74272 0.31763 0.0
H102 H 0.61227 0.60217 0.32618 0.0
H103 H 0.92649 0.6977 0.35909 0.0
H104 H 0.60746 0.59788 0.37157 0.0
H105 H 0.64129 0.6206 0.41122 0.0
H106 H 0.65332 0.632 0.28965 0.0
H107 H 0.83494 0.64862 0.46008 0.0
H108 H 0.04089 0.76854 0.39289 0.0
H109 H 1.00019 0.73677 0.35631 0.0
H110 H 1.00795 0.75989 0.47711 0.0
H111 H 0.79242 0.7288 0.27685 0.0
H112 H 0.72032 0.67964 0.2712 0.0
H113 H 0.0434 0.77818 0.43798 0.0
H114 H 0.87068 0.66963 0.49929 0.0
N115 N 0.92475 0.70839 0.3968 0.0
C116 C 1.0084 0.75151 0.39424 0.0
C117 C 0.98554 0.73357 0.37357 0.0
C118 C 0.98911 0.74586 0.41658 0.0
C119 C 0.94673 0.72328 0.41732 0.0
C120 C 0.94358 0.71161 0.37522 0.0
N121 N 0.88675 0.68686 0.4392 0.0
C122 C 0.92698 0.71235 0.43927 0.0
C123 C 0.88686 0.68207 0.48256 0.0
C124 C 0.92798 0.70989 0.48299 0.0
C125 C 0.86677 0.67016 0.46036 0.0
C126 C 0.94878 0.72466 0.46116 0.0
H127 H 0.94361 0.71868 0.50019 0.0
O128 O 0.84761 0.61392 0.41629 0.0
O129 O 0.79388 0.65647 0.38919 0.0
O130 O 0.78699 0.70477 0.41546 0.0
O131 O 0.8469 0.71013 0.42898 0.0
O132 O 0.79533 0.62503 0.41891 0.0
O133 O 0.86545 0.62932 0.37907 0.0
O134 O 0.81817 0.7745 0.36982 0.0
O135 O 0.85374 0.7232 0.38738 0.0
O136 O 0.85476 0.67083 0.35924 0.0
O137 O 0.79446 0.6676 0.34823 0.0
O138 O 0.85195 0.75286 0.3566 0.0
O139 O 0.76455 0.74157 0.39131 0.0
C140 C 0.77188 0.62968 0.4043 0.0
C141 C 0.99071 0.74978 0.4605 0.0
C142 C 1.01088 0.76025 0.43822 0.0
C143 C 0.85951 0.60427 0.39661 0.0
C144 C 0.89028 0.59188 0.39926 0.0
C145 C 0.93007 0.62063 0.40489 0.0
C146 C 0.8807 0.55172 0.39525 0.0
C147 C 0.91117 0.54122 0.39606 0.0
C148 C 0.96011 0.61042 0.40557 0.0
C149 C 0.95087 0.57115 0.40099 0.0
C150 C 0.81456 0.71384 0.4323 0.0
C151 C 0.87532 0.74854 0.37144 0.0
C152 C 0.79003 0.77618 0.38185 0.0
C153 C 0.77371 0.79942 0.37012 0.0
C154 C 0.74448 0.78187 0.35203 0.0
C155 C 0.78993 0.84044 0.37565 0.0
C156 C 0.77775 0.86439 0.36274 0.0
C157 C 0.73205 0.80497 0.33926 0.0
C158 C 0.74873 0.84578 0.3443 0.0
C159 C 0.82579 0.66341 0.34322 0.0
H160 H 0.93814 0.65109 0.40867 0.0
H161 H 0.84999 0.52897 0.39125 0.0
H162 H 0.99073 0.63309 0.40976 0.0
H163 H 0.97467 0.56386 0.40191 0.0
H164 H 0.73185 0.75052 0.34745 0.0
H165 H 0.81219 0.85346 0.38988 0.0
H166 H 0.70989 0.79135 0.32502 0.0
H167 H 0.7393 0.86274 0.3332 0.0
Gd168 Gd 0.95027 0.24742 0.13393 0.0
Gd169 Gd 0.84881 0.18688 0.10678 0.0
C170 C 0.79215 0.05344 0.089 0.0
C171 C 0.79589 0.05412 0.04507 0.0
C172 C 0.82119 0.11655 0.06743 0.0
C173 C 0.81183 0.09573 0.08903 0.0
C174 C 0.81229 0.09591 0.04517 0.0
C175 C 0.78567 0.03287 0.06697 0.0
C176 C 0.77768 0.03303 0.11094 0.0
C177 C 0.78184 0.05473 0.13202 0.0
N178 N 0.81777 0.11654 0.10991 0.0
C179 C 0.80169 0.09664 0.13113 0.0
H180 H 0.80457 0.11294 0.14757 0.0
C181 C 0.83803 0.17729 0.04749 0.0
N182 N 0.83518 0.15656 0.06824 0.0
C183 C 0.83038 0.15836 0.02495 0.0
C184 C 0.81809 0.1176 0.02374 0.0
H185 H 0.8476 0.20886 0.04835 0.0
H186 H 0.77127 1.00045 0.06663 0.0
H187 H 0.98012 0.32379 0.0939 0.0
H188 H 0.7623 1.00057 0.1117 0.0
H189 H 0.76996 0.03921 0.14901 0.0
H190 H 0.78927 0.03777 0.02816 0.0
H191 H 0.95461 0.22123 0.1912 0.0
H192 H 0.03143 0.43381 0.13306 0.0
H193 H 1.01132 0.39689 0.0943 0.0
H194 H 0.03061 0.39335 0.21516 0.0
H195 H 0.83386 0.17518 0.00853 0.0
H196 H 0.81168 0.10286 0.00628 0.0
H197 H 0.03845 0.4322 0.17813 0.0
H198 H 0.97928 0.25354 0.23081 0.0
N199 N 0.98057 0.318 0.13233 0.0
C200 C 1.01737 0.40141 0.13307 0.0
C201 C 1.00616 0.3807 0.11117 0.0
C202 C 1.01127 0.38014 0.15466 0.0
C203 C 0.99257 0.33793 0.15369 0.0
C204 C 0.98833 0.33892 0.11109 0.0
N205 N 0.97038 0.27575 0.17275 0.0
C206 C 0.98763 0.31614 0.17452 0.0
C207 C 0.98154 0.27148 0.21516 0.0
C208 C 0.99884 0.31297 0.2173 0.0
C209 C 0.96765 0.25329 0.19261 0.0
C210 C 1.00191 0.33584 0.1969 0.0
H211 H 1.01059 0.32721 0.2346 0.0
O212 O 0.99011 0.22388 0.14184 0.0
O213 O 0.90282 0.18715 0.12094 0.0
O214 O 0.84838 0.18608 0.14891 0.0
O215 O 0.90613 0.24502 0.16112 0.0
O216 O 0.93268 0.18826 0.15231 0.0
O217 O 1.00711 0.27018 0.11486 0.0
O218 O 0.80267 0.19872 0.09259 0.0
O219 O 0.895 0.24694 0.12042 0.0
O220 O 0.95051 0.25359 0.09351 0.0
O221 O 0.89734 0.19424 0.07909 0.0
O222 O 0.86434 0.24603 0.08961 0.0
O223 O 0.79363 0.16917 0.127 0.0
C224 C 0.90582 0.16532 0.13696 0.0
C225 C 1.01971 0.37774 0.19809 0.0
C226 C 1.02418 0.39984 0.17702 0.0
C227 C 1.01773 0.24766 0.12672 0.0
C228 C 0.0595 0.26662 0.13555 0.0
C229 C 0.0777 0.30461 0.14638 0.0
C230 C 0.08104 0.24589 0.13379 0.0
C231 C 0.12045 0.26281 0.14307 0.0
C232 C 0.11685 0.32177 0.15529 0.0
C233 C 0.13806 0.30112 0.15371 0.0
C234 C 0.87 0.21404 0.16546 0.0
C235 C 0.89071 0.26916 0.10518 0.0
C236 C 0.7775 0.18051 0.11027 0.0
C237 C 0.7355 0.15084 0.10332 0.0
C238 C 0.72791 0.11546 0.09163 0.0
C239 C 0.70286 0.15732 0.10802 0.0
C240 C 0.66334 0.12857 0.10064 0.0
C241 C 0.68909 0.08675 0.08493 0.0
C242 C 0.6571 0.09317 0.08937 0.0
C243 C 0.93401 0.22611 0.07652 0.0
H244 H 0.06161 0.32091 0.14803 0.0
H245 H 0.06673 0.21625 0.12576 0.0
H246 H 0.13079 0.35117 0.16357 0.0
H247 H 0.16843 0.31528 0.16075 0.0
H248 H 0.75203 0.11001 0.08751 0.0
H249 H 0.7083 0.18481 0.1167 0.0
H250 H 0.68382 0.05951 0.07603 0.0
H251 H 0.62725 0.07039 0.08377 0.0
Gd252 Gd 0.37716 0.19468 0.40345 0.0
Gd253 Gd 0.33287 0.09762 0.37009 0.0
C254 C 0.40917 0.04491 0.34317 0.0
C255 C 0.41199 0.05741 0.29986 0.0
C256 C 0.37197 0.07443 0.32613 0.0
C257 C 0.38409 0.06162 0.34603 0.0
C258 C 0.38559 0.07239 0.30277 0.0
C259 C 0.42356 0.04344 0.32003 0.0
C260 C 0.41845 0.0296 0.3636 0.0
C261 C 0.40196 0.03031 0.38599 0.0
N262 N 0.37014 0.06419 0.36811 0.0
C263 C 0.3775 0.04754 0.38789 0.0
H264 H 0.36554 0.04832 0.40539 0.0
C265 C 0.33096 0.09862 0.31029 0.0
N266 N 0.34644 0.08863 0.32964 0.0
C267 C 0.34403 0.0977 0.28679 0.0
C268 C 0.37216 0.08538 0.28309 0.0
H269 H 0.31011 0.1093 0.31297 0.0
H270 H 0.44322 0.03112 0.31749 0.0
H271 H 0.34815 0.24623 0.3682 0.0
H272 H 0.43763 0.01652 0.36221 0.0
H273 H 0.40843 0.018 0.40185 0.0
H274 H 0.42298 0.0558 0.28207 0.0
H275 H 0.40119 0.18496 0.46033 0.0
H276 H 0.28203 0.28582 0.41121 0.0
H277 H 0.31049 0.28235 0.37171 0.0
H278 H 0.29583 0.24745 0.49157 0.0
H279 H 0.33309 0.10736 0.27164 0.0
H280 H 0.38328 0.08597 0.26502 0.0
H281 H 0.27572 0.27161 0.45592 0.0
H282 H 0.38442 0.19445 0.50207 0.0
N283 N 0.34018 0.22831 0.40519 0.0
C284 C 0.29851 0.26987 0.40977 0.0
C285 C 0.31465 0.2681 0.38748 0.0
C286 C 0.30529 0.25245 0.43015 0.0
C287 C 0.32699 0.23207 0.42727 0.0
C288 C 0.33593 0.24751 0.38557 0.0
N289 N 0.36255 0.20284 0.44382 0.0
C290 C 0.33836 0.21866 0.44727 0.0
C291 C 0.37101 0.20111 0.48683 0.0
C292 C 0.34421 0.21509 0.49067 0.0
C293 C 0.38047 0.1958 0.46317 0.0
C294 C 0.32826 0.22497 0.47078 0.0
H295 H 0.3372 0.21951 0.50901 0.0
O296 O 0.43852 0.23432 0.41572 0.0
O297 O 0.38726 0.14784 0.3871 0.0
O298 O 0.33494 0.08933 0.41039 0.0
O299 O 0.33418 0.14329 0.42893 0.0
O300 O 0.41907 0.17427 0.41816 0.0
O301 O 0.41383 0.25457 0.38783 0.0
O302 O 0.27134 0.05962 0.35769 0.0
O303 O 0.32271 0.14524 0.38598 0.0
O304 O 0.37799 0.2016 0.36159 0.0
O305 O 0.38112 0.14621 0.34754 0.0
O306 O 0.29375 0.11999 0.35378 0.0
O307 O 0.29435 0.03988 0.38715 0.0
C308 C 0.41278 0.14815 0.40169 0.0
C309 C 0.30429 0.24275 0.47368 0.0
C310 C 0.29284 0.25651 0.45338 0.0
C311 C 0.44404 0.26463 0.40239 0.0
C312 C 0.46032 0.30387 0.415 0.0
C313 C 0.44306 0.30545 0.43703 0.0
C314 C 0.49331 0.33964 0.40566 0.0
C315 C 0.50867 0.3765 0.41846 0.0
C316 C 0.45814 0.34119 0.44979 0.0
C317 C 0.49066 0.37617 0.44078 0.0
C318 C 0.3267 0.10545 0.42907 0.0
C319 C 0.29857 0.14535 0.3704 0.0
C320 C 0.26367 0.03112 0.37317 0.0
C321 C 0.2407 0.98967 0.36403 0.0
C322 C 0.26009 0.97267 0.35136 0.0
C323 C 0.19871 0.96706 0.36771 0.0
C324 C 0.17602 0.9277 0.35849 0.0
C325 C 0.23796 0.93362 0.34246 0.0
C326 C 0.19635 0.91133 0.34592 0.0
C327 C 0.38617 0.18242 0.34436 0.0
H328 H 0.41818 0.27884 0.44466 0.0
H329 H 0.50663 0.33872 0.38856 0.0
H330 H 0.44479 0.3417 0.46695 0.0
H331 H 0.50209 0.40297 0.45174 0.0
H332 H 0.29226 0.98963 0.34833 0.0
H333 H 0.18369 0.98043 0.37726 0.0
H334 H 0.25311 0.92057 0.33275 0.0
H335 H 0.18008 0.88106 0.33886 0.0
Gd336 Gd 0.793 0.7092 0.13188 0.0
Gd337 Gd 0.85458 0.66827 0.10624 0.0
C338 C 0.99072 0.74453 0.09498 0.0
C339 C 0.99608 0.75007 0.05116 0.0
C340 C 0.9306 0.71206 0.07046 0.0
C341 C 0.94843 0.72212 0.09296 0.0
C342 C 0.95425 0.725 0.04926 0.0
C343 C 1.01432 0.75971 0.07401 0.0
C344 C 1.00806 0.74925 0.11787 0.0
C345 C 0.98344 0.73059 0.13784 0.0
N346 N 0.92468 0.70646 0.11278 0.0
C347 C 0.94168 0.7088 0.13491 0.0
H348 H 0.92335 0.6943 0.15054 0.0
C349 C 0.87237 0.6703 0.0477 0.0
N350 N 0.89043 0.68659 0.06937 0.0
C351 C 0.89432 0.68281 0.02613 0.0
C352 C 0.93538 0.71079 0.02687 0.0
H353 H 0.84061 0.6486 0.04707 0.0
H354 H 0.04677 0.77759 0.07524 0.0
H355 H 0.72133 0.67156 0.08857 0.0
H356 H 0.0404 0.76613 0.1202 0.0
H357 H 0.99659 0.73306 0.15553 0.0
H358 H 1.01472 0.7607 0.03508 0.0
H359 H 0.81203 0.73318 0.19049 0.0
H360 H 0.60728 0.60117 0.12281 0.0
H361 H 0.64821 0.62777 0.08567 0.0
H362 H 0.63859 0.62353 0.20736 0.0
H363 H 0.87961 0.67073 0.00897 0.0
H364 H 0.95246 0.72007 0.01016 0.0
H365 H 0.60401 0.59955 0.16825 0.0
H366 H 0.77556 0.71495 0.22945 0.0
N367 N 0.72274 0.66931 0.12712 0.0
C368 C 0.63956 0.62045 0.12424 0.0
C369 C 0.66254 0.63548 0.10326 0.0
C370 C 0.65839 0.63145 0.14685 0.0
C371 C 0.70054 0.65648 0.14769 0.0
C372 C 0.70421 0.66044 0.10504 0.0
N373 N 0.76017 0.69523 0.16958 0.0
C374 C 0.71986 0.66996 0.16963 0.0
C375 C 0.75954 0.70202 0.21276 0.0
C376 C 0.71827 0.6748 0.21316 0.0
C377 C 0.78007 0.71237 0.19064 0.0
C378 C 0.6978 0.65879 0.19142 0.0
H379 H 0.70229 0.66685 0.23022 0.0
O380 O 0.81512 0.77078 0.14332 0.0
O381 O 0.85407 0.72202 0.12023 0.0
O382 O 0.85263 0.66781 0.14816 0.0
O383 O 0.79192 0.66431 0.15806 0.0
O384 O 0.85095 0.74881 0.15201 0.0
O385 O 0.77278 0.74613 0.11371 0.0
O386 O 0.84721 0.61265 0.09083 0.0
O387 O 0.7935 0.65531 0.1173 0.0
O388 O 0.79253 0.71083 0.0912 0.0
O389 O 0.84969 0.70975 0.07792 0.0
O390 O 0.7968 0.62724 0.08648 0.0
O391 O 0.86308 0.62622 0.12834 0.0
C392 C 0.87488 0.74589 0.13691 0.0
C393 C 0.65603 0.6327 0.19079 0.0
C394 C 0.63635 0.61903 0.16853 0.0
C395 C 0.79402 0.77731 0.12745 0.0
C396 C 0.77484 0.79993 0.13604 0.0
C397 C 0.73667 0.7801 0.14676 0.0
C398 C 0.79568 0.84216 0.13417 0.0
C399 C 0.7787 0.86463 0.14327 0.0
C400 C 0.71943 0.80207 0.15549 0.0
C401 C 0.7402 0.84392 0.15384 0.0
C402 C 0.82302 0.66013 0.16371 0.0
C403 C 0.77247 0.63072 0.10096 0.0
C404 C 0.85778 0.60183 0.11058 0.0
C405 C 0.88848 0.58924 0.10828 0.0
C406 C 0.92846 0.61805 0.10312 0.0
C407 C 0.87871 0.54895 0.11213 0.0
C408 C 0.90918 0.53839 0.11162 0.0
C409 C 0.95846 0.60781 0.10269 0.0
C410 C 0.94904 0.56842 0.1071 0.0
C411 C 0.82044 0.71843 0.07482 0.0
H412 H 0.72035 0.74773 0.14847 0.0
H413 H 0.82548 0.85749 0.12621 0.0
H414 H 0.68989 0.78661 0.1637 0.0
H415 H 0.72599 0.8601 0.16074 0.0
H416 H 0.93668 0.64862 0.09952 0.0
H417 H 0.84787 0.52617 0.11582 0.0
H418 H 0.98921 0.63054 0.09885 0.0
H419 H 0.97288 0.56117 0.10638 0.0
Gd420 Gd 0.84586 0.18908 0.4029 0.0
Gd421 Gd 0.94464 0.24581 0.37145 0.0
C422 C 0.9988 0.37562 0.34585 0.0
C423 C 0.99152 0.3677 0.30217 0.0
C424 C 0.97129 0.30964 0.32811 0.0
C425 C 0.98199 0.33378 0.34832 0.0
C426 C 0.976 0.32624 0.30477 0.0
C427 C 1.00311 0.39239 0.32268 0.0
C428 C 1.01099 0.39932 0.36673 0.0
C429 C 1.00684 0.38123 0.38927 0.0
N430 N 0.97657 0.31641 0.37041 0.0
C431 C 0.98975 0.33958 0.39078 0.0
H432 H 0.98638 0.32622 0.40838 0.0
C433 C 0.9481 0.24506 0.31175 0.0
N434 N 0.95642 0.26978 0.3313 0.0
C435 C 0.95165 0.25998 0.28824 0.0
C436 C 0.965 0.30065 0.28476 0.0
H437 H 0.93686 0.21342 0.31423 0.0
H438 H 1.01561 0.42442 0.32042 0.0
H439 H 0.79612 0.10957 0.36666 0.0
H440 H 1.02399 0.43156 0.36562 0.0
H441 H 1.01649 0.39931 0.40552 0.0
H442 H 0.99519 0.38101 0.28438 0.0
H443 H 0.8538 0.2206 0.46025 0.0
H444 H 0.75599 1.00273 0.40855 0.0
H445 H 0.76013 0.03581 0.3694 0.0
H446 H 0.79259 0.05223 0.48949 0.0
H447 H 0.94345 0.24 0.27286 0.0
H448 H 0.96678 0.312 0.26663 0.0
H449 H 0.76943 1.00922 0.45332 0.0
H450 H 0.844 0.19298 0.50164 0.0
N451 N 0.81299 0.11849 0.40383 0.0
C452 C 0.7718 0.03517 0.40748 0.0
C453 C 0.77397 0.05373 0.38537 0.0
C454 C 0.78869 0.05872 0.42813 0.0
C455 C 0.80881 0.10085 0.42573 0.0
C456 C 0.79451 0.09561 0.3839 0.0
N457 N 0.83685 0.16492 0.44304 0.0
C458 C 0.82149 0.12492 0.44602 0.0
C459 C 0.83779 0.17353 0.48616 0.0
C460 C 0.8242 0.13278 0.48952 0.0
C461 C 0.84324 0.18905 0.46269 0.0
C462 C 0.81492 0.10772 0.46934 0.0
H463 H 0.8196 0.12074 0.50773 0.0
O464 O 0.80438 0.20832 0.41532 0.0
O465 O 0.89195 0.24758 0.38721 0.0
O466 O 0.94968 0.25473 0.41185 0.0
O467 O 0.8967 0.19707 0.42862 0.0
O468 O 0.86411 0.24988 0.41855 0.0
O469 O 0.78681 0.16595 0.38607 0.0
O470 O 0.98509 0.22465 0.36002 0.0
O471 O 0.8974 0.18722 0.38635 0.0
O472 O 0.84113 0.18381 0.36101 0.0
O473 O 0.89641 0.2433 0.34752 0.0
O474 O 0.92517 0.18487 0.35493 0.0
O475 O 1.0015 0.26601 0.38999 0.0
C476 C 0.88987 0.27136 0.4022 0.0
C477 C 0.7975 0.06598 0.47175 0.0
C478 C 0.78432 0.04149 0.45116 0.0
C479 C 0.77518 0.18423 0.40104 0.0
C480 C 0.73524 0.15944 0.41263 0.0
C481 C 0.73262 0.13868 0.43403 0.0
C482 C 0.69978 0.15681 0.40291 0.0
C483 C 0.66212 0.13354 0.41471 0.0
C484 C 0.696 0.11615 0.4458 0.0
C485 C 0.66125 0.11379 0.43642 0.0
C486 C 0.93378 0.22872 0.42978 0.0
C487 C 0.89902 0.16365 0.3711 0.0
C488 C 1.0123 0.24555 0.37618 0.0
C489 C 0.05454 0.26585 0.36803 0.0
C490 C 0.07165 0.30346 0.35677 0.0
C491 C 0.07791 0.2472 0.3713 0.0
C492 C 0.11814 0.2659 0.36309 0.0
C493 C 0.11151 0.32237 0.34892 0.0
C494 C 0.13456 0.30385 0.352 0.0
C495 C 0.86064 0.21147 0.34394 0.0
H496 H 0.75904 0.14033 0.44194 0.0
H497 H 0.70159 0.17257 0.38629 0.0
H498 H 0.69462 0.10075 0.46249 0.0
H499 H 0.63369 0.09692 0.44662 0.0
H500 H 0.05417 0.31816 0.35406 0.0
H501 H 0.0645 0.21787 0.37972 0.0
H502 H 0.12461 0.35151 0.34033 0.0
H503 H 0.16544 0.31943 0.34578 0.0
Gd504 Gd 0.20204 0.37135 0.60596 0.0
Gd505 Gd 0.10475 0.31348 0.63626 0.0
C506 C 0.05636 0.3986 0.65133 0.0
C507 C 0.07526 0.41669 0.69333 0.0
C508 C 0.08855 0.36806 0.67345 0.0
C509 C 0.0727 0.3729 0.65212 0.0
C510 C 0.08849 0.38873 0.69456 0.0
C511 C 0.05915 0.42157 0.67173 0.0
C512 C 0.03646 0.39944 0.63035 0.0
C513 C 0.03148 0.37361 0.61133 0.0
N514 N 0.07049 0.35027 0.6327 0.0
C515 C 0.04821 0.34873 0.61292 0.0
H516 H 0.04279 0.32847 0.59813 0.0
C517 C 0.10663 0.32765 0.69612 0.0
N518 N 0.10027 0.34021 0.67416 0.0
C519 C 0.10772 0.3477 0.71743 0.0
C520 C 0.09976 0.37922 0.71655 0.0
H521 H 0.11229 0.30288 0.69731 0.0
H522 H 0.0475 0.44203 0.67127 0.0
H523 H 0.24912 0.35 0.64917 0.0
H524 H 1.02354 0.41874 0.62903 0.0
H525 H 1.01474 0.37285 0.59538 0.0
H526 H 0.07568 0.43332 0.70924 0.0
H527 H 0.20257 0.38803 0.54618 0.0
H528 H 0.29871 0.28253 0.61814 0.0
H529 H 0.28784 0.31515 0.65361 0.0
H530 H 0.27049 0.28143 0.53362 0.0
H531 H 0.11483 0.33887 0.73449 0.0
H532 H 0.1005 0.39467 0.73309 0.0
H533 H 0.29058 0.26862 0.57345 0.0
H534 H 0.21759 0.36484 0.50787 0.0
N535 N 0.23741 0.33675 0.61169 0.0
C536 C 0.28172 0.29787 0.61609 0.0
C537 C 0.27571 0.3163 0.63613 0.0
C538 C 0.26686 0.30061 0.59347 0.0
C539 C 0.24513 0.32115 0.59177 0.0
C540 C 0.25346 0.33581 0.63358 0.0
N541 N 0.21668 0.35166 0.56848 0.0
C542 C 0.23391 0.32839 0.56944 0.0
C543 C 0.22184 0.35391 0.52504 0.0
C544 C 0.23656 0.32733 0.52572 0.0
C545 C 0.21314 0.36675 0.5467 0.0
C546 C 0.24396 0.31522 0.54811 0.0
H547 H 0.24385 0.31786 0.50893 0.0
O548 O 0.23932 0.43076 0.59018 0.0
O549 O 0.15158 0.37553 0.62363 0.0
O550 O 0.09251 0.31193 0.59662 0.0
O551 O 0.15397 0.33362 0.57721 0.0
O552 O 0.17177 0.40221 0.58972 0.0
O553 O 0.26172 0.41299 0.62043 0.0
O554 O 0.07632 0.26118 0.65965 0.0
O555 O 0.16163 0.31478 0.62537 0.0
O556 O 0.2064 0.38505 0.6467 0.0
O557 O 0.15502 0.32547 0.66203 0.0
O558 O 0.10879 0.26414 0.61648 0.0
O559 O 0.04254 0.26708 0.63006 0.0
C560 C 0.14763 0.39687 0.6074 0.0
C561 C 0.263 0.29226 0.54979 0.0
C562 C 0.2745 0.28502 0.57245 0.0
C563 C 0.27027 0.44014 0.60397 0.0
C564 C 0.31002 0.45639 0.59181 0.0
C565 C 0.31249 0.44052 0.56947 0.0
C566 C 0.34571 0.48773 0.60225 0.0
C567 C 0.38328 0.50289 0.59021 0.0
C568 C 0.34897 0.45549 0.55743 0.0
C569 C 0.38389 0.48646 0.56752 0.0
C570 C 0.11401 0.31646 0.57708 0.0
C571 C 0.14723 0.28031 0.61611 0.0
C572 C 0.04238 0.24481 0.64788 0.0
C573 C 1.00498 0.22185 0.66184 0.0
C574 C 0.99817 0.23718 0.68314 0.0
C575 C 0.97676 0.18271 0.65428 0.0
C576 C 0.94226 0.15795 0.66833 0.0
C577 C 0.96407 0.21335 0.69706 0.0
C578 C 0.93666 0.17406 0.68997 0.0
C579 C 0.18842 0.36006 0.66498 0.0
H580 H 0.28618 0.41675 0.56104 0.0
H581 H 0.34421 0.4999 0.61964 0.0
H582 H 0.35013 0.44321 0.54002 0.0
H583 H 0.4114 0.49796 0.55716 0.0
H584 H 1.01947 0.26723 0.68917 0.0
H585 H 0.98216 0.17174 0.63747 0.0
H586 H 0.95919 0.2251 0.71372 0.0
H587 H 0.9116 0.15625 0.70189 0.0
Gd588 Gd 0.25505 0.94064 0.87537 0.0
Gd589 Gd 0.19439 0.83889 0.90176 0.0
C590 C 0.05843 0.77911 0.91373 0.0
C591 C 0.05374 0.78071 0.95753 0.0
C592 C 0.11892 0.80771 0.93791 0.0
C593 C 0.10075 0.79931 0.91551 0.0
C594 C 0.0956 0.79748 0.95923 0.0
C595 C 0.03514 0.77136 0.93478 0.0
C596 C 0.04073 0.76518 0.89106 0.0
C597 C 0.06507 0.77014 0.87111 0.0
N598 N 0.12419 0.80653 0.89563 0.0
C599 C 0.10688 0.79054 0.87378 0.0
H600 H 0.12505 0.79362 0.8582 0.0
C601 C 0.17737 0.82397 0.96042 0.0
N602 N 0.15908 0.82214 0.93882 0.0
C603 C 0.15576 0.81506 0.98211 0.0
C604 C 0.11477 0.80239 0.98155 0.0
H605 H 0.20909 0.83375 0.96091 0.0
H606 H 1.00265 0.75657 0.93372 0.0
H607 H 0.32661 0.97146 0.91878 0.0
H608 H 1.00835 0.7493 0.88893 0.0
H609 H 0.05167 0.75833 0.85362 0.0
H610 H 0.03534 0.77309 0.97369 0.0
H611 H 0.23584 0.94701 0.81696 0.0
H612 H 0.4408 0.01807 0.8843 0.0
H613 H 0.39972 1.00103 0.92153 0.0
H614 H 0.40979 1.01425 0.80002 0.0
H615 H 0.17068 0.8178 0.99921 0.0
H616 H 0.09794 0.79495 0.99835 0.0
H617 H 0.44423 0.02262 0.83896 0.0
H618 H 0.27275 0.96877 0.77823 0.0
N619 N 0.32523 0.9702 0.88015 0.0
C620 C 0.40849 1.0049 0.88292 0.0
C621 C 0.38543 0.99541 0.90396 0.0
C622 C 0.38969 0.99827 0.86036 0.0
C623 C 0.34747 0.9808 0.85955 0.0
C624 C 0.34373 0.97857 0.90226 0.0
N625 N 0.28767 0.95997 0.83766 0.0
C626 C 0.32811 0.97564 0.83765 0.0
C627 C 0.28863 0.97058 0.79479 0.0
C628 C 0.33006 0.98546 0.79438 0.0
C629 C 0.26783 0.95834 0.81677 0.0
C630 C 0.35037 0.98837 0.81595 0.0
H631 H 0.34637 0.99563 0.77749 0.0
O632 O 0.22954 0.97814 0.86627 0.0
O633 O 0.19416 0.89256 0.88743 0.0
O634 O 0.19598 0.83927 0.8597 0.0
O635 O 0.25525 0.89734 0.84854 0.0
O636 O 0.19687 0.92148 0.8552 0.0
O637 O 0.27981 1.00051 0.89087 0.0
O638 O 0.20293 0.79161 0.91763 0.0
O639 O 0.25519 0.88647 0.88999 0.0
O640 O 0.25608 0.94363 0.91597 0.0
O641 O 0.19951 0.88563 0.92986 0.0
O642 O 0.25247 0.85633 0.92127 0.0
O643 O 0.18514 0.78747 0.88037 0.0
C644 C 0.17315 0.89483 0.87052 0.0
C645 C 0.39223 1.00462 0.81655 0.0
C646 C 0.41184 1.00941 0.83871 0.0
C647 C 0.25504 1.00839 0.87921 0.0
C648 C 0.27167 0.04789 0.86745 0.0
C649 C 0.3019 0.06 0.84995 0.0
C650 C 0.25472 0.07225 0.87236 0.0
C651 C 0.26696 0.10822 0.85931 0.0
C652 C 0.31442 0.0954 0.83704 0.0
C653 C 0.29688 0.119 0.84138 0.0
C654 C 0.22467 0.86135 0.84361 0.0
C655 C 0.27662 0.88318 0.90623 0.0
C656 C 0.19151 0.76933 0.89828 0.0
C657 C 0.1612 0.72618 0.9015 0.0
C658 C 0.12153 0.71507 0.90759 0.0
C659 C 0.17103 0.6957 0.89768 0.0
C660 C 0.14088 0.65473 0.89921 0.0
C661 C 0.09183 0.67481 0.90902 0.0
C662 C 0.10129 0.64484 0.90467 0.0
C663 C 0.22858 0.9237 0.93259 0.0
H664 H 0.31526 0.04174 0.84594 0.0
H665 H 0.23184 0.06274 0.88624 0.0
H666 H 0.33733 0.10423 0.82323 0.0
H667 H 0.30644 0.14528 0.83017 0.0
H668 H 0.11334 0.73747 0.91118 0.0
H669 H 0.20165 0.70373 0.89328 0.0
H670 H 0.0613 0.66679 0.91358 0.0
H671 H 0.07775 0.61374 0.90611 0.0
Gd672 Gd 0.67616 0.84226 0.60699 0.0
Gd673 Gd 0.71837 0.78253 0.63452 0.0
C674 C 0.64597 0.64779 0.65109 0.0
C675 C 0.64943 0.64684 0.69497 0.0
C676 C 0.68261 0.71015 0.67305 0.0
C677 C 0.66911 0.69008 0.65142 0.0
C678 C 0.67379 0.68877 0.69506 0.0
C679 C 0.63539 0.62637 0.673 0.0
C680 C 0.63545 0.6282 0.62875 0.0
C681 C 0.64955 0.65062 0.60754 0.0
N682 N 0.68082 0.71175 0.63064 0.0
C683 C 0.67284 0.69242 0.60883 0.0
H684 H 0.68363 0.70867 0.59213 0.0
C685 C 0.72358 0.77143 0.69319 0.0
N686 N 0.70633 0.75052 0.67244 0.0
C687 C 0.7159 0.7516 0.71545 0.0
C688 C 0.69076 0.71006 0.7164 0.0
H689 H 0.74294 0.80357 0.69266 0.0
H690 H 0.61742 0.59394 0.67311 0.0
H691 H 0.70607 0.91965 0.64494 0.0
H692 H 0.61764 0.59581 0.6277 0.0
H693 H 0.64259 0.63574 0.59013 0.0
H694 H 0.64205 0.62993 0.71172 0.0
H695 H 0.65297 0.81422 0.54895 0.0
H696 H 0.77609 0.02865 0.60539 0.0
H697 H 0.74564 0.99356 0.64384 0.0
H698 H 0.76356 0.98379 0.52335 0.0
H699 H 0.72958 0.76834 0.73181 0.0
H700 H 0.68536 0.69452 0.73354 0.0
H701 H 0.78352 0.02462 0.56044 0.0
H702 H 0.67244 0.84422 0.50816 0.0
N703 N 0.7148 0.91277 0.6076 0.0
C704 C 0.75876 0.99618 0.60576 0.0
C705 C 0.74152 0.9765 0.62747 0.0
C706 C 0.75194 0.97377 0.58458 0.0
C707 C 0.72903 0.93156 0.58606 0.0
C708 C 0.71919 0.93458 0.62802 0.0
N709 N 0.69222 0.86861 0.56732 0.0
C710 C 0.71756 0.90871 0.56522 0.0
C711 C 0.68557 0.86266 0.52405 0.0
C712 C 0.7134 0.90347 0.52158 0.0
C713 C 0.67453 0.84579 0.54717 0.0
C714 C 0.72902 0.92725 0.54229 0.0
H715 H 0.72151 0.91657 0.50364 0.0
O716 O 0.61525 0.82326 0.59497 0.0
O717 O 0.66395 0.78285 0.62088 0.0
O718 O 0.71368 0.77789 0.59379 0.0
O719 O 0.72026 0.83819 0.58057 0.0
O720 O 0.63292 0.78219 0.59025 0.0
O721 O 0.64097 0.86607 0.62394 0.0
O722 O 0.77841 0.79869 0.64731 0.0
O723 O 0.72889 0.84259 0.62348 0.0
O724 O 0.67583 0.84371 0.64893 0.0
O725 O 0.67531 0.78509 0.66105 0.0
O726 O 0.75935 0.84099 0.65383 0.0
O727 O 0.75933 0.77473 0.61124 0.0
C728 C 0.6379 0.76003 0.60572 0.0
C729 C 0.75411 0.96903 0.54078 0.0
C730 C 0.7655 0.99227 0.5619 0.0
C731 C 0.6107 0.84773 0.60916 0.0
C732 C 0.59578 0.87255 0.59745 0.0
C733 C 0.615 0.8943 0.57652 0.0
C734 C 0.5619 0.87395 0.60644 0.0
C735 C 0.54745 0.89686 0.59433 0.0
C736 C 0.60093 0.9165 0.56444 0.0
C737 C 0.56742 0.91755 0.57305 0.0
C738 C 0.72378 0.80592 0.57713 0.0
C739 C 0.75404 0.86414 0.63943 0.0
C740 C 0.78818 0.78817 0.62717 0.0
C741 C 0.81153 0.76741 0.62874 0.0
C742 C 0.79249 0.72543 0.62789 0.0
C743 C 0.85384 0.7902 0.62925 0.0
C744 C 0.87707 0.77128 0.6281 0.0
C745 C 0.81544 0.70652 0.62699 0.0
C746 C 0.85744 0.72924 0.62684 0.0
C747 C 0.66992 0.81591 0.6655 0.0
H748 H 0.64058 0.89362 0.56917 0.0
H749 H 0.5471 0.85741 0.62271 0.0
H750 H 0.61578 0.93262 0.54808 0.0
H751 H 0.55677 0.93412 0.56256 0.0
H752 H 0.75998 0.7074 0.6275 0.0
H753 H 0.86869 0.82267 0.62978 0.0
H754 H 0.80062 0.67413 0.62616 0.0
H755 H 0.87465 0.71397 0.62601 0.0
Gd756 Gd 0.10167 0.32396 0.87223 0.0
Gd757 Gd 0.2021 0.36517 0.90119 0.0
C758 C 0.25914 0.28775 0.91706 0.0
C759 C 0.254 0.28161 0.96086 0.0
C760 C 0.22923 0.32014 0.93942 0.0
C761 C 0.23924 0.31017 0.91759 0.0
C762 C 0.23778 0.30718 0.96138 0.0
C763 C 0.26483 0.27202 0.9387 0.0
C764 C 0.27508 0.28409 0.89509 0.0
C765 C 0.27233 0.30384 0.87462 0.0
N766 N 0.2343 0.32688 0.89718 0.0
C767 C 0.25209 0.32552 0.87605 0.0
H768 H 0.25039 0.34067 0.86007 0.0
C769 C 0.21341 0.36396 0.96024 0.0
N770 N 0.2157 0.34654 0.93919 0.0
C771 C 0.22074 0.35151 0.98253 0.0
C772 C 0.23219 0.32235 0.98314 0.0
H773 H 0.20449 0.38648 0.95985 0.0
H774 H 0.27936 0.2541 0.93859 0.0
H775 H 0.06687 0.36622 0.91138 0.0
H776 H 0.29088 0.26743 0.89395 0.0
H777 H 0.28559 0.30221 0.85768 0.0
H778 H 0.26028 0.27089 0.97753 0.0
H779 H 0.1008 0.29526 0.81455 0.0
H780 H 1.02474 0.43269 0.87105 0.0
H781 H 0.03747 0.41015 0.91032 0.0
H782 H 0.0378 0.40229 0.78858 0.0
H783 H 0.21763 0.36447 0.99919 0.0
H784 H 0.23839 0.31315 1.00039 0.0
H785 H 1.02526 0.42982 0.82562 0.0
H786 H 0.0842 0.30932 0.77409 0.0
N787 N 0.07205 0.36464 0.87306 0.0
C788 C 0.03777 0.41341 0.87139 0.0
C789 C 0.04483 0.40069 0.89358 0.0
C790 C 0.04663 0.40025 0.84989 0.0
C791 C 0.06374 0.37533 0.85134 0.0
C792 C 0.06156 0.37573 0.89408 0.0
N793 N 0.08604 0.33499 0.83273 0.0
C794 C 0.07088 0.35998 0.83052 0.0
C795 C 0.0806 0.32404 0.78977 0.0
C796 C 0.06649 0.3509 0.78711 0.0
C797 C 0.0899 0.31606 0.81283 0.0
C798 C 0.06105 0.36895 0.80763 0.0
H799 H 0.05903 0.3568 0.76923 0.0
O800 O 0.0643 0.26012 0.86535 0.0
O801 O 0.14927 0.31167 0.88575 0.0
O802 O 0.20419 0.36651 0.85922 0.0
O803 O 0.14699 0.36801 0.84628 0.0
O804 O 0.1212 0.28423 0.8536 0.0
O805 O 0.04042 0.29066 0.88631 0.0
O806 O 0.247 0.42255 0.91662 0.0
O807 O 0.1551 0.37812 0.88779 0.0
O808 O 0.09689 0.3239 0.91287 0.0
O809 O 0.15319 0.32331 0.92823 0.0
O810 O 0.18388 0.40609 0.91933 0.0
O811 O 0.25712 0.40527 0.88152 0.0
C812 C 0.14761 0.288 0.86932 0.0
C813 C 0.04527 0.39481 0.80601 0.0
C814 C 0.03812 0.41048 0.8271 0.0
C815 C 0.03307 0.25683 0.87655 0.0
C816 C 0.99445 0.23297 0.86387 0.0
C817 C 0.98403 0.24971 0.84467 0.0
C818 C 0.96926 0.19214 0.86981 0.0
C819 C 0.93407 0.16756 0.85622 0.0
C820 C 0.94947 0.22597 0.83118 0.0
C821 C 0.92501 0.18533 0.83664 0.0
C822 C 0.18333 0.37346 0.84244 0.0
C823 C 0.15763 0.40298 0.90367 0.0
C824 C 0.27264 0.43131 0.89899 0.0
C825 C 0.31454 0.44325 0.90602 0.0
C826 C 0.3217 0.4151 0.91767 0.0
C827 C 0.34748 0.48222 0.90142 0.0
C828 C 0.38688 0.49245 0.90883 0.0
C829 C 0.36038 0.42463 0.92435 0.0
C830 C 0.39266 0.46285 0.91999 0.0
C831 C 0.11511 0.31498 0.93 0.0
H832 H 1.00298 0.28092 0.83981 0.0
H833 H 0.97745 0.17976 0.88493 0.0
H834 H 0.94195 0.23896 0.81609 0.0
H835 H 0.89944 0.16784 0.82501 0.0
H836 H 0.29733 0.38564 0.92174 0.0
H837 H 0.34236 0.50454 0.89278 0.0
H838 H 0.3653 0.40235 0.93318 0.0
H839 H 0.42239 0.4694 0.92554 0.0
Gd840 Gd 0.19979 0.83794 0.60572 0.0
Gd841 Gd 0.25806 0.93834 0.63454 0.0
C842 C 0.38752 0.99154 0.66062 0.0
C843 C 0.3795 0.98806 0.70437 0.0
C844 C 0.32135 0.96613 0.67815 0.0
C845 C 0.34563 0.97486 0.65797 0.0
C846 C 0.33803 0.97295 0.70158 0.0
C847 C 0.40422 0.99746 0.68392 0.0
C848 C 0.41144 1.00264 0.63979 0.0
C849 C 0.3936 0.99816 0.61712 0.0
N850 N 0.3285 0.96864 0.63575 0.0
C851 C 0.35191 0.98145 0.61545 0.0
H852 H 0.33847 0.97803 0.59782 0.0
C853 C 0.25685 0.94574 0.6942 0.0
N854 N 0.28142 0.95165 0.67482 0.0
C855 C 0.27195 0.95167 0.71778 0.0
C856 C 0.31259 0.9648 0.72149 0.0
H857 H 0.2253 0.93515 0.69169 0.0
H858 H 0.43629 1.00991 0.68632 0.0
H859 H 0.12639 0.79538 0.64736 0.0
H860 H 0.44373 1.01552 0.64103 0.0
H861 H 0.4119 1.00737 0.60091 0.0
H862 H 0.39283 0.99328 0.72224 0.0
H863 H 0.22032 0.83561 0.54738 0.0
H864 H 1.0129 0.75099 0.61225 0.0
H865 H 0.0527 0.76104 0.64942 0.0
H866 H 0.04804 0.7751 0.52829 0.0
H867 H 0.25214 0.94576 0.73308 0.0
H868 H 0.3241 0.96895 0.73973 0.0
H869 H 1.01155 0.75799 0.56707 0.0
H870 H 0.18568 0.82064 0.50778 0.0
N871 N 0.12916 0.80668 0.60942 0.0
C872 C 0.04542 0.76648 0.61122 0.0
C873 C 0.06778 0.77201 0.63222 0.0
C874 C 0.06527 0.7799 0.58902 0.0
C875 C 0.10768 0.79979 0.5887 0.0
C876 C 0.10976 0.79177 0.63095 0.0
N877 N 0.16822 0.8233 0.56752 0.0
C878 C 0.12804 0.80887 0.56697 0.0
C879 C 0.16911 0.81744 0.52427 0.0
C880 C 0.12813 0.80469 0.52331 0.0
C881 C 0.18861 0.82583 0.54669 0.0
C882 C 0.10681 0.79918 0.54487 0.0
H883 H 0.11296 0.79766 0.50596 0.0
O884 O 0.21183 0.79224 0.59121 0.0
O885 O 0.25915 0.88548 0.61903 0.0
O886 O 0.26483 0.9431 0.59391 0.0
O887 O 0.20856 0.88673 0.57801 0.0
O888 O 0.25988 0.85503 0.58863 0.0
O889 O 0.18443 0.78375 0.62628 0.0
O890 O 0.2317 0.97584 0.64089 0.0
O891 O 0.19882 0.89116 0.6201 0.0
O892 O 0.19824 0.8364 0.6478 0.0
O893 O 0.25788 0.89289 0.65973 0.0
O894 O 0.1976 0.91893 0.65182 0.0
O895 O 0.28672 0.99931 0.62024 0.0
C896 C 0.28216 0.88269 0.60379 0.0
C897 C 0.06485 0.78233 0.54508 0.0
C898 C 0.04407 0.77255 0.56715 0.0
C899 C 0.19483 0.76743 0.6092 0.0
C900 C 0.16457 0.72545 0.60275 0.0
C901 C 0.12897 0.71809 0.59132 0.0
C902 C 0.17052 0.69262 0.6077 0.0
C903 C 0.1409 0.65318 0.60088 0.0
C904 C 0.0994 0.67939 0.58526 0.0
C905 C 0.10522 0.64721 0.58999 0.0
C906 C 0.23846 0.92475 0.57638 0.0
C907 C 0.17573 0.89285 0.63577 0.0
C908 C 0.2599 1.0067 0.62955 0.0
C909 C 0.27406 0.04545 0.64162 0.0
C910 C 0.29896 0.05594 0.66199 0.0
C911 C 0.25921 0.07044 0.63396 0.0
C912 C 0.26786 0.10539 0.64703 0.0
C913 C 0.30832 0.09066 0.67487 0.0
C914 C 0.2926 0.1149 0.66772 0.0
C915 C 0.22669 0.85718 0.66422 0.0
H916 H 0.12401 0.74234 0.58691 0.0
H917 H 0.19818 0.6978 0.61613 0.0
H918 H 0.07199 0.67437 0.57659 0.0
H919 H 0.08181 0.61741 0.58485 0.0
H920 H 0.31039 0.03688 0.66821 0.0
H921 H 0.24049 0.06206 0.61794 0.0
H922 H 0.3271 0.09837 0.69083 0.0
H923 H 0.29924 0.14053 0.67889 0.0
Gd924 Gd 0.71646 0.78678 0.87064 0.0
Gd925 Gd 0.67632 0.84476 0.90251 0.0
C926 C 0.75276 0.97824 0.9205 0.0
C927 C 0.76015 0.97708 0.96413 0.0
C928 C 0.72158 0.91484 0.94176 0.0
C929 C 0.73066 0.93593 0.92032 0.0
C930 C 0.73526 0.93519 0.96402 0.0
C931 C 0.76878 0.99861 0.94238 0.0
C932 C 0.75602 0.99881 0.89897 0.0
C933 C 0.73608 0.97722 0.87829 0.0
N934 N 0.71401 0.91526 0.89962 0.0
C935 C 0.71472 0.93528 0.87902 0.0
H936 H 0.69927 0.91914 0.86291 0.0
C937 C 0.68074 0.85344 0.96194 0.0
N938 N 0.69615 0.87473 0.941 0.0
C939 C 0.69391 0.87208 0.98446 0.0
C940 C 0.72184 0.91305 0.98551 0.0
H941 H 0.65922 0.8217 0.96118 0.0
H942 H 0.78639 0.03106 0.94282 0.0
H943 H 0.6772 0.70486 0.90615 0.0
H944 H 0.77255 0.03129 0.89836 0.0
H945 H 0.73731 0.99285 0.86174 0.0
H946 H 0.77134 0.99323 0.98102 0.0
H947 H 0.74278 0.82135 0.81319 0.0
H948 H 0.60462 0.60219 0.86223 0.0
H949 H 0.63157 0.63206 0.90236 0.0
H950 H 0.62738 0.65642 0.78183 0.0
H951 H 0.68249 0.85486 1.00097 0.0
H952 H 0.73168 0.92754 1.00297 0.0
H953 H 0.60302 0.6116 0.81727 0.0
H954 H 0.72176 0.79663 0.77185 0.0
N955 N 0.67583 0.71655 0.86858 0.0
C956 C 0.62485 0.63422 0.86376 0.0
C957 C 0.64004 0.65096 0.88643 0.0
C958 C 0.63668 0.65892 0.84327 0.0
C959 C 0.66301 0.70045 0.84628 0.0
C960 C 0.66596 0.69234 0.88848 0.0
N961 N 0.70376 0.76498 0.82997 0.0
C962 C 0.67734 0.72542 0.82635 0.0
C963 C 0.70919 0.77622 0.78701 0.0
C964 C 0.68043 0.73611 0.78313 0.0
C965 C 0.72105 0.79012 0.81063 0.0
C966 C 0.66487 0.70991 0.80284 0.0
H967 H 0.67057 0.72567 0.76491 0.0
O968 O 0.78094 0.81467 0.86498 0.0
O969 O 0.72928 0.84608 0.88559 0.0
O970 O 0.67425 0.84782 0.86055 0.0
O971 O 0.66956 0.78807 0.8474 0.0
O972 O 0.7564 0.84702 0.85301 0.0
O973 O 0.74929 0.75684 0.88217 0.0
O974 O 0.62137 0.83617 0.91982 0.0
O975 O 0.66373 0.78559 0.88863 0.0
O976 O 0.71388 0.77755 0.91089 0.0
O977 O 0.7189 0.83511 0.92788 0.0
O978 O 0.63356 0.78482 0.91959 0.0
O979 O 0.63352 0.85536 0.88265 0.0
C980 C 0.75285 0.8689 0.86932 0.0
C981 C 0.63746 0.66885 0.79976 0.0
C982 C 0.62355 0.64336 0.81993 0.0
C983 C 0.78375 0.78503 0.87394 0.0
C984 C 0.80841 0.77295 0.85967 0.0
C985 C 0.79257 0.74976 0.83878 0.0
C986 C 0.84915 0.7876 0.8658 0.0
C987 C 0.87446 0.77987 0.85079 0.0
C988 C 0.81703 0.74185 0.82388 0.0
C989 C 0.85752 0.75704 0.82959 0.0
C990 C 0.66504 0.81946 0.84384 0.0
C991 C 0.63787 0.76257 0.90391 0.0
C992 C 0.6097 0.84831 0.90107 0.0
C993 C 0.59682 0.87831 0.90543 0.0
C994 C 0.62511 0.91705 0.91312 0.0
C995 C 0.55672 0.86918 0.90111 0.0
C996 C 0.54586 0.89915 0.90373 0.0
C997 C 0.61455 0.94662 0.91559 0.0
C998 C 0.57537 0.9379 0.91074 0.0
C999 C 0.72488 0.80378 0.92869 0.0
H1000 H 0.76151 0.73851 0.83371 0.0
H1001 H 0.86088 0.80516 0.88215 0.0
H1002 H 0.80473 0.72446 0.80753 0.0
H1003 H 0.87557 0.75142 0.81691 0.0
H1004 H 0.65549 0.9246 0.91718 0.0
H1005 H 0.53433 0.83923 0.89548 0.0
H1006 H 0.63685 0.97646 0.92136 0.0
H1007 H 0.56782 0.9613 0.91302 0.0
H1008 H 0.16496 0.25546 0.17924 0.0
H1009 H 0.2533 0.14337 0.09933 0.0
H1010 H 0.12791 0.21964 0.10541 0.0
H1011 H 0.27268 0.16451 0.17599 0.0
H1012 H 0.20674 0.16998 0.10047 0.0
H1013 H 0.20482 0.22232 0.1777 0.0
C1014 C 0.16524 0.24063 0.16264 0.0
C1015 C 0.14316 0.24064 0.14238 0.0
C1016 C 0.22116 0.16877 0.11703 0.0
C1017 C 0.18892 0.20208 0.14049 0.0
C1018 C 0.248 0.15402 0.11632 0.0
C1019 C 0.26802 0.15341 0.13743 0.0
C1020 C 0.21446 0.18298 0.13903 0.0
C1021 C 0.25877 0.16569 0.15919 0.0
C1022 C 0.18788 0.22144 0.16181 0.0
C1023 C 0.14426 0.22025 0.12151 0.0
N1024 N 0.23322 0.1805 0.15937 0.0
N1025 N 0.167 0.20208 0.12104 0.0
H1026 H 0.12966 0.91845 0.39897 0.0
H1027 H 0.92194 0.7696 0.33162 0.0
H1028 H 0.12012 0.88212 0.3243 0.0
H1029 H 0.92826 0.79027 0.40852 0.0
H1030 H 0.99431 0.81558 0.32859 0.0
H1031 H 0.05619 0.87629 0.40293 0.0
C1032 C 0.11215 0.90191 0.38337 0.0
C1033 C 0.13128 0.90376 0.36129 0.0
C1034 C 0.98015 0.81007 0.34621 0.0
C1035 C 0.04716 0.85555 0.36568 0.0
C1036 C 0.93881 0.78369 0.34793 0.0
C1037 C 0.91951 0.77487 0.37048 0.0
C1038 C 1.00255 0.82872 0.36715 0.0
C1039 C 0.94243 0.79509 0.39094 0.0
C1040 C 0.07024 0.8777 0.38569 0.0
C1041 C 0.10696 0.88132 0.34177 0.0
N1042 N 0.98285 0.82093 0.38883 0.0
N1043 N 0.06643 0.85834 0.34443 0.0
H1044 H 0.89852 0.11633 0.09861 0.0
H1045 H 0.7859 0.91671 0.17918 0.0
H1046 H 0.87905 0.1154 0.17545 0.0
H1047 H 0.82245 0.91502 0.10556 0.0
H1048 H 0.81962 0.98969 0.17744 0.0
H1049 H 0.87195 0.04329 0.10005 0.0
C1050 C 0.88829 0.10061 0.11571 0.0
C1051 C 0.88932 0.12143 0.13679 0.0
C1052 C 0.82054 0.97352 0.16165 0.0
C1053 C 0.85969 0.0384 0.13872 0.0
C1054 C 0.801 0.9317 0.16259 0.0
C1055 C 0.80105 0.90949 0.14244 0.0
C1056 C 0.84026 0.99377 0.14033 0.0
C1057 C 0.82178 0.93085 0.12158 0.0
C1058 C 0.87355 0.05908 0.1166 0.0
C1059 C 0.87754 0.10016 0.15868 0.0
N1060 N 0.84026 0.97174 0.12099 0.0
N1061 N 0.86266 0.05984 0.15902 0.0
H1062 H 0.28256 0.1793 0.33277 0.0
H1063 H 0.12555 0.22454 0.40204 0.0
H1064 H 0.25545 0.15246 0.40845 0.0
H1065 H 0.16785 0.26199 0.32908 0.0
H1066 H 0.16946 0.1951 0.40507 0.0
H1067 H 0.23771 0.20693 0.33139 0.0
C1068 C 0.26749 0.17981 0.34923 0.0
C1069 C 0.27398 0.16511 0.37096 0.0
C1070 C 0.16903 0.20975 0.38842 0.0
C1071 C 0.22098 0.19548 0.36942 0.0
C1072 C 0.14379 0.22635 0.38661 0.0
C1073 C 0.14306 0.24606 0.3653 0.0
C1074 C 0.19339 0.21243 0.36866 0.0
C1075 C 0.16769 0.24771 0.346 0.0
C1076 C 0.24164 0.1954 0.34843 0.0
C1077 C 0.25236 0.16491 0.39155 0.0
N1078 N 0.19162 0.2312 0.34816 0.0
N1079 N 0.22685 0.18001 0.3903 0.0
H1080 H 0.12801 0.9129 0.10514 0.0
H1081 H 0.92241 0.77031 0.1765 0.0
H1082 H 0.12121 0.8808 0.18052 0.0
H1083 H 0.9264 0.78705 0.09924 0.0
H1084 H 0.99487 0.81681 0.17851 0.0
H1085 H 0.05425 0.87247 0.10266 0.0
C1086 C 0.11103 0.89769 0.12121 0.0
C1087 C 0.13096 0.90012 0.14305 0.0
C1088 C 0.98011 0.81038 0.16105 0.0
C1089 C 0.04655 0.85398 0.14037 0.0
C1090 C 0.93875 0.78377 0.15992 0.0
C1091 C 0.91884 0.77362 0.13757 0.0
C1092 C 1.00186 0.82778 0.13968 0.0
C1093 C 0.94106 0.79295 0.11671 0.0
C1094 C 0.06895 0.87448 0.11976 0.0
C1095 C 0.10733 0.87943 0.16322 0.0
N1096 N 0.98149 0.8189 0.11823 0.0
N1097 N 0.06662 0.85737 0.16139 0.0
H1098 H 0.85385 0.91907 0.38049 0.0
H1099 H 0.86338 0.11217 0.33408 0.0
H1100 H 0.7434 0.91218 0.35638 0.0
H1101 H 0.89493 0.11565 0.40925 0.0
H1102 H 0.83419 0.03897 0.33433 0.0
H1103 H 0.88333 0.99172 0.38526 0.0
C1104 C 0.83544 0.93227 0.3764 0.0
C1105 C 0.79587 0.90865 0.36758 0.0
C1106 C 0.84748 0.05584 0.35074 0.0
C1107 C 0.83054 0.99233 0.37222 0.0
C1108 C 0.86388 0.09738 0.35066 0.0
C1109 C 0.87993 0.11954 0.37194 0.0
C1110 C 0.84886 0.03651 0.37193 0.0
C1111 C 0.88142 0.09926 0.39274 0.0
C1112 C 0.85258 0.97391 0.37904 0.0
C1113 C 0.77434 0.92857 0.36232 0.0
N1114 N 0.86614 0.05871 0.39223 0.0
N1115 N 0.79215 0.96912 0.36427 0.0
H1116 H 0.19608 0.08324 0.62291 0.0
H1117 H 0.18021 0.2705 0.6571 0.0
H1118 H 0.29847 0.18672 0.65455 0.0
H1119 H 0.15109 0.22866 0.58356 0.0
H1120 H 0.2096 0.22737 0.66298 0.0
H1121 H 0.16696 0.12533 0.61328 0.0
C1122 C 0.21289 0.11467 0.62767 0.0
C1123 C 0.25008 0.13095 0.63986 0.0
C1124 C 0.19692 0.22781 0.64554 0.0
C1125 C 0.21542 0.17863 0.62969 0.0
C1126 C 0.1804 0.25247 0.64213 0.0
C1127 C 0.16507 0.25445 0.61947 0.0
C1128 C 0.1968 0.20388 0.62642 0.0
C1129 C 0.16398 0.22887 0.60103 0.0
C1130 C 0.19587 0.13853 0.62225 0.0
C1131 C 0.26933 0.172 0.6459 0.0
N1132 N 0.17985 0.20458 0.60485 0.0
N1133 N 0.25151 0.19413 0.64113 0.0
H1134 H 0.12218 0.8892 0.90738 0.0
H1135 H 0.92277 0.74806 0.83858 0.0
H1136 H 0.12466 0.8651 0.83144 0.0
H1137 H 0.92781 0.84873 0.87647 0.0
H1138 H 0.99501 0.7781 0.84382 0.0
H1139 H 0.04893 0.8631 0.90423 0.0
C1140 C 0.10721 0.87807 0.89016 0.0
C1141 C 0.12906 0.87801 0.86978 0.0
C1142 C 0.98009 0.7934 0.85104 0.0
C1143 C 0.04609 0.84845 0.86612 0.0
C1144 C 0.93868 0.77654 0.84786 0.0
C1145 C 0.9184 0.79613 0.85643 0.0
C1146 C 1.00176 0.82953 0.86367 0.0
C1147 C 0.94142 0.83209 0.8695 0.0
C1148 C 0.0657 0.86367 0.88833 0.0
C1149 C 0.10865 0.86472 0.84767 0.0
N1150 N 0.98179 0.84755 0.87277 0.0
N1151 N 0.06821 0.84966 0.84652 0.0
H1152 H 0.76287 0.90859 0.67912 0.0
H1153 H 0.95588 0.10513 0.64095 0.0
H1154 H 0.80225 0.91877 0.60511 0.0
H1155 H 0.86086 0.11189 0.67884 0.0
H1156 H 0.90824 0.03513 0.63127 0.0
H1157 H 0.80749 0.98115 0.68418 0.0
C1158 C 0.78056 0.92633 0.66386 0.0
C1159 C 0.77775 0.90819 0.6414 0.0
C1160 C 0.89807 0.05227 0.6416 0.0
C1161 C 0.83046 0.99049 0.64746 0.0
C1162 C 0.92517 0.09252 0.64708 0.0
C1163 C 0.91304 0.11529 0.66107 0.0
C1164 C 0.85878 0.03403 0.65069 0.0
C1165 C 0.87259 0.09593 0.66876 0.0
C1166 C 0.80604 0.96755 0.66678 0.0
C1167 C 0.8026 0.93207 0.62244 0.0
N1168 N 0.84726 0.05645 0.66383 0.0
N1169 N 0.82827 0.97209 0.62594 0.0
H1170 H 0.18002 0.27045 0.83124 0.0
H1171 H 0.1902 0.08596 0.87641 0.0
H1172 H 0.15078 0.24224 0.90667 0.0
H1173 H 0.30016 0.19007 0.8523 0.0
H1174 H 0.15998 0.12849 0.88102 0.0
H1175 H 0.20745 0.22486 0.83036 0.0
C1176 C 0.1795 0.25466 0.84761 0.0
C1177 C 0.16485 0.2613 0.86933 0.0
C1178 C 0.19074 0.14165 0.87477 0.0
C1179 C 0.19401 0.2078 0.86806 0.0
C1180 C 0.20835 0.11754 0.87225 0.0
C1181 C 0.24809 0.13386 0.86359 0.0
C1182 C 0.21245 0.18206 0.86793 0.0
C1183 C 0.26916 0.17522 0.85816 0.0
C1184 C 0.19492 0.22866 0.84705 0.0
C1185 C 0.16334 0.23899 0.88984 0.0
N1186 N 0.25089 0.19757 0.85999 0.0
N1187 N 0.17781 0.21307 0.88875 0.0
H1188 H 0.13293 0.88568 0.59428 0.0
H1189 H 0.92634 0.82365 0.66261 0.0
H1190 H 0.12126 0.87309 0.67182 0.0
H1191 H 0.92902 0.77249 0.59377 0.0
H1192 H 1.0003 0.85866 0.66377 0.0
H1193 H 0.06026 0.86148 0.59138 0.0
C1194 C 0.11497 0.87758 0.61063 0.0
C1195 C 0.13248 0.87935 0.63322 0.0
C1196 C 0.98463 0.84008 0.64832 0.0
C1197 C 0.0503 0.85356 0.63017 0.0
C1198 C 0.94258 0.82027 0.64762 0.0
C1199 C 0.92171 0.79507 0.62813 0.0
C1200 C 1.00592 0.83542 0.62911 0.0
C1201 C 0.94409 0.7915 0.60917 0.0
C1202 C 0.07374 0.86415 0.609 0.0
C1203 C 0.10849 0.87071 0.654 0.0
N1204 N 0.98502 0.81157 0.61007 0.0
N1205 N 0.06855 0.85781 0.65198 0.0
H1206 H 0.95399 0.11374 0.87706 0.0
H1207 H 0.7676 0.91899 0.83169 0.0
H1208 H 0.85233 0.11945 0.84809 0.0
H1209 H 0.79969 0.91816 0.90634 0.0
H1210 H 0.8125 0.992 0.83058 0.0
H1211 H 0.91019 0.04132 0.88282 0.0
C1212 C 0.92265 0.10032 0.87208 0.0
C1213 C 0.90747 0.12352 0.86162 0.0
C1214 C 0.80961 0.97579 0.84719 0.0
C1215 C 0.85779 0.04006 0.86741 0.0
C1216 C 0.78397 0.93433 0.84788 0.0
C1217 C 0.77869 0.91299 0.86944 0.0
C1218 C 0.83158 0.99587 0.86789 0.0
C1219 C 0.80186 0.93394 0.88967 0.0
C1220 C 0.8978 0.05881 0.87529 0.0
C1221 C 0.86637 0.10336 0.85532 0.0
N1222 N 0.82752 0.97441 0.88842 0.0
N1223 N 0.84333 0.06291 0.85788 0.0
H1224 H 0.44196 0.18046 0.31567 0.0
H1225 H 0.35584 0.21833 0.19215 0.0
H1226 H 0.3529 0.21716 0.31562 0.0
H1227 H 0.42445 0.158 0.19823 0.0
H1228 H 0.36419 0.2317 0.23613 0.0
H1229 H 0.44714 0.18768 0.27181 0.0
C1230 C 0.42433 0.19127 0.30642 0.0
C1231 C 0.39708 0.19837 0.31935 0.0
C1232 C 0.37791 0.21612 0.22769 0.0
C1233 C 0.4017 0.20533 0.26864 0.0
C1234 C 0.37346 0.2088 0.20258 0.0
C1235 C 0.3896 0.18713 0.19147 0.0
C1236 C 0.3991 0.20211 0.24162 0.0
C1237 C 0.41147 0.1748 0.20597 0.0
C1238 C 0.42695 0.19498 0.28128 0.0
C1239 C 0.37455 0.21175 0.30636 0.0
N1240 N 0.41543 0.18234 0.23013 0.0
N1241 N 0.37685 0.21419 0.28163 0.0
H1242 H 0.894 0.68916 0.3151 0.0
H1243 H 0.76141 0.61496 0.19421 0.0
H1244 H 0.76473 0.61714 0.31279 0.0
H1245 H 0.89077 0.68579 0.19217 0.0
H1246 H 0.76414 0.60929 0.23792 0.0
H1247 H 0.89577 0.68225 0.27076 0.0
C1248 C 0.86615 0.67107 0.30538 0.0
C1249 C 0.82916 0.65372 0.31764 0.0
C1250 C 0.79213 0.62562 0.22803 0.0
C1251 C 0.83086 0.64616 0.26709 0.0
C1252 C 0.79055 0.62873 0.20297 0.0
C1253 C 0.82591 0.65083 0.18947 0.0
C1254 C 0.82938 0.6451 0.24003 0.0
C1255 C 0.86281 0.66814 0.20186 0.0
C1256 C 0.86712 0.66743 0.28007 0.0
C1257 C 0.79393 0.63118 0.3041 0.0
N1258 N 0.86359 0.66536 0.22651 0.0
N1259 N 0.79566 0.62834 0.27969 0.0
H1260 H 0.88383 0.27445 0.19598 0.0
H1261 H 0.8239 0.14238 0.31632 0.0
H1262 H 0.8256 0.14547 0.19303 0.0
H1263 H 0.86587 0.26911 0.31378 0.0
H1264 H 0.8171 0.13979 0.2718 0.0
H1265 H 0.87128 0.27062 0.23925 0.0
C1266 C 0.86768 0.24514 0.20443 0.0
C1267 C 0.85562 0.21023 0.19081 0.0
C1268 C 0.82689 0.16793 0.28109 0.0
C1269 C 0.84163 0.20548 0.24097 0.0
C1270 C 0.8304 0.16932 0.3065 0.0
C1271 C 0.84553 0.20603 0.31873 0.0
C1272 C 0.83858 0.20353 0.268 0.0
C1273 C 0.85413 0.24017 0.3051 0.0
C1274 C 0.86053 0.24293 0.22926 0.0
C1275 C 0.83499 0.1731 0.20283 0.0
N1276 N 0.85095 0.23815 0.2806 0.0
N1277 N 0.82913 0.17169 0.22733 0.0
H1278 H 0.20114 0.31424 0.69713 0.0
H1279 H 0.17016 0.41818 0.80943 0.0
H1280 H 0.20716 0.42848 0.68998 0.0
H1281 H 0.22702 0.34659 0.81728 0.0
H1282 H 0.18247 0.42198 0.76577 0.0
H1283 H 0.21056 0.32475 0.74097 0.0
C1284 C 0.20565 0.34209 0.70478 0.0
C1285 C 0.20392 0.37079 0.68996 0.0
C1286 C 0.19315 0.40626 0.77709 0.0
C1287 C 0.21308 0.38231 0.74016 0.0
C1288 C 0.18613 0.40405 0.80202 0.0
C1289 C 0.19784 0.38224 0.81706 0.0
C1290 C 0.21119 0.38574 0.76693 0.0
C1291 C 0.21794 0.3641 0.80642 0.0
C1292 C 0.21088 0.34801 0.72978 0.0
C1293 C 0.20912 0.40602 0.70077 0.0
N1294 N 0.22331 0.3656 0.78194 0.0
N1295 N 0.21261 0.41044 0.7253 0.0
H1296 H 0.15634 0.81617 0.81605 0.0
H1297 H 0.28673 0.86741 0.69415 0.0
H1298 H 0.2858 0.87859 0.81243 0.0
H1299 H 0.15841 0.81863 0.69278 0.0
H1300 H 0.28409 0.85996 0.73795 0.0
H1301 H 0.1538 0.8059 0.77184 0.0
C1302 C 0.18414 0.82681 0.80609 0.0
C1303 C 0.22135 0.84819 0.81799 0.0
C1304 C 0.25625 0.85017 0.7282 0.0
C1305 C 0.2187 0.83695 0.76751 0.0
C1306 C 0.25773 0.85415 0.70308 0.0
C1307 C 0.22272 0.84348 0.68974 0.0
C1308 C 0.21948 0.83571 0.74043 0.0
C1309 C 0.18605 0.82678 0.70235 0.0
C1310 C 0.18268 0.82127 0.78084 0.0
C1311 C 0.25643 0.86198 0.80408 0.0
N1312 N 0.18541 0.82389 0.72706 0.0
N1313 N 0.2542 0.8563 0.77974 0.0
H1314 H 0.69003 0.88496 0.69144 0.0
H1315 H 0.61037 0.76058 0.81529 0.0
H1316 H 0.62828 0.7561 0.69789 0.0
H1317 H 0.69631 0.88718 0.81489 0.0
H1318 H 0.60458 0.76219 0.77148 0.0
H1319 H 0.68202 0.88955 0.73548 0.0
C1320 C 0.6741 0.85768 0.70198 0.0
C1321 C 0.65995 0.82009 0.69095 0.0
C1322 C 0.62421 0.78991 0.78087 0.0
C1323 C 0.65059 0.8251 0.74114 0.0
C1324 C 0.62722 0.78907 0.80598 0.0
C1325 C 0.65384 0.8238 0.81878 0.0
C1326 C 0.64834 0.82571 0.76815 0.0
C1327 C 0.67522 0.85979 0.80572 0.0
C1328 C 0.66978 0.86033 0.72711 0.0
C1329 C 0.63986 0.78574 0.70555 0.0
N1330 N 0.67251 0.85974 0.78101 0.0
N1331 N 0.63595 0.78911 0.72974 0.0
H1332 H 0.22512 0.90133 0.98065 0.0
H1333 H 0.2981 0.12213 0.03471 0.0
H1334 H 0.24352 1.00037 0.9355 0.0
H1335 H 0.31159 0.02988 0.07064 0.0
H1336 H 0.2682 0.07642 0.9998 0.0
H1337 H 0.2446 0.94573 0.01605 0.0
C1338 C 0.23213 0.93202 0.97824 0.0
C1339 C 0.23245 0.94694 0.95504 0.0
C1340 C 0.27767 0.0664 0.01548 0.0
C1341 C 0.25577 0.99856 0.99548 0.0
C1342 C 0.29493 0.0926 0.03538 0.0
C1343 C 0.30787 0.08042 0.05587 0.0
C1344 C 0.27263 0.02747 0.01624 0.0
C1345 C 0.30231 0.04126 0.05557 0.0
C1346 C 0.24384 0.95765 0.99842 0.0
C1347 C 0.24298 0.98757 0.95305 0.0
N1348 N 0.28521 0.01652 0.03632 0.0
N1349 N 0.25431 1.01191 0.97288 0.0
H1350 H 0.74537 0.6747 0.45741 0.0
H1351 H 0.79213 0.85414 0.55001 0.0
H1352 H 0.86174 0.7816 0.45998 0.0
H1353 H 0.68577 0.73735 0.55141 0.0
H1354 H 0.81767 0.83199 0.51563 0.0
H1355 H 0.72352 0.69945 0.49133 0.0
C1356 C 0.76665 0.70316 0.46552 0.0
C1357 C 0.8056 0.7258 0.45605 0.0
C1358 C 0.78859 0.81141 0.52337 0.0
C1359 C 0.78024 0.75545 0.49477 0.0
C1360 C 0.77378 0.82425 0.54272 0.0
C1361 C 0.73664 0.7976 0.55347 0.0
C1362 C 0.7659 0.77176 0.5147 0.0
C1363 C 0.71452 0.7589 0.5437 0.0
C1364 C 0.75405 0.71754 0.48482 0.0
C1365 C 0.83169 0.76283 0.46705 0.0
N1366 N 0.72941 0.74725 0.52505 0.0
N1367 N 0.81845 0.77672 0.48571 0.0
H1368 H 0.13731 0.3282 0.9783 0.0
H1369 H 0.91595 0.18348 0.03265 0.0
H1370 H 0.03566 0.25816 0.93198 0.0
H1371 H 1.01064 0.28709 0.06895 0.0
H1372 H 0.96044 0.2004 0.9969 0.0
H1373 H 0.09295 0.30182 0.01358 0.0
C1374 C 0.10598 0.30662 0.97552 0.0
C1375 C 0.09046 0.29549 0.95206 0.0
C1376 C 0.97122 0.21914 0.01287 0.0
C1377 C 0.03885 0.26533 0.9925 0.0
C1378 C 0.94575 0.20958 0.03324 0.0
C1379 C 0.959 0.23382 0.05407 0.0
C1380 C 1.01048 0.25264 0.01355 0.0
C1381 C 0.99845 0.26708 0.05365 0.0
C1382 C 0.08039 0.29182 0.99568 0.0
C1383 C 0.04897 0.2679 0.94972 0.0
N1384 N 1.02248 0.27524 0.03398 0.0
N1385 N 1.02465 0.25386 0.96958 0.0
H1386 H 0.30653 0.02672 0.43329 0.0
H1387 H 0.2612 1.00392 0.57472 0.0
H1388 H 0.30671 0.12159 0.47497 0.0
H1389 H 0.2302 0.90342 0.5277 0.0
H1390 H 0.27897 0.04778 0.53933 0.0
H1391 H 0.28037 0.9826 0.46792 0.0
C1392 C 0.30126 0.03869 0.4497 0.0
C1393 C 0.30971 0.07878 0.45095 0.0
C1394 C 0.26786 1.01608 0.53667 0.0
C1395 C 0.27925 0.02703 0.49148 0.0
C1396 C 0.25776 0.99088 0.55691 0.0
C1397 C 0.24409 0.94963 0.55432 0.0
C1398 C 0.26507 1.00032 0.51342 0.0
C1399 C 0.24006 0.93469 0.5307 0.0
C1400 C 0.28601 1.013 0.46961 0.0
C1401 C 0.30156 0.09146 0.47305 0.0
N1402 N 0.25095 0.96004 0.51125 0.0
N1403 N 0.28719 0.06585 0.49247 0.0
H1404 H 0.81037 0.78313 0.07174 0.0
H1405 H 0.74341 0.74424 0.93319 0.0
H1406 H 0.82026 0.69709 0.02688 0.0
H1407 H 0.75042 0.8438 0.97322 0.0
H1408 H 0.77276 0.7284 0.96712 0.0
H1409 H 0.79107 0.80764 0.03621 0.0
C1410 C 0.80918 0.76983 0.05428 0.0
C1411 C 0.81722 0.73806 0.05233 0.0
C1412 C 0.76803 0.75378 0.96862 0.0
C1413 C 0.79417 0.76563 0.0114 0.0
C1414 C 0.75093 0.76297 0.94913 0.0
C1415 C 0.74359 0.79537 0.95016 0.0
C1416 C 0.77798 0.77674 0.9898 0.0
C1417 C 0.75476 0.81827 0.97154 0.0
C1418 C 0.79804 0.78384 0.03398 0.0
C1419 C 0.81508 0.722 0.02924 0.0
N1420 N 0.77107 0.80834 0.99054 0.0
N1421 N 0.80333 0.73563 0.00979 0.0
H1422 H 0.13539 0.34202 0.52958 0.0
H1423 H 0.9181 0.18679 0.47354 0.0
H1424 H 0.03745 0.2538 0.5728 0.0
H1425 H 1.00979 0.29176 0.43658 0.0
H1426 H 0.96292 0.20537 0.50901 0.0
H1427 H 0.09196 0.31764 0.49378 0.0
C1428 C 0.10514 0.31712 0.53153 0.0
C1429 C 0.09032 0.30006 0.55433 0.0
C1430 C 0.97303 0.22421 0.49303 0.0
C1431 C 0.03981 0.27216 0.51335 0.0
C1432 C 0.9473 0.21369 0.47281 0.0
C1433 C 0.95954 0.23783 0.45193 0.0
C1434 C 1.01153 0.2588 0.49225 0.0
C1435 C 0.99838 0.27202 0.45208 0.0
C1436 C 0.08006 0.30339 0.51109 0.0
C1437 C 0.05023 0.2682 0.55565 0.0
N1438 N 1.0227 0.2813 0.47173 0.0
N1439 N 0.02647 0.2554 0.53557 0.0
H1440 H 0.6339 0.14746 0.14154 0.0
H1441 H 0.44436 0.12937 0.06866 0.0
H1442 H 0.6115 0.1224 0.06532 0.0
H1443 H 0.45499 0.14701 0.14588 0.0
H1444 H 0.50497 0.12437 0.06853 0.0
H1445 H 0.57 0.14814 0.1448 0.0
C1446 C 0.6159 0.1427 0.12547 0.0
C1447 C 0.62809 0.13484 0.10311 0.0
C1448 C 0.49412 0.12889 0.08566 0.0
C1449 C 0.55486 0.13487 0.10675 0.0
C1450 C 0.45919 0.1314 0.08573 0.0
C1451 C 0.44432 0.13808 0.10731 0.0
C1452 C 0.5154 0.13402 0.10731 0.0
C1453 C 0.46513 0.14115 0.12889 0.0
C1454 C 0.57925 0.14264 0.12739 0.0
C1455 C 0.6033 0.12836 0.08295 0.0
N1456 N 0.49991 0.13947 0.12834 0.0
N1457 N 0.56816 0.12845 0.08528 0.0
H1458 H 0.733 0.58659 0.36335 0.0
H1459 H 0.52056 0.45288 0.42335 0.0
H1460 H 0.71542 0.59765 0.43936 0.0
H1461 H 0.57755 0.39021 0.39342 0.0
H1462 H 0.58244 0.51644 0.41662 0.0
H1463 H 0.66639 0.52458 0.36209 0.0
C1464 C 0.71467 0.57662 0.37955 0.0
C1465 C 0.72935 0.59759 0.40144 0.0
C1466 C 0.58107 0.48874 0.41121 0.0
C1467 C 0.65381 0.52722 0.40008 0.0
C1468 C 0.54586 0.45222 0.41523 0.0
C1469 C 0.54382 0.41547 0.40975 0.0
C1470 C 0.6145 0.48916 0.40087 0.0
C1471 C 0.57747 0.41742 0.39816 0.0
C1472 C 0.67705 0.5411 0.37887 0.0
C1473 C 0.70496 0.58268 0.4221 0.0
N1474 N 0.61156 0.45361 0.39429 0.0
N1475 N 0.66832 0.54875 0.42087 0.0
H1476 H 0.90617 0.31412 0.14752 0.0
H1477 H 0.85992 0.47305 0.08404 0.0
H1478 H 0.88941 0.31766 0.07057 0.0
H1479 H 0.94093 0.5088 0.14478 0.0
H1480 H 0.85664 0.40765 0.08397 0.0
H1481 H 0.90887 0.37936 0.15137 0.0
C1482 C 0.90387 0.3289 0.13143 0.0
C1483 C 0.89842 0.31077 0.10859 0.0
C1484 C 0.87471 0.42964 0.09753 0.0
C1485 C 0.89885 0.38379 0.11308 0.0
C1486 C 0.87616 0.46672 0.09774 0.0
C1487 C 0.90054 0.49628 0.11449 0.0
C1488 C 0.8973 0.4217 0.11443 0.0
C1489 C 0.92165 0.48671 0.13161 0.0
C1490 C 0.90492 0.36584 0.13367 0.0
C1491 C 0.89409 0.33068 0.08848 0.0
N1492 N 0.91955 0.45027 0.13118 0.0
N1493 N 0.89398 0.36568 0.09121 0.0
H1494 H 0.45959 0.16081 0.36124 0.0
H1495 H 0.58558 0.06814 0.41694 0.0
H1496 H 0.43669 0.11046 0.43307 0.0
H1497 H 0.64953 0.19049 0.39127 0.0
H1498 H 0.52211 0.06643 0.4096 0.0
H1499 H 0.52055 0.15449 0.35926 0.0
C1500 C 0.46657 0.14711 0.37619 0.0
C1501 C 0.44271 0.13537 0.3972 0.0
C1502 C 0.5501 0.09339 0.40525 0.0
C1503 C 0.51195 0.12832 0.39506 0.0
C1504 C 0.58654 0.09469 0.40963 0.0
C1505 C 0.62353 0.13008 0.40556 0.0
C1506 C 0.55009 0.12719 0.39596 0.0
C1507 C 0.62209 0.16264 0.39493 0.0
C1508 C 0.50154 0.14406 0.37517 0.0
C1509 C 0.45394 0.11924 0.41643 0.0
N1510 N 0.58599 0.16056 0.39069 0.0
N1511 N 0.48747 0.11588 0.41484 0.0
H1512 H 0.55034 0.40927 0.13885 0.0
H1513 H 0.72226 0.59535 0.06359 0.0
H1514 H 0.549 0.42593 0.06179 0.0
H1515 H 0.72703 0.58934 0.1413 0.0
H1516 H 0.65747 0.53356 0.06374 0.0
H1517 H 0.61468 0.47345 0.14127 0.0
C1518 C 0.56388 0.42602 0.12243 0.0
C1519 C 0.54423 0.41209 0.10006 0.0
C1520 C 0.67221 0.5457 0.08089 0.0
C1521 C 0.61729 0.48578 0.10271 0.0
C1522 C 0.70918 0.58128 0.08079 0.0
C1523 C 0.72987 0.59788 0.10244 0.0
C1524 C 0.65563 0.52558 0.10283 0.0
C1525 C 0.71175 0.57794 0.12421 0.0
C1526 C 0.60034 0.46287 0.12384 0.0
C1527 C 0.5629 0.43543 0.07942 0.0
N1528 N 0.67578 0.54265 0.12385 0.0
N1529 N 0.598 0.47082 0.08127 0.0
H1530 H 0.86518 0.47702 0.42515 0.0
H1531 H 0.89932 0.31318 0.35922 0.0
H1532 H 0.94 0.51092 0.36152 0.0
H1533 H 0.89903 0.32412 0.43687 0.0
H1534 H 0.90342 0.37906 0.35541 0.0
H1535 H 0.86238 0.41184 0.42504 0.0
C1536 C 0.8801 0.47028 0.41079 0.0
C1537 C 0.90256 0.4992 0.39323 0.0
C1538 C 0.90294 0.36708 0.37323 0.0
C1539 C 0.89984 0.42495 0.39307 0.0
C1540 C 0.9012 0.32982 0.37542 0.0
C1541 C 0.89985 0.31356 0.39843 0.0
C1542 C 0.90157 0.38717 0.39417 0.0
C1543 C 0.90054 0.33573 0.41879 0.0
C1544 C 0.87894 0.43336 0.41089 0.0
C1545 C 0.92211 0.48923 0.37528 0.0
N1546 N 0.90083 0.37096 0.4162 0.0
N1547 N 0.92025 0.45289 0.3756 0.0
H1548 H 0.13395 0.60159 0.56551 0.0
H1549 H 0.16379 0.4465 0.64721 0.0
H1550 H 0.15883 0.62286 0.64181 0.0
H1551 H 0.11338 0.42293 0.57541 0.0
H1552 H 0.16343 0.51054 0.64733 0.0
H1553 H 0.13122 0.53748 0.5696 0.0
C1554 C 0.13927 0.59284 0.58316 0.0
C1555 C 0.14645 0.61762 0.60335 0.0
C1556 C 0.15175 0.49093 0.63177 0.0
C1557 C 0.1428 0.54316 0.60837 0.0
C1558 C 0.15146 0.4542 0.63183 0.0
C1559 C 0.13783 0.42906 0.61141 0.0
C1560 C 0.13916 0.50276 0.61094 0.0
C1561 C 0.12357 0.44111 0.59164 0.0
C1562 C 0.13739 0.55595 0.58556 0.0
C1563 C 0.15342 0.60475 0.62576 0.0
N1564 N 0.12484 0.47697 0.59185 0.0
N1565 N 0.15125 0.56825 0.62773 0.0
H1566 H 0.32239 0.89606 0.8645 0.0
H1567 H 0.47993 0.85125 0.93129 0.0
H1568 H 0.32417 0.88225 0.94186 0.0
H1569 H 0.51735 0.9308 0.86984 0.0
H1570 H 0.41461 0.84856 0.93063 0.0
H1571 H 0.38771 0.89847 0.8618 0.0
C1572 C 0.33682 0.89438 0.88093 0.0
C1573 C 0.31821 0.89 0.90354 0.0
C1574 C 0.43692 0.86616 0.91706 0.0
C1575 C 0.39139 0.88999 0.90038 0.0
C1576 C 0.47395 0.86727 0.91727 0.0
C1577 C 0.50388 0.89092 0.90046 0.0
C1578 C 0.42942 0.88838 0.89969 0.0
C1579 C 0.49487 0.91191 0.88298 0.0
C1580 C 0.37382 0.89525 0.87935 0.0
C1581 C 0.33761 0.88621 0.9241 0.0
N1582 N 0.45845 0.91009 0.88298 0.0
N1583 N 0.37273 0.8859 0.92202 0.0
H1584 H 0.61094 0.70277 0.57137 0.0
H1585 H 0.39697 0.57037 0.61633 0.0
H1586 H 0.59229 0.72185 0.64594 0.0
H1587 H 0.45902 0.51242 0.58684 0.0
H1588 H 0.46269 0.6297 0.62541 0.0
H1589 H 0.55051 0.63621 0.57304 0.0
C1590 C 0.59454 0.69246 0.58827 0.0
C1591 C 0.60715 0.71728 0.60872 0.0
C1592 C 0.4616 0.60358 0.6173 0.0
C1593 C 0.53657 0.64237 0.61027 0.0
C1594 C 0.42412 0.56963 0.61215 0.0
C1595 C 0.42207 0.53643 0.60012 0.0
C1596 C 0.49712 0.60456 0.61 0.0
C1597 C 0.4587 0.53766 0.59519 0.0
C1598 C 0.56004 0.65467 0.58917 0.0
C1599 C 0.5841 0.70305 0.62999 0.0
N1600 N 0.49448 0.57139 0.59953 0.0
N1601 N 0.5493 0.66677 0.6301 0.0
H1602 H 0.1853 0.63538 0.92898 0.0
H1603 H 0.14821 0.43678 0.8613 0.0
H1604 H 0.11368 0.59676 0.86408 0.0
H1605 H 0.15375 0.44907 0.93898 0.0
H1606 H 0.1459 0.49956 0.85814 0.0
H1607 H 0.18796 0.57291 0.92872 0.0
C1608 C 0.17109 0.61421 0.91432 0.0
C1609 C 0.14964 0.62139 0.89639 0.0
C1610 C 0.14724 0.48817 0.87584 0.0
C1611 C 0.15207 0.54965 0.89609 0.0
C1612 C 0.14805 0.45212 0.87766 0.0
C1613 C 0.15016 0.43709 0.90049 0.0
C1614 C 0.15024 0.51003 0.89693 0.0
C1615 C 0.15157 0.45923 0.92104 0.0
C1616 C 0.17215 0.57838 0.91433 0.0
C1617 C 0.13087 0.59245 0.87809 0.0
N1618 N 0.152 0.49459 0.91877 0.0
N1619 N 0.13257 0.55788 0.87835 0.0
H1620 H 0.34079 0.91384 0.57005 0.0
H1621 H 0.47766 0.83821 0.61683 0.0
H1622 H 0.3189 0.87338 0.64414 0.0
H1623 H 0.53364 0.96042 0.59105 0.0
H1624 H 0.41532 0.84009 0.62392 0.0
H1625 H 0.40804 0.92137 0.57263 0.0
C1626 C 0.35053 0.90728 0.587 0.0
C1627 C 0.32479 0.89404 0.60709 0.0
C1628 C 0.44161 0.86652 0.617 0.0
C1629 C 0.40056 0.90018 0.60968 0.0
C1630 C 0.47731 0.86559 0.61299 0.0
C1631 C 0.5111 0.89881 0.60264 0.0
C1632 C 0.43943 0.90054 0.61019 0.0
C1633 C 0.50822 0.93336 0.59806 0.0
C1634 C 0.38871 0.91139 0.58842 0.0
C1635 C 0.33837 0.88474 0.62846 0.0
N1636 N 0.47292 0.93295 0.60126 0.0
N1637 N 0.37515 0.88727 0.62909 0.0
H1638 H 0.61049 0.70812 0.93964 0.0
H1639 H 0.41524 0.54197 0.86832 0.0
H1640 H 0.59292 0.72079 0.86385 0.0
H1641 H 0.44062 0.53658 0.94381 0.0
H1642 H 0.47946 0.60606 0.86486 0.0
H1643 H 0.54974 0.64254 0.93973 0.0
C1644 C 0.59418 0.69651 0.92282 0.0
C1645 C 0.60714 0.71959 0.90166 0.0
C1646 C 0.47081 0.5908 0.88216 0.0
C1647 C 0.53588 0.64472 0.90173 0.0
C1648 C 0.43398 0.55448 0.8842 0.0
C1649 C 0.42252 0.53374 0.90638 0.0
C1650 C 0.49617 0.60646 0.90249 0.0
C1651 C 0.44825 0.55118 0.92629 0.0
C1652 C 0.55915 0.65915 0.9229 0.0
C1653 C 0.58437 0.70351 0.88045 0.0
N1654 N 0.48358 0.58615 0.92383 0.0
N1655 N 0.54958 0.66715 0.88106 0.0
loop_
_geom_bond_atom_site_label_1
_geom_bond_atom_site_label_2
_geom_bond_distance
_geom_bond_site_symmetry_2
_ccdc_geom_bond_type
Gd0 N31 2.661 . S
Gd0 N37 2.601 . S
Gd0 O44 2.545 . S
Gd0 O45 2.606 . S
Gd0 O47 2.429 . S
Gd0 O48 2.545 . S
Gd0 O49 2.412 . S
Gd0 O51 2.362 . S
Gd0 O52 2.324 . S
Gd0 C59 2.828 . S
Gd1 N10 2.661 . S
Gd1 N14 2.601 . S
Gd1 O45 2.362 . S
Gd1 O46 2.324 . S
Gd1 O50 2.545 . S
Gd1 O51 2.606 . S
Gd1 O53 2.429 . S
Gd1 O54 2.545 . S
Gd1 O55 2.412 . S
Gd1 C68 2.828 . S
C2 C5 1.417 . S
C2 C7 1.431 . S
C2 C8 1.412 . S
C3 C6 1.437 . S
C3 C7 1.317 . S
C3 H22 0.929 . S
C4 C5 1.426 . S
C4 C6 1.413 . S
C4 N14 1.359 . S
C5 C2 1.417 . S
C5 C4 1.426 . S
C5 N10 1.350 . S
C6 C3 1.437 . S
C6 C4 1.413 . S
C6 C16 1.391 . S
C7 C2 1.431 . S
C7 C3 1.317 . S
C7 H18 0.930 . S
C8 C2 1.412 . S
C8 C9 1.355 . S
C8 H20 0.930 . S
C9 C8 1.355 . S
C9 C11 1.402 . S
C9 H21 0.930 . S
N10 Gd1 2.661 . S
N10 C5 1.350 . S
N10 C11 1.307 . S
C11 C9 1.402 . S
C11 N10 1.307 . S
C11 H12 0.930 . S
H12 C11 0.930 . S
C13 N14 1.334 . S
C13 C15 1.394 . S
C13 H17 0.930 . S
N14 Gd1 2.601 . S
N14 C4 1.359 . S
N14 C13 1.334 . S
C15 C13 1.394 . S
C15 C16 1.359 . S
C15 H27 0.930 . S
C16 C6 1.391 . S
C16 C15 1.359 . S
C16 H28 0.929 . S
H17 C13 0.930 . S
H18 C7 0.930 . S
H19 C36 0.930 . S
H20 C8 0.930 . S
H21 C9 0.930 . S
H22 C3 0.929 . S
H23 C41 0.930 . S
H24 C32 0.930 . S
H25 C33 0.930 . S
H26 C57 0.929 1_565 S
H27 C15 0.930 . S
H28 C16 0.929 . S
H29 C58 0.930 1_565 S
H30 C39 0.930 . S
N31 Gd0 2.661 . S
N31 C35 1.350 . S
N31 C36 1.307 . S
C32 H24 0.930 . S
C32 C33 1.355 . S
C32 C34 1.412 . S
C33 H25 0.930 . S
C33 C32 1.355 . S
C33 C36 1.402 . S
C34 C32 1.412 . S
C34 C35 1.417 . S
C34 C58 1.431 . S
C35 N31 1.350 . S
C35 C34 1.417 . S
C35 C38 1.426 . S
C36 H19 0.930 . S
C36 N31 1.307 . S
C36 C33 1.402 . S
N37 Gd0 2.601 . S
N37 C38 1.359 . S
N37 C41 1.334 . S
C38 C35 1.426 . S
C38 N37 1.359 . S
C38 C42 1.413 . S
C39 H30 0.930 . S
C39 C40 1.359 . S
C39 C41 1.394 . S
C40 C39 1.359 . S
C40 C42 1.391 . S
C40 H43 0.929 . S
C41 H23 0.930 . S
C41 N37 1.334 . S
C41 C39 1.394 . S
C42 C38 1.413 . S
C42 C40 1.391 . S
C42 C57 1.437 . S
H43 C40 0.929 . S
O44 Gd0 2.545 . S
O44 C59 1.258 . S
O45 Gd0 2.606 . S
O45 Gd1 2.362 . S
O45 C56 1.284 . S
O46 Gd1 2.324 . S
O46 C66 1.254 . S
O47 Gd0 2.429 . S
O47 C66 1.268 . S
O48 Gd0 2.545 . S
O48 C56 1.250 . S
O49 Gd0 2.412 . S
O49 C59 1.252 . S
O50 Gd1 2.545 . S
O50 C68 1.258 . S
O51 Gd0 2.362 . S
O51 Gd1 2.606 . S
O51 C67 1.284 . S
O52 Gd0 2.324 . S
O52 C75 1.254 . S
O53 Gd1 2.429 . S
O53 C75 1.268 . S
O54 Gd1 2.545 . S
O54 C67 1.250 . S
O55 Gd1 2.412 . S
O55 C68 1.252 . S
C56 O45 1.284 . S
C56 O48 1.250 . S
C57 H26 0.929 1_545 S
C57 C42 1.437 . S
C57 C58 1.317 . S
C58 H29 0.930 1_545 S
C58 C34 1.431 . S
C58 C57 1.317 . S
C59 Gd0 2.828 . S
C59 O44 1.258 . S
C59 O49 1.252 . S
C59 C60 1.497 1_545 S
C60 C59 1.497 1_565 S
C60 C61 1.395 . S
C60 C62 1.380 . S
C61 C60 1.395 . S
C61 C64 1.398 . S
C61 H76 0.930 . S
C62 C60 1.380 . S
C62 C63 1.391 . S
C62 H77 0.930 . S
C63 C62 1.391 . S
C63 C65 1.387 . S
C64 C61 1.398 . S
C64 C65 1.380 . S
C64 H78 0.930 . S
C65 C63 1.387 . S
C65 C64 1.380 . S
C65 H79 0.930 . S
C66 O46 1.254 . S
C66 O47 1.268 . S
C67 O51 1.284 . S
C67 O54 1.250 . S
C68 Gd1 2.828 . S
C68 O50 1.258 . S
C68 O55 1.252 . S
C68 C69 1.497 . S
C69 C68 1.497 . S
C69 C70 1.395 . S
C69 C71 1.380 . S
C70 C69 1.395 . S
C70 C73 1.398 . S
C70 H80 0.930 . S
C71 C69 1.380 . S
C71 C72 1.391 . S
C71 H81 0.930 . S
C72 C71 1.391 . S
C72 C74 1.387 . S
C73 C70 1.398 . S
C73 C74 1.380 . S
C73 H82 0.930 . S
C74 C72 1.387 . S
C74 C73 1.380 . S
C74 H83 0.930 . S
C75 O52 1.254 . S
C75 O53 1.268 . S
H76 C61 0.930 . S
H77 C62 0.930 . S
H78 C64 0.930 . S
H79 C65 0.930 . S
H80 C70 0.930 . S
H81 C71 0.930 . S
H82 C73 0.930 . S
H83 C74 0.930 . S
Gd84 N115 2.661 . S
Gd84 N121 2.601 . S
Gd84 O128 2.545 . S
Gd84 O129 2.606 . S
Gd84 O131 2.429 . S
Gd84 O132 2.545 . S
Gd84 O133 2.412 . S
Gd84 O135 2.362 . S
Gd84 O136 2.324 . S
Gd84 C143 2.828 . S
Gd85 N94 2.661 . S
Gd85 N98 2.601 . S
Gd85 O129 2.362 . S
Gd85 O130 2.324 . S
Gd85 O134 2.545 . S
Gd85 O135 2.606 . S
Gd85 O137 2.429 . S
Gd85 O138 2.545 . S
Gd85 O139 2.412 . S
Gd85 C152 2.828 . S
C86 C89 1.417 . S
C86 C91 1.431 . S
C86 C92 1.412 . S
C87 C90 1.437 . S
C87 C91 1.317 . S
C87 H106 0.929 . S
C88 C89 1.426 . S
C88 C90 1.413 . S
C88 N98 1.359 . S
C89 C86 1.417 . S
C89 C88 1.426 . S
C89 N94 1.350 . S
C90 C87 1.437 . S
C90 C88 1.413 . S
C90 C100 1.391 . S
C91 C86 1.431 . S
C91 C87 1.317 . S
C91 H102 0.930 . S
C92 C86 1.412 . S
C92 C93 1.355 . S
C92 H104 0.930 . S
C93 C92 1.355 . S
C93 C95 1.402 . S
C93 H105 0.930 . S
N94 Gd85 2.661 . S
N94 C89 1.350 . S
N94 C95 1.307 . S
C95 C93 1.402 . S
C95 N94 1.307 . S
C95 H96 0.930 . S
H96 C95 0.930 . S
C97 N98 1.334 . S
C97 C99 1.394 . S
C97 H101 0.930 . S
N98 Gd85 2.601 . S
N98 C88 1.359 . S
N98 C97 1.334 . S
C99 C97 1.394 . S
C99 C100 1.359 . S
C99 H111 0.930 . S
C100 C90 1.391 . S
C100 C99 1.359 . S
C100 H112 0.929 . S
H101 C97 0.930 . S
H102 C91 0.930 . S
H103 C120 0.930 . S
H104 C92 0.930 . S
H105 C93 0.930 . S
H106 C87 0.929 . S
H107 C125 0.930 . S
H108 C116 0.910 1_455 S
H109 C117 0.930 . S
H110 C141 0.929 . S
H111 C99 0.930 . S
H112 C100 0.929 . S
H113 C142 0.930 . S
H114 C123 0.930 . S
N115 Gd84 2.661 . S
N115 C119 1.350 . S
N115 C120 1.307 . S
C116 H108 0.910 1_655 S
C116 C117 1.370 . S
C116 C118 1.416 . S
C117 H109 0.930 . S
C117 C116 1.370 . S
C117 C120 1.402 . S
C118 C116 1.416 . S
C118 C119 1.417 . S
C118 C142 1.431 1_655 S
C119 N115 1.350 . S
C119 C118 1.417 . S
C119 C122 1.426 . S
C120 H103 0.930 . S
C120 N115 1.307 . S
C120 C117 1.402 . S
N121 Gd84 2.601 . S
N121 C122 1.359 . S
N121 C125 1.334 . S
C122 C119 1.426 . S
C122 N121 1.359 . S
C122 C126 1.413 . S
C123 H114 0.930 . S
C123 C124 1.359 . S
C123 C125 1.394 . S
C124 C123 1.359 . S
C124 C126 1.391 . S
C124 H127 0.929 . S
C125 H107 0.930 . S
C125 N121 1.334 . S
C125 C123 1.394 . S
C126 C122 1.413 . S
C126 C124 1.391 . S
C126 C141 1.437 1_655 S
H127 C124 0.929 . S
O128 Gd84 2.545 . S
O128 C143 1.258 . S
O129 Gd84 2.606 . S
O129 Gd85 2.362 . S
O129 C140 1.284 . S
O130 Gd85 2.324 . S
O130 C150 1.254 . S
O131 Gd84 2.429 . S
O131 C150 1.268 . S
O132 Gd84 2.545 . S
O132 C140 1.250 . S
O133 Gd84 2.412 . S
O133 C143 1.252 . S
O134 Gd85 2.545 . S
O134 C152 1.258 . S
O135 Gd84 2.362 . S
O135 Gd85 2.606 . S
O135 C151 1.284 . S
O136 Gd84 2.324 . S
O136 C159 1.254 . S
O137 Gd85 2.429 . S
O137 C159 1.268 . S
O138 Gd85 2.545 . S
O138 C151 1.250 . S
O139 Gd85 2.412 . S
O139 C152 1.252 . S
C140 O129 1.284 . S
C140 O132 1.250 . S
C141 H110 0.929 . S
C141 C126 1.437 1_455 S
C141 C142 1.317 . S
C142 H113 0.930 . S
C142 C118 1.431 1_455 S
C142 C141 1.317 . S
C143 Gd84 2.828 . S
C143 O128 1.258 . S
C143 O133 1.252 . S
C143 C144 1.497 . S
C144 C143 1.497 . S
C144 C145 1.395 . S
C144 C146 1.380 . S
C145 C144 1.395 . S
C145 C148 1.398 . S
C145 H160 0.930 . S
C146 C144 1.380 . S
C146 C147 1.391 . S
C146 H161 0.930 . S
C147 C146 1.391 . S
C147 C149 1.387 . S
C148 C145 1.398 . S
C148 C149 1.380 . S
C148 H162 0.930 . S
C149 C147 1.387 . S
C149 C148 1.380 . S
C149 H163 0.930 . S
C150 O130 1.254 . S
C150 O131 1.268 . S
C151 O135 1.284 . S
C151 O138 1.250 . S
C152 Gd85 2.828 . S
C152 O134 1.258 . S
C152 O139 1.252 . S
C152 C153 1.497 . S
C153 C152 1.497 . S
C153 C154 1.395 . S
C153 C155 1.380 . S
C154 C153 1.395 . S
C154 C157 1.398 . S
C154 H164 0.930 . S
C155 C153 1.380 . S
C155 C156 1.391 . S
C155 H165 0.930 . S
C156 C155 1.391 . S
C156 C158 1.387 . S
C157 C154 1.398 . S
C157 C158 1.380 . S
C157 H166 0.930 . S
C158 C156 1.387 . S
C158 C157 1.380 . S
C158 H167 0.930 . S
C159 O136 1.254 . S
C159 O137 1.268 . S
H160 C145 0.930 . S
H161 C146 0.930 . S
H162 C148 0.930 . S
H163 C149 0.930 . S
H164 C154 0.930 . S
H165 C155 0.930 . S
H166 C157 0.930 . S
H167 C158 0.930 . S
Gd168 N199 2.661 . S
Gd168 N205 2.601 . S
Gd168 O212 2.545 . S
Gd168 O213 2.606 . S
Gd168 O215 2.429 . S
Gd168 O216 2.545 . S
Gd168 O217 2.412 . S
Gd168 O219 2.362 . S
Gd168 O220 2.324 . S
Gd168 C227 2.828 . S
Gd169 N178 2.661 . S
Gd169 N182 2.601 . S
Gd169 O213 2.362 . S
Gd169 O214 2.324 . S
Gd169 O218 2.545 . S
Gd169 O219 2.606 . S
Gd169 O221 2.429 . S
Gd169 O222 2.545 . S
Gd169 O223 2.412 . S
Gd169 C236 2.828 . S
C170 C173 1.417 . S
C170 C175 1.431 1_545 S
C170 C176 1.419 . S
C171 C174 1.437 1_565 S
C171 C175 1.317 . S
C171 H190 0.929 . S
C172 C173 1.426 . S
C172 C174 1.413 . S
C172 N182 1.359 . S
C173 C170 1.417 . S
C173 C172 1.426 . S
C173 N178 1.350 . S
C174 C171 1.437 1_545 S
C174 C172 1.413 . S
C174 C184 1.391 . S
C175 C170 1.431 1_565 S
C175 C171 1.317 . S
C175 H186 0.930 . S
C176 C170 1.419 . S
C176 C177 1.368 . S
C176 H188 0.910 1_545 S
C177 C176 1.368 . S
C177 C179 1.402 . S
C177 H189 0.930 . S
N178 Gd169 2.661 . S
N178 C173 1.350 . S
N178 C179 1.307 . S
C179 C177 1.402 . S
C179 N178 1.307 . S
C179 H180 0.930 . S
H180 C179 0.930 . S
C181 N182 1.334 . S
C181 C183 1.394 . S
C181 H185 0.930 . S
N182 Gd169 2.601 . S
N182 C172 1.359 . S
N182 C181 1.334 . S
C183 C181 1.394 . S
C183 C184 1.359 . S
C183 H195 0.930 . S
C184 C174 1.391 . S
C184 C183 1.359 . S
C184 H196 0.929 . S
H185 C181 0.930 . S
H186 C175 0.930 . S
H187 C204 0.930 . S
H188 C176 0.910 1_565 S
H189 C177 0.930 . S
H190 C171 0.929 . S
H191 C209 0.930 . S
H192 C200 0.930 . S
H193 C201 0.930 . S
H194 C225 0.929 1_455 S
H195 C183 0.930 . S
H196 C184 0.929 . S
H197 C226 0.930 1_455 S
H198 C207 0.930 . S
N199 Gd168 2.661 . S
N199 C203 1.350 . S
N199 C204 1.307 . S
C200 H192 0.930 . S
C200 C201 1.355 . S
C200 C202 1.412 . S
C201 H193 0.930 . S
C201 C200 1.355 . S
C201 C204 1.402 . S
C202 C200 1.412 . S
C202 C203 1.417 . S
C202 C226 1.431 . S
C203 N199 1.350 . S
C203 C202 1.417 . S
C203 C206 1.426 . S
C204 H187 0.930 . S
C204 N199 1.307 . S
C204 C201 1.402 . S
N205 Gd168 2.601 . S
N205 C206 1.359 . S
N205 C209 1.334 . S
C206 C203 1.426 . S
C206 N205 1.359 . S
C206 C210 1.413 . S
C207 H198 0.930 . S
C207 C208 1.359 . S
C207 C209 1.394 . S
C208 C207 1.359 . S
C208 C210 1.391 . S
C208 H211 0.929 . S
C209 H191 0.930 . S
C209 N205 1.334 . S
C209 C207 1.394 . S
C210 C206 1.413 . S
C210 C208 1.391 . S
C210 C225 1.437 . S
H211 C208 0.929 . S
O212 Gd168 2.545 . S
O212 C227 1.258 . S
O213 Gd168 2.606 . S
O213 Gd169 2.362 . S
O213 C224 1.284 . S
O214 Gd169 2.324 . S
O214 C234 1.254 . S
O215 Gd168 2.429 . S
O215 C234 1.268 . S
O216 Gd168 2.545 . S
O216 C224 1.250 . S
O217 Gd168 2.412 . S
O217 C227 1.252 . S
O218 Gd169 2.545 . S
O218 C236 1.258 . S
O219 Gd168 2.362 . S
O219 Gd169 2.606 . S
O219 C235 1.284 . S
O220 Gd168 2.324 . S
O220 C243 1.254 . S
O221 Gd169 2.429 . S
O221 C243 1.268 . S
O222 Gd169 2.545 . S
O222 C235 1.250 . S
O223 Gd169 2.412 . S
O223 C236 1.252 . S
C224 O213 1.284 . S
C224 O216 1.250 . S
C225 H194 0.929 1_655 S
C225 C210 1.437 . S
C225 C226 1.317 . S
C226 H197 0.930 1_655 S
C226 C202 1.431 . S
C226 C225 1.317 . S
C227 Gd168 2.828 . S
C227 O212 1.258 . S
C227 O217 1.252 . S
C227 C228 1.497 1_655 S
C228 C227 1.497 1_455 S
C228 C229 1.395 . S
C228 C230 1.380 . S
C229 C228 1.395 . S
C229 C232 1.398 . S
C229 H244 0.930 . S
C230 C228 1.380 . S
C230 C231 1.391 . S
C230 H245 0.930 . S
C231 C230 1.391 . S
C231 C233 1.387 . S
C232 C229 1.398 . S
C232 C233 1.380 . S
C232 H246 0.930 . S
C233 C231 1.387 . S
C233 C232 1.380 . S
C233 H247 0.930 . S
C234 O214 1.254 . S
C234 O215 1.268 . S
C235 O219 1.284 . S
C235 O222 1.250 . S
C236 Gd169 2.828 . S
C236 O218 1.258 . S
C236 O223 1.252 . S
C236 C237 1.497 . S
C237 C236 1.497 . S
C237 C238 1.395 . S
C237 C239 1.380 . S
C238 C237 1.395 . S
C238 C241 1.398 . S
C238 H248 0.930 . S
C239 C237 1.380 . S
C239 C240 1.391 . S
C239 H249 0.930 . S
C240 C239 1.391 . S
C240 C242 1.387 . S
C241 C238 1.398 . S
C241 C242 1.380 . S
C241 H250 0.930 . S
C242 C240 1.387 . S
C242 C241 1.380 . S
C242 H251 0.930 . S
C243 O220 1.254 . S
C243 O221 1.268 . S
H244 C229 0.930 . S
H245 C230 0.930 . S
H246 C232 0.930 . S
H247 C233 0.930 . S
H248 C238 0.930 . S
H249 C239 0.930 . S
H250 C241 0.930 . S
H251 C242 0.930 . S
Gd252 N283 2.661 . S
Gd252 N289 2.601 . S
Gd252 O296 2.545 . S
Gd252 O297 2.606 . S
Gd252 O299 2.429 . S
Gd252 O300 2.545 . S
Gd252 O301 2.412 . S
Gd252 O303 2.362 . S
Gd252 O304 2.324 . S
Gd252 C311 2.828 . S
Gd253 N262 2.661 . S
Gd253 N266 2.601 . S
Gd253 O297 2.362 . S
Gd253 O298 2.324 . S
Gd253 O302 2.545 . S
Gd253 O303 2.606 . S
Gd253 O305 2.429 . S
Gd253 O306 2.545 . S
Gd253 O307 2.412 . S
Gd253 C320 2.828 . S
C254 C257 1.417 . S
C254 C259 1.431 . S
C254 C260 1.412 . S
C255 C258 1.437 . S
C255 C259 1.317 . S
C255 H274 0.929 1_545 S
C256 C257 1.426 . S
C256 C258 1.413 . S
C256 N266 1.359 . S
C257 C254 1.417 . S
C257 C256 1.426 . S
C257 N262 1.350 . S
C258 C255 1.437 . S
C258 C256 1.413 . S
C258 C268 1.391 . S
C259 C254 1.431 . S
C259 C255 1.317 . S
C259 H270 0.930 1_545 S
C260 C254 1.412 . S
C260 C261 1.355 . S
C260 H272 0.930 . S
C261 C260 1.355 . S
C261 C263 1.402 . S
C261 H273 0.930 . S
N262 Gd253 2.661 . S
N262 C257 1.350 . S
N262 C263 1.307 . S
C263 C261 1.402 . S
C263 N262 1.307 . S
C263 H264 0.930 . S
H264 C263 0.930 . S
C265 N266 1.334 . S
C265 C267 1.394 . S
C265 H269 0.930 . S
N266 Gd253 2.601 . S
N266 C256 1.359 . S
N266 C265 1.334 . S
C267 C265 1.394 . S
C267 C268 1.359 . S
C267 H279 0.930 . S
C268 C258 1.391 . S
C268 C267 1.359 . S
C268 H280 0.929 . S
H269 C265 0.930 . S
H270 C259 0.930 1_565 S
H271 C288 0.930 . S
H272 C260 0.930 . S
H273 C261 0.930 . S
H274 C255 0.929 1_565 S
H275 C293 0.930 . S
H276 C284 0.930 . S
H277 C285 0.930 . S
H278 C309 0.929 . S
H279 C267 0.930 . S
H280 C268 0.929 . S
H281 C310 0.930 . S
H282 C291 0.930 . S
N283 Gd252 2.661 . S
N283 C287 1.350 . S
N283 C288 1.307 . S
C284 H276 0.930 . S
C284 C285 1.355 . S
C284 C286 1.412 . S
C285 H277 0.930 . S
C285 C284 1.355 . S
C285 C288 1.402 . S
C286 C284 1.412 . S
C286 C287 1.417 . S
C286 C310 1.431 . S
C287 N283 1.350 . S
C287 C286 1.417 . S
C287 C290 1.426 . S
C288 H271 0.930 . S
C288 N283 1.307 . S
C288 C285 1.402 . S
N289 Gd252 2.601 . S
N289 C290 1.359 . S
N289 C293 1.334 . S
C290 C287 1.426 . S
C290 N289 1.359 . S
C290 C294 1.413 . S
C291 H282 0.930 . S
C291 C292 1.359 . S
C291 C293 1.394 . S
C292 C291 1.359 . S
C292 C294 1.391 . S
C292 H295 0.929 . S
C293 H275 0.930 . S
C293 N289 1.334 . S
C293 C291 1.394 . S
C294 C290 1.413 . S
C294 C292 1.391 . S
C294 C309 1.437 . S
H295 C292 0.929 . S
O296 Gd252 2.545 . S
O296 C311 1.258 . S
O297 Gd252 2.606 . S
O297 Gd253 2.362 . S
O297 C308 1.284 . S
O298 Gd253 2.324 . S
O298 C318 1.254 . S
O299 Gd252 2.429 . S
O299 C318 1.268 . S
O300 Gd252 2.545 . S
O300 C308 1.250 . S
O301 Gd252 2.412 . S
O301 C311 1.252 . S
O302 Gd253 2.545 . S
O302 C320 1.258 . S
O303 Gd252 2.362 . S
O303 Gd253 2.606 . S
O303 C319 1.284 . S
O304 Gd252 2.324 . S
O304 C327 1.254 . S
O305 Gd253 2.429 . S
O305 C327 1.268 . S
O306 Gd253 2.545 . S
O306 C319 1.250 . S
O307 Gd253 2.412 . S
O307 C320 1.252 . S
C308 O297 1.284 . S
C308 O300 1.250 . S
C309 H278 0.929 . S
C309 C294 1.437 . S
C309 C310 1.317 . S
C310 H281 0.930 . S
C310 C286 1.431 . S
C310 C309 1.317 . S
C311 Gd252 2.828 . S
C311 O296 1.258 . S
C311 O301 1.252 . S
C311 C312 1.497 . S
C312 C311 1.497 . S
C312 C313 1.395 . S
C312 C314 1.380 . S
C313 C312 1.395 . S
C313 C316 1.398 . S
C313 H328 0.930 . S
C314 C312 1.380 . S
C314 C315 1.391 . S
C314 H329 0.930 . S
C315 C314 1.391 . S
C315 C317 1.387 . S
C316 C313 1.398 . S
C316 C317 1.380 . S
C316 H330 0.930 . S
C317 C315 1.387 . S
C317 C316 1.380 . S
C317 H331 0.930 . S
C318 O298 1.254 . S
C318 O299 1.268 . S
C319 O303 1.284 . S
C319 O306 1.250 . S
C320 Gd253 2.828 . S
C320 O302 1.258 . S
C320 O307 1.252 . S
C320 C321 1.497 1_545 S
C321 C320 1.497 1_565 S
C321 C322 1.395 . S
C321 C323 1.380 . S
C322 C321 1.395 . S
C322 C325 1.398 . S
C322 H332 0.930 . S
C323 C321 1.380 . S
C323 C324 1.391 . S
C323 H333 0.930 . S
C324 C323 1.391 . S
C324 C326 1.387 . S
C325 C322 1.398 . S
C325 C326 1.380 . S
C325 H334 0.930 . S
C326 C324 1.387 . S
C326 C325 1.380 . S
C326 H335 0.930 . S
C327 O304 1.254 . S
C327 O305 1.268 . S
H328 C313 0.930 . S
H329 C314 0.930 . S
H330 C316 0.930 . S
H331 C317 0.930 . S
H332 C322 0.930 . S
H333 C323 0.930 . S
H334 C325 0.930 . S
H335 C326 0.930 . S
Gd336 N367 2.661 . S
Gd336 N373 2.601 . S
Gd336 O380 2.545 . S
Gd336 O381 2.606 . S
Gd336 O383 2.429 . S
Gd336 O384 2.545 . S
Gd336 O385 2.412 . S
Gd336 O387 2.362 . S
Gd336 O388 2.324 . S
Gd336 C395 2.828 . S
Gd337 N346 2.661 . S
Gd337 N350 2.601 . S
Gd337 O381 2.362 . S
Gd337 O382 2.324 . S
Gd337 O386 2.545 . S
Gd337 O387 2.606 . S
Gd337 O389 2.429 . S
Gd337 O390 2.545 . S
Gd337 O391 2.412 . S
Gd337 C404 2.828 . S
C338 C341 1.417 . S
C338 C343 1.431 1_655 S
C338 C344 1.416 . S
C339 C342 1.437 1_455 S
C339 C343 1.317 . S
C339 H358 0.929 . S
C340 C341 1.426 . S
C340 C342 1.413 . S
C340 N350 1.359 . S
C341 C338 1.417 . S
C341 C340 1.426 . S
C341 N346 1.350 . S
C342 C339 1.437 1_655 S
C342 C340 1.413 . S
C342 C352 1.391 . S
C343 C338 1.431 1_455 S
C343 C339 1.317 . S
C343 H354 0.930 . S
C344 C338 1.416 . S
C344 C345 1.370 . S
C344 H356 0.910 1_655 S
C345 C344 1.370 . S
C345 C347 1.402 . S
C345 H357 0.930 . S
N346 Gd337 2.661 . S
N346 C341 1.350 . S
N346 C347 1.307 . S
C347 C345 1.402 . S
C347 N346 1.307 . S
C347 H348 0.930 . S
H348 C347 0.930 . S
C349 N350 1.334 . S
C349 C351 1.394 . S
C349 H353 0.930 . S
N350 Gd337 2.601 . S
N350 C340 1.359 . S
N350 C349 1.334 . S
C351 C349 1.394 . S
C351 C352 1.359 . S
C351 H363 0.930 . S
C352 C342 1.391 . S
C352 C351 1.359 . S
C352 H364 0.929 . S
H353 C349 0.930 . S
H354 C343 0.930 . S
H355 C372 0.930 . S
H356 C344 0.910 1_455 S
H357 C345 0.930 . S
H358 C339 0.929 . S
H359 C377 0.930 . S
H360 C368 0.930 . S
H361 C369 0.930 . S
H362 C393 0.929 . S
H363 C351 0.930 . S
H364 C352 0.929 . S
H365 C394 0.930 . S
H366 C375 0.930 . S
N367 Gd336 2.661 . S
N367 C371 1.350 . S
N367 C372 1.307 . S
C368 H360 0.930 . S
C368 C369 1.355 . S
C368 C370 1.412 . S
C369 H361 0.930 . S
C369 C368 1.355 . S
C369 C372 1.402 . S
C370 C368 1.412 . S
C370 C371 1.417 . S
C370 C394 1.431 . S
C371 N367 1.350 . S
C371 C370 1.417 . S
C371 C374 1.426 . S
C372 H355 0.930 . S
C372 N367 1.307 . S
C372 C369 1.402 . S
N373 Gd336 2.601 . S
N373 C374 1.359 . S
N373 C377 1.334 . S
C374 C371 1.426 . S
C374 N373 1.359 . S
C374 C378 1.413 . S
C375 H366 0.930 . S
C375 C376 1.359 . S
C375 C377 1.394 . S
C376 C375 1.359 . S
C376 C378 1.391 . S
C376 H379 0.929 . S
C377 H359 0.930 . S
C377 N373 1.334 . S
C377 C375 1.394 . S
C378 C374 1.413 . S
C378 C376 1.391 . S
C378 C393 1.437 . S
H379 C376 0.929 . S
O380 Gd336 2.545 . S
O380 C395 1.258 . S
O381 Gd336 2.606 . S
O381 Gd337 2.362 . S
O381 C392 1.284 . S
O382 Gd337 2.324 . S
O382 C402 1.254 . S
O383 Gd336 2.429 . S
O383 C402 1.268 . S
O384 Gd336 2.545 . S
O384 C392 1.250 . S
O385 Gd336 2.412 . S
O385 C395 1.252 . S
O386 Gd337 2.545 . S
O386 C404 1.258 . S
O387 Gd336 2.362 . S
O387 Gd337 2.606 . S
O387 C403 1.284 . S
O388 Gd336 2.324 . S
O388 C411 1.254 . S
O389 Gd337 2.429 . S
O389 C411 1.268 . S
O390 Gd337 2.545 . S
O390 C403 1.250 . S
O391 Gd337 2.412 . S
O391 C404 1.252 . S
C392 O381 1.284 . S
C392 O384 1.250 . S
C393 H362 0.929 . S
C393 C378 1.437 . S
C393 C394 1.317 . S
C394 H365 0.930 . S
C394 C370 1.431 . S
C394 C393 1.317 . S
C395 Gd336 2.828 . S
C395 O380 1.258 . S
C395 O385 1.252 . S
C395 C396 1.497 . S
C396 C395 1.497 . S
C396 C397 1.395 . S
C396 C398 1.380 . S
C397 C396 1.395 . S
C397 C400 1.398 . S
C397 H412 0.930 . S
C398 C396 1.380 . S
C398 C399 1.391 . S
C398 H413 0.930 . S
C399 C398 1.391 . S
C399 C401 1.387 . S
C400 C397 1.398 . S
C400 C401 1.380 . S
C400 H414 0.930 . S
C401 C399 1.387 . S
C401 C400 1.380 . S
C401 H415 0.930 . S
C402 O382 1.254 . S
C402 O383 1.268 . S
C403 O387 1.284 . S
C403 O390 1.250 . S
C404 Gd337 2.828 . S
C404 O386 1.258 . S
C404 O391 1.252 . S
C404 C405 1.497 . S
C405 C404 1.497 . S
C405 C406 1.395 . S
C405 C407 1.380 . S
C406 C405 1.395 . S
C406 C409 1.398 . S
C406 H416 0.930 . S
C407 C405 1.380 . S
C407 C408 1.391 . S
C407 H417 0.930 . S
C408 C407 1.391 . S
C408 C410 1.387 . S
C409 C406 1.398 . S
C409 C410 1.380 . S
C409 H418 0.930 . S
C410 C408 1.387 . S
C410 C409 1.380 . S
C410 H419 0.930 . S
C411 O388 1.254 . S
C411 O389 1.268 . S
H412 C397 0.930 . S
H413 C398 0.930 . S
H414 C400 0.930 . S
H415 C401 0.930 . S
H416 C406 0.930 . S
H417 C407 0.930 . S
H418 C409 0.930 . S
H419 C410 0.930 . S
Gd420 N451 2.661 . S
Gd420 N457 2.601 . S
Gd420 O464 2.545 . S
Gd420 O465 2.606 . S
Gd420 O467 2.429 . S
Gd420 O468 2.545 . S
Gd420 O469 2.412 . S
Gd420 O471 2.362 . S
Gd420 O472 2.324 . S
Gd420 C479 2.828 . S
Gd421 N430 2.661 . S
Gd421 N434 2.601 . S
Gd421 O465 2.362 . S
Gd421 O466 2.324 . S
Gd421 O470 2.545 . S
Gd421 O471 2.606 . S
Gd421 O473 2.429 . S
Gd421 O474 2.545 . S
Gd421 O475 2.412 . S
Gd421 C488 2.828 . S
C422 C425 1.417 . S
C422 C427 1.431 . S
C422 C428 1.412 . S
C423 C426 1.437 . S
C423 C427 1.317 . S
C423 H442 0.929 1_655 S
C424 C425 1.426 . S
C424 C426 1.413 . S
C424 N434 1.359 . S
C425 C422 1.417 . S
C425 C424 1.426 . S
C425 N430 1.350 . S
C426 C423 1.437 . S
C426 C424 1.413 . S
C426 C436 1.391 . S
C427 C422 1.431 . S
C427 C423 1.317 . S
C427 H438 0.930 1_655 S
C428 C422 1.412 . S
C428 C429 1.355 . S
C428 H440 0.930 . S
C429 C428 1.355 . S
C429 C431 1.402 . S
C429 H441 0.930 . S
N430 Gd421 2.661 . S
N430 C425 1.350 . S
N430 C431 1.307 . S
C431 C429 1.402 . S
C431 N430 1.307 . S
C431 H432 0.930 . S
H432 C431 0.930 . S
C433 N434 1.334 . S
C433 C435 1.394 . S
C433 H437 0.930 . S
N434 Gd421 2.601 . S
N434 C424 1.359 . S
N434 C433 1.334 . S
C435 C433 1.394 . S
C435 C436 1.359 . S
C435 H447 0.930 . S
C436 C426 1.391 . S
C436 C435 1.359 . S
C436 H448 0.929 . S
H437 C433 0.930 . S
H438 C427 0.930 1_455 S
H439 C456 0.930 . S
H440 C428 0.930 . S
H441 C429 0.930 . S
H442 C423 0.929 1_455 S
H443 C461 0.930 . S
H444 C452 0.910 1_565 S
H445 C453 0.930 . S
H446 C477 0.929 . S
H447 C435 0.930 . S
H448 C436 0.929 . S
H449 C478 0.930 . S
H450 C459 0.930 . S
N451 Gd420 2.661 . S
N451 C455 1.350 . S
N451 C456 1.307 . S
C452 H444 0.910 1_545 S
C452 C453 1.368 . S
C452 C454 1.419 . S
C453 H445 0.930 . S
C453 C452 1.368 . S
C453 C456 1.402 . S
C454 C452 1.419 . S
C454 C455 1.417 . S
C454 C478 1.431 1_545 S
C455 N451 1.350 . S
C455 C454 1.417 . S
C455 C458 1.426 . S
C456 H439 0.930 . S
C456 N451 1.307 . S
C456 C453 1.402 . S
N457 Gd420 2.601 . S
N457 C458 1.359 . S
N457 C461 1.334 . S
C458 C455 1.426 . S
C458 N457 1.359 . S
C458 C462 1.413 . S
C459 H450 0.930 . S
C459 C460 1.359 . S
C459 C461 1.394 . S
C460 C459 1.359 . S
C460 C462 1.391 . S
C460 H463 0.929 . S
C461 H443 0.930 . S
C461 N457 1.334 . S
C461 C459 1.394 . S
C462 C458 1.413 . S
C462 C460 1.391 . S
C462 C477 1.437 1_545 S
H463 C460 0.929 . S
O464 Gd420 2.545 . S
O464 C479 1.258 . S
O465 Gd420 2.606 . S
O465 Gd421 2.362 . S
O465 C476 1.284 . S
O466 Gd421 2.324 . S
O466 C486 1.254 . S
O467 Gd420 2.429 . S
O467 C486 1.268 . S
O468 Gd420 2.545 . S
O468 C476 1.250 . S
O469 Gd420 2.412 . S
O469 C479 1.252 . S
O470 Gd421 2.545 . S
O470 C488 1.258 . S
O471 Gd420 2.362 . S
O471 Gd421 2.606 . S
O471 C487 1.284 . S
O472 Gd420 2.324 . S
O472 C495 1.254 . S
O473 Gd421 2.429 . S
O473 C495 1.268 . S
O474 Gd421 2.545 . S
O474 C487 1.250 . S
O475 Gd421 2.412 . S
O475 C488 1.252 . S
C476 O465 1.284 . S
C476 O468 1.250 . S
C477 H446 0.929 . S
C477 C462 1.437 1_565 S
C477 C478 1.317 . S
C478 H449 0.930 . S
C478 C454 1.431 1_565 S
C478 C477 1.317 . S
C479 Gd420 2.828 . S
C479 O464 1.258 . S
C479 O469 1.252 . S
C479 C480 1.497 . S
C480 C479 1.497 . S
C480 C481 1.395 . S
C480 C482 1.380 . S
C481 C480 1.395 . S
C481 C484 1.398 . S
C481 H496 0.930 . S
C482 C480 1.380 . S
C482 C483 1.391 . S
C482 H497 0.930 . S
C483 C482 1.391 . S
C483 C485 1.387 . S
C484 C481 1.398 . S
C484 C485 1.380 . S
C484 H498 0.930 . S
C485 C483 1.387 . S
C485 C484 1.380 . S
C485 H499 0.930 . S
C486 O466 1.254 . S
C486 O467 1.268 . S
C487 O471 1.284 . S
C487 O474 1.250 . S
C488 Gd421 2.828 . S
C488 O470 1.258 . S
C488 O475 1.252 . S
C488 C489 1.497 1_655 S
C489 C488 1.497 1_455 S
C489 C490 1.395 . S
C489 C491 1.380 . S
C490 C489 1.395 . S
C490 C493 1.398 . S
C490 H500 0.930 . S
C491 C489 1.380 . S
C491 C492 1.391 . S
C491 H501 0.930 . S
C492 C491 1.391 . S
C492 C494 1.387 . S
C493 C490 1.398 . S
C493 C494 1.380 . S
C493 H502 0.930 . S
C494 C492 1.387 . S
C494 C493 1.380 . S
C494 H503 0.930 . S
C495 O472 1.254 . S
C495 O473 1.268 . S
H496 C481 0.930 . S
H497 C482 0.930 . S
H498 C484 0.930 . S
H499 C485 0.930 . S
H500 C490 0.930 . S
H501 C491 0.930 . S
H502 C493 0.930 . S
H503 C494 0.930 . S
Gd504 N535 2.661 . S
Gd504 N541 2.601 . S
Gd504 O548 2.545 . S
Gd504 O549 2.606 . S
Gd504 O551 2.429 . S
Gd504 O552 2.545 . S
Gd504 O553 2.412 . S
Gd504 O555 2.362 . S
Gd504 O556 2.324 . S
Gd504 C563 2.828 . S
Gd505 N514 2.661 . S
Gd505 N518 2.601 . S
Gd505 O549 2.362 . S
Gd505 O550 2.324 . S
Gd505 O554 2.545 . S
Gd505 O555 2.606 . S
Gd505 O557 2.429 . S
Gd505 O558 2.545 . S
Gd505 O559 2.412 . S
Gd505 C572 2.828 . S
C506 C509 1.417 . S
C506 C511 1.431 . S
C506 C512 1.412 . S
C507 C510 1.437 . S
C507 C511 1.317 . S
C507 H526 0.929 1_455 S
C508 C509 1.426 . S
C508 C510 1.413 . S
C508 N518 1.359 . S
C509 C506 1.417 . S
C509 C508 1.426 . S
C509 N514 1.350 . S
C510 C507 1.437 . S
C510 C508 1.413 . S
C510 C520 1.391 . S
C511 C506 1.431 . S
C511 C507 1.317 . S
C511 H522 0.930 1_455 S
C512 C506 1.412 . S
C512 C513 1.355 . S
C512 H524 0.930 . S
C513 C512 1.355 . S
C513 C515 1.402 . S
C513 H525 0.930 . S
N514 Gd505 2.661 . S
N514 C509 1.350 . S
N514 C515 1.307 . S
C515 C513 1.402 . S
C515 N514 1.307 . S
C515 H516 0.930 . S
H516 C515 0.930 . S
C517 N518 1.334 . S
C517 C519 1.394 . S
C517 H521 0.930 . S
N518 Gd505 2.601 . S
N518 C508 1.359 . S
N518 C517 1.334 . S
C519 C517 1.394 . S
C519 C520 1.359 . S
C519 H531 0.930 . S
C520 C510 1.391 . S
C520 C519 1.359 . S
C520 H532 0.929 . S
H521 C517 0.930 . S
H522 C511 0.930 1_655 S
H523 C540 0.930 . S
H524 C512 0.930 . S
H525 C513 0.930 . S
H526 C507 0.929 1_655 S
H527 C545 0.930 . S
H528 C536 0.930 . S
H529 C537 0.930 . S
H530 C561 0.929 . S
H531 C519 0.930 . S
H532 C520 0.929 . S
H533 C562 0.930 . S
H534 C543 0.930 . S
N535 Gd504 2.661 . S
N535 C539 1.350 . S
N535 C540 1.307 . S
C536 H528 0.930 . S
C536 C537 1.355 . S
C536 C538 1.412 . S
C537 H529 0.930 . S
C537 C536 1.355 . S
C537 C540 1.402 . S
C538 C536 1.412 . S
C538 C539 1.417 . S
C538 C562 1.431 . S
C539 N535 1.350 . S
C539 C538 1.417 . S
C539 C542 1.426 . S
C540 H523 0.930 . S
C540 N535 1.307 . S
C540 C537 1.402 . S
N541 Gd504 2.601 . S
N541 C542 1.359 . S
N541 C545 1.334 . S
C542 C539 1.426 . S
C542 N541 1.359 . S
C542 C546 1.413 . S
C543 H534 0.930 . S
C543 C544 1.359 . S
C543 C545 1.394 . S
C544 C543 1.359 . S
C544 C546 1.391 . S
C544 H547 0.929 . S
C545 H527 0.930 . S
C545 N541 1.334 . S
C545 C543 1.394 . S
C546 C542 1.413 . S
C546 C544 1.391 . S
C546 C561 1.437 . S
H547 C544 0.929 . S
O548 Gd504 2.545 . S
O548 C563 1.258 . S
O549 Gd504 2.606 . S
O549 Gd505 2.362 . S
O549 C560 1.284 . S
O550 Gd505 2.324 . S
O550 C570 1.254 . S
O551 Gd504 2.429 . S
O551 C570 1.268 . S
O552 Gd504 2.545 . S
O552 C560 1.250 . S
O553 Gd504 2.412 . S
O553 C563 1.252 . S
O554 Gd505 2.545 . S
O554 C572 1.258 . S
O555 Gd504 2.362 . S
O555 Gd505 2.606 . S
O555 C571 1.284 . S
O556 Gd504 2.324 . S
O556 C579 1.254 . S
O557 Gd505 2.429 . S
O557 C579 1.268 . S
O558 Gd505 2.545 . S
O558 C571 1.250 . S
O559 Gd505 2.412 . S
O559 C572 1.252 . S
C560 O549 1.284 . S
C560 O552 1.250 . S
C561 H530 0.929 . S
C561 C546 1.437 . S
C561 C562 1.317 . S
C562 H533 0.930 . S
C562 C538 1.431 . S
C562 C561 1.317 . S
C563 Gd504 2.828 . S
C563 O548 1.258 . S
C563 O553 1.252 . S
C563 C564 1.497 . S
C564 C563 1.497 . S
C564 C565 1.395 . S
C564 C566 1.380 . S
C565 C564 1.395 . S
C565 C568 1.398 . S
C565 H580 0.930 . S
C566 C564 1.380 . S
C566 C567 1.391 . S
C566 H581 0.930 . S
C567 C566 1.391 . S
C567 C569 1.387 . S
C568 C565 1.398 . S
C568 C569 1.380 . S
C568 H582 0.930 . S
C569 C567 1.387 . S
C569 C568 1.380 . S
C569 H583 0.930 . S
C570 O550 1.254 . S
C570 O551 1.268 . S
C571 O555 1.284 . S
C571 O558 1.250 . S
C572 Gd505 2.828 . S
C572 O554 1.258 . S
C572 O559 1.252 . S
C572 C573 1.497 1_455 S
C573 C572 1.497 1_655 S
C573 C574 1.395 . S
C573 C575 1.380 . S
C574 C573 1.395 . S
C574 C577 1.398 . S
C574 H584 0.930 . S
C575 C573 1.380 . S
C575 C576 1.391 . S
C575 H585 0.930 . S
C576 C575 1.391 . S
C576 C578 1.387 . S
C577 C574 1.398 . S
C577 C578 1.380 . S
C577 H586 0.930 . S
C578 C576 1.387 . S
C578 C577 1.380 . S
C578 H587 0.930 . S
C579 O556 1.254 . S
C579 O557 1.268 . S
H580 C565 0.930 . S
H581 C566 0.930 . S
H582 C568 0.930 . S
H583 C569 0.930 . S
H584 C574 0.930 . S
H585 C575 0.930 . S
H586 C577 0.930 . S
H587 C578 0.930 . S
Gd588 N619 2.661 . S
Gd588 N625 2.601 . S
Gd588 O632 2.545 . S
Gd588 O633 2.606 . S
Gd588 O635 2.429 . S
Gd588 O636 2.545 . S
Gd588 O637 2.412 . S
Gd588 O639 2.362 . S
Gd588 O640 2.324 . S
Gd588 C647 2.828 . S
Gd589 N598 2.661 . S
Gd589 N602 2.601 . S
Gd589 O633 2.362 . S
Gd589 O634 2.324 . S
Gd589 O638 2.545 . S
Gd589 O639 2.606 . S
Gd589 O641 2.429 . S
Gd589 O642 2.545 . S
Gd589 O643 2.412 . S
Gd589 C656 2.828 . S
C590 C593 1.417 . S
C590 C595 1.431 1_455 S
C590 C596 1.419 . S
C591 C594 1.437 1_655 S
C591 C595 1.317 . S
C591 H610 0.929 . S
C592 C593 1.426 . S
C592 C594 1.413 . S
C592 N602 1.359 . S
C593 C590 1.417 . S
C593 C592 1.426 . S
C593 N598 1.350 . S
C594 C591 1.437 1_455 S
C594 C592 1.413 . S
C594 C604 1.391 . S
C595 C590 1.431 1_655 S
C595 C591 1.317 . S
C595 H606 0.930 . S
C596 C590 1.419 . S
C596 C597 1.368 . S
C596 H608 0.910 1_455 S
C597 C596 1.368 . S
C597 C599 1.402 . S
C597 H609 0.930 . S
N598 Gd589 2.661 . S
N598 C593 1.350 . S
N598 C599 1.307 . S
C599 C597 1.402 . S
C599 N598 1.307 . S
C599 H600 0.930 . S
H600 C599 0.930 . S
C601 N602 1.334 . S
C601 C603 1.394 . S
C601 H605 0.930 . S
N602 Gd589 2.601 . S
N602 C592 1.359 . S
N602 C601 1.334 . S
C603 C601 1.394 . S
C603 C604 1.359 . S
C603 H615 0.930 . S
C604 C594 1.391 . S
C604 C603 1.359 . S
C604 H616 0.929 . S
H605 C601 0.930 . S
H606 C595 0.930 . S
H607 C624 0.930 . S
H608 C596 0.910 1_655 S
H609 C597 0.930 . S
H610 C591 0.929 . S
H611 C629 0.930 . S
H612 C620 0.930 . S
H613 C621 0.930 . S
H614 C645 0.929 1_545 S
H615 C603 0.930 . S
H616 C604 0.929 . S
H617 C646 0.930 1_545 S
H618 C627 0.930 . S
N619 Gd588 2.661 . S
N619 C623 1.350 . S
N619 C624 1.307 . S
C620 H612 0.930 . S
C620 C621 1.355 . S
C620 C622 1.412 . S
C621 H613 0.930 . S
C621 C620 1.355 . S
C621 C624 1.402 . S
C622 C620 1.412 . S
C622 C623 1.417 . S
C622 C646 1.431 . S
C623 N619 1.350 . S
C623 C622 1.417 . S
C623 C626 1.426 . S
C624 H607 0.930 . S
C624 N619 1.307 . S
C624 C621 1.402 . S
N625 Gd588 2.601 . S
N625 C626 1.359 . S
N625 C629 1.334 . S
C626 C623 1.426 . S
C626 N625 1.359 . S
C626 C630 1.413 . S
C627 H618 0.930 . S
C627 C628 1.359 . S
C627 C629 1.394 . S
C628 C627 1.359 . S
C628 C630 1.391 . S
C628 H631 0.929 . S
C629 H611 0.930 . S
C629 N625 1.334 . S
C629 C627 1.394 . S
C630 C626 1.413 . S
C630 C628 1.391 . S
C630 C645 1.437 . S
H631 C628 0.929 . S
O632 Gd588 2.545 . S
O632 C647 1.258 . S
O633 Gd588 2.606 . S
O633 Gd589 2.362 . S
O633 C644 1.284 . S
O634 Gd589 2.324 . S
O634 C654 1.254 . S
O635 Gd588 2.429 . S
O635 C654 1.268 . S
O636 Gd588 2.545 . S
O636 C644 1.250 . S
O637 Gd588 2.412 . S
O637 C647 1.252 . S
O638 Gd589 2.545 . S
O638 C656 1.258 . S
O639 Gd588 2.362 . S
O639 Gd589 2.606 . S
O639 C655 1.284 . S
O640 Gd588 2.324 . S
O640 C663 1.254 . S
O641 Gd589 2.429 . S
O641 C663 1.268 . S
O642 Gd589 2.545 . S
O642 C655 1.250 . S
O643 Gd589 2.412 . S
O643 C656 1.252 . S
C644 O633 1.284 . S
C644 O636 1.250 . S
C645 H614 0.929 1_565 S
C645 C630 1.437 . S
C645 C646 1.317 . S
C646 H617 0.930 1_565 S
C646 C622 1.431 . S
C646 C645 1.317 . S
C647 Gd588 2.828 . S
C647 O632 1.258 . S
C647 O637 1.252 . S
C647 C648 1.497 1_565 S
C648 C647 1.497 1_545 S
C648 C649 1.395 . S
C648 C650 1.380 . S
C649 C648 1.395 . S
C649 C652 1.398 . S
C649 H664 0.930 . S
C650 C648 1.380 . S
C650 C651 1.391 . S
C650 H665 0.930 . S
C651 C650 1.391 . S
C651 C653 1.387 . S
C652 C649 1.398 . S
C652 C653 1.380 . S
C652 H666 0.930 . S
C653 C651 1.387 . S
C653 C652 1.380 . S
C653 H667 0.930 . S
C654 O634 1.254 . S
C654 O635 1.268 . S
C655 O639 1.284 . S
C655 O642 1.250 . S
C656 Gd589 2.828 . S
C656 O638 1.258 . S
C656 O643 1.252 . S
C656 C657 1.497 . S
C657 C656 1.497 . S
C657 C658 1.395 . S
C657 C659 1.380 . S
C658 C657 1.395 . S
C658 C661 1.398 . S
C658 H668 0.930 . S
C659 C657 1.380 . S
C659 C660 1.391 . S
C659 H669 0.930 . S
C660 C659 1.391 . S
C660 C662 1.387 . S
C661 C658 1.398 . S
C661 C662 1.380 . S
C661 H670 0.930 . S
C662 C660 1.387 . S
C662 C661 1.380 . S
C662 H671 0.930 . S
C663 O640 1.254 . S
C663 O641 1.268 . S
H664 C649 0.930 . S
H665 C650 0.930 . S
H666 C652 0.930 . S
H667 C653 0.930 . S
H668 C658 0.930 . S
H669 C659 0.930 . S
H670 C661 0.930 . S
H671 C662 0.930 . S
Gd672 N703 2.661 . S
Gd672 N709 2.601 . S
Gd672 O716 2.545 . S
Gd672 O717 2.606 . S
Gd672 O719 2.429 . S
Gd672 O720 2.545 . S
Gd672 O721 2.412 . S
Gd672 O723 2.362 . S
Gd672 O724 2.324 . S
Gd672 C731 2.828 . S
Gd673 N682 2.661 . S
Gd673 N686 2.601 . S
Gd673 O717 2.362 . S
Gd673 O718 2.324 . S
Gd673 O722 2.545 . S
Gd673 O723 2.606 . S
Gd673 O725 2.429 . S
Gd673 O726 2.545 . S
Gd673 O727 2.412 . S
Gd673 C740 2.828 . S
C674 C677 1.417 . S
C674 C679 1.431 . S
C674 C680 1.412 . S
C675 C678 1.437 . S
C675 C679 1.317 . S
C675 H694 0.929 . S
C676 C677 1.426 . S
C676 C678 1.413 . S
C676 N686 1.359 . S
C677 C674 1.417 . S
C677 C676 1.426 . S
C677 N682 1.350 . S
C678 C675 1.437 . S
C678 C676 1.413 . S
C678 C688 1.391 . S
C679 C674 1.431 . S
C679 C675 1.317 . S
C679 H690 0.930 . S
C680 C674 1.412 . S
C680 C681 1.355 . S
C680 H692 0.930 . S
C681 C680 1.355 . S
C681 C683 1.402 . S
C681 H693 0.930 . S
N682 Gd673 2.661 . S
N682 C677 1.350 . S
N682 C683 1.307 . S
C683 C681 1.402 . S
C683 N682 1.307 . S
C683 H684 0.930 . S
H684 C683 0.930 . S
C685 N686 1.334 . S
C685 C687 1.394 . S
C685 H689 0.930 . S
N686 Gd673 2.601 . S
N686 C676 1.359 . S
N686 C685 1.334 . S
C687 C685 1.394 . S
C687 C688 1.359 . S
C687 H699 0.930 . S
C688 C678 1.391 . S
C688 C687 1.359 . S
C688 H700 0.929 . S
H689 C685 0.930 . S
H690 C679 0.930 . S
H691 C708 0.930 . S
H692 C680 0.930 . S
H693 C681 0.930 . S
H694 C675 0.929 . S
H695 C713 0.930 . S
H696 C704 0.910 1_545 S
H697 C705 0.930 . S
H698 C729 0.929 . S
H699 C687 0.930 . S
H700 C688 0.929 . S
H701 C730 0.930 . S
H702 C711 0.930 . S
N703 Gd672 2.661 . S
N703 C707 1.350 . S
N703 C708 1.307 . S
C704 H696 0.910 1_565 S
C704 C705 1.370 . S
C704 C706 1.416 . S
C705 H697 0.930 . S
C705 C704 1.370 . S
C705 C708 1.402 . S
C706 C704 1.416 . S
C706 C707 1.417 . S
C706 C730 1.431 1_565 S
C707 N703 1.350 . S
C707 C706 1.417 . S
C707 C710 1.426 . S
C708 H691 0.930 . S
C708 N703 1.307 . S
C708 C705 1.402 . S
N709 Gd672 2.601 . S
N709 C710 1.359 . S
N709 C713 1.334 . S
C710 C707 1.426 . S
C710 N709 1.359 . S
C710 C714 1.413 . S
C711 H702 0.930 . S
C711 C712 1.359 . S
C711 C713 1.394 . S
C712 C711 1.359 . S
C712 C714 1.391 . S
C712 H715 0.929 . S
C713 H695 0.930 . S
C713 N709 1.334 . S
C713 C711 1.394 . S
C714 C710 1.413 . S
C714 C712 1.391 . S
C714 C729 1.437 1_565 S
H715 C712 0.929 . S
O716 Gd672 2.545 . S
O716 C731 1.258 . S
O717 Gd672 2.606 . S
O717 Gd673 2.362 . S
O717 C728 1.284 . S
O718 Gd673 2.324 . S
O718 C738 1.254 . S
O719 Gd672 2.429 . S
O719 C738 1.268 . S
O720 Gd672 2.545 . S
O720 C728 1.250 . S
O721 Gd672 2.412 . S
O721 C731 1.252 . S
O722 Gd673 2.545 . S
O722 C740 1.258 . S
O723 Gd672 2.362 . S
O723 Gd673 2.606 . S
O723 C739 1.284 . S
O724 Gd672 2.324 . S
O724 C747 1.254 . S
O725 Gd673 2.429 . S
O725 C747 1.268 . S
O726 Gd673 2.545 . S
O726 C739 1.250 . S
O727 Gd673 2.412 . S
O727 C740 1.252 . S
C728 O717 1.284 . S
C728 O720 1.250 . S
C729 H698 0.929 . S
C729 C714 1.437 1_545 S
C729 C730 1.317 . S
C730 H701 0.930 . S
C730 C706 1.431 1_545 S
C730 C729 1.317 . S
C731 Gd672 2.828 . S
C731 O716 1.258 . S
C731 O721 1.252 . S
C731 C732 1.497 . S
C732 C731 1.497 . S
C732 C733 1.395 . S
C732 C734 1.380 . S
C733 C732 1.395 . S
C733 C736 1.398 . S
C733 H748 0.930 . S
C734 C732 1.380 . S
C734 C735 1.391 . S
C734 H749 0.930 . S
C735 C734 1.391 . S
C735 C737 1.387 . S
C736 C733 1.398 . S
C736 C737 1.380 . S
C736 H750 0.930 . S
C737 C735 1.387 . S
C737 C736 1.380 . S
C737 H751 0.930 . S
C738 O718 1.254 . S
C738 O719 1.268 . S
C739 O723 1.284 . S
C739 O726 1.250 . S
C740 Gd673 2.828 . S
C740 O722 1.258 . S
C740 O727 1.252 . S
C740 C741 1.497 . S
C741 C740 1.497 . S
C741 C742 1.395 . S
C741 C743 1.380 . S
C742 C741 1.395 . S
C742 C745 1.398 . S
C742 H752 0.930 . S
C743 C741 1.380 . S
C743 C744 1.391 . S
C743 H753 0.930 . S
C744 C743 1.391 . S
C744 C746 1.387 . S
C745 C742 1.398 . S
C745 C746 1.380 . S
C745 H754 0.930 . S
C746 C744 1.387 . S
C746 C745 1.380 . S
C746 H755 0.930 . S
C747 O724 1.254 . S
C747 O725 1.268 . S
H748 C733 0.930 . S
H749 C734 0.930 . S
H750 C736 0.930 . S
H751 C737 0.930 . S
H752 C742 0.930 . S
H753 C743 0.930 . S
H754 C745 0.930 . S
H755 C746 0.930 . S
Gd756 N787 2.661 . S
Gd756 N793 2.601 . S
Gd756 O800 2.545 . S
Gd756 O801 2.606 . S
Gd756 O803 2.429 . S
Gd756 O804 2.545 . S
Gd756 O805 2.412 . S
Gd756 O807 2.362 . S
Gd756 O808 2.324 . S
Gd756 C815 2.828 . S
Gd757 N766 2.661 . S
Gd757 N770 2.601 . S
Gd757 O801 2.362 . S
Gd757 O802 2.324 . S
Gd757 O806 2.545 . S
Gd757 O807 2.606 . S
Gd757 O809 2.429 . S
Gd757 O810 2.545 . S
Gd757 O811 2.412 . S
Gd757 C824 2.828 . S
C758 C761 1.417 . S
C758 C763 1.431 . S
C758 C764 1.412 . S
C759 C762 1.437 . S
C759 C763 1.317 . S
C759 H778 0.929 . S
C760 C761 1.426 . S
C760 C762 1.413 . S
C760 N770 1.359 . S
C761 C758 1.417 . S
C761 C760 1.426 . S
C761 N766 1.350 . S
C762 C759 1.437 . S
C762 C760 1.413 . S
C762 C772 1.391 . S
C763 C758 1.431 . S
C763 C759 1.317 . S
C763 H774 0.930 . S
C764 C758 1.412 . S
C764 C765 1.355 . S
C764 H776 0.930 . S
C765 C764 1.355 . S
C765 C767 1.402 . S
C765 H777 0.930 . S
N766 Gd757 2.661 . S
N766 C761 1.350 . S
N766 C767 1.307 . S
C767 C765 1.402 . S
C767 N766 1.307 . S
C767 H768 0.930 . S
H768 C767 0.930 . S
C769 N770 1.334 . S
C769 C771 1.394 . S
C769 H773 0.930 . S
N770 Gd757 2.601 . S
N770 C760 1.359 . S
N770 C769 1.334 . S
C771 C769 1.394 . S
C771 C772 1.359 . S
C771 H783 0.930 . S
C772 C762 1.391 . S
C772 C771 1.359 . S
C772 H784 0.929 . S
H773 C769 0.930 . S
H774 C763 0.930 . S
H775 C792 0.930 . S
H776 C764 0.930 . S
H777 C765 0.930 . S
H778 C759 0.929 . S
H779 C797 0.930 . S
H780 C788 0.930 . S
H781 C789 0.930 . S
H782 C813 0.929 1_655 S
H783 C771 0.930 . S
H784 C772 0.929 . S
H785 C814 0.930 1_655 S
H786 C795 0.930 . S
N787 Gd756 2.661 . S
N787 C791 1.350 . S
N787 C792 1.307 . S
C788 H780 0.930 . S
C788 C789 1.355 . S
C788 C790 1.412 . S
C789 H781 0.930 . S
C789 C788 1.355 . S
C789 C792 1.402 . S
C790 C788 1.412 . S
C790 C791 1.417 . S
C790 C814 1.431 . S
C791 N787 1.350 . S
C791 C790 1.417 . S
C791 C794 1.426 . S
C792 H775 0.930 . S
C792 N787 1.307 . S
C792 C789 1.402 . S
N793 Gd756 2.601 . S
N793 C794 1.359 . S
N793 C797 1.334 . S
C794 C791 1.426 . S
C794 N793 1.359 . S
C794 C798 1.413 . S
C795 H786 0.930 . S
C795 C796 1.359 . S
C795 C797 1.394 . S
C796 C795 1.359 . S
C796 C798 1.391 . S
C796 H799 0.929 . S
C797 H779 0.930 . S
C797 N793 1.334 . S
C797 C795 1.394 . S
C798 C794 1.413 . S
C798 C796 1.391 . S
C798 C813 1.437 . S
H799 C796 0.929 . S
O800 Gd756 2.545 . S
O800 C815 1.258 . S
O801 Gd756 2.606 . S
O801 Gd757 2.362 . S
O801 C812 1.284 . S
O802 Gd757 2.324 . S
O802 C822 1.254 . S
O803 Gd756 2.429 . S
O803 C822 1.268 . S
O804 Gd756 2.545 . S
O804 C812 1.250 . S
O805 Gd756 2.412 . S
O805 C815 1.252 . S
O806 Gd757 2.545 . S
O806 C824 1.258 . S
O807 Gd756 2.362 . S
O807 Gd757 2.606 . S
O807 C823 1.284 . S
O808 Gd756 2.324 . S
O808 C831 1.254 . S
O809 Gd757 2.429 . S
O809 C831 1.268 . S
O810 Gd757 2.545 . S
O810 C823 1.250 . S
O811 Gd757 2.412 . S
O811 C824 1.252 . S
C812 O801 1.284 . S
C812 O804 1.250 . S
C813 H782 0.929 1_455 S
C813 C798 1.437 . S
C813 C814 1.317 . S
C814 H785 0.930 1_455 S
C814 C790 1.431 . S
C814 C813 1.317 . S
C815 Gd756 2.828 . S
C815 O800 1.258 . S
C815 O805 1.252 . S
C815 C816 1.497 1_455 S
C816 C815 1.497 1_655 S
C816 C817 1.395 . S
C816 C818 1.380 . S
C817 C816 1.395 . S
C817 C820 1.398 . S
C817 H832 0.930 . S
C818 C816 1.380 . S
C818 C819 1.391 . S
C818 H833 0.930 . S
C819 C818 1.391 . S
C819 C821 1.387 . S
C820 C817 1.398 . S
C820 C821 1.380 . S
C820 H834 0.930 . S
C821 C819 1.387 . S
C821 C820 1.380 . S
C821 H835 0.930 . S
C822 O802 1.254 . S
C822 O803 1.268 . S
C823 O807 1.284 . S
C823 O810 1.250 . S
C824 Gd757 2.828 . S
C824 O806 1.258 . S
C824 O811 1.252 . S
C824 C825 1.497 . S
C825 C824 1.497 . S
C825 C826 1.395 . S
C825 C827 1.380 . S
C826 C825 1.395 . S
C826 C829 1.398 . S
C826 H836 0.930 . S
C827 C825 1.380 . S
C827 C828 1.391 . S
C827 H837 0.930 . S
C828 C827 1.391 . S
C828 C830 1.387 . S
C829 C826 1.398 . S
C829 C830 1.380 . S
C829 H838 0.930 . S
C830 C828 1.387 . S
C830 C829 1.380 . S
C830 H839 0.930 . S
C831 O808 1.254 . S
C831 O809 1.268 . S
H832 C817 0.930 . S
H833 C818 0.930 . S
H834 C820 0.930 . S
H835 C821 0.930 . S
H836 C826 0.930 . S
H837 C827 0.930 . S
H838 C829 0.930 . S
H839 C830 0.930 . S
Gd840 N871 2.661 . S
Gd840 N877 2.601 . S
Gd840 O884 2.545 . S
Gd840 O885 2.606 . S
Gd840 O887 2.429 . S
Gd840 O888 2.545 . S
Gd840 O889 2.412 . S
Gd840 O891 2.362 . S
Gd840 O892 2.324 . S
Gd840 C899 2.828 . S
Gd841 N850 2.661 . S
Gd841 N854 2.601 . S
Gd841 O885 2.362 . S
Gd841 O886 2.324 . S
Gd841 O890 2.545 . S
Gd841 O891 2.606 . S
Gd841 O893 2.429 . S
Gd841 O894 2.545 . S
Gd841 O895 2.412 . S
Gd841 C908 2.828 . S
C842 C845 1.417 . S
C842 C847 1.431 . S
C842 C848 1.412 . S
C843 C846 1.437 . S
C843 C847 1.317 . S
C843 H862 0.929 1_565 S
C844 C845 1.426 . S
C844 C846 1.413 . S
C844 N854 1.359 . S
C845 C842 1.417 . S
C845 C844 1.426 . S
C845 N850 1.350 . S
C846 C843 1.437 . S
C846 C844 1.413 . S
C846 C856 1.391 . S
C847 C842 1.431 . S
C847 C843 1.317 . S
C847 H858 0.930 1_565 S
C848 C842 1.412 . S
C848 C849 1.355 . S
C848 H860 0.930 . S
C849 C848 1.355 . S
C849 C851 1.402 . S
C849 H861 0.930 . S
N850 Gd841 2.661 . S
N850 C845 1.350 . S
N850 C851 1.307 . S
C851 C849 1.402 . S
C851 N850 1.307 . S
C851 H852 0.930 . S
H852 C851 0.930 . S
C853 N854 1.334 . S
C853 C855 1.394 . S
C853 H857 0.930 . S
N854 Gd841 2.601 . S
N854 C844 1.359 . S
N854 C853 1.334 . S
C855 C853 1.394 . S
C855 C856 1.359 . S
C855 H867 0.930 . S
C856 C846 1.391 . S
C856 C855 1.359 . S
C856 H868 0.929 . S
H857 C853 0.930 . S
H858 C847 0.930 1_545 S
H859 C876 0.930 . S
H860 C848 0.930 . S
H861 C849 0.930 . S
H862 C843 0.929 1_545 S
H863 C881 0.930 . S
H864 C872 0.910 1_655 S
H865 C873 0.930 . S
H866 C897 0.929 . S
H867 C855 0.930 . S
H868 C856 0.929 . S
H869 C898 0.930 . S
H870 C879 0.930 . S
N871 Gd840 2.661 . S
N871 C875 1.350 . S
N871 C876 1.307 . S
C872 H864 0.910 1_455 S
C872 C873 1.368 . S
C872 C874 1.419 . S
C873 H865 0.930 . S
C873 C872 1.368 . S
C873 C876 1.402 . S
C874 C872 1.419 . S
C874 C875 1.417 . S
C874 C898 1.431 1_455 S
C875 N871 1.350 . S
C875 C874 1.417 . S
C875 C878 1.426 . S
C876 H859 0.930 . S
C876 N871 1.307 . S
C876 C873 1.402 . S
N877 Gd840 2.601 . S
N877 C878 1.359 . S
N877 C881 1.334 . S
C878 C875 1.426 . S
C878 N877 1.359 . S
C878 C882 1.413 . S
C879 H870 0.930 . S
C879 C880 1.359 . S
C879 C881 1.394 . S
C880 C879 1.359 . S
C880 C882 1.391 . S
C880 H883 0.929 . S
C881 H863 0.930 . S
C881 N877 1.334 . S
C881 C879 1.394 . S
C882 C878 1.413 . S
C882 C880 1.391 . S
C882 C897 1.437 1_455 S
H883 C880 0.929 . S
O884 Gd840 2.545 . S
O884 C899 1.258 . S
O885 Gd840 2.606 . S
O885 Gd841 2.362 . S
O885 C896 1.284 . S
O886 Gd841 2.324 . S
O886 C906 1.254 . S
O887 Gd840 2.429 . S
O887 C906 1.268 . S
O888 Gd840 2.545 . S
O888 C896 1.250 . S
O889 Gd840 2.412 . S
O889 C899 1.252 . S
O890 Gd841 2.545 . S
O890 C908 1.258 . S
O891 Gd840 2.362 . S
O891 Gd841 2.606 . S
O891 C907 1.284 . S
O892 Gd840 2.324 . S
O892 C915 1.254 . S
O893 Gd841 2.429 . S
O893 C915 1.268 . S
O894 Gd841 2.545 . S
O894 C907 1.250 . S
O895 Gd841 2.412 . S
O895 C908 1.252 . S
C896 O885 1.284 . S
C896 O888 1.250 . S
C897 H866 0.929 . S
C897 C882 1.437 1_655 S
C897 C898 1.317 . S
C898 H869 0.930 . S
C898 C874 1.431 1_655 S
C898 C897 1.317 . S
C899 Gd840 2.828 . S
C899 O884 1.258 . S
C899 O889 1.252 . S
C899 C900 1.497 . S
C900 C899 1.497 . S
C900 C901 1.395 . S
C900 C902 1.380 . S
C901 C900 1.395 . S
C901 C904 1.398 . S
C901 H916 0.930 . S
C902 C900 1.380 . S
C902 C903 1.391 . S
C902 H917 0.930 . S
C903 C902 1.391 . S
C903 C905 1.387 . S
C904 C901 1.398 . S
C904 C905 1.380 . S
C904 H918 0.930 . S
C905 C903 1.387 . S
C905 C904 1.380 . S
C905 H919 0.930 . S
C906 O886 1.254 . S
C906 O887 1.268 . S
C907 O891 1.284 . S
C907 O894 1.250 . S
C908 Gd841 2.828 . S
C908 O890 1.258 . S
C908 O895 1.252 . S
C908 C909 1.497 1_565 S
C909 C908 1.497 1_545 S
C909 C910 1.395 . S
C909 C911 1.380 . S
C910 C909 1.395 . S
C910 C913 1.398 . S
C910 H920 0.930 . S
C911 C909 1.380 . S
C911 C912 1.391 . S
C911 H921 0.930 . S
C912 C911 1.391 . S
C912 C914 1.387 . S
C913 C910 1.398 . S
C913 C914 1.380 . S
C913 H922 0.930 . S
C914 C912 1.387 . S
C914 C913 1.380 . S
C914 H923 0.930 . S
C915 O892 1.254 . S
C915 O893 1.268 . S
H916 C901 0.930 . S
H917 C902 0.930 . S
H918 C904 0.930 . S
H919 C905 0.930 . S
H920 C910 0.930 . S
H921 C911 0.930 . S
H922 C913 0.930 . S
H923 C914 0.930 . S
Gd924 N955 2.661 . S
Gd924 N961 2.601 . S
Gd924 O968 2.545 . S
Gd924 O969 2.606 . S
Gd924 O971 2.429 . S
Gd924 O972 2.545 . S
Gd924 O973 2.412 . S
Gd924 O975 2.362 . S
Gd924 O976 2.324 . S
Gd924 C983 2.828 . S
Gd925 N934 2.661 . S
Gd925 N938 2.601 . S
Gd925 O969 2.362 . S
Gd925 O970 2.324 . S
Gd925 O974 2.545 . S
Gd925 O975 2.606 . S
Gd925 O977 2.429 . S
Gd925 O978 2.545 . S
Gd925 O979 2.412 . S
Gd925 C992 2.828 . S
C926 C929 1.417 . S
C926 C931 1.431 1_565 S
C926 C932 1.416 . S
C927 C930 1.437 1_545 S
C927 C931 1.317 . S
C927 H946 0.929 . S
C928 C929 1.426 . S
C928 C930 1.413 . S
C928 N938 1.359 . S
C929 C926 1.417 . S
C929 C928 1.426 . S
C929 N934 1.350 . S
C930 C927 1.437 1_565 S
C930 C928 1.413 . S
C930 C940 1.391 . S
C931 C926 1.431 1_545 S
C931 C927 1.317 . S
C931 H942 0.930 . S
C932 C926 1.416 . S
C932 C933 1.370 . S
C932 H944 0.910 1_565 S
C933 C932 1.370 . S
C933 C935 1.402 . S
C933 H945 0.930 . S
N934 Gd925 2.661 . S
N934 C929 1.350 . S
N934 C935 1.307 . S
C935 C933 1.402 . S
C935 N934 1.307 . S
C935 H936 0.930 . S
H936 C935 0.930 . S
C937 N938 1.334 . S
C937 C939 1.394 . S
C937 H941 0.930 . S
N938 Gd925 2.601 . S
N938 C928 1.359 . S
N938 C937 1.334 . S
C939 C937 1.394 . S
C939 C940 1.359 . S
C939 H951 0.930 . S
C940 C930 1.391 . S
C940 C939 1.359 . S
C940 H952 0.929 . S
H941 C937 0.930 . S
H942 C931 0.930 . S
H943 C960 0.930 . S
H944 C932 0.910 1_545 S
H945 C933 0.930 . S
H946 C927 0.929 . S
H947 C965 0.930 . S
H948 C956 0.930 . S
H949 C957 0.930 . S
H950 C981 0.929 . S
H951 C939 0.930 . S
H952 C940 0.929 . S
H953 C982 0.930 . S
H954 C963 0.930 . S
N955 Gd924 2.661 . S
N955 C959 1.350 . S
N955 C960 1.307 . S
C956 H948 0.930 . S
C956 C957 1.355 . S
C956 C958 1.412 . S
C957 H949 0.930 . S
C957 C956 1.355 . S
C957 C960 1.402 . S
C958 C956 1.412 . S
C958 C959 1.417 . S
C958 C982 1.431 . S
C959 N955 1.350 . S
C959 C958 1.417 . S
C959 C962 1.426 . S
C960 H943 0.930 . S
C960 N955 1.307 . S
C960 C957 1.402 . S
N961 Gd924 2.601 . S
N961 C962 1.359 . S
N961 C965 1.334 . S
C962 C959 1.426 . S
C962 N961 1.359 . S
C962 C966 1.413 . S
C963 H954 0.930 . S
C963 C964 1.359 . S
C963 C965 1.394 . S
C964 C963 1.359 . S
C964 C966 1.391 . S
C964 H967 0.929 . S
C965 H947 0.930 . S
C965 N961 1.334 . S
C965 C963 1.394 . S
C966 C962 1.413 . S
C966 C964 1.391 . S
C966 C981 1.437 . S
H967 C964 0.929 . S
O968 Gd924 2.545 . S
O968 C983 1.258 . S
O969 Gd924 2.606 . S
O969 Gd925 2.362 . S
O969 C980 1.284 . S
O970 Gd925 2.324 . S
O970 C990 1.254 . S
O971 Gd924 2.429 . S
O971 C990 1.268 . S
O972 Gd924 2.545 . S
O972 C980 1.250 . S
O973 Gd924 2.412 . S
O973 C983 1.252 . S
O974 Gd925 2.545 . S
O974 C992 1.258 . S
O975 Gd924 2.362 . S
O975 Gd925 2.606 . S
O975 C991 1.284 . S
O976 Gd924 2.324 . S
O976 C999 1.254 . S
O977 Gd925 2.429 . S
O977 C999 1.268 . S
O978 Gd925 2.545 . S
O978 C991 1.250 . S
O979 Gd925 2.412 . S
O979 C992 1.252 . S
C980 O969 1.284 . S
C980 O972 1.250 . S
C981 H950 0.929 . S
C981 C966 1.437 . S
C981 C982 1.317 . S
C982 H953 0.930 . S
C982 C958 1.431 . S
C982 C981 1.317 . S
C983 Gd924 2.828 . S
C983 O968 1.258 . S
C983 O973 1.252 . S
C983 C984 1.497 . S
C984 C983 1.497 . S
C984 C985 1.395 . S
C984 C986 1.380 . S
C985 C984 1.395 . S
C985 C988 1.398 . S
C985 H1000 0.930 . S
C986 C984 1.380 . S
C986 C987 1.391 . S
C986 H1001 0.930 . S
C987 C986 1.391 . S
C987 C989 1.387 . S
C988 C985 1.398 . S
C988 C989 1.380 . S
C988 H1002 0.930 . S
C989 C987 1.387 . S
C989 C988 1.380 . S
C989 H1003 0.930 . S
C990 O970 1.254 . S
C990 O971 1.268 . S
C991 O975 1.284 . S
C991 O978 1.250 . S
C992 Gd925 2.828 . S
C992 O974 1.258 . S
C992 O979 1.252 . S
C992 C993 1.497 . S
C993 C992 1.497 . S
C993 C994 1.395 . S
C993 C995 1.380 . S
C994 C993 1.395 . S
C994 C997 1.398 . S
C994 H1004 0.930 . S
C995 C993 1.380 . S
C995 C996 1.391 . S
C995 H1005 0.930 . S
C996 C995 1.391 . S
C996 C998 1.387 . S
C997 C994 1.398 . S
C997 C998 1.380 . S
C997 H1006 0.930 . S
C998 C996 1.387 . S
C998 C997 1.380 . S
C998 H1007 0.930 . S
C999 O976 1.254 . S
C999 O977 1.268 . S
H1000 C985 0.930 . S
H1001 C986 0.930 . S
H1002 C988 0.930 . S
H1003 C989 0.930 . S
H1004 C994 0.930 . S
H1005 C995 0.930 . S
H1006 C997 0.930 . S
H1007 C998 0.930 . S
H1008 C1014 0.930 . S
H1009 C1018 0.930 . S
H1010 C1023 0.929 . S
H1011 C1021 0.929 . S
H1012 C1016 0.929 . S
H1013 C1022 0.929 . S
C1014 H1008 0.930 . S
C1014 C1015 1.367 . S
C1014 C1022 1.378 . S
C1015 C1014 1.367 . S
C1015 C1023 1.433 . S
C1016 H1012 0.929 . S
C1016 C1018 1.378 . S
C1016 C1020 1.350 . S
C1017 C1020 1.463 . S
C1017 C1022 1.350 . S
C1017 N1025 1.427 . S
C1018 H1009 0.930 . S
C1018 C1016 1.378 . S
C1018 C1019 1.367 . S
C1019 C1018 1.367 . S
C1019 C1021 1.433 . S
C1020 C1016 1.350 . S
C1020 C1017 1.463 . S
C1020 N1024 1.427 . S
C1021 H1011 0.929 . S
C1021 C1019 1.433 . S
C1021 N1024 1.384 . S
C1022 H1013 0.929 . S
C1022 C1014 1.378 . S
C1022 C1017 1.350 . S
C1023 H1010 0.929 . S
C1023 C1015 1.433 . S
C1023 N1025 1.384 . S
N1024 C1020 1.427 . S
N1024 C1021 1.384 . S
N1025 C1017 1.427 . S
N1025 C1023 1.384 . S
H1026 C1032 0.930 . S
H1027 C1036 0.930 . S
H1028 C1041 0.929 . S
H1029 C1039 0.929 . S
H1030 C1034 0.929 . S
H1031 C1040 0.929 . S
C1032 H1026 0.930 . S
C1032 C1033 1.367 . S
C1032 C1040 1.378 . S
C1033 C1032 1.367 . S
C1033 C1041 1.433 . S
C1034 H1030 0.929 . S
C1034 C1036 1.378 . S
C1034 C1038 1.350 . S
C1035 C1038 1.463 1_455 S
C1035 C1040 1.350 . S
C1035 N1043 1.427 . S
C1036 H1027 0.930 . S
C1036 C1034 1.378 . S
C1036 C1037 1.367 . S
C1037 C1036 1.367 . S
C1037 C1039 1.433 . S
C1038 C1034 1.350 . S
C1038 C1035 1.463 1_655 S
C1038 N1042 1.427 . S
C1039 H1029 0.929 . S
C1039 C1037 1.433 . S
C1039 N1042 1.384 . S
C1040 H1031 0.929 . S
C1040 C1032 1.378 . S
C1040 C1035 1.350 . S
C1041 H1028 0.929 . S
C1041 C1033 1.433 . S
C1041 N1043 1.384 . S
N1042 C1038 1.427 . S
N1042 C1039 1.384 . S
N1043 C1035 1.427 . S
N1043 C1041 1.384 . S
H1044 C1050 0.930 . S
H1045 C1054 0.930 . S
H1046 C1059 0.929 . S
H1047 C1057 0.929 . S
H1048 C1052 0.929 . S
H1049 C1058 0.929 . S
C1050 H1044 0.930 . S
C1050 C1051 1.367 . S
C1050 C1058 1.378 . S
C1051 C1050 1.367 . S
C1051 C1059 1.433 . S
C1052 H1048 0.929 . S
C1052 C1054 1.378 . S
C1052 C1056 1.350 . S
C1053 C1056 1.463 1_545 S
C1053 C1058 1.350 . S
C1053 N1061 1.427 . S
C1054 H1045 0.930 . S
C1054 C1052 1.378 . S
C1054 C1055 1.367 . S
C1055 C1054 1.367 . S
C1055 C1057 1.433 . S
C1056 C1052 1.350 . S
C1056 C1053 1.463 1_565 S
C1056 N1060 1.427 . S
C1057 H1047 0.929 . S
C1057 C1055 1.433 . S
C1057 N1060 1.384 . S
C1058 H1049 0.929 . S
C1058 C1050 1.378 . S
C1058 C1053 1.350 . S
C1059 H1046 0.929 . S
C1059 C1051 1.433 . S
C1059 N1061 1.384 . S
N1060 C1056 1.427 . S
N1060 C1057 1.384 . S
N1061 C1053 1.427 . S
N1061 C1059 1.384 . S
H1062 C1068 0.930 . S
H1063 C1072 0.930 . S
H1064 C1077 0.929 . S
H1065 C1075 0.929 . S
H1066 C1070 0.929 . S
H1067 C1076 0.929 . S
C1068 H1062 0.930 . S
C1068 C1069 1.367 . S
C1068 C1076 1.378 . S
C1069 C1068 1.367 . S
C1069 C1077 1.433 . S
C1070 H1066 0.929 . S
C1070 C1072 1.378 . S
C1070 C1074 1.350 . S
C1071 C1074 1.463 . S
C1071 C1076 1.350 . S
C1071 N1079 1.427 . S
C1072 H1063 0.930 . S
C1072 C1070 1.378 . S
C1072 C1073 1.367 . S
C1073 C1072 1.367 . S
C1073 C1075 1.433 . S
C1074 C1070 1.350 . S
C1074 C1071 1.463 . S
C1074 N1078 1.427 . S
C1075 H1065 0.929 . S
C1075 C1073 1.433 . S
C1075 N1078 1.384 . S
C1076 H1067 0.929 . S
C1076 C1068 1.378 . S
C1076 C1071 1.350 . S
C1077 H1064 0.929 . S
C1077 C1069 1.433 . S
C1077 N1079 1.384 . S
N1078 C1074 1.427 . S
N1078 C1075 1.384 . S
N1079 C1071 1.427 . S
N1079 C1077 1.384 . S
H1080 C1086 0.930 . S
H1081 C1090 0.930 . S
H1082 C1095 0.929 . S
H1083 C1093 0.929 . S
H1084 C1088 0.929 . S
H1085 C1094 0.929 . S
C1086 H1080 0.930 . S
C1086 C1087 1.367 . S
C1086 C1094 1.378 . S
C1087 C1086 1.367 . S
C1087 C1095 1.433 . S
C1088 H1084 0.929 . S
C1088 C1090 1.378 . S
C1088 C1092 1.350 . S
C1089 C1092 1.463 1_455 S
C1089 C1094 1.350 . S
C1089 N1097 1.427 . S
C1090 H1081 0.930 . S
C1090 C1088 1.378 . S
C1090 C1091 1.367 . S
C1091 C1090 1.367 . S
C1091 C1093 1.433 . S
C1092 C1088 1.350 . S
C1092 C1089 1.463 1_655 S
C1092 N1096 1.427 . S
C1093 H1083 0.929 . S
C1093 C1091 1.433 . S
C1093 N1096 1.384 . S
C1094 H1085 0.929 . S
C1094 C1086 1.378 . S
C1094 C1089 1.350 . S
C1095 H1082 0.929 . S
C1095 C1087 1.433 . S
C1095 N1097 1.384 . S
N1096 C1092 1.427 . S
N1096 C1093 1.384 . S
N1097 C1089 1.427 . S
N1097 C1095 1.384 . S
H1098 C1104 0.930 . S
H1099 C1108 0.930 . S
H1100 C1113 0.929 . S
H1101 C1111 0.929 . S
H1102 C1106 0.929 . S
H1103 C1112 0.929 . S
C1104 H1098 0.930 . S
C1104 C1105 1.367 . S
C1104 C1112 1.378 . S
C1105 C1104 1.367 . S
C1105 C1113 1.433 . S
C1106 H1102 0.929 . S
C1106 C1108 1.378 . S
C1106 C1110 1.350 . S
C1107 C1110 1.463 1_565 S
C1107 C1112 1.350 . S
C1107 N1115 1.427 . S
C1108 H1099 0.930 . S
C1108 C1106 1.378 . S
C1108 C1109 1.367 . S
C1109 C1108 1.367 . S
C1109 C1111 1.433 . S
C1110 C1106 1.350 . S
C1110 C1107 1.463 1_545 S
C1110 N1114 1.427 . S
C1111 H1101 0.929 . S
C1111 C1109 1.433 . S
C1111 N1114 1.384 . S
C1112 H1103 0.929 . S
C1112 C1104 1.378 . S
C1112 C1107 1.350 . S
C1113 H1100 0.929 . S
C1113 C1105 1.433 . S
C1113 N1115 1.384 . S
N1114 C1110 1.427 . S
N1114 C1111 1.384 . S
N1115 C1107 1.427 . S
N1115 C1113 1.384 . S
H1116 C1122 0.930 . S
H1117 C1126 0.930 . S
H1118 C1131 0.929 . S
H1119 C1129 0.929 . S
H1120 C1124 0.929 . S
H1121 C1130 0.929 . S
C1122 H1116 0.930 . S
C1122 C1123 1.367 . S
C1122 C1130 1.378 . S
C1123 C1122 1.367 . S
C1123 C1131 1.433 . S
C1124 H1120 0.929 . S
C1124 C1126 1.378 . S
C1124 C1128 1.350 . S
C1125 C1128 1.463 . S
C1125 C1130 1.350 . S
C1125 N1133 1.427 . S
C1126 H1117 0.930 . S
C1126 C1124 1.378 . S
C1126 C1127 1.367 . S
C1127 C1126 1.367 . S
C1127 C1129 1.433 . S
C1128 C1124 1.350 . S
C1128 C1125 1.463 . S
C1128 N1132 1.427 . S
C1129 H1119 0.929 . S
C1129 C1127 1.433 . S
C1129 N1132 1.384 . S
C1130 H1121 0.929 . S
C1130 C1122 1.378 . S
C1130 C1125 1.350 . S
C1131 H1118 0.929 . S
C1131 C1123 1.433 . S
C1131 N1133 1.384 . S
N1132 C1128 1.427 . S
N1132 C1129 1.384 . S
N1133 C1125 1.427 . S
N1133 C1131 1.384 . S
H1134 C1140 0.930 . S
H1135 C1144 0.930 . S
H1136 C1149 0.929 . S
H1137 C1147 0.929 . S
H1138 C1142 0.929 . S
H1139 C1148 0.929 . S
C1140 H1134 0.930 . S
C1140 C1141 1.367 . S
C1140 C1148 1.378 . S
C1141 C1140 1.367 . S
C1141 C1149 1.433 . S
C1142 H1138 0.929 . S
C1142 C1144 1.378 . S
C1142 C1146 1.350 . S
C1143 C1146 1.463 1_455 S
C1143 C1148 1.350 . S
C1143 N1151 1.427 . S
C1144 H1135 0.930 . S
C1144 C1142 1.378 . S
C1144 C1145 1.367 . S
C1145 C1144 1.367 . S
C1145 C1147 1.433 . S
C1146 C1142 1.350 . S
C1146 C1143 1.463 1_655 S
C1146 N1150 1.427 . S
C1147 H1137 0.929 . S
C1147 C1145 1.433 . S
C1147 N1150 1.384 . S
C1148 H1139 0.929 . S
C1148 C1140 1.378 . S
C1148 C1143 1.350 . S
C1149 H1136 0.929 . S
C1149 C1141 1.433 . S
C1149 N1151 1.384 . S
N1150 C1146 1.427 . S
N1150 C1147 1.384 . S
N1151 C1143 1.427 . S
N1151 C1149 1.384 . S
H1152 C1158 0.930 . S
H1153 C1162 0.930 . S
H1154 C1167 0.929 . S
H1155 C1165 0.929 . S
H1156 C1160 0.929 . S
H1157 C1166 0.929 1_545 S
C1158 H1152 0.930 . S
C1158 C1159 1.367 . S
C1158 C1166 1.378 . S
C1159 C1158 1.367 . S
C1159 C1167 1.433 . S
C1160 H1156 0.929 . S
C1160 C1162 1.378 . S
C1160 C1164 1.350 . S
C1161 C1164 1.463 1_565 S
C1161 C1166 1.350 . S
C1161 N1169 1.427 . S
C1162 H1153 0.930 . S
C1162 C1160 1.378 . S
C1162 C1163 1.367 . S
C1163 C1162 1.367 . S
C1163 C1165 1.433 . S
C1164 C1160 1.350 . S
C1164 C1161 1.463 1_545 S
C1164 N1168 1.427 . S
C1165 H1155 0.929 . S
C1165 C1163 1.433 . S
C1165 N1168 1.384 . S
C1166 H1157 0.929 1_565 S
C1166 C1158 1.378 . S
C1166 C1161 1.350 . S
C1167 H1154 0.929 . S
C1167 C1159 1.433 . S
C1167 N1169 1.384 . S
N1168 C1164 1.427 . S
N1168 C1165 1.384 . S
N1169 C1161 1.427 . S
N1169 C1167 1.384 . S
H1170 C1176 0.930 . S
H1171 C1180 0.930 . S
H1172 C1185 0.929 . S
H1173 C1183 0.929 . S
H1174 C1178 0.929 . S
H1175 C1184 0.929 . S
C1176 H1170 0.930 . S
C1176 C1177 1.367 . S
C1176 C1184 1.378 . S
C1177 C1176 1.367 . S
C1177 C1185 1.433 . S
C1178 H1174 0.929 . S
C1178 C1180 1.378 . S
C1178 C1182 1.350 . S
C1179 C1182 1.463 . S
C1179 C1184 1.350 . S
C1179 N1187 1.427 . S
C1180 H1171 0.930 . S
C1180 C1178 1.378 . S
C1180 C1181 1.367 . S
C1181 C1180 1.367 . S
C1181 C1183 1.433 . S
C1182 C1178 1.350 . S
C1182 C1179 1.463 . S
C1182 N1186 1.427 . S
C1183 H1173 0.929 . S
C1183 C1181 1.433 . S
C1183 N1186 1.384 . S
C1184 H1175 0.929 . S
C1184 C1176 1.378 . S
C1184 C1179 1.350 . S
C1185 H1172 0.929 . S
C1185 C1177 1.433 . S
C1185 N1187 1.384 . S
N1186 C1182 1.427 . S
N1186 C1183 1.384 . S
N1187 C1179 1.427 . S
N1187 C1185 1.384 . S
H1188 C1194 0.930 . S
H1189 C1198 0.930 . S
H1190 C1203 0.929 . S
H1191 C1201 0.929 . S
H1192 C1196 0.929 . S
H1193 C1202 0.929 . S
C1194 H1188 0.930 . S
C1194 C1195 1.367 . S
C1194 C1202 1.378 . S
C1195 C1194 1.367 . S
C1195 C1203 1.433 . S
C1196 H1192 0.929 . S
C1196 C1198 1.378 . S
C1196 C1200 1.350 . S
C1197 C1200 1.463 1_455 S
C1197 C1202 1.350 . S
C1197 N1205 1.427 . S
C1198 H1189 0.930 . S
C1198 C1196 1.378 . S
C1198 C1199 1.367 . S
C1199 C1198 1.367 . S
C1199 C1201 1.433 . S
C1200 C1196 1.350 . S
C1200 C1197 1.463 1_655 S
C1200 N1204 1.427 . S
C1201 H1191 0.929 . S
C1201 C1199 1.433 . S
C1201 N1204 1.384 . S
C1202 H1193 0.929 . S
C1202 C1194 1.378 . S
C1202 C1197 1.350 . S
C1203 H1190 0.929 . S
C1203 C1195 1.433 . S
C1203 N1205 1.384 . S
N1204 C1200 1.427 . S
N1204 C1201 1.384 . S
N1205 C1197 1.427 . S
N1205 C1203 1.384 . S
H1206 C1212 0.930 . S
H1207 C1216 0.930 . S
H1208 C1221 0.929 . S
H1209 C1219 0.929 . S
H1210 C1214 0.929 . S
H1211 C1220 0.929 . S
C1212 H1206 0.930 . S
C1212 C1213 1.367 . S
C1212 C1220 1.378 . S
C1213 C1212 1.367 . S
C1213 C1221 1.433 . S
C1214 H1210 0.929 . S
C1214 C1216 1.378 . S
C1214 C1218 1.350 . S
C1215 C1218 1.463 1_545 S
C1215 C1220 1.350 . S
C1215 N1223 1.427 . S
C1216 H1207 0.930 . S
C1216 C1214 1.378 . S
C1216 C1217 1.367 . S
C1217 C1216 1.367 . S
C1217 C1219 1.433 . S
C1218 C1214 1.350 . S
C1218 C1215 1.463 1_565 S
C1218 N1222 1.427 . S
C1219 H1209 0.929 . S
C1219 C1217 1.433 . S
C1219 N1222 1.384 . S
C1220 H1211 0.929 . S
C1220 C1212 1.378 . S
C1220 C1215 1.350 . S
C1221 H1208 0.929 . S
C1221 C1213 1.433 . S
C1221 N1223 1.384 . S
N1222 C1218 1.427 . S
N1222 C1219 1.384 . S
N1223 C1215 1.427 . S
N1223 C1221 1.384 . S
H1224 C1230 0.930 . S
H1225 C1234 0.930 . S
H1226 C1239 0.929 . S
H1227 C1237 0.929 . S
H1228 C1232 0.929 . S
H1229 C1238 0.929 . S
C1230 H1224 0.930 . S
C1230 C1231 1.367 . S
C1230 C1238 1.378 . S
C1231 C1230 1.367 . S
C1231 C1239 1.433 . S
C1232 H1228 0.929 . S
C1232 C1234 1.378 . S
C1232 C1236 1.350 . S
C1233 C1236 1.463 . S
C1233 C1238 1.350 . S
C1233 N1241 1.427 . S
C1234 H1225 0.930 . S
C1234 C1232 1.378 . S
C1234 C1235 1.367 . S
C1235 C1234 1.367 . S
C1235 C1237 1.433 . S
C1236 C1232 1.350 . S
C1236 C1233 1.463 . S
C1236 N1240 1.427 . S
C1237 H1227 0.929 . S
C1237 C1235 1.433 . S
C1237 N1240 1.384 . S
C1238 H1229 0.929 . S
C1238 C1230 1.378 . S
C1238 C1233 1.350 . S
C1239 H1226 0.929 . S
C1239 C1231 1.433 . S
C1239 N1241 1.384 . S
N1240 C1236 1.427 . S
N1240 C1237 1.384 . S
N1241 C1233 1.427 . S
N1241 C1239 1.384 . S
H1242 C1248 0.930 . S
H1243 C1252 0.930 . S
H1244 C1257 0.929 . S
H1245 C1255 0.929 . S
H1246 C1250 0.929 . S
H1247 C1256 0.929 . S
C1248 H1242 0.930 . S
C1248 C1249 1.367 . S
C1248 C1256 1.378 . S
C1249 C1248 1.367 . S
C1249 C1257 1.433 . S
C1250 H1246 0.929 . S
C1250 C1252 1.378 . S
C1250 C1254 1.350 . S
C1251 C1254 1.463 . S
C1251 C1256 1.350 . S
C1251 N1259 1.427 . S
C1252 H1243 0.930 . S
C1252 C1250 1.378 . S
C1252 C1253 1.367 . S
C1253 C1252 1.367 . S
C1253 C1255 1.433 . S
C1254 C1250 1.350 . S
C1254 C1251 1.463 . S
C1254 N1258 1.427 . S
C1255 H1245 0.929 . S
C1255 C1253 1.433 . S
C1255 N1258 1.384 . S
C1256 H1247 0.929 . S
C1256 C1248 1.378 . S
C1256 C1251 1.350 . S
C1257 H1244 0.929 . S
C1257 C1249 1.433 . S
C1257 N1259 1.384 . S
N1258 C1254 1.427 . S
N1258 C1255 1.384 . S
N1259 C1251 1.427 . S
N1259 C1257 1.384 . S
H1260 C1266 0.930 . S
H1261 C1270 0.930 . S
H1262 C1275 0.929 . S
H1263 C1273 0.929 . S
H1264 C1268 0.929 . S
H1265 C1274 0.929 . S
C1266 H1260 0.930 . S
C1266 C1267 1.367 . S
C1266 C1274 1.378 . S
C1267 C1266 1.367 . S
C1267 C1275 1.433 . S
C1268 H1264 0.929 . S
C1268 C1270 1.378 . S
C1268 C1272 1.350 . S
C1269 C1272 1.463 . S
C1269 C1274 1.350 . S
C1269 N1277 1.427 . S
C1270 H1261 0.930 . S
C1270 C1268 1.378 . S
C1270 C1271 1.367 . S
C1271 C1270 1.367 . S
C1271 C1273 1.433 . S
C1272 C1268 1.350 . S
C1272 C1269 1.463 . S
C1272 N1276 1.427 . S
C1273 H1263 0.929 . S
C1273 C1271 1.433 . S
C1273 N1276 1.384 . S
C1274 H1265 0.929 . S
C1274 C1266 1.378 . S
C1274 C1269 1.350 . S
C1275 H1262 0.929 . S
C1275 C1267 1.433 . S
C1275 N1277 1.384 . S
N1276 C1272 1.427 . S
N1276 C1273 1.384 . S
N1277 C1269 1.427 . S
N1277 C1275 1.384 . S
H1278 C1284 0.930 . S
H1279 C1288 0.930 . S
H1280 C1293 0.929 . S
H1281 C1291 0.929 . S
H1282 C1286 0.929 . S
H1283 C1292 0.929 . S
C1284 H1278 0.930 . S
C1284 C1285 1.367 . S
C1284 C1292 1.378 . S
C1285 C1284 1.367 . S
C1285 C1293 1.433 . S
C1286 H1282 0.929 . S
C1286 C1288 1.378 . S
C1286 C1290 1.350 . S
C1287 C1290 1.463 . S
C1287 C1292 1.350 . S
C1287 N1295 1.427 . S
C1288 H1279 0.930 . S
C1288 C1286 1.378 . S
C1288 C1289 1.367 . S
C1289 C1288 1.367 . S
C1289 C1291 1.433 . S
C1290 C1286 1.350 . S
C1290 C1287 1.463 . S
C1290 N1294 1.427 . S
C1291 H1281 0.929 . S
C1291 C1289 1.433 . S
C1291 N1294 1.384 . S
C1292 H1283 0.929 . S
C1292 C1284 1.378 . S
C1292 C1287 1.350 . S
C1293 H1280 0.929 . S
C1293 C1285 1.433 . S
C1293 N1295 1.384 . S
N1294 C1290 1.427 . S
N1294 C1291 1.384 . S
N1295 C1287 1.427 . S
N1295 C1293 1.384 . S
H1296 C1302 0.930 . S
H1297 C1306 0.930 . S
H1298 C1311 0.929 . S
H1299 C1309 0.929 . S
H1300 C1304 0.929 . S
H1301 C1310 0.929 . S
C1302 H1296 0.930 . S
C1302 C1303 1.367 . S
C1302 C1310 1.378 . S
C1303 C1302 1.367 . S
C1303 C1311 1.433 . S
C1304 H1300 0.929 . S
C1304 C1306 1.378 . S
C1304 C1308 1.350 . S
C1305 C1308 1.463 . S
C1305 C1310 1.350 . S
C1305 N1313 1.427 . S
C1306 H1297 0.930 . S
C1306 C1304 1.378 . S
C1306 C1307 1.367 . S
C1307 C1306 1.367 . S
C1307 C1309 1.433 . S
C1308 C1304 1.350 . S
C1308 C1305 1.463 . S
C1308 N1312 1.427 . S
C1309 H1299 0.929 . S
C1309 C1307 1.433 . S
C1309 N1312 1.384 . S
C1310 H1301 0.929 . S
C1310 C1302 1.378 . S
C1310 C1305 1.350 . S
C1311 H1298 0.929 . S
C1311 C1303 1.433 . S
C1311 N1313 1.384 . S
N1312 C1308 1.427 . S
N1312 C1309 1.384 . S
N1313 C1305 1.427 . S
N1313 C1311 1.384 . S
H1314 C1320 0.930 . S
H1315 C1324 0.930 . S
H1316 C1329 0.929 . S
H1317 C1327 0.929 . S
H1318 C1322 0.929 . S
H1319 C1328 0.929 . S
C1320 H1314 0.930 . S
C1320 C1321 1.367 . S
C1320 C1328 1.378 . S
C1321 C1320 1.367 . S
C1321 C1329 1.433 . S
C1322 H1318 0.929 . S
C1322 C1324 1.378 . S
C1322 C1326 1.350 . S
C1323 C1326 1.463 . S
C1323 C1328 1.350 . S
C1323 N1331 1.427 . S
C1324 H1315 0.930 . S
C1324 C1322 1.378 . S
C1324 C1325 1.367 . S
C1325 C1324 1.367 . S
C1325 C1327 1.433 . S
C1326 C1322 1.350 . S
C1326 C1323 1.463 . S
C1326 N1330 1.427 . S
C1327 H1317 0.929 . S
C1327 C1325 1.433 . S
C1327 N1330 1.384 . S
C1328 H1319 0.929 . S
C1328 C1320 1.378 . S
C1328 C1323 1.350 . S
C1329 H1316 0.929 . S
C1329 C1321 1.433 . S
C1329 N1331 1.384 . S
N1330 C1326 1.427 . S
N1330 C1327 1.384 . S
N1331 C1323 1.427 . S
N1331 C1329 1.384 . S
H1332 C1338 0.930 . S
H1333 C1342 0.930 . S
H1334 C1347 0.929 . S
H1335 C1345 0.929 . S
H1336 C1340 0.931 . S
H1337 C1346 0.931 . S
C1338 H1332 0.930 . S
C1338 C1339 1.367 . S
C1338 C1346 1.376 1_556 S
C1339 C1338 1.367 . S
C1339 C1347 1.433 . S
C1340 H1336 0.931 . S
C1340 C1342 1.376 1_556 S
C1340 C1344 1.349 1_556 S
C1341 C1344 1.463 1_566 S
C1341 C1346 1.349 1_556 S
C1341 N1349 1.427 . S
C1342 H1333 0.930 . S
C1342 C1340 1.376 1_554 S
C1342 C1343 1.367 . S
C1343 C1342 1.367 . S
C1343 C1345 1.433 . S
C1344 C1340 1.349 1_554 S
C1344 C1341 1.463 1_544 S
C1344 N1348 1.427 . S
C1345 H1335 0.929 . S
C1345 C1343 1.433 . S
C1345 N1348 1.384 . S
C1346 H1337 0.931 . S
C1346 C1338 1.376 1_554 S
C1346 C1341 1.349 1_554 S
C1347 H1334 0.929 . S
C1347 C1339 1.433 . S
C1347 N1349 1.384 . S
N1348 C1344 1.427 . S
N1348 C1345 1.384 . S
N1349 C1341 1.427 . S
N1349 C1347 1.384 . S
H1350 C1356 0.930 . S
H1351 C1360 0.930 . S
H1352 C1365 0.929 . S
H1353 C1363 0.929 . S
H1354 C1358 0.929 . S
H1355 C1364 0.929 . S
C1356 H1350 0.930 . S
C1356 C1357 1.367 . S
C1356 C1364 1.378 . S
C1357 C1356 1.367 . S
C1357 C1365 1.433 . S
C1358 H1354 0.929 . S
C1358 C1360 1.378 . S
C1358 C1362 1.350 . S
C1359 C1362 1.463 . S
C1359 C1364 1.350 . S
C1359 N1367 1.427 . S
C1360 H1351 0.930 . S
C1360 C1358 1.378 . S
C1360 C1361 1.367 . S
C1361 C1360 1.367 . S
C1361 C1363 1.433 . S
C1362 C1358 1.350 . S
C1362 C1359 1.463 . S
C1362 N1366 1.427 . S
C1363 H1353 0.929 . S
C1363 C1361 1.433 . S
C1363 N1366 1.384 . S
C1364 H1355 0.929 . S
C1364 C1356 1.378 . S
C1364 C1359 1.350 . S
C1365 H1352 0.929 . S
C1365 C1357 1.433 . S
C1365 N1367 1.384 . S
N1366 C1362 1.427 . S
N1366 C1363 1.384 . S
N1367 C1359 1.427 . S
N1367 C1365 1.384 . S
H1368 C1374 0.930 . S
H1369 C1378 0.930 . S
H1370 C1383 0.929 . S
H1371 C1381 0.929 . S
H1372 C1376 0.929 1_556 S
H1373 C1382 0.929 1_554 S
C1374 H1368 0.930 . S
C1374 C1375 1.367 . S
C1374 C1382 1.378 . S
C1375 C1374 1.367 . S
C1375 C1383 1.433 . S
C1376 H1372 0.929 1_554 S
C1376 C1378 1.378 . S
C1376 C1380 1.350 . S
C1377 C1380 1.463 1_456 S
C1377 C1382 1.350 . S
C1377 N1385 1.427 . S
C1378 H1369 0.930 . S
C1378 C1376 1.378 . S
C1378 C1379 1.367 . S
C1379 C1378 1.367 . S
C1379 C1381 1.433 . S
C1380 C1376 1.350 . S
C1380 C1377 1.463 1_654 S
C1380 N1384 1.427 . S
C1381 H1371 0.929 . S
C1381 C1379 1.433 . S
C1381 N1384 1.384 . S
C1382 H1373 0.929 1_556 S
C1382 C1374 1.378 . S
C1382 C1377 1.350 . S
C1383 H1370 0.929 . S
C1383 C1375 1.433 . S
C1383 N1385 1.384 . S
N1384 C1380 1.427 . S
N1384 C1381 1.384 . S
N1385 C1377 1.427 . S
N1385 C1383 1.384 . S
H1386 C1392 0.930 . S
H1387 C1396 0.930 . S
H1388 C1401 0.929 . S
H1389 C1399 0.929 . S
H1390 C1394 0.929 1_545 S
H1391 C1400 0.929 1_565 S
C1392 H1386 0.930 . S
C1392 C1393 1.367 . S
C1392 C1400 1.378 . S
C1393 C1392 1.367 . S
C1393 C1401 1.433 . S
C1394 H1390 0.929 1_565 S
C1394 C1396 1.378 . S
C1394 C1398 1.350 . S
C1395 C1398 1.463 1_545 S
C1395 C1400 1.350 . S
C1395 N1403 1.427 . S
C1396 H1387 0.930 . S
C1396 C1394 1.378 . S
C1396 C1397 1.367 . S
C1397 C1396 1.367 . S
C1397 C1399 1.433 . S
C1398 C1394 1.350 . S
C1398 C1395 1.463 1_565 S
C1398 N1402 1.427 . S
C1399 H1389 0.929 . S
C1399 C1397 1.433 . S
C1399 N1402 1.384 . S
C1400 H1391 0.929 1_545 S
C1400 C1392 1.378 . S
C1400 C1395 1.350 . S
C1401 H1388 0.929 . S
C1401 C1393 1.433 . S
C1401 N1403 1.384 . S
N1402 C1398 1.427 . S
N1402 C1399 1.384 . S
N1403 C1395 1.427 . S
N1403 C1401 1.384 . S
H1404 C1410 0.930 . S
H1405 C1414 0.930 . S
H1406 C1419 0.929 . S
H1407 C1417 0.929 . S
H1408 C1412 0.929 . S
H1409 C1418 0.929 . S
C1410 H1404 0.930 . S
C1410 C1411 1.367 . S
C1410 C1418 1.378 . S
C1411 C1410 1.367 . S
C1411 C1419 1.433 . S
C1412 H1408 0.929 . S
C1412 C1414 1.378 . S
C1412 C1416 1.350 . S
C1413 C1416 1.463 1_554 S
C1413 C1418 1.350 . S
C1413 N1421 1.427 1_554 S
C1414 H1405 0.930 . S
C1414 C1412 1.378 . S
C1414 C1415 1.367 . S
C1415 C1414 1.367 . S
C1415 C1417 1.433 . S
C1416 C1412 1.350 . S
C1416 C1413 1.463 1_556 S
C1416 N1420 1.427 1_556 S
C1417 H1407 0.929 . S
C1417 C1415 1.433 . S
C1417 N1420 1.384 1_556 S
C1418 H1409 0.929 . S
C1418 C1410 1.378 . S
C1418 C1413 1.350 . S
C1419 H1406 0.929 . S
C1419 C1411 1.433 . S
C1419 N1421 1.384 1_554 S
N1420 C1416 1.427 1_554 S
N1420 C1417 1.384 1_554 S
N1421 C1413 1.427 1_556 S
N1421 C1419 1.384 1_556 S
H1422 C1428 0.930 . S
H1423 C1432 0.930 . S
H1424 C1437 0.929 . S
H1425 C1435 0.929 . S
H1426 C1430 0.929 . S
H1427 C1436 0.929 . S
C1428 H1422 0.930 . S
C1428 C1429 1.367 . S
C1428 C1436 1.378 . S
C1429 C1428 1.367 . S
C1429 C1437 1.433 . S
C1430 H1426 0.929 . S
C1430 C1432 1.378 . S
C1430 C1434 1.350 . S
C1431 C1434 1.463 1_455 S
C1431 C1436 1.350 . S
C1431 N1439 1.427 . S
C1432 H1423 0.930 . S
C1432 C1430 1.378 . S
C1432 C1433 1.367 . S
C1433 C1432 1.367 . S
C1433 C1435 1.433 . S
C1434 C1430 1.350 . S
C1434 C1431 1.463 1_655 S
C1434 N1438 1.427 . S
C1435 H1425 0.929 . S
C1435 C1433 1.433 . S
C1435 N1438 1.384 . S
C1436 H1427 0.929 . S
C1436 C1428 1.378 . S
C1436 C1431 1.350 . S
C1437 H1424 0.929 . S
C1437 C1429 1.433 . S
C1437 N1439 1.384 . S
N1438 C1434 1.427 . S
N1438 C1435 1.384 . S
N1439 C1431 1.427 . S
N1439 C1437 1.384 . S
H1440 C1446 0.930 . S
H1441 C1450 0.930 . S
H1442 C1455 0.929 . S
H1443 C1453 0.929 . S
H1444 C1448 0.929 . S
H1445 C1454 0.929 . S
C1446 H1440 0.930 . S
C1446 C1447 1.367 . S
C1446 C1454 1.378 . S
C1447 C1446 1.367 . S
C1447 C1455 1.433 . S
C1448 H1444 0.929 . S
C1448 C1450 1.378 . S
C1448 C1452 1.350 . S
C1449 C1452 1.463 . S
C1449 C1454 1.350 . S
C1449 N1457 1.427 . S
C1450 H1441 0.930 . S
C1450 C1448 1.378 . S
C1450 C1451 1.367 . S
C1451 C1450 1.367 . S
C1451 C1453 1.433 . S
C1452 C1448 1.350 . S
C1452 C1449 1.463 . S
C1452 N1456 1.427 . S
C1453 H1443 0.929 . S
C1453 C1451 1.433 . S
C1453 N1456 1.384 . S
C1454 H1445 0.929 . S
C1454 C1446 1.378 . S
C1454 C1449 1.350 . S
C1455 H1442 0.929 . S
C1455 C1447 1.433 . S
C1455 N1457 1.384 . S
N1456 C1452 1.427 . S
N1456 C1453 1.384 . S
N1457 C1449 1.427 . S
N1457 C1455 1.384 . S
H1458 C1464 0.930 . S
H1459 C1468 0.930 . S
H1460 C1473 0.929 . S
H1461 C1471 0.929 . S
H1462 C1466 0.929 . S
H1463 C1472 0.929 . S
C1464 H1458 0.930 . S
C1464 C1465 1.367 . S
C1464 C1472 1.378 . S
C1465 C1464 1.367 . S
C1465 C1473 1.433 . S
C1466 H1462 0.929 . S
C1466 C1468 1.378 . S
C1466 C1470 1.350 . S
C1467 C1470 1.463 . S
C1467 C1472 1.350 . S
C1467 N1475 1.427 . S
C1468 H1459 0.930 . S
C1468 C1466 1.378 . S
C1468 C1469 1.367 . S
C1469 C1468 1.367 . S
C1469 C1471 1.433 . S
C1470 C1466 1.350 . S
C1470 C1467 1.463 . S
C1470 N1474 1.427 . S
C1471 H1461 0.929 . S
C1471 C1469 1.433 . S
C1471 N1474 1.384 . S
C1472 H1463 0.929 . S
C1472 C1464 1.378 . S
C1472 C1467 1.350 . S
C1473 H1460 0.929 . S
C1473 C1465 1.433 . S
C1473 N1475 1.384 . S
N1474 C1470 1.427 . S
N1474 C1471 1.384 . S
N1475 C1467 1.427 . S
N1475 C1473 1.384 . S
H1476 C1482 0.930 . S
H1477 C1486 0.930 . S
H1478 C1491 0.929 . S
H1479 C1489 0.929 . S
H1480 C1484 0.929 . S
H1481 C1490 0.929 . S
C1482 H1476 0.930 . S
C1482 C1483 1.367 . S
C1482 C1490 1.378 . S
C1483 C1482 1.367 . S
C1483 C1491 1.433 . S
C1484 H1480 0.929 . S
C1484 C1486 1.378 . S
C1484 C1488 1.350 . S
C1485 C1488 1.463 . S
C1485 C1490 1.350 . S
C1485 N1493 1.427 . S
C1486 H1477 0.930 . S
C1486 C1484 1.378 . S
C1486 C1487 1.367 . S
C1487 C1486 1.367 . S
C1487 C1489 1.433 . S
C1488 C1484 1.350 . S
C1488 C1485 1.463 . S
C1488 N1492 1.427 . S
C1489 H1479 0.929 . S
C1489 C1487 1.433 . S
C1489 N1492 1.384 . S
C1490 H1481 0.929 . S
C1490 C1482 1.378 . S
C1490 C1485 1.350 . S
C1491 H1478 0.929 . S
C1491 C1483 1.433 . S
C1491 N1493 1.384 . S
N1492 C1488 1.427 . S
N1492 C1489 1.384 . S
N1493 C1485 1.427 . S
N1493 C1491 1.384 . S
H1494 C1500 0.930 . S
H1495 C1504 0.930 . S
H1496 C1509 0.929 . S
H1497 C1507 0.929 . S
H1498 C1502 0.929 . S
H1499 C1508 0.929 . S
C1500 H1494 0.930 . S
C1500 C1501 1.367 . S
C1500 C1508 1.378 . S
C1501 C1500 1.367 . S
C1501 C1509 1.433 . S
C1502 H1498 0.929 . S
C1502 C1504 1.378 . S
C1502 C1506 1.350 . S
C1503 C1506 1.463 . S
C1503 C1508 1.350 . S
C1503 N1511 1.427 . S
C1504 H1495 0.930 . S
C1504 C1502 1.378 . S
C1504 C1505 1.367 . S
C1505 C1504 1.367 . S
C1505 C1507 1.433 . S
C1506 C1502 1.350 . S
C1506 C1503 1.463 . S
C1506 N1510 1.427 . S
C1507 H1497 0.929 . S
C1507 C1505 1.433 . S
C1507 N1510 1.384 . S
C1508 H1499 0.929 . S
C1508 C1500 1.378 . S
C1508 C1503 1.350 . S
C1509 H1496 0.929 . S
C1509 C1501 1.433 . S
C1509 N1511 1.384 . S
N1510 C1506 1.427 . S
N1510 C1507 1.384 . S
N1511 C1503 1.427 . S
N1511 C1509 1.384 . S
H1512 C1518 0.930 . S
H1513 C1522 0.930 . S
H1514 C1527 0.929 . S
H1515 C1525 0.929 . S
H1516 C1520 0.929 . S
H1517 C1526 0.929 . S
C1518 H1512 0.930 . S
C1518 C1519 1.367 . S
C1518 C1526 1.378 . S
C1519 C1518 1.367 . S
C1519 C1527 1.433 . S
C1520 H1516 0.929 . S
C1520 C1522 1.378 . S
C1520 C1524 1.350 . S
C1521 C1524 1.463 . S
C1521 C1526 1.350 . S
C1521 N1529 1.427 . S
C1522 H1513 0.930 . S
C1522 C1520 1.378 . S
C1522 C1523 1.367 . S
C1523 C1522 1.367 . S
C1523 C1525 1.433 . S
C1524 C1520 1.350 . S
C1524 C1521 1.463 . S
C1524 N1528 1.427 . S
C1525 H1515 0.929 . S
C1525 C1523 1.433 . S
C1525 N1528 1.384 . S
C1526 H1517 0.929 . S
C1526 C1518 1.378 . S
C1526 C1521 1.350 . S
C1527 H1514 0.929 . S
C1527 C1519 1.433 . S
C1527 N1529 1.384 . S
N1528 C1524 1.427 . S
N1528 C1525 1.384 . S
N1529 C1521 1.427 . S
N1529 C1527 1.384 . S
H1530 C1536 0.930 . S
H1531 C1540 0.930 . S
H1532 C1545 0.929 . S
H1533 C1543 0.929 . S
H1534 C1538 0.929 . S
H1535 C1544 0.929 . S
C1536 H1530 0.930 . S
C1536 C1537 1.367 . S
C1536 C1544 1.378 . S
C1537 C1536 1.367 . S
C1537 C1545 1.433 . S
C1538 H1534 0.929 . S
C1538 C1540 1.378 . S
C1538 C1542 1.350 . S
C1539 C1542 1.463 . S
C1539 C1544 1.350 . S
C1539 N1547 1.427 . S
C1540 H1531 0.930 . S
C1540 C1538 1.378 . S
C1540 C1541 1.367 . S
C1541 C1540 1.367 . S
C1541 C1543 1.433 . S
C1542 C1538 1.350 . S
C1542 C1539 1.463 . S
C1542 N1546 1.427 . S
C1543 H1533 0.929 . S
C1543 C1541 1.433 . S
C1543 N1546 1.384 . S
C1544 H1535 0.929 . S
C1544 C1536 1.378 . S
C1544 C1539 1.350 . S
C1545 H1532 0.929 . S
C1545 C1537 1.433 . S
C1545 N1547 1.384 . S
N1546 C1542 1.427 . S
N1546 C1543 1.384 . S
N1547 C1539 1.427 . S
N1547 C1545 1.384 . S
H1548 C1554 0.930 . S
H1549 C1558 0.930 . S
H1550 C1563 0.929 . S
H1551 C1561 0.929 . S
H1552 C1556 0.929 . S
H1553 C1562 0.929 . S
C1554 H1548 0.930 . S
C1554 C1555 1.367 . S
C1554 C1562 1.378 . S
C1555 C1554 1.367 . S
C1555 C1563 1.433 . S
C1556 H1552 0.929 . S
C1556 C1558 1.378 . S
C1556 C1560 1.350 . S
C1557 C1560 1.463 . S
C1557 C1562 1.350 . S
C1557 N1565 1.427 . S
C1558 H1549 0.930 . S
C1558 C1556 1.378 . S
C1558 C1559 1.367 . S
C1559 C1558 1.367 . S
C1559 C1561 1.433 . S
C1560 C1556 1.350 . S
C1560 C1557 1.463 . S
C1560 N1564 1.427 . S
C1561 H1551 0.929 . S
C1561 C1559 1.433 . S
C1561 N1564 1.384 . S
C1562 H1553 0.929 . S
C1562 C1554 1.378 . S
C1562 C1557 1.350 . S
C1563 H1550 0.929 . S
C1563 C1555 1.433 . S
C1563 N1565 1.384 . S
N1564 C1560 1.427 . S
N1564 C1561 1.384 . S
N1565 C1557 1.427 . S
N1565 C1563 1.384 . S
H1566 C1572 0.930 . S
H1567 C1576 0.930 . S
H1568 C1581 0.929 . S
H1569 C1579 0.929 . S
H1570 C1574 0.929 . S
H1571 C1580 0.929 . S
C1572 H1566 0.930 . S
C1572 C1573 1.367 . S
C1572 C1580 1.378 . S
C1573 C1572 1.367 . S
C1573 C1581 1.433 . S
C1574 H1570 0.929 . S
C1574 C1576 1.378 . S
C1574 C1578 1.350 . S
C1575 C1578 1.463 . S
C1575 C1580 1.350 . S
C1575 N1583 1.427 . S
C1576 H1567 0.930 . S
C1576 C1574 1.378 . S
C1576 C1577 1.367 . S
C1577 C1576 1.367 . S
C1577 C1579 1.433 . S
C1578 C1574 1.350 . S
C1578 C1575 1.463 . S
C1578 N1582 1.427 . S
C1579 H1569 0.929 . S
C1579 C1577 1.433 . S
C1579 N1582 1.384 . S
C1580 H1571 0.929 . S
C1580 C1572 1.378 . S
C1580 C1575 1.350 . S
C1581 H1568 0.929 . S
C1581 C1573 1.433 . S
C1581 N1583 1.384 . S
N1582 C1578 1.427 . S
N1582 C1579 1.384 . S
N1583 C1575 1.427 . S
N1583 C1581 1.384 . S
H1584 C1590 0.930 . S
H1585 C1594 0.930 . S
H1586 C1599 0.929 . S
H1587 C1597 0.929 . S
H1588 C1592 0.929 . S
H1589 C1598 0.929 . S
C1590 H1584 0.930 . S
C1590 C1591 1.367 . S
C1590 C1598 1.378 . S
C1591 C1590 1.367 . S
C1591 C1599 1.433 . S
C1592 H1588 0.929 . S
C1592 C1594 1.378 . S
C1592 C1596 1.350 . S
C1593 C1596 1.463 . S
C1593 C1598 1.350 . S
C1593 N1601 1.427 . S
C1594 H1585 0.930 . S
C1594 C1592 1.378 . S
C1594 C1595 1.367 . S
C1595 C1594 1.367 . S
C1595 C1597 1.433 . S
C1596 C1592 1.350 . S
C1596 C1593 1.463 . S
C1596 N1600 1.427 . S
C1597 H1587 0.929 . S
C1597 C1595 1.433 . S
C1597 N1600 1.384 . S
C1598 H1589 0.929 . S
C1598 C1590 1.378 . S
C1598 C1593 1.350 . S
C1599 H1586 0.929 . S
C1599 C1591 1.433 . S
C1599 N1601 1.384 . S
N1600 C1596 1.427 . S
N1600 C1597 1.384 . S
N1601 C1593 1.427 . S
N1601 C1599 1.384 . S
H1602 C1608 0.930 . S
H1603 C1612 0.930 . S
H1604 C1617 0.929 . S
H1605 C1615 0.929 . S
H1606 C1610 0.929 . S
H1607 C1616 0.929 . S
C1608 H1602 0.930 . S
C1608 C1609 1.367 . S
C1608 C1616 1.378 . S
C1609 C1608 1.367 . S
C1609 C1617 1.433 . S
C1610 H1606 0.929 . S
C1610 C1612 1.378 . S
C1610 C1614 1.350 . S
C1611 C1614 1.463 . S
C1611 C1616 1.350 . S
C1611 N1619 1.427 . S
C1612 H1603 0.930 . S
C1612 C1610 1.378 . S
C1612 C1613 1.367 . S
C1613 C1612 1.367 . S
C1613 C1615 1.433 . S
C1614 C1610 1.350 . S
C1614 C1611 1.463 . S
C1614 N1618 1.427 . S
C1615 H1605 0.929 . S
C1615 C1613 1.433 . S
C1615 N1618 1.384 . S
C1616 H1607 0.929 . S
C1616 C1608 1.378 . S
C1616 C1611 1.350 . S
C1617 H1604 0.929 . S
C1617 C1609 1.433 . S
C1617 N1619 1.384 . S
N1618 C1614 1.427 . S
N1618 C1615 1.384 . S
N1619 C1611 1.427 . S
N1619 C1617 1.384 . S
H1620 C1626 0.930 . S
H1621 C1630 0.930 . S
H1622 C1635 0.929 . S
H1623 C1633 0.929 . S
H1624 C1628 0.929 . S
H1625 C1634 0.929 . S
C1626 H1620 0.930 . S
C1626 C1627 1.367 . S
C1626 C1634 1.378 . S
C1627 C1626 1.367 . S
C1627 C1635 1.433 . S
C1628 H1624 0.929 . S
C1628 C1630 1.378 . S
C1628 C1632 1.350 . S
C1629 C1632 1.463 . S
C1629 C1634 1.350 . S
C1629 N1637 1.427 . S
C1630 H1621 0.930 . S
C1630 C1628 1.378 . S
C1630 C1631 1.367 . S
C1631 C1630 1.367 . S
C1631 C1633 1.433 . S
C1632 C1628 1.350 . S
C1632 C1629 1.463 . S
C1632 N1636 1.427 . S
C1633 H1623 0.929 . S
C1633 C1631 1.433 . S
C1633 N1636 1.384 . S
C1634 H1625 0.929 . S
C1634 C1626 1.378 . S
C1634 C1629 1.350 . S
C1635 H1622 0.929 . S
C1635 C1627 1.433 . S
C1635 N1637 1.384 . S
N1636 C1632 1.427 . S
N1636 C1633 1.384 . S
N1637 C1629 1.427 . S
N1637 C1635 1.384 . S
H1638 C1644 0.930 . S
H1639 C1648 0.930 . S
H1640 C1653 0.929 . S
H1641 C1651 0.929 . S
H1642 C1646 0.929 . S
H1643 C1652 0.929 . S
C1644 H1638 0.930 . S
C1644 C1645 1.367 . S
C1644 C1652 1.378 . S
C1645 C1644 1.367 . S
C1645 C1653 1.433 . S
C1646 H1642 0.929 . S
C1646 C1648 1.378 . S
C1646 C1650 1.350 . S
C1647 C1650 1.463 . S
C1647 C1652 1.350 . S
C1647 N1655 1.427 . S
C1648 H1639 0.930 . S
C1648 C1646 1.378 . S
C1648 C1649 1.367 . S
C1649 C1648 1.367 . S
C1649 C1651 1.433 . S
C1650 C1646 1.350 . S
C1650 C1647 1.463 . S
C1650 N1654 1.427 . S
C1651 H1641 0.929 . S
C1651 C1649 1.433 . S
C1651 N1654 1.384 . S
C1652 H1643 0.929 . S
C1652 C1644 1.378 . S
C1652 C1647 1.350 . S
C1653 H1640 0.929 . S
C1653 C1645 1.433 . S
C1653 N1655 1.384 . S
N1654 C1650 1.427 . S
N1654 C1651 1.384 . S
N1655 C1647 1.427 . S
N1655 C1653 1.384 . S
C1015 C231 1.203 . S
C1019 C56 1.317 . S
C1033 C324 1.230 . S
C1037 C151 1.302 . S
C1051 C224 1.316 . S
C1055 C399 1.203 . S
C1069 C319 1.302 . S
C1073 C492 1.229 . S
C1087 C63 1.222 . S
C1091 C392 1.301 . S
C1105 C156 1.230 . S
C1109 C487 1.306 . S
C1123 C912 1.230 . S
C1127 C571 1.307 . S
C1141 C644 1.311 . S
C1145 C987 1.204 . S
C1159 C739 1.312 . S
C1163 C576 1.224 . S
C1177 C812 1.310 . S
C1181 C651 1.227 . S
C1195 C907 1.318 . S
C1199 C744 1.205 . S
C1213 C819 1.230 . S
C1217 C980 1.306 . S
C1231 C327 1.939 . S
C1235 C66 1.926 . S
C1249 C159 1.927 . S
C1253 C402 1.938 . S
C1267 C234 1.937 . S
C1271 C495 1.928 . S
C1285 C579 1.926 . S
C1289 C822 1.939 . S
C1303 C654 1.935 . S
C1307 C915 1.930 . S
C1321 C747 1.927 . S
C1325 C990 1.938 . S
C1339 C663 2.145 . S
C1343 C75 2.150 . S
C1357 C150 2.139 . S
C1361 C738 2.149 . S
C1375 C831 2.143 . S
C1379 C243 2.151 . S
C1393 C318 2.139 . S
C1397 C906 2.142 . S
C1411 C411 2.141 . S
C1415 C999 2.140 . S
C1429 C570 2.146 . S
C1433 C486 2.150 . S
C1447 C240 1.322 . S
C1451 C67 1.396 . S
C1465 C140 1.400 . S
C1469 C315 1.303 . S
C1483 C235 1.410 . S
C1487 C408 1.299 . S
C1501 C308 1.409 . S
C1505 C483 1.299 . S
C1519 C72 1.324 . S
C1523 C403 1.398 . S
C1537 C147 1.300 . S
C1541 C476 1.412 . S
C1555 C903 1.307 . S
C1559 C560 1.415 . S
C1573 C655 1.412 . S
C1577 C996 1.300 . S
C1591 C728 1.402 . S
C1595 C567 1.326 . S
C1609 C660 1.299 . S
C1613 C823 1.411 . S
C1627 C896 1.409 . S
C1631 C735 1.323 . S
C1645 C991 1.397 . S
C1649 C828 1.323 . S
