# Generated by pormake.
# Topology sxb, (6)-cn, num edge types: 1
# Building blocks:
#     Node 0, Type 0, BuildingBlock: BETFEN_clean_sbu_0, # of connection points: 6
#     Node 1, Type 0, BuildingBlock: BETFEN_clean_sbu_0, # of connection points: 6
#     Node 2, Type 0, BuildingBlock: BETFEN_clean_sbu_0, # of connection points: 6
#     Node 3, Type 0, BuildingBlock: BETFEN_clean_sbu_0, # of connection points: 6
#     Edge 4, Type (0, 0), BuildingBlock: KIFKEQ_clean_linker_1, # of connection points: 2
#     Edge 5, Type (0, 0), BuildingBlock: KIFKEQ_clean_linker_1, # of connection points: 2
#     Edge 6, Type (0, 0), BuildingBlock: KIFKEQ_clean_linker_1, # of connection points: 2
#     Edge 7, Type (0, 0), BuildingBlock: KIFKEQ_clean_linker_1, # of connection points: 2
#     Edge 8, Type (0, 0), BuildingBlock: KIFKEQ_clean_linker_1, # of connection points: 2
#     Edge 9, Type (0, 0), BuildingBlock: KIFKEQ_clean_linker_1, # of connection points: 2
#     Edge 10, Type (0, 0), BuildingBlock: KIFKEQ_clean_linker_1, # of connection points: 2
#     Edge 11, Type (0, 0), BuildingBlock: KIFKEQ_clean_linker_1, # of connection points: 2
#     Edge 12, Type (0, 0), BuildingBlock: KIFKEQ_clean_linker_1, # of connection points: 2
#     Edge 13, Type (0, 0), BuildingBlock: KIFKEQ_clean_linker_1, # of connection points: 2
#     Edge 14, Type (0, 0), BuildingBlock: KIFKEQ_clean_linker_1, # of connection points: 2
#     Edge 15, Type (0, 0), BuildingBlock: KIFKEQ_clean_linker_1, # of connection points: 2
# Relax obj value: 0.412
# Max RMSD: 0.124
# Mean RMSD: 0.081
data_MOF--net-sxb--node1-BETFEN_clean_sbu_0--edge1-KIFKEQ_clean_linker_1
_symmetry_space_group_name_H-M    P1
_symmetry_Int_Tables_number       1
_symmetry_cell_setting            triclinic
loop_
_symmetry_equiv_pos_as_xyz
'x, y, z'
_cell_length_a     18.499367
_cell_length_b     36.589866
_cell_length_c     31.518652
_cell_angle_alpha  93.230917
_cell_angle_beta   93.719033
_cell_angle_gamma 71.728178
loop_
_atom_site_label
_atom_site_type_symbol
_atom_site_fract_x
_atom_site_fract_y
_atom_site_fract_z
_atom_type_partial_charge
Pr0 Pr 1.01236 0.04324 0.96026 0.0
Pr1 Pr 0.13099 0.05737 0.97096 0.0
C2 C 0.87915 1.03203 0.97271 0.0
C3 C 0.8395 1.03957 0.01268 0.0
C4 C 0.81339 1.01107 0.02805 0.0
C5 C 0.78953 1.01421 0.06957 0.0
C6 C 0.79132 0.04597 0.09654 0.0
C7 C 0.8162 0.07486 0.08079 0.0
C8 C 0.8408 0.07151 0.03937 0.0
C9 C 1.06659 1.03772 0.8766 0.0
C10 C 0.97823 0.14218 0.9632 0.0
C11 C 0.25668 0.07853 -0.0137 0.0
C12 C 0.30982 0.06926 0.02367 0.0
C13 C 0.33611 0.09801 0.04397 0.0
C14 C 0.37504 0.09187 0.08369 0.0
C15 C 0.38762 0.05696 0.10411 0.0
C16 C 0.36098 1.02822 0.08359 0.0
C17 C 0.32279 1.03426 0.04369 0.0
C18 C 0.09548 1.03875 0.0522 0.0
C19 C 0.16558 0.95951 0.96346 0.0
O20 O 0.94394 1.00457 0.97492 0.0
O21 O 0.88306 0.06186 0.95316 0.0
O22 O 1.06713 0.06423 0.90412 0.0
O23 O 1.04189 1.01248 0.89273 0.0
O24 O 1.0544 0.12752 0.96695 0.0
O25 O 0.94444 0.11456 0.96004 0.0
O26 O 0.25489 0.05006 0.95966 0.0
O27 O 0.18902 0.10075 -0.00458 0.0
O28 O 1.05049 0.06233 0.02728 0.0
O29 O 0.15681 1.02104 0.03307 0.0
O30 O 0.09223 0.9747 0.97263 0.0
O31 O 0.19568 0.98696 0.95467 0.0
H32 H 0.81352 0.98582 0.00832 0.0
H33 H 0.76838 0.99202 0.08029 0.0
H34 H 0.81771 0.09975 0.10071 0.0
H35 H 0.86302 0.09334 0.02872 0.0
H36 H 0.32522 0.12551 0.02947 0.0
H37 H 0.39664 0.11425 0.09794 0.0
H38 H 0.3697 1.00104 0.09833 0.0
H39 H 0.30197 1.0118 0.02895 0.0
Pr40 Pr 0.09626 1.00548 0.46429 0.0
Pr41 Pr 1.04604 0.07541 0.46498 0.0
C42 C 0.12944 0.9302 0.4802 0.0
C43 C 0.09143 0.90877 0.50385 0.0
C44 C 0.09056 0.87229 0.48855 0.0
C45 C 1.0459 0.85388 0.50736 0.0
C46 C 1.00155 0.87169 0.54191 0.0
C47 C 1.00562 0.90751 0.55843 0.0
C48 C 1.04983 0.92603 0.53939 0.0
C49 C 0.0915 1.02559 0.37838 0.0
C50 C 0.88869 0.04065 0.46379 0.0
C51 C 1.01476 0.15131 0.45274 0.0
C52 C 1.04586 0.18161 0.47 0.0
C53 C 1.06751 0.18363 0.5134 0.0
C54 C 0.10369 0.21029 0.52863 0.0
C55 C 0.11969 0.235 0.50064 0.0
C56 C 0.09585 0.23356 0.45742 0.0
C57 C 1.05905 0.20714 0.4423 0.0
C58 C 1.05404 0.05566 0.55144 0.0
C59 C 0.25445 0.03998 0.46539 0.0
O60 O 0.1584 0.95362 0.50278 0.0
O61 O 0.09307 0.94526 0.44543 0.0
O62 O 1.03716 1.03913 0.40325 0.0
O63 O 0.15088 1.00345 0.39862 0.0
O64 O 0.90951 0.07179 0.45598 0.0
O65 O 0.95296 1.0104 0.47139 0.0
O66 O 1.05946 0.12457 0.42882 0.0
O67 O 0.97889 0.13763 0.47885 0.0
O68 O 0.1067 0.04197 0.52568 0.0
O69 O 0.99496 0.07868 0.53214 0.0
O70 O 0.2337 1.00773 0.46584 0.0
O71 O 0.19037 0.07132 0.46493 0.0
H72 H 0.12184 0.85878 0.46093 0.0
H73 H 1.04308 0.82663 0.49331 0.0
H74 H 0.97282 0.92178 0.58524 0.0
H75 H 1.04938 0.9544 0.55155 0.0
H76 H 1.05822 0.164 0.53537 0.0
H77 H 0.12052 0.21099 0.56214 0.0
H78 H 0.10848 0.25169 0.43484 0.0
H79 H 1.04319 0.20575 0.40867 0.0
Pr80 Pr 0.51221 0.54595 0.9595 0.0
Pr81 Pr 0.63469 0.55651 0.96534 0.0
C82 C 0.39716 0.51606 0.95737 0.0
C83 C 0.38713 0.48574 0.92728 0.0
C84 C 0.34683 0.46138 0.93811 0.0
C85 C 0.33467 0.43393 0.90829 0.0
C86 C 0.36233 0.43067 0.86713 0.0
C87 C 0.40665 0.45359 0.85733 0.0
C88 C 0.4196 0.48066 0.88735 0.0
C89 C 0.54968 0.55354 0.87517 0.0
C90 C 0.48008 0.64286 0.96657 0.0
C91 C 0.76404 0.57095 0.95132 0.0
C92 C 0.8295 0.54282 0.93128 0.0
C93 C 0.85815 0.55204 0.89462 0.0
C94 C 0.90859 0.52313 0.8703 0.0
C95 C 0.93018 0.48437 0.88184 0.0
C96 C 0.90186 0.47551 0.91892 0.0
C97 C 0.85321 0.50439 0.94362 0.0
C98 C 0.6001 0.54715 0.04977 0.0
C99 C 0.66553 0.45927 0.96072 0.0
O100 O 0.39065 0.54878 0.94062 0.0
O101 O 0.45551 0.50528 -0.01559 0.0
O102 O 0.59345 0.53163 0.90228 0.0
O103 O 0.48837 0.57437 0.89276 0.0
O104 O 0.55553 0.62705 0.96192 0.0
O105 O 0.44573 0.61617 0.97078 0.0
O106 O 0.70322 0.58252 0.92608 0.0
O107 O 0.74875 0.56289 -0.01111 0.0
O108 O 0.5544 0.56924 0.02337 0.0
O109 O 0.66204 0.52753 0.03165 0.0
O110 O 0.59009 0.47537 0.96422 0.0
O111 O 0.70018 0.48582 0.95737 0.0
H112 H 0.32261 0.46446 0.96901 0.0
H113 H 0.29885 0.4172 0.91645 0.0
H114 H 0.42789 0.45191 0.82581 0.0
H115 H 0.4527 0.49863 0.8788 0.0
H116 H 0.83975 0.58137 0.88411 0.0
H117 H 0.93076 0.53125 0.84258 0.0
H118 H 0.9163 0.4461 0.92872 0.0
H119 H 0.83188 0.49619 0.97158 0.0
Pr120 Pr 0.60003 0.51488 0.46042 0.0
Pr121 Pr 0.54947 0.58311 0.46424 0.0
C122 C 0.63296 0.4386 0.47051 0.0
C123 C 0.59216 0.41568 0.48945 0.0
C124 C 0.59582 0.37932 0.47158 0.0
C125 C 0.54928 0.35948 0.48576 0.0
C126 C 0.49847 0.37576 0.51811 0.0
C127 C 0.4975 0.41156 0.53716 0.0
C128 C 0.54363 0.43147 0.52277 0.0
C129 C 0.59477 0.53867 0.37578 0.0
C130 C 0.39223 0.54905 0.46085 0.0
C131 C 0.51679 0.66004 0.4589 0.0
C132 C 0.54561 0.68941 0.48097 0.0
C133 C 0.56381 0.6882 0.52495 0.0
C134 C 0.59787 0.71412 0.54484 0.0
C135 C 0.61519 0.74134 0.52101 0.0
C136 C 0.59464 0.74314 0.47718 0.0
C137 C 0.55995 0.71744 0.4574 0.0
C138 C 0.5572 0.55961 0.54935 0.0
C139 C 0.7582 0.54861 0.46344 0.0
O140 O 0.65832 0.46111 0.49675 0.0
O141 O 0.60089 0.45538 0.4357 0.0
O142 O 0.5397 0.54978 0.4004 0.0
O143 O 0.65568 0.51801 0.39614 0.0
O144 O 0.41278 0.5804 0.45394 0.0
O145 O 0.45693 0.5188 0.46758 0.0
O146 O 0.56393 0.63523 0.43428 0.0
O147 O 0.47925 0.64411 0.48144 0.0
O148 O 0.61113 0.54861 0.52409 0.0
O149 O 0.49645 0.58072 0.52963 0.0
O150 O 0.7377 0.51631 0.463 0.0
O151 O 0.69373 0.57977 0.46376 0.0
H152 H 0.63244 0.36697 0.44556 0.0
H153 H 0.55053 0.33226 0.46992 0.0
H154 H 0.45966 0.42464 0.56244 0.0
H155 H 0.53958 0.45974 0.53677 0.0
H156 H 0.55356 0.66661 0.54379 0.0
H157 H 0.61222 0.71225 0.57868 0.0
H158 H 0.60845 0.76322 0.45766 0.0
H159 H 0.54672 0.7186 0.4234 0.0
H160 H 0.52951 0.70997 0.95564 0.0
H161 H 0.32129 0.68755 0.97695 0.0
H162 H 0.46097 0.77947 0.95483 0.0
H163 H 0.25244 0.75692 0.97627 0.0
H164 H 0.11951 0.89262 0.97894 0.0
H165 H 0.18845 0.82327 0.97974 0.0
H166 H 0.39332 0.8456 0.94976 0.0
H167 H 0.3238 0.91501 0.94893 0.0
C168 C 0.46892 0.71903 0.96033 0.0
C169 C 0.43454 0.68954 0.96648 0.0
C170 C 0.42775 0.76062 0.95979 0.0
C171 C 0.34709 0.7779 0.96544 0.0
C172 C 0.31296 0.74823 0.97167 0.0
C173 C 0.35409 0.70667 0.97208 0.0
C174 C 0.17937 0.88356 0.97233 0.0
C175 C 0.21243 0.91301 0.96375 0.0
C176 C 0.22075 0.84204 0.97278 0.0
C177 C 0.30054 0.82473 0.96485 0.0
C178 C 0.33355 0.85436 0.95635 0.0
C179 C 0.29203 0.89591 0.95578 0.0
H180 H 0.61371 0.39179 0.96366 0.0
H181 H 0.82594 0.41486 0.95836 0.0
H182 H 0.68193 0.32221 0.96409 0.0
H183 H 0.89454 0.34545 0.95884 0.0
H184 H 1.02894 0.21008 0.96597 0.0
H185 H 0.96037 0.27952 0.9653 0.0
H186 H 0.74725 0.25544 0.95874 0.0
H187 H 0.81632 0.18599 0.95928 0.0
C188 C 0.67516 0.38287 0.96254 0.0
C189 C 0.71077 0.41256 0.96089 0.0
C190 C 0.71612 0.34123 0.96276 0.0
C191 C 0.79783 0.3241 0.96154 0.0
C192 C 0.83319 0.354 0.95996 0.0
C193 C 0.79221 0.39558 0.95958 0.0
C194 C 0.96729 0.21875 0.96431 0.0
C195 C 0.93181 0.18878 0.96265 0.0
C196 C 0.9261 0.26033 0.96388 0.0
C197 C 0.84417 0.2772 0.96192 0.0
C198 C 0.8088 0.24707 0.96036 0.0
C199 C 0.85005 0.20547 0.96062 0.0
H200 H 0.24404 0.21745 0.55643 0.0
H201 H 0.10248 0.30844 0.47789 0.0
H202 H 0.33146 0.25448 0.57307 0.0
H203 H 0.19236 0.34433 0.49232 0.0
H204 H 0.34817 0.4104 0.53343 0.0
H205 H 0.25162 0.37935 0.54156 0.0
H206 H 0.4235 0.26785 0.53201 0.0
H207 H 0.5207 0.29896 0.52657 0.0
C208 C 0.23075 0.24567 0.54332 0.0
C209 C 0.16668 0.25984 0.51543 0.0
C210 C 0.28145 0.26667 0.55245 0.0
C211 C 0.26952 0.30209 0.53358 0.0
C212 C 0.20309 0.31727 0.5077 0.0
C213 C 0.15205 0.29644 0.49889 0.0
C214 C 0.36581 0.37929 0.53448 0.0
C215 C 0.44206 0.35708 0.52897 0.0
C216 C 0.31023 0.3615 0.53859 0.0
C217 C 0.32961 0.32115 0.53689 0.0
C218 C 0.40657 0.29901 0.53382 0.0
C219 C 0.46223 0.31681 0.53008 0.0
H220 H 1.01912 0.79575 0.5534 0.0
H221 H 0.85579 0.90963 0.56416 0.0
H222 H 0.91871 0.76757 0.56199 0.0
H223 H 0.75623 0.88148 0.57566 0.0
H224 H 0.59944 0.81655 0.50649 0.0
H225 H 0.69105 0.85042 0.52595 0.0
H226 H 0.82466 0.75494 0.60121 0.0
H227 H 0.73558 0.71995 0.57931 0.0
C228 C 0.96213 0.81477 0.55869 0.0
C229 C 0.94521 0.85487 0.55714 0.0
C230 C 0.90459 0.79863 0.56428 0.0
C231 C 0.82899 0.82229 0.5689 0.0
C232 C 0.81356 0.86246 0.57133 0.0
C233 C 0.87097 0.8786 0.56526 0.0
C234 C 0.64801 0.80292 0.52748 0.0
C235 C 0.66107 0.76522 0.54049 0.0
C236 C 0.70008 0.8226 0.53926 0.0
C237 C 0.76594 0.80516 0.56473 0.0
C238 C 0.7753 0.76886 0.58089 0.0
C239 C 0.72363 0.74898 0.56871 0.0
H240 H 0.49715 0.98973 0.1245 0.0
H241 H 0.39157 0.10549 0.17387 0.0
H242 H 0.60945 0.98549 0.16845 0.0
H243 H 0.50592 0.1013 0.21884 0.0
H244 H 0.81201 0.99213 0.15748 0.0
H245 H 0.71544 0.99287 0.20686 0.0
H246 H 0.59883 0.11207 0.17968 0.0
H247 H 0.69474 0.1113 0.13174 0.0
C248 C 0.49636 1.01378 0.14631 0.0
C249 C 0.43772 0.04898 0.14344 0.0
C250 C 0.56152 1.01137 0.17216 0.0
C251 C 0.56971 0.04456 0.19429 0.0
C252 C 0.50346 0.07612 0.19976 0.0
C253 C 0.4381 0.07869 0.17368 0.0
C254 C 0.76714 1.01888 0.16358 0.0
C255 C 0.75758 0.05088 0.13865 0.0
C256 C 0.71201 1.01944 0.19212 0.0
C257 C 0.64528 0.05126 0.19397 0.0
C258 C 0.64684 0.08605 0.17746 0.0
C259 C 0.70219 0.08569 0.14936 0.0
H260 H 0.40783 0.97942 0.47071 0.0
H261 H 0.33081 0.10151 0.45976 0.0
H262 H 0.54124 0.97933 0.47063 0.0
H263 H 0.46433 0.10144 0.45928 0.0
H264 H 0.73513 0.10036 0.45298 0.0
H265 H 0.60178 0.10047 0.45353 0.0
H266 H 0.67913 0.97995 0.47574 0.0
H267 H 0.81263 0.97998 0.47555 0.0
C268 C 0.41645 1.00712 0.46818 0.0
C269 C 0.34761 0.04046 0.4653 0.0
C270 C 0.49788 1.00707 0.46813 0.0
C271 C 0.52478 0.04036 0.4649 0.0
C272 C 0.45584 0.07373 0.4619 0.0
C273 C 0.37435 0.07381 0.46221 0.0
C274 C 0.72662 0.07305 0.45816 0.0
C275 C 0.79557 0.04018 0.46415 0.0
C276 C 0.64524 0.07311 0.45851 0.0
C277 C 0.61846 0.04023 0.46467 0.0
C278 C 0.6875 1.0073 0.47059 0.0
C279 C 0.76898 1.00728 0.47047 0.0
H280 H 1.04098 0.42201 0.91331 0.0
H281 H 0.94791 0.4765 0.79505 0.0
H282 H 0.14949 0.38173 0.87852 0.0
H283 H 1.06003 0.43586 0.75935 0.0
H284 H 0.35507 0.35648 0.86367 0.0
H285 H 0.24123 0.34244 0.83428 0.0
H286 H 0.17657 0.44794 0.76624 0.0
H287 H 0.29141 0.46037 0.7931 0.0
C288 C 1.04208 0.42452 0.87933 0.0
C289 C 0.98686 0.45379 0.8575 0.0
C290 C 0.10513 0.40086 0.85884 0.0
C291 C 0.11598 0.40643 0.8161 0.0
C292 C 1.05512 0.43169 0.79266 0.0
C293 C 0.99132 0.45539 0.81327 0.0
C294 C 0.31889 0.37523 0.84014 0.0
C295 C 0.32876 0.41083 0.8329 0.0
C296 C 0.2534 0.36731 0.82327 0.0
C297 C 0.19575 0.39645 0.80228 0.0
C298 C 0.21703 0.42599 0.78491 0.0
C299 C 0.28352 0.43336 0.80058 0.0
H300 H 0.31624 0.48803 0.4712 0.0
H301 H 0.23888 0.609 0.45191 0.0
H302 H 0.18268 0.48811 0.47164 0.0
H303 H 0.10553 0.6092 0.45272 0.0
H304 H 0.83465 0.61035 0.45935 0.0
H305 H 0.96823 0.61018 0.45869 0.0
H306 H 1.0447 0.48774 0.46677 0.0
H307 H 0.91127 0.48794 0.46703 0.0
C308 C 0.27262 0.51548 0.4669 0.0
C309 C 0.29921 0.54852 0.46136 0.0
C310 C 0.19111 0.51556 0.46718 0.0
C311 C 0.12213 0.5487 0.46224 0.0
C312 C 0.14894 0.58169 0.45689 0.0
C313 C 0.23032 0.58157 0.45638 0.0
C314 C 0.87811 0.58256 0.46102 0.0
C315 C 0.85127 0.54916 0.46329 0.0
C316 C 0.95963 0.58243 0.4606 0.0
C317 C 1.02844 0.54891 0.46263 0.0
C318 C 1.00143 0.51558 0.46505 0.0
C319 C 0.92 0.51569 0.46521 0.0
H320 H 0.98702 0.07891 0.32674 0.0
H321 H 0.18397 0.97787 0.32093 0.0
H322 H 0.9853 0.08347 0.24927 0.0
H323 H 0.18002 0.98048 0.24429 0.0
H324 H 0.21001 1.00731 0.11087 0.0
H325 H 0.20663 1.00625 0.18733 0.0
H326 H 0.96429 0.06592 0.17928 0.0
H327 H 0.97021 0.06938 0.10213 0.0
C328 C 1.0295 0.05738 0.30892 0.0
C329 C 0.08603 1.02821 0.33054 0.0
C330 C 1.02843 0.05979 0.26409 0.0
C331 C 0.08323 1.03272 0.23917 0.0
C332 C 0.13808 1.00297 0.26126 0.0
C333 C 0.13998 1.0011 0.30581 0.0
C334 C 0.15577 1.02023 0.12526 0.0
C335 C 0.09013 1.03805 0.09976 0.0
C336 C 0.15343 1.01929 0.16971 0.0
C337 C 0.08479 1.03528 0.19092 0.0
C338 C 1.01881 0.05337 0.16519 0.0
C339 C 1.02171 0.05505 0.12051 0.0
H340 H 0.0846 0.9799 0.81488 0.0
H341 H 1.06074 0.10082 0.8304 0.0
H342 H 0.08727 0.98366 0.73758 0.0
H343 H 1.06179 0.10483 0.75294 0.0
H344 H 0.96791 0.10437 0.61114 0.0
H345 H 0.97647 0.10013 0.68849 0.0
H346 H 0.16491 0.99527 0.67859 0.0
H347 H 0.15726 1.00006 0.60066 0.0
C348 C 0.08027 1.00733 0.80187 0.0
C349 C 1.07246 0.04004 0.82929 0.0
C350 C 0.08211 1.00945 0.75735 0.0
C351 C 1.07454 0.04458 0.73843 0.0
C352 C 1.06723 0.07727 0.76595 0.0
C353 C 1.06702 0.07496 0.81058 0.0
C354 C 1.01167 0.08046 0.6253 0.0
C355 C 1.06209 0.05266 0.59923 0.0
C356 C 1.0168 0.07813 0.66995 0.0
C357 C 1.07151 0.04741 0.6904 0.0
C358 C 0.12177 1.01934 0.6643 0.0
C359 C 0.1177 1.02215 0.6195 0.0
H360 H 0.46756 0.56677 0.3204 0.0
H361 H 0.71247 0.52052 0.32274 0.0
H362 H 0.46411 0.56963 0.24247 0.0
H363 H 0.70985 0.52454 0.24605 0.0
H364 H 0.69075 0.49675 0.10601 0.0
H365 H 0.6849 0.49575 0.18255 0.0
H366 H 0.48699 0.59713 0.17952 0.0
H367 H 0.49176 0.59707 0.10166 0.0
C368 C 0.52075 0.55752 0.30442 0.0
C369 C 0.59028 0.54307 0.32823 0.0
C370 C 0.51893 0.55929 0.25949 0.0
C371 C 0.58663 0.5468 0.23687 0.0
C372 C 0.65595 0.53343 0.26126 0.0
C373 C 0.65764 0.53142 0.30578 0.0
C374 C 0.64568 0.5189 0.12145 0.0
C375 C 0.59209 0.54711 0.09717 0.0
C376 C 0.64264 0.51858 0.1659 0.0
C377 C 0.58626 0.54677 0.18843 0.0
C378 C 0.53133 0.5747 0.16397 0.0
C379 C 0.53413 0.57483 0.11908 0.0
H380 H 0.68523 0.53148 0.60457 0.0
H381 H 0.44025 0.57721 0.60249 0.0
H382 H 0.68888 0.52878 0.68265 0.0
H383 H 0.44313 0.57338 0.67913 0.0
H384 H 0.46164 0.60363 0.8181 0.0
H385 H 0.4689 0.60368 0.74166 0.0
H386 H 0.66474 0.50138 0.74638 0.0
H387 H 0.65852 0.50234 0.82434 0.0
C388 C 0.63212 0.54065 0.62061 0.0
C389 C 0.56246 0.555 0.59688 0.0
C390 C 0.63406 0.53898 0.66559 0.0
C391 C 0.56637 0.55149 0.68823 0.0
C392 C 0.49699 0.56456 0.66388 0.0
C393 C 0.49518 0.56647 0.61938 0.0
C394 C 0.50655 0.58105 0.80309 0.0
C395 C 0.55903 0.55283 0.82786 0.0
C396 C 0.51041 0.58083 0.75869 0.0
C397 C 0.56652 0.55207 0.73667 0.0
C398 C 0.62056 0.52416 0.76159 0.0
C399 C 0.61691 0.52456 0.80649 0.0
loop_
_geom_bond_atom_site_label_1
_geom_bond_atom_site_label_2
_geom_bond_distance
_geom_bond_site_symmetry_2
_ccdc_geom_bond_type
Pr0 C2 2.880 1_565 S
Pr0 O20 2.562 1_566 S
Pr0 O21 2.490 . S
Pr0 O22 2.695 1_655 S
Pr0 O23 2.512 . S
Pr0 O25 2.437 1_565 S
Pr0 O28 2.436 1_566 S
Pr0 O30 2.438 1_655 S
Pr1 C11 2.880 . S
Pr1 O22 2.436 1_544 S
Pr1 O24 2.438 1_455 S
Pr1 O26 2.562 1_544 S
Pr1 O27 2.490 . S
Pr1 O28 2.695 1_455 S
Pr1 O29 2.512 . S
Pr1 O31 2.437 1_545 S
C2 Pr0 2.880 1_545 S
C2 C3 1.491 . S
C2 O20 1.254 1_556 S
C2 O21 1.225 1_545 S
C3 C2 1.491 . S
C3 C4 1.392 . S
C3 C8 1.356 1_556 S
C4 C3 1.392 . S
C4 C5 1.368 . S
C4 H32 0.929 1_545 S
C5 C4 1.368 . S
C5 C6 1.386 . S
C5 H33 0.929 . S
C6 C5 1.386 . S
C6 C7 1.373 1_556 S
C7 C6 1.373 1_554 S
C7 C8 1.409 . S
C7 H34 0.931 . S
C8 C3 1.356 1_554 S
C8 C7 1.409 . S
C8 H35 0.930 . S
C9 O22 1.270 1_655 S
C9 O23 1.248 . S
C10 O24 1.267 1_556 S
C10 O25 1.278 . S
C11 Pr1 2.880 . S
C11 C12 1.491 1_545 S
C11 O26 1.253 1_544 S
C11 O27 1.225 . S
C12 C11 1.491 1_565 S
C12 C13 1.392 . S
C12 C17 1.356 1_554 S
C13 C12 1.392 . S
C13 C14 1.368 . S
C13 H36 0.929 1_565 S
C14 C13 1.368 . S
C14 C15 1.386 . S
C14 H37 0.929 . S
C15 C14 1.386 . S
C15 C16 1.373 1_554 S
C16 C15 1.373 1_556 S
C16 C17 1.409 . S
C16 H38 0.931 . S
C17 C12 1.356 1_556 S
C17 C16 1.409 . S
C17 H39 0.930 . S
C18 O28 1.270 1_455 S
C18 O29 1.248 . S
C19 O30 1.267 1_554 S
C19 O31 1.278 . S
O20 Pr0 2.562 1_544 S
O20 C2 1.254 1_554 S
O21 Pr0 2.490 . S
O21 C2 1.225 1_565 S
O22 Pr0 2.695 1_455 S
O22 Pr1 2.436 1_566 S
O22 C9 1.270 1_455 S
O23 Pr0 2.512 . S
O23 C9 1.248 . S
O24 Pr1 2.438 1_655 S
O24 C10 1.267 1_554 S
O25 Pr0 2.437 1_545 S
O25 C10 1.278 . S
O26 Pr1 2.562 1_566 S
O26 C11 1.253 1_566 S
O27 Pr1 2.490 . S
O27 C11 1.225 . S
O28 Pr0 2.436 1_544 S
O28 Pr1 2.695 1_655 S
O28 C18 1.270 1_655 S
O29 Pr1 2.512 . S
O29 C18 1.248 . S
O30 Pr0 2.438 1_455 S
O30 C19 1.267 1_556 S
O31 Pr1 2.437 1_565 S
O31 C19 1.278 . S
H32 C4 0.929 1_565 S
H33 C5 0.929 . S
H34 C7 0.931 . S
H35 C8 0.930 . S
H36 C13 0.929 1_545 S
H37 C14 0.929 . S
H38 C16 0.931 . S
H39 C17 0.930 . S
Pr40 C42 2.880 1_455 S
Pr40 O60 2.562 1_455 S
Pr40 O61 2.490 1_455 S
Pr40 O62 2.695 1_565 S
Pr40 O63 2.512 . S
Pr40 O65 2.437 1_455 S
Pr40 O68 2.436 1_455 S
Pr40 O70 2.438 . S
Pr41 C51 2.880 1_655 S
Pr41 O62 2.436 1_655 S
Pr41 O64 2.438 . S
Pr41 O66 2.562 1_655 S
Pr41 O67 2.490 1_655 S
Pr41 O68 2.695 1_545 S
Pr41 O69 2.512 . S
Pr41 O71 2.437 1_655 S
C42 Pr40 2.880 1_655 S
C42 C43 1.491 . S
C42 O60 1.254 . S
C42 O61 1.225 . S
C43 C42 1.491 . S
C43 C44 1.392 . S
C43 C48 1.356 . S
C44 C43 1.392 . S
C44 C45 1.368 . S
C44 H72 0.929 . S
C45 C44 1.368 . S
C45 C46 1.386 . S
C45 H73 0.929 . S
C46 C45 1.386 . S
C46 C47 1.373 . S
C47 C46 1.373 . S
C47 C48 1.409 . S
C47 H74 0.931 . S
C48 C43 1.356 . S
C48 C47 1.409 . S
C48 H75 0.930 . S
C49 O62 1.270 1_565 S
C49 O63 1.248 . S
C50 O64 1.267 . S
C50 O65 1.278 1_545 S
C51 Pr41 2.880 1_455 S
C51 C52 1.491 . S
C51 O66 1.254 . S
C51 O67 1.225 . S
C52 C51 1.491 . S
C52 C53 1.392 . S
C52 C57 1.356 . S
C53 C52 1.392 . S
C53 C54 1.368 . S
C53 H76 0.929 . S
C54 C53 1.368 . S
C54 C55 1.386 . S
C54 H77 0.929 . S
C55 C54 1.386 . S
C55 C56 1.373 . S
C56 C55 1.373 . S
C56 C57 1.409 . S
C56 H78 0.931 . S
C57 C52 1.356 . S
C57 C56 1.409 . S
C57 H79 0.930 . S
C58 O68 1.270 1_545 S
C58 O69 1.248 . S
C59 O70 1.267 . S
C59 O71 1.278 1_565 S
O60 Pr40 2.562 1_655 S
O60 C42 1.254 . S
O61 Pr40 2.490 1_655 S
O61 C42 1.225 . S
O62 Pr40 2.695 1_545 S
O62 Pr41 2.436 1_455 S
O62 C49 1.270 1_545 S
O63 Pr40 2.512 . S
O63 C49 1.248 . S
O64 Pr41 2.438 . S
O64 C50 1.267 . S
O65 Pr40 2.437 1_655 S
O65 C50 1.278 1_565 S
O66 Pr41 2.562 1_455 S
O66 C51 1.254 . S
O67 Pr41 2.490 1_455 S
O67 C51 1.225 . S
O68 Pr40 2.436 1_655 S
O68 Pr41 2.695 1_565 S
O68 C58 1.270 1_565 S
O69 Pr41 2.512 . S
O69 C58 1.248 . S
O70 Pr40 2.438 . S
O70 C59 1.267 . S
O71 Pr41 2.437 1_455 S
O71 C59 1.278 1_545 S
H72 C44 0.929 . S
H73 C45 0.929 . S
H74 C47 0.931 . S
H75 C48 0.930 . S
H76 C53 0.929 . S
H77 C54 0.929 . S
H78 C56 0.931 . S
H79 C57 0.930 . S
Pr80 C82 2.880 . S
Pr80 O100 2.562 1_556 S
Pr80 O101 2.490 . S
Pr80 O102 2.695 . S
Pr80 O103 2.512 . S
Pr80 O105 2.437 . S
Pr80 O108 2.436 1_556 S
Pr80 O110 2.438 . S
Pr81 C91 2.880 . S
Pr81 O102 2.436 1_554 S
Pr81 O104 2.438 . S
Pr81 O106 2.562 1_554 S
Pr81 O107 2.490 . S
Pr81 O108 2.695 . S
Pr81 O109 2.512 . S
Pr81 O111 2.437 . S
C82 Pr80 2.880 . S
C82 C83 1.491 . S
C82 O100 1.254 1_556 S
C82 O101 1.225 . S
C83 C82 1.491 . S
C83 C84 1.392 . S
C83 C88 1.356 1_556 S
C84 C83 1.392 . S
C84 C85 1.368 . S
C84 H112 0.929 . S
C85 C84 1.368 . S
C85 C86 1.386 . S
C85 H113 0.929 . S
C86 C85 1.386 . S
C86 C87 1.373 1_556 S
C87 C86 1.373 1_554 S
C87 C88 1.409 . S
C87 H114 0.931 . S
C88 C83 1.356 1_554 S
C88 C87 1.409 . S
C88 H115 0.930 . S
C89 O102 1.270 . S
C89 O103 1.248 . S
C90 O104 1.267 1_556 S
C90 O105 1.278 . S
C91 Pr81 2.880 . S
C91 C92 1.491 . S
C91 O106 1.254 1_554 S
C91 O107 1.225 . S
C92 C91 1.491 . S
C92 C93 1.392 . S
C92 C97 1.356 1_554 S
C93 C92 1.392 . S
C93 C94 1.368 . S
C93 H116 0.929 . S
C94 C93 1.368 . S
C94 C95 1.386 . S
C94 H117 0.929 . S
C95 C94 1.386 . S
C95 C96 1.373 1_554 S
C96 C95 1.373 1_556 S
C96 C97 1.409 . S
C96 H118 0.931 . S
C97 C92 1.356 1_556 S
C97 C96 1.409 . S
C97 H119 0.930 . S
C98 O108 1.270 . S
C98 O109 1.248 . S
C99 O110 1.267 1_554 S
C99 O111 1.278 . S
O100 Pr80 2.562 1_554 S
O100 C82 1.254 1_554 S
O101 Pr80 2.490 . S
O101 C82 1.225 . S
O102 Pr80 2.695 . S
O102 Pr81 2.436 1_556 S
O102 C89 1.270 . S
O103 Pr80 2.512 . S
O103 C89 1.248 . S
O104 Pr81 2.438 . S
O104 C90 1.267 1_554 S
O105 Pr80 2.437 . S
O105 C90 1.278 . S
O106 Pr81 2.562 1_556 S
O106 C91 1.254 1_556 S
O107 Pr81 2.490 . S
O107 C91 1.225 . S
O108 Pr80 2.436 1_554 S
O108 Pr81 2.695 . S
O108 C98 1.270 . S
O109 Pr81 2.512 . S
O109 C98 1.248 . S
O110 Pr80 2.438 . S
O110 C99 1.267 1_556 S
O111 Pr81 2.437 . S
O111 C99 1.278 . S
H112 C84 0.929 . S
H113 C85 0.929 . S
H114 C87 0.931 . S
H115 C88 0.930 . S
H116 C93 0.929 . S
H117 C94 0.929 . S
H118 C96 0.931 . S
H119 C97 0.930 . S
Pr120 C122 2.880 . S
Pr120 O140 2.562 . S
Pr120 O141 2.490 . S
Pr120 O142 2.695 . S
Pr120 O143 2.512 . S
Pr120 O145 2.437 . S
Pr120 O148 2.436 . S
Pr120 O150 2.438 . S
Pr121 C131 2.880 . S
Pr121 O142 2.436 . S
Pr121 O144 2.438 . S
Pr121 O146 2.562 . S
Pr121 O147 2.490 . S
Pr121 O148 2.695 . S
Pr121 O149 2.512 . S
Pr121 O151 2.437 . S
C122 Pr120 2.880 . S
C122 C123 1.491 . S
C122 O140 1.254 . S
C122 O141 1.225 . S
C123 C122 1.491 . S
C123 C124 1.392 . S
C123 C128 1.356 . S
C124 C123 1.392 . S
C124 C125 1.368 . S
C124 H152 0.929 . S
C125 C124 1.368 . S
C125 C126 1.386 . S
C125 H153 0.929 . S
C126 C125 1.386 . S
C126 C127 1.373 . S
C127 C126 1.373 . S
C127 C128 1.409 . S
C127 H154 0.931 . S
C128 C123 1.356 . S
C128 C127 1.409 . S
C128 H155 0.930 . S
C129 O142 1.270 . S
C129 O143 1.248 . S
C130 O144 1.267 . S
C130 O145 1.278 . S
C131 Pr121 2.880 . S
C131 C132 1.491 . S
C131 O146 1.254 . S
C131 O147 1.225 . S
C132 C131 1.491 . S
C132 C133 1.392 . S
C132 C137 1.356 . S
C133 C132 1.392 . S
C133 C134 1.368 . S
C133 H156 0.929 . S
C134 C133 1.368 . S
C134 C135 1.386 . S
C134 H157 0.929 . S
C135 C134 1.386 . S
C135 C136 1.373 . S
C136 C135 1.373 . S
C136 C137 1.409 . S
C136 H158 0.931 . S
C137 C132 1.356 . S
C137 C136 1.409 . S
C137 H159 0.930 . S
C138 O148 1.270 . S
C138 O149 1.248 . S
C139 O150 1.267 . S
C139 O151 1.278 . S
O140 Pr120 2.562 . S
O140 C122 1.254 . S
O141 Pr120 2.490 . S
O141 C122 1.225 . S
O142 Pr120 2.695 . S
O142 Pr121 2.436 . S
O142 C129 1.270 . S
O143 Pr120 2.512 . S
O143 C129 1.248 . S
O144 Pr121 2.438 . S
O144 C130 1.267 . S
O145 Pr120 2.437 . S
O145 C130 1.278 . S
O146 Pr121 2.562 . S
O146 C131 1.254 . S
O147 Pr121 2.490 . S
O147 C131 1.225 . S
O148 Pr120 2.436 . S
O148 Pr121 2.695 . S
O148 C138 1.270 . S
O149 Pr121 2.512 . S
O149 C138 1.248 . S
O150 Pr120 2.438 . S
O150 C139 1.267 . S
O151 Pr121 2.437 . S
O151 C139 1.278 . S
H152 C124 0.929 . S
H153 C125 0.929 . S
H154 C127 0.931 . S
H155 C128 0.930 . S
H156 C133 0.929 . S
H157 C134 0.929 . S
H158 C136 0.931 . S
H159 C137 0.930 . S
H160 C168 0.950 . S
H161 C173 0.950 . S
H162 C170 0.950 . S
H163 C172 0.950 . S
H164 C174 0.950 . S
H165 C176 0.950 . S
H166 C178 0.950 . S
H167 C179 0.950 . S
C168 H160 0.950 . S
C168 C169 1.408 . S
C168 C170 1.391 . S
C169 C168 1.408 . S
C169 C173 1.371 1_554 S
C170 H162 0.950 . S
C170 C168 1.391 . S
C170 C171 1.403 . S
C171 C170 1.403 . S
C171 C172 1.395 1_554 S
C171 C177 1.491 1_554 S
C172 H163 0.950 . S
C172 C171 1.395 1_556 S
C172 C173 1.391 . S
C173 H161 0.950 . S
C173 C169 1.371 1_556 S
C173 C172 1.391 . S
C174 H164 0.950 . S
C174 C175 1.403 . S
C174 C176 1.391 . S
C175 C174 1.403 . S
C175 C179 1.376 1_556 S
C176 H165 0.950 . S
C176 C174 1.391 . S
C176 C177 1.398 . S
C177 C171 1.491 1_556 S
C177 C176 1.398 . S
C177 C178 1.400 1_556 S
C178 H166 0.950 . S
C178 C177 1.400 1_554 S
C178 C179 1.391 . S
C179 H167 0.950 . S
C179 C175 1.376 1_554 S
C179 C178 1.391 . S
H180 C188 0.950 . S
H181 C193 0.950 . S
H182 C190 0.950 . S
H183 C192 0.950 . S
H184 C194 0.950 . S
H185 C196 0.950 . S
H186 C198 0.950 . S
H187 C199 0.950 . S
C188 H180 0.950 . S
C188 C189 1.386 1_554 S
C188 C190 1.391 . S
C189 C188 1.386 1_556 S
C189 C193 1.393 . S
C190 H182 0.950 . S
C190 C188 1.391 . S
C190 C191 1.396 1_554 S
C191 C190 1.396 1_556 S
C191 C192 1.404 . S
C191 C197 1.490 1_556 S
C192 H183 0.950 . S
C192 C191 1.404 . S
C192 C193 1.391 . S
C193 H181 0.950 . S
C193 C189 1.393 . S
C193 C192 1.391 . S
C194 H184 0.950 . S
C194 C195 1.386 1_556 S
C194 C196 1.391 . S
C195 C194 1.386 1_554 S
C195 C199 1.393 . S
C196 H185 0.950 . S
C196 C194 1.391 . S
C196 C197 1.400 1_556 S
C197 C191 1.490 1_554 S
C197 C196 1.400 1_554 S
C197 C198 1.398 . S
C198 H186 0.950 . S
C198 C197 1.398 . S
C198 C199 1.391 . S
C199 H187 0.950 . S
C199 C195 1.393 . S
C199 C198 1.391 . S
H200 C208 0.950 . S
H201 C213 0.950 . S
H202 C210 0.950 . S
H203 C212 0.950 . S
H204 C214 0.950 . S
H205 C216 0.950 . S
H206 C218 0.950 . S
H207 C219 0.950 . S
C208 H200 0.950 . S
C208 C209 1.386 . S
C208 C210 1.391 . S
C209 C208 1.386 . S
C209 C213 1.393 . S
C210 H202 0.950 . S
C210 C208 1.391 . S
C210 C211 1.400 . S
C211 C210 1.400 . S
C211 C212 1.398 . S
C211 C217 1.491 . S
C212 H203 0.950 . S
C212 C211 1.398 . S
C212 C213 1.391 . S
C213 H201 0.950 . S
C213 C209 1.393 . S
C213 C212 1.391 . S
C214 H204 0.950 . S
C214 C215 1.386 . S
C214 C216 1.391 . S
C215 C214 1.386 . S
C215 C219 1.393 . S
C216 H205 0.950 . S
C216 C214 1.391 . S
C216 C217 1.400 . S
C217 C211 1.491 . S
C217 C216 1.400 . S
C217 C218 1.398 . S
C218 H206 0.950 . S
C218 C217 1.398 . S
C218 C219 1.391 . S
C219 H207 0.950 . S
C219 C215 1.393 . S
C219 C218 1.391 . S
H220 C228 0.950 . S
H221 C233 0.950 . S
H222 C230 0.950 . S
H223 C232 0.950 . S
H224 C234 0.950 . S
H225 C236 0.950 . S
H226 C238 0.950 . S
H227 C239 0.950 . S
C228 H220 0.950 . S
C228 C229 1.386 . S
C228 C230 1.391 . S
C229 C228 1.386 . S
C229 C233 1.393 . S
C230 H222 0.950 . S
C230 C228 1.391 . S
C230 C231 1.400 . S
C231 C230 1.400 . S
C231 C232 1.398 . S
C231 C237 1.491 . S
C232 H223 0.950 . S
C232 C231 1.398 . S
C232 C233 1.391 . S
C233 H221 0.950 . S
C233 C229 1.393 . S
C233 C232 1.391 . S
C234 H224 0.950 . S
C234 C235 1.386 . S
C234 C236 1.391 . S
C235 C234 1.386 . S
C235 C239 1.393 . S
C236 H225 0.950 . S
C236 C234 1.391 . S
C236 C237 1.400 . S
C237 C231 1.491 . S
C237 C236 1.400 . S
C237 C238 1.398 . S
C238 H226 0.950 . S
C238 C237 1.398 . S
C238 C239 1.391 . S
C239 H227 0.950 . S
C239 C235 1.393 . S
C239 C238 1.391 . S
H240 C248 0.950 . S
H241 C253 0.950 1_556 S
H242 C250 0.950 . S
H243 C252 0.948 1_556 S
H244 C254 0.950 . S
H245 C256 0.950 . S
H246 C258 0.950 . S
H247 C259 0.950 . S
C248 H240 0.950 . S
C248 C249 1.386 . S
C248 C250 1.391 1_565 S
C249 C248 1.386 . S
C249 C253 1.393 . S
C250 H242 0.950 . S
C250 C248 1.391 1_545 S
C250 C251 1.400 1_545 S
C251 C250 1.400 1_565 S
C251 C252 1.398 . S
C251 C257 1.487 1_564 S
C252 H243 0.948 1_554 S
C252 C251 1.398 . S
C252 C253 1.390 . S
C253 H241 0.950 1_554 S
C253 C249 1.393 . S
C253 C252 1.390 . S
C254 H244 0.950 . S
C254 C255 1.386 . S
C254 C256 1.391 1_545 S
C255 C254 1.386 . S
C255 C259 1.393 1_556 S
C256 H245 0.950 . S
C256 C254 1.391 1_565 S
C256 C257 1.405 1_565 S
C257 C251 1.487 1_546 S
C257 C256 1.405 1_545 S
C257 C258 1.398 1_556 S
C258 H246 0.950 . S
C258 C257 1.398 1_554 S
C258 C259 1.390 . S
C259 H247 0.950 . S
C259 C255 1.393 1_554 S
C259 C258 1.390 . S
H260 C268 0.950 . S
H261 C273 0.950 . S
H262 C270 0.950 . S
H263 C272 0.950 . S
H264 C274 0.950 . S
H265 C276 0.950 . S
H266 C278 0.950 . S
H267 C279 0.950 . S
C268 H260 0.950 . S
C268 C269 1.402 . S
C268 C270 1.391 . S
C269 C268 1.402 . S
C269 C273 1.369 1_565 S
C270 H262 0.950 . S
C270 C268 1.391 . S
C270 C271 1.398 1_565 S
C271 C270 1.398 1_545 S
C271 C272 1.400 . S
C271 C277 1.492 . S
C272 H263 0.950 . S
C272 C271 1.400 . S
C272 C273 1.391 . S
C273 H261 0.950 . S
C273 C269 1.369 1_545 S
C273 C272 1.391 . S
C274 H264 0.950 . S
C274 C275 1.386 . S
C274 C276 1.391 . S
C275 C274 1.386 . S
C275 C279 1.393 1_545 S
C276 H265 0.950 . S
C276 C274 1.391 . S
C276 C277 1.399 . S
C277 C271 1.492 . S
C277 C276 1.399 . S
C277 C278 1.399 1_545 S
C278 H266 0.950 . S
C278 C277 1.399 1_565 S
C278 C279 1.391 . S
C279 H267 0.950 . S
C279 C275 1.393 1_565 S
C279 C278 1.391 . S
H280 C288 0.950 . S
H281 C293 0.950 . S
H282 C290 0.950 . S
H283 C292 0.950 . S
H284 C294 0.950 . S
H285 C296 0.950 . S
H286 C298 0.950 . S
H287 C299 0.950 . S
C288 H280 0.950 . S
C288 C289 1.386 . S
C288 C290 1.391 . S
C289 C288 1.386 . S
C289 C293 1.393 1_554 S
C290 H282 0.950 . S
C290 C288 1.391 . S
C290 C291 1.410 . S
C291 C290 1.410 . S
C291 C292 1.389 1_554 S
C291 C297 1.489 1_654 S
C292 H283 0.950 . S
C292 C291 1.389 1_556 S
C292 C293 1.391 . S
C293 H281 0.950 . S
C293 C289 1.393 1_556 S
C293 C292 1.391 . S
C294 H284 0.950 . S
C294 C295 1.386 . S
C294 C296 1.391 . S
C295 C294 1.386 . S
C295 C299 1.393 1_556 S
C296 H285 0.950 . S
C296 C294 1.391 . S
C296 C297 1.405 . S
C297 C291 1.489 1_456 S
C297 C296 1.405 . S
C297 C298 1.394 1_556 S
C298 H286 0.950 . S
C298 C297 1.394 1_554 S
C298 C299 1.391 . S
C299 H287 0.950 . S
C299 C295 1.393 1_554 S
C299 C298 1.391 . S
H300 C308 0.950 . S
H301 C313 0.950 . S
H302 C310 0.950 . S
H303 C312 0.950 . S
H304 C314 0.950 . S
H305 C316 0.950 . S
H306 C318 0.950 . S
H307 C319 0.950 . S
C308 H300 0.950 . S
C308 C309 1.386 . S
C308 C310 1.391 . S
C309 C308 1.386 . S
C309 C313 1.393 . S
C310 H302 0.950 . S
C310 C308 1.391 . S
C310 C311 1.400 . S
C311 C310 1.400 . S
C311 C312 1.398 . S
C311 C317 1.491 1_455 S
C312 H303 0.950 . S
C312 C311 1.398 . S
C312 C313 1.391 . S
C313 H301 0.950 . S
C313 C309 1.393 . S
C313 C312 1.391 . S
C314 H304 0.950 . S
C314 C315 1.386 . S
C314 C316 1.391 . S
C315 C314 1.386 . S
C315 C319 1.393 . S
C316 H305 0.950 . S
C316 C314 1.391 . S
C316 C317 1.400 . S
C317 C311 1.491 1_655 S
C317 C316 1.400 . S
C317 C318 1.398 . S
C318 H306 0.950 . S
C318 C317 1.398 . S
C318 C319 1.391 . S
C319 H307 0.950 . S
C319 C315 1.393 . S
C319 C318 1.391 . S
H320 C328 0.950 . S
H321 C333 0.950 . S
H322 C330 0.950 . S
H323 C332 0.950 . S
H324 C334 0.950 . S
H325 C336 0.950 . S
H326 C338 0.950 . S
H327 C339 0.950 . S
C328 H320 0.950 . S
C328 C329 1.386 1_565 S
C328 C330 1.391 . S
C329 C328 1.386 1_545 S
C329 C333 1.393 1_655 S
C330 H322 0.950 . S
C330 C328 1.391 . S
C330 C331 1.400 1_565 S
C331 C330 1.400 1_545 S
C331 C332 1.398 1_655 S
C331 C337 1.491 . S
C332 H323 0.950 . S
C332 C331 1.398 1_455 S
C332 C333 1.391 . S
C333 H321 0.950 . S
C333 C329 1.393 1_455 S
C333 C332 1.391 . S
C334 H324 0.950 . S
C334 C335 1.404 . S
C334 C336 1.391 . S
C335 C334 1.404 . S
C335 C339 1.372 1_445 S
C336 H325 0.950 . S
C336 C334 1.391 . S
C336 C337 1.418 1_455 S
C337 C331 1.491 . S
C337 C336 1.418 1_655 S
C337 C338 1.380 1_545 S
C338 H326 0.950 . S
C338 C337 1.380 1_565 S
C338 C339 1.391 . S
C339 H327 0.950 . S
C339 C335 1.372 1_665 S
C339 C338 1.391 . S
H340 C348 0.950 . S
H341 C353 0.950 . S
H342 C350 0.950 . S
H343 C352 0.950 . S
H344 C354 0.950 . S
H345 C356 0.950 . S
H346 C358 0.950 . S
H347 C359 0.950 . S
C348 H340 0.950 . S
C348 C349 1.384 1_455 S
C348 C350 1.391 . S
C349 C348 1.384 1_655 S
C349 C353 1.393 1_565 S
C350 H342 0.950 . S
C350 C348 1.391 . S
C350 C351 1.400 . S
C351 C350 1.400 . S
C351 C352 1.397 1_465 S
C351 C357 1.491 . S
C352 H343 0.950 . S
C352 C351 1.397 1_645 S
C352 C353 1.391 . S
C353 H341 0.950 . S
C353 C349 1.393 1_545 S
C353 C352 1.391 . S
C354 H344 0.950 . S
C354 C355 1.386 1_645 S
C354 C356 1.391 . S
C355 C354 1.386 1_465 S
C355 C359 1.393 . S
C356 H345 0.950 . S
C356 C354 1.391 . S
C356 C357 1.400 1_645 S
C357 C351 1.491 . S
C357 C356 1.400 1_465 S
C357 C358 1.398 . S
C358 H346 0.950 . S
C358 C357 1.398 . S
C358 C359 1.391 . S
C359 H347 0.950 . S
C359 C355 1.393 . S
C359 C358 1.391 . S
H360 C368 0.950 . S
H361 C373 0.950 . S
H362 C370 0.950 . S
H363 C372 0.950 . S
H364 C374 0.950 . S
H365 C376 0.950 . S
H366 C378 0.950 . S
H367 C379 0.950 . S
C368 H360 0.950 . S
C368 C369 1.386 . S
C368 C370 1.391 . S
C369 C368 1.386 . S
C369 C373 1.393 . S
C370 H362 0.950 . S
C370 C368 1.391 . S
C370 C371 1.400 . S
C371 C370 1.400 . S
C371 C372 1.398 . S
C371 C377 1.491 . S
C372 H363 0.950 . S
C372 C371 1.398 . S
C372 C373 1.391 . S
C373 H361 0.950 . S
C373 C369 1.393 . S
C373 C372 1.391 . S
C374 H364 0.950 . S
C374 C375 1.386 . S
C374 C376 1.391 . S
C375 C374 1.386 . S
C375 C379 1.393 . S
C376 H365 0.950 . S
C376 C374 1.391 . S
C376 C377 1.400 . S
C377 C371 1.491 . S
C377 C376 1.400 . S
C377 C378 1.398 . S
C378 H366 0.950 . S
C378 C377 1.398 . S
C378 C379 1.391 . S
C379 H367 0.950 . S
C379 C375 1.393 . S
C379 C378 1.391 . S
H380 C388 0.950 . S
H381 C393 0.950 . S
H382 C390 0.950 . S
H383 C392 0.950 . S
H384 C394 0.950 . S
H385 C396 0.950 . S
H386 C398 0.950 . S
H387 C399 0.950 . S
C388 H380 0.950 . S
C388 C389 1.386 . S
C388 C390 1.391 . S
C389 C388 1.386 . S
C389 C393 1.393 . S
C390 H382 0.950 . S
C390 C388 1.391 . S
C390 C391 1.400 . S
C391 C390 1.400 . S
C391 C392 1.398 . S
C391 C397 1.491 . S
C392 H383 0.950 . S
C392 C391 1.398 . S
C392 C393 1.391 . S
C393 H381 0.950 . S
C393 C389 1.393 . S
C393 C392 1.391 . S
C394 H384 0.950 . S
C394 C395 1.386 . S
C394 C396 1.391 . S
C395 C394 1.386 . S
C395 C399 1.393 . S
C396 H385 0.950 . S
C396 C394 1.391 . S
C396 C397 1.400 . S
C397 C391 1.491 . S
C397 C396 1.400 . S
C397 C398 1.398 . S
C398 H386 0.950 . S
C398 C397 1.398 . S
C398 C399 1.391 . S
C399 H387 0.950 . S
C399 C395 1.393 . S
C399 C398 1.391 . S
C169 C90 3.572 1_554 S
C175 C19 3.572 1_556 S
C189 C99 3.579 1_556 S
C195 C10 3.580 1_554 S
C209 C55 0.185 . S
C215 C126 0.184 . S
C229 C46 0.181 . S
C235 C135 0.181 . S
C249 C15 0.936 . S
C255 C6 0.936 . S
C269 C59 4.881 . S
C275 C50 4.873 . S
C289 C95 0.960 . S
C295 C86 0.960 . S
C309 C130 4.872 . S
C315 C139 4.872 . S
C329 C49 1.459 1_645 S
C335 C18 1.455 . S
C349 C9 1.447 . S
C355 C58 1.451 1_465 S
C369 C129 1.456 . S
C375 C98 1.462 . S
C389 C138 1.438 . S
C395 C89 1.443 . S
