# Generated by pormake.
# Topology sod, (4)-cn, num edge types: 1
# Building blocks:
#     Node 0, Type 0, BuildingBlock: GALJAG_clean_sbu_0, # of connection points: 4
#     Node 1, Type 0, BuildingBlock: GALJAG_clean_sbu_0, # of connection points: 4
#     Node 2, Type 0, BuildingBlock: GALJAG_clean_sbu_0, # of connection points: 4
#     Node 3, Type 0, BuildingBlock: GALJAG_clean_sbu_0, # of connection points: 4
#     Node 4, Type 0, BuildingBlock: GALJAG_clean_sbu_0, # of connection points: 4
#     Node 5, Type 0, BuildingBlock: GALJAG_clean_sbu_0, # of connection points: 4
#     Node 6, Type 0, BuildingBlock: GALJAG_clean_sbu_0, # of connection points: 4
#     Node 7, Type 0, BuildingBlock: GALJAG_clean_sbu_0, # of connection points: 4
#     Node 8, Type 0, BuildingBlock: GALJAG_clean_sbu_0, # of connection points: 4
#     Node 9, Type 0, BuildingBlock: GALJAG_clean_sbu_0, # of connection points: 4
#     Node 10, Type 0, BuildingBlock: GALJAG_clean_sbu_0, # of connection points: 4
#     Node 11, Type 0, BuildingBlock: GALJAG_clean_sbu_0, # of connection points: 4
#     Edge 12, Type (0, 0), BuildingBlock: UVAHIK_clean_linker_0, # of connection points: 2
#     Edge 13, Type (0, 0), BuildingBlock: UVAHIK_clean_linker_0, # of connection points: 2
#     Edge 14, Type (0, 0), BuildingBlock: UVAHIK_clean_linker_0, # of connection points: 2
#     Edge 15, Type (0, 0), BuildingBlock: UVAHIK_clean_linker_0, # of connection points: 2
#     Edge 16, Type (0, 0), BuildingBlock: UVAHIK_clean_linker_0, # of connection points: 2
#     Edge 17, Type (0, 0), BuildingBlock: UVAHIK_clean_linker_0, # of connection points: 2
#     Edge 18, Type (0, 0), BuildingBlock: UVAHIK_clean_linker_0, # of connection points: 2
#     Edge 19, Type (0, 0), BuildingBlock: UVAHIK_clean_linker_0, # of connection points: 2
#     Edge 20, Type (0, 0), BuildingBlock: UVAHIK_clean_linker_0, # of connection points: 2
#     Edge 21, Type (0, 0), BuildingBlock: UVAHIK_clean_linker_0, # of connection points: 2
#     Edge 22, Type (0, 0), BuildingBlock: UVAHIK_clean_linker_0, # of connection points: 2
#     Edge 23, Type (0, 0), BuildingBlock: UVAHIK_clean_linker_0, # of connection points: 2
#     Edge 24, Type (0, 0), BuildingBlock: UVAHIK_clean_linker_0, # of connection points: 2
#     Edge 25, Type (0, 0), BuildingBlock: UVAHIK_clean_linker_0, # of connection points: 2
#     Edge 26, Type (0, 0), BuildingBlock: UVAHIK_clean_linker_0, # of connection points: 2
#     Edge 27, Type (0, 0), BuildingBlock: UVAHIK_clean_linker_0, # of connection points: 2
#     Edge 28, Type (0, 0), BuildingBlock: UVAHIK_clean_linker_0, # of connection points: 2
#     Edge 29, Type (0, 0), BuildingBlock: UVAHIK_clean_linker_0, # of connection points: 2
#     Edge 30, Type (0, 0), BuildingBlock: UVAHIK_clean_linker_0, # of connection points: 2
#     Edge 31, Type (0, 0), BuildingBlock: UVAHIK_clean_linker_0, # of connection points: 2
#     Edge 32, Type (0, 0), BuildingBlock: UVAHIK_clean_linker_0, # of connection points: 2
#     Edge 33, Type (0, 0), BuildingBlock: UVAHIK_clean_linker_0, # of connection points: 2
#     Edge 34, Type (0, 0), BuildingBlock: UVAHIK_clean_linker_0, # of connection points: 2
#     Edge 35, Type (0, 0), BuildingBlock: UVAHIK_clean_linker_0, # of connection points: 2
# Relax obj value: 0.078
# Max RMSD: 0.153
# Mean RMSD: 0.153
data_MOF--net-sod--node1-GALJAG_clean_sbu_0--edge1-UVAHIK_clean_linker_0
_symmetry_space_group_name_H-M    P1
_symmetry_Int_Tables_number       1
_symmetry_cell_setting            triclinic
loop_
_symmetry_equiv_pos_as_xyz
'x, y, z'
_cell_length_a     55.990504
_cell_length_b     55.83473
_cell_length_c     55.923178
_cell_angle_alpha  89.990985
_cell_angle_beta   90.023439
_cell_angle_gamma 90.032037
loop_
_atom_site_label
_atom_site_type_symbol
_atom_site_fract_x
_atom_site_fract_y
_atom_site_fract_z
_atom_type_partial_charge
In0 In -0.00079 0.25028 0.49516 0.0
O1 O 0.97009 0.22826 0.51341 0.0
O2 O 0.97307 0.22572 0.47566 0.0
C3 C -0.00218 0.28202 0.53157 0.0
C4 C 0.0354 0.2183 0.49621 0.0
C5 C 0.00131 0.28179 0.45856 0.0
O6 O 0.97941 0.27579 0.52014 0.0
O7 O 0.01688 0.27217 0.5247 0.0
O8 O 0.01945 0.27578 0.47052 0.0
O9 O 0.98213 0.27184 0.465 0.0
C10 C 0.96233 0.21907 0.49433 0.0
O11 O 0.02796 0.22766 0.47708 0.0
O12 O 0.02466 0.22513 0.51481 0.0
In13 In 0.7506 -0.00132 0.49574 0.0
O14 O 0.72687 0.9792 0.52263 0.0
O15 O 0.72725 0.01721 0.52358 0.0
C16 C 0.78272 0.96258 0.49625 0.0
C17 C 0.71889 -0.00138 0.45932 0.0
C18 C 0.7817 0.03567 0.49498 0.0
O19 O 0.77471 0.97198 0.51512 0.0
O20 O 0.77443 0.97128 0.47717 0.0
O21 O 0.77424 0.02561 0.47622 0.0
O22 O 0.7734 0.02715 0.51415 0.0
C23 C 0.71904 -0.00195 0.53226 0.0
O24 O 0.72657 0.01763 0.46874 0.0
O25 O 0.72727 0.97963 0.46818 0.0
In26 In 0.00213 0.7498 0.49557 0.0
O27 O 0.01938 0.72822 0.52549 0.0
O28 O 0.98184 0.72495 0.52089 0.0
C29 C 0.03973 0.78028 0.49464 0.0
C30 C 0.00153 0.71765 0.45945 0.0
C31 C 0.96589 0.78171 0.49616 0.0
O32 O 0.02886 0.77485 0.5136 0.0
O33 O 0.03177 0.77022 0.4761 0.0
O34 O 0.97612 0.77521 0.47716 0.0
O35 O 0.97385 0.77203 0.51493 0.0
C36 C 0.00017 0.71868 0.53245 0.0
O37 O 0.98442 0.73175 0.46348 0.0
O38 O 0.01901 0.71985 0.47351 0.0
In39 In 0.25051 0.00128 0.4974 0.0
O40 O 0.22765 0.97397 0.47738 0.0
O41 O 0.22747 0.97274 0.51533 0.0
C42 C 0.28244 0.00175 0.46122 0.0
C43 C 0.2181 0.0371 0.49779 0.0
C44 C 0.28166 0.00216 0.5343 0.0
O45 O 0.27486 0.98262 0.47053 0.0
O46 O 0.27387 0.02064 0.4701 0.0
O47 O 0.27368 0.02094 0.52468 0.0
O48 O 0.27387 0.98294 0.52539 0.0
C49 C 0.21978 0.96398 0.49601 0.0
O50 O 0.2253 0.02697 0.51661 0.0
O51 O 0.2273 0.02923 0.47877 0.0
In52 In 0.49967 0.00053 0.24668 0.0
O53 O 0.52658 0.98123 0.27047 0.0
O54 O 0.52735 0.01924 0.27016 0.0
C55 C 0.5015 0.96353 0.21563 0.0
C56 C 0.46315 0.00126 0.27826 0.0
C57 C 0.49822 0.03675 0.21467 0.0
O58 O 0.51989 0.97468 0.22243 0.0
O59 O 0.48219 0.97105 0.22447 0.0
O60 O 0.47977 0.02566 0.22137 0.0
O61 O 0.51738 0.02962 0.22415 0.0
C62 C 0.53612 0.00012 0.27833 0.0
O63 O 0.47279 0.02008 0.27037 0.0
O64 O 0.47181 0.98208 0.27012 0.0
In65 In -0.00244 0.50022 0.24518 0.0
O66 O 0.97183 0.48114 0.21988 0.0
O67 O 0.96689 0.5184 0.2251 0.0
C68 C 0.00075 0.46343 0.27628 0.0
C69 C 0.03426 0.50062 0.21378 0.0
C70 C -0.00386 0.53649 0.27714 0.0
O71 O 0.98172 0.46861 0.26537 0.0
O72 O 0.01832 0.47676 0.27142 0.0
O73 O 0.01308 0.53383 0.26253 0.0
O74 O 0.97983 0.52099 0.27554 0.0
C75 C 0.95993 0.49959 0.21478 0.0
O76 O 0.02272 0.5192 0.21927 0.0
O77 O 0.0274 0.48182 0.22422 0.0
In78 In 0.50114 -0.00179 0.74629 0.0
O79 O 0.52845 0.0168 0.7223 0.0
O80 O 0.52811 0.97882 0.72253 0.0
C81 C 0.50087 0.03408 0.77873 0.0
C82 C 0.46423 7e-05 0.71524 0.0
C83 C 0.50127 0.96087 0.77703 0.0
O84 O 0.51985 0.02584 0.76982 0.0
O85 O 0.48199 0.02428 0.77124 0.0
O86 O 0.48257 0.96813 0.76676 0.0
O87 O 0.51992 0.97239 0.77176 0.0
C88 C 0.53736 -0.00231 0.71431 0.0
O89 O 0.47309 0.98062 0.72251 0.0
O90 O 0.47394 0.01863 0.72368 0.0
In91 In -0.00195 0.49991 0.74602 0.0
O92 O 0.02523 0.48043 0.76937 0.0
O93 O 0.0262 0.51845 0.76905 0.0
C94 C -0.00273 0.46358 0.71413 0.0
C95 C 0.96211 0.50006 0.77823 0.0
C96 C -0.00213 0.53668 0.71462 0.0
O97 O 0.01642 0.47208 0.72246 0.0
O98 O 0.97853 0.47333 0.72195 0.0
O99 O 0.97898 0.5274 0.72268 0.0
O100 O 0.0169 0.5275 0.7225 0.0
C101 C 0.03498 0.49927 0.77711 0.0
O102 O 0.97137 0.51904 0.77024 0.0
O103 O 0.9709 0.48103 0.76991 0.0
In104 In 0.24813 0.50045 0.99578 0.0
O105 O 0.22553 0.48172 0.02419 0.0
O106 O 0.22341 0.51961 0.02195 0.0
C107 C 0.28023 0.46431 0.9959 0.0
C108 C 0.21662 0.49944 0.9592 0.0
C109 C 0.27909 0.53758 0.99576 0.0
O110 O 0.27241 0.47372 0.01484 0.0
O111 O 0.27179 0.47305 0.9769 0.0
O112 O 0.27166 0.52791 0.97679 0.0
O113 O 0.27089 0.52856 0.01474 0.0
C114 C 0.21645 0.50075 0.03222 0.0
O115 O 0.22514 0.51865 0.96744 0.0
O116 O 0.22406 0.4807 0.96934 0.0
In117 In 0.49813 0.24996 0.99549 0.0
O118 O 0.5163 0.22747 0.02433 0.0
O119 O 0.47853 0.22541 0.02157 0.0
C120 C 0.53468 0.28159 0.99534 0.0
C121 C 0.49895 0.21797 0.95924 0.0
C122 C 0.46178 0.2818 0.99552 0.0
O123 O 0.52522 0.27398 0.01434 0.0
O124 O 0.52582 0.27314 0.9764 0.0
O125 O 0.47098 0.27388 0.97652 0.0
O126 O 0.47081 0.27355 0.01447 0.0
C127 C 0.49717 0.21846 0.03216 0.0
O128 O 0.47984 0.22683 0.96724 0.0
O129 O 0.51767 0.22538 0.9694 0.0
In130 In 0.74758 0.50125 0.99564 0.0
O131 O 0.72503 0.47285 0.97694 0.0
O132 O 0.72191 0.47573 0.01467 0.0
C133 C 0.77987 0.50115 0.95971 0.0
C134 C 0.71686 0.53852 0.99456 0.0
C135 C 0.7782 0.5002 0.03296 0.0
O136 O 0.77238 0.48223 0.96945 0.0
O137 O 0.77101 0.52016 0.96799 0.0
O138 O 0.77124 0.51944 0.02344 0.0
O139 O 0.76964 0.48145 0.02373 0.0
C140 C 0.71532 0.46523 0.99581 0.0
O141 O 0.72715 0.53175 0.01346 0.0
O142 O 0.72209 0.52652 0.97619 0.0
In143 In 0.49745 0.75038 -0.00194 0.0
O144 O 0.46798 0.72889 0.01606 0.0
O145 O 0.46807 0.73001 0.9781 0.0
C146 C 0.50066 0.77878 0.03702 0.0
C147 C 0.53478 0.71963 -0.00081 0.0
C148 C 0.49507 0.78075 0.96042 0.0
O149 O 0.481 0.77213 0.02825 0.0
O150 O 0.51885 0.77088 0.0263 0.0
O151 O 0.50325 0.75979 0.95857 0.0
O152 O 0.48783 0.78616 0.98104 0.0
C153 C 0.45823 0.72221 -0.00314 0.0
O154 O 0.53655 0.74054 0.99083 0.0
O155 O 0.5144 0.71445 0.00718 0.0
C156 C 0.02395 0.31089 0.43318 0.0
C157 C 0.0024 0.29929 0.43879 0.0
C158 C 0.02485 0.3278 0.41477 0.0
C159 C 0.99293 0.34794 0.36061 0.0
H160 H 0.02667 0.40764 0.37141 0.0
C161 C 0.98182 0.42977 0.29881 0.0
C162 C 0.00214 0.44361 0.29372 0.0
C163 C 0.98286 0.4114 0.31572 0.0
C164 C 0.01746 0.39093 0.36796 0.0
H165 H 0.96494 0.29612 0.42945 0.0
H166 H 0.96648 0.32571 0.39738 0.0
H167 H 0.02667 0.37689 0.40237 0.0
H168 H 0.03958 0.44892 0.3021 0.0
H169 H 0.04148 0.41663 0.33151 0.0
H170 H 0.98362 0.362 0.32625 0.0
C171 C 0.98274 0.32159 0.40705 0.0
C172 C 0.01745 0.37332 0.38572 0.0
C173 C 0.98182 0.30475 0.42551 0.0
C174 C 0.0236 0.43858 0.30571 0.0
C175 C 0.02465 0.42018 0.32265 0.0
C176 C 0.99299 0.36553 0.34284 0.0
C177 C 0.00424 0.33338 0.40154 0.0
C178 C 0.00502 0.35171 0.38231 0.0
C179 C 0.00426 0.40644 0.32791 0.0
C180 C 0.00508 0.38731 0.34638 0.0
H181 H 0.04011 0.30699 0.44309 0.0
H182 H 0.04174 0.33639 0.41079 0.0
H183 H 0.98352 0.33131 0.35729 0.0
H184 H 0.965 0.43328 0.28989 0.0
H185 H 0.96674 0.4014 0.31959 0.0
C186 C 0.69272 0.97688 0.43026 0.0
C187 C 0.70119 -0.00142 0.43973 0.0
C188 C 0.67557 0.97685 0.41211 0.0
C189 C 0.64889 0.01486 0.36508 0.0
H190 H 0.59622 0.96993 0.36931 0.0
C191 C 0.56544 0.02134 0.30464 0.0
C192 C 0.5558 -0.00018 0.29591 0.0
C193 C 0.58375 0.02103 0.32162 0.0
C194 C 0.61097 0.98239 0.36769 0.0
H195 H 0.69852 0.03726 0.43753 0.0
H196 H 0.66843 0.03721 0.40595 0.0
H197 H 0.62724 0.96962 0.39988 0.0
H198 H 0.55793 0.9611 0.29787 0.0
H199 H 0.59007 0.96053 0.32733 0.0
H200 H 0.63256 0.02768 0.33292 0.0
C201 C 0.67522 0.02022 0.41237 0.0
C202 C 0.62875 0.98221 0.38522 0.0
C203 C 0.69235 0.02025 0.43055 0.0
C204 C 0.56495 0.97798 0.30434 0.0
C205 C 0.58326 0.97766 0.32131 0.0
C206 C 0.63111 0.01503 0.34753 0.0
C207 C 0.66654 -0.00148 0.40303 0.0
C208 C 0.64788 -0.00152 0.38415 0.0
C209 C 0.59281 -0.00082 0.33023 0.0
C210 C 0.61192 -0.00118 0.34867 0.0
H211 H 0.69927 0.9599 0.43694 0.0
H212 H 0.66947 0.95983 0.40508 0.0
H213 H 0.66358 0.0274 0.36357 0.0
H214 H 0.55869 0.03845 0.2985 0.0
H215 H 0.59051 0.03792 0.32833 0.0
C216 C 0.97972 0.55492 0.31439 0.0
C217 C 0.99572 0.55588 0.29507 0.0
C218 C 0.97993 0.5728 0.33187 0.0
C219 C -0.00394 0.63521 0.34279 0.0
H220 H -0.00026 0.61638 0.40948 0.0
C221 C 0.98349 0.70092 0.4221 0.0
C222 C 0.00097 0.69971 0.44009 0.0
C223 C 0.98279 0.68373 0.40394 0.0
C224 C -0.00125 0.62186 0.39093 0.0
H225 H 0.02412 0.57646 0.27857 0.0
H226 H 0.02414 0.60801 0.30893 0.0
H227 H -0.00182 0.58561 0.37835 0.0
H228 H 0.03136 0.6796 0.45328 0.0
H229 H 0.02983 0.64928 0.42176 0.0
H230 H -0.00357 0.67148 0.35542 0.0
C231 C 0.01156 0.59335 0.31058 0.0
C232 C -0.00231 0.6043 0.37316 0.0
C233 C 0.01162 0.57527 0.2933 0.0
C234 C 0.01771 0.68099 0.43962 0.0
C235 C 0.01678 0.6636 0.42168 0.0
C236 C -0.00327 0.65278 0.36059 0.0
C237 C -0.00412 0.59216 0.33014 0.0
C238 C -0.00354 0.61082 0.34893 0.0
C239 C -0.00068 0.66482 0.40368 0.0
C240 C -0.00176 0.64626 0.3848 0.0
H241 H 0.96729 0.54016 0.31621 0.0
H242 H 0.96755 0.57157 0.3467 0.0
H243 H 0.995 0.64068 0.32423 0.0
H244 H 0.97037 0.71518 0.42203 0.0
H245 H 0.96906 0.68497 0.39034 0.0
C246 C 0.30844 0.02379 0.43225 0.0
C247 C 0.30011 0.00199 0.44161 0.0
C248 C 0.32542 0.02402 0.41394 0.0
C249 C 0.35138 0.98645 0.36622 0.0
H250 H 0.40409 0.03139 0.3699 0.0
C251 C 0.43392 0.98011 0.30468 0.0
C252 C 0.44357 0.00163 0.29595 0.0
C253 C 0.4158 0.98044 0.32185 0.0
C254 C 0.38932 0.01894 0.36843 0.0
H255 H 0.30288 0.96334 0.43911 0.0
H256 H 0.33264 0.96373 0.40725 0.0
H257 H 0.37357 0.03147 0.40096 0.0
H258 H 0.44166 0.04035 0.29808 0.0
H259 H 0.40984 0.04094 0.32788 0.0
H260 H 0.36718 0.97387 0.33373 0.0
C261 C 0.32589 0.98065 0.41387 0.0
C262 C 0.37184 0.01898 0.38625 0.0
C263 C 0.30895 0.98043 0.43221 0.0
C264 C 0.43461 0.02348 0.30455 0.0
C265 C 0.41649 0.02381 0.32171 0.0
C266 C 0.36886 0.98642 0.34839 0.0
C267 C 0.33438 0.00245 0.40458 0.0
C268 C 0.35271 0.00268 0.38539 0.0
C269 C 0.40694 0.00229 0.33065 0.0
C270 C 0.38808 0.00262 0.34933 0.0
H271 H 0.3019 0.0407 0.43911 0.0
H272 H 0.33138 0.04111 0.40697 0.0
H273 H 0.33668 0.97391 0.36486 0.0
H274 H 0.44052 0.96299 0.29842 0.0
H275 H 0.40906 0.96355 0.32857 0.0
C276 C 0.01922 0.56654 0.68901 0.0
C277 C -0.00229 0.55644 0.69707 0.0
C278 C 0.01905 0.58491 0.67203 0.0
C279 C 0.98193 0.61088 0.62432 0.0
H280 H 0.0244 0.66539 0.63066 0.0
C281 C 0.97749 0.69157 0.55993 0.0
C282 C -0.00065 0.70121 0.55226 0.0
C283 C 0.97684 0.67462 0.57831 0.0
C284 C 0.0126 0.65017 0.6285 0.0
H285 H 0.95913 0.55774 0.69387 0.0
H286 H 0.95882 0.58987 0.66427 0.0
H287 H 0.02421 0.63441 0.66142 0.0
H288 H 0.03768 0.70077 0.55784 0.0
H289 H 0.03661 0.67095 0.58964 0.0
H290 H 0.97051 0.62643 0.59129 0.0
C291 C 0.97583 0.58345 0.67091 0.0
C292 C 0.01249 0.63244 0.64613 0.0
C293 C 0.97601 0.56515 0.68794 0.0
C294 C 0.02054 0.69371 0.56344 0.0
C295 C 0.0199 0.67673 0.58176 0.0
C296 C 0.9821 0.62857 0.60665 0.0
C297 C -0.00264 0.59348 0.6627 0.0
C298 C -0.0028 0.61257 0.64421 0.0
C299 C -0.00194 0.6669 0.58937 0.0
C300 C -0.00251 0.64839 0.60848 0.0
H301 H 0.03623 0.56016 0.6957 0.0
H302 H 0.03594 0.59209 0.66587 0.0
H303 H 0.97019 0.59561 0.62215 0.0
H304 H 0.96086 0.69709 0.5517 0.0
H305 H 0.95969 0.66767 0.58396 0.0
C306 C 0.43407 0.97975 0.68925 0.0
C307 C 0.44427 0.001 0.698 0.0
C308 C 0.41548 0.98056 0.6726 0.0
C309 C 0.3885 0.01971 0.627 0.0
H310 H 0.33533 0.97541 0.63156 0.0
C311 C 0.30751 0.02451 0.56319 0.0
C312 C 0.29903 0.00262 0.55418 0.0
C313 C 0.32437 0.02492 0.58163 0.0
C314 C 0.35016 0.98776 0.62992 0.0
H315 H 0.44287 0.03977 0.69641 0.0
H316 H 0.41026 0.04121 0.66743 0.0
H317 H 0.36632 0.97507 0.66222 0.0
H318 H 0.30135 0.96401 0.55749 0.0
H319 H 0.33092 0.9647 0.58952 0.0
H320 H 0.37247 0.03226 0.5946 0.0
C321 C 0.41682 0.02391 0.67324 0.0
C322 C 0.36791 0.98757 0.64749 0.0
C323 C 0.4354 0.02309 0.68992 0.0
C324 C 0.30754 0.98116 0.56411 0.0
C325 C 0.32436 0.98156 0.58256 0.0
C326 C 0.37076 0.0199 0.60943 0.0
C327 C 0.4067 0.00265 0.66433 0.0
C328 C 0.38737 0.00343 0.64614 0.0
C329 C 0.33306 0.00345 0.59146 0.0
C330 C 0.35146 0.00381 0.6106 0.0
H331 H 0.44057 0.96245 0.69512 0.0
H332 H 0.4083 0.96385 0.66587 0.0
H333 H 0.40343 0.03193 0.62525 0.0
H334 H 0.30122 0.04135 0.55593 0.0
H335 H 0.33049 0.04208 0.58829 0.0
C336 C 0.97547 0.31003 0.55835 0.0
C337 C -0.00282 0.29966 0.55122 0.0
C338 C 0.97496 0.32704 0.57668 0.0
C339 C 0.01011 0.35008 0.62785 0.0
H340 H 0.97008 0.40625 0.6204 0.0
C341 C 0.01816 0.4331 0.68892 0.0
C342 C -0.00317 0.444 0.69639 0.0
C343 C 0.01776 0.41485 0.67183 0.0
C344 C 0.98114 0.39053 0.62288 0.0
H345 H 0.03535 0.29885 0.55771 0.0
H346 H 0.03452 0.32874 0.58947 0.0
H347 H 0.97017 0.37554 0.58943 0.0
H348 H 0.95835 0.44427 0.69199 0.0
H349 H 0.95765 0.41235 0.66218 0.0
H350 H 0.02125 0.36525 0.6612 0.0
C351 C 0.01784 0.32352 0.58117 0.0
C352 C 0.98117 0.37292 0.60514 0.0
C353 C 0.01834 0.3065 0.56287 0.0
C354 C 0.97508 0.43623 0.68654 0.0
C355 C 0.97469 0.41804 0.66938 0.0
C356 C 0.01012 0.36774 0.64555 0.0
C357 C -0.00385 0.33405 0.58824 0.0
C358 C 0.99572 0.35252 0.60737 0.0
C359 C -0.00396 0.40719 0.66179 0.0
C360 C 0.99569 0.38819 0.64323 0.0
H361 H 0.95886 0.30504 0.54975 0.0
H362 H 0.95792 0.33457 0.58191 0.0
H363 H 0.02123 0.33441 0.63031 0.0
H364 H 0.03519 0.43875 0.69618 0.0
H365 H 0.03453 0.40703 0.66616 0.0
C366 C 0.56658 0.01899 0.68801 0.0
C367 C 0.55684 -0.00257 0.69651 0.0
C368 C 0.58473 0.01878 0.67086 0.0
C369 C 0.61114 0.98086 0.62384 0.0
H370 H 0.66446 0.02495 0.62881 0.0
C371 C 0.69241 0.9759 0.56056 0.0
C372 C 0.70135 -0.00228 0.55184 0.0
C373 C 0.67528 0.9756 0.57873 0.0
C374 C 0.64957 0.01269 0.62704 0.0
H375 H 0.55853 0.95873 0.6939 0.0
H376 H 0.59034 0.95833 0.66406 0.0
H377 H 0.63363 0.0249 0.65962 0.0
H378 H 0.69948 0.03635 0.55533 0.0
H379 H 0.66943 0.03586 0.5869 0.0
H380 H 0.62699 0.96874 0.59121 0.0
C381 C 0.58378 0.97541 0.67045 0.0
C382 C 0.63191 0.01266 0.6447 0.0
C383 C 0.56567 0.97564 0.68763 0.0
C384 C 0.69297 0.01924 0.56175 0.0
C385 C 0.67585 0.01896 0.57992 0.0
C386 C 0.62879 0.9809 0.60618 0.0
C387 C 0.59348 -0.00301 0.66182 0.0
C388 C 0.61246 -0.00322 0.64326 0.0
C389 C 0.66674 -0.00287 0.58856 0.0
C390 C 0.64818 -0.00315 0.60755 0.0
H391 H 0.56009 0.03607 0.69449 0.0
H392 H 0.59161 0.03571 0.66437 0.0
H393 H 0.5962 0.96867 0.62201 0.0
H394 H 0.69859 0.95901 0.55331 0.0
H395 H 0.66886 0.95849 0.5852 0.0
C396 C 0.43317 0.30831 0.01734 0.0
C397 C 0.4423 0.29962 0.99562 0.0
C398 C 0.41511 0.32558 0.01747 0.0
C399 C 0.36764 0.35207 0.97999 0.0
H400 H 0.37232 0.40501 0.02463 0.0
C401 C 0.30652 0.43524 0.97436 0.0
C402 C 0.29805 0.44482 -0.00403 0.0
C403 C 0.32369 0.41707 0.97442 0.0
C404 C 0.37058 0.39019 0.01226 0.0
H405 H 0.43961 0.30202 0.95702 0.0
H406 H 0.40817 0.3323 0.95724 0.0
H407 H 0.403 0.37407 0.02455 0.0
H408 H 0.30071 0.44277 0.03459 0.0
H409 H 0.3305 0.4109 0.03472 0.0
H410 H 0.33524 0.36825 0.96766 0.0
C411 C 0.41479 0.3256 0.97417 0.0
C412 C 0.38817 0.37246 0.01221 0.0
C413 C 0.43288 0.30836 0.97404 0.0
C414 C 0.30696 0.43579 0.01765 0.0
C415 C 0.32413 0.41763 0.01771 0.0
C416 C 0.35004 0.36981 0.98005 0.0
C417 C 0.40578 0.33449 0.99589 0.0
C418 C 0.38693 0.35321 -0.00394 0.0
C419 C 0.33275 0.40811 -0.0039 0.0
C420 C 0.35132 0.3891 -0.00384 0.0
H421 H 0.44003 0.30185 0.03426 0.0
H422 H 0.40834 0.33182 0.03451 0.0
H423 H 0.36599 0.3373 0.96755 0.0
H424 H 0.30002 0.44189 0.95736 0.0
H425 H 0.33016 0.41034 0.95745 0.0
C426 C 0.3041 0.56768 0.01744 0.0
C427 C 0.2962 0.55772 0.99578 0.0
C428 C 0.32062 0.58644 0.01749 0.0
C429 C 0.34635 0.63407 0.97946 0.0
H430 H 0.39819 0.63194 0.0254 0.0
C431 C 0.42867 0.69682 0.97475 0.0
C432 C 0.43779 0.70549 -0.00351 0.0
C433 C 0.41036 0.67976 0.97459 0.0
C434 C 0.38365 0.63299 0.01266 0.0
H435 H 0.29923 0.55967 0.95717 0.0
H436 H 0.32826 0.59231 0.95726 0.0
H437 H 0.36829 0.60028 0.02529 0.0
H438 H 0.43446 0.70368 0.03508 0.0
H439 H 0.40237 0.67419 0.03481 0.0
H440 H 0.36187 0.66676 0.96676 0.0
C441 C 0.32149 0.58581 0.9742 0.0
C442 C 0.36651 0.61483 0.01259 0.0
C443 C 0.30498 0.56702 0.97415 0.0
C444 C 0.42788 0.69724 0.01804 0.0
C445 C 0.4096 0.68022 0.01789 0.0
C446 C 0.36352 0.65227 0.97953 0.0
C447 C 0.3296 0.59564 0.99588 0.0
C448 C 0.34766 0.61514 -0.004 0.0
C449 C 0.40084 0.67105 -0.00382 0.0
C450 C 0.38237 0.65193 -0.00385 0.0
H451 H 0.29757 0.56094 0.03439 0.0
H452 H 0.32626 0.59383 0.03449 0.0
H453 H 0.33188 0.63498 0.96664 0.0
H454 H 0.436 0.70283 0.95786 0.0
H455 H 0.40415 0.6729 0.95757 0.0
C456 C 0.56436 0.3071 0.97364 0.0
C457 C 0.55424 0.29936 0.99528 0.0
C458 C 0.58244 0.32437 0.97357 0.0
C459 C 0.62779 0.35312 0.01235 0.0
H460 H 0.62565 0.40342 0.96458 0.0
C461 C 0.68745 0.43751 0.01725 0.0
C462 C 0.69755 0.44566 0.99575 0.0
C463 C 0.67045 0.41916 0.01711 0.0
C464 C 0.62666 0.38935 0.97787 0.0
H465 H 0.55519 0.30348 0.03382 0.0
H466 H 0.58654 0.33382 0.0337 0.0
H467 H 0.59523 0.3722 0.96444 0.0
H468 H 0.69795 0.44091 0.95727 0.0
H469 H 0.66838 0.4088 0.95703 0.0
H470 H 0.65915 0.37042 0.02587 0.0
C471 C 0.58076 0.32634 0.01679 0.0
C472 C 0.60924 0.37143 0.97778 0.0
C473 C 0.5627 0.30905 0.01686 0.0
C474 C 0.69041 0.43505 0.97412 0.0
C475 C 0.67339 0.41675 0.97397 0.0
C476 C 0.6452 0.37107 0.01246 0.0
C477 C 0.59077 0.33429 0.99514 0.0
C478 C 0.60956 0.35312 0.99504 0.0
C479 C 0.66317 0.40863 0.99546 0.0
C480 C 0.64481 0.3894 0.99524 0.0
H481 H 0.55826 0.29988 0.95673 0.0
H482 H 0.59 0.32984 0.9566 0.0
H483 H 0.62877 0.33908 0.02568 0.0
H484 H 0.69258 0.44539 0.03419 0.0
H485 H 0.66272 0.41349 0.03393 0.0
C486 C 0.69629 0.57289 0.01447 0.0
C487 C 0.69973 0.5586 0.99409 0.0
C488 C 0.67959 0.59149 0.01424 0.0
C489 C 0.62439 0.6101 0.98465 0.0
H490 H 0.63812 0.6723 0.01237 0.0
C491 C 0.55058 0.67841 0.00597 0.0
C492 C 0.55463 0.70224 -0.00101 0.0
C493 C 0.56897 0.66158 0.00496 0.0
C494 C 0.6341 0.65506 0.00445 0.0
H495 H 0.68865 0.55271 0.95741 0.0
H496 H 0.65932 0.58509 0.95707 0.0
H497 H 0.66946 0.64179 0.01081 0.0
H498 H 0.58118 0.72726 0.98586 0.0
H499 H 0.6135 0.69777 0.98427 0.0
H500 H 0.58904 0.62325 0.9784 0.0
C501 C 0.66949 0.58186 0.97323 0.0
C502 C 0.65195 0.63757 0.00372 0.0
C503 C 0.68634 0.5634 0.9734 0.0
C504 C 0.57756 0.70901 0.99135 0.0
C505 C 0.59605 0.69218 0.99052 0.0
C506 C 0.60651 0.62749 0.98558 0.0
C507 C 0.66586 0.596 0.9937 0.0
C508 C 0.64724 0.61488 0.99388 0.0
C509 C 0.59186 0.66824 -0.00289 0.0
C510 C 0.61113 0.65011 0.99559 0.0
H511 H 0.70639 0.56962 0.03067 0.0
H512 H 0.67701 0.60195 0.03034 0.0
H513 H 0.62018 0.59272 0.97714 0.0
H514 H 0.5331 0.67267 0.01198 0.0
H515 H 0.5653 0.64334 0.01044 0.0
C516 C 0.48833 0.82194 0.94448 0.0
C517 C 0.49481 0.79799 0.9404 0.0
C518 C 0.48916 0.83866 0.92595 0.0
C519 C 0.48851 0.84505 0.86069 0.0
H520 H 0.51793 0.90658 0.87385 0.0
C521 C 0.48045 0.92722 0.79798 0.0
C522 C 0.50124 0.94081 0.79424 0.0
C523 C 0.48022 0.90871 0.8148 0.0
C524 C 0.50981 0.88943 0.86985 0.0
H525 H 0.50676 0.77262 0.91362 0.0
H526 H 0.50801 0.80192 0.88106 0.0
H527 H 0.51623 0.87624 0.9052 0.0
H528 H 0.53819 0.9455 0.80489 0.0
H529 H 0.53774 0.91326 0.83441 0.0
H530 H 0.48202 0.85836 0.82531 0.0
C531 C 0.50231 0.8077 0.89865 0.0
C532 C 0.50863 0.87216 0.88786 0.0
C533 C 0.50168 0.79097 0.91727 0.0
C534 C 0.52188 0.93536 0.80743 0.0
C535 C 0.5216 0.91699 0.82439 0.0
C536 C 0.48948 0.86244 0.84271 0.0
C537 C 0.49631 0.83177 0.90289 0.0
C538 C 0.49789 0.84983 0.88351 0.0
C539 C 0.50073 0.90357 0.82836 0.0
C540 C 0.50012 0.88482 0.84714 0.0
H541 H 0.48292 0.82788 0.96211 0.0
H542 H 0.48414 0.85702 0.92967 0.0
H543 H 0.48002 0.82803 0.85688 0.0
H544 H 0.46427 0.93101 0.78804 0.0
H545 H 0.46382 0.89881 0.81763 0.0
C546 C 0.19 0.47712 0.931 0.0
C547 C 0.19908 0.49898 0.93948 0.0
C548 C 0.17305 0.47674 0.91264 0.0
C549 C 0.14805 0.51348 0.86359 0.0
H550 H 0.09415 0.47016 0.8689 0.0
C551 C 0.06493 0.52039 0.80277 0.0
C552 C 0.05478 0.4989 0.79456 0.0
C553 C 0.08325 0.52005 0.81974 0.0
C554 C 0.10925 0.48214 0.86699 0.0
H555 H 0.19768 0.53757 0.93536 0.0
H556 H 0.16793 0.53693 0.9035 0.0
H557 H 0.12485 0.47016 0.8998 0.0
H558 H 0.05601 0.4602 0.79743 0.0
H559 H 0.08813 0.45958 0.82694 0.0
H560 H 0.13233 0.52557 0.83085 0.0
C561 C 0.1741 0.52006 0.91079 0.0
C562 C 0.12685 0.48214 0.8847 0.0
C563 C 0.19104 0.52044 0.92914 0.0
C564 C 0.06344 0.47706 0.80348 0.0
C565 C 0.08174 0.47671 0.82048 0.0
C566 C 0.13044 0.51349 0.84588 0.0
C567 C 0.16484 0.49821 0.90239 0.0
C568 C 0.14641 0.49787 0.88326 0.0
C569 C 0.09178 0.49821 0.82889 0.0
C570 C 0.11079 0.49788 0.84742 0.0
H571 H 0.19593 0.46029 0.93858 0.0
H572 H 0.1665 0.4596 0.90637 0.0
H573 H 0.16309 0.52555 0.86176 0.0
H574 H 0.05857 0.53751 0.79624 0.0
H575 H 0.09041 0.53693 0.82605 0.0
C576 C 0.5224 0.0629 0.80535 0.0
C577 C 0.50079 0.05352 0.79664 0.0
C578 C 0.52236 0.0811 0.8225 0.0
C579 C 0.48469 0.12888 0.84797 0.0
H580 H 0.52855 0.12499 0.90151 0.0
C581 C 0.47793 0.19159 0.92983 0.0
C582 C 0.49935 0.2 0.93986 0.0
C583 C 0.47827 0.17415 0.91191 0.0
C584 C 0.5164 0.12652 0.88652 0.0
H585 H 0.46221 0.05587 0.79896 0.0
H586 H 0.46214 0.08762 0.82898 0.0
H587 H 0.52885 0.09376 0.87106 0.0
H588 H 0.53793 0.19698 0.93884 0.0
H589 H 0.53857 0.16676 0.90734 0.0
H590 H 0.47225 0.16166 0.86339 0.0
C591 C 0.4791 0.08105 0.8224 0.0
C592 C 0.51656 0.10861 0.86908 0.0
C593 C 0.47915 0.06278 0.80532 0.0
C594 C 0.52113 0.19078 0.93149 0.0
C595 C 0.52148 0.17336 0.91355 0.0
C596 C 0.48456 0.14684 0.86538 0.0
C597 C 0.50071 0.09037 0.83124 0.0
C598 C 0.50068 0.10955 0.84964 0.0
C599 C 0.50005 0.16475 0.90362 0.0
C600 C 0.50038 0.14585 0.8849 0.0
H601 H 0.53936 0.05614 0.79896 0.0
H602 H 0.5393 0.08809 0.82875 0.0
H603 H 0.47246 0.1303 0.83302 0.0
H604 H 0.46086 0.19831 0.93598 0.0
H605 H 0.46143 0.16771 0.90487 0.0
C606 C 0.93333 0.52183 0.80462 0.0
C607 C 0.94272 0.50012 0.79612 0.0
C608 C 0.91523 0.52188 0.82182 0.0
C609 C 0.88852 0.4844 0.869 0.0
H610 H 0.83537 0.52861 0.86379 0.0
C611 C 0.807 0.47926 0.93176 0.0
C612 C 0.79782 0.50101 0.94036 0.0
C613 C 0.82429 0.47909 0.91375 0.0
C614 C 0.85023 0.51633 0.86563 0.0
H615 H 0.94045 0.46145 0.79878 0.0
H616 H 0.90875 0.46151 0.82871 0.0
H617 H 0.86629 0.52842 0.83306 0.0
H618 H 0.79942 0.53965 0.93685 0.0
H619 H 0.82981 0.53939 0.90558 0.0
H620 H 0.87257 0.47238 0.90161 0.0
C621 C 0.91554 0.4785 0.82229 0.0
C622 C 0.86793 0.51622 0.84802 0.0
C623 C 0.9336 0.47846 0.80505 0.0
C624 C 0.80614 0.5226 0.93052 0.0
C625 C 0.82344 0.52244 0.91251 0.0
C626 C 0.87084 0.48453 0.88661 0.0
C627 C 0.9062 0.50021 0.83091 0.0
C628 C 0.88728 0.50025 0.84951 0.0
C629 C 0.83278 0.50068 0.90398 0.0
C630 C 0.85149 0.50049 0.88515 0.0
H631 H 0.94005 0.53881 0.79809 0.0
H632 H 0.90859 0.5389 0.8283 0.0
H633 H 0.90339 0.47214 0.87086 0.0
H634 H 0.80086 0.46233 0.93895 0.0
H635 H 0.83086 0.46202 0.90735 0.0
C636 C 0.51862 0.06792 0.18989 0.0
C637 C 0.49749 0.05634 0.19694 0.0
C638 C 0.518 0.0862 0.17283 0.0
C639 C 0.48114 0.10998 0.12358 0.0
H640 H 0.52095 0.16635 0.131 0.0
C641 C 0.47497 0.19079 0.05943 0.0
C642 C 0.49668 0.2009 0.0519 0.0
C643 C 0.47456 0.17378 0.07777 0.0
C644 C 0.50989 0.15062 0.12857 0.0
H645 H 0.45912 0.05494 0.19187 0.0
H646 H 0.458 0.08701 0.16222 0.0
H647 H 0.5211 0.13553 0.16192 0.0
H648 H 0.53496 0.20131 0.05776 0.0
H649 H 0.53427 0.17151 0.08966 0.0
H650 H 0.47002 0.125 0.09018 0.0
C651 C 0.47509 0.08177 0.16965 0.0
C652 C 0.50998 0.13296 0.14628 0.0
C653 C 0.47571 0.06349 0.18672 0.0
C654 C 0.51794 0.19385 0.06321 0.0
C655 C 0.51753 0.17688 0.08158 0.0
C656 C 0.48104 0.12764 0.10588 0.0
C657 C 0.49624 0.09329 0.16245 0.0
C658 C 0.49569 0.11237 0.14394 0.0
C659 C 0.49584 0.16658 0.089 0.0
C660 C 0.4955 0.14811 0.10812 0.0
H661 H 0.53568 0.06276 0.19742 0.0
H662 H 0.53465 0.09449 0.16746 0.0
H663 H 0.4702 0.09418 0.12105 0.0
H664 H 0.45828 0.19593 0.05108 0.0
H665 H 0.45753 0.1664 0.08326 0.0
C666 C 0.92864 0.52061 0.19069 0.0
C667 C 0.93983 0.49922 0.19769 0.0
C668 C 0.91016 0.52028 0.17388 0.0
C669 C 0.88499 0.4829 0.12544 0.0
H670 H 0.83063 0.52548 0.13144 0.0
C671 C 0.80393 0.47776 0.06187 0.0
C672 C 0.79536 0.49967 0.05301 0.0
C673 C 0.82072 0.47731 0.08036 0.0
C674 C 0.84579 0.5136 0.12945 0.0
H675 H 0.94014 0.46068 0.19301 0.0
H676 H 0.90763 0.46003 0.16402 0.0
H677 H 0.86137 0.52532 0.16239 0.0
H678 H 0.79737 0.53828 0.05674 0.0
H679 H 0.82672 0.53749 0.08901 0.0
H680 H 0.86939 0.47118 0.09252 0.0
C681 C 0.9134 0.47712 0.17113 0.0
C682 C 0.86343 0.51353 0.14715 0.0
C683 C 0.93194 0.47747 0.18785 0.0
C684 C 0.80365 0.52111 0.06321 0.0
C685 C 0.82035 0.52066 0.08178 0.0
C686 C 0.86732 0.48289 0.10782 0.0
C687 C 0.90241 0.49855 0.16378 0.0
C688 C 0.8833 0.49825 0.14531 0.0
C689 C 0.82919 0.49876 0.09044 0.0
C690 C 0.84758 0.49832 0.10956 0.0
H691 H 0.9344 0.53765 0.19794 0.0
H692 H 0.90232 0.53714 0.16841 0.0
H693 H 0.90025 0.4712 0.12322 0.0
H694 H 0.79782 0.46094 0.05439 0.0
H695 H 0.82701 0.46015 0.08684 0.0
C696 C 0.48115 0.80334 0.06879 0.0
C697 C 0.50211 0.7954 0.0575 0.0
C698 C 0.48228 0.82006 0.08732 0.0
C699 C 0.52043 0.86792 0.11125 0.0
H700 H 0.47891 0.86297 0.16652 0.0
C701 C 0.5245 0.93548 0.18944 0.0
C702 C 0.50251 0.9433 0.19865 0.0
C703 C 0.52542 0.91645 0.17324 0.0
C704 C 0.49047 0.86471 0.1511 0.0
H705 H 0.54071 0.79835 0.05704 0.0
H706 H 0.5427 0.82754 0.08956 0.0
H707 H 0.47897 0.83111 0.13668 0.0
H708 H 0.46425 0.93735 0.19819 0.0
H709 H 0.46579 0.90434 0.1697 0.0
H710 H 0.53169 0.90166 0.12547 0.0
C711 C 0.52539 0.82099 0.0839 0.0
C712 C 0.49053 0.84645 0.13403 0.0
C713 C 0.52426 0.80419 0.06539 0.0
C714 C 0.48147 0.93167 0.19144 0.0
C715 C 0.48237 0.91265 0.17524 0.0
C716 C 0.52036 0.8862 0.12831 0.0
C717 C 0.50439 0.82925 0.09495 0.0
C718 C 0.50535 0.84795 0.1138 0.0
C719 C 0.50436 0.90484 0.16591 0.0
C720 C 0.50521 0.88492 0.14832 0.0
H721 H 0.46381 0.79692 0.06307 0.0
H722 H 0.46576 0.82626 0.09525 0.0
H723 H 0.53181 0.86977 0.0957 0.0
H724 H 0.54103 0.94406 0.19475 0.0
H725 H 0.54265 0.91069 0.1666 0.0
C726 C 0.18855 0.52258 0.05948 0.0
C727 C 0.19878 0.50093 0.05183 0.0
C728 C 0.17142 0.52273 0.07764 0.0
C729 C 0.14793 0.48696 0.12795 0.0
H730 H 0.09173 0.52673 0.11999 0.0
C731 C 0.06549 0.47948 0.18974 0.0
C732 C 0.05396 0.50085 0.19622 0.0
C733 C 0.08372 0.47966 0.17266 0.0
C734 C 0.10745 0.51576 0.12266 0.0
H735 H 0.19928 0.46249 0.0573 0.0
H736 H 0.16925 0.46273 0.08895 0.0
H737 H 0.12258 0.52679 0.0893 0.0
H738 H 0.05268 0.53919 0.19024 0.0
H739 H 0.08469 0.53956 0.16069 0.0
H740 H 0.13278 0.47593 0.16133 0.0
C741 C 0.17463 0.47961 0.08107 0.0
C742 C 0.12513 0.51578 0.10505 0.0
C743 C 0.19172 0.47946 0.06285 0.0
C744 C 0.06117 0.52242 0.18551 0.0
C745 C 0.07942 0.52261 0.16848 0.0
C746 C 0.13026 0.48697 0.1456 0.0
C747 C 0.16419 0.50124 0.08857 0.0
C748 C 0.14556 0.50137 0.10747 0.0
C749 C 0.09082 0.50121 0.16174 0.0
C750 C 0.10979 0.50135 0.14315 0.0
H751 H 0.1937 0.53942 0.05136 0.0
H752 H 0.16395 0.53972 0.08323 0.0
H753 H 0.16361 0.4759 0.13049 0.0
H754 H 0.06027 0.46257 0.19766 0.0
H755 H 0.09193 0.46282 0.16768 0.0
C756 C 0.80984 0.93421 0.47486 0.0
C757 C 0.80068 0.94322 0.49644 0.0
C758 C 0.82726 0.91632 0.475 0.0
C759 C 0.85341 0.86873 0.51252 0.0
H760 H 0.90715 0.87466 0.46919 0.0
C761 C 0.93629 0.80714 0.51807 0.0
C762 C 0.94636 0.79949 0.49639 0.0
C763 C 0.91816 0.82434 0.51823 0.0
C764 C 0.89212 0.87256 0.4812 0.0
H765 H 0.80238 0.94042 0.53507 0.0
H766 H 0.83291 0.90919 0.53532 0.0
H767 H 0.87606 0.90517 0.46914 0.0
H768 H 0.94518 0.80357 0.45785 0.0
H769 H 0.91334 0.83332 0.45808 0.0
H770 H 0.86945 0.83607 0.52453 0.0
C771 C 0.82648 0.91584 0.51829 0.0
C772 C 0.87431 0.89006 0.48117 0.0
C773 C 0.8091 0.9338 0.51816 0.0
C774 C 0.93783 0.8092 0.47486 0.0
C775 C 0.91968 0.82636 0.475 0.0
C776 C 0.87121 0.85117 0.5125 0.0
C777 C 0.83585 0.907 0.49671 0.0
C778 C 0.85474 0.88834 0.49681 0.0
C779 C 0.90971 0.83423 0.4967 0.0
C780 C 0.89076 0.85287 0.49681 0.0
H781 H 0.80364 0.94108 0.45784 0.0
H782 H 0.83389 0.90966 0.45807 0.0
H783 H 0.83841 0.86674 0.52457 0.0
H784 H 0.94256 0.8 0.53496 0.0
H785 H 0.91106 0.83021 0.53527 0.0
C786 C 0.93162 0.19423 0.51533 0.0
C787 C 0.94257 0.20154 0.49394 0.0
C788 C 0.91337 0.17714 0.51503 0.0
C789 C 0.88887 0.1282 0.47811 0.0
H790 H 0.83384 0.13448 0.51972 0.0
C791 C 0.80845 0.06377 0.47271 0.0
C792 C 0.79906 0.05559 0.49452 0.0
C793 C 0.82529 0.08224 0.47229 0.0
C794 C 0.8492 0.13237 0.50815 0.0
H795 H 0.94279 0.197 0.45544 0.0
H796 H 0.91077 0.16735 0.45487 0.0
H797 H 0.86437 0.16567 0.51953 0.0
H798 H 0.79973 0.06045 0.53298 0.0
H799 H 0.82925 0.09263 0.53227 0.0
H800 H 0.87376 0.09487 0.46679 0.0
C801 C 0.9165 0.17456 0.47191 0.0
C802 C 0.8667 0.15024 0.50804 0.0
C803 C 0.93474 0.19164 0.47222 0.0
C804 C 0.80664 0.0664 0.51589 0.0
C805 C 0.82344 0.08492 0.51547 0.0
C806 C 0.87137 0.11036 0.47819 0.0
C807 C 0.90569 0.16701 0.49333 0.0
C808 C 0.88678 0.14832 0.49308 0.0
C809 C 0.83305 0.09297 0.49367 0.0
C810 C 0.85138 0.1122 0.49327 0.0
H811 H 0.93732 0.20152 0.53235 0.0
H812 H 0.90563 0.17152 0.53186 0.0
H813 H 0.9043 0.12597 0.46665 0.0
H814 H 0.80289 0.05582 0.45594 0.0
H815 H 0.83212 0.08824 0.45519 0.0
C816 C 0.06846 0.8074 0.51555 0.0
C817 C 0.05977 0.79748 0.49417 0.0
C818 C 0.08693 0.82422 0.51514 0.0
C819 C 0.11544 0.86866 0.476 0.0
H820 H 0.16634 0.86653 0.523 0.0
C821 C 0.1951 0.93434 0.4733 0.0
C822 C 0.2027 0.94383 0.49528 0.0
C823 C 0.1786 0.91555 0.47261 0.0
C824 C 0.15213 0.86751 0.50989 0.0
H825 H 0.06375 0.79712 0.45561 0.0
H826 H 0.0961 0.82651 0.45488 0.0
H827 H 0.13588 0.83528 0.52278 0.0
H828 H 0.1991 0.94109 0.53378 0.0
H829 H 0.17006 0.90857 0.53261 0.0
H830 H 0.13143 0.90106 0.46332 0.0
C831 C 0.08849 0.82142 0.47195 0.0
C832 C 0.1347 0.84959 0.50976 0.0
C833 C 0.07007 0.80451 0.47237 0.0
C834 C 0.19362 0.93408 0.51656 0.0
C835 C 0.17709 0.91534 0.51589 0.0
C836 C 0.13282 0.88663 0.47618 0.0
C837 C 0.09705 0.83153 0.49332 0.0
C838 C 0.11609 0.85005 0.4929 0.0
C839 C 0.16932 0.9059 0.4939 0.0
C840 C 0.15129 0.88635 0.49322 0.0
H841 H 0.06084 0.80234 0.53263 0.0
H842 H 0.09295 0.83188 0.53188 0.0
H843 H 0.10113 0.8697 0.463 0.0
H844 H 0.20187 0.94143 0.45659 0.0
H845 H 0.17324 0.90849 0.45539 0.0
C846 C 0.06227 0.19034 0.5185 0.0
C847 C 0.05492 0.20053 0.49675 0.0
C848 C 0.08046 0.17323 0.51897 0.0
C849 C 0.13118 0.14985 0.48372 0.0
H850 H 0.12374 0.09383 0.52405 0.0
C851 C 0.19292 0.06736 0.47655 0.0
C852 C 0.20013 0.05645 0.49799 0.0
C853 C 0.17567 0.08544 0.47671 0.0
C854 C 0.12622 0.10951 0.51291 0.0
H855 H 0.06087 0.20092 0.45844 0.0
H856 H 0.09249 0.17089 0.45922 0.0
H857 H 0.0928 0.12453 0.52378 0.0
H858 H 0.19512 0.05598 0.53644 0.0
H859 H 0.1651 0.08765 0.53674 0.0
H860 H 0.16456 0.13475 0.47277 0.0
C861 C 0.08441 0.17631 0.47595 0.0
C862 C 0.1085 0.12711 0.51276 0.0
C863 C 0.06621 0.19341 0.47549 0.0
C864 C 0.18986 0.06403 0.51961 0.0
C865 C 0.17257 0.08207 0.51977 0.0
C866 C 0.1489 0.13225 0.48387 0.0
C867 C 0.09169 0.16596 0.49769 0.0
C868 C 0.11074 0.14745 0.49812 0.0
C869 C 0.16524 0.09294 0.49831 0.0
C870 C 0.1466 0.11185 0.49842 0.0
H871 H 0.05393 0.19554 0.53518 0.0
H872 H 0.08586 0.16583 0.53604 0.0
H873 H 0.13362 0.16549 0.47252 0.0
H874 H 0.2005 0.06185 0.4596 0.0
H875 H 0.1702 0.09325 0.45984 0.0
loop_
_geom_bond_atom_site_label_1
_geom_bond_atom_site_label_2
_geom_bond_distance
_geom_bond_site_symmetry_2
_ccdc_geom_bond_type
In0 O1 2.294 1_455 S
In0 O2 2.326 1_455 S
In0 O6 2.266 1_455 S
In0 O7 2.326 . S
In0 O8 2.266 . S
In0 O9 2.326 1_455 S
In0 O11 2.294 . S
In0 O12 2.326 . S
O1 In0 2.294 1_655 S
O1 C10 1.240 . S
O2 In0 2.326 1_655 S
O2 C10 1.252 . S
C3 O6 1.252 1_455 S
C3 O7 1.260 . S
C4 O11 1.240 . S
C4 O12 1.252 . S
C5 O8 1.252 1_655 S
C5 O9 1.260 . S
O6 In0 2.266 1_655 S
O6 C3 1.252 1_655 S
O7 In0 2.326 . S
O7 C3 1.260 . S
O8 In0 2.266 . S
O8 C5 1.252 1_455 S
O9 In0 2.326 1_655 S
O9 C5 1.260 . S
C10 O1 1.240 . S
C10 O2 1.252 . S
O11 In0 2.294 . S
O11 C4 1.240 . S
O12 In0 2.326 . S
O12 C4 1.252 . S
In13 O14 2.294 1_545 S
In13 O15 2.326 . S
In13 O19 2.266 1_545 S
In13 O20 2.326 1_545 S
In13 O21 2.266 . S
In13 O22 2.326 . S
In13 O24 2.294 . S
In13 O25 2.326 1_545 S
O14 In13 2.294 1_565 S
O14 C23 1.240 1_565 S
O15 In13 2.326 . S
O15 C23 1.252 . S
C16 O19 1.252 . S
C16 O20 1.260 . S
C17 O24 1.240 1_565 S
C17 O25 1.252 . S
C18 O21 1.252 . S
C18 O22 1.260 . S
O19 In13 2.266 1_565 S
O19 C16 1.252 . S
O20 In13 2.326 1_565 S
O20 C16 1.260 . S
O21 In13 2.266 . S
O21 C18 1.252 . S
O22 In13 2.326 . S
O22 C18 1.260 . S
C23 O14 1.240 1_545 S
C23 O15 1.252 . S
O24 In13 2.294 . S
O24 C17 1.240 1_545 S
O25 In13 2.326 1_565 S
O25 C17 1.252 . S
In26 O27 2.294 . S
In26 O28 2.326 1_455 S
In26 O32 2.266 . S
In26 O33 2.326 . S
In26 O34 2.266 1_455 S
In26 O35 2.326 1_455 S
In26 O37 2.294 1_455 S
In26 O38 2.326 . S
O27 In26 2.294 . S
O27 C36 1.240 1_455 S
O28 In26 2.326 1_655 S
O28 C36 1.252 . S
C29 O32 1.252 . S
C29 O33 1.260 . S
C30 O37 1.240 1_455 S
C30 O38 1.252 . S
C31 O34 1.252 . S
C31 O35 1.260 . S
O32 In26 2.266 . S
O32 C29 1.252 . S
O33 In26 2.326 . S
O33 C29 1.260 . S
O34 In26 2.266 1_655 S
O34 C31 1.252 . S
O35 In26 2.326 1_655 S
O35 C31 1.260 . S
C36 O27 1.240 1_655 S
C36 O28 1.252 . S
O37 In26 2.294 1_655 S
O37 C30 1.240 1_655 S
O38 In26 2.326 . S
O38 C30 1.252 . S
In39 O40 2.294 1_545 S
In39 O41 2.326 1_545 S
In39 O45 2.266 1_545 S
In39 O46 2.326 . S
In39 O47 2.266 . S
In39 O48 2.326 1_545 S
In39 O50 2.294 . S
In39 O51 2.326 . S
O40 In39 2.294 1_565 S
O40 C49 1.240 . S
O41 In39 2.326 1_565 S
O41 C49 1.252 . S
C42 O45 1.252 1_545 S
C42 O46 1.260 . S
C43 O50 1.240 . S
C43 O51 1.252 . S
C44 O47 1.252 1_565 S
C44 O48 1.260 . S
O45 In39 2.266 1_565 S
O45 C42 1.252 1_565 S
O46 In39 2.326 . S
O46 C42 1.260 . S
O47 In39 2.266 . S
O47 C44 1.252 1_545 S
O48 In39 2.326 1_565 S
O48 C44 1.260 . S
C49 O40 1.240 . S
C49 O41 1.252 . S
O50 In39 2.294 . S
O50 C43 1.240 . S
O51 In39 2.326 . S
O51 C43 1.252 . S
In52 O53 2.294 1_545 S
In52 O54 2.326 . S
In52 O58 2.266 1_545 S
In52 O59 2.326 1_545 S
In52 O60 2.266 . S
In52 O61 2.326 . S
In52 O63 2.294 . S
In52 O64 2.326 1_545 S
O53 In52 2.294 1_565 S
O53 C62 1.240 1_565 S
O54 In52 2.326 . S
O54 C62 1.252 . S
C55 O58 1.252 . S
C55 O59 1.260 . S
C56 O63 1.240 1_565 S
C56 O64 1.252 . S
C57 O60 1.252 . S
C57 O61 1.260 . S
O58 In52 2.266 1_565 S
O58 C55 1.252 . S
O59 In52 2.326 1_565 S
O59 C55 1.260 . S
O60 In52 2.266 . S
O60 C57 1.252 . S
O61 In52 2.326 . S
O61 C57 1.260 . S
C62 O53 1.240 1_545 S
C62 O54 1.252 . S
O63 In52 2.294 . S
O63 C56 1.240 1_545 S
O64 In52 2.326 1_565 S
O64 C56 1.252 . S
In65 O66 2.294 1_455 S
In65 O67 2.326 1_455 S
In65 O71 2.266 1_455 S
In65 O72 2.326 . S
In65 O73 2.266 . S
In65 O74 2.326 1_455 S
In65 O76 2.294 . S
In65 O77 2.326 . S
O66 In65 2.294 1_655 S
O66 C75 1.240 . S
O67 In65 2.326 1_655 S
O67 C75 1.252 . S
C68 O71 1.252 1_455 S
C68 O72 1.260 . S
C69 O76 1.240 . S
C69 O77 1.252 . S
C70 O73 1.252 1_655 S
C70 O74 1.260 . S
O71 In65 2.266 1_655 S
O71 C68 1.252 1_655 S
O72 In65 2.326 . S
O72 C68 1.260 . S
O73 In65 2.266 . S
O73 C70 1.252 1_455 S
O74 In65 2.326 1_655 S
O74 C70 1.260 . S
C75 O66 1.240 . S
C75 O67 1.252 . S
O76 In65 2.294 . S
O76 C69 1.240 . S
O77 In65 2.326 . S
O77 C69 1.252 . S
In78 O79 2.294 . S
In78 O80 2.326 1_545 S
In78 O84 2.266 . S
In78 O85 2.326 . S
In78 O86 2.266 1_545 S
In78 O87 2.326 1_545 S
In78 O89 2.294 1_545 S
In78 O90 2.326 . S
O79 In78 2.294 . S
O79 C88 1.240 1_545 S
O80 In78 2.326 1_565 S
O80 C88 1.252 . S
C81 O84 1.252 . S
C81 O85 1.260 . S
C82 O89 1.240 1_545 S
C82 O90 1.252 . S
C83 O86 1.252 . S
C83 O87 1.260 . S
O84 In78 2.266 . S
O84 C81 1.252 . S
O85 In78 2.326 . S
O85 C81 1.260 . S
O86 In78 2.266 1_565 S
O86 C83 1.252 . S
O87 In78 2.326 1_565 S
O87 C83 1.260 . S
C88 O79 1.240 1_565 S
C88 O80 1.252 . S
O89 In78 2.294 1_565 S
O89 C82 1.240 1_565 S
O90 In78 2.326 . S
O90 C82 1.252 . S
In91 O92 2.294 . S
In91 O93 2.326 . S
In91 O97 2.266 . S
In91 O98 2.326 1_455 S
In91 O99 2.266 1_455 S
In91 O100 2.326 . S
In91 O102 2.294 1_455 S
In91 O103 2.326 1_455 S
O92 In91 2.294 . S
O92 C101 1.240 . S
O93 In91 2.326 . S
O93 C101 1.252 . S
C94 O97 1.252 1_655 S
C94 O98 1.260 . S
C95 O102 1.240 . S
C95 O103 1.252 . S
C96 O99 1.252 1_455 S
C96 O100 1.260 . S
O97 In91 2.266 . S
O97 C94 1.252 1_455 S
O98 In91 2.326 1_655 S
O98 C94 1.260 . S
O99 In91 2.266 1_655 S
O99 C96 1.252 1_655 S
O100 In91 2.326 . S
O100 C96 1.260 . S
C101 O92 1.240 . S
C101 O93 1.252 . S
O102 In91 2.294 1_655 S
O102 C95 1.240 . S
O103 In91 2.326 1_655 S
O103 C95 1.252 . S
In104 O105 2.299 . S
In104 O106 2.329 . S
In104 O110 2.268 . S
In104 O111 2.322 1_554 S
In104 O112 2.264 1_554 S
In104 O113 2.329 . S
In104 O115 2.289 1_554 S
In104 O116 2.324 1_554 S
O105 In104 2.299 . S
O105 C114 1.240 . S
O106 In104 2.329 . S
O106 C114 1.252 . S
C107 O110 1.252 1_556 S
C107 O111 1.260 . S
C108 O115 1.240 . S
C108 O116 1.252 . S
C109 O112 1.252 1_554 S
C109 O113 1.260 . S
O110 In104 2.268 . S
O110 C107 1.252 1_554 S
O111 In104 2.322 1_556 S
O111 C107 1.260 . S
O112 In104 2.264 1_556 S
O112 C109 1.252 1_556 S
O113 In104 2.329 . S
O113 C109 1.260 . S
C114 O105 1.240 . S
C114 O106 1.252 . S
O115 In104 2.289 1_556 S
O115 C108 1.240 . S
O116 In104 2.324 1_556 S
O116 C108 1.252 . S
In117 O118 2.301 . S
In117 O119 2.330 . S
In117 O123 2.269 . S
In117 O124 2.320 1_554 S
In117 O125 2.264 1_554 S
In117 O126 2.331 . S
In117 O128 2.286 1_554 S
In117 O129 2.323 1_554 S
O118 In117 2.301 . S
O118 C127 1.240 . S
O119 In117 2.330 . S
O119 C127 1.252 . S
C120 O123 1.252 1_556 S
C120 O124 1.260 . S
C121 O128 1.240 . S
C121 O129 1.252 . S
C122 O125 1.252 1_554 S
C122 O126 1.260 . S
O123 In117 2.269 . S
O123 C120 1.252 1_554 S
O124 In117 2.320 1_556 S
O124 C120 1.260 . S
O125 In117 2.264 1_556 S
O125 C122 1.252 1_556 S
O126 In117 2.331 . S
O126 C122 1.260 . S
C127 O118 1.240 . S
C127 O119 1.252 . S
O128 In117 2.286 1_556 S
O128 C121 1.240 . S
O129 In117 2.323 1_556 S
O129 C121 1.252 . S
In130 O131 2.291 1_554 S
In130 O132 2.331 . S
In130 O136 2.259 1_554 S
In130 O137 2.322 1_554 S
In130 O138 2.274 . S
In130 O139 2.329 . S
In130 O141 2.297 . S
In130 O142 2.321 1_554 S
O131 In130 2.291 1_556 S
O131 C140 1.240 1_556 S
O132 In130 2.331 . S
O132 C140 1.252 . S
C133 O136 1.252 . S
C133 O137 1.260 . S
C134 O141 1.240 1_556 S
C134 O142 1.252 . S
C135 O138 1.252 . S
C135 O139 1.260 . S
O136 In130 2.259 1_556 S
O136 C133 1.252 . S
O137 In130 2.322 1_556 S
O137 C133 1.260 . S
O138 In130 2.274 . S
O138 C135 1.252 . S
O139 In130 2.329 . S
O139 C135 1.260 . S
C140 O131 1.240 1_554 S
C140 O132 1.252 . S
O141 In130 2.297 . S
O141 C134 1.240 1_554 S
O142 In130 2.321 1_556 S
O142 C134 1.252 . S
In143 O144 2.296 . S
In143 O145 2.323 1_554 S
In143 O149 2.272 . S
In143 O150 2.328 . S
In143 O151 2.261 1_554 S
In143 O152 2.323 1_554 S
In143 O154 2.292 1_554 S
In143 O155 2.330 . S
O144 In143 2.296 . S
O144 C153 1.240 1_554 S
O145 In143 2.323 1_556 S
O145 C153 1.252 . S
C146 O149 1.252 . S
C146 O150 1.260 . S
C147 O154 1.240 1_554 S
C147 O155 1.252 . S
C148 O151 1.252 . S
C148 O152 1.260 . S
O149 In143 2.272 . S
O149 C146 1.252 . S
O150 In143 2.328 . S
O150 C146 1.260 . S
O151 In143 2.261 1_556 S
O151 C148 1.252 . S
O152 In143 2.323 1_556 S
O152 C148 1.260 . S
C153 O144 1.240 1_556 S
C153 O145 1.252 . S
O154 In143 2.292 1_556 S
O154 C147 1.240 1_556 S
O155 In143 2.330 . S
O155 C147 1.252 . S
C156 C157 1.349 1_455 S
C156 C158 1.327 . S
C156 H181 0.950 . S
C157 C156 1.349 1_655 S
C157 C173 1.349 . S
C158 C156 1.327 . S
C158 C177 1.417 1_455 S
C158 H182 0.950 . S
C159 C176 1.574 . S
C159 C178 1.368 1_655 S
C159 H183 0.949 . S
H160 C164 0.949 . S
C161 C162 1.349 1_655 S
C161 C163 1.327 . S
C161 H184 0.950 . S
C162 C161 1.349 1_455 S
C162 C174 1.349 . S
C163 C161 1.327 . S
C163 C179 1.429 1_655 S
C163 H185 0.950 . S
C164 H160 0.949 . S
C164 C172 1.574 . S
C164 C180 1.368 . S
H165 C173 0.950 . S
H166 C171 0.950 . S
H167 C172 0.949 . S
H168 C174 0.950 . S
H169 C175 0.950 . S
H170 C176 0.949 . S
C171 H166 0.950 . S
C171 C173 1.327 . S
C171 C177 1.442 . S
C172 C164 1.574 . S
C172 H167 0.949 . S
C172 C178 1.368 . S
C173 C157 1.349 . S
C173 H165 0.950 . S
C173 C171 1.327 . S
C174 C162 1.349 . S
C174 H168 0.950 . S
C174 C175 1.327 . S
C175 H169 0.950 . S
C175 C174 1.327 . S
C175 C179 1.429 . S
C176 C159 1.574 . S
C176 H170 0.949 . S
C176 C180 1.368 1_655 S
C177 C158 1.417 1_655 S
C177 C171 1.442 . S
C177 C178 1.521 1_655 S
C178 C159 1.368 1_455 S
C178 C172 1.368 . S
C178 C177 1.521 1_455 S
C179 C163 1.429 1_455 S
C179 C175 1.429 . S
C179 C180 1.523 . S
C180 C164 1.368 . S
C180 C176 1.368 1_455 S
C180 C179 1.523 . S
H181 C156 0.950 . S
H182 C158 0.950 . S
H183 C159 0.949 . S
H184 C161 0.950 . S
H185 C163 0.950 . S
C186 C187 1.349 . S
C186 C188 1.327 . S
C186 H211 0.950 . S
C187 C186 1.349 . S
C187 C203 1.349 1_565 S
C188 C186 1.327 . S
C188 C207 1.442 . S
C188 H212 0.950 . S
C189 C206 1.574 . S
C189 C208 1.368 . S
C189 H213 0.949 . S
H190 C194 0.949 . S
C191 C192 1.349 . S
C191 C193 1.327 . S
C191 H214 0.950 . S
C192 C191 1.349 . S
C192 C204 1.349 1_545 S
C193 C191 1.327 . S
C193 C209 1.429 . S
C193 H215 0.950 . S
C194 H190 0.949 . S
C194 C202 1.574 . S
C194 C210 1.368 1_565 S
H195 C203 0.950 . S
H196 C201 0.950 . S
H197 C202 0.949 . S
H198 C204 0.950 . S
H199 C205 0.950 . S
H200 C206 0.949 . S
C201 H196 0.950 . S
C201 C203 1.327 . S
C201 C207 1.417 1_545 S
C202 C194 1.574 . S
C202 H197 0.949 . S
C202 C208 1.368 1_565 S
C203 C187 1.349 1_545 S
C203 H195 0.950 . S
C203 C201 1.327 . S
C204 C192 1.349 1_565 S
C204 H198 0.950 . S
C204 C205 1.327 . S
C205 H199 0.950 . S
C205 C204 1.327 . S
C205 C209 1.429 1_565 S
C206 C189 1.574 . S
C206 H200 0.949 . S
C206 C210 1.368 . S
C207 C188 1.442 . S
C207 C201 1.417 1_565 S
C207 C208 1.522 1_565 S
C208 C189 1.368 . S
C208 C202 1.368 1_545 S
C208 C207 1.522 1_545 S
C209 C193 1.429 . S
C209 C205 1.429 1_545 S
C209 C210 1.523 . S
C210 C194 1.368 1_545 S
C210 C206 1.368 . S
C210 C209 1.523 . S
H211 C186 0.950 . S
H212 C188 0.950 . S
H213 C189 0.949 . S
H214 C191 0.950 . S
H215 C193 0.950 . S
C216 C217 1.349 . S
C216 C218 1.327 . S
C216 H241 0.950 . S
C217 C216 1.349 . S
C217 C233 1.349 . S
C218 C216 1.327 . S
C218 C237 1.430 . S
C218 H242 0.950 . S
C219 C236 1.574 . S
C219 C238 1.368 . S
C219 H243 0.949 . S
H220 C224 0.949 . S
C221 C222 1.349 . S
C221 C223 1.327 . S
C221 H244 0.950 . S
C222 C221 1.349 . S
C222 C234 1.349 . S
C223 C221 1.327 . S
C223 C239 1.429 . S
C223 H245 0.950 . S
C224 H220 0.949 . S
C224 C232 1.574 . S
C224 C240 1.368 . S
H225 C233 0.950 . S
H226 C231 0.948 1_455 S
H227 C232 0.951 . S
H228 C234 0.950 . S
H229 C235 0.950 . S
H230 C236 0.949 . S
C231 H226 0.948 1_655 S
C231 C233 1.331 . S
C231 C237 1.428 . S
C232 C224 1.574 . S
C232 H227 0.951 . S
C232 C238 1.368 . S
C233 C217 1.349 . S
C233 H225 0.950 . S
C233 C231 1.331 . S
C234 C222 1.349 . S
C234 H228 0.950 . S
C234 C235 1.327 . S
C235 H229 0.950 . S
C235 C234 1.327 . S
C235 C239 1.429 . S
C236 C219 1.574 . S
C236 H230 0.949 . S
C236 C240 1.368 . S
C237 C218 1.430 . S
C237 C231 1.428 . S
C237 C238 1.521 1_655 S
C238 C219 1.368 . S
C238 C232 1.368 . S
C238 C237 1.521 1_455 S
C239 C223 1.429 . S
C239 C235 1.429 . S
C239 C240 1.523 . S
C240 C224 1.368 . S
C240 C236 1.368 . S
C240 C239 1.523 . S
H241 C216 0.950 . S
H242 C218 0.950 . S
H243 C219 0.949 . S
H244 C221 0.950 . S
H245 C223 0.950 . S
C246 C247 1.349 . S
C246 C248 1.327 . S
C246 H271 0.950 . S
C247 C246 1.349 . S
C247 C263 1.349 1_545 S
C248 C246 1.327 . S
C248 C267 1.429 . S
C248 H272 0.950 . S
C249 C266 1.574 . S
C249 C268 1.368 1_565 S
C249 H273 0.949 . S
H250 C254 0.949 . S
C251 C252 1.349 . S
C251 C253 1.327 . S
C251 H274 0.950 . S
C252 C251 1.349 . S
C252 C264 1.349 1_565 S
C253 C251 1.327 . S
C253 C269 1.442 . S
C253 H275 0.950 . S
C254 H250 0.949 . S
C254 C262 1.574 . S
C254 C270 1.368 . S
H255 C263 0.950 . S
H256 C261 0.950 . S
H257 C262 0.949 . S
H258 C264 0.950 . S
H259 C265 0.950 . S
H260 C266 0.949 . S
C261 H256 0.950 . S
C261 C263 1.327 . S
C261 C267 1.429 1_565 S
C262 C254 1.574 . S
C262 H257 0.949 . S
C262 C268 1.368 . S
C263 C247 1.349 1_565 S
C263 H255 0.950 . S
C263 C261 1.327 . S
C264 C252 1.349 1_545 S
C264 H258 0.950 . S
C264 C265 1.327 . S
C265 H259 0.950 . S
C265 C264 1.327 . S
C265 C269 1.417 1_545 S
C266 C249 1.574 . S
C266 H260 0.949 . S
C266 C270 1.368 1_565 S
C267 C248 1.429 . S
C267 C261 1.429 1_545 S
C267 C268 1.523 . S
C268 C249 1.368 1_545 S
C268 C262 1.368 . S
C268 C267 1.523 . S
C269 C253 1.442 . S
C269 C265 1.417 1_565 S
C269 C270 1.522 1_565 S
C270 C254 1.368 . S
C270 C266 1.368 1_545 S
C270 C269 1.522 1_545 S
H271 C246 0.950 . S
H272 C248 0.950 . S
H273 C249 0.949 . S
H274 C251 0.950 . S
H275 C253 0.950 . S
C276 C277 1.349 . S
C276 C278 1.327 . S
C276 H301 0.950 . S
C277 C276 1.349 . S
C277 C293 1.349 1_455 S
C278 C276 1.327 . S
C278 C297 1.429 . S
C278 H302 0.950 . S
C279 C296 1.574 . S
C279 C298 1.368 1_655 S
C279 H303 0.949 . S
H280 C284 0.949 . S
C281 C282 1.349 . S
C281 C283 1.327 . S
C281 H304 0.950 . S
C282 C281 1.349 . S
C282 C294 1.349 1_655 S
C283 C281 1.327 . S
C283 C299 1.451 . S
C283 H305 0.950 . S
C284 H280 0.949 . S
C284 C292 1.574 . S
C284 C300 1.368 . S
H285 C293 0.950 . S
H286 C291 0.950 . S
H287 C292 0.949 . S
H288 C294 0.950 . S
H289 C295 0.950 . S
H290 C296 0.949 . S
C291 H286 0.950 . S
C291 C293 1.327 . S
C291 C297 1.429 1_655 S
C292 C284 1.574 . S
C292 H287 0.949 . S
C292 C298 1.368 . S
C293 C277 1.349 1_655 S
C293 H285 0.950 . S
C293 C291 1.327 . S
C294 C282 1.349 1_455 S
C294 H288 0.950 . S
C294 C295 1.327 . S
C295 H289 0.950 . S
C295 C294 1.327 . S
C295 C299 1.409 1_455 S
C296 C279 1.574 . S
C296 H290 0.949 . S
C296 C300 1.368 1_655 S
C297 C278 1.429 . S
C297 C291 1.429 1_455 S
C297 C298 1.523 . S
C298 C279 1.368 1_455 S
C298 C292 1.368 . S
C298 C297 1.523 . S
C299 C283 1.451 . S
C299 C295 1.409 1_655 S
C299 C300 1.521 1_655 S
C300 C284 1.368 . S
C300 C296 1.368 1_455 S
C300 C299 1.521 1_455 S
H301 C276 0.950 . S
H302 C278 0.950 . S
H303 C279 0.949 . S
H304 C281 0.950 . S
H305 C283 0.950 . S
C306 C307 1.349 1_565 S
C306 C308 1.327 . S
C306 H331 0.950 . S
C307 C306 1.349 1_545 S
C307 C323 1.349 . S
C308 C306 1.327 . S
C308 C327 1.429 1_565 S
C308 H332 0.950 . S
C309 C326 1.574 . S
C309 C328 1.368 . S
C309 H333 0.949 . S
H310 C314 0.949 . S
C311 C312 1.349 1_545 S
C311 C313 1.327 . S
C311 H334 0.950 . S
C312 C311 1.349 1_565 S
C312 C324 1.349 . S
C313 C311 1.327 . S
C313 C329 1.419 1_545 S
C313 H335 0.950 . S
C314 H310 0.949 . S
C314 C322 1.574 . S
C314 C330 1.368 1_565 S
H315 C323 0.950 . S
H316 C321 0.950 . S
H317 C322 0.949 . S
H318 C324 0.950 . S
H319 C325 0.950 . S
H320 C326 0.949 . S
C321 H316 0.950 . S
C321 C323 1.327 . S
C321 C327 1.429 . S
C322 C314 1.574 . S
C322 H317 0.949 . S
C322 C328 1.368 1_565 S
C323 C307 1.349 . S
C323 H315 0.950 . S
C323 C321 1.327 . S
C324 C312 1.349 . S
C324 H318 0.950 . S
C324 C325 1.327 . S
C325 H319 0.950 . S
C325 C324 1.327 . S
C325 C329 1.439 . S
C326 C309 1.574 . S
C326 H320 0.949 . S
C326 C330 1.368 . S
C327 C308 1.429 1_545 S
C327 C321 1.429 . S
C327 C328 1.523 . S
C328 C309 1.368 . S
C328 C322 1.368 1_545 S
C328 C327 1.523 . S
C329 C313 1.419 1_565 S
C329 C325 1.439 . S
C329 C330 1.522 1_565 S
C330 C314 1.368 1_545 S
C330 C326 1.368 . S
C330 C329 1.522 1_545 S
H331 C306 0.950 . S
H332 C308 0.950 . S
H333 C309 0.949 . S
H334 C311 0.950 . S
H335 C313 0.950 . S
C336 C337 1.354 . S
C336 C338 1.326 1_455 S
C336 H361 0.945 1_455 S
C337 C336 1.354 . S
C337 C353 1.349 . S
C338 C336 1.326 1_655 S
C338 C357 1.429 1_655 S
C338 H362 0.950 . S
C339 C356 1.574 . S
C339 C358 1.368 . S
C339 H363 0.949 . S
H340 C344 0.949 . S
C341 C342 1.349 1_455 S
C341 C343 1.327 . S
C341 H364 0.950 . S
C342 C341 1.349 1_655 S
C342 C354 1.349 . S
C343 C341 1.327 . S
C343 C359 1.420 1_455 S
C343 H365 0.950 . S
C344 H340 0.949 . S
C344 C352 1.574 . S
C344 C360 1.368 1_655 S
H345 C353 0.950 . S
H346 C351 0.950 . S
H347 C352 0.949 . S
H348 C354 0.950 . S
H349 C355 0.950 . S
H350 C356 0.949 . S
C351 H346 0.950 . S
C351 C353 1.327 . S
C351 C357 1.429 . S
C352 C344 1.574 . S
C352 H347 0.949 . S
C352 C358 1.368 1_655 S
C353 C337 1.349 . S
C353 H345 0.950 . S
C353 C351 1.327 . S
C354 C342 1.349 . S
C354 H348 0.950 . S
C354 C355 1.327 . S
C355 H349 0.950 . S
C355 C354 1.327 . S
C355 C359 1.440 . S
C356 C339 1.574 . S
C356 H350 0.949 . S
C356 C360 1.368 . S
C357 C338 1.429 1_455 S
C357 C351 1.429 . S
C357 C358 1.523 . S
C358 C339 1.368 . S
C358 C352 1.368 1_455 S
C358 C357 1.523 . S
C359 C343 1.420 1_655 S
C359 C355 1.440 . S
C359 C360 1.521 1_655 S
C360 C344 1.368 1_455 S
C360 C356 1.368 . S
C360 C359 1.521 1_455 S
H361 C336 0.945 1_655 S
H362 C338 0.950 . S
H363 C339 0.949 . S
H364 C341 0.950 . S
H365 C343 0.950 . S
C366 C367 1.349 1_545 S
C366 C368 1.327 . S
C366 H391 0.950 . S
C367 C366 1.349 1_565 S
C367 C383 1.349 . S
C368 C366 1.327 . S
C368 C387 1.420 1_545 S
C368 H392 0.950 . S
C369 C386 1.574 . S
C369 C388 1.368 1_565 S
C369 H393 0.949 . S
H370 C374 0.949 . S
C371 C372 1.349 1_565 S
C371 C373 1.327 . S
C371 H394 0.950 . S
C372 C371 1.349 1_545 S
C372 C384 1.349 . S
C373 C371 1.327 . S
C373 C389 1.429 1_565 S
C373 H395 0.950 . S
C374 H370 0.949 . S
C374 C382 1.574 . S
C374 C390 1.368 . S
H375 C383 0.950 . S
H376 C381 0.950 . S
H377 C382 0.949 . S
H378 C384 0.950 . S
H379 C385 0.950 . S
H380 C386 0.949 . S
C381 H376 0.950 . S
C381 C383 1.327 . S
C381 C387 1.438 . S
C382 C374 1.574 . S
C382 H377 0.949 . S
C382 C388 1.368 . S
C383 C367 1.349 . S
C383 H375 0.950 . S
C383 C381 1.327 . S
C384 C372 1.349 . S
C384 H378 0.950 . S
C384 C385 1.327 . S
C385 H379 0.950 . S
C385 C384 1.327 . S
C385 C389 1.429 . S
C386 C369 1.574 . S
C386 H380 0.949 . S
C386 C390 1.368 1_565 S
C387 C368 1.420 1_565 S
C387 C381 1.438 . S
C387 C388 1.522 1_565 S
C388 C369 1.368 1_545 S
C388 C382 1.368 . S
C388 C387 1.522 1_545 S
C389 C373 1.429 1_545 S
C389 C385 1.429 . S
C389 C390 1.523 . S
C390 C374 1.368 . S
C390 C386 1.368 1_545 S
C390 C389 1.523 . S
H391 C366 0.950 . S
H392 C368 0.950 . S
H393 C369 0.949 . S
H394 C371 0.950 . S
H395 C373 0.950 . S
C396 C397 1.349 . S
C396 C398 1.327 . S
C396 H421 0.950 . S
C397 C396 1.349 . S
C397 C413 1.349 1_554 S
C398 C396 1.327 . S
C398 C417 1.429 . S
C398 H422 0.950 . S
C399 C416 1.574 . S
C399 C418 1.368 1_556 S
C399 H423 0.949 . S
H400 C404 0.949 . S
C401 C402 1.349 . S
C401 C403 1.327 . S
C401 H424 0.950 . S
C402 C401 1.349 . S
C402 C414 1.349 1_556 S
C403 C401 1.327 . S
C403 C419 1.429 . S
C403 H425 0.950 . S
C404 H400 0.949 . S
C404 C412 1.574 . S
C404 C420 1.368 1_554 S
H405 C413 0.950 . S
H406 C411 0.950 . S
H407 C412 0.949 . S
H408 C414 0.950 . S
H409 C415 0.950 . S
H410 C416 0.949 . S
C411 H406 0.950 . S
C411 C413 1.327 . S
C411 C417 1.429 1_556 S
C412 C404 1.574 . S
C412 H407 0.949 . S
C412 C418 1.368 . S
C413 C397 1.349 1_556 S
C413 H405 0.950 . S
C413 C411 1.327 . S
C414 C402 1.349 1_554 S
C414 H408 0.950 . S
C414 C415 1.327 . S
C415 H409 0.950 . S
C415 C414 1.327 . S
C415 C419 1.429 1_554 S
C416 C399 1.574 . S
C416 H410 0.949 . S
C416 C420 1.368 . S
C417 C398 1.429 . S
C417 C411 1.429 1_554 S
C417 C418 1.523 . S
C418 C399 1.368 1_554 S
C418 C412 1.368 . S
C418 C417 1.523 . S
C419 C403 1.429 . S
C419 C415 1.429 1_556 S
C419 C420 1.523 . S
C420 C404 1.368 1_556 S
C420 C416 1.368 . S
C420 C419 1.523 . S
H421 C396 0.950 . S
H422 C398 0.950 . S
H423 C399 0.949 . S
H424 C401 0.950 . S
H425 C403 0.950 . S
C426 C427 1.349 . S
C426 C428 1.327 . S
C426 H451 0.950 . S
C427 C426 1.349 . S
C427 C443 1.349 1_554 S
C428 C426 1.327 . S
C428 C447 1.429 . S
C428 H452 0.950 . S
C429 C446 1.574 . S
C429 C448 1.368 1_556 S
C429 H453 0.949 . S
H430 C434 0.949 . S
C431 C432 1.349 . S
C431 C433 1.327 . S
C431 H454 0.950 . S
C432 C431 1.349 . S
C432 C444 1.349 1_556 S
C433 C431 1.327 . S
C433 C449 1.429 . S
C433 H455 0.950 . S
C434 H430 0.949 . S
C434 C442 1.574 . S
C434 C450 1.368 1_554 S
H435 C443 0.950 . S
H436 C441 0.950 . S
H437 C442 0.949 . S
H438 C444 0.950 . S
H439 C445 0.950 . S
H440 C446 0.949 . S
C441 H436 0.950 . S
C441 C443 1.327 . S
C441 C447 1.429 1_556 S
C442 C434 1.574 . S
C442 H437 0.949 . S
C442 C448 1.368 . S
C443 C427 1.349 1_556 S
C443 H435 0.950 . S
C443 C441 1.327 . S
C444 C432 1.349 1_554 S
C444 H438 0.950 . S
C444 C445 1.327 . S
C445 H439 0.950 . S
C445 C444 1.327 . S
C445 C449 1.429 1_554 S
C446 C429 1.574 . S
C446 H440 0.949 . S
C446 C450 1.368 . S
C447 C428 1.429 . S
C447 C441 1.429 1_554 S
C447 C448 1.523 . S
C448 C429 1.368 1_554 S
C448 C442 1.368 . S
C448 C447 1.523 . S
C449 C433 1.429 . S
C449 C445 1.429 1_556 S
C449 C450 1.523 . S
C450 C434 1.368 1_556 S
C450 C446 1.368 . S
C450 C449 1.523 . S
H451 C426 0.950 . S
H452 C428 0.950 . S
H453 C429 0.949 . S
H454 C431 0.950 . S
H455 C433 0.950 . S
C456 C457 1.349 . S
C456 C458 1.327 . S
C456 H481 0.950 . S
C457 C456 1.349 . S
C457 C473 1.349 1_556 S
C458 C456 1.327 . S
C458 C477 1.429 . S
C458 H482 0.950 . S
C459 C476 1.574 . S
C459 C478 1.368 1_554 S
C459 H483 0.949 . S
H460 C464 0.949 . S
C461 C462 1.349 . S
C461 C463 1.327 . S
C461 H484 0.950 . S
C462 C461 1.349 . S
C462 C474 1.349 1_554 S
C463 C461 1.327 . S
C463 C479 1.429 . S
C463 H485 0.950 . S
C464 H460 0.949 . S
C464 C472 1.574 . S
C464 C480 1.368 1_556 S
H465 C473 0.950 . S
H466 C471 0.950 . S
H467 C472 0.949 . S
H468 C474 0.950 . S
H469 C475 0.950 . S
H470 C476 0.949 . S
C471 H466 0.950 . S
C471 C473 1.327 . S
C471 C477 1.429 1_554 S
C472 C464 1.574 . S
C472 H467 0.949 . S
C472 C478 1.368 . S
C473 C457 1.349 1_554 S
C473 H465 0.950 . S
C473 C471 1.327 . S
C474 C462 1.349 1_556 S
C474 H468 0.950 . S
C474 C475 1.327 . S
C475 H469 0.950 . S
C475 C474 1.327 . S
C475 C479 1.429 1_556 S
C476 C459 1.574 . S
C476 H470 0.949 . S
C476 C480 1.368 . S
C477 C458 1.429 . S
C477 C471 1.429 1_556 S
C477 C478 1.523 . S
C478 C459 1.368 1_556 S
C478 C472 1.368 . S
C478 C477 1.523 . S
C479 C463 1.429 . S
C479 C475 1.429 1_554 S
C479 C480 1.523 . S
C480 C464 1.368 1_554 S
C480 C476 1.368 . S
C480 C479 1.523 . S
H481 C456 0.950 . S
H482 C458 0.950 . S
H483 C459 0.949 . S
H484 C461 0.950 . S
H485 C463 0.950 . S
C486 C487 1.349 . S
C486 C488 1.327 . S
C486 H511 0.950 . S
C487 C486 1.349 . S
C487 C503 1.349 . S
C488 C486 1.327 . S
C488 C507 1.429 . S
C488 H512 0.950 . S
C489 C506 1.573 1_556 S
C489 C508 1.368 . S
C489 H513 0.949 . S
H490 C494 0.949 . S
C491 C492 1.349 . S
C491 C493 1.327 . S
C491 H514 0.950 . S
C492 C491 1.349 . S
C492 C504 1.349 . S
C493 C491 1.327 . S
C493 C509 1.429 . S
C493 H515 0.950 . S
C494 H490 0.949 . S
C494 C502 1.574 . S
C494 C510 1.368 . S
H495 C503 0.950 . S
H496 C501 0.950 . S
H497 C502 0.949 . S
H498 C504 0.950 . S
H499 C505 0.950 . S
H500 C506 0.949 . S
C501 H496 0.950 . S
C501 C503 1.327 . S
C501 C507 1.429 . S
C502 C494 1.574 . S
C502 H497 0.949 . S
C502 C508 1.368 1_554 S
C503 C487 1.349 . S
C503 H495 0.950 . S
C503 C501 1.327 . S
C504 C492 1.349 . S
C504 H498 0.950 . S
C504 C505 1.327 . S
C505 H499 0.950 . S
C505 C504 1.327 . S
C505 C509 1.429 . S
C506 C489 1.573 1_554 S
C506 H500 0.949 . S
C506 C510 1.369 . S
C507 C488 1.429 . S
C507 C501 1.429 . S
C507 C508 1.523 . S
C508 C489 1.368 . S
C508 C502 1.368 1_556 S
C508 C507 1.523 . S
C509 C493 1.429 . S
C509 C505 1.429 . S
C509 C510 1.523 . S
C510 C494 1.368 . S
C510 C506 1.369 . S
C510 C509 1.523 . S
H511 C486 0.950 . S
H512 C488 0.950 . S
H513 C489 0.949 . S
H514 C491 0.950 . S
H515 C493 0.950 . S
C516 C517 1.349 . S
C516 C518 1.327 . S
C516 H541 0.950 . S
C517 C516 1.349 . S
C517 C533 1.349 . S
C518 C516 1.327 . S
C518 C537 1.429 . S
C518 H542 0.950 . S
C519 C536 1.574 . S
C519 C538 1.368 . S
C519 H543 0.949 . S
H520 C524 0.949 . S
C521 C522 1.349 . S
C521 C523 1.327 . S
C521 H544 0.950 . S
C522 C521 1.349 . S
C522 C534 1.349 . S
C523 C521 1.327 . S
C523 C539 1.429 . S
C523 H545 0.950 . S
C524 H520 0.949 . S
C524 C532 1.574 . S
C524 C540 1.368 . S
H525 C533 0.950 . S
H526 C531 0.950 . S
H527 C532 0.949 . S
H528 C534 0.950 . S
H529 C535 0.950 . S
H530 C536 0.949 . S
C531 H526 0.950 . S
C531 C533 1.327 . S
C531 C537 1.429 . S
C532 C524 1.574 . S
C532 H527 0.949 . S
C532 C538 1.368 . S
C533 C517 1.349 . S
C533 H525 0.950 . S
C533 C531 1.327 . S
C534 C522 1.349 . S
C534 H528 0.950 . S
C534 C535 1.327 . S
C535 H529 0.950 . S
C535 C534 1.327 . S
C535 C539 1.429 . S
C536 C519 1.574 . S
C536 H530 0.949 . S
C536 C540 1.368 . S
C537 C518 1.429 . S
C537 C531 1.429 . S
C537 C538 1.523 . S
C538 C519 1.368 . S
C538 C532 1.368 . S
C538 C537 1.523 . S
C539 C523 1.429 . S
C539 C535 1.429 . S
C539 C540 1.523 . S
C540 C524 1.368 . S
C540 C536 1.368 . S
C540 C539 1.523 . S
H541 C516 0.950 . S
H542 C518 0.950 . S
H543 C519 0.949 . S
H544 C521 0.950 . S
H545 C523 0.950 . S
C546 C547 1.349 . S
C546 C548 1.327 . S
C546 H571 0.950 . S
C547 C546 1.349 . S
C547 C563 1.349 . S
C548 C546 1.327 . S
C548 C567 1.429 . S
C548 H572 0.950 . S
C549 C566 1.574 . S
C549 C568 1.368 . S
C549 H573 0.949 . S
H550 C554 0.949 . S
C551 C552 1.349 . S
C551 C553 1.327 . S
C551 H574 0.950 . S
C552 C551 1.349 . S
C552 C564 1.349 . S
C553 C551 1.327 . S
C553 C569 1.429 . S
C553 H575 0.950 . S
C554 H550 0.949 . S
C554 C562 1.574 . S
C554 C570 1.368 . S
H555 C563 0.950 . S
H556 C561 0.950 . S
H557 C562 0.949 . S
H558 C564 0.950 . S
H559 C565 0.950 . S
H560 C566 0.949 . S
C561 H556 0.950 . S
C561 C563 1.327 . S
C561 C567 1.429 . S
C562 C554 1.574 . S
C562 H557 0.949 . S
C562 C568 1.368 . S
C563 C547 1.349 . S
C563 H555 0.950 . S
C563 C561 1.327 . S
C564 C552 1.349 . S
C564 H558 0.950 . S
C564 C565 1.327 . S
C565 H559 0.950 . S
C565 C564 1.327 . S
C565 C569 1.429 . S
C566 C549 1.574 . S
C566 H560 0.949 . S
C566 C570 1.368 . S
C567 C548 1.429 . S
C567 C561 1.429 . S
C567 C568 1.523 . S
C568 C549 1.368 . S
C568 C562 1.368 . S
C568 C567 1.523 . S
C569 C553 1.429 . S
C569 C565 1.429 . S
C569 C570 1.523 . S
C570 C554 1.368 . S
C570 C566 1.368 . S
C570 C569 1.523 . S
H571 C546 0.950 . S
H572 C548 0.950 . S
H573 C549 0.949 . S
H574 C551 0.950 . S
H575 C553 0.950 . S
C576 C577 1.349 . S
C576 C578 1.327 . S
C576 H601 0.950 . S
C577 C576 1.349 . S
C577 C593 1.349 . S
C578 C576 1.327 . S
C578 C597 1.429 . S
C578 H602 0.950 . S
C579 C596 1.574 . S
C579 C598 1.368 . S
C579 H603 0.949 . S
H580 C584 0.949 . S
C581 C582 1.349 . S
C581 C583 1.327 . S
C581 H604 0.950 . S
C582 C581 1.349 . S
C582 C594 1.349 . S
C583 C581 1.327 . S
C583 C599 1.429 . S
C583 H605 0.950 . S
C584 H580 0.949 . S
C584 C592 1.574 . S
C584 C600 1.368 . S
H585 C593 0.950 . S
H586 C591 0.950 . S
H587 C592 0.949 . S
H588 C594 0.950 . S
H589 C595 0.950 . S
H590 C596 0.949 . S
C591 H586 0.950 . S
C591 C593 1.327 . S
C591 C597 1.429 . S
C592 C584 1.574 . S
C592 H587 0.949 . S
C592 C598 1.368 . S
C593 C577 1.349 . S
C593 H585 0.950 . S
C593 C591 1.327 . S
C594 C582 1.349 . S
C594 H588 0.950 . S
C594 C595 1.327 . S
C595 H589 0.950 . S
C595 C594 1.327 . S
C595 C599 1.429 . S
C596 C579 1.574 . S
C596 H590 0.949 . S
C596 C600 1.368 . S
C597 C578 1.429 . S
C597 C591 1.429 . S
C597 C598 1.523 . S
C598 C579 1.368 . S
C598 C592 1.368 . S
C598 C597 1.523 . S
C599 C583 1.429 . S
C599 C595 1.429 . S
C599 C600 1.523 . S
C600 C584 1.368 . S
C600 C596 1.368 . S
C600 C599 1.523 . S
H601 C576 0.950 . S
H602 C578 0.950 . S
H603 C579 0.949 . S
H604 C581 0.950 . S
H605 C583 0.950 . S
C606 C607 1.349 . S
C606 C608 1.327 . S
C606 H631 0.950 . S
C607 C606 1.349 . S
C607 C623 1.349 . S
C608 C606 1.327 . S
C608 C627 1.429 . S
C608 H632 0.950 . S
C609 C626 1.574 . S
C609 C628 1.368 . S
C609 H633 0.949 . S
H610 C614 0.949 . S
C611 C612 1.349 . S
C611 C613 1.327 . S
C611 H634 0.950 . S
C612 C611 1.349 . S
C612 C624 1.349 . S
C613 C611 1.327 . S
C613 C629 1.429 . S
C613 H635 0.950 . S
C614 H610 0.949 . S
C614 C622 1.574 . S
C614 C630 1.368 . S
H615 C623 0.950 . S
H616 C621 0.950 . S
H617 C622 0.949 . S
H618 C624 0.950 . S
H619 C625 0.950 . S
H620 C626 0.949 . S
C621 H616 0.950 . S
C621 C623 1.327 . S
C621 C627 1.429 . S
C622 C614 1.574 . S
C622 H617 0.949 . S
C622 C628 1.368 . S
C623 C607 1.349 . S
C623 H615 0.950 . S
C623 C621 1.327 . S
C624 C612 1.349 . S
C624 H618 0.950 . S
C624 C625 1.327 . S
C625 H619 0.950 . S
C625 C624 1.327 . S
C625 C629 1.429 . S
C626 C609 1.574 . S
C626 H620 0.949 . S
C626 C630 1.368 . S
C627 C608 1.429 . S
C627 C621 1.429 . S
C627 C628 1.523 . S
C628 C609 1.368 . S
C628 C622 1.368 . S
C628 C627 1.523 . S
C629 C613 1.429 . S
C629 C625 1.429 . S
C629 C630 1.523 . S
C630 C614 1.368 . S
C630 C626 1.368 . S
C630 C629 1.523 . S
H631 C606 0.950 . S
H632 C608 0.950 . S
H633 C609 0.949 . S
H634 C611 0.950 . S
H635 C613 0.950 . S
C636 C637 1.349 . S
C636 C638 1.327 . S
C636 H661 0.950 . S
C637 C636 1.349 . S
C637 C653 1.349 . S
C638 C636 1.327 . S
C638 C657 1.429 . S
C638 H662 0.950 . S
C639 C656 1.574 . S
C639 C658 1.368 . S
C639 H663 0.949 . S
H640 C644 0.949 . S
C641 C642 1.349 . S
C641 C643 1.327 . S
C641 H664 0.950 . S
C642 C641 1.349 . S
C642 C654 1.349 . S
C643 C641 1.327 . S
C643 C659 1.429 . S
C643 H665 0.950 . S
C644 H640 0.949 . S
C644 C652 1.574 . S
C644 C660 1.368 . S
H645 C653 0.950 . S
H646 C651 0.950 . S
H647 C652 0.949 . S
H648 C654 0.950 . S
H649 C655 0.950 . S
H650 C656 0.949 . S
C651 H646 0.950 . S
C651 C653 1.327 . S
C651 C657 1.429 . S
C652 C644 1.574 . S
C652 H647 0.949 . S
C652 C658 1.368 . S
C653 C637 1.349 . S
C653 H645 0.950 . S
C653 C651 1.327 . S
C654 C642 1.349 . S
C654 H648 0.950 . S
C654 C655 1.327 . S
C655 H649 0.950 . S
C655 C654 1.327 . S
C655 C659 1.429 . S
C656 C639 1.574 . S
C656 H650 0.949 . S
C656 C660 1.368 . S
C657 C638 1.429 . S
C657 C651 1.429 . S
C657 C658 1.523 . S
C658 C639 1.368 . S
C658 C652 1.368 . S
C658 C657 1.523 . S
C659 C643 1.429 . S
C659 C655 1.429 . S
C659 C660 1.523 . S
C660 C644 1.368 . S
C660 C656 1.368 . S
C660 C659 1.523 . S
H661 C636 0.950 . S
H662 C638 0.950 . S
H663 C639 0.949 . S
H664 C641 0.950 . S
H665 C643 0.950 . S
C666 C667 1.349 . S
C666 C668 1.327 . S
C666 H691 0.950 . S
C667 C666 1.349 . S
C667 C683 1.349 . S
C668 C666 1.327 . S
C668 C687 1.429 . S
C668 H692 0.950 . S
C669 C686 1.574 . S
C669 C688 1.368 . S
C669 H693 0.949 . S
H670 C674 0.949 . S
C671 C672 1.349 . S
C671 C673 1.327 . S
C671 H694 0.950 . S
C672 C671 1.349 . S
C672 C684 1.349 . S
C673 C671 1.327 . S
C673 C689 1.429 . S
C673 H695 0.950 . S
C674 H670 0.949 . S
C674 C682 1.574 . S
C674 C690 1.368 . S
H675 C683 0.950 . S
H676 C681 0.950 . S
H677 C682 0.949 . S
H678 C684 0.950 . S
H679 C685 0.950 . S
H680 C686 0.949 . S
C681 H676 0.950 . S
C681 C683 1.327 . S
C681 C687 1.429 . S
C682 C674 1.574 . S
C682 H677 0.949 . S
C682 C688 1.368 . S
C683 C667 1.349 . S
C683 H675 0.950 . S
C683 C681 1.327 . S
C684 C672 1.349 . S
C684 H678 0.950 . S
C684 C685 1.327 . S
C685 H679 0.950 . S
C685 C684 1.327 . S
C685 C689 1.429 . S
C686 C669 1.574 . S
C686 H680 0.949 . S
C686 C690 1.368 . S
C687 C668 1.429 . S
C687 C681 1.429 . S
C687 C688 1.523 . S
C688 C669 1.368 . S
C688 C682 1.368 . S
C688 C687 1.523 . S
C689 C673 1.429 . S
C689 C685 1.429 . S
C689 C690 1.523 . S
C690 C674 1.368 . S
C690 C686 1.368 . S
C690 C689 1.523 . S
H691 C666 0.950 . S
H692 C668 0.950 . S
H693 C669 0.949 . S
H694 C671 0.950 . S
H695 C673 0.950 . S
C696 C697 1.349 . S
C696 C698 1.327 . S
C696 H721 0.950 . S
C697 C696 1.349 . S
C697 C713 1.349 . S
C698 C696 1.327 . S
C698 C717 1.429 . S
C698 H722 0.950 . S
C699 C716 1.574 . S
C699 C718 1.368 . S
C699 H723 0.949 . S
H700 C704 0.949 . S
C701 C702 1.349 . S
C701 C703 1.327 . S
C701 H724 0.950 . S
C702 C701 1.349 . S
C702 C714 1.349 . S
C703 C701 1.327 . S
C703 C719 1.429 . S
C703 H725 0.950 . S
C704 H700 0.949 . S
C704 C712 1.574 . S
C704 C720 1.368 . S
H705 C713 0.950 . S
H706 C711 0.950 . S
H707 C712 0.949 . S
H708 C714 0.950 . S
H709 C715 0.950 . S
H710 C716 0.949 . S
C711 H706 0.950 . S
C711 C713 1.327 . S
C711 C717 1.429 . S
C712 C704 1.574 . S
C712 H707 0.949 . S
C712 C718 1.368 . S
C713 C697 1.349 . S
C713 H705 0.950 . S
C713 C711 1.327 . S
C714 C702 1.349 . S
C714 H708 0.950 . S
C714 C715 1.327 . S
C715 H709 0.950 . S
C715 C714 1.327 . S
C715 C719 1.429 . S
C716 C699 1.574 . S
C716 H710 0.949 . S
C716 C720 1.368 . S
C717 C698 1.429 . S
C717 C711 1.429 . S
C717 C718 1.523 . S
C718 C699 1.368 . S
C718 C712 1.368 . S
C718 C717 1.523 . S
C719 C703 1.429 . S
C719 C715 1.429 . S
C719 C720 1.523 . S
C720 C704 1.368 . S
C720 C716 1.368 . S
C720 C719 1.523 . S
H721 C696 0.950 . S
H722 C698 0.950 . S
H723 C699 0.949 . S
H724 C701 0.950 . S
H725 C703 0.950 . S
C726 C727 1.349 . S
C726 C728 1.327 . S
C726 H751 0.950 . S
C727 C726 1.349 . S
C727 C743 1.349 . S
C728 C726 1.327 . S
C728 C747 1.429 . S
C728 H752 0.950 . S
C729 C746 1.574 . S
C729 C748 1.368 . S
C729 H753 0.949 . S
H730 C734 0.949 . S
C731 C732 1.349 . S
C731 C733 1.327 . S
C731 H754 0.950 . S
C732 C731 1.349 . S
C732 C744 1.349 . S
C733 C731 1.327 . S
C733 C749 1.429 . S
C733 H755 0.950 . S
C734 H730 0.949 . S
C734 C742 1.574 . S
C734 C750 1.368 . S
H735 C743 0.950 . S
H736 C741 0.950 . S
H737 C742 0.949 . S
H738 C744 0.950 . S
H739 C745 0.950 . S
H740 C746 0.949 . S
C741 H736 0.950 . S
C741 C743 1.327 . S
C741 C747 1.429 . S
C742 C734 1.574 . S
C742 H737 0.949 . S
C742 C748 1.368 . S
C743 C727 1.349 . S
C743 H735 0.950 . S
C743 C741 1.327 . S
C744 C732 1.349 . S
C744 H738 0.950 . S
C744 C745 1.327 . S
C745 H739 0.950 . S
C745 C744 1.327 . S
C745 C749 1.429 . S
C746 C729 1.574 . S
C746 H740 0.949 . S
C746 C750 1.368 . S
C747 C728 1.429 . S
C747 C741 1.429 . S
C747 C748 1.523 . S
C748 C729 1.368 . S
C748 C742 1.368 . S
C748 C747 1.523 . S
C749 C733 1.429 . S
C749 C745 1.429 . S
C749 C750 1.523 . S
C750 C734 1.368 . S
C750 C746 1.368 . S
C750 C749 1.523 . S
H751 C726 0.950 . S
H752 C728 0.950 . S
H753 C729 0.949 . S
H754 C731 0.950 . S
H755 C733 0.950 . S
C756 C757 1.349 . S
C756 C758 1.327 . S
C756 H781 0.950 . S
C757 C756 1.349 . S
C757 C773 1.349 . S
C758 C756 1.327 . S
C758 C777 1.429 . S
C758 H782 0.950 . S
C759 C776 1.574 . S
C759 C778 1.368 . S
C759 H783 0.949 . S
H760 C764 0.949 . S
C761 C762 1.349 . S
C761 C763 1.327 . S
C761 H784 0.950 . S
C762 C761 1.349 . S
C762 C774 1.349 . S
C763 C761 1.327 . S
C763 C779 1.429 . S
C763 H785 0.950 . S
C764 H760 0.949 . S
C764 C772 1.574 . S
C764 C780 1.368 . S
H765 C773 0.950 . S
H766 C771 0.950 . S
H767 C772 0.949 . S
H768 C774 0.950 . S
H769 C775 0.950 . S
H770 C776 0.949 . S
C771 H766 0.950 . S
C771 C773 1.327 . S
C771 C777 1.429 . S
C772 C764 1.574 . S
C772 H767 0.949 . S
C772 C778 1.368 . S
C773 C757 1.349 . S
C773 H765 0.950 . S
C773 C771 1.327 . S
C774 C762 1.349 . S
C774 H768 0.950 . S
C774 C775 1.327 . S
C775 H769 0.950 . S
C775 C774 1.327 . S
C775 C779 1.429 . S
C776 C759 1.574 . S
C776 H770 0.949 . S
C776 C780 1.368 . S
C777 C758 1.429 . S
C777 C771 1.429 . S
C777 C778 1.523 . S
C778 C759 1.368 . S
C778 C772 1.368 . S
C778 C777 1.523 . S
C779 C763 1.429 . S
C779 C775 1.429 . S
C779 C780 1.523 . S
C780 C764 1.368 . S
C780 C776 1.368 . S
C780 C779 1.523 . S
H781 C756 0.950 . S
H782 C758 0.950 . S
H783 C759 0.949 . S
H784 C761 0.950 . S
H785 C763 0.950 . S
C786 C787 1.349 . S
C786 C788 1.327 . S
C786 H811 0.950 . S
C787 C786 1.349 . S
C787 C803 1.349 . S
C788 C786 1.327 . S
C788 C807 1.429 . S
C788 H812 0.950 . S
C789 C806 1.574 . S
C789 C808 1.368 . S
C789 H813 0.949 . S
H790 C794 0.949 . S
C791 C792 1.349 . S
C791 C793 1.327 . S
C791 H814 0.950 . S
C792 C791 1.349 . S
C792 C804 1.349 . S
C793 C791 1.327 . S
C793 C809 1.429 . S
C793 H815 0.950 . S
C794 H790 0.949 . S
C794 C802 1.574 . S
C794 C810 1.368 . S
H795 C803 0.950 . S
H796 C801 0.950 . S
H797 C802 0.949 . S
H798 C804 0.950 . S
H799 C805 0.950 . S
H800 C806 0.949 . S
C801 H796 0.950 . S
C801 C803 1.327 . S
C801 C807 1.429 . S
C802 C794 1.574 . S
C802 H797 0.949 . S
C802 C808 1.368 . S
C803 C787 1.349 . S
C803 H795 0.950 . S
C803 C801 1.327 . S
C804 C792 1.349 . S
C804 H798 0.950 . S
C804 C805 1.327 . S
C805 H799 0.950 . S
C805 C804 1.327 . S
C805 C809 1.429 . S
C806 C789 1.574 . S
C806 H800 0.949 . S
C806 C810 1.368 . S
C807 C788 1.429 . S
C807 C801 1.429 . S
C807 C808 1.523 . S
C808 C789 1.368 . S
C808 C802 1.368 . S
C808 C807 1.523 . S
C809 C793 1.429 . S
C809 C805 1.429 . S
C809 C810 1.523 . S
C810 C794 1.368 . S
C810 C806 1.368 . S
C810 C809 1.523 . S
H811 C786 0.950 . S
H812 C788 0.950 . S
H813 C789 0.949 . S
H814 C791 0.950 . S
H815 C793 0.950 . S
C816 C817 1.349 . S
C816 C818 1.327 . S
C816 H841 0.950 . S
C817 C816 1.349 . S
C817 C833 1.349 . S
C818 C816 1.327 . S
C818 C837 1.429 . S
C818 H842 0.950 . S
C819 C836 1.574 . S
C819 C838 1.368 . S
C819 H843 0.949 . S
H820 C824 0.949 . S
C821 C822 1.349 . S
C821 C823 1.327 . S
C821 H844 0.950 . S
C822 C821 1.349 . S
C822 C834 1.349 . S
C823 C821 1.327 . S
C823 C839 1.429 . S
C823 H845 0.950 . S
C824 H820 0.949 . S
C824 C832 1.574 . S
C824 C840 1.368 . S
H825 C833 0.950 . S
H826 C831 0.950 . S
H827 C832 0.949 . S
H828 C834 0.950 . S
H829 C835 0.950 . S
H830 C836 0.949 . S
C831 H826 0.950 . S
C831 C833 1.327 . S
C831 C837 1.429 . S
C832 C824 1.574 . S
C832 H827 0.949 . S
C832 C838 1.368 . S
C833 C817 1.349 . S
C833 H825 0.950 . S
C833 C831 1.327 . S
C834 C822 1.349 . S
C834 H828 0.950 . S
C834 C835 1.327 . S
C835 H829 0.950 . S
C835 C834 1.327 . S
C835 C839 1.429 . S
C836 C819 1.574 . S
C836 H830 0.949 . S
C836 C840 1.368 . S
C837 C818 1.429 . S
C837 C831 1.429 . S
C837 C838 1.523 . S
C838 C819 1.368 . S
C838 C832 1.368 . S
C838 C837 1.523 . S
C839 C823 1.429 . S
C839 C835 1.429 . S
C839 C840 1.523 . S
C840 C824 1.368 . S
C840 C836 1.368 . S
C840 C839 1.523 . S
H841 C816 0.950 . S
H842 C818 0.950 . S
H843 C819 0.949 . S
H844 C821 0.950 . S
H845 C823 0.950 . S
C846 C847 1.349 . S
C846 C848 1.327 . S
C846 H871 0.950 . S
C847 C846 1.349 . S
C847 C863 1.349 . S
C848 C846 1.327 . S
C848 C867 1.429 . S
C848 H872 0.950 . S
C849 C866 1.574 . S
C849 C868 1.368 . S
C849 H873 0.949 . S
H850 C854 0.949 . S
C851 C852 1.349 . S
C851 C853 1.327 . S
C851 H874 0.950 . S
C852 C851 1.349 . S
C852 C864 1.349 . S
C853 C851 1.327 . S
C853 C869 1.429 . S
C853 H875 0.950 . S
C854 H850 0.949 . S
C854 C862 1.574 . S
C854 C870 1.368 . S
H855 C863 0.950 . S
H856 C861 0.950 . S
H857 C862 0.949 . S
H858 C864 0.950 . S
H859 C865 0.950 . S
H860 C866 0.949 . S
C861 H856 0.950 . S
C861 C863 1.327 . S
C861 C867 1.429 . S
C862 C854 1.574 . S
C862 H857 0.949 . S
C862 C868 1.368 . S
C863 C847 1.349 . S
C863 H855 0.950 . S
C863 C861 1.327 . S
C864 C852 1.349 . S
C864 H858 0.950 . S
C864 C865 1.327 . S
C865 H859 0.950 . S
C865 C864 1.327 . S
C865 C869 1.429 . S
C866 C849 1.574 . S
C866 H860 0.949 . S
C866 C870 1.368 . S
C867 C848 1.429 . S
C867 C861 1.429 . S
C867 C868 1.523 . S
C868 C849 1.368 . S
C868 C862 1.368 . S
C868 C867 1.523 . S
C869 C853 1.429 . S
C869 C865 1.429 . S
C869 C870 1.523 . S
C870 C854 1.368 . S
C870 C866 1.368 . S
C870 C869 1.523 . S
H871 C846 0.950 . S
H872 C848 0.950 . S
H873 C849 0.949 . S
H874 C851 0.950 . S
H875 C853 0.950 . S
C157 C5 1.595 . S
C162 C68 1.595 . S
C187 C17 1.576 . S
C192 C62 1.576 . S
C217 C70 1.581 . S
C222 C30 1.577 . S
C247 C42 1.593 . S
C252 C56 1.590 . S
C277 C96 1.581 . S
C282 C36 1.577 . S
C307 C82 1.590 . S
C312 C44 1.593 . S
C337 C3 1.595 . S
C342 C94 1.595 . S
C367 C88 1.576 . S
C372 C23 1.576 . S
C397 C122 1.601 . S
C402 C107 1.601 . S
C427 C109 1.587 . S
C432 C153 1.584 . S
C457 C120 1.587 . S
C462 C140 1.584 . S
C487 C134 1.570 . S
C492 C147 1.570 . S
C517 C148 1.595 . S
C522 C83 1.595 . S
C547 C108 1.576 . S
C552 C101 1.576 . S
C577 C81 1.581 . S
C582 C121 1.577 . S
C607 C95 1.590 . S
C612 C133 1.593 . S
C637 C57 1.581 . S
C642 C127 1.577 . S
C667 C75 1.590 . S
C672 C135 1.593 . S
C697 C146 1.595 . S
C702 C55 1.595 . S
C727 C114 1.576 . S
C732 C69 1.576 . S
C757 C16 1.601 . S
C762 C31 1.601 . S
C787 C10 1.584 . S
C792 C18 1.587 . S
C817 C29 1.587 . S
C822 C49 1.584 . S
C847 C4 1.570 . S
C852 C43 1.570 . S
