# Generated by pormake.
# Topology sof, (5)-cn, num edge types: 1
# Building blocks:
#     Node 0, Type 0, BuildingBlock: BEQFEK_clean_sbu_0, # of connection points: 5
#     Node 1, Type 0, BuildingBlock: BEQFEK_clean_sbu_0, # of connection points: 5
#     Node 2, Type 0, BuildingBlock: BEQFEK_clean_sbu_0, # of connection points: 5
#     Node 3, Type 0, BuildingBlock: BEQFEK_clean_sbu_0, # of connection points: 5
#     Node 4, Type 0, BuildingBlock: BEQFEK_clean_sbu_0, # of connection points: 5
#     Node 5, Type 0, BuildingBlock: BEQFEK_clean_sbu_0, # of connection points: 5
#     Node 6, Type 0, BuildingBlock: BEQFEK_clean_sbu_0, # of connection points: 5
#     Node 7, Type 0, BuildingBlock: BEQFEK_clean_sbu_0, # of connection points: 5
#     Edge 8, Type (0, 0), BuildingBlock: XIVTED_clean_linker_0, # of connection points: 2
#     Edge 9, Type (0, 0), BuildingBlock: XIVTED_clean_linker_0, # of connection points: 2
#     Edge 10, Type (0, 0), BuildingBlock: XIVTED_clean_linker_0, # of connection points: 2
#     Edge 11, Type (0, 0), BuildingBlock: XIVTED_clean_linker_0, # of connection points: 2
#     Edge 12, Type (0, 0), BuildingBlock: XIVTED_clean_linker_0, # of connection points: 2
#     Edge 13, Type (0, 0), BuildingBlock: XIVTED_clean_linker_0, # of connection points: 2
#     Edge 14, Type (0, 0), BuildingBlock: XIVTED_clean_linker_0, # of connection points: 2
#     Edge 15, Type (0, 0), BuildingBlock: XIVTED_clean_linker_0, # of connection points: 2
#     Edge 16, Type (0, 0), BuildingBlock: XIVTED_clean_linker_0, # of connection points: 2
#     Edge 17, Type (0, 0), BuildingBlock: XIVTED_clean_linker_0, # of connection points: 2
#     Edge 18, Type (0, 0), BuildingBlock: XIVTED_clean_linker_0, # of connection points: 2
#     Edge 19, Type (0, 0), BuildingBlock: XIVTED_clean_linker_0, # of connection points: 2
#     Edge 20, Type (0, 0), BuildingBlock: XIVTED_clean_linker_0, # of connection points: 2
#     Edge 21, Type (0, 0), BuildingBlock: XIVTED_clean_linker_0, # of connection points: 2
#     Edge 22, Type (0, 0), BuildingBlock: XIVTED_clean_linker_0, # of connection points: 2
#     Edge 23, Type (0, 0), BuildingBlock: XIVTED_clean_linker_0, # of connection points: 2
#     Edge 24, Type (0, 0), BuildingBlock: XIVTED_clean_linker_0, # of connection points: 2
#     Edge 25, Type (0, 0), BuildingBlock: XIVTED_clean_linker_0, # of connection points: 2
#     Edge 26, Type (0, 0), BuildingBlock: XIVTED_clean_linker_0, # of connection points: 2
#     Edge 27, Type (0, 0), BuildingBlock: XIVTED_clean_linker_0, # of connection points: 2
# Relax obj value: 0.156
# Max RMSD: 0.171
# Mean RMSD: 0.171
data_MOF--net-sof--node1-BEQFEK_clean_sbu_0--edge1-XIVTED_clean_linker_0
_symmetry_space_group_name_H-M    P1
_symmetry_Int_Tables_number       1
_symmetry_cell_setting            triclinic
loop_
_symmetry_equiv_pos_as_xyz
'x, y, z'
_cell_length_a     59.25251
_cell_length_b     19.043273
_cell_length_c     44.299632
_cell_angle_alpha  90.071967
_cell_angle_beta   90.022901
_cell_angle_gamma 89.928376
loop_
_atom_site_label
_atom_site_type_symbol
_atom_site_fract_x
_atom_site_fract_y
_atom_site_fract_z
_atom_type_partial_charge
Co0 Co 0.12732 0.14064 0.08074 0.0
Co1 Co 0.12306 -0.00648 0.11132 0.0
C2 C 0.16656 0.0481 0.08263 0.0
O3 O 0.15806 0.10407 0.07174 0.0
O4 O 0.15477 0.00583 0.09827 0.0
C5 C 0.13833 0.27984 0.06169 0.0
O6 O 0.15938 0.25868 0.06379 0.0
C7 C 0.12904 0.84133 0.10979 0.0
C8 C 0.10098 0.8044 0.13847 0.0
C9 C 0.11774 0.78119 0.119 0.0
N10 N 0.11877 0.89741 0.12216 0.0
N11 N 0.10238 0.87491 0.13989 0.0
C12 C 0.14993 0.84609 0.09087 0.0
H13 H 0.16247 0.87966 0.10249 0.0
H14 H 0.14576 0.8706 0.06884 0.0
H15 H 0.15799 0.79423 0.08732 0.0
C16 C 0.08747 0.08891 0.04717 0.0
N17 N 0.10447 0.07956 0.06699 0.0
N18 N 0.10249 0.01757 0.07978 0.0
C19 C 0.08416 0.98519 0.06824 0.0
C20 C 0.07395 0.02943 0.04743 0.0
C21 C 0.08318 0.15643 0.03091 0.0
H22 H 0.07987 0.1985 0.04769 0.0
H23 H 0.09849 0.17143 0.01804 0.0
H24 H 0.06856 0.15268 0.01537 0.0
O25 O 0.12416 0.1563 0.12479 0.0
O26 O 0.11822 0.05393 0.14716 0.0
H27 H 0.07 0.91423 0.10034 0.0
H28 H 0.06292 0.8938 0.06169 0.0
C29 C 0.07645 0.91317 0.07686 0.0
H30 H 0.09083 0.87615 0.07556 0.0
H31 H 0.09143 0.90785 0.15175 0.0
O32 O 0.1225 0.23563 0.06478 0.0
C33 C 0.12017 0.12047 0.14841 0.0
Co34 Co 0.36926 0.84777 0.07955 0.0
Co35 Co 0.37588 -0.00571 0.10998 0.0
C36 C 0.33169 0.94789 0.08076 0.0
O37 O 0.33928 0.88993 0.07056 0.0
O38 O 0.34405 0.98879 0.09635 0.0
C39 C 0.35531 0.71007 0.06736 0.0
O40 O 0.33627 0.73552 0.07796 0.0
C41 C 0.37428 0.14456 0.10252 0.0
C42 C 0.39279 0.18584 0.14198 0.0
C43 C 0.38146 0.20622 0.11601 0.0
N44 N 0.38091 0.09032 0.11968 0.0
N45 N 0.39188 0.11515 0.14338 0.0
C46 C 0.36291 0.13624 0.07254 0.0
H47 H 0.3673 0.08472 0.06238 0.0
H48 H 0.36785 0.17912 0.05694 0.0
H49 H 0.34435 0.1381 0.07581 0.0
C50 C 0.40966 0.89455 0.04544 0.0
N51 N 0.39308 0.90518 0.06572 0.0
N52 N 0.39624 0.96599 0.07915 0.0
C53 C 0.41512 -0.00423 0.0681 0.0
C54 C 0.42421 0.95174 0.0462 0.0
C55 C 0.41146 0.83056 0.02598 0.0
H56 H 0.3944 0.81376 0.01861 0.0
H57 H 0.42217 0.84053 0.0059 0.0
H58 H 0.41901 0.78725 0.03935 0.0
O59 O 0.37235 0.83253 0.12374 0.0
O60 O 0.37938 0.93441 0.14616 0.0
H61 H 0.44365 0.06541 0.07469 0.0
H62 H 0.41647 0.10761 0.07148 0.0
C63 C 0.42552 0.06125 0.08062 0.0
H64 H 0.42392 0.06165 0.10554 0.0
H65 H 0.39901 0.08389 0.1602 0.0
O66 O 0.37181 0.75152 0.06327 0.0
C67 C 0.37665 0.86812 0.1474 0.0
Co68 Co 0.12932 0.33667 0.41662 0.0
Co69 Co 0.12257 0.48541 0.3899 0.0
C70 C 0.16644 0.43816 0.41935 0.0
O71 O 0.15884 0.37828 0.42687 0.0
O72 O 0.15426 0.48159 0.40483 0.0
C73 C 0.13088 0.19664 0.45089 0.0
O74 O 0.13244 0.22115 0.47853 0.0
C75 C 0.12038 0.63455 0.40144 0.0
C76 C 0.10903 0.67818 0.35781 0.0
C77 C 0.11536 0.69685 0.38687 0.0
N78 N 0.11689 0.58143 0.38205 0.0
N79 N 0.11001 0.60763 0.35602 0.0
C80 C 0.12975 0.62554 0.43262 0.0
H81 H 0.13474 0.57039 0.43681 0.0
H82 H 0.11678 0.63978 0.44956 0.0
H83 H 0.14445 0.66086 0.4359 0.0
C84 C 0.0868 0.37485 0.44923 0.0
N85 N 0.10443 0.38959 0.43106 0.0
N86 N 0.10128 0.45177 0.41878 0.0
C87 C 0.08142 0.47815 0.42841 0.0
C88 C 0.07165 0.4305 0.44816 0.0
C89 C 0.08352 0.30618 0.46494 0.0
H90 H 0.08701 0.26249 0.44905 0.0
H91 H 0.09566 0.30248 0.48393 0.0
H92 H 0.06613 0.30078 0.47389 0.0
O93 O 0.12657 0.32695 0.37242 0.0
O94 O 0.12014 0.43084 0.35177 0.0
H95 H 0.07361 0.55273 0.39366 0.0
H96 H 0.05392 0.55373 0.42478 0.0
C97 C 0.07187 0.54727 0.41847 0.0
H98 H 0.0814 0.59019 0.42946 0.0
H99 H 0.10641 0.57752 0.33693 0.0
O100 O 0.12929 0.23789 0.42855 0.0
C101 C 0.12269 0.36467 0.34934 0.0
Co102 Co 0.36915 0.64497 0.41528 0.0
Co103 Co 0.37402 0.49641 0.38632 0.0
C104 C 0.33085 0.54623 0.41677 0.0
O105 O 0.33896 0.60545 0.42451 0.0
O106 O 0.34263 0.50189 0.40207 0.0
C107 C 0.35539 0.78182 0.42926 0.0
O108 O 0.33596 0.75647 0.42002 0.0
C109 C 0.37251 0.34587 0.39306 0.0
C110 C 0.39078 0.30602 0.3531 0.0
C111 C 0.37966 0.2848 0.37907 0.0
N112 N 0.37896 0.40071 0.37618 0.0
N113 N 0.38977 0.37675 0.35218 0.0
C114 C 0.36196 0.35283 0.42363 0.0
H115 H 0.36544 0.40545 0.43334 0.0
H116 H 0.36846 0.31163 0.43908 0.0
H117 H 0.34345 0.34619 0.42155 0.0
C118 C 0.4101 0.59787 0.44805 0.0
N119 N 0.39284 0.58652 0.42886 0.0
N120 N 0.3954 0.52478 0.41596 0.0
C121 C 0.41454 0.49502 0.42632 0.0
C122 C 0.42448 0.54028 0.44702 0.0
C123 C 0.41367 0.66547 0.46461 0.0
H124 H 0.41611 0.70836 0.44799 0.0
H125 H 0.39835 0.67815 0.47795 0.0
H126 H 0.42857 0.66314 0.47973 0.0
O127 O 0.37203 0.65967 0.37131 0.0
O128 O 0.37669 0.55573 0.34955 0.0
H129 H 0.4241 0.42298 0.39143 0.0
H130 H 0.43998 0.41255 0.42605 0.0
C131 C 0.42317 0.42472 0.41642 0.0
H132 H 0.41129 0.38353 0.42399 0.0
H133 H 0.39676 0.40861 0.33549 0.0
O134 O 0.37213 0.74056 0.43176 0.0
C135 C 0.37516 0.62238 0.34783 0.0
Co136 Co 0.86932 0.83949 0.91686 0.0
Co137 Co 0.87317 0.98756 0.88718 0.0
C138 C 0.83103 0.93835 0.92019 0.0
O139 O 0.83945 0.87938 0.92773 0.0
O140 O 0.84228 0.98228 0.90465 0.0
C141 C 0.8561 0.70275 0.93171 0.0
O142 O 0.83638 0.72819 0.92368 0.0
C143 C 0.87166 0.13826 0.89378 0.0
C144 C 0.88865 0.17771 0.85282 0.0
C145 C 0.87833 0.19923 0.87937 0.0
N146 N 0.87763 0.08323 0.87659 0.0
N147 N 0.88766 0.10697 0.852 0.0
C148 C 0.86208 0.13157 0.92491 0.0
H149 H 0.86595 0.0791 0.93448 0.0
H150 H 0.86897 0.173 0.93995 0.0
H151 H 0.84351 0.13797 0.92385 0.0
C152 C 0.91127 0.88724 0.94702 0.0
N153 N 0.89343 0.89818 0.92878 0.0
N154 N 0.8955 0.95973 0.91564 0.0
C155 C 0.9149 0.9898 0.9249 0.0
C156 C 0.92554 0.94492 0.94511 0.0
C157 C 0.91538 0.82001 0.96359 0.0
H158 H 0.91689 0.7765 0.94702 0.0
H159 H 0.90067 0.80843 0.97824 0.0
H160 H 0.93097 0.8221 0.97743 0.0
O161 O 0.87066 0.82392 0.87284 0.0
O162 O 0.87476 0.92724 0.85047 0.0
H163 H 0.92315 0.06201 0.88958 0.0
H164 H 0.94006 0.07285 0.9233 0.0
C165 C 0.92301 0.06027 0.9146 0.0
H166 H 0.91125 0.10121 0.92287 0.0
H167 H 0.89416 0.07494 0.83496 0.0
O168 O 0.87289 0.74398 0.93326 0.0
C169 C 0.87307 0.86057 0.84907 0.0
Co170 Co 0.62882 0.14796 0.91741 0.0
Co171 Co 0.62531 5e-05 0.8876 0.0
C172 C 0.66736 0.05061 0.92065 0.0
O173 O 0.65887 0.10948 0.92822 0.0
O174 O 0.65616 0.00646 0.90512 0.0
C175 C 0.6413 0.28532 0.93349 0.0
O176 O 0.66138 0.2612 0.92633 0.0
C177 C 0.62647 0.85048 0.89607 0.0
C178 C 0.61199 0.8074 0.85403 0.0
C179 C 0.62085 0.78827 0.88182 0.0
N180 N 0.62135 0.90394 0.87762 0.0
N181 N 0.61277 0.87808 0.8524 0.0
C182 C 0.63469 0.85985 0.92778 0.0
H183 H 0.63025 0.91285 0.93636 0.0
H184 H 0.62736 0.81919 0.94279 0.0
H185 H 0.65332 0.85437 0.92821 0.0
C186 C 0.58746 0.09796 0.94841 0.0
N187 N 0.60504 0.08837 0.92959 0.0
N188 N 0.60298 0.02722 0.91607 0.0
C189 C 0.5838 -0.00375 0.92552 0.0
C190 C 0.57338 0.03979 0.9465 0.0
C191 C 0.58437 0.16177 0.9677 0.0
H192 H 0.60095 0.17964 0.97643 0.0
H193 H 0.57286 0.15106 0.9869 0.0
H194 H 0.57714 0.20462 0.95374 0.0
O195 O 0.6273 0.16303 0.87325 0.0
O196 O 0.62349 0.05951 0.85083 0.0
H197 H 0.55599 0.92588 0.91596 0.0
H198 H 0.58279 0.88422 0.92318 0.0
C199 C 0.57447 0.9299 0.91234 0.0
H200 H 0.57788 0.92804 0.88777 0.0
H201 H 0.6072 0.90861 0.83433 0.0
O202 O 0.6247 0.24327 0.93381 0.0
C203 C 0.62496 0.12621 0.84946 0.0
Co204 Co 0.87033 0.63578 0.5811 0.0
Co205 Co 0.8715 0.48589 0.61003 0.0
C206 C 0.8305 0.54284 0.57658 0.0
O207 O 0.83986 0.60114 0.57019 0.0
O208 O 0.84086 0.49571 0.59164 0.0
C209 C 0.86012 0.77402 0.56038 0.0
O210 O 0.83914 0.7519 0.56003 0.0
C211 C 0.86601 0.33316 0.61154 0.0
C212 C 0.89499 0.30026 0.63949 0.0
C213 C 0.87794 0.27451 0.62114 0.0
N214 N 0.87618 0.39084 0.62248 0.0
N215 N 0.8931 0.37075 0.63991 0.0
C216 C 0.84453 0.335 0.59385 0.0
H217 H 0.83252 0.37092 0.60523 0.0
H218 H 0.84796 0.35537 0.57084 0.0
H219 H 0.83644 0.28266 0.59246 0.0
C220 C 0.91094 0.5816 0.55008 0.0
N221 N 0.89333 0.57333 0.56897 0.0
N222 N 0.89406 0.51015 0.58093 0.0
C223 C 0.91211 0.47578 0.56956 0.0
C224 C 0.9235 0.52005 0.54994 0.0
C225 C 0.91633 0.64914 0.53445 0.0
H226 H 0.91818 0.69139 0.55154 0.0
H227 H 0.90207 0.66374 0.51946 0.0
H228 H 0.9321 0.64559 0.52107 0.0
O229 O 0.87177 0.65116 0.62483 0.0
O230 O 0.87369 0.5469 0.6467 0.0
H231 H 0.9253 0.39727 0.59909 0.0
H232 H 0.93042 0.37993 0.55971 0.0
C233 C 0.91798 0.40089 0.57613 0.0
H234 H 0.9026 0.36811 0.57496 0.0
H235 H 0.90414 0.4053 0.6507 0.0
O236 O 0.87592 0.73058 0.56546 0.0
C237 C 0.87327 0.61368 0.64842 0.0
Co238 Co 0.62755 0.34953 0.58085 0.0
Co239 Co 0.62414 0.498 0.61042 0.0
C240 C 0.66603 0.44709 0.57717 0.0
O241 O 0.65744 0.38837 0.56965 0.0
O242 O 0.65495 0.49136 0.59282 0.0
C243 C 0.64037 0.21252 0.56397 0.0
O244 O 0.66054 0.23741 0.57002 0.0
C245 C 0.62589 0.64839 0.60325 0.0
C246 C 0.60913 0.68931 0.64418 0.0
C247 C 0.6193 0.70991 0.61742 0.0
N248 N 0.61999 0.594 0.62076 0.0
N249 N 0.61011 0.6186 0.64535 0.0
C250 C 0.63535 0.64046 0.57209 0.0
H251 H 0.63116 0.58801 0.56271 0.0
H252 H 0.62866 0.68193 0.55693 0.0
H253 H 0.65397 0.64556 0.57306 0.0
C254 C 0.58589 0.39873 0.55039 0.0
N255 N 0.60362 0.40892 0.56891 0.0
N256 N 0.60165 0.47054 0.58211 0.0
C257 C 0.58239 0.5013 0.57267 0.0
C258 C 0.5718 0.45691 0.55221 0.0
C259 C 0.58178 0.33192 0.53347 0.0
H260 H 0.57975 0.28832 0.54984 0.0
H261 H 0.59671 0.31969 0.51927 0.0
H262 H 0.56647 0.33505 0.51912 0.0
O263 O 0.62635 0.33471 0.62498 0.0
O264 O 0.62255 0.43843 0.64725 0.0
H265 H 0.57464 0.57438 0.60797 0.0
H266 H 0.55721 0.58437 0.5747 0.0
C267 C 0.57441 0.57202 0.58297 0.0
H268 H 0.586 0.61275 0.57422 0.0
H269 H 0.60367 0.58719 0.66257 0.0
O270 O 0.62357 0.25399 0.56451 0.0
C271 C 0.62411 0.37174 0.64872 0.0
H272 H 0.19329 0.97869 0.1222 0.0
H273 H 0.30216 0.9042 0.03639 0.0
H274 H 0.19519 0.08384 0.03596 0.0
H275 H 0.3064 0.03336 0.11637 0.0
H276 H 0.26147 0.93176 0.03317 0.0
H277 H 0.23387 0.95693 0.11834 0.0
C278 C 0.2022 -0.00347 0.10228 0.0
C279 C 0.1909 0.03329 0.07936 0.0
C280 C 0.27156 0.95444 0.05109 0.0
C281 C 0.23706 0.00707 0.07473 0.0
C282 C 0.29461 0.93856 0.05307 0.0
C283 C 0.30764 0.96647 0.07671 0.0
C284 C 0.2616 -0.00332 0.07335 0.0
C285 C 0.29704 0.01086 0.09773 0.0
C286 C 0.22527 0.98419 0.10021 0.0
C287 C 0.20335 0.05568 0.05416 0.0
N288 N 0.27456 0.02353 0.09588 0.0
N289 N 0.2259 0.04176 0.05235 0.0
H290 H 0.31042 0.41771 0.41509 0.0
H291 H 0.1861 0.56822 0.4186 0.0
H292 H 0.29666 0.63653 0.43279 0.0
H293 H 0.20117 0.34929 0.43392 0.0
H294 H 0.2263 0.59526 0.42335 0.0
H295 H 0.27043 0.39183 0.4214 0.0
C296 C 0.29904 0.46027 0.42063 0.0
C297 C 0.30695 0.52944 0.42335 0.0
C298 C 0.22076 0.54146 0.42604 0.0
C299 C 0.26095 0.50023 0.43012 0.0
C300 C 0.19784 0.52591 0.42324 0.0
C301 C 0.19028 0.45625 0.42562 0.0
C302 C 0.2363 0.48684 0.43074 0.0
C303 C 0.20623 0.40367 0.43187 0.0
C304 C 0.27617 0.44539 0.42428 0.0
C305 C 0.29132 0.58243 0.43052 0.0
N306 N 0.22852 0.41992 0.43379 0.0
N307 N 0.269 0.56687 0.43325 0.0
H308 H 0.79759 0.84778 0.93803 0.0
H309 H 0.70092 0.14193 0.93745 0.0
H310 H 0.81012 0.06649 0.91892 0.0
H311 H 0.68816 0.92232 0.92033 0.0
H312 H 0.74112 0.11489 0.94355 0.0
H313 H 0.75742 0.87502 0.94439 0.0
C314 C 0.79199 0.90166 0.93565 0.0
C315 C 0.80724 0.95487 0.9277 0.0
C316 C 0.72942 0.07263 0.93881 0.0
C317 C 0.76142 0.98626 0.9351 0.0
C318 C 0.70648 0.08792 0.93546 0.0
C319 C 0.69117 0.03438 0.92811 0.0
C320 C 0.73702 0.00322 0.9352 0.0
C321 C 0.69937 0.96533 0.92574 0.0
C322 C 0.76907 0.91706 0.93915 0.0
C323 C 0.79899 0.02374 0.92484 0.0
N324 N 0.72174 0.95177 0.92917 0.0
N325 N 0.77664 0.03741 0.92844 0.0
H326 H 0.69848 0.35715 0.55536 0.0
H327 H 0.79751 0.64163 0.5683 0.0
H328 H 0.68798 0.573 0.58187 0.0
H329 H 0.80891 0.41797 0.56645 0.0
H330 H 0.75701 0.62051 0.562 0.0
H331 H 0.73868 0.38223 0.54852 0.0
C332 C 0.70453 0.41002 0.55933 0.0
C333 C 0.68983 0.4629 0.56947 0.0
C334 C 0.76843 0.57609 0.56274 0.0
C335 C 0.73577 0.49184 0.56164 0.0
C336 C 0.79154 0.58811 0.56617 0.0
C337 C 0.80655 0.53134 0.56856 0.0
C338 C 0.76032 0.50684 0.56137 0.0
C339 C 0.79789 0.46312 0.56559 0.0
C340 C 0.72749 0.4242 0.55552 0.0
C341 C 0.69867 0.53044 0.57424 0.0
N342 N 0.77533 0.45271 0.56234 0.0
N343 N 0.72106 0.54286 0.57044 0.0
H344 H 0.03374 0.00052 0.07405 0.0
H345 H 0.96613 0.96725 0.91793 0.0
H346 H 0.06438 0.03391 0.98708 0.0
H347 H 0.93508 0.94479 0.00528 0.0
H348 H 0.00249 0.98916 0.94259 0.0
H349 H 0.99756 0.97806 0.04921 0.0
C350 C 0.03275 0.00314 0.04965 0.0
C351 C 0.05193 0.01889 0.03248 0.0
C352 C 0.98776 0.97941 0.95642 0.0
C353 C 0.01072 -0.00663 0.00385 0.0
C354 C 0.96706 0.96698 0.94236 0.0
C355 C 0.94771 0.95477 0.95972 0.0
C356 C 0.98908 0.97931 0.98809 0.0
C357 C 0.94971 0.95398 0.9912 0.0
C358 C 0.01214 0.99042 0.03548 0.0
C359 C 0.04986 0.02224 0.00102 0.0
N360 N 0.97003 0.96629 0.00442 0.0
N361 N 0.0296 0.00937 0.98766 0.0
H362 H 0.45915 0.85895 0.04024 0.0
H363 H 0.53768 0.13038 0.95039 0.0
H364 H 0.43794 0.06739 0.01511 0.0
H365 H 0.55917 0.92266 0.97623 0.0
H366 H 0.50092 0.1082 0.9737 0.0
H367 H 0.49553 0.87975 0.01557 0.0
C368 C 0.46211 0.90879 0.02918 0.0
C369 C 0.44562 0.96159 0.02962 0.0
C370 C 0.51366 0.06745 0.97435 0.0
C371 C 0.4872 0.98634 0.00185 0.0
C372 C 0.53468 0.08034 0.96126 0.0
C373 C 0.55141 0.02831 0.96155 0.0
C374 C 0.50938 0.00198 0.9878 0.0
C375 C 0.5466 0.96393 0.97542 0.0
C376 C 0.4829 0.9209 0.01532 0.0
C377 C 0.45034 0.0256 0.0154 0.0
N378 N 0.52601 0.95252 0.98799 0.0
N379 N 0.47073 0.03632 0.00216 0.0
H380 H 0.06307 0.42554 0.50848 0.0
H381 H 0.93272 0.53007 0.4897 0.0
H382 H 0.03027 0.44822 0.42224 0.0
H383 H 0.96302 0.47708 0.57512 0.0
H384 H 0.96863 0.50354 0.46452 0.0
H385 H 0.02666 0.44485 0.53358 0.0
C386 C 0.04811 0.43423 0.49491 0.0
C387 C 0.04957 0.43655 0.4634 0.0
C388 C 0.96744 0.49759 0.48877 0.0
C389 C 0.00806 0.45912 0.49166 0.0
C390 C 0.94703 0.51315 0.50308 0.0
C391 C 0.94508 0.50585 0.53441 0.0
C392 C 0.98601 0.47495 0.50602 0.0
C393 C 0.96393 0.48307 0.55085 0.0
C394 C 0.02739 0.44545 0.50916 0.0
C395 C 0.02981 0.44755 0.44667 0.0
N396 N 0.98365 0.46859 0.53648 0.0
N397 N 0.00987 0.45901 0.461 0.0
H398 H 0.46559 0.52116 0.42096 0.0
H399 H 0.53085 0.47881 0.57851 0.0
H400 H 0.433 0.53938 0.50752 0.0
H401 H 0.56319 0.45969 0.49182 0.0
H402 H 0.49484 0.50169 0.55309 0.0
H403 H 0.50164 0.50017 0.44649 0.0
C404 C 0.46614 0.52076 0.44541 0.0
C405 C 0.44644 0.53143 0.46228 0.0
C406 C 0.50978 0.49248 0.53957 0.0
C407 C 0.48746 0.50773 0.49167 0.0
C408 C 0.53027 0.47951 0.55406 0.0
C409 C 0.54987 0.46784 0.53711 0.0
C410 C 0.50892 0.49361 0.50787 0.0
C411 C 0.54835 0.46842 0.50558 0.0
C412 C 0.48666 0.50885 0.45997 0.0
C413 C 0.44792 0.53132 0.49382 0.0
N414 N 0.52821 0.48129 0.49193 0.0
N415 N 0.46809 0.51936 0.50755 0.0
H416 H 0.12256 0.22382 0.338 0.0
H417 H 0.12003 0.26238 0.15859 0.0
H418 H 0.11871 0.42437 0.29283 0.0
H419 H 0.11655 0.06358 0.20518 0.0
H420 H 0.11929 0.32287 0.20716 0.0
H421 H 0.1203 0.16507 0.28939 0.0
C422 C 0.12124 0.25571 0.31785 0.0
C423 C 0.12093 0.32941 0.31958 0.0
C424 C 0.11858 0.26606 0.20676 0.0
C425 C 0.11832 0.26178 0.26352 0.0
C426 C 0.11902 0.23133 0.17902 0.0
C427 C 0.11846 0.15756 0.17775 0.0
C428 C 0.11769 0.2269 0.23354 0.0
C429 C 0.11705 0.1204 0.20501 0.0
C430 C 0.11988 0.2219 0.29003 0.0
C431 C 0.11905 0.36754 0.2926 0.0
N432 N 0.11683 0.15546 0.23176 0.0
N433 N 0.11792 0.33326 0.26564 0.0
H434 H 0.37678 0.76358 0.33717 0.0
H435 H 0.37503 0.72642 0.15755 0.0
H436 H 0.37747 0.56364 0.29103 0.0
H437 H 0.38148 0.92471 0.20418 0.0
H438 H 0.37599 0.66589 0.206 0.0
H439 H 0.37854 0.82299 0.28863 0.0
C440 C 0.37733 0.732 0.31683 0.0
C441 C 0.37688 0.65828 0.31825 0.0
C442 C 0.37729 0.72259 0.20565 0.0
C443 C 0.37887 0.72654 0.26235 0.0
C444 C 0.37671 0.75736 0.17796 0.0
C445 C 0.37809 0.831 0.17673 0.0
C446 C 0.37914 0.76158 0.23243 0.0
C447 C 0.38033 0.86799 0.20398 0.0
C448 C 0.37838 0.76614 0.28906 0.0
C449 C 0.37775 0.62047 0.29105 0.0
N450 N 0.38068 0.8329 0.2307 0.0
N451 N 0.3786 0.65505 0.26421 0.0
H452 H 0.87169 0.71901 0.8387 0.0
H453 H 0.87533 0.75486 0.65908 0.0
H454 H 0.87639 0.91761 0.79213 0.0
H455 H 0.87356 0.55548 0.70541 0.0
H456 H 0.87604 0.8148 0.70757 0.0
H457 H 0.8726 0.65843 0.79029 0.0
C458 C 0.87293 0.75006 0.8183 0.0
C459 C 0.87391 0.82379 0.81957 0.0
C460 C 0.87554 0.75796 0.7072 0.0
C461 C 0.87495 0.75415 0.76384 0.0
C462 C 0.87512 0.72348 0.67945 0.0
C463 C 0.87431 0.64974 0.67807 0.0
C464 C 0.87509 0.71873 0.73395 0.0
C465 C 0.87415 0.61229 0.70534 0.0
C466 C 0.87347 0.71522 0.79062 0.0
C467 C 0.87556 0.86083 0.7923 0.0
N468 N 0.87447 0.64723 0.73216 0.0
N469 N 0.87598 0.8256 0.76556 0.0
H470 H 0.62525 0.26777 0.83901 0.0
H471 H 0.62439 0.23029 0.65928 0.0
H472 H 0.6226 0.06842 0.79253 0.0
H473 H 0.62227 0.42985 0.70567 0.0
H474 H 0.6239 0.17049 0.70781 0.0
H475 H 0.62433 0.32777 0.79051 0.0
C476 C 0.62445 0.23644 0.81861 0.0
C477 C 0.62405 0.16269 0.81993 0.0
C478 C 0.6235 0.22733 0.70742 0.0
C479 C 0.62302 0.23162 0.76411 0.0
C480 C 0.6238 0.26172 0.67967 0.0
C481 C 0.62342 0.33547 0.67831 0.0
C482 C 0.62288 0.26673 0.73418 0.0
C483 C 0.6226 0.37302 0.70557 0.0
C484 C 0.62391 0.27093 0.79088 0.0
C485 C 0.62296 0.12525 0.79266 0.0
N486 N 0.62242 0.33822 0.73239 0.0
N487 N 0.62254 0.16013 0.76588 0.0
H488 H 0.12989 0.73569 0.06213 0.0
H489 H 0.10098 0.33832 0.08709 0.0
H490 H 0.10915 0.66025 0.14967 0.0
H491 H 0.16382 0.39238 0.04366 0.0
H492 H 0.09514 0.46214 0.09944 0.0
H493 H 0.13471 0.61427 0.04532 0.0
C494 C 0.12699 0.69386 0.07815 0.0
C495 C 0.12037 0.70823 0.10799 0.0
C496 C 0.11002 0.44673 0.08685 0.0
C497 C 0.12395 0.56981 0.0879 0.0
C498 C 0.1133 0.3764 0.07951 0.0
C499 C 0.13298 0.35518 0.06435 0.0
C500 C 0.1262 0.49627 0.0783 0.0
C501 C 0.14848 0.40673 0.05543 0.0
C502 C 0.12934 0.62472 0.06827 0.0
C503 C 0.11484 0.65153 0.12675 0.0
N504 N 0.14474 0.47531 0.06248 0.0
N505 N 0.11669 0.58462 0.11636 0.0
H506 H 0.41203 0.31293 0.11637 0.0
H507 H 0.32351 0.60628 0.06922 0.0
H508 H 0.34327 0.26488 0.09213 0.0
H509 H 0.39553 0.63918 0.06558 0.0
H510 H 0.33017 0.48106 0.07753 0.0
H511 H 0.40617 0.4339 0.09915 0.0
C512 C 0.39574 0.3279 0.10727 0.0
C513 C 0.3782 0.27888 0.10528 0.0
C514 C 0.34451 0.51554 0.0745 0.0
C515 C 0.37128 0.41673 0.08581 0.0
C516 C 0.34072 0.58699 0.0697 0.0
C517 C 0.35899 0.63331 0.06691 0.0
C518 C 0.36672 0.49044 0.07703 0.0
C519 C 0.38093 0.6054 0.06765 0.0
C520 C 0.39244 0.39665 0.09728 0.0
C521 C 0.35739 0.30073 0.09344 0.0
N522 N 0.3842 0.53592 0.0731 0.0
N523 N 0.35445 0.36822 0.08433 0.0
H524 H 0.14495 0.13572 0.39922 0.0
H525 H 0.10339 0.75075 0.44227 0.0
H526 H 0.11815 0.08565 0.48719 0.0
H527 H 0.13319 0.80743 0.35692 0.0
H528 H 0.1098 0.87036 0.46055 0.0
H529 H 0.14246 0.01321 0.38509 0.0
C530 C 0.1386 0.09862 0.41569 0.0
C531 C 0.13149 0.12089 0.44434 0.0
C532 C 0.11511 0.85638 0.43794 0.0
C533 C 0.12839 0.97975 0.4281 0.0
C534 C 0.11167 0.78796 0.42758 0.0
C535 C 0.11827 0.76892 0.39828 0.0
C536 C 0.12507 0.90592 0.41869 0.0
C537 C 0.1279 0.82004 0.37969 0.0
C538 C 0.13719 0.02848 0.40757 0.0
C539 C 0.12375 0.07042 0.46486 0.0
N540 N 0.13106 0.88612 0.39024 0.0
N541 N 0.12217 0.00191 0.45621 0.0
H542 H 0.32343 0.88541 0.42914 0.0
H543 H 0.4106 0.17886 0.37826 0.0
H544 H 0.39555 0.85267 0.42936 0.0
H545 H 0.34184 0.22532 0.4032 0.0
H546 H 0.40534 0.05807 0.39602 0.0
H547 H 0.32972 0.01049 0.42034 0.0
C548 C 0.34059 0.90472 0.42782 0.0
C549 C 0.35898 0.85849 0.42972 0.0
C550 C 0.39148 0.09496 0.39792 0.0
C551 C 0.36628 0.00114 0.41905 0.0
C552 C 0.39444 0.16356 0.3876 0.0
C553 C 0.37672 0.21206 0.38968 0.0
C554 C 0.37051 0.07462 0.40983 0.0
C555 C 0.35609 0.18989 0.40186 0.0
C556 C 0.34417 0.97608 0.42273 0.0
C557 C 0.38087 0.8864 0.42795 0.0
N558 N 0.3535 0.12262 0.41132 0.0
N559 N 0.38391 0.95581 0.42225 0.0
H560 H 0.82422 0.59933 0.93392 0.0
H561 H 0.9092 0.30495 0.87647 0.0
H562 H 0.89622 0.63163 0.92857 0.0
H563 H 0.84147 0.25932 0.90603 0.0
H564 H 0.90466 0.42585 0.8946 0.0
H565 H 0.83013 0.47422 0.92449 0.0
C566 C 0.8413 0.57992 0.93124 0.0
C567 C 0.85973 0.62604 0.93179 0.0
C568 C 0.89088 0.38912 0.89742 0.0
C569 C 0.86657 0.48331 0.92036 0.0
C570 C 0.89342 0.32045 0.88689 0.0
C571 C 0.87579 0.27211 0.89016 0.0
C572 C 0.8704 0.40975 0.91077 0.0
C573 C 0.85566 0.29458 0.90373 0.0
C574 C 0.84466 0.50853 0.92578 0.0
C575 C 0.8815 0.59798 0.92827 0.0
N576 N 0.85346 0.36193 0.91339 0.0
N577 N 0.8843 0.52855 0.92225 0.0
H578 H 0.65699 0.73258 0.91171 0.0
H579 H 0.60076 0.35414 0.9307 0.0
H580 H 0.59089 0.68023 0.87777 0.0
H581 H 0.67253 0.39064 0.93685 0.0
H582 H 0.59499 0.47957 0.92198 0.0
H583 H 0.66103 0.61276 0.93071 0.0
C584 C 0.64319 0.69608 0.90868 0.0
C585 C 0.62346 0.71629 0.89351 0.0
C586 C 0.61196 0.46013 0.92559 0.0
C587 C 0.62806 0.57922 0.91483 0.0
C588 C 0.61528 0.38867 0.93081 0.0
C589 C 0.63722 0.36179 0.93414 0.0
C590 C 0.63067 0.50503 0.92399 0.0
C591 C 0.65537 0.40904 0.93408 0.0
C592 C 0.64557 0.62765 0.91932 0.0
C593 C 0.60637 0.66644 0.88936 0.0
N594 N 0.6517 0.47838 0.92884 0.0
N595 N 0.60903 0.60009 0.90005 0.0
H596 H 0.83468 0.88482 0.54029 0.0
H597 H 0.88852 0.15552 0.65223 0.0
H598 H 0.89582 0.8348 0.58884 0.0
H599 H 0.86479 0.22608 0.56524 0.0
H600 H 0.8861 0.03389 0.63416 0.0
H601 H 0.84016 0.00926 0.55327 0.0
C602 C 0.84939 0.90016 0.55324 0.0
C603 C 0.86484 0.84965 0.56344 0.0
C604 C 0.88121 0.07634 0.61925 0.0
C605 C 0.87068 0.99023 0.5791 0.0
C606 C 0.88249 0.14548 0.62954 0.0
C607 C 0.87586 0.20095 0.61073 0.0
C608 C 0.87307 0.06277 0.59008 0.0
C609 C 0.86871 0.18504 0.58123 0.0
C610 C 0.85246 0.97081 0.56065 0.0
C611 C 0.88357 0.87209 0.58033 0.0
N612 N 0.86718 0.11727 0.57193 0.0
N613 N 0.88576 0.94065 0.58811 0.0
H614 H 0.58842 0.81564 0.62098 0.0
H615 H 0.67193 0.10828 0.5589 0.0
H616 H 0.65556 0.76933 0.58908 0.0
H617 H 0.60032 0.14225 0.56959 0.0
H618 H 0.66618 0.98317 0.5683 0.0
H619 H 0.59247 0.93605 0.60235 0.0
C620 C 0.60396 0.83087 0.60993 0.0
C621 C 0.62156 0.78246 0.60618 0.0
C622 C 0.65168 0.01786 0.56819 0.0
C623 C 0.6264 0.91965 0.58495 0.0
C624 C 0.65495 0.08926 0.56275 0.0
C625 C 0.63662 0.13587 0.56377 0.0
C626 C 0.62998 -0.00688 0.57514 0.0
C627 C 0.61497 0.10827 0.56872 0.0
C628 C 0.60622 0.89929 0.59911 0.0
C629 C 0.64138 0.80462 0.59178 0.0
N630 N 0.61229 0.03884 0.57468 0.0
N631 N 0.64332 0.87176 0.58183 0.0
loop_
_geom_bond_atom_site_label_1
_geom_bond_atom_site_label_2
_geom_bond_distance
_geom_bond_site_symmetry_2
_ccdc_geom_bond_type
Co0 O3 1.970 . S
Co0 N17 1.989 . S
Co0 O25 1.967 . S
Co0 O32 1.920 . S
Co1 O4 1.966 1_565 S
Co1 N10 2.022 . S
Co1 N18 1.993 1_565 S
Co1 O26 1.941 1_565 S
C2 O3 1.258 . S
C2 O4 1.263 . S
O3 Co0 1.970 . S
O3 C2 1.258 . S
O4 Co1 1.966 1_545 S
O4 C2 1.263 . S
C5 O6 1.235 . S
C5 O32 1.289 . S
O6 C5 1.235 . S
C7 C9 1.400 . S
C7 N10 1.351 . S
C7 C12 1.501 . S
C8 C9 1.387 . S
C8 N11 1.341 . S
C9 C7 1.400 . S
C9 C8 1.387 . S
N10 Co1 2.022 . S
N10 C7 1.351 . S
N10 N11 1.365 . S
N11 C8 1.341 . S
N11 N10 1.365 . S
N11 H31 0.862 . S
C12 C7 1.501 . S
C12 H13 0.961 . S
C12 H14 0.961 . S
C12 H15 0.960 . S
H13 C12 0.961 . S
H14 C12 0.961 . S
H15 C12 0.960 . S
C16 N17 1.342 . S
C16 C20 1.401 . S
C16 C21 1.499 . S
N17 Co0 1.989 . S
N17 C16 1.342 . S
N17 N18 1.388 . S
N18 Co1 1.993 1_545 S
N18 N17 1.388 . S
N18 C19 1.346 1_545 S
C19 N18 1.346 1_565 S
C19 C20 1.396 1_565 S
C19 C29 1.510 . S
C20 C16 1.401 . S
C20 C19 1.396 1_545 S
C21 C16 1.499 . S
C21 H22 0.959 . S
C21 H23 0.960 . S
C21 H24 0.961 . S
H22 C21 0.959 . S
H23 C21 0.960 . S
H24 C21 0.961 . S
O25 Co0 1.967 . S
O25 C33 1.258 . S
O26 Co1 1.941 1_545 S
O26 C33 1.266 . S
H27 C29 0.959 . S
H28 C29 0.961 . S
C29 C19 1.510 . S
C29 H27 0.959 . S
C29 H28 0.961 . S
C29 H30 0.960 . S
H30 C29 0.960 . S
H31 N11 0.862 . S
O32 Co0 1.920 . S
O32 C5 1.289 . S
C33 O25 1.258 . S
C33 O26 1.266 . S
Co34 O37 1.970 . S
Co34 N51 1.989 . S
Co34 O59 1.967 . S
Co34 O66 1.920 . S
Co35 O38 1.966 1_545 S
Co35 N44 2.022 . S
Co35 N52 1.993 1_545 S
Co35 O60 1.941 1_545 S
C36 O37 1.258 . S
C36 O38 1.263 . S
O37 Co34 1.970 . S
O37 C36 1.258 . S
O38 Co35 1.966 1_565 S
O38 C36 1.263 . S
C39 O40 1.235 . S
C39 O66 1.289 . S
O40 C39 1.235 . S
C41 C43 1.400 . S
C41 N44 1.351 . S
C41 C46 1.501 . S
C42 C43 1.387 . S
C42 N45 1.341 . S
C43 C41 1.400 . S
C43 C42 1.387 . S
N44 Co35 2.022 . S
N44 C41 1.351 . S
N44 N45 1.365 . S
N45 C42 1.341 . S
N45 N44 1.365 . S
N45 H65 0.862 . S
C46 C41 1.501 . S
C46 H47 0.961 . S
C46 H48 0.961 . S
C46 H49 0.960 . S
H47 C46 0.961 . S
H48 C46 0.961 . S
H49 C46 0.960 . S
C50 N51 1.342 . S
C50 C54 1.401 . S
C50 C55 1.499 . S
N51 Co34 1.989 . S
N51 C50 1.342 . S
N51 N52 1.388 . S
N52 Co35 1.993 1_565 S
N52 N51 1.388 . S
N52 C53 1.346 1_565 S
C53 N52 1.346 1_545 S
C53 C54 1.396 1_545 S
C53 C63 1.510 . S
C54 C50 1.401 . S
C54 C53 1.396 1_565 S
C55 C50 1.499 . S
C55 H56 0.959 . S
C55 H57 0.960 . S
C55 H58 0.961 . S
H56 C55 0.959 . S
H57 C55 0.960 . S
H58 C55 0.961 . S
O59 Co34 1.967 . S
O59 C67 1.258 . S
O60 Co35 1.941 1_565 S
O60 C67 1.266 . S
H61 C63 0.959 . S
H62 C63 0.961 . S
C63 C53 1.510 . S
C63 H61 0.959 . S
C63 H62 0.961 . S
C63 H64 0.960 . S
H64 C63 0.960 . S
H65 N45 0.862 . S
O66 Co34 1.920 . S
O66 C39 1.289 . S
C67 O59 1.258 . S
C67 O60 1.266 . S
Co68 O71 1.970 . S
Co68 N85 1.989 . S
Co68 O93 1.967 . S
Co68 O100 1.920 . S
Co69 O72 1.966 . S
Co69 N78 2.022 . S
Co69 N86 1.993 . S
Co69 O94 1.941 . S
C70 O71 1.258 . S
C70 O72 1.263 . S
O71 Co68 1.970 . S
O71 C70 1.258 . S
O72 Co69 1.966 . S
O72 C70 1.263 . S
C73 O74 1.235 . S
C73 O100 1.289 . S
O74 C73 1.235 . S
C75 C77 1.400 . S
C75 N78 1.351 . S
C75 C80 1.501 . S
C76 C77 1.387 . S
C76 N79 1.341 . S
C77 C75 1.400 . S
C77 C76 1.387 . S
N78 Co69 2.022 . S
N78 C75 1.351 . S
N78 N79 1.365 . S
N79 C76 1.341 . S
N79 N78 1.365 . S
N79 H99 0.862 . S
C80 C75 1.501 . S
C80 H81 0.961 . S
C80 H82 0.961 . S
C80 H83 0.960 . S
H81 C80 0.961 . S
H82 C80 0.961 . S
H83 C80 0.960 . S
C84 N85 1.342 . S
C84 C88 1.401 . S
C84 C89 1.499 . S
N85 Co68 1.989 . S
N85 C84 1.342 . S
N85 N86 1.388 . S
N86 Co69 1.993 . S
N86 N85 1.388 . S
N86 C87 1.346 . S
C87 N86 1.346 . S
C87 C88 1.396 . S
C87 C97 1.510 . S
C88 C84 1.401 . S
C88 C87 1.396 . S
C89 C84 1.499 . S
C89 H90 0.959 . S
C89 H91 0.960 . S
C89 H92 0.961 . S
H90 C89 0.959 . S
H91 C89 0.960 . S
H92 C89 0.961 . S
O93 Co68 1.967 . S
O93 C101 1.258 . S
O94 Co69 1.941 . S
O94 C101 1.266 . S
H95 C97 0.959 . S
H96 C97 0.961 . S
C97 C87 1.510 . S
C97 H95 0.959 . S
C97 H96 0.961 . S
C97 H98 0.960 . S
H98 C97 0.960 . S
H99 N79 0.862 . S
O100 Co68 1.920 . S
O100 C73 1.289 . S
C101 O93 1.258 . S
C101 O94 1.266 . S
Co102 O105 1.970 . S
Co102 N119 1.989 . S
Co102 O127 1.967 . S
Co102 O134 1.920 . S
Co103 O106 1.966 . S
Co103 N112 2.022 . S
Co103 N120 1.993 . S
Co103 O128 1.941 . S
C104 O105 1.258 . S
C104 O106 1.263 . S
O105 Co102 1.970 . S
O105 C104 1.258 . S
O106 Co103 1.966 . S
O106 C104 1.263 . S
C107 O108 1.235 . S
C107 O134 1.289 . S
O108 C107 1.235 . S
C109 C111 1.400 . S
C109 N112 1.351 . S
C109 C114 1.501 . S
C110 C111 1.387 . S
C110 N113 1.341 . S
C111 C109 1.400 . S
C111 C110 1.387 . S
N112 Co103 2.022 . S
N112 C109 1.351 . S
N112 N113 1.365 . S
N113 C110 1.341 . S
N113 N112 1.365 . S
N113 H133 0.862 . S
C114 C109 1.501 . S
C114 H115 0.961 . S
C114 H116 0.961 . S
C114 H117 0.960 . S
H115 C114 0.961 . S
H116 C114 0.961 . S
H117 C114 0.960 . S
C118 N119 1.342 . S
C118 C122 1.401 . S
C118 C123 1.499 . S
N119 Co102 1.989 . S
N119 C118 1.342 . S
N119 N120 1.388 . S
N120 Co103 1.993 . S
N120 N119 1.388 . S
N120 C121 1.346 . S
C121 N120 1.346 . S
C121 C122 1.396 . S
C121 C131 1.510 . S
C122 C118 1.401 . S
C122 C121 1.396 . S
C123 C118 1.499 . S
C123 H124 0.959 . S
C123 H125 0.960 . S
C123 H126 0.961 . S
H124 C123 0.959 . S
H125 C123 0.960 . S
H126 C123 0.961 . S
O127 Co102 1.967 . S
O127 C135 1.258 . S
O128 Co103 1.941 . S
O128 C135 1.266 . S
H129 C131 0.959 . S
H130 C131 0.961 . S
C131 C121 1.510 . S
C131 H129 0.959 . S
C131 H130 0.961 . S
C131 H132 0.960 . S
H132 C131 0.960 . S
H133 N113 0.862 . S
O134 Co102 1.920 . S
O134 C107 1.289 . S
C135 O127 1.258 . S
C135 O128 1.266 . S
Co136 O139 1.970 . S
Co136 N153 1.989 . S
Co136 O161 1.967 . S
Co136 O168 1.920 . S
Co137 O140 1.966 1_545 S
Co137 N146 2.022 . S
Co137 N154 1.993 1_545 S
Co137 O162 1.941 1_545 S
C138 O139 1.258 . S
C138 O140 1.263 . S
O139 Co136 1.970 . S
O139 C138 1.258 . S
O140 Co137 1.966 1_565 S
O140 C138 1.263 . S
C141 O142 1.235 . S
C141 O168 1.289 . S
O142 C141 1.235 . S
C143 C145 1.400 . S
C143 N146 1.351 . S
C143 C148 1.501 . S
C144 C145 1.387 . S
C144 N147 1.341 . S
C145 C143 1.400 . S
C145 C144 1.387 . S
N146 Co137 2.022 . S
N146 C143 1.351 . S
N146 N147 1.365 . S
N147 C144 1.341 . S
N147 N146 1.365 . S
N147 H167 0.862 . S
C148 C143 1.501 . S
C148 H149 0.961 . S
C148 H150 0.961 . S
C148 H151 0.960 . S
H149 C148 0.961 . S
H150 C148 0.961 . S
H151 C148 0.960 . S
C152 N153 1.342 . S
C152 C156 1.401 . S
C152 C157 1.499 . S
N153 Co136 1.989 . S
N153 C152 1.342 . S
N153 N154 1.388 . S
N154 Co137 1.993 1_565 S
N154 N153 1.388 . S
N154 C155 1.346 1_565 S
C155 N154 1.346 1_545 S
C155 C156 1.396 1_545 S
C155 C165 1.510 . S
C156 C152 1.401 . S
C156 C155 1.396 1_565 S
C157 C152 1.499 . S
C157 H158 0.959 . S
C157 H159 0.960 . S
C157 H160 0.961 . S
H158 C157 0.959 . S
H159 C157 0.960 . S
H160 C157 0.961 . S
O161 Co136 1.967 . S
O161 C169 1.258 . S
O162 Co137 1.941 1_565 S
O162 C169 1.266 . S
H163 C165 0.959 . S
H164 C165 0.961 . S
C165 C155 1.510 . S
C165 H163 0.959 . S
C165 H164 0.961 . S
C165 H166 0.960 . S
H166 C165 0.960 . S
H167 N147 0.862 . S
O168 Co136 1.920 . S
O168 C141 1.289 . S
C169 O161 1.258 . S
C169 O162 1.266 . S
Co170 O173 1.970 . S
Co170 N187 1.989 . S
Co170 O195 1.967 . S
Co170 O202 1.920 . S
Co171 O174 1.966 1_565 S
Co171 N180 2.022 . S
Co171 N188 1.993 1_565 S
Co171 O196 1.941 1_565 S
C172 O173 1.258 . S
C172 O174 1.263 . S
O173 Co170 1.970 . S
O173 C172 1.258 . S
O174 Co171 1.966 1_545 S
O174 C172 1.263 . S
C175 O176 1.235 . S
C175 O202 1.289 . S
O176 C175 1.235 . S
C177 C179 1.400 . S
C177 N180 1.351 . S
C177 C182 1.501 . S
C178 C179 1.387 . S
C178 N181 1.341 . S
C179 C177 1.400 . S
C179 C178 1.387 . S
N180 Co171 2.022 . S
N180 C177 1.351 . S
N180 N181 1.365 . S
N181 C178 1.341 . S
N181 N180 1.365 . S
N181 H201 0.862 . S
C182 C177 1.501 . S
C182 H183 0.961 . S
C182 H184 0.961 . S
C182 H185 0.960 . S
H183 C182 0.961 . S
H184 C182 0.961 . S
H185 C182 0.960 . S
C186 N187 1.342 . S
C186 C190 1.401 . S
C186 C191 1.499 . S
N187 Co170 1.989 . S
N187 C186 1.342 . S
N187 N188 1.388 . S
N188 Co171 1.993 1_545 S
N188 N187 1.388 . S
N188 C189 1.346 1_545 S
C189 N188 1.346 1_565 S
C189 C190 1.396 1_565 S
C189 C199 1.510 . S
C190 C186 1.401 . S
C190 C189 1.396 1_545 S
C191 C186 1.499 . S
C191 H192 0.959 . S
C191 H193 0.960 . S
C191 H194 0.961 . S
H192 C191 0.959 . S
H193 C191 0.960 . S
H194 C191 0.961 . S
O195 Co170 1.967 . S
O195 C203 1.258 . S
O196 Co171 1.941 1_545 S
O196 C203 1.266 . S
H197 C199 0.959 . S
H198 C199 0.961 . S
C199 C189 1.510 . S
C199 H197 0.959 . S
C199 H198 0.961 . S
C199 H200 0.960 . S
H200 C199 0.960 . S
H201 N181 0.862 . S
O202 Co170 1.920 . S
O202 C175 1.289 . S
C203 O195 1.258 . S
C203 O196 1.266 . S
Co204 O207 1.970 . S
Co204 N221 1.989 . S
Co204 O229 1.967 . S
Co204 O236 1.920 . S
Co205 O208 1.966 . S
Co205 N214 2.022 . S
Co205 N222 1.993 . S
Co205 O230 1.941 . S
C206 O207 1.258 . S
C206 O208 1.263 . S
O207 Co204 1.970 . S
O207 C206 1.258 . S
O208 Co205 1.966 . S
O208 C206 1.263 . S
C209 O210 1.235 . S
C209 O236 1.289 . S
O210 C209 1.235 . S
C211 C213 1.400 . S
C211 N214 1.351 . S
C211 C216 1.501 . S
C212 C213 1.387 . S
C212 N215 1.341 . S
C213 C211 1.400 . S
C213 C212 1.387 . S
N214 Co205 2.022 . S
N214 C211 1.351 . S
N214 N215 1.365 . S
N215 C212 1.341 . S
N215 N214 1.365 . S
N215 H235 0.862 . S
C216 C211 1.501 . S
C216 H217 0.961 . S
C216 H218 0.961 . S
C216 H219 0.960 . S
H217 C216 0.961 . S
H218 C216 0.961 . S
H219 C216 0.960 . S
C220 N221 1.342 . S
C220 C224 1.401 . S
C220 C225 1.499 . S
N221 Co204 1.989 . S
N221 C220 1.342 . S
N221 N222 1.388 . S
N222 Co205 1.993 . S
N222 N221 1.388 . S
N222 C223 1.346 . S
C223 N222 1.346 . S
C223 C224 1.396 . S
C223 C233 1.510 . S
C224 C220 1.401 . S
C224 C223 1.396 . S
C225 C220 1.499 . S
C225 H226 0.959 . S
C225 H227 0.960 . S
C225 H228 0.961 . S
H226 C225 0.959 . S
H227 C225 0.960 . S
H228 C225 0.961 . S
O229 Co204 1.967 . S
O229 C237 1.258 . S
O230 Co205 1.941 . S
O230 C237 1.266 . S
H231 C233 0.959 . S
H232 C233 0.961 . S
C233 C223 1.510 . S
C233 H231 0.959 . S
C233 H232 0.961 . S
C233 H234 0.960 . S
H234 C233 0.960 . S
H235 N215 0.862 . S
O236 Co204 1.920 . S
O236 C209 1.289 . S
C237 O229 1.258 . S
C237 O230 1.266 . S
Co238 O241 1.970 . S
Co238 N255 1.989 . S
Co238 O263 1.967 . S
Co238 O270 1.920 . S
Co239 O242 1.966 . S
Co239 N248 2.022 . S
Co239 N256 1.993 . S
Co239 O264 1.941 . S
C240 O241 1.258 . S
C240 O242 1.263 . S
O241 Co238 1.970 . S
O241 C240 1.258 . S
O242 Co239 1.966 . S
O242 C240 1.263 . S
C243 O244 1.235 . S
C243 O270 1.289 . S
O244 C243 1.235 . S
C245 C247 1.400 . S
C245 N248 1.351 . S
C245 C250 1.501 . S
C246 C247 1.387 . S
C246 N249 1.341 . S
C247 C245 1.400 . S
C247 C246 1.387 . S
N248 Co239 2.022 . S
N248 C245 1.351 . S
N248 N249 1.365 . S
N249 C246 1.341 . S
N249 N248 1.365 . S
N249 H269 0.862 . S
C250 C245 1.501 . S
C250 H251 0.961 . S
C250 H252 0.961 . S
C250 H253 0.960 . S
H251 C250 0.961 . S
H252 C250 0.961 . S
H253 C250 0.960 . S
C254 N255 1.342 . S
C254 C258 1.401 . S
C254 C259 1.499 . S
N255 Co238 1.989 . S
N255 C254 1.342 . S
N255 N256 1.388 . S
N256 Co239 1.993 . S
N256 N255 1.388 . S
N256 C257 1.346 . S
C257 N256 1.346 . S
C257 C258 1.396 . S
C257 C267 1.510 . S
C258 C254 1.401 . S
C258 C257 1.396 . S
C259 C254 1.499 . S
C259 H260 0.959 . S
C259 H261 0.960 . S
C259 H262 0.961 . S
H260 C259 0.959 . S
H261 C259 0.960 . S
H262 C259 0.961 . S
O263 Co238 1.967 . S
O263 C271 1.258 . S
O264 Co239 1.941 . S
O264 C271 1.266 . S
H265 C267 0.959 . S
H266 C267 0.961 . S
C267 C257 1.510 . S
C267 H265 0.959 . S
C267 H266 0.961 . S
C267 H268 0.960 . S
H268 C267 0.960 . S
H269 N249 0.862 . S
O270 Co238 1.920 . S
O270 C243 1.289 . S
C271 O263 1.258 . S
C271 O264 1.266 . S
H272 C278 0.930 . S
H273 C282 0.930 . S
H274 C287 0.929 . S
H275 C285 0.929 . S
H276 C280 0.929 . S
H277 C286 0.929 . S
C278 H272 0.930 . S
C278 C279 1.367 . S
C278 C286 1.378 . S
C279 C278 1.367 . S
C279 C287 1.433 . S
C280 H276 0.929 . S
C280 C282 1.378 . S
C280 C284 1.350 . S
C281 C284 1.463 1_545 S
C281 C286 1.350 . S
C281 N289 1.427 . S
C282 H273 0.930 . S
C282 C280 1.378 . S
C282 C283 1.367 . S
C283 C282 1.367 . S
C283 C285 1.433 . S
C284 C280 1.350 . S
C284 C281 1.463 1_565 S
C284 N288 1.427 . S
C285 H275 0.929 . S
C285 C283 1.433 . S
C285 N288 1.384 . S
C286 H277 0.929 . S
C286 C278 1.378 . S
C286 C281 1.350 . S
C287 H274 0.929 . S
C287 C279 1.433 . S
C287 N289 1.384 . S
N288 C284 1.427 . S
N288 C285 1.384 . S
N289 C281 1.427 . S
N289 C287 1.384 . S
H290 C296 0.930 . S
H291 C300 0.930 . S
H292 C305 0.929 . S
H293 C303 0.929 . S
H294 C298 0.929 . S
H295 C304 0.929 . S
C296 H290 0.930 . S
C296 C297 1.367 . S
C296 C304 1.378 . S
C297 C296 1.367 . S
C297 C305 1.433 . S
C298 H294 0.929 . S
C298 C300 1.378 . S
C298 C302 1.350 . S
C299 C302 1.463 . S
C299 C304 1.350 . S
C299 N307 1.427 . S
C300 H291 0.930 . S
C300 C298 1.378 . S
C300 C301 1.367 . S
C301 C300 1.367 . S
C301 C303 1.433 . S
C302 C298 1.350 . S
C302 C299 1.463 . S
C302 N306 1.427 . S
C303 H293 0.929 . S
C303 C301 1.433 . S
C303 N306 1.384 . S
C304 H295 0.929 . S
C304 C296 1.378 . S
C304 C299 1.350 . S
C305 H292 0.929 . S
C305 C297 1.433 . S
C305 N307 1.384 . S
N306 C302 1.427 . S
N306 C303 1.384 . S
N307 C299 1.427 . S
N307 C305 1.384 . S
H308 C314 0.930 . S
H309 C318 0.930 . S
H310 C323 0.929 . S
H311 C321 0.929 . S
H312 C316 0.929 . S
H313 C322 0.929 . S
C314 H308 0.930 . S
C314 C315 1.367 . S
C314 C322 1.378 . S
C315 C314 1.367 . S
C315 C323 1.433 1_565 S
C316 H312 0.929 . S
C316 C318 1.378 . S
C316 C320 1.350 . S
C317 C320 1.463 1_565 S
C317 C322 1.350 . S
C317 N325 1.427 1_565 S
C318 H309 0.930 . S
C318 C316 1.378 . S
C318 C319 1.367 . S
C319 C318 1.367 . S
C319 C321 1.433 1_545 S
C320 C316 1.350 . S
C320 C317 1.463 1_545 S
C320 N324 1.427 1_545 S
C321 H311 0.929 . S
C321 C319 1.433 1_565 S
C321 N324 1.384 . S
C322 H313 0.929 . S
C322 C314 1.378 . S
C322 C317 1.350 . S
C323 H310 0.929 . S
C323 C315 1.433 1_545 S
C323 N325 1.384 . S
N324 C320 1.427 1_565 S
N324 C321 1.384 . S
N325 C317 1.427 1_545 S
N325 C323 1.384 . S
H326 C332 0.930 . S
H327 C336 0.930 . S
H328 C341 0.929 . S
H329 C339 0.929 . S
H330 C334 0.929 . S
H331 C340 0.929 . S
C332 H326 0.930 . S
C332 C333 1.367 . S
C332 C340 1.378 . S
C333 C332 1.367 . S
C333 C341 1.433 . S
C334 H330 0.929 . S
C334 C336 1.378 . S
C334 C338 1.350 . S
C335 C338 1.463 . S
C335 C340 1.350 . S
C335 N343 1.427 . S
C336 H327 0.930 . S
C336 C334 1.378 . S
C336 C337 1.367 . S
C337 C336 1.367 . S
C337 C339 1.433 . S
C338 C334 1.350 . S
C338 C335 1.463 . S
C338 N342 1.427 . S
C339 H329 0.929 . S
C339 C337 1.433 . S
C339 N342 1.384 . S
C340 H331 0.929 . S
C340 C332 1.378 . S
C340 C335 1.350 . S
C341 H328 0.929 . S
C341 C333 1.433 . S
C341 N343 1.384 . S
N342 C338 1.427 . S
N342 C339 1.384 . S
N343 C335 1.427 . S
N343 C341 1.384 . S
H344 C350 0.930 1_565 S
H345 C354 0.930 1_545 S
H346 C359 0.929 1_556 S
H347 C357 0.929 1_554 S
H348 C352 0.966 . S
H349 C358 0.966 . S
C350 H344 0.930 1_545 S
C350 C351 1.367 . S
C350 C358 1.378 1_545 S
C351 C350 1.367 . S
C351 C359 1.433 . S
C352 H348 0.966 . S
C352 C354 1.378 1_545 S
C352 C356 1.350 1_545 S
C353 C356 1.463 1_444 S
C353 C358 1.350 1_545 S
C353 N361 1.427 1_554 S
C354 H345 0.930 1_565 S
C354 C352 1.378 1_565 S
C354 C355 1.367 . S
C355 C354 1.367 . S
C355 C357 1.433 . S
C356 C352 1.350 1_565 S
C356 C353 1.463 1_666 S
C356 N360 1.427 1_556 S
C357 H347 0.929 1_556 S
C357 C355 1.433 . S
C357 N360 1.384 1_556 S
C358 H349 0.966 . S
C358 C350 1.378 1_565 S
C358 C353 1.350 1_565 S
C359 H346 0.929 1_554 S
C359 C351 1.433 . S
C359 N361 1.384 1_554 S
N360 C356 1.427 1_554 S
N360 C357 1.384 1_554 S
N361 C353 1.427 1_556 S
N361 C359 1.384 1_556 S
H362 C368 0.930 . S
H363 C372 0.930 . S
H364 C377 0.929 . S
H365 C375 0.929 . S
H366 C370 0.929 . S
H367 C376 0.929 . S
C368 H362 0.930 . S
C368 C369 1.367 . S
C368 C376 1.378 . S
C369 C368 1.367 . S
C369 C377 1.433 1_565 S
C370 H366 0.929 . S
C370 C372 1.378 . S
C370 C374 1.350 . S
C371 C374 1.463 1_564 S
C371 C376 1.350 . S
C371 N379 1.427 1_565 S
C372 H363 0.930 . S
C372 C370 1.378 . S
C372 C373 1.367 . S
C373 C372 1.367 . S
C373 C375 1.433 1_545 S
C374 C370 1.350 . S
C374 C371 1.463 1_546 S
C374 N378 1.427 1_545 S
C375 H365 0.929 . S
C375 C373 1.433 1_565 S
C375 N378 1.384 . S
C376 H367 0.929 . S
C376 C368 1.378 . S
C376 C371 1.350 . S
C377 H364 0.929 . S
C377 C369 1.433 1_545 S
C377 N379 1.384 . S
N378 C374 1.427 1_565 S
N378 C375 1.384 . S
N379 C371 1.427 1_545 S
N379 C377 1.384 . S
H380 C386 0.930 . S
H381 C390 0.930 . S
H382 C395 0.929 . S
H383 C393 0.929 . S
H384 C388 0.929 . S
H385 C394 0.929 . S
C386 H380 0.930 . S
C386 C387 1.367 . S
C386 C394 1.378 . S
C387 C386 1.367 . S
C387 C395 1.433 . S
C388 H384 0.929 . S
C388 C390 1.378 . S
C388 C392 1.350 . S
C389 C392 1.463 1_455 S
C389 C394 1.350 . S
C389 N397 1.427 . S
C390 H381 0.930 . S
C390 C388 1.378 . S
C390 C391 1.367 . S
C391 C390 1.367 . S
C391 C393 1.433 . S
C392 C388 1.350 . S
C392 C389 1.463 1_655 S
C392 N396 1.427 . S
C393 H383 0.929 . S
C393 C391 1.433 . S
C393 N396 1.384 . S
C394 H385 0.929 . S
C394 C386 1.378 . S
C394 C389 1.350 . S
C395 H382 0.929 . S
C395 C387 1.433 . S
C395 N397 1.384 . S
N396 C392 1.427 . S
N396 C393 1.384 . S
N397 C389 1.427 . S
N397 C395 1.384 . S
H398 C404 0.930 . S
H399 C408 0.930 . S
H400 C413 0.929 . S
H401 C411 0.929 . S
H402 C406 0.929 . S
H403 C412 0.929 . S
C404 H398 0.930 . S
C404 C405 1.367 . S
C404 C412 1.378 . S
C405 C404 1.367 . S
C405 C413 1.433 . S
C406 H402 0.929 . S
C406 C408 1.378 . S
C406 C410 1.350 . S
C407 C410 1.463 . S
C407 C412 1.350 . S
C407 N415 1.427 . S
C408 H399 0.930 . S
C408 C406 1.378 . S
C408 C409 1.367 . S
C409 C408 1.367 . S
C409 C411 1.433 . S
C410 C406 1.350 . S
C410 C407 1.463 . S
C410 N414 1.427 . S
C411 H401 0.929 . S
C411 C409 1.433 . S
C411 N414 1.384 . S
C412 H403 0.929 . S
C412 C404 1.378 . S
C412 C407 1.350 . S
C413 H400 0.929 . S
C413 C405 1.433 . S
C413 N415 1.384 . S
N414 C410 1.427 . S
N414 C411 1.384 . S
N415 C407 1.427 . S
N415 C413 1.384 . S
H416 C422 0.930 . S
H417 C426 0.930 . S
H418 C431 0.929 . S
H419 C429 0.929 . S
H420 C424 0.929 . S
H421 C430 0.929 . S
C422 H416 0.930 . S
C422 C423 1.367 . S
C422 C430 1.378 . S
C423 C422 1.367 . S
C423 C431 1.433 . S
C424 H420 0.929 . S
C424 C426 1.378 . S
C424 C428 1.350 . S
C425 C428 1.463 . S
C425 C430 1.350 . S
C425 N433 1.427 . S
C426 H417 0.930 . S
C426 C424 1.378 . S
C426 C427 1.367 . S
C427 C426 1.367 . S
C427 C429 1.433 . S
C428 C424 1.350 . S
C428 C425 1.463 . S
C428 N432 1.427 . S
C429 H419 0.929 . S
C429 C427 1.433 . S
C429 N432 1.384 . S
C430 H421 0.929 . S
C430 C422 1.378 . S
C430 C425 1.350 . S
C431 H418 0.929 . S
C431 C423 1.433 . S
C431 N433 1.384 . S
N432 C428 1.427 . S
N432 C429 1.384 . S
N433 C425 1.427 . S
N433 C431 1.384 . S
H434 C440 0.930 . S
H435 C444 0.930 . S
H436 C449 0.929 . S
H437 C447 0.929 . S
H438 C442 0.929 . S
H439 C448 0.929 . S
C440 H434 0.930 . S
C440 C441 1.367 . S
C440 C448 1.378 . S
C441 C440 1.367 . S
C441 C449 1.433 . S
C442 H438 0.929 . S
C442 C444 1.378 . S
C442 C446 1.350 . S
C443 C446 1.463 . S
C443 C448 1.350 . S
C443 N451 1.427 . S
C444 H435 0.930 . S
C444 C442 1.378 . S
C444 C445 1.367 . S
C445 C444 1.367 . S
C445 C447 1.433 . S
C446 C442 1.350 . S
C446 C443 1.463 . S
C446 N450 1.427 . S
C447 H437 0.929 . S
C447 C445 1.433 . S
C447 N450 1.384 . S
C448 H439 0.929 . S
C448 C440 1.378 . S
C448 C443 1.350 . S
C449 H436 0.929 . S
C449 C441 1.433 . S
C449 N451 1.384 . S
N450 C446 1.427 . S
N450 C447 1.384 . S
N451 C443 1.427 . S
N451 C449 1.384 . S
H452 C458 0.930 . S
H453 C462 0.930 . S
H454 C467 0.929 . S
H455 C465 0.929 . S
H456 C460 0.929 . S
H457 C466 0.929 . S
C458 H452 0.930 . S
C458 C459 1.367 . S
C458 C466 1.378 . S
C459 C458 1.367 . S
C459 C467 1.433 . S
C460 H456 0.929 . S
C460 C462 1.378 . S
C460 C464 1.350 . S
C461 C464 1.463 . S
C461 C466 1.350 . S
C461 N469 1.427 . S
C462 H453 0.930 . S
C462 C460 1.378 . S
C462 C463 1.367 . S
C463 C462 1.367 . S
C463 C465 1.433 . S
C464 C460 1.350 . S
C464 C461 1.463 . S
C464 N468 1.427 . S
C465 H455 0.929 . S
C465 C463 1.433 . S
C465 N468 1.384 . S
C466 H457 0.929 . S
C466 C458 1.378 . S
C466 C461 1.350 . S
C467 H454 0.929 . S
C467 C459 1.433 . S
C467 N469 1.384 . S
N468 C464 1.427 . S
N468 C465 1.384 . S
N469 C461 1.427 . S
N469 C467 1.384 . S
H470 C476 0.930 . S
H471 C480 0.930 . S
H472 C485 0.929 . S
H473 C483 0.929 . S
H474 C478 0.929 . S
H475 C484 0.929 . S
C476 H470 0.930 . S
C476 C477 1.367 . S
C476 C484 1.378 . S
C477 C476 1.367 . S
C477 C485 1.433 . S
C478 H474 0.929 . S
C478 C480 1.378 . S
C478 C482 1.350 . S
C479 C482 1.463 . S
C479 C484 1.350 . S
C479 N487 1.427 . S
C480 H471 0.930 . S
C480 C478 1.378 . S
C480 C481 1.367 . S
C481 C480 1.367 . S
C481 C483 1.433 . S
C482 C478 1.350 . S
C482 C479 1.463 . S
C482 N486 1.427 . S
C483 H473 0.929 . S
C483 C481 1.433 . S
C483 N486 1.384 . S
C484 H475 0.929 . S
C484 C476 1.378 . S
C484 C479 1.350 . S
C485 H472 0.929 . S
C485 C477 1.433 . S
C485 N487 1.384 . S
N486 C482 1.427 . S
N486 C483 1.384 . S
N487 C479 1.427 . S
N487 C485 1.384 . S
H488 C494 0.930 . S
H489 C498 0.930 . S
H490 C503 0.929 . S
H491 C501 0.929 . S
H492 C496 0.929 . S
H493 C502 0.929 . S
C494 H488 0.930 . S
C494 C495 1.367 . S
C494 C502 1.378 . S
C495 C494 1.367 . S
C495 C503 1.433 . S
C496 H492 0.929 . S
C496 C498 1.378 . S
C496 C500 1.350 . S
C497 C500 1.463 . S
C497 C502 1.350 . S
C497 N505 1.427 . S
C498 H489 0.930 . S
C498 C496 1.378 . S
C498 C499 1.367 . S
C499 C498 1.367 . S
C499 C501 1.433 . S
C500 C496 1.350 . S
C500 C497 1.463 . S
C500 N504 1.427 . S
C501 H491 0.929 . S
C501 C499 1.433 . S
C501 N504 1.384 . S
C502 H493 0.929 . S
C502 C494 1.378 . S
C502 C497 1.350 . S
C503 H490 0.929 . S
C503 C495 1.433 . S
C503 N505 1.384 . S
N504 C500 1.427 . S
N504 C501 1.384 . S
N505 C497 1.427 . S
N505 C503 1.384 . S
H506 C512 0.930 . S
H507 C516 0.930 . S
H508 C521 0.929 . S
H509 C519 0.929 . S
H510 C514 0.929 . S
H511 C520 0.929 . S
C512 H506 0.930 . S
C512 C513 1.367 . S
C512 C520 1.378 . S
C513 C512 1.367 . S
C513 C521 1.433 . S
C514 H510 0.929 . S
C514 C516 1.378 . S
C514 C518 1.350 . S
C515 C518 1.463 . S
C515 C520 1.350 . S
C515 N523 1.427 . S
C516 H507 0.930 . S
C516 C514 1.378 . S
C516 C517 1.367 . S
C517 C516 1.367 . S
C517 C519 1.433 . S
C518 C514 1.350 . S
C518 C515 1.463 . S
C518 N522 1.427 . S
C519 H509 0.929 . S
C519 C517 1.433 . S
C519 N522 1.384 . S
C520 H511 0.929 . S
C520 C512 1.378 . S
C520 C515 1.350 . S
C521 H508 0.929 . S
C521 C513 1.433 . S
C521 N523 1.384 . S
N522 C518 1.427 . S
N522 C519 1.384 . S
N523 C515 1.427 . S
N523 C521 1.384 . S
H524 C530 0.930 . S
H525 C534 0.930 . S
H526 C539 0.929 . S
H527 C537 0.929 . S
H528 C532 0.929 . S
H529 C538 0.929 . S
C530 H524 0.930 . S
C530 C531 1.367 . S
C530 C538 1.378 . S
C531 C530 1.367 . S
C531 C539 1.433 . S
C532 H528 0.929 . S
C532 C534 1.378 . S
C532 C536 1.350 . S
C533 C536 1.463 1_545 S
C533 C538 1.350 . S
C533 N541 1.427 . S
C534 H525 0.930 . S
C534 C532 1.378 . S
C534 C535 1.367 . S
C535 C534 1.367 . S
C535 C537 1.433 . S
C536 C532 1.350 . S
C536 C533 1.463 1_565 S
C536 N540 1.427 . S
C537 H527 0.929 . S
C537 C535 1.433 . S
C537 N540 1.384 . S
C538 H529 0.929 . S
C538 C530 1.378 . S
C538 C533 1.350 . S
C539 H526 0.929 . S
C539 C531 1.433 . S
C539 N541 1.384 . S
N540 C536 1.427 . S
N540 C537 1.384 . S
N541 C533 1.427 . S
N541 C539 1.384 . S
H542 C548 0.930 . S
H543 C552 0.930 . S
H544 C557 0.929 . S
H545 C555 0.929 . S
H546 C550 0.929 . S
H547 C556 0.929 . S
C548 H542 0.930 . S
C548 C549 1.367 . S
C548 C556 1.378 . S
C549 C548 1.367 . S
C549 C557 1.433 . S
C550 H546 0.929 . S
C550 C552 1.378 . S
C550 C554 1.350 . S
C551 C554 1.463 1_565 S
C551 C556 1.350 . S
C551 N559 1.427 . S
C552 H543 0.930 . S
C552 C550 1.378 . S
C552 C553 1.367 . S
C553 C552 1.367 . S
C553 C555 1.433 . S
C554 C550 1.350 . S
C554 C551 1.463 1_545 S
C554 N558 1.427 . S
C555 H545 0.929 . S
C555 C553 1.433 . S
C555 N558 1.384 . S
C556 H547 0.929 . S
C556 C548 1.378 . S
C556 C551 1.350 . S
C557 H544 0.929 . S
C557 C549 1.433 . S
C557 N559 1.384 . S
N558 C554 1.427 . S
N558 C555 1.384 . S
N559 C551 1.427 . S
N559 C557 1.384 . S
H560 C566 0.930 . S
H561 C570 0.930 . S
H562 C575 0.929 . S
H563 C573 0.929 . S
H564 C568 0.929 . S
H565 C574 0.929 . S
C566 H560 0.930 . S
C566 C567 1.367 . S
C566 C574 1.378 . S
C567 C566 1.367 . S
C567 C575 1.433 . S
C568 H564 0.929 . S
C568 C570 1.378 . S
C568 C572 1.350 . S
C569 C572 1.463 . S
C569 C574 1.350 . S
C569 N577 1.427 . S
C570 H561 0.930 . S
C570 C568 1.378 . S
C570 C571 1.367 . S
C571 C570 1.367 . S
C571 C573 1.433 . S
C572 C568 1.350 . S
C572 C569 1.463 . S
C572 N576 1.427 . S
C573 H563 0.929 . S
C573 C571 1.433 . S
C573 N576 1.384 . S
C574 H565 0.929 . S
C574 C566 1.378 . S
C574 C569 1.350 . S
C575 H562 0.929 . S
C575 C567 1.433 . S
C575 N577 1.384 . S
N576 C572 1.427 . S
N576 C573 1.384 . S
N577 C569 1.427 . S
N577 C575 1.384 . S
H578 C584 0.930 . S
H579 C588 0.930 . S
H580 C593 0.929 . S
H581 C591 0.929 . S
H582 C586 0.929 . S
H583 C592 0.929 . S
C584 H578 0.930 . S
C584 C585 1.367 . S
C584 C592 1.378 . S
C585 C584 1.367 . S
C585 C593 1.433 . S
C586 H582 0.929 . S
C586 C588 1.378 . S
C586 C590 1.350 . S
C587 C590 1.463 . S
C587 C592 1.350 . S
C587 N595 1.427 . S
C588 H579 0.930 . S
C588 C586 1.378 . S
C588 C589 1.367 . S
C589 C588 1.367 . S
C589 C591 1.433 . S
C590 C586 1.350 . S
C590 C587 1.463 . S
C590 N594 1.427 . S
C591 H581 0.929 . S
C591 C589 1.433 . S
C591 N594 1.384 . S
C592 H583 0.929 . S
C592 C584 1.378 . S
C592 C587 1.350 . S
C593 H580 0.929 . S
C593 C585 1.433 . S
C593 N595 1.384 . S
N594 C590 1.427 . S
N594 C591 1.384 . S
N595 C587 1.427 . S
N595 C593 1.384 . S
H596 C602 0.930 . S
H597 C606 0.930 . S
H598 C611 0.929 . S
H599 C609 0.929 . S
H600 C604 0.929 . S
H601 C610 0.929 . S
C602 H596 0.930 . S
C602 C603 1.367 . S
C602 C610 1.378 . S
C603 C602 1.367 . S
C603 C611 1.433 . S
C604 H600 0.929 . S
C604 C606 1.378 . S
C604 C608 1.350 . S
C605 C608 1.463 1_565 S
C605 C610 1.350 . S
C605 N613 1.427 . S
C606 H597 0.930 . S
C606 C604 1.378 . S
C606 C607 1.367 . S
C607 C606 1.367 . S
C607 C609 1.433 . S
C608 C604 1.350 . S
C608 C605 1.463 1_545 S
C608 N612 1.427 . S
C609 H599 0.929 . S
C609 C607 1.433 . S
C609 N612 1.384 . S
C610 H601 0.929 . S
C610 C602 1.378 . S
C610 C605 1.350 . S
C611 H598 0.929 . S
C611 C603 1.433 . S
C611 N613 1.384 . S
N612 C608 1.427 . S
N612 C609 1.384 . S
N613 C605 1.427 . S
N613 C611 1.384 . S
H614 C620 0.930 . S
H615 C624 0.930 . S
H616 C629 0.929 . S
H617 C627 0.929 . S
H618 C622 0.929 . S
H619 C628 0.929 . S
C620 H614 0.930 . S
C620 C621 1.367 . S
C620 C628 1.378 . S
C621 C620 1.367 . S
C621 C629 1.433 . S
C622 H618 0.929 . S
C622 C624 1.378 . S
C622 C626 1.350 . S
C623 C626 1.463 1_565 S
C623 C628 1.350 . S
C623 N631 1.427 . S
C624 H615 0.930 . S
C624 C622 1.378 . S
C624 C625 1.367 . S
C625 C624 1.367 . S
C625 C627 1.433 . S
C626 C622 1.350 . S
C626 C623 1.463 1_545 S
C626 N630 1.427 . S
C627 H617 0.929 . S
C627 C625 1.433 . S
C627 N630 1.384 . S
C628 H619 0.929 . S
C628 C620 1.378 . S
C628 C623 1.350 . S
C629 H616 0.929 . S
C629 C621 1.433 . S
C629 N631 1.384 . S
N630 C626 1.427 . S
N630 C627 1.384 . S
N631 C623 1.427 . S
N631 C629 1.384 . S
C279 C2 1.559 . S
C283 C36 1.561 . S
C297 C104 1.558 . S
C301 C70 1.560 . S
C315 C138 1.562 . S
C319 C172 1.560 . S
C333 C240 1.561 . S
C337 C206 1.560 . S
C351 C20 1.533 . S
C355 C156 1.533 . S
C369 C54 1.535 . S
C373 C190 1.535 . S
C387 C88 1.534 . S
C391 C224 1.534 . S
C405 C122 1.532 . S
C409 C258 1.532 . S
C423 C101 1.618 . S
C427 C33 1.616 . S
C441 C135 1.616 . S
C445 C67 1.615 . S
C459 C169 1.616 . S
C463 C237 1.615 . S
C477 C203 1.615 . S
C481 C271 1.616 . S
C495 C9 1.193 . S
C499 C5 1.196 . S
C513 C43 1.182 . S
C517 C39 1.202 . S
C531 C73 1.195 . S
C535 C77 1.190 . S
C549 C107 1.198 . S
C553 C111 1.184 . S
C567 C141 1.201 . S
C571 C145 1.181 . S
C585 C179 1.192 . S
C589 C175 1.195 . S
C603 C209 1.202 . S
C607 C213 1.181 . S
C621 C247 1.181 . S
C625 C243 1.201 . S
