# Generated by pormake.
# Topology lcs, (4)-cn, num edge types: 1
# Building blocks:
#     Node 0, Type 0, BuildingBlock: AZAVOO_clean_sbu_0, # of connection points: 4
#     Node 1, Type 0, BuildingBlock: AZAVOO_clean_sbu_0, # of connection points: 4
#     Node 2, Type 0, BuildingBlock: AZAVOO_clean_sbu_0, # of connection points: 4
#     Node 3, Type 0, BuildingBlock: AZAVOO_clean_sbu_0, # of connection points: 4
#     Node 4, Type 0, BuildingBlock: AZAVOO_clean_sbu_0, # of connection points: 4
#     Node 5, Type 0, BuildingBlock: AZAVOO_clean_sbu_0, # of connection points: 4
#     Node 6, Type 0, BuildingBlock: AZAVOO_clean_sbu_0, # of connection points: 4
#     Node 7, Type 0, BuildingBlock: AZAVOO_clean_sbu_0, # of connection points: 4
#     Node 8, Type 0, BuildingBlock: AZAVOO_clean_sbu_0, # of connection points: 4
#     Node 9, Type 0, BuildingBlock: AZAVOO_clean_sbu_0, # of connection points: 4
#     Node 10, Type 0, BuildingBlock: AZAVOO_clean_sbu_0, # of connection points: 4
#     Node 11, Type 0, BuildingBlock: AZAVOO_clean_sbu_0, # of connection points: 4
#     Node 12, Type 0, BuildingBlock: AZAVOO_clean_sbu_0, # of connection points: 4
#     Node 13, Type 0, BuildingBlock: AZAVOO_clean_sbu_0, # of connection points: 4
#     Node 14, Type 0, BuildingBlock: AZAVOO_clean_sbu_0, # of connection points: 4
#     Node 15, Type 0, BuildingBlock: AZAVOO_clean_sbu_0, # of connection points: 4
#     Node 16, Type 0, BuildingBlock: AZAVOO_clean_sbu_0, # of connection points: 4
#     Node 17, Type 0, BuildingBlock: AZAVOO_clean_sbu_0, # of connection points: 4
#     Node 18, Type 0, BuildingBlock: AZAVOO_clean_sbu_0, # of connection points: 4
#     Node 19, Type 0, BuildingBlock: AZAVOO_clean_sbu_0, # of connection points: 4
#     Node 20, Type 0, BuildingBlock: AZAVOO_clean_sbu_0, # of connection points: 4
#     Node 21, Type 0, BuildingBlock: AZAVOO_clean_sbu_0, # of connection points: 4
#     Node 22, Type 0, BuildingBlock: AZAVOO_clean_sbu_0, # of connection points: 4
#     Node 23, Type 0, BuildingBlock: AZAVOO_clean_sbu_0, # of connection points: 4
#     Edge 24, Type (0, 0), BuildingBlock: UVAHIK_clean_linker_0, # of connection points: 2
#     Edge 25, Type (0, 0), BuildingBlock: UVAHIK_clean_linker_0, # of connection points: 2
#     Edge 26, Type (0, 0), BuildingBlock: UVAHIK_clean_linker_0, # of connection points: 2
#     Edge 27, Type (0, 0), BuildingBlock: UVAHIK_clean_linker_0, # of connection points: 2
#     Edge 28, Type (0, 0), BuildingBlock: UVAHIK_clean_linker_0, # of connection points: 2
#     Edge 29, Type (0, 0), BuildingBlock: UVAHIK_clean_linker_0, # of connection points: 2
#     Edge 30, Type (0, 0), BuildingBlock: UVAHIK_clean_linker_0, # of connection points: 2
#     Edge 31, Type (0, 0), BuildingBlock: UVAHIK_clean_linker_0, # of connection points: 2
#     Edge 32, Type (0, 0), BuildingBlock: UVAHIK_clean_linker_0, # of connection points: 2
#     Edge 33, Type (0, 0), BuildingBlock: UVAHIK_clean_linker_0, # of connection points: 2
#     Edge 34, Type (0, 0), BuildingBlock: UVAHIK_clean_linker_0, # of connection points: 2
#     Edge 35, Type (0, 0), BuildingBlock: UVAHIK_clean_linker_0, # of connection points: 2
#     Edge 36, Type (0, 0), BuildingBlock: UVAHIK_clean_linker_0, # of connection points: 2
#     Edge 37, Type (0, 0), BuildingBlock: UVAHIK_clean_linker_0, # of connection points: 2
#     Edge 38, Type (0, 0), BuildingBlock: UVAHIK_clean_linker_0, # of connection points: 2
#     Edge 39, Type (0, 0), BuildingBlock: UVAHIK_clean_linker_0, # of connection points: 2
#     Edge 40, Type (0, 0), BuildingBlock: UVAHIK_clean_linker_0, # of connection points: 2
#     Edge 41, Type (0, 0), BuildingBlock: UVAHIK_clean_linker_0, # of connection points: 2
#     Edge 42, Type (0, 0), BuildingBlock: UVAHIK_clean_linker_0, # of connection points: 2
#     Edge 43, Type (0, 0), BuildingBlock: UVAHIK_clean_linker_0, # of connection points: 2
#     Edge 44, Type (0, 0), BuildingBlock: UVAHIK_clean_linker_0, # of connection points: 2
#     Edge 45, Type (0, 0), BuildingBlock: UVAHIK_clean_linker_0, # of connection points: 2
#     Edge 46, Type (0, 0), BuildingBlock: UVAHIK_clean_linker_0, # of connection points: 2
#     Edge 47, Type (0, 0), BuildingBlock: UVAHIK_clean_linker_0, # of connection points: 2
#     Edge 48, Type (0, 0), BuildingBlock: UVAHIK_clean_linker_0, # of connection points: 2
#     Edge 49, Type (0, 0), BuildingBlock: UVAHIK_clean_linker_0, # of connection points: 2
#     Edge 50, Type (0, 0), BuildingBlock: UVAHIK_clean_linker_0, # of connection points: 2
#     Edge 51, Type (0, 0), BuildingBlock: UVAHIK_clean_linker_0, # of connection points: 2
#     Edge 52, Type (0, 0), BuildingBlock: UVAHIK_clean_linker_0, # of connection points: 2
#     Edge 53, Type (0, 0), BuildingBlock: UVAHIK_clean_linker_0, # of connection points: 2
#     Edge 54, Type (0, 0), BuildingBlock: UVAHIK_clean_linker_0, # of connection points: 2
#     Edge 55, Type (0, 0), BuildingBlock: UVAHIK_clean_linker_0, # of connection points: 2
#     Edge 56, Type (0, 0), BuildingBlock: UVAHIK_clean_linker_0, # of connection points: 2
#     Edge 57, Type (0, 0), BuildingBlock: UVAHIK_clean_linker_0, # of connection points: 2
#     Edge 58, Type (0, 0), BuildingBlock: UVAHIK_clean_linker_0, # of connection points: 2
#     Edge 59, Type (0, 0), BuildingBlock: UVAHIK_clean_linker_0, # of connection points: 2
#     Edge 60, Type (0, 0), BuildingBlock: UVAHIK_clean_linker_0, # of connection points: 2
#     Edge 61, Type (0, 0), BuildingBlock: UVAHIK_clean_linker_0, # of connection points: 2
#     Edge 62, Type (0, 0), BuildingBlock: UVAHIK_clean_linker_0, # of connection points: 2
#     Edge 63, Type (0, 0), BuildingBlock: UVAHIK_clean_linker_0, # of connection points: 2
#     Edge 64, Type (0, 0), BuildingBlock: UVAHIK_clean_linker_0, # of connection points: 2
#     Edge 65, Type (0, 0), BuildingBlock: UVAHIK_clean_linker_0, # of connection points: 2
#     Edge 66, Type (0, 0), BuildingBlock: UVAHIK_clean_linker_0, # of connection points: 2
#     Edge 67, Type (0, 0), BuildingBlock: UVAHIK_clean_linker_0, # of connection points: 2
#     Edge 68, Type (0, 0), BuildingBlock: UVAHIK_clean_linker_0, # of connection points: 2
#     Edge 69, Type (0, 0), BuildingBlock: UVAHIK_clean_linker_0, # of connection points: 2
#     Edge 70, Type (0, 0), BuildingBlock: UVAHIK_clean_linker_0, # of connection points: 2
#     Edge 71, Type (0, 0), BuildingBlock: UVAHIK_clean_linker_0, # of connection points: 2
# Relax obj value: 0.138
# Max RMSD: 0.189
# Mean RMSD: 0.183
data_MOF--net-lcs--node1-AZAVOO_clean_sbu_0--edge1-UVAHIK_clean_linker_0
_symmetry_space_group_name_H-M    P1
_symmetry_Int_Tables_number       1
_symmetry_cell_setting            triclinic
loop_
_symmetry_equiv_pos_as_xyz
'x, y, z'
_cell_length_a     62.968202
_cell_length_b     61.968407
_cell_length_c     61.978352
_cell_angle_alpha  93.569203
_cell_angle_beta   93.73313
_cell_angle_gamma 93.707154
loop_
_atom_site_label
_atom_site_type_symbol
_atom_site_fract_x
_atom_site_fract_y
_atom_site_fract_z
_atom_type_partial_charge
Mg0 Mg 0.02053 0.26893 0.46223 0.0
O1 O -0.00096 0.24693 0.43735 0.0
O2 O 0.9672 0.26084 0.43436 0.0
Mg3 Mg 0.96863 0.29212 0.45627 0.0
C4 C 0.9798 0.24631 0.42925 0.0
C5 C 0.05 0.23149 0.457 0.0
O6 O 0.03322 0.22178 0.4647 0.0
O7 O 0.02528 0.29386 0.43698 0.0
O8 O 0.99348 0.30802 0.43558 0.0
O9 O 0.00769 0.2502 0.48881 0.0
O10 O 0.99395 0.27951 0.47687 0.0
C11 C 0.01255 0.30741 0.42976 0.0
C12 C 0.99267 0.26348 0.48906 0.0
O13 O 0.04955 0.25133 0.45297 0.0
Mg14 Mg 0.97841 0.75404 0.56856 0.0
O15 O 0.99269 0.77648 0.59718 0.0
O16 O 0.96674 0.78662 0.61767 0.0
Mg17 Mg 0.93556 0.76957 0.60228 0.0
C18 C 0.98635 0.78714 0.61353 0.0
C19 C 0.01945 0.7431 0.544 0.0
O20 O 0.007 0.74618 0.52677 0.0
O21 O 0.97427 0.72628 0.59072 0.0
O22 O 0.94725 0.73623 0.60984 0.0
O23 O 0.97274 0.78296 0.54956 0.0
O24 O 0.94931 0.76831 0.57031 0.0
C25 C 0.96098 0.72272 0.605 0.0
C26 C 0.95461 0.78369 0.55823 0.0
O27 O 0.01213 0.74494 0.5626 0.0
Mg28 Mg 0.50751 0.77436 0.96852 0.0
O29 O 0.48786 0.75292 0.9416 0.0
O30 O 0.45551 0.76563 0.93776 0.0
Mg31 Mg 0.45505 0.7959 0.96071 0.0
C32 C 0.46892 0.75192 0.93262 0.0
C33 C 0.53866 0.7385 0.96304 0.0
O34 O 0.52191 0.72773 0.96967 0.0
O35 O 0.51279 0.80083 0.94517 0.0
O36 O 0.48033 0.81342 0.94153 0.0
O37 O 0.49411 0.75375 0.99326 0.0
O38 O 0.47979 0.78312 0.98208 0.0
C39 C 0.49993 0.81383 0.9372 0.0
C40 C 0.47855 0.7664 0.99341 0.0
O41 O 0.53763 0.75849 0.95988 0.0
Mg42 Mg 0.47867 0.24889 0.06759 0.0
O43 O 0.49395 0.27207 0.09538 0.0
O44 O 0.46853 0.28354 0.11599 0.0
Mg45 Mg 0.43693 0.26626 0.10219 0.0
C46 C 0.48803 0.28353 0.11145 0.0
C47 C 0.52607 0.25391 0.05706 0.0
O48 O 0.52093 0.27415 0.05783 0.0
O49 O 0.47493 0.222 0.09085 0.0
O50 O 0.44915 0.23354 0.11092 0.0
O51 O 0.4727 0.27703 0.04752 0.0
O52 O 0.4502 0.26393 0.07018 0.0
C53 C 0.46242 0.21957 0.10606 0.0
C54 C 0.45527 0.27865 0.05728 0.0
O55 O 0.51186 0.23906 0.06004 0.0
Mg56 Mg 0.98699 0.78664 0.17422 0.0
O57 O 0.96001 0.77318 0.14921 0.0
O58 O 0.95129 0.80056 0.12929 0.0
Mg59 Mg 0.97089 0.83151 0.14244 0.0
C60 C 0.94903 0.7807 0.13367 0.0
C61 C 0.00016 0.74845 0.20089 0.0
O62 O -0.00072 0.76401 0.21614 0.0
O63 O 0.01019 0.78793 0.14755 0.0
O64 O 0.00111 0.81715 0.1306 0.0
O65 O 0.9635 0.79596 0.19821 0.0
O66 O 0.97549 0.81734 0.17391 0.0
C67 C 0.01316 0.80157 0.13324 0.0
C68 C 0.96311 0.81431 0.18931 0.0
O69 O 0.9955 0.75237 0.18131 0.0
Mg70 Mg 0.53536 0.7243 0.34538 0.0
O71 O 0.52959 0.75024 0.32143 0.0
O72 O 0.56033 0.7593 0.30701 0.0
Mg73 Mg 0.58626 0.74072 0.32364 0.0
C74 C 0.54038 0.76102 0.30851 0.0
C75 C 0.48769 0.73172 0.34964 0.0
O76 O 0.49628 0.7517 0.35145 0.0
O77 O 0.53823 0.69943 0.31732 0.0
O78 O 0.57059 0.70902 0.30681 0.0
O79 O 0.54214 0.74943 0.37235 0.0
O80 O 0.56674 0.73738 0.35169 0.0
C81 C 0.55366 0.69632 0.30537 0.0
C82 C 0.5617 0.7507 0.36705 0.0
O83 O 0.49958 0.71625 0.34604 0.0
Mg84 Mg 0.49054 0.28977 0.66546 0.0
O85 O 0.46541 0.27445 0.63936 0.0
O86 O 0.45784 0.30007 0.6168 0.0
Mg87 Mg 0.47688 0.33173 0.62889 0.0
C88 C 0.45536 0.28067 0.62253 0.0
C89 C 0.50295 0.25483 0.69621 0.0
O90 O 0.50256 0.27214 0.70951 0.0
O91 O 0.51614 0.28929 0.64117 0.0
O92 O 0.50793 0.31639 0.62061 0.0
O93 O 0.46502 0.30092 0.68627 0.0
O94 O 0.47963 0.32031 0.66175 0.0
C95 C 0.52 0.30144 0.62578 0.0
C96 C 0.46598 0.31863 0.67619 0.0
O97 O 0.49821 0.25636 0.67613 0.0
Mg98 Mg 0.02575 0.22201 0.84557 0.0
O99 O 0.0199 0.24833 0.82186 0.0
O100 O 0.05065 0.25762 0.80764 0.0
Mg101 Mg 0.07621 0.2375 0.82248 0.0
C102 C 0.03075 0.25957 0.8093 0.0
C103 C 0.97766 0.22948 0.85006 0.0
O104 O 0.98546 0.24965 0.84995 0.0
O105 O 0.02741 0.19723 0.81733 0.0
O106 O 0.05916 0.20653 0.80523 0.0
O107 O 0.03353 0.2469 0.87252 0.0
O108 O 0.05739 0.23453 0.85107 0.0
C109 C 0.04207 0.1941 0.80443 0.0
C110 C 0.0529 0.24793 0.86664 0.0
O111 O 0.99005 0.21424 0.84753 0.0
Mg112 Mg 0.42656 0.97482 0.22443 0.0
O113 O 0.39961 0.95762 0.20111 0.0
O114 O 0.38714 0.92874 0.21753 0.0
Mg115 Mg 0.40559 0.92691 0.2502 0.0
C116 C 0.38691 0.94068 0.20145 0.0
C117 C 0.42889 0.02367 0.21536 0.0
O118 O 0.4293 0.02506 0.23662 0.0
O119 O 0.4025 0.98779 0.24707 0.0
O120 O 0.39187 0.95822 0.26349 0.0
O121 O 0.45071 0.95456 0.20972 0.0
O122 O 0.43204 0.94557 0.23726 0.0
C123 C 0.39171 0.97854 0.26107 0.0
C124 C 0.44548 0.94049 0.22337 0.0
O125 O 0.4271 0.00506 0.2053 0.0
Mg126 Mg 0.27856 0.09077 0.47395 0.0
O127 O 0.30409 0.11706 0.48809 0.0
O128 O 0.3111 0.13886 0.46168 0.0
Mg129 Mg 0.29145 0.12604 0.43062 0.0
C130 C 0.31399 0.13366 0.48122 0.0
C131 C 0.25399 0.07025 0.50949 0.0
O132 O 0.24132 0.06547 0.49191 0.0
O133 O 0.25313 0.11534 0.47437 0.0
O134 O 0.26095 0.13502 0.4465 0.0
O135 O 0.30362 0.06936 0.46238 0.0
O136 O 0.28861 0.09365 0.44303 0.0
C137 C 0.24918 0.13044 0.46186 0.0
C138 C 0.30209 0.07903 0.44445 0.0
O139 O 0.27158 0.08114 0.50788 0.0
Mg140 Mg 0.16603 0.98033 0.75077 0.0
O141 O 0.14452 0.95003 0.73814 0.0
O142 O 0.12588 0.93956 0.76568 0.0
Mg143 Mg 0.13382 0.96356 0.79479 0.0
C144 C 0.13094 0.93707 0.74611 0.0
C145 C 0.19161 -0.00123 0.71486 0.0
O146 O 0.20336 0.00534 0.73264 0.0
O147 O 0.13728 0.00053 0.74801 0.0
O148 O 0.11856 0.98977 0.77535 0.0
O149 O 0.19123 0.95963 0.76327 0.0
O150 O 0.16517 0.97084 0.78236 0.0
C151 C 0.12104 0.0014 0.75925 0.0
C152 C 0.1814 0.95935 0.78099 0.0
O153 O 0.17438 0.98727 0.71646 0.0
Mg154 Mg 0.24057 0.79468 0.99085 0.0
O155 O 0.2617 0.82073 0.01201 0.0
O156 O 0.29364 0.82276 -0.00181 0.0
Mg157 Mg 0.2926 0.7995 0.96795 0.0
C158 C 0.28099 0.82869 0.01238 0.0
C159 C 0.20044 0.78757 0.01343 0.0
O160 O 0.20738 0.76829 0.00937 0.0
O161 O 0.23586 0.81858 0.96463 0.0
O162 O 0.2678 0.81942 0.9508 0.0
O163 O 0.25333 0.76945 0.01137 0.0
O164 O 0.26738 0.77968 0.98155 0.0
C165 C 0.24869 0.82521 0.95092 0.0
C166 C 0.26853 0.76849 -0.00165 0.0
O167 O 0.21099 0.80402 0.00733 0.0
Mg168 Mg 0.23322 0.40961 0.02369 0.0
O169 O 0.23866 0.43422 -0.00176 0.0
O170 O 0.20723 0.44711 0.98869 0.0
Mg171 Mg 0.18145 0.42887 0.00612 0.0
C172 C 0.22736 0.44675 0.98744 0.0
C173 C 0.2814 0.40688 0.01802 0.0
O174 O 0.27352 0.40498 0.99779 0.0
O175 O 0.22839 0.43711 0.04868 0.0
O176 O 0.19558 0.44591 0.0383 0.0
O177 O 0.22826 0.38265 -0.0018 0.0
O178 O 0.20245 0.40207 0.00959 0.0
C179 C 0.21219 0.44809 0.05145 0.0
C180 C 0.20846 0.38713 0.99638 0.0
O181 O 0.26887 0.41026 0.03298 0.0
Mg182 Mg 0.78298 0.18299 0.01207 0.0
O183 O 0.76813 0.15481 0.98924 0.0
O184 O 0.79393 0.13407 0.97911 0.0
Mg185 Mg 0.82535 0.14881 0.99614 0.0
C186 C 0.77437 0.13844 0.97849 0.0
C187 C 0.7434 0.20929 0.02131 0.0
O188 O 0.75669 0.22509 0.01619 0.0
O189 O 0.78679 0.16044 0.03951 0.0
O190 O 0.8138 0.1413 0.02954 0.0
O191 O 0.78886 0.20246 0.98361 0.0
O192 O 0.81194 0.18091 0.99761 0.0
C193 C 0.80008 0.14613 0.04304 0.0
C194 C 0.80682 0.19349 0.98259 0.0
O195 O 0.74962 0.19019 0.02142 0.0
Mg196 Mg 0.09892 0.50502 0.2733 0.0
O197 O 0.121 0.51812 0.30282 0.0
O198 O 0.14005 0.49094 0.31346 0.0
Mg199 Mg 0.13075 0.46092 0.29076 0.0
C200 C 0.13505 0.51057 0.31555 0.0
C201 C 0.07152 0.54183 0.25964 0.0
O202 O 0.05766 0.52493 0.2583 0.0
O203 O 0.12739 0.50674 0.25252 0.0
O204 O 0.14489 0.47835 0.26268 0.0
O205 O 0.07393 0.49341 0.29477 0.0
O206 O 0.09954 0.47368 0.28366 0.0
C207 C 0.14274 0.49437 0.25088 0.0
C208 C 0.08348 0.47554 0.29529 0.0
O209 O 0.09081 0.53931 0.26582 0.0
Mg210 Mg 0.73492 0.91142 0.53266 0.0
O211 O 0.73688 0.93887 0.5094 0.0
O212 O 0.70347 0.94675 0.5 0.0
Mg213 Mg 0.68032 0.92444 0.51653 0.0
C214 C 0.72363 0.94996 0.49909 0.0
C215 C 0.78398 0.91609 0.52769 0.0
O216 O 0.77691 0.91746 0.50744 0.0
O217 O 0.72703 0.93595 0.55948 0.0
O218 O 0.69318 0.94127 0.54922 0.0
O219 O 0.73288 0.8862 0.5052 0.0
O220 O 0.70499 0.90119 0.51805 0.0
C221 C 0.70956 0.94469 0.56258 0.0
C222 C 0.71256 0.88839 0.50376 0.0
O223 O 0.77064 0.91522 0.54223 0.0
Mg224 Mg 0.83237 0.03273 0.29129 0.0
O225 O 0.86083 0.05476 0.30711 0.0
O226 O 0.87188 0.03937 0.33718 0.0
Mg227 Mg 0.85094 0.00849 0.341 0.0
C228 C 0.87336 0.05454 0.32419 0.0
C229 C 0.81689 0.0581 0.25282 0.0
O230 O 0.80036 0.05773 0.26472 0.0
O231 O 0.85458 0.00723 0.27971 0.0
O232 O 0.86285 0.99185 0.31053 0.0
O233 O 0.80976 0.05121 0.31072 0.0
O234 O 0.82576 0.02274 0.32163 0.0
C235 C 0.86361 0.99273 0.29006 0.0
C236 C 0.81374 0.03826 0.32583 0.0
O237 O 0.83357 0.04932 0.25952 0.0
Mg238 Mg 0.28143 0.69196 0.49887 0.0
O239 O 0.26785 0.6628 0.47662 0.0
O240 O 0.29436 0.6422 0.4681 0.0
Mg241 Mg 0.32509 0.6579 0.48584 0.0
C242 C 0.2747 0.64625 0.46669 0.0
C243 C 0.24064 0.70253 0.52453 0.0
O244 O 0.25393 0.70202 0.54171 0.0
O245 O 0.28442 0.67028 0.5273 0.0
O246 O 0.31205 0.65136 0.51873 0.0
O247 O 0.28839 0.71052 0.4699 0.0
O248 O 0.31082 0.68935 0.48566 0.0
C249 C 0.29782 0.65626 0.53163 0.0
C250 C 0.3062 0.7012 0.46991 0.0
O251 O 0.24738 0.6993 0.50579 0.0
Mg252 Mg 0.33754 0.53885 0.77585 0.0
O253 O 0.36387 0.56254 0.79372 0.0
O254 O 0.3759 0.54604 0.82274 0.0
Mg255 Mg 0.3581 0.51298 0.82395 0.0
C256 C 0.37616 0.56226 0.81098 0.0
C257 C 0.32139 0.56882 0.74097 0.0
O258 O 0.30617 0.56961 0.75446 0.0
O259 O 0.36213 0.51662 0.76302 0.0
O260 O 0.37252 0.50046 0.79284 0.0
O261 O 0.31283 0.55293 0.79605 0.0
O262 O 0.33179 0.5256 0.80491 0.0
C263 C 0.37304 0.50287 0.77255 0.0
C264 C 0.3181 0.53919 0.80999 0.0
O265 O 0.33733 0.5579 0.74548 0.0
Mg266 Mg 0.58963 0.01231 0.78355 0.0
O267 O 0.61372 0.02248 0.81245 0.0
O268 O 0.62936 0.99272 0.82192 0.0
Mg269 Mg 0.61642 0.9641 0.79875 0.0
C270 C 0.62686 0.01298 0.8246 0.0
C271 C 0.56552 0.05241 0.77444 0.0
O272 O 0.55027 0.03738 0.77668 0.0
O273 O 0.61716 0.01108 0.76147 0.0
O274 O 0.63166 0.98069 0.77081 0.0
O275 O 0.56481 0.00311 0.80636 0.0
O276 O 0.58721 0.98071 0.79295 0.0
C277 C 0.631 0.99706 0.75926 0.0
C278 C 0.57232 0.98414 0.8057 0.0
O279 O 0.58481 0.04759 0.77692 0.0
Mg280 Mg 0.76842 0.60099 0.97757 0.0
O281 O 0.79389 0.62656 0.993 0.0
O282 O 0.80186 0.64939 0.96773 0.0
Mg283 Mg 0.78269 0.63785 0.93602 0.0
C284 C 0.8042 0.64334 0.98702 0.0
C285 C 0.74643 0.57518 0.01176 0.0
O286 O 0.73687 0.56643 0.99352 0.0
O287 O 0.74327 0.62574 0.97838 0.0
O288 O 0.75193 0.64652 0.95158 0.0
O289 O 0.79357 0.57989 0.96614 0.0
O290 O 0.77931 0.60489 0.94711 0.0
C291 C 0.73977 0.6414 0.96646 0.0
C292 C 0.79276 0.59023 0.9486 0.0
O293 O 0.76086 0.59038 0.01097 0.0
Mg294 Mg 0.92097 0.48467 0.73299 0.0
O295 O 0.89567 0.46717 0.70807 0.0
O296 O 0.88028 0.43975 0.72448 0.0
Mg297 Mg 0.89488 0.43955 0.75902 0.0
C298 C 0.88229 0.45071 0.70788 0.0
C299 C 0.94019 0.51772 0.70183 0.0
O300 O 0.95543 0.5042 0.70214 0.0
O301 O 0.89556 0.50034 0.75218 0.0
O302 O 0.88154 0.47205 0.76839 0.0
O303 O 0.94533 0.46191 0.72245 0.0
O304 O 0.92402 0.45628 0.74869 0.0
C305 C 0.8827 0.49221 0.76508 0.0
C306 C 0.93857 0.44942 0.73691 0.0
O307 O 0.92384 0.51374 0.7123 0.0
Mg308 Mg 0.75262 0.29768 0.49309 0.0
O309 O 0.77276 0.32457 0.51385 0.0
O310 O 0.80468 0.32836 0.5002 0.0
Mg311 Mg 0.80444 0.305 0.47003 0.0
C312 C 0.79164 0.33356 0.51428 0.0
C313 C 0.72171 0.30258 0.52949 0.0
O314 O 0.73815 0.29491 0.53987 0.0
O315 O 0.74673 0.32107 0.46667 0.0
O316 O 0.77857 0.32349 0.45264 0.0
O317 O 0.76679 0.27297 0.51348 0.0
O318 O 0.78005 0.28396 0.48357 0.0
C319 C 0.75912 0.32824 0.45281 0.0
C320 C 0.78187 0.27273 0.50028 0.0
O321 O 0.72289 0.30654 0.50971 0.0
Mg322 Mg 0.6647 0.47646 0.25181 0.0
O323 O 0.64394 0.44627 0.23816 0.0
O324 O 0.62485 0.43461 0.26489 0.0
Mg325 Mg 0.63311 0.45716 0.29526 0.0
C326 C 0.63019 0.43295 0.24536 0.0
C327 C 0.68582 0.50111 0.21665 0.0
O328 O 0.69405 0.51148 0.23472 0.0
O329 O 0.63531 0.49582 0.24999 0.0
O330 O 0.61786 0.48488 0.27811 0.0
O331 O 0.6906 0.45606 0.2634 0.0
O332 O 0.66425 0.46566 0.28291 0.0
C333 C 0.61974 0.4968 0.26213 0.0
C334 C 0.68089 0.45485 0.28112 0.0
O335 O 0.67253 0.48496 0.21781 0.0
C336 C 0.05898 0.46017 0.32166 0.0
C337 C 0.07671 0.45815 0.30921 0.0
C338 C 0.05225 0.4434 0.33426 0.0
C339 C 0.07066 0.3964 0.36136 0.0
H340 H 0.01069 0.37699 0.35797 0.0
C341 C 0.03961 0.32199 0.40521 0.0
C342 C 0.02008 0.32355 0.41478 0.0
C343 C 0.04668 0.3377 0.39151 0.0
C344 C 0.02746 0.38237 0.35935 0.0
H345 H 0.10107 0.43675 0.30009 0.0
H346 H 0.08963 0.40784 0.32244 0.0
H347 H 0.02275 0.40645 0.33649 0.0
H348 H 0.99275 0.34296 0.4175 0.0
H349 H 0.00526 0.37041 0.39429 0.0
H350 H 0.07538 0.37274 0.3846 0.0
C351 C 0.08104 0.42243 0.32253 0.0
C352 C 0.03434 0.39923 0.347 0.0
C353 C 0.0876 0.43906 0.30974 0.0
C354 C 0.0078 0.3411 0.41029 0.0
C355 C 0.01492 0.35684 0.39681 0.0
C356 C 0.06375 0.37968 0.37393 0.0
C357 C 0.06323 0.42438 0.33482 0.0
C358 C 0.05599 0.40646 0.34794 0.0
C359 C 0.03444 0.35538 0.38722 0.0
C360 C 0.04203 0.37252 0.37317 0.0
H361 H 0.0502 0.47462 0.32156 0.0
H362 H 0.03854 0.44536 0.34371 0.0
H363 H 0.08743 0.40178 0.3625 0.0
H364 H 0.04943 0.30863 0.40825 0.0
H365 H 0.06166 0.33589 0.38418 0.0
C366 C 0.94596 0.81811 0.54106 0.0
C367 C 0.94101 0.80213 0.55546 0.0
C368 C 0.93273 0.83522 0.53827 0.0
C369 C 0.89351 0.8666 0.56481 0.0
H370 H 0.86608 0.87141 0.50767 0.0
C371 C 0.81231 0.90236 0.55244 0.0
C372 C 0.8064 0.91117 0.53277 0.0
C373 C 0.83223 0.89394 0.55569 0.0
C374 C 0.87393 0.87081 0.52367 0.0
H375 H 0.91804 0.79161 0.57795 0.0
H376 H 0.89568 0.82173 0.57373 0.0
H377 H 0.89503 0.84748 0.51224 0.0
H378 H 0.81745 0.91972 0.5018 0.0
H379 H 0.85254 0.90577 0.50779 0.0
H380 H 0.87251 0.88977 0.57641 0.0
C381 C 0.9098 0.82104 0.56467 0.0
C382 C 0.89048 0.85699 0.52624 0.0
C383 C 0.92268 0.80376 0.56708 0.0
C384 C 0.82144 0.91281 0.51706 0.0
C385 C 0.8415 0.90463 0.52043 0.0
C386 C 0.87723 0.88071 0.56221 0.0
C387 C 0.91461 0.83686 0.55019 0.0
C388 C 0.89991 0.85424 0.54693 0.0
C389 C 0.84689 0.89439 0.53949 0.0
C390 C 0.86667 0.88242 0.54173 0.0
H391 H 0.95989 0.81727 0.53175 0.0
H392 H 0.93667 0.84719 0.52689 0.0
H393 H 0.90073 0.8649 0.58091 0.0
H394 H 0.8011 0.9008 0.56488 0.0
H395 H 0.83555 0.88598 0.57048 0.0
C396 C 0.40175 0.58235 0.83898 0.0
C397 C 0.38999 0.58188 0.81884 0.0
C398 C 0.41304 0.60131 0.84777 0.0
C399 C 0.4141 0.66075 0.84511 0.0
H400 H 0.4646 0.65855 0.88397 0.0
C401 C 0.44022 0.72957 0.90981 0.0
C402 C 0.46198 0.73393 0.91623 0.0
C403 C 0.43342 0.71209 0.89513 0.0
C404 C 0.45073 0.65964 0.87292 0.0
H405 H 0.38179 0.60094 0.7917 0.0
H406 H 0.40201 0.63403 0.80685 0.0
H407 H 0.45049 0.62609 0.86247 0.0
H408 H 0.49374 0.72362 0.91167 0.0
H409 H 0.48195 0.69345 0.88558 0.0
H410 H 0.4146 0.69441 0.85524 0.0
C411 C 0.40205 0.61975 0.81606 0.0
C412 C 0.44242 0.64087 0.86077 0.0
C413 C 0.39057 0.60073 0.80729 0.0
C414 C 0.47684 0.72063 0.9072 0.0
C415 C 0.47004 0.70325 0.8923 0.0
C416 C 0.42256 0.67959 0.85708 0.0
C417 C 0.41314 0.62038 0.83661 0.0
C418 C 0.42364 0.641 0.84717 0.0
C419 C 0.4482 0.69858 0.88624 0.0
C420 C 0.44065 0.67917 0.8716 0.0
H421 H 0.4017 0.56822 0.84843 0.0
H422 H 0.42102 0.60116 0.86377 0.0
H423 H 0.39957 0.66153 0.83493 0.0
H424 H 0.4283 0.73937 0.91652 0.0
H425 H 0.41645 0.70883 0.89128 0.0
C426 C 0.55425 0.22724 0.05354 0.0
C427 C 0.54825 0.2487 0.05346 0.0
C428 C 0.57535 0.22253 0.05061 0.0
C429 C 0.63037 0.24814 0.0544 0.0
H430 H 0.64235 0.19773 0.01813 0.0
C431 C 0.71444 0.23469 0.02633 0.0
C432 C 0.72127 0.21354 0.02618 0.0
C433 C 0.6934 0.23864 0.03037 0.0
C434 C 0.63927 0.21172 0.02852 0.0
H435 H 0.55971 0.28201 0.05002 0.0
H436 H 0.59633 0.27377 0.04464 0.0
H437 H 0.60544 0.20515 0.02365 0.0
H438 H 0.71136 0.17994 0.03036 0.0
H439 H 0.6747 0.18688 0.03754 0.0
H440 H 0.66419 0.2548 0.05915 0.0
C441 C 0.58484 0.2606 0.04731 0.0
C442 C 0.61812 0.21598 0.03169 0.0
C443 C 0.56378 0.2653 0.05025 0.0
C444 C 0.70662 0.19644 0.03032 0.0
C445 C 0.68556 0.20038 0.0343 0.0
C446 C 0.65151 0.2439 0.05121 0.0
C447 C 0.59091 0.23918 0.04754 0.0
C448 C 0.61341 0.23431 0.04457 0.0
C449 C 0.67869 0.22152 0.03431 0.0
C450 C 0.65621 0.22571 0.03815 0.0
H451 H 0.54269 0.21407 0.05605 0.0
H452 H 0.57953 0.20588 0.0511 0.0
H453 H 0.62732 0.26218 0.06475 0.0
H454 H 0.72529 0.24823 0.02316 0.0
H455 H 0.68856 0.25508 0.03001 0.0
C456 C 0.04316 0.56584 0.24761 0.0
C457 C 0.06471 0.56324 0.2536 0.0
C458 C 0.03659 0.58585 0.24158 0.0
C459 C 0.02871 0.62605 0.21765 0.0
H460 H 0.05267 0.67908 0.24896 0.0
C461 C 0.01024 0.71088 0.19017 0.0
C462 C 0.00725 0.727 0.20646 0.0
C463 C 0.01755 0.69091 0.19555 0.0
C464 C 0.04569 0.66442 0.24014 0.0
H465 H 0.0963 0.57969 0.25793 0.0
H466 H 0.08488 0.6146 0.24714 0.0
H467 H 0.06468 0.64435 0.25932 0.0
H468 H 0.00935 0.73463 0.24121 0.0
H469 H 0.02171 0.69977 0.25057 0.0
H470 H 0.0093 0.64607 0.19886 0.0
C471 C 0.07299 0.60121 0.24739 0.0
C472 C 0.05279 0.64451 0.24591 0.0
C473 C 0.07956 0.58116 0.25348 0.0
C474 C 0.01156 0.72262 0.22824 0.0
C475 C 0.01881 0.70267 0.23361 0.0
C476 C 0.02159 0.64596 0.2119 0.0
C477 C 0.05142 0.60378 0.24131 0.0
C478 C 0.04431 0.62505 0.23481 0.0
C479 C 0.02201 0.68658 0.21734 0.0
C480 C 0.02991 0.6654 0.22314 0.0
H481 H 0.03126 0.55241 0.24761 0.0
H482 H 0.01981 0.58731 0.23737 0.0
H483 H 0.02203 0.61142 0.20856 0.0
H484 H 0.00716 0.71375 0.17323 0.0
H485 H 0.02006 0.679 0.18258 0.0
C486 C 0.59663 0.77297 0.36926 0.0
C487 C 0.57744 0.76698 0.37832 0.0
C488 C 0.61154 0.78806 0.38042 0.0
C489 C 0.64587 0.80992 0.41241 0.0
H490 H 0.62688 0.85467 0.45168 0.0
C491 C 0.70278 0.85562 0.47897 0.0
C492 C 0.69865 0.87671 0.48625 0.0
C493 C 0.68868 0.84374 0.46365 0.0
C494 C 0.63259 0.84258 0.44053 0.0
H495 H 0.55887 0.77188 0.40625 0.0
H496 H 0.5851 0.79728 0.4261 0.0
H497 H 0.60085 0.8322 0.42845 0.0
H498 H 0.67755 0.90259 0.48215 0.0
H499 H 0.65343 0.88236 0.45474 0.0
H500 H 0.67769 0.82099 0.42382 0.0
C501 C 0.58846 0.79108 0.41006 0.0
C502 C 0.61755 0.82934 0.42744 0.0
C503 C 0.57343 0.77634 0.39873 0.0
C504 C 0.68078 0.88614 0.47722 0.0
C505 C 0.66693 0.87447 0.46153 0.0
C506 C 0.66097 0.82346 0.42522 0.0
C507 C 0.60773 0.79719 0.40107 0.0
C508 C 0.62393 0.8125 0.41355 0.0
C509 C 0.6704 0.85291 0.45488 0.0
C510 C 0.65452 0.8397 0.43979 0.0
H511 H 0.60013 0.76616 0.35352 0.0
H512 H 0.626 0.79261 0.37279 0.0
H513 H 0.65146 0.79705 0.40209 0.0
H514 H 0.71646 0.84799 0.48577 0.0
H515 H 0.6918 0.82711 0.45928 0.0
C516 C 0.45772 0.35736 0.67409 0.0
C517 C 0.453 0.33693 0.68195 0.0
C518 C 0.44762 0.37547 0.68167 0.0
C519 C 0.42009 0.39491 0.72925 0.0
H520 H 0.4096 0.44355 0.6945 0.0
C521 C 0.37811 0.48146 0.73779 0.0
C522 C 0.38474 0.48731 0.75958 0.0
C523 C 0.38652 0.46386 0.72682 0.0
C524 C 0.41226 0.43006 0.70441 0.0
H525 H 0.43305 0.31921 0.70298 0.0
H526 H 0.41485 0.35068 0.71572 0.0
H527 H 0.42137 0.41029 0.67745 0.0
H528 H 0.40657 0.48046 0.7864 0.0
H529 H 0.42185 0.45048 0.76709 0.0
H530 H 0.41035 0.41428 0.75603 0.0
C531 C 0.42685 0.35287 0.70416 0.0
C532 C 0.41923 0.41103 0.69467 0.0
C533 C 0.43715 0.33477 0.69673 0.0
C534 C 0.40095 0.47617 0.76969 0.0
C535 C 0.40954 0.45883 0.75867 0.0
C536 C 0.41297 0.41381 0.73892 0.0
C537 C 0.43237 0.37356 0.69716 0.0
C538 C 0.42344 0.39328 0.70702 0.0
C539 C 0.40191 0.45194 0.73735 0.0
C540 C 0.40921 0.43175 0.72671 0.0
H541 H 0.46995 0.35963 0.66277 0.0
H542 H 0.45252 0.39111 0.67607 0.0
H543 H 0.42344 0.38177 0.73939 0.0
H544 H 0.36554 0.48965 0.72959 0.0
H545 H 0.38018 0.459 0.71046 0.0
C546 C 0.94951 0.20453 0.86374 0.0
C547 C 0.95565 0.2248 0.85631 0.0
C548 C 0.92986 0.20109 0.87266 0.0
C549 C 0.88943 0.23216 0.89935 0.0
H550 H 0.86068 0.17498 0.90003 0.0
C551 C 0.81657 0.21296 0.94989 0.0
C552 C 0.82051 0.19682 0.96436 0.0
C553 C 0.83008 0.21659 0.9332 0.0
C554 C 0.86848 0.19107 0.89982 0.0
H555 H 0.94538 0.25688 0.85095 0.0
H556 H 0.91074 0.25065 0.86576 0.0
H557 H 0.88917 0.18089 0.87572 0.0
H558 H 0.84177 0.17187 0.97243 0.0
H559 H 0.86467 0.17768 0.94303 0.0
H560 H 0.86861 0.24218 0.92354 0.0
C561 C 0.92139 0.23761 0.86542 0.0
C562 C 0.8849 0.19446 0.88604 0.0
C563 C 0.94119 0.24114 0.85678 0.0
C564 C 0.838 0.1842 0.96152 0.0
C565 C 0.85116 0.1875 0.94462 0.0
C566 C 0.87275 0.22883 0.91285 0.0
C567 C 0.91571 0.21774 0.87408 0.0
C568 C 0.89609 0.21489 0.88613 0.0
C569 C 0.84745 0.20383 0.93043 0.0
C570 C 0.86259 0.20811 0.91367 0.0
H571 H 0.96031 0.19162 0.86369 0.0
H572 H 0.9263 0.18568 0.8794 0.0
H573 H 0.89778 0.24805 0.90016 0.0
H574 H 0.8033 0.22306 0.9517 0.0
H575 H 0.82697 0.22935 0.92248 0.0
C576 C 0.30835 0.08012 0.40521 0.0
C577 C 0.31413 0.07269 0.42562 0.0
C578 C 0.31752 0.07216 0.3867 0.0
C579 C 0.36291 0.04573 0.36616 0.0
H580 H 0.32234 0.0214 0.31975 0.0
C581 C 0.36398 0.98252 0.28787 0.0
C582 C 0.38057 0.99194 0.27672 0.0
C583 C 0.3554 0.99425 0.30481 0.0
C584 C 0.33382 0.02823 0.33254 0.0
H585 H 0.33482 0.05185 0.44274 0.0
H586 H 0.35126 0.03823 0.41022 0.0
H587 H 0.30944 0.03879 0.35246 0.0
H588 H 0.40081 0.02124 0.27421 0.0
H589 H 0.38602 0.04161 0.30417 0.0
H590 H 0.38729 0.03514 0.34615 0.0
C591 C 0.33948 0.05012 0.40869 0.0
C592 C 0.32648 0.03824 0.35118 0.0
C593 C 0.33005 0.05788 0.42725 0.0
C594 C 0.38794 0.01359 0.2824 0.0
C595 C 0.37963 0.02518 0.29964 0.0
C596 C 0.37028 0.03606 0.34732 0.0
C597 C 0.33288 0.05682 0.3882 0.0
C598 C 0.34093 0.04691 0.36823 0.0
C599 C 0.36351 0.01549 0.31118 0.0
C600 C 0.35578 0.02704 0.33045 0.0
H601 H 0.2961 0.09148 0.40333 0.0
H602 H 0.31231 0.07772 0.37111 0.0
H603 H 0.37435 0.05236 0.37907 0.0
H604 H 0.35798 0.96587 0.28386 0.0
H605 H 0.34301 0.9864 0.3135 0.0
C606 C 0.2174 0.01775 0.6921 0.0
C607 C 0.19817 0.00523 0.69351 0.0
C608 C 0.22351 0.02435 0.67213 0.0
C609 C 0.20181 0.03361 0.617 0.0
H610 H 0.2609 0.03257 0.60304 0.0
C611 C 0.22851 0.0504 0.53193 0.0
C612 C 0.24779 0.06288 0.53064 0.0
C613 C 0.22254 0.04329 0.55176 0.0
C614 C 0.24439 0.03321 0.60678 0.0
H615 H 0.17034 0.98968 0.67494 0.0
H616 H 0.1811 0.00109 0.64001 0.0
H617 H 0.25031 0.0199 0.63749 0.0
H618 H 0.27591 0.07772 0.54926 0.0
H619 H 0.26537 0.06548 0.58396 0.0
H620 H 0.19589 0.04699 0.58635 0.0
C621 C 0.19134 0.00599 0.65443 0.0
C622 C 0.2383 0.02592 0.62653 0.0
C623 C 0.18524 -0.00066 0.67443 0.0
C624 C 0.26098 0.06809 0.54968 0.0
C625 C 0.25499 0.06097 0.56955 0.0
C626 C 0.2079 0.04092 0.59727 0.0
C627 C 0.21054 0.01863 0.65305 0.0
C628 C 0.21694 0.02604 0.63188 0.0
C629 C 0.23569 0.04847 0.57083 0.0
C630 C 0.22926 0.04082 0.59191 0.0
H631 H 0.22773 0.02263 0.70646 0.0
H632 H 0.23825 0.0343 0.6717 0.0
H633 H 0.1853 0.03425 0.62076 0.0
H634 H 0.218 0.04602 0.51758 0.0
H635 H 0.20773 0.03344 0.55208 0.0
C636 C 0.17691 0.94545 0.81764 0.0
C637 C 0.18795 0.94563 0.79863 0.0
C638 C 0.18311 0.93264 0.83438 0.0
C639 C 0.22906 0.90707 0.85794 0.0
H640 H 0.18697 0.87058 0.88426 0.0
C641 C 0.25369 0.84348 0.91658 0.0
C642 C 0.24133 0.83971 0.93424 0.0
C643 C 0.2469 0.85682 0.90057 0.0
C644 C 0.1989 0.88093 0.87735 0.0
H645 H 0.21437 0.93269 0.78246 0.0
H646 H 0.22538 0.9105 0.81192 0.0
H647 H 0.17568 0.89297 0.85515 0.0
H648 H 0.21216 0.84724 0.94898 0.0
H649 H 0.20051 0.87106 0.92123 0.0
H650 H 0.25226 0.89546 0.88027 0.0
C651 C 0.21185 0.92024 0.81374 0.0
C652 C 0.19242 0.89367 0.8606 0.0
C653 C 0.20549 0.93287 0.79685 0.0
C654 C 0.22202 0.84973 0.93555 0.0
C655 C 0.21529 0.86329 0.91957 0.0
C656 C 0.23552 0.89453 0.87481 0.0
C657 C 0.20068 0.91998 0.83264 0.0
C658 C 0.20747 0.90671 0.85061 0.0
C659 C 0.22766 0.86698 0.90186 0.0
C660 C 0.22055 0.88112 0.8846 0.0
H661 H 0.16357 0.95534 0.81975 0.0
H662 H 0.1744 0.93296 0.8489 0.0
H663 H 0.24095 0.91726 0.85077 0.0
H664 H 0.26856 0.83588 0.9149 0.0
H665 H 0.25663 0.85887 0.88697 0.0
C666 C 0.27569 0.85378 0.04485 0.0
C667 C 0.28938 0.84456 0.03034 0.0
C668 C 0.28393 0.86784 0.06241 0.0
C669 C 0.33356 0.90041 0.08472 0.0
H670 H 0.30893 0.89323 0.13972 0.0
C671 C 0.37103 0.94599 0.16387 0.0
C672 C 0.37234 0.93361 0.18212 0.0
C673 C 0.35848 0.93822 0.14514 0.0
C674 C 0.31608 0.89541 0.12451 0.0
H675 H 0.32249 0.84321 0.02285 0.0
H676 H 0.33679 0.86704 0.05359 0.0
H677 H 0.29224 0.87374 0.10713 0.0
H678 H 0.36098 0.9035 0.19502 0.0
H679 H 0.33976 0.88987 0.16252 0.0
H680 H 0.35814 0.92103 0.10234 0.0
C681 C 0.31965 0.86393 0.05121 0.0
C682 C 0.3063 0.88443 0.1057 0.0
C683 C 0.31142 0.85007 0.0336 0.0
C684 C 0.36036 0.91357 0.18136 0.0
C685 C 0.34798 0.90578 0.16267 0.0
C686 C 0.34346 0.91122 0.10357 0.0
C687 C 0.30606 0.87288 0.06599 0.0
C688 C 0.31515 0.88641 0.0856 0.0
C689 C 0.34703 0.91785 0.1442 0.0
C690 C 0.33512 0.90848 0.12381 0.0
H691 H 0.25862 0.85002 0.04276 0.0
H692 H 0.27292 0.87467 0.07323 0.0
H693 H 0.34062 0.90271 0.06948 0.0
H694 H 0.37995 0.96154 0.16391 0.0
H695 H 0.3579 0.94811 0.13135 0.0
C696 C 0.31124 0.40034 0.04508 0.0
C697 C 0.30362 0.40151 0.0234 0.0
C698 C 0.33084 0.3918 0.05004 0.0
C699 C 0.38071 0.37445 0.02732 0.0
H700 H 0.37572 0.33012 0.0685 0.0
C701 C 0.4383 0.30537 0.03423 0.0
C702 C 0.44212 0.29727 0.05466 0.0
C703 C 0.42392 0.32146 0.03142 0.0
C704 C 0.37765 0.34271 0.05729 0.0
H705 H 0.31134 0.39619 0.98994 0.0
H706 H 0.34541 0.38113 -0.00138 0.0
H707 H 0.34658 0.35314 0.06221 0.0
H708 H 0.43576 0.30114 0.08854 0.0
H709 H 0.4111 0.3293 0.08386 0.0
H710 H 0.41176 0.36364 0.02218 0.0
C711 C 0.33629 0.38685 0.01179 0.0
C712 C 0.36087 0.35594 0.05368 0.0
C713 C 0.31668 0.39538 0.00682 0.0
C714 C 0.43247 0.30646 0.07246 0.0
C715 C 0.41837 0.32268 0.06976 0.0
C716 C 0.39762 0.36123 0.03102 0.0
C717 C 0.34324 0.38429 0.03343 0.0
C718 C 0.36209 0.37182 0.03851 0.0
C719 C 0.41338 0.32992 0.0491 0.0
C720 C 0.39619 0.34505 0.04592 0.0
H721 H 0.30168 0.40513 0.05824 0.0
H722 H 0.33596 0.39039 0.06689 0.0
H723 H 0.38215 0.38664 0.01562 0.0
H724 H 0.44566 0.29859 0.02026 0.0
H725 H 0.42039 0.32657 0.01526 0.0
C726 C 0.93956 0.83001 0.21644 0.0
C727 C 0.94952 0.83146 0.19691 0.0
C728 C 0.92862 0.84727 0.22476 0.0
C729 C 0.92555 0.90656 0.2208 0.0
H730 H 0.87657 0.89764 0.25478 0.0
C731 C 0.87752 0.97631 0.25598 0.0
C732 C 0.87388 0.97525 0.27806 0.0
C733 C 0.88602 0.95897 0.24465 0.0
C734 C 0.89027 0.90034 0.24533 0.0
H735 H 0.955 0.85193 0.17039 0.0
H736 H 0.93527 0.88144 0.18428 0.0
H737 H 0.8917 0.86647 0.23711 0.0
H738 H 0.8765 0.95515 0.30551 0.0
H739 H 0.89104 0.92509 0.28571 0.0
H740 H 0.92387 0.94052 0.22896 0.0
C741 C 0.93643 0.8673 0.1936 0.0
C742 C 0.89901 0.88249 0.23529 0.0
C743 C 0.94759 0.85019 0.18547 0.0
C744 C 0.87912 0.95661 0.28854 0.0
C745 C 0.88729 0.93925 0.27718 0.0
C746 C 0.91662 0.92442 0.23062 0.0
C747 C 0.92719 0.86629 0.21358 0.0
C748 C 0.91697 0.88533 0.22314 0.0
C749 C 0.89068 0.94017 0.25511 0.0
C750 C 0.89912 0.92145 0.24325 0.0
H751 H 0.94086 0.81585 0.22573 0.0
H752 H 0.92196 0.84596 0.24033 0.0
H753 H 0.93959 0.90942 0.21191 0.0
H754 H 0.87366 0.99041 0.24743 0.0
H755 H 0.8885 0.96004 0.22761 0.0
C756 C 0.2039 0.70744 0.50834 0.0
C757 C 0.21792 0.70653 0.52682 0.0
C758 C 0.18243 0.71104 0.51038 0.0
C759 C 0.14548 0.73278 0.54894 0.0
H760 H 0.10216 0.70106 0.50979 0.0
C761 C 0.05553 0.7362 0.5606 0.0
C762 C 0.04197 0.73812 0.54198 0.0
C763 C 0.0769 0.73199 0.55883 0.0
C764 C 0.11408 0.7102 0.5207 0.0
H765 H 0.22031 0.70865 0.56197 0.0
H766 H 0.18275 0.71472 0.56553 0.0
H767 H 0.13961 0.69433 0.50676 0.0
H768 H 0.04024 0.73695 0.50685 0.0
H769 H 0.0776 0.72968 0.50377 0.0
H770 H 0.11992 0.74861 0.5629 0.0
C771 C 0.18845 0.71292 0.54944 0.0
C772 C 0.13555 0.70636 0.51897 0.0
C773 C 0.20996 0.70933 0.54741 0.0
C774 C 0.05023 0.73555 0.52152 0.0
C775 C 0.07162 0.73126 0.51975 0.0
C776 C 0.124 0.73658 0.5507 0.0
C777 C 0.17442 0.7138 0.53095 0.0
C778 C 0.15153 0.71764 0.53303 0.0
C779 C 0.08522 0.72954 0.53839 0.0
C780 C 0.10805 0.72538 0.53658 0.0
H781 H 0.20949 0.70541 0.49223 0.0
H782 H 0.17216 0.71194 0.4958 0.0
H783 H 0.15739 0.742 0.55981 0.0
H784 H 0.04969 0.73804 0.57663 0.0
H785 H 0.08688 0.73047 0.57349 0.0
C786 C 0.97589 0.6868 0.61156 0.0
C787 C 0.96078 0.702 0.61578 0.0
C788 C 0.97498 0.6669 0.62111 0.0
C789 C 0.95152 0.63888 0.66617 0.0
H790 H 0.96095 0.58659 0.6314 0.0
C791 C 0.92779 0.55393 0.69293 0.0
C792 C 0.9427 0.53814 0.69076 0.0
C793 C 0.93079 0.57376 0.68362 0.0
C794 C 0.95848 0.60108 0.64136 0.0
H795 H 0.93293 0.70815 0.63355 0.0
H796 H 0.93117 0.67353 0.64981 0.0
H797 H 0.96526 0.62176 0.61591 0.0
H798 H 0.97221 0.53063 0.67664 0.0
H799 H 0.97736 0.56527 0.66028 0.0
H800 H 0.94438 0.61816 0.69148 0.0
C801 C 0.94397 0.67706 0.63943 0.0
C802 C 0.96101 0.62124 0.63253 0.0
C803 C 0.94492 0.69692 0.62997 0.0
C804 C 0.96043 0.54244 0.67863 0.0
C805 C 0.96335 0.56225 0.66919 0.0
C806 C 0.94888 0.61874 0.67493 0.0
C807 C 0.95892 0.66175 0.63507 0.0
C808 C 0.95737 0.64038 0.64477 0.0
C809 C 0.94869 0.57822 0.67181 0.0
C810 C 0.95214 0.5996 0.66258 0.0
H811 H 0.98837 0.69018 0.60078 0.0
H812 H 0.98691 0.6556 0.61763 0.0
H813 H 0.94901 0.6533 0.67621 0.0
H814 H 0.91393 0.55114 0.70211 0.0
H815 H 0.91904 0.58562 0.68564 0.0
C816 C 0.21282 0.13364 0.4756 0.0
C817 C 0.22962 0.14216 0.46411 0.0
C818 C 0.19349 0.14354 0.47562 0.0
C819 C 0.16867 0.19456 0.46601 0.0
H820 H 0.11703 0.15748 0.4517 0.0
C821 C 0.08787 0.23025 0.447 0.0
C822 C 0.06994 0.22026 0.45563 0.0
C823 C 0.10724 0.22042 0.44758 0.0
C824 C 0.13125 0.16806 0.45598 0.0
H825 H 0.23961 0.16831 0.44449 0.0
H826 H 0.20599 0.18563 0.44476 0.0
H827 H 0.15132 0.14145 0.4555 0.0
H828 H 0.05813 0.19185 0.47114 0.0
H829 H 0.09193 0.17498 0.47255 0.0
H830 H 0.14869 0.22116 0.46677 0.0
C831 C 0.20775 0.17127 0.45365 0.0
C832 C 0.15088 0.15885 0.45817 0.0
C833 C 0.22697 0.16127 0.45342 0.0
C834 C 0.07163 0.19996 0.46428 0.0
C835 C 0.09102 0.19022 0.46501 0.0
C836 C 0.14902 0.20376 0.46399 0.0
C837 C 0.19068 0.16229 0.46441 0.0
C838 C 0.16979 0.17201 0.46311 0.0
C839 C 0.10915 0.20046 0.45694 0.0
C840 C 0.13007 0.19064 0.45886 0.0
H841 H 0.21434 0.11892 0.48397 0.0
H842 H 0.18065 0.13642 0.48425 0.0
H843 H 0.18298 0.20507 0.47003 0.0
H844 H 0.08705 0.24583 0.44009 0.0
H845 H 0.12077 0.22855 0.44081 0.0
C846 C 0.6181 0.41771 0.20785 0.0
C847 C 0.61917 0.41569 0.23036 0.0
C848 C 0.60591 0.40242 0.19387 0.0
C849 C 0.58137 0.34692 0.18871 0.0
H850 H 0.53863 0.36982 0.15011 0.0
C851 C 0.52605 0.29436 0.12422 0.0
C852 C 0.50421 0.29776 0.12484 0.0
C853 C 0.54133 0.30814 0.13654 0.0
C854 C 0.55053 0.36323 0.16078 0.0
H855 H 0.60915 0.39552 0.25575 0.0
H856 H 0.58821 0.36863 0.23124 0.0
H857 H 0.56411 0.39474 0.17233 0.0
H858 H 0.48133 0.31835 0.13875 0.0
H859 H 0.50809 0.3426 0.15991 0.0
H860 H 0.56766 0.31539 0.17718 0.0
C861 C 0.59667 0.38213 0.22449 0.0
C862 C 0.56519 0.37745 0.17333 0.0
C863 C 0.60855 0.39759 0.2385 0.0
C864 C 0.498 0.31523 0.13799 0.0
C865 C 0.5133 0.3292 0.14999 0.0
C866 C 0.56691 0.33268 0.17587 0.0
C867 C 0.5949 0.38464 0.2021 0.0
C868 C 0.58056 0.36944 0.18761 0.0
C869 C 0.53508 0.32579 0.14936 0.0
C870 C 0.55118 0.34074 0.16204 0.0
H871 H 0.62606 0.4315 0.20108 0.0
H872 H 0.60488 0.40463 0.17664 0.0
H873 H 0.59312 0.34037 0.19957 0.0
H874 H 0.53134 0.28102 0.11427 0.0
H875 H 0.55806 0.30525 0.13574 0.0
C876 C 0.30175 0.75243 0.98773 0.0
C877 C 0.28804 0.7576 0.00395 0.0
C878 C 0.32172 0.74508 0.99314 0.0
C879 C 0.36286 0.75443 0.03598 0.0
H880 H 0.39258 0.71686 0.99759 0.0
C881 C 0.44458 0.77658 0.00819 0.0
C882 C 0.45883 0.76063 0.00387 0.0
C883 C 0.42473 0.77096 0.01569 0.0
C884 C 0.38455 0.727 0.00889 0.0
H885 H 0.28381 0.75791 0.0384 0.0
H886 H 0.31914 0.74542 0.04796 0.0
H887 H 0.35369 0.71389 0.99602 0.0
H888 H 0.46404 0.72646 0.005 0.0
H889 H 0.42889 0.71651 0.01772 0.0
H890 H 0.39368 0.76852 0.04782 0.0
C891 C 0.3143 0.74695 0.03106 0.0
C892 C 0.36229 0.7254 0.00787 0.0
C893 C 0.29412 0.75406 0.02559 0.0
C894 C 0.45331 0.73907 0.0082 0.0
C895 C 0.43324 0.73337 0.01544 0.0
C896 C 0.38512 0.75608 0.03694 0.0
C897 C 0.32849 0.74295 0.01491 0.0
C898 C 0.35126 0.73991 0.02056 0.0
C899 C 0.41862 0.74923 0.01882 0.0
C900 C 0.3961 0.74319 0.02256 0.0
H901 H 0.29737 0.75486 0.97091 0.0
H902 H 0.33238 0.74244 0.98034 0.0
H903 H 0.35481 0.76587 0.04594 0.0
H904 H 0.44851 0.79335 0.00515 0.0
H905 H 0.4137 0.78351 0.01783 0.0
C906 C 0.93844 0.41481 0.75533 0.0
C907 C 0.94716 0.42811 0.74016 0.0
C908 C 0.94732 0.39554 0.76002 0.0
C909 C 0.98417 0.35506 0.74197 0.0
H910 H 0.98637 0.34377 0.80293 0.0
C911 C 0.03131 0.2883 0.78248 0.0
C912 C 0.02028 0.27642 0.79741 0.0
C913 C 0.02219 0.30572 0.77299 0.0
C914 C 0.98569 0.34661 0.78583 0.0
H915 H 0.97193 0.43131 0.71761 0.0
H916 H 0.98801 0.39766 0.72635 0.0
H917 H 0.97162 0.37666 0.79116 0.0
H918 H 0.99054 0.27288 0.81315 0.0
H919 H 0.97486 0.30337 0.7968 0.0
H920 H -0.00113 0.32497 0.73698 0.0
C921 C 0.97394 0.40207 0.73429 0.0
C922 C 0.9772 0.36542 0.77905 0.0
C923 C 0.96479 0.42137 0.72935 0.0
C924 C -0.00042 0.28174 0.80188 0.0
C925 C 0.99059 0.29924 0.79257 0.0
C926 C 0.99294 0.33623 0.74885 0.0
C927 C 0.96551 0.38919 0.75004 0.0
C928 C 0.97592 0.3697 0.757 0.0
C929 C 0.002 0.31167 0.77843 0.0
C930 C 0.99341 0.33171 0.77081 0.0
H931 H 0.92501 0.4194 0.76411 0.0
H932 H 0.94007 0.38576 0.77182 0.0
H933 H 0.98337 0.35788 0.72487 0.0
H934 H 0.04722 0.28454 0.77854 0.0
H935 H 0.03131 0.3151 0.76216 0.0
C936 C 0.33455 0.14154 0.51741 0.0
C937 C 0.32883 0.14776 0.49647 0.0
C938 C 0.3481 0.15524 0.53186 0.0
C939 C 0.36638 0.21265 0.54318 0.0
H940 H 0.41399 0.19096 0.57613 0.0
C941 C 0.43508 0.24421 0.61595 0.0
C942 C 0.44049 0.26493 0.60902 0.0
C943 C 0.42106 0.22949 0.60307 0.0
C944 C 0.40058 0.19725 0.56731 0.0
H945 H 0.33307 0.17329 0.47436 0.0
H946 H 0.35652 0.19707 0.49953 0.0
H947 H 0.39021 0.1659 0.55224 0.0
H948 H 0.43554 0.28622 0.5829 0.0
H949 H 0.41161 0.26053 0.56038 0.0
H950 H 0.37646 0.2439 0.55827 0.0
C951 C 0.35044 0.18166 0.5048 0.0
C952 C 0.387 0.18288 0.55358 0.0
C953 C 0.33709 0.16793 0.49032 0.0
C954 C 0.43163 0.2705 0.58888 0.0
C955 C 0.41775 0.25576 0.57598 0.0
C956 C 0.37983 0.22697 0.55699 0.0
C957 C 0.35602 0.17554 0.52576 0.0
C958 C 0.36991 0.19048 0.54116 0.0
C959 C 0.41219 0.23509 0.58291 0.0
C960 C 0.39729 0.21953 0.56904 0.0
H961 H 0.32851 0.12612 0.52269 0.0
H962 H 0.35204 0.15013 0.54795 0.0
H963 H 0.35311 0.21894 0.53412 0.0
H964 H 0.44155 0.23938 0.6314 0.0
H965 H 0.41697 0.21381 0.60906 0.0
C966 C 0.53437 0.66239 0.28748 0.0
C967 C 0.55293 0.6764 0.29077 0.0
C968 C 0.53483 0.64217 0.27616 0.0
C969 C 0.5708 0.6076 0.24478 0.0
H970 H 0.54354 0.56158 0.27484 0.0
C971 C 0.60193 0.52289 0.23871 0.0
C972 C 0.60421 0.51334 0.25862 0.0
C973 C 0.589 0.54024 0.23636 0.0
C974 C 0.55136 0.57421 0.26629 0.0
H975 H 0.58614 0.68071 0.28352 0.0
H976 H 0.58723 0.64557 0.26485 0.0
H977 H 0.5339 0.59845 0.28167 0.0
H978 H 0.59397 0.51378 0.29137 0.0
H979 H 0.57255 0.54448 0.28778 0.0
H980 H 0.58995 0.58384 0.23126 0.0
C981 C 0.57208 0.65011 0.27038 0.0
C982 C 0.54551 0.59542 0.2699 0.0
C983 C 0.57154 0.67033 0.28138 0.0
C984 C 0.59253 0.52077 0.27579 0.0
C985 C 0.58 0.53834 0.2736 0.0
C986 C 0.57705 0.5865 0.24161 0.0
C987 C 0.55392 0.63546 0.26813 0.0
C988 C 0.55597 0.61258 0.26005 0.0
C989 C 0.57845 0.54871 0.25403 0.0
C990 C 0.56818 0.5697 0.25319 0.0
H991 H 0.51967 0.66671 0.29425 0.0
H992 H 0.5204 0.63154 0.27436 0.0
H993 H 0.57864 0.62024 0.23626 0.0
H994 H 0.61049 0.51727 0.22507 0.0
H995 H 0.58782 0.5474 0.22088 0.0
C996 C 0.03778 0.81706 0.10716 0.0
C997 C 0.03155 0.79985 0.11966 0.0
C998 C 0.0556 0.81597 0.09499 0.0
C999 C 0.08977 0.77802 0.06911 0.0
H1000 H 0.13192 0.82689 0.07365 0.0
C1001 C 0.17175 0.77176 0.03473 0.0
C1002 C 0.18088 0.78973 0.02509 0.0
C1003 C 0.15325 0.77341 0.04572 0.0
C1004 C 0.12016 0.81324 0.07191 0.0
H1005 H 0.03899 0.76783 0.12885 0.0
H1006 H 0.07007 0.76587 0.10735 0.0
H1007 H 0.0999 0.82876 0.09364 0.0
H1008 H 0.17776 0.82357 0.01935 0.0
H1009 H 0.14503 0.82637 0.03818 0.0
H1010 H 0.10975 0.76256 0.04719 0.0
C1011 C 0.06109 0.78019 0.10705 0.0
C1012 C 0.10187 0.8143 0.08343 0.0
C1013 C 0.04337 0.78137 0.11943 0.0
C1014 C 0.17111 0.80946 0.02669 0.0
C1015 C 0.15243 0.81107 0.03757 0.0
C1016 C 0.10794 0.77704 0.05743 0.0
C1017 C 0.06747 0.79757 0.09487 0.0
C1018 C 0.08659 0.79663 0.08226 0.0
C1019 C 0.14326 0.79303 0.04718 0.0
C1020 C 0.12347 0.79455 0.05885 0.0
H1021 H 0.02907 0.83157 0.10697 0.0
H1022 H 0.06005 0.8295 0.08558 0.0
H1023 H 0.07808 0.7643 0.06768 0.0
H1024 H 0.17899 0.75636 0.03396 0.0
H1025 H 0.14694 0.75932 0.05332 0.0
C1026 C 0.68759 0.96573 0.58733 0.0
C1027 C 0.70757 0.95843 0.58269 0.0
C1028 C 0.68485 0.97688 0.60704 0.0
C1029 C 0.70801 0.98234 0.66319 0.0
H1030 H 0.66126 0.01954 0.66902 0.0
C1031 C 0.65773 0.98122 0.73597 0.0
C1032 C 0.64614 -0.00102 0.74206 0.0
C1033 C 0.67046 0.98195 0.71845 0.0
C1034 C 0.67473 0.00962 0.6679 0.0
H1035 H 0.74069 0.95832 0.59471 0.0
H1036 H 0.73599 0.9783 0.62914 0.0
H1037 H 0.67459 0.01222 0.6337 0.0
H1038 H 0.63998 0.03202 0.73536 0.0
H1039 H 0.66278 0.03356 0.70503 0.0
H1040 H 0.70835 0.97999 0.69745 0.0
C1041 C 0.72232 0.97491 0.61763 0.0
C1042 C 0.68217 0.00512 0.64749 0.0
C1043 C 0.72503 0.96352 0.59787 0.0
C1044 C 0.64849 0.01795 0.73089 0.0
C1045 C 0.66152 0.0188 0.71346 0.0
C1046 C 0.70085 0.98719 0.68368 0.0
C1047 C 0.70206 0.98131 0.62265 0.0
C1048 C 0.69806 0.99043 0.64469 0.0
C1049 C 0.67225 0.00059 0.70666 0.0
C1050 C 0.68331 -0.00011 0.68612 0.0
H1051 H 0.67374 0.96215 0.57607 0.0
H1052 H 0.6689 0.98106 0.61037 0.0
H1053 H 0.72035 0.97105 0.66178 0.0
H1054 H 0.6563 0.96631 0.74418 0.0
H1055 H 0.67804 0.96742 0.71355 0.0
C1056 C 0.78382 0.04725 0.3486 0.0
C1057 C 0.80463 0.04073 0.34706 0.0
C1058 C 0.77377 0.04554 0.36798 0.0
C1059 C 0.78295 0.03386 0.42612 0.0
H1060 H 0.72916 -0.00044 0.41557 0.0
C1061 C 0.75375 0.97028 0.48284 0.0
C1062 C 0.73177 0.96681 0.4852 0.0
C1063 C 0.76124 0.98524 0.46867 0.0
C1064 C 0.74392 0.00953 0.41893 0.0
H1065 H 0.83212 0.02989 0.36507 0.0
H1066 H 0.81468 0.02649 0.39853 0.0
H1067 H 0.74489 0.01702 0.38583 0.0
H1068 H 0.70049 0.97711 0.4752 0.0
H1069 H 0.71363 0.00317 0.45055 0.0
H1070 H 0.78242 0.02536 0.45906 0.0
C1071 C 0.80593 0.03279 0.38494 0.0
C1072 C 0.75292 0.01962 0.40186 0.0
C1073 C 0.81586 0.03435 0.36561 0.0
C1074 C 0.71752 0.9792 0.47365 0.0
C1075 C 0.72502 0.99414 0.45949 0.0
C1076 C 0.77395 0.02372 0.4432 0.0
C1077 C 0.78451 0.03754 0.38611 0.0
C1078 C 0.77292 0.03123 0.40509 0.0
C1079 C 0.74692 0.99705 0.45656 0.0
C1080 C 0.75471 0.01083 0.4396 0.0
H1081 H 0.77487 0.05236 0.33451 0.0
H1082 H 0.75732 0.04959 0.36849 0.0
H1083 H 0.79822 0.043 0.42917 0.0
H1084 H 0.76518 0.96109 0.49153 0.0
H1085 H 0.77819 0.98689 0.46657 0.0
C1086 C 0.78523 0.13965 0.07897 0.0
C1087 C 0.8005 0.1356 0.0639 0.0
C1088 C 0.78657 0.13075 0.09917 0.0
C1089 C 0.82542 0.11015 0.13822 0.0
H1090 H 0.77558 0.08462 0.16312 0.0
C1091 C 0.8316 0.06508 0.21704 0.0
C1092 C 0.81555 0.06767 0.23152 0.0
C1093 C 0.82974 0.07333 0.19656 0.0
C1094 C 0.78962 0.09195 0.15654 0.0
H1095 H 0.8289 0.11855 0.05818 0.0
H1096 H 0.83116 0.10311 0.09334 0.0
H1097 H 0.77195 0.09881 0.12732 0.0
H1098 H 0.78518 0.08139 0.23604 0.0
H1099 H 0.78218 0.09619 0.20061 0.0
H1100 H 0.84308 0.10362 0.16747 0.0
C1101 C 0.81828 0.11333 0.08959 0.0
C1102 C 0.78753 0.10003 0.136 0.0
C1103 C 0.81688 0.12209 0.06937 0.0
C1104 C 0.79778 0.07899 0.22522 0.0
C1105 C 0.79598 0.08735 0.20482 0.0
C1106 C 0.8275 0.10221 0.15881 0.0
C1107 C 0.80329 0.11774 0.10479 0.0
C1108 C 0.80541 0.10916 0.12661 0.0
C1109 C 0.81184 0.08448 0.19015 0.0
C1110 C 0.80963 0.09298 0.16823 0.0
H1111 H 0.7724 0.14996 0.07531 0.0
H1112 H 0.77484 0.13452 0.11062 0.0
H1113 H 0.83945 0.1174 0.13154 0.0
H1114 H 0.84545 0.05634 0.22136 0.0
H1115 H 0.84214 0.07059 0.18559 0.0
C1116 C 0.64316 0.0485 0.84169 0.0
C1117 C 0.64012 0.02587 0.84204 0.0
C1118 C 0.65676 0.06043 0.85748 0.0
C1119 C 0.70153 0.05358 0.89796 0.0
H1120 H 0.69009 0.11181 0.91831 0.0
C1121 C 0.76517 0.11016 0.94806 0.0
C1122 C 0.75851 0.12456 0.96427 0.0
C1123 C 0.75022 0.09782 0.93396 0.0
C1124 C 0.69343 0.09546 0.91304 0.0
H1125 H 0.64831 -0.0019 0.85974 0.0
H1126 H 0.6714 0.01889 0.8876 0.0
H1127 H 0.66432 0.0909 0.89302 0.0
H1128 H 0.73086 0.13689 0.97873 0.0
H1129 H 0.70479 0.11488 0.9546 0.0
H1130 H 0.73027 0.05782 0.91852 0.0
C1131 C 0.66386 0.02743 0.87477 0.0
C1132 C 0.67877 0.08357 0.89824 0.0
C1133 C 0.65049 0.0155 0.85886 0.0
C1134 C 0.73654 0.12605 0.96632 0.0
C1135 C 0.72157 0.11353 0.95236 0.0
C1136 C 0.71608 0.06537 0.91291 0.0
C1137 C 0.66744 0.05001 0.87413 0.0
C1138 C 0.68269 0.06251 0.8904 0.0
C1139 C 0.72821 0.09938 0.93587 0.0
C1140 C 0.71232 0.08654 0.92052 0.0
H1141 H 0.63549 0.05697 0.82888 0.0
H1142 H 0.65933 0.07774 0.85626 0.0
H1143 H 0.70529 0.03754 0.89209 0.0
H1144 H 0.78197 0.10874 0.94591 0.0
H1145 H 0.75597 0.08741 0.92124 0.0
C1146 C 0.57685 0.7392 0.95383 0.0
C1147 C 0.55906 0.72814 0.9617 0.0
C1148 C 0.59657 0.73005 0.95428 0.0
C1149 C 0.62737 0.69172 0.9836 0.0
H1150 H 0.66225 0.69173 0.93432 0.0
C1151 C 0.70316 0.64421 0.97959 0.0
C1152 C 0.72024 0.65314 0.96877 0.0
C1153 C 0.68385 0.65413 0.9796 0.0
C1154 C 0.65288 0.69191 0.94837 0.0
H1155 H 0.54787 0.69859 0.97569 0.0
H1156 H 0.58232 0.68271 0.97652 0.0
H1157 H 0.62764 0.70722 0.93178 0.0
H1158 H 0.73083 0.68012 0.95052 0.0
H1159 H 0.69743 0.69771 0.9511 0.0
H1160 H 0.65265 0.67669 0.00034 0.0
C1161 C 0.58102 0.6985 0.97016 0.0
C1162 C 0.63302 0.70069 0.94684 0.0
C1163 C 0.56127 0.70755 0.96953 0.0
C1164 C 0.7179 0.67268 0.9588 0.0
C1165 C 0.69869 0.6827 0.95899 0.0
C1166 C 0.64732 0.6831 0.98521 0.0
C1167 C 0.59891 0.70977 0.96278 0.0
C1168 C 0.62003 0.70058 0.9644 0.0
C1169 C 0.68127 0.6733 0.96897 0.0
C1170 C 0.6603 0.68301 0.96758 0.0
H1171 H 0.57565 0.75509 0.94767 0.0
H1172 H 0.61014 0.73911 0.94856 0.0
H1173 H 0.61779 0.69172 0.9975 0.0
H1174 H 0.70441 0.62911 0.98735 0.0
H1175 H 0.67072 0.64632 0.98728 0.0
C1176 C 0.11078 0.03582 0.74359 0.0
C1177 C 0.10516 0.01731 0.75448 0.0
C1178 C 0.09688 0.05242 0.74201 0.0
C1179 C 0.05449 0.07462 0.7727 0.0
H1180 H 0.05586 0.11709 0.72936 0.0
C1181 C 0.02445 0.15764 0.79179 0.0
C1182 C 0.04043 0.17418 0.78975 0.0
C1183 C 0.02552 0.13721 0.78117 0.0
C1184 C 0.05514 0.10526 0.74148 0.0
H1185 H 0.07979 0.00067 0.77036 0.0
H1186 H 0.05527 0.02929 0.76702 0.0
H1187 H 0.07047 0.08199 0.72198 0.0
H1188 H 0.06871 0.18293 0.77311 0.0
H1189 H 0.07068 0.14736 0.75488 0.0
H1190 H 0.04002 0.09806 0.79254 0.0
C1191 C 0.0707 0.0314 0.76038 0.0
C1192 C 0.06359 0.08521 0.73732 0.0
C1193 C 0.08473 0.01496 0.76225 0.0
C1194 C 0.0563 0.17048 0.77528 0.0
C1195 C 0.05732 0.1501 0.76464 0.0
C1196 C 0.04594 0.09453 0.77677 0.0
C1197 C 0.07694 0.05072 0.75104 0.0
C1198 C 0.06414 0.06999 0.75325 0.0
C1199 C 0.0425 0.13298 0.76824 0.0
C1200 C 0.04693 0.1104 0.76158 0.0
H1201 H 0.1264 0.03807 0.73738 0.0
H1202 H 0.10237 0.06711 0.7349 0.0
H1203 H 0.05485 0.06353 0.78552 0.0
H1204 H 0.01184 0.16001 0.80259 0.0
H1205 H 0.01369 0.1244 0.78398 0.0
C1206 C 0.96663 0.23779 0.50507 0.0
C1207 C 0.9732 0.25901 0.50043 0.0
C1208 C 0.94652 0.23335 0.5128 0.0
C1209 C 0.90017 0.2591 0.53501 0.0
H1210 H 0.86618 0.21776 0.49526 0.0
C1211 C 0.81501 0.25727 0.48863 0.0
C1212 C 0.80182 0.26234 0.50534 0.0
C1213 C 0.83515 0.24998 0.49334 0.0
C1214 C 0.87549 0.22906 0.50677 0.0
H1215 H 0.96477 0.29239 0.5017 0.0
H1216 H 0.92991 0.28474 0.51527 0.0
H1217 H 0.905 0.21892 0.4958 0.0
H1218 H 0.79881 0.26286 0.54001 0.0
H1219 H 0.8345 0.25053 0.54836 0.0
H1220 H 0.87062 0.27037 0.54477 0.0
C1221 C 0.94014 0.2715 0.513 0.0
C1222 C 0.89771 0.22963 0.50721 0.0
C1223 C 0.96002 0.27587 0.50501 0.0
C1224 C 0.8087 0.25902 0.52683 0.0
C1225 C 0.82908 0.25202 0.5316 0.0
C1226 C 0.87794 0.25846 0.53465 0.0
C1227 C 0.9329 0.25013 0.51636 0.0
C1228 C 0.91022 0.24543 0.52051 0.0
C1229 C 0.84264 0.24786 0.51491 0.0
C1230 C 0.86542 0.24421 0.5197 0.0
H1231 H 0.97652 0.22449 0.50166 0.0
H1232 H 0.94131 0.21674 0.51527 0.0
H1233 H 0.90947 0.27127 0.5456 0.0
H1234 H 0.81003 0.25958 0.47192 0.0
H1235 H 0.84532 0.24723 0.48015 0.0
C1236 C 0.56956 0.94557 0.81498 0.0
C1237 C 0.56504 0.96717 0.81977 0.0
C1238 C 0.56283 0.92928 0.82805 0.0
C1239 C 0.52484 0.91701 0.86969 0.0
H1240 H 0.56023 0.86886 0.87794 0.0
C1241 C 0.52982 0.83695 0.92378 0.0
C1242 C 0.50797 0.83054 0.92314 0.0
C1243 C 0.53713 0.85376 0.91152 0.0
C1244 C 0.55023 0.88228 0.87606 0.0
H1245 H 0.55005 0.98874 0.84207 0.0
H1246 H 0.53883 0.96038 0.86542 0.0
H1247 H 0.57271 0.89855 0.85722 0.0
H1248 H 0.47674 0.83617 0.90853 0.0
H1249 H 0.48952 0.86478 0.88655 0.0
H1250 H 0.50277 0.90119 0.88931 0.0
C1251 C 0.54715 0.9559 0.85124 0.0
C1252 C 0.55726 0.89921 0.86385 0.0
C1253 C 0.55366 0.97219 0.83795 0.0
C1254 C 0.49366 0.84088 0.90956 0.0
C1255 C 0.50099 0.85744 0.89708 0.0
C1256 C 0.51793 0.90021 0.88213 0.0
C1257 C 0.55164 0.93421 0.84644 0.0
C1258 C 0.54455 0.91669 0.8603 0.0
C1259 C 0.52279 0.86432 0.8981 0.0
C1260 C 0.53044 0.8825 0.88531 0.0
H1261 H 0.57807 0.94114 0.80091 0.0
H1262 H 0.56615 0.91275 0.82349 0.0
H1263 H 0.51449 0.93005 0.86715 0.0
H1264 H 0.54123 0.8294 0.93421 0.0
H1265 H 0.55398 0.85877 0.91298 0.0
C1266 C 0.94955 0.22431 0.40834 0.0
C1267 C 0.97153 0.22769 0.41414 0.0
C1268 C 0.94149 0.20613 0.39517 0.0
C1269 C 0.95501 0.1508 0.37758 0.0
H1270 H 0.90405 0.15284 0.33935 0.0
C1271 C 0.90063 0.0747 0.35052 0.0
C1272 C 0.88886 0.07336 0.33034 0.0
C1273 C 0.91335 0.09338 0.35765 0.0
C1274 C 0.9185 0.15196 0.34963 0.0
H1275 H 0.00237 0.21486 0.40994 0.0
H1276 H 0.98835 0.18341 0.38651 0.0
H1277 H 0.92129 0.18629 0.35667 0.0
H1278 H 0.88221 0.09035 0.30134 0.0
H1279 H 0.90487 0.12282 0.31361 0.0
H1280 H 0.95241 0.11652 0.37027 0.0
C1281 C 0.97727 0.19458 0.39258 0.0
C1282 C 0.92822 0.17117 0.35987 0.0
C1283 C 0.98533 0.2127 0.40594 0.0
C1284 C 0.89093 0.09085 0.31703 0.0
C1285 C 0.90382 0.10955 0.32414 0.0
C1286 C 0.9454 0.13162 0.36719 0.0
C1287 C 0.9552 0.1909 0.38724 0.0
C1288 C 0.94629 0.1708 0.37442 0.0
C1289 C 0.91485 0.11122 0.34475 0.0
C1290 C 0.92669 0.13187 0.35352 0.0
H1291 H 0.93842 0.23543 0.41444 0.0
H1292 H 0.92439 0.20371 0.39179 0.0
H1293 H 0.9688 0.14978 0.38875 0.0
H1294 H 0.89944 0.06161 0.36126 0.0
H1295 H 0.92129 0.09411 0.37373 0.0
C1296 C 0.57585 0.08934 0.76215 0.0
C1297 C 0.56005 0.07411 0.76797 0.0
C1298 C 0.57029 0.10934 0.75496 0.0
C1299 C 0.52744 0.14737 0.75576 0.0
H1300 H 0.55233 0.16874 0.7049 0.0
C1301 C 0.51358 0.23246 0.7269 0.0
C1302 C 0.50948 0.23416 0.70452 0.0
C1303 C 0.52013 0.21318 0.73487 0.0
C1304 C 0.54516 0.16293 0.71906 0.0
H1305 H 0.5261 0.06814 0.77116 0.0
H1306 H 0.51648 0.10291 0.75871 0.0
H1307 H 0.56327 0.13481 0.71878 0.0
H1308 H 0.50906 0.21687 0.67295 0.0
H1309 H 0.52045 0.18314 0.68692 0.0
H1310 H 0.50909 0.17526 0.75587 0.0
C1311 C 0.53316 0.09948 0.75979 0.0
C1312 C 0.55161 0.14363 0.72715 0.0
C1313 C 0.53868 0.07948 0.76682 0.0
C1314 C 0.51207 0.2161 0.69028 0.0
C1315 C 0.51875 0.19683 0.69827 0.0
C1316 C 0.52109 0.1667 0.74775 0.0
C1317 C 0.54886 0.11459 0.75363 0.0
C1318 C 0.54272 0.13556 0.74552 0.0
C1319 C 0.52284 0.19515 0.72066 0.0
C1320 C 0.52979 0.17466 0.72924 0.0
H1321 H 0.59246 0.0857 0.76284 0.0
H1322 H 0.58278 0.12074 0.75053 0.0
H1323 H 0.52042 0.14169 0.77005 0.0
H1324 H 0.51179 0.24606 0.73833 0.0
H1325 H 0.52338 0.21251 0.75219 0.0
C1326 C 0.19732 0.35423 0.97218 0.0
C1327 C 0.19345 0.37531 0.97982 0.0
C1328 C 0.18255 0.34226 0.95762 0.0
C1329 C 0.12552 0.34033 0.93759 0.0
H1330 H 0.14327 0.29567 0.8974 0.0
C1331 C 0.06589 0.2732 0.89818 0.0
C1332 C 0.06896 0.26418 0.87737 0.0
C1333 C 0.08114 0.28813 0.90889 0.0
C1334 C 0.13796 0.30829 0.90823 0.0
H1335 H 0.17168 0.40084 0.97733 0.0
H1336 H 0.14634 0.38041 0.95123 0.0
H1337 H 0.17001 0.31995 0.91799 0.0
H1338 H 0.09015 0.26418 0.85121 0.0
H1339 H 0.1164 0.29093 0.86946 0.0
H1340 H 0.09347 0.32934 0.92715 0.0
C1341 C 0.16033 0.3727 0.9571 0.0
C1342 C 0.15337 0.32203 0.92038 0.0
C1343 C 0.17492 0.38451 0.97202 0.0
C1344 C 0.08743 0.27068 0.86731 0.0
C1345 C 0.10254 0.28596 0.87786 0.0
C1346 C 0.11012 0.32688 0.92515 0.0
C1347 C 0.16374 0.35125 0.95 0.0
C1348 C 0.14737 0.33794 0.93557 0.0
C1349 C 0.09968 0.29477 0.89889 0.0
C1350 C 0.11611 0.31034 0.91066 0.0
H1351 H 0.21144 0.34668 0.97803 0.0
H1352 H 0.18563 0.32569 0.95294 0.0
H1353 H 0.12018 0.35219 0.94924 0.0
H1354 H 0.05189 0.26835 0.90645 0.0
H1355 H 0.07854 0.29407 0.92524 0.0
C1356 C 0.45687 0.70587 0.35623 0.0
C1357 C 0.46526 0.72725 0.35475 0.0
C1358 C 0.43681 0.70181 0.36412 0.0
C1359 C 0.38691 0.72656 0.3781 0.0
H1360 H 0.3881 0.68647 0.42366 0.0
C1361 C 0.32504 0.72304 0.44347 0.0
C1362 C 0.32025 0.70296 0.45193 0.0
C1363 C 0.34042 0.72503 0.42823 0.0
C1364 C 0.38723 0.69739 0.4107 0.0
H1365 H 0.45853 0.76111 0.35898 0.0
H1366 H 0.42362 0.754 0.37287 0.0
H1367 H 0.41875 0.6913 0.40231 0.0
H1368 H 0.32593 0.66885 0.44951 0.0
H1369 H 0.35228 0.67209 0.42275 0.0
H1370 H 0.35539 0.73285 0.38681 0.0
C1371 C 0.43251 0.74037 0.36789 0.0
C1372 C 0.40488 0.70016 0.39844 0.0
C1373 C 0.4526 0.74444 0.36005 0.0
C1374 C 0.32993 0.68466 0.44388 0.0
C1375 C 0.34501 0.68654 0.42848 0.0
C1376 C 0.36912 0.72369 0.39032 0.0
C1377 C 0.42469 0.71904 0.37063 0.0
C1378 C 0.40503 0.71492 0.38215 0.0
C1379 C 0.35098 0.70686 0.42098 0.0
C1380 C 0.36916 0.70919 0.40692 0.0
H1381 H 0.46613 0.69225 0.35211 0.0
H1382 H 0.43104 0.68518 0.36572 0.0
H1383 H 0.38652 0.73796 0.36554 0.0
H1384 H 0.31768 0.73737 0.44941 0.0
H1385 H 0.34467 0.74095 0.42289 0.0
C1386 C 0.87939 0.52767 0.78585 0.0
C1387 C 0.87089 0.50661 0.77915 0.0
C1388 C 0.87108 0.53928 0.8031 0.0
C1389 C 0.84622 0.56323 0.8369 0.0
H1390 H 0.83129 0.5271 0.88329 0.0
C1391 C 0.80172 0.59361 0.91024 0.0
C1392 C 0.80574 0.58466 0.93027 0.0
C1393 C 0.81167 0.58626 0.89197 0.0
C1394 C 0.83569 0.53752 0.87067 0.0
H1395 H 0.84577 0.48206 0.78372 0.0
H1396 H 0.83077 0.50256 0.81313 0.0
H1397 H 0.84319 0.51056 0.85013 0.0
H1398 H 0.82435 0.5619 0.94716 0.0
H1399 H 0.84218 0.54937 0.91535 0.0
H1400 H 0.83917 0.59028 0.85782 0.0
C1401 C 0.84437 0.50982 0.80573 0.0
C1402 C 0.84213 0.52796 0.85143 0.0
C1403 C 0.85282 0.49815 0.78873 0.0
C1404 C 0.82081 0.569 0.93192 0.0
C1405 C 0.83089 0.56173 0.91365 0.0
C1406 C 0.83985 0.57284 0.85626 0.0
C1407 C 0.85399 0.53009 0.81377 0.0
C1408 C 0.84723 0.54064 0.83419 0.0
C1409 C 0.82598 0.56984 0.89332 0.0
C1410 C 0.83434 0.56005 0.87332 0.0
H1411 H 0.8934 0.53456 0.77884 0.0
H1412 H 0.87887 0.55485 0.80887 0.0
H1413 H 0.85003 0.57347 0.82395 0.0
H1414 H 0.79011 0.60563 0.90836 0.0
H1415 H 0.80731 0.59272 0.87659 0.0
C1416 C 0.68274 0.4979 0.17592 0.0
C1417 C 0.69197 0.5083 0.19542 0.0
C1418 C 0.6886 0.50488 0.15596 0.0
C1419 C 0.73164 0.53567 0.1308 0.0
H1420 H 0.6883 0.5403 0.08426 0.0
C1421 C 0.74991 0.57716 0.05245 0.0
C1422 C 0.74034 0.56743 0.0328 0.0
C1423 C 0.74401 0.56983 0.07225 0.0
C1424 C 0.70064 0.53886 0.097 0.0
H1425 H 0.71456 0.53423 0.20921 0.0
H1426 H 0.72463 0.54643 0.17449 0.0
H1427 H 0.678 0.52744 0.11874 0.0
H1428 H 0.71714 0.54228 0.01857 0.0
H1429 H 0.70709 0.52934 0.05302 0.0
H1430 H 0.75428 0.54704 0.10909 0.0
C1431 C 0.71306 0.53273 0.17459 0.0
C1432 C 0.69473 0.53149 0.11676 0.0
C1433 C 0.70717 0.5258 0.19451 0.0
C1434 C 0.72478 0.5502 0.0334 0.0
C1435 C 0.71891 0.54285 0.05317 0.0
C1436 C 0.73756 0.54301 0.11103 0.0
C1437 C 0.70385 0.52236 0.15508 0.0
C1438 C 0.71015 0.52986 0.13392 0.0
C1439 C 0.72843 0.55258 0.07285 0.0
C1440 C 0.72213 0.54474 0.09389 0.0
H1441 H 0.67099 0.48435 0.17606 0.0
H1442 H 0.68137 0.49641 0.14122 0.0
H1443 H 0.74396 0.53429 0.14358 0.0
H1444 H 0.76189 0.59053 0.05257 0.0
H1445 H 0.75146 0.57787 0.0871 0.0
C1446 C 0.73053 0.35025 0.43684 0.0
C1447 C 0.75068 0.34184 0.43581 0.0
C1448 C 0.72253 0.36252 0.42033 0.0
C1449 C 0.72717 0.37131 0.36282 0.0
H1450 H 0.70285 0.42606 0.3761 0.0
C1451 C 0.70651 0.42953 0.29653 0.0
C1452 C 0.68822 0.44113 0.29847 0.0
C1453 C 0.71377 0.41717 0.31329 0.0
C1454 C 0.70928 0.41064 0.37207 0.0
H1455 H 0.77824 0.33987 0.41661 0.0
H1456 H 0.7642 0.36108 0.38789 0.0
H1457 H 0.71573 0.40491 0.40554 0.0
H1458 H 0.66326 0.44887 0.31964 0.0
H1459 H 0.67533 0.42676 0.34833 0.0
H1460 H 0.72049 0.37674 0.32941 0.0
C1461 C 0.75458 0.35812 0.40141 0.0
C1462 C 0.71671 0.39858 0.38897 0.0
C1463 C 0.76267 0.34609 0.41798 0.0
C1464 C 0.67727 0.43999 0.31746 0.0
C1465 C 0.68438 0.42749 0.3341 0.0
C1466 C 0.71956 0.38324 0.34592 0.0
C1467 C 0.73441 0.36638 0.40236 0.0
C1468 C 0.72586 0.37887 0.3845 0.0
C1469 C 0.7028 0.41603 0.33231 0.0
C1470 C 0.71062 0.40314 0.35032 0.0
H1471 H 0.7209 0.34731 0.45036 0.0
H1472 H 0.70687 0.36865 0.4214 0.0
H1473 H 0.7339 0.35601 0.35892 0.0
H1474 H 0.71541 0.4302 0.28217 0.0
H1475 H 0.7282 0.40885 0.31147 0.0
C1476 C 0.85749 0.42305 0.6863 0.0
C1477 C 0.86968 0.44298 0.68746 0.0
C1478 C 0.84697 0.4146 0.66681 0.0
C1479 C 0.84822 0.41788 0.60753 0.0
H1480 H 0.79608 0.38105 0.6076 0.0
C1481 C 0.82087 0.35542 0.53683 0.0
C1482 C 0.79899 0.34985 0.5322 0.0
C1483 C 0.82797 0.36966 0.55459 0.0
C1484 C 0.81043 0.39155 0.60709 0.0
H1485 H 0.87968 0.47001 0.66902 0.0
H1486 H 0.86079 0.45548 0.63499 0.0
H1487 H 0.81007 0.40145 0.6407 0.0
H1488 H 0.76733 0.35562 0.54211 0.0
H1489 H 0.77964 0.381 0.57265 0.0
H1490 H 0.84829 0.40836 0.57376 0.0
C1491 C 0.85979 0.44616 0.64914 0.0
C1492 C 0.81867 0.40304 0.62624 0.0
C1493 C 0.87052 0.45458 0.6687 0.0
C1494 C 0.78432 0.3594 0.54535 0.0
C1495 C 0.79141 0.37388 0.56296 0.0
C1496 C 0.83984 0.40658 0.58828 0.0
C1497 C 0.8481 0.42591 0.64789 0.0
C1498 C 0.83798 0.41591 0.62688 0.0
C1499 C 0.81336 0.37894 0.56805 0.0
C1500 C 0.8211 0.39283 0.58791 0.0
H1501 H 0.85653 0.41356 0.70034 0.0
H1502 H 0.83853 0.39879 0.66648 0.0
H1503 H 0.86318 0.42751 0.60735 0.0
H1504 H 0.83263 0.34827 0.52713 0.0
H1505 H 0.84499 0.37278 0.55814 0.0
C1506 C 0.43053 0.06398 0.21392 0.0
C1507 C 0.43218 0.04345 0.20348 0.0
C1508 C 0.43479 0.08275 0.20314 0.0
C1509 C 0.44101 0.10255 0.14827 0.0
H1510 H 0.46875 0.15299 0.18132 0.0
C1511 C 0.46987 0.18047 0.10865 0.0
C1512 C 0.46239 0.19958 0.11792 0.0
C1513 C 0.46787 0.16113 0.11909 0.0
C1514 C 0.46098 0.13902 0.17192 0.0
H1515 H 0.4395 0.02647 0.1735 0.0
H1516 H 0.44754 0.05918 0.1549 0.0
H1517 H 0.4615 0.11965 0.19925 0.0
H1518 H 0.44779 0.21359 0.14581 0.0
H1519 H 0.44471 0.17996 0.16415 0.0
H1520 H 0.44085 0.12202 0.12087 0.0
C1521 C 0.44248 0.06086 0.17124 0.0
C1522 C 0.45667 0.11995 0.18219 0.0
C1523 C 0.43794 0.04207 0.18194 0.0
C1524 C 0.45363 0.19912 0.1382 0.0
C1525 C 0.45195 0.17991 0.14876 0.0
C1526 C 0.44558 0.12156 0.13795 0.0
C1527 C 0.4411 0.08146 0.18176 0.0
C1528 C 0.44637 0.10153 0.17058 0.0
C1529 C 0.45873 0.16066 0.13915 0.0
C1530 C 0.45538 0.14004 0.14973 0.0
H1531 H 0.42596 0.06558 0.23047 0.0
H1532 H 0.43306 0.09829 0.21161 0.0
H1533 H 0.4328 0.08885 0.13885 0.0
H1534 H 0.47664 0.1803 0.09301 0.0
H1535 H 0.47335 0.14651 0.11142 0.0
C1536 C 0.0242 0.79875 0.62628 0.0
C1537 C 0.00225 0.80096 0.62776 0.0
C1538 C 0.03924 0.8122 0.63924 0.0
C1539 C 0.06774 0.85068 0.65889 0.0
H1540 H 0.05571 0.86909 0.71747 0.0
C1541 C 0.11732 0.92039 0.7095 0.0
C1542 C 0.11961 0.91922 0.73208 0.0
C1543 C 0.10442 0.9047 0.69664 0.0
C1544 C 0.05953 0.8639 0.70126 0.0
H1545 H 0.9789 0.81913 0.64397 0.0
H1546 H 0.00507 0.84293 0.66614 0.0
H1547 H 0.03055 0.84383 0.69595 0.0
H1548 H 0.11133 0.89995 0.75874 0.0
H1549 H 0.08956 0.87225 0.73633 0.0
H1550 H 0.09707 0.87028 0.66449 0.0
C1551 C 0.01072 0.83047 0.65535 0.0
C1552 C 0.04488 0.84965 0.68876 0.0
C1553 C 0.99568 0.81687 0.64255 0.0
C1554 C 0.10964 0.90148 0.74141 0.0
C1555 C 0.09702 0.88567 0.72855 0.0
C1556 C 0.08252 0.8648 0.67148 0.0
C1557 C 0.0327 0.82833 0.65385 0.0
C1558 C 0.04869 0.84298 0.66735 0.0
C1559 C 0.09377 0.88736 0.70608 0.0
C1560 C 0.07854 0.87169 0.6928 0.0
H1561 H 0.02982 0.78656 0.61514 0.0
H1562 H 0.056 0.80982 0.6379 0.0
H1563 H 0.07112 0.8461 0.64238 0.0
H1564 H 0.12473 0.93393 0.70186 0.0
H1565 H 0.10216 0.90666 0.67942 0.0
C1566 C 0.51225 0.787 0.30316 0.0
C1567 C 0.52947 0.77646 0.29526 0.0
C1568 C 0.5024 0.80232 0.29115 0.0
C1569 C 0.47743 0.82783 0.26027 0.0
H1570 H 0.51177 0.86449 0.22569 0.0
C1571 C 0.44121 0.90039 0.22316 0.0
C1572 C 0.45459 0.91935 0.22336 0.0
C1573 C 0.44981 0.88057 0.22652 0.0
C1574 C 0.50193 0.85458 0.23544 0.0
H1575 H 0.54951 0.77298 0.26832 0.0
H1576 H 0.53158 0.79883 0.24668 0.0
H1577 H 0.52771 0.83514 0.24339 0.0
H1578 H 0.48725 0.93278 0.22647 0.0
H1579 H 0.50235 0.89866 0.2339 0.0
H1580 H 0.45228 0.84838 0.25418 0.0
C1581 C 0.52614 0.79602 0.26254 0.0
C1582 C 0.51102 0.83738 0.24532 0.0
C1583 C 0.53636 0.78108 0.27486 0.0
C1584 C 0.47671 0.91821 0.22608 0.0
C1585 C 0.48532 0.89854 0.2302 0.0
C1586 C 0.46854 0.84537 0.25094 0.0
C1587 C 0.50916 0.80705 0.27063 0.0
C1588 C 0.49901 0.82402 0.25826 0.0
C1589 C 0.47193 0.8795 0.23106 0.0
C1590 C 0.48075 0.85929 0.2387 0.0
H1591 H 0.50677 0.7839 0.31897 0.0
H1592 H 0.48983 0.81081 0.29832 0.0
H1593 H 0.4674 0.81757 0.26951 0.0
H1594 H 0.42406 0.90098 0.22082 0.0
H1595 H 0.43898 0.86626 0.22622 0.0
C1596 C 0.8272 0.67722 -0.00176 0.0
C1597 C 0.81899 0.65655 0.00303 0.0
C1598 C 0.84065 0.69001 0.01344 0.0
C1599 C 0.87792 0.68773 0.06102 0.0
H1600 H 0.86747 0.74842 0.07086 0.0
C1601 C 0.92819 0.74472 0.12561 0.0
C1602 C 0.93342 0.76596 0.11995 0.0
C1603 C 0.91358 0.7309 0.11242 0.0
C1604 C 0.87079 0.73158 0.06814 0.0
H1605 H 0.81881 0.63302 0.02755 0.0
H1606 H 0.84257 0.65537 0.05404 0.0
H1607 H 0.84354 0.72512 0.04563 0.0
H1608 H 0.92748 0.78916 0.09579 0.0
H1609 H 0.90255 0.76505 0.0727 0.0
H1610 H 0.90549 0.69427 0.08311 0.0
C1611 C 0.83848 0.66161 0.03848 0.0
C1612 C 0.85702 0.71822 0.05373 0.0
C1613 C 0.82481 0.64887 0.02333 0.0
C1614 C 0.92373 0.77299 0.10079 0.0
C1615 C 0.90928 0.75916 0.08757 0.0
C1616 C 0.89184 0.70115 0.07533 0.0
C1617 C 0.8464 0.68238 0.03374 0.0
C1618 C 0.86054 0.69622 0.04984 0.0
C1619 C 0.90395 0.73795 0.09321 0.0
C1620 C 0.88858 0.72331 0.0789 0.0
H1621 H 0.82306 0.68369 0.98279 0.0
H1622 H 0.84671 0.70585 0.00924 0.0
H1623 H 0.88111 0.67085 0.05821 0.0
H1624 H 0.9353 0.73878 0.14028 0.0
H1625 H 0.90968 0.71477 0.11741 0.0
C1626 C 0.5564 0.28765 0.62322 0.0
C1627 C 0.53981 0.29925 0.61444 0.0
C1628 C 0.57591 0.28752 0.61369 0.0
C1629 C 0.61896 0.30445 0.59924 0.0
H1630 H 0.62229 0.29538 0.53712 0.0
C1631 C 0.68398 0.31326 0.52943 0.0
C1632 C 0.70141 0.3043 0.54001 0.0
C1633 C 0.66432 0.31325 0.53869 0.0
C1634 C 0.62164 0.29829 0.55447 0.0
H1635 H 0.53042 0.31903 0.58819 0.0
H1636 H 0.56438 0.31859 0.5715 0.0
H1637 H 0.58758 0.29307 0.55246 0.0
H1638 H 0.71201 0.28869 0.5688 0.0
H1639 H 0.67772 0.28825 0.58467 0.0
H1640 H 0.6529 0.31008 0.60131 0.0
C1641 C 0.5623 0.30968 0.5858 0.0
C1642 C 0.60176 0.29683 0.56324 0.0
C1643 C 0.54288 0.31 0.59543 0.0
C1644 C 0.69892 0.29581 0.56025 0.0
C1645 C 0.67925 0.29564 0.56942 0.0
C1646 C 0.63882 0.3061 0.59046 0.0
C1647 C 0.57914 0.29877 0.59505 0.0
C1648 C 0.60023 0.29984 0.58572 0.0
C1649 C 0.66162 0.30415 0.55865 0.0
C1650 C 0.64043 0.30298 0.56797 0.0
H1651 H 0.55458 0.2792 0.63785 0.0
H1652 H 0.58856 0.27876 0.621 0.0
H1653 H 0.61821 0.30721 0.6166 0.0
H1654 H 0.68542 0.32006 0.51387 0.0
H1655 H 0.65121 0.32033 0.53015 0.0
C1656 C 0.19242 0.47083 0.07688 0.0
C1657 C 0.21174 0.46257 0.07133 0.0
C1658 C 0.19095 0.48201 0.09686 0.0
C1659 C 0.21686 0.48545 0.15206 0.0
H1660 H 0.17039 0.52217 0.16161 0.0
C1661 C 0.1699 0.48064 0.22687 0.0
C1662 C 0.15775 0.49765 0.23378 0.0
C1663 C 0.18216 0.4825 0.20907 0.0
C1664 C 0.18382 0.51239 0.15948 0.0
H1665 H 0.24513 0.46111 0.08177 0.0
H1666 H 0.24274 0.48131 0.11653 0.0
H1667 H 0.18218 0.51636 0.12546 0.0
H1668 H 0.15022 0.53064 0.22846 0.0
H1669 H 0.17232 0.53426 0.19781 0.0
H1670 H 0.21884 0.4819 0.18616 0.0
C1671 C 0.22853 0.47852 0.10566 0.0
C1672 C 0.19036 0.50873 0.13855 0.0
C1673 C 0.22994 0.46701 0.08569 0.0
C1674 C 0.15917 0.51711 0.22331 0.0
C1675 C 0.17178 0.51914 0.20567 0.0
C1676 C 0.21067 0.48955 0.17307 0.0
C1677 C 0.20883 0.48557 0.11179 0.0
C1678 C 0.20604 0.49414 0.13437 0.0
C1679 C 0.18293 0.50159 0.19788 0.0
C1680 C 0.19319 0.50198 0.17687 0.0
H1681 H 0.17806 0.46776 0.06625 0.0
H1682 H 0.17539 0.48673 0.10098 0.0
H1683 H 0.22909 0.47423 0.14964 0.0
H1684 H 0.16915 0.46539 0.23453 0.0
H1685 H 0.19007 0.46842 0.20346 0.0
C1686 C 0.28692 0.53466 0.83205 0.0
C1687 C 0.30892 0.53885 0.83106 0.0
C1688 C 0.27854 0.52995 0.85168 0.0
C1689 C 0.29665 0.51001 0.90478 0.0
H1690 H 0.23686 0.51356 0.91473 0.0
C1691 C 0.25575 0.45438 0.96223 0.0
C1692 C 0.23787 0.46097 0.97257 0.0
C1693 C 0.26507 0.46724 0.94725 0.0
C1694 C 0.25372 0.51275 0.91258 0.0
H1695 H 0.33934 0.54332 0.84958 0.0
H1696 H 0.32469 0.53687 0.88422 0.0
H1697 H 0.25176 0.53254 0.88563 0.0
H1698 H 0.21621 0.48652 0.97614 0.0
H1699 H 0.23318 0.50964 0.95092 0.0
H1700 H 0.29892 0.49124 0.9324 0.0
C1701 C 0.31387 0.53593 0.86985 0.0
C1702 C 0.26222 0.52337 0.89552 0.0
C1703 C 0.3223 0.53991 0.85008 0.0
C1704 C 0.22986 0.48097 0.96817 0.0
C1705 C 0.23954 0.49414 0.95359 0.0
C1706 C 0.28831 0.49993 0.92218 0.0
C1707 C 0.29199 0.52991 0.87079 0.0
C1708 C 0.28365 0.52155 0.8909 0.0
C1709 C 0.2571 0.48732 0.94266 0.0
C1710 C 0.26655 0.50049 0.92589 0.0
H1711 H 0.2764 0.53357 0.81742 0.0
H1712 H 0.2617 0.52513 0.85146 0.0
H1713 H 0.31315 0.50788 0.90182 0.0
H1714 H 0.26211 0.43892 0.96519 0.0
H1715 H 0.27818 0.46105 0.93885 0.0
C1716 C 0.28324 0.65144 0.56806 0.0
C1717 C 0.29782 0.64606 0.55266 0.0
C1718 C 0.2844 0.64274 0.5884 0.0
C1719 C 0.30758 0.59847 0.61804 0.0
H1720 H 0.30149 0.63648 0.66904 0.0
C1721 C 0.33336 0.57534 0.70397 0.0
C1722 C 0.31905 0.57905 0.72007 0.0
C1723 C 0.33018 0.58375 0.68369 0.0
C1724 C 0.30305 0.62562 0.65493 0.0
H1725 H 0.32479 0.62693 0.54653 0.0
H1726 H 0.32695 0.61217 0.58182 0.0
H1727 H 0.29601 0.65005 0.63309 0.0
H1728 H 0.29051 0.59499 0.72767 0.0
H1729 H 0.28504 0.60971 0.69231 0.0
H1730 H 0.31495 0.57417 0.63989 0.0
C1731 C 0.31442 0.62283 0.57817 0.0
C1732 C 0.29982 0.63335 0.63433 0.0
C1733 C 0.31324 0.63145 0.55791 0.0
C1734 C 0.30182 0.59181 0.71562 0.0
C1735 C 0.29872 0.60033 0.69539 0.0
C1736 C 0.31092 0.59079 0.63861 0.0
C1737 C 0.30014 0.62847 0.59375 0.0
C1738 C 0.30223 0.61992 0.61563 0.0
C1739 C 0.31271 0.59616 0.67911 0.0
C1740 C 0.30885 0.60433 0.65729 0.0
H1741 H 0.27112 0.6626 0.56455 0.0
H1742 H 0.27298 0.64721 0.59993 0.0
H1743 H 0.30917 0.58754 0.60399 0.0
H1744 H 0.34681 0.56561 0.70687 0.0
H1745 H 0.34139 0.58052 0.67155 0.0
C1746 C 0.14824 0.54774 0.33094 0.0
C1747 C 0.1467 0.52519 0.33274 0.0
C1748 C 0.16079 0.56134 0.34628 0.0
C1749 C 0.18478 0.56565 0.40183 0.0
H1750 H 0.22805 0.6044 0.38001 0.0
C1751 C 0.2374 0.63164 0.45508 0.0
C1752 C 0.25943 0.63176 0.45247 0.0
C1753 C 0.22291 0.61855 0.44112 0.0
C1754 C 0.21603 0.59365 0.3863 0.0
H1755 H 0.15638 0.49934 0.35248 0.0
H1756 H 0.17792 0.5232 0.37949 0.0
H1757 H 0.2031 0.58215 0.35452 0.0
H1758 H 0.28352 0.61823 0.43319 0.0
H1759 H 0.2581 0.59568 0.40855 0.0
H1760 H 0.19769 0.57725 0.43363 0.0
C1761 C 0.16956 0.53027 0.36612 0.0
C1762 C 0.20168 0.58109 0.37175 0.0
C1763 C 0.15733 0.51663 0.3506 0.0
C1764 C 0.26666 0.61843 0.43568 0.0
C1765 C 0.25214 0.60564 0.4215 0.0
C1766 C 0.19891 0.5785 0.4164 0.0
C1767 C 0.17169 0.55269 0.36389 0.0
C1768 C 0.18606 0.56684 0.37939 0.0
C1769 C 0.23015 0.60564 0.42407 0.0
C1770 C 0.21479 0.59244 0.40874 0.0
H1771 H 0.14029 0.55481 0.31734 0.0
H1772 H 0.16211 0.57861 0.34431 0.0
H1773 H 0.17282 0.55481 0.40809 0.0
H1774 H 0.23134 0.64169 0.46791 0.0
H1775 H 0.20601 0.61888 0.44336 0.0
loop_
_geom_bond_atom_site_label_1
_geom_bond_atom_site_label_2
_geom_bond_distance
_geom_bond_site_symmetry_2
_ccdc_geom_bond_type
Mg0 O1 2.028 . S
Mg0 O7 1.986 . S
Mg0 O9 2.114 1_455 S
Mg0 O10 2.251 1_455 S
Mg0 O13 2.010 . S
O1 Mg0 2.028 . S
O1 C4 1.250 1_455 S
O2 Mg3 2.028 . S
O2 C4 1.248 . S
Mg3 O2 2.028 . S
Mg3 O8 1.998 1_655 S
Mg3 O10 2.079 . S
C4 O1 1.250 1_655 S
C4 O2 1.248 . S
C5 O6 1.264 . S
C5 O13 1.249 . S
O6 C5 1.264 . S
O7 Mg0 1.986 . S
O7 C11 1.246 . S
O8 Mg3 1.998 1_455 S
O8 C11 1.295 . S
O9 Mg0 2.114 1_655 S
O9 C12 1.252 . S
O10 Mg0 2.251 1_655 S
O10 Mg3 2.079 . S
O10 C12 1.273 . S
C11 O7 1.246 . S
C11 O8 1.295 . S
C12 O9 1.252 . S
C12 O10 1.273 . S
O13 Mg0 2.010 . S
O13 C5 1.249 . S
Mg14 O15 2.028 . S
Mg14 O21 1.986 . S
Mg14 O23 2.114 1_455 S
Mg14 O24 2.251 1_455 S
Mg14 O27 2.010 . S
O15 Mg14 2.028 . S
O15 C18 1.250 . S
O16 Mg17 2.028 1_455 S
O16 C18 1.248 . S
Mg17 O16 2.028 1_655 S
Mg17 O22 2.032 . S
Mg17 O24 2.079 . S
C18 O15 1.250 . S
C18 O16 1.248 . S
C19 O20 1.264 . S
C19 O27 1.249 . S
O20 C19 1.264 . S
O21 Mg14 1.986 . S
O21 C25 1.246 1_455 S
O22 Mg17 2.032 . S
O22 C25 1.259 . S
O23 Mg14 2.114 1_655 S
O23 C26 1.252 . S
O24 Mg14 2.251 1_655 S
O24 Mg17 2.079 . S
O24 C26 1.273 . S
C25 O21 1.246 1_655 S
C25 O22 1.259 . S
C26 O23 1.252 . S
C26 O24 1.273 . S
O27 Mg14 2.010 . S
O27 C19 1.249 . S
Mg28 O29 2.028 . S
Mg28 O35 1.986 . S
Mg28 O37 2.114 . S
Mg28 O38 2.251 . S
Mg28 O41 2.010 . S
O29 Mg28 2.028 . S
O29 C32 1.250 . S
O30 Mg31 2.028 . S
O30 C32 1.248 . S
Mg31 O30 2.028 . S
Mg31 O36 2.032 . S
Mg31 O38 2.079 . S
C32 O29 1.250 . S
C32 O30 1.248 . S
C33 O34 1.264 . S
C33 O41 1.249 . S
O34 C33 1.264 . S
O35 Mg28 1.986 . S
O35 C39 1.246 . S
O36 Mg31 2.032 . S
O36 C39 1.259 . S
O37 Mg28 2.114 . S
O37 C40 1.252 . S
O38 Mg28 2.251 . S
O38 Mg31 2.079 . S
O38 C40 1.273 . S
C39 O35 1.246 . S
C39 O36 1.259 . S
C40 O37 1.252 . S
C40 O38 1.273 . S
O41 Mg28 2.010 . S
O41 C33 1.249 . S
Mg42 O43 2.028 . S
Mg42 O49 1.986 . S
Mg42 O51 2.114 . S
Mg42 O52 2.251 . S
Mg42 O55 2.010 . S
O43 Mg42 2.028 . S
O43 C46 1.250 . S
O44 Mg45 2.028 . S
O44 C46 1.248 . S
Mg45 O44 2.028 . S
Mg45 O50 2.032 . S
Mg45 O52 2.079 . S
C46 O43 1.250 . S
C46 O44 1.248 . S
C47 O48 1.264 . S
C47 O55 1.249 . S
O48 C47 1.264 . S
O49 Mg42 1.986 . S
O49 C53 1.246 . S
O50 Mg45 2.032 . S
O50 C53 1.259 . S
O51 Mg42 2.114 . S
O51 C54 1.252 . S
O52 Mg42 2.251 . S
O52 Mg45 2.079 . S
O52 C54 1.273 . S
C53 O49 1.246 . S
C53 O50 1.259 . S
C54 O51 1.252 . S
C54 O52 1.273 . S
O55 Mg42 2.010 . S
O55 C47 1.249 . S
Mg56 O57 2.028 1_455 S
Mg56 O63 1.986 . S
Mg56 O65 2.114 1_455 S
Mg56 O66 2.251 1_455 S
Mg56 O69 2.010 . S
O57 Mg56 2.028 1_655 S
O57 C60 1.250 . S
O58 Mg59 2.028 . S
O58 C60 1.248 . S
Mg59 O58 2.028 . S
Mg59 O64 2.032 1_655 S
Mg59 O66 2.079 . S
C60 O57 1.250 . S
C60 O58 1.248 . S
C61 O62 1.264 . S
C61 O69 1.249 . S
O62 C61 1.264 . S
O63 Mg56 1.986 . S
O63 C67 1.246 . S
O64 Mg59 2.032 1_455 S
O64 C67 1.259 . S
O65 Mg56 2.114 1_655 S
O65 C68 1.252 . S
O66 Mg56 2.251 1_655 S
O66 Mg59 2.079 . S
O66 C68 1.273 . S
C67 O63 1.246 . S
C67 O64 1.259 . S
C68 O65 1.252 . S
C68 O66 1.273 . S
O69 Mg56 2.010 . S
O69 C61 1.249 . S
Mg70 O71 2.028 . S
Mg70 O77 1.986 . S
Mg70 O79 2.114 . S
Mg70 O80 2.251 . S
Mg70 O83 2.010 . S
O71 Mg70 2.028 . S
O71 C74 1.250 . S
O72 Mg73 2.028 . S
O72 C74 1.248 . S
Mg73 O72 2.028 . S
Mg73 O78 2.032 . S
Mg73 O80 2.079 . S
C74 O71 1.250 . S
C74 O72 1.248 . S
C75 O76 1.264 . S
C75 O83 1.249 . S
O76 C75 1.264 . S
O77 Mg70 1.986 . S
O77 C81 1.246 . S
O78 Mg73 2.032 . S
O78 C81 1.259 . S
O79 Mg70 2.114 . S
O79 C82 1.252 . S
O80 Mg70 2.251 . S
O80 Mg73 2.079 . S
O80 C82 1.273 . S
C81 O77 1.246 . S
C81 O78 1.259 . S
C82 O79 1.252 . S
C82 O80 1.273 . S
O83 Mg70 2.010 . S
O83 C75 1.249 . S
Mg84 O85 2.028 . S
Mg84 O91 1.986 . S
Mg84 O93 2.114 . S
Mg84 O94 2.251 . S
Mg84 O97 2.010 . S
O85 Mg84 2.028 . S
O85 C88 1.250 . S
O86 Mg87 2.028 . S
O86 C88 1.248 . S
Mg87 O86 2.028 . S
Mg87 O92 2.032 . S
Mg87 O94 2.079 . S
C88 O85 1.250 . S
C88 O86 1.248 . S
C89 O90 1.264 . S
C89 O97 1.249 . S
O90 C89 1.264 . S
O91 Mg84 1.986 . S
O91 C95 1.246 . S
O92 Mg87 2.032 . S
O92 C95 1.259 . S
O93 Mg84 2.114 . S
O93 C96 1.252 . S
O94 Mg84 2.251 . S
O94 Mg87 2.079 . S
O94 C96 1.273 . S
C95 O91 1.246 . S
C95 O92 1.259 . S
C96 O93 1.252 . S
C96 O94 1.273 . S
O97 Mg84 2.010 . S
O97 C89 1.249 . S
Mg98 O99 2.028 1_455 S
Mg98 O105 1.986 . S
Mg98 O107 2.114 . S
Mg98 O108 2.251 . S
Mg98 O111 2.010 1_455 S
O99 Mg98 2.028 1_655 S
O99 C102 1.250 . S
O100 Mg101 2.028 . S
O100 C102 1.248 1_455 S
Mg101 O100 2.028 . S
Mg101 O106 2.032 . S
Mg101 O108 2.079 . S
C102 O99 1.250 . S
C102 O100 1.248 1_655 S
C103 O104 1.264 . S
C103 O111 1.249 . S
O104 C103 1.264 . S
O105 Mg98 1.986 . S
O105 C109 1.246 . S
O106 Mg101 2.032 . S
O106 C109 1.259 . S
O107 Mg98 2.114 . S
O107 C110 1.252 . S
O108 Mg98 2.251 . S
O108 Mg101 2.079 . S
O108 C110 1.273 . S
C109 O105 1.246 . S
C109 O106 1.259 . S
C110 O107 1.252 . S
C110 O108 1.273 . S
O111 Mg98 2.010 1_655 S
O111 C103 1.249 . S
Mg112 O113 2.020 1_545 S
Mg112 O119 1.986 . S
Mg112 O121 2.114 1_545 S
Mg112 O122 2.251 1_545 S
Mg112 O125 2.010 . S
O113 Mg112 2.020 1_565 S
O113 C116 1.286 . S
O114 Mg115 2.028 . S
O114 C116 1.248 . S
Mg115 O114 2.028 . S
Mg115 O120 2.032 . S
Mg115 O122 2.079 . S
C116 O113 1.286 . S
C116 O114 1.248 . S
C117 O118 1.264 . S
C117 O125 1.249 . S
O118 C117 1.264 . S
O119 Mg112 1.986 . S
O119 C123 1.246 . S
O120 Mg115 2.032 . S
O120 C123 1.259 1_565 S
O121 Mg112 2.114 1_565 S
O121 C124 1.252 . S
O122 Mg112 2.251 1_565 S
O122 Mg115 2.079 . S
O122 C124 1.273 . S
C123 O119 1.246 . S
C123 O120 1.259 1_545 S
C124 O121 1.252 . S
C124 O122 1.273 . S
O125 Mg112 2.010 . S
O125 C117 1.249 . S
Mg126 O127 2.028 . S
Mg126 O133 1.986 . S
Mg126 O135 2.114 . S
Mg126 O136 2.251 . S
Mg126 O139 2.010 . S
O127 Mg126 2.028 . S
O127 C130 1.250 . S
O128 Mg129 2.028 . S
O128 C130 1.248 . S
Mg129 O128 2.028 . S
Mg129 O134 2.032 . S
Mg129 O136 2.079 . S
C130 O127 1.250 . S
C130 O128 1.248 . S
C131 O132 1.264 . S
C131 O139 1.249 . S
O132 C131 1.264 . S
O133 Mg126 1.986 . S
O133 C137 1.246 . S
O134 Mg129 2.032 . S
O134 C137 1.259 . S
O135 Mg126 2.114 . S
O135 C138 1.252 . S
O136 Mg126 2.251 . S
O136 Mg129 2.079 . S
O136 C138 1.273 . S
C137 O133 1.246 . S
C137 O134 1.259 . S
C138 O135 1.252 . S
C138 O136 1.273 . S
O139 Mg126 2.010 . S
O139 C131 1.249 . S
Mg140 O141 2.028 1_545 S
Mg140 O147 1.986 . S
Mg140 O149 2.114 1_545 S
Mg140 O150 2.251 1_545 S
Mg140 O153 2.010 . S
O141 Mg140 2.028 1_565 S
O141 C144 1.250 . S
O142 Mg143 2.028 . S
O142 C144 1.248 . S
Mg143 O142 2.028 . S
Mg143 O148 2.032 1_565 S
Mg143 O150 2.079 . S
C144 O141 1.250 . S
C144 O142 1.248 . S
C145 O146 1.264 . S
C145 O153 1.249 . S
O146 C145 1.264 . S
O147 Mg140 1.986 . S
O147 C151 1.246 . S
O148 Mg143 2.032 1_545 S
O148 C151 1.259 . S
O149 Mg140 2.114 1_565 S
O149 C152 1.252 . S
O150 Mg140 2.251 1_565 S
O150 Mg143 2.079 . S
O150 C152 1.273 . S
C151 O147 1.246 . S
C151 O148 1.259 . S
C152 O149 1.252 . S
C152 O150 1.273 . S
O153 Mg140 2.010 . S
O153 C145 1.249 . S
Mg154 O155 2.030 . S
Mg154 O161 1.985 1_554 S
Mg154 O163 2.114 . S
Mg154 O164 2.251 1_554 S
Mg154 O167 2.011 . S
O155 Mg154 2.030 . S
O155 C158 1.250 . S
O156 Mg157 2.028 1_554 S
O156 C158 1.248 . S
Mg157 O156 2.028 1_556 S
Mg157 O162 2.032 . S
Mg157 O164 2.079 . S
C158 O155 1.250 . S
C158 O156 1.248 . S
C159 O160 1.264 . S
C159 O167 1.249 . S
O160 C159 1.264 . S
O161 Mg154 1.985 1_556 S
O161 C165 1.246 . S
O162 Mg157 2.032 . S
O162 C165 1.259 . S
O163 Mg154 2.114 . S
O163 C166 1.252 1_554 S
O164 Mg154 2.251 1_556 S
O164 Mg157 2.079 . S
O164 C166 1.273 . S
C165 O161 1.246 . S
C165 O162 1.259 . S
C166 O163 1.252 1_556 S
C166 O164 1.273 . S
O167 Mg154 2.011 . S
O167 C159 1.249 . S
Mg168 O169 2.028 1_554 S
Mg168 O175 1.986 . S
Mg168 O177 2.114 1_554 S
Mg168 O178 2.251 1_554 S
Mg168 O181 2.010 . S
O169 Mg168 2.028 1_556 S
O169 C172 1.250 . S
O170 Mg171 2.028 . S
O170 C172 1.248 . S
Mg171 O170 2.028 . S
Mg171 O176 2.032 1_556 S
Mg171 O178 2.079 . S
C172 O169 1.250 . S
C172 O170 1.248 . S
C173 O174 1.264 . S
C173 O181 1.249 . S
O174 C173 1.264 . S
O175 Mg168 1.986 . S
O175 C179 1.246 . S
O176 Mg171 2.032 1_554 S
O176 C179 1.259 . S
O177 Mg168 2.114 1_556 S
O177 C180 1.252 . S
O178 Mg168 2.251 1_556 S
O178 Mg171 2.079 . S
O178 C180 1.273 . S
C179 O175 1.246 . S
C179 O176 1.259 . S
C180 O177 1.252 . S
C180 O178 1.273 . S
O181 Mg168 2.010 . S
O181 C173 1.249 . S
Mg182 O183 2.028 1_554 S
Mg182 O189 1.986 . S
Mg182 O191 2.114 1_554 S
Mg182 O192 2.251 1_554 S
Mg182 O195 2.010 . S
O183 Mg182 2.028 1_556 S
O183 C186 1.250 . S
O184 Mg185 2.028 . S
O184 C186 1.248 . S
Mg185 O184 2.028 . S
Mg185 O190 2.032 1_556 S
Mg185 O192 2.079 . S
C186 O183 1.250 . S
C186 O184 1.248 . S
C187 O188 1.264 . S
C187 O195 1.249 . S
O188 C187 1.264 . S
O189 Mg182 1.986 . S
O189 C193 1.246 . S
O190 Mg185 2.032 1_554 S
O190 C193 1.259 . S
O191 Mg182 2.114 1_556 S
O191 C194 1.252 . S
O192 Mg182 2.251 1_556 S
O192 Mg185 2.079 . S
O192 C194 1.273 . S
C193 O189 1.246 . S
C193 O190 1.259 . S
C194 O191 1.252 . S
C194 O192 1.273 . S
O195 Mg182 2.010 . S
O195 C187 1.249 . S
Mg196 O197 2.028 . S
Mg196 O203 1.986 . S
Mg196 O205 2.114 . S
Mg196 O206 2.251 . S
Mg196 O209 2.010 . S
O197 Mg196 2.028 . S
O197 C200 1.250 . S
O198 Mg199 2.028 . S
O198 C200 1.248 . S
Mg199 O198 2.028 . S
Mg199 O204 2.032 . S
Mg199 O206 2.079 . S
C200 O197 1.250 . S
C200 O198 1.248 . S
C201 O202 1.264 . S
C201 O209 1.249 . S
O202 C201 1.264 . S
O203 Mg196 1.986 . S
O203 C207 1.246 . S
O204 Mg199 2.032 . S
O204 C207 1.259 . S
O205 Mg196 2.114 . S
O205 C208 1.252 . S
O206 Mg196 2.251 . S
O206 Mg199 2.079 . S
O206 C208 1.273 . S
C207 O203 1.246 . S
C207 O204 1.259 . S
C208 O205 1.252 . S
C208 O206 1.273 . S
O209 Mg196 2.010 . S
O209 C201 1.249 . S
Mg210 O211 2.028 . S
Mg210 O217 1.986 . S
Mg210 O219 2.114 . S
Mg210 O220 2.251 . S
Mg210 O223 2.010 . S
O211 Mg210 2.028 . S
O211 C214 1.250 . S
O212 Mg213 2.028 . S
O212 C214 1.248 . S
Mg213 O212 2.028 . S
Mg213 O218 2.032 . S
Mg213 O220 2.079 . S
C214 O211 1.250 . S
C214 O212 1.248 . S
C215 O216 1.264 . S
C215 O223 1.249 . S
O216 C215 1.264 . S
O217 Mg210 1.986 . S
O217 C221 1.246 . S
O218 Mg213 2.032 . S
O218 C221 1.259 . S
O219 Mg210 2.114 . S
O219 C222 1.252 . S
O220 Mg210 2.251 . S
O220 Mg213 2.079 . S
O220 C222 1.273 . S
C221 O217 1.246 . S
C221 O218 1.259 . S
C222 O219 1.252 . S
C222 O220 1.273 . S
O223 Mg210 2.010 . S
O223 C215 1.249 . S
Mg224 O225 2.028 . S
Mg224 O231 1.986 1_545 S
Mg224 O233 2.114 . S
Mg224 O234 2.251 1_545 S
Mg224 O237 2.010 . S
O225 Mg224 2.028 . S
O225 C228 1.250 . S
O226 Mg227 2.028 1_545 S
O226 C228 1.248 . S
Mg227 O226 2.028 1_565 S
Mg227 O232 2.032 . S
Mg227 O234 2.079 . S
C228 O225 1.250 . S
C228 O226 1.248 . S
C229 O230 1.264 . S
C229 O237 1.249 . S
O230 C229 1.264 . S
O231 Mg224 1.986 1_565 S
O231 C235 1.246 . S
O232 Mg227 2.032 . S
O232 C235 1.259 . S
O233 Mg224 2.114 . S
O233 C236 1.252 1_545 S
O234 Mg224 2.251 1_565 S
O234 Mg227 2.079 . S
O234 C236 1.273 . S
C235 O231 1.246 . S
C235 O232 1.259 . S
C236 O233 1.252 1_565 S
C236 O234 1.273 . S
O237 Mg224 2.010 . S
O237 C229 1.249 . S
Mg238 O239 2.028 . S
Mg238 O245 1.986 . S
Mg238 O247 2.114 . S
Mg238 O248 2.251 . S
Mg238 O251 2.010 . S
O239 Mg238 2.028 . S
O239 C242 1.250 . S
O240 Mg241 2.028 . S
O240 C242 1.248 . S
Mg241 O240 2.028 . S
Mg241 O246 2.032 . S
Mg241 O248 2.079 . S
C242 O239 1.250 . S
C242 O240 1.248 . S
C243 O244 1.264 . S
C243 O251 1.249 . S
O244 C243 1.264 . S
O245 Mg238 1.986 . S
O245 C249 1.246 . S
O246 Mg241 2.032 . S
O246 C249 1.259 . S
O247 Mg238 2.114 . S
O247 C250 1.252 . S
O248 Mg238 2.251 . S
O248 Mg241 2.079 . S
O248 C250 1.273 . S
C249 O245 1.246 . S
C249 O246 1.259 . S
C250 O247 1.252 . S
C250 O248 1.273 . S
O251 Mg238 2.010 . S
O251 C243 1.249 . S
Mg252 O253 2.028 . S
Mg252 O259 1.986 . S
Mg252 O261 2.114 . S
Mg252 O262 2.251 . S
Mg252 O265 2.010 . S
O253 Mg252 2.028 . S
O253 C256 1.250 . S
O254 Mg255 2.028 . S
O254 C256 1.248 . S
Mg255 O254 2.028 . S
Mg255 O260 2.032 . S
Mg255 O262 2.079 . S
C256 O253 1.250 . S
C256 O254 1.248 . S
C257 O258 1.264 . S
C257 O265 1.249 . S
O258 C257 1.264 . S
O259 Mg252 1.986 . S
O259 C263 1.246 . S
O260 Mg255 2.032 . S
O260 C263 1.259 . S
O261 Mg252 2.114 . S
O261 C264 1.252 . S
O262 Mg252 2.251 . S
O262 Mg255 2.079 . S
O262 C264 1.273 . S
C263 O259 1.246 . S
C263 O260 1.259 . S
C264 O261 1.252 . S
C264 O262 1.273 . S
O265 Mg252 2.010 . S
O265 C257 1.249 . S
Mg266 O267 2.028 . S
Mg266 O273 1.986 . S
Mg266 O275 2.114 1_545 S
Mg266 O276 2.251 1_545 S
Mg266 O279 2.010 . S
O267 Mg266 2.028 . S
O267 C270 1.250 . S
O268 Mg269 2.028 1_545 S
O268 C270 1.248 . S
Mg269 O268 2.028 1_565 S
Mg269 O274 2.032 . S
Mg269 O276 2.079 . S
C270 O267 1.250 . S
C270 O268 1.248 . S
C271 O272 1.264 . S
C271 O279 1.249 . S
O272 C271 1.264 . S
O273 Mg266 1.986 . S
O273 C277 1.246 1_545 S
O274 Mg269 2.032 . S
O274 C277 1.259 . S
O275 Mg266 2.114 1_565 S
O275 C278 1.252 . S
O276 Mg266 2.251 1_565 S
O276 Mg269 2.079 . S
O276 C278 1.273 . S
C277 O273 1.246 1_565 S
C277 O274 1.259 . S
C278 O275 1.252 . S
C278 O276 1.273 . S
O279 Mg266 2.010 . S
O279 C271 1.249 . S
Mg280 O281 2.028 . S
Mg280 O287 1.986 1_554 S
Mg280 O289 2.114 1_554 S
Mg280 O290 2.251 1_554 S
Mg280 O293 2.010 . S
O281 Mg280 2.028 . S
O281 C284 1.250 . S
O282 Mg283 2.060 . S
O282 C284 1.216 1_556 S
Mg283 O282 2.060 . S
Mg283 O288 2.032 . S
Mg283 O290 2.079 . S
C284 O281 1.250 . S
C284 O282 1.216 1_554 S
C285 O286 1.264 . S
C285 O293 1.249 . S
O286 C285 1.264 . S
O287 Mg280 1.986 1_556 S
O287 C291 1.246 . S
O288 Mg283 2.032 . S
O288 C291 1.259 . S
O289 Mg280 2.114 1_556 S
O289 C292 1.252 . S
O290 Mg280 2.251 1_556 S
O290 Mg283 2.079 . S
O290 C292 1.273 . S
C291 O287 1.246 . S
C291 O288 1.259 . S
C292 O289 1.252 . S
C292 O290 1.273 . S
O293 Mg280 2.010 . S
O293 C285 1.249 . S
Mg294 O295 2.028 . S
Mg294 O301 1.986 . S
Mg294 O303 2.114 . S
Mg294 O304 2.251 . S
Mg294 O307 2.010 . S
O295 Mg294 2.028 . S
O295 C298 1.250 . S
O296 Mg297 2.028 . S
O296 C298 1.248 . S
Mg297 O296 2.028 . S
Mg297 O302 2.032 . S
Mg297 O304 2.079 . S
C298 O295 1.250 . S
C298 O296 1.248 . S
C299 O300 1.264 . S
C299 O307 1.249 . S
O300 C299 1.264 . S
O301 Mg294 1.986 . S
O301 C305 1.246 . S
O302 Mg297 2.032 . S
O302 C305 1.259 . S
O303 Mg294 2.114 . S
O303 C306 1.252 . S
O304 Mg294 2.251 . S
O304 Mg297 2.079 . S
O304 C306 1.273 . S
C305 O301 1.246 . S
C305 O302 1.259 . S
C306 O303 1.252 . S
C306 O304 1.273 . S
O307 Mg294 2.010 . S
O307 C299 1.249 . S
Mg308 O309 2.028 . S
Mg308 O315 1.986 . S
Mg308 O317 2.114 . S
Mg308 O318 2.251 . S
Mg308 O321 2.010 . S
O309 Mg308 2.028 . S
O309 C312 1.250 . S
O310 Mg311 2.028 . S
O310 C312 1.248 . S
Mg311 O310 2.028 . S
Mg311 O316 2.032 . S
Mg311 O318 2.079 . S
C312 O309 1.250 . S
C312 O310 1.248 . S
C313 O314 1.264 . S
C313 O321 1.249 . S
O314 C313 1.264 . S
O315 Mg308 1.986 . S
O315 C319 1.246 . S
O316 Mg311 2.032 . S
O316 C319 1.259 . S
O317 Mg308 2.114 . S
O317 C320 1.252 . S
O318 Mg308 2.251 . S
O318 Mg311 2.079 . S
O318 C320 1.273 . S
C319 O315 1.246 . S
C319 O316 1.259 . S
C320 O317 1.252 . S
C320 O318 1.273 . S
O321 Mg308 2.010 . S
O321 C313 1.249 . S
Mg322 O323 2.028 . S
Mg322 O329 1.986 . S
Mg322 O331 2.114 . S
Mg322 O332 2.251 . S
Mg322 O335 2.010 . S
O323 Mg322 2.028 . S
O323 C326 1.250 . S
O324 Mg325 2.028 . S
O324 C326 1.248 . S
Mg325 O324 2.028 . S
Mg325 O330 2.032 . S
Mg325 O332 2.079 . S
C326 O323 1.250 . S
C326 O324 1.248 . S
C327 O328 1.264 . S
C327 O335 1.249 . S
O328 C327 1.264 . S
O329 Mg322 1.986 . S
O329 C333 1.246 . S
O330 Mg325 2.032 . S
O330 C333 1.259 . S
O331 Mg322 2.114 . S
O331 C334 1.252 . S
O332 Mg322 2.251 . S
O332 Mg325 2.079 . S
O332 C334 1.273 . S
C333 O329 1.246 . S
C333 O330 1.259 . S
C334 O331 1.252 . S
C334 O332 1.273 . S
O335 Mg322 2.010 . S
O335 C327 1.249 . S
C336 C337 1.349 . S
C336 C338 1.327 . S
C336 H361 0.950 . S
C337 C336 1.349 . S
C337 C353 1.349 . S
C338 C336 1.327 . S
C338 C357 1.429 . S
C338 H362 0.950 . S
C339 C356 1.574 . S
C339 C358 1.368 . S
C339 H363 0.949 . S
H340 C344 0.949 . S
C341 C342 1.349 . S
C341 C343 1.327 . S
C341 H364 0.950 . S
C342 C341 1.349 . S
C342 C354 1.349 . S
C343 C341 1.327 . S
C343 C359 1.429 . S
C343 H365 0.950 . S
C344 H340 0.949 . S
C344 C352 1.574 . S
C344 C360 1.368 . S
H345 C353 0.950 . S
H346 C351 0.950 . S
H347 C352 0.949 . S
H348 C354 0.950 . S
H349 C355 0.950 . S
H350 C356 0.949 . S
C351 H346 0.950 . S
C351 C353 1.327 . S
C351 C357 1.429 . S
C352 C344 1.574 . S
C352 H347 0.949 . S
C352 C358 1.368 . S
C353 C337 1.349 . S
C353 H345 0.950 . S
C353 C351 1.327 . S
C354 C342 1.349 . S
C354 H348 0.950 . S
C354 C355 1.327 . S
C355 H349 0.950 . S
C355 C354 1.327 . S
C355 C359 1.429 . S
C356 C339 1.574 . S
C356 H350 0.949 . S
C356 C360 1.368 . S
C357 C338 1.429 . S
C357 C351 1.429 . S
C357 C358 1.523 . S
C358 C339 1.368 . S
C358 C352 1.368 . S
C358 C357 1.523 . S
C359 C343 1.429 . S
C359 C355 1.429 . S
C359 C360 1.523 . S
C360 C344 1.368 . S
C360 C356 1.368 . S
C360 C359 1.523 . S
H361 C336 0.950 . S
H362 C338 0.950 . S
H363 C339 0.949 . S
H364 C341 0.950 . S
H365 C343 0.950 . S
C366 C367 1.349 . S
C366 C368 1.327 . S
C366 H391 0.950 . S
C367 C366 1.349 . S
C367 C383 1.349 . S
C368 C366 1.327 . S
C368 C387 1.429 . S
C368 H392 0.950 . S
C369 C386 1.574 . S
C369 C388 1.368 . S
C369 H393 0.949 . S
H370 C374 0.949 . S
C371 C372 1.349 . S
C371 C373 1.327 . S
C371 H394 0.950 . S
C372 C371 1.349 . S
C372 C384 1.349 . S
C373 C371 1.327 . S
C373 C389 1.429 . S
C373 H395 0.950 . S
C374 H370 0.949 . S
C374 C382 1.574 . S
C374 C390 1.368 . S
H375 C383 0.950 . S
H376 C381 0.950 . S
H377 C382 0.949 . S
H378 C384 0.950 . S
H379 C385 0.950 . S
H380 C386 0.949 . S
C381 H376 0.950 . S
C381 C383 1.327 . S
C381 C387 1.429 . S
C382 C374 1.574 . S
C382 H377 0.949 . S
C382 C388 1.368 . S
C383 C367 1.349 . S
C383 H375 0.950 . S
C383 C381 1.327 . S
C384 C372 1.349 . S
C384 H378 0.950 . S
C384 C385 1.327 . S
C385 H379 0.950 . S
C385 C384 1.327 . S
C385 C389 1.429 . S
C386 C369 1.574 . S
C386 H380 0.949 . S
C386 C390 1.368 . S
C387 C368 1.429 . S
C387 C381 1.429 . S
C387 C388 1.523 . S
C388 C369 1.368 . S
C388 C382 1.368 . S
C388 C387 1.523 . S
C389 C373 1.429 . S
C389 C385 1.429 . S
C389 C390 1.523 . S
C390 C374 1.368 . S
C390 C386 1.368 . S
C390 C389 1.523 . S
H391 C366 0.950 . S
H392 C368 0.950 . S
H393 C369 0.949 . S
H394 C371 0.950 . S
H395 C373 0.950 . S
C396 C397 1.349 . S
C396 C398 1.327 . S
C396 H421 0.950 . S
C397 C396 1.349 . S
C397 C413 1.349 . S
C398 C396 1.327 . S
C398 C417 1.429 . S
C398 H422 0.950 . S
C399 C416 1.574 . S
C399 C418 1.368 . S
C399 H423 0.949 . S
H400 C404 0.949 . S
C401 C402 1.349 . S
C401 C403 1.327 . S
C401 H424 0.950 . S
C402 C401 1.349 . S
C402 C414 1.349 . S
C403 C401 1.327 . S
C403 C419 1.429 . S
C403 H425 0.950 . S
C404 H400 0.949 . S
C404 C412 1.574 . S
C404 C420 1.368 . S
H405 C413 0.950 . S
H406 C411 0.950 . S
H407 C412 0.949 . S
H408 C414 0.950 . S
H409 C415 0.950 . S
H410 C416 0.949 . S
C411 H406 0.950 . S
C411 C413 1.327 . S
C411 C417 1.429 . S
C412 C404 1.574 . S
C412 H407 0.949 . S
C412 C418 1.368 . S
C413 C397 1.349 . S
C413 H405 0.950 . S
C413 C411 1.327 . S
C414 C402 1.349 . S
C414 H408 0.950 . S
C414 C415 1.327 . S
C415 H409 0.950 . S
C415 C414 1.327 . S
C415 C419 1.429 . S
C416 C399 1.574 . S
C416 H410 0.949 . S
C416 C420 1.368 . S
C417 C398 1.429 . S
C417 C411 1.429 . S
C417 C418 1.523 . S
C418 C399 1.368 . S
C418 C412 1.368 . S
C418 C417 1.523 . S
C419 C403 1.429 . S
C419 C415 1.429 . S
C419 C420 1.523 . S
C420 C404 1.368 . S
C420 C416 1.368 . S
C420 C419 1.523 . S
H421 C396 0.950 . S
H422 C398 0.950 . S
H423 C399 0.949 . S
H424 C401 0.950 . S
H425 C403 0.950 . S
C426 C427 1.349 . S
C426 C428 1.327 . S
C426 H451 0.950 . S
C427 C426 1.349 . S
C427 C443 1.349 . S
C428 C426 1.327 . S
C428 C447 1.429 . S
C428 H452 0.950 . S
C429 C446 1.574 . S
C429 C448 1.368 . S
C429 H453 0.949 . S
H430 C434 0.949 . S
C431 C432 1.349 . S
C431 C433 1.327 . S
C431 H454 0.950 . S
C432 C431 1.349 . S
C432 C444 1.349 . S
C433 C431 1.327 . S
C433 C449 1.429 . S
C433 H455 0.950 . S
C434 H430 0.949 . S
C434 C442 1.574 . S
C434 C450 1.368 . S
H435 C443 0.950 . S
H436 C441 0.950 . S
H437 C442 0.949 . S
H438 C444 0.950 . S
H439 C445 0.950 . S
H440 C446 0.949 . S
C441 H436 0.950 . S
C441 C443 1.327 . S
C441 C447 1.429 . S
C442 C434 1.574 . S
C442 H437 0.949 . S
C442 C448 1.368 . S
C443 C427 1.349 . S
C443 H435 0.950 . S
C443 C441 1.327 . S
C444 C432 1.349 . S
C444 H438 0.950 . S
C444 C445 1.327 . S
C445 H439 0.950 . S
C445 C444 1.327 . S
C445 C449 1.429 . S
C446 C429 1.574 . S
C446 H440 0.949 . S
C446 C450 1.368 . S
C447 C428 1.429 . S
C447 C441 1.429 . S
C447 C448 1.523 . S
C448 C429 1.368 . S
C448 C442 1.368 . S
C448 C447 1.523 . S
C449 C433 1.429 . S
C449 C445 1.429 . S
C449 C450 1.523 . S
C450 C434 1.368 . S
C450 C446 1.368 . S
C450 C449 1.523 . S
H451 C426 0.950 . S
H452 C428 0.950 . S
H453 C429 0.949 . S
H454 C431 0.950 . S
H455 C433 0.950 . S
C456 C457 1.349 . S
C456 C458 1.327 . S
C456 H481 0.950 . S
C457 C456 1.349 . S
C457 C473 1.349 . S
C458 C456 1.327 . S
C458 C477 1.429 . S
C458 H482 0.950 . S
C459 C476 1.574 . S
C459 C478 1.368 . S
C459 H483 0.949 . S
H460 C464 0.949 . S
C461 C462 1.349 . S
C461 C463 1.327 . S
C461 H484 0.950 . S
C462 C461 1.349 . S
C462 C474 1.349 . S
C463 C461 1.327 . S
C463 C479 1.429 . S
C463 H485 0.950 . S
C464 H460 0.949 . S
C464 C472 1.574 . S
C464 C480 1.368 . S
H465 C473 0.950 . S
H466 C471 0.950 . S
H467 C472 0.949 . S
H468 C474 0.950 . S
H469 C475 0.950 . S
H470 C476 0.949 . S
C471 H466 0.950 . S
C471 C473 1.327 . S
C471 C477 1.429 . S
C472 C464 1.574 . S
C472 H467 0.949 . S
C472 C478 1.368 . S
C473 C457 1.349 . S
C473 H465 0.950 . S
C473 C471 1.327 . S
C474 C462 1.349 . S
C474 H468 0.950 . S
C474 C475 1.327 . S
C475 H469 0.950 . S
C475 C474 1.327 . S
C475 C479 1.429 . S
C476 C459 1.574 . S
C476 H470 0.949 . S
C476 C480 1.368 . S
C477 C458 1.429 . S
C477 C471 1.429 . S
C477 C478 1.523 . S
C478 C459 1.368 . S
C478 C472 1.368 . S
C478 C477 1.523 . S
C479 C463 1.429 . S
C479 C475 1.429 . S
C479 C480 1.523 . S
C480 C464 1.368 . S
C480 C476 1.368 . S
C480 C479 1.523 . S
H481 C456 0.950 . S
H482 C458 0.950 . S
H483 C459 0.949 . S
H484 C461 0.950 . S
H485 C463 0.950 . S
C486 C487 1.349 . S
C486 C488 1.327 . S
C486 H511 0.950 . S
C487 C486 1.349 . S
C487 C503 1.349 . S
C488 C486 1.327 . S
C488 C507 1.429 . S
C488 H512 0.950 . S
C489 C506 1.574 . S
C489 C508 1.368 . S
C489 H513 0.949 . S
H490 C494 0.949 . S
C491 C492 1.349 . S
C491 C493 1.327 . S
C491 H514 0.950 . S
C492 C491 1.349 . S
C492 C504 1.349 . S
C493 C491 1.327 . S
C493 C509 1.429 . S
C493 H515 0.950 . S
C494 H490 0.949 . S
C494 C502 1.574 . S
C494 C510 1.368 . S
H495 C503 0.950 . S
H496 C501 0.950 . S
H497 C502 0.949 . S
H498 C504 0.950 . S
H499 C505 0.950 . S
H500 C506 0.949 . S
C501 H496 0.950 . S
C501 C503 1.327 . S
C501 C507 1.429 . S
C502 C494 1.574 . S
C502 H497 0.949 . S
C502 C508 1.368 . S
C503 C487 1.349 . S
C503 H495 0.950 . S
C503 C501 1.327 . S
C504 C492 1.349 . S
C504 H498 0.950 . S
C504 C505 1.327 . S
C505 H499 0.950 . S
C505 C504 1.327 . S
C505 C509 1.429 . S
C506 C489 1.574 . S
C506 H500 0.949 . S
C506 C510 1.368 . S
C507 C488 1.429 . S
C507 C501 1.429 . S
C507 C508 1.523 . S
C508 C489 1.368 . S
C508 C502 1.368 . S
C508 C507 1.523 . S
C509 C493 1.429 . S
C509 C505 1.429 . S
C509 C510 1.523 . S
C510 C494 1.368 . S
C510 C506 1.368 . S
C510 C509 1.523 . S
H511 C486 0.950 . S
H512 C488 0.950 . S
H513 C489 0.949 . S
H514 C491 0.950 . S
H515 C493 0.950 . S
C516 C517 1.349 . S
C516 C518 1.327 . S
C516 H541 0.950 . S
C517 C516 1.349 . S
C517 C533 1.349 . S
C518 C516 1.327 . S
C518 C537 1.429 . S
C518 H542 0.950 . S
C519 C536 1.574 . S
C519 C538 1.368 . S
C519 H543 0.949 . S
H520 C524 0.949 . S
C521 C522 1.349 . S
C521 C523 1.327 . S
C521 H544 0.950 . S
C522 C521 1.349 . S
C522 C534 1.349 . S
C523 C521 1.327 . S
C523 C539 1.429 . S
C523 H545 0.950 . S
C524 H520 0.949 . S
C524 C532 1.574 . S
C524 C540 1.368 . S
H525 C533 0.950 . S
H526 C531 0.950 . S
H527 C532 0.949 . S
H528 C534 0.950 . S
H529 C535 0.950 . S
H530 C536 0.949 . S
C531 H526 0.950 . S
C531 C533 1.327 . S
C531 C537 1.429 . S
C532 C524 1.574 . S
C532 H527 0.949 . S
C532 C538 1.368 . S
C533 C517 1.349 . S
C533 H525 0.950 . S
C533 C531 1.327 . S
C534 C522 1.349 . S
C534 H528 0.950 . S
C534 C535 1.327 . S
C535 H529 0.950 . S
C535 C534 1.327 . S
C535 C539 1.429 . S
C536 C519 1.574 . S
C536 H530 0.949 . S
C536 C540 1.368 . S
C537 C518 1.429 . S
C537 C531 1.429 . S
C537 C538 1.523 . S
C538 C519 1.368 . S
C538 C532 1.368 . S
C538 C537 1.523 . S
C539 C523 1.429 . S
C539 C535 1.429 . S
C539 C540 1.523 . S
C540 C524 1.368 . S
C540 C536 1.368 . S
C540 C539 1.523 . S
H541 C516 0.950 . S
H542 C518 0.950 . S
H543 C519 0.949 . S
H544 C521 0.950 . S
H545 C523 0.950 . S
C546 C547 1.349 . S
C546 C548 1.327 . S
C546 H571 0.950 . S
C547 C546 1.349 . S
C547 C563 1.349 . S
C548 C546 1.327 . S
C548 C567 1.429 . S
C548 H572 0.950 . S
C549 C566 1.574 . S
C549 C568 1.368 . S
C549 H573 0.949 . S
H550 C554 0.949 . S
C551 C552 1.349 . S
C551 C553 1.327 . S
C551 H574 0.950 1_556 S
C552 C551 1.349 . S
C552 C564 1.349 . S
C553 C551 1.327 . S
C553 C569 1.429 . S
C553 H575 0.950 . S
C554 H550 0.949 . S
C554 C562 1.574 . S
C554 C570 1.368 . S
H555 C563 0.950 . S
H556 C561 0.950 . S
H557 C562 0.949 . S
H558 C564 0.950 . S
H559 C565 0.950 . S
H560 C566 0.949 . S
C561 H556 0.950 . S
C561 C563 1.327 . S
C561 C567 1.429 . S
C562 C554 1.574 . S
C562 H557 0.949 . S
C562 C568 1.368 . S
C563 C547 1.349 . S
C563 H555 0.950 . S
C563 C561 1.327 . S
C564 C552 1.349 . S
C564 H558 0.950 . S
C564 C565 1.327 . S
C565 H559 0.950 . S
C565 C564 1.327 . S
C565 C569 1.429 . S
C566 C549 1.574 . S
C566 H560 0.949 . S
C566 C570 1.368 . S
C567 C548 1.429 . S
C567 C561 1.429 . S
C567 C568 1.523 . S
C568 C549 1.368 . S
C568 C562 1.368 . S
C568 C567 1.523 . S
C569 C553 1.429 . S
C569 C565 1.429 . S
C569 C570 1.523 . S
C570 C554 1.368 . S
C570 C566 1.368 . S
C570 C569 1.523 . S
H571 C546 0.950 . S
H572 C548 0.950 . S
H573 C549 0.949 . S
H574 C551 0.950 1_554 S
H575 C553 0.950 . S
C576 C577 1.349 . S
C576 C578 1.327 . S
C576 H601 0.950 . S
C577 C576 1.349 . S
C577 C593 1.349 . S
C578 C576 1.327 . S
C578 C597 1.429 . S
C578 H602 0.950 . S
C579 C596 1.574 . S
C579 C598 1.368 . S
C579 H603 0.949 . S
H580 C584 0.949 . S
C581 C582 1.349 . S
C581 C583 1.327 . S
C581 H604 0.950 1_545 S
C582 C581 1.349 . S
C582 C594 1.349 . S
C583 C581 1.327 . S
C583 C599 1.429 . S
C583 H605 0.950 . S
C584 H580 0.949 . S
C584 C592 1.574 . S
C584 C600 1.368 . S
H585 C593 0.950 . S
H586 C591 0.950 . S
H587 C592 0.949 . S
H588 C594 0.950 . S
H589 C595 0.950 . S
H590 C596 0.949 . S
C591 H586 0.950 . S
C591 C593 1.327 . S
C591 C597 1.429 . S
C592 C584 1.574 . S
C592 H587 0.949 . S
C592 C598 1.368 . S
C593 C577 1.349 . S
C593 H585 0.950 . S
C593 C591 1.327 . S
C594 C582 1.349 . S
C594 H588 0.950 . S
C594 C595 1.327 . S
C595 H589 0.950 . S
C595 C594 1.327 . S
C595 C599 1.429 . S
C596 C579 1.574 . S
C596 H590 0.949 . S
C596 C600 1.368 . S
C597 C578 1.429 . S
C597 C591 1.429 . S
C597 C598 1.523 . S
C598 C579 1.368 . S
C598 C592 1.368 . S
C598 C597 1.523 . S
C599 C583 1.429 . S
C599 C595 1.429 . S
C599 C600 1.523 . S
C600 C584 1.368 . S
C600 C596 1.368 . S
C600 C599 1.523 . S
H601 C576 0.950 . S
H602 C578 0.950 . S
H603 C579 0.949 . S
H604 C581 0.950 1_565 S
H605 C583 0.950 . S
C606 C607 1.349 . S
C606 C608 1.327 . S
C606 H631 0.950 . S
C607 C606 1.349 . S
C607 C623 1.349 . S
C608 C606 1.327 . S
C608 C627 1.429 . S
C608 H632 0.950 . S
C609 C626 1.574 . S
C609 C628 1.368 . S
C609 H633 0.949 . S
H610 C614 0.949 . S
C611 C612 1.349 . S
C611 C613 1.327 . S
C611 H634 0.950 . S
C612 C611 1.349 . S
C612 C624 1.349 . S
C613 C611 1.327 . S
C613 C629 1.429 . S
C613 H635 0.950 . S
C614 H610 0.949 . S
C614 C622 1.574 . S
C614 C630 1.368 . S
H615 C623 0.916 1_565 S
H616 C621 0.950 . S
H617 C622 0.949 . S
H618 C624 0.950 . S
H619 C625 0.950 . S
H620 C626 0.949 . S
C621 H616 0.950 . S
C621 C623 1.327 . S
C621 C627 1.429 . S
C622 C614 1.574 . S
C622 H617 0.949 . S
C622 C628 1.368 . S
C623 C607 1.349 . S
C623 H615 0.916 1_545 S
C623 C621 1.327 . S
C624 C612 1.349 . S
C624 H618 0.950 . S
C624 C625 1.327 . S
C625 H619 0.950 . S
C625 C624 1.327 . S
C625 C629 1.429 . S
C626 C609 1.574 . S
C626 H620 0.949 . S
C626 C630 1.368 . S
C627 C608 1.429 . S
C627 C621 1.429 . S
C627 C628 1.523 . S
C628 C609 1.368 . S
C628 C622 1.368 . S
C628 C627 1.523 . S
C629 C613 1.429 . S
C629 C625 1.429 . S
C629 C630 1.523 . S
C630 C614 1.368 . S
C630 C626 1.368 . S
C630 C629 1.523 . S
H631 C606 0.950 . S
H632 C608 0.950 . S
H633 C609 0.949 . S
H634 C611 0.950 . S
H635 C613 0.950 . S
C636 C637 1.349 . S
C636 C638 1.327 . S
C636 H661 0.950 . S
C637 C636 1.349 . S
C637 C653 1.349 . S
C638 C636 1.327 . S
C638 C657 1.429 . S
C638 H662 0.950 . S
C639 C656 1.574 . S
C639 C658 1.368 . S
C639 H663 0.949 . S
H640 C644 0.949 . S
C641 C642 1.349 . S
C641 C643 1.327 . S
C641 H664 0.950 . S
C642 C641 1.349 . S
C642 C654 1.349 . S
C643 C641 1.327 . S
C643 C659 1.429 . S
C643 H665 0.950 . S
C644 H640 0.949 . S
C644 C652 1.574 . S
C644 C660 1.368 . S
H645 C653 0.950 1_545 S
H646 C651 0.950 . S
H647 C652 0.949 . S
H648 C654 0.950 . S
H649 C655 0.950 . S
H650 C656 0.949 . S
C651 H646 0.950 . S
C651 C653 1.327 . S
C651 C657 1.429 . S
C652 C644 1.574 . S
C652 H647 0.949 . S
C652 C658 1.368 . S
C653 C637 1.349 . S
C653 H645 0.950 1_565 S
C653 C651 1.327 . S
C654 C642 1.349 . S
C654 H648 0.950 . S
C654 C655 1.327 . S
C655 H649 0.950 . S
C655 C654 1.327 . S
C655 C659 1.429 . S
C656 C639 1.574 . S
C656 H650 0.949 . S
C656 C660 1.368 . S
C657 C638 1.429 . S
C657 C651 1.429 . S
C657 C658 1.523 . S
C658 C639 1.368 . S
C658 C652 1.368 . S
C658 C657 1.523 . S
C659 C643 1.429 . S
C659 C655 1.429 . S
C659 C660 1.523 . S
C660 C644 1.368 . S
C660 C656 1.368 . S
C660 C659 1.523 . S
H661 C636 0.950 . S
H662 C638 0.950 . S
H663 C639 0.949 . S
H664 C641 0.950 . S
H665 C643 0.950 . S
C666 C667 1.349 . S
C666 C668 1.327 . S
C666 H691 0.950 . S
C667 C666 1.349 . S
C667 C683 1.349 . S
C668 C666 1.327 . S
C668 C687 1.429 . S
C668 H692 0.950 . S
C669 C686 1.574 . S
C669 C688 1.368 . S
C669 H693 0.949 . S
H670 C674 0.949 . S
C671 C672 1.349 . S
C671 C673 1.327 . S
C671 H694 0.950 1_565 S
C672 C671 1.349 . S
C672 C684 1.349 . S
C673 C671 1.327 . S
C673 C689 1.429 . S
C673 H695 0.950 . S
C674 H670 0.949 . S
C674 C682 1.574 . S
C674 C690 1.368 . S
H675 C683 0.950 . S
H676 C681 0.950 . S
H677 C682 0.949 . S
H678 C684 0.950 . S
H679 C685 0.950 . S
H680 C686 0.949 . S
C681 H676 0.950 . S
C681 C683 1.327 . S
C681 C687 1.429 . S
C682 C674 1.574 . S
C682 H677 0.949 . S
C682 C688 1.368 . S
C683 C667 1.349 . S
C683 H675 0.950 . S
C683 C681 1.327 . S
C684 C672 1.349 . S
C684 H678 0.950 . S
C684 C685 1.327 . S
C685 H679 0.950 . S
C685 C684 1.327 . S
C685 C689 1.429 . S
C686 C669 1.574 . S
C686 H680 0.949 . S
C686 C690 1.368 . S
C687 C668 1.429 . S
C687 C681 1.429 . S
C687 C688 1.523 . S
C688 C669 1.368 . S
C688 C682 1.368 . S
C688 C687 1.523 . S
C689 C673 1.429 . S
C689 C685 1.429 . S
C689 C690 1.523 . S
C690 C674 1.368 . S
C690 C686 1.368 . S
C690 C689 1.523 . S
H691 C666 0.950 . S
H692 C668 0.950 . S
H693 C669 0.949 . S
H694 C671 0.950 1_545 S
H695 C673 0.950 . S
C696 C697 1.349 . S
C696 C698 1.327 . S
C696 H721 0.950 . S
C697 C696 1.349 . S
C697 C713 1.349 . S
C698 C696 1.327 . S
C698 C717 1.429 . S
C698 H722 0.950 . S
C699 C716 1.574 . S
C699 C718 1.368 . S
C699 H723 0.949 . S
H700 C704 0.949 . S
C701 C702 1.349 . S
C701 C703 1.327 . S
C701 H724 0.950 . S
C702 C701 1.349 . S
C702 C714 1.349 . S
C703 C701 1.327 . S
C703 C719 1.429 . S
C703 H725 0.950 . S
C704 H700 0.949 . S
C704 C712 1.574 . S
C704 C720 1.368 . S
H705 C713 0.983 . S
H706 C711 0.950 . S
H707 C712 0.949 . S
H708 C714 0.950 . S
H709 C715 0.950 . S
H710 C716 0.949 . S
C711 H706 0.950 . S
C711 C713 1.327 . S
C711 C717 1.429 . S
C712 C704 1.574 . S
C712 H707 0.949 . S
C712 C718 1.368 . S
C713 C697 1.349 . S
C713 H705 0.983 . S
C713 C711 1.327 . S
C714 C702 1.349 . S
C714 H708 0.950 . S
C714 C715 1.327 . S
C715 H709 0.950 . S
C715 C714 1.327 . S
C715 C719 1.429 . S
C716 C699 1.574 . S
C716 H710 0.949 . S
C716 C720 1.368 . S
C717 C698 1.429 . S
C717 C711 1.429 . S
C717 C718 1.523 . S
C718 C699 1.368 . S
C718 C712 1.368 . S
C718 C717 1.523 . S
C719 C703 1.429 . S
C719 C715 1.429 . S
C719 C720 1.523 . S
C720 C704 1.368 . S
C720 C716 1.368 . S
C720 C719 1.523 . S
H721 C696 0.950 . S
H722 C698 0.950 . S
H723 C699 0.949 . S
H724 C701 0.950 . S
H725 C703 0.950 . S
C726 C727 1.349 . S
C726 C728 1.327 . S
C726 H751 0.950 . S
C727 C726 1.349 . S
C727 C743 1.349 . S
C728 C726 1.327 . S
C728 C747 1.429 . S
C728 H752 0.950 . S
C729 C746 1.574 . S
C729 C748 1.368 . S
C729 H753 0.949 . S
H730 C734 0.949 . S
C731 C732 1.349 . S
C731 C733 1.327 . S
C731 H754 0.950 . S
C732 C731 1.349 . S
C732 C744 1.349 . S
C733 C731 1.327 . S
C733 C749 1.429 . S
C733 H755 0.950 . S
C734 H730 0.949 . S
C734 C742 1.574 . S
C734 C750 1.368 . S
H735 C743 0.950 . S
H736 C741 0.950 . S
H737 C742 0.949 . S
H738 C744 0.950 . S
H739 C745 0.950 . S
H740 C746 0.949 . S
C741 H736 0.950 . S
C741 C743 1.327 . S
C741 C747 1.429 . S
C742 C734 1.574 . S
C742 H737 0.949 . S
C742 C748 1.368 . S
C743 C727 1.349 . S
C743 H735 0.950 . S
C743 C741 1.327 . S
C744 C732 1.349 . S
C744 H738 0.950 . S
C744 C745 1.327 . S
C745 H739 0.950 . S
C745 C744 1.327 . S
C745 C749 1.429 . S
C746 C729 1.574 . S
C746 H740 0.949 . S
C746 C750 1.368 . S
C747 C728 1.429 . S
C747 C741 1.429 . S
C747 C748 1.523 . S
C748 C729 1.368 . S
C748 C742 1.368 . S
C748 C747 1.523 . S
C749 C733 1.429 . S
C749 C745 1.429 . S
C749 C750 1.523 . S
C750 C734 1.368 . S
C750 C746 1.368 . S
C750 C749 1.523 . S
H751 C726 0.950 . S
H752 C728 0.950 . S
H753 C729 0.949 . S
H754 C731 0.950 . S
H755 C733 0.950 . S
C756 C757 1.349 . S
C756 C758 1.327 . S
C756 H781 0.950 . S
C757 C756 1.349 . S
C757 C773 1.349 . S
C758 C756 1.327 . S
C758 C777 1.429 . S
C758 H782 0.950 . S
C759 C776 1.574 . S
C759 C778 1.368 . S
C759 H783 0.949 . S
H760 C764 0.949 . S
C761 C762 1.349 . S
C761 C763 1.327 . S
C761 H784 0.950 . S
C762 C761 1.349 . S
C762 C774 1.349 . S
C763 C761 1.327 . S
C763 C779 1.429 . S
C763 H785 0.950 . S
C764 H760 0.949 . S
C764 C772 1.574 . S
C764 C780 1.368 . S
H765 C773 0.950 . S
H766 C771 0.950 . S
H767 C772 0.949 . S
H768 C774 0.950 . S
H769 C775 0.950 . S
H770 C776 0.949 . S
C771 H766 0.950 . S
C771 C773 1.327 . S
C771 C777 1.429 . S
C772 C764 1.574 . S
C772 H767 0.949 . S
C772 C778 1.368 . S
C773 C757 1.349 . S
C773 H765 0.950 . S
C773 C771 1.327 . S
C774 C762 1.349 . S
C774 H768 0.950 . S
C774 C775 1.327 . S
C775 H769 0.950 . S
C775 C774 1.327 . S
C775 C779 1.429 . S
C776 C759 1.574 . S
C776 H770 0.949 . S
C776 C780 1.368 . S
C777 C758 1.429 . S
C777 C771 1.429 . S
C777 C778 1.523 . S
C778 C759 1.368 . S
C778 C772 1.368 . S
C778 C777 1.523 . S
C779 C763 1.429 . S
C779 C775 1.429 . S
C779 C780 1.523 . S
C780 C764 1.368 . S
C780 C776 1.368 . S
C780 C779 1.523 . S
H781 C756 0.950 . S
H782 C758 0.950 . S
H783 C759 0.949 . S
H784 C761 0.950 . S
H785 C763 0.950 . S
C786 C787 1.349 . S
C786 C788 1.327 . S
C786 H811 0.950 . S
C787 C786 1.349 . S
C787 C803 1.349 . S
C788 C786 1.327 . S
C788 C807 1.429 . S
C788 H812 0.950 . S
C789 C806 1.574 . S
C789 C808 1.368 . S
C789 H813 0.949 . S
H790 C794 0.949 . S
C791 C792 1.349 . S
C791 C793 1.327 . S
C791 H814 0.950 . S
C792 C791 1.349 . S
C792 C804 1.349 . S
C793 C791 1.327 . S
C793 C809 1.429 . S
C793 H815 0.950 . S
C794 H790 0.949 . S
C794 C802 1.574 . S
C794 C810 1.368 . S
H795 C803 0.950 . S
H796 C801 0.950 . S
H797 C802 0.949 . S
H798 C804 0.950 . S
H799 C805 0.950 . S
H800 C806 0.949 . S
C801 H796 0.950 . S
C801 C803 1.327 . S
C801 C807 1.429 . S
C802 C794 1.574 . S
C802 H797 0.949 . S
C802 C808 1.368 . S
C803 C787 1.349 . S
C803 H795 0.950 . S
C803 C801 1.327 . S
C804 C792 1.349 . S
C804 H798 0.950 . S
C804 C805 1.327 . S
C805 H799 0.950 . S
C805 C804 1.327 . S
C805 C809 1.429 . S
C806 C789 1.574 . S
C806 H800 0.949 . S
C806 C810 1.368 . S
C807 C788 1.429 . S
C807 C801 1.429 . S
C807 C808 1.523 . S
C808 C789 1.368 . S
C808 C802 1.368 . S
C808 C807 1.523 . S
C809 C793 1.429 . S
C809 C805 1.429 . S
C809 C810 1.523 . S
C810 C794 1.368 . S
C810 C806 1.368 . S
C810 C809 1.523 . S
H811 C786 0.950 . S
H812 C788 0.950 . S
H813 C789 0.949 . S
H814 C791 0.950 . S
H815 C793 0.950 . S
C816 C817 1.349 . S
C816 C818 1.327 . S
C816 H841 0.950 . S
C817 C816 1.349 . S
C817 C833 1.349 . S
C818 C816 1.327 . S
C818 C837 1.429 . S
C818 H842 0.950 . S
C819 C836 1.574 . S
C819 C838 1.368 . S
C819 H843 0.949 . S
H820 C824 0.949 . S
C821 C822 1.349 . S
C821 C823 1.327 . S
C821 H844 0.950 . S
C822 C821 1.349 . S
C822 C834 1.349 . S
C823 C821 1.327 . S
C823 C839 1.429 . S
C823 H845 0.950 . S
C824 H820 0.949 . S
C824 C832 1.574 . S
C824 C840 1.368 . S
H825 C833 0.950 . S
H826 C831 0.950 . S
H827 C832 0.949 . S
H828 C834 0.950 . S
H829 C835 0.950 . S
H830 C836 0.949 . S
C831 H826 0.950 . S
C831 C833 1.327 . S
C831 C837 1.429 . S
C832 C824 1.574 . S
C832 H827 0.949 . S
C832 C838 1.368 . S
C833 C817 1.349 . S
C833 H825 0.950 . S
C833 C831 1.327 . S
C834 C822 1.349 . S
C834 H828 0.950 . S
C834 C835 1.327 . S
C835 H829 0.950 . S
C835 C834 1.327 . S
C835 C839 1.429 . S
C836 C819 1.574 . S
C836 H830 0.949 . S
C836 C840 1.368 . S
C837 C818 1.429 . S
C837 C831 1.429 . S
C837 C838 1.523 . S
C838 C819 1.368 . S
C838 C832 1.368 . S
C838 C837 1.523 . S
C839 C823 1.429 . S
C839 C835 1.429 . S
C839 C840 1.523 . S
C840 C824 1.368 . S
C840 C836 1.368 . S
C840 C839 1.523 . S
H841 C816 0.950 . S
H842 C818 0.950 . S
H843 C819 0.949 . S
H844 C821 0.950 . S
H845 C823 0.950 . S
C846 C847 1.349 . S
C846 C848 1.327 . S
C846 H871 0.950 . S
C847 C846 1.349 . S
C847 C863 1.349 . S
C848 C846 1.327 . S
C848 C867 1.429 . S
C848 H872 0.950 . S
C849 C866 1.574 . S
C849 C868 1.368 . S
C849 H873 0.949 . S
H850 C854 0.949 . S
C851 C852 1.349 . S
C851 C853 1.327 . S
C851 H874 0.950 . S
C852 C851 1.349 . S
C852 C864 1.349 . S
C853 C851 1.327 . S
C853 C869 1.429 . S
C853 H875 0.950 . S
C854 H850 0.949 . S
C854 C862 1.574 . S
C854 C870 1.368 . S
H855 C863 0.950 . S
H856 C861 0.950 . S
H857 C862 0.949 . S
H858 C864 0.950 . S
H859 C865 0.950 . S
H860 C866 0.949 . S
C861 H856 0.950 . S
C861 C863 1.327 . S
C861 C867 1.429 . S
C862 C854 1.574 . S
C862 H857 0.949 . S
C862 C868 1.368 . S
C863 C847 1.349 . S
C863 H855 0.950 . S
C863 C861 1.327 . S
C864 C852 1.349 . S
C864 H858 0.950 . S
C864 C865 1.327 . S
C865 H859 0.950 . S
C865 C864 1.327 . S
C865 C869 1.429 . S
C866 C849 1.574 . S
C866 H860 0.949 . S
C866 C870 1.368 . S
C867 C848 1.429 . S
C867 C861 1.429 . S
C867 C868 1.523 . S
C868 C849 1.368 . S
C868 C862 1.368 . S
C868 C867 1.523 . S
C869 C853 1.429 . S
C869 C865 1.429 . S
C869 C870 1.523 . S
C870 C854 1.368 . S
C870 C866 1.368 . S
C870 C869 1.523 . S
H871 C846 0.950 . S
H872 C848 0.950 . S
H873 C849 0.949 . S
H874 C851 0.950 . S
H875 C853 0.950 . S
C876 C877 1.349 . S
C876 C878 1.327 . S
C876 H901 0.950 . S
C877 C876 1.349 . S
C877 C893 1.354 . S
C878 C876 1.327 . S
C878 C897 1.429 . S
C878 H902 0.950 . S
C879 C896 1.574 . S
C879 C898 1.368 . S
C879 H903 0.949 . S
H880 C884 0.949 . S
C881 C882 1.349 . S
C881 C883 1.327 . S
C881 H904 0.950 . S
C882 C881 1.349 . S
C882 C894 1.349 . S
C883 C881 1.327 . S
C883 C899 1.429 . S
C883 H905 0.950 . S
C884 H880 0.949 . S
C884 C892 1.574 . S
C884 C900 1.368 . S
H885 C893 0.942 1_554 S
H886 C891 0.950 1_554 S
H887 C892 0.949 . S
H888 C894 0.950 . S
H889 C895 0.950 . S
H890 C896 0.949 . S
C891 H886 0.950 1_556 S
C891 C893 1.330 . S
C891 C897 1.429 . S
C892 C884 1.574 . S
C892 H887 0.949 . S
C892 C898 1.368 . S
C893 C877 1.354 . S
C893 H885 0.942 1_556 S
C893 C891 1.330 . S
C894 C882 1.349 . S
C894 H888 0.950 . S
C894 C895 1.327 . S
C895 H889 0.950 . S
C895 C894 1.327 . S
C895 C899 1.429 . S
C896 C879 1.574 . S
C896 H890 0.949 . S
C896 C900 1.368 . S
C897 C878 1.429 . S
C897 C891 1.429 . S
C897 C898 1.523 . S
C898 C879 1.368 . S
C898 C892 1.368 . S
C898 C897 1.523 . S
C899 C883 1.429 . S
C899 C895 1.429 . S
C899 C900 1.523 . S
C900 C884 1.368 . S
C900 C896 1.368 . S
C900 C899 1.523 . S
H901 C876 0.950 . S
H902 C878 0.950 . S
H903 C879 0.949 . S
H904 C881 0.950 . S
H905 C883 0.950 . S
C906 C907 1.349 . S
C906 C908 1.327 . S
C906 H931 0.950 . S
C907 C906 1.349 . S
C907 C923 1.349 . S
C908 C906 1.327 . S
C908 C927 1.429 . S
C908 H932 0.950 . S
C909 C926 1.574 . S
C909 C928 1.368 . S
C909 H933 0.949 . S
H910 C914 0.949 . S
C911 C912 1.349 . S
C911 C913 1.327 . S
C911 H934 0.950 . S
C912 C911 1.349 . S
C912 C924 1.349 . S
C913 C911 1.327 . S
C913 C929 1.429 . S
C913 H935 0.950 . S
C914 H910 0.949 . S
C914 C922 1.574 . S
C914 C930 1.368 . S
H915 C923 0.950 . S
H916 C921 0.950 . S
H917 C922 0.949 . S
H918 C924 0.950 . S
H919 C925 0.950 . S
H920 C926 0.949 . S
C921 H916 0.950 . S
C921 C923 1.327 . S
C921 C927 1.429 . S
C922 C914 1.574 . S
C922 H917 0.949 . S
C922 C928 1.368 . S
C923 C907 1.349 . S
C923 H915 0.950 . S
C923 C921 1.327 . S
C924 C912 1.349 . S
C924 H918 0.950 . S
C924 C925 1.327 . S
C925 H919 0.950 . S
C925 C924 1.327 . S
C925 C929 1.429 . S
C926 C909 1.574 . S
C926 H920 0.949 . S
C926 C930 1.368 . S
C927 C908 1.429 . S
C927 C921 1.429 . S
C927 C928 1.523 . S
C928 C909 1.368 . S
C928 C922 1.368 . S
C928 C927 1.523 . S
C929 C913 1.429 . S
C929 C925 1.429 . S
C929 C930 1.523 . S
C930 C914 1.368 . S
C930 C926 1.368 . S
C930 C929 1.523 . S
H931 C906 0.950 . S
H932 C908 0.950 . S
H933 C909 0.949 . S
H934 C911 0.950 . S
H935 C913 0.950 . S
C936 C937 1.349 . S
C936 C938 1.327 . S
C936 H961 0.950 . S
C937 C936 1.349 . S
C937 C953 1.349 . S
C938 C936 1.327 . S
C938 C957 1.429 . S
C938 H962 0.950 . S
C939 C956 1.574 . S
C939 C958 1.368 . S
C939 H963 0.949 . S
H940 C944 0.949 . S
C941 C942 1.349 . S
C941 C943 1.327 . S
C941 H964 0.950 . S
C942 C941 1.349 . S
C942 C954 1.349 . S
C943 C941 1.327 . S
C943 C959 1.429 . S
C943 H965 0.950 . S
C944 H940 0.949 . S
C944 C952 1.574 . S
C944 C960 1.368 . S
H945 C953 0.950 . S
H946 C951 0.950 . S
H947 C952 0.949 . S
H948 C954 0.950 . S
H949 C955 0.950 . S
H950 C956 0.949 . S
C951 H946 0.950 . S
C951 C953 1.327 . S
C951 C957 1.429 . S
C952 C944 1.574 . S
C952 H947 0.949 . S
C952 C958 1.368 . S
C953 C937 1.349 . S
C953 H945 0.950 . S
C953 C951 1.327 . S
C954 C942 1.349 . S
C954 H948 0.950 . S
C954 C955 1.327 . S
C955 H949 0.950 . S
C955 C954 1.327 . S
C955 C959 1.429 . S
C956 C939 1.574 . S
C956 H950 0.949 . S
C956 C960 1.368 . S
C957 C938 1.429 . S
C957 C951 1.429 . S
C957 C958 1.523 . S
C958 C939 1.368 . S
C958 C952 1.368 . S
C958 C957 1.523 . S
C959 C943 1.429 . S
C959 C955 1.429 . S
C959 C960 1.523 . S
C960 C944 1.368 . S
C960 C956 1.368 . S
C960 C959 1.523 . S
H961 C936 0.950 . S
H962 C938 0.950 . S
H963 C939 0.949 . S
H964 C941 0.950 . S
H965 C943 0.950 . S
C966 C967 1.349 . S
C966 C968 1.327 . S
C966 H991 0.950 . S
C967 C966 1.349 . S
C967 C983 1.349 . S
C968 C966 1.327 . S
C968 C987 1.429 . S
C968 H992 0.950 . S
C969 C986 1.574 . S
C969 C988 1.368 . S
C969 H993 0.949 . S
H970 C974 0.949 . S
C971 C972 1.349 . S
C971 C973 1.327 . S
C971 H994 0.950 . S
C972 C971 1.349 . S
C972 C984 1.349 . S
C973 C971 1.327 . S
C973 C989 1.429 . S
C973 H995 0.950 . S
C974 H970 0.949 . S
C974 C982 1.574 . S
C974 C990 1.368 . S
H975 C983 0.950 . S
H976 C981 0.950 . S
H977 C982 0.949 . S
H978 C984 0.950 . S
H979 C985 0.950 . S
H980 C986 0.949 . S
C981 H976 0.950 . S
C981 C983 1.327 . S
C981 C987 1.429 . S
C982 C974 1.574 . S
C982 H977 0.949 . S
C982 C988 1.368 . S
C983 C967 1.349 . S
C983 H975 0.950 . S
C983 C981 1.327 . S
C984 C972 1.349 . S
C984 H978 0.950 . S
C984 C985 1.327 . S
C985 H979 0.950 . S
C985 C984 1.327 . S
C985 C989 1.429 . S
C986 C969 1.574 . S
C986 H980 0.949 . S
C986 C990 1.368 . S
C987 C968 1.429 . S
C987 C981 1.429 . S
C987 C988 1.523 . S
C988 C969 1.368 . S
C988 C982 1.368 . S
C988 C987 1.523 . S
C989 C973 1.429 . S
C989 C985 1.429 . S
C989 C990 1.523 . S
C990 C974 1.368 . S
C990 C986 1.368 . S
C990 C989 1.523 . S
H991 C966 0.950 . S
H992 C968 0.950 . S
H993 C969 0.949 . S
H994 C971 0.950 . S
H995 C973 0.950 . S
C996 C997 1.349 . S
C996 C998 1.327 . S
C996 H1021 0.950 . S
C997 C996 1.349 . S
C997 C1013 1.349 . S
C998 C996 1.327 . S
C998 C1017 1.429 . S
C998 H1022 0.950 . S
C999 C1016 1.574 . S
C999 C1018 1.368 . S
C999 H1023 0.949 . S
H1000 C1004 0.949 . S
C1001 C1002 1.349 . S
C1001 C1003 1.327 . S
C1001 H1024 0.950 . S
C1002 C1001 1.349 . S
C1002 C1014 1.349 . S
C1003 C1001 1.327 . S
C1003 C1019 1.429 . S
C1003 H1025 0.950 . S
C1004 H1000 0.949 . S
C1004 C1012 1.574 . S
C1004 C1020 1.368 . S
H1005 C1013 0.950 . S
H1006 C1011 0.950 . S
H1007 C1012 0.949 . S
H1008 C1014 0.950 . S
H1009 C1015 0.950 . S
H1010 C1016 0.949 . S
C1011 H1006 0.950 . S
C1011 C1013 1.327 . S
C1011 C1017 1.429 . S
C1012 C1004 1.574 . S
C1012 H1007 0.949 . S
C1012 C1018 1.368 . S
C1013 C997 1.349 . S
C1013 H1005 0.950 . S
C1013 C1011 1.327 . S
C1014 C1002 1.349 . S
C1014 H1008 0.950 . S
C1014 C1015 1.327 . S
C1015 H1009 0.950 . S
C1015 C1014 1.327 . S
C1015 C1019 1.429 . S
C1016 C999 1.574 . S
C1016 H1010 0.949 . S
C1016 C1020 1.368 . S
C1017 C998 1.429 . S
C1017 C1011 1.429 . S
C1017 C1018 1.523 . S
C1018 C999 1.368 . S
C1018 C1012 1.368 . S
C1018 C1017 1.523 . S
C1019 C1003 1.429 . S
C1019 C1015 1.429 . S
C1019 C1020 1.523 . S
C1020 C1004 1.368 . S
C1020 C1016 1.368 . S
C1020 C1019 1.523 . S
H1021 C996 0.950 . S
H1022 C998 0.950 . S
H1023 C999 0.949 . S
H1024 C1001 0.950 . S
H1025 C1003 0.950 . S
C1026 C1027 1.349 . S
C1026 C1028 1.327 . S
C1026 H1051 0.950 . S
C1027 C1026 1.349 . S
C1027 C1043 1.349 . S
C1028 C1026 1.327 . S
C1028 C1047 1.429 . S
C1028 H1052 0.950 . S
C1029 C1046 1.574 . S
C1029 C1048 1.368 . S
C1029 H1053 0.949 . S
H1030 C1034 0.949 . S
C1031 C1032 1.349 . S
C1031 C1033 1.327 . S
C1031 H1054 0.950 . S
C1032 C1031 1.349 . S
C1032 C1044 1.349 . S
C1033 C1031 1.327 . S
C1033 C1049 1.429 . S
C1033 H1055 0.950 . S
C1034 H1030 0.949 . S
C1034 C1042 1.574 . S
C1034 C1050 1.368 . S
H1035 C1043 0.950 . S
H1036 C1041 0.950 . S
H1037 C1042 0.949 . S
H1038 C1044 0.950 1_545 S
H1039 C1045 0.950 1_545 S
H1040 C1046 0.949 . S
C1041 H1036 0.950 . S
C1041 C1043 1.327 . S
C1041 C1047 1.429 . S
C1042 C1034 1.574 . S
C1042 H1037 0.949 . S
C1042 C1048 1.368 . S
C1043 C1027 1.349 . S
C1043 H1035 0.950 . S
C1043 C1041 1.327 . S
C1044 C1032 1.349 . S
C1044 H1038 0.950 1_565 S
C1044 C1045 1.327 . S
C1045 H1039 0.950 1_565 S
C1045 C1044 1.327 . S
C1045 C1049 1.429 . S
C1046 C1029 1.574 . S
C1046 H1040 0.949 . S
C1046 C1050 1.368 . S
C1047 C1028 1.429 . S
C1047 C1041 1.429 . S
C1047 C1048 1.523 . S
C1048 C1029 1.368 . S
C1048 C1042 1.368 . S
C1048 C1047 1.523 . S
C1049 C1033 1.429 . S
C1049 C1045 1.429 . S
C1049 C1050 1.523 . S
C1050 C1034 1.368 . S
C1050 C1046 1.368 . S
C1050 C1049 1.523 . S
H1051 C1026 0.950 . S
H1052 C1028 0.950 . S
H1053 C1029 0.949 . S
H1054 C1031 0.950 . S
H1055 C1033 0.950 . S
C1056 C1057 1.349 . S
C1056 C1058 1.327 . S
C1056 H1081 0.950 1_565 S
C1057 C1056 1.349 . S
C1057 C1073 1.349 . S
C1058 C1056 1.327 . S
C1058 C1077 1.429 . S
C1058 H1082 0.950 . S
C1059 C1076 1.574 . S
C1059 C1078 1.368 . S
C1059 H1083 0.949 . S
H1060 C1064 0.949 . S
C1061 C1062 1.349 . S
C1061 C1063 1.327 . S
C1061 H1084 0.950 . S
C1062 C1061 1.349 . S
C1062 C1074 1.349 . S
C1063 C1061 1.327 . S
C1063 C1079 1.429 . S
C1063 H1085 0.950 . S
C1064 H1060 0.949 . S
C1064 C1072 1.574 . S
C1064 C1080 1.368 . S
H1065 C1073 0.950 . S
H1066 C1071 0.950 . S
H1067 C1072 0.949 . S
H1068 C1074 0.950 . S
H1069 C1075 0.950 . S
H1070 C1076 0.949 . S
C1071 H1066 0.950 . S
C1071 C1073 1.327 . S
C1071 C1077 1.429 . S
C1072 C1064 1.574 . S
C1072 H1067 0.949 . S
C1072 C1078 1.368 . S
C1073 C1057 1.349 . S
C1073 H1065 0.950 . S
C1073 C1071 1.327 . S
C1074 C1062 1.349 . S
C1074 H1068 0.950 . S
C1074 C1075 1.327 . S
C1075 H1069 0.950 . S
C1075 C1074 1.327 . S
C1075 C1079 1.429 . S
C1076 C1059 1.574 . S
C1076 H1070 0.949 . S
C1076 C1080 1.368 . S
C1077 C1058 1.429 . S
C1077 C1071 1.429 . S
C1077 C1078 1.523 . S
C1078 C1059 1.368 . S
C1078 C1072 1.368 . S
C1078 C1077 1.523 . S
C1079 C1063 1.429 . S
C1079 C1075 1.429 . S
C1079 C1080 1.523 . S
C1080 C1064 1.368 . S
C1080 C1076 1.368 . S
C1080 C1079 1.523 . S
H1081 C1056 0.950 1_545 S
H1082 C1058 0.950 . S
H1083 C1059 0.949 . S
H1084 C1061 0.950 . S
H1085 C1063 0.950 . S
C1086 C1087 1.349 . S
C1086 C1088 1.327 . S
C1086 H1111 0.950 . S
C1087 C1086 1.349 . S
C1087 C1103 1.349 . S
C1088 C1086 1.327 . S
C1088 C1107 1.429 . S
C1088 H1112 0.950 . S
C1089 C1106 1.574 . S
C1089 C1108 1.368 . S
C1089 H1113 0.949 . S
H1090 C1094 0.949 . S
C1091 C1092 1.349 . S
C1091 C1093 1.327 . S
C1091 H1114 0.950 . S
C1092 C1091 1.349 . S
C1092 C1104 1.349 . S
C1093 C1091 1.327 . S
C1093 C1109 1.429 . S
C1093 H1115 0.950 . S
C1094 H1090 0.949 . S
C1094 C1102 1.574 . S
C1094 C1110 1.368 . S
H1095 C1103 0.950 . S
H1096 C1101 0.950 . S
H1097 C1102 0.949 . S
H1098 C1104 0.950 . S
H1099 C1105 0.950 . S
H1100 C1106 0.949 . S
C1101 H1096 0.950 . S
C1101 C1103 1.327 . S
C1101 C1107 1.429 . S
C1102 C1094 1.574 . S
C1102 H1097 0.949 . S
C1102 C1108 1.368 . S
C1103 C1087 1.349 . S
C1103 H1095 0.950 . S
C1103 C1101 1.327 . S
C1104 C1092 1.349 . S
C1104 H1098 0.950 . S
C1104 C1105 1.327 . S
C1105 H1099 0.950 . S
C1105 C1104 1.327 . S
C1105 C1109 1.429 . S
C1106 C1089 1.574 . S
C1106 H1100 0.949 . S
C1106 C1110 1.368 . S
C1107 C1088 1.429 . S
C1107 C1101 1.429 . S
C1107 C1108 1.523 . S
C1108 C1089 1.368 . S
C1108 C1102 1.368 . S
C1108 C1107 1.523 . S
C1109 C1093 1.429 . S
C1109 C1105 1.429 . S
C1109 C1110 1.523 . S
C1110 C1094 1.368 . S
C1110 C1106 1.368 . S
C1110 C1109 1.523 . S
H1111 C1086 0.950 . S
H1112 C1088 0.950 . S
H1113 C1089 0.949 . S
H1114 C1091 0.950 . S
H1115 C1093 0.950 . S
C1116 C1117 1.349 . S
C1116 C1118 1.327 . S
C1116 H1141 0.950 . S
C1117 C1116 1.349 . S
C1117 C1133 1.349 . S
C1118 C1116 1.327 . S
C1118 C1137 1.429 . S
C1118 H1142 0.950 . S
C1119 C1136 1.574 . S
C1119 C1138 1.368 . S
C1119 H1143 0.949 . S
H1120 C1124 0.949 . S
C1121 C1122 1.349 . S
C1121 C1123 1.327 . S
C1121 H1144 0.950 . S
C1122 C1121 1.349 . S
C1122 C1134 1.349 . S
C1123 C1121 1.327 . S
C1123 C1139 1.429 . S
C1123 H1145 0.950 . S
C1124 H1120 0.949 . S
C1124 C1132 1.574 . S
C1124 C1140 1.368 . S
H1125 C1133 0.950 . S
H1126 C1131 0.950 . S
H1127 C1132 0.949 . S
H1128 C1134 0.950 . S
H1129 C1135 0.950 . S
H1130 C1136 0.949 . S
C1131 H1126 0.950 . S
C1131 C1133 1.327 . S
C1131 C1137 1.429 . S
C1132 C1124 1.574 . S
C1132 H1127 0.949 . S
C1132 C1138 1.368 . S
C1133 C1117 1.349 . S
C1133 H1125 0.950 . S
C1133 C1131 1.327 . S
C1134 C1122 1.349 . S
C1134 H1128 0.950 . S
C1134 C1135 1.327 . S
C1135 H1129 0.950 . S
C1135 C1134 1.327 . S
C1135 C1139 1.429 . S
C1136 C1119 1.574 . S
C1136 H1130 0.949 . S
C1136 C1140 1.368 . S
C1137 C1118 1.429 . S
C1137 C1131 1.429 . S
C1137 C1138 1.523 . S
C1138 C1119 1.368 . S
C1138 C1132 1.368 . S
C1138 C1137 1.523 . S
C1139 C1123 1.429 . S
C1139 C1135 1.429 . S
C1139 C1140 1.523 . S
C1140 C1124 1.368 . S
C1140 C1136 1.368 . S
C1140 C1139 1.523 . S
H1141 C1116 0.950 . S
H1142 C1118 0.950 . S
H1143 C1119 0.949 . S
H1144 C1121 0.950 . S
H1145 C1123 0.950 . S
C1146 C1147 1.349 . S
C1146 C1148 1.327 . S
C1146 H1171 0.950 . S
C1147 C1146 1.349 . S
C1147 C1163 1.349 . S
C1148 C1146 1.327 . S
C1148 C1167 1.429 . S
C1148 H1172 0.950 . S
C1149 C1166 1.574 . S
C1149 C1168 1.368 . S
C1149 H1173 0.949 . S
H1150 C1154 0.949 . S
C1151 C1152 1.349 . S
C1151 C1153 1.327 . S
C1151 H1174 0.950 1_556 S
C1152 C1151 1.349 . S
C1152 C1164 1.349 . S
C1153 C1151 1.327 . S
C1153 C1169 1.429 . S
C1153 H1175 0.950 1_556 S
C1154 H1150 0.949 . S
C1154 C1162 1.574 . S
C1154 C1170 1.368 . S
H1155 C1163 0.950 . S
H1156 C1161 0.950 . S
H1157 C1162 0.949 . S
H1158 C1164 0.950 . S
H1159 C1165 0.950 . S
H1160 C1166 0.949 . S
C1161 H1156 0.950 . S
C1161 C1163 1.327 . S
C1161 C1167 1.429 . S
C1162 C1154 1.574 . S
C1162 H1157 0.949 . S
C1162 C1168 1.368 . S
C1163 C1147 1.349 . S
C1163 H1155 0.950 . S
C1163 C1161 1.327 . S
C1164 C1152 1.349 . S
C1164 H1158 0.950 . S
C1164 C1165 1.327 . S
C1165 H1159 0.950 . S
C1165 C1164 1.327 . S
C1165 C1169 1.429 . S
C1166 C1149 1.574 . S
C1166 H1160 0.949 . S
C1166 C1170 1.368 . S
C1167 C1148 1.429 . S
C1167 C1161 1.429 . S
C1167 C1168 1.523 . S
C1168 C1149 1.368 . S
C1168 C1162 1.368 . S
C1168 C1167 1.523 . S
C1169 C1153 1.429 . S
C1169 C1165 1.429 . S
C1169 C1170 1.523 . S
C1170 C1154 1.368 . S
C1170 C1166 1.368 . S
C1170 C1169 1.523 . S
H1171 C1146 0.950 . S
H1172 C1148 0.950 . S
H1173 C1149 0.949 . S
H1174 C1151 0.950 1_554 S
H1175 C1153 0.950 1_554 S
C1176 C1177 1.349 . S
C1176 C1178 1.327 . S
C1176 H1201 0.950 . S
C1177 C1176 1.349 . S
C1177 C1193 1.349 . S
C1178 C1176 1.327 . S
C1178 C1197 1.429 . S
C1178 H1202 0.950 . S
C1179 C1196 1.574 . S
C1179 C1198 1.368 . S
C1179 H1203 0.949 . S
H1180 C1184 0.949 . S
C1181 C1182 1.349 . S
C1181 C1183 1.327 . S
C1181 H1204 0.950 . S
C1182 C1181 1.349 . S
C1182 C1194 1.349 . S
C1183 C1181 1.327 . S
C1183 C1199 1.429 . S
C1183 H1205 0.950 . S
C1184 H1180 0.949 . S
C1184 C1192 1.574 . S
C1184 C1200 1.368 . S
H1185 C1193 0.950 . S
H1186 C1191 0.950 . S
H1187 C1192 0.949 . S
H1188 C1194 0.950 . S
H1189 C1195 0.950 . S
H1190 C1196 0.949 . S
C1191 H1186 0.950 . S
C1191 C1193 1.327 . S
C1191 C1197 1.429 . S
C1192 C1184 1.574 . S
C1192 H1187 0.949 . S
C1192 C1198 1.368 . S
C1193 C1177 1.349 . S
C1193 H1185 0.950 . S
C1193 C1191 1.327 . S
C1194 C1182 1.349 . S
C1194 H1188 0.950 . S
C1194 C1195 1.327 . S
C1195 H1189 0.950 . S
C1195 C1194 1.327 . S
C1195 C1199 1.429 . S
C1196 C1179 1.574 . S
C1196 H1190 0.949 . S
C1196 C1200 1.368 . S
C1197 C1178 1.429 . S
C1197 C1191 1.429 . S
C1197 C1198 1.523 . S
C1198 C1179 1.368 . S
C1198 C1192 1.368 . S
C1198 C1197 1.523 . S
C1199 C1183 1.429 . S
C1199 C1195 1.429 . S
C1199 C1200 1.523 . S
C1200 C1184 1.368 . S
C1200 C1196 1.368 . S
C1200 C1199 1.523 . S
H1201 C1176 0.950 . S
H1202 C1178 0.950 . S
H1203 C1179 0.949 . S
H1204 C1181 0.950 . S
H1205 C1183 0.950 . S
C1206 C1207 1.349 . S
C1206 C1208 1.327 . S
C1206 H1231 0.950 . S
C1207 C1206 1.349 . S
C1207 C1223 1.349 . S
C1208 C1206 1.327 . S
C1208 C1227 1.429 . S
C1208 H1232 0.950 . S
C1209 C1226 1.574 . S
C1209 C1228 1.368 . S
C1209 H1233 0.949 . S
H1210 C1214 0.949 . S
C1211 C1212 1.349 . S
C1211 C1213 1.327 . S
C1211 H1234 0.950 . S
C1212 C1211 1.349 . S
C1212 C1224 1.349 . S
C1213 C1211 1.327 . S
C1213 C1229 1.429 . S
C1213 H1235 0.950 . S
C1214 H1210 0.949 . S
C1214 C1222 1.574 . S
C1214 C1230 1.368 . S
H1215 C1223 0.950 . S
H1216 C1221 0.950 . S
H1217 C1222 0.949 . S
H1218 C1224 0.950 . S
H1219 C1225 0.950 . S
H1220 C1226 0.949 . S
C1221 H1216 0.950 . S
C1221 C1223 1.327 . S
C1221 C1227 1.429 . S
C1222 C1214 1.574 . S
C1222 H1217 0.949 . S
C1222 C1228 1.368 . S
C1223 C1207 1.349 . S
C1223 H1215 0.950 . S
C1223 C1221 1.327 . S
C1224 C1212 1.349 . S
C1224 H1218 0.950 . S
C1224 C1225 1.327 . S
C1225 H1219 0.950 . S
C1225 C1224 1.327 . S
C1225 C1229 1.429 . S
C1226 C1209 1.574 . S
C1226 H1220 0.949 . S
C1226 C1230 1.368 . S
C1227 C1208 1.429 . S
C1227 C1221 1.429 . S
C1227 C1228 1.523 . S
C1228 C1209 1.368 . S
C1228 C1222 1.368 . S
C1228 C1227 1.523 . S
C1229 C1213 1.429 . S
C1229 C1225 1.429 . S
C1229 C1230 1.523 . S
C1230 C1214 1.368 . S
C1230 C1226 1.368 . S
C1230 C1229 1.523 . S
H1231 C1206 0.950 . S
H1232 C1208 0.950 . S
H1233 C1209 0.949 . S
H1234 C1211 0.950 . S
H1235 C1213 0.950 . S
C1236 C1237 1.349 . S
C1236 C1238 1.327 . S
C1236 H1261 0.950 . S
C1237 C1236 1.349 . S
C1237 C1253 1.349 . S
C1238 C1236 1.327 . S
C1238 C1257 1.429 . S
C1238 H1262 0.950 . S
C1239 C1256 1.574 . S
C1239 C1258 1.368 . S
C1239 H1263 0.949 . S
H1240 C1244 0.949 . S
C1241 C1242 1.349 . S
C1241 C1243 1.327 . S
C1241 H1264 0.950 . S
C1242 C1241 1.349 . S
C1242 C1254 1.349 . S
C1243 C1241 1.327 . S
C1243 C1259 1.429 . S
C1243 H1265 0.950 . S
C1244 H1240 0.949 . S
C1244 C1252 1.574 . S
C1244 C1260 1.368 . S
H1245 C1253 0.950 . S
H1246 C1251 0.950 . S
H1247 C1252 0.949 . S
H1248 C1254 0.950 . S
H1249 C1255 0.950 . S
H1250 C1256 0.949 . S
C1251 H1246 0.950 . S
C1251 C1253 1.327 . S
C1251 C1257 1.429 . S
C1252 C1244 1.574 . S
C1252 H1247 0.949 . S
C1252 C1258 1.368 . S
C1253 C1237 1.349 . S
C1253 H1245 0.950 . S
C1253 C1251 1.327 . S
C1254 C1242 1.349 . S
C1254 H1248 0.950 . S
C1254 C1255 1.327 . S
C1255 H1249 0.950 . S
C1255 C1254 1.327 . S
C1255 C1259 1.429 . S
C1256 C1239 1.574 . S
C1256 H1250 0.949 . S
C1256 C1260 1.368 . S
C1257 C1238 1.429 . S
C1257 C1251 1.429 . S
C1257 C1258 1.523 . S
C1258 C1239 1.368 . S
C1258 C1252 1.368 . S
C1258 C1257 1.523 . S
C1259 C1243 1.429 . S
C1259 C1255 1.429 . S
C1259 C1260 1.523 . S
C1260 C1244 1.368 . S
C1260 C1256 1.368 . S
C1260 C1259 1.523 . S
H1261 C1236 0.950 . S
H1262 C1238 0.950 . S
H1263 C1239 0.949 . S
H1264 C1241 0.950 . S
H1265 C1243 0.950 . S
C1266 C1267 1.349 . S
C1266 C1268 1.327 . S
C1266 H1291 0.950 . S
C1267 C1266 1.349 . S
C1267 C1283 1.349 . S
C1268 C1266 1.327 . S
C1268 C1287 1.429 . S
C1268 H1292 0.950 . S
C1269 C1286 1.574 . S
C1269 C1288 1.368 . S
C1269 H1293 0.949 . S
H1270 C1274 0.949 . S
C1271 C1272 1.349 . S
C1271 C1273 1.327 . S
C1271 H1294 0.950 . S
C1272 C1271 1.349 . S
C1272 C1284 1.349 . S
C1273 C1271 1.327 . S
C1273 C1289 1.429 . S
C1273 H1295 0.950 . S
C1274 H1270 0.949 . S
C1274 C1282 1.574 . S
C1274 C1290 1.368 . S
H1275 C1283 0.950 . S
H1276 C1281 0.950 . S
H1277 C1282 0.949 . S
H1278 C1284 0.950 . S
H1279 C1285 0.950 . S
H1280 C1286 0.949 . S
C1281 H1276 0.950 . S
C1281 C1283 1.327 . S
C1281 C1287 1.429 . S
C1282 C1274 1.574 . S
C1282 H1277 0.949 . S
C1282 C1288 1.368 . S
C1283 C1267 1.349 . S
C1283 H1275 0.950 . S
C1283 C1281 1.327 . S
C1284 C1272 1.349 . S
C1284 H1278 0.950 . S
C1284 C1285 1.327 . S
C1285 H1279 0.950 . S
C1285 C1284 1.327 . S
C1285 C1289 1.429 . S
C1286 C1269 1.574 . S
C1286 H1280 0.949 . S
C1286 C1290 1.368 . S
C1287 C1268 1.429 . S
C1287 C1281 1.429 . S
C1287 C1288 1.523 . S
C1288 C1269 1.368 . S
C1288 C1282 1.368 . S
C1288 C1287 1.523 . S
C1289 C1273 1.429 . S
C1289 C1285 1.429 . S
C1289 C1290 1.523 . S
C1290 C1274 1.368 . S
C1290 C1286 1.368 . S
C1290 C1289 1.523 . S
H1291 C1266 0.950 . S
H1292 C1268 0.950 . S
H1293 C1269 0.949 . S
H1294 C1271 0.950 . S
H1295 C1273 0.950 . S
C1296 C1297 1.349 . S
C1296 C1298 1.327 . S
C1296 H1321 0.950 . S
C1297 C1296 1.349 . S
C1297 C1313 1.349 . S
C1298 C1296 1.327 . S
C1298 C1317 1.429 . S
C1298 H1322 0.950 . S
C1299 C1316 1.574 . S
C1299 C1318 1.368 . S
C1299 H1323 0.949 . S
H1300 C1304 0.949 . S
C1301 C1302 1.349 . S
C1301 C1303 1.327 . S
C1301 H1324 0.950 . S
C1302 C1301 1.349 . S
C1302 C1314 1.349 . S
C1303 C1301 1.327 . S
C1303 C1319 1.429 . S
C1303 H1325 0.950 . S
C1304 H1300 0.949 . S
C1304 C1312 1.574 . S
C1304 C1320 1.368 . S
H1305 C1313 0.950 . S
H1306 C1311 0.950 . S
H1307 C1312 0.949 . S
H1308 C1314 0.950 . S
H1309 C1315 0.950 . S
H1310 C1316 0.949 . S
C1311 H1306 0.950 . S
C1311 C1313 1.327 . S
C1311 C1317 1.429 . S
C1312 C1304 1.574 . S
C1312 H1307 0.949 . S
C1312 C1318 1.368 . S
C1313 C1297 1.349 . S
C1313 H1305 0.950 . S
C1313 C1311 1.327 . S
C1314 C1302 1.349 . S
C1314 H1308 0.950 . S
C1314 C1315 1.327 . S
C1315 H1309 0.950 . S
C1315 C1314 1.327 . S
C1315 C1319 1.429 . S
C1316 C1299 1.574 . S
C1316 H1310 0.949 . S
C1316 C1320 1.368 . S
C1317 C1298 1.429 . S
C1317 C1311 1.429 . S
C1317 C1318 1.523 . S
C1318 C1299 1.368 . S
C1318 C1312 1.368 . S
C1318 C1317 1.523 . S
C1319 C1303 1.429 . S
C1319 C1315 1.429 . S
C1319 C1320 1.523 . S
C1320 C1304 1.368 . S
C1320 C1316 1.368 . S
C1320 C1319 1.523 . S
H1321 C1296 0.950 . S
H1322 C1298 0.950 . S
H1323 C1299 0.949 . S
H1324 C1301 0.950 . S
H1325 C1303 0.950 . S
C1326 C1327 1.349 . S
C1326 C1328 1.327 . S
C1326 H1351 0.950 . S
C1327 C1326 1.349 . S
C1327 C1343 1.349 . S
C1328 C1326 1.327 . S
C1328 C1347 1.429 . S
C1328 H1352 0.950 . S
C1329 C1346 1.574 . S
C1329 C1348 1.368 . S
C1329 H1353 0.949 . S
H1330 C1334 0.949 . S
C1331 C1332 1.349 . S
C1331 C1333 1.327 . S
C1331 H1354 0.950 . S
C1332 C1331 1.349 . S
C1332 C1344 1.349 . S
C1333 C1331 1.327 . S
C1333 C1349 1.429 . S
C1333 H1355 0.950 . S
C1334 H1330 0.949 . S
C1334 C1342 1.574 . S
C1334 C1350 1.368 . S
H1335 C1343 0.951 . S
H1336 C1341 0.950 . S
H1337 C1342 0.949 . S
H1338 C1344 0.950 . S
H1339 C1345 0.950 . S
H1340 C1346 0.949 . S
C1341 H1336 0.950 . S
C1341 C1343 1.327 . S
C1341 C1347 1.429 . S
C1342 C1334 1.574 . S
C1342 H1337 0.949 . S
C1342 C1348 1.368 . S
C1343 C1327 1.349 . S
C1343 H1335 0.951 . S
C1343 C1341 1.327 . S
C1344 C1332 1.349 . S
C1344 H1338 0.950 . S
C1344 C1345 1.327 . S
C1345 H1339 0.950 . S
C1345 C1344 1.327 . S
C1345 C1349 1.429 . S
C1346 C1329 1.574 . S
C1346 H1340 0.949 . S
C1346 C1350 1.368 . S
C1347 C1328 1.429 . S
C1347 C1341 1.429 . S
C1347 C1348 1.523 . S
C1348 C1329 1.368 . S
C1348 C1342 1.368 . S
C1348 C1347 1.523 . S
C1349 C1333 1.429 . S
C1349 C1345 1.429 . S
C1349 C1350 1.523 . S
C1350 C1334 1.368 . S
C1350 C1346 1.368 . S
C1350 C1349 1.523 . S
H1351 C1326 0.950 . S
H1352 C1328 0.950 . S
H1353 C1329 0.949 . S
H1354 C1331 0.950 . S
H1355 C1333 0.950 . S
C1356 C1357 1.349 . S
C1356 C1358 1.327 . S
C1356 H1381 0.950 . S
C1357 C1356 1.349 . S
C1357 C1373 1.349 . S
C1358 C1356 1.327 . S
C1358 C1377 1.429 . S
C1358 H1382 0.950 . S
C1359 C1376 1.574 . S
C1359 C1378 1.368 . S
C1359 H1383 0.949 . S
H1360 C1364 0.949 . S
C1361 C1362 1.349 . S
C1361 C1363 1.327 . S
C1361 H1384 0.950 . S
C1362 C1361 1.349 . S
C1362 C1374 1.349 . S
C1363 C1361 1.327 . S
C1363 C1379 1.429 . S
C1363 H1385 0.950 . S
C1364 H1360 0.949 . S
C1364 C1372 1.574 . S
C1364 C1380 1.368 . S
H1365 C1373 0.950 . S
H1366 C1371 0.950 . S
H1367 C1372 0.949 . S
H1368 C1374 0.950 . S
H1369 C1375 0.950 . S
H1370 C1376 0.949 . S
C1371 H1366 0.950 . S
C1371 C1373 1.327 . S
C1371 C1377 1.429 . S
C1372 C1364 1.574 . S
C1372 H1367 0.949 . S
C1372 C1378 1.368 . S
C1373 C1357 1.349 . S
C1373 H1365 0.950 . S
C1373 C1371 1.327 . S
C1374 C1362 1.349 . S
C1374 H1368 0.950 . S
C1374 C1375 1.327 . S
C1375 H1369 0.950 . S
C1375 C1374 1.327 . S
C1375 C1379 1.429 . S
C1376 C1359 1.574 . S
C1376 H1370 0.949 . S
C1376 C1380 1.368 . S
C1377 C1358 1.429 . S
C1377 C1371 1.429 . S
C1377 C1378 1.523 . S
C1378 C1359 1.368 . S
C1378 C1372 1.368 . S
C1378 C1377 1.523 . S
C1379 C1363 1.429 . S
C1379 C1375 1.429 . S
C1379 C1380 1.523 . S
C1380 C1364 1.368 . S
C1380 C1376 1.368 . S
C1380 C1379 1.523 . S
H1381 C1356 0.950 . S
H1382 C1358 0.950 . S
H1383 C1359 0.949 . S
H1384 C1361 0.950 . S
H1385 C1363 0.950 . S
C1386 C1387 1.349 . S
C1386 C1388 1.327 . S
C1386 H1411 0.950 . S
C1387 C1386 1.349 . S
C1387 C1403 1.349 . S
C1388 C1386 1.327 . S
C1388 C1407 1.429 . S
C1388 H1412 0.950 . S
C1389 C1406 1.574 . S
C1389 C1408 1.368 . S
C1389 H1413 0.949 . S
H1390 C1394 0.949 . S
C1391 C1392 1.349 . S
C1391 C1393 1.327 . S
C1391 H1414 0.950 . S
C1392 C1391 1.349 . S
C1392 C1404 1.349 . S
C1393 C1391 1.327 . S
C1393 C1409 1.429 . S
C1393 H1415 0.950 . S
C1394 H1390 0.949 . S
C1394 C1402 1.574 . S
C1394 C1410 1.368 . S
H1395 C1403 0.950 . S
H1396 C1401 0.950 . S
H1397 C1402 0.949 . S
H1398 C1404 0.950 . S
H1399 C1405 0.950 . S
H1400 C1406 0.949 . S
C1401 H1396 0.950 . S
C1401 C1403 1.327 . S
C1401 C1407 1.429 . S
C1402 C1394 1.574 . S
C1402 H1397 0.949 . S
C1402 C1408 1.368 . S
C1403 C1387 1.349 . S
C1403 H1395 0.950 . S
C1403 C1401 1.327 . S
C1404 C1392 1.349 . S
C1404 H1398 0.950 . S
C1404 C1405 1.327 . S
C1405 H1399 0.950 . S
C1405 C1404 1.327 . S
C1405 C1409 1.429 . S
C1406 C1389 1.574 . S
C1406 H1400 0.949 . S
C1406 C1410 1.368 . S
C1407 C1388 1.429 . S
C1407 C1401 1.429 . S
C1407 C1408 1.523 . S
C1408 C1389 1.368 . S
C1408 C1402 1.368 . S
C1408 C1407 1.523 . S
C1409 C1393 1.429 . S
C1409 C1405 1.429 . S
C1409 C1410 1.523 . S
C1410 C1394 1.368 . S
C1410 C1406 1.368 . S
C1410 C1409 1.523 . S
H1411 C1386 0.950 . S
H1412 C1388 0.950 . S
H1413 C1389 0.949 . S
H1414 C1391 0.950 . S
H1415 C1393 0.950 . S
C1416 C1417 1.349 . S
C1416 C1418 1.327 . S
C1416 H1441 0.950 . S
C1417 C1416 1.349 . S
C1417 C1433 1.349 . S
C1418 C1416 1.327 . S
C1418 C1437 1.429 . S
C1418 H1442 0.950 . S
C1419 C1436 1.574 . S
C1419 C1438 1.368 . S
C1419 H1443 0.949 . S
H1420 C1424 0.949 . S
C1421 C1422 1.349 . S
C1421 C1423 1.327 . S
C1421 H1444 0.950 . S
C1422 C1421 1.349 . S
C1422 C1434 1.349 . S
C1423 C1421 1.327 . S
C1423 C1439 1.429 . S
C1423 H1445 0.950 . S
C1424 H1420 0.949 . S
C1424 C1432 1.574 . S
C1424 C1440 1.368 . S
H1425 C1433 0.950 . S
H1426 C1431 0.950 . S
H1427 C1432 0.949 . S
H1428 C1434 0.950 . S
H1429 C1435 0.950 . S
H1430 C1436 0.949 . S
C1431 H1426 0.950 . S
C1431 C1433 1.327 . S
C1431 C1437 1.429 . S
C1432 C1424 1.574 . S
C1432 H1427 0.949 . S
C1432 C1438 1.368 . S
C1433 C1417 1.349 . S
C1433 H1425 0.950 . S
C1433 C1431 1.327 . S
C1434 C1422 1.349 . S
C1434 H1428 0.950 . S
C1434 C1435 1.327 . S
C1435 H1429 0.950 . S
C1435 C1434 1.327 . S
C1435 C1439 1.429 . S
C1436 C1419 1.574 . S
C1436 H1430 0.949 . S
C1436 C1440 1.368 . S
C1437 C1418 1.429 . S
C1437 C1431 1.429 . S
C1437 C1438 1.523 . S
C1438 C1419 1.368 . S
C1438 C1432 1.368 . S
C1438 C1437 1.523 . S
C1439 C1423 1.429 . S
C1439 C1435 1.429 . S
C1439 C1440 1.523 . S
C1440 C1424 1.368 . S
C1440 C1436 1.368 . S
C1440 C1439 1.523 . S
H1441 C1416 0.950 . S
H1442 C1418 0.950 . S
H1443 C1419 0.949 . S
H1444 C1421 0.950 . S
H1445 C1423 0.950 . S
C1446 C1447 1.349 . S
C1446 C1448 1.327 . S
C1446 H1471 0.950 . S
C1447 C1446 1.349 . S
C1447 C1463 1.349 . S
C1448 C1446 1.327 . S
C1448 C1467 1.429 . S
C1448 H1472 0.950 . S
C1449 C1466 1.574 . S
C1449 C1468 1.368 . S
C1449 H1473 0.949 . S
H1450 C1454 0.949 . S
C1451 C1452 1.349 . S
C1451 C1453 1.327 . S
C1451 H1474 0.950 . S
C1452 C1451 1.349 . S
C1452 C1464 1.349 . S
C1453 C1451 1.327 . S
C1453 C1469 1.429 . S
C1453 H1475 0.950 . S
C1454 H1450 0.949 . S
C1454 C1462 1.574 . S
C1454 C1470 1.368 . S
H1455 C1463 0.950 . S
H1456 C1461 0.950 . S
H1457 C1462 0.949 . S
H1458 C1464 0.950 . S
H1459 C1465 0.950 . S
H1460 C1466 0.949 . S
C1461 H1456 0.950 . S
C1461 C1463 1.327 . S
C1461 C1467 1.429 . S
C1462 C1454 1.574 . S
C1462 H1457 0.949 . S
C1462 C1468 1.368 . S
C1463 C1447 1.349 . S
C1463 H1455 0.950 . S
C1463 C1461 1.327 . S
C1464 C1452 1.349 . S
C1464 H1458 0.950 . S
C1464 C1465 1.327 . S
C1465 H1459 0.950 . S
C1465 C1464 1.327 . S
C1465 C1469 1.429 . S
C1466 C1449 1.574 . S
C1466 H1460 0.949 . S
C1466 C1470 1.368 . S
C1467 C1448 1.429 . S
C1467 C1461 1.429 . S
C1467 C1468 1.523 . S
C1468 C1449 1.368 . S
C1468 C1462 1.368 . S
C1468 C1467 1.523 . S
C1469 C1453 1.429 . S
C1469 C1465 1.429 . S
C1469 C1470 1.523 . S
C1470 C1454 1.368 . S
C1470 C1466 1.368 . S
C1470 C1469 1.523 . S
H1471 C1446 0.950 . S
H1472 C1448 0.950 . S
H1473 C1449 0.949 . S
H1474 C1451 0.950 . S
H1475 C1453 0.950 . S
C1476 C1477 1.349 . S
C1476 C1478 1.327 . S
C1476 H1501 0.950 . S
C1477 C1476 1.349 . S
C1477 C1493 1.349 . S
C1478 C1476 1.327 . S
C1478 C1497 1.429 . S
C1478 H1502 0.950 . S
C1479 C1496 1.574 . S
C1479 C1498 1.368 . S
C1479 H1503 0.949 . S
H1480 C1484 0.949 . S
C1481 C1482 1.349 . S
C1481 C1483 1.327 . S
C1481 H1504 0.950 . S
C1482 C1481 1.349 . S
C1482 C1494 1.349 . S
C1483 C1481 1.327 . S
C1483 C1499 1.429 . S
C1483 H1505 0.950 . S
C1484 H1480 0.949 . S
C1484 C1492 1.574 . S
C1484 C1500 1.368 . S
H1485 C1493 0.950 . S
H1486 C1491 0.950 . S
H1487 C1492 0.949 . S
H1488 C1494 0.950 . S
H1489 C1495 0.950 . S
H1490 C1496 0.949 . S
C1491 H1486 0.950 . S
C1491 C1493 1.327 . S
C1491 C1497 1.429 . S
C1492 C1484 1.574 . S
C1492 H1487 0.949 . S
C1492 C1498 1.368 . S
C1493 C1477 1.349 . S
C1493 H1485 0.950 . S
C1493 C1491 1.327 . S
C1494 C1482 1.349 . S
C1494 H1488 0.950 . S
C1494 C1495 1.327 . S
C1495 H1489 0.950 . S
C1495 C1494 1.327 . S
C1495 C1499 1.429 . S
C1496 C1479 1.574 . S
C1496 H1490 0.949 . S
C1496 C1500 1.368 . S
C1497 C1478 1.429 . S
C1497 C1491 1.429 . S
C1497 C1498 1.523 . S
C1498 C1479 1.368 . S
C1498 C1492 1.368 . S
C1498 C1497 1.523 . S
C1499 C1483 1.429 . S
C1499 C1495 1.429 . S
C1499 C1500 1.523 . S
C1500 C1484 1.368 . S
C1500 C1496 1.368 . S
C1500 C1499 1.523 . S
H1501 C1476 0.950 . S
H1502 C1478 0.950 . S
H1503 C1479 0.949 . S
H1504 C1481 0.950 . S
H1505 C1483 0.950 . S
C1506 C1507 1.349 . S
C1506 C1508 1.327 . S
C1506 H1531 0.950 . S
C1507 C1506 1.349 . S
C1507 C1523 1.349 . S
C1508 C1506 1.327 . S
C1508 C1527 1.429 . S
C1508 H1532 0.950 . S
C1509 C1526 1.574 . S
C1509 C1528 1.368 . S
C1509 H1533 0.949 . S
H1510 C1514 0.949 . S
C1511 C1512 1.349 . S
C1511 C1513 1.327 . S
C1511 H1534 0.950 . S
C1512 C1511 1.349 . S
C1512 C1524 1.349 . S
C1513 C1511 1.327 . S
C1513 C1529 1.429 . S
C1513 H1535 0.950 . S
C1514 H1510 0.949 . S
C1514 C1522 1.574 . S
C1514 C1530 1.368 . S
H1515 C1523 0.950 . S
H1516 C1521 0.950 . S
H1517 C1522 0.949 . S
H1518 C1524 0.950 . S
H1519 C1525 0.950 . S
H1520 C1526 0.949 . S
C1521 H1516 0.950 . S
C1521 C1523 1.327 . S
C1521 C1527 1.429 . S
C1522 C1514 1.574 . S
C1522 H1517 0.949 . S
C1522 C1528 1.368 . S
C1523 C1507 1.349 . S
C1523 H1515 0.950 . S
C1523 C1521 1.327 . S
C1524 C1512 1.349 . S
C1524 H1518 0.950 . S
C1524 C1525 1.327 . S
C1525 H1519 0.950 . S
C1525 C1524 1.327 . S
C1525 C1529 1.429 . S
C1526 C1509 1.574 . S
C1526 H1520 0.949 . S
C1526 C1530 1.368 . S
C1527 C1508 1.429 . S
C1527 C1521 1.429 . S
C1527 C1528 1.523 . S
C1528 C1509 1.368 . S
C1528 C1522 1.368 . S
C1528 C1527 1.523 . S
C1529 C1513 1.429 . S
C1529 C1525 1.429 . S
C1529 C1530 1.523 . S
C1530 C1514 1.368 . S
C1530 C1526 1.368 . S
C1530 C1529 1.523 . S
H1531 C1506 0.950 . S
H1532 C1508 0.950 . S
H1533 C1509 0.949 . S
H1534 C1511 0.950 . S
H1535 C1513 0.950 . S
C1536 C1537 1.349 . S
C1536 C1538 1.327 . S
C1536 H1561 0.950 . S
C1537 C1536 1.349 . S
C1537 C1553 1.349 . S
C1538 C1536 1.327 . S
C1538 C1557 1.429 . S
C1538 H1562 0.950 . S
C1539 C1556 1.574 . S
C1539 C1558 1.368 . S
C1539 H1563 0.949 . S
H1540 C1544 0.949 . S
C1541 C1542 1.349 . S
C1541 C1543 1.327 . S
C1541 H1564 0.950 . S
C1542 C1541 1.349 . S
C1542 C1554 1.349 . S
C1543 C1541 1.327 . S
C1543 C1559 1.429 . S
C1543 H1565 0.950 . S
C1544 H1540 0.949 . S
C1544 C1552 1.574 . S
C1544 C1560 1.368 . S
H1545 C1553 0.950 . S
H1546 C1551 0.950 . S
H1547 C1552 0.949 . S
H1548 C1554 0.950 . S
H1549 C1555 0.950 . S
H1550 C1556 0.949 . S
C1551 H1546 0.950 . S
C1551 C1553 1.327 . S
C1551 C1557 1.429 . S
C1552 C1544 1.574 . S
C1552 H1547 0.949 . S
C1552 C1558 1.368 . S
C1553 C1537 1.349 . S
C1553 H1545 0.950 . S
C1553 C1551 1.327 . S
C1554 C1542 1.349 . S
C1554 H1548 0.950 . S
C1554 C1555 1.327 . S
C1555 H1549 0.950 . S
C1555 C1554 1.327 . S
C1555 C1559 1.429 . S
C1556 C1539 1.574 . S
C1556 H1550 0.949 . S
C1556 C1560 1.368 . S
C1557 C1538 1.429 . S
C1557 C1551 1.429 . S
C1557 C1558 1.523 . S
C1558 C1539 1.368 . S
C1558 C1552 1.368 . S
C1558 C1557 1.523 . S
C1559 C1543 1.429 . S
C1559 C1555 1.429 . S
C1559 C1560 1.523 . S
C1560 C1544 1.368 . S
C1560 C1556 1.368 . S
C1560 C1559 1.523 . S
H1561 C1536 0.950 . S
H1562 C1538 0.950 . S
H1563 C1539 0.949 . S
H1564 C1541 0.950 . S
H1565 C1543 0.950 . S
C1566 C1567 1.349 . S
C1566 C1568 1.327 . S
C1566 H1591 0.950 . S
C1567 C1566 1.349 . S
C1567 C1583 1.349 . S
C1568 C1566 1.327 . S
C1568 C1587 1.429 . S
C1568 H1592 0.950 . S
C1569 C1586 1.574 . S
C1569 C1588 1.368 . S
C1569 H1593 0.949 . S
H1570 C1574 0.949 . S
C1571 C1572 1.349 . S
C1571 C1573 1.327 . S
C1571 H1594 0.950 . S
C1572 C1571 1.349 . S
C1572 C1584 1.349 . S
C1573 C1571 1.327 . S
C1573 C1589 1.429 . S
C1573 H1595 0.950 . S
C1574 H1570 0.949 . S
C1574 C1582 1.574 . S
C1574 C1590 1.368 . S
H1575 C1583 0.950 . S
H1576 C1581 0.950 . S
H1577 C1582 0.949 . S
H1578 C1584 0.950 . S
H1579 C1585 0.950 . S
H1580 C1586 0.949 . S
C1581 H1576 0.950 . S
C1581 C1583 1.327 . S
C1581 C1587 1.429 . S
C1582 C1574 1.574 . S
C1582 H1577 0.949 . S
C1582 C1588 1.368 . S
C1583 C1567 1.349 . S
C1583 H1575 0.950 . S
C1583 C1581 1.327 . S
C1584 C1572 1.349 . S
C1584 H1578 0.950 . S
C1584 C1585 1.327 . S
C1585 H1579 0.950 . S
C1585 C1584 1.327 . S
C1585 C1589 1.429 . S
C1586 C1569 1.574 . S
C1586 H1580 0.949 . S
C1586 C1590 1.368 . S
C1587 C1568 1.429 . S
C1587 C1581 1.429 . S
C1587 C1588 1.523 . S
C1588 C1569 1.368 . S
C1588 C1582 1.368 . S
C1588 C1587 1.523 . S
C1589 C1573 1.429 . S
C1589 C1585 1.429 . S
C1589 C1590 1.523 . S
C1590 C1574 1.368 . S
C1590 C1586 1.368 . S
C1590 C1589 1.523 . S
H1591 C1566 0.950 . S
H1592 C1568 0.950 . S
H1593 C1569 0.949 . S
H1594 C1571 0.950 . S
H1595 C1573 0.950 . S
C1596 C1597 1.349 . S
C1596 C1598 1.327 . S
C1596 H1621 0.950 . S
C1597 C1596 1.349 . S
C1597 C1613 1.349 . S
C1598 C1596 1.327 . S
C1598 C1617 1.429 . S
C1598 H1622 0.950 . S
C1599 C1616 1.574 . S
C1599 C1618 1.368 . S
C1599 H1623 0.949 . S
H1600 C1604 0.949 . S
C1601 C1602 1.349 . S
C1601 C1603 1.327 . S
C1601 H1624 0.950 . S
C1602 C1601 1.349 . S
C1602 C1614 1.349 . S
C1603 C1601 1.327 . S
C1603 C1619 1.429 . S
C1603 H1625 0.950 . S
C1604 H1600 0.949 . S
C1604 C1612 1.574 . S
C1604 C1620 1.368 . S
H1605 C1613 0.950 . S
H1606 C1611 0.950 . S
H1607 C1612 0.949 . S
H1608 C1614 0.950 . S
H1609 C1615 0.950 . S
H1610 C1616 0.949 . S
C1611 H1606 0.950 . S
C1611 C1613 1.327 . S
C1611 C1617 1.429 . S
C1612 C1604 1.574 . S
C1612 H1607 0.949 . S
C1612 C1618 1.368 . S
C1613 C1597 1.349 . S
C1613 H1605 0.950 . S
C1613 C1611 1.327 . S
C1614 C1602 1.349 . S
C1614 H1608 0.950 . S
C1614 C1615 1.327 . S
C1615 H1609 0.950 . S
C1615 C1614 1.327 . S
C1615 C1619 1.429 . S
C1616 C1599 1.574 . S
C1616 H1610 0.949 . S
C1616 C1620 1.368 . S
C1617 C1598 1.429 . S
C1617 C1611 1.429 . S
C1617 C1618 1.523 . S
C1618 C1599 1.368 . S
C1618 C1612 1.368 . S
C1618 C1617 1.523 . S
C1619 C1603 1.429 . S
C1619 C1615 1.429 . S
C1619 C1620 1.523 . S
C1620 C1604 1.368 . S
C1620 C1616 1.368 . S
C1620 C1619 1.523 . S
H1621 C1596 0.950 . S
H1622 C1598 0.950 . S
H1623 C1599 0.949 . S
H1624 C1601 0.950 . S
H1625 C1603 0.950 . S
C1626 C1627 1.349 . S
C1626 C1628 1.327 . S
C1626 H1651 0.950 . S
C1627 C1626 1.349 . S
C1627 C1643 1.349 . S
C1628 C1626 1.327 . S
C1628 C1647 1.429 . S
C1628 H1652 0.950 . S
C1629 C1646 1.574 . S
C1629 C1648 1.368 . S
C1629 H1653 0.949 . S
H1630 C1634 0.949 . S
C1631 C1632 1.349 . S
C1631 C1633 1.327 . S
C1631 H1654 0.950 . S
C1632 C1631 1.349 . S
C1632 C1644 1.349 . S
C1633 C1631 1.327 . S
C1633 C1649 1.429 . S
C1633 H1655 0.950 . S
C1634 H1630 0.949 . S
C1634 C1642 1.574 . S
C1634 C1650 1.368 . S
H1635 C1643 0.950 . S
H1636 C1641 0.950 . S
H1637 C1642 0.949 . S
H1638 C1644 0.950 . S
H1639 C1645 0.950 . S
H1640 C1646 0.949 . S
C1641 H1636 0.950 . S
C1641 C1643 1.327 . S
C1641 C1647 1.429 . S
C1642 C1634 1.574 . S
C1642 H1637 0.949 . S
C1642 C1648 1.368 . S
C1643 C1627 1.349 . S
C1643 H1635 0.950 . S
C1643 C1641 1.327 . S
C1644 C1632 1.349 . S
C1644 H1638 0.950 . S
C1644 C1645 1.327 . S
C1645 H1639 0.950 . S
C1645 C1644 1.327 . S
C1645 C1649 1.429 . S
C1646 C1629 1.574 . S
C1646 H1640 0.949 . S
C1646 C1650 1.368 . S
C1647 C1628 1.429 . S
C1647 C1641 1.429 . S
C1647 C1648 1.523 . S
C1648 C1629 1.368 . S
C1648 C1642 1.368 . S
C1648 C1647 1.523 . S
C1649 C1633 1.429 . S
C1649 C1645 1.429 . S
C1649 C1650 1.523 . S
C1650 C1634 1.368 . S
C1650 C1646 1.368 . S
C1650 C1649 1.523 . S
H1651 C1626 0.950 . S
H1652 C1628 0.950 . S
H1653 C1629 0.949 . S
H1654 C1631 0.950 . S
H1655 C1633 0.950 . S
C1656 C1657 1.349 . S
C1656 C1658 1.327 . S
C1656 H1681 0.950 . S
C1657 C1656 1.349 . S
C1657 C1673 1.349 . S
C1658 C1656 1.327 . S
C1658 C1677 1.429 . S
C1658 H1682 0.950 . S
C1659 C1676 1.574 . S
C1659 C1678 1.368 . S
C1659 H1683 0.949 . S
H1660 C1664 0.949 . S
C1661 C1662 1.349 . S
C1661 C1663 1.327 . S
C1661 H1684 0.950 . S
C1662 C1661 1.349 . S
C1662 C1674 1.349 . S
C1663 C1661 1.327 . S
C1663 C1679 1.429 . S
C1663 H1685 0.950 . S
C1664 H1660 0.949 . S
C1664 C1672 1.574 . S
C1664 C1680 1.368 . S
H1665 C1673 0.950 . S
H1666 C1671 0.950 . S
H1667 C1672 0.949 . S
H1668 C1674 0.950 . S
H1669 C1675 0.950 . S
H1670 C1676 0.949 . S
C1671 H1666 0.950 . S
C1671 C1673 1.327 . S
C1671 C1677 1.429 . S
C1672 C1664 1.574 . S
C1672 H1667 0.949 . S
C1672 C1678 1.368 . S
C1673 C1657 1.349 . S
C1673 H1665 0.950 . S
C1673 C1671 1.327 . S
C1674 C1662 1.349 . S
C1674 H1668 0.950 . S
C1674 C1675 1.327 . S
C1675 H1669 0.950 . S
C1675 C1674 1.327 . S
C1675 C1679 1.429 . S
C1676 C1659 1.574 . S
C1676 H1670 0.949 . S
C1676 C1680 1.368 . S
C1677 C1658 1.429 . S
C1677 C1671 1.429 . S
C1677 C1678 1.523 . S
C1678 C1659 1.368 . S
C1678 C1672 1.368 . S
C1678 C1677 1.523 . S
C1679 C1663 1.429 . S
C1679 C1675 1.429 . S
C1679 C1680 1.523 . S
C1680 C1664 1.368 . S
C1680 C1676 1.368 . S
C1680 C1679 1.523 . S
H1681 C1656 0.950 . S
H1682 C1658 0.950 . S
H1683 C1659 0.949 . S
H1684 C1661 0.950 . S
H1685 C1663 0.950 . S
C1686 C1687 1.349 . S
C1686 C1688 1.327 . S
C1686 H1711 0.950 . S
C1687 C1686 1.349 . S
C1687 C1703 1.349 . S
C1688 C1686 1.327 . S
C1688 C1707 1.429 . S
C1688 H1712 0.950 . S
C1689 C1706 1.574 . S
C1689 C1708 1.368 . S
C1689 H1713 0.949 . S
H1690 C1694 0.949 . S
C1691 C1692 1.349 . S
C1691 C1693 1.327 . S
C1691 H1714 0.950 . S
C1692 C1691 1.349 . S
C1692 C1704 1.349 . S
C1693 C1691 1.327 . S
C1693 C1709 1.429 . S
C1693 H1715 0.950 . S
C1694 H1690 0.949 . S
C1694 C1702 1.574 . S
C1694 C1710 1.368 . S
H1695 C1703 0.950 . S
H1696 C1701 0.950 . S
H1697 C1702 0.949 . S
H1698 C1704 0.950 . S
H1699 C1705 0.950 . S
H1700 C1706 0.949 . S
C1701 H1696 0.950 . S
C1701 C1703 1.327 . S
C1701 C1707 1.429 . S
C1702 C1694 1.574 . S
C1702 H1697 0.949 . S
C1702 C1708 1.368 . S
C1703 C1687 1.349 . S
C1703 H1695 0.950 . S
C1703 C1701 1.327 . S
C1704 C1692 1.349 . S
C1704 H1698 0.950 . S
C1704 C1705 1.327 . S
C1705 H1699 0.950 . S
C1705 C1704 1.327 . S
C1705 C1709 1.429 . S
C1706 C1689 1.574 . S
C1706 H1700 0.949 . S
C1706 C1710 1.368 . S
C1707 C1688 1.429 . S
C1707 C1701 1.429 . S
C1707 C1708 1.523 . S
C1708 C1689 1.368 . S
C1708 C1702 1.368 . S
C1708 C1707 1.523 . S
C1709 C1693 1.429 . S
C1709 C1705 1.429 . S
C1709 C1710 1.523 . S
C1710 C1694 1.368 . S
C1710 C1706 1.368 . S
C1710 C1709 1.523 . S
H1711 C1686 0.950 . S
H1712 C1688 0.950 . S
H1713 C1689 0.949 . S
H1714 C1691 0.950 . S
H1715 C1693 0.950 . S
C1716 C1717 1.349 . S
C1716 C1718 1.327 . S
C1716 H1741 0.950 . S
C1717 C1716 1.349 . S
C1717 C1733 1.349 . S
C1718 C1716 1.327 . S
C1718 C1737 1.429 . S
C1718 H1742 0.950 . S
C1719 C1736 1.574 . S
C1719 C1738 1.368 . S
C1719 H1743 0.949 . S
H1720 C1724 0.949 . S
C1721 C1722 1.349 . S
C1721 C1723 1.327 . S
C1721 H1744 0.950 . S
C1722 C1721 1.349 . S
C1722 C1734 1.349 . S
C1723 C1721 1.327 . S
C1723 C1739 1.429 . S
C1723 H1745 0.950 . S
C1724 H1720 0.949 . S
C1724 C1732 1.574 . S
C1724 C1740 1.368 . S
H1725 C1733 0.950 . S
H1726 C1731 0.950 . S
H1727 C1732 0.949 . S
H1728 C1734 0.950 . S
H1729 C1735 0.950 . S
H1730 C1736 0.949 . S
C1731 H1726 0.950 . S
C1731 C1733 1.327 . S
C1731 C1737 1.429 . S
C1732 C1724 1.574 . S
C1732 H1727 0.949 . S
C1732 C1738 1.368 . S
C1733 C1717 1.349 . S
C1733 H1725 0.950 . S
C1733 C1731 1.327 . S
C1734 C1722 1.349 . S
C1734 H1728 0.950 . S
C1734 C1735 1.327 . S
C1735 H1729 0.950 . S
C1735 C1734 1.327 . S
C1735 C1739 1.429 . S
C1736 C1719 1.574 . S
C1736 H1730 0.949 . S
C1736 C1740 1.368 . S
C1737 C1718 1.429 . S
C1737 C1731 1.429 . S
C1737 C1738 1.523 . S
C1738 C1719 1.368 . S
C1738 C1732 1.368 . S
C1738 C1737 1.523 . S
C1739 C1723 1.429 . S
C1739 C1735 1.429 . S
C1739 C1740 1.523 . S
C1740 C1724 1.368 . S
C1740 C1736 1.368 . S
C1740 C1739 1.523 . S
H1741 C1716 0.950 . S
H1742 C1718 0.950 . S
H1743 C1719 0.949 . S
H1744 C1721 0.950 . S
H1745 C1723 0.950 . S
C1746 C1747 1.349 . S
C1746 C1748 1.327 . S
C1746 H1771 0.950 . S
C1747 C1746 1.349 . S
C1747 C1763 1.349 . S
C1748 C1746 1.327 . S
C1748 C1767 1.429 . S
C1748 H1772 0.950 . S
C1749 C1766 1.574 . S
C1749 C1768 1.368 . S
C1749 H1773 0.949 . S
H1750 C1754 0.949 . S
C1751 C1752 1.349 . S
C1751 C1753 1.327 . S
C1751 H1774 0.950 . S
C1752 C1751 1.349 . S
C1752 C1764 1.349 . S
C1753 C1751 1.327 . S
C1753 C1769 1.429 . S
C1753 H1775 0.950 . S
C1754 H1750 0.949 . S
C1754 C1762 1.574 . S
C1754 C1770 1.368 . S
H1755 C1763 0.950 . S
H1756 C1761 0.950 . S
H1757 C1762 0.949 . S
H1758 C1764 0.950 . S
H1759 C1765 0.950 . S
H1760 C1766 0.949 . S
C1761 H1756 0.950 . S
C1761 C1763 1.327 . S
C1761 C1767 1.429 . S
C1762 C1754 1.574 . S
C1762 H1757 0.949 . S
C1762 C1768 1.368 . S
C1763 C1747 1.349 . S
C1763 H1755 0.950 . S
C1763 C1761 1.327 . S
C1764 C1752 1.349 . S
C1764 H1758 0.950 . S
C1764 C1765 1.327 . S
C1765 H1759 0.950 . S
C1765 C1764 1.327 . S
C1765 C1769 1.429 . S
C1766 C1749 1.574 . S
C1766 H1760 0.949 . S
C1766 C1770 1.368 . S
C1767 C1748 1.429 . S
C1767 C1761 1.429 . S
C1767 C1768 1.523 . S
C1768 C1749 1.368 . S
C1768 C1762 1.368 . S
C1768 C1767 1.523 . S
C1769 C1753 1.429 . S
C1769 C1765 1.429 . S
C1769 C1770 1.523 . S
C1770 C1754 1.368 . S
C1770 C1766 1.368 . S
C1770 C1769 1.523 . S
H1771 C1746 0.950 . S
H1772 C1748 0.950 . S
H1773 C1749 0.949 . S
H1774 C1751 0.950 . S
H1775 C1753 0.950 . S
C337 C208 1.262 . S
C342 C11 1.248 . S
C367 C26 1.182 . S
C372 C215 1.035 . S
C397 C256 1.298 . S
C402 C32 1.295 . S
C427 C47 0.854 . S
C432 C187 0.854 . S
C457 C201 0.894 . S
C462 C61 0.892 . S
C487 C82 1.188 . S
C492 C222 1.188 . S
C517 C96 1.264 . S
C522 C263 1.251 . S
C547 C103 1.035 . S
C552 C194 1.182 . S
C577 C138 1.264 . S
C582 C123 1.251 . S
C607 C145 0.894 . S
C612 C131 0.892 . S
C637 C152 1.262 . S
C642 C165 1.248 . S
C667 C158 1.295 . S
C672 C116 1.298 . S
C697 C173 1.035 . S
C702 C54 1.182 . S
C727 C68 1.264 . S
C732 C235 1.251 . S
C757 C243 0.854 . S
C762 C19 0.854 . S
C787 C25 1.351 . S
C792 C299 1.166 . S
C817 C137 1.318 . S
C822 C5 1.140 . S
C847 C326 1.259 . S
C852 C46 1.258 . S
C877 C166 1.474 . S
C882 C40 1.474 . S
C907 C306 1.485 . S
C912 C102 1.453 . S
C937 C130 1.395 . S
C942 C88 1.395 . S
C967 C81 1.270 . S
C972 C333 1.284 . S
C997 C67 1.318 . S
C1002 C159 1.140 . S
C1027 C221 1.270 . S
C1032 C277 1.284 . S
C1057 C236 1.485 . S
C1062 C214 1.453 . S
C1087 C193 1.351 . S
C1092 C229 1.166 . S
C1117 C270 1.259 . S
C1122 C186 1.258 . S
C1147 C33 1.140 . S
C1152 C291 1.318 . S
C1177 C151 1.284 . S
C1182 C109 1.270 . S
C1207 C12 1.474 . S
C1212 C320 1.474 . S
C1237 C278 1.262 . S
C1242 C39 1.248 . S
C1267 C4 1.295 . S
C1272 C228 1.298 . S
C1297 C271 0.894 . S
C1302 C89 0.892 . S
C1327 C180 1.188 . S
C1332 C110 1.188 . S
C1357 C75 1.035 . S
C1362 C250 1.182 . S
C1387 C305 1.251 . S
C1392 C292 1.264 . S
C1417 C327 0.894 . S
C1422 C285 0.892 . S
C1447 C319 1.248 . S
C1452 C334 1.262 . S
C1477 C298 1.298 . S
C1482 C312 1.295 . S
C1507 C117 1.166 . S
C1512 C53 1.351 . S
C1537 C18 1.258 . S
C1542 C144 1.259 . S
C1567 C74 1.453 . S
C1572 C124 1.485 . S
C1597 C284 1.395 . S
C1602 C60 1.395 . S
C1627 C95 1.318 . S
C1632 C313 1.140 . S
C1657 C179 1.270 . S
C1662 C207 1.284 . S
C1687 C264 1.485 . S
C1692 C172 1.453 . S
C1717 C249 1.352 . S
C1722 C257 1.166 . S
C1747 C200 1.259 . S
C1752 C242 1.258 . S
