# Generated by pormake.
# Topology rac, (4)-cn, num edge types: 1
# Building blocks:
#     Node 0, Type 0, BuildingBlock: QUQFOY_clean_sbu_3, # of connection points: 4
#     Node 1, Type 0, BuildingBlock: QUQFOY_clean_sbu_3, # of connection points: 4
#     Node 2, Type 0, BuildingBlock: QUQFOY_clean_sbu_3, # of connection points: 4
#     Node 3, Type 0, BuildingBlock: QUQFOY_clean_sbu_3, # of connection points: 4
#     Node 4, Type 0, BuildingBlock: QUQFOY_clean_sbu_3, # of connection points: 4
#     Node 5, Type 0, BuildingBlock: QUQFOY_clean_sbu_3, # of connection points: 4
#     Node 6, Type 0, BuildingBlock: QUQFOY_clean_sbu_3, # of connection points: 4
#     Node 7, Type 0, BuildingBlock: QUQFOY_clean_sbu_3, # of connection points: 4
#     Edge 8, Type (0, 0), BuildingBlock: FUNLAD_clean_linker_1, # of connection points: 2
#     Edge 9, Type (0, 0), BuildingBlock: FUNLAD_clean_linker_1, # of connection points: 2
#     Edge 10, Type (0, 0), BuildingBlock: FUNLAD_clean_linker_1, # of connection points: 2
#     Edge 11, Type (0, 0), BuildingBlock: FUNLAD_clean_linker_1, # of connection points: 2
#     Edge 12, Type (0, 0), BuildingBlock: FUNLAD_clean_linker_1, # of connection points: 2
#     Edge 13, Type (0, 0), BuildingBlock: FUNLAD_clean_linker_1, # of connection points: 2
#     Edge 14, Type (0, 0), BuildingBlock: FUNLAD_clean_linker_1, # of connection points: 2
#     Edge 15, Type (0, 0), BuildingBlock: FUNLAD_clean_linker_1, # of connection points: 2
#     Edge 16, Type (0, 0), BuildingBlock: FUNLAD_clean_linker_1, # of connection points: 2
#     Edge 17, Type (0, 0), BuildingBlock: FUNLAD_clean_linker_1, # of connection points: 2
#     Edge 18, Type (0, 0), BuildingBlock: FUNLAD_clean_linker_1, # of connection points: 2
#     Edge 19, Type (0, 0), BuildingBlock: FUNLAD_clean_linker_1, # of connection points: 2
#     Edge 20, Type (0, 0), BuildingBlock: FUNLAD_clean_linker_1, # of connection points: 2
#     Edge 21, Type (0, 0), BuildingBlock: FUNLAD_clean_linker_1, # of connection points: 2
#     Edge 22, Type (0, 0), BuildingBlock: FUNLAD_clean_linker_1, # of connection points: 2
#     Edge 23, Type (0, 0), BuildingBlock: FUNLAD_clean_linker_1, # of connection points: 2
# Relax obj value: 0.232
# Max RMSD: 0.072
# Mean RMSD: 0.072
data_MOF--net-rac--node1-QUQFOY_clean_sbu_3--edge1-FUNLAD_clean_linker_1
_symmetry_space_group_name_H-M    P1
_symmetry_Int_Tables_number       1
_symmetry_cell_setting            triclinic
loop_
_symmetry_equiv_pos_as_xyz
'x, y, z'
_cell_length_a     44.641692
_cell_length_b     22.153472
_cell_length_c     39.064118
_cell_angle_alpha  89.996951
_cell_angle_beta   89.9299844
_cell_angle_gamma 90.104338
loop_
_atom_site_label
_atom_site_type_symbol
_atom_site_fract_x
_atom_site_fract_y
_atom_site_fract_z
_atom_type_partial_charge
C0 C 0.31476 0.34318 0.08974 0.0
O1 O 0.2929 0.3743 0.07891 0.0
Cd2 Cd 0.27838 0.37398 0.01971 0.0
O3 O 0.33249 0.31699 0.06893 0.0
Cd4 Cd 0.34349 0.30813 0.00696 0.0
C5 C 0.28314 0.21742 0.00986 0.0
O6 O 0.32014 0.39504 0.98461 0.0
O7 O 0.32512 0.32333 0.94791 0.0
O8 O 0.38608 0.36702 0.02124 0.0
C9 C 0.3168 0.37694 0.95407 0.0
O10 O 0.26853 0.26677 0.01094 0.0
C11 C 0.4053 0.33612 0.00501 0.0
O12 O 0.31183 0.21648 0.01038 0.0
O13 O 0.39627 0.28731 0.99098 0.0
C14 C 0.166 0.68671 0.13274 0.0
O15 O 0.18781 0.65851 0.11949 0.0
Cd16 Cd 0.19357 0.64962 0.05872 0.0
O17 O 0.14474 0.70669 0.11423 0.0
Cd18 Cd 0.12722 0.70567 0.05408 0.0
C19 C 0.18371 0.8012 0.03808 0.0
O20 O 0.14862 0.61191 0.0346 0.0
O21 O 0.13657 0.67496 0.99496 0.0
O22 O 0.08446 0.66298 0.08255 0.0
C23 C 0.14611 0.62302 0.00285 0.0
O24 O 0.19955 0.75358 0.03994 0.0
C25 C 0.06528 0.68115 0.06108 0.0
O26 O 0.15558 0.80033 0.0444 0.0
O27 O 0.07426 0.71753 0.03796 0.0
C28 C 0.34925 0.21051 0.34161 0.0
O29 O 0.32472 0.18703 0.35139 0.0
Cd30 Cd 0.31236 0.16847 0.41 0.0
O31 O 0.37009 0.22177 0.36295 0.0
Cd32 Cd 0.37992 0.20822 0.42535 0.0
C33 C 0.32765 0.31286 0.44059 0.0
O34 O 0.35237 0.11639 0.43668 0.0
O35 O 0.36115 0.17322 0.4804 0.0
O36 O 0.42505 0.15916 0.406 0.0
C37 C 0.3518 0.12322 0.46894 0.0
O38 O 0.3096 0.26977 0.43393 0.0
C39 C 0.44088 0.17472 0.4314 0.0
O40 O 0.35594 0.30619 0.4374 0.0
O41 O 0.42958 0.21265 0.45218 0.0
C42 C 0.1547 0.80514 0.38867 0.0
O43 O 0.1803 0.82792 0.39459 0.0
Cd44 Cd 0.20188 0.83501 0.45008 0.0
O45 O 0.13727 0.79001 0.4131 0.0
Cd46 Cd 0.13527 0.7945 0.47704 0.0
C47 C 0.18726 0.68547 0.47362 0.0
O48 O 0.16617 0.87941 0.48659 0.0
O49 O 0.16394 0.81935 0.52964 0.0
O50 O 0.0922 0.8572 0.47004 0.0
C51 C 0.17342 0.86871 0.51727 0.0
O52 O 0.20491 0.72862 0.46566 0.0
C53 C 0.07581 0.83123 0.49212 0.0
O54 O 0.1592 0.69431 0.47779 0.0
O55 O 0.08624 0.78388 0.50625 0.0
C56 C 0.66829 0.67484 0.88441 0.0
O57 O 0.6929 0.65206 0.89413 0.0
Cd58 Cd 0.7085 0.64901 0.95259 0.0
O59 O 0.64861 0.69171 0.90608 0.0
Cd60 Cd 0.64001 0.68878 0.96923 0.0
C61 C 0.69183 0.79865 0.97348 0.0
O62 O 0.67002 0.60526 0.98582 0.0
O63 O 0.66148 0.66888 0.02631 0.0
O64 O 0.5996 0.62141 0.9572 0.0
C65 C 0.67271 0.61892 0.01716 0.0
O66 O 0.71012 0.75547 0.96815 0.0
C67 C 0.58001 0.64754 0.97541 0.0
O68 O 0.66352 0.78978 0.97336 0.0
O69 O 0.58751 0.6972 0.98955 0.0
C70 C 0.8605 0.29171 0.89161 0.0
O71 O 0.83576 0.31618 0.89957 0.0
Cd72 Cd 0.81976 0.32465 0.95758 0.0
O73 O 0.87918 0.27637 0.91463 0.0
Cd74 Cd 0.88594 0.28372 0.97784 0.0
C75 C 0.83393 0.1756 0.98202 0.0
O76 O 0.85806 0.37391 0.98895 0.0
O77 O 0.86311 0.31495 0.03236 0.0
O78 O 0.93088 0.33265 0.95837 0.0
C79 C 0.85474 0.36559 0.02083 0.0
O80 O 0.81627 0.21911 0.97511 0.0
C81 C 0.94638 0.3208 0.98461 0.0
O82 O 0.86226 0.1836 0.98329 0.0
O83 O 0.93502 0.28507 0.00665 0.0
C84 C 0.63756 0.7851 0.63038 0.0
O85 O 0.6632 0.80545 0.62218 0.0
Cd86 Cd 0.67929 0.81905 0.56408 0.0
O87 O 0.61778 0.77481 0.60763 0.0
Cd88 Cd 0.61118 0.78621 0.54468 0.0
C89 C 0.66176 0.67524 0.53474 0.0
O90 O 0.64196 0.87463 0.5348 0.0
O91 O 0.6294 0.82358 0.48982 0.0
O92 O 0.5667 0.83824 0.56336 0.0
C93 C 0.64168 0.87007 0.50239 0.0
O94 O 0.68059 0.71647 0.54223 0.0
C95 C 0.55093 0.8239 0.53767 0.0
O96 O 0.63361 0.68548 0.53536 0.0
O97 O 0.56187 0.78546 0.51692 0.0
C98 C 0.82209 0.17904 0.64053 0.0
O99 O 0.79659 0.15824 0.63241 0.0
Cd100 Cd 0.77946 0.14721 0.57486 0.0
O101 O 0.84168 0.19113 0.61773 0.0
Cd102 Cd 0.84767 0.18127 0.55456 0.0
C103 C 0.7966 0.29169 0.54604 0.0
O104 O 0.8166 0.09528 0.5435 0.0
O105 O 0.82534 0.15182 0.4996 0.0
O106 O 0.89025 0.11873 0.56616 0.0
C107 C 0.81381 0.10397 0.51165 0.0
O108 O 0.77781 0.25041 0.5537 0.0
C109 C 0.90808 0.14423 0.54539 0.0
O110 O 0.82477 0.28157 0.54629 0.0
O111 O 0.89861 0.1912 0.53007 0.0
H112 H 0.24171 0.16574 0.00271 0.0
C113 C 0.26532 0.16147 0.00918 0.0
H114 H 0.2985 0.10281 0.02845 0.0
H115 H 0.1971 0.94207 0.09899 0.0
H116 H 0.21949 0.99054 0.14845 0.0
H117 H 0.25781 0.06993 0.14138 0.0
H118 H 0.27427 0.10091 0.08481 0.0
C119 C 0.27562 0.10767 0.01944 0.0
C120 C 0.25423 0.05647 0.02353 0.0
C121 C 0.24494 0.03881 0.05679 0.0
C122 C 0.22261 0.99343 0.06087 0.0
C123 C 0.21387 0.97646 0.0944 0.0
C124 C 0.22653 0.00394 0.12302 0.0
C125 C 0.24813 0.04862 0.11904 0.0
C126 C 0.25733 0.06601 0.0864 0.0
H127 H 0.22224 0.85267 0.01921 0.0
C128 C 0.19964 0.85735 0.02933 0.0
H129 H 0.16771 0.91901 0.04849 0.0
H130 H 0.26826 0.077 0.95629 0.0
H131 H 0.24473 0.03077 0.90679 0.0
H132 H 0.20442 0.95543 0.91387 0.0
H133 H 0.18758 0.92547 0.97052 0.0
C134 C 0.18933 0.91281 0.03619 0.0
C135 C 0.20976 0.96552 0.0317 0.0
C136 C 0.21872 0.98387 0.99843 0.0
C137 C 0.24128 0.02871 0.99434 0.0
C138 C 0.2506 0.04446 0.96084 0.0
C139 C 0.2374 0.01803 0.93222 0.0
C140 C 0.21477 0.97548 0.9362 0.0
C141 C 0.20544 0.95843 0.96885 0.0
H142 H 0.18422 0.58581 0.47841 0.0
C143 C 0.19954 0.62364 0.47546 0.0
H144 H 0.24465 0.65106 0.46899 0.0
H145 H 0.30409 0.40732 0.51625 0.0
H146 H 0.31082 0.46656 0.56789 0.0
H147 H 0.28624 0.56556 0.57441 0.0
H148 H 0.25454 0.60569 0.52939 0.0
C149 C 0.22905 0.61353 0.47108 0.0
C150 C 0.24192 0.55197 0.46807 0.0
C151 C 0.2607 0.52953 0.49437 0.0
C152 C 0.27521 0.47282 0.49041 0.0
C153 C 0.29308 0.45069 0.51756 0.0
C154 C 0.29701 0.48412 0.54743 0.0
C155 C 0.28316 0.53985 0.55111 0.0
C156 C 0.26512 0.56244 0.52503 0.0
H157 H 0.32998 0.4109 0.45205 0.0
C158 C 0.3151 0.37213 0.45039 0.0
H159 H 0.27044 0.34058 0.45317 0.0
H160 H 0.2089 0.58361 0.41157 0.0
H161 H 0.20226 0.52462 0.36 0.0
H162 H 0.22693 0.42576 0.3534 0.0
H163 H 0.25857 0.38564 0.39827 0.0
C164 C 0.28545 0.37903 0.45555 0.0
C165 C 0.27122 0.43916 0.45989 0.0
C166 C 0.25227 0.46145 0.43365 0.0
C167 C 0.23777 0.51812 0.43761 0.0
C168 C 0.21994 0.54029 0.41038 0.0
C169 C 0.21603 0.50698 0.38047 0.0
C170 C 0.22993 0.45136 0.37675 0.0
C171 C 0.24795 0.42876 0.40284 0.0
H172 H 0.68875 0.89811 0.97998 0.0
C173 C 0.70407 0.86011 0.97867 0.0
H174 H 0.74926 0.83167 0.97859 0.0
H175 H 0.80664 0.07062 0.92391 0.0
H176 H 0.80945 0.00752 0.87343 0.0
H177 H 0.78414 0.9085 0.87174 0.0
H178 H 0.75566 0.8723 0.92047 0.0
C179 C 0.73388 0.86946 0.98067 0.0
C180 C 0.74761 0.93067 0.98162 0.0
C181 C 0.76463 0.95079 0.95311 0.0
C182 C 0.77951 0.00758 0.95422 0.0
C183 C 0.79543 0.02736 0.92486 0.0
C184 C 0.79712 0.99168 0.89557 0.0
C185 C 0.78286 0.93596 0.89461 0.0
C186 C 0.76669 0.91562 0.92288 0.0
H187 H 0.83623 0.07615 0.98845 0.0
C188 C 0.82115 0.11436 0.98608 0.0
H189 H 0.77601 0.14307 0.98295 0.0
H190 H 0.71842 0.90412 0.04154 0.0
H191 H 0.71527 0.96775 0.09192 0.0
H192 H 0.74043 0.06694 0.09349 0.0
H193 H 0.76917 0.10287 0.04476 0.0
C194 C 0.79132 0.10509 0.98449 0.0
C195 C 0.77767 0.04383 0.98408 0.0
C196 C 0.76054 0.02388 0.01251 0.0
C197 C 0.74567 0.96701 0.01142 0.0
C198 C 0.72961 0.94741 0.04066 0.0
C199 C 0.72773 0.9834 0.06983 0.0
C200 C 0.74191 0.03923 0.07073 0.0
C201 C 0.75824 0.0594 0.04254 0.0
H202 H 0.65733 0.5761 0.5281 0.0
C203 C 0.6731 0.61353 0.5284 0.0
H204 H 0.71856 0.64022 0.52732 0.0
H205 H 0.76956 0.40766 0.59662 0.0
H206 H 0.7726 0.47928 0.64322 0.0
H207 H 0.74975 0.58017 0.63824 0.0
H208 H 0.72354 0.60972 0.58668 0.0
C209 C 0.70276 0.60288 0.52626 0.0
C210 C 0.71565 0.54124 0.52889 0.0
C211 C 0.73149 0.52508 0.559 0.0
C212 C 0.74504 0.46724 0.56168 0.0
C213 C 0.75957 0.4515 0.59267 0.0
C214 C 0.76132 0.4921 0.61981 0.0
C215 C 0.74845 0.54886 0.61702 0.0
C216 C 0.73357 0.56531 0.58714 0.0
H217 H 0.80117 0.3898 0.53584 0.0
C218 C 0.78526 0.35295 0.53866 0.0
H219 H 0.73955 0.32732 0.53912 0.0
H220 H 0.68823 0.55906 0.46709 0.0
H221 H 0.68486 0.48704 0.42043 0.0
H222 H 0.70798 0.38632 0.42524 0.0
H223 H 0.73483 0.35714 0.47663 0.0
C224 C 0.75561 0.36413 0.53741 0.0
C225 C 0.74317 0.42603 0.53396 0.0
C226 C 0.7272 0.44208 0.50396 0.0
C227 C 0.71357 0.49992 0.50131 0.0
C228 C 0.69852 0.51536 0.47068 0.0
C229 C 0.69652 0.47452 0.44365 0.0
C230 C 0.70955 0.41781 0.44635 0.0
C231 C 0.72481 0.40158 0.47603 0.0
H232 H 0.30156 0.35397 0.14384 0.0
C233 C 0.3181 0.33381 0.12691 0.0
H234 H 0.35525 0.27523 0.12323 0.0
H235 H 0.34055 0.34111 0.29023 0.0
H236 H 0.3536 0.44358 0.27458 0.0
H237 H 0.36139 0.47171 0.21411 0.0
H238 H 0.35548 0.3976 0.1689 0.0
C239 C 0.3393 0.29752 0.14002 0.0
C240 C 0.33871 0.27943 0.1767 0.0
C241 C 0.34377 0.32255 0.2029 0.0
C242 C 0.34081 0.30554 0.23787 0.0
C243 C 0.34388 0.35062 0.26336 0.0
C244 C 0.35116 0.40986 0.25471 0.0
C245 C 0.35543 0.42575 0.22067 0.0
C246 C 0.35179 0.38283 0.19496 0.0
H247 H 0.37534 0.24297 0.29709 0.0
C248 C 0.35342 0.22717 0.30534 0.0
H249 H 0.30866 0.20976 0.29081 0.0
H250 H 0.32778 0.18535 0.13274 0.0
H251 H 0.31679 0.08187 0.14838 0.0
H252 H 0.3141 0.05125 0.20902 0.0
H253 H 0.3223 0.12411 0.25439 0.0
C254 C 0.33056 0.22625 0.28296 0.0
C255 C 0.33433 0.24464 0.24656 0.0
C256 C 0.33007 0.20122 0.22034 0.0
C257 C 0.33212 0.21866 0.18538 0.0
C258 C 0.32698 0.17457 0.15973 0.0
C259 C 0.32056 0.11493 0.16834 0.0
C260 C 0.31901 0.09771 0.20247 0.0
C261 C 0.3237 0.14009 0.22826 0.0
H262 H 0.12338 0.7745 0.34838 0.0
C263 C 0.14571 0.7923 0.35309 0.0
H264 H 0.18746 0.81613 0.33128 0.0
H265 H 0.13573 0.6258 0.21489 0.0
H266 H 0.139 0.54943 0.25924 0.0
H267 H 0.15202 0.57725 0.31855 0.0
H268 H 0.16109 0.68149 0.334 0.0
C269 C 0.1652 0.79768 0.327 0.0
C270 C 0.15737 0.78004 0.29141 0.0
C271 C 0.15312 0.71838 0.28273 0.0
C272 C 0.14716 0.7019 0.24822 0.0
C273 C 0.14156 0.64047 0.24044 0.0
C274 C 0.14317 0.59621 0.26569 0.0
C275 C 0.15037 0.61191 0.2991 0.0
C276 C 0.15534 0.67213 0.30767 0.0
H277 H 0.18533 0.68275 0.18459 0.0
C278 C 0.16616 0.69825 0.16988 0.0
H279 H 0.12548 0.74692 0.17108 0.0
H280 H 0.16348 0.90215 0.29969 0.0
H281 H 0.16235 0.97789 0.25484 0.0
H282 H 0.15441 0.94878 0.19457 0.0
H283 H 0.14728 0.84392 0.17881 0.0
C284 C 0.14428 0.7293 0.18562 0.0
C285 C 0.14704 0.74666 0.22225 0.0
C286 C 0.15099 0.80827 0.23099 0.0
C287 C 0.15607 0.82497 0.26563 0.0
C288 C 0.15993 0.88686 0.27369 0.0
C289 C 0.15927 0.93084 0.24822 0.0
C290 C 0.15476 0.91446 0.2143 0.0
C291 C 0.15066 0.85402 0.20562 0.0
H292 H 0.68155 0.67049 0.83022 0.0
C293 C 0.66366 0.68429 0.84745 0.0
H294 H 0.62189 0.72846 0.85147 0.0
H295 H 0.64672 0.88173 0.71711 0.0
H296 H 0.6447 0.95941 0.76086 0.0
H297 H 0.63988 0.93236 0.82188 0.0
H298 H 0.63686 0.82763 0.83953 0.0
C299 C 0.63947 0.71223 0.83458 0.0
C300 C 0.63833 0.72843 0.79759 0.0
C301 C 0.63983 0.78997 0.78776 0.0
C302 C 0.64301 0.80557 0.75263 0.0
C303 C 0.64463 0.86737 0.74348 0.0
C304 C 0.64344 0.91241 0.76832 0.0
C305 C 0.64069 0.89718 0.80267 0.0
C306 C 0.63897 0.8368 0.81244 0.0
H307 H 0.60852 0.75359 0.67269 0.0
C308 C 0.63067 0.77094 0.66647 0.0
H309 H 0.67329 0.79492 0.68567 0.0
H310 H 0.63016 0.60721 0.80723 0.0
H311 H 0.63255 0.52928 0.76362 0.0
H312 H 0.64156 0.55569 0.70311 0.0
H313 H 0.64765 0.65998 0.68577 0.0
C314 C 0.65128 0.77635 0.69131 0.0
C315 C 0.64474 0.75968 0.72743 0.0
C316 C 0.642 0.69817 0.73713 0.0
C317 C 0.63814 0.68267 0.77219 0.0
C318 C 0.63429 0.62119 0.78111 0.0
C319 C 0.63542 0.57608 0.75632 0.0
C320 C 0.64039 0.59097 0.72224 0.0
C321 C 0.6437 0.65117 0.71261 0.0
H322 H 0.81031 0.18121 0.69514 0.0
C323 C 0.82811 0.19109 0.67693 0.0
H324 H 0.87141 0.22823 0.67037 0.0
H325 H 0.85555 0.39019 0.80355 0.0
H326 H 0.85978 0.46579 0.7588 0.0
H327 H 0.86259 0.43591 0.69804 0.0
H328 H 0.8614 0.33035 0.68166 0.0
C329 C 0.85374 0.21592 0.68822 0.0
C330 C 0.85675 0.23327 0.72486 0.0
C331 C 0.85781 0.29518 0.73393 0.0
C332 C 0.85579 0.31246 0.76891 0.0
C333 C 0.85666 0.37463 0.77732 0.0
C334 C 0.85915 0.41847 0.75191 0.0
C335 C 0.86076 0.40164 0.7177 0.0
C336 C 0.86005 0.34083 0.70865 0.0
H337 H 0.88855 0.2566 0.84943 0.0
C338 C 0.86724 0.27774 0.85552 0.0
H339 H 0.82585 0.30878 0.83614 0.0
H340 H 0.86046 0.11093 0.71654 0.0
H341 H 0.85553 0.03504 0.76107 0.0
H342 H 0.84803 0.06477 0.82134 0.0
H343 H 0.8461 0.17017 0.83753 0.0
C344 C 0.84702 0.28665 0.8306 0.0
C345 C 0.85265 0.26784 0.79466 0.0
C346 C 0.85287 0.20574 0.7857 0.0
C347 C 0.8557 0.18852 0.7508 0.0
C348 C 0.85713 0.12634 0.74255 0.0
C349 C 0.85453 0.08237 0.76786 0.0
C350 C 0.85043 0.09911 0.8018 0.0
C351 C 0.84954 0.15995 0.81077 0.0
H352 H 0.45123 0.33606 0.98304 0.0
C353 C 0.43571 0.36063 -0.00068 0.0
H354 H 0.42726 0.44111 0.02686 0.0
H355 H 0.55936 0.53803 0.0345 0.0
H356 H 0.55505 0.49528 0.09139 0.0
H357 H 0.51181 0.43148 0.10706 0.0
H358 H 0.47272 0.40957 0.06571 0.0
C359 C 0.44263 0.4166 0.01037 0.0
C360 C 0.47005 0.44972 -0.00037 0.0
C361 C 0.4925 0.46277 0.02415 0.0
C362 C 0.51724 0.50019 0.01522 0.0
C363 C 0.53977 0.51093 0.04 0.0
C364 C 0.53764 0.48645 0.07277 0.0
C365 C 0.51331 0.45051 0.08159 0.0
C366 C 0.49098 0.4385 0.05766 0.0
H367 H 0.53486 0.64004 0.99894 0.0
C368 C 0.55103 0.61771 0.98246 0.0
H369 H 0.56199 0.53845 0.95492 0.0
H370 H 0.42984 0.43727 0.94689 0.0
H371 H 0.43428 0.47971 0.89002 0.0
H372 H 0.47771 0.54291 0.87427 0.0
H373 H 0.51681 0.56459 0.91559 0.0
C374 C 0.54597 0.56088 0.97156 0.0
C375 C 0.51921 0.5252 0.98185 0.0
C376 C 0.4969 0.51177 0.95723 0.0
C377 C 0.47212 0.47449 0.96619 0.0
C378 C 0.44953 0.46402 0.94141 0.0
C379 C 0.45172 0.48838 0.90862 0.0
C380 C 0.47615 0.52399 0.89976 0.0
C381 C 0.49849 0.53589 0.92369 0.0
H382 H 0.0282 0.62775 0.08186 0.0
C383 C 0.03685 0.64797 0.05847 0.0
H384 H 0.03988 0.63952 0.00499 0.0
H385 H 0.03221 0.35682 0.0138 0.0
H386 H 0.08513 0.37252 0.00246 0.0
H387 H 0.10675 0.47508 0.00237 0.0
H388 H 0.07576 0.56236 0.01375 0.0
C389 C 0.02906 0.62364 0.02828 0.0
C390 C 0.01534 0.56235 0.02728 0.0
C391 C 0.03382 0.51171 0.0201 0.0
C392 C 0.02136 0.45257 0.01979 0.0
C393 C 0.04044 0.40277 0.01356 0.0
C394 C 0.07088 0.41112 0.00723 0.0
C395 C 0.08306 0.46884 0.00722 0.0
C396 C 0.06492 0.51865 0.0137 0.0
H397 H 0.98392 0.37904 0.96993 0.0
C398 C 0.97276 0.35846 0.99179 0.0
H399 H 0.96323 0.36655 0.04433 0.0
H400 H 0.97404 0.6495 0.04167 0.0
H401 H 0.92098 0.63408 0.05243 0.0
H402 H 0.89898 0.53186 0.05085 0.0
H403 H 0.92977 0.4446 0.03881 0.0
C404 C 0.9764 0.38326 0.02289 0.0
C405 C 0.99037 0.44417 0.02609 0.0
C406 C 0.97194 0.49483 0.03352 0.0
C407 C 0.9845 0.55392 0.0342 0.0
C408 C 0.9656 0.60369 0.04113 0.0
C409 C 0.93511 0.59549 0.04722 0.0
C410 C 0.92274 0.53795 0.04634 0.0
C411 C 0.94077 0.48811 0.0395 0.0
H412 H 0.51443 0.88664 0.54959 0.0
C413 C 0.52504 0.86175 0.52888 0.0
H414 H 0.53403 0.85993 0.476 0.0
H415 H 0.42341 0.06252 0.48761 0.0
H416 H 0.39106 0.97865 0.50243 0.0
H417 H 0.41179 0.87671 0.51138 0.0
H418 H 0.46514 0.85816 0.5055 0.0
C419 C 0.5213 0.88089 0.49654 0.0
C420 C 0.50822 0.94153 0.48984 0.0
C421 C 0.47708 0.95168 0.49351 0.0
C422 C 0.4652 0.0105 0.48828 0.0
C423 C 0.43384 0.01906 0.4916 0.0
C424 C 0.41493 0.9712 0.5 0.0
C425 C 0.4266 0.91381 0.50505 0.0
C426 C 0.45727 0.90385 0.50176 0.0
H427 H 0.47789 0.1133 0.41937 0.0
C428 C 0.46729 0.13824 0.44007 0.0
H429 H 0.45875 0.14064 0.49304 0.0
H430 H 0.56932 0.93807 0.48148 0.0
H431 H 0.60167 0.02192 0.46669 0.0
H432 H 0.58098 0.12393 0.45786 0.0
H433 H 0.52759 0.14245 0.46362 0.0
C434 C 0.47142 0.11965 0.47245 0.0
C435 C 0.48452 0.05905 0.47922 0.0
C436 C 0.51566 0.04892 0.47559 0.0
C437 C 0.52754 0.99009 0.48081 0.0
C438 C 0.55889 0.98154 0.47751 0.0
C439 C 0.57781 0.02942 0.46915 0.0
C440 C 0.56615 0.08682 0.46414 0.0
C441 C 0.53547 0.09677 0.46737 0.0
H442 H 0.95077 0.13655 0.51675 0.0
C443 C 0.93698 0.11591 0.5365 0.0
H444 H 0.92985 0.03966 0.56794 0.0
H445 H 0.99296 0.85218 0.47224 0.0
H446 H 0.94071 0.82534 0.46489 0.0
H447 H 0.90069 0.88896 0.48918 0.0
H448 H 0.91267 0.97991 0.52079 0.0
C449 C 0.94436 0.06146 0.54928 0.0
C450 C 0.96883 0.02416 0.53447 0.0
C451 C 0.96142 0.97045 0.51648 0.0
C452 C 0.98448 0.93343 0.50268 0.0
C453 C 0.9764 0.88126 0.48386 0.0
C454 C 0.94646 0.86546 0.47929 0.0
C455 C 0.92393 0.90129 0.49295 0.0
C456 C 0.93116 0.9533 0.51121 0.0
H457 H 0.0345 0.83755 0.52352 0.0
C458 C 0.0474 0.85907 0.5033 0.0
H459 H 0.05296 0.93638 0.47226 0.0
H460 H 0.99075 0.12161 0.56964 0.0
H461 H 0.04303 0.14853 0.57691 0.0
H462 H 0.08303 0.085 0.55251 0.0
H463 H 0.07103 0.99403 0.52088 0.0
C464 C 0.03928 0.91373 0.4914 0.0
C465 C 0.01489 0.94989 0.50721 0.0
C466 C 0.02229 0.00345 0.52532 0.0
C467 C -0.00076 0.04045 0.53914 0.0
C468 C 0.00733 0.0926 0.55797 0.0
C469 C 0.03727 0.10842 0.56251 0.0
C470 C 0.05979 0.07264 0.54878 0.0
C471 C 0.05255 0.02063 0.53053 0.0
H472 H 0.17208 0.61203 0.95563 0.0
C473 C 0.1631 0.58796 0.97765 0.0
H474 H 0.16423 0.50897 0.00734 0.0
H475 H 0.26063 0.46193 0.87771 0.0
H476 H 0.21696 0.45524 0.84066 0.0
H477 H 0.16626 0.47481 0.86336 0.0
H478 H 0.1589 0.50118 0.92324 0.0
C479 C 0.17306 0.53257 0.98509 0.0
C480 C 0.20261 0.51366 0.97165 0.0
C481 C 0.20639 0.49793 0.93678 0.0
C482 C 0.23551 0.48551 0.92387 0.0
C483 C 0.23885 0.47048 0.88889 0.0
C484 C 0.21403 0.46683 0.86738 0.0
C485 C 0.18548 0.47801 0.88014 0.0
C486 C 0.18157 0.49336 0.91445 0.0
H487 H 0.27478 0.37705 0.92638 0.0
C488 C 0.29379 0.40556 0.9329 0.0
H489 H 0.30982 0.49298 0.94039 0.0
H490 H 0.20286 0.54062 0.0404 0.0
H491 H 0.24615 0.54914 0.07697 0.0
H492 H 0.29694 0.53208 0.05414 0.0
H493 H 0.30453 0.50661 0.99491 0.0
C494 C 0.29025 0.46548 0.93485 0.0
C495 C 0.26063 0.48874 0.94593 0.0
C496 C 0.2569 0.50655 0.98065 0.0
C497 C 0.22775 0.5174 0.9937 0.0
C498 C 0.22446 0.53258 0.02882 0.0
C499 C 0.24918 0.53751 0.05027 0.0
C500 C 0.27772 0.52786 0.03744 0.0
C501 C 0.28168 0.51277 0.00315 0.0
H502 H 0.32035 0.1066 0.51099 0.0
C503 C 0.33256 0.08507 0.49022 0.0
H504 H 0.33832 0.00738 0.46014 0.0
H505 H 0.23248 0.95788 0.58129 0.0
H506 H 0.27268 0.96415 0.62302 0.0
H507 H 0.32458 0.98572 0.60481 0.0
H508 H 0.33649 0.00199 0.54472 0.0
C509 C 0.32596 0.02847 0.48093 0.0
C510 C 0.29688 0.00201 0.49146 0.0
C511 C 0.29058 0.99022 0.52639 0.0
C512 C 0.26091 0.97557 0.53671 0.0
C513 C 0.25484 0.9672 0.57196 0.0
C514 C 0.27767 0.971 0.59617 0.0
C515 C 0.30688 0.98333 0.58593 0.0
C516 C 0.31339 0.99291 0.55146 0.0
H517 H 0.21787 0.86816 0.54089 0.0
C518 C 0.20045 0.89751 0.53092 0.0
H519 H 0.189 0.98242 0.51154 0.0
H520 H 0.30183 0.01921 0.42181 0.0
H521 H 0.26267 0.00677 0.37989 0.0
H522 H 0.21172 0.97654 0.39733 0.0
H523 H 0.19969 0.95983 0.45671 0.0
C524 C 0.2069 0.95423 0.52154 0.0
C525 C 0.23798 0.97064 0.51182 0.0
C526 C 0.24469 0.97944 0.47658 0.0
C527 C 0.27416 0.99539 0.46642 0.0
C528 C 0.28003 0.00582 0.43117 0.0
C529 C 0.25769 -0.00103 0.40666 0.0
C530 C 0.22903 0.98208 0.41647 0.0
C531 C 0.22245 0.9726 0.45089 0.0
H532 H 0.71127 0.62015 0.05193 0.0
C533 C 0.69652 0.59075 0.03734 0.0
H534 H 0.68931 0.50522 0.01597 0.0
H535 H 0.81983 0.4667 0.96646 0.0
H536 H 0.79294 0.47958 0.9135 0.0
H537 H 0.73997 0.5109 0.91352 0.0
H538 H 0.71365 0.52822 0.96653 0.0
C539 C 0.70439 0.53362 0.03081 0.0
C540 C 0.73636 0.51609 0.03179 0.0
C541 C 0.7516 0.5073 0.00026 0.0
C542 C 0.78228 0.49092 0.00022 0.0
C543 C 0.7967 0.48045 0.96833 0.0
C544 C 0.78149 0.48756 0.93752 0.0
C545 C 0.7517 0.50505 0.93753 0.0
C546 C 0.73683 0.51478 0.96836 0.0
H547 H 0.81694 0.37854 0.05581 0.0
C548 C 0.8331 0.40216 0.03981 0.0
H549 H 0.84502 0.4826 0.01498 0.0
H550 H 0.71345 0.5283 0.09644 0.0
H551 H 0.7411 0.51974 0.14979 0.0
H552 H 0.79514 0.49638 0.14956 0.0
H553 H 0.82181 0.48079 0.09595 0.0
C554 C 0.82857 0.45979 0.03098 0.0
C555 C 0.79772 0.48412 0.03172 0.0
C556 C 0.78279 0.49489 0.06314 0.0
C557 C 0.75188 0.51013 0.06321 0.0
C558 C 0.73712 0.51822 0.09495 0.0
C559 C 0.75269 0.51316 0.12572 0.0
C560 C 0.78311 0.49985 0.1256 0.0
C561 C 0.79811 0.49074 0.09473 0.0
H562 H 0.65729 0.90645 0.45279 0.0
C563 C 0.65865 0.9117 0.48041 0.0
H564 H 0.67865 0.95779 0.52161 0.0
H565 H 0.79237 0.00054 0.42359 0.0
H566 H 0.79393 0.89189 0.41291 0.0
H567 H 0.75192 0.82644 0.43078 0.0
H568 H 0.70827 0.86842 0.45858 0.0
C569 C 0.67771 0.95167 0.49401 0.0
C570 C 0.6984 0.98908 0.47324 0.0
C571 C 0.72349 0.96253 0.45668 0.0
C572 C 0.74815 -0.00049 0.44731 0.0
C573 C 0.77339 0.97326 0.43142 0.0
C574 C 0.77449 0.91142 0.4252 0.0
C575 C 0.7508 0.87462 0.43521 0.0
C576 C 0.72567 0.89951 0.45105 0.0
H577 H 0.78399 0.02716 0.50464 0.0
C578 C 0.79174 0.06866 0.49258 0.0
H579 H 0.78297 0.13392 0.45434 0.0
H580 H 0.65054 0.0549 0.49553 0.0
H581 H 0.64879 0.16413 0.50258 0.0
H582 H 0.69261 0.22733 0.48789 0.0
H583 H 0.73829 0.18167 0.46569 0.0
C584 C 0.77707 0.09036 0.46522 0.0
C585 C 0.74821 0.06129 0.45616 0.0
C586 C 0.72144 0.08905 0.46722 0.0
C587 C 0.69641 0.05268 0.47595 0.0
C588 C 0.67026 0.0808 0.48877 0.0
C589 C 0.66899 0.14327 0.49285 0.0
C590 C 0.69366 0.17886 0.48456 0.0
C591 C 0.71972 0.15223 0.472 0.0
loop_
_geom_bond_atom_site_label_1
_geom_bond_atom_site_label_2
_geom_bond_distance
_geom_bond_site_symmetry_2
_ccdc_geom_bond_type
C0 O1 1.306 . S
C0 O3 1.160 . S
O1 C0 1.306 . S
O1 Cd2 2.228 . S
Cd2 O1 2.228 . S
Cd2 O6 2.273 . S
Cd2 O10 2.277 . S
O3 C0 1.160 . S
O3 Cd4 2.203 . S
Cd4 O3 2.203 . S
Cd4 O6 2.411 . S
Cd4 O7 2.333 . S
Cd4 O8 2.352 . S
Cd4 O12 2.277 . S
Cd4 O13 2.350 1_554 S
C5 O10 1.209 . S
C5 O12 1.226 . S
O6 Cd2 2.273 . S
O6 Cd4 2.411 . S
O6 C9 1.320 . S
O7 Cd4 2.333 . S
O7 C9 1.214 . S
O8 Cd4 2.352 . S
O8 C11 1.258 . S
C9 O6 1.320 . S
C9 O7 1.214 . S
O10 Cd2 2.277 . S
O10 C5 1.209 . S
C11 O8 1.258 . S
C11 O13 1.277 1_554 S
O12 Cd4 2.277 . S
O12 C5 1.226 . S
O13 Cd4 2.350 1_556 S
O13 C11 1.277 1_556 S
C14 O15 1.306 . S
C14 O17 1.160 . S
O15 C14 1.306 . S
O15 Cd16 2.228 . S
Cd16 O15 2.228 . S
Cd16 O20 2.273 . S
Cd16 O24 2.277 . S
O17 C14 1.160 . S
O17 Cd18 2.203 . S
Cd18 O17 2.203 . S
Cd18 O20 2.411 . S
Cd18 O21 2.333 . S
Cd18 O22 2.352 . S
Cd18 O26 2.277 . S
Cd18 O27 2.350 1_554 S
C19 O24 1.209 . S
C19 O26 1.226 . S
O20 Cd16 2.273 . S
O20 Cd18 2.411 . S
O20 C23 1.320 . S
O21 Cd18 2.333 . S
O21 C23 1.214 . S
O22 Cd18 2.352 . S
O22 C25 1.258 . S
C23 O20 1.320 . S
C23 O21 1.214 . S
O24 Cd16 2.277 . S
O24 C19 1.209 . S
C25 O22 1.258 . S
C25 O27 1.278 1_554 S
O26 Cd18 2.277 . S
O26 C19 1.226 . S
O27 Cd18 2.350 1_556 S
O27 C25 1.278 1_556 S
C28 O29 1.306 . S
C28 O31 1.160 . S
O29 C28 1.306 . S
O29 Cd30 2.228 . S
Cd30 O29 2.228 . S
Cd30 O34 2.273 . S
Cd30 O38 2.277 . S
O31 C28 1.160 . S
O31 Cd32 2.203 . S
Cd32 O31 2.203 . S
Cd32 O34 2.411 . S
Cd32 O35 2.333 . S
Cd32 O36 2.352 . S
Cd32 O40 2.277 . S
Cd32 O41 2.356 . S
C33 O38 1.209 . S
C33 O40 1.226 . S
O34 Cd30 2.273 . S
O34 Cd32 2.411 . S
O34 C37 1.320 . S
O35 Cd32 2.333 . S
O35 C37 1.214 . S
O36 Cd32 2.352 . S
O36 C39 1.258 . S
C37 O34 1.320 . S
C37 O35 1.214 . S
O38 Cd30 2.277 . S
O38 C33 1.209 . S
C39 O36 1.258 . S
C39 O41 1.282 . S
O40 Cd32 2.277 . S
O40 C33 1.226 . S
O41 Cd32 2.356 . S
O41 C39 1.282 . S
C42 O43 1.306 . S
C42 O45 1.160 . S
O43 C42 1.306 . S
O43 Cd44 2.228 . S
Cd44 O43 2.228 . S
Cd44 O48 2.273 . S
Cd44 O52 2.277 . S
O45 C42 1.160 . S
O45 Cd46 2.203 . S
Cd46 O45 2.203 . S
Cd46 O48 2.411 . S
Cd46 O49 2.333 . S
Cd46 O50 2.352 . S
Cd46 O54 2.277 . S
Cd46 O55 2.356 . S
C47 O52 1.209 . S
C47 O54 1.226 . S
O48 Cd44 2.273 . S
O48 Cd46 2.411 . S
O48 C51 1.320 . S
O49 Cd46 2.333 . S
O49 C51 1.214 . S
O50 Cd46 2.352 . S
O50 C53 1.258 . S
C51 O48 1.320 . S
C51 O49 1.214 . S
O52 Cd44 2.277 . S
O52 C47 1.209 . S
C53 O50 1.258 . S
C53 O55 1.282 . S
O54 Cd46 2.277 . S
O54 C47 1.226 . S
O55 Cd46 2.356 . S
O55 C53 1.282 . S
C56 O57 1.306 . S
C56 O59 1.160 . S
O57 C56 1.306 . S
O57 Cd58 2.228 . S
Cd58 O57 2.228 . S
Cd58 O62 2.273 . S
Cd58 O66 2.277 . S
O59 C56 1.160 . S
O59 Cd60 2.203 . S
Cd60 O59 2.203 . S
Cd60 O62 2.411 . S
Cd60 O63 2.333 . S
Cd60 O64 2.352 . S
Cd60 O68 2.277 . S
Cd60 O69 2.350 1_556 S
C61 O66 1.209 . S
C61 O68 1.226 . S
O62 Cd58 2.273 . S
O62 Cd60 2.411 . S
O62 C65 1.320 . S
O63 Cd60 2.333 . S
O63 C65 1.214 . S
O64 Cd60 2.352 . S
O64 C67 1.258 . S
C65 O62 1.320 . S
C65 O63 1.214 . S
O66 Cd58 2.277 . S
O66 C61 1.209 . S
C67 O64 1.258 . S
C67 O69 1.277 1_556 S
O68 Cd60 2.277 . S
O68 C61 1.226 . S
O69 Cd60 2.350 1_554 S
O69 C67 1.277 1_554 S
C70 O71 1.306 . S
C70 O73 1.160 . S
O71 C70 1.306 . S
O71 Cd72 2.228 . S
Cd72 O71 2.228 . S
Cd72 O76 2.273 . S
Cd72 O80 2.277 . S
O73 C70 1.160 . S
O73 Cd74 2.203 . S
Cd74 O73 2.203 . S
Cd74 O76 2.411 . S
Cd74 O77 2.333 . S
Cd74 O78 2.352 . S
Cd74 O82 2.277 . S
Cd74 O83 2.350 1_556 S
C75 O80 1.209 . S
C75 O82 1.226 . S
O76 Cd72 2.273 . S
O76 Cd74 2.411 . S
O76 C79 1.320 . S
O77 Cd74 2.333 . S
O77 C79 1.214 . S
O78 Cd74 2.352 . S
O78 C81 1.258 . S
C79 O76 1.320 . S
C79 O77 1.214 . S
O80 Cd72 2.277 . S
O80 C75 1.209 . S
C81 O78 1.258 . S
C81 O83 1.278 1_556 S
O82 Cd74 2.277 . S
O82 C75 1.226 . S
O83 Cd74 2.350 1_554 S
O83 C81 1.278 1_554 S
C84 O85 1.306 . S
C84 O87 1.160 . S
O85 C84 1.306 . S
O85 Cd86 2.228 . S
Cd86 O85 2.228 . S
Cd86 O90 2.273 . S
Cd86 O94 2.277 . S
O87 C84 1.160 . S
O87 Cd88 2.203 . S
Cd88 O87 2.203 . S
Cd88 O90 2.411 . S
Cd88 O91 2.333 . S
Cd88 O92 2.352 . S
Cd88 O96 2.277 . S
Cd88 O97 2.356 . S
C89 O94 1.209 . S
C89 O96 1.226 . S
O90 Cd86 2.273 . S
O90 Cd88 2.411 . S
O90 C93 1.320 . S
O91 Cd88 2.333 . S
O91 C93 1.214 . S
O92 Cd88 2.352 . S
O92 C95 1.258 . S
C93 O90 1.320 . S
C93 O91 1.214 . S
O94 Cd86 2.277 . S
O94 C89 1.209 . S
C95 O92 1.258 . S
C95 O97 1.282 . S
O96 Cd88 2.277 . S
O96 C89 1.226 . S
O97 Cd88 2.356 . S
O97 C95 1.282 . S
C98 O99 1.306 . S
C98 O101 1.160 . S
O99 C98 1.306 . S
O99 Cd100 2.228 . S
Cd100 O99 2.228 . S
Cd100 O104 2.273 . S
Cd100 O108 2.277 . S
O101 C98 1.160 . S
O101 Cd102 2.203 . S
Cd102 O101 2.203 . S
Cd102 O104 2.411 . S
Cd102 O105 2.333 . S
Cd102 O106 2.352 . S
Cd102 O110 2.277 . S
Cd102 O111 2.356 . S
C103 O108 1.209 . S
C103 O110 1.226 . S
O104 Cd100 2.273 . S
O104 Cd102 2.411 . S
O104 C107 1.320 . S
O105 Cd102 2.333 . S
O105 C107 1.214 . S
O106 Cd102 2.352 . S
O106 C109 1.258 . S
C107 O104 1.320 . S
C107 O105 1.214 . S
O108 Cd100 2.277 . S
O108 C103 1.209 . S
C109 O106 1.258 . S
C109 O111 1.282 . S
O110 Cd102 2.277 . S
O110 C103 1.226 . S
O111 Cd102 2.356 . S
O111 C109 1.282 . S
H112 C113 0.951 . S
C113 H112 0.951 . S
C113 C119 1.265 . S
H114 C119 0.950 . S
H115 C123 0.949 . S
H116 C124 0.950 . S
H117 C125 0.951 . S
H118 C126 0.951 . S
C119 C113 1.265 . S
C119 H114 0.950 . S
C119 C120 1.478 . S
C120 C119 1.478 . S
C120 C121 1.397 . S
C120 C137 1.394 1_554 S
C121 C120 1.397 . S
C121 C122 1.438 1_545 S
C121 C126 1.429 . S
C122 C121 1.438 1_565 S
C122 C123 1.428 . S
C122 C135 1.394 . S
C123 H115 0.949 . S
C123 C122 1.428 . S
C123 C124 1.345 . S
C124 H116 0.950 . S
C124 C123 1.345 . S
C124 C125 1.424 . S
C125 H117 0.951 . S
C125 C124 1.424 . S
C125 C126 1.347 1_565 S
C126 H118 0.951 . S
C126 C121 1.429 . S
C126 C125 1.347 1_545 S
H127 C128 0.951 . S
C128 H127 0.951 . S
C128 C134 1.265 . S
H129 C134 0.950 . S
H130 C138 0.949 . S
H131 C139 0.950 . S
H132 C140 0.951 . S
H133 C141 0.951 . S
C134 C128 1.265 . S
C134 H129 0.950 . S
C134 C135 1.478 . S
C135 C122 1.394 . S
C135 C134 1.478 . S
C135 C136 1.397 1_554 S
C136 C135 1.397 1_556 S
C136 C137 1.438 1_565 S
C136 C141 1.429 . S
C137 C120 1.394 1_556 S
C137 C136 1.438 1_545 S
C137 C138 1.428 . S
C138 H130 0.949 . S
C138 C137 1.428 . S
C138 C139 1.345 . S
C139 H131 0.950 . S
C139 C138 1.345 . S
C139 C140 1.424 . S
C140 H132 0.951 . S
C140 C139 1.424 . S
C140 C141 1.347 1_545 S
C141 H133 0.951 . S
C141 C136 1.429 . S
C141 C140 1.347 1_565 S
H142 C143 0.951 . S
C143 H142 0.951 . S
C143 C149 1.265 . S
H144 C149 0.950 . S
H145 C153 0.949 . S
H146 C154 0.950 . S
H147 C155 0.951 . S
H148 C156 0.951 . S
C149 C143 1.265 . S
C149 H144 0.950 . S
C149 C150 1.478 . S
C150 C149 1.478 . S
C150 C151 1.397 . S
C150 C167 1.394 . S
C151 C150 1.397 . S
C151 C152 1.438 . S
C151 C156 1.429 . S
C152 C151 1.438 . S
C152 C153 1.428 . S
C152 C165 1.394 . S
C153 H145 0.949 . S
C153 C152 1.428 . S
C153 C154 1.345 . S
C154 H146 0.950 . S
C154 C153 1.345 . S
C154 C155 1.424 . S
C155 H147 0.951 . S
C155 C154 1.424 . S
C155 C156 1.347 . S
C156 H148 0.951 . S
C156 C151 1.429 . S
C156 C155 1.347 . S
H157 C158 0.951 . S
C158 H157 0.951 . S
C158 C164 1.265 . S
H159 C164 0.950 . S
H160 C168 0.949 . S
H161 C169 0.950 . S
H162 C170 0.951 . S
H163 C171 0.951 . S
C164 C158 1.265 . S
C164 H159 0.950 . S
C164 C165 1.478 . S
C165 C152 1.394 . S
C165 C164 1.478 . S
C165 C166 1.397 . S
C166 C165 1.397 . S
C166 C167 1.438 . S
C166 C171 1.429 . S
C167 C150 1.394 . S
C167 C166 1.438 . S
C167 C168 1.428 . S
C168 H160 0.949 . S
C168 C167 1.428 . S
C168 C169 1.345 . S
C169 H161 0.950 . S
C169 C168 1.345 . S
C169 C170 1.424 . S
C170 H162 0.951 . S
C170 C169 1.424 . S
C170 C171 1.347 . S
C171 H163 0.951 . S
C171 C166 1.429 . S
C171 C170 1.347 . S
H172 C173 0.951 . S
C173 H172 0.951 . S
C173 C179 1.265 . S
H174 C179 0.950 . S
H175 C183 0.949 . S
H176 C184 0.953 . S
H177 C185 0.951 . S
H178 C186 0.951 . S
C179 C173 1.265 . S
C179 H174 0.950 . S
C179 C180 1.478 . S
C180 C179 1.478 . S
C180 C181 1.397 . S
C180 C197 1.372 1_556 S
C181 C180 1.397 . S
C181 C182 1.438 1_565 S
C181 C186 1.429 . S
C182 C181 1.438 1_545 S
C182 C183 1.428 . S
C182 C195 1.394 . S
C183 H175 0.949 . S
C183 C182 1.428 . S
C183 C184 1.345 1_545 S
C184 H176 0.953 . S
C184 C183 1.345 1_565 S
C184 C185 1.424 . S
C185 H177 0.951 . S
C185 C184 1.424 . S
C185 C186 1.347 . S
C186 H178 0.951 . S
C186 C181 1.429 . S
C186 C185 1.347 . S
H187 C188 0.951 . S
C188 H187 0.951 . S
C188 C194 1.265 . S
H189 C194 0.950 . S
H190 C198 0.949 . S
H191 C199 0.954 . S
H192 C200 0.951 . S
H193 C201 0.951 . S
C194 C188 1.265 . S
C194 H189 0.950 . S
C194 C195 1.478 . S
C195 C182 1.394 . S
C195 C194 1.478 . S
C195 C196 1.397 1_556 S
C196 C195 1.397 1_554 S
C196 C197 1.439 1_545 S
C196 C201 1.429 . S
C197 C180 1.372 1_554 S
C197 C196 1.439 1_565 S
C197 C198 1.451 . S
C198 H190 0.949 . S
C198 C197 1.451 . S
C198 C199 1.345 1_565 S
C199 H191 0.954 . S
C199 C198 1.345 1_545 S
C199 C200 1.424 . S
C200 H192 0.951 . S
C200 C199 1.424 . S
C200 C201 1.347 . S
C201 H193 0.951 . S
C201 C196 1.429 . S
C201 C200 1.347 . S
H202 C203 0.951 . S
C203 H202 0.951 . S
C203 C209 1.265 . S
H204 C209 0.950 . S
H205 C213 0.949 . S
H206 C214 0.950 . S
H207 C215 0.951 . S
H208 C216 0.951 . S
C209 C203 1.265 . S
C209 H204 0.950 . S
C209 C210 1.478 . S
C210 C209 1.478 . S
C210 C211 1.397 . S
C210 C227 1.394 . S
C211 C210 1.397 . S
C211 C212 1.438 . S
C211 C216 1.429 . S
C212 C211 1.438 . S
C212 C213 1.428 . S
C212 C225 1.394 . S
C213 H205 0.949 . S
C213 C212 1.428 . S
C213 C214 1.345 . S
C214 H206 0.950 . S
C214 C213 1.345 . S
C214 C215 1.424 . S
C215 H207 0.951 . S
C215 C214 1.424 . S
C215 C216 1.347 . S
C216 H208 0.951 . S
C216 C211 1.429 . S
C216 C215 1.347 . S
H217 C218 0.951 . S
C218 H217 0.951 . S
C218 C224 1.265 . S
H219 C224 0.950 . S
H220 C228 0.949 . S
H221 C229 0.950 . S
H222 C230 0.951 . S
H223 C231 0.951 . S
C224 C218 1.265 . S
C224 H219 0.950 . S
C224 C225 1.478 . S
C225 C212 1.394 . S
C225 C224 1.478 . S
C225 C226 1.397 . S
C226 C225 1.397 . S
C226 C227 1.438 . S
C226 C231 1.429 . S
C227 C210 1.394 . S
C227 C226 1.438 . S
C227 C228 1.428 . S
C228 H220 0.949 . S
C228 C227 1.428 . S
C228 C229 1.345 . S
C229 H221 0.950 . S
C229 C228 1.345 . S
C229 C230 1.424 . S
C230 H222 0.951 . S
C230 C229 1.424 . S
C230 C231 1.347 . S
C231 H223 0.951 . S
C231 C226 1.429 . S
C231 C230 1.347 . S
H232 C233 0.951 . S
C233 H232 0.951 . S
C233 C239 1.265 . S
H234 C239 0.950 . S
H235 C243 0.949 . S
H236 C244 0.950 . S
H237 C245 0.951 . S
H238 C246 0.951 . S
C239 C233 1.265 . S
C239 H234 0.950 . S
C239 C240 1.478 . S
C240 C239 1.478 . S
C240 C241 1.397 . S
C240 C257 1.394 . S
C241 C240 1.397 . S
C241 C242 1.438 . S
C241 C246 1.429 . S
C242 C241 1.438 . S
C242 C243 1.428 . S
C242 C255 1.394 . S
C243 H235 0.949 . S
C243 C242 1.428 . S
C243 C244 1.345 . S
C244 H236 0.950 . S
C244 C243 1.345 . S
C244 C245 1.424 . S
C245 H237 0.951 . S
C245 C244 1.424 . S
C245 C246 1.347 . S
C246 H238 0.951 . S
C246 C241 1.429 . S
C246 C245 1.347 . S
H247 C248 0.951 . S
C248 H247 0.951 . S
C248 C254 1.265 . S
H249 C254 0.950 . S
H250 C258 0.949 . S
H251 C259 0.950 . S
H252 C260 0.951 . S
H253 C261 0.951 . S
C254 C248 1.265 . S
C254 H249 0.950 . S
C254 C255 1.478 . S
C255 C242 1.394 . S
C255 C254 1.478 . S
C255 C256 1.397 . S
C256 C255 1.397 . S
C256 C257 1.438 . S
C256 C261 1.429 . S
C257 C240 1.394 . S
C257 C256 1.438 . S
C257 C258 1.428 . S
C258 H250 0.949 . S
C258 C257 1.428 . S
C258 C259 1.345 . S
C259 H251 0.950 . S
C259 C258 1.345 . S
C259 C260 1.424 . S
C260 H252 0.951 . S
C260 C259 1.424 . S
C260 C261 1.347 . S
C261 H253 0.951 . S
C261 C256 1.429 . S
C261 C260 1.347 . S
H262 C263 0.951 . S
C263 H262 0.951 . S
C263 C269 1.265 . S
H264 C269 0.950 . S
H265 C273 0.949 . S
H266 C274 0.950 . S
H267 C275 0.951 . S
H268 C276 0.951 . S
C269 C263 1.265 . S
C269 H264 0.950 . S
C269 C270 1.478 . S
C270 C269 1.478 . S
C270 C271 1.397 . S
C270 C287 1.394 . S
C271 C270 1.397 . S
C271 C272 1.438 . S
C271 C276 1.429 . S
C272 C271 1.438 . S
C272 C273 1.428 . S
C272 C285 1.394 . S
C273 H265 0.949 . S
C273 C272 1.428 . S
C273 C274 1.345 . S
C274 H266 0.950 . S
C274 C273 1.345 . S
C274 C275 1.424 . S
C275 H267 0.951 . S
C275 C274 1.424 . S
C275 C276 1.347 . S
C276 H268 0.951 . S
C276 C271 1.429 . S
C276 C275 1.347 . S
H277 C278 0.951 . S
C278 H277 0.951 . S
C278 C284 1.265 . S
H279 C284 0.950 . S
H280 C288 0.949 . S
H281 C289 0.950 . S
H282 C290 0.951 . S
H283 C291 0.951 . S
C284 C278 1.265 . S
C284 H279 0.950 . S
C284 C285 1.478 . S
C285 C272 1.394 . S
C285 C284 1.478 . S
C285 C286 1.397 . S
C286 C285 1.397 . S
C286 C287 1.438 . S
C286 C291 1.429 . S
C287 C270 1.394 . S
C287 C286 1.438 . S
C287 C288 1.428 . S
C288 H280 0.949 . S
C288 C287 1.428 . S
C288 C289 1.345 . S
C289 H281 0.950 . S
C289 C288 1.345 . S
C289 C290 1.424 . S
C290 H282 0.951 . S
C290 C289 1.424 . S
C290 C291 1.347 . S
C291 H283 0.951 . S
C291 C286 1.429 . S
C291 C290 1.347 . S
H292 C293 0.951 . S
C293 H292 0.951 . S
C293 C299 1.265 . S
H294 C299 0.950 . S
H295 C303 0.949 . S
H296 C304 0.950 . S
H297 C305 0.951 . S
H298 C306 0.951 . S
C299 C293 1.265 . S
C299 H294 0.950 . S
C299 C300 1.478 . S
C300 C299 1.478 . S
C300 C301 1.397 . S
C300 C317 1.394 . S
C301 C300 1.397 . S
C301 C302 1.438 . S
C301 C306 1.429 . S
C302 C301 1.438 . S
C302 C303 1.428 . S
C302 C315 1.394 . S
C303 H295 0.949 . S
C303 C302 1.428 . S
C303 C304 1.345 . S
C304 H296 0.950 . S
C304 C303 1.345 . S
C304 C305 1.424 . S
C305 H297 0.951 . S
C305 C304 1.424 . S
C305 C306 1.347 . S
C306 H298 0.951 . S
C306 C301 1.429 . S
C306 C305 1.347 . S
H307 C308 0.951 . S
C308 H307 0.951 . S
C308 C314 1.265 . S
H309 C314 0.950 . S
H310 C318 0.949 . S
H311 C319 0.950 . S
H312 C320 0.951 . S
H313 C321 0.951 . S
C314 C308 1.265 . S
C314 H309 0.950 . S
C314 C315 1.478 . S
C315 C302 1.394 . S
C315 C314 1.478 . S
C315 C316 1.397 . S
C316 C315 1.397 . S
C316 C317 1.438 . S
C316 C321 1.429 . S
C317 C300 1.394 . S
C317 C316 1.438 . S
C317 C318 1.428 . S
C318 H310 0.949 . S
C318 C317 1.428 . S
C318 C319 1.345 . S
C319 H311 0.950 . S
C319 C318 1.345 . S
C319 C320 1.424 . S
C320 H312 0.951 . S
C320 C319 1.424 . S
C320 C321 1.347 . S
C321 H313 0.951 . S
C321 C316 1.429 . S
C321 C320 1.347 . S
H322 C323 0.951 . S
C323 H322 0.951 . S
C323 C329 1.265 . S
H324 C329 0.950 . S
H325 C333 0.949 . S
H326 C334 0.950 . S
H327 C335 0.951 . S
H328 C336 0.951 . S
C329 C323 1.265 . S
C329 H324 0.950 . S
C329 C330 1.478 . S
C330 C329 1.478 . S
C330 C331 1.397 . S
C330 C347 1.394 . S
C331 C330 1.397 . S
C331 C332 1.438 . S
C331 C336 1.429 . S
C332 C331 1.438 . S
C332 C333 1.428 . S
C332 C345 1.394 . S
C333 H325 0.949 . S
C333 C332 1.428 . S
C333 C334 1.345 . S
C334 H326 0.950 . S
C334 C333 1.345 . S
C334 C335 1.424 . S
C335 H327 0.951 . S
C335 C334 1.424 . S
C335 C336 1.347 . S
C336 H328 0.951 . S
C336 C331 1.429 . S
C336 C335 1.347 . S
H337 C338 0.951 . S
C338 H337 0.951 . S
C338 C344 1.265 . S
H339 C344 0.950 . S
H340 C348 0.949 . S
H341 C349 0.950 . S
H342 C350 0.951 . S
H343 C351 0.951 . S
C344 C338 1.265 . S
C344 H339 0.950 . S
C344 C345 1.478 . S
C345 C332 1.394 . S
C345 C344 1.478 . S
C345 C346 1.397 . S
C346 C345 1.397 . S
C346 C347 1.438 . S
C346 C351 1.429 . S
C347 C330 1.394 . S
C347 C346 1.438 . S
C347 C348 1.428 . S
C348 H340 0.949 . S
C348 C347 1.428 . S
C348 C349 1.345 . S
C349 H341 0.950 . S
C349 C348 1.345 . S
C349 C350 1.424 . S
C350 H342 0.951 . S
C350 C349 1.424 . S
C350 C351 1.347 . S
C351 H343 0.951 . S
C351 C346 1.429 . S
C351 C350 1.347 . S
H352 C353 0.951 . S
C353 H352 0.951 . S
C353 C359 1.265 . S
H354 C359 0.950 . S
H355 C363 0.949 . S
H356 C364 0.950 . S
H357 C365 0.951 . S
H358 C366 0.951 . S
C359 C353 1.265 . S
C359 H354 0.950 . S
C359 C360 1.478 . S
C360 C359 1.478 . S
C360 C361 1.397 . S
C360 C377 1.394 1_554 S
C361 C360 1.397 . S
C361 C362 1.438 . S
C361 C366 1.429 . S
C362 C361 1.438 . S
C362 C363 1.428 . S
C362 C375 1.394 1_554 S
C363 H355 0.949 . S
C363 C362 1.428 . S
C363 C364 1.345 . S
C364 H356 0.950 . S
C364 C363 1.345 . S
C364 C365 1.424 . S
C365 H357 0.951 . S
C365 C364 1.424 . S
C365 C366 1.347 . S
C366 H358 0.951 . S
C366 C361 1.429 . S
C366 C365 1.347 . S
H367 C368 0.951 . S
C368 H367 0.951 . S
C368 C374 1.265 . S
H369 C374 0.950 . S
H370 C378 0.949 . S
H371 C379 0.950 . S
H372 C380 0.951 . S
H373 C381 0.951 . S
C374 C368 1.265 . S
C374 H369 0.950 . S
C374 C375 1.478 . S
C375 C362 1.394 1_556 S
C375 C374 1.478 . S
C375 C376 1.397 . S
C376 C375 1.397 . S
C376 C377 1.438 . S
C376 C381 1.429 . S
C377 C360 1.394 1_556 S
C377 C376 1.438 . S
C377 C378 1.428 . S
C378 H370 0.949 . S
C378 C377 1.428 . S
C378 C379 1.345 . S
C379 H371 0.950 . S
C379 C378 1.345 . S
C379 C380 1.424 . S
C380 H372 0.951 . S
C380 C379 1.424 . S
C380 C381 1.347 . S
C381 H373 0.951 . S
C381 C376 1.429 . S
C381 C380 1.347 . S
H382 C383 0.951 . S
C383 H382 0.951 . S
C383 C389 1.265 . S
H384 C389 0.950 1_556 S
H385 C393 0.950 . S
H386 C394 0.950 . S
H387 C395 0.951 . S
H388 C396 0.951 . S
C389 C383 1.265 . S
C389 H384 0.950 1_554 S
C389 C390 1.478 . S
C390 C389 1.478 . S
C390 C391 1.397 . S
C390 C407 1.417 1_554 S
C391 C390 1.397 . S
C391 C392 1.415 1_455 S
C391 C396 1.429 . S
C392 C391 1.415 1_655 S
C392 C393 1.427 . S
C392 C405 1.417 1_554 S
C393 H385 0.950 . S
C393 C392 1.427 . S
C393 C394 1.344 1_655 S
C394 H386 0.950 . S
C394 C393 1.344 1_455 S
C394 C395 1.424 . S
C395 H387 0.951 . S
C395 C394 1.424 . S
C395 C396 1.347 . S
C396 H388 0.951 . S
C396 C391 1.429 . S
C396 C395 1.347 . S
H397 C398 0.951 . S
C398 H397 0.951 . S
C398 C404 1.265 . S
H399 C404 0.950 1_554 S
H400 C408 0.950 . S
H401 C409 0.950 . S
H402 C410 0.951 . S
H403 C411 0.951 . S
C404 C398 1.265 . S
C404 H399 0.950 1_556 S
C404 C405 1.478 . S
C405 C392 1.417 1_556 S
C405 C404 1.478 . S
C405 C406 1.397 . S
C406 C405 1.397 . S
C406 C407 1.415 1_655 S
C406 C411 1.429 . S
C407 C390 1.417 1_556 S
C407 C406 1.415 1_455 S
C407 C408 1.427 . S
C408 H400 0.950 . S
C408 C407 1.427 . S
C408 C409 1.344 1_455 S
C409 H401 0.950 . S
C409 C408 1.344 1_655 S
C409 C410 1.424 . S
C410 H402 0.951 . S
C410 C409 1.424 . S
C410 C411 1.347 . S
C411 H403 0.951 . S
C411 C406 1.429 . S
C411 C410 1.347 . S
H412 C413 0.951 . S
C413 H412 0.951 . S
C413 C419 1.265 . S
H414 C419 0.950 . S
H415 C423 0.949 1_545 S
H416 C424 0.950 . S
H417 C425 0.951 . S
H418 C426 0.951 . S
C419 C413 1.265 . S
C419 H414 0.950 . S
C419 C420 1.478 . S
C420 C419 1.478 . S
C420 C421 1.397 . S
C420 C437 1.394 1_565 S
C421 C420 1.397 . S
C421 C422 1.438 . S
C421 C426 1.429 . S
C422 C421 1.438 . S
C422 C423 1.428 . S
C422 C435 1.394 1_565 S
C423 H415 0.949 1_565 S
C423 C422 1.428 . S
C423 C424 1.345 . S
C424 H416 0.950 . S
C424 C423 1.345 . S
C424 C425 1.424 . S
C425 H417 0.951 . S
C425 C424 1.424 . S
C425 C426 1.347 . S
C426 H418 0.951 . S
C426 C421 1.429 . S
C426 C425 1.347 . S
H427 C428 0.951 . S
C428 H427 0.951 . S
C428 C434 1.265 . S
H429 C434 0.950 . S
H430 C438 0.949 1_565 S
H431 C439 0.950 . S
H432 C440 0.951 . S
H433 C441 0.951 . S
C434 C428 1.265 . S
C434 H429 0.950 . S
C434 C435 1.478 . S
C435 C422 1.394 1_545 S
C435 C434 1.478 . S
C435 C436 1.397 . S
C436 C435 1.397 . S
C436 C437 1.438 . S
C436 C441 1.429 . S
C437 C420 1.394 1_545 S
C437 C436 1.438 . S
C437 C438 1.428 . S
C438 H430 0.949 1_545 S
C438 C437 1.428 . S
C438 C439 1.345 . S
C439 H431 0.950 . S
C439 C438 1.345 . S
C439 C440 1.424 . S
C440 H432 0.951 . S
C440 C439 1.424 . S
C440 C441 1.347 . S
C441 H433 0.951 . S
C441 C436 1.429 . S
C441 C440 1.347 . S
H442 C443 0.951 . S
C443 H442 0.951 . S
C443 C449 1.265 . S
H444 C449 0.950 . S
H445 C453 0.949 . S
H446 C454 0.950 . S
H447 C455 0.951 . S
H448 C456 0.951 1_655 S
C449 C443 1.265 . S
C449 H444 0.950 . S
C449 C450 1.478 . S
C450 C449 1.478 . S
C450 C451 1.397 1_655 S
C450 C467 1.394 . S
C451 C450 1.397 1_455 S
C451 C452 1.438 1_545 S
C451 C456 1.429 . S
C452 C451 1.438 1_565 S
C452 C453 1.428 . S
C452 C465 1.394 . S
C453 H445 0.949 . S
C453 C452 1.428 . S
C453 C454 1.345 . S
C454 H446 0.950 . S
C454 C453 1.345 . S
C454 C455 1.424 1_565 S
C455 H447 0.951 . S
C455 C454 1.424 1_545 S
C455 C456 1.347 . S
C456 H448 0.951 1_455 S
C456 C451 1.429 . S
C456 C455 1.347 . S
H457 C458 0.951 . S
C458 H457 0.951 . S
C458 C464 1.265 . S
H459 C464 0.950 . S
H460 C468 0.949 . S
H461 C469 0.950 . S
H462 C470 0.951 . S
H463 C471 0.951 1_455 S
C464 C458 1.265 . S
C464 H459 0.950 . S
C464 C465 1.478 . S
C465 C452 1.394 . S
C465 C464 1.478 . S
C465 C466 1.397 1_455 S
C466 C465 1.397 1_655 S
C466 C467 1.438 1_565 S
C466 C471 1.429 . S
C467 C450 1.394 . S
C467 C466 1.438 1_545 S
C467 C468 1.428 . S
C468 H460 0.949 . S
C468 C467 1.428 . S
C468 C469 1.345 . S
C469 H461 0.950 . S
C469 C468 1.345 . S
C469 C470 1.424 1_545 S
C470 H462 0.951 . S
C470 C469 1.424 1_565 S
C470 C471 1.347 . S
C471 H463 0.951 1_655 S
C471 C466 1.429 . S
C471 C470 1.347 . S
H472 C473 0.951 . S
C473 H472 0.951 . S
C473 C479 1.265 . S
H474 C479 0.950 . S
H475 C483 0.949 . S
H476 C484 0.950 . S
H477 C485 0.951 . S
H478 C486 0.951 . S
C479 C473 1.265 . S
C479 H474 0.950 . S
C479 C480 1.478 . S
C480 C479 1.478 . S
C480 C481 1.397 1_554 S
C480 C497 1.394 . S
C481 C480 1.397 1_556 S
C481 C482 1.438 . S
C481 C486 1.429 . S
C482 C481 1.438 . S
C482 C483 1.428 . S
C482 C495 1.394 1_556 S
C483 H475 0.949 . S
C483 C482 1.428 . S
C483 C484 1.345 . S
C484 H476 0.950 . S
C484 C483 1.345 . S
C484 C485 1.424 . S
C485 H477 0.951 . S
C485 C484 1.424 . S
C485 C486 1.347 . S
C486 H478 0.951 . S
C486 C481 1.429 . S
C486 C485 1.347 . S
H487 C488 0.951 . S
C488 H487 0.951 . S
C488 C494 1.265 . S
H489 C494 0.950 . S
H490 C498 0.949 . S
H491 C499 0.950 . S
H492 C500 0.951 . S
H493 C501 0.951 . S
C494 C488 1.265 . S
C494 H489 0.950 . S
C494 C495 1.478 . S
C495 C482 1.394 1_554 S
C495 C494 1.478 . S
C495 C496 1.397 . S
C496 C495 1.397 . S
C496 C497 1.438 . S
C496 C501 1.429 . S
C497 C480 1.394 . S
C497 C496 1.438 . S
C497 C498 1.428 . S
C498 H490 0.949 . S
C498 C497 1.428 . S
C498 C499 1.345 . S
C499 H491 0.950 . S
C499 C498 1.345 . S
C499 C500 1.424 . S
C500 H492 0.951 . S
C500 C499 1.424 . S
C500 C501 1.347 . S
C501 H493 0.951 . S
C501 C496 1.429 . S
C501 C500 1.347 . S
H502 C503 0.951 . S
C503 H502 0.951 . S
C503 C509 1.265 . S
H504 C509 0.950 . S
H505 C513 0.949 . S
H506 C514 0.947 1_565 S
H507 C515 0.951 . S
H508 C516 0.951 . S
C509 C503 1.265 . S
C509 H504 0.950 . S
C509 C510 1.478 . S
C510 C509 1.478 . S
C510 C511 1.397 . S
C510 C527 1.394 . S
C511 C510 1.397 . S
C511 C512 1.438 1_545 S
C511 C516 1.429 . S
C512 C511 1.438 1_565 S
C512 C513 1.428 . S
C512 C525 1.394 . S
C513 H505 0.949 . S
C513 C512 1.428 . S
C513 C514 1.339 1_565 S
C514 H506 0.947 1_545 S
C514 C513 1.339 1_545 S
C514 C515 1.433 . S
C515 H507 0.951 . S
C515 C514 1.433 . S
C515 C516 1.347 . S
C516 H508 0.951 . S
C516 C511 1.429 . S
C516 C515 1.347 . S
H517 C518 0.951 . S
C518 H517 0.951 . S
C518 C524 1.265 . S
H519 C524 0.950 . S
H520 C528 0.949 . S
H521 C529 0.946 1_545 S
H522 C530 0.951 . S
H523 C531 0.951 . S
C524 C518 1.265 . S
C524 H519 0.950 . S
C524 C525 1.478 . S
C525 C512 1.394 . S
C525 C524 1.478 . S
C525 C526 1.397 . S
C526 C525 1.397 . S
C526 C527 1.438 1_565 S
C526 C531 1.429 . S
C527 C510 1.394 . S
C527 C526 1.438 1_545 S
C527 C528 1.428 . S
C528 H520 0.949 . S
C528 C527 1.428 . S
C528 C529 1.339 1_545 S
C529 H521 0.946 1_565 S
C529 C528 1.339 1_565 S
C529 C530 1.433 . S
C530 H522 0.951 . S
C530 C529 1.433 . S
C530 C531 1.347 . S
C531 H523 0.951 . S
C531 C526 1.429 . S
C531 C530 1.347 . S
H532 C533 0.951 . S
C533 H532 0.951 . S
C533 C539 1.265 . S
H534 C539 0.950 . S
H535 C543 0.949 . S
H536 C544 0.950 . S
H537 C545 0.951 . S
H538 C546 0.951 . S
C539 C533 1.265 . S
C539 H534 0.950 . S
C539 C540 1.478 . S
C540 C539 1.478 . S
C540 C541 1.397 . S
C540 C557 1.394 1_556 S
C541 C540 1.397 . S
C541 C542 1.438 . S
C541 C546 1.429 . S
C542 C541 1.438 . S
C542 C543 1.428 . S
C542 C555 1.394 . S
C543 H535 0.949 . S
C543 C542 1.428 . S
C543 C544 1.345 . S
C544 H536 0.950 . S
C544 C543 1.345 . S
C544 C545 1.424 . S
C545 H537 0.951 . S
C545 C544 1.424 . S
C545 C546 1.347 . S
C546 H538 0.951 . S
C546 C541 1.429 . S
C546 C545 1.347 . S
H547 C548 0.951 . S
C548 H547 0.951 . S
C548 C554 1.265 . S
H549 C554 0.950 . S
H550 C558 0.949 . S
H551 C559 0.950 . S
H552 C560 0.951 . S
H553 C561 0.951 . S
C554 C548 1.265 . S
C554 H549 0.950 . S
C554 C555 1.478 . S
C555 C542 1.394 . S
C555 C554 1.478 . S
C555 C556 1.397 1_556 S
C556 C555 1.397 1_554 S
C556 C557 1.438 . S
C556 C561 1.429 . S
C557 C540 1.394 1_554 S
C557 C556 1.438 . S
C557 C558 1.428 . S
C558 H550 0.949 . S
C558 C557 1.428 . S
C558 C559 1.345 . S
C559 H551 0.950 . S
C559 C558 1.345 . S
C559 C560 1.424 . S
C560 H552 0.951 . S
C560 C559 1.424 . S
C560 C561 1.347 . S
C561 H553 0.951 . S
C561 C556 1.429 . S
C561 C560 1.347 . S
H562 C563 0.951 . S
C563 H562 0.951 . S
C563 C569 1.265 . S
H564 C569 0.950 . S
H565 C573 0.949 . S
H566 C574 0.950 . S
H567 C575 0.951 . S
H568 C576 0.951 . S
C569 C563 1.265 . S
C569 H564 0.950 . S
C569 C570 1.478 . S
C570 C569 1.478 . S
C570 C571 1.397 . S
C570 C587 1.394 . S
C571 C570 1.397 . S
C571 C572 1.438 1_565 S
C571 C576 1.429 . S
C572 C571 1.438 1_545 S
C572 C573 1.428 . S
C572 C585 1.394 . S
C573 H565 0.949 . S
C573 C572 1.428 . S
C573 C574 1.345 . S
C574 H566 0.950 . S
C574 C573 1.345 . S
C574 C575 1.424 1_545 S
C575 H567 0.951 . S
C575 C574 1.424 1_565 S
C575 C576 1.347 . S
C576 H568 0.951 . S
C576 C571 1.429 . S
C576 C575 1.347 . S
H577 C578 0.951 . S
C578 H577 0.951 . S
C578 C584 1.265 . S
H579 C584 0.950 . S
H580 C588 0.949 . S
H581 C589 0.950 . S
H582 C590 0.951 . S
H583 C591 0.951 . S
C584 C578 1.265 . S
C584 H579 0.950 . S
C584 C585 1.478 . S
C585 C572 1.394 . S
C585 C584 1.478 . S
C585 C586 1.397 . S
C586 C585 1.397 . S
C586 C587 1.438 1_545 S
C586 C591 1.429 . S
C587 C570 1.394 . S
C587 C586 1.438 1_565 S
C587 C588 1.428 . S
C588 H580 0.949 . S
C588 C587 1.428 . S
C588 C589 1.345 . S
C589 H581 0.950 . S
C589 C588 1.345 . S
C589 C590 1.424 1_565 S
C590 H582 0.951 . S
C590 C589 1.424 1_545 S
C590 C591 1.347 . S
C591 H583 0.951 . S
C591 C586 1.429 . S
C591 C590 1.347 . S
C113 C5 1.555 . S
C128 C19 1.547 . S
C143 C47 1.607 . S
C158 C33 1.608 . S
C173 C61 1.608 . S
C188 C75 1.607 . S
C203 C89 1.608 . S
C218 C103 1.606 . S
C233 C0 1.577 . S
C248 C28 1.645 . S
C263 C42 1.652 . S
C278 C14 1.585 . S
C293 C56 1.587 . S
C308 C84 1.653 . S
C323 C98 1.580 . S
C338 C70 1.648 . S
C353 C11 1.445 . S
C368 C67 1.445 . S
C383 C25 1.440 . S
C398 C81 1.440 . S
C413 C95 1.409 . S
C428 C39 1.409 . S
C443 C109 1.382 . S
C458 C53 1.382 . S
C473 C23 0.951 . S
C488 C9 0.950 . S
C503 C37 0.931 . S
C518 C51 0.964 . S
C533 C65 0.950 . S
C548 C79 0.952 . S
C563 C93 0.919 . S
C578 C107 0.933 . S
