# Generated by pormake.
# Topology sog, (5)-cn, num edge types: 1
# Building blocks:
#     Node 0, Type 0, BuildingBlock: BEQFEK_clean_sbu_0, # of connection points: 5
#     Node 1, Type 0, BuildingBlock: BEQFEK_clean_sbu_0, # of connection points: 5
#     Node 2, Type 0, BuildingBlock: BEQFEK_clean_sbu_0, # of connection points: 5
#     Node 3, Type 0, BuildingBlock: BEQFEK_clean_sbu_0, # of connection points: 5
#     Node 4, Type 0, BuildingBlock: BEQFEK_clean_sbu_0, # of connection points: 5
#     Node 5, Type 0, BuildingBlock: BEQFEK_clean_sbu_0, # of connection points: 5
#     Node 6, Type 0, BuildingBlock: BEQFEK_clean_sbu_0, # of connection points: 5
#     Node 7, Type 0, BuildingBlock: BEQFEK_clean_sbu_0, # of connection points: 5
#     Node 8, Type 0, BuildingBlock: BEQFEK_clean_sbu_0, # of connection points: 5
#     Node 9, Type 0, BuildingBlock: BEQFEK_clean_sbu_0, # of connection points: 5
#     Node 10, Type 0, BuildingBlock: BEQFEK_clean_sbu_0, # of connection points: 5
#     Node 11, Type 0, BuildingBlock: BEQFEK_clean_sbu_0, # of connection points: 5
#     Node 12, Type 0, BuildingBlock: BEQFEK_clean_sbu_0, # of connection points: 5
#     Node 13, Type 0, BuildingBlock: BEQFEK_clean_sbu_0, # of connection points: 5
#     Node 14, Type 0, BuildingBlock: BEQFEK_clean_sbu_0, # of connection points: 5
#     Node 15, Type 0, BuildingBlock: BEQFEK_clean_sbu_0, # of connection points: 5
#     Node 16, Type 0, BuildingBlock: BEQFEK_clean_sbu_0, # of connection points: 5
#     Node 17, Type 0, BuildingBlock: BEQFEK_clean_sbu_0, # of connection points: 5
#     Node 18, Type 0, BuildingBlock: BEQFEK_clean_sbu_0, # of connection points: 5
#     Node 19, Type 0, BuildingBlock: BEQFEK_clean_sbu_0, # of connection points: 5
#     Node 20, Type 0, BuildingBlock: BEQFEK_clean_sbu_0, # of connection points: 5
#     Node 21, Type 0, BuildingBlock: BEQFEK_clean_sbu_0, # of connection points: 5
#     Node 22, Type 0, BuildingBlock: BEQFEK_clean_sbu_0, # of connection points: 5
#     Node 23, Type 0, BuildingBlock: BEQFEK_clean_sbu_0, # of connection points: 5
#     Node 24, Type 0, BuildingBlock: BEQFEK_clean_sbu_0, # of connection points: 5
#     Node 25, Type 0, BuildingBlock: BEQFEK_clean_sbu_0, # of connection points: 5
#     Node 26, Type 0, BuildingBlock: BEQFEK_clean_sbu_0, # of connection points: 5
#     Node 27, Type 0, BuildingBlock: BEQFEK_clean_sbu_0, # of connection points: 5
#     Node 28, Type 0, BuildingBlock: BEQFEK_clean_sbu_0, # of connection points: 5
#     Node 29, Type 0, BuildingBlock: BEQFEK_clean_sbu_0, # of connection points: 5
#     Node 30, Type 0, BuildingBlock: BEQFEK_clean_sbu_0, # of connection points: 5
#     Node 31, Type 0, BuildingBlock: BEQFEK_clean_sbu_0, # of connection points: 5
#     Edge 32, Type (0, 0), BuildingBlock: ZUJKAS_clean_linker_0, # of connection points: 2
#     Edge 33, Type (0, 0), BuildingBlock: ZUJKAS_clean_linker_0, # of connection points: 2
#     Edge 34, Type (0, 0), BuildingBlock: ZUJKAS_clean_linker_0, # of connection points: 2
#     Edge 35, Type (0, 0), BuildingBlock: ZUJKAS_clean_linker_0, # of connection points: 2
#     Edge 36, Type (0, 0), BuildingBlock: ZUJKAS_clean_linker_0, # of connection points: 2
#     Edge 37, Type (0, 0), BuildingBlock: ZUJKAS_clean_linker_0, # of connection points: 2
#     Edge 38, Type (0, 0), BuildingBlock: ZUJKAS_clean_linker_0, # of connection points: 2
#     Edge 39, Type (0, 0), BuildingBlock: ZUJKAS_clean_linker_0, # of connection points: 2
#     Edge 40, Type (0, 0), BuildingBlock: ZUJKAS_clean_linker_0, # of connection points: 2
#     Edge 41, Type (0, 0), BuildingBlock: ZUJKAS_clean_linker_0, # of connection points: 2
#     Edge 42, Type (0, 0), BuildingBlock: ZUJKAS_clean_linker_0, # of connection points: 2
#     Edge 43, Type (0, 0), BuildingBlock: ZUJKAS_clean_linker_0, # of connection points: 2
#     Edge 44, Type (0, 0), BuildingBlock: ZUJKAS_clean_linker_0, # of connection points: 2
#     Edge 45, Type (0, 0), BuildingBlock: ZUJKAS_clean_linker_0, # of connection points: 2
#     Edge 46, Type (0, 0), BuildingBlock: ZUJKAS_clean_linker_0, # of connection points: 2
#     Edge 47, Type (0, 0), BuildingBlock: ZUJKAS_clean_linker_0, # of connection points: 2
#     Edge 48, Type (0, 0), BuildingBlock: ZUJKAS_clean_linker_0, # of connection points: 2
#     Edge 49, Type (0, 0), BuildingBlock: ZUJKAS_clean_linker_0, # of connection points: 2
#     Edge 50, Type (0, 0), BuildingBlock: ZUJKAS_clean_linker_0, # of connection points: 2
#     Edge 51, Type (0, 0), BuildingBlock: ZUJKAS_clean_linker_0, # of connection points: 2
#     Edge 52, Type (0, 0), BuildingBlock: ZUJKAS_clean_linker_0, # of connection points: 2
#     Edge 53, Type (0, 0), BuildingBlock: ZUJKAS_clean_linker_0, # of connection points: 2
#     Edge 54, Type (0, 0), BuildingBlock: ZUJKAS_clean_linker_0, # of connection points: 2
#     Edge 55, Type (0, 0), BuildingBlock: ZUJKAS_clean_linker_0, # of connection points: 2
#     Edge 56, Type (0, 0), BuildingBlock: ZUJKAS_clean_linker_0, # of connection points: 2
#     Edge 57, Type (0, 0), BuildingBlock: ZUJKAS_clean_linker_0, # of connection points: 2
#     Edge 58, Type (0, 0), BuildingBlock: ZUJKAS_clean_linker_0, # of connection points: 2
#     Edge 59, Type (0, 0), BuildingBlock: ZUJKAS_clean_linker_0, # of connection points: 2
#     Edge 60, Type (0, 0), BuildingBlock: ZUJKAS_clean_linker_0, # of connection points: 2
#     Edge 61, Type (0, 0), BuildingBlock: ZUJKAS_clean_linker_0, # of connection points: 2
#     Edge 62, Type (0, 0), BuildingBlock: ZUJKAS_clean_linker_0, # of connection points: 2
#     Edge 63, Type (0, 0), BuildingBlock: ZUJKAS_clean_linker_0, # of connection points: 2
#     Edge 64, Type (0, 0), BuildingBlock: ZUJKAS_clean_linker_0, # of connection points: 2
#     Edge 65, Type (0, 0), BuildingBlock: ZUJKAS_clean_linker_0, # of connection points: 2
#     Edge 66, Type (0, 0), BuildingBlock: ZUJKAS_clean_linker_0, # of connection points: 2
#     Edge 67, Type (0, 0), BuildingBlock: ZUJKAS_clean_linker_0, # of connection points: 2
#     Edge 68, Type (0, 0), BuildingBlock: ZUJKAS_clean_linker_0, # of connection points: 2
#     Edge 69, Type (0, 0), BuildingBlock: ZUJKAS_clean_linker_0, # of connection points: 2
#     Edge 70, Type (0, 0), BuildingBlock: ZUJKAS_clean_linker_0, # of connection points: 2
#     Edge 71, Type (0, 0), BuildingBlock: ZUJKAS_clean_linker_0, # of connection points: 2
#     Edge 72, Type (0, 0), BuildingBlock: ZUJKAS_clean_linker_0, # of connection points: 2
#     Edge 73, Type (0, 0), BuildingBlock: ZUJKAS_clean_linker_0, # of connection points: 2
#     Edge 74, Type (0, 0), BuildingBlock: ZUJKAS_clean_linker_0, # of connection points: 2
#     Edge 75, Type (0, 0), BuildingBlock: ZUJKAS_clean_linker_0, # of connection points: 2
#     Edge 76, Type (0, 0), BuildingBlock: ZUJKAS_clean_linker_0, # of connection points: 2
#     Edge 77, Type (0, 0), BuildingBlock: ZUJKAS_clean_linker_0, # of connection points: 2
#     Edge 78, Type (0, 0), BuildingBlock: ZUJKAS_clean_linker_0, # of connection points: 2
#     Edge 79, Type (0, 0), BuildingBlock: ZUJKAS_clean_linker_0, # of connection points: 2
#     Edge 80, Type (0, 0), BuildingBlock: ZUJKAS_clean_linker_0, # of connection points: 2
#     Edge 81, Type (0, 0), BuildingBlock: ZUJKAS_clean_linker_0, # of connection points: 2
#     Edge 82, Type (0, 0), BuildingBlock: ZUJKAS_clean_linker_0, # of connection points: 2
#     Edge 83, Type (0, 0), BuildingBlock: ZUJKAS_clean_linker_0, # of connection points: 2
#     Edge 84, Type (0, 0), BuildingBlock: ZUJKAS_clean_linker_0, # of connection points: 2
#     Edge 85, Type (0, 0), BuildingBlock: ZUJKAS_clean_linker_0, # of connection points: 2
#     Edge 86, Type (0, 0), BuildingBlock: ZUJKAS_clean_linker_0, # of connection points: 2
#     Edge 87, Type (0, 0), BuildingBlock: ZUJKAS_clean_linker_0, # of connection points: 2
#     Edge 88, Type (0, 0), BuildingBlock: ZUJKAS_clean_linker_0, # of connection points: 2
#     Edge 89, Type (0, 0), BuildingBlock: ZUJKAS_clean_linker_0, # of connection points: 2
#     Edge 90, Type (0, 0), BuildingBlock: ZUJKAS_clean_linker_0, # of connection points: 2
#     Edge 91, Type (0, 0), BuildingBlock: ZUJKAS_clean_linker_0, # of connection points: 2
#     Edge 92, Type (0, 0), BuildingBlock: ZUJKAS_clean_linker_0, # of connection points: 2
#     Edge 93, Type (0, 0), BuildingBlock: ZUJKAS_clean_linker_0, # of connection points: 2
#     Edge 94, Type (0, 0), BuildingBlock: ZUJKAS_clean_linker_0, # of connection points: 2
#     Edge 95, Type (0, 0), BuildingBlock: ZUJKAS_clean_linker_0, # of connection points: 2
#     Edge 96, Type (0, 0), BuildingBlock: ZUJKAS_clean_linker_0, # of connection points: 2
#     Edge 97, Type (0, 0), BuildingBlock: ZUJKAS_clean_linker_0, # of connection points: 2
#     Edge 98, Type (0, 0), BuildingBlock: ZUJKAS_clean_linker_0, # of connection points: 2
#     Edge 99, Type (0, 0), BuildingBlock: ZUJKAS_clean_linker_0, # of connection points: 2
#     Edge 100, Type (0, 0), BuildingBlock: ZUJKAS_clean_linker_0, # of connection points: 2
#     Edge 101, Type (0, 0), BuildingBlock: ZUJKAS_clean_linker_0, # of connection points: 2
#     Edge 102, Type (0, 0), BuildingBlock: ZUJKAS_clean_linker_0, # of connection points: 2
#     Edge 103, Type (0, 0), BuildingBlock: ZUJKAS_clean_linker_0, # of connection points: 2
#     Edge 104, Type (0, 0), BuildingBlock: ZUJKAS_clean_linker_0, # of connection points: 2
#     Edge 105, Type (0, 0), BuildingBlock: ZUJKAS_clean_linker_0, # of connection points: 2
#     Edge 106, Type (0, 0), BuildingBlock: ZUJKAS_clean_linker_0, # of connection points: 2
#     Edge 107, Type (0, 0), BuildingBlock: ZUJKAS_clean_linker_0, # of connection points: 2
#     Edge 108, Type (0, 0), BuildingBlock: ZUJKAS_clean_linker_0, # of connection points: 2
#     Edge 109, Type (0, 0), BuildingBlock: ZUJKAS_clean_linker_0, # of connection points: 2
#     Edge 110, Type (0, 0), BuildingBlock: ZUJKAS_clean_linker_0, # of connection points: 2
#     Edge 111, Type (0, 0), BuildingBlock: ZUJKAS_clean_linker_0, # of connection points: 2
# Relax obj value: 0.239
# Max RMSD: 0.198
# Mean RMSD: 0.198
data_MOF--net-sog--node1-BEQFEK_clean_sbu_0--edge1-ZUJKAS_clean_linker_0
_symmetry_space_group_name_H-M    P1
_symmetry_Int_Tables_number       1
_symmetry_cell_setting            triclinic
loop_
_symmetry_equiv_pos_as_xyz
'x, y, z'
_cell_length_a     102.87987
_cell_length_b     22.431242
_cell_length_c     151.46979
_cell_angle_alpha  90.008679
_cell_angle_beta   89.994171
_cell_angle_gamma 89.983545
loop_
_atom_site_label
_atom_site_type_symbol
_atom_site_fract_x
_atom_site_fract_y
_atom_site_fract_z
_atom_type_partial_charge
Co0 Co 0.46412 0.21138 0.06131 0.0
Co1 Co 0.44869 0.09208 0.06196 0.0
C2 C 0.46301 0.14244 0.07783 0.0
O3 O 0.46768 0.18625 0.07356 0.0
O4 O 0.45551 0.10493 0.07412 0.0
C5 C 0.48097 0.31195 0.06417 0.0
O6 O 0.4844 0.28385 0.07141 0.0
C7 C 0.45009 0.96567 0.06436 0.0
C8 C 0.43173 0.93163 0.05874 0.0
C9 C 0.44335 0.91369 0.06255 0.0
N10 N 0.44282 0.01207 0.06177 0.0
N11 N 0.43176 0.99173 0.05852 0.0
C12 C 0.46382 0.97157 0.06754 0.0
H13 H 0.46795 0.01524 0.06558 0.0
H14 H 0.46996 0.93515 0.06485 0.0
H15 H 0.46394 0.9688 0.07485 0.0
C16 C 0.47705 0.15053 0.04635 0.0
N17 N 0.46861 0.15162 0.05314 0.0
N18 N 0.46176 0.10215 0.05315 0.0
C19 C 0.46547 0.06829 0.04623 0.0
C20 C 0.47536 0.09758 0.04173 0.0
C21 C 0.48644 0.19961 0.04436 0.0
H22 H 0.49057 0.21722 0.0506 0.0
H23 H 0.49444 0.18387 0.04003 0.0
H24 H 0.4812 0.2365 0.04102 0.0
O25 O 0.4454 0.23185 0.06007 0.0
O26 O 0.4341 0.14758 0.05989 0.0
H27 H 0.46019 0.00342 0.03627 0.0
H28 H 0.46253 0.97422 0.04723 0.0
C29 C 0.45868 0.01245 0.0434 0.0
H30 H 0.44811 0.01637 0.04466 0.0
H31 H 0.42447 0.01868 0.05586 0.0
O32 O 0.47325 0.28671 0.0588 0.0
C33 C 0.43461 0.20425 0.05947 0.0
Co34 Co 0.78939 0.03778 0.06179 0.0
Co35 Co 0.80353 0.15994 0.06312 0.0
C36 C 0.78924 0.10262 0.07856 0.0
O37 O 0.78488 0.05921 0.07405 0.0
O38 O 0.79662 0.14164 0.07508 0.0
C39 C 0.77137 0.93919 0.06275 0.0
O40 O 0.76563 0.96924 0.06909 0.0
C41 C 0.80029 0.28556 0.06593 0.0
C42 C 0.81747 0.32581 0.05954 0.0
C43 C 0.80567 0.33963 0.06347 0.0
N44 N 0.80827 0.24176 0.06329 0.0
N45 N 0.81868 0.26594 0.05965 0.0
C46 C 0.78762 0.27476 0.07056 0.0
H47 H 0.78934 0.24714 0.0765 0.0
H48 H 0.78098 0.24968 0.06613 0.0
H49 H 0.78294 0.31672 0.07275 0.0
C50 C 0.77672 0.09692 0.04663 0.0
N51 N 0.78462 0.09753 0.05372 0.0
N52 N 0.79091 0.14849 0.05402 0.0
C53 C 0.78736 0.18171 0.04699 0.0
C54 C 0.77822 0.15025 0.04211 0.0
C55 C 0.76897 0.04382 0.04381 0.0
H56 H 0.77565 0.00599 0.04251 0.0
H57 H 0.76236 0.03043 0.04925 0.0
H58 H 0.7632 0.05295 0.03777 0.0
O59 O 0.80836 0.02184 0.0609 0.0
O60 O 0.81883 0.10842 0.061 0.0
H61 H 0.80359 0.24042 0.0453 0.0
H62 H 0.78999 0.25726 0.03818 0.0
C63 C 0.79285 0.2418 0.04484 0.0
H64 H 0.78914 0.27468 0.04967 0.0
H65 H 0.82626 0.24159 0.05683 0.0
O66 O 0.78104 0.96188 0.05878 0.0
C67 C 0.81889 0.05169 0.0605 0.0
Co68 Co 0.46457 0.04114 0.18785 0.0
Co69 Co 0.44855 0.15838 0.18812 0.0
C70 C 0.4632 0.11486 0.17189 0.0
O71 O 0.46828 0.07086 0.17589 0.0
O72 O 0.45533 0.14971 0.17582 0.0
C73 C 0.47815 0.93446 0.18362 0.0
O74 O 0.47676 0.95361 0.17548 0.0
C75 C 0.45075 0.28536 0.18842 0.0
C76 C 0.43121 0.31712 0.19222 0.0
C77 C 0.44379 0.3361 0.19053 0.0
N78 N 0.4428 0.23826 0.18907 0.0
N79 N 0.43107 0.25733 0.19125 0.0
C80 C 0.46476 0.28136 0.18577 0.0
H81 H 0.46653 0.24117 0.18171 0.0
H82 H 0.47095 0.27793 0.19174 0.0
H83 H 0.46773 0.32172 0.18204 0.0
C84 C 0.47718 0.09761 0.20329 0.0
N85 N 0.46878 0.09811 0.19648 0.0
N86 N 0.4614 0.14579 0.19699 0.0
C87 C 0.46453 0.17608 0.20438 0.0
C88 C 0.4748 0.14727 0.20853 0.0
C89 C 0.48714 0.05002 0.20475 0.0
H90 H 0.49119 0.03529 0.19832 0.0
H91 H 0.49514 0.06612 0.20905 0.0
H92 H 0.48243 0.01106 0.20793 0.0
O93 O 0.4458 0.01855 0.18887 0.0
O94 O 0.43415 0.10175 0.18975 0.0
H95 H 0.45685 0.22462 0.21553 0.0
H96 H 0.46061 0.26921 0.20606 0.0
C97 C 0.45658 0.22579 0.20821 0.0
H98 H 0.44633 0.22231 0.20602 0.0
H99 H 0.42309 0.22948 0.1923 0.0
O100 O 0.47424 0.96688 0.18996 0.0
C101 C 0.43489 0.04505 0.1897 0.0
Co102 Co 0.78636 0.19535 0.18896 0.0
Co103 Co 0.803 0.07949 0.18855 0.0
C104 C 0.7876 0.12325 0.17273 0.0
O105 O 0.78252 0.16654 0.17691 0.0
O106 O 0.7957 0.08847 0.17645 0.0
C107 C 0.77171 0.30054 0.18531 0.0
O108 O 0.77135 0.27892 0.17725 0.0
C109 C 0.80365 0.95245 0.18648 0.0
C110 C 0.82196 0.9254 0.19296 0.0
C111 C 0.81094 0.90309 0.18884 0.0
N112 N 0.81002 0.00152 0.18907 0.0
N113 N 0.82108 0.98536 0.1928 0.0
C114 C 0.79004 0.95335 0.18295 0.0
H115 H 0.78514 0.99584 0.18468 0.0
H116 H 0.78431 0.91551 0.18563 0.0
H117 H 0.79035 0.94936 0.17566 0.0
C118 C 0.77486 0.13562 0.20453 0.0
N119 N 0.78289 0.13653 0.19751 0.0
N120 N 0.79015 0.08826 0.19754 0.0
C121 C 0.78711 0.05539 0.20471 0.0
C122 C 0.7773 0.0842 0.20934 0.0
C123 C 0.76597 0.18582 0.20693 0.0
H124 H 0.77185 0.22617 0.20834 0.0
H125 H 0.75958 0.19625 0.20123 0.0
H126 H 0.75995 0.17513 0.21279 0.0
O127 O 0.80487 0.22066 0.18974 0.0
O128 O 0.81697 0.13881 0.19018 0.0
H129 H 0.8043 0.00343 0.20686 0.0
H130 H 0.79078 0.98238 0.21382 0.0
C131 C 0.7936 -0.00206 0.20715 0.0
H132 H 0.79073 0.96305 0.20236 0.0
H133 H 0.82773 0.01505 0.19559 0.0
O134 O 0.7766 0.26909 0.19144 0.0
C135 C 0.81593 0.19538 0.19032 0.0
Co136 Co 0.53787 0.78383 0.93918 0.0
Co137 Co 0.55312 0.90277 0.93833 0.0
C138 C 0.53895 0.84849 0.92251 0.0
O139 O 0.53391 0.80598 0.92688 0.0
O140 O 0.54657 0.8857 0.92618 0.0
C141 C 0.51999 0.68381 0.93811 0.0
O142 O 0.51471 0.71048 0.93127 0.0
C143 C 0.54982 0.02893 0.93688 0.0
C144 C 0.56826 0.06629 0.94189 0.0
C145 C 0.55581 0.08189 0.93922 0.0
N146 N 0.55813 0.98403 0.9384 0.0
N147 N 0.56924 0.00649 0.94124 0.0
C148 C 0.5363 0.02033 0.93341 0.0
H149 H 0.53597 0.98256 0.92873 0.0
H150 H 0.52966 0.00976 0.93896 0.0
H151 H 0.53278 0.06098 0.92999 0.0
C152 C 0.52482 0.84497 0.95403 0.0
N153 N 0.53319 0.84392 0.94719 0.0
N154 N 0.54018 0.89288 0.94723 0.0
C155 C 0.53674 0.92608 0.95428 0.0
C156 C 0.52677 0.89724 0.95875 0.0
C157 C 0.51532 0.79628 0.956 0.0
H158 H 0.51091 0.78005 0.94977 0.0
H159 H 0.50752 0.8119 0.9605 0.0
H160 H 0.52054 0.75847 0.95913 0.0
O161 O 0.55676 0.76515 0.94036 0.0
O162 O 0.56799 0.84962 0.94066 0.0
H163 H 0.54332 0.98441 0.96473 0.0
H164 H 0.53982 0.02036 0.95441 0.0
C165 C 0.54403 0.97977 0.95745 0.0
H166 H 0.55442 0.97634 0.95561 0.0
H167 H 0.57724 0.9809 0.94314 0.0
O168 O 0.52919 0.7091 0.94225 0.0
C169 C 0.56753 0.79292 0.94103 0.0
Co170 Co 0.2136 0.9565 0.93932 0.0
Co171 Co 0.19878 0.83616 0.93857 0.0
C172 C 0.2128 0.89085 0.92273 0.0
O173 O 0.2177 0.93388 0.92705 0.0
O174 O 0.20528 0.85336 0.92643 0.0
C175 C 0.23135 0.05644 0.93809 0.0
O176 O 0.23677 0.02807 0.93145 0.0
C177 C 0.2032 0.71069 0.93729 0.0
C178 C 0.18462 0.66957 0.94131 0.0
C179 C 0.1974 0.6564 0.93912 0.0
N180 N 0.19442 0.75402 0.93861 0.0
N181 N 0.18326 0.72934 0.9409 0.0
C182 C 0.21692 0.72184 0.9344 0.0
H183 H 0.21756 0.7627 0.93035 0.0
H184 H 0.22318 0.72846 0.94028 0.0
H185 H 0.22072 0.68358 0.93054 0.0
C186 C 0.22673 0.89711 0.95429 0.0
N187 N 0.21844 0.89723 0.94741 0.0
N188 N 0.21157 0.84791 0.9475 0.0
C189 C 0.215 0.81544 0.95462 0.0
C190 C 0.22485 0.84506 0.95909 0.0
C191 C 0.23605 0.94651 0.95626 0.0
H192 H 0.23068 0.98418 0.9593 0.0
H193 H 0.2405 0.96264 0.95004 0.0
H194 H 0.24383 0.93167 0.96084 0.0
O195 O 0.19463 0.97316 0.94045 0.0
O196 O 0.18361 0.88802 0.94078 0.0
H197 H 0.19742 0.764 0.95578 0.0
H198 H 0.20814 0.75874 0.96517 0.0
C199 C 0.20774 0.76181 0.95786 0.0
H200 H 0.21224 0.72093 0.95511 0.0
H201 H 0.17487 0.7533 0.94248 0.0
O202 O 0.22203 0.03228 0.94225 0.0
C203 C 0.18393 0.9448 0.94111 0.0
Co204 Co 0.53695 0.95651 0.8121 0.0
Co205 Co 0.55304 0.83912 0.81224 0.0
C206 C 0.5382 0.8839 0.82827 0.0
O207 O 0.53329 0.92811 0.8242 0.0
O208 O 0.54599 0.84829 0.82441 0.0
C209 C 0.52167 0.06115 0.81558 0.0
O210 O 0.5206 0.03918 0.82358 0.0
C211 C 0.55292 0.71186 0.81387 0.0
C212 C 0.57139 0.68374 0.80769 0.0
C213 C 0.56007 0.66214 0.8115 0.0
N214 N 0.55966 0.76057 0.81158 0.0
N215 N 0.5708 0.74375 0.80802 0.0
C216 C 0.53922 0.71359 0.81721 0.0
H217 H 0.53462 0.75711 0.81569 0.0
H218 H 0.53338 0.6771 0.81426 0.0
H219 H 0.5393 0.70763 0.82449 0.0
C220 C 0.52455 0.89746 0.79678 0.0
N221 N 0.53294 0.89805 0.8036 0.0
N222 N 0.54001 0.84926 0.80343 0.0
C223 C 0.5365 0.81639 0.79636 0.0
C224 C 0.52651 0.84558 0.79195 0.0
C225 C 0.51493 0.94593 0.79496 0.0
H226 H 0.51059 0.96161 0.80125 0.0
H227 H 0.50709 0.93037 0.79048 0.0
H228 H 0.52002 0.98416 0.79186 0.0
O229 O 0.55559 0.98009 0.81112 0.0
O230 O 0.56723 0.89691 0.81051 0.0
H231 H 0.54198 0.75345 0.78617 0.0
H232 H 0.53997 0.72255 0.79705 0.0
C233 C 0.54355 0.76171 0.79331 0.0
H234 H 0.55411 0.76669 0.7945 0.0
H235 H 0.57772 0.77311 0.80548 0.0
O236 O 0.52741 0.03079 0.80967 0.0
C237 C 0.5665 0.95356 0.81042 0.0
Co238 Co 0.21162 0.79425 0.81194 0.0
Co239 Co 0.19733 0.91626 0.81293 0.0
C240 C 0.21155 0.86098 0.82854 0.0
O241 O 0.21601 0.81713 0.82418 0.0
O242 O 0.20416 0.89936 0.82494 0.0
C243 C 0.22955 0.69534 0.81328 0.0
O244 O 0.23501 0.72522 0.81975 0.0
C245 C 0.20027 0.04198 0.81573 0.0
C246 C 0.18343 0.08176 0.80887 0.0
C247 C 0.19498 0.09589 0.8131 0.0
N248 N 0.19248 -0.00203 0.81292 0.0
N249 N 0.18226 0.02187 0.80899 0.0
C250 C 0.21265 0.0315 0.82072 0.0
H251 H 0.21046 0.00615 0.82682 0.0
H252 H 0.21936 0.00418 0.81665 0.0
H253 H 0.21744 0.07356 0.82273 0.0
C254 C 0.22445 0.85232 0.79675 0.0
N255 N 0.2164 0.85328 0.80376 0.0
N256 N 0.21009 0.90423 0.80393 0.0
C257 C 0.21381 0.93714 0.79691 0.0
C258 C 0.22305 0.90542 0.79216 0.0
C259 C 0.23232 0.79916 0.79409 0.0
H260 H 0.22571 0.76106 0.79281 0.0
H261 H 0.23884 0.78637 0.79961 0.0
H262 H 0.23819 0.8079 0.78808 0.0
O263 O 0.19267 0.77778 0.81102 0.0
O264 O 0.18211 0.86416 0.81087 0.0
H265 H 0.19771 0.9961 0.79488 0.0
H266 H 0.21172 0.01331 0.78814 0.0
C267 C 0.20847 -0.00257 0.79471 0.0
H268 H 0.2119 0.02993 0.79968 0.0
H269 H 0.17487 -0.00269 0.80598 0.0
O270 O 0.22008 0.71823 0.80911 0.0
C271 C 0.18211 0.80738 0.81051 0.0
Co272 Co 0.46032 0.70228 0.56127 0.0
Co273 Co 0.44675 0.57886 0.56274 0.0
C274 C 0.46097 0.6376 0.57808 0.0
O275 O 0.46483 0.682 0.57358 0.0
O276 O 0.45393 0.5973 0.57462 0.0
C277 C 0.47848 0.80034 0.56188 0.0
O278 O 0.4846 0.76946 0.56797 0.0
C279 C 0.45077 0.45336 0.56517 0.0
C280 C 0.43313 0.41198 0.55957 0.0
C281 C 0.44534 0.39897 0.56294 0.0
N282 N 0.4424 0.49663 0.56294 0.0
N283 N 0.43173 0.47177 0.55976 0.0
C284 C 0.46385 0.46485 0.5692 0.0
H285 H 0.47018 0.4875 0.56432 0.0
H286 H 0.46856 0.4233 0.57153 0.0
H287 H 0.46278 0.49483 0.57495 0.0
C288 C 0.47305 0.64376 0.54605 0.0
N289 N 0.46527 0.64263 0.55321 0.0
N290 N 0.45907 0.59143 0.55351 0.0
C291 C 0.46251 0.5587 0.5464 0.0
C292 C 0.47153 0.59062 0.54149 0.0
C293 C 0.48068 0.69716 0.5432 0.0
H294 H 0.47392 0.73479 0.54196 0.0
H295 H 0.48734 0.71067 0.5486 0.0
H296 H 0.48638 0.68825 0.53713 0.0
O297 O 0.44131 0.71668 0.56038 0.0
O298 O 0.43117 0.62928 0.56082 0.0
H299 H 0.44626 0.49949 0.54512 0.0
H300 H 0.45916 0.48536 0.5373 0.0
C301 C 0.45694 0.4989 0.54417 0.0
H302 H 0.46121 0.46497 0.54861 0.0
H303 H 0.42379 0.49561 0.55732 0.0
O304 O 0.46847 0.77848 0.55821 0.0
C305 C 0.43089 0.68595 0.56016 0.0
Co306 Co 0.78795 0.53925 0.56211 0.0
Co307 Co 0.80274 0.6599 0.56281 0.0
C308 C 0.78835 0.60875 0.57858 0.0
O309 O 0.78397 0.56426 0.57432 0.0
O310 O 0.79576 0.64673 0.5749 0.0
C311 C 0.77052 0.4399 0.56448 0.0
O312 O 0.76614 0.46959 0.57134 0.0
C313 C 0.80063 0.78589 0.56518 0.0
C314 C 0.81882 0.82215 0.5596 0.0
C315 C 0.80706 0.83863 0.56336 0.0
N316 N 0.8082 0.74041 0.56264 0.0
N317 N 0.81916 0.76206 0.55942 0.0
C318 C 0.7869 0.77839 0.56828 0.0
H319 H 0.78304 0.7342 0.56632 0.0
H320 H 0.78058 0.81397 0.56554 0.0
H321 H 0.78666 0.78136 0.57559 0.0
C322 C 0.77494 0.59844 0.54702 0.0
N323 N 0.7833 0.59827 0.55386 0.0
N324 N 0.78989 0.64845 0.5539 0.0
C325 C 0.7861 0.68187 0.54697 0.0
C326 C 0.77642 0.65154 0.54241 0.0
C327 C 0.7658 0.54845 0.54499 0.0
H328 H 0.7713 0.51144 0.54188 0.0
H329 H 0.76145 0.53145 0.5512 0.0
H330 H 0.75793 0.56298 0.54046 0.0
O331 O 0.80682 0.52039 0.56101 0.0
O332 O 0.81763 0.60601 0.56086 0.0
H333 H 0.79114 0.74737 0.53704 0.0
H334 H 0.78853 0.77625 0.54798 0.0
C335 C 0.79263 0.73848 0.54417 0.0
H336 H 0.8032 0.73572 0.54548 0.0
H337 H 0.82663 0.73599 0.5568 0.0
O338 O 0.7791 0.46347 0.55957 0.0
C339 C 0.81746 0.5493 0.56046 0.0
Co340 Co 0.46469 0.54015 0.68852 0.0
Co341 Co 0.44932 0.65953 0.68826 0.0
C342 C 0.46376 0.61186 0.67225 0.0
O343 O 0.46821 0.56658 0.67629 0.0
O344 O 0.45639 0.64906 0.67615 0.0
C345 C 0.4816 0.43958 0.68555 0.0
O346 O 0.48507 0.46757 0.6783 0.0
C347 C 0.45071 0.78592 0.68615 0.0
C348 C 0.43242 0.81978 0.69192 0.0
C349 C 0.44401 0.83778 0.68807 0.0
N350 N 0.44344 0.73943 0.68869 0.0
N351 N 0.43243 0.75965 0.69204 0.0
C352 C 0.46441 0.78026 0.68291 0.0
H353 H 0.46861 0.73669 0.68486 0.0
H354 H 0.47055 0.81678 0.68556 0.0
H355 H 0.46447 0.78306 0.67559 0.0
C356 C 0.47756 0.59885 0.70372 0.0
N357 N 0.46916 0.59876 0.6969 0.0
N358 N 0.46229 0.64817 0.69706 0.0
C359 C 0.46596 0.68101 0.70408 0.0
C360 C 0.47583 0.6511 0.70851 0.0
C361 C 0.48694 0.54947 0.70558 0.0
H362 H 0.49119 0.53303 0.69931 0.0
H363 H 0.49485 0.56443 0.71004 0.0
H364 H 0.48165 0.51194 0.70873 0.0
O365 O 0.446 0.51927 0.6897 0.0
O366 O 0.4347 0.60355 0.69006 0.0
H367 H 0.46069 0.74476 0.71422 0.0
H368 H 0.46295 0.77515 0.70332 0.0
C369 C 0.45915 0.73647 0.70707 0.0
H370 H 0.44857 0.73255 0.70583 0.0
H371 H 0.42515 0.73257 0.69467 0.0
O372 O 0.47383 0.46481 0.69089 0.0
C373 C 0.43521 0.54682 0.69034 0.0
Co374 Co 0.78802 0.70143 0.68908 0.0
Co375 Co 0.80286 0.58102 0.68799 0.0
C376 C 0.78845 0.63564 0.67239 0.0
O377 O 0.78382 0.67893 0.67681 0.0
O378 O 0.79598 0.59765 0.67597 0.0
C379 C 0.77 0.80057 0.68788 0.0
O380 O 0.76466 0.77235 0.6812 0.0
C381 C 0.80087 0.45482 0.68515 0.0
C382 C 0.81756 0.41795 0.69252 0.0
C383 C 0.8063 0.4019 0.68808 0.0
N384 N 0.80826 0.50008 0.68802 0.0
N385 N 0.81842 0.4779 0.69223 0.0
C386 C 0.78866 0.46318 0.67989 0.0
H387 H 0.79084 0.4902 0.67396 0.0
H388 H 0.78141 0.48789 0.6839 0.0
H389 H 0.78452 0.42029 0.6776 0.0
C390 C 0.77535 0.64163 0.70416 0.0
N391 N 0.78343 0.64155 0.69716 0.0
N392 N 0.78996 0.59118 0.69696 0.0
C393 C 0.78634 0.55772 0.70395 0.0
C394 C 0.77695 0.58851 0.70871 0.0
C395 C 0.76733 0.69417 0.70687 0.0
H396 H 0.77384 0.73242 0.70828 0.0
H397 H 0.76087 0.70721 0.70133 0.0
H398 H 0.76139 0.68463 0.71281 0.0
O399 O 0.80686 0.71986 0.69014 0.0
O400 O 0.81779 0.63453 0.69019 0.0
H401 H 0.80269 0.50064 0.70618 0.0
H402 H 0.78853 0.48123 0.71264 0.0
C403 C 0.79194 0.49796 0.70616 0.0
H404 H 0.78889 0.46542 0.70107 0.0
H405 H 0.82549 0.50371 0.69536 0.0
O406 O 0.77932 0.77644 0.69204 0.0
C407 C 0.81753 0.69124 0.69066 0.0
Co408 Co 0.53674 0.28191 0.43948 0.0
Co409 Co 0.55124 0.40336 0.43849 0.0
C410 C 0.53756 0.34699 0.42271 0.0
O411 O 0.53314 0.30305 0.42707 0.0
O412 O 0.54466 0.38622 0.4264 0.0
C413 C 0.51885 0.18293 0.43803 0.0
O414 O 0.51374 0.21166 0.43131 0.0
C415 C 0.54837 0.52961 0.43606 0.0
C416 C 0.56576 0.56782 0.44248 0.0
C417 C 0.55396 0.58297 0.43866 0.0
N418 N 0.55623 0.4849 0.43853 0.0
N419 N 0.56677 0.50789 0.44218 0.0
C420 C 0.53557 0.52045 0.43153 0.0
H421 H 0.53684 0.49001 0.42585 0.0
H422 H 0.52862 0.49937 0.43618 0.0
H423 H 0.53147 0.56279 0.42898 0.0
C424 C 0.52355 0.34163 0.45438 0.0
N425 N 0.53171 0.34205 0.44743 0.0
N426 N 0.53825 0.39239 0.44735 0.0
C427 C 0.53462 0.42527 0.45439 0.0
C428 C 0.52515 0.39435 0.45904 0.0
C429 C 0.51551 0.28895 0.457 0.0
H430 H 0.52204 0.25112 0.45863 0.0
H431 H 0.50935 0.27518 0.45135 0.0
H432 H 0.50927 0.29877 0.4628 0.0
O433 O 0.55555 0.26478 0.44089 0.0
O434 O 0.56631 0.35058 0.44085 0.0
H435 H 0.55118 0.4818 0.45631 0.0
H436 H 0.53774 0.49833 0.46359 0.0
C437 C 0.54045 0.48419 0.45683 0.0
H438 H 0.53685 0.51866 0.45222 0.0
H439 H 0.5743 0.48265 0.4449 0.0
O440 O 0.52808 0.2066 0.44235 0.0
C441 C 0.56615 0.29388 0.44145 0.0
Co442 Co 0.21352 0.44801 0.43899 0.0
Co443 Co 0.19806 0.32901 0.43813 0.0
C444 C 0.21307 0.37791 0.4225 0.0
O445 O 0.21729 0.42277 0.42676 0.0
O446 O 0.20562 0.33985 0.42614 0.0
C447 C 0.22981 0.55093 0.43629 0.0
O448 O 0.23225 0.52747 0.42852 0.0
C449 C 0.19851 0.20175 0.4363 0.0
C450 C 0.17983 0.17284 0.44209 0.0
C451 C 0.19135 0.15172 0.4385 0.0
N452 N 0.19159 0.25016 0.43849 0.0
N453 N 0.18032 0.23286 0.4418 0.0
C454 C 0.21234 0.20406 0.43323 0.0
H455 H 0.21676 0.2479 0.4348 0.0
H456 H 0.21814 0.16804 0.43635 0.0
H457 H 0.21261 0.19769 0.42597 0.0
C458 C 0.22599 0.38669 0.45409 0.0
N459 N 0.21767 0.38801 0.44723 0.0
N460 N 0.21075 0.33877 0.44717 0.0
C461 C 0.21425 0.30494 0.45414 0.0
C462 C 0.22412 0.33388 0.45871 0.0
C463 C 0.23552 0.4352 0.4561 0.0
H464 H 0.23035 0.47258 0.45938 0.0
H465 H 0.2398 0.45228 0.44987 0.0
H466 H 0.2434 0.4191 0.46049 0.0
O467 O 0.19483 0.47005 0.43997 0.0
O468 O 0.1836 0.38569 0.4398 0.0
H469 H 0.2086 0.24086 0.46412 0.0
H470 H 0.21121 0.21086 0.45324 0.0
C471 C 0.2073 0.24947 0.45696 0.0
H472 H 0.19677 0.25365 0.45558 0.0
H473 H 0.17325 0.2619 0.44424 0.0
O474 O 0.22284 0.52229 0.44175 0.0
C475 C 0.18404 0.4423 0.4403 0.0
Co476 Co 0.53733 0.44547 0.31217 0.0
Co477 Co 0.55364 0.3289 0.31241 0.0
C478 C 0.53845 0.3734 0.32835 0.0
O479 O 0.53366 0.41771 0.32426 0.0
O480 O 0.54625 0.33775 0.32451 0.0
C481 C 0.52157 0.54807 0.31566 0.0
O482 O 0.52019 0.52429 0.32353 0.0
C483 C 0.55188 0.20183 0.31248 0.0
C484 C 0.57193 0.17058 0.31006 0.0
C485 C 0.55926 0.15113 0.31127 0.0
N486 N 0.55969 0.24939 0.31183 0.0
N487 N 0.57171 0.23069 0.31044 0.0
C488 C 0.53764 0.20515 0.31453 0.0
H489 H 0.535 0.24951 0.31719 0.0
H490 H 0.53191 0.19771 0.30844 0.0
H491 H 0.53495 0.16986 0.31933 0.0
C492 C 0.52528 0.38616 0.29674 0.0
N493 N 0.5335 0.38698 0.30366 0.0
N494 N 0.54105 0.33979 0.30333 0.0
C495 C 0.53821 0.30843 0.29598 0.0
C496 C 0.52797 0.33611 0.29164 0.0
C497 C 0.51522 0.43292 0.29505 0.0
H498 H 0.51106 0.44856 0.3014 0.0
H499 H 0.50732 0.41561 0.29077 0.0
H500 H 0.51987 0.47155 0.29174 0.0
O501 O 0.55601 0.4689 0.31128 0.0
O502 O 0.56797 0.38647 0.31097 0.0
H503 H 0.54647 0.25951 0.28507 0.0
H504 H 0.54233 0.21531 0.29451 0.0
C505 C 0.54641 0.25873 0.2924 0.0
H506 H 0.55654 0.26256 0.29481 0.0
H507 H 0.5797 0.25886 0.30966 0.0
O508 O 0.52771 0.51949 0.30974 0.0
C509 C 0.56704 0.44311 0.31077 0.0
Co510 Co 0.21318 0.29286 0.31176 0.0
Co511 Co 0.1977 0.41184 0.31279 0.0
C512 C 0.21289 0.36285 0.3283 0.0
O513 O 0.2171 0.31832 0.32396 0.0
O514 O 0.20536 0.40092 0.32474 0.0
C515 C 0.22967 0.19099 0.31455 0.0
O516 O 0.23231 0.2159 0.32219 0.0
C517 C 0.19781 0.53879 0.3151 0.0
C518 C 0.1794 0.5681 0.30898 0.0
C519 C 0.19066 0.58902 0.31294 0.0
N520 N 0.19113 0.49058 0.31252 0.0
N521 N 0.18001 0.50808 0.309 0.0
C522 C 0.21152 0.53624 0.31843 0.0
H523 H 0.21614 0.49331 0.3166 0.0
H524 H 0.21735 0.57356 0.3157 0.0
H525 H 0.21146 0.53995 0.32573 0.0
C526 C 0.22491 0.35288 0.29633 0.0
N527 N 0.21705 0.35257 0.30344 0.0
N528 N 0.21023 0.40215 0.30362 0.0
C529 C 0.21342 0.4354 0.29651 0.0
C530 C 0.22285 0.40536 0.29169 0.0
C531 C 0.23323 0.30119 0.29366 0.0
H532 H 0.22693 0.26201 0.29236 0.0
H533 H 0.23983 0.28937 0.29918 0.0
H534 H 0.23902 0.311 0.28766 0.0
O535 O 0.19454 0.27056 0.31093 0.0
O536 O 0.18322 0.35474 0.31126 0.0
H537 H 0.19667 0.49091 0.29471 0.0
H538 H 0.21022 0.51034 0.28767 0.0
C539 C 0.2074 0.49438 0.29432 0.0
H540 H 0.21069 0.528 0.29918 0.0
H541 H 0.17314 0.47926 0.30627 0.0
O542 O 0.22258 0.21866 0.30905 0.0
C543 C 0.18371 0.29812 0.31072 0.0
Co544 Co 0.96459 0.20539 0.56209 0.0
Co545 Co 0.94821 0.08889 0.56241 0.0
C546 C 0.96314 0.13405 0.57837 0.0
O547 O 0.96816 0.1776 0.57422 0.0
O548 O 0.95526 0.09855 0.57458 0.0
C549 C 0.97968 0.31001 0.56559 0.0
O550 O 0.98048 0.28825 0.57362 0.0
C551 C 0.94832 0.96181 0.56413 0.0
C552 C 0.92971 0.93345 0.55818 0.0
C553 C 0.94113 0.91197 0.56188 0.0
N554 N 0.94152 0.01043 0.56188 0.0
N555 N 0.9303 0.99348 0.55845 0.0
C556 C 0.9621 0.96375 0.56731 0.0
H557 H 0.9666 0.00748 0.5658 0.0
H558 H 0.96791 0.92762 0.56423 0.0
H559 H 0.96223 0.95735 0.57458 0.0
C560 C 0.9768 0.14512 0.54683 0.0
N561 N 0.96846 0.14633 0.55368 0.0
N562 N 0.96125 0.09797 0.55355 0.0
C563 C 0.96463 0.06476 0.54649 0.0
C564 C 0.97466 0.09329 0.54203 0.0
C565 C 0.98652 0.19304 0.54496 0.0
H566 H 0.98151 0.23127 0.54179 0.0
H567 H 0.99087 0.20897 0.55124 0.0
H568 H 0.99434 0.17682 0.54052 0.0
O569 O 0.94602 0.22962 0.56106 0.0
O570 O 0.93411 0.14721 0.56062 0.0
H571 H 0.94688 0.01591 0.54476 0.0
H572 H 0.95884 0.00231 0.53632 0.0
C573 C 0.95741 0.01048 0.54347 0.0
H574 H 0.96098 0.97108 0.54717 0.0
H575 H 0.92332 0.02274 0.55595 0.0
O576 O 0.97423 0.27927 0.5596 0.0
C577 C 0.93502 0.20381 0.56041 0.0
Co578 Co 0.28446 0.03642 0.56312 0.0
Co579 Co 0.30113 0.15188 0.56279 0.0
C580 C 0.28614 0.11066 0.57903 0.0
O581 O 0.281 0.06649 0.57511 0.0
O582 O 0.29407 0.14486 0.57503 0.0
C583 C 0.27168 0.92857 0.56737 0.0
O584 O 0.27393 0.94652 0.57548 0.0
C585 C 0.29962 0.27913 0.5623 0.0
C586 C 0.31945 0.30855 0.55879 0.0
C587 C 0.30692 0.32901 0.56029 0.0
N588 N 0.30733 0.23109 0.56179 0.0
N589 N 0.31923 0.24876 0.55978 0.0
C590 C 0.28552 0.27691 0.56478 0.0
H591 H 0.28335 0.23647 0.56869 0.0
H592 H 0.27947 0.2753 0.55873 0.0
H593 H 0.28276 0.31724 0.56859 0.0
C594 C 0.27239 0.09344 0.54752 0.0
N595 N 0.28064 0.09361 0.55443 0.0
N596 N 0.28829 0.14033 0.55389 0.0
C597 C 0.28548 0.17035 0.54641 0.0
C598 C 0.27516 0.14235 0.54222 0.0
C599 C 0.26232 0.04652 0.54599 0.0
H600 H 0.267 0.00702 0.54292 0.0
H601 H 0.25802 0.03249 0.55237 0.0
H602 H 0.25452 0.06295 0.54155 0.0
O603 O 0.30303 0.01177 0.56212 0.0
O604 O 0.31526 0.09317 0.56127 0.0
H605 H 0.29368 0.21674 0.53524 0.0
H606 H 0.28996 0.26278 0.54456 0.0
C607 C 0.2938 0.21867 0.54256 0.0
H608 H 0.30397 0.21423 0.54487 0.0
H609 H 0.32709 0.21999 0.55886 0.0
O610 O 0.2746 0.96275 0.56099 0.0
C611 C 0.31412 0.03658 0.56133 0.0
Co612 Co 0.96388 0.03796 0.68914 0.0
Co613 Co 0.94789 0.1558 0.68854 0.0
C614 C 0.96264 0.10775 0.67269 0.0
O615 O 0.96755 0.06439 0.67695 0.0
O616 O 0.95486 0.14409 0.6764 0.0
C617 C 0.98028 0.93626 0.68601 0.0
O618 O 0.98316 0.96308 0.67856 0.0
C619 C 0.94825 0.28236 0.68596 0.0
C620 C 0.9303 0.31413 0.69243 0.0
C621 C 0.94143 0.3335 0.68811 0.0
N622 N 0.94153 0.23507 0.68884 0.0
N623 N 0.93069 0.25404 0.69259 0.0
C624 C 0.96178 0.27825 0.68233 0.0
H625 H 0.9664 0.2356 0.6843 0.0
H626 H 0.96783 0.31596 0.68469 0.0
H627 H 0.96134 0.27998 0.67501 0.0
C628 C 0.97601 0.09805 0.70444 0.0
N629 N 0.96789 0.0974 0.69747 0.0
N630 N 0.96089 0.14645 0.69744 0.0
C631 C 0.9642 0.17965 0.70452 0.0
C632 C 0.97391 0.15019 0.70916 0.0
C633 C 0.98459 0.0469 0.70693 0.0
H634 H 0.97845 0.00758 0.70847 0.0
H635 H 0.99084 0.03492 0.70123 0.0
H636 H 0.99074 0.05743 0.71273 0.0
O637 O 0.94526 0.01559 0.69018 0.0
O638 O 0.93353 0.0986 0.69045 0.0
H639 H 0.94728 0.23331 0.70674 0.0
H640 H 0.96108 0.25409 0.71347 0.0
C641 C 0.95801 0.23795 0.70688 0.0
H642 H 0.96087 0.27197 0.70196 0.0
H643 H 0.92384 0.22621 0.69557 0.0
O644 O 0.97321 0.96307 0.69163 0.0
C645 C 0.93432 0.04195 0.69077 0.0
Co646 Co 0.28795 0.21202 0.68987 0.0
Co647 Co 0.30273 0.09101 0.68873 0.0
C648 C 0.28793 0.14327 0.67325 0.0
O649 O 0.28396 0.18815 0.67761 0.0
O650 O 0.29519 0.10414 0.6768 0.0
C651 C 0.27056 0.31141 0.68756 0.0
O652 O 0.26634 0.282 0.68063 0.0
C653 C 0.30122 0.96471 0.68602 0.0
C654 C 0.31943 0.92986 0.69176 0.0
C655 C 0.30786 0.91241 0.68781 0.0
N656 N 0.30847 0.01075 0.68876 0.0
N657 N 0.31945 0.98993 0.69207 0.0
C658 C 0.28749 0.97116 0.68284 0.0
H659 H 0.28335 0.0145 0.68497 0.0
H660 H 0.28132 0.93443 0.68539 0.0
H661 H 0.28738 0.96955 0.67552 0.0
C662 C 0.27579 0.1524 0.70522 0.0
N663 N 0.28366 0.15226 0.69811 0.0
N664 N 0.29023 0.10198 0.69788 0.0
C665 C 0.28688 0.06871 0.70494 0.0
C666 C 0.27759 0.09947 0.7098 0.0
C667 C 0.26773 0.2048 0.70795 0.0
H668 H 0.27421 0.2434 0.70922 0.0
H669 H 0.26112 0.21727 0.70247 0.0
H670 H 0.26197 0.19539 0.71398 0.0
O671 O 0.30671 0.23123 0.69079 0.0
O672 O 0.31764 0.14591 0.6904 0.0
H673 H 0.30334 0.01122 0.70659 0.0
H674 H 0.28979 0.99309 0.71371 0.0
C675 C 0.2926 0.00898 0.70706 0.0
H676 H 0.28905 0.97591 0.70219 0.0
H677 H 0.32671 0.01651 0.69484 0.0
O678 O 0.279 0.28751 0.69255 0.0
C679 C 0.3174 0.20258 0.691 0.0
Co680 Co 0.03711 0.78587 0.43902 0.0
Co681 Co 0.05302 0.90366 0.43837 0.0
C682 C 0.0381 0.85593 0.42259 0.0
O683 O 0.03334 0.81222 0.42684 0.0
O684 O 0.04585 0.89258 0.42626 0.0
C685 C 0.02128 0.68207 0.43602 0.0
O686 O 0.01941 0.70477 0.42813 0.0
C687 C 0.05271 0.03092 0.43656 0.0
C688 C 0.07134 0.05959 0.44245 0.0
C689 C 0.05988 0.08087 0.43879 0.0
N690 N 0.05957 0.98241 0.43878 0.0
N691 N 0.07081 -0.00043 0.44216 0.0
C692 C 0.03892 0.02878 0.43341 0.0
H693 H 0.03447 0.98489 0.43491 0.0
H694 H 0.03309 0.06471 0.43654 0.0
H695 H 0.03873 0.03547 0.42616 0.0
C696 C 0.02484 0.84658 0.45421 0.0
N697 N 0.0331 0.84546 0.44732 0.0
N698 N 0.04013 0.89438 0.44732 0.0
C699 C 0.03673 0.92786 0.45435 0.0
C700 C 0.02685 0.89891 0.45892 0.0
C701 C 0.0153 0.7981 0.45622 0.0
H702 H 0.02049 0.76038 0.45939 0.0
H703 H 0.01091 0.78156 0.45 0.0
H704 H 0.00751 0.81401 0.4607 0.0
O705 O 0.05576 0.76301 0.44002 0.0
O706 O 0.06733 0.84646 0.44019 0.0
H707 H 0.05435 0.97796 0.45592 0.0
H708 H 0.04245 0.99136 0.4644 0.0
C709 C 0.04382 0.9828 0.45725 0.0
H710 H 0.04008 0.02172 0.45352 0.0
H711 H 0.07783 0.97044 0.44464 0.0
O712 O 0.02768 0.71166 0.44169 0.0
C713 C 0.06665 0.78984 0.44053 0.0
Co714 Co 0.71401 0.96767 0.44006 0.0
Co715 Co 0.69959 0.84631 0.43881 0.0
C716 C 0.71333 0.90464 0.42316 0.0
O717 O 0.71776 0.94812 0.42762 0.0
O718 O 0.70622 0.86508 0.42676 0.0
C719 C 0.73191 0.06671 0.43909 0.0
O720 O 0.73743 0.03773 0.43256 0.0
C721 C 0.70403 0.72093 0.43713 0.0
C722 C 0.68555 0.67941 0.44127 0.0
C723 C 0.69829 0.66648 0.43894 0.0
N724 N 0.69528 0.76411 0.43861 0.0
N725 N 0.68416 0.73919 0.44095 0.0
C726 C 0.71771 0.73235 0.43415 0.0
H727 H 0.71818 0.77254 0.42994 0.0
H728 H 0.72399 0.74032 0.43998 0.0
H729 H 0.72158 0.69375 0.4304 0.0
C730 C 0.72737 0.90615 0.45477 0.0
N731 N 0.7191 0.90694 0.44787 0.0
N732 N 0.71236 0.85722 0.44778 0.0
C733 C 0.71586 0.82378 0.45479 0.0
C734 C 0.72562 0.85322 0.45937 0.0
C735 C 0.73652 0.95582 0.45694 0.0
H736 H 0.73099 0.99283 0.46003 0.0
H737 H 0.74104 0.97291 0.4508 0.0
H738 H 0.74426 0.94089 0.46154 0.0
O739 O 0.69509 0.98336 0.4414 0.0
O740 O 0.6843 0.89757 0.44116 0.0
H741 H 0.69839 0.77152 0.4558 0.0
H742 H 0.70916 0.76494 0.46512 0.0
C743 C 0.70871 0.76933 0.45783 0.0
H744 H 0.71327 0.72913 0.4549 0.0
H745 H 0.67582 0.76298 0.44267 0.0
O746 O 0.72242 0.04318 0.44316 0.0
C747 C 0.68447 0.95424 0.44186 0.0
Co748 Co 0.03687 0.95216 0.31227 0.0
Co749 Co 0.05294 0.83484 0.31243 0.0
C750 C 0.03774 0.87837 0.32833 0.0
O751 O 0.03292 0.92258 0.32424 0.0
O752 O 0.04565 0.84307 0.32454 0.0
C753 C 0.02134 0.05465 0.31614 0.0
O754 O 0.02026 0.03035 0.324 0.0
C755 C 0.05217 0.70802 0.31373 0.0
C756 C 0.07119 0.67787 0.30862 0.0
C757 C 0.0593 0.65768 0.31172 0.0
N758 N 0.05936 0.75598 0.31178 0.0
N759 N 0.0708 0.73799 0.30883 0.0
C760 C 0.03874 0.71142 0.31753 0.0
H761 H 0.03301 0.74606 0.31404 0.0
H762 H 0.0336 0.66808 0.31726 0.0
H763 H 0.03946 0.72511 0.32455 0.0
C764 C 0.02519 0.89581 0.29652 0.0
N765 N 0.03315 0.89488 0.30357 0.0
N766 N 0.04026 0.84618 0.30338 0.0
C767 C 0.03722 0.81498 0.29604 0.0
C768 C 0.02753 0.84521 0.29149 0.0
C769 C 0.01647 0.94703 0.29428 0.0
H770 H 0.02249 0.98726 0.29308 0.0
H771 H 0.01003 0.95671 0.29998 0.0
H772 H 0.01051 0.9379 0.28834 0.0
O773 O 0.05553 0.97582 0.31152 0.0
O774 O 0.06721 0.89265 0.31099 0.0
H775 H 0.05426 0.76111 0.29429 0.0
H776 H 0.04145 0.74539 0.28646 0.0
C777 C 0.0436 0.75767 0.29339 0.0
H778 H 0.0399 0.7214 0.29766 0.0
H779 H 0.07818 0.76663 0.30673 0.0
O780 O 0.02719 0.02632 0.31007 0.0
C781 C 0.06646 0.94934 0.31093 0.0
Co782 Co 0.71271 0.79569 0.31321 0.0
Co783 Co 0.69704 0.91406 0.31267 0.0
C784 C 0.71189 0.87324 0.3289 0.0
O785 O 0.71643 0.82724 0.32509 0.0
O786 O 0.70429 0.90863 0.32484 0.0
C787 C 0.72576 0.68868 0.31783 0.0
O788 O 0.72364 0.7075 0.32591 0.0
C789 C 0.69815 0.04137 0.313 0.0
C790 C 0.67956 0.07024 0.30708 0.0
C791 C 0.69139 0.09109 0.31018 0.0
N792 N 0.69085 0.9931 0.31143 0.0
N793 N 0.67964 0.01043 0.30803 0.0
C794 C 0.7114 0.03883 0.31711 0.0
H795 H 0.71776 0.0089 0.31319 0.0
H796 H 0.71593 0.08343 0.31772 0.0
H797 H 0.71058 0.01954 0.32382 0.0
C798 C 0.72494 0.84798 0.29735 0.0
N799 N 0.71682 0.85095 0.3043 0.0
N800 N 0.70978 0.89974 0.30375 0.0
C801 C 0.71299 0.92875 0.29626 0.0
C802 C 0.72277 0.89716 0.292 0.0
C803 C 0.73368 0.79614 0.2955 0.0
H804 H 0.72766 0.75594 0.29428 0.0
H805 H 0.73981 0.78713 0.30138 0.0
H806 H 0.73997 0.80418 0.28967 0.0
O807 O 0.69405 0.77267 0.31233 0.0
O808 O 0.68261 0.85645 0.31146 0.0
H809 H 0.69598 0.98195 0.29403 0.0
H810 H 0.70881 0.99457 0.28611 0.0
C811 C 0.70664 0.985 0.29313 0.0
H812 H 0.71035 0.02285 0.29708 0.0
H813 H 0.67228 0.98137 0.30603 0.0
O814 O 0.72248 0.72148 0.31138 0.0
C815 C 0.6832 0.7997 0.31158 0.0
Co816 Co 0.96565 0.70617 0.06224 0.0
Co817 Co 0.94947 0.58893 0.06265 0.0
C818 C 0.96431 0.63494 0.07858 0.0
O819 O 0.96899 0.67941 0.07445 0.0
O820 O 0.95671 0.59832 0.07476 0.0
C821 C 0.9811 0.81049 0.06554 0.0
O822 O 0.98241 0.78829 0.07352 0.0
C823 C 0.94946 0.46165 0.06442 0.0
C824 C 0.93087 0.43377 0.0584 0.0
C825 C 0.94222 0.412 0.06216 0.0
N826 N 0.94275 0.51046 0.06212 0.0
N827 N 0.93154 0.49377 0.05865 0.0
C828 C 0.9632 0.46318 0.06768 0.0
H829 H 0.96783 0.50653 0.0661 0.0
H830 H 0.96897 0.42646 0.06471 0.0
H831 H 0.96322 0.45745 0.07496 0.0
C832 C 0.97804 0.64523 0.04708 0.0
N833 N 0.96966 0.64659 0.0539 0.0
N834 N 0.96249 0.5981 0.05379 0.0
C835 C 0.96593 0.56466 0.04677 0.0
C836 C 0.97597 0.59316 0.04232 0.0
C837 C 0.98773 0.69326 0.04519 0.0
H838 H 0.98271 0.73121 0.04196 0.0
H839 H 0.99201 0.7096 0.05146 0.0
H840 H 0.9956 0.67697 0.04079 0.0
O841 O 0.94713 0.72996 0.06108 0.0
O842 O 0.93529 0.64732 0.06088 0.0
H843 H 0.96025 0.50166 0.03664 0.0
H844 H 0.96234 0.47095 0.04753 0.0
C845 C 0.95877 0.51014 0.04379 0.0
H846 H 0.94822 0.51549 0.04503 0.0
H847 H 0.92462 0.5232 0.05612 0.0
O848 O 0.97523 0.78018 0.05969 0.0
C849 C 0.93616 0.70392 0.06053 0.0
Co850 Co 0.28705 0.53476 0.06195 0.0
Co851 Co 0.30166 0.65592 0.0628 0.0
C852 C 0.28749 0.60327 0.07855 0.0
O853 O 0.28338 0.55835 0.07426 0.0
O854 O 0.29462 0.64236 0.07486 0.0
C855 C 0.26952 0.4358 0.06423 0.0
O856 O 0.26506 0.46572 0.07105 0.0
C857 C 0.29952 0.78191 0.06523 0.0
C858 C 0.31774 0.81825 0.0597 0.0
C859 C 0.30596 0.83468 0.06345 0.0
N860 N 0.30711 0.73646 0.0627 0.0
N861 N 0.31808 0.75816 0.05951 0.0
C862 C 0.28578 0.77434 0.06831 0.0
H863 H 0.28194 0.73011 0.06635 0.0
H864 H 0.27946 0.80986 0.06555 0.0
H865 H 0.2855 0.7774 0.07562 0.0
C866 C 0.2739 0.5947 0.04699 0.0
N867 N 0.28225 0.59441 0.05383 0.0
N868 N 0.28882 0.64466 0.05391 0.0
C869 C 0.28502 0.67826 0.04699 0.0
C870 C 0.27535 0.64797 0.04241 0.0
C871 C 0.26482 0.54458 0.0449 0.0
H872 H 0.27037 0.5078 0.04177 0.0
H873 H 0.26046 0.52728 0.05109 0.0
H874 H 0.25696 0.55909 0.04037 0.0
O875 O 0.30586 0.51626 0.0607 0.0
O876 O 0.31659 0.6021 0.06081 0.0
H877 H 0.29011 0.74383 0.03708 0.0
H878 H 0.28743 0.77264 0.04803 0.0
C879 C 0.29155 0.73489 0.04422 0.0
H880 H 0.30212 0.73214 0.04555 0.0
H881 H 0.32556 0.73213 0.05689 0.0
O882 O 0.27818 0.45911 0.05936 0.0
C883 C 0.31647 0.54544 0.06025 0.0
Co884 Co 0.96209 0.53839 0.18933 0.0
Co885 Co 0.94729 0.65936 0.18843 0.0
C886 C 0.96201 0.60834 0.17282 0.0
O887 O 0.96603 0.56322 0.1771 0.0
O888 O 0.95474 0.64709 0.17645 0.0
C889 C 0.97937 0.43883 0.18678 0.0
O890 O 0.98341 0.46814 0.17979 0.0
C891 C 0.9487 0.78574 0.18584 0.0
C892 C 0.93057 0.8202 0.19176 0.0
C893 C 0.94205 0.83788 0.18772 0.0
N894 N 0.94152 0.73953 0.18862 0.0
N895 N 0.93059 0.76011 0.19204 0.0
C896 C 0.96236 0.77956 0.18253 0.0
H897 H 0.9666 0.73644 0.18466 0.0
H898 H 0.96853 0.81658 0.18499 0.0
H899 H 0.96231 0.78082 0.17521 0.0
C900 C 0.97447 0.59716 0.20466 0.0
N901 N 0.96647 0.59759 0.19763 0.0
N902 N 0.95988 0.64784 0.19751 0.0
C903 C 0.96334 0.68075 0.20459 0.0
C904 C 0.97273 0.64983 0.20932 0.0
C905 C 0.98264 0.54481 0.20725 0.0
H906 H 0.97622 0.50613 0.2086 0.0
H907 H 0.98907 0.53248 0.20166 0.0
H908 H 0.9886 0.55421 0.21319 0.0
O909 O 0.94332 0.51904 0.19028 0.0
O910 O 0.9324 0.60442 0.19007 0.0
H911 H 0.94689 0.73797 0.20644 0.0
H912 H 0.96054 0.75571 0.21349 0.0
C913 C 0.95763 0.74029 0.20683 0.0
H914 H 0.96108 0.7737 0.20199 0.0
H915 H 0.9234 0.73335 0.19485 0.0
O916 O 0.97108 0.4628 0.19188 0.0
C917 C 0.93263 0.54772 0.19058 0.0
Co918 Co 0.28781 0.70561 0.18889 0.0
Co919 Co 0.30299 0.58584 0.1884 0.0
C920 C 0.28799 0.63244 0.17266 0.0
O921 O 0.2839 0.67818 0.17677 0.0
O922 O 0.2954 0.59475 0.17641 0.0
C923 C 0.27138 0.8074 0.18573 0.0
O924 O 0.26904 0.78252 0.17805 0.0
C925 C 0.30274 0.45877 0.18643 0.0
C926 C 0.32097 0.42948 0.19281 0.0
C927 C 0.30978 0.40858 0.18874 0.0
N928 N 0.30942 0.50701 0.189 0.0
N929 N 0.32042 0.48951 0.19268 0.0
C930 C 0.28912 0.46132 0.18295 0.0
H931 H 0.28445 0.50426 0.18473 0.0
H932 H 0.28321 0.42403 0.18561 0.0
H933 H 0.28935 0.45757 0.17565 0.0
C934 C 0.27573 0.64859 0.20447 0.0
N935 N 0.28371 0.64748 0.19743 0.0
N936 N 0.2904 0.59753 0.19747 0.0
C937 C 0.28701 0.56546 0.20464 0.0
C938 C 0.27758 0.59668 0.20929 0.0
C939 C 0.26746 0.70097 0.20691 0.0
H940 H 0.2738 0.74017 0.20809 0.0
H941 H 0.26094 0.71203 0.20131 0.0
H942 H 0.26158 0.69234 0.21291 0.0
O943 O 0.3065 0.72758 0.18974 0.0
O944 O 0.31754 0.6426 0.18979 0.0
H945 H 0.30355 0.50924 0.20679 0.0
H946 H 0.28975 0.49121 0.21368 0.0
C947 C 0.2928 0.50638 0.20704 0.0
H948 H 0.28958 0.47247 0.2022 0.0
H949 H 0.32728 0.51839 0.19543 0.0
O950 O 0.27839 0.78008 0.19132 0.0
C951 C 0.31723 0.69931 0.19011 0.0
Co952 Co 0.03678 0.2822 0.93916 0.0
Co953 Co 0.05199 0.4012 0.93815 0.0
C954 C 0.03757 0.34673 0.92245 0.0
O955 O 0.03267 0.30413 0.92688 0.0
O956 O 0.04522 0.38419 0.92605 0.0
C957 C 0.01887 0.18222 0.93824 0.0
O958 O 0.01349 0.20884 0.93144 0.0
C959 C 0.04869 0.52741 0.93675 0.0
C960 C 0.06722 0.56465 0.94162 0.0
C961 C 0.05472 0.58033 0.93905 0.0
N962 N 0.05701 0.48246 0.93818 0.0
N963 N 0.06818 0.50485 0.94094 0.0
C964 C 0.0351 0.51889 0.93339 0.0
H965 H 0.03468 0.48113 0.92871 0.0
H966 H 0.02856 0.50833 0.93899 0.0
H967 H 0.03153 0.55957 0.93 0.0
C968 C 0.02394 0.34351 0.95407 0.0
N969 N 0.0322 0.34243 0.94717 0.0
N970 N 0.0392 0.39139 0.94715 0.0
C971 C 0.03588 0.42458 0.95424 0.0
C972 C 0.02598 0.39576 0.95879 0.0
C973 C 0.01447 0.29485 0.95611 0.0
H974 H 0.01972 0.25707 0.95922 0.0
H975 H 0.00998 0.27855 0.94991 0.0
H976 H 0.00673 0.31052 0.96065 0.0
O977 O 0.05567 0.26353 0.94025 0.0
O978 O 0.0669 0.34802 0.94039 0.0
H979 H 0.0536 0.47472 0.95542 0.0
H980 H 0.04268 0.48273 0.96464 0.0
C981 C 0.04325 0.47819 0.95735 0.0
H982 H 0.03899 0.51884 0.95436 0.0
H983 H 0.07621 0.47922 0.94277 0.0
O984 O 0.02814 0.20753 0.9423 0.0
C985 C 0.06645 0.29133 0.94082 0.0
Co986 Co 0.71425 0.45238 0.93936 0.0
Co987 Co 0.69905 0.33252 0.93839 0.0
C988 C 0.71365 0.3837 0.92274 0.0
O989 O 0.71793 0.42804 0.92708 0.0
O990 O 0.70627 0.34526 0.92636 0.0
C991 C 0.73139 0.55234 0.93676 0.0
O992 O 0.73526 0.52367 0.92967 0.0
C993 C 0.69999 0.20612 0.93566 0.0
C994 C 0.68204 0.17267 0.94194 0.0
C995 C 0.69331 0.15436 0.9377 0.0
N996 N 0.69302 0.25274 0.93854 0.0
N997 N 0.68219 0.23276 0.94216 0.0
C998 C 0.71356 0.21147 0.93215 0.0
H999 H 0.71796 0.25445 0.93418 0.0
H1000 H 0.71973 0.17425 0.93455 0.0
H1001 H 0.71328 0.20984 0.92483 0.0
C1002 C 0.72655 0.39229 0.95459 0.0
N1003 N 0.71855 0.39249 0.94756 0.0
N1004 N 0.71186 0.34257 0.94739 0.0
C1005 C 0.71527 0.30916 0.95442 0.0
C1006 C 0.72472 0.33948 0.9592 0.0
C1007 C 0.73473 0.44441 0.95726 0.0
H1008 H 0.72832 0.48315 0.95862 0.0
H1009 H 0.74122 0.45685 0.95171 0.0
H1010 H 0.74062 0.43476 0.96323 0.0
O1011 O 0.69557 0.47283 0.94048 0.0
O1012 O 0.68436 0.38834 0.94026 0.0
H1013 H 0.69869 0.25298 0.95642 0.0
H1014 H 0.71255 0.2333 0.96317 0.0
C1015 C 0.70944 0.24979 0.95661 0.0
H1016 H 0.71258 0.21672 0.95162 0.0
H1017 H 0.67518 0.25991 0.94512 0.0
O1018 O 0.72336 0.52754 0.94196 0.0
C1019 C 0.6848 0.44499 0.94084 0.0
Co1020 Co 0.03603 0.45373 0.81263 0.0
Co1021 Co 0.05268 0.33801 0.81266 0.0
C1022 C 0.03705 0.37879 0.82856 0.0
O1023 O 0.03205 0.42282 0.82452 0.0
O1024 O 0.04519 0.34473 0.82474 0.0
C1025 C 0.02135 0.55765 0.81678 0.0
O1026 O 0.02124 0.53467 0.82475 0.0
C1027 C 0.05222 0.21108 0.81379 0.0
C1028 C 0.07137 0.18206 0.80877 0.0
C1029 C 0.05949 0.16116 0.81178 0.0
N1030 N 0.05933 0.25949 0.81194 0.0
N1031 N 0.07085 0.24217 0.80904 0.0
C1032 C 0.03874 0.21365 0.81754 0.0
H1033 H 0.03301 0.24852 0.81411 0.0
H1034 H 0.03366 0.17021 0.81712 0.0
H1035 H 0.03937 0.22648 0.8246 0.0
C1036 C 0.02474 0.39735 0.79674 0.0
N1037 N 0.03265 0.39676 0.80382 0.0
N1038 N 0.04001 0.34887 0.80357 0.0
C1039 C 0.0372 0.31792 0.79617 0.0
C1040 C 0.02737 0.34742 0.79164 0.0
C1041 C 0.01577 0.44777 0.79456 0.0
H1042 H 0.0216 0.48858 0.79336 0.0
H1043 H 0.00934 0.45675 0.80029 0.0
H1044 H 0.0098 0.43817 0.78864 0.0
O1045 O 0.05458 0.47888 0.81196 0.0
O1046 O 0.06675 0.39724 0.81134 0.0
H1047 H 0.05451 0.26593 0.79444 0.0
H1048 H 0.04191 0.24973 0.78648 0.0
C1049 C 0.04388 0.26152 0.79345 0.0
H1050 H 0.04029 0.22447 0.79761 0.0
H1051 H 0.07819 0.27124 0.80702 0.0
O1052 O 0.0262 0.52762 0.81047 0.0
C1053 C 0.06567 0.45383 0.81135 0.0
Co1054 Co 0.71353 0.2941 0.81209 0.0
Co1055 Co 0.69815 0.41338 0.81294 0.0
C1056 C 0.71328 0.36524 0.82853 0.0
O1057 O 0.71741 0.32017 0.82428 0.0
O1058 O 0.70581 0.40324 0.82489 0.0
C1059 C 0.73 0.1922 0.815 0.0
O1060 O 0.73252 0.2169 0.82267 0.0
C1061 C 0.69836 0.54039 0.81509 0.0
C1062 C 0.68001 0.56975 0.80888 0.0
C1063 C 0.69127 0.59064 0.81286 0.0
N1064 N 0.69165 0.49219 0.81255 0.0
N1065 N 0.68057 0.50973 0.80898 0.0
C1066 C 0.71206 0.53778 0.81844 0.0
H1067 H 0.71666 0.49472 0.81665 0.0
H1068 H 0.71793 0.57491 0.8157 0.0
H1069 H 0.71197 0.54178 0.82574 0.0
C1070 C 0.72535 0.35297 0.79659 0.0
N1071 N 0.71749 0.35328 0.8037 0.0
N1072 N 0.7107 0.40297 0.8038 0.0
C1073 C 0.71392 0.43569 0.79665 0.0
C1074 C 0.72334 0.40517 0.79187 0.0
C1075 C 0.73361 0.30094 0.79399 0.0
H1076 H 0.72727 0.26181 0.79275 0.0
H1077 H 0.74021 0.28935 0.79953 0.0
H1078 H 0.7394 0.31023 0.78797 0.0
O1079 O 0.69488 0.27196 0.81121 0.0
O1080 O 0.68364 0.35639 0.81144 0.0
H1081 H 0.69721 0.49128 0.79473 0.0
H1082 H 0.71082 0.51021 0.78771 0.0
C1083 C 0.70795 0.49462 0.79437 0.0
H1084 H 0.71123 0.52846 0.7992 0.0
H1085 H 0.67368 0.48089 0.80626 0.0
O1086 O 0.72294 0.21985 0.80948 0.0
C1087 C 0.68408 0.29974 0.81094 0.0
H1088 H 0.48194 0.19855 0.08747 0.0
H1089 H 0.4855 0.19281 0.10343 0.0
H1090 H 0.45326 0.0708 0.10577 0.0
H1091 H 0.45002 0.07429 0.08985 0.0
H1092 H 0.47048 0.22635 0.1163 0.0
H1093 H 0.47927 0.98538 0.12042 0.0
H1094 H 0.47909 0.02045 0.10971 0.0
H1095 H 0.46411 -0.00235 0.11489 0.0
C1096 C 0.47574 0.1698 0.09138 0.0
C1097 C 0.46574 0.13664 0.08739 0.0
C1098 C 0.47778 0.16661 0.1005 0.0
C1099 C 0.46981 0.13052 0.1058 0.0
C1100 C 0.45982 0.09744 0.10181 0.0
H1101 H 0.44913 0.18017 0.16007 0.0
H1102 H 0.45233 0.18673 0.14415 0.0
C1103 C 0.45791 0.09986 0.0927 0.0
C1104 C 0.47131 0.13044 0.11556 0.0
H1105 H 0.47234 0.03839 0.13348 0.0
C1106 C 0.47109 0.18524 0.12005 0.0
C1107 C 0.4724 0.07701 0.12048 0.0
C1108 C 0.47388 0.01693 0.11611 0.0
C1109 C 0.47133 0.18794 0.12931 0.0
C1110 C 0.47131 0.13427 0.13423 0.0
C1111 C 0.47214 0.0796 0.12973 0.0
C1112 C 0.46989 0.13341 0.14399 0.0
C1113 C 0.47165 0.24837 0.13368 0.0
C1114 C 0.47849 0.09999 0.14923 0.0
C1115 C 0.47649 0.09493 0.15833 0.0
C1116 C 0.46591 0.12362 0.16238 0.0
C1117 C 0.45747 0.15812 0.15717 0.0
C1118 C 0.45935 0.16231 0.14805 0.0
H1119 H 0.47639 0.28198 0.12936 0.0
H1120 H 0.46154 0.2636 0.1349 0.0
H1121 H 0.47691 0.24698 0.14007 0.0
H1122 H 0.48666 0.07705 0.14625 0.0
H1123 H 0.48316 0.06804 0.16217 0.0
H1124 H 0.80225 0.16677 0.091 0.0
H1125 H 0.7987 0.16739 0.10689 0.0
H1126 H 0.76576 0.0503 0.10367 0.0
H1127 H 0.76969 0.04709 0.08773 0.0
H1128 H 0.77975 0.20277 0.11701 0.0
H1129 H 0.78585 0.95884 0.12159 0.0
H1130 H 0.78927 0.9953 0.11125 0.0
H1131 H 0.77278 0.97826 0.11431 0.0
C1132 C 0.79423 0.14114 0.09365 0.0
C1133 C 0.78634 0.10633 0.08811 0.0
C1134 C 0.7922 0.1416 0.10276 0.0
C1135 C 0.78212 0.10791 0.10653 0.0
C1136 C 0.77384 0.07517 0.10096 0.0
H1137 H 0.76739 0.17002 0.16317 0.0
H1138 H 0.76399 0.16339 0.1472 0.0
C1139 C 0.77604 0.07374 0.09184 0.0
C1140 C 0.78055 0.10699 0.11628 0.0
H1141 H 0.78055 0.01491 0.13424 0.0
C1142 C 0.77988 0.16167 0.12078 0.0
C1143 C 0.78084 0.05333 0.12121 0.0
C1144 C 0.78235 0.99314 0.11686 0.0
C1145 C 0.77993 0.16441 0.13004 0.0
C1146 C 0.78009 0.11074 0.13496 0.0
C1147 C 0.78033 0.05599 0.13046 0.0
C1148 C 0.78121 0.11034 0.14475 0.0
C1149 C 0.7805 0.2249 0.1344 0.0
C1150 C 0.79157 0.07988 0.14876 0.0
C1151 C 0.79333 0.08222 0.15789 0.0
C1152 C 0.78484 0.11572 0.16321 0.0
C1153 C 0.77419 0.14448 0.15924 0.0
C1154 C 0.77229 0.14114 0.1501 0.0
H1155 H 0.78379 0.26006 0.12974 0.0
H1156 H 0.77066 0.23732 0.13675 0.0
H1157 H 0.78719 0.22453 0.14015 0.0
H1158 H 0.79855 0.05557 0.14479 0.0
H1159 H 0.80162 0.0595 0.16073 0.0
H1160 H 0.51922 0.79773 0.91292 0.0
H1161 H 0.51578 0.80383 0.89694 0.0
H1162 H 0.5499 0.91448 0.89447 0.0
H1163 H 0.55302 0.91091 0.91041 0.0
H1164 H 0.5314 0.95563 0.88437 0.0
H1165 H 0.53543 0.71175 0.87881 0.0
H1166 H 0.52242 0.73215 0.88609 0.0
H1167 H 0.53901 0.74564 0.88932 0.0
C1168 C 0.52595 0.82352 0.90896 0.0
C1169 C 0.53644 0.85353 0.91292 0.0
C1170 C 0.52403 0.82661 0.89982 0.0
C1171 C 0.53275 0.85848 0.89446 0.0
C1172 C 0.54305 0.88944 0.89845 0.0
H1173 H 0.55193 0.81659 0.84 0.0
H1174 H 0.54899 0.81071 0.85593 0.0
C1175 C 0.54484 0.88729 0.90758 0.0
C1176 C 0.53135 0.85968 0.8847 0.0
H1177 H 0.53067 0.77106 0.86637 0.0
C1178 C 0.5312 0.91526 0.88043 0.0
C1179 C 0.53121 0.80695 0.87955 0.0
C1180 C 0.53215 0.74577 0.88366 0.0
C1181 C 0.53131 0.91972 0.87118 0.0
C1182 C 0.53102 0.867 0.86604 0.0
C1183 C 0.53079 0.81143 0.87031 0.0
C1184 C 0.53209 0.86825 0.85625 0.0
C1185 C 0.53241 0.98084 0.86707 0.0
C1186 C 0.52338 0.90139 0.85106 0.0
C1187 C 0.52519 0.9058 0.84193 0.0
C1188 C 0.53556 0.87586 0.8378 0.0
C1189 C 0.54385 0.84027 0.84296 0.0
C1190 C 0.54217 0.8368 0.85209 0.0
H1191 H 0.53601 0.01447 0.87187 0.0
H1192 H 0.53908 0.98031 0.86131 0.0
H1193 H 0.52268 0.99548 0.86479 0.0
H1194 H 0.51528 0.92453 0.85408 0.0
H1195 H 0.51854 0.93297 0.83811 0.0
H1196 H 0.23116 0.80754 0.83795 0.0
H1197 H 0.23503 0.81371 0.85388 0.0
H1198 H 0.20186 0.93007 0.85662 0.0
H1199 H 0.19835 0.92651 0.84073 0.0
H1200 H 0.22071 0.96795 0.86663 0.0
H1201 H 0.21501 0.72461 0.87209 0.0
H1202 H 0.2281 0.74336 0.86478 0.0
H1203 H 0.21158 0.75918 0.86161 0.0
C1204 C 0.22474 0.83464 0.84196 0.0
C1205 C 0.21439 0.86619 0.83809 0.0
C1206 C 0.22691 0.83779 0.85107 0.0
C1207 C 0.21856 0.87122 0.8565 0.0
C1208 C 0.20842 0.90382 0.85259 0.0
H1209 H 0.19865 0.82859 0.91067 0.0
H1210 H 0.20173 0.82468 0.89473 0.0
C1211 C 0.20641 0.90165 0.84349 0.0
C1212 C 0.22008 0.87204 0.86625 0.0
H1213 H 0.22002 0.78306 0.88454 0.0
C1214 C 0.22061 0.9275 0.87055 0.0
C1215 C 0.21984 0.81923 0.87138 0.0
C1216 C 0.21848 0.75826 0.86725 0.0
C1217 C 0.22044 0.93182 0.8798 0.0
C1218 C 0.22028 0.879 0.88492 0.0
C1219 C 0.22022 0.8235 0.88062 0.0
C1220 C 0.21897 0.88009 0.89469 0.0
C1221 C 0.21972 0.99299 0.88393 0.0
C1222 C 0.22775 0.91175 0.90003 0.0
C1223 C 0.22584 0.91511 0.90917 0.0
C1224 C 0.21531 0.88552 0.91314 0.0
C1225 C 0.20686 0.85187 0.90782 0.0
C1226 C 0.20863 0.84951 0.89869 0.0
H1227 H 0.21647 0.0273 0.87912 0.0
H1228 H 0.21294 0.9934 0.88963 0.0
H1229 H 0.22951 0.00599 0.88631 0.0
H1230 H 0.23603 0.93422 0.89713 0.0
H1231 H 0.23261 0.94078 0.91311 0.0
H1232 H 0.47612 0.53453 0.66099 0.0
H1233 H 0.47832 0.54366 0.64497 0.0
H1234 H 0.45979 0.71602 0.64589 0.0
H1235 H 0.45738 0.70708 0.66186 0.0
H1236 H 0.44838 0.63965 0.6341 0.0
H1237 H 0.50179 0.64427 0.62904 0.0
H1238 H 0.49623 0.58306 0.63569 0.0
H1239 H 0.49434 0.65812 0.63965 0.0
C1240 C 0.4727 0.57484 0.65781 0.0
C1241 C 0.46649 0.6199 0.66271 0.0
C1242 C 0.47405 0.58013 0.64865 0.0
C1243 C 0.46933 0.63077 0.64425 0.0
C1244 C 0.46353 0.67664 0.64916 0.0
H1245 H 0.4742 0.71885 0.58824 0.0
H1246 H 0.47706 0.7172 0.6043 0.0
C1247 C 0.46215 0.67138 0.6583 0.0
C1248 C 0.46927 0.63351 0.63448 0.0
H1249 H 0.48872 0.62908 0.61619 0.0
C1250 C 0.45721 0.63773 0.63019 0.0
C1251 C 0.4808 0.63143 0.6294 0.0
C1252 C 0.49404 0.62953 0.63367 0.0
C1253 C 0.45635 0.63875 0.62096 0.0
C1254 C 0.46783 0.63449 0.61587 0.0
C1255 C 0.47993 0.63167 0.62013 0.0
C1256 C 0.46732 0.63265 0.60611 0.0
C1257 C 0.44313 0.64473 0.61672 0.0
C1258 C 0.46125 0.5848 0.60182 0.0
C1259 C 0.45958 0.58557 0.59268 0.0
C1260 C 0.46399 0.63421 0.58764 0.0
C1261 C 0.47063 0.68085 0.59193 0.0
C1262 C 0.47229 0.67999 0.6011 0.0
H1263 H 0.43574 0.66171 0.62145 0.0
H1264 H 0.44352 0.67522 0.61095 0.0
H1265 H 0.43988 0.60033 0.61436 0.0
H1266 H 0.45752 0.54745 0.60559 0.0
H1267 H 0.45452 0.54866 0.58961 0.0
H1268 H 0.76885 0.68962 0.66308 0.0
H1269 H 0.76465 0.68276 0.64719 0.0
H1270 H 0.79775 0.56612 0.64428 0.0
H1271 H 0.80159 0.57049 0.66012 0.0
H1272 H 0.77843 0.71781 0.63395 0.0
H1273 H 0.77214 0.47531 0.63019 0.0
H1274 H 0.77243 0.5107 0.64088 0.0
H1275 H 0.78738 0.49026 0.63544 0.0
C1276 C 0.77511 0.66186 0.65905 0.0
C1277 C 0.7855 0.63029 0.66286 0.0
C1278 C 0.7727 0.65797 0.64997 0.0
C1279 C 0.7807 0.62286 0.64454 0.0
C1280 C 0.79114 0.59176 0.64835 0.0
H1281 H 0.80109 0.67692 0.5907 0.0
H1282 H 0.79726 0.68217 0.60653 0.0
C1283 C 0.7934 0.59476 0.65742 0.0
C1284 C 0.7788 0.62187 0.63481 0.0
H1285 H 0.77877 0.52863 0.61701 0.0
C1286 C 0.77827 0.67637 0.63026 0.0
C1287 C 0.77824 0.56797 0.62995 0.0
C1288 C 0.77742 0.50787 0.6344 0.0
C1289 C 0.77796 0.67843 0.621 0.0
C1290 C 0.7787 0.62459 0.61614 0.0
C1291 C 0.77846 0.57006 0.6207 0.0
C1292 C 0.78051 0.62366 0.6064 0.0
C1293 C 0.77684 0.73844 0.61656 0.0
C1294 C 0.77265 0.58746 0.60103 0.0
C1295 C 0.77506 0.58309 0.59196 0.0
C1296 C 0.78531 0.61525 0.58808 0.0
C1297 C 0.79302 0.65213 0.59345 0.0
C1298 C 0.79076 0.65562 0.60252 0.0
H1299 H 0.77144 0.77051 0.62078 0.0
H1300 H 0.78671 0.75695 0.61548 0.0
H1301 H 0.77181 0.73514 0.61009 0.0
H1302 H 0.76474 0.56204 0.60387 0.0
H1303 H 0.76894 0.55431 0.588 0.0
H1304 H 0.54436 0.43759 0.41157 0.0
H1305 H 0.54193 0.44118 0.39557 0.0
H1306 H 0.52315 0.26933 0.39594 0.0
H1307 H 0.52532 0.26572 0.41202 0.0
H1308 H 0.55293 0.36205 0.3841 0.0
H1309 H 0.49937 0.36577 0.37975 0.0
H1310 H 0.50711 0.38178 0.39018 0.0
H1311 H 0.50521 0.30597 0.38656 0.0
C1312 C 0.53953 0.40087 0.40829 0.0
C1313 C 0.53505 0.3513 0.4131 0.0
C1314 C 0.53816 0.40302 0.39913 0.0
C1315 C 0.53226 0.3558 0.39457 0.0
C1316 C 0.52751 0.30681 0.39934 0.0
H1317 H 0.54611 0.28164 0.33906 0.0
H1318 H 0.54368 0.27447 0.35507 0.0
C1319 C 0.52883 0.30468 0.40853 0.0
C1320 C 0.53207 0.35602 0.38478 0.0
H1321 H 0.51207 0.35102 0.36679 0.0
C1322 C 0.54399 0.35975 0.38032 0.0
C1323 C 0.52039 0.3535 0.37987 0.0
C1324 C 0.50727 0.35208 0.38432 0.0
C1325 C 0.54459 0.36067 0.37108 0.0
C1326 C 0.53294 0.35653 0.36615 0.0
C1327 C 0.52098 0.35342 0.37059 0.0
C1328 C 0.53307 0.35727 0.35638 0.0
C1329 C 0.55767 0.36733 0.36667 0.0
C1330 C 0.5274 0.40489 0.35177 0.0
C1331 C 0.52871 0.40904 0.34261 0.0
C1332 C 0.5357 0.36551 0.33788 0.0
C1333 C 0.54079 0.31629 0.34249 0.0
C1334 C 0.53945 0.31216 0.35165 0.0
H1335 H 0.56517 0.38421 0.37131 0.0
H1336 H 0.56092 0.3232 0.3642 0.0
H1337 H 0.55707 0.39824 0.36095 0.0
H1338 H 0.52238 0.44001 0.35531 0.0
H1339 H 0.52461 0.44739 0.33927 0.0
H1340 H 0.22634 0.28394 0.33868 0.0
H1341 H 0.2288 0.28665 0.35474 0.0
H1342 H 0.20885 0.45558 0.3556 0.0
H1343 H 0.20622 0.45323 0.33957 0.0
H1344 H 0.23981 0.37261 0.36679 0.0
H1345 H 0.18657 0.34253 0.37108 0.0
H1346 H 0.19467 0.32992 0.36068 0.0
H1347 H 0.19113 0.40457 0.36425 0.0
C1348 C 0.22261 0.32208 0.34226 0.0
C1349 C 0.21592 0.36798 0.33784 0.0
C1350 C 0.22404 0.32354 0.35144 0.0
C1351 C 0.2188 0.37078 0.35634 0.0
C1352 C 0.21276 0.41822 0.35192 0.0
H1353 H 0.22597 0.45716 0.41186 0.0
H1354 H 0.22863 0.45207 0.39585 0.0
C1355 C 0.2113 0.41682 0.34276 0.0
C1356 C 0.21893 0.36872 0.36611 0.0
H1357 H 0.19884 0.361 0.38399 0.0
C1358 C 0.23088 0.36997 0.37057 0.0
C1359 C 0.20725 0.36423 0.37099 0.0
C1360 C 0.19417 0.35967 0.36653 0.0
C1361 C 0.23143 0.36814 0.37984 0.0
C1362 C 0.21972 0.36556 0.38472 0.0
C1363 C 0.20781 0.36324 0.38023 0.0
C1364 C 0.21947 0.36573 0.39451 0.0
C1365 C 0.24453 0.36815 0.38432 0.0
C1366 C 0.21343 0.31888 0.39907 0.0
C1367 C 0.21179 0.32181 0.40821 0.0
C1368 C 0.21611 0.37189 0.41297 0.0
C1369 C 0.22256 0.41786 0.40841 0.0
C1370 C 0.22417 0.4149 0.39926 0.0
H1371 H 0.25239 0.3542 0.37974 0.0
H1372 H 0.24676 0.41392 0.38665 0.0
H1373 H 0.24455 0.338 0.39014 0.0
H1374 H 0.2097 0.2806 0.39552 0.0
H1375 H 0.20683 0.28549 0.41151 0.0
H1376 H 0.94889 0.17246 0.66066 0.0
H1377 H 0.95189 0.17529 0.6447 0.0
H1378 H 0.98566 0.06232 0.64711 0.0
H1379 H 0.98234 0.05695 0.66309 0.0
H1380 H 0.97025 0.21353 0.63423 0.0
H1381 H 0.96523 0.96931 0.6295 0.0
H1382 H 0.96201 0.00499 0.63993 0.0
H1383 H 0.97846 0.98947 0.6366 0.0
C1384 C 0.95699 0.14831 0.65781 0.0
C1385 C 0.96529 0.11388 0.66313 0.0
C1386 C 0.9587 0.15 0.64867 0.0
C1387 C 0.96883 0.11792 0.64466 0.0
C1388 C 0.97753 0.08588 0.65001 0.0
H1389 H 0.98294 0.18286 0.58809 0.0
H1390 H 0.9861 0.17663 0.60408 0.0
C1391 C 0.97568 0.08325 0.65915 0.0
C1392 C 0.97001 0.11765 0.63488 0.0
H1393 H 0.97015 0.02626 0.61684 0.0
C1394 C 0.97027 0.17256 0.63043 0.0
C1395 C 0.96988 0.06416 0.6299 0.0
C1396 C 0.96875 0.00367 0.63421 0.0
C1397 C 0.97007 0.17563 0.62117 0.0
C1398 C 0.97014 0.12213 0.6162 0.0
C1399 C 0.97021 0.06721 0.62065 0.0
C1400 C 0.96909 0.12197 0.60641 0.0
C1401 C 0.96913 0.23618 0.61686 0.0
C1402 C 0.95893 0.0906 0.60233 0.0
C1403 C 0.9573 0.09277 0.59319 0.0
C1404 C 0.96573 0.12697 0.58793 0.0
C1405 C 0.97618 0.15675 0.59198 0.0
C1406 C 0.97794 0.15364 0.60112 0.0
H1407 H 0.96562 0.27071 0.62155 0.0
H1408 H 0.9789 0.24991 0.61453 0.0
H1409 H 0.96245 0.2352 0.6111 0.0
H1410 H 0.95201 0.06561 0.60625 0.0
H1411 H 0.94916 0.06927 0.59028 0.0
H1412 H 0.29508 0.20103 0.58956 0.0
H1413 H 0.29301 0.2097 0.60558 0.0
H1414 H 0.26973 0.04998 0.60619 0.0
H1415 H 0.2716 0.0411 0.59015 0.0
H1416 H 0.26075 0.14275 0.61764 0.0
H1417 H 0.31339 0.09457 0.62175 0.0
H1418 H 0.30978 0.15622 0.61459 0.0
H1419 H 0.30491 0.08219 0.61148 0.0
C1420 C 0.2894 0.16803 0.59307 0.0
C1421 C 0.28365 0.11991 0.58857 0.0
C1422 C 0.28826 0.17301 0.60223 0.0
C1423 C 0.28142 0.12988 0.60707 0.0
C1424 C 0.27511 0.08355 0.60257 0.0
H1425 H 0.29284 0.04919 0.66227 0.0
H1426 H 0.28983 0.04484 0.6463 0.0
C1427 C 0.27621 0.07853 0.5934 0.0
C1428 C 0.28149 0.13107 0.61684 0.0
H1429 H 0.30169 0.12001 0.63463 0.0
C1430 C 0.26968 0.1378 0.62138 0.0
C1431 C 0.29314 0.12362 0.62167 0.0
C1432 C 0.30602 0.11319 0.61715 0.0
C1433 C 0.26925 0.13808 0.63066 0.0
C1434 C 0.28096 0.13213 0.63548 0.0
C1435 C 0.29273 0.12483 0.63092 0.0
C1436 C 0.28135 0.13283 0.64526 0.0
C1437 C 0.25627 0.14361 0.63521 0.0
C1438 C 0.27741 0.18349 0.64999 0.0
C1439 C 0.27906 0.18607 0.65915 0.0
C1440 C 0.28482 0.13824 0.66372 0.0
C1441 C 0.28841 0.08692 0.65897 0.0
C1442 C 0.28671 0.08432 0.64984 0.0
H1443 H 0.24811 0.13199 0.63073 0.0
H1444 H 0.2558 0.11438 0.64112 0.0
H1445 H 0.25488 0.19037 0.63741 0.0
H1446 H 0.27349 0.2219 0.64658 0.0
H1447 H 0.27624 0.22638 0.6626 0.0
H1448 H 0.01832 0.80488 0.41311 0.0
H1449 H 0.01491 0.80932 0.39713 0.0
H1450 H 0.04864 0.92221 0.39449 0.0
H1451 H 0.05173 0.92032 0.41044 0.0
H1452 H 0.03024 0.95957 0.38399 0.0
H1453 H 0.03531 0.71501 0.37965 0.0
H1454 H 0.02209 0.7357 0.38673 0.0
H1455 H 0.03855 0.75149 0.39002 0.0
C1456 C 0.02495 0.83101 0.40912 0.0
C1457 C 0.03536 0.86186 0.41303 0.0
C1458 C 0.02305 0.83309 0.39998 0.0
C1459 C 0.03172 0.86478 0.39457 0.0
C1460 C 0.04186 0.89718 0.39851 0.0
H1461 H 0.05149 0.81293 0.34028 0.0
H1462 H 0.0485 0.80951 0.35624 0.0
C1463 C 0.04361 0.89604 0.40765 0.0
C1464 C 0.03051 0.86376 0.38479 0.0
H1465 H 0.03037 0.77099 0.3669 0.0
C1466 C 0.03023 0.91832 0.38025 0.0
C1467 C 0.03065 0.80989 0.3799 0.0
C1468 C 0.03179 0.74973 0.38431 0.0
C1469 C 0.03043 0.92068 0.37099 0.0
C1470 C 0.03036 0.86681 0.3661 0.0
C1471 C 0.0303 0.81223 0.37064 0.0
C1472 C 0.03142 0.86595 0.35632 0.0
C1473 C 0.03136 0.98092 0.36658 0.0
C1474 C 0.0226 0.89739 0.35098 0.0
C1475 C 0.02444 0.90038 0.34184 0.0
C1476 C 0.03495 0.87066 0.33785 0.0
C1477 C 0.04331 0.83639 0.34315 0.0
C1478 C 0.04161 0.83437 0.35229 0.0
H1479 H 0.03485 0.0158 0.37122 0.0
H1480 H 0.03804 0.97953 0.36083 0.0
H1481 H 0.02158 0.99447 0.36422 0.0
H1482 H 0.01441 0.92048 0.3539 0.0
H1483 H 0.01773 0.92651 0.33792 0.0
H1484 H 0.72613 0.80275 0.34007 0.0
H1485 H 0.72843 0.81336 0.35605 0.0
H1486 H 0.70647 0.97697 0.35522 0.0
H1487 H 0.70394 0.96652 0.33925 0.0
H1488 H 0.73843 0.90539 0.36716 0.0
H1489 H 0.68548 0.86805 0.3719 0.0
H1490 H 0.6936 0.85305 0.36158 0.0
H1491 H 0.68954 0.92828 0.36459 0.0
C1492 C 0.72189 0.84138 0.34325 0.0
C1493 C 0.71469 0.88337 0.33838 0.0
C1494 C 0.72325 0.84739 0.35239 0.0
C1495 C 0.71743 0.89538 0.35682 0.0
C1496 C 0.71084 0.93904 0.35193 0.0
H1497 H 0.72484 0.9886 0.41256 0.0
H1498 H 0.7269 0.98639 0.39646 0.0
C1499 C 0.70944 0.93305 0.3428 0.0
C1500 C 0.71759 0.89769 0.36659 0.0
H1501 H 0.69775 0.89084 0.38462 0.0
C1502 C 0.72956 0.90234 0.37099 0.0
C1503 C 0.706 0.89277 0.37156 0.0
C1504 C 0.69292 0.88472 0.36719 0.0
C1505 C 0.73022 0.90269 0.38027 0.0
C1506 C 0.71859 0.89891 0.38522 0.0
C1507 C 0.70665 0.89402 0.3808 0.0
C1508 C 0.71848 0.89853 0.395 0.0
C1509 C 0.74334 0.90573 0.38468 0.0
C1510 C 0.71304 0.84998 0.39952 0.0
C1511 C 0.71175 0.85126 0.40869 0.0
C1512 C 0.71584 0.90131 0.41354 0.0
C1513 C 0.72164 0.94927 0.40903 0.0
C1514 C 0.72288 0.94798 0.39983 0.0
H1515 H 0.75132 0.89377 0.38006 0.0
H1516 H 0.74507 0.95188 0.38704 0.0
H1517 H 0.74375 0.87546 0.39047 0.0
H1518 H 0.70956 0.81141 0.39591 0.0
H1519 H 0.7073 0.81343 0.41194 0.0
H1520 H 0.97498 0.52884 0.16223 0.0
H1521 H 0.97791 0.5342 0.14623 0.0
H1522 H 0.95898 0.7057 0.14583 0.0
H1523 H 0.95586 0.7006 0.16179 0.0
H1524 H 0.94841 0.62471 0.1341 0.0
H1525 H 0.00208 0.63412 0.13053 0.0
H1526 H 0.99625 0.57428 0.13735 0.0
H1527 H 0.9939 0.65013 0.14082 0.0
C1528 C 0.97162 0.56817 0.15877 0.0
C1529 C 0.96512 0.61416 0.1633 0.0
C1530 C 0.97337 0.57127 0.14962 0.0
C1531 C 0.96876 0.62058 0.14486 0.0
C1532 C 0.96264 0.66733 0.14939 0.0
H1533 H 0.97732 0.71171 0.08955 0.0
H1534 H 0.9792 0.70557 0.10563 0.0
C1535 C 0.96086 0.66428 0.15852 0.0
C1536 C 0.96927 0.62126 0.13508 0.0
H1537 H 0.98986 0.61818 0.11739 0.0
C1538 C 0.95747 0.62346 0.13045 0.0
C1539 C 0.98112 0.62001 0.13034 0.0
C1540 C 0.99408 0.62004 0.135 0.0
C1541 C 0.95717 0.62392 0.1212 0.0
C1542 C 0.96899 0.62105 0.11645 0.0
C1543 C 0.98082 0.61964 0.12106 0.0
C1544 C 0.96916 0.62116 0.10667 0.0
C1545 C 0.94419 0.6285 0.11659 0.0
C1546 C 0.96327 0.57474 0.10193 0.0
C1547 C 0.96213 0.57814 0.09276 0.0
C1548 C 0.96693 0.62796 0.08815 0.0
C1549 C 0.97346 0.67286 0.09289 0.0
C1550 C 0.97456 0.66943 0.10208 0.0
H1551 H 0.93643 0.64447 0.12111 0.0
H1552 H 0.94476 0.65925 0.11086 0.0
H1553 H 0.94134 0.58383 0.11412 0.0
H1554 H 0.95926 0.53657 0.10536 0.0
H1555 H 0.95718 0.54242 0.08931 0.0
H1556 H 0.29453 0.69344 0.08972 0.0
H1557 H 0.29203 0.6967 0.10574 0.0
H1558 H 0.27181 0.52847 0.10516 0.0
H1559 H 0.27419 0.52467 0.08908 0.0
H1560 H 0.26093 0.61955 0.11704 0.0
H1561 H 0.31389 0.58073 0.12144 0.0
H1562 H 0.30974 0.64175 0.11428 0.0
H1563 H 0.30563 0.5669 0.11112 0.0
C1564 C 0.28943 0.65732 0.09296 0.0
C1565 C 0.2847 0.60838 0.08812 0.0
C1566 C 0.28803 0.65928 0.10213 0.0
C1567 C 0.28191 0.61242 0.10662 0.0
C1568 C 0.27661 0.56494 0.10179 0.0
H1569 H 0.29345 0.53659 0.16214 0.0
H1570 H 0.29039 0.5283 0.1462 0.0
C1571 C 0.27801 0.56284 0.09261 0.0
C1572 C 0.28175 0.61138 0.11638 0.0
H1573 H 0.30179 0.60341 0.13428 0.0
C1574 C 0.26983 0.61583 0.12083 0.0
C1575 C 0.29338 0.60561 0.12127 0.0
C1576 C 0.3064 0.59794 0.11681 0.0
C1577 C 0.26928 0.61605 0.13011 0.0
C1578 C 0.28097 0.61224 0.135 0.0
C1579 C 0.29284 0.60657 0.13051 0.0
C1580 C 0.28126 0.61466 0.14477 0.0
C1581 C 0.25621 0.61968 0.13459 0.0
C1582 C 0.27698 0.66569 0.14928 0.0
C1583 C 0.27868 0.67057 0.15841 0.0
C1584 C 0.28482 0.62471 0.16318 0.0
C1585 C 0.28873 0.57287 0.15868 0.0
C1586 C 0.28698 0.56799 0.14956 0.0
H1587 H 0.24822 0.60597 0.13009 0.0
H1588 H 0.25593 0.59115 0.14058 0.0
H1589 H 0.25438 0.66643 0.13664 0.0
H1590 H 0.27278 0.70275 0.14569 0.0
H1591 H 0.2756 0.7112 0.16166 0.0
H1592 H 0.0503 0.30973 0.84035 0.0
H1593 H 0.04677 0.30208 0.85621 0.0
H1594 H 0.01334 0.41746 0.85409 0.0
H1595 H 0.01718 0.42747 0.83822 0.0
H1596 H 0.02778 0.45283 0.86701 0.0
H1597 H 0.02186 0.20995 0.87077 0.0
H1598 H 0.03687 0.22588 0.86527 0.0
H1599 H 0.02168 0.24565 0.8601 0.0
C1600 C 0.04208 0.33282 0.84322 0.0
C1601 C 0.03402 0.36924 0.83801 0.0
C1602 C 0.04 0.32799 0.85231 0.0
C1603 C 0.02963 0.3582 0.85636 0.0
C1604 C 0.02137 0.39346 0.85113 0.0
H1605 H 0.01818 0.29214 0.91301 0.0
H1606 H 0.01424 0.29836 0.89709 0.0
C1607 C 0.02357 0.3991 0.84205 0.0
C1608 C 0.02812 0.3569 0.86612 0.0
H1609 H 0.02851 0.26352 0.8839 0.0
C1610 C 0.02771 0.41134 0.87069 0.0
C1611 C 0.02774 0.30294 0.87096 0.0
C1612 C 0.02691 0.2429 0.8665 0.0
C1613 C 0.02761 0.41334 0.87995 0.0
C1614 C 0.02843 0.35945 0.88479 0.0
C1615 C 0.02813 0.30495 0.88022 0.0
C1616 C 0.03025 0.35856 0.89452 0.0
C1617 C 0.02662 0.47331 0.88442 0.0
C1618 C 0.04058 0.39007 0.89839 0.0
C1619 C 0.04271 0.38736 0.90748 0.0
C1620 C 0.03477 0.35184 0.91289 0.0
C1621 C 0.02447 0.31992 0.90902 0.0
C1622 C 0.02221 0.32342 0.89992 0.0
H1623 H 0.02132 0.50579 0.88021 0.0
H1624 H 0.02157 0.47009 0.89088 0.0
H1625 H 0.03654 0.49127 0.88553 0.0
H1626 H 0.04719 0.41585 0.89435 0.0
H1627 H 0.05083 0.41192 0.91022 0.0
H1628 H 0.70773 0.45943 0.83936 0.0
H1629 H 0.71071 0.46525 0.85533 0.0
H1630 H 0.72844 0.29101 0.85528 0.0
H1631 H 0.72569 0.28504 0.83928 0.0
H1632 H 0.69935 0.38838 0.86701 0.0
H1633 H 0.75291 0.38546 0.87122 0.0
H1634 H 0.74521 0.4017 0.86077 0.0
H1635 H 0.74678 0.3259 0.86448 0.0
C1636 C 0.71246 0.42268 0.84271 0.0
C1637 C 0.71642 0.37162 0.83803 0.0
C1638 C 0.71416 0.42614 0.85184 0.0
C1639 C 0.71989 0.37881 0.85648 0.0
C1640 C 0.72423 0.32857 0.85181 0.0
H1641 H 0.70633 0.29472 0.91143 0.0
H1642 H 0.70882 0.29245 0.89539 0.0
C1643 C 0.72257 0.32511 0.84266 0.0
C1644 C 0.72017 0.37973 0.86627 0.0
H1645 H 0.7402 0.36997 0.88421 0.0
C1646 C 0.70829 0.38469 0.87076 0.0
C1647 C 0.73186 0.37524 0.87115 0.0
C1648 C 0.74493 0.37233 0.86667 0.0
C1649 C 0.70774 0.3844 0.88001 0.0
C1650 C 0.71937 0.37798 0.88489 0.0
C1651 C 0.73129 0.37415 0.88042 0.0
C1652 C 0.71922 0.37607 0.89465 0.0
C1653 C 0.69472 0.3916 0.88448 0.0
C1654 C 0.72471 0.42271 0.89956 0.0
C1655 C 0.72333 0.42418 0.90874 0.0
C1656 C 0.71646 0.37886 0.91317 0.0
C1657 C 0.71156 0.33067 0.90824 0.0
C1658 C 0.71294 0.3293 0.89907 0.0
H1659 H 0.68725 0.40966 0.8799 0.0
H1660 H 0.69133 0.34746 0.88685 0.0
H1661 H 0.69549 0.42173 0.89027 0.0
H1662 H 0.72964 0.45908 0.89625 0.0
H1663 H 0.72729 0.4618 0.91233 0.0
H1664 H 0.5235 0.83164 0.97377 0.0
H1665 H 0.5144 0.86533 0.98789 0.0
H1666 H 0.50784 0.03993 0.97681 0.0
H1667 H 0.51663 0.00593 0.96264 0.0
H1668 H 0.52382 0.95997 0.99835 0.0
H1669 H 0.47268 -0.00127 0.98811 0.0
H1670 H 0.48389 0.95484 0.98163 0.0
H1671 H 0.48458 0.03487 0.98129 0.0
C1672 C 0.51986 0.87679 0.97432 0.0
C1673 C 0.52062 0.91611 0.96712 0.0
C1674 C 0.51477 0.8961 0.98238 0.0
C1675 C 0.5103 0.95488 0.98336 0.0
C1676 C 0.51101 0.99409 0.97615 0.0
H1677 H 0.47845 0.16219 0.02663 0.0
H1678 H 0.48777 0.12832 0.01259 0.0
C1679 C 0.5161 0.97481 0.9681 0.0
C1680 C 0.50542 0.97597 0.99201 0.0
H1681 H 0.47875 0.03405 0.0023 0.0
C1682 C 0.51395 0.97588 0.99924 0.0
C1683 C 0.49256 -0.00309 0.99312 0.0
C1684 C 0.48284 0.99597 0.98565 0.0
C1685 C 0.51002 -0.00281 0.00753 0.0
C1686 C 0.49716 0.01814 0.00864 0.0
C1687 C 0.48863 0.01816 0.00141 0.0
C1688 C 0.49227 0.03953 0.01728 0.0
C1689 C 0.51976 -0.00168 0.01498 0.0
C1690 C 0.49173 0.00087 0.02456 0.0
C1691 C 0.48653 0.02032 0.03258 0.0
C1692 C 0.48169 0.07857 0.03343 0.0
C1693 C 0.48231 0.11738 0.02617 0.0
C1694 C 0.48753 0.09795 0.01815 0.0
H1695 H 0.52991 0.99613 0.0125 0.0
H1696 H 0.51864 0.03923 0.01904 0.0
H1697 H 0.51813 0.95914 0.01931 0.0
H1698 H 0.4951 0.95528 0.02398 0.0
H1699 H 0.48613 0.98962 0.03809 0.0
H1700 H 0.79109 0.17215 0.02681 0.0
H1701 H 0.78182 0.20493 0.01269 0.0
H1702 H 0.74334 0.19695 0.02395 0.0
H1703 H 0.75265 0.1651 0.03814 0.0
H1704 H 0.76329 0.14813 0.00185 0.0
H1705 H 0.74564 0.36754 0.01397 0.0
H1706 H 0.75719 0.32285 0.02004 0.0
H1707 H 0.7402 0.30437 0.02025 0.0
C1708 C 0.78066 0.17768 0.02625 0.0
C1709 C 0.77255 0.16705 0.03352 0.0
C1710 C 0.77539 0.19615 0.0182 0.0
C1711 C 0.76193 0.20435 0.01733 0.0
C1712 C 0.75377 0.19205 0.02455 0.0
H1713 H 0.71192 0.31813 0.97454 0.0
H1714 H 0.72119 0.28476 0.98862 0.0
C1715 C 0.75906 0.17353 0.0326 0.0
C1716 C 0.75646 0.22556 0.00885 0.0
H1717 H 0.73972 0.34044 0.9994 0.0
C1718 C 0.75817 0.19024 0.00129 0.0
C1719 C 0.74981 0.28056 0.00817 0.0
C1720 C 0.74817 0.3214 0.01601 0.0
C1721 C 0.75318 0.20798 0.99308 0.0
C1722 C 0.74653 0.263 0.9924 0.0
C1723 C 0.74483 0.29831 0.99996 0.0
C1724 C 0.74106 0.28425 0.98392 0.0
C1725 C 0.75481 0.16707 0.98524 0.0
C1726 C 0.74919 0.2961 0.97668 0.0
C1727 C 0.74389 0.3149 0.96864 0.0
C1728 C 0.73041 0.3222 0.96776 0.0
C1729 C 0.72233 0.31196 0.97507 0.0
C1730 C 0.72762 0.29316 0.98309 0.0
H1731 H 0.75726 0.12087 0.9873 0.0
H1732 H 0.74582 0.16585 0.98119 0.0
H1733 H 0.76284 0.18384 0.98103 0.0
H1734 H 0.75962 0.29069 0.97724 0.0
H1735 H 0.75028 0.32296 0.96308 0.0
H1736 H 0.47987 0.07742 0.22293 0.0
H1737 H 0.48905 0.10928 0.23713 0.0
H1738 H 0.49284 0.28861 0.22719 0.0
H1739 H 0.48375 0.2569 0.213 0.0
H1740 H 0.5132 0.16441 0.24105 0.0
H1741 H 0.47146 0.30962 0.2499 0.0
H1742 H 0.47063 0.25491 0.24117 0.0
H1743 H 0.47851 0.32528 0.2393 0.0
C1744 C 0.48283 0.12341 0.22376 0.0
C1745 C 0.4811 0.16482 0.21691 0.0
C1746 C 0.48799 0.14161 0.23187 0.0
C1747 C 0.4914 0.2015 0.23325 0.0
C1748 C 0.49 0.24249 0.22632 0.0
H1749 H 0.523 0.40438 0.27707 0.0
H1750 H 0.51404 0.37104 0.26289 0.0
C1751 C 0.48485 0.22434 0.21823 0.0
C1752 C 0.4964 0.22129 0.24193 0.0
H1753 H 0.49005 0.31535 0.25914 0.0
C1754 C 0.50812 0.19716 0.24503 0.0
C1755 C 0.48974 0.2641 0.2471 0.0
C1756 C 0.47683 0.28968 0.24426 0.0
C1757 C 0.51352 0.21563 0.2531 0.0
C1758 C 0.50687 0.25856 0.25825 0.0
C1759 C 0.49513 0.28257 0.25516 0.0
C1760 C 0.51192 0.27894 0.26689 0.0
C1761 C 0.52642 0.19005 0.25594 0.0
C1762 C 0.5134 0.23847 0.27388 0.0
C1763 C 0.51842 0.25748 0.28197 0.0
C1764 C 0.52196 0.31735 0.28322 0.0
C1765 C 0.52019 0.35815 0.2763 0.0
C1766 C 0.51517 0.33909 0.26819 0.0
H1767 H 0.53176 0.16985 0.25031 0.0
H1768 H 0.53264 0.22489 0.25898 0.0
H1769 H 0.52474 0.15465 0.26092 0.0
H1770 H 0.51067 0.19215 0.27308 0.0
H1771 H 0.51954 0.22537 0.28725 0.0
H1772 H 0.7899 0.06968 0.22493 0.0
H1773 H 0.78071 0.03528 0.239 0.0
H1774 H 0.74271 0.0261 0.22704 0.0
H1775 H 0.75196 0.05972 0.21292 0.0
H1776 H 0.76055 0.08669 0.24922 0.0
H1777 H 0.74795 0.85853 0.23778 0.0
H1778 H 0.75892 0.90657 0.23178 0.0
H1779 H 0.74166 0.91799 0.23108 0.0
C1780 C 0.77959 0.0601 0.22534 0.0
C1781 C 0.77161 0.06654 0.21789 0.0
C1782 C 0.77437 0.04065 0.23334 0.0
C1783 C 0.76108 0.02719 0.234 0.0
C1784 C 0.75303 0.03515 0.22661 0.0
H1785 H 0.71084 0.90491 0.27605 0.0
H1786 H 0.72054 0.9358 0.26197 0.0
C1787 C 0.75827 0.0547 0.2186 0.0
C1788 C 0.75568 0.00534 0.24246 0.0
H1789 H 0.74072 0.88598 0.25207 0.0
C1790 C 0.75626 0.04274 0.24987 0.0
C1791 C 0.75011 0.94796 0.24326 0.0
C1792 C 0.74969 0.9051 0.23558 0.0
C1793 C 0.75117 0.02475 0.25805 0.0
C1794 C 0.74558 0.96736 0.25885 0.0
C1795 C 0.74504 0.92989 0.25144 0.0
C1796 C 0.73995 0.94602 0.26727 0.0
C1797 C 0.7515 0.06793 0.26569 0.0
C1798 C 0.74773 0.94008 0.27485 0.0
C1799 C 0.74218 0.92277 0.28288 0.0
C1800 C 0.72882 0.91101 0.28342 0.0
C1801 C 0.72115 0.91463 0.27577 0.0
C1802 C 0.72668 0.93202 0.26776 0.0
H1803 H 0.75314 0.11448 0.26344 0.0
H1804 H 0.74229 0.06628 0.2695 0.0
H1805 H 0.75958 0.05562 0.27019 0.0
H1806 H 0.75805 0.94941 0.27457 0.0
H1807 H 0.74825 0.91979 0.2887 0.0
H1808 H 0.22779 0.91137 0.97407 0.0
H1809 H 0.23675 0.87841 0.98828 0.0
H1810 H 0.24392 0.70396 0.97732 0.0
H1811 H 0.23524 0.73716 0.96308 0.0
H1812 H 0.22726 0.78232 0.99863 0.0
H1813 H 0.2788 0.74814 0.98893 0.0
H1814 H 0.2676 0.79168 0.98239 0.0
H1815 H 0.26716 0.71165 0.98194 0.0
C1816 C 0.23153 0.86642 0.97467 0.0
C1817 C 0.23097 0.82687 0.96749 0.0
C1818 C 0.23654 0.84753 0.98278 0.0
C1819 C 0.24113 0.789 0.9838 0.0
C1820 C 0.24064 0.7496 0.97662 0.0
H1821 H 0.27295 0.58354 0.02724 0.0
H1822 H 0.26378 0.61691 0.01313 0.0
C1823 C 0.23561 0.76843 0.96852 0.0
C1824 C 0.24589 0.76824 0.9925 0.0
H1825 H 0.27254 0.7122 0.00304 0.0
C1826 C 0.23718 0.76729 0.99962 0.0
C1827 C 0.25881 0.7484 0.99373 0.0
C1828 C 0.26869 0.75039 0.98637 0.0
C1829 C 0.24098 0.74598 0.00794 0.0
C1830 C 0.25391 0.72617 0.00918 0.0
C1831 C 0.26262 0.72723 0.00205 0.0
C1832 C 0.25868 0.70493 0.01786 0.0
C1833 C 0.23106 0.74359 0.01527 0.0
C1834 C 0.25881 0.74332 0.02517 0.0
C1835 C 0.26392 0.72413 0.03323 0.0
C1836 C 0.26907 0.66645 0.03408 0.0
C1837 C 0.26884 0.62789 0.02678 0.0
C1838 C 0.26371 0.64704 0.01872 0.0
H1839 H 0.22097 0.74475 0.01266 0.0
H1840 H 0.23227 0.70271 0.01932 0.0
H1841 H 0.23237 0.78283 0.01964 0.0
H1842 H 0.25521 0.78854 0.0246 0.0
H1843 H 0.26402 0.75464 0.03878 0.0
H1844 H 0.48669 0.75831 0.71244 0.0
H1845 H 0.49559 0.79086 0.72667 0.0
H1846 H 0.48764 0.61726 0.73767 0.0
H1847 H 0.47871 0.58472 0.72346 0.0
H1848 H 0.48216 0.79391 0.74281 0.0
H1849 H 0.52559 0.64739 0.74476 0.0
H1850 H 0.5169 0.66022 0.73458 0.0
H1851 H 0.5106 0.60894 0.74263 0.0
C1852 C 0.48696 0.72708 0.71789 0.0
C1853 C 0.48211 0.66899 0.71688 0.0
C1854 C 0.49203 0.74564 0.72599 0.0
C1855 C 0.4924 0.70626 0.73319 0.0
C1856 C 0.48769 0.64794 0.73215 0.0
H1857 H 0.51599 0.73772 0.78798 0.0
H1858 H 0.50708 0.70495 0.77377 0.0
C1859 C 0.48261 0.62938 0.72404 0.0
C1860 C 0.49715 0.72715 0.74189 0.0
H1861 H 0.52021 0.70214 0.75765 0.0
C1862 C 0.49052 0.77409 0.74605 0.0
C1863 C 0.50801 0.701 0.74609 0.0
C1864 C 0.51578 0.65194 0.74177 0.0
C1865 C 0.49435 0.79501 0.75439 0.0
C1866 C 0.50522 0.76891 0.75859 0.0
C1867 C 0.51185 0.72195 0.75442 0.0
C1868 C 0.50999 0.78987 0.76728 0.0
C1869 C 0.48655 0.84397 0.75871 0.0
C1870 C 0.51456 0.84842 0.76833 0.0
C1871 C 0.51963 0.86711 0.77643 0.0
C1872 C 0.52029 0.8274 0.78358 0.0
C1873 C 0.5156 0.76904 0.78255 0.0
C1874 C 0.51052 0.75036 0.77445 0.0
H1875 H 0.4767 0.84806 0.75577 0.0
H1876 H 0.48552 0.83594 0.76591 0.0
H1877 H 0.49164 0.88711 0.75778 0.0
H1878 H 0.51449 0.87922 0.76282 0.0
H1879 H 0.5234 0.91201 0.77703 0.0
H1880 H 0.29038 0.07705 0.72512 0.0
H1881 H 0.28109 0.04259 0.73914 0.0
H1882 H 0.24266 0.05019 0.72778 0.0
H1883 H 0.25202 0.08354 0.71369 0.0
H1884 H 0.26258 0.09708 0.75008 0.0
H1885 H 0.24498 0.87919 0.7374 0.0
H1886 H 0.25644 0.92481 0.73141 0.0
H1887 H 0.23942 0.94286 0.73128 0.0
C1888 C 0.27996 0.07106 0.72564 0.0
C1889 C 0.27189 0.08202 0.71836 0.0
C1890 C 0.27467 0.05163 0.73363 0.0
C1891 C 0.26122 0.0428 0.73444 0.0
C1892 C 0.2531 0.05551 0.72723 0.0
H1893 H 0.21057 0.92817 0.77674 0.0
H1894 H 0.22018 0.96137 0.76276 0.0
C1895 C 0.2584 0.07494 0.71923 0.0
C1896 C 0.25573 0.0206 0.74286 0.0
H1897 H 0.2388 0.90509 0.75198 0.0
C1898 C 0.25742 0.05501 0.75051 0.0
C1899 C 0.24905 0.96563 0.74339 0.0
C1900 C 0.24744 0.92561 0.73546 0.0
C1901 C 0.25236 0.03648 0.75867 0.0
C1902 C 0.24564 0.9816 0.75919 0.0
C1903 C 0.24398 0.94712 0.75155 0.0
C1904 C 0.23998 0.95984 0.76759 0.0
C1905 C 0.25397 0.07645 0.76661 0.0
C1906 C 0.24796 0.9468 0.77486 0.0
C1907 C 0.24247 0.92805 0.78284 0.0
C1908 C 0.22895 0.92203 0.78363 0.0
C1909 C 0.22102 0.9333 0.77628 0.0
C1910 C 0.22649 0.95202 0.76831 0.0
H1911 H 0.2566 0.1227 0.76469 0.0
H1912 H 0.24491 0.07784 0.77059 0.0
H1913 H 0.26187 0.05868 0.77085 0.0
H1914 H 0.25841 0.9514 0.77437 0.0
H1915 H 0.24874 0.91917 0.78843 0.0
H1916 H 0.497 0.57336 0.53749 0.0
H1917 H 0.50615 0.54121 0.52326 0.0
H1918 H 0.46762 0.53828 0.51201 0.0
H1919 H 0.45854 0.57123 0.52617 0.0
H1920 H 0.49986 0.43468 0.51413 0.0
H1921 H 0.48873 0.63516 0.49399 0.0
H1922 H 0.48854 0.63602 0.50592 0.0
H1923 H 0.47508 0.60515 0.4999 0.0
C1924 C 0.49056 0.56638 0.53192 0.0
C1925 C 0.47711 0.57431 0.53286 0.0
C1926 C 0.49576 0.54794 0.52384 0.0
C1927 C 0.48757 0.5379 0.51657 0.0
C1928 C 0.47413 0.54667 0.51749 0.0
H1929 H 0.49963 0.41356 0.46274 0.0
H1930 H 0.4902 0.44535 0.47691 0.0
C1931 C 0.46895 0.56501 0.52557 0.0
C1932 C 0.49299 0.51576 0.50813 0.0
H1933 H 0.49616 0.54965 0.48626 0.0
C1934 C 0.49913 0.45989 0.50804 0.0
C1935 C 0.49192 0.54866 0.5002 0.0
C1936 C 0.48581 0.60982 0.49998 0.0
C1937 C 0.50407 0.43557 0.50019 0.0
C1938 C 0.50305 0.46856 0.49226 0.0
C1939 C 0.49688 0.52439 0.49235 0.0
C1940 C 0.50861 0.44669 0.48384 0.0
C1941 C 0.51012 0.37428 0.50042 0.0
C1942 C 0.52204 0.43697 0.48307 0.0
C1943 C 0.52736 0.41871 0.47503 0.0
C1944 C 0.51937 0.41058 0.46763 0.0
C1945 C 0.50593 0.4196 0.4684 0.0
C1946 C 0.50058 0.43785 0.47645 0.0
H1947 H 0.50694 0.34862 0.50631 0.0
H1948 H 0.50761 0.34847 0.4944 0.0
H1949 H 0.52085 0.37876 0.50072 0.0
H1950 H 0.52843 0.44453 0.48864 0.0
H1951 H 0.53776 0.41165 0.47456 0.0
H1952 H 0.72827 0.9175 0.47458 0.0
H1953 H 0.73721 0.88303 0.48871 0.0
H1954 H 0.74484 0.71045 0.47726 0.0
H1955 H 0.73622 0.74524 0.46308 0.0
H1956 H 0.72797 0.78611 0.49881 0.0
H1957 H 0.77952 0.75374 0.48904 0.0
H1958 H 0.76827 0.79729 0.48255 0.0
H1959 H 0.76795 0.71727 0.48199 0.0
C1960 C 0.73212 0.87266 0.47505 0.0
C1961 C 0.73171 0.83413 0.46775 0.0
C1962 C 0.73711 0.85289 0.48312 0.0
C1963 C 0.74182 0.79445 0.48399 0.0
C1964 C 0.74147 0.75603 0.47668 0.0
H1965 H 0.77389 0.58711 0.52724 0.0
H1966 H 0.7646 0.6205 0.51317 0.0
C1967 C 0.73648 0.77577 0.46862 0.0
C1968 C 0.7466 0.77281 0.49263 0.0
H1969 H 0.77331 0.71651 0.50308 0.0
C1970 C 0.7379 0.77117 0.49977 0.0
C1971 C 0.75953 0.75307 0.49383 0.0
C1972 C 0.76941 0.75581 0.48648 0.0
C1973 C 0.74174 0.74941 0.50806 0.0
C1974 C 0.75469 0.7298 0.50926 0.0
C1975 C 0.76338 0.7314 0.50212 0.0
C1976 C 0.75952 0.70848 0.51792 0.0
C1977 C 0.73184 0.74645 0.5154 0.0
C1978 C 0.7597 0.74683 0.52524 0.0
C1979 C 0.76489 0.72767 0.53327 0.0
C1980 C 0.77007 0.67002 0.53409 0.0
C1981 C 0.76977 0.63145 0.5268 0.0
C1982 C 0.76457 0.65061 0.51876 0.0
H1983 H 0.72174 0.74761 0.51281 0.0
H1984 H 0.73311 0.70535 0.51939 0.0
H1985 H 0.73314 0.78545 0.51982 0.0
H1986 H 0.75608 0.79203 0.52469 0.0
H1987 H 0.76503 0.75817 0.53882 0.0
H1988 H 0.74884 0.42217 0.78792 0.0
H1989 H 0.75809 0.45321 0.77368 0.0
H1990 H 0.71962 0.45697 0.76234 0.0
H1991 H 0.71043 0.42477 0.77651 0.0
H1992 H 0.7382 0.40075 0.75165 0.0
H1993 H 0.75547 0.62188 0.76326 0.0
H1994 H 0.76116 0.55978 0.76967 0.0
H1995 H 0.74411 0.57719 0.76948 0.0
C1996 C 0.74243 0.4295 0.78235 0.0
C1997 C 0.72896 0.42192 0.78327 0.0
C1998 C 0.74767 0.4476 0.77427 0.0
C1999 C 0.7395 0.45848 0.76701 0.0
C2000 C 0.72607 0.44931 0.76788 0.0
H2001 H 0.75136 0.57294 0.71257 0.0
H2002 H 0.74192 0.54179 0.72675 0.0
C2003 C 0.72084 0.4312 0.77595 0.0
C2004 C 0.74493 0.47901 0.75849 0.0
H2005 H 0.76165 0.59304 0.7488 0.0
C2006 C 0.74328 0.44288 0.751 0.0
C2007 C 0.75154 0.53405 0.75769 0.0
C2008 C 0.7531 0.57582 0.76542 0.0
C2009 C 0.74829 0.45981 0.74276 0.0
C2010 C 0.75492 0.51477 0.74197 0.0
C2011 C 0.75655 0.55094 0.74944 0.0
C2012 C 0.76046 0.53508 0.73346 0.0
C2013 C 0.74671 0.41815 0.73501 0.0
C2014 C 0.77392 0.54329 0.73263 0.0
C2015 C 0.77926 0.56136 0.72459 0.0
C2016 C 0.77121 0.57159 0.71727 0.0
C2017 C 0.75772 0.56487 0.71814 0.0
C2018 C 0.75236 0.54675 0.72619 0.0
H2019 H 0.74416 0.37224 0.73715 0.0
H2020 H 0.73878 0.43477 0.7307 0.0
H2021 H 0.75576 0.41622 0.73102 0.0
H2022 H 0.78031 0.53498 0.73819 0.0
H2023 H 0.78969 0.56704 0.72407 0.0
H2024 H 0.27062 0.0718 0.52782 0.0
H2025 H 0.26223 0.10324 0.51338 0.0
H2026 H 0.25816 0.28317 0.52306 0.0
H2027 H 0.26658 0.25194 0.53746 0.0
H2028 H 0.23879 0.15616 0.50864 0.0
H2029 H 0.28024 0.30553 0.50097 0.0
H2030 H 0.28071 0.25201 0.50986 0.0
H2031 H 0.27248 0.32211 0.5113 0.0
C2032 C 0.26778 0.11785 0.52687 0.0
C2033 C 0.26924 0.15958 0.53371 0.0
C2034 C 0.26307 0.13582 0.51863 0.0
C2035 C 0.25983 0.19577 0.5171 0.0
C2036 C 0.26092 0.23703 0.52403 0.0
H2037 H 0.22753 0.39851 0.4738 0.0
H2038 H 0.23661 0.36376 0.48786 0.0
C2039 C 0.26566 0.21914 0.53224 0.0
C2040 C 0.25526 0.21528 0.50829 0.0
H2041 H 0.26188 0.31184 0.49144 0.0
C2042 C 0.24388 0.18986 0.50485 0.0
C2043 C 0.26195 0.25921 0.50336 0.0
C2044 C 0.27459 0.28594 0.50651 0.0
C2045 C 0.23881 0.20833 0.49669 0.0
C2046 C 0.24541 0.25281 0.49182 0.0
C2047 C 0.25684 0.27789 0.49522 0.0
C2048 C 0.24051 0.2743 0.48321 0.0
C2049 C 0.22628 0.18122 0.49343 0.0
C2050 C 0.24 0.23585 0.47592 0.0
C2051 C 0.23494 0.25576 0.46788 0.0
C2052 C 0.23034 0.31442 0.46702 0.0
C2053 C 0.23116 0.35329 0.47427 0.0
C2054 C 0.23626 0.33342 0.4823 0.0
H2055 H 0.221 0.15741 0.49877 0.0
H2056 H 0.21979 0.21604 0.49064 0.0
H2057 H 0.22846 0.14868 0.48812 0.0
H2058 H 0.24345 0.19037 0.47646 0.0
H2059 H 0.23453 0.2252 0.46235 0.0
H2060 H 0.25197 0.57992 0.21298 0.0
H2061 H 0.24237 0.54945 0.22715 0.0
H2062 H 0.28058 0.54586 0.23889 0.0
H2063 H 0.29011 0.57733 0.2248 0.0
H2064 H 0.24792 0.4443 0.23662 0.0
H2065 H 0.25941 0.64582 0.25641 0.0
H2066 H 0.25999 0.64524 0.24449 0.0
H2067 H 0.27315 0.61411 0.25079 0.0
C2068 C 0.25824 0.57316 0.21864 0.0
C2069 C 0.27173 0.58064 0.21786 0.0
C2070 C 0.25279 0.55567 0.22669 0.0
C2071 C 0.26076 0.54604 0.23408 0.0
C2072 C 0.27424 0.55403 0.23331 0.0
H2073 H 0.24834 0.4238 0.28783 0.0
H2074 H 0.25762 0.45574 0.27364 0.0
C2075 C 0.27968 0.57149 0.22527 0.0
C2076 C 0.25506 0.52527 0.24252 0.0
H2077 H 0.25177 0.56126 0.2643 0.0
C2078 C 0.24868 0.46999 0.24267 0.0
C2079 C 0.25613 0.55883 0.25039 0.0
C2080 C 0.26243 0.61955 0.25053 0.0
C2081 C 0.24354 0.44677 0.25053 0.0
C2082 C 0.24464 0.48026 0.25841 0.0
C2083 C 0.25099 0.53561 0.25825 0.0
C2084 C 0.2391 0.45909 0.26687 0.0
C2085 C 0.23725 0.38603 0.25038 0.0
C2086 C 0.22565 0.45062 0.26774 0.0
C2087 C 0.22039 0.4323 0.2758 0.0
C2088 C 0.22849 0.42277 0.28311 0.0
C2089 C 0.24195 0.43086 0.28224 0.0
C2090 C 0.24722 0.4492 0.27418 0.0
H2091 H 0.24017 0.35994 0.24447 0.0
H2092 H 0.23979 0.36016 0.25639 0.0
H2093 H 0.22653 0.39144 0.25021 0.0
H2094 H 0.2192 0.45895 0.26223 0.0
H2095 H 0.20998 0.42596 0.27634 0.0
H2096 H 0.01639 0.00695 0.4629 0.0
H2097 H 0.0077 0.04011 0.47717 0.0
H2098 H 0.01495 0.86565 0.48809 0.0
H2099 H 0.02395 0.8329 0.47391 0.0
H2100 H 0.98687 0.99401 0.48715 0.0
H2101 H 0.03363 0.97821 0.50533 0.0
H2102 H 0.03274 0.97695 0.49342 0.0
H2103 H 0.02891 0.91119 0.49968 0.0
C2104 C 0.01612 0.97584 0.46837 0.0
C2105 C 0.02084 0.9175 0.46735 0.0
C2106 C 0.01114 0.9947 0.47648 0.0
C2107 C 0.01087 0.95559 0.48371 0.0
C2108 C 0.01528 0.89681 0.48264 0.0
H2109 H 0.9849 0.9849 0.538 0.0
H2110 H 0.99368 0.95197 0.52374 0.0
C2111 C 0.02027 0.87795 0.47452 0.0
C2112 C 0.00594 0.97636 0.49237 0.0
H2113 H 0.01481 -0.00134 0.51384 0.0
C2114 C 0.99298 0.99529 0.49298 0.0
C2115 C 0.01396 0.97795 0.49995 0.0
C2116 C 0.02812 0.96051 0.49959 0.0
C2117 C 0.98773 0.01479 0.50103 0.0
C2118 C 0.99574 0.01631 0.50862 0.0
C2119 C 0.00871 -0.0026 0.50801 0.0
C2120 C 0.9908 0.03697 0.51727 0.0
C2121 C 0.97358 0.03238 0.5014 0.0
C2122 C 0.98652 0.09593 0.51839 0.0
C2123 C 0.9815 0.11468 0.5265 0.0
C2124 C 0.98074 0.07481 0.53362 0.0
C2125 C 0.98531 0.01626 0.53256 0.0
C2126 C 0.99035 -0.00247 0.52446 0.0
H2127 H 0.96807 0.0152 0.49562 0.0
H2128 H 0.96893 0.01552 0.50753 0.0
H2129 H 0.97281 0.08172 0.5014 0.0
H2130 H 0.98699 0.1273 0.51296 0.0
H2131 H 0.97793 0.1599 0.52714 0.0
H2132 H 0.99934 0.17225 0.71281 0.0
H2133 H 0.00865 0.20505 0.72697 0.0
H2134 H 0.97049 0.20056 0.73876 0.0
H2135 H 0.96124 0.16705 0.72468 0.0
H2136 H 0.0017 0.30978 0.73654 0.0
H2137 H 0.99303 0.10435 0.75612 0.0
H2138 H 0.99256 0.10519 0.74421 0.0
H2139 H 0.97896 0.13246 0.75047 0.0
C2140 C 0.99302 0.17778 0.71848 0.0
C2141 C 0.97962 0.16743 0.71772 0.0
C2142 C 0.9983 0.19661 0.72652 0.0
C2143 C 0.99027 0.20464 0.73392 0.0
C2144 C 0.97688 0.19373 0.73316 0.0
H2145 H 0.00211 0.32233 0.78799 0.0
H2146 H 0.99289 0.29077 0.77375 0.0
C2147 C 0.97161 0.17505 0.72513 0.0
C2148 C 0.99577 0.22655 0.74235 0.0
H2149 H 0.99983 0.19011 0.76405 0.0
C2150 C 0.00137 0.28356 0.74255 0.0
C2151 C 0.99524 0.19229 0.75017 0.0
C2152 C 0.98973 0.12995 0.75026 0.0
C2153 C 0.00628 0.30772 0.75042 0.0
C2154 C 0.00576 0.27343 0.75825 0.0
C2155 C 1.00017 0.21638 0.75804 0.0
C2156 C 0.01118 0.29537 0.76671 0.0
C2157 C 0.01169 0.37024 0.75033 0.0
C2158 C 0.02448 0.30842 0.76745 0.0
C2159 C 0.02969 0.32664 0.77553 0.0
C2160 C 0.02171 0.33137 0.78301 0.0
C2161 C 0.0084 0.31901 0.78227 0.0
C2162 C 0.00317 0.30086 0.77418 0.0
H2163 H 0.00814 0.39601 0.74455 0.0
H2164 H 0.00904 0.39465 0.75645 0.0
H2165 H 0.02245 0.36808 0.74992 0.0
H2166 H 0.03088 0.30347 0.76182 0.0
H2167 H 0.03999 0.33633 0.77597 0.0
H2168 H 0.03998 0.83124 0.27581 0.0
H2169 H 0.03054 0.79912 0.2617 0.0
H2170 H 0.99262 0.79122 0.27382 0.0
H2171 H 0.00209 0.82323 0.28794 0.0
H2172 H 0.01681 0.69119 0.25866 0.0
H2173 H 0.98663 0.89043 0.25123 0.0
H2174 H 0.99964 0.89159 0.25924 0.0
H2175 H 0.98423 0.85902 0.26202 0.0
C2176 C 0.02963 0.82272 0.27542 0.0
C2177 C 0.02172 0.82918 0.28291 0.0
C2178 C 0.02426 0.80454 0.26739 0.0
C2179 C 0.01088 0.79325 0.26671 0.0
C2180 C 0.00294 0.80059 0.27417 0.0
H2181 H 0.96024 0.66995 0.22482 0.0
H2182 H 0.9698 0.70267 0.23885 0.0
C2183 C 0.00832 0.81867 0.28222 0.0
C2184 C 0.00536 0.77151 0.25828 0.0
H2185 H 0.98375 0.80623 0.24198 0.0
C2186 C 0.00962 0.71639 0.25498 0.0
C2187 C 0.99597 0.8045 0.25353 0.0
C2188 C 0.9914 0.86492 0.25662 0.0
C2189 C 0.00456 0.69278 0.24712 0.0
C2190 C 0.99518 0.7258 0.24236 0.0
C2191 C 0.99094 0.781 0.24565 0.0
C2192 C 0.98956 0.70387 0.23395 0.0
C2193 C 0.00907 0.63209 0.2441 0.0
C2194 C 0.99751 0.69374 0.22656 0.0
C2195 C 0.99206 0.67499 0.21857 0.0
C2196 C 0.97859 0.66682 0.21785 0.0
C2197 C 0.97066 0.67645 0.22525 0.0
C2198 C 0.9761 0.69505 0.23323 0.0
H2199 H 0.01354 0.60629 0.24957 0.0
H2200 H 0.00087 0.60586 0.24133 0.0
H2201 H 0.01649 0.63758 0.23885 0.0
H2202 H 0.00789 0.70136 0.22692 0.0
H2203 H 0.99831 0.66805 0.2129 0.0
H2204 H 0.02289 0.32977 0.97378 0.0
H2205 H 0.014 0.3631 0.98798 0.0
H2206 H 0.00749 0.53827 0.97709 0.0
H2207 H 0.01603 0.50459 0.96283 0.0
H2208 H 0.02359 0.45614 0.9985 0.0
H2209 H 0.97247 0.49837 0.98854 0.0
H2210 H 0.98353 0.45472 0.98191 0.0
H2211 H 0.98436 0.53476 0.98174 0.0
C2212 C 0.0193 0.37497 0.97438 0.0
C2213 C 0.01999 0.41452 0.96722 0.0
C2214 C 0.01433 0.39408 0.9825 0.0
C2215 C 0.00994 0.45291 0.98355 0.0
C2216 C 0.0106 0.49239 0.97637 0.0
H2217 H 0.97929 0.65906 0.02736 0.0
H2218 H 0.98834 0.62571 0.01322 0.0
C2219 C 0.01555 0.47329 0.96827 0.0
C2220 C 0.00518 0.47373 0.99225 0.0
H2221 H 0.97877 0.53261 0.00274 0.0
C2222 C 0.01377 0.47257 0.99945 0.0
C2223 C 0.99239 0.49534 0.99344 0.0
C2224 C 0.9826 0.49548 0.98602 0.0
C2225 C 0.00997 0.49341 0.0078 0.0
C2226 C 0.99717 0.51506 0.00899 0.0
C2227 C 0.98859 0.51619 0.00179 0.0
C2228 C 0.99242 0.53599 0.01768 0.0
C2229 C 0.01975 0.49327 0.01522 0.0
C2230 C 0.99173 0.49661 0.02487 0.0
C2231 C 0.98667 0.51571 0.03295 0.0
C2232 C 0.98214 0.57437 0.03395 0.0
C2233 C 0.98291 0.61389 0.02679 0.0
C2234 C 0.98798 0.59479 0.0187 0.0
H2235 H 0.02988 0.49033 0.0127 0.0
H2236 H 0.01882 0.53404 0.01933 0.0
H2237 H 0.01798 0.45401 0.01951 0.0
H2238 H 0.99487 0.45076 0.02418 0.0
H2239 H 0.98615 0.48447 0.03839 0.0
H2240 H 0.44076 0.82403 0.05062 0.0
H2241 H 0.45047 0.72424 0.05132 0.0
H2242 H 0.46679 0.76561 0.07683 0.0
H2243 H 0.45683 0.8646 0.07627 0.0
H2244 H 0.47797 0.69868 0.05332 0.0
H2245 H 0.44773 0.60521 0.08047 0.0
H2246 H 0.44299 0.67065 0.07432 0.0
H2247 H 0.45531 0.67584 0.08268 0.0
C2248 C 0.44627 0.81141 0.05642 0.0
C2249 C 0.44821 0.8521 0.06334 0.0
C2250 C 0.45188 0.75477 0.05678 0.0
C2251 C 0.45935 0.73785 0.06412 0.0
C2252 C 0.46102 0.77788 0.07113 0.0
H2253 H 0.49088 0.38832 0.07655 0.0
H2254 H 0.489 0.49697 0.07644 0.0
C2255 C 0.45543 0.83449 0.07076 0.0
C2256 C 0.46552 0.67849 0.06436 0.0
H2257 H 0.46457 0.54471 0.07499 0.0
C2258 C 0.4751 0.66497 0.05808 0.0
C2259 C 0.46182 0.6351 0.07063 0.0
C2260 C 0.45133 0.64698 0.07738 0.0
C2261 C 0.48098 0.60855 0.05782 0.0
C2262 C 0.47699 0.56456 0.06392 0.0
C2263 C 0.46768 0.57876 0.07036 0.0
C2264 C 0.48117 0.5017 0.06321 0.0
C2265 C 0.49134 0.59648 0.051 0.0
C2266 C 0.4779 0.46875 0.05566 0.0
C2267 C 0.47897 0.40679 0.05569 0.0
C2268 C 0.4832 0.37671 0.06331 0.0
C2269 C 0.48754 0.41014 0.07059 0.0
C2270 C 0.48645 0.47223 0.07055 0.0
H2271 H 0.49628 0.63828 0.04895 0.0
H2272 H 0.49874 0.56475 0.05353 0.0
H2273 H 0.48676 0.57669 0.04505 0.0
H2274 H 0.47361 0.49044 0.04998 0.0
H2275 H 0.47562 0.38231 0.04996 0.0
H2276 H 0.78093 0.86753 0.04982 0.0
H2277 H 0.78077 0.75944 0.0496 0.0
H2278 H 0.7552 0.7573 0.07218 0.0
H2279 H 0.75566 0.86639 0.07264 0.0
H2280 H 0.77631 0.6954 0.07535 0.0
H2281 H 0.75783 0.62405 0.04294 0.0
H2282 H 0.77007 0.67977 0.04137 0.0
H2283 H 0.75524 0.69859 0.0471 0.0
C2284 C 0.77498 0.84427 0.05461 0.0
C2285 C 0.76849 0.87546 0.06134 0.0
C2286 C 0.77478 0.78225 0.05441 0.0
C2287 C 0.7679 0.75016 0.06083 0.0
C2288 C 0.76054 0.78128 0.06715 0.0
H2289 H 0.78074 0.36516 0.05869 0.0
H2290 H 0.76994 0.46193 0.05894 0.0
C2291 C 0.7608 0.84358 0.06739 0.0
C2292 C 0.7703 0.68545 0.06178 0.0
H2293 H 0.77413 0.55853 0.04968 0.0
C2294 C 0.77553 0.66506 0.06979 0.0
C2295 C 0.76915 0.64556 0.05459 0.0
C2296 C 0.76262 0.66313 0.04606 0.0
C2297 C 0.78043 0.60708 0.07063 0.0
C2298 C 0.78046 0.5692 0.06317 0.0
C2299 C 0.77441 0.58814 0.05534 0.0
C2300 C 0.78697 0.51041 0.06327 0.0
C2301 C 0.78567 0.58741 0.07947 0.0
C2302 C 0.80021 0.50565 0.06545 0.0
C2303 C 0.80633 0.45002 0.06553 0.0
C2304 C 0.7993 0.3985 0.06339 0.0
C2305 C 0.78622 0.40377 0.06081 0.0
C2306 C 0.78008 0.45913 0.06083 0.0
H2307 H 0.78106 0.61258 0.08495 0.0
H2308 H 0.78405 0.53904 0.08057 0.0
H2309 H 0.79627 0.59629 0.07972 0.0
H2310 H 0.80584 0.545 0.06704 0.0
H2311 H 0.81651 0.44718 0.06732 0.0
H2312 H 0.48246 0.88116 0.19956 0.0
H2313 H 0.4816 0.77432 0.20261 0.0
H2314 H 0.47902 0.73828 0.17469 0.0
H2315 H 0.48017 0.84458 0.17157 0.0
H2316 H 0.45976 0.71601 0.19841 0.0
H2317 H 0.5014 0.60144 0.18281 0.0
H2318 H 0.50137 0.68069 0.18495 0.0
H2319 H 0.49359 0.65124 0.17523 0.0
C2320 C 0.48216 0.85035 0.19405 0.0
C2321 C 0.48115 0.87123 0.18533 0.0
C2322 C 0.48168 0.78935 0.19581 0.0
C2323 C 0.48023 0.74843 0.18888 0.0
C2324 C 0.48037 0.76895 0.18013 0.0
H2325 H 0.43278 0.43896 0.18469 0.0
H2326 H 0.44211 0.53958 0.18538 0.0
C2327 C 0.48094 0.8299 0.17836 0.0
C2328 C 0.47625 0.68647 0.19077 0.0
H2329 H 0.48196 0.54199 0.18497 0.0
C2330 C 0.46477 0.67783 0.19562 0.0
C2331 C 0.48281 0.63676 0.18716 0.0
C2332 C 0.49555 0.64296 0.18233 0.0
C2333 C 0.45932 0.62106 0.1966 0.0
C2334 C 0.46539 0.57201 0.19247 0.0
C2335 C 0.47722 0.58003 0.18801 0.0
C2336 C 0.45941 0.51225 0.19246 0.0
C2337 C 0.44702 0.61425 0.20194 0.0
C2338 C 0.46608 0.46402 0.19619 0.0
C2339 C 0.4608 0.40691 0.19576 0.0
C2340 C 0.44887 0.39706 0.19148 0.0
C2341 C 0.44201 0.4456 0.18798 0.0
C2342 C 0.44731 0.50286 0.1884 0.0
H2343 H 0.44574 0.65173 0.20665 0.0
H2344 H 0.43854 0.61406 0.19741 0.0
H2345 H 0.44703 0.5717 0.20568 0.0
H2346 H 0.47538 0.47058 0.1994 0.0
H2347 H 0.46607 0.37054 0.19879 0.0
H2348 H 0.76662 0.38643 0.17297 0.0
H2349 H 0.7705 0.49325 0.17468 0.0
H2350 H 0.77745 0.46833 0.2025 0.0
H2351 H 0.77364 0.36139 0.20089 0.0
H2352 H 0.76142 0.59035 0.18697 0.0
H2353 H 0.81308 0.52035 0.19082 0.0
H2354 H 0.80075 0.47109 0.1865 0.0
H2355 H 0.8015 0.48613 0.19813 0.0
C2356 C 0.76857 0.4038 0.17951 0.0
C2357 C 0.77015 0.36526 0.18675 0.0
C2358 C 0.77078 0.46487 0.18047 0.0
C2359 C 0.77454 0.48803 0.18867 0.0
C2360 C 0.77474 0.4508 0.19609 0.0
H2361 H 0.81331 0.82051 0.20186 0.0
H2362 H 0.80409 0.71975 0.2021 0.0
C2363 C 0.77254 0.38977 0.19515 0.0
C2364 C 0.77997 0.54872 0.18919 0.0
H2365 H 0.80871 0.62313 0.19135 0.0
C2366 C 0.77173 0.59776 0.18797 0.0
C2367 C 0.79345 0.55776 0.19044 0.0
C2368 C 0.80278 0.50619 0.19149 0.0
C2369 C 0.77665 0.65611 0.18805 0.0
C2370 C 0.79017 0.66509 0.18918 0.0
C2371 C 0.79836 0.61596 0.19049 0.0
C2372 C 0.79608 0.72509 0.1889 0.0
C2373 C 0.76732 0.70758 0.18705 0.0
C2374 C 0.79504 0.76033 0.18129 0.0
C2375 C 0.80031 0.81761 0.18114 0.0
C2376 C 0.80674 0.84033 0.18858 0.0
C2377 C 0.80836 0.80392 0.19604 0.0
C2378 C 0.80304 0.74668 0.1962 0.0
H2379 H 0.75721 0.69438 0.18872 0.0
H2380 H 0.77019 0.74563 0.19131 0.0
H2381 H 0.7674 0.72293 0.18008 0.0
H2382 H 0.79008 0.74365 0.17548 0.0
H2383 H 0.79924 0.84435 0.17523 0.0
H2384 H 0.56731 0.18875 0.93591 0.0
H2385 H 0.55733 0.28785 0.93673 0.0
H2386 H 0.52097 0.20805 0.94464 0.0
H2387 H 0.53115 0.11036 0.9446 0.0
H2388 H 0.53796 0.33106 0.92733 0.0
H2389 H 0.5238 0.33581 0.96263 0.0
H2390 H 0.53426 0.27894 0.95813 0.0
H2391 H 0.5169 0.27391 0.9568 0.0
C2392 C 0.55723 0.19262 0.93791 0.0
C2393 C 0.54989 0.14166 0.93987 0.0
C2394 C 0.55152 0.24905 0.93834 0.0
C2395 C 0.5384 0.25533 0.94077 0.0
C2396 C 0.53114 0.20448 0.94287 0.0
H2397 H 0.50478 0.60571 0.92869 0.0
H2398 H 0.50543 0.4967 0.92974 0.0
C2399 C 0.5369 0.14834 0.94261 0.0
C2400 C 0.53225 0.31493 0.94079 0.0
H2401 H 0.51593 0.41468 0.9537 0.0
C2402 C 0.53313 0.3494 0.93309 0.0
C2403 C 0.52592 0.33852 0.94832 0.0
C2404 C 0.52527 0.30511 0.95696 0.0
C2405 C 0.52833 0.40777 0.93279 0.0
C2406 C 0.52195 0.43139 0.94031 0.0
C2407 C 0.52063 0.39605 0.9479 0.0
C2408 C 0.51858 0.49537 0.9409 0.0
C2409 C 0.53085 0.44453 0.92461 0.0
C2410 C 0.52475 0.5303 0.94732 0.0
C2411 C 0.52415 0.59213 0.94687 0.0
C2412 C 0.5175 0.6202 0.93991 0.0
C2413 C 0.51017 0.58528 0.93403 0.0
C2414 C 0.51062 0.52306 0.93458 0.0
H2415 H 0.53818 0.42344 0.92021 0.0
H2416 H 0.52169 0.44928 0.92081 0.0
H2417 H 0.53437 0.48976 0.92639 0.0
H2418 H 0.53082 0.50991 0.95233 0.0
H2419 H 0.52969 0.61776 0.95162 0.0
H2420 H 0.24729 0.13098 0.92864 0.0
H2421 H 0.24794 0.23991 0.92964 0.0
H2422 H 0.22181 0.23368 0.95191 0.0
H2423 H 0.22154 0.12585 0.9512 0.0
H2424 H 0.22757 0.30416 0.92647 0.0
H2425 H 0.24437 0.36638 0.95964 0.0
H2426 H 0.2469 0.29251 0.95522 0.0
H2427 H 0.2319 0.31131 0.96075 0.0
C2428 C 0.24206 0.15284 0.93394 0.0
C2429 C 0.23421 0.11992 0.93976 0.0
C2430 C 0.24243 0.21505 0.93449 0.0
C2431 C 0.23499 0.24505 0.94088 0.0
C2432 C 0.22789 0.21178 0.94706 0.0
H2433 H 0.18696 0.54971 0.93434 0.0
H2434 H 0.19757 0.45192 0.93455 0.0
C2435 C 0.22762 0.14988 0.94657 0.0
C2436 C 0.23274 0.3101 0.94025 0.0
H2437 H 0.2281 0.43332 0.95303 0.0
C2438 C 0.22801 0.33283 0.93223 0.0
C2439 C 0.23348 0.34796 0.9477 0.0
C2440 C 0.23959 0.32824 0.95627 0.0
C2441 C 0.22316 0.39102 0.93163 0.0
C2442 C 0.2226 0.4266 0.93933 0.0
C2443 C 0.22819 0.40545 0.94718 0.0
C2444 C 0.21601 0.48527 0.93942 0.0
C2445 C 0.21857 0.41333 0.92276 0.0
C2446 C 0.22256 0.53569 0.94257 0.0
C2447 C 0.2164 0.59099 0.94268 0.0
C2448 C 0.20365 0.5972 0.93946 0.0
C2449 C 0.19689 0.54633 0.93666 0.0
C2450 C 0.203 0.4907 0.93668 0.0
H2451 H 0.22371 0.39027 0.91728 0.0
H2452 H 0.20804 0.40385 0.92204 0.0
H2453 H 0.22012 0.46209 0.92206 0.0
H2454 H 0.23248 0.53234 0.94492 0.0
H2455 H 0.22163 0.62864 0.94536 0.0
H2456 H 0.54831 0.60334 0.82504 0.0
H2457 H 0.53929 0.50234 0.82479 0.0
H2458 H 0.55257 0.48043 0.79796 0.0
H2459 H 0.56179 0.58112 0.79825 0.0
H2460 H 0.52035 0.45666 0.81396 0.0
H2461 H 0.56663 0.3324 0.80982 0.0
H2462 H 0.56617 0.4102 0.81281 0.0
H2463 H 0.56398 0.38801 0.8015 0.0
C2464 C 0.54933 0.57675 0.81912 0.0
C2465 C 0.55567 0.59974 0.81165 0.0
C2466 C 0.54419 0.51924 0.81898 0.0
C2467 C 0.54534 0.48387 0.81138 0.0
C2468 C 0.55179 0.50662 0.80394 0.0
H2469 H 0.52354 0.12085 0.79993 0.0
H2470 H 0.52646 0.22812 0.79814 0.0
C2471 C 0.55705 0.56397 0.80411 0.0
C2472 C 0.5396 0.42349 0.81122 0.0
H2473 H 0.5472 0.27672 0.80854 0.0
C2474 C 0.5262 0.41724 0.81278 0.0
C2475 C 0.54729 0.37228 0.80969 0.0
C2476 C 0.56183 0.37581 0.80844 0.0
C2477 C 0.52027 0.3609 0.81281 0.0
C2478 C 0.52797 0.30993 0.81126 0.0
C2479 C 0.54132 0.31622 0.80962 0.0
C2480 C 0.52273 0.24887 0.81185 0.0
C2481 C 0.50586 0.35615 0.81447 0.0
C2482 C 0.51906 0.22564 0.82008 0.0
C2483 C 0.51742 0.16425 0.82114 0.0
C2484 C 0.51957 0.1254 0.814 0.0
C2485 C 0.52197 0.14954 0.80559 0.0
C2486 C 0.52363 0.21082 0.80454 0.0
H2487 H 0.50086 0.39957 0.81351 0.0
H2488 H 0.50139 0.32251 0.81003 0.0
H2489 H 0.50421 0.34152 0.82138 0.0
H2490 H 0.51847 0.25433 0.82582 0.0
H2491 H 0.5155 0.14708 0.8277 0.0
H2492 H 0.22007 0.1215 0.80875 0.0
H2493 H 0.23085 0.21825 0.80926 0.0
H2494 H 0.19461 0.30123 0.8167 0.0
H2495 H 0.18395 0.20339 0.81674 0.0
H2496 H 0.22718 0.31494 0.80002 0.0
H2497 H 0.21851 0.3684 0.83513 0.0
H2498 H 0.21569 0.29501 0.83065 0.0
H2499 H 0.20355 0.3525 0.82955 0.0
C2500 C 0.2145 0.1601 0.81078 0.0
C2501 C 0.20133 0.15479 0.81312 0.0
C2502 C 0.22063 0.21544 0.81095 0.0
C2503 C 0.21364 0.26668 0.81329 0.0
C2504 C 0.20031 0.26191 0.8152 0.0
H2505 H 0.2206 0.62407 0.80011 0.0
H2506 H 0.22067 0.51597 0.79985 0.0
C2507 C 0.1942 0.20627 0.81514 0.0
C2508 C 0.22017 0.32545 0.81335 0.0
H2509 H 0.22376 0.45137 0.82567 0.0
C2510 C 0.22662 0.34445 0.80568 0.0
C2511 C 0.21983 0.36319 0.82082 0.0
C2512 C 0.21415 0.34343 0.82953 0.0
C2513 C 0.23195 0.4018 0.80508 0.0
C2514 C 0.23045 0.44158 0.81225 0.0
C2515 C 0.2248 0.42112 0.82013 0.0
C2516 C 0.23295 0.50627 0.81139 0.0
C2517 C 0.23893 0.4194 0.79672 0.0
C2518 C 0.24 0.53713 0.81788 0.0
C2519 C 0.23979 0.59944 0.81814 0.0
C2520 C 0.23244 0.63156 0.81192 0.0
C2521 C 0.22628 0.60061 0.80503 0.0
C2522 C 0.22643 0.53859 0.80481 0.0
H2523 H 0.24386 0.38029 0.79371 0.0
H2524 H 0.23175 0.43625 0.79186 0.0
H2525 H 0.24628 0.45471 0.79795 0.0
H2526 H 0.24506 0.51298 0.82303 0.0
H2527 H 0.24467 0.62207 0.82351 0.0
H2528 H 0.43502 0.2913 0.5673 0.0
H2529 H 0.44588 0.19399 0.56688 0.0
H2530 H 0.48098 0.27784 0.55744 0.0
H2531 H 0.46995 0.3741 0.55734 0.0
H2532 H 0.47639 0.18006 0.54855 0.0
H2533 H 0.47206 0.12931 0.5841 0.0
H2534 H 0.45643 0.14474 0.57939 0.0
H2535 H 0.46864 0.20234 0.57967 0.0
C2536 C 0.44506 0.28875 0.56518 0.0
C2537 C 0.45182 0.34036 0.5627 0.0
C2538 C 0.4513 0.23343 0.56503 0.0
C2539 C 0.46439 0.22907 0.56244 0.0
C2540 C 0.47098 0.28038 0.55965 0.0
H2541 H 0.4952 0.87157 0.57125 0.0
H2542 H 0.49627 0.98058 0.57068 0.0
C2543 C 0.46471 0.33545 0.55971 0.0
C2544 C 0.471 0.17053 0.56224 0.0
H2545 H 0.47585 0.04519 0.57448 0.0
C2546 C 0.47649 0.15091 0.55427 0.0
C2547 C 0.47155 0.1333 0.56976 0.0
C2548 C 0.46699 0.15383 0.57873 0.0
C2549 C 0.4816 0.09327 0.55344 0.0
C2550 C 0.48085 0.05388 0.56071 0.0
C2551 C 0.47629 0.0751 0.56886 0.0
C2552 C 0.48285 0.98889 0.55974 0.0
C2553 C 0.48748 0.07486 0.54473 0.0
C2554 C 0.47533 0.95745 0.55358 0.0
C2555 C 0.47478 0.89551 0.55385 0.0
C2556 C 0.48155 0.86376 0.56039 0.0
C2557 C 0.48983 0.89485 0.56615 0.0
C2558 C 0.49044 0.9571 0.56585 0.0
H2559 H 0.49224 0.11341 0.54145 0.0
H2560 H 0.49476 0.03874 0.54557 0.0
H2561 H 0.47966 0.05884 0.54028 0.0
H2562 H 0.46914 0.98082 0.54895 0.0
H2563 H 0.46838 0.87283 0.54927 0.0
H2564 H 0.7934 0.88686 0.57705 0.0
H2565 H 0.78275 0.98447 0.57748 0.0
H2566 H 0.79847 0.02566 0.55179 0.0
H2567 H 0.80891 0.92745 0.55124 0.0
H2568 H 0.79444 0.0974 0.57612 0.0
H2569 H 0.75907 0.0587 0.54908 0.0
H2570 H 0.76758 -0.00126 0.55457 0.0
H2571 H 0.77561 0.04184 0.54618 0.0
C2572 C 0.79446 0.91656 0.57146 0.0
C2573 C 0.80174 0.89942 0.56404 0.0
C2574 C 0.78842 0.97222 0.57173 0.0
C2575 C 0.78955 0.01138 0.56456 0.0
C2576 C 0.79722 0.99525 0.55728 0.0
H2577 H 0.77733 0.36754 0.5508 0.0
H2578 H 0.77872 0.25914 0.55116 0.0
C2579 C 0.8033 0.93964 0.55702 0.0
C2580 C 0.78318 0.07028 0.56485 0.0
H2581 H 0.76199 0.1599 0.5537 0.0
C2582 C 0.78718 0.11092 0.57132 0.0
C2583 C 0.77369 0.08728 0.55859 0.0
C2584 C 0.76862 0.04421 0.55176 0.0
C2585 C 0.78249 0.16954 0.5714 0.0
C2586 C 0.77333 0.18731 0.56493 0.0
C2587 C 0.76895 0.14591 0.55867 0.0
C2588 C 0.76956 0.25045 0.56395 0.0
C2589 C 0.78794 0.21283 0.57808 0.0
C2590 C 0.76322 0.28099 0.57079 0.0
C2591 C 0.76246 0.3432 0.57064 0.0
C2592 C 0.76804 0.37536 0.56363 0.0
C2593 C 0.77313 0.34406 0.55637 0.0
C2594 C 0.7739 0.28206 0.55654 0.0
H2595 H 0.79655 0.19449 0.58157 0.0
H2596 H 0.79079 0.25525 0.57483 0.0
H2597 H 0.78039 0.22311 0.58308 0.0
H2598 H 0.75959 0.25702 0.57649 0.0
H2599 H 0.75836 0.36603 0.57629 0.0
H2600 H 0.45671 0.88759 0.67412 0.0
H2601 H 0.46692 0.98612 0.67352 0.0
H2602 H 0.45229 0.02538 0.69957 0.0
H2603 H 0.44226 0.92625 0.70027 0.0
H2604 H 0.45479 0.09916 0.67541 0.0
H2605 H 0.49198 0.05874 0.70128 0.0
H2606 H 0.48332 -0.00094 0.69585 0.0
H2607 H 0.47561 0.04103 0.70449 0.0
C2608 C 0.45577 0.91713 0.67973 0.0
C2609 C 0.44894 0.89918 0.68731 0.0
C2610 C 0.46155 0.97329 0.67937 0.0
C2611 C 0.46062 0.01216 0.68659 0.0
C2612 C 0.45337 0.99525 0.69402 0.0
H2613 H 0.47583 0.36944 0.6997 0.0
H2614 H 0.47363 0.2613 0.69963 0.0
C2615 C 0.44752 0.93912 0.69437 0.0
C2616 C 0.46688 0.07124 0.68622 0.0
H2617 H 0.48922 0.15942 0.69656 0.0
C2618 C 0.46244 0.11225 0.67994 0.0
C2619 C 0.47687 0.08767 0.69215 0.0
C2620 C 0.48234 0.04421 0.69878 0.0
C2621 C 0.4673 0.17055 0.67969 0.0
C2622 C 0.47708 0.18758 0.68576 0.0
C2623 C 0.4818 0.14595 0.69188 0.0
C2624 C 0.48136 0.25022 0.68645 0.0
C2625 C 0.46143 0.21423 0.67323 0.0
C2626 C 0.48722 0.27921 0.67927 0.0
C2627 C 0.48843 0.34126 0.67926 0.0
C2628 C 0.48381 0.37484 0.68645 0.0
C2629 C 0.47928 0.3449 0.694 0.0
C2630 C 0.47805 0.28304 0.69399 0.0
H2631 H 0.45235 0.19689 0.6702 0.0
H2632 H 0.4592 0.25724 0.67653 0.0
H2633 H 0.46848 0.22309 0.66785 0.0
H2634 H 0.49009 0.25425 0.67347 0.0
H2635 H 0.49209 0.36298 0.67338 0.0
H2636 H 0.75526 0.87696 0.67783 0.0
H2637 H 0.75604 0.98609 0.67838 0.0
H2638 H 0.78035 0.97716 0.70155 0.0
H2639 H 0.77917 0.86908 0.70129 0.0
H2640 H 0.76503 0.07345 0.70203 0.0
H2641 H 0.78975 0.05586 0.66942 0.0
H2642 H 0.77326 0.02979 0.66968 0.0
H2643 H 0.78557 0.99123 0.67588 0.0
C2644 C 0.76043 0.89836 0.6832 0.0
C2645 C 0.76747 0.86451 0.68937 0.0
C2646 C 0.76096 0.96065 0.68345 0.0
C2647 C 0.76865 0.98947 0.68981 0.0
C2648 C 0.7745 0.9558 0.69652 0.0
H2649 H 0.818 0.29437 0.68568 0.0
H2650 H 0.80779 0.19558 0.68629 0.0
C2651 C 0.77386 0.89388 0.69633 0.0
C2652 C 0.7721 0.05321 0.68899 0.0
H2653 H 0.78915 0.15 0.67603 0.0
C2654 C 0.77017 0.09056 0.69631 0.0
C2655 C 0.77905 0.07481 0.68158 0.0
C2656 C 0.78216 0.03586 0.67372 0.0
C2657 C 0.77537 0.14831 0.69655 0.0
C2658 C 0.7823 0.16983 0.68913 0.0
C2659 C 0.78384 0.13323 0.6817 0.0
C2660 C 0.78847 0.22936 0.68901 0.0
C2661 C 0.77394 0.18434 0.70491 0.0
C2662 C 0.78101 0.28077 0.69038 0.0
C2663 C 0.78686 0.33674 0.6902 0.0
C2664 C 0.80018 0.3425 0.6883 0.0
C2665 C 0.80768 0.29106 0.68701 0.0
C2666 C 0.80185 0.23485 0.68733 0.0
H2667 H 0.77181 0.15553 0.7107 0.0
H2668 H 0.78288 0.21034 0.70633 0.0
H2669 H 0.76573 0.21599 0.70415 0.0
H2670 H 0.77065 0.27772 0.69157 0.0
H2671 H 0.78093 0.37543 0.69163 0.0
H2672 H 0.52901 0.61001 0.44325 0.0
H2673 H 0.51847 0.7072 0.44283 0.0
H2674 H 0.55488 0.78861 0.43544 0.0
H2675 H 0.56529 0.6902 0.43525 0.0
H2676 H 0.52206 0.80374 0.45197 0.0
H2677 H 0.53135 0.85607 0.41688 0.0
H2678 H 0.53412 0.78285 0.42143 0.0
H2679 H 0.5462 0.84045 0.42261 0.0
C2680 C 0.53468 0.64832 0.44125 0.0
C2681 C 0.54781 0.64235 0.43885 0.0
C2682 C 0.52868 0.70397 0.44114 0.0
C2683 C 0.53577 0.75491 0.43882 0.0
C2684 C 0.5491 0.74954 0.43691 0.0
H2685 H 0.5274 0.11362 0.45154 0.0
H2686 H 0.5277 0.00561 0.452 0.0
C2687 C 0.55507 0.69356 0.43689 0.0
C2688 C 0.52931 0.81384 0.43868 0.0
H2689 H 0.52569 0.93895 0.42619 0.0
C2690 C 0.52268 0.833 0.44628 0.0
C2691 C 0.52973 0.85125 0.43118 0.0
C2692 C 0.5356 0.8313 0.42254 0.0
C2693 C 0.51718 0.89008 0.44675 0.0
C2694 C 0.5187 0.9295 0.43955 0.0
C2695 C 0.52461 0.90896 0.43176 0.0
C2696 C 0.5159 0.99402 0.44027 0.0
C2697 C 0.50994 0.90766 0.45502 0.0
C2698 C 0.50898 0.02381 0.43361 0.0
C2699 C 0.509 0.0861 0.43323 0.0
C2700 C 0.51601 0.11925 0.4395 0.0
C2701 C 0.52199 0.08935 0.44657 0.0
C2702 C 0.52204 0.02736 0.4469 0.0
H2703 H 0.50505 0.86842 0.45802 0.0
H2704 H 0.51696 0.92514 0.45994 0.0
H2705 H 0.50253 0.94248 0.45368 0.0
H2706 H 0.50419 -0.00114 0.42842 0.0
H2707 H 0.50426 0.10789 0.42772 0.0
H2708 H 0.20406 0.09296 0.42533 0.0
H2709 H 0.21319 0.99216 0.42589 0.0
H2710 H 0.1983 0.97065 0.45234 0.0
H2711 H 0.189 0.07109 0.45174 0.0
H2712 H 0.23149 0.94649 0.43734 0.0
H2713 H 0.18494 0.82271 0.44004 0.0
H2714 H 0.18562 0.90043 0.43703 0.0
H2715 H 0.18699 0.87852 0.44841 0.0
C2716 C 0.20272 0.06653 0.43124 0.0
C2717 C 0.1959 0.08953 0.4385 0.0
C2718 C 0.20793 0.00914 0.43156 0.0
C2719 C 0.20635 0.97393 0.43913 0.0
C2720 C 0.19943 -0.00327 0.44637 0.0
H2721 H 0.22679 0.61169 0.45174 0.0
H2722 H 0.22397 0.71922 0.45325 0.0
C2723 C 0.19412 0.05394 0.44602 0.0
C2724 C 0.21205 0.91353 0.43948 0.0
H2725 H 0.20423 0.76699 0.44206 0.0
C2726 C 0.22555 0.90715 0.43837 0.0
C2727 C 0.20425 0.86245 0.4408 0.0
C2728 C 0.18964 0.86613 0.44155 0.0
C2729 C 0.23146 0.85078 0.43861 0.0
C2730 C 0.22365 0.79994 0.43997 0.0
C2731 C 0.2102 0.80639 0.44113 0.0
C2732 C 0.22891 0.7388 0.43969 0.0
C2733 C 0.24598 0.84587 0.43745 0.0
C2734 C 0.23325 0.71482 0.43166 0.0
C2735 C 0.23487 0.65328 0.43075 0.0
C2736 C 0.23199 0.61509 0.43785 0.0
C2737 C 0.22892 0.63993 0.44612 0.0
C2738 C 0.22732 0.70134 0.44701 0.0
H2739 H 0.25091 0.88933 0.43853 0.0
H2740 H 0.2501 0.81245 0.44208 0.0
H2741 H 0.24814 0.83087 0.43062 0.0
H2742 H 0.23438 0.74303 0.42591 0.0
H2743 H 0.23729 0.63552 0.42431 0.0
H2744 H 0.53912 0.10851 0.30158 0.0
H2745 H 0.53009 0.00782 0.30182 0.0
H2746 H 0.55984 0.95368 0.32024 0.0
H2747 H 0.56898 0.05488 0.31995 0.0
H2748 H 0.55615 0.87359 0.30689 0.0
H2749 H 0.50879 0.93591 0.32181 0.0
H2750 H 0.51258 0.97637 0.31191 0.0
H2751 H 0.52253 0.98592 0.32157 0.0
C2752 C 0.54362 0.07529 0.30576 0.0
C2753 C 0.55452 0.08942 0.31093 0.0
C2754 C 0.53846 0.0179 0.30589 0.0
C2755 C 0.54407 0.97394 0.31125 0.0
C2756 C 0.55528 0.98738 0.31615 0.0
H2757 H 0.51728 0.63238 0.32834 0.0
H2758 H 0.52065 0.7395 0.32664 0.0
C2759 C 0.56051 0.04483 0.31597 0.0
C2760 C 0.53841 0.9135 0.31156 0.0
H2761 H 0.51078 0.8363 0.31659 0.0
C2762 C 0.54624 0.86538 0.30901 0.0
C2763 C 0.52551 0.90314 0.31441 0.0
C2764 C 0.51689 0.95297 0.31767 0.0
C2765 C 0.54151 0.80691 0.30921 0.0
C2766 C 0.52848 0.79666 0.31182 0.0
C2767 C 0.52067 0.84468 0.31443 0.0
C2768 C 0.52327 0.73559 0.31248 0.0
C2769 C 0.55062 0.7565 0.30687 0.0
C2770 C 0.52274 0.69893 0.30499 0.0
C2771 C 0.52092 0.63766 0.30594 0.0
C2772 C 0.51949 0.61252 0.31439 0.0
C2773 C 0.51847 0.65037 0.32175 0.0
C2774 C 0.5204 0.71161 0.3208 0.0
H2775 H 0.56096 0.77087 0.30695 0.0
H2776 H 0.54947 0.71865 0.31153 0.0
H2777 H 0.54833 0.74024 0.30013 0.0
H2778 H 0.52463 0.71709 0.29849 0.0
H2779 H 0.52153 0.60963 0.30013 0.0
H2780 H 0.18778 0.67297 0.30019 0.0
H2781 H 0.19717 0.77329 0.29993 0.0
H2782 H 0.21283 0.7459 0.32604 0.0
H2783 H 0.20344 0.64563 0.32634 0.0
H2784 H 0.19318 0.86821 0.31128 0.0
H2785 H 0.24487 0.79672 0.31179 0.0
H2786 H 0.2317 0.74598 0.3094 0.0
H2787 H 0.23517 0.767 0.32061 0.0
C2788 C 0.19313 0.68864 0.3059 0.0
C2789 C 0.19512 0.65138 0.31322 0.0
C2790 C 0.19856 0.74563 0.30572 0.0
C2791 C 0.206 0.76616 0.31286 0.0
C2792 C 0.20748 0.73002 0.32034 0.0
H2793 H 0.23655 0.10837 0.32698 0.0
H2794 H 0.23297 0.00086 0.3259 0.0
C2795 C 0.20209 0.67297 0.32052 0.0
C2796 C 0.21188 0.82613 0.31256 0.0
H2797 H 0.24081 0.90069 0.31346 0.0
C2798 C 0.20359 0.87532 0.31169 0.0
C2799 C 0.22548 0.83499 0.31311 0.0
C2800 C 0.23485 0.78339 0.3137 0.0
C2801 C 0.20851 0.93345 0.31153 0.0
C2802 C 0.22209 0.94237 0.3121 0.0
C2803 C 0.23042 0.89332 0.31297 0.0
C2804 C 0.22757 0.00302 0.31211 0.0
C2805 C 0.19911 0.98506 0.31092 0.0
C2806 C 0.22652 0.03869 0.30455 0.0
C2807 C 0.2285 0.10003 0.30514 0.0
C2808 C 0.23158 0.12635 0.31331 0.0
C2809 C 0.23409 0.08947 0.32062 0.0
C2810 C 0.23204 0.02805 0.32002 0.0
H2811 H 0.18893 0.97107 0.3122 0.0
H2812 H 0.20176 0.0206 0.31569 0.0
H2813 H 0.19956 0.00445 0.30418 0.0
H2814 H 0.22322 0.01972 0.29837 0.0
H2815 H 0.22669 0.12724 0.29936 0.0
H2816 H 0.98498 0.39626 0.57783 0.0
H2817 H 0.98155 0.50329 0.57592 0.0
H2818 H 0.9749 0.47686 0.5481 0.0
H2819 H 0.97827 0.36975 0.54991 0.0
H2820 H 0.99102 0.59936 0.56329 0.0
H2821 H 0.93922 0.53064 0.55979 0.0
H2822 H 0.95147 0.48159 0.56426 0.0
H2823 H 0.95076 0.49509 0.55259 0.0
C2824 C 0.98322 0.41333 0.57125 0.0
C2825 C 0.98157 0.37443 0.56406 0.0
C2826 C 0.98126 0.4745 0.57018 0.0
C2827 C 0.97771 0.49734 0.56192 0.0
C2828 C 0.97748 0.45961 0.55455 0.0
H2829 H 0.93853 0.8296 0.54885 0.0
H2830 H 0.94795 0.72919 0.54843 0.0
C2831 C 0.97941 0.39849 0.55561 0.0
C2832 C 0.97238 0.55814 0.56128 0.0
H2833 H 0.9437 0.63317 0.55917 0.0
C2834 C 0.9807 0.60701 0.56234 0.0
C2835 C 0.9589 0.56746 0.56008 0.0
C2836 C 0.9495 0.51608 0.55917 0.0
C2837 C 0.97586 0.66549 0.56218 0.0
C2838 C 0.96233 0.67476 0.56115 0.0
C2839 C 0.95406 0.62578 0.55997 0.0
C2840 C 0.95647 0.73485 0.56147 0.0
C2841 C 0.98527 0.71674 0.56303 0.0
C2842 C 0.95776 0.77016 0.56906 0.0
C2843 C 0.95238 0.82721 0.56932 0.0
C2844 C 0.94557 0.8496 0.562 0.0
C2845 C 0.94376 0.81322 0.55457 0.0
C2846 C 0.9492 0.75621 0.5543 0.0
H2847 H 0.99531 0.70324 0.5612 0.0
H2848 H 0.98231 0.75484 0.55881 0.0
H2849 H 0.98545 0.73213 0.56999 0.0
H2850 H 0.96294 0.75362 0.57479 0.0
H2851 H 0.9536 0.85391 0.57521 0.0
H2852 H 0.28531 0.36601 0.5515 0.0
H2853 H 0.27636 0.46675 0.5509 0.0
H2854 H 0.30903 0.53182 0.56595 0.0
H2855 H 0.31801 0.43047 0.5666 0.0
H2856 H 0.26911 0.53558 0.56534 0.0
H2857 H 0.30678 0.64841 0.5452 0.0
H2858 H 0.30542 0.56826 0.54583 0.0
H2859 H 0.31332 0.60915 0.55452 0.0
C2860 C 0.29054 0.4017 0.55473 0.0
C2861 C 0.30218 0.39053 0.55929 0.0
C2862 C 0.28547 0.45922 0.55432 0.0
C2863 C 0.29205 0.50656 0.55836 0.0
C2864 C 0.3039 0.49586 0.56269 0.0
H2865 H 0.26975 0.83812 0.57935 0.0
H2866 H 0.2716 0.732 0.5762 0.0
C2867 C 0.309 0.43817 0.56308 0.0
C2868 C 0.28616 0.56655 0.55845 0.0
H2869 H 0.29212 0.71145 0.55314 0.0
C2870 C 0.27404 0.57403 0.56257 0.0
C2871 C 0.29251 0.61622 0.55469 0.0
C2872 C 0.30517 0.61018 0.54973 0.0
C2873 C 0.2684 0.63063 0.56342 0.0
C2874 C 0.27515 0.68078 0.56015 0.0
C2875 C 0.28697 0.67285 0.55566 0.0
C2876 C 0.2709 0.74241 0.562 0.0
C2877 C 0.25535 0.63627 0.56789 0.0
C2878 C 0.2695 0.78328 0.55506 0.0
C2879 C 0.26855 0.84415 0.55683 0.0
C2880 C 0.26911 0.865 0.56558 0.0
C2881 C 0.26934 0.82353 0.57253 0.0
C2882 C 0.27032 0.76269 0.57075 0.0
H2883 H 0.24965 0.5944 0.5673 0.0
H2884 H 0.25685 0.64523 0.57502 0.0
H2885 H 0.24959 0.67351 0.56505 0.0
H2886 H 0.26991 0.76838 0.54826 0.0
H2887 H 0.26826 0.87498 0.55133 0.0
H2888 H 0.95327 0.38616 0.67402 0.0
H2889 H 0.96316 0.48547 0.6735 0.0
H2890 H 0.94959 0.52022 0.69996 0.0
H2891 H 0.93989 0.42044 0.70056 0.0
H2892 H 0.95106 0.59836 0.67604 0.0
H2893 H 0.98931 0.55361 0.70105 0.0
H2894 H 0.98042 0.49484 0.69557 0.0
H2895 H 0.97307 0.53543 0.70449 0.0
C2896 C 0.95247 0.41494 0.67973 0.0
C2897 C 0.94605 0.39547 0.68739 0.0
C2898 C 0.95807 0.47155 0.67942 0.0
C2899 C 0.95737 0.50934 0.68677 0.0
C2900 C 0.95049 0.49098 0.6943 0.0
H2901 H 0.97444 0.8666 0.70024 0.0
H2902 H 0.97141 0.7588 0.70015 0.0
C2903 C 0.94483 0.43443 0.69459 0.0
C2904 C 0.96359 0.56859 0.68651 0.0
H2905 H 0.98649 0.65483 0.69666 0.0
C2906 C 0.95891 0.61064 0.68046 0.0
C2907 C 0.97384 0.58403 0.6923 0.0
C2908 C 0.97956 0.53952 0.69867 0.0
C2909 C 0.96384 0.66884 0.68029 0.0
C2910 C 0.97393 0.68475 0.68619 0.0
C2911 C 0.97883 0.64223 0.69211 0.0
C2912 C 0.97856 0.74691 0.68684 0.0
C2913 C 0.9578 0.71354 0.67406 0.0
C2914 C 0.98436 0.77519 0.67958 0.0
C2915 C 0.98606 0.83699 0.67958 0.0
C2916 C 0.982 0.87112 0.68687 0.0
C2917 C 0.9775 0.84168 0.69448 0.0
C2918 C 0.97577 0.78003 0.69445 0.0
H2919 H 0.94851 0.69713 0.67122 0.0
H2920 H 0.9559 0.7564 0.67751 0.0
H2921 H 0.9646 0.72241 0.66853 0.0
H2922 H 0.98682 0.74997 0.67371 0.0
H2923 H 0.98969 0.85823 0.67366 0.0
H2924 H 0.31058 0.82262 0.6997 0.0
H2925 H 0.30065 0.72338 0.69913 0.0
H2926 H 0.28373 0.76529 0.67382 0.0
H2927 H 0.29397 0.86369 0.67422 0.0
H2928 H 0.27338 0.6987 0.6977 0.0
H2929 H 0.3019 0.60424 0.66977 0.0
H2930 H 0.30699 0.67002 0.6757 0.0
H2931 H 0.29416 0.67468 0.66769 0.0
C2932 C 0.3049 0.81025 0.69396 0.0
C2933 C 0.30288 0.85098 0.68706 0.0
C2934 C 0.29916 0.7539 0.69368 0.0
C2935 C 0.29145 0.73725 0.68645 0.0
C2936 C 0.28969 0.77728 0.67944 0.0
H2937 H 0.25948 0.38595 0.6754 0.0
H2938 H 0.26101 0.49474 0.67523 0.0
C2939 C 0.29544 0.8336 0.67972 0.0
C2940 C 0.28512 0.67819 0.68632 0.0
H2941 H 0.28542 0.54403 0.67577 0.0
C2942 C 0.27594 0.66489 0.69288 0.0
C2943 C 0.28841 0.63462 0.67997 0.0
C2944 C 0.29847 0.64617 0.67291 0.0
C2945 C 0.27011 0.60844 0.69337 0.0
C2946 C 0.27374 0.5642 0.6872 0.0
C2947 C 0.28258 0.57826 0.68045 0.0
C2948 C 0.2698 0.50119 0.68817 0.0
C2949 C 0.26023 0.59652 0.70051 0.0
C2950 C 0.27375 0.46915 0.69565 0.0
C2951 C 0.27289 0.40713 0.69577 0.0
C2952 C 0.26818 0.37609 0.68837 0.0
C2953 C 0.26319 0.40855 0.68119 0.0
C2954 C 0.26408 0.47071 0.68107 0.0
H2955 H 0.25535 0.63831 0.70263 0.0
H2956 H 0.25273 0.56432 0.69826 0.0
H2957 H 0.26523 0.57739 0.70635 0.0
H2958 H 0.27839 0.49163 0.70114 0.0
H2959 H 0.27675 0.38339 0.70142 0.0
H2960 H 0.04738 0.13953 0.42552 0.0
H2961 H 0.03832 0.24046 0.42598 0.0
H2962 H 0.05292 0.26252 0.45249 0.0
H2963 H 0.06215 0.16191 0.45199 0.0
H2964 H 0.01992 0.28645 0.43728 0.0
H2965 H 0.06643 0.41025 0.44023 0.0
H2966 H 0.06578 0.33246 0.43725 0.0
H2967 H 0.06424 0.35467 0.44862 0.0
C2968 C 0.04867 0.16609 0.43142 0.0
C2969 C 0.05539 0.14317 0.43874 0.0
C2970 C 0.0435 0.22358 0.43168 0.0
C2971 C 0.04502 0.259 0.43924 0.0
C2972 C 0.05185 0.23629 0.44653 0.0
H2973 H 0.02411 0.62159 0.45152 0.0
H2974 H 0.02708 0.5142 0.4531 0.0
C2975 C 0.05711 0.17897 0.44624 0.0
C2976 C 0.03932 0.31943 0.43953 0.0
H2977 H 0.0471 0.46607 0.44208 0.0
C2978 C 0.02584 0.32581 0.43832 0.0
C2979 C 0.0471 0.37055 0.44087 0.0
C2980 C 0.0617 0.36688 0.44173 0.0
C2981 C 0.01993 0.3822 0.43848 0.0
C2982 C 0.02772 0.43307 0.43986 0.0
C2983 C 0.04115 0.42665 0.44113 0.0
C2984 C 0.02246 0.4942 0.4395 0.0
C2985 C 0.00543 0.38708 0.43722 0.0
C2986 C 0.01826 0.51789 0.43142 0.0
C2987 C 0.01657 0.57936 0.43047 0.0
C2988 C 0.01922 0.6178 0.43758 0.0
C2989 C 0.02216 0.5932 0.44589 0.0
C2990 C 0.02384 0.53185 0.44682 0.0
H2991 H 0.00048 0.34365 0.43828 0.0
H2992 H 0.00123 0.42058 0.44181 0.0
H2993 H 0.00338 0.40198 0.43037 0.0
H2994 H 0.01729 0.48951 0.42567 0.0
H2995 H 0.01425 0.5969 0.424 0.0
H2996 H 0.72258 0.63944 0.44512 0.0
H2997 H 0.73344 0.54313 0.44487 0.0
H2998 H 0.69857 0.46175 0.43461 0.0
H2999 H 0.68793 0.55948 0.43423 0.0
H3000 H 0.72885 0.44498 0.45326 0.0
H3001 H 0.72488 0.39808 0.41758 0.0
H3002 H 0.7213 0.47048 0.42217 0.0
H3003 H 0.70918 0.41247 0.42223 0.0
C3004 C 0.71736 0.60156 0.4425 0.0
C3005 C 0.70461 0.60744 0.43928 0.0
C3006 C 0.72353 0.54627 0.4425 0.0
C3007 C 0.71698 0.49556 0.43945 0.0
C3008 C 0.70399 0.50073 0.43667 0.0
H3009 H 0.72193 0.13737 0.452 0.0
H3010 H 0.72233 0.24527 0.45252 0.0
C3011 C 0.69786 0.55633 0.43655 0.0
C3012 C 0.72354 0.43686 0.43953 0.0
H3013 H 0.7286 0.31297 0.427 0.0
C3014 C 0.729 0.41647 0.44747 0.0
C3015 C 0.72418 0.40043 0.43192 0.0
C3016 C 0.71971 0.42183 0.42298 0.0
C3017 C 0.73423 0.35895 0.44816 0.0
C3018 C 0.73357 0.32032 0.4408 0.0
C3019 C 0.72898 0.34225 0.4327 0.0
C3020 C 0.73576 0.25533 0.4416 0.0
C3021 C 0.74017 0.33998 0.45683 0.0
C3022 C 0.74331 0.22461 0.43535 0.0
C3023 C 0.74287 0.16237 0.43491 0.0
C3024 C 0.73484 0.13017 0.4407 0.0
C3025 C 0.72815 0.16085 0.44739 0.0
C3026 C 0.72849 0.22279 0.44777 0.0
H3027 H 0.74491 0.37839 0.46016 0.0
H3028 H 0.73239 0.32353 0.46128 0.0
H3029 H 0.74748 0.30409 0.45592 0.0
H3030 H 0.74896 0.2489 0.4305 0.0
H3031 H 0.74819 0.13993 0.4297 0.0
H3032 H 0.02098 0.11769 0.30074 0.0
H3033 H 0.02424 0.22517 0.29929 0.0
H3034 H 0.02109 0.24501 0.32753 0.0
H3035 H 0.01756 0.13789 0.32905 0.0
H3036 H 0.01111 0.34288 0.31789 0.0
H3037 H 0.06085 0.27737 0.3073 0.0
H3038 H 0.04799 0.24771 0.30059 0.0
H3039 H 0.04945 0.22492 0.31193 0.0
C3040 C 0.02058 0.14518 0.30662 0.0
C3041 C 0.01934 0.11928 0.31503 0.0
C3042 C 0.0225 0.20645 0.30578 0.0
C3043 C 0.02331 0.24236 0.31333 0.0
C3044 C 0.02064 0.21769 0.32164 0.0
H3045 H 0.06948 0.56173 0.32023 0.0
H3046 H 0.0604 0.46032 0.3207 0.0
C3047 C 0.0186 0.15646 0.32249 0.0
C3048 C 0.02858 0.30335 0.31273 0.0
H3049 H 0.05611 0.38024 0.30743 0.0
C3050 C 0.02091 0.35127 0.31557 0.0
C3051 C 0.04152 0.31359 0.30992 0.0
C3052 C 0.0505 0.26322 0.30734 0.0
C3053 C 0.0258 0.40964 0.31556 0.0
C3054 C 0.03858 0.42006 0.31247 0.0
C3055 C 0.04628 0.372 0.30972 0.0
C3056 C 0.04421 0.48052 0.31206 0.0
C3057 C 0.01734 0.45933 0.31905 0.0
C3058 C 0.03832 0.52449 0.30685 0.0
C3059 C 0.04344 0.58191 0.30662 0.0
C3060 C 0.05456 0.59605 0.31155 0.0
C3061 C 0.06083 0.55156 0.31645 0.0
C3062 C 0.05564 0.49402 0.31673 0.0
H3063 H 0.00947 0.44208 0.32338 0.0
H3064 H 0.02317 0.49222 0.32284 0.0
H3065 H 0.01272 0.48285 0.31342 0.0
H3066 H 0.02974 0.51442 0.30298 0.0
H3067 H 0.03865 0.61549 0.30264 0.0
H3068 H 0.67997 0.19387 0.3157 0.0
H3069 H 0.68929 0.29464 0.31514 0.0
H3070 H 0.72324 0.22545 0.3019 0.0
H3071 H 0.714 0.12513 0.30248 0.0
H3072 H 0.7292 0.29622 0.31636 0.0
H3073 H 0.69395 0.4076 0.29415 0.0
H3074 H 0.68633 0.37015 0.30325 0.0
H3075 H 0.69504 0.32751 0.29511 0.0
C3076 C 0.68935 0.20058 0.3126 0.0
C3077 C 0.69642 0.15207 0.3093 0.0
C3078 C 0.69464 0.2579 0.31225 0.0
C3079 C 0.70693 0.26726 0.30845 0.0
C3080 C 0.71378 0.21896 0.30489 0.0
H3081 H 0.73089 0.63544 0.302 0.0
H3082 H 0.73001 0.52868 0.29889 0.0
C3083 C 0.70852 0.16183 0.30526 0.0
C3084 C 0.71294 0.32692 0.30861 0.0
H3085 H 0.70772 0.47128 0.30269 0.0
C3086 C 0.72462 0.33448 0.31327 0.0
C3087 C 0.70708 0.37628 0.30442 0.0
C3088 C 0.69498 0.37001 0.29887 0.0
C3089 C 0.73025 0.39101 0.31425 0.0
C3090 C 0.72389 0.44099 0.31058 0.0
C3091 C 0.71257 0.43286 0.30553 0.0
C3092 C 0.72789 0.50273 0.31257 0.0
C3093 C 0.74281 0.39675 0.31931 0.0
C3094 C 0.72762 0.52312 0.32133 0.0
C3095 C 0.72818 0.58403 0.32313 0.0
C3096 C 0.7288 0.62542 0.31618 0.0
C3097 C 0.73025 0.6046 0.30748 0.0
C3098 C 0.72976 0.54365 0.30569 0.0
H3099 H 0.74859 0.35499 0.31894 0.0
H3100 H 0.7488 0.43419 0.31678 0.0
H3101 H 0.74059 0.4053 0.32637 0.0
H3102 H 0.72595 0.49241 0.32673 0.0
H3103 H 0.72708 0.59866 0.32991 0.0
H3104 H 0.97843 0.87102 0.05002 0.0
H3105 H 0.97521 0.97825 0.04843 0.0
H3106 H 0.98435 0.00323 0.07596 0.0
H3107 H 0.98761 0.896 0.07764 0.0
H3108 H 0.95484 0.02602 0.05934 0.0
H3109 H 0.00131 0.14932 0.06342 0.0
H3110 H 0.00067 0.07246 0.05984 0.0
H3111 H 0.99835 0.09074 0.07127 0.0
C3112 C 0.98018 0.89945 0.05568 0.0
C3113 C 0.98301 0.87492 0.06401 0.0
C3114 C 0.97835 0.96071 0.05475 0.0
C3115 C 0.97949 -0.00161 0.06208 0.0
C3116 C 0.98356 0.97483 0.0702 0.0
H3117 H 0.95431 0.35351 0.07561 0.0
H3118 H 0.96325 0.25232 0.07534 0.0
C3119 C 0.98538 0.91345 0.07115 0.0
C3120 C 0.97417 0.05939 0.06166 0.0
H3121 H 0.98183 0.2062 0.0642 0.0
C3122 C 0.96075 0.06557 0.0603 0.0
C3123 C 0.9819 0.11042 0.06306 0.0
C3124 C 0.99638 0.10578 0.06442 0.0
C3125 C 0.95476 0.12159 0.06048 0.0
C3126 C 0.96248 0.17287 0.06184 0.0
C3127 C 0.97594 0.16672 0.06315 0.0
C3128 C 0.95674 0.23327 0.06205 0.0
C3129 C 0.94017 0.12504 0.05952 0.0
C3130 C 0.95005 0.25574 0.05469 0.0
C3131 C 0.94486 0.31324 0.05487 0.0
C3132 C 0.94653 0.34944 0.06233 0.0
C3133 C 0.95308 0.32666 0.06973 0.0
C3134 C 0.95817 0.26902 0.06958 0.0
H3135 H 0.93544 0.08165 0.06102 0.0
H3136 H 0.936 0.15955 0.06395 0.0
H3137 H 0.93772 0.13702 0.05261 0.0
H3138 H 0.94905 0.22924 0.04875 0.0
H3139 H 0.93996 0.33016 0.04905 0.0
H3140 H 0.29215 0.88287 0.07707 0.0
H3141 H 0.28146 0.98042 0.07744 0.0
H3142 H 0.29746 0.02168 0.05184 0.0
H3143 H 0.30793 0.92353 0.05135 0.0
H3144 H 0.29308 0.09338 0.07616 0.0
H3145 H 0.25813 0.05447 0.04889 0.0
H3146 H 0.2666 0.99457 0.05442 0.0
H3147 H 0.2747 0.03783 0.04608 0.0
C3148 C 0.29327 0.91257 0.07149 0.0
C3149 C 0.30062 0.89545 0.0641 0.0
C3150 C 0.28721 0.96819 0.07172 0.0
C3151 C 0.2884 0.00735 0.06456 0.0
C3152 C 0.29616 0.99127 0.05732 0.0
H3153 H 0.27645 0.3631 0.05063 0.0
H3154 H 0.27777 0.2547 0.05104 0.0
C3155 C 0.30225 0.93569 0.0571 0.0
C3156 C 0.28201 0.0662 0.06481 0.0
H3157 H 0.26099 0.15575 0.0535 0.0
C3158 C 0.2859 0.10687 0.07131 0.0
C3159 C 0.27261 0.08317 0.05848 0.0
C3160 C 0.26765 0.04007 0.05162 0.0
C3161 C 0.28121 0.16549 0.07134 0.0
C3162 C 0.27215 0.18323 0.06481 0.0
C3163 C 0.26786 0.14178 0.05852 0.0
C3164 C 0.26843 0.24639 0.06377 0.0
C3165 C 0.28655 0.20882 0.07806 0.0
C3166 C 0.262 0.27714 0.07056 0.0
C3167 C 0.2613 0.33936 0.07038 0.0
C3168 C 0.26699 0.3713 0.06339 0.0
C3169 C 0.27216 0.33978 0.05617 0.0
C3170 C 0.27288 0.27779 0.05637 0.0
H3171 H 0.2951 0.19047 0.08163 0.0
H3172 H 0.28947 0.25119 0.07483 0.0
H3173 H 0.27892 0.21919 0.083 0.0
H3174 H 0.25828 0.25334 0.07624 0.0
H3175 H 0.25713 0.36236 0.07599 0.0
H3176 H 0.93966 0.92755 0.19967 0.0
H3177 H 0.94952 0.02693 0.19896 0.0
H3178 H 0.9656 0.98533 0.17339 0.0
H3179 H 0.95544 0.88677 0.17394 0.0
H3180 H 0.9768 0.05165 0.19705 0.0
H3181 H 0.94714 0.14637 0.16971 0.0
H3182 H 0.94227 0.08064 0.17574 0.0
H3183 H 0.95475 0.07585 0.16748 0.0
C3184 C 0.94513 0.94004 0.19384 0.0
C3185 C 0.94696 0.89937 0.18691 0.0
C3186 C 0.95084 0.99645 0.19348 0.0
C3187 C 0.95829 0.0132 0.18613 0.0
C3188 C 0.95983 0.97324 0.17909 0.0
H3189 H 0.98995 0.36399 0.17446 0.0
H3190 H 0.98835 0.25521 0.17435 0.0
C3191 C 0.95413 0.91685 0.17945 0.0
C3192 C 0.96459 0.07229 0.18591 0.0
H3193 H 0.96388 0.20647 0.17539 0.0
C3194 C 0.97405 0.08551 0.19229 0.0
C3195 C 0.96104 0.1159 0.17963 0.0
C3196 C 0.95068 0.10442 0.17278 0.0
C3197 C 0.97991 0.1419 0.19266 0.0
C3198 C 0.97605 0.18616 0.18657 0.0
C3199 C 0.9669 0.1722 0.18001 0.0
C3200 C 0.98008 0.24911 0.18745 0.0
C3201 C 0.9901 0.15375 0.19961 0.0
C3202 C 0.97644 0.28131 0.19499 0.0
C3203 C 0.97733 0.34332 0.19508 0.0
C3204 C 0.98176 0.37417 0.18758 0.0
C3205 C 0.98646 0.34152 0.18033 0.0
C3206 C 0.98554 0.27938 0.18024 0.0
H3207 H 0.99503 0.1119 0.20166 0.0
H3208 H 0.99753 0.18574 0.1972 0.0
H3209 H 0.98536 0.17313 0.20553 0.0
H3210 H 0.97201 0.25897 0.20057 0.0
H3211 H 0.97371 0.36722 0.20079 0.0
H3212 H 0.29761 0.35188 0.17513 0.0
H3213 H 0.28812 0.25183 0.17528 0.0
H3214 H 0.30243 0.225 0.20176 0.0
H3215 H 0.31195 0.32513 0.20163 0.0
H3216 H 0.30695 0.12993 0.19063 0.0
H3217 H 0.25536 0.20144 0.1887 0.0
H3218 H 0.26549 0.23091 0.18009 0.0
H3219 H 0.26839 0.25228 0.19136 0.0
C3220 C 0.29865 0.32468 0.18099 0.0
C3221 C 0.30528 0.34634 0.18843 0.0
C3222 C 0.29319 0.26779 0.18109 0.0
C3223 C 0.29426 0.23191 0.18863 0.0
C3224 C 0.30136 0.2525 0.19593 0.0
H3225 H 0.27295 0.86984 0.20112 0.0
H3226 H 0.27602 0.97746 0.20244 0.0
C3227 C 0.30687 0.30934 0.19582 0.0
C3228 C 0.28834 0.172 0.18881 0.0
H3229 H 0.25951 0.09744 0.18699 0.0
C3230 C 0.29657 0.12282 0.18991 0.0
C3231 C 0.27479 0.16315 0.18785 0.0
C3232 C 0.26546 0.21474 0.18702 0.0
C3233 C 0.29166 0.06469 0.18989 0.0
C3234 C 0.27813 0.05577 0.18888 0.0
C3235 C 0.26986 0.10481 0.18781 0.0
C3236 C 0.27269 0.9951 0.18859 0.0
C3237 C 0.30102 0.01309 0.19075 0.0
C3238 C 0.26889 0.97054 0.18049 0.0
C3239 C 0.26707 0.90907 0.17971 0.0
C3240 C 0.26915 0.87173 0.18703 0.0
C3241 C 0.2715 0.89748 0.19534 0.0
C3242 C 0.27325 0.95886 0.19611 0.0
H3243 H 0.31128 0.02718 0.18982 0.0
H3244 H 0.30009 0.99328 0.19743 0.0
H3245 H 0.29873 0.97783 0.18584 0.0
H3246 H 0.26837 -0.00184 0.17463 0.0
H3247 H 0.26518 0.89056 0.17323 0.0
H3248 H 0.02878 0.11631 0.9517 0.0
H3249 H 0.02994 0.00846 0.95241 0.0
H3250 H 0.00419 0.99504 0.93001 0.0
H3251 H 0.00351 0.10404 0.92894 0.0
H3252 H 0.01511 0.91313 0.95389 0.0
H3253 H 0.03681 0.92198 0.92024 0.0
H3254 H 0.03308 0.98829 0.92644 0.0
H3255 H 0.02033 0.94772 0.92096 0.0
C3256 C 0.02317 0.09063 0.94699 0.0
C3257 C 0.01641 0.11864 0.94007 0.0
C3258 C 0.02379 0.0288 0.94744 0.0
C3259 C 0.01753 0.99381 0.94107 0.0
C3260 C 0.00946 0.02144 0.9348 0.0
H3261 H 0.03016 0.60882 0.94464 0.0
H3262 H 0.02001 0.70655 0.94478 0.0
C3263 C 0.00899 0.08366 0.93425 0.0
C3264 C 0.0209 0.92986 0.94046 0.0
H3265 H 0.03671 0.82958 0.92735 0.0
C3266 C 0.01971 0.89452 0.94806 0.0
C3267 C 0.02716 0.90626 0.93289 0.0
C3268 C 0.02955 0.94303 0.92469 0.0
C3269 C 0.02502 0.837 0.94843 0.0
C3270 C 0.03122 0.81342 0.94085 0.0
C3271 C 0.03198 0.84791 0.93315 0.0
C3272 C 0.03738 0.75382 0.94079 0.0
C3273 C 0.02451 0.80359 0.95708 0.0
C3274 C 0.05045 0.74752 0.93826 0.0
C3275 C 0.05614 0.69107 0.93777 0.0
C3276 C 0.04882 0.64011 0.93977 0.0
C3277 C 0.03589 0.6468 0.94261 0.0
C3278 C 0.03014 0.70297 0.94293 0.0
H3279 H 0.02315 0.83429 0.96276 0.0
H3280 H 0.01615 0.77239 0.95698 0.0
H3281 H 0.03353 0.77742 0.95818 0.0
H3282 H 0.05624 0.78631 0.9366 0.0
H3283 H 0.06618 0.68718 0.93569 0.0
H3284 H 0.72492 0.62406 0.95061 0.0
H3285 H 0.72256 0.73216 0.95021 0.0
H3286 H 0.73999 0.73645 0.92433 0.0
H3287 H 0.7422 0.62782 0.92458 0.0
H3288 H 0.73847 0.83401 0.94703 0.0
H3289 H 0.70218 0.79308 0.92041 0.0
H3290 H 0.70879 0.73363 0.92705 0.0
H3291 H 0.71836 0.76618 0.91838 0.0
C3292 C 0.72855 0.64802 0.94491 0.0
C3293 C 0.73344 0.61729 0.93753 0.0
C3294 C 0.72722 0.70984 0.94471 0.0
C3295 C 0.73079 0.74184 0.93715 0.0
C3296 C 0.73694 0.71213 0.93015 0.0
H3297 H 0.70583 0.10306 0.92374 0.0
H3298 H 0.71609 0.0045 0.92331 0.0
C3299 C 0.73827 0.65013 0.93034 0.0
C3300 C 0.72652 0.80438 0.93623 0.0
H3301 H 0.70441 0.89138 0.92543 0.0
C3302 C 0.73113 0.84685 0.94225 0.0
C3303 C 0.71686 0.82062 0.93002 0.0
C3304 C 0.71115 0.77606 0.92363 0.0
C3305 C 0.72622 0.90518 0.9423 0.0
C3306 C 0.71631 0.92081 0.93626 0.0
C3307 C 0.71199 0.87895 0.93006 0.0
C3308 C 0.70994 0.97977 0.93647 0.0
C3309 C 0.73161 0.94953 0.94883 0.0
C3310 C 0.70274 -0.00262 0.94389 0.0
C3311 C 0.69689 0.05351 0.94415 0.0
C3312 C 0.69821 0.09279 0.937 0.0
C3313 C 0.70495 0.07406 0.92942 0.0
C3314 C 0.71077 0.01787 0.92916 0.0
H3315 H 0.7413 0.93568 0.95134 0.0
H3316 H 0.73246 0.99448 0.94582 0.0
H3317 H 0.72491 0.95282 0.95456 0.0
H3318 H 0.70173 0.96786 0.94951 0.0
H3319 H 0.69169 0.0669 0.95005 0.0
H3320 H 0.02101 0.62006 0.80129 0.0
H3321 H 0.02452 0.72726 0.79969 0.0
H3322 H 0.02176 0.7488 0.82792 0.0
H3323 H 0.01802 0.64196 0.82959 0.0
H3324 H 0.01161 0.8461 0.81814 0.0
H3325 H 0.0613 0.77989 0.80749 0.0
H3326 H 0.04835 0.74967 0.80091 0.0
H3327 H 0.04995 0.72782 0.81228 0.0
C3328 C 0.02077 0.64783 0.80714 0.0
C3329 C 0.01958 0.62241 0.81559 0.0
C3330 C 0.02284 0.70896 0.80621 0.0
C3331 C 0.0238 0.74528 0.81372 0.0
C3332 C 0.02119 0.72116 0.82207 0.0
H3333 H 0.06977 0.06558 0.82035 0.0
H3334 H 0.06082 0.9639 0.82083 0.0
C3335 C 0.01905 0.66007 0.823 0.0
C3336 C 0.02907 0.80623 0.81301 0.0
H3337 H 0.05658 0.88281 0.80756 0.0
C3338 C 0.02141 0.85434 0.81579 0.0
C3339 C 0.04199 0.8163 0.81015 0.0
C3340 C 0.05095 0.76574 0.80761 0.0
C3341 C 0.02629 0.91271 0.81569 0.0
C3342 C 0.03907 0.92295 0.81257 0.0
C3343 C 0.04676 0.87471 0.80988 0.0
C3344 C 0.04469 0.98341 0.81209 0.0
C3345 C 0.01785 0.96263 0.81912 0.0
C3346 C 0.03881 0.02707 0.80682 0.0
C3347 C 0.04386 0.08464 0.80658 0.0
C3348 C 0.0549 0.09926 0.81157 0.0
C3349 C 0.06117 0.05505 0.81652 0.0
C3350 C 0.05606 -0.00265 0.8168 0.0
H3351 H 0.00995 0.94565 0.82345 0.0
H3352 H 0.02368 0.99561 0.82289 0.0
H3353 H 0.01326 0.98596 0.81347 0.0
H3354 H 0.03028 0.01668 0.80292 0.0
H3355 H 0.03907 0.11799 0.80256 0.0
H3356 H 0.7276 0.12938 0.79968 0.0
H3357 H 0.72434 0.02182 0.79849 0.0
H3358 H 0.73328 0.00152 0.82613 0.0
H3359 H 0.73666 0.10906 0.82741 0.0
H3360 H 0.74155 0.90207 0.81366 0.0
H3361 H 0.68967 0.97218 0.81181 0.0
H3362 H 0.70053 0.00594 0.80397 0.0
H3363 H 0.70238 0.02165 0.81552 0.0
C3364 C 0.72929 0.10185 0.80545 0.0
C3365 C 0.73207 0.12774 0.81369 0.0
C3366 C 0.72742 0.04049 0.80474 0.0
C3367 C 0.7283 0.00438 0.81226 0.0
C3368 C 0.7325 0.02904 0.82027 0.0
H3369 H 0.70393 0.6475 0.82627 0.0
H3370 H 0.7134 0.7476 0.82595 0.0
C3371 C 0.73443 0.09048 0.82098 0.0
C3372 C 0.72285 0.94369 0.81212 0.0
H3373 H 0.69398 0.86941 0.81094 0.0
C3374 C 0.73117 0.89467 0.81305 0.0
C3375 C 0.70928 0.93471 0.81137 0.0
C3376 C 0.69989 0.98628 0.81068 0.0
C3377 C 0.72624 0.83631 0.81311 0.0
C3378 C 0.71266 0.8274 0.81242 0.0
C3379 C 0.70438 0.87656 0.81146 0.0
C3380 C 0.70677 0.76745 0.81271 0.0
C3381 C 0.73561 0.78475 0.81379 0.0
C3382 C 0.69941 0.74677 0.80553 0.0
C3383 C 0.69393 0.68988 0.80573 0.0
C3384 C 0.69579 0.6529 0.8131 0.0
C3385 C 0.70267 0.67464 0.82042 0.0
C3386 C 0.70812 0.73158 0.82023 0.0
H3387 H 0.74565 0.79809 0.81193 0.0
H3388 H 0.73583 0.76854 0.82071 0.0
H3389 H 0.73253 0.74723 0.80949 0.0
H3390 H 0.69812 0.77424 0.79972 0.0
H3391 H 0.68864 0.67407 0.80001 0.0
H3392 H 0.31975 0.42477 0.05908 0.0
H3393 H 0.34012 0.36944 0.05816 0.0
H3394 H 0.36159 0.5345 0.05812 0.0
H3395 H 0.34123 0.59059 0.05917 0.0
H3396 H 0.35997 0.37323 0.04547 0.0
H3397 H 0.37778 0.44092 0.07863 0.0
H3398 H 0.36115 0.45167 0.07519 0.0
H3399 H 0.37363 0.50159 0.07143 0.0
C3400 C 0.32879 0.44951 0.05887 0.0
C3401 C 0.32885 0.51222 0.05927 0.0
C3402 C 0.34042 0.41771 0.05832 0.0
C3403 C 0.35235 0.44783 0.0582 0.0
C3404 C 0.35248 0.5104 0.05837 0.0
H3405 H 0.43222 0.32536 0.05839 0.0
H3406 H 0.41228 0.38387 0.05746 0.0
C3407 C 0.34083 0.54236 0.05893 0.0
C3408 C 0.36463 0.41341 0.05799 0.0
H3409 H 0.3921 0.38383 0.06984 0.0
C3410 C 0.36701 0.37547 0.0508 0.0
C3411 C 0.37376 0.41638 0.06496 0.0
C3412 C 0.37145 0.45439 0.07304 0.0
C3413 C 0.37836 0.34085 0.05034 0.0
C3414 C 0.38745 0.3437 0.05732 0.0
C3415 C 0.38511 0.38187 0.06449 0.0
C3416 C 0.39948 0.30744 0.05737 0.0
C3417 C 0.38064 0.30228 0.04232 0.0
C3418 C 0.39887 0.24494 0.05764 0.0
C3419 C 0.41028 0.21115 0.05818 0.0
C3420 C 0.42248 0.23937 0.05851 0.0
C3421 C 0.42301 0.30205 0.05815 0.0
C3422 C 0.41162 0.33567 0.05762 0.0
H3423 H 0.37448 0.31624 0.03666 0.0
H3424 H 0.39099 0.30375 0.04027 0.0
H3425 H 0.37817 0.2554 0.04396 0.0
H3426 H 0.38957 0.22234 0.05762 0.0
H3427 H 0.40951 0.16303 0.05847 0.0
H3428 H 0.82244 0.93117 0.05971 0.0
H3429 H 0.84288 0.87654 0.05895 0.0
H3430 H 0.86407 0.04233 0.05842 0.0
H3431 H 0.8436 0.09782 0.05933 0.0
H3432 H 0.86243 0.87873 0.04626 0.0
H3433 H 0.88082 0.95236 0.079 0.0
H3434 H 0.86414 0.96273 0.07565 0.0
H3435 H 0.8766 0.01154 0.07155 0.0
C3436 C 0.83142 0.95627 0.05943 0.0
C3437 C 0.83136 0.01902 0.05965 0.0
C3438 C 0.84311 0.92484 0.05897 0.0
C3439 C 0.85499 0.95533 0.05875 0.0
C3440 C 0.855 0.01794 0.05876 0.0
H3441 H 0.93455 0.82529 0.05931 0.0
H3442 H 0.91499 0.88644 0.05827 0.0
C3443 C 0.84329 0.04956 0.05923 0.0
C3444 C 0.8673 0.92108 0.05858 0.0
H3445 H 0.89479 0.89207 0.07045 0.0
C3446 C 0.86952 0.88167 0.05153 0.0
C3447 C 0.87652 0.92499 0.06548 0.0
C3448 C 0.8744 0.96476 0.07339 0.0
C3449 C 0.88076 0.84619 0.05119 0.0
C3450 C 0.88989 0.84961 0.05814 0.0
C3451 C 0.88775 0.88957 0.06513 0.0
C3452 C 0.90169 0.81181 0.05837 0.0
C3453 C 0.88282 0.80589 0.04334 0.0
C3454 C 0.90069 0.74946 0.05881 0.0
C3455 C 0.91187 0.71416 0.05939 0.0
C3456 C 0.92426 0.7407 0.05962 0.0
C3457 C 0.92519 0.80325 0.05915 0.0
C3458 C 0.91402 0.83838 0.05856 0.0
H3459 H 0.87683 0.81987 0.03759 0.0
H3460 H 0.8932 0.80532 0.04132 0.0
H3461 H 0.87997 0.75976 0.04513 0.0
H3462 H 0.89125 0.72812 0.05885 0.0
H3463 H 0.91079 0.66621 0.05978 0.0
H3464 H 0.32023 0.82034 0.19114 0.0
H3465 H 0.34052 0.87676 0.19163 0.0
H3466 H 0.36238 0.71279 0.19113 0.0
H3467 H 0.34214 0.6557 0.19055 0.0
H3468 H 0.36108 0.87174 0.20408 0.0
H3469 H 0.37738 0.80927 0.17034 0.0
H3470 H 0.36089 0.79838 0.17408 0.0
H3471 H 0.37347 0.74767 0.17744 0.0
C3472 C 0.32934 0.7961 0.19114 0.0
C3473 C 0.32954 0.7334 0.19074 0.0
C3474 C 0.34092 0.8285 0.19143 0.0
C3475 C 0.35293 0.79896 0.19129 0.0
C3476 C 0.3532 0.73643 0.19109 0.0
H3477 H 0.43276 0.92343 0.1898 0.0
H3478 H 0.41294 0.86388 0.19071 0.0
C3479 C 0.34162 0.7039 0.1908 0.0
C3480 C 0.36516 0.8338 0.19132 0.0
H3481 H 0.39208 0.86526 0.179 0.0
C3482 C 0.36787 0.87045 0.1986 0.0
C3483 C 0.37396 0.83194 0.18416 0.0
C3484 C 0.37128 0.79514 0.17601 0.0
C3485 C 0.37926 0.90482 0.19896 0.0
C3486 C 0.38803 0.9032 0.19177 0.0
C3487 C 0.38534 0.86631 0.18451 0.0
C3488 C 0.40002 0.93975 0.19158 0.0
C3489 C 0.38193 0.94174 0.20709 0.0
C3490 C 0.39931 0.00222 0.19172 0.0
C3491 C 0.41064 0.03653 0.1912 0.0
C3492 C 0.42288 0.00893 0.19048 0.0
C3493 C 0.42352 0.94625 0.19036 0.0
C3494 C 0.4122 0.91206 0.19088 0.0
H3495 H 0.37616 0.92615 0.21284 0.0
H3496 H 0.3924 0.94044 0.20885 0.0
H3497 H 0.37923 0.98878 0.20576 0.0
H3498 H 0.38999 0.02449 0.19208 0.0
H3499 H 0.40977 0.08465 0.19128 0.0
H3500 H 0.84127 0.15867 0.19177 0.0
H3501 H 0.86072 0.22115 0.19256 0.0
H3502 H 0.83689 0.379 0.19106 0.0
H3503 H 0.8174 0.31722 0.19039 0.0
H3504 H 0.86908 0.30318 0.17998 0.0
H3505 H 0.86036 0.41437 0.2122 0.0
H3506 H 0.85162 0.34847 0.2088 0.0
H3507 H 0.84714 0.42031 0.20451 0.0
C3508 C 0.84014 0.20667 0.19168 0.0
C3509 C 0.82775 0.23285 0.19104 0.0
C3510 C 0.85127 0.24229 0.19213 0.0
C3511 C 0.85023 0.30467 0.192 0.0
C3512 C 0.8379 0.33098 0.19137 0.0
H3513 H 0.90761 0.59073 0.19025 0.0
H3514 H 0.88742 0.5327 0.19062 0.0
C3515 C 0.82676 0.29547 0.19093 0.0
C3516 C 0.86209 0.34211 0.19207 0.0
H3517 H 0.8779 0.45118 0.20358 0.0
C3518 C 0.87105 0.33534 0.18516 0.0
C3519 C 0.86456 0.38436 0.19881 0.0
C3520 C 0.85548 0.39212 0.20655 0.0
C3521 C 0.88237 0.37001 0.18475 0.0
C3522 C 0.88491 0.41184 0.19152 0.0
C3523 C 0.87591 0.41907 0.1984 0.0
C3524 C 0.89705 0.44725 0.19167 0.0
C3525 C 0.89142 0.36221 0.17699 0.0
C3526 C 0.9091 0.41845 0.19235 0.0
C3527 C 0.92061 0.45127 0.19213 0.0
C3528 C 0.92031 0.51375 0.19128 0.0
C3529 C 0.90819 0.5427 0.19087 0.0
C3530 C 0.89665 0.50967 0.19109 0.0
H3531 H 0.88647 0.3407 0.17131 0.0
H3532 H 0.89542 0.40575 0.17481 0.0
H3533 H 0.89968 0.3333 0.17898 0.0
H3534 H 0.9096 0.37041 0.193 0.0
H3535 H 0.92975 0.42744 0.19254 0.0
H3536 H 0.6596 0.40412 0.94083 0.0
H3537 H 0.63966 0.46384 0.94155 0.0
H3538 H 0.66255 0.62416 0.94372 0.0
H3539 H 0.68244 0.56544 0.94291 0.0
H3540 H 0.63102 0.54602 0.9548 0.0
H3541 H 0.63876 0.65638 0.9224 0.0
H3542 H 0.64756 0.59042 0.9257 0.0
H3543 H 0.65222 0.66225 0.9299 0.0
C3544 C 0.66039 0.45207 0.94147 0.0
C3545 C 0.67264 0.47997 0.94172 0.0
C3546 C 0.649 0.48607 0.9419 0.0
C3547 C 0.64966 0.54843 0.94253 0.0
C3548 C 0.66184 0.57619 0.94304 0.0
H3549 H 0.59255 0.83451 0.94242 0.0
H3550 H 0.61253 0.77549 0.94346 0.0
C3551 C 0.6732 0.5424 0.94261 0.0
C3552 C 0.63765 0.58479 0.94261 0.0
H3553 H 0.62148 0.69304 0.93119 0.0
C3554 C 0.62888 0.57801 0.94963 0.0
C3555 C 0.63495 0.62662 0.93586 0.0
C3556 C 0.64379 0.63416 0.92799 0.0
C3557 C 0.61755 0.61274 0.95016 0.0
C3558 C 0.61483 0.65447 0.9434 0.0
C3559 C 0.62362 0.66125 0.93639 0.0
C3560 C 0.60272 0.69018 0.94328 0.0
C3561 C 0.60871 0.60521 0.95803 0.0
C3562 C 0.59061 0.66175 0.9428 0.0
C3563 C 0.5792 0.69521 0.94222 0.0
C3564 C 0.57967 0.75793 0.94203 0.0
C3565 C 0.59183 0.78635 0.94256 0.0
C3566 C 0.60325 0.75272 0.94315 0.0
H3567 H 0.61389 0.5848 0.96371 0.0
H3568 H 0.60458 0.64867 0.96015 0.0
H3569 H 0.60054 0.57534 0.95621 0.0
H3570 H 0.58998 0.61355 0.94269 0.0
H3571 H 0.57002 0.67173 0.94178 0.0
H3572 H 0.15879 0.90302 0.94131 0.0
H3573 H 0.13876 0.96219 0.94196 0.0
H3574 H 0.16141 0.12341 0.94373 0.0
H3575 H 0.18139 0.06526 0.943 0.0
H3576 H 0.12998 0.04579 0.955 0.0
H3577 H 0.13761 0.15233 0.92231 0.0
H3578 H 0.14648 0.08698 0.92579 0.0
H3579 H 0.15107 0.15943 0.92978 0.0
C3580 C 0.15951 0.95105 0.94187 0.0
C3581 C 0.17171 0.97937 0.94202 0.0
C3582 C 0.14806 0.98474 0.94224 0.0
C3583 C 0.14864 0.04718 0.94273 0.0
C3584 C 0.16077 0.07535 0.94316 0.0
H3585 H 0.0915 0.33291 0.94204 0.0
H3586 H 0.11147 0.27386 0.94315 0.0
C3587 C 0.17219 0.04189 0.94278 0.0
C3588 C 0.13658 0.08323 0.94271 0.0
H3589 H 0.12035 0.19005 0.93103 0.0
C3590 C 0.12782 0.07716 0.94975 0.0
C3591 C 0.13385 0.12423 0.93586 0.0
C3592 C 0.14268 0.13093 0.92796 0.0
C3593 C 0.11647 0.11185 0.9502 0.0
C3594 C 0.11374 0.15284 0.94334 0.0
C3595 C 0.12251 0.15885 0.93631 0.0
C3596 C 0.10163 0.1886 0.94316 0.0
C3597 C 0.10764 0.10515 0.95809 0.0
C3598 C 0.08951 0.16019 0.94274 0.0
C3599 C 0.07811 0.19367 0.94212 0.0
C3600 C 0.07859 0.25637 0.94182 0.0
C3601 C 0.09077 0.28477 0.94227 0.0
C3602 C 0.10218 0.25112 0.9429 0.0
H3603 H 0.11282 0.08522 0.96381 0.0
H3604 H 0.10354 0.14885 0.96012 0.0
H3605 H 0.09945 0.0752 0.95634 0.0
H3606 H 0.08888 0.11199 0.94272 0.0
H3607 H 0.06893 0.1702 0.94175 0.0
H3608 H 0.65899 0.3414 0.81124 0.0
H3609 H 0.63895 0.28268 0.81066 0.0
H3610 H 0.66146 0.12133 0.80826 0.0
H3611 H 0.68151 0.17918 0.80895 0.0
H3612 H 0.62977 0.20364 0.79757 0.0
H3613 H 0.6379 0.08742 0.82946 0.0
H3614 H 0.64701 0.15266 0.82623 0.0
H3615 H 0.65113 0.08078 0.82179 0.0
C3616 C 0.65969 0.29343 0.81059 0.0
C3617 C 0.67187 0.26501 0.81023 0.0
C3618 C 0.64822 0.25999 0.81025 0.0
C3619 C 0.64874 0.19764 0.80957 0.0
C3620 C 0.66086 0.16931 0.80897 0.0
H3621 H 0.59156 0.91365 0.80869 0.0
H3622 H 0.6114 0.97352 0.80793 0.0
C3623 C 0.67231 0.20257 0.80933 0.0
C3624 C 0.63662 0.16204 0.8095 0.0
H3625 H 0.62039 0.05284 0.82067 0.0
C3626 C 0.62767 0.17084 0.80263 0.0
C3627 C 0.63394 0.11927 0.81612 0.0
C3628 C 0.64293 0.1097 0.82387 0.0
C3629 C 0.6162 0.1371 0.80211 0.0
C3630 C 0.61354 0.09421 0.80872 0.0
C3631 C 0.62249 0.08555 0.81559 0.0
C3632 C 0.60145 0.05835 0.80873 0.0
C3633 C 0.60716 0.14677 0.7944 0.0
C3634 C 0.5893 0.08625 0.80947 0.0
C3635 C 0.57794 0.05223 0.80989 0.0
C3636 C 0.57853 0.98955 0.80965 0.0
C3637 C 0.59074 0.96177 0.80888 0.0
C3638 C 0.60209 0.99589 0.80845 0.0
H3639 H 0.61217 0.16891 0.78879 0.0
H3640 H 0.60302 0.10388 0.79206 0.0
H3641 H 0.599 0.17588 0.7965 0.0
H3642 H 0.58861 0.13435 0.80989 0.0
H3643 H 0.56872 0.07516 0.81053 0.0
H3644 H 0.06685 0.57559 0.81075 0.0
H3645 H 0.08617 0.63825 0.80965 0.0
H3646 H 0.11045 0.48151 0.80937 0.0
H3647 H 0.09115 0.41815 0.81035 0.0
H3648 H 0.10688 0.64456 0.82135 0.0
H3649 H 0.12365 0.57576 0.78805 0.0
H3650 H 0.10751 0.55962 0.7921 0.0
H3651 H 0.12109 0.51476 0.79553 0.0
C3652 C 0.07628 0.55424 0.8104 0.0
C3653 C 0.07743 0.4917 0.81061 0.0
C3654 C 0.08732 0.59023 0.80978 0.0
C3655 C 0.09972 0.56453 0.8093 0.0
C3656 C 0.10094 0.50221 0.80954 0.0
H3657 H 0.17872 0.68677 0.80964 0.0
H3658 H 0.15834 0.6316 0.80907 0.0
C3659 C 0.08989 0.46608 0.81016 0.0
C3660 C 0.1114 0.60309 0.8089 0.0
H3661 H 0.13834 0.63414 0.79657 0.0
C3662 C 0.11371 0.64272 0.8159 0.0
C3663 C 0.12026 0.60057 0.80177 0.0
C3664 C 0.11798 0.56081 0.79389 0.0
C3665 C 0.12488 0.67861 0.8161 0.0
C3666 C 0.13385 0.67547 0.80904 0.0
C3667 C 0.13144 0.63646 0.80198 0.0
C3668 C 0.14612 0.71005 0.80906 0.0
C3669 C 0.12722 0.71804 0.82402 0.0
C3670 C 0.14601 0.77265 0.80909 0.0
C3671 C 0.15769 0.80459 0.80944 0.0
C3672 C 0.16967 0.77437 0.80972 0.0
C3673 C 0.16969 0.71162 0.80947 0.0
C3674 C 0.15804 0.67989 0.80913 0.0
H3675 H 0.12097 0.70538 0.8297 0.0
H3676 H 0.13754 0.71594 0.82613 0.0
H3677 H 0.12496 0.7649 0.82225 0.0
H3678 H 0.1369 0.79679 0.80888 0.0
H3679 H 0.15732 0.85283 0.80958 0.0
H3680 H 0.427 0.80566 0.5583 0.0
H3681 H 0.40642 0.85918 0.55777 0.0
H3682 H 0.38558 0.69289 0.55957 0.0
H3683 H 0.40623 0.63849 0.56024 0.0
H3684 H 0.38574 0.85015 0.54582 0.0
H3685 H 0.37058 0.79201 0.58001 0.0
H3686 H 0.38698 0.78107 0.57608 0.0
H3687 H 0.37436 0.72989 0.57296 0.0
C3688 C 0.41807 0.78018 0.55858 0.0
C3689 C 0.41829 0.71766 0.55938 0.0
C3690 C 0.4063 0.81098 0.55825 0.0
C3691 C 0.39449 0.7801 0.55875 0.0
C3692 C 0.39461 0.71762 0.55933 0.0
H3693 H 0.31523 0.91478 0.56146 0.0
H3694 H 0.33447 0.85154 0.5603 0.0
C3695 C 0.40642 0.68661 0.55967 0.0
C3696 C 0.38212 0.81397 0.55876 0.0
H3697 H 0.35597 0.84967 0.57159 0.0
C3698 C 0.3792 0.84994 0.55144 0.0
C3699 C 0.37364 0.8136 0.5661 0.0
C3700 C 0.37655 0.77751 0.57428 0.0
C3701 C 0.368 0.88565 0.55127 0.0
C3702 C 0.35963 0.88605 0.55867 0.0
C3703 C 0.36243 0.84929 0.56593 0.0
C3704 C 0.348 0.92486 0.5591 0.0
C3705 C 0.36515 0.92222 0.54313 0.0
C3706 C 0.34925 0.98717 0.55888 0.0
C3707 C 0.33826 0.02364 0.55955 0.0
C3708 C 0.32582 -0.00162 0.5605 0.0
C3709 C 0.32464 0.93585 0.56073 0.0
C3710 C 0.33563 0.89953 0.56007 0.0
H3711 H 0.37049 0.90524 0.53727 0.0
H3712 H 0.35458 0.92236 0.54164 0.0
H3713 H 0.36824 0.96895 0.5443 0.0
H3714 H 0.35874 0.00762 0.55831 0.0
H3715 H 0.33953 0.07156 0.55939 0.0
H3716 H 0.84224 0.59405 0.55941 0.0
H3717 H 0.86257 0.53774 0.5583 0.0
H3718 H 0.841 0.37296 0.55847 0.0
H3719 H 0.82068 0.42848 0.55946 0.0
H3720 H 0.87193 0.45397 0.57034 0.0
H3721 H 0.86522 0.35162 0.53733 0.0
H3722 H 0.85559 0.41389 0.54111 0.0
H3723 H 0.85181 0.33944 0.54469 0.0
C3724 C 0.84181 0.54584 0.55913 0.0
C3725 C 0.82981 0.51584 0.5595 0.0
C3726 C 0.85343 0.51378 0.5585 0.0
C3727 C 0.85327 0.45125 0.55817 0.0
C3728 C 0.84133 0.42122 0.55852 0.0
H3729 H 0.90968 0.16613 0.55977 0.0
H3730 H 0.89011 0.22799 0.55903 0.0
C3731 C 0.82972 0.45314 0.55915 0.0
C3732 C 0.8656 0.41712 0.55795 0.0
H3733 H 0.88232 0.31213 0.54621 0.0
C3734 C 0.87428 0.42339 0.56503 0.0
C3735 C 0.86858 0.3771 0.55102 0.0
C3736 C 0.85988 0.3704 0.54306 0.0
C3737 C 0.88572 0.38945 0.56549 0.0
C3738 C 0.88864 0.34894 0.55861 0.0
C3739 C 0.88002 0.34312 0.55148 0.0
C3740 C 0.90053 0.31173 0.55876 0.0
C3741 C 0.89438 0.39592 0.57348 0.0
C3742 C 0.91285 0.33835 0.55867 0.0
C3743 C 0.92405 0.30325 0.55912 0.0
C3744 C 0.92313 0.2407 0.55959 0.0
C3745 C 0.91074 0.21412 0.55944 0.0
C3746 C 0.89955 0.24936 0.55901 0.0
H3747 H 0.88922 0.41739 0.57909 0.0
H3748 H 0.89809 0.35187 0.57568 0.0
H3749 H 0.90284 0.42423 0.57175 0.0
H3750 H 0.91382 0.38637 0.55829 0.0
H3751 H 0.93342 0.32527 0.55915 0.0
H3752 H 0.32024 0.323 0.69279 0.0
H3753 H 0.34036 0.38017 0.6933 0.0
H3754 H 0.36262 0.21786 0.69131 0.0
H3755 H 0.34245 0.15968 0.69086 0.0
H3756 H 0.37171 0.30113 0.70436 0.0
H3757 H 0.36399 0.40779 0.67169 0.0
H3758 H 0.35059 0.41525 0.67921 0.0
H3759 H 0.35507 0.34268 0.67521 0.0
C3760 C 0.32939 0.29918 0.69247 0.0
C3761 C 0.32971 0.23664 0.69171 0.0
C3762 C 0.34088 0.33209 0.69273 0.0
C3763 C 0.35294 0.30331 0.69218 0.0
C3764 C 0.35337 0.24086 0.69167 0.0
H3765 H 0.4328 0.42556 0.69103 0.0
H3766 H 0.41287 0.36709 0.69193 0.0
C3767 C 0.34184 0.20774 0.69141 0.0
C3768 C 0.36508 0.33876 0.69209 0.0
H3769 H 0.38135 0.4451 0.68037 0.0
C3770 C 0.37388 0.33241 0.6991 0.0
C3771 C 0.36782 0.37961 0.68523 0.0
C3772 C 0.35894 0.38654 0.67736 0.0
C3773 C 0.38527 0.3668 0.69952 0.0
C3774 C 0.38799 0.40775 0.69266 0.0
C3775 C 0.37919 0.41393 0.68564 0.0
C3776 C 0.40008 0.44356 0.69248 0.0
C3777 C 0.39414 0.3599 0.70738 0.0
C3778 C 0.3995 0.50608 0.69232 0.0
C3779 C 0.41089 0.53987 0.69174 0.0
C3780 C 0.42308 0.51163 0.69125 0.0
C3781 C 0.4236 0.44891 0.69144 0.0
C3782 C 0.41222 0.41528 0.69201 0.0
H3783 H 0.38901 0.33963 0.7131 0.0
H3784 H 0.40235 0.33021 0.70558 0.0
H3785 H 0.39821 0.40359 0.70944 0.0
H3786 H 0.3902 0.52872 0.69261 0.0
H3787 H 0.41013 0.58802 0.69159 0.0
H3788 H 0.84248 0.64792 0.69162 0.0
H3789 H 0.86264 0.70562 0.69276 0.0
H3790 H 0.8405 0.86885 0.69289 0.0
H3791 H 0.82038 0.81202 0.69188 0.0
H3792 H 0.87163 0.79056 0.68083 0.0
H3793 H 0.86474 0.89144 0.71392 0.0
H3794 H 0.85528 0.82873 0.71011 0.0
H3795 H 0.85124 0.9031 0.70662 0.0
C3796 C 0.8419 0.69606 0.69198 0.0
C3797 C 0.8298 0.72526 0.69167 0.0
C3798 C 0.85342 0.72893 0.69263 0.0
C3799 C 0.85304 0.79144 0.69305 0.0
C3800 C 0.841 0.82062 0.69278 0.0
H3801 H 0.90894 0.07995 0.69129 0.0
H3802 H 0.88935 0.01802 0.69202 0.0
C3803 C 0.8295 0.78794 0.69213 0.0
C3804 C 0.86523 0.82656 0.69326 0.0
H3805 H 0.88157 0.93291 0.70498 0.0
C3806 C 0.87388 0.82125 0.68615 0.0
C3807 C 0.86808 0.86681 0.70019 0.0
C3808 C 0.85941 0.87257 0.70819 0.0
C3809 C 0.88516 0.85623 0.68566 0.0
C3810 C 0.88795 0.89686 0.69254 0.0
C3811 C 0.87936 0.90186 0.6997 0.0
C3812 C 0.89979 0.93434 0.69243 0.0
C3813 C 0.89381 0.85056 0.67765 0.0
C3814 C 0.91212 0.90777 0.69261 0.0
C3815 C 0.9233 0.94286 0.69218 0.0
C3816 C 0.92239 0.00538 0.69162 0.0
C3817 C 0.91 0.03198 0.69168 0.0
C3818 C 0.8988 -0.00329 0.69211 0.0
H3819 H 0.8887 0.82891 0.67204 0.0
H3820 H 0.89737 0.89492 0.67547 0.0
H3821 H 0.90238 0.82277 0.67935 0.0
H3822 H 0.91309 0.85977 0.69304 0.0
H3823 H 0.93267 0.92078 0.69222 0.0
H3824 H 0.65941 0.91126 0.44183 0.0
H3825 H 0.63925 0.96954 0.44261 0.0
H3826 H 0.66157 0.13127 0.4451 0.0
H3827 H 0.68166 0.07408 0.44428 0.0
H3828 H 0.63032 0.05278 0.45603 0.0
H3829 H 0.63793 0.16042 0.4234 0.0
H3830 H 0.64668 0.09449 0.42679 0.0
H3831 H 0.6514 0.16645 0.4309 0.0
C3832 C 0.66003 0.95919 0.44258 0.0
C3833 C 0.67217 0.98798 0.4429 0.0
C3834 C 0.64851 0.99236 0.44303 0.0
C3835 C 0.64896 0.05472 0.44376 0.0
C3836 C 0.66103 0.08329 0.44437 0.0
H3837 H 0.59104 0.3378 0.44268 0.0
H3838 H 0.61124 0.28043 0.44396 0.0
C3839 C 0.67251 0.05036 0.44393 0.0
C3840 C 0.63686 0.0904 0.44374 0.0
H3841 H 0.62052 0.19683 0.43207 0.0
C3842 C 0.62812 0.08412 0.45079 0.0
C3843 C 0.6341 0.13143 0.43691 0.0
C3844 C 0.64295 0.13844 0.42902 0.0
C3845 C 0.61674 0.11858 0.45124 0.0
C3846 C 0.61395 0.15947 0.44438 0.0
C3847 C 0.62272 0.16575 0.43735 0.0
C3848 C 0.60173 0.1944 0.44414 0.0
C3849 C 0.60793 0.11168 0.45914 0.0
C3850 C 0.58972 0.16502 0.44377 0.0
C3851 C 0.57821 0.19752 0.44305 0.0
C3852 C 0.57844 0.26022 0.44261 0.0
C3853 C 0.5905 0.28964 0.44302 0.0
C3854 C 0.60205 0.25695 0.44375 0.0
H3855 H 0.6132 0.09262 0.46489 0.0
H3856 H 0.60364 0.15512 0.46111 0.0
H3857 H 0.59988 0.08082 0.45744 0.0
H3858 H 0.58926 0.11679 0.44384 0.0
H3859 H 0.56912 0.17323 0.44271 0.0
H3860 H 0.06883 0.66851 0.44159 0.0
H3861 H 0.08871 0.60932 0.44246 0.0
H3862 H 0.11166 0.77012 0.44206 0.0
H3863 H 0.09182 0.83 0.44129 0.0
H3864 H 0.10882 0.60729 0.43014 0.0
H3865 H 0.12677 0.67813 0.46308 0.0
H3866 H 0.11029 0.69119 0.45947 0.0
H3867 H 0.12323 0.73843 0.45566 0.0
C3868 C 0.07809 0.69148 0.44176 0.0
C3869 C 0.07872 0.75411 0.44138 0.0
C3870 C 0.08944 0.65749 0.44225 0.0
C3871 C 0.10163 0.68535 0.44243 0.0
C3872 C 0.10233 0.74779 0.4421 0.0
H3873 H 0.18127 0.56354 0.44099 0.0
H3874 H 0.16109 0.62075 0.44165 0.0
C3875 C 0.09097 0.78192 0.44161 0.0
C3876 C 0.11363 0.64881 0.44253 0.0
H3877 H 0.14121 0.62025 0.45433 0.0
C3878 C 0.11587 0.60978 0.43545 0.0
C3879 C 0.1228 0.65238 0.44946 0.0
C3880 C 0.12064 0.69187 0.45739 0.0
C3881 C 0.1272 0.57503 0.43502 0.0
C3882 C 0.13639 0.57867 0.44194 0.0
C3883 C 0.13413 0.61755 0.44904 0.0
C3884 C 0.14856 0.54338 0.44183 0.0
C3885 C 0.12938 0.53596 0.42704 0.0
C3886 C 0.14819 0.48084 0.44187 0.0
C3887 C 0.15971 0.44786 0.44146 0.0
C3888 C 0.17182 0.47691 0.44107 0.0
C3889 C 0.17213 0.53964 0.44125 0.0
C3890 C 0.16061 0.5725 0.44164 0.0
H3891 H 0.12309 0.54922 0.42141 0.0
H3892 H 0.13968 0.53773 0.42487 0.0
H3893 H 0.12704 0.4891 0.42877 0.0
H3894 H 0.13898 0.45753 0.44219 0.0
H3895 H 0.15911 0.39965 0.4414 0.0
H3896 H 0.59246 0.40597 0.31079 0.0
H3897 H 0.61199 0.46829 0.31044 0.0
H3898 H 0.58812 0.62598 0.30887 0.0
H3899 H 0.56858 0.56446 0.30934 0.0
H3900 H 0.62044 0.55096 0.29775 0.0
H3901 H 0.61153 0.66038 0.33008 0.0
H3902 H 0.60288 0.59442 0.32661 0.0
H3903 H 0.59829 0.66637 0.32241 0.0
C3904 C 0.59135 0.4539 0.31037 0.0
C3905 C 0.57894 0.48018 0.31017 0.0
C3906 C 0.60253 0.48942 0.31016 0.0
C3907 C 0.60149 0.55176 0.30979 0.0
C3908 C 0.58914 0.57803 0.30936 0.0
H3909 H 0.65812 0.84017 0.31007 0.0
H3910 H 0.63824 0.78048 0.30913 0.0
C3911 C 0.57797 0.54267 0.30958 0.0
C3912 C 0.61333 0.58937 0.30985 0.0
H3913 H 0.62898 0.69793 0.32154 0.0
C3914 C 0.62234 0.58298 0.30296 0.0
C3915 C 0.61575 0.63121 0.31665 0.0
C3916 C 0.60667 0.6383 0.32441 0.0
C3917 C 0.63366 0.61788 0.30263 0.0
C3918 C 0.6361 0.65951 0.30944 0.0
C3919 C 0.62705 0.66613 0.3163 0.0
C3920 C 0.64816 0.69552 0.30973 0.0
C3921 C 0.6428 0.61057 0.29491 0.0
C3922 C 0.6603 0.66749 0.31047 0.0
C3923 C 0.67166 0.70135 0.31101 0.0
C3924 C 0.67111 0.76406 0.31088 0.0
C3925 C 0.65891 0.79203 0.31017 0.0
C3926 C 0.64754 0.75802 0.30963 0.0
H3927 H 0.6379 0.58948 0.28917 0.0
H3928 H 0.64684 0.65423 0.29281 0.0
H3929 H 0.65101 0.58146 0.2969 0.0
H3930 H 0.66097 0.61934 0.31075 0.0
H3931 H 0.68086 0.67824 0.31159 0.0
H3932 H 0.15858 0.33938 0.31088 0.0
H3933 H 0.13859 0.28019 0.31049 0.0
H3934 H 0.16124 0.11896 0.30859 0.0
H3935 H 0.18124 0.17728 0.30908 0.0
H3936 H 0.12956 0.19838 0.2976 0.0
H3937 H 0.13767 0.08856 0.32998 0.0
H3938 H 0.14665 0.15364 0.32653 0.0
H3939 H 0.15096 0.08122 0.32237 0.0
C3940 C 0.15932 0.29133 0.31037 0.0
C3941 C 0.17153 0.2631 0.31008 0.0
C3942 C 0.14789 0.25763 0.31014 0.0
C3943 C 0.14846 0.19521 0.30966 0.0
C3944 C 0.1606 0.16702 0.30914 0.0
H3945 H 0.09161 0.90975 0.3096 0.0
H3946 H 0.1114 0.96999 0.30882 0.0
C3947 C 0.17202 0.20055 0.30938 0.0
C3948 C 0.13638 0.15937 0.30973 0.0
H3949 H 0.12021 0.05204 0.32133 0.0
C3950 C 0.12746 0.16656 0.3028 0.0
C3951 C 0.13371 0.11788 0.31652 0.0
C3952 C 0.14268 0.11009 0.32432 0.0
C3953 C 0.11603 0.13243 0.30239 0.0
C3954 C 0.11339 0.09083 0.30918 0.0
C3955 C 0.1223 0.08378 0.31611 0.0
C3956 C 0.10135 0.05467 0.30931 0.0
C3957 C 0.10703 0.14027 0.29461 0.0
C3958 C 0.08916 0.08237 0.3099 0.0
C3959 C 0.07783 0.04816 0.31034 0.0
C3960 C 0.07849 0.98547 0.31026 0.0
C3961 C 0.09074 0.95787 0.30967 0.0
C3962 C 0.10206 0.9922 0.30922 0.0
H3963 H 0.11204 0.16159 0.28893 0.0
H3964 H 0.10301 0.09677 0.29243 0.0
H3965 H 0.0988 0.16938 0.29657 0.0
H3966 H 0.08841 0.13051 0.31016 0.0
H3967 H 0.06858 0.07097 0.31083 0.0
loop_
_geom_bond_atom_site_label_1
_geom_bond_atom_site_label_2
_geom_bond_distance
_geom_bond_site_symmetry_2
_ccdc_geom_bond_type
Co0 O3 1.970 . S
Co0 N17 1.989 . S
Co0 O25 1.967 . S
Co0 O32 1.920 . S
Co1 O4 1.966 . S
Co1 N10 2.022 1_545 S
Co1 N18 1.993 . S
Co1 O26 1.941 . S
C2 O3 1.258 . S
C2 O4 1.263 . S
O3 Co0 1.970 . S
O3 C2 1.258 . S
O4 Co1 1.966 . S
O4 C2 1.263 . S
C5 O6 1.235 . S
C5 O32 1.289 . S
O6 C5 1.235 . S
C7 C9 1.400 . S
C7 N10 1.351 . S
C7 C12 1.501 . S
C8 C9 1.387 . S
C8 N11 1.341 . S
C9 C7 1.400 . S
C9 C8 1.387 . S
N10 Co1 2.022 1_565 S
N10 C7 1.351 . S
N10 N11 1.365 . S
N11 C8 1.341 . S
N11 N10 1.365 . S
N11 H31 0.862 . S
C12 C7 1.501 . S
C12 H13 0.961 1_565 S
C12 H14 0.961 . S
C12 H15 0.960 . S
H13 C12 0.961 1_545 S
H14 C12 0.961 . S
H15 C12 0.960 . S
C16 N17 1.342 . S
C16 C20 1.401 . S
C16 C21 1.499 . S
N17 Co0 1.989 . S
N17 C16 1.342 . S
N17 N18 1.388 . S
N18 Co1 1.993 . S
N18 N17 1.388 . S
N18 C19 1.346 . S
C19 N18 1.346 . S
C19 C20 1.396 . S
C19 C29 1.510 . S
C20 C16 1.401 . S
C20 C19 1.396 . S
C21 C16 1.499 . S
C21 H22 0.959 . S
C21 H23 0.960 . S
C21 H24 0.961 . S
H22 C21 0.959 . S
H23 C21 0.960 . S
H24 C21 0.961 . S
O25 Co0 1.967 . S
O25 C33 1.258 . S
O26 Co1 1.941 . S
O26 C33 1.266 . S
H27 C29 0.959 . S
H28 C29 0.961 1_565 S
C29 C19 1.510 . S
C29 H27 0.959 . S
C29 H28 0.961 1_545 S
C29 H30 0.960 1_545 S
H30 C29 0.960 1_565 S
H31 N11 0.862 . S
O32 Co0 1.920 . S
O32 C5 1.289 . S
C33 O25 1.258 . S
C33 O26 1.266 . S
Co34 O37 1.970 . S
Co34 N51 1.989 . S
Co34 O59 1.967 . S
Co34 O66 1.920 1_545 S
Co35 O38 1.966 . S
Co35 N44 2.022 . S
Co35 N52 1.993 . S
Co35 O60 1.941 . S
C36 O37 1.258 . S
C36 O38 1.263 . S
O37 Co34 1.970 . S
O37 C36 1.258 . S
O38 Co35 1.966 . S
O38 C36 1.263 . S
C39 O40 1.235 . S
C39 O66 1.289 . S
O40 C39 1.235 . S
C41 C43 1.400 . S
C41 N44 1.351 . S
C41 C46 1.501 . S
C42 C43 1.387 . S
C42 N45 1.341 . S
C43 C41 1.400 . S
C43 C42 1.387 . S
N44 Co35 2.022 . S
N44 C41 1.351 . S
N44 N45 1.365 . S
N45 C42 1.341 . S
N45 N44 1.365 . S
N45 H65 0.862 . S
C46 C41 1.501 . S
C46 H47 0.961 . S
C46 H48 0.961 . S
C46 H49 0.960 . S
H47 C46 0.961 . S
H48 C46 0.961 . S
H49 C46 0.960 . S
C50 N51 1.342 . S
C50 C54 1.401 . S
C50 C55 1.499 . S
N51 Co34 1.989 . S
N51 C50 1.342 . S
N51 N52 1.388 . S
N52 Co35 1.993 . S
N52 N51 1.388 . S
N52 C53 1.346 . S
C53 N52 1.346 . S
C53 C54 1.396 . S
C53 C63 1.510 . S
C54 C50 1.401 . S
C54 C53 1.396 . S
C55 C50 1.499 . S
C55 H56 0.959 1_545 S
C55 H57 0.960 . S
C55 H58 0.961 . S
H56 C55 0.959 1_565 S
H57 C55 0.960 . S
H58 C55 0.961 . S
O59 Co34 1.967 . S
O59 C67 1.258 . S
O60 Co35 1.941 . S
O60 C67 1.266 . S
H61 C63 0.959 . S
H62 C63 0.961 . S
C63 C53 1.510 . S
C63 H61 0.959 . S
C63 H62 0.961 . S
C63 H64 0.960 . S
H64 C63 0.960 . S
H65 N45 0.862 . S
O66 Co34 1.920 1_565 S
O66 C39 1.289 . S
C67 O59 1.258 . S
C67 O60 1.266 . S
Co68 O71 1.970 . S
Co68 N85 1.989 . S
Co68 O93 1.967 . S
Co68 O100 1.920 1_545 S
Co69 O72 1.966 . S
Co69 N78 2.022 . S
Co69 N86 1.993 . S
Co69 O94 1.941 . S
C70 O71 1.258 . S
C70 O72 1.263 . S
O71 Co68 1.970 . S
O71 C70 1.258 . S
O72 Co69 1.966 . S
O72 C70 1.263 . S
C73 O74 1.235 . S
C73 O100 1.289 . S
O74 C73 1.235 . S
C75 C77 1.400 . S
C75 N78 1.351 . S
C75 C80 1.501 . S
C76 C77 1.387 . S
C76 N79 1.341 . S
C77 C75 1.400 . S
C77 C76 1.387 . S
N78 Co69 2.022 . S
N78 C75 1.351 . S
N78 N79 1.365 . S
N79 C76 1.341 . S
N79 N78 1.365 . S
N79 H99 0.862 . S
C80 C75 1.501 . S
C80 H81 0.961 . S
C80 H82 0.961 . S
C80 H83 0.960 . S
H81 C80 0.961 . S
H82 C80 0.961 . S
H83 C80 0.960 . S
C84 N85 1.342 . S
C84 C88 1.401 . S
C84 C89 1.499 . S
N85 Co68 1.989 . S
N85 C84 1.342 . S
N85 N86 1.388 . S
N86 Co69 1.993 . S
N86 N85 1.388 . S
N86 C87 1.346 . S
C87 N86 1.346 . S
C87 C88 1.396 . S
C87 C97 1.510 . S
C88 C84 1.401 . S
C88 C87 1.396 . S
C89 C84 1.499 . S
C89 H90 0.959 1_545 S
C89 H91 0.960 . S
C89 H92 0.961 . S
H90 C89 0.959 1_565 S
H91 C89 0.960 . S
H92 C89 0.961 . S
O93 Co68 1.967 . S
O93 C101 1.258 . S
O94 Co69 1.941 . S
O94 C101 1.266 . S
H95 C97 0.959 . S
H96 C97 0.961 . S
C97 C87 1.510 . S
C97 H95 0.959 . S
C97 H96 0.961 . S
C97 H98 0.960 . S
H98 C97 0.960 . S
H99 N79 0.862 . S
O100 Co68 1.920 1_565 S
O100 C73 1.289 . S
C101 O93 1.258 . S
C101 O94 1.266 . S
Co102 O105 1.970 . S
Co102 N119 1.989 . S
Co102 O127 1.967 . S
Co102 O134 1.920 . S
Co103 O106 1.966 . S
Co103 N112 2.022 1_545 S
Co103 N120 1.993 . S
Co103 O128 1.941 . S
C104 O105 1.258 . S
C104 O106 1.263 . S
O105 Co102 1.970 . S
O105 C104 1.258 . S
O106 Co103 1.966 . S
O106 C104 1.263 . S
C107 O108 1.235 . S
C107 O134 1.289 . S
O108 C107 1.235 . S
C109 C111 1.400 . S
C109 N112 1.351 . S
C109 C114 1.501 . S
C110 C111 1.387 . S
C110 N113 1.341 . S
C111 C109 1.400 . S
C111 C110 1.387 . S
N112 Co103 2.022 1_565 S
N112 C109 1.351 . S
N112 N113 1.365 . S
N113 C110 1.341 . S
N113 N112 1.365 . S
N113 H133 0.862 . S
C114 C109 1.501 . S
C114 H115 0.961 1_565 S
C114 H116 0.961 . S
C114 H117 0.960 . S
H115 C114 0.961 1_545 S
H116 C114 0.961 . S
H117 C114 0.960 . S
C118 N119 1.342 . S
C118 C122 1.401 . S
C118 C123 1.499 . S
N119 Co102 1.989 . S
N119 C118 1.342 . S
N119 N120 1.388 . S
N120 Co103 1.993 . S
N120 N119 1.388 . S
N120 C121 1.346 . S
C121 N120 1.346 . S
C121 C122 1.396 . S
C121 C131 1.510 . S
C122 C118 1.401 . S
C122 C121 1.396 . S
C123 C118 1.499 . S
C123 H124 0.959 . S
C123 H125 0.960 . S
C123 H126 0.961 . S
H124 C123 0.959 . S
H125 C123 0.960 . S
H126 C123 0.961 . S
O127 Co102 1.967 . S
O127 C135 1.258 . S
O128 Co103 1.941 . S
O128 C135 1.266 . S
H129 C131 0.959 . S
H130 C131 0.961 1_565 S
C131 C121 1.510 . S
C131 H129 0.959 . S
C131 H130 0.961 1_545 S
C131 H132 0.960 1_545 S
H132 C131 0.960 1_565 S
H133 N113 0.862 . S
O134 Co102 1.920 . S
O134 C107 1.289 . S
C135 O127 1.258 . S
C135 O128 1.266 . S
Co136 O139 1.970 . S
Co136 N153 1.989 . S
Co136 O161 1.967 . S
Co136 O168 1.920 . S
Co137 O140 1.966 . S
Co137 N146 2.022 1_565 S
Co137 N154 1.993 . S
Co137 O162 1.941 . S
C138 O139 1.258 . S
C138 O140 1.263 . S
O139 Co136 1.970 . S
O139 C138 1.258 . S
O140 Co137 1.966 . S
O140 C138 1.263 . S
C141 O142 1.235 . S
C141 O168 1.289 . S
O142 C141 1.235 . S
C143 C145 1.400 . S
C143 N146 1.351 . S
C143 C148 1.501 . S
C144 C145 1.387 . S
C144 N147 1.341 . S
C145 C143 1.400 . S
C145 C144 1.387 . S
N146 Co137 2.022 1_545 S
N146 C143 1.351 . S
N146 N147 1.365 . S
N147 C144 1.341 . S
N147 N146 1.365 . S
N147 H167 0.862 . S
C148 C143 1.501 . S
C148 H149 0.961 1_545 S
C148 H150 0.961 . S
C148 H151 0.960 . S
H149 C148 0.961 1_565 S
H150 C148 0.961 . S
H151 C148 0.960 . S
C152 N153 1.342 . S
C152 C156 1.401 . S
C152 C157 1.499 . S
N153 Co136 1.989 . S
N153 C152 1.342 . S
N153 N154 1.388 . S
N154 Co137 1.993 . S
N154 N153 1.388 . S
N154 C155 1.346 . S
C155 N154 1.346 . S
C155 C156 1.396 . S
C155 C165 1.510 . S
C156 C152 1.401 . S
C156 C155 1.396 . S
C157 C152 1.499 . S
C157 H158 0.959 . S
C157 H159 0.960 . S
C157 H160 0.961 . S
H158 C157 0.959 . S
H159 C157 0.960 . S
H160 C157 0.961 . S
O161 Co136 1.967 . S
O161 C169 1.258 . S
O162 Co137 1.941 . S
O162 C169 1.266 . S
H163 C165 0.959 . S
H164 C165 0.961 1_545 S
C165 C155 1.510 . S
C165 H163 0.959 . S
C165 H164 0.961 1_565 S
C165 H166 0.960 1_565 S
H166 C165 0.960 1_545 S
H167 N147 0.862 . S
O168 Co136 1.920 . S
O168 C141 1.289 . S
C169 O161 1.258 . S
C169 O162 1.266 . S
Co170 O173 1.970 . S
Co170 N187 1.989 . S
Co170 O195 1.967 . S
Co170 O202 1.920 1_565 S
Co171 O174 1.966 . S
Co171 N180 2.022 . S
Co171 N188 1.993 . S
Co171 O196 1.941 . S
C172 O173 1.258 . S
C172 O174 1.263 . S
O173 Co170 1.970 . S
O173 C172 1.258 . S
O174 Co171 1.966 . S
O174 C172 1.263 . S
C175 O176 1.235 . S
C175 O202 1.289 . S
O176 C175 1.235 . S
C177 C179 1.400 . S
C177 N180 1.351 . S
C177 C182 1.501 . S
C178 C179 1.387 . S
C178 N181 1.341 . S
C179 C177 1.400 . S
C179 C178 1.387 . S
N180 Co171 2.022 . S
N180 C177 1.351 . S
N180 N181 1.365 . S
N181 C178 1.341 . S
N181 N180 1.365 . S
N181 H201 0.862 . S
C182 C177 1.501 . S
C182 H183 0.961 . S
C182 H184 0.961 . S
C182 H185 0.960 . S
H183 C182 0.961 . S
H184 C182 0.961 . S
H185 C182 0.960 . S
C186 N187 1.342 . S
C186 C190 1.401 . S
C186 C191 1.499 . S
N187 Co170 1.989 . S
N187 C186 1.342 . S
N187 N188 1.388 . S
N188 Co171 1.993 . S
N188 N187 1.388 . S
N188 C189 1.346 . S
C189 N188 1.346 . S
C189 C190 1.396 . S
C189 C199 1.510 . S
C190 C186 1.401 . S
C190 C189 1.396 . S
C191 C186 1.499 . S
C191 H192 0.959 1_565 S
C191 H193 0.960 . S
C191 H194 0.961 . S
H192 C191 0.959 1_545 S
H193 C191 0.960 . S
H194 C191 0.961 . S
O195 Co170 1.967 . S
O195 C203 1.258 . S
O196 Co171 1.941 . S
O196 C203 1.266 . S
H197 C199 0.959 . S
H198 C199 0.961 . S
C199 C189 1.510 . S
C199 H197 0.959 . S
C199 H198 0.961 . S
C199 H200 0.960 . S
H200 C199 0.960 . S
H201 N181 0.862 . S
O202 Co170 1.920 1_545 S
O202 C175 1.289 . S
C203 O195 1.258 . S
C203 O196 1.266 . S
Co204 O207 1.970 . S
Co204 N221 1.989 . S
Co204 O229 1.967 . S
Co204 O236 1.920 1_565 S
Co205 O208 1.966 . S
Co205 N214 2.022 . S
Co205 N222 1.993 . S
Co205 O230 1.941 . S
C206 O207 1.258 . S
C206 O208 1.263 . S
O207 Co204 1.970 . S
O207 C206 1.258 . S
O208 Co205 1.966 . S
O208 C206 1.263 . S
C209 O210 1.235 . S
C209 O236 1.289 . S
O210 C209 1.235 . S
C211 C213 1.400 . S
C211 N214 1.351 . S
C211 C216 1.501 . S
C212 C213 1.387 . S
C212 N215 1.341 . S
C213 C211 1.400 . S
C213 C212 1.387 . S
N214 Co205 2.022 . S
N214 C211 1.351 . S
N214 N215 1.365 . S
N215 C212 1.341 . S
N215 N214 1.365 . S
N215 H235 0.862 . S
C216 C211 1.501 . S
C216 H217 0.961 . S
C216 H218 0.961 . S
C216 H219 0.960 . S
H217 C216 0.961 . S
H218 C216 0.961 . S
H219 C216 0.960 . S
C220 N221 1.342 . S
C220 C224 1.401 . S
C220 C225 1.499 . S
N221 Co204 1.989 . S
N221 C220 1.342 . S
N221 N222 1.388 . S
N222 Co205 1.993 . S
N222 N221 1.388 . S
N222 C223 1.346 . S
C223 N222 1.346 . S
C223 C224 1.396 . S
C223 C233 1.510 . S
C224 C220 1.401 . S
C224 C223 1.396 . S
C225 C220 1.499 . S
C225 H226 0.959 1_565 S
C225 H227 0.960 . S
C225 H228 0.961 . S
H226 C225 0.959 1_545 S
H227 C225 0.960 . S
H228 C225 0.961 . S
O229 Co204 1.967 . S
O229 C237 1.258 . S
O230 Co205 1.941 . S
O230 C237 1.266 . S
H231 C233 0.959 . S
H232 C233 0.961 . S
C233 C223 1.510 . S
C233 H231 0.959 . S
C233 H232 0.961 . S
C233 H234 0.960 . S
H234 C233 0.960 . S
H235 N215 0.862 . S
O236 Co204 1.920 1_545 S
O236 C209 1.289 . S
C237 O229 1.258 . S
C237 O230 1.266 . S
Co238 O241 1.970 . S
Co238 N255 1.989 . S
Co238 O263 1.967 . S
Co238 O270 1.920 . S
Co239 O242 1.966 . S
Co239 N248 2.022 1_565 S
Co239 N256 1.993 . S
Co239 O264 1.941 . S
C240 O241 1.258 . S
C240 O242 1.263 . S
O241 Co238 1.970 . S
O241 C240 1.258 . S
O242 Co239 1.966 . S
O242 C240 1.263 . S
C243 O244 1.235 . S
C243 O270 1.289 . S
O244 C243 1.235 . S
C245 C247 1.400 . S
C245 N248 1.351 . S
C245 C250 1.501 . S
C246 C247 1.387 . S
C246 N249 1.341 . S
C247 C245 1.400 . S
C247 C246 1.387 . S
N248 Co239 2.022 1_545 S
N248 C245 1.351 . S
N248 N249 1.365 . S
N249 C246 1.341 . S
N249 N248 1.365 . S
N249 H269 0.862 . S
C250 C245 1.501 . S
C250 H251 0.961 1_545 S
C250 H252 0.961 . S
C250 H253 0.960 . S
H251 C250 0.961 1_565 S
H252 C250 0.961 . S
H253 C250 0.960 . S
C254 N255 1.342 . S
C254 C258 1.401 . S
C254 C259 1.499 . S
N255 Co238 1.989 . S
N255 C254 1.342 . S
N255 N256 1.388 . S
N256 Co239 1.993 . S
N256 N255 1.388 . S
N256 C257 1.346 . S
C257 N256 1.346 . S
C257 C258 1.396 . S
C257 C267 1.510 . S
C258 C254 1.401 . S
C258 C257 1.396 . S
C259 C254 1.499 . S
C259 H260 0.959 . S
C259 H261 0.960 . S
C259 H262 0.961 . S
H260 C259 0.959 . S
H261 C259 0.960 . S
H262 C259 0.961 . S
O263 Co238 1.967 . S
O263 C271 1.258 . S
O264 Co239 1.941 . S
O264 C271 1.266 . S
H265 C267 0.959 . S
H266 C267 0.961 1_545 S
C267 C257 1.510 . S
C267 H265 0.959 . S
C267 H266 0.961 1_565 S
C267 H268 0.960 1_565 S
H268 C267 0.960 1_545 S
H269 N249 0.862 . S
O270 Co238 1.920 . S
O270 C243 1.289 . S
C271 O263 1.258 . S
C271 O264 1.266 . S
Co272 O275 1.970 . S
Co272 N289 1.989 . S
Co272 O297 1.967 . S
Co272 O304 1.920 . S
Co273 O276 1.966 . S
Co273 N282 2.022 . S
Co273 N290 1.993 . S
Co273 O298 1.941 . S
C274 O275 1.258 . S
C274 O276 1.263 . S
O275 Co272 1.970 . S
O275 C274 1.258 . S
O276 Co273 1.966 . S
O276 C274 1.263 . S
C277 O278 1.235 . S
C277 O304 1.289 . S
O278 C277 1.235 . S
C279 C281 1.400 . S
C279 N282 1.351 . S
C279 C284 1.501 . S
C280 C281 1.387 . S
C280 N283 1.341 . S
C281 C279 1.400 . S
C281 C280 1.387 . S
N282 Co273 2.022 . S
N282 C279 1.351 . S
N282 N283 1.365 . S
N283 C280 1.341 . S
N283 N282 1.365 . S
N283 H303 0.862 . S
C284 C279 1.501 . S
C284 H285 0.961 . S
C284 H286 0.961 . S
C284 H287 0.960 . S
H285 C284 0.961 . S
H286 C284 0.961 . S
H287 C284 0.960 . S
C288 N289 1.342 . S
C288 C292 1.401 . S
C288 C293 1.499 . S
N289 Co272 1.989 . S
N289 C288 1.342 . S
N289 N290 1.388 . S
N290 Co273 1.993 . S
N290 N289 1.388 . S
N290 C291 1.346 . S
C291 N290 1.346 . S
C291 C292 1.396 . S
C291 C301 1.510 . S
C292 C288 1.401 . S
C292 C291 1.396 . S
C293 C288 1.499 . S
C293 H294 0.959 . S
C293 H295 0.960 . S
C293 H296 0.961 . S
H294 C293 0.959 . S
H295 C293 0.960 . S
H296 C293 0.961 . S
O297 Co272 1.967 . S
O297 C305 1.258 . S
O298 Co273 1.941 . S
O298 C305 1.266 . S
H299 C301 0.959 . S
H300 C301 0.961 . S
C301 C291 1.510 . S
C301 H299 0.959 . S
C301 H300 0.961 . S
C301 H302 0.960 . S
H302 C301 0.960 . S
H303 N283 0.862 . S
O304 Co272 1.920 . S
O304 C277 1.289 . S
C305 O297 1.258 . S
C305 O298 1.266 . S
Co306 O309 1.970 . S
Co306 N323 1.989 . S
Co306 O331 1.967 . S
Co306 O338 1.920 . S
Co307 O310 1.966 . S
Co307 N316 2.022 . S
Co307 N324 1.993 . S
Co307 O332 1.941 . S
C308 O309 1.258 . S
C308 O310 1.263 . S
O309 Co306 1.970 . S
O309 C308 1.258 . S
O310 Co307 1.966 . S
O310 C308 1.263 . S
C311 O312 1.235 . S
C311 O338 1.289 . S
O312 C311 1.235 . S
C313 C315 1.400 . S
C313 N316 1.351 . S
C313 C318 1.501 . S
C314 C315 1.387 . S
C314 N317 1.341 . S
C315 C313 1.400 . S
C315 C314 1.387 . S
N316 Co307 2.022 . S
N316 C313 1.351 . S
N316 N317 1.365 . S
N317 C314 1.341 . S
N317 N316 1.365 . S
N317 H337 0.862 . S
C318 C313 1.501 . S
C318 H319 0.961 . S
C318 H320 0.961 . S
C318 H321 0.960 . S
H319 C318 0.961 . S
H320 C318 0.961 . S
H321 C318 0.960 . S
C322 N323 1.342 . S
C322 C326 1.401 . S
C322 C327 1.499 . S
N323 Co306 1.989 . S
N323 C322 1.342 . S
N323 N324 1.388 . S
N324 Co307 1.993 . S
N324 N323 1.388 . S
N324 C325 1.346 . S
C325 N324 1.346 . S
C325 C326 1.396 . S
C325 C335 1.510 . S
C326 C322 1.401 . S
C326 C325 1.396 . S
C327 C322 1.499 . S
C327 H328 0.959 . S
C327 H329 0.960 . S
C327 H330 0.961 . S
H328 C327 0.959 . S
H329 C327 0.960 . S
H330 C327 0.961 . S
O331 Co306 1.967 . S
O331 C339 1.258 . S
O332 Co307 1.941 . S
O332 C339 1.266 . S
H333 C335 0.959 . S
H334 C335 0.961 . S
C335 C325 1.510 . S
C335 H333 0.959 . S
C335 H334 0.961 . S
C335 H336 0.960 . S
H336 C335 0.960 . S
H337 N317 0.862 . S
O338 Co306 1.920 . S
O338 C311 1.289 . S
C339 O331 1.258 . S
C339 O332 1.266 . S
Co340 O343 1.970 . S
Co340 N357 1.989 . S
Co340 O365 1.967 . S
Co340 O372 1.920 . S
Co341 O344 1.966 . S
Co341 N350 2.022 . S
Co341 N358 1.993 . S
Co341 O366 1.941 . S
C342 O343 1.258 . S
C342 O344 1.263 . S
O343 Co340 1.970 . S
O343 C342 1.258 . S
O344 Co341 1.966 . S
O344 C342 1.263 . S
C345 O346 1.235 . S
C345 O372 1.289 . S
O346 C345 1.235 . S
C347 C349 1.400 . S
C347 N350 1.351 . S
C347 C352 1.501 . S
C348 C349 1.387 . S
C348 N351 1.341 . S
C349 C347 1.400 . S
C349 C348 1.387 . S
N350 Co341 2.022 . S
N350 C347 1.351 . S
N350 N351 1.365 . S
N351 C348 1.341 . S
N351 N350 1.365 . S
N351 H371 0.862 . S
C352 C347 1.501 . S
C352 H353 0.961 . S
C352 H354 0.961 . S
C352 H355 0.960 . S
H353 C352 0.961 . S
H354 C352 0.961 . S
H355 C352 0.960 . S
C356 N357 1.342 . S
C356 C360 1.401 . S
C356 C361 1.499 . S
N357 Co340 1.989 . S
N357 C356 1.342 . S
N357 N358 1.388 . S
N358 Co341 1.993 . S
N358 N357 1.388 . S
N358 C359 1.346 . S
C359 N358 1.346 . S
C359 C360 1.396 . S
C359 C369 1.510 . S
C360 C356 1.401 . S
C360 C359 1.396 . S
C361 C356 1.499 . S
C361 H362 0.959 . S
C361 H363 0.960 . S
C361 H364 0.961 . S
H362 C361 0.959 . S
H363 C361 0.960 . S
H364 C361 0.961 . S
O365 Co340 1.967 . S
O365 C373 1.258 . S
O366 Co341 1.941 . S
O366 C373 1.266 . S
H367 C369 0.959 . S
H368 C369 0.961 . S
C369 C359 1.510 . S
C369 H367 0.959 . S
C369 H368 0.961 . S
C369 H370 0.960 . S
H370 C369 0.960 . S
H371 N351 0.862 . S
O372 Co340 1.920 . S
O372 C345 1.289 . S
C373 O365 1.258 . S
C373 O366 1.266 . S
Co374 O377 1.970 . S
Co374 N391 1.989 . S
Co374 O399 1.967 . S
Co374 O406 1.920 . S
Co375 O378 1.966 . S
Co375 N384 2.022 . S
Co375 N392 1.993 . S
Co375 O400 1.941 . S
C376 O377 1.258 . S
C376 O378 1.263 . S
O377 Co374 1.970 . S
O377 C376 1.258 . S
O378 Co375 1.966 . S
O378 C376 1.263 . S
C379 O380 1.235 . S
C379 O406 1.289 . S
O380 C379 1.235 . S
C381 C383 1.400 . S
C381 N384 1.351 . S
C381 C386 1.501 . S
C382 C383 1.387 . S
C382 N385 1.341 . S
C383 C381 1.400 . S
C383 C382 1.387 . S
N384 Co375 2.022 . S
N384 C381 1.351 . S
N384 N385 1.365 . S
N385 C382 1.341 . S
N385 N384 1.365 . S
N385 H405 0.862 . S
C386 C381 1.501 . S
C386 H387 0.961 . S
C386 H388 0.961 . S
C386 H389 0.960 . S
H387 C386 0.961 . S
H388 C386 0.961 . S
H389 C386 0.960 . S
C390 N391 1.342 . S
C390 C394 1.401 . S
C390 C395 1.499 . S
N391 Co374 1.989 . S
N391 C390 1.342 . S
N391 N392 1.388 . S
N392 Co375 1.993 . S
N392 N391 1.388 . S
N392 C393 1.346 . S
C393 N392 1.346 . S
C393 C394 1.396 . S
C393 C403 1.510 . S
C394 C390 1.401 . S
C394 C393 1.396 . S
C395 C390 1.499 . S
C395 H396 0.959 . S
C395 H397 0.960 . S
C395 H398 0.961 . S
H396 C395 0.959 . S
H397 C395 0.960 . S
H398 C395 0.961 . S
O399 Co374 1.967 . S
O399 C407 1.258 . S
O400 Co375 1.941 . S
O400 C407 1.266 . S
H401 C403 0.959 . S
H402 C403 0.961 . S
C403 C393 1.510 . S
C403 H401 0.959 . S
C403 H402 0.961 . S
C403 H404 0.960 . S
H404 C403 0.960 . S
H405 N385 0.862 . S
O406 Co374 1.920 . S
O406 C379 1.289 . S
C407 O399 1.258 . S
C407 O400 1.266 . S
Co408 O411 1.970 . S
Co408 N425 1.989 . S
Co408 O433 1.967 . S
Co408 O440 1.920 . S
Co409 O412 1.966 . S
Co409 N418 2.022 . S
Co409 N426 1.993 . S
Co409 O434 1.941 . S
C410 O411 1.258 . S
C410 O412 1.263 . S
O411 Co408 1.970 . S
O411 C410 1.258 . S
O412 Co409 1.966 . S
O412 C410 1.263 . S
C413 O414 1.235 . S
C413 O440 1.289 . S
O414 C413 1.235 . S
C415 C417 1.400 . S
C415 N418 1.351 . S
C415 C420 1.501 . S
C416 C417 1.387 . S
C416 N419 1.341 . S
C417 C415 1.400 . S
C417 C416 1.387 . S
N418 Co409 2.022 . S
N418 C415 1.351 . S
N418 N419 1.365 . S
N419 C416 1.341 . S
N419 N418 1.365 . S
N419 H439 0.862 . S
C420 C415 1.501 . S
C420 H421 0.961 . S
C420 H422 0.961 . S
C420 H423 0.960 . S
H421 C420 0.961 . S
H422 C420 0.961 . S
H423 C420 0.960 . S
C424 N425 1.342 . S
C424 C428 1.401 . S
C424 C429 1.499 . S
N425 Co408 1.989 . S
N425 C424 1.342 . S
N425 N426 1.388 . S
N426 Co409 1.993 . S
N426 N425 1.388 . S
N426 C427 1.346 . S
C427 N426 1.346 . S
C427 C428 1.396 . S
C427 C437 1.510 . S
C428 C424 1.401 . S
C428 C427 1.396 . S
C429 C424 1.499 . S
C429 H430 0.959 . S
C429 H431 0.960 . S
C429 H432 0.961 . S
H430 C429 0.959 . S
H431 C429 0.960 . S
H432 C429 0.961 . S
O433 Co408 1.967 . S
O433 C441 1.258 . S
O434 Co409 1.941 . S
O434 C441 1.266 . S
H435 C437 0.959 . S
H436 C437 0.961 . S
C437 C427 1.510 . S
C437 H435 0.959 . S
C437 H436 0.961 . S
C437 H438 0.960 . S
H438 C437 0.960 . S
H439 N419 0.862 . S
O440 Co408 1.920 . S
O440 C413 1.289 . S
C441 O433 1.258 . S
C441 O434 1.266 . S
Co442 O445 1.970 . S
Co442 N459 1.989 . S
Co442 O467 1.967 . S
Co442 O474 1.920 . S
Co443 O446 1.966 . S
Co443 N452 2.022 . S
Co443 N460 1.993 . S
Co443 O468 1.941 . S
C444 O445 1.258 . S
C444 O446 1.263 . S
O445 Co442 1.970 . S
O445 C444 1.258 . S
O446 Co443 1.966 . S
O446 C444 1.263 . S
C447 O448 1.235 . S
C447 O474 1.289 . S
O448 C447 1.235 . S
C449 C451 1.400 . S
C449 N452 1.351 . S
C449 C454 1.501 . S
C450 C451 1.387 . S
C450 N453 1.341 . S
C451 C449 1.400 . S
C451 C450 1.387 . S
N452 Co443 2.022 . S
N452 C449 1.351 . S
N452 N453 1.365 . S
N453 C450 1.341 . S
N453 N452 1.365 . S
N453 H473 0.862 . S
C454 C449 1.501 . S
C454 H455 0.961 . S
C454 H456 0.961 . S
C454 H457 0.960 . S
H455 C454 0.961 . S
H456 C454 0.961 . S
H457 C454 0.960 . S
C458 N459 1.342 . S
C458 C462 1.401 . S
C458 C463 1.499 . S
N459 Co442 1.989 . S
N459 C458 1.342 . S
N459 N460 1.388 . S
N460 Co443 1.993 . S
N460 N459 1.388 . S
N460 C461 1.346 . S
C461 N460 1.346 . S
C461 C462 1.396 . S
C461 C471 1.510 . S
C462 C458 1.401 . S
C462 C461 1.396 . S
C463 C458 1.499 . S
C463 H464 0.959 . S
C463 H465 0.960 . S
C463 H466 0.961 . S
H464 C463 0.959 . S
H465 C463 0.960 . S
H466 C463 0.961 . S
O467 Co442 1.967 . S
O467 C475 1.258 . S
O468 Co443 1.941 . S
O468 C475 1.266 . S
H469 C471 0.959 . S
H470 C471 0.961 . S
C471 C461 1.510 . S
C471 H469 0.959 . S
C471 H470 0.961 . S
C471 H472 0.960 . S
H472 C471 0.960 . S
H473 N453 0.862 . S
O474 Co442 1.920 . S
O474 C447 1.289 . S
C475 O467 1.258 . S
C475 O468 1.266 . S
Co476 O479 1.970 . S
Co476 N493 1.989 . S
Co476 O501 1.967 . S
Co476 O508 1.920 . S
Co477 O480 1.966 . S
Co477 N486 2.022 . S
Co477 N494 1.993 . S
Co477 O502 1.941 . S
C478 O479 1.258 . S
C478 O480 1.263 . S
O479 Co476 1.970 . S
O479 C478 1.258 . S
O480 Co477 1.966 . S
O480 C478 1.263 . S
C481 O482 1.235 . S
C481 O508 1.289 . S
O482 C481 1.235 . S
C483 C485 1.400 . S
C483 N486 1.351 . S
C483 C488 1.501 . S
C484 C485 1.387 . S
C484 N487 1.341 . S
C485 C483 1.400 . S
C485 C484 1.387 . S
N486 Co477 2.022 . S
N486 C483 1.351 . S
N486 N487 1.365 . S
N487 C484 1.341 . S
N487 N486 1.365 . S
N487 H507 0.862 . S
C488 C483 1.501 . S
C488 H489 0.961 . S
C488 H490 0.961 . S
C488 H491 0.960 . S
H489 C488 0.961 . S
H490 C488 0.961 . S
H491 C488 0.960 . S
C492 N493 1.342 . S
C492 C496 1.401 . S
C492 C497 1.499 . S
N493 Co476 1.989 . S
N493 C492 1.342 . S
N493 N494 1.388 . S
N494 Co477 1.993 . S
N494 N493 1.388 . S
N494 C495 1.346 . S
C495 N494 1.346 . S
C495 C496 1.396 . S
C495 C505 1.510 . S
C496 C492 1.401 . S
C496 C495 1.396 . S
C497 C492 1.499 . S
C497 H498 0.959 . S
C497 H499 0.960 . S
C497 H500 0.961 . S
H498 C497 0.959 . S
H499 C497 0.960 . S
H500 C497 0.961 . S
O501 Co476 1.967 . S
O501 C509 1.258 . S
O502 Co477 1.941 . S
O502 C509 1.266 . S
H503 C505 0.959 . S
H504 C505 0.961 . S
C505 C495 1.510 . S
C505 H503 0.959 . S
C505 H504 0.961 . S
C505 H506 0.960 . S
H506 C505 0.960 . S
H507 N487 0.862 . S
O508 Co476 1.920 . S
O508 C481 1.289 . S
C509 O501 1.258 . S
C509 O502 1.266 . S
Co510 O513 1.970 . S
Co510 N527 1.989 . S
Co510 O535 1.967 . S
Co510 O542 1.920 . S
Co511 O514 1.966 . S
Co511 N520 2.022 . S
Co511 N528 1.993 . S
Co511 O536 1.941 . S
C512 O513 1.258 . S
C512 O514 1.263 . S
O513 Co510 1.970 . S
O513 C512 1.258 . S
O514 Co511 1.966 . S
O514 C512 1.263 . S
C515 O516 1.235 . S
C515 O542 1.289 . S
O516 C515 1.235 . S
C517 C519 1.400 . S
C517 N520 1.351 . S
C517 C522 1.501 . S
C518 C519 1.387 . S
C518 N521 1.341 . S
C519 C517 1.400 . S
C519 C518 1.387 . S
N520 Co511 2.022 . S
N520 C517 1.351 . S
N520 N521 1.365 . S
N521 C518 1.341 . S
N521 N520 1.365 . S
N521 H541 0.862 . S
C522 C517 1.501 . S
C522 H523 0.961 . S
C522 H524 0.961 . S
C522 H525 0.960 . S
H523 C522 0.961 . S
H524 C522 0.961 . S
H525 C522 0.960 . S
C526 N527 1.342 . S
C526 C530 1.401 . S
C526 C531 1.499 . S
N527 Co510 1.989 . S
N527 C526 1.342 . S
N527 N528 1.388 . S
N528 Co511 1.993 . S
N528 N527 1.388 . S
N528 C529 1.346 . S
C529 N528 1.346 . S
C529 C530 1.396 . S
C529 C539 1.510 . S
C530 C526 1.401 . S
C530 C529 1.396 . S
C531 C526 1.499 . S
C531 H532 0.959 . S
C531 H533 0.960 . S
C531 H534 0.961 . S
H532 C531 0.959 . S
H533 C531 0.960 . S
H534 C531 0.961 . S
O535 Co510 1.967 . S
O535 C543 1.258 . S
O536 Co511 1.941 . S
O536 C543 1.266 . S
H537 C539 0.959 . S
H538 C539 0.961 . S
C539 C529 1.510 . S
C539 H537 0.959 . S
C539 H538 0.961 . S
C539 H540 0.960 . S
H540 C539 0.960 . S
H541 N521 0.862 . S
O542 Co510 1.920 . S
O542 C515 1.289 . S
C543 O535 1.258 . S
C543 O536 1.266 . S
Co544 O547 1.970 . S
Co544 N561 1.989 . S
Co544 O569 1.967 . S
Co544 O576 1.920 . S
Co545 O548 1.966 . S
Co545 N554 2.022 1_545 S
Co545 N562 1.993 . S
Co545 O570 1.941 . S
C546 O547 1.258 . S
C546 O548 1.263 . S
O547 Co544 1.970 . S
O547 C546 1.258 . S
O548 Co545 1.966 . S
O548 C546 1.263 . S
C549 O550 1.235 . S
C549 O576 1.289 . S
O550 C549 1.235 . S
C551 C553 1.400 . S
C551 N554 1.351 . S
C551 C556 1.501 . S
C552 C553 1.387 . S
C552 N555 1.341 . S
C553 C551 1.400 . S
C553 C552 1.387 . S
N554 Co545 2.022 1_565 S
N554 C551 1.351 . S
N554 N555 1.365 . S
N555 C552 1.341 . S
N555 N554 1.365 . S
N555 H575 0.862 . S
C556 C551 1.501 . S
C556 H557 0.961 1_565 S
C556 H558 0.961 . S
C556 H559 0.960 . S
H557 C556 0.961 1_545 S
H558 C556 0.961 . S
H559 C556 0.960 . S
C560 N561 1.342 . S
C560 C564 1.401 . S
C560 C565 1.499 . S
N561 Co544 1.989 . S
N561 C560 1.342 . S
N561 N562 1.388 . S
N562 Co545 1.993 . S
N562 N561 1.388 . S
N562 C563 1.346 . S
C563 N562 1.346 . S
C563 C564 1.396 . S
C563 C573 1.510 . S
C564 C560 1.401 . S
C564 C563 1.396 . S
C565 C560 1.499 . S
C565 H566 0.959 . S
C565 H567 0.960 . S
C565 H568 0.961 . S
H566 C565 0.959 . S
H567 C565 0.960 . S
H568 C565 0.961 . S
O569 Co544 1.967 . S
O569 C577 1.258 . S
O570 Co545 1.941 . S
O570 C577 1.266 . S
H571 C573 0.959 . S
H572 C573 0.961 1_565 S
C573 C563 1.510 . S
C573 H571 0.959 . S
C573 H572 0.961 1_545 S
C573 H574 0.960 1_545 S
H574 C573 0.960 1_565 S
H575 N555 0.862 . S
O576 Co544 1.920 . S
O576 C549 1.289 . S
C577 O569 1.258 . S
C577 O570 1.266 . S
Co578 O581 1.970 . S
Co578 N595 1.989 . S
Co578 O603 1.967 . S
Co578 O610 1.920 1_545 S
Co579 O582 1.966 . S
Co579 N588 2.022 . S
Co579 N596 1.993 . S
Co579 O604 1.941 . S
C580 O581 1.258 . S
C580 O582 1.263 . S
O581 Co578 1.970 . S
O581 C580 1.258 . S
O582 Co579 1.966 . S
O582 C580 1.263 . S
C583 O584 1.235 . S
C583 O610 1.289 . S
O584 C583 1.235 . S
C585 C587 1.400 . S
C585 N588 1.351 . S
C585 C590 1.501 . S
C586 C587 1.387 . S
C586 N589 1.341 . S
C587 C585 1.400 . S
C587 C586 1.387 . S
N588 Co579 2.022 . S
N588 C585 1.351 . S
N588 N589 1.365 . S
N589 C586 1.341 . S
N589 N588 1.365 . S
N589 H609 0.862 . S
C590 C585 1.501 . S
C590 H591 0.961 . S
C590 H592 0.961 . S
C590 H593 0.960 . S
H591 C590 0.961 . S
H592 C590 0.961 . S
H593 C590 0.960 . S
C594 N595 1.342 . S
C594 C598 1.401 . S
C594 C599 1.499 . S
N595 Co578 1.989 . S
N595 C594 1.342 . S
N595 N596 1.388 . S
N596 Co579 1.993 . S
N596 N595 1.388 . S
N596 C597 1.346 . S
C597 N596 1.346 . S
C597 C598 1.396 . S
C597 C607 1.510 . S
C598 C594 1.401 . S
C598 C597 1.396 . S
C599 C594 1.499 . S
C599 H600 0.959 1_545 S
C599 H601 0.960 . S
C599 H602 0.961 . S
H600 C599 0.959 1_565 S
H601 C599 0.960 . S
H602 C599 0.961 . S
O603 Co578 1.967 . S
O603 C611 1.258 . S
O604 Co579 1.941 . S
O604 C611 1.266 . S
H605 C607 0.959 . S
H606 C607 0.961 . S
C607 C597 1.510 . S
C607 H605 0.959 . S
C607 H606 0.961 . S
C607 H608 0.960 . S
H608 C607 0.960 . S
H609 N589 0.862 . S
O610 Co578 1.920 1_565 S
O610 C583 1.289 . S
C611 O603 1.258 . S
C611 O604 1.266 . S
Co612 O615 1.970 . S
Co612 N629 1.989 . S
Co612 O637 1.967 . S
Co612 O644 1.920 1_545 S
Co613 O616 1.966 . S
Co613 N622 2.022 . S
Co613 N630 1.993 . S
Co613 O638 1.941 . S
C614 O615 1.258 . S
C614 O616 1.263 . S
O615 Co612 1.970 . S
O615 C614 1.258 . S
O616 Co613 1.966 . S
O616 C614 1.263 . S
C617 O618 1.235 . S
C617 O644 1.289 . S
O618 C617 1.235 . S
C619 C621 1.400 . S
C619 N622 1.351 . S
C619 C624 1.501 . S
C620 C621 1.387 . S
C620 N623 1.341 . S
C621 C619 1.400 . S
C621 C620 1.387 . S
N622 Co613 2.022 . S
N622 C619 1.351 . S
N622 N623 1.365 . S
N623 C620 1.341 . S
N623 N622 1.365 . S
N623 H643 0.862 . S
C624 C619 1.501 . S
C624 H625 0.961 . S
C624 H626 0.961 . S
C624 H627 0.960 . S
H625 C624 0.961 . S
H626 C624 0.961 . S
H627 C624 0.960 . S
C628 N629 1.342 . S
C628 C632 1.401 . S
C628 C633 1.499 . S
N629 Co612 1.989 . S
N629 C628 1.342 . S
N629 N630 1.388 . S
N630 Co613 1.993 . S
N630 N629 1.388 . S
N630 C631 1.346 . S
C631 N630 1.346 . S
C631 C632 1.396 . S
C631 C641 1.510 . S
C632 C628 1.401 . S
C632 C631 1.396 . S
C633 C628 1.499 . S
C633 H634 0.959 1_545 S
C633 H635 0.960 . S
C633 H636 0.961 . S
H634 C633 0.959 1_565 S
H635 C633 0.960 . S
H636 C633 0.961 . S
O637 Co612 1.967 . S
O637 C645 1.258 . S
O638 Co613 1.941 . S
O638 C645 1.266 . S
H639 C641 0.959 . S
H640 C641 0.961 . S
C641 C631 1.510 . S
C641 H639 0.959 . S
C641 H640 0.961 . S
C641 H642 0.960 . S
H642 C641 0.960 . S
H643 N623 0.862 . S
O644 Co612 1.920 1_565 S
O644 C617 1.289 . S
C645 O637 1.258 . S
C645 O638 1.266 . S
Co646 O649 1.970 . S
Co646 N663 1.989 . S
Co646 O671 1.967 . S
Co646 O678 1.920 . S
Co647 O650 1.966 . S
Co647 N656 2.022 1_545 S
Co647 N664 1.993 . S
Co647 O672 1.941 . S
C648 O649 1.258 . S
C648 O650 1.263 . S
O649 Co646 1.970 . S
O649 C648 1.258 . S
O650 Co647 1.966 . S
O650 C648 1.263 . S
C651 O652 1.235 . S
C651 O678 1.289 . S
O652 C651 1.235 . S
C653 C655 1.400 . S
C653 N656 1.351 . S
C653 C658 1.501 . S
C654 C655 1.387 . S
C654 N657 1.341 . S
C655 C653 1.400 . S
C655 C654 1.387 . S
N656 Co647 2.022 1_565 S
N656 C653 1.351 . S
N656 N657 1.365 . S
N657 C654 1.341 . S
N657 N656 1.365 . S
N657 H677 0.862 . S
C658 C653 1.501 . S
C658 H659 0.961 1_565 S
C658 H660 0.961 . S
C658 H661 0.960 . S
H659 C658 0.961 1_545 S
H660 C658 0.961 . S
H661 C658 0.960 . S
C662 N663 1.342 . S
C662 C666 1.401 . S
C662 C667 1.499 . S
N663 Co646 1.989 . S
N663 C662 1.342 . S
N663 N664 1.388 . S
N664 Co647 1.993 . S
N664 N663 1.388 . S
N664 C665 1.346 . S
C665 N664 1.346 . S
C665 C666 1.396 . S
C665 C675 1.510 . S
C666 C662 1.401 . S
C666 C665 1.396 . S
C667 C662 1.499 . S
C667 H668 0.959 . S
C667 H669 0.960 . S
C667 H670 0.961 . S
H668 C667 0.959 . S
H669 C667 0.960 . S
H670 C667 0.961 . S
O671 Co646 1.967 . S
O671 C679 1.258 . S
O672 Co647 1.941 . S
O672 C679 1.266 . S
H673 C675 0.959 . S
H674 C675 0.961 1_565 S
C675 C665 1.510 . S
C675 H673 0.959 . S
C675 H674 0.961 1_545 S
C675 H676 0.960 1_545 S
H676 C675 0.960 1_565 S
H677 N657 0.862 . S
O678 Co646 1.920 . S
O678 C651 1.289 . S
C679 O671 1.258 . S
C679 O672 1.266 . S
Co680 O683 1.970 . S
Co680 N697 1.989 . S
Co680 O705 1.967 . S
Co680 O712 1.920 . S
Co681 O684 1.966 . S
Co681 N690 2.022 1_565 S
Co681 N698 1.993 . S
Co681 O706 1.941 . S
C682 O683 1.258 . S
C682 O684 1.263 . S
O683 Co680 1.970 . S
O683 C682 1.258 . S
O684 Co681 1.966 . S
O684 C682 1.263 . S
C685 O686 1.235 . S
C685 O712 1.289 . S
O686 C685 1.235 . S
C687 C689 1.400 . S
C687 N690 1.351 . S
C687 C692 1.501 . S
C688 C689 1.387 . S
C688 N691 1.341 . S
C689 C687 1.400 . S
C689 C688 1.387 . S
N690 Co681 2.022 1_545 S
N690 C687 1.351 . S
N690 N691 1.365 . S
N691 C688 1.341 . S
N691 N690 1.365 . S
N691 H711 0.862 . S
C692 C687 1.501 . S
C692 H693 0.961 1_545 S
C692 H694 0.961 . S
C692 H695 0.960 . S
H693 C692 0.961 1_565 S
H694 C692 0.961 . S
H695 C692 0.960 . S
C696 N697 1.342 . S
C696 C700 1.401 . S
C696 C701 1.499 . S
N697 Co680 1.989 . S
N697 C696 1.342 . S
N697 N698 1.388 . S
N698 Co681 1.993 . S
N698 N697 1.388 . S
N698 C699 1.346 . S
C699 N698 1.346 . S
C699 C700 1.396 . S
C699 C709 1.510 . S
C700 C696 1.401 . S
C700 C699 1.396 . S
C701 C696 1.499 . S
C701 H702 0.959 . S
C701 H703 0.960 . S
C701 H704 0.961 . S
H702 C701 0.959 . S
H703 C701 0.960 . S
H704 C701 0.961 . S
O705 Co680 1.967 . S
O705 C713 1.258 . S
O706 Co681 1.941 . S
O706 C713 1.266 . S
H707 C709 0.959 . S
H708 C709 0.961 1_545 S
C709 C699 1.510 . S
C709 H707 0.959 . S
C709 H708 0.961 1_565 S
C709 H710 0.960 1_565 S
H710 C709 0.960 1_545 S
H711 N691 0.862 . S
O712 Co680 1.920 . S
O712 C685 1.289 . S
C713 O705 1.258 . S
C713 O706 1.266 . S
Co714 O717 1.970 . S
Co714 N731 1.989 . S
Co714 O739 1.967 . S
Co714 O746 1.920 1_565 S
Co715 O718 1.966 . S
Co715 N724 2.022 . S
Co715 N732 1.993 . S
Co715 O740 1.941 . S
C716 O717 1.258 . S
C716 O718 1.263 . S
O717 Co714 1.970 . S
O717 C716 1.258 . S
O718 Co715 1.966 . S
O718 C716 1.263 . S
C719 O720 1.235 . S
C719 O746 1.289 . S
O720 C719 1.235 . S
C721 C723 1.400 . S
C721 N724 1.351 . S
C721 C726 1.501 . S
C722 C723 1.387 . S
C722 N725 1.341 . S
C723 C721 1.400 . S
C723 C722 1.387 . S
N724 Co715 2.022 . S
N724 C721 1.351 . S
N724 N725 1.365 . S
N725 C722 1.341 . S
N725 N724 1.365 . S
N725 H745 0.862 . S
C726 C721 1.501 . S
C726 H727 0.961 . S
C726 H728 0.961 . S
C726 H729 0.960 . S
H727 C726 0.961 . S
H728 C726 0.961 . S
H729 C726 0.960 . S
C730 N731 1.342 . S
C730 C734 1.401 . S
C730 C735 1.499 . S
N731 Co714 1.989 . S
N731 C730 1.342 . S
N731 N732 1.388 . S
N732 Co715 1.993 . S
N732 N731 1.388 . S
N732 C733 1.346 . S
C733 N732 1.346 . S
C733 C734 1.396 . S
C733 C743 1.510 . S
C734 C730 1.401 . S
C734 C733 1.396 . S
C735 C730 1.499 . S
C735 H736 0.959 1_565 S
C735 H737 0.960 . S
C735 H738 0.961 . S
H736 C735 0.959 1_545 S
H737 C735 0.960 . S
H738 C735 0.961 . S
O739 Co714 1.967 . S
O739 C747 1.258 . S
O740 Co715 1.941 . S
O740 C747 1.266 . S
H741 C743 0.959 . S
H742 C743 0.961 . S
C743 C733 1.510 . S
C743 H741 0.959 . S
C743 H742 0.961 . S
C743 H744 0.960 . S
H744 C743 0.960 . S
H745 N725 0.862 . S
O746 Co714 1.920 1_545 S
O746 C719 1.289 . S
C747 O739 1.258 . S
C747 O740 1.266 . S
Co748 O751 1.970 . S
Co748 N765 1.989 . S
Co748 O773 1.967 . S
Co748 O780 1.920 1_565 S
Co749 O752 1.966 . S
Co749 N758 2.022 . S
Co749 N766 1.993 . S
Co749 O774 1.941 . S
C750 O751 1.258 . S
C750 O752 1.263 . S
O751 Co748 1.970 . S
O751 C750 1.258 . S
O752 Co749 1.966 . S
O752 C750 1.263 . S
C753 O754 1.235 . S
C753 O780 1.289 . S
O754 C753 1.235 . S
C755 C757 1.400 . S
C755 N758 1.351 . S
C755 C760 1.501 . S
C756 C757 1.387 . S
C756 N759 1.341 . S
C757 C755 1.400 . S
C757 C756 1.387 . S
N758 Co749 2.022 . S
N758 C755 1.351 . S
N758 N759 1.365 . S
N759 C756 1.341 . S
N759 N758 1.365 . S
N759 H779 0.862 . S
C760 C755 1.501 . S
C760 H761 0.961 . S
C760 H762 0.961 . S
C760 H763 0.960 . S
H761 C760 0.961 . S
H762 C760 0.961 . S
H763 C760 0.960 . S
C764 N765 1.342 . S
C764 C768 1.401 . S
C764 C769 1.499 . S
N765 Co748 1.989 . S
N765 C764 1.342 . S
N765 N766 1.388 . S
N766 Co749 1.993 . S
N766 N765 1.388 . S
N766 C767 1.346 . S
C767 N766 1.346 . S
C767 C768 1.396 . S
C767 C777 1.510 . S
C768 C764 1.401 . S
C768 C767 1.396 . S
C769 C764 1.499 . S
C769 H770 0.959 1_565 S
C769 H771 0.960 . S
C769 H772 0.961 . S
H770 C769 0.959 1_545 S
H771 C769 0.960 . S
H772 C769 0.961 . S
O773 Co748 1.967 . S
O773 C781 1.258 . S
O774 Co749 1.941 . S
O774 C781 1.266 . S
H775 C777 0.959 . S
H776 C777 0.961 . S
C777 C767 1.510 . S
C777 H775 0.959 . S
C777 H776 0.961 . S
C777 H778 0.960 . S
H778 C777 0.960 . S
H779 N759 0.862 . S
O780 Co748 1.920 1_545 S
O780 C753 1.289 . S
C781 O773 1.258 . S
C781 O774 1.266 . S
Co782 O785 1.970 . S
Co782 N799 1.989 . S
Co782 O807 1.967 . S
Co782 O814 1.920 . S
Co783 O786 1.966 . S
Co783 N792 2.022 1_565 S
Co783 N800 1.993 . S
Co783 O808 1.941 . S
C784 O785 1.258 . S
C784 O786 1.263 . S
O785 Co782 1.970 . S
O785 C784 1.258 . S
O786 Co783 1.966 . S
O786 C784 1.263 . S
C787 O788 1.235 . S
C787 O814 1.289 . S
O788 C787 1.235 . S
C789 C791 1.400 . S
C789 N792 1.351 . S
C789 C794 1.501 . S
C790 C791 1.387 . S
C790 N793 1.341 . S
C791 C789 1.400 . S
C791 C790 1.387 . S
N792 Co783 2.022 1_545 S
N792 C789 1.351 . S
N792 N793 1.365 . S
N793 C790 1.341 . S
N793 N792 1.365 . S
N793 H813 0.862 . S
C794 C789 1.501 . S
C794 H795 0.961 1_545 S
C794 H796 0.961 . S
C794 H797 0.960 . S
H795 C794 0.961 1_565 S
H796 C794 0.961 . S
H797 C794 0.960 . S
C798 N799 1.342 . S
C798 C802 1.401 . S
C798 C803 1.499 . S
N799 Co782 1.989 . S
N799 C798 1.342 . S
N799 N800 1.388 . S
N800 Co783 1.993 . S
N800 N799 1.388 . S
N800 C801 1.346 . S
C801 N800 1.346 . S
C801 C802 1.396 . S
C801 C811 1.510 . S
C802 C798 1.401 . S
C802 C801 1.396 . S
C803 C798 1.499 . S
C803 H804 0.959 . S
C803 H805 0.960 . S
C803 H806 0.961 . S
H804 C803 0.959 . S
H805 C803 0.960 . S
H806 C803 0.961 . S
O807 Co782 1.967 . S
O807 C815 1.258 . S
O808 Co783 1.941 . S
O808 C815 1.266 . S
H809 C811 0.959 . S
H810 C811 0.961 1_545 S
C811 C801 1.510 . S
C811 H809 0.959 . S
C811 H810 0.961 1_565 S
C811 H812 0.960 1_565 S
H812 C811 0.960 1_545 S
H813 N793 0.862 . S
O814 Co782 1.920 . S
O814 C787 1.289 . S
C815 O807 1.258 . S
C815 O808 1.266 . S
Co816 O819 1.970 . S
Co816 N833 1.989 . S
Co816 O841 1.967 . S
Co816 O848 1.920 . S
Co817 O820 1.966 . S
Co817 N826 2.022 . S
Co817 N834 1.993 . S
Co817 O842 1.941 . S
C818 O819 1.258 . S
C818 O820 1.263 . S
O819 Co816 1.970 . S
O819 C818 1.258 . S
O820 Co817 1.966 . S
O820 C818 1.263 . S
C821 O822 1.235 . S
C821 O848 1.289 . S
O822 C821 1.235 . S
C823 C825 1.400 . S
C823 N826 1.351 . S
C823 C828 1.501 . S
C824 C825 1.387 . S
C824 N827 1.341 . S
C825 C823 1.400 . S
C825 C824 1.387 . S
N826 Co817 2.022 . S
N826 C823 1.351 . S
N826 N827 1.365 . S
N827 C824 1.341 . S
N827 N826 1.365 . S
N827 H847 0.862 . S
C828 C823 1.501 . S
C828 H829 0.961 . S
C828 H830 0.961 . S
C828 H831 0.960 . S
H829 C828 0.961 . S
H830 C828 0.961 . S
H831 C828 0.960 . S
C832 N833 1.342 . S
C832 C836 1.401 . S
C832 C837 1.499 . S
N833 Co816 1.989 . S
N833 C832 1.342 . S
N833 N834 1.388 . S
N834 Co817 1.993 . S
N834 N833 1.388 . S
N834 C835 1.346 . S
C835 N834 1.346 . S
C835 C836 1.396 . S
C835 C845 1.510 . S
C836 C832 1.401 . S
C836 C835 1.396 . S
C837 C832 1.499 . S
C837 H838 0.959 . S
C837 H839 0.960 . S
C837 H840 0.961 . S
H838 C837 0.959 . S
H839 C837 0.960 . S
H840 C837 0.961 . S
O841 Co816 1.967 . S
O841 C849 1.258 . S
O842 Co817 1.941 . S
O842 C849 1.266 . S
H843 C845 0.959 . S
H844 C845 0.961 . S
C845 C835 1.510 . S
C845 H843 0.959 . S
C845 H844 0.961 . S
C845 H846 0.960 . S
H846 C845 0.960 . S
H847 N827 0.862 . S
O848 Co816 1.920 . S
O848 C821 1.289 . S
C849 O841 1.258 . S
C849 O842 1.266 . S
Co850 O853 1.970 . S
Co850 N867 1.989 . S
Co850 O875 1.967 . S
Co850 O882 1.920 . S
Co851 O854 1.966 . S
Co851 N860 2.022 . S
Co851 N868 1.993 . S
Co851 O876 1.941 . S
C852 O853 1.258 . S
C852 O854 1.263 . S
O853 Co850 1.970 . S
O853 C852 1.258 . S
O854 Co851 1.966 . S
O854 C852 1.263 . S
C855 O856 1.235 . S
C855 O882 1.289 . S
O856 C855 1.235 . S
C857 C859 1.400 . S
C857 N860 1.351 . S
C857 C862 1.501 . S
C858 C859 1.387 . S
C858 N861 1.341 . S
C859 C857 1.400 . S
C859 C858 1.387 . S
N860 Co851 2.022 . S
N860 C857 1.351 . S
N860 N861 1.365 . S
N861 C858 1.341 . S
N861 N860 1.365 . S
N861 H881 0.862 . S
C862 C857 1.501 . S
C862 H863 0.961 . S
C862 H864 0.961 . S
C862 H865 0.960 . S
H863 C862 0.961 . S
H864 C862 0.961 . S
H865 C862 0.960 . S
C866 N867 1.342 . S
C866 C870 1.401 . S
C866 C871 1.499 . S
N867 Co850 1.989 . S
N867 C866 1.342 . S
N867 N868 1.388 . S
N868 Co851 1.993 . S
N868 N867 1.388 . S
N868 C869 1.346 . S
C869 N868 1.346 . S
C869 C870 1.396 . S
C869 C879 1.510 . S
C870 C866 1.401 . S
C870 C869 1.396 . S
C871 C866 1.499 . S
C871 H872 0.959 . S
C871 H873 0.960 . S
C871 H874 0.961 . S
H872 C871 0.959 . S
H873 C871 0.960 . S
H874 C871 0.961 . S
O875 Co850 1.967 . S
O875 C883 1.258 . S
O876 Co851 1.941 . S
O876 C883 1.266 . S
H877 C879 0.959 . S
H878 C879 0.961 . S
C879 C869 1.510 . S
C879 H877 0.959 . S
C879 H878 0.961 . S
C879 H880 0.960 . S
H880 C879 0.960 . S
H881 N861 0.862 . S
O882 Co850 1.920 . S
O882 C855 1.289 . S
C883 O875 1.258 . S
C883 O876 1.266 . S
Co884 O887 1.970 . S
Co884 N901 1.989 . S
Co884 O909 1.967 . S
Co884 O916 1.920 . S
Co885 O888 1.966 . S
Co885 N894 2.022 . S
Co885 N902 1.993 . S
Co885 O910 1.941 . S
C886 O887 1.258 . S
C886 O888 1.263 . S
O887 Co884 1.970 . S
O887 C886 1.258 . S
O888 Co885 1.966 . S
O888 C886 1.263 . S
C889 O890 1.235 . S
C889 O916 1.289 . S
O890 C889 1.235 . S
C891 C893 1.400 . S
C891 N894 1.351 . S
C891 C896 1.501 . S
C892 C893 1.387 . S
C892 N895 1.341 . S
C893 C891 1.400 . S
C893 C892 1.387 . S
N894 Co885 2.022 . S
N894 C891 1.351 . S
N894 N895 1.365 . S
N895 C892 1.341 . S
N895 N894 1.365 . S
N895 H915 0.862 . S
C896 C891 1.501 . S
C896 H897 0.961 . S
C896 H898 0.961 . S
C896 H899 0.960 . S
H897 C896 0.961 . S
H898 C896 0.961 . S
H899 C896 0.960 . S
C900 N901 1.342 . S
C900 C904 1.401 . S
C900 C905 1.499 . S
N901 Co884 1.989 . S
N901 C900 1.342 . S
N901 N902 1.388 . S
N902 Co885 1.993 . S
N902 N901 1.388 . S
N902 C903 1.346 . S
C903 N902 1.346 . S
C903 C904 1.396 . S
C903 C913 1.510 . S
C904 C900 1.401 . S
C904 C903 1.396 . S
C905 C900 1.499 . S
C905 H906 0.959 . S
C905 H907 0.960 . S
C905 H908 0.961 . S
H906 C905 0.959 . S
H907 C905 0.960 . S
H908 C905 0.961 . S
O909 Co884 1.967 . S
O909 C917 1.258 . S
O910 Co885 1.941 . S
O910 C917 1.266 . S
H911 C913 0.959 . S
H912 C913 0.961 . S
C913 C903 1.510 . S
C913 H911 0.959 . S
C913 H912 0.961 . S
C913 H914 0.960 . S
H914 C913 0.960 . S
H915 N895 0.862 . S
O916 Co884 1.920 . S
O916 C889 1.289 . S
C917 O909 1.258 . S
C917 O910 1.266 . S
Co918 O921 1.970 . S
Co918 N935 1.989 . S
Co918 O943 1.967 . S
Co918 O950 1.920 . S
Co919 O922 1.966 . S
Co919 N928 2.022 . S
Co919 N936 1.993 . S
Co919 O944 1.941 . S
C920 O921 1.258 . S
C920 O922 1.263 . S
O921 Co918 1.970 . S
O921 C920 1.258 . S
O922 Co919 1.966 . S
O922 C920 1.263 . S
C923 O924 1.235 . S
C923 O950 1.289 . S
O924 C923 1.235 . S
C925 C927 1.400 . S
C925 N928 1.351 . S
C925 C930 1.501 . S
C926 C927 1.387 . S
C926 N929 1.341 . S
C927 C925 1.400 . S
C927 C926 1.387 . S
N928 Co919 2.022 . S
N928 C925 1.351 . S
N928 N929 1.365 . S
N929 C926 1.341 . S
N929 N928 1.365 . S
N929 H949 0.862 . S
C930 C925 1.501 . S
C930 H931 0.961 . S
C930 H932 0.961 . S
C930 H933 0.960 . S
H931 C930 0.961 . S
H932 C930 0.961 . S
H933 C930 0.960 . S
C934 N935 1.342 . S
C934 C938 1.401 . S
C934 C939 1.499 . S
N935 Co918 1.989 . S
N935 C934 1.342 . S
N935 N936 1.388 . S
N936 Co919 1.993 . S
N936 N935 1.388 . S
N936 C937 1.346 . S
C937 N936 1.346 . S
C937 C938 1.396 . S
C937 C947 1.510 . S
C938 C934 1.401 . S
C938 C937 1.396 . S
C939 C934 1.499 . S
C939 H940 0.959 . S
C939 H941 0.960 . S
C939 H942 0.961 . S
H940 C939 0.959 . S
H941 C939 0.960 . S
H942 C939 0.961 . S
O943 Co918 1.967 . S
O943 C951 1.258 . S
O944 Co919 1.941 . S
O944 C951 1.266 . S
H945 C947 0.959 . S
H946 C947 0.961 . S
C947 C937 1.510 . S
C947 H945 0.959 . S
C947 H946 0.961 . S
C947 H948 0.960 . S
H948 C947 0.960 . S
H949 N929 0.862 . S
O950 Co918 1.920 . S
O950 C923 1.289 . S
C951 O943 1.258 . S
C951 O944 1.266 . S
Co952 O955 1.970 . S
Co952 N969 1.989 . S
Co952 O977 1.967 . S
Co952 O984 1.920 . S
Co953 O956 1.966 . S
Co953 N962 2.022 . S
Co953 N970 1.993 . S
Co953 O978 1.941 . S
C954 O955 1.258 . S
C954 O956 1.263 . S
O955 Co952 1.970 . S
O955 C954 1.258 . S
O956 Co953 1.966 . S
O956 C954 1.263 . S
C957 O958 1.235 . S
C957 O984 1.289 . S
O958 C957 1.235 . S
C959 C961 1.400 . S
C959 N962 1.351 . S
C959 C964 1.501 . S
C960 C961 1.387 . S
C960 N963 1.341 . S
C961 C959 1.400 . S
C961 C960 1.387 . S
N962 Co953 2.022 . S
N962 C959 1.351 . S
N962 N963 1.365 . S
N963 C960 1.341 . S
N963 N962 1.365 . S
N963 H983 0.862 . S
C964 C959 1.501 . S
C964 H965 0.961 . S
C964 H966 0.961 . S
C964 H967 0.960 . S
H965 C964 0.961 . S
H966 C964 0.961 . S
H967 C964 0.960 . S
C968 N969 1.342 . S
C968 C972 1.401 . S
C968 C973 1.499 . S
N969 Co952 1.989 . S
N969 C968 1.342 . S
N969 N970 1.388 . S
N970 Co953 1.993 . S
N970 N969 1.388 . S
N970 C971 1.346 . S
C971 N970 1.346 . S
C971 C972 1.396 . S
C971 C981 1.510 . S
C972 C968 1.401 . S
C972 C971 1.396 . S
C973 C968 1.499 . S
C973 H974 0.959 . S
C973 H975 0.960 . S
C973 H976 0.961 . S
H974 C973 0.959 . S
H975 C973 0.960 . S
H976 C973 0.961 . S
O977 Co952 1.967 . S
O977 C985 1.258 . S
O978 Co953 1.941 . S
O978 C985 1.266 . S
H979 C981 0.959 . S
H980 C981 0.961 . S
C981 C971 1.510 . S
C981 H979 0.959 . S
C981 H980 0.961 . S
C981 H982 0.960 . S
H982 C981 0.960 . S
H983 N963 0.862 . S
O984 Co952 1.920 . S
O984 C957 1.289 . S
C985 O977 1.258 . S
C985 O978 1.266 . S
Co986 O989 1.970 . S
Co986 N1003 1.989 . S
Co986 O1011 1.967 . S
Co986 O1018 1.920 . S
Co987 O990 1.966 . S
Co987 N996 2.022 . S
Co987 N1004 1.993 . S
Co987 O1012 1.941 . S
C988 O989 1.258 . S
C988 O990 1.263 . S
O989 Co986 1.970 . S
O989 C988 1.258 . S
O990 Co987 1.966 . S
O990 C988 1.263 . S
C991 O992 1.235 . S
C991 O1018 1.289 . S
O992 C991 1.235 . S
C993 C995 1.400 . S
C993 N996 1.351 . S
C993 C998 1.501 . S
C994 C995 1.387 . S
C994 N997 1.341 . S
C995 C993 1.400 . S
C995 C994 1.387 . S
N996 Co987 2.022 . S
N996 C993 1.351 . S
N996 N997 1.365 . S
N997 C994 1.341 . S
N997 N996 1.365 . S
N997 H1017 0.862 . S
C998 C993 1.501 . S
C998 H999 0.961 . S
C998 H1000 0.961 . S
C998 H1001 0.960 . S
H999 C998 0.961 . S
H1000 C998 0.961 . S
H1001 C998 0.960 . S
C1002 N1003 1.342 . S
C1002 C1006 1.401 . S
C1002 C1007 1.499 . S
N1003 Co986 1.989 . S
N1003 C1002 1.342 . S
N1003 N1004 1.388 . S
N1004 Co987 1.993 . S
N1004 N1003 1.388 . S
N1004 C1005 1.346 . S
C1005 N1004 1.346 . S
C1005 C1006 1.396 . S
C1005 C1015 1.510 . S
C1006 C1002 1.401 . S
C1006 C1005 1.396 . S
C1007 C1002 1.499 . S
C1007 H1008 0.959 . S
C1007 H1009 0.960 . S
C1007 H1010 0.961 . S
H1008 C1007 0.959 . S
H1009 C1007 0.960 . S
H1010 C1007 0.961 . S
O1011 Co986 1.967 . S
O1011 C1019 1.258 . S
O1012 Co987 1.941 . S
O1012 C1019 1.266 . S
H1013 C1015 0.959 . S
H1014 C1015 0.961 . S
C1015 C1005 1.510 . S
C1015 H1013 0.959 . S
C1015 H1014 0.961 . S
C1015 H1016 0.960 . S
H1016 C1015 0.960 . S
H1017 N997 0.862 . S
O1018 Co986 1.920 . S
O1018 C991 1.289 . S
C1019 O1011 1.258 . S
C1019 O1012 1.266 . S
Co1020 O1023 1.970 . S
Co1020 N1037 1.989 . S
Co1020 O1045 1.967 . S
Co1020 O1052 1.920 . S
Co1021 O1024 1.966 . S
Co1021 N1030 2.022 . S
Co1021 N1038 1.993 . S
Co1021 O1046 1.941 . S
C1022 O1023 1.258 . S
C1022 O1024 1.263 . S
O1023 Co1020 1.970 . S
O1023 C1022 1.258 . S
O1024 Co1021 1.966 . S
O1024 C1022 1.263 . S
C1025 O1026 1.235 . S
C1025 O1052 1.289 . S
O1026 C1025 1.235 . S
C1027 C1029 1.400 . S
C1027 N1030 1.351 . S
C1027 C1032 1.501 . S
C1028 C1029 1.387 . S
C1028 N1031 1.341 . S
C1029 C1027 1.400 . S
C1029 C1028 1.387 . S
N1030 Co1021 2.022 . S
N1030 C1027 1.351 . S
N1030 N1031 1.365 . S
N1031 C1028 1.341 . S
N1031 N1030 1.365 . S
N1031 H1051 0.862 . S
C1032 C1027 1.501 . S
C1032 H1033 0.961 . S
C1032 H1034 0.961 . S
C1032 H1035 0.960 . S
H1033 C1032 0.961 . S
H1034 C1032 0.961 . S
H1035 C1032 0.960 . S
C1036 N1037 1.342 . S
C1036 C1040 1.401 . S
C1036 C1041 1.499 . S
N1037 Co1020 1.989 . S
N1037 C1036 1.342 . S
N1037 N1038 1.388 . S
N1038 Co1021 1.993 . S
N1038 N1037 1.388 . S
N1038 C1039 1.346 . S
C1039 N1038 1.346 . S
C1039 C1040 1.396 . S
C1039 C1049 1.510 . S
C1040 C1036 1.401 . S
C1040 C1039 1.396 . S
C1041 C1036 1.499 . S
C1041 H1042 0.959 . S
C1041 H1043 0.960 . S
C1041 H1044 0.961 . S
H1042 C1041 0.959 . S
H1043 C1041 0.960 . S
H1044 C1041 0.961 . S
O1045 Co1020 1.967 . S
O1045 C1053 1.258 . S
O1046 Co1021 1.941 . S
O1046 C1053 1.266 . S
H1047 C1049 0.959 . S
H1048 C1049 0.961 . S
C1049 C1039 1.510 . S
C1049 H1047 0.959 . S
C1049 H1048 0.961 . S
C1049 H1050 0.960 . S
H1050 C1049 0.960 . S
H1051 N1031 0.862 . S
O1052 Co1020 1.920 . S
O1052 C1025 1.289 . S
C1053 O1045 1.258 . S
C1053 O1046 1.266 . S
Co1054 O1057 1.970 . S
Co1054 N1071 1.989 . S
Co1054 O1079 1.967 . S
Co1054 O1086 1.920 . S
Co1055 O1058 1.966 . S
Co1055 N1064 2.022 . S
Co1055 N1072 1.993 . S
Co1055 O1080 1.941 . S
C1056 O1057 1.258 . S
C1056 O1058 1.263 . S
O1057 Co1054 1.970 . S
O1057 C1056 1.258 . S
O1058 Co1055 1.966 . S
O1058 C1056 1.263 . S
C1059 O1060 1.235 . S
C1059 O1086 1.289 . S
O1060 C1059 1.235 . S
C1061 C1063 1.400 . S
C1061 N1064 1.351 . S
C1061 C1066 1.501 . S
C1062 C1063 1.387 . S
C1062 N1065 1.341 . S
C1063 C1061 1.400 . S
C1063 C1062 1.387 . S
N1064 Co1055 2.022 . S
N1064 C1061 1.351 . S
N1064 N1065 1.365 . S
N1065 C1062 1.341 . S
N1065 N1064 1.365 . S
N1065 H1085 0.862 . S
C1066 C1061 1.501 . S
C1066 H1067 0.961 . S
C1066 H1068 0.961 . S
C1066 H1069 0.960 . S
H1067 C1066 0.961 . S
H1068 C1066 0.961 . S
H1069 C1066 0.960 . S
C1070 N1071 1.342 . S
C1070 C1074 1.401 . S
C1070 C1075 1.499 . S
N1071 Co1054 1.989 . S
N1071 C1070 1.342 . S
N1071 N1072 1.388 . S
N1072 Co1055 1.993 . S
N1072 N1071 1.388 . S
N1072 C1073 1.346 . S
C1073 N1072 1.346 . S
C1073 C1074 1.396 . S
C1073 C1083 1.510 . S
C1074 C1070 1.401 . S
C1074 C1073 1.396 . S
C1075 C1070 1.499 . S
C1075 H1076 0.959 . S
C1075 H1077 0.960 . S
C1075 H1078 0.961 . S
H1076 C1075 0.959 . S
H1077 C1075 0.960 . S
H1078 C1075 0.961 . S
O1079 Co1054 1.967 . S
O1079 C1087 1.258 . S
O1080 Co1055 1.941 . S
O1080 C1087 1.266 . S
H1081 C1083 0.959 . S
H1082 C1083 0.961 . S
C1083 C1073 1.510 . S
C1083 H1081 0.959 . S
C1083 H1082 0.961 . S
C1083 H1084 0.960 . S
H1084 C1083 0.960 . S
H1085 N1065 0.862 . S
O1086 Co1054 1.920 . S
O1086 C1059 1.289 . S
C1087 O1079 1.258 . S
C1087 O1080 1.266 . S
H1088 C1096 0.929 . S
H1089 C1098 0.930 . S
H1090 C1100 0.930 . S
H1091 C1103 0.929 . S
H1092 C1106 0.930 . S
H1093 C1108 0.960 1_565 S
H1094 C1108 0.960 . S
H1095 C1108 0.960 . S
C1096 H1088 0.929 . S
C1096 C1097 1.377 . S
C1096 C1098 1.384 . S
C1097 C1096 1.377 . S
C1097 C1103 1.390 . S
C1098 H1089 0.930 . S
C1098 C1096 1.384 . S
C1098 C1099 1.372 . S
C1099 C1098 1.372 . S
C1099 C1100 1.400 . S
C1099 C1104 1.490 . S
C1100 H1090 0.930 . S
C1100 C1099 1.400 . S
C1100 C1103 1.386 . S
H1101 C1117 0.930 . S
H1102 C1118 0.931 . S
C1103 H1091 0.929 . S
C1103 C1097 1.390 . S
C1103 C1100 1.386 . S
C1104 C1099 1.490 . S
C1104 C1106 1.395 . S
C1104 C1107 1.403 . S
H1105 C1111 0.930 . S
C1106 H1092 0.930 . S
C1106 C1104 1.395 . S
C1106 C1109 1.403 . S
C1107 C1104 1.403 . S
C1107 C1108 1.524 . S
C1107 C1111 1.400 . S
C1108 H1093 0.960 1_545 S
C1108 H1094 0.960 . S
C1108 H1095 0.960 . S
C1108 C1107 1.524 . S
C1109 C1106 1.403 . S
C1109 C1110 1.392 . S
C1109 C1113 1.495 . S
C1110 C1109 1.392 . S
C1110 C1111 1.385 . S
C1110 C1112 1.478 . S
C1111 H1105 0.930 . S
C1111 C1107 1.400 . S
C1111 C1110 1.385 . S
C1112 C1110 1.478 . S
C1112 C1114 1.381 . S
C1112 C1118 1.383 . S
C1113 C1109 1.495 . S
C1113 H1119 0.959 . S
C1113 H1120 0.961 . S
C1113 H1121 0.960 . S
C1114 C1112 1.381 . S
C1114 C1115 1.394 . S
C1114 H1122 0.930 . S
C1115 C1114 1.394 . S
C1115 C1116 1.383 . S
C1115 H1123 0.929 . S
C1116 C1115 1.383 . S
C1116 C1117 1.377 . S
C1117 H1101 0.930 . S
C1117 C1116 1.377 . S
C1117 C1118 1.379 . S
C1118 H1102 0.931 . S
C1118 C1112 1.383 . S
C1118 C1117 1.379 . S
H1119 C1113 0.959 . S
H1120 C1113 0.961 . S
H1121 C1113 0.960 . S
H1122 C1114 0.930 . S
H1123 C1115 0.929 . S
H1124 C1132 0.929 . S
H1125 C1134 0.930 . S
H1126 C1136 0.930 . S
H1127 C1139 0.929 . S
H1128 C1142 0.930 . S
H1129 C1144 0.960 1_565 S
H1130 C1144 0.960 1_565 S
H1131 C1144 0.960 . S
C1132 H1124 0.929 . S
C1132 C1133 1.377 . S
C1132 C1134 1.384 . S
C1133 C1132 1.377 . S
C1133 C1139 1.390 . S
C1134 H1125 0.930 . S
C1134 C1132 1.384 . S
C1134 C1135 1.372 . S
C1135 C1134 1.372 . S
C1135 C1136 1.400 . S
C1135 C1140 1.490 . S
C1136 H1126 0.930 . S
C1136 C1135 1.400 . S
C1136 C1139 1.386 . S
H1137 C1153 0.930 . S
H1138 C1154 0.931 . S
C1139 H1127 0.929 . S
C1139 C1133 1.390 . S
C1139 C1136 1.386 . S
C1140 C1135 1.490 . S
C1140 C1142 1.395 . S
C1140 C1143 1.403 . S
H1141 C1147 0.930 . S
C1142 H1128 0.930 . S
C1142 C1140 1.395 . S
C1142 C1145 1.403 . S
C1143 C1140 1.403 . S
C1143 C1144 1.524 . S
C1143 C1147 1.400 . S
C1144 H1129 0.960 1_545 S
C1144 H1130 0.960 1_545 S
C1144 H1131 0.960 . S
C1144 C1143 1.524 . S
C1145 C1142 1.403 . S
C1145 C1146 1.392 . S
C1145 C1149 1.495 . S
C1146 C1145 1.392 . S
C1146 C1147 1.385 . S
C1146 C1148 1.478 . S
C1147 H1141 0.930 . S
C1147 C1143 1.400 . S
C1147 C1146 1.385 . S
C1148 C1146 1.478 . S
C1148 C1150 1.381 . S
C1148 C1154 1.383 . S
C1149 C1145 1.495 . S
C1149 H1155 0.959 . S
C1149 H1156 0.961 . S
C1149 H1157 0.960 . S
C1150 C1148 1.381 . S
C1150 C1151 1.394 . S
C1150 H1158 0.930 . S
C1151 C1150 1.394 . S
C1151 C1152 1.383 . S
C1151 H1159 0.929 . S
C1152 C1151 1.383 . S
C1152 C1153 1.377 . S
C1153 H1137 0.930 . S
C1153 C1152 1.377 . S
C1153 C1154 1.379 . S
C1154 H1138 0.931 . S
C1154 C1148 1.383 . S
C1154 C1153 1.379 . S
H1155 C1149 0.959 . S
H1156 C1149 0.961 . S
H1157 C1149 0.960 . S
H1158 C1150 0.930 . S
H1159 C1151 0.929 . S
H1160 C1168 0.929 . S
H1161 C1170 0.930 . S
H1162 C1172 0.930 . S
H1163 C1175 0.929 . S
H1164 C1178 0.930 . S
H1165 C1180 0.960 . S
H1166 C1180 0.960 . S
H1167 C1180 0.960 . S
C1168 H1160 0.929 . S
C1168 C1169 1.377 . S
C1168 C1170 1.384 . S
C1169 C1168 1.377 . S
C1169 C1175 1.390 . S
C1170 H1161 0.930 . S
C1170 C1168 1.384 . S
C1170 C1171 1.372 . S
C1171 C1170 1.372 . S
C1171 C1172 1.400 . S
C1171 C1176 1.490 . S
C1172 H1162 0.930 . S
C1172 C1171 1.400 . S
C1172 C1175 1.386 . S
H1173 C1189 0.930 . S
H1174 C1190 0.931 . S
C1175 H1163 0.929 . S
C1175 C1169 1.390 . S
C1175 C1172 1.386 . S
C1176 C1171 1.490 . S
C1176 C1178 1.395 . S
C1176 C1179 1.403 . S
H1177 C1183 0.930 . S
C1178 H1164 0.930 . S
C1178 C1176 1.395 . S
C1178 C1181 1.403 . S
C1179 C1176 1.403 . S
C1179 C1180 1.524 . S
C1179 C1183 1.400 . S
C1180 H1165 0.960 . S
C1180 H1166 0.960 . S
C1180 H1167 0.960 . S
C1180 C1179 1.524 . S
C1181 C1178 1.403 . S
C1181 C1182 1.392 . S
C1181 C1185 1.495 1_565 S
C1182 C1181 1.392 . S
C1182 C1183 1.385 . S
C1182 C1184 1.478 . S
C1183 H1177 0.930 . S
C1183 C1179 1.400 . S
C1183 C1182 1.385 . S
C1184 C1182 1.478 . S
C1184 C1186 1.381 . S
C1184 C1190 1.383 . S
C1185 C1181 1.495 1_545 S
C1185 H1191 0.959 . S
C1185 H1192 0.961 . S
C1185 H1193 0.960 . S
C1186 C1184 1.381 . S
C1186 C1187 1.394 . S
C1186 H1194 0.930 . S
C1187 C1186 1.394 . S
C1187 C1188 1.383 . S
C1187 H1195 0.929 . S
C1188 C1187 1.383 . S
C1188 C1189 1.377 . S
C1189 H1173 0.930 . S
C1189 C1188 1.377 . S
C1189 C1190 1.379 . S
C1190 H1174 0.931 . S
C1190 C1184 1.383 . S
C1190 C1189 1.379 . S
H1191 C1185 0.959 . S
H1192 C1185 0.961 . S
H1193 C1185 0.960 . S
H1194 C1186 0.930 . S
H1195 C1187 0.929 . S
H1196 C1204 0.929 . S
H1197 C1206 0.930 . S
H1198 C1208 0.930 . S
H1199 C1211 0.929 . S
H1200 C1214 0.930 . S
H1201 C1216 0.960 . S
H1202 C1216 0.960 . S
H1203 C1216 0.960 . S
C1204 H1196 0.929 . S
C1204 C1205 1.377 . S
C1204 C1206 1.384 . S
C1205 C1204 1.377 . S
C1205 C1211 1.390 . S
C1206 H1197 0.930 . S
C1206 C1204 1.384 . S
C1206 C1207 1.372 . S
C1207 C1206 1.372 . S
C1207 C1208 1.400 . S
C1207 C1212 1.490 . S
C1208 H1198 0.930 . S
C1208 C1207 1.400 . S
C1208 C1211 1.386 . S
H1209 C1225 0.930 . S
H1210 C1226 0.931 . S
C1211 H1199 0.929 . S
C1211 C1205 1.390 . S
C1211 C1208 1.386 . S
C1212 C1207 1.490 . S
C1212 C1214 1.395 . S
C1212 C1215 1.403 . S
H1213 C1219 0.930 . S
C1214 H1200 0.930 . S
C1214 C1212 1.395 . S
C1214 C1217 1.403 . S
C1215 C1212 1.403 . S
C1215 C1216 1.524 . S
C1215 C1219 1.400 . S
C1216 H1201 0.960 . S
C1216 H1202 0.960 . S
C1216 H1203 0.960 . S
C1216 C1215 1.524 . S
C1217 C1214 1.403 . S
C1217 C1218 1.392 . S
C1217 C1221 1.495 . S
C1218 C1217 1.392 . S
C1218 C1219 1.385 . S
C1218 C1220 1.478 . S
C1219 H1213 0.930 . S
C1219 C1215 1.400 . S
C1219 C1218 1.385 . S
C1220 C1218 1.478 . S
C1220 C1222 1.381 . S
C1220 C1226 1.383 . S
C1221 C1217 1.495 . S
C1221 H1227 0.959 1_565 S
C1221 H1228 0.961 1_565 S
C1221 H1229 0.960 . S
C1222 C1220 1.381 . S
C1222 C1223 1.394 . S
C1222 H1230 0.930 . S
C1223 C1222 1.394 . S
C1223 C1224 1.383 . S
C1223 H1231 0.929 . S
C1224 C1223 1.383 . S
C1224 C1225 1.377 . S
C1225 H1209 0.930 . S
C1225 C1224 1.377 . S
C1225 C1226 1.379 . S
C1226 H1210 0.931 . S
C1226 C1220 1.383 . S
C1226 C1225 1.379 . S
H1227 C1221 0.959 1_545 S
H1228 C1221 0.961 1_545 S
H1229 C1221 0.960 . S
H1230 C1222 0.930 . S
H1231 C1223 0.929 . S
H1232 C1240 0.929 . S
H1233 C1242 0.930 . S
H1234 C1244 0.930 . S
H1235 C1247 0.929 . S
H1236 C1250 0.930 . S
H1237 C1252 0.960 . S
H1238 C1252 0.960 . S
H1239 C1252 0.960 . S
C1240 H1232 0.929 . S
C1240 C1241 1.377 . S
C1240 C1242 1.384 . S
C1241 C1240 1.377 . S
C1241 C1247 1.390 . S
C1242 H1233 0.930 . S
C1242 C1240 1.384 . S
C1242 C1243 1.372 . S
C1243 C1242 1.372 . S
C1243 C1244 1.400 . S
C1243 C1248 1.490 . S
C1244 H1234 0.930 . S
C1244 C1243 1.400 . S
C1244 C1247 1.386 . S
H1245 C1261 0.930 . S
H1246 C1262 0.931 . S
C1247 H1235 0.929 . S
C1247 C1241 1.390 . S
C1247 C1244 1.386 . S
C1248 C1243 1.490 . S
C1248 C1250 1.395 . S
C1248 C1251 1.403 . S
H1249 C1255 0.930 . S
C1250 H1236 0.930 . S
C1250 C1248 1.395 . S
C1250 C1253 1.403 . S
C1251 C1248 1.403 . S
C1251 C1252 1.524 . S
C1251 C1255 1.400 . S
C1252 H1237 0.960 . S
C1252 H1238 0.960 . S
C1252 H1239 0.960 . S
C1252 C1251 1.524 . S
C1253 C1250 1.403 . S
C1253 C1254 1.392 . S
C1253 C1257 1.495 . S
C1254 C1253 1.392 . S
C1254 C1255 1.385 . S
C1254 C1256 1.478 . S
C1255 H1249 0.930 . S
C1255 C1251 1.400 . S
C1255 C1254 1.385 . S
C1256 C1254 1.478 . S
C1256 C1258 1.381 . S
C1256 C1262 1.383 . S
C1257 C1253 1.495 . S
C1257 H1263 0.959 . S
C1257 H1264 0.961 . S
C1257 H1265 0.960 . S
C1258 C1256 1.381 . S
C1258 C1259 1.394 . S
C1258 H1266 0.930 . S
C1259 C1258 1.394 . S
C1259 C1260 1.383 . S
C1259 H1267 0.929 . S
C1260 C1259 1.383 . S
C1260 C1261 1.377 . S
C1261 H1245 0.930 . S
C1261 C1260 1.377 . S
C1261 C1262 1.379 . S
C1262 H1246 0.931 . S
C1262 C1256 1.383 . S
C1262 C1261 1.379 . S
H1263 C1257 0.959 . S
H1264 C1257 0.961 . S
H1265 C1257 0.960 . S
H1266 C1258 0.930 . S
H1267 C1259 0.929 . S
H1268 C1276 0.929 . S
H1269 C1278 0.930 . S
H1270 C1280 0.930 . S
H1271 C1283 0.929 . S
H1272 C1286 0.930 . S
H1273 C1288 0.960 . S
H1274 C1288 0.960 . S
H1275 C1288 0.960 . S
C1276 H1268 0.929 . S
C1276 C1277 1.377 . S
C1276 C1278 1.384 . S
C1277 C1276 1.377 . S
C1277 C1283 1.390 . S
C1278 H1269 0.930 . S
C1278 C1276 1.384 . S
C1278 C1279 1.372 . S
C1279 C1278 1.372 . S
C1279 C1280 1.400 . S
C1279 C1284 1.490 . S
C1280 H1270 0.930 . S
C1280 C1279 1.400 . S
C1280 C1283 1.386 . S
H1281 C1297 0.930 . S
H1282 C1298 0.931 . S
C1283 H1271 0.929 . S
C1283 C1277 1.390 . S
C1283 C1280 1.386 . S
C1284 C1279 1.490 . S
C1284 C1286 1.395 . S
C1284 C1287 1.403 . S
H1285 C1291 0.930 . S
C1286 H1272 0.930 . S
C1286 C1284 1.395 . S
C1286 C1289 1.403 . S
C1287 C1284 1.403 . S
C1287 C1288 1.524 . S
C1287 C1291 1.400 . S
C1288 H1273 0.960 . S
C1288 H1274 0.960 . S
C1288 H1275 0.960 . S
C1288 C1287 1.524 . S
C1289 C1286 1.403 . S
C1289 C1290 1.392 . S
C1289 C1293 1.495 . S
C1290 C1289 1.392 . S
C1290 C1291 1.385 . S
C1290 C1292 1.478 . S
C1291 H1285 0.930 . S
C1291 C1287 1.400 . S
C1291 C1290 1.385 . S
C1292 C1290 1.478 . S
C1292 C1294 1.381 . S
C1292 C1298 1.383 . S
C1293 C1289 1.495 . S
C1293 H1299 0.959 . S
C1293 H1300 0.961 . S
C1293 H1301 0.960 . S
C1294 C1292 1.381 . S
C1294 C1295 1.394 . S
C1294 H1302 0.930 . S
C1295 C1294 1.394 . S
C1295 C1296 1.383 . S
C1295 H1303 0.929 . S
C1296 C1295 1.383 . S
C1296 C1297 1.377 . S
C1297 H1281 0.930 . S
C1297 C1296 1.377 . S
C1297 C1298 1.379 . S
C1298 H1282 0.931 . S
C1298 C1292 1.383 . S
C1298 C1297 1.379 . S
H1299 C1293 0.959 . S
H1300 C1293 0.961 . S
H1301 C1293 0.960 . S
H1302 C1294 0.930 . S
H1303 C1295 0.929 . S
H1304 C1312 0.929 . S
H1305 C1314 0.930 . S
H1306 C1316 0.930 . S
H1307 C1319 0.929 . S
H1308 C1322 0.930 . S
H1309 C1324 0.960 . S
H1310 C1324 0.960 . S
H1311 C1324 0.960 . S
C1312 H1304 0.929 . S
C1312 C1313 1.377 . S
C1312 C1314 1.384 . S
C1313 C1312 1.377 . S
C1313 C1319 1.390 . S
C1314 H1305 0.930 . S
C1314 C1312 1.384 . S
C1314 C1315 1.372 . S
C1315 C1314 1.372 . S
C1315 C1316 1.400 . S
C1315 C1320 1.490 . S
C1316 H1306 0.930 . S
C1316 C1315 1.400 . S
C1316 C1319 1.386 . S
H1317 C1333 0.930 . S
H1318 C1334 0.931 . S
C1319 H1307 0.929 . S
C1319 C1313 1.390 . S
C1319 C1316 1.386 . S
C1320 C1315 1.490 . S
C1320 C1322 1.395 . S
C1320 C1323 1.403 . S
H1321 C1327 0.930 . S
C1322 H1308 0.930 . S
C1322 C1320 1.395 . S
C1322 C1325 1.403 . S
C1323 C1320 1.403 . S
C1323 C1324 1.524 . S
C1323 C1327 1.400 . S
C1324 H1309 0.960 . S
C1324 H1310 0.960 . S
C1324 H1311 0.960 . S
C1324 C1323 1.524 . S
C1325 C1322 1.403 . S
C1325 C1326 1.392 . S
C1325 C1329 1.495 . S
C1326 C1325 1.392 . S
C1326 C1327 1.385 . S
C1326 C1328 1.478 . S
C1327 H1321 0.930 . S
C1327 C1323 1.400 . S
C1327 C1326 1.385 . S
C1328 C1326 1.478 . S
C1328 C1330 1.381 . S
C1328 C1334 1.383 . S
C1329 C1325 1.495 . S
C1329 H1335 0.959 . S
C1329 H1336 0.961 . S
C1329 H1337 0.960 . S
C1330 C1328 1.381 . S
C1330 C1331 1.394 . S
C1330 H1338 0.930 . S
C1331 C1330 1.394 . S
C1331 C1332 1.383 . S
C1331 H1339 0.929 . S
C1332 C1331 1.383 . S
C1332 C1333 1.377 . S
C1333 H1317 0.930 . S
C1333 C1332 1.377 . S
C1333 C1334 1.379 . S
C1334 H1318 0.931 . S
C1334 C1328 1.383 . S
C1334 C1333 1.379 . S
H1335 C1329 0.959 . S
H1336 C1329 0.961 . S
H1337 C1329 0.960 . S
H1338 C1330 0.930 . S
H1339 C1331 0.929 . S
H1340 C1348 0.929 . S
H1341 C1350 0.930 . S
H1342 C1352 0.930 . S
H1343 C1355 0.929 . S
H1344 C1358 0.930 . S
H1345 C1360 0.960 . S
H1346 C1360 0.960 . S
H1347 C1360 0.960 . S
C1348 H1340 0.929 . S
C1348 C1349 1.377 . S
C1348 C1350 1.384 . S
C1349 C1348 1.377 . S
C1349 C1355 1.390 . S
C1350 H1341 0.930 . S
C1350 C1348 1.384 . S
C1350 C1351 1.372 . S
C1351 C1350 1.372 . S
C1351 C1352 1.400 . S
C1351 C1356 1.490 . S
C1352 H1342 0.930 . S
C1352 C1351 1.400 . S
C1352 C1355 1.386 . S
H1353 C1369 0.930 . S
H1354 C1370 0.931 . S
C1355 H1343 0.929 . S
C1355 C1349 1.390 . S
C1355 C1352 1.386 . S
C1356 C1351 1.490 . S
C1356 C1358 1.395 . S
C1356 C1359 1.403 . S
H1357 C1363 0.930 . S
C1358 H1344 0.930 . S
C1358 C1356 1.395 . S
C1358 C1361 1.403 . S
C1359 C1356 1.403 . S
C1359 C1360 1.524 . S
C1359 C1363 1.400 . S
C1360 H1345 0.960 . S
C1360 H1346 0.960 . S
C1360 H1347 0.960 . S
C1360 C1359 1.524 . S
C1361 C1358 1.403 . S
C1361 C1362 1.392 . S
C1361 C1365 1.495 . S
C1362 C1361 1.392 . S
C1362 C1363 1.385 . S
C1362 C1364 1.478 . S
C1363 H1357 0.930 . S
C1363 C1359 1.400 . S
C1363 C1362 1.385 . S
C1364 C1362 1.478 . S
C1364 C1366 1.381 . S
C1364 C1370 1.383 . S
C1365 C1361 1.495 . S
C1365 H1371 0.959 . S
C1365 H1372 0.961 . S
C1365 H1373 0.960 . S
C1366 C1364 1.381 . S
C1366 C1367 1.394 . S
C1366 H1374 0.930 . S
C1367 C1366 1.394 . S
C1367 C1368 1.383 . S
C1367 H1375 0.929 . S
C1368 C1367 1.383 . S
C1368 C1369 1.377 . S
C1369 H1353 0.930 . S
C1369 C1368 1.377 . S
C1369 C1370 1.379 . S
C1370 H1354 0.931 . S
C1370 C1364 1.383 . S
C1370 C1369 1.379 . S
H1371 C1365 0.959 . S
H1372 C1365 0.961 . S
H1373 C1365 0.960 . S
H1374 C1366 0.930 . S
H1375 C1367 0.929 . S
H1376 C1384 0.929 . S
H1377 C1386 0.930 . S
H1378 C1388 0.930 . S
H1379 C1391 0.929 . S
H1380 C1394 0.930 . S
H1381 C1396 0.960 1_565 S
H1382 C1396 0.960 1_565 S
H1383 C1396 0.960 . S
C1384 H1376 0.929 . S
C1384 C1385 1.377 . S
C1384 C1386 1.384 . S
C1385 C1384 1.377 . S
C1385 C1391 1.390 . S
C1386 H1377 0.930 . S
C1386 C1384 1.384 . S
C1386 C1387 1.372 . S
C1387 C1386 1.372 . S
C1387 C1388 1.400 . S
C1387 C1392 1.490 . S
C1388 H1378 0.930 . S
C1388 C1387 1.400 . S
C1388 C1391 1.386 . S
H1389 C1405 0.930 . S
H1390 C1406 0.931 . S
C1391 H1379 0.929 . S
C1391 C1385 1.390 . S
C1391 C1388 1.386 . S
C1392 C1387 1.490 . S
C1392 C1394 1.395 . S
C1392 C1395 1.403 . S
H1393 C1399 0.930 . S
C1394 H1380 0.930 . S
C1394 C1392 1.395 . S
C1394 C1397 1.403 . S
C1395 C1392 1.403 . S
C1395 C1396 1.524 . S
C1395 C1399 1.400 . S
C1396 H1381 0.960 1_545 S
C1396 H1382 0.960 1_545 S
C1396 H1383 0.960 . S
C1396 C1395 1.524 . S
C1397 C1394 1.403 . S
C1397 C1398 1.392 . S
C1397 C1401 1.495 . S
C1398 C1397 1.392 . S
C1398 C1399 1.385 . S
C1398 C1400 1.478 . S
C1399 H1393 0.930 . S
C1399 C1395 1.400 . S
C1399 C1398 1.385 . S
C1400 C1398 1.478 . S
C1400 C1402 1.381 . S
C1400 C1406 1.383 . S
C1401 C1397 1.495 . S
C1401 H1407 0.959 . S
C1401 H1408 0.961 . S
C1401 H1409 0.960 . S
C1402 C1400 1.381 . S
C1402 C1403 1.394 . S
C1402 H1410 0.930 . S
C1403 C1402 1.394 . S
C1403 C1404 1.383 . S
C1403 H1411 0.929 . S
C1404 C1403 1.383 . S
C1404 C1405 1.377 . S
C1405 H1389 0.930 . S
C1405 C1404 1.377 . S
C1405 C1406 1.379 . S
C1406 H1390 0.931 . S
C1406 C1400 1.383 . S
C1406 C1405 1.379 . S
H1407 C1401 0.959 . S
H1408 C1401 0.961 . S
H1409 C1401 0.960 . S
H1410 C1402 0.930 . S
H1411 C1403 0.929 . S
H1412 C1420 0.929 . S
H1413 C1422 0.930 . S
H1414 C1424 0.930 . S
H1415 C1427 0.929 . S
H1416 C1430 0.930 . S
H1417 C1432 0.960 1_565 S
H1418 C1432 0.960 . S
H1419 C1432 0.960 1_565 S
C1420 H1412 0.929 . S
C1420 C1421 1.377 . S
C1420 C1422 1.384 . S
C1421 C1420 1.377 . S
C1421 C1427 1.390 . S
C1422 H1413 0.930 . S
C1422 C1420 1.384 . S
C1422 C1423 1.372 . S
C1423 C1422 1.372 . S
C1423 C1424 1.400 . S
C1423 C1428 1.490 . S
C1424 H1414 0.930 . S
C1424 C1423 1.400 . S
C1424 C1427 1.386 . S
H1425 C1441 0.930 . S
H1426 C1442 0.931 . S
C1427 H1415 0.929 . S
C1427 C1421 1.390 . S
C1427 C1424 1.386 . S
C1428 C1423 1.490 . S
C1428 C1430 1.395 . S
C1428 C1431 1.403 . S
H1429 C1435 0.930 . S
C1430 H1416 0.930 . S
C1430 C1428 1.395 . S
C1430 C1433 1.403 . S
C1431 C1428 1.403 . S
C1431 C1432 1.524 . S
C1431 C1435 1.400 . S
C1432 H1417 0.960 1_545 S
C1432 H1418 0.960 . S
C1432 H1419 0.960 1_545 S
C1432 C1431 1.524 . S
C1433 C1430 1.403 . S
C1433 C1434 1.392 . S
C1433 C1437 1.495 . S
C1434 C1433 1.392 . S
C1434 C1435 1.385 . S
C1434 C1436 1.478 . S
C1435 H1429 0.930 . S
C1435 C1431 1.400 . S
C1435 C1434 1.385 . S
C1436 C1434 1.478 . S
C1436 C1438 1.381 . S
C1436 C1442 1.383 . S
C1437 C1433 1.495 . S
C1437 H1443 0.959 . S
C1437 H1444 0.961 . S
C1437 H1445 0.960 . S
C1438 C1436 1.381 . S
C1438 C1439 1.394 . S
C1438 H1446 0.930 . S
C1439 C1438 1.394 . S
C1439 C1440 1.383 . S
C1439 H1447 0.929 . S
C1440 C1439 1.383 . S
C1440 C1441 1.377 . S
C1441 H1425 0.930 . S
C1441 C1440 1.377 . S
C1441 C1442 1.379 . S
C1442 H1426 0.931 . S
C1442 C1436 1.383 . S
C1442 C1441 1.379 . S
H1443 C1437 0.959 . S
H1444 C1437 0.961 . S
H1445 C1437 0.960 . S
H1446 C1438 0.930 . S
H1447 C1439 0.929 . S
H1448 C1456 0.929 . S
H1449 C1458 0.930 . S
H1450 C1460 0.930 . S
H1451 C1463 0.929 . S
H1452 C1466 0.930 . S
H1453 C1468 0.960 . S
H1454 C1468 0.960 . S
H1455 C1468 0.960 . S
C1456 H1448 0.929 . S
C1456 C1457 1.377 . S
C1456 C1458 1.384 . S
C1457 C1456 1.377 . S
C1457 C1463 1.390 . S
C1458 H1449 0.930 . S
C1458 C1456 1.384 . S
C1458 C1459 1.372 . S
C1459 C1458 1.372 . S
C1459 C1460 1.400 . S
C1459 C1464 1.490 . S
C1460 H1450 0.930 . S
C1460 C1459 1.400 . S
C1460 C1463 1.386 . S
H1461 C1477 0.930 . S
H1462 C1478 0.931 . S
C1463 H1451 0.929 . S
C1463 C1457 1.390 . S
C1463 C1460 1.386 . S
C1464 C1459 1.490 . S
C1464 C1466 1.395 . S
C1464 C1467 1.403 . S
H1465 C1471 0.930 . S
C1466 H1452 0.930 . S
C1466 C1464 1.395 . S
C1466 C1469 1.403 . S
C1467 C1464 1.403 . S
C1467 C1468 1.524 . S
C1467 C1471 1.400 . S
C1468 H1453 0.960 . S
C1468 H1454 0.960 . S
C1468 H1455 0.960 . S
C1468 C1467 1.524 . S
C1469 C1466 1.403 . S
C1469 C1470 1.392 . S
C1469 C1473 1.495 1_565 S
C1470 C1469 1.392 . S
C1470 C1471 1.385 . S
C1470 C1472 1.478 . S
C1471 H1465 0.930 . S
C1471 C1467 1.400 . S
C1471 C1470 1.385 . S
C1472 C1470 1.478 . S
C1472 C1474 1.381 . S
C1472 C1478 1.383 . S
C1473 C1469 1.495 1_545 S
C1473 H1479 0.959 . S
C1473 H1480 0.961 . S
C1473 H1481 0.960 . S
C1474 C1472 1.381 . S
C1474 C1475 1.394 . S
C1474 H1482 0.930 . S
C1475 C1474 1.394 . S
C1475 C1476 1.383 . S
C1475 H1483 0.929 . S
C1476 C1475 1.383 . S
C1476 C1477 1.377 . S
C1477 H1461 0.930 . S
C1477 C1476 1.377 . S
C1477 C1478 1.379 . S
C1478 H1462 0.931 . S
C1478 C1472 1.383 . S
C1478 C1477 1.379 . S
H1479 C1473 0.959 . S
H1480 C1473 0.961 . S
H1481 C1473 0.960 . S
H1482 C1474 0.930 . S
H1483 C1475 0.929 . S
H1484 C1492 0.929 . S
H1485 C1494 0.930 . S
H1486 C1496 0.930 . S
H1487 C1499 0.929 . S
H1488 C1502 0.930 . S
H1489 C1504 0.960 . S
H1490 C1504 0.960 . S
H1491 C1504 0.960 . S
C1492 H1484 0.929 . S
C1492 C1493 1.377 . S
C1492 C1494 1.384 . S
C1493 C1492 1.377 . S
C1493 C1499 1.390 . S
C1494 H1485 0.930 . S
C1494 C1492 1.384 . S
C1494 C1495 1.372 . S
C1495 C1494 1.372 . S
C1495 C1496 1.400 . S
C1495 C1500 1.490 . S
C1496 H1486 0.930 . S
C1496 C1495 1.400 . S
C1496 C1499 1.386 . S
H1497 C1513 0.930 . S
H1498 C1514 0.931 . S
C1499 H1487 0.929 . S
C1499 C1493 1.390 . S
C1499 C1496 1.386 . S
C1500 C1495 1.490 . S
C1500 C1502 1.395 . S
C1500 C1503 1.403 . S
H1501 C1507 0.930 . S
C1502 H1488 0.930 . S
C1502 C1500 1.395 . S
C1502 C1505 1.403 . S
C1503 C1500 1.403 . S
C1503 C1504 1.524 . S
C1503 C1507 1.400 . S
C1504 H1489 0.960 . S
C1504 H1490 0.960 . S
C1504 H1491 0.960 . S
C1504 C1503 1.524 . S
C1505 C1502 1.403 . S
C1505 C1506 1.392 . S
C1505 C1509 1.495 . S
C1506 C1505 1.392 . S
C1506 C1507 1.385 . S
C1506 C1508 1.478 . S
C1507 H1501 0.930 . S
C1507 C1503 1.400 . S
C1507 C1506 1.385 . S
C1508 C1506 1.478 . S
C1508 C1510 1.381 . S
C1508 C1514 1.383 . S
C1509 C1505 1.495 . S
C1509 H1515 0.959 . S
C1509 H1516 0.961 . S
C1509 H1517 0.960 . S
C1510 C1508 1.381 . S
C1510 C1511 1.394 . S
C1510 H1518 0.930 . S
C1511 C1510 1.394 . S
C1511 C1512 1.383 . S
C1511 H1519 0.929 . S
C1512 C1511 1.383 . S
C1512 C1513 1.377 . S
C1513 H1497 0.930 . S
C1513 C1512 1.377 . S
C1513 C1514 1.379 . S
C1514 H1498 0.931 . S
C1514 C1508 1.383 . S
C1514 C1513 1.379 . S
H1515 C1509 0.959 . S
H1516 C1509 0.961 . S
H1517 C1509 0.960 . S
H1518 C1510 0.930 . S
H1519 C1511 0.929 . S
H1520 C1528 0.929 . S
H1521 C1530 0.930 . S
H1522 C1532 0.930 . S
H1523 C1535 0.929 . S
H1524 C1538 0.930 . S
H1525 C1540 0.960 . S
H1526 C1540 0.960 . S
H1527 C1540 0.960 . S
C1528 H1520 0.929 . S
C1528 C1529 1.377 . S
C1528 C1530 1.384 . S
C1529 C1528 1.377 . S
C1529 C1535 1.390 . S
C1530 H1521 0.930 . S
C1530 C1528 1.384 . S
C1530 C1531 1.372 . S
C1531 C1530 1.372 . S
C1531 C1532 1.400 . S
C1531 C1536 1.490 . S
C1532 H1522 0.930 . S
C1532 C1531 1.400 . S
C1532 C1535 1.386 . S
H1533 C1549 0.930 . S
H1534 C1550 0.931 . S
C1535 H1523 0.929 . S
C1535 C1529 1.390 . S
C1535 C1532 1.386 . S
C1536 C1531 1.490 . S
C1536 C1538 1.395 . S
C1536 C1539 1.403 . S
H1537 C1543 0.930 . S
C1538 H1524 0.930 . S
C1538 C1536 1.395 . S
C1538 C1541 1.403 . S
C1539 C1536 1.403 . S
C1539 C1540 1.524 . S
C1539 C1543 1.400 . S
C1540 H1525 0.960 . S
C1540 H1526 0.960 . S
C1540 H1527 0.960 . S
C1540 C1539 1.524 . S
C1541 C1538 1.403 . S
C1541 C1542 1.392 . S
C1541 C1545 1.495 . S
C1542 C1541 1.392 . S
C1542 C1543 1.385 . S
C1542 C1544 1.478 . S
C1543 H1537 0.930 . S
C1543 C1539 1.400 . S
C1543 C1542 1.385 . S
C1544 C1542 1.478 . S
C1544 C1546 1.381 . S
C1544 C1550 1.383 . S
C1545 C1541 1.495 . S
C1545 H1551 0.959 . S
C1545 H1552 0.961 . S
C1545 H1553 0.960 . S
C1546 C1544 1.381 . S
C1546 C1547 1.394 . S
C1546 H1554 0.930 . S
C1547 C1546 1.394 . S
C1547 C1548 1.383 . S
C1547 H1555 0.929 . S
C1548 C1547 1.383 . S
C1548 C1549 1.377 . S
C1549 H1533 0.930 . S
C1549 C1548 1.377 . S
C1549 C1550 1.379 . S
C1550 H1534 0.931 . S
C1550 C1544 1.383 . S
C1550 C1549 1.379 . S
H1551 C1545 0.959 . S
H1552 C1545 0.961 . S
H1553 C1545 0.960 . S
H1554 C1546 0.930 . S
H1555 C1547 0.929 . S
H1556 C1564 0.929 . S
H1557 C1566 0.930 . S
H1558 C1568 0.930 . S
H1559 C1571 0.929 . S
H1560 C1574 0.930 . S
H1561 C1576 0.960 . S
H1562 C1576 0.960 . S
H1563 C1576 0.960 . S
C1564 H1556 0.929 . S
C1564 C1565 1.377 . S
C1564 C1566 1.384 . S
C1565 C1564 1.377 . S
C1565 C1571 1.390 . S
C1566 H1557 0.930 . S
C1566 C1564 1.384 . S
C1566 C1567 1.372 . S
C1567 C1566 1.372 . S
C1567 C1568 1.400 . S
C1567 C1572 1.490 . S
C1568 H1558 0.930 . S
C1568 C1567 1.400 . S
C1568 C1571 1.386 . S
H1569 C1585 0.930 . S
H1570 C1586 0.931 . S
C1571 H1559 0.929 . S
C1571 C1565 1.390 . S
C1571 C1568 1.386 . S
C1572 C1567 1.490 . S
C1572 C1574 1.395 . S
C1572 C1575 1.403 . S
H1573 C1579 0.930 . S
C1574 H1560 0.930 . S
C1574 C1572 1.395 . S
C1574 C1577 1.403 . S
C1575 C1572 1.403 . S
C1575 C1576 1.524 . S
C1575 C1579 1.400 . S
C1576 H1561 0.960 . S
C1576 H1562 0.960 . S
C1576 H1563 0.960 . S
C1576 C1575 1.524 . S
C1577 C1574 1.403 . S
C1577 C1578 1.392 . S
C1577 C1581 1.495 . S
C1578 C1577 1.392 . S
C1578 C1579 1.385 . S
C1578 C1580 1.478 . S
C1579 H1573 0.930 . S
C1579 C1575 1.400 . S
C1579 C1578 1.385 . S
C1580 C1578 1.478 . S
C1580 C1582 1.381 . S
C1580 C1586 1.383 . S
C1581 C1577 1.495 . S
C1581 H1587 0.959 . S
C1581 H1588 0.961 . S
C1581 H1589 0.960 . S
C1582 C1580 1.381 . S
C1582 C1583 1.394 . S
C1582 H1590 0.930 . S
C1583 C1582 1.394 . S
C1583 C1584 1.383 . S
C1583 H1591 0.929 . S
C1584 C1583 1.383 . S
C1584 C1585 1.377 . S
C1585 H1569 0.930 . S
C1585 C1584 1.377 . S
C1585 C1586 1.379 . S
C1586 H1570 0.931 . S
C1586 C1580 1.383 . S
C1586 C1585 1.379 . S
H1587 C1581 0.959 . S
H1588 C1581 0.961 . S
H1589 C1581 0.960 . S
H1590 C1582 0.930 . S
H1591 C1583 0.929 . S
H1592 C1600 0.929 . S
H1593 C1602 0.930 . S
H1594 C1604 0.930 . S
H1595 C1607 0.929 . S
H1596 C1610 0.930 . S
H1597 C1612 0.960 . S
H1598 C1612 0.960 . S
H1599 C1612 0.960 . S
C1600 H1592 0.929 . S
C1600 C1601 1.377 . S
C1600 C1602 1.384 . S
C1601 C1600 1.377 . S
C1601 C1607 1.390 . S
C1602 H1593 0.930 . S
C1602 C1600 1.384 . S
C1602 C1603 1.372 . S
C1603 C1602 1.372 . S
C1603 C1604 1.400 . S
C1603 C1608 1.490 . S
C1604 H1594 0.930 . S
C1604 C1603 1.400 . S
C1604 C1607 1.386 . S
H1605 C1621 0.930 . S
H1606 C1622 0.931 . S
C1607 H1595 0.929 . S
C1607 C1601 1.390 . S
C1607 C1604 1.386 . S
C1608 C1603 1.490 . S
C1608 C1610 1.395 . S
C1608 C1611 1.403 . S
H1609 C1615 0.930 . S
C1610 H1596 0.930 . S
C1610 C1608 1.395 . S
C1610 C1613 1.403 . S
C1611 C1608 1.403 . S
C1611 C1612 1.524 . S
C1611 C1615 1.400 . S
C1612 H1597 0.960 . S
C1612 H1598 0.960 . S
C1612 H1599 0.960 . S
C1612 C1611 1.524 . S
C1613 C1610 1.403 . S
C1613 C1614 1.392 . S
C1613 C1617 1.495 . S
C1614 C1613 1.392 . S
C1614 C1615 1.385 . S
C1614 C1616 1.478 . S
C1615 H1609 0.930 . S
C1615 C1611 1.400 . S
C1615 C1614 1.385 . S
C1616 C1614 1.478 . S
C1616 C1618 1.381 . S
C1616 C1622 1.383 . S
C1617 C1613 1.495 . S
C1617 H1623 0.959 . S
C1617 H1624 0.961 . S
C1617 H1625 0.960 . S
C1618 C1616 1.381 . S
C1618 C1619 1.394 . S
C1618 H1626 0.930 . S
C1619 C1618 1.394 . S
C1619 C1620 1.383 . S
C1619 H1627 0.929 . S
C1620 C1619 1.383 . S
C1620 C1621 1.377 . S
C1621 H1605 0.930 . S
C1621 C1620 1.377 . S
C1621 C1622 1.379 . S
C1622 H1606 0.931 . S
C1622 C1616 1.383 . S
C1622 C1621 1.379 . S
H1623 C1617 0.959 . S
H1624 C1617 0.961 . S
H1625 C1617 0.960 . S
H1626 C1618 0.930 . S
H1627 C1619 0.929 . S
H1628 C1636 0.929 . S
H1629 C1638 0.930 . S
H1630 C1640 0.930 . S
H1631 C1643 0.929 . S
H1632 C1646 0.930 . S
H1633 C1648 0.960 . S
H1634 C1648 0.960 . S
H1635 C1648 0.960 . S
C1636 H1628 0.929 . S
C1636 C1637 1.377 . S
C1636 C1638 1.384 . S
C1637 C1636 1.377 . S
C1637 C1643 1.390 . S
C1638 H1629 0.930 . S
C1638 C1636 1.384 . S
C1638 C1639 1.372 . S
C1639 C1638 1.372 . S
C1639 C1640 1.400 . S
C1639 C1644 1.490 . S
C1640 H1630 0.930 . S
C1640 C1639 1.400 . S
C1640 C1643 1.386 . S
H1641 C1657 0.930 . S
H1642 C1658 0.931 . S
C1643 H1631 0.929 . S
C1643 C1637 1.390 . S
C1643 C1640 1.386 . S
C1644 C1639 1.490 . S
C1644 C1646 1.395 . S
C1644 C1647 1.403 . S
H1645 C1651 0.930 . S
C1646 H1632 0.930 . S
C1646 C1644 1.395 . S
C1646 C1649 1.403 . S
C1647 C1644 1.403 . S
C1647 C1648 1.524 . S
C1647 C1651 1.400 . S
C1648 H1633 0.960 . S
C1648 H1634 0.960 . S
C1648 H1635 0.960 . S
C1648 C1647 1.524 . S
C1649 C1646 1.403 . S
C1649 C1650 1.392 . S
C1649 C1653 1.495 . S
C1650 C1649 1.392 . S
C1650 C1651 1.385 . S
C1650 C1652 1.478 . S
C1651 H1645 0.930 . S
C1651 C1647 1.400 . S
C1651 C1650 1.385 . S
C1652 C1650 1.478 . S
C1652 C1654 1.381 . S
C1652 C1658 1.383 . S
C1653 C1649 1.495 . S
C1653 H1659 0.959 . S
C1653 H1660 0.961 . S
C1653 H1661 0.960 . S
C1654 C1652 1.381 . S
C1654 C1655 1.394 . S
C1654 H1662 0.930 . S
C1655 C1654 1.394 . S
C1655 C1656 1.383 . S
C1655 H1663 0.929 . S
C1656 C1655 1.383 . S
C1656 C1657 1.377 . S
C1657 H1641 0.930 . S
C1657 C1656 1.377 . S
C1657 C1658 1.379 . S
C1658 H1642 0.931 . S
C1658 C1652 1.383 . S
C1658 C1657 1.379 . S
H1659 C1653 0.959 . S
H1660 C1653 0.961 . S
H1661 C1653 0.960 . S
H1662 C1654 0.930 . S
H1663 C1655 0.929 . S
H1664 C1672 0.929 . S
H1665 C1674 0.930 . S
H1666 C1676 0.930 1_545 S
H1667 C1679 0.929 . S
H1668 C1682 0.929 1_556 S
H1669 C1684 0.960 . S
H1670 C1684 0.960 1_565 S
H1671 C1684 0.960 . S
C1672 H1664 0.929 . S
C1672 C1673 1.377 . S
C1672 C1674 1.384 . S
C1673 C1672 1.377 . S
C1673 C1679 1.390 . S
C1674 H1665 0.930 . S
C1674 C1672 1.384 . S
C1674 C1675 1.372 . S
C1675 C1674 1.372 . S
C1675 C1676 1.400 . S
C1675 C1680 1.490 . S
C1676 H1666 0.930 1_565 S
C1676 C1675 1.400 . S
C1676 C1679 1.386 . S
H1677 C1693 0.930 . S
H1678 C1694 0.931 . S
C1679 H1667 0.929 . S
C1679 C1673 1.390 . S
C1679 C1676 1.386 . S
C1680 C1675 1.490 . S
C1680 C1682 1.378 1_556 S
C1680 C1683 1.403 1_565 S
H1681 C1687 0.930 . S
C1682 H1668 0.929 1_554 S
C1682 C1680 1.378 1_554 S
C1682 C1685 1.421 . S
C1683 C1680 1.403 1_545 S
C1683 C1684 1.524 . S
C1683 C1687 1.400 1_556 S
C1684 H1669 0.960 . S
C1684 H1670 0.960 1_545 S
C1684 H1671 0.960 . S
C1684 C1683 1.524 . S
C1685 C1682 1.421 . S
C1685 C1686 1.392 1_565 S
C1685 C1689 1.495 . S
C1686 C1685 1.392 1_545 S
C1686 C1687 1.385 . S
C1686 C1688 1.478 . S
C1687 H1681 0.930 . S
C1687 C1683 1.400 1_554 S
C1687 C1686 1.385 . S
C1688 C1686 1.478 . S
C1688 C1690 1.381 . S
C1688 C1694 1.383 . S
C1689 C1685 1.495 . S
C1689 H1695 0.959 . S
C1689 H1696 0.961 1_565 S
C1689 H1697 0.960 . S
C1690 C1688 1.381 . S
C1690 C1691 1.394 . S
C1690 H1698 0.930 1_545 S
C1691 C1690 1.394 . S
C1691 C1692 1.383 . S
C1691 H1699 0.929 . S
C1692 C1691 1.383 . S
C1692 C1693 1.377 . S
C1693 H1677 0.930 . S
C1693 C1692 1.377 . S
C1693 C1694 1.379 . S
C1694 H1678 0.931 . S
C1694 C1688 1.383 . S
C1694 C1693 1.379 . S
H1695 C1689 0.959 . S
H1696 C1689 0.961 1_545 S
H1697 C1689 0.960 . S
H1698 C1690 0.930 1_565 S
H1699 C1691 0.929 . S
H1700 C1708 0.929 . S
H1701 C1710 0.930 . S
H1702 C1712 0.930 . S
H1703 C1715 0.929 . S
H1704 C1718 0.929 . S
H1705 C1720 0.960 . S
H1706 C1720 0.960 . S
H1707 C1720 0.960 . S
C1708 H1700 0.929 . S
C1708 C1709 1.377 . S
C1708 C1710 1.384 . S
C1709 C1708 1.377 . S
C1709 C1715 1.390 . S
C1710 H1701 0.930 . S
C1710 C1708 1.384 . S
C1710 C1711 1.372 . S
C1711 C1710 1.372 . S
C1711 C1712 1.400 . S
C1711 C1716 1.490 . S
C1712 H1702 0.930 . S
C1712 C1711 1.400 . S
C1712 C1715 1.386 . S
H1713 C1729 0.930 . S
H1714 C1730 0.931 . S
C1715 H1703 0.929 . S
C1715 C1709 1.390 . S
C1715 C1712 1.386 . S
C1716 C1711 1.490 . S
C1716 C1718 1.355 1_554 S
C1716 C1719 1.403 . S
H1717 C1723 0.930 . S
C1718 H1704 0.929 . S
C1718 C1716 1.355 1_556 S
C1718 C1721 1.445 . S
C1719 C1716 1.403 . S
C1719 C1720 1.524 . S
C1719 C1723 1.400 1_554 S
C1720 H1705 0.960 . S
C1720 H1706 0.960 . S
C1720 H1707 0.960 . S
C1720 C1719 1.524 . S
C1721 C1718 1.445 . S
C1721 C1722 1.392 . S
C1721 C1725 1.495 . S
C1722 C1721 1.392 . S
C1722 C1723 1.385 . S
C1722 C1724 1.478 . S
C1723 H1717 0.930 . S
C1723 C1719 1.400 1_556 S
C1723 C1722 1.385 . S
C1724 C1722 1.478 . S
C1724 C1726 1.381 . S
C1724 C1730 1.383 . S
C1725 C1721 1.495 . S
C1725 H1731 0.959 . S
C1725 H1732 0.961 . S
C1725 H1733 0.960 . S
C1726 C1724 1.381 . S
C1726 C1727 1.394 . S
C1726 H1734 0.930 . S
C1727 C1726 1.394 . S
C1727 C1728 1.383 . S
C1727 H1735 0.929 . S
C1728 C1727 1.383 . S
C1728 C1729 1.377 . S
C1729 H1713 0.930 . S
C1729 C1728 1.377 . S
C1729 C1730 1.379 . S
C1730 H1714 0.931 . S
C1730 C1724 1.383 . S
C1730 C1729 1.379 . S
H1731 C1725 0.959 . S
H1732 C1725 0.961 . S
H1733 C1725 0.960 . S
H1734 C1726 0.930 . S
H1735 C1727 0.929 . S
H1736 C1744 0.929 . S
H1737 C1746 0.930 . S
H1738 C1748 0.930 . S
H1739 C1751 0.929 . S
H1740 C1754 0.930 . S
H1741 C1756 0.960 . S
H1742 C1756 0.960 . S
H1743 C1756 0.960 . S
C1744 H1736 0.929 . S
C1744 C1745 1.377 . S
C1744 C1746 1.384 . S
C1745 C1744 1.377 . S
C1745 C1751 1.390 . S
C1746 H1737 0.930 . S
C1746 C1744 1.384 . S
C1746 C1747 1.372 . S
C1747 C1746 1.372 . S
C1747 C1748 1.400 . S
C1747 C1752 1.490 . S
C1748 H1738 0.930 . S
C1748 C1747 1.400 . S
C1748 C1751 1.386 . S
H1749 C1765 0.930 . S
H1750 C1766 0.931 . S
C1751 H1739 0.929 . S
C1751 C1745 1.390 . S
C1751 C1748 1.386 . S
C1752 C1747 1.490 . S
C1752 C1754 1.395 . S
C1752 C1755 1.403 . S
H1753 C1759 0.930 . S
C1754 H1740 0.930 . S
C1754 C1752 1.395 . S
C1754 C1757 1.403 . S
C1755 C1752 1.403 . S
C1755 C1756 1.524 . S
C1755 C1759 1.400 . S
C1756 H1741 0.960 . S
C1756 H1742 0.960 . S
C1756 H1743 0.960 . S
C1756 C1755 1.524 . S
C1757 C1754 1.403 . S
C1757 C1758 1.392 . S
C1757 C1761 1.495 . S
C1758 C1757 1.392 . S
C1758 C1759 1.385 . S
C1758 C1760 1.478 . S
C1759 H1753 0.930 . S
C1759 C1755 1.400 . S
C1759 C1758 1.385 . S
C1760 C1758 1.478 . S
C1760 C1762 1.381 . S
C1760 C1766 1.383 . S
C1761 C1757 1.495 . S
C1761 H1767 0.959 . S
C1761 H1768 0.961 . S
C1761 H1769 0.960 . S
C1762 C1760 1.381 . S
C1762 C1763 1.394 . S
C1762 H1770 0.930 . S
C1763 C1762 1.394 . S
C1763 C1764 1.383 . S
C1763 H1771 0.929 . S
C1764 C1763 1.383 . S
C1764 C1765 1.377 . S
C1765 H1749 0.930 . S
C1765 C1764 1.377 . S
C1765 C1766 1.379 . S
C1766 H1750 0.931 . S
C1766 C1760 1.383 . S
C1766 C1765 1.379 . S
H1767 C1761 0.959 . S
H1768 C1761 0.961 . S
H1769 C1761 0.960 . S
H1770 C1762 0.930 . S
H1771 C1763 0.929 . S
H1772 C1780 0.929 . S
H1773 C1782 0.930 1_565 S
H1774 C1784 0.930 . S
H1775 C1787 0.929 . S
H1776 C1790 0.930 . S
H1777 C1792 0.960 1_565 S
H1778 C1792 0.960 1_565 S
H1779 C1792 0.960 . S
C1780 H1772 0.929 . S
C1780 C1781 1.377 . S
C1780 C1782 1.384 . S
C1781 C1780 1.377 . S
C1781 C1787 1.390 . S
C1782 H1773 0.930 1_545 S
C1782 C1780 1.384 . S
C1782 C1783 1.372 . S
C1783 C1782 1.372 . S
C1783 C1784 1.400 . S
C1783 C1788 1.490 . S
C1784 H1774 0.930 . S
C1784 C1783 1.400 . S
C1784 C1787 1.386 . S
H1785 C1801 0.930 . S
H1786 C1802 0.931 1_545 S
C1787 H1775 0.929 . S
C1787 C1781 1.390 . S
C1787 C1784 1.386 . S
C1788 C1783 1.490 . S
C1788 C1790 1.395 . S
C1788 C1791 1.403 . S
H1789 C1795 0.930 . S
C1790 H1776 0.930 . S
C1790 C1788 1.395 . S
C1790 C1793 1.403 1_545 S
C1791 C1788 1.403 . S
C1791 C1792 1.524 . S
C1791 C1795 1.400 1_545 S
C1792 H1777 0.960 1_545 S
C1792 H1778 0.960 1_545 S
C1792 H1779 0.960 . S
C1792 C1791 1.524 . S
C1793 C1790 1.403 1_565 S
C1793 C1794 1.392 . S
C1793 C1797 1.495 . S
C1794 C1793 1.392 . S
C1794 C1795 1.385 . S
C1794 C1796 1.478 . S
C1795 H1789 0.930 . S
C1795 C1791 1.400 1_565 S
C1795 C1794 1.385 . S
C1796 C1794 1.478 . S
C1796 C1798 1.381 . S
C1796 C1802 1.383 . S
C1797 C1793 1.495 . S
C1797 H1803 0.959 . S
C1797 H1804 0.961 1_565 S
C1797 H1805 0.960 . S
C1798 C1796 1.381 . S
C1798 C1799 1.394 . S
C1798 H1806 0.930 . S
C1799 C1798 1.394 . S
C1799 C1800 1.383 . S
C1799 H1807 0.929 . S
C1800 C1799 1.383 . S
C1800 C1801 1.377 . S
C1801 H1785 0.930 . S
C1801 C1800 1.377 . S
C1801 C1802 1.379 . S
C1802 H1786 0.931 1_565 S
C1802 C1796 1.383 . S
C1802 C1801 1.379 . S
H1803 C1797 0.959 . S
H1804 C1797 0.961 1_545 S
H1805 C1797 0.960 . S
H1806 C1798 0.930 . S
H1807 C1799 0.929 . S
H1808 C1816 0.929 . S
H1809 C1818 0.930 . S
H1810 C1820 0.930 . S
H1811 C1823 0.929 . S
H1812 C1826 0.930 . S
H1813 C1828 0.960 . S
H1814 C1828 0.960 . S
H1815 C1828 0.960 . S
C1816 H1808 0.929 . S
C1816 C1817 1.377 . S
C1816 C1818 1.384 . S
C1817 C1816 1.377 . S
C1817 C1823 1.390 . S
C1818 H1809 0.930 . S
C1818 C1816 1.384 . S
C1818 C1819 1.372 . S
C1819 C1818 1.372 . S
C1819 C1820 1.400 . S
C1819 C1824 1.490 . S
C1820 H1810 0.930 . S
C1820 C1819 1.400 . S
C1820 C1823 1.386 . S
H1821 C1837 0.930 . S
H1822 C1838 0.931 . S
C1823 H1811 0.929 . S
C1823 C1817 1.390 . S
C1823 C1820 1.386 . S
C1824 C1819 1.490 . S
C1824 C1826 1.395 . S
C1824 C1827 1.403 . S
H1825 C1831 0.930 . S
C1826 H1812 0.930 . S
C1826 C1824 1.395 . S
C1826 C1829 1.403 1_556 S
C1827 C1824 1.403 . S
C1827 C1828 1.524 . S
C1827 C1831 1.400 1_556 S
C1828 H1813 0.960 . S
C1828 H1814 0.960 . S
C1828 H1815 0.960 . S
C1828 C1827 1.524 . S
C1829 C1826 1.403 1_554 S
C1829 C1830 1.392 . S
C1829 C1833 1.495 . S
C1830 C1829 1.392 . S
C1830 C1831 1.385 . S
C1830 C1832 1.478 . S
C1831 H1825 0.930 . S
C1831 C1827 1.400 1_554 S
C1831 C1830 1.385 . S
C1832 C1830 1.478 . S
C1832 C1834 1.381 . S
C1832 C1838 1.383 . S
C1833 C1829 1.495 . S
C1833 H1839 0.959 . S
C1833 H1840 0.961 . S
C1833 H1841 0.960 . S
C1834 C1832 1.381 . S
C1834 C1835 1.394 . S
C1834 H1842 0.930 . S
C1835 C1834 1.394 . S
C1835 C1836 1.383 . S
C1835 H1843 0.929 . S
C1836 C1835 1.383 . S
C1836 C1837 1.377 . S
C1837 H1821 0.930 . S
C1837 C1836 1.377 . S
C1837 C1838 1.379 . S
C1838 H1822 0.931 . S
C1838 C1832 1.383 . S
C1838 C1837 1.379 . S
H1839 C1833 0.959 . S
H1840 C1833 0.961 . S
H1841 C1833 0.960 . S
H1842 C1834 0.930 . S
H1843 C1835 0.929 . S
H1844 C1852 0.929 . S
H1845 C1854 0.930 . S
H1846 C1856 0.930 . S
H1847 C1859 0.929 . S
H1848 C1862 0.930 . S
H1849 C1864 0.960 . S
H1850 C1864 0.960 . S
H1851 C1864 0.960 . S
C1852 H1844 0.929 . S
C1852 C1853 1.377 . S
C1852 C1854 1.384 . S
C1853 C1852 1.377 . S
C1853 C1859 1.390 . S
C1854 H1845 0.930 . S
C1854 C1852 1.384 . S
C1854 C1855 1.372 . S
C1855 C1854 1.372 . S
C1855 C1856 1.400 . S
C1855 C1860 1.490 . S
C1856 H1846 0.930 . S
C1856 C1855 1.400 . S
C1856 C1859 1.386 . S
H1857 C1873 0.930 . S
H1858 C1874 0.931 . S
C1859 H1847 0.929 . S
C1859 C1853 1.390 . S
C1859 C1856 1.386 . S
C1860 C1855 1.490 . S
C1860 C1862 1.395 . S
C1860 C1863 1.403 . S
H1861 C1867 0.930 . S
C1862 H1848 0.930 . S
C1862 C1860 1.395 . S
C1862 C1865 1.403 . S
C1863 C1860 1.403 . S
C1863 C1864 1.524 . S
C1863 C1867 1.400 . S
C1864 H1849 0.960 . S
C1864 H1850 0.960 . S
C1864 H1851 0.960 . S
C1864 C1863 1.524 . S
C1865 C1862 1.403 . S
C1865 C1866 1.392 . S
C1865 C1869 1.495 . S
C1866 C1865 1.392 . S
C1866 C1867 1.385 . S
C1866 C1868 1.478 . S
C1867 H1861 0.930 . S
C1867 C1863 1.400 . S
C1867 C1866 1.385 . S
C1868 C1866 1.478 . S
C1868 C1870 1.381 . S
C1868 C1874 1.383 . S
C1869 C1865 1.495 . S
C1869 H1875 0.959 . S
C1869 H1876 0.961 . S
C1869 H1877 0.960 . S
C1870 C1868 1.381 . S
C1870 C1871 1.394 . S
C1870 H1878 0.930 . S
C1871 C1870 1.394 . S
C1871 C1872 1.383 . S
C1871 H1879 0.929 . S
C1872 C1871 1.383 . S
C1872 C1873 1.377 . S
C1873 H1857 0.930 . S
C1873 C1872 1.377 . S
C1873 C1874 1.379 . S
C1874 H1858 0.931 . S
C1874 C1868 1.383 . S
C1874 C1873 1.379 . S
H1875 C1869 0.959 . S
H1876 C1869 0.961 . S
H1877 C1869 0.960 . S
H1878 C1870 0.930 . S
H1879 C1871 0.929 . S
H1880 C1888 0.929 . S
H1881 C1890 0.930 1_565 S
H1882 C1892 0.930 . S
H1883 C1895 0.929 . S
H1884 C1898 0.930 . S
H1885 C1900 0.960 . S
H1886 C1900 0.960 . S
H1887 C1900 0.960 . S
C1888 H1880 0.929 . S
C1888 C1889 1.377 . S
C1888 C1890 1.384 . S
C1889 C1888 1.377 . S
C1889 C1895 1.390 . S
C1890 H1881 0.930 1_545 S
C1890 C1888 1.384 . S
C1890 C1891 1.372 . S
C1891 C1890 1.372 . S
C1891 C1892 1.400 . S
C1891 C1896 1.490 . S
C1892 H1882 0.930 . S
C1892 C1891 1.400 . S
C1892 C1895 1.386 . S
H1893 C1909 0.930 . S
H1894 C1910 0.931 1_545 S
C1895 H1883 0.929 . S
C1895 C1889 1.390 . S
C1895 C1892 1.386 . S
C1896 C1891 1.490 . S
C1896 C1898 1.395 . S
C1896 C1899 1.403 . S
H1897 C1903 0.930 . S
C1898 H1884 0.930 . S
C1898 C1896 1.395 . S
C1898 C1901 1.403 1_545 S
C1899 C1896 1.403 . S
C1899 C1900 1.524 . S
C1899 C1903 1.400 1_545 S
C1900 H1885 0.960 . S
C1900 H1886 0.960 . S
C1900 H1887 0.960 . S
C1900 C1899 1.524 . S
C1901 C1898 1.403 1_565 S
C1901 C1902 1.392 . S
C1901 C1905 1.495 . S
C1902 C1901 1.392 . S
C1902 C1903 1.385 . S
C1902 C1904 1.478 . S
C1903 H1897 0.930 . S
C1903 C1899 1.400 1_565 S
C1903 C1902 1.385 . S
C1904 C1902 1.478 . S
C1904 C1906 1.381 . S
C1904 C1910 1.383 . S
C1905 C1901 1.495 . S
C1905 H1911 0.959 . S
C1905 H1912 0.961 . S
C1905 H1913 0.960 . S
C1906 C1904 1.381 . S
C1906 C1907 1.394 . S
C1906 H1914 0.930 . S
C1907 C1906 1.394 . S
C1907 C1908 1.383 . S
C1907 H1915 0.929 . S
C1908 C1907 1.383 . S
C1908 C1909 1.377 . S
C1909 H1893 0.930 . S
C1909 C1908 1.377 . S
C1909 C1910 1.379 . S
C1910 H1894 0.931 1_565 S
C1910 C1904 1.383 . S
C1910 C1909 1.379 . S
H1911 C1905 0.959 . S
H1912 C1905 0.961 . S
H1913 C1905 0.960 . S
H1914 C1906 0.930 . S
H1915 C1907 0.929 . S
H1916 C1924 0.929 . S
H1917 C1926 0.930 . S
H1918 C1928 0.930 . S
H1919 C1931 0.929 . S
H1920 C1934 0.930 . S
H1921 C1936 0.960 . S
H1922 C1936 0.960 . S
H1923 C1936 0.960 . S
C1924 H1916 0.929 . S
C1924 C1925 1.377 . S
C1924 C1926 1.384 . S
C1925 C1924 1.377 . S
C1925 C1931 1.390 . S
C1926 H1917 0.930 . S
C1926 C1924 1.384 . S
C1926 C1927 1.372 . S
C1927 C1926 1.372 . S
C1927 C1928 1.400 . S
C1927 C1932 1.490 . S
C1928 H1918 0.930 . S
C1928 C1927 1.400 . S
C1928 C1931 1.386 . S
H1929 C1945 0.930 . S
H1930 C1946 0.931 . S
C1931 H1919 0.929 . S
C1931 C1925 1.390 . S
C1931 C1928 1.386 . S
C1932 C1927 1.490 . S
C1932 C1934 1.395 . S
C1932 C1935 1.403 . S
H1933 C1939 0.930 . S
C1934 H1920 0.930 . S
C1934 C1932 1.395 . S
C1934 C1937 1.403 . S
C1935 C1932 1.403 . S
C1935 C1936 1.524 . S
C1935 C1939 1.400 . S
C1936 H1921 0.960 . S
C1936 H1922 0.960 . S
C1936 H1923 0.960 . S
C1936 C1935 1.524 . S
C1937 C1934 1.403 . S
C1937 C1938 1.392 . S
C1937 C1941 1.495 . S
C1938 C1937 1.392 . S
C1938 C1939 1.385 . S
C1938 C1940 1.478 . S
C1939 H1933 0.930 . S
C1939 C1935 1.400 . S
C1939 C1938 1.385 . S
C1940 C1938 1.478 . S
C1940 C1942 1.381 . S
C1940 C1946 1.383 . S
C1941 C1937 1.495 . S
C1941 H1947 0.959 . S
C1941 H1948 0.961 . S
C1941 H1949 0.960 . S
C1942 C1940 1.381 . S
C1942 C1943 1.394 . S
C1942 H1950 0.930 . S
C1943 C1942 1.394 . S
C1943 C1944 1.383 . S
C1943 H1951 0.929 . S
C1944 C1943 1.383 . S
C1944 C1945 1.377 . S
C1945 H1929 0.930 . S
C1945 C1944 1.377 . S
C1945 C1946 1.379 . S
C1946 H1930 0.931 . S
C1946 C1940 1.383 . S
C1946 C1945 1.379 . S
H1947 C1941 0.959 . S
H1948 C1941 0.961 . S
H1949 C1941 0.960 . S
H1950 C1942 0.930 . S
H1951 C1943 0.929 . S
H1952 C1960 0.929 . S
H1953 C1962 0.930 . S
H1954 C1964 0.930 . S
H1955 C1967 0.929 . S
H1956 C1970 0.930 . S
H1957 C1972 0.960 . S
H1958 C1972 0.960 . S
H1959 C1972 0.960 . S
C1960 H1952 0.929 . S
C1960 C1961 1.377 . S
C1960 C1962 1.384 . S
C1961 C1960 1.377 . S
C1961 C1967 1.390 . S
C1962 H1953 0.930 . S
C1962 C1960 1.384 . S
C1962 C1963 1.372 . S
C1963 C1962 1.372 . S
C1963 C1964 1.400 . S
C1963 C1968 1.490 . S
C1964 H1954 0.930 . S
C1964 C1963 1.400 . S
C1964 C1967 1.386 . S
H1965 C1981 0.930 . S
H1966 C1982 0.931 . S
C1967 H1955 0.929 . S
C1967 C1961 1.390 . S
C1967 C1964 1.386 . S
C1968 C1963 1.490 . S
C1968 C1970 1.395 . S
C1968 C1971 1.403 . S
H1969 C1975 0.930 . S
C1970 H1956 0.930 . S
C1970 C1968 1.395 . S
C1970 C1973 1.403 . S
C1971 C1968 1.403 . S
C1971 C1972 1.524 . S
C1971 C1975 1.400 . S
C1972 H1957 0.960 . S
C1972 H1958 0.960 . S
C1972 H1959 0.960 . S
C1972 C1971 1.524 . S
C1973 C1970 1.403 . S
C1973 C1974 1.392 . S
C1973 C1977 1.495 . S
C1974 C1973 1.392 . S
C1974 C1975 1.385 . S
C1974 C1976 1.478 . S
C1975 H1969 0.930 . S
C1975 C1971 1.400 . S
C1975 C1974 1.385 . S
C1976 C1974 1.478 . S
C1976 C1978 1.381 . S
C1976 C1982 1.383 . S
C1977 C1973 1.495 . S
C1977 H1983 0.959 . S
C1977 H1984 0.961 . S
C1977 H1985 0.960 . S
C1978 C1976 1.381 . S
C1978 C1979 1.394 . S
C1978 H1986 0.930 . S
C1979 C1978 1.394 . S
C1979 C1980 1.383 . S
C1979 H1987 0.929 . S
C1980 C1979 1.383 . S
C1980 C1981 1.377 . S
C1981 H1965 0.930 . S
C1981 C1980 1.377 . S
C1981 C1982 1.379 . S
C1982 H1966 0.931 . S
C1982 C1976 1.383 . S
C1982 C1981 1.379 . S
H1983 C1977 0.959 . S
H1984 C1977 0.961 . S
H1985 C1977 0.960 . S
H1986 C1978 0.930 . S
H1987 C1979 0.929 . S
H1988 C1996 0.929 . S
H1989 C1998 0.930 . S
H1990 C2000 0.930 . S
H1991 C2003 0.929 . S
H1992 C2006 0.930 . S
H1993 C2008 0.960 . S
H1994 C2008 0.960 . S
H1995 C2008 0.960 . S
C1996 H1988 0.929 . S
C1996 C1997 1.377 . S
C1996 C1998 1.384 . S
C1997 C1996 1.377 . S
C1997 C2003 1.390 . S
C1998 H1989 0.930 . S
C1998 C1996 1.384 . S
C1998 C1999 1.372 . S
C1999 C1998 1.372 . S
C1999 C2000 1.400 . S
C1999 C2004 1.490 . S
C2000 H1990 0.930 . S
C2000 C1999 1.400 . S
C2000 C2003 1.386 . S
H2001 C2017 0.930 . S
H2002 C2018 0.931 . S
C2003 H1991 0.929 . S
C2003 C1997 1.390 . S
C2003 C2000 1.386 . S
C2004 C1999 1.490 . S
C2004 C2006 1.395 . S
C2004 C2007 1.403 . S
H2005 C2011 0.930 . S
C2006 H1992 0.930 . S
C2006 C2004 1.395 . S
C2006 C2009 1.403 . S
C2007 C2004 1.403 . S
C2007 C2008 1.524 . S
C2007 C2011 1.400 . S
C2008 H1993 0.960 . S
C2008 H1994 0.960 . S
C2008 H1995 0.960 . S
C2008 C2007 1.524 . S
C2009 C2006 1.403 . S
C2009 C2010 1.392 . S
C2009 C2013 1.495 . S
C2010 C2009 1.392 . S
C2010 C2011 1.385 . S
C2010 C2012 1.478 . S
C2011 H2005 0.930 . S
C2011 C2007 1.400 . S
C2011 C2010 1.385 . S
C2012 C2010 1.478 . S
C2012 C2014 1.381 . S
C2012 C2018 1.383 . S
C2013 C2009 1.495 . S
C2013 H2019 0.959 . S
C2013 H2020 0.961 . S
C2013 H2021 0.960 . S
C2014 C2012 1.381 . S
C2014 C2015 1.394 . S
C2014 H2022 0.930 . S
C2015 C2014 1.394 . S
C2015 C2016 1.383 . S
C2015 H2023 0.929 . S
C2016 C2015 1.383 . S
C2016 C2017 1.377 . S
C2017 H2001 0.930 . S
C2017 C2016 1.377 . S
C2017 C2018 1.379 . S
C2018 H2002 0.931 . S
C2018 C2012 1.383 . S
C2018 C2017 1.379 . S
H2019 C2013 0.959 . S
H2020 C2013 0.961 . S
H2021 C2013 0.960 . S
H2022 C2014 0.930 . S
H2023 C2015 0.929 . S
H2024 C2032 0.929 . S
H2025 C2034 0.930 . S
H2026 C2036 0.930 . S
H2027 C2039 0.929 . S
H2028 C2042 0.930 . S
H2029 C2044 0.960 . S
H2030 C2044 0.960 . S
H2031 C2044 0.960 . S
C2032 H2024 0.929 . S
C2032 C2033 1.377 . S
C2032 C2034 1.384 . S
C2033 C2032 1.377 . S
C2033 C2039 1.390 . S
C2034 H2025 0.930 . S
C2034 C2032 1.384 . S
C2034 C2035 1.372 . S
C2035 C2034 1.372 . S
C2035 C2036 1.400 . S
C2035 C2040 1.490 . S
C2036 H2026 0.930 . S
C2036 C2035 1.400 . S
C2036 C2039 1.386 . S
H2037 C2053 0.930 . S
H2038 C2054 0.931 . S
C2039 H2027 0.929 . S
C2039 C2033 1.390 . S
C2039 C2036 1.386 . S
C2040 C2035 1.490 . S
C2040 C2042 1.395 . S
C2040 C2043 1.403 . S
H2041 C2047 0.930 . S
C2042 H2028 0.930 . S
C2042 C2040 1.395 . S
C2042 C2045 1.403 . S
C2043 C2040 1.403 . S
C2043 C2044 1.524 . S
C2043 C2047 1.400 . S
C2044 H2029 0.960 . S
C2044 H2030 0.960 . S
C2044 H2031 0.960 . S
C2044 C2043 1.524 . S
C2045 C2042 1.403 . S
C2045 C2046 1.392 . S
C2045 C2049 1.495 . S
C2046 C2045 1.392 . S
C2046 C2047 1.385 . S
C2046 C2048 1.478 . S
C2047 H2041 0.930 . S
C2047 C2043 1.400 . S
C2047 C2046 1.385 . S
C2048 C2046 1.478 . S
C2048 C2050 1.381 . S
C2048 C2054 1.383 . S
C2049 C2045 1.495 . S
C2049 H2055 0.959 . S
C2049 H2056 0.961 . S
C2049 H2057 0.960 . S
C2050 C2048 1.381 . S
C2050 C2051 1.394 . S
C2050 H2058 0.930 . S
C2051 C2050 1.394 . S
C2051 C2052 1.383 . S
C2051 H2059 0.929 . S
C2052 C2051 1.383 . S
C2052 C2053 1.377 . S
C2053 H2037 0.930 . S
C2053 C2052 1.377 . S
C2053 C2054 1.379 . S
C2054 H2038 0.931 . S
C2054 C2048 1.383 . S
C2054 C2053 1.379 . S
H2055 C2049 0.959 . S
H2056 C2049 0.961 . S
H2057 C2049 0.960 . S
H2058 C2050 0.930 . S
H2059 C2051 0.929 . S
H2060 C2068 0.929 . S
H2061 C2070 0.930 . S
H2062 C2072 0.930 . S
H2063 C2075 0.929 . S
H2064 C2078 0.930 . S
H2065 C2080 0.960 . S
H2066 C2080 0.960 . S
H2067 C2080 0.960 . S
C2068 H2060 0.929 . S
C2068 C2069 1.377 . S
C2068 C2070 1.384 . S
C2069 C2068 1.377 . S
C2069 C2075 1.390 . S
C2070 H2061 0.930 . S
C2070 C2068 1.384 . S
C2070 C2071 1.372 . S
C2071 C2070 1.372 . S
C2071 C2072 1.400 . S
C2071 C2076 1.490 . S
C2072 H2062 0.930 . S
C2072 C2071 1.400 . S
C2072 C2075 1.386 . S
H2073 C2089 0.930 . S
H2074 C2090 0.931 . S
C2075 H2063 0.929 . S
C2075 C2069 1.390 . S
C2075 C2072 1.386 . S
C2076 C2071 1.490 . S
C2076 C2078 1.395 . S
C2076 C2079 1.403 . S
H2077 C2083 0.930 . S
C2078 H2064 0.930 . S
C2078 C2076 1.395 . S
C2078 C2081 1.403 . S
C2079 C2076 1.403 . S
C2079 C2080 1.524 . S
C2079 C2083 1.400 . S
C2080 H2065 0.960 . S
C2080 H2066 0.960 . S
C2080 H2067 0.960 . S
C2080 C2079 1.524 . S
C2081 C2078 1.403 . S
C2081 C2082 1.392 . S
C2081 C2085 1.495 . S
C2082 C2081 1.392 . S
C2082 C2083 1.385 . S
C2082 C2084 1.478 . S
C2083 H2077 0.930 . S
C2083 C2079 1.400 . S
C2083 C2082 1.385 . S
C2084 C2082 1.478 . S
C2084 C2086 1.381 . S
C2084 C2090 1.383 . S
C2085 C2081 1.495 . S
C2085 H2091 0.959 . S
C2085 H2092 0.961 . S
C2085 H2093 0.960 . S
C2086 C2084 1.381 . S
C2086 C2087 1.394 . S
C2086 H2094 0.930 . S
C2087 C2086 1.394 . S
C2087 C2088 1.383 . S
C2087 H2095 0.929 . S
C2088 C2087 1.383 . S
C2088 C2089 1.377 . S
C2089 H2073 0.930 . S
C2089 C2088 1.377 . S
C2089 C2090 1.379 . S
C2090 H2074 0.931 . S
C2090 C2084 1.383 . S
C2090 C2089 1.379 . S
H2091 C2085 0.959 . S
H2092 C2085 0.961 . S
H2093 C2085 0.960 . S
H2094 C2086 0.930 . S
H2095 C2087 0.929 . S
H2096 C2104 0.929 . S
H2097 C2106 0.930 1_655 S
H2098 C2108 0.930 . S
H2099 C2111 0.929 . S
H2100 C2114 0.930 . S
H2101 C2116 0.960 . S
H2102 C2116 0.960 . S
H2103 C2116 0.960 . S
C2104 H2096 0.929 . S
C2104 C2105 1.377 . S
C2104 C2106 1.384 . S
C2105 C2104 1.377 . S
C2105 C2111 1.390 . S
C2106 H2097 0.930 1_455 S
C2106 C2104 1.384 . S
C2106 C2107 1.372 . S
C2107 C2106 1.372 . S
C2107 C2108 1.400 . S
C2107 C2112 1.490 . S
C2108 H2098 0.930 . S
C2108 C2107 1.400 . S
C2108 C2111 1.386 . S
H2109 C2125 0.930 . S
H2110 C2126 0.901 1_455 S
C2111 H2099 0.929 . S
C2111 C2105 1.390 . S
C2111 C2108 1.386 . S
C2112 C2107 1.490 . S
C2112 C2114 1.395 1_455 S
C2112 C2115 1.403 1_565 S
H2113 C2119 0.930 . S
C2114 H2100 0.930 . S
C2114 C2112 1.395 1_655 S
C2114 C2117 1.403 . S
C2115 C2112 1.403 1_545 S
C2115 C2116 1.524 . S
C2115 C2119 1.400 . S
C2116 H2101 0.960 . S
C2116 H2102 0.960 . S
C2116 H2103 0.960 . S
C2116 C2115 1.524 . S
C2117 C2114 1.403 . S
C2117 C2118 1.392 1_565 S
C2117 C2121 1.495 . S
C2118 C2117 1.392 1_545 S
C2118 C2119 1.385 1_655 S
C2118 C2120 1.478 . S
C2119 H2113 0.930 . S
C2119 C2115 1.400 . S
C2119 C2118 1.385 1_455 S
C2120 C2118 1.478 . S
C2120 C2122 1.381 . S
C2120 C2126 1.383 . S
C2121 C2117 1.495 . S
C2121 H2127 0.959 . S
C2121 H2128 0.961 . S
C2121 H2129 0.960 . S
C2122 C2120 1.381 . S
C2122 C2123 1.394 . S
C2122 H2130 0.930 . S
C2123 C2122 1.394 . S
C2123 C2124 1.383 . S
C2123 H2131 0.929 . S
C2124 C2123 1.383 . S
C2124 C2125 1.377 . S
C2125 H2109 0.930 . S
C2125 C2124 1.377 . S
C2125 C2126 1.379 . S
C2126 H2110 0.901 1_655 S
C2126 C2120 1.383 . S
C2126 C2125 1.379 . S
H2127 C2121 0.959 . S
H2128 C2121 0.961 . S
H2129 C2121 0.960 . S
H2130 C2122 0.930 . S
H2131 C2123 0.929 . S
H2132 C2140 0.929 . S
H2133 C2142 0.930 . S
H2134 C2144 0.930 . S
H2135 C2147 0.929 . S
H2136 C2150 0.930 . S
H2137 C2152 0.960 . S
H2138 C2152 0.960 . S
H2139 C2152 0.960 . S
C2140 H2132 0.929 . S
C2140 C2141 1.377 . S
C2140 C2142 1.384 . S
C2141 C2140 1.377 . S
C2141 C2147 1.390 . S
C2142 H2133 0.930 . S
C2142 C2140 1.384 . S
C2142 C2143 1.372 . S
C2143 C2142 1.372 . S
C2143 C2144 1.400 . S
C2143 C2148 1.490 . S
C2144 H2134 0.930 . S
C2144 C2143 1.400 . S
C2144 C2147 1.386 . S
H2145 C2161 0.930 . S
H2146 C2162 0.931 . S
C2147 H2135 0.929 . S
C2147 C2141 1.390 . S
C2147 C2144 1.386 . S
C2148 C2143 1.490 . S
C2148 C2150 1.395 1_655 S
C2148 C2151 1.403 . S
H2149 C2155 0.930 . S
C2150 H2136 0.930 . S
C2150 C2148 1.395 1_455 S
C2150 C2153 1.403 . S
C2151 C2148 1.403 . S
C2151 C2152 1.524 . S
C2151 C2155 1.400 . S
C2152 H2137 0.960 . S
C2152 H2138 0.960 . S
C2152 H2139 0.960 . S
C2152 C2151 1.524 . S
C2153 C2150 1.403 . S
C2153 C2154 1.392 . S
C2153 C2157 1.495 . S
C2154 C2153 1.392 . S
C2154 C2155 1.385 1_455 S
C2154 C2156 1.478 . S
C2155 H2149 0.930 . S
C2155 C2151 1.400 . S
C2155 C2154 1.385 1_655 S
C2156 C2154 1.478 . S
C2156 C2158 1.381 . S
C2156 C2162 1.383 . S
C2157 C2153 1.495 . S
C2157 H2163 0.959 . S
C2157 H2164 0.961 . S
C2157 H2165 0.960 . S
C2158 C2156 1.381 . S
C2158 C2159 1.394 . S
C2158 H2166 0.930 . S
C2159 C2158 1.394 . S
C2159 C2160 1.383 . S
C2159 H2167 0.929 . S
C2160 C2159 1.383 . S
C2160 C2161 1.377 . S
C2161 H2145 0.930 . S
C2161 C2160 1.377 . S
C2161 C2162 1.379 . S
C2162 H2146 0.931 . S
C2162 C2156 1.383 . S
C2162 C2161 1.379 . S
H2163 C2157 0.959 . S
H2164 C2157 0.961 . S
H2165 C2157 0.960 . S
H2166 C2158 0.930 . S
H2167 C2159 0.929 . S
H2168 C2176 0.929 . S
H2169 C2178 0.930 . S
H2170 C2180 0.930 1_655 S
H2171 C2183 0.929 . S
H2172 C2186 0.930 . S
H2173 C2188 0.944 1_655 S
H2174 C2188 0.960 . S
H2175 C2188 0.960 1_655 S
C2176 H2168 0.929 . S
C2176 C2177 1.377 . S
C2176 C2178 1.384 . S
C2177 C2176 1.377 . S
C2177 C2183 1.390 . S
C2178 H2169 0.930 . S
C2178 C2176 1.384 . S
C2178 C2179 1.372 . S
C2179 C2178 1.372 . S
C2179 C2180 1.400 . S
C2179 C2184 1.490 . S
C2180 H2170 0.930 1_455 S
C2180 C2179 1.400 . S
C2180 C2183 1.386 . S
H2181 C2197 0.930 . S
H2182 C2198 0.931 . S
C2183 H2171 0.929 . S
C2183 C2177 1.390 . S
C2183 C2180 1.386 . S
C2184 C2179 1.490 . S
C2184 C2186 1.395 . S
C2184 C2187 1.403 . S
H2185 C2191 0.930 . S
C2186 H2172 0.930 . S
C2186 C2184 1.395 . S
C2186 C2189 1.403 1_455 S
C2187 C2184 1.403 . S
C2187 C2188 1.524 . S
C2187 C2191 1.400 1_455 S
C2188 H2173 0.944 1_455 S
C2188 H2174 0.960 . S
C2188 H2175 0.960 1_455 S
C2188 C2187 1.524 . S
C2189 C2186 1.403 1_655 S
C2189 C2190 1.393 . S
C2189 C2193 1.493 . S
C2190 C2189 1.393 . S
C2190 C2191 1.385 . S
C2190 C2192 1.478 . S
C2191 H2185 0.930 . S
C2191 C2187 1.400 1_655 S
C2191 C2190 1.385 . S
C2192 C2190 1.478 . S
C2192 C2194 1.381 . S
C2192 C2198 1.383 . S
C2193 C2189 1.493 . S
C2193 H2199 0.932 1_655 S
C2193 H2200 1.043 . S
C2193 H2201 0.916 1_655 S
C2194 C2192 1.381 . S
C2194 C2195 1.394 . S
C2194 H2202 0.930 1_655 S
C2195 C2194 1.394 . S
C2195 C2196 1.383 . S
C2195 H2203 0.929 . S
C2196 C2195 1.383 . S
C2196 C2197 1.377 . S
C2197 H2181 0.930 . S
C2197 C2196 1.377 . S
C2197 C2198 1.379 . S
C2198 H2182 0.931 . S
C2198 C2192 1.383 . S
C2198 C2197 1.379 . S
H2199 C2193 0.932 1_455 S
H2200 C2193 1.043 . S
H2201 C2193 0.916 1_455 S
H2202 C2194 0.930 1_455 S
H2203 C2195 0.929 . S
H2204 C2212 0.929 . S
H2205 C2214 0.930 . S
H2206 C2216 0.930 . S
H2207 C2219 0.929 . S
H2208 C2222 0.930 . S
H2209 C2224 0.960 . S
H2210 C2224 0.960 . S
H2211 C2224 0.960 . S
C2212 H2204 0.929 . S
C2212 C2213 1.377 . S
C2212 C2214 1.384 . S
C2213 C2212 1.377 . S
C2213 C2219 1.390 . S
C2214 H2205 0.930 . S
C2214 C2212 1.384 . S
C2214 C2215 1.372 . S
C2215 C2214 1.372 . S
C2215 C2216 1.400 . S
C2215 C2220 1.490 . S
C2216 H2206 0.930 . S
C2216 C2215 1.400 . S
C2216 C2219 1.386 . S
H2217 C2233 0.930 . S
H2218 C2234 0.931 . S
C2219 H2207 0.929 . S
C2219 C2213 1.390 . S
C2219 C2216 1.386 . S
C2220 C2215 1.490 . S
C2220 C2222 1.395 . S
C2220 C2223 1.403 1_455 S
H2221 C2227 0.930 . S
C2222 H2208 0.930 . S
C2222 C2220 1.395 . S
C2222 C2225 1.403 1_556 S
C2223 C2220 1.403 1_655 S
C2223 C2224 1.524 . S
C2223 C2227 1.400 1_556 S
C2224 H2209 0.960 . S
C2224 H2210 0.960 . S
C2224 H2211 0.960 . S
C2224 C2223 1.524 . S
C2225 C2222 1.403 1_554 S
C2225 C2226 1.392 1_455 S
C2225 C2229 1.495 . S
C2226 C2225 1.392 1_655 S
C2226 C2227 1.385 . S
C2226 C2228 1.478 . S
C2227 H2221 0.930 . S
C2227 C2223 1.400 1_554 S
C2227 C2226 1.385 . S
C2228 C2226 1.478 . S
C2228 C2230 1.381 . S
C2228 C2234 1.383 . S
C2229 C2225 1.495 . S
C2229 H2235 0.959 . S
C2229 H2236 0.961 . S
C2229 H2237 0.960 . S
C2230 C2228 1.381 . S
C2230 C2231 1.394 . S
C2230 H2238 0.930 . S
C2231 C2230 1.394 . S
C2231 C2232 1.383 . S
C2231 H2239 0.929 . S
C2232 C2231 1.383 . S
C2232 C2233 1.377 . S
C2233 H2217 0.930 . S
C2233 C2232 1.377 . S
C2233 C2234 1.379 . S
C2234 H2218 0.931 . S
C2234 C2228 1.383 . S
C2234 C2233 1.379 . S
H2235 C2229 0.959 . S
H2236 C2229 0.961 . S
H2237 C2229 0.960 . S
H2238 C2230 0.930 . S
H2239 C2231 0.929 . S
H2240 C2248 0.929 . S
H2241 C2250 0.930 . S
H2242 C2252 0.930 . S
H2243 C2255 0.929 . S
H2244 C2258 0.930 . S
H2245 C2260 0.960 . S
H2246 C2260 0.960 . S
H2247 C2260 0.960 . S
C2248 H2240 0.929 . S
C2248 C2249 1.377 . S
C2248 C2250 1.384 . S
C2249 C2248 1.377 . S
C2249 C2255 1.390 . S
C2250 H2241 0.930 . S
C2250 C2248 1.384 . S
C2250 C2251 1.372 . S
C2251 C2250 1.372 . S
C2251 C2252 1.400 . S
C2251 C2256 1.490 . S
C2252 H2242 0.930 . S
C2252 C2251 1.400 . S
C2252 C2255 1.386 . S
H2253 C2269 0.930 . S
H2254 C2270 0.931 . S
C2255 H2243 0.929 . S
C2255 C2249 1.390 . S
C2255 C2252 1.386 . S
C2256 C2251 1.490 . S
C2256 C2258 1.395 . S
C2256 C2259 1.403 . S
H2257 C2263 0.930 . S
C2258 H2244 0.930 . S
C2258 C2256 1.395 . S
C2258 C2261 1.403 . S
C2259 C2256 1.403 . S
C2259 C2260 1.524 . S
C2259 C2263 1.400 . S
C2260 H2245 0.960 . S
C2260 H2246 0.960 . S
C2260 H2247 0.960 . S
C2260 C2259 1.524 . S
C2261 C2258 1.403 . S
C2261 C2262 1.392 . S
C2261 C2265 1.495 . S
C2262 C2261 1.392 . S
C2262 C2263 1.385 . S
C2262 C2264 1.478 . S
C2263 H2257 0.930 . S
C2263 C2259 1.400 . S
C2263 C2262 1.385 . S
C2264 C2262 1.478 . S
C2264 C2266 1.381 . S
C2264 C2270 1.383 . S
C2265 C2261 1.495 . S
C2265 H2271 0.959 . S
C2265 H2272 0.961 . S
C2265 H2273 0.960 . S
C2266 C2264 1.381 . S
C2266 C2267 1.394 . S
C2266 H2274 0.930 . S
C2267 C2266 1.394 . S
C2267 C2268 1.383 . S
C2267 H2275 0.929 . S
C2268 C2267 1.383 . S
C2268 C2269 1.377 . S
C2269 H2253 0.930 . S
C2269 C2268 1.377 . S
C2269 C2270 1.379 . S
C2270 H2254 0.931 . S
C2270 C2264 1.383 . S
C2270 C2269 1.379 . S
H2271 C2265 0.959 . S
H2272 C2265 0.961 . S
H2273 C2265 0.960 . S
H2274 C2266 0.930 . S
H2275 C2267 0.929 . S
H2276 C2284 0.929 . S
H2277 C2286 0.930 . S
H2278 C2288 0.930 . S
H2279 C2291 0.929 . S
H2280 C2294 0.930 . S
H2281 C2296 0.960 . S
H2282 C2296 0.960 . S
H2283 C2296 0.960 . S
C2284 H2276 0.929 . S
C2284 C2285 1.377 . S
C2284 C2286 1.384 . S
C2285 C2284 1.377 . S
C2285 C2291 1.390 . S
C2286 H2277 0.930 . S
C2286 C2284 1.384 . S
C2286 C2287 1.372 . S
C2287 C2286 1.372 . S
C2287 C2288 1.400 . S
C2287 C2292 1.490 . S
C2288 H2278 0.930 . S
C2288 C2287 1.400 . S
C2288 C2291 1.386 . S
H2289 C2305 0.930 . S
H2290 C2306 0.931 . S
C2291 H2279 0.929 . S
C2291 C2285 1.390 . S
C2291 C2288 1.386 . S
C2292 C2287 1.490 . S
C2292 C2294 1.395 . S
C2292 C2295 1.403 . S
H2293 C2299 0.930 . S
C2294 H2280 0.930 . S
C2294 C2292 1.395 . S
C2294 C2297 1.403 . S
C2295 C2292 1.403 . S
C2295 C2296 1.524 . S
C2295 C2299 1.400 . S
C2296 H2281 0.960 . S
C2296 H2282 0.960 . S
C2296 H2283 0.960 . S
C2296 C2295 1.524 . S
C2297 C2294 1.403 . S
C2297 C2298 1.392 . S
C2297 C2301 1.495 . S
C2298 C2297 1.392 . S
C2298 C2299 1.385 . S
C2298 C2300 1.478 . S
C2299 H2293 0.930 . S
C2299 C2295 1.400 . S
C2299 C2298 1.385 . S
C2300 C2298 1.478 . S
C2300 C2302 1.381 . S
C2300 C2306 1.383 . S
C2301 C2297 1.495 . S
C2301 H2307 0.959 . S
C2301 H2308 0.961 . S
C2301 H2309 0.960 . S
C2302 C2300 1.381 . S
C2302 C2303 1.394 . S
C2302 H2310 0.930 . S
C2303 C2302 1.394 . S
C2303 C2304 1.383 . S
C2303 H2311 0.929 . S
C2304 C2303 1.383 . S
C2304 C2305 1.377 . S
C2305 H2289 0.930 . S
C2305 C2304 1.377 . S
C2305 C2306 1.379 . S
C2306 H2290 0.931 . S
C2306 C2300 1.383 . S
C2306 C2305 1.379 . S
H2307 C2301 0.959 . S
H2308 C2301 0.961 . S
H2309 C2301 0.960 . S
H2310 C2302 0.930 . S
H2311 C2303 0.929 . S
H2312 C2320 0.929 . S
H2313 C2322 0.930 . S
H2314 C2324 0.930 . S
H2315 C2327 0.929 . S
H2316 C2330 0.930 . S
H2317 C2332 0.960 . S
H2318 C2332 0.960 . S
H2319 C2332 0.960 . S
C2320 H2312 0.929 . S
C2320 C2321 1.377 . S
C2320 C2322 1.384 . S
C2321 C2320 1.377 . S
C2321 C2327 1.390 . S
C2322 H2313 0.930 . S
C2322 C2320 1.384 . S
C2322 C2323 1.372 . S
C2323 C2322 1.372 . S
C2323 C2324 1.400 . S
C2323 C2328 1.490 . S
C2324 H2314 0.930 . S
C2324 C2323 1.400 . S
C2324 C2327 1.386 . S
H2325 C2341 0.930 . S
H2326 C2342 0.931 . S
C2327 H2315 0.929 . S
C2327 C2321 1.390 . S
C2327 C2324 1.386 . S
C2328 C2323 1.490 . S
C2328 C2330 1.395 . S
C2328 C2331 1.403 . S
H2329 C2335 0.930 . S
C2330 H2316 0.930 . S
C2330 C2328 1.395 . S
C2330 C2333 1.403 . S
C2331 C2328 1.403 . S
C2331 C2332 1.524 . S
C2331 C2335 1.400 . S
C2332 H2317 0.960 . S
C2332 H2318 0.960 . S
C2332 H2319 0.960 . S
C2332 C2331 1.524 . S
C2333 C2330 1.403 . S
C2333 C2334 1.392 . S
C2333 C2337 1.495 . S
C2334 C2333 1.392 . S
C2334 C2335 1.385 . S
C2334 C2336 1.478 . S
C2335 H2329 0.930 . S
C2335 C2331 1.400 . S
C2335 C2334 1.385 . S
C2336 C2334 1.478 . S
C2336 C2338 1.381 . S
C2336 C2342 1.383 . S
C2337 C2333 1.495 . S
C2337 H2343 0.959 . S
C2337 H2344 0.961 . S
C2337 H2345 0.960 . S
C2338 C2336 1.381 . S
C2338 C2339 1.394 . S
C2338 H2346 0.930 . S
C2339 C2338 1.394 . S
C2339 C2340 1.383 . S
C2339 H2347 0.929 . S
C2340 C2339 1.383 . S
C2340 C2341 1.377 . S
C2341 H2325 0.930 . S
C2341 C2340 1.377 . S
C2341 C2342 1.379 . S
C2342 H2326 0.931 . S
C2342 C2336 1.383 . S
C2342 C2341 1.379 . S
H2343 C2337 0.959 . S
H2344 C2337 0.961 . S
H2345 C2337 0.960 . S
H2346 C2338 0.930 . S
H2347 C2339 0.929 . S
H2348 C2356 0.929 . S
H2349 C2358 0.930 . S
H2350 C2360 0.930 . S
H2351 C2363 0.929 . S
H2352 C2366 0.930 . S
H2353 C2368 0.960 . S
H2354 C2368 0.960 . S
H2355 C2368 0.960 . S
C2356 H2348 0.929 . S
C2356 C2357 1.377 . S
C2356 C2358 1.384 . S
C2357 C2356 1.377 . S
C2357 C2363 1.390 . S
C2358 H2349 0.930 . S
C2358 C2356 1.384 . S
C2358 C2359 1.372 . S
C2359 C2358 1.372 . S
C2359 C2360 1.400 . S
C2359 C2364 1.490 . S
C2360 H2350 0.930 . S
C2360 C2359 1.400 . S
C2360 C2363 1.386 . S
H2361 C2377 0.930 . S
H2362 C2378 0.931 . S
C2363 H2351 0.929 . S
C2363 C2357 1.390 . S
C2363 C2360 1.386 . S
C2364 C2359 1.490 . S
C2364 C2366 1.395 . S
C2364 C2367 1.403 . S
H2365 C2371 0.930 . S
C2366 H2352 0.930 . S
C2366 C2364 1.395 . S
C2366 C2369 1.403 . S
C2367 C2364 1.403 . S
C2367 C2368 1.524 . S
C2367 C2371 1.400 . S
C2368 H2353 0.960 . S
C2368 H2354 0.960 . S
C2368 H2355 0.960 . S
C2368 C2367 1.524 . S
C2369 C2366 1.403 . S
C2369 C2370 1.392 . S
C2369 C2373 1.495 . S
C2370 C2369 1.392 . S
C2370 C2371 1.385 . S
C2370 C2372 1.478 . S
C2371 H2365 0.930 . S
C2371 C2367 1.400 . S
C2371 C2370 1.385 . S
C2372 C2370 1.478 . S
C2372 C2374 1.381 . S
C2372 C2378 1.383 . S
C2373 C2369 1.495 . S
C2373 H2379 0.959 . S
C2373 H2380 0.961 . S
C2373 H2381 0.960 . S
C2374 C2372 1.381 . S
C2374 C2375 1.394 . S
C2374 H2382 0.930 . S
C2375 C2374 1.394 . S
C2375 C2376 1.383 . S
C2375 H2383 0.929 . S
C2376 C2375 1.383 . S
C2376 C2377 1.377 . S
C2377 H2361 0.930 . S
C2377 C2376 1.377 . S
C2377 C2378 1.379 . S
C2378 H2362 0.931 . S
C2378 C2372 1.383 . S
C2378 C2377 1.379 . S
H2379 C2373 0.959 . S
H2380 C2373 0.961 . S
H2381 C2373 0.960 . S
H2382 C2374 0.930 . S
H2383 C2375 0.929 . S
H2384 C2392 0.929 . S
H2385 C2394 0.930 . S
H2386 C2396 0.930 . S
H2387 C2399 0.929 . S
H2388 C2402 0.930 . S
H2389 C2404 0.960 . S
H2390 C2404 0.960 . S
H2391 C2404 0.960 . S
C2392 H2384 0.929 . S
C2392 C2393 1.377 . S
C2392 C2394 1.384 . S
C2393 C2392 1.377 . S
C2393 C2399 1.390 . S
C2394 H2385 0.930 . S
C2394 C2392 1.384 . S
C2394 C2395 1.372 . S
C2395 C2394 1.372 . S
C2395 C2396 1.400 . S
C2395 C2400 1.490 . S
C2396 H2386 0.930 . S
C2396 C2395 1.400 . S
C2396 C2399 1.386 . S
H2397 C2413 0.930 . S
H2398 C2414 0.931 . S
C2399 H2387 0.929 . S
C2399 C2393 1.390 . S
C2399 C2396 1.386 . S
C2400 C2395 1.490 . S
C2400 C2402 1.395 . S
C2400 C2403 1.403 . S
H2401 C2407 0.930 . S
C2402 H2388 0.930 . S
C2402 C2400 1.395 . S
C2402 C2405 1.403 . S
C2403 C2400 1.403 . S
C2403 C2404 1.524 . S
C2403 C2407 1.400 . S
C2404 H2389 0.960 . S
C2404 H2390 0.960 . S
C2404 H2391 0.960 . S
C2404 C2403 1.524 . S
C2405 C2402 1.403 . S
C2405 C2406 1.392 . S
C2405 C2409 1.495 . S
C2406 C2405 1.392 . S
C2406 C2407 1.385 . S
C2406 C2408 1.478 . S
C2407 H2401 0.930 . S
C2407 C2403 1.400 . S
C2407 C2406 1.385 . S
C2408 C2406 1.478 . S
C2408 C2410 1.381 . S
C2408 C2414 1.383 . S
C2409 C2405 1.495 . S
C2409 H2415 0.959 . S
C2409 H2416 0.961 . S
C2409 H2417 0.960 . S
C2410 C2408 1.381 . S
C2410 C2411 1.394 . S
C2410 H2418 0.930 . S
C2411 C2410 1.394 . S
C2411 C2412 1.383 . S
C2411 H2419 0.929 . S
C2412 C2411 1.383 . S
C2412 C2413 1.377 . S
C2413 H2397 0.930 . S
C2413 C2412 1.377 . S
C2413 C2414 1.379 . S
C2414 H2398 0.931 . S
C2414 C2408 1.383 . S
C2414 C2413 1.379 . S
H2415 C2409 0.959 . S
H2416 C2409 0.961 . S
H2417 C2409 0.960 . S
H2418 C2410 0.930 . S
H2419 C2411 0.929 . S
H2420 C2428 0.929 . S
H2421 C2430 0.930 . S
H2422 C2432 0.930 . S
H2423 C2435 0.929 . S
H2424 C2438 0.930 . S
H2425 C2440 0.960 . S
H2426 C2440 0.960 . S
H2427 C2440 0.960 . S
C2428 H2420 0.929 . S
C2428 C2429 1.377 . S
C2428 C2430 1.384 . S
C2429 C2428 1.377 . S
C2429 C2435 1.390 . S
C2430 H2421 0.930 . S
C2430 C2428 1.384 . S
C2430 C2431 1.372 . S
C2431 C2430 1.372 . S
C2431 C2432 1.400 . S
C2431 C2436 1.490 . S
C2432 H2422 0.930 . S
C2432 C2431 1.400 . S
C2432 C2435 1.386 . S
H2433 C2449 0.930 . S
H2434 C2450 0.931 . S
C2435 H2423 0.929 . S
C2435 C2429 1.390 . S
C2435 C2432 1.386 . S
C2436 C2431 1.490 . S
C2436 C2438 1.395 . S
C2436 C2439 1.403 . S
H2437 C2443 0.930 . S
C2438 H2424 0.930 . S
C2438 C2436 1.395 . S
C2438 C2441 1.403 . S
C2439 C2436 1.403 . S
C2439 C2440 1.524 . S
C2439 C2443 1.400 . S
C2440 H2425 0.960 . S
C2440 H2426 0.960 . S
C2440 H2427 0.960 . S
C2440 C2439 1.524 . S
C2441 C2438 1.403 . S
C2441 C2442 1.392 . S
C2441 C2445 1.495 . S
C2442 C2441 1.392 . S
C2442 C2443 1.385 . S
C2442 C2444 1.478 . S
C2443 H2437 0.930 . S
C2443 C2439 1.400 . S
C2443 C2442 1.385 . S
C2444 C2442 1.478 . S
C2444 C2446 1.381 . S
C2444 C2450 1.383 . S
C2445 C2441 1.495 . S
C2445 H2451 0.959 . S
C2445 H2452 0.961 . S
C2445 H2453 0.960 . S
C2446 C2444 1.381 . S
C2446 C2447 1.394 . S
C2446 H2454 0.930 . S
C2447 C2446 1.394 . S
C2447 C2448 1.383 . S
C2447 H2455 0.929 . S
C2448 C2447 1.383 . S
C2448 C2449 1.377 . S
C2449 H2433 0.930 . S
C2449 C2448 1.377 . S
C2449 C2450 1.379 . S
C2450 H2434 0.931 . S
C2450 C2444 1.383 . S
C2450 C2449 1.379 . S
H2451 C2445 0.959 . S
H2452 C2445 0.961 . S
H2453 C2445 0.960 . S
H2454 C2446 0.930 . S
H2455 C2447 0.929 . S
H2456 C2464 0.929 . S
H2457 C2466 0.930 . S
H2458 C2468 0.930 . S
H2459 C2471 0.929 . S
H2460 C2474 0.930 . S
H2461 C2476 0.960 . S
H2462 C2476 0.960 . S
H2463 C2476 0.960 . S
C2464 H2456 0.929 . S
C2464 C2465 1.377 . S
C2464 C2466 1.384 . S
C2465 C2464 1.377 . S
C2465 C2471 1.390 . S
C2466 H2457 0.930 . S
C2466 C2464 1.384 . S
C2466 C2467 1.372 . S
C2467 C2466 1.372 . S
C2467 C2468 1.400 . S
C2467 C2472 1.490 . S
C2468 H2458 0.930 . S
C2468 C2467 1.400 . S
C2468 C2471 1.386 . S
H2469 C2485 0.930 . S
H2470 C2486 0.931 . S
C2471 H2459 0.929 . S
C2471 C2465 1.390 . S
C2471 C2468 1.386 . S
C2472 C2467 1.490 . S
C2472 C2474 1.395 . S
C2472 C2475 1.403 . S
H2473 C2479 0.930 . S
C2474 H2460 0.930 . S
C2474 C2472 1.395 . S
C2474 C2477 1.403 . S
C2475 C2472 1.403 . S
C2475 C2476 1.524 . S
C2475 C2479 1.400 . S
C2476 H2461 0.960 . S
C2476 H2462 0.960 . S
C2476 H2463 0.960 . S
C2476 C2475 1.524 . S
C2477 C2474 1.403 . S
C2477 C2478 1.392 . S
C2477 C2481 1.495 . S
C2478 C2477 1.392 . S
C2478 C2479 1.385 . S
C2478 C2480 1.478 . S
C2479 H2473 0.930 . S
C2479 C2475 1.400 . S
C2479 C2478 1.385 . S
C2480 C2478 1.478 . S
C2480 C2482 1.381 . S
C2480 C2486 1.383 . S
C2481 C2477 1.495 . S
C2481 H2487 0.959 . S
C2481 H2488 0.961 . S
C2481 H2489 0.960 . S
C2482 C2480 1.381 . S
C2482 C2483 1.394 . S
C2482 H2490 0.930 . S
C2483 C2482 1.394 . S
C2483 C2484 1.383 . S
C2483 H2491 0.929 . S
C2484 C2483 1.383 . S
C2484 C2485 1.377 . S
C2485 H2469 0.930 . S
C2485 C2484 1.377 . S
C2485 C2486 1.379 . S
C2486 H2470 0.931 . S
C2486 C2480 1.383 . S
C2486 C2485 1.379 . S
H2487 C2481 0.959 . S
H2488 C2481 0.961 . S
H2489 C2481 0.960 . S
H2490 C2482 0.930 . S
H2491 C2483 0.929 . S
H2492 C2500 0.929 . S
H2493 C2502 0.930 . S
H2494 C2504 0.930 . S
H2495 C2507 0.929 . S
H2496 C2510 0.930 . S
H2497 C2512 0.960 . S
H2498 C2512 0.960 . S
H2499 C2512 0.960 . S
C2500 H2492 0.929 . S
C2500 C2501 1.377 . S
C2500 C2502 1.384 . S
C2501 C2500 1.377 . S
C2501 C2507 1.390 . S
C2502 H2493 0.930 . S
C2502 C2500 1.384 . S
C2502 C2503 1.372 . S
C2503 C2502 1.372 . S
C2503 C2504 1.400 . S
C2503 C2508 1.490 . S
C2504 H2494 0.930 . S
C2504 C2503 1.400 . S
C2504 C2507 1.386 . S
H2505 C2521 0.930 . S
H2506 C2522 0.931 . S
C2507 H2495 0.929 . S
C2507 C2501 1.390 . S
C2507 C2504 1.386 . S
C2508 C2503 1.490 . S
C2508 C2510 1.395 . S
C2508 C2511 1.403 . S
H2509 C2515 0.930 . S
C2510 H2496 0.930 . S
C2510 C2508 1.395 . S
C2510 C2513 1.403 . S
C2511 C2508 1.403 . S
C2511 C2512 1.524 . S
C2511 C2515 1.400 . S
C2512 H2497 0.960 . S
C2512 H2498 0.960 . S
C2512 H2499 0.960 . S
C2512 C2511 1.524 . S
C2513 C2510 1.403 . S
C2513 C2514 1.392 . S
C2513 C2517 1.495 . S
C2514 C2513 1.392 . S
C2514 C2515 1.385 . S
C2514 C2516 1.478 . S
C2515 H2509 0.930 . S
C2515 C2511 1.400 . S
C2515 C2514 1.385 . S
C2516 C2514 1.478 . S
C2516 C2518 1.381 . S
C2516 C2522 1.383 . S
C2517 C2513 1.495 . S
C2517 H2523 0.959 . S
C2517 H2524 0.961 . S
C2517 H2525 0.960 . S
C2518 C2516 1.381 . S
C2518 C2519 1.394 . S
C2518 H2526 0.930 . S
C2519 C2518 1.394 . S
C2519 C2520 1.383 . S
C2519 H2527 0.929 . S
C2520 C2519 1.383 . S
C2520 C2521 1.377 . S
C2521 H2505 0.930 . S
C2521 C2520 1.377 . S
C2521 C2522 1.379 . S
C2522 H2506 0.931 . S
C2522 C2516 1.383 . S
C2522 C2521 1.379 . S
H2523 C2517 0.959 . S
H2524 C2517 0.961 . S
H2525 C2517 0.960 . S
H2526 C2518 0.930 . S
H2527 C2519 0.929 . S
H2528 C2536 0.929 . S
H2529 C2538 0.930 . S
H2530 C2540 0.930 . S
H2531 C2543 0.929 . S
H2532 C2546 0.930 . S
H2533 C2548 0.960 . S
H2534 C2548 0.960 . S
H2535 C2548 0.960 . S
C2536 H2528 0.929 . S
C2536 C2537 1.377 . S
C2536 C2538 1.384 . S
C2537 C2536 1.377 . S
C2537 C2543 1.390 . S
C2538 H2529 0.930 . S
C2538 C2536 1.384 . S
C2538 C2539 1.372 . S
C2539 C2538 1.372 . S
C2539 C2540 1.400 . S
C2539 C2544 1.490 . S
C2540 H2530 0.930 . S
C2540 C2539 1.400 . S
C2540 C2543 1.386 . S
H2541 C2557 0.930 . S
H2542 C2558 0.931 . S
C2543 H2531 0.929 . S
C2543 C2537 1.390 . S
C2543 C2540 1.386 . S
C2544 C2539 1.490 . S
C2544 C2546 1.395 . S
C2544 C2547 1.403 . S
H2545 C2551 0.930 . S
C2546 H2532 0.930 . S
C2546 C2544 1.395 . S
C2546 C2549 1.403 . S
C2547 C2544 1.403 . S
C2547 C2548 1.524 . S
C2547 C2551 1.400 . S
C2548 H2533 0.960 . S
C2548 H2534 0.960 . S
C2548 H2535 0.960 . S
C2548 C2547 1.524 . S
C2549 C2546 1.403 . S
C2549 C2550 1.392 . S
C2549 C2553 1.495 . S
C2550 C2549 1.392 . S
C2550 C2551 1.385 . S
C2550 C2552 1.478 1_545 S
C2551 H2545 0.930 . S
C2551 C2547 1.400 . S
C2551 C2550 1.385 . S
C2552 C2550 1.478 1_565 S
C2552 C2554 1.381 . S
C2552 C2558 1.383 . S
C2553 C2549 1.495 . S
C2553 H2559 0.959 . S
C2553 H2560 0.961 . S
C2553 H2561 0.960 . S
C2554 C2552 1.381 . S
C2554 C2555 1.394 . S
C2554 H2562 0.930 . S
C2555 C2554 1.394 . S
C2555 C2556 1.383 . S
C2555 H2563 0.929 . S
C2556 C2555 1.383 . S
C2556 C2557 1.377 . S
C2557 H2541 0.930 . S
C2557 C2556 1.377 . S
C2557 C2558 1.379 . S
C2558 H2542 0.931 . S
C2558 C2552 1.383 . S
C2558 C2557 1.379 . S
H2559 C2553 0.959 . S
H2560 C2553 0.961 . S
H2561 C2553 0.960 . S
H2562 C2554 0.930 . S
H2563 C2555 0.929 . S
H2564 C2572 0.929 . S
H2565 C2574 0.930 . S
H2566 C2576 0.930 1_545 S
H2567 C2579 0.929 . S
H2568 C2582 0.930 . S
H2569 C2584 0.960 . S
H2570 C2584 0.960 . S
H2571 C2584 0.960 . S
C2572 H2564 0.929 . S
C2572 C2573 1.377 . S
C2572 C2574 1.384 . S
C2573 C2572 1.377 . S
C2573 C2579 1.390 . S
C2574 H2565 0.930 . S
C2574 C2572 1.384 . S
C2574 C2575 1.372 1_565 S
C2575 C2574 1.372 1_545 S
C2575 C2576 1.400 1_545 S
C2575 C2580 1.490 . S
C2576 H2566 0.930 1_565 S
C2576 C2575 1.400 1_565 S
C2576 C2579 1.386 . S
H2577 C2593 0.930 . S
H2578 C2594 0.931 . S
C2579 H2567 0.929 . S
C2579 C2573 1.390 . S
C2579 C2576 1.386 . S
C2580 C2575 1.490 . S
C2580 C2582 1.395 . S
C2580 C2583 1.403 . S
H2581 C2587 0.930 . S
C2582 H2568 0.930 . S
C2582 C2580 1.395 . S
C2582 C2585 1.403 . S
C2583 C2580 1.403 . S
C2583 C2584 1.524 . S
C2583 C2587 1.400 . S
C2584 H2569 0.960 . S
C2584 H2570 0.960 . S
C2584 H2571 0.960 . S
C2584 C2583 1.524 . S
C2585 C2582 1.403 . S
C2585 C2586 1.392 . S
C2585 C2589 1.495 . S
C2586 C2585 1.392 . S
C2586 C2587 1.385 . S
C2586 C2588 1.478 . S
C2587 H2581 0.930 . S
C2587 C2583 1.400 . S
C2587 C2586 1.385 . S
C2588 C2586 1.478 . S
C2588 C2590 1.381 . S
C2588 C2594 1.383 . S
C2589 C2585 1.495 . S
C2589 H2595 0.959 . S
C2589 H2596 0.961 . S
C2589 H2597 0.960 . S
C2590 C2588 1.381 . S
C2590 C2591 1.394 . S
C2590 H2598 0.930 . S
C2591 C2590 1.394 . S
C2591 C2592 1.383 . S
C2591 H2599 0.929 . S
C2592 C2591 1.383 . S
C2592 C2593 1.377 . S
C2593 H2577 0.930 . S
C2593 C2592 1.377 . S
C2593 C2594 1.379 . S
C2594 H2578 0.931 . S
C2594 C2588 1.383 . S
C2594 C2593 1.379 . S
H2595 C2589 0.959 . S
H2596 C2589 0.961 . S
H2597 C2589 0.960 . S
H2598 C2590 0.930 . S
H2599 C2591 0.929 . S
H2600 C2608 0.929 . S
H2601 C2610 0.930 . S
H2602 C2612 0.930 1_545 S
H2603 C2615 0.929 . S
H2604 C2618 0.930 . S
H2605 C2620 0.960 . S
H2606 C2620 0.960 . S
H2607 C2620 0.960 . S
C2608 H2600 0.929 . S
C2608 C2609 1.377 . S
C2608 C2610 1.384 . S
C2609 C2608 1.377 . S
C2609 C2615 1.390 . S
C2610 H2601 0.930 . S
C2610 C2608 1.384 . S
C2610 C2611 1.372 1_565 S
C2611 C2610 1.372 1_545 S
C2611 C2612 1.400 1_545 S
C2611 C2616 1.490 . S
C2612 H2602 0.930 1_565 S
C2612 C2611 1.400 1_565 S
C2612 C2615 1.386 . S
H2613 C2629 0.930 . S
H2614 C2630 0.931 . S
C2615 H2603 0.929 . S
C2615 C2609 1.390 . S
C2615 C2612 1.386 . S
C2616 C2611 1.490 . S
C2616 C2618 1.395 . S
C2616 C2619 1.403 . S
H2617 C2623 0.930 . S
C2618 H2604 0.930 . S
C2618 C2616 1.395 . S
C2618 C2621 1.403 . S
C2619 C2616 1.403 . S
C2619 C2620 1.524 . S
C2619 C2623 1.400 . S
C2620 H2605 0.960 . S
C2620 H2606 0.960 . S
C2620 H2607 0.960 . S
C2620 C2619 1.524 . S
C2621 C2618 1.403 . S
C2621 C2622 1.392 . S
C2621 C2625 1.495 . S
C2622 C2621 1.392 . S
C2622 C2623 1.385 . S
C2622 C2624 1.478 . S
C2623 H2617 0.930 . S
C2623 C2619 1.400 . S
C2623 C2622 1.385 . S
C2624 C2622 1.478 . S
C2624 C2626 1.381 . S
C2624 C2630 1.383 . S
C2625 C2621 1.495 . S
C2625 H2631 0.959 . S
C2625 H2632 0.961 . S
C2625 H2633 0.960 . S
C2626 C2624 1.381 . S
C2626 C2627 1.394 . S
C2626 H2634 0.930 . S
C2627 C2626 1.394 . S
C2627 C2628 1.383 . S
C2627 H2635 0.929 . S
C2628 C2627 1.383 . S
C2628 C2629 1.377 . S
C2629 H2613 0.930 . S
C2629 C2628 1.377 . S
C2629 C2630 1.379 . S
C2630 H2614 0.931 . S
C2630 C2624 1.383 . S
C2630 C2629 1.379 . S
H2631 C2625 0.959 . S
H2632 C2625 0.961 . S
H2633 C2625 0.960 . S
H2634 C2626 0.930 . S
H2635 C2627 0.929 . S
H2636 C2644 0.929 . S
H2637 C2646 0.930 . S
H2638 C2648 0.930 . S
H2639 C2651 0.929 . S
H2640 C2654 0.930 . S
H2641 C2656 0.960 . S
H2642 C2656 0.960 . S
H2643 C2656 0.960 . S
C2644 H2636 0.929 . S
C2644 C2645 1.377 . S
C2644 C2646 1.384 . S
C2645 C2644 1.377 . S
C2645 C2651 1.390 . S
C2646 H2637 0.930 . S
C2646 C2644 1.384 . S
C2646 C2647 1.372 . S
C2647 C2646 1.372 . S
C2647 C2648 1.400 . S
C2647 C2652 1.490 1_565 S
C2648 H2638 0.930 . S
C2648 C2647 1.400 . S
C2648 C2651 1.386 . S
H2649 C2665 0.930 . S
H2650 C2666 0.931 . S
C2651 H2639 0.929 . S
C2651 C2645 1.390 . S
C2651 C2648 1.386 . S
C2652 C2647 1.490 1_545 S
C2652 C2654 1.395 . S
C2652 C2655 1.403 . S
H2653 C2659 0.930 . S
C2654 H2640 0.930 . S
C2654 C2652 1.395 . S
C2654 C2657 1.403 . S
C2655 C2652 1.403 . S
C2655 C2656 1.524 . S
C2655 C2659 1.400 . S
C2656 H2641 0.960 . S
C2656 H2642 0.960 . S
C2656 H2643 0.960 . S
C2656 C2655 1.524 . S
C2657 C2654 1.403 . S
C2657 C2658 1.392 . S
C2657 C2661 1.495 . S
C2658 C2657 1.392 . S
C2658 C2659 1.385 . S
C2658 C2660 1.478 . S
C2659 H2653 0.930 . S
C2659 C2655 1.400 . S
C2659 C2658 1.385 . S
C2660 C2658 1.478 . S
C2660 C2662 1.381 . S
C2660 C2666 1.383 . S
C2661 C2657 1.495 . S
C2661 H2667 0.959 . S
C2661 H2668 0.961 . S
C2661 H2669 0.960 . S
C2662 C2660 1.381 . S
C2662 C2663 1.394 . S
C2662 H2670 0.930 . S
C2663 C2662 1.394 . S
C2663 C2664 1.383 . S
C2663 H2671 0.929 . S
C2664 C2663 1.383 . S
C2664 C2665 1.377 . S
C2665 H2649 0.930 . S
C2665 C2664 1.377 . S
C2665 C2666 1.379 . S
C2666 H2650 0.931 . S
C2666 C2660 1.383 . S
C2666 C2665 1.379 . S
H2667 C2661 0.959 . S
H2668 C2661 0.961 . S
H2669 C2661 0.960 . S
H2670 C2662 0.930 . S
H2671 C2663 0.929 . S
H2672 C2680 0.929 . S
H2673 C2682 0.930 . S
H2674 C2684 0.930 . S
H2675 C2687 0.929 . S
H2676 C2690 0.930 . S
H2677 C2692 0.960 . S
H2678 C2692 0.960 . S
H2679 C2692 0.960 . S
C2680 H2672 0.929 . S
C2680 C2681 1.377 . S
C2680 C2682 1.384 . S
C2681 C2680 1.377 . S
C2681 C2687 1.390 . S
C2682 H2673 0.930 . S
C2682 C2680 1.384 . S
C2682 C2683 1.372 . S
C2683 C2682 1.372 . S
C2683 C2684 1.400 . S
C2683 C2688 1.490 . S
C2684 H2674 0.930 . S
C2684 C2683 1.400 . S
C2684 C2687 1.386 . S
H2685 C2701 0.930 . S
H2686 C2702 0.931 . S
C2687 H2675 0.929 . S
C2687 C2681 1.390 . S
C2687 C2684 1.386 . S
C2688 C2683 1.490 . S
C2688 C2690 1.395 . S
C2688 C2691 1.403 . S
H2689 C2695 0.930 . S
C2690 H2676 0.930 . S
C2690 C2688 1.395 . S
C2690 C2693 1.403 . S
C2691 C2688 1.403 . S
C2691 C2692 1.524 . S
C2691 C2695 1.400 . S
C2692 H2677 0.960 . S
C2692 H2678 0.960 . S
C2692 H2679 0.960 . S
C2692 C2691 1.524 . S
C2693 C2690 1.403 . S
C2693 C2694 1.392 . S
C2693 C2697 1.495 . S
C2694 C2693 1.392 . S
C2694 C2695 1.385 . S
C2694 C2696 1.478 1_565 S
C2695 H2689 0.930 . S
C2695 C2691 1.400 . S
C2695 C2694 1.385 . S
C2696 C2694 1.478 1_545 S
C2696 C2698 1.381 . S
C2696 C2702 1.383 . S
C2697 C2693 1.495 . S
C2697 H2703 0.959 . S
C2697 H2704 0.961 . S
C2697 H2705 0.960 . S
C2698 C2696 1.381 . S
C2698 C2699 1.394 . S
C2698 H2706 0.930 . S
C2699 C2698 1.394 . S
C2699 C2700 1.383 . S
C2699 H2707 0.929 . S
C2700 C2699 1.383 . S
C2700 C2701 1.377 . S
C2701 H2685 0.930 . S
C2701 C2700 1.377 . S
C2701 C2702 1.379 . S
C2702 H2686 0.931 . S
C2702 C2696 1.383 . S
C2702 C2701 1.379 . S
H2703 C2697 0.959 . S
H2704 C2697 0.961 . S
H2705 C2697 0.960 . S
H2706 C2698 0.930 . S
H2707 C2699 0.929 . S
H2708 C2716 0.929 . S
H2709 C2718 0.930 . S
H2710 C2720 0.930 1_565 S
H2711 C2723 0.929 . S
H2712 C2726 0.930 . S
H2713 C2728 0.960 . S
H2714 C2728 0.960 . S
H2715 C2728 0.960 . S
C2716 H2708 0.929 . S
C2716 C2717 1.377 . S
C2716 C2718 1.384 . S
C2717 C2716 1.377 . S
C2717 C2723 1.390 . S
C2718 H2709 0.930 . S
C2718 C2716 1.384 . S
C2718 C2719 1.372 1_545 S
C2719 C2718 1.372 1_565 S
C2719 C2720 1.400 1_565 S
C2719 C2724 1.490 . S
C2720 H2710 0.930 1_545 S
C2720 C2719 1.400 1_545 S
C2720 C2723 1.386 . S
H2721 C2737 0.930 . S
H2722 C2738 0.931 . S
C2723 H2711 0.929 . S
C2723 C2717 1.390 . S
C2723 C2720 1.386 . S
C2724 C2719 1.490 . S
C2724 C2726 1.395 . S
C2724 C2727 1.403 . S
H2725 C2731 0.930 . S
C2726 H2712 0.930 . S
C2726 C2724 1.395 . S
C2726 C2729 1.403 . S
C2727 C2724 1.403 . S
C2727 C2728 1.524 . S
C2727 C2731 1.400 . S
C2728 H2713 0.960 . S
C2728 H2714 0.960 . S
C2728 H2715 0.960 . S
C2728 C2727 1.524 . S
C2729 C2726 1.403 . S
C2729 C2730 1.392 . S
C2729 C2733 1.495 . S
C2730 C2729 1.392 . S
C2730 C2731 1.385 . S
C2730 C2732 1.478 . S
C2731 H2725 0.930 . S
C2731 C2727 1.400 . S
C2731 C2730 1.385 . S
C2732 C2730 1.478 . S
C2732 C2734 1.381 . S
C2732 C2738 1.383 . S
C2733 C2729 1.495 . S
C2733 H2739 0.959 . S
C2733 H2740 0.961 . S
C2733 H2741 0.960 . S
C2734 C2732 1.381 . S
C2734 C2735 1.394 . S
C2734 H2742 0.930 . S
C2735 C2734 1.394 . S
C2735 C2736 1.383 . S
C2735 H2743 0.929 . S
C2736 C2735 1.383 . S
C2736 C2737 1.377 . S
C2737 H2721 0.930 . S
C2737 C2736 1.377 . S
C2737 C2738 1.379 . S
C2738 H2722 0.931 . S
C2738 C2732 1.383 . S
C2738 C2737 1.379 . S
H2739 C2733 0.959 . S
H2740 C2733 0.961 . S
H2741 C2733 0.960 . S
H2742 C2734 0.930 . S
H2743 C2735 0.929 . S
H2744 C2752 0.929 . S
H2745 C2754 0.930 . S
H2746 C2756 0.930 1_565 S
H2747 C2759 0.929 . S
H2748 C2762 0.930 . S
H2749 C2764 0.960 . S
H2750 C2764 0.960 . S
H2751 C2764 0.960 . S
C2752 H2744 0.929 . S
C2752 C2753 1.377 . S
C2752 C2754 1.384 . S
C2753 C2752 1.377 . S
C2753 C2759 1.390 . S
C2754 H2745 0.930 . S
C2754 C2752 1.384 . S
C2754 C2755 1.372 1_545 S
C2755 C2754 1.372 1_565 S
C2755 C2756 1.400 1_565 S
C2755 C2760 1.490 . S
C2756 H2746 0.930 1_545 S
C2756 C2755 1.400 1_545 S
C2756 C2759 1.386 . S
H2757 C2773 0.930 . S
H2758 C2774 0.931 . S
C2759 H2747 0.929 . S
C2759 C2753 1.390 . S
C2759 C2756 1.386 . S
C2760 C2755 1.490 . S
C2760 C2762 1.395 . S
C2760 C2763 1.403 . S
H2761 C2767 0.930 . S
C2762 H2748 0.930 . S
C2762 C2760 1.395 . S
C2762 C2765 1.403 . S
C2763 C2760 1.403 . S
C2763 C2764 1.524 . S
C2763 C2767 1.400 . S
C2764 H2749 0.960 . S
C2764 H2750 0.960 . S
C2764 H2751 0.960 . S
C2764 C2763 1.524 . S
C2765 C2762 1.403 . S
C2765 C2766 1.392 . S
C2765 C2769 1.495 . S
C2766 C2765 1.392 . S
C2766 C2767 1.385 . S
C2766 C2768 1.478 . S
C2767 H2761 0.930 . S
C2767 C2763 1.400 . S
C2767 C2766 1.385 . S
C2768 C2766 1.478 . S
C2768 C2770 1.381 . S
C2768 C2774 1.383 . S
C2769 C2765 1.495 . S
C2769 H2775 0.959 . S
C2769 H2776 0.961 . S
C2769 H2777 0.960 . S
C2770 C2768 1.381 . S
C2770 C2771 1.394 . S
C2770 H2778 0.930 . S
C2771 C2770 1.394 . S
C2771 C2772 1.383 . S
C2771 H2779 0.929 . S
C2772 C2771 1.383 . S
C2772 C2773 1.377 . S
C2773 H2757 0.930 . S
C2773 C2772 1.377 . S
C2773 C2774 1.379 . S
C2774 H2758 0.931 . S
C2774 C2768 1.383 . S
C2774 C2773 1.379 . S
H2775 C2769 0.959 . S
H2776 C2769 0.961 . S
H2777 C2769 0.960 . S
H2778 C2770 0.930 . S
H2779 C2771 0.929 . S
H2780 C2788 0.929 . S
H2781 C2790 0.930 . S
H2782 C2792 0.930 . S
H2783 C2795 0.929 . S
H2784 C2798 0.930 . S
H2785 C2800 0.960 . S
H2786 C2800 0.960 . S
H2787 C2800 0.960 . S
C2788 H2780 0.929 . S
C2788 C2789 1.377 . S
C2788 C2790 1.384 . S
C2789 C2788 1.377 . S
C2789 C2795 1.390 . S
C2790 H2781 0.930 . S
C2790 C2788 1.384 . S
C2790 C2791 1.372 . S
C2791 C2790 1.372 . S
C2791 C2792 1.400 . S
C2791 C2796 1.490 . S
C2792 H2782 0.930 . S
C2792 C2791 1.400 . S
C2792 C2795 1.386 . S
H2793 C2809 0.930 . S
H2794 C2810 0.931 . S
C2795 H2783 0.929 . S
C2795 C2789 1.390 . S
C2795 C2792 1.386 . S
C2796 C2791 1.490 . S
C2796 C2798 1.395 . S
C2796 C2799 1.403 . S
H2797 C2803 0.930 . S
C2798 H2784 0.930 . S
C2798 C2796 1.395 . S
C2798 C2801 1.403 . S
C2799 C2796 1.403 . S
C2799 C2800 1.524 . S
C2799 C2803 1.400 . S
C2800 H2785 0.960 . S
C2800 H2786 0.960 . S
C2800 H2787 0.960 . S
C2800 C2799 1.524 . S
C2801 C2798 1.403 . S
C2801 C2802 1.392 . S
C2801 C2805 1.495 . S
C2802 C2801 1.392 . S
C2802 C2803 1.385 . S
C2802 C2804 1.478 1_565 S
C2803 H2797 0.930 . S
C2803 C2799 1.400 . S
C2803 C2802 1.385 . S
C2804 C2802 1.478 1_545 S
C2804 C2806 1.381 . S
C2804 C2810 1.383 . S
C2805 C2801 1.495 . S
C2805 H2811 0.959 . S
C2805 H2812 0.961 . S
C2805 H2813 0.960 . S
C2806 C2804 1.381 . S
C2806 C2807 1.394 . S
C2806 H2814 0.930 . S
C2807 C2806 1.394 . S
C2807 C2808 1.383 . S
C2807 H2815 0.929 . S
C2808 C2807 1.383 . S
C2808 C2809 1.377 . S
C2809 H2793 0.930 . S
C2809 C2808 1.377 . S
C2809 C2810 1.379 . S
C2810 H2794 0.931 . S
C2810 C2804 1.383 . S
C2810 C2809 1.379 . S
H2811 C2805 0.959 . S
H2812 C2805 0.961 . S
H2813 C2805 0.960 . S
H2814 C2806 0.930 . S
H2815 C2807 0.929 . S
H2816 C2824 0.929 . S
H2817 C2826 0.930 . S
H2818 C2828 0.930 . S
H2819 C2831 0.929 . S
H2820 C2834 0.930 . S
H2821 C2836 0.960 . S
H2822 C2836 0.960 . S
H2823 C2836 0.960 . S
C2824 H2816 0.929 . S
C2824 C2825 1.377 . S
C2824 C2826 1.384 . S
C2825 C2824 1.377 . S
C2825 C2831 1.390 . S
C2826 H2817 0.930 . S
C2826 C2824 1.384 . S
C2826 C2827 1.372 . S
C2827 C2826 1.372 . S
C2827 C2828 1.400 . S
C2827 C2832 1.490 . S
C2828 H2818 0.930 . S
C2828 C2827 1.400 . S
C2828 C2831 1.386 . S
H2829 C2845 0.930 . S
H2830 C2846 0.931 . S
C2831 H2819 0.929 . S
C2831 C2825 1.390 . S
C2831 C2828 1.386 . S
C2832 C2827 1.490 . S
C2832 C2834 1.395 . S
C2832 C2835 1.403 . S
H2833 C2839 0.930 . S
C2834 H2820 0.930 . S
C2834 C2832 1.395 . S
C2834 C2837 1.403 . S
C2835 C2832 1.403 . S
C2835 C2836 1.524 . S
C2835 C2839 1.400 . S
C2836 H2821 0.960 . S
C2836 H2822 0.960 . S
C2836 H2823 0.960 . S
C2836 C2835 1.524 . S
C2837 C2834 1.403 . S
C2837 C2838 1.392 . S
C2837 C2841 1.495 . S
C2838 C2837 1.392 . S
C2838 C2839 1.385 . S
C2838 C2840 1.478 . S
C2839 H2833 0.930 . S
C2839 C2835 1.400 . S
C2839 C2838 1.385 . S
C2840 C2838 1.478 . S
C2840 C2842 1.381 . S
C2840 C2846 1.383 . S
C2841 C2837 1.495 . S
C2841 H2847 0.959 . S
C2841 H2848 0.961 . S
C2841 H2849 0.960 . S
C2842 C2840 1.381 . S
C2842 C2843 1.394 . S
C2842 H2850 0.930 . S
C2843 C2842 1.394 . S
C2843 C2844 1.383 . S
C2843 H2851 0.929 . S
C2844 C2843 1.383 . S
C2844 C2845 1.377 . S
C2845 H2829 0.930 . S
C2845 C2844 1.377 . S
C2845 C2846 1.379 . S
C2846 H2830 0.931 . S
C2846 C2840 1.383 . S
C2846 C2845 1.379 . S
H2847 C2841 0.959 . S
H2848 C2841 0.961 . S
H2849 C2841 0.960 . S
H2850 C2842 0.930 . S
H2851 C2843 0.929 . S
H2852 C2860 0.929 . S
H2853 C2862 0.930 . S
H2854 C2864 0.930 . S
H2855 C2867 0.929 . S
H2856 C2870 0.930 . S
H2857 C2872 0.960 . S
H2858 C2872 0.960 . S
H2859 C2872 0.960 . S
C2860 H2852 0.929 . S
C2860 C2861 1.377 . S
C2860 C2862 1.384 . S
C2861 C2860 1.377 . S
C2861 C2867 1.390 . S
C2862 H2853 0.930 . S
C2862 C2860 1.384 . S
C2862 C2863 1.372 . S
C2863 C2862 1.372 . S
C2863 C2864 1.400 . S
C2863 C2868 1.490 . S
C2864 H2854 0.930 . S
C2864 C2863 1.400 . S
C2864 C2867 1.386 . S
H2865 C2881 0.930 . S
H2866 C2882 0.931 . S
C2867 H2855 0.929 . S
C2867 C2861 1.390 . S
C2867 C2864 1.386 . S
C2868 C2863 1.490 . S
C2868 C2870 1.395 . S
C2868 C2871 1.403 . S
H2869 C2875 0.930 . S
C2870 H2856 0.930 . S
C2870 C2868 1.395 . S
C2870 C2873 1.403 . S
C2871 C2868 1.403 . S
C2871 C2872 1.524 . S
C2871 C2875 1.400 . S
C2872 H2857 0.960 . S
C2872 H2858 0.960 . S
C2872 H2859 0.960 . S
C2872 C2871 1.524 . S
C2873 C2870 1.403 . S
C2873 C2874 1.392 . S
C2873 C2877 1.495 . S
C2874 C2873 1.392 . S
C2874 C2875 1.385 . S
C2874 C2876 1.478 . S
C2875 H2869 0.930 . S
C2875 C2871 1.400 . S
C2875 C2874 1.385 . S
C2876 C2874 1.478 . S
C2876 C2878 1.381 . S
C2876 C2882 1.383 . S
C2877 C2873 1.495 . S
C2877 H2883 0.959 . S
C2877 H2884 0.961 . S
C2877 H2885 0.960 . S
C2878 C2876 1.381 . S
C2878 C2879 1.394 . S
C2878 H2886 0.930 . S
C2879 C2878 1.394 . S
C2879 C2880 1.383 . S
C2879 H2887 0.929 . S
C2880 C2879 1.383 . S
C2880 C2881 1.377 . S
C2881 H2865 0.930 . S
C2881 C2880 1.377 . S
C2881 C2882 1.379 . S
C2882 H2866 0.931 . S
C2882 C2876 1.383 . S
C2882 C2881 1.379 . S
H2883 C2877 0.959 . S
H2884 C2877 0.961 . S
H2885 C2877 0.960 . S
H2886 C2878 0.930 . S
H2887 C2879 0.929 . S
H2888 C2896 0.929 . S
H2889 C2898 0.930 . S
H2890 C2900 0.930 . S
H2891 C2903 0.929 . S
H2892 C2906 0.930 . S
H2893 C2908 0.960 . S
H2894 C2908 0.960 . S
H2895 C2908 0.960 . S
C2896 H2888 0.929 . S
C2896 C2897 1.377 . S
C2896 C2898 1.384 . S
C2897 C2896 1.377 . S
C2897 C2903 1.390 . S
C2898 H2889 0.930 . S
C2898 C2896 1.384 . S
C2898 C2899 1.372 . S
C2899 C2898 1.372 . S
C2899 C2900 1.400 . S
C2899 C2904 1.490 . S
C2900 H2890 0.930 . S
C2900 C2899 1.400 . S
C2900 C2903 1.386 . S
H2901 C2917 0.930 . S
H2902 C2918 0.931 . S
C2903 H2891 0.929 . S
C2903 C2897 1.390 . S
C2903 C2900 1.386 . S
C2904 C2899 1.490 . S
C2904 C2906 1.395 . S
C2904 C2907 1.403 . S
H2905 C2911 0.930 . S
C2906 H2892 0.930 . S
C2906 C2904 1.395 . S
C2906 C2909 1.403 . S
C2907 C2904 1.403 . S
C2907 C2908 1.524 . S
C2907 C2911 1.400 . S
C2908 H2893 0.960 . S
C2908 H2894 0.960 . S
C2908 H2895 0.960 . S
C2908 C2907 1.524 . S
C2909 C2906 1.403 . S
C2909 C2910 1.392 . S
C2909 C2913 1.495 . S
C2910 C2909 1.392 . S
C2910 C2911 1.385 . S
C2910 C2912 1.478 . S
C2911 H2905 0.930 . S
C2911 C2907 1.400 . S
C2911 C2910 1.385 . S
C2912 C2910 1.478 . S
C2912 C2914 1.381 . S
C2912 C2918 1.383 . S
C2913 C2909 1.495 . S
C2913 H2919 0.959 . S
C2913 H2920 0.961 . S
C2913 H2921 0.960 . S
C2914 C2912 1.381 . S
C2914 C2915 1.394 . S
C2914 H2922 0.930 . S
C2915 C2914 1.394 . S
C2915 C2916 1.383 . S
C2915 H2923 0.929 . S
C2916 C2915 1.383 . S
C2916 C2917 1.377 . S
C2917 H2901 0.930 . S
C2917 C2916 1.377 . S
C2917 C2918 1.379 . S
C2918 H2902 0.931 . S
C2918 C2912 1.383 . S
C2918 C2917 1.379 . S
H2919 C2913 0.959 . S
H2920 C2913 0.961 . S
H2921 C2913 0.960 . S
H2922 C2914 0.930 . S
H2923 C2915 0.929 . S
H2924 C2932 0.929 . S
H2925 C2934 0.930 . S
H2926 C2936 0.930 . S
H2927 C2939 0.929 . S
H2928 C2942 0.930 . S
H2929 C2944 0.960 . S
H2930 C2944 0.960 . S
H2931 C2944 0.960 . S
C2932 H2924 0.929 . S
C2932 C2933 1.377 . S
C2932 C2934 1.384 . S
C2933 C2932 1.377 . S
C2933 C2939 1.390 . S
C2934 H2925 0.930 . S
C2934 C2932 1.384 . S
C2934 C2935 1.372 . S
C2935 C2934 1.372 . S
C2935 C2936 1.400 . S
C2935 C2940 1.490 . S
C2936 H2926 0.930 . S
C2936 C2935 1.400 . S
C2936 C2939 1.386 . S
H2937 C2953 0.930 . S
H2938 C2954 0.931 . S
C2939 H2927 0.929 . S
C2939 C2933 1.390 . S
C2939 C2936 1.386 . S
C2940 C2935 1.490 . S
C2940 C2942 1.395 . S
C2940 C2943 1.403 . S
H2941 C2947 0.930 . S
C2942 H2928 0.930 . S
C2942 C2940 1.395 . S
C2942 C2945 1.403 . S
C2943 C2940 1.403 . S
C2943 C2944 1.524 . S
C2943 C2947 1.400 . S
C2944 H2929 0.960 . S
C2944 H2930 0.960 . S
C2944 H2931 0.960 . S
C2944 C2943 1.524 . S
C2945 C2942 1.403 . S
C2945 C2946 1.392 . S
C2945 C2949 1.495 . S
C2946 C2945 1.392 . S
C2946 C2947 1.385 . S
C2946 C2948 1.478 . S
C2947 H2941 0.930 . S
C2947 C2943 1.400 . S
C2947 C2946 1.385 . S
C2948 C2946 1.478 . S
C2948 C2950 1.381 . S
C2948 C2954 1.383 . S
C2949 C2945 1.495 . S
C2949 H2955 0.959 . S
C2949 H2956 0.961 . S
C2949 H2957 0.960 . S
C2950 C2948 1.381 . S
C2950 C2951 1.394 . S
C2950 H2958 0.930 . S
C2951 C2950 1.394 . S
C2951 C2952 1.383 . S
C2951 H2959 0.929 . S
C2952 C2951 1.383 . S
C2952 C2953 1.377 . S
C2953 H2937 0.930 . S
C2953 C2952 1.377 . S
C2953 C2954 1.379 . S
C2954 H2938 0.931 . S
C2954 C2948 1.383 . S
C2954 C2953 1.379 . S
H2955 C2949 0.959 . S
H2956 C2949 0.961 . S
H2957 C2949 0.960 . S
H2958 C2950 0.930 . S
H2959 C2951 0.929 . S
H2960 C2968 0.929 . S
H2961 C2970 0.930 . S
H2962 C2972 0.930 . S
H2963 C2975 0.929 . S
H2964 C2978 0.930 . S
H2965 C2980 0.960 . S
H2966 C2980 0.960 . S
H2967 C2980 0.960 . S
C2968 H2960 0.929 . S
C2968 C2969 1.377 . S
C2968 C2970 1.384 . S
C2969 C2968 1.377 . S
C2969 C2975 1.390 . S
C2970 H2961 0.930 . S
C2970 C2968 1.384 . S
C2970 C2971 1.372 . S
C2971 C2970 1.372 . S
C2971 C2972 1.400 . S
C2971 C2976 1.490 . S
C2972 H2962 0.930 . S
C2972 C2971 1.400 . S
C2972 C2975 1.386 . S
H2973 C2989 0.930 . S
H2974 C2990 0.931 . S
C2975 H2963 0.929 . S
C2975 C2969 1.390 . S
C2975 C2972 1.386 . S
C2976 C2971 1.490 . S
C2976 C2978 1.395 . S
C2976 C2979 1.403 . S
H2977 C2983 0.930 . S
C2978 H2964 0.930 . S
C2978 C2976 1.395 . S
C2978 C2981 1.403 . S
C2979 C2976 1.403 . S
C2979 C2980 1.524 . S
C2979 C2983 1.400 . S
C2980 H2965 0.960 . S
C2980 H2966 0.960 . S
C2980 H2967 0.960 . S
C2980 C2979 1.524 . S
C2981 C2978 1.403 . S
C2981 C2982 1.392 . S
C2981 C2985 1.495 . S
C2982 C2981 1.392 . S
C2982 C2983 1.385 . S
C2982 C2984 1.478 . S
C2983 H2977 0.930 . S
C2983 C2979 1.400 . S
C2983 C2982 1.385 . S
C2984 C2982 1.478 . S
C2984 C2986 1.381 . S
C2984 C2990 1.383 . S
C2985 C2981 1.495 . S
C2985 H2991 0.959 . S
C2985 H2992 0.961 . S
C2985 H2993 0.960 . S
C2986 C2984 1.381 . S
C2986 C2987 1.394 . S
C2986 H2994 0.930 . S
C2987 C2986 1.394 . S
C2987 C2988 1.383 . S
C2987 H2995 0.929 . S
C2988 C2987 1.383 . S
C2988 C2989 1.377 . S
C2989 H2973 0.930 . S
C2989 C2988 1.377 . S
C2989 C2990 1.379 . S
C2990 H2974 0.931 . S
C2990 C2984 1.383 . S
C2990 C2989 1.379 . S
H2991 C2985 0.959 . S
H2992 C2985 0.961 . S
H2993 C2985 0.960 . S
H2994 C2986 0.930 . S
H2995 C2987 0.929 . S
H2996 C3004 0.929 . S
H2997 C3006 0.930 . S
H2998 C3008 0.930 . S
H2999 C3011 0.929 . S
H3000 C3014 0.930 . S
H3001 C3016 0.960 . S
H3002 C3016 0.960 . S
H3003 C3016 0.960 . S
C3004 H2996 0.929 . S
C3004 C3005 1.377 . S
C3004 C3006 1.384 . S
C3005 C3004 1.377 . S
C3005 C3011 1.390 . S
C3006 H2997 0.930 . S
C3006 C3004 1.384 . S
C3006 C3007 1.372 . S
C3007 C3006 1.372 . S
C3007 C3008 1.400 . S
C3007 C3012 1.490 . S
C3008 H2998 0.930 . S
C3008 C3007 1.400 . S
C3008 C3011 1.386 . S
H3009 C3025 0.930 . S
H3010 C3026 0.931 . S
C3011 H2999 0.929 . S
C3011 C3005 1.390 . S
C3011 C3008 1.386 . S
C3012 C3007 1.490 . S
C3012 C3014 1.395 . S
C3012 C3015 1.403 . S
H3013 C3019 0.930 . S
C3014 H3000 0.930 . S
C3014 C3012 1.395 . S
C3014 C3017 1.403 . S
C3015 C3012 1.403 . S
C3015 C3016 1.524 . S
C3015 C3019 1.400 . S
C3016 H3001 0.960 . S
C3016 H3002 0.960 . S
C3016 H3003 0.960 . S
C3016 C3015 1.524 . S
C3017 C3014 1.403 . S
C3017 C3018 1.392 . S
C3017 C3021 1.495 . S
C3018 C3017 1.392 . S
C3018 C3019 1.385 . S
C3018 C3020 1.478 . S
C3019 H3013 0.930 . S
C3019 C3015 1.400 . S
C3019 C3018 1.385 . S
C3020 C3018 1.478 . S
C3020 C3022 1.381 . S
C3020 C3026 1.383 . S
C3021 C3017 1.495 . S
C3021 H3027 0.959 . S
C3021 H3028 0.961 . S
C3021 H3029 0.960 . S
C3022 C3020 1.381 . S
C3022 C3023 1.394 . S
C3022 H3030 0.930 . S
C3023 C3022 1.394 . S
C3023 C3024 1.383 . S
C3023 H3031 0.929 . S
C3024 C3023 1.383 . S
C3024 C3025 1.377 . S
C3025 H3009 0.930 . S
C3025 C3024 1.377 . S
C3025 C3026 1.379 . S
C3026 H3010 0.931 . S
C3026 C3020 1.383 . S
C3026 C3025 1.379 . S
H3027 C3021 0.959 . S
H3028 C3021 0.961 . S
H3029 C3021 0.960 . S
H3030 C3022 0.930 . S
H3031 C3023 0.929 . S
H3032 C3040 0.929 . S
H3033 C3042 0.930 . S
H3034 C3044 0.930 . S
H3035 C3047 0.929 . S
H3036 C3050 0.930 . S
H3037 C3052 0.960 . S
H3038 C3052 0.960 . S
H3039 C3052 0.960 . S
C3040 H3032 0.929 . S
C3040 C3041 1.377 . S
C3040 C3042 1.384 . S
C3041 C3040 1.377 . S
C3041 C3047 1.390 . S
C3042 H3033 0.930 . S
C3042 C3040 1.384 . S
C3042 C3043 1.372 . S
C3043 C3042 1.372 . S
C3043 C3044 1.400 . S
C3043 C3048 1.490 . S
C3044 H3034 0.930 . S
C3044 C3043 1.400 . S
C3044 C3047 1.386 . S
H3045 C3061 0.930 . S
H3046 C3062 0.931 . S
C3047 H3035 0.929 . S
C3047 C3041 1.390 . S
C3047 C3044 1.386 . S
C3048 C3043 1.490 . S
C3048 C3050 1.395 . S
C3048 C3051 1.403 . S
H3049 C3055 0.930 . S
C3050 H3036 0.930 . S
C3050 C3048 1.395 . S
C3050 C3053 1.403 . S
C3051 C3048 1.403 . S
C3051 C3052 1.524 . S
C3051 C3055 1.400 . S
C3052 H3037 0.960 . S
C3052 H3038 0.960 . S
C3052 H3039 0.960 . S
C3052 C3051 1.524 . S
C3053 C3050 1.403 . S
C3053 C3054 1.392 . S
C3053 C3057 1.495 . S
C3054 C3053 1.392 . S
C3054 C3055 1.385 . S
C3054 C3056 1.478 . S
C3055 H3049 0.930 . S
C3055 C3051 1.400 . S
C3055 C3054 1.385 . S
C3056 C3054 1.478 . S
C3056 C3058 1.381 . S
C3056 C3062 1.383 . S
C3057 C3053 1.495 . S
C3057 H3063 0.959 . S
C3057 H3064 0.961 . S
C3057 H3065 0.960 . S
C3058 C3056 1.381 . S
C3058 C3059 1.394 . S
C3058 H3066 0.930 . S
C3059 C3058 1.394 . S
C3059 C3060 1.383 . S
C3059 H3067 0.929 . S
C3060 C3059 1.383 . S
C3060 C3061 1.377 . S
C3061 H3045 0.930 . S
C3061 C3060 1.377 . S
C3061 C3062 1.379 . S
C3062 H3046 0.931 . S
C3062 C3056 1.383 . S
C3062 C3061 1.379 . S
H3063 C3057 0.959 . S
H3064 C3057 0.961 . S
H3065 C3057 0.960 . S
H3066 C3058 0.930 . S
H3067 C3059 0.929 . S
H3068 C3076 0.929 . S
H3069 C3078 0.930 . S
H3070 C3080 0.930 . S
H3071 C3083 0.929 . S
H3072 C3086 0.930 . S
H3073 C3088 0.960 . S
H3074 C3088 0.960 . S
H3075 C3088 0.960 . S
C3076 H3068 0.929 . S
C3076 C3077 1.377 . S
C3076 C3078 1.384 . S
C3077 C3076 1.377 . S
C3077 C3083 1.390 . S
C3078 H3069 0.930 . S
C3078 C3076 1.384 . S
C3078 C3079 1.372 . S
C3079 C3078 1.372 . S
C3079 C3080 1.400 . S
C3079 C3084 1.490 . S
C3080 H3070 0.930 . S
C3080 C3079 1.400 . S
C3080 C3083 1.386 . S
H3081 C3097 0.930 . S
H3082 C3098 0.931 . S
C3083 H3071 0.929 . S
C3083 C3077 1.390 . S
C3083 C3080 1.386 . S
C3084 C3079 1.490 . S
C3084 C3086 1.395 . S
C3084 C3087 1.403 . S
H3085 C3091 0.930 . S
C3086 H3072 0.930 . S
C3086 C3084 1.395 . S
C3086 C3089 1.403 . S
C3087 C3084 1.403 . S
C3087 C3088 1.524 . S
C3087 C3091 1.400 . S
C3088 H3073 0.960 . S
C3088 H3074 0.960 . S
C3088 H3075 0.960 . S
C3088 C3087 1.524 . S
C3089 C3086 1.403 . S
C3089 C3090 1.392 . S
C3089 C3093 1.495 . S
C3090 C3089 1.392 . S
C3090 C3091 1.385 . S
C3090 C3092 1.478 . S
C3091 H3085 0.930 . S
C3091 C3087 1.400 . S
C3091 C3090 1.385 . S
C3092 C3090 1.478 . S
C3092 C3094 1.381 . S
C3092 C3098 1.383 . S
C3093 C3089 1.495 . S
C3093 H3099 0.959 . S
C3093 H3100 0.961 . S
C3093 H3101 0.960 . S
C3094 C3092 1.381 . S
C3094 C3095 1.394 . S
C3094 H3102 0.930 . S
C3095 C3094 1.394 . S
C3095 C3096 1.383 . S
C3095 H3103 0.929 . S
C3096 C3095 1.383 . S
C3096 C3097 1.377 . S
C3097 H3081 0.930 . S
C3097 C3096 1.377 . S
C3097 C3098 1.379 . S
C3098 H3082 0.931 . S
C3098 C3092 1.383 . S
C3098 C3097 1.379 . S
H3099 C3093 0.959 . S
H3100 C3093 0.961 . S
H3101 C3093 0.960 . S
H3102 C3094 0.930 . S
H3103 C3095 0.929 . S
H3104 C3112 0.929 . S
H3105 C3114 0.930 . S
H3106 C3116 0.930 . S
H3107 C3119 0.929 . S
H3108 C3122 0.930 . S
H3109 C3124 0.960 . S
H3110 C3124 0.960 . S
H3111 C3124 0.960 . S
C3112 H3104 0.929 . S
C3112 C3113 1.377 . S
C3112 C3114 1.384 . S
C3113 C3112 1.377 . S
C3113 C3119 1.390 . S
C3114 H3105 0.930 . S
C3114 C3112 1.384 . S
C3114 C3115 1.372 . S
C3115 C3114 1.372 . S
C3115 C3116 1.400 . S
C3115 C3120 1.490 1_565 S
C3116 H3106 0.930 . S
C3116 C3115 1.400 . S
C3116 C3119 1.386 . S
H3117 C3133 0.930 . S
H3118 C3134 0.931 . S
C3119 H3107 0.929 . S
C3119 C3113 1.390 . S
C3119 C3116 1.386 . S
C3120 C3115 1.490 1_545 S
C3120 C3122 1.395 . S
C3120 C3123 1.403 . S
H3121 C3127 0.930 . S
C3122 H3108 0.930 . S
C3122 C3120 1.395 . S
C3122 C3125 1.403 . S
C3123 C3120 1.403 . S
C3123 C3124 1.524 . S
C3123 C3127 1.400 . S
C3124 H3109 0.960 . S
C3124 H3110 0.960 . S
C3124 H3111 0.960 . S
C3124 C3123 1.524 . S
C3125 C3122 1.403 . S
C3125 C3126 1.392 . S
C3125 C3129 1.495 . S
C3126 C3125 1.392 . S
C3126 C3127 1.385 . S
C3126 C3128 1.478 . S
C3127 H3121 0.930 . S
C3127 C3123 1.400 . S
C3127 C3126 1.385 . S
C3128 C3126 1.478 . S
C3128 C3130 1.381 . S
C3128 C3134 1.383 . S
C3129 C3125 1.495 . S
C3129 H3135 0.959 . S
C3129 H3136 0.961 . S
C3129 H3137 0.960 . S
C3130 C3128 1.381 . S
C3130 C3131 1.394 . S
C3130 H3138 0.930 . S
C3131 C3130 1.394 . S
C3131 C3132 1.383 . S
C3131 H3139 0.929 . S
C3132 C3131 1.383 . S
C3132 C3133 1.377 . S
C3133 H3117 0.930 . S
C3133 C3132 1.377 . S
C3133 C3134 1.379 . S
C3134 H3118 0.931 . S
C3134 C3128 1.383 . S
C3134 C3133 1.379 . S
H3135 C3129 0.959 . S
H3136 C3129 0.961 . S
H3137 C3129 0.960 . S
H3138 C3130 0.930 . S
H3139 C3131 0.929 . S
H3140 C3148 0.929 . S
H3141 C3150 0.930 . S
H3142 C3152 0.930 1_545 S
H3143 C3155 0.929 . S
H3144 C3158 0.930 . S
H3145 C3160 0.960 . S
H3146 C3160 0.960 . S
H3147 C3160 0.960 . S
C3148 H3140 0.929 . S
C3148 C3149 1.377 . S
C3148 C3150 1.384 . S
C3149 C3148 1.377 . S
C3149 C3155 1.390 . S
C3150 H3141 0.930 . S
C3150 C3148 1.384 . S
C3150 C3151 1.372 1_565 S
C3151 C3150 1.372 1_545 S
C3151 C3152 1.400 1_545 S
C3151 C3156 1.490 . S
C3152 H3142 0.930 1_565 S
C3152 C3151 1.400 1_565 S
C3152 C3155 1.386 . S
H3153 C3169 0.930 . S
H3154 C3170 0.931 . S
C3155 H3143 0.929 . S
C3155 C3149 1.390 . S
C3155 C3152 1.386 . S
C3156 C3151 1.490 . S
C3156 C3158 1.395 . S
C3156 C3159 1.403 . S
H3157 C3163 0.930 . S
C3158 H3144 0.930 . S
C3158 C3156 1.395 . S
C3158 C3161 1.403 . S
C3159 C3156 1.403 . S
C3159 C3160 1.524 . S
C3159 C3163 1.400 . S
C3160 H3145 0.960 . S
C3160 H3146 0.960 . S
C3160 H3147 0.960 . S
C3160 C3159 1.524 . S
C3161 C3158 1.403 . S
C3161 C3162 1.392 . S
C3161 C3165 1.495 . S
C3162 C3161 1.392 . S
C3162 C3163 1.385 . S
C3162 C3164 1.478 . S
C3163 H3157 0.930 . S
C3163 C3159 1.400 . S
C3163 C3162 1.385 . S
C3164 C3162 1.478 . S
C3164 C3166 1.381 . S
C3164 C3170 1.383 . S
C3165 C3161 1.495 . S
C3165 H3171 0.959 . S
C3165 H3172 0.961 . S
C3165 H3173 0.960 . S
C3166 C3164 1.381 . S
C3166 C3167 1.394 . S
C3166 H3174 0.930 . S
C3167 C3166 1.394 . S
C3167 C3168 1.383 . S
C3167 H3175 0.929 . S
C3168 C3167 1.383 . S
C3168 C3169 1.377 . S
C3169 H3153 0.930 . S
C3169 C3168 1.377 . S
C3169 C3170 1.379 . S
C3170 H3154 0.931 . S
C3170 C3164 1.383 . S
C3170 C3169 1.379 . S
H3171 C3165 0.959 . S
H3172 C3165 0.961 . S
H3173 C3165 0.960 . S
H3174 C3166 0.930 . S
H3175 C3167 0.929 . S
H3176 C3184 0.929 . S
H3177 C3186 0.930 . S
H3178 C3188 0.930 1_545 S
H3179 C3191 0.929 . S
H3180 C3194 0.930 . S
H3181 C3196 0.960 . S
H3182 C3196 0.960 . S
H3183 C3196 0.960 . S
C3184 H3176 0.929 . S
C3184 C3185 1.377 . S
C3184 C3186 1.384 . S
C3185 C3184 1.377 . S
C3185 C3191 1.390 . S
C3186 H3177 0.930 . S
C3186 C3184 1.384 . S
C3186 C3187 1.372 1_565 S
C3187 C3186 1.372 1_545 S
C3187 C3188 1.400 1_545 S
C3187 C3192 1.490 . S
C3188 H3178 0.930 1_565 S
C3188 C3187 1.400 1_565 S
C3188 C3191 1.386 . S
H3189 C3205 0.930 . S
H3190 C3206 0.931 . S
C3191 H3179 0.929 . S
C3191 C3185 1.390 . S
C3191 C3188 1.386 . S
C3192 C3187 1.490 . S
C3192 C3194 1.395 . S
C3192 C3195 1.403 . S
H3193 C3199 0.930 . S
C3194 H3180 0.930 . S
C3194 C3192 1.395 . S
C3194 C3197 1.403 . S
C3195 C3192 1.403 . S
C3195 C3196 1.524 . S
C3195 C3199 1.400 . S
C3196 H3181 0.960 . S
C3196 H3182 0.960 . S
C3196 H3183 0.960 . S
C3196 C3195 1.524 . S
C3197 C3194 1.403 . S
C3197 C3198 1.392 . S
C3197 C3201 1.495 . S
C3198 C3197 1.392 . S
C3198 C3199 1.385 . S
C3198 C3200 1.478 . S
C3199 H3193 0.930 . S
C3199 C3195 1.400 . S
C3199 C3198 1.385 . S
C3200 C3198 1.478 . S
C3200 C3202 1.381 . S
C3200 C3206 1.383 . S
C3201 C3197 1.495 . S
C3201 H3207 0.959 . S
C3201 H3208 0.961 . S
C3201 H3209 0.960 . S
C3202 C3200 1.381 . S
C3202 C3203 1.394 . S
C3202 H3210 0.930 . S
C3203 C3202 1.394 . S
C3203 C3204 1.383 . S
C3203 H3211 0.929 . S
C3204 C3203 1.383 . S
C3204 C3205 1.377 . S
C3205 H3189 0.930 . S
C3205 C3204 1.377 . S
C3205 C3206 1.379 . S
C3206 H3190 0.931 . S
C3206 C3200 1.383 . S
C3206 C3205 1.379 . S
H3207 C3201 0.959 . S
H3208 C3201 0.961 . S
H3209 C3201 0.960 . S
H3210 C3202 0.930 . S
H3211 C3203 0.929 . S
H3212 C3220 0.929 . S
H3213 C3222 0.930 . S
H3214 C3224 0.930 . S
H3215 C3227 0.929 . S
H3216 C3230 0.930 . S
H3217 C3232 0.960 . S
H3218 C3232 0.960 . S
H3219 C3232 0.960 . S
C3220 H3212 0.929 . S
C3220 C3221 1.377 . S
C3220 C3222 1.384 . S
C3221 C3220 1.377 . S
C3221 C3227 1.390 . S
C3222 H3213 0.930 . S
C3222 C3220 1.384 . S
C3222 C3223 1.372 . S
C3223 C3222 1.372 . S
C3223 C3224 1.400 . S
C3223 C3228 1.490 . S
C3224 H3214 0.930 . S
C3224 C3223 1.400 . S
C3224 C3227 1.386 . S
H3225 C3241 0.930 . S
H3226 C3242 0.931 . S
C3227 H3215 0.929 . S
C3227 C3221 1.390 . S
C3227 C3224 1.386 . S
C3228 C3223 1.490 . S
C3228 C3230 1.395 . S
C3228 C3231 1.403 . S
H3229 C3235 0.930 . S
C3230 H3216 0.930 . S
C3230 C3228 1.395 . S
C3230 C3233 1.403 . S
C3231 C3228 1.403 . S
C3231 C3232 1.524 . S
C3231 C3235 1.400 . S
C3232 H3217 0.960 . S
C3232 H3218 0.960 . S
C3232 H3219 0.960 . S
C3232 C3231 1.524 . S
C3233 C3230 1.403 . S
C3233 C3234 1.392 . S
C3233 C3237 1.495 . S
C3234 C3233 1.392 . S
C3234 C3235 1.385 . S
C3234 C3236 1.478 1_545 S
C3235 H3229 0.930 . S
C3235 C3231 1.400 . S
C3235 C3234 1.385 . S
C3236 C3234 1.478 1_565 S
C3236 C3238 1.381 . S
C3236 C3242 1.383 . S
C3237 C3233 1.495 . S
C3237 H3243 0.959 . S
C3237 H3244 0.961 . S
C3237 H3245 0.960 . S
C3238 C3236 1.381 . S
C3238 C3239 1.394 . S
C3238 H3246 0.930 . S
C3239 C3238 1.394 . S
C3239 C3240 1.383 . S
C3239 H3247 0.929 . S
C3240 C3239 1.383 . S
C3240 C3241 1.377 . S
C3241 H3225 0.930 . S
C3241 C3240 1.377 . S
C3241 C3242 1.379 . S
C3242 H3226 0.931 . S
C3242 C3236 1.383 . S
C3242 C3241 1.379 . S
H3243 C3237 0.959 . S
H3244 C3237 0.961 . S
H3245 C3237 0.960 . S
H3246 C3238 0.930 . S
H3247 C3239 0.929 . S
H3248 C3256 0.929 . S
H3249 C3258 0.930 . S
H3250 C3260 0.930 . S
H3251 C3263 0.929 . S
H3252 C3266 0.930 . S
H3253 C3268 0.960 . S
H3254 C3268 0.960 . S
H3255 C3268 0.960 . S
C3256 H3248 0.929 . S
C3256 C3257 1.377 . S
C3256 C3258 1.384 . S
C3257 C3256 1.377 . S
C3257 C3263 1.390 . S
C3258 H3249 0.930 . S
C3258 C3256 1.384 . S
C3258 C3259 1.372 . S
C3259 C3258 1.372 . S
C3259 C3260 1.400 . S
C3259 C3264 1.490 1_545 S
C3260 H3250 0.930 . S
C3260 C3259 1.400 . S
C3260 C3263 1.386 . S
H3261 C3277 0.930 . S
H3262 C3278 0.931 . S
C3263 H3251 0.929 . S
C3263 C3257 1.390 . S
C3263 C3260 1.386 . S
C3264 C3259 1.490 1_565 S
C3264 C3266 1.395 . S
C3264 C3267 1.403 . S
H3265 C3271 0.930 . S
C3266 H3252 0.930 . S
C3266 C3264 1.395 . S
C3266 C3269 1.403 . S
C3267 C3264 1.403 . S
C3267 C3268 1.524 . S
C3267 C3271 1.400 . S
C3268 H3253 0.960 . S
C3268 H3254 0.960 . S
C3268 H3255 0.960 . S
C3268 C3267 1.524 . S
C3269 C3266 1.403 . S
C3269 C3270 1.392 . S
C3269 C3273 1.495 . S
C3270 C3269 1.392 . S
C3270 C3271 1.385 . S
C3270 C3272 1.478 . S
C3271 H3265 0.930 . S
C3271 C3267 1.400 . S
C3271 C3270 1.385 . S
C3272 C3270 1.478 . S
C3272 C3274 1.381 . S
C3272 C3278 1.383 . S
C3273 C3269 1.495 . S
C3273 H3279 0.959 . S
C3273 H3280 0.961 . S
C3273 H3281 0.960 . S
C3274 C3272 1.381 . S
C3274 C3275 1.394 . S
C3274 H3282 0.930 . S
C3275 C3274 1.394 . S
C3275 C3276 1.383 . S
C3275 H3283 0.929 . S
C3276 C3275 1.383 . S
C3276 C3277 1.377 . S
C3277 H3261 0.930 . S
C3277 C3276 1.377 . S
C3277 C3278 1.379 . S
C3278 H3262 0.931 . S
C3278 C3272 1.383 . S
C3278 C3277 1.379 . S
H3279 C3273 0.959 . S
H3280 C3273 0.961 . S
H3281 C3273 0.960 . S
H3282 C3274 0.930 . S
H3283 C3275 0.929 . S
H3284 C3292 0.929 . S
H3285 C3294 0.930 . S
H3286 C3296 0.930 . S
H3287 C3299 0.929 . S
H3288 C3302 0.930 . S
H3289 C3304 0.960 . S
H3290 C3304 0.960 . S
H3291 C3304 0.960 . S
C3292 H3284 0.929 . S
C3292 C3293 1.377 . S
C3292 C3294 1.384 . S
C3293 C3292 1.377 . S
C3293 C3299 1.390 . S
C3294 H3285 0.930 . S
C3294 C3292 1.384 . S
C3294 C3295 1.372 . S
C3295 C3294 1.372 . S
C3295 C3296 1.400 . S
C3295 C3300 1.490 . S
C3296 H3286 0.930 . S
C3296 C3295 1.400 . S
C3296 C3299 1.386 . S
H3297 C3313 0.930 . S
H3298 C3314 0.931 1_565 S
C3299 H3287 0.929 . S
C3299 C3293 1.390 . S
C3299 C3296 1.386 . S
C3300 C3295 1.490 . S
C3300 C3302 1.395 . S
C3300 C3303 1.403 . S
H3301 C3307 0.930 . S
C3302 H3288 0.930 . S
C3302 C3300 1.395 . S
C3302 C3305 1.403 . S
C3303 C3300 1.403 . S
C3303 C3304 1.524 . S
C3303 C3307 1.400 . S
C3304 H3289 0.960 . S
C3304 H3290 0.960 . S
C3304 H3291 0.960 . S
C3304 C3303 1.524 . S
C3305 C3302 1.403 . S
C3305 C3306 1.392 . S
C3305 C3309 1.495 . S
C3306 C3305 1.392 . S
C3306 C3307 1.385 . S
C3306 C3308 1.478 . S
C3307 H3301 0.930 . S
C3307 C3303 1.400 . S
C3307 C3306 1.385 . S
C3308 C3306 1.478 . S
C3308 C3310 1.381 1_565 S
C3308 C3314 1.383 1_565 S
C3309 C3305 1.495 . S
C3309 H3315 0.959 . S
C3309 H3316 0.961 . S
C3309 H3317 0.960 . S
C3310 C3308 1.381 1_545 S
C3310 C3311 1.394 . S
C3310 H3318 0.930 . S
C3311 C3310 1.394 . S
C3311 C3312 1.383 . S
C3311 H3319 0.929 . S
C3312 C3311 1.383 . S
C3312 C3313 1.377 . S
C3313 H3297 0.930 . S
C3313 C3312 1.377 . S
C3313 C3314 1.379 . S
C3314 H3298 0.931 1_545 S
C3314 C3308 1.383 1_545 S
C3314 C3313 1.379 . S
H3315 C3309 0.959 . S
H3316 C3309 0.961 . S
H3317 C3309 0.960 . S
H3318 C3310 0.930 . S
H3319 C3311 0.929 . S
H3320 C3328 0.929 . S
H3321 C3330 0.930 . S
H3322 C3332 0.930 . S
H3323 C3335 0.929 . S
H3324 C3338 0.930 . S
H3325 C3340 0.960 . S
H3326 C3340 0.960 . S
H3327 C3340 0.960 . S
C3328 H3320 0.929 . S
C3328 C3329 1.377 . S
C3328 C3330 1.384 . S
C3329 C3328 1.377 . S
C3329 C3335 1.390 . S
C3330 H3321 0.930 . S
C3330 C3328 1.384 . S
C3330 C3331 1.372 . S
C3331 C3330 1.372 . S
C3331 C3332 1.400 . S
C3331 C3336 1.490 . S
C3332 H3322 0.930 . S
C3332 C3331 1.400 . S
C3332 C3335 1.386 . S
H3333 C3349 0.930 . S
H3334 C3350 0.931 1_565 S
C3335 H3323 0.929 . S
C3335 C3329 1.390 . S
C3335 C3332 1.386 . S
C3336 C3331 1.490 . S
C3336 C3338 1.395 . S
C3336 C3339 1.403 . S
H3337 C3343 0.930 . S
C3338 H3324 0.930 . S
C3338 C3336 1.395 . S
C3338 C3341 1.403 . S
C3339 C3336 1.403 . S
C3339 C3340 1.524 . S
C3339 C3343 1.400 . S
C3340 H3325 0.960 . S
C3340 H3326 0.960 . S
C3340 H3327 0.960 . S
C3340 C3339 1.524 . S
C3341 C3338 1.403 . S
C3341 C3342 1.392 . S
C3341 C3345 1.495 . S
C3342 C3341 1.392 . S
C3342 C3343 1.385 . S
C3342 C3344 1.478 . S
C3343 H3337 0.930 . S
C3343 C3339 1.400 . S
C3343 C3342 1.385 . S
C3344 C3342 1.478 . S
C3344 C3346 1.381 1_565 S
C3344 C3350 1.383 1_565 S
C3345 C3341 1.495 . S
C3345 H3351 0.959 . S
C3345 H3352 0.961 . S
C3345 H3353 0.960 . S
C3346 C3344 1.381 1_545 S
C3346 C3347 1.394 . S
C3346 H3354 0.930 . S
C3347 C3346 1.394 . S
C3347 C3348 1.383 . S
C3347 H3355 0.929 . S
C3348 C3347 1.383 . S
C3348 C3349 1.377 . S
C3349 H3333 0.930 . S
C3349 C3348 1.377 . S
C3349 C3350 1.379 . S
C3350 H3334 0.931 1_545 S
C3350 C3344 1.383 1_545 S
C3350 C3349 1.379 . S
H3351 C3345 0.959 . S
H3352 C3345 0.961 . S
H3353 C3345 0.960 . S
H3354 C3346 0.930 . S
H3355 C3347 0.929 . S
H3356 C3364 0.929 . S
H3357 C3366 0.930 . S
H3358 C3368 0.930 . S
H3359 C3371 0.929 . S
H3360 C3374 0.930 . S
H3361 C3376 0.960 . S
H3362 C3376 0.960 . S
H3363 C3376 0.960 . S
C3364 H3356 0.929 . S
C3364 C3365 1.377 . S
C3364 C3366 1.384 . S
C3365 C3364 1.377 . S
C3365 C3371 1.390 . S
C3366 H3357 0.930 . S
C3366 C3364 1.384 . S
C3366 C3367 1.372 . S
C3367 C3366 1.372 . S
C3367 C3368 1.400 . S
C3367 C3372 1.490 1_545 S
C3368 H3358 0.930 . S
C3368 C3367 1.400 . S
C3368 C3371 1.386 . S
H3369 C3385 0.930 . S
H3370 C3386 0.931 . S
C3371 H3359 0.929 . S
C3371 C3365 1.390 . S
C3371 C3368 1.386 . S
C3372 C3367 1.490 1_565 S
C3372 C3374 1.395 . S
C3372 C3375 1.403 . S
H3373 C3379 0.930 . S
C3374 H3360 0.930 . S
C3374 C3372 1.395 . S
C3374 C3377 1.403 . S
C3375 C3372 1.403 . S
C3375 C3376 1.524 . S
C3375 C3379 1.400 . S
C3376 H3361 0.960 . S
C3376 H3362 0.960 . S
C3376 H3363 0.960 . S
C3376 C3375 1.524 . S
C3377 C3374 1.403 . S
C3377 C3378 1.392 . S
C3377 C3381 1.495 . S
C3378 C3377 1.392 . S
C3378 C3379 1.385 . S
C3378 C3380 1.478 . S
C3379 H3373 0.930 . S
C3379 C3375 1.400 . S
C3379 C3378 1.385 . S
C3380 C3378 1.478 . S
C3380 C3382 1.381 . S
C3380 C3386 1.383 . S
C3381 C3377 1.495 . S
C3381 H3387 0.959 . S
C3381 H3388 0.961 . S
C3381 H3389 0.960 . S
C3382 C3380 1.381 . S
C3382 C3383 1.394 . S
C3382 H3390 0.930 . S
C3383 C3382 1.394 . S
C3383 C3384 1.383 . S
C3383 H3391 0.929 . S
C3384 C3383 1.383 . S
C3384 C3385 1.377 . S
C3385 H3369 0.930 . S
C3385 C3384 1.377 . S
C3385 C3386 1.379 . S
C3386 H3370 0.931 . S
C3386 C3380 1.383 . S
C3386 C3385 1.379 . S
H3387 C3381 0.959 . S
H3388 C3381 0.961 . S
H3389 C3381 0.960 . S
H3390 C3382 0.930 . S
H3391 C3383 0.929 . S
H3392 C3400 0.929 . S
H3393 C3402 0.930 . S
H3394 C3404 0.930 . S
H3395 C3407 0.929 . S
H3396 C3410 0.930 . S
H3397 C3412 0.960 . S
H3398 C3412 0.960 . S
H3399 C3412 0.960 . S
C3400 H3392 0.929 . S
C3400 C3401 1.377 . S
C3400 C3402 1.384 . S
C3401 C3400 1.377 . S
C3401 C3407 1.390 . S
C3402 H3393 0.930 . S
C3402 C3400 1.384 . S
C3402 C3403 1.372 . S
C3403 C3402 1.372 . S
C3403 C3404 1.400 . S
C3403 C3408 1.490 . S
C3404 H3394 0.930 . S
C3404 C3403 1.400 . S
C3404 C3407 1.386 . S
H3405 C3421 0.930 . S
H3406 C3422 0.931 . S
C3407 H3395 0.929 . S
C3407 C3401 1.390 . S
C3407 C3404 1.386 . S
C3408 C3403 1.490 . S
C3408 C3410 1.395 . S
C3408 C3411 1.403 . S
H3409 C3415 0.930 . S
C3410 H3396 0.930 . S
C3410 C3408 1.395 . S
C3410 C3413 1.403 . S
C3411 C3408 1.403 . S
C3411 C3412 1.524 . S
C3411 C3415 1.400 . S
C3412 H3397 0.960 . S
C3412 H3398 0.960 . S
C3412 H3399 0.960 . S
C3412 C3411 1.524 . S
C3413 C3410 1.403 . S
C3413 C3414 1.392 . S
C3413 C3417 1.495 . S
C3414 C3413 1.392 . S
C3414 C3415 1.385 . S
C3414 C3416 1.478 . S
C3415 H3409 0.930 . S
C3415 C3411 1.400 . S
C3415 C3414 1.385 . S
C3416 C3414 1.478 . S
C3416 C3418 1.381 . S
C3416 C3422 1.383 . S
C3417 C3413 1.495 . S
C3417 H3423 0.959 . S
C3417 H3424 0.961 . S
C3417 H3425 0.960 . S
C3418 C3416 1.381 . S
C3418 C3419 1.394 . S
C3418 H3426 0.930 . S
C3419 C3418 1.394 . S
C3419 C3420 1.383 . S
C3419 H3427 0.929 . S
C3420 C3419 1.383 . S
C3420 C3421 1.377 . S
C3421 H3405 0.930 . S
C3421 C3420 1.377 . S
C3421 C3422 1.379 . S
C3422 H3406 0.931 . S
C3422 C3416 1.383 . S
C3422 C3421 1.379 . S
H3423 C3417 0.959 . S
H3424 C3417 0.961 . S
H3425 C3417 0.960 . S
H3426 C3418 0.930 . S
H3427 C3419 0.929 . S
H3428 C3436 0.929 . S
H3429 C3438 0.930 . S
H3430 C3440 0.930 . S
H3431 C3443 0.929 . S
H3432 C3446 0.930 . S
H3433 C3448 0.960 . S
H3434 C3448 0.960 1_545 S
H3435 C3448 0.960 1_545 S
C3436 H3428 0.929 . S
C3436 C3437 1.377 1_565 S
C3436 C3438 1.384 . S
C3437 C3436 1.377 1_545 S
C3437 C3443 1.390 . S
C3438 H3429 0.930 . S
C3438 C3436 1.384 . S
C3438 C3439 1.372 . S
C3439 C3438 1.372 . S
C3439 C3440 1.400 . S
C3439 C3444 1.490 . S
C3440 H3430 0.930 . S
C3440 C3439 1.400 . S
C3440 C3443 1.386 1_565 S
H3441 C3457 0.930 . S
H3442 C3458 0.931 . S
C3443 H3431 0.929 . S
C3443 C3437 1.390 . S
C3443 C3440 1.386 1_545 S
C3444 C3439 1.490 . S
C3444 C3446 1.395 . S
C3444 C3447 1.403 . S
H3445 C3451 0.930 . S
C3446 H3432 0.930 . S
C3446 C3444 1.395 . S
C3446 C3449 1.403 . S
C3447 C3444 1.403 . S
C3447 C3448 1.524 . S
C3447 C3451 1.400 . S
C3448 H3433 0.960 . S
C3448 H3434 0.960 1_565 S
C3448 H3435 0.960 1_565 S
C3448 C3447 1.524 . S
C3449 C3446 1.403 . S
C3449 C3450 1.392 . S
C3449 C3453 1.495 . S
C3450 C3449 1.392 . S
C3450 C3451 1.385 . S
C3450 C3452 1.478 . S
C3451 H3445 0.930 . S
C3451 C3447 1.400 . S
C3451 C3450 1.385 . S
C3452 C3450 1.478 . S
C3452 C3454 1.381 . S
C3452 C3458 1.383 . S
C3453 C3449 1.495 . S
C3453 H3459 0.959 . S
C3453 H3460 0.961 . S
C3453 H3461 0.960 . S
C3454 C3452 1.381 . S
C3454 C3455 1.394 . S
C3454 H3462 0.930 . S
C3455 C3454 1.394 . S
C3455 C3456 1.383 . S
C3455 H3463 0.929 . S
C3456 C3455 1.383 . S
C3456 C3457 1.377 . S
C3457 H3441 0.930 . S
C3457 C3456 1.377 . S
C3457 C3458 1.379 . S
C3458 H3442 0.931 . S
C3458 C3452 1.383 . S
C3458 C3457 1.379 . S
H3459 C3453 0.959 . S
H3460 C3453 0.961 . S
H3461 C3453 0.960 . S
H3462 C3454 0.930 . S
H3463 C3455 0.929 . S
H3464 C3472 0.929 . S
H3465 C3474 0.930 . S
H3466 C3476 0.930 . S
H3467 C3479 0.929 . S
H3468 C3482 0.930 . S
H3469 C3484 0.960 . S
H3470 C3484 0.960 . S
H3471 C3484 0.960 . S
C3472 H3464 0.929 . S
C3472 C3473 1.377 . S
C3472 C3474 1.384 . S
C3473 C3472 1.377 . S
C3473 C3479 1.390 . S
C3474 H3465 0.930 . S
C3474 C3472 1.384 . S
C3474 C3475 1.372 . S
C3475 C3474 1.372 . S
C3475 C3476 1.400 . S
C3475 C3480 1.490 . S
C3476 H3466 0.930 . S
C3476 C3475 1.400 . S
C3476 C3479 1.386 . S
H3477 C3493 0.930 . S
H3478 C3494 0.931 . S
C3479 H3467 0.929 . S
C3479 C3473 1.390 . S
C3479 C3476 1.386 . S
C3480 C3475 1.490 . S
C3480 C3482 1.395 . S
C3480 C3483 1.403 . S
H3481 C3487 0.930 . S
C3482 H3468 0.930 . S
C3482 C3480 1.395 . S
C3482 C3485 1.403 . S
C3483 C3480 1.403 . S
C3483 C3484 1.524 . S
C3483 C3487 1.400 . S
C3484 H3469 0.960 . S
C3484 H3470 0.960 . S
C3484 H3471 0.960 . S
C3484 C3483 1.524 . S
C3485 C3482 1.403 . S
C3485 C3486 1.392 . S
C3485 C3489 1.495 . S
C3486 C3485 1.392 . S
C3486 C3487 1.385 . S
C3486 C3488 1.478 . S
C3487 H3481 0.930 . S
C3487 C3483 1.400 . S
C3487 C3486 1.385 . S
C3488 C3486 1.478 . S
C3488 C3490 1.381 1_565 S
C3488 C3494 1.383 . S
C3489 C3485 1.495 . S
C3489 H3495 0.959 . S
C3489 H3496 0.961 . S
C3489 H3497 0.960 . S
C3490 C3488 1.381 1_545 S
C3490 C3491 1.394 . S
C3490 H3498 0.930 . S
C3491 C3490 1.394 . S
C3491 C3492 1.383 . S
C3491 H3499 0.929 . S
C3492 C3491 1.383 . S
C3492 C3493 1.377 1_545 S
C3493 H3477 0.930 . S
C3493 C3492 1.377 1_565 S
C3493 C3494 1.379 . S
C3494 H3478 0.931 . S
C3494 C3488 1.383 . S
C3494 C3493 1.379 . S
H3495 C3489 0.959 . S
H3496 C3489 0.961 . S
H3497 C3489 0.960 . S
H3498 C3490 0.930 . S
H3499 C3491 0.929 . S
H3500 C3508 0.929 . S
H3501 C3510 0.930 . S
H3502 C3512 0.930 . S
H3503 C3515 0.929 . S
H3504 C3518 0.930 . S
H3505 C3520 0.960 . S
H3506 C3520 0.960 . S
H3507 C3520 0.960 . S
C3508 H3500 0.929 . S
C3508 C3509 1.377 . S
C3508 C3510 1.384 . S
C3509 C3508 1.377 . S
C3509 C3515 1.390 . S
C3510 H3501 0.930 . S
C3510 C3508 1.384 . S
C3510 C3511 1.372 . S
C3511 C3510 1.372 . S
C3511 C3512 1.400 . S
C3511 C3516 1.490 . S
C3512 H3502 0.930 . S
C3512 C3511 1.400 . S
C3512 C3515 1.386 . S
H3513 C3529 0.930 . S
H3514 C3530 0.931 . S
C3515 H3503 0.929 . S
C3515 C3509 1.390 . S
C3515 C3512 1.386 . S
C3516 C3511 1.490 . S
C3516 C3518 1.395 . S
C3516 C3519 1.403 . S
H3517 C3523 0.930 . S
C3518 H3504 0.930 . S
C3518 C3516 1.395 . S
C3518 C3521 1.403 . S
C3519 C3516 1.403 . S
C3519 C3520 1.524 . S
C3519 C3523 1.400 . S
C3520 H3505 0.960 . S
C3520 H3506 0.960 . S
C3520 H3507 0.960 . S
C3520 C3519 1.524 . S
C3521 C3518 1.403 . S
C3521 C3522 1.392 . S
C3521 C3525 1.495 . S
C3522 C3521 1.392 . S
C3522 C3523 1.385 . S
C3522 C3524 1.478 . S
C3523 H3517 0.930 . S
C3523 C3519 1.400 . S
C3523 C3522 1.385 . S
C3524 C3522 1.478 . S
C3524 C3526 1.381 . S
C3524 C3530 1.383 . S
C3525 C3521 1.495 . S
C3525 H3531 0.959 . S
C3525 H3532 0.961 . S
C3525 H3533 0.960 . S
C3526 C3524 1.381 . S
C3526 C3527 1.394 . S
C3526 H3534 0.930 . S
C3527 C3526 1.394 . S
C3527 C3528 1.383 . S
C3527 H3535 0.929 . S
C3528 C3527 1.383 . S
C3528 C3529 1.377 . S
C3529 H3513 0.930 . S
C3529 C3528 1.377 . S
C3529 C3530 1.379 . S
C3530 H3514 0.931 . S
C3530 C3524 1.383 . S
C3530 C3529 1.379 . S
H3531 C3525 0.959 . S
H3532 C3525 0.961 . S
H3533 C3525 0.960 . S
H3534 C3526 0.930 . S
H3535 C3527 0.929 . S
H3536 C3544 0.929 . S
H3537 C3546 0.930 . S
H3538 C3548 0.930 . S
H3539 C3551 0.929 . S
H3540 C3554 0.930 . S
H3541 C3556 0.960 . S
H3542 C3556 0.960 . S
H3543 C3556 0.960 . S
C3544 H3536 0.929 . S
C3544 C3545 1.377 . S
C3544 C3546 1.384 . S
C3545 C3544 1.377 . S
C3545 C3551 1.390 . S
C3546 H3537 0.930 . S
C3546 C3544 1.384 . S
C3546 C3547 1.372 . S
C3547 C3546 1.372 . S
C3547 C3548 1.400 . S
C3547 C3552 1.490 . S
C3548 H3538 0.930 . S
C3548 C3547 1.400 . S
C3548 C3551 1.386 . S
H3549 C3565 0.930 . S
H3550 C3566 0.931 . S
C3551 H3539 0.929 . S
C3551 C3545 1.390 . S
C3551 C3548 1.386 . S
C3552 C3547 1.490 . S
C3552 C3554 1.395 . S
C3552 C3555 1.403 . S
H3553 C3559 0.930 . S
C3554 H3540 0.930 . S
C3554 C3552 1.395 . S
C3554 C3557 1.403 . S
C3555 C3552 1.403 . S
C3555 C3556 1.524 . S
C3555 C3559 1.400 . S
C3556 H3541 0.960 . S
C3556 H3542 0.960 . S
C3556 H3543 0.960 . S
C3556 C3555 1.524 . S
C3557 C3554 1.403 . S
C3557 C3558 1.392 . S
C3557 C3561 1.495 . S
C3558 C3557 1.392 . S
C3558 C3559 1.385 . S
C3558 C3560 1.478 . S
C3559 H3553 0.930 . S
C3559 C3555 1.400 . S
C3559 C3558 1.385 . S
C3560 C3558 1.478 . S
C3560 C3562 1.381 . S
C3560 C3566 1.383 . S
C3561 C3557 1.495 . S
C3561 H3567 0.959 . S
C3561 H3568 0.961 . S
C3561 H3569 0.960 . S
C3562 C3560 1.381 . S
C3562 C3563 1.394 . S
C3562 H3570 0.930 . S
C3563 C3562 1.394 . S
C3563 C3564 1.383 . S
C3563 H3571 0.929 . S
C3564 C3563 1.383 . S
C3564 C3565 1.377 . S
C3565 H3549 0.930 . S
C3565 C3564 1.377 . S
C3565 C3566 1.379 . S
C3566 H3550 0.931 . S
C3566 C3560 1.383 . S
C3566 C3565 1.379 . S
H3567 C3561 0.959 . S
H3568 C3561 0.961 . S
H3569 C3561 0.960 . S
H3570 C3562 0.930 . S
H3571 C3563 0.929 . S
H3572 C3580 0.929 . S
H3573 C3582 0.930 1_565 S
H3574 C3584 0.930 . S
H3575 C3587 0.929 . S
H3576 C3590 0.930 . S
H3577 C3592 0.960 . S
H3578 C3592 0.960 . S
H3579 C3592 0.960 . S
C3580 H3572 0.929 . S
C3580 C3581 1.377 . S
C3580 C3582 1.384 1_565 S
C3581 C3580 1.377 . S
C3581 C3587 1.390 1_565 S
C3582 H3573 0.930 1_545 S
C3582 C3580 1.384 1_545 S
C3582 C3583 1.372 . S
C3583 C3582 1.372 . S
C3583 C3584 1.400 . S
C3583 C3588 1.490 . S
C3584 H3574 0.930 . S
C3584 C3583 1.400 . S
C3584 C3587 1.386 . S
H3585 C3601 0.930 . S
H3586 C3602 0.931 . S
C3587 H3575 0.929 . S
C3587 C3581 1.390 1_545 S
C3587 C3584 1.386 . S
C3588 C3583 1.490 . S
C3588 C3590 1.395 . S
C3588 C3591 1.403 . S
H3589 C3595 0.930 . S
C3590 H3576 0.930 . S
C3590 C3588 1.395 . S
C3590 C3593 1.403 . S
C3591 C3588 1.403 . S
C3591 C3592 1.524 . S
C3591 C3595 1.400 . S
C3592 H3577 0.960 . S
C3592 H3578 0.960 . S
C3592 H3579 0.960 . S
C3592 C3591 1.524 . S
C3593 C3590 1.403 . S
C3593 C3594 1.392 . S
C3593 C3597 1.495 . S
C3594 C3593 1.392 . S
C3594 C3595 1.385 . S
C3594 C3596 1.478 . S
C3595 H3589 0.930 . S
C3595 C3591 1.400 . S
C3595 C3594 1.385 . S
C3596 C3594 1.478 . S
C3596 C3598 1.381 . S
C3596 C3602 1.383 . S
C3597 C3593 1.495 . S
C3597 H3603 0.959 . S
C3597 H3604 0.961 . S
C3597 H3605 0.960 . S
C3598 C3596 1.381 . S
C3598 C3599 1.394 . S
C3598 H3606 0.930 . S
C3599 C3598 1.394 . S
C3599 C3600 1.383 . S
C3599 H3607 0.929 . S
C3600 C3599 1.383 . S
C3600 C3601 1.377 . S
C3601 H3585 0.930 . S
C3601 C3600 1.377 . S
C3601 C3602 1.379 . S
C3602 H3586 0.931 . S
C3602 C3596 1.383 . S
C3602 C3601 1.379 . S
H3603 C3597 0.959 . S
H3604 C3597 0.961 . S
H3605 C3597 0.960 . S
H3606 C3598 0.930 . S
H3607 C3599 0.929 . S
H3608 C3616 0.929 . S
H3609 C3618 0.930 . S
H3610 C3620 0.930 . S
H3611 C3623 0.929 . S
H3612 C3626 0.930 . S
H3613 C3628 0.960 . S
H3614 C3628 0.960 . S
H3615 C3628 0.960 . S
C3616 H3608 0.929 . S
C3616 C3617 1.377 . S
C3616 C3618 1.384 . S
C3617 C3616 1.377 . S
C3617 C3623 1.390 . S
C3618 H3609 0.930 . S
C3618 C3616 1.384 . S
C3618 C3619 1.372 . S
C3619 C3618 1.372 . S
C3619 C3620 1.400 . S
C3619 C3624 1.490 . S
C3620 H3610 0.930 . S
C3620 C3619 1.400 . S
C3620 C3623 1.386 . S
H3621 C3637 0.930 . S
H3622 C3638 0.931 . S
C3623 H3611 0.929 . S
C3623 C3617 1.390 . S
C3623 C3620 1.386 . S
C3624 C3619 1.490 . S
C3624 C3626 1.395 . S
C3624 C3627 1.403 . S
H3625 C3631 0.930 . S
C3626 H3612 0.930 . S
C3626 C3624 1.395 . S
C3626 C3629 1.403 . S
C3627 C3624 1.403 . S
C3627 C3628 1.524 . S
C3627 C3631 1.400 . S
C3628 H3613 0.960 . S
C3628 H3614 0.960 . S
C3628 H3615 0.960 . S
C3628 C3627 1.524 . S
C3629 C3626 1.403 . S
C3629 C3630 1.392 . S
C3629 C3633 1.495 . S
C3630 C3629 1.392 . S
C3630 C3631 1.385 . S
C3630 C3632 1.478 . S
C3631 H3625 0.930 . S
C3631 C3627 1.400 . S
C3631 C3630 1.385 . S
C3632 C3630 1.478 . S
C3632 C3634 1.381 . S
C3632 C3638 1.383 . S
C3633 C3629 1.495 . S
C3633 H3639 0.959 . S
C3633 H3640 0.961 . S
C3633 H3641 0.960 . S
C3634 C3632 1.381 . S
C3634 C3635 1.394 1_545 S
C3634 H3642 0.930 . S
C3635 C3634 1.394 1_565 S
C3635 C3636 1.383 . S
C3635 H3643 0.929 . S
C3636 C3635 1.383 . S
C3636 C3637 1.377 . S
C3637 H3621 0.930 . S
C3637 C3636 1.377 . S
C3637 C3638 1.379 1_565 S
C3638 H3622 0.931 . S
C3638 C3632 1.383 . S
C3638 C3637 1.379 1_545 S
H3639 C3633 0.959 . S
H3640 C3633 0.961 . S
H3641 C3633 0.960 . S
H3642 C3634 0.930 . S
H3643 C3635 0.929 . S
H3644 C3652 0.929 . S
H3645 C3654 0.930 . S
H3646 C3656 0.930 . S
H3647 C3659 0.929 . S
H3648 C3662 0.930 . S
H3649 C3664 0.960 . S
H3650 C3664 0.960 . S
H3651 C3664 0.960 . S
C3652 H3644 0.929 . S
C3652 C3653 1.377 . S
C3652 C3654 1.384 . S
C3653 C3652 1.377 . S
C3653 C3659 1.390 . S
C3654 H3645 0.930 . S
C3654 C3652 1.384 . S
C3654 C3655 1.372 . S
C3655 C3654 1.372 . S
C3655 C3656 1.400 . S
C3655 C3660 1.490 . S
C3656 H3646 0.930 . S
C3656 C3655 1.400 . S
C3656 C3659 1.386 . S
H3657 C3673 0.930 . S
H3658 C3674 0.931 . S
C3659 H3647 0.929 . S
C3659 C3653 1.390 . S
C3659 C3656 1.386 . S
C3660 C3655 1.490 . S
C3660 C3662 1.395 . S
C3660 C3663 1.403 . S
H3661 C3667 0.930 . S
C3662 H3648 0.930 . S
C3662 C3660 1.395 . S
C3662 C3665 1.403 . S
C3663 C3660 1.403 . S
C3663 C3664 1.524 . S
C3663 C3667 1.400 . S
C3664 H3649 0.960 . S
C3664 H3650 0.960 . S
C3664 H3651 0.960 . S
C3664 C3663 1.524 . S
C3665 C3662 1.403 . S
C3665 C3666 1.392 . S
C3665 C3669 1.495 . S
C3666 C3665 1.392 . S
C3666 C3667 1.385 . S
C3666 C3668 1.478 . S
C3667 H3661 0.930 . S
C3667 C3663 1.400 . S
C3667 C3666 1.385 . S
C3668 C3666 1.478 . S
C3668 C3670 1.381 . S
C3668 C3674 1.383 . S
C3669 C3665 1.495 . S
C3669 H3675 0.959 . S
C3669 H3676 0.961 . S
C3669 H3677 0.960 . S
C3670 C3668 1.381 . S
C3670 C3671 1.394 . S
C3670 H3678 0.930 . S
C3671 C3670 1.394 . S
C3671 C3672 1.383 . S
C3671 H3679 0.929 . S
C3672 C3671 1.383 . S
C3672 C3673 1.377 . S
C3673 H3657 0.930 . S
C3673 C3672 1.377 . S
C3673 C3674 1.379 . S
C3674 H3658 0.931 . S
C3674 C3668 1.383 . S
C3674 C3673 1.379 . S
H3675 C3669 0.959 . S
H3676 C3669 0.961 . S
H3677 C3669 0.960 . S
H3678 C3670 0.930 . S
H3679 C3671 0.929 . S
H3680 C3688 0.929 . S
H3681 C3690 0.930 . S
H3682 C3692 0.930 . S
H3683 C3695 0.929 . S
H3684 C3698 0.930 . S
H3685 C3700 0.960 . S
H3686 C3700 0.960 . S
H3687 C3700 0.960 . S
C3688 H3680 0.929 . S
C3688 C3689 1.377 . S
C3688 C3690 1.384 . S
C3689 C3688 1.377 . S
C3689 C3695 1.390 . S
C3690 H3681 0.930 . S
C3690 C3688 1.384 . S
C3690 C3691 1.372 . S
C3691 C3690 1.372 . S
C3691 C3692 1.400 . S
C3691 C3696 1.490 . S
C3692 H3682 0.930 . S
C3692 C3691 1.400 . S
C3692 C3695 1.386 . S
H3693 C3709 0.930 . S
H3694 C3710 0.931 . S
C3695 H3683 0.929 . S
C3695 C3689 1.390 . S
C3695 C3692 1.386 . S
C3696 C3691 1.490 . S
C3696 C3698 1.395 . S
C3696 C3699 1.403 . S
H3697 C3703 0.930 . S
C3698 H3684 0.930 . S
C3698 C3696 1.395 . S
C3698 C3701 1.403 . S
C3699 C3696 1.403 . S
C3699 C3700 1.524 . S
C3699 C3703 1.400 . S
C3700 H3685 0.960 . S
C3700 H3686 0.960 . S
C3700 H3687 0.960 . S
C3700 C3699 1.524 . S
C3701 C3698 1.403 . S
C3701 C3702 1.392 . S
C3701 C3705 1.495 . S
C3702 C3701 1.392 . S
C3702 C3703 1.385 . S
C3702 C3704 1.478 . S
C3703 H3697 0.930 . S
C3703 C3699 1.400 . S
C3703 C3702 1.385 . S
C3704 C3702 1.478 . S
C3704 C3706 1.381 1_565 S
C3704 C3710 1.383 . S
C3705 C3701 1.495 . S
C3705 H3711 0.959 . S
C3705 H3712 0.961 . S
C3705 H3713 0.960 . S
C3706 C3704 1.381 1_545 S
C3706 C3707 1.394 . S
C3706 H3714 0.930 . S
C3707 C3706 1.394 . S
C3707 C3708 1.383 . S
C3707 H3715 0.929 . S
C3708 C3707 1.383 . S
C3708 C3709 1.377 1_545 S
C3709 H3693 0.930 . S
C3709 C3708 1.377 1_565 S
C3709 C3710 1.379 . S
C3710 H3694 0.931 . S
C3710 C3704 1.383 . S
C3710 C3709 1.379 . S
H3711 C3705 0.959 . S
H3712 C3705 0.961 . S
H3713 C3705 0.960 . S
H3714 C3706 0.930 . S
H3715 C3707 0.929 . S
H3716 C3724 0.929 . S
H3717 C3726 0.930 . S
H3718 C3728 0.930 . S
H3719 C3731 0.929 . S
H3720 C3734 0.930 . S
H3721 C3736 0.960 . S
H3722 C3736 0.960 . S
H3723 C3736 0.960 . S
C3724 H3716 0.929 . S
C3724 C3725 1.377 . S
C3724 C3726 1.384 . S
C3725 C3724 1.377 . S
C3725 C3731 1.390 . S
C3726 H3717 0.930 . S
C3726 C3724 1.384 . S
C3726 C3727 1.372 . S
C3727 C3726 1.372 . S
C3727 C3728 1.400 . S
C3727 C3732 1.490 . S
C3728 H3718 0.930 . S
C3728 C3727 1.400 . S
C3728 C3731 1.386 . S
H3729 C3745 0.930 . S
H3730 C3746 0.931 . S
C3731 H3719 0.929 . S
C3731 C3725 1.390 . S
C3731 C3728 1.386 . S
C3732 C3727 1.490 . S
C3732 C3734 1.395 . S
C3732 C3735 1.403 . S
H3733 C3739 0.930 . S
C3734 H3720 0.930 . S
C3734 C3732 1.395 . S
C3734 C3737 1.403 . S
C3735 C3732 1.403 . S
C3735 C3736 1.524 . S
C3735 C3739 1.400 . S
C3736 H3721 0.960 . S
C3736 H3722 0.960 . S
C3736 H3723 0.960 . S
C3736 C3735 1.524 . S
C3737 C3734 1.403 . S
C3737 C3738 1.392 . S
C3737 C3741 1.495 . S
C3738 C3737 1.392 . S
C3738 C3739 1.385 . S
C3738 C3740 1.478 . S
C3739 H3733 0.930 . S
C3739 C3735 1.400 . S
C3739 C3738 1.385 . S
C3740 C3738 1.478 . S
C3740 C3742 1.381 . S
C3740 C3746 1.383 . S
C3741 C3737 1.495 . S
C3741 H3747 0.959 . S
C3741 H3748 0.961 . S
C3741 H3749 0.960 . S
C3742 C3740 1.381 . S
C3742 C3743 1.394 . S
C3742 H3750 0.930 . S
C3743 C3742 1.394 . S
C3743 C3744 1.383 . S
C3743 H3751 0.929 . S
C3744 C3743 1.383 . S
C3744 C3745 1.377 . S
C3745 H3729 0.930 . S
C3745 C3744 1.377 . S
C3745 C3746 1.379 . S
C3746 H3730 0.931 . S
C3746 C3740 1.383 . S
C3746 C3745 1.379 . S
H3747 C3741 0.959 . S
H3748 C3741 0.961 . S
H3749 C3741 0.960 . S
H3750 C3742 0.930 . S
H3751 C3743 0.929 . S
H3752 C3760 0.929 . S
H3753 C3762 0.930 . S
H3754 C3764 0.930 . S
H3755 C3767 0.929 . S
H3756 C3770 0.930 . S
H3757 C3772 0.960 . S
H3758 C3772 0.960 . S
H3759 C3772 0.960 . S
C3760 H3752 0.929 . S
C3760 C3761 1.377 . S
C3760 C3762 1.384 . S
C3761 C3760 1.377 . S
C3761 C3767 1.390 . S
C3762 H3753 0.930 . S
C3762 C3760 1.384 . S
C3762 C3763 1.372 . S
C3763 C3762 1.372 . S
C3763 C3764 1.400 . S
C3763 C3768 1.490 . S
C3764 H3754 0.930 . S
C3764 C3763 1.400 . S
C3764 C3767 1.386 . S
H3765 C3781 0.930 . S
H3766 C3782 0.931 . S
C3767 H3755 0.929 . S
C3767 C3761 1.390 . S
C3767 C3764 1.386 . S
C3768 C3763 1.490 . S
C3768 C3770 1.395 . S
C3768 C3771 1.403 . S
H3769 C3775 0.930 . S
C3770 H3756 0.930 . S
C3770 C3768 1.395 . S
C3770 C3773 1.403 . S
C3771 C3768 1.403 . S
C3771 C3772 1.524 . S
C3771 C3775 1.400 . S
C3772 H3757 0.960 . S
C3772 H3758 0.960 . S
C3772 H3759 0.960 . S
C3772 C3771 1.524 . S
C3773 C3770 1.403 . S
C3773 C3774 1.392 . S
C3773 C3777 1.495 . S
C3774 C3773 1.392 . S
C3774 C3775 1.385 . S
C3774 C3776 1.478 . S
C3775 H3769 0.930 . S
C3775 C3771 1.400 . S
C3775 C3774 1.385 . S
C3776 C3774 1.478 . S
C3776 C3778 1.381 . S
C3776 C3782 1.383 . S
C3777 C3773 1.495 . S
C3777 H3783 0.959 . S
C3777 H3784 0.961 . S
C3777 H3785 0.960 . S
C3778 C3776 1.381 . S
C3778 C3779 1.394 . S
C3778 H3786 0.930 . S
C3779 C3778 1.394 . S
C3779 C3780 1.383 . S
C3779 H3787 0.929 . S
C3780 C3779 1.383 . S
C3780 C3781 1.377 . S
C3781 H3765 0.930 . S
C3781 C3780 1.377 . S
C3781 C3782 1.379 . S
C3782 H3766 0.931 . S
C3782 C3776 1.383 . S
C3782 C3781 1.379 . S
H3783 C3777 0.959 . S
H3784 C3777 0.961 . S
H3785 C3777 0.960 . S
H3786 C3778 0.930 . S
H3787 C3779 0.929 . S
H3788 C3796 0.929 . S
H3789 C3798 0.930 . S
H3790 C3800 0.930 . S
H3791 C3803 0.929 . S
H3792 C3806 0.930 . S
H3793 C3808 0.960 . S
H3794 C3808 0.960 . S
H3795 C3808 0.960 . S
C3796 H3788 0.929 . S
C3796 C3797 1.377 . S
C3796 C3798 1.384 . S
C3797 C3796 1.377 . S
C3797 C3803 1.390 . S
C3798 H3789 0.930 . S
C3798 C3796 1.384 . S
C3798 C3799 1.372 . S
C3799 C3798 1.372 . S
C3799 C3800 1.400 . S
C3799 C3804 1.490 . S
C3800 H3790 0.930 . S
C3800 C3799 1.400 . S
C3800 C3803 1.386 . S
H3801 C3817 0.930 . S
H3802 C3818 0.931 . S
C3803 H3791 0.929 . S
C3803 C3797 1.390 . S
C3803 C3800 1.386 . S
C3804 C3799 1.490 . S
C3804 C3806 1.395 . S
C3804 C3807 1.403 . S
H3805 C3811 0.930 . S
C3806 H3792 0.930 . S
C3806 C3804 1.395 . S
C3806 C3809 1.403 . S
C3807 C3804 1.403 . S
C3807 C3808 1.524 . S
C3807 C3811 1.400 . S
C3808 H3793 0.960 . S
C3808 H3794 0.960 . S
C3808 H3795 0.960 . S
C3808 C3807 1.524 . S
C3809 C3806 1.403 . S
C3809 C3810 1.392 . S
C3809 C3813 1.495 . S
C3810 C3809 1.392 . S
C3810 C3811 1.385 . S
C3810 C3812 1.478 . S
C3811 H3805 0.930 . S
C3811 C3807 1.400 . S
C3811 C3810 1.385 . S
C3812 C3810 1.478 . S
C3812 C3814 1.381 . S
C3812 C3818 1.383 . S
C3813 C3809 1.495 . S
C3813 H3819 0.959 . S
C3813 H3820 0.961 . S
C3813 H3821 0.960 . S
C3814 C3812 1.381 . S
C3814 C3815 1.394 . S
C3814 H3822 0.930 . S
C3815 C3814 1.394 . S
C3815 C3816 1.383 1_565 S
C3815 H3823 0.929 . S
C3816 C3815 1.383 1_545 S
C3816 C3817 1.377 . S
C3817 H3801 0.930 . S
C3817 C3816 1.377 . S
C3817 C3818 1.379 1_545 S
C3818 H3802 0.931 . S
C3818 C3812 1.383 . S
C3818 C3817 1.379 1_565 S
H3819 C3813 0.959 . S
H3820 C3813 0.961 . S
H3821 C3813 0.960 . S
H3822 C3814 0.930 . S
H3823 C3815 0.929 . S
H3824 C3832 0.929 . S
H3825 C3834 0.930 . S
H3826 C3836 0.930 . S
H3827 C3839 0.929 . S
H3828 C3842 0.930 . S
H3829 C3844 0.960 . S
H3830 C3844 0.960 . S
H3831 C3844 0.960 . S
C3832 H3824 0.929 . S
C3832 C3833 1.377 . S
C3832 C3834 1.384 . S
C3833 C3832 1.377 . S
C3833 C3839 1.390 1_565 S
C3834 H3825 0.930 . S
C3834 C3832 1.384 . S
C3834 C3835 1.372 1_565 S
C3835 C3834 1.372 1_545 S
C3835 C3836 1.400 . S
C3835 C3840 1.490 . S
C3836 H3826 0.930 . S
C3836 C3835 1.400 . S
C3836 C3839 1.386 . S
H3837 C3853 0.930 . S
H3838 C3854 0.931 . S
C3839 H3827 0.929 . S
C3839 C3833 1.390 1_545 S
C3839 C3836 1.386 . S
C3840 C3835 1.490 . S
C3840 C3842 1.395 . S
C3840 C3843 1.403 . S
H3841 C3847 0.930 . S
C3842 H3828 0.930 . S
C3842 C3840 1.395 . S
C3842 C3845 1.403 . S
C3843 C3840 1.403 . S
C3843 C3844 1.524 . S
C3843 C3847 1.400 . S
C3844 H3829 0.960 . S
C3844 H3830 0.960 . S
C3844 H3831 0.960 . S
C3844 C3843 1.524 . S
C3845 C3842 1.403 . S
C3845 C3846 1.392 . S
C3845 C3849 1.495 . S
C3846 C3845 1.392 . S
C3846 C3847 1.385 . S
C3846 C3848 1.478 . S
C3847 H3841 0.930 . S
C3847 C3843 1.400 . S
C3847 C3846 1.385 . S
C3848 C3846 1.478 . S
C3848 C3850 1.381 . S
C3848 C3854 1.383 . S
C3849 C3845 1.495 . S
C3849 H3855 0.959 . S
C3849 H3856 0.961 . S
C3849 H3857 0.960 . S
C3850 C3848 1.381 . S
C3850 C3851 1.394 . S
C3850 H3858 0.930 . S
C3851 C3850 1.394 . S
C3851 C3852 1.383 . S
C3851 H3859 0.929 . S
C3852 C3851 1.383 . S
C3852 C3853 1.377 . S
C3853 H3837 0.930 . S
C3853 C3852 1.377 . S
C3853 C3854 1.379 . S
C3854 H3838 0.931 . S
C3854 C3848 1.383 . S
C3854 C3853 1.379 . S
H3855 C3849 0.959 . S
H3856 C3849 0.961 . S
H3857 C3849 0.960 . S
H3858 C3850 0.930 . S
H3859 C3851 0.929 . S
H3860 C3868 0.929 . S
H3861 C3870 0.930 . S
H3862 C3872 0.930 . S
H3863 C3875 0.929 . S
H3864 C3878 0.930 . S
H3865 C3880 0.960 . S
H3866 C3880 0.960 . S
H3867 C3880 0.960 . S
C3868 H3860 0.929 . S
C3868 C3869 1.377 . S
C3868 C3870 1.384 . S
C3869 C3868 1.377 . S
C3869 C3875 1.390 . S
C3870 H3861 0.930 . S
C3870 C3868 1.384 . S
C3870 C3871 1.372 . S
C3871 C3870 1.372 . S
C3871 C3872 1.400 . S
C3871 C3876 1.490 . S
C3872 H3862 0.930 . S
C3872 C3871 1.400 . S
C3872 C3875 1.386 . S
H3873 C3889 0.930 . S
H3874 C3890 0.931 . S
C3875 H3863 0.929 . S
C3875 C3869 1.390 . S
C3875 C3872 1.386 . S
C3876 C3871 1.490 . S
C3876 C3878 1.395 . S
C3876 C3879 1.403 . S
H3877 C3883 0.930 . S
C3878 H3864 0.930 . S
C3878 C3876 1.395 . S
C3878 C3881 1.403 . S
C3879 C3876 1.403 . S
C3879 C3880 1.524 . S
C3879 C3883 1.400 . S
C3880 H3865 0.960 . S
C3880 H3866 0.960 . S
C3880 H3867 0.960 . S
C3880 C3879 1.524 . S
C3881 C3878 1.403 . S
C3881 C3882 1.392 . S
C3881 C3885 1.495 . S
C3882 C3881 1.392 . S
C3882 C3883 1.385 . S
C3882 C3884 1.478 . S
C3883 H3877 0.930 . S
C3883 C3879 1.400 . S
C3883 C3882 1.385 . S
C3884 C3882 1.478 . S
C3884 C3886 1.381 . S
C3884 C3890 1.383 . S
C3885 C3881 1.495 . S
C3885 H3891 0.959 . S
C3885 H3892 0.961 . S
C3885 H3893 0.960 . S
C3886 C3884 1.381 . S
C3886 C3887 1.394 . S
C3886 H3894 0.930 . S
C3887 C3886 1.394 . S
C3887 C3888 1.383 . S
C3887 H3895 0.929 . S
C3888 C3887 1.383 . S
C3888 C3889 1.377 . S
C3889 H3873 0.930 . S
C3889 C3888 1.377 . S
C3889 C3890 1.379 . S
C3890 H3874 0.931 . S
C3890 C3884 1.383 . S
C3890 C3889 1.379 . S
H3891 C3885 0.959 . S
H3892 C3885 0.961 . S
H3893 C3885 0.960 . S
H3894 C3886 0.930 . S
H3895 C3887 0.929 . S
H3896 C3904 0.929 . S
H3897 C3906 0.930 . S
H3898 C3908 0.930 . S
H3899 C3911 0.929 . S
H3900 C3914 0.930 . S
H3901 C3916 0.960 . S
H3902 C3916 0.960 . S
H3903 C3916 0.960 . S
C3904 H3896 0.929 . S
C3904 C3905 1.377 . S
C3904 C3906 1.384 . S
C3905 C3904 1.377 . S
C3905 C3911 1.390 . S
C3906 H3897 0.930 . S
C3906 C3904 1.384 . S
C3906 C3907 1.372 . S
C3907 C3906 1.372 . S
C3907 C3908 1.400 . S
C3907 C3912 1.490 . S
C3908 H3898 0.930 . S
C3908 C3907 1.400 . S
C3908 C3911 1.386 . S
H3909 C3925 0.930 . S
H3910 C3926 0.931 . S
C3911 H3899 0.929 . S
C3911 C3905 1.390 . S
C3911 C3908 1.386 . S
C3912 C3907 1.490 . S
C3912 C3914 1.395 . S
C3912 C3915 1.403 . S
H3913 C3919 0.930 . S
C3914 H3900 0.930 . S
C3914 C3912 1.395 . S
C3914 C3917 1.403 . S
C3915 C3912 1.403 . S
C3915 C3916 1.524 . S
C3915 C3919 1.400 . S
C3916 H3901 0.960 . S
C3916 H3902 0.960 . S
C3916 H3903 0.960 . S
C3916 C3915 1.524 . S
C3917 C3914 1.403 . S
C3917 C3918 1.392 . S
C3917 C3921 1.495 . S
C3918 C3917 1.392 . S
C3918 C3919 1.385 . S
C3918 C3920 1.478 . S
C3919 H3913 0.930 . S
C3919 C3915 1.400 . S
C3919 C3918 1.385 . S
C3920 C3918 1.478 . S
C3920 C3922 1.381 . S
C3920 C3926 1.383 . S
C3921 C3917 1.495 . S
C3921 H3927 0.959 . S
C3921 H3928 0.961 . S
C3921 H3929 0.960 . S
C3922 C3920 1.381 . S
C3922 C3923 1.394 . S
C3922 H3930 0.930 . S
C3923 C3922 1.394 . S
C3923 C3924 1.383 . S
C3923 H3931 0.929 . S
C3924 C3923 1.383 . S
C3924 C3925 1.377 . S
C3925 H3909 0.930 . S
C3925 C3924 1.377 . S
C3925 C3926 1.379 . S
C3926 H3910 0.931 . S
C3926 C3920 1.383 . S
C3926 C3925 1.379 . S
H3927 C3921 0.959 . S
H3928 C3921 0.961 . S
H3929 C3921 0.960 . S
H3930 C3922 0.930 . S
H3931 C3923 0.929 . S
H3932 C3940 0.929 . S
H3933 C3942 0.930 . S
H3934 C3944 0.930 . S
H3935 C3947 0.929 . S
H3936 C3950 0.930 . S
H3937 C3952 0.960 . S
H3938 C3952 0.960 . S
H3939 C3952 0.960 . S
C3940 H3932 0.929 . S
C3940 C3941 1.377 . S
C3940 C3942 1.384 . S
C3941 C3940 1.377 . S
C3941 C3947 1.390 . S
C3942 H3933 0.930 . S
C3942 C3940 1.384 . S
C3942 C3943 1.372 . S
C3943 C3942 1.372 . S
C3943 C3944 1.400 . S
C3943 C3948 1.490 . S
C3944 H3934 0.930 . S
C3944 C3943 1.400 . S
C3944 C3947 1.386 . S
H3945 C3961 0.930 . S
H3946 C3962 0.931 . S
C3947 H3935 0.929 . S
C3947 C3941 1.390 . S
C3947 C3944 1.386 . S
C3948 C3943 1.490 . S
C3948 C3950 1.395 . S
C3948 C3951 1.403 . S
H3949 C3955 0.930 . S
C3950 H3936 0.930 . S
C3950 C3948 1.395 . S
C3950 C3953 1.403 . S
C3951 C3948 1.403 . S
C3951 C3952 1.524 . S
C3951 C3955 1.400 . S
C3952 H3937 0.960 . S
C3952 H3938 0.960 . S
C3952 H3939 0.960 . S
C3952 C3951 1.524 . S
C3953 C3950 1.403 . S
C3953 C3954 1.392 . S
C3953 C3957 1.495 . S
C3954 C3953 1.392 . S
C3954 C3955 1.385 . S
C3954 C3956 1.478 . S
C3955 H3949 0.930 . S
C3955 C3951 1.400 . S
C3955 C3954 1.385 . S
C3956 C3954 1.478 . S
C3956 C3958 1.381 . S
C3956 C3962 1.383 1_545 S
C3957 C3953 1.495 . S
C3957 H3963 0.959 . S
C3957 H3964 0.961 . S
C3957 H3965 0.960 . S
C3958 C3956 1.381 . S
C3958 C3959 1.394 . S
C3958 H3966 0.930 . S
C3959 C3958 1.394 . S
C3959 C3960 1.383 1_545 S
C3959 H3967 0.929 . S
C3960 C3959 1.383 1_565 S
C3960 C3961 1.377 . S
C3961 H3945 0.930 . S
C3961 C3960 1.377 . S
C3961 C3962 1.379 . S
C3962 H3946 0.931 . S
C3962 C3956 1.383 1_565 S
C3962 C3961 1.379 . S
H3963 C3957 0.959 . S
H3964 C3957 0.961 . S
H3965 C3957 0.960 . S
H3966 C3958 0.930 . S
H3967 C3959 0.929 . S
C1097 C2 1.493 . S
C1116 C70 1.490 . S
C1133 C36 1.492 . S
C1152 C104 1.489 . S
C1169 C138 1.494 . S
C1188 C206 1.490 . S
C1205 C240 1.494 . S
C1224 C172 1.492 . S
C1241 C342 1.494 . S
C1260 C274 1.484 . S
C1277 C376 1.493 . S
C1296 C308 1.493 . S
C1313 C410 1.494 . S
C1332 C478 1.487 . S
C1349 C512 1.492 . S
C1368 C444 1.494 . S
C1385 C614 1.492 . S
C1404 C546 1.488 . S
C1421 C580 1.492 . S
C1440 C648 1.492 . S
C1457 C682 1.494 . S
C1476 C750 1.491 . S
C1493 C784 1.493 . S
C1512 C716 1.494 . S
C1529 C886 1.494 . S
C1548 C818 1.485 . S
C1565 C852 1.492 . S
C1584 C920 1.493 . S
C1601 C1022 1.492 . S
C1620 C954 1.487 . S
C1637 C1056 1.494 . S
C1656 C988 1.488 . S
C1673 C156 1.584 . S
C1692 C20 1.577 . S
C1709 C54 1.579 . S
C1728 C1006 1.570 . S
C1745 C88 1.583 . S
C1764 C496 1.571 . S
C1781 C122 1.580 . S
C1800 C802 1.578 . S
C1817 C190 1.584 . S
C1836 C870 1.583 . S
C1853 C360 1.581 . S
C1872 C224 1.587 . S
C1889 C666 1.580 . S
C1908 C258 1.580 . S
C1925 C292 1.584 . S
C1944 C428 1.586 . S
C1961 C734 1.584 . S
C1980 C326 1.583 . S
C1997 C1074 1.582 . S
C2016 C394 1.569 . S
C2033 C598 1.581 . S
C2052 C462 1.568 . S
C2069 C938 1.584 . S
C2088 C530 1.581 . S
C2105 C700 1.580 . S
C2124 C564 1.570 . S
C2141 C632 1.584 . S
C2160 C1040 1.576 . S
C2177 C768 1.582 . S
C2196 C904 1.589 . S
C2213 C972 1.584 . S
C2232 C836 1.583 . S
C2249 C9 0.775 . S
C2268 C5 0.810 . S
C2285 C39 0.784 . S
C2304 C43 0.811 . S
C2321 C73 0.789 . S
C2340 C77 0.752 . S
C2357 C107 0.782 . S
C2376 C111 0.806 . S
C2393 C145 0.776 . S
C2412 C141 0.761 . S
C2429 C175 0.791 . S
C2448 C179 0.820 . S
C2465 C213 0.787 . S
C2484 C209 0.806 . S
C2501 C247 0.791 . S
C2520 C243 0.810 . S
C2537 C281 0.785 . S
C2556 C277 0.792 . S
C2573 C315 0.791 . S
C2592 C311 0.760 . S
C2609 C349 0.790 . S
C2628 C345 0.763 . S
C2645 C379 0.786 . S
C2664 C383 0.765 . S
C2681 C417 0.789 . S
C2700 C413 0.810 . S
C2717 C451 0.785 . S
C2736 C447 0.803 . S
C2753 C485 0.790 . S
C2772 C481 0.789 . S
C2789 C519 0.779 . S
C2808 C515 0.761 . S
C2825 C549 0.781 . S
C2844 C553 0.822 . S
C2861 C587 0.780 . S
C2880 C583 0.788 . S
C2897 C621 0.792 . S
C2916 C617 0.762 . S
C2933 C655 0.776 . S
C2952 C651 0.810 . S
C2969 C689 0.785 . S
C2988 C685 0.803 . S
C3005 C723 0.792 . S
C3024 C719 0.801 . S
C3041 C753 0.789 . S
C3060 C757 0.822 . S
C3077 C791 0.776 . S
C3096 C787 0.773 . S
C3113 C821 0.790 . S
C3132 C825 0.763 . S
C3149 C859 0.789 . S
C3168 C855 0.764 . S
C3185 C893 0.775 . S
C3204 C889 0.808 . S
C3221 C927 0.791 . S
C3240 C923 0.769 . S
C3257 C957 0.781 . S
C3276 C961 0.750 . S
C3293 C991 0.785 . S
C3312 C995 0.802 . S
C3329 C1025 0.789 . S
C3348 C1029 0.823 . S
C3365 C1059 0.787 . S
C3384 C1063 0.813 . S
C3401 C883 1.622 . S
C3420 C33 1.624 . S
C3437 C67 1.626 . S
C3456 C849 1.638 . S
C3473 C951 1.622 . S
C3492 C101 1.619 . S
C3509 C135 1.625 . S
C3528 C917 1.606 . S
C3545 C1019 1.623 . S
C3564 C169 1.606 . S
C3581 C203 1.623 . S
C3600 C985 1.607 . S
C3617 C1087 1.623 . S
C3636 C237 1.606 . S
C3653 C1053 1.626 . S
C3672 C271 1.635 . S
C3689 C305 1.622 . S
C3708 C611 1.620 . S
C3725 C339 1.626 . S
C3744 C577 1.606 . S
C3761 C679 1.622 . S
C3780 C373 1.616 . S
C3797 C407 1.625 . S
C3816 C645 1.606 . S
C3833 C747 1.624 . S
C3852 C441 1.608 . S
C3869 C713 1.626 . S
C3888 C475 1.633 . S
C3905 C509 1.625 . S
C3924 C815 1.610 . S
C3941 C543 1.627 . S
C3960 C781 1.617 . S
