# Generated by pormake.
# Topology upb, (4)-cn, num edge types: 1
# Building blocks:
#     Node 0, Type 0, BuildingBlock: NAHDIM_clean_sbu_0, # of connection points: 4
#     Node 1, Type 0, BuildingBlock: NAHDIM_clean_sbu_0, # of connection points: 4
#     Node 2, Type 0, BuildingBlock: NAHDIM_clean_sbu_0, # of connection points: 4
#     Node 3, Type 0, BuildingBlock: NAHDIM_clean_sbu_0, # of connection points: 4
#     Node 4, Type 0, BuildingBlock: NAHDIM_clean_sbu_0, # of connection points: 4
#     Node 5, Type 0, BuildingBlock: NAHDIM_clean_sbu_0, # of connection points: 4
#     Node 6, Type 0, BuildingBlock: NAHDIM_clean_sbu_0, # of connection points: 4
#     Node 7, Type 0, BuildingBlock: NAHDIM_clean_sbu_0, # of connection points: 4
#     Node 8, Type 0, BuildingBlock: NAHDIM_clean_sbu_0, # of connection points: 4
#     Node 9, Type 0, BuildingBlock: NAHDIM_clean_sbu_0, # of connection points: 4
#     Node 10, Type 0, BuildingBlock: NAHDIM_clean_sbu_0, # of connection points: 4
#     Node 11, Type 0, BuildingBlock: NAHDIM_clean_sbu_0, # of connection points: 4
#     Node 12, Type 0, BuildingBlock: NAHDIM_clean_sbu_0, # of connection points: 4
#     Node 13, Type 0, BuildingBlock: NAHDIM_clean_sbu_0, # of connection points: 4
#     Node 14, Type 0, BuildingBlock: NAHDIM_clean_sbu_0, # of connection points: 4
#     Node 15, Type 0, BuildingBlock: NAHDIM_clean_sbu_0, # of connection points: 4
#     Edge 16, Type (0, 0), BuildingBlock: ZUJKAS_clean_linker_0, # of connection points: 2
#     Edge 17, Type (0, 0), BuildingBlock: ZUJKAS_clean_linker_0, # of connection points: 2
#     Edge 18, Type (0, 0), BuildingBlock: ZUJKAS_clean_linker_0, # of connection points: 2
#     Edge 19, Type (0, 0), BuildingBlock: ZUJKAS_clean_linker_0, # of connection points: 2
#     Edge 20, Type (0, 0), BuildingBlock: ZUJKAS_clean_linker_0, # of connection points: 2
#     Edge 21, Type (0, 0), BuildingBlock: ZUJKAS_clean_linker_0, # of connection points: 2
#     Edge 22, Type (0, 0), BuildingBlock: ZUJKAS_clean_linker_0, # of connection points: 2
#     Edge 23, Type (0, 0), BuildingBlock: ZUJKAS_clean_linker_0, # of connection points: 2
#     Edge 24, Type (0, 0), BuildingBlock: ZUJKAS_clean_linker_0, # of connection points: 2
#     Edge 25, Type (0, 0), BuildingBlock: ZUJKAS_clean_linker_0, # of connection points: 2
#     Edge 26, Type (0, 0), BuildingBlock: ZUJKAS_clean_linker_0, # of connection points: 2
#     Edge 27, Type (0, 0), BuildingBlock: ZUJKAS_clean_linker_0, # of connection points: 2
#     Edge 28, Type (0, 0), BuildingBlock: ZUJKAS_clean_linker_0, # of connection points: 2
#     Edge 29, Type (0, 0), BuildingBlock: ZUJKAS_clean_linker_0, # of connection points: 2
#     Edge 30, Type (0, 0), BuildingBlock: ZUJKAS_clean_linker_0, # of connection points: 2
#     Edge 31, Type (0, 0), BuildingBlock: ZUJKAS_clean_linker_0, # of connection points: 2
#     Edge 32, Type (0, 0), BuildingBlock: ZUJKAS_clean_linker_0, # of connection points: 2
#     Edge 33, Type (0, 0), BuildingBlock: ZUJKAS_clean_linker_0, # of connection points: 2
#     Edge 34, Type (0, 0), BuildingBlock: ZUJKAS_clean_linker_0, # of connection points: 2
#     Edge 35, Type (0, 0), BuildingBlock: ZUJKAS_clean_linker_0, # of connection points: 2
#     Edge 36, Type (0, 0), BuildingBlock: ZUJKAS_clean_linker_0, # of connection points: 2
#     Edge 37, Type (0, 0), BuildingBlock: ZUJKAS_clean_linker_0, # of connection points: 2
#     Edge 38, Type (0, 0), BuildingBlock: ZUJKAS_clean_linker_0, # of connection points: 2
#     Edge 39, Type (0, 0), BuildingBlock: ZUJKAS_clean_linker_0, # of connection points: 2
#     Edge 40, Type (0, 0), BuildingBlock: ZUJKAS_clean_linker_0, # of connection points: 2
#     Edge 41, Type (0, 0), BuildingBlock: ZUJKAS_clean_linker_0, # of connection points: 2
#     Edge 42, Type (0, 0), BuildingBlock: ZUJKAS_clean_linker_0, # of connection points: 2
#     Edge 43, Type (0, 0), BuildingBlock: ZUJKAS_clean_linker_0, # of connection points: 2
#     Edge 44, Type (0, 0), BuildingBlock: ZUJKAS_clean_linker_0, # of connection points: 2
#     Edge 45, Type (0, 0), BuildingBlock: ZUJKAS_clean_linker_0, # of connection points: 2
#     Edge 46, Type (0, 0), BuildingBlock: ZUJKAS_clean_linker_0, # of connection points: 2
#     Edge 47, Type (0, 0), BuildingBlock: ZUJKAS_clean_linker_0, # of connection points: 2
# Relax obj value: 0.223
# Max RMSD: 0.103
# Mean RMSD: 0.103
data_MOF--net-upb--node1-NAHDIM_clean_sbu_0--edge1-ZUJKAS_clean_linker_0
_symmetry_space_group_name_H-M    P1
_symmetry_Int_Tables_number       1
_symmetry_cell_setting            triclinic
loop_
_symmetry_equiv_pos_as_xyz
'x, y, z'
_cell_length_a     50.810357
_cell_length_b     50.817815
_cell_length_c     58.1623
_cell_angle_alpha  89.998839
_cell_angle_beta   89.997762
_cell_angle_gamma 90.004048
loop_
_atom_site_label
_atom_site_type_symbol
_atom_site_fract_x
_atom_site_fract_y
_atom_site_fract_z
_atom_type_partial_charge
C0 C 0.01095 0.3316 0.31799 0.0
O1 O 0.00914 0.3331 0.34047 0.0
O2 O 0.99825 0.28261 0.35996 0.0
Zn3 Zn 0.00151 0.27585 0.32587 0.0
O4 O 0.03281 0.25229 0.32075 0.0
C5 C 0.94796 0.25683 0.32629 0.0
O6 O 0.94627 0.27216 0.34441 0.0
O7 O 0.00737 0.30953 0.30816 0.0
C8 C 0.03348 0.23014 0.33087 0.0
O9 O 0.01369 0.22337 0.34416 0.0
C10 C 0.01833 0.2849 0.37283 0.0
O11 O 0.04192 0.28363 0.36363 0.0
O12 O 0.96936 0.2562 0.31497 0.0
C13 C 0.67424 0.01892 0.32177 0.0
O14 O 0.67111 0.02096 0.34411 0.0
O15 O 0.71691 0.00276 0.36789 0.0
Zn16 Zn 0.72794 0.0076 0.33482 0.0
O17 O 0.75054 0.04001 0.33222 0.0
C18 C 0.76889 0.97173 0.34008 0.0
O19 O 0.77185 0.98729 0.35794 0.0
O20 O 0.69662 0.0123 0.31387 0.0
C21 C 0.76489 0.04367 0.31461 0.0
O22 O 0.76473 0.02603 0.29809 0.0
C23 C 0.71638 0.0218 0.38206 0.0
O24 O 0.72192 0.04563 0.37478 0.0
O25 O 0.75015 0.97628 0.32615 0.0
C26 C 0.97703 0.67634 0.31913 0.0
O27 O 0.96609 0.67864 0.33948 0.0
O28 O 0.99903 0.71726 0.36556 0.0
Zn29 Zn 0.99765 0.72669 0.3318 0.0
O30 O 0.96709 0.75127 0.32663 0.0
C31 C 0.05024 0.74776 0.33684 0.0
O32 O 0.04954 0.73436 0.35614 0.0
O33 O 0.99236 0.69442 0.31211 0.0
C34 C 0.96934 0.77519 0.33271 0.0
O35 O 0.99153 0.78311 0.34202 0.0
C36 C 0.97911 0.71907 0.3787 0.0
O37 O 0.95636 0.72629 0.37002 0.0
O38 O 0.03082 0.74635 0.32311 0.0
C39 C 0.32872 0.99173 0.32248 0.0
O40 O 0.33099 0.99467 0.34483 0.0
O41 O 0.28101 0.99852 0.36591 0.0
Zn42 Zn 0.27301 0.99872 0.3319 0.0
O43 O 0.24881 0.96825 0.32536 0.0
C44 C 0.24853 0.04935 0.33884 0.0
O45 O 0.25803 0.04613 0.35965 0.0
O46 O 0.30613 0.99377 0.31323 0.0
C47 C 0.22757 0.96631 0.33677 0.0
O48 O 0.22196 0.98446 0.3521 0.0
C49 C 0.28231 0.97745 0.37762 0.0
O50 O 0.27957 0.95468 0.3672 0.0
O51 O 0.25344 0.03212 0.32356 0.0
C52 C 0.02646 0.67516 0.68185 0.0
O53 O 0.03898 0.67938 0.66245 0.0
O54 O 0.00093 0.71759 0.63667 0.0
Zn55 Zn 0.00602 0.72566 0.67046 0.0
O56 O 0.03852 0.74785 0.67464 0.0
C57 C 0.95237 0.74396 0.67256 0.0
O58 O 0.94887 0.72542 0.65711 0.0
O59 O 0.01018 0.69232 0.68896 0.0
C60 C 0.04094 0.76902 0.66322 0.0
O61 O 0.02215 0.77586 0.64888 0.0
C62 C 0.01971 0.71706 0.62222 0.0
O63 O 0.0439 0.72111 0.62935 0.0
O64 O 0.97505 0.74701 0.68137 0.0
C65 C 0.32198 0.02664 0.68084 0.0
O66 O 0.3133 0.04047 0.66332 0.0
O67 O 0.28177 0.99852 0.63669 0.0
Zn68 Zn 0.27475 0.00035 0.67074 0.0
O69 O 0.25011 0.03095 0.67621 0.0
C70 C 0.2605 0.9452 0.67004 0.0
O71 O 0.27793 0.94424 0.65338 0.0
O72 O 0.30858 0.00702 0.68766 0.0
C73 C 0.22568 0.0275 0.67988 0.0
O74 O 0.21633 0.00342 0.68074 0.0
C75 C 0.26252 0.99398 0.62331 0.0
O76 O 0.23897 0.99062 0.63216 0.0
O77 O 0.25712 0.96668 0.68084 0.0
C78 C 0.99053 0.32481 0.67747 0.0
O79 O 0.99764 0.32993 0.65623 0.0
O80 O 0.99994 0.28106 0.63026 0.0
Zn81 Zn 0.99468 0.26993 0.66318 0.0
O82 O 0.9622 0.24728 0.66493 0.0
C83 C 0.02924 0.22751 0.66019 0.0
O84 O 0.01269 0.22287 0.64331 0.0
O85 O 0.98914 0.30102 0.68411 0.0
C86 C 0.95851 0.23178 0.68177 0.0
O87 O 0.9762 0.23065 0.69822 0.0
C88 C 0.98055 0.28541 0.61699 0.0
O89 O 0.95654 0.28382 0.62525 0.0
O90 O 0.02589 0.24794 0.67245 0.0
C91 C 0.67401 0.98463 0.68353 0.0
O92 O 0.67012 0.9872 0.66132 0.0
O93 O 0.71914 0.99723 0.63808 0.0
Zn94 Zn 0.72907 0.99257 0.67139 0.0
O95 O 0.75191 0.96028 0.67374 0.0
C96 C 0.74631 0.04657 0.67234 0.0
O97 O 0.7269 0.04945 0.65762 0.0
O98 O 0.69718 0.98714 0.69152 0.0
C99 C 0.76977 0.95782 0.68889 0.0
O100 O 0.77354 0.97689 0.70378 0.0
C101 C 0.71525 0.97761 0.62498 0.0
O102 O 0.71673 0.95374 0.63357 0.0
O103 O 0.75032 0.02409 0.68125 0.0
C104 C 0.506 0.825 0.81924 0.0
O105 O 0.49756 0.83111 0.8399 0.0
O106 O 0.49663 0.78389 0.86808 0.0
Zn107 Zn 0.50213 0.77094 0.83573 0.0
O108 O 0.53473 0.74851 0.83544 0.0
C109 C 0.46575 0.7304 0.84171 0.0
O110 O 0.48019 0.72865 0.8604 0.0
O111 O 0.50809 0.8009 0.81365 0.0
C112 C 0.54046 0.73444 0.81809 0.0
O113 O 0.52461 0.73445 0.80024 0.0
C114 C 0.51601 0.79023 0.88072 0.0
O115 O 0.53987 0.78971 0.87201 0.0
O116 O 0.47121 0.74817 0.82708 0.0
C117 C 0.17206 0.50261 0.81924 0.0
O118 O 0.16926 0.49799 0.84132 0.0
O119 O 0.22018 0.49048 0.86228 0.0
Zn120 Zn 0.22792 0.49456 0.82849 0.0
O121 O 0.25186 0.52585 0.82459 0.0
C122 C 0.24713 0.44099 0.82829 0.0
O123 O 0.23234 0.43906 0.84674 0.0
O124 O 0.19484 0.50127 0.81026 0.0
C125 C 0.27609 0.5238 0.82969 0.0
O126 O 0.28501 0.50116 0.83732 0.0
C127 C 0.21688 0.51035 0.87523 0.0
O128 O 0.21779 0.53405 0.86622 0.0
O129 O 0.24734 0.46248 0.81711 0.0
C130 C 0.49941 0.17155 0.81452 0.0
O131 O 0.50636 0.16619 0.83577 0.0
O132 O 0.50479 0.21397 0.86288 0.0
Zn133 Zn 0.50042 0.22603 0.83015 0.0
O134 O 0.46696 0.24712 0.82801 0.0
C135 C 0.53119 0.27128 0.83375 0.0
O136 O 0.5127 0.27545 0.84913 0.0
O137 O 0.49707 0.19544 0.80834 0.0
C138 C 0.46229 0.26119 0.81042 0.0
O139 O 0.4795 0.26165 0.79357 0.0
C140 C 0.48507 0.20657 0.87466 0.0
O141 O 0.46175 0.20587 0.86492 0.0
O142 O 0.5307 0.24997 0.8223 0.0
C143 C 0.83005 0.49172 0.81316 0.0
O144 O 0.83386 0.49392 0.83541 0.0
O145 O 0.78391 0.50168 0.85862 0.0
Zn146 Zn 0.77512 0.50155 0.8248 0.0
O147 O 0.74938 0.47213 0.81931 0.0
C148 C 0.75773 0.55555 0.82935 0.0
O149 O 0.77326 0.55525 0.84741 0.0
O150 O 0.80707 0.49515 0.80505 0.0
C151 C 0.72747 0.47295 0.82981 0.0
O152 O 0.72253 0.49294 0.84349 0.0
C153 C 0.78499 0.48035 0.86999 0.0
O154 O 0.78179 0.45787 0.85918 0.0
O155 O 0.75651 0.53529 0.81658 0.0
C156 C 0.50936 0.17563 0.18033 0.0
O157 O 0.50066 0.16895 0.15988 0.0
O158 O 0.49936 0.21499 0.13093 0.0
Zn159 Zn 0.50364 0.22911 0.16309 0.0
O160 O 0.53472 0.25367 0.1637 0.0
C161 C 0.46329 0.2657 0.15565 0.0
O162 O 0.47617 0.26662 0.13607 0.0
O163 O 0.511 0.19987 0.18556 0.0
C164 C 0.53735 0.27028 0.17986 0.0
O165 O 0.51938 0.27138 0.19608 0.0
C166 C 0.51905 0.21149 0.11781 0.0
O167 O 0.54281 0.21611 0.12576 0.0
O168 O 0.4712 0.25 0.17121 0.0
C169 C 0.82605 0.51779 0.17175 0.0
O170 O 0.82618 0.52164 0.14941 0.0
O171 O 0.78054 0.49859 0.12908 0.0
Zn172 Zn 0.7722 0.50407 0.16259 0.0
O173 O 0.75046 0.53701 0.16516 0.0
C174 C 0.75364 0.45038 0.16665 0.0
O175 O 0.77283 0.44564 0.15208 0.0
O176 O 0.8052 0.50924 0.18126 0.0
C177 C 0.73775 0.54218 0.18343 0.0
O178 O 0.73906 0.52573 0.20083 0.0
C179 C 0.76172 0.49328 0.11547 0.0
O180 O 0.73777 0.49117 0.1238 0.0
O181 O 0.75043 0.47366 0.17415 0.0
C182 C 0.48349 0.82807 0.18282 0.0
O183 O 0.47451 0.82651 0.16171 0.0
O184 O 0.50406 0.7847 0.13788 0.0
Zn185 Zn 0.50189 0.77612 0.17183 0.0
O186 O 0.47078 0.75228 0.17702 0.0
C187 C 0.55473 0.75507 0.16871 0.0
O188 O 0.55526 0.76884 0.1496 0.0
O189 O 0.4968 0.809 0.19091 0.0
C190 C 0.46974 0.73052 0.16629 0.0
O191 O 0.4891 0.72421 0.15235 0.0
C192 C 0.48387 0.78462 0.12495 0.0
O193 O 0.46067 0.7797 0.13395 0.0
O194 O 0.53439 0.75606 0.18142 0.0
C195 C 0.17426 0.48691 0.1779 0.0
O196 O 0.17429 0.47962 0.15624 0.0
O197 O 0.2187 0.50341 0.13278 0.0
Zn198 Zn 0.22728 0.50251 0.16672 0.0
O199 O 0.25101 0.47145 0.1725 0.0
C200 C 0.24998 0.55431 0.16118 0.0
O201 O 0.23717 0.55342 0.14158 0.0
O202 O 0.19455 0.49815 0.18611 0.0
C203 C 0.27458 0.47231 0.16522 0.0
O204 O 0.28272 0.49351 0.15441 0.0
C205 C 0.21881 0.48278 0.12041 0.0
O206 O 0.22355 0.45989 0.13007 0.0
O207 O 0.24765 0.5353 0.17526 0.0
H208 H 0.0425 0.18352 0.3528 0.0
H209 H 0.0811 0.15514 0.34962 0.0
H210 H 0.11494 0.20802 0.29971 0.0
H211 H 0.07657 0.23689 0.30312 0.0
H212 H 0.10169 0.12921 0.31224 0.0
H213 H 0.17352 0.20136 0.3472 0.0
H214 H 0.13841 0.20606 0.34933 0.0
H215 H 0.15513 0.21255 0.32271 0.0
C216 C 0.05814 0.18917 0.34115 0.0
C217 C 0.05653 0.21257 0.32834 0.0
C218 C 0.08017 0.17289 0.33932 0.0
C219 C 0.10105 0.17966 0.32467 0.0
C220 C 0.09929 0.2027 0.31147 0.0
H221 H 0.22514 0.0625 0.29785 0.0
H222 H 0.19095 0.09573 0.29153 0.0
C223 C 0.07729 0.2191 0.31336 0.0
C224 C 0.12457 0.16246 0.32344 0.0
H225 H 0.19041 0.16043 0.33509 0.0
C226 C 0.12114 0.13604 0.31708 0.0
C227 C 0.14986 0.17144 0.32994 0.0
C228 C 0.15454 0.19933 0.33788 0.0
C229 C 0.14219 0.11816 0.31754 0.0
C230 C 0.1675 0.12712 0.32404 0.0
C231 C 0.17104 0.15369 0.32991 0.0
C232 C 0.18995 0.10878 0.32695 0.0
C233 C 0.13684 0.08962 0.31206 0.0
C234 C 0.20158 0.10596 0.34868 0.0
C235 C 0.22131 0.08732 0.35227 0.0
C236 C 0.22979 0.07101 0.33419 0.0
C237 C 0.21889 0.0746 0.31218 0.0
C238 C 0.19923 0.09345 0.30856 0.0
H239 H 0.11547 0.085 0.31245 0.0
H240 H 0.14427 0.08513 0.29456 0.0
H241 H 0.14708 0.07648 0.32442 0.0
H242 H 0.1948 0.11765 0.36309 0.0
H243 H 0.22931 0.08516 0.36943 0.0
H244 H 0.90272 0.2483 0.35059 0.0
H245 H 0.87017 0.21362 0.34444 0.0
H246 H 0.91177 0.18837 0.2837 0.0
H247 H 0.94479 0.22266 0.28996 0.0
H248 H 0.83675 0.20111 0.30825 0.0
H249 H 0.91031 0.1219 0.32291 0.0
H250 H 0.91701 0.15597 0.32936 0.0
H251 H 0.91852 0.14436 0.30019 0.0
C252 C 0.90486 0.23554 0.33579 0.0
C253 C 0.92655 0.23804 0.32093 0.0
C254 C 0.88621 0.21574 0.3323 0.0
C255 C 0.88887 0.19809 0.3139 0.0
C256 C 0.9097 0.2014 0.29832 0.0
H257 H 0.80081 0.05543 0.28111 0.0
H258 H 0.82981 0.09383 0.27909 0.0
C259 C 0.92846 0.22111 0.30186 0.0
C260 C 0.87041 0.17566 0.31167 0.0
H261 H 0.86731 0.10854 0.3131 0.0
C262 C 0.84341 0.18086 0.30924 0.0
C263 C 0.87918 0.14926 0.31303 0.0
C264 C 0.90779 0.14243 0.31672 0.0
C265 C 0.82494 0.16035 0.30813 0.0
C266 C 0.83371 0.13402 0.30977 0.0
C267 C 0.86071 0.12878 0.31178 0.0
C268 C 0.81516 0.11156 0.31038 0.0
C269 C 0.79621 0.16698 0.30512 0.0
C270 C 0.79748 0.10878 0.32874 0.0
C271 C 0.78097 0.08683 0.33002 0.0
C272 C 0.7819 0.06724 0.31296 0.0
C273 C 0.79955 0.07019 0.2945 0.0
C274 C 0.81613 0.0921 0.2933 0.0
H275 H 0.79345 0.18721 0.29829 0.0
H276 H 0.78649 0.15281 0.29333 0.0
H277 H 0.7862 0.16581 0.32205 0.0
H278 H 0.7968 0.12334 0.34232 0.0
H279 H 0.76766 0.08513 0.34449 0.0
H280 H 0.80701 0.95461 0.36933 0.0
H281 H 0.83789 0.91846 0.36369 0.0
H282 H 0.80346 0.90205 0.29748 0.0
H283 H 0.77224 0.93843 0.30294 0.0
H284 H 0.8251 0.86325 0.35418 0.0
H285 H 0.8849 0.91192 0.28602 0.0
H286 H 0.8636 0.93029 0.30501 0.0
H287 H 0.84973 0.91092 0.28227 0.0
C288 C 0.80593 0.94338 0.35353 0.0
C289 C 0.78721 0.94947 0.33653 0.0
C290 C 0.82357 0.92267 0.35038 0.0
C291 C 0.82303 0.90776 0.33013 0.0
C292 C 0.80429 0.91355 0.31314 0.0
H293 H 0.91933 0.76447 0.31767 0.0
H294 H 0.8823 0.79519 0.31465 0.0
C295 C 0.78646 0.93425 0.31633 0.0
C296 C 0.84237 0.8863 0.32707 0.0
H297 H 0.89922 0.87049 0.299 0.0
C298 C 0.84113 0.86458 0.34192 0.0
C299 C 0.8633 0.88835 0.31116 0.0
C300 C 0.86574 0.91164 0.29523 0.0
C301 C 0.86069 0.84509 0.34168 0.0
C302 C 0.8819 0.84739 0.32607 0.0
C303 C 0.88281 0.86878 0.31084 0.0
C304 C 0.90439 0.82891 0.32662 0.0
C305 C 0.85918 0.82281 0.35879 0.0
C306 C 0.92912 0.83787 0.33389 0.0
C307 C 0.95026 0.82044 0.33565 0.0
C308 C 0.94709 0.79372 0.33002 0.0
C309 C 0.9224 0.78491 0.32222 0.0
C310 C 0.90121 0.80239 0.32054 0.0
H311 H 0.84384 0.82623 0.37208 0.0
H312 H 0.85436 0.80429 0.34961 0.0
H313 H 0.87844 0.82005 0.36748 0.0
H314 H 0.93194 0.85829 0.33864 0.0
H315 H 0.96903 0.8279 0.34161 0.0
H316 H 0.0899 0.76147 0.36613 0.0
H317 H 0.12151 0.79723 0.36161 0.0
H318 H 0.09104 0.8133 0.29383 0.0
H319 H 0.05874 0.77794 0.29846 0.0
H320 H 0.16065 0.80799 0.33108 0.0
H321 H 0.08196 0.88367 0.32564 0.0
H322 H 0.07535 0.85008 0.33377 0.0
H323 H 0.08009 0.85852 0.30403 0.0
C324 C 0.09003 0.77242 0.35015 0.0
C325 C 0.07157 0.76706 0.33277 0.0
C326 C 0.10816 0.79287 0.3476 0.0
C327 C 0.10826 0.80829 0.32759 0.0
C328 C 0.09085 0.80206 0.30965 0.0
H329 H 0.23129 0.92708 0.3046 0.0
H330 H 0.20267 0.88863 0.30033 0.0
C331 C 0.07253 0.78173 0.31227 0.0
C332 C 0.12588 0.83151 0.32613 0.0
H333 H 0.1257 0.89855 0.3221 0.0
C334 C 0.15307 0.82779 0.32898 0.0
C335 C 0.11585 0.85735 0.32371 0.0
C336 C 0.08671 0.86278 0.32182 0.0
C337 C 0.17048 0.84924 0.32978 0.0
C338 C 0.16046 0.87505 0.32714 0.0
C339 C 0.13333 0.87872 0.32395 0.0
C340 C 0.1775 0.89864 0.32906 0.0
C341 C 0.19927 0.8441 0.33436 0.0
C342 C 0.17235 0.91746 0.34613 0.0
C343 C 0.18843 0.93958 0.34843 0.0
C344 C 0.21003 0.94333 0.33369 0.0
C345 C 0.21492 0.92466 0.31634 0.0
C346 C 0.19869 0.90259 0.31396 0.0
H347 H 0.20261 0.8241 0.34151 0.0
H348 H 0.21037 0.84563 0.31799 0.0
H349 H 0.20742 0.8588 0.34656 0.0
H350 H 0.15604 0.91485 0.35791 0.0
H351 H 0.18409 0.95357 0.36196 0.0
H352 H 0.05633 0.80984 0.63589 0.0
H353 H 0.09578 0.83694 0.63966 0.0
H354 H 0.11844 0.79331 0.70014 0.0
H355 H 0.07939 0.76553 0.69605 0.0
H356 H 0.11012 0.86912 0.6735 0.0
H357 H 0.18567 0.79117 0.66355 0.0
H358 H 0.15135 0.78565 0.65724 0.0
H359 H 0.16288 0.78496 0.68648 0.0
C360 C 0.06977 0.8059 0.64993 0.0
C361 C 0.0648 0.78546 0.66562 0.0
C362 C 0.09232 0.82142 0.65207 0.0
C363 C 0.1103 0.81691 0.66997 0.0
C364 C 0.10523 0.79672 0.68584 0.0
H365 H 0.22561 0.93824 0.70536 0.0
H366 H 0.19043 0.90548 0.70778 0.0
C367 C 0.08279 0.78098 0.68357 0.0
C368 C 0.13382 0.83403 0.67232 0.0
H369 H 0.20101 0.83353 0.67431 0.0
C370 C 0.13 0.86133 0.67369 0.0
C371 C 0.15976 0.82385 0.67233 0.0
C372 C 0.16525 0.79483 0.6696 0.0
C373 C 0.15134 0.87878 0.67486 0.0
C374 C 0.17727 0.86859 0.67544 0.0
C375 C 0.18112 0.84127 0.67419 0.0
C376 C 0.20062 0.88612 0.67584 0.0
C377 C 0.14584 0.90799 0.67459 0.0
C378 C 0.21901 0.88506 0.65786 0.0
C379 C 0.23944 0.90341 0.65667 0.0
C380 C 0.24173 0.92327 0.67339 0.0
C381 C 0.22418 0.92336 0.69208 0.0
C382 C 0.20395 0.90478 0.6934 0.0
H383 H 0.12578 0.9124 0.66802 0.0
H384 H 0.1472 0.91579 0.69236 0.0
H385 H 0.16037 0.9186 0.66374 0.0
H386 H 0.21693 0.87071 0.64421 0.0
H387 H 0.25264 0.90277 0.64206 0.0
H388 H 0.17228 0.02662 0.68508 0.0
H389 H 0.14211 0.06402 0.68504 0.0
H390 H 0.20778 0.11734 0.67904 0.0
H391 H 0.2382 0.07996 0.67868 0.0
H392 H 0.13797 0.10833 0.7136 0.0
H393 H 0.16178 0.13573 0.62335 0.0
H394 H 0.17164 0.10473 0.63578 0.0
H395 H 0.18933 0.13431 0.64267 0.0
C396 C 0.18037 0.04629 0.68386 0.0
C397 C 0.20764 0.05029 0.68163 0.0
C398 C 0.16309 0.06764 0.68391 0.0
C399 C 0.17269 0.09339 0.6817 0.0
C400 C 0.19995 0.09757 0.68034 0.0
H401 H 0.06774 0.23099 0.69324 0.0
H402 H 0.10413 0.20018 0.6999 0.0
C403 C 0.21729 0.07619 0.68023 0.0
C404 C 0.15395 0.11562 0.67992 0.0
H405 H 0.13067 0.16198 0.64263 0.0
C406 C 0.13648 0.12025 0.69818 0.0
C407 C 0.15195 0.13092 0.65967 0.0
C408 C 0.16949 0.12614 0.63914 0.0
C409 C 0.11671 0.13948 0.69658 0.0
C410 C 0.11465 0.15466 0.67628 0.0
C411 C 0.13246 0.15039 0.65822 0.0
C412 C 0.09286 0.17355 0.67258 0.0
C413 C 0.09754 0.14269 0.71619 0.0
C414 C 0.07481 0.169 0.6548 0.0
C415 C 0.05418 0.18653 0.65088 0.0
C416 C 0.05122 0.20909 0.66464 0.0
C417 C 0.06943 0.21373 0.68241 0.0
C418 C 0.09014 0.19611 0.68631 0.0
H419 H 0.09873 0.12613 0.72863 0.0
H420 H 0.10202 0.16119 0.72554 0.0
H421 H 0.07705 0.14403 0.70965 0.0
H422 H 0.07659 0.15172 0.64399 0.0
H423 H 0.04055 0.18235 0.63704 0.0
H424 H 0.91617 0.2325 0.65276 0.0
H425 H 0.87758 0.20379 0.65361 0.0
H426 H 0.90902 0.16355 0.71285 0.0
H427 H 0.94738 0.19256 0.71247 0.0
H428 H 0.87642 0.15092 0.64859 0.0
H429 H 0.83428 0.17774 0.73332 0.0
H430 H 0.85936 0.1972 0.71939 0.0
H431 H 0.86812 0.16784 0.7349 0.0
C432 C 0.91477 0.2177 0.66611 0.0
C433 C 0.93482 0.21486 0.68259 0.0
C434 C 0.89269 0.20132 0.66657 0.0
C435 C 0.89019 0.18181 0.68351 0.0
C436 C 0.91018 0.17891 0.69998 0.0
H437 H 0.78833 0.04734 0.70181 0.0
H438 H 0.82204 0.08154 0.70525 0.0
C439 C 0.93221 0.19539 0.69962 0.0
C440 C 0.86747 0.1635 0.68307 0.0
H441 H 0.81677 0.13924 0.71537 0.0
C442 C 0.86324 0.14856 0.66311 0.0
C443 C 0.85032 0.16041 0.70207 0.0
C444 C 0.85305 0.17683 0.72355 0.0
C445 C 0.84268 0.13021 0.66179 0.0
C446 C 0.82577 0.12691 0.68087 0.0
C447 C 0.82985 0.14187 0.70081 0.0
C448 C 0.80404 0.10756 0.6804 0.0
C449 C 0.83952 0.11405 0.6402 0.0
C450 C 0.78245 0.1113 0.66575 0.0
C451 C 0.76312 0.09187 0.66377 0.0
C452 C 0.76511 0.06834 0.6764 0.0
C453 C 0.78626 0.06517 0.69177 0.0
C454 C 0.80552 0.08468 0.6938 0.0
H455 H 0.85699 0.1155 0.62879 0.0
H456 H 0.83617 0.09302 0.64452 0.0
H457 H 0.8221 0.12117 0.63052 0.0
H458 H 0.78088 0.129 0.65546 0.0
H459 H 0.74705 0.09499 0.65185 0.0
H460 H 0.81315 0.94856 0.71559 0.0
H461 H 0.84221 0.91017 0.71457 0.0
H462 H 0.79336 0.87482 0.6624 0.0
H463 H 0.76453 0.91329 0.66293 0.0
H464 H 0.83258 0.85702 0.72237 0.0
H465 H 0.86588 0.87406 0.63269 0.0
H466 H 0.84814 0.89855 0.64895 0.0
H467 H 0.8308 0.87168 0.63568 0.0
C468 C 0.80857 0.93261 0.70391 0.0
C469 C 0.78668 0.9341 0.68917 0.0
C470 C 0.82517 0.91067 0.70339 0.0
C471 C 0.8202 0.88988 0.68812 0.0
C472 C 0.7979 0.89093 0.67393 0.0
H473 H 0.90326 0.74608 0.65344 0.0
H474 H 0.8698 0.78008 0.65901 0.0
C475 C 0.78137 0.91289 0.67434 0.0
C476 C 0.83853 0.86725 0.68681 0.0
H477 H 0.8792 0.83413 0.65014 0.0
C478 C 0.84283 0.85202 0.70661 0.0
C479 C 0.85193 0.86084 0.66623 0.0
C480 C 0.8492 0.87727 0.64473 0.0
C481 C 0.8599 0.83027 0.70626 0.0
C482 C 0.87316 0.82384 0.68565 0.0
C483 C 0.86882 0.83903 0.66587 0.0
C484 C 0.89224 0.80189 0.68422 0.0
C485 C 0.86336 0.81414 0.72782 0.0
C486 C 0.91584 0.8028 0.69671 0.0
C487 C 0.93504 0.78344 0.69354 0.0
C488 C 0.93101 0.76288 0.67773 0.0
C489 C 0.907 0.76162 0.66575 0.0
C490 C 0.88786 0.78103 0.66889 0.0
H491 H 0.84718 0.8176 0.74031 0.0
H492 H 0.86419 0.79281 0.72372 0.0
H493 H 0.88217 0.81968 0.73621 0.0
H494 H 0.91979 0.81899 0.70833 0.0
H495 H 0.95333 0.78503 0.703 0.0
H496 H 0.57888 0.73264 0.85096 0.0
H497 H 0.61856 0.70546 0.85114 0.0
H498 H 0.59622 0.67195 0.78587 0.0
H499 H 0.55673 0.69943 0.78531 0.0
H500 H 0.62134 0.65182 0.85087 0.0
H501 H 0.67246 0.69221 0.77436 0.0
H502 H 0.64504 0.70872 0.78784 0.0
H503 H 0.63942 0.68156 0.76862 0.0
C504 C 0.58249 0.71963 0.83654 0.0
C505 C 0.56467 0.71824 0.81808 0.0
C506 C 0.60519 0.70414 0.83668 0.0
C507 C 0.61057 0.68701 0.81835 0.0
C508 C 0.5928 0.68551 0.79992 0.0
H509 H 0.72153 0.5614 0.79486 0.0
H510 H 0.68721 0.59499 0.7919 0.0
C511 C 0.57012 0.70109 0.79972 0.0
C512 C 0.63401 0.66967 0.81917 0.0
H513 H 0.68978 0.6524 0.79 0.0
C514 C 0.63643 0.65211 0.83768 0.0
C515 C 0.65363 0.67006 0.80189 0.0
C516 C 0.65271 0.68932 0.78216 0.0
C517 C 0.65762 0.63451 0.83912 0.0
C518 C 0.67708 0.63474 0.82175 0.0
C519 C 0.67479 0.65235 0.80329 0.0
C520 C 0.69954 0.61622 0.82226 0.0
C521 C 0.65866 0.61532 0.85891 0.0
C522 C 0.71831 0.6176 0.8399 0.0
C523 C 0.73797 0.59848 0.84166 0.0
C524 C 0.73918 0.57765 0.82576 0.0
C525 C 0.72109 0.5771 0.80745 0.0
C526 C 0.70147 0.59627 0.8057 0.0
H527 H 0.63952 0.61398 0.86808 0.0
H528 H 0.66422 0.59538 0.8528 0.0
H529 H 0.67379 0.6219 0.87141 0.0
H530 H 0.71734 0.63312 0.85265 0.0
H531 H 0.75167 0.59958 0.85589 0.0
H532 H 0.43487 0.7246 0.80326 0.0
H533 H 0.39911 0.69278 0.79743 0.0
H534 H 0.4116 0.66224 0.86572 0.0
H535 H 0.44708 0.69379 0.87174 0.0
H536 H 0.40281 0.63659 0.80039 0.0
H537 H 0.33167 0.67722 0.86332 0.0
H538 H 0.35907 0.69604 0.85228 0.0
H539 H 0.36407 0.67249 0.87494 0.0
C540 C 0.42986 0.71122 0.81708 0.0
C541 C 0.44377 0.71177 0.83799 0.0
C542 C 0.40947 0.69307 0.8137 0.0
C543 C 0.40251 0.67546 0.83127 0.0
C544 C 0.41636 0.676 0.85211 0.0
H545 H 0.32921 0.52502 0.83675 0.0
H546 H 0.35852 0.56301 0.83428 0.0
C547 C 0.43675 0.69396 0.85545 0.0
C548 C 0.38154 0.65565 0.82774 0.0
H549 H 0.32413 0.63293 0.85085 0.0
C550 C 0.38541 0.63596 0.81118 0.0
C551 C 0.35872 0.65509 0.84165 0.0
C552 C 0.35294 0.67648 0.85891 0.0
C553 C 0.36766 0.61493 0.80896 0.0
C554 C 0.3457 0.61351 0.82386 0.0
C555 C 0.34114 0.63392 0.83961 0.0
C556 C 0.32798 0.59037 0.82424 0.0
C557 C 0.3727 0.59427 0.79087 0.0
C558 C 0.301 0.59327 0.81981 0.0
C559 C 0.28413 0.57159 0.82129 0.0
C560 C 0.29395 0.54668 0.82747 0.0
C561 C 0.32101 0.54389 0.83188 0.0
C562 C 0.33784 0.56554 0.83032 0.0
H563 H 0.38549 0.60191 0.77688 0.0
H564 H 0.38286 0.57726 0.79888 0.0
H565 H 0.35397 0.58714 0.78325 0.0
H566 H 0.29299 0.61234 0.81528 0.0
H567 H 0.26337 0.57442 0.81785 0.0
H568 H 0.2566 0.39557 0.85207 0.0
H569 H 0.29136 0.36335 0.84496 0.0
H570 H 0.31464 0.40572 0.78403 0.0
H571 H 0.28028 0.4384 0.79124 0.0
H572 H 0.3033 0.33037 0.80821 0.0
H573 H 0.38206 0.40462 0.82206 0.0
H574 H 0.34808 0.41084 0.82922 0.0
H575 H 0.35895 0.4129 0.79986 0.0
C576 C 0.26894 0.39794 0.83702 0.0
C577 C 0.26588 0.41975 0.82238 0.0
C578 C 0.28878 0.37948 0.83299 0.0
C579 C 0.30591 0.38246 0.81425 0.0
C580 C 0.30202 0.40341 0.79889 0.0
H581 H 0.44867 0.29698 0.77737 0.0
H582 H 0.40965 0.3252 0.77647 0.0
C583 C 0.28227 0.42197 0.80297 0.0
C584 C 0.32847 0.36427 0.81143 0.0
H585 H 0.39564 0.36195 0.81136 0.0
C586 C 0.32349 0.33726 0.80884 0.0
C587 C 0.3548 0.37333 0.81234 0.0
C588 C 0.3614 0.40196 0.81622 0.0
C589 C 0.34418 0.31905 0.80707 0.0
C590 C 0.37045 0.32811 0.80819 0.0
C591 C 0.37543 0.35513 0.81042 0.0
C592 C 0.39314 0.30986 0.80802 0.0
C593 C 0.3378 0.29028 0.8039 0.0
C594 C 0.3968 0.29201 0.82613 0.0
C595 C 0.41911 0.27595 0.82677 0.0
C596 C 0.4382 0.2775 0.80931 0.0
C597 C 0.43432 0.29525 0.79106 0.0
C598 C 0.41205 0.31138 0.7905 0.0
H599 H 0.31738 0.28736 0.79757 0.0
H600 H 0.35168 0.28093 0.79163 0.0
H601 H 0.33969 0.28005 0.82068 0.0
H602 H 0.38267 0.2909 0.84005 0.0
H603 H 0.42152 0.26254 0.8411 0.0
H604 H 0.6794 0.46874 0.85041 0.0
H605 H 0.64766 0.43288 0.84682 0.0
H606 H 0.69938 0.3929 0.79955 0.0
H607 H 0.73151 0.42858 0.80323 0.0
H608 H 0.62246 0.41393 0.80691 0.0
H609 H 0.68372 0.33672 0.84864 0.0
H610 H 0.6913 0.37133 0.85089 0.0
H611 H 0.69868 0.35373 0.82491 0.0
C612 C 0.68409 0.45232 0.83926 0.0
C613 C 0.70805 0.45146 0.82719 0.0
C614 C 0.6659 0.43187 0.83721 0.0
C615 C 0.67133 0.41011 0.82315 0.0
C616 C 0.69503 0.40931 0.8108 0.0
H617 H 0.57458 0.268 0.80572 0.0
H618 H 0.60901 0.30134 0.80034 0.0
C619 C 0.71329 0.42978 0.81285 0.0
C620 C 0.65194 0.38845 0.82145 0.0
H621 H 0.64189 0.32389 0.83522 0.0
C622 C 0.62674 0.3942 0.81296 0.0
C623 C 0.65767 0.3627 0.82924 0.0
C624 C 0.68422 0.35566 0.83911 0.0
C625 C 0.60693 0.37499 0.81244 0.0
C626 C 0.61239 0.34951 0.82095 0.0
C627 C 0.63783 0.34348 0.8287 0.0
C628 C 0.59143 0.32952 0.82359 0.0
C629 C 0.58025 0.38218 0.80293 0.0
C630 C 0.57041 0.33427 0.83865 0.0
C631 C 0.55087 0.31534 0.84181 0.0
C632 C 0.55198 0.29121 0.83003 0.0
C633 C 0.57312 0.28643 0.81498 0.0
C634 C 0.59279 0.30541 0.81189 0.0
H635 H 0.58141 0.39945 0.79126 0.0
H636 H 0.57143 0.36542 0.7934 0.0
H637 H 0.56692 0.38733 0.81735 0.0
H638 H 0.56929 0.35255 0.84818 0.0
H639 H 0.53493 0.31966 0.85359 0.0
H640 H 0.7129 0.45306 0.1973 0.0
H641 H 0.67788 0.42076 0.20316 0.0
H642 H 0.71413 0.36943 0.1533 0.0
H643 H 0.74952 0.40131 0.14772 0.0
H644 H 0.6434 0.40461 0.17071 0.0
H645 H 0.69765 0.31832 0.2045 0.0
H646 H 0.71196 0.35082 0.20337 0.0
H647 H 0.7111 0.33049 0.17804 0.0
C648 C 0.71368 0.43469 0.18787 0.0
C649 C 0.73402 0.42976 0.17204 0.0
C650 C 0.69363 0.41627 0.19123 0.0
C651 C 0.69352 0.39255 0.17887 0.0
C652 C 0.71411 0.38731 0.16344 0.0
H653 H 0.58007 0.27021 0.15123 0.0
H654 H 0.6179 0.30003 0.15206 0.0
C655 C 0.73427 0.40565 0.16016 0.0
C656 C 0.6708 0.37434 0.18068 0.0
H657 H 0.6538 0.3104 0.19112 0.0
C658 C 0.64564 0.38409 0.17544 0.0
C659 C 0.67377 0.34754 0.18677 0.0
C660 C 0.70004 0.33621 0.19371 0.0
C661 C 0.62348 0.36762 0.17554 0.0
C662 C 0.62655 0.34077 0.18123 0.0
C663 C 0.65161 0.33102 0.1867 0.0
C664 C 0.60394 0.32244 0.18122 0.0
C665 C 0.59704 0.37888 0.16898 0.0
C666 C 0.58377 0.32508 0.19751 0.0
C667 C 0.56216 0.30806 0.19714 0.0
C668 C 0.56036 0.28813 0.18042 0.0
C669 C 0.58079 0.28542 0.16426 0.0
C670 C 0.60245 0.30237 0.16474 0.0
H671 H 0.59884 0.3986 0.16089 0.0
H672 H 0.58665 0.36553 0.15689 0.0
H673 H 0.58471 0.38086 0.18464 0.0
H674 H 0.58475 0.34031 0.21051 0.0
H675 H 0.54681 0.31063 0.20986 0.0
H676 H 0.59779 0.74364 0.14239 0.0
H677 H 0.63058 0.70933 0.14905 0.0
H678 H 0.5936 0.69006 0.21363 0.0
H679 H 0.56031 0.724 0.20691 0.0
H680 H 0.66662 0.70022 0.18406 0.0
H681 H 0.59233 0.62007 0.17942 0.0
H682 H 0.58508 0.65342 0.17091 0.0
H683 H 0.58581 0.64466 0.20085 0.0
C684 C 0.5967 0.73226 0.15811 0.0
C685 C 0.57624 0.73635 0.17399 0.0
C686 C 0.6155 0.71267 0.16189 0.0
C687 C 0.6142 0.69681 0.1816 0.0
C688 C 0.59458 0.70168 0.19804 0.0
H689 H 0.70484 0.5569 0.21839 0.0
H690 H 0.67615 0.59558 0.21988 0.0
C691 C 0.57567 0.72119 0.19423 0.0
C692 C 0.63285 0.67461 0.1844 0.0
H693 H 0.63605 0.60757 0.18752 0.0
C694 C 0.65995 0.67997 0.1849 0.0
C695 C 0.62408 0.64819 0.18545 0.0
C696 C 0.59527 0.64111 0.18393 0.0
C697 C 0.67854 0.65958 0.18636 0.0
C698 C 0.66975 0.6332 0.18707 0.0
C699 C 0.64267 0.62786 0.18704 0.0
C700 C 0.68827 0.61072 0.18678 0.0
C701 C 0.70741 0.66642 0.1872 0.0
C702 C 0.70445 0.6064 0.1676 0.0
C703 C 0.72076 0.58429 0.16663 0.0
C704 C 0.72114 0.56605 0.18483 0.0
C705 C 0.70506 0.57059 0.20411 0.0
C706 C 0.68867 0.59266 0.20501 0.0
H707 H 0.71061 0.68715 0.19259 0.0
H708 H 0.71812 0.65324 0.19922 0.0
H709 H 0.71605 0.66389 0.16981 0.0
H710 H 0.70405 0.61984 0.15315 0.0
H711 H 0.73284 0.58137 0.15151 0.0
H712 H 0.45849 0.68641 0.14139 0.0
H713 H 0.41951 0.6585 0.14417 0.0
H714 H 0.38986 0.70668 0.19946 0.0
H715 H 0.42855 0.73517 0.19641 0.0
H716 H 0.40099 0.62908 0.17948 0.0
H717 H 0.32785 0.70558 0.15568 0.0
H718 H 0.36281 0.71033 0.15219 0.0
H719 H 0.34789 0.7139 0.18005 0.0
C720 C 0.44368 0.69112 0.15414 0.0
C721 C 0.44654 0.71312 0.16858 0.0
C722 C 0.42141 0.67512 0.15572 0.0
C723 C 0.40157 0.68074 0.17177 0.0
C724 C 0.40462 0.70233 0.18658 0.0
H725 H 0.27896 0.56325 0.20019 0.0
H726 H 0.3145 0.59528 0.20526 0.0
C727 C 0.42683 0.7185 0.1849 0.0
C728 C 0.37786 0.66377 0.17295 0.0
H729 H 0.31105 0.664 0.16651 0.0
C730 C 0.38129 0.63671 0.17674 0.0
C731 C 0.35223 0.67376 0.16914 0.0
C732 C 0.34739 0.70243 0.16382 0.0
C733 C 0.35988 0.61928 0.17649 0.0
C734 C 0.33419 0.6293 0.17296 0.0
C735 C 0.33071 0.65642 0.16947 0.0
C736 C 0.31098 0.61173 0.17107 0.0
C737 C 0.36512 0.59018 0.17908 0.0
C738 C 0.29634 0.61128 0.15062 0.0
C739 C 0.27579 0.59332 0.1478 0.0
C740 C 0.26953 0.57537 0.16537 0.0
C741 C 0.28346 0.57665 0.18625 0.0
C742 C 0.3039 0.5948 0.18912 0.0
H743 H 0.38615 0.58529 0.17601 0.0
H744 H 0.36012 0.584 0.19684 0.0
H745 H 0.35288 0.57856 0.16695 0.0
H746 H 0.30137 0.62426 0.13651 0.0
H747 H 0.26544 0.59294 0.13153 0.0
H748 H 0.26298 0.42402 0.18359 0.0
H749 H 0.29237 0.38602 0.18725 0.0
H750 H 0.35548 0.43088 0.15691 0.0
H751 H 0.32643 0.46892 0.15332 0.0
H752 H 0.31856 0.35992 0.15139 0.0
H753 H 0.38936 0.39964 0.21498 0.0
H754 H 0.35735 0.41412 0.21018 0.0
H755 H 0.38415 0.42118 0.19094 0.0
C756 C 0.28318 0.42587 0.17789 0.0
C757 C 0.29239 0.44952 0.16821 0.0
C758 C 0.29992 0.40414 0.17999 0.0
C759 C 0.32618 0.40579 0.17268 0.0
C760 C 0.33543 0.42938 0.16311 0.0
H761 H 0.43867 0.29661 0.12406 0.0
H762 H 0.40305 0.3279 0.13049 0.0
C763 C 0.31873 0.45105 0.16093 0.0
C764 C 0.34365 0.3825 0.17379 0.0
H765 H 0.40352 0.36193 0.19342 0.0
C766 C 0.33696 0.36018 0.16085 0.0
C767 C 0.36744 0.38274 0.18641 0.0
C768 C 0.37493 0.4056 0.20161 0.0
C769 C 0.35414 0.33864 0.15919 0.0
C770 C 0.3787 0.33964 0.17059 0.0
C771 C 0.38476 0.36133 0.18454 0.0
C772 C 0.3992 0.31941 0.16678 0.0
C773 C 0.34607 0.31519 0.14495 0.0
C774 C 0.40908 0.30447 0.18516 0.0
C775 C 0.42955 0.28649 0.18154 0.0
C776 C 0.44066 0.28348 0.15954 0.0
C777 C 0.43056 0.29841 0.14121 0.0
C778 C 0.41006 0.31619 0.14481 0.0
H779 H 0.32434 0.31402 0.14306 0.0
H780 H 0.35471 0.31702 0.1275 0.0
H781 H 0.35329 0.29657 0.1527 0.0
H782 H 0.40107 0.30687 0.20229 0.0
H783 H 0.43699 0.27535 0.19603 0.0
H784 H 0.03066 0.37796 0.33448 0.0
H785 H 0.05247 0.41275 0.31252 0.0
H786 H 0.03541 0.37156 0.24946 0.0
H787 H 0.01366 0.3366 0.27122 0.0
H788 H 0.09696 0.39983 0.28377 0.0
H789 H 0.01762 0.45024 0.23517 0.0
H790 H 0.01149 0.43173 0.26117 0.0
H791 H 0.01646 0.41489 0.23437 0.0
C792 C 0.03104 0.37654 0.3159 0.0
C793 C 0.02059 0.35441 0.30459 0.0
C794 C 0.04349 0.39646 0.30341 0.0
C795 C 0.04532 0.3948 0.2794 0.0
C796 C 0.03381 0.37339 0.26797 0.0
H797 H 0.13205 0.45614 0.16705 0.0
H798 H 0.09941 0.43784 0.19331 0.0
C799 C 0.02155 0.35335 0.28045 0.0
C800 C 0.06209 0.41349 0.26654 0.0
H801 H 0.06167 0.45768 0.22238 0.0
C802 C 0.08927 0.41285 0.2706 0.0
C803 C 0.0519 0.4302 0.24931 0.0
C804 C 0.02274 0.43206 0.24479 0.0
C805 C 0.10678 0.42755 0.2571 0.0
C806 C 0.09668 0.44394 0.23949 0.0
C807 C 0.06936 0.44521 0.23594 0.0
C808 C 0.11437 0.45799 0.22337 0.0
C809 C 0.13598 0.42421 0.26102 0.0
C810 C 0.13304 0.47618 0.23138 0.0
C811 C 0.152 0.48646 0.21644 0.0
C812 C 0.15233 0.47899 0.19315 0.0
C813 C 0.13249 0.46216 0.18491 0.0
C814 C 0.11374 0.45172 0.19989 0.0
H815 H 0.14045 0.40648 0.27149 0.0
H816 H 0.14666 0.42259 0.24442 0.0
H817 H 0.14367 0.44162 0.27036 0.0
H818 H 0.13347 0.48177 0.24935 0.0
H819 H 0.16681 0.49965 0.22326 0.0
H820 H 0.6257 0.03804 0.3332 0.0
H821 H 0.59357 0.05848 0.30763 0.0
H822 H 0.64262 0.0404 0.24922 0.0
H823 H 0.67514 0.02023 0.27471 0.0
H824 H 0.62981 0.09239 0.25193 0.0
H825 H 0.53985 0.03168 0.26119 0.0
H826 H 0.55348 0.04187 0.28823 0.0
H827 H 0.57199 0.0202 0.26989 0.0
C828 C 0.62945 0.03792 0.31487 0.0
C829 C 0.65309 0.02767 0.30602 0.0
C830 C 0.61093 0.04946 0.30025 0.0
C831 C 0.61558 0.05073 0.2765 0.0
C832 C 0.63861 0.0395 0.2675 0.0
H833 H 0.51424 0.12264 0.17271 0.0
H834 H 0.53849 0.09081 0.1962 0.0
C835 C 0.65717 0.02799 0.2821 0.0
C836 C 0.59806 0.06653 0.26152 0.0
H837 H 0.53414 0.0746 0.24465 0.0
C838 C 0.60895 0.08831 0.25015 0.0
C839 C 0.57088 0.06111 0.25913 0.0
C840 C 0.55837 0.03729 0.27008 0.0
C841 C 0.59329 0.10527 0.23699 0.0
C842 C 0.56593 0.10055 0.23546 0.0
C843 C 0.55509 0.07832 0.24617 0.0
C844 C 0.54848 0.11879 0.22281 0.0
C845 C 0.60617 0.12815 0.22485 0.0
C846 C 0.54534 0.14476 0.23046 0.0
C847 C 0.53157 0.16299 0.21713 0.0
C848 C 0.52063 0.15551 0.1959 0.0
C849 C 0.52254 0.12907 0.18892 0.0
C850 C 0.53635 0.11083 0.2023 0.0
H851 H 0.62779 0.12545 0.22326 0.0
H852 H 0.59774 0.13088 0.20739 0.0
H853 H 0.60258 0.14643 0.23482 0.0
H854 H 0.55428 0.15114 0.24643 0.0
H855 H 0.53029 0.18313 0.22312 0.0
H856 H 0.87247 0.53905 0.15695 0.0
H857 H 0.90678 0.55938 0.18046 0.0
H858 H 0.86459 0.53772 0.24195 0.0
H859 H 0.83038 0.51707 0.21865 0.0
H860 H 0.89613 0.60121 0.20859 0.0
H861 H 0.94033 0.52045 0.25945 0.0
H862 H 0.92115 0.51461 0.23379 0.0
H863 H 0.90504 0.52077 0.26081 0.0
C864 C 0.87075 0.5381 0.17549 0.0
C865 C 0.84858 0.52661 0.18593 0.0
C866 C 0.89041 0.5497 0.18889 0.0
C867 C 0.88837 0.54985 0.21295 0.0
C868 C 0.86687 0.53735 0.22344 0.0
H869 H 0.94169 0.63717 0.32787 0.0
H870 H 0.92442 0.60477 0.30084 0.0
C871 C 0.8472 0.52573 0.21007 0.0
C872 C 0.9067 0.56595 0.22689 0.0
H873 H 0.9468 0.56434 0.27398 0.0
C874 C 0.90763 0.5931 0.22262 0.0
C875 C 0.92154 0.5553 0.24524 0.0
C876 C 0.92221 0.52614 0.24998 0.0
C877 C 0.92191 0.61013 0.23689 0.0
C878 C 0.93611 0.59961 0.25569 0.0
C879 C 0.93593 0.57233 0.25953 0.0
C880 C 0.9493 0.61695 0.2726 0.0
C881 C 0.92049 0.63938 0.23244 0.0
C882 C 0.96967 0.63397 0.26589 0.0
C883 C 0.97947 0.65271 0.28127 0.0
C884 C 0.96919 0.65457 0.30367 0.0
C885 C 0.94991 0.63642 0.3107 0.0
C886 C 0.94006 0.6178 0.2953 0.0
H887 H 0.90444 0.64453 0.22027 0.0
H888 H 0.91732 0.65036 0.24871 0.0
H889 H 0.93936 0.6461 0.22484 0.0
H890 H 0.97741 0.63327 0.24855 0.0
H891 H 0.99452 0.66622 0.27539 0.0
H892 H 0.37685 0.97566 0.33814 0.0
H893 H 0.41176 0.95434 0.31596 0.0
H894 H 0.3668 0.96504 0.2538 0.0
H895 H 0.33176 0.98631 0.27577 0.0
H896 H 0.40066 0.9076 0.29041 0.0
H897 H 0.44304 0.98575 0.2351 0.0
H898 H 0.42519 0.99281 0.26127 0.0
H899 H 0.40769 0.9847 0.23537 0.0
C900 C 0.37461 0.974 0.31968 0.0
C901 C 0.35143 0.98252 0.30873 0.0
C902 C 0.3946 0.96183 0.30706 0.0
C903 C 0.39194 0.95835 0.28325 0.0
C904 C 0.36942 0.96795 0.27211 0.0
H905 H 0.44933 0.86766 0.17237 0.0
H906 H 0.43145 0.90082 0.1983 0.0
C907 C 0.34933 0.97994 0.28473 0.0
C908 C 0.4109 0.94177 0.2705 0.0
H909 H 0.45172 0.94125 0.22393 0.0
C910 C 0.41224 0.91497 0.27612 0.0
C911 C 0.42576 0.95153 0.25184 0.0
C912 C 0.4256 0.98033 0.2456 0.0
C913 C 0.42696 0.89731 0.26279 0.0
C914 C 0.44132 0.90691 0.24368 0.0
C915 C 0.44077 0.93394 0.23861 0.0
C916 C 0.45487 0.88883 0.22756 0.0
C917 C 0.42568 0.86835 0.26851 0.0
C918 C 0.47466 0.87162 0.23518 0.0
C919 C 0.48473 0.85235 0.22043 0.0
C920 C 0.47542 0.85024 0.19773 0.0
C921 C 0.45682 0.8686 0.18979 0.0
C922 C 0.44661 0.88765 0.20458 0.0
H923 H 0.4092 0.86373 0.2804 0.0
H924 H 0.42325 0.85636 0.25269 0.0
H925 H 0.44428 0.86233 0.277 0.0
H926 H 0.48177 0.87262 0.25271 0.0
H927 H 0.49929 0.8387 0.22698 0.0
H928 H 0.12334 0.51736 0.83466 0.0
H929 H 0.08884 0.53977 0.81276 0.0
H930 H 0.13584 0.53362 0.75127 0.0
H931 H 0.17032 0.51118 0.7729 0.0
H932 H 0.09865 0.58773 0.79073 0.0
H933 H 0.06181 0.51393 0.72858 0.0
H934 H 0.07935 0.50497 0.75445 0.0
H935 H 0.09708 0.51582 0.72941 0.0
C936 C 0.1261 0.52025 0.81637 0.0
C937 C 0.14966 0.51264 0.80554 0.0
C938 C 0.10635 0.53305 0.8039 0.0
C939 C 0.10967 0.53809 0.78037 0.0
C940 C 0.13264 0.52945 0.76932 0.0
H941 H 0.06324 0.63757 0.67272 0.0
H942 H 0.07839 0.60254 0.69808 0.0
C943 C 0.15244 0.51681 0.78177 0.0
C944 C 0.09096 0.55528 0.76793 0.0
H945 H 0.0545 0.55942 0.7188 0.0
C946 C 0.08848 0.58146 0.77527 0.0
C947 C 0.07785 0.54699 0.74777 0.0
C948 C 0.07892 0.51881 0.73968 0.0
C949 C 0.07466 0.60005 0.76216 0.0
C950 C 0.06248 0.59203 0.74142 0.0
C951 C 0.06386 0.56552 0.73469 0.0
C952 C 0.0508 0.61139 0.72535 0.0
C953 C 0.07469 0.62842 0.76989 0.0
C954 C 0.0297 0.62753 0.73198 0.0
C955 C 0.02111 0.64783 0.71756 0.0
C956 C 0.03335 0.65211 0.69619 0.0
C957 C 0.0535 0.63496 0.68912 0.0
C958 C 0.06214 0.61483 0.70357 0.0
H959 H 0.0893 0.63209 0.78373 0.0
H960 H 0.07911 0.64175 0.75527 0.0
H961 H 0.05493 0.63358 0.77665 0.0
H962 H 0.02033 0.62484 0.74854 0.0
H963 H 0.00536 0.66054 0.7234 0.0
H964 H 0.49292 0.11934 0.82465 0.0
H965 H 0.47092 0.08612 0.80101 0.0
H966 H 0.46247 0.14265 0.74621 0.0
H967 H 0.48455 0.17585 0.76955 0.0
H968 H 0.41952 0.0933 0.78663 0.0
H969 H 0.48406 0.07616 0.71151 0.0
H970 H 0.49588 0.09071 0.73792 0.0
H971 H 0.47873 0.11048 0.71707 0.0
C972 C 0.48697 0.12453 0.80735 0.0
C973 C 0.4903 0.15031 0.79904 0.0
C974 C 0.47441 0.10551 0.79388 0.0
C975 C 0.46528 0.11185 0.7718 0.0
C976 C 0.46982 0.13716 0.76302 0.0
H977 H 0.35203 0.0701 0.67265 0.0
H978 H 0.38909 0.08629 0.69523 0.0
C979 C 0.48228 0.1562 0.77648 0.0
C980 C 0.44789 0.09348 0.75916 0.0
H981 H 0.43818 0.06529 0.70659 0.0
C982 C 0.4238 0.08665 0.76931 0.0
C983 C 0.45353 0.08498 0.73655 0.0
C984 C 0.47958 0.09074 0.7252 0.0
C985 C 0.40446 0.07294 0.75696 0.0
C986 C 0.40965 0.06537 0.73399 0.0
C987 C 0.43425 0.07114 0.72419 0.0
C988 C 0.3889 0.05378 0.71925 0.0
C989 C 0.37808 0.06811 0.76816 0.0
C990 C 0.37691 0.02976 0.72493 0.0
C991 C 0.35549 0.02052 0.71215 0.0
C992 C 0.34591 0.03506 0.69334 0.0
C993 C 0.35879 0.05848 0.6871 0.0
C994 C 0.38006 0.06774 0.69994 0.0
H995 H 0.37555 0.07984 0.78413 0.0
H996 H 0.36178 0.07301 0.75619 0.0
H997 H 0.37638 0.04699 0.77277 0.0
H998 H 0.38377 0.01843 0.73952 0.0
H999 H 0.34616 0.00227 0.71726 0.0
H1000 H 0.97357 0.32065 0.72191 0.0
H1001 H 0.95125 0.35427 0.74473 0.0
H1002 H 0.96219 0.41058 0.69014 0.0
H1003 H 0.98475 0.37711 0.66712 0.0
H1004 H 0.96961 0.43049 0.73796 0.0
H1005 H 0.87575 0.37693 0.72297 0.0
H1006 H 0.9021 0.3573 0.73441 0.0
H1007 H 0.90495 0.37103 0.70606 0.0
C1008 C 0.97163 0.34028 0.71485 0.0
C1009 C 0.98062 0.3461 0.69255 0.0
C1010 C 0.95885 0.35944 0.72793 0.0
C1011 C 0.95478 0.38472 0.71894 0.0
C1012 C 0.96511 0.39112 0.6973 0.0
H1013 H 0.82902 0.48606 0.76645 0.0
H1014 H 0.86155 0.46394 0.74233 0.0
C1015 C 0.97794 0.37194 0.68417 0.0
C1016 C 0.93777 0.4036 0.73131 0.0
H1017 H 0.87448 0.41246 0.74916 0.0
C1018 C 0.94878 0.42669 0.74038 0.0
C1019 C 0.91056 0.39871 0.73403 0.0
C1020 C 0.8975 0.37478 0.72371 0.0
C1021 C 0.93329 0.44476 0.75273 0.0
C1022 C 0.90626 0.43935 0.75615 0.0
C1023 C 0.89523 0.41654 0.74657 0.0
C1024 C 0.8889 0.4565 0.77009 0.0
C1025 C 0.9459 0.46952 0.76183 0.0
C1026 C 0.89375 0.46015 0.79363 0.0
C1027 C 0.87519 0.47286 0.80749 0.0
C1028 C 0.85134 0.48187 0.79806 0.0
C1029 C 0.84711 0.47924 0.77428 0.0
C1030 C 0.8657 0.46663 0.76045 0.0
H1031 H 0.96434 0.4743 0.75244 0.0
H1032 H 0.93225 0.48652 0.76052 0.0
H1033 H 0.95094 0.46668 0.78023 0.0
H1034 H 0.91127 0.45204 0.80152 0.0
H1035 H 0.87904 0.47452 0.82574 0.0
H1036 H 0.62481 0.96834 0.67086 0.0
H1037 H 0.59178 0.94721 0.69512 0.0
H1038 H 0.64114 0.95904 0.75456 0.0
H1039 H 0.67457 0.97968 0.73034 0.0
H1040 H 0.62674 0.90849 0.7496 0.0
H1041 H 0.53843 0.97184 0.74224 0.0
H1042 H 0.55172 0.96253 0.71484 0.0
H1043 H 0.57085 0.98285 0.73388 0.0
C1044 C 0.62844 0.96694 0.68917 0.0
C1045 C 0.65242 0.97551 0.69864 0.0
C1046 C 0.60941 0.95501 0.70305 0.0
C1047 C 0.61386 0.95177 0.7267 0.0
C1048 C 0.63727 0.96142 0.73636 0.0
H1049 H 0.51111 0.87775 0.82797 0.0
H1050 H 0.53539 0.91008 0.80503 0.0
C1051 C 0.65637 0.97319 0.72248 0.0
C1052 C 0.59572 0.93557 0.74077 0.0
H1053 H 0.53148 0.92825 0.75704 0.0
C1054 C 0.60597 0.91299 0.75139 0.0
C1055 C 0.56864 0.94151 0.7432 0.0
C1056 C 0.55678 0.96615 0.73312 0.0
C1057 C 0.58983 0.89586 0.76391 0.0
C1058 C 0.56258 0.90116 0.76549 0.0
C1059 C 0.55234 0.92409 0.75547 0.0
C1060 C 0.54468 0.88288 0.77761 0.0
C1061 C 0.6021 0.87221 0.7754 0.0
C1062 C 0.54107 0.85724 0.76931 0.0
C1063 C 0.52731 0.83872 0.78234 0.0
C1064 C 0.51683 0.84558 0.80391 0.0
C1065 C 0.51905 0.87179 0.81149 0.0
C1066 C 0.53287 0.89031 0.79841 0.0
H1067 H 0.62377 0.87434 0.77714 0.0
H1068 H 0.59353 0.86901 0.79275 0.0
H1069 H 0.59813 0.85443 0.76489 0.0
H1070 H 0.54975 0.85128 0.75311 0.0
H1071 H 0.52576 0.81879 0.77588 0.0
H1072 H 0.05701 0.28922 0.40532 0.0
H1073 H 0.0516 0.29277 0.44699 0.0
H1074 H 0.96725 0.29126 0.43894 0.0
H1075 H 0.97241 0.28797 0.39723 0.0
H1076 H 0.9861 0.33023 0.47021 0.0
H1077 H 0.02768 0.23116 0.48817 0.0
H1078 H 0.04829 0.25232 0.4712 0.0
H1079 H 0.01738 0.24118 0.45979 0.0
C1080 C 0.0373 0.28972 0.41238 0.0
C1081 C 0.01514 0.28814 0.39796 0.0
C1082 C 0.03426 0.29164 0.4362 0.0
C1083 C 0.00904 0.29189 0.44602 0.0
C1084 C 0.98688 0.29099 0.43167 0.0
H1085 H 0.94352 0.29192 0.58333 0.0
H1086 H 0.95093 0.29573 0.54194 0.0
C1087 C 0.98988 0.28906 0.40785 0.0
C1088 C 0.00571 0.2927 0.47129 0.0
H1089 H 0.01744 0.25767 0.52029 0.0
C1090 C 0.99293 0.31439 0.4812 0.0
C1091 C 0.01465 0.27197 0.48551 0.0
C1092 C 0.02758 0.24771 0.47569 0.0
C1093 C 0.9891 0.31606 0.50507 0.0
C1094 C 0.99791 0.29525 0.51927 0.0
C1095 C 0.01082 0.27364 0.50935 0.0
C1096 C 0.99343 0.29505 0.54444 0.0
C1097 C 0.97604 0.34023 0.5149 0.0
C1098 C 0.01485 0.29317 0.55956 0.0
C1099 C 0.01069 0.2908 0.58322 0.0
C1100 C 0.98498 0.2901 0.59218 0.0
C1101 C 0.96356 0.29251 0.57701 0.0
C1102 C 0.96776 0.29485 0.55334 0.0
H1103 H 0.97714 0.35716 0.50284 0.0
H1104 H 0.95495 0.33592 0.51812 0.0
H1105 H 0.98522 0.34602 0.53147 0.0
H1106 H 0.03481 0.29316 0.55301 0.0
H1107 H 0.02763 0.28898 0.59441 0.0
H1108 H 0.71287 0.02424 0.6016 0.0
H1109 H 0.70832 0.03061 0.56017 0.0
H1110 H 0.70255 0.94666 0.55058 0.0
H1111 H 0.70744 0.94002 0.59202 0.0
H1112 H 0.73935 0.97038 0.52225 0.0
H1113 H 0.6443 0.02381 0.51815 0.0
H1114 H 0.66762 0.03819 0.53765 0.0
H1115 H 0.65476 0.00587 0.54335 0.0
C1116 C 0.71032 0.00712 0.59074 0.0
C1117 C 0.71054 0.9816 0.60012 0.0
C1118 C 0.70754 0.01082 0.56706 0.0
C1119 C 0.70472 0.98913 0.55235 0.0
C1120 C 0.70454 0.96366 0.56168 0.0
H1121 H 0.70592 0.97467 0.40289 0.0
H1122 H 0.70128 0.96607 0.44405 0.0
C1123 C 0.70733 0.95992 0.58536 0.0
C1124 C 0.70391 0.99292 0.52711 0.0
H1125 H 0.67037 0.02386 0.484 0.0
C1126 C 0.72412 0.98183 0.51384 0.0
C1127 C 0.68408 0.00798 0.51625 0.0
C1128 C 0.66131 0.01946 0.52953 0.0
C1129 C 0.72546 0.98598 0.49003 0.0
C1130 C 0.70579 0.00126 0.47919 0.0
C1131 C 0.68541 0.01215 0.49241 0.0
C1132 C 0.70652 0.00669 0.4542 0.0
C1133 C 0.74837 0.97466 0.47679 0.0
C1134 C 0.71005 0.03251 0.44628 0.0
C1135 C 0.7126 0.03754 0.42276 0.0
C1136 C 0.71154 0.01681 0.40676 0.0
C1137 C 0.70702 0.99107 0.41475 0.0
C1138 C 0.70447 0.98608 0.43827 0.0
H1139 H 0.76472 0.96863 0.48832 0.0
H1140 H 0.7417 0.95701 0.46719 0.0
H1141 H 0.75604 0.98914 0.46415 0.0
H1142 H 0.71156 0.04869 0.45834 0.0
H1143 H 0.71595 0.05759 0.41718 0.0
H1144 H 0.05529 0.71342 0.58712 0.0
H1145 H 0.0461 0.70998 0.54594 0.0
H1146 H 0.9628 0.7088 0.55999 0.0
H1147 H 0.97172 0.71235 0.60123 0.0
H1148 H 0.01558 0.67054 0.52092 0.0
H1149 H 0.97402 0.77163 0.51491 0.0
H1150 H 0.99381 0.76098 0.53895 0.0
H1151 H 0.96011 0.75072 0.53668 0.0
C1152 C 0.03501 0.71231 0.58149 0.0
C1153 C 0.01423 0.71335 0.59744 0.0
C1154 C 0.02981 0.71029 0.55797 0.0
C1155 C 0.00379 0.70946 0.54998 0.0
C1156 C 0.98301 0.70977 0.56585 0.0
H1157 H 0.94027 0.71914 0.41124 0.0
H1158 H 0.94526 0.71408 0.45283 0.0
C1159 C 0.98817 0.71171 0.58939 0.0
C1160 C 0.99846 0.70899 0.52499 0.0
H1161 H 0.97355 0.74602 0.48118 0.0
C1162 C 0.00634 0.68698 0.51218 0.0
C1163 C 0.98635 0.73047 0.51376 0.0
C1164 C 0.97822 0.75492 0.52667 0.0
C1165 C 0.00231 0.68582 0.48831 0.0
C1166 C 0.99063 0.70753 0.47699 0.0
C1167 C 0.98245 0.72939 0.4899 0.0
C1168 C 0.98746 0.70849 0.45168 0.0
C1169 C 0.01029 0.66126 0.47552 0.0
C1170 C 0.00953 0.70702 0.43723 0.0
C1171 C 0.00675 0.7098 0.41346 0.0
C1172 C 0.98185 0.71441 0.4037 0.0
C1173 C 0.95973 0.71561 0.4182 0.0
C1174 C 0.96253 0.71272 0.44197 0.0
H1175 H 0.01132 0.64396 0.48716 0.0
H1176 H 0.99632 0.65682 0.46136 0.0
H1177 H 0.03013 0.66421 0.46796 0.0
H1178 H 0.02904 0.70442 0.44439 0.0
H1179 H 0.02421 0.70895 0.4028 0.0
H1180 H 0.22653 0.97963 0.59085 0.0
H1181 H 0.23302 0.97634 0.54936 0.0
H1182 H 0.31367 0.00125 0.55725 0.0
H1183 H 0.30753 0.00407 0.59892 0.0
H1184 H 0.24639 0.01484 0.51909 0.0
H1185 H 0.32135 0.9354 0.51811 0.0
H1186 H 0.30232 0.94331 0.54338 0.0
H1187 H 0.33014 0.96323 0.5355 0.0
C1188 C 0.24571 0.9843 0.58381 0.0
C1189 C 0.26655 0.99202 0.59819 0.0
C1190 C 0.24937 0.98241 0.56008 0.0
C1191 C 0.27392 0.98818 0.55026 0.0
C1192 C 0.29473 0.99613 0.56453 0.0
H1193 H 0.2932 0.02059 0.40401 0.0
H1194 H 0.29317 0.02348 0.44596 0.0
C1195 C 0.29113 0.99789 0.58832 0.0
C1196 C 0.27732 0.98668 0.52499 0.0
H1197 H 0.31231 0.95629 0.48247 0.0
C1198 C 0.2608 0.00204 0.51107 0.0
C1199 C 0.29594 0.96974 0.51459 0.0
C1200 C 0.31329 0.95178 0.52862 0.0
C1201 C 0.26237 0.00096 0.48702 0.0
C1202 C 0.28144 0.98453 0.47662 0.0
C1203 C 0.29792 0.96909 0.49051 0.0
C1204 C 0.28383 0.98238 0.4513 0.0
C1205 C 0.24307 0.01688 0.47301 0.0
C1206 C 0.27982 0.95806 0.44043 0.0
C1207 C 0.28017 0.95626 0.41645 0.0
C1208 C 0.28449 0.97879 0.40294 0.0
C1209 C 0.28952 0.00293 0.41392 0.0
C1210 C 0.28937 0.00466 0.43789 0.0
H1211 H 0.22564 0.02279 0.48333 0.0
H1212 H 0.25287 0.03508 0.46686 0.0
H1213 H 0.23617 0.00564 0.45779 0.0
H1214 H 0.27566 0.9406 0.45048 0.0
H1215 H 0.27628 0.93736 0.40853 0.0
H1216 H 0.46943 0.79146 0.90422 0.0
H1217 H 0.46318 0.79562 0.94572 0.0
H1218 H 0.54697 0.80417 0.95488 0.0
H1219 H 0.55343 0.80037 0.91337 0.0
H1220 H 0.4844 0.76096 0.97748 0.0
H1221 H 0.51742 0.86303 0.99537 0.0
H1222 H 0.50917 0.85177 0.96681 0.0
H1223 H 0.54056 0.84374 0.97922 0.0
C1224 C 0.48652 0.79466 0.915 0.0
C1225 C 0.51195 0.79551 0.90549 0.0
C1226 C 0.48289 0.79703 0.93871 0.0
C1227 C 0.50457 0.80046 0.95334 0.0
C1228 C 0.52992 0.80205 0.94386 0.0
H1229 H 0.52913 0.79269 0.10038 0.0
H1230 H 0.53348 0.79757 0.05868 0.0
C1231 C 0.53358 0.79971 0.92013 0.0
C1232 C 0.50087 0.79998 0.97858 0.0
H1233 H 0.51119 0.83508 0.02783 0.0
C1234 C 0.49003 0.77725 0.98849 0.0
C1235 C 0.50843 0.8212 0.99286 0.0
C1236 C 0.51933 0.84642 0.98305 0.0
C1237 C 0.487 0.77493 0.01235 0.0
C1238 C 0.49459 0.79612 0.02665 0.0
C1239 C 0.50537 0.8189 0.01678 0.0
C1240 C 0.49171 0.79475 0.05194 0.0
C1241 C 0.47636 0.74953 0.0221 0.0
C1242 C 0.46673 0.79211 0.06194 0.0
C1243 C 0.46416 0.78923 0.08571 0.0
C1244 C 0.48654 0.78911 0.09993 0.0
C1245 C 0.5115 0.7926 0.0899 0.0
C1246 C 0.51404 0.79544 0.0661 0.0
H1247 H 0.47756 0.73316 0.00948 0.0
H1248 H 0.48725 0.74376 0.03786 0.0
H1249 H 0.45536 0.75227 0.02676 0.0
H1250 H 0.44922 0.79201 0.05131 0.0
H1251 H 0.44464 0.7868 0.09289 0.0
H1252 H 0.21497 0.46413 0.89924 0.0
H1253 H 0.2111 0.45844 0.94084 0.0
H1254 H 0.20707 0.54262 0.94952 0.0
H1255 H 0.21064 0.54854 0.90792 0.0
H1256 H 0.2462 0.47815 0.9734 0.0
H1257 H 0.14535 0.51627 0.98866 0.0
H1258 H 0.15702 0.50709 0.96045 0.0
H1259 H 0.16621 0.53822 0.97274 0.0
C1260 C 0.21297 0.48145 0.90996 0.0
C1261 C 0.21311 0.50681 0.90026 0.0
C1262 C 0.21076 0.47814 0.93372 0.0
C1263 C 0.20846 0.50008 0.94821 0.0
C1264 C 0.20828 0.5254 0.93859 0.0
H1265 H 0.21249 0.52734 0.09461 0.0
H1266 H 0.20892 0.5305 0.05276 0.0
C1267 C 0.2105 0.52875 0.91482 0.0
C1268 C 0.20804 0.49655 0.97347 0.0
H1269 H 0.17199 0.50912 0.02178 0.0
C1270 C 0.22989 0.48469 0.98398 0.0
C1271 C 0.18677 0.50524 0.98719 0.0
C1272 C 0.16239 0.51721 0.97671 0.0
C1273 C 0.23134 0.48186 0.00793 0.0
C1274 C 0.21014 0.49068 0.02168 0.0
C1275 C 0.18819 0.50237 0.01117 0.0
C1276 C 0.21074 0.48848 0.04705 0.0
C1277 C 0.25592 0.47018 0.01834 0.0
C1278 C 0.21233 0.46376 0.0577 0.0
C1279 C 0.21449 0.46187 0.08159 0.0
C1280 C 0.21487 0.48469 0.09526 0.0
C1281 C 0.21235 0.50939 0.08457 0.0
C1282 C 0.21027 0.51125 0.06067 0.0
H1283 H 0.27269 0.47041 0.00608 0.0
H1284 H 0.26177 0.48103 0.03411 0.0
H1285 H 0.25206 0.44941 0.02316 0.0
H1286 H 0.21218 0.44592 0.0475 0.0
H1287 H 0.21617 0.44254 0.08929 0.0
H1288 H 0.55607 0.20918 0.08374 0.0
H1289 H 0.54856 0.20257 0.04261 0.0
H1290 H 0.46568 0.19151 0.05533 0.0
H1291 H 0.47288 0.19859 0.09643 0.0
H1292 H 0.52642 0.16132 0.01698 0.0
H1293 H 0.46714 0.25292 0.00998 0.0
H1294 H 0.48661 0.24527 0.03504 0.0
H1295 H 0.45524 0.22967 0.03077 0.0
C1296 C 0.53626 0.20514 0.07783 0.0
C1297 C 0.51501 0.20475 0.09332 0.0
C1298 C 0.53202 0.20133 0.05432 0.0
C1299 C 0.5065 0.19706 0.04591 0.0
C1300 C 0.48544 0.19536 0.06144 0.0
H1301 H 0.44644 0.19418 0.90558 0.0
H1302 H 0.45109 0.18831 0.94713 0.0
C1303 C 0.48963 0.1993 0.08493 0.0
C1304 C 0.50185 0.19557 0.02081 0.0
H1305 H 0.47114 0.22712 0.97649 0.0
C1306 C 0.51428 0.17564 0.00811 0.0
C1307 C 0.48603 0.21434 0.00931 0.0
C1308 C 0.47315 0.23691 0.02189 0.0
C1309 C 0.51127 0.17395 0.98415 0.0
C1310 C 0.4957 0.19289 0.97266 0.0
C1311 C 0.48295 0.21255 0.9854 0.0
C1312 C 0.49333 0.19364 0.9473 0.0
C1313 C 0.52464 0.15188 0.97134 0.0
C1314 C 0.51557 0.19846 0.93365 0.0
C1315 C 0.51299 0.20189 0.90993 0.0
C1316 C 0.48808 0.2007 0.89944 0.0
C1317 C 0.46591 0.19521 0.9131 0.0
C1318 C 0.46851 0.19184 0.93684 0.0
H1319 H 0.52958 0.13522 0.98294 0.0
H1320 H 0.51201 0.14446 0.95717 0.0
H1321 H 0.54324 0.15929 0.96373 0.0
H1322 H 0.53483 0.20045 0.94145 0.0
H1323 H 0.53046 0.20614 0.89992 0.0
H1324 H 0.78004 0.43921 0.89994 0.0
H1325 H 0.7791 0.44112 0.94193 0.0
H1326 H 0.79442 0.52455 0.93945 0.0
H1327 H 0.7948 0.52296 0.89743 0.0
H1328 H 0.81501 0.45695 0.9747 0.0
H1329 H 0.72624 0.52062 0.97599 0.0
H1330 H 0.73764 0.50448 0.95022 0.0
H1331 H 0.75329 0.53417 0.96005 0.0
C1332 C 0.7834 0.45795 0.90831 0.0
C1333 C 0.78719 0.48099 0.89534 0.0
C1334 C 0.78288 0.45899 0.93231 0.0
C1335 C 0.78616 0.48306 0.94377 0.0
C1336 C 0.79122 0.50588 0.93092 0.0
H1337 H 0.80724 0.5029 0.09171 0.0
H1338 H 0.81417 0.49974 0.05017 0.0
C1339 C 0.79157 0.5049 0.90691 0.0
C1340 C 0.78335 0.48437 0.9691 0.0
H1341 H 0.74671 0.5123 0.01179 0.0
C1342 C 0.8001 0.46904 0.98285 0.0
C1343 C 0.76358 0.49984 0.97963 0.0
C1344 C 0.74398 0.51552 0.96574 0.0
C1345 C 0.79774 0.46893 0.00692 0.0
C1346 C 0.77844 0.48497 0.01746 0.0
C1347 C 0.76162 0.50017 0.00367 0.0
C1348 C 0.77479 0.48592 0.04273 0.0
C1349 C 0.81548 0.45116 0.02076 0.0
C1350 C 0.75021 0.47966 0.0523 0.0
C1351 C 0.74609 0.48177 0.07596 0.0
C1352 C 0.76648 0.49018 0.09053 0.0
C1353 C 0.79118 0.4962 0.08095 0.0
C1354 C 0.79524 0.49425 0.05723 0.0
H1355 H 0.82397 0.43518 0.01004 0.0
H1356 H 0.83202 0.4629 0.02784 0.0
H1357 H 0.80467 0.44215 0.03537 0.0
H1358 H 0.73414 0.47327 0.0414 0.0
H1359 H 0.72685 0.47694 0.08278 0.0
loop_
_geom_bond_atom_site_label_1
_geom_bond_atom_site_label_2
_geom_bond_distance
_geom_bond_site_symmetry_2
_ccdc_geom_bond_type
C0 O1 1.160 . S
C0 O7 1.185 . S
O1 C0 1.160 . S
O2 Zn3 1.899 . S
O2 C10 1.284 . S
Zn3 O2 1.899 . S
Zn3 O4 2.032 . S
Zn3 O7 2.086 . S
Zn3 O12 1.977 1_455 S
O4 Zn3 2.032 . S
O4 C8 1.278 . S
C5 O6 1.203 . S
C5 O12 1.267 . S
O6 C5 1.203 . S
O7 C0 1.185 . S
O7 Zn3 2.086 . S
C8 O4 1.278 . S
C8 O9 1.211 . S
O9 C8 1.211 . S
C10 O2 1.284 . S
C10 O11 1.273 . S
O11 C10 1.273 . S
O12 Zn3 1.977 1_655 S
O12 C5 1.267 . S
C13 O14 1.160 . S
C13 O20 1.185 . S
O14 C13 1.160 . S
O15 Zn16 1.899 . S
O15 C23 1.284 . S
Zn16 O15 1.899 . S
Zn16 O17 2.032 . S
Zn16 O20 2.086 . S
Zn16 O25 1.977 1_545 S
O17 Zn16 2.032 . S
O17 C21 1.278 . S
C18 O19 1.203 . S
C18 O25 1.267 . S
O19 C18 1.203 . S
O20 C13 1.185 . S
O20 Zn16 2.086 . S
C21 O17 1.278 . S
C21 O22 1.211 . S
O22 C21 1.211 . S
C23 O15 1.284 . S
C23 O24 1.273 . S
O24 C23 1.273 . S
O25 Zn16 1.977 1_565 S
O25 C18 1.267 . S
C26 O27 1.160 . S
C26 O33 1.185 . S
O27 C26 1.160 . S
O28 Zn29 1.899 . S
O28 C36 1.284 . S
Zn29 O28 1.899 . S
Zn29 O30 2.032 . S
Zn29 O33 2.086 . S
Zn29 O38 1.977 1_655 S
O30 Zn29 2.032 . S
O30 C34 1.278 . S
C31 O32 1.203 . S
C31 O38 1.267 . S
O32 C31 1.203 . S
O33 C26 1.185 . S
O33 Zn29 2.086 . S
C34 O30 1.278 . S
C34 O35 1.211 . S
O35 C34 1.211 . S
C36 O28 1.284 . S
C36 O37 1.273 . S
O37 C36 1.273 . S
O38 Zn29 1.977 1_455 S
O38 C31 1.267 . S
C39 O40 1.160 . S
C39 O46 1.185 . S
O40 C39 1.160 . S
O41 Zn42 1.899 . S
O41 C49 1.284 . S
Zn42 O41 1.899 . S
Zn42 O43 2.032 . S
Zn42 O46 2.086 . S
Zn42 O51 1.977 1_565 S
O43 Zn42 2.032 . S
O43 C47 1.278 . S
C44 O45 1.203 . S
C44 O51 1.267 . S
O45 C44 1.203 . S
O46 C39 1.185 . S
O46 Zn42 2.086 . S
C47 O43 1.278 . S
C47 O48 1.211 . S
O48 C47 1.211 . S
C49 O41 1.284 . S
C49 O50 1.273 . S
O50 C49 1.273 . S
O51 Zn42 1.977 1_545 S
O51 C44 1.267 . S
C52 O53 1.160 . S
C52 O59 1.185 . S
O53 C52 1.160 . S
O54 Zn55 1.899 . S
O54 C62 1.284 . S
Zn55 O54 1.899 . S
Zn55 O56 2.032 . S
Zn55 O59 2.086 . S
Zn55 O64 1.977 1_455 S
O56 Zn55 2.032 . S
O56 C60 1.278 . S
C57 O58 1.203 . S
C57 O64 1.267 . S
O58 C57 1.203 . S
O59 C52 1.185 . S
O59 Zn55 2.086 . S
C60 O56 1.278 . S
C60 O61 1.211 . S
O61 C60 1.211 . S
C62 O54 1.284 . S
C62 O63 1.273 . S
O63 C62 1.273 . S
O64 Zn55 1.977 1_655 S
O64 C57 1.267 . S
C65 O66 1.160 . S
C65 O72 1.185 . S
O66 C65 1.160 . S
O67 Zn68 1.899 . S
O67 C75 1.284 . S
Zn68 O67 1.899 . S
Zn68 O69 2.032 . S
Zn68 O72 2.086 . S
Zn68 O77 1.977 1_545 S
O69 Zn68 2.032 . S
O69 C73 1.278 . S
C70 O71 1.203 . S
C70 O77 1.267 . S
O71 C70 1.203 . S
O72 C65 1.185 . S
O72 Zn68 2.086 . S
C73 O69 1.278 . S
C73 O74 1.211 . S
O74 C73 1.211 . S
C75 O67 1.284 . S
C75 O76 1.273 . S
O76 C75 1.273 . S
O77 Zn68 1.977 1_565 S
O77 C70 1.267 . S
C78 O79 1.160 . S
C78 O85 1.185 . S
O79 C78 1.160 . S
O80 Zn81 1.899 . S
O80 C88 1.284 . S
Zn81 O80 1.899 . S
Zn81 O82 2.032 . S
Zn81 O85 2.086 . S
Zn81 O90 1.977 1_655 S
O82 Zn81 2.032 . S
O82 C86 1.278 . S
C83 O84 1.203 . S
C83 O90 1.267 . S
O84 C83 1.203 . S
O85 C78 1.185 . S
O85 Zn81 2.086 . S
C86 O82 1.278 . S
C86 O87 1.211 . S
O87 C86 1.211 . S
C88 O80 1.284 . S
C88 O89 1.273 . S
O89 C88 1.273 . S
O90 Zn81 1.977 1_455 S
O90 C83 1.267 . S
C91 O92 1.160 . S
C91 O98 1.185 . S
O92 C91 1.160 . S
O93 Zn94 1.899 . S
O93 C101 1.284 . S
Zn94 O93 1.899 . S
Zn94 O95 2.032 . S
Zn94 O98 2.086 . S
Zn94 O103 1.977 1_565 S
O95 Zn94 2.032 . S
O95 C99 1.278 . S
C96 O97 1.203 . S
C96 O103 1.267 . S
O97 C96 1.203 . S
O98 C91 1.185 . S
O98 Zn94 2.086 . S
C99 O95 1.278 . S
C99 O100 1.211 . S
O100 C99 1.211 . S
C101 O93 1.284 . S
C101 O102 1.273 . S
O102 C101 1.273 . S
O103 Zn94 1.977 1_545 S
O103 C96 1.267 . S
C104 O105 1.160 . S
C104 O111 1.185 . S
O105 C104 1.160 . S
O106 Zn107 1.899 . S
O106 C114 1.284 . S
Zn107 O106 1.899 . S
Zn107 O108 2.032 . S
Zn107 O111 2.086 . S
Zn107 O116 1.977 . S
O108 Zn107 2.032 . S
O108 C112 1.278 . S
C109 O110 1.203 . S
C109 O116 1.267 . S
O110 C109 1.203 . S
O111 C104 1.185 . S
O111 Zn107 2.086 . S
C112 O108 1.278 . S
C112 O113 1.211 . S
O113 C112 1.211 . S
C114 O106 1.284 . S
C114 O115 1.273 . S
O115 C114 1.273 . S
O116 Zn107 1.977 . S
O116 C109 1.267 . S
C117 O118 1.160 . S
C117 O124 1.185 . S
O118 C117 1.160 . S
O119 Zn120 1.899 . S
O119 C127 1.284 . S
Zn120 O119 1.899 . S
Zn120 O121 2.032 . S
Zn120 O124 2.086 . S
Zn120 O129 1.977 . S
O121 Zn120 2.032 . S
O121 C125 1.278 . S
C122 O123 1.203 . S
C122 O129 1.267 . S
O123 C122 1.203 . S
O124 C117 1.185 . S
O124 Zn120 2.086 . S
C125 O121 1.278 . S
C125 O126 1.211 . S
O126 C125 1.211 . S
C127 O119 1.284 . S
C127 O128 1.273 . S
O128 C127 1.273 . S
O129 Zn120 1.977 . S
O129 C122 1.267 . S
C130 O131 1.160 . S
C130 O137 1.185 . S
O131 C130 1.160 . S
O132 Zn133 1.899 . S
O132 C140 1.284 . S
Zn133 O132 1.899 . S
Zn133 O134 2.032 . S
Zn133 O137 2.086 . S
Zn133 O142 1.977 . S
O134 Zn133 2.032 . S
O134 C138 1.278 . S
C135 O136 1.203 . S
C135 O142 1.267 . S
O136 C135 1.203 . S
O137 C130 1.185 . S
O137 Zn133 2.086 . S
C138 O134 1.278 . S
C138 O139 1.211 . S
O139 C138 1.211 . S
C140 O132 1.284 . S
C140 O141 1.273 . S
O141 C140 1.273 . S
O142 Zn133 1.977 . S
O142 C135 1.267 . S
C143 O144 1.160 . S
C143 O150 1.185 . S
O144 C143 1.160 . S
O145 Zn146 1.899 . S
O145 C153 1.284 . S
Zn146 O145 1.899 . S
Zn146 O147 2.032 . S
Zn146 O150 2.086 . S
Zn146 O155 1.977 . S
O147 Zn146 2.032 . S
O147 C151 1.278 . S
C148 O149 1.203 . S
C148 O155 1.267 . S
O149 C148 1.203 . S
O150 C143 1.185 . S
O150 Zn146 2.086 . S
C151 O147 1.278 . S
C151 O152 1.211 . S
O152 C151 1.211 . S
C153 O145 1.284 . S
C153 O154 1.273 . S
O154 C153 1.273 . S
O155 Zn146 1.977 . S
O155 C148 1.267 . S
C156 O157 1.160 . S
C156 O163 1.185 . S
O157 C156 1.160 . S
O158 Zn159 1.899 . S
O158 C166 1.284 . S
Zn159 O158 1.899 . S
Zn159 O160 2.032 . S
Zn159 O163 2.086 . S
Zn159 O168 1.977 . S
O160 Zn159 2.032 . S
O160 C164 1.278 . S
C161 O162 1.203 . S
C161 O168 1.267 . S
O162 C161 1.203 . S
O163 C156 1.185 . S
O163 Zn159 2.086 . S
C164 O160 1.278 . S
C164 O165 1.211 . S
O165 C164 1.211 . S
C166 O158 1.284 . S
C166 O167 1.273 . S
O167 C166 1.273 . S
O168 Zn159 1.977 . S
O168 C161 1.267 . S
C169 O170 1.160 . S
C169 O176 1.185 . S
O170 C169 1.160 . S
O171 Zn172 1.899 . S
O171 C179 1.284 . S
Zn172 O171 1.899 . S
Zn172 O173 2.032 . S
Zn172 O176 2.086 . S
Zn172 O181 1.977 . S
O173 Zn172 2.032 . S
O173 C177 1.278 . S
C174 O175 1.203 . S
C174 O181 1.267 . S
O175 C174 1.203 . S
O176 C169 1.185 . S
O176 Zn172 2.086 . S
C177 O173 1.278 . S
C177 O178 1.211 . S
O178 C177 1.211 . S
C179 O171 1.284 . S
C179 O180 1.273 . S
O180 C179 1.273 . S
O181 Zn172 1.977 . S
O181 C174 1.267 . S
C182 O183 1.160 . S
C182 O189 1.185 . S
O183 C182 1.160 . S
O184 Zn185 1.899 . S
O184 C192 1.284 . S
Zn185 O184 1.899 . S
Zn185 O186 2.032 . S
Zn185 O189 2.086 . S
Zn185 O194 1.977 . S
O186 Zn185 2.032 . S
O186 C190 1.278 . S
C187 O188 1.203 . S
C187 O194 1.267 . S
O188 C187 1.203 . S
O189 C182 1.185 . S
O189 Zn185 2.086 . S
C190 O186 1.278 . S
C190 O191 1.211 . S
O191 C190 1.211 . S
C192 O184 1.284 . S
C192 O193 1.273 . S
O193 C192 1.273 . S
O194 Zn185 1.977 . S
O194 C187 1.267 . S
C195 O196 1.160 . S
C195 O202 1.185 . S
O196 C195 1.160 . S
O197 Zn198 1.899 . S
O197 C205 1.284 . S
Zn198 O197 1.899 . S
Zn198 O199 2.032 . S
Zn198 O202 2.086 . S
Zn198 O207 1.977 . S
O199 Zn198 2.032 . S
O199 C203 1.278 . S
C200 O201 1.203 . S
C200 O207 1.267 . S
O201 C200 1.203 . S
O202 C195 1.185 . S
O202 Zn198 2.086 . S
C203 O199 1.278 . S
C203 O204 1.211 . S
O204 C203 1.211 . S
C205 O197 1.284 . S
C205 O206 1.273 . S
O206 C205 1.273 . S
O207 Zn198 1.977 . S
O207 C200 1.267 . S
H208 C216 0.929 . S
H209 C218 0.930 . S
H210 C220 0.930 . S
H211 C223 0.929 . S
H212 C226 0.930 . S
H213 C228 0.960 . S
H214 C228 0.960 . S
H215 C228 0.960 . S
C216 H208 0.929 . S
C216 C217 1.377 . S
C216 C218 1.384 . S
C217 C216 1.377 . S
C217 C223 1.390 . S
C218 H209 0.930 . S
C218 C216 1.384 . S
C218 C219 1.372 . S
C219 C218 1.372 . S
C219 C220 1.400 . S
C219 C224 1.490 . S
C220 H210 0.930 . S
C220 C219 1.400 . S
C220 C223 1.386 . S
H221 C237 0.930 . S
H222 C238 0.931 . S
C223 H211 0.929 . S
C223 C217 1.390 . S
C223 C220 1.386 . S
C224 C219 1.490 . S
C224 C226 1.395 . S
C224 C227 1.403 . S
H225 C231 0.930 . S
C226 H212 0.930 . S
C226 C224 1.395 . S
C226 C229 1.403 . S
C227 C224 1.403 . S
C227 C228 1.524 . S
C227 C231 1.400 . S
C228 H213 0.960 . S
C228 H214 0.960 . S
C228 H215 0.960 . S
C228 C227 1.524 . S
C229 C226 1.403 . S
C229 C230 1.392 . S
C229 C233 1.495 . S
C230 C229 1.392 . S
C230 C231 1.385 . S
C230 C232 1.478 . S
C231 H225 0.930 . S
C231 C227 1.400 . S
C231 C230 1.385 . S
C232 C230 1.478 . S
C232 C234 1.381 . S
C232 C238 1.383 . S
C233 C229 1.495 . S
C233 H239 0.959 . S
C233 H240 0.961 . S
C233 H241 0.960 . S
C234 C232 1.381 . S
C234 C235 1.394 . S
C234 H242 0.930 . S
C235 C234 1.394 . S
C235 C236 1.383 . S
C235 H243 0.929 . S
C236 C235 1.383 . S
C236 C237 1.377 . S
C237 H221 0.930 . S
C237 C236 1.377 . S
C237 C238 1.379 . S
C238 H222 0.931 . S
C238 C232 1.383 . S
C238 C237 1.379 . S
H239 C233 0.959 . S
H240 C233 0.961 . S
H241 C233 0.960 . S
H242 C234 0.930 . S
H243 C235 0.929 . S
H244 C252 0.929 . S
H245 C254 0.930 . S
H246 C256 0.930 . S
H247 C259 0.929 . S
H248 C262 0.930 . S
H249 C264 0.960 . S
H250 C264 0.960 . S
H251 C264 0.960 . S
C252 H244 0.929 . S
C252 C253 1.377 . S
C252 C254 1.384 . S
C253 C252 1.377 . S
C253 C259 1.390 . S
C254 H245 0.930 . S
C254 C252 1.384 . S
C254 C255 1.372 . S
C255 C254 1.372 . S
C255 C256 1.400 . S
C255 C260 1.490 . S
C256 H246 0.930 . S
C256 C255 1.400 . S
C256 C259 1.386 . S
H257 C273 0.930 . S
H258 C274 0.931 . S
C259 H247 0.929 . S
C259 C253 1.390 . S
C259 C256 1.386 . S
C260 C255 1.490 . S
C260 C262 1.395 . S
C260 C263 1.403 . S
H261 C267 0.930 . S
C262 H248 0.930 . S
C262 C260 1.395 . S
C262 C265 1.403 . S
C263 C260 1.403 . S
C263 C264 1.524 . S
C263 C267 1.400 . S
C264 H249 0.960 . S
C264 H250 0.960 . S
C264 H251 0.960 . S
C264 C263 1.524 . S
C265 C262 1.403 . S
C265 C266 1.392 . S
C265 C269 1.495 . S
C266 C265 1.392 . S
C266 C267 1.385 . S
C266 C268 1.478 . S
C267 H261 0.930 . S
C267 C263 1.400 . S
C267 C266 1.385 . S
C268 C266 1.478 . S
C268 C270 1.381 . S
C268 C274 1.383 . S
C269 C265 1.495 . S
C269 H275 0.959 . S
C269 H276 0.961 . S
C269 H277 0.960 . S
C270 C268 1.381 . S
C270 C271 1.394 . S
C270 H278 0.930 . S
C271 C270 1.394 . S
C271 C272 1.383 . S
C271 H279 0.929 . S
C272 C271 1.383 . S
C272 C273 1.377 . S
C273 H257 0.930 . S
C273 C272 1.377 . S
C273 C274 1.379 . S
C274 H258 0.931 . S
C274 C268 1.383 . S
C274 C273 1.379 . S
H275 C269 0.959 . S
H276 C269 0.961 . S
H277 C269 0.960 . S
H278 C270 0.930 . S
H279 C271 0.929 . S
H280 C288 0.929 . S
H281 C290 0.930 . S
H282 C292 0.930 . S
H283 C295 0.929 . S
H284 C298 0.930 . S
H285 C300 0.960 . S
H286 C300 0.960 . S
H287 C300 0.960 . S
C288 H280 0.929 . S
C288 C289 1.377 . S
C288 C290 1.384 . S
C289 C288 1.377 . S
C289 C295 1.390 . S
C290 H281 0.930 . S
C290 C288 1.384 . S
C290 C291 1.372 . S
C291 C290 1.372 . S
C291 C292 1.400 . S
C291 C296 1.490 . S
C292 H282 0.930 . S
C292 C291 1.400 . S
C292 C295 1.386 . S
H293 C309 0.930 . S
H294 C310 0.931 . S
C295 H283 0.929 . S
C295 C289 1.390 . S
C295 C292 1.386 . S
C296 C291 1.490 . S
C296 C298 1.395 . S
C296 C299 1.403 . S
H297 C303 0.930 . S
C298 H284 0.930 . S
C298 C296 1.395 . S
C298 C301 1.403 . S
C299 C296 1.403 . S
C299 C300 1.524 . S
C299 C303 1.400 . S
C300 H285 0.960 . S
C300 H286 0.960 . S
C300 H287 0.960 . S
C300 C299 1.524 . S
C301 C298 1.403 . S
C301 C302 1.392 . S
C301 C305 1.495 . S
C302 C301 1.392 . S
C302 C303 1.385 . S
C302 C304 1.478 . S
C303 H297 0.930 . S
C303 C299 1.400 . S
C303 C302 1.385 . S
C304 C302 1.478 . S
C304 C306 1.381 . S
C304 C310 1.383 . S
C305 C301 1.495 . S
C305 H311 0.959 . S
C305 H312 0.961 . S
C305 H313 0.960 . S
C306 C304 1.381 . S
C306 C307 1.394 . S
C306 H314 0.930 . S
C307 C306 1.394 . S
C307 C308 1.383 . S
C307 H315 0.929 . S
C308 C307 1.383 . S
C308 C309 1.377 . S
C309 H293 0.930 . S
C309 C308 1.377 . S
C309 C310 1.379 . S
C310 H294 0.931 . S
C310 C304 1.383 . S
C310 C309 1.379 . S
H311 C305 0.959 . S
H312 C305 0.961 . S
H313 C305 0.960 . S
H314 C306 0.930 . S
H315 C307 0.929 . S
H316 C324 0.929 . S
H317 C326 0.930 . S
H318 C328 0.930 . S
H319 C331 0.929 . S
H320 C334 0.930 . S
H321 C336 0.960 . S
H322 C336 0.960 . S
H323 C336 0.960 . S
C324 H316 0.929 . S
C324 C325 1.377 . S
C324 C326 1.384 . S
C325 C324 1.377 . S
C325 C331 1.390 . S
C326 H317 0.930 . S
C326 C324 1.384 . S
C326 C327 1.372 . S
C327 C326 1.372 . S
C327 C328 1.400 . S
C327 C332 1.490 . S
C328 H318 0.930 . S
C328 C327 1.400 . S
C328 C331 1.386 . S
H329 C345 0.930 . S
H330 C346 0.931 . S
C331 H319 0.929 . S
C331 C325 1.390 . S
C331 C328 1.386 . S
C332 C327 1.490 . S
C332 C334 1.395 . S
C332 C335 1.403 . S
H333 C339 0.930 . S
C334 H320 0.930 . S
C334 C332 1.395 . S
C334 C337 1.403 . S
C335 C332 1.403 . S
C335 C336 1.524 . S
C335 C339 1.400 . S
C336 H321 0.960 . S
C336 H322 0.960 . S
C336 H323 0.960 . S
C336 C335 1.524 . S
C337 C334 1.403 . S
C337 C338 1.392 . S
C337 C341 1.495 . S
C338 C337 1.392 . S
C338 C339 1.385 . S
C338 C340 1.478 . S
C339 H333 0.930 . S
C339 C335 1.400 . S
C339 C338 1.385 . S
C340 C338 1.478 . S
C340 C342 1.381 . S
C340 C346 1.383 . S
C341 C337 1.495 . S
C341 H347 0.959 . S
C341 H348 0.961 . S
C341 H349 0.960 . S
C342 C340 1.381 . S
C342 C343 1.394 . S
C342 H350 0.930 . S
C343 C342 1.394 . S
C343 C344 1.383 . S
C343 H351 0.929 . S
C344 C343 1.383 . S
C344 C345 1.377 . S
C345 H329 0.930 . S
C345 C344 1.377 . S
C345 C346 1.379 . S
C346 H330 0.931 . S
C346 C340 1.383 . S
C346 C345 1.379 . S
H347 C341 0.959 . S
H348 C341 0.961 . S
H349 C341 0.960 . S
H350 C342 0.930 . S
H351 C343 0.929 . S
H352 C360 0.929 . S
H353 C362 0.930 . S
H354 C364 0.930 . S
H355 C367 0.929 . S
H356 C370 0.930 . S
H357 C372 0.960 . S
H358 C372 0.960 . S
H359 C372 0.960 . S
C360 H352 0.929 . S
C360 C361 1.377 . S
C360 C362 1.384 . S
C361 C360 1.377 . S
C361 C367 1.390 . S
C362 H353 0.930 . S
C362 C360 1.384 . S
C362 C363 1.372 . S
C363 C362 1.372 . S
C363 C364 1.400 . S
C363 C368 1.490 . S
C364 H354 0.930 . S
C364 C363 1.400 . S
C364 C367 1.386 . S
H365 C381 0.930 . S
H366 C382 0.931 . S
C367 H355 0.929 . S
C367 C361 1.390 . S
C367 C364 1.386 . S
C368 C363 1.490 . S
C368 C370 1.395 . S
C368 C371 1.403 . S
H369 C375 0.930 . S
C370 H356 0.930 . S
C370 C368 1.395 . S
C370 C373 1.403 . S
C371 C368 1.403 . S
C371 C372 1.524 . S
C371 C375 1.400 . S
C372 H357 0.960 . S
C372 H358 0.960 . S
C372 H359 0.960 . S
C372 C371 1.524 . S
C373 C370 1.403 . S
C373 C374 1.392 . S
C373 C377 1.495 . S
C374 C373 1.392 . S
C374 C375 1.385 . S
C374 C376 1.478 . S
C375 H369 0.930 . S
C375 C371 1.400 . S
C375 C374 1.385 . S
C376 C374 1.478 . S
C376 C378 1.381 . S
C376 C382 1.383 . S
C377 C373 1.495 . S
C377 H383 0.959 . S
C377 H384 0.961 . S
C377 H385 0.960 . S
C378 C376 1.381 . S
C378 C379 1.394 . S
C378 H386 0.930 . S
C379 C378 1.394 . S
C379 C380 1.383 . S
C379 H387 0.929 . S
C380 C379 1.383 . S
C380 C381 1.377 . S
C381 H365 0.930 . S
C381 C380 1.377 . S
C381 C382 1.379 . S
C382 H366 0.931 . S
C382 C376 1.383 . S
C382 C381 1.379 . S
H383 C377 0.959 . S
H384 C377 0.961 . S
H385 C377 0.960 . S
H386 C378 0.930 . S
H387 C379 0.929 . S
H388 C396 0.929 . S
H389 C398 0.930 . S
H390 C400 0.930 . S
H391 C403 0.929 . S
H392 C406 0.930 . S
H393 C408 0.960 . S
H394 C408 0.960 . S
H395 C408 0.960 . S
C396 H388 0.929 . S
C396 C397 1.377 . S
C396 C398 1.384 . S
C397 C396 1.377 . S
C397 C403 1.390 . S
C398 H389 0.930 . S
C398 C396 1.384 . S
C398 C399 1.372 . S
C399 C398 1.372 . S
C399 C400 1.400 . S
C399 C404 1.490 . S
C400 H390 0.930 . S
C400 C399 1.400 . S
C400 C403 1.386 . S
H401 C417 0.930 . S
H402 C418 0.931 . S
C403 H391 0.929 . S
C403 C397 1.390 . S
C403 C400 1.386 . S
C404 C399 1.490 . S
C404 C406 1.395 . S
C404 C407 1.403 . S
H405 C411 0.930 . S
C406 H392 0.930 . S
C406 C404 1.395 . S
C406 C409 1.403 . S
C407 C404 1.403 . S
C407 C408 1.524 . S
C407 C411 1.400 . S
C408 H393 0.960 . S
C408 H394 0.960 . S
C408 H395 0.960 . S
C408 C407 1.524 . S
C409 C406 1.403 . S
C409 C410 1.392 . S
C409 C413 1.495 . S
C410 C409 1.392 . S
C410 C411 1.385 . S
C410 C412 1.478 . S
C411 H405 0.930 . S
C411 C407 1.400 . S
C411 C410 1.385 . S
C412 C410 1.478 . S
C412 C414 1.381 . S
C412 C418 1.383 . S
C413 C409 1.495 . S
C413 H419 0.959 . S
C413 H420 0.961 . S
C413 H421 0.960 . S
C414 C412 1.381 . S
C414 C415 1.394 . S
C414 H422 0.930 . S
C415 C414 1.394 . S
C415 C416 1.383 . S
C415 H423 0.929 . S
C416 C415 1.383 . S
C416 C417 1.377 . S
C417 H401 0.930 . S
C417 C416 1.377 . S
C417 C418 1.379 . S
C418 H402 0.931 . S
C418 C412 1.383 . S
C418 C417 1.379 . S
H419 C413 0.959 . S
H420 C413 0.961 . S
H421 C413 0.960 . S
H422 C414 0.930 . S
H423 C415 0.929 . S
H424 C432 0.929 . S
H425 C434 0.930 . S
H426 C436 0.930 . S
H427 C439 0.929 . S
H428 C442 0.930 . S
H429 C444 0.960 . S
H430 C444 0.960 . S
H431 C444 0.960 . S
C432 H424 0.929 . S
C432 C433 1.377 . S
C432 C434 1.384 . S
C433 C432 1.377 . S
C433 C439 1.390 . S
C434 H425 0.930 . S
C434 C432 1.384 . S
C434 C435 1.372 . S
C435 C434 1.372 . S
C435 C436 1.400 . S
C435 C440 1.490 . S
C436 H426 0.930 . S
C436 C435 1.400 . S
C436 C439 1.386 . S
H437 C453 0.930 . S
H438 C454 0.931 . S
C439 H427 0.929 . S
C439 C433 1.390 . S
C439 C436 1.386 . S
C440 C435 1.490 . S
C440 C442 1.395 . S
C440 C443 1.403 . S
H441 C447 0.930 . S
C442 H428 0.930 . S
C442 C440 1.395 . S
C442 C445 1.403 . S
C443 C440 1.403 . S
C443 C444 1.524 . S
C443 C447 1.400 . S
C444 H429 0.960 . S
C444 H430 0.960 . S
C444 H431 0.960 . S
C444 C443 1.524 . S
C445 C442 1.403 . S
C445 C446 1.392 . S
C445 C449 1.495 . S
C446 C445 1.392 . S
C446 C447 1.385 . S
C446 C448 1.478 . S
C447 H441 0.930 . S
C447 C443 1.400 . S
C447 C446 1.385 . S
C448 C446 1.478 . S
C448 C450 1.381 . S
C448 C454 1.383 . S
C449 C445 1.495 . S
C449 H455 0.959 . S
C449 H456 0.961 . S
C449 H457 0.960 . S
C450 C448 1.381 . S
C450 C451 1.394 . S
C450 H458 0.930 . S
C451 C450 1.394 . S
C451 C452 1.383 . S
C451 H459 0.929 . S
C452 C451 1.383 . S
C452 C453 1.377 . S
C453 H437 0.930 . S
C453 C452 1.377 . S
C453 C454 1.379 . S
C454 H438 0.931 . S
C454 C448 1.383 . S
C454 C453 1.379 . S
H455 C449 0.959 . S
H456 C449 0.961 . S
H457 C449 0.960 . S
H458 C450 0.930 . S
H459 C451 0.929 . S
H460 C468 0.929 . S
H461 C470 0.930 . S
H462 C472 0.930 . S
H463 C475 0.929 . S
H464 C478 0.930 . S
H465 C480 0.960 . S
H466 C480 0.960 . S
H467 C480 0.960 . S
C468 H460 0.929 . S
C468 C469 1.377 . S
C468 C470 1.384 . S
C469 C468 1.377 . S
C469 C475 1.390 . S
C470 H461 0.930 . S
C470 C468 1.384 . S
C470 C471 1.372 . S
C471 C470 1.372 . S
C471 C472 1.400 . S
C471 C476 1.490 . S
C472 H462 0.930 . S
C472 C471 1.400 . S
C472 C475 1.386 . S
H473 C489 0.930 . S
H474 C490 0.931 . S
C475 H463 0.929 . S
C475 C469 1.390 . S
C475 C472 1.386 . S
C476 C471 1.490 . S
C476 C478 1.395 . S
C476 C479 1.403 . S
H477 C483 0.930 . S
C478 H464 0.930 . S
C478 C476 1.395 . S
C478 C481 1.403 . S
C479 C476 1.403 . S
C479 C480 1.524 . S
C479 C483 1.400 . S
C480 H465 0.960 . S
C480 H466 0.960 . S
C480 H467 0.960 . S
C480 C479 1.524 . S
C481 C478 1.403 . S
C481 C482 1.392 . S
C481 C485 1.495 . S
C482 C481 1.392 . S
C482 C483 1.385 . S
C482 C484 1.478 . S
C483 H477 0.930 . S
C483 C479 1.400 . S
C483 C482 1.385 . S
C484 C482 1.478 . S
C484 C486 1.381 . S
C484 C490 1.383 . S
C485 C481 1.495 . S
C485 H491 0.959 . S
C485 H492 0.961 . S
C485 H493 0.960 . S
C486 C484 1.381 . S
C486 C487 1.394 . S
C486 H494 0.930 . S
C487 C486 1.394 . S
C487 C488 1.383 . S
C487 H495 0.929 . S
C488 C487 1.383 . S
C488 C489 1.377 . S
C489 H473 0.930 . S
C489 C488 1.377 . S
C489 C490 1.379 . S
C490 H474 0.931 . S
C490 C484 1.383 . S
C490 C489 1.379 . S
H491 C485 0.959 . S
H492 C485 0.961 . S
H493 C485 0.960 . S
H494 C486 0.930 . S
H495 C487 0.929 . S
H496 C504 0.929 . S
H497 C506 0.930 . S
H498 C508 0.930 . S
H499 C511 0.929 . S
H500 C514 0.930 . S
H501 C516 0.960 . S
H502 C516 0.960 . S
H503 C516 0.960 . S
C504 H496 0.929 . S
C504 C505 1.377 . S
C504 C506 1.384 . S
C505 C504 1.377 . S
C505 C511 1.390 . S
C506 H497 0.930 . S
C506 C504 1.384 . S
C506 C507 1.372 . S
C507 C506 1.372 . S
C507 C508 1.400 . S
C507 C512 1.490 . S
C508 H498 0.930 . S
C508 C507 1.400 . S
C508 C511 1.386 . S
H509 C525 0.930 . S
H510 C526 0.931 . S
C511 H499 0.929 . S
C511 C505 1.390 . S
C511 C508 1.386 . S
C512 C507 1.490 . S
C512 C514 1.395 . S
C512 C515 1.403 . S
H513 C519 0.930 . S
C514 H500 0.930 . S
C514 C512 1.395 . S
C514 C517 1.403 . S
C515 C512 1.403 . S
C515 C516 1.524 . S
C515 C519 1.400 . S
C516 H501 0.960 . S
C516 H502 0.960 . S
C516 H503 0.960 . S
C516 C515 1.524 . S
C517 C514 1.403 . S
C517 C518 1.392 . S
C517 C521 1.495 . S
C518 C517 1.392 . S
C518 C519 1.385 . S
C518 C520 1.478 . S
C519 H513 0.930 . S
C519 C515 1.400 . S
C519 C518 1.385 . S
C520 C518 1.478 . S
C520 C522 1.381 . S
C520 C526 1.383 . S
C521 C517 1.495 . S
C521 H527 0.959 . S
C521 H528 0.961 . S
C521 H529 0.960 . S
C522 C520 1.381 . S
C522 C523 1.394 . S
C522 H530 0.930 . S
C523 C522 1.394 . S
C523 C524 1.383 . S
C523 H531 0.929 . S
C524 C523 1.383 . S
C524 C525 1.377 . S
C525 H509 0.930 . S
C525 C524 1.377 . S
C525 C526 1.379 . S
C526 H510 0.931 . S
C526 C520 1.383 . S
C526 C525 1.379 . S
H527 C521 0.959 . S
H528 C521 0.961 . S
H529 C521 0.960 . S
H530 C522 0.930 . S
H531 C523 0.929 . S
H532 C540 0.929 . S
H533 C542 0.930 . S
H534 C544 0.930 . S
H535 C547 0.929 . S
H536 C550 0.930 . S
H537 C552 0.960 . S
H538 C552 0.960 . S
H539 C552 0.960 . S
C540 H532 0.929 . S
C540 C541 1.377 . S
C540 C542 1.384 . S
C541 C540 1.377 . S
C541 C547 1.390 . S
C542 H533 0.930 . S
C542 C540 1.384 . S
C542 C543 1.372 . S
C543 C542 1.372 . S
C543 C544 1.400 . S
C543 C548 1.490 . S
C544 H534 0.930 . S
C544 C543 1.400 . S
C544 C547 1.386 . S
H545 C561 0.930 . S
H546 C562 0.931 . S
C547 H535 0.929 . S
C547 C541 1.390 . S
C547 C544 1.386 . S
C548 C543 1.490 . S
C548 C550 1.395 . S
C548 C551 1.403 . S
H549 C555 0.930 . S
C550 H536 0.930 . S
C550 C548 1.395 . S
C550 C553 1.403 . S
C551 C548 1.403 . S
C551 C552 1.524 . S
C551 C555 1.400 . S
C552 H537 0.960 . S
C552 H538 0.960 . S
C552 H539 0.960 . S
C552 C551 1.524 . S
C553 C550 1.403 . S
C553 C554 1.392 . S
C553 C557 1.495 . S
C554 C553 1.392 . S
C554 C555 1.385 . S
C554 C556 1.478 . S
C555 H549 0.930 . S
C555 C551 1.400 . S
C555 C554 1.385 . S
C556 C554 1.478 . S
C556 C558 1.381 . S
C556 C562 1.383 . S
C557 C553 1.495 . S
C557 H563 0.959 . S
C557 H564 0.961 . S
C557 H565 0.960 . S
C558 C556 1.381 . S
C558 C559 1.394 . S
C558 H566 0.930 . S
C559 C558 1.394 . S
C559 C560 1.383 . S
C559 H567 0.929 . S
C560 C559 1.383 . S
C560 C561 1.377 . S
C561 H545 0.930 . S
C561 C560 1.377 . S
C561 C562 1.379 . S
C562 H546 0.931 . S
C562 C556 1.383 . S
C562 C561 1.379 . S
H563 C557 0.959 . S
H564 C557 0.961 . S
H565 C557 0.960 . S
H566 C558 0.930 . S
H567 C559 0.929 . S
H568 C576 0.929 . S
H569 C578 0.930 . S
H570 C580 0.930 . S
H571 C583 0.929 . S
H572 C586 0.930 . S
H573 C588 0.960 . S
H574 C588 0.960 . S
H575 C588 0.960 . S
C576 H568 0.929 . S
C576 C577 1.377 . S
C576 C578 1.384 . S
C577 C576 1.377 . S
C577 C583 1.390 . S
C578 H569 0.930 . S
C578 C576 1.384 . S
C578 C579 1.372 . S
C579 C578 1.372 . S
C579 C580 1.400 . S
C579 C584 1.490 . S
C580 H570 0.930 . S
C580 C579 1.400 . S
C580 C583 1.386 . S
H581 C597 0.930 . S
H582 C598 0.931 . S
C583 H571 0.929 . S
C583 C577 1.390 . S
C583 C580 1.386 . S
C584 C579 1.490 . S
C584 C586 1.395 . S
C584 C587 1.403 . S
H585 C591 0.930 . S
C586 H572 0.930 . S
C586 C584 1.395 . S
C586 C589 1.403 . S
C587 C584 1.403 . S
C587 C588 1.524 . S
C587 C591 1.400 . S
C588 H573 0.960 . S
C588 H574 0.960 . S
C588 H575 0.960 . S
C588 C587 1.524 . S
C589 C586 1.403 . S
C589 C590 1.392 . S
C589 C593 1.495 . S
C590 C589 1.392 . S
C590 C591 1.385 . S
C590 C592 1.478 . S
C591 H585 0.930 . S
C591 C587 1.400 . S
C591 C590 1.385 . S
C592 C590 1.478 . S
C592 C594 1.381 . S
C592 C598 1.383 . S
C593 C589 1.495 . S
C593 H599 0.959 . S
C593 H600 0.961 . S
C593 H601 0.960 . S
C594 C592 1.381 . S
C594 C595 1.394 . S
C594 H602 0.930 . S
C595 C594 1.394 . S
C595 C596 1.383 . S
C595 H603 0.929 . S
C596 C595 1.383 . S
C596 C597 1.377 . S
C597 H581 0.930 . S
C597 C596 1.377 . S
C597 C598 1.379 . S
C598 H582 0.931 . S
C598 C592 1.383 . S
C598 C597 1.379 . S
H599 C593 0.959 . S
H600 C593 0.961 . S
H601 C593 0.960 . S
H602 C594 0.930 . S
H603 C595 0.929 . S
H604 C612 0.929 . S
H605 C614 0.930 . S
H606 C616 0.930 . S
H607 C619 0.929 . S
H608 C622 0.930 . S
H609 C624 0.960 . S
H610 C624 0.960 . S
H611 C624 0.960 . S
C612 H604 0.929 . S
C612 C613 1.377 . S
C612 C614 1.384 . S
C613 C612 1.377 . S
C613 C619 1.390 . S
C614 H605 0.930 . S
C614 C612 1.384 . S
C614 C615 1.372 . S
C615 C614 1.372 . S
C615 C616 1.400 . S
C615 C620 1.490 . S
C616 H606 0.930 . S
C616 C615 1.400 . S
C616 C619 1.386 . S
H617 C633 0.930 . S
H618 C634 0.931 . S
C619 H607 0.929 . S
C619 C613 1.390 . S
C619 C616 1.386 . S
C620 C615 1.490 . S
C620 C622 1.395 . S
C620 C623 1.403 . S
H621 C627 0.930 . S
C622 H608 0.930 . S
C622 C620 1.395 . S
C622 C625 1.403 . S
C623 C620 1.403 . S
C623 C624 1.524 . S
C623 C627 1.400 . S
C624 H609 0.960 . S
C624 H610 0.960 . S
C624 H611 0.960 . S
C624 C623 1.524 . S
C625 C622 1.403 . S
C625 C626 1.392 . S
C625 C629 1.495 . S
C626 C625 1.392 . S
C626 C627 1.385 . S
C626 C628 1.478 . S
C627 H621 0.930 . S
C627 C623 1.400 . S
C627 C626 1.385 . S
C628 C626 1.478 . S
C628 C630 1.381 . S
C628 C634 1.383 . S
C629 C625 1.495 . S
C629 H635 0.959 . S
C629 H636 0.961 . S
C629 H637 0.960 . S
C630 C628 1.381 . S
C630 C631 1.394 . S
C630 H638 0.930 . S
C631 C630 1.394 . S
C631 C632 1.383 . S
C631 H639 0.929 . S
C632 C631 1.383 . S
C632 C633 1.377 . S
C633 H617 0.930 . S
C633 C632 1.377 . S
C633 C634 1.379 . S
C634 H618 0.931 . S
C634 C628 1.383 . S
C634 C633 1.379 . S
H635 C629 0.959 . S
H636 C629 0.961 . S
H637 C629 0.960 . S
H638 C630 0.930 . S
H639 C631 0.929 . S
H640 C648 0.929 . S
H641 C650 0.930 . S
H642 C652 0.930 . S
H643 C655 0.929 . S
H644 C658 0.930 . S
H645 C660 0.960 . S
H646 C660 0.960 . S
H647 C660 0.960 . S
C648 H640 0.929 . S
C648 C649 1.377 . S
C648 C650 1.384 . S
C649 C648 1.377 . S
C649 C655 1.390 . S
C650 H641 0.930 . S
C650 C648 1.384 . S
C650 C651 1.372 . S
C651 C650 1.372 . S
C651 C652 1.400 . S
C651 C656 1.490 . S
C652 H642 0.930 . S
C652 C651 1.400 . S
C652 C655 1.386 . S
H653 C669 0.930 . S
H654 C670 0.931 . S
C655 H643 0.929 . S
C655 C649 1.390 . S
C655 C652 1.386 . S
C656 C651 1.490 . S
C656 C658 1.395 . S
C656 C659 1.403 . S
H657 C663 0.930 . S
C658 H644 0.930 . S
C658 C656 1.395 . S
C658 C661 1.403 . S
C659 C656 1.403 . S
C659 C660 1.524 . S
C659 C663 1.400 . S
C660 H645 0.960 . S
C660 H646 0.960 . S
C660 H647 0.960 . S
C660 C659 1.524 . S
C661 C658 1.403 . S
C661 C662 1.392 . S
C661 C665 1.495 . S
C662 C661 1.392 . S
C662 C663 1.385 . S
C662 C664 1.478 . S
C663 H657 0.930 . S
C663 C659 1.400 . S
C663 C662 1.385 . S
C664 C662 1.478 . S
C664 C666 1.381 . S
C664 C670 1.383 . S
C665 C661 1.495 . S
C665 H671 0.959 . S
C665 H672 0.961 . S
C665 H673 0.960 . S
C666 C664 1.381 . S
C666 C667 1.394 . S
C666 H674 0.930 . S
C667 C666 1.394 . S
C667 C668 1.383 . S
C667 H675 0.929 . S
C668 C667 1.383 . S
C668 C669 1.377 . S
C669 H653 0.930 . S
C669 C668 1.377 . S
C669 C670 1.379 . S
C670 H654 0.931 . S
C670 C664 1.383 . S
C670 C669 1.379 . S
H671 C665 0.959 . S
H672 C665 0.961 . S
H673 C665 0.960 . S
H674 C666 0.930 . S
H675 C667 0.929 . S
H676 C684 0.929 . S
H677 C686 0.930 . S
H678 C688 0.930 . S
H679 C691 0.929 . S
H680 C694 0.930 . S
H681 C696 0.960 . S
H682 C696 0.960 . S
H683 C696 0.960 . S
C684 H676 0.929 . S
C684 C685 1.377 . S
C684 C686 1.384 . S
C685 C684 1.377 . S
C685 C691 1.390 . S
C686 H677 0.930 . S
C686 C684 1.384 . S
C686 C687 1.372 . S
C687 C686 1.372 . S
C687 C688 1.400 . S
C687 C692 1.490 . S
C688 H678 0.930 . S
C688 C687 1.400 . S
C688 C691 1.386 . S
H689 C705 0.930 . S
H690 C706 0.931 . S
C691 H679 0.929 . S
C691 C685 1.390 . S
C691 C688 1.386 . S
C692 C687 1.490 . S
C692 C694 1.395 . S
C692 C695 1.403 . S
H693 C699 0.930 . S
C694 H680 0.930 . S
C694 C692 1.395 . S
C694 C697 1.403 . S
C695 C692 1.403 . S
C695 C696 1.524 . S
C695 C699 1.400 . S
C696 H681 0.960 . S
C696 H682 0.960 . S
C696 H683 0.960 . S
C696 C695 1.524 . S
C697 C694 1.403 . S
C697 C698 1.392 . S
C697 C701 1.495 . S
C698 C697 1.392 . S
C698 C699 1.385 . S
C698 C700 1.478 . S
C699 H693 0.930 . S
C699 C695 1.400 . S
C699 C698 1.385 . S
C700 C698 1.478 . S
C700 C702 1.381 . S
C700 C706 1.383 . S
C701 C697 1.495 . S
C701 H707 0.959 . S
C701 H708 0.961 . S
C701 H709 0.960 . S
C702 C700 1.381 . S
C702 C703 1.394 . S
C702 H710 0.930 . S
C703 C702 1.394 . S
C703 C704 1.383 . S
C703 H711 0.929 . S
C704 C703 1.383 . S
C704 C705 1.377 . S
C705 H689 0.930 . S
C705 C704 1.377 . S
C705 C706 1.379 . S
C706 H690 0.931 . S
C706 C700 1.383 . S
C706 C705 1.379 . S
H707 C701 0.959 . S
H708 C701 0.961 . S
H709 C701 0.960 . S
H710 C702 0.930 . S
H711 C703 0.929 . S
H712 C720 0.929 . S
H713 C722 0.930 . S
H714 C724 0.930 . S
H715 C727 0.929 . S
H716 C730 0.930 . S
H717 C732 0.960 . S
H718 C732 0.960 . S
H719 C732 0.960 . S
C720 H712 0.929 . S
C720 C721 1.377 . S
C720 C722 1.384 . S
C721 C720 1.377 . S
C721 C727 1.390 . S
C722 H713 0.930 . S
C722 C720 1.384 . S
C722 C723 1.372 . S
C723 C722 1.372 . S
C723 C724 1.400 . S
C723 C728 1.490 . S
C724 H714 0.930 . S
C724 C723 1.400 . S
C724 C727 1.386 . S
H725 C741 0.930 . S
H726 C742 0.931 . S
C727 H715 0.929 . S
C727 C721 1.390 . S
C727 C724 1.386 . S
C728 C723 1.490 . S
C728 C730 1.395 . S
C728 C731 1.403 . S
H729 C735 0.930 . S
C730 H716 0.930 . S
C730 C728 1.395 . S
C730 C733 1.403 . S
C731 C728 1.403 . S
C731 C732 1.524 . S
C731 C735 1.400 . S
C732 H717 0.960 . S
C732 H718 0.960 . S
C732 H719 0.960 . S
C732 C731 1.524 . S
C733 C730 1.403 . S
C733 C734 1.392 . S
C733 C737 1.495 . S
C734 C733 1.392 . S
C734 C735 1.385 . S
C734 C736 1.478 . S
C735 H729 0.930 . S
C735 C731 1.400 . S
C735 C734 1.385 . S
C736 C734 1.478 . S
C736 C738 1.381 . S
C736 C742 1.383 . S
C737 C733 1.495 . S
C737 H743 0.959 . S
C737 H744 0.961 . S
C737 H745 0.960 . S
C738 C736 1.381 . S
C738 C739 1.394 . S
C738 H746 0.930 . S
C739 C738 1.394 . S
C739 C740 1.383 . S
C739 H747 0.929 . S
C740 C739 1.383 . S
C740 C741 1.377 . S
C741 H725 0.930 . S
C741 C740 1.377 . S
C741 C742 1.379 . S
C742 H726 0.931 . S
C742 C736 1.383 . S
C742 C741 1.379 . S
H743 C737 0.959 . S
H744 C737 0.961 . S
H745 C737 0.960 . S
H746 C738 0.930 . S
H747 C739 0.929 . S
H748 C756 0.929 . S
H749 C758 0.930 . S
H750 C760 0.930 . S
H751 C763 0.929 . S
H752 C766 0.930 . S
H753 C768 0.960 . S
H754 C768 0.960 . S
H755 C768 0.960 . S
C756 H748 0.929 . S
C756 C757 1.377 . S
C756 C758 1.384 . S
C757 C756 1.377 . S
C757 C763 1.390 . S
C758 H749 0.930 . S
C758 C756 1.384 . S
C758 C759 1.372 . S
C759 C758 1.372 . S
C759 C760 1.400 . S
C759 C764 1.490 . S
C760 H750 0.930 . S
C760 C759 1.400 . S
C760 C763 1.386 . S
H761 C777 0.930 . S
H762 C778 0.931 . S
C763 H751 0.929 . S
C763 C757 1.390 . S
C763 C760 1.386 . S
C764 C759 1.490 . S
C764 C766 1.395 . S
C764 C767 1.403 . S
H765 C771 0.930 . S
C766 H752 0.930 . S
C766 C764 1.395 . S
C766 C769 1.403 . S
C767 C764 1.403 . S
C767 C768 1.524 . S
C767 C771 1.400 . S
C768 H753 0.960 . S
C768 H754 0.960 . S
C768 H755 0.960 . S
C768 C767 1.524 . S
C769 C766 1.403 . S
C769 C770 1.392 . S
C769 C773 1.495 . S
C770 C769 1.392 . S
C770 C771 1.385 . S
C770 C772 1.478 . S
C771 H765 0.930 . S
C771 C767 1.400 . S
C771 C770 1.385 . S
C772 C770 1.478 . S
C772 C774 1.381 . S
C772 C778 1.383 . S
C773 C769 1.495 . S
C773 H779 0.959 . S
C773 H780 0.961 . S
C773 H781 0.960 . S
C774 C772 1.381 . S
C774 C775 1.394 . S
C774 H782 0.930 . S
C775 C774 1.394 . S
C775 C776 1.383 . S
C775 H783 0.929 . S
C776 C775 1.383 . S
C776 C777 1.377 . S
C777 H761 0.930 . S
C777 C776 1.377 . S
C777 C778 1.379 . S
C778 H762 0.931 . S
C778 C772 1.383 . S
C778 C777 1.379 . S
H779 C773 0.959 . S
H780 C773 0.961 . S
H781 C773 0.960 . S
H782 C774 0.930 . S
H783 C775 0.929 . S
H784 C792 0.929 . S
H785 C794 0.930 . S
H786 C796 0.930 . S
H787 C799 0.929 . S
H788 C802 0.930 . S
H789 C804 0.960 . S
H790 C804 0.960 . S
H791 C804 0.960 . S
C792 H784 0.929 . S
C792 C793 1.377 . S
C792 C794 1.384 . S
C793 C792 1.377 . S
C793 C799 1.390 . S
C794 H785 0.930 . S
C794 C792 1.384 . S
C794 C795 1.372 . S
C795 C794 1.372 . S
C795 C796 1.400 . S
C795 C800 1.490 . S
C796 H786 0.930 . S
C796 C795 1.400 . S
C796 C799 1.386 . S
H797 C813 0.930 . S
H798 C814 0.931 . S
C799 H787 0.929 . S
C799 C793 1.390 . S
C799 C796 1.386 . S
C800 C795 1.490 . S
C800 C802 1.395 . S
C800 C803 1.403 . S
H801 C807 0.930 . S
C802 H788 0.930 . S
C802 C800 1.395 . S
C802 C805 1.403 . S
C803 C800 1.403 . S
C803 C804 1.524 . S
C803 C807 1.400 . S
C804 H789 0.960 . S
C804 H790 0.960 . S
C804 H791 0.960 . S
C804 C803 1.524 . S
C805 C802 1.403 . S
C805 C806 1.392 . S
C805 C809 1.495 . S
C806 C805 1.392 . S
C806 C807 1.385 . S
C806 C808 1.478 . S
C807 H801 0.930 . S
C807 C803 1.400 . S
C807 C806 1.385 . S
C808 C806 1.478 . S
C808 C810 1.381 . S
C808 C814 1.383 . S
C809 C805 1.495 . S
C809 H815 0.959 . S
C809 H816 0.961 . S
C809 H817 0.960 . S
C810 C808 1.381 . S
C810 C811 1.394 . S
C810 H818 0.930 . S
C811 C810 1.394 . S
C811 C812 1.383 . S
C811 H819 0.929 . S
C812 C811 1.383 . S
C812 C813 1.377 . S
C813 H797 0.930 . S
C813 C812 1.377 . S
C813 C814 1.379 . S
C814 H798 0.931 . S
C814 C808 1.383 . S
C814 C813 1.379 . S
H815 C809 0.959 . S
H816 C809 0.961 . S
H817 C809 0.960 . S
H818 C810 0.930 . S
H819 C811 0.929 . S
H820 C828 0.929 . S
H821 C830 0.930 . S
H822 C832 0.930 . S
H823 C835 0.929 . S
H824 C838 0.930 . S
H825 C840 0.960 . S
H826 C840 0.960 . S
H827 C840 0.960 . S
C828 H820 0.929 . S
C828 C829 1.377 . S
C828 C830 1.384 . S
C829 C828 1.377 . S
C829 C835 1.390 . S
C830 H821 0.930 . S
C830 C828 1.384 . S
C830 C831 1.372 . S
C831 C830 1.372 . S
C831 C832 1.400 . S
C831 C836 1.490 . S
C832 H822 0.930 . S
C832 C831 1.400 . S
C832 C835 1.386 . S
H833 C849 0.930 . S
H834 C850 0.931 . S
C835 H823 0.929 . S
C835 C829 1.390 . S
C835 C832 1.386 . S
C836 C831 1.490 . S
C836 C838 1.395 . S
C836 C839 1.403 . S
H837 C843 0.930 . S
C838 H824 0.930 . S
C838 C836 1.395 . S
C838 C841 1.403 . S
C839 C836 1.403 . S
C839 C840 1.524 . S
C839 C843 1.400 . S
C840 H825 0.960 . S
C840 H826 0.960 . S
C840 H827 0.960 . S
C840 C839 1.524 . S
C841 C838 1.403 . S
C841 C842 1.392 . S
C841 C845 1.495 . S
C842 C841 1.392 . S
C842 C843 1.385 . S
C842 C844 1.478 . S
C843 H837 0.930 . S
C843 C839 1.400 . S
C843 C842 1.385 . S
C844 C842 1.478 . S
C844 C846 1.381 . S
C844 C850 1.383 . S
C845 C841 1.495 . S
C845 H851 0.959 . S
C845 H852 0.961 . S
C845 H853 0.960 . S
C846 C844 1.381 . S
C846 C847 1.394 . S
C846 H854 0.930 . S
C847 C846 1.394 . S
C847 C848 1.383 . S
C847 H855 0.929 . S
C848 C847 1.383 . S
C848 C849 1.377 . S
C849 H833 0.930 . S
C849 C848 1.377 . S
C849 C850 1.379 . S
C850 H834 0.931 . S
C850 C844 1.383 . S
C850 C849 1.379 . S
H851 C845 0.959 . S
H852 C845 0.961 . S
H853 C845 0.960 . S
H854 C846 0.930 . S
H855 C847 0.929 . S
H856 C864 0.929 . S
H857 C866 0.930 . S
H858 C868 0.930 . S
H859 C871 0.929 . S
H860 C874 0.930 . S
H861 C876 0.960 . S
H862 C876 0.960 . S
H863 C876 0.960 . S
C864 H856 0.929 . S
C864 C865 1.377 . S
C864 C866 1.384 . S
C865 C864 1.377 . S
C865 C871 1.390 . S
C866 H857 0.930 . S
C866 C864 1.384 . S
C866 C867 1.372 . S
C867 C866 1.372 . S
C867 C868 1.400 . S
C867 C872 1.490 . S
C868 H858 0.930 . S
C868 C867 1.400 . S
C868 C871 1.386 . S
H869 C885 0.930 . S
H870 C886 0.931 . S
C871 H859 0.929 . S
C871 C865 1.390 . S
C871 C868 1.386 . S
C872 C867 1.490 . S
C872 C874 1.395 . S
C872 C875 1.403 . S
H873 C879 0.930 . S
C874 H860 0.930 . S
C874 C872 1.395 . S
C874 C877 1.403 . S
C875 C872 1.403 . S
C875 C876 1.524 . S
C875 C879 1.400 . S
C876 H861 0.960 . S
C876 H862 0.960 . S
C876 H863 0.960 . S
C876 C875 1.524 . S
C877 C874 1.403 . S
C877 C878 1.392 . S
C877 C881 1.495 . S
C878 C877 1.392 . S
C878 C879 1.385 . S
C878 C880 1.478 . S
C879 H873 0.930 . S
C879 C875 1.400 . S
C879 C878 1.385 . S
C880 C878 1.478 . S
C880 C882 1.381 . S
C880 C886 1.383 . S
C881 C877 1.495 . S
C881 H887 0.959 . S
C881 H888 0.961 . S
C881 H889 0.960 . S
C882 C880 1.381 . S
C882 C883 1.394 . S
C882 H890 0.930 . S
C883 C882 1.394 . S
C883 C884 1.383 . S
C883 H891 0.929 . S
C884 C883 1.383 . S
C884 C885 1.377 . S
C885 H869 0.930 . S
C885 C884 1.377 . S
C885 C886 1.379 . S
C886 H870 0.931 . S
C886 C880 1.383 . S
C886 C885 1.379 . S
H887 C881 0.959 . S
H888 C881 0.961 . S
H889 C881 0.960 . S
H890 C882 0.930 . S
H891 C883 0.929 . S
H892 C900 0.929 . S
H893 C902 0.930 . S
H894 C904 0.930 . S
H895 C907 0.929 . S
H896 C910 0.930 . S
H897 C912 0.960 . S
H898 C912 0.960 . S
H899 C912 0.960 . S
C900 H892 0.929 . S
C900 C901 1.377 . S
C900 C902 1.384 . S
C901 C900 1.377 . S
C901 C907 1.390 . S
C902 H893 0.930 . S
C902 C900 1.384 . S
C902 C903 1.372 . S
C903 C902 1.372 . S
C903 C904 1.400 . S
C903 C908 1.490 . S
C904 H894 0.930 . S
C904 C903 1.400 . S
C904 C907 1.386 . S
H905 C921 0.930 . S
H906 C922 0.931 . S
C907 H895 0.929 . S
C907 C901 1.390 . S
C907 C904 1.386 . S
C908 C903 1.490 . S
C908 C910 1.395 . S
C908 C911 1.403 . S
H909 C915 0.930 . S
C910 H896 0.930 . S
C910 C908 1.395 . S
C910 C913 1.403 . S
C911 C908 1.403 . S
C911 C912 1.524 . S
C911 C915 1.400 . S
C912 H897 0.960 . S
C912 H898 0.960 . S
C912 H899 0.960 . S
C912 C911 1.524 . S
C913 C910 1.403 . S
C913 C914 1.392 . S
C913 C917 1.495 . S
C914 C913 1.392 . S
C914 C915 1.385 . S
C914 C916 1.478 . S
C915 H909 0.930 . S
C915 C911 1.400 . S
C915 C914 1.385 . S
C916 C914 1.478 . S
C916 C918 1.381 . S
C916 C922 1.383 . S
C917 C913 1.495 . S
C917 H923 0.959 . S
C917 H924 0.961 . S
C917 H925 0.960 . S
C918 C916 1.381 . S
C918 C919 1.394 . S
C918 H926 0.930 . S
C919 C918 1.394 . S
C919 C920 1.383 . S
C919 H927 0.929 . S
C920 C919 1.383 . S
C920 C921 1.377 . S
C921 H905 0.930 . S
C921 C920 1.377 . S
C921 C922 1.379 . S
C922 H906 0.931 . S
C922 C916 1.383 . S
C922 C921 1.379 . S
H923 C917 0.959 . S
H924 C917 0.961 . S
H925 C917 0.960 . S
H926 C918 0.930 . S
H927 C919 0.929 . S
H928 C936 0.929 . S
H929 C938 0.930 . S
H930 C940 0.930 . S
H931 C943 0.929 . S
H932 C946 0.930 . S
H933 C948 0.960 . S
H934 C948 0.960 . S
H935 C948 0.960 . S
C936 H928 0.929 . S
C936 C937 1.377 . S
C936 C938 1.384 . S
C937 C936 1.377 . S
C937 C943 1.390 . S
C938 H929 0.930 . S
C938 C936 1.384 . S
C938 C939 1.372 . S
C939 C938 1.372 . S
C939 C940 1.400 . S
C939 C944 1.490 . S
C940 H930 0.930 . S
C940 C939 1.400 . S
C940 C943 1.386 . S
H941 C957 0.930 . S
H942 C958 0.931 . S
C943 H931 0.929 . S
C943 C937 1.390 . S
C943 C940 1.386 . S
C944 C939 1.490 . S
C944 C946 1.395 . S
C944 C947 1.403 . S
H945 C951 0.930 . S
C946 H932 0.930 . S
C946 C944 1.395 . S
C946 C949 1.403 . S
C947 C944 1.403 . S
C947 C948 1.524 . S
C947 C951 1.400 . S
C948 H933 0.960 . S
C948 H934 0.960 . S
C948 H935 0.960 . S
C948 C947 1.524 . S
C949 C946 1.403 . S
C949 C950 1.392 . S
C949 C953 1.495 . S
C950 C949 1.392 . S
C950 C951 1.385 . S
C950 C952 1.478 . S
C951 H945 0.930 . S
C951 C947 1.400 . S
C951 C950 1.385 . S
C952 C950 1.478 . S
C952 C954 1.381 . S
C952 C958 1.383 . S
C953 C949 1.495 . S
C953 H959 0.959 . S
C953 H960 0.961 . S
C953 H961 0.960 . S
C954 C952 1.381 . S
C954 C955 1.394 . S
C954 H962 0.930 . S
C955 C954 1.394 . S
C955 C956 1.383 . S
C955 H963 0.929 . S
C956 C955 1.383 . S
C956 C957 1.377 . S
C957 H941 0.930 . S
C957 C956 1.377 . S
C957 C958 1.379 . S
C958 H942 0.931 . S
C958 C952 1.383 . S
C958 C957 1.379 . S
H959 C953 0.959 . S
H960 C953 0.961 . S
H961 C953 0.960 . S
H962 C954 0.930 . S
H963 C955 0.929 . S
H964 C972 0.929 . S
H965 C974 0.930 . S
H966 C976 0.930 . S
H967 C979 0.929 . S
H968 C982 0.930 . S
H969 C984 0.960 . S
H970 C984 0.960 . S
H971 C984 0.960 . S
C972 H964 0.929 . S
C972 C973 1.377 . S
C972 C974 1.384 . S
C973 C972 1.377 . S
C973 C979 1.390 . S
C974 H965 0.930 . S
C974 C972 1.384 . S
C974 C975 1.372 . S
C975 C974 1.372 . S
C975 C976 1.400 . S
C975 C980 1.490 . S
C976 H966 0.930 . S
C976 C975 1.400 . S
C976 C979 1.386 . S
H977 C993 0.930 . S
H978 C994 0.931 . S
C979 H967 0.929 . S
C979 C973 1.390 . S
C979 C976 1.386 . S
C980 C975 1.490 . S
C980 C982 1.395 . S
C980 C983 1.403 . S
H981 C987 0.930 . S
C982 H968 0.930 . S
C982 C980 1.395 . S
C982 C985 1.403 . S
C983 C980 1.403 . S
C983 C984 1.524 . S
C983 C987 1.400 . S
C984 H969 0.960 . S
C984 H970 0.960 . S
C984 H971 0.960 . S
C984 C983 1.524 . S
C985 C982 1.403 . S
C985 C986 1.392 . S
C985 C989 1.495 . S
C986 C985 1.392 . S
C986 C987 1.385 . S
C986 C988 1.478 . S
C987 H981 0.930 . S
C987 C983 1.400 . S
C987 C986 1.385 . S
C988 C986 1.478 . S
C988 C990 1.381 . S
C988 C994 1.383 . S
C989 C985 1.495 . S
C989 H995 0.959 . S
C989 H996 0.961 . S
C989 H997 0.960 . S
C990 C988 1.381 . S
C990 C991 1.394 . S
C990 H998 0.930 . S
C991 C990 1.394 . S
C991 C992 1.383 . S
C991 H999 0.929 . S
C992 C991 1.383 . S
C992 C993 1.377 . S
C993 H977 0.930 . S
C993 C992 1.377 . S
C993 C994 1.379 . S
C994 H978 0.931 . S
C994 C988 1.383 . S
C994 C993 1.379 . S
H995 C989 0.959 . S
H996 C989 0.961 . S
H997 C989 0.960 . S
H998 C990 0.930 . S
H999 C991 0.929 . S
H1000 C1008 0.929 . S
H1001 C1010 0.930 . S
H1002 C1012 0.930 . S
H1003 C1015 0.929 . S
H1004 C1018 0.930 . S
H1005 C1020 0.960 . S
H1006 C1020 0.960 . S
H1007 C1020 0.960 . S
C1008 H1000 0.929 . S
C1008 C1009 1.377 . S
C1008 C1010 1.384 . S
C1009 C1008 1.377 . S
C1009 C1015 1.390 . S
C1010 H1001 0.930 . S
C1010 C1008 1.384 . S
C1010 C1011 1.372 . S
C1011 C1010 1.372 . S
C1011 C1012 1.400 . S
C1011 C1016 1.490 . S
C1012 H1002 0.930 . S
C1012 C1011 1.400 . S
C1012 C1015 1.386 . S
H1013 C1029 0.930 . S
H1014 C1030 0.931 . S
C1015 H1003 0.929 . S
C1015 C1009 1.390 . S
C1015 C1012 1.386 . S
C1016 C1011 1.490 . S
C1016 C1018 1.395 . S
C1016 C1019 1.403 . S
H1017 C1023 0.930 . S
C1018 H1004 0.930 . S
C1018 C1016 1.395 . S
C1018 C1021 1.403 . S
C1019 C1016 1.403 . S
C1019 C1020 1.524 . S
C1019 C1023 1.400 . S
C1020 H1005 0.960 . S
C1020 H1006 0.960 . S
C1020 H1007 0.960 . S
C1020 C1019 1.524 . S
C1021 C1018 1.403 . S
C1021 C1022 1.392 . S
C1021 C1025 1.495 . S
C1022 C1021 1.392 . S
C1022 C1023 1.385 . S
C1022 C1024 1.478 . S
C1023 H1017 0.930 . S
C1023 C1019 1.400 . S
C1023 C1022 1.385 . S
C1024 C1022 1.478 . S
C1024 C1026 1.381 . S
C1024 C1030 1.383 . S
C1025 C1021 1.495 . S
C1025 H1031 0.959 . S
C1025 H1032 0.961 . S
C1025 H1033 0.960 . S
C1026 C1024 1.381 . S
C1026 C1027 1.394 . S
C1026 H1034 0.930 . S
C1027 C1026 1.394 . S
C1027 C1028 1.383 . S
C1027 H1035 0.929 . S
C1028 C1027 1.383 . S
C1028 C1029 1.377 . S
C1029 H1013 0.930 . S
C1029 C1028 1.377 . S
C1029 C1030 1.379 . S
C1030 H1014 0.931 . S
C1030 C1024 1.383 . S
C1030 C1029 1.379 . S
H1031 C1025 0.959 . S
H1032 C1025 0.961 . S
H1033 C1025 0.960 . S
H1034 C1026 0.930 . S
H1035 C1027 0.929 . S
H1036 C1044 0.929 . S
H1037 C1046 0.930 . S
H1038 C1048 0.930 . S
H1039 C1051 0.929 . S
H1040 C1054 0.930 . S
H1041 C1056 0.960 . S
H1042 C1056 0.960 . S
H1043 C1056 0.960 . S
C1044 H1036 0.929 . S
C1044 C1045 1.377 . S
C1044 C1046 1.384 . S
C1045 C1044 1.377 . S
C1045 C1051 1.390 . S
C1046 H1037 0.930 . S
C1046 C1044 1.384 . S
C1046 C1047 1.372 . S
C1047 C1046 1.372 . S
C1047 C1048 1.400 . S
C1047 C1052 1.490 . S
C1048 H1038 0.930 . S
C1048 C1047 1.400 . S
C1048 C1051 1.386 . S
H1049 C1065 0.930 . S
H1050 C1066 0.931 . S
C1051 H1039 0.929 . S
C1051 C1045 1.390 . S
C1051 C1048 1.386 . S
C1052 C1047 1.490 . S
C1052 C1054 1.395 . S
C1052 C1055 1.403 . S
H1053 C1059 0.930 . S
C1054 H1040 0.930 . S
C1054 C1052 1.395 . S
C1054 C1057 1.403 . S
C1055 C1052 1.403 . S
C1055 C1056 1.524 . S
C1055 C1059 1.400 . S
C1056 H1041 0.960 . S
C1056 H1042 0.960 . S
C1056 H1043 0.960 . S
C1056 C1055 1.524 . S
C1057 C1054 1.403 . S
C1057 C1058 1.392 . S
C1057 C1061 1.495 . S
C1058 C1057 1.392 . S
C1058 C1059 1.385 . S
C1058 C1060 1.478 . S
C1059 H1053 0.930 . S
C1059 C1055 1.400 . S
C1059 C1058 1.385 . S
C1060 C1058 1.478 . S
C1060 C1062 1.381 . S
C1060 C1066 1.383 . S
C1061 C1057 1.495 . S
C1061 H1067 0.959 . S
C1061 H1068 0.961 . S
C1061 H1069 0.960 . S
C1062 C1060 1.381 . S
C1062 C1063 1.394 . S
C1062 H1070 0.930 . S
C1063 C1062 1.394 . S
C1063 C1064 1.383 . S
C1063 H1071 0.929 . S
C1064 C1063 1.383 . S
C1064 C1065 1.377 . S
C1065 H1049 0.930 . S
C1065 C1064 1.377 . S
C1065 C1066 1.379 . S
C1066 H1050 0.931 . S
C1066 C1060 1.383 . S
C1066 C1065 1.379 . S
H1067 C1061 0.959 . S
H1068 C1061 0.961 . S
H1069 C1061 0.960 . S
H1070 C1062 0.930 . S
H1071 C1063 0.929 . S
H1072 C1080 0.929 . S
H1073 C1082 0.930 . S
H1074 C1084 0.930 . S
H1075 C1087 0.929 . S
H1076 C1090 0.930 . S
H1077 C1092 0.960 . S
H1078 C1092 0.960 . S
H1079 C1092 0.960 . S
C1080 H1072 0.929 . S
C1080 C1081 1.377 . S
C1080 C1082 1.384 . S
C1081 C1080 1.377 . S
C1081 C1087 1.390 1_455 S
C1082 H1073 0.930 . S
C1082 C1080 1.384 . S
C1082 C1083 1.372 . S
C1083 C1082 1.372 . S
C1083 C1084 1.400 1_455 S
C1083 C1088 1.490 . S
C1084 H1074 0.930 . S
C1084 C1083 1.400 1_655 S
C1084 C1087 1.386 . S
H1085 C1101 0.930 . S
H1086 C1102 0.931 . S
C1087 H1075 0.929 . S
C1087 C1081 1.390 1_655 S
C1087 C1084 1.386 . S
C1088 C1083 1.490 . S
C1088 C1090 1.395 1_455 S
C1088 C1091 1.403 . S
H1089 C1095 0.930 . S
C1090 H1076 0.930 . S
C1090 C1088 1.395 1_655 S
C1090 C1093 1.403 . S
C1091 C1088 1.403 . S
C1091 C1092 1.524 . S
C1091 C1095 1.400 . S
C1092 H1077 0.960 . S
C1092 H1078 0.960 . S
C1092 H1079 0.960 . S
C1092 C1091 1.524 . S
C1093 C1090 1.403 . S
C1093 C1094 1.392 . S
C1093 C1097 1.495 . S
C1094 C1093 1.392 . S
C1094 C1095 1.385 1_655 S
C1094 C1096 1.478 . S
C1095 H1089 0.930 . S
C1095 C1091 1.400 . S
C1095 C1094 1.385 1_455 S
C1096 C1094 1.478 . S
C1096 C1098 1.381 1_655 S
C1096 C1102 1.383 . S
C1097 C1093 1.495 . S
C1097 H1103 0.959 . S
C1097 H1104 0.961 . S
C1097 H1105 0.960 . S
C1098 C1096 1.381 1_455 S
C1098 C1099 1.394 . S
C1098 H1106 0.930 . S
C1099 C1098 1.394 . S
C1099 C1100 1.383 1_455 S
C1099 H1107 0.929 . S
C1100 C1099 1.383 1_655 S
C1100 C1101 1.377 . S
C1101 H1085 0.930 . S
C1101 C1100 1.377 . S
C1101 C1102 1.379 . S
C1102 H1086 0.931 . S
C1102 C1096 1.383 . S
C1102 C1101 1.379 . S
H1103 C1097 0.959 . S
H1104 C1097 0.961 . S
H1105 C1097 0.960 . S
H1106 C1098 0.930 . S
H1107 C1099 0.929 . S
H1108 C1116 0.929 . S
H1109 C1118 0.930 . S
H1110 C1120 0.930 . S
H1111 C1123 0.929 . S
H1112 C1126 0.930 . S
H1113 C1128 0.960 . S
H1114 C1128 0.960 . S
H1115 C1128 0.960 . S
C1116 H1108 0.929 . S
C1116 C1117 1.377 1_545 S
C1116 C1118 1.384 . S
C1117 C1116 1.377 1_565 S
C1117 C1123 1.390 . S
C1118 H1109 0.930 . S
C1118 C1116 1.384 . S
C1118 C1119 1.372 1_545 S
C1119 C1118 1.372 1_565 S
C1119 C1120 1.400 . S
C1119 C1124 1.490 . S
C1120 H1110 0.930 . S
C1120 C1119 1.400 . S
C1120 C1123 1.386 . S
H1121 C1137 0.930 . S
H1122 C1138 0.931 . S
C1123 H1111 0.929 . S
C1123 C1117 1.390 . S
C1123 C1120 1.386 . S
C1124 C1119 1.490 . S
C1124 C1126 1.395 . S
C1124 C1127 1.403 1_565 S
H1125 C1131 0.930 . S
C1126 H1112 0.930 . S
C1126 C1124 1.395 . S
C1126 C1129 1.403 . S
C1127 C1124 1.403 1_545 S
C1127 C1128 1.524 . S
C1127 C1131 1.400 . S
C1128 H1113 0.960 . S
C1128 H1114 0.960 . S
C1128 H1115 0.960 . S
C1128 C1127 1.524 . S
C1129 C1126 1.403 . S
C1129 C1130 1.381 1_565 S
C1129 C1133 1.495 . S
C1130 C1129 1.381 1_545 S
C1130 C1131 1.396 . S
C1130 C1132 1.480 . S
C1131 H1125 0.930 . S
C1131 C1127 1.400 . S
C1131 C1130 1.396 . S
C1132 C1130 1.480 . S
C1132 C1134 1.381 . S
C1132 C1138 1.383 1_545 S
C1133 C1129 1.495 . S
C1133 H1139 0.959 . S
C1133 H1140 0.961 . S
C1133 H1141 0.960 . S
C1134 C1132 1.381 . S
C1134 C1135 1.394 . S
C1134 H1142 0.930 . S
C1135 C1134 1.394 . S
C1135 C1136 1.383 . S
C1135 H1143 0.929 . S
C1136 C1135 1.383 . S
C1136 C1137 1.377 1_545 S
C1137 H1121 0.930 . S
C1137 C1136 1.377 1_565 S
C1137 C1138 1.379 . S
C1138 H1122 0.931 . S
C1138 C1132 1.383 1_565 S
C1138 C1137 1.379 . S
H1139 C1133 0.959 . S
H1140 C1133 0.961 . S
H1141 C1133 0.960 . S
H1142 C1134 0.930 . S
H1143 C1135 0.929 . S
H1144 C1152 0.929 . S
H1145 C1154 0.930 . S
H1146 C1156 0.930 . S
H1147 C1159 0.929 . S
H1148 C1162 0.930 . S
H1149 C1164 0.960 . S
H1150 C1164 0.960 1_455 S
H1151 C1164 0.960 . S
C1152 H1144 0.929 . S
C1152 C1153 1.377 . S
C1152 C1154 1.384 . S
C1153 C1152 1.377 . S
C1153 C1159 1.390 1_455 S
C1154 H1145 0.930 . S
C1154 C1152 1.384 . S
C1154 C1155 1.372 . S
C1155 C1154 1.372 . S
C1155 C1156 1.400 1_455 S
C1155 C1160 1.490 . S
C1156 H1146 0.930 . S
C1156 C1155 1.400 1_655 S
C1156 C1159 1.386 . S
H1157 C1173 0.930 . S
H1158 C1174 0.931 . S
C1159 H1147 0.929 . S
C1159 C1153 1.390 1_655 S
C1159 C1156 1.386 . S
C1160 C1155 1.490 . S
C1160 C1162 1.395 . S
C1160 C1163 1.403 1_455 S
H1161 C1167 0.930 . S
C1162 H1148 0.930 . S
C1162 C1160 1.395 . S
C1162 C1165 1.403 . S
C1163 C1160 1.403 1_655 S
C1163 C1164 1.524 . S
C1163 C1167 1.400 . S
C1164 H1149 0.960 . S
C1164 H1150 0.960 1_655 S
C1164 H1151 0.960 . S
C1164 C1163 1.524 . S
C1165 C1162 1.403 . S
C1165 C1166 1.394 . S
C1165 C1169 1.495 . S
C1166 C1165 1.394 . S
C1166 C1167 1.384 1_455 S
C1166 C1168 1.477 1_455 S
C1167 H1161 0.930 . S
C1167 C1163 1.400 . S
C1167 C1166 1.384 1_655 S
C1168 C1166 1.477 1_655 S
C1168 C1170 1.381 1_655 S
C1168 C1174 1.383 . S
C1169 C1165 1.495 . S
C1169 H1175 0.959 . S
C1169 H1176 0.943 1_455 S
C1169 H1177 0.960 . S
C1170 C1168 1.381 1_455 S
C1170 C1171 1.394 . S
C1170 H1178 0.930 . S
C1171 C1170 1.394 . S
C1171 C1172 1.383 1_455 S
C1171 H1179 0.929 . S
C1172 C1171 1.383 1_655 S
C1172 C1173 1.377 . S
C1173 H1157 0.930 . S
C1173 C1172 1.377 . S
C1173 C1174 1.379 . S
C1174 H1158 0.931 . S
C1174 C1168 1.383 . S
C1174 C1173 1.379 . S
H1175 C1169 0.959 . S
H1176 C1169 0.943 1_655 S
H1177 C1169 0.960 . S
H1178 C1170 0.930 . S
H1179 C1171 0.929 . S
H1180 C1188 0.929 . S
H1181 C1190 0.934 . S
H1182 C1192 0.930 . S
H1183 C1195 0.929 . S
H1184 C1198 0.930 . S
H1185 C1200 0.960 . S
H1186 C1200 0.960 . S
H1187 C1200 0.960 . S
C1188 H1180 0.929 . S
C1188 C1189 1.377 . S
C1188 C1190 1.384 . S
C1189 C1188 1.377 . S
C1189 C1195 1.390 . S
C1190 H1181 0.934 . S
C1190 C1188 1.384 . S
C1190 C1191 1.372 . S
C1191 C1190 1.372 . S
C1191 C1192 1.400 . S
C1191 C1196 1.490 . S
C1192 H1182 0.930 . S
C1192 C1191 1.400 . S
C1192 C1195 1.386 . S
H1193 C1209 0.930 1_545 S
H1194 C1210 0.931 . S
C1195 H1183 0.929 . S
C1195 C1189 1.390 . S
C1195 C1192 1.386 . S
C1196 C1191 1.490 . S
C1196 C1198 1.395 . S
C1196 C1199 1.403 1_545 S
H1197 C1203 0.930 . S
C1198 H1184 0.930 . S
C1198 C1196 1.395 . S
C1198 C1201 1.403 . S
C1199 C1196 1.403 1_565 S
C1199 C1200 1.524 . S
C1199 C1203 1.400 . S
C1200 H1185 0.960 . S
C1200 H1186 0.960 . S
C1200 H1187 0.960 . S
C1200 C1199 1.524 . S
C1201 C1198 1.403 . S
C1201 C1202 1.392 . S
C1201 C1205 1.495 . S
C1202 C1201 1.392 . S
C1202 C1203 1.385 1_545 S
C1202 C1204 1.478 . S
C1203 H1197 0.930 . S
C1203 C1199 1.400 . S
C1203 C1202 1.385 1_565 S
C1204 C1202 1.478 . S
C1204 C1206 1.380 1_545 S
C1204 C1210 1.383 . S
C1205 C1201 1.495 . S
C1205 H1211 0.959 . S
C1205 H1212 0.961 . S
C1205 H1213 0.960 . S
C1206 C1204 1.380 1_565 S
C1206 C1207 1.394 . S
C1206 H1214 0.930 . S
C1207 C1206 1.394 . S
C1207 C1208 1.383 . S
C1207 H1215 0.929 . S
C1208 C1207 1.383 . S
C1208 C1209 1.377 . S
C1209 H1193 0.930 1_565 S
C1209 C1208 1.377 . S
C1209 C1210 1.380 1_565 S
C1210 H1194 0.931 . S
C1210 C1204 1.383 . S
C1210 C1209 1.380 1_545 S
H1211 C1205 0.959 . S
H1212 C1205 0.961 . S
H1213 C1205 0.960 . S
H1214 C1206 0.930 . S
H1215 C1207 0.929 . S
H1216 C1224 0.929 . S
H1217 C1226 0.930 . S
H1218 C1228 0.930 . S
H1219 C1231 0.929 . S
H1220 C1234 0.930 . S
H1221 C1236 0.960 . S
H1222 C1236 0.960 . S
H1223 C1236 0.960 . S
C1224 H1216 0.929 . S
C1224 C1225 1.377 . S
C1224 C1226 1.384 . S
C1225 C1224 1.377 . S
C1225 C1231 1.390 . S
C1226 H1217 0.930 . S
C1226 C1224 1.384 . S
C1226 C1227 1.372 . S
C1227 C1226 1.372 . S
C1227 C1228 1.400 . S
C1227 C1232 1.490 . S
C1228 H1218 0.930 . S
C1228 C1227 1.400 . S
C1228 C1231 1.386 . S
H1229 C1245 0.930 . S
H1230 C1246 0.931 . S
C1231 H1219 0.929 . S
C1231 C1225 1.390 . S
C1231 C1228 1.386 . S
C1232 C1227 1.490 . S
C1232 C1234 1.395 . S
C1232 C1235 1.403 . S
H1233 C1239 0.930 . S
C1234 H1220 0.930 . S
C1234 C1232 1.395 . S
C1234 C1237 1.403 1_556 S
C1235 C1232 1.403 . S
C1235 C1236 1.524 . S
C1235 C1239 1.400 1_556 S
C1236 H1221 0.960 . S
C1236 H1222 0.960 . S
C1236 H1223 0.960 . S
C1236 C1235 1.524 . S
C1237 C1234 1.403 1_554 S
C1237 C1238 1.392 . S
C1237 C1241 1.495 . S
C1238 C1237 1.392 . S
C1238 C1239 1.385 . S
C1238 C1240 1.478 . S
C1239 H1233 0.930 . S
C1239 C1235 1.400 1_554 S
C1239 C1238 1.385 . S
C1240 C1238 1.478 . S
C1240 C1242 1.381 . S
C1240 C1246 1.383 . S
C1241 C1237 1.495 . S
C1241 H1247 0.959 . S
C1241 H1248 0.961 . S
C1241 H1249 0.960 . S
C1242 C1240 1.381 . S
C1242 C1243 1.394 . S
C1242 H1250 0.930 . S
C1243 C1242 1.394 . S
C1243 C1244 1.383 . S
C1243 H1251 0.929 . S
C1244 C1243 1.383 . S
C1244 C1245 1.377 . S
C1245 H1229 0.930 . S
C1245 C1244 1.377 . S
C1245 C1246 1.379 . S
C1246 H1230 0.931 . S
C1246 C1240 1.383 . S
C1246 C1245 1.379 . S
H1247 C1241 0.959 . S
H1248 C1241 0.961 . S
H1249 C1241 0.960 . S
H1250 C1242 0.930 . S
H1251 C1243 0.929 . S
H1252 C1260 0.929 . S
H1253 C1262 0.930 . S
H1254 C1264 0.930 . S
H1255 C1267 0.929 . S
H1256 C1270 0.930 . S
H1257 C1272 0.960 . S
H1258 C1272 0.960 . S
H1259 C1272 0.960 . S
C1260 H1252 0.929 . S
C1260 C1261 1.377 . S
C1260 C1262 1.384 . S
C1261 C1260 1.377 . S
C1261 C1267 1.390 . S
C1262 H1253 0.930 . S
C1262 C1260 1.384 . S
C1262 C1263 1.372 . S
C1263 C1262 1.372 . S
C1263 C1264 1.400 . S
C1263 C1268 1.490 . S
C1264 H1254 0.930 . S
C1264 C1263 1.400 . S
C1264 C1267 1.386 . S
H1265 C1281 0.930 . S
H1266 C1282 0.931 . S
C1267 H1255 0.929 . S
C1267 C1261 1.390 . S
C1267 C1264 1.386 . S
C1268 C1263 1.490 . S
C1268 C1270 1.395 . S
C1268 C1271 1.403 . S
H1269 C1275 0.930 . S
C1270 H1256 0.930 . S
C1270 C1268 1.395 . S
C1270 C1273 1.403 1_556 S
C1271 C1268 1.403 . S
C1271 C1272 1.524 . S
C1271 C1275 1.400 1_556 S
C1272 H1257 0.960 . S
C1272 H1258 0.960 . S
C1272 H1259 0.960 . S
C1272 C1271 1.524 . S
C1273 C1270 1.403 1_554 S
C1273 C1274 1.392 . S
C1273 C1277 1.495 . S
C1274 C1273 1.392 . S
C1274 C1275 1.385 . S
C1274 C1276 1.478 . S
C1275 H1269 0.930 . S
C1275 C1271 1.400 1_554 S
C1275 C1274 1.385 . S
C1276 C1274 1.478 . S
C1276 C1278 1.381 . S
C1276 C1282 1.383 . S
C1277 C1273 1.495 . S
C1277 H1283 0.959 . S
C1277 H1284 0.961 . S
C1277 H1285 0.960 . S
C1278 C1276 1.381 . S
C1278 C1279 1.394 . S
C1278 H1286 0.930 . S
C1279 C1278 1.394 . S
C1279 C1280 1.383 . S
C1279 H1287 0.929 . S
C1280 C1279 1.383 . S
C1280 C1281 1.377 . S
C1281 H1265 0.930 . S
C1281 C1280 1.377 . S
C1281 C1282 1.379 . S
C1282 H1266 0.931 . S
C1282 C1276 1.383 . S
C1282 C1281 1.379 . S
H1283 C1277 0.959 . S
H1284 C1277 0.961 . S
H1285 C1277 0.960 . S
H1286 C1278 0.930 . S
H1287 C1279 0.929 . S
H1288 C1296 0.929 . S
H1289 C1298 0.930 . S
H1290 C1300 0.930 . S
H1291 C1303 0.929 . S
H1292 C1306 0.930 . S
H1293 C1308 0.960 . S
H1294 C1308 0.960 . S
H1295 C1308 0.960 . S
C1296 H1288 0.929 . S
C1296 C1297 1.377 . S
C1296 C1298 1.384 . S
C1297 C1296 1.377 . S
C1297 C1303 1.390 . S
C1298 H1289 0.930 . S
C1298 C1296 1.384 . S
C1298 C1299 1.372 . S
C1299 C1298 1.372 . S
C1299 C1300 1.400 . S
C1299 C1304 1.490 . S
C1300 H1290 0.930 . S
C1300 C1299 1.400 . S
C1300 C1303 1.386 . S
H1301 C1317 0.930 . S
H1302 C1318 0.931 . S
C1303 H1291 0.929 . S
C1303 C1297 1.390 . S
C1303 C1300 1.386 . S
C1304 C1299 1.490 . S
C1304 C1306 1.395 . S
C1304 C1307 1.403 . S
H1305 C1311 0.930 . S
C1306 H1292 0.930 . S
C1306 C1304 1.395 . S
C1306 C1309 1.403 1_554 S
C1307 C1304 1.403 . S
C1307 C1308 1.524 . S
C1307 C1311 1.400 1_554 S
C1308 H1293 0.960 . S
C1308 H1294 0.960 . S
C1308 H1295 0.960 . S
C1308 C1307 1.524 . S
C1309 C1306 1.403 1_556 S
C1309 C1310 1.392 . S
C1309 C1313 1.495 . S
C1310 C1309 1.392 . S
C1310 C1311 1.385 . S
C1310 C1312 1.478 . S
C1311 H1305 0.930 . S
C1311 C1307 1.400 1_556 S
C1311 C1310 1.385 . S
C1312 C1310 1.478 . S
C1312 C1314 1.381 . S
C1312 C1318 1.383 . S
C1313 C1309 1.495 . S
C1313 H1319 0.959 . S
C1313 H1320 0.961 . S
C1313 H1321 0.960 . S
C1314 C1312 1.381 . S
C1314 C1315 1.394 . S
C1314 H1322 0.930 . S
C1315 C1314 1.394 . S
C1315 C1316 1.383 . S
C1315 H1323 0.929 . S
C1316 C1315 1.383 . S
C1316 C1317 1.377 . S
C1317 H1301 0.930 . S
C1317 C1316 1.377 . S
C1317 C1318 1.379 . S
C1318 H1302 0.931 . S
C1318 C1312 1.383 . S
C1318 C1317 1.379 . S
H1319 C1313 0.959 . S
H1320 C1313 0.961 . S
H1321 C1313 0.960 . S
H1322 C1314 0.930 . S
H1323 C1315 0.929 . S
H1324 C1332 0.929 . S
H1325 C1334 0.930 . S
H1326 C1336 0.930 . S
H1327 C1339 0.929 . S
H1328 C1342 0.930 . S
H1329 C1344 0.960 . S
H1330 C1344 0.960 . S
H1331 C1344 0.960 . S
C1332 H1324 0.929 . S
C1332 C1333 1.377 . S
C1332 C1334 1.384 . S
C1333 C1332 1.377 . S
C1333 C1339 1.390 . S
C1334 H1325 0.930 . S
C1334 C1332 1.384 . S
C1334 C1335 1.372 . S
C1335 C1334 1.372 . S
C1335 C1336 1.400 . S
C1335 C1340 1.490 . S
C1336 H1326 0.930 . S
C1336 C1335 1.400 . S
C1336 C1339 1.386 . S
H1337 C1353 0.930 . S
H1338 C1354 0.931 . S
C1339 H1327 0.929 . S
C1339 C1333 1.390 . S
C1339 C1336 1.386 . S
C1340 C1335 1.490 . S
C1340 C1342 1.395 . S
C1340 C1343 1.403 . S
H1341 C1347 0.930 . S
C1342 H1328 0.930 . S
C1342 C1340 1.395 . S
C1342 C1345 1.403 1_556 S
C1343 C1340 1.403 . S
C1343 C1344 1.524 . S
C1343 C1347 1.400 1_556 S
C1344 H1329 0.960 . S
C1344 H1330 0.960 . S
C1344 H1331 0.960 . S
C1344 C1343 1.524 . S
C1345 C1342 1.403 1_554 S
C1345 C1346 1.392 . S
C1345 C1349 1.495 . S
C1346 C1345 1.392 . S
C1346 C1347 1.385 . S
C1346 C1348 1.478 . S
C1347 H1341 0.930 . S
C1347 C1343 1.400 1_554 S
C1347 C1346 1.385 . S
C1348 C1346 1.478 . S
C1348 C1350 1.381 . S
C1348 C1354 1.383 . S
C1349 C1345 1.495 . S
C1349 H1355 0.959 . S
C1349 H1356 0.961 . S
C1349 H1357 0.960 . S
C1350 C1348 1.381 . S
C1350 C1351 1.394 . S
C1350 H1358 0.930 . S
C1351 C1350 1.394 . S
C1351 C1352 1.383 . S
C1351 H1359 0.929 . S
C1352 C1351 1.383 . S
C1352 C1353 1.377 . S
C1353 H1337 0.930 . S
C1353 C1352 1.377 . S
C1353 C1354 1.379 . S
C1354 H1338 0.931 . S
C1354 C1348 1.383 . S
C1354 C1353 1.379 . S
H1355 C1349 0.959 . S
H1356 C1349 0.961 . S
H1357 C1349 0.960 . S
H1358 C1350 0.930 . S
H1359 C1351 0.929 . S
C217 C8 1.329 . S
C236 C44 1.270 . S
C253 C5 1.254 . S
C272 C21 1.348 . S
C289 C18 1.254 . S
C308 C34 1.347 . S
C325 C31 1.254 . S
C344 C47 1.347 . S
C361 C60 1.332 . S
C380 C70 1.243 . S
C397 C73 1.331 . S
C416 C83 1.248 . S
C433 C86 1.334 . S
C452 C96 1.219 . S
C469 C99 1.326 . S
C488 C57 1.299 . S
C505 C112 1.334 . S
C524 C148 1.223 . S
C541 C109 1.264 . S
C560 C125 1.322 . S
C577 C122 1.255 . S
C596 C138 1.345 . S
C613 C151 1.330 . S
C632 C135 1.262 . S
C649 C174 1.268 . S
C668 C164 1.313 . S
C685 C187 1.254 . S
C704 C177 1.348 . S
C721 C190 1.331 . S
C740 C200 1.251 . S
C757 C203 1.329 . S
C776 C161 1.268 . S
C793 C0 0.852 . S
C812 C195 0.837 . S
C829 C13 0.852 . S
C848 C156 0.836 . S
C865 C169 0.858 . S
C884 C26 0.871 . S
C901 C39 0.855 . S
C920 C182 0.859 . S
C937 C117 0.857 . S
C956 C52 0.867 . S
C973 C130 0.863 . S
C992 C65 0.892 . S
C1009 C78 0.864 . S
C1028 C143 0.868 . S
C1045 C91 0.851 . S
C1064 C104 0.827 . S
C1081 C10 1.345 . S
C1100 C88 1.364 . S
C1117 C101 1.351 . S
C1136 C23 1.329 . S
C1153 C62 1.343 . S
C1172 C36 1.373 . S
C1189 C75 1.348 . S
C1208 C49 1.344 . S
C1225 C114 1.353 . S
C1244 C192 1.319 . S
C1261 C127 1.354 . S
C1280 C205 1.317 . S
C1297 C166 1.342 . S
C1316 C140 1.373 . S
C1333 C153 1.344 . S
C1352 C179 1.361 . S
