# Generated by pormake.
# Topology crs, (6)-cn, num edge types: 1
# Building blocks:
#     Node 0, Type 0, BuildingBlock: BETDIP_clean_sbu_0, # of connection points: 6
#     Node 1, Type 0, BuildingBlock: BETDIP_clean_sbu_0, # of connection points: 6
#     Node 2, Type 0, BuildingBlock: BETDIP_clean_sbu_0, # of connection points: 6
#     Node 3, Type 0, BuildingBlock: BETDIP_clean_sbu_0, # of connection points: 6
#     Node 4, Type 0, BuildingBlock: BETDIP_clean_sbu_0, # of connection points: 6
#     Node 5, Type 0, BuildingBlock: BETDIP_clean_sbu_0, # of connection points: 6
#     Node 6, Type 0, BuildingBlock: BETDIP_clean_sbu_0, # of connection points: 6
#     Node 7, Type 0, BuildingBlock: BETDIP_clean_sbu_0, # of connection points: 6
#     Node 8, Type 0, BuildingBlock: BETDIP_clean_sbu_0, # of connection points: 6
#     Node 9, Type 0, BuildingBlock: BETDIP_clean_sbu_0, # of connection points: 6
#     Node 10, Type 0, BuildingBlock: BETDIP_clean_sbu_0, # of connection points: 6
#     Node 11, Type 0, BuildingBlock: BETDIP_clean_sbu_0, # of connection points: 6
#     Node 12, Type 0, BuildingBlock: BETDIP_clean_sbu_0, # of connection points: 6
#     Node 13, Type 0, BuildingBlock: BETDIP_clean_sbu_0, # of connection points: 6
#     Node 14, Type 0, BuildingBlock: BETDIP_clean_sbu_0, # of connection points: 6
#     Node 15, Type 0, BuildingBlock: BETDIP_clean_sbu_0, # of connection points: 6
#     Edge 16, Type (0, 0), BuildingBlock: MIFKUJ_clean_linker_0, # of connection points: 2
#     Edge 17, Type (0, 0), BuildingBlock: MIFKUJ_clean_linker_0, # of connection points: 2
#     Edge 18, Type (0, 0), BuildingBlock: MIFKUJ_clean_linker_0, # of connection points: 2
#     Edge 19, Type (0, 0), BuildingBlock: MIFKUJ_clean_linker_0, # of connection points: 2
#     Edge 20, Type (0, 0), BuildingBlock: MIFKUJ_clean_linker_0, # of connection points: 2
#     Edge 21, Type (0, 0), BuildingBlock: MIFKUJ_clean_linker_0, # of connection points: 2
#     Edge 22, Type (0, 0), BuildingBlock: MIFKUJ_clean_linker_0, # of connection points: 2
#     Edge 23, Type (0, 0), BuildingBlock: MIFKUJ_clean_linker_0, # of connection points: 2
#     Edge 24, Type (0, 0), BuildingBlock: MIFKUJ_clean_linker_0, # of connection points: 2
#     Edge 25, Type (0, 0), BuildingBlock: MIFKUJ_clean_linker_0, # of connection points: 2
#     Edge 26, Type (0, 0), BuildingBlock: MIFKUJ_clean_linker_0, # of connection points: 2
#     Edge 27, Type (0, 0), BuildingBlock: MIFKUJ_clean_linker_0, # of connection points: 2
#     Edge 28, Type (0, 0), BuildingBlock: MIFKUJ_clean_linker_0, # of connection points: 2
#     Edge 29, Type (0, 0), BuildingBlock: MIFKUJ_clean_linker_0, # of connection points: 2
#     Edge 30, Type (0, 0), BuildingBlock: MIFKUJ_clean_linker_0, # of connection points: 2
#     Edge 31, Type (0, 0), BuildingBlock: MIFKUJ_clean_linker_0, # of connection points: 2
#     Edge 32, Type (0, 0), BuildingBlock: MIFKUJ_clean_linker_0, # of connection points: 2
#     Edge 33, Type (0, 0), BuildingBlock: MIFKUJ_clean_linker_0, # of connection points: 2
#     Edge 34, Type (0, 0), BuildingBlock: MIFKUJ_clean_linker_0, # of connection points: 2
#     Edge 35, Type (0, 0), BuildingBlock: MIFKUJ_clean_linker_0, # of connection points: 2
#     Edge 36, Type (0, 0), BuildingBlock: MIFKUJ_clean_linker_0, # of connection points: 2
#     Edge 37, Type (0, 0), BuildingBlock: MIFKUJ_clean_linker_0, # of connection points: 2
#     Edge 38, Type (0, 0), BuildingBlock: MIFKUJ_clean_linker_0, # of connection points: 2
#     Edge 39, Type (0, 0), BuildingBlock: MIFKUJ_clean_linker_0, # of connection points: 2
#     Edge 40, Type (0, 0), BuildingBlock: MIFKUJ_clean_linker_0, # of connection points: 2
#     Edge 41, Type (0, 0), BuildingBlock: MIFKUJ_clean_linker_0, # of connection points: 2
#     Edge 42, Type (0, 0), BuildingBlock: MIFKUJ_clean_linker_0, # of connection points: 2
#     Edge 43, Type (0, 0), BuildingBlock: MIFKUJ_clean_linker_0, # of connection points: 2
#     Edge 44, Type (0, 0), BuildingBlock: MIFKUJ_clean_linker_0, # of connection points: 2
#     Edge 45, Type (0, 0), BuildingBlock: MIFKUJ_clean_linker_0, # of connection points: 2
#     Edge 46, Type (0, 0), BuildingBlock: MIFKUJ_clean_linker_0, # of connection points: 2
#     Edge 47, Type (0, 0), BuildingBlock: MIFKUJ_clean_linker_0, # of connection points: 2
#     Edge 48, Type (0, 0), BuildingBlock: MIFKUJ_clean_linker_0, # of connection points: 2
#     Edge 49, Type (0, 0), BuildingBlock: MIFKUJ_clean_linker_0, # of connection points: 2
#     Edge 50, Type (0, 0), BuildingBlock: MIFKUJ_clean_linker_0, # of connection points: 2
#     Edge 51, Type (0, 0), BuildingBlock: MIFKUJ_clean_linker_0, # of connection points: 2
#     Edge 52, Type (0, 0), BuildingBlock: MIFKUJ_clean_linker_0, # of connection points: 2
#     Edge 53, Type (0, 0), BuildingBlock: MIFKUJ_clean_linker_0, # of connection points: 2
#     Edge 54, Type (0, 0), BuildingBlock: MIFKUJ_clean_linker_0, # of connection points: 2
#     Edge 55, Type (0, 0), BuildingBlock: MIFKUJ_clean_linker_0, # of connection points: 2
#     Edge 56, Type (0, 0), BuildingBlock: MIFKUJ_clean_linker_0, # of connection points: 2
#     Edge 57, Type (0, 0), BuildingBlock: MIFKUJ_clean_linker_0, # of connection points: 2
#     Edge 58, Type (0, 0), BuildingBlock: MIFKUJ_clean_linker_0, # of connection points: 2
#     Edge 59, Type (0, 0), BuildingBlock: MIFKUJ_clean_linker_0, # of connection points: 2
#     Edge 60, Type (0, 0), BuildingBlock: MIFKUJ_clean_linker_0, # of connection points: 2
#     Edge 61, Type (0, 0), BuildingBlock: MIFKUJ_clean_linker_0, # of connection points: 2
#     Edge 62, Type (0, 0), BuildingBlock: MIFKUJ_clean_linker_0, # of connection points: 2
#     Edge 63, Type (0, 0), BuildingBlock: MIFKUJ_clean_linker_0, # of connection points: 2
# Relax obj value: 0.364
# Max RMSD: 0.300
# Mean RMSD: 0.297
data_MOF--net-crs--node1-BETDIP_clean_sbu_0--edge1-MIFKUJ_clean_linker_0
_symmetry_space_group_name_H-M    P1
_symmetry_Int_Tables_number       1
_symmetry_cell_setting            triclinic
loop_
_symmetry_equiv_pos_as_xyz
'x, y, z'
_cell_length_a     48.956436
_cell_length_b     79.867553
_cell_length_c     57.298642
_cell_angle_alpha  89.926333
_cell_angle_beta   89.997288
_cell_angle_gamma 67.132925
loop_
_atom_site_label
_atom_site_type_symbol
_atom_site_fract_x
_atom_site_fract_y
_atom_site_fract_z
_atom_type_partial_charge
Tb0 Tb 0.96933 0.00469 0.00723 0.0
Tb1 Tb 0.0311 0.99832 0.98963 0.0
C2 C 0.91653 0.00749 0.0108 0.0
C3 C 0.90294 0.99498 0.01864 0.0
C4 C 0.87825 0.99442 0.00683 0.0
C5 C 0.86719 0.98121 0.01252 0.0
C6 C 0.88051 0.96844 0.0303 0.0
C7 C 0.90424 0.96979 0.04292 0.0
C8 C 0.91558 0.98275 0.03696 0.0
C9 C 0.01157 0.99098 0.03858 0.0
C10 C 0.01015 0.96699 0.98263 0.0
C11 C 0.08229 0.99765 0.98469 0.0
C12 C 0.09131 0.01285 0.98003 0.0
C13 C 0.11471 0.01443 0.99264 0.0
C14 C 0.12022 0.03031 0.99107 0.0
C15 C 0.10242 0.04478 0.9768 0.0
C16 C 0.07962 0.04289 0.96363 0.0
C17 C 0.07399 0.02713 0.96533 0.0
C18 C 0.98774 0.01114 0.95882 0.0
C19 C 0.9919 0.03583 0.01436 0.0
O20 O 0.9318 0.00292 0.99146 0.0
O21 O 0.93023 0.01294 0.02682 0.0
O22 O 0.01359 0.98758 0.01712 0.0
O23 O 0.98422 1.0007 0.04352 0.0
O24 O 0.98307 0.97879 0.98796 0.0
O25 O 0.03388 0.97069 0.98645 0.0
O26 O 0.06992 0.99829 0.00508 0.0
O27 O 0.06779 0.99357 0.96791 0.0
O28 O 0.98681 0.01535 0.97997 0.0
O29 O 0.01462 1.00045 0.95377 0.0
O30 O 0.01847 0.02418 0.00813 0.0
O31 O 0.96794 0.03211 0.01184 0.0
H32 H 0.86827 0.00374 0.9926 0.0
H33 H 0.84914 0.9805 0.0022 0.0
H34 H 0.91455 0.96058 0.05717 0.0
H35 H 0.93464 0.98294 0.04639 0.0
H36 H 0.12797 0.00368 0.00436 0.0
H37 H 0.138 0.03142 0.00137 0.0
H38 H 0.06519 0.05394 0.95285 0.0
H39 H 0.05531 0.02644 0.95586 0.0
Tb40 Tb 0.02207 0.26014 0.26227 0.0
Tb41 Tb 0.98502 0.24557 0.23436 0.0
C42 C 0.04487 0.2765 0.28837 0.0
C43 C 0.03698 0.29027 0.30678 0.0
C44 C 0.00743 0.3018 0.31122 0.0
C45 C 0.00106 0.31606 0.32724 0.0
C46 C 0.02418 0.31892 0.33889 0.0
C47 C 0.05359 0.3068 0.33503 0.0
C48 C 0.05989 0.29263 0.31909 0.0
C49 C 0.04912 0.22533 0.25089 0.0
C50 C 0.9736 0.25013 0.28741 0.0
C51 C 0.9651 0.22727 0.20876 0.0
C52 C 0.97563 0.21142 0.19284 0.0
C53 C 0.98123 0.19391 0.20154 0.0
C54 C 0.9872 0.17926 0.18635 0.0
C55 C 0.98763 0.18175 0.1621 0.0
C56 C 0.98324 0.19909 0.15341 0.0
C57 C 0.97713 0.2138 0.16863 0.0
C58 C 0.95765 0.28057 0.245 0.0
C59 C 0.03264 0.2567 0.20933 0.0
O60 O 0.03417 0.28222 0.26763 0.0
O61 O 0.04373 0.26086 0.29368 0.0
O62 O 0.02238 0.23338 0.25662 0.0
O63 O 0.06213 0.23652 0.25318 0.0
O64 O 0.98728 0.26147 0.28687 0.0
O65 O 0.97358 0.24009 0.26918 0.0
O66 O 0.97134 0.22397 0.23089 0.0
O67 O 0.96757 0.24227 0.20192 0.0
O68 O 0.9846 0.27236 0.23992 0.0
O69 O 0.94457 0.26949 0.24172 0.0
O70 O 0.01969 0.24494 0.20971 0.0
O71 O 0.03233 0.26663 0.22774 0.0
H72 H 0.98946 0.30008 0.30188 0.0
H73 H 0.9782 0.32523 0.32984 0.0
H74 H 0.07181 0.30844 0.34407 0.0
H75 H 0.0828 0.28378 0.31591 0.0
H76 H 0.98008 0.19159 0.22007 0.0
H77 H 0.99085 0.16602 0.19357 0.0
H78 H 0.98318 0.20145 0.13479 0.0
H79 H 0.9726 0.22714 0.16134 0.0
Tb80 Tb 0.76814 0.25272 0.50403 0.0
Tb81 Tb 0.71143 0.25655 0.47842 0.0
C82 C 0.82045 0.24721 0.51455 0.0
C83 C 0.83486 0.26033 0.51536 0.0
C84 C 0.83072 0.27284 0.49705 0.0
C85 C 0.84135 0.28663 0.49895 0.0
C86 C 0.85613 0.28828 0.51924 0.0
C87 C 0.86077 0.27561 0.53739 0.0
C88 C 0.8503 0.26167 0.53541 0.0
C89 C 0.71846 0.2699 0.52721 0.0
C90 C 0.7299 0.28976 0.47976 0.0
C91 C 0.66306 0.25566 0.46579 0.0
C92 C 0.64766 0.24418 0.47369 0.0
C93 C 0.65519 0.23511 0.4952 0.0
C94 C 0.6464 0.2209 0.50038 0.0
C95 C 0.62974 0.21566 0.4842 0.0
C96 C 0.6202 0.22565 0.46348 0.0
C97 C 0.62931 0.23979 0.45818 0.0
C98 C 0.75792 0.2513 0.45204 0.0
C99 C 0.74744 0.22013 0.50768 0.0
O100 O 0.8125 0.24394 0.49376 0.0
O101 O 0.79979 0.24959 0.53025 0.0
O102 O 0.72407 0.25656 0.51378 0.0
O103 O 0.74216 0.27336 0.5293 0.0
O104 O 0.7569 0.27822 0.48535 0.0
O105 O 0.70686 0.28491 0.47988 0.0
O106 O 0.66503 0.26746 0.48092 0.0
O107 O 0.68828 0.24667 0.45524 0.0
O108 O 0.75764 0.24408 0.47148 0.0
O109 O 0.73103 0.26146 0.4462 0.0
O110 O 0.72447 0.22943 0.4942 0.0
O111 O 0.76776 0.22647 0.51358 0.0
H112 H 0.81868 0.27226 0.48141 0.0
H113 H 0.8372 0.29635 0.48483 0.0
H114 H 0.87211 0.27666 0.55322 0.0
H115 H 0.85347 0.25229 0.5498 0.0
H116 H 0.66945 0.23819 0.50739 0.0
H117 H 0.65391 0.21337 0.51648 0.0
H118 H 0.60749 0.22172 0.45072 0.0
H119 H 0.62353 0.24653 0.44141 0.0
Tb120 Tb 0.73136 0.9978 0.76582 0.0
Tb121 Tb 0.76547 0.0145 0.73643 0.0
C122 C 0.71423 0.97893 0.7929 0.0
C123 C 0.72517 0.96503 0.81162 0.0
C124 C 0.74016 0.94653 0.8061 0.0
C125 C 0.74633 0.93321 0.8234 0.0
C126 C 0.73745 0.938 0.84664 0.0
C127 C 0.72371 0.95653 0.85237 0.0
C128 C 0.71753 0.96988 0.83503 0.0
C129 C 0.70252 0.03263 0.75567 0.0
C130 C 0.78025 0.00923 0.78911 0.0
C131 C 0.78148 0.03417 0.70991 0.0
C132 C 0.77096 0.04679 0.68994 0.0
C133 C 0.74299 0.06124 0.68987 0.0
C134 C 0.73519 0.07416 0.67187 0.0
C135 C 0.75513 0.07282 0.65356 0.0
C136 C 0.78266 0.05797 0.65337 0.0
C137 C 0.79046 0.04515 0.67137 0.0
C138 C 0.79504 0.97968 0.74634 0.0
C139 C 0.71764 1.00202 0.71301 0.0
O140 O 0.72409 0.974 0.77173 0.0
O141 O 0.7117 0.9955 0.79768 0.0
O142 O 0.72962 0.02475 0.76038 0.0
O143 O 0.68996 0.0212 0.75847 0.0
O144 O 0.76624 0.99802 0.7895 0.0
O145 O 0.78023 0.019 0.77051 0.0
O146 O 0.76824 0.03958 0.72997 0.0
O147 O 0.78759 0.01695 0.70593 0.0
O148 O 0.76768 0.98736 0.74205 0.0
O149 O 0.8071 0.99132 0.74286 0.0
O150 O 0.7316 0.01327 0.71232 0.0
O151 O 0.71753 0.99254 0.73184 0.0
H152 H 0.74616 0.94222 0.78826 0.0
H153 H 0.75733 0.91908 0.81844 0.0
H154 H 0.71631 0.96068 0.87003 0.0
H155 H 0.70563 0.98398 0.83981 0.0
H156 H 0.72744 0.06281 0.70397 0.0
H157 H 0.7137 0.08531 0.67242 0.0
H158 H 0.79875 0.05663 0.63978 0.0
H159 H 0.81221 0.03421 0.67114 0.0
Tb160 Tb 0.51667 0.7595 0.26685 0.0
Tb161 Tb 0.48189 0.74567 0.23477 0.0
C162 C 0.53288 0.77734 0.296 0.0
C163 C 0.51996 0.79179 0.31366 0.0
C164 C 0.50494 0.81003 0.30685 0.0
C165 C 0.49729 0.82395 0.32335 0.0
C166 C 0.50436 0.81994 0.347 0.0
C167 C 0.51767 0.80169 0.35405 0.0
C168 C 0.52558 0.78774 0.33749 0.0
C169 C 0.54533 0.72518 0.25413 0.0
C170 C 0.46788 0.74658 0.28723 0.0
C171 C 0.46396 0.72934 0.2047 0.0
C172 C 0.47556 0.71667 0.18501 0.0
C173 C 0.50274 0.70165 0.18653 0.0
C174 C 0.51106 0.68834 0.16912 0.0
C175 C 0.49251 0.68991 0.14978 0.0
C176 C 0.46623 0.70552 0.14765 0.0
C177 C 0.4578 0.71872 0.16517 0.0
C178 C 0.45361 0.77983 0.24855 0.0
C179 C 0.53131 0.75777 0.21428 0.0
O180 O 0.52675 0.78204 0.27416 0.0
O181 O 0.53279 0.76128 0.30046 0.0
O182 O 0.51801 0.73299 0.25825 0.0
O183 O 0.55791 0.73625 0.25939 0.0
O184 O 0.48176 0.75779 0.28954 0.0
O185 O 0.46797 0.7382 0.26743 0.0
O186 O 0.47318 0.72293 0.22554 0.0
O187 O 0.46246 0.74594 0.2019 0.0
O188 O 0.48063 0.77208 0.24352 0.0
O189 O 0.44085 0.76875 0.24394 0.0
O190 O 0.51728 0.74666 0.21228 0.0
O191 O 0.53123 0.76634 0.23393 0.0
H192 H 0.50021 0.8137 0.28865 0.0
H193 H 0.48677 0.83791 0.31751 0.0
H194 H 0.52353 0.79826 0.37217 0.0
H195 H 0.53728 0.77383 0.34322 0.0
H196 H 0.51703 0.69986 0.20153 0.0
H197 H 0.53158 0.67655 0.17111 0.0
H198 H 0.45134 0.70704 0.13309 0.0
H199 H 0.43675 0.73019 0.16366 0.0
Tb200 Tb 0.28437 0.74744 0.5024 0.0
Tb201 Tb 0.21894 0.7576 0.49077 0.0
C202 C 0.33797 0.74314 0.50063 0.0
C203 C 0.35327 0.75396 0.49019 0.0
C204 C 0.34346 0.76336 0.46907 0.0
C205 C 0.35354 0.77677 0.46215 0.0
C206 C 0.37359 0.78091 0.47621 0.0
C207 C 0.3853 0.77034 0.49622 0.0
C208 C 0.37514 0.75702 0.50317 0.0
C209 C 0.24739 0.75899 0.5375 0.0
C210 C 0.24428 0.78635 0.47985 0.0
C211 C 0.16622 0.76017 0.4918 0.0
C212 C 0.15546 0.74537 0.49296 0.0
C213 C 0.12738 0.74827 0.50206 0.0
C214 C 0.11836 0.73368 0.50428 0.0
C215 C 0.13764 0.71605 0.4979 0.0
C216 C 0.1656 0.71326 0.48872 0.0
C217 C 0.17432 0.7278 0.48608 0.0
C218 C 0.25643 0.74457 0.45609 0.0
C219 C 0.2585 0.71861 0.51375 0.0
O220 O 0.32589 0.73529 0.48623 0.0
O221 O 0.32041 0.75102 0.51806 0.0
O222 O 0.24293 0.76498 0.51686 0.0
O223 O 0.27432 0.74705 0.53932 0.0
O224 O 0.27078 0.77301 0.48244 0.0
O225 O 0.21966 0.78436 0.48611 0.0
O226 O 0.18051 0.76188 0.51033 0.0
O227 O 0.18006 0.76088 0.47253 0.0
O228 O 0.26024 0.73955 0.47704 0.0
O229 O 0.22978 0.75668 0.45365 0.0
O230 O 0.23224 0.73123 0.50839 0.0
O231 O 0.28348 0.72103 0.51028 0.0
H232 H 0.32666 0.76119 0.45867 0.0
H233 H 0.3444 0.78461 0.44652 0.0
H234 H 0.40062 0.77331 0.50748 0.0
H235 H 0.38296 0.74991 0.51951 0.0
H236 H 0.11261 0.76172 0.50757 0.0
H237 H 0.09661 0.73609 0.51131 0.0
H238 H 0.18065 0.69982 0.48339 0.0
H239 H 0.19603 0.72524 0.47889 0.0
Tb240 Tb 0.22435 0.49813 0.76511 0.0
Tb241 Tb 0.2628 0.51203 0.73736 0.0
C242 C 0.20102 0.48185 0.79101 0.0
C243 C 0.20653 0.46984 0.81142 0.0
C244 C 0.23496 0.46107 0.821 0.0
C245 C 0.2398 0.44802 0.83862 0.0
C246 C 0.2164 0.44337 0.84654 0.0
C247 C 0.18777 0.45293 0.83762 0.0
C248 C 0.18293 0.46602 0.82024 0.0
C249 C 0.19779 0.53245 0.75131 0.0
C250 C 0.27095 0.51006 0.791 0.0
C251 C 0.28403 0.52905 0.71074 0.0
C252 C 0.27572 0.54174 0.6907 0.0
C253 C 0.25147 0.55856 0.69174 0.0
C254 C 0.24682 0.57146 0.67401 0.0
C255 C 0.2663 0.5678 0.65487 0.0
C256 C 0.28954 0.55056 0.65331 0.0
C257 C 0.29425 0.53772 0.67107 0.0
C258 C 0.28966 0.47772 0.75107 0.0
C259 C 0.21673 0.49952 0.71157 0.0
O260 O 0.21634 0.47476 0.77225 0.0
O261 O 0.19843 0.49857 0.79456 0.0
O262 O 0.22418 0.52468 0.75815 0.0
O263 O 0.18474 0.52125 0.75368 0.0
O264 O 0.25629 0.4992 0.79122 0.0
O265 O 0.2733 0.51862 0.77188 0.0
O266 O 0.27133 0.53528 0.73075 0.0
O267 O 0.28684 0.5123 0.70696 0.0
O268 O 0.26318 0.48544 0.74429 0.0
O269 O 0.30258 0.48898 0.74844 0.0
O270 O 0.23088 0.51066 0.71135 0.0
O271 O 0.21451 0.49101 0.73073 0.0
H272 H 0.25346 0.46389 0.81436 0.0
H273 H 0.26206 0.44101 0.84525 0.0
H274 H 0.16916 0.44997 0.84367 0.0
H275 H 0.16082 0.47273 0.8131 0.0
H276 H 0.23673 0.56207 0.70663 0.0
H277 H 0.22881 0.58462 0.6759 0.0
H278 H 0.30462 0.54714 0.6386 0.0
H279 H 0.31306 0.52485 0.66984 0.0
Tb280 Tb 0.97571 0.4996 0.52035 0.0
Tb281 Tb 0.01456 0.50703 0.48542 0.0
C282 C 0.93417 0.49718 0.54368 0.0
C283 C 0.92 0.48409 0.54083 0.0
C284 C 0.91715 0.4777 0.51851 0.0
C285 C 0.90861 0.46308 0.51589 0.0
C286 C 0.90334 0.45425 0.53555 0.0
C287 C 0.90513 0.4611 0.5579 0.0
C288 C 0.91337 0.47592 0.56049 0.0
C289 C 0.03283 0.48556 0.53068 0.0
C290 C 0.00337 0.47039 0.48184 0.0
C291 C 0.0559 0.50968 0.46192 0.0
C292 C 0.07056 0.5225 0.46514 0.0
C293 C 0.07251 0.52913 0.48752 0.0
C294 C 0.0816 0.54352 0.49035 0.0
C295 C 0.08872 0.55172 0.47088 0.0
C296 C 0.08781 0.54465 0.44853 0.0
C297 C 0.07878 0.53015 0.4457 0.0
C298 C 0.95737 0.52071 0.47485 0.0
C299 C 0.98711 0.53599 0.5245 0.0
O300 O 0.92999 0.50899 0.52678 0.0
O301 O 0.96189 0.48991 0.55026 0.0
O302 O 0.01864 0.50087 0.52163 0.0
O303 O 0.01432 0.47812 0.53562 0.0
O304 O 0.98131 0.47744 0.49672 0.0
O305 O 0.02078 0.479 0.47616 0.0
O306 O 0.06017 0.49753 0.47837 0.0
O307 O 0.02805 0.5173 0.45582 0.0
O308 O 0.97188 0.50553 0.48405 0.0
O309 O 0.97567 0.52835 0.47008 0.0
O310 O 0.00907 0.52904 0.50948 0.0
O311 O 0.96954 0.52746 0.52989 0.0
H312 H 0.92277 0.48341 0.50303 0.0
H313 H 0.90697 0.45838 0.49844 0.0
H314 H 0.90156 0.4545 0.57344 0.0
H315 H 0.91594 0.48044 0.57787 0.0
H316 H 0.06572 0.52378 0.5028 0.0
H317 H 0.08156 0.54882 0.50771 0.0
H318 H 0.09343 0.5506 0.4332 0.0
H319 H 0.07708 0.52539 0.42827 0.0
Tb320 Tb 0.28108 0.24925 0.00423 0.0
Tb321 Tb 0.21812 0.25632 0.9888 0.0
C322 C 0.33216 0.2492 0.00689 0.0
C323 C 0.34025 0.26483 0.01093 0.0
C324 C 0.36657 0.26519 0.00182 0.0
C325 C 0.37232 0.281 0.00355 0.0
C326 C 0.35162 0.29667 0.0142 0.0
C327 C 0.3256 0.29606 0.02371 0.0
C328 C 0.31994 0.28032 0.02204 0.0
C329 C 0.24091 0.25946 0.03729 0.0
C330 C 0.23904 0.28806 0.98245 0.0
C331 C 0.16586 0.25804 0.98687 0.0
C332 C 0.15268 0.2446 0.99093 0.0
C333 C 0.16219 0.23213 0.00948 0.0
C334 C 0.15347 0.21744 0.01058 0.0
C335 C 0.1351 0.215 0.99318 0.0
C336 C 0.12429 0.2281 0.97542 0.0
C337 C 0.13303 0.24276 0.97432 0.0
C338 C 0.25813 0.2464 0.95566 0.0
C339 C 0.26054 0.21767 0.01033 0.0
O340 O 0.31865 0.24968 0.98707 0.0
O341 O 0.31899 0.24486 0.02438 0.0
O342 O 0.23765 0.26519 0.01662 0.0
O343 O 0.26828 0.24874 0.04054 0.0
O344 O 0.26574 0.27655 0.98889 0.0
O345 O 0.21545 0.28384 0.98349 0.0
O346 O 0.17677 0.26323 0.00505 0.0
O347 O 0.18349 0.25464 0.9688 0.0
O348 O 0.26165 0.24039 0.97625 0.0
O349 O 0.23082 0.25744 0.95264 0.0
O350 O 0.23329 0.22971 0.00627 0.0
O351 O 0.28419 0.22147 0.00654 0.0
H352 H 0.38226 0.25343 0.99289 0.0
H353 H 0.39248 0.28115 0.99596 0.0
H354 H 0.30945 0.30783 0.03229 0.0
H355 H 0.29928 0.2804 0.02894 0.0
H356 H 0.17733 0.23327 0.02257 0.0
H357 H 0.16181 0.2077 0.02465 0.0
H358 H 0.11034 0.22652 0.96164 0.0
H359 H 0.1256 0.25218 0.95982 0.0
Tb360 Tb 0.23065 0.99583 0.25723 0.0
Tb361 Tb 0.27051 0.00837 0.22926 0.0
C362 C 0.20748 0.97976 0.28354 0.0
C363 C 0.21545 0.96615 0.30252 0.0
C364 C 0.2364 0.94837 0.29912 0.0
C365 C 0.24086 0.93508 0.31622 0.0
C366 C 0.22457 0.93927 0.33716 0.0
C367 C 0.20442 0.95725 0.34086 0.0
C368 C 0.19984 0.97052 0.32367 0.0
C369 C 0.2066 0.03057 0.24489 0.0
C370 C 0.28051 0.00486 0.28262 0.0
C371 C 0.29524 0.02389 0.20353 0.0
C372 C 0.29026 0.03581 0.18307 0.0
C373 C 0.26174 0.04761 0.17625 0.0
C374 C 0.25816 0.06051 0.15869 0.0
C375 C 0.28304 0.06201 0.14797 0.0
C376 C 0.31142 0.0493 0.15395 0.0
C377 C 0.31496 0.03639 0.17136 0.0
C378 C 0.29471 0.97376 0.24206 0.0
C379 C 0.22019 0.99944 0.20403 0.0
O380 O 0.21815 0.97397 0.2628 0.0
O381 O 0.20779 0.99571 0.28832 0.0
O382 O 0.23306 0.02185 0.25106 0.0
O383 O 0.19213 0.02016 0.24746 0.0
O384 O 0.26482 0.99462 0.28256 0.0
O385 O 0.28263 0.01386 0.26385 0.0
O386 O 0.28015 0.03118 0.22233 0.0
O387 O 0.29704 0.00732 0.19998 0.0
O388 O 0.26829 0.98231 0.23561 0.0
O389 O 0.30895 0.98431 0.2398 0.0
O390 O 0.23702 0.00899 0.20343 0.0
O391 O 0.21757 0.99082 0.22296 0.0
H392 H 0.24872 0.94452 0.28297 0.0
H393 H 0.25629 0.92136 0.31258 0.0
H394 H 0.19187 0.96104 0.35693 0.0
H395 H 0.18351 0.98412 0.32668 0.0
H396 H 0.24235 0.04727 0.18504 0.0
H397 H 0.23598 0.06978 0.1543 0.0
H398 H 0.33106 0.0496 0.14558 0.0
H399 H 0.33715 0.02726 0.17627 0.0
Tb400 Tb 0.51699 0.26128 0.76286 0.0
Tb401 Tb 0.48009 0.24885 0.7322 0.0
C402 C 0.53871 0.27687 0.79113 0.0
C403 C 0.531 0.29008 0.81032 0.0
C404 C 0.50261 0.30393 0.81245 0.0
C405 C 0.49744 0.31785 0.82886 0.0
C406 C 0.52067 0.31813 0.84313 0.0
C407 C 0.54857 0.30373 0.84162 0.0
C408 C 0.55365 0.28985 0.82538 0.0
C409 C 0.54371 0.22684 0.74936 0.0
C410 C 0.46876 0.24968 0.78484 0.0
C411 C 0.4574 0.2335 0.70427 0.0
C412 C 0.46505 0.21669 0.69066 0.0
C413 C 0.49143 0.20918 0.6778 0.0
C414 C 0.49728 0.19342 0.6646 0.0
C415 C 0.47708 0.18476 0.66435 0.0
C416 C 0.45084 0.19236 0.67744 0.0
C417 C 0.44492 0.20814 0.69041 0.0
C418 C 0.45376 0.28349 0.74506 0.0
C419 C 0.53104 0.25863 0.71035 0.0
O420 O 0.52848 0.28326 0.7705 0.0
O421 O 0.53757 0.26103 0.79521 0.0
O422 O 0.51675 0.23487 0.75457 0.0
O423 O 0.55698 0.23766 0.75372 0.0
O424 O 0.48127 0.26161 0.78592 0.0
O425 O 0.47093 0.23999 0.76585 0.0
O426 O 0.45755 0.23161 0.72688 0.0
O427 O 0.46866 0.24517 0.69779 0.0
O428 O 0.48065 0.27515 0.74003 0.0
O429 O 0.4403 0.27283 0.74067 0.0
O430 O 0.51594 0.24808 0.70877 0.0
O431 O 0.53109 0.26759 0.7296 0.0
H432 H 0.48484 0.30433 0.80091 0.0
H433 H 0.47575 0.3288 0.82962 0.0
H434 H 0.56673 0.30344 0.85264 0.0
H435 H 0.57567 0.27928 0.82397 0.0
H436 H 0.50737 0.21553 0.67781 0.0
H437 H 0.51759 0.18805 0.65465 0.0
H438 H 0.43444 0.18637 0.67728 0.0
H439 H 0.42437 0.21379 0.70015 0.0
Tb440 Tb 0.02169 0.76191 0.75831 0.0
Tb441 Tb 0.98194 0.75006 0.73036 0.0
C442 C 0.04576 0.77708 0.7851 0.0
C443 C 0.0397 0.78816 0.80644 0.0
C444 C 0.01326 0.80347 0.80935 0.0
C445 C 0.01005 0.81522 0.82815 0.0
C446 C 0.03328 0.81199 0.8443 0.0
C447 C 0.05872 0.79582 0.84222 0.0
C448 C 0.06195 0.78412 0.8234 0.0
C449 C 0.04516 0.72705 0.74663 0.0
C450 C 0.97229 0.75215 0.78338 0.0
C451 C 0.95908 0.73486 0.7026 0.0
C452 C 0.96988 0.71918 0.68667 0.0
C453 C 0.99047 0.7022 0.69419 0.0
C454 C -0.00239 0.68696 0.6799 0.0
C455 C 0.98461 0.68849 0.65775 0.0
C456 C 0.96544 0.70566 0.64967 0.0
C457 C 0.958 0.72088 0.66411 0.0
C458 C 0.95868 0.78495 0.74216 0.0
C459 C 0.03338 0.75749 0.70576 0.0
O460 O 0.03079 0.78474 0.76638 0.0
O461 O 0.04876 0.76017 0.78744 0.0
O462 O 0.01872 0.73601 0.75256 0.0
O463 O 0.05988 0.73739 0.74829 0.0
O464 O 0.98752 0.76269 0.78363 0.0
O465 O 0.97082 0.74323 0.76444 0.0
O466 O 0.9628 0.73116 0.72489 0.0
O467 O 0.96494 0.74897 0.69689 0.0
O468 O 0.98494 0.77593 0.73597 0.0
O469 O 0.94384 0.77475 0.74002 0.0
O470 O 0.01858 0.74677 0.7064 0.0
O471 O 0.03416 0.76742 0.72386 0.0
H472 H 0.99555 0.80676 0.79663 0.0
H473 H 0.98989 0.8273 0.82921 0.0
H474 H 0.07661 0.79237 0.85476 0.0
H475 H 0.08237 0.77222 0.82164 0.0
H476 H 0.00023 0.70054 0.71142 0.0
H477 H 0.01262 0.67388 0.68641 0.0
H478 H 0.95499 0.70713 0.6327 0.0
H479 H 0.94217 0.73386 0.65796 0.0
Tb480 Tb 0.73221 0.49551 0.26138 0.0
Tb481 Tb 0.77123 0.51048 0.23583 0.0
C482 C 0.71043 0.47735 0.2855 0.0
C483 C 0.71577 0.46593 0.30676 0.0
C484 C 0.73698 0.44797 0.30696 0.0
C485 C 0.7387 0.43647 0.32582 0.0
C486 C 0.71927 0.44262 0.34493 0.0
C487 C 0.69886 0.46079 0.34508 0.0
C488 C 0.69706 0.47228 0.32618 0.0
C489 C 0.70635 0.53031 0.25021 0.0
C490 C 0.77758 0.50733 0.28967 0.0
C491 C 0.79487 0.52813 0.21266 0.0
C492 C 0.79202 0.53951 0.1919 0.0
C493 C 0.7671 0.54496 0.17724 0.0
C494 C 0.76479 0.55673 0.15843 0.0
C495 C 0.78727 0.56326 0.15418 0.0
C496 C 0.81228 0.55746 0.16883 0.0
C497 C 0.81461 0.54571 0.18743 0.0
C498 C 0.79694 0.47568 0.2476 0.0
C499 C 0.72491 0.49944 0.20761 0.0
O500 O 0.72813 0.47078 0.2677 0.0
O501 O 0.7035 0.49479 0.2883 0.0
O502 O 0.73268 0.5221 0.25704 0.0
O503 O 0.69298 0.51916 0.25089 0.0
O504 O 0.76262 0.49663 0.28894 0.0
O505 O 0.78085 0.51607 0.27103 0.0
O506 O 0.77565 0.53513 0.22941 0.0
O507 O 0.80075 0.51086 0.20939 0.0
O508 O 0.77084 0.48387 0.24031 0.0
O509 O 0.81025 0.48687 0.24709 0.0
O510 O 0.74042 0.50982 0.20832 0.0
O511 O 0.72168 0.49057 0.22616 0.0
H512 H 0.75157 0.44255 0.2922 0.0
H513 H 0.75441 0.4225 0.32489 0.0
H514 H 0.68384 0.46607 0.35962 0.0
H515 H 0.68033 0.486 0.32643 0.0
H516 H 0.74938 0.54034 0.18052 0.0
H517 H 0.74535 0.56085 0.14736 0.0
H518 H 0.82974 0.56245 0.16638 0.0
H519 H 0.8339 0.54174 0.19868 0.0
Tb520 Tb 0.78006 0.75349 0.01727 0.0
Tb521 Tb 0.73312 0.75165 0.98513 0.0
C522 C 0.82637 0.75239 0.03687 0.0
C523 C 0.83764 0.767 0.03699 0.0
C524 C 0.83343 0.77818 0.01723 0.0
C525 C 0.83691 0.79461 0.01867 0.0
C526 C 0.84485 0.80019 0.03987 0.0
C527 C 0.85116 0.7885 0.05928 0.0
C528 C 0.84735 0.77203 0.05788 0.0
C529 C 0.72597 0.76641 0.03471 0.0
C530 C 0.74608 0.7879 0.98677 0.0
C531 C 0.68627 0.75389 0.96511 0.0
C532 C 0.6695 0.74196 0.96601 0.0
C533 C 0.65109 0.74239 0.98506 0.0
C534 C 0.63879 0.72933 0.98722 0.0
C535 C 0.64436 0.71571 0.97024 0.0
C536 C 0.66158 0.71585 0.95066 0.0
C537 C 0.67385 0.72887 0.94852 0.0
C538 C 0.78731 0.739 0.96784 0.0
C539 C 0.76671 0.71754 0.01576 0.0
O540 O 0.82642 0.74474 0.01663 0.0
O541 O 0.80125 0.7564 0.04792 0.0
O542 O 0.73725 0.75264 0.02193 0.0
O543 O 0.74598 0.77276 0.03937 0.0
O544 O 0.76997 0.77921 -0.00058 0.0
O545 O 0.72765 0.78014 0.98059 0.0
O546 O 0.68656 0.76297 0.98408 0.0
O547 O 0.7125 0.74671 0.95545 0.0
O548 O 0.77557 0.75275 0.98054 0.0
O549 O 0.76766 0.73234 0.96322 0.0
O550 O 0.74152 0.72699 0.00497 0.0
O551 O 0.78663 0.72462 0.02011 0.0
H552 H 0.82571 0.77483 0.00094 0.0
H553 H 0.83226 0.80331 0.0034 0.0
H554 H 0.8573 0.79259 0.07583 0.0
H555 H 0.85034 0.76374 0.0734 0.0
H556 H 0.64669 0.75254 0.9986 0.0
H557 H 0.62514 0.7298 0.00228 0.0
H558 H 0.66655 0.70548 0.93734 0.0
H559 H 0.6877 0.72827 0.93353 0.0
Tb560 Tb 0.46176 1.00195 0.52263 0.0
Tb561 Tb 0.51603 1.00036 0.49514 0.0
C562 C 0.41552 0.99783 0.53441 0.0
C563 C 0.40658 0.98237 0.53 0.0
C564 C 0.38951 0.98216 0.51032 0.0
C565 C 0.38498 0.96642 0.5044 0.0
C566 C 0.39748 0.95063 0.51806 0.0
C567 C 0.41315 0.95115 0.53835 0.0
C568 C 0.4175 0.96685 0.54434 0.0
C569 C 0.51005 0.99512 0.54716 0.0
C570 C 0.50054 0.9664 0.49289 0.0
C571 C 0.56396 1.00254 0.48329 0.0
C572 C 0.57578 0.0166 0.48709 0.0
C573 C 0.56501 0.02894 0.50553 0.0
C574 C 0.57139 0.04444 0.5065 0.0
C575 C 0.59015 0.04736 0.4899 0.0
C576 C 0.60244 0.03441 0.47222 0.0
C577 C 0.59491 0.01925 0.47063 0.0
C578 C 0.46814 0.00735 0.47046 0.0
C579 C 0.47628 0.03617 0.52448 0.0
O580 O 0.41676 0.00751 0.51621 0.0
O581 O 0.43838 0.99436 0.54823 0.0
O582 O 0.50873 0.98919 0.52695 0.0
O583 O 0.48347 0.00402 0.55494 0.0
O584 O 0.47551 0.97613 0.50373 0.0
O585 O 0.52211 0.97228 0.49 0.0
O586 O 0.56116 0.99375 0.50185 0.0
O587 O 0.54042 0.00765 0.46998 0.0
O588 O 0.46904 0.01318 0.49077 0.0
O589 O 0.49469 0.99893 0.46242 0.0
O590 O 0.50136 0.02646 0.51362 0.0
O591 O 0.45482 0.03019 0.52757 0.0
H592 H 0.38054 0.99394 0.49903 0.0
H593 H 0.37274 0.96637 0.48868 0.0
H594 H 0.42255 0.93926 0.54941 0.0
H595 H 0.43038 0.96654 0.55982 0.0
H596 H 0.55091 0.02694 0.51882 0.0
H597 H 0.5615 0.05419 0.52026 0.0
H598 H 0.61679 0.03641 0.45908 0.0
H599 H 0.60328 0.0099 0.45619 0.0
Tb600 Tb 0.47871 0.5026 0.0169 0.0
Tb601 Tb 0.51796 0.5082 0.98076 0.0
C602 C 0.43663 0.50195 0.04126 0.0
C603 C 0.42087 0.48963 0.03987 0.0
C604 C 0.4177 0.48225 0.01828 0.0
C605 C 0.40671 0.46859 0.01722 0.0
C606 C 0.3995 0.46171 0.03778 0.0
C607 C 0.40218 0.46925 0.05938 0.0
C608 C 0.41261 0.48324 0.06039 0.0
C609 C 0.53564 0.48917 0.02777 0.0
C610 C 0.50585 0.47179 0.98001 0.0
C611 C 0.56022 0.50958 0.95745 0.0
C612 C 0.57363 0.52305 0.96034 0.0
C613 C 0.57309 0.53084 0.98239 0.0
C614 C 0.5797 0.54616 0.98483 0.0
C615 C 0.58682 0.55415 0.96523 0.0
C616 C 0.58901 0.54585 0.94327 0.0
C617 C 0.58227 0.53042 0.94083 0.0
C618 C 0.46098 0.52172 0.96989 0.0
C619 C 0.48983 0.53931 0.01715 0.0
O620 O 0.433 0.5131 0.02365 0.0
O621 O 0.46442 0.49407 0.04749 0.0
O622 O 0.52155 0.50395 0.01744 0.0
O623 O 0.51714 0.4819 0.03352 0.0
O624 O 0.48396 0.4795 0.9949 0.0
O625 O 0.52353 0.47999 0.97342 0.0
O626 O 0.56385 0.49827 0.97487 0.0
O627 O 0.53277 0.51643 0.95012 0.0
O628 O 0.47509 0.50697 0.98024 0.0
O629 O 0.47963 0.5288 0.96388 0.0
O630 O 0.5111 0.53204 0.00171 0.0
O631 O 0.47324 0.53067 0.02463 0.0
H632 H 0.42499 0.48637 0.00229 0.0
H633 H 0.40539 0.46271 0.00043 0.0
H634 H 0.39687 0.46401 0.07545 0.0
H635 H 0.41544 0.48852 0.07723 0.0
H636 H 0.56601 0.52576 0.99769 0.0
H637 H 0.57825 0.55212 0.002 0.0
H638 H 0.59438 0.55183 0.92786 0.0
H639 H 0.58237 0.52481 0.92361 0.0
H640 H 0.02579 0.05544 0.00578 0.0
H641 H 0.02608 0.0817 0.02772 0.0
H642 H 0.95524 0.0799 0.07125 0.0
H643 H 0.95364 0.05452 0.04838 0.0
H644 H 0.94626 0.11293 0.06337 0.0
H645 H 0.03493 0.05948 0.08004 0.0
H646 H 0.08285 0.03526 0.06984 0.0
H647 H 0.12036 0.07484 0.05774 0.0
H648 H 0.07192 0.09946 0.06499 0.0
H649 H 0.95949 0.15834 0.16493 0.0
H650 H 0.96197 0.1344 0.13751 0.0
H651 H 0.02411 0.1472 0.09514 0.0
H652 H 0.02187 0.17118 0.12268 0.0
H653 H 0.03956 0.11 0.1004 0.0
H654 H 0.95481 0.16205 0.07762 0.0
H655 H 0.9076 0.18827 0.08357 0.0
H656 H 0.86659 0.15253 0.10708 0.0
H657 H 0.91369 0.12611 0.10158 0.0
C658 C 0.00992 0.06093 0.01977 0.0
C659 C 0.98964 0.053 0.02542 0.0
C660 C 0.0103 0.07581 0.03244 0.0
C661 C 0.99128 0.0825 0.05164 0.0
C662 C 0.9703 0.07496 0.05664 0.0
C663 C 0.96929 0.06048 0.04353 0.0
C664 C 0.99314 0.09712 0.06689 0.0
C665 C 0.96671 0.11209 0.0716 0.0
C666 C 0.02009 0.0965 0.07701 0.0
C667 C 0.04935 0.08145 0.07268 0.0
C668 C 0.05314 0.06311 0.07475 0.0
C669 C 0.08047 0.04926 0.0695 0.0
C670 C 0.10472 0.05346 0.06355 0.0
C671 C 0.10156 0.07157 0.06238 0.0
C672 C 0.074 0.08551 0.06662 0.0
C673 C 0.97398 0.15591 0.14993 0.0
C674 C 0.99048 0.16665 0.14594 0.0
C675 C 0.97519 0.14232 0.13418 0.0
C676 C 0.99293 0.13916 0.11413 0.0
C677 C 0.01013 0.14948 0.11042 0.0
C678 C 0.00872 0.16322 0.12609 0.0
C679 C 0.99278 0.12538 0.09685 0.0
C680 C 0.01933 0.11066 0.09196 0.0
C681 C 0.96625 0.12629 0.08614 0.0
C682 C 0.93785 0.14213 0.0894 0.0
C683 C 0.93579 0.1598 0.08424 0.0
C684 C 0.90904 0.17469 0.0875 0.0
C685 C 0.88413 0.17207 0.09576 0.0
C686 C 0.88591 0.15454 0.10071 0.0
C687 C 0.91262 0.1396 0.09751 0.0
H688 H 0.86344 0.18362 0.09826 0.0
H689 H 0.12591 0.04268 0.05976 0.0
H690 H 0.81326 0.22462 0.44888 0.0
H691 H 0.8551 0.22566 0.42625 0.0
H692 H 0.80353 0.2818 0.40879 0.0
H693 H 0.76134 0.2803 0.42998 0.0
H694 H 0.82362 0.26497 0.37173 0.0
H695 H 0.87228 0.26717 0.44537 0.0
H696 H 0.89276 0.25699 0.48474 0.0
H697 H 0.94477 0.204 0.45803 0.0
H698 H 0.92547 0.21393 0.41842 0.0
H699 H 0.96841 0.26852 0.32859 0.0
H700 H 0.9367 0.26894 0.36183 0.0
H701 H 0.90942 0.23013 0.32705 0.0
H702 H 0.94088 0.22957 0.29383 0.0
H703 H 0.93051 0.24117 0.392 0.0
H704 H 0.83217 0.24851 0.33133 0.0
H705 H 0.81589 0.25851 0.29112 0.0
H706 H 0.86332 0.29378 0.29248 0.0
H707 H 0.87849 0.28482 0.33311 0.0
C708 C 0.81118 0.23719 0.44038 0.0
C709 C 0.78419 0.25231 0.44084 0.0
C710 C 0.83515 0.23787 0.42771 0.0
C711 C 0.83262 0.25387 0.41589 0.0
C712 C 0.80603 0.26927 0.41759 0.0
C713 C 0.78191 0.26841 0.42965 0.0
C714 C 0.85582 0.25394 0.39926 0.0
C715 C 0.84692 0.25995 0.37637 0.0
C716 C 0.88631 0.24731 0.40509 0.0
C717 C 0.89726 0.24125 0.42899 0.0
C718 C 0.88794 0.25332 0.44793 0.0
C719 C 0.89937 0.24762 0.47026 0.0
C720 C 0.91968 0.22984 0.47392 0.0
C721 C 0.92894 0.21775 0.4552 0.0
C722 C 0.91797 0.22344 0.43279 0.0
C723 C 0.95595 0.2599 0.32814 0.0
C724 C 0.9568 0.24922 0.30843 0.0
C725 C 0.93806 0.26006 0.34721 0.0
C726 C 0.92066 0.24968 0.34671 0.0
C727 C 0.92264 0.23831 0.32762 0.0
C728 C 0.94053 0.23808 0.30862 0.0
C729 C 0.89805 0.25209 0.36484 0.0
C730 C 0.90708 0.24647 0.38774 0.0
C731 C 0.86757 0.25925 0.35914 0.0
C732 C 0.85682 0.26577 0.33522 0.0
C733 C 0.83877 0.25861 0.32319 0.0
C734 C 0.82964 0.26415 0.30034 0.0
C735 C 0.83851 0.27681 0.28928 0.0
C736 C 0.85628 0.28409 0.30113 0.0
C737 C 0.86507 0.27883 0.3241 0.0
H738 H 0.83163 0.28097 0.27151 0.0
H739 H 0.92839 0.22547 0.49124 0.0
H740 H 0.72893 0.10972 0.65963 0.0
H741 H 0.72338 0.13344 0.63087 0.0
H742 H 0.76097 0.09258 0.5779 0.0
H743 H 0.76646 0.06878 0.60656 0.0
H744 H 0.7881 0.1151 0.57789 0.0
H745 H 0.68705 0.12189 0.57506 0.0
H746 H 0.63792 0.12567 0.59041 0.0
H747 H 0.62894 0.17625 0.62209 0.0
H748 H 0.67806 0.17274 0.60697 0.0
H749 H 0.71249 0.20111 0.49829 0.0
H750 H 0.71108 0.1748 0.51949 0.0
H751 H 0.78231 0.17462 0.56379 0.0
H752 H 0.78418 0.20067 0.54268 0.0
H753 H 0.69837 0.17088 0.56345 0.0
H754 H 0.82433 0.13227 0.58089 0.0
H755 H 0.872 0.12724 0.56171 0.0
H756 H 0.82915 0.13733 0.49478 0.0
H757 H 0.78132 0.14218 0.51352 0.0
C758 C 0.73536 0.10578 0.64174 0.0
C759 C 0.74832 0.08731 0.63546 0.0
C760 C 0.73219 0.11938 0.62528 0.0
C761 C 0.7417 0.11483 0.60216 0.0
C762 C 0.75361 0.09644 0.59565 0.0
C763 C 0.75682 0.08284 0.61208 0.0
C764 C 0.74156 0.1291 0.58535 0.0
C765 C 0.76841 0.12725 0.57467 0.0
C766 C 0.71582 0.14483 0.58075 0.0
C767 C 0.68635 0.14697 0.59003 0.0
C768 C 0.67469 0.13375 0.58544 0.0
C769 C 0.64681 0.13587 0.59405 0.0
C770 C 0.63036 0.15117 0.60727 0.0
C771 C 0.64171 0.16441 0.61185 0.0
C772 C 0.66954 0.16239 0.60321 0.0
C773 C 0.72803 0.1954 0.51242 0.0
C774 C 0.74846 0.20305 0.51874 0.0
C775 C 0.72708 0.1804 0.52456 0.0
C776 C 0.74661 0.17266 0.54315 0.0
C777 C 0.76728 0.18014 0.54928 0.0
C778 C 0.76832 0.19507 0.53714 0.0
C779 C 0.74508 0.15703 0.55648 0.0
C780 C 0.71797 0.15866 0.56655 0.0
C781 C 0.77044 0.14087 0.56012 0.0
C782 C 0.7992 0.13773 0.54865 0.0
C783 C 0.82511 0.13333 0.56208 0.0
C784 C 0.85215 0.13053 0.55128 0.0
C785 C 0.85358 0.13201 0.52705 0.0
C786 C 0.82799 0.13625 0.51355 0.0
C787 C 0.80091 0.13904 0.52426 0.0
H788 H 0.87453 0.12986 0.51873 0.0
H789 H 0.60878 0.15278 0.61389 0.0
H790 H 0.93071 0.03538 0.96381 0.0
H791 H 0.88718 0.03627 0.94167 0.0
H792 H 0.94317 0.99044 0.90075 0.0
H793 H 0.98641 0.98945 0.92285 0.0
H794 H 0.8745 0.04247 0.89735 0.0
H795 H 0.90431 0.96357 0.88591 0.0
H796 H 0.92189 0.93561 0.90963 0.0
H797 H 0.9028 0.96729 0.97228 0.0
H798 H 0.88394 0.99558 0.94912 0.0
H799 H 0.8228 0.02323 0.79197 0.0
H800 H 0.85002 0.02561 0.82654 0.0
H801 H 0.80082 1.00202 0.86847 0.0
H802 H 0.77425 0.99893 0.83367 0.0
H803 H 0.85458 0.98742 0.8802 0.0
H804 H 0.7886 0.04796 0.87252 0.0
H805 H 0.75999 0.0771 0.8531 0.0
H806 H 0.84061 0.08396 0.83676 0.0
H807 H 0.86978 0.05471 0.85574 0.0
C808 C 0.93358 0.02556 0.95004 0.0
C809 C 0.96178 0.0124 0.94491 0.0
C810 C 0.90878 0.02602 0.9375 0.0
C811 C 0.91189 0.01324 0.91982 0.0
C812 C 0.94017 1.00019 0.91464 0.0
C813 C 0.9649 0.9998 0.92705 0.0
C814 C 0.88615 0.01418 0.90551 0.0
C815 C 0.87 0.03047 0.89372 0.0
C816 C 0.87942 0.9987 0.90153 0.0
C817 C 0.89269 0.98179 0.91567 0.0
C818 C 0.90369 0.96465 0.90476 0.0
C819 C 0.91369 0.94874 0.91813 0.0
C820 C 0.91293 0.94975 0.94245 0.0
C821 C 0.90284 0.96664 0.95346 0.0
C822 C 0.89258 0.98262 0.94021 0.0
C823 C 0.81767 0.01861 0.80856 0.0
C824 C 0.79643 0.01088 0.81011 0.0
C825 C 0.83308 0.02013 0.82837 0.0
C826 C 0.82708 0.01432 0.85023 0.0
C827 C 0.80576 0.00664 0.85182 0.0
C828 C 0.79064 0.00487 0.83192 0.0
C829 C 0.84445 0.01532 0.871 0.0
C830 C 0.85891 0.99945 0.88404 0.0
C831 C 0.84881 0.03133 0.87678 0.0
C832 C 0.83141 0.04906 0.86548 0.0
C833 C 0.80027 0.05562 0.86466 0.0
C834 C 0.78394 0.07217 0.85374 0.0
C835 C 0.79848 0.08237 0.84368 0.0
C836 C 0.82938 0.07605 0.84457 0.0
C837 C 0.84583 0.05949 0.85544 0.0
H838 H 0.78579 0.09517 0.83522 0.0
H839 H 0.9204 0.93744 0.9528 0.0
H840 H 0.07085 0.97161 0.031 0.0
H841 H 0.11169 0.97165 0.05578 0.0
H842 H 0.04852 1.00155 0.10847 0.0
H843 H 0.00795 0.00278 0.08306 0.0
H844 H 0.08254 0.01776 0.10073 0.0
H845 H 0.09866 0.95534 0.11398 0.0
H846 H 0.10786 0.92374 0.10311 0.0
H847 H 0.18972 0.91838 0.07034 0.0
H848 H 0.18081 0.95005 0.08077 0.0
H849 H 0.16734 0.99617 0.20447 0.0
H850 H 0.13754 0.99449 0.17116 0.0
H851 H 0.2026 0.99952 0.12404 0.0
H852 H 0.23244 1.00187 0.15764 0.0
H853 H 0.17411 0.96608 0.12399 0.0
H854 H 0.15953 0.02827 0.1104 0.0
H855 H 0.14906 0.06038 0.11918 0.0
H856 H 0.06503 0.06667 0.14869 0.0
H857 H 0.0753 0.03447 0.14054 0.0
C858 C 0.06585 0.97823 0.04785 0.0
C859 C 0.03637 0.98778 0.05481 0.0
C860 C 0.08916 0.97801 0.06215 0.0
C861 C 0.08319 0.98674 0.08396 0.0
C862 C 0.05369 0.99496 0.09158 0.0
C863 C 0.03051 0.99558 0.0771 0.0
C864 C 0.10703 0.98888 0.09806 0.0
C865 C 0.10277 0.00647 0.10543 0.0
C866 C 0.13354 0.97415 0.10417 0.0
C867 C 0.13889 0.95513 0.09791 0.0
C868 C 0.11849 0.94747 0.10428 0.0
C869 C 0.12368 0.92954 0.09824 0.0
C870 C 0.1493 0.91908 0.08597 0.0
C871 C 0.16985 0.92651 0.0798 0.0
C872 C 0.16476 0.94444 0.08578 0.0
C873 C 0.17532 0.99701 0.18704 0.0
C874 C 0.20224 0.99906 0.18358 0.0
C875 C 0.15823 0.9961 0.16807 0.0
C876 C 0.16792 0.99694 0.1453 0.0
C877 C 0.19479 0.99899 0.1416 0.0
C878 C 0.2117 1.00033 0.16071 0.0
C879 C 0.14975 0.99502 0.12582 0.0
C880 C 0.15462 0.97744 0.11802 0.0
C881 C 0.12397 0.0098 0.11885 0.0
C882 C 0.1185 0.02882 0.1253 0.0
C883 C 0.13915 0.03636 0.11928 0.0
C884 C 0.13315 0.05463 0.12399 0.0
C885 C 0.10647 0.06553 0.1346 0.0
C886 C 0.08576 0.05818 0.14057 0.0
C887 C 0.09168 0.03992 0.13594 0.0
H888 H 0.10178 0.0797 0.13809 0.0
H889 H 0.15328 0.9052 0.08131 0.0
H890 H 0.97272 0.4489 0.49058 0.0
H891 H 0.97333 0.42294 0.46823 0.0
H892 H 0.04091 0.42734 0.42318 0.0
H893 H 0.04002 0.45369 0.44532 0.0
H894 H -0.00082 0.42454 0.39795 0.0
H895 H 0.05185 0.39187 0.46706 0.0
H896 H 0.05713 0.38525 0.50928 0.0
H897 H 0.97793 0.37428 0.50849 0.0
H898 H 0.97195 0.38109 0.46635 0.0
H899 H 0.05372 0.34153 0.33951 0.0
H900 H 0.04563 0.36732 0.36515 0.0
H901 H 0.97261 0.35892 0.39792 0.0
H902 H 0.98111 0.33261 0.37245 0.0
H903 H 0.00927 0.36467 0.42994 0.0
H904 H 0.95799 0.3941 0.36203 0.0
H905 H 0.94971 0.401 0.32005 0.0
H906 H 0.02193 0.41881 0.31876 0.0
H907 H 0.03095 0.41176 0.36068 0.0
C908 C 0.98797 0.44428 0.47606 0.0
C909 C 0.00621 0.45349 0.46963 0.0
C910 C 0.98839 0.42931 0.46334 0.0
C911 C 0.00715 0.42312 0.44398 0.0
C912 C 0.02608 0.43193 0.43798 0.0
C913 C 0.02566 0.44695 0.4507 0.0
C914 C 0.00585 0.40823 0.42908 0.0
C915 C 0.00189 0.41135 0.40495 0.0
C916 C 0.00755 0.39136 0.4383 0.0
C917 C 0.01135 0.38712 0.46359 0.0
C918 C 0.03548 0.38815 0.47592 0.0
C919 C 0.03859 0.38436 0.49984 0.0
C920 C 0.01783 0.3794 0.51157 0.0
C921 C 0.99396 0.37816 0.4994 0.0
C922 C 0.99072 0.38196 0.4755 0.0
C923 C 0.03603 0.34508 0.35225 0.0
C924 C 0.01817 0.33498 0.35409 0.0
C925 C 0.03124 0.35994 0.36674 0.0
C926 C 0.00834 0.36514 0.38328 0.0
C927 C 0.99034 0.35514 0.38519 0.0
C928 C 0.99509 0.34023 0.37058 0.0
C929 C 0.00406 0.38077 0.39883 0.0
C930 C 0.00659 0.37787 0.42302 0.0
C931 C 0.00066 0.39793 0.38974 0.0
C932 C 0.99528 0.40227 0.3645 0.0
C933 C 0.97226 0.39936 0.35277 0.0
C934 C 0.96741 0.40332 0.32899 0.0
C935 C 0.98532 0.4103 0.31674 0.0
C936 C 0.00808 0.41339 0.32827 0.0
C937 C 0.01305 0.40943 0.35206 0.0
H938 H 0.98152 0.41336 0.29832 0.0
H939 H 0.02028 0.37648 0.53008 0.0
H940 H 0.66589 0.2665 0.52346 0.0
H941 H 0.63099 0.26826 0.55451 0.0
H942 H 0.68425 0.28379 0.60305 0.0
H943 H 0.71904 0.28254 0.57151 0.0
H944 H 0.67288 0.25118 0.61434 0.0
H945 H 0.62108 0.3138 0.59309 0.0
H946 H 0.59694 0.33929 0.56598 0.0
H947 H 0.53353 0.31669 0.54702 0.0
H948 H 0.55757 0.2909 0.57377 0.0
H949 H 0.57849 0.26809 0.71233 0.0
H950 H 0.6083 0.27142 0.67994 0.0
H951 H 0.5546 0.25624 0.63141 0.0
H952 H 0.52472 0.25251 0.66401 0.0
H953 H 0.56529 0.28924 0.6199 0.0
H954 H 0.61635 0.22653 0.63749 0.0
H955 H 0.64007 0.19951 0.66232 0.0
H956 H 0.70409 0.2204 0.68549 0.0
H957 H 0.68051 0.24768 0.66096 0.0
C958 C 0.66968 0.27085 0.54048 0.0
C959 C 0.69504 0.27443 0.545 0.0
C960 C 0.64976 0.27182 0.55825 0.0
C961 C 0.65512 0.27615 0.58099 0.0
C962 C 0.67979 0.28049 0.5855 0.0
C963 C 0.69949 0.27986 0.5675 0.0
C964 C 0.6366 0.27417 0.60022 0.0
C965 C 0.64949 0.25973 0.6159 0.0
C966 C 0.60586 0.28481 0.60137 0.0
C967 C 0.59131 0.30032 0.58529 0.0
C968 C 0.60216 0.31416 0.58298 0.0
C969 C 0.58845 0.32869 0.56771 0.0
C970 C 0.56376 0.32959 0.55474 0.0
C971 C 0.55268 0.31597 0.55706 0.0
C972 C 0.56632 0.3014 0.57229 0.0
C973 C 0.57298 0.26543 0.69478 0.0
C974 C 0.54924 0.26009 0.69063 0.0
C975 C 0.59008 0.26729 0.67634 0.0
C976 C 0.58355 0.26407 0.65341 0.0
C977 C 0.55983 0.25879 0.64908 0.0
C978 C 0.54295 0.25659 0.66765 0.0
C979 C 0.60169 0.26641 0.63413 0.0
C980 C 0.58873 0.28079 0.61841 0.0
C981 C 0.63229 0.25554 0.63264 0.0
C982 C 0.64644 0.23926 0.64761 0.0
C983 C 0.63528 0.22546 0.64808 0.0
C984 C 0.64876 0.21007 0.66204 0.0
C985 C 0.6735 0.20827 0.67555 0.0
C986 C 0.68488 0.22184 0.67505 0.0
C987 C 0.67149 0.23726 0.6611 0.0
H988 H 0.68392 0.19634 0.68634 0.0
H989 H 0.55317 0.34085 0.54294 0.0
H990 H 0.75428 0.93615 0.89285 0.0
H991 H 0.75527 0.91324 0.9219 0.0
H992 H 0.72717 0.88487 0.86917 0.0
H993 H 0.72563 0.90768 0.84037 0.0
H994 H 0.69405 0.89066 0.90946 0.0
H995 H 0.7988 0.87056 0.88805 0.0
H996 H 0.84657 0.87408 0.88551 0.0
H997 H 0.84706 0.88061 0.95985 0.0
H998 H 0.79887 0.87765 0.96279 0.0
H999 H 0.71772 0.80312 0.9465 0.0
H1000 H 0.71564 0.83099 0.92789 0.0
H1001 H 0.76312 0.8413 0.98598 0.0
H1002 H 0.76684 0.81267 0.00399 0.0
H1003 H 0.78434 0.84898 0.95007 0.0
H1004 H 0.68505 0.86716 0.97444 0.0
H1005 H 0.63632 0.8655 0.98057 0.0
H1006 H 0.6233 0.86555 0.90647 0.0
H1007 H 0.67214 0.86696 0.89986 0.0
C1008 C 0.74837 0.92499 0.88749 0.0
C1009 C 0.74004 0.9237 0.86423 0.0
C1010 C 0.7491 0.91188 0.90406 0.0
C1011 C 0.74136 0.89731 0.89768 0.0
C1012 C 0.73325 0.89597 0.87449 0.0
C1013 C 0.73267 0.90895 0.85797 0.0
C1014 C 0.74069 0.88358 0.91497 0.0
C1015 C 0.71381 0.88145 0.91826 0.0
C1016 C 0.7661 0.87225 0.92747 0.0
C1017 C 0.79497 0.87416 0.92558 0.0
C1018 C 0.80887 0.873 0.90382 0.0
C1019 C 0.83605 0.87488 0.90232 0.0
C1020 C 0.84974 0.87769 0.92249 0.0
C1021 C 0.83634 0.87855 0.94422 0.0
C1022 C 0.80907 0.87681 0.94581 0.0
C1023 C 0.72728 0.81147 0.95551 0.0
C1024 C 0.74211 0.80581 0.97684 0.0
C1025 C 0.72593 0.82753 0.9449 0.0
C1026 C 0.73848 0.83867 0.95574 0.0
C1027 C 0.75305 0.8331 0.97726 0.0
C1028 C 0.75505 0.81676 0.98761 0.0
C1029 C 0.73787 0.85544 0.94379 0.0
C1030 C 0.76438 0.85828 0.94161 0.0
C1031 C 0.71189 0.86781 0.93283 0.0
C1032 C 0.68237 0.86707 0.93667 0.0
C1033 C 0.67188 0.86671 0.95945 0.0
C1034 C 0.64422 0.86583 0.96301 0.0
C1035 C 0.62674 0.8654 0.94392 0.0
C1036 C 0.63686 0.86589 0.92123 0.0
C1037 C 0.66451 0.86676 0.91757 0.0
H1038 H 0.60534 0.8647 0.94672 0.0
H1039 H 0.87079 0.87913 0.92129 0.0
H1040 H 0.18526 0.28581 0.04072 0.0
H1041 H 0.14554 0.28601 0.06716 0.0
H1042 H 0.20282 0.23357 0.09402 0.0
H1043 H 0.24241 0.23346 0.06804 0.0
H1044 H 0.11599 0.26274 0.07399 0.0
H1045 H 0.19438 0.23374 0.15207 0.0
H1046 H 0.2425 0.23254 0.16676 0.0
H1047 H 0.22891 0.2827 0.13169 0.0
H1048 H 0.18056 0.28432 0.11705 0.0
H1049 H 0.04726 0.23504 0.17031 0.0
H1050 H 0.07844 0.23683 0.13764 0.0
H1051 H 0.08556 0.28418 0.16862 0.0
H1052 H 0.05494 0.28244 0.20118 0.0
H1053 H 0.13872 0.25872 0.15872 0.0
H1054 H 0.04494 0.28792 0.12014 0.0
H1055 H 0.99606 0.29064 0.10545 0.0
H1056 H 0.03769 0.24377 0.06208 0.0
H1057 H 0.08683 0.2406 0.07678 0.0
C1058 C 0.18916 0.27436 0.05227 0.0
C1059 C 0.2168 0.25974 0.05265 0.0
C1060 C 0.16653 0.27442 0.06718 0.0
C1061 C 0.17143 0.25988 0.08264 0.0
C1062 C 0.19878 0.24502 0.08243 0.0
C1063 C 0.22138 0.24503 0.06771 0.0
C1064 C 0.14881 0.26066 0.1001 0.0
C1065 C 0.12084 0.26188 0.09253 0.0
C1066 C 0.15521 0.25969 0.12424 0.0
C1067 C 0.18399 0.25905 0.13332 0.0
C1068 C 0.20161 0.24455 0.1476 0.0
C1069 C 0.22893 0.24379 0.15589 0.0
C1070 C 0.23879 0.25751 0.1501 0.0
C1071 C 0.22129 0.27206 0.13609 0.0
C1072 C 0.19395 0.27289 0.12777 0.0
C1073 C 0.05521 0.24594 0.16998 0.0
C1074 C 0.04897 0.25846 0.18845 0.0
C1075 C 0.07289 0.24699 0.15129 0.0
C1076 C 0.0843 0.26063 0.1508 0.0
C1077 C 0.07709 0.2735 0.16877 0.0
C1078 C 0.05961 0.27244 0.18739 0.0
C1079 C 0.10573 0.26078 0.13273 0.0
C1080 C 0.13369 0.25961 0.1402 0.0
C1081 C 0.09907 0.26203 0.1086 0.0
C1082 C 0.06955 0.2639 0.09977 0.0
C1083 C 0.04366 0.27808 0.10765 0.0
C1084 C 0.01591 0.27973 0.09928 0.0
C1085 C 0.01376 0.26735 0.0829 0.0
C1086 C 0.03938 0.25333 0.0748 0.0
C1087 C 0.06719 0.2516 0.08314 0.0
H1088 H 0.99225 0.26866 0.07643 0.0
H1089 H 0.25996 0.25688 0.15652 0.0
H1090 H 0.76685 0.41545 0.3651 0.0
H1091 H 0.76595 0.39199 0.39215 0.0
H1092 H 0.67054 0.41712 0.39471 0.0
H1093 H 0.67112 0.44043 0.36723 0.0
H1094 H 0.69654 0.40338 0.43868 0.0
H1095 H 0.69776 0.38343 0.36013 0.0
H1096 H 0.71527 0.378 0.31943 0.0
H1097 H 0.80122 0.3417 0.34302 0.0
H1098 H 0.7843 0.3471 0.38388 0.0
H1099 H 0.67845 0.31924 0.46984 0.0
H1100 H 0.67425 0.34798 0.45149 0.0
H1101 H 0.76949 0.32963 0.45056 0.0
H1102 H 0.77397 0.30127 0.46907 0.0
H1103 H 0.74012 0.34092 0.40623 0.0
H1104 H 0.73641 0.36106 0.48593 0.0
H1105 H 0.71657 0.36683 0.52598 0.0
H1106 H 0.63191 0.40271 0.49956 0.0
H1107 H 0.65116 0.39695 0.45928 0.0
C1108 C 0.74566 0.41606 0.37146 0.0
C1109 C 0.71905 0.42974 0.36372 0.0
C1110 C 0.7452 0.40271 0.38705 0.0
C1111 C 0.71816 0.40273 0.39526 0.0
C1112 C 0.69164 0.4169 0.38866 0.0
C1113 C 0.69206 0.43024 0.37296 0.0
C1114 C 0.7176 0.38704 0.40887 0.0
C1115 C 0.70575 0.38974 0.43153 0.0
C1116 C 0.72961 0.36927 0.39956 0.0
C1117 C 0.73986 0.3658 0.37504 0.0
C1118 C 0.72046 0.37439 0.35663 0.0
C1119 C 0.73025 0.3713 0.33353 0.0
C1120 C 0.75933 0.35954 0.32864 0.0
C1121 C 0.77869 0.35081 0.34681 0.0
C1122 C 0.76901 0.35386 0.36995 0.0
C1123 C 0.69845 0.32146 0.46604 0.0
C1124 C 0.72652 0.3079 0.47086 0.0
C1125 C 0.69601 0.33788 0.45563 0.0
C1126 C 0.72159 0.34087 0.44969 0.0
C1127 C 0.74951 0.32758 0.45503 0.0
C1128 C 0.75197 0.31136 0.46568 0.0
C1129 C 0.71964 0.35714 0.43623 0.0
C1130 C 0.73089 0.35454 0.41344 0.0
C1131 C 0.70673 0.37495 0.4454 0.0
C1132 C 0.69511 0.37839 0.46957 0.0
C1133 C 0.71347 0.37003 0.48863 0.0
C1134 C 0.70236 0.37333 0.51138 0.0
C1135 C 0.67297 0.38508 0.51531 0.0
C1136 C 0.65466 0.39359 0.49649 0.0
C1137 C 0.66566 0.39032 0.4737 0.0
H1138 H 0.66441 0.38763 0.53294 0.0
H1139 H 0.76674 0.35721 0.31074 0.0
H1140 H 0.51153 0.01949 0.57921 0.0
H1141 H 0.55434 0.02011 0.6001 0.0
H1142 H 0.61165 0.97361 0.5609 0.0
H1143 H 0.56822 0.97256 0.54038 0.0
H1144 H 0.62343 0.96801 0.6049 0.0
H1145 H 0.63409 0.01686 0.55803 0.0
H1146 H 0.6185 0.04562 0.53611 0.0
H1147 H 0.55861 0.07322 0.59119 0.0
H1148 H 0.57525 0.04475 0.61414 0.0
H1149 H 0.7228 0.01222 0.66822 0.0
H1150 H 0.69569 0.00893 0.63386 0.0
H1151 H 0.64796 0.98492 0.67673 0.0
H1152 H 0.67569 0.98753 0.71085 0.0
H1153 H 0.64107 0.02363 0.62349 0.0
H1154 H 0.62699 0.95611 0.64701 0.0
H1155 H 0.65586 0.92688 0.66617 0.0
H1156 H 0.73676 0.93355 0.65034 0.0
H1157 H 0.70845 0.96267 0.63075 0.0
C1158 C 0.53328 0.00948 0.57487 0.0
C1159 C 0.53665 0.99594 0.55823 0.0
C1160 C 0.55786 0.01006 0.58655 0.0
C1161 C 0.58639 0.99717 0.58176 0.0
C1162 C 0.58989 0.98383 0.56471 0.0
C1163 C 0.56516 0.98323 0.553 0.0
C1164 C 0.61153 0.99636 0.59684 0.0
C1165 C 0.62756 0.98011 0.60878 0.0
C1166 C 0.61757 0.01194 0.6016 0.0
C1167 C 0.6052 0.02863 0.58739 0.0
C1168 C 0.61724 0.02901 0.56528 0.0
C1169 C 0.60849 0.04529 0.55283 0.0
C1170 C 0.5869 0.06113 0.56194 0.0
C1171 C 0.57481 0.06086 0.58396 0.0
C1172 C 0.58418 0.0447 0.59683 0.0
C1173 C 0.70666 0.00613 0.67026 0.0
C1174 C 0.70141 1.00009 0.6922 0.0
C1175 C 0.69122 0.00424 0.65062 0.0
C1176 C 0.67011 0.99642 0.65263 0.0
C1177 C 0.6647 0.99053 0.67459 0.0
C1178 C 0.68042 0.99217 0.69414 0.0
C1179 C 0.65232 0.99544 0.63214 0.0
C1180 C 0.63747 0.01139 0.61936 0.0
C1181 C 0.64829 0.97936 0.62612 0.0
C1182 C 0.66553 0.96166 0.63753 0.0
C1183 C 0.65095 0.9513 0.64747 0.0
C1184 C 0.66722 0.93475 0.65844 0.0
C1185 C 0.69812 0.92839 0.65951 0.0
C1186 C 0.71282 0.93852 0.64956 0.0
C1187 C 0.69667 0.95506 0.63854 0.0
H1188 H 0.71066 0.91557 0.66801 0.0
H1189 H 0.57967 0.0736 0.55194 0.0
H1190 H 0.96684 0.95729 0.96462 0.0
H1191 H 0.97319 0.92951 0.94332 0.0
H1192 H 0.06759 0.90962 0.95362 0.0
H1193 H 0.06173 0.93752 0.97455 0.0
H1194 H 0.05238 0.90576 0.90836 0.0
H1195 H 0.024 0.89289 0.98551 0.0
H1196 H 0.99144 0.8993 0.02006 0.0
H1197 H 0.91909 0.90039 0.97687 0.0
H1198 H 0.95084 0.89446 0.94216 0.0
H1199 H 0.07956 0.81969 0.86157 0.0
H1200 H 0.07746 0.84381 0.88799 0.0
H1201 H 0.98224 0.86202 0.89141 0.0
H1202 H 0.98434 0.83667 0.86695 0.0
H1203 H -4e-05 0.86614 0.93118 0.0
H1204 H 0.02115 0.88235 0.85503 0.0
H1205 H 0.04816 0.87833 0.81777 0.0
H1206 H 0.12688 0.87433 0.85456 0.0
H1207 H 0.10043 0.87807 0.89208 0.0
C1208 C 0.98893 0.94692 0.96267 0.0
C1209 C 0.01376 0.94956 0.97148 0.0
C1210 C 0.99245 0.93108 0.95052 0.0
C1211 C 0.02069 0.91744 0.94722 0.0
C1212 C 0.04555 0.91996 0.95606 0.0
C1213 C 0.04212 0.93588 0.9681 0.0
C1214 C 0.02417 0.90081 0.93393 0.0
C1215 C 0.04137 0.89688 0.91354 0.0
C1216 C 0.00882 0.88968 0.94019 0.0
C1217 C 0.98979 0.89328 0.96123 0.0
C1218 C 0.00106 0.89464 0.9834 0.0
C1219 C 0.98271 0.89822 0.00303 0.0
C1220 C 0.95316 0.9003 0.0007 0.0
C1221 C 0.94188 0.89885 0.97875 0.0
C1222 C 0.96005 0.89536 0.95908 0.0
C1223 C 0.05815 0.8284 0.8684 0.0
C1224 C 0.03207 0.82609 0.86184 0.0
C1225 C 0.05697 0.84252 0.88321 0.0
C1226 C 0.02963 0.85514 0.89118 0.0
C1227 C 0.00364 0.8526 0.88532 0.0
C1228 C 0.00486 0.83817 0.87101 0.0
C1229 C 0.02805 0.87106 0.90542 0.0
C1230 C 0.01121 0.87488 0.926 0.0
C1231 C 0.04297 0.88243 0.89892 0.0
C1232 C 0.05889 0.8803 0.87638 0.0
C1233 C 0.04427 0.88049 0.85518 0.0
C1234 C 0.05948 0.87828 0.83401 0.0
C1235 C 0.08924 0.87603 0.8338 0.0
C1236 C 0.10384 0.87605 0.85476 0.0
C1237 C 0.08875 0.87822 0.87598 0.0
H1238 H 0.10098 0.87432 0.8174 0.0
H1239 H 0.93906 0.90293 0.01591 0.0
H1240 H 0.11033 0.06313 0.01436 0.0
H1241 H 0.11253 0.0932 0.01502 0.0
H1242 H 0.10369 0.09638 0.94002 0.0
H1243 H 0.10195 0.06615 0.93934 0.0
H1244 H 0.14429 0.10817 0.95347 0.0
H1245 H 0.04668 0.11895 0.97276 0.0
H1246 H 0.00338 0.11667 0.99215 0.0
H1247 H 0.02734 0.13491 0.0564 0.0
H1248 H 0.07155 0.13658 0.03776 0.0
H1249 H 0.08272 0.21173 0.98311 0.0
H1250 H 0.07453 0.18364 0.97769 0.0
H1251 H 0.16564 0.15223 0.99616 0.0
H1252 H 0.17427 0.18017 0.0009 0.0
H1253 H 0.0779 0.15655 0.00539 0.0
H1254 H 0.19101 0.11292 0.95857 0.0
H1255 H 0.22659 0.11789 0.93192 0.0
H1256 H 0.16057 0.16949 0.91159 0.0
H1257 H 0.12421 0.16458 0.93744 0.0
C1258 C 0.10927 0.07016 0.99805 0.0
C1259 C 0.10599 0.06235 0.97685 0.0
C1260 C 0.11021 0.08739 0.99843 0.0
C1261 C 0.1079 0.09709 0.97758 0.0
C1262 C 0.10539 0.08913 0.9563 0.0
C1263 C 0.10429 0.07193 0.95594 0.0
C1264 C 0.10839 0.11549 0.97808 0.0
C1265 C 0.12992 0.11876 0.96488 0.0
C1266 C 0.08853 0.12952 0.9921 0.0
C1267 C 0.06271 0.12772 0.00385 0.0
C1268 C 0.0431 0.12214 0.99115 0.0
C1269 C 0.01835 0.12097 0.00202 0.0
C1270 C 0.01264 0.12562 0.02551 0.0
C1271 C 0.03185 0.13126 0.03825 0.0
C1272 C 0.05684 0.13226 0.02755 0.0
C1273 C 0.101 0.19883 0.98601 0.0
C1274 C 0.12915 0.19817 0.99233 0.0
C1275 C 0.09625 0.18282 0.98303 0.0
C1276 C 0.11961 0.16587 0.98617 0.0
C1277 C 0.14747 0.16517 0.99327 0.0
C1278 C 0.15224 0.18116 0.99626 0.0
C1279 C 0.11502 0.14888 0.98183 0.0
C1280 C 0.09251 0.14592 0.99415 0.0
C1281 C 0.13318 0.13542 0.96618 0.0
C1282 C 0.15497 0.13854 0.95047 0.0
C1283 C 0.18396 0.1253 0.94835 0.0
C1284 C 0.20429 0.12809 0.93332 0.0
C1285 C 0.19594 0.14407 0.92023 0.0
C1286 C 0.16712 0.15719 0.92193 0.0
C1287 C 0.14663 0.15441 0.9368 0.0
H1288 H 0.21176 0.14623 0.90868 0.0
H1289 H 0.9932 0.12501 0.03376 0.0
H1290 H 0.64903 0.54943 0.23748 0.0
H1291 H 0.62208 0.58245 0.23675 0.0
H1292 H 0.70097 0.58945 0.25954 0.0
H1293 H 0.72814 0.5564 0.25984 0.0
H1294 H 0.60925 0.60699 0.27115 0.0
H1295 H 0.7009 0.62909 0.23933 0.0
H1296 H 0.74702 0.61678 0.21626 0.0
H1297 H 0.71131 0.58458 0.1762 0.0
H1298 H 0.66503 0.59679 0.19886 0.0
H1299 H 0.60489 0.70603 0.25746 0.0
H1300 H 0.63186 0.67312 0.25619 0.0
H1301 H 0.54992 0.66641 0.24273 0.0
H1302 H 0.52269 0.69932 0.2457 0.0
H1303 H 0.64331 0.64842 0.22632 0.0
H1304 H 0.55145 0.62648 0.26233 0.0
H1305 H 0.50852 0.63797 0.28896 0.0
H1306 H 0.54815 0.66985 0.3253 0.0
H1307 H 0.59147 0.65837 0.2991 0.0
C1308 C 0.66069 0.55802 0.24213 0.0
C1309 C 0.69074 0.55033 0.2486 0.0
C1310 C 0.64522 0.57691 0.24182 0.0
C1311 C 0.65945 0.58854 0.24792 0.0
C1312 C 0.68955 0.58084 0.25437 0.0
C1313 C 0.70509 0.56193 0.25456 0.0
C1314 C 0.64258 0.60866 0.24783 0.0
C1315 C 0.61647 0.61604 0.26108 0.0
C1316 C 0.65242 0.62059 0.23537 0.0
C1317 C 0.67964 0.61374 0.22092 0.0
C1318 C 0.70286 0.61947 0.22548 0.0
C1319 C 0.72907 0.61247 0.21252 0.0
C1320 C 0.73222 0.59981 0.19486 0.0
C1321 C 0.70902 0.59427 0.18996 0.0
C1322 C 0.68279 0.60123 0.20286 0.0
C1323 C 0.5926 0.69752 0.2543 0.0
C1324 C 0.56162 0.70527 0.25175 0.0
C1325 C 0.60809 0.67866 0.25347 0.0
C1326 C 0.59305 0.66706 0.24975 0.0
C1327 C 0.56213 0.67489 0.24629 0.0
C1328 C 0.54654 0.69376 0.24769 0.0
C1329 C 0.60979 0.64688 0.24965 0.0
C1330 C 0.63592 0.63945 0.23638 0.0
C1331 C 0.60029 0.63492 0.26252 0.0
C1332 C 0.57453 0.64171 0.27858 0.0
C1333 C 0.55104 0.63589 0.27606 0.0
C1334 C 0.52664 0.64241 0.29107 0.0
C1335 C 0.52556 0.65468 0.30875 0.0
C1336 C 0.54896 0.6604 0.31154 0.0
C1337 C 0.57343 0.6539 0.29661 0.0
H1338 H 0.50663 0.65973 0.32033 0.0
H1339 H 0.75262 0.59434 0.185 0.0
H1340 H 0.33192 0.81466 0.46841 0.0
H1341 H 0.33817 0.84339 0.47053 0.0
H1342 H 0.43265 0.81446 0.47853 0.0
H1343 H 0.42625 0.78551 0.47701 0.0
H1344 H 0.41127 0.83879 0.51192 0.0
H1345 H 0.40151 0.84245 0.42676 0.0
H1346 H 0.37633 0.8404 0.39019 0.0
H1347 H 0.2946 0.88023 0.41593 0.0
H1348 H 0.3194 0.88295 0.45218 0.0
H1349 H 0.44255 0.91749 0.51545 0.0
H1350 H 0.44027 0.88877 0.50341 0.0
H1351 H 0.34574 0.91571 0.49344 0.0
H1352 H 0.34831 0.9448 0.50425 0.0
H1353 H 0.36881 0.89217 0.45943 0.0
H1354 H 0.37558 0.88999 0.54268 0.0
H1355 H 0.39643 0.89222 0.58117 0.0
H1356 H 0.47856 0.84894 0.56272 0.0
H1357 H 0.45832 0.84663 0.52396 0.0
C1358 C 0.35414 0.81439 0.46978 0.0
C1359 C 0.37862 0.79785 0.47244 0.0
C1360 C 0.35772 0.83087 0.47101 0.0
C1361 C 0.38595 0.83115 0.47447 0.0
C1362 C 0.41066 0.81459 0.47585 0.0
C1363 C 0.40702 0.79808 0.47492 0.0
C1364 C 0.38915 0.8486 0.47918 0.0
C1365 C 0.4026 0.85033 0.50017 0.0
C1366 C 0.37674 0.86391 0.46441 0.0
C1367 C 0.36228 0.86291 0.44211 0.0
C1368 C 0.37821 0.85085 0.42448 0.0
C1369 C 0.36402 0.84959 0.40378 0.0
C1370 C 0.33391 0.86017 0.40066 0.0
C1371 C 0.31795 0.87216 0.41815 0.0
C1372 C 0.33211 0.87369 0.43871 0.0
C1373 C 0.42132 0.9173 0.51053 0.0
C1374 C 0.39561 0.93334 0.51075 0.0
C1375 C 0.42 0.90086 0.5038 0.0
C1376 C 0.39276 0.9 0.49789 0.0
C1377 C 0.36701 0.91604 0.49795 0.0
C1378 C 0.36846 0.93262 0.50416 0.0
C1379 C 0.39119 0.88228 0.49207 0.0
C1380 C 0.37793 0.88054 0.471 0.0
C1381 C 0.40336 0.867 0.50699 0.0
C1382 C 0.41553 0.86826 0.53034 0.0
C1383 C 0.39816 0.88103 0.54677 0.0
C1384 C 0.40986 0.8823 0.56864 0.0
C1385 C 0.43883 0.87076 0.57437 0.0
C1386 C 0.45613 0.85789 0.55825 0.0
C1387 C 0.44455 0.85658 0.53633 0.0
H1388 H 0.44785 0.87176 0.59131 0.0
H1389 H 0.32298 0.85903 0.38469 0.0
H1390 H 0.10156 0.70666 0.73291 0.0
H1391 H 0.12558 0.67353 0.73039 0.0
H1392 H 0.04393 0.66909 0.75113 0.0
H1393 H 0.01991 0.70232 0.75394 0.0
H1394 H 0.08909 0.64594 0.77547 0.0
H1395 H 0.06899 0.66001 0.6956 0.0
H1396 H 0.06747 0.67561 0.6582 0.0
H1397 H 0.16263 0.65392 0.65619 0.0
H1398 H 0.16472 0.63842 0.69383 0.0
H1399 H 0.13834 0.55138 0.74617 0.0
H1400 H 0.11156 0.58434 0.74262 0.0
H1401 H 0.1944 0.59146 0.74414 0.0
H1402 H 0.22127 0.5585 0.74876 0.0
H1403 H 0.14692 0.61272 0.707 0.0
H1404 H 0.16398 0.60035 0.79005 0.0
H1405 H 0.16217 0.5844 0.82652 0.0
H1406 H 0.06761 0.60262 0.82026 0.0
H1407 H 0.06894 0.61845 0.78352 0.0
C1408 C 0.08868 0.69862 0.73679 0.0
C1409 C 0.05889 0.70706 0.74366 0.0
C1410 C 0.10239 0.67967 0.73522 0.0
C1411 C 0.08658 0.66873 0.74043 0.0
C1412 C 0.05664 0.67719 0.74703 0.0
C1413 C 0.04289 0.69618 0.74855 0.0
C1414 C 0.10176 0.64849 0.74004 0.0
C1415 C 0.10134 0.63871 0.76033 0.0
C1416 C 0.11806 0.63895 0.7204 0.0
C1417 C 0.117 0.64821 0.69771 0.0
C1418 C 0.0896 0.6587 0.68731 0.0
C1419 C 0.08863 0.66751 0.66604 0.0
C1420 C 0.11494 0.66582 0.65486 0.0
C1421 C 0.14227 0.65526 0.6649 0.0
C1422 C 0.14336 0.64644 0.68621 0.0
C1423 C 0.15089 0.55994 0.74564 0.0
C1424 C 0.18197 0.55232 0.74766 0.0
C1425 C 0.13555 0.57877 0.74355 0.0
C1426 C 0.15098 0.59034 0.74304 0.0
C1427 C 0.18208 0.58275 0.74435 0.0
C1428 C 0.19741 0.56392 0.74696 0.0
C1429 C 0.13446 0.6104 0.74248 0.0
C1430 C 0.13459 0.62007 0.72203 0.0
C1431 C 0.11744 0.61984 0.76179 0.0
C1432 C 0.11661 0.61039 0.7839 0.0
C1433 C 0.14284 0.60079 0.79632 0.0
C1434 C 0.1419 0.59181 0.81707 0.0
C1435 C 0.1148 0.59244 0.82566 0.0
C1436 C 0.08859 0.60211 0.81356 0.0
C1437 C 0.08942 0.61109 0.79278 0.0
H1438 H 0.11411 0.58548 0.84174 0.0
H1439 H 0.11415 0.67265 0.6384 0.0
H1440 H 0.8877 0.29998 0.4887 0.0
H1441 H 0.89775 0.32774 0.49153 0.0
H1442 H 0.8531 0.33987 0.55804 0.0
H1443 H 0.84332 0.31207 0.55543 0.0
H1444 H 0.83315 0.36868 0.52357 0.0
H1445 H 0.92322 0.32616 0.55863 0.0
H1446 H 0.96914 0.29852 0.55996 0.0
H1447 H 0.00222 0.31672 0.49979 0.0
H1448 H 0.95626 0.34434 0.49784 0.0
H1449 H 0.86538 0.44331 0.56055 0.0
H1450 H 0.85872 0.41467 0.55716 0.0
H1451 H 0.92138 0.39855 0.50028 0.0
H1452 H 0.92952 0.42661 0.50447 0.0
H1453 H 0.93249 0.37141 0.52851 0.0
H1454 H 0.84563 0.41268 0.49134 0.0
H1455 H 0.8 0.44019 0.48654 0.0
H1456 H 0.76098 0.42454 0.54542 0.0
H1457 H 0.80657 0.39705 0.5508 0.0
C1458 C 0.88039 0.3085 0.50403 0.0
C1459 C 0.86484 0.30393 0.52189 0.0
C1460 C 0.88616 0.32427 0.50564 0.0
C1461 C 0.87614 0.33577 0.52499 0.0
C1462 C 0.86101 0.3311 0.543 0.0
C1463 C 0.85564 0.3152 0.54157 0.0
C1464 C 0.88015 0.35316 0.52596 0.0
C1465 C 0.85482 0.36934 0.52496 0.0
C1466 C 0.90852 0.35387 0.52679 0.0
C1467 C 0.93609 0.3372 0.52789 0.0
C1468 C 0.94011 0.32416 0.5455 0.0
C1469 C 0.9662 0.30852 0.54641 0.0
C1470 C 0.98853 0.30582 0.52991 0.0
C1471 C 0.98486 0.31879 0.51251 0.0
C1472 C 0.9588 0.33444 0.5115 0.0
C1473 C 0.87788 0.43363 0.54742 0.0
C1474 C 0.89788 0.43733 0.53275 0.0
C1475 C 0.87379 0.41735 0.5453 0.0
C1476 C 0.88926 0.40455 0.52825 0.0
C1477 C 0.90913 0.40823 0.51351 0.0
C1478 C 0.91347 0.42442 0.51576 0.0
C1479 C 0.88544 0.38708 0.5263 0.0
C1480 C 0.91078 0.37084 0.52705 0.0
C1481 C 0.85709 0.38631 0.52469 0.0
C1482 C 0.82966 0.40289 0.52162 0.0
C1483 C 0.82743 0.41518 0.5034 0.0
C1484 C 0.80155 0.43076 0.50055 0.0
C1485 C 0.77764 0.43413 0.5157 0.0
C1486 C 0.77954 0.42192 0.53371 0.0
C1487 C 0.80539 0.40633 0.53667 0.0
H1488 H 0.75761 0.44619 0.51345 0.0
H1489 H 0.00872 0.29371 0.53067 0.0
H1490 H 0.35313 0.95429 0.25008 0.0
H1491 H 0.37871 0.9214 0.2543 0.0
H1492 H 0.29545 0.91517 0.24757 0.0
H1493 H 0.26964 0.94829 0.2428 0.0
H1494 H 0.3348 0.89313 0.28424 0.0
H1495 H 0.33642 0.90618 0.20233 0.0
H1496 H 0.34544 0.92211 0.16816 0.0
H1497 H 0.43769 0.90335 0.1861 0.0
H1498 H 0.42912 0.88753 0.22062 0.0
H1499 H 0.39457 0.79816 0.25673 0.0
H1500 H 0.36719 0.83104 0.25995 0.0
H1501 H 0.44901 0.83909 0.25309 0.0
H1502 H 0.47639 0.80618 0.24948 0.0
H1503 H 0.40927 0.86053 0.22403 0.0
H1504 H 0.40967 0.84762 0.3052 0.0
H1505 H 0.40219 0.83323 0.34136 0.0
H1506 H 0.30895 0.85207 0.32701 0.0
H1507 H 0.31588 0.86654 0.29064 0.0
C1508 C 0.34018 0.94596 0.24958 0.0
C1509 C 0.30936 0.95388 0.24601 0.0
C1510 C 0.35486 0.92715 0.25201 0.0
C1511 C 0.33906 0.91579 0.25109 0.0
C1512 C 0.30809 0.92368 0.24833 0.0
C1513 C 0.29337 0.94257 0.2456 0.0
C1514 C 0.35532 0.89569 0.25199 0.0
C1515 C 0.35074 0.8859 0.27091 0.0
C1516 C 0.37683 0.88638 0.23499 0.0
C1517 C 0.38206 0.89583 0.2142 0.0
C1518 C 0.35857 0.90559 0.19912 0.0
C1519 C 0.36362 0.91457 0.17966 0.0
C1520 C 0.3921 0.91378 0.175 0.0
C1521 C 0.41563 0.90397 0.18976 0.0
C1522 C 0.41069 0.89498 0.20926 0.0
C1523 C 0.40675 0.80694 0.25616 0.0
C1524 C 0.43761 0.7996 0.2527 0.0
C1525 C 0.39108 0.82575 0.25817 0.0
C1526 C 0.40595 0.83765 0.25687 0.0
C1527 C 0.43696 0.83025 0.25411 0.0
C1528 C 0.45263 0.81142 0.25212 0.0
C1529 C 0.38897 0.85777 0.2564 0.0
C1530 C 0.39335 0.86763 0.23744 0.0
C1531 C 0.36753 0.86712 0.27352 0.0
C1532 C 0.36337 0.85795 0.295 0.0
C1533 C 0.38762 0.84851 0.30959 0.0
C1534 C 0.38345 0.84041 0.33018 0.0
C1535 C 0.35513 0.84162 0.3364 0.0
C1536 C 0.33089 0.85107 0.32211 0.0
C1537 C 0.33491 0.85926 0.30152 0.0
H1538 H 0.35195 0.83527 0.35229 0.0
H1539 H 0.39596 0.92074 0.15992 0.0
H1540 H 0.268 0.45071 0.74928 0.0
H1541 H 0.29654 0.41776 0.75109 0.0
H1542 H 0.37697 0.42692 0.76105 0.0
H1543 H 0.3486 0.45973 0.75923 0.0
H1544 H 0.38456 0.40212 0.72768 0.0
H1545 H 0.35054 0.40799 0.80838 0.0
H1546 H 0.31525 0.41578 0.8413 0.0
H1547 H 0.26561 0.38869 0.80747 0.0
H1548 H 0.3011 0.38032 0.77467 0.0
H1549 H 0.47792 0.30919 0.74991 0.0
H1550 H 0.45119 0.34223 0.7533 0.0
H1551 H 0.36789 0.33565 0.74905 0.0
H1552 H 0.39441 0.30281 0.74662 0.0
H1553 H 0.363 0.35945 0.78027 0.0
H1554 H 0.39997 0.35058 0.70161 0.0
H1555 H 0.4382 0.33982 0.67094 0.0
H1556 H 0.48185 0.37256 0.69951 0.0
H1557 H 0.44407 0.38334 0.73055 0.0
C1558 C 0.2917 0.44567 0.75216 0.0
C1559 C 0.30605 0.45782 0.75403 0.0
C1560 C 0.30803 0.42682 0.75327 0.0
C1561 C 0.33901 0.41976 0.75629 0.0
C1562 C 0.35317 0.43195 0.75864 0.0
C1563 C 0.33689 0.45074 0.75764 0.0
C1564 C 0.35691 0.39976 0.7557 0.0
C1565 C 0.38009 0.39281 0.7394 0.0
C1566 C 0.35081 0.38745 0.77048 0.0
C1567 C 0.32825 0.39368 0.78909 0.0
C1568 C 0.33191 0.40388 0.80789 0.0
C1569 C 0.31205 0.40825 0.82659 0.0
C1570 C 0.28835 0.40262 0.82648 0.0
C1571 C 0.28409 0.39293 0.80753 0.0
C1572 C 0.30416 0.38827 0.78898 0.0
C1573 C 0.45392 0.31484 0.74983 0.0
C1574 C 0.43827 0.30342 0.74786 0.0
C1575 C 0.43862 0.33375 0.75158 0.0
C1576 C 0.40739 0.34159 0.751 0.0
C1577 C 0.3919 0.33006 0.74948 0.0
C1578 C 0.40713 0.31124 0.74801 0.0
C1579 C 0.39058 0.36171 0.75214 0.0
C1580 C 0.36756 0.3687 0.7685 0.0
C1581 C 0.39673 0.374 0.73724 0.0
C1582 C 0.41937 0.36762 0.71853 0.0
C1583 C 0.41784 0.35539 0.70144 0.0
C1584 C 0.43941 0.3493 0.68398 0.0
C1585 C 0.46248 0.35546 0.68332 0.0
C1586 C 0.46399 0.36777 0.70007 0.0
C1587 C 0.44249 0.37389 0.71759 0.0
H1588 H 0.47916 0.35073 0.66979 0.0
H1589 H 0.27349 0.40558 0.84118 0.0
H1590 H 0.19378 0.78676 0.54417 0.0
H1591 H 0.15388 0.78688 0.57036 0.0
H1592 H 0.2081 0.73243 0.59277 0.0
H1593 H 0.24794 0.73235 0.56703 0.0
H1594 H 0.14832 0.73795 0.5815 0.0
H1595 H 0.20388 0.765 0.62718 0.0
H1596 H 0.22628 0.78733 0.63455 0.0
H1597 H 0.14072 0.83091 0.62868 0.0
H1598 H 0.11787 0.80883 0.62095 0.0
H1599 H 0.07491 0.72835 0.6846 0.0
H1600 H 0.10867 0.72882 0.65334 0.0
H1601 H 0.06394 0.78725 0.6488 0.0
H1602 H 0.03204 0.78677 0.68144 0.0
H1603 H 0.11735 0.78047 0.64848 0.0
H1604 H 0.06012 0.75388 0.60549 0.0
H1605 H 0.03721 0.73192 0.59735 0.0
H1606 H 0.12318 0.68837 0.59624 0.0
H1607 H 0.14658 0.71002 0.60472 0.0
C1608 C 0.1971 0.77492 0.55484 0.0
C1609 C 0.22382 0.75962 0.55376 0.0
C1610 C 0.17438 0.77496 0.56965 0.0
C1611 C 0.17814 0.75965 0.5834 0.0
C1612 C 0.20479 0.74433 0.58221 0.0
C1613 C 0.22759 0.74439 0.56769 0.0
C1614 C 0.15469 0.75971 0.59966 0.0
C1615 C 0.14149 0.74715 0.59626 0.0
C1616 C 0.14552 0.77203 0.61847 0.0
C1617 C 0.15923 0.78529 0.62323 0.0
C1618 C 0.18989 0.77935 0.62726 0.0
C1619 C 0.20265 0.79196 0.63154 0.0
C1620 C 0.18495 0.81053 0.63201 0.0
C1621 C 0.15441 0.81653 0.62827 0.0
C1622 C 0.14154 0.80397 0.62395 0.0
C1623 C 0.07222 0.74121 0.67663 0.0
C1624 C 0.05107 0.75753 0.68519 0.0
C1625 C 0.09131 0.7415 0.65864 0.0
C1626 C 0.08867 0.75807 0.64831 0.0
C1627 C 0.0666 0.7743 0.65645 0.0
C1628 C 0.04829 0.77405 0.67499 0.0
C1629 C 0.11029 0.75874 0.63045 0.0
C1630 C 0.12348 0.77139 0.63358 0.0
C1631 C 0.11913 0.74662 0.61123 0.0
C1632 C 0.10508 0.73358 0.60595 0.0
C1633 C 0.07412 0.73961 0.60367 0.0
C1634 C 0.06105 0.72721 0.59897 0.0
C1635 C 0.07872 0.70876 0.59635 0.0
C1636 C 0.10951 0.70267 0.59831 0.0
C1637 C 0.12269 0.715 0.60304 0.0
H1638 H 0.06855 0.69918 0.59274 0.0
H1639 H 0.19487 0.82027 0.63533 0.0
H1640 H 0.18082 0.93468 0.36307 0.0
H1641 H 0.18553 0.90991 0.38976 0.0
H1642 H 0.27953 0.88567 0.37618 0.0
H1643 H 0.27518 0.91059 0.35013 0.0
H1644 H 0.25966 0.86087 0.37486 0.0
H1645 H 0.24904 0.90727 0.43006 0.0
H1646 H 0.22686 0.93744 0.4485 0.0
H1647 H 0.14669 0.92911 0.46158 0.0
H1648 H 0.16826 0.89895 0.44293 0.0
H1649 H 0.29011 0.7949 0.46461 0.0
H1650 H 0.28774 0.82141 0.44228 0.0
H1651 H 0.1923 0.84306 0.44592 0.0
H1652 H 0.1945 0.81635 0.46824 0.0
H1653 H 0.21489 0.86927 0.45384 0.0
H1654 H 0.22877 0.82191 0.39645 0.0
H1655 H 0.25362 0.79243 0.37667 0.0
H1656 H 0.33241 0.80328 0.36891 0.0
H1657 H 0.30838 0.8325 0.389 0.0
C1658 C 0.20266 0.92433 0.36624 0.0
C1659 C 0.22766 0.92474 0.35452 0.0
C1660 C 0.20532 0.91012 0.38154 0.0
C1661 C 0.23305 0.89604 0.38558 0.0
C1662 C 0.25798 0.89644 0.37383 0.0
C1663 C 0.2554 0.91068 0.35867 0.0
C1664 C 0.23579 0.88043 0.40101 0.0
C1665 C 0.25026 0.86276 0.39229 0.0
C1666 C 0.22327 0.88278 0.42368 0.0
C1667 C 0.21018 0.90091 0.43489 0.0
C1668 C 0.2266 0.91192 0.4367 0.0
C1669 C 0.21415 0.92901 0.44722 0.0
C1670 C 0.18536 0.93521 0.45615 0.0
C1671 C 0.16898 0.9243 0.45463 0.0
C1672 C 0.18132 0.9072 0.44411 0.0
C1673 C 0.26859 0.80526 0.46076 0.0
C1674 C 0.24252 0.80335 0.4681 0.0
C1675 C 0.26729 0.82044 0.44793 0.0
C1676 C 0.23985 0.83412 0.44214 0.0
C1677 C 0.21374 0.83262 0.45011 0.0
C1678 C 0.21504 0.81734 0.46288 0.0
C1679 C 0.23846 0.84983 0.42751 0.0
C1680 C 0.22432 0.86748 0.43644 0.0
C1681 C 0.25185 0.84747 0.4052 0.0
C1682 C 0.26683 0.82935 0.39438 0.0
C1683 C 0.25155 0.81786 0.39081 0.0
C1684 C 0.26549 0.80121 0.37946 0.0
C1685 C 0.29465 0.79594 0.37153 0.0
C1686 C 0.30996 0.80726 0.37511 0.0
C1687 C 0.29619 0.82388 0.38647 0.0
H1688 H 0.30538 0.78311 0.36259 0.0
H1689 H 0.17576 0.94844 0.4643 0.0
H1690 H 0.0002 0.68148 0.61181 0.0
H1691 H 0.00231 0.65497 0.58906 0.0
H1692 H 0.97775 0.63263 0.65044 0.0
H1693 H 0.9769 0.6586 0.67325 0.0
H1694 H 0.01732 0.60675 0.62783 0.0
H1695 H 0.92646 0.65653 0.60603 0.0
H1696 H 0.89678 0.68725 0.59111 0.0
H1697 H 0.94407 0.67424 0.52613 0.0
H1698 H 0.97428 0.64351 0.54078 0.0
H1699 H 0.95298 0.55084 0.56297 0.0
H1700 H 0.95291 0.57653 0.58629 0.0
H1701 H 0.01603 0.58382 0.53925 0.0
H1702 H 0.01588 0.5585 0.51549 0.0
H1703 H 0.95764 0.61634 0.55539 0.0
H1704 H 0.06347 0.57866 0.60394 0.0
H1705 H 0.09396 0.54946 0.6224 0.0
H1706 H 0.01583 0.539 0.63611 0.0
H1707 H 0.98481 0.56849 0.61866 0.0
C1708 C 0.99556 0.67077 0.62038 0.0
C1709 C 0.98839 0.67201 0.64421 0.0
C1710 C 0.99657 0.65573 0.6074 0.0
C1711 C 0.98955 0.64199 0.61794 0.0
C1712 C 0.98321 0.64304 0.64191 0.0
C1713 C 0.98277 0.65786 0.65494 0.0
C1714 C 0.98814 0.62666 0.60412 0.0
C1715 C 0.00401 0.60889 0.61211 0.0
C1716 C 0.97107 0.62939 0.58346 0.0
C1717 C 0.95276 0.64779 0.57456 0.0
C1718 C 0.93062 0.66026 0.5886 0.0
C1719 C 0.9137 0.67767 0.58019 0.0
C1720 C 0.91858 0.6827 0.5577 0.0
C1721 C 0.94034 0.67032 0.54355 0.0
C1722 C 0.95734 0.65291 0.55189 0.0
C1723 C 0.96681 0.55792 0.55754 0.0
C1724 C 0.98477 0.55244 0.53756 0.0
C1725 C 0.9671 0.5724 0.5711 0.0
C1726 C 0.98569 0.58137 0.56512 0.0
C1727 C 0.00235 0.5766 0.54455 0.0
C1728 C 0.00205 0.5622 0.53093 0.0
C1729 C 0.98636 0.59657 0.57938 0.0
C1730 C 0.97065 0.61429 0.57126 0.0
C1731 C 0.00342 0.59379 0.60001 0.0
C1732 C 0.02186 0.57549 0.60912 0.0
C1733 C 0.05279 0.57007 0.61071 0.0
C1734 C 0.07016 0.55358 0.62131 0.0
C1735 C 0.05685 0.54234 0.63035 0.0
C1736 C 0.02614 0.54763 0.6289 0.0
C1737 C 0.00864 0.56423 0.61857 0.0
H1738 H 0.07035 0.52953 0.63843 0.0
H1739 H 0.90546 0.69619 0.55122 0.0
H1740 H 0.25664 0.76729 0.42108 0.0
H1741 H 0.29786 0.76449 0.39535 0.0
H1742 H 0.35206 0.71405 0.42861 0.0
H1743 H 0.31016 0.71631 0.45379 0.0
H1744 H 0.35071 0.76446 0.40575 0.0
H1745 H 0.40151 0.68765 0.38782 0.0
H1746 H 0.38653 0.66151 0.3863 0.0
H1747 H 0.2978 0.69714 0.36811 0.0
H1748 H 0.31235 0.72344 0.36924 0.0
H1749 H 0.47729 0.74944 0.33386 0.0
H1750 H 0.44811 0.74503 0.36639 0.0
H1751 H 0.39075 0.7336 0.31723 0.0
H1752 H 0.42057 0.73704 0.28502 0.0
H1753 H 0.3993 0.71221 0.35277 0.0
H1754 H 0.38099 0.77579 0.34135 0.0
H1755 H 0.39609 0.80175 0.34084 0.0
H1756 H 0.41331 0.7958 0.41452 0.0
H1757 H 0.39991 0.76907 0.41524 0.0
C1758 C 0.2772 0.75546 0.42267 0.0
C1759 C 0.28048 0.74205 0.43947 0.0
C1760 C 0.30082 0.75403 0.40819 0.0
C1761 C 0.32805 0.73922 0.41021 0.0
C1762 C 0.33118 0.72558 0.42671 0.0
C1763 C 0.30738 0.7269 0.44108 0.0
C1764 C 0.35285 0.73819 0.39476 0.0
C1765 C 0.36156 0.75299 0.39426 0.0
C1766 C 0.36692 0.72321 0.37987 0.0
C1767 C 0.35795 0.70751 0.37892 0.0
C1768 C 0.37883 0.68988 0.38345 0.0
C1769 C 0.37041 0.67505 0.38266 0.0
C1770 C 0.3412 0.67768 0.3772 0.0
C1771 C 0.32038 0.69514 0.37243 0.0
C1772 C 0.32869 0.71001 0.37318 0.0
C1773 C 0.45855 0.74586 0.33012 0.0
C1774 C 0.45096 0.74373 0.30698 0.0
C1775 C 0.44198 0.74329 0.34866 0.0
C1776 C 0.41701 0.73921 0.34423 0.0
C1777 C 0.40997 0.73667 0.32111 0.0
C1778 C 0.4269 0.73877 0.30269 0.0
C1779 C 0.39675 0.73871 0.3632 0.0
C1780 C 0.38895 0.72357 0.36452 0.0
C1781 C 0.38314 0.75357 0.37855 0.0
C1782 C 0.39017 0.77007 0.37821 0.0
C1783 C 0.3885 0.77978 0.35738 0.0
C1784 C 0.39674 0.79467 0.35706 0.0
C1785 C 0.40589 0.80035 0.3776 0.0
C1786 C 0.40649 0.79127 0.39857 0.0
C1787 C 0.39874 0.77617 0.39891 0.0
H1788 H 0.41254 0.81178 0.37726 0.0
H1789 H 0.33473 0.66618 0.37661 0.0
H1790 H 0.31886 0.08102 0.14529 0.0
H1791 H 0.31354 0.10673 0.12044 0.0
H1792 H 0.2334 0.10522 0.09109 0.0
H1793 H 0.2395 0.0786 0.11512 0.0
H1794 H 0.26532 0.11141 0.05768 0.0
H1795 H 0.22996 0.13893 0.13129 0.0
H1796 H 0.22969 0.14389 0.17376 0.0
H1797 H 0.31084 0.15236 0.16829 0.0
H1798 H 0.31136 0.14773 0.12568 0.0
H1799 H 0.22069 0.20144 0.01049 0.0
H1800 H 0.2236 0.17459 0.03257 0.0
H1801 H 0.31076 0.16747 0.05703 0.0
H1802 H 0.30787 0.19446 0.0351 0.0
H1803 H 0.27198 0.16648 0.09279 0.0
H1804 H 0.30463 0.13892 0.01708 0.0
H1805 H 0.29911 0.13696 0.97449 0.0
H1806 H 0.21693 0.13045 0.98477 0.0
H1807 H 0.22172 0.13263 0.02728 0.0
C1808 C 0.30038 0.08583 0.13325 0.0
C1809 C 0.27978 0.07751 0.13212 0.0
C1810 C 0.29708 0.10081 0.1193 0.0
C1811 C 0.27278 0.10817 0.10416 0.0
C1812 C 0.25227 0.09985 0.10273 0.0
C1813 C 0.25569 0.08469 0.1166 0.0
C1814 C 0.26928 0.12439 0.08974 0.0
C1815 C 0.26633 0.12354 0.06543 0.0
C1816 C 0.27082 0.14023 0.09972 0.0
C1817 C 0.27083 0.14283 0.12534 0.0
C1818 C 0.24785 0.14173 0.13917 0.0
C1819 C 0.24762 0.14452 0.16326 0.0
C1820 C 0.27037 0.14826 0.17376 0.0
C1821 C 0.29327 0.14941 0.16014 0.0
C1822 C 0.29346 0.14681 0.13601 0.0
C1823 C 0.24057 0.19408 0.02042 0.0
C1824 C 0.26403 0.2001 0.02109 0.0
C1825 C 0.24224 0.1787 0.03297 0.0
C1826 C 0.26741 0.16904 0.04645 0.0
C1827 C 0.29113 0.17476 0.04676 0.0
C1828 C 0.28956 0.19008 0.03405 0.0
C1829 C 0.26858 0.1533 0.06082 0.0
C1830 C 0.27098 0.15431 0.08512 0.0
C1831 C 0.26596 0.1378 0.05088 0.0
C1832 C 0.26346 0.13603 0.02533 0.0
C1833 C 0.28532 0.13714 0.01021 0.0
C1834 C 0.28231 0.136 0.98607 0.0
C1835 C 0.25763 0.13363 0.97687 0.0
C1836 C 0.23599 0.13231 0.99182 0.0
C1837 C 0.23887 0.13347 0.01595 0.0
H1838 H 0.25531 0.13279 0.95818 0.0
H1839 H 0.27018 0.15036 0.19242 0.0
H1840 H 0.82876 0.75332 0.97373 0.0
H1841 H 0.86714 0.75282 0.94636 0.0
H1842 H 0.84075 0.71954 0.89949 0.0
H1843 H 0.80342 0.71915 0.92769 0.0
H1844 H 0.89867 0.71016 0.89727 0.0
H1845 H 0.81295 0.76707 0.89565 0.0
H1846 H 0.77624 0.79494 0.9132 0.0
H1847 H 0.84591 0.81206 0.93307 0.0
H1848 H 0.88312 0.78414 0.916 0.0
H1849 H 0.93616 0.73362 0.7875 0.0
H1850 H 0.91063 0.72972 0.82219 0.0
H1851 H 0.94747 0.76171 0.86213 0.0
H1852 H 0.9729 0.766 0.82714 0.0
H1853 H 0.88924 0.7714 0.8709 0.0
H1854 H 0.97451 0.71561 0.86844 0.0
H1855 H 0.01054 0.68785 0.85025 0.0
H1856 H 0.94119 0.66877 0.83714 0.0
H1857 H 0.90465 0.69654 0.85495 0.0
C1858 C 0.83173 0.74548 0.95795 0.0
C1859 C 0.81308 0.73636 0.95283 0.0
C1860 C 0.85347 0.74534 0.94217 0.0
C1861 C 0.85627 0.73657 0.92058 0.0
C1862 C 0.83885 0.72651 0.91599 0.0
C1863 C 0.81749 0.72633 0.93208 0.0
C1864 C 0.87565 0.739 0.90213 0.0
C1865 C 0.89649 0.72354 0.89139 0.0
C1866 C 0.87328 0.75649 0.89486 0.0
C1867 C 0.85084 0.77343 0.90474 0.0
C1868 C 0.82046 0.77673 0.90388 0.0
C1869 C 0.79957 0.79252 0.91374 0.0
C1870 C 0.80878 0.80522 0.92427 0.0
C1871 C 0.83885 0.80218 0.92493 0.0
C1872 C 0.85984 0.78638 0.91517 0.0
C1873 C 0.93897 0.73982 0.80363 0.0
C1874 C 0.95671 0.75006 0.80458 0.0
C1875 C 0.92446 0.73748 0.82351 0.0
C1876 C 0.92761 0.74512 0.84483 0.0
C1877 C 0.94494 0.75558 0.84584 0.0
C1878 C 0.95945 0.75802 0.82586 0.0
C1879 C 0.91194 0.74256 0.86579 0.0
C1880 C 0.89174 0.75801 0.87699 0.0
C1881 C 0.91479 0.72507 0.87338 0.0
C1882 C 0.9368 0.70823 0.86291 0.0
C1883 C 0.9669 0.70555 0.86156 0.0
C1884 C 0.98743 0.6898 0.85132 0.0
C1885 C 0.97816 0.67657 0.84251 0.0
C1886 C 0.94835 0.67903 0.84397 0.0
C1887 C 0.92772 0.69476 0.85416 0.0
H1888 H 0.99408 0.66439 0.83458 0.0
H1889 H 0.79262 0.81743 0.93184 0.0
H1890 H 0.21587 0.5937 0.63569 0.0
H1891 H 0.21266 0.61881 0.6097 0.0
H1892 H 0.30805 0.59978 0.60912 0.0
H1893 H 0.31142 0.57516 0.63556 0.0
H1894 H 0.28262 0.63559 0.61793 0.0
H1895 H 0.26719 0.59382 0.56284 0.0
H1896 H 0.24157 0.57551 0.54592 0.0
H1897 H 0.16213 0.6235 0.53792 0.0
H1898 H 0.18695 0.64199 0.55552 0.0
H1899 H 0.30688 0.6889 0.52838 0.0
H1900 H 0.30656 0.6626 0.55028 0.0
H1901 H 0.21103 0.68437 0.54749 0.0
H1902 H 0.21107 0.71054 0.52583 0.0
H1903 H 0.23354 0.64813 0.54045 0.0
H1904 H 0.2434 0.68976 0.59523 0.0
H1905 H 0.26444 0.71048 0.61217 0.0
H1906 H 0.34789 0.66575 0.62231 0.0
H1907 H 0.32749 0.64478 0.60498 0.0
C1908 C 0.23616 0.59486 0.63 0.0
C1909 C 0.26392 0.58233 0.63767 0.0
C1910 C 0.23429 0.60913 0.61498 0.0
C1911 C 0.26014 0.6111 0.60731 0.0
C1912 C 0.28781 0.5985 0.61473 0.0
C1913 C 0.2897 0.5843 0.6297 0.0
C1914 C 0.25869 0.62671 0.59249 0.0
C1915 C 0.27226 0.63814 0.60083 0.0
C1916 C 0.24396 0.63058 0.57064 0.0
C1917 C 0.22886 0.61927 0.56075 0.0
C1918 C 0.24413 0.60043 0.55782 0.0
C1919 C 0.22973 0.59002 0.54809 0.0
C1920 C 0.20016 0.59831 0.54098 0.0
C1921 C 0.18493 0.61705 0.54359 0.0
C1922 C 0.19914 0.6275 0.55348 0.0
C1923 C 0.28584 0.68798 0.53218 0.0
C1924 C 0.25905 0.70182 0.5252 0.0
C1925 C 0.28567 0.67298 0.54476 0.0
C1926 C 0.25873 0.6716 0.55063 0.0
C1927 C 0.23205 0.68509 0.54304 0.0
C1928 C 0.23219 0.70007 0.53059 0.0
C1929 C 0.25822 0.65657 0.56565 0.0
C1930 C 0.24405 0.64544 0.55749 0.0
C1931 C 0.27168 0.65321 0.58793 0.0
C1932 C 0.28402 0.66572 0.59857 0.0
C1933 C 0.26632 0.68435 0.60088 0.0
C1934 C 0.27811 0.69615 0.61058 0.0
C1935 C 0.30751 0.68944 0.61826 0.0
C1936 C 0.32514 0.67092 0.61631 0.0
C1937 C 0.31347 0.65907 0.60655 0.0
H1938 H 0.31661 0.69859 0.62578 0.0
H1939 H 0.18909 0.59025 0.53335 0.0
H1940 H 0.28145 0.98862 0.32497 0.0
H1941 H 0.30951 0.98993 0.3598 0.0
H1942 H 0.34425 0.02467 0.32334 0.0
H1943 H 0.31661 0.02335 0.28849 0.0
H1944 H 0.38731 0.99696 0.34566 0.0
H1945 H 0.28989 0.04186 0.36367 0.0
H1946 H 0.23588 0.05266 0.36964 0.0
H1947 H 0.24946 0.01348 0.42441 0.0
H1948 H 0.30358 1.00227 0.41854 0.0
H1949 H 0.45289 0.02861 0.43236 0.0
H1950 H 0.41574 0.02961 0.40318 0.0
H1951 H 0.38832 0.9947 0.44651 0.0
H1952 H 0.42612 0.99332 0.47533 0.0
H1953 H 0.34121 0.02009 0.42244 0.0
H1954 H 0.43861 0.97642 0.40627 0.0
H1955 H 0.49254 0.96519 0.4004 0.0
H1956 H 0.47957 1.0012 0.34196 0.0
H1957 H 0.42543 0.01283 0.34771 0.0
C1958 C 0.29499 0.99659 0.32439 0.0
C1959 C 0.29681 0.00587 0.30393 0.0
C1960 C 0.3109 0.99737 0.34434 0.0
C1961 C 0.32879 0.00749 0.34416 0.0
C1962 C 0.33057 0.01677 0.32381 0.0
C1963 C 0.31469 0.01603 0.30391 0.0
C1964 C 0.3464 0.00809 0.3649 0.0
C1965 C 0.3772 1.00221 0.36237 0.0
C1966 C 0.33325 0.01433 0.3869 0.0
C1967 C 0.30075 0.0211 0.39049 0.0
C1968 C 0.28134 0.03544 0.37685 0.0
C1969 C 0.25072 0.04166 0.38024 0.0
C1970 C 0.23924 0.03373 0.39735 0.0
C1971 C 0.25838 0.01959 0.41114 0.0
C1972 C 0.28903 0.01331 0.4078 0.0
C1973 C 0.43826 0.02163 0.43589 0.0
C1974 C 0.44163 0.01128 0.45622 0.0
C1975 C 0.41722 0.02211 0.41923 0.0
C1976 C 0.39975 0.01192 0.42252 0.0
C1977 C 0.40173 1.00256 0.44361 0.0
C1978 C 0.42293 1.00202 0.46024 0.0
C1979 C 0.38196 0.00952 0.40292 0.0
C1980 C 0.35128 0.01483 0.40573 0.0
C1981 C 0.39523 1.00265 0.38113 0.0
C1982 C 0.42786 0.99559 0.37754 0.0
C1983 C 0.44718 0.98202 0.39225 0.0
C1984 C 0.47783 0.97558 0.38894 0.0
C1985 C 0.48949 0.9825 0.37083 0.0
C1986 C 0.4705 0.99586 0.35599 0.0
C1987 C 0.43982 1.00237 0.35926 0.0
H1988 H 0.51324 0.97749 0.36829 0.0
H1989 H 0.21552 0.03856 0.39995 0.0
H1990 H 0.88818 0.81052 0.05654 0.0
H1991 H 0.88724 0.84138 0.05805 0.0
H1992 H 0.79828 0.86248 0.03011 0.0
H1993 H 0.79974 0.8316 0.0277 0.0
H1994 H 0.82785 0.87783 0.00896 0.0
H1995 H 0.81421 0.86806 0.08918 0.0
H1996 H 0.82439 0.85187 0.12688 0.0
H1997 H 0.90987 0.85508 0.12975 0.0
H1998 H 0.90039 0.87106 0.09189 0.0
H1999 H 0.82436 0.96812 0.0278 0.0
H2000 H 0.81066 0.94186 0.03238 0.0
H2001 H 0.9016 0.9079 0.04791 0.0
H2002 H 0.91583 0.93352 0.04216 0.0
H2003 H 0.86153 0.90215 0.07788 0.0
H2004 H 0.87404 0.91056 0.99555 0.0
H2005 H 0.86306 0.92579 0.95721 0.0
H2006 H 0.77543 0.92569 0.95912 0.0
H2007 H 0.78591 0.91064 0.99762 0.0
C2008 C 0.86842 0.8218 0.05091 0.0
C2009 C 0.8441 0.81877 0.04196 0.0
C2010 C 0.86777 0.83943 0.05189 0.0
C2011 C 0.84246 0.85433 0.04455 0.0
C2012 C 0.81802 0.85125 0.03588 0.0
C2013 C 0.81888 0.83363 0.03451 0.0
C2014 C 0.84205 0.873 0.04486 0.0
C2015 C 0.8345 0.88333 0.02424 0.0
C2016 C 0.85091 0.88016 0.06471 0.0
C2017 C 0.85664 0.87067 0.08761 0.0
C2018 C 0.83525 0.86522 0.09778 0.0
C2019 C 0.84089 0.85609 0.11919 0.0
C2020 C 0.86778 0.85242 0.13069 0.0
C2021 C 0.88905 0.85792 0.12082 0.0
C2022 C 0.88354 0.86704 0.0994 0.0
C2023 C 0.8415 0.95504 0.03203 0.0
C2024 C 0.87125 0.95302 0.03463 0.0
C2025 C 0.83355 0.94011 0.03481 0.0
C2026 C 0.85517 0.92298 0.04042 0.0
C2027 C 0.88458 0.92105 0.04371 0.0
C2028 C 0.89262 0.93582 0.04058 0.0
C2029 C 0.848 0.90667 0.04189 0.0
C2030 C 0.85411 0.8968 0.06285 0.0
C2031 C 0.83734 0.90009 0.02245 0.0
C2032 C 0.83069 0.90971 -0.00036 0.0
C2033 C 0.85236 0.91398 0.98791 0.0
C2034 C 0.84624 0.92254 0.96612 0.0
C2035 C 0.8185 0.92678 0.95577 0.0
C2036 C 0.79685 0.92248 0.96721 0.0
C2037 C 0.80289 0.91394 0.98902 0.0
H2038 H 0.81381 0.93333 0.93885 0.0
H2039 H 0.87211 0.84534 0.14725 0.0
H2040 H 0.67303 0.18258 0.49087 0.0
H2041 H 0.66805 0.15333 0.49427 0.0
H2042 H 0.57316 0.18051 0.48731 0.0
H2043 H 0.57817 0.20993 0.48394 0.0
H2044 H 0.59511 0.15264 0.52457 0.0
H2045 H 0.60701 0.16182 0.44192 0.0
H2046 H 0.63278 0.16828 0.40826 0.0
H2047 H 0.71125 0.12149 0.42465 0.0
H2048 H 0.68605 0.11491 0.45864 0.0
H2049 H 0.55012 0.08195 0.49628 0.0
H2050 H 0.55951 0.10974 0.4977 0.0
H2051 H 0.65301 0.07856 0.48754 0.0
H2052 H 0.64353 0.05061 0.48553 0.0
H2053 H 0.63536 0.10766 0.46083 0.0
H2054 H 0.62884 0.09953 0.54423 0.0
H2055 H 0.60639 0.09203 0.57927 0.0
H2056 H 0.5228 0.13457 0.56226 0.0
H2057 H 0.54491 0.14267 0.52775 0.0
C2058 C 0.65111 0.1823 0.49056 0.0
C2059 C 0.62594 0.1984 0.48749 0.0
C2060 C 0.64832 0.16564 0.49229 0.0
C2061 C 0.62027 0.16485 0.49098 0.0
C2062 C 0.59496 0.18095 0.48841 0.0
C2063 C 0.59781 0.19765 0.48642 0.0
C2064 C 0.61756 0.14711 0.49142 0.0
C2065 C 0.60363 0.14287 0.51054 0.0
C2066 C 0.62973 0.13415 0.47353 0.0
C2067 C 0.64475 0.13798 0.45295 0.0
C2068 C 0.62984 0.153 0.43846 0.0
C2069 C 0.64432 0.15666 0.4193 0.0
C2070 C 0.67366 0.14533 0.41435 0.0
C2071 C 0.68854 0.13027 0.42852 0.0
C2072 C 0.67416 0.12656 0.44772 0.0
C2073 C 0.57271 0.081 0.49453 0.0
C2074 C 0.59612 0.06414 0.49083 0.0
C2075 C 0.5781 0.09688 0.4955 0.0
C2076 C 0.60706 0.0962 0.49322 0.0
C2077 C 0.6305 0.07938 0.48943 0.0
C2078 C 0.62507 0.06346 0.4882 0.0
C2079 C 0.61246 0.11322 0.49385 0.0
C2080 C 0.62701 0.11734 0.47496 0.0
C2081 C 0.60147 0.12594 0.51216 0.0
C2082 C 0.58844 0.12163 0.53344 0.0
C2083 C 0.6057 0.10733 0.54814 0.0
C2084 C 0.59308 0.10306 0.56798 0.0
C2085 C 0.56312 0.11278 0.57299 0.0
C2086 C 0.54595 0.12708 0.5585 0.0
C2087 C 0.55857 0.13164 0.53892 0.0
H2088 H 0.55318 0.10916 0.58797 0.0
H2089 H 0.68484 0.14819 0.39951 0.0
H2090 H 0.85276 0.45697 0.26397 0.0
H2091 H 0.87997 0.42403 0.26587 0.0
H2092 H 0.80382 0.41619 0.2382 0.0
H2093 H 0.77624 0.44923 0.23696 0.0
H2094 H 0.82858 0.3917 0.27051 0.0
H2095 H 0.86587 0.41254 0.20361 0.0
H2096 H 0.88782 0.43127 0.18264 0.0
H2097 H 0.96528 0.41007 0.22607 0.0
H2098 H 0.94362 0.39136 0.2475 0.0
H2099 H 0.89959 0.30038 0.2355 0.0
H2100 H 0.87312 0.33324 0.23685 0.0
H2101 H 0.95262 0.33902 0.26078 0.0
H2102 H 0.9798 0.30602 0.25755 0.0
H2103 H 0.92676 0.36468 0.23185 0.0
H2104 H 0.88815 0.34393 0.29924 0.0
H2105 H 0.86636 0.32413 0.31804 0.0
H2106 H 0.79184 0.34434 0.27151 0.0
H2107 H 0.81295 0.36441 0.25269 0.0
C2108 C 0.84176 0.44822 0.25843 0.0
C2109 C 0.81244 0.45569 0.25014 0.0
C2110 C 0.85741 0.42935 0.25938 0.0
C2111 C 0.8443 0.41749 0.25167 0.0
C2112 C 0.81459 0.42497 0.24413 0.0
C2113 C 0.79881 0.44387 0.2434 0.0
C2114 C 0.86168 0.39737 0.25108 0.0
C2115 C 0.84994 0.38583 0.26188 0.0
C2116 C 0.88988 0.38953 0.24023 0.0
C2117 C 0.903 0.40069 0.22729 0.0
C2118 C 0.8875 0.41196 0.20878 0.0
C2119 C 0.8999 0.42256 0.1968 0.0
C2120 C 0.9279 0.42189 0.20305 0.0
C2121 C 0.94358 0.41059 0.22127 0.0
C2122 C 0.93127 0.39997 0.23332 0.0
C2123 C 0.91146 0.30864 0.24108 0.0
C2124 C 0.94177 0.30058 0.2466 0.0
C2125 C 0.89617 0.3275 0.2421 0.0
C2126 C 0.91044 0.3388 0.24964 0.0
C2127 C 0.94088 0.33072 0.25506 0.0
C2128 C 0.95643 0.31183 0.25334 0.0
C2129 C 0.89374 0.35898 0.25134 0.0
C2130 C 0.90557 0.37055 0.24071 0.0
C2131 C 0.86561 0.36686 0.26231 0.0
C2132 C 0.85213 0.35561 0.27456 0.0
C2133 C 0.86702 0.34421 0.29315 0.0
C2134 C 0.85479 0.33296 0.3038 0.0
C2135 C 0.82775 0.33299 0.29595 0.0
C2136 C 0.81275 0.34437 0.27759 0.0
C2137 C 0.8247 0.35579 0.26706 0.0
H2138 H 0.81836 0.32422 0.30413 0.0
H2139 H 0.93746 0.43011 0.19376 0.0
H2140 H 0.12262 0.55869 0.50459 0.0
H2141 H 0.12927 0.5871 0.51134 0.0
H2142 H 0.07482 0.61098 0.45128 0.0
H2143 H 0.06813 0.58263 0.44442 0.0
H2144 H 0.12123 0.61973 0.45156 0.0
H2145 H 0.04623 0.62312 0.50669 0.0
H2146 H 0.02259 0.61269 0.53838 0.0
H2147 H 0.09494 0.60734 0.58415 0.0
H2148 H 0.11893 0.61789 0.55276 0.0
H2149 H 0.08988 0.71229 0.47808 0.0
H2150 H 0.08004 0.68441 0.47602 0.0
H2151 H 0.1559 0.6568 0.51985 0.0
H2152 H 0.16619 0.68451 0.52157 0.0
H2153 H 0.09824 0.65042 0.52862 0.0
H2154 H 0.17131 0.64886 0.46995 0.0
H2155 H 0.18909 0.66208 0.43731 0.0
H2156 H 0.11327 0.66599 0.3965 0.0
H2157 H 0.09478 0.65308 0.42911 0.0
C2158 C 0.11208 0.57 0.49282 0.0
C2159 C 0.09486 0.5684 0.47396 0.0
C2160 C 0.1158 0.58625 0.49675 0.0
C2161 C 0.10217 0.60127 0.48201 0.0
C2162 C 0.08555 0.59957 0.46287 0.0
C2163 C 0.0819 0.58331 0.45888 0.0
C2164 C 0.10541 0.61872 0.48644 0.0
C2165 C 0.11589 0.62649 0.46834 0.0
C2166 C 0.09865 0.62754 0.50838 0.0
C2167 C 0.08453 0.62109 0.5273 0.0
C2168 C 0.0572 0.61959 0.52347 0.0
C2169 C 0.0437 0.6137 0.54139 0.0
C2170 C 0.05738 0.60922 0.56318 0.0
C2171 C 0.08444 0.61077 0.56721 0.0
C2172 C 0.09795 0.61677 0.54939 0.0
C2173 C 0.10397 0.70038 0.4877 0.0
C2174 C 0.12876 0.70043 0.49995 0.0
C2175 C 0.09842 0.68451 0.48647 0.0
C2176 C 0.11732 0.66863 0.49777 0.0
C2177 C 0.14104 0.66898 0.51117 0.0
C2178 C 0.14692 0.68473 0.51205 0.0
C2179 C 0.11401 0.65125 0.49376 0.0
C2180 C 0.10359 0.64354 0.51191 0.0
C2181 C 0.12023 0.64265 0.47174 0.0
C2182 C 0.1315 0.6502 0.45205 0.0
C2183 C 0.15829 0.6527 0.45411 0.0
C2184 C 0.16852 0.66011 0.4356 0.0
C2185 C 0.15227 0.66492 0.41487 0.0
C2186 C 0.1258 0.66229 0.41258 0.0
C2187 C 0.11544 0.65492 0.43107 0.0
H2188 H 0.16023 0.67065 0.40055 0.0
H2189 H 0.04699 0.60461 0.57696 0.0
H2190 H 0.72471 0.05917 0.75839 0.0
H2191 H 0.69769 0.09199 0.75383 0.0
H2192 H 0.61691 0.08378 0.74114 0.0
H2193 H 0.64414 0.05087 0.74498 0.0
H2194 H 0.62098 0.10946 0.71228 0.0
H2195 H 0.63195 0.09744 0.79506 0.0
H2196 H 0.66046 0.08487 0.83093 0.0
H2197 H 0.71091 0.11784 0.82055 0.0
H2198 H 0.68289 0.13047 0.78447 0.0
H2199 H 0.51997 0.20137 0.74065 0.0
H2200 H 0.54689 0.16822 0.73756 0.0
H2201 H 0.62973 0.17455 0.7471 0.0
H2202 H 0.60316 0.20745 0.74986 0.0
H2203 H 0.62405 0.1497 0.77718 0.0
H2204 H 0.61528 0.16179 0.6957 0.0
H2205 H 0.59373 0.17179 0.65675 0.0
H2206 H 0.54338 0.13837 0.66256 0.0
H2207 H 0.56437 0.12828 0.70169 0.0
C2208 C 0.7013 0.06434 0.75431 0.0
C2209 C 0.68655 0.05245 0.75204 0.0
C2210 C 0.68578 0.08313 0.75191 0.0
C2211 C 0.65509 0.09045 0.74751 0.0
C2212 C 0.64052 0.07852 0.74461 0.0
C2213 C 0.65607 0.05971 0.74691 0.0
C2214 C 0.63807 0.11052 0.74659 0.0
C2215 C 0.6212 0.11825 0.72663 0.0
C2216 C 0.63905 0.12207 0.76502 0.0
C2217 C 0.65547 0.11479 0.78698 0.0
C2218 C 0.64921 0.10195 0.80038 0.0
C2219 C 0.66527 0.09482 0.82075 0.0
C2220 C 0.68753 0.10053 0.82799 0.0
C2221 C 0.69367 0.11343 0.81492 0.0
C2222 C 0.67768 0.1206 0.79453 0.0
C2223 C 0.54394 0.19565 0.74187 0.0
C2224 C 0.55944 0.20698 0.74577 0.0
C2225 C 0.55932 0.17673 0.73998 0.0
C2226 C 0.59039 0.16885 0.74217 0.0
C2227 C 0.6058 0.18026 0.74544 0.0
C2228 C 0.59055 0.19909 0.74702 0.0
C2229 C 0.60681 0.14873 0.74284 0.0
C2230 C 0.62356 0.14096 0.76285 0.0
C2231 C 0.60586 0.1372 0.72436 0.0
C2232 C 0.59115 0.14444 0.70178 0.0
C2233 C 0.59919 0.15682 0.68888 0.0
C2234 C 0.58726 0.16239 0.66668 0.0
C2235 C 0.56739 0.15559 0.65713 0.0
C2236 C 0.55892 0.14351 0.66994 0.0
C2237 C 0.5708 0.13789 0.69214 0.0
H2238 H 0.55851 0.15972 0.6398 0.0
H2239 H 0.69997 0.09497 0.84374 0.0
H2240 H 0.73794 0.59321 0.14199 0.0
H2241 H 0.73533 0.61756 0.11509 0.0
H2242 H 0.82725 0.58844 0.09701 0.0
H2243 H 0.83016 0.5642 0.12418 0.0
H2244 H 0.81521 0.62365 0.10833 0.0
H2245 H 0.76691 0.59188 0.06059 0.0
H2246 H 0.72745 0.58022 0.05545 0.0
H2247 H 0.66118 0.63417 0.06327 0.0
H2248 H 0.70013 0.64608 0.06901 0.0
H2249 H 0.81859 0.68866 0.02572 0.0
H2250 H 0.82398 0.65985 0.04421 0.0
H2251 H 0.72879 0.6782 0.04846 0.0
H2252 H 0.72338 0.70619 0.02857 0.0
H2253 H 0.74463 0.64653 0.04256 0.0
H2254 H 0.78002 0.67904 0.09654 0.0
H2255 H 0.81074 0.6951 0.11089 0.0
H2256 H 0.88937 0.6469 0.10113 0.0
H2257 H 0.85912 0.6306 0.08646 0.0
C2258 C 0.75748 0.59183 0.13204 0.0
C2259 C 0.78436 0.57683 0.13547 0.0
C2260 C 0.75595 0.60578 0.11662 0.0
C2261 C 0.78108 0.60481 0.10393 0.0
C2262 C 0.80761 0.58954 0.10669 0.0
C2263 C 0.80923 0.57569 0.12224 0.0
C2264 C 0.78037 0.62009 0.08872 0.0
C2265 C 0.80009 0.62851 0.0937 0.0
C2266 C 0.75966 0.62701 0.07037 0.0
C2267 C 0.73648 0.61984 0.06542 0.0
C2268 C 0.74392 0.60124 0.06123 0.0
C2269 C 0.72161 0.59459 0.05825 0.0
C2270 C 0.69181 0.60645 0.05911 0.0
C2271 C 0.68424 0.625 0.06263 0.0
C2272 C 0.70643 0.6317 0.06576 0.0
C2273 C 0.79887 0.68641 0.03048 0.0
C2274 C 0.77059 0.69972 0.02588 0.0
C2275 C 0.80192 0.67 0.04126 0.0
C2276 C 0.77674 0.66696 0.04857 0.0
C2277 C 0.74858 0.68012 0.04322 0.0
C2278 C 0.74552 0.6962 0.03185 0.0
C2279 C 0.77922 0.65048 0.06233 0.0
C2280 C 0.75997 0.64172 0.05705 0.0
C2281 C 0.79909 0.64395 0.08137 0.0
C2282 C 0.81736 0.65368 0.09014 0.0
C2283 C 0.80389 0.67191 0.09731 0.0
C2284 C 0.8212 0.68105 0.10552 0.0
C2285 C 0.852 0.67204 0.10684 0.0
C2286 C 0.86552 0.65386 0.10004 0.0
C2287 C 0.84831 0.64467 0.09178 0.0
H2288 H 0.86537 0.67914 0.11321 0.0
H2289 H 0.67454 0.60129 0.05718 0.0
H2290 H 0.91119 0.51106 0.48521 0.0
H2291 H 0.87085 0.51214 0.45934 0.0
H2292 H 0.90371 0.5381 0.40645 0.0
H2293 H 0.94307 0.53777 0.43279 0.0
H2294 H 0.84633 0.55122 0.4045 0.0
H2295 H 0.92257 0.48877 0.41032 0.0
H2296 H 0.95175 0.46065 0.43172 0.0
H2297 H 0.87147 0.45668 0.45602 0.0
H2298 H 0.84186 0.48478 0.43471 0.0
H2299 H 0.81652 0.5237 0.29582 0.0
H2300 H 0.83778 0.52872 0.33214 0.0
H2301 H 0.78957 0.50244 0.37042 0.0
H2302 H 0.76857 0.49692 0.33377 0.0
H2303 H 0.84447 0.49109 0.38545 0.0
H2304 H 0.76869 0.54908 0.37277 0.0
H2305 H 0.73837 0.57655 0.35071 0.0
H2306 H 0.81481 0.5895 0.34033 0.0
H2307 H 0.84571 0.56196 0.36203 0.0
C2308 C 0.90946 0.51722 0.46824 0.0
C2309 C 0.93044 0.52407 0.46092 0.0
C2310 C 0.8865 0.51777 0.45338 0.0
C2311 C 0.88472 0.5247 0.43064 0.0
C2312 C 0.90466 0.53257 0.42385 0.0
C2313 C 0.92719 0.53237 0.43892 0.0
C2314 C 0.86364 0.52275 0.41324 0.0
C2315 C 0.846 0.53806 0.40027 0.0
C2316 C 0.86215 0.50573 0.40833 0.0
C2317 C 0.88006 0.48892 0.42113 0.0
C2318 C 0.91119 0.48193 0.42032 0.0
C2319 C 0.92779 0.46598 0.43241 0.0
C2320 C 0.91344 0.45691 0.44526 0.0
C2321 C 0.88252 0.46373 0.44604 0.0
C2322 C 0.86583 0.47963 0.43394 0.0
C2323 C 0.81028 0.51901 0.31192 0.0
C2324 C 0.79073 0.50996 0.31189 0.0
C2325 C 0.82231 0.52203 0.33275 0.0
C2326 C 0.81472 0.51636 0.35409 0.0
C2327 C 0.7955 0.50709 0.35416 0.0
C2328 C 0.78358 0.50391 0.33322 0.0
C2329 C 0.82822 0.5194 0.37603 0.0
C2330 C 0.84432 0.50432 0.38991 0.0
C2331 C 0.82811 0.53666 0.38185 0.0
C2332 C 0.80956 0.55338 0.36896 0.0
C2333 C 0.77908 0.55772 0.36568 0.0
C2334 C 0.76179 0.57332 0.35324 0.0
C2335 C 0.77466 0.58475 0.3441 0.0
C2336 C 0.80486 0.58063 0.34743 0.0
C2337 C 0.82227 0.56504 0.35983 0.0
H2338 H 0.76124 0.59681 0.33447 0.0
H2339 H 0.92615 0.44457 0.45459 0.0
H2340 H 0.17868 0.48227 0.7072 0.0
H2341 H 0.15644 0.47664 0.67166 0.0
H2342 H 0.20192 0.50346 0.63116 0.0
H2343 H 0.22378 0.50962 0.66693 0.0
H2344 H 0.14677 0.51424 0.61766 0.0
H2345 H 0.22404 0.45649 0.63014 0.0
H2346 H 0.25493 0.42927 0.6524 0.0
H2347 H 0.17907 0.41597 0.66412 0.0
H2348 H 0.1476 0.44325 0.64222 0.0
H2349 H 0.07947 0.49454 0.51919 0.0
H2350 H 0.12139 0.49224 0.54394 0.0
H2351 H 0.08925 0.46637 0.59741 0.0
H2352 H 0.04857 0.46757 0.57198 0.0
H2353 H 0.14678 0.45356 0.59923 0.0
H2354 H 0.06929 0.51403 0.58935 0.0
H2355 H 0.03978 0.54184 0.56791 0.0
H2356 H 0.1188 0.55042 0.55093 0.0
H2357 H 0.14899 0.52233 0.57194 0.0
C2358 C 0.18409 0.48694 0.69075 0.0
C2359 C 0.20309 0.49635 0.68989 0.0
C2360 C 0.17151 0.48357 0.67039 0.0
C2361 C 0.17803 0.48925 0.64866 0.0
C2362 C 0.19678 0.49882 0.64773 0.0
C2363 C 0.2092 0.50235 0.66818 0.0
C2364 C 0.16397 0.48594 0.62718 0.0
C2365 C 0.14734 0.50089 0.61328 0.0
C2366 C 0.16452 0.46855 0.62161 0.0
C2367 C 0.18342 0.45199 0.63462 0.0
C2368 C 0.2139 0.44782 0.63757 0.0
C2369 C 0.23152 0.43237 0.65012 0.0
C2370 C 0.21897 0.42091 0.65969 0.0
C2371 C 0.18877 0.42486 0.65669 0.0
C2372 C 0.17104 0.4403 0.64418 0.0
C2373 C 0.08182 0.48796 0.53593 0.0
C2374 C 0.06059 0.48148 0.54376 0.0
C2375 C 0.10573 0.48669 0.55014 0.0
C2376 C 0.10798 0.47965 0.57286 0.0
C2377 C 0.08793 0.47198 0.58003 0.0
C2378 C 0.06458 0.47274 0.5655 0.0
C2379 C 0.12887 0.48196 0.59013 0.0
C2380 C 0.14677 0.46683 0.60328 0.0
C2381 C 0.12971 0.49919 0.5949 0.0
C2382 C 0.11146 0.51591 0.58194 0.0
C2383 C 0.08046 0.52165 0.58071 0.0
C2384 C 0.0636 0.53748 0.56857 0.0
C2385 C 0.07743 0.54786 0.55791 0.0
C2386 C 0.10816 0.54235 0.55919 0.0
C2387 C 0.12515 0.52645 0.57116 0.0
H2388 H 0.06444 0.56025 0.54878 0.0
H2389 H 0.23264 0.40896 0.66941 0.0
H2390 H 0.57427 0.77159 0.21393 0.0
H2391 H 0.60067 0.77647 0.18015 0.0
H2392 H 0.54956 0.75661 0.13474 0.0
H2393 H 0.52395 0.751 0.16858 0.0
H2394 H 0.60386 0.74201 0.12304 0.0
H2395 H 0.5386 0.80312 0.13812 0.0
H2396 H 0.51364 0.83064 0.16176 0.0
H2397 H 0.59755 0.83376 0.17637 0.0
H2398 H 0.62308 0.80611 0.15309 0.0
H2399 H 0.67964 0.75661 0.02623 0.0
H2400 H 0.63816 0.76 0.05192 0.0
H2401 H 0.67532 0.78378 0.10446 0.0
H2402 H 0.71446 0.78262 0.07738 0.0
H2403 H 0.6208 0.79849 0.10892 0.0
H2404 H 0.68525 0.73313 0.09965 0.0
H2405 H 0.70846 0.70493 0.07692 0.0
H2406 H 0.62309 0.71052 0.05075 0.0
H2407 H 0.59943 0.73867 0.07353 0.0
C2408 C 0.5686 0.76833 0.19673 0.0
C2409 C 0.54713 0.76086 0.19389 0.0
C2410 C 0.5835 0.77128 0.1774 0.0
C2411 C 0.57672 0.76724 0.15482 0.0
C2412 C 0.55511 0.7599 0.15197 0.0
C2413 C 0.54056 0.75665 0.17133 0.0
C2414 C 0.59358 0.7695 0.13436 0.0
C2415 C 0.60713 0.75449 0.11974 0.0
C2416 C 0.59809 0.7857 0.13012 0.0
C2417 C 0.58277 0.80246 0.14396 0.0
C2418 C 0.55175 0.80961 0.14648 0.0
C2419 C 0.5375 0.82524 0.15981 0.0
C2420 C 0.554 0.83393 0.17059 0.0
C2421 C 0.58479 0.82702 0.16802 0.0
C2422 C 0.59916 0.81138 0.15472 0.0
C2423 C 0.67825 0.76316 0.0429 0.0
C2424 C 0.69998 0.76954 0.04966 0.0
C2425 C 0.65491 0.76471 0.05789 0.0
C2426 C 0.65403 0.77152 0.08061 0.0
C2427 C 0.67538 0.7784 0.08711 0.0
C2428 C 0.69788 0.77766 0.07165 0.0
C2429 C 0.63202 0.77075 0.0981 0.0
C2430 C 0.61734 0.78607 0.11213 0.0
C2431 C 0.62628 0.75485 0.1018 0.0
C2432 C 0.64068 0.73803 0.08807 0.0
C2433 C 0.67151 0.72835 0.08896 0.0
C2434 C 0.68472 0.71237 0.07606 0.0
C2435 C 0.66727 0.70598 0.06223 0.0
C2436 C 0.63658 0.7155 0.06138 0.0
C2437 C 0.62326 0.73141 0.07434 0.0
H2438 H 0.67739 0.69363 0.05223 0.0
H2439 H 0.54293 0.84602 0.18092 0.0
H2440 H 0.68661 0.48261 0.20154 0.0
H2441 H 0.66306 0.47902 0.16569 0.0
H2442 H 0.70686 0.50811 0.12762 0.0
H2443 H 0.73031 0.51216 0.16388 0.0
H2444 H 0.64991 0.51907 0.11478 0.0
H2445 H 0.73025 0.46209 0.12169 0.0
H2446 H 0.76416 0.43428 0.14127 0.0
H2447 H 0.69171 0.4179 0.15411 0.0
H2448 H 0.65726 0.44575 0.13492 0.0
H2449 H 0.5811 0.4991 0.01605 0.0
H2450 H 0.62219 0.49833 0.04077 0.0
H2451 H 0.59292 0.4712 0.09451 0.0
H2452 H 0.55222 0.47167 0.06947 0.0
H2453 H 0.65203 0.45842 0.09309 0.0
H2454 H 0.57158 0.51883 0.09345 0.0
H2455 H 0.53771 0.54651 0.07369 0.0
H2456 H 0.61197 0.55593 0.04594 0.0
H2457 H 0.64638 0.52818 0.06557 0.0
C2458 C 0.69143 0.48823 0.1856 0.0
C2459 C 0.71056 0.49757 0.18559 0.0
C2460 C 0.67803 0.48606 0.16503 0.0
C2461 C 0.68372 0.49292 0.14386 0.0
C2462 C 0.70239 0.50255 0.14375 0.0
C2463 C 0.71576 0.50485 0.16446 0.0
C2464 C 0.66922 0.49035 0.12218 0.0
C2465 C 0.65094 0.50575 0.10968 0.0
C2466 C 0.67044 0.47299 0.11556 0.0
C2467 C 0.69113 0.45608 0.12692 0.0
C2468 C 0.72151 0.45261 0.1288 0.0
C2469 C 0.74083 0.43683 0.13982 0.0
C2470 C 0.73009 0.42434 0.14895 0.0
C2471 C 0.7 0.42758 0.14702 0.0
C2472 C 0.68057 0.44336 0.13603 0.0
C2473 C 0.58362 0.49287 0.03298 0.0
C2474 C 0.56313 0.48585 0.04096 0.0
C2475 C 0.60712 0.49239 0.04713 0.0
C2476 C 0.61019 0.48513 0.06975 0.0
C2477 C 0.59089 0.47698 0.07717 0.0
C2478 C 0.56762 0.47726 0.06285 0.0
C2479 C 0.63188 0.48717 0.08641 0.0
C2480 C 0.65156 0.47166 0.09789 0.0
C2481 C 0.63209 0.50441 0.09199 0.0
C2482 C 0.6115 0.52137 0.08079 0.0
C2483 C 0.58067 0.52679 0.0831 0.0
C2484 C 0.56138 0.54249 0.07191 0.0
C2485 C 0.57264 0.55296 0.05847 0.0
C2486 C 0.60327 0.5478 0.05634 0.0
C2487 C 0.62268 0.5321 0.06753 0.0
H2488 H 0.55766 0.56507 0.04973 0.0
H2489 H 0.74508 0.41213 0.1575 0.0
H2490 H 0.4274 0.42948 0.05979 0.0
H2491 H 0.4184 0.40153 0.05471 0.0
H2492 H 0.34592 0.42972 0.00802 0.0
H2493 H 0.35543 0.4576 0.01248 0.0
H2494 H 0.33983 0.405 0.05056 0.0
H2495 H 0.39401 0.40796 0.9802 0.0
H2496 H 0.43589 0.41086 0.95919 0.0
H2497 H 0.49679 0.36409 0.99521 0.0
H2498 H 0.4553 0.36116 0.01688 0.0
H2499 H 0.31199 0.33101 0.00469 0.0
H2500 H 0.31943 0.35942 0.00853 0.0
H2501 H 0.40994 0.32938 0.02996 0.0
H2502 H 0.40266 0.30087 0.02602 0.0
H2503 H 0.40694 0.35554 0.0003 0.0
H2504 H 0.35608 0.35035 0.0687 0.0
H2505 H 0.31693 0.34657 0.09246 0.0
H2506 H 0.25303 0.39646 0.06503 0.0
H2507 H 0.29165 0.40034 0.04065 0.0
C2508 C 0.40932 0.42973 0.0487 0.0
C2509 C 0.39193 0.4456 0.03662 0.0
C2510 C 0.40435 0.41381 0.04572 0.0
C2511 C 0.38164 0.41368 0.03094 0.0
C2512 C 0.36357 0.42967 0.01946 0.0
C2513 C 0.36896 0.4455 0.02203 0.0
C2514 C 0.37713 0.39671 0.02726 0.0
C2515 C 0.35408 0.39424 0.03929 0.0
C2516 C 0.39662 0.38258 0.01325 0.0
C2517 C 0.42157 0.38449 0.00039 0.0
C2518 C 0.41635 0.39844 0.98389 0.0
C2519 C 0.44002 0.40005 0.97179 0.0
C2520 C 0.46897 0.38766 0.97586 0.0
C2521 C 0.47434 0.37368 0.99209 0.0
C2522 C 0.45077 0.37205 0.0043 0.0
C2523 C 0.33346 0.33047 0.01028 0.0
C2524 C 0.35671 0.31375 0.01528 0.0
C2525 C 0.33767 0.3467 0.01246 0.0
C2526 C 0.36509 0.34651 0.01989 0.0
C2527 C 0.38859 0.32981 0.02424 0.0
C2528 C 0.38444 0.31355 0.02194 0.0
C2529 C 0.36919 0.36376 0.02335 0.0
C2530 C 0.39237 0.36627 0.01144 0.0
C2531 C 0.35007 0.37781 0.03784 0.0
C2532 C 0.32673 0.37547 0.05248 0.0
C2533 C 0.33361 0.3604 0.06746 0.0
C2534 C 0.31151 0.35826 0.0811 0.0
C2535 C 0.28248 0.37122 0.08017 0.0
C2536 C 0.27552 0.38641 0.06571 0.0
C2537 C 0.29752 0.38858 0.05196 0.0
H2538 H 0.26539 0.36954 0.09074 0.0
H2539 H 0.48726 0.38885 0.96644 0.0
H2540 H 0.02565 0.19972 0.24316 0.0
H2541 H 0.05253 0.16676 0.23969 0.0
H2542 H 0.13522 0.17308 0.25084 0.0
H2543 H 0.10856 0.20597 0.253 0.0
H2544 H 0.1442 0.14935 0.21953 0.0
H2545 H 0.0976 0.15747 0.29468 0.0
H2546 H 0.05593 0.16822 0.32251 0.0
H2547 H 0.01454 0.13686 0.28716 0.0
H2548 H 0.0558 0.1261 0.25893 0.0
H2549 H 0.23096 0.05611 0.25 0.0
H2550 H 0.205 0.08927 0.24848 0.0
H2551 H 0.12364 0.08319 0.23093 0.0
H2552 H 0.14935 0.05017 0.2329 0.0
H2553 H 0.11425 0.10663 0.26544 0.0
H2554 H 0.15553 0.10653 0.18497 0.0
H2555 H 0.19553 0.09915 0.15571 0.0
H2556 H 0.2484 0.11483 0.20399 0.0
H2557 H 0.20804 0.1231 0.23308 0.0
C2558 C 0.04956 0.19404 0.24475 0.0
C2559 C 0.06498 0.20541 0.24844 0.0
C2560 C 0.06494 0.17516 0.24297 0.0
C2561 C 0.09601 0.16724 0.24548 0.0
C2562 C 0.11134 0.17872 0.24887 0.0
C2563 C 0.09604 0.19756 0.25018 0.0
C2564 C 0.11275 0.1471 0.24442 0.0
C2565 C 0.13774 0.14009 0.22986 0.0
C2566 C 0.10436 0.13478 0.25752 0.0
C2567 C 0.07965 0.14112 0.27457 0.0
C2568 C 0.07952 0.15296 0.29276 0.0
C2569 C 0.05598 0.15904 0.30862 0.0
C2570 C 0.03256 0.15326 0.30657 0.0
C2571 C 0.03267 0.14134 0.2887 0.0
C2572 C 0.05614 0.13523 0.27279 0.0
C2573 C 0.20764 0.06188 0.2455 0.0
C2574 C 0.19214 0.05055 0.24172 0.0
C2575 C 0.19281 0.08086 0.24446 0.0
C2576 C 0.16228 0.08886 0.2394 0.0
C2577 C 0.14712 0.07745 0.23492 0.0
C2578 C 0.16186 0.05854 0.23604 0.0
C2579 C 0.14555 0.10897 0.24052 0.0
C2580 C 0.12059 0.11596 0.25516 0.0
C2581 C 0.15414 0.12131 0.22781 0.0
C2582 C 0.1791 0.11514 0.2112 0.0
C2583 C 0.17583 0.10822 0.18935 0.0
C2584 C 0.19844 0.10404 0.17276 0.0
C2585 C 0.22461 0.10638 0.17807 0.0
C2586 C 0.22817 0.11297 0.19994 0.0
C2587 C 0.20534 0.11758 0.21638 0.0
H2588 H 0.24202 0.10326 0.16519 0.0
H2589 H 0.01436 0.158 0.31886 0.0
H2590 H 0.2768 0.30542 0.98847 0.0
H2591 H 0.27638 0.33235 0.96782 0.0
H2592 H 0.19619 0.33701 0.93218 0.0
H2593 H 0.19617 0.3102 0.95306 0.0
H2594 H 0.24865 0.3358 0.90321 0.0
H2595 H 0.18901 0.36664 0.97194 0.0
H2596 H 0.18376 0.3708 0.01462 0.0
H2597 H 0.2625 0.3822 0.01685 0.0
H2598 H 0.26838 0.37792 0.97436 0.0
H2599 H 0.19419 0.41712 0.84274 0.0
H2600 H 0.2033 0.39093 0.8678 0.0
H2601 H 0.26172 0.40676 0.91062 0.0
H2602 H 0.2518 0.43362 0.88579 0.0
H2603 H 0.22877 0.39634 0.93781 0.0
H2604 H 0.29173 0.36847 0.87621 0.0
H2605 H 0.3117 0.35964 0.83662 0.0
H2606 H 0.24491 0.33859 0.8227 0.0
H2607 H 0.22465 0.34715 0.86236 0.0
C2608 C 0.25879 0.31234 0.97654 0.0
C2609 C 0.23646 0.3057 0.97244 0.0
C2610 C 0.25863 0.32771 0.96475 0.0
C2611 C 0.23631 0.33658 0.94846 0.0
C2612 C 0.2136 0.33029 0.94471 0.0
C2613 C 0.21349 0.31507 0.95678 0.0
C2614 C 0.23737 0.35191 0.93447 0.0
C2615 C 0.24381 0.34914 0.91062 0.0
C2616 C 0.23336 0.36883 0.94457 0.0
C2617 C 0.22917 0.37191 0.97002 0.0
C2618 C 0.20523 0.36998 0.98159 0.0
C2619 C 0.20215 0.37236 0.00577 0.0
C2620 C 0.22282 0.37674 0.0185 0.0
C2621 C 0.24651 0.37881 0.00706 0.0
C2622 C 0.24969 0.37646 0.98293 0.0
C2623 C 0.20867 0.41523 0.85767 0.0
C2624 C 0.22196 0.42762 0.86243 0.0
C2625 C 0.21428 0.40003 0.87179 0.0
C2626 C 0.23356 0.39666 0.89094 0.0
C2627 C 0.24684 0.40902 0.89589 0.0
C2628 C 0.24121 0.42434 0.88168 0.0
C2629 C 0.23853 0.38058 0.90608 0.0
C2630 C 0.23353 0.38307 0.93022 0.0
C2631 C 0.24544 0.36307 0.89645 0.0
C2632 C 0.25648 0.35863 0.87219 0.0
C2633 C 0.28109 0.36213 0.86464 0.0
C2634 C 0.29257 0.35708 0.84223 0.0
C2635 C 0.2795 0.34864 0.8271 0.0
C2636 C 0.25498 0.34516 0.83442 0.0
C2637 C 0.24356 0.35004 0.8569 0.0
H2638 H 0.28843 0.34477 0.80975 0.0
H2639 H 0.22047 0.37854 0.03722 0.0
H2640 H 0.25245 0.26354 0.91421 0.0
H2641 H 0.29159 0.26203 0.88708 0.0
H2642 H 0.35665 0.22375 0.93247 0.0
H2643 H 0.31694 0.22417 0.95882 0.0
H2644 H 0.33377 0.27234 0.89143 0.0
H2645 H 0.4177 0.19821 0.9017 0.0
H2646 H 0.41829 0.16788 0.91094 0.0
H2647 H 0.32941 0.18416 0.88494 0.0
H2648 H 0.32844 0.2145 0.87531 0.0
H2649 H 0.46258 0.26504 0.82827 0.0
H2650 H 0.43072 0.26276 0.86002 0.0
H2651 H 0.4023 0.22802 0.81734 0.0
H2652 H 0.43452 0.2298 0.78595 0.0
H2653 H 0.41017 0.21576 0.85974 0.0
H2654 H 0.36087 0.27391 0.82321 0.0
H2655 H 0.3545 0.30444 0.80924 0.0
H2656 H 0.3642 0.3204 0.87926 0.0
H2657 H 0.37115 0.28985 0.89361 0.0
C2658 C 0.27506 0.25458 0.91822 0.0
C2659 C 0.28184 0.2442 0.93877 0.0
C2660 C 0.29746 0.25385 0.90281 0.0
C2661 C 0.32714 0.24287 0.90775 0.0
C2662 C 0.33391 0.23219 0.92812 0.0
C2663 C 0.3113 0.23257 0.94328 0.0
C2664 C 0.35071 0.24305 0.89163 0.0
C2665 C 0.35054 0.25995 0.88457 0.0
C2666 C 0.37249 0.22691 0.88254 0.0
C2667 C 0.3729 0.20867 0.88806 0.0
C2668 C 0.39833 0.19529 0.89791 0.0
C2669 C 0.39872 0.1781 0.90322 0.0
C2670 C 0.37386 0.17412 0.89861 0.0
C2671 C 0.3486 0.18729 0.88859 0.0
C2672 C 0.34811 0.20449 0.88323 0.0
C2673 C 0.44971 0.2568 0.82576 0.0
C2674 C 0.45094 0.24767 0.80458 0.0
C2675 C 0.43147 0.25556 0.84387 0.0
C2676 C 0.4139 0.24538 0.84093 0.0
C2677 C 0.41573 0.2359 0.82002 0.0
C2678 C 0.4341 0.237 0.80204 0.0
C2679 C 0.39268 0.24504 0.85914 0.0
C2680 C 0.39354 0.22813 0.86678 0.0
C2681 C 0.37074 0.26119 0.86805 0.0
C2682 C 0.36701 0.27949 0.85943 0.0
C2683 C 0.362 0.28386 0.83559 0.0
C2684 C 0.35821 0.30118 0.82761 0.0
C2685 C 0.35912 0.31431 0.84334 0.0
C2686 C 0.36366 0.31018 0.86709 0.0
C2687 C 0.36754 0.29286 0.87515 0.0
H2688 H 0.35624 0.32769 0.83712 0.0
H2689 H 0.3742 0.16081 0.90275 0.0
H2690 H 0.41514 0.51219 0.98177 0.0
H2691 H 0.37392 0.51309 0.95697 0.0
H2692 H 0.40512 0.5386 0.90246 0.0
H2693 H 0.44548 0.53831 0.92764 0.0
H2694 H 0.34738 0.55226 0.9027 0.0
H2695 H 0.42351 0.48965 0.90731 0.0
H2696 H 0.45306 0.4614 0.92839 0.0
H2697 H 0.37322 0.45741 0.95367 0.0
H2698 H 0.34324 0.48566 0.9328 0.0
H2699 H 0.30992 0.52664 0.79534 0.0
H2700 H 0.33387 0.531 0.83068 0.0
H2701 H 0.28843 0.50409 0.87106 0.0
H2702 H 0.26485 0.49919 0.83545 0.0
H2703 H 0.34392 0.49249 0.88394 0.0
H2704 H 0.26781 0.55071 0.87408 0.0
H2705 H 0.23623 0.57851 0.8532 0.0
H2706 H 0.31208 0.59146 0.83973 0.0
H2707 H 0.34422 0.56358 0.86021 0.0
C2708 C 0.41291 0.51815 0.96465 0.0
C2709 C 0.4337 0.52487 0.95653 0.0
C2710 C 0.38944 0.51862 0.95042 0.0
C2711 C 0.38688 0.52544 0.92757 0.0
C2712 C 0.40669 0.53316 0.91997 0.0
C2713 C 0.42979 0.53299 0.93437 0.0
C2714 C 0.3649 0.5237 0.91093 0.0
C2715 C 0.3467 0.53918 0.89852 0.0
C2716 C 0.36298 0.50677 0.90619 0.0
C2717 C 0.38117 0.48983 0.91869 0.0
C2718 C 0.4123 0.48278 0.91746 0.0
C2719 C 0.42911 0.46677 0.92935 0.0
C2720 C 0.41499 0.45766 0.94239 0.0
C2721 C 0.38409 0.4645 0.94356 0.0
C2722 C 0.36719 0.48049 0.93169 0.0
C2723 C 0.30486 0.5217 0.81172 0.0
C2724 C 0.28536 0.51264 0.81259 0.0
C2725 C 0.31845 0.52432 0.83198 0.0
C2726 C 0.31245 0.51824 0.85363 0.0
C2727 C 0.2932 0.50902 0.85457 0.0
C2728 C 0.27976 0.50623 0.83421 0.0
C2729 C 0.32744 0.52091 0.87497 0.0
C2730 C 0.34418 0.50563 0.88834 0.0
C2731 C 0.32775 0.53806 0.88076 0.0
C2732 C 0.30847 0.55498 0.86861 0.0
C2733 C 0.2778 0.55942 0.86655 0.0
C2734 C 0.25979 0.5752 0.85479 0.0
C2735 C 0.27215 0.58673 0.84512 0.0
C2736 C 0.30254 0.58252 0.84724 0.0
C2737 C 0.32066 0.56674 0.85895 0.0
H2738 H 0.25817 0.59894 0.83602 0.0
H2739 H 0.42789 0.44525 0.95153 0.0
H2740 H 0.6217 0.70042 0.93672 0.0
H2741 H 0.60815 0.67429 0.94068 0.0
H2742 H 0.62729 0.67175 0.01444 0.0
H2743 H 0.64272 0.69731 0.01028 0.0
H2744 H 0.64984 0.63919 0.99729 0.0
H2745 H 0.55458 0.68671 0.99384 0.0
H2746 H 0.51495 0.71465 0.97918 0.0
H2747 H 0.51514 0.68857 0.91366 0.0
H2748 H 0.55506 0.66055 0.9278 0.0
H2749 H 0.55029 0.58399 0.98881 0.0
H2750 H 0.55591 0.61287 0.99412 0.0
H2751 H 0.63559 0.593 0.95253 0.0
H2752 H 0.63019 0.56396 0.94723 0.0
H2753 H 0.55838 0.63795 0.96132 0.0
H2754 H 0.68521 0.60787 0.9809 0.0
H2755 H 0.72185 0.57939 0.99718 0.0
H2756 H 0.65334 0.57134 0.0366 0.0
H2757 H 0.6165 0.60003 0.02121 0.0
C2758 C 0.62311 0.6943 0.95379 0.0
C2759 C 0.63331 0.70096 0.97318 0.0
C2760 C 0.61498 0.67949 0.9561 0.0
C2761 C 0.61624 0.67121 0.97793 0.0
C2762 C 0.62597 0.67798 0.99745 0.0
C2763 C 0.63444 0.69272 0.9951 0.0
C2764 C 0.60872 0.65498 0.9799 0.0
C2765 C 0.62973 0.63899 0.98959 0.0
C2766 C 0.58213 0.65477 0.97041 0.0
C2767 C 0.55794 0.67156 0.96185 0.0
C2768 C 0.5463 0.68697 0.97626 0.0
C2769 C 0.52376 0.70282 0.96804 0.0
C2770 C 0.51256 0.7034 0.94549 0.0
C2771 C 0.52383 0.68811 0.93112 0.0
C2772 C 0.54638 0.67222 0.93925 0.0
C2773 C 0.56907 0.58577 0.98086 0.0
C2774 C 0.58998 0.57173 0.96774 0.0
C2775 C 0.57209 0.60229 0.98378 0.0
C2776 C 0.59622 0.60495 0.97383 0.0
C2777 C 0.61692 0.59108 0.96045 0.0
C2778 C 0.61377 0.57458 0.95735 0.0
C2779 C 0.60006 0.62217 0.97767 0.0
C2780 C 0.57832 0.63829 0.96918 0.0
C2781 C 0.62554 0.62259 0.98885 0.0
C2782 C 0.64799 0.606 -0.00041 0.0
C2783 C 0.678 0.60013 0.99322 0.0
C2784 C 0.69881 0.58392 0.00226 0.0
C2785 C 0.68987 0.57346 0.01769 0.0
C2786 C 0.66019 0.57934 0.02444 0.0
C2787 C 0.63937 0.59562 0.01564 0.0
H2788 H 0.706 0.56089 0.0246 0.0
H2789 H 0.49513 0.71568 0.93916 0.0
H2790 H 0.97836 0.81047 0.72536 0.0
H2791 H 0.95197 0.84356 0.72603 0.0
H2792 H 0.88162 0.83758 0.76616 0.0
H2793 H 0.90708 0.80455 0.76404 0.0
H2794 H 0.8576 0.86074 0.73489 0.0
H2795 H 0.94026 0.85452 0.78837 0.0
H2796 H 0.99295 0.84605 0.79877 0.0
H2797 H 0.0042 0.87662 0.74071 0.0
H2798 H 0.95165 0.88545 0.72999 0.0
H2799 H 0.77888 0.95332 0.76488 0.0
H2800 H 0.80767 0.92046 0.76546 0.0
H2801 H 0.87804 0.92839 0.72764 0.0
H2802 H 0.85003 0.9612 0.72856 0.0
H2803 H 0.90262 0.90438 0.75668 0.0
H2804 H 0.82485 0.91146 0.70226 0.0
H2805 H 0.77311 0.92178 0.68856 0.0
H2806 H 0.75419 0.89012 0.74201 0.0
H2807 H 0.80573 0.87976 0.75621 0.0
C2808 C 0.9574 0.81629 0.7345 0.0
C2809 C 0.94471 0.80497 0.74462 0.0
C2810 C 0.94236 0.83526 0.73506 0.0
C2811 C 0.9148 0.84332 0.74647 0.0
C2812 C 0.9027 0.83188 0.75715 0.0
C2813 C 0.91733 0.81296 0.75605 0.0
C2814 C 0.89761 0.8635 0.74637 0.0
C2815 C 0.86744 0.87023 0.74003 0.0
C2816 C 0.91044 0.87616 0.75193 0.0
C2817 C 0.94211 0.8705 0.75828 0.0
C2818 C 0.95402 0.85933 0.77774 0.0
C2819 C 0.98383 0.85448 0.78371 0.0
C2820 C 0.00191 0.86066 0.77036 0.0
C2821 C 0.99021 0.8718 0.75102 0.0
C2822 C 0.96041 0.87679 0.74503 0.0
C2823 C 0.80043 0.94797 0.75669 0.0
C2824 C 0.81208 0.95978 0.74657 0.0
C2825 C 0.8169 0.92915 0.75686 0.0
C2826 C 0.84498 0.92169 0.74611 0.0
C2827 C 0.85656 0.93362 0.73608 0.0
C2828 C 0.84046 0.95242 0.73653 0.0
C2829 C 0.86257 0.90158 0.74556 0.0
C2830 C 0.89275 0.89489 0.75165 0.0
C2831 C 0.84997 0.88898 0.73914 0.0
C2832 C 0.81908 0.89496 0.73042 0.0
C2833 C 0.80961 0.90676 0.71116 0.0
C2834 C 0.78033 0.91261 0.70329 0.0
C2835 C 0.76036 0.90664 0.71445 0.0
C2836 C 0.76967 0.89474 0.73341 0.0
C2837 C 0.79893 0.88886 0.74135 0.0
H2838 H 0.73768 0.91122 0.70838 0.0
H2839 H 0.02496 0.85687 0.77507 0.0
H2840 H 0.46517 0.15493 0.67566 0.0
H2841 H 0.46902 0.12949 0.65066 0.0
H2842 H 0.50658 0.15112 0.59603 0.0
H2843 H 0.50117 0.17714 0.62045 0.0
H2844 H 0.4673 0.14162 0.57771 0.0
H2845 H 0.54739 0.11198 0.62885 0.0
H2846 H 0.57546 0.10133 0.66523 0.0
H2847 H 0.51977 0.07307 0.68369 0.0
H2848 H 0.49121 0.08356 0.64737 0.0
H2849 H 0.50432 0.05843 0.51199 0.0
H2850 H 0.50823 0.0833 0.53487 0.0
H2851 H 0.44924 0.07659 0.58655 0.0
H2852 H 0.44538 0.05162 0.56382 0.0
H2853 H 0.50439 0.07753 0.60438 0.0
H2854 H 0.42156 0.11215 0.55345 0.0
H2855 H 0.39852 0.12086 0.51464 0.0
H2856 H 0.4682 0.13778 0.49398 0.0
H2857 H 0.49177 0.12897 0.53254 0.0
C2858 C 0.47419 0.15431 0.65828 0.0
C2859 C 0.48258 0.16822 0.65001 0.0
C2860 C 0.47681 0.13956 0.64408 0.0
C2861 C 0.48844 0.13814 0.62142 0.0
C2862 C 0.49763 0.15175 0.61339 0.0
C2863 C 0.49474 0.16662 0.6275 0.0
C2864 C 0.48903 0.12313 0.60572 0.0
C2865 C 0.47599 0.12758 0.58349 0.0
C2866 C 0.50015 0.10472 0.61313 0.0
C2867 C 0.51699 0.09865 0.63529 0.0
C2868 C 0.54097 0.10355 0.64062 0.0
C2869 C 0.55702 0.09753 0.66128 0.0
C2870 C 0.54936 0.08657 0.6768 0.0
C2871 C 0.52568 0.08157 0.67165 0.0
C2872 C 0.50959 0.08752 0.65099 0.0
C2873 C 0.49191 0.0624 0.5281 0.0
C2874 C 0.47448 0.0531 0.53609 0.0
C2875 C 0.49417 0.0766 0.54113 0.0
C2876 C 0.47909 0.08172 0.56243 0.0
C2877 C 0.4611 0.07278 0.57018 0.0
C2878 C 0.45862 0.05868 0.55703 0.0
C2879 C 0.48242 0.09621 0.57686 0.0
C2880 C 0.49607 0.09161 0.59878 0.0
C2881 C 0.47281 0.11433 0.56893 0.0
C2882 C 0.45845 0.11987 0.54586 0.0
C2883 C 0.432 0.11767 0.54059 0.0
C2884 C 0.41884 0.12263 0.51863 0.0
C2885 C 0.43189 0.12987 0.50185 0.0
C2886 C 0.45809 0.1322 0.507 0.0
C2887 C 0.47133 0.12726 0.52893 0.0
H2888 H 0.42169 0.13368 0.48485 0.0
H2889 H 0.5618 0.08195 0.69279 0.0
H2890 H 0.47543 0.33561 0.8739 0.0
H2891 H 0.47077 0.3611 0.89977 0.0
H2892 H 0.55216 0.36186 0.87183 0.0
H2893 H 0.55714 0.33634 0.84652 0.0
H2894 H 0.55303 0.36407 0.917 0.0
H2895 H 0.48146 0.39365 0.85669 0.0
H2896 H 0.4374 0.39904 0.83221 0.0
H2897 H 0.38258 0.4103 0.8934 0.0
H2898 H 0.42639 0.4047 0.91826 0.0
H2899 H 0.54362 0.45317 0.94496 0.0
H2900 H 0.54445 0.42605 0.92454 0.0
H2901 H 0.47444 0.42448 0.96893 0.0
H2902 H 0.47306 0.4516 0.98925 0.0
H2903 H 0.46474 0.42209 0.91919 0.0
H2904 H 0.5364 0.39419 0.97898 0.0
H2905 H 0.58055 0.38959 0.00297 0.0
H2906 H 0.63521 0.37593 0.94164 0.0
H2907 H 0.59128 0.3807 0.91722 0.0
C2908 C 0.49219 0.34132 0.87327 0.0
C2909 C 0.51678 0.3339 0.85837 0.0
C2910 C 0.4895 0.35589 0.888 0.0
C2911 C 0.51108 0.36346 0.88771 0.0
C2912 C 0.53536 0.35618 0.87255 0.0
C2913 C 0.53821 0.34157 0.8581 0.0
C2914 C 0.50908 0.37874 0.90335 0.0
C2915 C 0.53378 0.3768 0.91725 0.0
C2916 C 0.48365 0.3952 0.90431 0.0
C2917 C 0.45729 0.39853 0.88937 0.0
C2918 C 0.46006 0.39711 0.86494 0.0
C2919 C 0.43511 0.40023 0.85099 0.0
C2920 C 0.40722 0.40495 0.86124 0.0
C2921 C 0.40421 0.40661 0.88548 0.0
C2922 C 0.42909 0.40346 0.89951 0.0
C2923 C 0.5285 0.44701 0.95048 0.0
C2924 C 0.5082 0.45463 0.96867 0.0
C2925 C 0.52899 0.43153 0.93879 0.0
C2926 C 0.50925 0.42342 0.9451 0.0
C2927 C 0.48951 0.43071 0.96359 0.0
C2928 C 0.48894 0.44617 0.97527 0.0
C2929 C 0.50899 0.40748 0.93211 0.0
C2930 C 0.48384 0.40929 0.91891 0.0
C2931 C 0.53403 0.39093 0.93163 0.0
C2932 C 0.56051 0.38798 0.94625 0.0
C2933 C 0.55779 0.39036 0.97058 0.0
C2934 C 0.58278 0.38769 0.98426 0.0
C2935 C 0.61066 0.38252 0.97383 0.0
C2936 C 0.6136 0.37996 0.94969 0.0
C2937 C 0.58867 0.38263 0.93593 0.0
H2938 H 0.62998 0.38045 0.98445 0.0
H2939 H 0.38794 0.40736 0.85041 0.0
H2940 H 0.52306 0.84747 0.34124 0.0
H2941 H 0.52114 0.87084 0.36943 0.0
H2942 H 0.47665 0.84925 0.41872 0.0
H2943 H 0.47884 0.82552 0.39049 0.0
H2944 H 0.4521 0.88961 0.41182 0.0
H2945 H 0.54266 0.83905 0.43004 0.0
H2946 H 0.5905 0.81441 0.42048 0.0
H2947 H 0.62287 0.8534 0.39341 0.0
H2948 H 0.57503 0.87826 0.40247 0.0
H2949 H 0.46779 0.94616 0.50224 0.0
H2950 H 0.46711 0.92012 0.48023 0.0
H2951 H 0.53524 0.92298 0.43465 0.0
H2952 H 0.53692 0.94852 0.45706 0.0
H2953 H 0.54656 0.88984 0.44278 0.0
H2954 H 0.45732 0.94052 0.42298 0.0
H2955 H 0.40828 0.96544 0.42742 0.0
H2956 H 0.37175 0.92785 0.45187 0.0
H2957 H 0.42072 0.90272 0.4487 0.0
C2958 C 0.51253 0.84782 0.35797 0.0
C2959 C 0.50101 0.83475 0.3637 0.0
C2960 C 0.51163 0.86109 0.37408 0.0
C2961 C 0.49896 0.86164 0.39615 0.0
C2962 C 0.4866 0.84896 0.40176 0.0
C2963 C 0.48792 0.83544 0.38571 0.0
C2964 C 0.49934 0.87535 0.41333 0.0
C2965 C 0.47259 0.88958 0.41908 0.0
C2966 C 0.52628 0.87542 0.42204 0.0
C2967 C 0.55517 0.86051 0.41677 0.0
C2968 C 0.55989 0.84236 0.42187 0.0
C2969 C 0.58703 0.82835 0.41657 0.0
C2970 C 0.60969 0.83233 0.4063 0.0
C2971 C 0.60529 0.85033 0.40135 0.0
C2972 C 0.57818 0.86439 0.40659 0.0
C2973 C 0.48296 0.94106 0.48774 0.0
C2974 C 0.50256 0.94935 0.48146 0.0
C2975 C 0.48231 0.92628 0.47505 0.0
C2976 C 0.50068 0.91974 0.45553 0.0
C2977 C 0.5208 0.92772 0.44964 0.0
C2978 C 0.52184 0.94231 0.46254 0.0
C2979 C 0.49917 0.90458 0.44121 0.0
C2980 C 0.52584 0.88997 0.43592 0.0
C2981 C 0.47205 0.90437 0.43265 0.0
C2982 C 0.44298 0.91973 0.43604 0.0
C2983 C 0.43906 0.93758 0.42989 0.0
C2984 C 0.41126 0.95177 0.43222 0.0
C2985 C 0.3871 0.94829 0.44031 0.0
C2986 C 0.39063 0.93058 0.44607 0.0
C2987 C 0.41842 0.91636 0.4441 0.0
H2988 H 0.36556 0.95928 0.44189 0.0
H2989 H 0.63069 0.82147 0.40221 0.0
H2990 H 0.47429 0.54994 0.06198 0.0
H2991 H 0.47645 0.57644 0.08156 0.0
H2992 H 0.50076 0.59442 0.01651 0.0
H2993 H 0.50127 0.56694 0.99748 0.0
H2994 H 0.53079 0.60109 0.04554 0.0
H2995 H 0.42773 0.61537 0.04571 0.0
H2996 H 0.38079 0.61123 0.0512 0.0
H2997 H 0.39721 0.60428 0.12491 0.0
H2998 H 0.44445 0.60814 0.11982 0.0
H2999 H 0.48862 0.69101 0.10192 0.0
H3000 H 0.49116 0.66606 0.07579 0.0
H3001 H 0.51153 0.62943 0.13449 0.0
H3002 H 0.50919 0.65412 0.1606 0.0
H3003 H 0.45689 0.63522 0.10525 0.0
H3004 H 0.56545 0.61972 0.09858 0.0
H3005 H 0.60806 0.6275 0.08801 0.0
H3006 H 0.57117 0.64399 0.01979 0.0
H3007 H 0.52881 0.63592 0.02973 0.0
C3008 C 0.47962 0.55971 0.05182 0.0
C3009 C 0.48728 0.55652 0.0282 0.0
C3010 C 0.48067 0.57499 0.06298 0.0
C3011 C 0.48804 0.58786 0.0505 0.0
C3012 C 0.49502 0.5848 0.02666 0.0
C3013 C 0.49506 0.56917 0.01572 0.0
C3014 C 0.48976 0.60397 0.06259 0.0
C3015 C 0.51425 0.60865 0.0583 0.0
C3016 C 0.46821 0.61421 0.07915 0.0
C3017 C 0.43976 0.61191 0.08234 0.0
C3018 C 0.42142 0.61285 0.06307 0.0
C3019 C 0.39475 0.61056 0.06611 0.0
C3020 C 0.38605 0.60746 0.08838 0.0
C3021 C 0.40398 0.60667 0.10766 0.0
C3022 C 0.43069 0.60894 0.10472 0.0
C3023 C 0.49419 0.67754 0.10914 0.0
C3024 C 0.49864 0.67452 0.13331 0.0
C3025 C 0.49579 0.66332 0.09421 0.0
C3026 C 0.50156 0.64596 0.10327 0.0
C3027 C 0.50723 0.64274 0.12719 0.0
C3028 C 0.50601 0.65685 0.14206 0.0
C3029 C 0.49808 0.63171 0.08857 0.0
C3030 C 0.47313 0.62756 0.09233 0.0
C3031 C 0.51836 0.6226 0.07083 0.0
C3032 C 0.54393 0.62734 0.06495 0.0
C3033 C 0.56646 0.62502 0.08134 0.0
C3034 C 0.59065 0.62937 0.0754 0.0
C3035 C 0.59238 0.63616 0.05318 0.0
C3036 C 0.56998 0.63856 0.03686 0.0
C3037 C 0.54596 0.63403 0.04261 0.0
H3038 H 0.61101 0.63959 0.04859 0.0
H3039 H 0.3654 0.60568 0.0907 0.0
loop_
_geom_bond_atom_site_label_1
_geom_bond_atom_site_label_2
_geom_bond_distance
_geom_bond_site_symmetry_2
_ccdc_geom_bond_type
Tb0 C2 2.809 . S
Tb0 O20 2.484 . S
Tb0 O21 2.440 . S
Tb0 O22 2.658 1_655 S
Tb0 O23 2.409 1_655 S
Tb0 O24 2.401 1_655 S
Tb0 O28 2.325 1_564 S
Tb0 O31 2.341 1_565 S
Tb1 C11 2.809 . S
Tb1 O22 2.325 1_546 S
Tb1 O25 2.341 1_545 S
Tb1 O26 2.484 . S
Tb1 O27 2.440 . S
Tb1 O28 2.658 1_455 S
Tb1 O29 2.409 1_455 S
Tb1 O30 2.379 1_455 S
C2 Tb0 2.809 . S
C2 C3 1.514 . S
C2 O20 1.248 . S
C2 O21 1.266 . S
C3 C2 1.514 . S
C3 C4 1.359 . S
C3 C8 1.348 . S
C4 C3 1.359 . S
C4 C5 1.380 . S
C4 H32 0.929 1_554 S
C5 C4 1.380 . S
C5 C6 1.347 . S
C5 H33 0.931 1_554 S
C6 C5 1.347 . S
C6 C7 1.369 . S
C7 C6 1.369 . S
C7 C8 1.408 . S
C7 H34 0.930 . S
C8 C3 1.348 . S
C8 C7 1.408 . S
C8 H35 0.930 . S
C9 O22 1.281 . S
C9 O23 1.254 . S
C10 O24 1.196 1_556 S
C10 O25 1.266 . S
C11 Tb1 2.809 . S
C11 C12 1.514 . S
C11 O26 1.248 . S
C11 O27 1.266 . S
C12 C11 1.514 . S
C12 C13 1.381 . S
C12 C17 1.348 . S
C13 C12 1.381 . S
C13 C14 1.380 . S
C13 H36 0.907 1_556 S
C14 C13 1.380 . S
C14 C15 1.371 . S
C14 H37 0.906 1_556 S
C15 C14 1.371 . S
C15 C16 1.369 . S
C16 C15 1.369 . S
C16 C17 1.408 . S
C16 H38 0.930 . S
C17 C12 1.348 . S
C17 C16 1.408 . S
C17 H39 0.930 . S
C18 O28 1.281 . S
C18 O29 1.254 . S
C19 O30 1.234 1_554 S
C19 O31 1.266 . S
O20 Tb0 2.484 . S
O20 C2 1.248 . S
O21 Tb0 2.440 . S
O21 C2 1.266 . S
O22 Tb0 2.658 1_455 S
O22 Tb1 2.325 1_564 S
O22 C9 1.281 . S
O23 Tb0 2.409 1_455 S
O23 C9 1.254 . S
O24 Tb0 2.401 1_455 S
O24 C10 1.196 1_554 S
O25 Tb1 2.341 1_565 S
O25 C10 1.266 . S
O26 Tb1 2.484 . S
O26 C11 1.248 . S
O27 Tb1 2.440 . S
O27 C11 1.266 . S
O28 Tb0 2.325 1_546 S
O28 Tb1 2.658 1_655 S
O28 C18 1.281 . S
O29 Tb1 2.409 1_655 S
O29 C18 1.254 . S
O30 Tb1 2.379 1_655 S
O30 C19 1.234 1_556 S
O31 Tb0 2.341 1_545 S
O31 C19 1.266 . S
H32 C4 0.929 1_556 S
H33 C5 0.931 1_556 S
H34 C7 0.930 . S
H35 C8 0.930 . S
H36 C13 0.907 1_554 S
H37 C14 0.906 1_554 S
H38 C16 0.930 . S
H39 C17 0.930 . S
Tb40 C42 2.809 . S
Tb40 O60 2.489 . S
Tb40 O61 2.440 . S
Tb40 O62 2.658 . S
Tb40 O63 2.409 . S
Tb40 O64 2.378 1_455 S
Tb40 O68 2.325 1_455 S
Tb40 O71 2.341 . S
Tb41 C51 2.809 . S
Tb41 O62 2.325 1_655 S
Tb41 O65 2.341 . S
Tb41 O66 2.484 1_655 S
Tb41 O67 2.440 . S
Tb41 O68 2.658 . S
Tb41 O69 2.409 . S
Tb41 O70 2.378 1_655 S
C42 Tb40 2.809 . S
C42 C43 1.514 . S
C42 O60 1.263 . S
C42 O61 1.266 . S
C43 C42 1.514 . S
C43 C44 1.359 1_455 S
C43 C48 1.348 . S
C44 C43 1.359 1_655 S
C44 C45 1.380 . S
C44 H72 0.929 . S
C45 C44 1.380 . S
C45 C46 1.347 1_655 S
C45 H73 0.931 . S
C46 C45 1.347 1_455 S
C46 C47 1.369 . S
C47 C46 1.369 . S
C47 C48 1.408 . S
C47 H74 0.930 . S
C48 C43 1.348 . S
C48 C47 1.408 . S
C48 H75 0.930 . S
C49 O62 1.281 . S
C49 O63 1.254 . S
C50 O64 1.236 . S
C50 O65 1.266 . S
C51 Tb41 2.809 . S
C51 C52 1.514 . S
C51 O66 1.246 1_655 S
C51 O67 1.266 . S
C52 C51 1.514 . S
C52 C53 1.359 1_655 S
C52 C57 1.348 . S
C53 C52 1.359 1_455 S
C53 C54 1.380 . S
C53 H76 0.929 . S
C54 C53 1.380 . S
C54 C55 1.347 1_455 S
C54 H77 0.931 . S
C55 C54 1.347 1_655 S
C55 C56 1.369 . S
C56 C55 1.369 . S
C56 C57 1.408 . S
C56 H78 0.930 . S
C57 C52 1.348 . S
C57 C56 1.408 . S
C57 H79 0.930 . S
C58 O68 1.281 . S
C58 O69 1.254 . S
C59 O70 1.236 . S
C59 O71 1.266 . S
O60 Tb40 2.489 . S
O60 C42 1.263 . S
O61 Tb40 2.440 . S
O61 C42 1.266 . S
O62 Tb40 2.658 . S
O62 Tb41 2.325 1_455 S
O62 C49 1.281 . S
O63 Tb40 2.409 . S
O63 C49 1.254 . S
O64 Tb40 2.378 1_655 S
O64 C50 1.236 . S
O65 Tb41 2.341 . S
O65 C50 1.266 . S
O66 Tb41 2.484 1_455 S
O66 C51 1.246 1_455 S
O67 Tb41 2.440 . S
O67 C51 1.266 . S
O68 Tb40 2.325 1_655 S
O68 Tb41 2.658 . S
O68 C58 1.281 . S
O69 Tb41 2.409 . S
O69 C58 1.254 . S
O70 Tb41 2.378 1_455 S
O70 C59 1.236 . S
O71 Tb40 2.341 . S
O71 C59 1.266 . S
H72 C44 0.929 . S
H73 C45 0.931 . S
H74 C47 0.930 . S
H75 C48 0.930 . S
H76 C53 0.929 . S
H77 C54 0.931 . S
H78 C56 0.930 . S
H79 C57 0.930 . S
Tb80 C82 2.809 . S
Tb80 O100 2.484 . S
Tb80 O101 2.440 . S
Tb80 O102 2.658 . S
Tb80 O103 2.409 . S
Tb80 O104 2.378 . S
Tb80 O108 2.325 . S
Tb80 O111 2.341 . S
Tb81 C91 2.809 . S
Tb81 O102 2.325 . S
Tb81 O105 2.341 . S
Tb81 O106 2.484 . S
Tb81 O107 2.440 . S
Tb81 O108 2.658 . S
Tb81 O109 2.409 . S
Tb81 O110 2.378 . S
C82 Tb80 2.809 . S
C82 C83 1.514 . S
C82 O100 1.248 . S
C82 O101 1.266 . S
C83 C82 1.514 . S
C83 C84 1.359 . S
C83 C88 1.348 . S
C84 C83 1.359 . S
C84 C85 1.380 . S
C84 H112 0.929 . S
C85 C84 1.380 . S
C85 C86 1.347 . S
C85 H113 0.931 . S
C86 C85 1.347 . S
C86 C87 1.369 . S
C87 C86 1.369 . S
C87 C88 1.408 . S
C87 H114 0.930 . S
C88 C83 1.348 . S
C88 C87 1.408 . S
C88 H115 0.930 . S
C89 O102 1.281 . S
C89 O103 1.254 . S
C90 O104 1.236 . S
C90 O105 1.266 . S
C91 Tb81 2.809 . S
C91 C92 1.514 . S
C91 O106 1.248 . S
C91 O107 1.266 . S
C92 C91 1.514 . S
C92 C93 1.359 . S
C92 C97 1.348 . S
C93 C92 1.359 . S
C93 C94 1.380 . S
C93 H116 0.929 . S
C94 C93 1.380 . S
C94 C95 1.347 . S
C94 H117 0.931 . S
C95 C94 1.347 . S
C95 C96 1.369 . S
C96 C95 1.369 . S
C96 C97 1.408 . S
C96 H118 0.930 . S
C97 C92 1.348 . S
C97 C96 1.408 . S
C97 H119 0.930 . S
C98 O108 1.281 . S
C98 O109 1.254 . S
C99 O110 1.236 . S
C99 O111 1.266 . S
O100 Tb80 2.484 . S
O100 C82 1.248 . S
O101 Tb80 2.440 . S
O101 C82 1.266 . S
O102 Tb80 2.658 . S
O102 Tb81 2.325 . S
O102 C89 1.281 . S
O103 Tb80 2.409 . S
O103 C89 1.254 . S
O104 Tb80 2.378 . S
O104 C90 1.236 . S
O105 Tb81 2.341 . S
O105 C90 1.266 . S
O106 Tb81 2.484 . S
O106 C91 1.248 . S
O107 Tb81 2.440 . S
O107 C91 1.266 . S
O108 Tb80 2.325 . S
O108 Tb81 2.658 . S
O108 C98 1.281 . S
O109 Tb81 2.409 . S
O109 C98 1.254 . S
O110 Tb81 2.378 . S
O110 C99 1.236 . S
O111 Tb80 2.341 . S
O111 C99 1.266 . S
H112 C84 0.929 . S
H113 C85 0.931 . S
H114 C87 0.930 . S
H115 C88 0.930 . S
H116 C93 0.929 . S
H117 C94 0.931 . S
H118 C96 0.930 . S
H119 C97 0.930 . S
Tb120 C122 2.809 . S
Tb120 O140 2.484 . S
Tb120 O141 2.440 . S
Tb120 O142 2.658 1_565 S
Tb120 O143 2.409 1_565 S
Tb120 O144 2.381 . S
Tb120 O148 2.325 . S
Tb120 O151 2.341 . S
Tb121 C131 2.809 . S
Tb121 O142 2.325 . S
Tb121 O145 2.341 . S
Tb121 O146 2.484 . S
Tb121 O147 2.440 . S
Tb121 O148 2.658 1_545 S
Tb121 O149 2.409 1_545 S
Tb121 O150 2.378 . S
C122 Tb120 2.809 . S
C122 C123 1.514 . S
C122 O140 1.248 . S
C122 O141 1.266 . S
C123 C122 1.514 . S
C123 C124 1.359 . S
C123 C128 1.348 . S
C124 C123 1.359 . S
C124 C125 1.380 . S
C124 H152 0.929 . S
C125 C124 1.380 . S
C125 C126 1.347 . S
C125 H153 0.931 . S
C126 C125 1.347 . S
C126 C127 1.369 . S
C127 C126 1.369 . S
C127 C128 1.408 . S
C127 H154 0.930 . S
C128 C123 1.348 . S
C128 C127 1.408 . S
C128 H155 0.930 . S
C129 O142 1.281 . S
C129 O143 1.254 . S
C130 O144 1.220 1_545 S
C130 O145 1.282 . S
C131 Tb121 2.809 . S
C131 C132 1.514 . S
C131 O146 1.248 . S
C131 O147 1.266 . S
C132 C131 1.514 . S
C132 C133 1.359 . S
C132 C137 1.348 . S
C133 C132 1.359 . S
C133 C134 1.380 . S
C133 H156 0.929 . S
C134 C133 1.380 . S
C134 C135 1.347 . S
C134 H157 0.931 . S
C135 C134 1.347 . S
C135 C136 1.369 . S
C136 C135 1.369 . S
C136 C137 1.408 . S
C136 H158 0.930 . S
C137 C132 1.348 . S
C137 C136 1.408 . S
C137 H159 0.930 . S
C138 O148 1.281 . S
C138 O149 1.254 . S
C139 O150 1.236 . S
C139 O151 1.266 1_545 S
O140 Tb120 2.484 . S
O140 C122 1.248 . S
O141 Tb120 2.440 . S
O141 C122 1.266 . S
O142 Tb120 2.658 1_545 S
O142 Tb121 2.325 . S
O142 C129 1.281 . S
O143 Tb120 2.409 1_545 S
O143 C129 1.254 . S
O144 Tb120 2.381 . S
O144 C130 1.220 1_565 S
O145 Tb121 2.341 . S
O145 C130 1.282 . S
O146 Tb121 2.484 . S
O146 C131 1.248 . S
O147 Tb121 2.440 . S
O147 C131 1.266 . S
O148 Tb120 2.325 . S
O148 Tb121 2.658 1_565 S
O148 C138 1.281 . S
O149 Tb121 2.409 1_565 S
O149 C138 1.254 . S
O150 Tb121 2.378 . S
O150 C139 1.236 . S
O151 Tb120 2.341 . S
O151 C139 1.266 1_565 S
H152 C124 0.929 . S
H153 C125 0.931 . S
H154 C127 0.930 . S
H155 C128 0.930 . S
H156 C133 0.929 . S
H157 C134 0.931 . S
H158 C136 0.930 . S
H159 C137 0.930 . S
Tb160 C162 2.809 . S
Tb160 O180 2.484 . S
Tb160 O181 2.440 . S
Tb160 O182 2.658 . S
Tb160 O183 2.409 . S
Tb160 O184 2.378 . S
Tb160 O188 2.325 . S
Tb160 O191 2.341 . S
Tb161 C171 2.809 . S
Tb161 O182 2.325 . S
Tb161 O185 2.341 . S
Tb161 O186 2.484 . S
Tb161 O187 2.440 . S
Tb161 O188 2.658 . S
Tb161 O189 2.409 . S
Tb161 O190 2.378 . S
C162 Tb160 2.809 . S
C162 C163 1.514 . S
C162 O180 1.248 . S
C162 O181 1.266 . S
C163 C162 1.514 . S
C163 C164 1.359 . S
C163 C168 1.348 . S
C164 C163 1.359 . S
C164 C165 1.380 . S
C164 H192 0.929 . S
C165 C164 1.380 . S
C165 C166 1.347 . S
C165 H193 0.931 . S
C166 C165 1.347 . S
C166 C167 1.369 . S
C167 C166 1.369 . S
C167 C168 1.408 . S
C167 H194 0.930 . S
C168 C163 1.348 . S
C168 C167 1.408 . S
C168 H195 0.930 . S
C169 O182 1.281 . S
C169 O183 1.254 . S
C170 O184 1.236 . S
C170 O185 1.266 . S
C171 Tb161 2.809 . S
C171 C172 1.514 . S
C171 O186 1.248 . S
C171 O187 1.266 . S
C172 C171 1.514 . S
C172 C173 1.359 . S
C172 C177 1.348 . S
C173 C172 1.359 . S
C173 C174 1.380 . S
C173 H196 0.929 . S
C174 C173 1.380 . S
C174 C175 1.347 . S
C174 H197 0.931 . S
C175 C174 1.347 . S
C175 C176 1.369 . S
C176 C175 1.369 . S
C176 C177 1.408 . S
C176 H198 0.930 . S
C177 C172 1.348 . S
C177 C176 1.408 . S
C177 H199 0.930 . S
C178 O188 1.281 . S
C178 O189 1.254 . S
C179 O190 1.236 . S
C179 O191 1.266 . S
O180 Tb160 2.484 . S
O180 C162 1.248 . S
O181 Tb160 2.440 . S
O181 C162 1.266 . S
O182 Tb160 2.658 . S
O182 Tb161 2.325 . S
O182 C169 1.281 . S
O183 Tb160 2.409 . S
O183 C169 1.254 . S
O184 Tb160 2.378 . S
O184 C170 1.236 . S
O185 Tb161 2.341 . S
O185 C170 1.266 . S
O186 Tb161 2.484 . S
O186 C171 1.248 . S
O187 Tb161 2.440 . S
O187 C171 1.266 . S
O188 Tb160 2.325 . S
O188 Tb161 2.658 . S
O188 C178 1.281 . S
O189 Tb161 2.409 . S
O189 C178 1.254 . S
O190 Tb161 2.378 . S
O190 C179 1.236 . S
O191 Tb160 2.341 . S
O191 C179 1.266 . S
H192 C164 0.929 . S
H193 C165 0.931 . S
H194 C167 0.930 . S
H195 C168 0.930 . S
H196 C173 0.929 . S
H197 C174 0.931 . S
H198 C176 0.930 . S
H199 C177 0.930 . S
Tb200 C202 2.809 . S
Tb200 O220 2.484 . S
Tb200 O221 2.440 . S
Tb200 O222 2.658 . S
Tb200 O223 2.409 . S
Tb200 O224 2.378 . S
Tb200 O228 2.325 . S
Tb200 O231 2.341 . S
Tb201 C211 2.809 . S
Tb201 O222 2.325 . S
Tb201 O225 2.341 . S
Tb201 O226 2.484 . S
Tb201 O227 2.440 . S
Tb201 O228 2.658 . S
Tb201 O229 2.409 . S
Tb201 O230 2.378 . S
C202 Tb200 2.809 . S
C202 C203 1.514 . S
C202 O220 1.248 . S
C202 O221 1.266 . S
C203 C202 1.514 . S
C203 C204 1.359 . S
C203 C208 1.348 . S
C204 C203 1.359 . S
C204 C205 1.380 . S
C204 H232 0.929 . S
C205 C204 1.380 . S
C205 C206 1.347 . S
C205 H233 0.931 . S
C206 C205 1.347 . S
C206 C207 1.369 . S
C207 C206 1.369 . S
C207 C208 1.408 . S
C207 H234 0.930 . S
C208 C203 1.348 . S
C208 C207 1.408 . S
C208 H235 0.930 . S
C209 O222 1.281 . S
C209 O223 1.254 . S
C210 O224 1.236 . S
C210 O225 1.266 . S
C211 Tb201 2.809 . S
C211 C212 1.514 . S
C211 O226 1.248 . S
C211 O227 1.266 . S
C212 C211 1.514 . S
C212 C213 1.359 . S
C212 C217 1.348 . S
C213 C212 1.359 . S
C213 C214 1.380 . S
C213 H236 0.929 . S
C214 C213 1.380 . S
C214 C215 1.347 . S
C214 H237 0.931 . S
C215 C214 1.347 . S
C215 C216 1.369 . S
C216 C215 1.369 . S
C216 C217 1.408 . S
C216 H238 0.930 . S
C217 C212 1.348 . S
C217 C216 1.408 . S
C217 H239 0.930 . S
C218 O228 1.281 . S
C218 O229 1.254 . S
C219 O230 1.236 . S
C219 O231 1.266 . S
O220 Tb200 2.484 . S
O220 C202 1.248 . S
O221 Tb200 2.440 . S
O221 C202 1.266 . S
O222 Tb200 2.658 . S
O222 Tb201 2.325 . S
O222 C209 1.281 . S
O223 Tb200 2.409 . S
O223 C209 1.254 . S
O224 Tb200 2.378 . S
O224 C210 1.236 . S
O225 Tb201 2.341 . S
O225 C210 1.266 . S
O226 Tb201 2.484 . S
O226 C211 1.248 . S
O227 Tb201 2.440 . S
O227 C211 1.266 . S
O228 Tb200 2.325 . S
O228 Tb201 2.658 . S
O228 C218 1.281 . S
O229 Tb201 2.409 . S
O229 C218 1.254 . S
O230 Tb201 2.378 . S
O230 C219 1.236 . S
O231 Tb200 2.341 . S
O231 C219 1.266 . S
H232 C204 0.929 . S
H233 C205 0.931 . S
H234 C207 0.930 . S
H235 C208 0.930 . S
H236 C213 0.929 . S
H237 C214 0.931 . S
H238 C216 0.930 . S
H239 C217 0.930 . S
Tb240 C242 2.809 . S
Tb240 O260 2.484 . S
Tb240 O261 2.440 . S
Tb240 O262 2.658 . S
Tb240 O263 2.409 . S
Tb240 O264 2.378 . S
Tb240 O268 2.325 . S
Tb240 O271 2.341 . S
Tb241 C251 2.809 . S
Tb241 O262 2.325 . S
Tb241 O265 2.341 . S
Tb241 O266 2.484 . S
Tb241 O267 2.440 . S
Tb241 O268 2.658 . S
Tb241 O269 2.409 . S
Tb241 O270 2.378 . S
C242 Tb240 2.809 . S
C242 C243 1.514 . S
C242 O260 1.248 . S
C242 O261 1.266 . S
C243 C242 1.514 . S
C243 C244 1.359 . S
C243 C248 1.348 . S
C244 C243 1.359 . S
C244 C245 1.380 . S
C244 H272 0.929 . S
C245 C244 1.380 . S
C245 C246 1.347 . S
C245 H273 0.931 . S
C246 C245 1.347 . S
C246 C247 1.369 . S
C247 C246 1.369 . S
C247 C248 1.408 . S
C247 H274 0.930 . S
C248 C243 1.348 . S
C248 C247 1.408 . S
C248 H275 0.930 . S
C249 O262 1.281 . S
C249 O263 1.254 . S
C250 O264 1.236 . S
C250 O265 1.266 . S
C251 Tb241 2.809 . S
C251 C252 1.514 . S
C251 O266 1.248 . S
C251 O267 1.266 . S
C252 C251 1.514 . S
C252 C253 1.359 . S
C252 C257 1.348 . S
C253 C252 1.359 . S
C253 C254 1.380 . S
C253 H276 0.929 . S
C254 C253 1.380 . S
C254 C255 1.347 . S
C254 H277 0.931 . S
C255 C254 1.347 . S
C255 C256 1.369 . S
C256 C255 1.369 . S
C256 C257 1.408 . S
C256 H278 0.930 . S
C257 C252 1.348 . S
C257 C256 1.408 . S
C257 H279 0.930 . S
C258 O268 1.281 . S
C258 O269 1.254 . S
C259 O270 1.236 . S
C259 O271 1.266 . S
O260 Tb240 2.484 . S
O260 C242 1.248 . S
O261 Tb240 2.440 . S
O261 C242 1.266 . S
O262 Tb240 2.658 . S
O262 Tb241 2.325 . S
O262 C249 1.281 . S
O263 Tb240 2.409 . S
O263 C249 1.254 . S
O264 Tb240 2.378 . S
O264 C250 1.236 . S
O265 Tb241 2.341 . S
O265 C250 1.266 . S
O266 Tb241 2.484 . S
O266 C251 1.248 . S
O267 Tb241 2.440 . S
O267 C251 1.266 . S
O268 Tb240 2.325 . S
O268 Tb241 2.658 . S
O268 C258 1.281 . S
O269 Tb241 2.409 . S
O269 C258 1.254 . S
O270 Tb241 2.378 . S
O270 C259 1.236 . S
O271 Tb240 2.341 . S
O271 C259 1.266 . S
H272 C244 0.929 . S
H273 C245 0.931 . S
H274 C247 0.930 . S
H275 C248 0.930 . S
H276 C253 0.929 . S
H277 C254 0.931 . S
H278 C256 0.930 . S
H279 C257 0.930 . S
Tb280 C282 2.809 . S
Tb280 O300 2.484 . S
Tb280 O301 2.440 . S
Tb280 O302 2.658 1_655 S
Tb280 O303 2.409 1_655 S
Tb280 O304 2.378 1_655 S
Tb280 O308 2.325 . S
Tb280 O311 2.341 . S
Tb281 C291 2.809 . S
Tb281 O302 2.325 . S
Tb281 O305 2.341 . S
Tb281 O306 2.484 . S
Tb281 O307 2.440 . S
Tb281 O308 2.658 1_455 S
Tb281 O309 2.409 1_455 S
Tb281 O310 2.378 1_455 S
C282 Tb280 2.809 . S
C282 C283 1.514 . S
C282 O300 1.248 . S
C282 O301 1.266 . S
C283 C282 1.514 . S
C283 C284 1.359 . S
C283 C288 1.348 . S
C284 C283 1.359 . S
C284 C285 1.380 . S
C284 H312 0.929 . S
C285 C284 1.380 . S
C285 C286 1.347 . S
C285 H313 0.931 . S
C286 C285 1.347 . S
C286 C287 1.369 . S
C287 C286 1.369 . S
C287 C288 1.408 . S
C287 H314 0.930 . S
C288 C283 1.348 . S
C288 C287 1.408 . S
C288 H315 0.930 . S
C289 O302 1.281 . S
C289 O303 1.254 . S
C290 O304 1.236 . S
C290 O305 1.266 . S
C291 Tb281 2.809 . S
C291 C292 1.514 . S
C291 O306 1.248 . S
C291 O307 1.266 . S
C292 C291 1.514 . S
C292 C293 1.359 . S
C292 C297 1.348 . S
C293 C292 1.359 . S
C293 C294 1.380 . S
C293 H316 0.929 . S
C294 C293 1.380 . S
C294 C295 1.347 . S
C294 H317 0.931 . S
C295 C294 1.347 . S
C295 C296 1.369 . S
C296 C295 1.369 . S
C296 C297 1.408 . S
C296 H318 0.930 . S
C297 C292 1.348 . S
C297 C296 1.408 . S
C297 H319 0.930 . S
C298 O308 1.281 . S
C298 O309 1.254 . S
C299 O310 1.236 . S
C299 O311 1.266 . S
O300 Tb280 2.484 . S
O300 C282 1.248 . S
O301 Tb280 2.440 . S
O301 C282 1.266 . S
O302 Tb280 2.658 1_455 S
O302 Tb281 2.325 . S
O302 C289 1.281 . S
O303 Tb280 2.409 1_455 S
O303 C289 1.254 . S
O304 Tb280 2.378 1_455 S
O304 C290 1.236 . S
O305 Tb281 2.341 . S
O305 C290 1.266 . S
O306 Tb281 2.484 . S
O306 C291 1.248 . S
O307 Tb281 2.440 . S
O307 C291 1.266 . S
O308 Tb280 2.325 . S
O308 Tb281 2.658 1_655 S
O308 C298 1.281 . S
O309 Tb281 2.409 1_655 S
O309 C298 1.254 . S
O310 Tb281 2.378 1_655 S
O310 C299 1.236 . S
O311 Tb280 2.341 . S
O311 C299 1.266 . S
H312 C284 0.929 . S
H313 C285 0.931 . S
H314 C287 0.930 . S
H315 C288 0.930 . S
H316 C293 0.929 . S
H317 C294 0.931 . S
H318 C296 0.930 . S
H319 C297 0.930 . S
Tb320 C322 2.809 . S
Tb320 O340 2.484 . S
Tb320 O341 2.440 . S
Tb320 O342 2.658 . S
Tb320 O343 2.409 . S
Tb320 O344 2.401 . S
Tb320 O348 2.325 1_554 S
Tb320 O351 2.341 . S
Tb321 C331 2.809 . S
Tb321 O342 2.325 1_556 S
Tb321 O345 2.341 . S
Tb321 O346 2.484 . S
Tb321 O347 2.440 . S
Tb321 O348 2.658 . S
Tb321 O349 2.409 . S
Tb321 O350 2.379 . S
C322 Tb320 2.809 . S
C322 C323 1.514 . S
C322 O340 1.248 . S
C322 O341 1.266 . S
C323 C322 1.514 . S
C323 C324 1.359 . S
C323 C328 1.348 . S
C324 C323 1.359 . S
C324 C325 1.380 . S
C324 H352 0.929 1_554 S
C325 C324 1.380 . S
C325 C326 1.347 . S
C325 H353 0.931 1_554 S
C326 C325 1.347 . S
C326 C327 1.369 . S
C327 C326 1.369 . S
C327 C328 1.408 . S
C327 H354 0.930 . S
C328 C323 1.348 . S
C328 C327 1.408 . S
C328 H355 0.930 . S
C329 O342 1.281 . S
C329 O343 1.254 . S
C330 O344 1.196 1_556 S
C330 O345 1.266 . S
C331 Tb321 2.809 . S
C331 C332 1.514 . S
C331 O346 1.248 . S
C331 O347 1.266 . S
C332 C331 1.514 . S
C332 C333 1.381 . S
C332 C337 1.348 . S
C333 C332 1.381 . S
C333 C334 1.380 . S
C333 H356 0.907 1_556 S
C334 C333 1.380 . S
C334 C335 1.371 . S
C334 H357 0.906 1_556 S
C335 C334 1.371 . S
C335 C336 1.369 . S
C336 C335 1.369 . S
C336 C337 1.408 . S
C336 H358 0.930 . S
C337 C332 1.348 . S
C337 C336 1.408 . S
C337 H359 0.930 . S
C338 O348 1.281 . S
C338 O349 1.254 . S
C339 O350 1.235 1_554 S
C339 O351 1.266 . S
O340 Tb320 2.484 . S
O340 C322 1.248 . S
O341 Tb320 2.440 . S
O341 C322 1.266 . S
O342 Tb320 2.658 . S
O342 Tb321 2.325 1_554 S
O342 C329 1.281 . S
O343 Tb320 2.409 . S
O343 C329 1.254 . S
O344 Tb320 2.401 . S
O344 C330 1.196 1_554 S
O345 Tb321 2.341 . S
O345 C330 1.266 . S
O346 Tb321 2.484 . S
O346 C331 1.248 . S
O347 Tb321 2.440 . S
O347 C331 1.266 . S
O348 Tb320 2.325 1_556 S
O348 Tb321 2.658 . S
O348 C338 1.281 . S
O349 Tb321 2.409 . S
O349 C338 1.254 . S
O350 Tb321 2.379 . S
O350 C339 1.235 1_556 S
O351 Tb320 2.341 . S
O351 C339 1.266 . S
H352 C324 0.929 1_556 S
H353 C325 0.931 1_556 S
H354 C327 0.930 . S
H355 C328 0.930 . S
H356 C333 0.907 1_554 S
H357 C334 0.906 1_554 S
H358 C336 0.930 . S
H359 C337 0.930 . S
Tb360 C362 2.809 . S
Tb360 O380 2.484 . S
Tb360 O381 2.440 . S
Tb360 O382 2.658 1_565 S
Tb360 O383 2.409 1_565 S
Tb360 O384 2.381 . S
Tb360 O388 2.325 . S
Tb360 O391 2.341 . S
Tb361 C371 2.809 . S
Tb361 O382 2.325 . S
Tb361 O385 2.341 . S
Tb361 O386 2.484 . S
Tb361 O387 2.440 . S
Tb361 O388 2.658 1_545 S
Tb361 O389 2.409 1_545 S
Tb361 O390 2.378 . S
C362 Tb360 2.809 . S
C362 C363 1.514 . S
C362 O380 1.248 . S
C362 O381 1.266 . S
C363 C362 1.514 . S
C363 C364 1.359 . S
C363 C368 1.348 . S
C364 C363 1.359 . S
C364 C365 1.380 . S
C364 H392 0.929 . S
C365 C364 1.380 . S
C365 C366 1.347 . S
C365 H393 0.931 . S
C366 C365 1.347 . S
C366 C367 1.369 . S
C367 C366 1.369 . S
C367 C368 1.408 . S
C367 H394 0.930 . S
C368 C363 1.348 . S
C368 C367 1.408 . S
C368 H395 0.930 . S
C369 O382 1.281 . S
C369 O383 1.254 . S
C370 O384 1.220 1_545 S
C370 O385 1.282 . S
C371 Tb361 2.809 . S
C371 C372 1.514 . S
C371 O386 1.248 . S
C371 O387 1.266 . S
C372 C371 1.514 . S
C372 C373 1.359 . S
C372 C377 1.348 . S
C373 C372 1.359 . S
C373 C374 1.380 . S
C373 H396 0.929 . S
C374 C373 1.380 . S
C374 C375 1.347 . S
C374 H397 0.931 . S
C375 C374 1.347 . S
C375 C376 1.369 . S
C376 C375 1.369 . S
C376 C377 1.408 . S
C376 H398 0.930 . S
C377 C372 1.348 . S
C377 C376 1.408 . S
C377 H399 0.930 . S
C378 O388 1.281 . S
C378 O389 1.254 . S
C379 O390 1.236 . S
C379 O391 1.266 1_545 S
O380 Tb360 2.484 . S
O380 C362 1.248 . S
O381 Tb360 2.440 . S
O381 C362 1.266 . S
O382 Tb360 2.658 1_545 S
O382 Tb361 2.325 . S
O382 C369 1.281 . S
O383 Tb360 2.409 1_545 S
O383 C369 1.254 . S
O384 Tb360 2.381 . S
O384 C370 1.220 1_565 S
O385 Tb361 2.341 . S
O385 C370 1.282 . S
O386 Tb361 2.484 . S
O386 C371 1.248 . S
O387 Tb361 2.440 . S
O387 C371 1.266 . S
O388 Tb360 2.325 . S
O388 Tb361 2.658 1_565 S
O388 C378 1.281 . S
O389 Tb361 2.409 1_565 S
O389 C378 1.254 . S
O390 Tb361 2.378 . S
O390 C379 1.236 . S
O391 Tb360 2.341 . S
O391 C379 1.266 1_565 S
H392 C364 0.929 . S
H393 C365 0.931 . S
H394 C367 0.930 . S
H395 C368 0.930 . S
H396 C373 0.929 . S
H397 C374 0.931 . S
H398 C376 0.930 . S
H399 C377 0.930 . S
Tb400 C402 2.809 . S
Tb400 O420 2.484 . S
Tb400 O421 2.440 . S
Tb400 O422 2.658 . S
Tb400 O423 2.409 . S
Tb400 O424 2.378 . S
Tb400 O428 2.325 . S
Tb400 O431 2.341 . S
Tb401 C411 2.809 . S
Tb401 O422 2.325 . S
Tb401 O425 2.341 . S
Tb401 O426 2.484 . S
Tb401 O427 2.440 . S
Tb401 O428 2.658 . S
Tb401 O429 2.409 . S
Tb401 O430 2.378 . S
C402 Tb400 2.809 . S
C402 C403 1.514 . S
C402 O420 1.248 . S
C402 O421 1.266 . S
C403 C402 1.514 . S
C403 C404 1.359 . S
C403 C408 1.348 . S
C404 C403 1.359 . S
C404 C405 1.380 . S
C404 H432 0.929 . S
C405 C404 1.380 . S
C405 C406 1.347 . S
C405 H433 0.931 . S
C406 C405 1.347 . S
C406 C407 1.369 . S
C407 C406 1.369 . S
C407 C408 1.408 . S
C407 H434 0.930 . S
C408 C403 1.348 . S
C408 C407 1.408 . S
C408 H435 0.930 . S
C409 O422 1.281 . S
C409 O423 1.254 . S
C410 O424 1.236 . S
C410 O425 1.266 . S
C411 Tb401 2.809 . S
C411 C412 1.514 . S
C411 O426 1.248 . S
C411 O427 1.266 . S
C412 C411 1.514 . S
C412 C413 1.359 . S
C412 C417 1.348 . S
C413 C412 1.359 . S
C413 C414 1.380 . S
C413 H436 0.929 . S
C414 C413 1.380 . S
C414 C415 1.347 . S
C414 H437 0.931 . S
C415 C414 1.347 . S
C415 C416 1.369 . S
C416 C415 1.369 . S
C416 C417 1.408 . S
C416 H438 0.930 . S
C417 C412 1.348 . S
C417 C416 1.408 . S
C417 H439 0.930 . S
C418 O428 1.281 . S
C418 O429 1.254 . S
C419 O430 1.236 . S
C419 O431 1.266 . S
O420 Tb400 2.484 . S
O420 C402 1.248 . S
O421 Tb400 2.440 . S
O421 C402 1.266 . S
O422 Tb400 2.658 . S
O422 Tb401 2.325 . S
O422 C409 1.281 . S
O423 Tb400 2.409 . S
O423 C409 1.254 . S
O424 Tb400 2.378 . S
O424 C410 1.236 . S
O425 Tb401 2.341 . S
O425 C410 1.266 . S
O426 Tb401 2.484 . S
O426 C411 1.248 . S
O427 Tb401 2.440 . S
O427 C411 1.266 . S
O428 Tb400 2.325 . S
O428 Tb401 2.658 . S
O428 C418 1.281 . S
O429 Tb401 2.409 . S
O429 C418 1.254 . S
O430 Tb401 2.378 . S
O430 C419 1.236 . S
O431 Tb400 2.341 . S
O431 C419 1.266 . S
H432 C404 0.929 . S
H433 C405 0.931 . S
H434 C407 0.930 . S
H435 C408 0.930 . S
H436 C413 0.929 . S
H437 C414 0.931 . S
H438 C416 0.930 . S
H439 C417 0.930 . S
Tb440 C442 2.809 . S
Tb440 O460 2.489 . S
Tb440 O461 2.440 . S
Tb440 O462 2.658 . S
Tb440 O463 2.409 . S
Tb440 O464 2.378 1_455 S
Tb440 O468 2.325 1_455 S
Tb440 O471 2.341 . S
Tb441 C451 2.809 . S
Tb441 O462 2.325 1_655 S
Tb441 O465 2.341 . S
Tb441 O466 2.484 1_655 S
Tb441 O467 2.440 . S
Tb441 O468 2.658 . S
Tb441 O469 2.409 . S
Tb441 O470 2.378 1_655 S
C442 Tb440 2.809 . S
C442 C443 1.514 . S
C442 O460 1.263 . S
C442 O461 1.266 . S
C443 C442 1.514 . S
C443 C444 1.359 1_455 S
C443 C448 1.348 . S
C444 C443 1.359 1_655 S
C444 C445 1.380 . S
C444 H472 0.929 . S
C445 C444 1.380 . S
C445 C446 1.347 1_655 S
C445 H473 0.931 . S
C446 C445 1.347 1_455 S
C446 C447 1.369 . S
C447 C446 1.369 . S
C447 C448 1.408 . S
C447 H474 0.930 . S
C448 C443 1.348 . S
C448 C447 1.408 . S
C448 H475 0.930 . S
C449 O462 1.281 . S
C449 O463 1.254 . S
C450 O464 1.236 . S
C450 O465 1.266 . S
C451 Tb441 2.809 . S
C451 C452 1.514 . S
C451 O466 1.246 1_655 S
C451 O467 1.266 . S
C452 C451 1.514 . S
C452 C453 1.359 1_655 S
C452 C457 1.348 . S
C453 C452 1.359 1_455 S
C453 C454 1.380 . S
C453 H476 0.929 . S
C454 C453 1.380 . S
C454 C455 1.347 1_455 S
C454 H477 0.931 . S
C455 C454 1.347 1_655 S
C455 C456 1.369 . S
C456 C455 1.369 . S
C456 C457 1.408 . S
C456 H478 0.930 . S
C457 C452 1.348 . S
C457 C456 1.408 . S
C457 H479 0.930 . S
C458 O468 1.281 . S
C458 O469 1.254 . S
C459 O470 1.236 . S
C459 O471 1.266 . S
O460 Tb440 2.489 . S
O460 C442 1.263 . S
O461 Tb440 2.440 . S
O461 C442 1.266 . S
O462 Tb440 2.658 . S
O462 Tb441 2.325 1_455 S
O462 C449 1.281 . S
O463 Tb440 2.409 . S
O463 C449 1.254 . S
O464 Tb440 2.378 1_655 S
O464 C450 1.236 . S
O465 Tb441 2.341 . S
O465 C450 1.266 . S
O466 Tb441 2.484 1_455 S
O466 C451 1.246 1_455 S
O467 Tb441 2.440 . S
O467 C451 1.266 . S
O468 Tb440 2.325 1_655 S
O468 Tb441 2.658 . S
O468 C458 1.281 . S
O469 Tb441 2.409 . S
O469 C458 1.254 . S
O470 Tb441 2.378 1_455 S
O470 C459 1.236 . S
O471 Tb440 2.341 . S
O471 C459 1.266 . S
H472 C444 0.929 . S
H473 C445 0.931 . S
H474 C447 0.930 . S
H475 C448 0.930 . S
H476 C453 0.929 . S
H477 C454 0.931 . S
H478 C456 0.930 . S
H479 C457 0.930 . S
Tb480 C482 2.809 . S
Tb480 O500 2.484 . S
Tb480 O501 2.440 . S
Tb480 O502 2.658 . S
Tb480 O503 2.409 . S
Tb480 O504 2.378 . S
Tb480 O508 2.325 . S
Tb480 O511 2.341 . S
Tb481 C491 2.809 . S
Tb481 O502 2.325 . S
Tb481 O505 2.341 . S
Tb481 O506 2.484 . S
Tb481 O507 2.440 . S
Tb481 O508 2.658 . S
Tb481 O509 2.409 . S
Tb481 O510 2.378 . S
C482 Tb480 2.809 . S
C482 C483 1.514 . S
C482 O500 1.248 . S
C482 O501 1.266 . S
C483 C482 1.514 . S
C483 C484 1.359 . S
C483 C488 1.348 . S
C484 C483 1.359 . S
C484 C485 1.380 . S
C484 H512 0.929 . S
C485 C484 1.380 . S
C485 C486 1.347 . S
C485 H513 0.931 . S
C486 C485 1.347 . S
C486 C487 1.369 . S
C487 C486 1.369 . S
C487 C488 1.408 . S
C487 H514 0.930 . S
C488 C483 1.348 . S
C488 C487 1.408 . S
C488 H515 0.930 . S
C489 O502 1.281 . S
C489 O503 1.254 . S
C490 O504 1.236 . S
C490 O505 1.266 . S
C491 Tb481 2.809 . S
C491 C492 1.514 . S
C491 O506 1.248 . S
C491 O507 1.266 . S
C492 C491 1.514 . S
C492 C493 1.359 . S
C492 C497 1.348 . S
C493 C492 1.359 . S
C493 C494 1.380 . S
C493 H516 0.929 . S
C494 C493 1.380 . S
C494 C495 1.347 . S
C494 H517 0.931 . S
C495 C494 1.347 . S
C495 C496 1.369 . S
C496 C495 1.369 . S
C496 C497 1.408 . S
C496 H518 0.930 . S
C497 C492 1.348 . S
C497 C496 1.408 . S
C497 H519 0.930 . S
C498 O508 1.281 . S
C498 O509 1.254 . S
C499 O510 1.236 . S
C499 O511 1.266 . S
O500 Tb480 2.484 . S
O500 C482 1.248 . S
O501 Tb480 2.440 . S
O501 C482 1.266 . S
O502 Tb480 2.658 . S
O502 Tb481 2.325 . S
O502 C489 1.281 . S
O503 Tb480 2.409 . S
O503 C489 1.254 . S
O504 Tb480 2.378 . S
O504 C490 1.236 . S
O505 Tb481 2.341 . S
O505 C490 1.266 . S
O506 Tb481 2.484 . S
O506 C491 1.248 . S
O507 Tb481 2.440 . S
O507 C491 1.266 . S
O508 Tb480 2.325 . S
O508 Tb481 2.658 . S
O508 C498 1.281 . S
O509 Tb481 2.409 . S
O509 C498 1.254 . S
O510 Tb481 2.378 . S
O510 C499 1.236 . S
O511 Tb480 2.341 . S
O511 C499 1.266 . S
H512 C484 0.929 . S
H513 C485 0.931 . S
H514 C487 0.930 . S
H515 C488 0.930 . S
H516 C493 0.929 . S
H517 C494 0.931 . S
H518 C496 0.930 . S
H519 C497 0.930 . S
Tb520 C522 2.809 . S
Tb520 O540 2.484 . S
Tb520 O541 2.440 . S
Tb520 O542 2.658 . S
Tb520 O543 2.409 . S
Tb520 O544 2.401 . S
Tb520 O548 2.325 1_554 S
Tb520 O551 2.341 . S
Tb521 C531 2.809 . S
Tb521 O542 2.325 1_556 S
Tb521 O545 2.341 . S
Tb521 O546 2.484 . S
Tb521 O547 2.440 . S
Tb521 O548 2.658 . S
Tb521 O549 2.409 . S
Tb521 O550 2.379 . S
C522 Tb520 2.809 . S
C522 C523 1.514 . S
C522 O540 1.248 . S
C522 O541 1.266 . S
C523 C522 1.514 . S
C523 C524 1.359 . S
C523 C528 1.348 . S
C524 C523 1.359 . S
C524 C525 1.380 . S
C524 H552 0.929 1_554 S
C525 C524 1.380 . S
C525 C526 1.347 . S
C525 H553 0.931 1_554 S
C526 C525 1.347 . S
C526 C527 1.369 . S
C527 C526 1.369 . S
C527 C528 1.408 . S
C527 H554 0.930 . S
C528 C523 1.348 . S
C528 C527 1.408 . S
C528 H555 0.930 . S
C529 O542 1.281 . S
C529 O543 1.254 . S
C530 O544 1.196 1_556 S
C530 O545 1.266 . S
C531 Tb521 2.809 . S
C531 C532 1.514 . S
C531 O546 1.248 . S
C531 O547 1.266 . S
C532 C531 1.514 . S
C532 C533 1.381 . S
C532 C537 1.348 . S
C533 C532 1.381 . S
C533 C534 1.380 . S
C533 H556 0.907 1_556 S
C534 C533 1.380 . S
C534 C535 1.371 . S
C534 H557 0.906 1_556 S
C535 C534 1.371 . S
C535 C536 1.369 . S
C536 C535 1.369 . S
C536 C537 1.408 . S
C536 H558 0.930 . S
C537 C532 1.348 . S
C537 C536 1.408 . S
C537 H559 0.930 . S
C538 O548 1.281 . S
C538 O549 1.254 . S
C539 O550 1.234 1_554 S
C539 O551 1.266 . S
O540 Tb520 2.484 . S
O540 C522 1.248 . S
O541 Tb520 2.440 . S
O541 C522 1.266 . S
O542 Tb520 2.658 . S
O542 Tb521 2.325 1_554 S
O542 C529 1.281 . S
O543 Tb520 2.409 . S
O543 C529 1.254 . S
O544 Tb520 2.401 . S
O544 C530 1.196 1_554 S
O545 Tb521 2.341 . S
O545 C530 1.266 . S
O546 Tb521 2.484 . S
O546 C531 1.248 . S
O547 Tb521 2.440 . S
O547 C531 1.266 . S
O548 Tb520 2.325 1_556 S
O548 Tb521 2.658 . S
O548 C538 1.281 . S
O549 Tb521 2.409 . S
O549 C538 1.254 . S
O550 Tb521 2.379 . S
O550 C539 1.234 1_556 S
O551 Tb520 2.341 . S
O551 C539 1.266 . S
H552 C524 0.929 1_556 S
H553 C525 0.931 1_556 S
H554 C527 0.930 . S
H555 C528 0.930 . S
H556 C533 0.907 1_554 S
H557 C534 0.906 1_554 S
H558 C536 0.930 . S
H559 C537 0.930 . S
Tb560 C562 2.809 . S
Tb560 O580 2.484 . S
Tb560 O581 2.440 . S
Tb560 O582 2.658 . S
Tb560 O583 2.409 . S
Tb560 O584 2.378 . S
Tb560 O588 2.325 1_565 S
Tb560 O591 2.341 1_565 S
Tb561 C571 2.809 . S
Tb561 O582 2.325 1_545 S
Tb561 O585 2.341 1_545 S
Tb561 O586 2.484 . S
Tb561 O587 2.440 . S
Tb561 O588 2.658 . S
Tb561 O589 2.409 . S
Tb561 O590 2.378 . S
C562 Tb560 2.809 . S
C562 C563 1.514 . S
C562 O580 1.248 . S
C562 O581 1.266 . S
C563 C562 1.514 . S
C563 C564 1.359 . S
C563 C568 1.348 . S
C564 C563 1.359 . S
C564 C565 1.380 . S
C564 H592 0.929 . S
C565 C564 1.380 . S
C565 C566 1.347 . S
C565 H593 0.931 . S
C566 C565 1.347 . S
C566 C567 1.369 . S
C567 C566 1.369 . S
C567 C568 1.408 . S
C567 H594 0.930 . S
C568 C563 1.348 . S
C568 C567 1.408 . S
C568 H595 0.930 . S
C569 O582 1.281 . S
C569 O583 1.254 . S
C570 O584 1.236 . S
C570 O585 1.266 . S
C571 Tb561 2.809 . S
C571 C572 1.514 . S
C571 O586 1.248 . S
C571 O587 1.266 . S
C572 C571 1.514 . S
C572 C573 1.359 . S
C572 C577 1.348 . S
C573 C572 1.359 . S
C573 C574 1.380 . S
C573 H596 0.929 . S
C574 C573 1.380 . S
C574 C575 1.347 . S
C574 H597 0.931 . S
C575 C574 1.347 . S
C575 C576 1.369 . S
C576 C575 1.369 . S
C576 C577 1.408 . S
C576 H598 0.930 . S
C577 C572 1.348 . S
C577 C576 1.408 . S
C577 H599 0.930 . S
C578 O588 1.281 . S
C578 O589 1.254 . S
C579 O590 1.236 . S
C579 O591 1.266 . S
O580 Tb560 2.484 . S
O580 C562 1.248 . S
O581 Tb560 2.440 . S
O581 C562 1.266 . S
O582 Tb560 2.658 . S
O582 Tb561 2.325 1_565 S
O582 C569 1.281 . S
O583 Tb560 2.409 . S
O583 C569 1.254 . S
O584 Tb560 2.378 . S
O584 C570 1.236 . S
O585 Tb561 2.341 1_565 S
O585 C570 1.266 . S
O586 Tb561 2.484 . S
O586 C571 1.248 . S
O587 Tb561 2.440 . S
O587 C571 1.266 . S
O588 Tb560 2.325 1_545 S
O588 Tb561 2.658 . S
O588 C578 1.281 . S
O589 Tb561 2.409 . S
O589 C578 1.254 . S
O590 Tb561 2.378 . S
O590 C579 1.236 . S
O591 Tb560 2.341 1_545 S
O591 C579 1.266 . S
H592 C564 0.929 . S
H593 C565 0.931 . S
H594 C567 0.930 . S
H595 C568 0.930 . S
H596 C573 0.929 . S
H597 C574 0.931 . S
H598 C576 0.930 . S
H599 C577 0.930 . S
Tb600 C602 2.809 . S
Tb600 O620 2.484 . S
Tb600 O621 2.440 . S
Tb600 O622 2.658 . S
Tb600 O623 2.409 . S
Tb600 O624 2.401 . S
Tb600 O628 2.325 1_554 S
Tb600 O631 2.341 . S
Tb601 C611 2.809 . S
Tb601 O622 2.325 1_556 S
Tb601 O625 2.341 . S
Tb601 O626 2.484 . S
Tb601 O627 2.440 . S
Tb601 O628 2.658 . S
Tb601 O629 2.409 . S
Tb601 O630 2.379 . S
C602 Tb600 2.809 . S
C602 C603 1.514 . S
C602 O620 1.248 . S
C602 O621 1.266 . S
C603 C602 1.514 . S
C603 C604 1.359 . S
C603 C608 1.348 . S
C604 C603 1.359 . S
C604 C605 1.380 . S
C604 H632 0.929 1_554 S
C605 C604 1.380 . S
C605 C606 1.347 . S
C605 H633 0.931 1_554 S
C606 C605 1.347 . S
C606 C607 1.369 . S
C607 C606 1.369 . S
C607 C608 1.408 . S
C607 H634 0.930 . S
C608 C603 1.348 . S
C608 C607 1.408 . S
C608 H635 0.930 . S
C609 O622 1.281 . S
C609 O623 1.254 . S
C610 O624 1.196 1_556 S
C610 O625 1.266 . S
C611 Tb601 2.809 . S
C611 C612 1.514 . S
C611 O626 1.248 . S
C611 O627 1.266 . S
C612 C611 1.514 . S
C612 C613 1.380 . S
C612 C617 1.348 . S
C613 C612 1.380 . S
C613 C614 1.380 . S
C613 H636 0.907 1_556 S
C614 C613 1.380 . S
C614 C615 1.371 . S
C614 H637 0.906 1_556 S
C615 C614 1.371 . S
C615 C616 1.369 . S
C616 C615 1.369 . S
C616 C617 1.408 . S
C616 H638 0.930 . S
C617 C612 1.348 . S
C617 C616 1.408 . S
C617 H639 0.930 . S
C618 O628 1.281 . S
C618 O629 1.254 . S
C619 O630 1.235 1_554 S
C619 O631 1.266 . S
O620 Tb600 2.484 . S
O620 C602 1.248 . S
O621 Tb600 2.440 . S
O621 C602 1.266 . S
O622 Tb600 2.658 . S
O622 Tb601 2.325 1_554 S
O622 C609 1.281 . S
O623 Tb600 2.409 . S
O623 C609 1.254 . S
O624 Tb600 2.401 . S
O624 C610 1.196 1_554 S
O625 Tb601 2.341 . S
O625 C610 1.266 . S
O626 Tb601 2.484 . S
O626 C611 1.248 . S
O627 Tb601 2.440 . S
O627 C611 1.266 . S
O628 Tb600 2.325 1_556 S
O628 Tb601 2.658 . S
O628 C618 1.281 . S
O629 Tb601 2.409 . S
O629 C618 1.254 . S
O630 Tb601 2.379 . S
O630 C619 1.235 1_556 S
O631 Tb600 2.341 . S
O631 C619 1.266 . S
H632 C604 0.929 1_556 S
H633 C605 0.931 1_556 S
H634 C607 0.930 . S
H635 C608 0.930 . S
H636 C613 0.907 1_554 S
H637 C614 0.906 1_554 S
H638 C616 0.930 . S
H639 C617 0.930 . S
H640 C658 0.951 . S
H641 C660 0.951 . S
H642 C662 0.950 . S
H643 C663 0.950 . S
H644 C665 0.950 . S
H645 C668 0.950 . S
H646 C669 0.950 . S
H647 C671 0.950 1_556 S
H648 C672 0.950 . S
H649 C673 0.951 . S
H650 C675 0.951 . S
H651 C677 0.950 . S
H652 C678 0.950 . S
H653 C680 0.986 . S
H654 C683 0.950 . S
H655 C684 0.950 . S
H656 C686 0.950 . S
H657 C687 0.950 . S
C658 H640 0.951 . S
C658 C659 1.366 . S
C658 C660 1.388 . S
C659 C658 1.366 . S
C659 C663 1.385 . S
C660 H641 0.951 . S
C660 C658 1.388 . S
C660 C661 1.366 . S
C661 C660 1.366 . S
C661 C662 1.414 . S
C661 C664 1.499 . S
C662 H642 0.950 . S
C662 C661 1.414 . S
C662 C663 1.374 . S
C663 H643 0.950 . S
C663 C659 1.385 . S
C663 C662 1.374 . S
C664 C661 1.499 . S
C664 C665 1.373 . S
C664 C666 1.389 1_655 S
C665 H644 0.950 . S
C665 C664 1.373 . S
C665 C681 1.377 . S
C666 C664 1.389 1_455 S
C666 C667 1.524 . S
C666 C680 1.363 . S
C667 C666 1.524 . S
C667 C668 1.397 . S
C667 C672 1.363 . S
C668 H645 0.950 . S
C668 C667 1.397 . S
C668 C669 1.334 . S
C669 H646 0.950 . S
C669 C668 1.334 . S
C669 C670 1.287 . S
C670 C669 1.287 . S
C670 C671 1.524 . S
C670 H689 0.913 . S
C671 H647 0.950 1_554 S
C671 C670 1.524 . S
C671 C672 1.415 . S
C672 H648 0.950 . S
C672 C667 1.363 . S
C672 C671 1.415 . S
C673 H649 0.951 . S
C673 C674 1.366 . S
C673 C675 1.388 . S
C674 C673 1.366 . S
C674 C678 1.385 . S
C675 H650 0.951 . S
C675 C673 1.388 . S
C675 C676 1.366 . S
C676 C675 1.366 . S
C676 C677 1.414 . S
C676 C679 1.499 . S
C677 H651 0.950 . S
C677 C676 1.414 . S
C677 C678 1.374 . S
C678 H652 0.950 . S
C678 C674 1.385 . S
C678 C677 1.374 . S
C679 C676 1.499 . S
C679 C680 1.352 1_655 S
C679 C681 1.389 . S
C680 H653 0.986 . S
C680 C666 1.363 . S
C680 C679 1.352 1_455 S
C681 C665 1.377 . S
C681 C679 1.389 . S
C681 C682 1.524 . S
C682 C681 1.524 . S
C682 C683 1.397 . S
C682 C687 1.363 . S
C683 H654 0.950 . S
C683 C682 1.397 . S
C683 C684 1.334 . S
C684 H655 0.950 . S
C684 C683 1.334 . S
C684 C685 1.287 . S
C685 C684 1.287 . S
C685 C686 1.524 . S
C685 H688 0.999 . S
C686 H656 0.950 . S
C686 C685 1.524 . S
C686 C687 1.415 . S
C687 H657 0.950 . S
C687 C682 1.363 . S
C687 C686 1.415 . S
H688 C685 0.999 . S
H689 C670 0.913 . S
H690 C708 0.951 . S
H691 C710 0.951 . S
H692 C712 0.950 . S
H693 C713 0.950 . S
H694 C715 0.950 . S
H695 C718 0.950 . S
H696 C719 0.950 . S
H697 C721 0.950 . S
H698 C722 0.950 . S
H699 C723 0.951 . S
H700 C725 0.951 . S
H701 C727 0.950 . S
H702 C728 0.950 . S
H703 C730 0.950 . S
H704 C733 0.950 . S
H705 C734 0.950 . S
H706 C736 0.950 . S
H707 C737 0.950 . S
C708 H690 0.951 . S
C708 C709 1.366 . S
C708 C710 1.388 . S
C709 C708 1.366 . S
C709 C713 1.385 . S
C710 H691 0.951 . S
C710 C708 1.388 . S
C710 C711 1.366 . S
C711 C710 1.366 . S
C711 C712 1.414 . S
C711 C714 1.499 . S
C712 H692 0.950 . S
C712 C711 1.414 . S
C712 C713 1.374 . S
C713 H693 0.950 . S
C713 C709 1.385 . S
C713 C712 1.374 . S
C714 C711 1.499 . S
C714 C715 1.373 . S
C714 C716 1.389 . S
C715 H694 0.950 . S
C715 C714 1.373 . S
C715 C731 1.377 . S
C716 C714 1.389 . S
C716 C717 1.524 . S
C716 C730 1.377 . S
C717 C716 1.524 . S
C717 C718 1.397 . S
C717 C722 1.363 . S
C718 H695 0.950 . S
C718 C717 1.397 . S
C718 C719 1.334 . S
C719 H696 0.950 . S
C719 C718 1.334 . S
C719 C720 1.287 . S
C720 C719 1.287 . S
C720 C721 1.524 . S
C720 H739 0.913 . S
C721 H697 0.950 . S
C721 C720 1.524 . S
C721 C722 1.415 . S
C722 H698 0.950 . S
C722 C717 1.363 . S
C722 C721 1.415 . S
C723 H699 0.951 . S
C723 C724 1.366 . S
C723 C725 1.388 . S
C724 C723 1.366 . S
C724 C728 1.385 . S
C725 H700 0.951 . S
C725 C723 1.388 . S
C725 C726 1.366 . S
C726 C725 1.366 . S
C726 C727 1.414 . S
C726 C729 1.499 . S
C727 H701 0.950 . S
C727 C726 1.414 . S
C727 C728 1.374 . S
C728 H702 0.950 . S
C728 C724 1.385 . S
C728 C727 1.374 . S
C729 C726 1.499 . S
C729 C730 1.373 . S
C729 C731 1.389 . S
C730 H703 0.950 . S
C730 C716 1.377 . S
C730 C729 1.373 . S
C731 C715 1.377 . S
C731 C729 1.389 . S
C731 C732 1.524 . S
C732 C731 1.524 . S
C732 C733 1.397 . S
C732 C737 1.363 . S
C733 H704 0.950 . S
C733 C732 1.397 . S
C733 C734 1.334 . S
C734 H705 0.950 . S
C734 C733 1.334 . S
C734 C735 1.287 . S
C735 C734 1.287 . S
C735 C736 1.524 . S
C735 H738 0.999 . S
C736 H706 0.950 . S
C736 C735 1.524 . S
C736 C737 1.415 . S
C737 H707 0.950 . S
C737 C732 1.363 . S
C737 C736 1.415 . S
H738 C735 0.999 . S
H739 C720 0.913 . S
H740 C758 0.951 . S
H741 C760 0.951 . S
H742 C762 0.950 . S
H743 C763 0.950 . S
H744 C765 0.950 . S
H745 C768 0.950 . S
H746 C769 0.950 . S
H747 C771 0.950 . S
H748 C772 0.950 . S
H749 C773 0.951 . S
H750 C775 0.951 . S
H751 C777 0.950 . S
H752 C778 0.950 . S
H753 C780 0.950 . S
H754 C783 0.950 . S
H755 C784 0.950 . S
H756 C786 0.950 . S
H757 C787 0.950 . S
C758 H740 0.951 . S
C758 C759 1.366 . S
C758 C760 1.388 . S
C759 C758 1.366 . S
C759 C763 1.385 . S
C760 H741 0.951 . S
C760 C758 1.388 . S
C760 C761 1.366 . S
C761 C760 1.366 . S
C761 C762 1.414 . S
C761 C764 1.499 . S
C762 H742 0.950 . S
C762 C761 1.414 . S
C762 C763 1.374 . S
C763 H743 0.950 . S
C763 C759 1.385 . S
C763 C762 1.374 . S
C764 C761 1.499 . S
C764 C765 1.373 . S
C764 C766 1.389 . S
C765 H744 0.950 . S
C765 C764 1.373 . S
C765 C781 1.377 . S
C766 C764 1.389 . S
C766 C767 1.524 . S
C766 C780 1.377 . S
C767 C766 1.524 . S
C767 C768 1.397 . S
C767 C772 1.363 . S
C768 H745 0.950 . S
C768 C767 1.397 . S
C768 C769 1.334 . S
C769 H746 0.950 . S
C769 C768 1.334 . S
C769 C770 1.287 . S
C770 C769 1.287 . S
C770 C771 1.524 . S
C770 H789 0.913 . S
C771 H747 0.950 . S
C771 C770 1.524 . S
C771 C772 1.415 . S
C772 H748 0.950 . S
C772 C767 1.363 . S
C772 C771 1.415 . S
C773 H749 0.951 . S
C773 C774 1.366 . S
C773 C775 1.388 . S
C774 C773 1.366 . S
C774 C778 1.385 . S
C775 H750 0.951 . S
C775 C773 1.388 . S
C775 C776 1.366 . S
C776 C775 1.366 . S
C776 C777 1.414 . S
C776 C779 1.499 . S
C777 H751 0.950 . S
C777 C776 1.414 . S
C777 C778 1.374 . S
C778 H752 0.950 . S
C778 C774 1.385 . S
C778 C777 1.374 . S
C779 C776 1.499 . S
C779 C780 1.373 . S
C779 C781 1.389 . S
C780 H753 0.950 . S
C780 C766 1.377 . S
C780 C779 1.373 . S
C781 C765 1.377 . S
C781 C779 1.389 . S
C781 C782 1.524 . S
C782 C781 1.524 . S
C782 C783 1.397 . S
C782 C787 1.363 . S
C783 H754 0.950 . S
C783 C782 1.397 . S
C783 C784 1.334 . S
C784 H755 0.950 . S
C784 C783 1.334 . S
C784 C785 1.287 . S
C785 C784 1.287 . S
C785 C786 1.524 . S
C785 H788 0.999 . S
C786 H756 0.950 . S
C786 C785 1.524 . S
C786 C787 1.415 . S
C787 H757 0.950 . S
C787 C782 1.363 . S
C787 C786 1.415 . S
H788 C785 0.999 . S
H789 C770 0.913 . S
H790 C808 0.951 . S
H791 C810 0.951 . S
H792 C812 0.950 . S
H793 C813 0.950 . S
H794 C815 0.950 . S
H795 C818 0.950 . S
H796 C819 0.950 . S
H797 C821 0.950 . S
H798 C822 0.950 . S
H799 C823 0.951 . S
H800 C825 0.951 . S
H801 C827 0.950 . S
H802 C828 0.950 . S
H803 C830 0.950 . S
H804 C833 0.950 . S
H805 C834 0.950 . S
H806 C836 0.950 . S
H807 C837 0.950 . S
C808 H790 0.951 . S
C808 C809 1.366 . S
C808 C810 1.388 . S
C809 C808 1.366 . S
C809 C813 1.385 . S
C810 H791 0.951 . S
C810 C808 1.388 . S
C810 C811 1.366 . S
C811 C810 1.366 . S
C811 C812 1.414 . S
C811 C814 1.499 . S
C812 H792 0.950 . S
C812 C811 1.414 . S
C812 C813 1.374 . S
C813 H793 0.950 . S
C813 C809 1.385 . S
C813 C812 1.374 . S
C814 C811 1.499 . S
C814 C815 1.373 . S
C814 C816 1.389 1_545 S
C815 H794 0.950 . S
C815 C814 1.373 . S
C815 C831 1.377 . S
C816 C814 1.389 1_565 S
C816 C817 1.524 . S
C816 C830 1.377 . S
C817 C816 1.524 . S
C817 C818 1.397 . S
C817 C822 1.363 . S
C818 H795 0.950 . S
C818 C817 1.397 . S
C818 C819 1.334 . S
C819 H796 0.950 . S
C819 C818 1.334 . S
C819 C820 1.287 . S
C820 C819 1.287 . S
C820 C821 1.524 . S
C820 H839 0.913 . S
C821 H797 0.950 . S
C821 C820 1.524 . S
C821 C822 1.415 . S
C822 H798 0.950 . S
C822 C817 1.363 . S
C822 C821 1.415 . S
C823 H799 0.951 . S
C823 C824 1.366 1_545 S
C823 C825 1.388 . S
C824 C823 1.366 1_565 S
C824 C828 1.385 . S
C825 H800 0.951 . S
C825 C823 1.388 . S
C825 C826 1.366 . S
C826 C825 1.366 . S
C826 C827 1.414 1_545 S
C826 C829 1.499 . S
C827 H801 0.950 . S
C827 C826 1.414 1_565 S
C827 C828 1.374 . S
C828 H802 0.950 . S
C828 C824 1.385 . S
C828 C827 1.374 . S
C829 C826 1.499 . S
C829 C830 1.373 1_545 S
C829 C831 1.389 . S
C830 H803 0.950 . S
C830 C816 1.377 . S
C830 C829 1.373 1_565 S
C831 C815 1.377 . S
C831 C829 1.389 . S
C831 C832 1.524 . S
C832 C831 1.524 . S
C832 C833 1.397 . S
C832 C837 1.363 . S
C833 H804 0.950 . S
C833 C832 1.397 . S
C833 C834 1.334 . S
C834 H805 0.950 . S
C834 C833 1.334 . S
C834 C835 1.287 . S
C835 C834 1.287 . S
C835 C836 1.524 . S
C835 H838 0.999 . S
C836 H806 0.950 . S
C836 C835 1.524 . S
C836 C837 1.415 . S
C837 H807 0.950 . S
C837 C832 1.363 . S
C837 C836 1.415 . S
H838 C835 0.999 . S
H839 C820 0.913 . S
H840 C858 0.951 . S
H841 C860 0.951 . S
H842 C862 0.950 . S
H843 C863 0.950 . S
H844 C865 0.950 . S
H845 C868 0.950 . S
H846 C869 0.950 . S
H847 C871 0.950 . S
H848 C872 0.950 . S
H849 C873 0.959 . S
H850 C875 0.951 . S
H851 C877 0.950 . S
H852 C878 0.950 . S
H853 C880 0.950 . S
H854 C883 0.950 . S
H855 C884 0.950 . S
H856 C886 0.950 . S
H857 C887 0.950 . S
C858 H840 0.951 . S
C858 C859 1.366 . S
C858 C860 1.388 . S
C859 C858 1.366 . S
C859 C863 1.385 . S
C860 H841 0.951 . S
C860 C858 1.388 . S
C860 C861 1.366 . S
C861 C860 1.366 . S
C861 C862 1.414 . S
C861 C864 1.499 . S
C862 H842 0.950 . S
C862 C861 1.414 . S
C862 C863 1.374 . S
C863 H843 0.950 . S
C863 C859 1.385 . S
C863 C862 1.374 . S
C864 C861 1.499 . S
C864 C865 1.373 1_565 S
C864 C866 1.389 . S
C865 H844 0.950 . S
C865 C864 1.373 1_545 S
C865 C881 1.377 . S
C866 C864 1.389 . S
C866 C867 1.524 . S
C866 C880 1.377 . S
C867 C866 1.524 . S
C867 C868 1.397 . S
C867 C872 1.363 . S
C868 H845 0.950 . S
C868 C867 1.397 . S
C868 C869 1.334 . S
C869 H846 0.950 . S
C869 C868 1.334 . S
C869 C870 1.287 . S
C870 C869 1.287 . S
C870 C871 1.524 . S
C870 H889 0.913 . S
C871 H847 0.950 . S
C871 C870 1.524 . S
C871 C872 1.415 . S
C872 H848 0.950 . S
C872 C867 1.363 . S
C872 C871 1.415 . S
C873 H849 0.959 . S
C873 C874 1.347 1_565 S
C873 C875 1.399 . S
C874 C873 1.347 1_545 S
C874 C878 1.385 . S
C875 H850 0.951 . S
C875 C873 1.399 . S
C875 C876 1.361 1_565 S
C876 C875 1.361 1_545 S
C876 C877 1.426 . S
C876 C879 1.491 1_545 S
C877 H851 0.950 . S
C877 C876 1.426 . S
C877 C878 1.374 . S
C878 H852 0.950 . S
C878 C874 1.385 . S
C878 C877 1.374 . S
C879 C876 1.491 1_565 S
C879 C880 1.373 . S
C879 C881 1.389 1_565 S
C880 H853 0.950 . S
C880 C866 1.377 . S
C880 C879 1.373 . S
C881 C865 1.377 . S
C881 C879 1.389 1_545 S
C881 C882 1.524 . S
C882 C881 1.524 . S
C882 C883 1.397 . S
C882 C887 1.363 . S
C883 H854 0.950 . S
C883 C882 1.397 . S
C883 C884 1.334 . S
C884 H855 0.950 . S
C884 C883 1.334 . S
C884 C885 1.287 . S
C885 C884 1.287 . S
C885 C886 1.524 . S
C885 H888 0.999 . S
C886 H856 0.950 . S
C886 C885 1.524 . S
C886 C887 1.415 . S
C887 H857 0.950 . S
C887 C882 1.363 . S
C887 C886 1.415 . S
H888 C885 0.999 . S
H889 C870 0.913 . S
H890 C908 0.951 1_655 S
H891 C910 0.951 1_655 S
H892 C912 0.950 . S
H893 C913 0.950 . S
H894 C915 0.950 . S
H895 C918 0.950 . S
H896 C919 0.950 . S
H897 C921 0.950 . S
H898 C922 0.950 . S
H899 C923 0.951 . S
H900 C925 0.951 . S
H901 C927 0.936 1_655 S
H902 C928 0.929 1_655 S
H903 C930 0.950 . S
H904 C933 0.950 . S
H905 C934 0.950 . S
H906 C936 0.950 . S
H907 C937 0.950 . S
C908 H890 0.951 1_455 S
C908 C909 1.366 . S
C908 C910 1.388 . S
C909 C908 1.366 . S
C909 C913 1.385 . S
C910 H891 0.951 1_455 S
C910 C908 1.388 . S
C910 C911 1.366 . S
C911 C910 1.366 . S
C911 C912 1.414 . S
C911 C914 1.499 . S
C912 H892 0.950 . S
C912 C911 1.414 . S
C912 C913 1.374 . S
C913 H893 0.950 . S
C913 C909 1.385 . S
C913 C912 1.374 . S
C914 C911 1.499 . S
C914 C915 1.373 . S
C914 C916 1.389 . S
C915 H894 0.950 . S
C915 C914 1.373 . S
C915 C931 1.377 . S
C916 C914 1.389 . S
C916 C917 1.524 . S
C916 C930 1.377 . S
C917 C916 1.524 . S
C917 C918 1.397 . S
C917 C922 1.363 . S
C918 H895 0.950 . S
C918 C917 1.397 . S
C918 C919 1.334 . S
C919 H896 0.950 . S
C919 C918 1.334 . S
C919 C920 1.287 . S
C920 C919 1.287 . S
C920 C921 1.524 . S
C920 H939 0.913 . S
C921 H897 0.950 . S
C921 C920 1.524 . S
C921 C922 1.415 . S
C922 H898 0.950 . S
C922 C917 1.363 . S
C922 C921 1.415 . S
C923 H899 0.951 . S
C923 C924 1.366 . S
C923 C925 1.388 . S
C924 C923 1.366 . S
C924 C928 1.396 . S
C925 H900 0.951 . S
C925 C923 1.388 . S
C925 C926 1.366 . S
C926 C925 1.366 . S
C926 C927 1.443 . S
C926 C929 1.499 . S
C927 H901 0.936 1_455 S
C927 C926 1.443 . S
C927 C928 1.370 . S
C928 H902 0.929 1_455 S
C928 C924 1.396 . S
C928 C927 1.370 . S
C929 C926 1.499 . S
C929 C930 1.373 . S
C929 C931 1.389 . S
C930 H903 0.950 . S
C930 C916 1.377 . S
C930 C929 1.373 . S
C931 C915 1.377 . S
C931 C929 1.389 . S
C931 C932 1.524 . S
C932 C931 1.524 . S
C932 C933 1.397 1_455 S
C932 C937 1.363 . S
C933 H904 0.950 . S
C933 C932 1.397 1_655 S
C933 C934 1.334 . S
C934 H905 0.950 . S
C934 C933 1.334 . S
C934 C935 1.287 . S
C935 C934 1.287 . S
C935 C936 1.524 1_655 S
C935 H938 0.999 . S
C936 H906 0.950 . S
C936 C935 1.524 1_455 S
C936 C937 1.415 . S
C937 H907 0.950 . S
C937 C932 1.363 . S
C937 C936 1.415 . S
H938 C935 0.999 . S
H939 C920 0.913 . S
H940 C958 0.951 . S
H941 C960 0.951 . S
H942 C962 0.950 . S
H943 C963 0.950 . S
H944 C965 0.950 . S
H945 C968 0.950 . S
H946 C969 0.950 . S
H947 C971 0.950 . S
H948 C972 0.950 . S
H949 C973 0.951 . S
H950 C975 0.951 . S
H951 C977 0.950 . S
H952 C978 0.950 . S
H953 C980 0.950 . S
H954 C983 0.950 . S
H955 C984 0.950 . S
H956 C986 0.950 . S
H957 C987 0.950 . S
C958 H940 0.951 . S
C958 C959 1.366 . S
C958 C960 1.388 . S
C959 C958 1.366 . S
C959 C963 1.385 . S
C960 H941 0.951 . S
C960 C958 1.388 . S
C960 C961 1.366 . S
C961 C960 1.366 . S
C961 C962 1.414 . S
C961 C964 1.499 . S
C962 H942 0.950 . S
C962 C961 1.414 . S
C962 C963 1.374 . S
C963 H943 0.950 . S
C963 C959 1.385 . S
C963 C962 1.374 . S
C964 C961 1.499 . S
C964 C965 1.373 . S
C964 C966 1.389 . S
C965 H944 0.950 . S
C965 C964 1.373 . S
C965 C981 1.377 . S
C966 C964 1.389 . S
C966 C967 1.524 . S
C966 C980 1.377 . S
C967 C966 1.524 . S
C967 C968 1.397 . S
C967 C972 1.363 . S
C968 H945 0.950 . S
C968 C967 1.397 . S
C968 C969 1.334 . S
C969 H946 0.950 . S
C969 C968 1.334 . S
C969 C970 1.287 . S
C970 C969 1.287 . S
C970 C971 1.524 . S
C970 H989 0.913 . S
C971 H947 0.950 . S
C971 C970 1.524 . S
C971 C972 1.415 . S
C972 H948 0.950 . S
C972 C967 1.363 . S
C972 C971 1.415 . S
C973 H949 0.951 . S
C973 C974 1.366 . S
C973 C975 1.388 . S
C974 C973 1.366 . S
C974 C978 1.385 . S
C975 H950 0.951 . S
C975 C973 1.388 . S
C975 C976 1.366 . S
C976 C975 1.366 . S
C976 C977 1.414 . S
C976 C979 1.499 . S
C977 H951 0.950 . S
C977 C976 1.414 . S
C977 C978 1.374 . S
C978 H952 0.950 . S
C978 C974 1.385 . S
C978 C977 1.374 . S
C979 C976 1.499 . S
C979 C980 1.373 . S
C979 C981 1.389 . S
C980 H953 0.950 . S
C980 C966 1.377 . S
C980 C979 1.373 . S
C981 C965 1.377 . S
C981 C979 1.389 . S
C981 C982 1.524 . S
C982 C981 1.524 . S
C982 C983 1.397 . S
C982 C987 1.363 . S
C983 H954 0.950 . S
C983 C982 1.397 . S
C983 C984 1.334 . S
C984 H955 0.950 . S
C984 C983 1.334 . S
C984 C985 1.287 . S
C985 C984 1.287 . S
C985 C986 1.524 . S
C985 H988 0.999 . S
C986 H956 0.950 . S
C986 C985 1.524 . S
C986 C987 1.415 . S
C987 H957 0.950 . S
C987 C982 1.363 . S
C987 C986 1.415 . S
H988 C985 0.999 . S
H989 C970 0.913 . S
H990 C1008 0.951 . S
H991 C1010 0.951 . S
H992 C1012 0.950 . S
H993 C1013 0.950 . S
H994 C1015 0.950 . S
H995 C1018 0.950 . S
H996 C1019 0.950 . S
H997 C1021 0.950 . S
H998 C1022 0.950 . S
H999 C1023 0.951 . S
H1000 C1025 0.951 . S
H1001 C1027 0.950 . S
H1002 C1028 0.950 . S
H1003 C1030 0.950 . S
H1004 C1033 0.950 . S
H1005 C1034 0.950 . S
H1006 C1036 0.950 . S
H1007 C1037 0.950 . S
C1008 H990 0.951 . S
C1008 C1009 1.366 . S
C1008 C1010 1.388 . S
C1009 C1008 1.366 . S
C1009 C1013 1.385 . S
C1010 H991 0.951 . S
C1010 C1008 1.388 . S
C1010 C1011 1.366 . S
C1011 C1010 1.366 . S
C1011 C1012 1.414 . S
C1011 C1014 1.499 . S
C1012 H992 0.950 . S
C1012 C1011 1.414 . S
C1012 C1013 1.374 . S
C1013 H993 0.950 . S
C1013 C1009 1.385 . S
C1013 C1012 1.374 . S
C1014 C1011 1.499 . S
C1014 C1015 1.373 . S
C1014 C1016 1.389 . S
C1015 H994 0.950 . S
C1015 C1014 1.373 . S
C1015 C1031 1.377 . S
C1016 C1014 1.389 . S
C1016 C1017 1.524 . S
C1016 C1030 1.377 . S
C1017 C1016 1.524 . S
C1017 C1018 1.397 . S
C1017 C1022 1.363 . S
C1018 H995 0.950 . S
C1018 C1017 1.397 . S
C1018 C1019 1.334 . S
C1019 H996 0.950 . S
C1019 C1018 1.334 . S
C1019 C1020 1.287 . S
C1020 C1019 1.287 . S
C1020 C1021 1.524 . S
C1020 H1039 0.913 . S
C1021 H997 0.950 . S
C1021 C1020 1.524 . S
C1021 C1022 1.415 . S
C1022 H998 0.950 . S
C1022 C1017 1.363 . S
C1022 C1021 1.415 . S
C1023 H999 0.951 . S
C1023 C1024 1.366 . S
C1023 C1025 1.388 . S
C1024 C1023 1.366 . S
C1024 C1028 1.385 . S
C1025 H1000 0.951 . S
C1025 C1023 1.388 . S
C1025 C1026 1.366 . S
C1026 C1025 1.366 . S
C1026 C1027 1.414 . S
C1026 C1029 1.499 . S
C1027 H1001 0.950 . S
C1027 C1026 1.414 . S
C1027 C1028 1.374 . S
C1028 H1002 0.950 . S
C1028 C1024 1.385 . S
C1028 C1027 1.374 . S
C1029 C1026 1.499 . S
C1029 C1030 1.373 . S
C1029 C1031 1.389 . S
C1030 H1003 0.950 . S
C1030 C1016 1.377 . S
C1030 C1029 1.373 . S
C1031 C1015 1.377 . S
C1031 C1029 1.389 . S
C1031 C1032 1.524 . S
C1032 C1031 1.524 . S
C1032 C1033 1.397 . S
C1032 C1037 1.363 . S
C1033 H1004 0.950 . S
C1033 C1032 1.397 . S
C1033 C1034 1.334 . S
C1034 H1005 0.950 . S
C1034 C1033 1.334 . S
C1034 C1035 1.287 . S
C1035 C1034 1.287 . S
C1035 C1036 1.524 . S
C1035 H1038 0.999 . S
C1036 H1006 0.950 . S
C1036 C1035 1.524 . S
C1036 C1037 1.415 . S
C1037 H1007 0.950 . S
C1037 C1032 1.363 . S
C1037 C1036 1.415 . S
H1038 C1035 0.999 . S
H1039 C1020 0.913 . S
H1040 C1058 0.951 . S
H1041 C1060 0.951 . S
H1042 C1062 0.950 . S
H1043 C1063 0.950 . S
H1044 C1065 0.950 . S
H1045 C1068 0.950 . S
H1046 C1069 0.950 . S
H1047 C1071 0.950 . S
H1048 C1072 0.950 . S
H1049 C1073 0.951 . S
H1050 C1075 0.951 . S
H1051 C1077 0.950 . S
H1052 C1078 0.950 . S
H1053 C1080 0.950 . S
H1054 C1083 0.950 . S
H1055 C1084 0.946 1_655 S
H1056 C1086 0.950 . S
H1057 C1087 0.950 . S
C1058 H1040 0.951 . S
C1058 C1059 1.366 . S
C1058 C1060 1.388 . S
C1059 C1058 1.366 . S
C1059 C1063 1.385 . S
C1060 H1041 0.951 . S
C1060 C1058 1.388 . S
C1060 C1061 1.366 . S
C1061 C1060 1.366 . S
C1061 C1062 1.414 . S
C1061 C1064 1.499 . S
C1062 H1042 0.950 . S
C1062 C1061 1.414 . S
C1062 C1063 1.374 . S
C1063 H1043 0.950 . S
C1063 C1059 1.385 . S
C1063 C1062 1.374 . S
C1064 C1061 1.499 . S
C1064 C1065 1.373 . S
C1064 C1066 1.389 . S
C1065 H1044 0.950 . S
C1065 C1064 1.373 . S
C1065 C1081 1.377 . S
C1066 C1064 1.389 . S
C1066 C1067 1.524 . S
C1066 C1080 1.377 . S
C1067 C1066 1.524 . S
C1067 C1068 1.397 . S
C1067 C1072 1.363 . S
C1068 H1045 0.950 . S
C1068 C1067 1.397 . S
C1068 C1069 1.334 . S
C1069 H1046 0.950 . S
C1069 C1068 1.334 . S
C1069 C1070 1.287 . S
C1070 C1069 1.287 . S
C1070 C1071 1.524 . S
C1070 H1089 0.913 . S
C1071 H1047 0.950 . S
C1071 C1070 1.524 . S
C1071 C1072 1.415 . S
C1072 H1048 0.950 . S
C1072 C1067 1.363 . S
C1072 C1071 1.415 . S
C1073 H1049 0.951 . S
C1073 C1074 1.366 . S
C1073 C1075 1.388 . S
C1074 C1073 1.366 . S
C1074 C1078 1.385 . S
C1075 H1050 0.951 . S
C1075 C1073 1.388 . S
C1075 C1076 1.366 . S
C1076 C1075 1.366 . S
C1076 C1077 1.414 . S
C1076 C1079 1.499 . S
C1077 H1051 0.950 . S
C1077 C1076 1.414 . S
C1077 C1078 1.374 . S
C1078 H1052 0.950 . S
C1078 C1074 1.385 . S
C1078 C1077 1.374 . S
C1079 C1076 1.499 . S
C1079 C1080 1.373 . S
C1079 C1081 1.389 . S
C1080 H1053 0.950 . S
C1080 C1066 1.377 . S
C1080 C1079 1.373 . S
C1081 C1065 1.377 . S
C1081 C1079 1.389 . S
C1081 C1082 1.524 . S
C1082 C1081 1.524 . S
C1082 C1083 1.397 . S
C1082 C1087 1.363 . S
C1083 H1054 0.950 . S
C1083 C1082 1.397 . S
C1083 C1084 1.334 . S
C1084 H1055 0.946 1_455 S
C1084 C1083 1.334 . S
C1084 C1085 1.273 1_455 S
C1085 C1084 1.273 1_655 S
C1085 C1086 1.519 1_655 S
C1085 H1088 1.023 . S
C1086 H1056 0.950 . S
C1086 C1085 1.519 1_455 S
C1086 C1087 1.415 . S
C1087 H1057 0.950 . S
C1087 C1082 1.363 . S
C1087 C1086 1.415 . S
H1088 C1085 1.023 . S
H1089 C1070 0.913 . S
H1090 C1108 0.951 . S
H1091 C1110 0.951 . S
H1092 C1112 0.950 . S
H1093 C1113 0.950 . S
H1094 C1115 0.950 . S
H1095 C1118 0.950 . S
H1096 C1119 0.950 . S
H1097 C1121 0.950 . S
H1098 C1122 0.950 . S
H1099 C1123 0.951 . S
H1100 C1125 0.951 . S
H1101 C1127 0.950 . S
H1102 C1128 0.950 . S
H1103 C1130 0.950 . S
H1104 C1133 0.950 . S
H1105 C1134 0.950 . S
H1106 C1136 0.950 . S
H1107 C1137 0.950 . S
C1108 H1090 0.951 . S
C1108 C1109 1.366 . S
C1108 C1110 1.388 . S
C1109 C1108 1.366 . S
C1109 C1113 1.385 . S
C1110 H1091 0.951 . S
C1110 C1108 1.388 . S
C1110 C1111 1.366 . S
C1111 C1110 1.366 . S
C1111 C1112 1.414 . S
C1111 C1114 1.499 . S
C1112 H1092 0.950 . S
C1112 C1111 1.414 . S
C1112 C1113 1.374 . S
C1113 H1093 0.950 . S
C1113 C1109 1.385 . S
C1113 C1112 1.374 . S
C1114 C1111 1.499 . S
C1114 C1115 1.373 . S
C1114 C1116 1.389 . S
C1115 H1094 0.950 . S
C1115 C1114 1.373 . S
C1115 C1131 1.377 . S
C1116 C1114 1.389 . S
C1116 C1117 1.524 . S
C1116 C1130 1.377 . S
C1117 C1116 1.524 . S
C1117 C1118 1.397 . S
C1117 C1122 1.363 . S
C1118 H1095 0.950 . S
C1118 C1117 1.397 . S
C1118 C1119 1.334 . S
C1119 H1096 0.950 . S
C1119 C1118 1.334 . S
C1119 C1120 1.287 . S
C1120 C1119 1.287 . S
C1120 C1121 1.524 . S
C1120 H1139 0.913 . S
C1121 H1097 0.950 . S
C1121 C1120 1.524 . S
C1121 C1122 1.415 . S
C1122 H1098 0.950 . S
C1122 C1117 1.363 . S
C1122 C1121 1.415 . S
C1123 H1099 0.951 . S
C1123 C1124 1.366 . S
C1123 C1125 1.388 . S
C1124 C1123 1.366 . S
C1124 C1128 1.385 . S
C1125 H1100 0.951 . S
C1125 C1123 1.388 . S
C1125 C1126 1.366 . S
C1126 C1125 1.366 . S
C1126 C1127 1.414 . S
C1126 C1129 1.499 . S
C1127 H1101 0.950 . S
C1127 C1126 1.414 . S
C1127 C1128 1.374 . S
C1128 H1102 0.950 . S
C1128 C1124 1.385 . S
C1128 C1127 1.374 . S
C1129 C1126 1.499 . S
C1129 C1130 1.373 . S
C1129 C1131 1.389 . S
C1130 H1103 0.950 . S
C1130 C1116 1.377 . S
C1130 C1129 1.373 . S
C1131 C1115 1.377 . S
C1131 C1129 1.389 . S
C1131 C1132 1.524 . S
C1132 C1131 1.524 . S
C1132 C1133 1.397 . S
C1132 C1137 1.363 . S
C1133 H1104 0.950 . S
C1133 C1132 1.397 . S
C1133 C1134 1.334 . S
C1134 H1105 0.950 . S
C1134 C1133 1.334 . S
C1134 C1135 1.287 . S
C1135 C1134 1.287 . S
C1135 C1136 1.524 . S
C1135 H1138 0.999 . S
C1136 H1106 0.950 . S
C1136 C1135 1.524 . S
C1136 C1137 1.415 . S
C1137 H1107 0.950 . S
C1137 C1132 1.363 . S
C1137 C1136 1.415 . S
H1138 C1135 0.999 . S
H1139 C1120 0.913 . S
H1140 C1158 0.951 1_545 S
H1141 C1160 0.976 . S
H1142 C1162 0.950 . S
H1143 C1163 0.950 . S
H1144 C1165 0.950 . S
H1145 C1168 0.950 . S
H1146 C1169 0.950 . S
H1147 C1171 0.950 . S
H1148 C1172 0.950 . S
H1149 C1173 0.951 . S
H1150 C1175 0.951 . S
H1151 C1177 0.950 . S
H1152 C1178 0.950 . S
H1153 C1180 0.950 . S
H1154 C1183 0.950 . S
H1155 C1184 0.950 . S
H1156 C1186 0.950 . S
H1157 C1187 0.950 . S
C1158 H1140 0.951 1_565 S
C1158 C1159 1.366 . S
C1158 C1160 1.371 1_565 S
C1159 C1158 1.366 . S
C1159 C1163 1.385 . S
C1160 H1141 0.976 . S
C1160 C1158 1.371 1_545 S
C1160 C1161 1.360 1_545 S
C1161 C1160 1.360 1_565 S
C1161 C1162 1.414 . S
C1161 C1164 1.499 . S
C1162 H1142 0.950 . S
C1162 C1161 1.414 . S
C1162 C1163 1.374 . S
C1163 H1143 0.950 . S
C1163 C1159 1.385 . S
C1163 C1162 1.374 . S
C1164 C1161 1.499 . S
C1164 C1165 1.373 . S
C1164 C1166 1.389 1_565 S
C1165 H1144 0.950 . S
C1165 C1164 1.373 . S
C1165 C1181 1.377 . S
C1166 C1164 1.389 1_545 S
C1166 C1167 1.524 . S
C1166 C1180 1.377 . S
C1167 C1166 1.524 . S
C1167 C1168 1.397 . S
C1167 C1172 1.363 . S
C1168 H1145 0.950 . S
C1168 C1167 1.397 . S
C1168 C1169 1.334 . S
C1169 H1146 0.950 . S
C1169 C1168 1.334 . S
C1169 C1170 1.287 . S
C1170 C1169 1.287 . S
C1170 C1171 1.524 . S
C1170 H1189 0.913 . S
C1171 H1147 0.950 . S
C1171 C1170 1.524 . S
C1171 C1172 1.415 . S
C1172 H1148 0.950 . S
C1172 C1167 1.363 . S
C1172 C1171 1.415 . S
C1173 H1149 0.951 . S
C1173 C1174 1.366 1_565 S
C1173 C1175 1.388 . S
C1174 C1173 1.366 1_545 S
C1174 C1178 1.385 . S
C1175 H1150 0.951 . S
C1175 C1173 1.388 . S
C1175 C1176 1.366 . S
C1176 C1175 1.366 . S
C1176 C1177 1.414 1_565 S
C1176 C1179 1.499 . S
C1177 H1151 0.950 . S
C1177 C1176 1.414 1_545 S
C1177 C1178 1.374 . S
C1178 H1152 0.950 . S
C1178 C1174 1.385 . S
C1178 C1177 1.374 . S
C1179 C1176 1.499 . S
C1179 C1180 1.373 1_565 S
C1179 C1181 1.389 . S
C1180 H1153 0.950 . S
C1180 C1166 1.377 . S
C1180 C1179 1.373 1_545 S
C1181 C1165 1.377 . S
C1181 C1179 1.389 . S
C1181 C1182 1.524 . S
C1182 C1181 1.524 . S
C1182 C1183 1.397 . S
C1182 C1187 1.363 . S
C1183 H1154 0.950 . S
C1183 C1182 1.397 . S
C1183 C1184 1.334 . S
C1184 H1155 0.950 . S
C1184 C1183 1.334 . S
C1184 C1185 1.287 . S
C1185 C1184 1.287 . S
C1185 C1186 1.524 . S
C1185 H1188 0.999 . S
C1186 H1156 0.950 . S
C1186 C1185 1.524 . S
C1186 C1187 1.415 . S
C1187 H1157 0.950 . S
C1187 C1182 1.363 . S
C1187 C1186 1.415 . S
H1188 C1185 0.999 . S
H1189 C1170 0.913 . S
H1190 C1208 0.951 . S
H1191 C1210 0.951 . S
H1192 C1212 0.950 . S
H1193 C1213 0.950 . S
H1194 C1215 0.950 . S
H1195 C1218 0.950 . S
H1196 C1219 0.950 1_554 S
H1197 C1221 0.950 . S
H1198 C1222 0.950 . S
H1199 C1223 0.951 . S
H1200 C1225 0.951 . S
H1201 C1227 0.950 . S
H1202 C1228 0.950 . S
H1203 C1230 0.950 . S
H1204 C1233 0.950 . S
H1205 C1234 0.950 . S
H1206 C1236 0.950 . S
H1207 C1237 0.950 . S
C1208 H1190 0.951 . S
C1208 C1209 1.366 1_655 S
C1208 C1210 1.388 . S
C1209 C1208 1.366 1_455 S
C1209 C1213 1.385 . S
C1210 H1191 0.951 . S
C1210 C1208 1.388 . S
C1210 C1211 1.366 1_655 S
C1211 C1210 1.366 1_455 S
C1211 C1212 1.414 . S
C1211 C1214 1.499 . S
C1212 H1192 0.950 . S
C1212 C1211 1.414 . S
C1212 C1213 1.374 . S
C1213 H1193 0.950 . S
C1213 C1209 1.385 . S
C1213 C1212 1.374 . S
C1214 C1211 1.499 . S
C1214 C1215 1.373 . S
C1214 C1216 1.389 1_455 S
C1215 H1194 0.950 . S
C1215 C1214 1.373 . S
C1215 C1231 1.377 . S
C1216 C1214 1.389 1_655 S
C1216 C1217 1.524 . S
C1216 C1230 1.377 . S
C1217 C1216 1.524 . S
C1217 C1218 1.397 . S
C1217 C1222 1.363 . S
C1218 H1195 0.950 . S
C1218 C1217 1.397 . S
C1218 C1219 1.334 . S
C1219 H1196 0.950 1_556 S
C1219 C1218 1.334 . S
C1219 C1220 1.287 . S
C1220 C1219 1.287 . S
C1220 C1221 1.524 . S
C1220 H1239 0.913 . S
C1221 H1197 0.950 . S
C1221 C1220 1.524 . S
C1221 C1222 1.415 . S
C1222 H1198 0.950 . S
C1222 C1217 1.363 . S
C1222 C1221 1.415 . S
C1223 H1199 0.951 . S
C1223 C1224 1.366 . S
C1223 C1225 1.388 . S
C1224 C1223 1.366 . S
C1224 C1228 1.385 1_455 S
C1225 H1200 0.951 . S
C1225 C1223 1.388 . S
C1225 C1226 1.366 . S
C1226 C1225 1.366 . S
C1226 C1227 1.414 1_455 S
C1226 C1229 1.499 . S
C1227 H1201 0.950 . S
C1227 C1226 1.414 1_655 S
C1227 C1228 1.374 . S
C1228 H1202 0.950 . S
C1228 C1224 1.385 1_655 S
C1228 C1227 1.374 . S
C1229 C1226 1.499 . S
C1229 C1230 1.373 1_455 S
C1229 C1231 1.389 . S
C1230 H1203 0.950 . S
C1230 C1216 1.377 . S
C1230 C1229 1.373 1_655 S
C1231 C1215 1.377 . S
C1231 C1229 1.389 . S
C1231 C1232 1.524 . S
C1232 C1231 1.524 . S
C1232 C1233 1.397 . S
C1232 C1237 1.363 . S
C1233 H1204 0.950 . S
C1233 C1232 1.397 . S
C1233 C1234 1.334 . S
C1234 H1205 0.950 . S
C1234 C1233 1.334 . S
C1234 C1235 1.287 . S
C1235 C1234 1.287 . S
C1235 C1236 1.524 . S
C1235 H1238 0.999 . S
C1236 H1206 0.950 . S
C1236 C1235 1.524 . S
C1236 C1237 1.415 . S
C1237 H1207 0.950 . S
C1237 C1232 1.363 . S
C1237 C1236 1.415 . S
H1238 C1235 0.999 . S
H1239 C1220 0.913 . S
H1240 C1258 0.984 . S
H1241 C1260 0.984 . S
H1242 C1262 0.950 . S
H1243 C1263 0.950 . S
H1244 C1265 0.950 . S
H1245 C1268 0.996 . S
H1246 C1269 0.950 . S
H1247 C1271 0.950 . S
H1248 C1272 0.950 . S
H1249 C1273 0.951 . S
H1250 C1275 0.951 . S
H1251 C1277 0.950 . S
H1252 C1278 0.950 . S
H1253 C1280 0.950 1_554 S
H1254 C1283 0.950 . S
H1255 C1284 0.950 . S
H1256 C1286 0.950 . S
H1257 C1287 0.950 . S
C1258 H1240 0.984 . S
C1258 C1259 1.334 1_554 S
C1258 C1260 1.388 . S
C1259 C1258 1.334 1_556 S
C1259 C1263 1.385 . S
C1260 H1241 0.984 . S
C1260 C1258 1.388 . S
C1260 C1261 1.333 1_554 S
C1261 C1260 1.333 1_556 S
C1261 C1262 1.414 . S
C1261 C1264 1.499 . S
C1262 H1242 0.950 . S
C1262 C1261 1.414 . S
C1262 C1263 1.374 . S
C1263 H1243 0.950 . S
C1263 C1259 1.385 . S
C1263 C1262 1.374 . S
C1264 C1261 1.499 . S
C1264 C1265 1.373 . S
C1264 C1266 1.389 . S
C1265 H1244 0.950 . S
C1265 C1264 1.373 . S
C1265 C1281 1.377 . S
C1266 C1264 1.389 . S
C1266 C1267 1.524 1_556 S
C1266 C1280 1.377 . S
C1267 C1266 1.524 1_554 S
C1267 C1268 1.376 1_554 S
C1267 C1272 1.363 . S
C1268 H1245 0.996 . S
C1268 C1267 1.376 1_556 S
C1268 C1269 1.310 1_556 S
C1269 H1246 0.950 . S
C1269 C1268 1.310 1_554 S
C1269 C1270 1.287 . S
C1270 C1269 1.287 . S
C1270 C1271 1.524 . S
C1270 H1289 0.913 . S
C1271 H1247 0.950 . S
C1271 C1270 1.524 . S
C1271 C1272 1.415 . S
C1272 H1248 0.950 . S
C1272 C1267 1.363 . S
C1272 C1271 1.415 . S
C1273 H1249 0.951 . S
C1273 C1274 1.366 . S
C1273 C1275 1.388 . S
C1274 C1273 1.366 . S
C1274 C1278 1.385 1_556 S
C1275 H1250 0.951 . S
C1275 C1273 1.388 . S
C1275 C1276 1.366 . S
C1276 C1275 1.366 . S
C1276 C1277 1.414 1_556 S
C1276 C1279 1.499 . S
C1277 H1251 0.950 . S
C1277 C1276 1.414 1_554 S
C1277 C1278 1.374 . S
C1278 H1252 0.950 . S
C1278 C1274 1.385 1_554 S
C1278 C1277 1.374 . S
C1279 C1276 1.499 . S
C1279 C1280 1.373 . S
C1279 C1281 1.389 . S
C1280 H1253 0.950 1_556 S
C1280 C1266 1.377 . S
C1280 C1279 1.373 . S
C1281 C1265 1.377 . S
C1281 C1279 1.389 . S
C1281 C1282 1.524 . S
C1282 C1281 1.524 . S
C1282 C1283 1.397 . S
C1282 C1287 1.363 . S
C1283 H1254 0.950 . S
C1283 C1282 1.397 . S
C1283 C1284 1.334 . S
C1284 H1255 0.950 . S
C1284 C1283 1.334 . S
C1284 C1285 1.287 . S
C1285 C1284 1.287 . S
C1285 C1286 1.524 . S
C1285 H1288 0.999 . S
C1286 H1256 0.950 . S
C1286 C1285 1.524 . S
C1286 C1287 1.415 . S
C1287 H1257 0.950 . S
C1287 C1282 1.363 . S
C1287 C1286 1.415 . S
H1288 C1285 0.999 . S
H1289 C1270 0.913 . S
H1290 C1308 0.951 . S
H1291 C1310 0.951 . S
H1292 C1312 0.950 . S
H1293 C1313 0.950 . S
H1294 C1315 0.950 . S
H1295 C1318 0.950 . S
H1296 C1319 0.950 . S
H1297 C1321 0.950 . S
H1298 C1322 0.950 . S
H1299 C1323 0.951 . S
H1300 C1325 0.951 . S
H1301 C1327 0.950 . S
H1302 C1328 0.950 . S
H1303 C1330 0.950 . S
H1304 C1333 0.950 . S
H1305 C1334 0.950 . S
H1306 C1336 0.950 . S
H1307 C1337 0.950 . S
C1308 H1290 0.951 . S
C1308 C1309 1.366 . S
C1308 C1310 1.388 . S
C1309 C1308 1.366 . S
C1309 C1313 1.385 . S
C1310 H1291 0.951 . S
C1310 C1308 1.388 . S
C1310 C1311 1.366 . S
C1311 C1310 1.366 . S
C1311 C1312 1.414 . S
C1311 C1314 1.499 . S
C1312 H1292 0.950 . S
C1312 C1311 1.414 . S
C1312 C1313 1.374 . S
C1313 H1293 0.950 . S
C1313 C1309 1.385 . S
C1313 C1312 1.374 . S
C1314 C1311 1.499 . S
C1314 C1315 1.373 . S
C1314 C1316 1.389 . S
C1315 H1294 0.950 . S
C1315 C1314 1.373 . S
C1315 C1331 1.377 . S
C1316 C1314 1.389 . S
C1316 C1317 1.524 . S
C1316 C1330 1.377 . S
C1317 C1316 1.524 . S
C1317 C1318 1.397 . S
C1317 C1322 1.363 . S
C1318 H1295 0.950 . S
C1318 C1317 1.397 . S
C1318 C1319 1.334 . S
C1319 H1296 0.950 . S
C1319 C1318 1.334 . S
C1319 C1320 1.287 . S
C1320 C1319 1.287 . S
C1320 C1321 1.524 . S
C1320 H1339 0.913 . S
C1321 H1297 0.950 . S
C1321 C1320 1.524 . S
C1321 C1322 1.415 . S
C1322 H1298 0.950 . S
C1322 C1317 1.363 . S
C1322 C1321 1.415 . S
C1323 H1299 0.951 . S
C1323 C1324 1.366 . S
C1323 C1325 1.388 . S
C1324 C1323 1.366 . S
C1324 C1328 1.385 . S
C1325 H1300 0.951 . S
C1325 C1323 1.388 . S
C1325 C1326 1.366 . S
C1326 C1325 1.366 . S
C1326 C1327 1.414 . S
C1326 C1329 1.499 . S
C1327 H1301 0.950 . S
C1327 C1326 1.414 . S
C1327 C1328 1.374 . S
C1328 H1302 0.950 . S
C1328 C1324 1.385 . S
C1328 C1327 1.374 . S
C1329 C1326 1.499 . S
C1329 C1330 1.373 . S
C1329 C1331 1.389 . S
C1330 H1303 0.950 . S
C1330 C1316 1.377 . S
C1330 C1329 1.373 . S
C1331 C1315 1.377 . S
C1331 C1329 1.389 . S
C1331 C1332 1.524 . S
C1332 C1331 1.524 . S
C1332 C1333 1.397 . S
C1332 C1337 1.363 . S
C1333 H1304 0.950 . S
C1333 C1332 1.397 . S
C1333 C1334 1.334 . S
C1334 H1305 0.950 . S
C1334 C1333 1.334 . S
C1334 C1335 1.287 . S
C1335 C1334 1.287 . S
C1335 C1336 1.524 . S
C1335 H1338 0.999 . S
C1336 H1306 0.950 . S
C1336 C1335 1.524 . S
C1336 C1337 1.415 . S
C1337 H1307 0.950 . S
C1337 C1332 1.363 . S
C1337 C1336 1.415 . S
H1338 C1335 0.999 . S
H1339 C1320 0.913 . S
H1340 C1358 0.951 . S
H1341 C1360 0.951 . S
H1342 C1362 0.950 . S
H1343 C1363 0.950 . S
H1344 C1365 0.950 . S
H1345 C1368 0.950 . S
H1346 C1369 0.950 . S
H1347 C1371 0.950 . S
H1348 C1372 0.950 . S
H1349 C1373 0.951 . S
H1350 C1375 0.951 . S
H1351 C1377 0.950 . S
H1352 C1378 0.950 . S
H1353 C1380 0.950 . S
H1354 C1383 0.950 . S
H1355 C1384 0.950 . S
H1356 C1386 0.950 . S
H1357 C1387 0.950 . S
C1358 H1340 0.951 . S
C1358 C1359 1.366 . S
C1358 C1360 1.388 . S
C1359 C1358 1.366 . S
C1359 C1363 1.385 . S
C1360 H1341 0.951 . S
C1360 C1358 1.388 . S
C1360 C1361 1.366 . S
C1361 C1360 1.366 . S
C1361 C1362 1.414 . S
C1361 C1364 1.499 . S
C1362 H1342 0.950 . S
C1362 C1361 1.414 . S
C1362 C1363 1.374 . S
C1363 H1343 0.950 . S
C1363 C1359 1.385 . S
C1363 C1362 1.374 . S
C1364 C1361 1.499 . S
C1364 C1365 1.373 . S
C1364 C1366 1.389 . S
C1365 H1344 0.950 . S
C1365 C1364 1.373 . S
C1365 C1381 1.377 . S
C1366 C1364 1.389 . S
C1366 C1367 1.524 . S
C1366 C1380 1.377 . S
C1367 C1366 1.524 . S
C1367 C1368 1.397 . S
C1367 C1372 1.363 . S
C1368 H1345 0.950 . S
C1368 C1367 1.397 . S
C1368 C1369 1.334 . S
C1369 H1346 0.950 . S
C1369 C1368 1.334 . S
C1369 C1370 1.287 . S
C1370 C1369 1.287 . S
C1370 C1371 1.524 . S
C1370 H1389 0.913 . S
C1371 H1347 0.950 . S
C1371 C1370 1.524 . S
C1371 C1372 1.415 . S
C1372 H1348 0.950 . S
C1372 C1367 1.363 . S
C1372 C1371 1.415 . S
C1373 H1349 0.951 . S
C1373 C1374 1.366 . S
C1373 C1375 1.388 . S
C1374 C1373 1.366 . S
C1374 C1378 1.385 . S
C1375 H1350 0.951 . S
C1375 C1373 1.388 . S
C1375 C1376 1.366 . S
C1376 C1375 1.366 . S
C1376 C1377 1.414 . S
C1376 C1379 1.499 . S
C1377 H1351 0.950 . S
C1377 C1376 1.414 . S
C1377 C1378 1.374 . S
C1378 H1352 0.950 . S
C1378 C1374 1.385 . S
C1378 C1377 1.374 . S
C1379 C1376 1.499 . S
C1379 C1380 1.373 . S
C1379 C1381 1.389 . S
C1380 H1353 0.950 . S
C1380 C1366 1.377 . S
C1380 C1379 1.373 . S
C1381 C1365 1.377 . S
C1381 C1379 1.389 . S
C1381 C1382 1.524 . S
C1382 C1381 1.524 . S
C1382 C1383 1.397 . S
C1382 C1387 1.363 . S
C1383 H1354 0.950 . S
C1383 C1382 1.397 . S
C1383 C1384 1.334 . S
C1384 H1355 0.950 . S
C1384 C1383 1.334 . S
C1384 C1385 1.287 . S
C1385 C1384 1.287 . S
C1385 C1386 1.524 . S
C1385 H1388 0.999 . S
C1386 H1356 0.950 . S
C1386 C1385 1.524 . S
C1386 C1387 1.415 . S
C1387 H1357 0.950 . S
C1387 C1382 1.363 . S
C1387 C1386 1.415 . S
H1388 C1385 0.999 . S
H1389 C1370 0.913 . S
H1390 C1408 0.951 . S
H1391 C1410 0.951 . S
H1392 C1412 0.950 . S
H1393 C1413 0.950 . S
H1394 C1415 0.950 . S
H1395 C1418 0.950 . S
H1396 C1419 0.950 . S
H1397 C1421 0.950 . S
H1398 C1422 0.950 . S
H1399 C1423 0.951 . S
H1400 C1425 0.951 . S
H1401 C1427 0.950 . S
H1402 C1428 0.950 . S
H1403 C1430 0.950 . S
H1404 C1433 0.950 . S
H1405 C1434 0.950 . S
H1406 C1436 0.950 . S
H1407 C1437 0.950 . S
C1408 H1390 0.951 . S
C1408 C1409 1.366 . S
C1408 C1410 1.388 . S
C1409 C1408 1.366 . S
C1409 C1413 1.385 . S
C1410 H1391 0.951 . S
C1410 C1408 1.388 . S
C1410 C1411 1.366 . S
C1411 C1410 1.366 . S
C1411 C1412 1.414 . S
C1411 C1414 1.499 . S
C1412 H1392 0.950 . S
C1412 C1411 1.414 . S
C1412 C1413 1.374 . S
C1413 H1393 0.950 . S
C1413 C1409 1.385 . S
C1413 C1412 1.374 . S
C1414 C1411 1.499 . S
C1414 C1415 1.373 . S
C1414 C1416 1.389 . S
C1415 H1394 0.950 . S
C1415 C1414 1.373 . S
C1415 C1431 1.377 . S
C1416 C1414 1.389 . S
C1416 C1417 1.524 . S
C1416 C1430 1.377 . S
C1417 C1416 1.524 . S
C1417 C1418 1.397 . S
C1417 C1422 1.363 . S
C1418 H1395 0.950 . S
C1418 C1417 1.397 . S
C1418 C1419 1.334 . S
C1419 H1396 0.950 . S
C1419 C1418 1.334 . S
C1419 C1420 1.287 . S
C1420 C1419 1.287 . S
C1420 C1421 1.524 . S
C1420 H1439 0.913 . S
C1421 H1397 0.950 . S
C1421 C1420 1.524 . S
C1421 C1422 1.415 . S
C1422 H1398 0.950 . S
C1422 C1417 1.363 . S
C1422 C1421 1.415 . S
C1423 H1399 0.951 . S
C1423 C1424 1.366 . S
C1423 C1425 1.388 . S
C1424 C1423 1.366 . S
C1424 C1428 1.385 . S
C1425 H1400 0.951 . S
C1425 C1423 1.388 . S
C1425 C1426 1.366 . S
C1426 C1425 1.366 . S
C1426 C1427 1.414 . S
C1426 C1429 1.499 . S
C1427 H1401 0.950 . S
C1427 C1426 1.414 . S
C1427 C1428 1.374 . S
C1428 H1402 0.950 . S
C1428 C1424 1.385 . S
C1428 C1427 1.374 . S
C1429 C1426 1.499 . S
C1429 C1430 1.373 . S
C1429 C1431 1.389 . S
C1430 H1403 0.950 . S
C1430 C1416 1.377 . S
C1430 C1429 1.373 . S
C1431 C1415 1.377 . S
C1431 C1429 1.389 . S
C1431 C1432 1.524 . S
C1432 C1431 1.524 . S
C1432 C1433 1.397 . S
C1432 C1437 1.363 . S
C1433 H1404 0.950 . S
C1433 C1432 1.397 . S
C1433 C1434 1.334 . S
C1434 H1405 0.950 . S
C1434 C1433 1.334 . S
C1434 C1435 1.287 . S
C1435 C1434 1.287 . S
C1435 C1436 1.524 . S
C1435 H1438 0.999 . S
C1436 H1406 0.950 . S
C1436 C1435 1.524 . S
C1436 C1437 1.415 . S
C1437 H1407 0.950 . S
C1437 C1432 1.363 . S
C1437 C1436 1.415 . S
H1438 C1435 0.999 . S
H1439 C1420 0.913 . S
H1440 C1458 0.951 . S
H1441 C1460 0.951 . S
H1442 C1462 0.950 . S
H1443 C1463 0.950 . S
H1444 C1465 0.950 . S
H1445 C1468 0.950 . S
H1446 C1469 0.950 . S
H1447 C1471 0.950 . S
H1448 C1472 0.950 . S
H1449 C1473 0.951 . S
H1450 C1475 0.951 . S
H1451 C1477 0.950 . S
H1452 C1478 0.950 . S
H1453 C1480 0.950 . S
H1454 C1483 0.950 . S
H1455 C1484 0.950 . S
H1456 C1486 0.950 . S
H1457 C1487 0.950 . S
C1458 H1440 0.951 . S
C1458 C1459 1.366 . S
C1458 C1460 1.388 . S
C1459 C1458 1.366 . S
C1459 C1463 1.385 . S
C1460 H1441 0.951 . S
C1460 C1458 1.388 . S
C1460 C1461 1.366 . S
C1461 C1460 1.366 . S
C1461 C1462 1.414 . S
C1461 C1464 1.499 . S
C1462 H1442 0.950 . S
C1462 C1461 1.414 . S
C1462 C1463 1.374 . S
C1463 H1443 0.950 . S
C1463 C1459 1.385 . S
C1463 C1462 1.374 . S
C1464 C1461 1.499 . S
C1464 C1465 1.373 . S
C1464 C1466 1.389 . S
C1465 H1444 0.950 . S
C1465 C1464 1.373 . S
C1465 C1481 1.377 . S
C1466 C1464 1.389 . S
C1466 C1467 1.524 . S
C1466 C1480 1.377 . S
C1467 C1466 1.524 . S
C1467 C1468 1.397 . S
C1467 C1472 1.363 . S
C1468 H1445 0.950 . S
C1468 C1467 1.397 . S
C1468 C1469 1.334 . S
C1469 H1446 0.950 . S
C1469 C1468 1.334 . S
C1469 C1470 1.287 . S
C1470 C1469 1.287 . S
C1470 C1471 1.524 . S
C1470 H1489 0.913 . S
C1471 H1447 0.950 . S
C1471 C1470 1.524 . S
C1471 C1472 1.415 . S
C1472 H1448 0.950 . S
C1472 C1467 1.363 . S
C1472 C1471 1.415 . S
C1473 H1449 0.951 . S
C1473 C1474 1.366 . S
C1473 C1475 1.388 . S
C1474 C1473 1.366 . S
C1474 C1478 1.385 . S
C1475 H1450 0.951 . S
C1475 C1473 1.388 . S
C1475 C1476 1.366 . S
C1476 C1475 1.366 . S
C1476 C1477 1.414 . S
C1476 C1479 1.499 . S
C1477 H1451 0.950 . S
C1477 C1476 1.414 . S
C1477 C1478 1.374 . S
C1478 H1452 0.950 . S
C1478 C1474 1.385 . S
C1478 C1477 1.374 . S
C1479 C1476 1.499 . S
C1479 C1480 1.373 . S
C1479 C1481 1.389 . S
C1480 H1453 0.950 . S
C1480 C1466 1.377 . S
C1480 C1479 1.373 . S
C1481 C1465 1.377 . S
C1481 C1479 1.389 . S
C1481 C1482 1.524 . S
C1482 C1481 1.524 . S
C1482 C1483 1.397 . S
C1482 C1487 1.363 . S
C1483 H1454 0.950 . S
C1483 C1482 1.397 . S
C1483 C1484 1.334 . S
C1484 H1455 0.950 . S
C1484 C1483 1.334 . S
C1484 C1485 1.287 . S
C1485 C1484 1.287 . S
C1485 C1486 1.524 . S
C1485 H1488 0.999 . S
C1486 H1456 0.950 . S
C1486 C1485 1.524 . S
C1486 C1487 1.415 . S
C1487 H1457 0.950 . S
C1487 C1482 1.363 . S
C1487 C1486 1.415 . S
H1488 C1485 0.999 . S
H1489 C1470 0.913 . S
H1490 C1508 0.951 . S
H1491 C1510 0.951 . S
H1492 C1512 0.950 . S
H1493 C1513 0.950 . S
H1494 C1515 0.950 . S
H1495 C1518 0.950 . S
H1496 C1519 0.950 . S
H1497 C1521 0.950 . S
H1498 C1522 0.950 . S
H1499 C1523 0.951 . S
H1500 C1525 0.951 . S
H1501 C1527 0.950 . S
H1502 C1528 0.950 . S
H1503 C1530 0.950 . S
H1504 C1533 0.950 . S
H1505 C1534 0.950 . S
H1506 C1536 0.950 . S
H1507 C1537 0.950 . S
C1508 H1490 0.951 . S
C1508 C1509 1.366 . S
C1508 C1510 1.388 . S
C1509 C1508 1.366 . S
C1509 C1513 1.385 . S
C1510 H1491 0.951 . S
C1510 C1508 1.388 . S
C1510 C1511 1.366 . S
C1511 C1510 1.366 . S
C1511 C1512 1.414 . S
C1511 C1514 1.499 . S
C1512 H1492 0.950 . S
C1512 C1511 1.414 . S
C1512 C1513 1.374 . S
C1513 H1493 0.950 . S
C1513 C1509 1.385 . S
C1513 C1512 1.374 . S
C1514 C1511 1.499 . S
C1514 C1515 1.373 . S
C1514 C1516 1.389 . S
C1515 H1494 0.950 . S
C1515 C1514 1.373 . S
C1515 C1531 1.377 . S
C1516 C1514 1.389 . S
C1516 C1517 1.524 . S
C1516 C1530 1.377 . S
C1517 C1516 1.524 . S
C1517 C1518 1.397 . S
C1517 C1522 1.363 . S
C1518 H1495 0.950 . S
C1518 C1517 1.397 . S
C1518 C1519 1.334 . S
C1519 H1496 0.950 . S
C1519 C1518 1.334 . S
C1519 C1520 1.287 . S
C1520 C1519 1.287 . S
C1520 C1521 1.524 . S
C1520 H1539 0.913 . S
C1521 H1497 0.950 . S
C1521 C1520 1.524 . S
C1521 C1522 1.415 . S
C1522 H1498 0.950 . S
C1522 C1517 1.363 . S
C1522 C1521 1.415 . S
C1523 H1499 0.951 . S
C1523 C1524 1.366 . S
C1523 C1525 1.388 . S
C1524 C1523 1.366 . S
C1524 C1528 1.385 . S
C1525 H1500 0.951 . S
C1525 C1523 1.388 . S
C1525 C1526 1.366 . S
C1526 C1525 1.366 . S
C1526 C1527 1.414 . S
C1526 C1529 1.499 . S
C1527 H1501 0.950 . S
C1527 C1526 1.414 . S
C1527 C1528 1.374 . S
C1528 H1502 0.950 . S
C1528 C1524 1.385 . S
C1528 C1527 1.374 . S
C1529 C1526 1.499 . S
C1529 C1530 1.373 . S
C1529 C1531 1.389 . S
C1530 H1503 0.950 . S
C1530 C1516 1.377 . S
C1530 C1529 1.373 . S
C1531 C1515 1.377 . S
C1531 C1529 1.389 . S
C1531 C1532 1.524 . S
C1532 C1531 1.524 . S
C1532 C1533 1.397 . S
C1532 C1537 1.363 . S
C1533 H1504 0.950 . S
C1533 C1532 1.397 . S
C1533 C1534 1.334 . S
C1534 H1505 0.950 . S
C1534 C1533 1.334 . S
C1534 C1535 1.287 . S
C1535 C1534 1.287 . S
C1535 C1536 1.524 . S
C1535 H1538 0.999 . S
C1536 H1506 0.950 . S
C1536 C1535 1.524 . S
C1536 C1537 1.415 . S
C1537 H1507 0.950 . S
C1537 C1532 1.363 . S
C1537 C1536 1.415 . S
H1538 C1535 0.999 . S
H1539 C1520 0.913 . S
H1540 C1558 0.951 . S
H1541 C1560 0.951 . S
H1542 C1562 0.950 . S
H1543 C1563 0.950 . S
H1544 C1565 0.950 . S
H1545 C1568 0.950 . S
H1546 C1569 0.950 . S
H1547 C1571 0.950 . S
H1548 C1572 0.950 . S
H1549 C1573 0.951 . S
H1550 C1575 0.951 . S
H1551 C1577 0.950 . S
H1552 C1578 0.950 . S
H1553 C1580 0.950 . S
H1554 C1583 0.950 . S
H1555 C1584 0.950 . S
H1556 C1586 0.950 . S
H1557 C1587 0.950 . S
C1558 H1540 0.951 . S
C1558 C1559 1.366 . S
C1558 C1560 1.388 . S
C1559 C1558 1.366 . S
C1559 C1563 1.385 . S
C1560 H1541 0.951 . S
C1560 C1558 1.388 . S
C1560 C1561 1.366 . S
C1561 C1560 1.366 . S
C1561 C1562 1.414 . S
C1561 C1564 1.499 . S
C1562 H1542 0.950 . S
C1562 C1561 1.414 . S
C1562 C1563 1.374 . S
C1563 H1543 0.950 . S
C1563 C1559 1.385 . S
C1563 C1562 1.374 . S
C1564 C1561 1.499 . S
C1564 C1565 1.373 . S
C1564 C1566 1.389 . S
C1565 H1544 0.950 . S
C1565 C1564 1.373 . S
C1565 C1581 1.377 . S
C1566 C1564 1.389 . S
C1566 C1567 1.524 . S
C1566 C1580 1.377 . S
C1567 C1566 1.524 . S
C1567 C1568 1.397 . S
C1567 C1572 1.363 . S
C1568 H1545 0.950 . S
C1568 C1567 1.397 . S
C1568 C1569 1.334 . S
C1569 H1546 0.950 . S
C1569 C1568 1.334 . S
C1569 C1570 1.287 . S
C1570 C1569 1.287 . S
C1570 C1571 1.524 . S
C1570 H1589 0.913 . S
C1571 H1547 0.950 . S
C1571 C1570 1.524 . S
C1571 C1572 1.415 . S
C1572 H1548 0.950 . S
C1572 C1567 1.363 . S
C1572 C1571 1.415 . S
C1573 H1549 0.951 . S
C1573 C1574 1.366 . S
C1573 C1575 1.388 . S
C1574 C1573 1.366 . S
C1574 C1578 1.385 . S
C1575 H1550 0.951 . S
C1575 C1573 1.388 . S
C1575 C1576 1.366 . S
C1576 C1575 1.366 . S
C1576 C1577 1.414 . S
C1576 C1579 1.499 . S
C1577 H1551 0.950 . S
C1577 C1576 1.414 . S
C1577 C1578 1.374 . S
C1578 H1552 0.950 . S
C1578 C1574 1.385 . S
C1578 C1577 1.374 . S
C1579 C1576 1.499 . S
C1579 C1580 1.373 . S
C1579 C1581 1.389 . S
C1580 H1553 0.950 . S
C1580 C1566 1.377 . S
C1580 C1579 1.373 . S
C1581 C1565 1.377 . S
C1581 C1579 1.389 . S
C1581 C1582 1.524 . S
C1582 C1581 1.524 . S
C1582 C1583 1.397 . S
C1582 C1587 1.363 . S
C1583 H1554 0.950 . S
C1583 C1582 1.397 . S
C1583 C1584 1.334 . S
C1584 H1555 0.950 . S
C1584 C1583 1.334 . S
C1584 C1585 1.287 . S
C1585 C1584 1.287 . S
C1585 C1586 1.524 . S
C1585 H1588 0.999 . S
C1586 H1556 0.950 . S
C1586 C1585 1.524 . S
C1586 C1587 1.415 . S
C1587 H1557 0.950 . S
C1587 C1582 1.363 . S
C1587 C1586 1.415 . S
H1588 C1585 0.999 . S
H1589 C1570 0.913 . S
H1590 C1608 0.951 . S
H1591 C1610 0.951 . S
H1592 C1612 0.950 . S
H1593 C1613 0.950 . S
H1594 C1615 0.950 . S
H1595 C1618 0.950 . S
H1596 C1619 0.950 . S
H1597 C1621 0.950 . S
H1598 C1622 0.950 . S
H1599 C1623 0.951 . S
H1600 C1625 0.951 . S
H1601 C1627 0.950 . S
H1602 C1628 0.950 . S
H1603 C1630 0.950 . S
H1604 C1633 0.950 . S
H1605 C1634 0.950 . S
H1606 C1636 0.950 . S
H1607 C1637 0.950 . S
C1608 H1590 0.951 . S
C1608 C1609 1.366 . S
C1608 C1610 1.388 . S
C1609 C1608 1.366 . S
C1609 C1613 1.385 . S
C1610 H1591 0.951 . S
C1610 C1608 1.388 . S
C1610 C1611 1.366 . S
C1611 C1610 1.366 . S
C1611 C1612 1.414 . S
C1611 C1614 1.499 . S
C1612 H1592 0.950 . S
C1612 C1611 1.414 . S
C1612 C1613 1.374 . S
C1613 H1593 0.950 . S
C1613 C1609 1.385 . S
C1613 C1612 1.374 . S
C1614 C1611 1.499 . S
C1614 C1615 1.373 . S
C1614 C1616 1.389 . S
C1615 H1594 0.950 . S
C1615 C1614 1.373 . S
C1615 C1631 1.377 . S
C1616 C1614 1.389 . S
C1616 C1617 1.524 . S
C1616 C1630 1.377 . S
C1617 C1616 1.524 . S
C1617 C1618 1.397 . S
C1617 C1622 1.363 . S
C1618 H1595 0.950 . S
C1618 C1617 1.397 . S
C1618 C1619 1.334 . S
C1619 H1596 0.950 . S
C1619 C1618 1.334 . S
C1619 C1620 1.287 . S
C1620 C1619 1.287 . S
C1620 C1621 1.524 . S
C1620 H1639 0.913 . S
C1621 H1597 0.950 . S
C1621 C1620 1.524 . S
C1621 C1622 1.415 . S
C1622 H1598 0.950 . S
C1622 C1617 1.363 . S
C1622 C1621 1.415 . S
C1623 H1599 0.951 . S
C1623 C1624 1.366 . S
C1623 C1625 1.388 . S
C1624 C1623 1.366 . S
C1624 C1628 1.385 . S
C1625 H1600 0.951 . S
C1625 C1623 1.388 . S
C1625 C1626 1.366 . S
C1626 C1625 1.366 . S
C1626 C1627 1.414 . S
C1626 C1629 1.499 . S
C1627 H1601 0.950 . S
C1627 C1626 1.414 . S
C1627 C1628 1.374 . S
C1628 H1602 0.950 . S
C1628 C1624 1.385 . S
C1628 C1627 1.374 . S
C1629 C1626 1.499 . S
C1629 C1630 1.373 . S
C1629 C1631 1.389 . S
C1630 H1603 0.950 . S
C1630 C1616 1.377 . S
C1630 C1629 1.373 . S
C1631 C1615 1.377 . S
C1631 C1629 1.389 . S
C1631 C1632 1.524 . S
C1632 C1631 1.524 . S
C1632 C1633 1.397 . S
C1632 C1637 1.363 . S
C1633 H1604 0.950 . S
C1633 C1632 1.397 . S
C1633 C1634 1.334 . S
C1634 H1605 0.950 . S
C1634 C1633 1.334 . S
C1634 C1635 1.287 . S
C1635 C1634 1.287 . S
C1635 C1636 1.524 . S
C1635 H1638 0.999 . S
C1636 H1606 0.950 . S
C1636 C1635 1.524 . S
C1636 C1637 1.415 . S
C1637 H1607 0.950 . S
C1637 C1632 1.363 . S
C1637 C1636 1.415 . S
H1638 C1635 0.999 . S
H1639 C1620 0.913 . S
H1640 C1658 0.951 . S
H1641 C1660 0.951 . S
H1642 C1662 0.950 . S
H1643 C1663 0.950 . S
H1644 C1665 0.950 . S
H1645 C1668 0.950 . S
H1646 C1669 0.950 . S
H1647 C1671 0.950 . S
H1648 C1672 0.950 . S
H1649 C1673 0.951 . S
H1650 C1675 0.951 . S
H1651 C1677 0.950 . S
H1652 C1678 0.950 . S
H1653 C1680 0.950 . S
H1654 C1683 0.950 . S
H1655 C1684 0.950 . S
H1656 C1686 0.950 . S
H1657 C1687 0.950 . S
C1658 H1640 0.951 . S
C1658 C1659 1.366 . S
C1658 C1660 1.388 . S
C1659 C1658 1.366 . S
C1659 C1663 1.385 . S
C1660 H1641 0.951 . S
C1660 C1658 1.388 . S
C1660 C1661 1.366 . S
C1661 C1660 1.366 . S
C1661 C1662 1.414 . S
C1661 C1664 1.499 . S
C1662 H1642 0.950 . S
C1662 C1661 1.414 . S
C1662 C1663 1.374 . S
C1663 H1643 0.950 . S
C1663 C1659 1.385 . S
C1663 C1662 1.374 . S
C1664 C1661 1.499 . S
C1664 C1665 1.373 . S
C1664 C1666 1.389 . S
C1665 H1644 0.950 . S
C1665 C1664 1.373 . S
C1665 C1681 1.377 . S
C1666 C1664 1.389 . S
C1666 C1667 1.524 . S
C1666 C1680 1.377 . S
C1667 C1666 1.524 . S
C1667 C1668 1.397 . S
C1667 C1672 1.363 . S
C1668 H1645 0.950 . S
C1668 C1667 1.397 . S
C1668 C1669 1.334 . S
C1669 H1646 0.950 . S
C1669 C1668 1.334 . S
C1669 C1670 1.287 . S
C1670 C1669 1.287 . S
C1670 C1671 1.524 . S
C1670 H1689 0.913 . S
C1671 H1647 0.950 . S
C1671 C1670 1.524 . S
C1671 C1672 1.415 . S
C1672 H1648 0.950 . S
C1672 C1667 1.363 . S
C1672 C1671 1.415 . S
C1673 H1649 0.951 . S
C1673 C1674 1.366 . S
C1673 C1675 1.388 . S
C1674 C1673 1.366 . S
C1674 C1678 1.385 . S
C1675 H1650 0.951 . S
C1675 C1673 1.388 . S
C1675 C1676 1.366 . S
C1676 C1675 1.366 . S
C1676 C1677 1.414 . S
C1676 C1679 1.499 . S
C1677 H1651 0.950 . S
C1677 C1676 1.414 . S
C1677 C1678 1.374 . S
C1678 H1652 0.950 . S
C1678 C1674 1.385 . S
C1678 C1677 1.374 . S
C1679 C1676 1.499 . S
C1679 C1680 1.373 . S
C1679 C1681 1.389 . S
C1680 H1653 0.950 . S
C1680 C1666 1.377 . S
C1680 C1679 1.373 . S
C1681 C1665 1.377 . S
C1681 C1679 1.389 . S
C1681 C1682 1.524 . S
C1682 C1681 1.524 . S
C1682 C1683 1.397 . S
C1682 C1687 1.363 . S
C1683 H1654 0.950 . S
C1683 C1682 1.397 . S
C1683 C1684 1.334 . S
C1684 H1655 0.950 . S
C1684 C1683 1.334 . S
C1684 C1685 1.287 . S
C1685 C1684 1.287 . S
C1685 C1686 1.524 . S
C1685 H1688 0.999 . S
C1686 H1656 0.950 . S
C1686 C1685 1.524 . S
C1686 C1687 1.415 . S
C1687 H1657 0.950 . S
C1687 C1682 1.363 . S
C1687 C1686 1.415 . S
H1688 C1685 0.999 . S
H1689 C1670 0.913 . S
H1690 C1708 0.951 . S
H1691 C1710 0.951 . S
H1692 C1712 0.950 . S
H1693 C1713 0.950 . S
H1694 C1715 0.929 1_455 S
H1695 C1718 0.950 . S
H1696 C1719 0.950 . S
H1697 C1721 0.950 . S
H1698 C1722 0.950 . S
H1699 C1723 0.951 . S
H1700 C1725 0.951 . S
H1701 C1727 0.950 . S
H1702 C1728 0.950 . S
H1703 C1730 0.950 . S
H1704 C1733 0.950 . S
H1705 C1734 0.950 . S
H1706 C1736 0.950 . S
H1707 C1737 0.950 . S
C1708 H1690 0.951 . S
C1708 C1709 1.366 . S
C1708 C1710 1.388 . S
C1709 C1708 1.366 . S
C1709 C1713 1.385 . S
C1710 H1691 0.951 . S
C1710 C1708 1.388 . S
C1710 C1711 1.366 . S
C1711 C1710 1.366 . S
C1711 C1712 1.414 . S
C1711 C1714 1.499 . S
C1712 H1692 0.950 . S
C1712 C1711 1.414 . S
C1712 C1713 1.374 . S
C1713 H1693 0.950 . S
C1713 C1709 1.385 . S
C1713 C1712 1.374 . S
C1714 C1711 1.499 . S
C1714 C1715 1.384 . S
C1714 C1716 1.389 . S
C1715 H1694 0.929 1_655 S
C1715 C1714 1.384 . S
C1715 C1731 1.392 1_655 S
C1716 C1714 1.389 . S
C1716 C1717 1.524 . S
C1716 C1730 1.377 . S
C1717 C1716 1.524 . S
C1717 C1718 1.397 . S
C1717 C1722 1.363 . S
C1718 H1695 0.950 . S
C1718 C1717 1.397 . S
C1718 C1719 1.334 . S
C1719 H1696 0.950 . S
C1719 C1718 1.334 . S
C1719 C1720 1.287 . S
C1720 C1719 1.287 . S
C1720 C1721 1.524 . S
C1720 H1739 0.913 . S
C1721 H1697 0.950 . S
C1721 C1720 1.524 . S
C1721 C1722 1.415 . S
C1722 H1698 0.950 . S
C1722 C1717 1.363 . S
C1722 C1721 1.415 . S
C1723 H1699 0.951 . S
C1723 C1724 1.366 . S
C1723 C1725 1.388 . S
C1724 C1723 1.366 . S
C1724 C1728 1.385 . S
C1725 H1700 0.951 . S
C1725 C1723 1.388 . S
C1725 C1726 1.366 . S
C1726 C1725 1.366 . S
C1726 C1727 1.414 . S
C1726 C1729 1.499 . S
C1727 H1701 0.950 . S
C1727 C1726 1.414 . S
C1727 C1728 1.374 . S
C1728 H1702 0.950 . S
C1728 C1724 1.385 . S
C1728 C1727 1.374 . S
C1729 C1726 1.499 . S
C1729 C1730 1.373 . S
C1729 C1731 1.382 1_655 S
C1730 H1703 0.950 . S
C1730 C1716 1.377 . S
C1730 C1729 1.373 . S
C1731 C1715 1.392 1_455 S
C1731 C1729 1.382 1_455 S
C1731 C1732 1.529 . S
C1732 C1731 1.529 . S
C1732 C1733 1.397 . S
C1732 C1737 1.363 . S
C1733 H1704 0.950 . S
C1733 C1732 1.397 . S
C1733 C1734 1.334 . S
C1734 H1705 0.950 . S
C1734 C1733 1.334 . S
C1734 C1735 1.287 . S
C1735 C1734 1.287 . S
C1735 C1736 1.524 . S
C1735 H1738 0.999 . S
C1736 H1706 0.950 . S
C1736 C1735 1.524 . S
C1736 C1737 1.415 . S
C1737 H1707 0.950 . S
C1737 C1732 1.363 . S
C1737 C1736 1.415 . S
H1738 C1735 0.999 . S
H1739 C1720 0.913 . S
H1740 C1758 0.951 . S
H1741 C1760 0.951 . S
H1742 C1762 0.950 . S
H1743 C1763 0.950 . S
H1744 C1765 0.950 . S
H1745 C1768 0.950 . S
H1746 C1769 0.950 . S
H1747 C1771 0.950 . S
H1748 C1772 0.950 . S
H1749 C1773 0.951 . S
H1750 C1775 0.951 . S
H1751 C1777 0.950 . S
H1752 C1778 0.950 . S
H1753 C1780 0.950 . S
H1754 C1783 0.950 . S
H1755 C1784 0.950 . S
H1756 C1786 0.950 . S
H1757 C1787 0.950 . S
C1758 H1740 0.951 . S
C1758 C1759 1.366 . S
C1758 C1760 1.388 . S
C1759 C1758 1.366 . S
C1759 C1763 1.385 . S
C1760 H1741 0.951 . S
C1760 C1758 1.388 . S
C1760 C1761 1.366 . S
C1761 C1760 1.366 . S
C1761 C1762 1.414 . S
C1761 C1764 1.499 . S
C1762 H1742 0.950 . S
C1762 C1761 1.414 . S
C1762 C1763 1.374 . S
C1763 H1743 0.950 . S
C1763 C1759 1.385 . S
C1763 C1762 1.374 . S
C1764 C1761 1.499 . S
C1764 C1765 1.373 . S
C1764 C1766 1.389 . S
C1765 H1744 0.950 . S
C1765 C1764 1.373 . S
C1765 C1781 1.377 . S
C1766 C1764 1.389 . S
C1766 C1767 1.524 . S
C1766 C1780 1.377 . S
C1767 C1766 1.524 . S
C1767 C1768 1.397 . S
C1767 C1772 1.363 . S
C1768 H1745 0.950 . S
C1768 C1767 1.397 . S
C1768 C1769 1.334 . S
C1769 H1746 0.950 . S
C1769 C1768 1.334 . S
C1769 C1770 1.287 . S
C1770 C1769 1.287 . S
C1770 C1771 1.524 . S
C1770 H1789 0.913 . S
C1771 H1747 0.950 . S
C1771 C1770 1.524 . S
C1771 C1772 1.415 . S
C1772 H1748 0.950 . S
C1772 C1767 1.363 . S
C1772 C1771 1.415 . S
C1773 H1749 0.951 . S
C1773 C1774 1.366 . S
C1773 C1775 1.388 . S
C1774 C1773 1.366 . S
C1774 C1778 1.385 . S
C1775 H1750 0.951 . S
C1775 C1773 1.388 . S
C1775 C1776 1.366 . S
C1776 C1775 1.366 . S
C1776 C1777 1.414 . S
C1776 C1779 1.499 . S
C1777 H1751 0.950 . S
C1777 C1776 1.414 . S
C1777 C1778 1.374 . S
C1778 H1752 0.950 . S
C1778 C1774 1.385 . S
C1778 C1777 1.374 . S
C1779 C1776 1.499 . S
C1779 C1780 1.373 . S
C1779 C1781 1.389 . S
C1780 H1753 0.950 . S
C1780 C1766 1.377 . S
C1780 C1779 1.373 . S
C1781 C1765 1.377 . S
C1781 C1779 1.389 . S
C1781 C1782 1.524 . S
C1782 C1781 1.524 . S
C1782 C1783 1.397 . S
C1782 C1787 1.363 . S
C1783 H1754 0.950 . S
C1783 C1782 1.397 . S
C1783 C1784 1.334 . S
C1784 H1755 0.950 . S
C1784 C1783 1.334 . S
C1784 C1785 1.287 . S
C1785 C1784 1.287 . S
C1785 C1786 1.524 . S
C1785 H1788 0.999 . S
C1786 H1756 0.950 . S
C1786 C1785 1.524 . S
C1786 C1787 1.415 . S
C1787 H1757 0.950 . S
C1787 C1782 1.363 . S
C1787 C1786 1.415 . S
H1788 C1785 0.999 . S
H1789 C1770 0.913 . S
H1790 C1808 0.951 . S
H1791 C1810 0.951 . S
H1792 C1812 0.950 . S
H1793 C1813 0.950 . S
H1794 C1815 0.950 . S
H1795 C1818 0.950 . S
H1796 C1819 0.950 . S
H1797 C1821 0.950 . S
H1798 C1822 0.950 . S
H1799 C1823 0.951 . S
H1800 C1825 0.951 . S
H1801 C1827 0.950 . S
H1802 C1828 0.950 . S
H1803 C1830 0.950 . S
H1804 C1833 0.950 . S
H1805 C1834 0.950 . S
H1806 C1836 0.950 . S
H1807 C1837 0.950 . S
C1808 H1790 0.951 . S
C1808 C1809 1.366 . S
C1808 C1810 1.388 . S
C1809 C1808 1.366 . S
C1809 C1813 1.385 . S
C1810 H1791 0.951 . S
C1810 C1808 1.388 . S
C1810 C1811 1.366 . S
C1811 C1810 1.366 . S
C1811 C1812 1.414 . S
C1811 C1814 1.499 . S
C1812 H1792 0.950 . S
C1812 C1811 1.414 . S
C1812 C1813 1.374 . S
C1813 H1793 0.950 . S
C1813 C1809 1.385 . S
C1813 C1812 1.374 . S
C1814 C1811 1.499 . S
C1814 C1815 1.373 . S
C1814 C1816 1.389 . S
C1815 H1794 0.950 . S
C1815 C1814 1.373 . S
C1815 C1831 1.377 . S
C1816 C1814 1.389 . S
C1816 C1817 1.524 . S
C1816 C1830 1.377 . S
C1817 C1816 1.524 . S
C1817 C1818 1.397 . S
C1817 C1822 1.363 . S
C1818 H1795 0.950 . S
C1818 C1817 1.397 . S
C1818 C1819 1.334 . S
C1819 H1796 0.950 . S
C1819 C1818 1.334 . S
C1819 C1820 1.287 . S
C1820 C1819 1.287 . S
C1820 C1821 1.524 . S
C1820 H1839 0.913 . S
C1821 H1797 0.950 . S
C1821 C1820 1.524 . S
C1821 C1822 1.415 . S
C1822 H1798 0.950 . S
C1822 C1817 1.363 . S
C1822 C1821 1.415 . S
C1823 H1799 0.951 . S
C1823 C1824 1.366 . S
C1823 C1825 1.388 . S
C1824 C1823 1.366 . S
C1824 C1828 1.385 . S
C1825 H1800 0.951 . S
C1825 C1823 1.388 . S
C1825 C1826 1.366 . S
C1826 C1825 1.366 . S
C1826 C1827 1.414 . S
C1826 C1829 1.499 . S
C1827 H1801 0.950 . S
C1827 C1826 1.414 . S
C1827 C1828 1.374 . S
C1828 H1802 0.950 . S
C1828 C1824 1.385 . S
C1828 C1827 1.374 . S
C1829 C1826 1.499 . S
C1829 C1830 1.373 . S
C1829 C1831 1.389 . S
C1830 H1803 0.950 . S
C1830 C1816 1.377 . S
C1830 C1829 1.373 . S
C1831 C1815 1.377 . S
C1831 C1829 1.389 . S
C1831 C1832 1.524 . S
C1832 C1831 1.524 . S
C1832 C1833 1.397 . S
C1832 C1837 1.363 . S
C1833 H1804 0.950 . S
C1833 C1832 1.397 . S
C1833 C1834 1.334 1_554 S
C1834 H1805 0.950 . S
C1834 C1833 1.334 1_556 S
C1834 C1835 1.287 . S
C1835 C1834 1.287 . S
C1835 C1836 1.524 1_556 S
C1835 H1838 0.999 . S
C1836 H1806 0.950 . S
C1836 C1835 1.524 1_554 S
C1836 C1837 1.415 . S
C1837 H1807 0.950 . S
C1837 C1832 1.363 . S
C1837 C1836 1.415 . S
H1838 C1835 0.999 . S
H1839 C1820 0.913 . S
H1840 C1858 0.951 . S
H1841 C1860 0.951 . S
H1842 C1862 0.950 . S
H1843 C1863 0.950 . S
H1844 C1865 0.950 . S
H1845 C1868 0.950 . S
H1846 C1869 0.950 . S
H1847 C1871 0.950 . S
H1848 C1872 0.950 . S
H1849 C1873 0.951 . S
H1850 C1875 0.951 . S
H1851 C1877 0.950 . S
H1852 C1878 0.950 . S
H1853 C1880 0.950 . S
H1854 C1883 0.950 . S
H1855 C1884 0.950 . S
H1856 C1886 0.950 . S
H1857 C1887 0.950 . S
C1858 H1840 0.951 . S
C1858 C1859 1.366 . S
C1858 C1860 1.388 . S
C1859 C1858 1.366 . S
C1859 C1863 1.385 . S
C1860 H1841 0.951 . S
C1860 C1858 1.388 . S
C1860 C1861 1.366 . S
C1861 C1860 1.366 . S
C1861 C1862 1.414 . S
C1861 C1864 1.499 . S
C1862 H1842 0.950 . S
C1862 C1861 1.414 . S
C1862 C1863 1.374 . S
C1863 H1843 0.950 . S
C1863 C1859 1.385 . S
C1863 C1862 1.374 . S
C1864 C1861 1.499 . S
C1864 C1865 1.373 . S
C1864 C1866 1.389 . S
C1865 H1844 0.950 . S
C1865 C1864 1.373 . S
C1865 C1881 1.377 . S
C1866 C1864 1.389 . S
C1866 C1867 1.524 . S
C1866 C1880 1.377 . S
C1867 C1866 1.524 . S
C1867 C1868 1.397 . S
C1867 C1872 1.363 . S
C1868 H1845 0.950 . S
C1868 C1867 1.397 . S
C1868 C1869 1.334 . S
C1869 H1846 0.950 . S
C1869 C1868 1.334 . S
C1869 C1870 1.287 . S
C1870 C1869 1.287 . S
C1870 C1871 1.524 . S
C1870 H1889 0.913 . S
C1871 H1847 0.950 . S
C1871 C1870 1.524 . S
C1871 C1872 1.415 . S
C1872 H1848 0.950 . S
C1872 C1867 1.363 . S
C1872 C1871 1.415 . S
C1873 H1849 0.951 . S
C1873 C1874 1.366 . S
C1873 C1875 1.388 . S
C1874 C1873 1.366 . S
C1874 C1878 1.385 . S
C1875 H1850 0.951 . S
C1875 C1873 1.388 . S
C1875 C1876 1.366 . S
C1876 C1875 1.366 . S
C1876 C1877 1.414 . S
C1876 C1879 1.499 . S
C1877 H1851 0.950 . S
C1877 C1876 1.414 . S
C1877 C1878 1.374 . S
C1878 H1852 0.950 . S
C1878 C1874 1.385 . S
C1878 C1877 1.374 . S
C1879 C1876 1.499 . S
C1879 C1880 1.373 . S
C1879 C1881 1.389 . S
C1880 H1853 0.950 . S
C1880 C1866 1.377 . S
C1880 C1879 1.373 . S
C1881 C1865 1.377 . S
C1881 C1879 1.389 . S
C1881 C1882 1.524 . S
C1882 C1881 1.524 . S
C1882 C1883 1.397 . S
C1882 C1887 1.363 . S
C1883 H1854 0.950 . S
C1883 C1882 1.397 . S
C1883 C1884 1.334 . S
C1884 H1855 0.950 . S
C1884 C1883 1.334 . S
C1884 C1885 1.287 . S
C1885 C1884 1.287 . S
C1885 C1886 1.524 . S
C1885 H1888 0.999 . S
C1886 H1856 0.950 . S
C1886 C1885 1.524 . S
C1886 C1887 1.415 . S
C1887 H1857 0.950 . S
C1887 C1882 1.363 . S
C1887 C1886 1.415 . S
H1888 C1885 0.999 . S
H1889 C1870 0.913 . S
H1890 C1908 0.951 . S
H1891 C1910 0.951 . S
H1892 C1912 0.950 . S
H1893 C1913 0.950 . S
H1894 C1915 0.950 . S
H1895 C1918 0.950 . S
H1896 C1919 0.950 . S
H1897 C1921 0.950 . S
H1898 C1922 0.950 . S
H1899 C1923 0.951 . S
H1900 C1925 0.951 . S
H1901 C1927 0.950 . S
H1902 C1928 0.950 . S
H1903 C1930 0.950 . S
H1904 C1933 0.950 . S
H1905 C1934 0.950 . S
H1906 C1936 0.950 . S
H1907 C1937 0.950 . S
C1908 H1890 0.951 . S
C1908 C1909 1.366 . S
C1908 C1910 1.388 . S
C1909 C1908 1.366 . S
C1909 C1913 1.385 . S
C1910 H1891 0.951 . S
C1910 C1908 1.388 . S
C1910 C1911 1.366 . S
C1911 C1910 1.366 . S
C1911 C1912 1.414 . S
C1911 C1914 1.499 . S
C1912 H1892 0.950 . S
C1912 C1911 1.414 . S
C1912 C1913 1.374 . S
C1913 H1893 0.950 . S
C1913 C1909 1.385 . S
C1913 C1912 1.374 . S
C1914 C1911 1.499 . S
C1914 C1915 1.373 . S
C1914 C1916 1.389 . S
C1915 H1894 0.950 . S
C1915 C1914 1.373 . S
C1915 C1931 1.377 . S
C1916 C1914 1.389 . S
C1916 C1917 1.524 . S
C1916 C1930 1.377 . S
C1917 C1916 1.524 . S
C1917 C1918 1.397 . S
C1917 C1922 1.363 . S
C1918 H1895 0.950 . S
C1918 C1917 1.397 . S
C1918 C1919 1.334 . S
C1919 H1896 0.950 . S
C1919 C1918 1.334 . S
C1919 C1920 1.287 . S
C1920 C1919 1.287 . S
C1920 C1921 1.524 . S
C1920 H1939 0.913 . S
C1921 H1897 0.950 . S
C1921 C1920 1.524 . S
C1921 C1922 1.415 . S
C1922 H1898 0.950 . S
C1922 C1917 1.363 . S
C1922 C1921 1.415 . S
C1923 H1899 0.951 . S
C1923 C1924 1.366 . S
C1923 C1925 1.388 . S
C1924 C1923 1.366 . S
C1924 C1928 1.385 . S
C1925 H1900 0.951 . S
C1925 C1923 1.388 . S
C1925 C1926 1.366 . S
C1926 C1925 1.366 . S
C1926 C1927 1.414 . S
C1926 C1929 1.499 . S
C1927 H1901 0.950 . S
C1927 C1926 1.414 . S
C1927 C1928 1.374 . S
C1928 H1902 0.950 . S
C1928 C1924 1.385 . S
C1928 C1927 1.374 . S
C1929 C1926 1.499 . S
C1929 C1930 1.373 . S
C1929 C1931 1.389 . S
C1930 H1903 0.950 . S
C1930 C1916 1.377 . S
C1930 C1929 1.373 . S
C1931 C1915 1.377 . S
C1931 C1929 1.389 . S
C1931 C1932 1.524 . S
C1932 C1931 1.524 . S
C1932 C1933 1.397 . S
C1932 C1937 1.363 . S
C1933 H1904 0.950 . S
C1933 C1932 1.397 . S
C1933 C1934 1.334 . S
C1934 H1905 0.950 . S
C1934 C1933 1.334 . S
C1934 C1935 1.287 . S
C1935 C1934 1.287 . S
C1935 C1936 1.524 . S
C1935 H1938 0.999 . S
C1936 H1906 0.950 . S
C1936 C1935 1.524 . S
C1936 C1937 1.415 . S
C1937 H1907 0.950 . S
C1937 C1932 1.363 . S
C1937 C1936 1.415 . S
H1938 C1935 0.999 . S
H1939 C1920 0.913 . S
H1940 C1958 0.951 . S
H1941 C1960 0.951 . S
H1942 C1962 0.950 . S
H1943 C1963 0.950 . S
H1944 C1965 0.950 1_565 S
H1945 C1968 0.950 . S
H1946 C1969 0.950 . S
H1947 C1971 0.950 . S
H1948 C1972 0.950 . S
H1949 C1973 0.951 . S
H1950 C1975 0.951 . S
H1951 C1977 0.950 1_565 S
H1952 C1978 0.950 . S
H1953 C1980 0.950 . S
H1954 C1983 0.950 . S
H1955 C1984 0.950 . S
H1956 C1986 0.962 . S
H1957 C1987 0.950 . S
C1958 H1940 0.951 . S
C1958 C1959 1.366 . S
C1958 C1960 1.388 . S
C1959 C1958 1.366 . S
C1959 C1963 1.385 1_565 S
C1960 H1941 0.951 . S
C1960 C1958 1.388 . S
C1960 C1961 1.366 1_565 S
C1961 C1960 1.366 1_545 S
C1961 C1962 1.414 . S
C1961 C1964 1.499 . S
C1962 H1942 0.950 . S
C1962 C1961 1.414 . S
C1962 C1963 1.374 . S
C1963 H1943 0.950 . S
C1963 C1959 1.385 1_545 S
C1963 C1962 1.374 . S
C1964 C1961 1.499 . S
C1964 C1965 1.373 . S
C1964 C1966 1.389 . S
C1965 H1944 0.950 1_545 S
C1965 C1964 1.373 . S
C1965 C1981 1.377 . S
C1966 C1964 1.389 . S
C1966 C1967 1.524 . S
C1966 C1980 1.377 . S
C1967 C1966 1.524 . S
C1967 C1968 1.397 . S
C1967 C1972 1.363 . S
C1968 H1945 0.950 . S
C1968 C1967 1.397 . S
C1968 C1969 1.334 . S
C1969 H1946 0.950 . S
C1969 C1968 1.334 . S
C1969 C1970 1.287 . S
C1970 C1969 1.287 . S
C1970 C1971 1.524 . S
C1970 H1989 0.913 . S
C1971 H1947 0.950 . S
C1971 C1970 1.524 . S
C1971 C1972 1.415 . S
C1972 H1948 0.950 . S
C1972 C1967 1.363 . S
C1972 C1971 1.415 . S
C1973 H1949 0.951 . S
C1973 C1974 1.366 . S
C1973 C1975 1.388 . S
C1974 C1973 1.366 . S
C1974 C1978 1.385 . S
C1975 H1950 0.951 . S
C1975 C1973 1.388 . S
C1975 C1976 1.366 . S
C1976 C1975 1.366 . S
C1976 C1977 1.414 . S
C1976 C1979 1.499 . S
C1977 H1951 0.950 1_545 S
C1977 C1976 1.414 . S
C1977 C1978 1.374 . S
C1978 H1952 0.950 . S
C1978 C1974 1.385 . S
C1978 C1977 1.374 . S
C1979 C1976 1.499 . S
C1979 C1980 1.373 . S
C1979 C1981 1.389 . S
C1980 H1953 0.950 . S
C1980 C1966 1.377 . S
C1980 C1979 1.373 . S
C1981 C1965 1.377 . S
C1981 C1979 1.389 . S
C1981 C1982 1.524 1_545 S
C1982 C1981 1.524 1_565 S
C1982 C1983 1.397 . S
C1982 C1987 1.363 1_565 S
C1983 H1954 0.950 . S
C1983 C1982 1.397 . S
C1983 C1984 1.334 . S
C1984 H1955 0.950 . S
C1984 C1983 1.334 . S
C1984 C1985 1.287 . S
C1985 C1984 1.287 . S
C1985 C1986 1.524 . S
C1985 H1988 0.999 . S
C1986 H1956 0.962 . S
C1986 C1985 1.524 . S
C1986 C1987 1.415 1_565 S
C1987 H1957 0.950 . S
C1987 C1982 1.363 1_545 S
C1987 C1986 1.415 1_545 S
H1988 C1985 0.999 . S
H1989 C1970 0.913 . S
H1990 C2008 0.951 . S
H1991 C2010 0.951 . S
H1992 C2012 0.950 . S
H1993 C2013 0.950 . S
H1994 C2015 0.950 1_556 S
H1995 C2018 0.950 . S
H1996 C2019 0.950 . S
H1997 C2021 0.950 . S
H1998 C2022 0.950 . S
H1999 C2023 0.951 . S
H2000 C2025 0.951 . S
H2001 C2027 0.950 . S
H2002 C2028 0.950 . S
H2003 C2030 0.950 . S
H2004 C2033 0.950 . S
H2005 C2034 0.950 . S
H2006 C2036 0.950 . S
H2007 C2037 0.950 . S
C2008 H1990 0.951 . S
C2008 C2009 1.366 . S
C2008 C2010 1.388 . S
C2009 C2008 1.366 . S
C2009 C2013 1.385 . S
C2010 H1991 0.951 . S
C2010 C2008 1.388 . S
C2010 C2011 1.366 . S
C2011 C2010 1.366 . S
C2011 C2012 1.414 . S
C2011 C2014 1.499 . S
C2012 H1992 0.950 . S
C2012 C2011 1.414 . S
C2012 C2013 1.374 . S
C2013 H1993 0.950 . S
C2013 C2009 1.385 . S
C2013 C2012 1.374 . S
C2014 C2011 1.499 . S
C2014 C2015 1.373 . S
C2014 C2016 1.389 . S
C2015 H1994 0.950 1_554 S
C2015 C2014 1.373 . S
C2015 C2031 1.377 . S
C2016 C2014 1.389 . S
C2016 C2017 1.524 . S
C2016 C2030 1.377 . S
C2017 C2016 1.524 . S
C2017 C2018 1.397 . S
C2017 C2022 1.363 . S
C2018 H1995 0.950 . S
C2018 C2017 1.397 . S
C2018 C2019 1.334 . S
C2019 H1996 0.950 . S
C2019 C2018 1.334 . S
C2019 C2020 1.287 . S
C2020 C2019 1.287 . S
C2020 C2021 1.524 . S
C2020 H2039 0.913 . S
C2021 H1997 0.950 . S
C2021 C2020 1.524 . S
C2021 C2022 1.415 . S
C2022 H1998 0.950 . S
C2022 C2017 1.363 . S
C2022 C2021 1.415 . S
C2023 H1999 0.951 . S
C2023 C2024 1.366 . S
C2023 C2025 1.388 . S
C2024 C2023 1.366 . S
C2024 C2028 1.385 . S
C2025 H2000 0.951 . S
C2025 C2023 1.388 . S
C2025 C2026 1.366 . S
C2026 C2025 1.366 . S
C2026 C2027 1.414 . S
C2026 C2029 1.499 . S
C2027 H2001 0.950 . S
C2027 C2026 1.414 . S
C2027 C2028 1.374 . S
C2028 H2002 0.950 . S
C2028 C2024 1.385 . S
C2028 C2027 1.374 . S
C2029 C2026 1.499 . S
C2029 C2030 1.373 . S
C2029 C2031 1.389 . S
C2030 H2003 0.950 . S
C2030 C2016 1.377 . S
C2030 C2029 1.373 . S
C2031 C2015 1.377 . S
C2031 C2029 1.389 . S
C2031 C2032 1.524 1_554 S
C2032 C2031 1.524 1_556 S
C2032 C2033 1.397 . S
C2032 C2037 1.363 . S
C2033 H2004 0.950 . S
C2033 C2032 1.397 . S
C2033 C2034 1.334 . S
C2034 H2005 0.950 . S
C2034 C2033 1.334 . S
C2034 C2035 1.287 . S
C2035 C2034 1.287 . S
C2035 C2036 1.524 . S
C2035 H2038 0.999 . S
C2036 H2006 0.950 . S
C2036 C2035 1.524 . S
C2036 C2037 1.415 . S
C2037 H2007 0.950 . S
C2037 C2032 1.363 . S
C2037 C2036 1.415 . S
H2038 C2035 0.999 . S
H2039 C2020 0.913 . S
H2040 C2058 0.951 . S
H2041 C2060 0.951 . S
H2042 C2062 0.950 . S
H2043 C2063 0.950 . S
H2044 C2065 0.950 . S
H2045 C2068 0.950 . S
H2046 C2069 0.950 . S
H2047 C2071 0.950 . S
H2048 C2072 0.950 . S
H2049 C2073 0.951 . S
H2050 C2075 0.951 . S
H2051 C2077 0.950 . S
H2052 C2078 0.950 . S
H2053 C2080 0.950 . S
H2054 C2083 0.950 . S
H2055 C2084 0.950 . S
H2056 C2086 0.950 . S
H2057 C2087 0.950 . S
C2058 H2040 0.951 . S
C2058 C2059 1.366 . S
C2058 C2060 1.388 . S
C2059 C2058 1.366 . S
C2059 C2063 1.385 . S
C2060 H2041 0.951 . S
C2060 C2058 1.388 . S
C2060 C2061 1.366 . S
C2061 C2060 1.366 . S
C2061 C2062 1.414 . S
C2061 C2064 1.499 . S
C2062 H2042 0.950 . S
C2062 C2061 1.414 . S
C2062 C2063 1.374 . S
C2063 H2043 0.950 . S
C2063 C2059 1.385 . S
C2063 C2062 1.374 . S
C2064 C2061 1.499 . S
C2064 C2065 1.373 . S
C2064 C2066 1.389 . S
C2065 H2044 0.950 . S
C2065 C2064 1.373 . S
C2065 C2081 1.377 . S
C2066 C2064 1.389 . S
C2066 C2067 1.524 . S
C2066 C2080 1.377 . S
C2067 C2066 1.524 . S
C2067 C2068 1.397 . S
C2067 C2072 1.363 . S
C2068 H2045 0.950 . S
C2068 C2067 1.397 . S
C2068 C2069 1.334 . S
C2069 H2046 0.950 . S
C2069 C2068 1.334 . S
C2069 C2070 1.287 . S
C2070 C2069 1.287 . S
C2070 C2071 1.524 . S
C2070 H2089 0.913 . S
C2071 H2047 0.950 . S
C2071 C2070 1.524 . S
C2071 C2072 1.415 . S
C2072 H2048 0.950 . S
C2072 C2067 1.363 . S
C2072 C2071 1.415 . S
C2073 H2049 0.951 . S
C2073 C2074 1.366 . S
C2073 C2075 1.388 . S
C2074 C2073 1.366 . S
C2074 C2078 1.385 . S
C2075 H2050 0.951 . S
C2075 C2073 1.388 . S
C2075 C2076 1.366 . S
C2076 C2075 1.366 . S
C2076 C2077 1.414 . S
C2076 C2079 1.499 . S
C2077 H2051 0.950 . S
C2077 C2076 1.414 . S
C2077 C2078 1.374 . S
C2078 H2052 0.950 . S
C2078 C2074 1.385 . S
C2078 C2077 1.374 . S
C2079 C2076 1.499 . S
C2079 C2080 1.373 . S
C2079 C2081 1.389 . S
C2080 H2053 0.950 . S
C2080 C2066 1.377 . S
C2080 C2079 1.373 . S
C2081 C2065 1.377 . S
C2081 C2079 1.389 . S
C2081 C2082 1.524 . S
C2082 C2081 1.524 . S
C2082 C2083 1.397 . S
C2082 C2087 1.363 . S
C2083 H2054 0.950 . S
C2083 C2082 1.397 . S
C2083 C2084 1.334 . S
C2084 H2055 0.950 . S
C2084 C2083 1.334 . S
C2084 C2085 1.287 . S
C2085 C2084 1.287 . S
C2085 C2086 1.524 . S
C2085 H2088 0.999 . S
C2086 H2056 0.950 . S
C2086 C2085 1.524 . S
C2086 C2087 1.415 . S
C2087 H2057 0.950 . S
C2087 C2082 1.363 . S
C2087 C2086 1.415 . S
H2088 C2085 0.999 . S
H2089 C2070 0.913 . S
H2090 C2108 0.951 . S
H2091 C2110 0.951 . S
H2092 C2112 0.950 . S
H2093 C2113 0.950 . S
H2094 C2115 0.950 . S
H2095 C2118 0.950 . S
H2096 C2119 0.950 . S
H2097 C2121 0.950 . S
H2098 C2122 0.950 . S
H2099 C2123 0.951 . S
H2100 C2125 0.951 . S
H2101 C2127 0.950 . S
H2102 C2128 0.950 . S
H2103 C2130 0.950 . S
H2104 C2133 0.950 . S
H2105 C2134 0.950 . S
H2106 C2136 0.950 . S
H2107 C2137 0.950 . S
C2108 H2090 0.951 . S
C2108 C2109 1.366 . S
C2108 C2110 1.388 . S
C2109 C2108 1.366 . S
C2109 C2113 1.385 . S
C2110 H2091 0.951 . S
C2110 C2108 1.388 . S
C2110 C2111 1.366 . S
C2111 C2110 1.366 . S
C2111 C2112 1.414 . S
C2111 C2114 1.499 . S
C2112 H2092 0.950 . S
C2112 C2111 1.414 . S
C2112 C2113 1.374 . S
C2113 H2093 0.950 . S
C2113 C2109 1.385 . S
C2113 C2112 1.374 . S
C2114 C2111 1.499 . S
C2114 C2115 1.373 . S
C2114 C2116 1.389 . S
C2115 H2094 0.950 . S
C2115 C2114 1.373 . S
C2115 C2131 1.377 . S
C2116 C2114 1.389 . S
C2116 C2117 1.524 . S
C2116 C2130 1.377 . S
C2117 C2116 1.524 . S
C2117 C2118 1.397 . S
C2117 C2122 1.363 . S
C2118 H2095 0.950 . S
C2118 C2117 1.397 . S
C2118 C2119 1.334 . S
C2119 H2096 0.950 . S
C2119 C2118 1.334 . S
C2119 C2120 1.287 . S
C2120 C2119 1.287 . S
C2120 C2121 1.524 . S
C2120 H2139 0.913 . S
C2121 H2097 0.950 . S
C2121 C2120 1.524 . S
C2121 C2122 1.415 . S
C2122 H2098 0.950 . S
C2122 C2117 1.363 . S
C2122 C2121 1.415 . S
C2123 H2099 0.951 . S
C2123 C2124 1.366 . S
C2123 C2125 1.388 . S
C2124 C2123 1.366 . S
C2124 C2128 1.385 . S
C2125 H2100 0.951 . S
C2125 C2123 1.388 . S
C2125 C2126 1.366 . S
C2126 C2125 1.366 . S
C2126 C2127 1.414 . S
C2126 C2129 1.499 . S
C2127 H2101 0.950 . S
C2127 C2126 1.414 . S
C2127 C2128 1.374 . S
C2128 H2102 0.950 . S
C2128 C2124 1.385 . S
C2128 C2127 1.374 . S
C2129 C2126 1.499 . S
C2129 C2130 1.373 . S
C2129 C2131 1.389 . S
C2130 H2103 0.950 . S
C2130 C2116 1.377 . S
C2130 C2129 1.373 . S
C2131 C2115 1.377 . S
C2131 C2129 1.389 . S
C2131 C2132 1.524 . S
C2132 C2131 1.524 . S
C2132 C2133 1.397 . S
C2132 C2137 1.363 . S
C2133 H2104 0.950 . S
C2133 C2132 1.397 . S
C2133 C2134 1.334 . S
C2134 H2105 0.950 . S
C2134 C2133 1.334 . S
C2134 C2135 1.287 . S
C2135 C2134 1.287 . S
C2135 C2136 1.524 . S
C2135 H2138 0.999 . S
C2136 H2106 0.950 . S
C2136 C2135 1.524 . S
C2136 C2137 1.415 . S
C2137 H2107 0.950 . S
C2137 C2132 1.363 . S
C2137 C2136 1.415 . S
H2138 C2135 0.999 . S
H2139 C2120 0.913 . S
H2140 C2158 0.951 . S
H2141 C2160 0.951 . S
H2142 C2162 0.950 . S
H2143 C2163 0.950 . S
H2144 C2165 0.950 . S
H2145 C2168 0.950 . S
H2146 C2169 0.950 . S
H2147 C2171 0.950 . S
H2148 C2172 0.950 . S
H2149 C2173 0.951 . S
H2150 C2175 0.951 . S
H2151 C2177 0.950 . S
H2152 C2178 0.950 . S
H2153 C2180 0.950 . S
H2154 C2183 0.950 . S
H2155 C2184 0.950 . S
H2156 C2186 0.950 . S
H2157 C2187 0.950 . S
C2158 H2140 0.951 . S
C2158 C2159 1.366 . S
C2158 C2160 1.388 . S
C2159 C2158 1.366 . S
C2159 C2163 1.385 . S
C2160 H2141 0.951 . S
C2160 C2158 1.388 . S
C2160 C2161 1.366 . S
C2161 C2160 1.366 . S
C2161 C2162 1.414 . S
C2161 C2164 1.499 . S
C2162 H2142 0.950 . S
C2162 C2161 1.414 . S
C2162 C2163 1.374 . S
C2163 H2143 0.950 . S
C2163 C2159 1.385 . S
C2163 C2162 1.374 . S
C2164 C2161 1.499 . S
C2164 C2165 1.373 . S
C2164 C2166 1.389 . S
C2165 H2144 0.950 . S
C2165 C2164 1.373 . S
C2165 C2181 1.377 . S
C2166 C2164 1.389 . S
C2166 C2167 1.524 . S
C2166 C2180 1.377 . S
C2167 C2166 1.524 . S
C2167 C2168 1.397 . S
C2167 C2172 1.363 . S
C2168 H2145 0.950 . S
C2168 C2167 1.397 . S
C2168 C2169 1.334 . S
C2169 H2146 0.950 . S
C2169 C2168 1.334 . S
C2169 C2170 1.287 . S
C2170 C2169 1.287 . S
C2170 C2171 1.524 . S
C2170 H2189 0.913 . S
C2171 H2147 0.950 . S
C2171 C2170 1.524 . S
C2171 C2172 1.415 . S
C2172 H2148 0.950 . S
C2172 C2167 1.363 . S
C2172 C2171 1.415 . S
C2173 H2149 0.951 . S
C2173 C2174 1.366 . S
C2173 C2175 1.388 . S
C2174 C2173 1.366 . S
C2174 C2178 1.385 . S
C2175 H2150 0.951 . S
C2175 C2173 1.388 . S
C2175 C2176 1.366 . S
C2176 C2175 1.366 . S
C2176 C2177 1.414 . S
C2176 C2179 1.499 . S
C2177 H2151 0.950 . S
C2177 C2176 1.414 . S
C2177 C2178 1.374 . S
C2178 H2152 0.950 . S
C2178 C2174 1.385 . S
C2178 C2177 1.374 . S
C2179 C2176 1.499 . S
C2179 C2180 1.373 . S
C2179 C2181 1.389 . S
C2180 H2153 0.950 . S
C2180 C2166 1.377 . S
C2180 C2179 1.373 . S
C2181 C2165 1.377 . S
C2181 C2179 1.389 . S
C2181 C2182 1.524 . S
C2182 C2181 1.524 . S
C2182 C2183 1.397 . S
C2182 C2187 1.363 . S
C2183 H2154 0.950 . S
C2183 C2182 1.397 . S
C2183 C2184 1.334 . S
C2184 H2155 0.950 . S
C2184 C2183 1.334 . S
C2184 C2185 1.287 . S
C2185 C2184 1.287 . S
C2185 C2186 1.524 . S
C2185 H2188 0.999 . S
C2186 H2156 0.950 . S
C2186 C2185 1.524 . S
C2186 C2187 1.415 . S
C2187 H2157 0.950 . S
C2187 C2182 1.363 . S
C2187 C2186 1.415 . S
H2188 C2185 0.999 . S
H2189 C2170 0.913 . S
H2190 C2208 0.951 . S
H2191 C2210 0.951 . S
H2192 C2212 0.950 . S
H2193 C2213 0.950 . S
H2194 C2215 0.950 . S
H2195 C2218 0.950 . S
H2196 C2219 0.950 . S
H2197 C2221 0.950 . S
H2198 C2222 0.950 . S
H2199 C2223 0.951 . S
H2200 C2225 0.951 . S
H2201 C2227 0.950 . S
H2202 C2228 0.950 . S
H2203 C2230 0.950 . S
H2204 C2233 0.950 . S
H2205 C2234 0.950 . S
H2206 C2236 0.950 . S
H2207 C2237 0.950 . S
C2208 H2190 0.951 . S
C2208 C2209 1.366 . S
C2208 C2210 1.388 . S
C2209 C2208 1.366 . S
C2209 C2213 1.385 . S
C2210 H2191 0.951 . S
C2210 C2208 1.388 . S
C2210 C2211 1.366 . S
C2211 C2210 1.366 . S
C2211 C2212 1.414 . S
C2211 C2214 1.499 . S
C2212 H2192 0.950 . S
C2212 C2211 1.414 . S
C2212 C2213 1.374 . S
C2213 H2193 0.950 . S
C2213 C2209 1.385 . S
C2213 C2212 1.374 . S
C2214 C2211 1.499 . S
C2214 C2215 1.373 . S
C2214 C2216 1.389 . S
C2215 H2194 0.950 . S
C2215 C2214 1.373 . S
C2215 C2231 1.377 . S
C2216 C2214 1.389 . S
C2216 C2217 1.524 . S
C2216 C2230 1.377 . S
C2217 C2216 1.524 . S
C2217 C2218 1.397 . S
C2217 C2222 1.363 . S
C2218 H2195 0.950 . S
C2218 C2217 1.397 . S
C2218 C2219 1.334 . S
C2219 H2196 0.950 . S
C2219 C2218 1.334 . S
C2219 C2220 1.287 . S
C2220 C2219 1.287 . S
C2220 C2221 1.524 . S
C2220 H2239 0.913 . S
C2221 H2197 0.950 . S
C2221 C2220 1.524 . S
C2221 C2222 1.415 . S
C2222 H2198 0.950 . S
C2222 C2217 1.363 . S
C2222 C2221 1.415 . S
C2223 H2199 0.951 . S
C2223 C2224 1.366 . S
C2223 C2225 1.388 . S
C2224 C2223 1.366 . S
C2224 C2228 1.385 . S
C2225 H2200 0.951 . S
C2225 C2223 1.388 . S
C2225 C2226 1.366 . S
C2226 C2225 1.366 . S
C2226 C2227 1.414 . S
C2226 C2229 1.499 . S
C2227 H2201 0.950 . S
C2227 C2226 1.414 . S
C2227 C2228 1.374 . S
C2228 H2202 0.950 . S
C2228 C2224 1.385 . S
C2228 C2227 1.374 . S
C2229 C2226 1.499 . S
C2229 C2230 1.373 . S
C2229 C2231 1.389 . S
C2230 H2203 0.950 . S
C2230 C2216 1.377 . S
C2230 C2229 1.373 . S
C2231 C2215 1.377 . S
C2231 C2229 1.389 . S
C2231 C2232 1.524 . S
C2232 C2231 1.524 . S
C2232 C2233 1.397 . S
C2232 C2237 1.363 . S
C2233 H2204 0.950 . S
C2233 C2232 1.397 . S
C2233 C2234 1.334 . S
C2234 H2205 0.950 . S
C2234 C2233 1.334 . S
C2234 C2235 1.287 . S
C2235 C2234 1.287 . S
C2235 C2236 1.524 . S
C2235 H2238 0.999 . S
C2236 H2206 0.950 . S
C2236 C2235 1.524 . S
C2236 C2237 1.415 . S
C2237 H2207 0.950 . S
C2237 C2232 1.363 . S
C2237 C2236 1.415 . S
H2238 C2235 0.999 . S
H2239 C2220 0.913 . S
H2240 C2258 0.951 . S
H2241 C2260 0.951 . S
H2242 C2262 0.950 . S
H2243 C2263 0.950 . S
H2244 C2265 0.950 . S
H2245 C2268 0.950 . S
H2246 C2269 0.950 . S
H2247 C2271 0.950 . S
H2248 C2272 0.950 . S
H2249 C2273 0.951 . S
H2250 C2275 0.951 . S
H2251 C2277 0.950 . S
H2252 C2278 0.950 . S
H2253 C2280 0.950 . S
H2254 C2283 0.950 . S
H2255 C2284 0.950 . S
H2256 C2286 0.950 . S
H2257 C2287 0.950 . S
C2258 H2240 0.951 . S
C2258 C2259 1.366 . S
C2258 C2260 1.388 . S
C2259 C2258 1.366 . S
C2259 C2263 1.385 . S
C2260 H2241 0.951 . S
C2260 C2258 1.388 . S
C2260 C2261 1.366 . S
C2261 C2260 1.366 . S
C2261 C2262 1.414 . S
C2261 C2264 1.499 . S
C2262 H2242 0.950 . S
C2262 C2261 1.414 . S
C2262 C2263 1.374 . S
C2263 H2243 0.950 . S
C2263 C2259 1.385 . S
C2263 C2262 1.374 . S
C2264 C2261 1.499 . S
C2264 C2265 1.373 . S
C2264 C2266 1.389 . S
C2265 H2244 0.950 . S
C2265 C2264 1.373 . S
C2265 C2281 1.377 . S
C2266 C2264 1.389 . S
C2266 C2267 1.524 . S
C2266 C2280 1.377 . S
C2267 C2266 1.524 . S
C2267 C2268 1.397 . S
C2267 C2272 1.363 . S
C2268 H2245 0.950 . S
C2268 C2267 1.397 . S
C2268 C2269 1.334 . S
C2269 H2246 0.950 . S
C2269 C2268 1.334 . S
C2269 C2270 1.287 . S
C2270 C2269 1.287 . S
C2270 C2271 1.524 . S
C2270 H2289 0.913 . S
C2271 H2247 0.950 . S
C2271 C2270 1.524 . S
C2271 C2272 1.415 . S
C2272 H2248 0.950 . S
C2272 C2267 1.363 . S
C2272 C2271 1.415 . S
C2273 H2249 0.951 . S
C2273 C2274 1.366 . S
C2273 C2275 1.388 . S
C2274 C2273 1.366 . S
C2274 C2278 1.385 . S
C2275 H2250 0.951 . S
C2275 C2273 1.388 . S
C2275 C2276 1.366 . S
C2276 C2275 1.366 . S
C2276 C2277 1.414 . S
C2276 C2279 1.499 . S
C2277 H2251 0.950 . S
C2277 C2276 1.414 . S
C2277 C2278 1.374 . S
C2278 H2252 0.950 . S
C2278 C2274 1.385 . S
C2278 C2277 1.374 . S
C2279 C2276 1.499 . S
C2279 C2280 1.373 . S
C2279 C2281 1.389 . S
C2280 H2253 0.950 . S
C2280 C2266 1.377 . S
C2280 C2279 1.373 . S
C2281 C2265 1.377 . S
C2281 C2279 1.389 . S
C2281 C2282 1.524 . S
C2282 C2281 1.524 . S
C2282 C2283 1.397 . S
C2282 C2287 1.363 . S
C2283 H2254 0.950 . S
C2283 C2282 1.397 . S
C2283 C2284 1.334 . S
C2284 H2255 0.950 . S
C2284 C2283 1.334 . S
C2284 C2285 1.287 . S
C2285 C2284 1.287 . S
C2285 C2286 1.524 . S
C2285 H2288 0.999 . S
C2286 H2256 0.950 . S
C2286 C2285 1.524 . S
C2286 C2287 1.415 . S
C2287 H2257 0.950 . S
C2287 C2282 1.363 . S
C2287 C2286 1.415 . S
H2288 C2285 0.999 . S
H2289 C2270 0.913 . S
H2290 C2308 0.951 . S
H2291 C2310 0.951 . S
H2292 C2312 0.950 . S
H2293 C2313 0.950 . S
H2294 C2315 0.950 . S
H2295 C2318 0.950 . S
H2296 C2319 0.950 . S
H2297 C2321 0.950 . S
H2298 C2322 0.950 . S
H2299 C2323 0.951 . S
H2300 C2325 0.951 . S
H2301 C2327 0.950 . S
H2302 C2328 0.950 . S
H2303 C2330 0.950 . S
H2304 C2333 0.950 . S
H2305 C2334 0.950 . S
H2306 C2336 0.950 . S
H2307 C2337 0.950 . S
C2308 H2290 0.951 . S
C2308 C2309 1.366 . S
C2308 C2310 1.388 . S
C2309 C2308 1.366 . S
C2309 C2313 1.385 . S
C2310 H2291 0.951 . S
C2310 C2308 1.388 . S
C2310 C2311 1.366 . S
C2311 C2310 1.366 . S
C2311 C2312 1.414 . S
C2311 C2314 1.499 . S
C2312 H2292 0.950 . S
C2312 C2311 1.414 . S
C2312 C2313 1.374 . S
C2313 H2293 0.950 . S
C2313 C2309 1.385 . S
C2313 C2312 1.374 . S
C2314 C2311 1.499 . S
C2314 C2315 1.373 . S
C2314 C2316 1.389 . S
C2315 H2294 0.950 . S
C2315 C2314 1.373 . S
C2315 C2331 1.377 . S
C2316 C2314 1.389 . S
C2316 C2317 1.524 . S
C2316 C2330 1.377 . S
C2317 C2316 1.524 . S
C2317 C2318 1.397 . S
C2317 C2322 1.363 . S
C2318 H2295 0.950 . S
C2318 C2317 1.397 . S
C2318 C2319 1.334 . S
C2319 H2296 0.950 . S
C2319 C2318 1.334 . S
C2319 C2320 1.287 . S
C2320 C2319 1.287 . S
C2320 C2321 1.524 . S
C2320 H2339 0.913 . S
C2321 H2297 0.950 . S
C2321 C2320 1.524 . S
C2321 C2322 1.415 . S
C2322 H2298 0.950 . S
C2322 C2317 1.363 . S
C2322 C2321 1.415 . S
C2323 H2299 0.951 . S
C2323 C2324 1.366 . S
C2323 C2325 1.388 . S
C2324 C2323 1.366 . S
C2324 C2328 1.385 . S
C2325 H2300 0.951 . S
C2325 C2323 1.388 . S
C2325 C2326 1.366 . S
C2326 C2325 1.366 . S
C2326 C2327 1.414 . S
C2326 C2329 1.499 . S
C2327 H2301 0.950 . S
C2327 C2326 1.414 . S
C2327 C2328 1.374 . S
C2328 H2302 0.950 . S
C2328 C2324 1.385 . S
C2328 C2327 1.374 . S
C2329 C2326 1.499 . S
C2329 C2330 1.373 . S
C2329 C2331 1.389 . S
C2330 H2303 0.950 . S
C2330 C2316 1.377 . S
C2330 C2329 1.373 . S
C2331 C2315 1.377 . S
C2331 C2329 1.389 . S
C2331 C2332 1.524 . S
C2332 C2331 1.524 . S
C2332 C2333 1.397 . S
C2332 C2337 1.363 . S
C2333 H2304 0.950 . S
C2333 C2332 1.397 . S
C2333 C2334 1.334 . S
C2334 H2305 0.950 . S
C2334 C2333 1.334 . S
C2334 C2335 1.287 . S
C2335 C2334 1.287 . S
C2335 C2336 1.524 . S
C2335 H2338 0.999 . S
C2336 H2306 0.950 . S
C2336 C2335 1.524 . S
C2336 C2337 1.415 . S
C2337 H2307 0.950 . S
C2337 C2332 1.363 . S
C2337 C2336 1.415 . S
H2338 C2335 0.999 . S
H2339 C2320 0.913 . S
H2340 C2358 0.951 . S
H2341 C2360 0.951 . S
H2342 C2362 0.950 . S
H2343 C2363 0.950 . S
H2344 C2365 0.950 . S
H2345 C2368 0.950 . S
H2346 C2369 0.950 . S
H2347 C2371 0.950 . S
H2348 C2372 0.950 . S
H2349 C2373 0.951 . S
H2350 C2375 0.951 . S
H2351 C2377 0.950 . S
H2352 C2378 0.950 . S
H2353 C2380 0.950 . S
H2354 C2383 0.950 . S
H2355 C2384 0.950 . S
H2356 C2386 0.950 . S
H2357 C2387 0.950 . S
C2358 H2340 0.951 . S
C2358 C2359 1.366 . S
C2358 C2360 1.388 . S
C2359 C2358 1.366 . S
C2359 C2363 1.385 . S
C2360 H2341 0.951 . S
C2360 C2358 1.388 . S
C2360 C2361 1.366 . S
C2361 C2360 1.366 . S
C2361 C2362 1.414 . S
C2361 C2364 1.499 . S
C2362 H2342 0.950 . S
C2362 C2361 1.414 . S
C2362 C2363 1.374 . S
C2363 H2343 0.950 . S
C2363 C2359 1.385 . S
C2363 C2362 1.374 . S
C2364 C2361 1.499 . S
C2364 C2365 1.373 . S
C2364 C2366 1.389 . S
C2365 H2344 0.950 . S
C2365 C2364 1.373 . S
C2365 C2381 1.377 . S
C2366 C2364 1.389 . S
C2366 C2367 1.524 . S
C2366 C2380 1.377 . S
C2367 C2366 1.524 . S
C2367 C2368 1.397 . S
C2367 C2372 1.363 . S
C2368 H2345 0.950 . S
C2368 C2367 1.397 . S
C2368 C2369 1.334 . S
C2369 H2346 0.950 . S
C2369 C2368 1.334 . S
C2369 C2370 1.287 . S
C2370 C2369 1.287 . S
C2370 C2371 1.524 . S
C2370 H2389 0.913 . S
C2371 H2347 0.950 . S
C2371 C2370 1.524 . S
C2371 C2372 1.415 . S
C2372 H2348 0.950 . S
C2372 C2367 1.363 . S
C2372 C2371 1.415 . S
C2373 H2349 0.951 . S
C2373 C2374 1.366 . S
C2373 C2375 1.388 . S
C2374 C2373 1.366 . S
C2374 C2378 1.385 . S
C2375 H2350 0.951 . S
C2375 C2373 1.388 . S
C2375 C2376 1.366 . S
C2376 C2375 1.366 . S
C2376 C2377 1.414 . S
C2376 C2379 1.499 . S
C2377 H2351 0.950 . S
C2377 C2376 1.414 . S
C2377 C2378 1.374 . S
C2378 H2352 0.950 . S
C2378 C2374 1.385 . S
C2378 C2377 1.374 . S
C2379 C2376 1.499 . S
C2379 C2380 1.373 . S
C2379 C2381 1.389 . S
C2380 H2353 0.950 . S
C2380 C2366 1.377 . S
C2380 C2379 1.373 . S
C2381 C2365 1.377 . S
C2381 C2379 1.389 . S
C2381 C2382 1.524 . S
C2382 C2381 1.524 . S
C2382 C2383 1.397 . S
C2382 C2387 1.363 . S
C2383 H2354 0.950 . S
C2383 C2382 1.397 . S
C2383 C2384 1.334 . S
C2384 H2355 0.950 . S
C2384 C2383 1.334 . S
C2384 C2385 1.287 . S
C2385 C2384 1.287 . S
C2385 C2386 1.524 . S
C2385 H2388 0.999 . S
C2386 H2356 0.950 . S
C2386 C2385 1.524 . S
C2386 C2387 1.415 . S
C2387 H2357 0.950 . S
C2387 C2382 1.363 . S
C2387 C2386 1.415 . S
H2388 C2385 0.999 . S
H2389 C2370 0.913 . S
H2390 C2408 0.951 . S
H2391 C2410 0.951 . S
H2392 C2412 0.950 . S
H2393 C2413 0.950 . S
H2394 C2415 0.950 . S
H2395 C2418 0.950 . S
H2396 C2419 0.950 . S
H2397 C2421 0.950 . S
H2398 C2422 0.950 . S
H2399 C2423 0.951 . S
H2400 C2425 0.951 . S
H2401 C2427 0.950 . S
H2402 C2428 0.950 . S
H2403 C2430 0.950 . S
H2404 C2433 0.950 . S
H2405 C2434 0.950 . S
H2406 C2436 0.950 . S
H2407 C2437 0.950 . S
C2408 H2390 0.951 . S
C2408 C2409 1.366 . S
C2408 C2410 1.388 . S
C2409 C2408 1.366 . S
C2409 C2413 1.385 . S
C2410 H2391 0.951 . S
C2410 C2408 1.388 . S
C2410 C2411 1.366 . S
C2411 C2410 1.366 . S
C2411 C2412 1.414 . S
C2411 C2414 1.499 . S
C2412 H2392 0.950 . S
C2412 C2411 1.414 . S
C2412 C2413 1.374 . S
C2413 H2393 0.950 . S
C2413 C2409 1.385 . S
C2413 C2412 1.374 . S
C2414 C2411 1.499 . S
C2414 C2415 1.373 . S
C2414 C2416 1.389 . S
C2415 H2394 0.950 . S
C2415 C2414 1.373 . S
C2415 C2431 1.377 . S
C2416 C2414 1.389 . S
C2416 C2417 1.524 . S
C2416 C2430 1.377 . S
C2417 C2416 1.524 . S
C2417 C2418 1.397 . S
C2417 C2422 1.363 . S
C2418 H2395 0.950 . S
C2418 C2417 1.397 . S
C2418 C2419 1.334 . S
C2419 H2396 0.950 . S
C2419 C2418 1.334 . S
C2419 C2420 1.287 . S
C2420 C2419 1.287 . S
C2420 C2421 1.524 . S
C2420 H2439 0.913 . S
C2421 H2397 0.950 . S
C2421 C2420 1.524 . S
C2421 C2422 1.415 . S
C2422 H2398 0.950 . S
C2422 C2417 1.363 . S
C2422 C2421 1.415 . S
C2423 H2399 0.951 . S
C2423 C2424 1.366 . S
C2423 C2425 1.388 . S
C2424 C2423 1.366 . S
C2424 C2428 1.385 . S
C2425 H2400 0.951 . S
C2425 C2423 1.388 . S
C2425 C2426 1.366 . S
C2426 C2425 1.366 . S
C2426 C2427 1.414 . S
C2426 C2429 1.499 . S
C2427 H2401 0.950 . S
C2427 C2426 1.414 . S
C2427 C2428 1.374 . S
C2428 H2402 0.950 . S
C2428 C2424 1.385 . S
C2428 C2427 1.374 . S
C2429 C2426 1.499 . S
C2429 C2430 1.373 . S
C2429 C2431 1.389 . S
C2430 H2403 0.950 . S
C2430 C2416 1.377 . S
C2430 C2429 1.373 . S
C2431 C2415 1.377 . S
C2431 C2429 1.389 . S
C2431 C2432 1.524 . S
C2432 C2431 1.524 . S
C2432 C2433 1.397 . S
C2432 C2437 1.363 . S
C2433 H2404 0.950 . S
C2433 C2432 1.397 . S
C2433 C2434 1.334 . S
C2434 H2405 0.950 . S
C2434 C2433 1.334 . S
C2434 C2435 1.287 . S
C2435 C2434 1.287 . S
C2435 C2436 1.524 . S
C2435 H2438 0.999 . S
C2436 H2406 0.950 . S
C2436 C2435 1.524 . S
C2436 C2437 1.415 . S
C2437 H2407 0.950 . S
C2437 C2432 1.363 . S
C2437 C2436 1.415 . S
H2438 C2435 0.999 . S
H2439 C2420 0.913 . S
H2440 C2458 0.951 . S
H2441 C2460 0.951 . S
H2442 C2462 0.950 . S
H2443 C2463 0.950 . S
H2444 C2465 0.950 . S
H2445 C2468 0.950 . S
H2446 C2469 0.950 . S
H2447 C2471 0.950 . S
H2448 C2472 0.950 . S
H2449 C2473 0.951 . S
H2450 C2475 0.951 . S
H2451 C2477 0.950 . S
H2452 C2478 0.950 . S
H2453 C2480 0.950 . S
H2454 C2483 0.950 . S
H2455 C2484 0.950 . S
H2456 C2486 0.950 . S
H2457 C2487 0.950 . S
C2458 H2440 0.951 . S
C2458 C2459 1.366 . S
C2458 C2460 1.388 . S
C2459 C2458 1.366 . S
C2459 C2463 1.385 . S
C2460 H2441 0.951 . S
C2460 C2458 1.388 . S
C2460 C2461 1.366 . S
C2461 C2460 1.366 . S
C2461 C2462 1.414 . S
C2461 C2464 1.499 . S
C2462 H2442 0.950 . S
C2462 C2461 1.414 . S
C2462 C2463 1.374 . S
C2463 H2443 0.950 . S
C2463 C2459 1.385 . S
C2463 C2462 1.374 . S
C2464 C2461 1.499 . S
C2464 C2465 1.373 . S
C2464 C2466 1.389 . S
C2465 H2444 0.950 . S
C2465 C2464 1.373 . S
C2465 C2481 1.377 . S
C2466 C2464 1.389 . S
C2466 C2467 1.524 . S
C2466 C2480 1.377 . S
C2467 C2466 1.524 . S
C2467 C2468 1.397 . S
C2467 C2472 1.363 . S
C2468 H2445 0.950 . S
C2468 C2467 1.397 . S
C2468 C2469 1.334 . S
C2469 H2446 0.950 . S
C2469 C2468 1.334 . S
C2469 C2470 1.287 . S
C2470 C2469 1.287 . S
C2470 C2471 1.524 . S
C2470 H2489 0.913 . S
C2471 H2447 0.950 . S
C2471 C2470 1.524 . S
C2471 C2472 1.415 . S
C2472 H2448 0.950 . S
C2472 C2467 1.363 . S
C2472 C2471 1.415 . S
C2473 H2449 0.951 . S
C2473 C2474 1.366 . S
C2473 C2475 1.388 . S
C2474 C2473 1.366 . S
C2474 C2478 1.385 . S
C2475 H2450 0.951 . S
C2475 C2473 1.388 . S
C2475 C2476 1.366 . S
C2476 C2475 1.366 . S
C2476 C2477 1.414 . S
C2476 C2479 1.499 . S
C2477 H2451 0.950 . S
C2477 C2476 1.414 . S
C2477 C2478 1.374 . S
C2478 H2452 0.950 . S
C2478 C2474 1.385 . S
C2478 C2477 1.374 . S
C2479 C2476 1.499 . S
C2479 C2480 1.373 . S
C2479 C2481 1.389 . S
C2480 H2453 0.950 . S
C2480 C2466 1.377 . S
C2480 C2479 1.373 . S
C2481 C2465 1.377 . S
C2481 C2479 1.389 . S
C2481 C2482 1.524 . S
C2482 C2481 1.524 . S
C2482 C2483 1.397 . S
C2482 C2487 1.363 . S
C2483 H2454 0.950 . S
C2483 C2482 1.397 . S
C2483 C2484 1.334 . S
C2484 H2455 0.950 . S
C2484 C2483 1.334 . S
C2484 C2485 1.287 . S
C2485 C2484 1.287 . S
C2485 C2486 1.524 . S
C2485 H2488 0.999 . S
C2486 H2456 0.950 . S
C2486 C2485 1.524 . S
C2486 C2487 1.415 . S
C2487 H2457 0.950 . S
C2487 C2482 1.363 . S
C2487 C2486 1.415 . S
H2488 C2485 0.999 . S
H2489 C2470 0.913 . S
H2490 C2508 0.951 . S
H2491 C2510 0.951 . S
H2492 C2512 0.950 . S
H2493 C2513 0.950 . S
H2494 C2515 0.950 . S
H2495 C2518 0.950 . S
H2496 C2519 0.950 . S
H2497 C2521 0.950 . S
H2498 C2522 0.950 . S
H2499 C2523 0.951 . S
H2500 C2525 0.951 . S
H2501 C2527 0.950 . S
H2502 C2528 0.950 . S
H2503 C2530 0.950 1_556 S
H2504 C2533 0.950 . S
H2505 C2534 0.950 . S
H2506 C2536 0.950 . S
H2507 C2537 0.950 . S
C2508 H2490 0.951 . S
C2508 C2509 1.366 . S
C2508 C2510 1.388 . S
C2509 C2508 1.366 . S
C2509 C2513 1.385 . S
C2510 H2491 0.951 . S
C2510 C2508 1.388 . S
C2510 C2511 1.366 . S
C2511 C2510 1.366 . S
C2511 C2512 1.414 . S
C2511 C2514 1.499 . S
C2512 H2492 0.950 . S
C2512 C2511 1.414 . S
C2512 C2513 1.374 . S
C2513 H2493 0.950 . S
C2513 C2509 1.385 . S
C2513 C2512 1.374 . S
C2514 C2511 1.499 . S
C2514 C2515 1.373 . S
C2514 C2516 1.389 . S
C2515 H2494 0.950 . S
C2515 C2514 1.373 . S
C2515 C2531 1.377 . S
C2516 C2514 1.389 . S
C2516 C2517 1.524 1_554 S
C2516 C2530 1.377 . S
C2517 C2516 1.524 1_556 S
C2517 C2518 1.397 . S
C2517 C2522 1.363 . S
C2518 H2495 0.950 . S
C2518 C2517 1.397 . S
C2518 C2519 1.334 . S
C2519 H2496 0.950 . S
C2519 C2518 1.334 . S
C2519 C2520 1.287 . S
C2520 C2519 1.287 . S
C2520 C2521 1.524 . S
C2520 H2539 0.913 . S
C2521 H2497 0.950 . S
C2521 C2520 1.524 . S
C2521 C2522 1.415 . S
C2522 H2498 0.950 . S
C2522 C2517 1.363 . S
C2522 C2521 1.415 . S
C2523 H2499 0.951 . S
C2523 C2524 1.366 . S
C2523 C2525 1.388 . S
C2524 C2523 1.366 . S
C2524 C2528 1.385 . S
C2525 H2500 0.951 . S
C2525 C2523 1.388 . S
C2525 C2526 1.366 . S
C2526 C2525 1.366 . S
C2526 C2527 1.414 . S
C2526 C2529 1.499 . S
C2527 H2501 0.950 . S
C2527 C2526 1.414 . S
C2527 C2528 1.374 . S
C2528 H2502 0.950 . S
C2528 C2524 1.385 . S
C2528 C2527 1.374 . S
C2529 C2526 1.499 . S
C2529 C2530 1.373 . S
C2529 C2531 1.389 . S
C2530 H2503 0.950 1_554 S
C2530 C2516 1.377 . S
C2530 C2529 1.373 . S
C2531 C2515 1.377 . S
C2531 C2529 1.389 . S
C2531 C2532 1.524 . S
C2532 C2531 1.524 . S
C2532 C2533 1.397 . S
C2532 C2537 1.363 . S
C2533 H2504 0.950 . S
C2533 C2532 1.397 . S
C2533 C2534 1.334 . S
C2534 H2505 0.950 . S
C2534 C2533 1.334 . S
C2534 C2535 1.287 . S
C2535 C2534 1.287 . S
C2535 C2536 1.524 . S
C2535 H2538 0.999 . S
C2536 H2506 0.950 . S
C2536 C2535 1.524 . S
C2536 C2537 1.415 . S
C2537 H2507 0.950 . S
C2537 C2532 1.363 . S
C2537 C2536 1.415 . S
H2538 C2535 0.999 . S
H2539 C2520 0.913 . S
H2540 C2558 0.951 . S
H2541 C2560 0.951 . S
H2542 C2562 0.950 . S
H2543 C2563 0.950 . S
H2544 C2565 0.950 . S
H2545 C2568 0.950 . S
H2546 C2569 0.950 . S
H2547 C2571 0.950 . S
H2548 C2572 0.950 . S
H2549 C2573 0.951 . S
H2550 C2575 0.951 . S
H2551 C2577 0.950 . S
H2552 C2578 0.950 . S
H2553 C2580 0.950 . S
H2554 C2583 0.950 . S
H2555 C2584 0.950 . S
H2556 C2586 0.950 . S
H2557 C2587 0.950 . S
C2558 H2540 0.951 . S
C2558 C2559 1.366 . S
C2558 C2560 1.388 . S
C2559 C2558 1.366 . S
C2559 C2563 1.385 . S
C2560 H2541 0.951 . S
C2560 C2558 1.388 . S
C2560 C2561 1.366 . S
C2561 C2560 1.366 . S
C2561 C2562 1.414 . S
C2561 C2564 1.499 . S
C2562 H2542 0.950 . S
C2562 C2561 1.414 . S
C2562 C2563 1.374 . S
C2563 H2543 0.950 . S
C2563 C2559 1.385 . S
C2563 C2562 1.374 . S
C2564 C2561 1.499 . S
C2564 C2565 1.373 . S
C2564 C2566 1.389 . S
C2565 H2544 0.950 . S
C2565 C2564 1.373 . S
C2565 C2581 1.377 . S
C2566 C2564 1.389 . S
C2566 C2567 1.524 . S
C2566 C2580 1.377 . S
C2567 C2566 1.524 . S
C2567 C2568 1.397 . S
C2567 C2572 1.363 . S
C2568 H2545 0.950 . S
C2568 C2567 1.397 . S
C2568 C2569 1.334 . S
C2569 H2546 0.950 . S
C2569 C2568 1.334 . S
C2569 C2570 1.287 . S
C2570 C2569 1.287 . S
C2570 C2571 1.524 . S
C2570 H2589 0.913 . S
C2571 H2547 0.950 . S
C2571 C2570 1.524 . S
C2571 C2572 1.415 . S
C2572 H2548 0.950 . S
C2572 C2567 1.363 . S
C2572 C2571 1.415 . S
C2573 H2549 0.951 . S
C2573 C2574 1.366 . S
C2573 C2575 1.388 . S
C2574 C2573 1.366 . S
C2574 C2578 1.385 . S
C2575 H2550 0.951 . S
C2575 C2573 1.388 . S
C2575 C2576 1.366 . S
C2576 C2575 1.366 . S
C2576 C2577 1.414 . S
C2576 C2579 1.499 . S
C2577 H2551 0.950 . S
C2577 C2576 1.414 . S
C2577 C2578 1.374 . S
C2578 H2552 0.950 . S
C2578 C2574 1.385 . S
C2578 C2577 1.374 . S
C2579 C2576 1.499 . S
C2579 C2580 1.373 . S
C2579 C2581 1.389 . S
C2580 H2553 0.950 . S
C2580 C2566 1.377 . S
C2580 C2579 1.373 . S
C2581 C2565 1.377 . S
C2581 C2579 1.389 . S
C2581 C2582 1.524 . S
C2582 C2581 1.524 . S
C2582 C2583 1.397 . S
C2582 C2587 1.363 . S
C2583 H2554 0.950 . S
C2583 C2582 1.397 . S
C2583 C2584 1.334 . S
C2584 H2555 0.950 . S
C2584 C2583 1.334 . S
C2584 C2585 1.287 . S
C2585 C2584 1.287 . S
C2585 C2586 1.524 . S
C2585 H2588 0.999 . S
C2586 H2556 0.950 . S
C2586 C2585 1.524 . S
C2586 C2587 1.415 . S
C2587 H2557 0.950 . S
C2587 C2582 1.363 . S
C2587 C2586 1.415 . S
H2588 C2585 0.999 . S
H2589 C2570 0.913 . S
H2590 C2608 0.951 . S
H2591 C2610 0.951 . S
H2592 C2612 0.950 . S
H2593 C2613 0.950 . S
H2594 C2615 0.950 . S
H2595 C2618 0.950 . S
H2596 C2619 0.950 . S
H2597 C2621 0.950 . S
H2598 C2622 0.950 . S
H2599 C2623 0.951 . S
H2600 C2625 0.951 . S
H2601 C2627 0.950 . S
H2602 C2628 0.950 . S
H2603 C2630 0.950 . S
H2604 C2633 0.950 . S
H2605 C2634 0.950 . S
H2606 C2636 0.950 . S
H2607 C2637 0.950 . S
C2608 H2590 0.951 . S
C2608 C2609 1.366 . S
C2608 C2610 1.388 . S
C2609 C2608 1.366 . S
C2609 C2613 1.385 . S
C2610 H2591 0.951 . S
C2610 C2608 1.388 . S
C2610 C2611 1.366 . S
C2611 C2610 1.366 . S
C2611 C2612 1.414 . S
C2611 C2614 1.499 . S
C2612 H2592 0.950 . S
C2612 C2611 1.414 . S
C2612 C2613 1.374 . S
C2613 H2593 0.950 . S
C2613 C2609 1.385 . S
C2613 C2612 1.374 . S
C2614 C2611 1.499 . S
C2614 C2615 1.373 . S
C2614 C2616 1.389 . S
C2615 H2594 0.950 . S
C2615 C2614 1.373 . S
C2615 C2631 1.377 . S
C2616 C2614 1.389 . S
C2616 C2617 1.524 . S
C2616 C2630 1.377 . S
C2617 C2616 1.524 . S
C2617 C2618 1.397 . S
C2617 C2622 1.363 . S
C2618 H2595 0.950 . S
C2618 C2617 1.397 . S
C2618 C2619 1.334 1_556 S
C2619 H2596 0.950 . S
C2619 C2618 1.334 1_554 S
C2619 C2620 1.287 . S
C2620 C2619 1.287 . S
C2620 C2621 1.524 . S
C2620 H2639 0.913 . S
C2621 H2597 0.950 . S
C2621 C2620 1.524 . S
C2621 C2622 1.415 1_554 S
C2622 H2598 0.950 . S
C2622 C2617 1.363 . S
C2622 C2621 1.415 1_556 S
C2623 H2599 0.951 . S
C2623 C2624 1.366 . S
C2623 C2625 1.388 . S
C2624 C2623 1.366 . S
C2624 C2628 1.385 . S
C2625 H2600 0.951 . S
C2625 C2623 1.388 . S
C2625 C2626 1.366 . S
C2626 C2625 1.366 . S
C2626 C2627 1.414 . S
C2626 C2629 1.499 . S
C2627 H2601 0.950 . S
C2627 C2626 1.414 . S
C2627 C2628 1.374 . S
C2628 H2602 0.950 . S
C2628 C2624 1.385 . S
C2628 C2627 1.374 . S
C2629 C2626 1.499 . S
C2629 C2630 1.373 . S
C2629 C2631 1.389 . S
C2630 H2603 0.950 . S
C2630 C2616 1.377 . S
C2630 C2629 1.373 . S
C2631 C2615 1.377 . S
C2631 C2629 1.389 . S
C2631 C2632 1.524 . S
C2632 C2631 1.524 . S
C2632 C2633 1.397 . S
C2632 C2637 1.363 . S
C2633 H2604 0.950 . S
C2633 C2632 1.397 . S
C2633 C2634 1.334 . S
C2634 H2605 0.950 . S
C2634 C2633 1.334 . S
C2634 C2635 1.287 . S
C2635 C2634 1.287 . S
C2635 C2636 1.524 . S
C2635 H2638 0.999 . S
C2636 H2606 0.950 . S
C2636 C2635 1.524 . S
C2636 C2637 1.415 . S
C2637 H2607 0.950 . S
C2637 C2632 1.363 . S
C2637 C2636 1.415 . S
H2638 C2635 0.999 . S
H2639 C2620 0.913 . S
H2640 C2658 0.951 . S
H2641 C2660 0.951 . S
H2642 C2662 0.950 . S
H2643 C2663 0.950 . S
H2644 C2665 0.950 . S
H2645 C2668 0.950 . S
H2646 C2669 0.950 . S
H2647 C2671 0.950 . S
H2648 C2672 0.950 . S
H2649 C2673 0.951 . S
H2650 C2675 0.951 . S
H2651 C2677 0.950 . S
H2652 C2678 0.950 . S
H2653 C2680 0.950 . S
H2654 C2683 0.950 . S
H2655 C2684 0.950 . S
H2656 C2686 0.950 . S
H2657 C2687 0.950 . S
C2658 H2640 0.951 . S
C2658 C2659 1.366 . S
C2658 C2660 1.388 . S
C2659 C2658 1.366 . S
C2659 C2663 1.385 . S
C2660 H2641 0.951 . S
C2660 C2658 1.388 . S
C2660 C2661 1.366 . S
C2661 C2660 1.366 . S
C2661 C2662 1.414 . S
C2661 C2664 1.499 . S
C2662 H2642 0.950 . S
C2662 C2661 1.414 . S
C2662 C2663 1.374 . S
C2663 H2643 0.950 . S
C2663 C2659 1.385 . S
C2663 C2662 1.374 . S
C2664 C2661 1.499 . S
C2664 C2665 1.373 . S
C2664 C2666 1.389 . S
C2665 H2644 0.950 . S
C2665 C2664 1.373 . S
C2665 C2681 1.377 . S
C2666 C2664 1.389 . S
C2666 C2667 1.524 . S
C2666 C2680 1.377 . S
C2667 C2666 1.524 . S
C2667 C2668 1.397 . S
C2667 C2672 1.363 . S
C2668 H2645 0.950 . S
C2668 C2667 1.397 . S
C2668 C2669 1.334 . S
C2669 H2646 0.950 . S
C2669 C2668 1.334 . S
C2669 C2670 1.287 . S
C2670 C2669 1.287 . S
C2670 C2671 1.524 . S
C2670 H2689 0.913 . S
C2671 H2647 0.950 . S
C2671 C2670 1.524 . S
C2671 C2672 1.415 . S
C2672 H2648 0.950 . S
C2672 C2667 1.363 . S
C2672 C2671 1.415 . S
C2673 H2649 0.951 . S
C2673 C2674 1.366 . S
C2673 C2675 1.388 . S
C2674 C2673 1.366 . S
C2674 C2678 1.385 . S
C2675 H2650 0.951 . S
C2675 C2673 1.388 . S
C2675 C2676 1.366 . S
C2676 C2675 1.366 . S
C2676 C2677 1.414 . S
C2676 C2679 1.499 . S
C2677 H2651 0.950 . S
C2677 C2676 1.414 . S
C2677 C2678 1.374 . S
C2678 H2652 0.950 . S
C2678 C2674 1.385 . S
C2678 C2677 1.374 . S
C2679 C2676 1.499 . S
C2679 C2680 1.373 . S
C2679 C2681 1.389 . S
C2680 H2653 0.950 . S
C2680 C2666 1.377 . S
C2680 C2679 1.373 . S
C2681 C2665 1.377 . S
C2681 C2679 1.389 . S
C2681 C2682 1.524 . S
C2682 C2681 1.524 . S
C2682 C2683 1.397 . S
C2682 C2687 1.363 . S
C2683 H2654 0.950 . S
C2683 C2682 1.397 . S
C2683 C2684 1.334 . S
C2684 H2655 0.950 . S
C2684 C2683 1.334 . S
C2684 C2685 1.287 . S
C2685 C2684 1.287 . S
C2685 C2686 1.524 . S
C2685 H2688 0.999 . S
C2686 H2656 0.950 . S
C2686 C2685 1.524 . S
C2686 C2687 1.415 . S
C2687 H2657 0.950 . S
C2687 C2682 1.363 . S
C2687 C2686 1.415 . S
H2688 C2685 0.999 . S
H2689 C2670 0.913 . S
H2690 C2708 0.951 . S
H2691 C2710 0.951 . S
H2692 C2712 0.950 . S
H2693 C2713 0.950 . S
H2694 C2715 0.950 . S
H2695 C2718 0.950 . S
H2696 C2719 0.950 . S
H2697 C2721 0.950 . S
H2698 C2722 0.950 . S
H2699 C2723 0.951 . S
H2700 C2725 0.951 . S
H2701 C2727 0.950 . S
H2702 C2728 0.950 . S
H2703 C2730 0.950 . S
H2704 C2733 0.950 . S
H2705 C2734 0.950 . S
H2706 C2736 0.950 . S
H2707 C2737 0.950 . S
C2708 H2690 0.951 . S
C2708 C2709 1.366 . S
C2708 C2710 1.388 . S
C2709 C2708 1.366 . S
C2709 C2713 1.385 . S
C2710 H2691 0.951 . S
C2710 C2708 1.388 . S
C2710 C2711 1.366 . S
C2711 C2710 1.366 . S
C2711 C2712 1.414 . S
C2711 C2714 1.499 . S
C2712 H2692 0.950 . S
C2712 C2711 1.414 . S
C2712 C2713 1.374 . S
C2713 H2693 0.950 . S
C2713 C2709 1.385 . S
C2713 C2712 1.374 . S
C2714 C2711 1.499 . S
C2714 C2715 1.373 . S
C2714 C2716 1.389 . S
C2715 H2694 0.950 . S
C2715 C2714 1.373 . S
C2715 C2731 1.377 . S
C2716 C2714 1.389 . S
C2716 C2717 1.524 . S
C2716 C2730 1.377 . S
C2717 C2716 1.524 . S
C2717 C2718 1.397 . S
C2717 C2722 1.363 . S
C2718 H2695 0.950 . S
C2718 C2717 1.397 . S
C2718 C2719 1.334 . S
C2719 H2696 0.950 . S
C2719 C2718 1.334 . S
C2719 C2720 1.287 . S
C2720 C2719 1.287 . S
C2720 C2721 1.524 . S
C2720 H2739 0.913 . S
C2721 H2697 0.950 . S
C2721 C2720 1.524 . S
C2721 C2722 1.415 . S
C2722 H2698 0.950 . S
C2722 C2717 1.363 . S
C2722 C2721 1.415 . S
C2723 H2699 0.951 . S
C2723 C2724 1.366 . S
C2723 C2725 1.388 . S
C2724 C2723 1.366 . S
C2724 C2728 1.385 . S
C2725 H2700 0.951 . S
C2725 C2723 1.388 . S
C2725 C2726 1.366 . S
C2726 C2725 1.366 . S
C2726 C2727 1.414 . S
C2726 C2729 1.499 . S
C2727 H2701 0.950 . S
C2727 C2726 1.414 . S
C2727 C2728 1.374 . S
C2728 H2702 0.950 . S
C2728 C2724 1.385 . S
C2728 C2727 1.374 . S
C2729 C2726 1.499 . S
C2729 C2730 1.373 . S
C2729 C2731 1.389 . S
C2730 H2703 0.950 . S
C2730 C2716 1.377 . S
C2730 C2729 1.373 . S
C2731 C2715 1.377 . S
C2731 C2729 1.389 . S
C2731 C2732 1.524 . S
C2732 C2731 1.524 . S
C2732 C2733 1.397 . S
C2732 C2737 1.363 . S
C2733 H2704 0.950 . S
C2733 C2732 1.397 . S
C2733 C2734 1.334 . S
C2734 H2705 0.950 . S
C2734 C2733 1.334 . S
C2734 C2735 1.287 . S
C2735 C2734 1.287 . S
C2735 C2736 1.524 . S
C2735 H2738 0.999 . S
C2736 H2706 0.950 . S
C2736 C2735 1.524 . S
C2736 C2737 1.415 . S
C2737 H2707 0.950 . S
C2737 C2732 1.363 . S
C2737 C2736 1.415 . S
H2738 C2735 0.999 . S
H2739 C2720 0.913 . S
H2740 C2758 0.951 . S
H2741 C2760 0.951 . S
H2742 C2762 0.941 1_554 S
H2743 C2763 0.936 1_554 S
H2744 C2765 0.913 1_554 S
H2745 C2768 0.950 . S
H2746 C2769 0.950 . S
H2747 C2771 0.950 . S
H2748 C2772 0.950 . S
H2749 C2773 0.922 1_554 S
H2750 C2775 0.930 1_554 S
H2751 C2777 0.950 . S
H2752 C2778 0.950 . S
H2753 C2780 0.950 . S
H2754 C2783 0.950 1_556 S
H2755 C2784 0.950 . S
H2756 C2786 0.950 . S
H2757 C2787 0.950 . S
C2758 H2740 0.951 . S
C2758 C2759 1.366 . S
C2758 C2760 1.388 . S
C2759 C2758 1.366 . S
C2759 C2763 1.398 . S
C2760 H2741 0.951 . S
C2760 C2758 1.388 . S
C2760 C2761 1.366 . S
C2761 C2760 1.366 . S
C2761 C2762 1.423 . S
C2761 C2764 1.499 . S
C2762 H2742 0.941 1_556 S
C2762 C2761 1.423 . S
C2762 C2763 1.374 . S
C2763 H2743 0.936 1_556 S
C2763 C2759 1.398 . S
C2763 C2762 1.374 . S
C2764 C2761 1.499 . S
C2764 C2765 1.411 . S
C2764 C2766 1.389 . S
C2765 H2744 0.913 1_556 S
C2765 C2764 1.411 . S
C2765 C2781 1.378 . S
C2766 C2764 1.389 . S
C2766 C2767 1.524 . S
C2766 C2780 1.377 . S
C2767 C2766 1.524 . S
C2767 C2768 1.397 . S
C2767 C2772 1.363 . S
C2768 H2745 0.950 . S
C2768 C2767 1.397 . S
C2768 C2769 1.334 . S
C2769 H2746 0.950 . S
C2769 C2768 1.334 . S
C2769 C2770 1.287 . S
C2770 C2769 1.287 . S
C2770 C2771 1.524 . S
C2770 H2789 0.913 . S
C2771 H2747 0.950 . S
C2771 C2770 1.524 . S
C2771 C2772 1.415 . S
C2772 H2748 0.950 . S
C2772 C2767 1.363 . S
C2772 C2771 1.415 . S
C2773 H2749 0.922 1_556 S
C2773 C2774 1.395 . S
C2773 C2775 1.388 . S
C2774 C2773 1.395 . S
C2774 C2778 1.385 . S
C2775 H2750 0.930 1_556 S
C2775 C2773 1.388 . S
C2775 C2776 1.386 . S
C2776 C2775 1.386 . S
C2776 C2777 1.414 . S
C2776 C2779 1.499 . S
C2777 H2751 0.950 . S
C2777 C2776 1.414 . S
C2777 C2778 1.374 . S
C2778 H2752 0.950 . S
C2778 C2774 1.385 . S
C2778 C2777 1.374 . S
C2779 C2776 1.499 . S
C2779 C2780 1.373 . S
C2779 C2781 1.389 . S
C2780 H2753 0.950 . S
C2780 C2766 1.377 . S
C2780 C2779 1.373 . S
C2781 C2765 1.378 . S
C2781 C2779 1.389 . S
C2781 C2782 1.524 1_556 S
C2782 C2781 1.524 1_554 S
C2782 C2783 1.397 . S
C2782 C2787 1.363 . S
C2783 H2754 0.950 1_554 S
C2783 C2782 1.397 . S
C2783 C2784 1.334 . S
C2784 H2755 0.950 . S
C2784 C2783 1.334 . S
C2784 C2785 1.287 . S
C2785 C2784 1.287 . S
C2785 C2786 1.524 . S
C2785 H2788 0.999 . S
C2786 H2756 0.950 . S
C2786 C2785 1.524 . S
C2786 C2787 1.415 . S
C2787 H2757 0.950 . S
C2787 C2782 1.363 . S
C2787 C2786 1.415 . S
H2788 C2785 0.999 . S
H2789 C2770 0.913 . S
H2790 C2808 0.951 . S
H2791 C2810 0.951 . S
H2792 C2812 0.950 . S
H2793 C2813 0.950 . S
H2794 C2815 0.950 . S
H2795 C2818 0.950 . S
H2796 C2819 0.950 . S
H2797 C2821 0.950 . S
H2798 C2822 0.950 . S
H2799 C2823 0.951 . S
H2800 C2825 0.951 . S
H2801 C2827 0.950 . S
H2802 C2828 0.950 . S
H2803 C2830 0.950 . S
H2804 C2833 0.950 . S
H2805 C2834 0.950 . S
H2806 C2836 0.950 . S
H2807 C2837 0.950 . S
C2808 H2790 0.951 . S
C2808 C2809 1.366 . S
C2808 C2810 1.388 . S
C2809 C2808 1.366 . S
C2809 C2813 1.385 . S
C2810 H2791 0.951 . S
C2810 C2808 1.388 . S
C2810 C2811 1.366 . S
C2811 C2810 1.366 . S
C2811 C2812 1.414 . S
C2811 C2814 1.499 . S
C2812 H2792 0.950 . S
C2812 C2811 1.414 . S
C2812 C2813 1.374 . S
C2813 H2793 0.950 . S
C2813 C2809 1.385 . S
C2813 C2812 1.374 . S
C2814 C2811 1.499 . S
C2814 C2815 1.373 . S
C2814 C2816 1.389 . S
C2815 H2794 0.950 . S
C2815 C2814 1.373 . S
C2815 C2831 1.377 . S
C2816 C2814 1.389 . S
C2816 C2817 1.524 . S
C2816 C2830 1.377 . S
C2817 C2816 1.524 . S
C2817 C2818 1.397 . S
C2817 C2822 1.363 . S
C2818 H2795 0.950 . S
C2818 C2817 1.397 . S
C2818 C2819 1.334 . S
C2819 H2796 0.950 . S
C2819 C2818 1.334 . S
C2819 C2820 1.287 . S
C2820 C2819 1.287 . S
C2820 C2821 1.524 . S
C2820 H2839 0.913 1_655 S
C2821 H2797 0.950 . S
C2821 C2820 1.524 . S
C2821 C2822 1.415 . S
C2822 H2798 0.950 . S
C2822 C2817 1.363 . S
C2822 C2821 1.415 . S
C2823 H2799 0.951 . S
C2823 C2824 1.366 . S
C2823 C2825 1.388 . S
C2824 C2823 1.366 . S
C2824 C2828 1.385 . S
C2825 H2800 0.951 . S
C2825 C2823 1.388 . S
C2825 C2826 1.366 . S
C2826 C2825 1.366 . S
C2826 C2827 1.414 . S
C2826 C2829 1.499 . S
C2827 H2801 0.950 . S
C2827 C2826 1.414 . S
C2827 C2828 1.374 . S
C2828 H2802 0.950 . S
C2828 C2824 1.385 . S
C2828 C2827 1.374 . S
C2829 C2826 1.499 . S
C2829 C2830 1.373 . S
C2829 C2831 1.389 . S
C2830 H2803 0.950 . S
C2830 C2816 1.377 . S
C2830 C2829 1.373 . S
C2831 C2815 1.377 . S
C2831 C2829 1.389 . S
C2831 C2832 1.524 . S
C2832 C2831 1.524 . S
C2832 C2833 1.397 . S
C2832 C2837 1.363 . S
C2833 H2804 0.950 . S
C2833 C2832 1.397 . S
C2833 C2834 1.334 . S
C2834 H2805 0.950 . S
C2834 C2833 1.334 . S
C2834 C2835 1.287 . S
C2835 C2834 1.287 . S
C2835 C2836 1.524 . S
C2835 H2838 0.999 . S
C2836 H2806 0.950 . S
C2836 C2835 1.524 . S
C2836 C2837 1.415 . S
C2837 H2807 0.950 . S
C2837 C2832 1.363 . S
C2837 C2836 1.415 . S
H2838 C2835 0.999 . S
H2839 C2820 0.913 1_455 S
H2840 C2858 0.951 . S
H2841 C2860 0.951 . S
H2842 C2862 0.950 . S
H2843 C2863 0.950 . S
H2844 C2865 0.950 . S
H2845 C2868 0.950 . S
H2846 C2869 0.950 . S
H2847 C2871 0.950 . S
H2848 C2872 0.950 . S
H2849 C2873 0.951 . S
H2850 C2875 0.951 . S
H2851 C2877 0.950 . S
H2852 C2878 0.950 . S
H2853 C2880 0.950 . S
H2854 C2883 0.950 . S
H2855 C2884 0.950 . S
H2856 C2886 0.950 . S
H2857 C2887 0.950 . S
C2858 H2840 0.951 . S
C2858 C2859 1.366 . S
C2858 C2860 1.388 . S
C2859 C2858 1.366 . S
C2859 C2863 1.385 . S
C2860 H2841 0.951 . S
C2860 C2858 1.388 . S
C2860 C2861 1.366 . S
C2861 C2860 1.366 . S
C2861 C2862 1.414 . S
C2861 C2864 1.499 . S
C2862 H2842 0.950 . S
C2862 C2861 1.414 . S
C2862 C2863 1.374 . S
C2863 H2843 0.950 . S
C2863 C2859 1.385 . S
C2863 C2862 1.374 . S
C2864 C2861 1.499 . S
C2864 C2865 1.373 . S
C2864 C2866 1.389 . S
C2865 H2844 0.950 . S
C2865 C2864 1.373 . S
C2865 C2881 1.377 . S
C2866 C2864 1.389 . S
C2866 C2867 1.524 . S
C2866 C2880 1.377 . S
C2867 C2866 1.524 . S
C2867 C2868 1.397 . S
C2867 C2872 1.363 . S
C2868 H2845 0.950 . S
C2868 C2867 1.397 . S
C2868 C2869 1.334 . S
C2869 H2846 0.950 . S
C2869 C2868 1.334 . S
C2869 C2870 1.287 . S
C2870 C2869 1.287 . S
C2870 C2871 1.524 . S
C2870 H2889 0.913 . S
C2871 H2847 0.950 . S
C2871 C2870 1.524 . S
C2871 C2872 1.415 . S
C2872 H2848 0.950 . S
C2872 C2867 1.363 . S
C2872 C2871 1.415 . S
C2873 H2849 0.951 . S
C2873 C2874 1.366 . S
C2873 C2875 1.388 . S
C2874 C2873 1.366 . S
C2874 C2878 1.385 . S
C2875 H2850 0.951 . S
C2875 C2873 1.388 . S
C2875 C2876 1.366 . S
C2876 C2875 1.366 . S
C2876 C2877 1.414 . S
C2876 C2879 1.499 . S
C2877 H2851 0.950 . S
C2877 C2876 1.414 . S
C2877 C2878 1.374 . S
C2878 H2852 0.950 . S
C2878 C2874 1.385 . S
C2878 C2877 1.374 . S
C2879 C2876 1.499 . S
C2879 C2880 1.373 . S
C2879 C2881 1.389 . S
C2880 H2853 0.950 . S
C2880 C2866 1.377 . S
C2880 C2879 1.373 . S
C2881 C2865 1.377 . S
C2881 C2879 1.389 . S
C2881 C2882 1.524 . S
C2882 C2881 1.524 . S
C2882 C2883 1.397 . S
C2882 C2887 1.363 . S
C2883 H2854 0.950 . S
C2883 C2882 1.397 . S
C2883 C2884 1.334 . S
C2884 H2855 0.950 . S
C2884 C2883 1.334 . S
C2884 C2885 1.287 . S
C2885 C2884 1.287 . S
C2885 C2886 1.524 . S
C2885 H2888 0.999 . S
C2886 H2856 0.950 . S
C2886 C2885 1.524 . S
C2886 C2887 1.415 . S
C2887 H2857 0.950 . S
C2887 C2882 1.363 . S
C2887 C2886 1.415 . S
H2888 C2885 0.999 . S
H2889 C2870 0.913 . S
H2890 C2908 0.951 . S
H2891 C2910 0.951 . S
H2892 C2912 0.950 . S
H2893 C2913 0.950 . S
H2894 C2915 0.950 . S
H2895 C2918 0.950 . S
H2896 C2919 0.950 . S
H2897 C2921 0.950 . S
H2898 C2922 0.950 . S
H2899 C2923 0.951 . S
H2900 C2925 0.951 . S
H2901 C2927 0.950 . S
H2902 C2928 0.950 . S
H2903 C2930 0.950 . S
H2904 C2933 0.950 . S
H2905 C2934 0.950 1_554 S
H2906 C2936 0.950 . S
H2907 C2937 0.950 . S
C2908 H2890 0.951 . S
C2908 C2909 1.366 . S
C2908 C2910 1.388 . S
C2909 C2908 1.366 . S
C2909 C2913 1.385 . S
C2910 H2891 0.951 . S
C2910 C2908 1.388 . S
C2910 C2911 1.366 . S
C2911 C2910 1.366 . S
C2911 C2912 1.414 . S
C2911 C2914 1.499 . S
C2912 H2892 0.950 . S
C2912 C2911 1.414 . S
C2912 C2913 1.374 . S
C2913 H2893 0.950 . S
C2913 C2909 1.385 . S
C2913 C2912 1.374 . S
C2914 C2911 1.499 . S
C2914 C2915 1.373 . S
C2914 C2916 1.389 . S
C2915 H2894 0.950 . S
C2915 C2914 1.373 . S
C2915 C2931 1.377 . S
C2916 C2914 1.389 . S
C2916 C2917 1.524 . S
C2916 C2930 1.377 . S
C2917 C2916 1.524 . S
C2917 C2918 1.397 . S
C2917 C2922 1.363 . S
C2918 H2895 0.950 . S
C2918 C2917 1.397 . S
C2918 C2919 1.334 . S
C2919 H2896 0.950 . S
C2919 C2918 1.334 . S
C2919 C2920 1.287 . S
C2920 C2919 1.287 . S
C2920 C2921 1.524 . S
C2920 H2939 0.913 . S
C2921 H2897 0.950 . S
C2921 C2920 1.524 . S
C2921 C2922 1.415 . S
C2922 H2898 0.950 . S
C2922 C2917 1.363 . S
C2922 C2921 1.415 . S
C2923 H2899 0.951 . S
C2923 C2924 1.366 . S
C2923 C2925 1.388 . S
C2924 C2923 1.366 . S
C2924 C2928 1.385 . S
C2925 H2900 0.951 . S
C2925 C2923 1.388 . S
C2925 C2926 1.366 . S
C2926 C2925 1.366 . S
C2926 C2927 1.414 . S
C2926 C2929 1.499 . S
C2927 H2901 0.950 . S
C2927 C2926 1.414 . S
C2927 C2928 1.374 . S
C2928 H2902 0.950 . S
C2928 C2924 1.385 . S
C2928 C2927 1.374 . S
C2929 C2926 1.499 . S
C2929 C2930 1.373 . S
C2929 C2931 1.389 . S
C2930 H2903 0.950 . S
C2930 C2916 1.377 . S
C2930 C2929 1.373 . S
C2931 C2915 1.377 . S
C2931 C2929 1.389 . S
C2931 C2932 1.524 . S
C2932 C2931 1.524 . S
C2932 C2933 1.397 . S
C2932 C2937 1.363 . S
C2933 H2904 0.950 . S
C2933 C2932 1.397 . S
C2933 C2934 1.334 . S
C2934 H2905 0.950 1_556 S
C2934 C2933 1.334 . S
C2934 C2935 1.287 . S
C2935 C2934 1.287 . S
C2935 C2936 1.524 . S
C2935 H2938 0.999 . S
C2936 H2906 0.950 . S
C2936 C2935 1.524 . S
C2936 C2937 1.415 . S
C2937 H2907 0.950 . S
C2937 C2932 1.363 . S
C2937 C2936 1.415 . S
H2938 C2935 0.999 . S
H2939 C2920 0.913 . S
H2940 C2958 0.951 . S
H2941 C2960 0.951 . S
H2942 C2962 0.950 . S
H2943 C2963 0.950 . S
H2944 C2965 0.950 . S
H2945 C2968 0.950 . S
H2946 C2969 0.950 . S
H2947 C2971 0.950 . S
H2948 C2972 0.950 . S
H2949 C2973 0.951 . S
H2950 C2975 0.951 . S
H2951 C2977 0.950 . S
H2952 C2978 0.950 . S
H2953 C2980 0.950 . S
H2954 C2983 0.950 . S
H2955 C2984 0.950 . S
H2956 C2986 0.950 . S
H2957 C2987 0.950 . S
C2958 H2940 0.951 . S
C2958 C2959 1.366 . S
C2958 C2960 1.388 . S
C2959 C2958 1.366 . S
C2959 C2963 1.385 . S
C2960 H2941 0.951 . S
C2960 C2958 1.388 . S
C2960 C2961 1.366 . S
C2961 C2960 1.366 . S
C2961 C2962 1.414 . S
C2961 C2964 1.499 . S
C2962 H2942 0.950 . S
C2962 C2961 1.414 . S
C2962 C2963 1.374 . S
C2963 H2943 0.950 . S
C2963 C2959 1.385 . S
C2963 C2962 1.374 . S
C2964 C2961 1.499 . S
C2964 C2965 1.373 . S
C2964 C2966 1.389 . S
C2965 H2944 0.950 . S
C2965 C2964 1.373 . S
C2965 C2981 1.377 . S
C2966 C2964 1.389 . S
C2966 C2967 1.524 . S
C2966 C2980 1.377 . S
C2967 C2966 1.524 . S
C2967 C2968 1.397 . S
C2967 C2972 1.363 . S
C2968 H2945 0.950 . S
C2968 C2967 1.397 . S
C2968 C2969 1.334 . S
C2969 H2946 0.950 . S
C2969 C2968 1.334 . S
C2969 C2970 1.287 . S
C2970 C2969 1.287 . S
C2970 C2971 1.524 . S
C2970 H2989 0.913 . S
C2971 H2947 0.950 . S
C2971 C2970 1.524 . S
C2971 C2972 1.415 . S
C2972 H2948 0.950 . S
C2972 C2967 1.363 . S
C2972 C2971 1.415 . S
C2973 H2949 0.951 . S
C2973 C2974 1.366 . S
C2973 C2975 1.388 . S
C2974 C2973 1.366 . S
C2974 C2978 1.385 . S
C2975 H2950 0.951 . S
C2975 C2973 1.388 . S
C2975 C2976 1.366 . S
C2976 C2975 1.366 . S
C2976 C2977 1.414 . S
C2976 C2979 1.499 . S
C2977 H2951 0.950 . S
C2977 C2976 1.414 . S
C2977 C2978 1.374 . S
C2978 H2952 0.950 . S
C2978 C2974 1.385 . S
C2978 C2977 1.374 . S
C2979 C2976 1.499 . S
C2979 C2980 1.373 . S
C2979 C2981 1.389 . S
C2980 H2953 0.950 . S
C2980 C2966 1.377 . S
C2980 C2979 1.373 . S
C2981 C2965 1.377 . S
C2981 C2979 1.389 . S
C2981 C2982 1.524 . S
C2982 C2981 1.524 . S
C2982 C2983 1.397 . S
C2982 C2987 1.363 . S
C2983 H2954 0.950 . S
C2983 C2982 1.397 . S
C2983 C2984 1.334 . S
C2984 H2955 0.950 . S
C2984 C2983 1.334 . S
C2984 C2985 1.287 . S
C2985 C2984 1.287 . S
C2985 C2986 1.524 . S
C2985 H2988 0.999 . S
C2986 H2956 0.950 . S
C2986 C2985 1.524 . S
C2986 C2987 1.415 . S
C2987 H2957 0.950 . S
C2987 C2982 1.363 . S
C2987 C2986 1.415 . S
H2988 C2985 0.999 . S
H2989 C2970 0.913 . S
H2990 C3008 0.951 . S
H2991 C3010 0.951 . S
H2992 C3012 0.950 . S
H2993 C3013 0.950 . S
H2994 C3015 0.950 . S
H2995 C3018 0.950 . S
H2996 C3019 0.950 . S
H2997 C3021 0.950 . S
H2998 C3022 0.950 . S
H2999 C3023 0.951 . S
H3000 C3025 0.951 . S
H3001 C3027 0.950 . S
H3002 C3028 0.950 . S
H3003 C3030 0.950 . S
H3004 C3033 0.950 . S
H3005 C3034 0.950 . S
H3006 C3036 0.950 1_556 S
H3007 C3037 0.950 . S
C3008 H2990 0.951 . S
C3008 C3009 1.366 . S
C3008 C3010 1.388 . S
C3009 C3008 1.366 . S
C3009 C3013 1.385 . S
C3010 H2991 0.951 . S
C3010 C3008 1.388 . S
C3010 C3011 1.366 . S
C3011 C3010 1.366 . S
C3011 C3012 1.414 . S
C3011 C3014 1.499 . S
C3012 H2992 0.950 . S
C3012 C3011 1.414 . S
C3012 C3013 1.374 . S
C3013 H2993 0.950 . S
C3013 C3009 1.385 . S
C3013 C3012 1.374 . S
C3014 C3011 1.499 . S
C3014 C3015 1.373 . S
C3014 C3016 1.389 . S
C3015 H2994 0.950 . S
C3015 C3014 1.373 . S
C3015 C3031 1.377 . S
C3016 C3014 1.389 . S
C3016 C3017 1.524 . S
C3016 C3030 1.377 . S
C3017 C3016 1.524 . S
C3017 C3018 1.397 . S
C3017 C3022 1.363 . S
C3018 H2995 0.950 . S
C3018 C3017 1.397 . S
C3018 C3019 1.334 . S
C3019 H2996 0.950 . S
C3019 C3018 1.334 . S
C3019 C3020 1.287 . S
C3020 C3019 1.287 . S
C3020 C3021 1.524 . S
C3020 H3039 0.913 . S
C3021 H2997 0.950 . S
C3021 C3020 1.524 . S
C3021 C3022 1.415 . S
C3022 H2998 0.950 . S
C3022 C3017 1.363 . S
C3022 C3021 1.415 . S
C3023 H2999 0.951 . S
C3023 C3024 1.366 . S
C3023 C3025 1.388 . S
C3024 C3023 1.366 . S
C3024 C3028 1.385 . S
C3025 H3000 0.951 . S
C3025 C3023 1.388 . S
C3025 C3026 1.366 . S
C3026 C3025 1.366 . S
C3026 C3027 1.414 . S
C3026 C3029 1.499 . S
C3027 H3001 0.950 . S
C3027 C3026 1.414 . S
C3027 C3028 1.374 . S
C3028 H3002 0.950 . S
C3028 C3024 1.385 . S
C3028 C3027 1.374 . S
C3029 C3026 1.499 . S
C3029 C3030 1.373 . S
C3029 C3031 1.389 . S
C3030 H3003 0.950 . S
C3030 C3016 1.377 . S
C3030 C3029 1.373 . S
C3031 C3015 1.377 . S
C3031 C3029 1.389 . S
C3031 C3032 1.524 . S
C3032 C3031 1.524 . S
C3032 C3033 1.397 . S
C3032 C3037 1.363 . S
C3033 H3004 0.950 . S
C3033 C3032 1.397 . S
C3033 C3034 1.334 . S
C3034 H3005 0.950 . S
C3034 C3033 1.334 . S
C3034 C3035 1.287 . S
C3035 C3034 1.287 . S
C3035 C3036 1.524 . S
C3035 H3038 0.999 . S
C3036 H3006 0.950 1_554 S
C3036 C3035 1.524 . S
C3036 C3037 1.415 . S
C3037 H3007 0.950 . S
C3037 C3032 1.363 . S
C3037 C3036 1.415 . S
H3038 C3035 0.999 . S
H3039 C3020 0.913 . S
C659 C19 1.543 . S
C674 C55 1.482 . S
C709 C98 1.296 . S
C724 C50 1.327 . S
C759 C135 1.482 . S
C774 C99 1.543 . S
C809 C18 1.297 . S
C824 C130 1.332 1_565 S
C859 C9 1.295 . S
C874 C379 1.326 . S
C909 C290 1.543 . S
C924 C46 1.482 . S
C959 C89 1.296 . S
C974 C419 1.326 . S
C1009 C126 1.481 . S
C1024 C530 1.542 . S
C1059 C329 1.297 . S
C1074 C59 1.327 . S
C1109 C486 1.482 . S
C1124 C90 1.543 . S
C1159 C569 1.296 . S
C1174 C139 1.327 . S
C1209 C10 1.543 . S
C1224 C446 1.482 . S
C1259 C15 0.588 . S
C1274 C335 0.588 . S
C1309 C489 1.553 . S
C1324 C169 1.553 . S
C1359 C206 0.588 . S
C1374 C566 0.588 . S
C1409 C449 1.554 . S
C1424 C249 1.553 . S
C1459 C86 0.588 . S
C1474 C286 0.589 . S
C1509 C378 1.553 . S
C1524 C178 1.553 . S
C1559 C258 1.553 . S
C1574 C418 1.553 . S
C1609 C209 1.296 . S
C1624 C459 1.326 . S
C1659 C366 1.481 . S
C1674 C210 1.543 . S
C1709 C455 1.481 . S
C1724 C299 1.543 . S
C1759 C218 1.296 . S
C1774 C170 1.326 . S
C1809 C375 1.482 . S
C1824 C339 1.543 . S
C1859 C538 1.296 . S
C1874 C450 1.327 . S
C1909 C255 1.481 . S
C1924 C219 1.543 . S
C1959 C370 1.332 1_565 S
C1974 C578 1.297 . S
C2009 C526 0.589 . S
C2024 C6 0.589 . S
C2059 C95 0.589 . S
C2074 C575 0.589 . S
C2109 C498 1.554 . S
C2124 C58 1.554 . S
C2159 C295 0.589 . S
C2174 C215 0.589 . S
C2209 C129 1.553 . S
C2224 C409 1.554 . S
C2259 C495 1.481 . S
C2274 C539 1.543 . S
C2309 C298 1.296 . S
C2324 C490 1.327 . S
C2359 C259 1.327 . S
C2374 C289 1.296 . S
C2409 C179 1.327 . S
C2424 C529 1.296 . S
C2459 C499 1.327 . S
C2474 C609 1.296 . S
C2509 C606 0.589 . S
C2524 C326 0.588 . S
C2559 C49 1.554 . S
C2574 C369 1.554 . S
C2609 C330 1.543 . S
C2624 C246 1.482 . S
C2659 C338 1.296 . S
C2674 C410 1.326 . S
C2709 C618 1.296 . S
C2724 C250 1.327 . S
C2759 C535 0.588 . S
C2774 C615 0.589 . S
C2809 C458 1.553 . S
C2824 C138 1.553 . S
C2859 C415 1.481 . S
C2874 C579 1.542 . S
C2909 C406 1.482 . S
C2924 C610 1.543 . S
C2959 C166 1.482 . S
C2974 C570 1.543 . S
C3009 C619 1.542 . S
C3024 C175 1.481 . S
