# Generated by pormake.
# Topology ukl, (4)-cn, num edge types: 1
# Building blocks:
#     Node 0, Type 0, BuildingBlock: KOZSID_clean_sbu_0, # of connection points: 4
#     Node 1, Type 0, BuildingBlock: KOZSID_clean_sbu_0, # of connection points: 4
#     Node 2, Type 0, BuildingBlock: KOZSID_clean_sbu_0, # of connection points: 4
#     Node 3, Type 0, BuildingBlock: KOZSID_clean_sbu_0, # of connection points: 4
#     Node 4, Type 0, BuildingBlock: KOZSID_clean_sbu_0, # of connection points: 4
#     Node 5, Type 0, BuildingBlock: KOZSID_clean_sbu_0, # of connection points: 4
#     Node 6, Type 0, BuildingBlock: KOZSID_clean_sbu_0, # of connection points: 4
#     Node 7, Type 0, BuildingBlock: KOZSID_clean_sbu_0, # of connection points: 4
#     Node 8, Type 0, BuildingBlock: KOZSID_clean_sbu_0, # of connection points: 4
#     Node 9, Type 0, BuildingBlock: KOZSID_clean_sbu_0, # of connection points: 4
#     Node 10, Type 0, BuildingBlock: KOZSID_clean_sbu_0, # of connection points: 4
#     Node 11, Type 0, BuildingBlock: KOZSID_clean_sbu_0, # of connection points: 4
#     Node 12, Type 0, BuildingBlock: KOZSID_clean_sbu_0, # of connection points: 4
#     Node 13, Type 0, BuildingBlock: KOZSID_clean_sbu_0, # of connection points: 4
#     Node 14, Type 0, BuildingBlock: KOZSID_clean_sbu_0, # of connection points: 4
#     Node 15, Type 0, BuildingBlock: KOZSID_clean_sbu_0, # of connection points: 4
#     Edge 16, Type (0, 0), BuildingBlock: EZIPEK_clean_linker_0, # of connection points: 2
#     Edge 17, Type (0, 0), BuildingBlock: EZIPEK_clean_linker_0, # of connection points: 2
#     Edge 18, Type (0, 0), BuildingBlock: EZIPEK_clean_linker_0, # of connection points: 2
#     Edge 19, Type (0, 0), BuildingBlock: EZIPEK_clean_linker_0, # of connection points: 2
#     Edge 20, Type (0, 0), BuildingBlock: EZIPEK_clean_linker_0, # of connection points: 2
#     Edge 21, Type (0, 0), BuildingBlock: EZIPEK_clean_linker_0, # of connection points: 2
#     Edge 22, Type (0, 0), BuildingBlock: EZIPEK_clean_linker_0, # of connection points: 2
#     Edge 23, Type (0, 0), BuildingBlock: EZIPEK_clean_linker_0, # of connection points: 2
#     Edge 24, Type (0, 0), BuildingBlock: EZIPEK_clean_linker_0, # of connection points: 2
#     Edge 25, Type (0, 0), BuildingBlock: EZIPEK_clean_linker_0, # of connection points: 2
#     Edge 26, Type (0, 0), BuildingBlock: EZIPEK_clean_linker_0, # of connection points: 2
#     Edge 27, Type (0, 0), BuildingBlock: EZIPEK_clean_linker_0, # of connection points: 2
#     Edge 28, Type (0, 0), BuildingBlock: EZIPEK_clean_linker_0, # of connection points: 2
#     Edge 29, Type (0, 0), BuildingBlock: EZIPEK_clean_linker_0, # of connection points: 2
#     Edge 30, Type (0, 0), BuildingBlock: EZIPEK_clean_linker_0, # of connection points: 2
#     Edge 31, Type (0, 0), BuildingBlock: EZIPEK_clean_linker_0, # of connection points: 2
#     Edge 32, Type (0, 0), BuildingBlock: EZIPEK_clean_linker_0, # of connection points: 2
#     Edge 33, Type (0, 0), BuildingBlock: EZIPEK_clean_linker_0, # of connection points: 2
#     Edge 34, Type (0, 0), BuildingBlock: EZIPEK_clean_linker_0, # of connection points: 2
#     Edge 35, Type (0, 0), BuildingBlock: EZIPEK_clean_linker_0, # of connection points: 2
#     Edge 36, Type (0, 0), BuildingBlock: EZIPEK_clean_linker_0, # of connection points: 2
#     Edge 37, Type (0, 0), BuildingBlock: EZIPEK_clean_linker_0, # of connection points: 2
#     Edge 38, Type (0, 0), BuildingBlock: EZIPEK_clean_linker_0, # of connection points: 2
#     Edge 39, Type (0, 0), BuildingBlock: EZIPEK_clean_linker_0, # of connection points: 2
#     Edge 40, Type (0, 0), BuildingBlock: EZIPEK_clean_linker_0, # of connection points: 2
#     Edge 41, Type (0, 0), BuildingBlock: EZIPEK_clean_linker_0, # of connection points: 2
#     Edge 42, Type (0, 0), BuildingBlock: EZIPEK_clean_linker_0, # of connection points: 2
#     Edge 43, Type (0, 0), BuildingBlock: EZIPEK_clean_linker_0, # of connection points: 2
#     Edge 44, Type (0, 0), BuildingBlock: EZIPEK_clean_linker_0, # of connection points: 2
#     Edge 45, Type (0, 0), BuildingBlock: EZIPEK_clean_linker_0, # of connection points: 2
#     Edge 46, Type (0, 0), BuildingBlock: EZIPEK_clean_linker_0, # of connection points: 2
#     Edge 47, Type (0, 0), BuildingBlock: EZIPEK_clean_linker_0, # of connection points: 2
# Relax obj value: 0.102
# Max RMSD: 0.123
# Mean RMSD: 0.088
data_MOF--net-ukl--node1-KOZSID_clean_sbu_0--edge1-EZIPEK_clean_linker_0
_symmetry_space_group_name_H-M    P1
_symmetry_Int_Tables_number       1
_symmetry_cell_setting            triclinic
loop_
_symmetry_equiv_pos_as_xyz
'x, y, z'
_cell_length_a     28.699915
_cell_length_b     29.900308
_cell_length_c     22.113194
_cell_angle_alpha  90.233161
_cell_angle_beta   90.05479
_cell_angle_gamma 95.537244
loop_
_atom_site_label
_atom_site_type_symbol
_atom_site_fract_x
_atom_site_fract_y
_atom_site_fract_z
_atom_type_partial_charge
C0 C 0.38533 0.18147 0.95185 0.0
C1 C 0.38274 0.18258 0.88956 0.0
C2 C 0.35505 0.14515 0.87187 0.0
C3 C 0.34205 0.12386 0.9248 0.0
N4 N 0.36056 0.14513 0.97422 0.0
Co5 Co 0.34956 0.1273 0.05904 0.0
N6 N 0.29575 0.08305 0.03589 0.0
C7 C 0.28349 0.06885 0.98004 0.0
C8 C 0.24138 0.04269 0.97819 0.0
C9 C 0.22537 0.04103 0.03584 0.0
C10 C 0.25816 0.06726 0.06944 0.0
N11 N 0.33546 0.10727 0.14364 0.0
C12 C 0.2915 0.09579 0.16662 0.0
C13 C 0.2909 0.10204 0.22791 0.0
C14 C 0.33602 0.11467 0.24467 0.0
C15 C 0.36201 0.11861 0.19283 0.0
N16 N 0.39993 0.17287 0.08433 0.0
C17 C 0.41586 0.18058 0.14106 0.0
C18 C 0.44229 0.22108 0.14728 0.0
C19 C 0.44258 0.23993 0.09089 0.0
C20 C 0.41759 0.20912 0.05326 0.0
N21 N 0.30622 0.17683 0.07049 0.0
C22 C 0.26008 0.25728 0.08823 0.0
C23 C 0.27849 0.23476 0.13634 0.0
C24 C 0.30207 0.19639 0.12662 0.0
C25 C 0.26622 0.23924 0.03036 0.0
C26 C 0.28793 0.19871 0.02258 0.0
N27 N 0.3997 0.08151 0.0459 0.0
C28 C 0.48137 0.06264 0.06163 0.0
C29 C 0.48039 0.03129 0.01386 0.0
C30 C 0.43648 0.02482 0.98394 0.0
C31 C 0.39741 0.04907 0.0008 0.0
C32 C 0.44229 0.08691 0.07596 0.0
H33 H 0.36581 0.04099 0.97585 0.0
H34 H 0.44778 0.10941 0.11321 0.0
H35 H 0.31821 0.18457 0.16588 0.0
H36 H 0.2908 0.18618 0.97731 0.0
C37 C 0.30651 0.08931 0.93081 0.0
C38 C 0.41409 0.21369 0.98779 0.0
C39 C 0.24906 0.08201 0.13048 0.0
C40 C 0.39914 0.15252 0.18828 0.0
H41 H 0.39763 0.20917 0.86112 0.0
H42 H 0.34378 0.13603 0.82649 0.0
H43 H 0.2211 0.03077 0.93974 0.0
H44 H 0.19137 0.02602 0.05026 0.0
H45 H 0.26014 0.10281 0.25568 0.0
H46 H 0.34626 0.12954 0.28693 0.0
H47 H 0.45689 0.23637 0.18843 0.0
H48 H 0.4579 0.27317 0.07911 0.0
H49 H 0.276 0.24764 0.18178 0.0
H50 H 0.25489 0.25697 0.99138 0.0
H51 H 0.51303 0.0691 0.08823 0.0
H52 H 0.43213 1.00105 0.94682 0.0
C53 C 0.75431 0.68812 0.29501 0.0
C54 C 0.77362 0.71389 0.34227 0.0
C55 C 0.75497 0.69485 0.39359 0.0
C56 C 0.72587 0.65799 0.37577 0.0
N57 N 0.7247 0.65293 0.31548 0.0
Co58 Co 0.67867 0.61223 0.26895 0.0
N59 N 0.63549 0.60249 0.33891 0.0
C60 C 0.64786 0.61148 0.39686 0.0
C61 C 0.61242 0.60045 0.43689 0.0
C62 C 0.57569 0.5825 0.40229 0.0
C63 C 0.59042 0.58371 0.34243 0.0
N64 N 0.632 0.57405 0.22062 0.0
C65 C 0.58556 0.56177 0.23123 0.0
C66 C 0.56502 0.54109 0.18025 0.0
C67 C 0.6002 0.53884 0.1384 0.0
C68 C 0.64019 0.55787 0.16527 0.0
N69 N 0.72331 0.62329 0.20021 0.0
C70 C 0.72278 0.59897 0.14898 0.0
C71 C 0.7537 0.61808 0.10654 0.0
C72 C 0.77394 0.65732 0.13227 0.0
C73 C 0.75417 0.66025 0.18899 0.0
N74 N 0.70751 0.55648 0.29464 0.0
C75 C 0.74039 0.47351 0.33644 0.0
C76 C 0.77102 0.51332 0.32783 0.0
C77 C 0.75406 0.55372 0.30549 0.0
C78 C 0.69322 0.47774 0.32253 0.0
C79 C 0.67785 0.51844 0.30409 0.0
N80 N 0.64729 0.66412 0.2431 0.0
C81 C 0.60625 0.69804 0.16306 0.0
C82 C 0.5835 0.72247 0.20543 0.0
C83 C 0.59604 0.72064 0.26649 0.0
C84 C 0.62869 0.69146 0.28441 0.0
C85 C 0.63771 0.66888 0.18283 0.0
H86 H 0.63681 0.68917 0.33183 0.0
H87 H 0.65207 0.6486 0.14895 0.0
H88 H 0.77818 0.58306 0.29832 0.0
H89 H 0.64093 0.51846 0.29848 0.0
C90 C 0.69015 0.63659 0.41104 0.0
C91 C 0.76425 0.69879 0.23119 0.0
C92 C 0.56177 0.564 0.29115 0.0
C93 C 0.68343 0.56867 0.13598 0.0
H94 H 0.79639 0.74485 0.34009 0.0
H95 H 0.75793 0.71033 0.43703 0.0
H96 H 0.61274 0.60655 0.48516 0.0
H97 H 0.54184 0.57058 0.41959 0.0
H98 H 0.5287 0.52845 0.17426 0.0
H99 H 0.59712 0.52719 0.09241 0.0
H100 H 0.75768 0.60722 0.06023 0.0
H101 H 0.79858 0.68199 0.11084 0.0
H102 H 0.80751 0.51433 0.34031 0.0
H103 H 0.66697 0.44942 0.3265 0.0
H104 H 0.59756 0.6994 0.11541 0.0
H105 H 0.57925 0.74002 0.30015 0.0
C106 C 0.12125 0.83761 0.44307 0.0
C107 C 0.1246 0.8374 0.38092 0.0
C108 C 0.15343 0.8745 0.3651 0.0
C109 C 0.1663 0.89492 0.4189 0.0
N110 N 0.14665 0.87317 0.46744 0.0
Co111 Co 0.15725 0.88867 0.55372 0.0
N112 N 0.21032 0.93302 0.53263 0.0
C113 C 0.22056 0.95093 0.47832 0.0
C114 C 0.2574 0.9831 0.48059 0.0
C115 C 0.27472 0.98304 0.5376 0.0
C116 C 0.24613 0.9509 0.56772 0.0
N117 N 0.17116 0.90599 0.63973 0.0
C118 C 0.21456 0.91912 0.66318 0.0
C119 C 0.21473 0.91391 0.72457 0.0
C120 C 0.17042 0.89748 0.74111 0.0
C121 C 0.14501 0.89285 0.68853 0.0
N122 N 0.10618 0.84286 0.57614 0.0
C123 C 0.09074 0.83304 0.63259 0.0
C124 C 0.06638 0.79139 0.6365 0.0
C125 C 0.06658 0.7742 0.57905 0.0
C126 C 0.08921 0.80714 0.54286 0.0
N127 N 0.20052 0.83921 0.56141 0.0
C128 C 0.24366 0.75669 0.57074 0.0
C129 C 0.22378 0.77618 0.62053 0.0
C130 C 0.20233 0.81611 0.615 0.0
C131 C 0.2424 0.78009 0.51597 0.0
C132 C 0.22211 0.82162 0.51245 0.0
N133 N 0.10851 0.93553 0.54501 0.0
C134 C 0.02971 0.95807 0.5686 0.0
C135 C 0.02936 0.98769 0.51931 0.0
C136 C 0.07058 0.99149 0.48463 0.0
C137 C 0.10877 0.96593 0.49796 0.0
C138 C 0.06878 0.93328 0.58066 0.0
H139 H 0.13798 0.97199 0.46889 0.0
H140 H 0.06546 0.91213 0.61935 0.0
H141 H 0.18615 0.82658 0.65513 0.0
H142 H 0.22324 0.83875 0.46972 0.0
C143 C 0.20034 0.93133 0.4258 0.0
C144 C 0.09149 0.80489 0.47688 0.0
C145 C 0.25653 0.93493 0.62733 0.0
C146 C 0.10814 0.85885 0.68207 0.0
H147 H 0.10791 0.81226 0.35135 0.0
H148 H 0.16472 0.8846 0.32023 0.0
H149 H 0.27098 1.00321 0.44501 0.0
H150 H 0.3057 1.00285 0.55417 0.0
H151 H 0.24493 0.91849 0.75284 0.0
H152 H 0.16029 0.88318 0.78455 0.0
H153 H 0.05345 0.77409 0.67693 0.0
H154 H 0.05315 0.74062 0.56568 0.0
H155 H 0.22366 0.7602 0.66395 0.0
H156 H 0.25661 0.76564 0.4762 0.0
H157 H 0.9996 0.95389 0.59825 0.0
H158 H 0.07335 0.01408 0.44635 0.0
C159 C 0.76845 0.33372 0.82183 0.0
C160 C 0.75258 0.30927 0.872 0.0
C161 C 0.77259 0.33143 0.92121 0.0
C162 C 0.79976 0.36774 0.89956 0.0
N163 N 0.79769 0.37066 0.83913 0.0
Co164 Co 0.84103 0.4111 0.78888 0.0
N165 N 0.89016 0.41781 0.85281 0.0
C166 C 0.88295 0.4062 0.91109 0.0
C167 C 0.92114 0.41655 0.9472 0.0
C168 C 0.95437 0.43695 0.90976 0.0
C169 C 0.93478 0.43768 0.85212 0.0
N170 N 0.88323 0.45054 0.73733 0.0
C171 C 0.92889 0.46682 0.74486 0.0
C172 C 0.9447 0.49094 0.69424 0.0
C173 C 0.90703 0.49127 0.65584 0.0
C174 C 0.87058 0.46734 0.68414 0.0
N175 N 0.79193 0.39855 0.72483 0.0
C176 C 0.79004 0.42107 0.67256 0.0
C177 C 0.75969 0.39907 0.63146 0.0
C178 C 0.74204 0.3599 0.65903 0.0
C179 C 0.76298 0.35952 0.71536 0.0
N180 N 0.81578 0.46941 0.81932 0.0
C181 C 0.80065 0.56345 0.8417 0.0
C182 C 0.77233 0.53527 0.80116 0.0
C183 C 0.78002 0.48902 0.79142 0.0
C184 C 0.83498 0.54194 0.87182 0.0
C185 C 0.84193 0.49676 0.86023 0.0
N186 N 0.86975 0.35888 0.75838 0.0
C187 C 0.91074 0.32661 0.67678 0.0
C188 C 0.93289 0.30095 0.71823 0.0
C189 C 0.91893 0.30039 0.77875 0.0
C190 C 0.88645 0.32915 0.79777 0.0
C191 C 0.87973 0.35592 0.69799 0.0
H192 H 0.8775 0.32951 0.84501 0.0
H193 H 0.86617 0.37774 0.66552 0.0
H194 H 0.75699 0.46958 0.76079 0.0
H195 H 0.86978 0.48608 0.88627 0.0
C196 C 0.83978 0.38584 0.92979 0.0
C197 C 0.75588 0.32075 0.75823 0.0
C198 C 0.95691 0.46312 0.80081 0.0
C199 C 0.82695 0.45343 0.65759 0.0
H200 H 0.73147 0.27733 0.87309 0.0
H201 H 0.77348 0.31915 0.96665 0.0
H202 H 0.92425 0.41098 -0.00478 0.0
H203 H 0.98826 0.45134 0.92476 0.0
H204 H 0.97963 0.50674 0.68616 0.0
H205 H 0.90627 0.50491 0.611 0.0
H206 H 0.75433 0.4083 0.58485 0.0
H207 H 0.71868 0.33341 0.63875 0.0
H208 H 0.74363 0.54829 0.77754 0.0
H209 H 0.85672 0.56001 0.90574 0.0
H210 H 0.92027 0.32678 0.62937 0.0
H211 H 0.93483 0.27967 0.8115 0.0
C212 C 0.69276 0.92948 -0.00623 0.0
C213 C 0.69553 0.94707 0.05176 0.0
C214 C 0.73534 0.93323 0.07755 0.0
C215 C 0.75485 0.90711 0.03465 0.0
N216 N 0.73044 0.90541 0.98277 0.0
Co217 Co 0.74496 0.86815 0.91167 0.0
N218 N 0.78212 0.8271 0.9578 0.0
C219 C 0.79534 0.8336 0.01556 0.0
C220 C 0.80684 0.79412 0.04142 0.0
C221 C 0.80282 0.76203 -0.00306 0.0
C222 C 0.78758 0.78278 0.94604 0.0
N223 N 0.7585 0.83193 0.84001 0.0
C224 C 0.77376 0.79028 0.83518 0.0
C225 C 0.78504 0.78163 0.77567 0.0
C226 C 0.77585 0.81888 0.74273 0.0
C227 C 0.75848 0.84787 0.78343 0.0
N228 N 0.70406 0.90601 0.86661 0.0
C229 C 0.70247 0.90871 0.80591 0.0
C230 C 0.66157 0.92466 0.78688 0.0
C231 C 0.63678 0.93199 0.83845 0.0
C232 C 0.66447 0.92353 0.88668 0.0
N233 N 0.80206 0.90924 0.89187 0.0
C234 C 0.88344 0.96124 0.8468 0.0
C235 C 0.83912 0.97801 0.84744 0.0
C236 C 0.79971 0.95254 0.8725 0.0
C237 C 0.88549 0.91806 0.87074 0.0
C238 C 0.84482 0.89232 0.89019 0.0
N239 N 0.69153 0.82754 0.93027 0.0
C240 C 0.62322 0.78338 0.89812 0.0
C241 C 0.61645 0.76843 0.95762 0.0
C242 C 0.64927 0.77997 0.00197 0.0
C243 C 0.68516 0.81193 0.9881 0.0
C244 C 0.66192 0.81242 0.88507 0.0
H245 H 0.70676 0.82438 0.02491 0.0
H246 H 0.66722 0.82376 0.83919 0.0
H247 H 0.7671 0.96767 0.87414 0.0
H248 H 0.84853 0.85804 0.90229 0.0
C249 C 0.78398 0.87267 0.0468 0.0
C250 C 0.65358 0.93554 0.9505 0.0
C251 C 0.7798 0.75975 0.88666 0.0
C252 C 0.73146 0.88363 0.76991 0.0
H253 H 0.67056 0.96653 0.07391 0.0
H254 H 0.74605 0.93882 0.12394 0.0
H255 H 0.81527 0.78803 0.08782 0.0
H256 H 0.80912 0.72713 0.00189 0.0
H257 H 0.79842 0.75176 0.75789 0.0
H258 H 0.77918 0.82317 0.69435 0.0
H259 H 0.64841 0.92579 0.74149 0.0
H260 H 0.60057 0.93767 0.8413 0.0
H261 H 0.83479 1.01082 0.82893 0.0
H262 H 0.91842 0.90321 0.87237 0.0
H263 H 0.59769 0.77433 0.8629 0.0
H264 H 0.64414 0.76855 0.04819 0.0
C265 C 0.39096 0.40771 0.75812 0.0
C266 C 0.38756 0.39694 0.81884 0.0
C267 C 0.39951 0.43527 0.85039 0.0
C268 C 0.41068 0.46815 0.80856 0.0
N269 N 0.40695 0.4524 0.75134 0.0
Co270 Co 0.4422 0.4814 0.68201 0.0
N271 N 0.48034 0.52549 0.73366 0.0
C272 C 0.47051 0.53686 0.79067 0.0
C273 C 0.50651 0.56408 0.8168 0.0
C274 C 0.54108 0.56956 0.7736 0.0
C275 C 0.52431 0.54502 0.72358 0.0
N276 N 0.47854 0.50791 0.61313 0.0
C277 C 0.52311 0.52754 0.61288 0.0
C278 C 0.53897 0.53444 0.55431 0.0
C279 C 0.50274 0.51833 0.51699 0.0
C280 C 0.46681 0.50278 0.5546 0.0
N281 N 0.40622 0.43475 0.63119 0.0
C282 C 0.40508 0.43568 0.57019 0.0
C283 C 0.39139 0.39446 0.54596 0.0
C284 C 0.38129 0.36667 0.59376 0.0
C285 C 0.38906 0.39166 0.64604 0.0
N286 N 0.3946 0.52604 0.66766 0.0
C287 C 0.33658 0.59394 0.62939 0.0
C288 C 0.32401 0.54784 0.61811 0.0
C289 C 0.35222 0.51467 0.63964 0.0
C290 C 0.378 0.60445 0.66214 0.0
C291 C 0.4069 0.57109 0.67807 0.0
N292 N 0.48898 0.44049 0.69491 0.0
C293 C 0.51704 0.37254 0.66242 0.0
C294 C 0.52421 0.36199 0.72307 0.0
C295 C 0.52365 0.39508 0.76709 0.0
C296 C 0.50516 0.43422 0.75212 0.0
C297 C 0.50051 0.41317 0.64903 0.0
H298 H 0.50055 0.45709 0.78837 0.0
H299 H 0.49205 0.41995 0.60278 0.0
H300 H 0.33993 0.48 0.63146 0.0
H301 H 0.44028 0.58343 0.69635 0.0
C302 C 0.43754 0.5088 0.82259 0.0
C303 C 0.38057 0.37355 0.70877 0.0
C304 C 0.55085 0.53902 0.6677 0.0
C305 C 0.43149 0.46955 0.5381 0.0
H306 H 0.38089 0.36417 0.83914 0.0
H307 H 0.40605 0.43661 0.89794 0.0
H308 H 0.50963 0.57442 0.86367 0.0
H309 H 0.57547 0.58736 0.77933 0.0
H310 H 0.57384 0.54699 0.54042 0.0
H311 H 0.5044 0.51285 0.46874 0.0
H312 H 0.39484 0.38383 0.49981 0.0
H313 H 0.37187 0.3314 0.58899 0.0
H314 H 0.29269 0.53736 0.59244 0.0
H315 H 0.38978 0.63918 0.67242 0.0
H316 H 0.51986 0.34809 0.62661 0.0
H317 H 0.53071 0.38892 0.81396 0.0
C318 C 0.82292 0.09688 0.4811 0.0
C319 C 0.80934 0.0738 0.53331 0.0
C320 C 0.76658 0.08735 0.5495 0.0
C321 C 0.7569 0.11933 0.50783 0.0
N322 N 0.78959 0.12449 0.46476 0.0
Co323 Co 0.78804 0.16788 0.39693 0.0
N324 N 0.74592 0.20728 0.43821 0.0
C325 C 0.72445 0.19709 0.491 0.0
C326 C 0.7148 0.2355 0.52176 0.0
C327 C 0.72787 0.27085 0.48454 0.0
C328 C 0.74594 0.25294 0.43297 0.0
N329 N 0.78836 0.21106 0.32866 0.0
C330 C 0.77756 0.25443 0.32701 0.0
C331 C 0.78338 0.27171 0.26908 0.0
C332 C 0.79981 0.23848 0.23431 0.0
C333 C 0.80203 0.20254 0.27213 0.0
N334 N 0.83263 0.13024 0.3569 0.0
C335 C 0.84645 0.13448 0.29875 0.0
C336 C 0.88944 0.11914 0.28957 0.0
C337 C 0.90232 0.10311 0.34413 0.0
C338 C 0.86672 0.10823 0.38393 0.0
N339 N 0.73287 0.1319 0.36094 0.0
C340 C 0.64681 0.08358 0.32575 0.0
C341 C 0.68412 0.06142 0.34888 0.0
C342 C 0.72693 0.08598 0.36518 0.0
C343 C 0.65493 0.13023 0.31769 0.0
C344 C 0.69731 0.15364 0.33665 0.0
N345 N 0.83957 0.2035 0.43397 0.0
C346 C 0.91344 0.24594 0.42716 0.0
C347 C 0.91143 0.25477 0.48923 0.0
C348 C 0.8724 0.2403 0.52264 0.0
C349 C 0.83768 0.2129 0.49458 0.0
C350 C 0.87648 0.22064 0.40002 0.0
H351 H 0.81005 0.19888 0.52291 0.0
H352 H 0.87825 0.21401 0.35229 0.0
H353 H 0.75462 0.06796 0.38338 0.0
H354 H 0.70054 0.18978 0.33334 0.0
C355 C 0.72902 0.15482 0.51769 0.0
C356 C 0.86703 0.09167 0.44719 0.0
C357 C 0.76307 0.2802 0.37981 0.0
C358 C 0.82872 0.16664 0.26162 0.0
H359 H 0.82849 0.05016 0.55769 0.0
H360 H 0.74668 0.07676 0.58919 0.0
H361 H 0.7061 0.23927 0.5688 0.0
H362 H 0.72697 0.30595 0.49599 0.0
H363 H 0.77836 0.30534 0.25415 0.0
H364 H 0.81278 0.24134 0.18852 0.0
H365 H 0.91241 0.12592 0.25145 0.0
H366 H 0.9361 0.09369 0.35596 0.0
H367 H 0.67988 0.0254 0.35554 0.0
H368 H 0.62762 0.14891 0.29955 0.0
H369 H 0.94402 0.25722 0.40055 0.0
H370 H 0.87078 0.24685 0.5708 0.0
C371 C 0.12997 0.61538 0.27094 0.0
C372 C 0.13087 0.62545 0.33199 0.0
C373 C 0.11394 0.58741 0.36143 0.0
C374 C 0.10103 0.55606 0.31793 0.0
N375 N 0.10931 0.57209 0.2618 0.0
Co376 Co 0.07545 0.54657 0.18829 0.0
N377 N 0.02793 0.50803 0.23419 0.0
C378 C 0.03178 0.49681 0.29237 0.0
C379 C 0.99181 0.47323 0.31416 0.0
C380 C 0.96085 0.47008 0.26647 0.0
C381 C 0.98361 0.49218 0.21838 0.0
N382 N 0.04119 0.52464 0.1146 0.0
C383 C 0.99533 0.50899 0.1079 0.0
C384 C 0.9844 0.50312 0.04723 0.0
C385 C 0.025 0.51522 0.01555 0.0
C386 C 0.05873 0.5274 0.05838 0.0
N387 N 0.12241 0.5865 0.14396 0.0
C388 C 0.13188 0.58164 0.08492 0.0
C389 C 0.16052 0.61728 0.06395 0.0
C390 C 0.16919 0.64583 0.11209 0.0
C391 C 0.14627 0.62676 0.16105 0.0
N392 N 0.11472 0.49505 0.18035 0.0
C393 C 0.16588 0.42049 0.14966 0.0
C394 C 0.18874 0.46208 0.16973 0.0
C395 C 0.16268 0.49903 0.18388 0.0
C396 C 0.11696 0.41795 0.14565 0.0
C397 C 0.09244 0.45438 0.16264 0.0
N398 N 0.03592 0.59439 0.19277 0.0
C399 C 0.01764 0.66164 0.14677 0.0
C400 C 1.00624 0.67744 0.20365 0.0
C401 C 1.00093 0.64831 0.25256 0.0
C402 C 0.01654 0.60623 0.24618 0.0
C403 C 0.03164 0.61937 0.14215 0.0
H404 H 0.01701 0.5855 0.28565 0.0
H405 H 0.04404 0.60929 0.0989 0.0
H406 H 0.1812 0.53074 0.19724 0.0
H407 H 0.05484 0.44964 0.15939 0.0
C408 C 0.06597 0.52095 0.32751 0.0
C409 C 0.14855 0.64801 0.22289 0.0
C410 C 0.96244 0.49813 0.15851 0.0
C411 C 0.10192 0.55282 0.04807 0.0
H412 H 0.13933 0.65773 0.35335 0.0
H413 H 0.10464 0.58567 0.40818 0.0
H414 H 0.98445 0.46323 0.36045 0.0
H415 H 0.92512 0.45506 0.26759 0.0
H416 H 0.95041 0.49267 0.02801 0.0
H417 H 0.0283 0.51858 0.9671 0.0
H418 H 0.17035 0.62416 0.01818 0.0
H419 H 0.18793 0.67848 0.11099 0.0
H420 H 0.22648 0.46612 0.17416 0.0
H421 H 0.0973 0.38728 0.13017 0.0
H422 H 0.0204 0.68328 0.10745 0.0
H423 H 0.99158 0.65994 0.29673 0.0
C424 C 0.90099 0.66591 0.42776 0.0
C425 C 0.89964 0.66074 0.36566 0.0
C426 C 0.86161 0.63151 0.35296 0.0
C427 C 0.84173 0.62135 0.40811 0.0
N428 N 0.86499 0.64167 0.45497 0.0
Co429 Co 0.84935 0.63399 0.54234 0.0
N430 N 0.79641 0.58624 0.52464 0.0
C431 C 0.78287 0.57116 0.46937 0.0
C432 C 0.74258 0.54275 0.46905 0.0
C433 C 0.72899 0.53942 0.52762 0.0
C434 C 0.7615 0.56691 0.56069 0.0
N435 N 0.83063 0.6273 0.62973 0.0
C436 C 0.78948 0.60842 0.6544 0.0
C437 C 0.78286 0.62422 0.7121 0.0
C438 C 0.81921 0.65543 0.72331 0.0
C439 C 0.84745 0.65537 0.67423 0.0
N440 N 0.90221 0.68007 0.56117 0.0
C441 C 0.91036 0.70119 0.61444 0.0
C442 C 0.94465 0.7361 0.61249 0.0
C443 C 0.95928 0.73696 0.55396 0.0
C444 C 0.93429 0.7015 0.52409 0.0
N445 N 0.80611 0.68347 0.5359 0.0
C446 C 0.7518 0.75779 0.55114 0.0
C447 C 0.79951 0.76413 0.5381 0.0
C448 C 0.82493 0.72716 0.52758 0.0
C449 C 0.73077 0.71346 0.54985 0.0
C450 C 0.75837 0.67704 0.54313 0.0
N451 N 0.89721 0.58777 0.54766 0.0
C452 C 0.97454 0.57151 0.58543 0.0
C453 C 0.98271 0.54323 0.53602 0.0
C454 C 0.94545 0.53652 0.49416 0.0
C455 C 0.90369 0.55848 0.50079 0.0
C456 C 0.9322 0.59268 0.59064 0.0
H457 H 0.87751 0.55266 0.46614 0.0
H458 H 0.92874 0.61428 0.62912 0.0
H459 H 0.85989 0.73519 0.51223 0.0
H460 H 0.7399 0.6444 0.54196 0.0
C461 C 0.80455 0.58962 0.41839 0.0
C462 C 0.93725 0.69369 0.45903 0.0
C463 C 0.75129 0.58238 0.62178 0.0
C464 C 0.88341 0.68871 0.66411 0.0
H465 H 0.92394 0.67631 0.33329 0.0
H466 H 0.85102 0.61825 0.30901 0.0
H467 H 0.72236 0.53001 0.4306 0.0
H468 H 0.69599 0.52267 0.54258 0.0
H469 H 0.75127 0.61935 0.73871 0.0
H470 H 0.82134 0.68051 0.75825 0.0
H471 H 0.9558 0.75955 0.64827 0.0
H472 H 0.98261 0.76321 0.53459 0.0
H473 H 0.81719 0.79774 0.53508 0.0
H474 H 0.69323 0.70695 0.55512 0.0
H475 H 1.00103 0.57755 0.62018 0.0
H476 H 0.94882 0.51474 0.45547 0.0
C477 C 0.24371 0.18394 0.82462 0.0
C478 C 0.23097 0.21779 0.86194 0.0
C479 C 0.21202 0.19748 0.91234 0.0
C480 C 0.21063 0.15212 0.90231 0.0
N481 N 0.224 0.14306 0.84541 0.0
Co482 Co 0.18551 0.10091 0.79043 0.0
N483 N 0.13401 0.0887 0.84952 0.0
C484 C 0.13797 0.09703 0.90911 0.0
C485 C 0.09596 0.09187 0.9382 0.0
C486 C 0.06414 0.07626 0.89541 0.0
C487 C 0.08827 0.07372 0.84136 0.0
N488 N 0.14686 0.06273 0.73259 0.0
C489 C 0.09978 0.05031 0.73232 0.0
C490 C 0.08676 0.02939 0.67807 0.0
C491 C 0.12715 0.02747 0.64485 0.0
C492 C 0.1627 0.04744 0.67997 0.0
N493 N 0.23824 0.11399 0.73328 0.0
C494 C 0.24647 0.08808 0.68582 0.0
C495 C 0.2902 0.09908 0.66173 0.0
C496 C 0.31018 0.13423 0.69669 0.0
C497 C 0.27558 0.14624 0.73582 0.0
N498 N 0.21196 0.04498 0.82066 0.0
C499 C 0.24168 0.95953 0.85891 0.0
C500 C 0.27373 0.99845 0.85102 0.0
C501 C 0.25824 0.04013 0.83042 0.0
C502 C 0.19456 0.96634 0.84862 0.0
C503 C 0.18087 1.00778 0.82974 0.0
N504 N 0.15601 0.15236 0.75971 0.0
C505 C 0.12328 0.18851 0.67501 0.0
C506 C 0.09446 0.20972 0.71445 0.0
C507 C 0.10009 0.20551 0.77653 0.0
C508 C 0.13107 0.17677 0.79825 0.0
C509 C 0.15409 0.15981 0.69875 0.0
H510 H 0.13218 0.17238 0.84624 0.0
H511 H 0.17375 0.1414 0.66747 0.0
H512 H 0.28371 0.06828 0.8216 0.0
H513 H 0.14413 1.00895 0.82229 0.0
C514 C 0.17591 0.12443 0.93098 0.0
C515 C 0.27567 0.1901 0.77039 0.0
C516 C 0.06758 0.05429 0.78465 0.0
C517 C 0.20971 0.05835 0.66207 0.0
H518 H 0.23184 0.25325 0.85261 0.0
H519 H 0.19363 0.21381 0.94759 0.0
H520 H 0.08849 0.10399 0.9829 0.0
H521 H 0.02712 0.07025 0.90322 0.0
H522 H 0.05177 0.01679 0.6644 0.0
H523 H 0.13016 0.01518 0.59935 0.0
H524 H 0.30571 0.0837 0.62322 0.0
H525 H 0.3449 0.15111 0.69069 0.0
H526 H 0.31048 0.99736 0.8611 0.0
H527 H 0.16724 0.93928 0.85494 0.0
H528 H 0.11991 0.19168 0.62662 0.0
H529 H 0.07847 0.22216 0.80803 0.0
C530 C 0.60366 0.35223 0.9355 0.0
C531 C 0.59981 0.35458 0.87345 0.0
C532 C 0.63587 0.3839 0.85428 0.0
C533 C 0.66103 0.39541 0.90545 0.0
N534 N 0.64203 0.3768 0.9564 0.0
Co535 Co 0.66104 0.3909 0.04178 0.0
N536 N 0.71326 0.43519 0.01373 0.0
C537 C 0.72083 0.44985 0.95701 0.0
C538 C 0.75263 0.48627 0.95329 0.0
C539 C 0.77092 0.49299 0.00951 0.0
C540 C 0.7469 0.46075 0.04507 0.0
N541 N 0.68202 0.40792 0.12639 0.0
C542 C 0.7224 0.43226 0.14581 0.0
C543 C 0.72923 0.42642 0.20643 0.0
C544 C 0.69303 0.39738 0.22672 0.0
C545 C 0.66562 0.38706 0.17712 0.0
N546 N 0.6106 0.34642 0.07016 0.0
C547 C 0.605 0.33068 0.12682 0.0
C548 C 0.57232 0.29434 0.1312 0.0
C549 C 0.55634 0.28692 0.07345 0.0
C550 C 0.57937 0.31993 0.03752 0.0
N551 N 0.70206 0.33913 0.04286 0.0
C552 C 0.74129 0.25559 0.06193 0.0
C553 C 0.70669 0.25958 0.01838 0.0
C554 C 0.6881 0.30107 0.0095 0.0
C555 C 0.75661 0.29428 0.09469 0.0
C556 C 0.73629 0.33472 0.08547 0.0
N557 N 0.61364 0.43764 0.04077 0.0
C558 C 0.53555 0.45555 0.07323 0.0
C559 C 0.52738 0.47857 0.0191 0.0
C560 C 0.56506 0.48244 0.97818 0.0
C561 C 0.60746 0.46351 0.99053 0.0
C562 C 0.57806 0.43543 0.08282 0.0
H563 H 0.6342 0.4691 0.9573 0.0
H564 H 0.58126 0.41701 0.12411 0.0
H565 H 0.66168 0.30116 0.97583 0.0
H566 H 0.74896 0.36145 0.11449 0.0
C567 C 0.69736 0.42922 0.90812 0.0
C568 C 0.57115 0.32501 0.97281 0.0
C569 C 0.76027 0.4527 0.10667 0.0
C570 C 0.63115 0.35095 0.17417 0.0
H571 H 0.57371 0.33635 0.84537 0.0
H572 H 0.64279 0.39558 0.80857 0.0
H573 H 0.75925 0.50629 0.91442 0.0
H574 H 0.79839 0.51847 0.02298 0.0
H575 H 0.75997 0.43862 0.23095 0.0
H576 H 0.68954 0.38193 0.27074 0.0
H577 H 0.56217 0.27494 0.1711 0.0
H578 H 0.53221 0.25914 0.05904 0.0
H579 H 0.69371 0.23071 0.9914 0.0
H580 H 0.78382 0.29347 0.12828 0.0
H581 H 0.50902 0.45273 0.10814 0.0
H582 H 0.56198 0.50062 0.9363 0.0
C583 C 0.2911 0.83763 0.33956 0.0
C584 C 0.30007 0.80279 0.37728 0.0
C585 C 0.32395 0.82124 0.42594 0.0
C586 C 0.33257 0.86617 0.41443 0.0
N587 N 0.3158 0.87707 0.35969 0.0
Co588 Co 0.34833 0.92419 0.30567 0.0
N589 N 0.40648 0.93166 0.35573 0.0
C590 C 0.41032 0.91602 0.41221 0.0
C591 C 0.45478 0.92321 0.43526 0.0
C592 C 0.48039 0.94629 0.39123 0.0
C593 C 0.44988 0.95201 0.34378 0.0
N594 N 0.37984 0.96872 0.2498 0.0
C595 C 0.42482 0.9882 0.24783 0.0
C596 C 0.43073 0.01754 0.19968 0.0
C597 C 0.38803 0.01614 0.17128 0.0
C598 C 0.35838 0.98719 0.20357 0.0
N599 N 0.2904 0.91266 0.25505 0.0
C600 C 0.27882 0.9392 0.20976 0.0
C601 C 0.23587 0.92571 0.18517 0.0
C602 C 0.21997 0.88758 0.21609 0.0
C603 C 0.25561 0.87743 0.25468 0.0
N604 N 0.32443 0.97875 0.34981 0.0
C605 C 0.30739 0.0717 0.38142 0.0
C606 C 0.27649 0.04287 0.34492 0.0
C607 C 0.2849 0.99741 0.33126 0.0
C608 C 0.3446 0.05002 0.40592 0.0
C609 C 0.35311 1.00556 0.38874 0.0
N610 N 0.37496 0.87601 0.26087 0.0
C611 C 0.40185 0.84726 0.16635 0.0
C612 C 0.4298 0.81969 0.19805 0.0
C613 C 0.42664 0.81769 0.26087 0.0
C614 C 0.39904 0.84589 0.2913 0.0
C615 C 0.37459 0.87535 0.19884 0.0
H616 H 0.39952 0.84468 0.33964 0.0
H617 H 0.35527 0.89799 0.17356 0.0
H618 H 0.25823 0.97719 0.30723 0.0
H619 H 0.38394 0.99447 0.40837 0.0
C620 C 0.37365 0.88872 0.43751 0.0
C621 C 0.25782 0.83263 0.28589 0.0
C622 C 0.46215 0.98113 0.29183 0.0
C623 C 0.31177 0.97305 0.18825 0.0
H624 H 0.29351 0.76715 0.36929 0.0
H625 H 0.34043 0.80256 0.46033 0.0
H626 H 0.46735 0.91211 0.47832 0.0
H627 H 0.51705 0.95855 0.39433 0.0
H628 H 0.46252 0.03758 0.18678 0.0
H629 H 0.37881 0.03289 0.1311 0.0
H630 H 0.21871 0.94085 0.1479 0.0
H631 H 0.18726 0.86788 0.20761 0.0
H632 H 0.24429 0.05445 0.32876 0.0
H633 H 0.36784 0.06734 0.43885 0.0
H634 H 0.4032 0.84895 0.11744 0.0
H635 H 0.4475 0.79611 0.28662 0.0
C636 C 0.19554 0.4449 0.52193 0.0
C637 C 0.20048 0.46397 0.57899 0.0
C638 C 0.23835 0.44685 0.60504 0.0
C639 C 0.25474 0.41862 0.56241 0.0
N640 N 0.23028 0.41774 0.51063 0.0
Co641 Co 0.24082 0.37808 0.43961 0.0
N642 N 0.27562 0.33577 0.48676 0.0
C643 C 0.28429 0.34077 0.54615 0.0
C644 C 0.28711 0.30055 0.57432 0.0
C645 C 0.2848 0.26852 0.52965 0.0
C646 C 0.27779 0.2907 0.47642 0.0
N647 N 0.25203 0.33969 0.36861 0.0
C648 C 0.26597 0.29728 0.36476 0.0
C649 C 0.27271 0.28582 0.30499 0.0
C650 C 0.26193 0.32191 0.27077 0.0
C651 C 0.24885 0.35345 0.31122 0.0
N652 N 0.20142 0.41762 0.39495 0.0
C653 C 0.19689 0.41801 0.33448 0.0
C654 C 0.15634 0.43586 0.31757 0.0
C655 C 0.13548 0.44809 0.37025 0.0
C656 C 0.16422 0.4384 0.41683 0.0
N657 N 0.29913 0.41662 0.41796 0.0
C658 C 0.38099 0.46774 0.37188 0.0
C659 C 0.33819 0.48672 0.37973 0.0
C660 C 0.29862 0.46136 0.40467 0.0
C661 C 0.38104 0.42232 0.38848 0.0
C662 C 0.3399 0.39728 0.40874 0.0
N663 N 0.1847 0.34027 0.45807 0.0
C664 C 0.11226 0.30275 0.42403 0.0
C665 C 0.0973 0.30102 0.48378 0.0
C666 C 0.12807 0.31297 0.53067 0.0
C667 C 0.17205 0.33241 0.51681 0.0
C668 C 0.1563 0.32352 0.41196 0.0
H669 H 0.19392 0.34397 0.55393 0.0
H670 H 0.1657 0.32871 0.36533 0.0
H671 H 0.26715 0.47784 0.41141 0.0
H672 H 0.34126 0.36186 0.4167 0.0
C673 C 0.27787 0.3811 0.5765 0.0
C674 C 0.15567 0.45049 0.48126 0.0
C675 C 0.27322 0.26755 0.41688 0.0
C676 C 0.22252 0.38987 0.29823 0.0
H677 H 0.17729 0.48548 0.60087 0.0
H678 H 0.24902 0.45047 0.65193 0.0
H679 H 0.28686 0.2956 0.62245 0.0
H680 H 0.28533 0.23269 0.53534 0.0
H681 H 0.28372 0.25448 0.28824 0.0
H682 H 0.26178 0.32404 0.22212 0.0
H683 H 0.1403 0.43473 0.27359 0.0
H684 H 0.10096 0.45832 0.37555 0.0
H685 H 0.33516 0.52122 0.36686 0.0
H686 H 0.41269 0.40555 0.38439 0.0
H687 H 0.08857 0.2926 0.38721 0.0
H688 H 0.11687 0.3107 0.57727 0.0
C689 C 0.87059 0.91416 0.23955 0.0
C690 C 0.84868 0.9076 0.29487 0.0
C691 C 0.86238 0.94477 0.32914 0.0
C692 C 0.89175 0.9722 0.29312 0.0
N693 N 0.89669 0.95481 0.23763 0.0
Co694 Co 0.9371 0.98349 0.17217 0.0
N695 N 0.97429 0.02416 0.2291 0.0
C696 C 0.96511 0.02909 0.28816 0.0
C697 C 1.00262 0.0502 0.31942 0.0
C698 C 0.03699 0.05997 0.27726 0.0
C699 C 0.0191 0.04309 0.22277 0.0
N700 N 0.9759 1.01281 0.10647 0.0
C701 C 0.02043 0.03267 0.10984 0.0
C702 C 0.03992 0.03714 0.05301 0.0
C703 C 1.0057 0.0216 0.01271 0.0
C704 C 0.96719 1.00771 0.04684 0.0
N705 N 0.90237 0.93925 0.11727 0.0
C706 C 0.90654 0.93896 0.05665 0.0
C707 C 0.89816 0.89642 0.03303 0.0
C708 C 0.88627 0.86913 0.08122 0.0
C709 C 0.88596 0.89608 0.13139 0.0
N710 N 0.89163 0.02816 0.15824 0.0
C711 C 0.83189 0.09402 0.12408 0.0
C712 C 0.81493 0.04831 0.1287 0.0
C713 C 0.84515 0.01608 0.14676 0.0
C714 C 0.87935 0.10544 0.13693 0.0
C715 C 0.90839 0.0724 0.15313 0.0
N716 N 0.98313 0.9409 0.18357 0.0
C717 C 0.03509 0.89188 0.13959 0.0
C718 C 0.02827 0.86524 0.19025 0.0
C719 C 0.0109 0.88305 0.24315 0.0
C720 C 0.98897 0.92218 0.23891 0.0
C721 C 1.00877 0.92794 0.13534 0.0
H722 H 0.97297 0.93432 0.2789 0.0
H723 H 1.00611 0.94158 0.09108 0.0
H724 H 0.83125 0.98126 0.14985 0.0
H725 H 0.94499 0.08283 0.16049 0.0
C726 C 0.92516 1.00593 0.31417 0.0
C727 C 0.86813 0.87997 0.19129 0.0
C728 C 0.04631 0.0435 0.16635 0.0
C729 C 0.93393 0.97346 0.02738 0.0
H730 H 0.82709 0.87806 0.30991 0.0
H731 H 0.85503 0.94883 0.37633 0.0
H732 H 1.00564 0.05562 0.36773 0.0
H733 H 0.07193 0.07566 0.28606 0.0
H734 H 0.07651 0.04523 0.043 0.0
H735 H 0.0109 1.01306 0.96588 0.0
H736 H 0.90615 0.88541 0.98799 0.0
H737 H 0.88227 0.83312 0.08083 0.0
H738 H 0.77873 0.03755 0.11803 0.0
H739 H 0.89433 0.14002 0.13348 0.0
H740 H 0.05149 0.87967 0.0994 0.0
H741 H 1.00865 0.86411 0.28492 0.0
C742 C 0.32665 0.58159 -0.00155 0.0
C743 C 0.32907 0.56667 0.05753 0.0
C744 C 0.30031 0.59111 0.09075 0.0
C745 C 0.28203 0.61929 0.0501 0.0
N746 N 0.29646 0.61377 -0.00684 0.0
Co747 Co 0.28015 0.65091 0.92214 0.0
N748 N 0.25618 0.69878 0.97317 0.0
C749 C 0.25434 0.69752 0.03383 0.0
C750 C 0.2552 0.73907 0.05967 0.0
C751 C 0.25558 0.76882 0.01297 0.0
C752 C 0.25605 0.74357 0.96035 0.0
N753 N 0.26311 0.68685 0.85216 0.0
C754 C 0.25501 0.73097 0.84798 0.0
C755 C 0.24101 0.7404 0.78989 0.0
C756 C 0.24073 0.70084 0.75736 0.0
C757 C 0.25474 0.66951 0.79677 0.0
N758 N 0.3077 0.60548 0.87151 0.0
C759 C 0.2945 0.59646 0.81414 0.0
C760 C 0.30984 0.55708 0.79362 0.0
C761 C 0.33473 0.54139 0.84112 0.0
C762 C 0.3355 0.57263 0.88723 0.0
N763 N 0.2179 0.61617 0.91577 0.0
C764 C 0.13394 0.56632 0.87568 0.0
C765 C 0.17575 0.54615 0.88409 0.0
C766 C 0.21546 0.57051 0.90872 0.0
C767 C 0.1354 0.61243 0.89071 0.0
C768 C 0.1781 0.63712 0.90664 0.0
N769 N 0.3402 0.68425 0.92467 0.0
C770 C 0.40721 0.71717 0.87176 0.0
C771 C 0.42984 0.72329 0.92707 0.0
C772 C 0.40582 0.71479 0.98109 0.0
C773 C 0.3606 0.69581 0.9788 0.0
C774 C 0.36254 0.69551 0.87149 0.0
H775 H 0.34388 0.688 0.02099 0.0
H776 H 0.34697 0.68627 0.82836 0.0
H777 H 0.24545 0.55255 0.9178 0.0
H778 H 0.17887 0.6731 0.91223 0.0
C779 C 0.265 0.65949 0.06537 0.0
C780 C 0.35463 0.56561 0.94902 0.0
C781 C 0.25795 0.76357 0.89901 0.0
C782 C 0.26858 0.62661 0.78216 0.0
H783 H 0.35097 0.5423 0.07526 0.0
H784 H 0.29687 0.5914 0.1395 0.0
H785 H 0.26125 0.74655 0.10685 0.0
H786 H 0.25858 0.80503 0.01736 0.0
H787 H 0.23173 0.77235 0.7732 0.0
H788 H 0.23257 0.6956 0.71028 0.0
H789 H 0.30156 0.54034 0.75098 0.0
H790 H 0.34483 0.5081 0.84513 0.0
H791 H 0.17815 0.51133 0.87205 0.0
H792 H 0.10424 0.62999 0.88771 0.0
H793 H 0.42535 0.72496 0.82959 0.0
H794 H 0.42282 0.7203 0.02469 0.0
C795 C 0.64695 0.1 0.74246 0.0
C796 C 0.66982 0.10056 0.79757 0.0
C797 C 0.65078 0.06363 0.82848 0.0
C798 C 0.61767 0.0424 0.7906 0.0
N799 N 0.61541 0.06272 0.73693 0.0
Co800 Co 0.5707 0.04229 0.67017 0.0
N801 N 0.53001 1.00169 0.72331 0.0
C802 C 0.54031 0.99098 0.78034 0.0
C803 C 0.50472 0.96467 0.80811 0.0
C804 C 0.46961 0.95863 0.76578 0.0
C805 C 0.4858 0.98182 0.71459 0.0
N806 N 0.52699 0.02286 0.60276 0.0
C807 C 0.48256 1.00237 0.60404 0.0
C808 C 0.4635 0.99921 0.54644 0.0
C809 C 0.49753 0.01763 0.50794 0.0
C810 C 0.53558 0.03052 0.54377 0.0
N811 N 0.61089 0.08505 0.61919 0.0
C812 C 0.60707 0.0885 0.55866 0.0
C813 C 0.62517 0.12976 0.53818 0.0
C814 C 0.64239 0.15268 0.58824 0.0
C815 C 0.63574 0.12459 0.63663 0.0
N816 N 0.60787 0.99179 0.64915 0.0
C817 C 0.6559 0.91721 0.61459 0.0
C818 C 0.6805 0.95838 0.63234 0.0
C819 C 0.65583 0.9955 0.6485 0.0
C820 C 0.60711 0.91509 0.6131 0.0
C821 C 0.5841 0.95161 0.63248 0.0
N822 N 0.53251 0.09041 0.68915 0.0
C823 C 0.49975 0.15605 0.65399 0.0
C824 C 0.50603 0.17402 0.71175 0.0
C825 C 0.51468 0.14633 0.76016 0.0
C826 C 0.52744 0.10374 0.74768 0.0
C827 C 0.51442 0.11407 0.64329 0.0
H828 H 0.53778 0.08393 0.78486 0.0
H829 H 0.51564 0.10363 0.59702 0.0
H830 H 0.67536 0.02693 0.66085 0.0
H831 H 0.54654 0.94686 0.6336 0.0
C832 C 0.58107 1.01099 0.80791 0.0
C833 C 0.65347 0.13721 0.69854 0.0
C834 C 0.45838 0.98401 0.65849 0.0
C835 C 0.57363 0.0605 0.52664 0.0
H836 H 0.69559 0.12629 0.81481 0.0
H837 H 0.6579 0.05536 0.87464 0.0
H838 H 0.50366 0.9527 0.85423 0.0
H839 H 0.43576 0.93994 0.77205 0.0
H840 H 0.42845 0.98583 0.53375 0.0
H841 H 0.4937 0.0241 0.46025 0.0
H842 H 0.62191 0.14378 0.49367 0.0
H843 H 0.65503 0.1873 0.59056 0.0
H844 H 0.71839 0.96179 0.63369 0.0
H845 H 0.5866 0.88442 0.59924 0.0
H846 H 0.49096 0.17673 0.61629 0.0
H847 H 0.51705 0.15925 0.80602 0.0
C848 C 0.56311 0.93704 0.96844 0.0
C849 C 0.60907 0.96037 0.9672 0.0
C850 C 0.56977 0.03076 0.98698 0.0
C851 C 0.52468 1.00652 -0.00366 0.0
N852 N 0.4836 0.93284 0.00794 0.0
N853 N 0.65477 0.03123 0.98402 0.0
C854 C 0.5229 0.95865 0.98993 0.0
C855 C 0.61179 1.00762 0.97962 0.0
N856 N 0.55712 0.89385 0.94787 0.0
N857 N 0.57249 0.07634 0.98068 0.0
H858 H 0.6857 0.0175 0.97297 0.0
H859 H 0.65969 0.0639 0.00105 0.0
H860 H 0.54312 0.09427 0.98177 0.0
H861 H 0.60287 0.09566 0.96735 0.0
H862 H 0.52415 0.87747 0.93877 0.0
H863 H 0.58496 0.87596 0.93501 0.0
H864 H 0.48185 0.89793 0.01056 0.0
H865 H 0.45478 0.94638 0.0268 0.0
C866 C 0.79216 0.82545 0.19142 0.0
C867 C 0.84146 0.83291 0.20085 0.0
C868 C 0.84054 0.75213 0.229 0.0
C869 C 0.79201 0.74401 0.21465 0.0
N870 N 0.72336 0.77273 0.17383 0.0
N871 N 0.90895 0.80583 0.24653 0.0
C872 C 0.76837 0.78075 0.19384 0.0
C873 C 0.86463 0.79671 0.2245 0.0
N874 N 0.76731 0.86165 0.18409 0.0
N875 N 0.86378 0.71661 0.24635 0.0
H876 H 0.92658 0.83782 0.24466 0.0
H877 H 0.92705 0.78332 0.27076 0.0
H878 H 0.84801 0.68372 0.24633 0.0
H879 H 0.89916 0.71882 0.25671 0.0
H880 H 0.73088 0.8596 0.18348 0.0
H881 H 0.78333 0.89442 0.18453 0.0
H882 H 0.706 0.79637 0.15051 0.0
H883 H 0.70512 0.74091 0.17515 0.0
C884 C 0.99102 0.06232 0.50399 0.0
C885 C 0.98682 0.01431 0.50409 0.0
C886 C 0.90225 0.01693 0.47667 0.0
C887 C 0.90772 0.06477 0.47045 0.0
N888 N 0.96168 0.1316 0.46976 0.0
N889 N 0.9383 0.94634 0.48004 0.0
C890 C 0.95341 0.08684 0.48182 0.0
C891 C 0.94216 0.99187 0.48823 0.0
N892 N 0.03039 0.08504 0.52791 0.0
N893 N 0.85868 0.99476 0.47092 0.0
H894 H 0.96632 0.92701 0.48581 0.0
H895 H 0.90864 0.92816 0.4622 0.0
H896 H 0.83017 1.00986 0.454 0.0
H897 H 0.85055 0.96176 0.48516 0.0
H898 H 0.03372 0.1196 0.53566 0.0
H899 H 0.05788 0.06882 0.54572 0.0
H900 H 0.99526 0.14822 0.46765 0.0
H901 H 0.93524 0.15142 0.45767 0.0
C902 C 0.66207 0.21415 0.75652 0.0
C903 C 0.68085 0.18396 0.71497 0.0
C904 C 0.74963 0.24232 0.70304 0.0
C905 C 0.72926 0.27373 0.74125 0.0
N906 N 0.66079 0.29024 0.79512 0.0
N907 N 0.75006 0.16892 0.65939 0.0
C908 C 0.68417 0.25936 0.76566 0.0
C909 C 0.7262 0.19821 0.69099 0.0
N910 N 0.62299 0.19945 0.78848 0.0
N911 N 0.7926 0.25381 0.67835 0.0
H912 H 0.73756 0.13539 0.65287 0.0
H913 H 0.73756 0.13539 0.65287 0.0
H914 H 0.81136 0.28485 0.68616 0.0
H915 H 0.80905 0.23229 0.64989 0.0
H916 H 0.60962 0.21714 0.82385 0.0
H917 H 0.60543 0.16776 0.78253 0.0
H918 H 0.62644 0.28427 0.80984 0.0
H919 H 0.67452 0.32356 0.79813 0.0
C920 C 0.33135 0.2452 0.6983 0.0
C921 C 0.30585 0.23619 0.75387 0.0
C922 C 0.32076 0.3183 0.76906 0.0
C923 C 0.35527 0.32539 0.72278 0.0
N924 N 0.4034 0.28072 0.65932 0.0
N925 N 0.31613 0.26966 0.85424 0.0
C926 C 0.36445 0.28431 0.69292 0.0
C927 C 0.31091 0.27432 0.79368 0.0
N928 N 0.3201 0.22279 0.64627 0.0
N929 N 0.29679 0.35216 0.79011 0.0
H930 H 0.31839 0.23844 0.87406 0.0
H931 H 0.3217 0.29769 0.88263 0.0
H932 H 0.2991 0.38365 0.76949 0.0
H933 H 0.27195 0.34654 0.82446 0.0
H934 H 0.28833 0.20323 0.6402 0.0
H935 H 0.28833 0.20323 0.6402 0.0
H936 H 0.43057 0.30645 0.65645 0.0
H937 H 0.43057 0.30645 0.65645 0.0
C938 C 0.20656 0.77565 0.20904 0.0
C939 C 0.22695 0.78639 0.26775 0.0
C940 C 0.20433 0.70538 0.28933 0.0
C941 C 0.17558 0.69642 0.23703 0.0
N942 N 0.141 0.73753 0.15571 0.0
N943 N 0.2079 0.76007 0.36891 0.0
C944 C 0.17376 0.73586 0.19977 0.0
C945 C 0.21549 0.75081 0.30991 0.0
N946 N 0.21873 0.8018 0.16051 0.0
N947 N 0.22351 0.67178 0.3187 0.0
H948 H 0.20765 0.79305 0.38422 0.0
H949 H 0.19817 0.73448 0.39967 0.0
H950 H 0.2215 0.63912 0.30138 0.0
H951 H 0.24481 0.6784 0.35667 0.0
H952 H 0.2501 0.82252 0.15968 0.0
H953 H 0.2009 0.79783 0.11936 0.0
H954 H 0.11392 0.71215 0.14871 0.0
H955 H 0.11392 0.71215 0.14871 0.0
C956 C 0.03005 0.47292 0.5372 0.0
C957 C 0.02884 0.52021 0.52864 0.0
C958 C 0.11352 0.52323 0.49983 0.0
C959 C 0.11306 0.47552 0.50215 0.0
N960 N 0.07829 0.41168 0.55648 0.0
N961 N 0.07596 0.59119 0.51808 0.0
C962 C 0.07336 0.45225 0.53063 0.0
C963 C 0.0726 0.54541 0.5155 0.0
N964 N 0.98992 0.44736 0.55262 0.0
N965 N 0.15344 0.54913 0.48494 0.0
H966 H 0.04763 0.60933 0.52769 0.0
H967 H 0.10761 0.61086 0.51163 0.0
H968 H 0.18485 0.53628 0.47359 0.0
H969 H 0.18485 0.53628 0.47359 0.0
H970 H 0.98773 0.41258 0.55671 0.0
H971 H 0.95805 0.46071 0.55833 0.0
H972 H 0.05305 0.39476 0.58402 0.0
H973 H 0.10993 0.3974 0.55542 0.0
C974 C 0.44244 0.56853 0.97566 0.0
C975 C 0.3992 0.54236 0.96417 0.0
C976 C 0.43676 0.47585 0.00171 0.0
C977 C 0.48187 0.50097 0.00586 0.0
N978 N 0.52537 0.57402 -2e-05 0.0
N979 N 0.35395 0.47126 0.97766 0.0
C980 C 0.48375 0.54809 -0.00607 0.0
C981 C 0.39621 0.49637 0.98106 0.0
N982 N 0.44319 0.614 0.97346 0.0
N983 N 0.43073 0.43143 0.01578 0.0
H984 H 0.32353 0.48415 0.96251 0.0
H985 H 0.34983 0.43727 0.98871 0.0
H986 H 0.45739 0.4126 0.03 0.0
H987 H 0.45739 0.4126 0.03 0.0
H988 H 0.46871 0.63578 -0.00541 0.0
H989 H 0.41615 0.62955 0.95378 0.0
H990 H 0.53103 0.60681 0.98426 0.0
H991 H 0.5549 0.5625 0.01958 0.0
C992 C 0.17638 0.33631 0.15953 0.0
C993 C 0.19139 0.37913 0.13389 0.0
C994 C 0.25351 0.34241 0.07973 0.0
C995 C 0.23489 0.29919 0.09999 0.0
N996 N 0.17128 0.25518 0.1493 0.0
N997 N 0.23853 0.41914 0.05725 0.0
C998 C 0.19399 0.29632 0.13665 0.0
C999 C 0.22849 0.38113 0.09063 0.0
N1000 N 0.14722 0.33368 0.20845 0.0
N1001 N 0.29614 0.34711 0.05199 0.0
H1002 H 0.21996 0.44728 0.06123 0.0
H1003 H 0.26185 0.42085 0.02106 0.0
H1004 H 0.31565 0.32013 0.04334 0.0
H1005 H 0.31402 0.37833 0.04317 0.0
H1006 H 0.13952 0.30427 0.23309 0.0
H1007 H 0.13519 0.36174 0.22898 0.0
H1008 H 0.13871 0.25106 0.17043 0.0
H1009 H 0.18265 0.2253 0.13319 0.0
C1010 C 0.45456 0.47362 0.30413 0.0
C1011 C 0.42515 0.49415 0.34596 0.0
C1012 C 0.47841 0.56386 0.33371 0.0
C1013 C 0.51274 0.54026 0.30408 0.0
N1014 N 0.53471 0.46687 0.27521 0.0
N1015 N 0.41954 0.55829 0.41213 0.0
C1016 C 0.50118 0.49346 0.29311 0.0
C1017 C 0.43964 0.5394 0.36361 0.0
N1018 N 0.43778 0.43617 0.2726 0.0
N1019 N 0.48329 0.60969 0.33493 0.0
H1020 H 0.39535 0.54034 0.44012 0.0
H1021 H 0.43174 0.58983 0.4292 0.0
H1022 H 0.51083 0.62854 0.3132 0.0
H1023 H 0.45755 0.62843 0.3524 0.0
H1024 H 0.45709 0.42215 0.23868 0.0
H1025 H 0.40283 0.42296 0.27473 0.0
H1026 H 0.52819 0.43205 0.27136 0.0
H1027 H 0.56981 0.47875 0.2707 0.0
C1028 C 0.315 0.71114 0.57079 0.0
C1029 C 0.26592 0.7126 0.57724 0.0
C1030 C 0.26075 0.63413 0.61482 0.0
C1031 C 0.30974 0.63206 0.60508 0.0
N1032 N 0.37772 0.66452 0.55087 0.0
N1033 N 0.1908 0.67027 0.58929 0.0
C1034 C 0.33497 0.66932 0.5758 0.0
C1035 C 0.23841 0.67224 0.59363 0.0
N1036 N 0.34334 0.74999 0.56315 0.0
N1037 N 0.23575 0.60149 0.64757 0.0
H1038 H 0.17357 0.69723 0.57385 0.0
H1039 H 0.16899 0.64069 0.59519 0.0
H1040 H 0.25058 0.57446 0.6667 0.0
H1041 H 0.20132 0.60378 0.66123 0.0
H1042 H 0.37977 0.75126 0.56399 0.0
H1043 H 0.33049 0.78137 0.56238 0.0
H1044 H 0.39584 0.68946 0.52485 0.0
H1045 H 0.39216 0.6338 0.54995 0.0
C1046 C 0.04241 0.46737 0.83295 0.0
C1047 C 1.0045 0.48958 0.81046 0.0
C1048 C 0.05701 0.55959 0.81391 0.0
C1049 C 0.08972 0.53942 0.85136 0.0
N1050 N 0.10018 0.47333 0.91195 0.0
N1051 N 0.97446 0.56173 0.79472 0.0
C1052 C 0.07926 0.49277 0.86467 0.0
C1053 C 0.01129 0.5372 0.80513 0.0
N1054 N 0.04193 0.42187 0.82786 0.0
N1055 N 0.06968 0.59854 0.78376 0.0
H1056 H 0.9399 0.54742 0.79311 0.0
H1057 H 0.97824 0.59679 0.7945 0.0
H1058 H 0.1042 0.613 0.78225 0.0
H1059 H 0.04713 0.61246 0.75364 0.0
H1060 H 0.07026 0.40483 0.84126 0.0
H1061 H 0.01515 0.40228 0.80547 0.0
H1062 H 0.09078 0.44016 0.92487 0.0
H1063 H 0.121 0.49185 0.94358 0.0
C1064 C 0.83505 0.64634 0.86068 0.0
C1065 C 0.79489 0.61374 0.85579 0.0
C1066 C 0.74524 0.67738 0.86858 0.0
C1067 C 0.78516 0.70904 0.8776 0.0
N1068 N 0.86867 0.72085 0.89158 0.0
N1069 N 0.71191 0.59966 0.87472 0.0
C1070 C 0.83004 0.69231 0.87785 0.0
C1071 C 0.75004 0.62976 0.86524 0.0
N1072 N 0.87757 0.63544 0.84051 0.0
N1073 N 0.70219 0.69267 0.86278 0.0
H1074 H 0.71407 0.56516 0.87726 0.0
H1075 H 0.6793 0.60912 0.8874 0.0
H1076 H 0.69688 0.72649 0.86723 0.0
H1077 H 0.67262 0.67227 0.84877 0.0
H1078 H 0.907 0.65853 0.83706 0.0
H1079 H 0.88201 0.60536 0.81836 0.0
H1080 H 0.90131 0.70973 0.90039 0.0
H1081 H 0.8675 0.75526 0.89817 0.0
C1082 C 0.6209 0.59604 0.65058 0.0
C1083 C 0.6031 0.55146 0.66431 0.0
C1084 C 0.68356 0.52884 0.66189 0.0
C1085 C 0.70151 0.57341 0.64709 0.0
N1086 N 0.68726 0.65168 0.65156 0.0
N1087 N 0.61833 0.4774 0.69596 0.0
C1088 C 0.67025 0.6077 0.6486 0.0
C1089 C 0.63481 0.51855 0.67427 0.0
N1090 N 0.59067 0.62736 0.63775 0.0
N1091 N 0.71304 0.49579 0.66163 0.0
H1092 H 0.58293 0.46847 0.70284 0.0
H1093 H 0.63958 0.4535 0.71132 0.0
H1094 H 0.74909 0.50263 0.65634 0.0
H1095 H 0.70158 0.4618 0.66391 0.0
H1096 H 0.60149 0.65871 0.61945 0.0
H1097 H 0.5544 0.62084 0.64106 0.0
H1098 H 0.66622 0.67736 0.66082 0.0
H1099 H 0.72271 0.66216 0.65176 0.0
C1100 C 0.80042 0.36077 0.3577 0.0
C1101 C 0.76079 0.33146 0.37584 0.0
C1102 C 0.7203 0.39932 0.39275 0.0
C1103 C 0.75397 0.4272 0.35873 0.0
N1104 N 0.82738 0.42778 0.30254 0.0
N1105 N 0.67742 0.32596 0.39417 0.0
C1106 C 0.79489 0.40639 0.34012 0.0
C1107 C 0.71913 0.35161 0.38888 0.0
N1108 N 0.84369 0.34543 0.35751 0.0
N1109 N 0.68947 0.41809 0.42967 0.0
H1110 H 0.67391 0.29142 0.38606 0.0
H1111 H 0.64587 0.34016 0.39979 0.0
H1112 H 0.69123 0.45266 0.43726 0.0
H1113 H 0.66619 0.39874 0.45752 0.0
H1114 H 0.87431 0.36641 0.35002 0.0
H1115 H 0.84919 0.31304 0.37132 0.0
H1116 H 0.8536 0.41107 0.28237 0.0
H1117 H 0.82542 0.45968 0.28516 0.0
C1118 C 0.89383 0.44234 0.12622 0.0
C1119 C 0.91028 0.48563 0.1482 0.0
C1120 C 0.82794 0.50373 0.15469 0.0
C1121 C 0.81196 0.46258 0.12542 0.0
N1122 N 0.83353 0.39795 0.07009 0.0
N1123 N 0.89319 0.55959 0.17866 0.0
C1124 C 0.846 0.43321 0.10784 0.0
C1125 C 0.87726 0.51691 0.1612 0.0
N1126 N 0.92396 0.40973 0.12278 0.0
N1127 N 0.79579 0.53026 0.17649 0.0
H1128 H 0.92864 0.56983 0.18493 0.0
H1129 H 0.87201 0.58579 0.18272 0.0
H1130 H 0.75996 0.52068 0.17443 0.0
H1131 H 0.8045 0.55987 0.20039 0.0
H1132 H 0.91307 0.37612 0.11378 0.0
H1133 H 0.95931 0.41548 0.13427 0.0
H1134 H 0.85677 0.37596 0.05429 0.0
H1135 H 0.80136 0.39407 0.04826 0.0
C1136 C 0.69991 0.79919 0.62126 0.0
C1137 C 0.72466 0.79746 0.56571 0.0
C1138 C 0.70669 0.87505 0.54377 0.0
C1139 C 0.68003 0.87598 0.59801 0.0
N1140 N 0.64303 0.83398 0.68158 0.0
N1141 N 0.74024 0.82942 0.46706 0.0
C1142 C 0.67379 0.83639 0.63428 0.0
C1143 C 0.72501 0.83431 0.52508 0.0
N1144 N 0.70382 0.76669 0.6638 0.0
N1145 N 0.71401 0.91288 0.50924 0.0
H1146 H 0.75126 0.79943 0.45069 0.0
H1147 H 0.73723 0.85317 0.43334 0.0
H1148 H 0.698 0.94209 0.51777 0.0
H1149 H 0.73815 0.91616 0.47401 0.0
H1150 H 0.68938 0.76733 0.70691 0.0
H1151 H 0.72692 0.7421 0.65951 0.0
H1152 H 0.63232 0.80425 0.70413 0.0
H1153 H 0.62492 0.86056 0.69571 0.0
C1154 C 0.93954 0.03387 0.83317 0.0
C1155 C 0.92754 0.98726 0.82104 0.0
C1156 C 1.00724 0.98411 0.77996 0.0
C1157 C 0.01749 0.03142 0.78697 0.0
N1158 N 0.98547 0.10227 0.8021 0.0
N1159 N 0.94606 0.92484 0.75828 0.0
C1160 C 0.98039 0.05655 0.80593 0.0
C1161 C 0.9601 0.96455 0.78644 0.0
N1162 N 0.91539 0.05588 0.87525 0.0
N1163 N 0.0422 0.95696 0.77097 0.0
H1164 H 0.91119 0.91123 0.75782 0.0
H1165 H 0.96796 0.90886 0.72934 0.0
H1166 H 0.0775 0.96879 0.77051 0.0
H1167 H 0.0361 0.92199 0.77045 0.0
H1168 H 0.92558 0.08885 0.88869 0.0
H1169 H 0.88948 0.03973 0.90253 0.0
H1170 H 0.95818 0.12188 0.81144 0.0
H1171 H 0.01573 0.11981 0.78489 0.0
C1172 C 0.81768 0.15653 0.05147 0.0
C1173 C 0.80241 0.13043 0.10263 0.0
C1174 C 0.74013 0.18125 0.11842 0.0
C1175 C 0.76087 0.21121 0.07391 0.0
N1176 N 0.82275 0.22882 0.00175 0.0
N1177 N 0.74859 0.11855 0.18616 0.0
C1178 C 0.80042 0.19908 0.04128 0.0
C1179 C 0.76292 0.14253 0.13593 0.0
N1180 N 0.84776 0.1398 0.01121 0.0
N1181 N 0.69873 0.19007 0.14428 0.0
H1182 H 0.76467 0.09097 0.20146 0.0
H1183 H 0.72317 0.12795 0.21579 0.0
H1184 H 0.68214 0.21868 0.13417 0.0
H1185 H 0.67897 0.16769 0.17225 0.0
H1186 H 0.85675 0.15498 0.96999 0.0
H1187 H 0.85958 0.10806 0.01589 0.0
H1188 H 0.85484 0.22417 0.98192 0.0
H1189 H 0.81119 0.26 -0.00735 0.0
C1190 C 0.549 0.9964 0.26453 0.0
C1191 C 0.50849 1.01062 0.29293 0.0
C1192 C 0.55829 0.07135 0.34387 0.0
C1193 C 0.5988 0.05886 0.313 0.0
N1194 N 0.62962 0.01543 0.23286 0.0
N1195 N 0.47346 0.0679 0.34862 0.0
C1196 C 0.59322 0.02301 0.27009 0.0
C1197 C 0.51289 0.05023 0.32883 0.0
N1198 N 0.54547 0.95672 0.23339 0.0
N1199 N 0.56323 0.10171 0.39025 0.0
H1200 H 0.43985 0.05321 0.33897 0.0
H1201 H 0.47397 0.09919 0.36957 0.0
H1202 H 0.59558 0.11686 0.40418 0.0
H1203 H 0.53597 0.10855 0.41884 0.0
H1204 H 0.57429 0.94165 0.21732 0.0
H1205 H 0.51357 0.93739 0.22728 0.0
H1206 H 0.62653 0.99286 0.19675 0.0
H1207 H 0.6618 0.03487 0.23433 0.0
C1208 C 0.33765 0.15781 0.39878 0.0
C1209 C 0.2997 0.12223 0.3957 0.0
C1210 C 0.24495 0.18268 0.40407 0.0
C1211 C 0.2825 0.21733 0.40931 0.0
N1212 N 0.36503 0.23546 0.42463 0.0
N1213 N 0.21825 0.10416 0.42097 0.0
C1214 C 0.32879 0.2039 0.41125 0.0
C1215 C 0.25361 0.13577 0.40516 0.0
N1216 N 0.38235 0.14898 0.38525 0.0
N1217 N 0.20032 0.19436 0.39869 0.0
H1218 H 0.22388 0.07089 0.42973 0.0
H1219 H 0.18505 0.11205 0.43366 0.0
H1220 H 0.19232 0.22765 0.40014 0.0
H1221 H 0.17194 0.17124 0.38804 0.0
H1222 H 0.41018 0.17375 0.38073 0.0
H1223 H 0.39107 0.11821 0.36927 0.0
H1224 H 0.39842 0.22745 0.43608 0.0
H1225 H 0.36092 0.26959 0.42905 0.0
C1226 C 0.13026 0.02831 0.18944 0.0
C1227 C 0.09864 0.05736 0.16574 0.0
C1228 C 0.16586 0.10664 0.12687 0.0
C1229 C 0.19807 0.07842 0.15246 0.0
N1230 N 0.20884 0.01769 0.22025 0.0
N1231 N 0.08705 0.13008 0.12557 0.0
C1232 C 0.17952 0.04117 0.18774 0.0
C1233 C 0.11677 0.09847 0.13895 0.0
N1234 N 0.11354 0.987 0.21083 0.0
N1235 N 0.18185 0.14022 0.0885 0.0
H1236 H 0.05115 0.12518 0.134 0.0
H1237 H 0.0985 0.16249 0.11148 0.0
H1238 H 0.21726 0.14847 0.08057 0.0
H1239 H 0.15998 0.15788 0.06189 0.0
H1240 H 0.13483 0.96165 0.22065 0.0
H1241 H 0.07798 0.97664 0.21444 0.0
H1242 H 0.19684 0.99492 0.25353 0.0
H1243 H 0.24489 0.02385 0.21744 0.0
C1244 C 0.2191 0.83722 0.9137 0.0
C1245 C 0.25648 0.81466 0.88985 0.0
C1246 C 0.29038 0.88852 0.84921 0.0
C1247 C 0.25378 0.91152 0.87658 0.0
N1248 N 0.19707 0.90643 0.95736 0.0
N1249 N 0.33409 0.8224 0.84784 0.0
C1250 C 0.2225 0.88531 0.91576 0.0
C1251 C 0.29406 0.84149 0.86167 0.0
N1252 N 0.17935 0.81292 0.93336 0.0
N1253 N 0.32047 0.9101 0.80875 0.0
H1254 H 0.33792 0.7886 0.85567 0.0
H1255 H 0.36484 0.8409 0.83404 0.0
H1256 H 0.3195 0.94339 0.79658 0.0
H1257 H 0.3435 0.89362 0.78222 0.0
H1258 H 0.1496 0.82791 0.94651 0.0
H1259 H 0.17453 0.77794 0.93053 0.0
H1260 H 0.17661 0.88905 0.99022 0.0
H1261 H 0.20119 0.94122 0.96351 0.0
C1262 C 0.34098 0.91378 0.62339 0.0
C1263 C 0.30776 0.94113 0.64848 0.0
C1264 C 0.37391 0.99591 0.6806 0.0
C1265 C 0.40659 0.96798 0.65695 0.0
N1266 N 0.42203 0.89648 0.61551 0.0
N1267 N 0.2942 1.00433 0.70987 0.0
C1268 C 0.39029 0.92567 0.63139 0.0
C1269 C 0.32493 0.98082 0.67993 0.0
N1270 N 0.32536 0.87719 0.58955 0.0
N1271 N 0.38976 0.03777 0.70182 0.0
H1272 H 0.2584 0.995 0.71087 0.0
H1273 H 0.30526 0.03125 0.73731 0.0
H1274 H 0.42511 0.04964 0.70363 0.0
H1275 H 0.36847 0.06243 0.71419 0.0
H1276 H 0.34703 0.85983 0.56223 0.0
H1277 H 0.29006 0.86581 0.58651 0.0
H1278 H 0.41276 0.86335 0.60233 0.0
H1279 H 0.45808 0.90444 0.61996 0.0
C1280 C 0.4936 0.22255 0.94283 0.0
C1281 C 0.45144 0.24152 0.95704 0.0
C1282 C 0.48842 0.3168 0.9417 0.0
C1283 C 0.53159 0.29826 0.94431 0.0
N1284 N 0.5777 0.23639 0.93063 0.0
N1285 N 0.40485 0.30428 0.95907 0.0
C1286 C 0.53473 0.25187 0.93671 0.0
C1287 C 0.44727 0.28797 0.95087 0.0
N1288 N 0.49464 0.17699 0.93883 0.0
N1289 N 0.48745 0.36178 0.93261 0.0
H1290 H 0.37414 0.28316 0.9655 0.0
H1291 H 0.4001 0.33832 0.96115 0.0
H1292 H 0.51789 0.38359 0.92845 0.0
H1293 H 0.45691 0.37664 0.92377 0.0
H1294 H 0.52332 0.16152 0.9234 0.0
H1295 H 0.46601 0.154 0.94809 0.0
H1296 H 0.58408 0.20281 0.93324 0.0
H1297 H 0.60757 0.25813 0.92229 0.0
C1298 C 0.46 0.74808 0.16965 0.0
C1299 C 0.46616 0.79546 0.16889 0.0
C1300 C 0.55095 0.7938 0.17591 0.0
C1301 C 0.54394 0.74697 0.1862 0.0
N1302 N 0.49063 0.67819 0.18408 0.0
N1303 N 0.51892 0.86262 0.15386 0.0
C1304 C 0.49867 0.72368 0.17913 0.0
C1305 C 0.51184 0.81785 0.16531 0.0
N1306 N 0.41674 0.72536 0.16488 0.0
N1307 N 0.59488 0.81584 0.17736 0.0
H1308 H 0.49194 0.8824 0.14368 0.0
H1309 H 0.49194 0.8824 0.14368 0.0
H1310 H 0.62482 0.79941 0.18469 0.0
H1311 H 0.60105 0.85045 0.17059 0.0
H1312 H 0.38644 0.74128 0.15727 0.0
H1313 H 0.38644 0.74128 0.15727 0.0
H1314 H 0.51668 0.65691 0.19238 0.0
H1315 H 0.51668 0.65691 0.19238 0.0
C1316 C 0.01332 0.79355 0.42516 0.0
C1317 C 0.05532 0.77589 0.44398 0.0
C1318 C 0.01946 0.69977 0.42753 0.0
C1319 C 0.97606 0.7177 0.42509 0.0
N1320 N 0.93166 0.77904 0.39995 0.0
N1321 N 0.10226 0.71362 0.4513 0.0
C1322 C 0.97351 0.76361 0.41396 0.0
C1323 C 0.06009 0.72929 0.43925 0.0
N1324 N 1.00854 0.83841 0.42374 0.0
N1325 N 0.0206 0.65451 0.42183 0.0
H1326 H 0.13221 0.73512 0.46074 0.0
H1327 H 0.10755 0.67978 0.45348 0.0
H1328 H 0.9902 0.63306 0.41436 0.0
H1329 H 0.05127 0.63894 0.41962 0.0
H1330 H 0.0351 0.86353 0.43427 0.0
H1331 H 0.0351 0.86353 0.43427 0.0
H1332 H 0.92796 0.81311 0.39361 0.0
H1333 H 0.90149 0.75722 0.39275 0.0
C1334 C 0.01027 0.20762 0.68944 0.0
C1335 C 0.05465 0.23274 0.6932 0.0
C1336 C 0.01813 0.30271 0.6949 0.0
C1337 C 0.9736 0.27774 0.70003 0.0
N1338 N 0.926 0.20684 0.701 0.0
N1339 N 0.10084 0.30504 0.69386 0.0
C1340 C 0.96922 0.23019 0.6962 0.0
C1341 C 0.05853 0.28013 0.69301 0.0
N1342 N 1.00773 0.16235 0.67896 0.0
N1343 N 0.02385 0.34849 0.69553 0.0
H1344 H 0.13284 0.29116 0.69209 0.0
H1345 H 0.13284 0.29116 0.69209 0.0
H1346 H 0.9965 0.369 0.69794 0.0
H1347 H 0.9965 0.369 0.69794 0.0
H1348 H 0.97667 0.14229 0.6709 0.0
H1349 H 0.03741 0.14519 0.67344 0.0
H1350 H 0.92059 0.17212 0.70568 0.0
H1351 H 0.89511 0.2226 0.70206 0.0
C1352 C 0.511 0.70286 0.91805 0.0
C1353 C 0.47953 0.73558 0.93132 0.0
C1354 C 0.53836 0.77875 0.99095 0.0
C1355 C 0.5706 0.74829 0.97351 0.0
N1356 N 0.5874 0.67771 0.93113 0.0
N1357 N 0.46517 0.80691 0.97792 0.0
C1358 C 0.55622 0.70853 0.94201 0.0
C1359 C 0.49375 0.77395 0.96666 0.0
N1360 N 0.49952 0.6661 0.88259 0.0
N1361 N 0.54994 0.81478 0.02759 0.0
H1362 H 0.43181 0.80759 0.95923 0.0
H1363 H 0.43181 0.80759 0.95923 0.0
H1364 H 0.58242 0.82175 0.04841 0.0
H1365 H 0.58242 0.82175 0.04841 0.0
H1366 H 0.46725 0.65836 0.86153 0.0
H1367 H 0.46725 0.65836 0.86153 0.0
H1368 H 0.57902 0.64869 0.90538 0.0
H1369 H 0.62105 0.68125 0.9497 0.0
C1370 C 0.55452 0.24704 0.69794 0.0
C1371 C 0.51289 0.22266 0.71983 0.0
C1372 C 0.48705 0.29023 0.76384 0.0
C1373 C 0.527 0.31502 0.73866 0.0
N1374 N 0.60307 0.31822 0.69361 0.0
N1375 N 0.43664 0.22256 0.76579 0.0
C1376 C 0.56238 0.29347 0.70986 0.0
C1377 C 0.47897 0.24427 0.75134 0.0
N1378 N 0.58537 0.22609 0.66364 0.0
N1379 N 0.45492 0.31058 0.79689 0.0
H1380 H 0.42608 0.18904 0.75523 0.0
H1381 H 0.42608 0.18904 0.75523 0.0
H1382 H 0.45913 0.34416 0.80927 0.0
H1383 H 0.42499 0.29291 0.81491 0.0
H1384 H 0.61283 0.24265 0.63945 0.0
H1385 H 0.5828 0.19157 0.65812 0.0
H1386 H 0.63171 0.3051 0.67395 0.0
H1387 H 0.60965 0.35225 0.70461 0.0
C1388 C 0.03199 0.25187 0.52664 0.0
C1389 C 0.04817 0.29242 0.49765 0.0
C1390 C 0.96997 0.31703 0.49879 0.0
C1391 C 0.95352 0.27396 0.51883 0.0
N1392 N 0.96935 0.20243 0.56222 0.0
N1393 N 0.03141 0.36494 0.45594 0.0
C1394 C 0.98453 0.24306 0.53829 0.0
C1395 C 0.01737 0.32571 0.48463 0.0
N1396 N 0.06033 0.21911 0.53946 0.0
N1397 N 0.93904 0.34774 0.48644 0.0
H1398 H 0.06564 0.37467 0.44225 0.0
H1399 H 0.06564 0.37467 0.44225 0.0
H1400 H 0.90349 0.34156 0.49685 0.0
H1401 H 0.94922 0.37902 0.46729 0.0
H1402 H 0.09595 0.22111 0.5292 0.0
H1403 H 0.09595 0.22111 0.5292 0.0
H1404 H 0.93445 0.19215 0.57206 0.0
H1405 H 0.93445 0.19215 0.57206 0.0
C1406 C 0.9902 0.7918 0.15396 0.0
C1407 C 0.02768 0.81658 0.18507 0.0
C1408 C 0.04664 0.74977 0.23772 0.0
C1409 C 1.00692 0.72578 0.21034 0.0
N1410 N 0.93739 0.72393 0.14907 0.0
N1411 N 0.09826 0.81688 0.24349 0.0
C1412 C 0.97747 0.74707 0.17083 0.0
C1413 C 0.05757 0.79504 0.22305 0.0
N1414 N 0.96848 0.80956 0.10598 0.0
N1415 N 0.07526 0.72948 0.27629 0.0
H1416 H 0.10928 0.85025 0.23318 0.0
H1417 H 0.10928 0.85025 0.23318 0.0
H1418 H 0.06998 0.6961 0.28939 0.0
H1419 H 0.10467 0.7467 0.2963 0.0
H1420 H 0.94692 0.79009 0.07614 0.0
H1421 H 0.97549 0.84213 0.09057 0.0
H1422 H 0.91163 0.73887 0.12539 0.0
H1423 H 0.92745 0.69048 0.16031 0.0
loop_
_geom_bond_atom_site_label_1
_geom_bond_atom_site_label_2
_geom_bond_distance
_geom_bond_site_symmetry_2
_ccdc_geom_bond_type
C0 C1 1.443 . S
C0 N4 1.376 . S
C0 C38 1.389 . S
C1 C0 1.443 . S
C1 C2 1.340 . S
C1 H41 0.951 . S
C2 C1 1.340 . S
C2 C3 1.439 . S
C2 H42 0.950 . S
C3 C2 1.439 . S
C3 N4 1.374 . S
C3 C37 1.395 . S
N4 C0 1.376 . S
N4 C3 1.374 . S
N4 Co5 2.008 1_556 S
Co5 N4 2.008 1_554 S
Co5 N6 1.995 1_554 S
Co5 N11 2.008 . S
Co5 N16 1.995 . S
Co5 N21 2.282 . S
Co5 N27 2.282 1_554 S
N6 Co5 1.995 1_556 S
N6 C7 1.376 . S
N6 C10 1.383 . S
C7 N6 1.376 . S
C7 C8 1.446 . S
C7 C37 1.391 . S
C8 C7 1.446 . S
C8 C9 1.339 . S
C8 H43 0.949 . S
C9 C8 1.339 . S
C9 C10 1.439 . S
C9 H44 0.950 . S
C10 N6 1.383 . S
C10 C9 1.439 . S
C10 C39 1.392 1_556 S
N11 Co5 2.008 . S
N11 C12 1.376 . S
N11 C15 1.374 . S
C12 N11 1.376 . S
C12 C13 1.443 . S
C12 C39 1.389 . S
C13 C12 1.443 . S
C13 C14 1.340 . S
C13 H45 0.951 . S
C14 C13 1.340 . S
C14 C15 1.439 . S
C14 H46 0.950 . S
C15 N11 1.374 . S
C15 C14 1.439 . S
C15 C40 1.395 . S
N16 Co5 1.995 . S
N16 C17 1.376 . S
N16 C20 1.383 . S
C17 N16 1.376 . S
C17 C18 1.446 . S
C17 C40 1.391 . S
C18 C17 1.446 . S
C18 C19 1.339 . S
C18 H47 0.949 . S
C19 C18 1.339 . S
C19 C20 1.439 . S
C19 H48 0.950 . S
C20 N16 1.383 . S
C20 C19 1.439 . S
C20 C38 1.392 1_554 S
N21 Co5 2.282 . S
N21 C24 1.332 . S
N21 C26 1.332 1_554 S
C22 C23 1.386 . S
C22 C25 1.388 1_554 S
C23 C22 1.386 . S
C23 C24 1.382 . S
C23 H49 0.950 . S
C24 N21 1.332 . S
C24 C23 1.382 . S
C24 H35 0.952 . S
C25 C22 1.388 1_556 S
C25 C26 1.382 . S
C25 H50 0.950 . S
C26 N21 1.332 1_556 S
C26 C25 1.382 . S
C26 H36 0.948 . S
N27 Co5 2.282 1_556 S
N27 C31 1.332 . S
N27 C32 1.332 1_556 S
C28 C29 1.388 1_554 S
C28 C32 1.382 . S
C28 H51 0.950 . S
C29 C28 1.388 1_556 S
C29 C30 1.386 . S
C30 C29 1.386 . S
C30 C31 1.382 . S
C30 H52 0.950 . S
C31 N27 1.332 . S
C31 C30 1.382 . S
C31 H33 0.952 . S
C32 N27 1.332 1_554 S
C32 C28 1.382 . S
C32 H34 0.948 . S
H33 C31 0.952 . S
H34 C32 0.948 . S
H35 C24 0.952 . S
H36 C26 0.948 . S
C37 C3 1.395 . S
C37 C7 1.391 . S
C38 C0 1.389 . S
C38 C20 1.392 1_556 S
C39 C10 1.392 1_554 S
C39 C12 1.389 . S
C40 C15 1.395 . S
C40 C17 1.391 . S
H41 C1 0.951 . S
H42 C2 0.950 . S
H43 C8 0.949 . S
H44 C9 0.950 . S
H45 C13 0.951 . S
H46 C14 0.950 . S
H47 C18 0.949 . S
H48 C19 0.950 . S
H49 C23 0.950 . S
H50 C25 0.950 . S
H51 C28 0.950 . S
H52 C30 0.950 . S
C53 C54 1.443 . S
C53 N57 1.376 . S
C53 C91 1.389 . S
C54 C53 1.443 . S
C54 C55 1.340 . S
C54 H94 0.951 . S
C55 C54 1.340 . S
C55 C56 1.439 . S
C55 H95 0.950 . S
C56 C55 1.439 . S
C56 N57 1.374 . S
C56 C90 1.395 . S
N57 C53 1.376 . S
N57 C56 1.374 . S
N57 Co58 2.008 . S
Co58 N57 2.008 . S
Co58 N59 1.995 . S
Co58 N64 2.008 . S
Co58 N69 1.995 . S
Co58 N74 2.282 . S
Co58 N80 2.282 . S
N59 Co58 1.995 . S
N59 C60 1.376 . S
N59 C63 1.383 . S
C60 N59 1.376 . S
C60 C61 1.446 . S
C60 C90 1.391 . S
C61 C60 1.446 . S
C61 C62 1.339 . S
C61 H96 0.949 . S
C62 C61 1.339 . S
C62 C63 1.439 . S
C62 H97 0.950 . S
C63 N59 1.383 . S
C63 C62 1.439 . S
C63 C92 1.392 . S
N64 Co58 2.008 . S
N64 C65 1.376 . S
N64 C68 1.374 . S
C65 N64 1.376 . S
C65 C66 1.443 . S
C65 C92 1.389 . S
C66 C65 1.443 . S
C66 C67 1.340 . S
C66 H98 0.951 . S
C67 C66 1.340 . S
C67 C68 1.439 . S
C67 H99 0.950 . S
C68 N64 1.374 . S
C68 C67 1.439 . S
C68 C93 1.395 . S
N69 Co58 1.995 . S
N69 C70 1.376 . S
N69 C73 1.383 . S
C70 N69 1.376 . S
C70 C71 1.446 . S
C70 C93 1.391 . S
C71 C70 1.446 . S
C71 C72 1.339 . S
C71 H100 0.949 1_554 S
C72 C71 1.339 . S
C72 C73 1.439 . S
C72 H101 0.950 . S
C73 N69 1.383 . S
C73 C72 1.439 . S
C73 C91 1.392 . S
N74 Co58 2.282 . S
N74 C77 1.332 . S
N74 C79 1.332 . S
C75 C76 1.386 . S
C75 C78 1.388 . S
C76 C75 1.386 . S
C76 C77 1.382 . S
C76 H102 0.950 . S
C77 N74 1.332 . S
C77 C76 1.382 . S
C77 H88 0.952 . S
C78 C75 1.388 . S
C78 C79 1.382 . S
C78 H103 0.950 . S
C79 N74 1.332 . S
C79 C78 1.382 . S
C79 H89 0.948 . S
N80 Co58 2.282 . S
N80 C84 1.332 . S
N80 C85 1.332 . S
C81 C82 1.388 . S
C81 C85 1.382 . S
C81 H104 0.950 . S
C82 C81 1.388 . S
C82 C83 1.386 . S
C83 C82 1.386 . S
C83 C84 1.382 . S
C83 H105 0.950 . S
C84 N80 1.332 . S
C84 C83 1.382 . S
C84 H86 0.952 . S
C85 N80 1.332 . S
C85 C81 1.382 . S
C85 H87 0.948 . S
H86 C84 0.952 . S
H87 C85 0.948 . S
H88 C77 0.952 . S
H89 C79 0.948 . S
C90 C56 1.395 . S
C90 C60 1.391 . S
C91 C53 1.389 . S
C91 C73 1.392 . S
C92 C63 1.392 . S
C92 C65 1.389 . S
C93 C68 1.395 . S
C93 C70 1.391 . S
H94 C54 0.951 . S
H95 C55 0.950 . S
H96 C61 0.949 . S
H97 C62 0.950 . S
H98 C66 0.951 . S
H99 C67 0.950 . S
H100 C71 0.949 1_556 S
H101 C72 0.950 . S
H102 C76 0.950 . S
H103 C78 0.950 . S
H104 C81 0.950 . S
H105 C83 0.950 . S
C106 C107 1.443 . S
C106 N110 1.376 . S
C106 C144 1.389 . S
C107 C106 1.443 . S
C107 C108 1.340 . S
C107 H147 0.951 . S
C108 C107 1.340 . S
C108 C109 1.439 . S
C108 H148 0.950 . S
C109 C108 1.439 . S
C109 N110 1.374 . S
C109 C143 1.395 . S
N110 C106 1.376 . S
N110 C109 1.374 . S
N110 Co111 2.008 . S
Co111 N110 2.008 . S
Co111 N112 1.995 . S
Co111 N117 2.008 . S
Co111 N122 1.995 . S
Co111 N127 2.282 . S
Co111 N133 2.282 . S
N112 Co111 1.995 . S
N112 C113 1.376 . S
N112 C116 1.383 . S
C113 N112 1.376 . S
C113 C114 1.446 . S
C113 C143 1.391 . S
C114 C113 1.446 . S
C114 C115 1.339 . S
C114 H149 0.949 . S
C115 C114 1.339 . S
C115 C116 1.439 . S
C115 H150 0.950 . S
C116 N112 1.383 . S
C116 C115 1.439 . S
C116 C145 1.392 . S
N117 Co111 2.008 . S
N117 C118 1.376 . S
N117 C121 1.374 . S
C118 N117 1.376 . S
C118 C119 1.443 . S
C118 C145 1.389 . S
C119 C118 1.443 . S
C119 C120 1.340 . S
C119 H151 0.951 . S
C120 C119 1.340 . S
C120 C121 1.439 . S
C120 H152 0.950 . S
C121 N117 1.374 . S
C121 C120 1.439 . S
C121 C146 1.395 . S
N122 Co111 1.995 . S
N122 C123 1.376 . S
N122 C126 1.383 . S
C123 N122 1.376 . S
C123 C124 1.446 . S
C123 C146 1.391 . S
C124 C123 1.446 . S
C124 C125 1.339 . S
C124 H153 0.949 . S
C125 C124 1.339 . S
C125 C126 1.439 . S
C125 H154 0.950 . S
C126 N122 1.383 . S
C126 C125 1.439 . S
C126 C144 1.392 . S
N127 Co111 2.282 . S
N127 C130 1.332 . S
N127 C132 1.332 . S
C128 C129 1.386 . S
C128 C131 1.388 . S
C129 C128 1.386 . S
C129 C130 1.382 . S
C129 H155 0.950 . S
C130 N127 1.332 . S
C130 C129 1.382 . S
C130 H141 0.952 . S
C131 C128 1.388 . S
C131 C132 1.382 . S
C131 H156 0.950 . S
C132 N127 1.332 . S
C132 C131 1.382 . S
C132 H142 0.948 . S
N133 Co111 2.282 . S
N133 C137 1.332 . S
N133 C138 1.332 . S
C134 C135 1.388 . S
C134 C138 1.382 . S
C134 H157 0.950 . S
C135 C134 1.388 . S
C135 C136 1.386 . S
C136 C135 1.386 . S
C136 C137 1.382 . S
C136 H158 0.950 . S
C137 N133 1.332 . S
C137 C136 1.382 . S
C137 H139 0.952 . S
C138 N133 1.332 . S
C138 C134 1.382 . S
C138 H140 0.948 . S
H139 C137 0.952 . S
H140 C138 0.948 . S
H141 C130 0.952 . S
H142 C132 0.948 . S
C143 C109 1.395 . S
C143 C113 1.391 . S
C144 C106 1.389 . S
C144 C126 1.392 . S
C145 C116 1.392 . S
C145 C118 1.389 . S
C146 C121 1.395 . S
C146 C123 1.391 . S
H147 C107 0.951 . S
H148 C108 0.950 . S
H149 C114 0.949 . S
H150 C115 0.950 . S
H151 C119 0.951 . S
H152 C120 0.950 . S
H153 C124 0.949 . S
H154 C125 0.950 . S
H155 C129 0.950 . S
H156 C131 0.950 . S
H157 C134 0.950 . S
H158 C136 0.950 . S
C159 C160 1.443 . S
C159 N163 1.376 . S
C159 C197 1.389 . S
C160 C159 1.443 . S
C160 C161 1.340 . S
C160 H200 0.951 . S
C161 C160 1.340 . S
C161 C162 1.439 . S
C161 H201 0.950 . S
C162 C161 1.439 . S
C162 N163 1.374 . S
C162 C196 1.395 . S
N163 C159 1.376 . S
N163 C162 1.374 . S
N163 Co164 2.008 . S
Co164 N163 2.008 . S
Co164 N165 1.995 . S
Co164 N170 2.008 . S
Co164 N175 1.995 . S
Co164 N180 2.282 . S
Co164 N186 2.282 . S
N165 Co164 1.995 . S
N165 C166 1.376 . S
N165 C169 1.383 . S
C166 N165 1.376 . S
C166 C167 1.446 . S
C166 C196 1.391 . S
C167 C166 1.446 . S
C167 C168 1.339 . S
C167 H202 0.949 . S
C168 C167 1.339 . S
C168 C169 1.439 . S
C168 H203 0.950 1_655 S
C169 N165 1.383 . S
C169 C168 1.439 . S
C169 C198 1.392 . S
N170 Co164 2.008 . S
N170 C171 1.376 . S
N170 C174 1.374 . S
C171 N170 1.376 . S
C171 C172 1.443 . S
C171 C198 1.389 . S
C172 C171 1.443 . S
C172 C173 1.340 . S
C172 H204 0.951 . S
C173 C172 1.340 . S
C173 C174 1.439 . S
C173 H205 0.950 . S
C174 N170 1.374 . S
C174 C173 1.439 . S
C174 C199 1.395 . S
N175 Co164 1.995 . S
N175 C176 1.376 . S
N175 C179 1.383 . S
C176 N175 1.376 . S
C176 C177 1.446 . S
C176 C199 1.391 . S
C177 C176 1.446 . S
C177 C178 1.339 . S
C177 H206 0.949 . S
C178 C177 1.339 . S
C178 C179 1.439 . S
C178 H207 0.950 . S
C179 N175 1.383 . S
C179 C178 1.439 . S
C179 C197 1.392 . S
N180 Co164 2.282 . S
N180 C183 1.332 . S
N180 C185 1.332 . S
C181 C182 1.386 . S
C181 C184 1.388 . S
C182 C181 1.386 . S
C182 C183 1.382 . S
C182 H208 0.950 . S
C183 N180 1.332 . S
C183 C182 1.382 . S
C183 H194 0.952 . S
C184 C181 1.388 . S
C184 C185 1.382 . S
C184 H209 0.950 . S
C185 N180 1.332 . S
C185 C184 1.382 . S
C185 H195 0.948 . S
N186 Co164 2.282 . S
N186 C190 1.332 . S
N186 C191 1.332 . S
C187 C188 1.388 . S
C187 C191 1.382 . S
C187 H210 0.950 . S
C188 C187 1.388 . S
C188 C189 1.386 . S
C189 C188 1.386 . S
C189 C190 1.382 . S
C189 H211 0.950 . S
C190 N186 1.332 . S
C190 C189 1.382 . S
C190 H192 0.952 . S
C191 N186 1.332 . S
C191 C187 1.382 . S
C191 H193 0.948 . S
H192 C190 0.952 . S
H193 C191 0.948 . S
H194 C183 0.952 . S
H195 C185 0.948 . S
C196 C162 1.395 . S
C196 C166 1.391 . S
C197 C159 1.389 . S
C197 C179 1.392 . S
C198 C169 1.392 . S
C198 C171 1.389 . S
C199 C174 1.395 . S
C199 C176 1.391 . S
H200 C160 0.951 . S
H201 C161 0.950 . S
H202 C167 0.949 . S
H203 C168 0.950 1_455 S
H204 C172 0.951 . S
H205 C173 0.950 . S
H206 C177 0.949 . S
H207 C178 0.950 . S
H208 C182 0.950 . S
H209 C184 0.950 . S
H210 C187 0.950 . S
H211 C189 0.950 . S
C212 C213 1.443 . S
C212 N216 1.376 . S
C212 C250 1.389 . S
C213 C212 1.443 . S
C213 C214 1.340 . S
C213 H253 0.951 . S
C214 C213 1.340 . S
C214 C215 1.439 . S
C214 H254 0.950 . S
C215 C214 1.439 . S
C215 N216 1.374 . S
C215 C249 1.395 . S
N216 C212 1.376 . S
N216 C215 1.374 . S
N216 Co217 2.008 1_554 S
Co217 N216 2.008 1_556 S
Co217 N218 1.995 1_556 S
Co217 N223 2.008 . S
Co217 N228 1.995 . S
Co217 N233 2.282 . S
Co217 N239 2.282 1_556 S
N218 Co217 1.995 1_554 S
N218 C219 1.376 . S
N218 C222 1.383 . S
C219 N218 1.376 . S
C219 C220 1.446 . S
C219 C249 1.391 . S
C220 C219 1.446 . S
C220 C221 1.339 . S
C220 H255 0.949 . S
C221 C220 1.339 . S
C221 C222 1.439 . S
C221 H256 0.950 . S
C222 N218 1.383 . S
C222 C221 1.439 . S
C222 C251 1.392 1_554 S
N223 Co217 2.008 . S
N223 C224 1.376 . S
N223 C227 1.374 . S
C224 N223 1.376 . S
C224 C225 1.443 . S
C224 C251 1.389 . S
C225 C224 1.443 . S
C225 C226 1.340 . S
C225 H257 0.951 . S
C226 C225 1.340 . S
C226 C227 1.439 . S
C226 H258 0.950 . S
C227 N223 1.374 . S
C227 C226 1.439 . S
C227 C252 1.395 . S
N228 Co217 1.995 . S
N228 C229 1.376 . S
N228 C232 1.383 . S
C229 N228 1.376 . S
C229 C230 1.446 . S
C229 C252 1.391 . S
C230 C229 1.446 . S
C230 C231 1.339 . S
C230 H259 0.949 . S
C231 C230 1.339 . S
C231 C232 1.439 . S
C231 H260 0.950 . S
C232 N228 1.383 . S
C232 C231 1.439 . S
C232 C250 1.392 1_556 S
N233 Co217 2.282 . S
N233 C236 1.332 . S
N233 C238 1.332 1_556 S
C234 C235 1.386 . S
C234 C237 1.376 1_556 S
C235 C234 1.386 . S
C235 C236 1.382 . S
C235 H261 0.950 . S
C236 N233 1.332 . S
C236 C235 1.382 . S
C236 H247 0.952 . S
C237 C234 1.376 1_554 S
C237 C238 1.386 . S
C237 H262 0.959 . S
C238 N233 1.332 1_554 S
C238 C237 1.386 . S
C238 H248 0.948 . S
N239 Co217 2.282 1_554 S
N239 C243 1.332 . S
N239 C244 1.332 1_554 S
C240 C241 1.372 1_556 S
C240 C244 1.387 . S
C240 H263 0.962 . S
C241 C240 1.372 1_554 S
C241 C242 1.386 . S
C242 C241 1.386 . S
C242 C243 1.382 . S
C242 H264 0.950 . S
C243 N239 1.332 . S
C243 C242 1.382 . S
C243 H245 0.952 . S
C244 N239 1.332 1_556 S
C244 C240 1.387 . S
C244 H246 0.948 . S
H245 C243 0.952 . S
H246 C244 0.948 . S
H247 C236 0.952 . S
H248 C238 0.948 . S
C249 C215 1.395 . S
C249 C219 1.391 . S
C250 C212 1.389 . S
C250 C232 1.392 1_554 S
C251 C222 1.392 1_556 S
C251 C224 1.389 . S
C252 C227 1.395 . S
C252 C229 1.391 . S
H253 C213 0.951 . S
H254 C214 0.950 . S
H255 C220 0.949 . S
H256 C221 0.950 . S
H257 C225 0.951 . S
H258 C226 0.950 . S
H259 C230 0.949 . S
H260 C231 0.950 . S
H261 C235 0.950 . S
H262 C237 0.959 . S
H263 C240 0.962 . S
H264 C242 0.950 . S
C265 C266 1.443 . S
C265 N269 1.376 . S
C265 C303 1.389 . S
C266 C265 1.443 . S
C266 C267 1.340 . S
C266 H306 0.951 . S
C267 C266 1.340 . S
C267 C268 1.439 . S
C267 H307 0.950 . S
C268 C267 1.439 . S
C268 N269 1.374 . S
C268 C302 1.395 . S
N269 C265 1.376 . S
N269 C268 1.374 . S
N269 Co270 2.008 . S
Co270 N269 2.008 . S
Co270 N271 1.995 . S
Co270 N276 2.008 . S
Co270 N281 1.995 . S
Co270 N286 2.282 . S
Co270 N292 2.282 . S
N271 Co270 1.995 . S
N271 C272 1.376 . S
N271 C275 1.383 . S
C272 N271 1.376 . S
C272 C273 1.446 . S
C272 C302 1.391 . S
C273 C272 1.446 . S
C273 C274 1.339 . S
C273 H308 0.949 . S
C274 C273 1.339 . S
C274 C275 1.439 . S
C274 H309 0.950 . S
C275 N271 1.383 . S
C275 C274 1.439 . S
C275 C304 1.392 . S
N276 Co270 2.008 . S
N276 C277 1.376 . S
N276 C280 1.374 . S
C277 N276 1.376 . S
C277 C278 1.443 . S
C277 C304 1.389 . S
C278 C277 1.443 . S
C278 C279 1.340 . S
C278 H310 0.951 . S
C279 C278 1.340 . S
C279 C280 1.439 . S
C279 H311 0.950 . S
C280 N276 1.374 . S
C280 C279 1.439 . S
C280 C305 1.395 . S
N281 Co270 1.995 . S
N281 C282 1.376 . S
N281 C285 1.383 . S
C282 N281 1.376 . S
C282 C283 1.446 . S
C282 C305 1.391 . S
C283 C282 1.446 . S
C283 C284 1.339 . S
C283 H312 0.949 . S
C284 C283 1.339 . S
C284 C285 1.439 . S
C284 H313 0.950 . S
C285 N281 1.383 . S
C285 C284 1.439 . S
C285 C303 1.392 . S
N286 Co270 2.282 . S
N286 C289 1.332 . S
N286 C291 1.332 . S
C287 C288 1.386 . S
C287 C290 1.388 . S
C288 C287 1.386 . S
C288 C289 1.382 . S
C288 H314 0.950 . S
C289 N286 1.332 . S
C289 C288 1.382 . S
C289 H300 0.952 . S
C290 C287 1.388 . S
C290 C291 1.382 . S
C290 H315 0.950 . S
C291 N286 1.332 . S
C291 C290 1.382 . S
C291 H301 0.948 . S
N292 Co270 2.282 . S
N292 C296 1.332 . S
N292 C297 1.332 . S
C293 C294 1.388 . S
C293 C297 1.382 . S
C293 H316 0.950 . S
C294 C293 1.388 . S
C294 C295 1.386 . S
C295 C294 1.386 . S
C295 C296 1.382 . S
C295 H317 0.950 . S
C296 N292 1.332 . S
C296 C295 1.382 . S
C296 H298 0.952 . S
C297 N292 1.332 . S
C297 C293 1.382 . S
C297 H299 0.948 . S
H298 C296 0.952 . S
H299 C297 0.948 . S
H300 C289 0.952 . S
H301 C291 0.948 . S
C302 C268 1.395 . S
C302 C272 1.391 . S
C303 C265 1.389 . S
C303 C285 1.392 . S
C304 C275 1.392 . S
C304 C277 1.389 . S
C305 C280 1.395 . S
C305 C282 1.391 . S
H306 C266 0.951 . S
H307 C267 0.950 . S
H308 C273 0.949 . S
H309 C274 0.950 . S
H310 C278 0.951 . S
H311 C279 0.950 . S
H312 C283 0.949 . S
H313 C284 0.950 . S
H314 C288 0.950 . S
H315 C290 0.950 . S
H316 C293 0.950 . S
H317 C295 0.950 . S
C318 C319 1.443 . S
C318 N322 1.376 . S
C318 C356 1.389 . S
C319 C318 1.443 . S
C319 C320 1.340 . S
C319 H359 0.951 . S
C320 C319 1.340 . S
C320 C321 1.439 . S
C320 H360 0.950 . S
C321 C320 1.439 . S
C321 N322 1.374 . S
C321 C355 1.395 . S
N322 C318 1.376 . S
N322 C321 1.374 . S
N322 Co323 2.008 . S
Co323 N322 2.008 . S
Co323 N324 1.995 . S
Co323 N329 2.008 . S
Co323 N334 1.995 . S
Co323 N339 2.282 . S
Co323 N345 2.282 . S
N324 Co323 1.995 . S
N324 C325 1.376 . S
N324 C328 1.383 . S
C325 N324 1.376 . S
C325 C326 1.446 . S
C325 C355 1.391 . S
C326 C325 1.446 . S
C326 C327 1.339 . S
C326 H361 0.949 . S
C327 C326 1.339 . S
C327 C328 1.439 . S
C327 H362 0.950 . S
C328 N324 1.383 . S
C328 C327 1.439 . S
C328 C357 1.392 . S
N329 Co323 2.008 . S
N329 C330 1.376 . S
N329 C333 1.374 . S
C330 N329 1.376 . S
C330 C331 1.443 . S
C330 C357 1.389 . S
C331 C330 1.443 . S
C331 C332 1.340 . S
C331 H363 0.951 . S
C332 C331 1.340 . S
C332 C333 1.439 . S
C332 H364 0.950 . S
C333 N329 1.374 . S
C333 C332 1.439 . S
C333 C358 1.395 . S
N334 Co323 1.995 . S
N334 C335 1.376 . S
N334 C338 1.383 . S
C335 N334 1.376 . S
C335 C336 1.446 . S
C335 C358 1.391 . S
C336 C335 1.446 . S
C336 C337 1.339 . S
C336 H365 0.949 . S
C337 C336 1.339 . S
C337 C338 1.439 . S
C337 H366 0.950 . S
C338 N334 1.383 . S
C338 C337 1.439 . S
C338 C356 1.392 . S
N339 Co323 2.282 . S
N339 C342 1.332 . S
N339 C344 1.332 . S
C340 C341 1.386 . S
C340 C343 1.388 . S
C341 C340 1.386 . S
C341 C342 1.382 . S
C341 H367 0.950 . S
C342 N339 1.332 . S
C342 C341 1.382 . S
C342 H353 0.952 . S
C343 C340 1.388 . S
C343 C344 1.382 . S
C343 H368 0.950 . S
C344 N339 1.332 . S
C344 C343 1.382 . S
C344 H354 0.948 . S
N345 Co323 2.282 . S
N345 C349 1.332 . S
N345 C350 1.332 . S
C346 C347 1.388 . S
C346 C350 1.382 . S
C346 H369 0.950 . S
C347 C346 1.388 . S
C347 C348 1.386 . S
C348 C347 1.386 . S
C348 C349 1.382 . S
C348 H370 0.950 . S
C349 N345 1.332 . S
C349 C348 1.382 . S
C349 H351 0.952 . S
C350 N345 1.332 . S
C350 C346 1.382 . S
C350 H352 0.948 . S
H351 C349 0.952 . S
H352 C350 0.948 . S
H353 C342 0.952 . S
H354 C344 0.948 . S
C355 C321 1.395 . S
C355 C325 1.391 . S
C356 C318 1.389 . S
C356 C338 1.392 . S
C357 C328 1.392 . S
C357 C330 1.389 . S
C358 C333 1.395 . S
C358 C335 1.391 . S
H359 C319 0.951 . S
H360 C320 0.950 . S
H361 C326 0.949 . S
H362 C327 0.950 . S
H363 C331 0.951 . S
H364 C332 0.950 . S
H365 C336 0.949 . S
H366 C337 0.950 . S
H367 C341 0.950 . S
H368 C343 0.950 . S
H369 C346 0.950 . S
H370 C348 0.950 . S
C371 C372 1.443 . S
C371 N375 1.376 . S
C371 C409 1.389 . S
C372 C371 1.443 . S
C372 C373 1.340 . S
C372 H412 0.951 . S
C373 C372 1.340 . S
C373 C374 1.439 . S
C373 H413 0.950 . S
C374 C373 1.439 . S
C374 N375 1.374 . S
C374 C408 1.395 . S
N375 C371 1.376 . S
N375 C374 1.374 . S
N375 Co376 2.008 . S
Co376 N375 2.008 . S
Co376 N377 1.995 . S
Co376 N382 2.008 . S
Co376 N387 1.995 . S
Co376 N392 2.282 . S
Co376 N398 2.282 . S
N377 Co376 1.995 . S
N377 C378 1.376 . S
N377 C381 1.383 1_455 S
C378 N377 1.376 . S
C378 C379 1.446 1_455 S
C378 C408 1.391 . S
C379 C378 1.446 1_655 S
C379 C380 1.339 . S
C379 H414 0.949 . S
C380 C379 1.339 . S
C380 C381 1.439 . S
C380 H415 0.950 . S
C381 N377 1.383 1_655 S
C381 C380 1.439 . S
C381 C410 1.392 . S
N382 Co376 2.008 . S
N382 C383 1.376 . S
N382 C386 1.374 . S
C383 N382 1.376 . S
C383 C384 1.443 1_455 S
C383 C410 1.389 1_455 S
C384 C383 1.443 1_655 S
C384 C385 1.340 1_655 S
C384 H416 0.951 . S
C385 C384 1.340 1_455 S
C385 C386 1.439 . S
C385 H417 0.950 . S
C386 N382 1.374 . S
C386 C385 1.439 . S
C386 C411 1.395 . S
N387 Co376 1.995 . S
N387 C388 1.376 . S
N387 C391 1.383 . S
C388 N387 1.376 . S
C388 C389 1.446 . S
C388 C411 1.391 . S
C389 C388 1.446 . S
C389 C390 1.339 . S
C389 H418 0.949 . S
C390 C389 1.339 . S
C390 C391 1.439 . S
C390 H419 0.950 . S
C391 N387 1.383 . S
C391 C390 1.439 . S
C391 C409 1.392 . S
N392 Co376 2.282 . S
N392 C395 1.332 . S
N392 C397 1.332 . S
C393 C394 1.386 . S
C393 C396 1.388 . S
C394 C393 1.386 . S
C394 C395 1.382 . S
C394 H420 0.950 . S
C395 N392 1.332 . S
C395 C394 1.382 . S
C395 H406 0.952 . S
C396 C393 1.388 . S
C396 C397 1.382 . S
C396 H421 0.950 . S
C397 N392 1.332 . S
C397 C396 1.382 . S
C397 H407 0.948 . S
N398 Co376 2.282 . S
N398 C402 1.332 . S
N398 C403 1.332 . S
C399 C400 1.388 . S
C399 C403 1.382 . S
C399 H422 0.950 . S
C400 C399 1.388 . S
C400 C401 1.386 . S
C401 C400 1.386 . S
C401 C402 1.382 . S
C401 H423 0.950 1_455 S
C402 N398 1.332 . S
C402 C401 1.382 . S
C402 H404 0.952 . S
C403 N398 1.332 . S
C403 C399 1.382 . S
C403 H405 0.948 . S
H404 C402 0.952 . S
H405 C403 0.948 . S
H406 C395 0.952 . S
H407 C397 0.948 . S
C408 C374 1.395 . S
C408 C378 1.391 . S
C409 C371 1.389 . S
C409 C391 1.392 . S
C410 C381 1.392 . S
C410 C383 1.389 1_655 S
C411 C386 1.395 . S
C411 C388 1.391 . S
H412 C372 0.951 . S
H413 C373 0.950 . S
H414 C379 0.949 . S
H415 C380 0.950 . S
H416 C384 0.951 . S
H417 C385 0.950 . S
H418 C389 0.949 . S
H419 C390 0.950 . S
H420 C394 0.950 . S
H421 C396 0.950 . S
H422 C399 0.950 . S
H423 C401 0.950 1_655 S
C424 C425 1.443 . S
C424 N428 1.376 . S
C424 C462 1.389 . S
C425 C424 1.443 . S
C425 C426 1.340 . S
C425 H465 0.951 . S
C426 C425 1.340 . S
C426 C427 1.439 . S
C426 H466 0.950 . S
C427 C426 1.439 . S
C427 N428 1.374 . S
C427 C461 1.395 . S
N428 C424 1.376 . S
N428 C427 1.374 . S
N428 Co429 2.008 . S
Co429 N428 2.008 . S
Co429 N430 1.995 . S
Co429 N435 2.008 . S
Co429 N440 1.995 . S
Co429 N445 2.282 . S
Co429 N451 2.282 . S
N430 Co429 1.995 . S
N430 C431 1.376 . S
N430 C434 1.383 . S
C431 N430 1.376 . S
C431 C432 1.446 . S
C431 C461 1.391 . S
C432 C431 1.446 . S
C432 C433 1.339 . S
C432 H467 0.949 . S
C433 C432 1.339 . S
C433 C434 1.439 . S
C433 H468 0.950 . S
C434 N430 1.383 . S
C434 C433 1.439 . S
C434 C463 1.392 . S
N435 Co429 2.008 . S
N435 C436 1.376 . S
N435 C439 1.374 . S
C436 N435 1.376 . S
C436 C437 1.443 . S
C436 C463 1.389 . S
C437 C436 1.443 . S
C437 C438 1.340 . S
C437 H469 0.951 . S
C438 C437 1.340 . S
C438 C439 1.439 . S
C438 H470 0.950 . S
C439 N435 1.374 . S
C439 C438 1.439 . S
C439 C464 1.395 . S
N440 Co429 1.995 . S
N440 C441 1.376 . S
N440 C444 1.383 . S
C441 N440 1.376 . S
C441 C442 1.446 . S
C441 C464 1.391 . S
C442 C441 1.446 . S
C442 C443 1.339 . S
C442 H471 0.949 . S
C443 C442 1.339 . S
C443 C444 1.439 . S
C443 H472 0.950 . S
C444 N440 1.383 . S
C444 C443 1.439 . S
C444 C462 1.392 . S
N445 Co429 2.282 . S
N445 C448 1.332 . S
N445 C450 1.332 . S
C446 C447 1.386 . S
C446 C449 1.388 . S
C447 C446 1.386 . S
C447 C448 1.382 . S
C447 H473 0.950 . S
C448 N445 1.332 . S
C448 C447 1.382 . S
C448 H459 0.952 . S
C449 C446 1.388 . S
C449 C450 1.382 . S
C449 H474 0.950 . S
C450 N445 1.332 . S
C450 C449 1.382 . S
C450 H460 0.948 . S
N451 Co429 2.282 . S
N451 C455 1.332 . S
N451 C456 1.332 . S
C452 C453 1.388 . S
C452 C456 1.382 . S
C452 H475 0.950 . S
C453 C452 1.388 . S
C453 C454 1.386 . S
C454 C453 1.386 . S
C454 C455 1.382 . S
C454 H476 0.950 . S
C455 N451 1.332 . S
C455 C454 1.382 . S
C455 H457 0.952 . S
C456 N451 1.332 . S
C456 C452 1.382 . S
C456 H458 0.948 . S
H457 C455 0.952 . S
H458 C456 0.948 . S
H459 C448 0.952 . S
H460 C450 0.948 . S
C461 C427 1.395 . S
C461 C431 1.391 . S
C462 C424 1.389 . S
C462 C444 1.392 . S
C463 C434 1.392 . S
C463 C436 1.389 . S
C464 C439 1.395 . S
C464 C441 1.391 . S
H465 C425 0.951 . S
H466 C426 0.950 . S
H467 C432 0.949 . S
H468 C433 0.950 . S
H469 C437 0.951 . S
H470 C438 0.950 . S
H471 C442 0.949 . S
H472 C443 0.950 . S
H473 C447 0.950 . S
H474 C449 0.950 . S
H475 C452 0.950 . S
H476 C454 0.950 . S
C477 C478 1.443 . S
C477 N481 1.376 . S
C477 C515 1.389 . S
C478 C477 1.443 . S
C478 C479 1.340 . S
C478 H518 0.951 . S
C479 C478 1.340 . S
C479 C480 1.439 . S
C479 H519 0.950 . S
C480 C479 1.439 . S
C480 N481 1.374 . S
C480 C514 1.395 . S
N481 C477 1.376 . S
N481 C480 1.374 . S
N481 Co482 2.008 . S
Co482 N481 2.008 . S
Co482 N483 1.995 . S
Co482 N488 2.008 . S
Co482 N493 1.995 . S
Co482 N498 2.282 1_545 S
Co482 N504 2.282 . S
N483 Co482 1.995 . S
N483 C484 1.376 . S
N483 C487 1.383 . S
C484 N483 1.376 . S
C484 C485 1.446 . S
C484 C514 1.391 . S
C485 C484 1.446 . S
C485 C486 1.339 . S
C485 H520 0.949 . S
C486 C485 1.339 . S
C486 C487 1.439 . S
C486 H521 0.950 1_445 S
C487 N483 1.383 . S
C487 C486 1.439 . S
C487 C516 1.392 1_545 S
N488 Co482 2.008 . S
N488 C489 1.376 1_545 S
N488 C492 1.374 1_545 S
C489 N488 1.376 1_565 S
C489 C490 1.443 . S
C489 C516 1.389 . S
C490 C489 1.443 . S
C490 C491 1.340 . S
C490 H522 0.951 . S
C491 C490 1.340 . S
C491 C492 1.439 . S
C491 H523 0.950 . S
C492 N488 1.374 1_565 S
C492 C491 1.439 . S
C492 C517 1.395 1_565 S
N493 Co482 1.995 . S
N493 C494 1.376 . S
N493 C497 1.383 . S
C494 N493 1.376 . S
C494 C495 1.446 . S
C494 C517 1.391 . S
C495 C494 1.446 . S
C495 C496 1.339 . S
C495 H524 0.949 . S
C496 C495 1.339 . S
C496 C497 1.439 . S
C496 H525 0.950 . S
C497 N493 1.383 . S
C497 C496 1.439 . S
C497 C515 1.392 . S
N498 Co482 2.282 1_565 S
N498 C501 1.332 . S
N498 C503 1.332 . S
C499 C500 1.386 . S
C499 C502 1.388 . S
C500 C499 1.386 . S
C500 C501 1.382 . S
C500 H526 0.950 . S
C501 N498 1.332 . S
C501 C500 1.382 . S
C501 H512 0.952 . S
C502 C499 1.388 . S
C502 C503 1.382 . S
C502 H527 0.950 . S
C503 N498 1.332 . S
C503 C502 1.382 . S
C503 H513 0.948 . S
N504 Co482 2.282 . S
N504 C508 1.332 . S
N504 C509 1.332 . S
C505 C506 1.388 . S
C505 C509 1.382 . S
C505 H528 0.950 . S
C506 C505 1.388 . S
C506 C507 1.386 . S
C507 C506 1.386 . S
C507 C508 1.382 . S
C507 H529 0.950 . S
C508 N504 1.332 . S
C508 C507 1.382 . S
C508 H510 0.952 . S
C509 N504 1.332 . S
C509 C505 1.382 . S
C509 H511 0.948 . S
H510 C508 0.952 . S
H511 C509 0.948 . S
H512 C501 0.952 . S
H513 C503 0.948 . S
C514 C480 1.395 . S
C514 C484 1.391 . S
C515 C477 1.389 . S
C515 C497 1.392 . S
C516 C487 1.392 1_565 S
C516 C489 1.389 . S
C517 C492 1.395 1_545 S
C517 C494 1.391 . S
H518 C478 0.951 . S
H519 C479 0.950 . S
H520 C485 0.949 . S
H521 C486 0.950 1_665 S
H522 C490 0.951 . S
H523 C491 0.950 . S
H524 C495 0.949 . S
H525 C496 0.950 . S
H526 C500 0.950 . S
H527 C502 0.950 . S
H528 C505 0.950 . S
H529 C507 0.950 . S
C530 C531 1.443 . S
C530 N534 1.376 . S
C530 C568 1.389 . S
C531 C530 1.443 . S
C531 C532 1.340 . S
C531 H571 0.951 . S
C532 C531 1.340 . S
C532 C533 1.439 . S
C532 H572 0.950 . S
C533 C532 1.439 . S
C533 N534 1.374 . S
C533 C567 1.395 . S
N534 C530 1.376 . S
N534 C533 1.374 . S
N534 Co535 2.008 1_556 S
Co535 N534 2.008 1_554 S
Co535 N536 1.995 1_554 S
Co535 N541 2.008 . S
Co535 N546 1.995 . S
Co535 N551 2.282 . S
Co535 N557 2.282 1_554 S
N536 Co535 1.995 1_556 S
N536 C537 1.376 . S
N536 C540 1.383 . S
C537 N536 1.376 . S
C537 C538 1.446 . S
C537 C567 1.391 . S
C538 C537 1.446 . S
C538 C539 1.339 . S
C538 H573 0.949 . S
C539 C538 1.339 . S
C539 C540 1.439 . S
C539 H574 0.950 . S
C540 N536 1.383 . S
C540 C539 1.439 . S
C540 C569 1.392 1_556 S
N541 Co535 2.008 . S
N541 C542 1.376 . S
N541 C545 1.374 . S
C542 N541 1.376 . S
C542 C543 1.443 . S
C542 C569 1.389 . S
C543 C542 1.443 . S
C543 C544 1.340 . S
C543 H575 0.951 . S
C544 C543 1.340 . S
C544 C545 1.439 . S
C544 H576 0.950 . S
C545 N541 1.374 . S
C545 C544 1.439 . S
C545 C570 1.395 . S
N546 Co535 1.995 . S
N546 C547 1.376 . S
N546 C550 1.383 . S
C547 N546 1.376 . S
C547 C548 1.446 . S
C547 C570 1.391 . S
C548 C547 1.446 . S
C548 C549 1.339 . S
C548 H577 0.949 . S
C549 C548 1.339 . S
C549 C550 1.439 . S
C549 H578 0.950 . S
C550 N546 1.383 . S
C550 C549 1.439 . S
C550 C568 1.392 1_554 S
N551 Co535 2.282 . S
N551 C554 1.332 . S
N551 C556 1.332 1_554 S
C552 C553 1.386 . S
C552 C555 1.388 1_554 S
C553 C552 1.386 . S
C553 C554 1.382 . S
C553 H579 0.950 . S
C554 N551 1.332 . S
C554 C553 1.382 . S
C554 H565 0.952 . S
C555 C552 1.388 1_556 S
C555 C556 1.382 . S
C555 H580 0.950 . S
C556 N551 1.332 1_556 S
C556 C555 1.382 . S
C556 H566 0.948 . S
N557 Co535 2.282 1_556 S
N557 C561 1.332 . S
N557 C562 1.332 1_556 S
C558 C559 1.388 1_554 S
C558 C562 1.382 . S
C558 H581 0.950 . S
C559 C558 1.388 1_556 S
C559 C560 1.386 . S
C560 C559 1.386 . S
C560 C561 1.382 . S
C560 H582 0.950 . S
C561 N557 1.332 . S
C561 C560 1.382 . S
C561 H563 0.952 . S
C562 N557 1.332 1_554 S
C562 C558 1.382 . S
C562 H564 0.948 . S
H563 C561 0.952 . S
H564 C562 0.948 . S
H565 C554 0.952 . S
H566 C556 0.948 . S
C567 C533 1.395 . S
C567 C537 1.391 . S
C568 C530 1.389 . S
C568 C550 1.392 1_556 S
C569 C540 1.392 1_554 S
C569 C542 1.389 . S
C570 C545 1.395 . S
C570 C547 1.391 . S
H571 C531 0.951 . S
H572 C532 0.950 . S
H573 C538 0.949 . S
H574 C539 0.950 . S
H575 C543 0.951 . S
H576 C544 0.950 . S
H577 C548 0.949 . S
H578 C549 0.950 . S
H579 C553 0.950 . S
H580 C555 0.950 . S
H581 C558 0.950 . S
H582 C560 0.950 . S
C583 C584 1.443 . S
C583 N587 1.376 . S
C583 C621 1.389 . S
C584 C583 1.443 . S
C584 C585 1.340 . S
C584 H624 0.951 . S
C585 C584 1.340 . S
C585 C586 1.439 . S
C585 H625 0.950 . S
C586 C585 1.439 . S
C586 N587 1.374 . S
C586 C620 1.395 . S
N587 C583 1.376 . S
N587 C586 1.374 . S
N587 Co588 2.008 . S
Co588 N587 2.008 . S
Co588 N589 1.995 . S
Co588 N594 2.008 . S
Co588 N599 1.995 . S
Co588 N604 2.282 1_565 S
Co588 N610 2.282 . S
N589 Co588 1.995 . S
N589 C590 1.376 . S
N589 C593 1.383 . S
C590 N589 1.376 . S
C590 C591 1.446 . S
C590 C620 1.391 . S
C591 C590 1.446 . S
C591 C592 1.339 . S
C591 H626 0.949 . S
C592 C591 1.339 . S
C592 C593 1.439 . S
C592 H627 0.950 1_565 S
C593 N589 1.383 . S
C593 C592 1.439 . S
C593 C622 1.392 1_565 S
N594 Co588 2.008 . S
N594 C595 1.376 1_565 S
N594 C598 1.374 1_565 S
C595 N594 1.376 1_545 S
C595 C596 1.443 . S
C595 C622 1.389 . S
C596 C595 1.443 . S
C596 C597 1.340 . S
C596 H628 0.951 . S
C597 C596 1.340 . S
C597 C598 1.439 . S
C597 H629 0.950 . S
C598 N594 1.374 1_545 S
C598 C597 1.439 . S
C598 C623 1.395 1_545 S
N599 Co588 1.995 . S
N599 C600 1.376 . S
N599 C603 1.383 . S
C600 N599 1.376 . S
C600 C601 1.446 . S
C600 C623 1.391 . S
C601 C600 1.446 . S
C601 C602 1.339 . S
C601 H630 0.949 1_554 S
C602 C601 1.339 . S
C602 C603 1.439 . S
C602 H631 0.950 . S
C603 N599 1.383 . S
C603 C602 1.439 . S
C603 C621 1.392 . S
N604 Co588 2.282 1_545 S
N604 C607 1.332 . S
N604 C609 1.332 . S
C605 C606 1.386 . S
C605 C608 1.388 . S
C606 C605 1.386 . S
C606 C607 1.382 . S
C606 H632 0.950 . S
C607 N604 1.332 . S
C607 C606 1.382 . S
C607 H618 0.952 . S
C608 C605 1.388 . S
C608 C609 1.382 . S
C608 H633 0.950 . S
C609 N604 1.332 . S
C609 C608 1.382 . S
C609 H619 0.948 . S
N610 Co588 2.282 . S
N610 C614 1.332 . S
N610 C615 1.332 . S
C611 C612 1.388 . S
C611 C615 1.382 . S
C611 H634 0.950 . S
C612 C611 1.388 . S
C612 C613 1.386 . S
C613 C612 1.386 . S
C613 C614 1.382 . S
C613 H635 0.950 . S
C614 N610 1.332 . S
C614 C613 1.382 . S
C614 H616 0.952 . S
C615 N610 1.332 . S
C615 C611 1.382 . S
C615 H617 0.948 . S
H616 C614 0.952 . S
H617 C615 0.948 . S
H618 C607 0.952 . S
H619 C609 0.948 . S
C620 C586 1.395 . S
C620 C590 1.391 . S
C621 C583 1.389 . S
C621 C603 1.392 . S
C622 C593 1.392 1_545 S
C622 C595 1.389 . S
C623 C598 1.395 1_565 S
C623 C600 1.391 . S
H624 C584 0.951 . S
H625 C585 0.950 . S
H626 C591 0.949 . S
H627 C592 0.950 1_545 S
H628 C596 0.951 . S
H629 C597 0.950 . S
H630 C601 0.949 1_556 S
H631 C602 0.950 . S
H632 C606 0.950 . S
H633 C608 0.950 . S
H634 C611 0.950 . S
H635 C613 0.950 . S
C636 C637 1.443 . S
C636 N640 1.376 . S
C636 C674 1.389 . S
C637 C636 1.443 . S
C637 C638 1.340 . S
C637 H677 0.951 . S
C638 C637 1.340 . S
C638 C639 1.439 . S
C638 H678 0.950 . S
C639 C638 1.439 . S
C639 N640 1.374 . S
C639 C673 1.395 . S
N640 C636 1.376 . S
N640 C639 1.374 . S
N640 Co641 2.008 . S
Co641 N640 2.008 . S
Co641 N642 1.995 . S
Co641 N647 2.008 . S
Co641 N652 1.995 . S
Co641 N657 2.282 . S
Co641 N663 2.282 . S
N642 Co641 1.995 . S
N642 C643 1.376 . S
N642 C646 1.383 . S
C643 N642 1.376 . S
C643 C644 1.446 . S
C643 C673 1.391 . S
C644 C643 1.446 . S
C644 C645 1.339 . S
C644 H679 0.949 . S
C645 C644 1.339 . S
C645 C646 1.439 . S
C645 H680 0.950 . S
C646 N642 1.383 . S
C646 C645 1.439 . S
C646 C675 1.392 . S
N647 Co641 2.008 . S
N647 C648 1.376 . S
N647 C651 1.374 . S
C648 N647 1.376 . S
C648 C649 1.443 . S
C648 C675 1.389 . S
C649 C648 1.443 . S
C649 C650 1.340 . S
C649 H681 0.951 . S
C650 C649 1.340 . S
C650 C651 1.439 . S
C650 H682 0.950 . S
C651 N647 1.374 . S
C651 C650 1.439 . S
C651 C676 1.395 . S
N652 Co641 1.995 . S
N652 C653 1.376 . S
N652 C656 1.383 . S
C653 N652 1.376 . S
C653 C654 1.446 . S
C653 C676 1.391 . S
C654 C653 1.446 . S
C654 C655 1.339 . S
C654 H683 0.949 . S
C655 C654 1.339 . S
C655 C656 1.439 . S
C655 H684 0.950 . S
C656 N652 1.383 . S
C656 C655 1.439 . S
C656 C674 1.392 . S
N657 Co641 2.282 . S
N657 C660 1.332 . S
N657 C662 1.332 . S
C658 C659 1.386 . S
C658 C661 1.388 . S
C659 C658 1.386 . S
C659 C660 1.382 . S
C659 H685 0.950 . S
C660 N657 1.332 . S
C660 C659 1.382 . S
C660 H671 0.952 . S
C661 C658 1.388 . S
C661 C662 1.382 . S
C661 H686 0.950 . S
C662 N657 1.332 . S
C662 C661 1.382 . S
C662 H672 0.948 . S
N663 Co641 2.282 . S
N663 C667 1.332 . S
N663 C668 1.332 . S
C664 C665 1.388 . S
C664 C668 1.382 . S
C664 H687 0.950 . S
C665 C664 1.388 . S
C665 C666 1.386 . S
C666 C665 1.386 . S
C666 C667 1.382 . S
C666 H688 0.950 . S
C667 N663 1.332 . S
C667 C666 1.382 . S
C667 H669 0.952 . S
C668 N663 1.332 . S
C668 C664 1.382 . S
C668 H670 0.948 . S
H669 C667 0.952 . S
H670 C668 0.948 . S
H671 C660 0.952 . S
H672 C662 0.948 . S
C673 C639 1.395 . S
C673 C643 1.391 . S
C674 C636 1.389 . S
C674 C656 1.392 . S
C675 C646 1.392 . S
C675 C648 1.389 . S
C676 C651 1.395 . S
C676 C653 1.391 . S
H677 C637 0.951 . S
H678 C638 0.950 . S
H679 C644 0.949 . S
H680 C645 0.950 . S
H681 C649 0.951 . S
H682 C650 0.950 . S
H683 C654 0.949 . S
H684 C655 0.950 . S
H685 C659 0.950 . S
H686 C661 0.950 . S
H687 C664 0.950 . S
H688 C666 0.950 . S
C689 C690 1.443 . S
C689 N693 1.376 . S
C689 C727 1.389 . S
C690 C689 1.443 . S
C690 C691 1.340 . S
C690 H730 0.951 . S
C691 C690 1.340 . S
C691 C692 1.439 . S
C691 H731 0.950 . S
C692 C691 1.439 . S
C692 N693 1.374 . S
C692 C726 1.395 . S
N693 C689 1.376 . S
N693 C692 1.374 . S
N693 Co694 2.008 . S
Co694 N693 2.008 . S
Co694 N695 1.995 . S
Co694 N700 2.008 . S
Co694 N705 1.995 . S
Co694 N710 2.282 1_565 S
Co694 N716 2.282 . S
N695 Co694 1.995 . S
N695 C696 1.376 . S
N695 C699 1.383 1_665 S
C696 N695 1.376 . S
C696 C697 1.446 1_665 S
C696 C726 1.391 . S
C697 C696 1.446 1_445 S
C697 C698 1.339 . S
C697 H732 0.949 . S
C698 C697 1.339 . S
C698 C699 1.439 . S
C698 H733 0.950 . S
C699 N695 1.383 1_445 S
C699 C698 1.439 . S
C699 C728 1.392 . S
N700 Co694 2.008 . S
N700 C701 1.376 1_565 S
N700 C704 1.374 . S
C701 N700 1.376 1_545 S
C701 C702 1.443 1_655 S
C701 C728 1.389 1_655 S
C702 C701 1.443 1_455 S
C702 C703 1.340 1_445 S
C702 H734 0.951 . S
C703 C702 1.340 1_665 S
C703 C704 1.439 . S
C703 H735 0.950 . S
C704 N700 1.374 . S
C704 C703 1.439 . S
C704 C729 1.395 . S
N705 Co694 1.995 . S
N705 C706 1.376 . S
N705 C709 1.383 . S
C706 N705 1.376 . S
C706 C707 1.446 . S
C706 C729 1.391 . S
C707 C706 1.446 . S
C707 C708 1.339 . S
C707 H736 0.949 . S
C708 C707 1.339 . S
C708 C709 1.439 . S
C708 H737 0.950 . S
C709 N705 1.383 . S
C709 C708 1.439 . S
C709 C727 1.392 . S
N710 Co694 2.282 1_545 S
N710 C713 1.332 . S
N710 C715 1.332 . S
C711 C712 1.386 . S
C711 C714 1.388 . S
C712 C711 1.386 . S
C712 C713 1.382 . S
C712 H738 0.950 . S
C713 N710 1.332 . S
C713 C712 1.382 . S
C713 H724 0.952 1_545 S
C714 C711 1.388 . S
C714 C715 1.382 . S
C714 H739 0.950 . S
C715 N710 1.332 . S
C715 C714 1.382 . S
C715 H725 0.948 . S
N716 Co694 2.282 . S
N716 C720 1.332 . S
N716 C721 1.332 . S
C717 C718 1.388 . S
C717 C721 1.382 . S
C717 H740 0.950 . S
C718 C717 1.388 . S
C718 C719 1.386 . S
C719 C718 1.386 . S
C719 C720 1.382 . S
C719 H741 0.950 1_655 S
C720 N716 1.332 . S
C720 C719 1.382 . S
C720 H722 0.952 . S
C721 N716 1.332 . S
C721 C717 1.382 . S
C721 H723 0.948 . S
H722 C720 0.952 . S
H723 C721 0.948 . S
H724 C713 0.952 1_565 S
H725 C715 0.948 . S
C726 C692 1.395 . S
C726 C696 1.391 . S
C727 C689 1.389 . S
C727 C709 1.392 . S
C728 C699 1.392 . S
C728 C701 1.389 1_455 S
C729 C704 1.395 . S
C729 C706 1.391 . S
H730 C690 0.951 . S
H731 C691 0.950 . S
H732 C697 0.949 . S
H733 C698 0.950 . S
H734 C702 0.951 . S
H735 C703 0.950 . S
H736 C707 0.949 . S
H737 C708 0.950 . S
H738 C712 0.950 . S
H739 C714 0.950 . S
H740 C717 0.950 . S
H741 C719 0.950 1_455 S
C742 C743 1.443 . S
C742 N746 1.376 . S
C742 C780 1.389 . S
C743 C742 1.443 . S
C743 C744 1.340 . S
C743 H783 0.951 . S
C744 C743 1.340 . S
C744 C745 1.439 . S
C744 H784 0.950 . S
C745 C744 1.439 . S
C745 N746 1.374 . S
C745 C779 1.395 . S
N746 C742 1.376 . S
N746 C745 1.374 . S
N746 Co747 2.008 1_554 S
Co747 N746 2.008 1_556 S
Co747 N748 1.995 1_556 S
Co747 N753 2.008 . S
Co747 N758 1.995 . S
Co747 N763 2.282 . S
Co747 N769 2.282 1_556 S
N748 Co747 1.995 1_554 S
N748 C749 1.376 . S
N748 C752 1.383 . S
C749 N748 1.376 . S
C749 C750 1.446 . S
C749 C779 1.391 . S
C750 C749 1.446 . S
C750 C751 1.339 . S
C750 H785 0.949 . S
C751 C750 1.339 . S
C751 C752 1.439 . S
C751 H786 0.950 . S
C752 N748 1.383 . S
C752 C751 1.439 . S
C752 C781 1.392 1_554 S
N753 Co747 2.008 . S
N753 C754 1.376 . S
N753 C757 1.374 . S
C754 N753 1.376 . S
C754 C755 1.443 . S
C754 C781 1.389 . S
C755 C754 1.443 . S
C755 C756 1.340 . S
C755 H787 0.951 . S
C756 C755 1.340 . S
C756 C757 1.439 . S
C756 H788 0.950 . S
C757 N753 1.374 . S
C757 C756 1.439 . S
C757 C782 1.395 . S
N758 Co747 1.995 . S
N758 C759 1.376 . S
N758 C762 1.383 . S
C759 N758 1.376 . S
C759 C760 1.446 . S
C759 C782 1.391 . S
C760 C759 1.446 . S
C760 C761 1.339 . S
C760 H789 0.949 . S
C761 C760 1.339 . S
C761 C762 1.439 . S
C761 H790 0.950 . S
C762 N758 1.383 . S
C762 C761 1.439 . S
C762 C780 1.392 1_556 S
N763 Co747 2.282 . S
N763 C766 1.332 . S
N763 C768 1.332 1_556 S
C764 C765 1.386 . S
C764 C767 1.376 1_556 S
C765 C764 1.386 . S
C765 C766 1.382 . S
C765 H791 0.950 . S
C766 N763 1.332 . S
C766 C765 1.382 . S
C766 H777 0.952 . S
C767 C764 1.376 1_554 S
C767 C768 1.386 . S
C767 H792 0.959 . S
C768 N763 1.332 1_554 S
C768 C767 1.386 . S
C768 H778 0.948 . S
N769 Co747 2.282 1_554 S
N769 C773 1.332 . S
N769 C774 1.332 1_554 S
C770 C771 1.372 1_556 S
C770 C774 1.387 . S
C770 H793 0.962 . S
C771 C770 1.372 1_554 S
C771 C772 1.386 . S
C772 C771 1.386 . S
C772 C773 1.382 . S
C772 H794 0.950 . S
C773 N769 1.332 . S
C773 C772 1.382 . S
C773 H775 0.952 . S
C774 N769 1.332 1_556 S
C774 C770 1.387 . S
C774 H776 0.948 . S
H775 C773 0.952 . S
H776 C774 0.948 . S
H777 C766 0.952 . S
H778 C768 0.948 . S
C779 C745 1.395 . S
C779 C749 1.391 . S
C780 C742 1.389 . S
C780 C762 1.392 1_554 S
C781 C752 1.392 1_556 S
C781 C754 1.389 . S
C782 C757 1.395 . S
C782 C759 1.391 . S
H783 C743 0.951 . S
H784 C744 0.950 . S
H785 C750 0.949 . S
H786 C751 0.950 . S
H787 C755 0.951 . S
H788 C756 0.950 . S
H789 C760 0.949 . S
H790 C761 0.950 . S
H791 C765 0.950 . S
H792 C767 0.959 . S
H793 C770 0.962 . S
H794 C772 0.950 . S
C795 C796 1.443 . S
C795 N799 1.376 . S
C795 C833 1.389 . S
C796 C795 1.443 . S
C796 C797 1.340 . S
C796 H836 0.951 . S
C797 C796 1.340 . S
C797 C798 1.439 . S
C797 H837 0.950 . S
C798 C797 1.439 . S
C798 N799 1.374 . S
C798 C832 1.395 . S
N799 C795 1.376 . S
N799 C798 1.374 . S
N799 Co800 2.008 . S
Co800 N799 2.008 . S
Co800 N801 1.995 . S
Co800 N806 2.008 . S
Co800 N811 1.995 . S
Co800 N816 2.282 1_545 S
Co800 N822 2.282 . S
N801 Co800 1.995 . S
N801 C802 1.376 . S
N801 C805 1.383 1_545 S
C802 N801 1.376 . S
C802 C803 1.446 1_545 S
C802 C832 1.391 . S
C803 C802 1.446 1_565 S
C803 C804 1.339 . S
C803 H838 0.949 . S
C804 C803 1.339 . S
C804 C805 1.439 . S
C804 H839 0.950 . S
C805 N801 1.383 1_565 S
C805 C804 1.439 . S
C805 C834 1.392 . S
N806 Co800 2.008 . S
N806 C807 1.376 1_545 S
N806 C810 1.374 . S
C807 N806 1.376 1_565 S
C807 C808 1.443 . S
C807 C834 1.389 . S
C808 C807 1.443 . S
C808 C809 1.340 1_565 S
C808 H840 0.951 . S
C809 C808 1.340 1_545 S
C809 C810 1.439 . S
C809 H841 0.950 . S
C810 N806 1.374 . S
C810 C809 1.439 . S
C810 C835 1.395 . S
N811 Co800 1.995 . S
N811 C812 1.376 . S
N811 C815 1.383 . S
C812 N811 1.376 . S
C812 C813 1.446 . S
C812 C835 1.391 . S
C813 C812 1.446 . S
C813 C814 1.339 . S
C813 H842 0.949 . S
C814 C813 1.339 . S
C814 C815 1.439 . S
C814 H843 0.950 . S
C815 N811 1.383 . S
C815 C814 1.439 . S
C815 C833 1.392 . S
N816 Co800 2.282 1_565 S
N816 C819 1.332 . S
N816 C821 1.332 . S
C817 C818 1.386 . S
C817 C820 1.388 . S
C818 C817 1.386 . S
C818 C819 1.382 . S
C818 H844 0.950 . S
C819 N816 1.332 . S
C819 C818 1.382 . S
C819 H830 0.952 1_565 S
C820 C817 1.388 . S
C820 C821 1.382 . S
C820 H845 0.950 . S
C821 N816 1.332 . S
C821 C820 1.382 . S
C821 H831 0.948 . S
N822 Co800 2.282 . S
N822 C826 1.332 . S
N822 C827 1.332 . S
C823 C824 1.388 . S
C823 C827 1.382 . S
C823 H846 0.950 . S
C824 C823 1.388 . S
C824 C825 1.386 . S
C825 C824 1.386 . S
C825 C826 1.382 . S
C825 H847 0.950 . S
C826 N822 1.332 . S
C826 C825 1.382 . S
C826 H828 0.952 . S
C827 N822 1.332 . S
C827 C823 1.382 . S
C827 H829 0.948 . S
H828 C826 0.952 . S
H829 C827 0.948 . S
H830 C819 0.952 1_545 S
H831 C821 0.948 . S
C832 C798 1.395 . S
C832 C802 1.391 . S
C833 C795 1.389 . S
C833 C815 1.392 . S
C834 C805 1.392 . S
C834 C807 1.389 . S
C835 C810 1.395 . S
C835 C812 1.391 . S
H836 C796 0.951 . S
H837 C797 0.950 . S
H838 C803 0.949 . S
H839 C804 0.950 . S
H840 C808 0.951 . S
H841 C809 0.950 . S
H842 C813 0.949 . S
H843 C814 0.950 . S
H844 C818 0.950 . S
H845 C820 0.950 . S
H846 C823 0.950 . S
H847 C825 0.950 . S
C848 C849 1.363 1_556 S
C848 C854 1.379 . S
C848 N856 1.356 . S
C849 C848 1.363 1_554 S
C849 C855 1.363 . S
C850 C851 1.363 1_544 S
C850 C855 1.379 1_545 S
C850 N857 1.356 . S
C851 C850 1.363 1_566 S
C851 C854 1.363 . S
N852 C854 1.356 . S
N852 H864 0.984 . S
N852 H865 0.985 . S
N853 C855 1.356 . S
N853 H858 0.984 . S
N853 H859 0.985 1_565 S
C854 C848 1.379 . S
C854 C851 1.363 . S
C854 N852 1.356 . S
C855 C849 1.363 . S
C855 C850 1.379 1_565 S
C855 N853 1.356 . S
N856 C848 1.356 . S
N856 H862 0.984 . S
N856 H863 0.984 . S
N857 C850 1.356 . S
N857 H860 0.984 . S
N857 H861 0.985 . S
H858 N853 0.984 . S
H859 N853 0.985 1_545 S
H860 N857 0.984 . S
H861 N857 0.985 . S
H862 N856 0.984 . S
H863 N856 0.984 . S
H864 N852 0.984 . S
H865 N852 0.985 . S
C866 C867 1.363 . S
C866 C872 1.379 . S
C866 N874 1.356 . S
C867 C866 1.363 . S
C867 C873 1.363 . S
C868 C869 1.363 . S
C868 C873 1.379 . S
C868 N875 1.356 . S
C869 C868 1.363 . S
C869 C872 1.363 . S
N870 C872 1.356 . S
N870 H882 0.984 . S
N870 H883 0.985 . S
N871 C873 1.356 . S
N871 H876 0.984 . S
N871 H877 0.985 . S
C872 C866 1.379 . S
C872 C869 1.363 . S
C872 N870 1.356 . S
C873 C867 1.363 . S
C873 C868 1.379 . S
C873 N871 1.356 . S
N874 C866 1.356 . S
N874 H880 0.984 . S
N874 H881 0.984 . S
N875 C868 1.356 . S
N875 H878 0.984 . S
N875 H879 0.985 . S
H876 N871 0.984 . S
H877 N871 0.985 . S
H878 N875 0.984 . S
H879 N875 0.985 . S
H880 N874 0.984 . S
H881 N874 0.984 . S
H882 N870 0.984 . S
H883 N870 0.985 . S
C884 C885 1.363 . S
C884 C890 1.379 . S
C884 N892 1.356 1_655 S
C885 C884 1.363 . S
C885 C891 1.363 1_545 S
C886 C887 1.363 1_565 S
C886 C891 1.379 . S
C886 N893 1.356 . S
C887 C886 1.363 1_545 S
C887 C890 1.363 . S
N888 C890 1.356 . S
N888 H900 0.984 . S
N888 H901 0.985 . S
N889 C891 1.356 . S
N889 H894 0.984 1_655 S
N889 H895 0.985 . S
C890 C884 1.379 . S
C890 C887 1.363 . S
C890 N888 1.356 . S
C891 C885 1.363 1_565 S
C891 C886 1.379 . S
C891 N889 1.356 . S
N892 C884 1.356 1_455 S
N892 H898 0.984 . S
N892 H899 0.984 . S
N893 C886 1.356 . S
N893 H896 1.002 . S
N893 H897 0.985 . S
H894 N889 0.984 1_455 S
H895 N889 0.985 . S
H896 N893 1.002 . S
H897 N893 0.985 . S
H898 N892 0.984 . S
H899 N892 0.984 . S
H900 N888 0.984 . S
H901 N888 0.985 . S
C902 C903 1.363 . S
C902 C908 1.379 . S
C902 N910 1.356 . S
C903 C902 1.363 . S
C903 C909 1.363 . S
C904 C905 1.363 . S
C904 C909 1.379 . S
C904 N911 1.356 . S
C905 C904 1.363 . S
C905 C908 1.363 . S
N906 C908 1.356 . S
N906 H918 0.984 . S
N906 H919 0.985 . S
N907 C909 1.356 . S
N907 H912 0.984 . S
N907 H913 0.985 . S
C908 C902 1.379 . S
C908 C905 1.363 . S
C908 N906 1.356 . S
C909 C903 1.363 . S
C909 C904 1.379 . S
C909 N907 1.356 . S
N910 C902 1.356 . S
N910 H916 0.984 . S
N910 H917 0.984 . S
N911 C904 1.356 . S
N911 H914 0.984 . S
N911 H915 0.985 . S
H912 N907 0.984 . S
H913 N907 0.985 . S
H914 N911 0.984 . S
H915 N911 0.985 . S
H916 N910 0.984 . S
H917 N910 0.984 . S
H918 N906 0.984 . S
H919 N906 0.985 . S
C920 C921 1.363 . S
C920 C926 1.379 . S
C920 N928 1.356 . S
C921 C920 1.363 . S
C921 C927 1.363 . S
C922 C923 1.363 . S
C922 C927 1.379 . S
C922 N929 1.356 . S
C923 C922 1.363 . S
C923 C926 1.363 . S
N924 C926 1.356 . S
N924 H936 0.984 . S
N924 H937 0.985 . S
N925 C927 1.356 . S
N925 H930 0.984 . S
N925 H931 0.985 . S
C926 C920 1.379 . S
C926 C923 1.363 . S
C926 N924 1.356 . S
C927 C921 1.363 . S
C927 C922 1.379 . S
C927 N925 1.356 . S
N928 C920 1.356 . S
N928 H934 0.984 . S
N928 H935 0.984 . S
N929 C922 1.356 . S
N929 H932 0.984 . S
N929 H933 0.985 . S
H930 N925 0.984 . S
H931 N925 0.985 . S
H932 N929 0.984 . S
H933 N929 0.985 . S
H934 N928 0.984 . S
H935 N928 0.984 . S
H936 N924 0.984 . S
H937 N924 0.985 . S
C938 C939 1.363 . S
C938 C944 1.379 . S
C938 N946 1.356 . S
C939 C938 1.363 . S
C939 C945 1.363 . S
C940 C941 1.363 . S
C940 C945 1.379 . S
C940 N947 1.356 . S
C941 C940 1.363 . S
C941 C944 1.363 . S
N942 C944 1.356 . S
N942 H954 0.984 . S
N942 H955 0.985 . S
N943 C945 1.356 . S
N943 H948 0.984 . S
N943 H949 0.985 . S
C944 C938 1.379 . S
C944 C941 1.363 . S
C944 N942 1.356 . S
C945 C939 1.363 . S
C945 C940 1.379 . S
C945 N943 1.356 . S
N946 C938 1.356 . S
N946 H952 0.984 . S
N946 H953 0.984 . S
N947 C940 1.356 . S
N947 H950 0.984 . S
N947 H951 0.985 . S
H948 N943 0.984 . S
H949 N943 0.985 . S
H950 N947 0.984 . S
H951 N947 0.985 . S
H952 N946 0.984 . S
H953 N946 0.984 . S
H954 N942 0.984 . S
H955 N942 0.985 . S
C956 C957 1.364 1_655 S
C956 C962 1.367 1_655 S
C956 N964 1.369 . S
C957 C956 1.364 1_455 S
C957 C963 1.363 . S
C958 C959 1.363 . S
C958 C963 1.379 . S
C958 N965 1.356 . S
C959 C958 1.363 . S
C959 C962 1.363 . S
N960 C962 1.356 . S
N960 H972 0.984 . S
N960 H973 0.985 . S
N961 C963 1.356 . S
N961 H966 0.989 . S
N961 H967 0.985 . S
C962 C956 1.367 1_455 S
C962 C959 1.363 . S
C962 N960 1.356 . S
C963 C957 1.363 . S
C963 C958 1.379 . S
C963 N961 1.356 . S
N964 C956 1.369 . S
N964 H970 0.984 . S
N964 H971 0.984 . S
N965 C958 1.356 . S
N965 H968 0.984 . S
N965 H969 0.985 . S
H966 N961 0.989 . S
H967 N961 0.985 . S
H968 N965 0.984 . S
H969 N965 0.985 . S
H970 N964 0.984 . S
H971 N964 0.984 . S
H972 N960 0.984 . S
H973 N960 0.985 . S
C974 C975 1.363 . S
C974 C980 1.379 . S
C974 N982 1.356 . S
C975 C974 1.363 . S
C975 C981 1.363 1_554 S
C976 C977 1.363 . S
C976 C981 1.379 . S
C976 N983 1.356 . S
C977 C976 1.363 . S
C977 C980 1.363 1_556 S
N978 C980 1.356 . S
N978 H990 0.984 . S
N978 H991 0.985 . S
N979 C981 1.356 . S
N979 H984 0.984 . S
N979 H985 0.985 . S
C980 C974 1.379 . S
C980 C977 1.363 1_554 S
C980 N978 1.356 . S
C981 C975 1.363 1_556 S
C981 C976 1.379 . S
C981 N979 1.356 . S
N982 C974 1.356 . S
N982 H988 0.984 . S
N982 H989 0.984 . S
N983 C976 1.356 . S
N983 H986 0.984 . S
N983 H987 0.985 . S
H984 N979 0.984 . S
H985 N979 0.985 . S
H986 N983 0.984 . S
H987 N983 0.985 . S
H988 N982 0.984 . S
H989 N982 0.984 . S
H990 N978 0.984 . S
H991 N978 0.985 . S
C992 C993 1.363 . S
C992 C998 1.379 . S
C992 N1000 1.356 . S
C993 C992 1.363 . S
C993 C999 1.363 . S
C994 C995 1.363 . S
C994 C999 1.379 . S
C994 N1001 1.356 . S
C995 C994 1.363 . S
C995 C998 1.363 . S
N996 C998 1.356 . S
N996 H1008 0.984 . S
N996 H1009 0.985 . S
N997 C999 1.356 . S
N997 H1002 0.984 . S
N997 H1003 0.985 . S
C998 C992 1.379 . S
C998 C995 1.363 . S
C998 N996 1.356 . S
C999 C993 1.363 . S
C999 C994 1.379 . S
C999 N997 1.356 . S
N1000 C992 1.356 . S
N1000 H1006 0.984 . S
N1000 H1007 0.984 . S
N1001 C994 1.356 . S
N1001 H1004 0.984 1_554 S
N1001 H1005 0.985 1_554 S
H1002 N997 0.984 . S
H1003 N997 0.985 . S
H1004 N1001 0.984 1_556 S
H1005 N1001 0.985 1_556 S
H1006 N1000 0.984 . S
H1007 N1000 0.984 . S
H1008 N996 0.984 . S
H1009 N996 0.985 . S
C1010 C1011 1.363 . S
C1010 C1016 1.379 . S
C1010 N1018 1.356 . S
C1011 C1010 1.363 . S
C1011 C1017 1.363 . S
C1012 C1013 1.363 . S
C1012 C1017 1.379 . S
C1012 N1019 1.356 . S
C1013 C1012 1.363 . S
C1013 C1016 1.363 . S
N1014 C1016 1.356 . S
N1014 H1026 0.984 . S
N1014 H1027 0.985 . S
N1015 C1017 1.356 . S
N1015 H1020 0.984 . S
N1015 H1021 0.985 . S
C1016 C1010 1.379 . S
C1016 C1013 1.363 . S
C1016 N1014 1.356 . S
C1017 C1011 1.363 . S
C1017 C1012 1.379 . S
C1017 N1015 1.356 . S
N1018 C1010 1.356 . S
N1018 H1024 0.984 . S
N1018 H1025 0.984 . S
N1019 C1012 1.356 . S
N1019 H1022 0.984 . S
N1019 H1023 0.985 . S
H1020 N1015 0.984 . S
H1021 N1015 0.985 . S
H1022 N1019 0.984 . S
H1023 N1019 0.985 . S
H1024 N1018 0.984 . S
H1025 N1018 0.984 . S
H1026 N1014 0.984 . S
H1027 N1014 0.985 . S
C1028 C1029 1.363 . S
C1028 C1034 1.379 . S
C1028 N1036 1.356 . S
C1029 C1028 1.363 . S
C1029 C1035 1.363 . S
C1030 C1031 1.363 . S
C1030 C1035 1.379 . S
C1030 N1037 1.356 . S
C1031 C1030 1.363 . S
C1031 C1034 1.363 . S
N1032 C1034 1.356 . S
N1032 H1044 0.984 . S
N1032 H1045 0.985 . S
N1033 C1035 1.356 . S
N1033 H1038 0.984 . S
N1033 H1039 0.985 . S
C1034 C1028 1.379 . S
C1034 C1031 1.363 . S
C1034 N1032 1.356 . S
C1035 C1029 1.363 . S
C1035 C1030 1.379 . S
C1035 N1033 1.356 . S
N1036 C1028 1.356 . S
N1036 H1042 0.984 . S
N1036 H1043 0.984 . S
N1037 C1030 1.356 . S
N1037 H1040 0.984 . S
N1037 H1041 0.985 . S
H1038 N1033 0.984 . S
H1039 N1033 0.985 . S
H1040 N1037 0.984 . S
H1041 N1037 0.985 . S
H1042 N1036 0.984 . S
H1043 N1036 0.984 . S
H1044 N1032 0.984 . S
H1045 N1032 0.985 . S
C1046 C1047 1.363 . S
C1046 C1052 1.379 . S
C1046 N1054 1.356 1_455 S
C1047 C1046 1.363 . S
C1047 C1053 1.363 . S
C1048 C1049 1.363 . S
C1048 C1053 1.379 . S
C1048 N1055 1.356 . S
C1049 C1048 1.363 . S
C1049 C1052 1.363 . S
N1050 C1052 1.356 . S
N1050 H1062 0.984 . S
N1050 H1063 0.985 . S
N1051 C1053 1.356 . S
N1051 H1056 0.984 . S
N1051 H1057 0.985 . S
C1052 C1046 1.379 . S
C1052 C1049 1.363 . S
C1052 N1050 1.356 . S
C1053 C1047 1.363 . S
C1053 C1048 1.379 . S
C1053 N1051 1.356 . S
N1054 C1046 1.356 1_655 S
N1054 H1060 0.984 . S
N1054 H1061 0.984 . S
N1055 C1048 1.356 . S
N1055 H1058 0.984 . S
N1055 H1059 0.985 . S
H1056 N1051 0.984 . S
H1057 N1051 0.985 . S
H1058 N1055 0.984 . S
H1059 N1055 0.985 . S
H1060 N1054 0.984 . S
H1061 N1054 0.984 . S
H1062 N1050 0.984 . S
H1063 N1050 0.985 . S
C1064 C1065 1.363 . S
C1064 C1070 1.379 . S
C1064 N1072 1.356 . S
C1065 C1064 1.363 . S
C1065 C1071 1.363 . S
C1066 C1067 1.363 . S
C1066 C1071 1.379 . S
C1066 N1073 1.356 . S
C1067 C1066 1.363 . S
C1067 C1070 1.363 . S
N1068 C1070 1.356 . S
N1068 H1080 0.984 . S
N1068 H1081 0.985 . S
N1069 C1071 1.356 . S
N1069 H1074 0.984 . S
N1069 H1075 0.985 . S
C1070 C1064 1.379 . S
C1070 C1067 1.363 . S
C1070 N1068 1.356 . S
C1071 C1065 1.363 . S
C1071 C1066 1.379 . S
C1071 N1069 1.356 . S
N1072 C1064 1.356 . S
N1072 H1078 0.984 . S
N1072 H1079 0.984 . S
N1073 C1066 1.356 . S
N1073 H1076 0.984 . S
N1073 H1077 0.985 . S
H1074 N1069 0.984 . S
H1075 N1069 0.985 . S
H1076 N1073 0.984 . S
H1077 N1073 0.985 . S
H1078 N1072 0.984 . S
H1079 N1072 0.984 . S
H1080 N1068 0.984 . S
H1081 N1068 0.985 . S
C1082 C1083 1.363 . S
C1082 C1088 1.379 . S
C1082 N1090 1.356 . S
C1083 C1082 1.363 . S
C1083 C1089 1.363 . S
C1084 C1085 1.363 . S
C1084 C1089 1.379 . S
C1084 N1091 1.356 . S
C1085 C1084 1.363 . S
C1085 C1088 1.363 . S
N1086 C1088 1.356 . S
N1086 H1098 0.984 . S
N1086 H1099 0.985 . S
N1087 C1089 1.356 . S
N1087 H1092 0.984 . S
N1087 H1093 0.985 . S
C1088 C1082 1.379 . S
C1088 C1085 1.363 . S
C1088 N1086 1.356 . S
C1089 C1083 1.363 . S
C1089 C1084 1.379 . S
C1089 N1087 1.356 . S
N1090 C1082 1.356 . S
N1090 H1096 0.984 . S
N1090 H1097 0.984 . S
N1091 C1084 1.356 . S
N1091 H1094 0.984 . S
N1091 H1095 0.985 . S
H1092 N1087 0.984 . S
H1093 N1087 0.985 . S
H1094 N1091 0.984 . S
H1095 N1091 0.985 . S
H1096 N1090 0.984 . S
H1097 N1090 0.984 . S
H1098 N1086 0.984 . S
H1099 N1086 0.985 . S
C1100 C1101 1.363 . S
C1100 C1106 1.379 . S
C1100 N1108 1.356 . S
C1101 C1100 1.363 . S
C1101 C1107 1.363 . S
C1102 C1103 1.363 . S
C1102 C1107 1.379 . S
C1102 N1109 1.356 . S
C1103 C1102 1.363 . S
C1103 C1106 1.363 . S
N1104 C1106 1.356 . S
N1104 H1116 0.984 . S
N1104 H1117 0.985 . S
N1105 C1107 1.356 . S
N1105 H1110 0.984 . S
N1105 H1111 0.985 . S
C1106 C1100 1.379 . S
C1106 C1103 1.363 . S
C1106 N1104 1.356 . S
C1107 C1101 1.363 . S
C1107 C1102 1.379 . S
C1107 N1105 1.356 . S
N1108 C1100 1.356 . S
N1108 H1114 0.984 . S
N1108 H1115 0.984 . S
N1109 C1102 1.356 . S
N1109 H1112 0.984 . S
N1109 H1113 0.985 . S
H1110 N1105 0.984 . S
H1111 N1105 0.985 . S
H1112 N1109 0.984 . S
H1113 N1109 0.985 . S
H1114 N1108 0.984 . S
H1115 N1108 0.984 . S
H1116 N1104 0.984 . S
H1117 N1104 0.985 . S
C1118 C1119 1.363 . S
C1118 C1124 1.379 . S
C1118 N1126 1.356 . S
C1119 C1118 1.363 . S
C1119 C1125 1.363 . S
C1120 C1121 1.363 . S
C1120 C1125 1.379 . S
C1120 N1127 1.356 . S
C1121 C1120 1.363 . S
C1121 C1124 1.363 . S
N1122 C1124 1.356 . S
N1122 H1134 0.984 . S
N1122 H1135 0.985 . S
N1123 C1125 1.356 . S
N1123 H1128 0.984 . S
N1123 H1129 0.985 . S
C1124 C1118 1.379 . S
C1124 C1121 1.363 . S
C1124 N1122 1.356 . S
C1125 C1119 1.363 . S
C1125 C1120 1.379 . S
C1125 N1123 1.356 . S
N1126 C1118 1.356 . S
N1126 H1132 0.984 . S
N1126 H1133 0.984 . S
N1127 C1120 1.356 . S
N1127 H1130 0.984 . S
N1127 H1131 0.985 . S
H1128 N1123 0.984 . S
H1129 N1123 0.985 . S
H1130 N1127 0.984 . S
H1131 N1127 0.985 . S
H1132 N1126 0.984 . S
H1133 N1126 0.984 . S
H1134 N1122 0.984 . S
H1135 N1122 0.985 . S
C1136 C1137 1.363 . S
C1136 C1142 1.379 . S
C1136 N1144 1.356 . S
C1137 C1136 1.363 . S
C1137 C1143 1.363 . S
C1138 C1139 1.363 . S
C1138 C1143 1.379 . S
C1138 N1145 1.356 . S
C1139 C1138 1.363 . S
C1139 C1142 1.363 . S
N1140 C1142 1.356 . S
N1140 H1152 0.984 . S
N1140 H1153 0.985 . S
N1141 C1143 1.356 . S
N1141 H1146 0.984 . S
N1141 H1147 0.985 . S
C1142 C1136 1.379 . S
C1142 C1139 1.363 . S
C1142 N1140 1.356 . S
C1143 C1137 1.363 . S
C1143 C1138 1.379 . S
C1143 N1141 1.356 . S
N1144 C1136 1.356 . S
N1144 H1150 0.984 . S
N1144 H1151 0.984 . S
N1145 C1138 1.356 . S
N1145 H1148 0.984 . S
N1145 H1149 0.985 . S
H1146 N1141 0.984 . S
H1147 N1141 0.985 . S
H1148 N1145 0.984 . S
H1149 N1145 0.985 . S
H1150 N1144 0.984 . S
H1151 N1144 0.984 . S
H1152 N1140 0.984 . S
H1153 N1140 0.985 . S
C1154 C1155 1.363 . S
C1154 C1160 1.379 . S
C1154 N1162 1.356 . S
C1155 C1154 1.363 . S
C1155 C1161 1.363 . S
C1156 C1157 1.363 . S
C1156 C1161 1.379 . S
C1156 N1163 1.356 1_655 S
C1157 C1156 1.363 . S
C1157 C1160 1.363 . S
N1158 C1160 1.356 1_545 S
N1158 H1170 0.984 . S
N1158 H1171 0.985 . S
N1159 C1161 1.356 . S
N1159 H1164 0.984 . S
N1159 H1165 0.985 . S
C1160 C1154 1.379 . S
C1160 C1157 1.363 . S
C1160 N1158 1.356 1_565 S
C1161 C1155 1.363 . S
C1161 C1156 1.379 . S
C1161 N1159 1.356 . S
N1162 C1154 1.356 . S
N1162 H1168 0.984 1_565 S
N1162 H1169 0.984 . S
N1163 C1156 1.356 1_455 S
N1163 H1166 0.984 . S
N1163 H1167 0.985 . S
H1164 N1159 0.984 . S
H1165 N1159 0.985 . S
H1166 N1163 0.984 . S
H1167 N1163 0.985 . S
H1168 N1162 0.984 1_545 S
H1169 N1162 0.984 . S
H1170 N1158 0.984 . S
H1171 N1158 0.985 . S
C1172 C1173 1.363 . S
C1172 C1178 1.379 . S
C1172 N1180 1.356 . S
C1173 C1172 1.363 . S
C1173 C1179 1.363 . S
C1174 C1175 1.363 . S
C1174 C1179 1.379 . S
C1174 N1181 1.356 . S
C1175 C1174 1.363 . S
C1175 C1178 1.363 . S
N1176 C1178 1.356 . S
N1176 H1188 0.984 1_554 S
N1176 H1189 0.985 1_554 S
N1177 C1179 1.356 . S
N1177 H1182 0.984 . S
N1177 H1183 0.985 . S
C1178 C1172 1.379 . S
C1178 C1175 1.363 . S
C1178 N1176 1.356 . S
C1179 C1173 1.363 . S
C1179 C1174 1.379 . S
C1179 N1177 1.356 . S
N1180 C1172 1.356 . S
N1180 H1186 0.984 . S
N1180 H1187 0.984 . S
N1181 C1174 1.356 . S
N1181 H1184 0.984 . S
N1181 H1185 0.985 . S
H1182 N1177 0.984 . S
H1183 N1177 0.985 . S
H1184 N1181 0.984 . S
H1185 N1181 0.985 . S
H1186 N1180 0.984 . S
H1187 N1180 0.984 . S
H1188 N1176 0.984 1_556 S
H1189 N1176 0.985 1_556 S
C1190 C1191 1.363 . S
C1190 C1196 1.379 . S
C1190 N1198 1.356 . S
C1191 C1190 1.363 . S
C1191 C1197 1.363 . S
C1192 C1193 1.363 . S
C1192 C1197 1.379 . S
C1192 N1199 1.356 . S
C1193 C1192 1.363 . S
C1193 C1196 1.363 . S
N1194 C1196 1.356 . S
N1194 H1206 0.984 . S
N1194 H1207 0.985 . S
N1195 C1197 1.356 . S
N1195 H1200 0.984 . S
N1195 H1201 0.985 1_545 S
C1196 C1190 1.379 . S
C1196 C1193 1.363 . S
C1196 N1194 1.356 . S
C1197 C1191 1.363 . S
C1197 C1192 1.379 . S
C1197 N1195 1.356 . S
N1198 C1190 1.356 . S
N1198 H1204 0.984 . S
N1198 H1205 0.984 . S
N1199 C1192 1.356 . S
N1199 H1202 0.984 . S
N1199 H1203 0.985 . S
H1200 N1195 0.984 . S
H1201 N1195 0.985 1_565 S
H1202 N1199 0.984 . S
H1203 N1199 0.985 . S
H1204 N1198 0.984 . S
H1205 N1198 0.984 . S
H1206 N1194 0.984 . S
H1207 N1194 0.985 . S
C1208 C1209 1.363 . S
C1208 C1214 1.379 . S
C1208 N1216 1.356 . S
C1209 C1208 1.363 . S
C1209 C1215 1.363 . S
C1210 C1211 1.363 . S
C1210 C1215 1.379 . S
C1210 N1217 1.356 . S
C1211 C1210 1.363 . S
C1211 C1214 1.363 . S
N1212 C1214 1.356 . S
N1212 H1224 0.984 . S
N1212 H1225 0.985 . S
N1213 C1215 1.356 . S
N1213 H1218 0.984 . S
N1213 H1219 0.985 . S
C1214 C1208 1.379 . S
C1214 C1211 1.363 . S
C1214 N1212 1.356 . S
C1215 C1209 1.363 . S
C1215 C1210 1.379 . S
C1215 N1213 1.356 . S
N1216 C1208 1.356 . S
N1216 H1222 0.984 . S
N1216 H1223 0.984 . S
N1217 C1210 1.356 . S
N1217 H1220 0.984 . S
N1217 H1221 0.985 . S
H1218 N1213 0.984 . S
H1219 N1213 0.985 . S
H1220 N1217 0.984 . S
H1221 N1217 0.985 . S
H1222 N1216 0.984 . S
H1223 N1216 0.984 . S
H1224 N1212 0.984 . S
H1225 N1212 0.985 . S
C1226 C1227 1.363 . S
C1226 C1232 1.379 . S
C1226 N1234 1.356 . S
C1227 C1226 1.363 . S
C1227 C1233 1.363 . S
C1228 C1229 1.363 . S
C1228 C1233 1.379 . S
C1228 N1235 1.356 . S
C1229 C1228 1.363 . S
C1229 C1232 1.363 . S
N1230 C1232 1.356 . S
N1230 H1242 0.984 . S
N1230 H1243 0.985 . S
N1231 C1233 1.356 . S
N1231 H1236 0.984 . S
N1231 H1237 0.985 . S
C1232 C1226 1.379 . S
C1232 C1229 1.363 . S
C1232 N1230 1.356 . S
C1233 C1227 1.363 . S
C1233 C1228 1.379 . S
C1233 N1231 1.356 . S
N1234 C1226 1.356 . S
N1234 H1240 0.984 1_545 S
N1234 H1241 0.984 . S
N1235 C1228 1.356 . S
N1235 H1238 0.984 . S
N1235 H1239 0.985 . S
H1236 N1231 0.984 . S
H1237 N1231 0.985 . S
H1238 N1235 0.984 . S
H1239 N1235 0.985 . S
H1240 N1234 0.984 1_565 S
H1241 N1234 0.984 . S
H1242 N1230 0.984 . S
H1243 N1230 0.985 . S
C1244 C1245 1.363 . S
C1244 C1250 1.379 . S
C1244 N1252 1.356 . S
C1245 C1244 1.363 . S
C1245 C1251 1.363 . S
C1246 C1247 1.363 . S
C1246 C1251 1.379 . S
C1246 N1253 1.356 . S
C1247 C1246 1.363 . S
C1247 C1250 1.363 . S
N1248 C1250 1.356 . S
N1248 H1260 0.984 . S
N1248 H1261 0.985 . S
N1249 C1251 1.356 . S
N1249 H1254 0.984 . S
N1249 H1255 0.985 . S
C1250 C1244 1.379 . S
C1250 C1247 1.363 . S
C1250 N1248 1.356 . S
C1251 C1245 1.363 . S
C1251 C1246 1.379 . S
C1251 N1249 1.356 . S
N1252 C1244 1.356 . S
N1252 H1258 0.992 . S
N1252 H1259 0.990 . S
N1253 C1246 1.356 . S
N1253 H1256 0.984 . S
N1253 H1257 0.985 . S
H1254 N1249 0.984 . S
H1255 N1249 0.985 . S
H1256 N1253 0.984 . S
H1257 N1253 0.985 . S
H1258 N1252 0.992 . S
H1259 N1252 0.990 . S
H1260 N1248 0.984 . S
H1261 N1248 0.985 . S
C1262 C1263 1.363 . S
C1262 C1268 1.379 . S
C1262 N1270 1.356 . S
C1263 C1262 1.363 . S
C1263 C1269 1.363 . S
C1264 C1265 1.363 . S
C1264 C1269 1.379 . S
C1264 N1271 1.356 . S
C1265 C1264 1.363 . S
C1265 C1268 1.363 . S
N1266 C1268 1.356 . S
N1266 H1278 0.984 . S
N1266 H1279 0.985 . S
N1267 C1269 1.356 . S
N1267 H1272 0.984 . S
N1267 H1273 0.985 . S
C1268 C1262 1.379 . S
C1268 C1265 1.363 . S
C1268 N1266 1.356 . S
C1269 C1263 1.363 . S
C1269 C1264 1.379 . S
C1269 N1267 1.356 . S
N1270 C1262 1.356 . S
N1270 H1276 0.984 . S
N1270 H1277 0.984 . S
N1271 C1264 1.356 . S
N1271 H1274 0.984 . S
N1271 H1275 0.985 . S
H1272 N1267 0.984 . S
H1273 N1267 0.985 . S
H1274 N1271 0.984 . S
H1275 N1271 0.985 . S
H1276 N1270 0.984 . S
H1277 N1270 0.984 . S
H1278 N1266 0.984 . S
H1279 N1266 0.985 . S
C1280 C1281 1.363 . S
C1280 C1286 1.379 . S
C1280 N1288 1.356 . S
C1281 C1280 1.363 . S
C1281 C1287 1.362 . S
C1282 C1283 1.362 . S
C1282 C1287 1.379 . S
C1282 N1289 1.357 1_556 S
C1283 C1282 1.362 . S
C1283 C1286 1.363 . S
N1284 C1286 1.356 . S
N1284 H1296 0.984 . S
N1284 H1297 0.985 . S
N1285 C1287 1.357 1_554 S
N1285 H1290 0.984 . S
N1285 H1291 0.985 . S
C1286 C1280 1.379 . S
C1286 C1283 1.363 . S
C1286 N1284 1.356 . S
C1287 C1281 1.362 . S
C1287 C1282 1.379 . S
C1287 N1285 1.357 1_556 S
N1288 C1280 1.356 . S
N1288 H1294 0.984 . S
N1288 H1295 0.984 . S
N1289 C1282 1.357 1_554 S
N1289 H1292 0.984 . S
N1289 H1293 0.985 . S
H1290 N1285 0.984 . S
H1291 N1285 0.985 . S
H1292 N1289 0.984 . S
H1293 N1289 0.985 . S
H1294 N1288 0.984 . S
H1295 N1288 0.984 . S
H1296 N1284 0.984 . S
H1297 N1284 0.985 . S
C1298 C1299 1.363 . S
C1298 C1304 1.379 . S
C1298 N1306 1.356 . S
C1299 C1298 1.363 . S
C1299 C1305 1.363 . S
C1300 C1301 1.363 . S
C1300 C1305 1.379 . S
C1300 N1307 1.356 . S
C1301 C1300 1.363 . S
C1301 C1304 1.363 . S
N1302 C1304 1.356 . S
N1302 H1314 0.984 . S
N1302 H1315 0.985 . S
N1303 C1305 1.356 . S
N1303 H1308 0.984 . S
N1303 H1309 0.985 . S
C1304 C1298 1.379 . S
C1304 C1301 1.363 . S
C1304 N1302 1.356 . S
C1305 C1299 1.363 . S
C1305 C1300 1.379 . S
C1305 N1303 1.356 . S
N1306 C1298 1.356 . S
N1306 H1312 0.984 . S
N1306 H1313 0.984 . S
N1307 C1300 1.356 . S
N1307 H1310 0.984 . S
N1307 H1311 0.985 . S
H1308 N1303 0.984 . S
H1309 N1303 0.985 . S
H1310 N1307 0.984 . S
H1311 N1307 0.985 . S
H1312 N1306 0.984 . S
H1313 N1306 0.984 . S
H1314 N1302 0.984 . S
H1315 N1302 0.985 . S
C1316 C1317 1.363 . S
C1316 C1322 1.379 1_455 S
C1316 N1324 1.356 . S
C1317 C1316 1.363 . S
C1317 C1323 1.363 . S
C1318 C1319 1.363 . S
C1318 C1323 1.379 1_655 S
C1318 N1325 1.356 . S
C1319 C1318 1.363 . S
C1319 C1322 1.363 . S
N1320 C1322 1.356 . S
N1320 H1332 0.984 . S
N1320 H1333 0.985 . S
N1321 C1323 1.356 . S
N1321 H1326 0.984 . S
N1321 H1327 0.985 . S
C1322 C1316 1.379 1_655 S
C1322 C1319 1.363 . S
C1322 N1320 1.356 . S
C1323 C1317 1.363 . S
C1323 C1318 1.379 1_455 S
C1323 N1321 1.356 . S
N1324 C1316 1.356 . S
N1324 H1330 0.984 . S
N1324 H1331 0.984 . S
N1325 C1318 1.356 . S
N1325 H1328 0.984 . S
N1325 H1329 0.985 . S
H1326 N1321 0.984 . S
H1327 N1321 0.985 . S
H1328 N1325 0.984 . S
H1329 N1325 0.985 . S
H1330 N1324 0.984 . S
H1331 N1324 0.984 . S
H1332 N1320 0.984 . S
H1333 N1320 0.985 . S
C1334 C1335 1.363 1_655 S
C1334 C1340 1.379 . S
C1334 N1342 1.356 1_655 S
C1335 C1334 1.363 1_455 S
C1335 C1341 1.363 . S
C1336 C1337 1.363 1_455 S
C1336 C1341 1.379 . S
C1336 N1343 1.356 1_455 S
C1337 C1336 1.363 1_655 S
C1337 C1340 1.363 . S
N1338 C1340 1.356 . S
N1338 H1350 0.984 . S
N1338 H1351 0.985 . S
N1339 C1341 1.356 . S
N1339 H1344 0.984 . S
N1339 H1345 0.985 . S
C1340 C1334 1.379 . S
C1340 C1337 1.363 . S
C1340 N1338 1.356 . S
C1341 C1335 1.363 . S
C1341 C1336 1.379 . S
C1341 N1339 1.356 . S
N1342 C1334 1.356 1_455 S
N1342 H1348 0.984 1_455 S
N1342 H1349 0.984 . S
N1343 C1336 1.356 1_655 S
N1343 H1346 0.984 . S
N1343 H1347 0.985 1_655 S
H1344 N1339 0.984 . S
H1345 N1339 0.985 . S
H1346 N1343 0.984 . S
H1347 N1343 0.985 1_455 S
H1348 N1342 0.984 1_655 S
H1349 N1342 0.984 . S
H1350 N1338 0.984 . S
H1351 N1338 0.985 . S
C1352 C1353 1.363 . S
C1352 C1358 1.379 . S
C1352 N1360 1.356 1_554 S
C1353 C1352 1.363 . S
C1353 C1359 1.363 . S
C1354 C1355 1.363 . S
C1354 C1359 1.379 . S
C1354 N1361 1.356 . S
C1355 C1354 1.363 . S
C1355 C1358 1.363 . S
N1356 C1358 1.356 1_556 S
N1356 H1368 0.984 . S
N1356 H1369 0.985 . S
N1357 C1359 1.356 . S
N1357 H1362 0.984 . S
N1357 H1363 0.985 . S
C1358 C1352 1.379 . S
C1358 C1355 1.363 . S
C1358 N1356 1.356 1_554 S
C1359 C1353 1.363 . S
C1359 C1354 1.379 . S
C1359 N1357 1.356 . S
N1360 C1352 1.356 1_556 S
N1360 H1366 0.984 . S
N1360 H1367 0.984 . S
N1361 C1354 1.356 . S
N1361 H1364 0.984 . S
N1361 H1365 0.985 . S
H1362 N1357 0.984 . S
H1363 N1357 0.985 . S
H1364 N1361 0.984 . S
H1365 N1361 0.985 . S
H1366 N1360 0.984 . S
H1367 N1360 0.984 . S
H1368 N1356 0.984 . S
H1369 N1356 0.985 . S
C1370 C1371 1.363 . S
C1370 C1376 1.379 . S
C1370 N1378 1.356 . S
C1371 C1370 1.363 . S
C1371 C1377 1.363 . S
C1372 C1373 1.363 . S
C1372 C1377 1.379 . S
C1372 N1379 1.356 . S
C1373 C1372 1.363 . S
C1373 C1376 1.363 . S
N1374 C1376 1.356 . S
N1374 H1386 0.984 . S
N1374 H1387 0.985 . S
N1375 C1377 1.356 . S
N1375 H1380 0.984 . S
N1375 H1381 0.985 . S
C1376 C1370 1.379 . S
C1376 C1373 1.363 . S
C1376 N1374 1.356 . S
C1377 C1371 1.363 . S
C1377 C1372 1.379 . S
C1377 N1375 1.356 . S
N1378 C1370 1.356 . S
N1378 H1384 0.984 . S
N1378 H1385 0.984 . S
N1379 C1372 1.356 . S
N1379 H1382 0.984 . S
N1379 H1383 0.985 . S
H1380 N1375 0.984 . S
H1381 N1375 0.985 . S
H1382 N1379 0.984 . S
H1383 N1379 0.985 . S
H1384 N1378 0.984 . S
H1385 N1378 0.984 . S
H1386 N1374 0.984 . S
H1387 N1374 0.985 . S
C1388 C1389 1.363 . S
C1388 C1394 1.379 1_455 S
C1388 N1396 1.356 . S
C1389 C1388 1.363 . S
C1389 C1395 1.363 . S
C1390 C1391 1.363 . S
C1390 C1395 1.379 1_655 S
C1390 N1397 1.356 . S
C1391 C1390 1.363 . S
C1391 C1394 1.363 . S
N1392 C1394 1.356 . S
N1392 H1404 0.984 . S
N1392 H1405 0.985 . S
N1393 C1395 1.356 . S
N1393 H1398 0.984 . S
N1393 H1399 0.985 . S
C1394 C1388 1.379 1_655 S
C1394 C1391 1.363 . S
C1394 N1392 1.356 . S
C1395 C1389 1.363 . S
C1395 C1390 1.379 1_455 S
C1395 N1393 1.356 . S
N1396 C1388 1.356 . S
N1396 H1402 0.984 . S
N1396 H1403 0.984 . S
N1397 C1390 1.356 . S
N1397 H1400 0.984 . S
N1397 H1401 0.985 . S
H1398 N1393 0.984 . S
H1399 N1393 0.985 . S
H1400 N1397 0.984 . S
H1401 N1397 0.985 . S
H1402 N1396 0.984 . S
H1403 N1396 0.984 . S
H1404 N1392 0.984 . S
H1405 N1392 0.985 . S
C1406 C1407 1.353 1_655 S
C1406 C1412 1.379 . S
C1406 N1414 1.356 . S
C1407 C1406 1.353 1_455 S
C1407 C1413 1.375 . S
C1408 C1409 1.353 1_455 S
C1408 C1413 1.379 . S
C1408 N1415 1.356 . S
C1409 C1408 1.353 1_655 S
C1409 C1412 1.375 . S
N1410 C1412 1.356 . S
N1410 H1422 0.984 . S
N1410 H1423 0.985 . S
N1411 C1413 1.356 . S
N1411 H1416 0.984 . S
N1411 H1417 0.985 . S
C1412 C1406 1.379 . S
C1412 C1409 1.375 . S
C1412 N1410 1.356 . S
C1413 C1407 1.375 . S
C1413 C1408 1.379 . S
C1413 N1411 1.356 . S
N1414 C1406 1.356 . S
N1414 H1420 0.984 . S
N1414 H1421 0.984 . S
N1415 C1408 1.356 . S
N1415 H1418 0.984 . S
N1415 H1419 0.985 . S
H1416 N1411 0.984 . S
H1417 N1411 0.985 . S
H1418 N1415 0.984 . S
H1419 N1415 0.985 . S
H1420 N1414 0.984 . S
H1421 N1414 0.984 . S
H1422 N1410 0.984 . S
H1423 N1410 0.985 . S
C849 C250 2.584 . S
C851 C29 2.592 1_565 S
C867 C727 2.721 . S
C869 C91 2.697 . S
C885 C135 2.623 1_645 S
C887 C356 2.615 . S
C903 C833 2.722 . S
C905 C197 2.699 . S
C921 C515 2.699 . S
C923 C303 2.722 . S
C939 C621 2.697 . S
C941 C409 2.721 . S
C957 C453 2.623 1_455 S
C959 C674 2.615 . S
C975 C780 2.584 . S
C977 C559 2.592 . S
C993 C393 1.808 . S
C995 C22 1.781 . S
C1011 C658 1.853 . S
C1013 C92 1.812 . S
C1029 C128 1.803 . S
C1031 C287 1.833 . S
C1047 C198 1.816 1_455 S
C1049 C764 1.855 . S
C1065 C181 2.202 . S
C1067 C251 2.147 . S
C1083 C304 2.211 . S
C1085 C463 2.284 . S
C1101 C357 2.161 . S
C1103 C75 2.221 . S
C1119 C410 2.210 . S
C1121 C569 2.283 . S
C1137 C446 1.803 . S
C1139 C817 1.833 . S
C1155 C234 1.856 . S
C1157 C516 1.815 1_655 S
C1173 C711 1.808 . S
C1175 C552 1.781 . S
C1191 C622 1.812 . S
C1193 C340 1.853 . S
C1209 C605 2.221 . S
C1211 C675 2.161 . S
C1227 C728 2.210 . S
C1229 C39 2.282 . S
C1245 C781 2.148 . S
C1247 C499 2.201 . S
C1263 C145 2.284 . S
C1265 C834 2.211 . S
C1281 C38 1.121 . S
C1283 C568 1.121 . S
C1299 C612 0.942 . S
C1301 C82 0.942 . S
C1317 C144 1.131 . S
C1319 C462 1.131 . S
C1335 C506 0.942 . S
C1337 C188 0.942 . S
C1353 C771 0.471 . S
C1355 C241 0.471 . S
C1371 C824 0.494 . S
C1373 C294 0.494 . S
C1389 C665 0.469 . S
C1391 C347 0.469 . S
C1407 C718 0.478 1_455 S
C1409 C400 0.478 1_655 S
