# Generated by pormake.
# Topology vby, (6)-cn, num edge types: 1
# Building blocks:
#     Node 0, Type 0, BuildingBlock: BETGAK_clean_sbu_0, # of connection points: 6
#     Node 1, Type 0, BuildingBlock: BETGAK_clean_sbu_0, # of connection points: 6
#     Node 2, Type 0, BuildingBlock: BETGAK_clean_sbu_0, # of connection points: 6
#     Node 3, Type 0, BuildingBlock: BETGAK_clean_sbu_0, # of connection points: 6
#     Node 4, Type 0, BuildingBlock: BETGAK_clean_sbu_0, # of connection points: 6
#     Node 5, Type 0, BuildingBlock: BETGAK_clean_sbu_0, # of connection points: 6
#     Node 6, Type 0, BuildingBlock: BETGAK_clean_sbu_0, # of connection points: 6
#     Node 7, Type 0, BuildingBlock: BETGAK_clean_sbu_0, # of connection points: 6
#     Edge 8, Type (0, 0), BuildingBlock: ZUJKAS_clean_linker_0, # of connection points: 2
#     Edge 9, Type (0, 0), BuildingBlock: ZUJKAS_clean_linker_0, # of connection points: 2
#     Edge 10, Type (0, 0), BuildingBlock: ZUJKAS_clean_linker_0, # of connection points: 2
#     Edge 11, Type (0, 0), BuildingBlock: ZUJKAS_clean_linker_0, # of connection points: 2
#     Edge 12, Type (0, 0), BuildingBlock: ZUJKAS_clean_linker_0, # of connection points: 2
#     Edge 13, Type (0, 0), BuildingBlock: ZUJKAS_clean_linker_0, # of connection points: 2
#     Edge 14, Type (0, 0), BuildingBlock: ZUJKAS_clean_linker_0, # of connection points: 2
#     Edge 15, Type (0, 0), BuildingBlock: ZUJKAS_clean_linker_0, # of connection points: 2
#     Edge 16, Type (0, 0), BuildingBlock: ZUJKAS_clean_linker_0, # of connection points: 2
#     Edge 17, Type (0, 0), BuildingBlock: ZUJKAS_clean_linker_0, # of connection points: 2
#     Edge 18, Type (0, 0), BuildingBlock: ZUJKAS_clean_linker_0, # of connection points: 2
#     Edge 19, Type (0, 0), BuildingBlock: ZUJKAS_clean_linker_0, # of connection points: 2
#     Edge 20, Type (0, 0), BuildingBlock: ZUJKAS_clean_linker_0, # of connection points: 2
#     Edge 21, Type (0, 0), BuildingBlock: ZUJKAS_clean_linker_0, # of connection points: 2
#     Edge 22, Type (0, 0), BuildingBlock: ZUJKAS_clean_linker_0, # of connection points: 2
#     Edge 23, Type (0, 0), BuildingBlock: ZUJKAS_clean_linker_0, # of connection points: 2
#     Edge 24, Type (0, 0), BuildingBlock: ZUJKAS_clean_linker_0, # of connection points: 2
#     Edge 25, Type (0, 0), BuildingBlock: ZUJKAS_clean_linker_0, # of connection points: 2
#     Edge 26, Type (0, 0), BuildingBlock: ZUJKAS_clean_linker_0, # of connection points: 2
#     Edge 27, Type (0, 0), BuildingBlock: ZUJKAS_clean_linker_0, # of connection points: 2
#     Edge 28, Type (0, 0), BuildingBlock: ZUJKAS_clean_linker_0, # of connection points: 2
#     Edge 29, Type (0, 0), BuildingBlock: ZUJKAS_clean_linker_0, # of connection points: 2
#     Edge 30, Type (0, 0), BuildingBlock: ZUJKAS_clean_linker_0, # of connection points: 2
#     Edge 31, Type (0, 0), BuildingBlock: ZUJKAS_clean_linker_0, # of connection points: 2
# Relax obj value: 0.189
# Max RMSD: 0.207
# Mean RMSD: 0.207
data_MOF--net-vby--node1-BETGAK_clean_sbu_0--edge1-ZUJKAS_clean_linker_0
_symmetry_space_group_name_H-M    P1
_symmetry_Int_Tables_number       1
_symmetry_cell_setting            triclinic
loop_
_symmetry_equiv_pos_as_xyz
'x, y, z'
_cell_length_a     19.969388
_cell_length_b     120.16783
_cell_length_c     37.901658
_cell_angle_alpha  90.003464
_cell_angle_beta   85.727318
_cell_angle_gamma 90.063216
loop_
_atom_site_label
_atom_site_type_symbol
_atom_site_fract_x
_atom_site_fract_y
_atom_site_fract_z
_atom_type_partial_charge
La0 La 0.06562 0.40935 0.02407 0.0
La1 La 0.06601 0.38348 0.03619 0.0
C2 C 0.04602 0.42909 1.00418 0.0
C3 C 0.06416 0.44097 1.00845 0.0
C4 C 0.06707 0.44593 0.04193 0.0
C5 C 0.07409 0.45752 0.04512 0.0
C6 C 0.07795 0.46442 0.01493 0.0
C7 C 0.07766 0.45933 0.98146 0.0
C8 C 0.07079 0.44778 0.97831 0.0
C9 C 0.07618 0.40259 0.09028 0.0
C10 C 0.92922 0.39549 0.02762 0.0
C11 C 0.0702 0.3644 0.06393 0.0
C12 C 0.10326 0.35339 0.05812 0.0
C13 C 0.10035 0.34748 0.0262 0.0
C14 C 0.12642 0.33666 0.02268 0.0
C15 C 0.1561 0.33144 0.05096 0.0
C16 C 0.1604 0.33752 0.08252 0.0
C17 C 0.13419 0.34832 0.08604 0.0
C18 C 0.07582 0.38854 0.96695 0.0
C19 C 0.20423 0.39707 0.02489 0.0
O20 O 1.01177 0.42423 0.03075 0.0
O21 O 0.09029 0.4224 0.98799 0.0
O22 O 0.10177 0.41169 0.07668 0.0
O23 O 0.04169 0.39804 0.06763 0.0
O24 O 0.96397 0.404 0.01349 0.0
O25 O 0.95883 0.38716 0.04327 0.0
O26 O 1.0261 0.36738 0.04174 0.0
O27 O 0.10783 0.37277 0.07279 0.0
O28 O 0.07659 0.37851 0.97946 0.0
O29 O 0.07191 0.39479 0.99347 0.0
O30 O 0.17187 0.38814 0.03798 0.0
O31 O 0.17258 0.40596 0.01362 0.0
H32 H 0.0617 0.44091 0.06571 0.0
H33 H 0.07374 0.46111 0.07133 0.0
H34 H 0.08176 0.46431 0.95758 0.0
H35 H 0.06839 0.44418 0.95221 0.0
H36 H 0.07667 0.35112 1.00415 0.0
H37 H 0.12143 0.33226 0.99808 0.0
H38 H 0.18391 0.33392 0.10469 0.0
H39 H 0.13706 0.35265 0.11095 0.0
La40 La 1.00524 0.66328 0.02606 0.0
La41 La 0.99597 0.63889 0.04056 0.0
C42 C 0.99788 0.68287 1.00164 0.0
C43 C 0.95954 0.69342 1.00616 0.0
C44 C 0.93881 0.69767 0.03978 0.0
C45 C 0.91023 0.70833 0.04331 0.0
C46 C 0.90161 0.71498 0.01333 0.0
C47 C 0.92057 0.71051 0.9797 0.0
C48 C 0.94921 0.69988 0.97622 0.0
C49 C 1.01345 0.65792 0.09358 0.0
C50 C 0.86176 0.65205 0.04135 0.0
C51 C 0.99961 0.61918 0.06452 0.0
C52 C 1.02442 0.60774 0.05699 0.0
C53 C 1.02775 0.6032 0.02273 0.0
C54 C 0.04138 0.59183 0.01733 0.0
C55 C 0.05182 0.58473 0.04608 0.0
C56 C 0.05073 0.58945 0.08014 0.0
C57 C 0.03719 0.60079 0.08547 0.0
C58 C 0.99313 0.64433 0.97233 0.0
C59 C 0.13956 0.65037 0.02797 0.0
O60 O 1.03486 0.68001 0.02716 0.0
O61 O 0.96809 0.67427 0.9885 0.0
O62 O 0.04142 0.66648 0.07805 0.0
O63 O 0.97589 0.65333 0.07253 0.0
O64 O 0.89667 0.66024 0.02551 0.0
O65 O 0.89261 0.64371 0.05604 0.0
O66 O 0.95365 0.62295 0.0449 0.0
O67 O 0.04271 0.62692 0.07163 0.0
O68 O 0.96456 0.63572 0.98714 0.0
O69 O 1.02795 0.64883 0.99468 0.0
O70 O 0.10394 0.6422 0.04365 0.0
O71 O 0.10953 0.65866 0.01238 0.0
H72 H 0.94612 0.69288 0.06338 0.0
H73 H 0.89536 0.7114 0.0696 0.0
H74 H 0.9156 0.71538 0.956 0.0
H75 H 0.96531 0.69684 0.95004 0.0
H76 H 1.01791 0.60836 1.00026 0.0
H77 H 0.04287 0.58857 0.99065 0.0
H78 H 0.05755 0.58431 0.10304 0.0
H79 H 1.03409 0.60406 0.11219 0.0
La80 La 0.06506 0.66335 0.53672 0.0
La81 La 0.07472 0.63896 0.52239 0.0
C82 C 0.07229 0.68297 0.5609 0.0
C83 C 0.11071 0.69353 0.55634 0.0
C84 C 0.13131 0.69779 0.5227 0.0
C85 C 0.15999 0.70846 0.51914 0.0
C86 C 0.16886 0.7151 0.54911 0.0
C87 C 0.15 0.71063 0.58275 0.0
C88 C 0.12125 0.7 0.58626 0.0
C89 C 0.05679 0.65793 0.46925 0.0
C90 C 0.20876 0.65223 0.52146 0.0
C91 C 0.07143 0.61923 0.49855 0.0
C92 C 0.04667 0.60774 0.50563 0.0
C93 C 0.04817 0.60275 0.53915 0.0
C94 C 1.03528 0.59131 0.54356 0.0
C95 C 1.02101 0.5846 0.51454 0.0
C96 C 1.01679 0.58976 0.48142 0.0
C97 C 1.02951 0.60116 0.47706 0.0
C98 C 0.07762 0.64446 0.59057 0.0
C99 C 0.93086 0.65032 0.53508 0.0
O100 O 1.03552 0.68007 0.53533 0.0
O101 O 0.10189 0.6744 0.57424 0.0
O102 O 1.02857 0.66646 0.48476 0.0
O103 O 0.09453 0.65338 0.4903 0.0
O104 O 0.17371 0.6604 0.5372 0.0
O105 O 0.17804 0.64384 0.50688 0.0
O106 O 0.11689 0.62302 0.51848 0.0
O107 O 1.0286 0.62696 0.49106 0.0
O108 O 0.1064 0.63586 0.57578 0.0
O109 O 0.04263 0.6489 0.56823 0.0
O110 O 0.96658 0.64215 0.51953 0.0
O111 O 0.96081 0.65867 0.55047 0.0
H112 H 0.12385 0.693 0.49911 0.0
H113 H 0.17478 0.71152 0.49284 0.0
H114 H 0.15514 0.71549 0.60644 0.0
H115 H 0.10525 0.69695 0.61246 0.0
H116 H 0.06171 0.60759 0.56165 0.0
H117 H 0.03936 0.58765 0.56942 0.0
H118 H 1.00474 0.58493 0.45859 0.0
H119 H 1.02836 0.60478 0.45092 0.0
La120 La 1.00753 0.4093 0.53805 0.0
La121 La 1.00731 0.38342 0.52607 0.0
C122 C 1.02663 0.42907 0.55786 0.0
C123 C 1.00798 0.44091 0.5533 0.0
C124 C 0.99981 0.44555 0.51984 0.0
C125 C 0.99163 0.45709 0.51598 0.0
C126 C 0.99159 0.46426 0.54546 0.0
C127 C 0.99765 0.45949 0.57902 0.0
C128 C 1.00575 0.44798 0.58283 0.0
C129 C 0.99672 0.40251 0.47188 0.0
C130 C 0.14403 0.39557 0.53434 0.0
C131 C 1.00526 0.36426 0.49866 0.0
C132 C 0.9757 0.35299 0.50479 0.0
C133 C 1.01891 0.3438 0.50578 0.0
C134 C 0.9934 0.33296 0.50925 0.0
C135 C 0.92371 0.33096 0.51164 0.0
C136 C 0.88029 0.3402 0.51123 0.0
C137 C 0.90594 0.35109 0.50778 0.0
C138 C 0.99768 0.38852 0.5953 0.0
C139 C 0.86906 0.39691 0.5371 0.0
O140 O 0.06107 0.42423 0.53135 0.0
O141 O 0.98245 0.42235 0.57403 0.0
O142 O 0.9712 0.4116 0.48547 0.0
O143 O 1.03131 0.39799 0.49449 0.0
O144 O 0.10933 0.40406 0.54855 0.0
O145 O 0.11433 0.38725 0.51868 0.0
O146 O 0.04983 0.36748 0.52027 0.0
O147 O 0.96553 0.37243 0.49044 0.0
O148 O 0.99674 0.37848 0.58283 0.0
O149 O 1.00161 0.39476 0.56876 0.0
O150 O 0.90148 0.38801 0.52388 0.0
O151 O 0.90066 0.4058 0.54854 0.0
H152 H 1.00144 0.4403 0.49656 0.0
H153 H 0.98605 0.4604 0.48979 0.0
H154 H 0.99883 0.46468 0.60231 0.0
H155 H 1.01273 0.44463 0.60885 0.0
H156 H 0.07285 0.34499 0.50346 0.0
H157 H 1.02857 0.32613 0.51012 0.0
H158 H 0.82639 0.33903 0.51269 0.0
H159 H 0.87117 0.35798 0.50697 0.0
La160 La 0.57049 0.90643 0.0273 0.0
La161 La 0.56523 0.88175 0.03113 0.0
C162 C 0.55774 0.92714 0.02006 0.0
C163 C 0.54837 0.9394 0.0175 0.0
C164 C 0.5118 0.94513 0.04495 0.0
C165 C 0.50813 0.95677 0.04493 0.0
C166 C 0.54107 0.96305 0.01751 0.0
C167 C 0.57597 0.95729 0.9894 0.0
C168 C 0.57966 0.9456 0.98944 0.0
C169 C 0.5835 0.89786 0.091 0.0
C170 C 0.43044 0.89419 0.03219 0.0
C171 C 0.57495 0.86151 0.0492 0.0
C172 C 0.61535 0.85117 0.04429 0.0
C173 C 0.63484 0.84687 1.01057 0.0
C174 C 0.66443 0.83629 1.00691 0.0
C175 C 0.67519 0.82975 0.03686 0.0
C176 C 0.65757 0.83428 0.07056 0.0
C177 C 0.62802 0.84483 0.07417 0.0
C178 C 0.55123 0.88961 0.96683 0.0
C179 C 0.70826 0.89418 0.02138 0.0
O180 O 0.53327 0.92157 0.0477 0.0
O181 O 0.58796 0.92091 0.99531 0.0
O182 O 0.61646 0.90632 0.07781 0.0
O183 O 0.54357 0.89459 0.06893 0.0
O184 O 0.466 0.90251 0.01755 0.0
O185 O 0.46078 0.88573 0.04654 0.0
O186 O 0.54235 0.86496 0.02263 0.0
O187 O 0.59976 0.8698 0.0665 0.0
O188 O 0.52486 0.88049 0.97954 0.0
O189 O 0.58992 0.89352 0.98874 0.0
O190 O 0.67422 0.88484 0.02839 0.0
O191 O 0.67755 0.90373 0.01642 0.0
H192 H 0.48687 0.94065 0.06697 0.0
H193 H 0.47961 0.96085 0.06664 0.0
H194 H 0.60232 0.96182 0.96791 0.0
H195 H 0.60855 0.94145 0.968 0.0
H196 H 0.62567 0.85155 0.98698 0.0
H197 H 0.67824 0.83319 0.98055 0.0
H198 H 0.66411 0.82949 0.09426 0.0
H199 H 0.61278 0.84788 0.10045 0.0
La200 La 0.50405 0.16502 0.03111 0.0
La201 La 0.49697 0.1404 0.03306 0.0
C202 C 0.49412 0.18549 0.01568 0.0
C203 C 0.45232 0.1957 0.02135 0.0
C204 C 0.45334 0.20197 0.05269 0.0
C205 C 0.42264 0.21247 0.05556 0.0
C206 C 0.39032 0.21704 0.02711 0.0
C207 C 0.38746 0.21058 0.99621 0.0
C208 C 0.4182 0.20009 0.99335 0.0
C209 C 0.52106 0.15657 0.09412 0.0
C210 C 0.36017 0.15281 0.0411 0.0
C211 C 0.50883 0.11962 0.03866 0.0
C212 C 0.51752 0.10733 0.04036 0.0
C213 C 0.55256 0.10169 0.01221 0.0
C214 C 0.5562 0.09005 0.01177 0.0
C215 C 0.5247 0.08368 0.03941 0.0
C216 C 0.49113 0.08935 0.06812 0.0
C217 C 0.48754 0.10104 0.06856 0.0
C218 C 0.48217 0.14962 0.97045 0.0
C219 C 0.63825 0.15242 0.02752 0.0
O220 O 0.52535 0.18171 0.04231 0.0
O221 O 0.47174 0.1774 0.99659 0.0
O222 O 0.54915 0.16556 0.08149 0.0
O223 O 0.47995 0.15301 0.0729 0.0
O224 O 0.3947 0.16211 0.0344 0.0
O225 O 0.39045 0.14317 0.04526 0.0
O226 O 0.53111 0.1253 1.01082 0.0
O227 O 0.48115 0.12576 0.06439 0.0
O228 O 0.44808 0.14122 0.98335 0.0
O229 O 0.52368 0.15245 0.9922 0.0
O230 O 0.60263 0.14401 0.04158 0.0
O231 O 0.60786 0.16107 0.0143 0.0
H232 H 0.47994 0.19897 0.07467 0.0
H233 H 0.42675 0.21719 0.07963 0.0
H234 H 0.36221 0.2137 0.97392 0.0
H235 H 0.4171 0.19556 0.96869 0.0
H236 H 0.5765 0.10625 0.99008 0.0
H237 H 0.58371 0.08605 0.98957 0.0
H238 H 0.46584 0.08475 0.08979 0.0
H239 H 0.45984 0.10512 0.09055 0.0
La240 La 0.56821 0.16516 0.53229 0.0
La241 La 0.57364 0.14048 0.5288 0.0
C242 C 0.5771 0.1854 0.55042 0.0
C243 C 0.61704 0.19581 0.54637 0.0
C244 C 0.64307 0.19975 0.51318 0.0
C245 C 0.67226 0.2104 0.5099 0.0
C246 C 0.67561 0.21736 0.53968 0.0
C247 C 0.65163 0.21318 0.57297 0.0
C248 C 0.62275 0.20256 0.57621 0.0
C249 C 0.55339 0.15721 0.46839 0.0
C250 C 0.71124 0.15276 0.52309 0.0
C251 C 0.5606 0.11977 0.52184 0.0
C252 C 0.55121 0.1075 0.51937 0.0
C253 C 0.51599 0.10172 0.5472 0.0
C254 C 0.51158 0.09009 0.54689 0.0
C255 C 0.54229 0.08385 0.51872 0.0
C256 C 0.57657 0.08966 0.49049 0.0
C257 C 0.58092 0.10134 0.49081 0.0
C258 C 0.58616 0.14928 0.5923 0.0
C259 C 0.4341 0.15266 0.53327 0.0
O260 O 0.54621 0.18194 0.52322 0.0
O261 O 0.60118 0.17713 0.56808 0.0
O262 O 0.52595 0.16623 0.48125 0.0
O263 O 0.59292 0.15336 0.48996 0.0
O264 O 0.6775 0.1622 0.52831 0.0
O265 O 0.68082 0.1431 0.51967 0.0
O266 O 0.53487 0.1254 0.54907 0.0
O267 O 0.59219 0.12594 0.49733 0.0
O268 O 0.6195 0.14081 0.57949 0.0
O269 O 0.54622 0.15234 0.57007 0.0
O270 O 0.46972 0.14448 0.51798 0.0
O271 O 0.46421 0.16098 0.54847 0.0
H272 H 0.63908 0.19476 0.48964 0.0
H273 H 0.68982 0.21333 0.48382 0.0
H274 H 0.6544 0.21817 0.59659 0.0
H275 H 0.60288 0.19975 0.60208 0.0
H276 H 0.49289 0.10616 0.5698 0.0
H277 H 0.48566 0.08597 0.56938 0.0
H278 H 0.60018 0.08518 0.46811 0.0
H279 H 0.60861 0.10553 0.46901 0.0
La280 La 0.50101 0.90667 0.53381 0.0
La281 La 0.50593 0.88196 0.52985 0.0
C282 C 0.51396 0.92737 0.5413 0.0
C283 C 0.52334 0.93963 0.54401 0.0
C284 C 0.55816 0.94547 0.51617 0.0
C285 C 0.56256 0.9571 0.51671 0.0
C286 C 0.53223 0.96328 0.54512 0.0
C287 C 0.49835 0.95742 0.57335 0.0
C288 C 0.49404 0.94573 0.57281 0.0
C289 C 0.4881 0.89811 0.47007 0.0
C290 C 0.64087 0.89441 0.52894 0.0
C291 C 0.49596 0.86173 0.51169 0.0
C292 C 0.45549 0.85138 0.51657 0.0
C293 C 0.43614 0.84705 0.55029 0.0
C294 C 0.40648 0.83646 0.55391 0.0
C295 C 0.3955 0.82994 0.52393 0.0
C296 C 0.41299 0.8345 0.49025 0.0
C297 C 0.44261 0.84506 0.48668 0.0
C298 C 0.51995 0.88979 0.59419 0.0
C299 C 0.36311 0.8944 0.53951 0.0
O300 O 0.53814 0.92185 0.51353 0.0
O301 O 0.48393 0.9211 0.56603 0.0
O302 O 0.4553 0.90659 0.48322 0.0
O303 O 0.52787 0.89483 0.49218 0.0
O304 O 0.60543 0.90273 0.54355 0.0
O305 O 0.61045 0.88595 0.51454 0.0
O306 O 0.52867 0.86517 0.53825 0.0
O307 O 0.47118 0.87002 0.49444 0.0
O308 O 0.54611 0.88067 0.58145 0.0
O309 O 0.48137 0.89372 0.57228 0.0
O310 O 0.39703 0.88507 0.53252 0.0
O311 O 0.39389 0.90396 0.54452 0.0
H312 H 0.58096 0.94107 0.49341 0.0
H313 H 0.58817 0.96126 0.49422 0.0
H314 H 0.47502 0.96185 0.59589 0.0
H315 H 0.46667 0.9415 0.59462 0.0
H316 H 0.44547 0.85171 0.57389 0.0
H317 H 0.39278 0.83334 0.58026 0.0
H318 H 0.40629 0.82973 0.46653 0.0
H319 H 0.45774 0.84813 0.4604 0.0
H320 H 0.28661 0.38069 0.04728 0.0
H321 H 0.40886 0.38075 0.0467 0.0
H322 H 0.41509 0.41328 0.99864 0.0
H323 H 0.29231 0.4134 0.99963 0.0
H324 H 0.50518 0.38213 0.99154 0.0
H325 H 0.52834 0.41799 0.08207 0.0
H326 H 0.44919 0.41117 0.07663 0.0
H327 H 0.48267 0.42102 0.04418 0.0
C328 C 0.31369 0.3879 0.03662 0.0
C329 C 0.27911 0.39708 0.02368 0.0
C330 C 0.38386 0.3879 0.03629 0.0
C331 C 0.42144 0.39708 0.02316 0.0
C332 C 0.3873 0.40619 1.00966 0.0
H333 H 0.85045 0.41153 1.00018 0.0
H334 H 0.7284 0.41165 0.99834 0.0
C335 C 0.31694 0.40621 1.01003 0.0
C336 C 0.49623 0.39699 0.02325 0.0
H337 H 0.62961 0.41078 0.05455 0.0
C338 C 0.53233 0.38838 1.00541 0.0
C339 C 0.53189 0.40513 0.04136 0.0
C340 C 0.49613 0.4143 0.06244 0.0
C341 C 0.60283 0.38778 1.00476 0.0
C342 C 0.63843 0.39591 0.02291 0.0
C343 C 0.60242 0.40455 0.04062 0.0
C344 C 0.71302 0.39565 0.02375 0.0
C345 C 0.63872 0.37856 0.98402 0.0
C346 C 0.74535 0.38664 0.03894 0.0
C347 C 0.81543 0.38653 0.04008 0.0
C348 C 0.85479 0.39546 0.02614 0.0
C349 C 0.82208 0.40448 1.01109 0.0
C350 C 0.7521 0.40459 1.01005 0.0
H351 H 0.60662 0.37479 0.96448 0.0
H352 H 0.68567 0.38167 0.96978 0.0
H353 H 0.6523 0.37192 1.00251 0.0
H354 H 0.7163 0.37974 0.05032 0.0
H355 H 0.83864 0.37947 0.05204 0.0
H356 H 0.21932 0.63475 0.057 0.0
H357 H 0.34135 0.6352 0.05997 0.0
H358 H 0.35112 0.66612 1.00218 0.0
H359 H 0.22918 0.66582 0.99937 0.0
H360 H 0.4449 0.63576 1.006 0.0
H361 H 0.4506 0.67358 0.08972 0.0
H362 H 0.37414 0.66601 0.08372 0.0
H363 H 0.40806 0.6754 0.05002 0.0
C364 C 0.24733 0.64165 0.04482 0.0
C365 C 0.21413 0.65028 0.02806 0.0
C366 C 0.31721 0.64189 0.04658 0.0
C367 C 0.35543 0.65079 0.03187 0.0
C368 C 0.32266 0.65928 0.01441 0.0
H369 H 0.78065 0.66781 0.01402 0.0
H370 H 0.65842 0.66734 0.01218 0.0
C371 C 0.25283 0.65905 0.01261 0.0
C372 C 0.42956 0.65114 0.03451 0.0
H373 H 0.55582 0.66664 0.06616 0.0
C374 C 0.46912 0.64248 0.01931 0.0
C375 C 0.46128 0.65992 0.05185 0.0
C376 C 0.4214 0.66921 0.07006 0.0
C377 C 0.53945 0.64248 0.02032 0.0
C378 C 0.5712 0.65126 0.03763 0.0
C379 C 0.53161 0.65991 0.05288 0.0
C380 C 0.64542 0.65167 0.03994 0.0
C381 C 0.57928 0.6332 1.00202 0.0
C382 C 0.67891 0.64315 0.0569 0.0
C383 C 0.7489 0.64339 0.05803 0.0
C384 C 0.78703 0.6522 0.0424 0.0
C385 C 0.7531 0.66088 0.0263 0.0
C386 C 0.68309 0.66063 0.0252 0.0
H387 H 0.55 0.62883 0.98239 0.0
H388 H 0.62646 0.63641 0.98829 0.0
H389 H 0.59276 0.627 0.02201 0.0
H390 H 0.65091 0.63627 0.06919 0.0
H391 H 0.77313 0.63658 0.07078 0.0
H392 H 0.84099 0.66575 0.56338 0.0
H393 H 0.7189 0.66588 0.56092 0.0
H394 H 0.72934 0.63488 0.50354 0.0
H395 H 0.85135 0.63461 0.50618 0.0
H396 H 0.64519 0.66613 0.50143 0.0
H397 H 0.58368 0.62849 0.58226 0.0
H398 H 0.66445 0.63529 0.58152 0.0
H399 H 0.64511 0.62622 0.54594 0.0
C400 C 0.81739 0.65889 0.55053 0.0
C401 C 0.85625 0.65013 0.53517 0.0
C402 C 0.74746 0.659 0.54906 0.0
C403 C 0.71462 0.65032 0.53244 0.0
C404 C 0.75321 0.64156 0.51715 0.0
H405 H 0.29769 0.63674 0.49258 0.0
H406 H 0.42003 0.63661 0.49388 0.0
C407 C 0.82317 0.64144 0.51856 0.0
C408 C 0.64038 0.65066 0.53009 0.0
H409 H 0.49497 0.63641 0.55237 0.0
C410 C 0.61231 0.65966 0.51272 0.0
C411 C 0.59737 0.64219 0.54469 0.0
C412 C 0.62393 0.63255 0.56494 0.0
C413 C 0.54279 0.66034 0.50905 0.0
C414 C 0.49975 0.65189 0.52371 0.0
C415 C 0.52784 0.64288 0.54104 0.0
C416 C 0.42542 0.65227 0.52169 0.0
C417 C 0.51629 0.66999 0.48876 0.0
C418 C 0.38736 0.66111 0.53693 0.0
C419 C 0.31728 0.66122 0.53614 0.0
C420 C 0.28351 0.65247 0.52027 0.0
C421 C 0.32183 0.64366 0.50486 0.0
C422 C 0.3919 0.64355 0.50568 0.0
H423 H 0.55644 0.67394 0.47112 0.0
H424 H 0.4752 0.66728 0.4725 0.0
H425 H 0.49596 0.67639 0.50773 0.0
H426 H 0.41172 0.66782 0.5501 0.0
H427 H 0.28955 0.6681 0.54854 0.0
H428 H 0.78648 0.38049 0.51487 0.0
H429 H 0.6642 0.38057 0.51533 0.0
H430 H 0.65848 0.41316 0.56299 0.0
H431 H 0.78121 0.41326 0.56212 0.0
H432 H 0.5676 0.38206 0.57041 0.0
H433 H 0.54581 0.41779 0.47931 0.0
H434 H 0.62473 0.41095 0.48494 0.0
H435 H 0.59148 0.42087 0.51718 0.0
C436 C 0.7595 0.38772 0.5254 0.0
C437 C 0.79419 0.39691 0.53827 0.0
C438 C 0.68932 0.38773 0.52567 0.0
C439 C 0.65189 0.39694 0.53864 0.0
C440 C 0.68615 0.40605 0.55208 0.0
H441 H 0.22328 0.41163 0.56152 0.0
H442 H 0.34539 0.41171 0.56331 0.0
C443 C 0.75649 0.40606 0.55177 0.0
C444 C 0.57711 0.39687 0.53848 0.0
H445 H 0.44424 0.41071 0.50703 0.0
C446 C 0.54068 0.38831 0.55645 0.0
C447 C 0.54175 0.40501 0.52026 0.0
C448 C 0.57785 0.41412 0.49904 0.0
C449 C 0.47015 0.38776 0.55714 0.0
C450 C 0.43486 0.39589 0.5389 0.0
C451 C 0.4712 0.40448 0.52104 0.0
C452 C 0.36026 0.39567 0.53806 0.0
C453 C 0.43391 0.37859 0.57803 0.0
C454 C 0.32765 0.38667 0.52296 0.0
C455 C 0.25758 0.38659 0.52185 0.0
C456 C 0.21848 0.39554 0.53572 0.0
C457 C 0.25146 0.40457 0.55067 0.0
C458 C 0.32146 0.40465 0.55168 0.0
H459 H 0.46589 0.37483 0.59761 0.0
H460 H 0.3871 0.38175 0.59223 0.0
H461 H 0.42004 0.37193 0.55964 0.0
H462 H 0.35649 0.37974 0.51165 0.0
H463 H 0.23416 0.37952 0.50998 0.0
H464 H 0.79665 0.91116 1.00383 0.0
H465 H 0.91908 0.91091 1.00413 0.0
H466 H 0.91173 0.87658 0.03729 0.0
H467 H 0.78957 0.87667 0.03634 0.0
H468 H 0.996 0.9073 0.05904 0.0
H469 H 0.05418 0.87526 0.95614 0.0
H470 H 0.97252 0.88166 0.96284 0.0
H471 H 0.9958 0.87053 0.99122 0.0
C472 C 0.82102 0.90351 1.01081 0.0
C473 C 0.78298 0.89391 0.01985 0.0
C474 C 0.89115 0.90339 1.01105 0.0
C475 C 0.92499 0.89369 0.02022 0.0
C476 C 0.88717 0.8841 0.02926 0.0
H477 H 0.34128 0.87772 0.05385 0.0
H478 H 0.21899 0.87778 0.05157 0.0
C479 C 0.81706 0.88419 0.02888 0.0
C480 C 0.99944 0.89374 0.02177 0.0
H481 H 0.14398 0.88068 0.9904 0.0
C482 C 1.02833 0.90152 0.04383 0.0
C483 C 0.04186 0.8862 1.00201 0.0
C484 C 1.01467 0.87801 0.97646 0.0
C485 C 0.09802 0.90183 0.04713 0.0
C486 C 0.14027 0.89424 0.02756 0.0
C487 C 0.11153 0.88646 1.00551 0.0
C488 C 0.21451 0.89432 0.02935 0.0
C489 C 0.12581 0.91014 0.0721 0.0
C490 C 0.2528 0.90356 0.01738 0.0
C491 C 0.32274 0.90355 0.01856 0.0
C492 C 0.35599 0.89428 0.03175 0.0
C493 C 0.31744 0.88503 0.04371 0.0
C494 C 0.24748 0.88503 0.04234 0.0
H495 H 0.08605 0.91351 0.09121 0.0
H496 H 0.16555 0.9063 0.08709 0.0
H497 H 0.14854 0.9172 0.05661 0.0
H498 H 0.22862 0.91075 1.00671 0.0
H499 H 0.35071 0.91081 1.00897 0.0
H500 H 0.27132 0.1358 0.05743 0.0
H501 H 0.14909 0.13603 0.05561 0.0
H502 H 0.15691 0.17067 0.02609 0.0
H503 H 0.2792 0.17053 0.02764 0.0
H504 H 0.05029 0.14969 0.0932 0.0
H505 H 0.05385 0.15588 0.94781 0.0
H506 H 0.12693 0.15144 0.96937 0.0
H507 H 0.10188 0.1658 0.9709 0.0
C508 C 0.24719 0.1435 0.05069 0.0
C509 C 0.28544 0.15314 0.04253 0.0
C510 C 0.17718 0.14361 0.04967 0.0
C511 C 0.14387 0.15331 0.04016 0.0
C512 C 0.1816 0.16302 0.03287 0.0
H513 H 0.72697 0.16911 1.00749 0.0
H514 H 0.84873 0.1693 1.01135 0.0
C515 C 0.2516 0.16294 0.03402 0.0
C516 C 0.06974 0.15325 0.03776 0.0
H517 H 0.94772 0.15643 0.97988 0.0
C518 C 1.0278 0.15113 0.06842 0.0
C519 C 0.04042 0.15517 1.00543 0.0
C520 C 0.08293 0.15711 0.97139 0.0
C521 C 0.95741 0.15106 0.06778 0.0
C522 C 0.928 0.15289 0.03536 0.0
C523 C 0.97006 0.15503 1.00472 0.0
C524 C 0.85383 0.15264 0.03267 0.0
C525 C 0.91524 0.14931 0.10205 0.0
C526 C 0.81596 0.14314 0.04268 0.0
C527 C 0.74618 0.14302 0.04065 0.0
C528 C 0.71269 0.15236 0.02814 0.0
C529 C 0.75094 0.16177 0.01727 0.0
C530 C 0.82069 0.16189 0.01948 0.0
H531 H 0.94376 0.15129 0.12535 0.0
H532 H 0.86929 0.15454 0.1032 0.0
H533 H 0.89971 0.14045 0.10411 0.0
H534 H 0.84039 0.13578 0.05203 0.0
H535 H 0.71852 0.1356 0.049 0.0
H536 H 0.3403 0.16003 0.58399 0.0
H537 H 0.21786 0.15973 0.58224 0.0
H538 H 0.2398 0.14607 0.47665 0.0
H539 H 0.36163 0.14559 0.47959 0.0
H540 H 0.13496 0.16953 0.54672 0.0
H541 H 0.1055 0.12498 0.51602 0.0
H542 H 0.18463 0.13071 0.52702 0.0
H543 H 0.15928 0.13157 0.48237 0.0
C544 C 0.31869 0.15685 0.56062 0.0
C545 C 0.36021 0.15267 0.53217 0.0
C546 C 0.24868 0.1567 0.55954 0.0
C547 C 0.21876 0.1526 0.52964 0.0
C548 C 0.26081 0.14882 0.50067 0.0
H549 H 0.79812 0.16884 0.49618 0.0
H550 H 0.92087 0.16893 0.49615 0.0
C551 C 0.33063 0.14864 0.50222 0.0
C552 C 0.14397 0.15257 0.5285 0.0
H553 H 1.01109 0.13657 0.50744 0.0
C554 C 0.10791 0.16226 0.53847 0.0
C555 C 0.10782 0.14307 0.51834 0.0
C556 C 0.14131 0.13198 0.51075 0.0
C557 C 0.03748 0.16275 0.53846 0.0
C558 C 1.00179 0.15346 0.52624 0.0
C559 C 0.03791 0.14377 0.51637 0.0
C560 C 0.92703 0.15338 0.52479 0.0
C561 C 1.00238 0.17309 0.55286 0.0
C562 C 0.8891 0.14435 0.53903 0.0
C563 C 0.81933 0.14407 0.53759 0.0
C564 C 0.78545 0.15292 0.5226 0.0
C565 C 0.82296 0.16195 0.50823 0.0
C566 C 0.89316 0.16207 0.50863 0.0
H567 H 1.03304 0.17753 0.57171 0.0
H568 H 0.99469 0.17888 0.53072 0.0
H569 H 0.95284 0.1711 0.56667 0.0
H570 H 0.91339 0.13752 0.55166 0.0
H571 H 0.79163 0.13703 0.54911 0.0
H572 H 0.72957 0.87784 0.508 0.0
H573 H 0.8515 0.87772 0.51137 0.0
H574 H 0.84292 0.911 0.55398 0.0
H575 H 0.721 0.9111 0.55145 0.0
H576 H 0.94919 0.89091 0.48 0.0
H577 H 0.94872 0.89523 0.62561 0.0
H578 H 0.87377 0.89201 0.60382 0.0
H579 H 0.9036 0.90612 0.60539 0.0
C580 C 0.75354 0.88513 0.51815 0.0
C581 C 0.71525 0.89445 0.52966 0.0
C582 C 0.82336 0.88505 0.52007 0.0
C583 C 0.85647 0.89427 0.5336 0.0
C584 C 0.81852 0.90367 0.54435 0.0
H585 H 0.27474 0.91143 0.55631 0.0
H586 H 0.15235 0.9112 0.55499 0.0
C587 C 0.7487 0.90374 0.54262 0.0
C588 C 0.93074 0.89411 0.53577 0.0
H589 H 0.05444 0.89721 0.59283 0.0
C590 C 0.97212 0.89222 0.50472 0.0
C591 C 0.96089 0.89582 0.56803 0.0
C592 C 0.91949 0.8973 0.60267 0.0
C593 C 0.04255 0.8922 0.50492 0.0
C594 C 0.0726 0.89399 0.53711 0.0
C595 C 1.03136 0.89587 0.56816 0.0
C596 C 0.14679 0.89396 0.53901 0.0
C597 C 0.08433 0.8905 0.47051 0.0
C598 C 0.18433 0.88429 0.53119 0.0
C599 C 0.25434 0.88436 0.53205 0.0
C600 C 0.28841 0.89414 0.5408 0.0
C601 C 0.2504 0.90376 0.54938 0.0
C602 C 0.18033 0.90365 0.54865 0.0
H603 H 0.05458 0.89182 0.44724 0.0
H604 H 0.12804 0.89625 0.46852 0.0
H605 H 0.10373 0.88185 0.46941 0.0
H606 H 0.15945 0.87666 0.52428 0.0
H607 H 0.28174 0.87679 0.52537 0.0
H608 H 0.13374 0.57046 0.08017 0.0
H609 H 0.14245 0.55022 0.07435 0.0
H610 H 0.99877 0.55071 0.995 0.0
H611 H 0.98886 0.5709 1.00098 0.0
H612 H 0.04061 0.53426 0.08581 0.0
H613 H 0.152 0.53218 0.9475 0.0
H614 H 0.15045 0.54485 0.97316 0.0
H615 H 0.07648 0.54029 0.953 0.0
C616 C 0.10383 0.56629 0.06147 0.0
C617 C 0.06066 0.57241 0.04099 0.0
C618 C 0.10913 0.55469 0.05808 0.0
C619 C 0.07196 0.54891 0.03391 0.0
C620 C 1.02916 0.55497 0.01328 0.0
H621 H 1.01171 0.47981 0.97692 0.0
H622 H 1.01227 0.50006 0.98248 0.0
C623 C 1.02368 0.56657 0.0167 0.0
C624 C 0.07601 0.53651 0.03125 0.0
H625 H 0.11382 0.51513 0.97359 0.0
C626 C 0.05709 0.53008 0.06133 0.0
C627 C 0.09729 0.53102 0.99932 0.0
C628 C 0.12082 0.53742 0.96646 0.0
C629 C 0.05716 0.51835 0.06013 0.0
C630 C 0.07821 0.51285 0.02813 0.0
C631 C 0.09765 0.5193 0.99813 0.0
C632 C 0.07892 0.50043 0.02492 0.0
C633 C 1.03249 0.51199 0.09289 0.0
C634 C 0.1169 0.4938 0.04658 0.0
C635 C 0.11675 0.48215 0.04343 0.0
C636 C 0.07924 0.47685 0.01823 0.0
C637 C 0.042 0.48355 0.99629 0.0
C638 C 0.04198 0.49517 0.99955 0.0
H639 H 1.00142 0.51729 0.11172 0.0
H640 H 1.0023 0.50464 0.08606 0.0
H641 H 0.07628 0.50902 0.10661 0.0
H642 H 0.14722 0.49763 0.06577 0.0
H643 H 0.14681 0.4773 0.06043 0.0
H644 H 0.92618 0.47959 0.58986 0.0
H645 H 0.92673 0.49989 0.5846 0.0
H646 H 0.04991 0.4975 0.48661 0.0
H647 H 0.05056 0.47723 0.49185 0.0
H648 H 0.0371 0.51435 0.5813 0.0
H649 H 0.89888 0.5182 0.4603 0.0
H650 H 0.89956 0.50551 0.48577 0.0
H651 H 0.97009 0.50906 0.4556 0.0
C652 C 0.95355 0.48335 0.56716 0.0
C653 C 0.98822 0.47667 0.54124 0.0
C654 C 0.95354 0.49499 0.56413 0.0
C655 C 0.98763 0.50027 0.53499 0.0
C656 C 1.02195 0.49365 0.50897 0.0
H657 H 0.0694 0.56841 0.46833 0.0
H658 H 0.05964 0.54823 0.47448 0.0
C659 C 1.02212 0.48201 0.51199 0.0
C660 C 0.98942 0.51269 0.5325 0.0
H661 H 0.95064 0.53462 0.48019 0.0
C662 C 1.01775 0.51879 0.55932 0.0
C663 C 0.9644 0.51851 0.50378 0.0
C664 C 0.93094 0.51251 0.47486 0.0
C665 C 1.02335 0.53047 0.55776 0.0
C666 C 0.99854 0.53631 0.52896 0.0
C667 C 0.96972 0.5302 0.50229 0.0
C668 C 1.00342 0.5487 0.52549 0.0
C669 C 0.05789 0.53641 0.58644 0.0
C670 C 0.97432 0.5558 0.55187 0.0
C671 C 0.97979 0.56741 0.54841 0.0
C672 C 1.01379 0.57222 0.51826 0.0
C673 C 0.042 0.56507 0.4917 0.0
C674 C 0.03676 0.55348 0.49525 0.0
H675 H 0.08982 0.53067 0.60086 0.0
H676 H 0.08971 0.54334 0.57534 0.0
H677 H 1.01939 0.53995 0.60589 0.0
H678 H 0.94684 0.55237 0.57507 0.0
H679 H 0.95658 0.57262 0.56917 0.0
H680 H 0.55152 0.9765 0.0754 0.0
H681 H 0.54743 0.99679 0.07844 0.0
H682 H 0.52764 0.99835 0.96609 0.0
H683 H 0.52969 0.97798 0.96295 0.0
H684 H 0.6315 1.01254 0.04513 0.0
H685 H 0.37152 1.01773 1.00531 0.0
H686 H 0.404 1.00445 0.01827 0.0
H687 H 0.42551 1.00984 0.97465 0.0
C688 C 0.54536 0.98112 0.05134 0.0
C689 C 0.54016 0.97552 0.01896 0.0
C690 C 0.54356 0.99276 0.0531 0.0
C691 C 0.53612 0.99915 0.02263 0.0
C692 C 0.53206 0.99363 0.99013 0.0
H693 H 0.51283 0.07032 0.98138 0.0
H694 H 0.51748 0.05003 0.97792 0.0
C695 C 0.534 0.98196 0.98831 0.0
C696 C 0.53372 1.01156 0.02497 0.0
H697 H 0.43531 0.03419 1.0108 0.0
C698 C 0.58848 1.01726 0.03774 0.0
C699 C 0.47764 1.01777 0.01534 0.0
C700 C 0.41601 1.01216 1.00292 0.0
C701 C 0.58924 0.02896 0.04053 0.0
C702 C 0.53309 0.03517 0.03097 0.0
C703 C 0.47836 0.02947 0.01817 0.0
C704 C 0.5305 0.04758 0.03352 0.0
C705 C 0.65097 0.03456 0.05286 0.0
C706 C 0.53533 0.05305 0.06605 0.0
C707 C 0.53319 0.06472 0.0681 0.0
C708 C 0.52591 0.07121 0.03767 0.0
C709 C 0.51989 0.06566 1.00528 0.0
C710 C 0.52199 0.05402 1.00327 0.0
H711 H 0.69557 0.02903 0.05003 0.0
H712 H 0.66258 0.04234 0.03778 0.0
H713 H 0.64193 0.03675 0.08125 0.0
H714 H 0.54052 0.0483 0.08995 0.0
H715 H 0.5382 0.06865 0.09348 0.0
H716 H 0.64218 0.06899 0.49726 0.0
H717 H 0.63933 0.04865 0.50094 0.0
H718 H 0.43582 0.05001 0.54737 0.0
H719 H 0.43729 0.07028 0.5426 0.0
H720 H 0.62054 0.03537 0.55995 0.0
H721 H 0.41928 0.02704 0.47032 0.0
H722 H 0.46016 0.04041 0.47228 0.0
H723 H 0.39482 0.03659 0.50533 0.0
C724 C 0.59628 0.06498 0.50762 0.0
C725 C 0.53989 0.07136 0.5195 0.0
C726 C 0.59495 0.05332 0.51 0.0
C727 C 0.53708 0.04772 0.52403 0.0
C728 C 0.48069 0.05406 0.53581 0.0
H729 H 0.43244 0.9781 0.56703 0.0
H730 H 0.43513 0.99845 0.56354 0.0
C731 C 0.48194 0.06571 0.53344 0.0
C732 C 0.53653 0.03532 0.52752 0.0
H733 H 0.45366 1.01177 0.50443 0.0
C734 C 0.58428 0.03021 0.54762 0.0
C735 C 0.48907 0.02854 0.51161 0.0
C736 C 0.43831 0.0334 0.4884 0.0
C737 C 0.58513 1.0186 0.55276 0.0
C738 C 0.53769 1.01181 0.53685 0.0
C739 C 0.48992 1.01692 0.51677 0.0
C740 C 0.53724 0.99941 0.54028 0.0
C741 C 0.63592 1.01373 0.57595 0.0
C742 C 0.59361 0.99309 0.52834 0.0
C743 C 0.59244 0.98144 0.53058 0.0
C744 C 0.5346 0.97577 0.54455 0.0
C745 C 0.47824 0.98213 0.55662 0.0
C746 C 0.47949 0.9938 0.55437 0.0
H747 H 0.655 1.02008 0.59402 0.0
H748 H 0.61409 1.00672 0.59206 0.0
H749 H 0.67939 1.01054 0.559 0.0
H750 H 0.63839 0.99716 0.51674 0.0
H751 H 0.63705 0.97689 0.52128 0.0
H752 H 0.14798 0.31506 0.10189 0.0
H753 H 0.18831 0.29589 0.09714 0.0
H754 H 0.25731 0.30156 0.98815 0.0
H755 H 0.21961 0.32089 0.99304 0.0
H756 H 0.15168 0.27897 0.05446 0.0
H757 H 0.42275 0.28799 0.02627 0.0
H758 H 0.36331 0.29851 0.0419 0.0
H759 H 0.37009 0.29453 0.99602 0.0
C760 C 0.17279 0.31233 0.07702 0.0
C761 C 0.1809 0.31966 0.04795 0.0
C762 C 0.19534 0.30129 0.07427 0.0
C763 C 0.22692 0.29726 0.04246 0.0
C764 C 0.23446 0.30449 0.01325 0.0
H765 H 0.39419 0.23293 0.97473 0.0
H766 H 0.3518 0.252 0.9783 0.0
C767 C 0.212 0.31554 0.01598 0.0
C768 C 0.25038 0.28544 0.03975 0.0
H769 H 0.389 0.26918 0.02063 0.0
C770 C 0.20366 0.27684 0.0472 0.0
C771 C 0.3182 0.2826 0.03023 0.0
C772 C 0.37168 0.29139 0.02346 0.0
C773 C 0.22249 0.26555 0.04485 0.0
C774 C 0.29031 0.26271 0.03537 0.0
C775 C 0.33701 0.27131 0.02784 0.0
C776 C 0.31399 0.25091 0.03316 0.0
C777 C 0.16914 0.25676 0.05175 0.0
C778 C 0.30732 0.24386 0.06283 0.0
C779 C 0.33107 0.23287 0.06081 0.0
C780 C 0.36253 0.22864 0.02908 0.0
C781 C 0.36921 0.23576 0.99944 0.0
C782 C 0.34547 0.24674 1.00151 0.0
H783 H 0.11802 0.26013 0.04891 0.0
H784 H 0.1776 0.24961 0.0334 0.0
H785 H 0.17082 0.25364 0.07923 0.0
H786 H 0.28447 0.2469 0.08779 0.0
H787 H 0.32457 0.22768 0.08415 0.0
H788 H 0.76307 0.81897 0.07803 0.0
H789 H 0.8014 0.79965 0.07368 0.0
H790 H 0.6859 0.79465 0.98337 0.0
H791 H 0.6468 0.8139 0.98768 0.0
H792 H 0.72622 0.7802 0.07841 0.0
H793 H 0.86912 0.78266 0.94747 0.0
H794 H 0.84222 0.79489 0.97228 0.0
H795 H 0.78385 0.78736 0.9473 0.0
C796 C 0.74566 0.81378 0.05721 0.0
C797 C 0.70185 0.81809 0.03313 0.0
C798 C 0.76791 0.80272 0.0547 0.0
C799 C 0.7474 0.79568 0.02791 0.0
C800 C 0.70383 0.79995 1.00378 0.0
H801 H 0.81573 0.72593 0.9715 0.0
H802 H 0.77769 0.74527 0.97597 0.0
C803 C 0.68153 0.81101 1.00627 0.0
C804 C 0.76971 0.7838 0.02598 0.0
H805 H 0.85174 0.7646 0.9719 0.0
C806 C 0.75399 0.77681 0.05518 0.0
C807 C 0.80579 0.77932 0.99566 0.0
C808 C 0.82686 0.78645 0.964 0.0
C809 C 0.77211 0.76548 0.05465 0.0
C810 C 0.80821 0.76099 0.02432 0.0
C811 C 0.82397 0.76799 0.99514 0.0
C812 C 0.83036 0.7491 0.02233 0.0
C813 C 0.75081 0.75835 0.08629 0.0
C814 C 0.87311 0.74475 0.04673 0.0
C815 C 0.89512 0.73367 0.0442 0.0
C816 C 0.87544 0.72666 0.017 0.0
C817 C 0.83258 0.73106 0.9926 0.0
C818 C 0.81053 0.74214 0.99518 0.0
H819 H 0.70824 0.76212 0.10263 0.0
H820 H 0.73579 0.74989 0.07801 0.0
H821 H 0.79356 0.75749 0.10318 0.0
H822 H 0.8906 0.74999 0.0674 0.0
H823 H 0.92912 0.7307 0.06306 0.0
H824 H 0.14151 0.73083 0.49941 0.0
H825 H 0.18125 0.75009 0.49476 0.0
H826 H 0.29286 0.74539 0.58664 0.0
H827 H 0.25512 0.72603 0.59085 0.0
H828 H 0.16146 0.76721 0.54337 0.0
H829 H 0.4339 0.75916 0.51682 0.0
H830 H 0.37134 0.74845 0.51324 0.0
H831 H 0.39732 0.75241 0.5559 0.0
C832 C 0.17552 0.73381 0.51828 0.0
C833 C 0.19524 0.72678 0.54542 0.0
C834 C 0.19779 0.74488 0.51575 0.0
C835 C 0.24082 0.74921 0.54006 0.0
C836 C 0.26072 0.74223 0.56713 0.0
H837 H 0.42378 0.81406 0.573 0.0
H838 H 0.3836 0.79484 0.57752 0.0
C839 C 0.2384 0.73116 0.56973 0.0
C840 C 0.26298 0.7611 0.53778 0.0
H841 H 0.40197 0.77786 0.52927 0.0
C842 C 0.21406 0.76953 0.54009 0.0
C843 C 0.33162 0.76419 0.53362 0.0
C844 C 0.38663 0.75559 0.52941 0.0
C845 C 0.23179 0.78089 0.53906 0.0
C846 C 0.30045 0.78397 0.5349 0.0
C847 C 0.34936 0.77554 0.53255 0.0
C848 C 0.32269 0.79587 0.53277 0.0
C849 C 0.17674 0.78948 0.54336 0.0
C850 C 0.30216 0.80293 0.50607 0.0
C851 C 0.32462 0.814 0.50359 0.0
C852 C 0.36868 0.81828 0.52762 0.0
C853 C 0.38904 0.81117 0.55438 0.0
C854 C 0.36654 0.80011 0.55682 0.0
H855 H 0.12966 0.78591 0.55616 0.0
H856 H 0.19215 0.79665 0.55938 0.0
H857 H 0.16563 0.79261 0.51689 0.0
H858 H 0.26944 0.79985 0.48672 0.0
H859 H 0.30736 0.81919 0.48277 0.0
H860 H 0.81202 0.323 0.5511 0.0
H861 H 0.77045 0.30381 0.55533 0.0
H862 H 0.93273 0.29321 0.48172 0.0
H863 H 0.97425 0.31231 0.47709 0.0
H864 H 0.72815 0.28949 0.50395 0.0
H865 H 0.94972 0.27171 0.56345 0.0
H866 H 0.93535 0.28651 0.56096 0.0
H867 H 0.97016 0.27903 0.52279 0.0
C868 C 0.83874 0.31661 0.53562 0.0
C869 C 0.89706 0.31927 0.51401 0.0
C870 C 0.81502 0.30561 0.53821 0.0
C871 C 0.84913 0.29697 0.51941 0.0
C872 C 0.90647 0.29963 0.49728 0.0
H873 H 0.78421 0.22526 0.49773 0.0
H874 H 0.82485 0.24451 0.49198 0.0
C875 C 0.93021 0.31061 0.49468 0.0
C876 C 0.8242 0.28524 0.5224 0.0
H877 H 0.86967 0.25881 0.54447 0.0
C878 C 0.75901 0.2828 0.513 0.0
C879 C 0.86436 0.27645 0.53411 0.0
C880 C 0.93355 0.27854 0.54623 0.0
C881 C 0.73348 0.27186 0.51436 0.0
C882 C 0.77368 0.26308 0.52601 0.0
C883 C 0.83887 0.2655 0.53539 0.0
C884 C 0.74858 0.25137 0.52928 0.0
C885 C 0.66408 0.26976 0.50255 0.0
C886 C 0.69262 0.24874 0.55245 0.0
C887 C 0.66925 0.23776 0.55576 0.0
C888 C 0.70136 0.22907 0.53609 0.0
C889 C 0.75771 0.23172 0.51301 0.0
C890 C 0.78126 0.24272 0.50984 0.0
H891 H 0.6473 0.27663 0.48568 0.0
H892 H 0.66233 0.26183 0.48758 0.0
H893 H 0.62794 0.26914 0.52616 0.0
H894 H 0.66711 0.25519 0.56821 0.0
H895 H 0.62533 0.2361 0.5735 0.0
H896 H 1.00972 0.38543 0.12662 0.0
H897 H 0.99685 0.38264 0.1911 0.0
H898 H 0.11647 0.41195 0.20579 0.0
H899 H 0.13104 0.41452 0.14181 0.0
H900 H 0.14997 0.39615 0.2498 0.0
H901 H 0.87217 0.39963 0.25932 0.0
H902 H 0.90445 0.38854 0.23131 0.0
H903 H 0.9228 0.40275 0.21915 0.0
C904 C 1.03355 0.39122 0.14367 0.0
C905 C 0.07099 0.40025 0.12903 0.0
C906 C 1.02569 0.38968 0.18061 0.0
C907 C 0.05442 0.39722 0.20371 0.0
C908 C 0.09342 0.40602 0.18886 0.0
H909 H 0.94175 0.41442 0.42038 0.0
H910 H 0.95635 0.41188 0.3564 0.0
C911 C 0.10164 0.40751 0.15212 0.0
C912 C 0.04385 0.39617 0.24326 0.0
H913 H 0.92297 0.39608 0.31233 0.0
C914 C 0.10025 0.39607 0.26343 0.0
C915 C 0.97906 0.39618 0.26136 0.0
C916 C 0.91611 0.39688 0.24178 0.0
C917 C 0.09389 0.3962 0.30077 0.0
C918 C 1.0291 0.39615 0.31887 0.0
C919 C 0.97269 0.39603 0.2987 0.0
C920 C 1.01852 0.39718 0.35842 0.0
C921 C 0.15683 0.39693 0.32035 0.0
C922 C 0.0473 0.38965 0.3815 0.0
C923 C 0.03941 0.39117 0.41844 0.0
C924 C 1.0019 0.40017 0.43311 0.0
C925 C 0.97121 0.40743 0.41006 0.0
C926 C 0.97945 0.40596 0.37331 0.0
H927 H 0.20076 0.39971 0.30282 0.0
H928 H 0.15011 0.40278 0.343 0.0
H929 H 0.16854 0.38859 0.33078 0.0
H930 H 0.07619 0.38263 0.37098 0.0
H931 H 0.06328 0.38539 0.43547 0.0
H932 H 0.08118 0.66967 0.14038 0.0
H933 H 0.08874 0.6663 0.20327 0.0
H934 H 0.96407 0.63714 0.19703 0.0
H935 H 0.95495 0.64069 0.13345 0.0
H936 H 0.92569 0.64924 0.25463 0.0
H937 H 0.20029 0.64418 0.25159 0.0
H938 H 0.17972 0.65709 0.2314 0.0
H939 H 0.1559 0.64413 0.21182 0.0
C940 C 0.0555 0.66249 0.15223 0.0
C941 C 1.0175 0.65544 0.13183 0.0
C942 C 0.06047 0.66051 0.18829 0.0
C943 C 1.02847 0.6513 0.20503 0.0
C944 C 0.98988 0.64424 0.18478 0.0
H945 H 0.11619 0.6408 0.42932 0.0
H946 H 0.10726 0.63725 0.36572 0.0
C947 C 0.98461 0.64627 0.14846 0.0
C948 C 1.03309 0.64954 0.24393 0.0
H949 H 0.14496 0.64945 0.30817 0.0
C950 C 0.97372 0.64911 0.26624 0.0
C951 C 0.09557 0.64908 0.25944 0.0
C952 C 0.1614 0.64852 0.23724 0.0
C953 C 0.97511 0.64895 0.30337 0.0
C954 C 0.03755 0.64952 0.31888 0.0
C955 C 0.09695 0.64922 0.29657 0.0
C956 C 0.04206 0.65128 0.35779 0.0
C957 C 0.90932 0.64824 0.32556 0.0
C958 C 1.00954 0.66042 0.37457 0.0
C959 C 1.0144 0.66241 0.41063 0.0
C960 C 0.05281 0.65543 0.431 0.0
C961 C 0.0862 0.64632 0.41434 0.0
C962 C 0.08104 0.64429 0.37801 0.0
H963 H 0.87069 0.64383 0.31118 0.0
H964 H 0.91509 0.64385 0.35095 0.0
H965 H 0.89048 0.65677 0.33147 0.0
H966 H 0.98093 0.66616 0.35962 0.0
H967 H 0.98833 0.66953 0.42252 0.0
H968 H 0.94081 0.63173 0.92152 0.0
H969 H 0.95627 0.63386 0.85735 0.0
H970 H 0.07532 0.66334 0.87044 0.0
H971 H 0.06165 0.661 0.93503 0.0
H972 H 0.92193 0.64952 0.81299 0.0
H973 H 0.19973 0.64608 0.80284 0.0
H974 H 0.14946 0.64311 0.84325 0.0
H975 H 0.16794 0.65728 0.83056 0.0
C976 C 0.97047 0.63866 0.91078 0.0
C977 C 1.0006 0.64613 0.93339 0.0
C978 C 0.97915 0.63989 0.87398 0.0
C979 C 1.01801 0.64865 0.8587 0.0
C980 C 0.04659 0.65634 0.88132 0.0
H981 H 1.00833 0.66101 0.62793 0.0
H982 H 0.99448 0.66331 0.69254 0.0
C983 C 0.03835 0.65505 0.91829 0.0
C984 C 1.0282 0.64956 0.8192 0.0
H985 H 0.14848 0.64972 0.74993 0.0
C986 C 0.97154 0.64961 0.79924 0.0
C987 C 0.09286 0.64956 0.80099 0.0
C988 C 0.15601 0.6489 0.82042 0.0
C989 C 0.97756 0.64948 0.76193 0.0
C990 C 0.04221 0.64959 0.74373 0.0
C991 C 0.09887 0.64973 0.76369 0.0
C992 C 0.05245 0.64871 0.70422 0.0
C993 C 0.91444 0.64872 0.7425 0.0
C994 C 0.09173 0.64002 0.68891 0.0
C995 C 0.1005 0.63881 0.6521 0.0
C996 C 0.07005 0.64624 0.62951 0.0
C997 C 1.03188 0.65509 0.64464 0.0
C998 C 1.02354 0.65636 0.68162 0.0
H999 H 0.87085 0.64583 0.76006 0.0
H1000 H 0.90214 0.65708 0.7324 0.0
H1001 H 0.92125 0.64295 0.71964 0.0
H1002 H 0.11487 0.63402 0.70551 0.0
H1003 H 0.13048 0.63193 0.64134 0.0
H1004 H 0.96283 0.37528 0.65136 0.0
H1005 H 0.97442 0.37888 0.7141 0.0
H1006 H 0.05144 0.41165 0.68873 0.0
H1007 H 0.03891 0.40811 0.62537 0.0
H1008 H 0.13176 0.39731 0.73509 0.0
H1009 H 0.8634 0.40057 0.7835 0.0
H1010 H 0.88329 0.389 0.75448 0.0
H1011 H 0.89253 0.40296 0.73782 0.0
C1012 C 0.98128 0.38333 0.65912 0.0
C1013 C 0.99945 0.39144 0.6334 0.0
C1014 C 0.98777 0.38538 0.69507 0.0
C1015 C 1.01328 0.39557 0.70634 0.0
C1016 C 1.03117 0.40376 0.68075 0.0
H1017 H 1.03479 0.40812 0.93685 0.0
H1018 H 1.02223 0.41166 0.8735 0.0
C1019 C 1.02369 0.40176 0.64459 0.0
C1020 C 1.02419 0.39723 0.74463 0.0
H1021 H 0.94159 0.39733 0.82716 0.0
C1022 C 0.09016 0.39751 0.75518 0.0
C1023 C 0.97007 0.39753 0.771 0.0
C1024 C 0.89823 0.3976 0.76127 0.0
C1025 C 0.10328 0.39751 0.79125 0.0
C1026 C 0.04916 0.39722 0.81762 0.0
C1027 C 0.98319 0.39753 0.80707 0.0
C1028 C 0.06003 0.39556 0.85591 0.0
C1029 C 0.17512 0.39755 0.80097 0.0
C1030 C 0.08534 0.38537 0.86719 0.0
C1031 C 0.09187 0.38333 0.90315 0.0
C1032 C 0.07392 0.39145 0.92885 0.0
C1033 C 0.04985 0.40176 0.91764 0.0
C1034 C 0.04234 0.40376 0.88148 0.0
H1035 H 0.21003 0.40052 0.77874 0.0
H1036 H 0.18095 0.40291 0.82443 0.0
H1037 H 0.18986 0.38896 0.80776 0.0
H1038 H 0.09854 0.37886 0.84817 0.0
H1039 H 0.11017 0.37527 0.91091 0.0
H1040 H 0.51217 0.88102 0.12572 0.0
H1041 H 0.49703 0.87792 0.18992 0.0
H1042 H 0.62227 0.90641 0.20703 0.0
H1043 H 0.64 0.90916 0.1433 0.0
H1044 H 0.65031 0.8908 0.25072 0.0
H1045 H 0.37297 0.89487 0.25691 0.0
H1046 H 0.40469 0.8836 0.22954 0.0
H1047 H 0.42528 0.89773 0.21715 0.0
C1048 C 0.53679 0.88655 0.14327 0.0
C1049 C 0.57685 0.89538 0.12947 0.0
C1050 C 0.52761 0.88484 0.18001 0.0
C1051 C 0.55709 0.89209 0.20364 0.0
C1052 C 0.59863 0.90071 0.18961 0.0
H1053 H 0.43207 0.90941 0.41763 0.0
H1054 H 0.44965 0.90657 0.35393 0.0
C1055 C 0.60865 0.90229 0.15305 0.0
C1056 C 0.54463 0.89097 0.24293 0.0
H1057 H 0.42093 0.89094 0.31043 0.0
C1058 C 0.60007 0.89079 0.26375 0.0
C1059 C 0.47912 0.89105 0.26017 0.0
C1060 C 0.41711 0.89193 0.23987 0.0
C1061 C 0.59212 0.89103 0.30098 0.0
C1062 C 0.52661 0.89102 0.31822 0.0
C1063 C 0.47116 0.89087 0.2974 0.0
C1064 C 0.51421 0.89221 0.35749 0.0
C1065 C 0.65418 0.89189 0.32126 0.0
C1066 C 0.5434 0.88496 0.38121 0.0
C1067 C 0.53432 0.88672 0.41792 0.0
C1068 C 0.49465 0.89559 0.43162 0.0
C1069 C 0.46313 0.90251 0.40796 0.0
C1070 C 0.47305 0.90087 0.37142 0.0
H1071 H 0.69844 0.89477 0.30417 0.0
H1072 H 0.64626 0.89772 0.34391 0.0
H1073 H 0.66625 0.88356 0.33169 0.0
H1074 H 0.57367 0.878 0.37138 0.0
H1075 H 0.55871 0.88119 0.43554 0.0
H1076 H 0.62687 0.16008 0.13259 0.0
H1077 H 0.6353 0.15674 0.19554 0.0
H1078 H 0.43746 0.14207 0.20295 0.0
H1079 H 0.42994 0.14509 0.13907 0.0
H1080 H 0.55821 0.16652 0.24543 0.0
H1081 H 0.53527 0.12089 0.26433 0.0
H1082 H 0.55211 0.12716 0.22127 0.0
H1083 H 0.46802 0.1269 0.24184 0.0
C1084 C 0.58565 0.15592 0.14747 0.0
C1085 C 0.52761 0.15289 0.131 0.0
C1086 C 0.59051 0.15402 0.18352 0.0
C1087 C 0.53719 0.14913 0.20425 0.0
C1088 C 0.47992 0.14566 0.18756 0.0
H1089 H 0.45769 0.16338 0.42592 0.0
H1090 H 0.45376 0.16012 0.36258 0.0
C1091 C 0.47543 0.14744 0.15108 0.0
C1092 C 0.53958 0.14887 0.24358 0.0
H1093 H 0.52734 0.13205 0.31679 0.0
C1094 C 0.55187 0.15894 0.26086 0.0
C1095 C 0.5319 0.139 0.26396 0.0
C1096 C 0.52173 0.12785 0.24693 0.0
C1097 C 0.55586 0.15946 0.29764 0.0
C1098 C 0.5458 0.14968 0.31818 0.0
C1099 C 0.53465 0.13955 0.30106 0.0
C1100 C 0.54397 0.15014 0.35754 0.0
C1101 C 0.57117 0.17051 0.31422 0.0
C1102 C 0.59448 0.14518 0.37625 0.0
C1103 C 0.59665 0.14699 0.41286 0.0
C1104 C 0.54845 0.15381 0.43106 0.0
C1105 C 0.49613 0.15822 0.41253 0.0
C1106 C 0.49374 0.15636 0.37629 0.0
H1107 H 0.59468 0.17643 0.29446 0.0
H1108 H 0.52371 0.17428 0.32568 0.0
H1109 H 0.60526 0.16944 0.33582 0.0
H1110 H 0.63365 0.14031 0.36231 0.0
H1111 H 0.63737 0.14346 0.42653 0.0
H1112 H 0.58073 0.16162 0.9331 0.0
H1113 H 0.5965 0.16379 0.86863 0.0
H1114 H 0.41182 0.14593 0.85722 0.0
H1115 H 0.39693 0.14351 0.92137 0.0
H1116 H 0.51165 0.13743 0.81539 0.0
H1117 H 0.51088 0.18319 0.79746 0.0
H1118 H 0.5708 0.17854 0.82724 0.0
H1119 H 0.48251 0.17661 0.83873 0.0
C1120 C 0.54298 0.15834 0.91682 0.0
C1121 C 0.48775 0.15235 0.93222 0.0
C1122 C 0.55181 0.15963 0.87996 0.0
C1123 C 0.50506 0.15511 0.85791 0.0
C1124 C 0.44862 0.1495 0.87355 0.0
H1125 H 0.48967 0.16199 0.62852 0.0
H1126 H 0.47105 0.16407 0.69304 0.0
C1127 C 0.44008 0.14814 0.91025 0.0
C1128 C 0.51747 0.1553 0.81859 0.0
H1129 H 0.54785 0.17236 0.74683 0.0
C1130 C 0.51922 0.14509 0.80047 0.0
C1131 C 0.52675 0.16528 0.79891 0.0
C1132 C 0.52202 0.17654 0.8165 0.0
C1133 C 0.53073 0.14456 0.7635 0.0
C1134 C 0.54254 0.15449 0.74392 0.0
C1135 C 0.53966 0.16474 0.76186 0.0
C1136 C 0.55761 0.1543 0.70482 0.0
C1137 C 0.52898 0.13333 0.74572 0.0
C1138 C 0.6137 0.14847 0.68992 0.0
C1139 C 0.62412 0.14722 0.65324 0.0
C1140 C 0.57908 0.15188 0.63061 0.0
C1141 C 0.52505 0.15827 0.64534 0.0
C1142 C 0.5144 0.15946 0.68218 0.0
H1143 H 0.50142 0.12708 0.76285 0.0
H1144 H 0.50487 0.13387 0.7203 0.0
H1145 H 0.58112 0.13028 0.74008 0.0
H1146 H 0.64862 0.14463 0.70677 0.0
H1147 H 0.66661 0.14235 0.64263 0.0
H1148 H 0.45871 0.90748 0.63084 0.0
H1149 H 0.46624 0.91211 0.69387 0.0
H1150 H 0.59549 0.88379 0.70503 0.0
H1151 H 0.58996 0.87943 0.64277 0.0
H1152 H 0.42775 0.90096 0.75223 0.0
H1153 H 0.70095 0.90662 0.75275 0.0
H1154 H 0.65926 0.90598 0.71215 0.0
H1155 H 0.68395 0.89339 0.73361 0.0
C1156 C 0.48933 0.90237 0.64677 0.0
C1157 C 0.52393 0.89313 0.63175 0.0
C1158 C 0.49363 0.905 0.68278 0.0
C1159 C 0.53288 0.89846 0.70427 0.0
C1160 C 0.56681 0.88922 0.68906 0.0
H1161 H 0.48046 0.87938 0.91823 0.0
H1162 H 0.47508 0.8838 0.85599 0.0
C1163 C 0.56294 0.88665 0.65335 0.0
C1164 C 0.53548 0.90066 0.74304 0.0
H1165 H 0.64386 0.90077 0.80888 0.0
C1166 C 0.4751 0.90115 0.7645 0.0
C1167 C 0.59702 0.90124 0.75943 0.0
C1168 C 0.66383 0.90191 0.73816 0.0
C1169 C 0.47462 0.90131 0.80168 0.0
C1170 C 0.53611 0.90063 0.81807 0.0
C1171 C 0.59652 0.90104 0.79661 0.0
C1172 C 0.53857 0.89839 0.85683 0.0
C1173 C 0.40786 0.90206 0.82296 0.0
C1174 C 0.57821 0.90486 0.87834 0.0
C1175 C 0.58239 0.90219 0.91433 0.0
C1176 C 0.54729 0.89298 0.9293 0.0
C1177 C 0.50788 0.88658 0.90768 0.0
C1178 C 0.5041 0.88917 0.87199 0.0
H1179 H 0.37103 0.90683 0.80841 0.0
H1180 H 0.38721 0.89356 0.82748 0.0
H1181 H 0.41271 0.90611 0.84899 0.0
H1182 H 0.60601 0.91194 0.86729 0.0
H1183 H 0.61333 0.90726 0.93028 0.0
loop_
_geom_bond_atom_site_label_1
_geom_bond_atom_site_label_2
_geom_bond_distance
_geom_bond_site_symmetry_2
_ccdc_geom_bond_type
La0 C2 2.928 . S
La0 O20 2.521 . S
La0 O21 2.628 1_554 S
La0 O22 2.554 . S
La0 O23 2.757 . S
La0 O24 2.470 1_455 S
La0 O29 2.482 1_554 S
La0 O31 2.503 . S
La1 C11 2.928 . S
La1 O23 2.482 . S
La1 O25 2.503 1_455 S
La1 O26 2.521 1_554 S
La1 O27 2.628 . S
La1 O28 2.554 1_554 S
La1 O29 2.757 1_554 S
La1 O30 2.472 . S
C2 La0 2.928 . S
C2 C3 1.503 1_455 S
C2 O20 1.261 . S
C2 O21 1.243 1_554 S
C3 C2 1.503 1_655 S
C3 C4 1.394 . S
C3 C8 1.373 1_554 S
C4 C3 1.394 . S
C4 C5 1.380 . S
C4 H32 0.930 . S
C5 C4 1.380 . S
C5 C6 1.376 . S
C5 H33 0.930 . S
C6 C5 1.376 . S
C6 C7 1.370 1_554 S
C7 C6 1.370 1_556 S
C7 C8 1.396 . S
C7 H34 0.929 . S
C8 C3 1.373 1_556 S
C8 C7 1.396 . S
C8 H35 0.929 . S
C9 O22 1.240 . S
C9 O23 1.289 . S
C10 O24 1.258 . S
C10 O25 1.256 . S
C11 La1 2.928 . S
C11 C12 1.503 . S
C11 O26 1.261 1_554 S
C11 O27 1.243 . S
C12 C11 1.503 . S
C12 C13 1.394 1_554 S
C12 C17 1.373 . S
C13 C12 1.394 1_556 S
C13 C14 1.380 . S
C13 H36 0.930 . S
C14 C13 1.380 . S
C14 C15 1.376 1_556 S
C14 H37 0.930 . S
C15 C14 1.376 1_554 S
C15 C16 1.370 . S
C16 C15 1.370 . S
C16 C17 1.396 . S
C16 H38 0.929 . S
C17 C12 1.373 . S
C17 C16 1.396 . S
C17 H39 0.929 . S
C18 O28 1.240 . S
C18 O29 1.289 . S
C19 O30 1.265 . S
C19 O31 1.256 . S
O20 La0 2.521 . S
O20 C2 1.261 . S
O21 La0 2.628 1_556 S
O21 C2 1.243 1_556 S
O22 La0 2.554 . S
O22 C9 1.240 . S
O23 La0 2.757 . S
O23 La1 2.482 . S
O23 C9 1.289 . S
O24 La0 2.470 1_655 S
O24 C10 1.258 . S
O25 La1 2.503 1_655 S
O25 C10 1.256 . S
O26 La1 2.521 1_556 S
O26 C11 1.261 1_556 S
O27 La1 2.628 . S
O27 C11 1.243 . S
O28 La1 2.554 1_556 S
O28 C18 1.240 . S
O29 La0 2.482 1_556 S
O29 La1 2.757 1_556 S
O29 C18 1.289 . S
O30 La1 2.472 . S
O30 C19 1.265 . S
O31 La0 2.503 . S
O31 C19 1.256 . S
H32 C4 0.930 . S
H33 C5 0.930 . S
H34 C7 0.929 . S
H35 C8 0.929 . S
H36 C13 0.930 . S
H37 C14 0.930 . S
H38 C16 0.929 . S
H39 C17 0.929 . S
La40 C42 2.928 . S
La40 O60 2.521 . S
La40 O61 2.628 1_554 S
La40 O62 2.554 . S
La40 O63 2.757 . S
La40 O64 2.470 . S
La40 O69 2.482 1_554 S
La40 O71 2.503 1_655 S
La41 C51 2.928 . S
La41 O63 2.482 . S
La41 O65 2.503 . S
La41 O66 2.521 1_554 S
La41 O67 2.628 . S
La41 O68 2.554 1_554 S
La41 O69 2.757 1_554 S
La41 O70 2.470 1_655 S
C42 La40 2.928 . S
C42 C43 1.503 . S
C42 O60 1.261 . S
C42 O61 1.243 1_554 S
C43 C42 1.503 . S
C43 C44 1.394 . S
C43 C48 1.373 1_554 S
C44 C43 1.394 . S
C44 C45 1.380 . S
C44 H72 0.930 . S
C45 C44 1.380 . S
C45 C46 1.376 . S
C45 H73 0.930 . S
C46 C45 1.376 . S
C46 C47 1.370 1_554 S
C47 C46 1.370 1_556 S
C47 C48 1.396 . S
C47 H74 0.929 . S
C48 C43 1.373 1_556 S
C48 C47 1.396 . S
C48 H75 0.929 . S
C49 O62 1.240 . S
C49 O63 1.289 . S
C50 O64 1.258 . S
C50 O65 1.256 . S
C51 La41 2.928 . S
C51 C52 1.503 1_655 S
C51 O66 1.261 1_554 S
C51 O67 1.243 . S
C52 C51 1.503 1_455 S
C52 C53 1.394 1_554 S
C52 C57 1.373 . S
C53 C52 1.394 1_556 S
C53 C54 1.383 . S
C53 H76 0.930 . S
C54 C53 1.383 . S
C54 C55 1.350 1_556 S
C54 H77 0.954 . S
C55 C54 1.350 1_554 S
C55 C56 1.370 . S
C56 C55 1.370 . S
C56 C57 1.396 . S
C56 H78 0.929 . S
C57 C52 1.373 . S
C57 C56 1.396 . S
C57 H79 0.929 . S
C58 O68 1.240 . S
C58 O69 1.289 . S
C59 O70 1.258 . S
C59 O71 1.256 . S
O60 La40 2.521 . S
O60 C42 1.261 . S
O61 La40 2.628 1_556 S
O61 C42 1.243 1_556 S
O62 La40 2.554 . S
O62 C49 1.240 . S
O63 La40 2.757 . S
O63 La41 2.482 . S
O63 C49 1.289 . S
O64 La40 2.470 . S
O64 C50 1.258 . S
O65 La41 2.503 . S
O65 C50 1.256 . S
O66 La41 2.521 1_556 S
O66 C51 1.261 1_556 S
O67 La41 2.628 . S
O67 C51 1.243 . S
O68 La41 2.554 1_556 S
O68 C58 1.240 . S
O69 La40 2.482 1_556 S
O69 La41 2.757 1_556 S
O69 C58 1.289 . S
O70 La41 2.470 1_455 S
O70 C59 1.258 . S
O71 La40 2.503 1_455 S
O71 C59 1.256 . S
H72 C44 0.930 . S
H73 C45 0.930 . S
H74 C47 0.929 . S
H75 C48 0.929 . S
H76 C53 0.930 . S
H77 C54 0.954 . S
H78 C56 0.929 . S
H79 C57 0.929 . S
La80 C82 2.928 . S
La80 O100 2.521 . S
La80 O101 2.628 . S
La80 O102 2.554 . S
La80 O103 2.757 . S
La80 O104 2.470 . S
La80 O109 2.482 . S
La80 O111 2.503 1_455 S
La81 C91 2.928 . S
La81 O103 2.482 . S
La81 O105 2.503 . S
La81 O106 2.521 . S
La81 O107 2.628 . S
La81 O108 2.554 . S
La81 O109 2.757 . S
La81 O110 2.470 1_455 S
C82 La80 2.928 . S
C82 C83 1.503 . S
C82 O100 1.261 . S
C82 O101 1.243 . S
C83 C82 1.503 . S
C83 C84 1.394 . S
C83 C88 1.373 . S
C84 C83 1.394 . S
C84 C85 1.380 . S
C84 H112 0.930 . S
C85 C84 1.380 . S
C85 C86 1.376 . S
C85 H113 0.930 . S
C86 C85 1.376 . S
C86 C87 1.370 . S
C87 C86 1.370 . S
C87 C88 1.396 . S
C87 H114 0.929 . S
C88 C83 1.373 . S
C88 C87 1.396 . S
C88 H115 0.929 . S
C89 O102 1.240 . S
C89 O103 1.289 . S
C90 O104 1.258 . S
C90 O105 1.256 . S
C91 La81 2.928 . S
C91 C92 1.503 1_455 S
C91 O106 1.261 . S
C91 O107 1.243 . S
C92 C91 1.503 1_655 S
C92 C93 1.394 . S
C92 C97 1.373 . S
C93 C92 1.394 . S
C93 C94 1.380 . S
C93 H116 0.930 . S
C94 C93 1.380 . S
C94 C95 1.376 . S
C94 H117 0.930 . S
C95 C94 1.376 . S
C95 C96 1.370 . S
C96 C95 1.370 . S
C96 C97 1.396 . S
C96 H118 0.929 . S
C97 C92 1.373 . S
C97 C96 1.396 . S
C97 H119 0.929 . S
C98 O108 1.240 . S
C98 O109 1.289 . S
C99 O110 1.258 . S
C99 O111 1.256 . S
O100 La80 2.521 . S
O100 C82 1.261 . S
O101 La80 2.628 . S
O101 C82 1.243 . S
O102 La80 2.554 . S
O102 C89 1.240 . S
O103 La80 2.757 . S
O103 La81 2.482 . S
O103 C89 1.289 . S
O104 La80 2.470 . S
O104 C90 1.258 . S
O105 La81 2.503 . S
O105 C90 1.256 . S
O106 La81 2.521 . S
O106 C91 1.261 . S
O107 La81 2.628 . S
O107 C91 1.243 . S
O108 La81 2.554 . S
O108 C98 1.240 . S
O109 La80 2.482 . S
O109 La81 2.757 . S
O109 C98 1.289 . S
O110 La81 2.470 1_655 S
O110 C99 1.258 . S
O111 La80 2.503 1_655 S
O111 C99 1.256 . S
H112 C84 0.930 . S
H113 C85 0.930 . S
H114 C87 0.929 . S
H115 C88 0.929 . S
H116 C93 0.930 . S
H117 C94 0.930 . S
H118 C96 0.929 . S
H119 C97 0.929 . S
La120 C122 2.928 . S
La120 O140 2.521 . S
La120 O141 2.628 . S
La120 O142 2.554 . S
La120 O143 2.757 . S
La120 O144 2.470 1_655 S
La120 O149 2.482 . S
La120 O151 2.503 . S
La121 C131 2.928 . S
La121 O143 2.482 . S
La121 O145 2.503 1_655 S
La121 O146 2.521 . S
La121 O147 2.628 . S
La121 O148 2.554 . S
La121 O149 2.757 . S
La121 O150 2.470 . S
C122 La120 2.928 . S
C122 C123 1.503 1_655 S
C122 O140 1.261 . S
C122 O141 1.243 . S
C123 C122 1.503 1_455 S
C123 C124 1.394 . S
C123 C128 1.373 . S
C124 C123 1.394 . S
C124 C125 1.380 . S
C124 H152 0.930 . S
C125 C124 1.380 . S
C125 C126 1.376 . S
C125 H153 0.930 . S
C126 C125 1.376 . S
C126 C127 1.370 . S
C127 C126 1.370 . S
C127 C128 1.396 . S
C127 H154 0.929 . S
C128 C123 1.373 . S
C128 C127 1.396 . S
C128 H155 0.929 . S
C129 O142 1.240 . S
C129 O143 1.289 . S
C130 O144 1.258 . S
C130 O145 1.256 . S
C131 La121 2.928 . S
C131 C132 1.503 . S
C131 O146 1.261 . S
C131 O147 1.243 . S
C132 C131 1.503 . S
C132 C133 1.394 . S
C132 C137 1.373 . S
C133 C132 1.394 . S
C133 C134 1.380 . S
C133 H156 0.930 . S
C134 C133 1.380 . S
C134 C135 1.376 . S
C134 H157 0.930 . S
C135 C134 1.376 . S
C135 C136 1.370 . S
C136 C135 1.370 . S
C136 C137 1.396 . S
C136 H158 0.929 . S
C137 C132 1.373 . S
C137 C136 1.396 . S
C137 H159 0.929 . S
C138 O148 1.240 . S
C138 O149 1.289 . S
C139 O150 1.258 . S
C139 O151 1.256 . S
O140 La120 2.521 . S
O140 C122 1.261 . S
O141 La120 2.628 . S
O141 C122 1.243 . S
O142 La120 2.554 . S
O142 C129 1.240 . S
O143 La120 2.757 . S
O143 La121 2.482 . S
O143 C129 1.289 . S
O144 La120 2.470 1_455 S
O144 C130 1.258 . S
O145 La121 2.503 1_455 S
O145 C130 1.256 . S
O146 La121 2.521 . S
O146 C131 1.261 . S
O147 La121 2.628 . S
O147 C131 1.243 . S
O148 La121 2.554 . S
O148 C138 1.240 . S
O149 La120 2.482 . S
O149 La121 2.757 . S
O149 C138 1.289 . S
O150 La121 2.470 . S
O150 C139 1.258 . S
O151 La120 2.503 . S
O151 C139 1.256 . S
H152 C124 0.930 . S
H153 C125 0.930 . S
H154 C127 0.929 . S
H155 C128 0.929 . S
H156 C133 0.930 . S
H157 C134 0.930 . S
H158 C136 0.929 . S
H159 C137 0.929 . S
La160 C162 2.928 . S
La160 O180 2.521 . S
La160 O181 2.628 1_554 S
La160 O182 2.554 . S
La160 O183 2.757 . S
La160 O184 2.470 . S
La160 O189 2.482 1_554 S
La160 O191 2.503 . S
La161 C171 2.928 . S
La161 O183 2.482 . S
La161 O185 2.503 . S
La161 O186 2.521 1_554 S
La161 O187 2.628 . S
La161 O188 2.554 1_554 S
La161 O189 2.757 1_554 S
La161 O190 2.472 . S
C162 La160 2.928 . S
C162 C163 1.503 . S
C162 O180 1.261 . S
C162 O181 1.243 1_554 S
C163 C162 1.503 . S
C163 C164 1.394 . S
C163 C168 1.373 1_554 S
C164 C163 1.394 . S
C164 C165 1.380 . S
C164 H192 0.930 . S
C165 C164 1.380 . S
C165 C166 1.376 . S
C165 H193 0.930 . S
C166 C165 1.376 . S
C166 C167 1.370 1_554 S
C167 C166 1.370 1_556 S
C167 C168 1.396 . S
C167 H194 0.929 . S
C168 C163 1.373 1_556 S
C168 C167 1.396 . S
C168 H195 0.929 . S
C169 O182 1.240 . S
C169 O183 1.289 . S
C170 O184 1.258 . S
C170 O185 1.256 . S
C171 La161 2.928 . S
C171 C172 1.503 . S
C171 O186 1.261 1_554 S
C171 O187 1.243 . S
C172 C171 1.503 . S
C172 C173 1.394 1_554 S
C172 C177 1.373 . S
C173 C172 1.394 1_556 S
C173 C174 1.380 . S
C173 H196 0.930 . S
C174 C173 1.380 . S
C174 C175 1.376 1_556 S
C174 H197 0.930 . S
C175 C174 1.376 1_554 S
C175 C176 1.370 . S
C176 C175 1.370 . S
C176 C177 1.396 . S
C176 H198 0.929 . S
C177 C172 1.373 . S
C177 C176 1.396 . S
C177 H199 0.929 . S
C178 O188 1.240 . S
C178 O189 1.289 . S
C179 O190 1.265 . S
C179 O191 1.256 . S
O180 La160 2.521 . S
O180 C162 1.261 . S
O181 La160 2.628 1_556 S
O181 C162 1.243 1_556 S
O182 La160 2.554 . S
O182 C169 1.240 . S
O183 La160 2.757 . S
O183 La161 2.482 . S
O183 C169 1.289 . S
O184 La160 2.470 . S
O184 C170 1.258 . S
O185 La161 2.503 . S
O185 C170 1.256 . S
O186 La161 2.521 1_556 S
O186 C171 1.261 1_556 S
O187 La161 2.628 . S
O187 C171 1.243 . S
O188 La161 2.554 1_556 S
O188 C178 1.240 . S
O189 La160 2.482 1_556 S
O189 La161 2.757 1_556 S
O189 C178 1.289 . S
O190 La161 2.472 . S
O190 C179 1.265 . S
O191 La160 2.503 . S
O191 C179 1.256 . S
H192 C164 0.930 . S
H193 C165 0.930 . S
H194 C167 0.929 . S
H195 C168 0.929 . S
H196 C173 0.930 . S
H197 C174 0.930 . S
H198 C176 0.929 . S
H199 C177 0.929 . S
La200 C202 2.928 . S
La200 O220 2.521 . S
La200 O221 2.628 1_554 S
La200 O222 2.554 . S
La200 O223 2.757 . S
La200 O224 2.470 . S
La200 O229 2.482 1_554 S
La200 O231 2.503 . S
La201 C211 2.928 . S
La201 O223 2.482 . S
La201 O225 2.503 . S
La201 O226 2.521 1_554 S
La201 O227 2.628 . S
La201 O228 2.554 1_554 S
La201 O229 2.757 1_554 S
La201 O230 2.470 . S
C202 La200 2.928 . S
C202 C203 1.503 . S
C202 O220 1.261 . S
C202 O221 1.243 1_554 S
C203 C202 1.503 . S
C203 C204 1.394 . S
C203 C208 1.373 1_554 S
C204 C203 1.394 . S
C204 C205 1.380 . S
C204 H232 0.930 . S
C205 C204 1.380 . S
C205 C206 1.376 . S
C205 H233 0.930 . S
C206 C205 1.376 . S
C206 C207 1.370 1_554 S
C207 C206 1.370 1_556 S
C207 C208 1.396 . S
C207 H234 0.929 . S
C208 C203 1.373 1_556 S
C208 C207 1.396 . S
C208 H235 0.929 . S
C209 O222 1.240 . S
C209 O223 1.289 . S
C210 O224 1.258 . S
C210 O225 1.256 . S
C211 La201 2.928 . S
C211 C212 1.503 . S
C211 O226 1.261 1_554 S
C211 O227 1.243 . S
C212 C211 1.503 . S
C212 C213 1.394 1_554 S
C212 C217 1.373 . S
C213 C212 1.394 1_556 S
C213 C214 1.383 . S
C213 H236 0.930 . S
C214 C213 1.383 . S
C214 C215 1.350 1_556 S
C214 H237 0.954 . S
C215 C214 1.350 1_554 S
C215 C216 1.370 . S
C216 C215 1.370 . S
C216 C217 1.396 . S
C216 H238 0.929 . S
C217 C212 1.373 . S
C217 C216 1.396 . S
C217 H239 0.929 . S
C218 O228 1.240 . S
C218 O229 1.289 . S
C219 O230 1.258 . S
C219 O231 1.256 . S
O220 La200 2.521 . S
O220 C202 1.261 . S
O221 La200 2.628 1_556 S
O221 C202 1.243 1_556 S
O222 La200 2.554 . S
O222 C209 1.240 . S
O223 La200 2.757 . S
O223 La201 2.482 . S
O223 C209 1.289 . S
O224 La200 2.470 . S
O224 C210 1.258 . S
O225 La201 2.503 . S
O225 C210 1.256 . S
O226 La201 2.521 1_556 S
O226 C211 1.261 1_556 S
O227 La201 2.628 . S
O227 C211 1.243 . S
O228 La201 2.554 1_556 S
O228 C218 1.240 . S
O229 La200 2.482 1_556 S
O229 La201 2.757 1_556 S
O229 C218 1.289 . S
O230 La201 2.470 . S
O230 C219 1.258 . S
O231 La200 2.503 . S
O231 C219 1.256 . S
H232 C204 0.930 . S
H233 C205 0.930 . S
H234 C207 0.929 . S
H235 C208 0.929 . S
H236 C213 0.930 . S
H237 C214 0.954 . S
H238 C216 0.929 . S
H239 C217 0.929 . S
La240 C242 2.928 . S
La240 O260 2.521 . S
La240 O261 2.628 . S
La240 O262 2.554 . S
La240 O263 2.757 . S
La240 O264 2.470 . S
La240 O269 2.482 . S
La240 O271 2.503 . S
La241 C251 2.928 . S
La241 O263 2.482 . S
La241 O265 2.503 . S
La241 O266 2.521 . S
La241 O267 2.628 . S
La241 O268 2.554 . S
La241 O269 2.757 . S
La241 O270 2.470 . S
C242 La240 2.928 . S
C242 C243 1.503 . S
C242 O260 1.261 . S
C242 O261 1.243 . S
C243 C242 1.503 . S
C243 C244 1.394 . S
C243 C248 1.373 . S
C244 C243 1.394 . S
C244 C245 1.380 . S
C244 H272 0.930 . S
C245 C244 1.380 . S
C245 C246 1.376 . S
C245 H273 0.930 . S
C246 C245 1.376 . S
C246 C247 1.370 . S
C247 C246 1.370 . S
C247 C248 1.396 . S
C247 H274 0.929 . S
C248 C243 1.373 . S
C248 C247 1.396 . S
C248 H275 0.929 . S
C249 O262 1.240 . S
C249 O263 1.289 . S
C250 O264 1.258 . S
C250 O265 1.256 . S
C251 La241 2.928 . S
C251 C252 1.503 . S
C251 O266 1.261 . S
C251 O267 1.243 . S
C252 C251 1.503 . S
C252 C253 1.394 . S
C252 C257 1.373 . S
C253 C252 1.394 . S
C253 C254 1.380 . S
C253 H276 0.930 . S
C254 C253 1.380 . S
C254 C255 1.376 . S
C254 H277 0.930 . S
C255 C254 1.376 . S
C255 C256 1.370 . S
C256 C255 1.370 . S
C256 C257 1.396 . S
C256 H278 0.929 . S
C257 C252 1.373 . S
C257 C256 1.396 . S
C257 H279 0.929 . S
C258 O268 1.240 . S
C258 O269 1.289 . S
C259 O270 1.258 . S
C259 O271 1.256 . S
O260 La240 2.521 . S
O260 C242 1.261 . S
O261 La240 2.628 . S
O261 C242 1.243 . S
O262 La240 2.554 . S
O262 C249 1.240 . S
O263 La240 2.757 . S
O263 La241 2.482 . S
O263 C249 1.289 . S
O264 La240 2.470 . S
O264 C250 1.258 . S
O265 La241 2.503 . S
O265 C250 1.256 . S
O266 La241 2.521 . S
O266 C251 1.261 . S
O267 La241 2.628 . S
O267 C251 1.243 . S
O268 La241 2.554 . S
O268 C258 1.240 . S
O269 La240 2.482 . S
O269 La241 2.757 . S
O269 C258 1.289 . S
O270 La241 2.470 . S
O270 C259 1.258 . S
O271 La240 2.503 . S
O271 C259 1.256 . S
H272 C244 0.930 . S
H273 C245 0.930 . S
H274 C247 0.929 . S
H275 C248 0.929 . S
H276 C253 0.930 . S
H277 C254 0.930 . S
H278 C256 0.929 . S
H279 C257 0.929 . S
La280 C282 2.928 . S
La280 O300 2.521 . S
La280 O301 2.628 . S
La280 O302 2.554 . S
La280 O303 2.757 . S
La280 O304 2.470 . S
La280 O309 2.482 . S
La280 O311 2.503 . S
La281 C291 2.928 . S
La281 O303 2.482 . S
La281 O305 2.503 . S
La281 O306 2.521 . S
La281 O307 2.628 . S
La281 O308 2.554 . S
La281 O309 2.757 . S
La281 O310 2.470 . S
C282 La280 2.928 . S
C282 C283 1.503 . S
C282 O300 1.261 . S
C282 O301 1.243 . S
C283 C282 1.503 . S
C283 C284 1.394 . S
C283 C288 1.373 . S
C284 C283 1.394 . S
C284 C285 1.380 . S
C284 H312 0.930 . S
C285 C284 1.380 . S
C285 C286 1.376 . S
C285 H313 0.930 . S
C286 C285 1.376 . S
C286 C287 1.370 . S
C287 C286 1.370 . S
C287 C288 1.396 . S
C287 H314 0.929 . S
C288 C283 1.373 . S
C288 C287 1.396 . S
C288 H315 0.929 . S
C289 O302 1.240 . S
C289 O303 1.289 . S
C290 O304 1.258 . S
C290 O305 1.256 . S
C291 La281 2.928 . S
C291 C292 1.503 . S
C291 O306 1.261 . S
C291 O307 1.243 . S
C292 C291 1.503 . S
C292 C293 1.394 . S
C292 C297 1.373 . S
C293 C292 1.394 . S
C293 C294 1.380 . S
C293 H316 0.930 . S
C294 C293 1.380 . S
C294 C295 1.376 . S
C294 H317 0.930 . S
C295 C294 1.376 . S
C295 C296 1.370 . S
C296 C295 1.370 . S
C296 C297 1.396 . S
C296 H318 0.929 . S
C297 C292 1.373 . S
C297 C296 1.396 . S
C297 H319 0.929 . S
C298 O308 1.240 . S
C298 O309 1.289 . S
C299 O310 1.258 . S
C299 O311 1.256 . S
O300 La280 2.521 . S
O300 C282 1.261 . S
O301 La280 2.628 . S
O301 C282 1.243 . S
O302 La280 2.554 . S
O302 C289 1.240 . S
O303 La280 2.757 . S
O303 La281 2.482 . S
O303 C289 1.289 . S
O304 La280 2.470 . S
O304 C290 1.258 . S
O305 La281 2.503 . S
O305 C290 1.256 . S
O306 La281 2.521 . S
O306 C291 1.261 . S
O307 La281 2.628 . S
O307 C291 1.243 . S
O308 La281 2.554 . S
O308 C298 1.240 . S
O309 La280 2.482 . S
O309 La281 2.757 . S
O309 C298 1.289 . S
O310 La281 2.470 . S
O310 C299 1.258 . S
O311 La280 2.503 . S
O311 C299 1.256 . S
H312 C284 0.930 . S
H313 C285 0.930 . S
H314 C287 0.929 . S
H315 C288 0.929 . S
H316 C293 0.930 . S
H317 C294 0.930 . S
H318 C296 0.929 . S
H319 C297 0.929 . S
H320 C328 0.929 . S
H321 C330 0.930 . S
H322 C332 0.930 . S
H323 C335 0.929 . S
H324 C338 0.930 . S
H325 C340 0.960 . S
H326 C340 0.960 . S
H327 C340 0.960 . S
C328 H320 0.929 . S
C328 C329 1.377 1_556 S
C328 C330 1.384 . S
C329 C328 1.377 1_554 S
C329 C335 1.390 . S
C330 H321 0.930 . S
C330 C328 1.384 . S
C330 C331 1.372 1_556 S
C331 C330 1.372 1_554 S
C331 C332 1.400 . S
C331 C336 1.490 . S
C332 H322 0.930 . S
C332 C331 1.400 . S
C332 C335 1.386 . S
H333 C349 0.930 . S
H334 C350 0.931 . S
C335 H323 0.929 . S
C335 C329 1.390 . S
C335 C332 1.386 . S
C336 C331 1.490 . S
C336 C338 1.395 1_554 S
C336 C339 1.403 . S
H337 C343 0.930 . S
C338 H324 0.930 . S
C338 C336 1.395 1_556 S
C338 C341 1.403 . S
C339 C336 1.403 . S
C339 C340 1.524 . S
C339 C343 1.400 . S
C340 H325 0.960 . S
C340 H326 0.960 . S
C340 H327 0.960 . S
C340 C339 1.524 . S
C341 C338 1.403 . S
C341 C342 1.392 1_556 S
C341 C345 1.495 . S
C342 C341 1.392 1_554 S
C342 C343 1.385 . S
C342 C344 1.478 . S
C343 H337 0.930 . S
C343 C339 1.400 . S
C343 C342 1.385 . S
C344 C342 1.478 . S
C344 C346 1.381 1_554 S
C344 C350 1.383 . S
C345 C341 1.495 . S
C345 H351 0.959 . S
C345 H352 0.961 . S
C345 H353 0.960 . S
C346 C344 1.381 1_556 S
C346 C347 1.394 . S
C346 H354 0.930 . S
C347 C346 1.394 . S
C347 C348 1.383 1_556 S
C347 H355 0.929 . S
C348 C347 1.383 1_554 S
C348 C349 1.377 . S
C349 H333 0.930 . S
C349 C348 1.377 . S
C349 C350 1.379 . S
C350 H334 0.931 . S
C350 C344 1.383 . S
C350 C349 1.379 . S
H351 C345 0.959 . S
H352 C345 0.961 . S
H353 C345 0.960 . S
H354 C346 0.930 . S
H355 C347 0.929 . S
H356 C364 0.929 . S
H357 C366 0.930 . S
H358 C368 0.930 . S
H359 C371 0.929 . S
H360 C374 0.930 . S
H361 C376 0.960 . S
H362 C376 0.960 1_554 S
H363 C376 0.960 . S
C364 H356 0.929 . S
C364 C365 1.377 . S
C364 C366 1.384 . S
C365 C364 1.377 . S
C365 C371 1.390 1_554 S
C366 H357 0.930 . S
C366 C364 1.384 . S
C366 C367 1.372 . S
C367 C366 1.372 . S
C367 C368 1.400 1_554 S
C367 C372 1.490 . S
C368 H358 0.930 . S
C368 C367 1.400 1_556 S
C368 C371 1.386 . S
H369 C385 0.930 . S
H370 C386 0.931 . S
C371 H359 0.929 . S
C371 C365 1.390 1_556 S
C371 C368 1.386 . S
C372 C367 1.490 . S
C372 C374 1.395 . S
C372 C375 1.403 . S
H373 C379 0.940 . S
C374 H360 0.930 . S
C374 C372 1.395 . S
C374 C377 1.403 . S
C375 C372 1.403 . S
C375 C376 1.524 1_554 S
C375 C379 1.400 . S
C376 H361 0.960 . S
C376 H362 0.960 1_556 S
C376 H363 0.960 . S
C376 C375 1.524 1_556 S
C377 C374 1.403 . S
C377 C378 1.392 . S
C377 C381 1.495 . S
C378 C377 1.392 . S
C378 C379 1.385 . S
C378 C380 1.478 . S
C379 H373 0.940 . S
C379 C375 1.400 . S
C379 C378 1.385 . S
C380 C378 1.478 . S
C380 C382 1.381 . S
C380 C386 1.383 1_554 S
C381 C377 1.495 . S
C381 H387 0.959 . S
C381 H388 0.961 . S
C381 H389 0.960 . S
C382 C380 1.381 . S
C382 C383 1.394 . S
C382 H390 0.930 . S
C383 C382 1.394 . S
C383 C384 1.383 . S
C383 H391 0.929 . S
C384 C383 1.383 . S
C384 C385 1.377 1_554 S
C385 H369 0.930 . S
C385 C384 1.377 1_556 S
C385 C386 1.379 . S
C386 H370 0.931 . S
C386 C380 1.383 1_556 S
C386 C385 1.379 . S
H387 C381 0.959 . S
H388 C381 0.961 . S
H389 C381 0.960 . S
H390 C382 0.930 . S
H391 C383 0.929 . S
H392 C400 0.929 . S
H393 C402 0.930 . S
H394 C404 0.930 . S
H395 C407 0.929 . S
H396 C410 0.930 . S
H397 C412 0.960 . S
H398 C412 0.960 . S
H399 C412 0.960 . S
C400 H392 0.929 . S
C400 C401 1.377 . S
C400 C402 1.384 . S
C401 C400 1.377 . S
C401 C407 1.390 . S
C402 H393 0.930 . S
C402 C400 1.384 . S
C402 C403 1.372 . S
C403 C402 1.372 . S
C403 C404 1.400 . S
C403 C408 1.490 . S
C404 H394 0.930 . S
C404 C403 1.400 . S
C404 C407 1.386 . S
H405 C421 0.930 . S
H406 C422 0.931 . S
C407 H395 0.929 . S
C407 C401 1.390 . S
C407 C404 1.386 . S
C408 C403 1.490 . S
C408 C410 1.395 . S
C408 C411 1.403 . S
H409 C415 0.930 . S
C410 H396 0.930 . S
C410 C408 1.395 . S
C410 C413 1.403 . S
C411 C408 1.403 . S
C411 C412 1.524 . S
C411 C415 1.400 . S
C412 H397 0.960 . S
C412 H398 0.960 . S
C412 H399 0.960 . S
C412 C411 1.524 . S
C413 C410 1.403 . S
C413 C414 1.392 . S
C413 C417 1.495 . S
C414 C413 1.392 . S
C414 C415 1.385 . S
C414 C416 1.478 . S
C415 H409 0.930 . S
C415 C411 1.400 . S
C415 C414 1.385 . S
C416 C414 1.478 . S
C416 C418 1.381 . S
C416 C422 1.383 . S
C417 C413 1.495 . S
C417 H423 0.959 . S
C417 H424 0.961 . S
C417 H425 0.960 . S
C418 C416 1.381 . S
C418 C419 1.394 . S
C418 H426 0.930 . S
C419 C418 1.394 . S
C419 C420 1.383 . S
C419 H427 0.929 . S
C420 C419 1.383 . S
C420 C421 1.377 . S
C421 H405 0.930 . S
C421 C420 1.377 . S
C421 C422 1.379 . S
C422 H406 0.931 . S
C422 C416 1.383 . S
C422 C421 1.379 . S
H423 C417 0.959 . S
H424 C417 0.961 . S
H425 C417 0.960 . S
H426 C418 0.930 . S
H427 C419 0.929 . S
H428 C436 0.929 . S
H429 C438 0.930 . S
H430 C440 0.930 . S
H431 C443 0.929 . S
H432 C446 0.930 . S
H433 C448 0.960 . S
H434 C448 0.960 . S
H435 C448 0.960 . S
C436 H428 0.929 . S
C436 C437 1.377 . S
C436 C438 1.384 . S
C437 C436 1.377 . S
C437 C443 1.390 . S
C438 H429 0.930 . S
C438 C436 1.384 . S
C438 C439 1.372 . S
C439 C438 1.372 . S
C439 C440 1.400 . S
C439 C444 1.490 . S
C440 H430 0.930 . S
C440 C439 1.400 . S
C440 C443 1.386 . S
H441 C457 0.930 . S
H442 C458 0.931 . S
C443 H431 0.929 . S
C443 C437 1.390 . S
C443 C440 1.386 . S
C444 C439 1.490 . S
C444 C446 1.395 . S
C444 C447 1.403 . S
H445 C451 0.930 . S
C446 H432 0.930 . S
C446 C444 1.395 . S
C446 C449 1.403 . S
C447 C444 1.403 . S
C447 C448 1.524 . S
C447 C451 1.400 . S
C448 H433 0.960 . S
C448 H434 0.960 . S
C448 H435 0.960 . S
C448 C447 1.524 . S
C449 C446 1.403 . S
C449 C450 1.392 . S
C449 C453 1.495 . S
C450 C449 1.392 . S
C450 C451 1.385 . S
C450 C452 1.478 . S
C451 H445 0.930 . S
C451 C447 1.400 . S
C451 C450 1.385 . S
C452 C450 1.478 . S
C452 C454 1.381 . S
C452 C458 1.383 . S
C453 C449 1.495 . S
C453 H459 0.959 . S
C453 H460 0.961 . S
C453 H461 0.960 . S
C454 C452 1.381 . S
C454 C455 1.394 . S
C454 H462 0.930 . S
C455 C454 1.394 . S
C455 C456 1.383 . S
C455 H463 0.929 . S
C456 C455 1.383 . S
C456 C457 1.377 . S
C457 H441 0.930 . S
C457 C456 1.377 . S
C457 C458 1.379 . S
C458 H442 0.931 . S
C458 C452 1.383 . S
C458 C457 1.379 . S
H459 C453 0.959 . S
H460 C453 0.961 . S
H461 C453 0.960 . S
H462 C454 0.930 . S
H463 C455 0.929 . S
H464 C472 0.929 . S
H465 C474 0.930 . S
H466 C476 0.930 . S
H467 C479 0.929 . S
H468 C482 0.930 1_655 S
H469 C484 0.960 . S
H470 C484 0.960 1_656 S
H471 C484 0.960 1_655 S
C472 H464 0.929 . S
C472 C473 1.377 1_556 S
C472 C474 1.384 . S
C473 C472 1.377 1_554 S
C473 C479 1.390 . S
C474 H465 0.930 . S
C474 C472 1.384 . S
C474 C475 1.372 1_556 S
C475 C474 1.372 1_554 S
C475 C476 1.400 . S
C475 C480 1.490 . S
C476 H466 0.930 . S
C476 C475 1.400 . S
C476 C479 1.386 . S
H477 C493 0.930 . S
H478 C494 0.931 . S
C479 H467 0.929 . S
C479 C473 1.390 . S
C479 C476 1.386 . S
C480 C475 1.490 . S
C480 C482 1.395 1_655 S
C480 C483 1.403 1_655 S
H481 C487 0.930 . S
C482 H468 0.930 1_455 S
C482 C480 1.395 1_455 S
C482 C485 1.403 . S
C483 C480 1.403 1_455 S
C483 C484 1.524 . S
C483 C487 1.400 . S
C484 H469 0.960 . S
C484 H470 0.960 1_454 S
C484 H471 0.960 1_455 S
C484 C483 1.524 . S
C485 C482 1.403 . S
C485 C486 1.392 . S
C485 C489 1.495 . S
C486 C485 1.392 . S
C486 C487 1.385 . S
C486 C488 1.478 . S
C487 H481 0.930 . S
C487 C483 1.400 . S
C487 C486 1.385 . S
C488 C486 1.478 . S
C488 C490 1.381 1_554 S
C488 C494 1.383 . S
C489 C485 1.495 . S
C489 H495 0.959 . S
C489 H496 0.961 . S
C489 H497 0.960 . S
C490 C488 1.381 1_556 S
C490 C491 1.394 . S
C490 H498 0.930 . S
C491 C490 1.394 . S
C491 C492 1.383 1_556 S
C491 H499 0.929 . S
C492 C491 1.383 1_554 S
C492 C493 1.377 . S
C493 H477 0.930 . S
C493 C492 1.377 . S
C493 C494 1.379 . S
C494 H478 0.931 . S
C494 C488 1.383 . S
C494 C493 1.379 . S
H495 C489 0.959 . S
H496 C489 0.961 . S
H497 C489 0.960 . S
H498 C490 0.930 . S
H499 C491 0.929 . S
H500 C508 0.929 . S
H501 C510 0.930 . S
H502 C512 0.930 . S
H503 C515 0.929 . S
H504 C518 0.930 . S
H505 C520 0.960 1_655 S
H506 C520 0.960 . S
H507 C520 0.960 . S
C508 H500 0.929 . S
C508 C509 1.377 . S
C508 C510 1.384 . S
C509 C508 1.377 . S
C509 C515 1.390 1_554 S
C510 H501 0.930 . S
C510 C508 1.384 . S
C510 C511 1.372 . S
C511 C510 1.372 . S
C511 C512 1.400 1_554 S
C511 C516 1.490 . S
C512 H502 0.930 . S
C512 C511 1.400 1_556 S
C512 C515 1.386 . S
H513 C529 0.930 . S
H514 C530 0.913 1_556 S
C515 H503 0.929 . S
C515 C509 1.390 1_556 S
C515 C512 1.386 . S
C516 C511 1.490 . S
C516 C518 1.395 1_455 S
C516 C519 1.403 1_454 S
H517 C523 0.930 . S
C518 H504 0.930 . S
C518 C516 1.395 1_655 S
C518 C521 1.403 . S
C519 C516 1.403 1_656 S
C519 C520 1.524 1_655 S
C519 C523 1.400 . S
C520 H505 0.960 1_455 S
C520 H506 0.960 . S
C520 H507 0.960 . S
C520 C519 1.524 1_455 S
C521 C518 1.403 . S
C521 C522 1.392 . S
C521 C525 1.495 . S
C522 C521 1.392 . S
C522 C523 1.385 1_554 S
C522 C524 1.478 . S
C523 H517 0.930 . S
C523 C519 1.400 . S
C523 C522 1.385 1_556 S
C524 C522 1.478 . S
C524 C526 1.381 . S
C524 C530 1.405 . S
C525 C521 1.495 . S
C525 H531 0.959 . S
C525 H532 0.961 . S
C525 H533 0.960 . S
C526 C524 1.381 . S
C526 C527 1.394 . S
C526 H534 0.930 . S
C527 C526 1.394 . S
C527 C528 1.383 . S
C527 H535 0.929 . S
C528 C527 1.383 . S
C528 C529 1.377 1_554 S
C529 H513 0.930 . S
C529 C528 1.377 1_556 S
C529 C530 1.375 1_556 S
C530 H514 0.913 1_554 S
C530 C524 1.405 . S
C530 C529 1.375 1_554 S
H531 C525 0.959 . S
H532 C525 0.961 . S
H533 C525 0.960 . S
H534 C526 0.930 . S
H535 C527 0.929 . S
H536 C544 0.929 . S
H537 C546 0.930 . S
H538 C548 0.930 . S
H539 C551 0.929 . S
H540 C554 0.930 . S
H541 C556 0.960 . S
H542 C556 0.960 . S
H543 C556 0.960 . S
C544 H536 0.929 . S
C544 C545 1.377 . S
C544 C546 1.384 . S
C545 C544 1.377 . S
C545 C551 1.390 . S
C546 H537 0.930 . S
C546 C544 1.384 . S
C546 C547 1.372 . S
C547 C546 1.372 . S
C547 C548 1.400 . S
C547 C552 1.490 . S
C548 H538 0.930 . S
C548 C547 1.400 . S
C548 C551 1.386 . S
H549 C565 0.930 . S
H550 C566 0.931 . S
C551 H539 0.929 . S
C551 C545 1.390 . S
C551 C548 1.386 . S
C552 C547 1.490 . S
C552 C554 1.395 . S
C552 C555 1.403 . S
H553 C559 0.924 1_655 S
C554 H540 0.930 . S
C554 C552 1.395 . S
C554 C557 1.403 . S
C555 C552 1.403 . S
C555 C556 1.524 . S
C555 C559 1.400 . S
C556 H541 0.960 . S
C556 H542 0.960 . S
C556 H543 0.960 . S
C556 C555 1.524 . S
C557 C554 1.403 . S
C557 C558 1.392 1_455 S
C557 C561 1.495 . S
C558 C557 1.392 1_655 S
C558 C559 1.385 1_655 S
C558 C560 1.478 . S
C559 H553 0.924 1_455 S
C559 C555 1.400 . S
C559 C558 1.385 1_455 S
C560 C558 1.478 . S
C560 C562 1.381 . S
C560 C566 1.383 . S
C561 C557 1.495 . S
C561 H567 0.959 . S
C561 H568 0.961 1_455 S
C561 H569 0.960 1_455 S
C562 C560 1.381 . S
C562 C563 1.394 . S
C562 H570 0.930 . S
C563 C562 1.394 . S
C563 C564 1.383 . S
C563 H571 0.929 . S
C564 C563 1.383 . S
C564 C565 1.377 . S
C565 H549 0.930 . S
C565 C564 1.377 . S
C565 C566 1.379 . S
C566 H550 0.931 . S
C566 C560 1.383 . S
C566 C565 1.379 . S
H567 C561 0.959 . S
H568 C561 0.961 1_655 S
H569 C561 0.960 1_655 S
H570 C562 0.930 . S
H571 C563 0.929 . S
H572 C580 0.929 . S
H573 C582 0.930 . S
H574 C584 0.930 . S
H575 C587 0.929 . S
H576 C590 0.930 . S
H577 C592 0.960 . S
H578 C592 0.960 . S
H579 C592 0.960 . S
C580 H572 0.929 . S
C580 C581 1.377 . S
C580 C582 1.384 . S
C581 C580 1.377 . S
C581 C587 1.390 . S
C582 H573 0.930 . S
C582 C580 1.384 . S
C582 C583 1.372 . S
C583 C582 1.372 . S
C583 C584 1.400 . S
C583 C588 1.490 . S
C584 H574 0.930 . S
C584 C583 1.400 . S
C584 C587 1.386 . S
H585 C601 0.930 . S
H586 C602 0.931 . S
C587 H575 0.929 . S
C587 C581 1.390 . S
C587 C584 1.386 . S
C588 C583 1.490 . S
C588 C590 1.395 . S
C588 C591 1.403 . S
H589 C595 0.930 1_455 S
C590 H576 0.930 . S
C590 C588 1.395 . S
C590 C593 1.403 . S
C591 C588 1.403 . S
C591 C592 1.524 . S
C591 C595 1.400 . S
C592 H577 0.960 . S
C592 H578 0.960 . S
C592 H579 0.960 . S
C592 C591 1.524 . S
C593 C590 1.403 . S
C593 C594 1.392 1_655 S
C593 C597 1.495 . S
C594 C593 1.392 1_455 S
C594 C595 1.385 1_455 S
C594 C596 1.478 . S
C595 H589 0.930 1_655 S
C595 C591 1.400 . S
C595 C594 1.385 1_655 S
C596 C594 1.478 . S
C596 C598 1.381 . S
C596 C602 1.383 . S
C597 C593 1.495 . S
C597 H603 0.959 . S
C597 H604 0.961 1_655 S
C597 H605 0.960 1_655 S
C598 C596 1.381 . S
C598 C599 1.394 . S
C598 H606 0.930 . S
C599 C598 1.394 . S
C599 C600 1.383 . S
C599 H607 0.929 . S
C600 C599 1.383 . S
C600 C601 1.377 . S
C601 H585 0.930 . S
C601 C600 1.377 . S
C601 C602 1.379 . S
C602 H586 0.931 . S
C602 C596 1.383 . S
C602 C601 1.379 . S
H603 C597 0.959 . S
H604 C597 0.961 1_455 S
H605 C597 0.960 1_455 S
H606 C598 0.930 . S
H607 C599 0.929 . S
H608 C616 0.929 . S
H609 C618 0.930 . S
H610 C620 0.930 1_655 S
H611 C623 0.929 1_655 S
H612 C626 0.930 . S
H613 C628 0.960 . S
H614 C628 0.960 1_455 S
H615 C628 0.960 . S
C616 H608 0.929 . S
C616 C617 1.377 . S
C616 C618 1.384 . S
C617 C616 1.377 . S
C617 C623 1.390 . S
C618 H609 0.930 . S
C618 C616 1.384 . S
C618 C619 1.372 . S
C619 C618 1.372 . S
C619 C620 1.400 . S
C619 C624 1.490 . S
C620 H610 0.930 1_455 S
C620 C619 1.400 . S
C620 C623 1.386 . S
H621 C637 0.930 . S
H622 C638 0.931 . S
C623 H611 0.929 1_455 S
C623 C617 1.390 . S
C623 C620 1.386 . S
C624 C619 1.490 . S
C624 C626 1.395 . S
C624 C627 1.403 1_454 S
H625 C631 0.930 . S
C626 H612 0.930 . S
C626 C624 1.395 . S
C626 C629 1.403 . S
C627 C624 1.403 1_656 S
C627 C628 1.524 . S
C627 C631 1.400 . S
C628 H613 0.960 . S
C628 H614 0.960 1_655 S
C628 H615 0.960 . S
C628 C627 1.524 . S
C629 C626 1.403 . S
C629 C630 1.392 1_455 S
C629 C633 1.495 . S
C630 C629 1.392 1_655 S
C630 C631 1.385 1_554 S
C630 C632 1.478 . S
C631 H625 0.930 . S
C631 C627 1.400 . S
C631 C630 1.385 1_556 S
C632 C630 1.478 . S
C632 C634 1.381 1_655 S
C632 C638 1.383 . S
C633 C629 1.495 . S
C633 H639 0.959 . S
C633 H640 0.961 1_455 S
C633 H641 0.960 . S
C634 C632 1.381 1_455 S
C634 C635 1.394 1_455 S
C634 H642 0.930 . S
C635 C634 1.394 1_655 S
C635 C636 1.383 . S
C635 H643 0.929 1_655 S
C636 C635 1.383 . S
C636 C637 1.377 . S
C637 H621 0.930 . S
C637 C636 1.377 . S
C637 C638 1.379 . S
C638 H622 0.931 . S
C638 C632 1.383 . S
C638 C637 1.379 . S
H639 C633 0.959 . S
H640 C633 0.961 1_655 S
H641 C633 0.960 . S
H642 C634 0.930 . S
H643 C635 0.929 1_455 S
H644 C652 0.929 . S
H645 C654 0.930 . S
H646 C656 0.930 . S
H647 C659 0.929 . S
H648 C662 0.930 . S
H649 C664 0.960 . S
H650 C664 0.960 . S
H651 C664 0.960 . S
C652 H644 0.929 . S
C652 C653 1.377 . S
C652 C654 1.384 . S
C653 C652 1.377 . S
C653 C659 1.390 . S
C654 H645 0.930 . S
C654 C652 1.384 . S
C654 C655 1.372 . S
C655 C654 1.372 . S
C655 C656 1.400 . S
C655 C660 1.490 . S
C656 H646 0.930 . S
C656 C655 1.400 . S
C656 C659 1.386 . S
H657 C673 0.930 . S
H658 C674 0.931 . S
C659 H647 0.929 . S
C659 C653 1.390 . S
C659 C656 1.386 . S
C660 C655 1.490 . S
C660 C662 1.395 . S
C660 C663 1.403 1_455 S
H661 C667 0.930 . S
C662 H648 0.930 . S
C662 C660 1.395 . S
C662 C665 1.403 . S
C663 C660 1.403 1_655 S
C663 C664 1.524 . S
C663 C667 1.400 . S
C664 H649 0.960 . S
C664 H650 0.960 . S
C664 H651 0.960 . S
C664 C663 1.524 . S
C665 C662 1.403 . S
C665 C666 1.392 1_455 S
C665 C669 1.495 . S
C666 C665 1.392 1_655 S
C666 C667 1.385 . S
C666 C668 1.478 . S
C667 H661 0.930 . S
C667 C663 1.400 . S
C667 C666 1.385 . S
C668 C666 1.478 . S
C668 C670 1.381 . S
C668 C674 1.383 . S
C669 C665 1.495 . S
C669 H675 0.959 . S
C669 H676 0.961 . S
C669 H677 0.960 . S
C670 C668 1.381 . S
C670 C671 1.394 . S
C670 H678 0.930 . S
C671 C670 1.394 . S
C671 C672 1.383 . S
C671 H679 0.929 . S
C672 C671 1.383 . S
C672 C673 1.377 . S
C673 H657 0.930 . S
C673 C672 1.377 . S
C673 C674 1.379 . S
C674 H658 0.931 . S
C674 C668 1.383 . S
C674 C673 1.379 . S
H675 C669 0.959 . S
H676 C669 0.961 . S
H677 C669 0.960 . S
H678 C670 0.930 . S
H679 C671 0.929 . S
H680 C688 0.929 . S
H681 C690 0.930 . S
H682 C692 0.930 . S
H683 C695 0.929 . S
H684 C698 0.930 . S
H685 C700 0.960 1_545 S
H686 C700 0.960 . S
H687 C700 0.960 . S
C688 H680 0.929 . S
C688 C689 1.377 . S
C688 C690 1.384 . S
C689 C688 1.377 . S
C689 C695 1.390 1_554 S
C690 H681 0.930 . S
C690 C688 1.384 . S
C690 C691 1.372 . S
C691 C690 1.372 . S
C691 C692 1.400 1_554 S
C691 C696 1.490 . S
C692 H682 0.930 . S
C692 C691 1.400 1_556 S
C692 C695 1.386 . S
H693 C709 0.930 . S
H694 C710 0.931 . S
C695 H683 0.929 . S
C695 C689 1.390 1_556 S
C695 C692 1.386 . S
C696 C691 1.490 . S
C696 C698 1.395 . S
C696 C699 1.403 . S
H697 C703 0.930 . S
C698 H684 0.930 . S
C698 C696 1.395 . S
C698 C701 1.403 1_565 S
C699 C696 1.403 . S
C699 C700 1.524 . S
C699 C703 1.400 1_565 S
C700 H685 0.960 1_565 S
C700 H686 0.960 . S
C700 H687 0.960 . S
C700 C699 1.524 . S
C701 C698 1.403 1_545 S
C701 C702 1.392 . S
C701 C705 1.495 . S
C702 C701 1.392 . S
C702 C703 1.385 . S
C702 C704 1.478 . S
C703 H697 0.930 . S
C703 C699 1.400 1_545 S
C703 C702 1.385 . S
C704 C702 1.478 . S
C704 C706 1.381 . S
C704 C710 1.383 1_554 S
C705 C701 1.495 . S
C705 H711 0.959 1_545 S
C705 H712 0.961 1_554 S
C705 H713 0.960 . S
C706 C704 1.381 . S
C706 C707 1.394 . S
C706 H714 0.930 . S
C707 C706 1.394 . S
C707 C708 1.383 . S
C707 H715 0.929 . S
C708 C707 1.383 . S
C708 C709 1.377 1_554 S
C709 H693 0.930 . S
C709 C708 1.377 1_556 S
C709 C710 1.379 . S
C710 H694 0.931 . S
C710 C704 1.383 1_556 S
C710 C709 1.379 . S
H711 C705 0.959 1_565 S
H712 C705 0.961 1_556 S
H713 C705 0.960 . S
H714 C706 0.930 . S
H715 C707 0.929 . S
H716 C724 0.929 . S
H717 C726 0.930 . S
H718 C728 0.930 . S
H719 C731 0.929 . S
H720 C734 0.930 . S
H721 C736 0.960 1_565 S
H722 C736 0.960 . S
H723 C736 0.960 . S
C724 H716 0.929 . S
C724 C725 1.377 . S
C724 C726 1.384 . S
C725 C724 1.377 . S
C725 C731 1.390 . S
C726 H717 0.930 . S
C726 C724 1.384 . S
C726 C727 1.372 . S
C727 C726 1.372 . S
C727 C728 1.400 . S
C727 C732 1.490 . S
C728 H718 0.930 . S
C728 C727 1.400 . S
C728 C731 1.386 . S
H729 C745 0.930 . S
H730 C746 0.931 . S
C731 H719 0.929 . S
C731 C725 1.390 . S
C731 C728 1.386 . S
C732 C727 1.490 . S
C732 C734 1.395 . S
C732 C735 1.403 . S
H733 C739 0.930 . S
C734 H720 0.930 . S
C734 C732 1.395 . S
C734 C737 1.403 1_545 S
C735 C732 1.403 . S
C735 C736 1.524 . S
C735 C739 1.400 1_545 S
C736 H721 0.960 1_545 S
C736 H722 0.960 . S
C736 H723 0.960 . S
C736 C735 1.524 . S
C737 C734 1.403 1_565 S
C737 C738 1.392 . S
C737 C741 1.495 . S
C738 C737 1.392 . S
C738 C739 1.385 . S
C738 C740 1.478 . S
C739 H733 0.930 . S
C739 C735 1.400 1_565 S
C739 C738 1.385 . S
C740 C738 1.478 . S
C740 C742 1.381 . S
C740 C746 1.383 . S
C741 C737 1.495 . S
C741 H747 0.959 1_565 S
C741 H748 0.961 . S
C741 H749 0.960 . S
C742 C740 1.381 . S
C742 C743 1.394 . S
C742 H750 0.930 . S
C743 C742 1.394 . S
C743 C744 1.383 . S
C743 H751 0.929 . S
C744 C743 1.383 . S
C744 C745 1.377 . S
C745 H729 0.930 . S
C745 C744 1.377 . S
C745 C746 1.379 . S
C746 H730 0.931 . S
C746 C740 1.383 . S
C746 C745 1.379 . S
H747 C741 0.959 1_545 S
H748 C741 0.961 . S
H749 C741 0.960 . S
H750 C742 0.930 . S
H751 C743 0.929 . S
H752 C760 0.929 . S
H753 C762 0.930 . S
H754 C764 0.930 . S
H755 C767 0.929 . S
H756 C770 0.930 . S
H757 C772 0.966 . S
H758 C772 0.960 . S
H759 C772 0.960 1_556 S
C760 H752 0.929 . S
C760 C761 1.377 . S
C760 C762 1.384 . S
C761 C760 1.377 . S
C761 C767 1.390 1_554 S
C762 H753 0.930 . S
C762 C760 1.384 . S
C762 C763 1.372 . S
C763 C762 1.372 . S
C763 C764 1.400 1_554 S
C763 C768 1.490 . S
C764 H754 0.930 . S
C764 C763 1.400 1_556 S
C764 C767 1.386 . S
H765 C781 0.930 . S
H766 C782 0.931 . S
C767 H755 0.929 . S
C767 C761 1.390 1_556 S
C767 C764 1.386 . S
C768 C763 1.490 . S
C768 C770 1.395 . S
C768 C771 1.403 . S
H769 C775 0.930 . S
C770 H756 0.930 . S
C770 C768 1.395 . S
C770 C773 1.403 . S
C771 C768 1.403 . S
C771 C772 1.524 . S
C771 C775 1.400 . S
C772 H757 0.966 . S
C772 H758 0.960 . S
C772 H759 0.960 1_554 S
C772 C771 1.524 . S
C773 C770 1.403 . S
C773 C774 1.392 . S
C773 C777 1.495 . S
C774 C773 1.392 . S
C774 C775 1.385 . S
C774 C776 1.478 . S
C775 H769 0.930 . S
C775 C771 1.400 . S
C775 C774 1.385 . S
C776 C774 1.478 . S
C776 C778 1.381 . S
C776 C782 1.383 1_554 S
C777 C773 1.495 . S
C777 H783 0.959 . S
C777 H784 0.961 . S
C777 H785 0.960 . S
C778 C776 1.381 . S
C778 C779 1.394 . S
C778 H786 0.930 . S
C779 C778 1.394 . S
C779 C780 1.383 . S
C779 H787 0.929 . S
C780 C779 1.383 . S
C780 C781 1.377 1_554 S
C781 H765 0.930 . S
C781 C780 1.377 1_556 S
C781 C782 1.379 . S
C782 H766 0.931 . S
C782 C776 1.383 1_556 S
C782 C781 1.379 . S
H783 C777 0.959 . S
H784 C777 0.961 . S
H785 C777 0.960 . S
H786 C778 0.930 . S
H787 C779 0.929 . S
H788 C796 0.929 . S
H789 C798 0.930 . S
H790 C800 0.930 . S
H791 C803 0.929 . S
H792 C806 0.930 . S
H793 C808 0.960 . S
H794 C808 0.960 . S
H795 C808 0.960 . S
C796 H788 0.929 . S
C796 C797 1.377 . S
C796 C798 1.384 . S
C797 C796 1.377 . S
C797 C803 1.390 1_554 S
C798 H789 0.930 . S
C798 C796 1.384 . S
C798 C799 1.372 . S
C799 C798 1.372 . S
C799 C800 1.400 1_554 S
C799 C804 1.490 . S
C800 H790 0.930 . S
C800 C799 1.400 1_556 S
C800 C803 1.386 . S
H801 C817 0.930 . S
H802 C818 0.931 . S
C803 H791 0.929 . S
C803 C797 1.390 1_556 S
C803 C800 1.386 . S
C804 C799 1.490 . S
C804 C806 1.395 . S
C804 C807 1.403 1_554 S
H805 C811 0.930 . S
C806 H792 0.930 . S
C806 C804 1.395 . S
C806 C809 1.403 . S
C807 C804 1.403 1_556 S
C807 C808 1.524 . S
C807 C811 1.400 . S
C808 H793 0.960 . S
C808 H794 0.960 . S
C808 H795 0.960 . S
C808 C807 1.524 . S
C809 C806 1.403 . S
C809 C810 1.392 . S
C809 C813 1.495 . S
C810 C809 1.392 . S
C810 C811 1.385 1_554 S
C810 C812 1.478 . S
C811 H805 0.930 . S
C811 C807 1.400 . S
C811 C810 1.385 1_556 S
C812 C810 1.478 . S
C812 C814 1.381 . S
C812 C818 1.383 1_554 S
C813 C809 1.495 . S
C813 H819 0.959 . S
C813 H820 0.961 . S
C813 H821 0.960 . S
C814 C812 1.381 . S
C814 C815 1.394 . S
C814 H822 0.930 . S
C815 C814 1.394 . S
C815 C816 1.383 . S
C815 H823 0.929 . S
C816 C815 1.383 . S
C816 C817 1.377 1_554 S
C817 H801 0.930 . S
C817 C816 1.377 1_556 S
C817 C818 1.379 . S
C818 H802 0.931 . S
C818 C812 1.383 1_556 S
C818 C817 1.379 . S
H819 C813 0.959 . S
H820 C813 0.961 . S
H821 C813 0.960 . S
H822 C814 0.930 . S
H823 C815 0.929 . S
H824 C832 0.929 . S
H825 C834 0.930 . S
H826 C836 0.930 . S
H827 C839 0.929 . S
H828 C842 0.930 . S
H829 C844 0.960 . S
H830 C844 0.960 . S
H831 C844 0.960 . S
C832 H824 0.929 . S
C832 C833 1.377 . S
C832 C834 1.384 . S
C833 C832 1.377 . S
C833 C839 1.390 . S
C834 H825 0.930 . S
C834 C832 1.384 . S
C834 C835 1.372 . S
C835 C834 1.372 . S
C835 C836 1.400 . S
C835 C840 1.490 . S
C836 H826 0.930 . S
C836 C835 1.400 . S
C836 C839 1.386 . S
H837 C853 0.930 . S
H838 C854 0.931 . S
C839 H827 0.929 . S
C839 C833 1.390 . S
C839 C836 1.386 . S
C840 C835 1.490 . S
C840 C842 1.395 . S
C840 C843 1.403 . S
H841 C847 0.930 . S
C842 H828 0.930 . S
C842 C840 1.395 . S
C842 C845 1.403 . S
C843 C840 1.403 . S
C843 C844 1.524 . S
C843 C847 1.400 . S
C844 H829 0.960 . S
C844 H830 0.960 . S
C844 H831 0.960 . S
C844 C843 1.524 . S
C845 C842 1.403 . S
C845 C846 1.392 . S
C845 C849 1.495 . S
C846 C845 1.392 . S
C846 C847 1.385 . S
C846 C848 1.478 . S
C847 H841 0.930 . S
C847 C843 1.400 . S
C847 C846 1.385 . S
C848 C846 1.478 . S
C848 C850 1.381 . S
C848 C854 1.383 . S
C849 C845 1.495 . S
C849 H855 0.959 . S
C849 H856 0.961 . S
C849 H857 0.960 . S
C850 C848 1.381 . S
C850 C851 1.394 . S
C850 H858 0.930 . S
C851 C850 1.394 . S
C851 C852 1.383 . S
C851 H859 0.929 . S
C852 C851 1.383 . S
C852 C853 1.377 . S
C853 H837 0.930 . S
C853 C852 1.377 . S
C853 C854 1.379 . S
C854 H838 0.931 . S
C854 C848 1.383 . S
C854 C853 1.379 . S
H855 C849 0.959 . S
H856 C849 0.961 . S
H857 C849 0.960 . S
H858 C850 0.930 . S
H859 C851 0.929 . S
H860 C868 0.929 . S
H861 C870 0.930 . S
H862 C872 0.930 . S
H863 C875 0.929 . S
H864 C878 0.930 . S
H865 C880 0.960 . S
H866 C880 0.960 . S
H867 C880 0.960 . S
C868 H860 0.929 . S
C868 C869 1.377 . S
C868 C870 1.384 . S
C869 C868 1.377 . S
C869 C875 1.390 . S
C870 H861 0.930 . S
C870 C868 1.384 . S
C870 C871 1.372 . S
C871 C870 1.372 . S
C871 C872 1.400 . S
C871 C876 1.490 . S
C872 H862 0.930 . S
C872 C871 1.400 . S
C872 C875 1.386 . S
H873 C889 0.930 . S
H874 C890 0.931 . S
C875 H863 0.929 . S
C875 C869 1.390 . S
C875 C872 1.386 . S
C876 C871 1.490 . S
C876 C878 1.395 . S
C876 C879 1.403 . S
H877 C883 0.930 . S
C878 H864 0.930 . S
C878 C876 1.395 . S
C878 C881 1.403 . S
C879 C876 1.403 . S
C879 C880 1.524 . S
C879 C883 1.400 . S
C880 H865 0.960 . S
C880 H866 0.960 . S
C880 H867 0.960 . S
C880 C879 1.524 . S
C881 C878 1.403 . S
C881 C882 1.392 . S
C881 C885 1.495 . S
C882 C881 1.392 . S
C882 C883 1.385 . S
C882 C884 1.478 . S
C883 H877 0.930 . S
C883 C879 1.400 . S
C883 C882 1.385 . S
C884 C882 1.478 . S
C884 C886 1.381 . S
C884 C890 1.383 . S
C885 C881 1.495 . S
C885 H891 0.959 . S
C885 H892 0.961 . S
C885 H893 0.960 . S
C886 C884 1.381 . S
C886 C887 1.394 . S
C886 H894 0.930 . S
C887 C886 1.394 . S
C887 C888 1.383 . S
C887 H895 0.929 . S
C888 C887 1.383 . S
C888 C889 1.377 . S
C889 H873 0.930 . S
C889 C888 1.377 . S
C889 C890 1.379 . S
C890 H874 0.931 . S
C890 C884 1.383 . S
C890 C889 1.379 . S
H891 C885 0.959 . S
H892 C885 0.961 . S
H893 C885 0.960 . S
H894 C886 0.930 . S
H895 C887 0.929 . S
H896 C904 0.929 . S
H897 C906 0.930 1_655 S
H898 C908 0.930 . S
H899 C911 0.929 . S
H900 C914 0.930 . S
H901 C916 0.960 . S
H902 C916 0.960 . S
H903 C916 0.960 . S
C904 H896 0.929 . S
C904 C905 1.377 . S
C904 C906 1.384 . S
C905 C904 1.377 . S
C905 C911 1.390 . S
C906 H897 0.930 1_455 S
C906 C904 1.384 . S
C906 C907 1.372 . S
C907 C906 1.372 . S
C907 C908 1.400 . S
C907 C912 1.490 . S
C908 H898 0.930 . S
C908 C907 1.400 . S
C908 C911 1.386 . S
H909 C925 0.930 1_455 S
H910 C926 0.931 . S
C911 H899 0.929 . S
C911 C905 1.390 . S
C911 C908 1.386 . S
C912 C907 1.490 . S
C912 C914 1.395 . S
C912 C915 1.403 1_455 S
H913 C919 0.930 . S
C914 H900 0.930 . S
C914 C912 1.395 . S
C914 C917 1.403 . S
C915 C912 1.403 1_655 S
C915 C916 1.524 . S
C915 C919 1.400 . S
C916 H901 0.960 . S
C916 H902 0.960 . S
C916 H903 0.960 . S
C916 C915 1.524 . S
C917 C914 1.403 . S
C917 C918 1.392 1_455 S
C917 C921 1.495 . S
C918 C917 1.392 1_655 S
C918 C919 1.385 . S
C918 C920 1.478 . S
C919 H913 0.930 . S
C919 C915 1.400 . S
C919 C918 1.385 . S
C920 C918 1.478 . S
C920 C922 1.381 . S
C920 C926 1.383 1_655 S
C921 C917 1.495 . S
C921 H927 0.959 . S
C921 H928 0.961 . S
C921 H929 0.960 . S
C922 C920 1.381 . S
C922 C923 1.394 . S
C922 H930 0.930 . S
C923 C922 1.394 . S
C923 C924 1.383 . S
C923 H931 0.929 . S
C924 C923 1.383 . S
C924 C925 1.377 . S
C925 H909 0.930 1_655 S
C925 C924 1.377 . S
C925 C926 1.379 1_655 S
C926 H910 0.931 . S
C926 C920 1.383 1_455 S
C926 C925 1.379 1_455 S
H927 C921 0.959 . S
H928 C921 0.961 . S
H929 C921 0.960 . S
H930 C922 0.930 . S
H931 C923 0.929 . S
H932 C940 0.929 . S
H933 C942 0.930 . S
H934 C944 0.930 1_455 S
H935 C947 0.929 1_455 S
H936 C950 0.930 . S
H937 C952 0.960 . S
H938 C952 0.960 . S
H939 C952 0.960 . S
C940 H932 0.929 . S
C940 C941 1.377 . S
C940 C942 1.384 . S
C941 C940 1.377 . S
C941 C947 1.390 . S
C942 H933 0.930 . S
C942 C940 1.384 . S
C942 C943 1.372 . S
C943 C942 1.372 . S
C943 C944 1.400 . S
C943 C948 1.490 . S
C944 H934 0.930 1_655 S
C944 C943 1.400 . S
C944 C947 1.386 . S
H945 C961 0.930 . S
H946 C962 0.931 . S
C947 H935 0.929 1_655 S
C947 C941 1.390 . S
C947 C944 1.386 . S
C948 C943 1.490 . S
C948 C950 1.395 . S
C948 C951 1.403 1_655 S
H949 C955 0.930 . S
C950 H936 0.930 . S
C950 C948 1.395 . S
C950 C953 1.403 . S
C951 C948 1.403 1_455 S
C951 C952 1.524 . S
C951 C955 1.400 . S
C952 H937 0.960 . S
C952 H938 0.960 . S
C952 H939 0.960 . S
C952 C951 1.524 . S
C953 C950 1.403 . S
C953 C954 1.392 1_655 S
C953 C957 1.495 . S
C954 C953 1.392 1_455 S
C954 C955 1.385 . S
C954 C956 1.478 . S
C955 H949 0.930 . S
C955 C951 1.400 . S
C955 C954 1.385 . S
C956 C954 1.478 . S
C956 C958 1.381 1_455 S
C956 C962 1.383 . S
C957 C953 1.495 . S
C957 H963 0.959 . S
C957 H964 0.961 . S
C957 H965 0.960 . S
C958 C956 1.381 1_655 S
C958 C959 1.394 1_655 S
C958 H966 0.930 . S
C959 C958 1.394 1_455 S
C959 C960 1.383 . S
C959 H967 0.929 . S
C960 C959 1.383 . S
C960 C961 1.377 . S
C961 H945 0.930 . S
C961 C960 1.377 . S
C961 C962 1.379 . S
C962 H946 0.931 . S
C962 C956 1.383 . S
C962 C961 1.379 . S
H963 C957 0.959 . S
H964 C957 0.961 . S
H965 C957 0.960 . S
H966 C958 0.930 . S
H967 C959 0.929 . S
H968 C976 0.929 . S
H969 C978 0.930 . S
H970 C980 0.926 1_455 S
H971 C983 0.929 1_455 S
H972 C986 0.930 . S
H973 C988 0.960 . S
H974 C988 0.960 . S
H975 C988 0.960 . S
C976 H968 0.929 . S
C976 C977 1.377 . S
C976 C978 1.384 . S
C977 C976 1.377 . S
C977 C983 1.390 . S
C978 H969 0.930 . S
C978 C976 1.384 . S
C978 C979 1.372 . S
C979 C978 1.372 . S
C979 C980 1.403 . S
C979 C984 1.490 . S
C980 H970 0.926 1_655 S
C980 C979 1.403 . S
C980 C983 1.386 . S
H981 C997 0.930 . S
H982 C998 0.931 . S
C983 H971 0.929 1_655 S
C983 C977 1.390 . S
C983 C980 1.386 . S
C984 C979 1.490 . S
C984 C986 1.395 . S
C984 C987 1.403 1_655 S
H985 C991 0.930 . S
C986 H972 0.930 . S
C986 C984 1.395 . S
C986 C989 1.403 . S
C987 C984 1.403 1_455 S
C987 C988 1.524 . S
C987 C991 1.400 . S
C988 H973 0.960 . S
C988 H974 0.960 . S
C988 H975 0.960 . S
C988 C987 1.524 . S
C989 C986 1.403 . S
C989 C990 1.384 1_655 S
C989 C993 1.495 . S
C990 C989 1.384 1_455 S
C990 C991 1.393 . S
C990 C992 1.479 . S
C991 H985 0.930 . S
C991 C987 1.400 . S
C991 C990 1.393 . S
C992 C990 1.479 . S
C992 C994 1.381 1_455 S
C992 C998 1.383 . S
C993 C989 1.495 . S
C993 H999 0.959 . S
C993 H1000 0.961 . S
C993 H1001 0.960 . S
C994 C992 1.381 1_655 S
C994 C995 1.394 1_655 S
C994 H1002 0.930 . S
C995 C994 1.394 1_455 S
C995 C996 1.383 . S
C995 H1003 0.929 . S
C996 C995 1.383 . S
C996 C997 1.377 . S
C997 H981 0.930 . S
C997 C996 1.377 . S
C997 C998 1.379 . S
C998 H982 0.931 . S
C998 C992 1.383 . S
C998 C997 1.379 . S
H999 C993 0.959 . S
H1000 C993 0.961 . S
H1001 C993 0.960 . S
H1002 C994 0.930 . S
H1003 C995 0.929 . S
H1004 C1012 0.929 . S
H1005 C1014 0.930 . S
H1006 C1016 0.930 . S
H1007 C1019 0.929 . S
H1008 C1022 0.930 . S
H1009 C1024 0.960 . S
H1010 C1024 0.960 . S
H1011 C1024 0.960 . S
C1012 H1004 0.929 . S
C1012 C1013 1.377 . S
C1012 C1014 1.384 . S
C1013 C1012 1.377 . S
C1013 C1019 1.390 . S
C1014 H1005 0.930 . S
C1014 C1012 1.384 . S
C1014 C1015 1.372 . S
C1015 C1014 1.372 . S
C1015 C1016 1.400 . S
C1015 C1020 1.490 . S
C1016 H1006 0.930 . S
C1016 C1015 1.400 . S
C1016 C1019 1.386 . S
H1017 C1033 0.930 . S
H1018 C1034 0.931 . S
C1019 H1007 0.929 . S
C1019 C1013 1.390 . S
C1019 C1016 1.386 . S
C1020 C1015 1.490 . S
C1020 C1022 1.395 1_655 S
C1020 C1023 1.403 . S
H1021 C1027 0.930 . S
C1022 H1008 0.930 . S
C1022 C1020 1.395 1_455 S
C1022 C1025 1.403 . S
C1023 C1020 1.403 . S
C1023 C1024 1.524 . S
C1023 C1027 1.400 . S
C1024 H1009 0.960 . S
C1024 H1010 0.960 . S
C1024 H1011 0.960 . S
C1024 C1023 1.524 . S
C1025 C1022 1.403 . S
C1025 C1026 1.392 . S
C1025 C1029 1.495 . S
C1026 C1025 1.392 . S
C1026 C1027 1.385 1_455 S
C1026 C1028 1.478 . S
C1027 H1021 0.930 . S
C1027 C1023 1.400 . S
C1027 C1026 1.385 1_655 S
C1028 C1026 1.478 . S
C1028 C1030 1.381 . S
C1028 C1034 1.383 . S
C1029 C1025 1.495 . S
C1029 H1035 0.959 . S
C1029 H1036 0.961 . S
C1029 H1037 0.960 . S
C1030 C1028 1.381 . S
C1030 C1031 1.394 . S
C1030 H1038 0.930 . S
C1031 C1030 1.394 . S
C1031 C1032 1.383 . S
C1031 H1039 0.929 . S
C1032 C1031 1.383 . S
C1032 C1033 1.377 . S
C1033 H1017 0.930 . S
C1033 C1032 1.377 . S
C1033 C1034 1.379 . S
C1034 H1018 0.931 . S
C1034 C1028 1.383 . S
C1034 C1033 1.379 . S
H1035 C1029 0.959 . S
H1036 C1029 0.961 . S
H1037 C1029 0.960 . S
H1038 C1030 0.930 . S
H1039 C1031 0.929 . S
H1040 C1048 0.929 . S
H1041 C1050 0.930 . S
H1042 C1052 0.930 . S
H1043 C1055 0.929 . S
H1044 C1058 0.930 . S
H1045 C1060 0.960 . S
H1046 C1060 0.960 . S
H1047 C1060 0.960 . S
C1048 H1040 0.929 . S
C1048 C1049 1.377 . S
C1048 C1050 1.384 . S
C1049 C1048 1.377 . S
C1049 C1055 1.390 . S
C1050 H1041 0.930 . S
C1050 C1048 1.384 . S
C1050 C1051 1.372 . S
C1051 C1050 1.372 . S
C1051 C1052 1.400 . S
C1051 C1056 1.490 . S
C1052 H1042 0.930 . S
C1052 C1051 1.400 . S
C1052 C1055 1.386 . S
H1053 C1069 0.930 . S
H1054 C1070 0.931 . S
C1055 H1043 0.929 . S
C1055 C1049 1.390 . S
C1055 C1052 1.386 . S
C1056 C1051 1.490 . S
C1056 C1058 1.395 . S
C1056 C1059 1.403 . S
H1057 C1063 0.930 . S
C1058 H1044 0.930 . S
C1058 C1056 1.395 . S
C1058 C1061 1.403 . S
C1059 C1056 1.403 . S
C1059 C1060 1.524 . S
C1059 C1063 1.400 . S
C1060 H1045 0.960 . S
C1060 H1046 0.960 . S
C1060 H1047 0.960 . S
C1060 C1059 1.524 . S
C1061 C1058 1.403 . S
C1061 C1062 1.392 . S
C1061 C1065 1.495 . S
C1062 C1061 1.392 . S
C1062 C1063 1.385 . S
C1062 C1064 1.478 . S
C1063 H1057 0.930 . S
C1063 C1059 1.400 . S
C1063 C1062 1.385 . S
C1064 C1062 1.478 . S
C1064 C1066 1.381 . S
C1064 C1070 1.383 . S
C1065 C1061 1.495 . S
C1065 H1071 0.959 . S
C1065 H1072 0.961 . S
C1065 H1073 0.960 . S
C1066 C1064 1.381 . S
C1066 C1067 1.394 . S
C1066 H1074 0.930 . S
C1067 C1066 1.394 . S
C1067 C1068 1.383 . S
C1067 H1075 0.929 . S
C1068 C1067 1.383 . S
C1068 C1069 1.377 . S
C1069 H1053 0.930 . S
C1069 C1068 1.377 . S
C1069 C1070 1.379 . S
C1070 H1054 0.931 . S
C1070 C1064 1.383 . S
C1070 C1069 1.379 . S
H1071 C1065 0.959 . S
H1072 C1065 0.961 . S
H1073 C1065 0.960 . S
H1074 C1066 0.930 . S
H1075 C1067 0.929 . S
H1076 C1084 0.929 . S
H1077 C1086 0.930 . S
H1078 C1088 0.930 . S
H1079 C1091 0.929 . S
H1080 C1094 0.930 . S
H1081 C1096 0.960 . S
H1082 C1096 0.960 . S
H1083 C1096 0.960 . S
C1084 H1076 0.929 . S
C1084 C1085 1.377 . S
C1084 C1086 1.384 . S
C1085 C1084 1.377 . S
C1085 C1091 1.390 . S
C1086 H1077 0.930 . S
C1086 C1084 1.384 . S
C1086 C1087 1.372 . S
C1087 C1086 1.372 . S
C1087 C1088 1.400 . S
C1087 C1092 1.490 . S
C1088 H1078 0.930 . S
C1088 C1087 1.400 . S
C1088 C1091 1.386 . S
H1089 C1105 0.930 . S
H1090 C1106 0.931 . S
C1091 H1079 0.929 . S
C1091 C1085 1.390 . S
C1091 C1088 1.386 . S
C1092 C1087 1.490 . S
C1092 C1094 1.395 . S
C1092 C1095 1.403 . S
H1093 C1099 0.930 . S
C1094 H1080 0.930 . S
C1094 C1092 1.395 . S
C1094 C1097 1.403 . S
C1095 C1092 1.403 . S
C1095 C1096 1.524 . S
C1095 C1099 1.400 . S
C1096 H1081 0.960 . S
C1096 H1082 0.960 . S
C1096 H1083 0.960 . S
C1096 C1095 1.524 . S
C1097 C1094 1.403 . S
C1097 C1098 1.392 . S
C1097 C1101 1.495 . S
C1098 C1097 1.392 . S
C1098 C1099 1.385 . S
C1098 C1100 1.478 . S
C1099 H1093 0.930 . S
C1099 C1095 1.400 . S
C1099 C1098 1.385 . S
C1100 C1098 1.478 . S
C1100 C1102 1.381 . S
C1100 C1106 1.383 . S
C1101 C1097 1.495 . S
C1101 H1107 0.959 . S
C1101 H1108 0.961 . S
C1101 H1109 0.960 . S
C1102 C1100 1.381 . S
C1102 C1103 1.394 . S
C1102 H1110 0.930 . S
C1103 C1102 1.394 . S
C1103 C1104 1.383 . S
C1103 H1111 0.929 . S
C1104 C1103 1.383 . S
C1104 C1105 1.377 . S
C1105 H1089 0.930 . S
C1105 C1104 1.377 . S
C1105 C1106 1.379 . S
C1106 H1090 0.931 . S
C1106 C1100 1.383 . S
C1106 C1105 1.379 . S
H1107 C1101 0.959 . S
H1108 C1101 0.961 . S
H1109 C1101 0.960 . S
H1110 C1102 0.930 . S
H1111 C1103 0.929 . S
H1112 C1120 0.929 . S
H1113 C1122 0.930 . S
H1114 C1124 0.930 . S
H1115 C1127 0.929 . S
H1116 C1130 0.930 . S
H1117 C1132 0.960 . S
H1118 C1132 0.960 . S
H1119 C1132 0.960 . S
C1120 H1112 0.929 . S
C1120 C1121 1.377 . S
C1120 C1122 1.384 . S
C1121 C1120 1.377 . S
C1121 C1127 1.390 . S
C1122 H1113 0.930 . S
C1122 C1120 1.384 . S
C1122 C1123 1.372 . S
C1123 C1122 1.372 . S
C1123 C1124 1.400 . S
C1123 C1128 1.490 . S
C1124 H1114 0.930 . S
C1124 C1123 1.400 . S
C1124 C1127 1.386 . S
H1125 C1141 0.930 . S
H1126 C1142 0.931 . S
C1127 H1115 0.929 . S
C1127 C1121 1.390 . S
C1127 C1124 1.386 . S
C1128 C1123 1.490 . S
C1128 C1130 1.395 . S
C1128 C1131 1.403 . S
H1129 C1135 0.930 . S
C1130 H1116 0.930 . S
C1130 C1128 1.395 . S
C1130 C1133 1.403 . S
C1131 C1128 1.403 . S
C1131 C1132 1.524 . S
C1131 C1135 1.400 . S
C1132 H1117 0.960 . S
C1132 H1118 0.960 . S
C1132 H1119 0.960 . S
C1132 C1131 1.524 . S
C1133 C1130 1.403 . S
C1133 C1134 1.392 . S
C1133 C1137 1.495 . S
C1134 C1133 1.392 . S
C1134 C1135 1.385 . S
C1134 C1136 1.478 . S
C1135 H1129 0.930 . S
C1135 C1131 1.400 . S
C1135 C1134 1.385 . S
C1136 C1134 1.478 . S
C1136 C1138 1.381 . S
C1136 C1142 1.383 . S
C1137 C1133 1.495 . S
C1137 H1143 0.959 . S
C1137 H1144 0.961 . S
C1137 H1145 0.960 . S
C1138 C1136 1.381 . S
C1138 C1139 1.394 . S
C1138 H1146 0.930 . S
C1139 C1138 1.394 . S
C1139 C1140 1.383 . S
C1139 H1147 0.929 . S
C1140 C1139 1.383 . S
C1140 C1141 1.377 . S
C1141 H1125 0.930 . S
C1141 C1140 1.377 . S
C1141 C1142 1.379 . S
C1142 H1126 0.931 . S
C1142 C1136 1.383 . S
C1142 C1141 1.379 . S
H1143 C1137 0.959 . S
H1144 C1137 0.961 . S
H1145 C1137 0.960 . S
H1146 C1138 0.930 . S
H1147 C1139 0.929 . S
H1148 C1156 0.929 . S
H1149 C1158 0.930 . S
H1150 C1160 0.930 . S
H1151 C1163 0.929 . S
H1152 C1166 0.930 . S
H1153 C1168 0.960 . S
H1154 C1168 0.960 . S
H1155 C1168 0.960 . S
C1156 H1148 0.929 . S
C1156 C1157 1.377 . S
C1156 C1158 1.384 . S
C1157 C1156 1.377 . S
C1157 C1163 1.390 . S
C1158 H1149 0.930 . S
C1158 C1156 1.384 . S
C1158 C1159 1.372 . S
C1159 C1158 1.372 . S
C1159 C1160 1.400 . S
C1159 C1164 1.490 . S
C1160 H1150 0.930 . S
C1160 C1159 1.400 . S
C1160 C1163 1.386 . S
H1161 C1177 0.930 . S
H1162 C1178 0.931 . S
C1163 H1151 0.929 . S
C1163 C1157 1.390 . S
C1163 C1160 1.386 . S
C1164 C1159 1.490 . S
C1164 C1166 1.395 . S
C1164 C1167 1.403 . S
H1165 C1171 0.930 . S
C1166 H1152 0.930 . S
C1166 C1164 1.395 . S
C1166 C1169 1.403 . S
C1167 C1164 1.403 . S
C1167 C1168 1.524 . S
C1167 C1171 1.400 . S
C1168 H1153 0.960 . S
C1168 H1154 0.960 . S
C1168 H1155 0.960 . S
C1168 C1167 1.524 . S
C1169 C1166 1.403 . S
C1169 C1170 1.392 . S
C1169 C1173 1.495 . S
C1170 C1169 1.392 . S
C1170 C1171 1.385 . S
C1170 C1172 1.478 . S
C1171 H1165 0.930 . S
C1171 C1167 1.400 . S
C1171 C1170 1.385 . S
C1172 C1170 1.478 . S
C1172 C1174 1.381 . S
C1172 C1178 1.383 . S
C1173 C1169 1.495 . S
C1173 H1179 0.959 . S
C1173 H1180 0.961 . S
C1173 H1181 0.960 . S
C1174 C1172 1.381 . S
C1174 C1175 1.394 . S
C1174 H1182 0.930 . S
C1175 C1174 1.394 . S
C1175 C1176 1.383 . S
C1175 H1183 0.929 . S
C1176 C1175 1.383 . S
C1176 C1177 1.377 . S
C1177 H1161 0.930 . S
C1177 C1176 1.377 . S
C1177 C1178 1.379 . S
C1178 H1162 0.931 . S
C1178 C1172 1.383 . S
C1178 C1177 1.379 . S
H1179 C1173 0.959 . S
H1180 C1173 0.961 . S
H1181 C1173 0.960 . S
H1182 C1174 0.930 . S
H1183 C1175 0.929 . S
C329 C19 2.341 . S
C348 C10 2.349 . S
C365 C59 2.337 . S
C384 C50 2.319 . S
C401 C99 2.338 . S
C420 C90 2.346 . S
C437 C139 2.341 . S
C456 C130 2.349 . S
C473 C179 2.338 . S
C492 C170 2.346 . S
C509 C210 2.336 . S
C528 C219 2.333 . S
C545 C259 2.341 . S
C564 C250 2.350 . S
C581 C290 2.342 . S
C600 C299 2.347 . S
C617 C55 2.466 . S
C636 C6 2.449 . S
C653 C126 2.460 . S
C672 C95 2.438 . S
C689 C166 2.463 . S
C708 C215 2.478 . S
C725 C255 2.467 . S
C744 C286 2.480 . S
C761 C15 1.746 . S
C780 C206 1.755 . S
C797 C175 1.747 . S
C816 C46 1.746 . S
C833 C86 1.744 . S
C852 C295 1.756 . S
C869 C135 1.743 . S
C888 C246 1.725 . S
C905 C9 1.465 . S
C924 C129 1.481 . S
C941 C49 1.598 . S
C960 C89 1.592 . S
C977 C58 1.460 . S
C996 C98 1.465 . S
C1013 C138 1.603 . S
C1032 C18 1.606 . S
C1049 C169 1.466 . S
C1068 C289 1.475 . S
C1085 C209 1.610 . S
C1104 C249 1.606 . S
C1121 C218 1.469 . S
C1140 C258 1.438 . S
C1157 C298 1.604 . S
C1176 C178 1.608 . S
