# Generated by pormake.
# Topology uou, (4)-cn, num edge types: 1
# Building blocks:
#     Node 0, Type 0, BuildingBlock: QUQFOY_clean_sbu_1, # of connection points: 4
#     Node 1, Type 0, BuildingBlock: QUQFOY_clean_sbu_1, # of connection points: 4
#     Node 2, Type 0, BuildingBlock: QUQFOY_clean_sbu_1, # of connection points: 4
#     Node 3, Type 0, BuildingBlock: QUQFOY_clean_sbu_1, # of connection points: 4
#     Node 4, Type 0, BuildingBlock: QUQFOY_clean_sbu_1, # of connection points: 4
#     Node 5, Type 0, BuildingBlock: QUQFOY_clean_sbu_1, # of connection points: 4
#     Node 6, Type 0, BuildingBlock: QUQFOY_clean_sbu_1, # of connection points: 4
#     Node 7, Type 0, BuildingBlock: QUQFOY_clean_sbu_1, # of connection points: 4
#     Node 8, Type 0, BuildingBlock: QUQFOY_clean_sbu_1, # of connection points: 4
#     Node 9, Type 0, BuildingBlock: QUQFOY_clean_sbu_1, # of connection points: 4
#     Node 10, Type 0, BuildingBlock: QUQFOY_clean_sbu_1, # of connection points: 4
#     Node 11, Type 0, BuildingBlock: QUQFOY_clean_sbu_1, # of connection points: 4
#     Node 12, Type 0, BuildingBlock: QUQFOY_clean_sbu_1, # of connection points: 4
#     Node 13, Type 0, BuildingBlock: QUQFOY_clean_sbu_1, # of connection points: 4
#     Node 14, Type 0, BuildingBlock: QUQFOY_clean_sbu_1, # of connection points: 4
#     Node 15, Type 0, BuildingBlock: QUQFOY_clean_sbu_1, # of connection points: 4
#     Edge 16, Type (0, 0), BuildingBlock: MIFKUJ_clean_linker_0, # of connection points: 2
#     Edge 17, Type (0, 0), BuildingBlock: MIFKUJ_clean_linker_0, # of connection points: 2
#     Edge 18, Type (0, 0), BuildingBlock: MIFKUJ_clean_linker_0, # of connection points: 2
#     Edge 19, Type (0, 0), BuildingBlock: MIFKUJ_clean_linker_0, # of connection points: 2
#     Edge 20, Type (0, 0), BuildingBlock: MIFKUJ_clean_linker_0, # of connection points: 2
#     Edge 21, Type (0, 0), BuildingBlock: MIFKUJ_clean_linker_0, # of connection points: 2
#     Edge 22, Type (0, 0), BuildingBlock: MIFKUJ_clean_linker_0, # of connection points: 2
#     Edge 23, Type (0, 0), BuildingBlock: MIFKUJ_clean_linker_0, # of connection points: 2
#     Edge 24, Type (0, 0), BuildingBlock: MIFKUJ_clean_linker_0, # of connection points: 2
#     Edge 25, Type (0, 0), BuildingBlock: MIFKUJ_clean_linker_0, # of connection points: 2
#     Edge 26, Type (0, 0), BuildingBlock: MIFKUJ_clean_linker_0, # of connection points: 2
#     Edge 27, Type (0, 0), BuildingBlock: MIFKUJ_clean_linker_0, # of connection points: 2
#     Edge 28, Type (0, 0), BuildingBlock: MIFKUJ_clean_linker_0, # of connection points: 2
#     Edge 29, Type (0, 0), BuildingBlock: MIFKUJ_clean_linker_0, # of connection points: 2
#     Edge 30, Type (0, 0), BuildingBlock: MIFKUJ_clean_linker_0, # of connection points: 2
#     Edge 31, Type (0, 0), BuildingBlock: MIFKUJ_clean_linker_0, # of connection points: 2
#     Edge 32, Type (0, 0), BuildingBlock: MIFKUJ_clean_linker_0, # of connection points: 2
#     Edge 33, Type (0, 0), BuildingBlock: MIFKUJ_clean_linker_0, # of connection points: 2
#     Edge 34, Type (0, 0), BuildingBlock: MIFKUJ_clean_linker_0, # of connection points: 2
#     Edge 35, Type (0, 0), BuildingBlock: MIFKUJ_clean_linker_0, # of connection points: 2
#     Edge 36, Type (0, 0), BuildingBlock: MIFKUJ_clean_linker_0, # of connection points: 2
#     Edge 37, Type (0, 0), BuildingBlock: MIFKUJ_clean_linker_0, # of connection points: 2
#     Edge 38, Type (0, 0), BuildingBlock: MIFKUJ_clean_linker_0, # of connection points: 2
#     Edge 39, Type (0, 0), BuildingBlock: MIFKUJ_clean_linker_0, # of connection points: 2
#     Edge 40, Type (0, 0), BuildingBlock: MIFKUJ_clean_linker_0, # of connection points: 2
#     Edge 41, Type (0, 0), BuildingBlock: MIFKUJ_clean_linker_0, # of connection points: 2
#     Edge 42, Type (0, 0), BuildingBlock: MIFKUJ_clean_linker_0, # of connection points: 2
#     Edge 43, Type (0, 0), BuildingBlock: MIFKUJ_clean_linker_0, # of connection points: 2
#     Edge 44, Type (0, 0), BuildingBlock: MIFKUJ_clean_linker_0, # of connection points: 2
#     Edge 45, Type (0, 0), BuildingBlock: MIFKUJ_clean_linker_0, # of connection points: 2
#     Edge 46, Type (0, 0), BuildingBlock: MIFKUJ_clean_linker_0, # of connection points: 2
#     Edge 47, Type (0, 0), BuildingBlock: MIFKUJ_clean_linker_0, # of connection points: 2
# Relax obj value: 0.062
# Max RMSD: 0.104
# Mean RMSD: 0.104
data_MOF--net-uou--node1-QUQFOY_clean_sbu_1--edge1-MIFKUJ_clean_linker_0
_symmetry_space_group_name_H-M    P1
_symmetry_Int_Tables_number       1
_symmetry_cell_setting            triclinic
loop_
_symmetry_equiv_pos_as_xyz
'x, y, z'
_cell_length_a     53.70131
_cell_length_b     48.368001
_cell_length_c     73.03269
_cell_angle_alpha  90.050716
_cell_angle_beta   90.058246
_cell_angle_gamma 89.977893
loop_
_atom_site_label
_atom_site_type_symbol
_atom_site_fract_x
_atom_site_fract_y
_atom_site_fract_z
_atom_type_partial_charge
O0 O 0.04238 0.09059 0.13479 0.0
Cd1 Cd 0.04929 0.04874 0.13483 0.0
Cd2 Cd 0.0926 0.06668 0.11935 0.0
O3 O 0.07943 0.10562 0.12646 0.0
O4 O 0.02288 0.03409 0.15137 0.0
O5 O 0.06296 0.0318 0.15803 0.0
C6 C 0.04013 0.02764 0.16288 0.0
C7 C 0.13349 0.05309 0.12627 0.0
C8 C 0.05723 0.11046 0.13165 0.0
C9 C 0.05724 0.03319 0.09577 0.0
O10 O 0.07651 0.04845 0.09656 0.0
O11 O 0.04446 0.02863 0.11011 0.0
O12 O 0.12874 0.07032 0.11326 0.0
O13 O 0.11494 0.04407 0.13582 0.0
O14 O 0.47376 0.90793 0.13275 0.0
Cd15 Cd 0.46657 0.9497 0.13333 0.0
Cd16 Cd 0.42332 0.93185 0.11799 0.0
O17 O 0.43645 0.89286 0.12503 0.0
O18 O 0.49303 0.96407 0.14996 0.0
O19 O 0.45299 0.96621 0.15669 0.0
C20 C 0.47584 0.97032 0.16154 0.0
C21 C 0.3826 0.94565 0.12521 0.0
C22 C 0.45884 0.88804 0.12979 0.0
C23 C 0.45837 0.96568 0.09447 0.0
O24 O 0.43927 0.95015 0.09518 0.0
O25 O 0.47108 0.97035 0.10885 0.0
O26 O 0.38707 0.92842 0.11213 0.0
O27 O 0.40134 0.95457 0.13464 0.0
O28 O 0.54004 0.90905 0.37908 0.0
Cd29 Cd 0.54817 0.95059 0.37855 0.0
Cd30 Cd 0.59119 0.93219 0.39314 0.0
O31 O 0.57771 0.89365 0.3854 0.0
O32 O 0.52318 0.96621 0.36119 0.0
O33 O 0.56365 0.96611 0.35565 0.0
C34 C 0.54127 0.97135 0.35011 0.0
C35 C 0.63202 0.946 0.38629 0.0
C36 C 0.55506 0.88903 0.38128 0.0
C37 C 0.55687 0.9657 0.41739 0.0
O38 O 0.57556 0.94958 0.4164 0.0
O39 O 0.54425 0.97125 0.40311 0.0
O40 O 0.62744 0.92773 0.39869 0.0
O41 O 0.61333 0.95593 0.37727 0.0
O42 O 0.97039 0.09491 0.37757 0.0
Cd43 Cd 0.96463 0.05284 0.37861 0.0
Cd44 Cd 0.92181 0.07027 0.39569 0.0
O45 O 0.93475 0.1094 0.38916 0.0
O46 O 0.9905 0.03832 0.36152 0.0
O47 O 0.95016 0.03439 0.35619 0.0
C48 C 0.9728 0.03081 0.35068 0.0
C49 C 0.88078 0.05691 0.38904 0.0
C50 C 0.95596 0.11452 0.3822 0.0
C51 C 0.95848 0.03714 0.41812 0.0
O52 O 0.9386 0.05144 0.41785 0.0
O53 O 0.97106 0.03363 0.40354 0.0
O54 O 0.88579 0.074 0.4021 0.0
O55 O 0.89916 0.0478 0.37933 0.0
O56 O 0.94048 0.95023 0.91683 0.0
Cd57 Cd 0.92452 0.93224 0.89388 0.0
Cd58 Cd 0.96803 0.95023 0.87886 0.0
O59 O 0.97242 0.97058 0.90351 0.0
O60 O 0.88847 0.92825 0.90011 0.0
O61 O 0.90189 0.95497 0.87767 0.0
C62 C 0.88349 0.94569 0.88727 0.0
C63 C 0.97731 0.97114 0.85078 0.0
C64 C 0.95958 0.96573 0.91777 0.0
C65 C 0.96013 0.88856 0.88194 0.0
O66 O 0.97513 0.90843 0.87924 0.0
O67 O 0.9377 0.89337 0.88657 0.0
O68 O 0.99451 0.96483 0.86236 0.0
O69 O 0.95446 0.96693 0.85556 0.0
O70 O 0.57714 0.05116 0.91703 0.0
Cd71 Cd 0.59331 0.06917 0.89421 0.0
Cd72 Cd 0.55027 0.05096 0.87864 0.0
O73 O 0.54544 0.03084 0.9033 0.0
O74 O 0.62938 0.07301 0.90047 0.0
O75 O 0.61582 0.04635 0.87799 0.0
C76 C 0.63427 0.05557 0.8876 0.0
C77 C 0.54149 0.02954 0.85062 0.0
C78 C 0.55803 0.03566 0.91772 0.0
C79 C 0.55788 0.1127 0.88171 0.0
O80 O 0.54306 0.09275 0.87868 0.0
O81 O 0.58013 0.10798 0.88684 0.0
O82 O 0.5241 0.03598 0.862 0.0
O83 O 0.56425 0.03397 0.85557 0.0
O84 O 0.4401 0.04929 0.59631 0.0
Cd85 Cd 0.4243 0.06646 0.61959 0.0
Cd86 Cd 0.46758 0.0482 0.63422 0.0
O87 O 0.47172 0.02804 0.6095 0.0
O88 O 0.38807 0.07079 0.61396 0.0
O89 O 0.40218 0.04269 0.63545 0.0
C90 C 0.38349 0.05258 0.62641 0.0
C91 C 0.47534 0.02706 0.66242 0.0
C92 C 0.459 0.03348 0.59526 0.0
C93 C 0.46001 0.10979 0.6319 0.0
O94 O 0.47513 0.08988 0.6341 0.0
O95 O 0.43747 0.10503 0.62752 0.0
O96 O 0.49314 0.0329 0.65125 0.0
O97 O 0.45278 0.03177 0.6571 0.0
O98 O 0.07681 0.95031 0.59601 0.0
Cd99 Cd 0.09232 0.93264 0.61924 0.0
Cd100 Cd 0.04917 0.95139 0.63386 0.0
O101 O 0.04523 0.97167 0.60918 0.0
O102 O 0.12838 0.92732 0.61345 0.0
O103 O 0.11518 0.95571 0.63509 0.0
C104 C 0.13352 0.9453 0.62594 0.0
C105 C 0.04183 0.97253 0.66214 0.0
C106 C 0.058 0.96627 0.59496 0.0
C107 C 0.056 0.88975 0.63131 0.0
O108 O 0.04109 0.90984 0.63359 0.0
O109 O 0.07858 0.89425 0.62697 0.0
O110 O 0.0239 0.967 0.65098 0.0
O111 O 0.06431 0.96751 0.65676 0.0
O112 O 0.54171 0.59066 0.13431 0.0
Cd113 Cd 0.54953 0.54902 0.1346 0.0
Cd114 Cd 0.59248 0.56738 0.11949 0.0
O115 O 0.57901 0.60604 0.12696 0.0
O116 O 0.52373 0.53362 0.15135 0.0
O117 O 0.56395 0.53279 0.15775 0.0
C118 C 0.54131 0.52786 0.16275 0.0
C119 C 0.63339 0.55379 0.12634 0.0
C120 C 0.55656 0.61068 0.13161 0.0
C121 C 0.55777 0.53376 0.09562 0.0
O122 O 0.57664 0.54961 0.09644 0.0
O123 O 0.54522 0.52858 0.10997 0.0
O124 O 0.62866 0.57171 0.11374 0.0
O125 O 0.6148 0.54408 0.13555 0.0
O126 O 0.97502 0.40805 0.13253 0.0
Cd127 Cd 0.96697 0.44961 0.13293 0.0
Cd128 Cd 0.92378 0.43114 0.11843 0.0
O129 O 0.93732 0.39267 0.12629 0.0
O130 O 0.99215 0.46525 0.15014 0.0
O131 O 0.95171 0.4656 0.1558 0.0
C132 C 0.97416 0.47073 0.16125 0.0
C133 C 0.88277 0.44444 0.12524 0.0
C134 C 0.95997 0.38805 0.13042 0.0
C135 C 0.95811 0.46448 0.09407 0.0
O136 O 0.93935 0.44849 0.09513 0.0
O137 O 0.97084 0.47001 0.10831 0.0
O138 O 0.88759 0.42626 0.11282 0.0
O139 O 0.90133 0.45469 0.13426 0.0
O140 O 0.04499 0.40797 0.37696 0.0
Cd141 Cd 0.04896 0.45032 0.37769 0.0
Cd142 Cd 0.09223 0.43454 0.39593 0.0
O143 O 0.07989 0.39478 0.39042 0.0
O144 O 0.0222 0.46301 0.36071 0.0
O145 O 0.06218 0.46909 0.35497 0.0
C146 C 0.03931 0.47138 0.34969 0.0
C147 C 0.13366 0.44734 0.39041 0.0
C148 C 0.05935 0.38892 0.38262 0.0
C149 C 0.05403 0.46807 0.41695 0.0
O150 O 0.07453 0.45493 0.41704 0.0
O151 O 0.04125 0.46987 0.40232 0.0
O152 O 0.12761 0.43222 0.40424 0.0
O153 O 0.11619 0.45464 0.37923 0.0
O154 O 0.4745 0.59119 0.37981 0.0
Cd155 Cd 0.46838 0.54919 0.37956 0.0
Cd156 Cd 0.42496 0.56643 0.39537 0.0
O157 O 0.43737 0.60568 0.38841 0.0
O158 O 0.49444 0.53543 0.36239 0.0
O159 O 0.45415 0.53192 0.35668 0.0
C160 C 0.47686 0.52847 0.35129 0.0
C161 C 0.3839 0.55254 0.38945 0.0
C162 C 0.45946 0.61084 0.38312 0.0
C163 C 0.46127 0.53304 0.41843 0.0
O164 O 0.44184 0.54806 0.41779 0.0
O165 O 0.47401 0.52878 0.40403 0.0
O166 O 0.38919 0.5693 0.40263 0.0
O167 O 0.40192 0.54427 0.37908 0.0
O168 O 0.43956 0.45032 0.91695 0.0
Cd169 Cd 0.42419 0.4331 0.89351 0.0
Cd170 Cd 0.46741 0.45184 0.87909 0.0
O171 O 0.47102 0.47195 0.90388 0.0
O172 O 0.38799 0.42792 0.89885 0.0
O173 O 0.4018 0.45677 0.87772 0.0
C174 C 0.38321 0.44626 0.88653 0.0
C175 C 0.47602 0.47331 0.85112 0.0
C176 C 0.45829 0.46635 0.91808 0.0
C177 C 0.46053 0.39021 0.88135 0.0
O178 O 0.47549 0.41027 0.87923 0.0
O179 O 0.43791 0.39475 0.8856 0.0
O180 O 0.49342 0.4676 0.86268 0.0
O181 O 0.45331 0.46822 0.85589 0.0
O182 O 0.07626 0.54941 0.91615 0.0
Cd183 Cd 0.09225 0.5672 0.89319 0.0
Cd184 Cd 0.04922 0.54908 0.87798 0.0
O185 O 0.04453 0.52883 0.90262 0.0
O186 O 0.12839 0.57139 0.8992 0.0
O187 O 0.1147 0.54408 0.87711 0.0
C188 C 0.13322 0.55366 0.88649 0.0
C189 C 0.04208 0.52783 0.84969 0.0
C190 C 0.0572 0.53383 0.91697 0.0
C191 C 0.05663 0.61071 0.8809 0.0
O192 O 0.04169 0.59079 0.8781 0.0
O193 O 0.079 0.60593 0.88575 0.0
O194 O 0.02404 0.53374 0.86065 0.0
O195 O 0.06452 0.53261 0.85527 0.0
O196 O 0.9379 0.55175 0.59601 0.0
Cd197 Cd 0.92272 0.56905 0.61943 0.0
Cd198 Cd 0.96652 0.55078 0.63379 0.0
O199 O 0.97041 0.53148 0.60873 0.0
O200 O 0.88636 0.57311 0.61426 0.0
O201 O 0.90113 0.54527 0.63566 0.0
C202 C 0.88218 0.55493 0.62679 0.0
C203 C 0.97649 0.52893 0.66144 0.0
C204 C 0.95712 0.53649 0.59468 0.0
C205 C 0.95843 0.61249 0.6317 0.0
O206 O 0.97348 0.59257 0.63414 0.0
O207 O 0.936 0.60774 0.62701 0.0
O208 O 0.99341 0.5357 0.64978 0.0
O209 O 0.95352 0.53313 0.65693 0.0
O210 O 0.57735 0.44712 0.59724 0.0
Cd211 Cd 0.59296 0.42992 0.62054 0.0
Cd212 Cd 0.54983 0.44872 0.63524 0.0
O213 O 0.54562 0.46832 0.61032 0.0
O214 O 0.6291 0.425 0.61492 0.0
O215 O 0.61542 0.45351 0.63633 0.0
C216 C 0.63395 0.44323 0.62731 0.0
C217 C 0.54216 0.4707 0.6632 0.0
C218 C 0.55841 0.46285 0.59612 0.0
C219 C 0.55705 0.38699 0.63317 0.0
O220 O 0.54215 0.40706 0.63558 0.0
O221 O 0.57947 0.39152 0.62842 0.0
O222 O 0.52433 0.46454 0.6521 0.0
O223 O 0.56471 0.46579 0.65794 0.0
H224 H 0.3663 0.98103 0.15213 0.0
H225 H 0.32395 0.99868 0.1567 0.0
H226 H 0.29864 0.95128 0.11021 0.0
H227 H 0.34056 0.93314 0.10586 0.0
H228 H 0.29555 0.02968 0.13615 0.0
H229 H 0.2391 0.93222 0.11468 0.0
H230 H 0.24266 0.88146 0.11661 0.0
H231 H 0.29063 0.8892 0.1634 0.0
H232 H 0.2871 0.93998 0.16192 0.0
H233 H 0.17502 0.06525 0.10634 0.0
H234 H 0.21706 0.04723 0.11031 0.0
H235 H 0.19295 0.00077 0.15747 0.0
H236 H 0.15047 0.01827 0.15326 0.0
H237 H 0.22085 0.96937 0.13695 0.0
H238 H 0.22998 0.05978 0.16166 0.0
H239 H 0.22647 0.11059 0.16263 0.0
H240 H 0.27318 0.11703 0.11514 0.0
H241 H 0.27669 0.06623 0.11373 0.0
C242 C 0.35164 0.97415 0.14301 0.0
C243 C 0.35684 0.95556 0.12868 0.0
C244 C 0.32744 0.98433 0.14559 0.0
C245 C 0.30794 0.9761 0.13394 0.0
C246 C 0.31315 0.95753 0.11965 0.0
C247 C 0.33724 0.94726 0.11712 0.0
C248 C 0.28235 0.98764 0.13618 0.0
C249 C 0.27924 0.01647 0.13642 0.0
C250 C 0.26098 0.97049 0.13695 0.0
C251 C 0.26298 0.93993 0.13809 0.0
C252 C 0.25031 0.92309 0.12544 0.0
C253 C 0.25235 0.89431 0.12644 0.0
C254 C 0.26692 0.88212 0.14009 0.0
C255 C 0.27942 0.89867 0.1528 0.0
C256 C 0.27743 0.92746 0.15187 0.0
C257 C 0.17864 0.05137 0.11767 0.0
C258 C 0.15934 0.04328 0.12952 0.0
C259 C 0.20279 0.04116 0.11998 0.0
C260 C 0.20838 0.02289 0.13435 0.0
C261 C 0.18917 0.01488 0.1463 0.0
C262 C 0.1649 0.02498 0.14392 0.0
C263 C 0.23403 0.01141 0.13637 0.0
C264 C 0.23716 0.98259 0.13687 0.0
C265 C 0.25542 0.02858 0.13669 0.0
C266 C 0.25346 0.05917 0.13752 0.0
C267 C 0.23937 0.07202 0.15135 0.0
C268 C 0.2374 0.10082 0.15199 0.0
C269 C 0.24956 0.11703 0.13894 0.0
C270 C 0.26376 0.10446 0.12524 0.0
C271 C 0.26578 0.07565 0.12453 0.0
H272 H 0.248 0.13933 0.13945 0.0
H273 H 0.26848 0.85984 0.14083 0.0
H274 H 0.67513 0.92446 0.40005 0.0
H275 H 0.71709 0.94352 0.39783 0.0
H276 H 0.68936 0.01019 0.36432 0.0
H277 H 0.64728 0.99075 0.36611 0.0
H278 H 0.73387 0.99429 0.35225 0.0
H279 H 0.69954 0.01918 0.41041 0.0
H280 H 0.67935 0.01109 0.44024 0.0
H281 H 0.74035 0.95935 0.45675 0.0
H282 H 0.76075 0.96684 0.42691 0.0
H283 H 0.8383 0.07723 0.40447 0.0
H284 H 0.79592 0.05977 0.40123 0.0
H285 H 0.82204 0.99669 0.36411 0.0
H286 H 0.86453 0.01461 0.36694 0.0
H287 H 0.7772 0.0132 0.41096 0.0
H288 H 0.77508 0.97706 0.33523 0.0
H289 H 0.79336 0.99015 0.30549 0.0
H290 H 0.80221 0.07373 0.32428 0.0
H291 H 0.7837 0.06123 0.35402 0.0
C292 C 0.67796 0.94302 0.39204 0.0
C293 C 0.65778 0.95621 0.38339 0.0
C294 C 0.70199 0.95398 0.39084 0.0
C295 C 0.70638 0.97863 0.38121 0.0
C296 C 0.68647 0.99121 0.37189 0.0
C297 C 0.66239 0.9801 0.37295 0.0
C298 C 0.73145 0.99185 0.38164 0.0
C299 C 0.74337 0.99839 0.36508 0.0
C300 C 0.74372 0.99782 0.39837 0.0
C301 C 0.73156 0.99337 0.41636 0.0
C302 C 0.70857 0.00593 0.42036 0.0
C303 C 0.6971 0.00147 0.43727 0.0
C304 C 0.70853 0.98466 0.45037 0.0
C305 C 0.7315 0.97233 0.44659 0.0
C306 C 0.74303 0.97669 0.42968 0.0
C307 C 0.83503 0.05982 0.39545 0.0
C308 C 0.85484 0.04732 0.38597 0.0
C309 C 0.81074 0.04978 0.39366 0.0
C310 C 0.80563 0.02693 0.38238 0.0
C311 C 0.82534 0.0146 0.37268 0.0
C312 C 0.84968 0.02481 0.37435 0.0
C313 C 0.77988 0.01537 0.38156 0.0
C314 C 0.7678 0.00908 0.39809 0.0
C315 C 0.76729 0.01032 0.36482 0.0
C316 C 0.77824 0.01811 0.34692 0.0
C317 C 0.78086 0.99825 0.33299 0.0
C318 C 0.79127 0.00556 0.31614 0.0
C319 C 0.79902 0.03273 0.31302 0.0
C320 C 0.7963 0.05266 0.32673 0.0
C321 C 0.78588 0.04546 0.3436 0.0
H322 H 0.80709 0.03834 0.29997 0.0
H323 H 0.69962 0.98124 0.46346 0.0
H324 H 0.86594 0.98098 0.86071 0.0
H325 H 0.82355 0.99915 0.85746 0.0
H326 H 0.80039 0.95165 0.90442 0.0
H327 H 0.84233 0.93292 0.90742 0.0
H328 H 0.7653 0.9498 0.88009 0.0
H329 H 0.81463 0.02207 0.90707 0.0
H330 H 0.84963 0.05494 0.90901 0.0
H331 H 0.82628 0.09287 0.8587 0.0
H332 H 0.7913 0.05997 0.85635 0.0
H333 H 0.67562 0.06849 0.90758 0.0
H334 H 0.71754 0.04974 0.90447 0.0
H335 H 0.6939 0.00177 0.85775 0.0
H336 H 0.65155 0.01999 0.86111 0.0
H337 H 0.75237 0.05135 0.8799 0.0
H338 H 0.72607 0.94084 0.85684 0.0
H339 H 0.69112 0.90796 0.85956 0.0
H340 H 0.66844 0.94664 0.9098 0.0
H341 H 0.70341 0.97949 0.90749 0.0
C342 C 0.85175 0.97423 0.87024 0.0
C343 C 0.85759 0.95558 0.88437 0.0
C344 C 0.82753 0.98474 0.86842 0.0
C345 C 0.80875 0.97709 0.88084 0.0
C346 C 0.81445 0.95789 0.89463 0.0
C347 C 0.83854 0.94724 0.89637 0.0
C348 C 0.78336 0.98958 0.87998 0.0
C349 C 0.76252 0.97202 0.8799 0.0
C350 C 0.77955 0.01857 0.88005 0.0
C351 C 0.80054 0.03837 0.88143 0.0
C352 C 0.81708 0.03729 0.89635 0.0
C353 C 0.83689 0.05594 0.89754 0.0
C354 C 0.84023 0.07593 0.88395 0.0
C355 C 0.82371 0.07735 0.86919 0.0
C356 C 0.80388 0.05871 0.86793 0.0
C357 C 0.67931 0.05406 0.89656 0.0
C358 C 0.66014 0.04562 0.88466 0.0
C359 C 0.70338 0.04341 0.89476 0.0
C360 C 0.70894 0.02407 0.881 0.0
C361 C 0.69004 0.01629 0.86868 0.0
C362 C 0.66584 0.02683 0.87056 0.0
C363 C 0.73432 0.01158 0.88007 0.0
C364 C 0.75516 0.02913 0.87979 0.0
C365 C 0.73813 0.98259 0.88025 0.0
C366 C 0.71716 0.96281 0.88185 0.0
C367 C 0.71364 0.94227 0.86848 0.0
C368 C 0.69384 0.92365 0.86995 0.0
C369 C 0.67751 0.92528 0.88481 0.0
C370 C 0.68102 0.94547 0.89826 0.0
C371 C 0.70082 0.96411 0.89686 0.0
H372 H 0.66218 0.91086 0.88592 0.0
H373 H 0.85557 0.09036 0.8849 0.0
H374 H 0.1758 0.92255 0.61175 0.0
H375 H 0.21849 0.93922 0.6147 0.0
H376 H 0.19313 0.006 0.64918 0.0
H377 H 0.15032 0.98892 0.64666 0.0
H378 H 0.23806 0.98455 0.60332 0.0
H379 H 0.24013 0.02698 0.6776 0.0
H380 H 0.22134 0.01683 0.70767 0.0
H381 H 0.21121 0.932 0.69196 0.0
H382 H 0.23024 0.94156 0.66191 0.0
H383 H 0.34054 0.07329 0.61184 0.0
H384 H 0.29851 0.05457 0.61447 0.0
H385 H 0.32579 0.98998 0.6499 0.0
H386 H 0.36798 0.00904 0.64765 0.0
H387 H 0.28117 0.00761 0.66147 0.0
H388 H 0.31571 0.97755 0.60448 0.0
H389 H 0.33624 0.98292 0.57451 0.0
H390 H 0.27591 0.03392 0.55582 0.0
H391 H 0.25517 0.02917 0.58579 0.0
C392 C 0.1793 0.94062 0.62014 0.0
C393 C 0.15961 0.95441 0.62896 0.0
C394 C 0.20376 0.95019 0.62177 0.0
C395 C 0.20917 0.97385 0.63221 0.0
C396 C 0.18958 0.98745 0.64128 0.0
C397 C 0.16507 0.97772 0.63978 0.0
C398 C 0.2351 0.98491 0.63274 0.0
C399 C 0.24741 0.98957 0.61607 0.0
C400 C 0.24762 0.99112 0.64934 0.0
C401 C 0.23637 0.98508 0.66744 0.0
C402 C 0.23397 0.00615 0.6806 0.0
C403 C 0.22326 0.00049 0.69763 0.0
C404 C 0.21501 0.97381 0.7017 0.0
C405 C 0.21752 0.95269 0.68877 0.0
C406 C 0.22823 0.95822 0.67172 0.0
C407 C 0.33762 0.05525 0.62034 0.0
C408 C 0.3577 0.04252 0.62941 0.0
C409 C 0.31354 0.0445 0.62178 0.0
C410 C 0.309 0.02054 0.63211 0.0
C411 C 0.32882 0.00843 0.6418 0.0
C412 C 0.35295 0.01931 0.64047 0.0
C413 C 0.28384 0.00755 0.63205 0.0
C414 C 0.27171 0.00259 0.64877 0.0
C415 C 0.27164 0.0004 0.6155 0.0
C416 C 0.284 0.00321 0.59744 0.0
C417 C 0.30691 0.99007 0.59402 0.0
C418 C 0.31857 0.99298 0.57703 0.0
C419 C 0.30742 0.00881 0.56328 0.0
C420 C 0.28454 0.0217 0.56649 0.0
C421 C 0.27281 0.01889 0.58347 0.0
H422 H 0.31647 0.01103 0.55014 0.0
H423 H 0.20671 0.96948 0.71489 0.0
H424 H 0.86672 0.48897 0.1454 0.0
H425 H 0.82411 0.50662 0.14803 0.0
H426 H 0.79754 0.4389 0.11485 0.0
H427 H 0.84004 0.42169 0.11176 0.0
H428 H 0.77792 0.48379 0.10298 0.0
H429 H 0.78692 0.44331 0.16233 0.0
H430 H 0.80663 0.43495 0.19233 0.0
H431 H 0.79743 0.52055 0.20643 0.0
H432 H 0.77796 0.5295 0.1764 0.0
H433 H 0.64919 0.51102 0.1482 0.0
H434 H 0.69136 0.49182 0.15037 0.0
H435 H 0.71814 0.55482 0.11357 0.0
H436 H 0.67614 0.57371 0.11106 0.0
H437 H 0.73639 0.50971 0.16117 0.0
H438 H 0.76061 0.5278 0.08482 0.0
H439 H 0.73915 0.53141 0.05502 0.0
H440 H 0.67904 0.48168 0.07538 0.0
H441 H 0.70029 0.47745 0.1052 0.0
C442 C 0.85176 0.4777 0.13883 0.0
C443 C 0.85681 0.45395 0.12833 0.0
C444 C 0.82735 0.48776 0.1404 0.0
C445 C 0.80747 0.47405 0.13173 0.0
C446 C 0.81249 0.44997 0.12161 0.0
C447 C 0.83685 0.44008 0.1199 0.0
C448 C 0.78162 0.48538 0.13235 0.0
C449 C 0.76892 0.48943 0.11574 0.0
C450 C 0.76954 0.49243 0.14897 0.0
C451 C 0.78119 0.48712 0.16705 0.0
C452 C 0.78927 0.46039 0.17177 0.0
C453 C 0.80037 0.45554 0.18879 0.0
C454 C 0.80334 0.47722 0.20126 0.0
C455 C 0.79515 0.50379 0.19675 0.0
C456 C 0.78406 0.50875 0.17974 0.0
C457 C 0.66411 0.52093 0.14071 0.0
C458 C 0.65922 0.54374 0.12931 0.0
C459 C 0.68823 0.50996 0.14199 0.0
C460 C 0.70789 0.52157 0.1319 0.0
C461 C 0.70323 0.54514 0.12122 0.0
C462 C 0.67916 0.55599 0.11984 0.0
C463 C 0.73299 0.50839 0.1318 0.0
C464 C 0.7455 0.50407 0.14846 0.0
C465 C 0.74474 0.50043 0.11526 0.0
C466 C 0.73194 0.50256 0.09729 0.0
C467 C 0.74286 0.51755 0.0829 0.0
C468 C 0.73072 0.51972 0.06602 0.0
C469 C 0.70771 0.50686 0.06333 0.0
C470 C 0.69682 0.49172 0.0775 0.0
C471 C 0.70889 0.48945 0.0944 0.0
H472 H 0.69833 0.50859 0.05025 0.0
H473 H 0.81193 0.47343 0.21443 0.0
H474 H 0.3629 0.52836 0.35904 0.0
H475 H 0.3204 0.50978 0.35606 0.0
H476 H 0.3048 0.5335 0.41177 0.0
H477 H 0.3467 0.55278 0.41469 0.0
H478 H 0.29507 0.47235 0.39794 0.0
H479 H 0.27928 0.57106 0.38734 0.0
H480 H 0.28611 0.61469 0.37063 0.0
H481 H 0.26474 0.57532 0.32029 0.0
H482 H 0.25815 0.53132 0.33669 0.0
H483 H 0.16903 0.45224 0.4168 0.0
H484 H 0.2115 0.4691 0.4137 0.0
H485 H 0.2003 0.47986 0.3556 0.0
H486 H 0.15696 0.4645 0.35893 0.0
H487 H 0.22555 0.52059 0.36656 0.0
H488 H 0.2364 0.42422 0.37545 0.0
H489 H 0.23098 0.37848 0.38979 0.0
H490 H 0.26366 0.40878 0.43959 0.0
H491 H 0.26898 0.45482 0.42564 0.0
C492 C 0.35032 0.52979 0.37058 0.0
C493 C 0.35812 0.54211 0.38708 0.0
C494 C 0.3261 0.51921 0.36886 0.0
C495 C 0.30955 0.52031 0.38371 0.0
C496 C 0.31732 0.53251 0.40016 0.0
C497 C 0.34124 0.5436 0.40176 0.0
C498 C 0.28427 0.50814 0.38244 0.0
C499 C 0.27976 0.48288 0.39119 0.0
C500 C 0.26467 0.52141 0.37299 0.0
C501 C 0.26857 0.54784 0.36319 0.0
C502 C 0.27633 0.57163 0.37268 0.0
C503 C 0.28008 0.59644 0.36327 0.0
C504 C 0.27596 0.59775 0.3444 0.0
C505 C 0.26799 0.57426 0.3349 0.0
C506 C 0.26423 0.54939 0.34424 0.0
C507 C 0.17563 0.45805 0.40333 0.0
C508 C 0.15971 0.45681 0.38807 0.0
C509 C 0.20006 0.46753 0.40153 0.0
C510 C 0.20956 0.4751 0.38431 0.0
C511 C 0.19359 0.47402 0.36903 0.0
C512 C 0.16884 0.46516 0.37091 0.0
C513 C 0.23587 0.48482 0.38254 0.0
C514 C 0.24073 0.50965 0.37317 0.0
C515 C 0.25598 0.47075 0.39108 0.0
C516 C 0.25293 0.44304 0.39952 0.0
C517 C 0.24229 0.42118 0.3895 0.0
C518 C 0.23926 0.39519 0.39755 0.0
C519 C 0.24693 0.39074 0.41559 0.0
C520 C 0.25772 0.41226 0.42561 0.0
C521 C 0.26078 0.4383 0.41763 0.0
H522 H 0.24456 0.37061 0.42181 0.0
H523 H 0.27886 0.61698 0.33714 0.0
H524 H 0.14955 0.51319 0.86294 0.0
H525 H 0.1918 0.49425 0.86044 0.0
H526 H 0.21758 0.55284 0.90075 0.0
H527 H 0.17555 0.57156 0.9035 0.0
H528 H 0.23737 0.51424 0.85132 0.0
H529 H 0.25865 0.52159 0.929 0.0
H530 H 0.23606 0.52078 0.9584 0.0
H531 H 0.1771 0.47387 0.93361 0.0
H532 H 0.19949 0.47406 0.90415 0.0
H533 H 0.36726 0.49262 0.8683 0.0
H534 H 0.32454 0.50997 0.86577 0.0
H535 H 0.29777 0.43819 0.89476 0.0
H536 H 0.3404 0.42135 0.89788 0.0
H537 H 0.27703 0.48066 0.90852 0.0
H538 H 0.28873 0.44886 0.84705 0.0
H539 H 0.30968 0.44513 0.81711 0.0
H540 H 0.29996 0.53225 0.80838 0.0
H541 H 0.27922 0.53657 0.83837 0.0
C542 C 0.16427 0.52219 0.87115 0.0
C543 C 0.1591 0.54373 0.88354 0.0
C544 C 0.18843 0.51139 0.86967 0.0
C545 C 0.20782 0.52183 0.8806 0.0
C546 C 0.20287 0.54411 0.89239 0.0
C547 C 0.17879 0.55485 0.89391 0.0
C548 C 0.23294 0.50875 0.88039 0.0
C549 C 0.24608 0.50689 0.86381 0.0
C550 C 0.24414 0.49861 0.89661 0.0
C551 C 0.23065 0.49811 0.91433 0.0
C552 C 0.24091 0.51102 0.92985 0.0
C553 C 0.22813 0.51068 0.94652 0.0
C554 C 0.20512 0.49736 0.94785 0.0
C555 C 0.19488 0.48427 0.93254 0.0
C556 C 0.20759 0.48452 0.91585 0.0
C557 C 0.35222 0.48041 0.87395 0.0
C558 C 0.35725 0.45564 0.88333 0.0
C559 C 0.32775 0.49029 0.87244 0.0
C560 C 0.30776 0.47534 0.87997 0.0
C561 C 0.31278 0.45023 0.88891 0.0
C562 C 0.33721 0.44056 0.89063 0.0
C563 C 0.2818 0.48639 0.87946 0.0
C564 C 0.26844 0.48795 0.89596 0.0
C565 C 0.27025 0.49562 0.8631 0.0
C566 C 0.28262 0.49307 0.84503 0.0
C567 C 0.29121 0.46726 0.8388 0.0
C568 C 0.30302 0.46503 0.82181 0.0
C569 C 0.3062 0.48845 0.81087 0.0
C570 C 0.29751 0.51413 0.81687 0.0
C571 C 0.2857 0.51648 0.83386 0.0
H572 H 0.31535 0.48669 0.79772 0.0
H573 H 0.19525 0.49714 0.96077 0.0
H574 H 0.67662 0.42063 0.61367 0.0
H575 H 0.71907 0.43805 0.61656 0.0
H576 H 0.69258 0.50558 0.64992 0.0
H577 H 0.65002 0.48774 0.64748 0.0
H578 H 0.73815 0.4832 0.60457 0.0
H579 H 0.739 0.52848 0.67813 0.0
H580 H 0.7201 0.51916 0.70827 0.0
H581 H 0.71131 0.43359 0.69396 0.0
H582 H 0.73044 0.44233 0.66384 0.0
H583 H 0.83886 0.5745 0.61213 0.0
H584 H 0.79716 0.55498 0.615 0.0
H585 H 0.82553 0.49192 0.65115 0.0
H586 H 0.86742 0.51172 0.64862 0.0
H587 H 0.78042 0.50926 0.6625 0.0
H588 H 0.81591 0.47776 0.60619 0.0
H589 H 0.83663 0.4824 0.57623 0.0
H590 H 0.77565 0.53146 0.55642 0.0
H591 H 0.75472 0.52744 0.58636 0.0
C592 C 0.67982 0.43902 0.62181 0.0
C593 C 0.65989 0.4528 0.63034 0.0
C594 C 0.70414 0.44902 0.6234 0.0
C595 C 0.70917 0.47311 0.6335 0.0
C596 C 0.68933 0.48671 0.64229 0.0
C597 C 0.66496 0.47654 0.64083 0.0
C598 C 0.73494 0.48462 0.63397 0.0
C599 C 0.74732 0.48887 0.61727 0.0
C600 C 0.74723 0.49169 0.65051 0.0
C601 C 0.73592 0.48615 0.66866 0.0
C602 C 0.73311 0.50766 0.68144 0.0
C603 C 0.72235 0.50248 0.69852 0.0
C604 C 0.71443 0.47582 0.70301 0.0
C605 C 0.71735 0.45425 0.69044 0.0
C606 C 0.72812 0.45932 0.67336 0.0
C607 C 0.83625 0.55663 0.62085 0.0
C608 C 0.85655 0.54453 0.63002 0.0
C609 C 0.81236 0.54544 0.62243 0.0
C610 C 0.80824 0.52167 0.63303 0.0
C611 C 0.82825 0.51021 0.64285 0.0
C612 C 0.8522 0.52152 0.64135 0.0
C613 C 0.78332 0.50814 0.6331 0.0
C614 C 0.77115 0.50358 0.64984 0.0
C615 C 0.77138 0.50013 0.61663 0.0
C616 C 0.78386 0.50251 0.59857 0.0
C617 C 0.80701 0.48971 0.59549 0.0
C618 C 0.81878 0.4922 0.5785 0.0
C619 C 0.80749 0.50727 0.56444 0.0
C620 C 0.78439 0.51982 0.56733 0.0
C621 C 0.77255 0.51742 0.5843 0.0
H622 H 0.81664 0.50917 0.5513 0.0
H623 H 0.70609 0.47185 0.71623 0.0
H624 H 0.94012 0.01922 0.32282 0.0
H625 H 0.95031 0.00972 0.29073 0.0
H626 H 0.02862 0.01206 0.30389 0.0
H627 H 0.01861 0.02106 0.33588 0.0
H628 H 0.97443 0.04379 0.2685 0.0
H629 H 0.0621 0.97404 0.27366 0.0
H630 H 0.07849 0.93657 0.29313 0.0
H631 H 1.00402 0.91387 0.30829 0.0
H632 H 0.98717 0.95094 0.28872 0.0
H633 H 0.07105 0.02105 0.19251 0.0
H634 H 0.05862 0.01361 0.22442 0.0
H635 H 0.98194 0.00627 0.20752 0.0
H636 H 0.9941 0.014 0.17576 0.0
H637 H 0.03354 0.97386 0.24433 0.0
H638 H 0.94598 0.04246 0.23744 0.0
H639 H 0.9304 0.08083 0.21833 0.0
H640 H 1.00546 0.10666 0.20756 0.0
H641 H 0.02146 0.06872 0.2268 0.0
C642 C 0.95949 0.01709 0.31894 0.0
C643 C 0.97854 0.02097 0.33191 0.0
C644 C 0.9653 0.01177 0.30058 0.0
C645 C 0.99024 0.01004 0.29487 0.0
C646 C 0.00924 0.01283 0.30795 0.0
C647 C 1.00346 0.01813 0.32628 0.0
C648 C 0.99651 0.00794 0.27506 0.0
C649 C 0.98691 0.02809 0.26317 0.0
C650 C 0.01346 0.98803 0.26817 0.0
C651 C 0.02339 0.96545 0.27983 0.0
C652 C 0.04922 0.96098 0.28108 0.0
C653 C 0.05859 0.93982 0.29215 0.0
C654 C 0.04231 0.9229 0.30199 0.0
C655 C 0.01662 0.92705 0.30072 0.0
C656 C 1.00715 0.94817 0.28966 0.0
C657 C 0.05161 0.01733 0.19555 0.0
C658 C 0.03354 0.01845 0.18161 0.0
C659 C 0.04453 0.01305 0.2138 0.0
C660 C 0.0193 0.00989 0.21839 0.0
C661 C 1.00147 0.00914 0.20434 0.0
C662 C 0.00848 0.0135 0.18616 0.0
C663 C 0.01135 0.00962 0.23788 0.0
C664 C 0.02076 0.98924 0.24968 0.0
C665 C 0.99431 0.0294 0.24478 0.0
C666 C 0.98489 0.05254 0.23338 0.0
C667 C 0.95914 0.05639 0.23103 0.0
C668 C 0.95025 0.07806 0.22018 0.0
C669 C 0.96693 0.09611 0.21168 0.0
C670 C 0.99256 0.0926 0.21409 0.0
C671 C 1.00155 0.071 0.22495 0.0
H672 H 0.96001 0.11285 0.20327 0.0
H673 H 0.04961 0.90655 0.31056 0.0
H674 H 0.52226 0.98081 0.175 0.0
H675 H 0.53412 0.98853 0.20685 0.0
H676 H 0.4568 0.98729 0.2227 0.0
H677 H 0.44468 0.97966 0.19071 0.0
H678 H 0.48478 0.02679 0.2421 0.0
H679 H 0.48907 0.9302 0.22693 0.0
H680 H 0.502 0.88972 0.20872 0.0
H681 H 0.57879 0.90832 0.21957 0.0
H682 H 0.56631 0.94918 0.23764 0.0
H683 H 0.4962 0.98436 0.33507 0.0
H684 H 0.48665 0.99205 0.30283 0.0
H685 H 0.56473 0.98598 0.2896 0.0
H686 H 0.57444 0.97784 0.32193 0.0
H687 H 0.53775 0.9527 0.26844 0.0
H688 H 0.53293 0.04773 0.28591 0.0
H689 H 0.51937 0.08773 0.30433 0.0
H690 H 0.44324 0.07185 0.28969 0.0
H691 H 0.4563 0.03151 0.27138 0.0
C692 C 0.50769 0.98263 0.18518 0.0
C693 C 0.48251 0.97933 0.18032 0.0
C694 C 0.51454 0.987 0.2034 0.0
C695 C 0.49637 0.98805 0.21718 0.0
C696 C 0.47112 0.98647 0.21228 0.0
C697 C 0.46422 0.98207 0.19399 0.0
C698 C 0.50393 0.98854 0.23675 0.0
C699 C 0.49618 0.01051 0.24794 0.0
C700 C 0.5192 0.96754 0.24425 0.0
C701 C 0.52676 0.94292 0.23346 0.0
C702 C 0.50872 0.92579 0.2253 0.0
C703 C 0.51596 0.90276 0.21503 0.0
C704 C 0.5412 0.8965 0.21294 0.0
C705 C 0.55925 0.91323 0.22117 0.0
C706 C 0.5521 0.93631 0.23144 0.0
C707 C 0.51144 0.98516 0.32538 0.0
C708 C 0.5361 0.98037 0.33108 0.0
C709 C 0.50593 0.9897 0.30692 0.0
C710 C 0.52497 0.98973 0.29376 0.0
C711 C 0.54973 0.98605 0.29951 0.0
C712 C 0.55527 0.98152 0.31801 0.0
C713 C 0.51875 0.99106 0.27392 0.0
C714 C 0.52662 0.96924 0.26263 0.0
C715 C 0.50352 0.01216 0.26642 0.0
C716 C 0.49559 0.03644 0.27739 0.0
C717 C 0.51327 0.05263 0.28674 0.0
C718 C 0.50568 0.07539 0.29714 0.0
C719 C 0.48046 0.08229 0.29821 0.0
C720 C 0.46278 0.06647 0.28886 0.0
C721 C 0.47027 0.04367 0.27845 0.0
H722 H 0.47462 0.09993 0.30627 0.0
H723 H 0.54678 0.87865 0.20499 0.0
H724 H 0.07498 0.98304 0.68992 0.0
H725 H 0.06529 0.9911 0.72224 0.0
H726 H 0.98678 0.98951 0.70974 0.0
H727 H 0.99628 0.98211 0.67745 0.0
H728 H 0.99582 0.0269 0.73577 0.0
H729 H 0.01702 0.93161 0.72495 0.0
H730 H 0.04347 0.89313 0.71431 0.0
H731 H 0.10123 0.91805 0.75152 0.0
H732 H 0.07522 0.95693 0.76221 0.0
H733 H 0.94627 0.97957 0.82141 0.0
H734 H 0.95845 0.98796 0.78959 0.0
H735 H 0.03559 0.99152 0.80594 0.0
H736 H 0.02363 0.9829 0.83765 0.0
H737 H 0.02904 0.95605 0.77836 0.0
H738 H 1.00471 0.04943 0.79124 0.0
H739 H 0.97663 0.08644 0.80187 0.0
H740 H 0.92288 0.06358 0.76101 0.0
H741 H 0.9505 0.02617 0.75028 0.0
C742 C 0.05567 0.98495 0.69399 0.0
C743 C 0.03641 0.98165 0.68112 0.0
C744 C 0.05015 0.98942 0.71249 0.0
C745 C 0.02528 0.99037 0.71849 0.0
C746 C 1.00609 0.98876 0.70548 0.0
C747 C 0.01159 0.98444 0.687 0.0
C748 C 0.01914 0.99087 0.73835 0.0
C749 C 1.00297 0.01134 0.74508 0.0
C750 C 0.02867 0.97076 0.75058 0.0
C751 C 0.0443 0.94735 0.74422 0.0
C752 C 0.03544 0.929 0.73076 0.0
C753 C 0.05033 0.90711 0.72474 0.0
C754 C 0.07404 0.9032 0.7322 0.0
C755 C 0.08288 0.92114 0.74573 0.0
C756 C 0.06807 0.9431 0.75178 0.0
C757 C 0.96578 0.98269 0.81829 0.0
C758 C 0.98397 0.98042 0.83207 0.0
C759 C 0.97272 0.98754 0.80008 0.0
C760 C 0.99797 0.9904 0.79536 0.0
C761 C 0.01603 0.9893 0.80924 0.0
C762 C 0.00912 0.98444 0.82738 0.0
C763 C 1.00577 0.99215 0.77586 0.0
C764 C 0.02215 0.9719 0.76915 0.0
C765 C 0.99621 0.0123 0.76368 0.0
C766 C 0.9796 0.03484 0.77006 0.0
C767 C 0.98682 0.05215 0.78461 0.0
C768 C 0.971 0.07323 0.79064 0.0
C769 C 0.94796 0.07732 0.78215 0.0
C770 C 0.94072 0.06038 0.76758 0.0
C771 C 0.95647 0.03925 0.76151 0.0
H772 H 0.93574 0.09365 0.78684 0.0
H773 H 0.08555 0.88623 0.72752 0.0
H774 H 0.52106 0.01708 0.67739 0.0
H775 H 0.53101 0.00924 0.70952 0.0
H776 H 0.45271 0.00874 0.72267 0.0
H777 H 0.44258 0.01718 0.69045 0.0
H778 H 0.47702 0.04307 0.74437 0.0
H779 H 0.4892 0.94937 0.72556 0.0
H780 H 0.50587 0.91147 0.70659 0.0
H781 H 0.58044 0.93414 0.72164 0.0
H782 H 0.56424 0.97244 0.74051 0.0
H783 H 0.4956 0.01563 0.83752 0.0
H784 H 0.4838 0.00709 0.80575 0.0
H785 H 0.56067 0.01402 0.78935 0.0
H786 H 0.57274 0.0223 0.82128 0.0
H787 H 0.53554 0.97349 0.76975 0.0
H788 H 0.5239 0.069 0.78601 0.0
H789 H 0.50797 0.10762 0.8047 0.0
H790 H 0.43285 0.08194 0.79383 0.0
H791 H 0.44837 0.0429 0.77528 0.0
C792 C 0.50589 0.01479 0.68703 0.0
C793 C 0.481 0.01787 0.68134 0.0
C794 C 0.51164 0.01016 0.70544 0.0
C795 C 0.49263 0.00822 0.71856 0.0
C796 C 0.4677 0.01016 0.7128 0.0
C797 C 0.46193 0.01487 0.69436 0.0
C798 C 0.49889 0.00681 0.73839 0.0
C799 C 0.48938 0.02745 0.74996 0.0
C800 C 0.51568 0.987 0.74563 0.0
C801 C 0.52549 0.96392 0.73434 0.0
C802 C 0.50916 0.94642 0.72472 0.0
C803 C 0.51853 0.92483 0.714 0.0
C804 C 0.5442 0.92044 0.71288 0.0
C805 C 0.56056 0.93758 0.72251 0.0
C806 C 0.55129 0.95921 0.73324 0.0
C807 C 0.5101 0.01487 0.82723 0.0
C808 C 0.53511 0.01995 0.83191 0.0
C809 C 0.50329 0.01005 0.80905 0.0
C810 C 0.52128 0.01042 0.79513 0.0
C811 C 0.54647 0.01373 0.79988 0.0
C812 C 0.55333 0.0185 0.81812 0.0
C813 C 0.51354 0.00963 0.7756 0.0
C814 C 0.5229 0.98879 0.76413 0.0
C815 C 0.49668 0.02931 0.76836 0.0
C816 C 0.4873 0.05286 0.77943 0.0
C817 C 0.50399 0.07146 0.78773 0.0
C818 C 0.49504 0.09344 0.79828 0.0
C819 C 0.46942 0.09718 0.8005 0.0
C820 C 0.4527 0.07899 0.79213 0.0
C821 C 0.46156 0.05694 0.78159 0.0
H822 H 0.46252 0.11422 0.80867 0.0
H823 H 0.55141 0.90372 0.70457 0.0
H824 H 0.57266 0.52317 0.19226 0.0
H825 H 0.56091 0.51491 0.22417 0.0
H826 H 0.48445 0.50344 0.20767 0.0
H827 H 0.49596 0.51212 0.17587 0.0
H828 H 0.48754 0.54002 0.23447 0.0
H829 H 0.52047 0.4492 0.22388 0.0
H830 H 0.55194 0.41506 0.2142 0.0
H831 H 0.60291 0.44617 0.2546 0.0
H832 H 0.57186 0.48076 0.26436 0.0
H833 H 0.44444 0.51369 0.32389 0.0
H834 H 0.45451 0.50499 0.2917 0.0
H835 H 0.53266 0.51506 0.30369 0.0
H836 H 0.52284 0.52302 0.33585 0.0
H837 H 0.52683 0.47573 0.27879 0.0
H838 H 0.49713 0.56888 0.28707 0.0
H839 H 0.46729 0.60483 0.29671 0.0
H840 H 0.41211 0.57115 0.26041 0.0
H841 H 0.44155 0.53477 0.25074 0.0
C842 C 0.55344 0.51832 0.19538 0.0
C843 C 0.53523 0.51845 0.18153 0.0
C844 C 0.54674 0.51354 0.21364 0.0
C845 C 0.52177 0.5085 0.21835 0.0
C846 C 0.5038 0.50737 0.2044 0.0
C847 C 0.51045 0.51227 0.1862 0.0
C848 C 0.51396 0.50688 0.23786 0.0
C849 C 0.49579 0.52554 0.24406 0.0
C850 C 0.52523 0.4886 0.25054 0.0
C851 C 0.54389 0.46772 0.24475 0.0
C852 C 0.53845 0.4489 0.23061 0.0
C853 C 0.5562 0.42944 0.22513 0.0
C854 C 0.57942 0.42849 0.23375 0.0
C855 C 0.58492 0.44694 0.24792 0.0
C856 C 0.56724 0.46646 0.25345 0.0
C857 C 0.46379 0.51355 0.31973 0.0
C858 C 0.48281 0.51932 0.33241 0.0
C859 C 0.46952 0.50871 0.3013 0.0
C860 C 0.49433 0.50991 0.29518 0.0
C861 C 0.51339 0.51411 0.30803 0.0
C862 C 0.50771 0.51875 0.32644 0.0
C863 C 0.5004 0.50883 0.27532 0.0
C864 C 0.51834 0.48987 0.2691 0.0
C865 C 0.48912 0.52703 0.26259 0.0
C866 C 0.47143 0.54893 0.26835 0.0
C867 C 0.47857 0.56903 0.28125 0.0
C868 C 0.46174 0.5895 0.2867 0.0
C869 C 0.43779 0.59022 0.27922 0.0
C870 C 0.43065 0.57053 0.26622 0.0
C871 C 0.44739 0.54999 0.26075 0.0
H872 H 0.42479 0.60609 0.28345 0.0
H873 H 0.59314 0.41341 0.22948 0.0
H874 H 0.99302 0.48322 0.33649 0.0
H875 H 0.98107 0.49127 0.3047 0.0
H876 H 0.05822 0.4878 0.28852 0.0
H877 H 0.07042 0.48015 0.32047 0.0
H878 H 0.03227 0.52664 0.26872 0.0
H879 H 0.02265 0.43103 0.28527 0.0
H880 H 1.00743 0.39217 0.30402 0.0
H881 H 0.93185 0.41563 0.29265 0.0
H882 H 0.94664 0.4549 0.27405 0.0
H883 H 0.01955 0.48173 0.17643 0.0
H884 H 0.02907 0.49004 0.2086 0.0
H885 H 0.95066 0.48882 0.22138 0.0
H886 H 0.94098 0.47993 0.18913 0.0
H887 H 0.97554 0.45527 0.24332 0.0
H888 H 0.98586 0.54907 0.22421 0.0
H889 H 1.00192 0.58714 0.20516 0.0
H890 H 0.0768 0.56649 0.22065 0.0
H891 H 0.06122 0.52804 0.2396 0.0
C892 C 1.00753 0.48464 0.32624 0.0
C893 C 0.03267 0.48074 0.33099 0.0
C894 C 1.00063 0.48918 0.30805 0.0
C895 C 0.01869 0.48958 0.29417 0.0
C896 C 0.04396 0.48745 0.29899 0.0
C897 C 0.05091 0.48306 0.31726 0.0
C898 C 0.01104 0.48998 0.27461 0.0
C899 C 0.02002 0.51094 0.26309 0.0
C900 C 0.99468 0.46977 0.26735 0.0
C901 C 0.98575 0.44608 0.27844 0.0
C902 C 1.00278 0.42803 0.28689 0.0
C903 C 0.99424 0.40591 0.29747 0.0
C904 C 0.96869 0.40148 0.29957 0.0
C905 C 0.95163 0.41912 0.29104 0.0
C906 C 0.96009 0.4413 0.28048 0.0
C907 C 1.00426 0.48372 0.186 0.0
C908 C 0.97948 0.48005 0.1802 0.0
C909 C 0.00975 0.48862 0.20443 0.0
C910 C 0.9906 0.49024 0.21745 0.0
C911 C 0.96576 0.48767 0.21158 0.0
C912 C 0.96024 0.48269 0.19313 0.0
C913 C 0.99665 0.49202 0.23731 0.0
C914 C 0.9875 0.47126 0.24891 0.0
C915 C 0.01294 0.51234 0.24456 0.0
C916 C 0.02237 0.53552 0.23322 0.0
C917 C 1.00577 0.55251 0.22345 0.0
C918 C 0.01478 0.57419 0.21269 0.0
C919 C 0.04036 0.5792 0.21166 0.0
C920 C 0.05698 0.56258 0.22144 0.0
C921 C 0.04807 0.54086 0.23222 0.0
H922 H 0.0473 0.59599 0.20332 0.0
H923 H 0.96211 0.38435 0.30776 0.0
H924 H 0.49647 0.48081 0.6781 0.0
H925 H 0.48664 0.48977 0.71011 0.0
H926 H 0.56501 0.49149 0.72312 0.0
H927 H 0.57502 0.48188 0.69103 0.0
H928 H 0.54127 0.45799 0.74545 0.0
H929 H 0.52787 0.55066 0.72518 0.0
H930 H 0.51074 0.58762 0.70564 0.0
H931 H 0.43646 0.56452 0.72103 0.0
H932 H 0.45312 0.52715 0.74047 0.0
H933 H 0.52176 0.48805 0.8382 0.0
H934 H 0.5337 0.49601 0.80641 0.0
H935 H 0.45711 0.48701 0.78963 0.0
H936 H 0.4449 0.47929 0.82155 0.0
H937 H 0.48179 0.52747 0.7697 0.0
H938 H 0.49481 0.43269 0.78732 0.0
H939 H 0.51132 0.39508 0.80662 0.0
H940 H 0.58603 0.42193 0.79562 0.0
H941 H 0.56993 0.45997 0.77647 0.0
C942 C 0.51168 0.4836 0.68768 0.0
C943 C 0.53656 0.48051 0.682 0.0
C944 C 0.506 0.48888 0.70602 0.0
C945 C 0.52507 0.49151 0.71907 0.0
C946 C 0.54998 0.48956 0.7133 0.0
C947 C 0.55568 0.48417 0.69493 0.0
C948 C 0.51889 0.49363 0.73889 0.0
C949 C 0.5287 0.47361 0.75079 0.0
C950 C 0.50186 0.51344 0.74582 0.0
C951 C 0.49176 0.53595 0.73418 0.0
C952 C 0.50787 0.55332 0.72429 0.0
C953 C 0.49825 0.57437 0.71325 0.0
C954 C 0.47253 0.57838 0.71206 0.0
C955 C 0.45638 0.56138 0.72195 0.0
C956 C 0.46591 0.54028 0.733 0.0
C957 C 0.50734 0.48825 0.82782 0.0
C958 C 0.48239 0.48272 0.83239 0.0
C959 C 0.51423 0.49275 0.80963 0.0
C960 C 0.49637 0.4916 0.79561 0.0
C961 C 0.47121 0.48789 0.80023 0.0
C962 C 0.46427 0.48345 0.81848 0.0
C963 C 0.50426 0.49193 0.77611 0.0
C964 C 0.49465 0.5122 0.76432 0.0
C965 C 0.52143 0.4723 0.7692 0.0
C966 C 0.53116 0.44936 0.78063 0.0
C967 C 0.51475 0.43071 0.78914 0.0
C968 C 0.52404 0.40929 0.80003 0.0
C969 C 0.54971 0.40617 0.80239 0.0
C970 C 0.56615 0.42441 0.79381 0.0
C971 C 0.55696 0.44589 0.78293 0.0
H972 H 0.55686 0.38957 0.81083 0.0
H973 H 0.46511 0.59469 0.70351 0.0
H974 H 0.07539 0.51845 0.82191 0.0
H975 H 0.06581 0.51017 0.78958 0.0
H976 H 0.98735 0.50892 0.80213 0.0
H977 H 0.99675 0.51667 0.83443 0.0
H978 H 0.99792 0.47159 0.7759 0.0
H979 H 0.01498 0.56773 0.78729 0.0
H980 H 0.03976 0.6074 0.79818 0.0
H981 H 0.09844 0.58608 0.76084 0.0
H982 H 0.07413 0.54602 0.74991 0.0
H983 H 0.94598 0.51842 0.69076 0.0
H984 H 0.95871 0.50975 0.72246 0.0
H985 H 0.03577 0.50966 0.70587 0.0
H986 H 0.02326 0.51847 0.67428 0.0
H987 H 0.0279 0.5447 0.73374 0.0
H988 H 1.00769 0.45045 0.72023 0.0
H989 H 0.98135 0.41204 0.70935 0.0
H990 H 0.92681 0.43111 0.75042 0.0
H991 H 0.95266 0.4699 0.76138 0.0
C992 C 0.05613 0.51587 0.81785 0.0
C993 C 0.03683 0.51852 0.83073 0.0
C994 C 0.05067 0.51126 0.79935 0.0
C995 C 0.02582 0.50943 0.79337 0.0
C996 C 1.00664 0.51034 0.80639 0.0
C997 C 0.01207 0.51488 0.82487 0.0
C998 C 0.01964 0.50884 0.77352 0.0
C999 C 1.00435 0.48764 0.76668 0.0
C1000 C 0.02825 0.5296 0.76143 0.0
C1001 C 0.04287 0.5537 0.76794 0.0
C1002 C 0.03326 0.57138 0.78151 0.0
C1003 C 0.0472 0.59395 0.78767 0.0
C1004 C 0.0707 0.59921 0.78025 0.0
C1005 C 0.08027 0.58194 0.76661 0.0
C1006 C 0.06641 0.55931 0.76042 0.0
C1007 C 0.9656 0.51598 0.6938 0.0
C1008 C 0.98359 0.51929 0.68 0.0
C1009 C 0.97286 0.51097 0.71193 0.0
C1010 C 0.99822 0.50905 0.71656 0.0
C1011 C 0.01611 0.51114 0.70264 0.0
C1012 C 0.00889 0.51611 0.68456 0.0
C1013 C 1.00623 0.50739 0.73602 0.0
C1014 C 0.02173 0.52837 0.74285 0.0
C1015 C 0.99761 0.48657 0.74807 0.0
C1016 C 0.98202 0.46324 0.74152 0.0
C1017 C 0.98998 0.4466 0.72684 0.0
C1018 C 0.97516 0.42473 0.72068 0.0
C1019 C 0.95239 0.41918 0.72916 0.0
C1020 C 0.94443 0.43545 0.74385 0.0
C1021 C 0.95918 0.45736 0.75006 0.0
H1022 H 0.94095 0.40223 0.72437 0.0
H1023 H 0.08146 0.6167 0.78503 0.0
H1024 H 0.08323 0.15901 0.12721 0.0
H1025 H 0.06667 0.20622 0.12843 0.0
H1026 H 0.99368 0.17417 0.14077 0.0
H1027 H 0.00991 0.12715 0.1396 0.0
H1028 H 0.99277 0.21276 0.11316 0.0
H1029 H 0.02728 0.20374 0.17385 0.0
H1030 H 0.06047 0.19409 0.1963 0.0
H1031 H 0.10486 0.25946 0.17365 0.0
H1032 H 0.07205 0.26926 0.15089 0.0
H1033 H 0.93313 0.33996 0.13377 0.0
H1034 H 0.94941 0.29273 0.13555 0.0
H1035 H 0.02443 0.32416 0.13158 0.0
H1036 H 0.00839 0.37123 0.13056 0.0
H1037 H 0.02415 0.28528 0.15533 0.0
H1038 H 0.99194 0.29399 0.09424 0.0
H1039 H 0.96033 0.30374 0.07059 0.0
H1040 H 0.91372 0.23945 0.09218 0.0
H1041 H 0.94494 0.22955 0.11611 0.0
C1042 C 0.0637 0.16202 0.13031 0.0
C1043 C 0.04793 0.13925 0.1333 0.0
C1044 C 0.05428 0.18901 0.13104 0.0
C1045 C 0.02895 0.19368 0.13474 0.0
C1046 C 0.01326 0.17103 0.13785 0.0
C1047 C 0.02264 0.14413 0.13724 0.0
C1048 C 0.01852 0.22209 0.13492 0.0
C1049 C 0.99939 0.22856 0.12254 0.0
C1050 C 0.02763 0.24284 0.14681 0.0
C1051 C 0.04731 0.23706 0.16055 0.0
C1052 C 0.0442 0.21591 0.17356 0.0
C1053 C 0.06293 0.21044 0.18636 0.0
C1054 C 0.08479 0.2261 0.18637 0.0
C1055 C 0.08793 0.24732 0.17361 0.0
C1056 C 0.06927 0.25286 0.16077 0.0
C1057 C 0.95309 0.33677 0.13335 0.0
C1058 C 0.96944 0.35936 0.13198 0.0
C1059 C 0.96239 0.30975 0.13427 0.0
C1060 C 0.98818 0.30477 0.13339 0.0
C1061 C 1.00448 0.32737 0.13229 0.0
C1062 C 0.99524 0.35433 0.13167 0.0
C1063 C 0.99834 0.27612 0.13351 0.0
C1064 C 0.01745 0.26955 0.14594 0.0
C1065 C 0.98944 0.25535 0.12147 0.0
C1066 C 0.97066 0.26123 0.10708 0.0
C1067 C 0.97487 0.28207 0.09403 0.0
C1068 C 0.95704 0.2876 0.08056 0.0
C1069 C 0.935 0.27228 0.07992 0.0
C1070 C 0.93078 0.25134 0.09271 0.0
C1071 C 0.94854 0.24574 0.10622 0.0
H1072 H 0.92121 0.27659 0.06948 0.0
H1073 H 0.09927 0.22183 0.1963 0.0
H1074 H 0.43205 0.83956 0.12962 0.0
H1075 H 0.44852 0.79225 0.13107 0.0
H1076 H 0.5233 0.82435 0.1342 0.0
H1077 H 0.50715 0.87143 0.13294 0.0
H1078 H 0.51734 0.78208 0.10806 0.0
H1079 H 0.49832 0.80044 0.17149 0.0
H1080 H 0.47106 0.81396 0.19714 0.0
H1081 H 0.4218 0.74657 0.18473 0.0
H1082 H 0.4486 0.73288 0.15884 0.0
H1083 H 0.58292 0.6593 0.12967 0.0
H1084 H 0.56631 0.70642 0.13054 0.0
H1085 H 0.49198 0.67403 0.13697 0.0
H1086 H 0.50843 0.62711 0.13668 0.0
H1087 H 0.49719 0.71672 0.15821 0.0
H1088 H 0.51419 0.698 0.09508 0.0
H1089 H 0.53951 0.68411 0.06846 0.0
H1090 H 0.58992 0.75127 0.07873 0.0
H1091 H 0.56506 0.76535 0.10557 0.0
C1092 C 0.45198 0.83652 0.1307 0.0
C1093 C 0.46826 0.85929 0.1312 0.0
C1094 C 0.46135 0.80951 0.13155 0.0
C1095 C 0.48713 0.80486 0.13277 0.0
C1096 C 0.50336 0.82751 0.13323 0.0
C1097 C 0.49404 0.85442 0.1326 0.0
C1098 C 0.49737 0.7764 0.13332 0.0
C1099 C 0.51319 0.76785 0.11912 0.0
C1100 C 0.49139 0.75769 0.1475 0.0
C1101 C 0.47533 0.76582 0.16311 0.0
C1102 C 0.48156 0.78865 0.17414 0.0
C1103 C 0.46622 0.79632 0.18874 0.0
C1104 C 0.44468 0.78118 0.19253 0.0
C1105 C 0.43847 0.7583 0.18176 0.0
C1106 C 0.45374 0.75057 0.16713 0.0
C1107 C 0.56306 0.66223 0.13138 0.0
C1108 C 0.54703 0.63939 0.13302 0.0
C1109 C 0.55356 0.68918 0.13178 0.0
C1110 C 0.52781 0.69381 0.13353 0.0
C1111 C 0.51188 0.67105 0.1356 0.0
C1112 C 0.52137 0.64417 0.13538 0.0
C1113 C 0.51731 0.72227 0.13294 0.0
C1114 C 0.50139 0.73086 0.14712 0.0
C1115 C 0.52293 0.74092 0.11859 0.0
C1116 C 0.5379 0.73255 0.10244 0.0
C1117 C 0.53078 0.70968 0.09174 0.0
C1118 C 0.54503 0.70179 0.0766 0.0
C1119 C 0.56635 0.71675 0.07194 0.0
C1120 C 0.57343 0.73968 0.08238 0.0
C1121 C 0.55925 0.74763 0.09755 0.0
H1122 H 0.57736 0.71062 0.06021 0.0
H1123 H 0.43282 0.78715 0.20385 0.0
H1124 H 0.43246 0.65905 0.38599 0.0
H1125 H 0.44837 0.70654 0.38444 0.0
H1126 H 0.52256 0.67536 0.3753 0.0
H1127 H 0.50698 0.62811 0.37674 0.0
H1128 H 0.52063 0.71553 0.40235 0.0
H1129 H 0.49126 0.70187 0.34053 0.0
H1130 H 0.45999 0.69019 0.31701 0.0
H1131 H 0.41322 0.7564 0.33581 0.0
H1132 H 0.44408 0.76822 0.35962 0.0
H1133 H 0.58182 0.84064 0.37991 0.0
H1134 H 0.56544 0.79343 0.37886 0.0
H1135 H 0.49041 0.82542 0.37924 0.0
H1136 H 0.50658 0.87245 0.37961 0.0
H1137 H 0.49231 0.78454 0.35663 0.0
H1138 H 0.51957 0.79833 0.41849 0.0
H1139 H 0.54913 0.8102 0.44313 0.0
H1140 H 0.59755 0.74442 0.42603 0.0
H1141 H 0.56841 0.73237 0.40112 0.0
C1142 C 0.45213 0.66232 0.38355 0.0
C1143 C 0.46842 0.63974 0.38148 0.0
C1144 C 0.46118 0.68945 0.38263 0.0
C1145 C 0.48664 0.69443 0.37972 0.0
C1146 C 0.50286 0.67197 0.3776 0.0
C1147 C 0.49385 0.64494 0.37835 0.0
C1148 C 0.49665 0.72299 0.37924 0.0
C1149 C 0.51468 0.73056 0.39223 0.0
C1150 C 0.48836 0.74275 0.36634 0.0
C1151 C 0.46986 0.73574 0.35197 0.0
C1152 C 0.47422 0.71379 0.33975 0.0
C1153 C 0.45659 0.70717 0.32635 0.0
C1154 C 0.4346 0.7225 0.32495 0.0
C1155 C 0.43024 0.74452 0.33692 0.0
C1156 C 0.4478 0.7512 0.35036 0.0
C1157 C 0.56185 0.83759 0.37967 0.0
C1158 C 0.54554 0.86033 0.37991 0.0
C1159 C 0.55248 0.81059 0.37917 0.0
C1160 C 0.52664 0.80579 0.37928 0.0
C1161 C 0.51039 0.82851 0.37915 0.0
C1162 C 0.51971 0.85544 0.3794 0.0
C1163 C 0.51642 0.7772 0.37976 0.0
C1164 C 0.49832 0.76959 0.36678 0.0
C1165 C 0.52439 0.75748 0.39285 0.0
C1166 C 0.54193 0.76464 0.40783 0.0
C1167 C 0.53661 0.78653 0.4199 0.0
C1168 C 0.55327 0.79327 0.43392 0.0
C1169 C 0.57524 0.77812 0.43611 0.0
C1170 C 0.58055 0.75616 0.4243 0.0
C1171 C 0.56396 0.74935 0.41024 0.0
H1172 H 0.58812 0.78337 0.44698 0.0
H1173 H 0.42098 0.71735 0.31456 0.0
H1174 H 0.072 0.34473 0.40411 0.0
H1175 H 0.05456 0.29802 0.40287 0.0
H1176 H 0.01117 0.32079 0.35541 0.0
H1177 H 0.0276 0.36774 0.3572 0.0
H1178 H 0.98299 0.29417 0.37649 0.0
H1179 H 0.0651 0.27725 0.35378 0.0
H1180 H 0.11102 0.2783 0.35388 0.0
H1181 H 0.1122 0.23082 0.40353 0.0
H1182 H 0.06626 0.22979 0.40385 0.0
H1183 H 0.99175 0.13376 0.35911 0.0
H1184 H 0.0088 0.18044 0.35743 0.0
H1185 H 0.95859 0.20668 0.40018 0.0
H1186 H 0.94067 0.16021 0.40129 0.0
H1187 H 0.03371 0.20868 0.38012 0.0
H1188 H 0.94672 0.27478 0.39771 0.0
H1189 H 0.90118 0.27358 0.39325 0.0
H1190 H 0.91043 0.22242 0.34566 0.0
H1191 H 0.95602 0.2236 0.3497 0.0
C1192 C 0.05897 0.33962 0.3933 0.0
C1193 C 0.05116 0.35986 0.38076 0.0
C1194 C 0.04903 0.31288 0.39255 0.0
C1195 C 0.03163 0.30568 0.37894 0.0
C1196 C 0.0244 0.32578 0.36612 0.0
C1197 C 0.03391 0.3526 0.3671 0.0
C1198 C 0.0202 0.27763 0.37838 0.0
C1199 C 0.99414 0.2755 0.37723 0.0
C1200 C 0.03462 0.25313 0.37908 0.0
C1201 C 0.06224 0.25367 0.37892 0.0
C1202 C 0.07516 0.2672 0.36479 0.0
C1203 C 0.10118 0.26776 0.36476 0.0
C1204 C 0.11452 0.25469 0.37873 0.0
C1205 C 0.10185 0.24097 0.39273 0.0
C1206 C 0.07582 0.24036 0.39283 0.0
C1207 C 0.98411 0.14958 0.36798 0.0
C1208 C 0.96479 0.14335 0.38028 0.0
C1209 C 0.99397 0.17625 0.36708 0.0
C1210 C 0.98497 0.19725 0.3786 0.0
C1211 C 0.96555 0.19108 0.39085 0.0
C1212 C 0.95533 0.16448 0.39152 0.0
C1213 C 0.99652 0.22524 0.37815 0.0
C1214 C 0.02258 0.22736 0.37927 0.0
C1215 C 0.98216 0.24971 0.37678 0.0
C1216 C 0.95476 0.24905 0.37413 0.0
C1217 C 0.93903 0.26335 0.38626 0.0
C1218 C 0.91321 0.26266 0.38381 0.0
C1219 C 0.90292 0.24786 0.36922 0.0
C1220 C 0.91842 0.23379 0.357 0.0
C1221 C 0.94425 0.23443 0.35938 0.0
H1222 H 0.88292 0.24734 0.36735 0.0
H1223 H 0.13467 0.25515 0.37868 0.0
H1224 H 0.08328 0.65913 0.88298 0.0
H1225 H 0.06699 0.70638 0.88185 0.0
H1226 H 0.99254 0.67453 0.87485 0.0
H1227 H 0.00868 0.62748 0.87539 0.0
H1228 H 0.99827 0.71698 0.85359 0.0
H1229 H 0.01451 0.69865 0.91691 0.0
H1230 H 0.03948 0.68491 0.94376 0.0
H1231 H 0.09026 0.75172 0.93369 0.0
H1232 H 0.06577 0.76565 0.90661 0.0
H1233 H 0.93321 0.84016 0.88163 0.0
H1234 H 0.94957 0.79281 0.88016 0.0
H1235 H 0.02447 0.82469 0.87781 0.0
H1236 H 0.00843 0.87181 0.87909 0.0
H1237 H 0.01813 0.78257 0.90377 0.0
H1238 H 0.99983 0.80069 0.84022 0.0
H1239 H 0.97298 0.81411 0.8143 0.0
H1240 H 0.92345 0.74686 0.82631 0.0
H1241 H 0.94985 0.73327 0.85248 0.0
C1242 C 0.06347 0.6622 0.88109 0.0
C1243 C 0.0473 0.63949 0.87936 0.0
C1244 C 0.05414 0.68923 0.88055 0.0
C1245 C 0.02845 0.69405 0.87857 0.0
C1246 C 0.01241 0.6714 0.87641 0.0
C1247 C 0.02171 0.64445 0.87677 0.0
C1248 C 0.01812 0.72259 0.879 0.0
C1249 C 1.00241 0.73117 0.86469 0.0
C1250 C 0.02368 0.74132 0.89336 0.0
C1251 C 0.03845 0.73301 0.90962 0.0
C1252 C 0.03111 0.71028 0.92034 0.0
C1253 C 0.04516 0.70248 0.93561 0.0
C1254 C 0.06648 0.71738 0.94039 0.0
C1255 C 0.07377 0.74017 0.92994 0.0
C1256 C 0.0598 0.74804 0.91464 0.0
C1257 C 0.95314 0.83707 0.88071 0.0
C1258 C 0.96949 0.85979 0.88045 0.0
C1259 C 0.96245 0.81004 0.87984 0.0
C1260 C 0.98823 0.80531 0.87884 0.0
C1261 C 1.00453 0.82791 0.87859 0.0
C1262 C 0.99527 0.85485 0.87924 0.0
C1263 C 0.99841 0.77682 0.87838 0.0
C1264 C 0.01405 0.76829 0.8927 0.0
C1265 C 0.99252 0.75804 0.86418 0.0
C1266 C 0.97667 0.76615 0.84843 0.0
C1267 C 0.9831 0.78891 0.83744 0.0
C1268 C 0.96799 0.79652 0.82268 0.0
C1269 C 0.94649 0.7814 0.8187 0.0
C1270 C 0.94009 0.75858 0.82944 0.0
C1271 C 0.95513 0.75091 0.84422 0.0
H1272 H 0.93481 0.78731 0.80726 0.0
H1273 H 0.07733 0.71131 0.95223 0.0
H1274 H 0.4338 0.34179 0.88026 0.0
H1275 H 0.45021 0.29461 0.87878 0.0
H1276 H 0.52518 0.32667 0.87795 0.0
H1277 H 0.50897 0.37368 0.87876 0.0
H1278 H 0.5225 0.28589 0.85525 0.0
H1279 H 0.49751 0.2994 0.91761 0.0
H1280 H 0.46882 0.31116 0.9428 0.0
H1281 H 0.41992 0.24536 0.92647 0.0
H1282 H 0.44817 0.23344 0.90103 0.0
H1283 H 0.58433 0.1613 0.88397 0.0
H1284 H 0.56781 0.20854 0.88245 0.0
H1285 H 0.49377 0.17626 0.87439 0.0
H1286 H 0.50997 0.12922 0.87578 0.0
H1287 H 0.49611 0.2167 0.90141 0.0
H1288 H 0.52344 0.20312 0.83916 0.0
H1289 H 0.55392 0.19165 0.81509 0.0
H1290 H 0.60087 0.25829 0.83295 0.0
H1291 H 0.57081 0.26992 0.85731 0.0
C1292 C 0.45377 0.33877 0.87966 0.0
C1293 C 0.47005 0.36153 0.8797 0.0
C1294 C 0.46315 0.31178 0.87892 0.0
C1295 C 0.48899 0.30701 0.87857 0.0
C1296 C 0.5052 0.32974 0.87822 0.0
C1297 C 0.49586 0.35667 0.87873 0.0
C1298 C 0.49927 0.27843 0.8788 0.0
C1299 C 0.51691 0.2709 0.86549 0.0
C1300 C 0.49183 0.25864 0.892 0.0
C1301 C 0.47483 0.26572 0.90731 0.0
C1302 C 0.48055 0.28758 0.91931 0.0
C1303 C 0.46438 0.29424 0.93365 0.0
C1304 C 0.44253 0.27906 0.9362 0.0
C1305 C 0.43683 0.25713 0.92446 0.0
C1306 C 0.45292 0.25039 0.91009 0.0
C1307 C 0.56456 0.16427 0.88176 0.0
C1308 C 0.5485 0.14144 0.88 0.0
C1309 C 0.55517 0.19126 0.88086 0.0
C1310 C 0.52957 0.19586 0.87827 0.0
C1311 C 0.51357 0.17315 0.87643 0.0
C1312 C 0.52293 0.14626 0.87716 0.0
C1313 C 0.51923 0.2243 0.87789 0.0
C1314 C 0.50162 0.23176 0.89118 0.0
C1315 C 0.52696 0.2441 0.86485 0.0
C1316 C 0.54499 0.23721 0.85017 0.0
C1317 C 0.54036 0.21518 0.83805 0.0
C1318 C 0.55754 0.20868 0.82434 0.0
C1319 C 0.57935 0.22419 0.82252 0.0
C1320 C 0.58399 0.24627 0.83439 0.0
C1321 C 0.56687 0.25284 0.84814 0.0
H1322 H 0.59263 0.21912 0.8119 0.0
H1323 H 0.43004 0.28425 0.94731 0.0
H1324 H 0.50826 0.12675 0.63466 0.0
H1325 H 0.52403 0.17381 0.63641 0.0
H1326 H 0.44883 0.20526 0.63543 0.0
H1327 H 0.43283 0.15794 0.63303 0.0
H1328 H 0.47659 0.23441 0.61344 0.0
H1329 H 0.4853 0.20447 0.67542 0.0
H1330 H 0.49817 0.17361 0.70056 0.0
H1331 H 0.57486 0.18427 0.68557 0.0
H1332 H 0.56243 0.21491 0.66018 0.0
H1333 H 0.50914 0.37069 0.63932 0.0
H1334 H 0.4928 0.32371 0.6405 0.0
H1335 H 0.56672 0.29115 0.63239 0.0
H1336 H 0.58339 0.33832 0.63112 0.0
H1337 H 0.53908 0.26328 0.65977 0.0
H1338 H 0.52916 0.29283 0.59723 0.0
H1339 H 0.51543 0.32436 0.5727 0.0
H1340 H 0.43947 0.31509 0.58995 0.0
H1341 H 0.4528 0.28379 0.61477 0.0
C1342 C 0.49499 0.14361 0.63494 0.0
C1343 C 0.46924 0.13853 0.63378 0.0
C1344 C 0.50408 0.17058 0.63605 0.0
C1345 C 0.48764 0.19314 0.63638 0.0
C1346 C 0.46189 0.18818 0.63526 0.0
C1347 C 0.45276 0.16113 0.63393 0.0
C1348 C 0.49748 0.22186 0.63724 0.0
C1349 C 0.48992 0.24081 0.62378 0.0
C1350 C 0.51534 0.23013 0.65047 0.0
C1351 C 0.5229 0.21181 0.66579 0.0
C1352 C 0.5049 0.20008 0.6774 0.0
C1353 C 0.51212 0.18265 0.69171 0.0
C1354 C 0.53732 0.17693 0.69464 0.0
C1355 C 0.55535 0.1887 0.68328 0.0
C1356 C 0.54823 0.20613 0.66894 0.0
C1357 C 0.52204 0.35361 0.6379 0.0
C1358 C 0.54761 0.35832 0.63503 0.0
C1359 C 0.5126 0.32675 0.63852 0.0
C1360 C 0.5285 0.304 0.63634 0.0
C1361 C 0.55414 0.30848 0.63406 0.0
C1362 C 0.56362 0.33543 0.6333 0.0
C1363 C 0.51815 0.27559 0.636 0.0
C1364 C 0.52565 0.25678 0.64952 0.0
C1365 C 0.50008 0.2675 0.62295 0.0
C1366 C 0.49201 0.28619 0.60797 0.0
C1367 C 0.50955 0.29769 0.59589 0.0
C1368 C 0.50184 0.31549 0.58191 0.0
C1369 C 0.4766 0.32178 0.5798 0.0
C1370 C 0.45902 0.31022 0.59162 0.0
C1371 C 0.46664 0.29244 0.60564 0.0
H1372 H 0.47066 0.33556 0.56897 0.0
H1373 H 0.54287 0.16342 0.70572 0.0
H1374 H 0.08268 0.84131 0.6328 0.0
H1375 H 0.06621 0.79418 0.63443 0.0
H1376 H 0.99125 0.82639 0.63437 0.0
H1377 H 1.00752 0.87335 0.63343 0.0
H1378 H 0.99349 0.7862 0.6574 0.0
H1379 H 0.01973 0.79814 0.59516 0.0
H1380 H 0.04894 0.80911 0.57016 0.0
H1381 H 0.09729 0.74349 0.58764 0.0
H1382 H 0.06851 0.73236 0.6129 0.0
H1383 H 0.93191 0.66108 0.62942 0.0
H1384 H 0.94841 0.70832 0.63083 0.0
H1385 H 0.02243 0.67607 0.63914 0.0
H1386 H 1.00626 0.62905 0.63781 0.0
H1387 H 0.02054 0.71585 0.61214 0.0
H1388 H 0.99205 0.70383 0.67424 0.0
H1389 H 0.96112 0.69307 0.69812 0.0
H1390 H 0.91468 0.75947 0.6792 0.0
H1391 H 0.94519 0.77038 0.65503 0.0
C1392 C 0.0627 0.83833 0.63322 0.0
C1393 C 0.04644 0.86111 0.63292 0.0
C1394 C 0.05329 0.81137 0.63405 0.0
C1395 C 0.02743 0.80666 0.63421 0.0
C1396 C 0.01124 0.82942 0.63426 0.0
C1397 C 0.02061 0.85632 0.63368 0.0
C1398 C 0.01712 0.7781 0.63415 0.0
C1399 C 0.99922 0.77095 0.64735 0.0
C1400 C 0.02476 0.75798 0.62121 0.0
C1401 C 0.04209 0.76461 0.60603 0.0
C1402 C 0.03668 0.78619 0.59375 0.0
C1403 C 0.05315 0.79241 0.57953 0.0
C1404 C 0.07499 0.77706 0.57735 0.0
C1405 C 0.08038 0.7554 0.58936 0.0
C1406 C 0.06399 0.74911 0.60363 0.0
C1407 C 0.95167 0.66405 0.63168 0.0
C1408 C 0.96774 0.64124 0.6335 0.0
C1409 C 0.96105 0.69105 0.63252 0.0
C1410 C 0.98664 0.69566 0.63513 0.0
C1411 C 1.00264 0.67296 0.63708 0.0
C1412 C 0.9933 0.64607 0.63638 0.0
C1413 C 0.99701 0.72408 0.63536 0.0
C1414 C 0.01488 0.73117 0.62217 0.0
C1415 C 0.98909 0.74422 0.64814 0.0
C1416 C 0.97079 0.73774 0.66271 0.0
C1417 C 0.97515 0.71599 0.67507 0.0
C1418 C 0.95771 0.70989 0.68868 0.0
C1419 C 0.93592 0.72553 0.69015 0.0
C1420 C 0.93155 0.74735 0.67803 0.0
C1421 C 0.94892 0.75351 0.66439 0.0
H1422 H 0.92244 0.72078 0.7007 0.0
H1423 H 0.08771 0.78191 0.56633 0.0
H1424 H 0.93677 0.95932 0.95101 0.0
H1425 H 0.95323 0.97131 0.98115 0.0
H1426 H 0.01837 0.00685 0.95594 0.0
H1427 H 1.00217 0.99465 0.92568 0.0
H1428 H 0.03091 0.97233 0.98338 0.0
H1429 H 0.97411 0.0478 0.97542 0.0
H1430 H 0.93371 0.06991 0.96882 0.0
H1431 H 0.90073 0.02775 0.01447 0.0
H1432 H 0.94087 0.00507 0.0212 0.0
H1433 H 0.07977 0.03923 0.06241 0.0
H1434 H 0.06301 0.0271 0.0324 0.0
H1435 H 0.99791 0.99213 0.058 0.0
H1436 H 0.0144 0.00451 0.08815 0.0
H1437 H 0.98521 0.02614 0.03043 0.0
H1438 H 0.04193 0.95075 0.03846 0.0
H1439 H 0.08226 0.9285 0.04507 0.0
H1440 H 0.11532 0.97032 0.99931 0.0
H1441 H 0.07525 0.99313 0.99257 0.0
C1442 C 0.95445 0.97002 0.95182 0.0
C1443 C 0.96815 0.97598 0.93588 0.0
C1444 C 0.96382 0.97692 0.96909 0.0
C1445 C 0.98701 0.99007 0.97082 0.0
C1446 C 1.00046 0.99665 0.95494 0.0
C1447 C 0.99109 0.9898 0.93764 0.0
C1448 C 0.99773 0.99576 0.98922 0.0
C1449 C 0.02109 0.98446 0.99357 0.0
C1450 C 0.9846 0.0109 1.00271 0.0
C1451 C 0.96044 0.02453 0.9987 0.0
C1452 C 0.95819 0.04306 0.98396 0.0
C1453 C 0.93535 0.05573 0.98021 0.0
C1454 C 0.91465 0.05019 0.99119 0.0
C1455 C 0.91677 0.032 1.00596 0.0
C1456 C 0.93957 0.01925 0.00976 0.0
C1457 C 0.06203 0.02863 0.06172 0.0
C1458 C 0.04844 0.02288 0.07774 0.0
C1459 C 0.05249 0.02165 0.04451 0.0
C1460 C 0.02924 0.0086 0.04293 0.0
C1461 C 0.01588 0.00224 0.05889 0.0
C1462 C 0.02541 0.0092 0.07613 0.0
C1463 C 0.01841 0.00274 0.02459 0.0
C1464 C 0.99503 0.01401 0.02024 0.0
C1465 C 0.03151 0.98755 0.0111 0.0
C1466 C 0.05564 0.97385 0.01512 0.0
C1467 C 0.05785 0.95538 0.02989 0.0
C1468 C 0.08066 0.94263 0.03365 0.0
C1469 C 0.10136 0.94805 0.02265 0.0
C1470 C 0.09927 0.96617 0.00784 0.0
C1471 C 0.07651 0.979 1.00403 0.0
H1472 H 0.11899 0.93815 0.02557 0.0
H1473 H 0.89698 0.06002 0.98826 0.0
H1474 H 0.57984 0.04264 0.95131 0.0
H1475 H 0.56286 0.03022 0.98118 0.0
H1476 H 0.49904 0.99324 0.95495 0.0
H1477 H 0.51573 0.00589 0.92496 0.0
H1478 H 0.48509 0.02706 0.98231 0.0
H1479 H 0.54379 0.95329 0.97495 0.0
H1480 H 0.58481 0.93233 0.96883 0.0
H1481 H 0.61584 0.97526 0.015 0.0
H1482 H 0.57507 0.99679 0.02126 0.0
H1483 H 0.43639 0.95889 0.06092 0.0
H1484 H 0.45327 0.97139 0.03103 0.0
H1485 H 0.51715 0.00836 0.05721 0.0
H1486 H 0.50056 0.99562 0.0872 0.0
H1487 H 0.53105 0.97452 0.02986 0.0
H1488 H 0.47236 0.04831 0.03721 0.0
H1489 H 0.43135 0.0693 0.04332 0.0
H1490 H 0.4003 0.02634 0.99717 0.0
H1491 H 0.44107 0.00478 0.99092 0.0
C1492 C 0.56234 0.03155 0.95184 0.0
C1493 C 0.54915 0.0253 0.93569 0.0
C1494 C 0.55267 0.02441 0.96896 0.0
C1495 C 0.52971 0.0107 0.97032 0.0
C1496 C 0.51677 0.00386 0.95423 0.0
C1497 C 0.52642 0.01098 0.93709 0.0
C1498 C 0.5187 0.00461 0.98855 0.0
C1499 C 0.49498 0.0152 0.99261 0.0
C1500 C 0.53188 0.98981 1.00217 0.0
C1501 C 0.55642 0.97686 0.99846 0.0
C1502 C 0.55941 0.95844 0.98371 0.0
C1503 C 0.5826 0.94642 0.98024 0.0
C1504 C 0.60293 0.95251 0.99149 0.0
C1505 C 0.60008 0.97059 1.00628 0.0
C1506 C 0.57693 0.98269 0.00981 0.0
C1507 C 0.45388 0.97 0.06037 0.0
C1508 C 0.46712 0.97621 0.0765 0.0
C1509 C 0.46349 0.9772 0.04324 0.0
C1510 C 0.48645 0.99091 0.04186 0.0
C1511 C 0.49942 0.99773 0.05794 0.0
C1512 C 0.48983 0.99056 0.07509 0.0
C1513 C 0.49744 0.99698 0.02363 0.0
C1514 C 0.52116 0.98638 0.01956 0.0
C1515 C 0.48426 0.01177 0.01 0.0
C1516 C 0.45972 0.02472 0.01371 0.0
C1517 C 0.45674 0.04315 0.02845 0.0
C1518 C 0.43355 0.05519 0.03192 0.0
C1519 C 0.41322 0.0491 0.02067 0.0
C1520 C 0.41606 0.03101 1.00589 0.0
C1521 C 0.43921 0.01889 1.00237 0.0
H1522 H 0.39528 0.05844 0.02337 0.0
H1523 H 0.62088 0.94318 0.98878 0.0
H1524 H 0.50011 0.002 0.5874 0.0
H1525 H 0.51653 0.99026 0.55717 0.0
H1526 H 0.45419 0.0313 0.53169 0.0
H1527 H 0.43742 0.04279 0.56183 0.0
H1528 H 0.46534 0.98398 0.51408 0.0
H1529 H 0.51022 0.06359 0.53559 0.0
H1530 H 0.53566 0.0904 0.55742 0.0
H1531 H 0.59408 0.03004 0.55361 0.0
H1532 H 0.56883 0.00265 0.53194 0.0
H1533 H 0.5159 0.99746 0.42518 0.0
H1534 H 0.49951 0.00938 0.45538 0.0
H1535 H 0.56172 0.96822 0.48094 0.0
H1536 H 0.57845 0.95652 0.45083 0.0
H1537 H 0.55062 0.01566 0.4985 0.0
H1538 H 0.50575 0.93602 0.47704 0.0
H1539 H 0.48034 0.90917 0.45522 0.0
H1540 H 0.42192 0.96955 0.45894 0.0
H1541 H 0.44715 0.99698 0.4806 0.0
C1542 C 0.4897 0.00825 0.57538 0.0
C1543 C 0.46751 0.02353 0.57707 0.0
C1544 C 0.49921 0.00166 0.5581 0.0
C1545 C 0.48684 0.01035 0.54216 0.0
C1546 C 0.46413 0.0245 0.5438 0.0
C1547 C 0.45458 0.03108 0.56106 0.0
C1548 C 0.4979 0.00546 0.52379 0.0
C1549 C 0.48387 0.9912 0.5106 0.0
C1550 C 0.52226 0.01443 0.51935 0.0
C1551 C 0.53753 0.03093 0.53229 0.0
C1552 C 0.52842 0.05592 0.53952 0.0
C1553 C 0.54281 0.07124 0.55184 0.0
C1554 C 0.56644 0.06189 0.55693 0.0
C1555 C 0.57576 0.03723 0.54967 0.0
C1556 C 0.56142 0.02182 0.53736 0.0
C1557 C 0.52629 0.99122 0.4372 0.0
C1558 C 0.54842 0.97584 0.43555 0.0
C1559 C 0.5168 0.99792 0.45448 0.0
C1560 C 0.52914 0.98924 0.47043 0.0
C1561 C 0.55181 0.97501 0.46882 0.0
C1562 C 0.56134 0.96832 0.45157 0.0
C1563 C 0.51807 0.99419 0.48879 0.0
C1564 C 0.53209 0.00845 0.50198 0.0
C1565 C 0.4937 0.98522 0.49323 0.0
C1566 C 0.47844 0.96869 0.48029 0.0
C1567 C 0.48756 0.94368 0.4731 0.0
C1568 C 0.47318 0.92834 0.46078 0.0
C1569 C 0.44956 0.93769 0.45566 0.0
C1570 C 0.44024 0.96236 0.46289 0.0
C1571 C 0.45456 0.9778 0.4752 0.0
H1572 H 0.43845 0.92578 0.44612 0.0
H1573 H 0.57756 0.07378 0.56647 0.0
H1574 H 0.08052 0.95852 0.5617 0.0
H1575 H 0.06428 0.97064 0.53152 0.0
H1576 H 1.00024 0.00876 0.55666 0.0
H1577 H 0.01621 0.99648 0.58694 0.0
H1578 H 0.98678 0.97399 0.52947 0.0
H1579 H 0.04566 0.04783 0.537 0.0
H1580 H 0.08678 0.06846 0.54327 0.0
H1581 H 0.11785 0.02482 0.49744 0.0
H1582 H 0.07696 0.00363 0.49105 0.0
H1583 H 0.93728 0.04275 0.45196 0.0
H1584 H 0.95486 0.02972 0.48149 0.0
H1585 H 0.01885 0.99467 0.45436 0.0
H1586 H 1.00156 0.00814 0.42465 0.0
H1587 H 0.03299 0.02669 0.48221 0.0
H1588 H 0.9743 0.95336 0.47425 0.0
H1589 H 0.93336 0.93235 0.46791 0.0
H1590 H 0.90219 0.97424 0.51441 0.0
H1591 H 0.94288 0.99582 0.52089 0.0
C1592 C 0.06314 0.96981 0.56086 0.0
C1593 C 0.04966 0.97648 0.57679 0.0
C1594 C 0.0539 0.97677 0.54356 0.0
C1595 C 0.03107 0.99068 0.54181 0.0
C1596 C 0.01787 0.99797 0.55769 0.0
C1597 C 0.02711 0.99105 0.575 0.0
C1598 C 0.02039 0.99647 0.52343 0.0
C1599 C 0.99673 0.98586 0.51922 0.0
C1600 C 0.0337 0.01118 0.50985 0.0
C1601 C 0.0583 0.02393 0.51366 0.0
C1602 C 0.0613 0.04245 0.52836 0.0
C1603 C 0.08456 0.05428 0.53191 0.0
C1604 C 0.10493 0.0479 0.52079 0.0
C1605 C 0.10206 0.02972 0.50606 0.0
C1606 C 0.07885 0.01781 0.50245 0.0
C1607 C 0.95496 0.03197 0.45219 0.0
C1608 C 0.96799 0.0265 0.43587 0.0
C1609 C 0.96497 0.02445 0.46914 0.0
C1610 C 0.98811 0.01102 0.47017 0.0
C1611 C 1.00097 0.00503 0.4539 0.0
C1612 C 0.99099 0.01262 0.43691 0.0
C1613 C 0.99929 0.00435 0.48828 0.0
C1614 C 0.02305 0.01476 0.49244 0.0
C1615 C 0.9861 0.98937 0.5018 0.0
C1616 C 0.9616 0.9764 0.49796 0.0
C1617 C 0.95867 0.95827 0.48304 0.0
C1618 C 0.93551 0.94622 0.47944 0.0
C1619 C 0.91517 0.95201 0.49072 0.0
C1620 C 0.91796 0.9698 0.50567 0.0
C1621 C 0.94107 0.98192 0.50933 0.0
H1622 H 0.89726 0.94267 0.48791 0.0
H1623 H 0.12292 0.05708 0.52357 0.0
H1624 H 0.57936 0.54172 0.06208 0.0
H1625 H 0.56229 0.5298 0.0321 0.0
H1626 H 0.49898 0.49151 0.05802 0.0
H1627 H 0.51606 0.50303 0.08813 0.0
H1628 H 0.51492 0.46149 0.02897 0.0
H1629 H 0.49458 0.55643 0.04107 0.0
H1630 H 0.50352 0.60487 0.04931 0.0
H1631 H 0.55108 0.61266 1.00237 0.0
H1632 H 0.54269 0.56411 0.99399 0.0
H1633 H 0.43627 0.45761 0.9514 0.0
H1634 H 0.45275 0.46937 0.9816 0.0
H1635 H 0.51613 0.50864 0.9564 0.0
H1636 H 0.49962 0.49733 0.92611 0.0
H1637 H 0.49976 0.53821 0.98525 0.0
H1638 H 0.52039 0.4432 0.97328 0.0
H1639 H 0.51158 0.39471 0.96507 0.0
H1640 H 0.46359 0.38703 0.01178 0.0
H1641 H 0.47184 0.43562 0.02012 0.0
C1642 C 0.56195 0.53047 0.06146 0.0
C1643 C 0.54899 0.52354 0.07755 0.0
C1644 C 0.55215 0.5238 0.04428 0.0
C1645 C 0.52912 0.51025 0.04281 0.0
C1646 C 0.51671 0.50212 0.05883 0.0
C1647 C 0.52652 0.50874 0.07604 0.0
C1648 C 0.51758 0.5054 0.02458 0.0
C1649 C 0.51131 0.4783 0.0195 0.0
C1650 C 0.51328 0.52728 0.01208 0.0
C1651 C 0.51819 0.55655 0.017 0.0
C1652 C 0.50708 0.56841 0.03258 0.0
C1653 C 0.51203 0.5959 0.03726 0.0
C1654 C 0.52791 0.61181 0.0264 0.0
C1655 C 0.53881 0.60029 0.01079 0.0
C1656 C 0.53395 0.5728 1.00605 0.0
C1657 C 0.45357 0.46904 0.95224 0.0
C1658 C 0.46671 0.47633 0.93629 0.0
C1659 C 0.46304 0.47561 0.96954 0.0
C1660 C 0.48593 0.48942 0.97128 0.0
C1661 C 0.49851 0.49785 0.9554 0.0
C1662 C 0.48903 0.49135 0.93808 0.0
C1663 C 0.49714 0.49428 0.98961 0.0
C1664 C 0.50335 0.52139 0.99472 0.0
C1665 C 0.50139 0.47241 1.00213 0.0
C1666 C 0.49654 0.44313 0.99722 0.0
C1667 C 0.50781 0.43123 0.98172 0.0
C1668 C 0.50294 0.40372 0.97705 0.0
C1669 C 0.48698 0.38782 0.98786 0.0
C1670 C 0.47592 0.39938 1.0034 0.0
C1671 C 0.4807 0.4269 0.00811 0.0
H1672 H 0.48323 0.36652 0.98423 0.0
H1673 H 0.53172 0.63309 0.03005 0.0
H1674 H 0.99929 0.49575 0.08618 0.0
H1675 H 0.01547 0.50777 0.05598 0.0
H1676 H 0.95243 0.46797 0.03054 0.0
H1677 H 0.93627 0.45549 0.06068 0.0
H1678 H 0.99487 0.45177 0.01481 0.0
H1679 H 0.95806 0.53857 0.03116 0.0
H1680 H 0.95006 0.57926 0.05065 0.0
H1681 H 0.02747 0.6012 0.04832 0.0
H1682 H 0.036 0.56041 0.02901 0.0
H1683 H 0.0156 0.50295 0.92442 0.0
H1684 H 0.99892 0.49083 0.95448 0.0
H1685 H 0.06198 0.5297 0.9805 0.0
H1686 H 0.07867 0.5422 0.95053 0.0
H1687 H 0.01918 0.54641 0.99582 0.0
H1688 H 0.05597 0.45942 0.97958 0.0
H1689 H 0.06391 0.41876 0.96006 0.0
H1690 H 0.9864 0.39723 0.96211 0.0
H1691 H 0.97793 0.438 0.98146 0.0
C1692 C 0.98866 0.48985 0.07419 0.0
C1693 C 0.96647 0.47461 0.0759 0.0
C1694 C 0.99793 0.4968 0.05691 0.0
C1695 C 0.98512 0.48887 0.04097 0.0
C1696 C 0.96267 0.47424 0.04264 0.0
C1697 C 0.9534 0.46725 0.05991 0.0
C1698 C 0.99569 0.49475 0.02257 0.0
C1699 C 0.99983 0.47253 0.01055 0.0
C1700 C 1.00278 0.52172 0.01717 0.0
C1701 C 0.9977 0.54628 0.02878 0.0
C1702 C 0.97342 0.55194 0.03493 0.0
C1703 C 0.96878 0.57505 0.04592 0.0
C1704 C 0.98826 0.59276 0.05076 0.0
C1705 C 0.0124 0.58744 0.04458 0.0
C1706 C 0.01715 0.56435 0.03359 0.0
C1707 C 0.02612 0.50861 0.93651 0.0
C1708 C 0.04848 0.5236 0.93502 0.0
C1709 C 0.01656 0.50162 0.95371 0.0
C1710 C 0.02923 0.50929 0.96976 0.0
C1711 C 0.05184 0.52364 0.96831 0.0
C1712 C 0.06142 0.53065 0.95113 0.0
C1713 C 0.01839 0.50343 0.98808 0.0
C1714 C 0.01419 0.52565 1.00007 0.0
C1715 C 0.01124 0.47647 0.99345 0.0
C1716 C 0.01628 0.45193 0.98182 0.0
C1717 C 0.04058 0.44615 0.97575 0.0
C1718 C 0.04518 0.42305 0.96474 0.0
C1719 C 0.02566 0.40546 0.95981 0.0
C1720 C 1.0015 0.4109 0.96592 0.0
C1721 C 0.99679 0.43398 0.97692 0.0
H1722 H 0.02926 0.38759 0.95128 0.0
H1723 H 0.98463 0.61064 0.05927 0.0
H1724 H 0.93173 0.53976 0.5622 0.0
H1725 H 0.94716 0.52845 0.53161 0.0
H1726 H 0.0165 0.50042 0.55495 0.0
H1727 H 1.00127 0.51169 0.5856 0.0
H1728 H 0.02346 0.53673 0.52651 0.0
H1729 H 0.97597 0.45445 0.53818 0.0
H1730 H 0.93857 0.4278 0.5466 0.0
H1731 H 0.89886 0.46267 0.50108 0.0
H1732 H 0.93594 0.48984 0.49253 0.0
H1733 H 0.0772 0.46921 0.45028 0.0
H1734 H 0.05949 0.48248 0.4797 0.0
H1735 H 0.9907 0.50504 0.45306 0.0
H1736 H 0.00821 0.49139 0.42345 0.0
H1737 H 0.98208 0.47335 0.48257 0.0
H1738 H 0.02949 0.55453 0.47016 0.0
H1739 H 0.06655 0.58169 0.46164 0.0
H1740 H 0.10588 0.55 0.50834 0.0
H1741 H 0.06916 0.52233 0.51701 0.0
C1742 C 0.95015 0.53086 0.56088 0.0
C1743 C 0.96527 0.52668 0.57639 0.0
C1744 C 0.95892 0.52437 0.54337 0.0
C1745 C 0.98298 0.51359 0.541 0.0
C1746 C 0.9979 0.50879 0.55647 0.0
C1747 C 0.98909 0.5151 0.574 0.0
C1748 C 0.99301 0.50846 0.52237 0.0
C1749 C 0.01461 0.5226 0.51698 0.0
C1750 C 0.98097 0.49073 0.50973 0.0
C1751 C 0.95865 0.47441 0.51484 0.0
C1752 C 0.9592 0.45663 0.53006 0.0
C1753 C 0.93807 0.44139 0.53484 0.0
C1754 C 0.91633 0.4436 0.52441 0.0
C1755 C 0.9157 0.46101 0.50916 0.0
C1756 C 0.93677 0.47632 0.50433 0.0
C1757 C 0.0584 0.47731 0.45058 0.0
C1758 C 0.04414 0.47921 0.43445 0.0
C1759 C 0.04831 0.48498 0.46745 0.0
C1760 C 0.0238 0.49492 0.4686 0.0
C1761 C 0.00966 0.49741 0.4525 0.0
C1762 C 0.01976 0.48975 0.43557 0.0
C1763 C 0.01271 0.50144 0.48675 0.0
C1764 C 0.99089 0.4876 0.49205 0.0
C1765 C 0.02449 0.51954 0.4993 0.0
C1766 C 0.04663 0.53616 0.49414 0.0
C1767 C 0.04611 0.55317 0.47853 0.0
C1768 C 0.06704 0.56869 0.47369 0.0
C1769 C 0.08857 0.56752 0.48442 0.0
C1770 C 0.08919 0.55086 0.50003 0.0
C1771 C 0.06832 0.53528 0.50493 0.0
H1772 H 0.10476 0.57956 0.48065 0.0
H1773 H 0.89999 0.43178 0.52813 0.0
H1774 H 0.58041 0.45386 0.56283 0.0
H1775 H 0.56422 0.46588 0.53263 0.0
H1776 H 0.50116 0.50606 0.55772 0.0
H1777 H 0.51704 0.49379 0.58804 0.0
H1778 H 0.48662 0.47196 0.53074 0.0
H1779 H 0.54776 0.54354 0.53763 0.0
H1780 H 0.58947 0.56278 0.54374 0.0
H1781 H 0.61924 0.51716 0.4983 0.0
H1782 H 0.57775 0.49735 0.49206 0.0
H1783 H 0.43983 0.54051 0.45203 0.0
H1784 H 0.45664 0.52766 0.48185 0.0
H1785 H 0.51968 0.48915 0.4556 0.0
H1786 H 0.5032 0.50241 0.42561 0.0
H1787 H 0.53456 0.52166 0.48299 0.0
H1788 H 0.47346 0.45043 0.47582 0.0
H1789 H 0.43181 0.43107 0.46968 0.0
H1790 H 0.40206 0.47568 0.51557 0.0
H1791 H 0.44348 0.49562 0.52185 0.0
C1792 C 0.56325 0.46556 0.56198 0.0
C1793 C 0.55003 0.47283 0.57791 0.0
C1794 C 0.55404 0.47247 0.54467 0.0
C1795 C 0.53152 0.48698 0.54289 0.0
C1796 C 0.51855 0.49481 0.55876 0.0
C1797 C 0.52774 0.4879 0.57609 0.0
C1798 C 0.52096 0.49292 0.52449 0.0
C1799 C 0.49696 0.48319 0.52038 0.0
C1800 C 0.53473 0.50683 0.51079 0.0
C1801 C 0.55969 0.51875 0.51449 0.0
C1802 C 0.56324 0.53743 0.52903 0.0
C1803 C 0.58683 0.54847 0.5325 0.0
C1804 C 0.607 0.54114 0.52145 0.0
C1805 C 0.6036 0.52279 0.50686 0.0
C1806 C 0.58005 0.51167 0.50335 0.0
C1807 C 0.45713 0.52901 0.45253 0.0
C1808 C 0.47016 0.52251 0.43638 0.0
C1809 C 0.46669 0.52159 0.46964 0.0
C1810 C 0.48936 0.50727 0.47099 0.0
C1811 C 0.50217 0.50023 0.45489 0.0
C1812 C 0.49264 0.5077 0.43775 0.0
C1813 C 0.50018 0.50077 0.48924 0.0
C1814 C 0.52423 0.51039 0.49333 0.0
C1815 C 0.48647 0.48672 0.50292 0.0
C1816 C 0.46154 0.47471 0.4992 0.0
C1817 C 0.458 0.45628 0.48452 0.0
C1818 C 0.43443 0.44517 0.48103 0.0
C1819 C 0.41429 0.45219 0.4922 0.0
C1820 C 0.41768 0.47029 0.50691 0.0
C1821 C 0.4412 0.48147 0.51046 0.0
H1822 H 0.39606 0.44357 0.48947 0.0
H1823 H 0.62525 0.54971 0.52415 0.0
loop_
_geom_bond_atom_site_label_1
_geom_bond_atom_site_label_2
_geom_bond_distance
_geom_bond_site_symmetry_2
_ccdc_geom_bond_type
O0 Cd1 2.223 . S
O0 C8 1.315 . S
Cd1 O0 2.223 . S
Cd1 O4 2.297 . S
Cd1 O5 2.439 . S
Cd1 O11 2.240 . S
Cd2 O3 2.240 . S
Cd2 O10 2.223 . S
Cd2 O12 2.297 . S
Cd2 O13 2.439 . S
O3 Cd2 2.240 . S
O3 C8 1.279 . S
O4 Cd1 2.297 . S
O4 C6 1.247 . S
O5 Cd1 2.439 . S
O5 C6 1.208 . S
C6 O4 1.247 . S
C6 O5 1.208 . S
C7 O12 1.247 . S
C7 O13 1.208 . S
C8 O0 1.315 . S
C8 O3 1.279 . S
C9 O10 1.315 . S
C9 O11 1.279 . S
O10 Cd2 2.223 . S
O10 C9 1.315 . S
O11 Cd1 2.240 . S
O11 C9 1.279 . S
O12 Cd2 2.297 . S
O12 C7 1.247 . S
O13 Cd2 2.439 . S
O13 C7 1.208 . S
O14 Cd15 2.223 . S
O14 C22 1.315 . S
Cd15 O14 2.223 . S
Cd15 O18 2.297 . S
Cd15 O19 2.439 . S
Cd15 O25 2.240 . S
Cd16 O17 2.240 . S
Cd16 O24 2.223 . S
Cd16 O26 2.297 . S
Cd16 O27 2.439 . S
O17 Cd16 2.240 . S
O17 C22 1.279 . S
O18 Cd15 2.297 . S
O18 C20 1.247 . S
O19 Cd15 2.439 . S
O19 C20 1.208 . S
C20 O18 1.247 . S
C20 O19 1.208 . S
C21 O26 1.247 . S
C21 O27 1.208 . S
C22 O14 1.315 . S
C22 O17 1.279 . S
C23 O24 1.315 . S
C23 O25 1.279 . S
O24 Cd16 2.223 . S
O24 C23 1.315 . S
O25 Cd15 2.240 . S
O25 C23 1.279 . S
O26 Cd16 2.297 . S
O26 C21 1.247 . S
O27 Cd16 2.439 . S
O27 C21 1.208 . S
O28 Cd29 2.223 . S
O28 C36 1.315 . S
Cd29 O28 2.223 . S
Cd29 O32 2.297 . S
Cd29 O33 2.439 . S
Cd29 O39 2.240 . S
Cd30 O31 2.240 . S
Cd30 O38 2.223 . S
Cd30 O40 2.297 . S
Cd30 O41 2.439 . S
O31 Cd30 2.240 . S
O31 C36 1.279 . S
O32 Cd29 2.297 . S
O32 C34 1.247 . S
O33 Cd29 2.439 . S
O33 C34 1.208 . S
C34 O32 1.247 . S
C34 O33 1.208 . S
C35 O40 1.247 . S
C35 O41 1.208 . S
C36 O28 1.315 . S
C36 O31 1.279 . S
C37 O38 1.315 . S
C37 O39 1.279 . S
O38 Cd30 2.223 . S
O38 C37 1.315 . S
O39 Cd29 2.240 . S
O39 C37 1.279 . S
O40 Cd30 2.297 . S
O40 C35 1.247 . S
O41 Cd30 2.439 . S
O41 C35 1.208 . S
O42 Cd43 2.223 . S
O42 C50 1.315 . S
Cd43 O42 2.223 . S
Cd43 O46 2.297 . S
Cd43 O47 2.439 . S
Cd43 O53 2.240 . S
Cd44 O45 2.240 . S
Cd44 O52 2.223 . S
Cd44 O54 2.297 . S
Cd44 O55 2.439 . S
O45 Cd44 2.240 . S
O45 C50 1.279 . S
O46 Cd43 2.297 . S
O46 C48 1.247 . S
O47 Cd43 2.439 . S
O47 C48 1.208 . S
C48 O46 1.247 . S
C48 O47 1.208 . S
C49 O54 1.247 . S
C49 O55 1.208 . S
C50 O42 1.315 . S
C50 O45 1.279 . S
C51 O52 1.315 . S
C51 O53 1.279 . S
O52 Cd44 2.223 . S
O52 C51 1.315 . S
O53 Cd43 2.240 . S
O53 C51 1.279 . S
O54 Cd44 2.297 . S
O54 C49 1.247 . S
O55 Cd44 2.439 . S
O55 C49 1.208 . S
O56 Cd57 2.223 . S
O56 C64 1.315 . S
Cd57 O56 2.223 . S
Cd57 O60 2.297 . S
Cd57 O61 2.439 . S
Cd57 O67 2.240 . S
Cd58 O59 2.240 . S
Cd58 O66 2.223 . S
Cd58 O68 2.297 . S
Cd58 O69 2.439 . S
O59 Cd58 2.240 . S
O59 C64 1.279 . S
O60 Cd57 2.297 . S
O60 C62 1.247 . S
O61 Cd57 2.439 . S
O61 C62 1.208 . S
C62 O60 1.247 . S
C62 O61 1.208 . S
C63 O68 1.247 . S
C63 O69 1.208 . S
C64 O56 1.315 . S
C64 O59 1.279 . S
C65 O66 1.315 . S
C65 O67 1.279 . S
O66 Cd58 2.223 . S
O66 C65 1.315 . S
O67 Cd57 2.240 . S
O67 C65 1.279 . S
O68 Cd58 2.297 . S
O68 C63 1.247 . S
O69 Cd58 2.439 . S
O69 C63 1.208 . S
O70 Cd71 2.223 . S
O70 C78 1.315 . S
Cd71 O70 2.223 . S
Cd71 O74 2.297 . S
Cd71 O75 2.439 . S
Cd71 O81 2.240 . S
Cd72 O73 2.240 . S
Cd72 O80 2.223 . S
Cd72 O82 2.297 . S
Cd72 O83 2.439 . S
O73 Cd72 2.240 . S
O73 C78 1.279 . S
O74 Cd71 2.297 . S
O74 C76 1.247 . S
O75 Cd71 2.439 . S
O75 C76 1.208 . S
C76 O74 1.247 . S
C76 O75 1.208 . S
C77 O82 1.247 . S
C77 O83 1.208 . S
C78 O70 1.315 . S
C78 O73 1.279 . S
C79 O80 1.315 . S
C79 O81 1.279 . S
O80 Cd72 2.223 . S
O80 C79 1.315 . S
O81 Cd71 2.240 . S
O81 C79 1.279 . S
O82 Cd72 2.297 . S
O82 C77 1.247 . S
O83 Cd72 2.439 . S
O83 C77 1.208 . S
O84 Cd85 2.223 . S
O84 C92 1.315 . S
Cd85 O84 2.223 . S
Cd85 O88 2.297 . S
Cd85 O89 2.439 . S
Cd85 O95 2.240 . S
Cd86 O87 2.240 . S
Cd86 O94 2.223 . S
Cd86 O96 2.297 . S
Cd86 O97 2.439 . S
O87 Cd86 2.240 . S
O87 C92 1.279 . S
O88 Cd85 2.297 . S
O88 C90 1.247 . S
O89 Cd85 2.439 . S
O89 C90 1.208 . S
C90 O88 1.247 . S
C90 O89 1.208 . S
C91 O96 1.247 . S
C91 O97 1.208 . S
C92 O84 1.315 . S
C92 O87 1.279 . S
C93 O94 1.315 . S
C93 O95 1.279 . S
O94 Cd86 2.223 . S
O94 C93 1.315 . S
O95 Cd85 2.240 . S
O95 C93 1.279 . S
O96 Cd86 2.297 . S
O96 C91 1.247 . S
O97 Cd86 2.439 . S
O97 C91 1.208 . S
O98 Cd99 2.223 . S
O98 C106 1.315 . S
Cd99 O98 2.223 . S
Cd99 O102 2.297 . S
Cd99 O103 2.439 . S
Cd99 O109 2.240 . S
Cd100 O101 2.240 . S
Cd100 O108 2.223 . S
Cd100 O110 2.297 . S
Cd100 O111 2.439 . S
O101 Cd100 2.240 . S
O101 C106 1.279 . S
O102 Cd99 2.297 . S
O102 C104 1.247 . S
O103 Cd99 2.439 . S
O103 C104 1.208 . S
C104 O102 1.247 . S
C104 O103 1.208 . S
C105 O110 1.247 . S
C105 O111 1.208 . S
C106 O98 1.315 . S
C106 O101 1.279 . S
C107 O108 1.315 . S
C107 O109 1.279 . S
O108 Cd100 2.223 . S
O108 C107 1.315 . S
O109 Cd99 2.240 . S
O109 C107 1.279 . S
O110 Cd100 2.297 . S
O110 C105 1.247 . S
O111 Cd100 2.439 . S
O111 C105 1.208 . S
O112 Cd113 2.223 . S
O112 C120 1.315 . S
Cd113 O112 2.223 . S
Cd113 O116 2.297 . S
Cd113 O117 2.439 . S
Cd113 O123 2.240 . S
Cd114 O115 2.240 . S
Cd114 O122 2.223 . S
Cd114 O124 2.297 . S
Cd114 O125 2.439 . S
O115 Cd114 2.240 . S
O115 C120 1.279 . S
O116 Cd113 2.297 . S
O116 C118 1.247 . S
O117 Cd113 2.439 . S
O117 C118 1.208 . S
C118 O116 1.247 . S
C118 O117 1.208 . S
C119 O124 1.247 . S
C119 O125 1.208 . S
C120 O112 1.315 . S
C120 O115 1.279 . S
C121 O122 1.315 . S
C121 O123 1.279 . S
O122 Cd114 2.223 . S
O122 C121 1.315 . S
O123 Cd113 2.240 . S
O123 C121 1.279 . S
O124 Cd114 2.297 . S
O124 C119 1.247 . S
O125 Cd114 2.439 . S
O125 C119 1.208 . S
O126 Cd127 2.223 . S
O126 C134 1.315 . S
Cd127 O126 2.223 . S
Cd127 O130 2.297 . S
Cd127 O131 2.439 . S
Cd127 O137 2.240 . S
Cd128 O129 2.240 . S
Cd128 O136 2.223 . S
Cd128 O138 2.297 . S
Cd128 O139 2.439 . S
O129 Cd128 2.240 . S
O129 C134 1.279 . S
O130 Cd127 2.297 . S
O130 C132 1.247 . S
O131 Cd127 2.439 . S
O131 C132 1.208 . S
C132 O130 1.247 . S
C132 O131 1.208 . S
C133 O138 1.247 . S
C133 O139 1.208 . S
C134 O126 1.315 . S
C134 O129 1.279 . S
C135 O136 1.315 . S
C135 O137 1.279 . S
O136 Cd128 2.223 . S
O136 C135 1.315 . S
O137 Cd127 2.240 . S
O137 C135 1.279 . S
O138 Cd128 2.297 . S
O138 C133 1.247 . S
O139 Cd128 2.439 . S
O139 C133 1.208 . S
O140 Cd141 2.223 . S
O140 C148 1.315 . S
Cd141 O140 2.223 . S
Cd141 O144 2.297 . S
Cd141 O145 2.439 . S
Cd141 O151 2.240 . S
Cd142 O143 2.240 . S
Cd142 O150 2.223 . S
Cd142 O152 2.297 . S
Cd142 O153 2.439 . S
O143 Cd142 2.240 . S
O143 C148 1.279 . S
O144 Cd141 2.297 . S
O144 C146 1.247 . S
O145 Cd141 2.439 . S
O145 C146 1.208 . S
C146 O144 1.247 . S
C146 O145 1.208 . S
C147 O152 1.247 . S
C147 O153 1.208 . S
C148 O140 1.315 . S
C148 O143 1.279 . S
C149 O150 1.315 . S
C149 O151 1.279 . S
O150 Cd142 2.223 . S
O150 C149 1.315 . S
O151 Cd141 2.240 . S
O151 C149 1.279 . S
O152 Cd142 2.297 . S
O152 C147 1.247 . S
O153 Cd142 2.439 . S
O153 C147 1.208 . S
O154 Cd155 2.223 . S
O154 C162 1.315 . S
Cd155 O154 2.223 . S
Cd155 O158 2.297 . S
Cd155 O159 2.439 . S
Cd155 O165 2.240 . S
Cd156 O157 2.240 . S
Cd156 O164 2.223 . S
Cd156 O166 2.297 . S
Cd156 O167 2.439 . S
O157 Cd156 2.240 . S
O157 C162 1.279 . S
O158 Cd155 2.297 . S
O158 C160 1.247 . S
O159 Cd155 2.439 . S
O159 C160 1.208 . S
C160 O158 1.247 . S
C160 O159 1.208 . S
C161 O166 1.247 . S
C161 O167 1.208 . S
C162 O154 1.315 . S
C162 O157 1.279 . S
C163 O164 1.315 . S
C163 O165 1.279 . S
O164 Cd156 2.223 . S
O164 C163 1.315 . S
O165 Cd155 2.240 . S
O165 C163 1.279 . S
O166 Cd156 2.297 . S
O166 C161 1.247 . S
O167 Cd156 2.439 . S
O167 C161 1.208 . S
O168 Cd169 2.223 . S
O168 C176 1.315 . S
Cd169 O168 2.223 . S
Cd169 O172 2.297 . S
Cd169 O173 2.439 . S
Cd169 O179 2.240 . S
Cd170 O171 2.240 . S
Cd170 O178 2.223 . S
Cd170 O180 2.297 . S
Cd170 O181 2.439 . S
O171 Cd170 2.240 . S
O171 C176 1.279 . S
O172 Cd169 2.297 . S
O172 C174 1.247 . S
O173 Cd169 2.439 . S
O173 C174 1.208 . S
C174 O172 1.247 . S
C174 O173 1.208 . S
C175 O180 1.247 . S
C175 O181 1.208 . S
C176 O168 1.315 . S
C176 O171 1.279 . S
C177 O178 1.315 . S
C177 O179 1.279 . S
O178 Cd170 2.223 . S
O178 C177 1.315 . S
O179 Cd169 2.240 . S
O179 C177 1.279 . S
O180 Cd170 2.297 . S
O180 C175 1.247 . S
O181 Cd170 2.439 . S
O181 C175 1.208 . S
O182 Cd183 2.223 . S
O182 C190 1.315 . S
Cd183 O182 2.223 . S
Cd183 O186 2.297 . S
Cd183 O187 2.439 . S
Cd183 O193 2.240 . S
Cd184 O185 2.240 . S
Cd184 O192 2.223 . S
Cd184 O194 2.297 . S
Cd184 O195 2.439 . S
O185 Cd184 2.240 . S
O185 C190 1.279 . S
O186 Cd183 2.297 . S
O186 C188 1.247 . S
O187 Cd183 2.439 . S
O187 C188 1.208 . S
C188 O186 1.247 . S
C188 O187 1.208 . S
C189 O194 1.247 . S
C189 O195 1.208 . S
C190 O182 1.315 . S
C190 O185 1.279 . S
C191 O192 1.315 . S
C191 O193 1.279 . S
O192 Cd184 2.223 . S
O192 C191 1.315 . S
O193 Cd183 2.240 . S
O193 C191 1.279 . S
O194 Cd184 2.297 . S
O194 C189 1.247 . S
O195 Cd184 2.439 . S
O195 C189 1.208 . S
O196 Cd197 2.223 . S
O196 C204 1.315 . S
Cd197 O196 2.223 . S
Cd197 O200 2.297 . S
Cd197 O201 2.439 . S
Cd197 O207 2.240 . S
Cd198 O199 2.240 . S
Cd198 O206 2.223 . S
Cd198 O208 2.297 . S
Cd198 O209 2.439 . S
O199 Cd198 2.240 . S
O199 C204 1.279 . S
O200 Cd197 2.297 . S
O200 C202 1.247 . S
O201 Cd197 2.439 . S
O201 C202 1.208 . S
C202 O200 1.247 . S
C202 O201 1.208 . S
C203 O208 1.247 . S
C203 O209 1.208 . S
C204 O196 1.315 . S
C204 O199 1.279 . S
C205 O206 1.315 . S
C205 O207 1.279 . S
O206 Cd198 2.223 . S
O206 C205 1.315 . S
O207 Cd197 2.240 . S
O207 C205 1.279 . S
O208 Cd198 2.297 . S
O208 C203 1.247 . S
O209 Cd198 2.439 . S
O209 C203 1.208 . S
O210 Cd211 2.223 . S
O210 C218 1.315 . S
Cd211 O210 2.223 . S
Cd211 O214 2.297 . S
Cd211 O215 2.439 . S
Cd211 O221 2.240 . S
Cd212 O213 2.240 . S
Cd212 O220 2.223 . S
Cd212 O222 2.297 . S
Cd212 O223 2.439 . S
O213 Cd212 2.240 . S
O213 C218 1.279 . S
O214 Cd211 2.297 . S
O214 C216 1.247 . S
O215 Cd211 2.439 . S
O215 C216 1.208 . S
C216 O214 1.247 . S
C216 O215 1.208 . S
C217 O222 1.247 . S
C217 O223 1.208 . S
C218 O210 1.315 . S
C218 O213 1.279 . S
C219 O220 1.315 . S
C219 O221 1.279 . S
O220 Cd212 2.223 . S
O220 C219 1.315 . S
O221 Cd211 2.240 . S
O221 C219 1.279 . S
O222 Cd212 2.297 . S
O222 C217 1.247 . S
O223 Cd212 2.439 . S
O223 C217 1.208 . S
H224 C242 0.951 . S
H225 C244 0.951 . S
H226 C246 0.950 1_545 S
H227 C247 0.950 . S
H228 C249 0.950 . S
H229 C252 0.950 . S
H230 C253 0.950 . S
H231 C255 0.950 . S
H232 C256 0.950 . S
H233 C257 0.951 . S
H234 C259 0.951 . S
H235 C261 0.950 1_565 S
H236 C262 0.950 . S
H237 C264 0.950 . S
H238 C267 0.950 . S
H239 C268 0.950 . S
H240 C270 0.950 . S
H241 C271 0.950 . S
C242 H224 0.951 . S
C242 C243 1.366 . S
C242 C244 1.388 . S
C243 C242 1.366 . S
C243 C247 1.385 . S
C244 H225 0.951 . S
C244 C242 1.388 . S
C244 C245 1.366 . S
C245 C244 1.366 . S
C245 C246 1.414 . S
C245 C248 1.499 . S
C246 H226 0.950 1_565 S
C246 C245 1.414 . S
C246 C247 1.374 . S
C247 H227 0.950 . S
C247 C243 1.385 . S
C247 C246 1.374 . S
C248 C245 1.499 . S
C248 C249 1.373 1_565 S
C248 C250 1.389 . S
C249 H228 0.950 . S
C249 C248 1.373 1_545 S
C249 C265 1.377 . S
C250 C248 1.389 . S
C250 C251 1.524 . S
C250 C264 1.377 . S
C251 C250 1.524 . S
C251 C252 1.397 . S
C251 C256 1.363 . S
C252 H229 0.950 . S
C252 C251 1.397 . S
C252 C253 1.334 . S
C253 H230 0.950 . S
C253 C252 1.334 . S
C253 C254 1.287 . S
C254 C253 1.287 . S
C254 C255 1.524 . S
C254 H273 0.913 . S
C255 H231 0.950 . S
C255 C254 1.524 . S
C255 C256 1.415 . S
C256 H232 0.950 . S
C256 C251 1.363 . S
C256 C255 1.415 . S
C257 H233 0.951 . S
C257 C258 1.366 . S
C257 C259 1.388 . S
C258 C257 1.366 . S
C258 C262 1.385 . S
C259 H234 0.951 . S
C259 C257 1.388 . S
C259 C260 1.366 . S
C260 C259 1.366 . S
C260 C261 1.414 . S
C260 C263 1.499 . S
C261 H235 0.950 1_545 S
C261 C260 1.414 . S
C261 C262 1.374 . S
C262 H236 0.950 . S
C262 C258 1.385 . S
C262 C261 1.374 . S
C263 C260 1.499 . S
C263 C264 1.373 1_545 S
C263 C265 1.389 . S
C264 H237 0.950 . S
C264 C250 1.377 . S
C264 C263 1.373 1_565 S
C265 C249 1.377 . S
C265 C263 1.389 . S
C265 C266 1.524 . S
C266 C265 1.524 . S
C266 C267 1.397 . S
C266 C271 1.363 . S
C267 H238 0.950 . S
C267 C266 1.397 . S
C267 C268 1.334 . S
C268 H239 0.950 . S
C268 C267 1.334 . S
C268 C269 1.287 . S
C269 C268 1.287 . S
C269 C270 1.524 . S
C269 H272 0.999 . S
C270 H240 0.950 . S
C270 C269 1.524 . S
C270 C271 1.415 . S
C271 H241 0.950 . S
C271 C266 1.363 . S
C271 C270 1.415 . S
H272 C269 0.999 . S
H273 C254 0.913 . S
H274 C292 0.951 . S
H275 C294 0.951 . S
H276 C296 0.950 . S
H277 C297 0.950 1_545 S
H278 C299 0.950 . S
H279 C302 0.950 . S
H280 C303 0.950 . S
H281 C305 0.950 . S
H282 C306 0.950 . S
H283 C307 0.951 . S
H284 C309 0.951 . S
H285 C311 0.950 . S
H286 C312 0.950 1_565 S
H287 C314 0.950 . S
H288 C317 0.950 . S
H289 C318 0.950 . S
H290 C320 0.950 . S
H291 C321 0.950 . S
C292 H274 0.951 . S
C292 C293 1.366 . S
C292 C294 1.388 . S
C293 C292 1.366 . S
C293 C297 1.385 . S
C294 H275 0.951 . S
C294 C292 1.388 . S
C294 C295 1.366 . S
C295 C294 1.366 . S
C295 C296 1.414 1_565 S
C295 C298 1.499 . S
C296 H276 0.950 . S
C296 C295 1.414 1_545 S
C296 C297 1.374 1_545 S
C297 H277 0.950 1_565 S
C297 C293 1.385 . S
C297 C296 1.374 1_565 S
C298 C295 1.499 . S
C298 C299 1.373 1_565 S
C298 C300 1.389 . S
C299 H278 0.950 . S
C299 C298 1.373 1_545 S
C299 C315 1.377 . S
C300 C298 1.389 . S
C300 C301 1.524 . S
C300 C314 1.377 . S
C301 C300 1.524 . S
C301 C302 1.397 . S
C301 C306 1.363 . S
C302 H279 0.950 . S
C302 C301 1.397 . S
C302 C303 1.334 . S
C303 H280 0.950 . S
C303 C302 1.334 . S
C303 C304 1.287 . S
C304 C303 1.287 . S
C304 C305 1.524 . S
C304 H323 0.913 . S
C305 H281 0.950 . S
C305 C304 1.524 . S
C305 C306 1.415 . S
C306 H282 0.950 . S
C306 C301 1.363 . S
C306 C305 1.415 . S
C307 H283 0.951 . S
C307 C308 1.366 . S
C307 C309 1.388 . S
C308 C307 1.366 . S
C308 C312 1.385 . S
C309 H284 0.951 . S
C309 C307 1.388 . S
C309 C310 1.366 . S
C310 C309 1.366 . S
C310 C311 1.414 1_545 S
C310 C313 1.499 . S
C311 H285 0.950 . S
C311 C310 1.414 1_565 S
C311 C312 1.374 1_565 S
C312 H286 0.950 1_545 S
C312 C308 1.385 . S
C312 C311 1.374 1_545 S
C313 C310 1.499 . S
C313 C314 1.373 1_545 S
C313 C315 1.389 . S
C314 H287 0.950 . S
C314 C300 1.377 . S
C314 C313 1.373 1_565 S
C315 C299 1.377 . S
C315 C313 1.389 . S
C315 C316 1.524 . S
C316 C315 1.524 . S
C316 C317 1.397 . S
C316 C321 1.363 . S
C317 H288 0.950 . S
C317 C316 1.397 . S
C317 C318 1.334 . S
C318 H289 0.950 . S
C318 C317 1.334 . S
C318 C319 1.287 . S
C319 C318 1.287 . S
C319 C320 1.524 . S
C319 H322 0.999 . S
C320 H290 0.950 . S
C320 C319 1.524 . S
C320 C321 1.415 . S
C321 H291 0.950 . S
C321 C316 1.363 . S
C321 C320 1.415 . S
H322 C319 0.999 . S
H323 C304 0.913 . S
H324 C342 0.951 . S
H325 C344 0.951 1_545 S
H326 C346 0.950 . S
H327 C347 0.950 . S
H328 C349 0.950 . S
H329 C352 0.950 . S
H330 C353 0.950 . S
H331 C355 0.950 . S
H332 C356 0.950 . S
H333 C357 0.951 . S
H334 C359 0.951 1_565 S
H335 C361 0.950 . S
H336 C362 0.950 . S
H337 C364 0.950 . S
H338 C367 0.950 . S
H339 C368 0.950 . S
H340 C370 0.950 . S
H341 C371 0.950 . S
C342 H324 0.951 . S
C342 C343 1.366 . S
C342 C344 1.388 . S
C343 C342 1.366 . S
C343 C347 1.385 . S
C344 H325 0.951 1_565 S
C344 C342 1.388 . S
C344 C345 1.366 . S
C345 C344 1.366 . S
C345 C346 1.414 . S
C345 C348 1.499 . S
C346 H326 0.950 . S
C346 C345 1.414 . S
C346 C347 1.374 . S
C347 H327 0.950 . S
C347 C343 1.385 . S
C347 C346 1.374 . S
C348 C345 1.499 . S
C348 C349 1.373 . S
C348 C350 1.389 1_565 S
C349 H328 0.950 . S
C349 C348 1.373 . S
C349 C365 1.377 . S
C350 C348 1.389 1_545 S
C350 C351 1.524 . S
C350 C364 1.377 . S
C351 C350 1.524 . S
C351 C352 1.397 . S
C351 C356 1.363 . S
C352 H329 0.950 . S
C352 C351 1.397 . S
C352 C353 1.334 . S
C353 H330 0.950 . S
C353 C352 1.334 . S
C353 C354 1.287 . S
C354 C353 1.287 . S
C354 C355 1.524 . S
C354 H373 0.913 . S
C355 H331 0.950 . S
C355 C354 1.524 . S
C355 C356 1.415 . S
C356 H332 0.950 . S
C356 C351 1.363 . S
C356 C355 1.415 . S
C357 H333 0.951 . S
C357 C358 1.366 . S
C357 C359 1.388 . S
C358 C357 1.366 . S
C358 C362 1.385 . S
C359 H334 0.951 1_545 S
C359 C357 1.388 . S
C359 C360 1.366 . S
C360 C359 1.366 . S
C360 C361 1.414 . S
C360 C363 1.499 . S
C361 H335 0.950 . S
C361 C360 1.414 . S
C361 C362 1.374 . S
C362 H336 0.950 . S
C362 C358 1.385 . S
C362 C361 1.374 . S
C363 C360 1.499 . S
C363 C364 1.373 . S
C363 C365 1.389 1_545 S
C364 H337 0.950 . S
C364 C350 1.377 . S
C364 C363 1.373 . S
C365 C349 1.377 . S
C365 C363 1.389 1_565 S
C365 C366 1.524 . S
C366 C365 1.524 . S
C366 C367 1.397 . S
C366 C371 1.363 . S
C367 H338 0.950 . S
C367 C366 1.397 . S
C367 C368 1.334 . S
C368 H339 0.950 . S
C368 C367 1.334 . S
C368 C369 1.287 . S
C369 C368 1.287 . S
C369 C370 1.524 . S
C369 H372 0.999 . S
C370 H340 0.950 . S
C370 C369 1.524 . S
C370 C371 1.415 . S
C371 H341 0.950 . S
C371 C366 1.363 . S
C371 C370 1.415 . S
H372 C369 0.999 . S
H373 C354 0.913 . S
H374 C392 0.951 . S
H375 C394 0.951 . S
H376 C396 0.950 . S
H377 C397 0.950 1_545 S
H378 C399 0.950 . S
H379 C402 0.950 1_545 S
H380 C403 0.950 1_545 S
H381 C405 0.950 . S
H382 C406 0.950 . S
H383 C407 0.951 . S
H384 C409 0.951 . S
H385 C411 0.950 . S
H386 C412 0.950 1_565 S
H387 C414 0.950 . S
H388 C417 0.950 1_565 S
H389 C418 0.950 1_565 S
H390 C420 0.950 . S
H391 C421 0.950 . S
C392 H374 0.951 . S
C392 C393 1.366 . S
C392 C394 1.388 . S
C393 C392 1.366 . S
C393 C397 1.385 . S
C394 H375 0.951 . S
C394 C392 1.388 . S
C394 C395 1.366 . S
C395 C394 1.366 . S
C395 C396 1.414 1_565 S
C395 C398 1.499 . S
C396 H376 0.950 . S
C396 C395 1.414 1_545 S
C396 C397 1.374 1_545 S
C397 H377 0.950 1_565 S
C397 C393 1.385 . S
C397 C396 1.374 1_565 S
C398 C395 1.499 . S
C398 C399 1.373 1_565 S
C398 C400 1.389 . S
C399 H378 0.950 . S
C399 C398 1.373 1_545 S
C399 C415 1.377 . S
C400 C398 1.389 . S
C400 C401 1.524 . S
C400 C414 1.377 . S
C401 C400 1.524 . S
C401 C402 1.397 . S
C401 C406 1.363 . S
C402 H379 0.950 1_565 S
C402 C401 1.397 . S
C402 C403 1.334 . S
C403 H380 0.950 1_565 S
C403 C402 1.334 . S
C403 C404 1.287 . S
C404 C403 1.287 . S
C404 C405 1.524 . S
C404 H423 0.913 . S
C405 H381 0.950 . S
C405 C404 1.524 . S
C405 C406 1.415 . S
C406 H382 0.950 . S
C406 C401 1.363 . S
C406 C405 1.415 . S
C407 H383 0.951 . S
C407 C408 1.366 . S
C407 C409 1.388 . S
C408 C407 1.366 . S
C408 C412 1.385 . S
C409 H384 0.951 . S
C409 C407 1.388 . S
C409 C410 1.366 . S
C410 C409 1.366 . S
C410 C411 1.414 1_545 S
C410 C413 1.499 . S
C411 H385 0.950 . S
C411 C410 1.414 1_565 S
C411 C412 1.374 1_565 S
C412 H386 0.950 1_545 S
C412 C408 1.385 . S
C412 C411 1.374 1_545 S
C413 C410 1.499 . S
C413 C414 1.373 1_545 S
C413 C415 1.389 . S
C414 H387 0.950 . S
C414 C400 1.377 . S
C414 C413 1.373 1_565 S
C415 C399 1.377 . S
C415 C413 1.389 . S
C415 C416 1.524 . S
C416 C415 1.524 . S
C416 C417 1.397 . S
C416 C421 1.363 . S
C417 H388 0.950 1_545 S
C417 C416 1.397 . S
C417 C418 1.334 . S
C418 H389 0.950 1_545 S
C418 C417 1.334 . S
C418 C419 1.287 . S
C419 C418 1.287 . S
C419 C420 1.524 . S
C419 H422 0.999 . S
C420 H390 0.950 . S
C420 C419 1.524 . S
C420 C421 1.415 . S
C421 H391 0.950 . S
C421 C416 1.363 . S
C421 C420 1.415 . S
H422 C419 0.999 . S
H423 C404 0.913 . S
H424 C442 0.951 . S
H425 C444 0.951 . S
H426 C446 0.950 . S
H427 C447 0.950 . S
H428 C449 0.950 . S
H429 C452 0.950 . S
H430 C453 0.950 . S
H431 C455 0.950 . S
H432 C456 0.950 . S
H433 C457 0.951 . S
H434 C459 0.951 . S
H435 C461 0.950 . S
H436 C462 0.950 . S
H437 C464 0.950 . S
H438 C467 0.950 . S
H439 C468 0.950 . S
H440 C470 0.950 . S
H441 C471 0.950 . S
C442 H424 0.951 . S
C442 C443 1.366 . S
C442 C444 1.388 . S
C443 C442 1.366 . S
C443 C447 1.385 . S
C444 H425 0.951 . S
C444 C442 1.388 . S
C444 C445 1.366 . S
C445 C444 1.366 . S
C445 C446 1.414 . S
C445 C448 1.499 . S
C446 H426 0.950 . S
C446 C445 1.414 . S
C446 C447 1.374 . S
C447 H427 0.950 . S
C447 C443 1.385 . S
C447 C446 1.374 . S
C448 C445 1.499 . S
C448 C449 1.373 . S
C448 C450 1.389 . S
C449 H428 0.950 . S
C449 C448 1.373 . S
C449 C465 1.377 . S
C450 C448 1.389 . S
C450 C451 1.524 . S
C450 C464 1.377 . S
C451 C450 1.524 . S
C451 C452 1.397 . S
C451 C456 1.363 . S
C452 H429 0.950 . S
C452 C451 1.397 . S
C452 C453 1.334 . S
C453 H430 0.950 . S
C453 C452 1.334 . S
C453 C454 1.287 . S
C454 C453 1.287 . S
C454 C455 1.524 . S
C454 H473 0.913 . S
C455 H431 0.950 . S
C455 C454 1.524 . S
C455 C456 1.415 . S
C456 H432 0.950 . S
C456 C451 1.363 . S
C456 C455 1.415 . S
C457 H433 0.951 . S
C457 C458 1.366 . S
C457 C459 1.388 . S
C458 C457 1.366 . S
C458 C462 1.385 . S
C459 H434 0.951 . S
C459 C457 1.388 . S
C459 C460 1.366 . S
C460 C459 1.366 . S
C460 C461 1.414 . S
C460 C463 1.499 . S
C461 H435 0.950 . S
C461 C460 1.414 . S
C461 C462 1.374 . S
C462 H436 0.950 . S
C462 C458 1.385 . S
C462 C461 1.374 . S
C463 C460 1.499 . S
C463 C464 1.373 . S
C463 C465 1.389 . S
C464 H437 0.950 . S
C464 C450 1.377 . S
C464 C463 1.373 . S
C465 C449 1.377 . S
C465 C463 1.389 . S
C465 C466 1.524 . S
C466 C465 1.524 . S
C466 C467 1.397 . S
C466 C471 1.363 . S
C467 H438 0.950 . S
C467 C466 1.397 . S
C467 C468 1.334 . S
C468 H439 0.950 . S
C468 C467 1.334 . S
C468 C469 1.287 . S
C469 C468 1.287 . S
C469 C470 1.524 . S
C469 H472 0.999 . S
C470 H440 0.950 . S
C470 C469 1.524 . S
C470 C471 1.415 . S
C471 H441 0.950 . S
C471 C466 1.363 . S
C471 C470 1.415 . S
H472 C469 0.999 . S
H473 C454 0.913 . S
H474 C492 0.951 . S
H475 C494 0.951 . S
H476 C496 0.950 . S
H477 C497 0.950 . S
H478 C499 0.950 . S
H479 C502 0.950 . S
H480 C503 0.950 . S
H481 C505 0.950 . S
H482 C506 0.950 . S
H483 C507 0.951 . S
H484 C509 0.951 . S
H485 C511 0.950 . S
H486 C512 0.950 . S
H487 C514 0.950 . S
H488 C517 0.950 . S
H489 C518 0.950 . S
H490 C520 0.950 . S
H491 C521 0.950 . S
C492 H474 0.951 . S
C492 C493 1.366 . S
C492 C494 1.388 . S
C493 C492 1.366 . S
C493 C497 1.385 . S
C494 H475 0.951 . S
C494 C492 1.388 . S
C494 C495 1.366 . S
C495 C494 1.366 . S
C495 C496 1.414 . S
C495 C498 1.499 . S
C496 H476 0.950 . S
C496 C495 1.414 . S
C496 C497 1.374 . S
C497 H477 0.950 . S
C497 C493 1.385 . S
C497 C496 1.374 . S
C498 C495 1.499 . S
C498 C499 1.373 . S
C498 C500 1.389 . S
C499 H478 0.950 . S
C499 C498 1.373 . S
C499 C515 1.377 . S
C500 C498 1.389 . S
C500 C501 1.524 . S
C500 C514 1.377 . S
C501 C500 1.524 . S
C501 C502 1.397 . S
C501 C506 1.363 . S
C502 H479 0.950 . S
C502 C501 1.397 . S
C502 C503 1.334 . S
C503 H480 0.950 . S
C503 C502 1.334 . S
C503 C504 1.287 . S
C504 C503 1.287 . S
C504 C505 1.524 . S
C504 H523 0.913 . S
C505 H481 0.950 . S
C505 C504 1.524 . S
C505 C506 1.415 . S
C506 H482 0.950 . S
C506 C501 1.363 . S
C506 C505 1.415 . S
C507 H483 0.951 . S
C507 C508 1.366 . S
C507 C509 1.388 . S
C508 C507 1.366 . S
C508 C512 1.385 . S
C509 H484 0.951 . S
C509 C507 1.388 . S
C509 C510 1.366 . S
C510 C509 1.366 . S
C510 C511 1.414 . S
C510 C513 1.499 . S
C511 H485 0.950 . S
C511 C510 1.414 . S
C511 C512 1.374 . S
C512 H486 0.950 . S
C512 C508 1.385 . S
C512 C511 1.374 . S
C513 C510 1.499 . S
C513 C514 1.373 . S
C513 C515 1.389 . S
C514 H487 0.950 . S
C514 C500 1.377 . S
C514 C513 1.373 . S
C515 C499 1.377 . S
C515 C513 1.389 . S
C515 C516 1.524 . S
C516 C515 1.524 . S
C516 C517 1.397 . S
C516 C521 1.363 . S
C517 H488 0.950 . S
C517 C516 1.397 . S
C517 C518 1.334 . S
C518 H489 0.950 . S
C518 C517 1.334 . S
C518 C519 1.287 . S
C519 C518 1.287 . S
C519 C520 1.524 . S
C519 H522 0.999 . S
C520 H490 0.950 . S
C520 C519 1.524 . S
C520 C521 1.415 . S
C521 H491 0.950 . S
C521 C516 1.363 . S
C521 C520 1.415 . S
H522 C519 0.999 . S
H523 C504 0.913 . S
H524 C542 0.951 . S
H525 C544 0.951 . S
H526 C546 0.950 . S
H527 C547 0.950 . S
H528 C549 0.950 . S
H529 C552 0.950 . S
H530 C553 0.950 . S
H531 C555 0.950 . S
H532 C556 0.950 . S
H533 C557 0.951 . S
H534 C559 0.951 . S
H535 C561 0.950 . S
H536 C562 0.950 . S
H537 C564 0.950 . S
H538 C567 0.950 . S
H539 C568 0.950 . S
H540 C570 0.950 . S
H541 C571 0.950 . S
C542 H524 0.951 . S
C542 C543 1.366 . S
C542 C544 1.388 . S
C543 C542 1.366 . S
C543 C547 1.385 . S
C544 H525 0.951 . S
C544 C542 1.388 . S
C544 C545 1.366 . S
C545 C544 1.366 . S
C545 C546 1.414 . S
C545 C548 1.499 . S
C546 H526 0.950 . S
C546 C545 1.414 . S
C546 C547 1.374 . S
C547 H527 0.950 . S
C547 C543 1.385 . S
C547 C546 1.374 . S
C548 C545 1.499 . S
C548 C549 1.373 . S
C548 C550 1.389 . S
C549 H528 0.950 . S
C549 C548 1.373 . S
C549 C565 1.377 . S
C550 C548 1.389 . S
C550 C551 1.524 . S
C550 C564 1.377 . S
C551 C550 1.524 . S
C551 C552 1.397 . S
C551 C556 1.363 . S
C552 H529 0.950 . S
C552 C551 1.397 . S
C552 C553 1.334 . S
C553 H530 0.950 . S
C553 C552 1.334 . S
C553 C554 1.287 . S
C554 C553 1.287 . S
C554 C555 1.524 . S
C554 H573 0.913 . S
C555 H531 0.950 . S
C555 C554 1.524 . S
C555 C556 1.415 . S
C556 H532 0.950 . S
C556 C551 1.363 . S
C556 C555 1.415 . S
C557 H533 0.951 . S
C557 C558 1.366 . S
C557 C559 1.388 . S
C558 C557 1.366 . S
C558 C562 1.385 . S
C559 H534 0.951 . S
C559 C557 1.388 . S
C559 C560 1.366 . S
C560 C559 1.366 . S
C560 C561 1.414 . S
C560 C563 1.499 . S
C561 H535 0.950 . S
C561 C560 1.414 . S
C561 C562 1.374 . S
C562 H536 0.950 . S
C562 C558 1.385 . S
C562 C561 1.374 . S
C563 C560 1.499 . S
C563 C564 1.373 . S
C563 C565 1.389 . S
C564 H537 0.950 . S
C564 C550 1.377 . S
C564 C563 1.373 . S
C565 C549 1.377 . S
C565 C563 1.389 . S
C565 C566 1.524 . S
C566 C565 1.524 . S
C566 C567 1.397 . S
C566 C571 1.363 . S
C567 H538 0.950 . S
C567 C566 1.397 . S
C567 C568 1.334 . S
C568 H539 0.950 . S
C568 C567 1.334 . S
C568 C569 1.287 . S
C569 C568 1.287 . S
C569 C570 1.524 . S
C569 H572 0.999 . S
C570 H540 0.950 . S
C570 C569 1.524 . S
C570 C571 1.415 . S
C571 H541 0.950 . S
C571 C566 1.363 . S
C571 C570 1.415 . S
H572 C569 0.999 . S
H573 C554 0.913 . S
H574 C592 0.951 . S
H575 C594 0.951 . S
H576 C596 0.950 . S
H577 C597 0.950 . S
H578 C599 0.950 . S
H579 C602 0.950 . S
H580 C603 0.950 . S
H581 C605 0.950 . S
H582 C606 0.950 . S
H583 C607 0.951 . S
H584 C609 0.951 . S
H585 C611 0.950 . S
H586 C612 0.950 . S
H587 C614 0.950 . S
H588 C617 0.950 . S
H589 C618 0.950 . S
H590 C620 0.950 . S
H591 C621 0.950 . S
C592 H574 0.951 . S
C592 C593 1.366 . S
C592 C594 1.388 . S
C593 C592 1.366 . S
C593 C597 1.385 . S
C594 H575 0.951 . S
C594 C592 1.388 . S
C594 C595 1.366 . S
C595 C594 1.366 . S
C595 C596 1.414 . S
C595 C598 1.499 . S
C596 H576 0.950 . S
C596 C595 1.414 . S
C596 C597 1.374 . S
C597 H577 0.950 . S
C597 C593 1.385 . S
C597 C596 1.374 . S
C598 C595 1.499 . S
C598 C599 1.373 . S
C598 C600 1.389 . S
C599 H578 0.950 . S
C599 C598 1.373 . S
C599 C615 1.377 . S
C600 C598 1.389 . S
C600 C601 1.524 . S
C600 C614 1.377 . S
C601 C600 1.524 . S
C601 C602 1.397 . S
C601 C606 1.363 . S
C602 H579 0.950 . S
C602 C601 1.397 . S
C602 C603 1.334 . S
C603 H580 0.950 . S
C603 C602 1.334 . S
C603 C604 1.287 . S
C604 C603 1.287 . S
C604 C605 1.524 . S
C604 H623 0.913 . S
C605 H581 0.950 . S
C605 C604 1.524 . S
C605 C606 1.415 . S
C606 H582 0.950 . S
C606 C601 1.363 . S
C606 C605 1.415 . S
C607 H583 0.951 . S
C607 C608 1.366 . S
C607 C609 1.388 . S
C608 C607 1.366 . S
C608 C612 1.385 . S
C609 H584 0.951 . S
C609 C607 1.388 . S
C609 C610 1.366 . S
C610 C609 1.366 . S
C610 C611 1.414 . S
C610 C613 1.499 . S
C611 H585 0.950 . S
C611 C610 1.414 . S
C611 C612 1.374 . S
C612 H586 0.950 . S
C612 C608 1.385 . S
C612 C611 1.374 . S
C613 C610 1.499 . S
C613 C614 1.373 . S
C613 C615 1.389 . S
C614 H587 0.950 . S
C614 C600 1.377 . S
C614 C613 1.373 . S
C615 C599 1.377 . S
C615 C613 1.389 . S
C615 C616 1.524 . S
C616 C615 1.524 . S
C616 C617 1.397 . S
C616 C621 1.363 . S
C617 H588 0.950 . S
C617 C616 1.397 . S
C617 C618 1.334 . S
C618 H589 0.950 . S
C618 C617 1.334 . S
C618 C619 1.287 . S
C619 C618 1.287 . S
C619 C620 1.524 . S
C619 H622 0.999 . S
C620 H590 0.950 . S
C620 C619 1.524 . S
C620 C621 1.415 . S
C621 H591 0.950 . S
C621 C616 1.363 . S
C621 C620 1.415 . S
H622 C619 0.999 . S
H623 C604 0.913 . S
H624 C642 0.951 . S
H625 C644 0.951 . S
H626 C646 0.950 . S
H627 C647 0.950 . S
H628 C649 0.950 . S
H629 C652 0.950 . S
H630 C653 0.950 . S
H631 C655 0.950 . S
H632 C656 0.947 1_565 S
H633 C657 0.951 . S
H634 C659 0.951 . S
H635 C661 0.950 . S
H636 C662 0.950 . S
H637 C664 0.950 . S
H638 C667 0.950 . S
H639 C668 0.950 . S
H640 C670 0.950 . S
H641 C671 0.950 . S
C642 H624 0.951 . S
C642 C643 1.366 . S
C642 C644 1.388 . S
C643 C642 1.366 . S
C643 C647 1.385 . S
C644 H625 0.951 . S
C644 C642 1.388 . S
C644 C645 1.366 . S
C645 C644 1.366 . S
C645 C646 1.414 . S
C645 C648 1.499 . S
C646 H626 0.950 . S
C646 C645 1.414 . S
C646 C647 1.374 . S
C647 H627 0.950 . S
C647 C643 1.385 . S
C647 C646 1.374 . S
C648 C645 1.499 . S
C648 C649 1.373 . S
C648 C650 1.389 1_655 S
C649 H628 0.950 . S
C649 C648 1.373 . S
C649 C665 1.377 . S
C650 C648 1.389 1_455 S
C650 C651 1.524 . S
C650 C664 1.377 . S
C651 C650 1.524 . S
C651 C652 1.397 . S
C651 C656 1.371 . S
C652 H629 0.950 . S
C652 C651 1.397 . S
C652 C653 1.334 . S
C653 H630 0.950 . S
C653 C652 1.334 . S
C653 C654 1.287 . S
C654 C653 1.287 . S
C654 C655 1.524 1_545 S
C654 H673 0.913 1_545 S
C655 H631 0.950 . S
C655 C654 1.524 1_565 S
C655 C656 1.410 1_565 S
C656 H632 0.947 1_545 S
C656 C651 1.371 . S
C656 C655 1.410 1_545 S
C657 H633 0.951 . S
C657 C658 1.366 . S
C657 C659 1.388 . S
C658 C657 1.366 . S
C658 C662 1.385 . S
C659 H634 0.951 . S
C659 C657 1.388 . S
C659 C660 1.366 . S
C660 C659 1.366 . S
C660 C661 1.414 . S
C660 C663 1.499 . S
C661 H635 0.950 . S
C661 C660 1.414 . S
C661 C662 1.374 . S
C662 H636 0.950 . S
C662 C658 1.385 . S
C662 C661 1.374 . S
C663 C660 1.499 . S
C663 C664 1.373 . S
C663 C665 1.389 1_455 S
C664 H637 0.950 . S
C664 C650 1.377 . S
C664 C663 1.373 . S
C665 C649 1.377 . S
C665 C663 1.389 1_655 S
C665 C666 1.524 . S
C666 C665 1.524 . S
C666 C667 1.397 . S
C666 C671 1.363 . S
C667 H638 0.950 . S
C667 C666 1.397 . S
C667 C668 1.334 . S
C668 H639 0.950 . S
C668 C667 1.334 . S
C668 C669 1.287 . S
C669 C668 1.287 . S
C669 C670 1.524 . S
C669 H672 0.999 . S
C670 H640 0.950 . S
C670 C669 1.524 . S
C670 C671 1.415 . S
C671 H641 0.950 . S
C671 C666 1.363 . S
C671 C670 1.415 . S
H672 C669 0.999 . S
H673 C654 0.913 1_565 S
H674 C692 0.951 . S
H675 C694 0.951 . S
H676 C696 0.950 . S
H677 C697 0.950 . S
H678 C699 0.950 . S
H679 C702 0.950 . S
H680 C703 0.950 . S
H681 C705 0.950 . S
H682 C706 0.950 . S
H683 C707 0.951 . S
H684 C709 0.951 . S
H685 C711 0.950 . S
H686 C712 0.950 . S
H687 C714 0.950 . S
H688 C717 0.950 . S
H689 C718 0.950 . S
H690 C720 0.950 . S
H691 C721 0.950 . S
C692 H674 0.951 . S
C692 C693 1.366 . S
C692 C694 1.388 . S
C693 C692 1.366 . S
C693 C697 1.385 . S
C694 H675 0.951 . S
C694 C692 1.388 . S
C694 C695 1.366 . S
C695 C694 1.366 . S
C695 C696 1.414 . S
C695 C698 1.499 . S
C696 H676 0.950 . S
C696 C695 1.414 . S
C696 C697 1.374 . S
C697 H677 0.950 . S
C697 C693 1.385 . S
C697 C696 1.374 . S
C698 C695 1.499 . S
C698 C699 1.373 . S
C698 C700 1.389 . S
C699 H678 0.950 . S
C699 C698 1.373 . S
C699 C715 1.377 . S
C700 C698 1.389 . S
C700 C701 1.524 . S
C700 C714 1.377 . S
C701 C700 1.524 . S
C701 C702 1.397 . S
C701 C706 1.363 . S
C702 H679 0.950 . S
C702 C701 1.397 . S
C702 C703 1.334 . S
C703 H680 0.950 . S
C703 C702 1.334 . S
C703 C704 1.287 . S
C704 C703 1.287 . S
C704 C705 1.524 . S
C704 H723 0.913 . S
C705 H681 0.950 . S
C705 C704 1.524 . S
C705 C706 1.415 . S
C706 H682 0.950 . S
C706 C701 1.363 . S
C706 C705 1.415 . S
C707 H683 0.951 . S
C707 C708 1.366 . S
C707 C709 1.388 . S
C708 C707 1.366 . S
C708 C712 1.385 . S
C709 H684 0.951 . S
C709 C707 1.388 . S
C709 C710 1.366 . S
C710 C709 1.366 . S
C710 C711 1.414 . S
C710 C713 1.499 . S
C711 H685 0.950 . S
C711 C710 1.414 . S
C711 C712 1.374 . S
C712 H686 0.950 . S
C712 C708 1.385 . S
C712 C711 1.374 . S
C713 C710 1.499 . S
C713 C714 1.373 . S
C713 C715 1.389 . S
C714 H687 0.950 . S
C714 C700 1.377 . S
C714 C713 1.373 . S
C715 C699 1.377 . S
C715 C713 1.389 . S
C715 C716 1.524 . S
C716 C715 1.524 . S
C716 C717 1.397 . S
C716 C721 1.363 1_565 S
C717 H688 0.950 . S
C717 C716 1.397 . S
C717 C718 1.334 1_565 S
C718 H689 0.950 . S
C718 C717 1.334 1_545 S
C718 C719 1.287 . S
C719 C718 1.287 . S
C719 C720 1.524 . S
C719 H722 0.999 . S
C720 H690 0.950 . S
C720 C719 1.524 . S
C720 C721 1.415 . S
C721 H691 0.950 . S
C721 C716 1.363 1_545 S
C721 C720 1.415 . S
H722 C719 0.999 . S
H723 C704 0.913 . S
H724 C742 0.951 . S
H725 C744 0.951 . S
H726 C746 0.950 1_655 S
H727 C747 0.950 1_655 S
H728 C749 0.950 . S
H729 C752 0.950 . S
H730 C753 0.950 . S
H731 C755 0.950 . S
H732 C756 0.950 . S
H733 C757 0.951 . S
H734 C759 0.951 . S
H735 C761 0.950 1_455 S
H736 C762 0.950 1_455 S
H737 C764 0.950 . S
H738 C767 0.950 . S
H739 C768 0.950 . S
H740 C770 0.950 . S
H741 C771 0.950 . S
C742 H724 0.951 . S
C742 C743 1.366 . S
C742 C744 1.388 . S
C743 C742 1.366 . S
C743 C747 1.385 . S
C744 H725 0.951 . S
C744 C742 1.388 . S
C744 C745 1.366 . S
C745 C744 1.366 . S
C745 C746 1.414 . S
C745 C748 1.499 . S
C746 H726 0.950 1_455 S
C746 C745 1.414 . S
C746 C747 1.374 . S
C747 H727 0.950 1_455 S
C747 C743 1.385 . S
C747 C746 1.374 . S
C748 C745 1.499 . S
C748 C749 1.373 1_455 S
C748 C750 1.389 . S
C749 H728 0.950 . S
C749 C748 1.373 1_655 S
C749 C765 1.377 . S
C750 C748 1.389 . S
C750 C751 1.524 . S
C750 C764 1.377 . S
C751 C750 1.524 . S
C751 C752 1.397 . S
C751 C756 1.363 . S
C752 H729 0.950 . S
C752 C751 1.397 . S
C752 C753 1.334 . S
C753 H730 0.950 . S
C753 C752 1.334 . S
C753 C754 1.287 . S
C754 C753 1.287 . S
C754 C755 1.524 . S
C754 H773 0.913 . S
C755 H731 0.950 . S
C755 C754 1.524 . S
C755 C756 1.415 . S
C756 H732 0.950 . S
C756 C751 1.363 . S
C756 C755 1.415 . S
C757 H733 0.951 . S
C757 C758 1.366 . S
C757 C759 1.388 . S
C758 C757 1.366 . S
C758 C762 1.385 . S
C759 H734 0.951 . S
C759 C757 1.388 . S
C759 C760 1.366 . S
C760 C759 1.366 . S
C760 C761 1.414 . S
C760 C763 1.499 . S
C761 H735 0.950 1_655 S
C761 C760 1.414 . S
C761 C762 1.374 . S
C762 H736 0.950 1_655 S
C762 C758 1.385 . S
C762 C761 1.374 . S
C763 C760 1.499 . S
C763 C764 1.373 1_655 S
C763 C765 1.389 . S
C764 H737 0.950 . S
C764 C750 1.377 . S
C764 C763 1.373 1_455 S
C765 C749 1.377 . S
C765 C763 1.389 . S
C765 C766 1.524 . S
C766 C765 1.524 . S
C766 C767 1.397 . S
C766 C771 1.363 . S
C767 H738 0.950 . S
C767 C766 1.397 . S
C767 C768 1.334 1_565 S
C768 H739 0.950 . S
C768 C767 1.334 1_545 S
C768 C769 1.287 . S
C769 C768 1.287 . S
C769 C770 1.524 1_545 S
C769 H772 0.999 . S
C770 H740 0.950 . S
C770 C769 1.524 1_565 S
C770 C771 1.415 . S
C771 H741 0.950 . S
C771 C766 1.363 . S
C771 C770 1.415 . S
H772 C769 0.999 . S
H773 C754 0.913 . S
H774 C792 0.951 . S
H775 C794 0.951 . S
H776 C796 0.950 . S
H777 C797 0.950 . S
H778 C799 0.950 . S
H779 C802 0.950 . S
H780 C803 0.950 . S
H781 C805 0.950 . S
H782 C806 0.950 . S
H783 C807 0.951 . S
H784 C809 0.951 . S
H785 C811 0.950 . S
H786 C812 0.950 . S
H787 C814 0.950 . S
H788 C817 0.950 . S
H789 C818 0.950 . S
H790 C820 0.950 . S
H791 C821 0.950 . S
C792 H774 0.951 . S
C792 C793 1.366 . S
C792 C794 1.388 . S
C793 C792 1.366 . S
C793 C797 1.385 . S
C794 H775 0.951 . S
C794 C792 1.388 . S
C794 C795 1.366 . S
C795 C794 1.366 . S
C795 C796 1.414 . S
C795 C798 1.499 . S
C796 H776 0.950 . S
C796 C795 1.414 . S
C796 C797 1.374 . S
C797 H777 0.950 . S
C797 C793 1.385 . S
C797 C796 1.374 . S
C798 C795 1.499 . S
C798 C799 1.373 . S
C798 C800 1.389 . S
C799 H778 0.950 . S
C799 C798 1.373 . S
C799 C815 1.377 . S
C800 C798 1.389 . S
C800 C801 1.524 . S
C800 C814 1.377 . S
C801 C800 1.524 . S
C801 C802 1.397 . S
C801 C806 1.363 . S
C802 H779 0.950 . S
C802 C801 1.397 . S
C802 C803 1.334 . S
C803 H780 0.950 . S
C803 C802 1.334 . S
C803 C804 1.287 . S
C804 C803 1.287 . S
C804 C805 1.524 . S
C804 H823 0.913 . S
C805 H781 0.950 . S
C805 C804 1.524 . S
C805 C806 1.415 . S
C806 H782 0.950 . S
C806 C801 1.363 . S
C806 C805 1.415 . S
C807 H783 0.951 . S
C807 C808 1.366 . S
C807 C809 1.388 . S
C808 C807 1.366 . S
C808 C812 1.385 . S
C809 H784 0.951 . S
C809 C807 1.388 . S
C809 C810 1.366 . S
C810 C809 1.366 . S
C810 C811 1.414 . S
C810 C813 1.499 . S
C811 H785 0.950 . S
C811 C810 1.414 . S
C811 C812 1.374 . S
C812 H786 0.950 . S
C812 C808 1.385 . S
C812 C811 1.374 . S
C813 C810 1.499 . S
C813 C814 1.373 . S
C813 C815 1.389 . S
C814 H787 0.950 . S
C814 C800 1.377 . S
C814 C813 1.373 . S
C815 C799 1.377 . S
C815 C813 1.389 . S
C815 C816 1.524 . S
C816 C815 1.524 . S
C816 C817 1.397 . S
C816 C821 1.363 . S
C817 H788 0.950 . S
C817 C816 1.397 . S
C817 C818 1.334 . S
C818 H789 0.950 . S
C818 C817 1.334 . S
C818 C819 1.287 . S
C819 C818 1.287 . S
C819 C820 1.524 . S
C819 H822 0.999 . S
C820 H790 0.950 . S
C820 C819 1.524 . S
C820 C821 1.415 . S
C821 H791 0.950 . S
C821 C816 1.363 . S
C821 C820 1.415 . S
H822 C819 0.999 . S
H823 C804 0.913 . S
H824 C842 0.951 . S
H825 C844 0.951 . S
H826 C846 0.950 . S
H827 C847 0.950 . S
H828 C849 0.950 . S
H829 C852 0.950 . S
H830 C853 0.950 . S
H831 C855 0.950 . S
H832 C856 0.950 . S
H833 C857 0.951 . S
H834 C859 0.951 . S
H835 C861 0.950 . S
H836 C862 0.950 . S
H837 C864 0.950 . S
H838 C867 0.950 . S
H839 C868 0.950 . S
H840 C870 0.950 . S
H841 C871 0.950 . S
C842 H824 0.951 . S
C842 C843 1.366 . S
C842 C844 1.388 . S
C843 C842 1.366 . S
C843 C847 1.385 . S
C844 H825 0.951 . S
C844 C842 1.388 . S
C844 C845 1.366 . S
C845 C844 1.366 . S
C845 C846 1.414 . S
C845 C848 1.499 . S
C846 H826 0.950 . S
C846 C845 1.414 . S
C846 C847 1.374 . S
C847 H827 0.950 . S
C847 C843 1.385 . S
C847 C846 1.374 . S
C848 C845 1.499 . S
C848 C849 1.373 . S
C848 C850 1.389 . S
C849 H828 0.950 . S
C849 C848 1.373 . S
C849 C865 1.377 . S
C850 C848 1.389 . S
C850 C851 1.524 . S
C850 C864 1.377 . S
C851 C850 1.524 . S
C851 C852 1.397 . S
C851 C856 1.363 . S
C852 H829 0.950 . S
C852 C851 1.397 . S
C852 C853 1.334 . S
C853 H830 0.950 . S
C853 C852 1.334 . S
C853 C854 1.287 . S
C854 C853 1.287 . S
C854 C855 1.524 . S
C854 H873 0.913 . S
C855 H831 0.950 . S
C855 C854 1.524 . S
C855 C856 1.415 . S
C856 H832 0.950 . S
C856 C851 1.363 . S
C856 C855 1.415 . S
C857 H833 0.951 . S
C857 C858 1.366 . S
C857 C859 1.388 . S
C858 C857 1.366 . S
C858 C862 1.385 . S
C859 H834 0.951 . S
C859 C857 1.388 . S
C859 C860 1.366 . S
C860 C859 1.366 . S
C860 C861 1.414 . S
C860 C863 1.499 . S
C861 H835 0.950 . S
C861 C860 1.414 . S
C861 C862 1.374 . S
C862 H836 0.950 . S
C862 C858 1.385 . S
C862 C861 1.374 . S
C863 C860 1.499 . S
C863 C864 1.373 . S
C863 C865 1.389 . S
C864 H837 0.950 . S
C864 C850 1.377 . S
C864 C863 1.373 . S
C865 C849 1.377 . S
C865 C863 1.389 . S
C865 C866 1.524 . S
C866 C865 1.524 . S
C866 C867 1.397 . S
C866 C871 1.363 . S
C867 H838 0.950 . S
C867 C866 1.397 . S
C867 C868 1.334 . S
C868 H839 0.950 . S
C868 C867 1.334 . S
C868 C869 1.287 . S
C869 C868 1.287 . S
C869 C870 1.524 . S
C869 H872 0.999 . S
C870 H840 0.950 . S
C870 C869 1.524 . S
C870 C871 1.415 . S
C871 H841 0.950 . S
C871 C866 1.363 . S
C871 C870 1.415 . S
H872 C869 0.999 . S
H873 C854 0.913 . S
H874 C892 0.951 . S
H875 C894 0.951 . S
H876 C896 0.950 . S
H877 C897 0.950 . S
H878 C899 0.950 . S
H879 C902 0.950 . S
H880 C903 0.950 . S
H881 C905 0.950 . S
H882 C906 0.950 . S
H883 C907 0.951 . S
H884 C909 0.951 . S
H885 C911 0.950 . S
H886 C912 0.950 . S
H887 C914 0.950 . S
H888 C917 0.950 . S
H889 C918 0.950 . S
H890 C920 0.950 . S
H891 C921 0.950 . S
C892 H874 0.951 . S
C892 C893 1.366 . S
C892 C894 1.388 . S
C893 C892 1.366 . S
C893 C897 1.385 . S
C894 H875 0.951 . S
C894 C892 1.388 . S
C894 C895 1.366 . S
C895 C894 1.366 . S
C895 C896 1.414 . S
C895 C898 1.499 . S
C896 H876 0.950 . S
C896 C895 1.414 . S
C896 C897 1.374 . S
C897 H877 0.950 . S
C897 C893 1.385 . S
C897 C896 1.374 . S
C898 C895 1.499 . S
C898 C899 1.373 . S
C898 C900 1.389 1_455 S
C899 H878 0.950 . S
C899 C898 1.373 . S
C899 C915 1.377 . S
C900 C898 1.389 1_655 S
C900 C901 1.524 . S
C900 C914 1.377 . S
C901 C900 1.524 . S
C901 C902 1.397 . S
C901 C906 1.363 . S
C902 H879 0.950 . S
C902 C901 1.397 . S
C902 C903 1.334 . S
C903 H880 0.950 . S
C903 C902 1.334 . S
C903 C904 1.287 . S
C904 C903 1.287 . S
C904 C905 1.524 . S
C904 H923 0.913 . S
C905 H881 0.950 . S
C905 C904 1.524 . S
C905 C906 1.415 . S
C906 H882 0.950 . S
C906 C901 1.363 . S
C906 C905 1.415 . S
C907 H883 0.951 . S
C907 C908 1.366 . S
C907 C909 1.388 . S
C908 C907 1.366 . S
C908 C912 1.385 . S
C909 H884 0.951 . S
C909 C907 1.388 . S
C909 C910 1.366 . S
C910 C909 1.366 . S
C910 C911 1.414 . S
C910 C913 1.499 . S
C911 H885 0.950 . S
C911 C910 1.414 . S
C911 C912 1.374 . S
C912 H886 0.950 . S
C912 C908 1.385 . S
C912 C911 1.374 . S
C913 C910 1.499 . S
C913 C914 1.373 . S
C913 C915 1.389 1_655 S
C914 H887 0.950 . S
C914 C900 1.377 . S
C914 C913 1.373 . S
C915 C899 1.377 . S
C915 C913 1.389 1_455 S
C915 C916 1.524 . S
C916 C915 1.524 . S
C916 C917 1.397 . S
C916 C921 1.363 . S
C917 H888 0.950 . S
C917 C916 1.397 . S
C917 C918 1.334 . S
C918 H889 0.950 . S
C918 C917 1.334 . S
C918 C919 1.287 . S
C919 C918 1.287 . S
C919 C920 1.524 . S
C919 H922 0.999 . S
C920 H890 0.950 . S
C920 C919 1.524 . S
C920 C921 1.415 . S
C921 H891 0.950 . S
C921 C916 1.363 . S
C921 C920 1.415 . S
H922 C919 0.999 . S
H923 C904 0.913 . S
H924 C942 0.951 . S
H925 C944 0.951 . S
H926 C946 0.950 . S
H927 C947 0.950 . S
H928 C949 0.950 . S
H929 C952 0.950 . S
H930 C953 0.950 . S
H931 C955 0.950 . S
H932 C956 0.950 . S
H933 C957 0.951 . S
H934 C959 0.951 . S
H935 C961 0.950 . S
H936 C962 0.950 . S
H937 C964 0.950 . S
H938 C967 0.950 . S
H939 C968 0.950 . S
H940 C970 0.950 . S
H941 C971 0.950 . S
C942 H924 0.951 . S
C942 C943 1.366 . S
C942 C944 1.388 . S
C943 C942 1.366 . S
C943 C947 1.385 . S
C944 H925 0.951 . S
C944 C942 1.388 . S
C944 C945 1.366 . S
C945 C944 1.366 . S
C945 C946 1.414 . S
C945 C948 1.499 . S
C946 H926 0.950 . S
C946 C945 1.414 . S
C946 C947 1.374 . S
C947 H927 0.950 . S
C947 C943 1.385 . S
C947 C946 1.374 . S
C948 C945 1.499 . S
C948 C949 1.373 . S
C948 C950 1.389 . S
C949 H928 0.950 . S
C949 C948 1.373 . S
C949 C965 1.377 . S
C950 C948 1.389 . S
C950 C951 1.524 . S
C950 C964 1.377 . S
C951 C950 1.524 . S
C951 C952 1.397 . S
C951 C956 1.363 . S
C952 H929 0.950 . S
C952 C951 1.397 . S
C952 C953 1.334 . S
C953 H930 0.950 . S
C953 C952 1.334 . S
C953 C954 1.287 . S
C954 C953 1.287 . S
C954 C955 1.524 . S
C954 H973 0.913 . S
C955 H931 0.950 . S
C955 C954 1.524 . S
C955 C956 1.415 . S
C956 H932 0.950 . S
C956 C951 1.363 . S
C956 C955 1.415 . S
C957 H933 0.951 . S
C957 C958 1.366 . S
C957 C959 1.388 . S
C958 C957 1.366 . S
C958 C962 1.385 . S
C959 H934 0.951 . S
C959 C957 1.388 . S
C959 C960 1.366 . S
C960 C959 1.366 . S
C960 C961 1.414 . S
C960 C963 1.499 . S
C961 H935 0.950 . S
C961 C960 1.414 . S
C961 C962 1.374 . S
C962 H936 0.950 . S
C962 C958 1.385 . S
C962 C961 1.374 . S
C963 C960 1.499 . S
C963 C964 1.373 . S
C963 C965 1.389 . S
C964 H937 0.950 . S
C964 C950 1.377 . S
C964 C963 1.373 . S
C965 C949 1.377 . S
C965 C963 1.389 . S
C965 C966 1.524 . S
C966 C965 1.524 . S
C966 C967 1.397 . S
C966 C971 1.363 . S
C967 H938 0.950 . S
C967 C966 1.397 . S
C967 C968 1.334 . S
C968 H939 0.950 . S
C968 C967 1.334 . S
C968 C969 1.287 . S
C969 C968 1.287 . S
C969 C970 1.524 . S
C969 H972 0.999 . S
C970 H940 0.950 . S
C970 C969 1.524 . S
C970 C971 1.415 . S
C971 H941 0.950 . S
C971 C966 1.363 . S
C971 C970 1.415 . S
H972 C969 0.999 . S
H973 C954 0.913 . S
H974 C992 0.951 . S
H975 C994 0.951 . S
H976 C996 0.946 1_655 S
H977 C997 0.950 . S
H978 C999 0.950 . S
H979 C1002 0.950 . S
H980 C1003 0.950 . S
H981 C1005 0.950 . S
H982 C1006 0.950 1_455 S
H983 C1007 0.951 . S
H984 C1009 0.951 . S
H985 C1011 0.946 1_455 S
H986 C1012 0.950 . S
H987 C1014 0.950 . S
H988 C1017 0.950 . S
H989 C1018 0.950 . S
H990 C1020 0.950 . S
H991 C1021 0.950 1_655 S
C992 H974 0.951 . S
C992 C993 1.366 . S
C992 C994 1.388 . S
C993 C992 1.366 . S
C993 C997 1.385 . S
C994 H975 0.951 . S
C994 C992 1.388 . S
C994 C995 1.366 . S
C995 C994 1.366 . S
C995 C996 1.414 . S
C995 C998 1.499 . S
C996 H976 0.946 1_455 S
C996 C995 1.414 . S
C996 C997 1.374 . S
C997 H977 0.950 . S
C997 C993 1.385 . S
C997 C996 1.374 . S
C998 C995 1.499 . S
C998 C999 1.373 . S
C998 C1000 1.389 1_455 S
C999 H978 0.950 . S
C999 C998 1.373 . S
C999 C1015 1.377 . S
C1000 C998 1.389 1_655 S
C1000 C1001 1.524 . S
C1000 C1014 1.377 . S
C1001 C1000 1.524 . S
C1001 C1002 1.397 . S
C1001 C1006 1.363 . S
C1002 H979 0.950 . S
C1002 C1001 1.397 . S
C1002 C1003 1.334 . S
C1003 H980 0.950 . S
C1003 C1002 1.334 . S
C1003 C1004 1.287 . S
C1004 C1003 1.287 . S
C1004 C1005 1.524 . S
C1004 H1023 0.913 . S
C1005 H981 0.950 . S
C1005 C1004 1.524 . S
C1005 C1006 1.415 . S
C1006 H982 0.950 1_655 S
C1006 C1001 1.363 . S
C1006 C1005 1.415 . S
C1007 H983 0.951 . S
C1007 C1008 1.366 . S
C1007 C1009 1.388 . S
C1008 C1007 1.366 . S
C1008 C1012 1.385 . S
C1009 H984 0.951 . S
C1009 C1007 1.388 . S
C1009 C1010 1.366 . S
C1010 C1009 1.366 . S
C1010 C1011 1.414 . S
C1010 C1013 1.499 . S
C1011 H985 0.946 1_655 S
C1011 C1010 1.414 . S
C1011 C1012 1.374 . S
C1012 H986 0.950 . S
C1012 C1008 1.385 . S
C1012 C1011 1.374 . S
C1013 C1010 1.499 . S
C1013 C1014 1.373 . S
C1013 C1015 1.389 1_655 S
C1014 H987 0.950 . S
C1014 C1000 1.377 . S
C1014 C1013 1.373 . S
C1015 C999 1.377 . S
C1015 C1013 1.389 1_455 S
C1015 C1016 1.524 . S
C1016 C1015 1.524 . S
C1016 C1017 1.397 . S
C1016 C1021 1.363 . S
C1017 H988 0.950 . S
C1017 C1016 1.397 . S
C1017 C1018 1.334 . S
C1018 H989 0.950 . S
C1018 C1017 1.334 . S
C1018 C1019 1.287 . S
C1019 C1018 1.287 . S
C1019 C1020 1.524 . S
C1019 H1022 0.999 . S
C1020 H990 0.950 . S
C1020 C1019 1.524 . S
C1020 C1021 1.415 . S
C1021 H991 0.950 1_455 S
C1021 C1016 1.363 . S
C1021 C1020 1.415 . S
H1022 C1019 0.999 . S
H1023 C1004 0.913 . S
H1024 C1042 0.951 . S
H1025 C1044 0.951 . S
H1026 C1046 0.950 . S
H1027 C1047 0.950 . S
H1028 C1049 0.950 . S
H1029 C1052 0.950 . S
H1030 C1053 0.950 . S
H1031 C1055 0.950 . S
H1032 C1056 0.950 . S
H1033 C1057 0.951 . S
H1034 C1059 0.951 . S
H1035 C1061 0.950 . S
H1036 C1062 0.950 . S
H1037 C1064 0.950 . S
H1038 C1067 0.950 . S
H1039 C1068 0.950 . S
H1040 C1070 0.950 . S
H1041 C1071 0.950 . S
C1042 H1024 0.951 . S
C1042 C1043 1.366 . S
C1042 C1044 1.388 . S
C1043 C1042 1.366 . S
C1043 C1047 1.385 . S
C1044 H1025 0.951 . S
C1044 C1042 1.388 . S
C1044 C1045 1.366 . S
C1045 C1044 1.366 . S
C1045 C1046 1.414 . S
C1045 C1048 1.499 . S
C1046 H1026 0.950 . S
C1046 C1045 1.414 . S
C1046 C1047 1.374 . S
C1047 H1027 0.950 . S
C1047 C1043 1.385 . S
C1047 C1046 1.374 . S
C1048 C1045 1.499 . S
C1048 C1049 1.373 1_455 S
C1048 C1050 1.389 . S
C1049 H1028 0.950 . S
C1049 C1048 1.373 1_655 S
C1049 C1065 1.377 . S
C1050 C1048 1.389 . S
C1050 C1051 1.524 . S
C1050 C1064 1.377 . S
C1051 C1050 1.524 . S
C1051 C1052 1.397 . S
C1051 C1056 1.363 . S
C1052 H1029 0.950 . S
C1052 C1051 1.397 . S
C1052 C1053 1.334 . S
C1053 H1030 0.950 . S
C1053 C1052 1.334 . S
C1053 C1054 1.287 . S
C1054 C1053 1.287 . S
C1054 C1055 1.524 . S
C1054 H1073 0.913 . S
C1055 H1031 0.950 . S
C1055 C1054 1.524 . S
C1055 C1056 1.415 . S
C1056 H1032 0.950 . S
C1056 C1051 1.363 . S
C1056 C1055 1.415 . S
C1057 H1033 0.951 . S
C1057 C1058 1.366 . S
C1057 C1059 1.388 . S
C1058 C1057 1.366 . S
C1058 C1062 1.385 . S
C1059 H1034 0.951 . S
C1059 C1057 1.388 . S
C1059 C1060 1.366 . S
C1060 C1059 1.366 . S
C1060 C1061 1.414 . S
C1060 C1063 1.499 . S
C1061 H1035 0.950 . S
C1061 C1060 1.414 . S
C1061 C1062 1.374 . S
C1062 H1036 0.950 . S
C1062 C1058 1.385 . S
C1062 C1061 1.374 . S
C1063 C1060 1.499 . S
C1063 C1064 1.373 1_655 S
C1063 C1065 1.389 . S
C1064 H1037 0.950 . S
C1064 C1050 1.377 . S
C1064 C1063 1.373 1_455 S
C1065 C1049 1.377 . S
C1065 C1063 1.389 . S
C1065 C1066 1.524 . S
C1066 C1065 1.524 . S
C1066 C1067 1.397 . S
C1066 C1071 1.363 . S
C1067 H1038 0.950 . S
C1067 C1066 1.397 . S
C1067 C1068 1.334 . S
C1068 H1039 0.950 . S
C1068 C1067 1.334 . S
C1068 C1069 1.287 . S
C1069 C1068 1.287 . S
C1069 C1070 1.524 . S
C1069 H1072 0.999 . S
C1070 H1040 0.950 . S
C1070 C1069 1.524 . S
C1070 C1071 1.415 . S
C1071 H1041 0.950 . S
C1071 C1066 1.363 . S
C1071 C1070 1.415 . S
H1072 C1069 0.999 . S
H1073 C1054 0.913 . S
H1074 C1092 0.951 . S
H1075 C1094 0.951 . S
H1076 C1096 0.950 . S
H1077 C1097 0.950 . S
H1078 C1099 0.950 . S
H1079 C1102 0.950 . S
H1080 C1103 0.950 . S
H1081 C1105 0.950 . S
H1082 C1106 0.950 . S
H1083 C1107 0.951 . S
H1084 C1109 0.951 . S
H1085 C1111 0.950 . S
H1086 C1112 0.950 . S
H1087 C1114 0.950 . S
H1088 C1117 0.950 . S
H1089 C1118 0.950 . S
H1090 C1120 0.950 . S
H1091 C1121 0.950 . S
C1092 H1074 0.951 . S
C1092 C1093 1.366 . S
C1092 C1094 1.388 . S
C1093 C1092 1.366 . S
C1093 C1097 1.385 . S
C1094 H1075 0.951 . S
C1094 C1092 1.388 . S
C1094 C1095 1.366 . S
C1095 C1094 1.366 . S
C1095 C1096 1.414 . S
C1095 C1098 1.499 . S
C1096 H1076 0.950 . S
C1096 C1095 1.414 . S
C1096 C1097 1.374 . S
C1097 H1077 0.950 . S
C1097 C1093 1.385 . S
C1097 C1096 1.374 . S
C1098 C1095 1.499 . S
C1098 C1099 1.373 . S
C1098 C1100 1.389 . S
C1099 H1078 0.950 . S
C1099 C1098 1.373 . S
C1099 C1115 1.377 . S
C1100 C1098 1.389 . S
C1100 C1101 1.524 . S
C1100 C1114 1.377 . S
C1101 C1100 1.524 . S
C1101 C1102 1.397 . S
C1101 C1106 1.363 . S
C1102 H1079 0.950 . S
C1102 C1101 1.397 . S
C1102 C1103 1.334 . S
C1103 H1080 0.950 . S
C1103 C1102 1.334 . S
C1103 C1104 1.287 . S
C1104 C1103 1.287 . S
C1104 C1105 1.524 . S
C1104 H1123 0.913 . S
C1105 H1081 0.950 . S
C1105 C1104 1.524 . S
C1105 C1106 1.415 . S
C1106 H1082 0.950 . S
C1106 C1101 1.363 . S
C1106 C1105 1.415 . S
C1107 H1083 0.951 . S
C1107 C1108 1.366 . S
C1107 C1109 1.388 . S
C1108 C1107 1.366 . S
C1108 C1112 1.385 . S
C1109 H1084 0.951 . S
C1109 C1107 1.388 . S
C1109 C1110 1.366 . S
C1110 C1109 1.366 . S
C1110 C1111 1.414 . S
C1110 C1113 1.499 . S
C1111 H1085 0.950 . S
C1111 C1110 1.414 . S
C1111 C1112 1.374 . S
C1112 H1086 0.950 . S
C1112 C1108 1.385 . S
C1112 C1111 1.374 . S
C1113 C1110 1.499 . S
C1113 C1114 1.373 . S
C1113 C1115 1.389 . S
C1114 H1087 0.950 . S
C1114 C1100 1.377 . S
C1114 C1113 1.373 . S
C1115 C1099 1.377 . S
C1115 C1113 1.389 . S
C1115 C1116 1.524 . S
C1116 C1115 1.524 . S
C1116 C1117 1.397 . S
C1116 C1121 1.363 . S
C1117 H1088 0.950 . S
C1117 C1116 1.397 . S
C1117 C1118 1.334 . S
C1118 H1089 0.950 . S
C1118 C1117 1.334 . S
C1118 C1119 1.287 . S
C1119 C1118 1.287 . S
C1119 C1120 1.524 . S
C1119 H1122 0.999 . S
C1120 H1090 0.950 . S
C1120 C1119 1.524 . S
C1120 C1121 1.415 . S
C1121 H1091 0.950 . S
C1121 C1116 1.363 . S
C1121 C1120 1.415 . S
H1122 C1119 0.999 . S
H1123 C1104 0.913 . S
H1124 C1142 0.951 . S
H1125 C1144 0.951 . S
H1126 C1146 0.950 . S
H1127 C1147 0.950 . S
H1128 C1149 0.950 . S
H1129 C1152 0.950 . S
H1130 C1153 0.950 . S
H1131 C1155 0.950 . S
H1132 C1156 0.950 . S
H1133 C1157 0.951 . S
H1134 C1159 0.951 . S
H1135 C1161 0.950 . S
H1136 C1162 0.950 . S
H1137 C1164 0.950 . S
H1138 C1167 0.950 . S
H1139 C1168 0.950 . S
H1140 C1170 0.950 . S
H1141 C1171 0.950 . S
C1142 H1124 0.951 . S
C1142 C1143 1.366 . S
C1142 C1144 1.388 . S
C1143 C1142 1.366 . S
C1143 C1147 1.385 . S
C1144 H1125 0.951 . S
C1144 C1142 1.388 . S
C1144 C1145 1.366 . S
C1145 C1144 1.366 . S
C1145 C1146 1.414 . S
C1145 C1148 1.499 . S
C1146 H1126 0.950 . S
C1146 C1145 1.414 . S
C1146 C1147 1.374 . S
C1147 H1127 0.950 . S
C1147 C1143 1.385 . S
C1147 C1146 1.374 . S
C1148 C1145 1.499 . S
C1148 C1149 1.373 . S
C1148 C1150 1.389 . S
C1149 H1128 0.950 . S
C1149 C1148 1.373 . S
C1149 C1165 1.377 . S
C1150 C1148 1.389 . S
C1150 C1151 1.524 . S
C1150 C1164 1.377 . S
C1151 C1150 1.524 . S
C1151 C1152 1.397 . S
C1151 C1156 1.363 . S
C1152 H1129 0.950 . S
C1152 C1151 1.397 . S
C1152 C1153 1.334 . S
C1153 H1130 0.950 . S
C1153 C1152 1.334 . S
C1153 C1154 1.287 . S
C1154 C1153 1.287 . S
C1154 C1155 1.524 . S
C1154 H1173 0.913 . S
C1155 H1131 0.950 . S
C1155 C1154 1.524 . S
C1155 C1156 1.415 . S
C1156 H1132 0.950 . S
C1156 C1151 1.363 . S
C1156 C1155 1.415 . S
C1157 H1133 0.951 . S
C1157 C1158 1.366 . S
C1157 C1159 1.388 . S
C1158 C1157 1.366 . S
C1158 C1162 1.385 . S
C1159 H1134 0.951 . S
C1159 C1157 1.388 . S
C1159 C1160 1.366 . S
C1160 C1159 1.366 . S
C1160 C1161 1.414 . S
C1160 C1163 1.499 . S
C1161 H1135 0.950 . S
C1161 C1160 1.414 . S
C1161 C1162 1.374 . S
C1162 H1136 0.950 . S
C1162 C1158 1.385 . S
C1162 C1161 1.374 . S
C1163 C1160 1.499 . S
C1163 C1164 1.373 . S
C1163 C1165 1.389 . S
C1164 H1137 0.950 . S
C1164 C1150 1.377 . S
C1164 C1163 1.373 . S
C1165 C1149 1.377 . S
C1165 C1163 1.389 . S
C1165 C1166 1.524 . S
C1166 C1165 1.524 . S
C1166 C1167 1.397 . S
C1166 C1171 1.363 . S
C1167 H1138 0.950 . S
C1167 C1166 1.397 . S
C1167 C1168 1.334 . S
C1168 H1139 0.950 . S
C1168 C1167 1.334 . S
C1168 C1169 1.287 . S
C1169 C1168 1.287 . S
C1169 C1170 1.524 . S
C1169 H1172 0.999 . S
C1170 H1140 0.950 . S
C1170 C1169 1.524 . S
C1170 C1171 1.415 . S
C1171 H1141 0.950 . S
C1171 C1166 1.363 . S
C1171 C1170 1.415 . S
H1172 C1169 0.999 . S
H1173 C1154 0.913 . S
H1174 C1192 0.951 . S
H1175 C1194 0.951 . S
H1176 C1196 0.950 . S
H1177 C1197 0.950 . S
H1178 C1199 0.950 . S
H1179 C1202 0.950 . S
H1180 C1203 0.950 . S
H1181 C1205 0.950 . S
H1182 C1206 0.950 . S
H1183 C1207 0.951 . S
H1184 C1209 0.951 . S
H1185 C1211 0.950 . S
H1186 C1212 0.950 . S
H1187 C1214 0.950 . S
H1188 C1217 0.950 . S
H1189 C1218 0.950 . S
H1190 C1220 0.950 . S
H1191 C1221 0.950 . S
C1192 H1174 0.951 . S
C1192 C1193 1.366 . S
C1192 C1194 1.388 . S
C1193 C1192 1.366 . S
C1193 C1197 1.385 . S
C1194 H1175 0.951 . S
C1194 C1192 1.388 . S
C1194 C1195 1.366 . S
C1195 C1194 1.366 . S
C1195 C1196 1.414 . S
C1195 C1198 1.499 . S
C1196 H1176 0.950 . S
C1196 C1195 1.414 . S
C1196 C1197 1.374 . S
C1197 H1177 0.950 . S
C1197 C1193 1.385 . S
C1197 C1196 1.374 . S
C1198 C1195 1.499 . S
C1198 C1199 1.373 1_455 S
C1198 C1200 1.389 . S
C1199 H1178 0.950 . S
C1199 C1198 1.373 1_655 S
C1199 C1215 1.377 . S
C1200 C1198 1.389 . S
C1200 C1201 1.524 . S
C1200 C1214 1.377 . S
C1201 C1200 1.524 . S
C1201 C1202 1.397 . S
C1201 C1206 1.363 . S
C1202 H1179 0.950 . S
C1202 C1201 1.397 . S
C1202 C1203 1.334 . S
C1203 H1180 0.950 . S
C1203 C1202 1.334 . S
C1203 C1204 1.287 . S
C1204 C1203 1.287 . S
C1204 C1205 1.524 . S
C1204 H1223 0.913 . S
C1205 H1181 0.950 . S
C1205 C1204 1.524 . S
C1205 C1206 1.415 . S
C1206 H1182 0.950 . S
C1206 C1201 1.363 . S
C1206 C1205 1.415 . S
C1207 H1183 0.951 . S
C1207 C1208 1.366 . S
C1207 C1209 1.388 . S
C1208 C1207 1.366 . S
C1208 C1212 1.385 . S
C1209 H1184 0.951 . S
C1209 C1207 1.388 . S
C1209 C1210 1.366 . S
C1210 C1209 1.366 . S
C1210 C1211 1.414 . S
C1210 C1213 1.499 . S
C1211 H1185 0.950 . S
C1211 C1210 1.414 . S
C1211 C1212 1.374 . S
C1212 H1186 0.950 . S
C1212 C1208 1.385 . S
C1212 C1211 1.374 . S
C1213 C1210 1.499 . S
C1213 C1214 1.373 1_655 S
C1213 C1215 1.389 . S
C1214 H1187 0.950 . S
C1214 C1200 1.377 . S
C1214 C1213 1.373 1_455 S
C1215 C1199 1.377 . S
C1215 C1213 1.389 . S
C1215 C1216 1.524 . S
C1216 C1215 1.524 . S
C1216 C1217 1.397 . S
C1216 C1221 1.363 . S
C1217 H1188 0.950 . S
C1217 C1216 1.397 . S
C1217 C1218 1.334 . S
C1218 H1189 0.950 . S
C1218 C1217 1.334 . S
C1218 C1219 1.287 . S
C1219 C1218 1.287 . S
C1219 C1220 1.524 . S
C1219 H1222 0.999 . S
C1220 H1190 0.950 . S
C1220 C1219 1.524 . S
C1220 C1221 1.415 . S
C1221 H1191 0.950 . S
C1221 C1216 1.363 . S
C1221 C1220 1.415 . S
H1222 C1219 0.999 . S
H1223 C1204 0.913 . S
H1224 C1242 0.951 . S
H1225 C1244 0.951 . S
H1226 C1246 0.950 1_655 S
H1227 C1247 0.950 . S
H1228 C1249 0.953 . S
H1229 C1252 0.950 . S
H1230 C1253 0.950 . S
H1231 C1255 0.950 . S
H1232 C1256 0.950 . S
H1233 C1257 0.951 . S
H1234 C1259 0.951 . S
H1235 C1261 0.950 1_455 S
H1236 C1262 0.950 . S
H1237 C1264 0.953 . S
H1238 C1267 0.950 . S
H1239 C1268 0.950 . S
H1240 C1270 0.950 . S
H1241 C1271 0.950 . S
C1242 H1224 0.951 . S
C1242 C1243 1.366 . S
C1242 C1244 1.388 . S
C1243 C1242 1.366 . S
C1243 C1247 1.385 . S
C1244 H1225 0.951 . S
C1244 C1242 1.388 . S
C1244 C1245 1.366 . S
C1245 C1244 1.366 . S
C1245 C1246 1.414 . S
C1245 C1248 1.499 . S
C1246 H1226 0.950 1_455 S
C1246 C1245 1.414 . S
C1246 C1247 1.374 . S
C1247 H1227 0.950 . S
C1247 C1243 1.385 . S
C1247 C1246 1.374 . S
C1248 C1245 1.499 . S
C1248 C1249 1.385 . S
C1248 C1250 1.389 . S
C1249 H1228 0.953 . S
C1249 C1248 1.385 . S
C1249 C1265 1.365 1_455 S
C1250 C1248 1.389 . S
C1250 C1251 1.524 . S
C1250 C1264 1.365 1_455 S
C1251 C1250 1.524 . S
C1251 C1252 1.397 1_455 S
C1251 C1256 1.363 . S
C1252 H1229 0.950 . S
C1252 C1251 1.397 1_655 S
C1252 C1253 1.334 . S
C1253 H1230 0.950 . S
C1253 C1252 1.334 . S
C1253 C1254 1.287 1_655 S
C1254 C1253 1.287 1_455 S
C1254 C1255 1.524 . S
C1254 H1273 0.913 . S
C1255 H1231 0.950 . S
C1255 C1254 1.524 . S
C1255 C1256 1.415 . S
C1256 H1232 0.950 . S
C1256 C1251 1.363 . S
C1256 C1255 1.415 . S
C1257 H1233 0.951 . S
C1257 C1258 1.366 . S
C1257 C1259 1.388 . S
C1258 C1257 1.366 . S
C1258 C1262 1.385 . S
C1259 H1234 0.951 . S
C1259 C1257 1.388 . S
C1259 C1260 1.366 . S
C1260 C1259 1.366 . S
C1260 C1261 1.414 . S
C1260 C1263 1.499 . S
C1261 H1235 0.950 1_655 S
C1261 C1260 1.414 . S
C1261 C1262 1.374 . S
C1262 H1236 0.950 . S
C1262 C1258 1.385 . S
C1262 C1261 1.374 . S
C1263 C1260 1.499 . S
C1263 C1264 1.385 . S
C1263 C1265 1.389 . S
C1264 H1237 0.953 . S
C1264 C1250 1.365 1_655 S
C1264 C1263 1.385 . S
C1265 C1249 1.365 1_655 S
C1265 C1263 1.389 . S
C1265 C1266 1.524 . S
C1266 C1265 1.524 . S
C1266 C1267 1.397 1_655 S
C1266 C1271 1.363 . S
C1267 H1238 0.950 . S
C1267 C1266 1.397 1_455 S
C1267 C1268 1.334 . S
C1268 H1239 0.950 . S
C1268 C1267 1.334 . S
C1268 C1269 1.287 1_455 S
C1269 C1268 1.287 1_655 S
C1269 C1270 1.524 . S
C1269 H1272 0.999 . S
C1270 H1240 0.950 . S
C1270 C1269 1.524 . S
C1270 C1271 1.415 . S
C1271 H1241 0.950 . S
C1271 C1266 1.363 . S
C1271 C1270 1.415 . S
H1272 C1269 0.999 . S
H1273 C1254 0.913 . S
H1274 C1292 0.951 . S
H1275 C1294 0.951 . S
H1276 C1296 0.950 . S
H1277 C1297 0.950 . S
H1278 C1299 0.950 . S
H1279 C1302 0.950 . S
H1280 C1303 0.950 . S
H1281 C1305 0.950 . S
H1282 C1306 0.950 . S
H1283 C1307 0.951 . S
H1284 C1309 0.951 . S
H1285 C1311 0.950 . S
H1286 C1312 0.950 . S
H1287 C1314 0.950 . S
H1288 C1317 0.950 . S
H1289 C1318 0.950 . S
H1290 C1320 0.950 . S
H1291 C1321 0.950 . S
C1292 H1274 0.951 . S
C1292 C1293 1.366 . S
C1292 C1294 1.388 . S
C1293 C1292 1.366 . S
C1293 C1297 1.385 . S
C1294 H1275 0.951 . S
C1294 C1292 1.388 . S
C1294 C1295 1.366 . S
C1295 C1294 1.366 . S
C1295 C1296 1.414 . S
C1295 C1298 1.499 . S
C1296 H1276 0.950 . S
C1296 C1295 1.414 . S
C1296 C1297 1.374 . S
C1297 H1277 0.950 . S
C1297 C1293 1.385 . S
C1297 C1296 1.374 . S
C1298 C1295 1.499 . S
C1298 C1299 1.373 . S
C1298 C1300 1.389 . S
C1299 H1278 0.950 . S
C1299 C1298 1.373 . S
C1299 C1315 1.377 . S
C1300 C1298 1.389 . S
C1300 C1301 1.524 . S
C1300 C1314 1.377 . S
C1301 C1300 1.524 . S
C1301 C1302 1.397 . S
C1301 C1306 1.363 . S
C1302 H1279 0.950 . S
C1302 C1301 1.397 . S
C1302 C1303 1.334 . S
C1303 H1280 0.950 . S
C1303 C1302 1.334 . S
C1303 C1304 1.287 . S
C1304 C1303 1.287 . S
C1304 C1305 1.524 . S
C1304 H1323 0.913 . S
C1305 H1281 0.950 . S
C1305 C1304 1.524 . S
C1305 C1306 1.415 . S
C1306 H1282 0.950 . S
C1306 C1301 1.363 . S
C1306 C1305 1.415 . S
C1307 H1283 0.951 . S
C1307 C1308 1.366 . S
C1307 C1309 1.388 . S
C1308 C1307 1.366 . S
C1308 C1312 1.385 . S
C1309 H1284 0.951 . S
C1309 C1307 1.388 . S
C1309 C1310 1.366 . S
C1310 C1309 1.366 . S
C1310 C1311 1.414 . S
C1310 C1313 1.499 . S
C1311 H1285 0.950 . S
C1311 C1310 1.414 . S
C1311 C1312 1.374 . S
C1312 H1286 0.950 . S
C1312 C1308 1.385 . S
C1312 C1311 1.374 . S
C1313 C1310 1.499 . S
C1313 C1314 1.373 . S
C1313 C1315 1.389 . S
C1314 H1287 0.950 . S
C1314 C1300 1.377 . S
C1314 C1313 1.373 . S
C1315 C1299 1.377 . S
C1315 C1313 1.389 . S
C1315 C1316 1.524 . S
C1316 C1315 1.524 . S
C1316 C1317 1.397 . S
C1316 C1321 1.363 . S
C1317 H1288 0.950 . S
C1317 C1316 1.397 . S
C1317 C1318 1.334 . S
C1318 H1289 0.950 . S
C1318 C1317 1.334 . S
C1318 C1319 1.287 . S
C1319 C1318 1.287 . S
C1319 C1320 1.524 . S
C1319 H1322 0.999 . S
C1320 H1290 0.950 . S
C1320 C1319 1.524 . S
C1320 C1321 1.415 . S
C1321 H1291 0.950 . S
C1321 C1316 1.363 . S
C1321 C1320 1.415 . S
H1322 C1319 0.999 . S
H1323 C1304 0.913 . S
H1324 C1342 0.951 . S
H1325 C1344 0.951 . S
H1326 C1346 0.950 . S
H1327 C1347 0.950 . S
H1328 C1349 0.950 . S
H1329 C1352 0.950 . S
H1330 C1353 0.950 . S
H1331 C1355 0.950 . S
H1332 C1356 0.950 . S
H1333 C1357 0.951 . S
H1334 C1359 0.951 . S
H1335 C1361 0.950 . S
H1336 C1362 0.950 . S
H1337 C1364 0.950 . S
H1338 C1367 0.950 . S
H1339 C1368 0.950 . S
H1340 C1370 0.950 . S
H1341 C1371 0.950 . S
C1342 H1324 0.951 . S
C1342 C1343 1.366 . S
C1342 C1344 1.388 . S
C1343 C1342 1.366 . S
C1343 C1347 1.385 . S
C1344 H1325 0.951 . S
C1344 C1342 1.388 . S
C1344 C1345 1.366 . S
C1345 C1344 1.366 . S
C1345 C1346 1.414 . S
C1345 C1348 1.499 . S
C1346 H1326 0.950 . S
C1346 C1345 1.414 . S
C1346 C1347 1.374 . S
C1347 H1327 0.950 . S
C1347 C1343 1.385 . S
C1347 C1346 1.374 . S
C1348 C1345 1.499 . S
C1348 C1349 1.373 . S
C1348 C1350 1.389 . S
C1349 H1328 0.950 . S
C1349 C1348 1.373 . S
C1349 C1365 1.377 . S
C1350 C1348 1.389 . S
C1350 C1351 1.524 . S
C1350 C1364 1.377 . S
C1351 C1350 1.524 . S
C1351 C1352 1.397 . S
C1351 C1356 1.363 . S
C1352 H1329 0.950 . S
C1352 C1351 1.397 . S
C1352 C1353 1.334 . S
C1353 H1330 0.950 . S
C1353 C1352 1.334 . S
C1353 C1354 1.287 . S
C1354 C1353 1.287 . S
C1354 C1355 1.524 . S
C1354 H1373 0.913 . S
C1355 H1331 0.950 . S
C1355 C1354 1.524 . S
C1355 C1356 1.415 . S
C1356 H1332 0.950 . S
C1356 C1351 1.363 . S
C1356 C1355 1.415 . S
C1357 H1333 0.951 . S
C1357 C1358 1.366 . S
C1357 C1359 1.388 . S
C1358 C1357 1.366 . S
C1358 C1362 1.385 . S
C1359 H1334 0.951 . S
C1359 C1357 1.388 . S
C1359 C1360 1.366 . S
C1360 C1359 1.366 . S
C1360 C1361 1.414 . S
C1360 C1363 1.499 . S
C1361 H1335 0.950 . S
C1361 C1360 1.414 . S
C1361 C1362 1.374 . S
C1362 H1336 0.950 . S
C1362 C1358 1.385 . S
C1362 C1361 1.374 . S
C1363 C1360 1.499 . S
C1363 C1364 1.373 . S
C1363 C1365 1.389 . S
C1364 H1337 0.950 . S
C1364 C1350 1.377 . S
C1364 C1363 1.373 . S
C1365 C1349 1.377 . S
C1365 C1363 1.389 . S
C1365 C1366 1.524 . S
C1366 C1365 1.524 . S
C1366 C1367 1.397 . S
C1366 C1371 1.363 . S
C1367 H1338 0.950 . S
C1367 C1366 1.397 . S
C1367 C1368 1.334 . S
C1368 H1339 0.950 . S
C1368 C1367 1.334 . S
C1368 C1369 1.287 . S
C1369 C1368 1.287 . S
C1369 C1370 1.524 . S
C1369 H1372 0.999 . S
C1370 H1340 0.950 . S
C1370 C1369 1.524 . S
C1370 C1371 1.415 . S
C1371 H1341 0.950 . S
C1371 C1366 1.363 . S
C1371 C1370 1.415 . S
H1372 C1369 0.999 . S
H1373 C1354 0.913 . S
H1374 C1392 0.951 . S
H1375 C1394 0.951 . S
H1376 C1396 0.950 1_655 S
H1377 C1397 0.950 . S
H1378 C1399 0.950 . S
H1379 C1402 0.950 . S
H1380 C1403 0.950 . S
H1381 C1405 0.950 . S
H1382 C1406 0.950 . S
H1383 C1407 0.951 . S
H1384 C1409 0.951 . S
H1385 C1411 0.950 1_455 S
H1386 C1412 0.950 . S
H1387 C1414 0.950 . S
H1388 C1417 0.950 . S
H1389 C1418 0.950 . S
H1390 C1420 0.950 . S
H1391 C1421 0.950 . S
C1392 H1374 0.951 . S
C1392 C1393 1.366 . S
C1392 C1394 1.388 . S
C1393 C1392 1.366 . S
C1393 C1397 1.385 . S
C1394 H1375 0.951 . S
C1394 C1392 1.388 . S
C1394 C1395 1.366 . S
C1395 C1394 1.366 . S
C1395 C1396 1.414 . S
C1395 C1398 1.499 . S
C1396 H1376 0.950 1_455 S
C1396 C1395 1.414 . S
C1396 C1397 1.374 . S
C1397 H1377 0.950 . S
C1397 C1393 1.385 . S
C1397 C1396 1.374 . S
C1398 C1395 1.499 . S
C1398 C1399 1.373 1_455 S
C1398 C1400 1.389 . S
C1399 H1378 0.950 . S
C1399 C1398 1.373 1_655 S
C1399 C1415 1.377 . S
C1400 C1398 1.389 . S
C1400 C1401 1.524 . S
C1400 C1414 1.377 . S
C1401 C1400 1.524 . S
C1401 C1402 1.397 . S
C1401 C1406 1.363 . S
C1402 H1379 0.950 . S
C1402 C1401 1.397 . S
C1402 C1403 1.334 . S
C1403 H1380 0.950 . S
C1403 C1402 1.334 . S
C1403 C1404 1.287 . S
C1404 C1403 1.287 . S
C1404 C1405 1.524 . S
C1404 H1423 0.913 . S
C1405 H1381 0.950 . S
C1405 C1404 1.524 . S
C1405 C1406 1.415 . S
C1406 H1382 0.950 . S
C1406 C1401 1.363 . S
C1406 C1405 1.415 . S
C1407 H1383 0.951 . S
C1407 C1408 1.366 . S
C1407 C1409 1.388 . S
C1408 C1407 1.366 . S
C1408 C1412 1.385 . S
C1409 H1384 0.951 . S
C1409 C1407 1.388 . S
C1409 C1410 1.366 . S
C1410 C1409 1.366 . S
C1410 C1411 1.414 . S
C1410 C1413 1.499 . S
C1411 H1385 0.950 1_655 S
C1411 C1410 1.414 . S
C1411 C1412 1.374 . S
C1412 H1386 0.950 . S
C1412 C1408 1.385 . S
C1412 C1411 1.374 . S
C1413 C1410 1.499 . S
C1413 C1414 1.373 1_655 S
C1413 C1415 1.389 . S
C1414 H1387 0.950 . S
C1414 C1400 1.377 . S
C1414 C1413 1.373 1_455 S
C1415 C1399 1.377 . S
C1415 C1413 1.389 . S
C1415 C1416 1.524 . S
C1416 C1415 1.524 . S
C1416 C1417 1.397 . S
C1416 C1421 1.363 . S
C1417 H1388 0.950 . S
C1417 C1416 1.397 . S
C1417 C1418 1.334 . S
C1418 H1389 0.950 . S
C1418 C1417 1.334 . S
C1418 C1419 1.287 . S
C1419 C1418 1.287 . S
C1419 C1420 1.524 . S
C1419 H1422 0.999 . S
C1420 H1390 0.950 . S
C1420 C1419 1.524 . S
C1420 C1421 1.415 . S
C1421 H1391 0.950 . S
C1421 C1416 1.363 . S
C1421 C1420 1.415 . S
H1422 C1419 0.999 . S
H1423 C1404 0.913 . S
H1424 C1442 0.951 . S
H1425 C1444 0.951 . S
H1426 C1446 0.950 1_455 S
H1427 C1447 0.950 . S
H1428 C1449 0.950 . S
H1429 C1452 0.950 . S
H1430 C1453 0.950 . S
H1431 C1455 0.927 1_554 S
H1432 C1456 0.901 1_554 S
H1433 C1457 0.951 . S
H1434 C1459 0.951 . S
H1435 C1461 0.950 1_655 S
H1436 C1462 0.950 . S
H1437 C1464 0.950 . S
H1438 C1467 0.950 . S
H1439 C1468 0.950 . S
H1440 C1470 0.927 1_556 S
H1441 C1471 0.901 1_556 S
C1442 H1424 0.951 . S
C1442 C1443 1.366 . S
C1442 C1444 1.388 . S
C1443 C1442 1.366 . S
C1443 C1447 1.385 . S
C1444 H1425 0.951 . S
C1444 C1442 1.388 . S
C1444 C1445 1.366 . S
C1445 C1444 1.366 . S
C1445 C1446 1.414 . S
C1445 C1448 1.499 . S
C1446 H1426 0.950 1_655 S
C1446 C1445 1.414 . S
C1446 C1447 1.374 . S
C1447 H1427 0.950 . S
C1447 C1443 1.385 . S
C1447 C1446 1.374 . S
C1448 C1445 1.499 . S
C1448 C1449 1.373 1_655 S
C1448 C1450 1.389 1_565 S
C1449 H1428 0.950 . S
C1449 C1448 1.373 1_455 S
C1449 C1465 1.377 1_556 S
C1450 C1448 1.389 1_545 S
C1450 C1451 1.524 . S
C1450 C1464 1.377 1_556 S
C1451 C1450 1.524 . S
C1451 C1452 1.397 . S
C1451 C1456 1.397 . S
C1452 H1429 0.950 . S
C1452 C1451 1.397 . S
C1452 C1453 1.334 . S
C1453 H1430 0.950 . S
C1453 C1452 1.334 . S
C1453 C1454 1.287 . S
C1454 C1453 1.287 . S
C1454 C1455 1.524 . S
C1454 H1473 0.913 . S
C1455 H1431 0.927 1_556 S
C1455 C1454 1.524 . S
C1455 C1456 1.431 . S
C1456 H1432 0.901 1_556 S
C1456 C1451 1.397 . S
C1456 C1455 1.431 . S
C1457 H1433 0.951 . S
C1457 C1458 1.366 . S
C1457 C1459 1.388 . S
C1458 C1457 1.366 . S
C1458 C1462 1.385 . S
C1459 H1434 0.951 . S
C1459 C1457 1.388 . S
C1459 C1460 1.366 . S
C1460 C1459 1.366 . S
C1460 C1461 1.414 . S
C1460 C1463 1.499 . S
C1461 H1435 0.950 1_455 S
C1461 C1460 1.414 . S
C1461 C1462 1.374 . S
C1462 H1436 0.950 . S
C1462 C1458 1.385 . S
C1462 C1461 1.374 . S
C1463 C1460 1.499 . S
C1463 C1464 1.373 1_455 S
C1463 C1465 1.389 1_545 S
C1464 H1437 0.950 . S
C1464 C1450 1.377 1_554 S
C1464 C1463 1.373 1_655 S
C1465 C1449 1.377 1_554 S
C1465 C1463 1.389 1_565 S
C1465 C1466 1.524 . S
C1466 C1465 1.524 . S
C1466 C1467 1.397 . S
C1466 C1471 1.397 . S
C1467 H1438 0.950 . S
C1467 C1466 1.397 . S
C1467 C1468 1.334 . S
C1468 H1439 0.950 . S
C1468 C1467 1.334 . S
C1468 C1469 1.287 . S
C1469 C1468 1.287 . S
C1469 C1470 1.524 . S
C1469 H1472 0.999 . S
C1470 H1440 0.927 1_554 S
C1470 C1469 1.524 . S
C1470 C1471 1.431 . S
C1471 H1441 0.901 1_554 S
C1471 C1466 1.397 . S
C1471 C1470 1.431 . S
H1472 C1469 0.999 . S
H1473 C1454 0.913 . S
H1474 C1492 0.951 . S
H1475 C1494 0.951 . S
H1476 C1496 0.950 . S
H1477 C1497 0.950 . S
H1478 C1499 0.950 . S
H1479 C1502 0.950 . S
H1480 C1503 0.950 . S
H1481 C1505 0.950 . S
H1482 C1506 0.950 1_545 S
H1483 C1507 0.951 . S
H1484 C1509 0.951 . S
H1485 C1511 0.950 . S
H1486 C1512 0.950 . S
H1487 C1514 0.950 . S
H1488 C1517 0.950 . S
H1489 C1518 0.950 . S
H1490 C1520 0.950 . S
H1491 C1521 0.950 1_565 S
C1492 H1474 0.951 . S
C1492 C1493 1.366 . S
C1492 C1494 1.388 . S
C1493 C1492 1.366 . S
C1493 C1497 1.385 . S
C1494 H1475 0.951 . S
C1494 C1492 1.388 . S
C1494 C1495 1.366 . S
C1495 C1494 1.366 . S
C1495 C1496 1.414 . S
C1495 C1498 1.499 . S
C1496 H1476 0.950 . S
C1496 C1495 1.414 . S
C1496 C1497 1.374 . S
C1497 H1477 0.950 . S
C1497 C1493 1.385 . S
C1497 C1496 1.374 . S
C1498 C1495 1.499 . S
C1498 C1499 1.373 . S
C1498 C1500 1.389 1_545 S
C1499 H1478 0.950 . S
C1499 C1498 1.373 . S
C1499 C1515 1.377 1_556 S
C1500 C1498 1.389 1_565 S
C1500 C1501 1.524 . S
C1500 C1514 1.377 1_556 S
C1501 C1500 1.524 . S
C1501 C1502 1.397 . S
C1501 C1506 1.363 1_556 S
C1502 H1479 0.950 . S
C1502 C1501 1.397 . S
C1502 C1503 1.334 . S
C1503 H1480 0.950 . S
C1503 C1502 1.334 . S
C1503 C1504 1.287 . S
C1504 C1503 1.287 . S
C1504 C1505 1.524 1_556 S
C1504 H1523 0.913 . S
C1505 H1481 0.950 . S
C1505 C1504 1.524 1_554 S
C1505 C1506 1.415 . S
C1506 H1482 0.950 1_565 S
C1506 C1501 1.363 1_554 S
C1506 C1505 1.415 . S
C1507 H1483 0.951 . S
C1507 C1508 1.366 . S
C1507 C1509 1.388 . S
C1508 C1507 1.366 . S
C1508 C1512 1.385 . S
C1509 H1484 0.951 . S
C1509 C1507 1.388 . S
C1509 C1510 1.366 . S
C1510 C1509 1.366 . S
C1510 C1511 1.414 . S
C1510 C1513 1.499 . S
C1511 H1485 0.950 . S
C1511 C1510 1.414 . S
C1511 C1512 1.374 . S
C1512 H1486 0.950 . S
C1512 C1508 1.385 . S
C1512 C1511 1.374 . S
C1513 C1510 1.499 . S
C1513 C1514 1.373 . S
C1513 C1515 1.389 1_565 S
C1514 H1487 0.950 . S
C1514 C1500 1.377 1_554 S
C1514 C1513 1.373 . S
C1515 C1499 1.377 1_554 S
C1515 C1513 1.389 1_545 S
C1515 C1516 1.524 . S
C1516 C1515 1.524 . S
C1516 C1517 1.397 . S
C1516 C1521 1.363 1_554 S
C1517 H1488 0.950 . S
C1517 C1516 1.397 . S
C1517 C1518 1.334 . S
C1518 H1489 0.950 . S
C1518 C1517 1.334 . S
C1518 C1519 1.287 . S
C1519 C1518 1.287 . S
C1519 C1520 1.524 1_554 S
C1519 H1522 0.999 . S
C1520 H1490 0.950 . S
C1520 C1519 1.524 1_556 S
C1520 C1521 1.415 . S
C1521 H1491 0.950 1_545 S
C1521 C1516 1.363 1_556 S
C1521 C1520 1.415 . S
H1522 C1519 0.999 . S
H1523 C1504 0.913 . S
H1524 C1542 0.951 . S
H1525 C1544 0.951 1_565 S
H1526 C1546 0.950 . S
H1527 C1547 0.950 . S
H1528 C1549 0.950 . S
H1529 C1552 0.950 . S
H1530 C1553 0.950 . S
H1531 C1555 0.950 . S
H1532 C1556 0.950 . S
H1533 C1557 0.951 . S
H1534 C1559 0.951 1_545 S
H1535 C1561 0.950 . S
H1536 C1562 0.950 . S
H1537 C1564 0.950 . S
H1538 C1567 0.950 . S
H1539 C1568 0.950 . S
H1540 C1570 0.950 . S
H1541 C1571 0.950 . S
C1542 H1524 0.951 . S
C1542 C1543 1.366 . S
C1542 C1544 1.388 . S
C1543 C1542 1.366 . S
C1543 C1547 1.385 . S
C1544 H1525 0.951 1_545 S
C1544 C1542 1.388 . S
C1544 C1545 1.366 . S
C1545 C1544 1.366 . S
C1545 C1546 1.414 . S
C1545 C1548 1.499 . S
C1546 H1526 0.950 . S
C1546 C1545 1.414 . S
C1546 C1547 1.374 . S
C1547 H1527 0.950 . S
C1547 C1543 1.385 . S
C1547 C1546 1.374 . S
C1548 C1545 1.499 . S
C1548 C1549 1.373 . S
C1548 C1550 1.389 1_545 S
C1549 H1528 0.950 . S
C1549 C1548 1.373 . S
C1549 C1565 1.377 . S
C1550 C1548 1.389 1_565 S
C1550 C1551 1.524 . S
C1550 C1564 1.377 . S
C1551 C1550 1.524 . S
C1551 C1552 1.397 1_565 S
C1551 C1556 1.363 . S
C1552 H1529 0.950 . S
C1552 C1551 1.397 1_545 S
C1552 C1553 1.334 . S
C1553 H1530 0.950 . S
C1553 C1552 1.334 . S
C1553 C1554 1.287 1_545 S
C1554 C1553 1.287 1_565 S
C1554 C1555 1.524 . S
C1554 H1573 0.913 . S
C1555 H1531 0.950 . S
C1555 C1554 1.524 . S
C1555 C1556 1.415 . S
C1556 H1532 0.950 . S
C1556 C1551 1.363 . S
C1556 C1555 1.415 . S
C1557 H1533 0.951 . S
C1557 C1558 1.366 . S
C1557 C1559 1.388 . S
C1558 C1557 1.366 . S
C1558 C1562 1.385 . S
C1559 H1534 0.951 1_565 S
C1559 C1557 1.388 . S
C1559 C1560 1.366 . S
C1560 C1559 1.366 . S
C1560 C1561 1.414 . S
C1560 C1563 1.499 . S
C1561 H1535 0.950 . S
C1561 C1560 1.414 . S
C1561 C1562 1.374 . S
C1562 H1536 0.950 . S
C1562 C1558 1.385 . S
C1562 C1561 1.374 . S
C1563 C1560 1.499 . S
C1563 C1564 1.373 . S
C1563 C1565 1.389 1_565 S
C1564 H1537 0.950 . S
C1564 C1550 1.377 . S
C1564 C1563 1.373 . S
C1565 C1549 1.377 . S
C1565 C1563 1.389 1_545 S
C1565 C1566 1.524 . S
C1566 C1565 1.524 . S
C1566 C1567 1.397 1_545 S
C1566 C1571 1.363 . S
C1567 H1538 0.950 . S
C1567 C1566 1.397 1_565 S
C1567 C1568 1.334 . S
C1568 H1539 0.950 . S
C1568 C1567 1.334 . S
C1568 C1569 1.287 1_565 S
C1569 C1568 1.287 1_545 S
C1569 C1570 1.524 . S
C1569 H1572 0.999 . S
C1570 H1540 0.950 . S
C1570 C1569 1.524 . S
C1570 C1571 1.415 . S
C1571 H1541 0.950 . S
C1571 C1566 1.363 . S
C1571 C1570 1.415 . S
H1572 C1569 0.999 . S
H1573 C1554 0.913 . S
H1574 C1592 0.951 . S
H1575 C1594 0.951 . S
H1576 C1596 0.950 1_545 S
H1577 C1597 0.950 . S
H1578 C1599 0.950 . S
H1579 C1602 0.950 . S
H1580 C1603 0.950 . S
H1581 C1605 0.950 . S
H1582 C1606 0.950 . S
H1583 C1607 0.951 . S
H1584 C1609 0.951 . S
H1585 C1611 0.950 1_565 S
H1586 C1612 0.950 . S
H1587 C1614 0.950 . S
H1588 C1617 0.950 . S
H1589 C1618 0.950 . S
H1590 C1620 0.950 . S
H1591 C1621 0.950 . S
C1592 H1574 0.951 . S
C1592 C1593 1.366 . S
C1592 C1594 1.388 . S
C1593 C1592 1.366 . S
C1593 C1597 1.385 . S
C1594 H1575 0.951 . S
C1594 C1592 1.388 . S
C1594 C1595 1.366 . S
C1595 C1594 1.366 . S
C1595 C1596 1.414 . S
C1595 C1598 1.499 . S
C1596 H1576 0.950 1_565 S
C1596 C1595 1.414 . S
C1596 C1597 1.374 . S
C1597 H1577 0.950 . S
C1597 C1593 1.385 . S
C1597 C1596 1.374 . S
C1598 C1595 1.499 . S
C1598 C1599 1.373 1_455 S
C1598 C1600 1.389 . S
C1599 H1578 0.950 . S
C1599 C1598 1.373 1_655 S
C1599 C1615 1.377 1_565 S
C1600 C1598 1.389 . S
C1600 C1601 1.524 . S
C1600 C1614 1.377 1_565 S
C1601 C1600 1.524 . S
C1601 C1602 1.397 1_565 S
C1601 C1606 1.363 . S
C1602 H1579 0.950 . S
C1602 C1601 1.397 1_545 S
C1602 C1603 1.334 . S
C1603 H1580 0.950 . S
C1603 C1602 1.334 . S
C1603 C1604 1.287 1_545 S
C1604 C1603 1.287 1_565 S
C1604 C1605 1.524 . S
C1604 H1623 0.913 . S
C1605 H1581 0.950 . S
C1605 C1604 1.524 . S
C1605 C1606 1.415 . S
C1606 H1582 0.950 . S
C1606 C1601 1.363 . S
C1606 C1605 1.415 . S
C1607 H1583 0.951 . S
C1607 C1608 1.366 . S
C1607 C1609 1.388 . S
C1608 C1607 1.366 . S
C1608 C1612 1.385 . S
C1609 H1584 0.951 . S
C1609 C1607 1.388 . S
C1609 C1610 1.366 . S
C1610 C1609 1.366 . S
C1610 C1611 1.414 . S
C1610 C1613 1.499 . S
C1611 H1585 0.950 1_545 S
C1611 C1610 1.414 . S
C1611 C1612 1.374 . S
C1612 H1586 0.950 . S
C1612 C1608 1.385 . S
C1612 C1611 1.374 . S
C1613 C1610 1.499 . S
C1613 C1614 1.373 1_655 S
C1613 C1615 1.389 . S
C1614 H1587 0.950 . S
C1614 C1600 1.377 1_545 S
C1614 C1613 1.373 1_455 S
C1615 C1599 1.377 1_545 S
C1615 C1613 1.389 . S
C1615 C1616 1.524 . S
C1616 C1615 1.524 . S
C1616 C1617 1.397 1_545 S
C1616 C1621 1.363 . S
C1617 H1588 0.950 . S
C1617 C1616 1.397 1_565 S
C1617 C1618 1.334 . S
C1618 H1589 0.950 . S
C1618 C1617 1.334 . S
C1618 C1619 1.287 1_565 S
C1619 C1618 1.287 1_545 S
C1619 C1620 1.524 . S
C1619 H1622 0.999 . S
C1620 H1590 0.950 . S
C1620 C1619 1.524 . S
C1620 C1621 1.415 . S
C1621 H1591 0.950 . S
C1621 C1616 1.363 . S
C1621 C1620 1.415 . S
H1622 C1619 0.999 . S
H1623 C1604 0.913 . S
H1624 C1642 0.951 . S
H1625 C1644 0.951 . S
H1626 C1646 0.950 . S
H1627 C1647 0.950 . S
H1628 C1649 0.950 . S
H1629 C1652 0.950 . S
H1630 C1653 0.950 . S
H1631 C1655 0.950 . S
H1632 C1656 0.950 . S
H1633 C1657 0.951 . S
H1634 C1659 0.951 . S
H1635 C1661 0.950 . S
H1636 C1662 0.950 . S
H1637 C1664 0.950 . S
H1638 C1667 0.950 . S
H1639 C1668 0.950 . S
H1640 C1670 0.950 . S
H1641 C1671 0.950 . S
C1642 H1624 0.951 . S
C1642 C1643 1.366 . S
C1642 C1644 1.388 . S
C1643 C1642 1.366 . S
C1643 C1647 1.385 . S
C1644 H1625 0.951 . S
C1644 C1642 1.388 . S
C1644 C1645 1.366 . S
C1645 C1644 1.366 . S
C1645 C1646 1.414 . S
C1645 C1648 1.499 . S
C1646 H1626 0.950 . S
C1646 C1645 1.414 . S
C1646 C1647 1.374 . S
C1647 H1627 0.950 . S
C1647 C1643 1.385 . S
C1647 C1646 1.374 . S
C1648 C1645 1.499 . S
C1648 C1649 1.373 . S
C1648 C1650 1.343 1_554 S
C1649 H1628 0.950 . S
C1649 C1648 1.373 . S
C1649 C1665 1.421 . S
C1650 C1648 1.343 1_556 S
C1650 C1651 1.531 . S
C1650 C1664 1.421 . S
C1651 C1650 1.531 . S
C1651 C1652 1.397 1_556 S
C1651 C1656 1.363 . S
C1652 H1629 0.950 . S
C1652 C1651 1.397 1_554 S
C1652 C1653 1.334 . S
C1653 H1630 0.950 . S
C1653 C1652 1.334 . S
C1653 C1654 1.287 1_554 S
C1654 C1653 1.287 1_556 S
C1654 C1655 1.524 . S
C1654 H1673 0.913 . S
C1655 H1631 0.950 . S
C1655 C1654 1.524 . S
C1655 C1656 1.415 . S
C1656 H1632 0.950 . S
C1656 C1651 1.363 . S
C1656 C1655 1.415 . S
C1657 H1633 0.951 . S
C1657 C1658 1.366 . S
C1657 C1659 1.388 . S
C1658 C1657 1.366 . S
C1658 C1662 1.385 . S
C1659 H1634 0.951 . S
C1659 C1657 1.388 . S
C1659 C1660 1.366 . S
C1660 C1659 1.366 . S
C1660 C1661 1.414 . S
C1660 C1663 1.499 . S
C1661 H1635 0.950 . S
C1661 C1660 1.414 . S
C1661 C1662 1.374 . S
C1662 H1636 0.950 . S
C1662 C1658 1.385 . S
C1662 C1661 1.374 . S
C1663 C1660 1.499 . S
C1663 C1664 1.373 . S
C1663 C1665 1.343 1_556 S
C1664 H1637 0.950 . S
C1664 C1650 1.421 . S
C1664 C1663 1.373 . S
C1665 C1649 1.421 . S
C1665 C1663 1.343 1_554 S
C1665 C1666 1.531 . S
C1666 C1665 1.531 . S
C1666 C1667 1.397 1_554 S
C1666 C1671 1.363 . S
C1667 H1638 0.950 . S
C1667 C1666 1.397 1_556 S
C1667 C1668 1.334 . S
C1668 H1639 0.950 . S
C1668 C1667 1.334 . S
C1668 C1669 1.287 1_556 S
C1669 C1668 1.287 1_554 S
C1669 C1670 1.524 . S
C1669 H1672 0.999 . S
C1670 H1640 0.950 . S
C1670 C1669 1.524 . S
C1670 C1671 1.415 . S
C1671 H1641 0.950 . S
C1671 C1666 1.363 . S
C1671 C1670 1.415 . S
H1672 C1669 0.999 . S
H1673 C1654 0.913 . S
H1674 C1692 0.951 . S
H1675 C1694 0.951 . S
H1676 C1696 0.950 . S
H1677 C1697 0.950 . S
H1678 C1699 0.950 . S
H1679 C1702 0.950 . S
H1680 C1703 0.950 . S
H1681 C1705 0.950 . S
H1682 C1706 0.950 . S
H1683 C1707 0.951 . S
H1684 C1709 0.951 . S
H1685 C1711 0.950 . S
H1686 C1712 0.950 . S
H1687 C1714 0.950 . S
H1688 C1717 0.950 . S
H1689 C1718 0.950 . S
H1690 C1720 0.950 . S
H1691 C1721 0.950 . S
C1692 H1674 0.951 . S
C1692 C1693 1.366 . S
C1692 C1694 1.388 . S
C1693 C1692 1.366 . S
C1693 C1697 1.385 . S
C1694 H1675 0.951 . S
C1694 C1692 1.388 . S
C1694 C1695 1.366 . S
C1695 C1694 1.366 . S
C1695 C1696 1.414 . S
C1695 C1698 1.499 . S
C1696 H1676 0.950 . S
C1696 C1695 1.414 . S
C1696 C1697 1.374 . S
C1697 H1677 0.950 . S
C1697 C1693 1.385 . S
C1697 C1696 1.374 . S
C1698 C1695 1.499 . S
C1698 C1699 1.373 1_655 S
C1698 C1700 1.389 . S
C1699 H1678 0.950 . S
C1699 C1698 1.373 1_455 S
C1699 C1715 1.377 1_554 S
C1700 C1698 1.389 . S
C1700 C1701 1.524 . S
C1700 C1714 1.377 1_554 S
C1701 C1700 1.524 . S
C1701 C1702 1.397 . S
C1701 C1706 1.363 . S
C1702 H1679 0.950 . S
C1702 C1701 1.397 . S
C1702 C1703 1.334 . S
C1703 H1680 0.950 . S
C1703 C1702 1.334 . S
C1703 C1704 1.287 . S
C1704 C1703 1.287 . S
C1704 C1705 1.524 . S
C1704 H1723 0.913 . S
C1705 H1681 0.950 . S
C1705 C1704 1.524 . S
C1705 C1706 1.415 . S
C1706 H1682 0.950 . S
C1706 C1701 1.363 . S
C1706 C1705 1.415 . S
C1707 H1683 0.951 . S
C1707 C1708 1.366 . S
C1707 C1709 1.388 . S
C1708 C1707 1.366 . S
C1708 C1712 1.385 . S
C1709 H1684 0.951 . S
C1709 C1707 1.388 . S
C1709 C1710 1.366 . S
C1710 C1709 1.366 . S
C1710 C1711 1.414 . S
C1710 C1713 1.499 . S
C1711 H1685 0.950 . S
C1711 C1710 1.414 . S
C1711 C1712 1.374 . S
C1712 H1686 0.950 . S
C1712 C1708 1.385 . S
C1712 C1711 1.374 . S
C1713 C1710 1.499 . S
C1713 C1714 1.373 1_455 S
C1713 C1715 1.389 . S
C1714 H1687 0.950 . S
C1714 C1700 1.377 1_556 S
C1714 C1713 1.373 1_655 S
C1715 C1699 1.377 1_556 S
C1715 C1713 1.389 . S
C1715 C1716 1.524 . S
C1716 C1715 1.524 . S
C1716 C1717 1.397 . S
C1716 C1721 1.363 . S
C1717 H1688 0.950 . S
C1717 C1716 1.397 . S
C1717 C1718 1.334 . S
C1718 H1689 0.950 . S
C1718 C1717 1.334 . S
C1718 C1719 1.287 . S
C1719 C1718 1.287 . S
C1719 C1720 1.524 . S
C1719 H1722 0.999 . S
C1720 H1690 0.950 . S
C1720 C1719 1.524 . S
C1720 C1721 1.415 . S
C1721 H1691 0.950 . S
C1721 C1716 1.363 . S
C1721 C1720 1.415 . S
H1722 C1719 0.999 . S
H1723 C1704 0.913 . S
H1724 C1742 0.951 . S
H1725 C1744 0.951 . S
H1726 C1746 0.950 1_455 S
H1727 C1747 0.950 . S
H1728 C1749 0.950 . S
H1729 C1752 0.950 . S
H1730 C1753 0.950 . S
H1731 C1755 0.950 . S
H1732 C1756 0.950 . S
H1733 C1757 0.951 . S
H1734 C1759 0.951 . S
H1735 C1761 0.950 1_655 S
H1736 C1762 0.950 . S
H1737 C1764 0.950 . S
H1738 C1767 0.950 . S
H1739 C1768 0.950 . S
H1740 C1770 0.950 . S
H1741 C1771 0.950 . S
C1742 H1724 0.951 . S
C1742 C1743 1.366 . S
C1742 C1744 1.388 . S
C1743 C1742 1.366 . S
C1743 C1747 1.385 . S
C1744 H1725 0.951 . S
C1744 C1742 1.388 . S
C1744 C1745 1.366 . S
C1745 C1744 1.366 . S
C1745 C1746 1.414 . S
C1745 C1748 1.499 . S
C1746 H1726 0.950 1_655 S
C1746 C1745 1.414 . S
C1746 C1747 1.374 . S
C1747 H1727 0.950 . S
C1747 C1743 1.385 . S
C1747 C1746 1.374 . S
C1748 C1745 1.499 . S
C1748 C1749 1.373 . S
C1748 C1750 1.389 . S
C1749 H1728 0.950 . S
C1749 C1748 1.373 . S
C1749 C1765 1.377 1_655 S
C1750 C1748 1.389 . S
C1750 C1751 1.524 . S
C1750 C1764 1.377 1_655 S
C1751 C1750 1.524 . S
C1751 C1752 1.397 1_655 S
C1751 C1756 1.363 . S
C1752 H1729 0.950 . S
C1752 C1751 1.397 1_455 S
C1752 C1753 1.334 . S
C1753 H1730 0.950 . S
C1753 C1752 1.334 . S
C1753 C1754 1.287 . S
C1754 C1753 1.287 . S
C1754 C1755 1.524 1_455 S
C1754 H1773 0.913 . S
C1755 H1731 0.950 . S
C1755 C1754 1.524 1_655 S
C1755 C1756 1.415 . S
C1756 H1732 0.950 . S
C1756 C1751 1.363 . S
C1756 C1755 1.415 . S
C1757 H1733 0.951 . S
C1757 C1758 1.366 . S
C1757 C1759 1.388 . S
C1758 C1757 1.366 . S
C1758 C1762 1.385 . S
C1759 H1734 0.951 . S
C1759 C1757 1.388 . S
C1759 C1760 1.366 . S
C1760 C1759 1.366 . S
C1760 C1761 1.414 . S
C1760 C1763 1.499 . S
C1761 H1735 0.950 1_455 S
C1761 C1760 1.414 . S
C1761 C1762 1.374 . S
C1762 H1736 0.950 . S
C1762 C1758 1.385 . S
C1762 C1761 1.374 . S
C1763 C1760 1.499 . S
C1763 C1764 1.373 . S
C1763 C1765 1.389 . S
C1764 H1737 0.950 . S
C1764 C1750 1.377 1_455 S
C1764 C1763 1.373 . S
C1765 C1749 1.377 1_455 S
C1765 C1763 1.389 . S
C1765 C1766 1.524 . S
C1766 C1765 1.524 . S
C1766 C1767 1.397 1_455 S
C1766 C1771 1.363 . S
C1767 H1738 0.950 . S
C1767 C1766 1.397 1_655 S
C1767 C1768 1.334 . S
C1768 H1739 0.950 . S
C1768 C1767 1.334 . S
C1768 C1769 1.287 . S
C1769 C1768 1.287 . S
C1769 C1770 1.524 1_655 S
C1769 H1772 0.999 . S
C1770 H1740 0.950 . S
C1770 C1769 1.524 1_455 S
C1770 C1771 1.415 . S
C1771 H1741 0.950 . S
C1771 C1766 1.363 . S
C1771 C1770 1.415 . S
H1772 C1769 0.999 . S
H1773 C1754 0.913 . S
H1774 C1792 0.951 . S
H1775 C1794 0.951 . S
H1776 C1796 0.950 . S
H1777 C1797 0.950 . S
H1778 C1799 0.950 . S
H1779 C1802 0.950 . S
H1780 C1803 0.950 . S
H1781 C1805 0.950 . S
H1782 C1806 0.950 . S
H1783 C1807 0.951 . S
H1784 C1809 0.951 . S
H1785 C1811 0.950 . S
H1786 C1812 0.950 . S
H1787 C1814 0.950 . S
H1788 C1817 0.950 . S
H1789 C1818 0.950 . S
H1790 C1820 0.950 . S
H1791 C1821 0.950 . S
C1792 H1774 0.951 . S
C1792 C1793 1.366 . S
C1792 C1794 1.388 . S
C1793 C1792 1.366 . S
C1793 C1797 1.385 . S
C1794 H1775 0.951 . S
C1794 C1792 1.388 . S
C1794 C1795 1.366 . S
C1795 C1794 1.366 . S
C1795 C1796 1.414 . S
C1795 C1798 1.499 . S
C1796 H1776 0.950 . S
C1796 C1795 1.414 . S
C1796 C1797 1.374 . S
C1797 H1777 0.950 . S
C1797 C1793 1.385 . S
C1797 C1796 1.374 . S
C1798 C1795 1.499 . S
C1798 C1799 1.373 . S
C1798 C1800 1.389 . S
C1799 H1778 0.950 . S
C1799 C1798 1.373 . S
C1799 C1815 1.377 . S
C1800 C1798 1.389 . S
C1800 C1801 1.524 . S
C1800 C1814 1.377 . S
C1801 C1800 1.524 . S
C1801 C1802 1.397 . S
C1801 C1806 1.363 . S
C1802 H1779 0.950 . S
C1802 C1801 1.397 . S
C1802 C1803 1.334 . S
C1803 H1780 0.950 . S
C1803 C1802 1.334 . S
C1803 C1804 1.287 . S
C1804 C1803 1.287 . S
C1804 C1805 1.524 . S
C1804 H1823 0.913 . S
C1805 H1781 0.950 . S
C1805 C1804 1.524 . S
C1805 C1806 1.415 . S
C1806 H1782 0.950 . S
C1806 C1801 1.363 . S
C1806 C1805 1.415 . S
C1807 H1783 0.951 . S
C1807 C1808 1.366 . S
C1807 C1809 1.388 . S
C1808 C1807 1.366 . S
C1808 C1812 1.385 . S
C1809 H1784 0.951 . S
C1809 C1807 1.388 . S
C1809 C1810 1.366 . S
C1810 C1809 1.366 . S
C1810 C1811 1.414 . S
C1810 C1813 1.499 . S
C1811 H1785 0.950 . S
C1811 C1810 1.414 . S
C1811 C1812 1.374 . S
C1812 H1786 0.950 . S
C1812 C1808 1.385 . S
C1812 C1811 1.374 . S
C1813 C1810 1.499 . S
C1813 C1814 1.373 . S
C1813 C1815 1.389 . S
C1814 H1787 0.950 . S
C1814 C1800 1.377 . S
C1814 C1813 1.373 . S
C1815 C1799 1.377 . S
C1815 C1813 1.389 . S
C1815 C1816 1.524 . S
C1816 C1815 1.524 . S
C1816 C1817 1.397 . S
C1816 C1821 1.363 . S
C1817 H1788 0.950 . S
C1817 C1816 1.397 . S
C1817 C1818 1.334 . S
C1818 H1789 0.950 . S
C1818 C1817 1.334 . S
C1818 C1819 1.287 . S
C1819 C1818 1.287 . S
C1819 C1820 1.524 . S
C1819 H1822 0.999 . S
C1820 H1790 0.950 . S
C1820 C1819 1.524 . S
C1820 C1821 1.415 . S
C1821 H1791 0.950 . S
C1821 C1816 1.363 . S
C1821 C1820 1.415 . S
H1822 C1819 0.999 . S
H1823 C1804 0.913 . S
C243 C21 1.523 . S
C258 C7 1.523 . S
C293 C35 1.523 . S
C308 C49 1.523 . S
C343 C62 1.523 . S
C358 C76 1.522 . S
C393 C104 1.523 . S
C408 C90 1.523 . S
C443 C133 1.523 . S
C458 C119 1.523 . S
C493 C161 1.523 . S
C508 C147 1.523 . S
C543 C188 1.523 . S
C558 C174 1.523 . S
C593 C216 1.523 . S
C608 C202 1.523 . S
C643 C48 1.525 . S
C658 C6 1.525 . S
C693 C20 1.525 . S
C708 C34 1.525 . S
C743 C105 1.525 . S
C758 C63 1.525 . S
C793 C91 1.525 . S
C808 C77 1.525 . S
C843 C118 1.525 . S
C858 C160 1.525 . S
C893 C146 1.525 . S
C908 C132 1.525 . S
C943 C217 1.525 . S
C958 C175 1.525 . S
C993 C189 1.525 . S
C1008 C203 1.525 . S
C1043 C8 1.434 . S
C1058 C134 1.434 . S
C1093 C22 1.434 . S
C1108 C120 1.434 . S
C1143 C162 1.434 . S
C1158 C36 1.434 . S
C1193 C148 1.434 . S
C1208 C50 1.434 . S
C1243 C191 1.434 . S
C1258 C65 1.435 . S
C1293 C177 1.434 . S
C1308 C79 1.434 . S
C1343 C93 1.435 . S
C1358 C219 1.434 . S
C1393 C107 1.434 . S
C1408 C205 1.434 . S
C1443 C64 1.571 . S
C1458 C9 1.571 . S
C1493 C78 1.571 . S
C1508 C23 1.571 . S
C1543 C92 1.570 . S
C1558 C37 1.570 . S
C1593 C106 1.571 . S
C1608 C51 1.571 . S
C1643 C121 1.571 . S
C1658 C176 1.571 . S
C1693 C135 1.571 . S
C1708 C190 1.571 . S
C1743 C204 1.570 . S
C1758 C149 1.570 . S
C1793 C218 1.571 . S
C1808 C163 1.571 . S
