# Generated by pormake.
# Topology vbf, (5)-cn, num edge types: 1
# Building blocks:
#     Node 0, Type 0, BuildingBlock: XOMCOT_clean_sbu_1, # of connection points: 5
#     Node 1, Type 0, BuildingBlock: XOMCOT_clean_sbu_1, # of connection points: 5
#     Node 2, Type 0, BuildingBlock: XOMCOT_clean_sbu_1, # of connection points: 5
#     Node 3, Type 0, BuildingBlock: XOMCOT_clean_sbu_1, # of connection points: 5
#     Node 4, Type 0, BuildingBlock: XOMCOT_clean_sbu_1, # of connection points: 5
#     Node 5, Type 0, BuildingBlock: XOMCOT_clean_sbu_1, # of connection points: 5
#     Node 6, Type 0, BuildingBlock: XOMCOT_clean_sbu_1, # of connection points: 5
#     Node 7, Type 0, BuildingBlock: XOMCOT_clean_sbu_1, # of connection points: 5
#     Node 8, Type 0, BuildingBlock: XOMCOT_clean_sbu_1, # of connection points: 5
#     Node 9, Type 0, BuildingBlock: XOMCOT_clean_sbu_1, # of connection points: 5
#     Node 10, Type 0, BuildingBlock: XOMCOT_clean_sbu_1, # of connection points: 5
#     Node 11, Type 0, BuildingBlock: XOMCOT_clean_sbu_1, # of connection points: 5
#     Node 12, Type 0, BuildingBlock: XOMCOT_clean_sbu_1, # of connection points: 5
#     Node 13, Type 0, BuildingBlock: XOMCOT_clean_sbu_1, # of connection points: 5
#     Node 14, Type 0, BuildingBlock: XOMCOT_clean_sbu_1, # of connection points: 5
#     Node 15, Type 0, BuildingBlock: XOMCOT_clean_sbu_1, # of connection points: 5
#     Edge 16, Type (0, 0), BuildingBlock: ZUJKAS_clean_linker_0, # of connection points: 2
#     Edge 17, Type (0, 0), BuildingBlock: ZUJKAS_clean_linker_0, # of connection points: 2
#     Edge 18, Type (0, 0), BuildingBlock: ZUJKAS_clean_linker_0, # of connection points: 2
#     Edge 19, Type (0, 0), BuildingBlock: ZUJKAS_clean_linker_0, # of connection points: 2
#     Edge 20, Type (0, 0), BuildingBlock: ZUJKAS_clean_linker_0, # of connection points: 2
#     Edge 21, Type (0, 0), BuildingBlock: ZUJKAS_clean_linker_0, # of connection points: 2
#     Edge 22, Type (0, 0), BuildingBlock: ZUJKAS_clean_linker_0, # of connection points: 2
#     Edge 23, Type (0, 0), BuildingBlock: ZUJKAS_clean_linker_0, # of connection points: 2
#     Edge 24, Type (0, 0), BuildingBlock: ZUJKAS_clean_linker_0, # of connection points: 2
#     Edge 25, Type (0, 0), BuildingBlock: ZUJKAS_clean_linker_0, # of connection points: 2
#     Edge 26, Type (0, 0), BuildingBlock: ZUJKAS_clean_linker_0, # of connection points: 2
#     Edge 27, Type (0, 0), BuildingBlock: ZUJKAS_clean_linker_0, # of connection points: 2
#     Edge 28, Type (0, 0), BuildingBlock: ZUJKAS_clean_linker_0, # of connection points: 2
#     Edge 29, Type (0, 0), BuildingBlock: ZUJKAS_clean_linker_0, # of connection points: 2
#     Edge 30, Type (0, 0), BuildingBlock: ZUJKAS_clean_linker_0, # of connection points: 2
#     Edge 31, Type (0, 0), BuildingBlock: ZUJKAS_clean_linker_0, # of connection points: 2
#     Edge 32, Type (0, 0), BuildingBlock: ZUJKAS_clean_linker_0, # of connection points: 2
#     Edge 33, Type (0, 0), BuildingBlock: ZUJKAS_clean_linker_0, # of connection points: 2
#     Edge 34, Type (0, 0), BuildingBlock: ZUJKAS_clean_linker_0, # of connection points: 2
#     Edge 35, Type (0, 0), BuildingBlock: ZUJKAS_clean_linker_0, # of connection points: 2
#     Edge 36, Type (0, 0), BuildingBlock: ZUJKAS_clean_linker_0, # of connection points: 2
#     Edge 37, Type (0, 0), BuildingBlock: ZUJKAS_clean_linker_0, # of connection points: 2
#     Edge 38, Type (0, 0), BuildingBlock: ZUJKAS_clean_linker_0, # of connection points: 2
#     Edge 39, Type (0, 0), BuildingBlock: ZUJKAS_clean_linker_0, # of connection points: 2
#     Edge 40, Type (0, 0), BuildingBlock: ZUJKAS_clean_linker_0, # of connection points: 2
#     Edge 41, Type (0, 0), BuildingBlock: ZUJKAS_clean_linker_0, # of connection points: 2
#     Edge 42, Type (0, 0), BuildingBlock: ZUJKAS_clean_linker_0, # of connection points: 2
#     Edge 43, Type (0, 0), BuildingBlock: ZUJKAS_clean_linker_0, # of connection points: 2
#     Edge 44, Type (0, 0), BuildingBlock: ZUJKAS_clean_linker_0, # of connection points: 2
#     Edge 45, Type (0, 0), BuildingBlock: ZUJKAS_clean_linker_0, # of connection points: 2
#     Edge 46, Type (0, 0), BuildingBlock: ZUJKAS_clean_linker_0, # of connection points: 2
#     Edge 47, Type (0, 0), BuildingBlock: ZUJKAS_clean_linker_0, # of connection points: 2
#     Edge 48, Type (0, 0), BuildingBlock: ZUJKAS_clean_linker_0, # of connection points: 2
#     Edge 49, Type (0, 0), BuildingBlock: ZUJKAS_clean_linker_0, # of connection points: 2
#     Edge 50, Type (0, 0), BuildingBlock: ZUJKAS_clean_linker_0, # of connection points: 2
#     Edge 51, Type (0, 0), BuildingBlock: ZUJKAS_clean_linker_0, # of connection points: 2
#     Edge 52, Type (0, 0), BuildingBlock: ZUJKAS_clean_linker_0, # of connection points: 2
#     Edge 53, Type (0, 0), BuildingBlock: ZUJKAS_clean_linker_0, # of connection points: 2
#     Edge 54, Type (0, 0), BuildingBlock: ZUJKAS_clean_linker_0, # of connection points: 2
#     Edge 55, Type (0, 0), BuildingBlock: ZUJKAS_clean_linker_0, # of connection points: 2
# Relax obj value: 0.078
# Max RMSD: 0.168
# Mean RMSD: 0.162
data_MOF--net-vbf--node1-XOMCOT_clean_sbu_1--edge1-ZUJKAS_clean_linker_0
_symmetry_space_group_name_H-M    P1
_symmetry_Int_Tables_number       1
_symmetry_cell_setting            triclinic
loop_
_symmetry_equiv_pos_as_xyz
'x, y, z'
_cell_length_a     52.83444
_cell_length_b     94.065766
_cell_length_c     35.107253
_cell_angle_alpha  90.010601
_cell_angle_beta   90.00523
_cell_angle_gamma 79.873368
loop_
_atom_site_label
_atom_site_type_symbol
_atom_site_fract_x
_atom_site_fract_y
_atom_site_fract_z
_atom_type_partial_charge
C0 C 0.08184 0.34325 0.95513 0.0
C1 C 0.09794 0.35151 0.9392 0.0
N2 N 0.12238 0.34517 0.94621 0.0
N3 N 0.09582 0.33168 0.97237 0.0
C4 C 0.12063 0.33314 0.96663 0.0
H5 H 0.0611 0.34547 0.95368 0.0
Co6 Co 0.07949 0.31778 0.99506 0.0
C7 C 0.12039 0.29425 0.02563 0.0
O8 O 0.10392 0.28532 0.02594 0.0
N9 N 0.06128 0.30415 0.01772 0.0
C10 C 0.03732 0.28711 0.02589 0.0
C11 C 0.04886 0.29466 0.99969 0.0
C12 C 0.0564 0.30223 0.0552 0.0
N13 N 0.04205 0.29185 0.06083 0.0
O14 O 0.07424 0.32947 0.04054 0.0
H15 H 0.0479 0.29312 0.96936 0.0
H16 H 0.06357 0.30815 0.07804 0.0
O17 O 0.11313 0.30729 0.01417 0.0
C18 C 0.05197 0.33733 0.03854 0.0
O19 O 0.03741 0.33558 0.00914 0.0
N20 N 0.08232 0.30756 0.94866 0.0
C21 C 0.07461 0.2933 0.88101 0.0
C22 C 0.09648 0.28865 0.90349 0.0
C23 C 0.10025 0.29609 0.93702 0.0
C24 C 0.062 0.3128 0.92572 0.0
C25 C 0.05771 0.30583 0.89191 0.0
H26 H 0.11727 0.29235 0.95346 0.0
H27 H 0.04806 0.32197 0.93504 0.0
H28 H 0.13702 0.32542 0.97624 0.0
H29 H 0.09206 0.3615 0.92372 0.0
H30 H 0.02581 0.27895 0.01958 0.0
H31 H 0.11039 0.27924 0.89545 0.0
H32 H 0.04055 0.30981 0.87554 0.0
C33 C 0.94122 0.68105 0.94948 0.0
C34 C 0.92825 0.6716 0.93119 0.0
N35 N 0.90444 0.67293 0.94623 0.0
N36 N 0.92585 0.68835 0.97616 0.0
C37 C 0.90358 0.68314 0.97367 0.0
H38 H 0.96062 0.68261 0.94349 0.0
Co39 Co 0.9352 0.70282 0.00688 0.0
C40 C 0.88757 0.71431 0.04817 0.0
O41 O 0.90041 0.71297 0.08041 0.0
N42 N 0.94465 0.71753 0.03735 0.0
C43 C 0.94521 0.73932 0.0614 0.0
C44 C 0.93452 0.73169 0.03434 0.0
C45 C 0.96167 0.71685 0.06645 0.0
N46 N 0.96222 0.73 0.08186 0.0
O47 O 0.93812 0.68994 0.05014 0.0
H48 H 0.91992 0.73622 0.01405 0.0
H49 H 0.973 0.70689 0.07673 0.0
O50 O 0.89914 0.71034 0.01704 0.0
C51 C 0.9598 0.6815 0.04754 0.0
O52 O 0.97491 0.68333 0.01889 0.0
N53 N 0.93515 0.71454 0.96384 0.0
C54 C 0.94327 0.73014 0.89877 0.0
C55 C 0.91818 0.72955 0.91118 0.0
C56 C 0.91448 0.72148 0.94371 0.0
C57 C 0.95954 0.71507 0.95223 0.0
C58 C 0.96405 0.72278 0.91982 0.0
H59 H 0.89514 0.72076 0.95244 0.0
H60 H 0.97563 0.70936 0.96832 0.0
H61 H 0.88689 0.68697 0.99107 0.0
H62 H 0.93594 0.66426 0.90863 0.0
H63 H 0.94078 0.75089 0.06546 0.0
H64 H 0.90166 0.735 0.89544 0.0
H65 H 0.98369 0.72305 0.91146 0.0
C66 C 0.17237 0.53051 0.26309 0.0
C67 C 0.1526 0.5228 0.2627 0.0
N68 N 0.13013 0.53216 0.26313 0.0
N69 N 0.16264 0.54474 0.26377 0.0
C70 C 0.13679 0.54544 0.26402 0.0
H71 H 0.19266 0.52603 0.2625 0.0
Co72 Co 0.18355 0.55894 0.26276 0.0
C73 C 0.15066 0.58305 0.22062 0.0
O74 O 0.16959 0.58378 0.19701 0.0
N75 N 0.20574 0.5733 0.2622 0.0
C76 C 0.23435 0.58676 0.24336 0.0
C77 C 0.21798 0.57785 0.23179 0.0
C78 C 0.21532 0.57989 0.29215 0.0
N79 N 0.23294 0.58797 0.28143 0.0
O80 O 0.17604 0.5628 0.31547 0.0
H81 H 0.21606 0.57462 0.20257 0.0
H82 H 0.21042 0.57838 0.32151 0.0
O83 O 0.15367 0.57359 0.2472 0.0
C84 C 0.19221 0.55332 0.33282 0.0
O85 O 0.20934 0.54463 0.31271 0.0
N86 N 0.19316 0.55313 0.21309 0.0
C87 C 0.21395 0.53853 0.14801 0.0
C88 C 0.18789 0.54509 0.14908 0.0
C89 C 0.17771 0.55227 0.18227 0.0
C90 C 0.21811 0.54625 0.21286 0.0
C91 C 0.22901 0.53921 0.18052 0.0
H92 H 0.15738 0.55659 0.18372 0.0
H93 H 0.22958 0.5461 0.23842 0.0
H94 H 0.12312 0.55546 0.26402 0.0
H95 H 0.1547 0.51114 0.26241 0.0
H96 H 0.24673 0.59177 0.22505 0.0
H97 H 0.17546 0.54447 0.12484 0.0
H98 H 0.24889 0.53382 0.18153 0.0
C99 C 0.84135 0.48842 0.26417 0.0
C100 C 0.86064 0.49646 0.26658 0.0
N101 N 0.88346 0.4874 0.2661 0.0
N102 N 0.85176 0.47432 0.26209 0.0
C103 C 0.8775 0.474 0.26334 0.0
H104 H 0.82093 0.4926 0.26363 0.0
Co105 Co 0.83191 0.45975 0.25843 0.0
C106 C 0.86617 0.43604 0.2181 0.0
O107 O 0.84752 0.43534 0.19394 0.0
N108 N 0.81076 0.44481 0.25535 0.0
C109 C 0.78389 0.43058 0.23475 0.0
C110 C 0.79839 0.44068 0.22456 0.0
C111 C 0.80314 0.43676 0.28405 0.0
N112 N 0.78653 0.42817 0.27241 0.0
O113 O 0.83746 0.456 0.31157 0.0
H114 H 0.79954 0.44464 0.19587 0.0
H115 H 0.80908 0.4374 0.3133 0.0
O116 O 0.86283 0.4455 0.2447 0.0
C117 C 0.81796 0.46387 0.32688 0.0
O118 O 0.80026 0.47111 0.30459 0.0
N119 N 0.82398 0.46559 0.20824 0.0
C120 C 0.80526 0.48032 0.14228 0.0
C121 C 0.83137 0.474 0.14526 0.0
C122 C 0.84048 0.46674 0.17888 0.0
C123 C 0.79897 0.47231 0.20624 0.0
C124 C 0.78909 0.47939 0.17337 0.0
H125 H 0.8608 0.46259 0.18187 0.0
H126 H 0.78658 0.47226 0.23072 0.0
H127 H 0.89156 0.46415 0.26263 0.0
H128 H 0.85798 0.50812 0.26785 0.0
H129 H 0.77226 0.42547 0.21551 0.0
H130 H 0.84461 0.47487 0.12218 0.0
H131 H 0.7691 0.48459 0.17289 0.0
C132 C 0.07561 0.83757 0.44703 0.0
C133 C 0.08857 0.84684 0.4279 0.0
N134 N 0.11206 0.84606 0.44374 0.0
N135 N 0.0907 0.83095 0.47498 0.0
C136 C 0.11274 0.83637 0.47243 0.0
H137 H 0.05643 0.83567 0.4408 0.0
Co138 Co 0.08169 0.81698 0.50776 0.0
C139 C 0.13051 0.80678 0.54781 0.0
O140 O 0.11884 0.80989 0.58059 0.0
N141 N 0.0728 0.80281 0.54044 0.0
C142 C 0.07364 0.78161 0.56875 0.0
C143 C 0.08409 0.78877 0.54039 0.0
C144 C 0.0552 0.80387 0.56882 0.0
N145 N 0.05552 0.7911 0.58674 0.0
O146 O 0.07947 0.83049 0.5496 0.0
H147 H 0.09925 0.78405 0.52116 0.0
H148 H 0.04283 0.81384 0.57681 0.0
O149 O 0.11789 0.80942 0.51686 0.0
C150 C 0.05787 0.839 0.5467 0.0
O151 O 0.04261 0.83695 0.51842 0.0
N152 N 0.08093 0.80462 0.46621 0.0
C153 C 0.07175 0.78903 0.40154 0.0
C154 C 0.09689 0.79073 0.41112 0.0
C155 C 0.10108 0.79873 0.44357 0.0
C156 C 0.05654 0.80288 0.45762 0.0
C157 C 0.05153 0.79508 0.42562 0.0
H158 H 0.12029 0.80052 0.44978 0.0
H159 H 0.04077 0.80785 0.47552 0.0
H160 H 0.12915 0.83305 0.49076 0.0
H161 H 0.08109 0.85366 0.40423 0.0
H162 H 0.07892 0.77025 0.57549 0.0
H163 H 0.11299 0.78638 0.39301 0.0
H164 H 0.03189 0.79392 0.41961 0.0
C165 C 0.93335 0.1773 0.45392 0.0
C166 C 0.91725 0.16899 0.43822 0.0
N167 N 0.89283 0.1751 0.44617 0.0
N168 N 0.91938 0.1887 0.47192 0.0
C169 C 0.89459 0.18706 0.4669 0.0
H170 H 0.95407 0.17523 0.45188 0.0
Co171 Co 0.93567 0.20257 0.49488 0.0
C172 C 0.89472 0.22604 0.52554 0.0
O173 O 0.91113 0.23501 0.5257 0.0
N174 N 0.95383 0.21617 0.51783 0.0
C175 C 0.97758 0.23329 0.52646 0.0
C176 C 0.96622 0.22573 0.50005 0.0
C177 C 0.95855 0.21805 0.55538 0.0
N178 N 0.97276 0.22848 0.56128 0.0
O179 O 0.94092 0.1908 0.54018 0.0
H180 H 0.96723 0.22734 0.46976 0.0
H181 H 0.95133 0.21209 0.57809 0.0
O182 O 0.90202 0.213 0.51407 0.0
C183 C 0.96315 0.18291 0.53794 0.0
O184 O 0.9776 0.18465 0.50843 0.0
N185 N 0.93287 0.21288 0.44863 0.0
C186 C 0.94064 0.22729 0.38128 0.0
C187 C 0.91865 0.23183 0.4036 0.0
C188 C 0.91485 0.2243 0.43698 0.0
C189 C 0.95331 0.20774 0.42581 0.0
C190 C 0.95763 0.21479 0.39216 0.0
H191 H 0.89772 0.22794 0.45329 0.0
H192 H 0.96732 0.19862 0.43514 0.0
H193 H 0.87821 0.19459 0.47734 0.0
H194 H 0.92314 0.15909 0.42234 0.0
H195 H 0.98897 0.24152 0.5204 0.0
H196 H 0.90467 0.2412 0.39556 0.0
H197 H 0.97489 0.21091 0.37592 0.0
C198 C 0.17244 0.03214 0.76542 0.0
C199 C 0.1529 0.02427 0.76718 0.0
N200 N 0.13025 0.03349 0.76685 0.0
N201 N 0.16236 0.04631 0.76386 0.0
C202 C 0.13658 0.04683 0.7648 0.0
H203 H 0.1928 0.02781 0.76496 0.0
Co204 Co 0.18272 0.06066 0.76112 0.0
C205 C 0.14961 0.08455 0.71922 0.0
O206 O 0.16874 0.08535 0.69604 0.0
N207 N 0.20444 0.07527 0.75897 0.0
C208 C 0.2326 0.08887 0.7392 0.0
C209 C 0.21731 0.07924 0.72846 0.0
C210 C 0.21257 0.08294 0.78808 0.0
N211 N 0.22995 0.09111 0.77689 0.0
O212 O 0.17578 0.0648 0.81375 0.0
H213 H 0.21616 0.07537 0.69968 0.0
H214 H 0.20664 0.08223 0.81733 0.0
O215 O 0.15243 0.07502 0.74564 0.0
C216 C 0.19378 0.05644 0.83102 0.0
O217 O 0.21181 0.04846 0.81077 0.0
N218 N 0.19178 0.05456 0.71148 0.0
C219 C 0.21206 0.03996 0.6461 0.0
C220 C 0.18605 0.04663 0.6475 0.0
C221 C 0.17612 0.05379 0.68086 0.0
C222 C 0.21662 0.04751 0.71103 0.0
C223 C 0.22726 0.04045 0.67855 0.0
H224 H 0.15585 0.05823 0.6825 0.0
H225 H 0.22826 0.04733 0.73642 0.0
H226 H 0.12274 0.05677 0.76438 0.0
H227 H 0.15529 0.01261 0.76788 0.0
H228 H 0.24495 0.09372 0.72049 0.0
H229 H 0.17349 0.04616 0.62333 0.0
H230 H 0.24709 0.03497 0.67934 0.0
C231 C 0.84159 0.98964 0.76208 0.0
C232 C 0.86093 0.99767 0.76219 0.0
N233 N 0.88371 0.98859 0.76122 0.0
N234 N 0.85193 0.9755 0.76097 0.0
C235 C 0.87768 0.97516 0.76071 0.0
H236 H 0.82118 0.99383 0.76259 0.0
Co237 Co 0.8319 0.96096 0.75956 0.0
C238 C 0.86552 0.93692 0.71888 0.0
O239 O 0.84641 0.93577 0.69596 0.0
N240 N 0.81049 0.94615 0.7588 0.0
C241 C 0.78176 0.93261 0.74073 0.0
C242 C 0.79759 0.94179 0.72878 0.0
C243 C 0.80207 0.93904 0.78876 0.0
N244 N 0.78433 0.93097 0.77858 0.0
O245 O 0.83888 0.95752 0.81251 0.0
H246 H 0.79881 0.94525 0.69963 0.0
H247 H 0.80779 0.94017 0.81796 0.0
O248 O 0.86244 0.94661 0.74488 0.0
C249 C 0.8203 0.96579 0.82885 0.0
O250 O 0.80208 0.97315 0.80764 0.0
N251 N 0.8227 0.96648 0.70954 0.0
C252 C 0.80227 0.98078 0.64384 0.0
C253 C 0.82838 0.97432 0.64545 0.0
C254 C 0.83837 0.96729 0.67894 0.0
C255 C 0.79771 0.97328 0.70878 0.0
C256 C 0.78699 0.98017 0.67612 0.0
H257 H 0.85871 0.96306 0.68079 0.0
H258 H 0.78602 0.97347 0.73411 0.0
H259 H 0.89171 0.96531 0.75954 0.0
H260 H 0.85833 1.00933 0.76337 0.0
H261 H 0.76889 0.92775 0.7229 0.0
H262 H 0.84097 0.97492 0.62139 0.0
H263 H 0.76705 0.98548 0.67671 0.0
C264 C 0.58303 0.33549 0.44325 0.0
C265 C 0.59622 0.34523 0.4266 0.0
N266 N 0.6189 0.34453 0.44472 0.0
N267 N 0.59723 0.32866 0.47185 0.0
C268 C 0.61904 0.33437 0.47205 0.0
H269 H 0.56423 0.33349 0.43505 0.0
Co270 Co 0.58674 0.31473 0.50324 0.0
C271 C 0.63394 0.30269 0.54469 0.0
O272 O 0.62119 0.30512 0.57685 0.0
N273 N 0.57615 0.30063 0.53446 0.0
C274 C 0.57327 0.27926 0.55929 0.0
C275 C 0.58584 0.28637 0.53327 0.0
C276 C 0.55758 0.30191 0.56146 0.0
N277 N 0.55543 0.28901 0.57705 0.0
O278 O 0.58485 0.32782 0.54597 0.0
H279 H 0.60124 0.28144 0.51469 0.0
H280 H 0.54567 0.31206 0.56922 0.0
O281 O 0.62258 0.30638 0.51322 0.0
C282 C 0.56389 0.33687 0.54288 0.0
O283 O 0.54891 0.33565 0.51361 0.0
N284 N 0.58571 0.30278 0.46095 0.0
C285 C 0.57623 0.28575 0.39931 0.0
C286 C 0.60143 0.28764 0.40791 0.0
C287 C 0.60582 0.29626 0.43909 0.0
C288 C 0.56116 0.30145 0.45216 0.0
C289 C 0.556 0.29292 0.42175 0.0
H290 H 0.62521 0.29771 0.4455 0.0
H291 H 0.54543 0.30704 0.4692 0.0
H292 H 0.63454 0.3313 0.4922 0.0
H293 H 0.58975 0.35213 0.40258 0.0
H294 H 0.57737 0.26779 0.56518 0.0
H295 H 0.61756 0.2824 0.39103 0.0
H296 H 0.53621 0.29212 0.41556 0.0
C297 C 0.43262 0.68655 0.43463 0.0
C298 C 0.42203 0.67554 0.41904 0.0
N299 N 0.40507 0.67172 0.44404 0.0
N300 N 0.42223 0.68991 0.46927 0.0
C301 C 0.40611 0.68035 0.47467 0.0
H302 H 0.44663 0.69193 0.42097 0.0
Co303 Co 0.42915 0.70462 0.50228 0.0
C304 C 0.37102 0.71142 0.49366 0.0
O305 O 0.37142 0.70528 0.46001 0.0
N306 N 0.43618 0.71914 0.53536 0.0
C307 C 0.43295 0.7404 0.56423 0.0
C308 C 0.42294 0.73277 0.53642 0.0
C309 C 0.45433 0.71879 0.56276 0.0
N310 N 0.45267 0.7316 0.58107 0.0
O311 O 0.43154 0.69121 0.54446 0.0
H312 H 0.40692 0.73696 0.5181 0.0
H313 H 0.46825 0.70928 0.56959 0.0
O314 O 0.39211 0.71158 0.51154 0.0
C315 C 0.45462 0.68428 0.54347 0.0
O316 O 0.46946 0.68711 0.51543 0.0
N317 N 0.43062 0.71727 0.46074 0.0
C318 C 0.44418 0.73432 0.40126 0.0
C319 C 0.41827 0.73473 0.41098 0.0
C320 C 0.41185 0.72623 0.44115 0.0
C321 C 0.45582 0.71696 0.4519 0.0
C322 C 0.46302 0.7253 0.42236 0.0
H323 H 0.39195 0.72724 0.44876 0.0
H324 H 0.47054 0.71 0.46789 0.0
H325 H 0.39456 0.68015 0.50006 0.0
H326 H 0.42572 0.67117 0.39066 0.0
H327 H 0.42628 0.75164 0.57112 0.0
H328 H 0.40311 0.74175 0.39587 0.0
H329 H 0.48325 0.72448 0.41574 0.0
C330 C 0.67373 0.53462 0.76428 0.0
C331 C 0.65514 0.52612 0.76659 0.0
N332 N 0.63191 0.53476 0.76766 0.0
N333 N 0.66242 0.54862 0.76375 0.0
C334 C 0.63691 0.54839 0.76596 0.0
H335 H 0.69425 0.53086 0.76261 0.0
Co336 Co 0.68075 0.56386 0.76036 0.0
C337 C 0.64447 0.5858 0.71608 0.0
O338 O 0.66242 0.58638 0.69067 0.0
N339 N 0.70028 0.57944 0.75756 0.0
C340 C 0.7258 0.5944 0.73674 0.0
C341 C 0.71077 0.58458 0.72633 0.0
C342 C 0.7095 0.5866 0.78673 0.0
N343 N 0.72531 0.59559 0.77488 0.0
O344 O 0.67336 0.56801 0.81291 0.0
H345 H 0.70891 0.58101 0.69741 0.0
H346 H 0.70576 0.58487 0.81639 0.0
O347 O 0.64907 0.57714 0.74435 0.0
C348 C 0.69178 0.5599 0.83006 0.0
O349 O 0.71024 0.55235 0.80966 0.0
N350 N 0.69059 0.55772 0.71097 0.0
C351 C 0.71183 0.54069 0.64984 0.0
C352 C 0.68537 0.54643 0.65075 0.0
C353 C 0.67499 0.55479 0.68204 0.0
C354 C 0.71624 0.55225 0.71025 0.0
C355 C 0.72731 0.54406 0.67971 0.0
H356 H 0.65438 0.55808 0.68417 0.0
H357 H 0.72812 0.55382 0.73445 0.0
H358 H 0.62233 0.55802 0.76663 0.0
H359 H 0.65855 0.51443 0.76662 0.0
H360 H 0.73682 0.59993 0.71754 0.0
H361 H 0.67263 0.5438 0.62868 0.0
H362 H 0.7478 0.54 0.68021 0.0
C363 C 0.34802 0.48563 0.77307 0.0
C364 C 0.36698 0.49392 0.77349 0.0
N365 N 0.38985 0.48518 0.7686 0.0
N366 N 0.35873 0.47169 0.76786 0.0
C367 C 0.38431 0.4717 0.76545 0.0
H368 H 0.32761 0.48953 0.77601 0.0
Co369 Co 0.33915 0.45706 0.76395 0.0
C370 C 0.37251 0.4338 0.72068 0.0
O371 O 0.35304 0.43287 0.69823 0.0
N372 N 0.31821 0.44214 0.76062 0.0
C373 C 0.28983 0.42869 0.74086 0.0
C374 C 0.30412 0.43889 0.7306 0.0
C375 C 0.312 0.43342 0.7888 0.0
N376 N 0.29452 0.42533 0.77768 0.0
O377 O 0.34636 0.45249 0.81632 0.0
H378 H 0.30387 0.44359 0.70252 0.0
H379 H 0.31932 0.43332 0.81754 0.0
O380 O 0.36977 0.4432 0.74744 0.0
C381 C 0.32751 0.46002 0.83397 0.0
O382 O 0.30869 0.46749 0.81408 0.0
N383 N 0.32978 0.46367 0.71484 0.0
C384 C 0.30983 0.48074 0.65317 0.0
C385 C 0.33521 0.47307 0.65229 0.0
C386 C 0.3451 0.46479 0.68401 0.0
C387 C 0.30522 0.47111 0.71593 0.0
C388 C 0.29477 0.47948 0.68534 0.0
H389 H 0.36521 0.45995 0.6845 0.0
H390 H 0.29379 0.47078 0.74133 0.0
H391 H 0.39854 0.46211 0.76067 0.0
H392 H 0.36411 0.50551 0.77742 0.0
H393 H 0.27675 0.42421 0.72254 0.0
H394 H 0.34761 0.47406 0.62822 0.0
H395 H 0.27512 0.48518 0.68722 0.0
C396 C 0.58581 0.834 0.9339 0.0
C397 C 0.59675 0.84498 0.91892 0.0
N398 N 0.61273 0.84903 0.94508 0.0
N399 N 0.59504 0.83087 0.96933 0.0
C400 C 0.61076 0.84057 0.97577 0.0
H401 H 0.5723 0.82853 0.91932 0.0
Co402 Co 0.58655 0.81637 1.00197 0.0
C403 C 0.64495 0.80883 0.99609 0.0
O404 O 0.64595 0.81607 0.96434 0.0
N405 N 0.57779 0.80216 0.03433 0.0
C406 C 0.57733 0.78073 0.06059 0.0
C407 C 0.58888 0.7881 0.0339 0.0
C408 C 0.55953 0.80309 0.06174 0.0
N409 N 0.55883 0.79013 0.07814 0.0
O410 O 0.58508 0.82949 0.04457 0.0
H411 H 0.60433 0.78344 0.0151 0.0
H412 H 0.54674 0.81299 0.06915 0.0
O413 O 0.62325 0.80831 0.01183 0.0
C414 C 0.564 0.83848 0.04174 0.0
O415 O 0.54903 0.8373 0.01242 0.0
N416 N 0.5845 0.80407 0.96001 0.0
C417 C 0.57107 0.78879 0.89693 0.0
C418 C 0.59697 0.78811 0.90714 0.0
C419 C 0.60333 0.79585 0.93887 0.0
C420 C 0.55928 0.80439 0.95125 0.0
C421 C 0.55214 0.79689 0.91994 0.0
H422 H 0.62329 0.79514 0.94586 0.0
H423 H 0.54456 0.81083 0.96845 0.0
H424 H 0.62138 0.84099 1.00199 0.0
H425 H 0.59396 0.84918 0.89024 0.0
H426 H 0.58244 0.76932 0.06696 0.0
H427 H 0.61223 0.78196 0.89024 0.0
H428 H 0.5319 0.7975 0.91379 0.0
C429 C 0.4341 0.18572 0.94272 0.0
C430 C 0.4213 0.17617 0.92454 0.0
N431 N 0.39813 0.17672 0.94122 0.0
N432 N 0.41926 0.19231 0.97095 0.0
C433 C 0.39748 0.18659 0.96951 0.0
H434 H 0.45313 0.18773 0.93591 0.0
Co435 Co 0.42908 0.20621 1.00314 0.0
C436 C 0.38142 0.21775 0.04402 0.0
O437 O 0.39397 0.21517 0.0763 0.0
N438 N 0.43907 0.22027 0.03509 0.0
C439 C 0.44142 0.24163 0.06047 0.0
C440 C 0.42901 0.23449 0.0343 0.0
C441 C 0.45769 0.21904 0.06198 0.0
N442 N 0.45953 0.23193 0.07789 0.0
O443 O 0.43079 0.19294 0.04544 0.0
H444 H 0.41354 0.23938 0.01579 0.0
H445 H 0.46992 0.20895 0.06934 0.0
O446 O 0.39304 0.21431 0.0126 0.0
C447 C 0.45177 0.18388 0.04284 0.0
O448 O 0.4672 0.18514 0.01416 0.0
N449 N 0.43023 0.21836 0.96129 0.0
C450 C 0.43972 0.23547 0.8998 0.0
C451 C 0.41458 0.23335 0.90795 0.0
C452 C 0.41019 0.2247 0.93903 0.0
C453 C 0.45474 0.21997 0.95307 0.0
C454 C 0.45989 0.22854 0.92275 0.0
H455 H 0.39086 0.22302 0.94497 0.0
H456 H 0.47043 0.21452 0.9704 0.0
H457 H 0.38139 0.18974 0.98858 0.0
H458 H 0.4288 0.16921 0.90113 0.0
H459 H 0.43709 0.25307 0.06661 0.0
H460 H 0.3985 0.2384 0.8907 0.0
H461 H 0.47965 0.22951 0.91695 0.0
C462 C 0.66795 0.0347 0.26428 0.0
C463 C 0.64917 0.02629 0.26421 0.0
N464 N 0.62606 0.03502 0.262 0.0
N465 N 0.65691 0.04872 0.26205 0.0
C466 C 0.63131 0.0486 0.26093 0.0
H467 H 0.68846 0.03085 0.26562 0.0
Co468 Co 0.67603 0.06364 0.26024 0.0
C469 C 0.64192 0.0871 0.21841 0.0
O470 O 0.66109 0.0883 0.19565 0.0
N471 N 0.69643 0.07888 0.25903 0.0
C472 C 0.72374 0.09322 0.24066 0.0
C473 C 0.70955 0.08314 0.22915 0.0
C474 C 0.70313 0.08689 0.28849 0.0
N475 N 0.71997 0.0955 0.27814 0.0
O476 O 0.66856 0.06735 0.31296 0.0
H477 H 0.70931 0.07919 0.20031 0.0
H478 H 0.69665 0.08612 0.31745 0.0
O479 O 0.64507 0.0775 0.24468 0.0
C480 C 0.68726 0.05941 0.32996 0.0
O481 O 0.70595 0.05213 0.30946 0.0
N482 N 0.68582 0.0579 0.2106 0.0
C483 C 0.70757 0.04357 0.14569 0.0
C484 C 0.68132 0.0498 0.14645 0.0
C485 C 0.67065 0.05682 0.17958 0.0
C486 C 0.71092 0.05129 0.21071 0.0
C487 C 0.72228 0.04437 0.1785 0.0
H488 H 0.65022 0.06089 0.18076 0.0
H489 H 0.72222 0.05132 0.23638 0.0
H490 H 0.61684 0.05825 0.25868 0.0
H491 H 0.65235 0.01463 0.26605 0.0
H492 H 0.73615 0.09834 0.2227 0.0
H493 H 0.66914 0.04906 0.12197 0.0
H494 H 0.74229 0.03924 0.17979 0.0
C495 C 0.34218 0.98551 0.26196 0.0
C496 C 0.36085 0.99397 0.26393 0.0
N497 N 0.38405 0.98528 0.26472 0.0
N498 N 0.35338 0.9715 0.26138 0.0
C499 C 0.37894 0.97167 0.26314 0.0
H500 H 0.32165 0.98931 0.26074 0.0
Co501 Co 0.33469 0.9564 0.25902 0.0
C502 C 0.37006 0.93334 0.21773 0.0
O503 O 0.35142 0.93229 0.19384 0.0
N504 N 0.31476 0.94092 0.25737 0.0
C505 C 0.28908 0.92573 0.23838 0.0
C506 C 0.30283 0.93606 0.22706 0.0
C507 C 0.30757 0.93315 0.28694 0.0
N508 N 0.2919 0.92393 0.27616 0.0
O509 O 0.34141 0.95298 0.31202 0.0
H510 H 0.30344 0.93983 0.1981 0.0
H511 H 0.3134 0.93421 0.31612 0.0
O512 O 0.36622 0.94269 0.24461 0.0
C513 C 0.32233 0.9609 0.32822 0.0
O514 O 0.30375 0.96786 0.30692 0.0
N515 N 0.32568 0.96189 0.20889 0.0
C516 C 0.30591 0.97679 0.14365 0.0
C517 C 0.33226 0.97099 0.1464 0.0
C518 C 0.34188 0.96366 0.17962 0.0
C519 C 0.3003 0.96793 0.20701 0.0
C520 C 0.28992 0.97509 0.17448 0.0
H521 H 0.36237 0.96007 0.18255 0.0
H522 H 0.28807 0.96743 0.2315 0.0
H523 H 0.39348 0.96201 0.26372 0.0
H524 H 0.35752 1.00565 0.26407 0.0
H525 H 0.27701 0.9204 0.22031 0.0
H526 H 0.34535 0.97241 0.12353 0.0
H527 H 0.26971 0.97986 0.17424 0.0
H528 H 0.16853 0.34305 0.98247 0.0
H529 H 0.20448 0.35514 0.96363 0.0
H530 H 0.16282 0.37148 0.8627 0.0
H531 H 0.12742 0.35944 0.88089 0.0
H532 H 0.23357 0.35449 0.8854 0.0
H533 H 0.17743 0.40758 0.92824 0.0
H534 H 0.17103 0.39067 0.94703 0.0
H535 H 0.15987 0.39656 0.90032 0.0
C536 C 0.16734 0.34901 0.95597 0.0
C537 C 0.14496 0.3505 0.93349 0.0
C538 C 0.18779 0.35594 0.94533 0.0
C539 C 0.18606 0.36439 0.91209 0.0
C540 C 0.16436 0.3652 0.88874 0.0
H541 H 0.24656 0.41966 0.76668 0.0
H542 H 0.22403 0.40432 0.80499 0.0
C543 C 0.14409 0.35835 0.89928 0.0
C544 C 0.20596 0.37308 0.90193 0.0
H545 H 0.21259 0.40802 0.8857 0.0
C546 C 0.22938 0.36619 0.88628 0.0
C547 C 0.20038 0.38834 0.90318 0.0
C548 C 0.17591 0.39627 0.92089 0.0
C549 C 0.24657 0.37422 0.86947 0.0
C550 C 0.24016 0.38948 0.8686 0.0
C551 C 0.21745 0.39633 0.88629 0.0
C552 C 0.2549 0.39847 0.84554 0.0
C553 C 0.27067 0.36638 0.85062 0.0
C554 C 0.27982 0.40036 0.85568 0.0
C555 C 0.29294 0.40918 0.83355 0.0
C556 C 0.28137 0.41618 0.80082 0.0
C557 C 0.25635 0.41424 0.79109 0.0
C558 C 0.24331 0.40554 0.81319 0.0
H559 H 0.27167 0.35449 0.85065 0.0
H560 H 0.2717 0.37011 0.82073 0.0
H561 H 0.28775 0.36889 0.8659 0.0
H562 H 0.289 0.39513 0.88083 0.0
H563 H 0.31216 0.41041 0.84182 0.0
H564 H 0.86254 0.66848 0.98713 0.0
H565 H 0.82913 0.65499 0.96673 0.0
H566 H 0.86693 0.64656 0.85826 0.0
H567 H 0.89988 0.66013 0.8778 0.0
H568 H 0.79557 0.65937 0.90001 0.0
H569 H 0.85975 0.60603 0.89896 0.0
H570 H 0.86764 0.62144 0.92406 0.0
H571 H 0.87255 0.61972 0.87346 0.0
C572 C 0.86368 0.66385 0.95884 0.0
C573 C 0.88424 0.66529 0.93437 0.0
C574 C 0.84459 0.65609 0.9473 0.0
C575 C 0.84582 0.64954 0.91124 0.0
C576 C 0.86592 0.65124 0.88654 0.0
H577 H 0.77087 0.60304 0.75515 0.0
H578 H 0.79756 0.61613 0.79323 0.0
C579 C 0.88486 0.659 0.8979 0.0
C580 C 0.8262 0.64098 0.89876 0.0
H581 H 0.82026 0.60774 0.86448 0.0
C582 C 0.80078 0.64802 0.89286 0.0
C583 C 0.83302 0.62615 0.88966 0.0
C584 C 0.85966 0.61783 0.89718 0.0
C585 C 0.78242 0.64082 0.87586 0.0
C586 C 0.78966 0.62617 0.86498 0.0
C587 C 0.81475 0.61898 0.87264 0.0
C588 C 0.77247 0.61848 0.84232 0.0
C589 C 0.75586 0.64912 0.86776 0.0
C590 C 0.74939 0.61535 0.85726 0.0
C591 C 0.73379 0.60787 0.83525 0.0
C592 C 0.74101 0.60342 0.79788 0.0
C593 C 0.76427 0.60654 0.78335 0.0
C594 C 0.77976 0.61393 0.80528 0.0
H595 H 0.75455 0.6609 0.87255 0.0
H596 H 0.75023 0.64734 0.8379 0.0
H597 H 0.74181 0.64519 0.8868 0.0
H598 H 0.74355 0.61856 0.88601 0.0
H599 H 0.71605 0.60568 0.84737 0.0
H600 H 0.95111 0.68118 0.12525 0.0
H601 H 0.97423 0.66374 0.17135 0.0
H602 H 0.01355 0.63907 0.0786 0.0
H603 H 0.99067 0.65617 0.03313 0.0
H604 H 0.99928 0.62165 0.13703 0.0
H605 H 0.05105 0.66421 0.1921 0.0
H606 H 0.01651 0.6675 0.19464 0.0
H607 H 0.0321 0.66675 0.14911 0.0
C608 C 0.96421 0.67182 0.11488 0.0
C609 C 0.96926 0.67007 0.07567 0.0
C610 C 0.97757 0.66194 0.14117 0.0
C611 C 0.99593 0.65019 0.12845 0.0
C612 C 0.99956 0.64802 0.08919 0.0
H613 H 0.14107 0.60564 0.17139 0.0
H614 H 0.10055 0.62153 0.15845 0.0
C615 C 0.9865 0.65786 0.06319 0.0
C616 C 0.01335 0.6407 0.15495 0.0
H617 H 0.0679 0.64027 0.20759 0.0
C618 C 0.0139 0.62572 0.15339 0.0
C619 C 0.03254 0.64603 0.17601 0.0
C620 C 0.03329 0.66198 0.17812 0.0
C621 C 0.03404 0.6159 0.17008 0.0
C622 C 0.05403 0.62122 0.18918 0.0
C623 C 0.05251 0.63622 0.19301 0.0
C624 C 0.07859 0.61162 0.19954 0.0
C625 C 0.03482 0.59992 0.16465 0.0
C626 C 0.07992 0.60076 0.22737 0.0
C627 C 0.10335 0.59151 0.23493 0.0
C628 C 0.12576 0.59299 0.21469 0.0
C629 C 0.12427 0.60407 0.18743 0.0
C630 C 0.10106 0.61326 0.18006 0.0
H631 H 0.01931 0.59761 0.14549 0.0
H632 H 0.05366 0.59479 0.15261 0.0
H633 H 0.03258 0.59482 0.19267 0.0
H634 H 0.06288 0.59939 0.24309 0.0
H635 H 0.10382 0.58313 0.2562 0.0
H636 H 0.06472 0.33861 0.11492 0.0
H637 H 0.0431 0.35599 0.16248 0.0
H638 H 0.9946 0.37798 0.07414 0.0
H639 H 0.01584 0.36097 0.02725 0.0
H640 H 0.01365 0.39685 0.12669 0.0
H641 H 0.96803 0.35471 0.19767 0.0
H642 H 1.00249 0.35174 0.19289 0.0
H643 H 0.98278 0.35172 0.15132 0.0
C644 C 0.04972 0.34731 0.10576 0.0
C645 C 0.04181 0.34835 0.06744 0.0
C646 C 0.0373 0.35717 0.1329 0.0
C647 C 0.01706 0.36822 0.12188 0.0
C648 C 0.01013 0.36957 0.08337 0.0
H649 H 0.87486 0.41222 0.17324 0.0
H650 H 0.91524 0.39625 0.16023 0.0
C651 C 0.02223 0.35976 0.05658 0.0
C652 C 1.00145 0.37798 0.14977 0.0
H653 H 0.95046 0.37886 0.21007 0.0
C654 C 1.00032 0.39295 0.1459 0.0
C655 C 0.98399 0.37284 0.1746 0.0
C656 C 0.98413 0.35689 0.17951 0.0
C657 C 0.98099 0.4029 0.16385 0.0
C658 C 0.96241 0.39773 0.18653 0.0
C659 C 0.96477 0.38279 0.19276 0.0
C660 C 0.93797 0.40724 0.19768 0.0
C661 C 0.97927 0.4188 0.15589 0.0
C662 C 0.93713 0.41873 0.2236 0.0
C663 C 0.91376 0.42803 0.23123 0.0
C664 C 0.89098 0.42599 0.21285 0.0
C665 C 0.89198 0.41425 0.18771 0.0
C666 C 0.91511 0.40501 0.18034 0.0
H667 H 0.99393 0.42094 0.13499 0.0
H668 H 0.9599 0.42343 0.14475 0.0
H669 H 0.98214 0.42451 0.18277 0.0
H670 H 0.95452 0.42058 0.2376 0.0
H671 H 0.91363 0.43694 0.25081 0.0
H672 H 0.11713 0.8582 0.37444 0.0
H673 H 0.15062 0.87129 0.35406 0.0
H674 H 0.1871 0.86426 0.46386 0.0
H675 H 0.15325 0.85132 0.48504 0.0
H676 H 0.16466 0.89655 0.38851 0.0
H677 H 0.2454 0.84974 0.38547 0.0
H678 H 0.21213 0.84753 0.38586 0.0
H679 H 0.22687 0.85254 0.42868 0.0
C680 C 0.13203 0.8595 0.39458 0.0
C681 C 0.13225 0.85367 0.43157 0.0
C682 C 0.15131 0.86695 0.38271 0.0
C683 C 0.17147 0.86867 0.40729 0.0
C684 C 0.17191 0.86289 0.44421 0.0
H685 H 0.27578 0.92912 0.34924 0.0
H686 H 0.24849 0.91559 0.38612 0.0
C687 C 0.15252 0.85546 0.45624 0.0
C688 C 0.19168 0.87669 0.39401 0.0
H689 H 0.25486 0.87238 0.36755 0.0
C690 C 0.18445 0.89132 0.3843 0.0
C691 C 0.21744 0.8698 0.3883 0.0
C692 C 0.22606 0.85401 0.39732 0.0
C693 C 0.20215 0.89918 0.3684 0.0
C694 C 0.22786 0.89226 0.3623 0.0
C695 C 0.23521 0.87769 0.37257 0.0
C696 C 0.24667 0.89966 0.34221 0.0
C697 C 0.19295 0.91468 0.35679 0.0
C698 C 0.25552 0.89489 0.30594 0.0
C699 C 0.27115 0.90255 0.28495 0.0
C700 C 0.27844 0.91513 0.29983 0.0
C701 C 0.27062 0.91948 0.33699 0.0
C702 C 0.25483 0.91182 0.35797 0.0
H703 H 0.17164 0.91761 0.35724 0.0
H704 H 0.20083 0.92192 0.37679 0.0
H705 H 0.19986 0.91667 0.32773 0.0
H706 H 0.2496 0.88549 0.2933 0.0
H707 H 0.27715 0.89878 0.25668 0.0
H708 H 0.84722 0.17685 0.4838 0.0
H709 H 0.81131 0.16459 0.4659 0.0
H710 H 0.85184 0.14864 0.36372 0.0
H711 H 0.8872 0.16087 0.38096 0.0
H712 H 0.78117 0.16535 0.38903 0.0
H713 H 0.8386 0.11222 0.42857 0.0
H714 H 0.84517 0.12909 0.44742 0.0
H715 H 0.85556 0.12341 0.40022 0.0
C716 C 0.84818 0.17093 0.45724 0.0
C717 C 0.87024 0.16962 0.43412 0.0
C718 C 0.82775 0.1639 0.44714 0.0
C719 C 0.82918 0.15551 0.41382 0.0
C720 C 0.85055 0.15486 0.38986 0.0
H721 H 0.7676 0.10153 0.26682 0.0
H722 H 0.79035 0.11649 0.30606 0.0
C723 C 0.8708 0.16182 0.39985 0.0
C724 C 0.80927 0.14677 0.40408 0.0
H725 H 0.80295 0.11184 0.38681 0.0
C726 C 0.78554 0.15365 0.3894 0.0
C727 C 0.81508 0.13151 0.40466 0.0
C728 C 0.8399 0.12358 0.42137 0.0
C729 C 0.76824 0.14561 0.37284 0.0
C730 C 0.77487 0.13038 0.37122 0.0
C731 C 0.79791 0.12352 0.38801 0.0
C732 C 0.7601 0.12148 0.34793 0.0
C733 C 0.74379 0.15346 0.35495 0.0
C734 C 0.73548 0.1192 0.35858 0.0
C735 C 0.72225 0.11059 0.33594 0.0
C736 C 0.73338 0.10422 0.3022 0.0
C737 C 0.75814 0.10649 0.29206 0.0
C738 C 0.77131 0.11497 0.31466 0.0
H739 H 0.7424 0.16537 0.35597 0.0
H740 H 0.74262 0.15007 0.32478 0.0
H741 H 0.72699 0.15057 0.37018 0.0
H742 H 0.7266 0.12401 0.38442 0.0
H743 H 0.70323 0.10908 0.34452 0.0
H744 H 0.95086 0.18169 0.61449 0.0
H745 H 0.97277 0.16434 0.66189 0.0
H746 H 0.02059 0.14222 0.57301 0.0
H747 H 0.99905 0.1592 0.52627 0.0
H748 H 1.00207 0.12342 0.62608 0.0
H749 H 0.048 0.16572 0.69578 0.0
H750 H 0.01351 0.16865 0.69167 0.0
H751 H 0.03285 0.16864 0.6497 0.0
C752 C 0.96577 0.17296 0.60518 0.0
C753 C 0.97341 0.17187 0.56675 0.0
C754 C 0.97836 0.16313 0.63223 0.0
C755 C 0.9985 0.15205 0.621 0.0
C756 C 1.00514 0.15065 0.58239 0.0
H757 H 0.14114 0.10804 0.67309 0.0
H758 H 0.10082 0.12395 0.65921 0.0
C759 C 0.99286 0.16044 0.55569 0.0
C760 C 0.01432 0.14235 0.64876 0.0
H761 H 0.06554 0.1416 0.70858 0.0
C762 C 0.01548 0.12737 0.64508 0.0
C763 C 0.03189 0.14754 0.6733 0.0
C764 C 0.03175 0.1635 0.67798 0.0
C765 C 0.03489 0.11746 0.663 0.0
C766 C 0.05352 0.12268 0.68545 0.0
C767 C 0.05119 0.13763 0.69143 0.0
C768 C 0.0779 0.11317 0.69687 0.0
C769 C 0.0366 0.10154 0.65529 0.0
C770 C 0.07859 0.10182 0.72315 0.0
C771 C 0.10191 0.09256 0.73128 0.0
C772 C 0.12481 0.09451 0.71307 0.0
C773 C 0.12394 0.1061 0.68748 0.0
C774 C 0.10085 0.1153 0.6796 0.0
H775 H 0.02196 0.09936 0.63438 0.0
H776 H 0.05598 0.09687 0.64427 0.0
H777 H 0.03365 0.0959 0.68225 0.0
H778 H 0.06113 0.10005 0.73711 0.0
H779 H 0.10192 0.08378 0.75121 0.0
H780 H 0.91253 0.93758 0.75324 0.0
H781 H 0.95378 0.92164 0.73986 0.0
H782 H 0.91626 0.89854 0.65717 0.0
H783 H 0.87546 0.9141 0.67041 0.0
H784 H 0.94969 0.88036 0.706 0.0
H785 H 0.99654 0.92328 0.64161 0.0
H786 H 0.98367 0.92617 0.689 0.0
H787 H 0.96228 0.92586 0.64945 0.0
C788 C 0.91311 0.92906 0.73234 0.0
C789 C 0.89065 0.92721 0.71276 0.0
C790 C 0.93671 0.92 0.72461 0.0
C791 C 0.93817 0.90895 0.69724 0.0
C792 C 0.91566 0.90696 0.6784 0.0
H793 H 0.02709 0.86428 0.53139 0.0
H794 H 1.00397 0.88154 0.5763 0.0
C795 C 0.89228 0.91596 0.68596 0.0
C796 C 0.96288 0.8995 0.68678 0.0
H797 H 0.0173 0.89933 0.63402 0.0
C798 C 0.96484 0.8845 0.69108 0.0
C799 C 0.98258 0.90493 0.66722 0.0
C800 C 0.98131 0.92092 0.66123 0.0
C801 C 0.98496 0.87476 0.67416 0.0
C802 C 1.0039 0.88017 0.65273 0.0
C803 C 1.00289 0.89519 0.65065 0.0
C804 C 0.02156 0.87068 0.62652 0.0
C805 C 0.98463 0.85878 0.6768 0.0
C806 C 0.04003 0.85905 0.6396 0.0
C807 C 0.05352 0.84908 0.61363 0.0
C808 C 0.04852 0.85062 0.57437 0.0
C809 C 0.03123 0.86275 0.56149 0.0
C810 C 0.01803 0.87267 0.58718 0.0
H811 H 0.96691 0.85647 0.69072 0.0
H812 H 0.98609 0.85384 0.64796 0.0
H813 H 1.00143 0.85347 0.69365 0.0
H814 H 0.04333 0.85739 0.66984 0.0
H815 H 0.06665 0.83978 0.62431 0.0
H816 H 0.79775 0.41816 0.3449 0.0
H817 H 0.77409 0.40295 0.38278 0.0
H818 H 0.72093 0.40211 0.29015 0.0
H819 H 0.7436 0.4175 0.25267 0.0
H820 H 0.71806 0.40876 0.40188 0.0
H821 H 0.74793 0.35861 0.31809 0.0
H822 H 0.76564 0.37339 0.31755 0.0
H823 H 0.73676 0.37442 0.28989 0.0
C824 C 0.78099 0.41483 0.33252 0.0
C825 C 0.77296 0.41905 0.29525 0.0
C826 C 0.76753 0.40607 0.35425 0.0
C827 C 0.746 0.40121 0.33902 0.0
C828 C 0.73781 0.40549 0.30219 0.0
H829 H 0.61228 0.37155 0.41559 0.0
H830 H 0.64568 0.38491 0.39566 0.0
C831 C 0.75101 0.4143 0.28065 0.0
C832 C 0.73144 0.39193 0.3614 0.0
H833 H 0.71134 0.35934 0.35852 0.0
C834 C 0.71689 0.39787 0.39284 0.0
C835 C 0.73011 0.37767 0.34982 0.0
C836 C 0.74611 0.37055 0.31719 0.0
C837 C 0.7 0.39019 0.41168 0.0
C838 C 0.69748 0.37628 0.39853 0.0
C839 C 0.71312 0.37004 0.36845 0.0
C840 C 0.6774 0.36847 0.4135 0.0
C841 C 0.68466 0.39715 0.44509 0.0
C842 C 0.68405 0.35469 0.42988 0.0
C843 C 0.66488 0.34697 0.44125 0.0
C844 C 0.63873 0.35281 0.43581 0.0
C845 C 0.63221 0.36669 0.41984 0.0
C846 C 0.6513 0.37442 0.40881 0.0
H847 H 0.69406 0.40557 0.45853 0.0
H848 H 0.66537 0.40242 0.43504 0.0
H849 H 0.68207 0.389 0.46695 0.0
H850 H 0.70407 0.34984 0.43344 0.0
H851 H 0.67054 0.33627 0.45311 0.0
H852 H 0.28172 0.59137 0.26706 0.0
H853 H 0.30784 0.60541 0.30345 0.0
H854 H 0.24698 0.61568 0.38608 0.0
H855 H 0.22054 0.60141 0.34943 0.0
H856 H 0.29559 0.63446 0.31786 0.0
H857 H 0.31045 0.60363 0.45366 0.0
H858 H 0.29899 0.59614 0.41093 0.0
H859 H 0.27766 0.60912 0.43862 0.0
C860 C 0.2738 0.5966 0.29295 0.0
C861 C 0.24887 0.59541 0.30505 0.0
C862 C 0.28885 0.60458 0.31389 0.0
C863 C 0.27949 0.6116 0.3476 0.0
C864 C 0.25482 0.61018 0.36047 0.0
H865 H 0.35726 0.67274 0.47437 0.0
H866 H 0.32522 0.65815 0.45511 0.0
C867 C 0.23969 0.60207 0.33948 0.0
C868 C 0.29533 0.62099 0.3674 0.0
H869 H 0.32941 0.62453 0.4488 0.0
C870 C 0.3028 0.63232 0.3466 0.0
C871 C 0.30468 0.61828 0.405 0.0
C872 C 0.29775 0.60608 0.42841 0.0
C873 C 0.31982 0.64073 0.36184 0.0
C874 C 0.32988 0.63771 0.39884 0.0
C875 C 0.32172 0.62677 0.42037 0.0
C876 C 0.35002 0.64534 0.41424 0.0
C877 C 0.3273 0.65268 0.338 0.0
C878 C 0.37479 0.64268 0.39847 0.0
C879 C 0.39316 0.6509 0.40954 0.0
C880 C 0.38718 0.66203 0.43661 0.0
C881 C 0.36266 0.66421 0.45372 0.0
C882 C 0.34426 0.65592 0.44263 0.0
H883 H 0.31402 0.65558 0.31359 0.0
H884 H 0.32752 0.66248 0.35556 0.0
H885 H 0.34697 0.6491 0.32655 0.0
H886 H 0.3797 0.63447 0.37676 0.0
H887 H 0.41192 0.64874 0.39626 0.0
H888 H 0.50457 0.67907 0.56324 0.0
H889 H 0.52641 0.66151 0.60819 0.0
H890 H 0.45413 0.64931 0.63874 0.0
H891 H 0.43171 0.6672 0.59286 0.0
H892 H 0.51857 0.65849 0.68892 0.0
H893 H 0.50203 0.61082 0.60407 0.0
H894 H 0.49809 0.62859 0.58304 0.0
H895 H 0.47506 0.6245 0.61699 0.0
C896 C 0.49313 0.67273 0.57953 0.0
C897 C 0.46639 0.67443 0.57415 0.0
C898 C 0.50571 0.66272 0.60544 0.0
C899 C 0.49203 0.65398 0.62662 0.0
C900 C 0.46512 0.65587 0.6224 0.0
H901 H 0.59692 0.58287 0.74522 0.0
H902 H 0.55522 0.59856 0.73213 0.0
C903 C 0.45232 0.66612 0.59643 0.0
C904 C 0.5069 0.64269 0.65153 0.0
H905 H 0.53484 0.60701 0.64995 0.0
C906 C 0.52152 0.64715 0.68122 0.0
C907 C 0.51085 0.62788 0.64147 0.0
C908 C 0.49581 0.62254 0.60962 0.0
C909 C 0.54124 0.63745 0.69904 0.0
C910 C 0.54663 0.62293 0.68672 0.0
C911 C 0.53063 0.61816 0.65937 0.0
C912 C 0.57138 0.61347 0.69652 0.0
C913 C 0.55729 0.64299 0.72926 0.0
C914 C 0.59412 0.61662 0.68074 0.0
C915 C 0.61765 0.60769 0.68773 0.0
C916 C 0.61916 0.59538 0.71096 0.0
C917 C 0.59641 0.5923 0.72739 0.0
C918 C 0.57261 0.60122 0.71986 0.0
H919 H 0.54685 0.65303 0.7427 0.0
H920 H 0.56297 0.63473 0.75171 0.0
H921 H 0.57509 0.64548 0.71604 0.0
H922 H 0.5936 0.62594 0.66242 0.0
H923 H 0.63474 0.61044 0.67473 0.0
H924 H 0.57125 0.3361 0.62089 0.0
H925 H 0.54803 0.35324 0.66757 0.0
H926 H 0.51191 0.37968 0.57549 0.0
H927 H 0.535 0.3629 0.52946 0.0
H928 H 0.52476 0.39606 0.63615 0.0
H929 H 0.47108 0.35331 0.68422 0.0
H930 H 0.5055 0.34974 0.68893 0.0
H931 H 0.4912 0.35108 0.6424 0.0
C932 C 0.5589 0.3458 0.61083 0.0
C933 C 0.55478 0.34814 0.5716 0.0
C934 C 0.54544 0.3555 0.63744 0.0
C935 C 0.52786 0.36765 0.62503 0.0
C936 C 0.52527 0.37041 0.58586 0.0
H937 H 0.38223 0.41209 0.66878 0.0
H938 H 0.42276 0.39642 0.65462 0.0
C939 C 0.53845 0.36076 0.55952 0.0
C940 C 0.51009 0.37692 0.65157 0.0
H941 H 0.45478 0.37705 0.70217 0.0
C942 C 0.50981 0.39189 0.65147 0.0
C943 C 0.49045 0.37147 0.67129 0.0
C944 C 0.4893 0.35554 0.67174 0.0
C945 C 0.48959 0.40161 0.66832 0.0
C946 C 0.46923 0.39619 0.68617 0.0
C947 C 0.47043 0.38117 0.68854 0.0
C948 C 0.44473 0.40577 0.69685 0.0
C949 C 0.48916 0.41762 0.66444 0.0
C950 C 0.44341 0.41629 0.72563 0.0
C951 C 0.41998 0.42542 0.73388 0.0
C952 C 0.39753 0.42416 0.71344 0.0
C953 C 0.39904 0.41347 0.68506 0.0
C954 C 0.42226 0.40442 0.67697 0.0
H955 H 0.50482 0.42006 0.64576 0.0
H956 H 0.47044 0.42303 0.6526 0.0
H957 H 0.49145 0.42231 0.69296 0.0
H958 H 0.46043 0.41743 0.74168 0.0
H959 H 0.41949 0.43349 0.75599 0.0
H960 H 0.60695 0.87179 0.89672 0.0
H961 H 0.63928 0.88624 0.87941 0.0
H962 H 0.69142 0.86336 0.96224 0.0
H963 H 0.6594 0.84843 0.97871 0.0
H964 H 0.66465 0.90443 0.91933 0.0
H965 H 0.73404 0.85729 0.86542 0.0
H966 H 0.7012 0.85613 0.87692 0.0
H967 H 0.72446 0.85618 0.91425 0.0
C968 C 0.62528 0.8698 0.91127 0.0
C969 C 0.63062 0.85879 0.93877 0.0
C970 C 0.64374 0.87814 0.9015 0.0
C971 C 0.66803 0.87571 0.91892 0.0
C972 C 0.67304 0.86523 0.94777 0.0
H973 H 0.79848 0.91719 0.84546 0.0
H974 H 0.77192 0.90413 0.88567 0.0
C975 C 0.65455 0.85682 0.95754 0.0
C976 C 0.68806 0.88393 0.90568 0.0
H977 H 0.74584 0.88014 0.8593 0.0
C978 C 0.68252 0.89909 0.9066 0.0
C979 C 0.71147 0.877 0.88909 0.0
C980 C 0.71818 0.86077 0.88598 0.0
C981 C 0.69931 0.90748 0.89043 0.0
C982 C 0.72216 0.90054 0.87257 0.0
C983 C 0.72833 0.88542 0.87314 0.0
C984 C 0.73831 0.90875 0.84954 0.0
C985 C 0.69221 0.92371 0.89182 0.0
C986 C 0.72829 0.91555 0.81591 0.0
C987 C 0.74337 0.92284 0.79295 0.0
C988 C 0.76889 0.92356 0.80305 0.0
C989 C 0.77888 0.91688 0.83704 0.0
C990 C 0.76377 0.9094 0.85992 0.0
H991 H 0.67808 0.92735 0.91479 0.0
H992 H 0.70951 0.92872 0.89637 0.0
H993 H 0.6834 0.92769 0.86426 0.0
H994 H 0.70879 0.91506 0.80714 0.0
H995 H 0.73491 0.92804 0.76732 0.0
H996 H 0.35794 0.17103 0.98435 0.0
H997 H 0.32586 0.15633 0.96603 0.0
H998 H 0.3617 0.14874 0.85597 0.0
H999 H 0.39316 0.16362 0.87324 0.0
H1000 H 0.2915 0.15964 0.89465 0.0
H1001 H 0.35948 0.10762 0.90539 0.0
H1002 H 0.3645 0.12376 0.9301 0.0
H1003 H 0.37148 0.12168 0.88013 0.0
C1004 C 0.35889 0.16638 0.95611 0.0
C1005 C 0.37851 0.16845 0.93053 0.0
C1006 C 0.34056 0.15792 0.94577 0.0
C1007 C 0.34164 0.15129 0.90984 0.0
C1008 C 0.36077 0.15357 0.88406 0.0
H1009 H 0.2768 0.09765 0.76104 0.0
H1010 H 0.30114 0.11222 0.7986 0.0
C1011 C 0.3789 0.16206 0.89418 0.0
C1012 C 0.32309 0.14186 0.89871 0.0
H1013 H 0.32063 0.10731 0.87126 0.0
C1014 C 0.29762 0.14815 0.89017 0.0
C1015 C 0.33119 0.12688 0.89297 0.0
C1016 C 0.35809 0.11951 0.90289 0.0
C1017 C 0.28048 0.13997 0.8738 0.0
C1018 C 0.28899 0.12509 0.86642 0.0
C1019 C 0.3141 0.11871 0.87681 0.0
C1020 C 0.27333 0.11628 0.84425 0.0
C1021 C 0.25394 0.14749 0.86251 0.0
C1022 C 0.24951 0.11354 0.85744 0.0
C1023 C 0.23522 0.10524 0.83559 0.0
C1024 C 0.24452 0.09951 0.80016 0.0
C1025 C 0.2686 0.10212 0.78759 0.0
C1026 C 0.28275 0.11037 0.80929 0.0
H1027 H 0.25193 0.15943 0.86406 0.0
H1028 H 0.24932 0.14443 0.83309 0.0
H1029 H 0.23957 0.1441 0.88201 0.0
H1030 H 0.24203 0.11777 0.88467 0.0
H1031 H 0.21681 0.10346 0.84622 0.0
H1032 H 0.63247 0.11048 0.17189 0.0
H1033 H 0.59183 0.1262 0.15888 0.0
H1034 H 0.55332 0.10184 0.23717 0.0
H1035 H 0.59447 0.08576 0.25045 0.0
H1036 H 0.52791 0.10716 0.16682 0.0
H1037 H 0.55091 0.15793 0.22448 0.0
H1038 H 0.57592 0.14932 0.19341 0.0
H1039 H 0.56921 0.14045 0.23681 0.0
C1040 C 0.61549 0.10843 0.18669 0.0
C1041 C 0.61683 0.09682 0.2123 0.0
C1042 C 0.59221 0.11756 0.17941 0.0
C1043 C 0.56955 0.11542 0.19758 0.0
C1044 C 0.57063 0.10381 0.22315 0.0
H1045 H 0.44492 0.18477 0.12081 0.0
H1046 H 0.46729 0.16722 0.16721 0.0
C1047 C 0.59414 0.09464 0.23071 0.0
C1048 C 0.54485 0.12492 0.18743 0.0
H1049 H 0.51938 0.16048 0.17324 0.0
C1050 C 0.5257 0.11881 0.16911 0.0
C1051 C 0.54153 0.14013 0.19108 0.0
C1052 C 0.56038 0.14733 0.21291 0.0
C1053 C 0.50465 0.12754 0.1513 0.0
C1054 C 0.50294 0.14275 0.15126 0.0
C1055 C 0.52076 0.14884 0.17271 0.0
C1056 C 0.48571 0.15226 0.12452 0.0
C1057 C 0.48498 0.12034 0.1314 0.0
C1058 C 0.48831 0.14963 0.08526 0.0
C1059 C 0.47575 0.15958 0.05907 0.0
C1060 C 0.46022 0.17244 0.07134 0.0
C1061 C 0.45646 0.17483 0.11061 0.0
C1062 C 0.46935 0.16486 0.13706 0.0
H1063 H 0.48291 0.11012 0.14594 0.0
H1064 H 0.46589 0.1275 0.13031 0.0
H1065 H 0.49148 0.11759 0.10182 0.0
H1066 H 0.50127 0.14024 0.07469 0.0
H1067 H 0.47912 0.15748 0.02897 0.0
H1068 H 0.57179 0.83765 0.11969 0.0
H1069 H 0.54843 0.85456 0.16675 0.0
H1070 H 0.51126 0.88093 0.07529 0.0
H1071 H 0.53455 0.86441 0.02888 0.0
H1072 H 0.52341 0.8974 0.13557 0.0
H1073 H 0.47215 0.85376 0.18474 0.0
H1074 H 0.50658 0.85066 0.18924 0.0
H1075 H 0.49215 0.85173 0.1428 0.0
C1076 C 0.55918 0.84729 0.10984 0.0
C1077 C 0.55483 0.84967 0.07066 0.0
C1078 C 0.54563 0.85686 0.13668 0.0
C1079 C 0.52769 0.86891 0.12457 0.0
C1080 C 0.52488 0.87173 0.08545 0.0
H1081 H 0.38116 0.91114 0.16764 0.0
H1082 H 0.42232 0.89596 0.15464 0.0
C1083 C 0.53818 0.86223 0.05888 0.0
C1084 C 0.50977 0.87797 0.15137 0.0
H1085 H 0.455 0.87736 0.2027 0.0
C1086 C 0.50881 0.89301 0.15113 0.0
C1087 C 0.4906 0.87224 0.17146 0.0
C1088 C 0.49016 0.85624 0.1721 0.0
C1089 C 0.4883 0.90249 0.16808 0.0
C1090 C 0.46837 0.89678 0.18621 0.0
C1091 C 0.47032 0.88172 0.18885 0.0
C1092 C 0.44344 0.90604 0.19653 0.0
C1093 C 0.48708 0.91856 0.16389 0.0
C1094 C 0.44139 0.91679 0.2248 0.0
C1095 C 0.41756 0.92566 0.23239 0.0
C1096 C 0.39545 0.92389 0.21176 0.0
C1097 C 0.39768 0.91293 0.18402 0.0
C1098 C 0.42128 0.90415 0.1766 0.0
H1099 H 0.50257 0.92121 0.1452 0.0
H1100 H 0.46821 0.92367 0.15191 0.0
H1101 H 0.48905 0.92339 0.19233 0.0
H1102 H 0.45817 0.91835 0.24089 0.0
H1103 H 0.41651 0.93396 0.254 0.0
H1104 H 0.95838 0.21737 0.31128 0.0
H1105 H 0.97335 0.23119 0.25945 0.0
H1106 H 0.95232 0.2704 0.32435 0.0
H1107 H 0.93756 0.2566 0.37665 0.0
H1108 H 0.94536 0.25613 0.21812 0.0
H1109 H 0.03039 0.26807 0.2978 0.0
H1110 H 0.01348 0.25382 0.31196 0.0
H1111 H 0.99953 0.27233 0.32076 0.0
C1112 C 0.95684 0.22894 0.31448 0.0
C1113 C 0.94689 0.23588 0.34813 0.0
C1114 C 0.96534 0.23682 0.28483 0.0
C1115 C 0.96428 0.25177 0.28834 0.0
C1116 C 0.9536 0.25884 0.32133 0.0
H1117 H 0.02854 0.30745 0.12519 0.0
H1118 H 0.00862 0.29915 0.18255 0.0
C1119 C 0.94493 0.25096 0.35097 0.0
C1120 C 0.97475 0.2598 0.25748 0.0
H1121 H 0.02547 0.27625 0.23443 0.0
C1122 C 0.96275 0.26064 0.22174 0.0
C1123 C 0.99732 0.26577 0.26242 0.0
C1124 C 0.01114 0.26494 0.30018 0.0
C1125 C 0.973 0.26703 0.19054 0.0
C1126 C 0.99624 0.2724 0.19498 0.0
C1127 C 1.00773 0.27207 0.23108 0.0
C1128 C 0.00972 0.27738 0.16178 0.0
C1129 C 0.9589 0.26788 0.15299 0.0
C1130 C 0.01779 0.26777 0.13187 0.0
C1131 C 0.02907 0.27246 0.09939 0.0
C1132 C 0.0328 0.28684 0.09615 0.0
C1133 C 0.02593 0.29631 0.12693 0.0
C1134 C 0.01446 0.2916 0.15956 0.0
H1135 H 0.93816 0.26754 0.15707 0.0
H1136 H 0.96073 0.2779 0.13732 0.0
H1137 H 0.96723 0.25848 0.13512 0.0
H1138 H 0.01503 0.25664 0.13345 0.0
H1139 H 0.03472 0.26483 0.07655 0.0
H1140 H 0.09731 0.76337 0.37194 0.0
H1141 H 0.08602 0.75078 0.31458 0.0
H1142 H 0.0219 0.78516 0.29434 0.0
H1143 H 0.03323 0.79781 0.35072 0.0
H1144 H 0.03845 0.74131 0.29932 0.0
H1145 H 0.05867 0.78054 0.19104 0.0
H1146 H 0.07122 0.78023 0.23896 0.0
H1147 H 0.03879 0.789 0.22902 0.0
C1148 C 0.08104 0.7683 0.3549 0.0
C1149 C 0.06611 0.78156 0.36595 0.0
C1150 C 0.07454 0.76108 0.3223 0.0
C1151 C 0.0533 0.76712 0.29995 0.0
C1152 C 0.0386 0.7804 0.31078 0.0
H1153 H 0.95037 0.75312 0.12865 0.0
H1154 H 0.97624 0.76016 0.18031 0.0
C1155 C 0.04496 0.78755 0.34328 0.0
C1156 C 0.04548 0.75945 0.2661 0.0
H1157 H 0.02977 0.76466 0.17218 0.0
C1158 C 0.03707 0.74622 0.27128 0.0
C1159 C 0.0438 0.76585 0.22952 0.0
C1160 C 0.05385 0.77962 0.22165 0.0
C1161 C 0.02542 0.73974 0.2414 0.0
C1162 C 0.02234 0.74664 0.2055 0.0
C1163 C 0.03203 0.75944 0.19982 0.0
C1164 C 1.00674 0.74168 0.17469 0.0
C1165 C 0.01513 0.72603 0.24889 0.0
C1166 C 0.01524 0.72886 0.15441 0.0
C1167 C 1.00049 0.72482 0.1243 0.0
C1168 C 0.97706 0.73359 0.11396 0.0
C1169 C 0.96852 0.74625 0.13505 0.0
C1170 C 0.98323 0.75027 0.16486 0.0
H1171 H 0.01684 0.72279 0.27934 0.0
H1172 H 0.9946 0.72742 0.24034 0.0
H1173 H 0.02595 0.71715 0.23147 0.0
H1174 H 0.03347 0.72214 0.16137 0.0
H1175 H 1.00775 0.71506 0.10858 0.0
H1176 H 0.21061 0.56986 0.38632 0.0
H1177 H 0.22773 0.56084 0.44843 0.0
H1178 H 0.19514 0.52231 0.43262 0.0
H1179 H 0.17795 0.53135 0.37087 0.0
H1180 H 0.19525 0.53134 0.50941 0.0
H1181 H 0.29057 0.52798 0.43931 0.0
H1182 H 0.27114 0.54568 0.4413 0.0
H1183 H 0.26075 0.53182 0.4132 0.0
C1184 C 0.20599 0.55983 0.39706 0.0
C1185 C 0.1927 0.55135 0.37422 0.0
C1186 C 0.21611 0.55458 0.43224 0.0
C1187 C 0.2132 0.54075 0.44466 0.0
C1188 C 0.19769 0.53297 0.42354 0.0
H1189 H 0.31105 0.4754 0.57627 0.0
H1190 H 0.28811 0.49082 0.52618 0.0
C1191 C 0.18766 0.5382 0.38846 0.0
C1192 C 0.22874 0.53351 0.47662 0.0
H1193 H 0.2904 0.51902 0.50182 0.0
C1194 C 0.21606 0.52878 0.50802 0.0
C1195 C 0.25588 0.52987 0.47418 0.0
C1196 C 0.27048 0.53396 0.4401 0.0
C1197 C 0.22978 0.52049 0.53706 0.0
C1198 C 0.25694 0.51702 0.53486 0.0
C1199 C 0.26962 0.52178 0.50352 0.0
C1200 C 0.27243 0.5082 0.56447 0.0
C1201 C 0.215 0.51511 0.5692 0.0
C1202 C 0.272 0.51309 0.6022 0.0
C1203 C 0.28502 0.50435 0.63064 0.0
C1204 C 0.2989 0.49056 0.62191 0.0
C1205 C 0.30052 0.48597 0.58377 0.0
C1206 C 0.28734 0.49473 0.55525 0.0
H1207 H 0.19441 0.51562 0.56184 0.0
H1208 H 0.22339 0.5038 0.57678 0.0
H1209 H 0.21598 0.52196 0.59471 0.0
H1210 H 0.26122 0.5236 0.60978 0.0
H1211 H 0.28387 0.5083 0.6597 0.0
H1212 H 0.70237 0.54209 0.57275 0.0
H1213 H 0.7235 0.52573 0.52329 0.0
H1214 H 0.76921 0.50032 0.60913 0.0
H1215 H 0.74753 0.51611 0.65854 0.0
H1216 H 0.77465 0.52017 0.50527 0.0
H1217 H 0.74294 0.46941 0.54878 0.0
H1218 H 0.72839 0.48683 0.56732 0.0
H1219 H 0.7585 0.47761 0.58621 0.0
C1220 C 0.71659 0.53287 0.58109 0.0
C1221 C 0.72338 0.53049 0.61957 0.0
C1222 C 0.72877 0.52359 0.55282 0.0
C1223 C 0.74778 0.51172 0.56255 0.0
C1224 C 0.75433 0.50924 0.60095 0.0
H1225 H 0.851 0.46992 0.38235 0.0
H1226 H 0.83783 0.47958 0.44595 0.0
C1227 C 0.74213 0.51843 0.62914 0.0
C1228 C 0.76158 0.50229 0.5325 0.0
H1229 H 0.77506 0.46741 0.50089 0.0
C1230 C 0.77479 0.50863 0.50432 0.0
C1231 C 0.76173 0.48723 0.53136 0.0
C1232 C 0.74694 0.47987 0.55981 0.0
C1233 C 0.78779 0.50039 0.47464 0.0
C1234 C 0.78812 0.4853 0.47363 0.0
C1235 C 0.77523 0.47892 0.50216 0.0
C1236 C 0.79835 0.47645 0.4402 0.0
C1237 C 0.80002 0.50804 0.44368 0.0
C1238 C 0.78112 0.47048 0.41739 0.0
C1239 C 0.78868 0.46486 0.38165 0.0
C1240 C 0.81365 0.46499 0.36818 0.0
C1241 C 0.83173 0.46958 0.39241 0.0
C1242 C 0.8241 0.47528 0.42839 0.0
H1243 H 0.79388 0.51995 0.44504 0.0
H1244 H 0.82123 0.5056 0.44685 0.0
H1245 H 0.79507 0.50427 0.4151 0.0
H1246 H 0.76124 0.47117 0.42594 0.0
H1247 H 0.77441 0.46139 0.36333 0.0
H1248 H 0.97601 0.72068 0.84064 0.0
H1249 H 0.98798 0.73462 0.78678 0.0
H1250 H 0.93429 0.77187 0.82449 0.0
H1251 H 0.92209 0.75789 0.87871 0.0
H1252 H 0.95201 0.75282 0.72746 0.0
H1253 H 0.01138 0.78219 0.82016 0.0
H1254 H 1.00407 0.76484 0.83375 0.0
H1255 H 0.97935 0.78054 0.83501 0.0
C1256 C 0.96658 0.73181 0.83731 0.0
C1257 C 0.94824 0.73824 0.86401 0.0
C1258 C 0.97336 0.73973 0.80646 0.0
C1259 C 0.96212 0.75427 0.80185 0.0
C1260 C 0.94319 0.76065 0.82768 0.0
H1261 H 1.00634 0.80335 0.60399 0.0
H1262 H 0.98016 0.79662 0.65688 0.0
C1263 C 0.93618 0.75265 0.85846 0.0
C1264 C 0.97152 0.76279 0.77107 0.0
H1265 H 0.01452 0.78525 0.75402 0.0
C1266 C 0.96524 0.76016 0.73319 0.0
C1267 C 0.98896 0.77223 0.77878 0.0
C1268 C 0.99654 0.77518 0.81905 0.0
C1269 C 0.97662 0.76641 0.70268 0.0
C1270 C 0.99477 0.77543 0.71038 0.0
C1271 C 1.00041 0.77842 0.74829 0.0
C1272 C 0.01042 0.78032 0.67959 0.0
C1273 C 0.97028 0.76274 0.66237 0.0
C1274 C 0.03611 0.77358 0.67539 0.0
C1275 C 0.05092 0.77734 0.64536 0.0
C1276 C 0.04045 0.78802 0.61898 0.0
C1277 C 0.01492 0.79513 0.62393 0.0
C1278 C 0.99995 0.79124 0.65394 0.0
H1279 H 0.9569 0.75487 0.66122 0.0
H1280 H 0.96128 0.77272 0.64728 0.0
H1281 H 0.98817 0.75817 0.64683 0.0
H1282 H 0.04456 0.76517 0.695 0.0
H1283 H 0.07063 0.77184 0.64272 0.0
H1284 H 0.07715 0.26406 0.87605 0.0
H1285 H 0.0626 0.2504 0.82324 0.0
H1286 H 0.04251 0.28976 0.75868 0.0
H1287 H 0.05727 0.30342 0.81099 0.0
H1288 H 0.01139 0.25547 0.79168 0.0
H1289 H 0.08535 0.26128 0.68352 0.0
H1290 H 0.08993 0.26412 0.73376 0.0
H1291 H 0.07094 0.27799 0.70552 0.0
C1292 C 0.07014 0.26974 0.85026 0.0
C1293 C 0.06843 0.28481 0.84762 0.0
C1294 C 0.06166 0.26195 0.82028 0.0
C1295 C 0.05167 0.26905 0.78697 0.0
C1296 C 0.05047 0.28403 0.78394 0.0
H1297 H 0.97903 0.25563 0.57755 0.0
H1298 H 0.99815 0.26395 0.63481 0.0
C1299 C 0.05876 0.29184 0.81394 0.0
C1300 C 0.04128 0.26104 0.75595 0.0
H1301 H 0.04725 0.25373 0.66087 0.0
C1302 C 0.01939 0.25488 0.76315 0.0
C1303 C 0.05182 0.26028 0.71887 0.0
C1304 C 0.07595 0.26615 0.70991 0.0
C1305 C 1.00695 0.24865 0.7337 0.0
C1306 C 0.01699 0.24837 0.69629 0.0
C1307 C 0.03947 0.25403 0.68952 0.0
C1308 C 1.00368 0.2432 0.66312 0.0
C1309 C 0.98254 0.24304 0.74248 0.0
C1310 C 1.00003 0.22879 0.66017 0.0
C1311 C 0.98892 0.22401 0.62732 0.0
C1312 C 0.98167 0.23353 0.59677 0.0
C1313 C 0.98479 0.248 0.60035 0.0
C1314 C 0.99566 0.25277 0.6331 0.0
H1315 H 0.97453 0.24675 0.77076 0.0
H1316 H 0.96772 0.24656 0.72038 0.0
H1317 H 0.98666 0.23106 0.74265 0.0
H1318 H 1.00643 0.22116 0.68273 0.0
H1319 H 0.98698 0.21277 0.62515 0.0
H1320 H 0.1673 0.04183 0.87854 0.0
H1321 H 0.18391 0.03142 0.93947 0.0
H1322 H 0.24415 0.05696 0.9359 0.0
H1323 H 0.22779 0.06712 0.87474 0.0
H1324 H 0.26196 0.0277 0.93548 0.0
H1325 H 0.19098 0.04158 0.05189 0.0
H1326 H 0.17771 0.03549 0.00903 0.0
H1327 H 0.19009 0.05211 0.0087 0.0
C1328 C 0.18311 0.04585 0.89201 0.0
C1329 C 0.19599 0.05547 0.87255 0.0
C1330 C 0.19272 0.03983 0.92671 0.0
C1331 C 0.21528 0.04343 0.94231 0.0
C1332 C 0.22667 0.05409 0.9245 0.0
H1333 H 0.32521 0.99841 0.10776 0.0
H1334 H 0.30405 0.01494 0.05882 0.0
C1335 C 0.21715 0.06002 0.8898 0.0
C1336 C 0.22951 0.0343 0.97254 0.0
H1337 H 0.22469 0.02144 0.06267 0.0
C1338 C 0.25395 0.02648 0.9635 0.0
C1339 C 0.2189 0.03257 0.00882 0.0
C1340 C 0.19307 0.04097 0.02041 0.0
C1341 C 0.26781 0.01672 0.98935 0.0
C1342 C 0.25717 0.01491 0.02559 0.0
C1343 C 0.23283 0.02284 0.03485 0.0
C1344 C 0.27069 1.00458 0.05399 0.0
C1345 C 0.2933 1.00804 0.97708 0.0
C1346 C 0.25899 0.99329 0.06753 0.0
C1347 C 0.27101 0.98388 0.09543 0.0
C1348 C 0.29497 0.98558 0.11049 0.0
C1349 C 0.30699 0.99667 0.09623 0.0
C1350 C 0.29487 1.00615 0.06838 0.0
H1351 H 0.29553 1.00793 0.9456 0.0
H1352 H 0.3091 0.01292 0.98946 0.0
H1353 H 0.29549 0.99671 0.98727 0.0
H1354 H 0.2404 0.99185 0.05672 0.0
H1355 H 0.26134 0.97539 0.10575 0.0
H1356 H 0.78091 0.95977 0.87037 0.0
H1357 H 0.76688 0.97077 0.93157 0.0
H1358 H 0.83776 0.98733 0.9407 0.0
H1359 H 0.85179 0.97633 0.87893 0.0
H1360 H 0.78501 0.97211 0.00803 0.0
H1361 H 0.7811 0.0235 0.92776 0.0
H1362 H 0.78612 1.00613 0.90453 0.0
H1363 H 0.81199 0.01193 0.92999 0.0
C1364 C 0.794 0.96517 0.88636 0.0
C1365 C 0.81745 0.96716 0.87029 0.0
C1366 C 0.78591 0.97153 0.92118 0.0
C1367 C 0.80102 0.98013 0.94021 0.0
C1368 C 0.82568 0.98088 0.92613 0.0
H1369 H 0.7541 0.04521 0.11419 0.0
H1370 H 0.77725 0.02954 0.06539 0.0
C1371 C 0.83386 0.97443 0.89121 0.0
C1372 C 0.78923 0.98981 0.97116 0.0
H1373 H 0.76557 0.02526 0.99046 0.0
C1374 C 0.78096 0.98374 0.00442 0.0
C1375 C 0.78364 1.00498 0.96605 0.0
C1376 C 0.79094 0.01208 0.93009 0.0
C1377 C 0.76735 0.99245 0.03286 0.0
C1378 C 0.76142 1.00758 0.02743 0.0
C1379 C 0.77005 0.01366 0.99445 0.0
C1380 C 0.74666 0.01738 0.05589 0.0
C1381 C 0.75967 0.98538 0.0686 0.0
C1382 C 0.72138 0.0161 0.06581 0.0
C1383 C 0.70805 0.02507 0.09378 0.0
C1384 C 0.71981 0.03548 0.11219 0.0
C1385 C 0.74466 0.03716 0.10085 0.0
C1386 C 0.75792 0.02822 0.07297 0.0
H1387 H 0.7712 0.97442 0.07267 0.0
H1388 H 0.762 0.99202 0.09411 0.0
H1389 H 0.73914 0.9843 0.06651 0.0
H1390 H 0.71209 1.00804 0.05227 0.0
H1391 H 0.68899 0.02349 0.10202 0.0
H1392 H 0.53496 0.30703 0.63416 0.0
H1393 H 0.5102 0.30073 0.68898 0.0
H1394 H 0.51325 0.25792 0.64346 0.0
H1395 H 0.53747 0.26414 0.58859 0.0
H1396 H 0.46104 0.28683 0.69244 0.0
H1397 H 0.55021 0.25415 0.75214 0.0
H1398 H 0.55082 0.26816 0.71714 0.0
H1399 H 0.54365 0.25098 0.70288 0.0
C1400 C 0.52993 0.29638 0.63547 0.0
C1401 C 0.53857 0.28602 0.60725 0.0
C1402 C 0.51584 0.29279 0.66682 0.0
C1403 C 0.51019 0.27881 0.67038 0.0
C1404 C 0.51768 0.26871 0.6414 0.0
H1405 H 0.42109 0.23594 0.82665 0.0
H1406 H 0.43574 0.24826 0.7714 0.0
C1407 C 0.53168 0.27227 0.61018 0.0
C1408 C 0.49816 0.27431 0.70547 0.0
H1409 H 0.51114 0.25221 0.78271 0.0
C1410 C 0.47194 0.27934 0.71238 0.0
C1411 C 0.51253 0.26462 0.73147 0.0
C1412 C 0.54092 0.2592 0.72588 0.0
C1413 C 0.45959 0.27464 0.74437 0.0
C1414 C 0.47385 0.26461 0.76977 0.0
C1415 C 0.50019 0.25986 0.76315 0.0
C1416 C 0.46214 0.25879 0.80355 0.0
C1417 C 0.4315 0.28049 0.75092 0.0
C1418 C 0.4719 0.26072 0.83998 0.0
C1419 C 0.46363 0.25369 0.87144 0.0
C1420 C 0.44552 0.24448 0.86717 0.0
C1421 C 0.43487 0.24306 0.83093 0.0
C1422 C 0.44321 0.25011 0.79934 0.0
H1423 H 0.42496 0.29056 0.73446 0.0
H1424 H 0.41995 0.27233 0.74166 0.0
H1425 H 0.42758 0.28274 0.78162 0.0
H1426 H 0.4865 0.26736 0.8439 0.0
H1427 H 0.47193 0.25518 0.89906 0.0
H1428 H 0.59109 0.76166 0.86979 0.0
H1429 H 0.57733 0.74964 0.81323 0.0
H1430 H 0.51985 0.78717 0.78987 0.0
H1431 H 0.53386 0.79934 0.84527 0.0
H1432 H 0.52896 0.74294 0.79761 0.0
H1433 H 0.55538 0.77967 0.68731 0.0
H1434 H 0.56746 0.77943 0.73547 0.0
H1435 H 0.53597 0.78929 0.72415 0.0
C1436 C 0.57578 0.76742 0.85224 0.0
C1437 C 0.56355 0.78146 0.86213 0.0
C1438 C 0.56786 0.76051 0.82007 0.0
C1439 C 0.54781 0.76758 0.79698 0.0
C1440 C 0.53568 0.78159 0.80678 0.0
H1441 H 0.43956 0.7532 0.63252 0.0
H1442 H 0.466 0.76015 0.68366 0.0
C1443 C 0.54352 0.78847 0.83881 0.0
C1444 C 0.53859 0.76026 0.7635 0.0
H1445 H 0.52402 0.76516 0.66904 0.0
C1446 C 0.52837 0.74761 0.76932 0.0
C1447 C 0.53794 0.76632 0.72652 0.0
C1448 C 0.55003 0.77934 0.71786 0.0
C1449 C 0.51615 0.74139 0.7396 0.0
C1450 C 0.5142 0.74797 0.70332 0.0
C1451 C 0.52546 0.76019 0.69703 0.0
C1452 C 0.4984 0.7432 0.67259 0.0
C1453 C 0.50425 0.72825 0.74741 0.0
C1454 C 0.50791 0.7313 0.64942 0.0
C1455 C 0.49288 0.72734 0.61959 0.0
C1456 C 0.4681 0.73525 0.61247 0.0
C1457 C 0.45866 0.74702 0.63639 0.0
C1458 C 0.47369 0.75097 0.66593 0.0
H1459 H 0.50736 0.72441 0.77725 0.0
H1460 H 0.48326 0.73078 0.74176 0.0
H1461 H 0.51259 0.71938 0.72785 0.0
H1462 H 0.52704 0.72521 0.65412 0.0
H1463 H 0.5009 0.7183 0.60171 0.0
H1464 H 0.76099 0.47858 0.10429 0.0
H1465 H 0.74003 0.49479 0.05476 0.0
H1466 H 0.80378 0.51782 0.0556 0.0
H1467 H 0.82499 0.50149 0.10499 0.0
H1468 H 0.72427 0.52418 0.06073 0.0
H1469 H 0.79439 0.51108 0.94262 0.0
H1470 H 0.79484 0.49983 0.98431 0.0
H1471 H 0.8082 0.51612 0.98623 0.0
C1472 C 0.7707 0.48698 0.09348 0.0
C1473 C 0.79466 0.48876 0.10839 0.0
C1474 C 0.75867 0.49625 0.06531 0.0
C1475 C 0.77034 0.50749 0.05138 0.0
C1476 C 0.7946 0.50908 0.06546 0.0
H1477 H 0.72563 0.57059 0.87406 0.0
H1478 H 0.74241 0.56016 0.93469 0.0
C1479 C 0.80675 0.49972 0.09357 0.0
C1480 C 0.75656 0.51782 0.02319 0.0
H1481 H 0.76058 0.5308 0.93309 0.0
C1482 C 0.7322 0.52565 0.0328 0.0
C1483 C 0.76692 0.51973 0.98681 0.0
C1484 C 0.79241 0.51116 0.97413 0.0
C1485 C 0.71799 0.53537 0.00703 0.0
C1486 C 0.72833 0.53721 0.97063 0.0
C1487 C 0.75278 0.52949 0.9612 0.0
C1488 C 0.71384 0.54641 0.94075 0.0
C1489 C 0.69215 0.54365 0.019 0.0
C1490 C 0.69131 0.54278 0.92516 0.0
C1491 C 0.68143 0.54896 0.89076 0.0
C1492 C 0.69405 0.55878 0.87158 0.0
C1493 C 0.71518 0.56334 0.8889 0.0
C1494 C 0.72495 0.55725 0.92329 0.0
H1495 H 0.69014 0.5441 0.0505 0.0
H1496 H 0.68906 0.55485 0.00768 0.0
H1497 H 0.67681 0.53819 0.00745 0.0
H1498 H 0.6827 0.53425 0.93769 0.0
H1499 H 0.66566 0.54493 0.87723 0.0
H1500 H 0.19407 0.51845 0.10627 0.0
H1501 H 0.21621 0.50225 0.05725 0.0
H1502 H 0.28222 0.52328 0.06596 0.0
H1503 H 0.2603 0.53942 0.11487 0.0
H1504 H 0.23675 0.50781 0.98722 0.0
H1505 H 0.31374 0.48097 0.0836 0.0
H1506 H 0.28481 0.49224 0.10097 0.0
H1507 H 0.31074 0.50027 0.08243 0.0
C1508 C 0.21313 0.51976 0.09726 0.0
C1509 C 0.22554 0.53012 0.11462 0.0
C1510 C 0.22585 0.51042 0.06954 0.0
C1511 C 0.25115 0.51129 0.05881 0.0
C1512 C 0.26303 0.52211 0.0747 0.0
H1513 H 0.35374 0.47511 0.88071 0.0
H1514 H 0.33673 0.48577 0.94134 0.0
C1515 C 0.25041 0.53139 0.10241 0.0
C1516 C 0.26507 0.50104 0.03058 0.0
H1517 H 0.31972 0.47601 0.01719 0.0
C1518 C 0.25474 0.50075 0.99388 0.0
C1519 C 0.2886 0.49185 0.03936 0.0
C1520 C 0.30004 0.49121 0.07883 0.0
C1521 C 0.26764 0.49184 0.96537 0.0
C1522 C 0.29129 0.48276 0.974 0.0
C1523 C 0.30156 0.48294 0.01077 0.0
C1524 C 0.30578 0.4735 0.94435 0.0
C1525 C 0.2562 0.49251 0.92584 0.0
C1526 C 0.29512 0.46236 0.92761 0.0
C1527 C 0.30489 0.45625 0.89322 0.0
C1528 C 0.32568 0.46103 0.87552 0.0
C1529 C 0.33815 0.47098 0.89444 0.0
C1530 C 0.32825 0.47719 0.9288 0.0
H1531 H 0.24081 0.50209 0.92201 0.0
H1532 H 0.27126 0.49283 0.90393 0.0
H1533 H 0.2477 0.48269 0.92078 0.0
H1534 H 0.2779 0.45929 0.93939 0.0
H1535 H 0.29465 0.44882 0.87864 0.0
H1536 H 0.4223 0.7386 0.33027 0.0
H1537 H 0.43833 0.75058 0.27548 0.0
H1538 H 0.49939 0.7616 0.34479 0.0
H1539 H 0.48354 0.74971 0.39954 0.0
H1540 H 0.44913 0.77924 0.26245 0.0
H1541 H 0.53694 0.73701 0.25768 0.0
H1542 H 0.50897 0.73498 0.28525 0.0
H1543 H 0.53105 0.74596 0.30284 0.0
C1544 C 0.43888 0.74379 0.334 0.0
C1545 C 0.45187 0.74301 0.36914 0.0
C1546 C 0.44804 0.75061 0.30264 0.0
C1547 C 0.47032 0.75676 0.30589 0.0
C1548 C 0.48247 0.75668 0.34144 0.0
H1549 H 0.53926 0.80738 0.13713 0.0
H1550 H 0.5156 0.80032 0.19223 0.0
C1551 C 0.47341 0.74985 0.37268 0.0
C1552 C 0.48185 0.76244 0.27173 0.0
H1553 H 0.53554 0.75676 0.21579 0.0
C1554 C 0.46801 0.77435 0.25216 0.0
C1555 C 0.50637 0.75593 0.25812 0.0
C1556 C 0.52166 0.74268 0.27678 0.0
C1557 C 0.47819 0.78 0.21953 0.0
C1558 C 0.50294 0.77364 0.20642 0.0
C1559 C 0.51664 0.7617 0.22596 0.0
C1560 C 0.51482 0.77869 0.17164 0.0
C1561 C 0.46219 0.7925 0.19888 0.0
C1562 C 0.5222 0.76895 0.14173 0.0
C1563 C 0.53581 0.77292 0.11057 0.0
C1564 C 0.54246 0.78673 0.10851 0.0
C1565 C 0.53424 0.79671 0.13776 0.0
C1566 C 0.52067 0.79268 0.16921 0.0
H1567 H 0.44158 0.79389 0.20703 0.0
H1568 H 0.46925 0.80259 0.20622 0.0
H1569 H 0.46381 0.79099 0.16755 0.0
H1570 H 0.51785 0.75812 0.14285 0.0
H1571 H 0.54147 0.76507 0.08824 0.0
H1572 H 0.54371 0.26624 0.39877 0.0
H1573 H 0.52905 0.254 0.34376 0.0
H1574 H 0.58037 0.27262 0.27114 0.0
H1575 H 0.59515 0.28497 0.32629 0.0
H1576 H 0.50472 0.26914 0.2825 0.0
H1577 H 0.59036 0.2303 0.23458 0.0
H1578 H 0.58788 0.2382 0.28165 0.0
H1579 H 0.59569 0.24847 0.24155 0.0
C1580 C 0.55213 0.26759 0.37116 0.0
C1581 C 0.57042 0.27668 0.36681 0.0
C1582 C 0.5438 0.26054 0.33979 0.0
C1583 C 0.55367 0.26233 0.30336 0.0
C1584 C 0.57281 0.27087 0.29909 0.0
H1585 H 0.4772 0.25691 0.08919 0.0
H1586 H 0.50166 0.26321 0.14372 0.0
C1587 C 0.58122 0.27794 0.33061 0.0
C1588 C 0.54185 0.25654 0.26964 0.0
H1589 H 0.55425 0.23411 0.19264 0.0
C1590 C 0.51555 0.26141 0.26302 0.0
C1591 C 0.55594 0.24639 0.24436 0.0
C1592 C 0.58399 0.24041 0.25093 0.0
C1593 C 0.50307 0.25664 0.23148 0.0
C1594 C 0.51729 0.24684 0.20557 0.0
C1595 C 0.54347 0.24169 0.21249 0.0
C1596 C 0.50512 0.24229 0.17064 0.0
C1597 C 0.47471 0.26216 0.22598 0.0
C1598 C 0.49963 0.22827 0.16715 0.0
C1599 C 0.48542 0.22464 0.13597 0.0
C1600 C 0.4765 0.23499 0.10788 0.0
C1601 C 0.48321 0.24878 0.11072 0.0
C1602 C 0.49735 0.25239 0.14174 0.0
H1603 H 0.4655 0.26719 0.25232 0.0
H1604 H 0.47205 0.27043 0.20311 0.0
H1605 H 0.46466 0.25327 0.21714 0.0
H1606 H 0.50549 0.22034 0.18923 0.0
H1607 H 0.48052 0.21395 0.13471 0.0
H1608 H 0.82193 1.00101 0.60235 0.0
H1609 H 0.79971 0.01708 0.55308 0.0
H1610 H 0.73445 0.99539 0.56061 0.0
H1611 H 0.75642 0.9794 0.60978 0.0
H1612 H 0.77966 0.01154 0.48266 0.0
H1613 H 0.70175 0.03746 0.57877 0.0
H1614 H 0.73084 0.02638 0.5962 0.0
H1615 H 0.70528 0.01814 0.57725 0.0
C1616 C 0.80303 0.99953 0.593 0.0
C1617 C 0.79081 0.98904 0.61012 0.0
C1618 C 0.79027 1.00878 0.56514 0.0
C1619 C 0.76512 1.0077 0.55403 0.0
C1620 C 0.75349 0.99672 0.56963 0.0
H1621 H 0.66196 0.04358 0.37603 0.0
H1622 H 0.67941 0.03271 0.43623 0.0
C1623 C 0.76615 0.98753 0.59748 0.0
C1624 C 0.75105 0.01792 0.52585 0.0
H1625 H 0.69581 0.04249 0.51238 0.0
C1626 C 0.76147 0.01841 0.48926 0.0
C1627 C 0.72727 0.02688 0.53456 0.0
C1628 C 0.71571 0.02733 0.57393 0.0
C1629 C 0.74843 0.02729 0.46079 0.0
C1630 C 0.72452 0.03611 0.46935 0.0
C1631 C 0.71416 0.03575 0.50601 0.0
C1632 C 0.70985 0.04533 0.43975 0.0
C1633 C 0.76 0.02685 0.42139 0.0
C1634 C 0.72009 0.05669 0.42341 0.0
C1635 C 0.71005 0.06293 0.3893 0.0
C1636 C 0.68941 0.05804 0.37144 0.0
C1637 C 0.67742 0.04779 0.38991 0.0
C1638 C 0.68757 0.04147 0.42401 0.0
H1639 H 0.77571 0.01742 0.41753 0.0
H1640 H 0.74511 0.02641 0.39931 0.0
H1641 H 0.76813 0.03681 0.41664 0.0
H1642 H 0.73715 0.05989 0.43533 0.0
H1643 H 0.71996 0.07058 0.37505 0.0
H1644 H 0.19156 0.02046 0.603 0.0
H1645 H 0.21318 1.00468 0.55274 0.0
H1646 H 0.27999 0.02495 0.56321 0.0
H1647 H 0.25857 0.0407 0.61326 0.0
H1648 H 0.23393 0.01114 0.483 0.0
H1649 H 0.31016 0.98213 0.57742 0.0
H1650 H 0.28147 0.99336 0.59562 0.0
H1651 H 0.30762 1.00141 0.57803 0.0
C1652 C 0.21069 0.02169 0.59415 0.0
C1653 C 0.22346 0.03173 0.6123 0.0
C1654 C 0.2231 0.0126 0.5657 0.0
C1655 C 0.24846 0.01337 0.55503 0.0
C1656 C 0.26074 0.02386 0.57183 0.0
H1657 H 0.3498 0.97543 0.37499 0.0
H1658 H 0.33348 0.98676 0.43534 0.0
C1659 C 0.24841 0.03291 0.60024 0.0
C1660 C 0.262 1.00338 0.52594 0.0
H1661 H 0.3154 0.97761 0.51085 0.0
C1662 C 0.25162 1.00373 0.48916 0.0
C1663 C 0.28517 0.99376 0.53406 0.0
C1664 C 0.29669 0.99251 0.57351 0.0
C1665 C 0.26401 0.99495 0.46002 0.0
C1666 C 0.28719 0.98534 0.46809 0.0
C1667 C 0.29761 0.98495 0.50486 0.0
C1668 C 0.30074 0.97584 0.43809 0.0
C1669 C 0.25249 0.99626 0.42054 0.0
C1670 C 0.28869 0.96527 0.42122 0.0
C1671 C 0.29798 0.95883 0.387 0.0
C1672 C 0.31974 0.96264 0.36959 0.0
C1673 C 0.33339 0.97205 0.3885 0.0
C1674 C 0.32392 0.97863 0.42269 0.0
H1675 H 0.23805 1.0063 0.41717 0.0
H1676 H 0.26766 0.99616 0.3986 0.0
H1677 H 0.24274 0.98692 0.41511 0.0
H1678 H 0.27092 0.96288 0.43288 0.0
H1679 H 0.28685 0.95187 0.37242 0.0
H1680 H 0.34589 0.22046 0.98636 0.0
H1681 H 0.30278 0.23517 0.98593 0.0
H1682 H 0.31461 0.24966 0.10012 0.0
H1683 H 0.35714 0.23448 0.10131 0.0
H1684 H 0.26914 0.24395 0.09567 0.0
H1685 H 0.28187 0.27735 0.97009 0.0
H1686 H 0.28767 0.25853 0.9582 0.0
H1687 H 0.30839 0.26539 0.99175 0.0
C1688 C 0.33926 0.22677 0.01138 0.0
C1689 C 0.35496 0.22629 0.04388 0.0
C1690 C 0.31469 0.23533 0.01096 0.0
C1691 C 0.30554 0.24389 0.04263 0.0
C1692 C 0.32117 0.24327 0.0752 0.0
H1693 H 0.1622 0.30836 0.02595 0.0
H1694 H 0.20777 0.29741 0.03325 0.0
C1695 C 0.34551 0.23453 0.07589 0.0
C1696 C 0.27932 0.25298 0.04259 0.0
H1697 H 0.23832 0.27787 0.99067 0.0
C1698 C 0.26258 0.25147 0.07285 0.0
C1699 C 0.27072 0.26312 0.01341 0.0
C1700 C 0.28822 0.26632 0.98179 0.0
C1701 C 0.23739 0.25933 0.07404 0.0
C1702 C 0.22817 0.26862 0.04342 0.0
C1703 C 0.24517 0.2706 0.01391 0.0
C1704 C 0.2006 0.27559 0.04036 0.0
C1705 C 0.221 0.25761 0.10838 0.0
C1706 C 0.18141 0.26703 0.04157 0.0
C1707 C 0.15554 0.27324 0.03791 0.0
C1708 C 0.14804 0.28821 0.03211 0.0
C1709 C 0.16725 0.29683 0.03058 0.0
C1710 C 0.19331 0.29057 0.03464 0.0
H1711 H 0.23305 0.25473 0.13412 0.0
H1712 H 0.20708 0.26765 0.11441 0.0
H1713 H 0.21016 0.24872 0.1031 0.0
H1714 H 0.18644 0.25543 0.0447 0.0
H1715 H 0.14144 0.26617 0.03883 0.0
H1716 H 0.86426 0.7346 0.09837 0.0
H1717 H 0.82166 0.74951 0.0932 0.0
H1718 H 0.80731 0.72667 0.991 0.0
H1719 H 0.85064 0.71233 0.99488 0.0
H1720 H 0.79294 0.75326 0.97902 0.0
H1721 H 0.75225 0.743 0.11895 0.0
H1722 H 0.78149 0.7499 0.12499 0.0
H1723 H 0.78213 0.73266 0.10208 0.0
C1724 C 0.85187 0.73261 0.07512 0.0
C1725 C 0.86074 0.72223 0.04715 0.0
C1726 C 0.82735 0.74109 0.07234 0.0
C1727 C 0.81081 0.73907 0.04218 0.0
C1728 C 0.81954 0.72846 0.01466 0.0
H1729 H 0.6497 0.78275 0.03302 0.0
H1730 H 0.68948 0.76555 0.04467 0.0
C1731 C 0.8443 0.72022 0.01692 0.0
C1732 C 0.78532 0.74874 0.03768 0.0
H1733 H 0.73093 0.7641 0.08554 0.0
C1734 C 0.77931 0.75546 1.00229 0.0
C1735 C 0.76712 0.75153 0.06766 0.0
C1736 C 0.77097 0.74375 0.10537 0.0
C1737 C 0.75611 0.76506 0.99625 0.0
C1738 C 0.73877 0.76865 0.02701 0.0
C1739 C 0.74439 0.76164 0.06213 0.0
C1740 C 0.71468 0.77953 0.02303 0.0
C1741 C 0.75029 0.77094 0.95658 0.0
C1742 C 0.71549 0.79336 0.00851 0.0
C1743 C 0.69278 0.80306 1.0011 0.0
C1744 C 0.66874 0.79934 0.00924 0.0
C1745 C 0.66792 0.78593 0.02641 0.0
C1746 C 0.69069 0.77607 0.03301 0.0
H1747 H 0.76061 0.76358 0.93467 0.0
H1748 H 0.72939 0.77256 0.9503 0.0
H1749 H 0.75687 0.78146 0.95389 0.0
H1750 H 0.73371 0.79657 1.00202 0.0
H1751 H 0.69403 0.8134 0.98835 0.0
H1752 H 0.11661 0.50801 0.23304 0.0
H1753 H 0.07438 0.50097 0.23419 0.0
H1754 H 0.04316 0.54061 0.29202 0.0
H1755 H 0.08564 0.54776 0.29104 0.0
H1756 H 0.04523 0.49639 0.2963 0.0
H1757 H 0.99199 0.53995 0.20548 0.0
H1758 H 0.02664 0.53631 0.20827 0.0
H1759 H 1.00802 0.54625 0.24556 0.0
C1760 C 0.10086 0.51525 0.24615 0.0
C1761 C 0.10467 0.52845 0.26217 0.0
C1762 C 0.07663 0.51122 0.24662 0.0
C1763 C 0.05547 0.52028 0.26289 0.0
C1764 C 0.05906 0.53354 0.27863 0.0
H1765 H 0.89584 0.51171 0.29718 0.0
H1766 H 0.93771 0.51926 0.29695 0.0
C1767 C 0.08338 0.53762 0.27809 0.0
C1768 C 0.03 0.51552 0.26432 0.0
H1769 H 0.96742 0.52432 0.23532 0.0
C1770 C 0.02823 0.50249 0.28287 0.0
C1771 C 1.00779 0.52345 0.24682 0.0
C1772 C 0.00863 0.5372 0.2251 0.0
C1773 C 1.00488 0.49728 0.28483 0.0
C1774 C 0.98269 0.50518 0.2672 0.0
C1775 C 0.98442 0.51825 0.2488 0.0
C1776 C 0.95739 0.50021 0.26792 0.0
C1777 C 1.00406 0.48352 0.3065 0.0
C1778 C 0.95436 0.48696 0.2516 0.0
C1779 C 0.93029 0.48259 0.25158 0.0
C1780 C 0.90865 0.49146 0.26757 0.0
C1781 C 0.91188 0.50468 0.28408 0.0
C1782 C 0.9359 0.50901 0.28413 0.0
H1783 H 0.02055 0.48086 0.32643 0.0
H1784 H 0.98592 0.48432 0.32298 0.0
H1785 H 1.005 0.47445 0.28602 0.0
H1786 H 0.97053 0.48009 0.23823 0.0
H1787 H 0.92851 0.47246 0.23816 0.0
H1788 H 0.36425 0.73197 0.5503 0.0
H1789 H 0.32446 0.74851 0.56667 0.0
H1790 H 0.2831 0.72789 0.48335 0.0
H1791 H 0.32259 0.71139 0.46677 0.0
H1792 H 0.29391 0.76783 0.51396 0.0
H1793 H 0.23791 0.72969 0.58025 0.0
H1794 H 0.27243 0.72559 0.57482 0.0
H1795 H 0.25184 0.72388 0.53495 0.0
C1796 C 0.34662 0.73081 0.53586 0.0
C1797 C 0.34665 0.72036 0.50714 0.0
C1798 C 0.32391 0.74031 0.54517 0.0
C1799 C 0.30077 0.73937 0.52642 0.0
C1800 C 0.30064 0.72869 0.49856 0.0
H1801 H 0.1618 0.80044 0.48563 0.0
H1802 H 0.20408 0.78493 0.48314 0.0
C1803 C 0.3233 0.7193 0.48902 0.0
C1804 C 0.27702 0.75002 0.5342 0.0
H1805 H 0.21449 0.7528 0.56261 0.0
C1806 C 0.27661 0.76458 0.52497 0.0
C1807 C 0.25452 0.74579 0.54882 0.0
C1808 C 0.25414 0.73041 0.56064 0.0
C1809 C 0.25404 0.77493 0.52873 0.0
C1810 C 0.23125 0.77058 0.5418 0.0
C1811 C 0.23192 0.75611 0.55232 0.0
C1812 C 0.20631 0.78075 0.54376 0.0
C1813 C 0.25476 0.79044 0.51861 0.0
C1814 C 0.19338 0.78352 0.57864 0.0
C1815 C 0.16915 0.79238 0.58017 0.0
C1816 C 0.15719 0.79852 0.54674 0.0
C1817 C 0.17039 0.79589 0.51192 0.0
C1818 C 0.19467 0.78709 0.51046 0.0
H1819 H 0.27471 0.7927 0.51888 0.0
H1820 H 0.24687 0.79268 0.48951 0.0
H1821 H 0.24287 0.79795 0.53866 0.0
H1822 H 0.20195 0.77869 0.60466 0.0
H1823 H 0.15952 0.79411 0.60743 0.0
H1824 H 0.87369 0.25402 0.54024 0.0
H1825 H 0.82869 0.26472 0.54641 0.0
H1826 H 0.80734 0.22283 0.53263 0.0
H1827 H 0.85292 0.21193 0.5251 0.0
H1828 H 0.777 0.24273 0.49053 0.0
H1829 H 0.78176 0.26478 0.63536 0.0
H1830 H 0.80481 0.27097 0.60501 0.0
H1831 H 0.80776 0.25197 0.6153 0.0
C1832 C 0.85959 0.24695 0.53887 0.0
C1833 C 0.86709 0.23204 0.53231 0.0
C1834 C 0.83372 0.25314 0.5427 0.0
C1835 C 0.81452 0.2446 0.54089 0.0
C1836 C 0.82181 0.22966 0.53447 0.0
H1837 H 0.65771 0.28547 0.60148 0.0
H1838 H 0.70019 0.27021 0.60025 0.0
C1839 C 0.84787 0.22342 0.53028 0.0
C1840 C 0.78695 0.25155 0.54396 0.0
H1841 H 0.74582 0.27587 0.59701 0.0
C1842 C 0.77007 0.24982 0.51409 0.0
C1843 C 0.77763 0.26062 0.57498 0.0
C1844 C 0.7939 0.26206 0.60964 0.0
C1845 C 0.74455 0.25734 0.51361 0.0
C1846 C 0.73586 0.26726 0.54324 0.0
C1847 C 0.75246 0.26851 0.57386 0.0
C1848 C 0.7097 0.27642 0.54332 0.0
C1849 C 0.72717 0.25441 0.48152 0.0
C1850 C 0.70081 0.28523 0.512 0.0
C1851 C 0.67629 0.29384 0.51244 0.0
C1852 C 0.66036 0.2941 0.54462 0.0
C1853 C 0.66953 0.28559 0.57631 0.0
C1854 C 0.69384 0.27681 0.5756 0.0
H1855 H 0.73352 0.24347 0.46929 0.0
H1856 H 0.70695 0.25531 0.49119 0.0
H1857 H 0.72789 0.26237 0.45839 0.0
H1858 H 0.7129 0.28556 0.48724 0.0
H1859 H 0.66988 0.30036 0.48769 0.0
H1860 H 0.11726 1.009 0.79589 0.0
H1861 H 0.07532 1.00162 0.79388 0.0
H1862 H 0.04304 0.04182 0.73955 0.0
H1863 H 0.08534 0.04911 0.7402 0.0
H1864 H 0.0292 0.01378 0.82527 0.0
H1865 H 0.02085 0.01233 0.66777 0.0
H1866 H 0.05063 0.01364 0.69155 0.0
H1867 H 0.02602 0.02936 0.68644 0.0
C1868 C 0.10139 0.01625 0.78308 0.0
C1869 C 0.10491 0.0296 0.76771 0.0
C1870 C 0.07729 0.01204 0.78223 0.0
C1871 C 0.05606 0.02102 0.76592 0.0
C1872 C 0.05924 0.03455 0.75152 0.0
H1873 H 0.89604 0.01359 0.73464 0.0
H1874 H 0.93794 0.02107 0.73662 0.0
C1875 C 0.08342 0.03879 0.75233 0.0
C1876 C 0.03068 0.01617 0.76437 0.0
H1877 H 0.98439 1.00864 0.70321 0.0
C1878 C 0.01945 0.01261 0.79856 0.0
C1879 C 0.01795 0.01459 0.72951 0.0
C1880 C 0.02954 0.01754 0.69168 0.0
C1881 C 0.9957 1.00779 0.79893 0.0
C1882 C 0.98296 1.00624 0.7641 0.0
C1883 C 0.99417 1.0098 0.7299 0.0
C1884 C 0.95763 1.00136 0.76258 0.0
C1885 C 0.98414 1.00473 0.83671 0.0
C1886 C 0.95473 0.98764 0.7759 0.0
C1887 C 0.93063 0.98332 0.77499 0.0
C1888 C 0.90892 0.99264 0.76071 0.0
C1889 C 0.91212 1.00622 0.74657 0.0
C1890 C 0.93616 0.0105 0.74741 0.0
H1891 H 0.99309 1.0097 0.86079 0.0
H1892 H 0.9631 1.00881 0.83703 0.0
H1893 H 0.98731 0.99288 0.84143 0.0
H1894 H 0.97112 0.98027 0.78707 0.0
H1895 H 0.92892 0.97281 0.78616 0.0
H1896 H 0.40001 0.51094 0.74442 0.0
H1897 H 0.44151 0.51893 0.74397 0.0
H1898 H 0.47782 0.47761 0.78838 0.0
H1899 H 0.43618 0.4695 0.7887 0.0
H1900 H 0.47299 0.52185 0.80363 0.0
H1901 H 0.52439 0.48268 0.69955 0.0
H1902 H 0.49 0.48526 0.70602 0.0
H1903 H 0.51109 0.4744 0.73911 0.0
C1904 C 0.41678 0.50353 0.75415 0.0
C1905 C 0.4147 0.48957 0.76673 0.0
C1906 C 0.44056 0.50811 0.75373 0.0
C1907 C 0.4629 0.49885 0.76575 0.0
C1908 C 0.46098 0.48486 0.77816 0.0
H1909 H 0.62164 0.50944 0.79546 0.0
H1910 H 0.58042 0.50113 0.79533 0.0
C1911 C 0.43715 0.48023 0.7784 0.0
C1912 C 0.48789 0.50411 0.76651 0.0
H1913 H 0.5494 0.49745 0.73221 0.0
C1914 C 0.48966 0.51654 0.78787 0.0
C1915 C 0.50967 0.4972 0.74596 0.0
C1916 C 0.50872 0.48423 0.72107 0.0
C1917 C 0.51264 0.52212 0.78969 0.0
C1918 C 0.53441 0.51519 0.7692 0.0
C1919 C 0.53269 0.50275 0.74792 0.0
C1920 C 0.55927 0.52056 0.76982 0.0
C1921 C 0.5136 0.53519 0.81419 0.0
C1922 C 0.56117 0.53427 0.75542 0.0
C1923 C 0.58485 0.53906 0.75525 0.0
C1924 C 0.60716 0.53019 0.76926 0.0
C1925 C 0.60504 0.5165 0.78389 0.0
C1926 C 0.58142 0.51174 0.78401 0.0
H1927 H 0.49754 0.53708 0.83504 0.0
H1928 H 0.53208 0.53401 0.82995 0.0
H1929 H 0.51205 0.54488 0.79574 0.0
H1930 H 0.54442 0.54118 0.74368 0.0
H1931 H 0.58576 0.54956 0.74327 0.0
H1932 H 0.43004 0.97062 0.2393 0.0
H1933 H 0.47149 0.97894 0.24001 0.0
H1934 H 0.43563 0.01877 0.29294 0.0
H1935 H 0.39453 0.0104 0.29348 0.0
H1936 H 0.48411 1.0033 0.2049 0.0
H1937 H 0.49772 1.0063 0.3611 0.0
H1938 H 0.47437 0.99678 0.34 0.0
H1939 H 0.4674 0.01611 0.34492 0.0
C1940 C 0.43104 0.98104 0.25167 0.0
C1941 C 0.40883 0.98982 0.26632 0.0
C1942 C 0.45474 0.98583 0.25182 0.0
C1943 C 0.45678 0.99942 0.26696 0.0
C1944 C 0.43469 1.00815 0.28173 0.0
H1945 H 0.57999 0.05012 0.28561 0.0
H1946 H 0.5384 0.0419 0.28526 0.0
C1947 C 0.41106 1.00339 0.28157 0.0
C1948 C 0.48171 1.00476 0.26603 0.0
H1949 H 0.52583 0.01728 0.32238 0.0
C1950 C 0.49331 1.00626 0.23061 0.0
C1951 C 0.49368 1.00872 0.29956 0.0
C1952 C 0.48281 1.00678 0.33858 0.0
C1953 C 0.51627 0.01183 0.22776 0.0
C1954 C 0.52821 0.01581 0.26128 0.0
C1955 C 0.51661 0.01432 0.29669 0.0
C1956 C 0.55319 0.02106 0.26031 0.0
C1957 C 0.52728 0.01369 0.18879 0.0
C1958 C 0.57534 0.01208 0.24656 0.0
C1959 C 0.59904 0.01676 0.24665 0.0
C1960 C 0.60125 0.03052 0.26069 0.0
C1961 C 0.57897 0.03955 0.27425 0.0
C1962 C 0.55521 0.03482 0.27428 0.0
H1963 H 0.51255 0.01394 0.16609 0.0
H1964 H 0.53544 0.02378 0.18722 0.0
H1965 H 0.54297 1.00445 0.1829 0.0
H1966 H 0.57438 1.00135 0.23619 0.0
H1967 H 0.61565 1.00957 0.23558 0.0
loop_
_geom_bond_atom_site_label_1
_geom_bond_atom_site_label_2
_geom_bond_distance
_geom_bond_site_symmetry_2
_ccdc_geom_bond_type
C0 C1 1.351 . S
C0 N3 1.368 . S
C0 H5 0.931 . S
C1 C0 1.351 . S
C1 N2 1.373 . S
C1 H29 0.930 . S
N2 C1 1.373 . S
N2 C4 1.340 . S
N3 C0 1.368 . S
N3 C4 1.321 . S
N3 Co6 2.135 1_556 S
C4 N2 1.340 . S
C4 N3 1.321 . S
C4 H28 0.930 . S
H5 C0 0.931 . S
Co6 N3 2.135 1_554 S
Co6 N9 2.121 . S
Co6 O14 2.055 . S
Co6 O17 2.039 . S
Co6 N20 2.140 1_554 S
C7 O8 1.227 1_554 S
C7 O17 1.265 . S
O8 C7 1.227 1_556 S
N9 Co6 2.121 . S
N9 C11 1.375 . S
N9 C12 1.313 . S
C10 C11 1.338 . S
C10 N13 1.377 . S
C10 H30 0.930 . S
C11 N9 1.375 . S
C11 C10 1.338 . S
C11 H15 0.931 . S
C12 N9 1.313 . S
C12 N13 1.344 . S
C12 H16 0.930 . S
N13 C10 1.377 . S
N13 C12 1.344 . S
O14 Co6 2.055 . S
O14 C18 1.253 . S
H15 C11 0.931 . S
H16 C12 0.930 . S
O17 Co6 2.039 . S
O17 C7 1.265 . S
C18 O14 1.253 . S
C18 O19 1.227 . S
O19 C18 1.227 . S
N20 Co6 2.140 1_556 S
N20 C23 1.346 . S
N20 C24 1.345 . S
C21 C22 1.387 . S
C21 C25 1.391 . S
C22 C21 1.387 . S
C22 C23 1.369 . S
C22 H31 0.929 . S
C23 N20 1.346 . S
C23 C22 1.369 . S
C23 H26 0.928 . S
C24 N20 1.345 . S
C24 C25 1.371 . S
C24 H27 0.931 1_556 S
C25 C21 1.391 . S
C25 C24 1.371 . S
C25 H32 0.930 . S
H26 C23 0.928 . S
H27 C24 0.931 1_554 S
H28 C4 0.930 . S
H29 C1 0.930 . S
H30 C10 0.930 . S
H31 C22 0.929 . S
H32 C25 0.930 . S
C33 C34 1.351 . S
C33 N36 1.368 . S
C33 H38 0.931 . S
C34 C33 1.351 . S
C34 N35 1.373 . S
C34 H62 0.930 . S
N35 C34 1.373 . S
N35 C37 1.340 . S
N36 C33 1.368 . S
N36 C37 1.321 . S
N36 Co39 2.135 1_556 S
C37 N35 1.340 . S
C37 N36 1.321 . S
C37 H61 0.930 . S
H38 C33 0.931 . S
Co39 N36 2.135 1_554 S
Co39 N42 2.121 . S
Co39 O47 2.055 . S
Co39 O50 2.039 . S
Co39 N53 2.140 1_554 S
C40 O41 1.227 1_554 S
C40 O50 1.265 . S
O41 C40 1.227 1_556 S
N42 Co39 2.121 . S
N42 C44 1.375 . S
N42 C45 1.313 . S
C43 C44 1.338 . S
C43 N46 1.377 . S
C43 H63 0.930 . S
C44 N42 1.375 . S
C44 C43 1.338 . S
C44 H48 0.931 . S
C45 N42 1.313 . S
C45 N46 1.344 . S
C45 H49 0.930 . S
N46 C43 1.377 . S
N46 C45 1.344 . S
O47 Co39 2.055 . S
O47 C51 1.253 . S
H48 C44 0.931 . S
H49 C45 0.930 . S
O50 Co39 2.039 . S
O50 C40 1.265 . S
C51 O47 1.253 . S
C51 O52 1.227 . S
O52 C51 1.227 . S
N53 Co39 2.140 1_556 S
N53 C56 1.346 . S
N53 C57 1.345 . S
C54 C55 1.387 . S
C54 C58 1.391 . S
C55 C54 1.387 . S
C55 C56 1.369 . S
C55 H64 0.929 . S
C56 N53 1.346 . S
C56 C55 1.369 . S
C56 H59 0.928 . S
C57 N53 1.345 . S
C57 C58 1.371 . S
C57 H60 0.931 1_556 S
C58 C54 1.391 . S
C58 C57 1.371 . S
C58 H65 0.930 . S
H59 C56 0.928 . S
H60 C57 0.931 1_554 S
H61 C37 0.930 . S
H62 C34 0.930 . S
H63 C43 0.930 . S
H64 C55 0.929 . S
H65 C58 0.930 . S
C66 C67 1.351 . S
C66 N69 1.368 . S
C66 H71 0.931 . S
C67 C66 1.351 . S
C67 N68 1.373 . S
C67 H95 0.930 . S
N68 C67 1.373 . S
N68 C70 1.340 . S
N69 C66 1.368 . S
N69 C70 1.321 . S
N69 Co72 2.135 . S
C70 N68 1.340 . S
C70 N69 1.321 . S
C70 H94 0.930 . S
H71 C66 0.931 . S
Co72 N69 2.135 . S
Co72 N75 2.121 . S
Co72 O80 2.055 . S
Co72 O83 2.039 . S
Co72 N86 2.140 . S
C73 O74 1.227 . S
C73 O83 1.265 . S
O74 C73 1.227 . S
N75 Co72 2.121 . S
N75 C77 1.375 . S
N75 C78 1.313 . S
C76 C77 1.338 . S
C76 N79 1.377 . S
C76 H96 0.930 . S
C77 N75 1.375 . S
C77 C76 1.338 . S
C77 H81 0.931 . S
C78 N75 1.313 . S
C78 N79 1.344 . S
C78 H82 0.930 . S
N79 C76 1.377 . S
N79 C78 1.344 . S
O80 Co72 2.055 . S
O80 C84 1.253 . S
H81 C77 0.931 . S
H82 C78 0.930 . S
O83 Co72 2.039 . S
O83 C73 1.265 . S
C84 O80 1.253 . S
C84 O85 1.227 . S
O85 C84 1.227 . S
N86 Co72 2.140 . S
N86 C89 1.346 . S
N86 C90 1.345 . S
C87 C88 1.387 . S
C87 C91 1.391 . S
C88 C87 1.387 . S
C88 C89 1.369 . S
C88 H97 0.929 . S
C89 N86 1.346 . S
C89 C88 1.369 . S
C89 H92 0.928 . S
C90 N86 1.345 . S
C90 C91 1.371 . S
C90 H93 0.931 . S
C91 C87 1.391 . S
C91 C90 1.371 . S
C91 H98 0.930 . S
H92 C89 0.928 . S
H93 C90 0.931 . S
H94 C70 0.930 . S
H95 C67 0.930 . S
H96 C76 0.930 . S
H97 C88 0.929 . S
H98 C91 0.930 . S
C99 C100 1.351 . S
C99 N102 1.368 . S
C99 H104 0.931 . S
C100 C99 1.351 . S
C100 N101 1.373 . S
C100 H128 0.930 . S
N101 C100 1.373 . S
N101 C103 1.340 . S
N102 C99 1.368 . S
N102 C103 1.321 . S
N102 Co105 2.135 . S
C103 N101 1.340 . S
C103 N102 1.321 . S
C103 H127 0.930 . S
H104 C99 0.931 . S
Co105 N102 2.135 . S
Co105 N108 2.121 . S
Co105 O113 2.055 . S
Co105 O116 2.039 . S
Co105 N119 2.140 . S
C106 O107 1.227 . S
C106 O116 1.265 . S
O107 C106 1.227 . S
N108 Co105 2.121 . S
N108 C110 1.375 . S
N108 C111 1.313 . S
C109 C110 1.338 . S
C109 N112 1.377 . S
C109 H129 0.930 . S
C110 N108 1.375 . S
C110 C109 1.338 . S
C110 H114 0.931 . S
C111 N108 1.313 . S
C111 N112 1.344 . S
C111 H115 0.930 . S
N112 C109 1.377 . S
N112 C111 1.344 . S
O113 Co105 2.055 . S
O113 C117 1.253 . S
H114 C110 0.931 . S
H115 C111 0.930 . S
O116 Co105 2.039 . S
O116 C106 1.265 . S
C117 O113 1.253 . S
C117 O118 1.227 . S
O118 C117 1.227 . S
N119 Co105 2.140 . S
N119 C122 1.346 . S
N119 C123 1.345 . S
C120 C121 1.387 . S
C120 C124 1.391 . S
C121 C120 1.387 . S
C121 C122 1.369 . S
C121 H130 0.929 . S
C122 N119 1.346 . S
C122 C121 1.369 . S
C122 H125 0.928 . S
C123 N119 1.345 . S
C123 C124 1.371 . S
C123 H126 0.931 . S
C124 C120 1.391 . S
C124 C123 1.371 . S
C124 H131 0.930 . S
H125 C122 0.928 . S
H126 C123 0.931 . S
H127 C103 0.930 . S
H128 C100 0.930 . S
H129 C109 0.930 . S
H130 C121 0.929 . S
H131 C124 0.930 . S
C132 C133 1.351 . S
C132 N135 1.368 . S
C132 H137 0.931 . S
C133 C132 1.351 . S
C133 N134 1.373 . S
C133 H161 0.930 . S
N134 C133 1.373 . S
N134 C136 1.340 . S
N135 C132 1.368 . S
N135 C136 1.321 . S
N135 Co138 2.135 . S
C136 N134 1.340 . S
C136 N135 1.321 . S
C136 H160 0.930 . S
H137 C132 0.931 . S
Co138 N135 2.135 . S
Co138 N141 2.121 . S
Co138 O146 2.055 . S
Co138 O149 2.039 . S
Co138 N152 2.140 . S
C139 O140 1.227 . S
C139 O149 1.265 . S
O140 C139 1.227 . S
N141 Co138 2.121 . S
N141 C143 1.375 . S
N141 C144 1.313 . S
C142 C143 1.338 . S
C142 N145 1.377 . S
C142 H162 0.930 . S
C143 N141 1.375 . S
C143 C142 1.338 . S
C143 H147 0.931 . S
C144 N141 1.313 . S
C144 N145 1.344 . S
C144 H148 0.930 . S
N145 C142 1.377 . S
N145 C144 1.344 . S
O146 Co138 2.055 . S
O146 C150 1.253 . S
H147 C143 0.931 . S
H148 C144 0.930 . S
O149 Co138 2.039 . S
O149 C139 1.265 . S
C150 O146 1.253 . S
C150 O151 1.227 . S
O151 C150 1.227 . S
N152 Co138 2.140 . S
N152 C155 1.346 . S
N152 C156 1.345 . S
C153 C154 1.387 . S
C153 C157 1.391 . S
C154 C153 1.387 . S
C154 C155 1.369 . S
C154 H163 0.929 . S
C155 N152 1.346 . S
C155 C154 1.369 . S
C155 H158 0.928 . S
C156 N152 1.345 . S
C156 C157 1.371 . S
C156 H159 0.931 . S
C157 C153 1.391 . S
C157 C156 1.371 . S
C157 H164 0.930 . S
H158 C155 0.928 . S
H159 C156 0.931 . S
H160 C136 0.930 . S
H161 C133 0.930 . S
H162 C142 0.930 . S
H163 C154 0.929 . S
H164 C157 0.930 . S
C165 C166 1.351 . S
C165 N168 1.368 . S
C165 H170 0.931 . S
C166 C165 1.351 . S
C166 N167 1.373 . S
C166 H194 0.930 . S
N167 C166 1.373 . S
N167 C169 1.340 . S
N168 C165 1.368 . S
N168 C169 1.321 . S
N168 Co171 2.135 . S
C169 N167 1.340 . S
C169 N168 1.321 . S
C169 H193 0.930 . S
H170 C165 0.931 . S
Co171 N168 2.135 . S
Co171 N174 2.121 . S
Co171 O179 2.055 . S
Co171 O182 2.039 . S
Co171 N185 2.140 . S
C172 O173 1.227 . S
C172 O182 1.265 . S
O173 C172 1.227 . S
N174 Co171 2.121 . S
N174 C176 1.375 . S
N174 C177 1.313 . S
C175 C176 1.338 . S
C175 N178 1.377 . S
C175 H195 0.930 . S
C176 N174 1.375 . S
C176 C175 1.338 . S
C176 H180 0.931 . S
C177 N174 1.313 . S
C177 N178 1.344 . S
C177 H181 0.930 . S
N178 C175 1.377 . S
N178 C177 1.344 . S
O179 Co171 2.055 . S
O179 C183 1.253 . S
H180 C176 0.931 . S
H181 C177 0.930 . S
O182 Co171 2.039 . S
O182 C172 1.265 . S
C183 O179 1.253 . S
C183 O184 1.227 . S
O184 C183 1.227 . S
N185 Co171 2.140 . S
N185 C188 1.346 . S
N185 C189 1.345 . S
C186 C187 1.387 . S
C186 C190 1.391 . S
C187 C186 1.387 . S
C187 C188 1.369 . S
C187 H196 0.929 . S
C188 N185 1.346 . S
C188 C187 1.369 . S
C188 H191 0.928 . S
C189 N185 1.345 . S
C189 C190 1.371 . S
C189 H192 0.931 . S
C190 C186 1.391 . S
C190 C189 1.371 . S
C190 H197 0.930 . S
H191 C188 0.928 . S
H192 C189 0.931 . S
H193 C169 0.930 . S
H194 C166 0.930 . S
H195 C175 0.930 . S
H196 C187 0.929 . S
H197 C190 0.930 . S
C198 C199 1.351 . S
C198 N201 1.368 . S
C198 H203 0.931 . S
C199 C198 1.351 . S
C199 N200 1.373 . S
C199 H227 0.930 . S
N200 C199 1.373 . S
N200 C202 1.340 . S
N201 C198 1.368 . S
N201 C202 1.321 . S
N201 Co204 2.135 . S
C202 N200 1.340 . S
C202 N201 1.321 . S
C202 H226 0.930 . S
H203 C198 0.931 . S
Co204 N201 2.135 . S
Co204 N207 2.121 . S
Co204 O212 2.055 . S
Co204 O215 2.039 . S
Co204 N218 2.140 . S
C205 O206 1.227 . S
C205 O215 1.265 . S
O206 C205 1.227 . S
N207 Co204 2.121 . S
N207 C209 1.375 . S
N207 C210 1.313 . S
C208 C209 1.338 . S
C208 N211 1.377 . S
C208 H228 0.930 . S
C209 N207 1.375 . S
C209 C208 1.338 . S
C209 H213 0.931 . S
C210 N207 1.313 . S
C210 N211 1.344 . S
C210 H214 0.930 . S
N211 C208 1.377 . S
N211 C210 1.344 . S
O212 Co204 2.055 . S
O212 C216 1.253 . S
H213 C209 0.931 . S
H214 C210 0.930 . S
O215 Co204 2.039 . S
O215 C205 1.265 . S
C216 O212 1.253 . S
C216 O217 1.227 . S
O217 C216 1.227 . S
N218 Co204 2.140 . S
N218 C221 1.346 . S
N218 C222 1.345 . S
C219 C220 1.387 . S
C219 C223 1.391 . S
C220 C219 1.387 . S
C220 C221 1.369 . S
C220 H229 0.929 . S
C221 N218 1.346 . S
C221 C220 1.369 . S
C221 H224 0.928 . S
C222 N218 1.345 . S
C222 C223 1.371 . S
C222 H225 0.931 . S
C223 C219 1.391 . S
C223 C222 1.371 . S
C223 H230 0.930 . S
H224 C221 0.928 . S
H225 C222 0.931 . S
H226 C202 0.930 . S
H227 C199 0.930 . S
H228 C208 0.930 . S
H229 C220 0.929 . S
H230 C223 0.930 . S
C231 C232 1.351 . S
C231 N234 1.368 . S
C231 H236 0.931 . S
C232 C231 1.351 . S
C232 N233 1.373 . S
C232 H260 0.930 . S
N233 C232 1.373 . S
N233 C235 1.340 . S
N234 C231 1.368 . S
N234 C235 1.321 . S
N234 Co237 2.135 . S
C235 N233 1.340 . S
C235 N234 1.321 . S
C235 H259 0.930 . S
H236 C231 0.931 . S
Co237 N234 2.135 . S
Co237 N240 2.121 . S
Co237 O245 2.055 . S
Co237 O248 2.039 . S
Co237 N251 2.140 . S
C238 O239 1.227 . S
C238 O248 1.265 . S
O239 C238 1.227 . S
N240 Co237 2.121 . S
N240 C242 1.375 . S
N240 C243 1.313 . S
C241 C242 1.338 . S
C241 N244 1.377 . S
C241 H261 0.930 . S
C242 N240 1.375 . S
C242 C241 1.338 . S
C242 H246 0.931 . S
C243 N240 1.313 . S
C243 N244 1.344 . S
C243 H247 0.930 . S
N244 C241 1.377 . S
N244 C243 1.344 . S
O245 Co237 2.055 . S
O245 C249 1.253 . S
H246 C242 0.931 . S
H247 C243 0.930 . S
O248 Co237 2.039 . S
O248 C238 1.265 . S
C249 O245 1.253 . S
C249 O250 1.227 . S
O250 C249 1.227 . S
N251 Co237 2.140 . S
N251 C254 1.346 . S
N251 C255 1.345 . S
C252 C253 1.387 . S
C252 C256 1.391 . S
C253 C252 1.387 . S
C253 C254 1.369 . S
C253 H262 0.929 . S
C254 N251 1.346 . S
C254 C253 1.369 . S
C254 H257 0.928 . S
C255 N251 1.345 . S
C255 C256 1.371 . S
C255 H258 0.931 . S
C256 C252 1.391 . S
C256 C255 1.371 . S
C256 H263 0.930 . S
H257 C254 0.928 . S
H258 C255 0.931 . S
H259 C235 0.930 . S
H260 C232 0.930 . S
H261 C241 0.930 . S
H262 C253 0.929 . S
H263 C256 0.930 . S
C264 C265 1.351 . S
C264 N267 1.368 . S
C264 H269 0.931 . S
C265 C264 1.351 . S
C265 N266 1.373 . S
C265 H293 0.930 . S
N266 C265 1.373 . S
N266 C268 1.340 . S
N267 C264 1.368 . S
N267 C268 1.321 . S
N267 Co270 2.135 . S
C268 N266 1.340 . S
C268 N267 1.321 . S
C268 H292 0.930 . S
H269 C264 0.931 . S
Co270 N267 2.135 . S
Co270 N273 2.121 . S
Co270 O278 2.055 . S
Co270 O281 2.039 . S
Co270 N284 2.140 . S
C271 O272 1.227 . S
C271 O281 1.265 . S
O272 C271 1.227 . S
N273 Co270 2.121 . S
N273 C275 1.375 . S
N273 C276 1.313 . S
C274 C275 1.338 . S
C274 N277 1.377 . S
C274 H294 0.930 . S
C275 N273 1.375 . S
C275 C274 1.338 . S
C275 H279 0.931 . S
C276 N273 1.313 . S
C276 N277 1.344 . S
C276 H280 0.930 . S
N277 C274 1.377 . S
N277 C276 1.344 . S
O278 Co270 2.055 . S
O278 C282 1.253 . S
H279 C275 0.931 . S
H280 C276 0.930 . S
O281 Co270 2.039 . S
O281 C271 1.265 . S
C282 O278 1.253 . S
C282 O283 1.227 . S
O283 C282 1.227 . S
N284 Co270 2.140 . S
N284 C287 1.346 . S
N284 C288 1.345 . S
C285 C286 1.387 . S
C285 C289 1.391 . S
C286 C285 1.387 . S
C286 C287 1.369 . S
C286 H295 0.929 . S
C287 N284 1.346 . S
C287 C286 1.369 . S
C287 H290 0.928 . S
C288 N284 1.345 . S
C288 C289 1.371 . S
C288 H291 0.931 . S
C289 C285 1.391 . S
C289 C288 1.371 . S
C289 H296 0.930 . S
H290 C287 0.928 . S
H291 C288 0.931 . S
H292 C268 0.930 . S
H293 C265 0.930 . S
H294 C274 0.930 . S
H295 C286 0.929 . S
H296 C289 0.930 . S
C297 C298 1.351 . S
C297 N300 1.368 . S
C297 H302 0.931 . S
C298 C297 1.351 . S
C298 N299 1.373 . S
C298 H326 0.930 . S
N299 C298 1.373 . S
N299 C301 1.340 . S
N300 C297 1.368 . S
N300 C301 1.321 . S
N300 Co303 2.135 . S
C301 N299 1.340 . S
C301 N300 1.321 . S
C301 H325 0.930 . S
H302 C297 0.931 . S
Co303 N300 2.135 . S
Co303 N306 2.121 . S
Co303 O311 2.055 . S
Co303 O314 2.039 . S
Co303 N317 2.140 . S
C304 O305 1.227 . S
C304 O314 1.265 . S
O305 C304 1.227 . S
N306 Co303 2.121 . S
N306 C308 1.375 . S
N306 C309 1.313 . S
C307 C308 1.338 . S
C307 N310 1.377 . S
C307 H327 0.930 . S
C308 N306 1.375 . S
C308 C307 1.338 . S
C308 H312 0.931 . S
C309 N306 1.313 . S
C309 N310 1.344 . S
C309 H313 0.930 . S
N310 C307 1.377 . S
N310 C309 1.344 . S
O311 Co303 2.055 . S
O311 C315 1.253 . S
H312 C308 0.931 . S
H313 C309 0.930 . S
O314 Co303 2.039 . S
O314 C304 1.265 . S
C315 O311 1.253 . S
C315 O316 1.227 . S
O316 C315 1.227 . S
N317 Co303 2.140 . S
N317 C320 1.346 . S
N317 C321 1.345 . S
C318 C319 1.387 . S
C318 C322 1.391 . S
C319 C318 1.387 . S
C319 C320 1.369 . S
C319 H328 0.929 . S
C320 N317 1.346 . S
C320 C319 1.369 . S
C320 H323 0.928 . S
C321 N317 1.345 . S
C321 C322 1.371 . S
C321 H324 0.931 . S
C322 C318 1.391 . S
C322 C321 1.371 . S
C322 H329 0.930 . S
H323 C320 0.928 . S
H324 C321 0.931 . S
H325 C301 0.930 . S
H326 C298 0.930 . S
H327 C307 0.930 . S
H328 C319 0.929 . S
H329 C322 0.930 . S
C330 C331 1.351 . S
C330 N333 1.368 . S
C330 H335 0.931 . S
C331 C330 1.351 . S
C331 N332 1.373 . S
C331 H359 0.930 . S
N332 C331 1.373 . S
N332 C334 1.340 . S
N333 C330 1.368 . S
N333 C334 1.321 . S
N333 Co336 2.135 . S
C334 N332 1.340 . S
C334 N333 1.321 . S
C334 H358 0.930 . S
H335 C330 0.931 . S
Co336 N333 2.135 . S
Co336 N339 2.121 . S
Co336 O344 2.055 . S
Co336 O347 2.039 . S
Co336 N350 2.140 . S
C337 O338 1.227 . S
C337 O347 1.265 . S
O338 C337 1.227 . S
N339 Co336 2.121 . S
N339 C341 1.375 . S
N339 C342 1.313 . S
C340 C341 1.338 . S
C340 N343 1.377 . S
C340 H360 0.930 . S
C341 N339 1.375 . S
C341 C340 1.338 . S
C341 H345 0.931 . S
C342 N339 1.313 . S
C342 N343 1.344 . S
C342 H346 0.930 . S
N343 C340 1.377 . S
N343 C342 1.344 . S
O344 Co336 2.055 . S
O344 C348 1.253 . S
H345 C341 0.931 . S
H346 C342 0.930 . S
O347 Co336 2.039 . S
O347 C337 1.265 . S
C348 O344 1.253 . S
C348 O349 1.227 . S
O349 C348 1.227 . S
N350 Co336 2.140 . S
N350 C353 1.346 . S
N350 C354 1.345 . S
C351 C352 1.387 . S
C351 C355 1.391 . S
C352 C351 1.387 . S
C352 C353 1.369 . S
C352 H361 0.929 . S
C353 N350 1.346 . S
C353 C352 1.369 . S
C353 H356 0.928 . S
C354 N350 1.345 . S
C354 C355 1.371 . S
C354 H357 0.931 . S
C355 C351 1.391 . S
C355 C354 1.371 . S
C355 H362 0.930 . S
H356 C353 0.928 . S
H357 C354 0.931 . S
H358 C334 0.930 . S
H359 C331 0.930 . S
H360 C340 0.930 . S
H361 C352 0.929 . S
H362 C355 0.930 . S
C363 C364 1.351 . S
C363 N366 1.368 . S
C363 H368 0.931 . S
C364 C363 1.351 . S
C364 N365 1.373 . S
C364 H392 0.930 . S
N365 C364 1.373 . S
N365 C367 1.340 . S
N366 C363 1.368 . S
N366 C367 1.321 . S
N366 Co369 2.135 . S
C367 N365 1.340 . S
C367 N366 1.321 . S
C367 H391 0.930 . S
H368 C363 0.931 . S
Co369 N366 2.135 . S
Co369 N372 2.121 . S
Co369 O377 2.055 . S
Co369 O380 2.039 . S
Co369 N383 2.140 . S
C370 O371 1.227 . S
C370 O380 1.265 . S
O371 C370 1.227 . S
N372 Co369 2.121 . S
N372 C374 1.375 . S
N372 C375 1.313 . S
C373 C374 1.338 . S
C373 N376 1.377 . S
C373 H393 0.930 . S
C374 N372 1.375 . S
C374 C373 1.338 . S
C374 H378 0.931 . S
C375 N372 1.313 . S
C375 N376 1.344 . S
C375 H379 0.930 . S
N376 C373 1.377 . S
N376 C375 1.344 . S
O377 Co369 2.055 . S
O377 C381 1.253 . S
H378 C374 0.931 . S
H379 C375 0.930 . S
O380 Co369 2.039 . S
O380 C370 1.265 . S
C381 O377 1.253 . S
C381 O382 1.227 . S
O382 C381 1.227 . S
N383 Co369 2.140 . S
N383 C386 1.346 . S
N383 C387 1.345 . S
C384 C385 1.387 . S
C384 C388 1.391 . S
C385 C384 1.387 . S
C385 C386 1.369 . S
C385 H394 0.929 . S
C386 N383 1.346 . S
C386 C385 1.369 . S
C386 H389 0.928 . S
C387 N383 1.345 . S
C387 C388 1.371 . S
C387 H390 0.931 . S
C388 C384 1.391 . S
C388 C387 1.371 . S
C388 H395 0.930 . S
H389 C386 0.928 . S
H390 C387 0.931 . S
H391 C367 0.930 . S
H392 C364 0.930 . S
H393 C373 0.930 . S
H394 C385 0.929 . S
H395 C388 0.930 . S
C396 C397 1.351 . S
C396 N399 1.368 . S
C396 H401 0.931 . S
C397 C396 1.351 . S
C397 N398 1.373 . S
C397 H425 0.930 . S
N398 C397 1.373 . S
N398 C400 1.340 . S
N399 C396 1.368 . S
N399 C400 1.321 . S
N399 Co402 2.135 1_556 S
C400 N398 1.340 . S
C400 N399 1.321 . S
C400 H424 0.930 . S
H401 C396 0.931 . S
Co402 N399 2.135 1_554 S
Co402 N405 2.121 . S
Co402 O410 2.055 . S
Co402 O413 2.039 . S
Co402 N416 2.140 1_554 S
C403 O404 1.227 1_554 S
C403 O413 1.265 . S
O404 C403 1.227 1_556 S
N405 Co402 2.121 . S
N405 C407 1.375 . S
N405 C408 1.313 . S
C406 C407 1.338 . S
C406 N409 1.377 . S
C406 H426 0.930 . S
C407 N405 1.375 . S
C407 C406 1.338 . S
C407 H411 0.931 . S
C408 N405 1.313 . S
C408 N409 1.344 . S
C408 H412 0.930 . S
N409 C406 1.377 . S
N409 C408 1.344 . S
O410 Co402 2.055 . S
O410 C414 1.253 . S
H411 C407 0.931 . S
H412 C408 0.930 . S
O413 Co402 2.039 . S
O413 C403 1.265 . S
C414 O410 1.253 . S
C414 O415 1.227 . S
O415 C414 1.227 . S
N416 Co402 2.140 1_556 S
N416 C419 1.346 . S
N416 C420 1.345 . S
C417 C418 1.387 . S
C417 C421 1.391 . S
C418 C417 1.387 . S
C418 C419 1.369 . S
C418 H427 0.929 . S
C419 N416 1.346 . S
C419 C418 1.369 . S
C419 H422 0.928 . S
C420 N416 1.345 . S
C420 C421 1.371 . S
C420 H423 0.931 1_556 S
C421 C417 1.391 . S
C421 C420 1.371 . S
C421 H428 0.930 . S
H422 C419 0.928 . S
H423 C420 0.931 1_554 S
H424 C400 0.930 . S
H425 C397 0.930 . S
H426 C406 0.930 . S
H427 C418 0.929 . S
H428 C421 0.930 . S
C429 C430 1.351 . S
C429 N432 1.368 . S
C429 H434 0.931 . S
C430 C429 1.351 . S
C430 N431 1.373 . S
C430 H458 0.930 . S
N431 C430 1.373 . S
N431 C433 1.340 . S
N432 C429 1.368 . S
N432 C433 1.321 . S
N432 Co435 2.135 1_556 S
C433 N431 1.340 . S
C433 N432 1.321 . S
C433 H457 0.930 . S
H434 C429 0.931 . S
Co435 N432 2.135 1_554 S
Co435 N438 2.121 . S
Co435 O443 2.055 . S
Co435 O446 2.039 . S
Co435 N449 2.140 1_554 S
C436 O437 1.227 1_554 S
C436 O446 1.265 . S
O437 C436 1.227 1_556 S
N438 Co435 2.121 . S
N438 C440 1.375 . S
N438 C441 1.313 . S
C439 C440 1.338 . S
C439 N442 1.377 . S
C439 H459 0.930 . S
C440 N438 1.375 . S
C440 C439 1.338 . S
C440 H444 0.931 . S
C441 N438 1.313 . S
C441 N442 1.344 . S
C441 H445 0.930 . S
N442 C439 1.377 . S
N442 C441 1.344 . S
O443 Co435 2.055 . S
O443 C447 1.253 . S
H444 C440 0.931 . S
H445 C441 0.930 . S
O446 Co435 2.039 . S
O446 C436 1.265 . S
C447 O443 1.253 . S
C447 O448 1.227 . S
O448 C447 1.227 . S
N449 Co435 2.140 1_556 S
N449 C452 1.346 . S
N449 C453 1.345 . S
C450 C451 1.387 . S
C450 C454 1.391 . S
C451 C450 1.387 . S
C451 C452 1.369 . S
C451 H460 0.929 . S
C452 N449 1.346 . S
C452 C451 1.369 . S
C452 H455 0.928 . S
C453 N449 1.345 . S
C453 C454 1.371 . S
C453 H456 0.931 1_556 S
C454 C450 1.391 . S
C454 C453 1.371 . S
C454 H461 0.930 . S
H455 C452 0.928 . S
H456 C453 0.931 1_554 S
H457 C433 0.930 . S
H458 C430 0.930 . S
H459 C439 0.930 . S
H460 C451 0.929 . S
H461 C454 0.930 . S
C462 C463 1.351 . S
C462 N465 1.368 . S
C462 H467 0.931 . S
C463 C462 1.351 . S
C463 N464 1.373 . S
C463 H491 0.930 . S
N464 C463 1.373 . S
N464 C466 1.340 . S
N465 C462 1.368 . S
N465 C466 1.321 . S
N465 Co468 2.135 . S
C466 N464 1.340 . S
C466 N465 1.321 . S
C466 H490 0.930 . S
H467 C462 0.931 . S
Co468 N465 2.135 . S
Co468 N471 2.121 . S
Co468 O476 2.055 . S
Co468 O479 2.039 . S
Co468 N482 2.140 . S
C469 O470 1.227 . S
C469 O479 1.265 . S
O470 C469 1.227 . S
N471 Co468 2.121 . S
N471 C473 1.375 . S
N471 C474 1.313 . S
C472 C473 1.338 . S
C472 N475 1.377 . S
C472 H492 0.930 . S
C473 N471 1.375 . S
C473 C472 1.338 . S
C473 H477 0.931 . S
C474 N471 1.313 . S
C474 N475 1.344 . S
C474 H478 0.930 . S
N475 C472 1.377 . S
N475 C474 1.344 . S
O476 Co468 2.055 . S
O476 C480 1.253 . S
H477 C473 0.931 . S
H478 C474 0.930 . S
O479 Co468 2.039 . S
O479 C469 1.265 . S
C480 O476 1.253 . S
C480 O481 1.227 . S
O481 C480 1.227 . S
N482 Co468 2.140 . S
N482 C485 1.346 . S
N482 C486 1.345 . S
C483 C484 1.387 . S
C483 C487 1.391 . S
C484 C483 1.387 . S
C484 C485 1.369 . S
C484 H493 0.929 . S
C485 N482 1.346 . S
C485 C484 1.369 . S
C485 H488 0.928 . S
C486 N482 1.345 . S
C486 C487 1.371 . S
C486 H489 0.931 . S
C487 C483 1.391 . S
C487 C486 1.371 . S
C487 H494 0.930 . S
H488 C485 0.928 . S
H489 C486 0.931 . S
H490 C466 0.930 . S
H491 C463 0.930 . S
H492 C472 0.930 . S
H493 C484 0.929 . S
H494 C487 0.930 . S
C495 C496 1.351 . S
C495 N498 1.368 . S
C495 H500 0.931 . S
C496 C495 1.351 . S
C496 N497 1.373 . S
C496 H524 0.930 . S
N497 C496 1.373 . S
N497 C499 1.340 . S
N498 C495 1.368 . S
N498 C499 1.321 . S
N498 Co501 2.135 . S
C499 N497 1.340 . S
C499 N498 1.321 . S
C499 H523 0.930 . S
H500 C495 0.931 . S
Co501 N498 2.135 . S
Co501 N504 2.121 . S
Co501 O509 2.055 . S
Co501 O512 2.039 . S
Co501 N515 2.140 . S
C502 O503 1.227 . S
C502 O512 1.265 . S
O503 C502 1.227 . S
N504 Co501 2.121 . S
N504 C506 1.375 . S
N504 C507 1.313 . S
C505 C506 1.338 . S
C505 N508 1.377 . S
C505 H525 0.930 . S
C506 N504 1.375 . S
C506 C505 1.338 . S
C506 H510 0.931 . S
C507 N504 1.313 . S
C507 N508 1.344 . S
C507 H511 0.930 . S
N508 C505 1.377 . S
N508 C507 1.344 . S
O509 Co501 2.055 . S
O509 C513 1.253 . S
H510 C506 0.931 . S
H511 C507 0.930 . S
O512 Co501 2.039 . S
O512 C502 1.265 . S
C513 O509 1.253 . S
C513 O514 1.227 . S
O514 C513 1.227 . S
N515 Co501 2.140 . S
N515 C518 1.346 . S
N515 C519 1.345 . S
C516 C517 1.387 . S
C516 C520 1.391 . S
C517 C516 1.387 . S
C517 C518 1.369 . S
C517 H526 0.929 . S
C518 N515 1.346 . S
C518 C517 1.369 . S
C518 H521 0.928 . S
C519 N515 1.345 . S
C519 C520 1.371 . S
C519 H522 0.931 . S
C520 C516 1.391 . S
C520 C519 1.371 . S
C520 H527 0.930 . S
H521 C518 0.928 . S
H522 C519 0.931 . S
H523 C499 0.930 . S
H524 C496 0.930 . S
H525 C505 0.930 . S
H526 C517 0.929 . S
H527 C520 0.930 . S
H528 C536 0.929 . S
H529 C538 0.930 . S
H530 C540 0.930 . S
H531 C543 0.929 . S
H532 C546 0.930 . S
H533 C548 0.960 . S
H534 C548 0.960 . S
H535 C548 0.960 . S
C536 H528 0.929 . S
C536 C537 1.377 . S
C536 C538 1.384 . S
C537 C536 1.377 . S
C537 C543 1.390 . S
C538 H529 0.930 . S
C538 C536 1.384 . S
C538 C539 1.372 . S
C539 C538 1.372 . S
C539 C540 1.400 . S
C539 C544 1.490 . S
C540 H530 0.930 . S
C540 C539 1.400 . S
C540 C543 1.386 . S
H541 C557 0.930 . S
H542 C558 0.931 . S
C543 H531 0.929 . S
C543 C537 1.390 . S
C543 C540 1.386 . S
C544 C539 1.490 . S
C544 C546 1.395 . S
C544 C547 1.403 . S
H545 C551 0.930 . S
C546 H532 0.930 . S
C546 C544 1.395 . S
C546 C549 1.403 . S
C547 C544 1.403 . S
C547 C548 1.524 . S
C547 C551 1.400 . S
C548 H533 0.960 . S
C548 H534 0.960 . S
C548 H535 0.960 . S
C548 C547 1.524 . S
C549 C546 1.403 . S
C549 C550 1.392 . S
C549 C553 1.495 . S
C550 C549 1.392 . S
C550 C551 1.385 . S
C550 C552 1.478 . S
C551 H545 0.930 . S
C551 C547 1.400 . S
C551 C550 1.385 . S
C552 C550 1.478 . S
C552 C554 1.381 . S
C552 C558 1.383 . S
C553 C549 1.495 . S
C553 H559 0.959 . S
C553 H560 0.961 . S
C553 H561 0.960 . S
C554 C552 1.381 . S
C554 C555 1.394 . S
C554 H562 0.930 . S
C555 C554 1.394 . S
C555 C556 1.383 . S
C555 H563 0.929 . S
C556 C555 1.383 . S
C556 C557 1.377 . S
C557 H541 0.930 . S
C557 C556 1.377 . S
C557 C558 1.379 . S
C558 H542 0.931 . S
C558 C552 1.383 . S
C558 C557 1.379 . S
H559 C553 0.959 . S
H560 C553 0.961 . S
H561 C553 0.960 . S
H562 C554 0.930 . S
H563 C555 0.929 . S
H564 C572 0.929 . S
H565 C574 0.930 . S
H566 C576 0.930 . S
H567 C579 0.929 . S
H568 C582 0.930 . S
H569 C584 0.960 . S
H570 C584 0.960 . S
H571 C584 0.960 . S
C572 H564 0.929 . S
C572 C573 1.377 . S
C572 C574 1.384 . S
C573 C572 1.377 . S
C573 C579 1.390 . S
C574 H565 0.930 . S
C574 C572 1.384 . S
C574 C575 1.372 . S
C575 C574 1.372 . S
C575 C576 1.400 . S
C575 C580 1.490 . S
C576 H566 0.930 . S
C576 C575 1.400 . S
C576 C579 1.386 . S
H577 C593 0.930 . S
H578 C594 0.931 . S
C579 H567 0.929 . S
C579 C573 1.390 . S
C579 C576 1.386 . S
C580 C575 1.490 . S
C580 C582 1.395 . S
C580 C583 1.403 . S
H581 C587 0.930 . S
C582 H568 0.930 . S
C582 C580 1.395 . S
C582 C585 1.403 . S
C583 C580 1.403 . S
C583 C584 1.524 . S
C583 C587 1.400 . S
C584 H569 0.960 . S
C584 H570 0.960 . S
C584 H571 0.960 . S
C584 C583 1.524 . S
C585 C582 1.403 . S
C585 C586 1.392 . S
C585 C589 1.495 . S
C586 C585 1.392 . S
C586 C587 1.385 . S
C586 C588 1.478 . S
C587 H581 0.930 . S
C587 C583 1.400 . S
C587 C586 1.385 . S
C588 C586 1.478 . S
C588 C590 1.381 . S
C588 C594 1.383 . S
C589 C585 1.495 . S
C589 H595 0.959 . S
C589 H596 0.961 . S
C589 H597 0.960 . S
C590 C588 1.381 . S
C590 C591 1.394 . S
C590 H598 0.930 . S
C591 C590 1.394 . S
C591 C592 1.383 . S
C591 H599 0.929 . S
C592 C591 1.383 . S
C592 C593 1.377 . S
C593 H577 0.930 . S
C593 C592 1.377 . S
C593 C594 1.379 . S
C594 H578 0.931 . S
C594 C588 1.383 . S
C594 C593 1.379 . S
H595 C589 0.959 . S
H596 C589 0.961 . S
H597 C589 0.960 . S
H598 C590 0.930 . S
H599 C591 0.929 . S
H600 C608 0.929 . S
H601 C610 0.930 . S
H602 C612 0.930 . S
H603 C615 0.929 . S
H604 C618 0.930 1_655 S
H605 C620 0.960 . S
H606 C620 0.960 . S
H607 C620 0.960 . S
C608 H600 0.929 . S
C608 C609 1.377 . S
C608 C610 1.384 . S
C609 C608 1.377 . S
C609 C615 1.390 . S
C610 H601 0.930 . S
C610 C608 1.384 . S
C610 C611 1.372 1_655 S
C611 C610 1.372 1_455 S
C611 C612 1.400 . S
C611 C616 1.490 . S
C612 H602 0.930 . S
C612 C611 1.400 . S
C612 C615 1.386 1_455 S
H613 C629 0.930 . S
H614 C630 0.931 . S
C615 H603 0.929 . S
C615 C609 1.390 . S
C615 C612 1.386 1_655 S
C616 C611 1.490 . S
C616 C618 1.395 . S
C616 C619 1.403 . S
H617 C623 0.930 . S
C618 H604 0.930 1_455 S
C618 C616 1.395 . S
C618 C621 1.403 . S
C619 C616 1.403 . S
C619 C620 1.524 . S
C619 C623 1.400 . S
C620 H605 0.960 . S
C620 H606 0.960 . S
C620 H607 0.960 . S
C620 C619 1.524 . S
C621 C618 1.403 . S
C621 C622 1.392 . S
C621 C625 1.495 . S
C622 C621 1.392 . S
C622 C623 1.385 . S
C622 C624 1.478 . S
C623 H617 0.930 . S
C623 C619 1.400 . S
C623 C622 1.385 . S
C624 C622 1.478 . S
C624 C626 1.381 . S
C624 C630 1.383 . S
C625 C621 1.495 . S
C625 H631 0.959 . S
C625 H632 0.961 . S
C625 H633 0.960 . S
C626 C624 1.381 . S
C626 C627 1.394 . S
C626 H634 0.930 . S
C627 C626 1.394 . S
C627 C628 1.383 . S
C627 H635 0.929 . S
C628 C627 1.383 . S
C628 C629 1.377 . S
C629 H613 0.930 . S
C629 C628 1.377 . S
C629 C630 1.379 . S
C630 H614 0.931 . S
C630 C624 1.383 . S
C630 C629 1.379 . S
H631 C625 0.959 . S
H632 C625 0.961 . S
H633 C625 0.960 . S
H634 C626 0.930 . S
H635 C627 0.929 . S
H636 C644 0.929 . S
H637 C646 0.930 . S
H638 C648 0.930 . S
H639 C651 0.929 . S
H640 C654 0.930 1_455 S
H641 C656 0.960 . S
H642 C656 0.960 . S
H643 C656 0.960 . S
C644 H636 0.929 . S
C644 C645 1.377 . S
C644 C646 1.384 . S
C645 C644 1.377 . S
C645 C651 1.390 . S
C646 H637 0.930 . S
C646 C644 1.384 . S
C646 C647 1.372 1_455 S
C647 C646 1.372 1_655 S
C647 C648 1.400 . S
C647 C652 1.490 . S
C648 H638 0.930 . S
C648 C647 1.400 . S
C648 C651 1.386 1_655 S
H649 C665 0.930 . S
H650 C666 0.931 . S
C651 H639 0.929 . S
C651 C645 1.390 . S
C651 C648 1.386 1_455 S
C652 C647 1.490 . S
C652 C654 1.395 . S
C652 C655 1.403 . S
H653 C659 0.930 . S
C654 H640 0.930 1_655 S
C654 C652 1.395 . S
C654 C657 1.403 . S
C655 C652 1.403 . S
C655 C656 1.524 . S
C655 C659 1.400 . S
C656 H641 0.960 . S
C656 H642 0.960 . S
C656 H643 0.960 . S
C656 C655 1.524 . S
C657 C654 1.403 . S
C657 C658 1.392 . S
C657 C661 1.495 . S
C658 C657 1.392 . S
C658 C659 1.385 . S
C658 C660 1.478 . S
C659 H653 0.930 . S
C659 C655 1.400 . S
C659 C658 1.385 . S
C660 C658 1.478 . S
C660 C662 1.381 . S
C660 C666 1.383 . S
C661 C657 1.495 . S
C661 H667 0.959 . S
C661 H668 0.961 . S
C661 H669 0.960 . S
C662 C660 1.381 . S
C662 C663 1.394 . S
C662 H670 0.930 . S
C663 C662 1.394 . S
C663 C664 1.383 . S
C663 H671 0.929 . S
C664 C663 1.383 . S
C664 C665 1.377 . S
C665 H649 0.930 . S
C665 C664 1.377 . S
C665 C666 1.379 . S
C666 H650 0.931 . S
C666 C660 1.383 . S
C666 C665 1.379 . S
H667 C661 0.959 . S
H668 C661 0.961 . S
H669 C661 0.960 . S
H670 C662 0.930 . S
H671 C663 0.929 . S
H672 C680 0.929 . S
H673 C682 0.930 . S
H674 C684 0.930 . S
H675 C687 0.929 . S
H676 C690 0.930 . S
H677 C692 0.960 . S
H678 C692 0.960 . S
H679 C692 0.960 . S
C680 H672 0.929 . S
C680 C681 1.377 . S
C680 C682 1.384 . S
C681 C680 1.377 . S
C681 C687 1.390 . S
C682 H673 0.930 . S
C682 C680 1.384 . S
C682 C683 1.372 . S
C683 C682 1.372 . S
C683 C684 1.400 . S
C683 C688 1.490 . S
C684 H674 0.930 . S
C684 C683 1.400 . S
C684 C687 1.386 . S
H685 C701 0.930 . S
H686 C702 0.931 . S
C687 H675 0.929 . S
C687 C681 1.390 . S
C687 C684 1.386 . S
C688 C683 1.490 . S
C688 C690 1.395 . S
C688 C691 1.403 . S
H689 C695 0.930 . S
C690 H676 0.930 . S
C690 C688 1.395 . S
C690 C693 1.403 . S
C691 C688 1.403 . S
C691 C692 1.524 . S
C691 C695 1.400 . S
C692 H677 0.960 . S
C692 H678 0.960 . S
C692 H679 0.960 . S
C692 C691 1.524 . S
C693 C690 1.403 . S
C693 C694 1.392 . S
C693 C697 1.495 . S
C694 C693 1.392 . S
C694 C695 1.385 . S
C694 C696 1.478 . S
C695 H689 0.930 . S
C695 C691 1.400 . S
C695 C694 1.385 . S
C696 C694 1.478 . S
C696 C698 1.381 . S
C696 C702 1.383 . S
C697 C693 1.495 . S
C697 H703 0.959 . S
C697 H704 0.961 . S
C697 H705 0.960 . S
C698 C696 1.381 . S
C698 C699 1.394 . S
C698 H706 0.930 . S
C699 C698 1.394 . S
C699 C700 1.383 . S
C699 H707 0.929 . S
C700 C699 1.383 . S
C700 C701 1.377 . S
C701 H685 0.930 . S
C701 C700 1.377 . S
C701 C702 1.379 . S
C702 H686 0.931 . S
C702 C696 1.383 . S
C702 C701 1.379 . S
H703 C697 0.959 . S
H704 C697 0.961 . S
H705 C697 0.960 . S
H706 C698 0.930 . S
H707 C699 0.929 . S
H708 C716 0.929 . S
H709 C718 0.930 . S
H710 C720 0.930 . S
H711 C723 0.929 . S
H712 C726 0.930 . S
H713 C728 0.960 . S
H714 C728 0.960 . S
H715 C728 0.960 . S
C716 H708 0.929 . S
C716 C717 1.377 . S
C716 C718 1.384 . S
C717 C716 1.377 . S
C717 C723 1.390 . S
C718 H709 0.930 . S
C718 C716 1.384 . S
C718 C719 1.372 . S
C719 C718 1.372 . S
C719 C720 1.400 . S
C719 C724 1.490 . S
C720 H710 0.930 . S
C720 C719 1.400 . S
C720 C723 1.386 . S
H721 C737 0.930 . S
H722 C738 0.931 . S
C723 H711 0.929 . S
C723 C717 1.390 . S
C723 C720 1.386 . S
C724 C719 1.490 . S
C724 C726 1.395 . S
C724 C727 1.403 . S
H725 C731 0.930 . S
C726 H712 0.930 . S
C726 C724 1.395 . S
C726 C729 1.403 . S
C727 C724 1.403 . S
C727 C728 1.524 . S
C727 C731 1.400 . S
C728 H713 0.960 . S
C728 H714 0.960 . S
C728 H715 0.960 . S
C728 C727 1.524 . S
C729 C726 1.403 . S
C729 C730 1.392 . S
C729 C733 1.495 . S
C730 C729 1.392 . S
C730 C731 1.385 . S
C730 C732 1.478 . S
C731 H725 0.930 . S
C731 C727 1.400 . S
C731 C730 1.385 . S
C732 C730 1.478 . S
C732 C734 1.381 . S
C732 C738 1.383 . S
C733 C729 1.495 . S
C733 H739 0.959 . S
C733 H740 0.961 . S
C733 H741 0.960 . S
C734 C732 1.381 . S
C734 C735 1.394 . S
C734 H742 0.930 . S
C735 C734 1.394 . S
C735 C736 1.383 . S
C735 H743 0.929 . S
C736 C735 1.383 . S
C736 C737 1.377 . S
C737 H721 0.930 . S
C737 C736 1.377 . S
C737 C738 1.379 . S
C738 H722 0.931 . S
C738 C732 1.383 . S
C738 C737 1.379 . S
H739 C733 0.959 . S
H740 C733 0.961 . S
H741 C733 0.960 . S
H742 C734 0.930 . S
H743 C735 0.929 . S
H744 C752 0.929 . S
H745 C754 0.930 . S
H746 C756 0.930 . S
H747 C759 0.929 . S
H748 C762 0.930 . S
H749 C764 0.960 . S
H750 C764 0.960 . S
H751 C764 0.960 . S
C752 H744 0.929 . S
C752 C753 1.377 . S
C752 C754 1.384 . S
C753 C752 1.377 . S
C753 C759 1.390 . S
C754 H745 0.930 . S
C754 C752 1.384 . S
C754 C755 1.372 1_655 S
C755 C754 1.372 1_455 S
C755 C756 1.400 . S
C755 C760 1.490 . S
C756 H746 0.930 . S
C756 C755 1.400 . S
C756 C759 1.386 1_455 S
H757 C773 0.930 . S
H758 C774 0.931 . S
C759 H747 0.929 . S
C759 C753 1.390 . S
C759 C756 1.386 1_655 S
C760 C755 1.490 . S
C760 C762 1.395 . S
C760 C763 1.403 . S
H761 C767 0.930 . S
C762 H748 0.930 . S
C762 C760 1.395 . S
C762 C765 1.403 . S
C763 C760 1.403 . S
C763 C764 1.524 . S
C763 C767 1.400 . S
C764 H749 0.960 . S
C764 H750 0.960 . S
C764 H751 0.960 . S
C764 C763 1.524 . S
C765 C762 1.403 . S
C765 C766 1.392 . S
C765 C769 1.495 . S
C766 C765 1.392 . S
C766 C767 1.385 . S
C766 C768 1.478 . S
C767 H761 0.930 . S
C767 C763 1.400 . S
C767 C766 1.385 . S
C768 C766 1.478 . S
C768 C770 1.381 . S
C768 C774 1.383 . S
C769 C765 1.495 . S
C769 H775 0.959 . S
C769 H776 0.961 . S
C769 H777 0.960 . S
C770 C768 1.381 . S
C770 C771 1.394 . S
C770 H778 0.930 . S
C771 C770 1.394 . S
C771 C772 1.383 . S
C771 H779 0.929 . S
C772 C771 1.383 . S
C772 C773 1.377 . S
C773 H757 0.930 . S
C773 C772 1.377 . S
C773 C774 1.379 . S
C774 H758 0.931 . S
C774 C768 1.383 . S
C774 C773 1.379 . S
H775 C769 0.959 . S
H776 C769 0.961 . S
H777 C769 0.960 . S
H778 C770 0.930 . S
H779 C771 0.929 . S
H780 C788 0.929 . S
H781 C790 0.930 . S
H782 C792 0.930 . S
H783 C795 0.929 . S
H784 C798 0.930 . S
H785 C800 0.960 . S
H786 C800 0.960 . S
H787 C800 0.960 . S
C788 H780 0.929 . S
C788 C789 1.377 . S
C788 C790 1.384 . S
C789 C788 1.377 . S
C789 C795 1.390 . S
C790 H781 0.930 . S
C790 C788 1.384 . S
C790 C791 1.372 . S
C791 C790 1.372 . S
C791 C792 1.400 . S
C791 C796 1.490 . S
C792 H782 0.930 . S
C792 C791 1.400 . S
C792 C795 1.386 . S
H793 C809 0.930 . S
H794 C810 0.931 . S
C795 H783 0.929 . S
C795 C789 1.390 . S
C795 C792 1.386 . S
C796 C791 1.490 . S
C796 C798 1.395 . S
C796 C799 1.403 . S
H797 C803 0.930 . S
C798 H784 0.930 . S
C798 C796 1.395 . S
C798 C801 1.403 . S
C799 C796 1.403 . S
C799 C800 1.524 . S
C799 C803 1.400 . S
C800 H785 0.960 . S
C800 H786 0.960 . S
C800 H787 0.960 . S
C800 C799 1.524 . S
C801 C798 1.403 . S
C801 C802 1.392 . S
C801 C805 1.495 . S
C802 C801 1.392 . S
C802 C803 1.385 . S
C802 C804 1.478 . S
C803 H797 0.930 . S
C803 C799 1.400 . S
C803 C802 1.385 . S
C804 C802 1.478 . S
C804 C806 1.381 1_655 S
C804 C810 1.383 . S
C805 C801 1.495 . S
C805 H811 0.959 . S
C805 H812 0.961 . S
C805 H813 0.960 . S
C806 C804 1.381 1_455 S
C806 C807 1.394 . S
C806 H814 0.930 . S
C807 C806 1.394 . S
C807 C808 1.383 . S
C807 H815 0.929 . S
C808 C807 1.383 . S
C808 C809 1.377 . S
C809 H793 0.930 . S
C809 C808 1.377 . S
C809 C810 1.379 1_455 S
C810 H794 0.931 . S
C810 C804 1.383 . S
C810 C809 1.379 1_655 S
H811 C805 0.959 . S
H812 C805 0.961 . S
H813 C805 0.960 . S
H814 C806 0.930 . S
H815 C807 0.929 . S
H816 C824 0.929 . S
H817 C826 0.930 . S
H818 C828 0.930 . S
H819 C831 0.929 . S
H820 C834 0.930 . S
H821 C836 0.960 . S
H822 C836 0.960 . S
H823 C836 0.960 . S
C824 H816 0.929 . S
C824 C825 1.377 . S
C824 C826 1.384 . S
C825 C824 1.377 . S
C825 C831 1.390 . S
C826 H817 0.930 . S
C826 C824 1.384 . S
C826 C827 1.372 . S
C827 C826 1.372 . S
C827 C828 1.400 . S
C827 C832 1.490 . S
C828 H818 0.930 . S
C828 C827 1.400 . S
C828 C831 1.386 . S
H829 C845 0.930 . S
H830 C846 0.931 . S
C831 H819 0.929 . S
C831 C825 1.390 . S
C831 C828 1.386 . S
C832 C827 1.490 . S
C832 C834 1.395 . S
C832 C835 1.403 . S
H833 C839 0.930 . S
C834 H820 0.930 . S
C834 C832 1.395 . S
C834 C837 1.403 . S
C835 C832 1.403 . S
C835 C836 1.524 . S
C835 C839 1.400 . S
C836 H821 0.960 . S
C836 H822 0.960 . S
C836 H823 0.960 . S
C836 C835 1.524 . S
C837 C834 1.403 . S
C837 C838 1.392 . S
C837 C841 1.495 . S
C838 C837 1.392 . S
C838 C839 1.385 . S
C838 C840 1.478 . S
C839 H833 0.930 . S
C839 C835 1.400 . S
C839 C838 1.385 . S
C840 C838 1.478 . S
C840 C842 1.381 . S
C840 C846 1.383 . S
C841 C837 1.495 . S
C841 H847 0.959 . S
C841 H848 0.961 . S
C841 H849 0.960 . S
C842 C840 1.381 . S
C842 C843 1.394 . S
C842 H850 0.930 . S
C843 C842 1.394 . S
C843 C844 1.383 . S
C843 H851 0.929 . S
C844 C843 1.383 . S
C844 C845 1.377 . S
C845 H829 0.930 . S
C845 C844 1.377 . S
C845 C846 1.379 . S
C846 H830 0.931 . S
C846 C840 1.383 . S
C846 C845 1.379 . S
H847 C841 0.959 . S
H848 C841 0.961 . S
H849 C841 0.960 . S
H850 C842 0.930 . S
H851 C843 0.929 . S
H852 C860 0.929 . S
H853 C862 0.930 . S
H854 C864 0.930 . S
H855 C867 0.929 . S
H856 C870 0.930 . S
H857 C872 0.960 . S
H858 C872 0.960 . S
H859 C872 0.960 . S
C860 H852 0.929 . S
C860 C861 1.377 . S
C860 C862 1.384 . S
C861 C860 1.377 . S
C861 C867 1.390 . S
C862 H853 0.930 . S
C862 C860 1.384 . S
C862 C863 1.372 . S
C863 C862 1.372 . S
C863 C864 1.400 . S
C863 C868 1.490 . S
C864 H854 0.930 . S
C864 C863 1.400 . S
C864 C867 1.386 . S
H865 C881 0.930 . S
H866 C882 0.931 . S
C867 H855 0.929 . S
C867 C861 1.390 . S
C867 C864 1.386 . S
C868 C863 1.490 . S
C868 C870 1.395 . S
C868 C871 1.403 . S
H869 C875 0.930 . S
C870 H856 0.930 . S
C870 C868 1.395 . S
C870 C873 1.403 . S
C871 C868 1.403 . S
C871 C872 1.524 . S
C871 C875 1.400 . S
C872 H857 0.960 . S
C872 H858 0.960 . S
C872 H859 0.960 . S
C872 C871 1.524 . S
C873 C870 1.403 . S
C873 C874 1.392 . S
C873 C877 1.495 . S
C874 C873 1.392 . S
C874 C875 1.385 . S
C874 C876 1.478 . S
C875 H869 0.930 . S
C875 C871 1.400 . S
C875 C874 1.385 . S
C876 C874 1.478 . S
C876 C878 1.381 . S
C876 C882 1.383 . S
C877 C873 1.495 . S
C877 H883 0.959 . S
C877 H884 0.961 . S
C877 H885 0.960 . S
C878 C876 1.381 . S
C878 C879 1.394 . S
C878 H886 0.930 . S
C879 C878 1.394 . S
C879 C880 1.383 . S
C879 H887 0.929 . S
C880 C879 1.383 . S
C880 C881 1.377 . S
C881 H865 0.930 . S
C881 C880 1.377 . S
C881 C882 1.379 . S
C882 H866 0.931 . S
C882 C876 1.383 . S
C882 C881 1.379 . S
H883 C877 0.959 . S
H884 C877 0.961 . S
H885 C877 0.960 . S
H886 C878 0.930 . S
H887 C879 0.929 . S
H888 C896 0.929 . S
H889 C898 0.930 . S
H890 C900 0.930 . S
H891 C903 0.929 . S
H892 C906 0.930 . S
H893 C908 0.960 . S
H894 C908 0.960 . S
H895 C908 0.960 . S
C896 H888 0.929 . S
C896 C897 1.377 . S
C896 C898 1.384 . S
C897 C896 1.377 . S
C897 C903 1.390 . S
C898 H889 0.930 . S
C898 C896 1.384 . S
C898 C899 1.372 . S
C899 C898 1.372 . S
C899 C900 1.400 . S
C899 C904 1.490 . S
C900 H890 0.930 . S
C900 C899 1.400 . S
C900 C903 1.386 . S
H901 C917 0.930 . S
H902 C918 0.931 . S
C903 H891 0.929 . S
C903 C897 1.390 . S
C903 C900 1.386 . S
C904 C899 1.490 . S
C904 C906 1.395 . S
C904 C907 1.403 . S
H905 C911 0.930 . S
C906 H892 0.930 . S
C906 C904 1.395 . S
C906 C909 1.403 . S
C907 C904 1.403 . S
C907 C908 1.524 . S
C907 C911 1.400 . S
C908 H893 0.960 . S
C908 H894 0.960 . S
C908 H895 0.960 . S
C908 C907 1.524 . S
C909 C906 1.403 . S
C909 C910 1.392 . S
C909 C913 1.495 . S
C910 C909 1.392 . S
C910 C911 1.385 . S
C910 C912 1.478 . S
C911 H905 0.930 . S
C911 C907 1.400 . S
C911 C910 1.385 . S
C912 C910 1.478 . S
C912 C914 1.381 . S
C912 C918 1.383 . S
C913 C909 1.495 . S
C913 H919 0.959 . S
C913 H920 0.961 . S
C913 H921 0.960 . S
C914 C912 1.381 . S
C914 C915 1.394 . S
C914 H922 0.930 . S
C915 C914 1.394 . S
C915 C916 1.383 . S
C915 H923 0.929 . S
C916 C915 1.383 . S
C916 C917 1.377 . S
C917 H901 0.930 . S
C917 C916 1.377 . S
C917 C918 1.379 . S
C918 H902 0.931 . S
C918 C912 1.383 . S
C918 C917 1.379 . S
H919 C913 0.959 . S
H920 C913 0.961 . S
H921 C913 0.960 . S
H922 C914 0.930 . S
H923 C915 0.929 . S
H924 C932 0.929 . S
H925 C934 0.930 . S
H926 C936 0.930 . S
H927 C939 0.929 . S
H928 C942 0.930 . S
H929 C944 0.960 . S
H930 C944 0.960 . S
H931 C944 0.960 . S
C932 H924 0.929 . S
C932 C933 1.377 . S
C932 C934 1.384 . S
C933 C932 1.377 . S
C933 C939 1.390 . S
C934 H925 0.930 . S
C934 C932 1.384 . S
C934 C935 1.372 . S
C935 C934 1.372 . S
C935 C936 1.400 . S
C935 C940 1.490 . S
C936 H926 0.930 . S
C936 C935 1.400 . S
C936 C939 1.386 . S
H937 C953 0.930 . S
H938 C954 0.931 . S
C939 H927 0.929 . S
C939 C933 1.390 . S
C939 C936 1.386 . S
C940 C935 1.490 . S
C940 C942 1.395 . S
C940 C943 1.403 . S
H941 C947 0.930 . S
C942 H928 0.930 . S
C942 C940 1.395 . S
C942 C945 1.403 . S
C943 C940 1.403 . S
C943 C944 1.524 . S
C943 C947 1.400 . S
C944 H929 0.960 . S
C944 H930 0.960 . S
C944 H931 0.960 . S
C944 C943 1.524 . S
C945 C942 1.403 . S
C945 C946 1.392 . S
C945 C949 1.495 . S
C946 C945 1.392 . S
C946 C947 1.385 . S
C946 C948 1.478 . S
C947 H941 0.930 . S
C947 C943 1.400 . S
C947 C946 1.385 . S
C948 C946 1.478 . S
C948 C950 1.381 . S
C948 C954 1.383 . S
C949 C945 1.495 . S
C949 H955 0.959 . S
C949 H956 0.961 . S
C949 H957 0.960 . S
C950 C948 1.381 . S
C950 C951 1.394 . S
C950 H958 0.930 . S
C951 C950 1.394 . S
C951 C952 1.383 . S
C951 H959 0.929 . S
C952 C951 1.383 . S
C952 C953 1.377 . S
C953 H937 0.930 . S
C953 C952 1.377 . S
C953 C954 1.379 . S
C954 H938 0.931 . S
C954 C948 1.383 . S
C954 C953 1.379 . S
H955 C949 0.959 . S
H956 C949 0.961 . S
H957 C949 0.960 . S
H958 C950 0.930 . S
H959 C951 0.929 . S
H960 C968 0.929 . S
H961 C970 0.930 . S
H962 C972 0.930 . S
H963 C975 0.929 . S
H964 C978 0.930 . S
H965 C980 0.960 . S
H966 C980 0.960 . S
H967 C980 0.960 . S
C968 H960 0.929 . S
C968 C969 1.377 . S
C968 C970 1.384 . S
C969 C968 1.377 . S
C969 C975 1.390 . S
C970 H961 0.930 . S
C970 C968 1.384 . S
C970 C971 1.372 . S
C971 C970 1.372 . S
C971 C972 1.400 . S
C971 C976 1.490 . S
C972 H962 0.930 . S
C972 C971 1.400 . S
C972 C975 1.386 . S
H973 C989 0.930 . S
H974 C990 0.931 . S
C975 H963 0.929 . S
C975 C969 1.390 . S
C975 C972 1.386 . S
C976 C971 1.490 . S
C976 C978 1.395 . S
C976 C979 1.403 . S
H977 C983 0.930 . S
C978 H964 0.930 . S
C978 C976 1.395 . S
C978 C981 1.403 . S
C979 C976 1.403 . S
C979 C980 1.524 . S
C979 C983 1.400 . S
C980 H965 0.960 . S
C980 H966 0.960 . S
C980 H967 0.960 . S
C980 C979 1.524 . S
C981 C978 1.403 . S
C981 C982 1.392 . S
C981 C985 1.495 . S
C982 C981 1.392 . S
C982 C983 1.385 . S
C982 C984 1.478 . S
C983 H977 0.930 . S
C983 C979 1.400 . S
C983 C982 1.385 . S
C984 C982 1.478 . S
C984 C986 1.381 . S
C984 C990 1.383 . S
C985 C981 1.495 . S
C985 H991 0.959 . S
C985 H992 0.961 . S
C985 H993 0.960 . S
C986 C984 1.381 . S
C986 C987 1.394 . S
C986 H994 0.930 . S
C987 C986 1.394 . S
C987 C988 1.383 . S
C987 H995 0.929 . S
C988 C987 1.383 . S
C988 C989 1.377 . S
C989 H973 0.930 . S
C989 C988 1.377 . S
C989 C990 1.379 . S
C990 H974 0.931 . S
C990 C984 1.383 . S
C990 C989 1.379 . S
H991 C985 0.959 . S
H992 C985 0.961 . S
H993 C985 0.960 . S
H994 C986 0.930 . S
H995 C987 0.929 . S
H996 C1004 0.929 . S
H997 C1006 0.930 . S
H998 C1008 0.930 . S
H999 C1011 0.929 . S
H1000 C1014 0.930 . S
H1001 C1016 0.960 . S
H1002 C1016 0.960 . S
H1003 C1016 0.960 . S
C1004 H996 0.929 . S
C1004 C1005 1.377 . S
C1004 C1006 1.384 . S
C1005 C1004 1.377 . S
C1005 C1011 1.390 . S
C1006 H997 0.930 . S
C1006 C1004 1.384 . S
C1006 C1007 1.372 . S
C1007 C1006 1.372 . S
C1007 C1008 1.400 . S
C1007 C1012 1.490 . S
C1008 H998 0.930 . S
C1008 C1007 1.400 . S
C1008 C1011 1.386 . S
H1009 C1025 0.930 . S
H1010 C1026 0.931 . S
C1011 H999 0.929 . S
C1011 C1005 1.390 . S
C1011 C1008 1.386 . S
C1012 C1007 1.490 . S
C1012 C1014 1.395 . S
C1012 C1015 1.403 . S
H1013 C1019 0.930 . S
C1014 H1000 0.930 . S
C1014 C1012 1.395 . S
C1014 C1017 1.403 . S
C1015 C1012 1.403 . S
C1015 C1016 1.524 . S
C1015 C1019 1.400 . S
C1016 H1001 0.960 . S
C1016 H1002 0.960 . S
C1016 H1003 0.960 . S
C1016 C1015 1.524 . S
C1017 C1014 1.403 . S
C1017 C1018 1.392 . S
C1017 C1021 1.495 . S
C1018 C1017 1.392 . S
C1018 C1019 1.385 . S
C1018 C1020 1.478 . S
C1019 H1013 0.930 . S
C1019 C1015 1.400 . S
C1019 C1018 1.385 . S
C1020 C1018 1.478 . S
C1020 C1022 1.381 . S
C1020 C1026 1.383 . S
C1021 C1017 1.495 . S
C1021 H1027 0.959 . S
C1021 H1028 0.961 . S
C1021 H1029 0.960 . S
C1022 C1020 1.381 . S
C1022 C1023 1.394 . S
C1022 H1030 0.930 . S
C1023 C1022 1.394 . S
C1023 C1024 1.383 . S
C1023 H1031 0.929 . S
C1024 C1023 1.383 . S
C1024 C1025 1.377 . S
C1025 H1009 0.930 . S
C1025 C1024 1.377 . S
C1025 C1026 1.379 . S
C1026 H1010 0.931 . S
C1026 C1020 1.383 . S
C1026 C1025 1.379 . S
H1027 C1021 0.959 . S
H1028 C1021 0.961 . S
H1029 C1021 0.960 . S
H1030 C1022 0.930 . S
H1031 C1023 0.929 . S
H1032 C1040 0.929 . S
H1033 C1042 0.930 . S
H1034 C1044 0.930 . S
H1035 C1047 0.929 . S
H1036 C1050 0.930 . S
H1037 C1052 0.960 . S
H1038 C1052 0.960 . S
H1039 C1052 0.960 . S
C1040 H1032 0.929 . S
C1040 C1041 1.377 . S
C1040 C1042 1.384 . S
C1041 C1040 1.377 . S
C1041 C1047 1.390 . S
C1042 H1033 0.930 . S
C1042 C1040 1.384 . S
C1042 C1043 1.372 . S
C1043 C1042 1.372 . S
C1043 C1044 1.400 . S
C1043 C1048 1.490 . S
C1044 H1034 0.930 . S
C1044 C1043 1.400 . S
C1044 C1047 1.386 . S
H1045 C1061 0.930 . S
H1046 C1062 0.931 . S
C1047 H1035 0.929 . S
C1047 C1041 1.390 . S
C1047 C1044 1.386 . S
C1048 C1043 1.490 . S
C1048 C1050 1.395 . S
C1048 C1051 1.403 . S
H1049 C1055 0.930 . S
C1050 H1036 0.930 . S
C1050 C1048 1.395 . S
C1050 C1053 1.403 . S
C1051 C1048 1.403 . S
C1051 C1052 1.524 . S
C1051 C1055 1.400 . S
C1052 H1037 0.960 . S
C1052 H1038 0.960 . S
C1052 H1039 0.960 . S
C1052 C1051 1.524 . S
C1053 C1050 1.403 . S
C1053 C1054 1.392 . S
C1053 C1057 1.495 . S
C1054 C1053 1.392 . S
C1054 C1055 1.385 . S
C1054 C1056 1.478 . S
C1055 H1049 0.930 . S
C1055 C1051 1.400 . S
C1055 C1054 1.385 . S
C1056 C1054 1.478 . S
C1056 C1058 1.381 . S
C1056 C1062 1.383 . S
C1057 C1053 1.495 . S
C1057 H1063 0.959 . S
C1057 H1064 0.961 . S
C1057 H1065 0.960 . S
C1058 C1056 1.381 . S
C1058 C1059 1.394 . S
C1058 H1066 0.930 . S
C1059 C1058 1.394 . S
C1059 C1060 1.383 . S
C1059 H1067 0.929 . S
C1060 C1059 1.383 . S
C1060 C1061 1.377 . S
C1061 H1045 0.930 . S
C1061 C1060 1.377 . S
C1061 C1062 1.379 . S
C1062 H1046 0.931 . S
C1062 C1056 1.383 . S
C1062 C1061 1.379 . S
H1063 C1057 0.959 . S
H1064 C1057 0.961 . S
H1065 C1057 0.960 . S
H1066 C1058 0.930 . S
H1067 C1059 0.929 . S
H1068 C1076 0.929 . S
H1069 C1078 0.930 . S
H1070 C1080 0.930 . S
H1071 C1083 0.929 . S
H1072 C1086 0.930 . S
H1073 C1088 0.960 . S
H1074 C1088 0.960 . S
H1075 C1088 0.960 . S
C1076 H1068 0.929 . S
C1076 C1077 1.377 . S
C1076 C1078 1.384 . S
C1077 C1076 1.377 . S
C1077 C1083 1.390 . S
C1078 H1069 0.930 . S
C1078 C1076 1.384 . S
C1078 C1079 1.372 . S
C1079 C1078 1.372 . S
C1079 C1080 1.400 . S
C1079 C1084 1.490 . S
C1080 H1070 0.930 . S
C1080 C1079 1.400 . S
C1080 C1083 1.386 . S
H1081 C1097 0.930 . S
H1082 C1098 0.931 . S
C1083 H1071 0.929 . S
C1083 C1077 1.390 . S
C1083 C1080 1.386 . S
C1084 C1079 1.490 . S
C1084 C1086 1.395 . S
C1084 C1087 1.403 . S
H1085 C1091 0.930 . S
C1086 H1072 0.930 . S
C1086 C1084 1.395 . S
C1086 C1089 1.403 . S
C1087 C1084 1.403 . S
C1087 C1088 1.524 . S
C1087 C1091 1.400 . S
C1088 H1073 0.960 . S
C1088 H1074 0.960 . S
C1088 H1075 0.960 . S
C1088 C1087 1.524 . S
C1089 C1086 1.403 . S
C1089 C1090 1.392 . S
C1089 C1093 1.495 . S
C1090 C1089 1.392 . S
C1090 C1091 1.385 . S
C1090 C1092 1.478 . S
C1091 H1085 0.930 . S
C1091 C1087 1.400 . S
C1091 C1090 1.385 . S
C1092 C1090 1.478 . S
C1092 C1094 1.381 . S
C1092 C1098 1.383 . S
C1093 C1089 1.495 . S
C1093 H1099 0.959 . S
C1093 H1100 0.961 . S
C1093 H1101 0.960 . S
C1094 C1092 1.381 . S
C1094 C1095 1.394 . S
C1094 H1102 0.930 . S
C1095 C1094 1.394 . S
C1095 C1096 1.383 . S
C1095 H1103 0.929 . S
C1096 C1095 1.383 . S
C1096 C1097 1.377 . S
C1097 H1081 0.930 . S
C1097 C1096 1.377 . S
C1097 C1098 1.379 . S
C1098 H1082 0.931 . S
C1098 C1092 1.383 . S
C1098 C1097 1.379 . S
H1099 C1093 0.959 . S
H1100 C1093 0.961 . S
H1101 C1093 0.960 . S
H1102 C1094 0.930 . S
H1103 C1095 0.929 . S
H1104 C1112 0.929 . S
H1105 C1114 0.930 1_455 S
H1106 C1116 0.930 . S
H1107 C1119 0.929 . S
H1108 C1122 0.930 . S
H1109 C1124 0.960 . S
H1110 C1124 0.960 . S
H1111 C1124 0.960 . S
C1112 H1104 0.929 . S
C1112 C1113 1.377 . S
C1112 C1114 1.384 . S
C1113 C1112 1.377 . S
C1113 C1119 1.390 . S
C1114 H1105 0.930 1_655 S
C1114 C1112 1.384 . S
C1114 C1115 1.372 . S
C1115 C1114 1.372 . S
C1115 C1116 1.400 . S
C1115 C1120 1.490 . S
C1116 H1106 0.930 . S
C1116 C1115 1.400 . S
C1116 C1119 1.386 . S
H1117 C1133 0.930 . S
H1118 C1134 0.931 1_655 S
C1119 H1107 0.929 . S
C1119 C1113 1.390 . S
C1119 C1116 1.386 . S
C1120 C1115 1.490 . S
C1120 C1122 1.395 1_655 S
C1120 C1123 1.403 . S
H1121 C1127 0.930 . S
C1122 H1108 0.930 . S
C1122 C1120 1.395 1_455 S
C1122 C1125 1.403 . S
C1123 C1120 1.403 . S
C1123 C1124 1.524 . S
C1123 C1127 1.400 . S
C1124 H1109 0.960 . S
C1124 H1110 0.960 . S
C1124 H1111 0.960 . S
C1124 C1123 1.524 . S
C1125 C1122 1.403 . S
C1125 C1126 1.392 . S
C1125 C1129 1.495 . S
C1126 C1125 1.392 . S
C1126 C1127 1.385 1_455 S
C1126 C1128 1.478 . S
C1127 H1121 0.930 . S
C1127 C1123 1.400 . S
C1127 C1126 1.385 1_655 S
C1128 C1126 1.478 . S
C1128 C1130 1.381 . S
C1128 C1134 1.383 . S
C1129 C1125 1.495 . S
C1129 H1135 0.959 . S
C1129 H1136 0.961 . S
C1129 H1137 0.960 . S
C1130 C1128 1.381 . S
C1130 C1131 1.394 . S
C1130 H1138 0.930 . S
C1131 C1130 1.394 . S
C1131 C1132 1.383 . S
C1131 H1139 0.929 . S
C1132 C1131 1.383 . S
C1132 C1133 1.377 . S
C1133 H1117 0.930 . S
C1133 C1132 1.377 . S
C1133 C1134 1.379 . S
C1134 H1118 0.931 1_455 S
C1134 C1128 1.383 . S
C1134 C1133 1.379 . S
H1135 C1129 0.959 . S
H1136 C1129 0.961 . S
H1137 C1129 0.960 . S
H1138 C1130 0.930 . S
H1139 C1131 0.929 . S
H1140 C1148 0.929 . S
H1141 C1150 0.930 . S
H1142 C1152 0.930 1_655 S
H1143 C1155 0.929 . S
H1144 C1158 0.930 . S
H1145 C1160 0.960 . S
H1146 C1160 0.960 . S
H1147 C1160 0.960 . S
C1148 H1140 0.929 . S
C1148 C1149 1.377 . S
C1148 C1150 1.384 . S
C1149 C1148 1.377 . S
C1149 C1155 1.390 . S
C1150 H1141 0.930 . S
C1150 C1148 1.384 . S
C1150 C1151 1.372 . S
C1151 C1150 1.372 . S
C1151 C1152 1.400 . S
C1151 C1156 1.490 . S
C1152 H1142 0.930 1_455 S
C1152 C1151 1.400 . S
C1152 C1155 1.386 . S
H1153 C1169 0.930 . S
H1154 C1170 0.931 . S
C1155 H1143 0.929 . S
C1155 C1149 1.390 . S
C1155 C1152 1.386 . S
C1156 C1151 1.490 . S
C1156 C1158 1.395 . S
C1156 C1159 1.403 . S
H1157 C1163 0.930 . S
C1158 H1144 0.930 . S
C1158 C1156 1.395 . S
C1158 C1161 1.403 1_455 S
C1159 C1156 1.403 . S
C1159 C1160 1.524 . S
C1159 C1163 1.400 1_455 S
C1160 H1145 0.960 . S
C1160 H1146 0.960 . S
C1160 H1147 0.960 . S
C1160 C1159 1.524 . S
C1161 C1158 1.403 1_655 S
C1161 C1162 1.392 . S
C1161 C1165 1.495 . S
C1162 C1161 1.392 . S
C1162 C1163 1.385 . S
C1162 C1164 1.478 . S
C1163 H1157 0.930 . S
C1163 C1159 1.400 1_655 S
C1163 C1162 1.385 . S
C1164 C1162 1.478 . S
C1164 C1166 1.381 . S
C1164 C1170 1.383 . S
C1165 C1161 1.495 . S
C1165 H1171 0.959 . S
C1165 H1172 0.961 . S
C1165 H1173 0.960 . S
C1166 C1164 1.381 . S
C1166 C1167 1.394 . S
C1166 H1174 0.930 1_655 S
C1167 C1166 1.394 . S
C1167 C1168 1.383 . S
C1167 H1175 0.929 . S
C1168 C1167 1.383 . S
C1168 C1169 1.377 . S
C1169 H1153 0.930 . S
C1169 C1168 1.377 . S
C1169 C1170 1.379 . S
C1170 H1154 0.931 . S
C1170 C1164 1.383 . S
C1170 C1169 1.379 . S
H1171 C1165 0.959 . S
H1172 C1165 0.961 . S
H1173 C1165 0.960 . S
H1174 C1166 0.930 1_455 S
H1175 C1167 0.929 . S
H1176 C1184 0.929 . S
H1177 C1186 0.930 . S
H1178 C1188 0.930 . S
H1179 C1191 0.929 . S
H1180 C1194 0.930 . S
H1181 C1196 0.960 . S
H1182 C1196 0.960 . S
H1183 C1196 0.960 . S
C1184 H1176 0.929 . S
C1184 C1185 1.377 . S
C1184 C1186 1.384 . S
C1185 C1184 1.377 . S
C1185 C1191 1.390 . S
C1186 H1177 0.930 . S
C1186 C1184 1.384 . S
C1186 C1187 1.372 . S
C1187 C1186 1.372 . S
C1187 C1188 1.400 . S
C1187 C1192 1.490 . S
C1188 H1178 0.930 . S
C1188 C1187 1.400 . S
C1188 C1191 1.386 . S
H1189 C1205 0.930 . S
H1190 C1206 0.931 . S
C1191 H1179 0.929 . S
C1191 C1185 1.390 . S
C1191 C1188 1.386 . S
C1192 C1187 1.490 . S
C1192 C1194 1.395 . S
C1192 C1195 1.403 . S
H1193 C1199 0.930 . S
C1194 H1180 0.930 . S
C1194 C1192 1.395 . S
C1194 C1197 1.403 . S
C1195 C1192 1.403 . S
C1195 C1196 1.524 . S
C1195 C1199 1.400 . S
C1196 H1181 0.960 . S
C1196 H1182 0.960 . S
C1196 H1183 0.960 . S
C1196 C1195 1.524 . S
C1197 C1194 1.403 . S
C1197 C1198 1.392 . S
C1197 C1201 1.495 . S
C1198 C1197 1.392 . S
C1198 C1199 1.385 . S
C1198 C1200 1.478 . S
C1199 H1193 0.930 . S
C1199 C1195 1.400 . S
C1199 C1198 1.385 . S
C1200 C1198 1.478 . S
C1200 C1202 1.381 . S
C1200 C1206 1.383 . S
C1201 C1197 1.495 . S
C1201 H1207 0.959 . S
C1201 H1208 0.961 . S
C1201 H1209 0.960 . S
C1202 C1200 1.381 . S
C1202 C1203 1.394 . S
C1202 H1210 0.930 . S
C1203 C1202 1.394 . S
C1203 C1204 1.383 . S
C1203 H1211 0.929 . S
C1204 C1203 1.383 . S
C1204 C1205 1.377 . S
C1205 H1189 0.930 . S
C1205 C1204 1.377 . S
C1205 C1206 1.379 . S
C1206 H1190 0.931 . S
C1206 C1200 1.383 . S
C1206 C1205 1.379 . S
H1207 C1201 0.959 . S
H1208 C1201 0.961 . S
H1209 C1201 0.960 . S
H1210 C1202 0.930 . S
H1211 C1203 0.929 . S
H1212 C1220 0.929 . S
H1213 C1222 0.930 . S
H1214 C1224 0.930 . S
H1215 C1227 0.929 . S
H1216 C1230 0.930 . S
H1217 C1232 0.960 . S
H1218 C1232 0.960 . S
H1219 C1232 0.960 . S
C1220 H1212 0.929 . S
C1220 C1221 1.377 . S
C1220 C1222 1.384 . S
C1221 C1220 1.377 . S
C1221 C1227 1.390 . S
C1222 H1213 0.930 . S
C1222 C1220 1.384 . S
C1222 C1223 1.372 . S
C1223 C1222 1.372 . S
C1223 C1224 1.400 . S
C1223 C1228 1.490 . S
C1224 H1214 0.930 . S
C1224 C1223 1.400 . S
C1224 C1227 1.386 . S
H1225 C1241 0.930 . S
H1226 C1242 0.931 . S
C1227 H1215 0.929 . S
C1227 C1221 1.390 . S
C1227 C1224 1.386 . S
C1228 C1223 1.490 . S
C1228 C1230 1.395 . S
C1228 C1231 1.403 . S
H1229 C1235 0.930 . S
C1230 H1216 0.930 . S
C1230 C1228 1.395 . S
C1230 C1233 1.403 . S
C1231 C1228 1.403 . S
C1231 C1232 1.524 . S
C1231 C1235 1.400 . S
C1232 H1217 0.960 . S
C1232 H1218 0.960 . S
C1232 H1219 0.960 . S
C1232 C1231 1.524 . S
C1233 C1230 1.403 . S
C1233 C1234 1.392 . S
C1233 C1237 1.495 . S
C1234 C1233 1.392 . S
C1234 C1235 1.385 . S
C1234 C1236 1.478 . S
C1235 H1229 0.930 . S
C1235 C1231 1.400 . S
C1235 C1234 1.385 . S
C1236 C1234 1.478 . S
C1236 C1238 1.381 . S
C1236 C1242 1.383 . S
C1237 C1233 1.495 . S
C1237 H1243 0.959 . S
C1237 H1244 0.961 . S
C1237 H1245 0.960 . S
C1238 C1236 1.381 . S
C1238 C1239 1.394 . S
C1238 H1246 0.930 . S
C1239 C1238 1.394 . S
C1239 C1240 1.383 . S
C1239 H1247 0.929 . S
C1240 C1239 1.383 . S
C1240 C1241 1.377 . S
C1241 H1225 0.930 . S
C1241 C1240 1.377 . S
C1241 C1242 1.379 . S
C1242 H1226 0.931 . S
C1242 C1236 1.383 . S
C1242 C1241 1.379 . S
H1243 C1237 0.959 . S
H1244 C1237 0.961 . S
H1245 C1237 0.960 . S
H1246 C1238 0.930 . S
H1247 C1239 0.929 . S
H1248 C1256 0.929 . S
H1249 C1258 0.930 1_455 S
H1250 C1260 0.930 . S
H1251 C1263 0.929 . S
H1252 C1266 0.930 . S
H1253 C1268 0.960 . S
H1254 C1268 0.960 . S
H1255 C1268 0.960 . S
C1256 H1248 0.929 . S
C1256 C1257 1.377 . S
C1256 C1258 1.384 . S
C1257 C1256 1.377 . S
C1257 C1263 1.390 . S
C1258 H1249 0.930 1_655 S
C1258 C1256 1.384 . S
C1258 C1259 1.372 . S
C1259 C1258 1.372 . S
C1259 C1260 1.400 . S
C1259 C1264 1.490 . S
C1260 H1250 0.930 . S
C1260 C1259 1.400 . S
C1260 C1263 1.386 . S
H1261 C1277 0.930 . S
H1262 C1278 0.931 1_655 S
C1263 H1251 0.929 . S
C1263 C1257 1.390 . S
C1263 C1260 1.386 . S
C1264 C1259 1.490 . S
C1264 C1266 1.395 1_655 S
C1264 C1267 1.403 . S
H1265 C1271 0.930 . S
C1266 H1252 0.930 . S
C1266 C1264 1.395 1_455 S
C1266 C1269 1.403 . S
C1267 C1264 1.403 . S
C1267 C1268 1.524 . S
C1267 C1271 1.400 . S
C1268 H1253 0.960 . S
C1268 H1254 0.960 . S
C1268 H1255 0.960 . S
C1268 C1267 1.524 . S
C1269 C1266 1.403 . S
C1269 C1270 1.392 . S
C1269 C1273 1.495 . S
C1270 C1269 1.392 . S
C1270 C1271 1.385 1_455 S
C1270 C1272 1.478 . S
C1271 H1265 0.930 . S
C1271 C1267 1.400 . S
C1271 C1270 1.385 1_655 S
C1272 C1270 1.478 . S
C1272 C1274 1.381 . S
C1272 C1278 1.383 . S
C1273 C1269 1.495 . S
C1273 H1279 0.959 . S
C1273 H1280 0.961 . S
C1273 H1281 0.960 . S
C1274 C1272 1.381 . S
C1274 C1275 1.394 . S
C1274 H1282 0.930 . S
C1275 C1274 1.394 . S
C1275 C1276 1.383 . S
C1275 H1283 0.929 . S
C1276 C1275 1.383 . S
C1276 C1277 1.377 . S
C1277 H1261 0.930 . S
C1277 C1276 1.377 . S
C1277 C1278 1.379 . S
C1278 H1262 0.931 1_455 S
C1278 C1272 1.383 . S
C1278 C1277 1.379 . S
H1279 C1273 0.959 . S
H1280 C1273 0.961 . S
H1281 C1273 0.960 . S
H1282 C1274 0.930 . S
H1283 C1275 0.929 . S
H1284 C1292 0.929 . S
H1285 C1294 0.930 . S
H1286 C1296 0.930 1_655 S
H1287 C1299 0.929 . S
H1288 C1302 0.930 . S
H1289 C1304 0.960 . S
H1290 C1304 0.960 . S
H1291 C1304 0.960 . S
C1292 H1284 0.929 . S
C1292 C1293 1.377 . S
C1292 C1294 1.384 . S
C1293 C1292 1.377 . S
C1293 C1299 1.390 . S
C1294 H1285 0.930 . S
C1294 C1292 1.384 . S
C1294 C1295 1.372 . S
C1295 C1294 1.372 . S
C1295 C1296 1.400 . S
C1295 C1300 1.490 . S
C1296 H1286 0.930 1_455 S
C1296 C1295 1.400 . S
C1296 C1299 1.386 . S
H1297 C1313 0.930 . S
H1298 C1314 0.931 . S
C1299 H1287 0.929 . S
C1299 C1293 1.390 . S
C1299 C1296 1.386 . S
C1300 C1295 1.490 . S
C1300 C1302 1.395 . S
C1300 C1303 1.403 . S
H1301 C1307 0.930 . S
C1302 H1288 0.930 . S
C1302 C1300 1.395 . S
C1302 C1305 1.403 1_455 S
C1303 C1300 1.403 . S
C1303 C1304 1.524 . S
C1303 C1307 1.400 1_455 S
C1304 H1289 0.960 . S
C1304 H1290 0.960 . S
C1304 H1291 0.960 . S
C1304 C1303 1.524 . S
C1305 C1302 1.403 1_655 S
C1305 C1306 1.392 . S
C1305 C1309 1.495 . S
C1306 C1305 1.392 . S
C1306 C1307 1.385 . S
C1306 C1308 1.478 . S
C1307 H1301 0.930 . S
C1307 C1303 1.400 1_655 S
C1307 C1306 1.385 . S
C1308 C1306 1.478 . S
C1308 C1310 1.381 . S
C1308 C1314 1.383 . S
C1309 C1305 1.495 . S
C1309 H1315 0.959 . S
C1309 H1316 0.961 . S
C1309 H1317 0.960 1_655 S
C1310 C1308 1.381 . S
C1310 C1311 1.394 . S
C1310 H1318 0.930 1_655 S
C1311 C1310 1.394 . S
C1311 C1312 1.383 . S
C1311 H1319 0.929 . S
C1312 C1311 1.383 . S
C1312 C1313 1.377 . S
C1313 H1297 0.930 . S
C1313 C1312 1.377 . S
C1313 C1314 1.379 . S
C1314 H1298 0.931 . S
C1314 C1308 1.383 . S
C1314 C1313 1.379 . S
H1315 C1309 0.959 . S
H1316 C1309 0.961 . S
H1317 C1309 0.960 1_455 S
H1318 C1310 0.930 1_455 S
H1319 C1311 0.929 . S
H1320 C1328 0.929 . S
H1321 C1330 0.930 . S
H1322 C1332 0.930 . S
H1323 C1335 0.929 . S
H1324 C1338 0.931 1_565 S
H1325 C1340 0.960 1_554 S
H1326 C1340 0.960 . S
H1327 C1340 0.960 . S
C1328 H1320 0.929 . S
C1328 C1329 1.377 . S
C1328 C1330 1.384 . S
C1329 C1328 1.377 . S
C1329 C1335 1.390 . S
C1330 H1321 0.930 . S
C1330 C1328 1.384 . S
C1330 C1331 1.372 . S
C1331 C1330 1.372 . S
C1331 C1332 1.400 . S
C1331 C1336 1.490 . S
C1332 H1322 0.930 . S
C1332 C1331 1.400 . S
C1332 C1335 1.386 . S
H1333 C1349 0.930 . S
H1334 C1350 0.931 1_545 S
C1335 H1323 0.929 . S
C1335 C1329 1.390 . S
C1335 C1332 1.386 . S
C1336 C1331 1.490 . S
C1336 C1338 1.395 . S
C1336 C1339 1.403 . S
H1337 C1343 0.930 . S
C1338 H1324 0.931 1_545 S
C1338 C1336 1.395 . S
C1338 C1341 1.403 1_545 S
C1339 C1336 1.403 . S
C1339 C1340 1.524 . S
C1339 C1343 1.400 1_556 S
C1340 H1325 0.960 1_556 S
C1340 H1326 0.960 . S
C1340 H1327 0.960 . S
C1340 C1339 1.524 . S
C1341 C1338 1.403 1_565 S
C1341 C1342 1.392 1_556 S
C1341 C1345 1.495 . S
C1342 C1341 1.392 1_554 S
C1342 C1343 1.385 1_565 S
C1342 C1344 1.478 . S
C1343 H1337 0.930 . S
C1343 C1339 1.400 1_554 S
C1343 C1342 1.385 1_545 S
C1344 C1342 1.478 . S
C1344 C1346 1.381 . S
C1344 C1350 1.383 . S
C1345 C1341 1.495 . S
C1345 H1351 0.959 . S
C1345 H1352 0.961 . S
C1345 H1353 0.960 . S
C1346 C1344 1.381 . S
C1346 C1347 1.394 . S
C1346 H1354 0.930 . S
C1347 C1346 1.394 . S
C1347 C1348 1.383 . S
C1347 H1355 0.929 . S
C1348 C1347 1.383 . S
C1348 C1349 1.377 . S
C1349 H1333 0.930 . S
C1349 C1348 1.377 . S
C1349 C1350 1.379 . S
C1350 H1334 0.931 1_565 S
C1350 C1344 1.383 . S
C1350 C1349 1.379 . S
H1351 C1345 0.959 . S
H1352 C1345 0.961 . S
H1353 C1345 0.960 . S
H1354 C1346 0.930 . S
H1355 C1347 0.929 . S
H1356 C1364 0.929 . S
H1357 C1366 0.930 . S
H1358 C1368 0.930 . S
H1359 C1371 0.929 . S
H1360 C1374 0.930 . S
H1361 C1376 0.960 . S
H1362 C1376 0.991 . S
H1363 C1376 0.960 . S
C1364 H1356 0.929 . S
C1364 C1365 1.377 . S
C1364 C1366 1.384 . S
C1365 C1364 1.377 . S
C1365 C1371 1.390 . S
C1366 H1357 0.930 . S
C1366 C1364 1.384 . S
C1366 C1367 1.372 . S
C1367 C1366 1.372 . S
C1367 C1368 1.400 . S
C1367 C1372 1.490 . S
C1368 H1358 0.930 . S
C1368 C1367 1.400 . S
C1368 C1371 1.386 . S
H1369 C1385 0.930 . S
H1370 C1386 0.931 . S
C1371 H1359 0.929 . S
C1371 C1365 1.390 . S
C1371 C1368 1.386 . S
C1372 C1367 1.490 . S
C1372 C1374 1.395 . S
C1372 C1375 1.409 . S
H1373 C1379 0.930 . S
C1374 H1360 0.930 . S
C1374 C1372 1.395 . S
C1374 C1377 1.403 1_556 S
C1375 C1372 1.409 . S
C1375 C1376 1.521 1_565 S
C1375 C1379 1.397 1_565 S
C1376 H1361 0.960 . S
C1376 H1362 0.991 . S
C1376 H1363 0.960 . S
C1376 C1375 1.521 1_545 S
C1377 C1374 1.403 1_554 S
C1377 C1378 1.394 . S
C1377 C1381 1.495 . S
C1378 C1377 1.394 . S
C1378 C1379 1.384 1_564 S
C1378 C1380 1.476 1_565 S
C1379 H1373 0.930 . S
C1379 C1375 1.397 1_545 S
C1379 C1378 1.384 1_546 S
C1380 C1378 1.476 1_545 S
C1380 C1382 1.381 . S
C1380 C1386 1.383 . S
C1381 C1377 1.495 . S
C1381 H1387 0.959 . S
C1381 H1388 0.961 . S
C1381 H1389 0.960 . S
C1382 C1380 1.381 . S
C1382 C1383 1.394 . S
C1382 H1390 0.930 1_545 S
C1383 C1382 1.394 . S
C1383 C1384 1.383 . S
C1383 H1391 0.929 . S
C1384 C1383 1.383 . S
C1384 C1385 1.377 . S
C1385 H1369 0.930 . S
C1385 C1384 1.377 . S
C1385 C1386 1.379 . S
C1386 H1370 0.931 . S
C1386 C1380 1.383 . S
C1386 C1385 1.379 . S
H1387 C1381 0.959 . S
H1388 C1381 0.961 . S
H1389 C1381 0.960 . S
H1390 C1382 0.930 1_565 S
H1391 C1383 0.929 . S
H1392 C1400 0.929 . S
H1393 C1402 0.930 . S
H1394 C1404 0.930 . S
H1395 C1407 0.929 . S
H1396 C1410 0.930 . S
H1397 C1412 0.960 . S
H1398 C1412 0.960 . S
H1399 C1412 0.960 . S
C1400 H1392 0.929 . S
C1400 C1401 1.377 . S
C1400 C1402 1.384 . S
C1401 C1400 1.377 . S
C1401 C1407 1.390 . S
C1402 H1393 0.930 . S
C1402 C1400 1.384 . S
C1402 C1403 1.372 . S
C1403 C1402 1.372 . S
C1403 C1404 1.400 . S
C1403 C1408 1.490 . S
C1404 H1394 0.930 . S
C1404 C1403 1.400 . S
C1404 C1407 1.386 . S
H1405 C1421 0.930 . S
H1406 C1422 0.931 . S
C1407 H1395 0.929 . S
C1407 C1401 1.390 . S
C1407 C1404 1.386 . S
C1408 C1403 1.490 . S
C1408 C1410 1.395 . S
C1408 C1411 1.403 . S
H1409 C1415 0.930 . S
C1410 H1396 0.930 . S
C1410 C1408 1.395 . S
C1410 C1413 1.403 . S
C1411 C1408 1.403 . S
C1411 C1412 1.524 . S
C1411 C1415 1.400 . S
C1412 H1397 0.960 . S
C1412 H1398 0.960 . S
C1412 H1399 0.960 . S
C1412 C1411 1.524 . S
C1413 C1410 1.403 . S
C1413 C1414 1.392 . S
C1413 C1417 1.495 . S
C1414 C1413 1.392 . S
C1414 C1415 1.385 . S
C1414 C1416 1.478 . S
C1415 H1409 0.930 . S
C1415 C1411 1.400 . S
C1415 C1414 1.385 . S
C1416 C1414 1.478 . S
C1416 C1418 1.381 . S
C1416 C1422 1.383 . S
C1417 C1413 1.495 . S
C1417 H1423 0.959 . S
C1417 H1424 0.961 . S
C1417 H1425 0.960 . S
C1418 C1416 1.381 . S
C1418 C1419 1.394 . S
C1418 H1426 0.930 . S
C1419 C1418 1.394 . S
C1419 C1420 1.383 . S
C1419 H1427 0.929 . S
C1420 C1419 1.383 . S
C1420 C1421 1.377 . S
C1421 H1405 0.930 . S
C1421 C1420 1.377 . S
C1421 C1422 1.379 . S
C1422 H1406 0.931 . S
C1422 C1416 1.383 . S
C1422 C1421 1.379 . S
H1423 C1417 0.959 . S
H1424 C1417 0.961 . S
H1425 C1417 0.960 . S
H1426 C1418 0.930 . S
H1427 C1419 0.929 . S
H1428 C1436 0.929 . S
H1429 C1438 0.930 . S
H1430 C1440 0.930 . S
H1431 C1443 0.929 . S
H1432 C1446 0.930 . S
H1433 C1448 0.960 . S
H1434 C1448 0.960 . S
H1435 C1448 0.960 . S
C1436 H1428 0.929 . S
C1436 C1437 1.377 . S
C1436 C1438 1.384 . S
C1437 C1436 1.377 . S
C1437 C1443 1.390 . S
C1438 H1429 0.930 . S
C1438 C1436 1.384 . S
C1438 C1439 1.372 . S
C1439 C1438 1.372 . S
C1439 C1440 1.400 . S
C1439 C1444 1.490 . S
C1440 H1430 0.930 . S
C1440 C1439 1.400 . S
C1440 C1443 1.386 . S
H1441 C1457 0.930 . S
H1442 C1458 0.931 . S
C1443 H1431 0.929 . S
C1443 C1437 1.390 . S
C1443 C1440 1.386 . S
C1444 C1439 1.490 . S
C1444 C1446 1.395 . S
C1444 C1447 1.403 . S
H1445 C1451 0.930 . S
C1446 H1432 0.930 . S
C1446 C1444 1.395 . S
C1446 C1449 1.403 . S
C1447 C1444 1.403 . S
C1447 C1448 1.524 . S
C1447 C1451 1.400 . S
C1448 H1433 0.960 . S
C1448 H1434 0.960 . S
C1448 H1435 0.960 . S
C1448 C1447 1.524 . S
C1449 C1446 1.403 . S
C1449 C1450 1.392 . S
C1449 C1453 1.495 . S
C1450 C1449 1.392 . S
C1450 C1451 1.385 . S
C1450 C1452 1.478 . S
C1451 H1445 0.930 . S
C1451 C1447 1.400 . S
C1451 C1450 1.385 . S
C1452 C1450 1.478 . S
C1452 C1454 1.381 . S
C1452 C1458 1.383 . S
C1453 C1449 1.495 . S
C1453 H1459 0.959 . S
C1453 H1460 0.961 . S
C1453 H1461 0.960 . S
C1454 C1452 1.381 . S
C1454 C1455 1.394 . S
C1454 H1462 0.930 . S
C1455 C1454 1.394 . S
C1455 C1456 1.383 . S
C1455 H1463 0.929 . S
C1456 C1455 1.383 . S
C1456 C1457 1.377 . S
C1457 H1441 0.930 . S
C1457 C1456 1.377 . S
C1457 C1458 1.379 . S
C1458 H1442 0.931 . S
C1458 C1452 1.383 . S
C1458 C1457 1.379 . S
H1459 C1453 0.959 . S
H1460 C1453 0.961 . S
H1461 C1453 0.960 . S
H1462 C1454 0.930 . S
H1463 C1455 0.929 . S
H1464 C1472 0.929 . S
H1465 C1474 0.930 . S
H1466 C1476 0.930 . S
H1467 C1479 0.929 . S
H1468 C1482 0.930 . S
H1469 C1484 0.960 . S
H1470 C1484 0.960 . S
H1471 C1484 0.960 . S
C1472 H1464 0.929 . S
C1472 C1473 1.377 . S
C1472 C1474 1.384 . S
C1473 C1472 1.377 . S
C1473 C1479 1.390 . S
C1474 H1465 0.930 . S
C1474 C1472 1.384 . S
C1474 C1475 1.372 . S
C1475 C1474 1.372 . S
C1475 C1476 1.400 . S
C1475 C1480 1.490 . S
C1476 H1466 0.930 . S
C1476 C1475 1.400 . S
C1476 C1479 1.386 . S
H1477 C1493 0.930 . S
H1478 C1494 0.931 . S
C1479 H1467 0.929 . S
C1479 C1473 1.390 . S
C1479 C1476 1.386 . S
C1480 C1475 1.490 . S
C1480 C1482 1.395 . S
C1480 C1483 1.403 1_554 S
H1481 C1487 0.930 . S
C1482 H1468 0.930 . S
C1482 C1480 1.395 . S
C1482 C1485 1.403 1_554 S
C1483 C1480 1.403 1_556 S
C1483 C1484 1.524 . S
C1483 C1487 1.400 . S
C1484 H1469 0.960 . S
C1484 H1470 0.960 . S
C1484 H1471 0.960 . S
C1484 C1483 1.524 . S
C1485 C1482 1.403 1_556 S
C1485 C1486 1.392 . S
C1485 C1489 1.495 . S
C1486 C1485 1.392 . S
C1486 C1487 1.385 . S
C1486 C1488 1.478 . S
C1487 H1481 0.930 . S
C1487 C1483 1.400 . S
C1487 C1486 1.385 . S
C1488 C1486 1.478 . S
C1488 C1490 1.381 . S
C1488 C1494 1.383 . S
C1489 C1485 1.495 . S
C1489 H1495 0.959 1_556 S
C1489 H1496 0.961 . S
C1489 H1497 0.960 . S
C1490 C1488 1.381 . S
C1490 C1491 1.394 . S
C1490 H1498 0.930 . S
C1491 C1490 1.394 . S
C1491 C1492 1.383 . S
C1491 H1499 0.929 . S
C1492 C1491 1.383 . S
C1492 C1493 1.377 . S
C1493 H1477 0.930 . S
C1493 C1492 1.377 . S
C1493 C1494 1.379 . S
C1494 H1478 0.931 . S
C1494 C1488 1.383 . S
C1494 C1493 1.379 . S
H1495 C1489 0.959 1_554 S
H1496 C1489 0.961 . S
H1497 C1489 0.960 . S
H1498 C1490 0.930 . S
H1499 C1491 0.929 . S
H1500 C1508 0.929 . S
H1501 C1510 0.930 . S
H1502 C1512 0.930 . S
H1503 C1515 0.929 . S
H1504 C1518 0.930 . S
H1505 C1520 0.960 . S
H1506 C1520 0.960 . S
H1507 C1520 0.960 . S
C1508 H1500 0.929 . S
C1508 C1509 1.377 . S
C1508 C1510 1.384 . S
C1509 C1508 1.377 . S
C1509 C1515 1.390 . S
C1510 H1501 0.930 . S
C1510 C1508 1.384 . S
C1510 C1511 1.372 . S
C1511 C1510 1.372 . S
C1511 C1512 1.400 . S
C1511 C1516 1.490 . S
C1512 H1502 0.930 . S
C1512 C1511 1.400 . S
C1512 C1515 1.386 . S
H1513 C1529 0.930 . S
H1514 C1530 0.931 . S
C1515 H1503 0.929 . S
C1515 C1509 1.390 . S
C1515 C1512 1.386 . S
C1516 C1511 1.490 . S
C1516 C1518 1.395 1_554 S
C1516 C1519 1.403 . S
H1517 C1523 0.930 . S
C1518 H1504 0.930 . S
C1518 C1516 1.395 1_556 S
C1518 C1521 1.403 . S
C1519 C1516 1.403 . S
C1519 C1520 1.524 . S
C1519 C1523 1.400 1_554 S
C1520 H1505 0.960 . S
C1520 H1506 0.960 . S
C1520 H1507 0.960 . S
C1520 C1519 1.524 . S
C1521 C1518 1.403 . S
C1521 C1522 1.392 . S
C1521 C1525 1.495 . S
C1522 C1521 1.392 . S
C1522 C1523 1.385 . S
C1522 C1524 1.478 . S
C1523 H1517 0.930 . S
C1523 C1519 1.400 1_556 S
C1523 C1522 1.385 . S
C1524 C1522 1.478 . S
C1524 C1526 1.381 . S
C1524 C1530 1.383 . S
C1525 C1521 1.495 . S
C1525 H1531 0.959 . S
C1525 H1532 0.961 . S
C1525 H1533 0.960 . S
C1526 C1524 1.381 . S
C1526 C1527 1.394 . S
C1526 H1534 0.930 . S
C1527 C1526 1.394 . S
C1527 C1528 1.383 . S
C1527 H1535 0.929 . S
C1528 C1527 1.383 . S
C1528 C1529 1.377 . S
C1529 H1513 0.930 . S
C1529 C1528 1.377 . S
C1529 C1530 1.379 . S
C1530 H1514 0.931 . S
C1530 C1524 1.383 . S
C1530 C1529 1.379 . S
H1531 C1525 0.959 . S
H1532 C1525 0.961 . S
H1533 C1525 0.960 . S
H1534 C1526 0.930 . S
H1535 C1527 0.929 . S
H1536 C1544 0.929 . S
H1537 C1546 0.930 . S
H1538 C1548 0.930 . S
H1539 C1551 0.929 . S
H1540 C1554 0.930 . S
H1541 C1556 0.960 . S
H1542 C1556 0.960 . S
H1543 C1556 0.960 . S
C1544 H1536 0.929 . S
C1544 C1545 1.377 . S
C1544 C1546 1.384 . S
C1545 C1544 1.377 . S
C1545 C1551 1.390 . S
C1546 H1537 0.930 . S
C1546 C1544 1.384 . S
C1546 C1547 1.372 . S
C1547 C1546 1.372 . S
C1547 C1548 1.400 . S
C1547 C1552 1.490 . S
C1548 H1538 0.930 . S
C1548 C1547 1.400 . S
C1548 C1551 1.386 . S
H1549 C1565 0.930 . S
H1550 C1566 0.931 . S
C1551 H1539 0.929 . S
C1551 C1545 1.390 . S
C1551 C1548 1.386 . S
C1552 C1547 1.490 . S
C1552 C1554 1.395 . S
C1552 C1555 1.403 . S
H1553 C1559 0.930 . S
C1554 H1540 0.930 . S
C1554 C1552 1.395 . S
C1554 C1557 1.403 . S
C1555 C1552 1.403 . S
C1555 C1556 1.524 . S
C1555 C1559 1.400 . S
C1556 H1541 0.960 . S
C1556 H1542 0.960 . S
C1556 H1543 0.960 . S
C1556 C1555 1.524 . S
C1557 C1554 1.403 . S
C1557 C1558 1.392 . S
C1557 C1561 1.495 . S
C1558 C1557 1.392 . S
C1558 C1559 1.385 . S
C1558 C1560 1.478 . S
C1559 H1553 0.930 . S
C1559 C1555 1.400 . S
C1559 C1558 1.385 . S
C1560 C1558 1.478 . S
C1560 C1562 1.381 . S
C1560 C1566 1.383 . S
C1561 C1557 1.495 . S
C1561 H1567 0.959 . S
C1561 H1568 0.961 . S
C1561 H1569 0.960 . S
C1562 C1560 1.381 . S
C1562 C1563 1.394 . S
C1562 H1570 0.930 . S
C1563 C1562 1.394 . S
C1563 C1564 1.383 . S
C1563 H1571 0.929 . S
C1564 C1563 1.383 . S
C1564 C1565 1.377 . S
C1565 H1549 0.930 . S
C1565 C1564 1.377 . S
C1565 C1566 1.379 . S
C1566 H1550 0.931 . S
C1566 C1560 1.383 . S
C1566 C1565 1.379 . S
H1567 C1561 0.959 . S
H1568 C1561 0.961 . S
H1569 C1561 0.960 . S
H1570 C1562 0.930 . S
H1571 C1563 0.929 . S
H1572 C1580 0.929 . S
H1573 C1582 0.930 . S
H1574 C1584 0.930 . S
H1575 C1587 0.929 . S
H1576 C1590 0.930 . S
H1577 C1592 0.960 . S
H1578 C1592 0.960 . S
H1579 C1592 0.960 . S
C1580 H1572 0.929 . S
C1580 C1581 1.377 . S
C1580 C1582 1.384 . S
C1581 C1580 1.377 . S
C1581 C1587 1.390 . S
C1582 H1573 0.930 . S
C1582 C1580 1.384 . S
C1582 C1583 1.372 . S
C1583 C1582 1.372 . S
C1583 C1584 1.400 . S
C1583 C1588 1.490 . S
C1584 H1574 0.930 . S
C1584 C1583 1.400 . S
C1584 C1587 1.386 . S
H1585 C1601 0.930 . S
H1586 C1602 0.931 . S
C1587 H1575 0.929 . S
C1587 C1581 1.390 . S
C1587 C1584 1.386 . S
C1588 C1583 1.490 . S
C1588 C1590 1.395 . S
C1588 C1591 1.403 . S
H1589 C1595 0.930 . S
C1590 H1576 0.930 . S
C1590 C1588 1.395 . S
C1590 C1593 1.403 . S
C1591 C1588 1.403 . S
C1591 C1592 1.524 . S
C1591 C1595 1.400 . S
C1592 H1577 0.960 . S
C1592 H1578 0.960 . S
C1592 H1579 0.960 . S
C1592 C1591 1.524 . S
C1593 C1590 1.403 . S
C1593 C1594 1.392 . S
C1593 C1597 1.495 . S
C1594 C1593 1.392 . S
C1594 C1595 1.385 . S
C1594 C1596 1.478 . S
C1595 H1589 0.930 . S
C1595 C1591 1.400 . S
C1595 C1594 1.385 . S
C1596 C1594 1.478 . S
C1596 C1598 1.381 . S
C1596 C1602 1.383 . S
C1597 C1593 1.495 . S
C1597 H1603 0.959 . S
C1597 H1604 0.961 . S
C1597 H1605 0.960 . S
C1598 C1596 1.381 . S
C1598 C1599 1.394 . S
C1598 H1606 0.930 . S
C1599 C1598 1.394 . S
C1599 C1600 1.383 . S
C1599 H1607 0.929 . S
C1600 C1599 1.383 . S
C1600 C1601 1.377 . S
C1601 H1585 0.930 . S
C1601 C1600 1.377 . S
C1601 C1602 1.379 . S
C1602 H1586 0.931 . S
C1602 C1596 1.383 . S
C1602 C1601 1.379 . S
H1603 C1597 0.959 . S
H1604 C1597 0.961 . S
H1605 C1597 0.960 . S
H1606 C1598 0.930 . S
H1607 C1599 0.929 . S
H1608 C1616 0.929 . S
H1609 C1618 0.880 1_545 S
H1610 C1620 0.930 . S
H1611 C1623 0.929 . S
H1612 C1626 0.930 . S
H1613 C1628 0.960 . S
H1614 C1628 0.960 . S
H1615 C1628 0.987 . S
C1616 H1608 0.929 . S
C1616 C1617 1.377 . S
C1616 C1618 1.384 . S
C1617 C1616 1.377 . S
C1617 C1623 1.390 . S
C1618 H1609 0.880 1_565 S
C1618 C1616 1.384 . S
C1618 C1619 1.372 . S
C1619 C1618 1.372 . S
C1619 C1620 1.400 . S
C1619 C1624 1.490 . S
C1620 H1610 0.930 . S
C1620 C1619 1.400 . S
C1620 C1623 1.386 . S
H1621 C1637 0.930 . S
H1622 C1638 0.931 . S
C1623 H1611 0.929 . S
C1623 C1617 1.390 . S
C1623 C1620 1.386 . S
C1624 C1619 1.490 . S
C1624 C1626 1.395 . S
C1624 C1627 1.403 1_565 S
H1625 C1631 0.930 . S
C1626 H1612 0.930 . S
C1626 C1624 1.395 . S
C1626 C1629 1.403 1_565 S
C1627 C1624 1.403 1_545 S
C1627 C1628 1.524 . S
C1627 C1631 1.400 . S
C1628 H1613 0.960 . S
C1628 H1614 0.960 . S
C1628 H1615 0.987 . S
C1628 C1627 1.524 . S
C1629 C1626 1.403 1_545 S
C1629 C1630 1.392 . S
C1629 C1633 1.495 . S
C1630 C1629 1.392 . S
C1630 C1631 1.385 . S
C1630 C1632 1.478 . S
C1631 H1625 0.930 . S
C1631 C1627 1.400 . S
C1631 C1630 1.385 . S
C1632 C1630 1.478 . S
C1632 C1634 1.381 . S
C1632 C1638 1.383 . S
C1633 C1629 1.495 . S
C1633 H1639 0.959 1_545 S
C1633 H1640 0.961 1_545 S
C1633 H1641 0.960 . S
C1634 C1632 1.381 . S
C1634 C1635 1.394 . S
C1634 H1642 0.930 . S
C1635 C1634 1.394 . S
C1635 C1636 1.383 . S
C1635 H1643 0.929 . S
C1636 C1635 1.383 . S
C1636 C1637 1.377 . S
C1637 H1621 0.930 . S
C1637 C1636 1.377 . S
C1637 C1638 1.379 . S
C1638 H1622 0.931 . S
C1638 C1632 1.383 . S
C1638 C1637 1.379 . S
H1639 C1633 0.959 1_565 S
H1640 C1633 0.961 1_565 S
H1641 C1633 0.960 . S
H1642 C1634 0.930 . S
H1643 C1635 0.929 . S
H1644 C1652 0.929 . S
H1645 C1654 0.930 1_565 S
H1646 C1656 0.930 . S
H1647 C1659 0.929 . S
H1648 C1662 0.924 1_545 S
H1649 C1664 0.960 . S
H1650 C1664 0.960 . S
H1651 C1664 0.960 1_545 S
C1652 H1644 0.929 . S
C1652 C1653 1.377 . S
C1652 C1654 1.384 . S
C1653 C1652 1.377 . S
C1653 C1659 1.390 . S
C1654 H1645 0.930 1_545 S
C1654 C1652 1.384 . S
C1654 C1655 1.372 . S
C1655 C1654 1.372 . S
C1655 C1656 1.400 . S
C1655 C1660 1.490 . S
C1656 H1646 0.930 . S
C1656 C1655 1.400 . S
C1656 C1659 1.386 . S
H1657 C1673 0.930 . S
H1658 C1674 0.931 . S
C1659 H1647 0.929 . S
C1659 C1653 1.390 . S
C1659 C1656 1.386 . S
C1660 C1655 1.490 . S
C1660 C1662 1.383 1_545 S
C1660 C1663 1.403 1_545 S
H1661 C1667 0.930 . S
C1662 H1648 0.924 1_565 S
C1662 C1660 1.383 1_565 S
C1662 C1665 1.424 . S
C1663 C1660 1.403 1_565 S
C1663 C1664 1.524 . S
C1663 C1667 1.400 . S
C1664 H1649 0.960 . S
C1664 H1650 0.960 . S
C1664 H1651 0.960 1_565 S
C1664 C1663 1.524 . S
C1665 C1662 1.424 . S
C1665 C1666 1.392 . S
C1665 C1669 1.495 . S
C1666 C1665 1.392 . S
C1666 C1667 1.385 . S
C1666 C1668 1.478 . S
C1667 H1661 0.930 . S
C1667 C1663 1.400 . S
C1667 C1666 1.385 . S
C1668 C1666 1.478 . S
C1668 C1670 1.381 . S
C1668 C1674 1.383 . S
C1669 C1665 1.495 . S
C1669 H1675 0.959 . S
C1669 H1676 0.961 . S
C1669 H1677 0.960 . S
C1670 C1668 1.381 . S
C1670 C1671 1.394 . S
C1670 H1678 0.930 . S
C1671 C1670 1.394 . S
C1671 C1672 1.383 . S
C1671 H1679 0.929 . S
C1672 C1671 1.383 . S
C1672 C1673 1.377 . S
C1673 H1657 0.930 . S
C1673 C1672 1.377 . S
C1673 C1674 1.379 . S
C1674 H1658 0.931 . S
C1674 C1668 1.383 . S
C1674 C1673 1.379 . S
H1675 C1669 0.959 . S
H1676 C1669 0.961 . S
H1677 C1669 0.960 . S
H1678 C1670 0.930 . S
H1679 C1671 0.929 . S
H1680 C1688 0.929 . S
H1681 C1690 0.930 . S
H1682 C1692 0.930 . S
H1683 C1695 0.929 . S
H1684 C1698 0.930 . S
H1685 C1700 0.960 . S
H1686 C1700 0.960 . S
H1687 C1700 0.960 . S
C1688 H1680 0.929 . S
C1688 C1689 1.377 . S
C1688 C1690 1.384 . S
C1689 C1688 1.377 . S
C1689 C1695 1.390 . S
C1690 H1681 0.930 . S
C1690 C1688 1.384 . S
C1690 C1691 1.372 . S
C1691 C1690 1.372 . S
C1691 C1692 1.400 . S
C1691 C1696 1.490 . S
C1692 H1682 0.930 . S
C1692 C1691 1.400 . S
C1692 C1695 1.386 . S
H1693 C1709 0.930 . S
H1694 C1710 0.931 . S
C1695 H1683 0.929 . S
C1695 C1689 1.390 . S
C1695 C1692 1.386 . S
C1696 C1691 1.490 . S
C1696 C1698 1.395 . S
C1696 C1699 1.403 . S
H1697 C1703 0.930 . S
C1698 H1684 0.930 . S
C1698 C1696 1.395 . S
C1698 C1701 1.403 . S
C1699 C1696 1.403 . S
C1699 C1700 1.524 1_554 S
C1699 C1703 1.400 . S
C1700 H1685 0.960 . S
C1700 H1686 0.960 . S
C1700 H1687 0.960 . S
C1700 C1699 1.524 1_556 S
C1701 C1698 1.403 . S
C1701 C1702 1.392 . S
C1701 C1705 1.495 . S
C1702 C1701 1.392 . S
C1702 C1703 1.385 . S
C1702 C1704 1.478 . S
C1703 H1697 0.930 . S
C1703 C1699 1.400 . S
C1703 C1702 1.385 . S
C1704 C1702 1.478 . S
C1704 C1706 1.381 . S
C1704 C1710 1.383 . S
C1705 C1701 1.495 . S
C1705 H1711 0.959 . S
C1705 H1712 0.961 . S
C1705 H1713 0.960 . S
C1706 C1704 1.381 . S
C1706 C1707 1.394 . S
C1706 H1714 0.930 . S
C1707 C1706 1.394 . S
C1707 C1708 1.383 . S
C1707 H1715 0.929 . S
C1708 C1707 1.383 . S
C1708 C1709 1.377 . S
C1709 H1693 0.930 . S
C1709 C1708 1.377 . S
C1709 C1710 1.379 . S
C1710 H1694 0.931 . S
C1710 C1704 1.383 . S
C1710 C1709 1.379 . S
H1711 C1705 0.959 . S
H1712 C1705 0.961 . S
H1713 C1705 0.960 . S
H1714 C1706 0.930 . S
H1715 C1707 0.929 . S
H1716 C1724 0.929 1_556 S
H1717 C1726 0.930 1_556 S
H1718 C1728 0.930 . S
H1719 C1731 0.929 . S
H1720 C1734 0.930 . S
H1721 C1736 0.960 . S
H1722 C1736 0.948 1_556 S
H1723 C1736 0.960 . S
C1724 H1716 0.929 1_554 S
C1724 C1725 1.377 . S
C1724 C1726 1.384 . S
C1725 C1724 1.377 . S
C1725 C1731 1.390 . S
C1726 H1717 0.930 1_554 S
C1726 C1724 1.384 . S
C1726 C1727 1.372 . S
C1727 C1726 1.372 . S
C1727 C1728 1.400 . S
C1727 C1732 1.490 . S
C1728 H1718 0.930 . S
C1728 C1727 1.400 . S
C1728 C1731 1.386 . S
H1729 C1745 0.930 . S
H1730 C1746 0.931 . S
C1731 H1719 0.929 . S
C1731 C1725 1.390 . S
C1731 C1728 1.386 . S
C1732 C1727 1.490 . S
C1732 C1734 1.395 . S
C1732 C1735 1.403 . S
H1733 C1739 0.930 . S
C1734 H1720 0.930 . S
C1734 C1732 1.395 . S
C1734 C1737 1.403 . S
C1735 C1732 1.403 . S
C1735 C1736 1.524 . S
C1735 C1739 1.400 . S
C1736 H1721 0.960 . S
C1736 H1722 0.948 1_554 S
C1736 H1723 0.960 . S
C1736 C1735 1.524 . S
C1737 C1734 1.403 . S
C1737 C1738 1.392 . S
C1737 C1741 1.495 . S
C1738 C1737 1.392 . S
C1738 C1739 1.385 . S
C1738 C1740 1.478 . S
C1739 H1733 0.930 . S
C1739 C1735 1.400 . S
C1739 C1738 1.385 . S
C1740 C1738 1.478 . S
C1740 C1742 1.381 . S
C1740 C1746 1.383 . S
C1741 C1737 1.495 . S
C1741 H1747 0.959 . S
C1741 H1748 0.961 . S
C1741 H1749 0.960 . S
C1742 C1740 1.381 . S
C1742 C1743 1.394 . S
C1742 H1750 0.930 1_554 S
C1743 C1742 1.394 . S
C1743 C1744 1.383 . S
C1743 H1751 0.929 1_554 S
C1744 C1743 1.383 . S
C1744 C1745 1.377 . S
C1745 H1729 0.930 . S
C1745 C1744 1.377 . S
C1745 C1746 1.379 . S
C1746 H1730 0.931 . S
C1746 C1740 1.383 . S
C1746 C1745 1.379 . S
H1747 C1741 0.959 . S
H1748 C1741 0.961 . S
H1749 C1741 0.960 . S
H1750 C1742 0.930 1_556 S
H1751 C1743 0.929 1_556 S
H1752 C1760 0.929 . S
H1753 C1762 0.930 . S
H1754 C1764 0.930 . S
H1755 C1767 0.929 . S
H1756 C1770 0.930 . S
H1757 C1772 0.960 . S
H1758 C1772 0.960 1_455 S
H1759 C1772 0.960 1_455 S
C1760 H1752 0.929 . S
C1760 C1761 1.377 . S
C1760 C1762 1.384 . S
C1761 C1760 1.377 . S
C1761 C1767 1.390 . S
C1762 H1753 0.930 . S
C1762 C1760 1.384 . S
C1762 C1763 1.372 . S
C1763 C1762 1.372 . S
C1763 C1764 1.400 . S
C1763 C1768 1.490 . S
C1764 H1754 0.930 . S
C1764 C1763 1.400 . S
C1764 C1767 1.386 . S
H1765 C1781 0.930 . S
H1766 C1782 0.931 . S
C1767 H1755 0.929 . S
C1767 C1761 1.390 . S
C1767 C1764 1.386 . S
C1768 C1763 1.490 . S
C1768 C1770 1.395 . S
C1768 C1771 1.370 1_455 S
H1769 C1775 0.930 . S
C1770 H1756 0.930 . S
C1770 C1768 1.395 . S
C1770 C1773 1.403 . S
C1771 C1768 1.370 1_655 S
C1771 C1772 1.522 . S
C1771 C1775 1.436 . S
C1772 H1757 0.960 . S
C1772 H1758 0.960 1_655 S
C1772 H1759 0.960 1_655 S
C1772 C1771 1.522 . S
C1773 C1770 1.403 . S
C1773 C1774 1.392 1_455 S
C1773 C1777 1.495 . S
C1774 C1773 1.392 1_655 S
C1774 C1775 1.385 . S
C1774 C1776 1.478 . S
C1775 H1769 0.930 . S
C1775 C1771 1.436 . S
C1775 C1774 1.385 . S
C1776 C1774 1.478 . S
C1776 C1778 1.381 . S
C1776 C1782 1.383 . S
C1777 C1773 1.495 . S
C1777 H1783 0.959 . S
C1777 H1784 0.961 1_455 S
C1777 H1785 0.960 . S
C1778 C1776 1.381 . S
C1778 C1779 1.394 . S
C1778 H1786 0.930 . S
C1779 C1778 1.394 . S
C1779 C1780 1.383 . S
C1779 H1787 0.929 . S
C1780 C1779 1.383 . S
C1780 C1781 1.377 . S
C1781 H1765 0.930 . S
C1781 C1780 1.377 . S
C1781 C1782 1.379 . S
C1782 H1766 0.931 . S
C1782 C1776 1.383 . S
C1782 C1781 1.379 . S
H1783 C1777 0.959 . S
H1784 C1777 0.961 1_655 S
H1785 C1777 0.960 . S
H1786 C1778 0.930 . S
H1787 C1779 0.929 . S
H1788 C1796 0.929 . S
H1789 C1798 0.930 . S
H1790 C1800 0.930 . S
H1791 C1803 0.929 . S
H1792 C1806 0.930 . S
H1793 C1808 0.960 . S
H1794 C1808 0.960 . S
H1795 C1808 0.960 . S
C1796 H1788 0.929 . S
C1796 C1797 1.377 . S
C1796 C1798 1.384 . S
C1797 C1796 1.377 . S
C1797 C1803 1.390 . S
C1798 H1789 0.930 . S
C1798 C1796 1.384 . S
C1798 C1799 1.372 . S
C1799 C1798 1.372 . S
C1799 C1800 1.400 . S
C1799 C1804 1.490 . S
C1800 H1790 0.930 . S
C1800 C1799 1.400 . S
C1800 C1803 1.386 . S
H1801 C1817 0.930 . S
H1802 C1818 0.931 . S
C1803 H1791 0.929 . S
C1803 C1797 1.390 . S
C1803 C1800 1.386 . S
C1804 C1799 1.490 . S
C1804 C1806 1.395 . S
C1804 C1807 1.403 . S
H1805 C1811 0.930 . S
C1806 H1792 0.930 . S
C1806 C1804 1.395 . S
C1806 C1809 1.403 . S
C1807 C1804 1.403 . S
C1807 C1808 1.524 . S
C1807 C1811 1.400 . S
C1808 H1793 0.960 . S
C1808 H1794 0.960 . S
C1808 H1795 0.960 . S
C1808 C1807 1.524 . S
C1809 C1806 1.403 . S
C1809 C1810 1.392 . S
C1809 C1813 1.495 . S
C1810 C1809 1.392 . S
C1810 C1811 1.385 . S
C1810 C1812 1.478 . S
C1811 H1805 0.930 . S
C1811 C1807 1.400 . S
C1811 C1810 1.385 . S
C1812 C1810 1.478 . S
C1812 C1814 1.381 . S
C1812 C1818 1.383 . S
C1813 C1809 1.495 . S
C1813 H1819 0.959 . S
C1813 H1820 0.961 . S
C1813 H1821 0.960 . S
C1814 C1812 1.381 . S
C1814 C1815 1.394 . S
C1814 H1822 0.930 . S
C1815 C1814 1.394 . S
C1815 C1816 1.383 . S
C1815 H1823 0.929 . S
C1816 C1815 1.383 . S
C1816 C1817 1.377 . S
C1817 H1801 0.930 . S
C1817 C1816 1.377 . S
C1817 C1818 1.379 . S
C1818 H1802 0.931 . S
C1818 C1812 1.383 . S
C1818 C1817 1.379 . S
H1819 C1813 0.959 . S
H1820 C1813 0.961 . S
H1821 C1813 0.960 . S
H1822 C1814 0.930 . S
H1823 C1815 0.929 . S
H1824 C1832 0.929 . S
H1825 C1834 0.930 . S
H1826 C1836 0.930 . S
H1827 C1839 0.929 . S
H1828 C1842 0.930 . S
H1829 C1844 0.960 . S
H1830 C1844 0.960 . S
H1831 C1844 0.960 . S
C1832 H1824 0.929 . S
C1832 C1833 1.377 . S
C1832 C1834 1.384 . S
C1833 C1832 1.377 . S
C1833 C1839 1.390 . S
C1834 H1825 0.930 . S
C1834 C1832 1.384 . S
C1834 C1835 1.372 . S
C1835 C1834 1.372 . S
C1835 C1836 1.400 . S
C1835 C1840 1.490 . S
C1836 H1826 0.930 . S
C1836 C1835 1.400 . S
C1836 C1839 1.386 . S
H1837 C1853 0.930 . S
H1838 C1854 0.931 . S
C1839 H1827 0.929 . S
C1839 C1833 1.390 . S
C1839 C1836 1.386 . S
C1840 C1835 1.490 . S
C1840 C1842 1.395 . S
C1840 C1843 1.403 . S
H1841 C1847 0.930 . S
C1842 H1828 0.930 . S
C1842 C1840 1.395 . S
C1842 C1845 1.403 . S
C1843 C1840 1.403 . S
C1843 C1844 1.524 . S
C1843 C1847 1.400 . S
C1844 H1829 0.960 . S
C1844 H1830 0.960 . S
C1844 H1831 0.960 . S
C1844 C1843 1.524 . S
C1845 C1842 1.403 . S
C1845 C1846 1.392 . S
C1845 C1849 1.495 . S
C1846 C1845 1.392 . S
C1846 C1847 1.385 . S
C1846 C1848 1.478 . S
C1847 H1841 0.930 . S
C1847 C1843 1.400 . S
C1847 C1846 1.385 . S
C1848 C1846 1.478 . S
C1848 C1850 1.381 . S
C1848 C1854 1.383 . S
C1849 C1845 1.495 . S
C1849 H1855 0.959 . S
C1849 H1856 0.961 . S
C1849 H1857 0.960 . S
C1850 C1848 1.381 . S
C1850 C1851 1.394 . S
C1850 H1858 0.930 . S
C1851 C1850 1.394 . S
C1851 C1852 1.383 . S
C1851 H1859 0.929 . S
C1852 C1851 1.383 . S
C1852 C1853 1.377 . S
C1853 H1837 0.930 . S
C1853 C1852 1.377 . S
C1853 C1854 1.379 . S
C1854 H1838 0.931 . S
C1854 C1848 1.383 . S
C1854 C1853 1.379 . S
H1855 C1849 0.959 . S
H1856 C1849 0.961 . S
H1857 C1849 0.960 . S
H1858 C1850 0.930 . S
H1859 C1851 0.929 . S
H1860 C1868 0.929 . S
H1861 C1870 0.930 . S
H1862 C1872 0.930 . S
H1863 C1875 0.929 . S
H1864 C1878 0.930 . S
H1865 C1880 0.960 . S
H1866 C1880 0.960 . S
H1867 C1880 0.960 . S
C1868 H1860 0.929 . S
C1868 C1869 1.377 . S
C1868 C1870 1.384 . S
C1869 C1868 1.377 . S
C1869 C1875 1.390 . S
C1870 H1861 0.930 . S
C1870 C1868 1.384 . S
C1870 C1871 1.372 . S
C1871 C1870 1.372 . S
C1871 C1872 1.400 . S
C1871 C1876 1.490 . S
C1872 H1862 0.930 . S
C1872 C1871 1.400 . S
C1872 C1875 1.386 . S
H1873 C1889 0.930 . S
H1874 C1890 0.931 . S
C1875 H1863 0.929 . S
C1875 C1869 1.390 . S
C1875 C1872 1.386 . S
C1876 C1871 1.490 . S
C1876 C1878 1.395 . S
C1876 C1879 1.403 1_545 S
H1877 C1883 0.930 . S
C1878 H1864 0.930 . S
C1878 C1876 1.395 . S
C1878 C1881 1.403 1_455 S
C1879 C1876 1.403 1_565 S
C1879 C1880 1.524 . S
C1879 C1883 1.400 1_455 S
C1880 H1865 0.960 . S
C1880 H1866 0.960 . S
C1880 H1867 0.960 . S
C1880 C1879 1.524 . S
C1881 C1878 1.403 1_655 S
C1881 C1882 1.392 1_545 S
C1881 C1885 1.495 . S
C1882 C1881 1.392 1_565 S
C1882 C1883 1.385 . S
C1882 C1884 1.478 . S
C1883 H1877 0.930 . S
C1883 C1879 1.400 1_655 S
C1883 C1882 1.385 . S
C1884 C1882 1.478 . S
C1884 C1886 1.381 . S
C1884 C1890 1.383 . S
C1885 C1881 1.495 . S
C1885 H1891 0.959 . S
C1885 H1892 0.961 . S
C1885 H1893 0.960 . S
C1886 C1884 1.381 . S
C1886 C1887 1.394 . S
C1886 H1894 0.930 . S
C1887 C1886 1.394 . S
C1887 C1888 1.383 . S
C1887 H1895 0.929 . S
C1888 C1887 1.383 . S
C1888 C1889 1.377 . S
C1889 H1873 0.930 . S
C1889 C1888 1.377 . S
C1889 C1890 1.379 . S
C1890 H1874 0.931 . S
C1890 C1884 1.383 . S
C1890 C1889 1.379 . S
H1891 C1885 0.959 . S
H1892 C1885 0.961 . S
H1893 C1885 0.960 . S
H1894 C1886 0.930 . S
H1895 C1887 0.929 . S
H1896 C1904 0.929 . S
H1897 C1906 0.930 . S
H1898 C1908 0.930 . S
H1899 C1911 0.929 . S
H1900 C1914 0.930 . S
H1901 C1916 0.960 . S
H1902 C1916 0.960 . S
H1903 C1916 0.960 . S
C1904 H1896 0.929 . S
C1904 C1905 1.377 . S
C1904 C1906 1.384 . S
C1905 C1904 1.377 . S
C1905 C1911 1.390 . S
C1906 H1897 0.930 . S
C1906 C1904 1.384 . S
C1906 C1907 1.372 . S
C1907 C1906 1.372 . S
C1907 C1908 1.400 . S
C1907 C1912 1.490 . S
C1908 H1898 0.930 . S
C1908 C1907 1.400 . S
C1908 C1911 1.386 . S
H1909 C1925 0.930 . S
H1910 C1926 0.931 . S
C1911 H1899 0.929 . S
C1911 C1905 1.390 . S
C1911 C1908 1.386 . S
C1912 C1907 1.490 . S
C1912 C1914 1.395 . S
C1912 C1915 1.403 . S
H1913 C1919 0.930 . S
C1914 H1900 0.930 . S
C1914 C1912 1.395 . S
C1914 C1917 1.403 . S
C1915 C1912 1.403 . S
C1915 C1916 1.524 . S
C1915 C1919 1.400 . S
C1916 H1901 0.960 . S
C1916 H1902 0.960 . S
C1916 H1903 0.960 . S
C1916 C1915 1.524 . S
C1917 C1914 1.403 . S
C1917 C1918 1.392 . S
C1917 C1921 1.495 . S
C1918 C1917 1.392 . S
C1918 C1919 1.385 . S
C1918 C1920 1.478 . S
C1919 H1913 0.930 . S
C1919 C1915 1.400 . S
C1919 C1918 1.385 . S
C1920 C1918 1.478 . S
C1920 C1922 1.381 . S
C1920 C1926 1.383 . S
C1921 C1917 1.495 . S
C1921 H1927 0.959 . S
C1921 H1928 0.961 . S
C1921 H1929 0.960 . S
C1922 C1920 1.381 . S
C1922 C1923 1.394 . S
C1922 H1930 0.930 . S
C1923 C1922 1.394 . S
C1923 C1924 1.383 . S
C1923 H1931 0.929 . S
C1924 C1923 1.383 . S
C1924 C1925 1.377 . S
C1925 H1909 0.930 . S
C1925 C1924 1.377 . S
C1925 C1926 1.379 . S
C1926 H1910 0.931 . S
C1926 C1920 1.383 . S
C1926 C1925 1.379 . S
H1927 C1921 0.959 . S
H1928 C1921 0.961 . S
H1929 C1921 0.960 . S
H1930 C1922 0.930 . S
H1931 C1923 0.929 . S
H1932 C1940 0.929 . S
H1933 C1942 0.930 . S
H1934 C1944 0.930 . S
H1935 C1947 0.929 . S
H1936 C1950 0.930 . S
H1937 C1952 0.960 . S
H1938 C1952 0.960 . S
H1939 C1952 0.960 . S
C1940 H1932 0.929 . S
C1940 C1941 1.377 . S
C1940 C1942 1.384 . S
C1941 C1940 1.377 . S
C1941 C1947 1.390 . S
C1942 H1933 0.930 . S
C1942 C1940 1.384 . S
C1942 C1943 1.372 . S
C1943 C1942 1.372 . S
C1943 C1944 1.400 . S
C1943 C1948 1.490 . S
C1944 H1934 0.930 . S
C1944 C1943 1.400 . S
C1944 C1947 1.386 . S
H1945 C1961 0.930 . S
H1946 C1962 0.931 . S
C1947 H1935 0.929 . S
C1947 C1941 1.390 . S
C1947 C1944 1.386 . S
C1948 C1943 1.490 . S
C1948 C1950 1.395 1_565 S
C1948 C1951 1.403 . S
H1949 C1955 0.930 . S
C1950 H1936 0.930 . S
C1950 C1948 1.395 1_545 S
C1950 C1953 1.403 . S
C1951 C1948 1.403 . S
C1951 C1952 1.524 . S
C1951 C1955 1.400 . S
C1952 H1937 0.960 . S
C1952 H1938 0.960 . S
C1952 H1939 0.960 . S
C1952 C1951 1.524 . S
C1953 C1950 1.403 . S
C1953 C1954 1.392 . S
C1953 C1957 1.495 . S
C1954 C1953 1.392 . S
C1954 C1955 1.385 1_545 S
C1954 C1956 1.478 . S
C1955 H1949 0.930 . S
C1955 C1951 1.400 . S
C1955 C1954 1.385 1_565 S
C1956 C1954 1.478 . S
C1956 C1958 1.381 . S
C1956 C1962 1.383 . S
C1957 C1953 1.495 . S
C1957 H1963 0.959 . S
C1957 H1964 0.961 . S
C1957 H1965 0.960 . S
C1958 C1956 1.381 . S
C1958 C1959 1.394 . S
C1958 H1966 0.930 . S
C1959 C1958 1.394 . S
C1959 C1960 1.383 . S
C1959 H1967 0.929 . S
C1960 C1959 1.383 . S
C1960 C1961 1.377 . S
C1961 H1945 0.930 . S
C1961 C1960 1.377 . S
C1961 C1962 1.379 . S
C1962 H1946 0.931 . S
C1962 C1956 1.383 . S
C1962 C1961 1.379 . S
H1963 C1957 0.959 . S
H1964 C1957 0.961 . S
H1965 C1957 0.960 . S
H1966 C1958 0.930 . S
H1967 C1959 0.929 . S
C537 N2 1.816 . S
C556 N376 1.814 . S
C573 N35 1.816 . S
C592 N343 1.812 . S
C609 C51 1.259 . S
C628 C73 1.238 . S
C645 C18 1.260 . S
C664 C106 1.234 . S
C681 N134 1.824 . S
C700 N508 1.838 . S
C717 N167 1.815 . S
C736 N475 1.816 . S
C753 C183 1.261 . S
C772 C205 1.225 . S
C789 C238 1.244 . S
C808 C150 1.255 . S
C825 N112 1.831 . S
C844 N266 1.804 . S
C861 N79 1.838 . S
C880 N299 1.836 . S
C897 C315 1.258 . S
C916 C337 1.265 . S
C933 C282 1.259 . S
C952 C370 1.235 . S
C969 N398 1.824 . S
C988 N244 1.845 . S
C1005 N431 1.817 . S
C1024 N211 1.812 . S
C1041 C469 1.245 . S
C1060 C447 1.265 . S
C1077 C414 1.260 . S
C1096 C502 1.233 . S
C1113 C186 1.418 . S
C1132 N13 1.371 . S
C1149 C153 1.418 . S
C1168 N46 1.386 . S
C1185 C84 1.251 . S
C1204 C384 1.259 . S
C1221 C351 1.254 . S
C1240 C117 1.237 . S
C1257 C54 1.418 . S
C1276 N145 1.369 . S
C1293 C21 1.418 . S
C1312 N178 1.387 . S
C1329 C216 1.251 . S
C1348 C516 1.249 . S
C1365 C249 1.248 . S
C1384 C483 1.255 . S
C1401 N277 1.386 . S
C1420 C450 1.413 . S
C1437 C417 1.418 . S
C1456 N310 1.396 . S
C1473 C120 1.256 . S
C1492 C348 1.261 . S
C1509 C87 1.255 . S
C1528 C381 1.234 . S
C1545 C318 1.419 . S
C1564 N409 1.394 . S
C1581 C285 1.418 . S
C1600 N442 1.366 . S
C1617 C252 1.255 . S
C1636 C480 1.234 . S
C1653 C219 1.256 . S
C1672 C513 1.235 . S
C1689 C436 1.049 . S
C1708 C7 1.070 . S
C1725 C40 1.048 . S
C1744 C403 1.054 . S
C1761 N68 1.279 . S
C1780 N101 1.272 . S
C1797 C304 1.059 . S
C1816 C139 1.052 . S
C1833 C172 1.058 . S
C1852 C271 1.032 . S
C1869 N200 1.269 . S
C1888 N233 1.247 . S
C1905 N365 1.279 . S
C1924 N332 1.274 . S
C1941 N497 1.277 . S
C1960 N464 1.293 . S
