# Generated by pormake.
# Topology uni, (4)-cn, num edge types: 1
# Building blocks:
#     Node 0, Type 0, BuildingBlock: ICAMEG_clean_sbu_1, # of connection points: 4
#     Node 1, Type 0, BuildingBlock: ICAMEG_clean_sbu_1, # of connection points: 4
#     Node 2, Type 0, BuildingBlock: ICAMEG_clean_sbu_1, # of connection points: 4
#     Node 3, Type 0, BuildingBlock: ICAMEG_clean_sbu_1, # of connection points: 4
#     Node 4, Type 0, BuildingBlock: ICAMEG_clean_sbu_1, # of connection points: 4
#     Node 5, Type 0, BuildingBlock: ICAMEG_clean_sbu_1, # of connection points: 4
#     Edge 6, Type (0, 0), BuildingBlock: UVAHIK_clean_linker_0, # of connection points: 2
#     Edge 7, Type (0, 0), BuildingBlock: UVAHIK_clean_linker_0, # of connection points: 2
#     Edge 8, Type (0, 0), BuildingBlock: UVAHIK_clean_linker_0, # of connection points: 2
#     Edge 9, Type (0, 0), BuildingBlock: UVAHIK_clean_linker_0, # of connection points: 2
#     Edge 10, Type (0, 0), BuildingBlock: UVAHIK_clean_linker_0, # of connection points: 2
#     Edge 11, Type (0, 0), BuildingBlock: UVAHIK_clean_linker_0, # of connection points: 2
#     Edge 12, Type (0, 0), BuildingBlock: UVAHIK_clean_linker_0, # of connection points: 2
#     Edge 13, Type (0, 0), BuildingBlock: UVAHIK_clean_linker_0, # of connection points: 2
#     Edge 14, Type (0, 0), BuildingBlock: UVAHIK_clean_linker_0, # of connection points: 2
#     Edge 15, Type (0, 0), BuildingBlock: UVAHIK_clean_linker_0, # of connection points: 2
#     Edge 16, Type (0, 0), BuildingBlock: UVAHIK_clean_linker_0, # of connection points: 2
#     Edge 17, Type (0, 0), BuildingBlock: UVAHIK_clean_linker_0, # of connection points: 2
# Relax obj value: 0.140
# Max RMSD: 0.183
# Mean RMSD: 0.183
data_MOF--net-uni--node1-ICAMEG_clean_sbu_1--edge1-UVAHIK_clean_linker_0
_symmetry_space_group_name_H-M    P1
_symmetry_Int_Tables_number       1
_symmetry_cell_setting            triclinic
loop_
_symmetry_equiv_pos_as_xyz
'x, y, z'
_cell_length_a     51.734265
_cell_length_b     51.820914
_cell_length_c     31.642831
_cell_angle_alpha  90.049884
_cell_angle_beta   89.95747
_cell_angle_gamma 119.97325
loop_
_atom_site_label
_atom_site_type_symbol
_atom_site_fract_x
_atom_site_fract_y
_atom_site_fract_z
_atom_type_partial_charge
Co0 Co 0.63769 0.01101 0.0386 0.0
Co1 Co 0.69653 0.07206 0.08354 0.0
O2 O 0.67197 0.05135 0.0345 0.0
C3 C 0.61396 0.04434 0.99116 0.0
O4 O 0.62574 0.06546 0.01981 0.0
C5 C 0.75776 0.09428 0.05093 0.0
O6 O 0.76149 0.0795 0.08178 0.0
O7 O 0.7041 0.03833 0.09285 0.0
O8 O 0.65824 0.99943 0.08193 0.0
H9 H 0.73276 0.07918 0.23267 0.0
H10 H 0.66476 0.03551 0.95502 0.0
O11 O 0.61634 0.02114 0.99468 0.0
H12 H 0.67125 0.94432 0.97202 0.0
H13 H 0.55195 0.9166 0.97997 0.0
H14 H 0.60512 0.96982 0.10923 0.0
H15 H 0.64838 0.95985 0.02752 0.0
H16 H 0.59609 0.96691 0.97564 0.0
O17 O 0.73231 0.09212 0.04537 0.0
H18 H 0.70161 0.05391 0.17041 0.0
H19 H 0.745 0.13463 0.10061 0.0
H20 H 0.56121 0.91946 0.11498 0.0
H21 H 0.68754 0.02061 0.89851 0.0
H22 H 0.5343 0.8925 0.05003 0.0
H23 H 0.69093 0.97474 0.90686 0.0
O24 O 0.62016 0.02383 0.08442 0.0
H25 H 0.68775 0.14723 0.99373 0.0
H26 H 0.67755 0.10704 0.13774 0.0
H27 H 0.66629 0.14728 0.1248 0.0
H28 H 0.67147 0.16775 0.05236 0.0
H29 H 0.69832 0.10664 0.00799 0.0
H30 H 0.77669 0.16074 0.16205 0.0
H31 H 0.77064 0.13298 0.22871 0.0
O32 O 0.66114 0.05299 0.12253 0.0
C33 C 0.68499 0.01063 0.09523 0.0
C34 C 0.7356 0.09152 0.20382 0.0
C35 C 0.76025 0.1373 0.16419 0.0
N36 N 0.72143 0.09276 0.13195 0.0
C37 C 0.71801 0.07734 0.16848 0.0
C38 C 0.74225 0.12239 0.1295 0.0
C39 C 0.75684 0.12171 0.20157 0.0
C40 C 0.66598 0.01541 0.95875 0.0
N41 N 0.6551 0.9985 0.99441 0.0
C42 C 0.67898 0.00713 0.9267 0.0
C43 C 0.6809 0.98141 0.93143 0.0
C44 C 0.66987 0.96434 0.96798 0.0
C45 C 0.65701 0.97329 0.99935 0.0
C46 C 0.56351 0.9281 0.0085 0.0
C47 C 0.59363 0.95818 0.0808 0.0
C48 C 0.58847 0.95663 0.00625 0.0
N49 N 0.60327 0.97123 0.04213 0.0
C50 C 0.56873 0.92969 0.08427 0.0
C51 C 0.55363 0.91459 0.04781 0.0
C52 C 0.6328 0.03776 0.11835 0.0
C53 C 0.68547 0.13855 0.02545 0.0
C54 C 0.67959 0.1156 0.10609 0.0
C55 C 0.67333 0.13851 0.09898 0.0
C56 C 0.67629 0.15001 0.05834 0.0
N57 N 0.6886 0.10446 0.07368 0.0
C58 C 0.69156 0.11565 0.03376 0.0
Co59 Co 0.66562 0.64896 0.21819 0.0
Co60 Co 0.67168 0.70426 0.28333 0.0
O61 O 0.66036 0.68308 0.22951 0.0
C62 C 0.60638 0.60499 0.18355 0.0
O63 O 0.60473 0.58674 0.21359 0.0
C64 C 0.70174 0.75627 0.22394 0.0
O65 O 0.71793 0.74566 0.20778 0.0
O66 O 0.71294 0.71094 0.27727 0.0
O67 O 0.70314 0.66634 0.25264 0.0
H68 H 0.71995 0.72977 0.4266 0.0
H69 H 0.65815 0.68219 0.14751 0.0
O70 O 0.62856 0.63147 0.18233 0.0
H71 H 0.75498 0.68811 0.12178 0.0
H72 H 0.66615 0.56972 0.12614 0.0
H73 H 0.68058 0.61081 0.27037 0.0
H74 H 0.72424 0.66063 0.18321 0.0
H75 H 0.66056 0.61344 0.14084 0.0
O76 O 0.68305 0.74237 0.25328 0.0
H77 H 0.70435 0.70237 0.3591 0.0
H78 H 0.66464 0.75325 0.32107 0.0
H79 H 0.68646 0.56711 0.25706 0.0
H80 H 0.68804 0.70963 0.0854 0.0
H81 H 0.67921 0.54627 0.1845 0.0
H82 H 0.73688 0.71277 0.07225 0.0
O83 O 0.6416 0.62838 0.26966 0.0
H84 H 0.57836 0.70115 0.23156 0.0
H85 H 0.62685 0.68345 0.35331 0.0
H86 H 0.57533 0.67381 0.36037 0.0
H87 H 0.55076 0.68279 0.29923 0.0
H88 H 0.62976 0.71015 0.22576 0.0
H89 H 0.68002 0.78136 0.38801 0.0
H90 H 0.70778 0.76959 0.44141 0.0
O91 O 0.65961 0.66661 0.31521 0.0
C92 C 0.72084 0.69176 0.26891 0.0
C93 C 0.70779 0.73504 0.40364 0.0
C94 C 0.68541 0.76403 0.38196 0.0
N95 N 0.68341 0.72603 0.33631 0.0
C96 C 0.69883 0.71955 0.36541 0.0
C97 C 0.67683 0.74808 0.34406 0.0
C98 C 0.70098 0.7574 0.41191 0.0
C99 C 0.67925 0.68323 0.14183 0.0
N100 N 0.68932 0.66966 0.16888 0.0
C101 C 0.69613 0.6989 0.10668 0.0
C102 C 0.72355 0.70069 0.09935 0.0
C103 C 0.73373 0.68687 0.12714 0.0
C104 C 0.71625 0.67142 0.16197 0.0
C105 C 0.66938 0.57861 0.15788 0.0
C106 C 0.67744 0.6019 0.23871 0.0
C107 C 0.66624 0.60335 0.1664 0.0
N108 N 0.67029 0.61469 0.20644 0.0
C109 C 0.68078 0.57714 0.23136 0.0
C110 C 0.67671 0.56546 0.19065 0.0
C111 C 0.64486 0.63878 0.30713 0.0
C112 C 0.58882 0.69716 0.25844 0.0
C113 C 0.61625 0.68714 0.32647 0.0
C114 C 0.5871 0.68178 0.3307 0.0
C115 C 0.57334 0.68684 0.2964 0.0
N116 N 0.63132 0.69731 0.28916 0.0
C117 C 0.61794 0.70226 0.25537 0.0
Co118 Co 0.07625 0.67224 0.36503 0.0
Co119 Co 0.01877 0.67358 0.41667 0.0
O120 O 0.03653 0.66803 0.3654 0.0
C121 C 0.0393 0.6143 0.32022 0.0
O122 O 0.01983 0.60527 0.35123 0.0
C123 C 0.99817 0.7147 0.38799 0.0
O124 O 0.01447 0.73271 0.41847 0.0
O125 O 0.05434 0.7141 0.42445 0.0
O126 O 0.09129 0.70534 0.40719 0.0
H127 H 0.01965 0.70466 0.56735 0.0
H128 H 0.04798 0.67447 0.2847 0.0
O129 O 0.0627 0.63985 0.32177 0.0
H130 H 0.1428 0.76985 0.29202 0.0
H131 H 0.16568 0.67544 0.29633 0.0
H132 H 0.12039 0.68044 0.43103 0.0
H133 H 0.12872 0.73254 0.34864 0.0
H134 H 0.11614 0.67143 0.2974 0.0
O135 O 0.99873 0.69069 0.38117 0.0
H136 H 0.04127 0.69685 0.50241 0.0
H137 H 0.95797 0.66272 0.4396 0.0
H138 H 0.17007 0.68477 0.43137 0.0
H139 H 0.06135 0.71104 0.22711 0.0
H140 H 0.19305 0.68228 0.36365 0.0
H141 H 0.10904 0.75915 0.2306 0.0
O142 O 0.06469 0.64271 0.41182 0.0
H143 H 0.93768 0.59112 0.33127 0.0
H144 H 0.98382 0.62053 0.47226 0.0
H145 H 0.9414 0.56985 0.46141 0.0
H146 H 0.91795 0.55487 0.39049 0.0
H147 H 0.98044 0.64145 0.34341 0.0
H148 H 0.93547 0.67023 0.50381 0.0
H149 H 0.96638 0.69132 0.5683 0.0
O150 O 0.03789 0.65601 0.45287 0.0
C151 C 0.08193 0.72178 0.42317 0.0
C152 C 0.00594 0.69543 0.53946 0.0
C153 C 0.9587 0.67611 0.50381 0.0
N154 N 1.00091 0.67929 0.46729 0.0
C155 C 0.01806 0.69095 0.50261 0.0
C156 C 0.97157 0.67191 0.46754 0.0
C157 C 0.97606 0.68795 0.53997 0.0
C158 C 0.06885 0.69529 0.28633 0.0
N159 N 0.08758 0.7013 0.31994 0.0
C160 C 0.07627 0.71594 0.25367 0.0
C161 C 0.10302 0.74294 0.25567 0.0
C162 C 0.12196 0.74897 0.29013 0.0
C163 C 0.11381 0.72778 0.32218 0.0
C164 C 0.15592 0.67659 0.32603 0.0
C165 C 0.13029 0.67947 0.40141 0.0
C166 C 0.12783 0.67425 0.32685 0.0
N167 N 0.11544 0.67586 0.36423 0.0
C168 C 0.15841 0.68187 0.40181 0.0
C169 C 0.17127 0.68044 0.36381 0.0
C170 C 0.05225 0.64218 0.44694 0.0
C171 C 0.94766 0.5974 0.36234 0.0
C172 C 0.97393 0.61414 0.44126 0.0
C173 C 0.9498 0.58543 0.43533 0.0
C174 C 0.93663 0.57706 0.39556 0.0
N175 N 0.98462 0.63399 0.40855 0.0
C176 C 0.97181 0.62592 0.36946 0.0
Co177 Co 0.45238 0.07515 0.53712 0.0
Co178 Co 0.39081 0.02134 0.58904 0.0
O179 O 0.4158 0.0361 0.53825 0.0
C180 C 0.46661 0.03396 0.48686 0.0
O181 O 0.44325 0.01034 0.50221 0.0
C182 C 0.33012 1.00056 0.55497 0.0
O183 O 0.32777 0.01856 0.58196 0.0
O184 O 0.38689 0.05763 0.59 0.0
O185 O 0.43381 0.09259 0.57471 0.0
H186 H 0.35691 0.0309 0.73413 0.0
H187 H 0.42251 0.0446 0.45722 0.0
O188 O 0.47286 0.05999 0.49854 0.0
H189 H 0.4283 0.1424 0.45158 0.0
H190 H 0.54283 0.16085 0.46974 0.0
H191 H 0.48695 0.12047 0.60243 0.0
H192 H 0.44846 0.12874 0.51266 0.0
H193 H 0.49625 0.11231 0.47045 0.0
O194 O 0.35466 1.00045 0.55182 0.0
H195 H 0.38837 0.04853 0.67025 0.0
H196 H 0.33912 0.96256 0.61503 0.0
H197 H 0.5333 0.16923 0.60305 0.0
H198 H 0.40242 0.0575 0.39529 0.0
H199 H 0.56158 0.18973 0.53636 0.0
H200 H 0.4052 0.10671 0.39218 0.0
O201 O 0.46783 0.06388 0.5873 0.0
H202 H 0.38752 0.93205 0.52083 0.0
H203 H 0.40769 0.98969 0.65272 0.0
H204 H 0.41338 0.94526 0.65144 0.0
H205 H 0.40311 0.91598 0.58519 0.0
H206 H 0.38275 0.97702 0.52323 0.0
H207 H 0.30711 0.94402 0.67828 0.0
H208 H 0.31593 0.9783 0.73842 0.0
O209 O 0.42649 0.04148 0.62712 0.0
C210 C 0.40765 0.08475 0.58819 0.0
C211 C 0.35286 0.01575 0.70814 0.0
C212 C 0.32491 0.96699 0.67681 0.0
N213 N 0.36565 0.00661 0.63896 0.0
C214 C 0.37061 0.0256 0.67189 0.0
C215 C 0.34312 0.97761 0.64108 0.0
C216 C 0.32987 0.98623 0.71053 0.0
C217 C 0.42413 0.06617 0.45598 0.0
N218 N 0.43701 0.086 0.48839 0.0
C219 C 0.41256 0.0733 0.42088 0.0
C220 C 0.41409 0.1009 0.41918 0.0
C221 C 0.42703 0.12092 0.45249 0.0
C222 C 0.43837 0.11302 0.48707 0.0
C223 C 0.53068 0.15218 0.499 0.0
C224 C 0.49904 0.1293 0.57323 0.0
C225 C 0.50433 0.12466 0.49962 0.0
N226 N 0.48877 0.11363 0.53642 0.0
C227 C 0.52531 0.1569 0.5738 0.0
C228 C 0.54118 0.16837 0.53638 0.0
C229 C 0.45473 0.05369 0.62262 0.0
C230 C 0.39204 0.94461 0.5499 0.0
C231 C 0.40362 0.97739 0.62357 0.0
C232 C 0.40666 0.95209 0.62314 0.0
C233 C 0.40084 0.93564 0.58599 0.0
N234 N 0.39506 0.98613 0.58799 0.0
C235 C 0.38924 0.97003 0.55151 0.0
Co236 Co 0.42854 0.45413 0.71749 0.0
Co237 Co 0.41911 0.3932 0.77261 0.0
O238 O 0.43097 0.41768 0.72146 0.0
C239 C 0.48392 0.46597 0.66873 0.0
O240 O 0.4816 0.44102 0.68225 0.0
C241 C 0.38096 0.33254 0.7372 0.0
O242 O 0.35964 0.32956 0.76281 0.0
O243 O 0.37885 0.38906 0.76913 0.0
O244 O 0.39111 0.43585 0.75257 0.0
H245 H 0.37013 0.35987 0.91471 0.0
H246 H 0.43052 0.42201 0.64021 0.0
O247 O 0.46562 0.47414 0.68114 0.0
H248 H 0.34039 0.43065 0.62467 0.0
H249 H 0.43625 0.54425 0.64488 0.0
H250 H 0.41543 0.48912 0.77918 0.0
H251 H 0.37254 0.4512 0.68733 0.0
H252 H 0.43799 0.49762 0.64885 0.0
O253 O 0.40561 0.35711 0.73587 0.0
H254 H 0.38626 0.39097 0.85049 0.0
H255 H 0.42545 0.34186 0.8025 0.0
H256 H 0.41317 0.53552 0.7765 0.0
H257 H 0.39928 0.40156 0.57684 0.0
H258 H 0.42364 0.56342 0.70898 0.0
H259 H 0.35378 0.40576 0.56868 0.0
O260 O 0.45355 0.4699 0.76933 0.0
H261 H 0.50818 0.3902 0.71477 0.0
H262 H 0.46508 0.41077 0.84055 0.0
H263 H 0.51541 0.41697 0.84464 0.0
H264 H 0.53728 0.40655 0.78149 0.0
H265 H 0.45813 0.38483 0.71179 0.0
H266 H 0.40972 0.31021 0.86618 0.0
H267 H 0.38187 0.31915 0.92286 0.0
O268 O 0.43289 0.42902 0.81002 0.0
C269 C 0.37234 0.40963 0.76529 0.0
C270 C 0.38228 0.35577 0.89025 0.0
C271 C 0.4045 0.3279 0.86302 0.0
N272 N 0.40685 0.36831 0.82283 0.0
C273 C 0.39148 0.37332 0.85383 0.0
C274 C 0.41336 0.34591 0.82705 0.0
C275 C 0.38887 0.33293 0.89481 0.0
C276 C 0.41111 0.42441 0.63679 0.0
N277 N 0.40382 0.43839 0.66725 0.0
C278 C 0.39333 0.41257 0.60086 0.0
C279 C 0.36778 0.41487 0.59633 0.0
C280 C 0.36026 0.42883 0.62772 0.0
C281 C 0.37857 0.44042 0.66319 0.0
C282 C 0.43161 0.53227 0.67447 0.0
C283 C 0.41985 0.50105 0.74962 0.0
C284 C 0.43265 0.50589 0.67695 0.0
N285 N 0.42663 0.49055 0.71417 0.0
C286 C 0.41861 0.52735 0.74832 0.0
C287 C 0.42451 0.54301 0.71044 0.0
C288 C 0.44926 0.45716 0.80525 0.0
C289 C 0.49891 0.39485 0.7425 0.0
C290 C 0.47455 0.40662 0.8127 0.0
C291 C 0.50301 0.40996 0.81533 0.0
C292 C 0.51524 0.40406 0.77992 0.0
N293 N 0.45869 0.39771 0.77581 0.0
C294 C 0.47051 0.39175 0.74105 0.0
Co295 Co 0.01746 0.42704 0.86477 0.0
Co296 Co 0.06964 0.41983 0.92214 0.0
O297 O 0.05676 0.43037 0.86989 0.0
C298 C 0.05994 0.48213 0.81458 0.0
O299 O 0.08325 0.48086 0.82798 0.0
C300 C 0.09291 0.38151 0.88989 0.0
O301 O 0.07459 0.36078 0.91615 0.0
O302 O 0.03383 0.37924 0.92016 0.0
O303 O 0.99891 0.39043 0.901 0.0
H304 H 0.05473 0.37434 0.06662 0.0
H305 H 0.05224 0.4287 0.7885 0.0
O306 O 0.03379 0.46334 0.82738 0.0
H307 H 0.95469 0.3371 0.77405 0.0
H308 H 0.93403 0.43145 0.78915 0.0
H309 H 0.96887 0.41415 0.92557 0.0
H310 H 0.9653 0.37001 0.8356 0.0
H311 H 0.98293 0.43428 0.79455 0.0
O312 O 0.09272 0.40597 0.88691 0.0
H313 H 0.03933 0.38864 1.00106 0.0
H314 H 0.12774 0.42767 0.95335 0.0
H315 H 0.91969 0.41082 0.92146 0.0
H316 H 0.04243 0.39667 0.72622 0.0
H317 H 0.90198 0.41951 0.85287 0.0
H318 H 0.99334 0.35043 0.71863 0.0
O319 O 0.02595 0.45276 0.91558 0.0
H320 H 0.16065 0.50822 0.86141 0.0
H321 H 0.09765 0.46727 0.98817 0.0
H322 H 0.14129 0.51789 0.99048 0.0
H323 H 0.17324 0.53867 0.92683 0.0
H324 H 0.11647 0.45788 0.86022 0.0
H325 H 0.14409 0.41375 0.01837 0.0
H326 H 0.10745 0.3869 0.07558 0.0
O327 O 0.04717 0.434 0.95809 0.0
C328 C 0.00663 0.37231 0.91557 0.0
C329 C 0.07091 0.38606 0.04193 0.0
C330 C 0.12106 0.40818 0.01486 0.0
N331 N 0.08261 0.40903 0.97344 0.0
C332 C 0.06232 0.39423 1.00475 0.0
C333 C 0.11167 0.41601 0.97812 0.0
C334 C 0.10049 0.39311 0.04694 0.0
C335 C 0.03069 0.40893 0.7853 0.0
N336 N 0.00922 0.40165 0.81545 0.0
C337 C 0.02532 0.39073 0.75 0.0
C338 C 0.9978 0.36476 0.74579 0.0
C339 C 0.97611 0.35727 0.77687 0.0
C340 C 0.98228 0.37601 0.81171 0.0
C341 C 0.94148 0.42757 0.8192 0.0
C342 C 0.96125 0.41778 0.89555 0.0
C343 C 0.96919 0.42923 0.82249 0.0
N344 N 0.97868 0.42419 0.86031 0.0
C345 C 0.93341 0.41594 0.89344 0.0
C346 C 0.92351 0.42085 0.85496 0.0
C347 C 0.03462 0.44956 0.95197 0.0
C348 C 0.1469 0.49943 0.88935 0.0
C349 C 0.11114 0.47625 0.96013 0.0
C350 C 0.13598 0.50489 0.96173 0.0
C351 C 0.15393 0.51651 0.92604 0.0
N352 N 0.10432 0.45963 0.92397 0.0
C353 C 0.12189 0.47087 0.88892 0.0
C354 C 0.62727 0.05442 0.19054 0.0
C355 C 0.61412 0.03579 0.15529 0.0
C356 C 0.61009 0.05282 0.22553 0.0
C357 C 0.54298 0.00377 0.28481 0.0
H358 H 0.55038 0.07717 0.3281 0.0
C359 C 0.47111 0.00612 0.42485 0.0
C360 C 0.48389 0.03111 0.45161 0.0
C361 C 0.48629 0.00531 0.38859 0.0
C362 C 0.54836 0.05646 0.31705 0.0
H363 H 0.57248 1.00022 0.12999 0.0
H364 H 0.54253 0.99703 0.19198 0.0
H365 H 0.57771 0.07829 0.26493 0.0
H366 H 0.52322 0.07411 0.46264 0.0
H367 H 0.55019 0.07215 0.40098 0.0
H368 H 0.51444 0.98199 0.33768 0.0
C369 C 0.56618 0.01312 0.19191 0.0
C370 C 0.56389 0.05714 0.28054 0.0
C371 C 0.58332 0.01509 0.15638 0.0
C372 C 0.51264 0.05465 0.44241 0.0
C373 C 0.52798 0.05363 0.40668 0.0
C374 C 0.52774 0.00312 0.32183 0.0
C375 C 0.5794 0.03217 0.22667 0.0
C376 C 0.56153 0.03087 0.26418 0.0
C377 C 0.51477 0.0293 0.37861 0.0
C378 C 0.53042 0.02953 0.3387 0.0
H379 H 0.65093 0.07037 0.19127 0.0
H380 H 0.62093 0.06752 0.2521 0.0
H381 H 0.54095 0.98321 0.273 0.0
H382 H 0.44887 0.98773 0.43092 0.0
H383 H 0.47519 0.98629 0.3677 0.0
C384 C 0.63255 0.63026 0.38413 0.0
C385 C 0.63096 0.6183 0.34364 0.0
C386 C 0.61879 0.61182 0.41873 0.0
C387 C 0.56099 0.53461 0.44802 0.0
H388 H 0.59441 0.56267 0.55962 0.0
C389 C 0.51342 0.46763 0.60486 0.0
C390 C 0.50474 0.48251 0.63382 0.0
C391 C 0.53051 0.48249 0.56929 0.0
C392 C 0.5849 0.55456 0.52862 0.0
H393 H 0.61419 0.57711 0.30837 0.0
H394 H 0.59095 0.54463 0.36946 0.0
H395 H 0.62188 0.59057 0.49742 0.0
H396 H 0.50782 0.52478 0.64882 0.0
H397 H 0.53884 0.55107 0.58758 0.0
H398 H 0.52433 0.49807 0.47999 0.0
C399 C 0.60221 0.56851 0.37405 0.0
C400 C 0.60047 0.57063 0.49286 0.0
C401 C 0.6157 0.58713 0.339 0.0
C402 C 0.51427 0.51278 0.62716 0.0
C403 C 0.53198 0.5278 0.59219 0.0
C404 C 0.54573 0.51817 0.48389 0.0
C405 C 0.60347 0.58066 0.41445 0.0
C406 C 0.58838 0.5614 0.45203 0.0
C407 C 0.53987 0.51268 0.56263 0.0
C408 C 0.55726 0.5284 0.5245 0.0
H409 H 0.64417 0.65409 0.38934 0.0
H410 H 0.61975 0.62226 0.44878 0.0
H411 H 0.55073 0.52684 0.41737 0.0
H412 H 0.50614 0.44422 0.60889 0.0
H413 H 0.53639 0.47042 0.54693 0.0
C414 C 0.04004 0.5087 0.77138 0.0
C415 C 0.06294 0.5023 0.7794 0.0
C416 C 0.04085 0.52472 0.73543 0.0
C417 C 0.08996 0.57186 0.64728 0.0
H418 H 0.01362 0.54795 0.59448 0.0
C419 C 0.07473 0.61434 0.48259 0.0
C420 C 0.0548 0.62541 0.48326 0.0
C421 C 0.07725 0.5992 0.51772 0.0
C422 C 0.0351 0.55488 0.60891 0.0
H423 H 0.10507 0.50831 0.75642 0.0
H424 H 0.10612 0.53551 0.69292 0.0
H425 H 0.01552 0.52251 0.65792 0.0
H426 H 0.02223 0.62941 0.52196 0.0
H427 H 0.026 0.60238 0.58197 0.0
H428 H 0.10937 0.60387 0.59709 0.0
C429 C 0.08778 0.52876 0.71485 0.0
C430 C 0.03623 0.5405 0.64556 0.0
C431 C 0.08719 0.51309 0.75129 0.0
C432 C 0.03751 0.62092 0.51981 0.0
C433 C 0.03966 0.60541 0.55438 0.0
C434 C 0.08883 0.58599 0.61011 0.0
C435 C 0.06431 0.5343 0.706 0.0
C436 C 0.0636 0.5491 0.66581 0.0
C437 C 0.05952 0.5944 0.55379 0.0
C438 C 0.06132 0.57794 0.59099 0.0
H439 H 0.02116 0.50091 0.79262 0.0
H440 H 0.0228 0.52928 0.73056 0.0
H441 H 0.11143 0.57932 0.662 0.0
H442 H 0.08857 0.6176 0.45516 0.0
H443 H 0.09273 0.59089 0.51648 0.0
C444 C 0.59776 0.07373 0.94582 0.0
C445 C 0.59838 0.04734 0.95373 0.0
C446 C 0.58326 0.07622 0.90991 0.0
C447 C 0.52487 0.0299 0.8326 0.0
H448 H 0.55984 0.10111 0.76324 0.0
C449 C 0.45828 0.04516 0.69979 0.0
C450 C 0.47261 0.05593 0.66064 0.0
C451 C 0.47444 0.04595 0.73552 0.0
C452 C 0.54989 0.08103 0.7822 0.0
H453 H 0.58444 0.00299 0.92976 0.0
H454 H 0.55938 0.00738 0.86768 0.0
H455 H 0.58656 0.09892 0.82583 0.0
H456 H 0.51556 0.07685 0.62898 0.0
H457 H 0.54385 0.07805 0.6917 0.0
H458 H 0.48847 0.01176 0.789 0.0
C459 C 0.56977 0.02605 0.8893 0.0
C460 C 0.56503 0.0799 0.81827 0.0
C461 C 0.5843 0.02361 0.92491 0.0
C462 C 0.50376 0.06823 0.65851 0.0
C463 C 0.52 0.06908 0.6945 0.0
C464 C 0.50973 0.03108 0.79682 0.0
C465 C 0.56894 0.0523 0.88139 0.0
C466 C 0.55273 0.05423 0.84376 0.0
C467 C 0.50542 0.05756 0.73328 0.0
C468 C 0.52201 0.05663 0.77114 0.0
H469 H 0.60851 0.09248 0.96727 0.0
H470 H 0.58285 0.09668 0.90483 0.0
H471 H 0.51461 0.00991 0.85174 0.0
H472 H 0.4344 0.03582 0.70298 0.0
H473 H 0.46258 0.0374 0.76503 0.0
C474 C 0.59064 0.61129 0.11097 0.0
C475 C 0.58581 0.59336 0.14681 0.0
C476 C 0.57379 0.59926 0.0742 0.0
C477 C 0.50485 0.53416 0.03243 0.0
H478 H 0.54893 0.55368 0.927 0.0
C479 C 0.45777 0.46163 0.88357 0.0
C480 C 0.46339 0.4754 0.84366 0.0
C481 C 0.47126 0.47822 0.9199 0.0
C482 C 0.53615 0.54834 0.95601 0.0
H483 H 0.55854 0.54895 0.17246 0.0
H484 H 0.52923 0.52801 0.10846 0.0
H485 H 0.57443 0.57874 0.99202 0.0
H486 H 0.48751 0.51778 0.81109 0.0
H487 H 0.51107 0.54686 0.87484 0.0
H488 H 0.46669 0.50341 0.99656 0.0
C489 C 0.54595 0.55144 0.1088 0.0
C490 C 0.55078 0.56272 0.99335 0.0
C491 C 0.56286 0.56343 0.14553 0.0
C492 C 0.48273 0.50639 0.84121 0.0
C493 C 0.49634 0.52305 0.87774 0.0
C494 C 0.49022 0.51981 0.99511 0.0
C495 C 0.55159 0.56904 0.07238 0.0
C496 C 0.53542 0.55549 0.03217 0.0
C497 C 0.49079 0.50913 0.91755 0.0
C498 C 0.50579 0.52634 0.95652 0.0
H499 H 0.60809 0.63446 0.11077 0.0
H500 H 0.57842 0.61358 0.04697 0.0
H501 H 0.4922 0.52842 0.06159 0.0
H502 H 0.44303 0.43784 0.88692 0.0
H503 H 0.46683 0.46664 0.94983 0.0
C504 C 0.03871 0.46034 0.02976 0.0
C505 C 0.02989 0.4642 0.98927 0.0
C506 C 0.03516 0.47458 0.06494 0.0
C507 C 0.02806 0.53947 0.09455 0.0
H508 H 0.00812 0.50118 0.20444 0.0
C509 C 0.0548 0.6065 0.24866 0.0
C510 C 0.03429 0.59545 0.28231 0.0
C511 C 0.05057 0.58934 0.21259 0.0
C512 C 0.01335 0.5121 0.17393 0.0
H513 H 0.00972 0.4857 0.95447 0.0
H514 H 1.00342 0.51051 0.01608 0.0
H515 H 0.0064 0.47267 0.14198 0.0
H516 H 0.99305 0.55754 0.30412 0.0
H517 H 0.98562 0.52737 0.24073 0.0
H518 H 0.03507 0.57889 0.12643 0.0
C519 C 0.01342 0.49665 0.02039 0.0
C520 C 0.01269 0.49585 0.13816 0.0
C521 C 0.01694 0.48234 0.98507 0.0
C522 C 0.00932 0.56669 0.27886 0.0
C523 C 0.00512 0.54939 0.24261 0.0
C524 C 0.02876 0.5557 0.13028 0.0
C525 C 0.02266 0.49308 0.06074 0.0
C526 C 0.02057 0.50948 0.09813 0.0
C527 C 0.02569 0.56059 0.20898 0.0
C528 C 0.02198 0.5424 0.17055 0.0
H529 H 0.04871 0.44652 0.03442 0.0
H530 H 0.04296 0.47165 0.09534 0.0
H531 H 0.03445 0.55076 0.06434 0.0
H532 H 0.07433 0.62853 0.25006 0.0
H533 H 0.06716 0.5985 0.18773 0.0
C534 C 0.72932 0.80509 0.1845 0.0
C535 C 0.70505 0.78497 0.20943 0.0
C536 C 0.73268 0.83288 0.17357 0.0
C537 C 0.70692 0.88523 0.20717 0.0
H538 H 0.7289 0.91761 0.094 0.0
C539 C 0.67206 0.96427 0.13484 0.0
C540 C 0.69364 0.98991 0.11384 0.0
C541 C 0.67888 0.94295 0.14923 0.0
C542 C 0.72324 0.90906 0.12593 0.0
H543 H 0.66461 0.7778 0.24081 0.0
H544 H 0.67007 0.82532 0.22116 0.0
H545 H 0.73033 0.87244 0.11271 0.0
H546 H 0.73934 0.01347 0.09151 0.0
H547 H 0.75112 0.97543 0.11596 0.0
H548 H 0.69832 0.92087 0.21968 0.0
C549 C 0.68711 0.82033 0.21109 0.0
C550 C 0.72406 0.88322 0.13668 0.0
C551 C 0.68386 0.79286 0.22211 0.0
C552 C 0.72241 0.99403 0.10801 0.0
C553 C 0.72907 0.97225 0.12165 0.0
C554 C 0.70578 0.91072 0.19631 0.0
C555 C 0.71178 0.84096 0.18732 0.0
C556 C 0.71502 0.8705 0.17709 0.0
C557 C 0.70727 0.94647 0.14225 0.0
C558 C 0.71318 0.92244 0.15531 0.0
H559 H 0.74601 0.79965 0.17423 0.0
H560 H 0.75193 0.84824 0.15517 0.0
H561 H 0.70063 0.87657 0.23896 0.0
H562 H 0.6497 0.96049 0.13974 0.0
H563 H 0.6616 0.92317 0.16469 0.0
C564 C 0.95403 0.69725 0.33989 0.0
C565 C 0.97479 0.71899 0.36751 0.0
C566 C 0.92945 0.69898 0.32528 0.0
C567 C 0.88203 0.73069 0.35493 0.0
H568 H 0.84779 0.70211 0.24402 0.0
C569 C 0.77235 0.7255 0.29849 0.0
C570 C 0.75179 0.69872 0.27851 0.0
C571 C 0.80147 0.73161 0.30715 0.0
C572 C 0.85704 0.71008 0.27517 0.0
H573 H 0.98668 0.76044 0.39971 0.0
H574 H 0.94403 0.76369 0.37363 0.0
H575 H 0.89593 0.707 0.26153 0.0
H576 H 0.74594 0.6573 0.25241 0.0
H577 H 0.79629 0.66804 0.2673 0.0
H578 H 0.84283 0.73333 0.36865 0.0
C579 C 0.94648 0.74498 0.36392 0.0
C580 C 0.88462 0.71285 0.28523 0.0
C581 C 0.97108 0.74323 0.3786 0.0
C582 C 0.76109 0.67829 0.26749 0.0
C583 C 0.79011 0.6845 0.27581 0.0
C584 C 0.85446 0.72801 0.34478 0.0
C585 C 0.92501 0.72254 0.33779 0.0
C586 C 0.89721 0.72261 0.32554 0.0
C587 C 0.81069 0.71121 0.29567 0.0
C588 C 0.84135 0.71708 0.30508 0.0
H589 H 0.95608 0.67819 0.33077 0.0
H590 H 0.91325 0.68109 0.30561 0.0
H591 H 0.89084 0.73793 0.38645 0.0
H592 H 0.76597 0.74171 0.30753 0.0
H593 H 0.81686 0.75244 0.32241 0.0
C594 C 0.09725 0.77206 0.45564 0.0
C595 C 0.10478 0.7512 0.44013 0.0
C596 C 0.11958 0.80018 0.4697 0.0
C597 C 0.19876 0.83997 0.50489 0.0
H598 H 0.19803 0.91184 0.47295 0.0
C599 C 0.30472 0.95343 0.51283 0.0
C600 C 0.3029 0.97584 0.53546 0.0
C601 C 0.27889 0.92744 0.50079 0.0
C602 C 0.19835 0.89191 0.48233 0.0
H603 H 0.14189 0.74371 0.42776 0.0
H604 H 0.18017 0.79218 0.4512 0.0
H605 H 0.15526 0.86295 0.45533 0.0
H606 H 0.27234 0.98925 0.56058 0.0
H607 H 0.22706 0.94377 0.53879 0.0
H608 H 0.24203 0.86871 0.53078 0.0
C609 C 0.15714 0.7869 0.45331 0.0
C610 C 0.17385 0.86394 0.47246 0.0
C611 C 0.13503 0.75902 0.43947 0.0
C612 C 0.27456 0.97242 0.54329 0.0
C613 C 0.24862 0.9464 0.53083 0.0
C614 C 0.22322 0.86776 0.5143 0.0
C615 C 0.14982 0.80788 0.46868 0.0
C616 C 0.17407 0.83763 0.48288 0.0
C617 C 0.25059 0.92327 0.51069 0.0
C618 C 0.22356 0.89402 0.50244 0.0
H619 H 0.0742 0.7668 0.45662 0.0
H620 H 0.11317 0.81577 0.48162 0.0
H621 H 0.19939 0.82022 0.51444 0.0
H622 H 0.3261 0.95531 0.50596 0.0
H623 H 0.28106 0.91018 0.48461 0.0
C624 C 0.35432 0.27744 0.72249 0.0
C625 C 0.3789 0.3061 0.71581 0.0
C626 C 0.35459 0.25219 0.70715 0.0
C627 C 0.4083 0.2283 0.68053 0.0
H628 H 0.34229 0.16091 0.62492 0.0
C629 C 0.42434 0.13861 0.59968 0.0
C630 C 0.40183 0.10858 0.60304 0.0
C631 C 0.41949 0.16136 0.61361 0.0
C632 C 0.36077 0.17938 0.64094 0.0
H633 H 0.42226 0.33069 0.68553 0.0
H634 H 0.42263 0.28687 0.65894 0.0
H635 H 0.337 0.20333 0.6474 0.0
H636 H 0.35638 0.07906 0.62388 0.0
H637 H 0.34806 0.11904 0.64897 0.0
H638 H 0.43205 0.20461 0.67474 0.0
C639 C 0.40336 0.28386 0.67658 0.0
C640 C 0.35776 0.20368 0.65366 0.0
C641 C 0.40304 0.309 0.69166 0.0
C642 C 0.37419 0.10194 0.62068 0.0
C643 C 0.36937 0.12484 0.63487 0.0
C644 C 0.41124 0.20406 0.66814 0.0
C645 C 0.37952 0.25515 0.68507 0.0
C646 C 0.38172 0.22861 0.67293 0.0
C647 C 0.39208 0.15484 0.63174 0.0
C648 C 0.38774 0.17951 0.6475 0.0
H649 H 0.33535 0.27439 0.74093 0.0
H650 H 0.3359 0.23033 0.71418 0.0
H651 H 0.42691 0.24684 0.69627 0.0
H652 H 0.44592 0.14475 0.58624 0.0
H653 H 0.43729 0.18418 0.60987 0.0
C654 C 0.139 0.40265 0.84515 0.0
C655 C 0.11734 0.37895 0.86938 0.0
C656 C 0.16411 0.40208 0.83014 0.0
C657 C 0.21063 0.36819 0.85315 0.0
H658 H 0.24793 0.40496 0.74668 0.0
C659 C 0.3203 0.37532 0.79241 0.0
C660 C 0.34174 0.40322 0.77618 0.0
C661 C 0.29137 0.36943 0.8018 0.0
C662 C 0.23784 0.39472 0.77659 0.0
H663 H 0.10455 0.33542 0.89523 0.0
H664 H 0.14818 0.3342 0.86834 0.0
H665 H 0.19944 0.39899 0.7648 0.0
H666 H 0.34944 0.44692 0.75787 0.0
H667 H 0.29926 0.43654 0.77394 0.0
H668 H 0.24928 0.36418 0.86495 0.0
C669 C 0.14598 0.3535 0.86165 0.0
C670 C 0.21005 0.39132 0.78702 0.0
C671 C 0.12083 0.3541 0.87677 0.0
C672 C 0.33356 0.42507 0.76989 0.0
C673 C 0.30467 0.4191 0.77892 0.0
C674 C 0.23839 0.37146 0.84259 0.0
C675 C 0.16821 0.37774 0.83878 0.0
C676 C 0.19633 0.37855 0.8258 0.0
C677 C 0.28319 0.39121 0.79483 0.0
C678 C 0.25257 0.38529 0.80456 0.0
H679 H 0.13714 0.4222 0.83889 0.0
H680 H 0.18089 0.42132 0.81314 0.0
H681 H 0.20095 0.35859 0.88351 0.0
H682 H 0.32581 0.35799 0.79782 0.0
H683 H 0.27527 0.34769 0.81395 0.0
C684 C 0.9525 0.33397 0.92106 0.0
C685 C 0.98249 0.34218 0.92814 0.0
C686 C 0.92944 0.30589 0.93268 0.0
C687 C 0.91195 0.22941 0.9608 0.0
H688 H 0.84021 0.22505 0.00618 0.0
C689 C 0.8131 0.12388 0.0384 0.0
C690 C 0.78418 0.11838 0.02907 0.0
C691 C 0.83823 0.14959 0.0233 0.0
C692 C 0.85995 0.22583 0.99311 0.0
H693 H 0.01158 0.32697 0.95328 0.0
H694 H 0.97102 0.27788 0.9745 0.0
H695 H 0.88253 0.27319 0.98778 0.0
H696 H 0.7591 0.13475 0.99432 0.0
H697 H 0.8028 0.17935 0.9681 0.0
H698 H 0.88916 0.18177 0.96713 0.0
C699 C 0.96552 0.29318 0.95917 0.0
C700 C 0.88426 0.25346 0.98252 0.0
C701 C 0.98876 0.32139 0.94722 0.0
C702 C 0.78098 0.13829 1.00237 0.0
C703 C 0.80605 0.164 0.98756 0.0
C704 C 0.88758 0.20165 0.97179 0.0
C705 C 0.93554 0.28518 0.95225 0.0
C706 C 0.91045 0.25564 0.96565 0.0
C707 C 0.83492 0.17037 0.99883 0.0
C708 C 0.86118 0.19957 0.98752 0.0
H709 H 0.94663 0.34923 0.90645 0.0
H710 H 0.90671 0.30037 0.92601 0.0
H711 H 0.93166 0.23023 0.94762 0.0
H712 H 0.81638 0.109 0.05881 0.0
H713 H 0.8602 0.15392 0.03253 0.0
loop_
_geom_bond_atom_site_label_1
_geom_bond_atom_site_label_2
_geom_bond_distance
_geom_bond_site_symmetry_2
_ccdc_geom_bond_type
Co0 O2 2.143 . S
Co0 O8 2.074 . S
Co0 O11 2.093 1_554 S
Co0 O24 2.097 . S
Co0 N41 2.151 1_554 S
Co0 N49 2.214 1_545 S
Co1 O2 2.160 . S
Co1 O7 2.058 . S
Co1 O17 2.057 . S
Co1 O32 2.037 . S
Co1 N36 2.145 . S
Co1 N57 2.257 . S
O2 Co0 2.143 . S
O2 Co1 2.160 . S
C3 O4 1.278 . S
C3 O11 1.224 . S
O4 C3 1.278 . S
C5 O6 1.250 . S
C5 O17 1.232 . S
O6 C5 1.250 . S
O7 Co1 2.058 . S
O7 C33 1.269 . S
O8 Co0 2.074 . S
O8 C33 1.257 . S
H9 C34 0.930 . S
H10 C40 0.930 . S
O11 Co0 2.093 1_556 S
O11 C3 1.224 . S
H12 C44 0.929 . S
H13 C46 0.930 1_556 S
H14 C47 0.930 . S
H15 C45 0.929 1_554 S
H16 C48 0.928 1_556 S
O17 Co1 2.057 . S
O17 C5 1.232 . S
H18 C37 0.929 . S
H19 C38 0.929 . S
H20 C50 0.931 . S
H21 C42 0.929 . S
H22 C51 0.930 . S
H23 C43 0.931 . S
O24 Co0 2.097 . S
O24 C52 1.214 . S
H25 C53 0.929 . S
H26 C54 0.929 . S
H27 C55 0.930 . S
H28 C56 0.929 . S
H29 C58 0.930 . S
H30 C35 0.930 . S
H31 C39 0.930 . S
O32 Co1 2.037 . S
O32 C52 1.234 . S
C33 O7 1.269 . S
C33 O8 1.257 . S
C34 H9 0.930 . S
C34 C37 1.388 . S
C34 C39 1.418 . S
C35 H30 0.930 . S
C35 C38 1.404 . S
C35 C39 1.353 . S
N36 Co1 2.145 . S
N36 C37 1.397 . S
N36 C38 1.334 . S
C37 H18 0.929 . S
C37 C34 1.388 . S
C37 N36 1.397 . S
C38 H19 0.929 . S
C38 C35 1.404 . S
C38 N36 1.334 . S
C39 H31 0.930 . S
C39 C34 1.418 . S
C39 C35 1.353 . S
C40 H10 0.930 . S
C40 N41 1.330 . S
C40 C42 1.446 . S
N41 Co0 2.151 1_556 S
N41 C40 1.330 . S
N41 C45 1.418 1_545 S
C42 H21 0.929 . S
C42 C40 1.446 . S
C42 C43 1.332 1_545 S
C43 H23 0.931 . S
C43 C42 1.332 1_565 S
C43 C44 1.267 . S
C44 H12 0.929 . S
C44 C43 1.267 . S
C44 C45 1.251 . S
C45 H15 0.929 1_556 S
C45 N41 1.418 1_565 S
C45 C44 1.251 . S
C46 H13 0.930 1_554 S
C46 C48 1.406 . S
C46 C51 1.261 . S
C47 H14 0.930 . S
C47 N49 1.325 . S
C47 C50 1.357 . S
C48 H16 0.928 1_554 S
C48 C46 1.406 . S
C48 N49 1.261 . S
N49 Co0 2.214 1_565 S
N49 C47 1.325 . S
N49 C48 1.261 . S
C50 H20 0.931 . S
C50 C47 1.357 . S
C50 C51 1.312 . S
C51 H22 0.930 . S
C51 C46 1.261 . S
C51 C50 1.312 . S
C52 O24 1.214 . S
C52 O32 1.234 . S
C53 H25 0.929 . S
C53 C56 1.391 . S
C53 C58 1.391 . S
C54 H26 0.929 . S
C54 C55 1.390 . S
C54 N57 1.391 . S
C55 H27 0.930 . S
C55 C54 1.390 . S
C55 C56 1.392 . S
C56 H28 0.929 . S
C56 C53 1.391 . S
C56 C55 1.392 . S
N57 Co1 2.257 . S
N57 C54 1.391 . S
N57 C58 1.388 . S
C58 H29 0.930 . S
C58 C53 1.391 . S
C58 N57 1.388 . S
Co59 O61 2.143 . S
Co59 O67 2.074 . S
Co59 O70 2.093 . S
Co59 O83 2.097 . S
Co59 N100 2.151 . S
Co59 N108 2.214 . S
Co60 O61 2.160 . S
Co60 O66 2.058 . S
Co60 O76 2.057 . S
Co60 O91 2.037 . S
Co60 N95 2.145 . S
Co60 N116 2.257 . S
O61 Co59 2.143 . S
O61 Co60 2.160 . S
C62 O63 1.278 . S
C62 O70 1.224 . S
O63 C62 1.278 . S
C64 O65 1.245 . S
C64 O76 1.232 . S
O65 C64 1.245 . S
O66 Co60 2.058 . S
O66 C92 1.269 . S
O67 Co59 2.074 . S
O67 C92 1.257 . S
H68 C93 0.930 . S
H69 C99 0.930 . S
O70 Co59 2.093 . S
O70 C62 1.224 . S
H71 C103 0.929 . S
H72 C105 0.930 . S
H73 C106 0.930 . S
H74 C104 0.929 . S
H75 C107 0.928 . S
O76 Co60 2.057 . S
O76 C64 1.232 . S
H77 C96 0.929 . S
H78 C97 0.929 . S
H79 C109 0.931 . S
H80 C101 0.929 . S
H81 C110 0.930 . S
H82 C102 0.931 . S
O83 Co59 2.097 . S
O83 C111 1.214 . S
H84 C112 0.929 . S
H85 C113 0.929 . S
H86 C114 0.930 . S
H87 C115 0.929 . S
H88 C117 0.930 . S
H89 C94 0.930 . S
H90 C98 0.930 . S
O91 Co60 2.037 . S
O91 C111 1.234 . S
C92 O66 1.269 . S
C92 O67 1.257 . S
C93 H68 0.930 . S
C93 C96 1.388 . S
C93 C98 1.418 . S
C94 H89 0.930 . S
C94 C97 1.404 . S
C94 C98 1.353 . S
N95 Co60 2.145 . S
N95 C96 1.397 . S
N95 C97 1.334 . S
C96 H77 0.929 . S
C96 C93 1.388 . S
C96 N95 1.397 . S
C97 H78 0.929 . S
C97 C94 1.404 . S
C97 N95 1.334 . S
C98 H90 0.930 . S
C98 C93 1.418 . S
C98 C94 1.353 . S
C99 H69 0.930 . S
C99 N100 1.330 . S
C99 C101 1.446 . S
N100 Co59 2.151 . S
N100 C99 1.330 . S
N100 C104 1.418 . S
C101 H80 0.929 . S
C101 C99 1.446 . S
C101 C102 1.332 . S
C102 H82 0.931 . S
C102 C101 1.332 . S
C102 C103 1.267 . S
C103 H71 0.929 . S
C103 C102 1.267 . S
C103 C104 1.251 . S
C104 H74 0.929 . S
C104 N100 1.418 . S
C104 C103 1.251 . S
C105 H72 0.930 . S
C105 C107 1.406 . S
C105 C110 1.261 . S
C106 H73 0.930 . S
C106 N108 1.325 . S
C106 C109 1.357 . S
C107 H75 0.928 . S
C107 C105 1.406 . S
C107 N108 1.261 . S
N108 Co59 2.214 . S
N108 C106 1.325 . S
N108 C107 1.261 . S
C109 H79 0.931 . S
C109 C106 1.357 . S
C109 C110 1.312 . S
C110 H81 0.930 . S
C110 C105 1.261 . S
C110 C109 1.312 . S
C111 O83 1.214 . S
C111 O91 1.234 . S
C112 H84 0.929 . S
C112 C115 1.391 . S
C112 C117 1.391 . S
C113 H85 0.929 . S
C113 C114 1.390 . S
C113 N116 1.391 . S
C114 H86 0.930 . S
C114 C113 1.390 . S
C114 C115 1.392 . S
C115 H87 0.929 . S
C115 C112 1.391 . S
C115 C114 1.392 . S
N116 Co60 2.257 . S
N116 C113 1.391 . S
N116 C117 1.388 . S
C117 H88 0.930 . S
C117 C112 1.391 . S
C117 N116 1.388 . S
Co118 O120 2.143 . S
Co118 O126 2.074 . S
Co118 O129 2.093 . S
Co118 O142 2.097 . S
Co118 N159 2.151 . S
Co118 N167 2.214 . S
Co119 O120 2.160 . S
Co119 O125 2.058 . S
Co119 O135 2.057 1_455 S
Co119 O150 2.037 . S
Co119 N154 2.145 1_455 S
Co119 N175 2.257 1_455 S
O120 Co118 2.143 . S
O120 Co119 2.160 . S
C121 O122 1.278 1_455 S
C121 O129 1.224 . S
O122 C121 1.278 1_655 S
C123 O124 1.245 . S
C123 O135 1.232 . S
O124 C123 1.245 . S
O125 Co119 2.058 . S
O125 C151 1.269 . S
O126 Co118 2.074 . S
O126 C151 1.257 . S
H127 C152 0.930 . S
H128 C158 0.930 . S
O129 Co118 2.093 . S
O129 C121 1.224 . S
H130 C162 0.929 . S
H131 C164 0.930 . S
H132 C165 0.930 . S
H133 C163 0.929 . S
H134 C166 0.928 . S
O135 Co119 2.057 1_655 S
O135 C123 1.232 . S
H136 C155 0.929 1_455 S
H137 C156 0.929 . S
H138 C168 0.931 . S
H139 C160 0.929 . S
H140 C169 0.930 . S
H141 C161 0.931 . S
O142 Co118 2.097 . S
O142 C170 1.214 . S
H143 C171 0.929 . S
H144 C172 0.929 . S
H145 C173 0.930 . S
H146 C174 0.929 . S
H147 C176 0.930 . S
H148 C153 0.930 . S
H149 C157 0.930 . S
O150 Co119 2.037 . S
O150 C170 1.234 . S
C151 O125 1.269 . S
C151 O126 1.257 . S
C152 H127 0.930 . S
C152 C155 1.388 . S
C152 C157 1.418 . S
C153 H148 0.930 . S
C153 C156 1.404 . S
C153 C157 1.353 . S
N154 Co119 2.145 1_655 S
N154 C155 1.397 . S
N154 C156 1.334 . S
C155 H136 0.929 1_655 S
C155 C152 1.388 . S
C155 N154 1.397 . S
C156 H137 0.929 . S
C156 C153 1.404 . S
C156 N154 1.334 . S
C157 H149 0.930 . S
C157 C152 1.418 . S
C157 C153 1.353 . S
C158 H128 0.930 . S
C158 N159 1.330 . S
C158 C160 1.446 . S
N159 Co118 2.151 . S
N159 C158 1.330 . S
N159 C163 1.418 . S
C160 H139 0.929 . S
C160 C158 1.446 . S
C160 C161 1.332 . S
C161 H141 0.931 . S
C161 C160 1.332 . S
C161 C162 1.267 . S
C162 H130 0.929 . S
C162 C161 1.267 . S
C162 C163 1.251 . S
C163 H133 0.929 . S
C163 N159 1.418 . S
C163 C162 1.251 . S
C164 H131 0.930 . S
C164 C166 1.406 . S
C164 C169 1.261 . S
C165 H132 0.930 . S
C165 N167 1.325 . S
C165 C168 1.357 . S
C166 H134 0.928 . S
C166 C164 1.406 . S
C166 N167 1.261 . S
N167 Co118 2.214 . S
N167 C165 1.325 . S
N167 C166 1.261 . S
C168 H138 0.931 . S
C168 C165 1.357 . S
C168 C169 1.312 . S
C169 H140 0.930 . S
C169 C164 1.261 . S
C169 C168 1.312 . S
C170 O142 1.214 . S
C170 O150 1.234 . S
C171 H143 0.929 . S
C171 C174 1.391 . S
C171 C176 1.391 . S
C172 H144 0.929 . S
C172 C173 1.390 . S
C172 N175 1.391 . S
C173 H145 0.930 . S
C173 C172 1.390 . S
C173 C174 1.392 . S
C174 H146 0.929 . S
C174 C171 1.391 . S
C174 C173 1.392 . S
N175 Co119 2.257 1_655 S
N175 C172 1.391 . S
N175 C176 1.388 . S
C176 H147 0.930 . S
C176 C171 1.391 . S
C176 N175 1.388 . S
Co177 O179 2.143 . S
Co177 O185 2.074 . S
Co177 O188 2.093 . S
Co177 O201 2.097 . S
Co177 N218 2.151 . S
Co177 N226 2.214 . S
Co178 O179 2.160 . S
Co178 O184 2.058 . S
Co178 O194 2.057 1_545 S
Co178 O209 2.037 . S
Co178 N213 2.145 1_545 S
Co178 N234 2.257 1_545 S
O179 Co177 2.143 . S
O179 Co178 2.160 . S
C180 O181 1.278 . S
C180 O188 1.224 . S
O181 C180 1.278 . S
C182 O183 1.245 . S
C182 O194 1.232 . S
O183 C182 1.245 . S
O184 Co178 2.058 . S
O184 C210 1.269 . S
O185 Co177 2.074 . S
O185 C210 1.257 . S
H186 C211 0.914 1_545 S
H187 C217 0.930 . S
O188 Co177 2.093 . S
O188 C180 1.224 . S
H189 C221 0.929 . S
H190 C223 0.930 . S
H191 C224 0.930 . S
H192 C222 0.929 . S
H193 C225 0.928 . S
O194 Co178 2.057 1_565 S
O194 C182 1.232 . S
H195 C214 0.929 . S
H196 C215 0.929 . S
H197 C227 0.931 . S
H198 C219 0.929 . S
H199 C228 0.930 . S
H200 C220 0.931 . S
O201 Co177 2.097 . S
O201 C229 1.214 . S
H202 C230 0.929 . S
H203 C231 0.929 . S
H204 C232 0.930 . S
H205 C233 0.929 . S
H206 C235 0.930 . S
H207 C212 0.930 . S
H208 C216 0.930 . S
O209 Co178 2.037 . S
O209 C229 1.234 . S
C210 O184 1.269 . S
C210 O185 1.257 . S
C211 H186 0.914 1_565 S
C211 C214 1.388 1_565 S
C211 C216 1.418 . S
C212 H207 0.930 . S
C212 C215 1.404 . S
C212 C216 1.353 . S
N213 Co178 2.145 1_565 S
N213 C214 1.397 1_565 S
N213 C215 1.334 . S
C214 H195 0.929 . S
C214 C211 1.388 1_545 S
C214 N213 1.397 1_545 S
C215 H196 0.929 . S
C215 C212 1.404 . S
C215 N213 1.334 . S
C216 H208 0.930 . S
C216 C211 1.418 . S
C216 C212 1.353 . S
C217 H187 0.930 . S
C217 N218 1.330 . S
C217 C219 1.446 . S
N218 Co177 2.151 . S
N218 C217 1.330 . S
N218 C222 1.418 . S
C219 H198 0.929 . S
C219 C217 1.446 . S
C219 C220 1.332 . S
C220 H200 0.931 . S
C220 C219 1.332 . S
C220 C221 1.267 . S
C221 H189 0.929 . S
C221 C220 1.267 . S
C221 C222 1.251 . S
C222 H192 0.929 . S
C222 N218 1.418 . S
C222 C221 1.251 . S
C223 H190 0.930 . S
C223 C225 1.406 . S
C223 C228 1.261 . S
C224 H191 0.930 . S
C224 N226 1.325 . S
C224 C227 1.357 . S
C225 H193 0.928 . S
C225 C223 1.406 . S
C225 N226 1.261 . S
N226 Co177 2.214 . S
N226 C224 1.325 . S
N226 C225 1.261 . S
C227 H197 0.931 . S
C227 C224 1.357 . S
C227 C228 1.312 . S
C228 H199 0.930 . S
C228 C223 1.261 . S
C228 C227 1.312 . S
C229 O201 1.214 . S
C229 O209 1.234 . S
C230 H202 0.929 . S
C230 C233 1.391 . S
C230 C235 1.391 . S
C231 H203 0.929 . S
C231 C232 1.390 . S
C231 N234 1.391 . S
C232 H204 0.930 . S
C232 C231 1.390 . S
C232 C233 1.392 . S
C233 H205 0.929 . S
C233 C230 1.391 . S
C233 C232 1.392 . S
N234 Co178 2.257 1_565 S
N234 C231 1.391 . S
N234 C235 1.388 . S
C235 H206 0.930 . S
C235 C230 1.391 . S
C235 N234 1.388 . S
Co236 O238 2.143 . S
Co236 O244 2.074 . S
Co236 O247 2.093 . S
Co236 O260 2.097 . S
Co236 N277 2.151 . S
Co236 N285 2.214 . S
Co237 O238 2.160 . S
Co237 O243 2.058 . S
Co237 O253 2.057 . S
Co237 O268 2.037 . S
Co237 N272 2.145 . S
Co237 N293 2.257 . S
O238 Co236 2.143 . S
O238 Co237 2.160 . S
C239 O240 1.278 . S
C239 O247 1.224 . S
O240 C239 1.278 . S
C241 O242 1.245 . S
C241 O253 1.232 . S
O242 C241 1.245 . S
O243 Co237 2.058 . S
O243 C269 1.269 . S
O244 Co236 2.074 . S
O244 C269 1.257 . S
H245 C270 0.930 . S
H246 C276 0.930 . S
O247 Co236 2.093 . S
O247 C239 1.224 . S
H248 C280 0.929 . S
H249 C282 0.930 . S
H250 C283 0.930 . S
H251 C281 0.929 . S
H252 C284 0.928 . S
O253 Co237 2.057 . S
O253 C241 1.232 . S
H254 C273 0.929 . S
H255 C274 0.929 . S
H256 C286 0.931 . S
H257 C278 0.929 . S
H258 C287 0.930 . S
H259 C279 0.931 . S
O260 Co236 2.097 . S
O260 C288 1.214 . S
H261 C289 0.929 . S
H262 C290 0.929 . S
H263 C291 0.930 . S
H264 C292 0.929 . S
H265 C294 0.930 . S
H266 C271 0.930 . S
H267 C275 0.930 . S
O268 Co237 2.037 . S
O268 C288 1.234 . S
C269 O243 1.269 . S
C269 O244 1.257 . S
C270 H245 0.930 . S
C270 C273 1.388 . S
C270 C275 1.418 . S
C271 H266 0.930 . S
C271 C274 1.404 . S
C271 C275 1.353 . S
N272 Co237 2.145 . S
N272 C273 1.397 . S
N272 C274 1.334 . S
C273 H254 0.929 . S
C273 C270 1.388 . S
C273 N272 1.397 . S
C274 H255 0.929 . S
C274 C271 1.404 . S
C274 N272 1.334 . S
C275 H267 0.930 . S
C275 C270 1.418 . S
C275 C271 1.353 . S
C276 H246 0.930 . S
C276 N277 1.330 . S
C276 C278 1.446 . S
N277 Co236 2.151 . S
N277 C276 1.330 . S
N277 C281 1.418 . S
C278 H257 0.929 . S
C278 C276 1.446 . S
C278 C279 1.332 . S
C279 H259 0.931 . S
C279 C278 1.332 . S
C279 C280 1.267 . S
C280 H248 0.929 . S
C280 C279 1.267 . S
C280 C281 1.251 . S
C281 H251 0.929 . S
C281 N277 1.418 . S
C281 C280 1.251 . S
C282 H249 0.930 . S
C282 C284 1.406 . S
C282 C287 1.261 . S
C283 H250 0.930 . S
C283 N285 1.325 . S
C283 C286 1.357 . S
C284 H252 0.928 . S
C284 C282 1.406 . S
C284 N285 1.261 . S
N285 Co236 2.214 . S
N285 C283 1.325 . S
N285 C284 1.261 . S
C286 H256 0.931 . S
C286 C283 1.357 . S
C286 C287 1.312 . S
C287 H258 0.930 . S
C287 C282 1.261 . S
C287 C286 1.312 . S
C288 O260 1.214 . S
C288 O268 1.234 . S
C289 H261 0.929 . S
C289 C292 1.391 . S
C289 C294 1.391 . S
C290 H262 0.929 . S
C290 C291 1.390 . S
C290 N293 1.391 . S
C291 H263 0.930 . S
C291 C290 1.390 . S
C291 C292 1.392 . S
C292 H264 0.929 . S
C292 C289 1.391 . S
C292 C291 1.392 . S
N293 Co237 2.257 . S
N293 C290 1.391 . S
N293 C294 1.388 . S
C294 H265 0.930 . S
C294 C289 1.391 . S
C294 N293 1.388 . S
Co295 O297 2.143 . S
Co295 O303 2.074 . S
Co295 O306 2.093 . S
Co295 O319 2.097 . S
Co295 N336 2.151 . S
Co295 N344 2.214 1_455 S
Co296 O297 2.160 . S
Co296 O302 2.058 . S
Co296 O312 2.057 . S
Co296 O327 2.037 . S
Co296 N331 2.145 . S
Co296 N352 2.257 . S
O297 Co295 2.143 . S
O297 Co296 2.160 . S
C298 O299 1.278 . S
C298 O306 1.224 . S
O299 C298 1.278 . S
C300 O301 1.245 . S
C300 O312 1.232 . S
O301 C300 1.245 . S
O302 Co296 2.058 . S
O302 C328 1.269 . S
O303 Co295 2.074 . S
O303 C328 1.257 . S
H304 C329 0.930 . S
H305 C335 0.930 . S
O306 Co295 2.093 . S
O306 C298 1.224 . S
H307 C339 0.929 . S
H308 C341 0.930 . S
H309 C342 0.930 . S
H310 C340 0.929 . S
H311 C343 0.928 . S
O312 Co296 2.057 . S
O312 C300 1.232 . S
H313 C332 0.929 . S
H314 C333 0.929 . S
H315 C345 0.931 . S
H316 C337 0.929 . S
H317 C346 0.930 . S
H318 C338 0.931 . S
O319 Co295 2.097 . S
O319 C347 1.214 . S
H320 C348 0.929 . S
H321 C349 0.929 . S
H322 C350 0.930 . S
H323 C351 0.929 . S
H324 C353 0.930 . S
H325 C330 0.930 . S
H326 C334 0.930 . S
O327 Co296 2.037 . S
O327 C347 1.234 . S
C328 O302 1.269 . S
C328 O303 1.257 . S
C329 H304 0.930 . S
C329 C332 1.388 . S
C329 C334 1.418 . S
C330 H325 0.930 . S
C330 C333 1.404 1_554 S
C330 C334 1.353 . S
N331 Co296 2.145 . S
N331 C332 1.397 1_556 S
N331 C333 1.334 . S
C332 H313 0.929 . S
C332 C329 1.388 . S
C332 N331 1.397 1_554 S
C333 H314 0.929 . S
C333 C330 1.404 1_556 S
C333 N331 1.334 . S
C334 H326 0.930 . S
C334 C329 1.418 . S
C334 C330 1.353 . S
C335 H305 0.930 . S
C335 N336 1.330 . S
C335 C337 1.446 . S
N336 Co295 2.151 . S
N336 C335 1.330 . S
N336 C340 1.418 1_455 S
C337 H316 0.929 . S
C337 C335 1.446 . S
C337 C338 1.332 1_455 S
C338 H318 0.931 . S
C338 C337 1.332 1_655 S
C338 C339 1.267 . S
C339 H307 0.929 . S
C339 C338 1.267 . S
C339 C340 1.251 . S
C340 H310 0.929 . S
C340 N336 1.418 1_655 S
C340 C339 1.251 . S
C341 H308 0.930 . S
C341 C343 1.406 . S
C341 C346 1.261 . S
C342 H309 0.930 . S
C342 N344 1.325 . S
C342 C345 1.357 . S
C343 H311 0.928 . S
C343 C341 1.406 . S
C343 N344 1.261 . S
N344 Co295 2.214 1_655 S
N344 C342 1.325 . S
N344 C343 1.261 . S
C345 H315 0.931 . S
C345 C342 1.357 . S
C345 C346 1.312 . S
C346 H317 0.930 . S
C346 C341 1.261 . S
C346 C345 1.312 . S
C347 O319 1.214 . S
C347 O327 1.234 . S
C348 H320 0.929 . S
C348 C351 1.391 . S
C348 C353 1.391 . S
C349 H321 0.929 . S
C349 C350 1.390 . S
C349 N352 1.391 . S
C350 H322 0.930 . S
C350 C349 1.390 . S
C350 C351 1.392 . S
C351 H323 0.929 . S
C351 C348 1.391 . S
C351 C350 1.392 . S
N352 Co296 2.257 . S
N352 C349 1.391 . S
N352 C353 1.388 . S
C353 H324 0.930 . S
C353 C348 1.391 . S
C353 N352 1.388 . S
C354 C355 1.349 . S
C354 C356 1.327 . S
C354 H379 0.950 . S
C355 C354 1.349 . S
C355 C371 1.349 . S
C356 C354 1.327 . S
C356 C375 1.429 . S
C356 H380 0.950 . S
C357 C374 1.574 . S
C357 C376 1.368 . S
C357 H381 0.949 1_545 S
H358 C362 0.949 . S
C359 C360 1.349 . S
C359 C361 1.327 . S
C359 H382 0.950 1_545 S
C360 C359 1.349 . S
C360 C372 1.349 . S
C361 C359 1.327 . S
C361 C377 1.429 . S
C361 H383 0.950 1_545 S
C362 H358 0.949 . S
C362 C370 1.574 . S
C362 C378 1.368 . S
H363 C371 0.950 . S
H364 C369 0.978 . S
H365 C370 0.949 . S
H366 C372 0.950 . S
H367 C373 0.950 . S
H368 C374 0.949 1_565 S
C369 H364 0.978 . S
C369 C371 1.327 . S
C369 C375 1.429 . S
C370 C362 1.574 . S
C370 H365 0.949 . S
C370 C376 1.368 . S
C371 C355 1.349 . S
C371 H363 0.950 . S
C371 C369 1.327 . S
C372 C360 1.349 . S
C372 H366 0.950 . S
C372 C373 1.327 . S
C373 H367 0.950 . S
C373 C372 1.327 . S
C373 C377 1.429 . S
C374 C357 1.574 . S
C374 H368 0.949 1_545 S
C374 C378 1.368 . S
C375 C356 1.429 . S
C375 C369 1.429 . S
C375 C376 1.523 . S
C376 C357 1.368 . S
C376 C370 1.368 . S
C376 C375 1.523 . S
C377 C361 1.429 . S
C377 C373 1.429 . S
C377 C378 1.523 . S
C378 C362 1.368 . S
C378 C374 1.368 . S
C378 C377 1.523 . S
H379 C354 0.950 . S
H380 C356 0.950 . S
H381 C357 0.949 1_565 S
H382 C359 0.950 1_565 S
H383 C361 0.950 1_565 S
C384 C385 1.349 . S
C384 C386 1.327 . S
C384 H409 0.950 . S
C385 C384 1.349 . S
C385 C401 1.349 . S
C386 C384 1.327 . S
C386 C405 1.429 . S
C386 H410 0.950 . S
C387 C404 1.574 . S
C387 C406 1.368 . S
C387 H411 0.949 . S
H388 C392 0.949 . S
C389 C390 1.349 . S
C389 C391 1.327 . S
C389 H412 0.950 . S
C390 C389 1.349 . S
C390 C402 1.349 . S
C391 C389 1.327 . S
C391 C407 1.429 . S
C391 H413 0.950 . S
C392 H388 0.949 . S
C392 C400 1.574 . S
C392 C408 1.368 . S
H393 C401 0.950 . S
H394 C399 0.950 . S
H395 C400 0.949 . S
H396 C402 0.950 . S
H397 C403 0.950 . S
H398 C404 0.949 . S
C399 H394 0.950 . S
C399 C401 1.327 . S
C399 C405 1.429 . S
C400 C392 1.574 . S
C400 H395 0.949 . S
C400 C406 1.368 . S
C401 C385 1.349 . S
C401 H393 0.950 . S
C401 C399 1.327 . S
C402 C390 1.349 . S
C402 H396 0.950 . S
C402 C403 1.327 . S
C403 H397 0.950 . S
C403 C402 1.327 . S
C403 C407 1.429 . S
C404 C387 1.574 . S
C404 H398 0.949 . S
C404 C408 1.368 . S
C405 C386 1.429 . S
C405 C399 1.429 . S
C405 C406 1.523 . S
C406 C387 1.368 . S
C406 C400 1.368 . S
C406 C405 1.523 . S
C407 C391 1.429 . S
C407 C403 1.429 . S
C407 C408 1.523 . S
C408 C392 1.368 . S
C408 C404 1.368 . S
C408 C407 1.523 . S
H409 C384 0.950 . S
H410 C386 0.950 . S
H411 C387 0.949 . S
H412 C389 0.950 . S
H413 C391 0.950 . S
C414 C415 1.349 . S
C414 C416 1.327 . S
C414 H439 0.950 . S
C415 C414 1.349 . S
C415 C431 1.349 . S
C416 C414 1.327 . S
C416 C435 1.429 . S
C416 H440 0.950 . S
C417 C434 1.574 . S
C417 C436 1.368 . S
C417 H441 0.949 . S
H418 C422 0.949 . S
C419 C420 1.349 . S
C419 C421 1.327 . S
C419 H442 0.950 . S
C420 C419 1.349 . S
C420 C432 1.349 . S
C421 C419 1.327 . S
C421 C437 1.429 . S
C421 H443 0.950 . S
C422 H418 0.949 . S
C422 C430 1.574 . S
C422 C438 1.368 . S
H423 C431 0.950 . S
H424 C429 0.950 . S
H425 C430 0.949 . S
H426 C432 0.950 . S
H427 C433 0.950 . S
H428 C434 0.949 . S
C429 H424 0.950 . S
C429 C431 1.327 . S
C429 C435 1.429 . S
C430 C422 1.574 . S
C430 H425 0.949 . S
C430 C436 1.368 . S
C431 C415 1.349 . S
C431 H423 0.950 . S
C431 C429 1.327 . S
C432 C420 1.349 . S
C432 H426 0.950 . S
C432 C433 1.327 . S
C433 H427 0.950 . S
C433 C432 1.327 . S
C433 C437 1.429 . S
C434 C417 1.574 . S
C434 H428 0.949 . S
C434 C438 1.368 . S
C435 C416 1.429 . S
C435 C429 1.429 . S
C435 C436 1.523 . S
C436 C417 1.368 . S
C436 C430 1.368 . S
C436 C435 1.523 . S
C437 C421 1.429 . S
C437 C433 1.429 . S
C437 C438 1.523 . S
C438 C422 1.368 . S
C438 C434 1.368 . S
C438 C437 1.523 . S
H439 C414 0.950 . S
H440 C416 0.950 . S
H441 C417 0.949 . S
H442 C419 0.950 . S
H443 C421 0.950 . S
C444 C445 1.349 . S
C444 C446 1.327 . S
C444 H469 0.950 . S
C445 C444 1.349 . S
C445 C461 1.349 . S
C446 C444 1.327 . S
C446 C465 1.429 . S
C446 H470 0.950 . S
C447 C464 1.574 . S
C447 C466 1.368 . S
C447 H471 0.949 . S
H448 C452 0.949 . S
C449 C450 1.349 . S
C449 C451 1.327 . S
C449 H472 0.950 . S
C450 C449 1.349 . S
C450 C462 1.349 . S
C451 C449 1.327 . S
C451 C467 1.429 . S
C451 H473 0.950 . S
C452 H448 0.949 . S
C452 C460 1.574 . S
C452 C468 1.368 . S
H453 C461 0.950 . S
H454 C459 0.950 . S
H455 C460 0.949 . S
H456 C462 0.950 . S
H457 C463 0.950 . S
H458 C464 0.949 . S
C459 H454 0.950 . S
C459 C461 1.327 . S
C459 C465 1.429 . S
C460 C452 1.574 . S
C460 H455 0.949 . S
C460 C466 1.368 . S
C461 C445 1.349 . S
C461 H453 0.950 . S
C461 C459 1.327 . S
C462 C450 1.349 . S
C462 H456 0.950 . S
C462 C463 1.327 . S
C463 H457 0.950 . S
C463 C462 1.327 . S
C463 C467 1.429 . S
C464 C447 1.574 . S
C464 H458 0.949 . S
C464 C468 1.368 . S
C465 C446 1.429 . S
C465 C459 1.429 . S
C465 C466 1.523 . S
C466 C447 1.368 . S
C466 C460 1.368 . S
C466 C465 1.523 . S
C467 C451 1.429 . S
C467 C463 1.429 . S
C467 C468 1.523 . S
C468 C452 1.368 . S
C468 C464 1.368 . S
C468 C467 1.523 . S
H469 C444 0.950 . S
H470 C446 0.950 . S
H471 C447 0.949 . S
H472 C449 0.950 . S
H473 C451 0.950 . S
C474 C475 1.349 . S
C474 C476 1.327 . S
C474 H499 0.950 . S
C475 C474 1.349 . S
C475 C491 1.349 . S
C476 C474 1.327 . S
C476 C495 1.429 . S
C476 H500 0.950 . S
C477 C494 1.574 1_554 S
C477 C496 1.368 1_554 S
C477 H501 0.949 . S
H478 C482 0.949 . S
C479 C480 1.349 . S
C479 C481 1.327 . S
C479 H502 0.950 . S
C480 C479 1.349 . S
C480 C492 1.349 . S
C481 C479 1.327 . S
C481 C497 1.429 . S
C481 H503 0.950 . S
C482 H478 0.949 . S
C482 C490 1.574 . S
C482 C498 1.368 . S
H483 C491 0.950 . S
H484 C489 0.950 . S
H485 C490 0.949 . S
H486 C492 0.950 . S
H487 C493 0.950 . S
H488 C494 0.949 . S
C489 H484 0.950 . S
C489 C491 1.327 . S
C489 C495 1.429 . S
C490 C482 1.574 . S
C490 H485 0.949 . S
C490 C496 1.368 . S
C491 C475 1.349 . S
C491 H483 0.950 . S
C491 C489 1.327 . S
C492 C480 1.349 . S
C492 H486 0.950 . S
C492 C493 1.327 . S
C493 H487 0.950 . S
C493 C492 1.327 . S
C493 C497 1.429 . S
C494 C477 1.574 1_556 S
C494 H488 0.949 . S
C494 C498 1.368 . S
C495 C476 1.429 . S
C495 C489 1.429 . S
C495 C496 1.523 1_554 S
C496 C477 1.368 1_556 S
C496 C490 1.368 . S
C496 C495 1.523 1_556 S
C497 C481 1.429 . S
C497 C493 1.429 . S
C497 C498 1.523 . S
C498 C482 1.368 . S
C498 C494 1.368 . S
C498 C497 1.523 . S
H499 C474 0.950 . S
H500 C476 0.950 . S
H501 C477 0.949 . S
H502 C479 0.950 . S
H503 C481 0.950 . S
C504 C505 1.349 . S
C504 C506 1.327 . S
C504 H529 0.950 . S
C505 C504 1.349 . S
C505 C521 1.349 1_554 S
C506 C504 1.327 . S
C506 C525 1.429 . S
C506 H530 0.950 . S
C507 C524 1.574 . S
C507 C526 1.368 . S
C507 H531 0.949 . S
H508 C512 0.949 . S
C509 C510 1.349 . S
C509 C511 1.327 . S
C509 H532 0.950 . S
C510 C509 1.349 . S
C510 C522 1.349 . S
C511 C509 1.327 . S
C511 C527 1.429 . S
C511 H533 0.950 . S
C512 H508 0.949 . S
C512 C520 1.574 . S
C512 C528 1.368 . S
H513 C521 0.950 . S
H514 C519 0.950 . S
H515 C520 0.949 . S
H516 C522 0.950 . S
H517 C523 0.950 . S
H518 C524 0.949 . S
C519 H514 0.950 . S
C519 C521 1.327 1_554 S
C519 C525 1.429 . S
C520 C512 1.574 . S
C520 H515 0.949 . S
C520 C526 1.368 . S
C521 C505 1.349 1_556 S
C521 H513 0.950 . S
C521 C519 1.327 1_556 S
C522 C510 1.349 . S
C522 H516 0.950 . S
C522 C523 1.327 . S
C523 H517 0.950 . S
C523 C522 1.327 . S
C523 C527 1.429 . S
C524 C507 1.574 . S
C524 H518 0.949 . S
C524 C528 1.368 . S
C525 C506 1.429 . S
C525 C519 1.429 . S
C525 C526 1.523 . S
C526 C507 1.368 . S
C526 C520 1.368 . S
C526 C525 1.523 . S
C527 C511 1.429 . S
C527 C523 1.429 . S
C527 C528 1.523 . S
C528 C512 1.368 . S
C528 C524 1.368 . S
C528 C527 1.523 . S
H529 C504 0.950 . S
H530 C506 0.950 . S
H531 C507 0.949 . S
H532 C509 0.950 . S
H533 C511 0.950 . S
C534 C535 1.349 . S
C534 C536 1.327 . S
C534 H559 0.950 . S
C535 C534 1.349 . S
C535 C551 1.349 . S
C536 C534 1.327 . S
C536 C555 1.429 . S
C536 H560 0.950 . S
C537 C554 1.574 . S
C537 C556 1.368 . S
C537 H561 0.949 . S
H538 C542 0.949 . S
C539 C540 1.349 . S
C539 C541 1.327 . S
C539 H562 0.950 1_565 S
C540 C539 1.349 . S
C540 C552 1.349 . S
C541 C539 1.327 . S
C541 C557 1.429 . S
C541 H563 0.950 . S
C542 H538 0.949 . S
C542 C550 1.574 . S
C542 C558 1.368 . S
H543 C551 0.950 . S
H544 C549 0.950 . S
H545 C550 0.949 . S
H546 C552 0.950 . S
H547 C553 0.950 . S
H548 C554 0.949 . S
C549 H544 0.950 . S
C549 C551 1.327 . S
C549 C555 1.429 . S
C550 C542 1.574 . S
C550 H545 0.949 . S
C550 C556 1.368 . S
C551 C535 1.349 . S
C551 H543 0.950 . S
C551 C549 1.327 . S
C552 C540 1.349 . S
C552 H546 0.950 . S
C552 C553 1.327 . S
C553 H547 0.950 . S
C553 C552 1.327 . S
C553 C557 1.429 . S
C554 C537 1.574 . S
C554 H548 0.949 . S
C554 C558 1.368 . S
C555 C536 1.429 . S
C555 C549 1.429 . S
C555 C556 1.523 . S
C556 C537 1.368 . S
C556 C550 1.368 . S
C556 C555 1.523 . S
C557 C541 1.429 . S
C557 C553 1.429 . S
C557 C558 1.523 . S
C558 C542 1.368 . S
C558 C554 1.368 . S
C558 C557 1.523 . S
H559 C534 0.950 . S
H560 C536 0.950 . S
H561 C537 0.949 . S
H562 C539 0.950 1_545 S
H563 C541 0.950 . S
C564 C565 1.349 . S
C564 C566 1.327 . S
C564 H589 0.950 . S
C565 C564 1.349 . S
C565 C581 1.349 . S
C566 C564 1.327 . S
C566 C585 1.429 . S
C566 H590 0.950 . S
C567 C584 1.574 . S
C567 C586 1.368 . S
C567 H591 0.949 . S
H568 C572 0.949 . S
C569 C570 1.349 . S
C569 C571 1.327 . S
C569 H592 0.950 . S
C570 C569 1.349 . S
C570 C582 1.349 . S
C571 C569 1.327 . S
C571 C587 1.429 . S
C571 H593 0.950 . S
C572 H568 0.949 . S
C572 C580 1.574 . S
C572 C588 1.368 . S
H573 C581 0.950 . S
H574 C579 0.950 . S
H575 C580 0.949 . S
H576 C582 0.950 . S
H577 C583 0.950 . S
H578 C584 0.949 . S
C579 H574 0.950 . S
C579 C581 1.327 . S
C579 C585 1.429 . S
C580 C572 1.574 . S
C580 H575 0.949 . S
C580 C586 1.368 . S
C581 C565 1.349 . S
C581 H573 0.950 . S
C581 C579 1.327 . S
C582 C570 1.349 . S
C582 H576 0.950 . S
C582 C583 1.327 . S
C583 H577 0.950 . S
C583 C582 1.327 . S
C583 C587 1.429 . S
C584 C567 1.574 . S
C584 H578 0.949 . S
C584 C588 1.368 . S
C585 C566 1.429 . S
C585 C579 1.429 . S
C585 C586 1.523 . S
C586 C567 1.368 . S
C586 C580 1.368 . S
C586 C585 1.523 . S
C587 C571 1.429 . S
C587 C583 1.429 . S
C587 C588 1.523 . S
C588 C572 1.368 . S
C588 C584 1.368 . S
C588 C587 1.523 . S
H589 C564 0.950 . S
H590 C566 0.950 . S
H591 C567 0.949 . S
H592 C569 0.950 . S
H593 C571 0.950 . S
C594 C595 1.349 . S
C594 C596 1.327 . S
C594 H619 0.950 . S
C595 C594 1.349 . S
C595 C611 1.349 . S
C596 C594 1.327 . S
C596 C615 1.429 . S
C596 H620 0.950 . S
C597 C614 1.574 . S
C597 C616 1.368 . S
C597 H621 0.949 . S
H598 C602 0.949 . S
C599 C600 1.349 . S
C599 C601 1.327 . S
C599 H622 0.950 . S
C600 C599 1.349 . S
C600 C612 1.349 . S
C601 C599 1.327 . S
C601 C617 1.429 . S
C601 H623 0.950 . S
C602 H598 0.949 . S
C602 C610 1.574 . S
C602 C618 1.368 . S
H603 C611 0.950 . S
H604 C609 0.950 . S
H605 C610 0.949 . S
H606 C612 0.950 . S
H607 C613 0.950 . S
H608 C614 0.949 . S
C609 H604 0.950 . S
C609 C611 1.327 . S
C609 C615 1.429 . S
C610 C602 1.574 . S
C610 H605 0.949 . S
C610 C616 1.368 . S
C611 C595 1.349 . S
C611 H603 0.950 . S
C611 C609 1.327 . S
C612 C600 1.349 . S
C612 H606 0.950 . S
C612 C613 1.327 . S
C613 H607 0.950 . S
C613 C612 1.327 . S
C613 C617 1.429 . S
C614 C597 1.574 . S
C614 H608 0.949 . S
C614 C618 1.368 . S
C615 C596 1.429 . S
C615 C609 1.429 . S
C615 C616 1.523 . S
C616 C597 1.368 . S
C616 C610 1.368 . S
C616 C615 1.523 . S
C617 C601 1.429 . S
C617 C613 1.429 . S
C617 C618 1.523 . S
C618 C602 1.368 . S
C618 C614 1.368 . S
C618 C617 1.523 . S
H619 C594 0.950 . S
H620 C596 0.950 . S
H621 C597 0.949 . S
H622 C599 0.950 . S
H623 C601 0.950 . S
C624 C625 1.349 . S
C624 C626 1.327 . S
C624 H649 0.950 . S
C625 C624 1.349 . S
C625 C641 1.349 . S
C626 C624 1.327 . S
C626 C645 1.429 . S
C626 H650 0.950 . S
C627 C644 1.574 . S
C627 C646 1.368 . S
C627 H651 0.949 . S
H628 C632 0.949 . S
C629 C630 1.349 . S
C629 C631 1.327 . S
C629 H652 0.950 . S
C630 C629 1.349 . S
C630 C642 1.349 . S
C631 C629 1.327 . S
C631 C647 1.429 . S
C631 H653 0.950 . S
C632 H628 0.949 . S
C632 C640 1.574 . S
C632 C648 1.368 . S
H633 C641 0.950 . S
H634 C639 0.950 . S
H635 C640 0.949 . S
H636 C642 0.950 . S
H637 C643 0.950 . S
H638 C644 0.949 . S
C639 H634 0.950 . S
C639 C641 1.327 . S
C639 C645 1.429 . S
C640 C632 1.574 . S
C640 H635 0.949 . S
C640 C646 1.368 . S
C641 C625 1.349 . S
C641 H633 0.950 . S
C641 C639 1.327 . S
C642 C630 1.349 . S
C642 H636 0.950 . S
C642 C643 1.327 . S
C643 H637 0.950 . S
C643 C642 1.327 . S
C643 C647 1.429 . S
C644 C627 1.574 . S
C644 H638 0.949 . S
C644 C648 1.368 . S
C645 C626 1.429 . S
C645 C639 1.429 . S
C645 C646 1.523 . S
C646 C627 1.368 . S
C646 C640 1.368 . S
C646 C645 1.523 . S
C647 C631 1.429 . S
C647 C643 1.429 . S
C647 C648 1.523 . S
C648 C632 1.368 . S
C648 C644 1.368 . S
C648 C647 1.523 . S
H649 C624 0.950 . S
H650 C626 0.950 . S
H651 C627 0.949 . S
H652 C629 0.950 . S
H653 C631 0.950 . S
C654 C655 1.349 . S
C654 C656 1.327 . S
C654 H679 0.950 . S
C655 C654 1.349 . S
C655 C671 1.349 . S
C656 C654 1.327 . S
C656 C675 1.429 . S
C656 H680 0.950 . S
C657 C674 1.574 . S
C657 C676 1.368 . S
C657 H681 0.949 . S
H658 C662 0.949 . S
C659 C660 1.349 . S
C659 C661 1.327 . S
C659 H682 0.950 . S
C660 C659 1.349 . S
C660 C672 1.349 . S
C661 C659 1.327 . S
C661 C677 1.429 . S
C661 H683 0.950 . S
C662 H658 0.949 . S
C662 C670 1.574 . S
C662 C678 1.368 . S
H663 C671 0.950 . S
H664 C669 0.950 . S
H665 C670 0.949 . S
H666 C672 0.950 . S
H667 C673 0.950 . S
H668 C674 0.949 . S
C669 H664 0.950 . S
C669 C671 1.327 . S
C669 C675 1.429 . S
C670 C662 1.574 . S
C670 H665 0.949 . S
C670 C676 1.368 . S
C671 C655 1.349 . S
C671 H663 0.950 . S
C671 C669 1.327 . S
C672 C660 1.349 . S
C672 H666 0.950 . S
C672 C673 1.327 . S
C673 H667 0.950 . S
C673 C672 1.327 . S
C673 C677 1.429 . S
C674 C657 1.574 . S
C674 H668 0.949 . S
C674 C678 1.368 . S
C675 C656 1.429 . S
C675 C669 1.429 . S
C675 C676 1.523 . S
C676 C657 1.368 . S
C676 C670 1.368 . S
C676 C675 1.523 . S
C677 C661 1.429 . S
C677 C673 1.429 . S
C677 C678 1.523 . S
C678 C662 1.368 . S
C678 C674 1.368 . S
C678 C677 1.523 . S
H679 C654 0.950 . S
H680 C656 0.950 . S
H681 C657 0.949 . S
H682 C659 0.950 . S
H683 C661 0.950 . S
C684 C685 1.349 . S
C684 C686 1.327 . S
C684 H709 0.950 . S
C685 C684 1.349 . S
C685 C701 1.349 . S
C686 C684 1.327 . S
C686 C705 1.429 . S
C686 H710 0.950 1_556 S
C687 C704 1.574 . S
C687 C706 1.368 . S
C687 H711 0.949 . S
H688 C692 0.949 . S
C689 C690 1.349 1_556 S
C689 C691 1.327 . S
C689 H712 0.950 . S
C690 C689 1.349 1_554 S
C690 C702 1.349 . S
C691 C689 1.327 . S
C691 C707 1.429 . S
C691 H713 0.950 . S
C692 H688 0.949 . S
C692 C700 1.574 . S
C692 C708 1.368 1_554 S
H693 C701 0.950 . S
H694 C699 0.950 . S
H695 C700 0.949 . S
H696 C702 0.950 . S
H697 C703 0.950 . S
H698 C704 0.949 . S
C699 H694 0.950 . S
C699 C701 1.327 . S
C699 C705 1.429 . S
C700 C692 1.574 . S
C700 H695 0.949 . S
C700 C706 1.368 1_554 S
C701 C685 1.349 . S
C701 H693 0.950 . S
C701 C699 1.327 . S
C702 C690 1.349 . S
C702 H696 0.950 . S
C702 C703 1.327 . S
C703 H697 0.950 . S
C703 C702 1.327 . S
C703 C707 1.429 1_554 S
C704 C687 1.574 . S
C704 H698 0.949 . S
C704 C708 1.368 . S
C705 C686 1.429 . S
C705 C699 1.429 . S
C705 C706 1.523 . S
C706 C687 1.368 . S
C706 C700 1.368 1_556 S
C706 C705 1.523 . S
C707 C691 1.429 . S
C707 C703 1.429 1_556 S
C707 C708 1.523 . S
C708 C692 1.368 1_556 S
C708 C704 1.368 . S
C708 C707 1.523 . S
H709 C684 0.950 . S
H710 C686 0.950 1_554 S
H711 C687 0.949 . S
H712 C689 0.950 . S
H713 C691 0.950 . S
C355 C52 1.917 . S
C360 C180 1.906 . S
C385 C111 1.917 . S
C390 C239 1.906 . S
C415 C298 1.906 . S
C420 C170 1.917 . S
C445 C3 1.906 . S
C450 C229 1.917 . S
C475 C62 1.906 . S
C480 C288 1.917 . S
C505 C347 1.917 1_554 S
C510 C121 1.906 . S
C535 C64 1.362 . S
C540 C33 1.355 1_565 S
C565 C123 1.362 . S
C570 C92 1.355 . S
C595 C151 1.355 . S
C600 C182 1.362 . S
C625 C241 1.362 . S
C630 C210 1.355 . S
C655 C300 1.362 . S
C660 C269 1.355 . S
C685 C328 1.355 1_655 S
C690 C5 1.362 . S
