# Generated by pormake.
# Topology ung, (4)-cn, num edge types: 1
# Building blocks:
#     Node 0, Type 0, BuildingBlock: CEKHIL_clean_sbu_0, # of connection points: 4
#     Node 1, Type 0, BuildingBlock: CEKHIL_clean_sbu_0, # of connection points: 4
#     Node 2, Type 0, BuildingBlock: CEKHIL_clean_sbu_0, # of connection points: 4
#     Node 3, Type 0, BuildingBlock: CEKHIL_clean_sbu_0, # of connection points: 4
#     Node 4, Type 0, BuildingBlock: CEKHIL_clean_sbu_0, # of connection points: 4
#     Node 5, Type 0, BuildingBlock: CEKHIL_clean_sbu_0, # of connection points: 4
#     Node 6, Type 0, BuildingBlock: CEKHIL_clean_sbu_0, # of connection points: 4
#     Node 7, Type 0, BuildingBlock: CEKHIL_clean_sbu_0, # of connection points: 4
#     Node 8, Type 0, BuildingBlock: CEKHIL_clean_sbu_0, # of connection points: 4
#     Node 9, Type 0, BuildingBlock: CEKHIL_clean_sbu_0, # of connection points: 4
#     Node 10, Type 0, BuildingBlock: CEKHIL_clean_sbu_0, # of connection points: 4
#     Node 11, Type 0, BuildingBlock: CEKHIL_clean_sbu_0, # of connection points: 4
#     Node 12, Type 0, BuildingBlock: CEKHIL_clean_sbu_0, # of connection points: 4
#     Node 13, Type 0, BuildingBlock: CEKHIL_clean_sbu_0, # of connection points: 4
#     Node 14, Type 0, BuildingBlock: CEKHIL_clean_sbu_0, # of connection points: 4
#     Node 15, Type 0, BuildingBlock: CEKHIL_clean_sbu_0, # of connection points: 4
#     Node 16, Type 0, BuildingBlock: CEKHIL_clean_sbu_0, # of connection points: 4
#     Node 17, Type 0, BuildingBlock: CEKHIL_clean_sbu_0, # of connection points: 4
#     Edge 18, Type (0, 0), BuildingBlock: XUDNAN_clean_linker_2, # of connection points: 2
#     Edge 19, Type (0, 0), BuildingBlock: XUDNAN_clean_linker_2, # of connection points: 2
#     Edge 20, Type (0, 0), BuildingBlock: XUDNAN_clean_linker_2, # of connection points: 2
#     Edge 21, Type (0, 0), BuildingBlock: XUDNAN_clean_linker_2, # of connection points: 2
#     Edge 22, Type (0, 0), BuildingBlock: XUDNAN_clean_linker_2, # of connection points: 2
#     Edge 23, Type (0, 0), BuildingBlock: XUDNAN_clean_linker_2, # of connection points: 2
#     Edge 24, Type (0, 0), BuildingBlock: XUDNAN_clean_linker_2, # of connection points: 2
#     Edge 25, Type (0, 0), BuildingBlock: XUDNAN_clean_linker_2, # of connection points: 2
#     Edge 26, Type (0, 0), BuildingBlock: XUDNAN_clean_linker_2, # of connection points: 2
#     Edge 27, Type (0, 0), BuildingBlock: XUDNAN_clean_linker_2, # of connection points: 2
#     Edge 28, Type (0, 0), BuildingBlock: XUDNAN_clean_linker_2, # of connection points: 2
#     Edge 29, Type (0, 0), BuildingBlock: XUDNAN_clean_linker_2, # of connection points: 2
#     Edge 30, Type (0, 0), BuildingBlock: XUDNAN_clean_linker_2, # of connection points: 2
#     Edge 31, Type (0, 0), BuildingBlock: XUDNAN_clean_linker_2, # of connection points: 2
#     Edge 32, Type (0, 0), BuildingBlock: XUDNAN_clean_linker_2, # of connection points: 2
#     Edge 33, Type (0, 0), BuildingBlock: XUDNAN_clean_linker_2, # of connection points: 2
#     Edge 34, Type (0, 0), BuildingBlock: XUDNAN_clean_linker_2, # of connection points: 2
#     Edge 35, Type (0, 0), BuildingBlock: XUDNAN_clean_linker_2, # of connection points: 2
#     Edge 36, Type (0, 0), BuildingBlock: XUDNAN_clean_linker_2, # of connection points: 2
#     Edge 37, Type (0, 0), BuildingBlock: XUDNAN_clean_linker_2, # of connection points: 2
#     Edge 38, Type (0, 0), BuildingBlock: XUDNAN_clean_linker_2, # of connection points: 2
#     Edge 39, Type (0, 0), BuildingBlock: XUDNAN_clean_linker_2, # of connection points: 2
#     Edge 40, Type (0, 0), BuildingBlock: XUDNAN_clean_linker_2, # of connection points: 2
#     Edge 41, Type (0, 0), BuildingBlock: XUDNAN_clean_linker_2, # of connection points: 2
#     Edge 42, Type (0, 0), BuildingBlock: XUDNAN_clean_linker_2, # of connection points: 2
#     Edge 43, Type (0, 0), BuildingBlock: XUDNAN_clean_linker_2, # of connection points: 2
#     Edge 44, Type (0, 0), BuildingBlock: XUDNAN_clean_linker_2, # of connection points: 2
#     Edge 45, Type (0, 0), BuildingBlock: XUDNAN_clean_linker_2, # of connection points: 2
#     Edge 46, Type (0, 0), BuildingBlock: XUDNAN_clean_linker_2, # of connection points: 2
#     Edge 47, Type (0, 0), BuildingBlock: XUDNAN_clean_linker_2, # of connection points: 2
#     Edge 48, Type (0, 0), BuildingBlock: XUDNAN_clean_linker_2, # of connection points: 2
#     Edge 49, Type (0, 0), BuildingBlock: XUDNAN_clean_linker_2, # of connection points: 2
#     Edge 50, Type (0, 0), BuildingBlock: XUDNAN_clean_linker_2, # of connection points: 2
#     Edge 51, Type (0, 0), BuildingBlock: XUDNAN_clean_linker_2, # of connection points: 2
#     Edge 52, Type (0, 0), BuildingBlock: XUDNAN_clean_linker_2, # of connection points: 2
#     Edge 53, Type (0, 0), BuildingBlock: XUDNAN_clean_linker_2, # of connection points: 2
# Relax obj value: 0.073
# Max RMSD: 0.189
# Mean RMSD: 0.184
data_MOF--net-ung--node1-CEKHIL_clean_sbu_0--edge1-XUDNAN_clean_linker_2
_symmetry_space_group_name_H-M    P1
_symmetry_Int_Tables_number       1
_symmetry_cell_setting            triclinic
loop_
_symmetry_equiv_pos_as_xyz
'x, y, z'
_cell_length_a     72.407502
_cell_length_b     72.461821
_cell_length_c     22.072221
_cell_angle_alpha  91.123888
_cell_angle_beta   91.100449
_cell_angle_gamma 119.93016
loop_
_atom_site_label
_atom_site_type_symbol
_atom_site_fract_x
_atom_site_fract_y
_atom_site_fract_z
_atom_type_partial_charge
Co0 Co 0.07223 0.6205 0.26401 0.0
O1 O 0.08337 0.60534 0.30718 0.0
O2 O 0.04905 0.59335 0.28724 0.0
C3 C 0.09188 0.65102 0.3175 0.0
O4 O 0.05498 0.63218 0.22191 0.0
Co5 Co 0.10162 0.65912 0.18888 0.0
O6 O 0.07758 0.66478 0.18885 0.0
C7 C 0.08452 0.61555 0.13639 0.0
C8 C 0.06374 0.59071 0.31392 0.0
C9 C 0.05878 0.64987 0.1986 0.0
O10 O 0.07443 0.60782 0.18503 0.0
O11 O 0.09685 0.63554 0.1295 0.0
O12 O 0.07408 0.63616 0.33776 0.0
O13 O 0.09821 0.64662 0.26755 0.0
Co14 Co 0.49764 0.49167 0.18749 0.0
O15 O 0.52043 0.50553 0.13286 0.0
O16 O 0.4957 0.5144 0.14728 0.0
C17 C 0.4891 0.45877 0.15462 0.0
O18 O 0.47146 0.47999 0.24085 0.0
Co19 Co 0.50189 0.46415 0.28486 0.0
O20 O 0.4714 0.45431 0.29662 0.0
C21 C 0.52372 0.51057 0.30537 0.0
C22 C 0.5126 0.51752 0.11881 0.0
C23 C 0.46264 0.4648 0.27861 0.0
O24 O 0.51562 0.51193 0.25465 0.0
O25 O 0.52119 0.49296 0.32493 0.0
O26 O 0.4815 0.46936 0.12736 0.0
O27 O 0.50288 0.46891 0.19856 0.0
Co28 Co 0.63631 0.05614 0.31073 0.0
O29 O 0.6142 0.04753 0.36797 0.0
O30 O 0.63888 0.08097 0.35498 0.0
C31 C 0.64499 0.03151 0.33861 0.0
O32 O 0.66206 0.07031 0.25548 0.0
Co33 Co 0.63023 0.0239 0.20941 0.0
O34 O 0.66068 0.04398 0.19647 0.0
C35 C 0.60814 0.04833 0.19691 0.0
C36 C 0.62229 0.06735 0.38415 0.0
C37 C 0.67021 0.06331 0.21589 0.0
O38 O 0.61743 0.05839 0.24685 0.0
O39 O 0.61018 0.03298 0.17499 0.0
O40 O 0.65303 0.04983 0.36714 0.0
O41 O 0.6307 0.02791 0.29665 0.0
Co42 Co 0.06401 0.48708 0.73026 0.0
O43 O 0.04615 0.49133 0.67501 0.0
O44 O 0.08064 0.51402 0.68977 0.0
C45 C 0.0527 0.45351 0.69863 0.0
O46 O 0.08687 0.48622 0.78461 0.0
Co47 Co 0.04124 0.45536 0.82787 0.0
O48 O 0.06875 0.456 0.83564 0.0
C49 C 0.04779 0.49801 0.84547 0.0
C50 C 0.06265 0.50906 0.66163 0.0
C51 C 0.08613 0.47164 0.81879 0.0
O52 O 0.05743 0.50226 0.79532 0.0
O53 O 0.03914 0.47948 0.8677 0.0
O54 O 0.06783 0.46953 0.67204 0.0
O55 O 0.0429 0.4581 0.73996 0.0
Co56 Co 0.62342 0.63174 0.73246 0.0
O57 O 0.59862 0.62563 0.77669 0.0
O58 O 0.612 0.60414 0.76992 0.0
C59 C 0.64314 0.66529 0.77048 0.0
O60 O 0.64935 0.63382 0.68991 0.0
Co61 Co 0.63848 0.668 0.63919 0.0
O62 O 0.66281 0.66292 0.63225 0.0
C63 C 0.6015 0.62566 0.60899 0.0
C64 C 0.59754 0.60796 0.79145 0.0
C65 C 0.66335 0.64701 0.65382 0.0
O66 O 0.60523 0.61817 0.65707 0.0
O67 O 0.61163 0.64546 0.59689 0.0
O68 O 0.64179 0.64944 0.80042 0.0
O69 O 0.63125 0.66018 0.72184 0.0
Co70 Co 0.51121 0.07224 0.77337 0.0
O71 O 0.53736 0.09101 0.73531 0.0
O72 O 0.52324 0.05606 0.73646 0.0
C73 C 0.49299 0.08695 0.7321 0.0
O74 O 0.48387 0.04807 0.80801 0.0
Co75 Co 0.49313 0.09177 0.86428 0.0
O76 O 0.46739 0.06314 0.85694 0.0
C77 C 0.52832 0.08483 0.90396 0.0
C78 C 0.53839 0.07435 0.71867 0.0
C79 C 0.46787 0.04687 0.83615 0.0
O80 O 0.52716 0.07565 0.8524 0.0
O81 O 0.51722 0.09366 0.91598 0.0
O82 O 0.49487 0.07237 0.70253 0.0
O83 O 0.50347 0.09337 0.78346 0.0
Co84 Co 0.71694 0.94027 0.59343 0.0
O85 O 0.70739 0.91283 0.55554 0.0
O86 O 0.74077 0.93955 0.55839 0.0
C87 C 0.69135 0.94526 0.55149 0.0
O88 O 0.73252 0.97097 0.62573 0.0
Co89 Co 0.68853 0.9467 0.68457 0.0
O90 O 0.71101 0.97696 0.68536 0.0
C91 C 0.71657 0.93054 0.72755 0.0
C92 C 0.72686 0.92041 0.53863 0.0
C93 C 0.72858 0.98321 0.65929 0.0
O94 O 0.72259 0.93057 0.67312 0.0
O95 O 0.70268 0.93579 0.7414 0.0
O96 O 0.70808 0.94914 0.52186 0.0
O97 O 0.68927 0.93641 0.60333 0.0
Co98 Co 0.1649 0.82513 0.53728 0.0
O99 O 0.1882 0.83834 0.484 0.0
O100 O 0.16352 0.84755 0.49319 0.0
C101 C 0.15605 0.79179 0.50886 0.0
O102 O 0.1382 0.81361 0.58897 0.0
Co103 Co 0.16982 0.79836 0.63845 0.0
O104 O 0.13969 0.78988 0.6506 0.0
C105 C 0.19164 0.84501 0.65398 0.0
C106 C 0.18057 0.85017 0.46654 0.0
C107 C 0.13018 0.79936 0.62989 0.0
O108 O 0.18258 0.84594 0.60445 0.0
O109 O 0.18984 0.82767 0.67345 0.0
O110 O 0.14919 0.80223 0.47756 0.0
O111 O 0.16965 0.80247 0.55247 0.0
Co112 Co 0.30384 0.39187 0.56415 0.0
O113 O 0.29092 0.39851 0.49813 0.0
O114 O 0.27888 0.36601 0.53186 0.0
C115 C 0.33738 0.41156 0.53063 0.0
O116 O 0.31393 0.37928 0.6306 0.0
Co117 Co 0.33385 0.42805 0.65168 0.0
O118 O 0.33698 0.40597 0.69402 0.0
C119 C 0.28796 0.40718 0.67126 0.0
C120 C 0.27698 0.37845 0.49348 0.0
C121 C 0.32641 0.38631 0.6782 0.0
O122 O 0.28502 0.39543 0.62371 0.0
O123 O 0.30641 0.42222 0.68901 0.0
O124 O 0.32492 0.39208 0.51115 0.0
O125 O 0.32876 0.41939 0.56623 0.0
Co126 Co 0.73615 0.82969 0.06091 0.0
O127 O 0.73363 0.84761 0.00363 0.0
O128 O 0.76392 0.8552 0.05171 0.0
C129 C 0.71748 0.79977 0.00399 0.0
O130 O 0.74351 0.81352 0.12306 0.0
Co131 Co 0.69392 0.79613 0.1157 0.0
O132 O 0.71228 0.78573 0.15015 0.0
C133 C 0.71603 0.83964 0.16834 0.0
C134 C 0.75378 0.86053 0.01267 0.0
C135 C 0.73259 0.79642 0.1529 0.0
O136 O 0.73039 0.84461 0.12888 0.0
O137 O 0.6993 0.82121 0.16933 0.0
O138 O 0.73764 0.81223 0.99578 0.0
O139 O 0.70871 0.80686 0.04123 0.0
Co140 Co 0.2951 0.96057 0.08223 0.0
O141 O 0.27018 0.95414 0.12601 0.0
O142 O 0.28223 0.93173 0.11306 0.0
C143 C 0.31589 0.99265 0.12695 0.0
O144 O 0.32124 0.96351 0.03829 0.0
Co145 Co 0.30997 -0.00042 0.99791 0.0
O146 O 0.33333 0.99344 0.98435 0.0
C147 C 0.27344 0.95824 0.95974 0.0
C148 C 0.26805 0.9357 0.13609 0.0
C149 C 0.33458 0.97742 0.00204 0.0
O150 O 0.27733 0.9496 0.00491 0.0
O151 O 0.2833 0.97835 0.95217 0.0
O152 O 0.31322 0.97571 0.15343 0.0
O153 O 0.30408 0.9894 0.07903 0.0
Co154 Co 0.17006 0.38859 0.06471 0.0
O155 O 0.19606 0.40101 0.02169 0.0
O156 O 0.17316 0.36644 0.02251 0.0
C157 C 0.15977 0.4112 0.0283 0.0
O158 O 0.14114 0.37044 0.10412 0.0
Co159 Co 0.16386 0.41587 0.16151 0.0
O160 O 0.13364 0.39346 0.15205 0.0
C161 C 0.18725 0.39366 0.19469 0.0
C162 C 0.19069 0.38201 0.00211 0.0
C163 C 0.12827 0.37473 0.13274 0.0
O164 O 0.1853 0.38669 0.13964 0.0
O165 O 0.1801 0.40572 0.2128 0.0
O166 O 0.1559 0.39407 0.99818 0.0
O167 O 0.1712 0.41519 0.07796 0.0
Co168 Co 0.40456 0.28747 0.94339 0.0
O169 O 0.42022 0.27626 0.98292 0.0
O170 O 0.38663 0.26608 0.00086 0.0
C171 C 0.4301 0.32148 0.96004 0.0
O172 O 0.3842 0.29713 0.91004 0.0
Co173 Co 0.42407 0.31244 0.82778 0.0
O174 O 0.40036 0.31837 0.83178 0.0
C175 C 0.40013 0.2656 0.82015 0.0
C176 C 0.40368 0.26501 0.01451 0.0
C177 C 0.38493 0.30945 0.8675 0.0
O178 O 0.39549 0.26525 0.87614 0.0
O179 O 0.41257 0.28277 0.79346 0.0
O180 O 0.41631 0.31131 0.00071 0.0
O181 O 0.42954 0.31038 0.9127 0.0
Co182 Co 0.83854 0.15284 0.90219 0.0
O183 O 0.86447 0.16667 0.85972 0.0
O184 O 0.84584 0.18209 0.88593 0.0
C185 C 0.82377 0.12328 0.84223 0.0
O186 O 0.81047 0.14179 0.94729 0.0
Co187 Co 0.83041 0.11167 0.96603 0.0
O188 O 0.80211 0.10892 0.97648 0.0
C189 C 0.85936 0.15337 0.02478 0.0
C190 C 0.86233 0.18329 0.85935 0.0
C191 C 0.79773 0.12385 0.97153 0.0
O192 O 0.85499 0.16232 0.98157 0.0
O193 O 0.85229 0.13328 0.02546 0.0
O194 O 0.82267 0.13985 0.82666 0.0
O195 O 0.83555 0.12582 0.88995 0.0
Co196 Co 0.95803 0.71304 0.92264 0.0
O197 O 0.9339 0.70204 0.97411 0.0
O198 O 0.95308 0.73578 0.94963 0.0
C199 C 0.97335 0.69643 0.96975 0.0
O200 O 0.9844 0.73025 0.87212 0.0
Co201 Co 0.96574 0.68246 0.84207 0.0
O202 O 0.99436 0.70772 0.83336 0.0
C203 C 0.93463 0.69506 0.8007 0.0
C204 C 0.93747 0.72137 0.98006 0.0
C205 C 0.99761 0.72647 0.84372 0.0
O206 O 0.93907 0.70716 0.84849 0.0
O207 O 0.94265 0.68303 0.7914 0.0
O208 O 0.97628 0.71458 0.99064 0.0
O209 O 0.96015 0.6881 0.9237 0.0
Co210 Co 0.39188 0.15552 0.41662 0.0
O211 O 0.38087 0.16825 0.3622 0.0
O212 O 0.41268 0.18534 0.40896 0.0
C213 C 0.38344 0.12709 0.35667 0.0
O214 O 0.40846 0.14696 0.47451 0.0
Co215 Co 0.36082 0.11256 0.47167 0.0
O216 O 0.3874 0.11209 0.49117 0.0
C217 C 0.3642 0.15173 0.52367 0.0
C218 C 0.39897 0.18568 0.37055 0.0
C219 C 0.40542 0.12917 0.49509 0.0
O220 O 0.37886 0.16232 0.48622 0.0
O221 O 0.35407 0.13134 0.52431 0.0
O222 O 0.40082 0.14497 0.34914 0.0
O223 O 0.3706 0.12738 0.39636 0.0
Co224 Co 0.96407 0.28342 0.45251 0.0
O225 O 0.94267 0.27251 0.51195 0.0
O226 O 0.96432 0.25987 0.49318 0.0
C227 C 0.97803 0.31763 0.48113 0.0
O228 O 0.98847 0.29227 0.39299 0.0
Co229 Co 0.95866 0.3112 0.35679 0.0
O230 O 0.9879 0.3179 0.33812 0.0
C231 C 0.93321 0.26473 0.34213 0.0
C232 C 0.94898 0.2592 0.52485 0.0
C233 C 0.99658 0.30704 0.35355 0.0
O234 O 0.94288 0.26326 0.38954 0.0
O235 O 0.93625 0.28254 0.32279 0.0
O236 O 0.98375 0.30558 0.50859 0.0
O237 O 0.9621 0.30815 0.44249 0.0
Co238 Co 0.83332 0.7308 0.38969 0.0
O239 O 0.85734 0.74807 0.3422 0.0
O240 O 0.83908 0.71297 0.33403 0.0
C241 C 0.81712 0.74989 0.37453 0.0
O242 O 0.80681 0.70857 0.43307 0.0
Co243 Co 0.82954 0.75354 0.50571 0.0
O244 O 0.80223 0.72658 0.51063 0.0
C245 C 0.85859 0.73636 0.50883 0.0
C246 C 0.85455 0.73089 0.31502 0.0
C247 C 0.79642 0.70953 0.47899 0.0
O248 O 0.85238 0.72907 0.4542 0.0
O249 O 0.85251 0.74795 0.53674 0.0
O250 O 0.81496 0.7355 0.33484 0.0
O251 O 0.83092 0.75413 0.41833 0.0
H252 H 0.0452 0.50265 0.96899 0.0
H253 H 0.05399 0.53509 0.7995 0.0
H254 H 0.06384 0.56846 0.85593 0.0
H255 H 0.02372 0.53312 0.05238 0.0
H256 H 0.03717 0.5335 0.12236 0.0
H257 H 0.0284 0.51147 0.06854 0.0
H258 H 0.06691 0.5178 0.06738 0.0
H259 H 0.07589 0.54013 0.12006 0.0
H260 H 0.08847 0.54358 0.04823 0.0
H261 H 0.07746 0.59917 0.92901 0.0
H262 H 0.08864 0.62468 0.01626 0.0
H263 H 0.06987 0.57261 0.13914 0.0
C264 C 0.04849 0.51659 0.94385 0.0
C265 C 0.04888 0.51625 0.87987 0.0
C266 C 0.05368 0.53497 0.84856 0.0
C267 C 0.05934 0.55405 0.88014 0.0
C268 C 0.05988 0.55414 0.9431 0.0
C269 C 0.05411 0.53586 0.97479 0.0
C270 C 0.05684 0.54069 0.04256 0.0
C271 C 0.03524 0.52901 0.07327 0.0
C272 C 0.07299 0.53523 0.07121 0.0
C273 C 0.06554 0.56456 0.04359 0.0
C274 C 0.06725 0.57197 0.98568 0.0
C275 C 0.07588 0.59356 0.97473 0.0
C276 C 0.0824 0.60794 0.02452 0.0
C277 C 0.08007 0.60063 0.08441 0.0
C278 C 0.0717 0.57865 0.09384 0.0
H279 H 0.59795 0.57812 0.86647 0.0
H280 H 0.56017 0.60671 0.81247 0.0
H281 H 0.53422 0.58689 0.8903 0.0
H282 H 0.55329 0.52579 0.90167 0.0
H283 H 0.56713 0.52296 0.96639 0.0
H284 H 0.58197 0.53835 0.90357 0.0
H285 H 0.60428 0.57074 0.97713 0.0
H286 H 0.5893 0.55552 0.04 0.0
H287 H 0.59086 0.58058 0.02458 0.0
H288 H 0.51309 0.56524 0.97768 0.0
H289 H 0.49759 0.54168 0.06461 0.0
H290 H 0.54945 0.52791 0.06228 0.0
C291 C 0.58399 0.57983 0.87026 0.0
C292 C 0.58101 0.59384 0.83322 0.0
C293 C 0.56276 0.59602 0.84038 0.0
C294 C 0.54792 0.58486 0.88451 0.0
C295 C 0.55156 0.5716 0.92147 0.0
C296 C 0.56906 0.56892 0.91463 0.0
C297 C 0.56959 0.55427 0.96173 0.0
C298 C 0.56788 0.53415 0.93152 0.0
C299 C 0.5897 0.56598 0.00331 0.0
C300 C 0.54969 0.54916 0.99574 0.0
C301 C 0.53951 0.55933 0.97205 0.0
C302 C 0.52088 0.5571 0.99655 0.0
C303 C 0.51223 0.5438 0.04604 0.0
C304 C 0.52226 0.53296 0.07018 0.0
C305 C 0.54133 0.53593 0.04485 0.0
H306 H 0.59189 0.03711 0.07943 0.0
H307 H 0.59617 0.07687 0.23517 0.0
H308 H 0.5775 0.0914 0.17584 0.0
H309 H 0.60079 0.07546 0.96682 0.0
H310 H 0.58214 0.05614 0.91169 0.0
H311 H 0.59556 0.04839 0.96641 0.0
H312 H 0.55916 0.01841 0.00203 0.0
H313 H 0.54565 0.02593 0.94697 0.0
H314 H 0.53938 0.02496 0.0259 0.0
H315 H 0.55864 0.10188 0.10017 0.0
H316 H 0.53924 0.10639 0.01402 0.0
H317 H 0.54749 0.06024 0.90674 0.0
C318 C 0.58874 0.04873 0.1013 0.0
C319 C 0.59552 0.0558 0.16211 0.0
C320 C 0.5912 0.07117 0.1887 0.0
C321 C 0.58063 0.07959 0.15534 0.0
C322 C 0.57449 0.07253 0.09536 0.0
C323 C 0.57827 0.05739 0.06857 0.0
C324 C 0.56995 0.05257 0.00329 0.0
C325 C 0.5882 0.0585 0.95948 0.0
C326 C 0.55249 0.02907 0.99403 0.0
C327 C 0.56084 0.06731 0.99779 0.0
C328 C 0.5637 0.07872 0.05139 0.0
C329 C 0.55631 0.09306 0.05788 0.0
C330 C 0.54533 0.09553 0.00859 0.0
C331 C 0.54185 0.08373 0.95341 0.0
C332 C 0.55003 0.06967 0.94797 0.0
H333 H 0.58668 0.0409 0.44458 0.0
H334 H 0.63724 0.1069 0.4403 0.0
H335 H 0.62231 0.11536 0.52999 0.0
H336 H 0.54506 0.05114 0.48626 0.0
H337 H 0.53247 0.02844 0.53384 0.0
H338 H 0.54738 0.02791 0.47016 0.0
H339 H 0.5707 0.01933 0.54171 0.0
H340 H 0.55602 0.02008 0.60579 0.0
H341 H 0.5846 0.03687 0.60617 0.0
H342 H 0.60147 0.11633 0.61959 0.0
H343 H 0.57554 0.1106 0.6981 0.0
H344 H 0.53885 0.04363 0.64392 0.0
C345 C 0.59468 0.0572 0.46227 0.0
C346 C 0.61319 0.07329 0.43544 0.0
C347 C 0.62304 0.09436 0.46002 0.0
C348 C 0.61472 0.09925 0.51107 0.0
C349 C 0.59659 0.08287 0.5368 0.0
C350 C 0.58664 0.0623 0.51292 0.0
C351 C 0.56715 0.04761 0.54797 0.0
C352 C 0.54682 0.03823 0.50713 0.0
C353 C 0.56979 0.02993 0.57714 0.0
C354 C 0.56753 0.06315 0.59548 0.0
C355 C 0.5847 0.08338 0.58838 0.0
C356 C 0.58805 0.10056 0.62561 0.0
C357 C 0.57323 0.0971 0.67018 0.0
C358 C 0.55523 0.07662 0.67737 0.0
C359 C 0.55261 0.05936 0.64018 0.0
H360 H 0.09159 0.58132 0.37156 0.0
H361 H 0.02479 0.56363 0.3593 0.0
H362 H 0.01795 0.54163 0.44917 0.0
H363 H 0.08282 0.52944 0.42396 0.0
H364 H 0.10636 0.54186 0.47306 0.0
H365 H 0.10541 0.5545 0.40451 0.0
H366 H 0.11461 0.58868 0.46779 0.0
H367 H 0.115 0.57598 0.53671 0.0
H368 H 0.09778 0.58717 0.52888 0.0
H369 H 0.01904 0.52486 0.54461 0.0
H370 H 0.02642 0.50913 0.6328 0.0
H371 H 0.09268 0.53725 0.58408 0.0
C372 C 0.07541 0.5724 0.38686 0.0
C373 C 0.05867 0.57413 0.35851 0.0
C374 C 0.03777 0.56237 0.38005 0.0
C375 C 0.03379 0.54999 0.43132 0.0
C376 C 0.05086 0.54947 0.45988 0.0
C377 C 0.07115 0.55994 0.4378 0.0
C378 C 0.08672 0.55701 0.47778 0.0
C379 C 0.09586 0.54498 0.44274 0.0
C380 C 0.10458 0.57849 0.50435 0.0
C381 C 0.07203 0.54352 0.52654 0.0
C382 C 0.05146 0.53951 0.51517 0.0
C383 C 0.03499 0.52765 0.5536 0.0
C384 C 0.03941 0.51888 0.6037 0.0
C385 C 0.06011 0.52193 0.61499 0.0
C386 C 0.07679 0.53485 0.57676 0.0
H387 H 0.58511 0.5824 0.60054 0.0
H388 H 0.58425 0.63484 0.51084 0.0
H389 H 0.56343 0.61059 0.42506 0.0
H390 H 0.59308 0.55926 0.47155 0.0
H391 H 0.57619 0.532 0.49207 0.0
H392 H 0.58888 0.55263 0.55029 0.0
H393 H 0.55223 0.54181 0.59552 0.0
H394 H 0.53942 0.52085 0.5381 0.0
H395 H 0.53114 0.5404 0.54735 0.0
H396 H 0.54626 0.58217 0.34552 0.0
H397 H 0.53047 0.55008 0.27908 0.0
H398 H 0.54211 0.51556 0.41981 0.0
C399 C 0.58009 0.58869 0.5636 0.0
C400 C 0.58632 0.61054 0.56239 0.0
C401 C 0.57972 0.61819 0.51271 0.0
C402 C 0.56789 0.60455 0.46377 0.0
C403 C 0.56275 0.58332 0.46538 0.0
C404 C 0.56834 0.57531 0.51422 0.0
C405 C 0.56168 0.55207 0.50299 0.0
C406 C 0.58112 0.54882 0.5043 0.0
C407 C 0.54512 0.53795 0.5487 0.0
C408 C 0.55185 0.54845 0.43964 0.0
C409 C 0.55264 0.56671 0.41906 0.0
C410 C 0.54528 0.56767 0.36129 0.0
C411 C 0.53645 0.54932 0.32378 0.0
C412 C 0.53496 0.53018 0.34416 0.0
C413 C 0.54297 0.52988 0.40283 0.0
H414 H 0.69218 0.83495 0.26874 0.0
H415 H 0.75114 0.87937 0.18412 0.0
H416 H 0.76206 0.90289 0.2753 0.0
H417 H 0.68391 0.87509 0.34185 0.0
H418 H 0.67303 0.85976 0.40842 0.0
H419 H 0.67014 0.84639 0.33634 0.0
H420 H 0.68785 0.82631 0.38384 0.0
H421 H 0.69128 0.84007 0.45569 0.0
H422 H 0.714 0.8413 0.41976 0.0
H423 H 0.76715 0.92134 0.37629 0.0
H424 H 0.76311 0.93629 0.47336 0.0
H425 H 0.70083 0.88024 0.49151 0.0
C426 C 0.70727 0.84973 0.26898 0.0
C427 C 0.72079 0.85517 0.21917 0.0
C428 C 0.74044 0.87472 0.22159 0.0
C429 C 0.74692 0.88817 0.27344 0.0
C430 C 0.73357 0.88194 0.32245 0.0
C431 C 0.71398 0.86342 0.32029 0.0
C432 C 0.70225 0.86093 0.37825 0.0
C433 C 0.68109 0.86053 0.36544 0.0
C434 C 0.69864 0.84097 0.41132 0.0
C435 C 0.71822 0.88107 0.41291 0.0
C436 C 0.73634 0.89279 0.38039 0.0
C437 C 0.75304 0.91232 0.4023 0.0
C438 C 0.75069 0.92061 0.4577 0.0
C439 C 0.73167 0.90943 0.48989 0.0
C440 C 0.71562 0.88909 0.46811 0.0
H441 H 0.21765 0.85935 0.41314 0.0
H442 H 0.16583 0.87316 0.40411 0.0
H443 H 0.18155 0.89456 0.31339 0.0
H444 H 0.25903 0.91066 0.36912 0.0
H445 H 0.27267 0.89989 0.32646 0.0
H446 H 0.25722 0.88591 0.39016 0.0
H447 H 0.23541 0.85214 0.32104 0.0
H448 H 0.25058 0.86612 0.25684 0.0
H449 H 0.22192 0.85368 0.25347 0.0
H450 H 0.20302 0.91428 0.22413 0.0
H451 H 0.22986 0.93335 0.14768 0.0
H452 H 0.26747 0.90606 0.21417 0.0
C453 C 0.20957 0.86692 0.39238 0.0
C454 C 0.19045 0.86458 0.4157 0.0
C455 C 0.18051 0.87482 0.38719 0.0
C456 C 0.18926 0.88686 0.33547 0.0
C457 C 0.2079 0.88843 0.31306 0.0
C458 C 0.21803 0.87889 0.34098 0.0
C459 C 0.23811 0.88332 0.30883 0.0
C460 C 0.25793 0.89569 0.35116 0.0
C461 C 0.23639 0.86258 0.28355 0.0
C462 C 0.23783 0.89701 0.25825 0.0
C463 C 0.22019 0.89964 0.26143 0.0
C464 C 0.2168 0.91224 0.22114 0.0
C465 C 0.23213 0.92296 0.17777 0.0
C466 C 0.25064 0.92102 0.17471 0.0
C467 C 0.25326 0.90747 0.21462 0.0
H468 H 0.28038 0.38979 0.37685 0.0
H469 H 0.23435 0.35247 0.50992 0.0
H470 H 0.20515 0.34913 0.44158 0.0
H471 H 0.2593 0.41978 0.33528 0.0
H472 H 0.26412 0.42037 0.25533 0.0
H473 H 0.2808 0.41635 0.30843 0.0
H474 H 0.27209 0.38111 0.2521 0.0
H475 H 0.25573 0.38524 0.19765 0.0
H476 H 0.24467 0.36078 0.238 0.0
H477 H 0.18268 0.35692 0.36941 0.0
H478 H 0.16752 0.37013 0.29121 0.0
H479 H 0.22778 0.40004 0.20116 0.0
C480 C 0.26403 0.38012 0.39029 0.0
C481 C 0.25943 0.37114 0.44802 0.0
C482 C 0.23803 0.35903 0.4652 0.0
C483 C 0.22143 0.35722 0.42685 0.0
C484 C 0.2266 0.36718 0.37117 0.0
C485 C 0.24735 0.37783 0.3521 0.0
C486 C 0.24897 0.38841 0.29233 0.0
C487 C 0.26419 0.41266 0.29827 0.0
C488 C 0.25576 0.37827 0.24204 0.0
C489 C 0.2261 0.38309 0.28226 0.0
C490 C 0.21342 0.37082 0.3282 0.0
C491 C 0.19229 0.36596 0.33234 0.0
C492 C 0.18389 0.37368 0.28821 0.0
C493 C 0.19652 0.38586 0.24036 0.0
C494 C 0.21777 0.3904 0.2369 0.0
H495 H 0.2321 0.40885 0.97738 0.0
H496 H 0.17634 0.35002 0.91417 0.0
H497 H 0.19489 0.35045 0.82037 0.0
H498 H 0.24493 0.43378 0.83916 0.0
H499 H 0.27343 0.44619 0.85058 0.0
H500 H 0.25667 0.44023 0.91486 0.0
H501 H 0.27226 0.41798 0.9604 0.0
H502 H 0.28952 0.42436 0.89708 0.0
H503 H 0.27201 0.39692 0.91488 0.0
H504 H 0.2186 0.35965 0.7291 0.0
H505 H 0.24712 0.37349 0.6549 0.0
H506 H 0.28739 0.42619 0.78001 0.0
C507 C 0.22395 0.39577 0.94445 0.0
C508 C 0.20282 0.37933 0.953 0.0
C509 C 0.19264 0.36258 0.90882 0.0
C510 C 0.20298 0.36284 0.8552 0.0
C511 C 0.22353 0.37983 0.84711 0.0
C512 C 0.23406 0.39571 0.89125 0.0
C513 C 0.25594 0.41236 0.87163 0.0
C514 C 0.25784 0.43444 0.8689 0.0
C515 C 0.27347 0.41293 0.91347 0.0
C516 C 0.25603 0.40362 0.80892 0.0
C517 C 0.23718 0.38492 0.7954 0.0
C518 C 0.2335 0.37415 0.73958 0.0
C519 C 0.2498 0.38228 0.69748 0.0
C520 C 0.26963 0.40098 0.7114 0.0
C521 C 0.27248 0.41193 0.7676 0.0
H522 H 0.76098 0.86482 0.89392 0.0
H523 H 0.76364 0.8993 0.05876 0.0
H524 H 0.75953 0.92549 0.99874 0.0
H525 H 0.78562 0.91417 0.78898 0.0
H526 H 0.76768 0.89766 0.72801 0.0
H527 H 0.77826 0.8865 0.78145 0.0
H528 H 0.73973 0.85727 0.80279 0.0
H529 H 0.72887 0.86872 0.75201 0.0
H530 H 0.72105 0.86488 0.82985 0.0
H531 H 0.74376 0.94009 0.92623 0.0
H532 H 0.72476 0.94695 0.84353 0.0
H533 H 0.73306 0.90371 0.72359 0.0
C534 C 0.76248 0.8789 0.91669 0.0
C535 C 0.7633 0.88053 0.98057 0.0
C536 C 0.76388 0.89833 0.00974 0.0
C537 C 0.76122 0.9131 0.97589 0.0
C538 C 0.75843 0.90994 0.91301 0.0
C539 C 0.75987 0.89373 0.88333 0.0
C540 C 0.7532 0.8918 0.81684 0.0
C541 C 0.77233 0.89791 0.77643 0.0
C542 C 0.73462 0.86935 0.79945 0.0
C543 C 0.74618 0.90825 0.81484 0.0
C544 C 0.74952 0.91871 0.87056 0.0
C545 C 0.74177 0.93256 0.88189 0.0
C546 C 0.7307 0.93611 0.83492 0.0
C547 C 0.72751 0.92589 0.77717 0.0
C548 C 0.73557 0.91198 0.76703 0.0
H549 H 0.25443 0.91478 0.94914 0.0
H550 H 0.25897 0.96969 0.85939 0.0
H551 H 0.23773 0.94642 0.7722 0.0
H552 H 0.26123 0.8904 0.82055 0.0
H553 H 0.24269 0.86351 0.84095 0.0
H554 H 0.2563 0.88394 0.89923 0.0
H555 H 0.22013 0.87578 0.94299 0.0
H556 H 0.20637 0.85506 0.88541 0.0
H557 H 0.20011 0.87611 0.89392 0.0
H558 H 0.21849 0.91778 0.69186 0.0
H559 H 0.20068 0.88532 0.62606 0.0
H560 H 0.20929 0.84939 0.76835 0.0
C561 C 0.25063 0.92192 0.9118 0.0
C562 C 0.25838 0.94409 0.91122 0.0
C563 C 0.25321 0.95275 0.86097 0.0
C564 C 0.24117 0.93968 0.81119 0.0
C565 C 0.2344 0.91802 0.8125 0.0
C566 C 0.23875 0.90917 0.86173 0.0
C567 C 0.23048 0.88562 0.85072 0.0
C568 C 0.24877 0.88059 0.85299 0.0
C569 C 0.21324 0.87236 0.89594 0.0
C570 C 0.2211 0.88268 0.78712 0.0
C571 C 0.22345 0.90153 0.766 0.0
C572 C 0.2164 0.90287 0.70803 0.0
C573 C 0.20638 0.88434 0.67094 0.0
C574 C 0.20357 0.86475 0.69193 0.0
C575 C 0.21121 0.86407 0.75074 0.0
H576 H 0.40105 0.26038 0.69752 0.0
H577 H 0.37575 0.22493 0.8608 0.0
H578 H 0.35872 0.19129 0.79937 0.0
H579 H 0.35517 0.2258 0.5958 0.0
H580 H 0.37203 0.22884 0.5333 0.0
H581 H 0.38025 0.25013 0.58944 0.0
H582 H 0.41563 0.25004 0.60971 0.0
H583 H 0.4076 0.229 0.55328 0.0
H584 H 0.41466 0.22553 0.62928 0.0
H585 H 0.34753 0.16134 0.72071 0.0
H586 H 0.34522 0.13819 0.6335 0.0
H587 H 0.37687 0.19386 0.52308 0.0
C588 C 0.39181 0.2456 0.72055 0.0
C589 C 0.38983 0.24532 0.78404 0.0
C590 C 0.37754 0.22556 0.81216 0.0
C591 C 0.36768 0.20637 0.77763 0.0
C592 C 0.37003 0.20726 0.71506 0.0
C593 C 0.38179 0.22641 0.6869 0.0
C594 C 0.38327 0.22313 0.61984 0.0
C595 C 0.372 0.23253 0.58241 0.0
C596 C 0.40667 0.23246 0.60203 0.0
C597 C 0.37124 0.19909 0.61494 0.0
C598 C 0.36339 0.19013 0.66997 0.0
C599 C 0.3533 0.16816 0.67715 0.0
C600 C 0.35197 0.15511 0.62733 0.0
C601 C 0.36089 0.16422 0.57155 0.0
C602 C 0.36982 0.18637 0.56502 0.0
H603 H 0.85538 0.19386 0.74781 0.0
H604 H 0.90365 0.21058 0.88984 0.0
H605 H 0.93186 0.23093 0.81723 0.0
H606 H 0.88228 0.18388 0.63663 0.0
H607 H 0.87422 0.19432 0.57444 0.0
H608 H 0.85748 0.18402 0.63868 0.0
H609 H 0.85812 0.21979 0.6566 0.0
H610 H 0.87405 0.22987 0.59074 0.0
H611 H 0.88337 0.24428 0.66257 0.0
H612 H 0.95479 0.24505 0.72566 0.0
H613 H 0.97059 0.25833 0.62596 0.0
H614 H 0.90728 0.23238 0.54428 0.0
C615 C 0.87183 0.20288 0.76419 0.0
C616 C 0.87743 0.20144 0.82471 0.0
C617 C 0.89914 0.21224 0.84403 0.0
C618 C 0.91523 0.22351 0.80289 0.0
C619 C 0.90927 0.22361 0.74254 0.0
C620 C 0.88807 0.21404 0.72351 0.0
C621 C 0.88592 0.21539 0.65557 0.0
C622 C 0.87428 0.19307 0.62455 0.0
C623 C 0.87472 0.2281 0.6405 0.0
C624 C 0.90918 0.2273 0.63947 0.0
C625 C 0.92242 0.23156 0.69 0.0
C626 C 0.94457 0.24192 0.68584 0.0
C627 C 0.95342 0.24906 0.629 0.0
C628 C 0.94009 0.24595 0.57769 0.0
C629 C 0.91774 0.23457 0.58285 0.0
H630 H 0.91596 0.72016 0.7994 0.0
H631 H 0.92375 0.67423 0.6894 0.0
H632 H 0.90589 0.68053 0.60279 0.0
H633 H 0.86353 0.70655 0.73526 0.0
H634 H 0.8693 0.73379 0.73885 0.0
H635 H 0.88174 0.72482 0.79314 0.0
H636 H 0.91886 0.75507 0.76314 0.0
H637 H 0.90656 0.76392 0.70803 0.0
H638 H 0.92625 0.75715 0.68497 0.0
H639 H 0.88949 0.69345 0.52628 0.0
H640 H 0.8719 0.70917 0.46747 0.0
H641 H 0.87417 0.7464 0.62724 0.0
C642 C 0.91365 0.71116 0.75745 0.0
C643 C 0.92135 0.69671 0.75142 0.0
C644 C 0.91801 0.68536 0.69544 0.0
C645 C 0.90796 0.68889 0.64578 0.0
C646 C 0.90119 0.70371 0.65281 0.0
C647 C 0.90358 0.71443 0.70741 0.0
C648 C 0.89499 0.72963 0.70262 0.0
C649 C 0.87627 0.72331 0.74497 0.0
C650 C 0.91273 0.75281 0.71545 0.0
C651 C 0.88756 0.72589 0.63659 0.0
C652 C 0.89142 0.71097 0.6087 0.0
C653 C 0.88624 0.70504 0.5477 0.0
C654 C 0.87634 0.71419 0.51459 0.0
C655 C 0.87157 0.72906 0.54257 0.0
C656 C 0.87759 0.73515 0.6043 0.0
H657 H 0.85631 0.69877 0.24799 0.0
H658 H 0.88337 0.76742 0.26412 0.0
H659 H 0.90569 0.77204 0.17738 0.0
H660 H 0.90527 0.70056 0.20919 0.0
H661 H 0.89279 0.67822 0.1558 0.0
H662 H 0.87804 0.67991 0.21835 0.0
H663 H 0.8486 0.67674 0.14312 0.0
H664 H 0.86336 0.67518 0.08031 0.0
H665 H 0.85567 0.69531 0.08287 0.0
H666 H 0.92556 0.76994 0.08999 0.0
H667 H 0.94341 0.76085 0.01015 0.0
H668 H 0.9045 0.69387 0.04947 0.0
C669 C 0.86689 0.71472 0.23309 0.0
C670 C 0.86798 0.73268 0.26306 0.0
C671 C 0.88217 0.75333 0.24225 0.0
C672 C 0.89492 0.7562 0.19267 0.0
C673 C 0.89348 0.73829 0.16399 0.0
C674 C 0.87998 0.71794 0.18342 0.0
C675 C 0.88226 0.70159 0.14524 0.0
C676 C 0.89006 0.68935 0.18449 0.0
C677 C 0.86122 0.6863 0.11085 0.0
C678 C 0.89921 0.71601 0.10208 0.0
C679 C 0.90528 0.7371 0.11344 0.0
C680 C 0.92093 0.75346 0.0804 0.0
C681 C 0.93095 0.74816 0.03504 0.0
C682 C 0.92535 0.7267 0.02343 0.0
C683 C 0.90907 0.71044 0.05702 0.0
H684 H 0.37185 0.19624 0.31371 0.0
H685 H 0.43848 0.21394 0.33281 0.0
H686 H 0.44661 0.23694 0.24481 0.0
H687 H 0.36671 0.19179 0.15984 0.0
H688 H 0.35026 0.20376 0.14963 0.0
H689 H 0.34972 0.19112 0.21945 0.0
H690 H 0.35965 0.22577 0.28113 0.0
H691 H 0.35959 0.2384 0.21161 0.0
H692 H 0.38283 0.25038 0.26185 0.0
H693 H 0.44626 0.25203 0.14618 0.0
H694 H 0.43965 0.26545 0.05227 0.0
H695 H 0.37342 0.24054 0.09825 0.0
C696 C 0.38827 0.20559 0.30058 0.0
C697 C 0.40461 0.20344 0.32994 0.0
C698 C 0.42585 0.21565 0.31143 0.0
C699 C 0.43055 0.22859 0.26121 0.0
C700 C 0.41391 0.2295 0.2313 0.0
C701 C 0.39332 0.21895 0.25132 0.0
C702 C 0.37835 0.22228 0.20966 0.0
C703 C 0.36019 0.20096 0.18308 0.0
C704 C 0.36959 0.23497 0.24305 0.0
C705 C 0.39356 0.23538 0.16125 0.0
C706 C 0.41394 0.23925 0.17495 0.0
C707 C 0.43054 0.24966 0.13575 0.0
C708 C 0.42649 0.25705 0.0821 0.0
C709 C 0.40601 0.25427 0.06799 0.0
C710 C 0.38924 0.24304 0.10792 0.0
H711 H 0.91704 0.26099 0.22596 0.0
H712 H 0.91944 0.2237 0.37457 0.0
H713 H 0.90147 0.19123 0.30896 0.0
H714 H 0.8649 0.22044 0.1626 0.0
H715 H 0.87275 0.22734 0.08559 0.0
H716 H 0.88459 0.24736 0.14575 0.0
H717 H 0.92211 0.25553 0.1136 0.0
H718 H 0.91036 0.23525 0.0541 0.0
H719 H 0.92827 0.23431 0.1102 0.0
H720 H 0.88512 0.16309 0.22559 0.0
H721 H 0.86853 0.14079 0.13267 0.0
H722 H 0.87723 0.19666 0.03901 0.0
C723 C 0.91343 0.24596 0.24517 0.0
C724 C 0.91968 0.24496 0.30548 0.0
C725 C 0.91484 0.22493 0.32849 0.0
C726 C 0.90469 0.20637 0.29156 0.0
C727 C 0.8994 0.20806 0.23179 0.0
C728 C 0.90335 0.22727 0.20894 0.0
C729 C 0.89639 0.22479 0.14279 0.0
C730 C 0.8786 0.2303 0.13367 0.0
C731 C 0.91542 0.23827 0.10284 0.0
C732 C 0.8881 0.20123 0.13201 0.0
C733 C 0.89 0.19185 0.1838 0.0
C734 C 0.88344 0.17021 0.18475 0.0
C735 C 0.87415 0.1577 0.13163 0.0
C736 C 0.87152 0.1669 0.07842 0.0
C737 C 0.87897 0.18905 0.07875 0.0
H738 H 0.1109 0.69195 0.28078 0.0
H739 H 0.10129 0.65333 0.4372 0.0
H740 H 0.12058 0.68588 0.50288 0.0
H741 H 0.16342 0.73818 0.32908 0.0
H742 H 0.15637 0.75707 0.30063 0.0
H743 H 0.14524 0.73101 0.26451 0.0
H744 H 0.10712 0.72477 0.27962 0.0
H745 H 0.11811 0.75071 0.31596 0.0
H746 H 0.0992 0.72744 0.35475 0.0
H747 H 0.13893 0.72242 0.55226 0.0
H748 H 0.152 0.76019 0.58287 0.0
H749 H 0.1463 0.77419 0.39561 0.0
C750 C 0.11348 0.6905 0.32854 0.0
C751 C 0.10512 0.67041 0.35422 0.0
C752 C 0.1079 0.6688 0.4171 0.0
C753 C 0.11888 0.68712 0.45455 0.0
C754 C 0.12662 0.70683 0.42829 0.0
C755 C 0.12389 0.70864 0.36682 0.0
C756 C 0.13128 0.73145 0.3513 0.0
C757 C 0.1502 0.73993 0.30887 0.0
C758 C 0.11283 0.73371 0.32382 0.0
C759 C 0.13814 0.74204 0.41371 0.0
C760 C 0.13586 0.72772 0.45734 0.0
C761 C 0.1409 0.73385 0.5185 0.0
C762 C 0.14828 0.75522 0.5355 0.0
C763 C 0.14993 0.76983 0.49153 0.0
C764 C 0.14499 0.76319 0.43004 0.0
H765 H 0.43463 0.42838 0.33362 0.0
H766 H 0.44604 0.49154 0.29355 0.0
H767 H 0.41613 0.48575 0.35851 0.0
H768 H 0.37704 0.40226 0.33501 0.0
H769 H 0.37545 0.38537 0.39593 0.0
H770 H 0.39709 0.39464 0.34457 0.0
H771 H 0.42402 0.41033 0.43612 0.0
H772 H 0.40245 0.40155 0.48766 0.0
H773 H 0.42284 0.42923 0.48791 0.0
H774 H 0.38613 0.47342 0.43527 0.0
H775 H 0.3557 0.45377 0.50255 0.0
H776 H 0.36421 0.39877 0.48824 0.0
C777 C 0.43071 0.44095 0.3377 0.0
C778 C 0.44271 0.46044 0.30844 0.0
C779 C 0.43696 0.4764 0.31504 0.0
C780 C 0.42014 0.47333 0.35237 0.0
C781 C 0.40916 0.45416 0.38231 0.0
C782 C 0.41402 0.43811 0.37428 0.0
C783 C 0.3999 0.41891 0.4108 0.0
C784 C 0.38658 0.39913 0.36908 0.0
C785 C 0.4131 0.41477 0.45843 0.0
C786 C 0.38614 0.4265 0.44052 0.0
C787 C 0.39188 0.44699 0.42455 0.0
C788 C 0.38148 0.45734 0.44768 0.0
C789 C 0.36438 0.44616 0.48635 0.0
C790 C 0.35772 0.42482 0.5006 0.0
C791 C 0.36902 0.4151 0.47812 0.0
H792 H 0.69342 0.98313 0.57088 0.0
H793 H 0.65876 0.92303 0.47017 0.0
H794 H 0.64147 0.93804 0.40542 0.0
H795 H 0.65103 -0.00139 0.56007 0.0
H796 H 0.67075 0.02623 0.55185 0.0
H797 H 0.67709 0.00935 0.59602 0.0
H798 H 0.70982 0.01954 0.52997 0.0
H799 H 0.70328 0.03595 0.48451 0.0
H800 H 0.70599 0.01485 0.44898 0.0
H801 H 0.63156 0.96128 0.34397 0.0
H802 H 0.62762 0.98992 0.29648 0.0
H803 H 0.66999 0.03483 0.43654 0.0
C804 C 0.68134 0.97288 0.53722 0.0
C805 C 0.67665 0.95175 0.52671 0.0
C806 C 0.6618 0.93903 0.48006 0.0
C807 C 0.65211 0.94749 0.44281 0.0
C808 C 0.65763 0.96872 0.45285 0.0
C809 C 0.67166 0.98114 0.4996 0.0
C810 C 0.67636 0.00393 0.49782 0.0
C811 C 0.66832 0.00987 0.55482 0.0
C812 C 0.70027 0.01947 0.48983 0.0
C813 C 0.66328 0.00256 0.44189 0.0
C814 C 0.65244 0.98214 0.41671 0.0
C815 C 0.63977 0.97728 0.36378 0.0
C816 C 0.63775 0.99364 0.33686 0.0
C817 C 0.64848 0.01457 0.36276 0.0
C818 C 0.66156 0.019 0.41553 0.0
H819 H 0.69557 0.05196 0.15621 0.0
H820 H 0.69101 0.1075 0.20868 0.0
H821 H 0.72266 0.13 0.14767 0.0
H822 H 0.75294 0.07781 0.1573 0.0
H823 H 0.75256 0.0617 0.09352 0.0
H824 H 0.73073 0.05122 0.14436 0.0
H825 H 0.70448 0.04334 0.05294 0.0
H826 H 0.72628 0.05425 0.00203 0.0
H827 H 0.70834 0.06471 0.00475 0.0
H828 H 0.75552 0.14601 0.0756 0.0
H829 H 0.78584 0.15328 0.00979 0.0
H830 H 0.76499 0.08578 0.00318 0.0
C831 C 0.7012 0.06889 0.15552 0.0
C832 C 0.69071 0.07792 0.18725 0.0
C833 C 0.69887 0.10021 0.18518 0.0
C834 C 0.71674 0.11307 0.15019 0.0
C835 C 0.72622 0.10336 0.11773 0.0
C836 C 0.71868 0.08173 0.12093 0.0
C837 C 0.73108 0.07465 0.08225 0.0
C838 C 0.74251 0.06584 0.1217 0.0
C839 C 0.71668 0.05827 0.03255 0.0
C840 C 0.74674 0.09556 0.05569 0.0
C841 C 0.74403 0.11213 0.07654 0.0
C842 C 0.75761 0.13303 0.05903 0.0
C843 C 0.77468 0.13703 0.02111 0.0
C844 C 0.77788 0.12015 0.00104 0.0
C845 C 0.76318 0.09917 0.01745 0.0
H846 H 0.00912 0.71396 0.04327 0.0
H847 H 0.95891 0.65359 0.96681 0.0
H848 H 0.97339 0.63463 0.02578 0.0
H849 H 0.05028 0.70029 0.03692 0.0
H850 H 0.06361 0.71494 0.10613 0.0
H851 H 0.04844 0.72328 0.06031 0.0
H852 H 0.02618 0.72106 0.15337 0.0
H853 H 0.04107 0.71235 0.19921 0.0
H854 H 0.01241 0.69643 0.19266 0.0
H855 H 0.99317 0.62236 0.09512 0.0
H856 H 0.01981 0.61807 0.15571 0.0
H857 H 0.05799 0.68672 0.18185 0.0
C858 C 0.00117 0.69674 0.03904 0.0
C859 C 0.98283 0.68517 0.00096 0.0
C860 C 0.97301 0.66271 0.99576 0.0
C861 C 0.98101 0.65182 0.02945 0.0
C862 C -0.00105 0.66369 0.06744 0.0
C863 C 0.00914 0.68569 0.07144 0.0
C864 C 0.02897 0.69483 0.11225 0.0
C865 C 0.049 0.70917 0.07677 0.0
C866 C 0.02703 0.70687 0.16766 0.0
C867 C 0.02844 0.67455 0.13041 0.0
C868 C 0.01079 0.65672 0.10513 0.0
C869 C 0.00706 0.63621 0.11512 0.0
C870 C 0.02217 0.63391 0.15002 0.0
C871 C 0.04093 0.65206 0.1735 0.0
C872 C 0.04377 0.67256 0.16459 0.0
H873 H 0.43346 0.35876 0.92856 0.0
H874 H 0.464 0.33095 0.03289 0.0
H875 H 0.48615 0.36528 0.08882 0.0
H876 H 0.48191 0.41571 0.92937 0.0
H877 H 0.46451 0.42671 0.93622 0.0
H878 H 0.45557 0.40196 0.89415 0.0
H879 H 0.42254 0.38401 0.9612 0.0
H880 H 0.43162 0.40836 0.00478 0.0
H881 H 0.42632 0.38442 0.04233 0.0
H882 H 0.49902 0.39976 0.14708 0.0
H883 H 0.50467 0.43339 0.19569 0.0
H884 H 0.46501 0.43807 0.0538 0.0
C885 C 0.44581 0.36044 0.96045 0.0
C886 C 0.44775 0.34273 0.97535 0.0
C887 C 0.46303 0.34478 0.01976 0.0
C888 C 0.47551 0.36413 0.05196 0.0
C889 C 0.47247 0.38116 0.03871 0.0
C890 C 0.45835 0.37966 0.99295 0.0
C891 C 0.45607 0.39928 0.99271 0.0
C892 C 0.46506 0.41165 0.93467 0.0
C893 C 0.43276 0.39366 0.00077 0.0
C894 C 0.46996 0.41134 0.04769 0.0
C895 C 0.47961 0.40089 0.07308 0.0
C896 C 0.49199 0.40837 0.12675 0.0
C897 C 0.49493 0.42732 0.15436 0.0
C898 C 0.4853 0.43829 0.12844 0.0
C899 C 0.47266 0.43009 0.0746 0.0
H900 H 0.9658 0.34265 0.54196 0.0
H901 H 0.01866 0.34289 0.45259 0.0
H902 H 0.04353 0.37768 0.50196 0.0
H903 H 0.98796 0.40246 0.53976 0.0
H904 H 0.97766 0.40271 0.61328 0.0
H905 H 0.96372 0.37963 0.563 0.0
H906 H 0.96551 0.35633 0.64789 0.0
H907 H 0.98021 0.37942 0.69758 0.0
H908 H 0.9911 0.36244 0.68003 0.0
H909 H 0.06294 0.40852 0.57177 0.0
H910 H 0.07607 0.43938 0.6428 0.0
H911 H 0.01102 0.42048 0.68778 0.0
C912 C 0.98245 0.35069 0.53047 0.0
C913 C 0.99042 0.3406 0.49242 0.0
C914 C 0.01236 0.35083 0.4804 0.0
C915 C 0.02659 0.37041 0.50879 0.0
C916 C 0.01849 0.37943 0.54894 0.0
C917 C 0.99692 0.37036 0.55858 0.0
C918 C 0.99277 0.38307 0.60645 0.0
C919 C 0.97976 0.39254 0.57898 0.0
C920 C 0.98174 0.36949 0.66121 0.0
C921 C 0.01541 0.40029 0.6232 0.0
C922 C 0.0299 0.39766 0.58961 0.0
C923 C 0.05178 0.41102 0.59758 0.0
C924 C 0.05906 0.42834 0.63846 0.0
C925 C 0.04453 0.43223 0.67049 0.0
C926 C 0.02244 0.41767 0.66436 0.0
H927 H 0.70337 0.66341 0.70153 0.0
H928 H 0.66193 0.62562 0.55065 0.0
H929 H 0.69324 0.63155 0.49281 0.0
H930 H 0.73851 0.70226 0.62363 0.0
H931 H 0.7624 0.70792 0.66601 0.0
H932 H 0.73726 0.69538 0.70213 0.0
H933 H 0.7425 0.6638 0.73127 0.0
H934 H 0.76801 0.67646 0.69597 0.0
H935 H 0.74815 0.64958 0.6734 0.0
H936 H 0.72895 0.64948 0.44265 0.0
H937 H 0.76493 0.67599 0.40879 0.0
H938 H 0.78298 0.70106 0.5935 0.0
C939 C 0.70095 0.65523 0.658 0.0
C940 C 0.68034 0.64345 0.63124 0.0
C941 C 0.67763 0.63402 0.57263 0.0
C942 C 0.69536 0.63744 0.53933 0.0
C943 C 0.7157 0.65017 0.56559 0.0
C944 C 0.71853 0.65848 0.62441 0.0
C945 C 0.74178 0.67416 0.63921 0.0
C946 C 0.74516 0.69621 0.65882 0.0
C947 C 0.75063 0.66548 0.68784 0.0
C948 C 0.75132 0.67471 0.57838 0.0
C949 C 0.73625 0.66045 0.53663 0.0
C950 C 0.74103 0.66022 0.47549 0.0
C951 C 0.76151 0.6753 0.45651 0.0
C952 C 0.77674 0.69053 0.4985 0.0
C953 C 0.77169 0.68952 0.56036 0.0
H954 H 0.41267 0.09585 0.50012 0.0
H955 H 0.43653 0.16052 0.56912 0.0
H956 H 0.46172 0.15686 0.63873 0.0
H957 H 0.41386 0.07301 0.63701 0.0
H958 H 0.4227 0.0557 0.60551 0.0
H959 H 0.40756 0.06385 0.5588 0.0
H960 H 0.43754 0.07892 0.4808 0.0
H961 H 0.45262 0.07046 0.52672 0.0
H962 H 0.46444 0.09791 0.50598 0.0
H963 H 0.48154 0.14443 0.70816 0.0
H964 H 0.49823 0.12627 0.76088 0.0
H965 H 0.46247 0.07061 0.64153 0.0
C966 C 0.42344 0.10936 0.52923 0.0
C967 C 0.4227 0.12845 0.52951 0.0
C968 C 0.43704 0.14583 0.56796 0.0
C969 C 0.45125 0.14383 0.60789 0.0
C970 C 0.45111 0.1245 0.60778 0.0
C971 C 0.43791 0.10776 0.56839 0.0
C972 C 0.44083 0.0887 0.5768 0.0
C973 C 0.42 0.06917 0.59566 0.0
C974 C 0.44937 0.08371 0.51916 0.0
C975 C 0.45742 0.09711 0.62804 0.0
C976 C 0.46304 0.11771 0.64575 0.0
C977 C 0.47747 0.12841 0.69407 0.0
C978 C 0.48673 0.11794 0.72403 0.0
C979 C 0.48169 0.09713 0.70495 0.0
C980 C 0.46673 0.0866 0.65671 0.0
H981 H 0.34743 0.98472 0.88759 0.0
H982 H 0.36291 0.9681 0.06095 0.0
H983 H 0.39823 0.97628 0.02323 0.0
H984 H 0.38106 0.96959 0.78806 0.0
H985 H 0.38812 0.99246 0.74269 0.0
H986 H 0.36227 0.9787 0.77585 0.0
H987 H 0.36925 0.0142 0.82702 0.0
H988 H 0.39499 0.02795 0.79458 0.0
H989 H 0.39269 0.02917 0.87557 0.0
H990 H 0.43439 0.99434 0.97489 0.0
H991 H 0.46689 0.02125 0.92547 0.0
H992 H 0.42793 0.02791 0.7867 0.0
C993 C 0.35789 0.98184 0.91666 0.0
C994 C 0.35242 0.97557 0.97689 0.0
C995 C 0.36662 0.97242 0.01423 0.0
C996 C 0.38674 0.97713 0.99307 0.0
C997 C 0.3922 0.98469 0.93438 0.0
C998 C 0.37794 0.98675 0.89651 0.0
C999 C 0.38847 -0.0013 0.84021 0.0
C1000 C 0.37944 0.98398 0.78334 0.0
C1001 C 0.38623 0.01868 0.8341 0.0
C1002 C 0.4113 0.0045 0.85395 0.0
C1003 C 0.4131 0.99562 0.90726 0.0
C1004 C 0.43303 0.00079 0.93231 0.0
C1005 C 0.45144 0.01598 0.90376 0.0
C1006 C 0.44977 0.02606 0.85137 0.0
C1007 C 0.42951 0.01973 0.82529 0.0
H1008 H 0.09788 0.44289 0.79215 0.0
H1009 H 0.1159 0.49982 0.90178 0.0
H1010 H 0.14014 0.49247 0.96487 0.0
H1011 H 0.09249 0.41136 0.90661 0.0
H1012 H 0.10258 0.39588 0.87 0.0
H1013 H 0.09098 0.40815 0.82512 0.0
H1014 H 0.12548 0.42808 0.7646 0.0
H1015 H 0.13704 0.41532 0.80797 0.0
H1016 H 0.15074 0.44395 0.80468 0.0
H1017 H 0.15711 0.4747 0.02683 0.0
H1018 H 0.16773 0.45042 0.07439 0.0
H1019 H 0.13729 0.40522 0.92317 0.0
C1020 C 0.10789 0.45442 0.82734 0.0
C1021 C 0.10564 0.47222 0.84125 0.0
C1022 C 0.11808 0.48651 0.88932 0.0
C1023 C 0.13166 0.48229 0.9257 0.0
C1024 C 0.13262 0.46382 0.91284 0.0
C1025 C 0.12137 0.4504 0.86377 0.0
C1026 C 0.12306 0.43044 0.86286 0.0
C1027 C 0.10097 0.41029 0.86639 0.0
C1028 C 0.13479 0.4294 0.8067 0.0
C1029 C 0.13633 0.43425 0.92024 0.0
C1030 C 0.14194 0.45361 0.94848 0.0
C1031 C 0.15313 0.4597 0.00436 0.0
C1032 C 0.15895 0.44578 0.0313 0.0
C1033 C 0.15339 0.42597 0.00246 0.0
C1034 C 0.14194 0.4203 0.94633 0.0
H1035 H 0.66003 0.67905 0.88506 0.0
H1036 H 0.65331 0.70128 0.70925 0.0
H1037 H 0.67118 0.73825 0.75108 0.0
H1038 H 0.64884 0.71382 0.9725 0.0
H1039 H 0.66779 0.71823 0.03309 0.0
H1040 H 0.65562 0.6936 0.98886 0.0
H1041 H 0.69292 0.69971 0.96203 0.0
H1042 H 0.70521 0.72422 0.00685 0.0
H1043 H 0.71179 0.7243 0.92847 0.0
H1044 H 0.68928 0.77246 0.81174 0.0
H1045 H 0.70729 0.80219 0.88786 0.0
H1046 H 0.70079 0.75759 0.02513 0.0
C1047 C 0.6626 0.69175 0.85519 0.0
C1048 C 0.65543 0.68743 0.79391 0.0
C1049 C 0.65875 0.70434 0.75634 0.0
C1050 C 0.66884 0.72534 0.77968 0.0
C1051 C 0.67531 0.72903 0.84066 0.0
C1052 C 0.6724 0.71275 0.87791 0.0
C1053 C 0.68034 0.72096 0.9422 0.0
C1054 C 0.66205 0.71106 0.98677 0.0
C1055 C 0.69866 0.71707 0.96097 0.0
C1056 C 0.68818 0.74442 0.93525 0.0
C1057 C 0.68517 0.74872 0.87622 0.0
C1058 C 0.69161 0.7693 0.85815 0.0
C1059 C 0.70168 0.786 0.90148 0.0
C1060 C 0.70492 0.78185 0.96184 0.0
C1061 C 0.698 0.76089 0.97924 0.0
H1062 H 0.74291 0.00095 0.77095 0.0
H1063 H 0.75258 0.01398 0.5799 0.0
H1064 H 0.78023 0.0514 0.60632 0.0
H1065 H 0.74844 0.04965 0.82126 0.0
H1066 H 0.76273 0.05154 0.89099 0.0
H1067 H 0.74455 0.02582 0.85671 0.0
H1068 H 0.77474 0.01645 0.85505 0.0
H1069 H 0.79304 0.04216 0.88953 0.0
H1070 H 0.7993 0.03395 0.81892 0.0
H1071 H 0.80326 0.08793 0.65429 0.0
H1072 H 0.82288 0.12046 0.71991 0.0
H1073 H 0.80084 0.08245 0.87965 0.0
C1074 C 0.75101 0.01172 0.73483 0.0
C1075 C 0.74573 0.00495 0.67354 0.0
C1076 C 0.75662 0.01913 0.62708 0.0
C1077 C 0.77224 0.04028 0.64172 0.0
C1078 C 0.77699 0.04658 0.70288 0.0
C1079 C 0.76695 0.03261 0.74866 0.0
C1080 C 0.77485 0.04329 0.81071 0.0
C1081 C 0.75655 0.04253 0.84702 0.0
C1082 C 0.78616 0.03337 0.8456 0.0
C1083 C 0.79046 0.06569 0.79285 0.0
C1084 C 0.79137 0.06729 0.73043 0.0
C1085 C 0.8031 0.08679 0.70311 0.0
C1086 C 0.8141 0.10512 0.7406 0.0
C1087 C 0.81355 0.10369 0.80443 0.0
C1088 C 0.8019 0.08376 0.8309 0.0
H1089 H 0.11454 0.77688 0.73155 0.0
H1090 H 0.09898 0.80906 0.59287 0.0
H1091 H 0.06425 0.79761 0.64103 0.0
H1092 H 0.06505 0.73188 0.73658 0.0
H1093 H 0.06651 0.72903 0.81721 0.0
H1094 H 0.09056 0.74199 0.77552 0.0
H1095 H 0.10476 0.77541 0.84729 0.0
H1096 H 0.08059 0.76256 0.88904 0.0
H1097 H 0.08903 0.78816 0.85715 0.0
H1098 H 0.0297 0.77986 0.70328 0.0
H1099 H -0.00094 0.75599 0.76548 0.0
H1100 H 0.03838 0.73525 0.85814 0.0
C1101 C 0.10403 0.78176 0.71097 0.0
C1102 C 0.10955 0.79382 0.65793 0.0
C1103 C 0.09518 0.79985 0.63345 0.0
C1104 C 0.07545 0.79347 0.6607 0.0
C1105 C 0.07053 0.78131 0.7127 0.0
C1106 C 0.08457 0.77562 0.73732 0.0
C1107 C 0.07543 0.76138 0.79063 0.0
C1108 C 0.07431 0.7398 0.77925 0.0
C1109 C 0.08822 0.77255 0.84951 0.0
C1110 C 0.05353 0.75902 0.79103 0.0
C1111 C 0.05104 0.77104 0.74699 0.0
C1112 C 0.03168 0.77063 0.73816 0.0
C1113 C 0.01441 0.75718 0.77392 0.0
C1114 C 0.01657 0.74406 0.81689 0.0
C1115 C 0.03647 0.74537 0.82612 0.0
H1116 H 0.33005 0.35145 0.64665 0.0
H1117 H 0.32784 0.38808 0.801 0.0
H1118 H 0.33509 0.36596 0.87028 0.0
H1119 H 0.30902 0.29867 0.72401 0.0
H1120 H 0.32743 0.29299 0.68542 0.0
H1121 H 0.31714 0.30821 0.64888 0.0
H1122 H 0.3557 0.33882 0.63305 0.0
H1123 H 0.36601 0.32365 0.66887 0.0
H1124 H 0.37397 0.35013 0.69761 0.0
H1125 H 0.34793 0.34381 0.9217 0.0
H1126 H 0.36867 0.32619 0.94864 0.0
H1127 H 0.3639 0.3049 0.76147 0.0
C1128 C 0.33035 0.35424 0.69514 0.0
C1129 C 0.32816 0.37124 0.71866 0.0
C1130 C 0.32941 0.37501 0.78222 0.0
C1131 C 0.33333 0.36242 0.82196 0.0
C1132 C 0.33604 0.3461 0.79749 0.0
C1133 C 0.33467 0.34202 0.73546 0.0
C1134 C 0.34149 0.32589 0.72024 0.0
C1135 C 0.32264 0.30521 0.69303 0.0
C1136 C 0.36041 0.33519 0.67747 0.0
C1137 C 0.34799 0.32245 0.78284 0.0
C1138 C 0.34407 0.33368 0.82714 0.0
C1139 C 0.35062 0.33453 0.88767 0.0
C1140 C 0.36224 0.32438 0.90279 0.0
C1141 C 0.36744 0.31394 0.85725 0.0
C1142 C 0.35959 0.31237 0.79721 0.0
H1143 H 0.01933 0.3406 0.28222 0.0
H1144 H 0.01902 0.28491 0.35236 0.0
H1145 H 0.05118 0.29362 0.29324 0.0
H1146 H 0.03519 0.33682 0.13169 0.0
H1147 H 0.05124 0.36533 0.12643 0.0
H1148 H 0.02816 0.35406 0.17281 0.0
H1149 H 0.05146 0.37637 0.26636 0.0
H1150 H 0.07447 0.38799 0.22004 0.0
H1151 H 0.07473 0.37476 0.28809 0.0
H1152 H 0.085 0.31035 0.22617 0.0
H1153 H 0.11719 0.33432 0.16924 0.0
H1154 H 0.09261 0.37732 0.14393 0.0
C1155 C 0.02577 0.32998 0.28533 0.0
C1156 C 0.01645 0.31194 0.32195 0.0
C1157 C 0.02583 0.29884 0.32476 0.0
C1158 C 0.044 0.3036 0.29093 0.0
C1159 C 0.05246 0.32142 0.25443 0.0
C1160 C 0.04355 0.33437 0.25206 0.0
C1161 C 0.05568 0.35309 0.21214 0.0
C1162 C 0.04173 0.35226 0.15754 0.0
C1163 C 0.06462 0.37429 0.24885 0.0
C1164 C 0.07319 0.34903 0.1926 0.0
C1165 C 0.07117 0.33064 0.21664 0.0
C1166 C 0.0865 0.32462 0.20678 0.0
C1167 C 0.10462 0.33819 0.17382 0.0
C1168 C 0.10726 0.35757 0.15173 0.0
C1169 C 0.09092 0.3625 0.15967 0.0
H1170 H 0.82631 0.78349 0.30486 0.0
H1171 H 0.77872 0.7377 0.42106 0.0
H1172 H 0.75262 0.74751 0.38254 0.0
H1173 H 0.80658 0.8239 0.31192 0.0
H1174 H 0.81277 0.83018 0.23367 0.0
H1175 H 0.82884 0.82298 0.27999 0.0
H1176 H 0.82191 0.79316 0.2009 0.0
H1177 H 0.80534 0.79978 0.15524 0.0
H1178 H 0.79484 0.77301 0.18094 0.0
H1179 H 0.73044 0.75663 0.31834 0.0
H1180 H 0.7137 0.76789 0.24144 0.0
H1181 H 0.77559 0.80904 0.16583 0.0
C1182 C 0.81074 0.77652 0.32449 0.0
C1183 C 0.80457 0.76046 0.36737 0.0
C1184 C 0.78382 0.75062 0.38996 0.0
C1185 C 0.7689 0.75598 0.36793 0.0
C1186 C 0.77516 0.77129 0.32372 0.0
C1187 C 0.79572 0.78185 0.30319 0.0
C1188 C 0.79767 0.79615 0.25139 0.0
C1189 C 0.81233 0.8197 0.27038 0.0
C1190 C 0.80539 0.79015 0.19374 0.0
C1191 C 0.77472 0.79097 0.2436 0.0
C1192 C 0.76214 0.77676 0.28629 0.0
C1193 C 0.74019 0.76819 0.28571 0.0
C1194 C 0.73082 0.77458 0.24115 0.0
C1195 C 0.74332 0.78949 0.19737 0.0
C1196 C 0.76563 0.79782 0.1989 0.0
H1197 H 0.32082 0.00545 0.24493 0.0
H1198 H 0.34246 0.02771 0.06509 0.0
H1199 H 0.36539 0.06431 0.10775 0.0
H1200 H 0.31471 0.0486 0.2875 0.0
H1201 H 0.32282 0.04992 0.36594 0.0
H1202 H 0.31111 0.02496 0.3236 0.0
H1203 H 0.34415 0.0213 0.34988 0.0
H1204 H 0.35596 0.04625 0.39263 0.0
H1205 H 0.37035 0.04249 0.3324 0.0
H1206 H 0.38449 0.09816 0.16853 0.0
H1207 H 0.39562 0.12838 0.24121 0.0
H1208 H 0.35832 0.08478 0.37991 0.0
C1209 C 0.33082 0.01801 0.21501 0.0
C1210 C 0.33035 0.01399 0.15217 0.0
C1211 C 0.3429 0.03069 0.11351 0.0
C1212 C 0.356 0.0514 0.13736 0.0
C1213 C 0.35591 0.05499 0.19958 0.0
C1214 C 0.34345 0.03885 0.23784 0.0
C1215 C 0.34419 0.04742 0.30149 0.0
C1216 C 0.32188 0.04243 0.32072 0.0
C1217 C 0.35427 0.03885 0.34676 0.0
C1218 C 0.35862 0.07097 0.29266 0.0
C1219 C 0.36567 0.07487 0.23398 0.0
C1220 C 0.37912 0.09534 0.2146 0.0
C1221 C 0.38534 0.11235 0.25615 0.0
C1222 C 0.37764 0.10876 0.31572 0.0
C1223 C 0.36424 0.08784 0.33438 0.0
loop_
_geom_bond_atom_site_label_1
_geom_bond_atom_site_label_2
_geom_bond_distance
_geom_bond_site_symmetry_2
_ccdc_geom_bond_type
Co0 O1 2.216 . S
Co0 O2 2.091 . S
Co0 O4 2.004 . S
Co0 O10 2.021 . S
Co0 O12 2.137 . S
Co0 O13 2.244 . S
O1 Co0 2.216 . S
O1 C8 1.247 . S
O2 Co0 2.091 . S
O2 C8 1.261 . S
C3 O12 1.247 . S
C3 O13 1.272 . S
O4 Co0 2.004 . S
O4 C9 1.259 . S
Co5 O6 2.061 . S
Co5 O11 2.052 . S
Co5 O13 2.135 . S
O6 Co5 2.061 . S
O6 C9 1.235 . S
C7 O10 1.238 . S
C7 O11 1.241 . S
C8 O1 1.247 . S
C8 O2 1.261 . S
C9 O4 1.259 . S
C9 O6 1.235 . S
O10 Co0 2.021 . S
O10 C7 1.238 . S
O11 Co5 2.052 . S
O11 C7 1.241 . S
O12 Co0 2.137 . S
O12 C3 1.247 . S
O13 Co0 2.244 . S
O13 C3 1.272 . S
O13 Co5 2.135 . S
Co14 O15 2.216 . S
Co14 O16 2.091 . S
Co14 O18 2.004 . S
Co14 O24 2.021 . S
Co14 O26 2.137 . S
Co14 O27 2.244 . S
O15 Co14 2.216 . S
O15 C22 1.247 . S
O16 Co14 2.091 . S
O16 C22 1.261 . S
C17 O26 1.247 . S
C17 O27 1.272 . S
O18 Co14 2.004 . S
O18 C23 1.259 . S
Co19 O20 2.061 . S
Co19 O25 2.052 . S
Co19 O27 2.135 . S
O20 Co19 2.061 . S
O20 C23 1.235 . S
C21 O24 1.238 . S
C21 O25 1.241 . S
C22 O15 1.247 . S
C22 O16 1.261 . S
C23 O18 1.259 . S
C23 O20 1.235 . S
O24 Co14 2.021 . S
O24 C21 1.238 . S
O25 Co19 2.052 . S
O25 C21 1.241 . S
O26 Co14 2.137 . S
O26 C17 1.247 . S
O27 Co14 2.244 . S
O27 C17 1.272 . S
O27 Co19 2.135 . S
Co28 O29 2.216 . S
Co28 O30 2.091 . S
Co28 O32 2.004 . S
Co28 O38 2.021 . S
Co28 O40 2.137 . S
Co28 O41 2.244 . S
O29 Co28 2.216 . S
O29 C36 1.247 . S
O30 Co28 2.091 . S
O30 C36 1.261 . S
C31 O40 1.247 . S
C31 O41 1.272 . S
O32 Co28 2.004 . S
O32 C37 1.259 . S
Co33 O34 2.061 . S
Co33 O39 2.052 . S
Co33 O41 2.135 . S
O34 Co33 2.061 . S
O34 C37 1.235 . S
C35 O38 1.238 . S
C35 O39 1.241 . S
C36 O29 1.247 . S
C36 O30 1.261 . S
C37 O32 1.259 . S
C37 O34 1.235 . S
O38 Co28 2.021 . S
O38 C35 1.238 . S
O39 Co33 2.052 . S
O39 C35 1.241 . S
O40 Co28 2.137 . S
O40 C31 1.247 . S
O41 Co28 2.244 . S
O41 C31 1.272 . S
O41 Co33 2.135 . S
Co42 O43 2.216 . S
Co42 O44 2.091 . S
Co42 O46 2.004 . S
Co42 O52 2.021 . S
Co42 O54 2.137 . S
Co42 O55 2.244 . S
O43 Co42 2.216 . S
O43 C50 1.247 . S
O44 Co42 2.091 . S
O44 C50 1.261 . S
C45 O54 1.247 . S
C45 O55 1.272 . S
O46 Co42 2.004 . S
O46 C51 1.259 . S
Co47 O48 2.061 . S
Co47 O53 2.052 . S
Co47 O55 2.135 . S
O48 Co47 2.061 . S
O48 C51 1.235 . S
C49 O52 1.238 . S
C49 O53 1.241 . S
C50 O43 1.247 . S
C50 O44 1.261 . S
C51 O46 1.259 . S
C51 O48 1.235 . S
O52 Co42 2.021 . S
O52 C49 1.238 . S
O53 Co47 2.052 . S
O53 C49 1.241 . S
O54 Co42 2.137 . S
O54 C45 1.247 . S
O55 Co42 2.244 . S
O55 C45 1.272 . S
O55 Co47 2.135 . S
Co56 O57 2.216 . S
Co56 O58 2.091 . S
Co56 O60 2.004 . S
Co56 O66 2.021 . S
Co56 O68 2.137 . S
Co56 O69 2.244 . S
O57 Co56 2.216 . S
O57 C64 1.247 . S
O58 Co56 2.091 . S
O58 C64 1.261 . S
C59 O68 1.247 . S
C59 O69 1.272 . S
O60 Co56 2.004 . S
O60 C65 1.259 . S
Co61 O62 2.061 . S
Co61 O67 2.052 . S
Co61 O69 2.135 . S
O62 Co61 2.061 . S
O62 C65 1.235 . S
C63 O66 1.238 . S
C63 O67 1.241 . S
C64 O57 1.247 . S
C64 O58 1.261 . S
C65 O60 1.259 . S
C65 O62 1.235 . S
O66 Co56 2.021 . S
O66 C63 1.238 . S
O67 Co61 2.052 . S
O67 C63 1.241 . S
O68 Co56 2.137 . S
O68 C59 1.247 . S
O69 Co56 2.244 . S
O69 C59 1.272 . S
O69 Co61 2.135 . S
Co70 O71 2.216 . S
Co70 O72 2.091 . S
Co70 O74 2.004 . S
Co70 O80 2.021 . S
Co70 O82 2.137 . S
Co70 O83 2.244 . S
O71 Co70 2.216 . S
O71 C78 1.247 . S
O72 Co70 2.091 . S
O72 C78 1.261 . S
C73 O82 1.247 . S
C73 O83 1.272 . S
O74 Co70 2.004 . S
O74 C79 1.259 . S
Co75 O76 2.061 . S
Co75 O81 2.052 . S
Co75 O83 2.135 . S
O76 Co75 2.061 . S
O76 C79 1.235 . S
C77 O80 1.238 . S
C77 O81 1.241 . S
C78 O71 1.247 . S
C78 O72 1.261 . S
C79 O74 1.259 . S
C79 O76 1.235 . S
O80 Co70 2.021 . S
O80 C77 1.238 . S
O81 Co75 2.052 . S
O81 C77 1.241 . S
O82 Co70 2.137 . S
O82 C73 1.247 . S
O83 Co70 2.244 . S
O83 C73 1.272 . S
O83 Co75 2.135 . S
Co84 O85 2.216 . S
Co84 O86 2.091 . S
Co84 O88 2.004 . S
Co84 O94 2.021 . S
Co84 O96 2.137 . S
Co84 O97 2.244 . S
O85 Co84 2.216 . S
O85 C92 1.247 . S
O86 Co84 2.091 . S
O86 C92 1.261 . S
C87 O96 1.247 . S
C87 O97 1.272 . S
O88 Co84 2.004 . S
O88 C93 1.259 . S
Co89 O90 2.061 . S
Co89 O95 2.052 . S
Co89 O97 2.135 . S
O90 Co89 2.061 . S
O90 C93 1.235 . S
C91 O94 1.238 . S
C91 O95 1.241 . S
C92 O85 1.247 . S
C92 O86 1.261 . S
C93 O88 1.259 . S
C93 O90 1.235 . S
O94 Co84 2.021 . S
O94 C91 1.238 . S
O95 Co89 2.052 . S
O95 C91 1.241 . S
O96 Co84 2.137 . S
O96 C87 1.247 . S
O97 Co84 2.244 . S
O97 C87 1.272 . S
O97 Co89 2.135 . S
Co98 O99 2.216 . S
Co98 O100 2.091 . S
Co98 O102 2.004 . S
Co98 O108 2.021 . S
Co98 O110 2.137 . S
Co98 O111 2.244 . S
O99 Co98 2.216 . S
O99 C106 1.247 . S
O100 Co98 2.091 . S
O100 C106 1.261 . S
C101 O110 1.247 . S
C101 O111 1.272 . S
O102 Co98 2.004 . S
O102 C107 1.259 . S
Co103 O104 2.061 . S
Co103 O109 2.052 . S
Co103 O111 2.135 . S
O104 Co103 2.061 . S
O104 C107 1.235 . S
C105 O108 1.238 . S
C105 O109 1.241 . S
C106 O99 1.247 . S
C106 O100 1.261 . S
C107 O102 1.259 . S
C107 O104 1.235 . S
O108 Co98 2.021 . S
O108 C105 1.238 . S
O109 Co103 2.052 . S
O109 C105 1.241 . S
O110 Co98 2.137 . S
O110 C101 1.247 . S
O111 Co98 2.244 . S
O111 C101 1.272 . S
O111 Co103 2.135 . S
Co112 O113 2.216 . S
Co112 O114 2.091 . S
Co112 O116 2.004 . S
Co112 O122 2.021 . S
Co112 O124 2.137 . S
Co112 O125 2.244 . S
O113 Co112 2.216 . S
O113 C120 1.247 . S
O114 Co112 2.091 . S
O114 C120 1.261 . S
C115 O124 1.247 . S
C115 O125 1.272 . S
O116 Co112 2.004 . S
O116 C121 1.259 . S
Co117 O118 2.061 . S
Co117 O123 2.052 . S
Co117 O125 2.135 . S
O118 Co117 2.061 . S
O118 C121 1.235 . S
C119 O122 1.238 . S
C119 O123 1.241 . S
C120 O113 1.247 . S
C120 O114 1.261 . S
C121 O116 1.259 . S
C121 O118 1.235 . S
O122 Co112 2.021 . S
O122 C119 1.238 . S
O123 Co117 2.052 . S
O123 C119 1.241 . S
O124 Co112 2.137 . S
O124 C115 1.247 . S
O125 Co112 2.244 . S
O125 C115 1.272 . S
O125 Co117 2.135 . S
Co126 O127 2.216 1_554 S
Co126 O128 2.091 1_554 S
Co126 O130 2.004 . S
Co126 O136 2.021 . S
Co126 O138 2.137 1_554 S
Co126 O139 2.244 . S
O127 Co126 2.216 1_556 S
O127 C134 1.247 . S
O128 Co126 2.091 1_556 S
O128 C134 1.261 . S
C129 O138 1.247 1_554 S
C129 O139 1.272 . S
O130 Co126 2.004 . S
O130 C135 1.259 . S
Co131 O132 2.061 . S
Co131 O137 2.052 . S
Co131 O139 2.135 . S
O132 Co131 2.061 . S
O132 C135 1.235 . S
C133 O136 1.238 . S
C133 O137 1.241 . S
C134 O127 1.247 . S
C134 O128 1.261 . S
C135 O130 1.259 . S
C135 O132 1.235 . S
O136 Co126 2.021 . S
O136 C133 1.238 . S
O137 Co131 2.052 . S
O137 C133 1.241 . S
O138 Co126 2.137 1_556 S
O138 C129 1.247 1_556 S
O139 Co126 2.244 . S
O139 C129 1.272 . S
O139 Co131 2.135 . S
Co140 O141 2.216 . S
Co140 O142 2.091 . S
Co140 O144 2.004 . S
Co140 O150 2.021 . S
Co140 O152 2.137 . S
Co140 O153 2.244 . S
O141 Co140 2.216 . S
O141 C148 1.247 . S
O142 Co140 2.091 . S
O142 C148 1.261 . S
C143 O152 1.247 . S
C143 O153 1.272 . S
O144 Co140 2.004 . S
O144 C149 1.259 . S
Co145 O146 2.061 1_556 S
Co145 O151 2.052 . S
Co145 O153 2.135 1_556 S
O146 Co145 2.061 1_554 S
O146 C149 1.237 . S
C147 O150 1.238 1_556 S
C147 O151 1.241 . S
C148 O141 1.247 . S
C148 O142 1.261 . S
C149 O144 1.259 . S
C149 O146 1.237 . S
O150 Co140 2.021 . S
O150 C147 1.238 1_554 S
O151 Co145 2.052 . S
O151 C147 1.241 . S
O152 Co140 2.137 . S
O152 C143 1.247 . S
O153 Co140 2.244 . S
O153 C143 1.272 . S
O153 Co145 2.135 1_554 S
Co154 O155 2.218 . S
Co154 O156 2.091 1_554 S
Co154 O158 2.004 . S
Co154 O164 2.021 . S
Co154 O166 2.137 1_554 S
Co154 O167 2.244 . S
O155 Co154 2.218 . S
O155 C162 1.245 1_554 S
O156 Co154 2.091 1_556 S
O156 C162 1.261 . S
C157 O166 1.247 1_554 S
C157 O167 1.272 . S
O158 Co154 2.004 . S
O158 C163 1.259 . S
Co159 O160 2.061 . S
Co159 O165 2.052 . S
Co159 O167 2.135 . S
O160 Co159 2.061 . S
O160 C163 1.235 . S
C161 O164 1.238 . S
C161 O165 1.241 . S
C162 O155 1.245 1_556 S
C162 O156 1.261 . S
C163 O158 1.259 . S
C163 O160 1.235 . S
O164 Co154 2.021 . S
O164 C161 1.238 . S
O165 Co159 2.052 . S
O165 C161 1.241 . S
O166 Co154 2.137 1_556 S
O166 C157 1.247 1_556 S
O167 Co154 2.244 . S
O167 C157 1.272 . S
O167 Co159 2.135 . S
Co168 O169 2.221 . S
Co168 O170 2.098 . S
Co168 O172 2.004 . S
Co168 O178 2.021 . S
Co168 O180 2.137 1_556 S
Co168 O181 2.244 . S
O169 Co168 2.221 . S
O169 C176 1.243 1_556 S
O170 Co168 2.098 . S
O170 C176 1.258 1_556 S
C171 O180 1.247 1_556 S
C171 O181 1.272 . S
O172 Co168 2.004 . S
O172 C177 1.259 . S
Co173 O174 2.061 . S
Co173 O179 2.052 . S
Co173 O181 2.135 . S
O174 Co173 2.061 . S
O174 C177 1.235 . S
C175 O178 1.238 . S
C175 O179 1.241 . S
C176 O169 1.243 1_554 S
C176 O170 1.258 1_554 S
C177 O172 1.259 . S
C177 O174 1.235 . S
O178 Co168 2.021 . S
O178 C175 1.238 . S
O179 Co173 2.052 . S
O179 C175 1.241 . S
O180 Co168 2.137 1_554 S
O180 C171 1.247 1_554 S
O181 Co168 2.244 . S
O181 C171 1.272 . S
O181 Co173 2.135 . S
Co182 O183 2.216 . S
Co182 O184 2.091 . S
Co182 O186 2.004 . S
Co182 O192 2.021 . S
Co182 O194 2.137 . S
Co182 O195 2.244 . S
O183 Co182 2.216 . S
O183 C190 1.247 . S
O184 Co182 2.091 . S
O184 C190 1.261 . S
C185 O194 1.247 . S
C185 O195 1.272 . S
O186 Co182 2.004 . S
O186 C191 1.259 . S
Co187 O188 2.061 . S
Co187 O193 2.052 . S
Co187 O195 2.135 1_554 S
O188 Co187 2.061 . S
O188 C191 1.235 1_554 S
C189 O192 1.238 1_554 S
C189 O193 1.241 . S
C190 O183 1.247 . S
C190 O184 1.261 . S
C191 O186 1.259 . S
C191 O188 1.235 1_556 S
O192 Co182 2.021 . S
O192 C189 1.238 1_556 S
O193 Co187 2.052 . S
O193 C189 1.241 . S
O194 Co182 2.137 . S
O194 C185 1.247 . S
O195 Co182 2.244 . S
O195 C185 1.272 . S
O195 Co187 2.135 1_556 S
Co196 O197 2.216 . S
Co196 O198 2.091 . S
Co196 O200 2.004 . S
Co196 O206 2.021 . S
Co196 O208 2.137 . S
Co196 O209 2.244 . S
O197 Co196 2.216 . S
O197 C204 1.247 1_556 S
O198 Co196 2.091 . S
O198 C204 1.261 1_556 S
C199 O208 1.247 . S
C199 O209 1.272 . S
O200 Co196 2.004 . S
O200 C205 1.259 1_655 S
Co201 O202 2.061 . S
Co201 O207 2.052 . S
Co201 O209 2.135 . S
O202 Co201 2.061 . S
O202 C205 1.235 1_655 S
C203 O206 1.238 . S
C203 O207 1.241 . S
C204 O197 1.247 1_554 S
C204 O198 1.261 1_554 S
C205 O200 1.259 1_455 S
C205 O202 1.235 1_455 S
O206 Co196 2.021 . S
O206 C203 1.238 . S
O207 Co201 2.052 . S
O207 C203 1.241 . S
O208 Co196 2.137 . S
O208 C199 1.247 . S
O209 Co196 2.244 . S
O209 C199 1.272 . S
O209 Co201 2.135 . S
Co210 O211 2.216 . S
Co210 O212 2.091 . S
Co210 O214 2.004 . S
Co210 O220 2.021 . S
Co210 O222 2.137 . S
Co210 O223 2.244 . S
O211 Co210 2.216 . S
O211 C218 1.247 . S
O212 Co210 2.091 . S
O212 C218 1.261 . S
C213 O222 1.247 . S
C213 O223 1.272 . S
O214 Co210 2.004 . S
O214 C219 1.259 . S
Co215 O216 2.061 . S
Co215 O221 2.052 . S
Co215 O223 2.135 . S
O216 Co215 2.061 . S
O216 C219 1.235 . S
C217 O220 1.238 . S
C217 O221 1.241 . S
C218 O211 1.247 . S
C218 O212 1.261 . S
C219 O214 1.259 . S
C219 O216 1.235 . S
O220 Co210 2.021 . S
O220 C217 1.238 . S
O221 Co215 2.052 . S
O221 C217 1.241 . S
O222 Co210 2.137 . S
O222 C213 1.247 . S
O223 Co210 2.244 . S
O223 C213 1.272 . S
O223 Co215 2.135 . S
Co224 O225 2.216 . S
Co224 O226 2.091 . S
Co224 O228 2.004 . S
Co224 O234 2.021 . S
Co224 O236 2.137 . S
Co224 O237 2.244 . S
O225 Co224 2.216 . S
O225 C232 1.247 . S
O226 Co224 2.091 . S
O226 C232 1.261 . S
C227 O236 1.247 . S
C227 O237 1.272 . S
O228 Co224 2.004 . S
O228 C233 1.259 1_655 S
Co229 O230 2.061 . S
Co229 O235 2.052 . S
Co229 O237 2.135 . S
O230 Co229 2.061 . S
O230 C233 1.235 1_655 S
C231 O234 1.238 . S
C231 O235 1.241 . S
C232 O225 1.247 . S
C232 O226 1.261 . S
C233 O228 1.259 1_455 S
C233 O230 1.235 1_455 S
O234 Co224 2.021 . S
O234 C231 1.238 . S
O235 Co229 2.052 . S
O235 C231 1.241 . S
O236 Co224 2.137 . S
O236 C227 1.247 . S
O237 Co224 2.244 . S
O237 C227 1.272 . S
O237 Co229 2.135 . S
Co238 O239 2.216 . S
Co238 O240 2.091 . S
Co238 O242 2.004 . S
Co238 O248 2.021 . S
Co238 O250 2.137 . S
Co238 O251 2.244 . S
O239 Co238 2.216 . S
O239 C246 1.247 . S
O240 Co238 2.091 . S
O240 C246 1.261 . S
C241 O250 1.247 . S
C241 O251 1.272 . S
O242 Co238 2.004 . S
O242 C247 1.259 . S
Co243 O244 2.061 . S
Co243 O249 2.052 . S
Co243 O251 2.135 . S
O244 Co243 2.061 . S
O244 C247 1.235 . S
C245 O248 1.238 . S
C245 O249 1.241 . S
C246 O239 1.247 . S
C246 O240 1.261 . S
C247 O242 1.259 . S
C247 O244 1.235 . S
O248 Co238 2.021 . S
O248 C245 1.238 . S
O249 Co243 2.052 . S
O249 C245 1.241 . S
O250 Co238 2.137 . S
O250 C241 1.247 . S
O251 Co238 2.244 . S
O251 C241 1.272 . S
O251 Co243 2.135 . S
H252 C264 0.930 . S
H253 C266 0.930 . S
H254 C267 0.930 . S
H255 C271 0.959 . S
H256 C271 0.959 . S
H257 C271 0.961 . S
H258 C272 0.960 . S
H259 C272 0.961 . S
H260 C272 0.959 . S
H261 C275 0.928 1_556 S
H262 C276 0.931 . S
H263 C278 0.930 . S
C264 H252 0.930 . S
C264 C265 1.399 . S
C264 C269 1.399 . S
C265 C264 1.399 . S
C265 C266 1.376 . S
C266 H253 0.930 . S
C266 C265 1.376 . S
C266 C267 1.388 . S
C267 H254 0.930 . S
C267 C266 1.388 . S
C267 C268 1.390 . S
C268 C267 1.390 . S
C268 C269 1.394 . S
C268 C274 1.461 1_556 S
C269 C264 1.399 . S
C269 C268 1.394 . S
C269 C270 1.516 1_556 S
C270 C269 1.516 1_554 S
C270 C271 1.502 . S
C270 C272 1.561 . S
C270 C273 1.526 . S
C271 H255 0.959 . S
C271 H256 0.959 . S
C271 H257 0.961 . S
C271 C270 1.502 . S
C272 H258 0.960 . S
C272 H259 0.961 . S
C272 H260 0.959 . S
C272 C270 1.561 . S
C273 C270 1.526 . S
C273 C274 1.401 . S
C273 C278 1.390 . S
C274 C268 1.461 1_554 S
C274 C273 1.401 . S
C274 C275 1.399 . S
C275 H261 0.928 1_554 S
C275 C274 1.399 . S
C275 C276 1.387 . S
C276 H262 0.931 . S
C276 C275 1.387 . S
C276 C277 1.389 . S
C277 C276 1.389 . S
C277 C278 1.387 . S
C278 H263 0.930 . S
C278 C273 1.390 . S
C278 C277 1.387 . S
H279 C291 0.930 . S
H280 C293 0.930 . S
H281 C294 0.930 . S
H282 C298 0.959 . S
H283 C298 0.959 . S
H284 C298 0.961 . S
H285 C299 0.960 . S
H286 C299 0.961 . S
H287 C299 0.959 . S
H288 C302 0.929 1_556 S
H289 C303 0.931 . S
H290 C305 0.930 . S
C291 H279 0.930 . S
C291 C292 1.399 . S
C291 C296 1.399 . S
C292 C291 1.399 . S
C292 C293 1.376 . S
C293 H280 0.930 . S
C293 C292 1.376 . S
C293 C294 1.388 . S
C294 H281 0.930 . S
C294 C293 1.388 . S
C294 C295 1.390 . S
C295 C294 1.390 . S
C295 C296 1.394 . S
C295 C301 1.465 1_556 S
C296 C291 1.399 . S
C296 C295 1.394 . S
C296 C297 1.516 1_556 S
C297 C296 1.516 1_554 S
C297 C298 1.502 . S
C297 C299 1.561 . S
C297 C300 1.526 . S
C298 H282 0.959 . S
C298 H283 0.959 . S
C298 H284 0.961 . S
C298 C297 1.502 . S
C299 H285 0.960 . S
C299 H286 0.961 . S
C299 H287 0.959 . S
C299 C297 1.561 . S
C300 C297 1.526 . S
C300 C301 1.396 . S
C300 C305 1.390 . S
C301 C295 1.465 1_554 S
C301 C300 1.396 . S
C301 C302 1.399 . S
C302 H288 0.929 1_554 S
C302 C301 1.399 . S
C302 C303 1.385 . S
C303 H289 0.931 . S
C303 C302 1.385 . S
C303 C304 1.389 . S
C304 C303 1.389 . S
C304 C305 1.387 . S
C305 H290 0.930 . S
C305 C300 1.390 . S
C305 C304 1.387 . S
H306 C318 0.930 . S
H307 C320 0.930 . S
H308 C321 0.930 . S
H309 C325 0.959 . S
H310 C325 0.959 . S
H311 C325 0.961 . S
H312 C326 0.960 . S
H313 C326 0.961 . S
H314 C326 0.959 . S
H315 C329 0.929 . S
H316 C330 0.931 . S
H317 C332 0.930 . S
C318 H306 0.930 . S
C318 C319 1.399 . S
C318 C323 1.399 . S
C319 C318 1.399 . S
C319 C320 1.376 . S
C320 H307 0.930 . S
C320 C319 1.376 . S
C320 C321 1.388 . S
C321 H308 0.930 . S
C321 C320 1.388 . S
C321 C322 1.390 . S
C322 C321 1.390 . S
C322 C323 1.394 . S
C322 C328 1.465 1_554 S
C323 C318 1.399 . S
C323 C322 1.394 . S
C323 C324 1.512 1_554 S
C324 C323 1.512 1_556 S
C324 C325 1.506 . S
C324 C326 1.558 1_556 S
C324 C327 1.529 . S
C325 H309 0.959 . S
C325 H310 0.959 . S
C325 H311 0.961 . S
C325 C324 1.506 . S
C326 H312 0.960 . S
C326 H313 0.961 . S
C326 H314 0.959 . S
C326 C324 1.558 1_554 S
C327 C324 1.529 . S
C327 C328 1.396 . S
C327 C332 1.390 . S
C328 C322 1.465 1_556 S
C328 C327 1.396 . S
C328 C329 1.399 . S
C329 H315 0.929 . S
C329 C328 1.399 . S
C329 C330 1.385 . S
C330 H316 0.931 . S
C330 C329 1.385 . S
C330 C331 1.389 . S
C331 C330 1.389 . S
C331 C332 1.387 . S
C332 H317 0.930 . S
C332 C327 1.390 . S
C332 C331 1.387 . S
H333 C345 0.930 . S
H334 C347 0.930 . S
H335 C348 0.930 . S
H336 C352 0.959 . S
H337 C352 0.959 . S
H338 C352 0.961 . S
H339 C353 0.960 . S
H340 C353 0.961 . S
H341 C353 0.959 . S
H342 C356 0.929 . S
H343 C357 0.931 . S
H344 C359 0.930 . S
C345 H333 0.930 . S
C345 C346 1.399 . S
C345 C350 1.399 . S
C346 C345 1.399 . S
C346 C347 1.376 . S
C347 H334 0.930 . S
C347 C346 1.376 . S
C347 C348 1.388 . S
C348 H335 0.930 . S
C348 C347 1.388 . S
C348 C349 1.390 . S
C349 C348 1.390 . S
C349 C350 1.394 . S
C349 C355 1.465 . S
C350 C345 1.399 . S
C350 C349 1.394 . S
C350 C351 1.516 . S
C351 C350 1.516 . S
C351 C352 1.502 . S
C351 C353 1.561 . S
C351 C354 1.526 . S
C352 H336 0.959 . S
C352 H337 0.959 . S
C352 H338 0.961 . S
C352 C351 1.502 . S
C353 H339 0.960 . S
C353 H340 0.961 . S
C353 H341 0.959 . S
C353 C351 1.561 . S
C354 C351 1.526 . S
C354 C355 1.396 . S
C354 C359 1.390 . S
C355 C349 1.465 . S
C355 C354 1.396 . S
C355 C356 1.399 . S
C356 H342 0.929 . S
C356 C355 1.399 . S
C356 C357 1.385 . S
C357 H343 0.931 . S
C357 C356 1.385 . S
C357 C358 1.389 . S
C358 C357 1.389 . S
C358 C359 1.387 . S
C359 H344 0.930 . S
C359 C354 1.390 . S
C359 C358 1.387 . S
H360 C372 0.930 . S
H361 C374 0.930 . S
H362 C375 0.930 . S
H363 C379 0.959 . S
H364 C379 0.959 . S
H365 C379 0.961 . S
H366 C380 0.960 . S
H367 C380 0.961 . S
H368 C380 0.959 . S
H369 C383 0.929 . S
H370 C384 0.931 . S
H371 C386 0.930 . S
C372 H360 0.930 . S
C372 C373 1.399 . S
C372 C377 1.399 . S
C373 C372 1.399 . S
C373 C374 1.376 . S
C374 H361 0.930 . S
C374 C373 1.376 . S
C374 C375 1.388 . S
C375 H362 0.930 . S
C375 C374 1.388 . S
C375 C376 1.390 . S
C376 C375 1.390 . S
C376 C377 1.394 . S
C376 C382 1.465 . S
C377 C372 1.399 . S
C377 C376 1.394 . S
C377 C378 1.516 . S
C378 C377 1.516 . S
C378 C379 1.502 . S
C378 C380 1.561 . S
C378 C381 1.526 . S
C379 H363 0.959 . S
C379 H364 0.959 . S
C379 H365 0.961 . S
C379 C378 1.502 . S
C380 H366 0.960 . S
C380 H367 0.961 . S
C380 H368 0.959 . S
C380 C378 1.561 . S
C381 C378 1.526 . S
C381 C382 1.396 . S
C381 C386 1.390 . S
C382 C376 1.465 . S
C382 C381 1.396 . S
C382 C383 1.399 . S
C383 H369 0.929 . S
C383 C382 1.399 . S
C383 C384 1.385 . S
C384 H370 0.931 . S
C384 C383 1.385 . S
C384 C385 1.389 . S
C385 C384 1.389 . S
C385 C386 1.387 . S
C386 H371 0.930 . S
C386 C381 1.390 . S
C386 C385 1.387 . S
H387 C399 0.930 . S
H388 C401 0.930 . S
H389 C402 0.930 . S
H390 C406 0.959 . S
H391 C406 0.959 . S
H392 C406 0.961 . S
H393 C407 0.960 . S
H394 C407 0.961 . S
H395 C407 0.959 . S
H396 C410 0.929 . S
H397 C411 0.931 . S
H398 C413 0.930 . S
C399 H387 0.930 . S
C399 C400 1.399 . S
C399 C404 1.399 . S
C400 C399 1.399 . S
C400 C401 1.376 . S
C401 H388 0.930 . S
C401 C400 1.376 . S
C401 C402 1.388 . S
C402 H389 0.930 . S
C402 C401 1.388 . S
C402 C403 1.390 . S
C403 C402 1.390 . S
C403 C404 1.394 . S
C403 C409 1.465 . S
C404 C399 1.399 . S
C404 C403 1.394 . S
C404 C405 1.516 . S
C405 C404 1.516 . S
C405 C406 1.502 . S
C405 C407 1.561 . S
C405 C408 1.526 . S
C406 H390 0.959 . S
C406 H391 0.959 . S
C406 H392 0.961 . S
C406 C405 1.502 . S
C407 H393 0.960 . S
C407 H394 0.961 . S
C407 H395 0.959 . S
C407 C405 1.561 . S
C408 C405 1.526 . S
C408 C409 1.396 . S
C408 C413 1.390 . S
C409 C403 1.465 . S
C409 C408 1.396 . S
C409 C410 1.399 . S
C410 H396 0.929 . S
C410 C409 1.399 . S
C410 C411 1.385 . S
C411 H397 0.931 . S
C411 C410 1.385 . S
C411 C412 1.389 . S
C412 C411 1.389 . S
C412 C413 1.387 . S
C413 H398 0.930 . S
C413 C408 1.390 . S
C413 C412 1.387 . S
H414 C426 0.930 . S
H415 C428 0.930 . S
H416 C429 0.930 . S
H417 C433 0.959 . S
H418 C433 0.959 . S
H419 C433 0.961 . S
H420 C434 0.960 . S
H421 C434 0.961 . S
H422 C434 0.959 . S
H423 C437 0.929 . S
H424 C438 0.931 . S
H425 C440 0.930 . S
C426 H414 0.930 . S
C426 C427 1.399 . S
C426 C431 1.399 . S
C427 C426 1.399 . S
C427 C428 1.376 . S
C428 H415 0.930 . S
C428 C427 1.376 . S
C428 C429 1.388 . S
C429 H416 0.930 . S
C429 C428 1.388 . S
C429 C430 1.390 . S
C430 C429 1.390 . S
C430 C431 1.394 . S
C430 C436 1.465 . S
C431 C426 1.399 . S
C431 C430 1.394 . S
C431 C432 1.516 . S
C432 C431 1.516 . S
C432 C433 1.502 . S
C432 C434 1.561 . S
C432 C435 1.526 . S
C433 H417 0.959 . S
C433 H418 0.959 . S
C433 H419 0.961 . S
C433 C432 1.502 . S
C434 H420 0.960 . S
C434 H421 0.961 . S
C434 H422 0.959 . S
C434 C432 1.561 . S
C435 C432 1.526 . S
C435 C436 1.396 . S
C435 C440 1.390 . S
C436 C430 1.465 . S
C436 C435 1.396 . S
C436 C437 1.399 . S
C437 H423 0.929 . S
C437 C436 1.399 . S
C437 C438 1.385 . S
C438 H424 0.931 . S
C438 C437 1.385 . S
C438 C439 1.389 . S
C439 C438 1.389 . S
C439 C440 1.387 . S
C440 H425 0.930 . S
C440 C435 1.390 . S
C440 C439 1.387 . S
H441 C453 0.930 . S
H442 C455 0.930 . S
H443 C456 0.930 . S
H444 C460 0.959 . S
H445 C460 0.959 . S
H446 C460 0.961 . S
H447 C461 0.960 . S
H448 C461 0.961 . S
H449 C461 0.959 . S
H450 C464 0.929 . S
H451 C465 0.931 . S
H452 C467 0.930 . S
C453 H441 0.930 . S
C453 C454 1.399 . S
C453 C458 1.399 . S
C454 C453 1.399 . S
C454 C455 1.376 . S
C455 H442 0.930 . S
C455 C454 1.376 . S
C455 C456 1.388 . S
C456 H443 0.930 . S
C456 C455 1.388 . S
C456 C457 1.390 . S
C457 C456 1.390 . S
C457 C458 1.394 . S
C457 C463 1.465 . S
C458 C453 1.399 . S
C458 C457 1.394 . S
C458 C459 1.516 . S
C459 C458 1.516 . S
C459 C460 1.502 . S
C459 C461 1.561 . S
C459 C462 1.526 . S
C460 H444 0.959 . S
C460 H445 0.959 . S
C460 H446 0.961 . S
C460 C459 1.502 . S
C461 H447 0.960 . S
C461 H448 0.961 . S
C461 H449 0.959 . S
C461 C459 1.561 . S
C462 C459 1.526 . S
C462 C463 1.396 . S
C462 C467 1.390 . S
C463 C457 1.465 . S
C463 C462 1.396 . S
C463 C464 1.399 . S
C464 H450 0.929 . S
C464 C463 1.399 . S
C464 C465 1.385 . S
C465 H451 0.931 . S
C465 C464 1.385 . S
C465 C466 1.389 . S
C466 C465 1.389 . S
C466 C467 1.387 . S
C467 H452 0.930 . S
C467 C462 1.390 . S
C467 C466 1.387 . S
H468 C480 0.930 . S
H469 C482 0.930 . S
H470 C483 0.930 . S
H471 C487 0.959 . S
H472 C487 0.959 . S
H473 C487 0.961 . S
H474 C488 0.960 . S
H475 C488 0.961 . S
H476 C488 0.959 . S
H477 C491 0.929 . S
H478 C492 0.931 . S
H479 C494 0.930 . S
C480 H468 0.930 . S
C480 C481 1.399 . S
C480 C485 1.399 . S
C481 C480 1.399 . S
C481 C482 1.376 . S
C482 H469 0.930 . S
C482 C481 1.376 . S
C482 C483 1.388 . S
C483 H470 0.930 . S
C483 C482 1.388 . S
C483 C484 1.390 . S
C484 C483 1.390 . S
C484 C485 1.394 . S
C484 C490 1.465 . S
C485 C480 1.399 . S
C485 C484 1.394 . S
C485 C486 1.516 . S
C486 C485 1.516 . S
C486 C487 1.502 . S
C486 C488 1.561 . S
C486 C489 1.526 . S
C487 H471 0.959 . S
C487 H472 0.959 . S
C487 H473 0.961 . S
C487 C486 1.502 . S
C488 H474 0.960 . S
C488 H475 0.961 . S
C488 H476 0.959 . S
C488 C486 1.561 . S
C489 C486 1.526 . S
C489 C490 1.396 . S
C489 C494 1.390 . S
C490 C484 1.465 . S
C490 C489 1.396 . S
C490 C491 1.399 . S
C491 H477 0.929 . S
C491 C490 1.399 . S
C491 C492 1.385 . S
C492 H478 0.931 . S
C492 C491 1.385 . S
C492 C493 1.389 . S
C493 C492 1.389 . S
C493 C494 1.387 . S
C494 H479 0.930 . S
C494 C489 1.390 . S
C494 C493 1.387 . S
H495 C507 0.930 . S
H496 C509 0.930 . S
H497 C510 0.930 . S
H498 C514 0.959 . S
H499 C514 0.959 . S
H500 C514 0.961 . S
H501 C515 0.960 . S
H502 C515 0.961 . S
H503 C515 0.959 . S
H504 C518 0.929 . S
H505 C519 0.931 . S
H506 C521 0.930 . S
C507 H495 0.930 . S
C507 C508 1.399 . S
C507 C512 1.399 . S
C508 C507 1.399 . S
C508 C509 1.376 . S
C509 H496 0.930 . S
C509 C508 1.376 . S
C509 C510 1.388 . S
C510 H497 0.930 . S
C510 C509 1.388 . S
C510 C511 1.390 . S
C511 C510 1.390 . S
C511 C512 1.394 . S
C511 C517 1.465 . S
C512 C507 1.399 . S
C512 C511 1.394 . S
C512 C513 1.516 . S
C513 C512 1.516 . S
C513 C514 1.502 . S
C513 C515 1.561 . S
C513 C516 1.526 . S
C514 H498 0.959 . S
C514 H499 0.959 . S
C514 H500 0.961 . S
C514 C513 1.502 . S
C515 H501 0.960 . S
C515 H502 0.961 . S
C515 H503 0.959 . S
C515 C513 1.561 . S
C516 C513 1.526 . S
C516 C517 1.396 . S
C516 C521 1.390 . S
C517 C511 1.465 . S
C517 C516 1.396 . S
C517 C518 1.399 . S
C518 H504 0.929 . S
C518 C517 1.399 . S
C518 C519 1.385 . S
C519 H505 0.931 . S
C519 C518 1.385 . S
C519 C520 1.389 . S
C520 C519 1.389 . S
C520 C521 1.387 . S
C521 H506 0.930 . S
C521 C516 1.390 . S
C521 C520 1.387 . S
H522 C534 0.930 . S
H523 C536 0.930 1_554 S
H524 C537 0.930 . S
H525 C541 0.959 . S
H526 C541 0.959 . S
H527 C541 0.961 . S
H528 C542 0.960 . S
H529 C542 0.961 . S
H530 C542 0.959 . S
H531 C545 0.929 . S
H532 C546 0.931 . S
H533 C548 0.930 . S
C534 H522 0.930 . S
C534 C535 1.399 . S
C534 C539 1.399 . S
C535 C534 1.399 . S
C535 C536 1.376 . S
C536 H523 0.930 1_556 S
C536 C535 1.376 . S
C536 C537 1.388 . S
C537 H524 0.930 . S
C537 C536 1.388 . S
C537 C538 1.390 . S
C538 C537 1.390 . S
C538 C539 1.394 . S
C538 C544 1.465 . S
C539 C534 1.399 . S
C539 C538 1.394 . S
C539 C540 1.516 . S
C540 C539 1.516 . S
C540 C541 1.502 . S
C540 C542 1.561 . S
C540 C543 1.526 . S
C541 H525 0.959 . S
C541 H526 0.959 . S
C541 H527 0.961 . S
C541 C540 1.502 . S
C542 H528 0.960 . S
C542 H529 0.961 . S
C542 H530 0.959 . S
C542 C540 1.561 . S
C543 C540 1.526 . S
C543 C544 1.396 . S
C543 C548 1.390 . S
C544 C538 1.465 . S
C544 C543 1.396 . S
C544 C545 1.399 . S
C545 H531 0.929 . S
C545 C544 1.399 . S
C545 C546 1.385 . S
C546 H532 0.931 . S
C546 C545 1.385 . S
C546 C547 1.389 . S
C547 C546 1.389 . S
C547 C548 1.387 . S
C548 H533 0.930 . S
C548 C543 1.390 . S
C548 C547 1.387 . S
H549 C561 0.930 . S
H550 C563 0.930 . S
H551 C564 0.930 . S
H552 C568 0.959 . S
H553 C568 0.959 . S
H554 C568 0.961 . S
H555 C569 0.960 . S
H556 C569 0.961 . S
H557 C569 0.959 . S
H558 C572 0.929 . S
H559 C573 0.931 . S
H560 C575 0.930 . S
C561 H549 0.930 . S
C561 C562 1.399 . S
C561 C566 1.399 . S
C562 C561 1.399 . S
C562 C563 1.376 . S
C563 H550 0.930 . S
C563 C562 1.376 . S
C563 C564 1.388 . S
C564 H551 0.930 . S
C564 C563 1.388 . S
C564 C565 1.390 . S
C565 C564 1.390 . S
C565 C566 1.394 . S
C565 C571 1.465 . S
C566 C561 1.399 . S
C566 C565 1.394 . S
C566 C567 1.516 . S
C567 C566 1.516 . S
C567 C568 1.502 . S
C567 C569 1.561 . S
C567 C570 1.526 . S
C568 H552 0.959 . S
C568 H553 0.959 . S
C568 H554 0.961 . S
C568 C567 1.502 . S
C569 H555 0.960 . S
C569 H556 0.961 . S
C569 H557 0.959 . S
C569 C567 1.561 . S
C570 C567 1.526 . S
C570 C571 1.396 . S
C570 C575 1.390 . S
C571 C565 1.465 . S
C571 C570 1.396 . S
C571 C572 1.399 . S
C572 H558 0.929 . S
C572 C571 1.399 . S
C572 C573 1.385 . S
C573 H559 0.931 . S
C573 C572 1.385 . S
C573 C574 1.389 . S
C574 C573 1.389 . S
C574 C575 1.387 . S
C575 H560 0.930 . S
C575 C570 1.390 . S
C575 C574 1.387 . S
H576 C588 0.930 . S
H577 C590 0.930 . S
H578 C591 0.930 . S
H579 C595 0.959 . S
H580 C595 0.959 . S
H581 C595 0.961 . S
H582 C596 0.960 . S
H583 C596 0.961 . S
H584 C596 0.959 . S
H585 C599 0.929 . S
H586 C600 0.931 . S
H587 C602 0.930 . S
C588 H576 0.930 . S
C588 C589 1.399 . S
C588 C593 1.399 . S
C589 C588 1.399 . S
C589 C590 1.376 . S
C590 H577 0.930 . S
C590 C589 1.376 . S
C590 C591 1.388 . S
C591 H578 0.930 . S
C591 C590 1.388 . S
C591 C592 1.390 . S
C592 C591 1.390 . S
C592 C593 1.394 . S
C592 C598 1.465 . S
C593 C588 1.399 . S
C593 C592 1.394 . S
C593 C594 1.516 . S
C594 C593 1.516 . S
C594 C595 1.502 . S
C594 C596 1.561 . S
C594 C597 1.526 . S
C595 H579 0.959 . S
C595 H580 0.959 . S
C595 H581 0.961 . S
C595 C594 1.502 . S
C596 H582 0.960 . S
C596 H583 0.961 . S
C596 H584 0.959 . S
C596 C594 1.561 . S
C597 C594 1.526 . S
C597 C598 1.396 . S
C597 C602 1.390 . S
C598 C592 1.465 . S
C598 C597 1.396 . S
C598 C599 1.399 . S
C599 H585 0.929 . S
C599 C598 1.399 . S
C599 C600 1.385 . S
C600 H586 0.931 . S
C600 C599 1.385 . S
C600 C601 1.389 . S
C601 C600 1.389 . S
C601 C602 1.387 . S
C602 H587 0.930 . S
C602 C597 1.390 . S
C602 C601 1.387 . S
H603 C615 0.930 . S
H604 C617 0.930 . S
H605 C618 0.930 . S
H606 C622 0.959 . S
H607 C622 0.959 . S
H608 C622 0.961 . S
H609 C623 0.960 . S
H610 C623 0.961 . S
H611 C623 0.959 . S
H612 C626 0.929 . S
H613 C627 0.931 . S
H614 C629 0.930 . S
C615 H603 0.930 . S
C615 C616 1.399 . S
C615 C620 1.399 . S
C616 C615 1.399 . S
C616 C617 1.376 . S
C617 H604 0.930 . S
C617 C616 1.376 . S
C617 C618 1.388 . S
C618 H605 0.930 . S
C618 C617 1.388 . S
C618 C619 1.390 . S
C619 C618 1.390 . S
C619 C620 1.394 . S
C619 C625 1.465 . S
C620 C615 1.399 . S
C620 C619 1.394 . S
C620 C621 1.516 . S
C621 C620 1.516 . S
C621 C622 1.502 . S
C621 C623 1.561 . S
C621 C624 1.526 . S
C622 H606 0.959 . S
C622 H607 0.959 . S
C622 H608 0.961 . S
C622 C621 1.502 . S
C623 H609 0.960 . S
C623 H610 0.961 . S
C623 H611 0.959 . S
C623 C621 1.561 . S
C624 C621 1.526 . S
C624 C625 1.396 . S
C624 C629 1.390 . S
C625 C619 1.465 . S
C625 C624 1.396 . S
C625 C626 1.399 . S
C626 H612 0.929 . S
C626 C625 1.399 . S
C626 C627 1.385 . S
C627 H613 0.931 . S
C627 C626 1.385 . S
C627 C628 1.389 . S
C628 C627 1.389 . S
C628 C629 1.387 . S
C629 H614 0.930 . S
C629 C624 1.390 . S
C629 C628 1.387 . S
H630 C642 0.930 . S
H631 C644 0.930 . S
H632 C645 0.930 . S
H633 C649 0.959 . S
H634 C649 0.959 . S
H635 C649 0.961 . S
H636 C650 0.960 . S
H637 C650 0.961 . S
H638 C650 0.959 . S
H639 C653 0.929 . S
H640 C654 0.931 . S
H641 C656 0.930 . S
C642 H630 0.930 . S
C642 C643 1.399 . S
C642 C647 1.399 . S
C643 C642 1.399 . S
C643 C644 1.376 . S
C644 H631 0.930 . S
C644 C643 1.376 . S
C644 C645 1.388 . S
C645 H632 0.930 . S
C645 C644 1.388 . S
C645 C646 1.390 . S
C646 C645 1.390 . S
C646 C647 1.394 . S
C646 C652 1.465 . S
C647 C642 1.399 . S
C647 C646 1.394 . S
C647 C648 1.516 . S
C648 C647 1.516 . S
C648 C649 1.502 . S
C648 C650 1.561 . S
C648 C651 1.526 . S
C649 H633 0.959 . S
C649 H634 0.959 . S
C649 H635 0.961 . S
C649 C648 1.502 . S
C650 H636 0.960 . S
C650 H637 0.961 . S
C650 H638 0.959 . S
C650 C648 1.561 . S
C651 C648 1.526 . S
C651 C652 1.396 . S
C651 C656 1.390 . S
C652 C646 1.465 . S
C652 C651 1.396 . S
C652 C653 1.399 . S
C653 H639 0.929 . S
C653 C652 1.399 . S
C653 C654 1.385 . S
C654 H640 0.931 . S
C654 C653 1.385 . S
C654 C655 1.389 . S
C655 C654 1.389 . S
C655 C656 1.387 . S
C656 H641 0.930 . S
C656 C651 1.390 . S
C656 C655 1.387 . S
H657 C669 0.930 . S
H658 C671 0.930 . S
H659 C672 0.930 . S
H660 C676 0.959 . S
H661 C676 0.959 . S
H662 C676 0.961 . S
H663 C677 0.960 . S
H664 C677 0.961 . S
H665 C677 0.959 . S
H666 C680 0.929 . S
H667 C681 0.931 . S
H668 C683 0.930 . S
C669 H657 0.930 . S
C669 C670 1.399 . S
C669 C674 1.399 . S
C670 C669 1.399 . S
C670 C671 1.376 . S
C671 H658 0.930 . S
C671 C670 1.376 . S
C671 C672 1.388 . S
C672 H659 0.930 . S
C672 C671 1.388 . S
C672 C673 1.390 . S
C673 C672 1.390 . S
C673 C674 1.394 . S
C673 C679 1.465 . S
C674 C669 1.399 . S
C674 C673 1.394 . S
C674 C675 1.516 . S
C675 C674 1.516 . S
C675 C676 1.502 . S
C675 C677 1.561 . S
C675 C678 1.526 . S
C676 H660 0.959 . S
C676 H661 0.959 . S
C676 H662 0.961 . S
C676 C675 1.502 . S
C677 H663 0.960 . S
C677 H664 0.961 . S
C677 H665 0.959 . S
C677 C675 1.561 . S
C678 C675 1.526 . S
C678 C679 1.396 . S
C678 C683 1.390 . S
C679 C673 1.465 . S
C679 C678 1.396 . S
C679 C680 1.399 . S
C680 H666 0.929 . S
C680 C679 1.399 . S
C680 C681 1.385 . S
C681 H667 0.931 . S
C681 C680 1.385 . S
C681 C682 1.389 . S
C682 C681 1.389 . S
C682 C683 1.387 . S
C683 H668 0.930 . S
C683 C678 1.390 . S
C683 C682 1.387 . S
H684 C696 0.930 . S
H685 C698 0.930 . S
H686 C699 0.930 . S
H687 C703 0.959 . S
H688 C703 0.959 . S
H689 C703 0.961 . S
H690 C704 0.960 . S
H691 C704 0.961 . S
H692 C704 0.959 . S
H693 C707 0.929 . S
H694 C708 0.931 1_556 S
H695 C710 0.930 . S
C696 H684 0.930 . S
C696 C697 1.399 . S
C696 C701 1.399 . S
C697 C696 1.399 . S
C697 C698 1.376 . S
C698 H685 0.930 . S
C698 C697 1.376 . S
C698 C699 1.388 . S
C699 H686 0.930 . S
C699 C698 1.388 . S
C699 C700 1.390 . S
C700 C699 1.390 . S
C700 C701 1.394 . S
C700 C706 1.465 . S
C701 C696 1.399 . S
C701 C700 1.394 . S
C701 C702 1.516 . S
C702 C701 1.516 . S
C702 C703 1.502 . S
C702 C704 1.561 . S
C702 C705 1.526 . S
C703 H687 0.959 . S
C703 H688 0.959 . S
C703 H689 0.961 . S
C703 C702 1.502 . S
C704 H690 0.960 . S
C704 H691 0.961 . S
C704 H692 0.959 . S
C704 C702 1.561 . S
C705 C702 1.526 . S
C705 C706 1.396 . S
C705 C710 1.390 . S
C706 C700 1.465 . S
C706 C705 1.396 . S
C706 C707 1.399 . S
C707 H693 0.929 . S
C707 C706 1.399 . S
C707 C708 1.385 . S
C708 H694 0.931 1_554 S
C708 C707 1.385 . S
C708 C709 1.389 . S
C709 C708 1.389 . S
C709 C710 1.387 . S
C710 H695 0.930 . S
C710 C705 1.390 . S
C710 C709 1.387 . S
H711 C723 0.930 . S
H712 C725 0.930 . S
H713 C726 0.930 . S
H714 C730 0.959 . S
H715 C730 0.959 . S
H716 C730 0.961 . S
H717 C731 0.960 . S
H718 C731 0.961 . S
H719 C731 0.959 . S
H720 C734 0.929 . S
H721 C735 0.931 . S
H722 C737 0.930 . S
C723 H711 0.930 . S
C723 C724 1.399 . S
C723 C728 1.399 . S
C724 C723 1.399 . S
C724 C725 1.376 . S
C725 H712 0.930 . S
C725 C724 1.376 . S
C725 C726 1.388 . S
C726 H713 0.930 . S
C726 C725 1.388 . S
C726 C727 1.390 . S
C727 C726 1.390 . S
C727 C728 1.394 . S
C727 C733 1.465 . S
C728 C723 1.399 . S
C728 C727 1.394 . S
C728 C729 1.516 . S
C729 C728 1.516 . S
C729 C730 1.502 . S
C729 C731 1.561 . S
C729 C732 1.526 . S
C730 H714 0.959 . S
C730 H715 0.959 . S
C730 H716 0.961 . S
C730 C729 1.502 . S
C731 H717 0.960 . S
C731 H718 0.961 . S
C731 H719 0.959 . S
C731 C729 1.561 . S
C732 C729 1.526 . S
C732 C733 1.396 . S
C732 C737 1.390 . S
C733 C727 1.465 . S
C733 C732 1.396 . S
C733 C734 1.399 . S
C734 H720 0.929 . S
C734 C733 1.399 . S
C734 C735 1.385 . S
C735 H721 0.931 . S
C735 C734 1.385 . S
C735 C736 1.389 . S
C736 C735 1.389 . S
C736 C737 1.387 . S
C737 H722 0.930 . S
C737 C732 1.390 . S
C737 C736 1.387 . S
H738 C750 0.930 . S
H739 C752 0.930 . S
H740 C753 0.930 . S
H741 C757 0.959 . S
H742 C757 0.959 . S
H743 C757 0.961 . S
H744 C758 0.960 . S
H745 C758 0.961 . S
H746 C758 0.959 . S
H747 C761 0.929 . S
H748 C762 0.931 . S
H749 C764 0.930 . S
C750 H738 0.930 . S
C750 C751 1.399 . S
C750 C755 1.399 . S
C751 C750 1.399 . S
C751 C752 1.376 . S
C752 H739 0.930 . S
C752 C751 1.376 . S
C752 C753 1.388 . S
C753 H740 0.930 . S
C753 C752 1.388 . S
C753 C754 1.390 . S
C754 C753 1.390 . S
C754 C755 1.394 . S
C754 C760 1.465 . S
C755 C750 1.399 . S
C755 C754 1.394 . S
C755 C756 1.516 . S
C756 C755 1.516 . S
C756 C757 1.502 . S
C756 C758 1.561 . S
C756 C759 1.526 . S
C757 H741 0.959 . S
C757 H742 0.959 . S
C757 H743 0.961 . S
C757 C756 1.502 . S
C758 H744 0.960 . S
C758 H745 0.961 . S
C758 H746 0.959 . S
C758 C756 1.561 . S
C759 C756 1.526 . S
C759 C760 1.396 . S
C759 C764 1.390 . S
C760 C754 1.465 . S
C760 C759 1.396 . S
C760 C761 1.399 . S
C761 H747 0.929 . S
C761 C760 1.399 . S
C761 C762 1.385 . S
C762 H748 0.931 . S
C762 C761 1.385 . S
C762 C763 1.389 . S
C763 C762 1.389 . S
C763 C764 1.387 . S
C764 H749 0.930 . S
C764 C759 1.390 . S
C764 C763 1.387 . S
H765 C777 0.930 . S
H766 C779 0.930 . S
H767 C780 0.930 . S
H768 C784 0.959 . S
H769 C784 0.959 . S
H770 C784 0.961 . S
H771 C785 0.960 . S
H772 C785 0.961 . S
H773 C785 0.959 . S
H774 C788 0.929 . S
H775 C789 0.931 . S
H776 C791 0.930 . S
C777 H765 0.930 . S
C777 C778 1.399 . S
C777 C782 1.399 . S
C778 C777 1.399 . S
C778 C779 1.376 . S
C779 H766 0.930 . S
C779 C778 1.376 . S
C779 C780 1.388 . S
C780 H767 0.930 . S
C780 C779 1.388 . S
C780 C781 1.390 . S
C781 C780 1.390 . S
C781 C782 1.394 . S
C781 C787 1.465 . S
C782 C777 1.399 . S
C782 C781 1.394 . S
C782 C783 1.516 . S
C783 C782 1.516 . S
C783 C784 1.502 . S
C783 C785 1.561 . S
C783 C786 1.526 . S
C784 H768 0.959 . S
C784 H769 0.959 . S
C784 H770 0.961 . S
C784 C783 1.502 . S
C785 H771 0.960 . S
C785 H772 0.961 . S
C785 H773 0.959 . S
C785 C783 1.561 . S
C786 C783 1.526 . S
C786 C787 1.396 . S
C786 C791 1.390 . S
C787 C781 1.465 . S
C787 C786 1.396 . S
C787 C788 1.399 . S
C788 H774 0.929 . S
C788 C787 1.399 . S
C788 C789 1.385 . S
C789 H775 0.931 . S
C789 C788 1.385 . S
C789 C790 1.389 . S
C790 C789 1.389 . S
C790 C791 1.387 . S
C791 H776 0.930 . S
C791 C786 1.390 . S
C791 C790 1.387 . S
H792 C804 0.930 . S
H793 C806 0.930 . S
H794 C807 0.930 . S
H795 C811 0.934 1_565 S
H796 C811 0.959 . S
H797 C811 0.961 . S
H798 C812 0.960 . S
H799 C812 0.961 . S
H800 C812 0.959 . S
H801 C815 0.929 . S
H802 C816 0.931 . S
H803 C818 0.930 . S
C804 H792 0.930 . S
C804 C805 1.399 . S
C804 C809 1.399 . S
C805 C804 1.399 . S
C805 C806 1.376 . S
C806 H793 0.930 . S
C806 C805 1.376 . S
C806 C807 1.388 . S
C807 H794 0.930 . S
C807 C806 1.388 . S
C807 C808 1.390 . S
C808 C807 1.390 . S
C808 C809 1.394 . S
C808 C814 1.466 . S
C809 C804 1.399 . S
C809 C808 1.394 . S
C809 C810 1.516 1_565 S
C810 C809 1.516 1_545 S
C810 C811 1.502 . S
C810 C812 1.561 . S
C810 C813 1.526 . S
C811 H795 0.934 1_545 S
C811 H796 0.959 . S
C811 H797 0.961 . S
C811 C810 1.502 . S
C812 H798 0.960 . S
C812 H799 0.961 . S
C812 H800 0.959 . S
C812 C810 1.561 . S
C813 C810 1.526 . S
C813 C814 1.395 1_545 S
C813 C818 1.390 . S
C814 C808 1.466 . S
C814 C813 1.395 1_565 S
C814 C815 1.399 . S
C815 H801 0.929 . S
C815 C814 1.399 . S
C815 C816 1.385 1_565 S
C816 H802 0.931 . S
C816 C815 1.385 1_545 S
C816 C817 1.389 . S
C817 C816 1.389 . S
C817 C818 1.387 . S
C818 H803 0.930 . S
C818 C813 1.390 . S
C818 C817 1.387 . S
H819 C831 0.930 . S
H820 C833 0.930 . S
H821 C834 0.930 . S
H822 C838 0.959 . S
H823 C838 0.959 . S
H824 C838 0.961 . S
H825 C839 0.960 . S
H826 C839 0.961 . S
H827 C839 0.959 . S
H828 C842 0.929 . S
H829 C843 0.931 . S
H830 C845 0.930 . S
C831 H819 0.930 . S
C831 C832 1.399 . S
C831 C836 1.399 . S
C832 C831 1.399 . S
C832 C833 1.376 . S
C833 H820 0.930 . S
C833 C832 1.376 . S
C833 C834 1.388 . S
C834 H821 0.930 . S
C834 C833 1.388 . S
C834 C835 1.390 . S
C835 C834 1.390 . S
C835 C836 1.394 . S
C835 C841 1.465 . S
C836 C831 1.399 . S
C836 C835 1.394 . S
C836 C837 1.516 . S
C837 C836 1.516 . S
C837 C838 1.502 . S
C837 C839 1.561 . S
C837 C840 1.526 . S
C838 H822 0.959 . S
C838 H823 0.959 . S
C838 H824 0.961 . S
C838 C837 1.502 . S
C839 H825 0.960 . S
C839 H826 0.961 . S
C839 H827 0.959 . S
C839 C837 1.561 . S
C840 C837 1.526 . S
C840 C841 1.396 . S
C840 C845 1.390 . S
C841 C835 1.465 . S
C841 C840 1.396 . S
C841 C842 1.399 . S
C842 H828 0.929 . S
C842 C841 1.399 . S
C842 C843 1.385 1_554 S
C843 H829 0.931 . S
C843 C842 1.385 1_556 S
C843 C844 1.389 1_556 S
C844 C843 1.389 1_554 S
C844 C845 1.387 . S
C845 H830 0.930 . S
C845 C840 1.390 . S
C845 C844 1.387 . S
H846 C858 0.931 1_455 S
H847 C860 0.930 . S
H848 C861 0.930 . S
H849 C865 0.959 . S
H850 C865 0.959 . S
H851 C865 0.961 . S
H852 C866 0.960 . S
H853 C866 0.961 . S
H854 C866 0.959 . S
H855 C869 0.929 . S
H856 C870 0.931 . S
H857 C872 0.930 . S
C858 H846 0.931 1_655 S
C858 C859 1.394 1_554 S
C858 C863 1.403 1_655 S
C859 C858 1.394 1_556 S
C859 C860 1.376 . S
C860 H847 0.930 . S
C860 C859 1.376 . S
C860 C861 1.388 1_556 S
C861 H848 0.930 . S
C861 C860 1.388 1_554 S
C861 C862 1.390 . S
C862 C861 1.390 . S
C862 C863 1.394 1_655 S
C862 C868 1.465 1_655 S
C863 C858 1.403 1_455 S
C863 C862 1.394 1_455 S
C863 C864 1.516 . S
C864 C863 1.516 . S
C864 C865 1.502 . S
C864 C866 1.561 . S
C864 C867 1.526 . S
C865 H849 0.959 . S
C865 H850 0.959 . S
C865 H851 0.961 . S
C865 C864 1.502 . S
C866 H852 0.960 . S
C866 H853 0.961 . S
C866 H854 0.959 . S
C866 C864 1.561 . S
C867 C864 1.526 . S
C867 C868 1.396 . S
C867 C872 1.390 . S
C868 C862 1.465 1_455 S
C868 C867 1.396 . S
C868 C869 1.399 1_455 S
C869 H855 0.929 . S
C869 C868 1.399 1_655 S
C869 C870 1.385 1_655 S
C870 H856 0.931 . S
C870 C869 1.385 1_455 S
C870 C871 1.389 . S
C871 C870 1.389 . S
C871 C872 1.387 . S
C872 H857 0.930 . S
C872 C867 1.390 . S
C872 C871 1.387 . S
H873 C885 0.930 . S
H874 C887 0.930 . S
H875 C888 0.930 . S
H876 C892 0.959 . S
H877 C892 0.959 1_556 S
H878 C892 0.961 1_556 S
H879 C893 0.960 . S
H880 C893 0.961 . S
H881 C893 0.959 1_554 S
H882 C896 0.929 . S
H883 C897 0.931 . S
H884 C899 0.930 . S
C885 H873 0.930 . S
C885 C886 1.399 1_556 S
C885 C890 1.399 1_556 S
C886 C885 1.399 1_554 S
C886 C887 1.376 . S
C887 H874 0.930 . S
C887 C886 1.376 . S
C887 C888 1.388 . S
C888 H875 0.930 . S
C888 C887 1.388 . S
C888 C889 1.390 . S
C889 C888 1.390 . S
C889 C890 1.394 . S
C889 C895 1.465 . S
C890 C885 1.399 1_554 S
C890 C889 1.394 . S
C890 C891 1.516 . S
C891 C890 1.516 . S
C891 C892 1.502 . S
C891 C893 1.561 1_554 S
C891 C894 1.526 . S
C892 H876 0.959 . S
C892 H877 0.959 1_554 S
C892 H878 0.961 1_554 S
C892 C891 1.502 . S
C893 H879 0.960 . S
C893 H880 0.961 . S
C893 H881 0.959 1_556 S
C893 C891 1.561 1_556 S
C894 C891 1.526 . S
C894 C895 1.396 . S
C894 C899 1.390 . S
C895 C889 1.465 . S
C895 C894 1.396 . S
C895 C896 1.399 . S
C896 H882 0.929 . S
C896 C895 1.399 . S
C896 C897 1.385 . S
C897 H883 0.931 . S
C897 C896 1.385 . S
C897 C898 1.389 . S
C898 C897 1.389 . S
C898 C899 1.387 . S
C899 H884 0.930 . S
C899 C894 1.390 . S
C899 C898 1.387 . S
H900 C912 0.930 . S
H901 C914 0.930 . S
H902 C915 0.930 . S
H903 C919 0.959 1_455 S
H904 C919 0.959 . S
H905 C919 0.961 . S
H906 C920 0.960 . S
H907 C920 0.961 . S
H908 C920 0.959 . S
H909 C923 0.929 . S
H910 C924 0.931 . S
H911 C926 0.930 . S
C912 H900 0.930 . S
C912 C913 1.399 . S
C912 C917 1.399 . S
C913 C912 1.399 . S
C913 C914 1.376 1_655 S
C914 H901 0.930 . S
C914 C913 1.376 1_455 S
C914 C915 1.388 . S
C915 H902 0.930 . S
C915 C914 1.388 . S
C915 C916 1.390 . S
C916 C915 1.390 . S
C916 C917 1.394 1_455 S
C916 C922 1.465 . S
C917 C912 1.399 . S
C917 C916 1.394 1_655 S
C917 C918 1.516 . S
C918 C917 1.516 . S
C918 C919 1.502 . S
C918 C920 1.561 . S
C918 C921 1.526 1_655 S
C919 H903 0.959 1_655 S
C919 H904 0.959 . S
C919 H905 0.961 . S
C919 C918 1.502 . S
C920 H906 0.960 . S
C920 H907 0.961 . S
C920 H908 0.959 . S
C920 C918 1.561 . S
C921 C918 1.526 1_455 S
C921 C922 1.396 . S
C921 C926 1.390 . S
C922 C916 1.465 . S
C922 C921 1.396 . S
C922 C923 1.399 . S
C923 H909 0.929 . S
C923 C922 1.399 . S
C923 C924 1.385 . S
C924 H910 0.931 . S
C924 C923 1.385 . S
C924 C925 1.389 . S
C925 C924 1.389 . S
C925 C926 1.387 . S
C926 H911 0.930 . S
C926 C921 1.390 . S
C926 C925 1.387 . S
H927 C939 0.930 . S
H928 C941 0.930 . S
H929 C942 0.930 . S
H930 C946 0.959 . S
H931 C946 0.959 . S
H932 C946 0.961 . S
H933 C947 0.960 . S
H934 C947 0.961 . S
H935 C947 0.959 . S
H936 C950 0.929 . S
H937 C951 0.931 . S
H938 C953 0.930 . S
C939 H927 0.930 . S
C939 C940 1.399 . S
C939 C944 1.399 . S
C940 C939 1.399 . S
C940 C941 1.376 . S
C941 H928 0.930 . S
C941 C940 1.376 . S
C941 C942 1.388 . S
C942 H929 0.930 . S
C942 C941 1.388 . S
C942 C943 1.390 . S
C943 C942 1.390 . S
C943 C944 1.394 . S
C943 C949 1.465 . S
C944 C939 1.399 . S
C944 C943 1.394 . S
C944 C945 1.516 . S
C945 C944 1.516 . S
C945 C946 1.502 . S
C945 C947 1.561 . S
C945 C948 1.526 . S
C946 H930 0.959 . S
C946 H931 0.959 . S
C946 H932 0.961 . S
C946 C945 1.502 . S
C947 H933 0.960 . S
C947 H934 0.961 . S
C947 H935 0.959 . S
C947 C945 1.561 . S
C948 C945 1.526 . S
C948 C949 1.396 . S
C948 C953 1.390 . S
C949 C943 1.465 . S
C949 C948 1.396 . S
C949 C950 1.399 . S
C950 H936 0.929 . S
C950 C949 1.399 . S
C950 C951 1.385 . S
C951 H937 0.931 . S
C951 C950 1.385 . S
C951 C952 1.389 . S
C952 C951 1.389 . S
C952 C953 1.387 . S
C953 H938 0.930 . S
C953 C948 1.390 . S
C953 C952 1.387 . S
H954 C966 0.930 . S
H955 C968 0.930 . S
H956 C969 0.930 . S
H957 C973 0.959 . S
H958 C973 0.959 . S
H959 C973 0.961 . S
H960 C974 0.960 . S
H961 C974 0.961 . S
H962 C974 0.959 . S
H963 C977 0.929 . S
H964 C978 0.931 . S
H965 C980 0.930 . S
C966 H954 0.930 . S
C966 C967 1.399 . S
C966 C971 1.399 . S
C967 C966 1.399 . S
C967 C968 1.376 . S
C968 H955 0.930 . S
C968 C967 1.376 . S
C968 C969 1.388 . S
C969 H956 0.930 . S
C969 C968 1.388 . S
C969 C970 1.390 . S
C970 C969 1.390 . S
C970 C971 1.394 . S
C970 C976 1.465 . S
C971 C966 1.399 . S
C971 C970 1.394 . S
C971 C972 1.516 . S
C972 C971 1.516 . S
C972 C973 1.502 . S
C972 C974 1.561 . S
C972 C975 1.526 . S
C973 H957 0.959 . S
C973 H958 0.959 . S
C973 H959 0.961 . S
C973 C972 1.502 . S
C974 H960 0.960 . S
C974 H961 0.961 . S
C974 H962 0.959 . S
C974 C972 1.561 . S
C975 C972 1.526 . S
C975 C976 1.396 . S
C975 C980 1.390 . S
C976 C970 1.465 . S
C976 C975 1.396 . S
C976 C977 1.399 . S
C977 H963 0.929 . S
C977 C976 1.399 . S
C977 C978 1.385 . S
C978 H964 0.931 . S
C978 C977 1.385 . S
C978 C979 1.389 . S
C979 C978 1.389 . S
C979 C980 1.387 . S
C980 H965 0.930 . S
C980 C975 1.390 . S
C980 C979 1.387 . S
H981 C993 0.930 . S
H982 C995 0.930 1_545 S
H983 C996 0.930 . S
H984 C1000 0.959 . S
H985 C1000 0.959 . S
H986 C1000 0.961 . S
H987 C1001 0.960 . S
H988 C1001 0.961 . S
H989 C1001 0.959 . S
H990 C1004 0.929 . S
H991 C1005 0.931 . S
H992 C1007 0.930 1_565 S
C993 H981 0.930 . S
C993 C994 1.399 1_556 S
C993 C998 1.399 . S
C994 C993 1.399 1_554 S
C994 C995 1.376 . S
C995 H982 0.930 1_565 S
C995 C994 1.376 . S
C995 C996 1.388 1_565 S
C996 H983 0.930 . S
C996 C995 1.388 1_545 S
C996 C997 1.390 1_554 S
C997 C996 1.390 1_556 S
C997 C998 1.394 1_545 S
C997 C1003 1.465 . S
C998 C993 1.399 . S
C998 C997 1.394 1_565 S
C998 C999 1.516 . S
C999 C998 1.516 . S
C999 C1000 1.502 . S
C999 C1001 1.561 . S
C999 C1002 1.526 . S
C1000 H984 0.959 . S
C1000 H985 0.959 . S
C1000 H986 0.961 . S
C1000 C999 1.502 . S
C1001 H987 0.960 . S
C1001 H988 0.961 . S
C1001 H989 0.959 . S
C1001 C999 1.561 . S
C1002 C999 1.526 . S
C1002 C1003 1.396 1_565 S
C1002 C1007 1.390 1_565 S
C1003 C997 1.465 . S
C1003 C1002 1.396 1_545 S
C1003 C1004 1.399 . S
C1004 H990 0.929 . S
C1004 C1003 1.399 . S
C1004 C1005 1.385 . S
C1005 H991 0.931 . S
C1005 C1004 1.385 . S
C1005 C1006 1.389 . S
C1006 C1005 1.389 . S
C1006 C1007 1.387 . S
C1007 H992 0.930 1_545 S
C1007 C1002 1.390 1_545 S
C1007 C1006 1.387 . S
H1008 C1020 0.930 . S
H1009 C1022 0.930 . S
H1010 C1023 0.930 . S
H1011 C1027 0.959 . S
H1012 C1027 0.959 . S
H1013 C1027 0.961 . S
H1014 C1028 0.960 . S
H1015 C1028 0.961 . S
H1016 C1028 0.959 . S
H1017 C1031 0.929 . S
H1018 C1032 0.931 . S
H1019 C1034 0.930 . S
C1020 H1008 0.930 . S
C1020 C1021 1.399 . S
C1020 C1025 1.399 . S
C1021 C1020 1.399 . S
C1021 C1022 1.376 . S
C1022 H1009 0.930 . S
C1022 C1021 1.376 . S
C1022 C1023 1.388 . S
C1023 H1010 0.930 . S
C1023 C1022 1.388 . S
C1023 C1024 1.390 . S
C1024 C1023 1.390 . S
C1024 C1025 1.394 . S
C1024 C1030 1.465 . S
C1025 C1020 1.399 . S
C1025 C1024 1.394 . S
C1025 C1026 1.516 . S
C1026 C1025 1.516 . S
C1026 C1027 1.502 . S
C1026 C1028 1.561 . S
C1026 C1029 1.526 . S
C1027 H1011 0.959 . S
C1027 H1012 0.959 . S
C1027 H1013 0.961 . S
C1027 C1026 1.502 . S
C1028 H1014 0.960 . S
C1028 H1015 0.961 . S
C1028 H1016 0.959 . S
C1028 C1026 1.561 . S
C1029 C1026 1.526 . S
C1029 C1030 1.396 . S
C1029 C1034 1.390 . S
C1030 C1024 1.465 . S
C1030 C1029 1.396 . S
C1030 C1031 1.399 1_556 S
C1031 H1017 0.929 . S
C1031 C1030 1.399 1_554 S
C1031 C1032 1.385 . S
C1032 H1018 0.931 . S
C1032 C1031 1.385 . S
C1032 C1033 1.389 . S
C1033 C1032 1.389 . S
C1033 C1034 1.387 1_554 S
C1034 H1019 0.930 . S
C1034 C1029 1.390 . S
C1034 C1033 1.387 1_556 S
H1035 C1047 0.930 . S
H1036 C1049 0.930 . S
H1037 C1050 0.930 . S
H1038 C1054 0.959 1_556 S
H1039 C1054 0.959 . S
H1040 C1054 0.961 . S
H1041 C1055 0.960 . S
H1042 C1055 0.961 . S
H1043 C1055 0.959 1_556 S
H1044 C1058 0.929 . S
H1045 C1059 0.931 . S
H1046 C1061 0.930 . S
C1047 H1035 0.930 . S
C1047 C1048 1.399 . S
C1047 C1052 1.399 . S
C1048 C1047 1.399 . S
C1048 C1049 1.376 . S
C1049 H1036 0.930 . S
C1049 C1048 1.376 . S
C1049 C1050 1.388 . S
C1050 H1037 0.930 . S
C1050 C1049 1.388 . S
C1050 C1051 1.390 . S
C1051 C1050 1.390 . S
C1051 C1052 1.394 . S
C1051 C1057 1.465 . S
C1052 C1047 1.399 . S
C1052 C1051 1.394 . S
C1052 C1053 1.516 . S
C1053 C1052 1.516 . S
C1053 C1054 1.502 1_556 S
C1053 C1055 1.561 1_556 S
C1053 C1056 1.526 . S
C1054 H1038 0.959 1_554 S
C1054 H1039 0.959 . S
C1054 H1040 0.961 . S
C1054 C1053 1.502 1_554 S
C1055 H1041 0.960 . S
C1055 H1042 0.961 . S
C1055 H1043 0.959 1_554 S
C1055 C1053 1.561 1_554 S
C1056 C1053 1.526 . S
C1056 C1057 1.396 . S
C1056 C1061 1.390 1_556 S
C1057 C1051 1.465 . S
C1057 C1056 1.396 . S
C1057 C1058 1.399 . S
C1058 H1044 0.929 . S
C1058 C1057 1.399 . S
C1058 C1059 1.385 . S
C1059 H1045 0.931 . S
C1059 C1058 1.385 . S
C1059 C1060 1.389 . S
C1060 C1059 1.389 . S
C1060 C1061 1.387 1_556 S
C1061 H1046 0.930 . S
C1061 C1056 1.390 1_554 S
C1061 C1060 1.387 1_554 S
H1062 C1074 0.930 . S
H1063 C1076 0.930 . S
H1064 C1077 0.930 . S
H1065 C1081 0.959 . S
H1066 C1081 0.959 . S
H1067 C1081 0.961 . S
H1068 C1082 0.960 . S
H1069 C1082 0.961 . S
H1070 C1082 0.959 . S
H1071 C1085 0.929 . S
H1072 C1086 0.931 . S
H1073 C1088 0.930 . S
C1074 H1062 0.930 . S
C1074 C1075 1.399 . S
C1074 C1079 1.399 . S
C1075 C1074 1.399 . S
C1075 C1076 1.376 . S
C1076 H1063 0.930 . S
C1076 C1075 1.376 . S
C1076 C1077 1.388 . S
C1077 H1064 0.930 . S
C1077 C1076 1.388 . S
C1077 C1078 1.390 . S
C1078 C1077 1.390 . S
C1078 C1079 1.394 . S
C1078 C1084 1.465 . S
C1079 C1074 1.399 . S
C1079 C1078 1.394 . S
C1079 C1080 1.516 . S
C1080 C1079 1.516 . S
C1080 C1081 1.502 . S
C1080 C1082 1.561 . S
C1080 C1083 1.526 . S
C1081 H1065 0.959 . S
C1081 H1066 0.959 . S
C1081 H1067 0.961 . S
C1081 C1080 1.502 . S
C1082 H1068 0.960 . S
C1082 H1069 0.961 . S
C1082 H1070 0.959 . S
C1082 C1080 1.561 . S
C1083 C1080 1.526 . S
C1083 C1084 1.396 . S
C1083 C1088 1.390 . S
C1084 C1078 1.465 . S
C1084 C1083 1.396 . S
C1084 C1085 1.399 . S
C1085 H1071 0.929 . S
C1085 C1084 1.399 . S
C1085 C1086 1.385 . S
C1086 H1072 0.931 . S
C1086 C1085 1.385 . S
C1086 C1087 1.389 . S
C1087 C1086 1.389 . S
C1087 C1088 1.387 . S
C1088 H1073 0.930 . S
C1088 C1083 1.390 . S
C1088 C1087 1.387 . S
H1089 C1101 0.930 . S
H1090 C1103 0.930 . S
H1091 C1104 0.930 . S
H1092 C1108 0.959 . S
H1093 C1108 0.959 . S
H1094 C1108 0.961 . S
H1095 C1109 0.960 . S
H1096 C1109 0.961 . S
H1097 C1109 0.959 . S
H1098 C1112 0.929 . S
H1099 C1113 0.931 1_655 S
H1100 C1115 0.930 . S
C1101 H1089 0.930 . S
C1101 C1102 1.399 . S
C1101 C1106 1.399 . S
C1102 C1101 1.399 . S
C1102 C1103 1.376 . S
C1103 H1090 0.930 . S
C1103 C1102 1.376 . S
C1103 C1104 1.388 . S
C1104 H1091 0.930 . S
C1104 C1103 1.388 . S
C1104 C1105 1.390 . S
C1105 C1104 1.390 . S
C1105 C1106 1.394 . S
C1105 C1111 1.465 . S
C1106 C1101 1.399 . S
C1106 C1105 1.394 . S
C1106 C1107 1.516 . S
C1107 C1106 1.516 . S
C1107 C1108 1.502 . S
C1107 C1109 1.561 . S
C1107 C1110 1.526 . S
C1108 H1092 0.959 . S
C1108 H1093 0.959 . S
C1108 H1094 0.961 . S
C1108 C1107 1.502 . S
C1109 H1095 0.960 . S
C1109 H1096 0.961 . S
C1109 H1097 0.959 . S
C1109 C1107 1.561 . S
C1110 C1107 1.526 . S
C1110 C1111 1.396 . S
C1110 C1115 1.390 . S
C1111 C1105 1.465 . S
C1111 C1110 1.396 . S
C1111 C1112 1.399 . S
C1112 H1098 0.929 . S
C1112 C1111 1.399 . S
C1112 C1113 1.385 . S
C1113 H1099 0.931 1_455 S
C1113 C1112 1.385 . S
C1113 C1114 1.389 . S
C1114 C1113 1.389 . S
C1114 C1115 1.387 . S
C1115 H1100 0.930 . S
C1115 C1110 1.390 . S
C1115 C1114 1.387 . S
H1116 C1128 0.930 . S
H1117 C1130 0.930 . S
H1118 C1131 0.930 . S
H1119 C1135 0.959 . S
H1120 C1135 0.959 . S
H1121 C1135 0.961 . S
H1122 C1136 0.960 . S
H1123 C1136 0.961 . S
H1124 C1136 0.959 . S
H1125 C1139 0.929 . S
H1126 C1140 0.931 . S
H1127 C1142 0.930 . S
C1128 H1116 0.930 . S
C1128 C1129 1.399 . S
C1128 C1133 1.399 . S
C1129 C1128 1.399 . S
C1129 C1130 1.376 . S
C1130 H1117 0.930 . S
C1130 C1129 1.376 . S
C1130 C1131 1.388 . S
C1131 H1118 0.930 . S
C1131 C1130 1.388 . S
C1131 C1132 1.390 . S
C1132 C1131 1.390 . S
C1132 C1133 1.394 . S
C1132 C1138 1.465 . S
C1133 C1128 1.399 . S
C1133 C1132 1.394 . S
C1133 C1134 1.516 . S
C1134 C1133 1.516 . S
C1134 C1135 1.502 . S
C1134 C1136 1.561 . S
C1134 C1137 1.526 . S
C1135 H1119 0.959 . S
C1135 H1120 0.959 . S
C1135 H1121 0.961 . S
C1135 C1134 1.502 . S
C1136 H1122 0.960 . S
C1136 H1123 0.961 . S
C1136 H1124 0.959 . S
C1136 C1134 1.561 . S
C1137 C1134 1.526 . S
C1137 C1138 1.396 . S
C1137 C1142 1.390 . S
C1138 C1132 1.465 . S
C1138 C1137 1.396 . S
C1138 C1139 1.399 . S
C1139 H1125 0.929 . S
C1139 C1138 1.399 . S
C1139 C1140 1.385 . S
C1140 H1126 0.931 . S
C1140 C1139 1.385 . S
C1140 C1141 1.389 . S
C1141 C1140 1.389 . S
C1141 C1142 1.387 . S
C1142 H1127 0.930 . S
C1142 C1137 1.390 . S
C1142 C1141 1.387 . S
H1143 C1155 0.930 . S
H1144 C1157 0.930 . S
H1145 C1158 0.930 . S
H1146 C1162 0.959 . S
H1147 C1162 0.959 . S
H1148 C1162 0.961 . S
H1149 C1163 0.960 . S
H1150 C1163 0.961 . S
H1151 C1163 0.959 . S
H1152 C1166 0.929 . S
H1153 C1167 0.931 . S
H1154 C1169 0.930 . S
C1155 H1143 0.930 . S
C1155 C1156 1.399 . S
C1155 C1160 1.399 . S
C1156 C1155 1.399 . S
C1156 C1157 1.376 . S
C1157 H1144 0.930 . S
C1157 C1156 1.376 . S
C1157 C1158 1.388 . S
C1158 H1145 0.930 . S
C1158 C1157 1.388 . S
C1158 C1159 1.390 . S
C1159 C1158 1.390 . S
C1159 C1160 1.394 . S
C1159 C1165 1.465 . S
C1160 C1155 1.399 . S
C1160 C1159 1.394 . S
C1160 C1161 1.516 . S
C1161 C1160 1.516 . S
C1161 C1162 1.502 . S
C1161 C1163 1.561 . S
C1161 C1164 1.526 . S
C1162 H1146 0.959 . S
C1162 H1147 0.959 . S
C1162 H1148 0.961 . S
C1162 C1161 1.502 . S
C1163 H1149 0.960 . S
C1163 H1150 0.961 . S
C1163 H1151 0.959 . S
C1163 C1161 1.561 . S
C1164 C1161 1.526 . S
C1164 C1165 1.396 . S
C1164 C1169 1.390 . S
C1165 C1159 1.465 . S
C1165 C1164 1.396 . S
C1165 C1166 1.399 . S
C1166 H1152 0.929 . S
C1166 C1165 1.399 . S
C1166 C1167 1.385 . S
C1167 H1153 0.931 . S
C1167 C1166 1.385 . S
C1167 C1168 1.389 . S
C1168 C1167 1.389 . S
C1168 C1169 1.387 . S
C1169 H1154 0.930 . S
C1169 C1164 1.390 . S
C1169 C1168 1.387 . S
H1170 C1182 0.930 . S
H1171 C1184 0.930 . S
H1172 C1185 0.930 . S
H1173 C1189 0.959 . S
H1174 C1189 0.959 . S
H1175 C1189 0.961 . S
H1176 C1190 0.960 . S
H1177 C1190 0.961 . S
H1178 C1190 0.959 . S
H1179 C1193 0.929 . S
H1180 C1194 0.931 . S
H1181 C1196 0.930 . S
C1182 H1170 0.930 . S
C1182 C1183 1.399 . S
C1182 C1187 1.399 . S
C1183 C1182 1.399 . S
C1183 C1184 1.376 . S
C1184 H1171 0.930 . S
C1184 C1183 1.376 . S
C1184 C1185 1.388 . S
C1185 H1172 0.930 . S
C1185 C1184 1.388 . S
C1185 C1186 1.390 . S
C1186 C1185 1.390 . S
C1186 C1187 1.394 . S
C1186 C1192 1.465 . S
C1187 C1182 1.399 . S
C1187 C1186 1.394 . S
C1187 C1188 1.516 . S
C1188 C1187 1.516 . S
C1188 C1189 1.502 . S
C1188 C1190 1.561 . S
C1188 C1191 1.526 . S
C1189 H1173 0.959 . S
C1189 H1174 0.959 . S
C1189 H1175 0.961 . S
C1189 C1188 1.502 . S
C1190 H1176 0.960 . S
C1190 H1177 0.961 . S
C1190 H1178 0.959 . S
C1190 C1188 1.561 . S
C1191 C1188 1.526 . S
C1191 C1192 1.396 . S
C1191 C1196 1.390 . S
C1192 C1186 1.465 . S
C1192 C1191 1.396 . S
C1192 C1193 1.399 . S
C1193 H1179 0.929 . S
C1193 C1192 1.399 . S
C1193 C1194 1.385 . S
C1194 H1180 0.931 . S
C1194 C1193 1.385 . S
C1194 C1195 1.389 . S
C1195 C1194 1.389 . S
C1195 C1196 1.387 . S
C1196 H1181 0.930 . S
C1196 C1191 1.390 . S
C1196 C1195 1.387 . S
H1197 C1209 0.930 . S
H1198 C1211 0.930 . S
H1199 C1212 0.930 . S
H1200 C1216 0.959 . S
H1201 C1216 0.959 . S
H1202 C1216 0.961 . S
H1203 C1217 0.960 . S
H1204 C1217 0.961 . S
H1205 C1217 0.959 . S
H1206 C1220 0.929 . S
H1207 C1221 0.931 . S
H1208 C1223 0.930 . S
C1209 H1197 0.930 . S
C1209 C1210 1.399 . S
C1209 C1214 1.399 . S
C1210 C1209 1.399 . S
C1210 C1211 1.376 . S
C1211 H1198 0.930 . S
C1211 C1210 1.376 . S
C1211 C1212 1.388 . S
C1212 H1199 0.930 . S
C1212 C1211 1.388 . S
C1212 C1213 1.390 . S
C1213 C1212 1.390 . S
C1213 C1214 1.394 . S
C1213 C1219 1.465 . S
C1214 C1209 1.399 . S
C1214 C1213 1.394 . S
C1214 C1215 1.516 . S
C1215 C1214 1.516 . S
C1215 C1216 1.502 . S
C1215 C1217 1.561 . S
C1215 C1218 1.526 . S
C1216 H1200 0.959 . S
C1216 H1201 0.959 . S
C1216 H1202 0.961 . S
C1216 C1215 1.502 . S
C1217 H1203 0.960 . S
C1217 H1204 0.961 . S
C1217 H1205 0.959 . S
C1217 C1215 1.561 . S
C1218 C1215 1.526 . S
C1218 C1219 1.396 . S
C1218 C1223 1.390 . S
C1219 C1213 1.465 . S
C1219 C1218 1.396 . S
C1219 C1220 1.399 . S
C1220 H1206 0.929 . S
C1220 C1219 1.399 . S
C1220 C1221 1.385 . S
C1221 H1207 0.931 . S
C1221 C1220 1.385 . S
C1221 C1222 1.389 . S
C1222 C1221 1.389 . S
C1222 C1223 1.387 . S
C1223 H1208 0.930 . S
C1223 C1218 1.390 . S
C1223 C1222 1.387 . S
C265 C49 1.371 . S
C277 C7 1.346 . S
C292 C64 1.373 . S
C304 C22 1.377 . S
C319 C35 1.379 . S
C331 C77 1.384 . S
C346 C36 1.343 . S
C358 C78 1.307 . S
C373 C8 1.294 . S
C385 C50 1.314 . S
C400 C63 1.311 . S
C412 C21 1.307 . S
C427 C133 1.260 . S
C439 C92 1.288 . S
C454 C106 1.293 . S
C466 C148 1.279 . S
C481 C120 1.323 . S
C493 C161 1.260 . S
C508 C162 1.415 . S
C520 C119 1.440 . S
C535 C134 1.404 . S
C547 C91 1.362 . S
C562 C147 1.420 . S
C574 C105 1.393 . S
C589 C175 1.382 . S
C601 C217 1.339 . S
C616 C190 1.403 . S
C628 C232 1.366 . S
C643 C203 1.393 . S
C655 C245 1.372 . S
C670 C246 1.306 . S
C682 C204 1.352 . S
C697 C218 1.316 . S
C709 C176 1.317 . S
C724 C231 1.278 . S
C736 C189 1.337 . S
C751 C3 1.205 . S
C763 C101 1.250 . S
C778 C23 1.289 . S
C790 C115 1.259 . S
C805 C87 1.219 . S
C817 C31 1.264 . S
C832 C37 1.254 . S
C844 C191 1.289 1_554 S
C859 C199 1.257 . S
C871 C9 1.260 . S
C886 C171 1.179 1_554 S
C898 C17 1.222 . S
C913 C227 1.174 . S
C925 C45 1.195 . S
C940 C65 1.211 . S
C952 C247 1.218 . S
C967 C219 1.222 . S
C979 C73 1.261 . S
C994 C149 1.191 . S
C1006 C79 1.182 . S
C1021 C51 1.228 . S
C1033 C157 1.244 . S
C1048 C59 1.182 . S
C1060 C129 1.158 1_556 S
C1075 C93 1.223 1_545 S
C1087 C185 1.192 . S
C1102 C107 1.245 . S
C1114 C205 1.201 . S
C1129 C121 1.195 . S
C1141 C177 1.178 . S
C1156 C233 1.313 . S
C1168 C163 1.296 . S
C1183 C241 1.235 . S
C1195 C135 1.230 . S
C1210 C143 1.238 1_545 S
C1222 C213 1.210 . S
