# Generated by pormake.
# Topology uoe, (4)-cn, num edge types: 1
# Building blocks:
#     Node 0, Type 0, BuildingBlock: GALJAG_clean_sbu_0, # of connection points: 4
#     Node 1, Type 0, BuildingBlock: GALJAG_clean_sbu_0, # of connection points: 4
#     Node 2, Type 0, BuildingBlock: GALJAG_clean_sbu_0, # of connection points: 4
#     Node 3, Type 0, BuildingBlock: GALJAG_clean_sbu_0, # of connection points: 4
#     Node 4, Type 0, BuildingBlock: GALJAG_clean_sbu_0, # of connection points: 4
#     Node 5, Type 0, BuildingBlock: GALJAG_clean_sbu_0, # of connection points: 4
#     Node 6, Type 0, BuildingBlock: GALJAG_clean_sbu_0, # of connection points: 4
#     Node 7, Type 0, BuildingBlock: GALJAG_clean_sbu_0, # of connection points: 4
#     Node 8, Type 0, BuildingBlock: GALJAG_clean_sbu_0, # of connection points: 4
#     Node 9, Type 0, BuildingBlock: GALJAG_clean_sbu_0, # of connection points: 4
#     Node 10, Type 0, BuildingBlock: GALJAG_clean_sbu_0, # of connection points: 4
#     Node 11, Type 0, BuildingBlock: GALJAG_clean_sbu_0, # of connection points: 4
#     Node 12, Type 0, BuildingBlock: GALJAG_clean_sbu_0, # of connection points: 4
#     Node 13, Type 0, BuildingBlock: GALJAG_clean_sbu_0, # of connection points: 4
#     Node 14, Type 0, BuildingBlock: GALJAG_clean_sbu_0, # of connection points: 4
#     Node 15, Type 0, BuildingBlock: GALJAG_clean_sbu_0, # of connection points: 4
#     Node 16, Type 0, BuildingBlock: GALJAG_clean_sbu_0, # of connection points: 4
#     Node 17, Type 0, BuildingBlock: GALJAG_clean_sbu_0, # of connection points: 4
#     Node 18, Type 0, BuildingBlock: GALJAG_clean_sbu_0, # of connection points: 4
#     Node 19, Type 0, BuildingBlock: GALJAG_clean_sbu_0, # of connection points: 4
#     Node 20, Type 0, BuildingBlock: GALJAG_clean_sbu_0, # of connection points: 4
#     Node 21, Type 0, BuildingBlock: GALJAG_clean_sbu_0, # of connection points: 4
#     Node 22, Type 0, BuildingBlock: GALJAG_clean_sbu_0, # of connection points: 4
#     Node 23, Type 0, BuildingBlock: GALJAG_clean_sbu_0, # of connection points: 4
#     Node 24, Type 0, BuildingBlock: GALJAG_clean_sbu_0, # of connection points: 4
#     Node 25, Type 0, BuildingBlock: GALJAG_clean_sbu_0, # of connection points: 4
#     Node 26, Type 0, BuildingBlock: GALJAG_clean_sbu_0, # of connection points: 4
#     Node 27, Type 0, BuildingBlock: GALJAG_clean_sbu_0, # of connection points: 4
#     Node 28, Type 0, BuildingBlock: GALJAG_clean_sbu_0, # of connection points: 4
#     Node 29, Type 0, BuildingBlock: GALJAG_clean_sbu_0, # of connection points: 4
#     Node 30, Type 0, BuildingBlock: GALJAG_clean_sbu_0, # of connection points: 4
#     Node 31, Type 0, BuildingBlock: GALJAG_clean_sbu_0, # of connection points: 4
#     Edge 32, Type (0, 0), BuildingBlock: TEMPAE_clean_linker_10, # of connection points: 2
#     Edge 33, Type (0, 0), BuildingBlock: TEMPAE_clean_linker_10, # of connection points: 2
#     Edge 34, Type (0, 0), BuildingBlock: TEMPAE_clean_linker_10, # of connection points: 2
#     Edge 35, Type (0, 0), BuildingBlock: TEMPAE_clean_linker_10, # of connection points: 2
#     Edge 36, Type (0, 0), BuildingBlock: TEMPAE_clean_linker_10, # of connection points: 2
#     Edge 37, Type (0, 0), BuildingBlock: TEMPAE_clean_linker_10, # of connection points: 2
#     Edge 38, Type (0, 0), BuildingBlock: TEMPAE_clean_linker_10, # of connection points: 2
#     Edge 39, Type (0, 0), BuildingBlock: TEMPAE_clean_linker_10, # of connection points: 2
#     Edge 40, Type (0, 0), BuildingBlock: TEMPAE_clean_linker_10, # of connection points: 2
#     Edge 41, Type (0, 0), BuildingBlock: TEMPAE_clean_linker_10, # of connection points: 2
#     Edge 42, Type (0, 0), BuildingBlock: TEMPAE_clean_linker_10, # of connection points: 2
#     Edge 43, Type (0, 0), BuildingBlock: TEMPAE_clean_linker_10, # of connection points: 2
#     Edge 44, Type (0, 0), BuildingBlock: TEMPAE_clean_linker_10, # of connection points: 2
#     Edge 45, Type (0, 0), BuildingBlock: TEMPAE_clean_linker_10, # of connection points: 2
#     Edge 46, Type (0, 0), BuildingBlock: TEMPAE_clean_linker_10, # of connection points: 2
#     Edge 47, Type (0, 0), BuildingBlock: TEMPAE_clean_linker_10, # of connection points: 2
#     Edge 48, Type (0, 0), BuildingBlock: TEMPAE_clean_linker_10, # of connection points: 2
#     Edge 49, Type (0, 0), BuildingBlock: TEMPAE_clean_linker_10, # of connection points: 2
#     Edge 50, Type (0, 0), BuildingBlock: TEMPAE_clean_linker_10, # of connection points: 2
#     Edge 51, Type (0, 0), BuildingBlock: TEMPAE_clean_linker_10, # of connection points: 2
#     Edge 52, Type (0, 0), BuildingBlock: TEMPAE_clean_linker_10, # of connection points: 2
#     Edge 53, Type (0, 0), BuildingBlock: TEMPAE_clean_linker_10, # of connection points: 2
#     Edge 54, Type (0, 0), BuildingBlock: TEMPAE_clean_linker_10, # of connection points: 2
#     Edge 55, Type (0, 0), BuildingBlock: TEMPAE_clean_linker_10, # of connection points: 2
#     Edge 56, Type (0, 0), BuildingBlock: TEMPAE_clean_linker_10, # of connection points: 2
#     Edge 57, Type (0, 0), BuildingBlock: TEMPAE_clean_linker_10, # of connection points: 2
#     Edge 58, Type (0, 0), BuildingBlock: TEMPAE_clean_linker_10, # of connection points: 2
#     Edge 59, Type (0, 0), BuildingBlock: TEMPAE_clean_linker_10, # of connection points: 2
#     Edge 60, Type (0, 0), BuildingBlock: TEMPAE_clean_linker_10, # of connection points: 2
#     Edge 61, Type (0, 0), BuildingBlock: TEMPAE_clean_linker_10, # of connection points: 2
#     Edge 62, Type (0, 0), BuildingBlock: TEMPAE_clean_linker_10, # of connection points: 2
#     Edge 63, Type (0, 0), BuildingBlock: TEMPAE_clean_linker_10, # of connection points: 2
#     Edge 64, Type (0, 0), BuildingBlock: TEMPAE_clean_linker_10, # of connection points: 2
#     Edge 65, Type (0, 0), BuildingBlock: TEMPAE_clean_linker_10, # of connection points: 2
#     Edge 66, Type (0, 0), BuildingBlock: TEMPAE_clean_linker_10, # of connection points: 2
#     Edge 67, Type (0, 0), BuildingBlock: TEMPAE_clean_linker_10, # of connection points: 2
#     Edge 68, Type (0, 0), BuildingBlock: TEMPAE_clean_linker_10, # of connection points: 2
#     Edge 69, Type (0, 0), BuildingBlock: TEMPAE_clean_linker_10, # of connection points: 2
#     Edge 70, Type (0, 0), BuildingBlock: TEMPAE_clean_linker_10, # of connection points: 2
#     Edge 71, Type (0, 0), BuildingBlock: TEMPAE_clean_linker_10, # of connection points: 2
#     Edge 72, Type (0, 0), BuildingBlock: TEMPAE_clean_linker_10, # of connection points: 2
#     Edge 73, Type (0, 0), BuildingBlock: TEMPAE_clean_linker_10, # of connection points: 2
#     Edge 74, Type (0, 0), BuildingBlock: TEMPAE_clean_linker_10, # of connection points: 2
#     Edge 75, Type (0, 0), BuildingBlock: TEMPAE_clean_linker_10, # of connection points: 2
#     Edge 76, Type (0, 0), BuildingBlock: TEMPAE_clean_linker_10, # of connection points: 2
#     Edge 77, Type (0, 0), BuildingBlock: TEMPAE_clean_linker_10, # of connection points: 2
#     Edge 78, Type (0, 0), BuildingBlock: TEMPAE_clean_linker_10, # of connection points: 2
#     Edge 79, Type (0, 0), BuildingBlock: TEMPAE_clean_linker_10, # of connection points: 2
#     Edge 80, Type (0, 0), BuildingBlock: TEMPAE_clean_linker_10, # of connection points: 2
#     Edge 81, Type (0, 0), BuildingBlock: TEMPAE_clean_linker_10, # of connection points: 2
#     Edge 82, Type (0, 0), BuildingBlock: TEMPAE_clean_linker_10, # of connection points: 2
#     Edge 83, Type (0, 0), BuildingBlock: TEMPAE_clean_linker_10, # of connection points: 2
#     Edge 84, Type (0, 0), BuildingBlock: TEMPAE_clean_linker_10, # of connection points: 2
#     Edge 85, Type (0, 0), BuildingBlock: TEMPAE_clean_linker_10, # of connection points: 2
#     Edge 86, Type (0, 0), BuildingBlock: TEMPAE_clean_linker_10, # of connection points: 2
#     Edge 87, Type (0, 0), BuildingBlock: TEMPAE_clean_linker_10, # of connection points: 2
#     Edge 88, Type (0, 0), BuildingBlock: TEMPAE_clean_linker_10, # of connection points: 2
#     Edge 89, Type (0, 0), BuildingBlock: TEMPAE_clean_linker_10, # of connection points: 2
#     Edge 90, Type (0, 0), BuildingBlock: TEMPAE_clean_linker_10, # of connection points: 2
#     Edge 91, Type (0, 0), BuildingBlock: TEMPAE_clean_linker_10, # of connection points: 2
#     Edge 92, Type (0, 0), BuildingBlock: TEMPAE_clean_linker_10, # of connection points: 2
#     Edge 93, Type (0, 0), BuildingBlock: TEMPAE_clean_linker_10, # of connection points: 2
#     Edge 94, Type (0, 0), BuildingBlock: TEMPAE_clean_linker_10, # of connection points: 2
#     Edge 95, Type (0, 0), BuildingBlock: TEMPAE_clean_linker_10, # of connection points: 2
# Relax obj value: 0.106
# Max RMSD: 0.167
# Mean RMSD: 0.167
data_MOF--net-uoe--node1-GALJAG_clean_sbu_0--edge1-TEMPAE_clean_linker_10
_symmetry_space_group_name_H-M    P1
_symmetry_Int_Tables_number       1
_symmetry_cell_setting            triclinic
loop_
_symmetry_equiv_pos_as_xyz
'x, y, z'
_cell_length_a     74.428219
_cell_length_b     74.443637
_cell_length_c     28.107035
_cell_angle_alpha  90.003014
_cell_angle_beta   89.997776
_cell_angle_gamma 89.999327
loop_
_atom_site_label
_atom_site_type_symbol
_atom_site_fract_x
_atom_site_fract_y
_atom_site_fract_z
_atom_type_partial_charge
In0 In 0.09648 0.46236 0.0611 0.0
O1 O 0.09564 0.43218 0.07726 0.0
O2 O 0.12097 0.44435 0.06386 0.0
C3 C 0.06158 0.47181 0.05759 0.0
C4 C 0.10441 0.47553 0.14765 0.0
C5 C 0.10614 0.47355 0.9735 0.0
O6 O 0.06677 0.45615 0.04662 0.0
O7 O 0.07391 0.48245 0.06988 0.0
O8 O 0.11211 0.4809 0.01086 0.0
O9 O 0.09576 0.46041 0.98063 0.0
C10 C 0.11252 0.43034 0.07549 0.0
O11 O 0.11169 0.4817 0.11033 0.0
O12 O 0.09334 0.46296 0.14077 0.0
In13 In 0.78098 0.84674 0.30164 0.0
O14 O 0.77534 0.87037 0.35162 0.0
O15 O 0.75757 0.84825 0.35416 0.0
C16 C 0.76854 0.85596 0.2145 0.0
C17 C 0.81457 0.85619 0.32803 0.0
C18 C 0.77935 0.81048 0.30177 0.0
O19 O 0.75828 0.85112 0.24784 0.0
O20 O 0.78494 0.85667 0.22546 0.0
O21 O 0.77564 0.81994 0.33763 0.0
O22 O 0.78474 0.81926 0.26608 0.0
C23 C 0.76214 0.8631 0.37194 0.0
O24 O 0.8077 0.84131 0.33956 0.0
O25 O 0.80493 0.86561 0.30083 0.0
In26 In 0.39725 0.5377 0.55043 0.0
O27 O 0.37549 0.53308 0.60659 0.0
O28 O 0.39655 0.51411 0.60278 0.0
C29 C 0.3876 0.52397 0.46509 0.0
C30 C 0.38559 0.57139 0.56781 0.0
C31 C 0.43355 0.5365 0.5519 0.0
O32 O 0.39196 0.51415 0.49982 0.0
O33 O 0.38765 0.54057 0.47372 0.0
O34 O 0.4241 0.53597 0.58908 0.0
O35 O 0.42475 0.53886 0.51404 0.0
C36 C 0.3827 0.51937 0.62444 0.0
O37 O 0.40146 0.56653 0.57746 0.0
O38 O 0.37624 0.5596 0.54722 0.0
In39 In 0.724 0.15895 0.82373 0.0
O40 O 0.73504 0.136 0.87013 0.0
O41 O 0.74329 0.16261 0.88523 0.0
C42 C 0.72942 0.14652 0.73491 0.0
C43 C 0.69119 0.15081 0.85873 0.0
C44 C 0.73262 0.19367 0.80938 0.0
O45 O 0.7391 0.1418 0.76969 0.0
O46 O 0.7167 0.15705 0.74539 0.0
O47 O 0.71726 0.18896 0.82404 0.0
O48 O 0.74335 0.18091 0.80139 0.0
C49 C 0.74376 0.14633 0.89714 0.0
O50 O 0.7003 0.16393 0.87363 0.0
O51 O 0.69813 0.14255 0.82413 0.0
In52 In 0.10065 0.54222 0.56189 0.0
O53 O 0.10285 0.5725 0.54795 0.0
O54 O 0.12682 0.55769 0.56036 0.0
C55 C 0.06502 0.53608 0.56478 0.0
C56 C 0.10741 0.52902 0.4747 0.0
C57 C 0.10891 0.5295 0.64901 0.0
O58 O 0.07164 0.55106 0.57691 0.0
O59 O 0.0763 0.52449 0.55148 0.0
O60 O 0.11429 0.52188 0.61139 0.0
O61 O 0.09986 0.54361 0.64237 0.0
C62 C 0.11983 0.57261 0.54991 0.0
O63 O 0.11396 0.52187 0.51175 0.0
O64 O 0.09765 0.54259 0.48213 0.0
In65 In 0.72216 0.84092 0.78323 0.0
O66 O 0.69806 0.83393 0.73638 0.0
O67 O 0.69481 0.85445 0.78805 0.0
C68 C 0.72629 0.80489 0.78525 0.0
C69 C 0.73879 0.86012 0.71416 0.0
C70 C 0.73407 0.85161 0.86982 0.0
O71 O 0.73195 0.81462 0.75179 0.0
O72 O 0.71796 0.81325 0.81755 0.0
O73 O 0.74436 0.8452 0.83848 0.0
O74 O 0.71791 0.85314 0.85709 0.0
C75 C 0.688 0.8459 0.75373 0.0
O76 O 0.72513 0.86577 0.73585 0.0
O77 O 0.74493 0.84554 0.73011 0.0
In78 In 0.39989 0.47006 0.04023 0.0
O79 O 0.40517 0.44155 0.01186 0.0
O80 O 0.37992 0.44721 0.04367 0.0
C81 C 0.43615 0.47247 0.04036 0.0
C82 C 0.38464 0.48789 0.96634 0.0
C83 C 0.3895 0.48352 0.12527 0.0
O84 O 0.42689 0.47309 0.00284 0.0
O85 O 0.42722 0.46945 0.07768 0.0
O86 O 0.39388 0.49346 0.09081 0.0
O87 O 0.38994 0.46694 0.11655 0.0
C88 C 0.38962 0.43594 0.02222 0.0
O89 O 0.37775 0.47413 0.98482 0.0
O90 O 0.39856 0.49341 0.98722 0.0
In91 In 0.78845 0.15435 0.31442 0.0
O92 O 0.76775 0.13927 0.26861 0.0
O93 O 0.79327 0.14562 0.23868 0.0
C94 C 0.77655 0.14637 0.40265 0.0
C95 C 0.82267 0.14285 0.3091 0.0
C96 C 0.77736 0.18862 0.30171 0.0
O97 O 0.77147 0.13765 0.36651 0.0
O98 O 0.78771 0.15868 0.39406 0.0
O99 O 0.79174 0.18483 0.32331 0.0
O100 O 0.76885 0.17525 0.28613 0.0
C101 C 0.77809 0.13848 0.2329 0.0
O102 O 0.81817 0.15873 0.29836 0.0
O103 O 0.81008 0.13333 0.32563 0.0
In104 In 0.89871 0.52601 0.05599 0.0
O105 O 0.8725 0.52022 0.01618 0.0
O106 O 0.8957 0.50566 0.99614 0.0
C107 C 0.8906 0.52081 0.14821 0.0
C108 C 0.892 0.55986 0.02657 0.0
C109 C 0.93317 0.51482 0.05514 0.0
O110 O 0.88354 0.51166 0.11529 0.0
O111 O 0.90136 0.53284 0.13437 0.0
O112 O 0.92869 0.53039 0.04161 0.0
O113 O 0.92035 0.50508 0.06911 0.0
C114 C 0.87944 0.50912 0.98785 0.0
O115 O 0.90381 0.55009 0.00733 0.0
O116 O 0.88465 0.55301 0.06274 0.0
In117 In 0.21274 0.1512 0.79605 0.0
O118 O 0.23106 0.1349 0.74649 0.0
O119 O 0.2148 0.1557 0.71706 0.0
C120 C 0.22334 0.14087 0.88352 0.0
C121 C 0.1804 0.13614 0.77962 0.0
C122 C 0.22292 0.18581 0.80261 0.0
O123 O 0.23144 0.13581 0.84631 0.0
O124 O 0.20974 0.15061 0.87621 0.0
O125 O 0.20702 0.18088 0.81185 0.0
O126 O 0.23343 0.17334 0.79041 0.0
C127 C 0.22621 0.14348 0.70974 0.0
O128 O 0.18271 0.15296 0.77856 0.0
O129 O 0.19412 0.12723 0.79132 0.0
In130 In 0.58956 0.46571 0.54866 0.0
O131 O 0.60823 0.48219 0.50038 0.0
O132 O 0.58736 0.46661 0.46903 0.0
C133 C 0.60086 0.47439 0.63644 0.0
C134 C 0.60007 0.43153 0.53429 0.0
C135 C 0.55696 0.48142 0.55263 0.0
O136 O 0.6078 0.48111 0.5994 0.0
O137 O 0.58865 0.46294 0.62891 0.0
O138 O 0.55891 0.46459 0.55672 0.0
O139 O 0.57136 0.49007 0.54683 0.0
C140 C 0.60048 0.47705 0.4627 0.0
O141 O 0.58384 0.4363 0.53002 0.0
O142 O 0.61051 0.44369 0.54889 0.0
In143 In 0.29615 0.84795 0.31068 0.0
O144 O 0.27752 0.86392 0.26091 0.0
O145 O 0.29507 0.84429 0.23118 0.0
C146 C 0.28225 0.8577 0.39563 0.0
C147 C 0.32698 0.86583 0.29531 0.0
C148 C 0.29166 0.81207 0.31615 0.0
O149 O 0.27259 0.8554 0.35921 0.0
O150 O 0.29885 0.8555 0.38892 0.0
O151 O 0.30554 0.81962 0.33271 0.0
O152 O 0.28041 0.82256 0.29754 0.0
C153 C 0.2832 0.85606 0.22386 0.0
O154 O 0.32644 0.84884 0.29618 0.0
O155 O 0.31226 0.87349 0.30457 0.0
In156 In 0.9017 0.48455 0.58542 0.0
O157 O 0.9075 0.46309 0.64116 0.0
O158 O 0.89047 0.45609 0.58347 0.0
C159 C 0.93578 0.49689 0.58351 0.0
C160 C 0.88103 0.50112 0.65088 0.0
C161 C 0.89239 0.48792 0.49331 0.0
O162 O 0.93197 0.48097 0.59537 0.0
O163 O 0.92245 0.50651 0.57263 0.0
O164 O 0.88556 0.49747 0.52572 0.0
O165 O 0.90358 0.47637 0.50761 0.0
C166 C 0.89733 0.45146 0.62269 0.0
O167 O 0.87494 0.48935 0.62303 0.0
O168 O 0.89715 0.50545 0.64317 0.0
In169 In 0.29049 0.15056 0.29617 0.0
O170 O 0.32086 0.15047 0.30943 0.0
O171 O 0.30803 0.12582 0.29196 0.0
C172 C 0.28181 0.18568 0.29886 0.0
C173 C 0.27852 0.14088 0.38267 0.0
C174 C 0.27805 0.14234 0.20886 0.0
O175 O 0.29702 0.18038 0.28447 0.0
O176 O 0.27123 0.17336 0.31154 0.0
O177 O 0.29083 0.15315 0.21593 0.0
O178 O 0.27159 0.13531 0.24609 0.0
C179 C 0.32235 0.13367 0.30394 0.0
O180 O 0.29229 0.15046 0.37616 0.0
O181 O 0.27054 0.136 0.34501 0.0
In182 In 0.59463 0.53826 0.04881 0.0
O183 O 0.59191 0.56856 0.06207 0.0
O184 O 0.61797 0.55753 0.0511 0.0
C185 C 0.56116 0.52451 0.04566 0.0
C186 C 0.60388 0.52675 0.13585 0.0
C187 C 0.60476 0.52862 0.96078 0.0
O188 O 0.56399 0.54127 0.04289 0.0
O189 O 0.57511 0.51503 0.04988 0.0
O190 O 0.61124 0.52129 0.9976 0.0
O191 O 0.59368 0.54113 0.9687 0.0
C192 C 0.60871 0.57122 0.06114 0.0
O193 O 0.61152 0.52074 0.09887 0.0
O194 O 0.59171 0.53819 0.1283 0.0
In195 In 0.21776 0.84854 0.81082 0.0
O196 O 0.18716 0.84754 0.81867 0.0
O197 O 0.19996 0.87308 0.81497 0.0
C198 C 0.21943 0.81237 0.80613 0.0
C199 C 0.2308 0.85825 0.89671 0.0
C200 C 0.23487 0.85795 0.72956 0.0
O201 O 0.20964 0.82133 0.77805 0.0
O202 O 0.22785 0.82162 0.83622 0.0
O203 O 0.24253 0.84948 0.76268 0.0
O204 O 0.21882 0.86228 0.73806 0.0
C205 C 0.18552 0.86444 0.82052 0.0
O206 O 0.238 0.86369 0.85854 0.0
O207 O 0.21735 0.84823 0.89088 0.0
In208 In 0.59502 0.95962 0.56276 0.0
O209 O 0.61943 0.94162 0.56692 0.0
O210 O 0.59376 0.92908 0.57156 0.0
C211 C 0.55901 0.96298 0.55517 0.0
C212 C 0.60405 0.97129 0.65036 0.0
C213 C 0.60595 0.97678 0.48298 0.0
O214 O 0.56762 0.95158 0.53082 0.0
O215 O 0.56853 0.97221 0.58291 0.0
O216 O 0.59908 0.98492 0.51787 0.0
O217 O 0.60777 0.96009 0.48872 0.0
C218 C 0.61065 0.92729 0.57313 0.0
O219 O 0.61045 0.9785 0.61325 0.0
O220 O 0.59335 0.95852 0.64275 0.0
In221 In 0.27749 0.34841 0.81765 0.0
O222 O 0.30298 0.34253 0.8605 0.0
O223 O 0.30397 0.36322 0.80861 0.0
C224 C 0.26688 0.31378 0.81492 0.0
C225 C 0.26074 0.36568 0.88991 0.0
C226 C 0.27057 0.35813 0.72729 0.0
O227 O 0.28202 0.31838 0.83125 0.0
O228 O 0.25731 0.32656 0.79994 0.0
O229 O 0.2621 0.36465 0.76221 0.0
O230 O 0.28283 0.34715 0.73825 0.0
C231 C 0.31201 0.35498 0.84156 0.0
O232 O 0.27189 0.37337 0.86314 0.0
O233 O 0.25735 0.34969 0.87854 0.0
In234 In 0.90067 0.033 0.07202 0.0
O235 O 0.90892 0.05705 0.11746 0.0
O236 O 0.88576 0.05965 0.07392 0.0
C237 C 0.9357 0.02398 0.06975 0.0
C238 C 0.88402 0.01737 0.14674 0.0
C239 C 0.8898 0.02454 0.98252 0.0
O240 O 0.93007 0.03893 0.05461 0.0
O241 O 0.92372 0.01374 0.08624 0.0
O242 O 0.88417 0.01617 0.01859 0.0
O243 O 0.90031 0.03729 0.99189 0.0
C244 C 0.89573 0.06664 0.1052 0.0
O245 O 0.87699 0.03003 0.12345 0.0
O246 O 0.89871 0.01172 0.12998 0.0
In247 In 0.23822 0.64973 0.32932 0.0
O248 O 0.24179 0.6223 0.36464 0.0
O249 O 0.25939 0.64328 0.38503 0.0
C250 C 0.24043 0.64205 0.23582 0.0
C251 C 0.20513 0.64663 0.36753 0.0
C252 C 0.25204 0.68323 0.33171 0.0
O253 O 0.24999 0.63424 0.26662 0.0
O254 O 0.22953 0.65342 0.25238 0.0
O255 O 0.23586 0.67992 0.34207 0.0
O256 O 0.2612 0.66967 0.31997 0.0
C257 C 0.2542 0.62738 0.39198 0.0
O258 O 0.21728 0.65618 0.38597 0.0
O259 O 0.20935 0.63959 0.32819 0.0
In260 In 0.59819 0.0377 0.06586 0.0
O261 O 0.61356 0.019 0.01472 0.0
O262 O 0.59045 0.03259 0.98924 0.0
C263 C 0.60915 0.02553 0.15133 0.0
C264 C 0.61562 0.06864 0.04823 0.0
C265 C 0.56257 0.03389 0.07987 0.0
O266 O 0.60727 0.01542 0.11561 0.0
O267 O 0.60617 0.04199 0.14366 0.0
O268 O 0.56935 0.04867 0.06687 0.0
O269 O 0.57372 0.02141 0.08638 0.0
C270 C 0.60324 0.0221 0.98003 0.0
O271 O 0.59886 0.06814 0.05532 0.0
O272 O 0.62355 0.05373 0.05253 0.0
In273 In 0.22532 0.34769 0.29742 0.0
O274 O 0.20263 0.34125 0.24564 0.0
O275 O 0.19728 0.35991 0.30099 0.0
C276 C 0.23718 0.31345 0.29995 0.0
C277 C 0.24237 0.36658 0.22888 0.0
C278 C 0.22978 0.35779 0.38869 0.0
O279 O 0.22144 0.31745 0.28688 0.0
O280 O 0.24678 0.32665 0.312 0.0
O281 O 0.23851 0.36478 0.35493 0.0
O282 O 0.21843 0.34611 0.37616 0.0
C283 C 0.19167 0.3522 0.26383 0.0
O284 O 0.23004 0.37324 0.25395 0.0
O285 O 0.24684 0.35087 0.24054 0.0
In286 In 0.89516 0.9691 0.55797 0.0
O287 O 0.90133 0.94193 0.5231 0.0
O288 O 0.87611 0.9452 0.55699 0.0
C289 C 0.93119 0.97406 0.55465 0.0
C290 C 0.87956 0.98887 0.48865 0.0
C291 C 0.88551 0.97892 0.64715 0.0
O292 O 0.92132 0.97508 0.51833 0.0
O293 O 0.923 0.96999 0.59238 0.0
O294 O 0.88219 0.98865 0.61137 0.0
O295 O 0.8931 0.96423 0.63756 0.0
C296 C 0.88619 0.9352 0.53256 0.0
O297 O 0.87288 0.97444 0.50408 0.0
O298 O 0.89336 0.99407 0.51084 0.0
In299 In 0.2723 0.65007 0.79352 0.0
O300 O 0.29596 0.65742 0.74541 0.0
O301 O 0.2998 0.63688 0.79684 0.0
C302 C 0.25907 0.68371 0.78996 0.0
C303 C 0.25719 0.62929 0.72566 0.0
C304 C 0.26742 0.64266 0.88651 0.0
O305 O 0.27565 0.68038 0.7855 0.0
O306 O 0.24927 0.67009 0.79642 0.0
O307 O 0.25818 0.63533 0.85425 0.0
O308 O 0.27928 0.6534 0.8717 0.0
C309 C 0.30629 0.64558 0.76235 0.0
O310 O 0.26791 0.62306 0.75615 0.0
O311 O 0.25328 0.64561 0.73151 0.0
In312 In 0.3968 0.01584 0.52776 0.0
O313 O 0.40467 0.03784 0.47516 0.0
O314 O 0.38505 0.04403 0.52752 0.0
C315 C 0.43032 0.00219 0.52788 0.0
C316 C 0.37615 0.99949 0.46156 0.0
C317 C 0.38868 0.01374 0.62109 0.0
O318 O 0.42706 0.01837 0.51731 0.0
O319 O 0.41668 0.99297 0.53865 0.0
O320 O 0.38095 0.00413 0.59021 0.0
O321 O 0.40014 0.02456 0.60466 0.0
C322 C 0.39366 0.0492 0.49133 0.0
O323 O 0.3701 0.01146 0.48886 0.0
O324 O 0.39211 0.99492 0.47024 0.0
In325 In 0.71849 0.65034 0.2911 0.0
O326 O 0.69662 0.65829 0.2382 0.0
O327 O 0.6896 0.64034 0.29389 0.0
C328 C 0.73254 0.68377 0.29191 0.0
C329 C 0.73338 0.62983 0.22249 0.0
C330 C 0.72366 0.63947 0.38174 0.0
O331 O 0.71579 0.68096 0.29079 0.0
O332 O 0.74206 0.66975 0.29268 0.0
O333 O 0.73122 0.632 0.34682 0.0
O334 O 0.71316 0.65211 0.37082 0.0
C335 C 0.68476 0.64828 0.25629 0.0
O336 O 0.72027 0.62457 0.24714 0.0
O337 O 0.73953 0.64498 0.2342 0.0
In338 In 0.0994 0.97395 0.04152 0.0
O339 O 0.12426 0.9803 0.99666 0.0
O340 O 0.10081 0.99576 0.98493 0.0
C341 C 0.11012 0.97812 0.13238 0.0
C342 C 0.10474 0.94075 0.0061 0.0
C343 C 0.06474 0.98407 0.04848 0.0
O344 O 0.11636 0.98753 0.09884 0.0
O345 O 0.09901 0.96625 0.11969 0.0
O346 O 0.06929 0.96869 0.03386 0.0
O347 O 0.07763 0.99425 0.05951 0.0
C348 C 0.11665 0.99225 0.9722 0.0
O349 O 0.0933 0.95146 0.98902 0.0
O350 O 0.11264 0.9464 0.04294 0.0
In351 In 0.78378 0.35708 0.8094 0.0
O352 O 0.76382 0.37126 0.75978 0.0
O353 O 0.78718 0.35904 0.73002 0.0
C354 C 0.7705 0.36424 0.89666 0.0
C355 C 0.81596 0.3735 0.80415 0.0
C356 C 0.77526 0.32196 0.80299 0.0
O357 O 0.78361 0.35387 0.88942 0.0
O358 O 0.76425 0.37161 0.85964 0.0
O359 O 0.79018 0.32716 0.81946 0.0
O360 O 0.7649 0.33437 0.78974 0.0
C361 C 0.77291 0.36776 0.72279 0.0
O362 O 0.81427 0.35668 0.79978 0.0
O363 O 0.80159 0.38172 0.81405 0.0
In364 In 0.40029 0.98053 0.06146 0.0
O365 O 0.40924 0.95952 0.11584 0.0
O366 O 0.39033 0.95164 0.06335 0.0
C367 C 0.434 0.99375 0.06606 0.0
C368 C 0.37714 0.99432 0.12542 0.0
C369 C 0.39127 0.98629 0.96948 0.0
O370 O 0.4305 0.97867 0.04772 0.0
O371 O 0.42055 0.00208 0.08205 0.0
O372 O 0.3856 0.99614 0.00273 0.0
O373 O 0.40113 0.97351 0.98282 0.0
C374 C 0.39902 0.94736 0.10019 0.0
O375 O 0.37321 0.98098 0.09975 0.0
O376 O 0.39212 0.00143 0.11597 0.0
In377 In 0.77397 0.64036 0.80839 0.0
O378 O 0.76302 0.61718 0.8542 0.0
O379 O 0.75831 0.64393 0.87675 0.0
C380 C 0.76632 0.63119 0.71792 0.0
C381 C 0.80747 0.63017 0.83371 0.0
C382 C 0.76423 0.67506 0.80229 0.0
O383 O 0.7569 0.62599 0.75265 0.0
O384 O 0.77988 0.64044 0.72913 0.0
O385 O 0.78039 0.67041 0.80924 0.0
O386 O 0.75324 0.66223 0.79826 0.0
C387 C 0.75648 0.62746 0.88535 0.0
O388 O 0.80165 0.64584 0.84151 0.0
O389 O 0.79676 0.62019 0.8112 0.0
In390 In 0.09492 0.02564 0.5599 0.0
O391 O 0.08852 0.04891 0.60992 0.0
O392 O 0.10787 0.05329 0.55562 0.0
C393 C 0.06042 0.01467 0.55589 0.0
C394 C 0.11296 0.01004 0.63215 0.0
C395 C 0.10591 0.01867 0.47029 0.0
O396 O 0.06469 0.03109 0.55749 0.0
O397 O 0.07353 0.00392 0.55628 0.0
O398 O 0.11191 0.01021 0.50582 0.0
O399 O 0.09478 0.03087 0.4802 0.0
C400 C 0.09995 0.05942 0.59187 0.0
O401 O 0.12026 0.02114 0.60438 0.0
O402 O 0.097 0.00603 0.62158 0.0
In403 In 0.71017 0.34574 0.31114 0.0
O404 O 0.68822 0.36672 0.31831 0.0
O405 O 0.68161 0.34001 0.33794 0.0
C406 C 0.72269 0.31221 0.29768 0.0
C407 C 0.72644 0.35506 0.39337 0.0
C408 C 0.71699 0.3579 0.22275 0.0
O409 O 0.70629 0.31532 0.30634 0.0
O410 O 0.73256 0.32597 0.29527 0.0
O411 O 0.72569 0.36317 0.25878 0.0
O412 O 0.70448 0.3469 0.23162 0.0
C413 C 0.67666 0.3562 0.33557 0.0
O414 O 0.72611 0.36552 0.358 0.0
O415 O 0.71906 0.34009 0.38647 0.0
C416 C 0.95698 0.49392 0.08373 0.0
C417 C 0.95191 0.50832 0.05455 0.0
C418 C 0.97473 0.48757 0.08397 0.0
C419 C 0.98758 0.4955 0.05336 0.0
C420 C 0.98243 0.50984 0.02314 0.0
C421 C 0.96468 0.51625 0.02458 0.0
C422 C 0.9798 0.47258 0.11762 0.0
C423 C 0.99565 0.51839 0.98929 0.0
C424 C 0.03702 0.49197 0.08489 0.0
C425 C 0.04257 0.47746 0.05674 0.0
C426 C 0.01912 0.49781 0.08454 0.0
C427 C 0.00656 0.48924 0.0543 0.0
C428 C 0.01214 0.47465 0.02543 0.0
C429 C 0.03007 0.46876 0.0275 0.0
C430 C 0.01362 0.5131 0.11677 0.0
C431 C 0.99922 0.46544 0.99198 0.0
H432 H 0.94713 0.48783 0.1071 0.0
H433 H 0.96072 0.52728 0.00169 0.0
H434 H 0.98522 0.461 0.09738 0.0
H435 H 0.99055 0.47721 0.14207 0.0
H436 H 0.96821 0.4679 0.13923 0.0
H437 H 0.98927 0.52873 0.96633 0.0
H438 H 0.0067 0.5248 0.00961 0.0
H439 H 0.00179 0.50796 0.96621 0.0
H440 H 0.04666 0.49864 0.10779 0.0
H441 H 0.0344 0.45762 0.00547 0.0
H442 H 0.0025 0.50874 0.1404 0.0
H443 H 0.00856 0.52451 0.09525 0.0
H444 H 0.02491 0.51794 0.13922 0.0
H445 H 0.9879 0.45954 0.01235 0.0
H446 H 0.00578 0.45461 0.97106 0.0
H447 H 0.99341 0.4754 0.96696 0.0
C448 C 0.77056 0.78196 0.34207 0.0
C449 C 0.77559 0.79099 0.30036 0.0
C450 C 0.76467 0.76407 0.34069 0.0
C451 C 0.76364 0.75504 0.29646 0.0
C452 C 0.76934 0.76386 0.25444 0.0
C453 C 0.77533 0.78174 0.25692 0.0
C454 C 0.75892 0.75506 0.38637 0.0
C455 C 0.76841 0.75468 0.20661 0.0
C456 C 0.7591 0.70419 0.29758 0.0
C457 C 0.74048 0.70198 0.29235 0.0
C458 C 0.76686 0.72137 0.29862 0.0
C459 C 0.75575 0.73669 0.29401 0.0
C460 C 0.73696 0.73453 0.28822 0.0
C461 C 0.72954 0.71719 0.28761 0.0
C462 C 0.78692 0.72314 0.30518 0.0
C463 C 0.72467 0.75056 0.28296 0.0
H464 H 0.77079 0.78904 0.37578 0.0
H465 H 0.77913 0.78868 0.22455 0.0
H466 H 0.7443 0.75221 0.38514 0.0
H467 H 0.76594 0.74201 0.39059 0.0
H468 H 0.76172 0.76349 0.41814 0.0
H469 H 0.7744 0.76296 0.17781 0.0
H470 H 0.7755 0.74158 0.2079 0.0
H471 H 0.75418 0.75189 0.19746 0.0
H472 H 0.76763 0.69247 0.30129 0.0
H473 H 0.71516 0.71555 0.28341 0.0
H474 H 0.78982 0.73076 0.33822 0.0
H475 H 0.79282 0.73081 0.27518 0.0
H476 H 0.79372 0.70988 0.30739 0.0
H477 H 0.72547 0.75908 0.31526 0.0
H478 H 0.71044 0.74657 0.27743 0.0
H479 H 0.72903 0.75892 0.25238 0.0
C480 C 0.46187 0.52833 0.50934 0.0
C481 C 0.45287 0.53185 0.55216 0.0
C482 C 0.47927 0.52102 0.50927 0.0
C483 C 0.48789 0.51727 0.55309 0.0
C484 C 0.47921 0.52164 0.59639 0.0
C485 C 0.46178 0.52883 0.59541 0.0
C486 C 0.48809 0.51658 0.46235 0.0
C487 C 0.48804 0.51805 0.64381 0.0
C488 C 0.52333 0.48047 0.55524 0.0
C489 C 0.53926 0.49047 0.55373 0.0
C490 C 0.50651 0.48904 0.55505 0.0
C491 C 0.50564 0.50806 0.55365 0.0
C492 C 0.52169 0.51821 0.5526 0.0
C493 C 0.53831 0.5093 0.5525 0.0
C494 C 0.48966 0.47775 0.55602 0.0
C495 C 0.52133 0.53849 0.55144 0.0
H496 H 0.45503 0.53057 0.47581 0.0
H497 H 0.45489 0.53152 0.62863 0.0
H498 H 0.50164 0.52275 0.46044 0.0
H499 H 0.48988 0.50182 0.45936 0.0
H500 H 0.48006 0.52129 0.43147 0.0
H501 H 0.48007 0.52342 0.67404 0.0
H502 H 0.48973 0.50337 0.64884 0.0
H503 H 0.50164 0.52416 0.6448 0.0
H504 H 0.524 0.46593 0.5561 0.0
H505 H 0.55059 0.51712 0.55145 0.0
H506 H 0.48138 0.48061 0.52408 0.0
H507 H 0.48145 0.48124 0.58763 0.0
H508 H 0.49264 0.46313 0.55703 0.0
H509 H 0.51411 0.54317 0.51921 0.0
H510 H 0.53503 0.54441 0.55142 0.0
H511 H 0.51389 0.5437 0.58274 0.0
C512 C 0.72939 0.22609 0.8304 0.0
C513 C 0.73817 0.21261 0.80456 0.0
C514 C 0.7356 0.2439 0.82929 0.0
C515 C 0.75065 0.24835 0.80074 0.0
C516 C 0.75917 0.23486 0.77337 0.0
C517 C 0.75296 0.21709 0.77609 0.0
C518 C 0.72634 0.25787 0.8596 0.0
C519 C 0.77495 0.23915 0.74154 0.0
C520 C 0.75632 0.29757 0.76899 0.0
C521 C 0.76984 0.30292 0.80067 0.0
C522 C 0.75026 0.27974 0.76779 0.0
C523 C 0.75758 0.26708 0.79995 0.0
C524 C 0.77134 0.27239 0.83185 0.0
C525 C 0.77748 0.29024 0.8314 0.0
C526 C 0.73592 0.27449 0.7324 0.0
C527 C 0.77925 0.25935 0.86725 0.0
H528 H 0.71804 0.22261 0.85272 0.0
H529 H 0.75971 0.20668 0.7559 0.0
H530 H 0.73609 0.26376 0.88508 0.0
H531 H 0.72131 0.26898 0.83694 0.0
H532 H 0.71487 0.25221 0.87996 0.0
H533 H 0.77946 0.2273 0.72068 0.0
H534 H 0.77132 0.25008 0.71645 0.0
H535 H 0.78639 0.24403 0.76326 0.0
H536 H 0.75048 0.30737 0.74498 0.0
H537 H 0.78785 0.2944 0.85614 0.0
H538 H 0.72362 0.27016 0.75148 0.0
H539 H 0.74056 0.26293 0.71071 0.0
H540 H 0.73235 0.28571 0.70811 0.0
H541 H 0.76849 0.25412 0.89082 0.0
H542 H 0.78982 0.26561 0.88968 0.0
H543 H 0.78516 0.24767 0.84839 0.0
C544 C 0.03427 0.5409 0.59845 0.0
C545 C 0.04563 0.53203 0.56641 0.0
C546 C 0.01608 0.536 0.6025 0.0
C547 C 0.0091 0.52227 0.57285 0.0
C548 C 0.02043 0.51375 0.5393 0.0
C549 C 0.03861 0.51856 0.53697 0.0
C550 C 0.0045 0.54511 0.63938 0.0
C551 C 0.01341 0.49938 0.50621 0.0
C552 C 0.96793 0.49526 0.60839 0.0
C553 C 0.95439 0.50372 0.58203 0.0
C554 C 0.9857 0.50158 0.60702 0.0
C555 C 0.99007 0.51639 0.57757 0.0
C556 C 0.97641 0.52498 0.5509 0.0
C557 C 0.95867 0.51868 0.55395 0.0
C558 C 0.99982 0.4923 0.63675 0.0
C559 C 0.98061 0.54051 0.51816 0.0
H560 H 0.03974 0.55123 0.62146 0.0
H561 H 0.04737 0.51179 0.51191 0.0
H562 H 0.99255 0.55124 0.62228 0.0
H563 H 0.99953 0.53501 0.66527 0.0
H564 H 0.01189 0.55573 0.6591 0.0
H565 H 0.0237 0.4949 0.48015 0.0
H566 H 0.00896 0.48755 0.5271 0.0
H567 H 0.00155 0.50444 0.4864 0.0
H568 H 0.9646 0.48379 0.63044 0.0
H569 H 0.94821 0.52518 0.53336 0.0
H570 H 0.00703 0.50226 0.65908 0.0
H571 H 0.00992 0.48588 0.61322 0.0
H572 H 0.99399 0.48182 0.6603 0.0
H573 H 0.98721 0.55149 0.53827 0.0
H574 H 0.9684 0.54594 0.50061 0.0
H575 H 0.99017 0.53607 0.49022 0.0
C576 C 0.77029 0.70799 0.81083 0.0
C577 C 0.75837 0.69402 0.79993 0.0
C578 C 0.76465 0.72599 0.80942 0.0
C579 C 0.74672 0.73007 0.79637 0.0
C580 C 0.73465 0.716 0.78523 0.0
C581 C 0.74061 0.69815 0.78733 0.0
C582 C 0.77787 0.74065 0.8218 0.0
C583 C 0.71549 0.71982 0.77071 0.0
C584 C 0.72774 0.77581 0.82975 0.0
C585 C 0.73029 0.78546 0.78749 0.0
C586 C 0.73296 0.75771 0.83316 0.0
C587 C 0.74071 0.74909 0.79318 0.0
C588 C 0.74286 0.75867 0.75008 0.0
C589 C 0.73771 0.77677 0.74784 0.0
C590 C 0.73054 0.74794 0.87979 0.0
C591 C 0.75084 0.74988 0.70649 0.0
H592 H 0.78401 0.70485 0.82079 0.0
H593 H 0.73133 0.68739 0.77881 0.0
H594 H 0.77976 0.74968 0.79082 0.0
H595 H 0.77253 0.74894 0.85141 0.0
H596 H 0.79118 0.73521 0.83243 0.0
H597 H 0.70776 0.70734 0.76355 0.0
H598 H 0.70854 0.72749 0.79911 0.0
H599 H 0.71533 0.72827 0.73819 0.0
H600 H 0.7221 0.78252 0.86055 0.0
H601 H 0.73966 0.78417 0.71503 0.0
H602 H 0.7438 0.74346 0.89339 0.0
H603 H 0.72224 0.73573 0.87443 0.0
H604 H 0.72404 0.75647 0.90727 0.0
H605 H 0.76479 0.7455 0.71408 0.0
H606 H 0.75106 0.75904 0.67529 0.0
H607 H 0.74303 0.73771 0.69699 0.0
C608 C 0.52756 0.52706 0.04383 0.0
C609 C 0.54303 0.51634 0.04442 0.0
C610 C 0.51036 0.51924 0.04336 0.0
C611 C 0.50865 0.50027 0.04319 0.0
C612 C 0.52424 0.48941 0.04352 0.0
C613 C 0.54122 0.49757 0.04426 0.0
C614 C 0.49403 0.53126 0.0432 0.0
C615 C 0.52299 0.46916 0.04306 0.0
C616 C 0.46421 0.48046 0.08449 0.0
C617 C 0.4554 0.47744 0.04111 0.0
C618 C 0.48165 0.48764 0.0857 0.0
C619 C 0.49053 0.49178 0.04249 0.0
C620 C 0.48196 0.48812 0.99858 0.0
C621 C 0.46447 0.48104 0.99843 0.0
C622 C 0.49036 0.49134 0.13322 0.0
C623 C 0.49105 0.49215 0.95176 0.0
H624 H 0.52888 0.54156 0.04404 0.0
H625 H 0.55313 0.48919 0.04462 0.0
H626 H 0.48578 0.52856 0.0111 0.0
H627 H 0.48552 0.52832 0.07467 0.0
H628 H 0.49764 0.54574 0.04369 0.0
H629 H 0.53641 0.46264 0.04313 0.0
H630 H 0.51538 0.46443 0.0746 0.0
H631 H 0.51553 0.46464 0.01106 0.0
H632 H 0.45722 0.47781 0.1176 0.0
H633 H 0.45773 0.47875 0.96479 0.0
H634 H 0.49279 0.50597 0.13715 0.0
H635 H 0.50361 0.48456 0.1353 0.0
H636 H 0.48195 0.48673 0.16351 0.0
H637 H 0.49346 0.50681 0.94861 0.0
H638 H 0.48292 0.48771 0.92078 0.0
H639 H 0.50434 0.48542 0.95017 0.0
C640 C 0.72163 0.27941 0.3158 0.0
C641 C 0.73012 0.29392 0.29343 0.0
C642 C 0.7295 0.26227 0.31571 0.0
C643 C 0.74598 0.25952 0.29156 0.0
C644 C 0.75425 0.27401 0.2674 0.0
C645 C 0.74634 0.29111 0.26922 0.0
C646 C 0.72045 0.24723 0.34268 0.0
C647 C 0.77155 0.2715 0.24012 0.0
C648 C 0.7754 0.22036 0.32983 0.0
C649 C 0.77037 0.20708 0.29716 0.0
C650 C 0.76758 0.23752 0.32837 0.0
C651 C 0.75479 0.24158 0.2926 0.0
C652 C 0.75015 0.22837 0.2585 0.0
C653 C 0.75782 0.21119 0.26161 0.0
C654 C 0.7726 0.25113 0.36592 0.0
C655 C 0.73695 0.23233 0.21907 0.0
H656 H 0.70916 0.28162 0.33486 0.0
H657 H 0.75287 0.30232 0.25167 0.0
H658 H 0.71759 0.23583 0.31844 0.0
H659 H 0.72958 0.24217 0.37089 0.0
H660 H 0.70766 0.25157 0.35949 0.0
H661 H 0.7756 0.28385 0.22068 0.0
H662 H 0.78251 0.26775 0.26492 0.0
H663 H 0.7701 0.26037 0.21415 0.0
H664 H 0.785 0.21714 0.35757 0.0
H665 H 0.75398 0.20094 0.23616 0.0
H666 H 0.76046 0.25514 0.38622 0.0
H667 H 0.77805 0.26343 0.34896 0.0
H668 H 0.78276 0.24585 0.39129 0.0
H669 H 0.72352 0.23522 0.23436 0.0
H670 H 0.73565 0.22096 0.1937 0.0
H671 H 0.74123 0.24446 0.19911 0.0
C672 C 0.24678 0.29001 0.78248 0.0
C673 C 0.26056 0.29499 0.8138 0.0
C674 C 0.24043 0.27228 0.78097 0.0
C675 C 0.24773 0.25934 0.8124 0.0
C676 C 0.26148 0.26437 0.84461 0.0
C677 C 0.26791 0.28212 0.84449 0.0
C678 C 0.22608 0.26735 0.74527 0.0
C679 C 0.26934 0.25103 0.87931 0.0
C680 C 0.21997 0.21717 0.83374 0.0
C681 C 0.22898 0.20466 0.80518 0.0
C682 C 0.22613 0.23497 0.83721 0.0
C683 C 0.24133 0.24042 0.81047 0.0
C684 C 0.25028 0.22785 0.78106 0.0
C685 C 0.24413 0.21007 0.77927 0.0
C686 C 0.21648 0.24791 0.86973 0.0
C687 C 0.26625 0.23322 0.75108 0.0
H688 H 0.24113 0.29994 0.75857 0.0
H689 H 0.27846 0.28601 0.86901 0.0
H690 H 0.23107 0.25653 0.72153 0.0
H691 H 0.21406 0.26206 0.76391 0.0
H692 H 0.22195 0.27897 0.72302 0.0
H693 H 0.27936 0.25728 0.90347 0.0
H694 H 0.25848 0.245 0.90114 0.0
H695 H 0.27595 0.23992 0.85969 0.0
H696 H 0.20834 0.21295 0.85407 0.0
H697 H 0.25105 0.20042 0.75691 0.0
H698 H 0.21097 0.25928 0.8488 0.0
H699 H 0.22607 0.25364 0.89589 0.0
H700 H 0.20528 0.2414 0.88937 0.0
H701 H 0.26245 0.24436 0.72683 0.0
H702 H 0.27147 0.2219 0.72938 0.0
H703 H 0.27724 0.23823 0.77418 0.0
C704 C 0.27629 0.78479 0.28594 0.0
C705 C 0.28833 0.79255 0.31829 0.0
C706 C 0.27177 0.76656 0.28874 0.0
C707 C 0.27918 0.75589 0.32549 0.0
C708 C 0.29161 0.76357 0.35785 0.0
C709 C 0.29621 0.78183 0.35353 0.0
C710 C 0.25876 0.75883 0.2529 0.0
C711 C 0.29955 0.75266 0.39793 0.0
C712 C 0.25062 0.71537 0.35671 0.0
C713 C 0.2596 0.70156 0.3326 0.0
C714 C 0.25734 0.73298 0.35655 0.0
C715 C 0.27322 0.73692 0.33081 0.0
C716 C 0.28251 0.72296 0.30707 0.0
C717 C 0.27567 0.70539 0.30864 0.0
C718 C 0.2472 0.74745 0.38294 0.0
C719 C 0.29927 0.72669 0.27846 0.0
H720 H 0.27029 0.79303 0.25839 0.0
H721 H 0.30544 0.78787 0.37872 0.0
H722 H 0.26463 0.74673 0.23586 0.0
H723 H 0.24625 0.75458 0.27115 0.0
H724 H 0.25518 0.76864 0.22466 0.0
H725 H 0.30961 0.76039 0.41875 0.0
H726 H 0.28868 0.74825 0.42231 0.0
H727 H 0.30606 0.74038 0.38375 0.0
H728 H 0.23827 0.71241 0.37564 0.0
H729 H 0.28264 0.69474 0.28989 0.0
H730 H 0.24148 0.75718 0.35716 0.0
H731 H 0.25643 0.755 0.40661 0.0
H732 H 0.23605 0.74189 0.40472 0.0
H733 H 0.29591 0.73552 0.24793 0.0
H734 H 0.30552 0.7142 0.26455 0.0
H735 H 0.3093 0.73391 0.30051 0.0
C736 C 0.26276 0.2102 0.33148 0.0
C737 C 0.27645 0.20475 0.30045 0.0
C738 C 0.25685 0.22808 0.33249 0.0
C739 C 0.2645 0.2407 0.30075 0.0
C740 C 0.2784 0.23528 0.26941 0.0
C741 C 0.28439 0.21738 0.27008 0.0
C742 C 0.24234 0.23342 0.36731 0.0
C743 C 0.28661 0.24828 0.2344 0.0
C744 C 0.23582 0.28157 0.27254 0.0
C745 C 0.24406 0.29485 0.30031 0.0
C746 C 0.2426 0.26397 0.27153 0.0
C747 C 0.25767 0.25949 0.29992 0.0
C748 C 0.2659 0.27283 0.32845 0.0
C749 C 0.25912 0.29042 0.32783 0.0
C750 C 0.23366 0.2502 0.23997 0.0
C751 C 0.2817 0.26846 0.36012 0.0
H752 H 0.25669 0.20046 0.35525 0.0
H753 H 0.2949 0.21313 0.24585 0.0
H754 H 0.24695 0.2449 0.38931 0.0
H755 H 0.2302 0.23789 0.34773 0.0
H756 H 0.23851 0.2222 0.39133 0.0
H757 H 0.29732 0.24196 0.21254 0.0
H758 H 0.27605 0.25354 0.21028 0.0
H759 H 0.29242 0.25995 0.25352 0.0
H760 H 0.22426 0.28502 0.25093 0.0
H761 H 0.26546 0.30066 0.34951 0.0
H762 H 0.22811 0.23914 0.26195 0.0
H763 H 0.24371 0.24419 0.2155 0.0
H764 H 0.2226 0.25606 0.21846 0.0
H765 H 0.27791 0.25777 0.38574 0.0
H766 H 0.28647 0.28035 0.3804 0.0
H767 H 0.293 0.26321 0.33848 0.0
C768 C 0.26263 0.71661 0.77519 0.0
C769 C 0.25169 0.70213 0.78835 0.0
C770 C 0.25594 0.73423 0.77511 0.0
C771 C 0.23793 0.73744 0.78906 0.0
C772 C 0.22671 0.72282 0.80138 0.0
C773 C 0.2337 0.70531 0.80066 0.0
C774 C 0.26829 0.74946 0.76134 0.0
C775 C 0.2075 0.72573 0.81691 0.0
C776 C 0.22971 0.78357 0.84134 0.0
C777 C 0.22204 0.79276 0.80285 0.0
C778 C 0.2343 0.76538 0.83778 0.0
C779 C 0.23138 0.7562 0.79439 0.0
C780 C 0.22309 0.76524 0.75581 0.0
C781 C 0.21839 0.78345 0.76062 0.0
C782 C 0.24285 0.75617 0.88 0.0
C783 C 0.2199 0.7559 0.70892 0.0
H784 H 0.2765 0.71419 0.7653 0.0
H785 H 0.22518 0.69414 0.8108 0.0
H786 H 0.26193 0.75788 0.73345 0.0
H787 H 0.27071 0.75822 0.79264 0.0
H788 H 0.28146 0.7446 0.74792 0.0
H789 H 0.20019 0.71287 0.82219 0.0
H790 H 0.20729 0.73334 0.85084 0.0
H791 H 0.20019 0.73387 0.79015 0.0
H792 H 0.23244 0.79072 0.87417 0.0
H793 H 0.21256 0.79057 0.73074 0.0
H794 H 0.25688 0.75238 0.87122 0.0
H795 H 0.2355 0.74362 0.88861 0.0
H796 H 0.24304 0.76486 0.91213 0.0
H797 H 0.23299 0.75244 0.69239 0.0
H798 H 0.21217 0.76439 0.68364 0.0
H799 H 0.21251 0.74314 0.71456 0.0
C800 C 0.45215 0.97813 0.55012 0.0
C801 C 0.44869 0.99469 0.52821 0.0
C802 C 0.4697 0.9713 0.55283 0.0
C803 C 0.48405 0.98116 0.53255 0.0
C804 C 0.48051 0.99757 0.50885 0.0
C805 C 0.46288 0.00422 0.5073 0.0
C806 C 0.47298 0.95388 0.57896 0.0
C807 C 0.49542 0.00838 0.48632 0.0
C808 C 0.53082 0.97706 0.58431 0.0
C809 C 0.53949 0.96615 0.55075 0.0
C810 C 0.51267 0.9816 0.57939 0.0
C811 C 0.50293 0.97519 0.53965 0.0
C812 C 0.51145 0.96378 0.50617 0.0
C813 C 0.52967 0.95931 0.51225 0.0
C814 C 0.50404 0.99364 0.61617 0.0
C815 C 0.50148 0.95679 0.46325 0.0
H816 H 0.4412 0.97073 0.56633 0.0
H817 H 0.46022 0.01695 0.48994 0.0
H818 H 0.48078 0.94448 0.55637 0.0
H819 H 0.48108 0.95652 0.61135 0.0
H820 H 0.46026 0.94722 0.58977 0.0
H821 H 0.49024 0.02004 0.46582 0.0
H822 H 0.50461 0.01344 0.51436 0.0
H823 H 0.50347 0.99978 0.46214 0.0
H824 H 0.53833 0.98231 0.61432 0.0
H825 H 0.53635 0.95092 0.48617 0.0
H826 H 0.49171 0.98724 0.63049 0.0
H827 H 0.49997 0.0065 0.59943 0.0
H828 H 0.51322 0.99666 0.6463 0.0
H829 H 0.48897 0.94988 0.47444 0.0
H830 H 0.50973 0.9473 0.44195 0.0
H831 H 0.49749 0.9682 0.44014 0.0
C832 C 0.96111 0.00476 0.09688 0.0
C833 C 0.95476 0.01862 0.06763 0.0
C834 C 0.9791 0.99922 0.09475 0.0
C835 C 0.99087 0.00746 0.06175 0.0
C836 C 0.98449 0.02141 0.03197 0.0
C837 C 0.96653 0.02699 0.03569 0.0
C838 C 0.98552 0.98459 0.12786 0.0
C839 C 0.99656 0.03026 0.9957 0.0
C840 C 0.04122 0.00435 0.08154 0.0
C841 C 0.04585 0.98987 0.05214 0.0
C842 C 0.02333 0.0101 0.08542 0.0
C843 C 0.00986 0.00141 0.05833 0.0
C844 C 0.0145 0.98687 0.02822 0.0
C845 C 0.03244 0.98112 0.02594 0.0
C846 C 0.01884 0.02536 0.11875 0.0
C847 C 0.00055 0.97751 0.99809 0.0
H848 H 0.95203 0.99834 0.1218 0.0
H849 H 0.96158 0.03762 0.01282 0.0
H850 H 0.99024 0.97287 0.10695 0.0
H851 H 0.99709 0.98946 0.14913 0.0
H852 H 0.97481 0.98001 0.1526 0.0
H853 H 0.98944 0.04072 0.97474 0.0
H854 H 0.00823 0.03656 0.01369 0.0
H855 H 0.00193 0.02 0.97083 0.0
H856 H 0.05157 0.01106 0.10205 0.0
H857 H 0.03604 0.96999 0.00295 0.0
H858 H 0.00869 0.0209 0.14514 0.0
H859 H 0.01285 0.03666 0.09852 0.0
H860 H 0.03083 0.03039 0.13815 0.0
H861 H 0.99009 0.97147 0.02119 0.0
H862 H 0.00646 0.96677 0.97557 0.0
H863 H 0.99375 0.9874 0.97467 0.0
C864 C 0.53669 0.01657 0.11162 0.0
C865 C 0.54308 0.03071 0.08341 0.0
C866 C 0.51848 0.0118 0.11119 0.0
C867 C 0.50648 0.02109 0.08086 0.0
C868 C 0.51277 0.03576 0.05338 0.0
C869 C 0.53102 0.04054 0.05543 0.0
C870 C 0.51222 0.99638 0.14194 0.0
C871 C 0.50044 0.0458 0.02003 0.0
C872 C 0.46607 0.99406 0.04024 0.0
C873 C 0.4524 0.00106 0.069 0.0
C874 C 0.48363 0.00083 0.04284 0.0
C875 C 0.48767 0.01467 0.07577 0.0
C876 C 0.47389 0.0218 0.10489 0.0
C877 C 0.45636 0.01503 0.10079 0.0
C878 C 0.4979 0.99309 0.0106 0.0
C879 C 0.47776 0.03628 0.1411 0.0
H880 H 0.54602 0.00903 0.1335 0.0
H881 H 0.53601 0.05138 0.0333 0.0
H882 H 0.50025 0.0004 0.16293 0.0
H883 H 0.5082 0.98491 0.11908 0.0
H884 H 0.52284 0.99172 0.16683 0.0
H885 H 0.50713 0.05758 0.00348 0.0
H886 H 0.49587 0.03663 0.99133 0.0
H887 H 0.48829 0.05047 0.03922 0.0
H888 H 0.46301 0.98335 0.01539 0.0
H889 H 0.44581 0.02042 0.12323 0.0
H890 H 0.50842 0.9864 0.03222 0.0
H891 H 0.50452 0.004 0.9902 0.0
H892 H 0.49234 0.98313 0.98509 0.0
H893 H 0.48765 0.03126 0.16749 0.0
H894 H 0.46548 0.04065 0.16033 0.0
H895 H 0.48384 0.04814 0.12348 0.0
C896 C 0.03781 0.99003 0.54897 0.0
C897 C 0.04158 0.00838 0.55423 0.0
C898 C 0.02003 0.98375 0.54801 0.0
C899 C 0.0057 0.99612 0.55272 0.0
C900 C 0.00943 0.01468 0.55786 0.0
C901 C 0.02735 0.0206 0.5584 0.0
C902 C 0.01659 0.96388 0.54217 0.0
C903 C 0.9945 0.02826 0.56319 0.0
C904 C 0.95897 0.98307 0.51073 0.0
C905 C 0.95054 0.97854 0.5537 0.0
C906 C 0.977 0.98857 0.50978 0.0
C907 C 0.9868 0.98963 0.55286 0.0
C908 C 0.97845 0.98477 0.59625 0.0
C909 C 0.96042 0.97923 0.59613 0.0
C910 C 0.98549 0.99352 0.46277 0.0
C911 C 0.98845 0.98575 0.64293 0.0
H912 H 0.04876 0.98052 0.5456 0.0
H913 H 0.03021 0.03479 0.56254 0.0
H914 H 0.00922 0.95867 0.57357 0.0
H915 H 0.008 0.96149 0.51054 0.0
H916 H 0.02921 0.95608 0.53802 0.0
H917 H 0.99966 0.04221 0.56655 0.0
H918 H 0.98539 0.0276 0.53201 0.0
H919 H 0.98636 0.02508 0.59517 0.0
H920 H 0.95138 0.98256 0.47783 0.0
H921 H 0.95396 0.97578 0.62947 0.0
H922 H 0.99781 0.98543 0.4569 0.0
H923 H 0.9896 0.00785 0.46329 0.0
H924 H 0.97623 0.99139 0.4323 0.0
H925 H 0.00076 0.97738 0.64126 0.0
H926 H 0.98013 0.98114 0.6734 0.0
H927 H 0.99276 0.99978 0.64976 0.0
C928 C 0.09942 0.47442 0.88669 0.0
C929 C 0.10972 0.48055 0.92516 0.0
C930 C 0.10118 0.4821 0.84139 0.0
C931 C 0.11378 0.49608 0.83413 0.0
C932 C 0.12485 0.50175 0.8723 0.0
C933 C 0.12257 0.49402 0.91756 0.0
C934 C 0.08894 0.47582 0.80187 0.0
C935 C 0.13867 0.51638 0.8657 0.0
C936 C 0.12322 0.50728 0.70441 0.0
C937 C 0.11166 0.52189 0.69708 0.0
C938 C 0.12473 0.49921 0.74948 0.0
C939 C 0.11416 0.50571 0.78771 0.0
C940 C 0.10283 0.52075 0.78068 0.0
C941 C 0.10184 0.52874 0.7356 0.0
C942 C 0.13721 0.48341 0.75586 0.0
C943 C 0.09114 0.52796 0.82027 0.0
H944 H 0.08944 0.46402 0.89234 0.0
H945 H 0.13064 0.49873 0.94714 0.0
H946 H 0.07994 0.48698 0.79098 0.0
H947 H 0.09693 0.47193 0.77021 0.0
H948 H 0.08051 0.4642 0.81269 0.0
H949 H 0.14754 0.51782 0.89724 0.0
H950 H 0.1471 0.51355 0.83401 0.0
H951 H 0.1318 0.52939 0.85939 0.0
H952 H 0.13091 0.502 0.67478 0.0
H953 H 0.09285 0.54001 0.73015 0.0
H954 H 0.12925 0.47106 0.76231 0.0
H955 H 0.14593 0.48549 0.78741 0.0
H956 H 0.14586 0.48119 0.72418 0.0
H957 H 0.08132 0.51754 0.83128 0.0
H958 H 0.08362 0.5402 0.8095 0.0
H959 H 0.09945 0.53124 0.85185 0.0
C960 C 0.73074 0.86755 0.94759 0.0
C961 C 0.73999 0.8552 0.91903 0.0
C962 C 0.73532 0.86989 0.99571 0.0
C963 C 0.74901 0.85912 0.01602 0.0
C964 C 0.75854 0.8468 0.98702 0.0
C965 C 0.75411 0.84522 0.93867 0.0
C966 C 0.7253 0.88362 0.025 0.0
C967 C 0.77288 0.83471 0.00751 0.0
C968 C 0.77182 0.86961 0.1338 0.0
C969 C 0.76224 0.85856 0.16519 0.0
C970 C 0.76703 0.87071 0.08553 0.0
C971 C 0.75279 0.85995 0.06802 0.0
C972 C 0.74287 0.84904 0.0999 0.0
C973 C 0.74753 0.84872 0.14829 0.0
C974 C 0.77751 0.883 0.05306 0.0
C975 C 0.72792 0.83698 0.08252 0.0
H976 H 0.71986 0.87533 0.93232 0.0
H977 H 0.76115 0.83553 0.91671 0.0
H978 H 0.71694 0.87672 0.05208 0.0
H979 H 0.73492 0.89236 0.04432 0.0
H980 H 0.7164 0.89219 0.00281 0.0
H981 H 0.7791 0.82594 0.9801 0.0
H982 H 0.7836 0.84285 0.02439 0.0
H983 H 0.76697 0.82607 0.03564 0.0
H984 H 0.78316 0.87729 0.14695 0.0
H985 H 0.74025 0.84001 0.17247 0.0
H986 H 0.76821 0.89135 0.03155 0.0
H987 H 0.78564 0.8749 0.02791 0.0
H988 H 0.78669 0.89201 0.07313 0.0
H989 H 0.71765 0.84496 0.06334 0.0
H990 H 0.72126 0.82963 0.11205 0.0
H991 H 0.73341 0.82702 0.05697 0.0
C992 C 0.39571 0.50537 0.19016 0.0
C993 C 0.38608 0.4905 0.17351 0.0
C994 C 0.39455 0.5107 0.23797 0.0
C995 C 0.38294 0.50132 0.26929 0.0
C996 C 0.37243 0.4869 0.25184 0.0
C997 C 0.37442 0.4814 0.20432 0.0
C998 C 0.4064 0.52579 0.25544 0.0
C999 C 0.35939 0.47702 0.2836 0.0
C1000 C 0.39483 0.50224 0.40069 0.0
C1001 C 0.38472 0.51689 0.41673 0.0
C1002 C 0.3942 0.49688 0.35284 0.0
C1003 C 0.38266 0.50599 0.3208 0.0
C1004 C 0.37166 0.52017 0.33759 0.0
C1005 C 0.37312 0.52571 0.3852 0.0
C1006 C 0.40655 0.48207 0.33612 0.0
C1007 C 0.35868 0.52974 0.30503 0.0
H1008 H 0.4049 0.51225 0.16639 0.0
H1009 H 0.36693 0.46992 0.19128 0.0
H1010 H 0.39814 0.53651 0.27186 0.0
H1011 H 0.41564 0.52067 0.28334 0.0
H1012 H 0.41456 0.5318 0.22642 0.0
H1013 H 0.35076 0.46756 0.2633 0.0
H1014 H 0.36688 0.46928 0.31085 0.0
H1015 H 0.35065 0.48672 0.30271 0.0
H1016 H 0.40396 0.49557 0.42501 0.0
H1017 H 0.36526 0.53702 0.39776 0.0
H1018 H 0.41591 0.48741 0.30882 0.0
H1019 H 0.39868 0.47116 0.31918 0.0
H1020 H 0.41458 0.47624 0.36564 0.0
H1021 H 0.36623 0.53766 0.27826 0.0
H1022 H 0.34965 0.53899 0.3248 0.0
H1023 H 0.35035 0.51985 0.28537 0.0
C1024 C 0.74862 0.1308 0.67489 0.0
C1025 C 0.73392 0.14193 0.68512 0.0
C1026 C 0.75477 0.12869 0.62798 0.0
C1027 C 0.7461 0.13807 0.59066 0.0
C1028 C 0.73055 0.14838 0.60048 0.0
C1029 C 0.72461 0.15013 0.64761 0.0
C1030 C 0.77123 0.11736 0.61886 0.0
C1031 C 0.72095 0.15865 0.56174 0.0
C1032 C 0.77455 0.1548 0.48812 0.0
C1033 C 0.76946 0.14325 0.4511 0.0
C1034 C 0.76725 0.15299 0.53377 0.0
C1035 C 0.75463 0.13919 0.54289 0.0
C1036 C 0.74978 0.12715 0.50604 0.0
C1037 C 0.7572 0.12938 0.46038 0.0
C1038 C 0.77273 0.16619 0.57198 0.0
C1039 C 0.73652 0.11216 0.51464 0.0
H1040 H 0.75579 0.12431 0.70373 0.0
H1041 H 0.71318 0.15869 0.65526 0.0
H1042 H 0.76918 0.10858 0.58744 0.0
H1043 H 0.78283 0.12624 0.61098 0.0
H1044 H 0.77472 0.10885 0.64998 0.0
H1045 H 0.70796 0.16432 0.57417 0.0
H1046 H 0.72958 0.16987 0.5494 0.0
H1047 H 0.71836 0.14985 0.53065 0.0
H1048 H 0.78401 0.16555 0.4812 0.0
H1049 H 0.75326 0.12039 0.43188 0.0
H1050 H 0.77825 0.15891 0.60316 0.0
H1051 H 0.76079 0.17381 0.58436 0.0
H1052 H 0.78298 0.17593 0.5593 0.0
H1053 H 0.74074 0.10401 0.54574 0.0
H1054 H 0.73514 0.10318 0.48328 0.0
H1055 H 0.72314 0.11789 0.52311 0.0
C1056 C 0.898 0.52563 0.23368 0.0
C1057 C 0.88773 0.51679 0.19908 0.0
C1058 C 0.89691 0.52071 0.28171 0.0
C1059 C 0.88513 0.50671 0.29549 0.0
C1060 C 0.87416 0.49824 0.26102 0.0
C1061 C 0.87566 0.50333 0.21308 0.0
C1062 C 0.90888 0.53003 0.31741 0.0
C1063 C 0.8613 0.48341 0.27453 0.0
C1064 C 0.89911 0.48228 0.40773 0.0
C1065 C 0.88885 0.49113 0.44233 0.0
C1066 C 0.89751 0.48675 0.35947 0.0
C1067 C 0.88523 0.50029 0.34553 0.0
C1068 C 0.87417 0.50862 0.38003 0.0
C1069 C 0.87617 0.504 0.42815 0.0
C1070 C 0.90959 0.4776 0.32373 0.0
C1071 C 0.86077 0.52295 0.36638 0.0
H1072 H 0.90736 0.53605 0.22305 0.0
H1073 H 0.86764 0.4965 0.18643 0.0
H1074 H 0.90073 0.53549 0.34712 0.0
H1075 H 0.91846 0.52021 0.33287 0.0
H1076 H 0.91668 0.54119 0.30125 0.0
H1077 H 0.85257 0.47934 0.24433 0.0
H1078 H 0.86898 0.47148 0.28663 0.0
H1079 H 0.85266 0.48773 0.3046 0.0
H1080 H 0.90891 0.4723 0.41852 0.0
H1081 H 0.86814 0.51081 0.45478 0.0
H1082 H 0.91904 0.48756 0.30834 0.0
H1083 H 0.90153 0.47205 0.29398 0.0
H1084 H 0.91754 0.46654 0.33988 0.0
H1085 H 0.86802 0.53515 0.35434 0.0
H1086 H 0.85188 0.5267 0.39653 0.0
H1087 H 0.85232 0.51832 0.33627 0.0
C1088 C 0.22222 0.14597 0.97106 0.0
C1089 C 0.23012 0.13727 0.93206 0.0
C1090 C 0.22975 0.14469 0.01664 0.0
C1091 C 0.24544 0.13426 0.02354 0.0
C1092 C 0.25289 0.12461 0.98484 0.0
C1093 C 0.2452 0.12634 0.93938 0.0
C1094 C 0.22147 0.15532 0.05683 0.0
C1095 C 0.26943 0.11312 0.99101 0.0
C1096 C 0.2758 0.1503 0.12305 0.0
C1097 C 0.27065 0.13912 0.16079 0.0
C1098 C 0.26801 0.14851 0.07792 0.0
C1099 C 0.25494 0.13501 0.07006 0.0
C1100 C 0.2502 0.1232 0.10752 0.0
C1101 C 0.25801 0.1255 0.15268 0.0
C1102 C 0.27329 0.16154 0.03914 0.0
C1103 C 0.23656 0.10845 0.10021 0.0
H1104 H 0.21054 0.15442 0.96567 0.0
H1105 H 0.2513 0.11951 0.90938 0.0
H1106 H 0.21899 0.14653 0.08798 0.0
H1107 H 0.23094 0.16599 0.06835 0.0
H1108 H 0.20859 0.16175 0.04637 0.0
H1109 H 0.27217 0.10473 0.95913 0.0
H1110 H 0.28126 0.12184 0.99752 0.0
H1111 H 0.26794 0.1042 0.02238 0.0
H1112 H 0.28555 0.16086 0.12913 0.0
H1113 H 0.25408 0.11676 0.18171 0.0
H1114 H 0.26142 0.16962 0.02842 0.0
H1115 H 0.27794 0.15413 0.0072 0.0
H1116 H 0.28411 0.17086 0.05058 0.0
H1117 H 0.22313 0.11443 0.0938 0.0
H1118 H 0.23565 0.09935 0.13143 0.0
H1119 H 0.24006 0.10039 0.06832 0.0
C1120 C 0.5986 0.52883 0.8737 0.0
C1121 C 0.60829 0.52186 0.91223 0.0
C1122 C 0.5998 0.52103 0.82846 0.0
C1123 C 0.61112 0.50597 0.82147 0.0
C1124 C 0.62175 0.49951 0.85958 0.0
C1125 C 0.62013 0.50748 0.90469 0.0
C1126 C 0.5882 0.5283 0.78878 0.0
C1127 C 0.63417 0.48366 0.85327 0.0
C1128 C 0.59519 0.47481 0.72378 0.0
C1129 C 0.60534 0.48073 0.68484 0.0
C1130 C 0.59752 0.48239 0.76899 0.0
C1131 C 0.61045 0.49613 0.77549 0.0
C1132 C 0.62146 0.50145 0.73693 0.0
C1133 C 0.61871 0.49374 0.69189 0.0
C1134 C 0.58545 0.47638 0.80917 0.0
C1135 C 0.63557 0.51585 0.7427 0.0
H1136 H 0.58946 0.53998 0.87928 0.0
H1137 H 0.62773 0.50209 0.93434 0.0
H1138 H 0.59648 0.53116 0.75687 0.0
H1139 H 0.57806 0.51807 0.77849 0.0
H1140 H 0.58104 0.54079 0.7992 0.0
H1141 H 0.64315 0.48175 0.88444 0.0
H1142 H 0.62612 0.47126 0.84836 0.0
H1143 H 0.64255 0.48539 0.82094 0.0
H1144 H 0.58486 0.46472 0.71858 0.0
H1145 H 0.62667 0.4983 0.66192 0.0
H1146 H 0.57654 0.48763 0.81989 0.0
H1147 H 0.59358 0.47264 0.84071 0.0
H1148 H 0.57693 0.46474 0.79908 0.0
H1149 H 0.62894 0.52905 0.74801 0.0
H1150 H 0.6445 0.51681 0.71113 0.0
H1151 H 0.64392 0.51319 0.77464 0.0
C1152 C 0.23748 0.87468 0.65275 0.0
C1153 C 0.24323 0.86071 0.6825 0.0
C1154 C 0.24415 0.87633 0.60617 0.0
C1155 C 0.25631 0.8633 0.58851 0.0
C1156 C 0.26233 0.84932 0.61878 0.0
C1157 C 0.25594 0.84838 0.66568 0.0
C1158 C 0.23792 0.89179 0.57559 0.0
C1159 C 0.27491 0.83487 0.601 0.0
C1160 C 0.25792 0.85396 0.45568 0.0
C1161 C 0.27473 0.86102 0.4434 0.0
C1162 C 0.25161 0.8549 0.50268 0.0
C1163 C 0.2621 0.86366 0.53779 0.0
C1164 C 0.27864 0.87169 0.52485 0.0
C1165 C 0.28493 0.86997 0.47795 0.0
C1166 C 0.23414 0.84573 0.51523 0.0
C1167 C 0.28991 0.8817 0.5608 0.0
H1168 H 0.22767 0.88425 0.66584 0.0
H1169 H 0.26024 0.83745 0.6885 0.0
H1170 H 0.24963 0.89869 0.55937 0.0
H1171 H 0.22946 0.88667 0.54607 0.0
H1172 H 0.22998 0.90177 0.59614 0.0
H1173 H 0.27838 0.82499 0.62915 0.0
H1174 H 0.26858 0.8276 0.57088 0.0
H1175 H 0.28751 0.84097 0.58749 0.0
H1176 H 0.25012 0.84688 0.42903 0.0
H1177 H 0.2979 0.87552 0.46834 0.0
H1178 H 0.22482 0.85537 0.53236 0.0
H1179 H 0.23673 0.83481 0.54124 0.0
H1180 H 0.22739 0.83987 0.48358 0.0
H1181 H 0.28153 0.89154 0.58046 0.0
H1182 H 0.3013 0.88893 0.54388 0.0
H1183 H 0.29543 0.87213 0.58727 0.0
C1184 C 0.62185 0.02793 0.2335 0.0
C1185 C 0.61199 0.01832 0.19955 0.0
C1186 C 0.62333 0.02162 0.28051 0.0
C1187 C 0.614 0.00584 0.29414 0.0
C1188 C 0.60412 0.99608 0.25969 0.0
C1189 C 0.60356 0.00225 0.21259 0.0
C1190 C 0.63462 0.03197 0.3157 0.0
C1191 C 0.59345 0.97956 0.27296 0.0
C1192 C 0.62299 0.97903 0.40665 0.0
C1193 C 0.60966 0.98567 0.43713 0.0
C1194 C 0.62537 0.9863 0.36094 0.0
C1195 C 0.61362 0.99998 0.34478 0.0
C1196 C 0.60039 0.00697 0.37596 0.0
C1197 C 0.5988 0.99995 0.4221 0.0
C1198 C 0.64007 0.97897 0.32947 0.0
C1199 C 0.58719 0.02111 0.35969 0.0
H1200 H 0.62841 0.04034 0.22323 0.0
H1201 H 0.59573 0.99496 0.18639 0.0
H1202 H 0.62583 0.0383 0.3428 0.0
H1203 H 0.64387 0.02274 0.33473 0.0
H1204 H 0.64266 0.04267 0.29823 0.0
H1205 H 0.58635 0.97361 0.24197 0.0
H1206 H 0.60242 0.96921 0.28844 0.0
H1207 H 0.58334 0.98305 0.30051 0.0
H1208 H 0.63145 0.96805 0.41844 0.0
H1209 H 0.58837 0.00496 0.44555 0.0
H1210 H 0.6477 0.99013 0.31278 0.0
H1211 H 0.63409 0.9709 0.30035 0.0
H1212 H 0.64959 0.97031 0.34949 0.0
H1213 H 0.59443 0.03302 0.34582 0.0
H1214 H 0.57808 0.02552 0.38875 0.0
H1215 H 0.57891 0.0157 0.33015 0.0
C1216 C 0.24679 0.37444 0.45145 0.0
C1217 C 0.23388 0.36153 0.43916 0.0
C1218 C 0.25249 0.37644 0.49878 0.0
C1219 C 0.24521 0.36513 0.53438 0.0
C1220 C 0.23154 0.35269 0.52247 0.0
C1221 C 0.22598 0.3511 0.475 0.0
C1222 C 0.26691 0.39003 0.51026 0.0
C1223 C 0.22347 0.34035 0.5594 0.0
C1224 C 0.27354 0.35184 0.64062 0.0
C1225 C 0.26543 0.36163 0.67738 0.0
C1226 C 0.26744 0.35333 0.59363 0.0
C1227 C 0.25298 0.36503 0.58309 0.0
C1228 C 0.24529 0.37559 0.61967 0.0
C1229 C 0.25156 0.3737 0.66654 0.0
C1230 C 0.27596 0.34177 0.55563 0.0
C1231 C 0.23001 0.38838 0.60963 0.0
H1232 H 0.25287 0.38261 0.42388 0.0
H1233 H 0.21597 0.34112 0.46571 0.0
H1234 H 0.26301 0.39815 0.54171 0.0
H1235 H 0.27957 0.38295 0.5193 0.0
H1236 H 0.26958 0.39922 0.47994 0.0
H1237 H 0.21207 0.33238 0.54507 0.0
H1238 H 0.23391 0.33092 0.57252 0.0
H1239 H 0.21866 0.3482 0.59042 0.0
H1240 H 0.28428 0.3425 0.64879 0.0
H1241 H 0.24529 0.38135 0.69486 0.0
H1242 H 0.28048 0.35022 0.5254 0.0
H1243 H 0.2659 0.33214 0.54157 0.0
H1244 H 0.28766 0.33405 0.56923 0.0
H1245 H 0.23335 0.39717 0.579 0.0
H1246 H 0.22679 0.39696 0.64084 0.0
H1247 H 0.21782 0.38065 0.59986 0.0
C1248 C 0.89665 0.0255 0.89585 0.0
C1249 C 0.88589 0.019 0.93301 0.0
C1250 C 0.89456 0.01916 0.84921 0.0
C1251 C 0.88111 0.00626 0.83916 0.0
C1252 C 0.86961 0.00028 0.8761 0.0
C1253 C 0.87228 0.00656 0.9228 0.0
C1254 C 0.90735 0.02565 0.81116 0.0
C1255 C 0.85484 0.98687 0.86655 0.0
C1256 C 0.87191 0.99994 0.70699 0.0
C1257 C 0.88252 0.98487 0.69678 0.0
C1258 C 0.87046 0.00651 0.75379 0.0
C1259 C 0.88021 0.99805 0.79085 0.0
C1260 C 0.89051 0.98251 0.78081 0.0
C1261 C 0.89137 0.97601 0.73404 0.0
C1262 C 0.85898 0.02283 0.7633 0.0
C1263 C 0.9014 0.97327 0.819 0.0
H1264 H 0.90723 0.03507 0.90353 0.0
H1265 H 0.86387 0.00158 0.95139 0.0
H1266 H 0.91546 0.0142 0.79782 0.0
H1267 H 0.89975 0.03113 0.7805 0.0
H1268 H 0.91664 0.03619 0.82443 0.0
H1269 H 0.84578 0.98519 0.89765 0.0
H1270 H 0.84673 0.99114 0.8354 0.0
H1271 H 0.86079 0.97361 0.85781 0.0
H1272 H 0.86495 0.00677 0.67833 0.0
H1273 H 0.89964 0.96438 0.72636 0.0
H1274 H 0.86771 0.03446 0.772 0.0
H1275 H 0.85012 0.02046 0.79443 0.0
H1276 H 0.85052 0.02644 0.73217 0.0
H1277 H 0.91192 0.98256 0.83236 0.0
H1278 H 0.90804 0.96086 0.80583 0.0
H1279 H 0.89272 0.96971 0.84963 0.0
C1280 C 0.27343 0.6499 0.97156 0.0
C1281 C 0.26394 0.63986 0.9377 0.0
C1282 C 0.26933 0.64859 0.02009 0.0
C1283 C 0.25548 0.63687 0.03514 0.0
C1284 C 0.24625 0.62623 0.0013 0.0
C1285 C 0.25055 0.6279 0.95285 0.0
C1286 C 0.27945 0.66021 0.05509 0.0
C1287 C 0.23151 0.61347 0.01614 0.0
C1288 C 0.25526 0.62657 0.16734 0.0
C1289 C 0.24282 0.6392 0.1842 0.0
C1290 C 0.25896 0.62507 0.11853 0.0
C1291 C 0.2501 0.63658 0.08603 0.0
C1292 C 0.23702 0.64886 0.10272 0.0
C1293 C 0.2335 0.64998 0.15163 0.0
C1294 C 0.27286 0.61169 0.10197 0.0
C1295 C 0.22732 0.6614 0.06917 0.0
H1296 H 0.2838 0.65915 0.96004 0.0
H1297 H 0.24321 0.62007 0.92678 0.0
H1298 H 0.27003 0.66971 0.07252 0.0
H1299 H 0.28545 0.65178 0.08348 0.0
H1300 H 0.29033 0.66807 0.03782 0.0
H1301 H 0.2266 0.60517 0.98598 0.0
H1302 H 0.23636 0.60441 0.04473 0.0
H1303 H 0.22003 0.62119 0.03079 0.0
H1304 H 0.26244 0.61815 0.1924 0.0
H1305 H 0.22384 0.65975 0.16447 0.0
H1306 H 0.28483 0.61895 0.08841 0.0
H1307 H 0.26749 0.60351 0.07219 0.0
H1308 H 0.2772 0.60254 0.13099 0.0
H1309 H 0.23708 0.67088 0.05304 0.0
H1310 H 0.2167 0.66931 0.08741 0.0
H1311 H 0.22107 0.6537 0.03971 0.0
C1312 C 0.3761 0.00383 0.90492 0.0
C1313 C 0.38776 0.98999 0.9187 0.0
C1314 C 0.37383 0.00823 0.85667 0.0
C1315 C 0.38365 0.99869 0.82168 0.0
C1316 C 0.39505 0.98438 0.83542 0.0
C1317 C 0.39688 0.98015 0.88373 0.0
C1318 C 0.36136 0.02339 0.84324 0.0
C1319 C 0.40587 0.97397 0.79924 0.0
C1320 C 0.37271 0.9995 0.68981 0.0
C1321 C 0.38573 0.01149 0.67273 0.0
C1322 C 0.37119 0.9959 0.7387 0.0
C1323 C 0.38311 0.00433 0.77098 0.0
C1324 C 0.39575 0.01702 0.75405 0.0
C1325 C 0.39683 0.02052 0.70514 0.0
C1326 C 0.35737 0.98249 0.75554 0.0
C1327 C 0.40878 0.02622 0.78728 0.0
H1328 H 0.36895 0.01142 0.93187 0.0
H1329 H 0.40591 0.96943 0.89418 0.0
H1330 H 0.36928 0.03478 0.8288 0.0
H1331 H 0.35197 0.019 0.81488 0.0
H1332 H 0.35342 0.02829 0.87409 0.0
H1333 H 0.41354 0.96276 0.8156 0.0
H1334 H 0.3969 0.96838 0.77144 0.0
H1335 H 0.4155 0.98311 0.78125 0.0
H1336 H 0.36402 0.99258 0.66488 0.0
H1337 H 0.40689 0.02984 0.69215 0.0
H1338 H 0.34973 0.98798 0.78618 0.0
H1339 H 0.36422 0.97011 0.76791 0.0
H1340 H 0.34774 0.97879 0.72696 0.0
H1341 H 0.40147 0.0326 0.81723 0.0
H1342 H 0.4169 0.03666 0.76895 0.0
H1343 H 0.41806 0.01612 0.80274 0.0
C1344 C 0.72198 0.64599 0.46858 0.0
C1345 C 0.72804 0.63494 0.43155 0.0
C1346 C 0.7278 0.64326 0.51546 0.0
C1347 C 0.73981 0.629 0.52556 0.0
C1348 C 0.74522 0.61722 0.48873 0.0
C1349 C 0.73935 0.6204 0.44201 0.0
C1350 C 0.7218 0.65618 0.55372 0.0
C1351 C 0.75778 0.60172 0.49831 0.0
C1352 C 0.77014 0.63732 0.63142 0.0
C1353 C 0.76085 0.62848 0.66793 0.0
C1354 C 0.76376 0.63702 0.58453 0.0
C1355 C 0.74781 0.62748 0.57382 0.0
C1356 C 0.7389 0.61772 0.61004 0.0
C1357 C 0.74548 0.61842 0.65683 0.0
C1358 C 0.77361 0.64767 0.54694 0.0
C1359 C 0.72201 0.60718 0.59978 0.0
H1360 H 0.71323 0.65724 0.46067 0.0
H1361 H 0.74398 0.61176 0.41349 0.0
H1362 H 0.71606 0.64873 0.58432 0.0
H1363 H 0.73355 0.66384 0.56709 0.0
H1364 H 0.71159 0.66588 0.54059 0.0
H1365 H 0.75906 0.59264 0.46712 0.0
H1366 H 0.77132 0.60695 0.50734 0.0
H1367 H 0.75302 0.59378 0.52926 0.0
H1368 H 0.78203 0.64511 0.6398 0.0
H1369 H 0.73829 0.61151 0.68494 0.0
H1370 H 0.76494 0.6588 0.53418 0.0
H1371 H 0.77669 0.63903 0.51583 0.0
H1372 H 0.78637 0.65348 0.56047 0.0
H1373 H 0.71088 0.61657 0.59143 0.0
H1374 H 0.7179 0.59869 0.63041 0.0
H1375 H 0.72396 0.59844 0.56821 0.0
C1376 C 0.12309 0.00034 0.41107 0.0
C1377 C 0.11026 0.01364 0.42077 0.0
C1378 C 0.12591 0.9942 0.3644 0.0
C1379 C 0.11545 0.00138 0.32687 0.0
C1380 C 0.10296 0.01528 0.33632 0.0
C1381 C 0.1006 0.02131 0.38312 0.0
C1382 C 0.13956 0.97958 0.35553 0.0
C1383 C 0.09145 0.02321 0.29732 0.0
C1384 C 0.12599 0.9956 0.19572 0.0
C1385 C 0.11373 0.98213 0.18296 0.0
C1386 C 0.12753 0.00131 0.24317 0.0
C1387 C 0.11638 0.99351 0.27834 0.0
C1388 C 0.10468 0.97925 0.26599 0.0
C1389 C 0.10358 0.97367 0.21846 0.0
C1390 C 0.1404 0.01631 0.25518 0.0
C1391 C 0.09248 0.97064 0.30239 0.0
H1392 H 0.13066 0.99444 0.44009 0.0
H1393 H 0.09068 0.03161 0.39041 0.0
H1394 H 0.13255 0.96697 0.34569 0.0
H1395 H 0.14842 0.98326 0.32532 0.0
H1396 H 0.14802 0.97694 0.38733 0.0
H1397 H 0.08303 0.03453 0.31019 0.0
H1398 H 0.10002 0.02811 0.26776 0.0
H1399 H 0.08248 0.01268 0.28258 0.0
H1400 H 0.13395 0.00211 0.16841 0.0
H1401 H 0.09411 0.96322 0.20881 0.0
H1402 H 0.1483 0.01292 0.28743 0.0
H1403 H 0.13272 0.02872 0.2631 0.0
H1404 H 0.14983 0.01918 0.22549 0.0
H1405 H 0.10032 0.96628 0.3339 0.0
H1406 H 0.0852 0.95883 0.28781 0.0
H1407 H 0.08244 0.98061 0.31483 0.0
C1408 C 0.73595 0.37531 0.16553 0.0
C1409 C 0.72234 0.36265 0.17363 0.0
C1410 C 0.7429 0.37809 0.11965 0.0
C1411 C 0.73621 0.3678 0.08117 0.0
C1412 C 0.72181 0.3557 0.08877 0.0
C1413 C 0.71498 0.35335 0.1349 0.0
C1414 C 0.75806 0.39132 0.11288 0.0
C1415 C 0.71438 0.34437 0.04878 0.0
C1416 C 0.74832 0.37847 0.9525 0.0
C1417 C 0.76244 0.36637 0.94445 0.0
C1418 C 0.73991 0.37951 0.99727 0.0
C1419 C 0.74564 0.368 0.03445 0.0
C1420 C 0.76011 0.35602 0.02663 0.0
C1421 C 0.76838 0.35543 0.98189 0.0
C1422 C 0.72471 0.39263 0.00455 0.0
C1423 C 0.76656 0.34341 0.06516 0.0
H1424 H 0.74161 0.38264 0.19531 0.0
H1425 H 0.70444 0.34356 0.14091 0.0
H1426 H 0.77074 0.38391 0.10605 0.0
H1427 H 0.75548 0.4 0.08154 0.0
H1428 H 0.76002 0.39998 0.14464 0.0
H1429 H 0.70208 0.33694 0.0595 0.0
H1430 H 0.71115 0.35287 0.01752 0.0
H1431 H 0.72467 0.33449 0.03736 0.0
H1432 H 0.7437 0.38697 0.92368 0.0
H1433 H 0.77926 0.34602 0.97592 0.0
H1434 H 0.72734 0.40111 0.03628 0.0
H1435 H 0.71205 0.38521 0.01128 0.0
H1436 H 0.72272 0.40152 0.97323 0.0
H1437 H 0.77056 0.35115 0.09717 0.0
H1438 H 0.77817 0.33512 0.05354 0.0
H1439 H 0.75548 0.33428 0.07585 0.0
C1440 C 0.10029 0.5291 0.38824 0.0
C1441 C 0.11006 0.52177 0.42624 0.0
C1442 C 0.10143 0.52175 0.34248 0.0
C1443 C 0.11278 0.50682 0.3343 0.0
C1444 C 0.12329 0.49983 0.37203 0.0
C1445 C 0.12171 0.50733 0.41777 0.0
C1446 C 0.08983 0.52949 0.30338 0.0
C1447 C 0.13573 0.48408 0.36443 0.0
C1448 C 0.0974 0.47657 0.2341 0.0
C1449 C 0.10779 0.48274 0.19582 0.0
C1450 C 0.09937 0.48389 0.27968 0.0
C1451 C 0.1122 0.49761 0.2874 0.0
C1452 C 0.12325 0.50343 0.24934 0.0
C1453 C 0.12083 0.49599 0.20379 0.0
C1454 C 0.08718 0.47743 0.31913 0.0
C1455 C 0.13723 0.51786 0.25646 0.0
H1456 H 0.09129 0.5403 0.3945 0.0
H1457 H 0.12938 0.50172 0.44698 0.0
H1458 H 0.09816 0.53288 0.27193 0.0
H1459 H 0.07982 0.51933 0.29187 0.0
H1460 H 0.08253 0.54175 0.31492 0.0
H1461 H 0.14442 0.48154 0.39585 0.0
H1462 H 0.12771 0.47181 0.35728 0.0
H1463 H 0.14439 0.48643 0.33291 0.0
H1464 H 0.08733 0.46629 0.22823 0.0
H1465 H 0.12897 0.50071 0.17435 0.0
H1466 H 0.07838 0.4886 0.33097 0.0
H1467 H 0.09524 0.47314 0.35031 0.0
H1468 H 0.07855 0.46603 0.30783 0.0
H1469 H 0.13052 0.53087 0.26392 0.0
H1470 H 0.14597 0.51954 0.22472 0.0
H1471 H 0.14578 0.51465 0.28765 0.0
C1472 C 0.75857 0.85932 0.64277 0.0
C1473 C 0.74442 0.86744 0.66757 0.0
C1474 C 0.76117 0.86261 0.59414 0.0
C1475 C 0.74934 0.87436 0.5698 0.0
C1476 C 0.73607 0.88387 0.59563 0.0
C1477 C 0.73375 0.88028 0.64433 0.0
C1478 C 0.77562 0.8523 0.56807 0.0
C1479 C 0.72341 0.89676 0.57127 0.0
C1480 C 0.76425 0.88319 0.44297 0.0
C1481 C 0.75549 0.8692 0.41883 0.0
C1482 C 0.76135 0.88607 0.49178 0.0
C1483 C 0.74948 0.87462 0.51684 0.0
C1484 C 0.73941 0.86156 0.49164 0.0
C1485 C 0.74251 0.85904 0.44288 0.0
C1486 C 0.77207 0.90038 0.51707 0.0
C1487 C 0.72647 0.84916 0.51689 0.0
H1488 H 0.76693 0.84947 0.66062 0.0
H1489 H 0.72278 0.88665 0.66332 0.0
H1490 H 0.76929 0.84236 0.54389 0.0
H1491 H 0.7838 0.86151 0.54586 0.0
H1492 H 0.78471 0.84502 0.59278 0.0
H1493 H 0.71656 0.90571 0.59719 0.0
H1494 H 0.73066 0.90514 0.54486 0.0
H1495 H 0.71297 0.88904 0.55188 0.0
H1496 H 0.77426 0.89116 0.42454 0.0
H1497 H 0.73561 0.84829 0.42436 0.0
H1498 H 0.78348 0.89403 0.5361 0.0
H1499 H 0.76371 0.90743 0.5439 0.0
H1500 H 0.7776 0.91043 0.49178 0.0
H1501 H 0.73409 0.83991 0.54038 0.0
H1502 H 0.71842 0.84098 0.49161 0.0
H1503 H 0.71715 0.85696 0.53971 0.0
C1504 C 0.36458 0.52146 0.69904 0.0
C1505 C 0.37758 0.51244 0.67185 0.0
C1506 C 0.36236 0.51765 0.74763 0.0
C1507 C 0.3734 0.50453 0.76936 0.0
C1508 C 0.38559 0.49448 0.74123 0.0
C1509 C 0.38753 0.49856 0.69278 0.0
C1510 C 0.3491 0.52854 0.77626 0.0
C1511 C 0.39749 0.48024 0.76294 0.0
C1512 C 0.38865 0.50861 0.89745 0.0
C1513 C 0.37902 0.49468 0.9192 0.0
C1514 C 0.38615 0.51265 0.84916 0.0
C1515 C 0.37371 0.50251 0.82202 0.0
C1516 C 0.36301 0.48933 0.84464 0.0
C1517 C 0.36579 0.48556 0.89305 0.0
C1518 C 0.39772 0.52696 0.82648 0.0
C1519 C 0.34948 0.47837 0.8171 0.0
H1520 H 0.35682 0.5322 0.68305 0.0
H1521 H 0.39756 0.49152 0.67191 0.0
H1522 H 0.34118 0.51973 0.80021 0.0
H1523 H 0.35648 0.53825 0.79894 0.0
H1524 H 0.3397 0.53617 0.75314 0.0
H1525 H 0.40503 0.47254 0.73557 0.0
H1526 H 0.40732 0.48665 0.7873 0.0
H1527 H 0.38938 0.47071 0.78434 0.0
H1528 H 0.39885 0.51574 0.91751 0.0
H1529 H 0.35827 0.47479 0.90968 0.0
H1530 H 0.3893 0.53644 0.80577 0.0
H1531 H 0.40729 0.5206 0.80132 0.0
H1532 H 0.40552 0.5347 0.85322 0.0
H1533 H 0.34123 0.48714 0.79386 0.0
H1534 H 0.34042 0.47066 0.84097 0.0
H1535 H 0.35666 0.46872 0.79376 0.0
C1536 C 0.75469 0.13385 0.17077 0.0
C1537 C 0.77251 0.13194 0.18575 0.0
C1538 C 0.75023 0.13223 0.12242 0.0
C1539 C 0.7639 0.12829 0.08885 0.0
C1540 C 0.78148 0.12431 0.10482 0.0
C1541 C 0.78564 0.12642 0.15311 0.0
C1542 C 0.73132 0.13659 0.10683 0.0
C1543 C 0.79631 0.11949 0.07048 0.0
C1544 C 0.74905 0.12303 0.96004 0.0
C1545 C 0.75146 0.14059 0.9431 0.0
C1546 C 0.75374 0.11848 0.007 0.0
C1547 C 0.76071 0.1319 0.03756 0.0
C1548 C 0.76392 0.14941 0.01979 0.0
C1549 C 0.75939 0.15348 0.97273 0.0
C1550 C 0.75052 0.09958 0.02437 0.0
C1551 C 0.77137 0.16414 0.05112 0.0
H1552 H 0.74455 0.13811 0.19607 0.0
H1553 H 0.79941 0.12469 0.16489 0.0
H1554 H 0.73117 0.14999 0.08953 0.0
H1555 H 0.72649 0.12667 0.08032 0.0
H1556 H 0.7218 0.13684 0.13727 0.0
H1557 H 0.80781 0.113 0.0889 0.0
H1558 H 0.79131 0.11033 0.04229 0.0
H1559 H 0.80128 0.13188 0.0529 0.0
H1560 H 0.74291 0.11302 0.93723 0.0
H1561 H 0.76135 0.16706 0.95979 0.0
H1562 H 0.73855 0.09938 0.04787 0.0
H1563 H 0.76211 0.09472 0.04559 0.0
H1564 H 0.74814 0.0901 0.99448 0.0
H1565 H 0.76208 0.16665 0.0813 0.0
H1566 H 0.77332 0.17695 0.03151 0.0
H1567 H 0.78448 0.15999 0.06633 0.0
C1568 C 0.87985 0.5185 0.72606 0.0
C1569 C 0.87197 0.50581 0.69586 0.0
C1570 C 0.87545 0.51902 0.77445 0.0
C1571 C 0.86282 0.50656 0.79281 0.0
C1572 C 0.8532 0.49528 0.76134 0.0
C1573 C 0.85789 0.49504 0.71295 0.0
C1574 C 0.88587 0.5315 0.80667 0.0
C1575 C 0.83924 0.48227 0.77942 0.0
C1576 C 0.87954 0.49179 0.91255 0.0
C1577 C 0.87097 0.5042 0.94226 0.0
C1578 C 0.87554 0.49107 0.86393 0.0
C1579 C 0.86266 0.5031 0.84481 0.0
C1580 C 0.8524 0.51406 0.87568 0.0
C1581 C 0.85668 0.51447 0.92434 0.0
C1582 C 0.88663 0.47892 0.83237 0.0
C1583 C 0.83816 0.52657 0.85671 0.0
H1584 H 0.89056 0.527 0.71276 0.0
H1585 H 0.85162 0.48531 0.68955 0.0
H1586 H 0.87673 0.53861 0.83146 0.0
H1587 H 0.89545 0.52355 0.82844 0.0
H1588 H 0.89362 0.54168 0.78629 0.0
H1589 H 0.83129 0.47625 0.74999 0.0
H1590 H 0.84591 0.47125 0.79927 0.0
H1591 H 0.82995 0.48906 0.80448 0.0
H1592 H 0.89041 0.48365 0.92651 0.0
H1593 H 0.8499 0.52399 0.94735 0.0
H1594 H 0.89611 0.48716 0.81108 0.0
H1595 H 0.87792 0.4715 0.80712 0.0
H1596 H 0.89454 0.46901 0.85324 0.0
H1597 H 0.84458 0.53756 0.83619 0.0
H1598 H 0.83001 0.53264 0.88568 0.0
H1599 H 0.82909 0.51931 0.83201 0.0
C1600 C 0.24406 0.12494 0.65201 0.0
C1601 C 0.23356 0.14013 0.66175 0.0
C1602 C 0.25134 0.12217 0.60641 0.0
C1603 C 0.24826 0.13507 0.57026 0.0
C1604 C 0.23743 0.15027 0.57988 0.0
C1605 C 0.23012 0.15253 0.62534 0.0
C1606 C 0.2626 0.10568 0.59714 0.0
C1607 C 0.23402 0.16449 0.54257 0.0
C1608 C 0.28124 0.14349 0.47058 0.0
C1609 C 0.2718 0.13696 0.43104 0.0
C1610 C 0.27419 0.14199 0.51658 0.0
C1611 C 0.25731 0.13362 0.52329 0.0
C1612 C 0.24823 0.12598 0.48389 0.0
C1613 C 0.25556 0.1278 0.43805 0.0
C1614 C 0.28428 0.15041 0.55755 0.0
C1615 C 0.23032 0.11673 0.4898 0.0
H1616 H 0.24662 0.11526 0.68001 0.0
H1617 H 0.22202 0.16431 0.63267 0.0
H1618 H 0.25773 0.09861 0.56486 0.0
H1619 H 0.27672 0.10968 0.59036 0.0
H1620 H 0.26237 0.09616 0.62758 0.0
H1621 H 0.22484 0.17521 0.5554 0.0
H1622 H 0.24693 0.17079 0.53192 0.0
H1623 H 0.22809 0.15833 0.51027 0.0
H1624 H 0.2939 0.15044 0.46546 0.0
H1625 H 0.24828 0.1226 0.40761 0.0
H1626 H 0.29798 0.15485 0.54712 0.0
H1627 H 0.28547 0.1408 0.58752 0.0
H1628 H 0.27673 0.16226 0.57076 0.0
H1629 H 0.23073 0.10725 0.52025 0.0
H1630 H 0.22631 0.10926 0.45728 0.0
H1631 H 0.21982 0.12689 0.49766 0.0
C1632 C 0.59848 0.52778 0.22289 0.0
C1633 C 0.60801 0.52051 0.18444 0.0
C1634 C 0.60055 0.52092 0.26885 0.0
C1635 C 0.61257 0.5065 0.27668 0.0
C1636 C 0.62313 0.49985 0.23862 0.0
C1637 C 0.62065 0.5069 0.19268 0.0
C1638 C 0.58897 0.52836 0.30839 0.0
C1639 C 0.6363 0.4847 0.2459 0.0
C1640 C 0.61895 0.49611 0.40769 0.0
C1641 C 0.60556 0.48314 0.41461 0.0
C1642 C 0.62237 0.50307 0.36208 0.0
C1643 C 0.61201 0.49698 0.323 0.0
C1644 C 0.5992 0.48316 0.32957 0.0
C1645 C 0.59619 0.47638 0.37524 0.0
C1646 C 0.63635 0.51757 0.35617 0.0
C1647 C 0.58781 0.47631 0.2889 0.0
H1648 H 0.58884 0.53846 0.21684 0.0
H1649 H 0.62819 0.50138 0.16309 0.0
H1650 H 0.57913 0.51801 0.31978 0.0
H1651 H 0.59731 0.53179 0.33978 0.0
H1652 H 0.58144 0.54055 0.29727 0.0
H1653 H 0.64556 0.48319 0.21516 0.0
H1654 H 0.64436 0.48692 0.2786 0.0
H1655 H 0.62886 0.47191 0.25056 0.0
H1656 H 0.62636 0.50122 0.43802 0.0
H1657 H 0.58597 0.46618 0.38028 0.0
H1658 H 0.6296 0.53071 0.35094 0.0
H1659 H 0.64472 0.51499 0.32422 0.0
H1660 H 0.64526 0.51861 0.38777 0.0
H1661 H 0.57868 0.48714 0.27658 0.0
H1662 H 0.57953 0.46453 0.29925 0.0
H1663 H 0.59641 0.47245 0.25835 0.0
C1664 C 0.25338 0.87245 0.95161 0.0
C1665 C 0.23788 0.86207 0.94482 0.0
C1666 C 0.2609 0.87447 0.99726 0.0
C1667 C 0.25282 0.8657 0.03659 0.0
C1668 C 0.23672 0.85592 0.03007 0.0
C1669 C 0.22942 0.85431 0.9844 0.0
C1670 C 0.2779 0.88529 0.00304 0.0
C1671 C 0.22773 0.84621 0.07087 0.0
C1672 C 0.28123 0.84823 0.13807 0.0
C1673 C 0.2763 0.85967 0.17547 0.0
C1674 C 0.27421 0.85053 0.09228 0.0
C1675 C 0.26212 0.86481 0.08337 0.0
C1676 C 0.25767 0.87691 0.12046 0.0
C1677 C 0.26471 0.87411 0.16633 0.0
C1678 C 0.27912 0.83716 0.05397 0.0
C1679 C 0.24506 0.89247 0.11204 0.0
H1680 H 0.25989 0.87859 0.92119 0.0
H1681 H 0.21735 0.84637 0.97952 0.0
H1682 H 0.27679 0.89446 0.03402 0.0
H1683 H 0.28935 0.87611 0.00996 0.0
H1684 H 0.28101 0.89335 0.9708 0.0
H1685 H 0.2146 0.84029 0.06051 0.0
H1686 H 0.2366 0.83523 0.08364 0.0
H1687 H 0.22553 0.8555 0.10115 0.0
H1688 H 0.29023 0.83707 0.14484 0.0
H1689 H 0.26101 0.88309 0.19506 0.0
H1690 H 0.28429 0.84423 0.02206 0.0
H1691 H 0.26697 0.82958 0.04297 0.0
H1692 H 0.28945 0.82739 0.06605 0.0
H1693 H 0.2491 0.89999 0.07968 0.0
H1694 H 0.24473 0.90188 0.14269 0.0
H1695 H 0.23126 0.88733 0.10592 0.0
C1696 C 0.6177 0.99337 0.70735 0.0
C1697 C 0.60775 0.97769 0.69916 0.0
C1698 C 0.61949 0.00036 0.75359 0.0
C1699 C 0.61106 0.99147 0.79219 0.0
C1700 C 0.60181 0.97514 0.78428 0.0
C1701 C 0.60029 0.96846 0.73791 0.0
C1702 C 0.62959 0.01773 0.76077 0.0
C1703 C 0.5926 0.96525 0.82438 0.0
C1704 C 0.62051 0.00339 0.92146 0.0
C1705 C 0.60582 0.0145 0.93195 0.0
C1706 C 0.62278 0.99617 0.87559 0.0
C1707 C 0.61001 0.00014 0.83973 0.0
C1708 C 0.59533 0.01158 0.85008 0.0
C1709 C 0.59344 0.01862 0.89598 0.0
C1710 C 0.63861 0.98407 0.86571 0.0
C1711 C 0.58135 0.01608 0.81294 0.0
H1712 H 0.62358 0.00049 0.67752 0.0
H1713 H 0.59272 0.95623 0.73188 0.0
H1714 H 0.61995 0.02862 0.76949 0.0
H1715 H 0.63903 0.01653 0.79113 0.0
H1716 H 0.63726 0.02172 0.72855 0.0
H1717 H 0.58744 0.95191 0.81306 0.0
H1718 H 0.60198 0.96329 0.8546 0.0
H1719 H 0.58113 0.97336 0.83763 0.0
H1720 H 0.63017 0.00026 0.94911 0.0
H1721 H 0.5821 0.02726 0.90379 0.0
H1722 H 0.6461 0.98894 0.83413 0.0
H1723 H 0.63379 0.97032 0.85742 0.0
H1724 H 0.64798 0.9833 0.8964 0.0
H1725 H 0.58788 0.02188 0.78095 0.0
H1726 H 0.57117 0.02577 0.82623 0.0
H1727 H 0.57433 0.00364 0.80161 0.0
C1728 C 0.23752 0.38785 0.16157 0.0
C1729 C 0.24806 0.37453 0.18327 0.0
C1730 C 0.2394 0.39164 0.11289 0.0
C1731 C 0.2521 0.38189 0.08576 0.0
C1732 C 0.26413 0.36998 0.10885 0.0
C1733 C 0.26193 0.36644 0.15742 0.0
C1734 C 0.22662 0.40476 0.08988 0.0
C1735 C 0.2781 0.35951 0.08141 0.0
C1736 C 0.24229 0.36401 0.96329 0.0
C1737 C 0.25501 0.37324 0.93597 0.0
C1738 C 0.24004 0.3679 0.01164 0.0
C1739 C 0.25083 0.38134 0.03307 0.0
C1740 C 0.26233 0.39196 0.00453 0.0
C1741 C 0.26431 0.38777 0.95609 0.0
C1742 C 0.22737 0.35642 0.04063 0.0
C1743 C 0.27373 0.40668 0.02574 0.0
H1744 H 0.22682 0.39424 0.18152 0.0
H1745 H 0.27025 0.35631 0.1743 0.0
H1746 H 0.23333 0.4124 0.06103 0.0
H1747 H 0.21522 0.39727 0.07392 0.0
H1748 H 0.22105 0.41437 0.11628 0.0
H1749 H 0.28769 0.35248 0.10529 0.0
H1750 H 0.27133 0.34932 0.05881 0.0
H1751 H 0.28579 0.36854 0.05754 0.0
H1752 H 0.23492 0.35291 0.94765 0.0
H1753 H 0.27411 0.39502 0.93498 0.0
H1754 H 0.21866 0.36495 0.06332 0.0
H1755 H 0.23525 0.34753 0.06453 0.0
H1756 H 0.21866 0.34787 0.01787 0.0
H1757 H 0.26637 0.41398 0.05412 0.0
H1758 H 0.27811 0.41646 0.99822 0.0
H1759 H 0.28593 0.40069 0.04195 0.0
C1760 C 0.88452 0.01028 0.42167 0.0
C1761 C 0.87415 0.99664 0.44234 0.0
C1762 C 0.88267 0.01459 0.37331 0.0
C1763 C 0.87007 0.0051 0.34509 0.0
C1764 C 0.85839 0.99255 0.36686 0.0
C1765 C 0.8606 0.98843 0.41529 0.0
C1766 C 0.89529 0.0282 0.35161 0.0
C1767 C 0.84454 0.98241 0.33828 0.0
C1768 C 0.86483 0.02246 0.21858 0.0
C1769 C 0.87761 0.01199 0.19447 0.0
C1770 C 0.86145 0.01982 0.2673 0.0
C1771 C 0.87109 0.0064 0.29228 0.0
C1772 C 0.88311 0.99505 0.26728 0.0
C1773 C 0.88622 0.99799 0.21871 0.0
C1774 C 0.84843 0.03211 0.29249 0.0
C1775 C 0.89359 0.98049 0.29245 0.0
H1776 H 0.89496 0.01675 0.44241 0.0
H1777 H 0.85244 0.97795 0.43111 0.0
H1778 H 0.90515 0.02119 0.3285 0.0
H1779 H 0.88779 0.03782 0.32896 0.0
H1780 H 0.9028 0.03587 0.37908 0.0
H1781 H 0.8345 0.97568 0.36148 0.0
H1782 H 0.8374 0.99155 0.31348 0.0
H1783 H 0.85134 0.97198 0.31655 0.0
H1784 H 0.85819 0.03338 0.20009 0.0
H1785 H 0.89608 0.98984 0.20023 0.0
H1786 H 0.85603 0.04206 0.3139 0.0
H1787 H 0.83975 0.02442 0.31728 0.0
H1788 H 0.83977 0.03955 0.26703 0.0
H1789 H 0.90301 0.98667 0.31832 0.0
H1790 H 0.90147 0.97207 0.26734 0.0
H1791 H 0.88437 0.97165 0.31275 0.0
C1792 C 0.24141 0.62805 0.64813 0.0
C1793 C 0.25305 0.61992 0.68074 0.0
C1794 C 0.2416 0.6231 0.60012 0.0
C1795 C 0.25368 0.60957 0.58463 0.0
C1796 C 0.26366 0.59968 0.61853 0.0
C1797 C 0.2633 0.60505 0.66643 0.0
C1798 C 0.23038 0.6338 0.56535 0.0
C1799 C 0.27604 0.58462 0.60391 0.0
C1800 C 0.2473 0.60399 0.4528 0.0
C1801 C 0.25862 0.61774 0.43631 0.0
C1802 C 0.24705 0.5993 0.50119 0.0
C1803 C 0.25826 0.60872 0.53327 0.0
C1804 C 0.27148 0.62067 0.51547 0.0
C1805 C 0.27152 0.62499 0.46701 0.0
C1806 C 0.23348 0.58575 0.51853 0.0
C1807 C 0.28406 0.63069 0.54828 0.0
H1808 H 0.23322 0.63934 0.65932 0.0
H1809 H 0.27219 0.59855 0.69169 0.0
H1810 H 0.2393 0.64226 0.54298 0.0
H1811 H 0.22286 0.62472 0.54127 0.0
H1812 H 0.22059 0.64272 0.58361 0.0
H1813 H 0.27776 0.57478 0.63327 0.0
H1814 H 0.27097 0.5775 0.57194 0.0
H1815 H 0.28947 0.59022 0.59536 0.0
H1816 H 0.23747 0.59809 0.42899 0.0
H1817 H 0.28054 0.63535 0.45413 0.0
H1818 H 0.22144 0.59287 0.53213 0.0
H1819 H 0.23905 0.57762 0.54814 0.0
H1820 H 0.22913 0.57663 0.48944 0.0
H1821 H 0.27634 0.64084 0.56875 0.0
H1822 H 0.2949 0.63771 0.52846 0.0
H1823 H 0.29033 0.62138 0.57418 0.0
C1824 C 0.35416 0.98663 0.18694 0.0
C1825 C 0.3676 0.99827 0.17029 0.0
C1826 C 0.34928 0.98655 0.23524 0.0
C1827 C 0.35824 0.99818 0.26717 0.0
C1828 C 0.37009 0.01146 0.24926 0.0
C1829 C 0.37452 0.01141 0.20086 0.0
C1830 C 0.33565 0.97309 0.25284 0.0
C1831 C 0.37967 0.02443 0.28194 0.0
C1832 C 0.35272 0.0048 0.3995 0.0
C1833 C 0.36737 0.99473 0.41619 0.0
C1834 C 0.34805 0.0046 0.35107 0.0
C1835 C 0.35844 0.99427 0.319 0.0
C1836 C 0.37176 0.98242 0.33682 0.0
C1837 C 0.37596 0.98272 0.38535 0.0
C1838 C 0.33319 0.01679 0.33408 0.0
C1839 C 0.38306 0.97094 0.30405 0.0
H1840 H 0.34849 0.97666 0.16319 0.0
H1841 H 0.38466 0.02066 0.18794 0.0
H1842 H 0.34212 0.96347 0.27761 0.0
H1843 H 0.32497 0.98013 0.27312 0.0
H1844 H 0.32938 0.96543 0.22328 0.0
H1845 H 0.38733 0.03479 0.26198 0.0
H1846 H 0.36993 0.03131 0.30552 0.0
H1847 H 0.3892 0.01693 0.30495 0.0
H1848 H 0.34584 0.01396 0.42333 0.0
H1849 H 0.38709 0.97469 0.39828 0.0
H1850 H 0.32698 0.01181 0.30071 0.0
H1851 H 0.33874 0.03039 0.32729 0.0
H1852 H 0.32259 0.01815 0.36167 0.0
H1853 H 0.37446 0.9634 0.27882 0.0
H1854 H 0.39149 0.96116 0.32392 0.0
H1855 H 0.39207 0.9797 0.28275 0.0
C1856 C 0.7542 0.62665 0.15406 0.0
C1857 C 0.73862 0.62105 0.17761 0.0
C1858 C 0.75689 0.62258 0.10596 0.0
C1859 C 0.74353 0.61286 0.08091 0.0
C1860 C 0.72879 0.60545 0.10591 0.0
C1861 C 0.72652 0.60961 0.15425 0.0
C1862 C 0.77304 0.6304 0.08087 0.0
C1863 C 0.71445 0.59475 0.08074 0.0
C1864 C 0.73878 0.6327 0.95849 0.0
C1865 C 0.74959 0.62119 0.9315 0.0
C1866 C 0.73541 0.6292 0.00653 0.0
C1867 C 0.74325 0.6139 0.02818 0.0
C1868 C 0.75286 0.60139 6e-05 0.0
C1869 C 0.75589 0.60517 0.95171 0.0
C1870 C 0.72473 0.64272 0.03496 0.0
C1871 C 0.76121 0.58482 0.02164 0.0
H1872 H 0.76369 0.6353 0.17231 0.0
H1873 H 0.71446 0.60516 0.17246 0.0
H1874 H 0.77927 0.62029 0.05706 0.0
H1875 H 0.76872 0.64191 0.0585 0.0
H1876 H 0.78336 0.63526 0.10636 0.0
H1877 H 0.7066 0.5864 0.10608 0.0
H1878 H 0.70503 0.60411 0.06276 0.0
H1879 H 0.72036 0.5859 0.05311 0.0
H1880 H 0.73374 0.64498 0.94263 0.0
H1881 H 0.76428 0.59625 0.93079 0.0
H1882 H 0.7338 0.64991 0.05987 0.0
H1883 H 0.71431 0.63587 0.05655 0.0
H1884 H 0.71804 0.65283 0.01188 0.0
H1885 H 0.77402 0.58854 0.03923 0.0
H1886 H 0.76419 0.57452 0.99414 0.0
H1887 H 0.7523 0.57884 0.04904 0.0
C1888 C 0.13765 0.98886 0.90363 0.0
C1889 C 0.12384 0.99846 0.92613 0.0
C1890 C 0.14095 0.99101 0.85477 0.0
C1891 C 0.13016 0.00304 0.82824 0.0
C1892 C 0.11764 0.01421 0.85203 0.0
C1893 C 0.11462 0.01176 0.90077 0.0
C1894 C 0.15471 0.97913 0.83098 0.0
C1895 C 0.10605 0.02745 0.82523 0.0
C1896 C 0.13475 0.01538 0.69815 0.0
C1897 C 0.12086 0.00504 0.67841 0.0
C1898 C 0.13912 0.01389 0.74661 0.0
C1899 C 0.12936 0.00178 0.77555 0.0
C1900 C 0.11658 0.99009 0.75458 0.0
C1901 C 0.11247 0.9919 0.70622 0.0
C1902 C 0.15307 0.02634 0.7674 0.0
C1903 C 0.10604 0.97677 0.78401 0.0
H1904 H 0.14491 0.9786 0.92317 0.0
H1905 H 0.10408 0.01936 0.91823 0.0
H1906 H 0.14786 0.96733 0.81511 0.0
H1907 H 0.16173 0.98638 0.80193 0.0
H1908 H 0.16483 0.97413 0.85686 0.0
H1909 H 0.09861 0.03657 0.84954 0.0
H1910 H 0.11433 0.0357 0.80078 0.0
H1911 H 0.09613 0.02001 0.80328 0.0
H1912 H 0.1413 0.02556 0.67671 0.0
H1913 H 0.10185 0.98378 0.69088 0.0
H1914 H 0.16126 0.01936 0.79471 0.0
H1915 H 0.14626 0.03782 0.78496 0.0
H1916 H 0.16213 0.03179 0.73951 0.0
H1917 H 0.11521 0.96863 0.80645 0.0
H1918 H 0.09794 0.96752 0.7616 0.0
H1919 H 0.09681 0.9841 0.80818 0.0
C1920 C 0.77876 0.3697 0.63594 0.0
C1921 C 0.76678 0.37181 0.67402 0.0
C1922 C 0.77271 0.3702 0.58879 0.0
C1923 C 0.75421 0.37278 0.57958 0.0
C1924 C 0.7423 0.37639 0.61775 0.0
C1925 C 0.74875 0.3759 0.66471 0.0
C1926 C 0.7859 0.36644 0.54918 0.0
C1927 C 0.72249 0.37932 0.60929 0.0
C1928 C 0.73912 0.3776 0.45071 0.0
C1929 C 0.7341 0.35989 0.44011 0.0
C1930 C 0.74552 0.38217 0.49623 0.0
C1931 C 0.74701 0.36866 0.5315 0.0
C1932 C 0.74208 0.35076 0.52067 0.0
C1933 C 0.73565 0.34663 0.47522 0.0
C1934 C 0.75059 0.40139 0.5067 0.0
C1935 C 0.74363 0.33589 0.55709 0.0
H1936 H 0.79279 0.3668 0.643 0.0
H1937 H 0.73948 0.37764 0.69409 0.0
H1938 H 0.78368 0.35264 0.53544 0.0
H1939 H 0.78385 0.37587 0.51912 0.0
H1940 H 0.80006 0.3675 0.56141 0.0
H1941 H 0.71565 0.38482 0.64127 0.0
H1942 H 0.72031 0.38863 0.57901 0.0
H1943 H 0.71608 0.36633 0.59998 0.0
H1944 H 0.73781 0.38791 0.42369 0.0
H1945 H 0.73181 0.33291 0.4672 0.0
H1946 H 0.76487 0.40214 0.51783 0.0
H1947 H 0.7424 0.40656 0.5367 0.0
H1948 H 0.74861 0.41031 0.47544 0.0
H1949 H 0.75779 0.33455 0.56888 0.0
H1950 H 0.73909 0.32271 0.54298 0.0
H1951 H 0.73547 0.3392 0.58893 0.0
C1952 C 0.14078 0.41387 0.09378 0.0
C1953 C 0.12195 0.4142 0.09342 0.0
C1954 C 0.15018 0.40073 0.11932 0.0
C1955 C 0.14051 0.38748 0.14487 0.0
C1956 C 0.12154 0.38686 0.14146 0.0
C1957 C 0.11244 0.40031 0.11588 0.0
C1958 C 0.17045 0.40182 0.12168 0.0
C1959 C 0.11079 0.3727 0.16723 0.0
C1960 C 0.17117 0.35122 0.19341 0.0
C1961 C 0.17541 0.35833 0.23827 0.0
C1962 C 0.1586 0.35975 0.16372 0.0
C1963 C 0.15029 0.37582 0.17919 0.0
C1964 C 0.15341 0.38215 0.22601 0.0
C1965 C 0.16587 0.37326 0.25508 0.0
C1966 C 0.15534 0.35233 0.11451 0.0
C1967 C 0.1448 0.39922 0.24401 0.0
H1968 H 0.14822 0.42449 0.07618 0.0
H1969 H 0.09788 0.40045 0.11555 0.0
H1970 H 0.17466 0.4053 0.15843 0.0
H1971 H 0.17653 0.38863 0.11288 0.0
H1972 H 0.17599 0.41207 0.09699 0.0
H1973 H 0.09671 0.37205 0.15422 0.0
H1974 H 0.11708 0.35928 0.163 0.0
H1975 H 0.11053 0.37582 0.20581 0.0
H1976 H 0.17842 0.3396 0.18029 0.0
H1977 H 0.16902 0.37876 0.2898 0.0
H1978 H 0.16307 0.36031 0.08821 0.0
H1979 H 0.14092 0.35331 0.10479 0.0
H1980 H 0.15965 0.33808 0.11161 0.0
H1981 H 0.15041 0.41089 0.22442 0.0
H1982 H 0.14716 0.40131 0.28265 0.0
H1983 H 0.13011 0.39901 0.23747 0.0
C1984 C 0.89012 0.9093 0.47665 0.0
C1985 C 0.87947 0.91864 0.50958 0.0
C1986 C 0.88261 0.89603 0.44716 0.0
C1987 C 0.86401 0.89224 0.45042 0.0
C1988 C 0.85355 0.90064 0.48617 0.0
C1989 C 0.86145 0.91366 0.51549 0.0
C1990 C 0.8943 0.88703 0.41035 0.0
C1991 C 0.83366 0.89698 0.491 0.0
C1992 C 0.83571 0.88146 0.34265 0.0
C1993 C 0.83056 0.86371 0.35209 0.0
C1994 C 0.84767 0.89053 0.37272 0.0
C1995 C 0.85482 0.88155 0.41291 0.0
C1996 C 0.85102 0.86311 0.41999 0.0
C1997 C 0.83882 0.8544 0.38957 0.0
C1998 C 0.85139 0.9102 0.36369 0.0
C1999 C 0.85875 0.85294 0.46168 0.0
H2000 H 0.90411 0.913 0.47214 0.0
H2001 H 0.85316 0.92074 0.54109 0.0
H2002 H 0.89115 0.87249 0.40775 0.0
H2003 H 0.89168 0.8931 0.37499 0.0
H2004 H 0.90882 0.88862 0.41855 0.0
H2005 H 0.82781 0.90341 0.52312 0.0
H2006 H 0.82651 0.90219 0.45921 0.0
H2007 H 0.8311 0.88232 0.49287 0.0
H2008 H 0.82948 0.88869 0.31353 0.0
H2009 H 0.83498 0.84063 0.3969 0.0
H2010 H 0.86603 0.91291 0.3651 0.0
H2011 H 0.84493 0.91839 0.3919 0.0
H2012 H 0.84619 0.91472 0.32864 0.0
H2013 H 0.87308 0.85646 0.4672 0.0
H2014 H 0.85761 0.83818 0.45675 0.0
H2015 H 0.85135 0.85667 0.4945 0.0
C2016 C 0.38707 0.59938 0.61727 0.0
C2017 C 0.37735 0.58792 0.58717 0.0
C2018 C 0.37823 0.61259 0.64438 0.0
C2019 C 0.35929 0.61403 0.64182 0.0
C2020 C 0.34967 0.60351 0.60844 0.0
C2021 C 0.35885 0.59071 0.58125 0.0
C2022 C 0.38903 0.62405 0.67816 0.0
C2023 C 0.32944 0.60461 0.60438 0.0
C2024 C 0.33084 0.62343 0.75016 0.0
C2025 C 0.32292 0.63986 0.73793 0.0
C2026 C 0.34372 0.61543 0.72062 0.0
C2027 C 0.34909 0.62429 0.67834 0.0
C2028 C 0.34249 0.64172 0.66836 0.0
C2029 C 0.32928 0.64924 0.69805 0.0
C2030 C 0.35031 0.59676 0.73255 0.0
C2031 C 0.34834 0.65187 0.62457 0.0
H2032 H 0.4014 0.59741 0.62166 0.0
H2033 H 0.35128 0.58202 0.55767 0.0
H2034 H 0.38394 0.63807 0.6785 0.0
H2035 H 0.38772 0.61865 0.71478 0.0
H2036 H 0.40351 0.62418 0.66859 0.0
H2037 H 0.3242 0.59669 0.57388 0.0
H2038 H 0.32321 0.5994 0.63752 0.0
H2039 H 0.32507 0.61875 0.60011 0.0
H2040 H 0.32604 0.61615 0.78105 0.0
H2041 H 0.32331 0.66204 0.68863 0.0
H2042 H 0.36517 0.59616 0.73078 0.0
H2043 H 0.34498 0.58706 0.70606 0.0
H2044 H 0.34598 0.59235 0.76854 0.0
H2045 H 0.34562 0.66649 0.62802 0.0
H2046 H 0.34082 0.64681 0.59324 0.0
H2047 H 0.36287 0.64987 0.61753 0.0
C2048 C 0.67192 0.1497 0.9314 0.0
C2049 C 0.67567 0.14354 0.88527 0.0
C2050 C 0.66014 0.14022 0.9613 0.0
C2051 C 0.6519 0.12431 0.94445 0.0
C2052 C 0.65446 0.11895 0.89656 0.0
C2053 C 0.66636 0.12862 0.86757 0.0
C2054 C 0.65769 0.14644 0.012 0.0
C2055 C 0.64572 0.1022 0.87697 0.0
C2056 C 0.64372 0.08459 0.02553 0.0
C2057 C 0.62496 0.08468 0.02956 0.0
C2058 C 0.65272 0.09807 0.00017 0.0
C2059 C 0.64269 0.11191 0.97802 0.0
C2060 C 0.62385 0.11271 0.98451 0.0
C2061 C 0.61518 0.09906 0.01039 0.0
C2062 C 0.67288 0.09687 0.99474 0.0
C2063 C 0.61272 0.12731 0.96172 0.0
H2064 H 0.67906 0.16126 0.94528 0.0
H2065 H 0.66912 0.12388 0.83183 0.0
H2066 H 0.64341 0.14543 0.02292 0.0
H2067 H 0.66561 0.13766 0.03604 0.0
H2068 H 0.66228 0.16051 0.01704 0.0
H2069 H 0.64733 0.10109 0.83778 0.0
H2070 H 0.65188 0.09019 0.89372 0.0
H2071 H 0.63118 0.10202 0.88559 0.0
H2072 H 0.65135 0.07356 0.04058 0.0
H2073 H 0.60066 0.09917 0.01337 0.0
H2074 H 0.67924 0.10989 0.00397 0.0
H2075 H 0.67629 0.09389 0.95712 0.0
H2076 H 0.67882 0.08622 0.01753 0.0
H2077 H 0.61899 0.14065 0.96734 0.0
H2078 H 0.59879 0.12761 0.97592 0.0
H2079 H 0.61205 0.12498 0.92277 0.0
C2080 C 0.18597 0.64752 0.44056 0.0
C2081 C 0.18884 0.64127 0.39407 0.0
C2082 C 0.17293 0.63959 0.46995 0.0
C2083 C 0.16272 0.62497 0.45249 0.0
C2084 C 0.16464 0.61955 0.40443 0.0
C2085 C 0.17761 0.62785 0.37572 0.0
C2086 C 0.17108 0.64601 0.52064 0.0
C2087 C 0.15405 0.60398 0.38437 0.0
C2088 C 0.14961 0.58622 0.53213 0.0
C2089 C 0.13086 0.58796 0.53368 0.0
C2090 C 0.16025 0.59882 0.50813 0.0
C2091 C 0.15194 0.61365 0.4855 0.0
C2092 C 0.13319 0.61628 0.49027 0.0
C2093 C 0.12281 0.60332 0.51414 0.0
C2094 C 0.18024 0.59555 0.50418 0.0
C2095 C 0.12395 0.6322 0.4678 0.0
H2096 H 0.19456 0.65796 0.45492 0.0
H2097 H 0.17971 0.62301 0.33977 0.0
H2098 H 0.15681 0.64596 0.53206 0.0
H2099 H 0.17858 0.63682 0.54454 0.0
H2100 H 0.17661 0.65976 0.52527 0.0
H2101 H 0.15589 0.60254 0.34533 0.0
H2102 H 0.15845 0.59133 0.40175 0.0
H2103 H 0.13952 0.60567 0.39189 0.0
H2104 H 0.15594 0.57446 0.5475 0.0
H2105 H 0.10833 0.60479 0.51547 0.0
H2106 H 0.18782 0.6077 0.51498 0.0
H2107 H 0.18379 0.59263 0.46661 0.0
H2108 H 0.18475 0.58409 0.52653 0.0
H2109 H 0.13163 0.64472 0.47467 0.0
H2110 H 0.11002 0.63393 0.48129 0.0
H2111 H 0.12334 0.6303 0.42869 0.0
C2112 C 0.63837 0.90969 0.58941 0.0
C2113 C 0.61957 0.91058 0.58895 0.0
C2114 C 0.64732 0.89588 0.61357 0.0
C2115 C 0.63721 0.88262 0.63785 0.0
C2116 C 0.61824 0.8826 0.63415 0.0
C2117 C 0.6096 0.89664 0.60972 0.0
C2118 C 0.66761 0.8963 0.61606 0.0
C2119 C 0.60701 0.8685 0.65872 0.0
C2120 C 0.66696 0.84532 0.68445 0.0
C2121 C 0.67157 0.85218 0.72933 0.0
C2122 C 0.65447 0.85426 0.65538 0.0
C2123 C 0.64656 0.87042 0.67163 0.0
C2124 C 0.64989 0.87639 0.71867 0.0
C2125 C 0.66232 0.86715 0.74701 0.0
C2126 C 0.65099 0.84724 0.60587 0.0
C2127 C 0.6416 0.89348 0.73762 0.0
H2128 H 0.64614 0.92034 0.573 0.0
H2129 H 0.59505 0.89723 0.60934 0.0
H2130 H 0.6719 0.8994 0.65298 0.0
H2131 H 0.67327 0.88298 0.60664 0.0
H2132 H 0.67349 0.90654 0.59189 0.0
H2133 H 0.59303 0.86823 0.64488 0.0
H2134 H 0.61304 0.85497 0.65435 0.0
H2135 H 0.60648 0.87144 0.69739 0.0
H2136 H 0.67398 0.83367 0.67066 0.0
H2137 H 0.66571 0.87242 0.78184 0.0
H2138 H 0.65899 0.85512 0.57993 0.0
H2139 H 0.63662 0.84872 0.59616 0.0
H2140 H 0.65486 0.83288 0.60241 0.0
H2141 H 0.64755 0.90519 0.71892 0.0
H2142 H 0.64391 0.89515 0.77642 0.0
H2143 H 0.62693 0.89366 0.7308 0.0
C2144 C 0.33648 0.35354 0.90261 0.0
C2145 C 0.32886 0.36188 0.86265 0.0
C2146 C 0.34971 0.3623 0.92974 0.0
C2147 C 0.3551 0.3799 0.91701 0.0
C2148 C 0.34858 0.38766 0.87436 0.0
C2149 C 0.33567 0.37847 0.84746 0.0
C2150 C 0.35681 0.3533 0.97399 0.0
C2151 C 0.35391 0.40642 0.85944 0.0
C2152 C 0.36375 0.41533 0.01034 0.0
C2153 C 0.38203 0.419 0.00339 0.0
C2154 C 0.35507 0.40179 0.98449 0.0
C2155 C 0.365 0.39141 0.95145 0.0
C2156 C 0.38381 0.39391 0.94755 0.0
C2157 C 0.39211 0.40784 0.97329 0.0
C2158 C 0.33496 0.39964 0.98983 0.0
C2159 C 0.39496 0.38271 0.91396 0.0
H2160 H 0.3314 0.34063 0.91429 0.0
H2161 H 0.32994 0.38494 0.81642 0.0
H2162 H 0.37137 0.35602 0.9786 0.0
H2163 H 0.34973 0.35873 0.0056 0.0
H2164 H 0.35466 0.33854 0.973 0.0
H2165 H 0.34901 0.40981 0.82319 0.0
H2166 H 0.34821 0.41629 0.88491 0.0
H2167 H 0.36872 0.40796 0.86014 0.0
H2168 H 0.3559 0.4238 0.03385 0.0
H2169 H 0.40629 0.41052 0.96804 0.0
H2170 H 0.33149 0.38538 0.99657 0.0
H2171 H 0.32821 0.40369 0.95628 0.0
H2172 H 0.32945 0.40791 0.0193 0.0
H2173 H 0.39067 0.36844 0.91486 0.0
H2174 H 0.40949 0.38348 0.92268 0.0
H2175 H 0.39307 0.38766 0.87706 0.0
C2176 C 0.84203 0.11608 0.296 0.0
C2177 C 0.83958 0.13468 0.29189 0.0
C2178 C 0.85476 0.1071 0.26798 0.0
C2179 C 0.86542 0.11705 0.23559 0.0
C2180 C 0.86445 0.13603 0.23539 0.0
C2181 C 0.85143 0.14466 0.26347 0.0
C2182 C 0.85548 0.08682 0.26969 0.0
C2183 C 0.87598 0.14713 0.20247 0.0
C2184 C 0.89999 0.08825 0.17239 0.0
C2185 C 0.89019 0.08271 0.13234 0.0
C2186 C 0.8927 0.10061 0.20487 0.0
C2187 C 0.87516 0.10735 0.19722 0.0
C2188 C 0.86586 0.10291 0.15483 0.0
C2189 C 0.87355 0.09072 0.12277 0.0
C2190 C 0.90324 0.10536 0.24897 0.0
C2191 C 0.84713 0.10986 0.14511 0.0
H2192 H 0.83304 0.10831 0.31829 0.0
H2193 H 0.84972 0.15908 0.26046 0.0
H2194 H 0.84971 0.08125 0.23639 0.0
H2195 H 0.86957 0.08209 0.27217 0.0
H2196 H 0.84781 0.08127 0.30027 0.0
H2197 H 0.87648 0.16143 0.21371 0.0
H2198 H 0.88988 0.14177 0.20096 0.0
H2199 H 0.87035 0.14655 0.16596 0.0
H2200 H 0.91293 0.08217 0.17985 0.0
H2201 H 0.86595 0.08658 0.09174 0.0
H2202 H 0.89818 0.09734 0.27941 0.0
H2203 H 0.90156 0.11976 0.25813 0.0
H2204 H 0.91778 0.10245 0.24455 0.0
H2205 H 0.83761 0.10402 0.17129 0.0
H2206 H 0.8424 0.10638 0.10877 0.0
H2207 H 0.84666 0.12467 0.14922 0.0
C2208 C 0.86822 0.58317 0.01892 0.0
C2209 C 0.88446 0.57587 0.00265 0.0
C2210 C 0.85816 0.59485 0.9903 0.0
C2211 C 0.86469 0.59963 0.94469 0.0
C2212 C 0.88197 0.59384 0.93026 0.0
C2213 C 0.89161 0.58186 0.95929 0.0
C2214 C 0.83975 0.60062 0.00706 0.0
C2215 C 0.88966 0.59907 0.88257 0.0
C2216 C 0.82746 0.60454 0.85406 0.0
C2217 C 0.82415 0.62307 0.85531 0.0
C2218 C 0.84122 0.59688 0.88132 0.0
C2219 C 0.85221 0.60807 0.90986 0.0
C2220 C 0.84983 0.62693 0.90845 0.0
C2221 C 0.83566 0.63423 0.88155 0.0
C2222 C 0.8432 0.57666 0.88187 0.0
C2223 C 0.86164 0.63933 0.93718 0.0
H2224 H 0.86265 0.57867 0.05251 0.0
H2225 H 0.90424 0.57639 0.94665 0.0
H2226 H 0.8379 0.61527 0.00199 0.0
H2227 H 0.82933 0.59369 0.98557 0.0
H2228 H 0.83746 0.59737 0.04516 0.0
H2229 H 0.90443 0.59701 0.88129 0.0
H2230 H 0.88345 0.59069 0.85436 0.0
H2231 H 0.88666 0.61333 0.87427 0.0
H2232 H 0.81866 0.59584 0.83374 0.0
H2233 H 0.83323 0.64858 0.88239 0.0
H2234 H 0.84033 0.57146 0.91808 0.0
H2235 H 0.85718 0.57279 0.87287 0.0
H2236 H 0.83396 0.56998 0.85638 0.0
H2237 H 0.85784 0.6385 0.97527 0.0
H2238 H 0.8603 0.65353 0.92556 0.0
H2239 H 0.87595 0.63527 0.93426 0.0
C2240 C 0.12151 0.0848 0.59997 0.0
C2241 C 0.10638 0.07564 0.61702 0.0
C2242 C 0.13076 0.09705 0.62886 0.0
C2243 C 0.12459 0.10034 0.67574 0.0
C2244 C 0.10832 0.09248 0.6914 0.0
C2245 C 0.09942 0.08013 0.66187 0.0
C2246 C 0.14803 0.10518 0.61064 0.0
C2247 C 0.10107 0.09595 0.7407 0.0
C2248 C 0.16309 0.10846 0.76071 0.0
C2249 C 0.16401 0.12727 0.76135 0.0
C2250 C 0.14961 0.09953 0.73522 0.0
C2251 C 0.13663 0.10968 0.70998 0.0
C2252 C 0.13663 0.12865 0.7136 0.0
C2253 C 0.15041 0.13726 0.73915 0.0
C2254 C 0.15003 0.07925 0.73264 0.0
C2255 C 0.12277 0.13989 0.68814 0.0
H2256 H 0.12689 0.08147 0.56522 0.0
H2257 H 0.08765 0.07318 0.67518 0.0
H2258 H 0.14829 0.11985 0.6174 0.0
H2259 H 0.15958 0.09916 0.6299 0.0
H2260 H 0.14993 0.10284 0.57193 0.0
H2261 H 0.08668 0.09214 0.74366 0.0
H2262 H 0.1088 0.08789 0.76685 0.0
H2263 H 0.10257 0.1103 0.75056 0.0
H2264 H 0.17348 0.10065 0.77814 0.0
H2265 H 0.15101 0.15181 0.73971 0.0
H2266 H 0.15323 0.07498 0.69576 0.0
H2267 H 0.13669 0.07359 0.74177 0.0
H2268 H 0.1602 0.07334 0.75698 0.0
H2269 H 0.12582 0.14011 0.64951 0.0
H2270 H 0.12262 0.15397 0.7013 0.0
H2271 H 0.10916 0.13404 0.6925 0.0
C2272 C 0.65509 0.38094 0.35188 0.0
C2273 C 0.66022 0.36304 0.35885 0.0
C2274 C 0.64227 0.38908 0.38134 0.0
C2275 C 0.63445 0.37907 0.41889 0.0
C2276 C 0.63845 0.36057 0.42358 0.0
C2277 C 0.65132 0.35273 0.39336 0.0
C2278 C 0.63819 0.4088 0.37455 0.0
C2279 C 0.63026 0.34938 0.46273 0.0
C2280 C 0.62513 0.40994 0.5224 0.0
C2281 C 0.60717 0.41462 0.51417 0.0
C2282 C 0.63377 0.39709 0.49407 0.0
C2283 C 0.62422 0.38877 0.45646 0.0
C2284 C 0.6056 0.39212 0.45107 0.0
C2285 C 0.59725 0.40504 0.48014 0.0
C2286 C 0.65358 0.39369 0.50165 0.0
C2287 C 0.59487 0.38333 0.41195 0.0
H2288 H 0.66182 0.38892 0.32496 0.0
H2289 H 0.65523 0.33886 0.3989 0.0
H2290 H 0.62347 0.41112 0.37442 0.0
H2291 H 0.64392 0.41658 0.40461 0.0
H2292 H 0.6439 0.41413 0.34086 0.0
H2293 H 0.63173 0.33477 0.45568 0.0
H2294 H 0.63709 0.35249 0.49684 0.0
H2295 H 0.6158 0.35255 0.46724 0.0
H2296 H 0.6328 0.41718 0.54901 0.0
H2297 H 0.58334 0.40858 0.47366 0.0
H2298 H 0.66133 0.39989 0.47217 0.0
H2299 H 0.65646 0.37908 0.50135 0.0
H2300 H 0.65846 0.39942 0.53579 0.0
H2301 H 0.59783 0.39012 0.37769 0.0
H2302 H 0.58019 0.38429 0.41864 0.0
H2303 H 0.59859 0.36898 0.40801 0.0
C2304 C 0.40173 0.92873 0.17387 0.0
C2305 C 0.39466 0.93109 0.12802 0.0
C2306 C 0.39439 0.91596 0.20511 0.0
C2307 C 0.37955 0.9055 0.19012 0.0
C2308 C 0.37347 0.90672 0.14246 0.0
C2309 C 0.38118 0.91945 0.11192 0.0
C2310 C 0.40153 0.91481 0.25525 0.0
C2311 C 0.35768 0.89582 0.12494 0.0
C2312 C 0.35759 0.8673 0.25816 0.0
C2313 C 0.34258 0.87609 0.27737 0.0
C2314 C 0.37065 0.87691 0.23246 0.0
C2315 C 0.36843 0.89562 0.22543 0.0
C2316 C 0.354 0.90469 0.2478 0.0
C2317 C 0.34134 0.89483 0.27376 0.0
C2318 C 0.38617 0.86689 0.21038 0.0
C2319 C 0.35113 0.92465 0.24146 0.0
H2320 H 0.41225 0.93762 0.18647 0.0
H2321 H 0.37574 0.92111 0.0764 0.0
H2322 H 0.39289 0.92294 0.27916 0.0
H2323 H 0.40137 0.90076 0.26841 0.0
H2324 H 0.41546 0.92011 0.2577 0.0
H2325 H 0.35588 0.89691 0.08581 0.0
H2326 H 0.35938 0.88146 0.13432 0.0
H2327 H 0.34522 0.90063 0.1425 0.0
H2328 H 0.35869 0.85283 0.26113 0.0
H2329 H 0.32987 0.90173 0.28894 0.0
H2330 H 0.39886 0.87455 0.21455 0.0
H2331 H 0.38372 0.86521 0.1717 0.0
H2332 H 0.38791 0.85335 0.22638 0.0
H2333 H 0.36348 0.93213 0.25105 0.0
H2334 H 0.33985 0.92977 0.26352 0.0
H2335 H 0.34814 0.92761 0.20358 0.0
C2336 C 0.84726 0.37385 0.77144 0.0
C2337 C 0.83242 0.38321 0.78971 0.0
C2338 C 0.86122 0.38299 0.74804 0.0
C2339 C 0.86014 0.40186 0.74238 0.0
C2340 C 0.84589 0.41147 0.76403 0.0
C2341 C 0.83227 0.40202 0.78767 0.0
C2342 C 0.87649 0.37236 0.72673 0.0
C2343 C 0.84428 0.43162 0.75914 0.0
C2344 C 0.89678 0.43266 0.69636 0.0
C2345 C 0.89089 0.43565 0.64959 0.0
C2346 C 0.88775 0.42054 0.72629 0.0
C2347 C 0.87239 0.41141 0.70908 0.0
C2348 C 0.8673 0.41333 0.66076 0.0
C2349 C 0.8767 0.42535 0.63152 0.0
C2350 C 0.89384 0.41863 0.77724 0.0
C2351 C 0.85099 0.40385 0.64091 0.0
H2352 H 0.84752 0.3593 0.7732 0.0
H2353 H 0.82091 0.40936 0.80202 0.0
H2354 H 0.87469 0.37149 0.68762 0.0
H2355 H 0.88953 0.37912 0.73346 0.0
H2356 H 0.87709 0.35848 0.74123 0.0
H2357 H 0.83318 0.43719 0.78108 0.0
H2358 H 0.85699 0.43826 0.76979 0.0
H2359 H 0.84173 0.43514 0.72136 0.0
H2360 H 0.90781 0.44053 0.71053 0.0
H2361 H 0.87212 0.42755 0.59537 0.0
H2362 H 0.89251 0.40454 0.78962 0.0
H2363 H 0.88529 0.42714 0.80041 0.0
H2364 H 0.90802 0.42297 0.78182 0.0
H2365 H 0.85151 0.3893 0.64922 0.0
H2366 H 0.8498 0.4055 0.60175 0.0
H2367 H 0.83868 0.40936 0.65778 0.0
C2368 C 0.37389 0.07576 0.47965 0.0
C2369 C 0.38878 0.06567 0.46502 0.0
C2370 C 0.36637 0.08884 0.44987 0.0
C2371 C 0.37411 0.09208 0.40462 0.0
C2372 C 0.39013 0.08311 0.39151 0.0
C2373 C 0.39722 0.06987 0.42179 0.0
C2374 C 0.34926 0.0981 0.4653 0.0
C2375 C 0.39906 0.0865 0.34418 0.0
C2376 C 0.33822 0.10465 0.31602 0.0
C2377 C 0.33835 0.12344 0.31932 0.0
C2378 C 0.35078 0.09424 0.34083 0.0
C2379 C 0.36391 0.10288 0.36926 0.0
C2380 C 0.36526 0.12184 0.36877 0.0
C2381 C 0.35236 0.13195 0.34391 0.0
C2382 C 0.34896 0.07402 0.33995 0.0
C2383 C 0.37943 0.1315 0.39738 0.0
H2384 H 0.36736 0.07265 0.51314 0.0
H2385 H 0.40882 0.06218 0.41041 0.0
H2386 H 0.3505 0.11285 0.46093 0.0
H2387 H 0.33797 0.09356 0.44248 0.0
H2388 H 0.34581 0.09518 0.50297 0.0
H2389 H 0.4133 0.08202 0.34429 0.0
H2390 H 0.39186 0.07893 0.31603 0.0
H2391 H 0.39856 0.10096 0.33467 0.0
H2392 H 0.32754 0.09799 0.29657 0.0
H2393 H 0.35262 0.14649 0.34627 0.0
H2394 H 0.34435 0.06922 0.3753 0.0
H2395 H 0.36213 0.06762 0.33267 0.0
H2396 H 0.33919 0.06939 0.31269 0.0
H2397 H 0.37553 0.13151 0.43548 0.0
H2398 H 0.38105 0.14566 0.3857 0.0
H2399 H 0.39258 0.12456 0.39447 0.0
C2400 C 0.63607 0.58888 0.08047 0.0
C2401 C 0.61728 0.58785 0.07898 0.0
C2402 C 0.64477 0.6022 0.10706 0.0
C2403 C 0.63441 0.61501 0.13227 0.0
C2404 C 0.61547 0.61508 0.12723 0.0
C2405 C 0.60708 0.60138 0.10086 0.0
C2406 C 0.66502 0.60162 0.11117 0.0
C2407 C 0.604 0.62887 0.15222 0.0
C2408 C 0.65835 0.6282 0.24533 0.0
C2409 C 0.66838 0.64303 0.22992 0.0
C2410 C 0.64602 0.61977 0.21494 0.0
C2411 C 0.64345 0.62654 0.16832 0.0
C2412 C 0.65205 0.64268 0.15454 0.0
C2413 C 0.66457 0.65068 0.18542 0.0
C2414 C 0.63715 0.60258 0.23118 0.0
C2415 C 0.64922 0.65068 0.1058 0.0
H2416 H 0.64405 0.57857 0.06324 0.0
H2417 H 0.59254 0.60072 0.09961 0.0
H2418 H 0.67087 0.61496 0.10297 0.0
H2419 H 0.66887 0.59819 0.14823 0.0
H2420 H 0.67111 0.59154 0.08689 0.0
H2421 H 0.59031 0.62961 0.13661 0.0
H2422 H 0.60268 0.6252 0.19031 0.0
H2423 H 0.61029 0.64237 0.15048 0.0
H2424 H 0.66113 0.62229 0.2798 0.0
H2425 H 0.67215 0.66226 0.17345 0.0
H2426 H 0.64298 0.59106 0.2114 0.0
H2427 H 0.62255 0.60289 0.22343 0.0
H2428 H 0.63903 0.60016 0.26987 0.0
H2429 H 0.6575 0.64327 0.0795 0.0
H2430 H 0.65324 0.66505 0.10471 0.0
H2431 H 0.63497 0.64951 0.09467 0.0
C2432 C 0.16828 0.89227 0.83783 0.0
C2433 C 0.16885 0.87347 0.83612 0.0
C2434 C 0.15455 0.90123 0.86225 0.0
C2435 C 0.14101 0.89111 0.88541 0.0
C2436 C 0.14062 0.8722 0.88021 0.0
C2437 C 0.15462 0.86356 0.85564 0.0
C2438 C 0.15536 0.92146 0.86636 0.0
C2439 C 0.12618 0.861 0.90341 0.0
C2440 C 0.12577 0.915 0.99673 0.0
C2441 C 0.11101 0.92475 0.97976 0.0
C2442 C 0.13486 0.90284 0.96726 0.0
C2443 C 0.12895 0.9003 0.91982 0.0
C2444 C 0.11301 0.90878 0.90407 0.0
C2445 C 0.10423 0.92099 0.93425 0.0
C2446 C 0.15175 0.89396 0.98563 0.0
C2447 C 0.10604 0.90614 0.85414 0.0
H2448 H 0.17915 0.90001 0.82234 0.0
H2449 H 0.15495 0.84901 0.85421 0.0
H2450 H 0.14218 0.92749 0.85712 0.0
H2451 H 0.15842 0.92526 0.90367 0.0
H2452 H 0.16579 0.92741 0.84288 0.0
H2453 H 0.1257 0.84718 0.88849 0.0
H2454 H 0.12889 0.86 0.94213 0.0
H2455 H 0.11279 0.86735 0.89901 0.0
H2456 H 0.13098 0.91775 0.03201 0.0
H2457 H 0.09274 0.9284 0.92101 0.0
H2458 H 0.16361 0.89984 0.96747 0.0
H2459 H 0.1516 0.87938 0.97765 0.0
H2460 H 0.15343 0.89578 0.02461 0.0
H2461 H 0.11404 0.91447 0.8292 0.0
H2462 H 0.09172 0.91021 0.85097 0.0
H2463 H 0.10739 0.89192 0.84284 0.0
loop_
_geom_bond_atom_site_label_1
_geom_bond_atom_site_label_2
_geom_bond_distance
_geom_bond_site_symmetry_2
_ccdc_geom_bond_type
In0 O1 2.294 . S
In0 O2 2.326 . S
In0 O6 2.266 . S
In0 O7 2.326 . S
In0 O8 2.266 . S
In0 O9 2.326 1_554 S
In0 O11 2.294 . S
In0 O12 2.326 . S
O1 In0 2.294 . S
O1 C10 1.240 . S
O2 In0 2.326 . S
O2 C10 1.252 . S
C3 O6 1.252 . S
C3 O7 1.260 . S
C4 O11 1.240 . S
C4 O12 1.252 . S
C5 O8 1.252 1_556 S
C5 O9 1.260 . S
O6 In0 2.266 . S
O6 C3 1.252 . S
O7 In0 2.326 . S
O7 C3 1.260 . S
O8 In0 2.266 . S
O8 C5 1.252 1_554 S
O9 In0 2.326 1_556 S
O9 C5 1.260 . S
C10 O1 1.240 . S
C10 O2 1.252 . S
O11 In0 2.294 . S
O11 C4 1.240 . S
O12 In0 2.326 . S
O12 C4 1.252 . S
In13 O14 2.294 . S
In13 O15 2.326 . S
In13 O19 2.266 . S
In13 O20 2.326 . S
In13 O21 2.266 . S
In13 O22 2.326 . S
In13 O24 2.294 . S
In13 O25 2.326 . S
O14 In13 2.294 . S
O14 C23 1.240 . S
O15 In13 2.326 . S
O15 C23 1.252 . S
C16 O19 1.252 . S
C16 O20 1.260 . S
C17 O24 1.240 . S
C17 O25 1.252 . S
C18 O21 1.252 . S
C18 O22 1.260 . S
O19 In13 2.266 . S
O19 C16 1.252 . S
O20 In13 2.326 . S
O20 C16 1.260 . S
O21 In13 2.266 . S
O21 C18 1.252 . S
O22 In13 2.326 . S
O22 C18 1.260 . S
C23 O14 1.240 . S
C23 O15 1.252 . S
O24 In13 2.294 . S
O24 C17 1.240 . S
O25 In13 2.326 . S
O25 C17 1.252 . S
In26 O27 2.294 . S
In26 O28 2.326 . S
In26 O32 2.266 . S
In26 O33 2.326 . S
In26 O34 2.266 . S
In26 O35 2.326 . S
In26 O37 2.294 . S
In26 O38 2.326 . S
O27 In26 2.294 . S
O27 C36 1.240 . S
O28 In26 2.326 . S
O28 C36 1.252 . S
C29 O32 1.252 . S
C29 O33 1.260 . S
C30 O37 1.240 . S
C30 O38 1.252 . S
C31 O34 1.252 . S
C31 O35 1.260 . S
O32 In26 2.266 . S
O32 C29 1.252 . S
O33 In26 2.326 . S
O33 C29 1.260 . S
O34 In26 2.266 . S
O34 C31 1.252 . S
O35 In26 2.326 . S
O35 C31 1.260 . S
C36 O27 1.240 . S
C36 O28 1.252 . S
O37 In26 2.294 . S
O37 C30 1.240 . S
O38 In26 2.326 . S
O38 C30 1.252 . S
In39 O40 2.294 . S
In39 O41 2.326 . S
In39 O45 2.266 . S
In39 O46 2.326 . S
In39 O47 2.266 . S
In39 O48 2.326 . S
In39 O50 2.294 . S
In39 O51 2.326 . S
O40 In39 2.294 . S
O40 C49 1.240 . S
O41 In39 2.326 . S
O41 C49 1.252 . S
C42 O45 1.252 . S
C42 O46 1.260 . S
C43 O50 1.240 . S
C43 O51 1.252 . S
C44 O47 1.252 . S
C44 O48 1.260 . S
O45 In39 2.266 . S
O45 C42 1.252 . S
O46 In39 2.326 . S
O46 C42 1.260 . S
O47 In39 2.266 . S
O47 C44 1.252 . S
O48 In39 2.326 . S
O48 C44 1.260 . S
C49 O40 1.240 . S
C49 O41 1.252 . S
O50 In39 2.294 . S
O50 C43 1.240 . S
O51 In39 2.326 . S
O51 C43 1.252 . S
In52 O53 2.294 . S
In52 O54 2.326 . S
In52 O58 2.266 . S
In52 O59 2.326 . S
In52 O60 2.266 . S
In52 O61 2.326 . S
In52 O63 2.294 . S
In52 O64 2.326 . S
O53 In52 2.294 . S
O53 C62 1.240 . S
O54 In52 2.326 . S
O54 C62 1.252 . S
C55 O58 1.252 . S
C55 O59 1.260 . S
C56 O63 1.240 . S
C56 O64 1.252 . S
C57 O60 1.252 . S
C57 O61 1.260 . S
O58 In52 2.266 . S
O58 C55 1.252 . S
O59 In52 2.326 . S
O59 C55 1.260 . S
O60 In52 2.266 . S
O60 C57 1.252 . S
O61 In52 2.326 . S
O61 C57 1.260 . S
C62 O53 1.240 . S
C62 O54 1.252 . S
O63 In52 2.294 . S
O63 C56 1.240 . S
O64 In52 2.326 . S
O64 C56 1.252 . S
In65 O66 2.294 . S
In65 O67 2.326 . S
In65 O71 2.266 . S
In65 O72 2.326 . S
In65 O73 2.266 . S
In65 O74 2.326 . S
In65 O76 2.294 . S
In65 O77 2.326 . S
O66 In65 2.294 . S
O66 C75 1.240 . S
O67 In65 2.326 . S
O67 C75 1.252 . S
C68 O71 1.252 . S
C68 O72 1.260 . S
C69 O76 1.240 . S
C69 O77 1.252 . S
C70 O73 1.252 . S
C70 O74 1.260 . S
O71 In65 2.266 . S
O71 C68 1.252 . S
O72 In65 2.326 . S
O72 C68 1.260 . S
O73 In65 2.266 . S
O73 C70 1.252 . S
O74 In65 2.326 . S
O74 C70 1.260 . S
C75 O66 1.240 . S
C75 O67 1.252 . S
O76 In65 2.294 . S
O76 C69 1.240 . S
O77 In65 2.326 . S
O77 C69 1.252 . S
In78 O79 2.294 . S
In78 O80 2.326 . S
In78 O84 2.266 . S
In78 O85 2.326 . S
In78 O86 2.266 . S
In78 O87 2.326 . S
In78 O89 2.294 1_554 S
In78 O90 2.326 1_554 S
O79 In78 2.294 . S
O79 C88 1.240 . S
O80 In78 2.326 . S
O80 C88 1.252 . S
C81 O84 1.252 . S
C81 O85 1.260 . S
C82 O89 1.240 . S
C82 O90 1.252 . S
C83 O86 1.252 . S
C83 O87 1.260 . S
O84 In78 2.266 . S
O84 C81 1.252 . S
O85 In78 2.326 . S
O85 C81 1.260 . S
O86 In78 2.266 . S
O86 C83 1.252 . S
O87 In78 2.326 . S
O87 C83 1.260 . S
C88 O79 1.240 . S
C88 O80 1.252 . S
O89 In78 2.294 1_556 S
O89 C82 1.240 . S
O90 In78 2.326 1_556 S
O90 C82 1.252 . S
In91 O92 2.294 . S
In91 O93 2.326 . S
In91 O97 2.266 . S
In91 O98 2.326 . S
In91 O99 2.266 . S
In91 O100 2.326 . S
In91 O102 2.294 . S
In91 O103 2.326 . S
O92 In91 2.294 . S
O92 C101 1.240 . S
O93 In91 2.326 . S
O93 C101 1.252 . S
C94 O97 1.252 . S
C94 O98 1.260 . S
C95 O102 1.240 . S
C95 O103 1.252 . S
C96 O99 1.252 . S
C96 O100 1.260 . S
O97 In91 2.266 . S
O97 C94 1.252 . S
O98 In91 2.326 . S
O98 C94 1.260 . S
O99 In91 2.266 . S
O99 C96 1.252 . S
O100 In91 2.326 . S
O100 C96 1.260 . S
C101 O92 1.240 . S
C101 O93 1.252 . S
O102 In91 2.294 . S
O102 C95 1.240 . S
O103 In91 2.326 . S
O103 C95 1.252 . S
In104 O105 2.294 1_554 S
In104 O106 2.326 1_554 S
In104 O110 2.266 . S
In104 O111 2.326 . S
In104 O112 2.266 . S
In104 O113 2.326 . S
In104 O115 2.294 . S
In104 O116 2.326 . S
O105 In104 2.294 1_556 S
O105 C114 1.240 . S
O106 In104 2.326 1_556 S
O106 C114 1.252 . S
C107 O110 1.252 . S
C107 O111 1.260 . S
C108 O115 1.240 . S
C108 O116 1.252 . S
C109 O112 1.252 . S
C109 O113 1.260 . S
O110 In104 2.266 . S
O110 C107 1.252 . S
O111 In104 2.326 . S
O111 C107 1.260 . S
O112 In104 2.266 . S
O112 C109 1.252 . S
O113 In104 2.326 . S
O113 C109 1.260 . S
C114 O105 1.240 . S
C114 O106 1.252 . S
O115 In104 2.294 . S
O115 C108 1.240 . S
O116 In104 2.326 . S
O116 C108 1.252 . S
In117 O118 2.294 . S
In117 O119 2.326 . S
In117 O123 2.266 . S
In117 O124 2.326 . S
In117 O125 2.266 . S
In117 O126 2.326 . S
In117 O128 2.294 . S
In117 O129 2.326 . S
O118 In117 2.294 . S
O118 C127 1.240 . S
O119 In117 2.326 . S
O119 C127 1.252 . S
C120 O123 1.252 . S
C120 O124 1.260 . S
C121 O128 1.240 . S
C121 O129 1.252 . S
C122 O125 1.252 . S
C122 O126 1.260 . S
O123 In117 2.266 . S
O123 C120 1.252 . S
O124 In117 2.326 . S
O124 C120 1.260 . S
O125 In117 2.266 . S
O125 C122 1.252 . S
O126 In117 2.326 . S
O126 C122 1.260 . S
C127 O118 1.240 . S
C127 O119 1.252 . S
O128 In117 2.294 . S
O128 C121 1.240 . S
O129 In117 2.326 . S
O129 C121 1.252 . S
In130 O131 2.294 . S
In130 O132 2.326 . S
In130 O136 2.266 . S
In130 O137 2.326 . S
In130 O138 2.266 . S
In130 O139 2.326 . S
In130 O141 2.294 . S
In130 O142 2.326 . S
O131 In130 2.294 . S
O131 C140 1.240 . S
O132 In130 2.326 . S
O132 C140 1.252 . S
C133 O136 1.252 . S
C133 O137 1.260 . S
C134 O141 1.240 . S
C134 O142 1.252 . S
C135 O138 1.252 . S
C135 O139 1.260 . S
O136 In130 2.266 . S
O136 C133 1.252 . S
O137 In130 2.326 . S
O137 C133 1.260 . S
O138 In130 2.266 . S
O138 C135 1.252 . S
O139 In130 2.326 . S
O139 C135 1.260 . S
C140 O131 1.240 . S
C140 O132 1.252 . S
O141 In130 2.294 . S
O141 C134 1.240 . S
O142 In130 2.326 . S
O142 C134 1.252 . S
In143 O144 2.294 . S
In143 O145 2.326 . S
In143 O149 2.266 . S
In143 O150 2.326 . S
In143 O151 2.266 . S
In143 O152 2.326 . S
In143 O154 2.294 . S
In143 O155 2.326 . S
O144 In143 2.294 . S
O144 C153 1.240 . S
O145 In143 2.326 . S
O145 C153 1.252 . S
C146 O149 1.252 . S
C146 O150 1.260 . S
C147 O154 1.240 . S
C147 O155 1.252 . S
C148 O151 1.252 . S
C148 O152 1.260 . S
O149 In143 2.266 . S
O149 C146 1.252 . S
O150 In143 2.326 . S
O150 C146 1.260 . S
O151 In143 2.266 . S
O151 C148 1.252 . S
O152 In143 2.326 . S
O152 C148 1.260 . S
C153 O144 1.240 . S
C153 O145 1.252 . S
O154 In143 2.294 . S
O154 C147 1.240 . S
O155 In143 2.326 . S
O155 C147 1.252 . S
In156 O157 2.294 . S
In156 O158 2.326 . S
In156 O162 2.266 . S
In156 O163 2.326 . S
In156 O164 2.266 . S
In156 O165 2.326 . S
In156 O167 2.294 . S
In156 O168 2.326 . S
O157 In156 2.294 . S
O157 C166 1.240 . S
O158 In156 2.326 . S
O158 C166 1.252 . S
C159 O162 1.252 . S
C159 O163 1.260 . S
C160 O167 1.240 . S
C160 O168 1.252 . S
C161 O164 1.252 . S
C161 O165 1.260 . S
O162 In156 2.266 . S
O162 C159 1.252 . S
O163 In156 2.326 . S
O163 C159 1.260 . S
O164 In156 2.266 . S
O164 C161 1.252 . S
O165 In156 2.326 . S
O165 C161 1.260 . S
C166 O157 1.240 . S
C166 O158 1.252 . S
O167 In156 2.294 . S
O167 C160 1.240 . S
O168 In156 2.326 . S
O168 C160 1.252 . S
In169 O170 2.294 . S
In169 O171 2.326 . S
In169 O175 2.266 . S
In169 O176 2.326 . S
In169 O177 2.266 . S
In169 O178 2.326 . S
In169 O180 2.294 . S
In169 O181 2.326 . S
O170 In169 2.294 . S
O170 C179 1.240 . S
O171 In169 2.326 . S
O171 C179 1.252 . S
C172 O175 1.252 . S
C172 O176 1.260 . S
C173 O180 1.240 . S
C173 O181 1.252 . S
C174 O177 1.252 . S
C174 O178 1.260 . S
O175 In169 2.266 . S
O175 C172 1.252 . S
O176 In169 2.326 . S
O176 C172 1.260 . S
O177 In169 2.266 . S
O177 C174 1.252 . S
O178 In169 2.326 . S
O178 C174 1.260 . S
C179 O170 1.240 . S
C179 O171 1.252 . S
O180 In169 2.294 . S
O180 C173 1.240 . S
O181 In169 2.326 . S
O181 C173 1.252 . S
In182 O183 2.294 . S
In182 O184 2.326 . S
In182 O188 2.266 . S
In182 O189 2.326 . S
In182 O190 2.266 . S
In182 O191 2.326 1_554 S
In182 O193 2.294 . S
In182 O194 2.326 . S
O183 In182 2.294 . S
O183 C192 1.240 . S
O184 In182 2.326 . S
O184 C192 1.252 . S
C185 O188 1.252 . S
C185 O189 1.260 . S
C186 O193 1.240 . S
C186 O194 1.252 . S
C187 O190 1.252 1_556 S
C187 O191 1.260 . S
O188 In182 2.266 . S
O188 C185 1.252 . S
O189 In182 2.326 . S
O189 C185 1.260 . S
O190 In182 2.266 . S
O190 C187 1.252 1_554 S
O191 In182 2.326 1_556 S
O191 C187 1.260 . S
C192 O183 1.240 . S
C192 O184 1.252 . S
O193 In182 2.294 . S
O193 C186 1.240 . S
O194 In182 2.326 . S
O194 C186 1.252 . S
In195 O196 2.294 . S
In195 O197 2.326 . S
In195 O201 2.266 . S
In195 O202 2.326 . S
In195 O203 2.266 . S
In195 O204 2.326 . S
In195 O206 2.294 . S
In195 O207 2.326 . S
O196 In195 2.294 . S
O196 C205 1.240 . S
O197 In195 2.326 . S
O197 C205 1.252 . S
C198 O201 1.252 . S
C198 O202 1.260 . S
C199 O206 1.240 . S
C199 O207 1.252 . S
C200 O203 1.252 . S
C200 O204 1.260 . S
O201 In195 2.266 . S
O201 C198 1.252 . S
O202 In195 2.326 . S
O202 C198 1.260 . S
O203 In195 2.266 . S
O203 C200 1.252 . S
O204 In195 2.326 . S
O204 C200 1.260 . S
C205 O196 1.240 . S
C205 O197 1.252 . S
O206 In195 2.294 . S
O206 C199 1.240 . S
O207 In195 2.326 . S
O207 C199 1.252 . S
In208 O209 2.294 . S
In208 O210 2.326 . S
In208 O214 2.266 . S
In208 O215 2.299 1_565 S
In208 O216 2.266 1_565 S
In208 O217 2.326 . S
In208 O219 2.294 1_565 S
In208 O220 2.326 . S
O209 In208 2.294 . S
O209 C218 1.240 . S
O210 In208 2.326 . S
O210 C218 1.252 . S
C211 O214 1.252 . S
C211 O215 1.219 1_565 S
C212 O219 1.240 1_565 S
C212 O220 1.252 . S
C213 O216 1.252 1_565 S
C213 O217 1.260 . S
O214 In208 2.266 . S
O214 C211 1.252 . S
O215 In208 2.299 1_545 S
O215 C211 1.219 1_545 S
O216 In208 2.266 1_545 S
O216 C213 1.252 1_545 S
O217 In208 2.326 . S
O217 C213 1.260 . S
C218 O209 1.240 . S
C218 O210 1.252 . S
O219 In208 2.294 1_545 S
O219 C212 1.240 1_545 S
O220 In208 2.326 . S
O220 C212 1.252 . S
In221 O222 2.294 . S
In221 O223 2.326 . S
In221 O227 2.266 . S
In221 O228 2.326 . S
In221 O229 2.266 . S
In221 O230 2.326 . S
In221 O232 2.294 . S
In221 O233 2.326 . S
O222 In221 2.294 . S
O222 C231 1.240 . S
O223 In221 2.326 . S
O223 C231 1.252 . S
C224 O227 1.252 . S
C224 O228 1.260 . S
C225 O232 1.240 . S
C225 O233 1.252 . S
C226 O229 1.252 . S
C226 O230 1.260 . S
O227 In221 2.266 . S
O227 C224 1.252 . S
O228 In221 2.326 . S
O228 C224 1.260 . S
O229 In221 2.266 . S
O229 C226 1.252 . S
O230 In221 2.326 . S
O230 C226 1.260 . S
C231 O222 1.240 . S
C231 O223 1.252 . S
O232 In221 2.294 . S
O232 C225 1.240 . S
O233 In221 2.326 . S
O233 C225 1.252 . S
In234 O235 2.294 . S
In234 O236 2.326 . S
In234 O240 2.266 . S
In234 O241 2.300 1_545 S
In234 O242 2.266 1_545 S
In234 O243 2.326 1_554 S
In234 O245 2.294 1_545 S
In234 O246 2.326 . S
O235 In234 2.294 . S
O235 C244 1.240 . S
O236 In234 2.326 . S
O236 C244 1.252 . S
C237 O240 1.252 . S
C237 O241 1.221 1_545 S
C238 O245 1.240 1_545 S
C238 O246 1.252 . S
C239 O242 1.252 1_546 S
C239 O243 1.260 . S
O240 In234 2.266 . S
O240 C237 1.252 . S
O241 In234 2.300 1_565 S
O241 C237 1.221 1_565 S
O242 In234 2.266 1_565 S
O242 C239 1.252 1_564 S
O243 In234 2.326 1_556 S
O243 C239 1.260 . S
C244 O235 1.240 . S
C244 O236 1.252 . S
O245 In234 2.294 1_565 S
O245 C238 1.240 1_565 S
O246 In234 2.326 . S
O246 C238 1.252 . S
In247 O248 2.294 . S
In247 O249 2.326 . S
In247 O253 2.266 . S
In247 O254 2.326 . S
In247 O255 2.266 . S
In247 O256 2.326 . S
In247 O258 2.294 . S
In247 O259 2.326 . S
O248 In247 2.294 . S
O248 C257 1.240 . S
O249 In247 2.326 . S
O249 C257 1.252 . S
C250 O253 1.252 . S
C250 O254 1.260 . S
C251 O258 1.240 . S
C251 O259 1.252 . S
C252 O255 1.252 . S
C252 O256 1.260 . S
O253 In247 2.266 . S
O253 C250 1.252 . S
O254 In247 2.326 . S
O254 C250 1.260 . S
O255 In247 2.266 . S
O255 C252 1.252 . S
O256 In247 2.326 . S
O256 C252 1.260 . S
C257 O248 1.240 . S
C257 O249 1.252 . S
O258 In247 2.294 . S
O258 C251 1.240 . S
O259 In247 2.326 . S
O259 C251 1.252 . S
In260 O261 2.294 1_544 S
In260 O262 2.326 1_554 S
In260 O266 2.266 1_545 S
In260 O267 2.326 . S
In260 O268 2.266 . S
In260 O269 2.299 1_545 S
In260 O271 2.294 . S
In260 O272 2.326 . S
O261 In260 2.294 1_566 S
O261 C270 1.240 1_565 S
O262 In260 2.326 1_556 S
O262 C270 1.252 . S
C263 O266 1.252 1_545 S
C263 O267 1.260 . S
C264 O271 1.240 . S
C264 O272 1.252 . S
C265 O268 1.252 . S
C265 O269 1.219 1_545 S
O266 In260 2.266 1_565 S
O266 C263 1.252 1_565 S
O267 In260 2.326 . S
O267 C263 1.260 . S
O268 In260 2.266 . S
O268 C265 1.252 . S
O269 In260 2.299 1_565 S
O269 C265 1.219 1_565 S
C270 O261 1.240 1_545 S
C270 O262 1.252 . S
O271 In260 2.294 . S
O271 C264 1.240 . S
O272 In260 2.326 . S
O272 C264 1.252 . S
In273 O274 2.294 . S
In273 O275 2.326 . S
In273 O279 2.266 . S
In273 O280 2.326 . S
In273 O281 2.266 . S
In273 O282 2.326 . S
In273 O284 2.294 . S
In273 O285 2.326 . S
O274 In273 2.294 . S
O274 C283 1.240 . S
O275 In273 2.326 . S
O275 C283 1.252 . S
C276 O279 1.252 . S
C276 O280 1.260 . S
C277 O284 1.240 . S
C277 O285 1.252 . S
C278 O281 1.252 . S
C278 O282 1.260 . S
O279 In273 2.266 . S
O279 C276 1.252 . S
O280 In273 2.326 . S
O280 C276 1.260 . S
O281 In273 2.266 . S
O281 C278 1.252 . S
O282 In273 2.326 . S
O282 C278 1.260 . S
C283 O274 1.240 . S
C283 O275 1.252 . S
O284 In273 2.294 . S
O284 C277 1.240 . S
O285 In273 2.326 . S
O285 C277 1.252 . S
In286 O287 2.294 . S
In286 O288 2.326 . S
In286 O292 2.266 . S
In286 O293 2.299 1_565 S
In286 O294 2.266 1_565 S
In286 O295 2.326 . S
In286 O297 2.294 1_565 S
In286 O298 2.326 . S
O287 In286 2.294 . S
O287 C296 1.240 . S
O288 In286 2.326 . S
O288 C296 1.252 . S
C289 O292 1.252 . S
C289 O293 1.219 1_565 S
C290 O297 1.240 1_565 S
C290 O298 1.252 . S
C291 O294 1.252 1_565 S
C291 O295 1.260 . S
O292 In286 2.266 . S
O292 C289 1.252 . S
O293 In286 2.299 1_545 S
O293 C289 1.219 1_545 S
O294 In286 2.266 1_545 S
O294 C291 1.252 1_545 S
O295 In286 2.326 . S
O295 C291 1.260 . S
C296 O287 1.240 . S
C296 O288 1.252 . S
O297 In286 2.294 1_545 S
O297 C290 1.240 1_545 S
O298 In286 2.326 . S
O298 C290 1.252 . S
In299 O300 2.294 . S
In299 O301 2.326 . S
In299 O305 2.266 . S
In299 O306 2.326 . S
In299 O307 2.266 . S
In299 O308 2.326 . S
In299 O310 2.294 . S
In299 O311 2.326 . S
O300 In299 2.294 . S
O300 C309 1.240 . S
O301 In299 2.326 . S
O301 C309 1.252 . S
C302 O305 1.252 . S
C302 O306 1.260 . S
C303 O310 1.240 . S
C303 O311 1.252 . S
C304 O307 1.252 . S
C304 O308 1.260 . S
O305 In299 2.266 . S
O305 C302 1.252 . S
O306 In299 2.326 . S
O306 C302 1.260 . S
O307 In299 2.266 . S
O307 C304 1.252 . S
O308 In299 2.326 . S
O308 C304 1.260 . S
C309 O300 1.240 . S
C309 O301 1.252 . S
O310 In299 2.294 . S
O310 C303 1.240 . S
O311 In299 2.326 . S
O311 C303 1.252 . S
In312 O313 2.294 . S
In312 O314 2.326 . S
In312 O318 2.266 . S
In312 O319 2.299 1_545 S
In312 O320 2.266 1_545 S
In312 O321 2.326 . S
In312 O323 2.294 1_545 S
In312 O324 2.326 . S
O313 In312 2.294 . S
O313 C322 1.240 . S
O314 In312 2.326 . S
O314 C322 1.252 . S
C315 O318 1.252 . S
C315 O319 1.219 1_545 S
C316 O323 1.240 1_545 S
C316 O324 1.252 . S
C317 O320 1.252 1_545 S
C317 O321 1.260 . S
O318 In312 2.266 . S
O318 C315 1.252 . S
O319 In312 2.299 1_565 S
O319 C315 1.219 1_565 S
O320 In312 2.266 1_565 S
O320 C317 1.252 1_565 S
O321 In312 2.326 . S
O321 C317 1.260 . S
C322 O313 1.240 . S
C322 O314 1.252 . S
O323 In312 2.294 1_565 S
O323 C316 1.240 1_565 S
O324 In312 2.326 . S
O324 C316 1.252 . S
In325 O326 2.294 . S
In325 O327 2.326 . S
In325 O331 2.266 . S
In325 O332 2.326 . S
In325 O333 2.266 . S
In325 O334 2.326 . S
In325 O336 2.294 . S
In325 O337 2.326 . S
O326 In325 2.294 . S
O326 C335 1.240 . S
O327 In325 2.326 . S
O327 C335 1.252 . S
C328 O331 1.252 . S
C328 O332 1.260 . S
C329 O336 1.240 . S
C329 O337 1.252 . S
C330 O333 1.252 . S
C330 O334 1.260 . S
O331 In325 2.266 . S
O331 C328 1.252 . S
O332 In325 2.326 . S
O332 C328 1.260 . S
O333 In325 2.266 . S
O333 C330 1.252 . S
O334 In325 2.326 . S
O334 C330 1.260 . S
C335 O326 1.240 . S
C335 O327 1.252 . S
O336 In325 2.294 . S
O336 C329 1.240 . S
O337 In325 2.326 . S
O337 C329 1.252 . S
In338 O339 2.294 1_564 S
In338 O340 2.326 1_554 S
In338 O344 2.266 1_565 S
In338 O345 2.326 . S
In338 O346 2.266 . S
In338 O347 2.299 1_565 S
In338 O349 2.294 . S
In338 O350 2.326 . S
O339 In338 2.294 1_546 S
O339 C348 1.240 1_545 S
O340 In338 2.326 1_556 S
O340 C348 1.252 . S
C341 O344 1.252 1_565 S
C341 O345 1.260 . S
C342 O349 1.240 . S
C342 O350 1.252 . S
C343 O346 1.252 . S
C343 O347 1.219 1_565 S
O344 In338 2.266 1_545 S
O344 C341 1.252 1_545 S
O345 In338 2.326 . S
O345 C341 1.260 . S
O346 In338 2.266 . S
O346 C343 1.252 . S
O347 In338 2.299 1_545 S
O347 C343 1.219 1_545 S
C348 O339 1.240 1_565 S
C348 O340 1.252 . S
O349 In338 2.294 . S
O349 C342 1.240 . S
O350 In338 2.326 . S
O350 C342 1.252 . S
In351 O352 2.294 . S
In351 O353 2.326 . S
In351 O357 2.266 . S
In351 O358 2.326 . S
In351 O359 2.266 . S
In351 O360 2.326 . S
In351 O362 2.294 . S
In351 O363 2.326 . S
O352 In351 2.294 . S
O352 C361 1.240 . S
O353 In351 2.326 . S
O353 C361 1.252 . S
C354 O357 1.252 . S
C354 O358 1.260 . S
C355 O362 1.240 . S
C355 O363 1.252 . S
C356 O359 1.252 . S
C356 O360 1.260 . S
O357 In351 2.266 . S
O357 C354 1.252 . S
O358 In351 2.326 . S
O358 C354 1.260 . S
O359 In351 2.266 . S
O359 C356 1.252 . S
O360 In351 2.326 . S
O360 C356 1.260 . S
C361 O352 1.240 . S
C361 O353 1.252 . S
O362 In351 2.294 . S
O362 C355 1.240 . S
O363 In351 2.326 . S
O363 C355 1.252 . S
In364 O365 2.294 . S
In364 O366 2.326 . S
In364 O370 2.266 . S
In364 O371 2.300 1_565 S
In364 O372 2.266 1_565 S
In364 O373 2.326 1_554 S
In364 O375 2.294 1_565 S
In364 O376 2.326 . S
O365 In364 2.294 . S
O365 C374 1.240 . S
O366 In364 2.326 . S
O366 C374 1.252 . S
C367 O370 1.252 . S
C367 O371 1.221 1_565 S
C368 O375 1.240 1_565 S
C368 O376 1.252 . S
C369 O372 1.252 1_566 S
C369 O373 1.260 . S
O370 In364 2.266 . S
O370 C367 1.252 . S
O371 In364 2.300 1_545 S
O371 C367 1.221 1_545 S
O372 In364 2.266 1_545 S
O372 C369 1.252 1_544 S
O373 In364 2.326 1_556 S
O373 C369 1.260 . S
C374 O365 1.240 . S
C374 O366 1.252 . S
O375 In364 2.294 1_545 S
O375 C368 1.240 1_545 S
O376 In364 2.326 . S
O376 C368 1.252 . S
In377 O378 2.294 . S
In377 O379 2.326 . S
In377 O383 2.266 . S
In377 O384 2.326 . S
In377 O385 2.266 . S
In377 O386 2.326 . S
In377 O388 2.294 . S
In377 O389 2.326 . S
O378 In377 2.294 . S
O378 C387 1.240 . S
O379 In377 2.326 . S
O379 C387 1.252 . S
C380 O383 1.252 . S
C380 O384 1.260 . S
C381 O388 1.240 . S
C381 O389 1.252 . S
C382 O385 1.252 . S
C382 O386 1.260 . S
O383 In377 2.266 . S
O383 C380 1.252 . S
O384 In377 2.326 . S
O384 C380 1.260 . S
O385 In377 2.266 . S
O385 C382 1.252 . S
O386 In377 2.326 . S
O386 C382 1.260 . S
C387 O378 1.240 . S
C387 O379 1.252 . S
O388 In377 2.294 . S
O388 C381 1.240 . S
O389 In377 2.326 . S
O389 C381 1.252 . S
In390 O391 2.294 . S
In390 O392 2.326 . S
In390 O396 2.266 . S
In390 O397 2.299 1_545 S
In390 O398 2.266 1_545 S
In390 O399 2.326 . S
In390 O401 2.294 1_545 S
In390 O402 2.326 . S
O391 In390 2.294 . S
O391 C400 1.240 . S
O392 In390 2.326 . S
O392 C400 1.252 . S
C393 O396 1.252 . S
C393 O397 1.219 1_545 S
C394 O401 1.240 1_545 S
C394 O402 1.252 . S
C395 O398 1.252 1_545 S
C395 O399 1.260 . S
O396 In390 2.266 . S
O396 C393 1.252 . S
O397 In390 2.299 1_565 S
O397 C393 1.219 1_565 S
O398 In390 2.266 1_565 S
O398 C395 1.252 1_565 S
O399 In390 2.326 . S
O399 C395 1.260 . S
C400 O391 1.240 . S
C400 O392 1.252 . S
O401 In390 2.294 1_565 S
O401 C394 1.240 1_565 S
O402 In390 2.326 . S
O402 C394 1.252 . S
In403 O404 2.294 . S
In403 O405 2.326 . S
In403 O409 2.266 . S
In403 O410 2.326 . S
In403 O411 2.266 . S
In403 O412 2.326 . S
In403 O414 2.294 . S
In403 O415 2.326 . S
O404 In403 2.294 . S
O404 C413 1.240 . S
O405 In403 2.326 . S
O405 C413 1.252 . S
C406 O409 1.252 . S
C406 O410 1.260 . S
C407 O414 1.240 . S
C407 O415 1.252 . S
C408 O411 1.252 . S
C408 O412 1.260 . S
O409 In403 2.266 . S
O409 C406 1.252 . S
O410 In403 2.326 . S
O410 C406 1.260 . S
O411 In403 2.266 . S
O411 C408 1.252 . S
O412 In403 2.326 . S
O412 C408 1.260 . S
C413 O404 1.240 . S
C413 O405 1.252 . S
O414 In403 2.294 . S
O414 C407 1.240 . S
O415 In403 2.326 . S
O415 C407 1.252 . S
C416 C417 1.391 . S
C416 C418 1.394 . S
C416 H432 0.931 . S
C417 C416 1.391 . S
C417 C421 1.376 . S
C418 C416 1.394 . S
C418 C419 1.369 . S
C418 C422 1.531 . S
C419 C418 1.369 . S
C419 C420 1.410 . S
C419 C427 1.503 1_655 S
C420 C419 1.410 . S
C420 C421 1.392 . S
C420 C423 1.511 1_554 S
C421 C417 1.376 . S
C421 C420 1.392 . S
C421 H433 0.929 1_554 S
C422 C418 1.531 . S
C422 H434 0.960 . S
C422 H435 0.962 . S
C422 H436 0.960 . S
C423 C420 1.511 1_556 S
C423 H437 0.961 . S
C423 H438 0.961 1_655 S
C423 H439 0.961 . S
C424 C425 1.370 . S
C424 C426 1.363 . S
C424 H440 0.931 . S
C425 C424 1.370 . S
C425 C429 1.408 . S
C426 C424 1.363 . S
C426 C427 1.370 . S
C426 C430 1.524 . S
C427 C419 1.503 1_455 S
C427 C426 1.370 . S
C427 C428 1.403 . S
C428 C427 1.403 . S
C428 C429 1.404 . S
C428 C431 1.539 . S
C429 C425 1.408 . S
C429 C428 1.404 . S
C429 H441 0.930 . S
C430 C426 1.524 . S
C430 H442 0.956 . S
C430 H443 0.961 . S
C430 H444 0.961 . S
C431 C428 1.539 . S
C431 H445 0.960 1_455 S
C431 H446 0.961 1_554 S
C431 H447 0.960 1_454 S
H432 C416 0.931 . S
H433 C421 0.929 1_556 S
H434 C422 0.960 . S
H435 C422 0.962 . S
H436 C422 0.960 . S
H437 C423 0.961 . S
H438 C423 0.961 1_455 S
H439 C423 0.961 . S
H440 C424 0.931 . S
H441 C429 0.930 . S
H442 C430 0.956 . S
H443 C430 0.961 . S
H444 C430 0.961 . S
H445 C431 0.960 1_655 S
H446 C431 0.961 1_556 S
H447 C431 0.960 1_656 S
C448 C449 1.391 . S
C448 C450 1.394 . S
C448 H464 0.931 . S
C449 C448 1.391 . S
C449 C453 1.376 . S
C450 C448 1.394 . S
C450 C451 1.369 . S
C450 C454 1.531 . S
C451 C450 1.369 . S
C451 C452 1.410 . S
C451 C459 1.503 . S
C452 C451 1.410 . S
C452 C453 1.392 . S
C452 C455 1.511 . S
C453 C449 1.376 . S
C453 C452 1.392 . S
C453 H465 0.929 . S
C454 C450 1.531 . S
C454 H466 0.960 . S
C454 H467 0.962 . S
C454 H468 0.960 . S
C455 C452 1.511 . S
C455 H469 0.961 . S
C455 H470 0.961 . S
C455 H471 0.961 . S
C456 C457 1.370 . S
C456 C458 1.363 . S
C456 H472 0.931 . S
C457 C456 1.370 . S
C457 C461 1.408 . S
C458 C456 1.363 . S
C458 C459 1.370 . S
C458 C462 1.524 . S
C459 C451 1.503 . S
C459 C458 1.370 . S
C459 C460 1.403 . S
C460 C459 1.403 . S
C460 C461 1.404 . S
C460 C463 1.539 . S
C461 C457 1.408 . S
C461 C460 1.404 . S
C461 H473 0.930 . S
C462 C458 1.524 . S
C462 H474 0.956 . S
C462 H475 0.961 . S
C462 H476 0.961 . S
C463 C460 1.539 . S
C463 H477 0.958 . S
C463 H478 0.961 . S
C463 H479 0.960 . S
H464 C448 0.931 . S
H465 C453 0.929 . S
H466 C454 0.960 . S
H467 C454 0.962 . S
H468 C454 0.960 . S
H469 C455 0.961 . S
H470 C455 0.961 . S
H471 C455 0.961 . S
H472 C456 0.931 . S
H473 C461 0.930 . S
H474 C462 0.956 . S
H475 C462 0.961 . S
H476 C462 0.961 . S
H477 C463 0.958 . S
H478 C463 0.961 . S
H479 C463 0.960 . S
C480 C481 1.391 . S
C480 C482 1.394 . S
C480 H496 0.931 . S
C481 C480 1.391 . S
C481 C485 1.376 . S
C482 C480 1.394 . S
C482 C483 1.369 . S
C482 C486 1.531 . S
C483 C482 1.369 . S
C483 C484 1.410 . S
C483 C491 1.503 . S
C484 C483 1.410 . S
C484 C485 1.392 . S
C484 C487 1.511 . S
C485 C481 1.376 . S
C485 C484 1.392 . S
C485 H497 0.929 . S
C486 C482 1.531 . S
C486 H498 0.960 . S
C486 H499 0.962 . S
C486 H500 0.960 . S
C487 C484 1.511 . S
C487 H501 0.961 . S
C487 H502 0.961 . S
C487 H503 0.961 . S
C488 C489 1.370 . S
C488 C490 1.363 . S
C488 H504 0.931 . S
C489 C488 1.370 . S
C489 C493 1.408 . S
C490 C488 1.363 . S
C490 C491 1.370 . S
C490 C494 1.524 . S
C491 C483 1.503 . S
C491 C490 1.370 . S
C491 C492 1.403 . S
C492 C491 1.403 . S
C492 C493 1.404 . S
C492 C495 1.539 . S
C493 C489 1.408 . S
C493 C492 1.404 . S
C493 H505 0.930 . S
C494 C490 1.524 . S
C494 H506 0.956 . S
C494 H507 0.961 . S
C494 H508 0.961 . S
C495 C492 1.539 . S
C495 H509 0.958 . S
C495 H510 0.961 . S
C495 H511 0.960 . S
H496 C480 0.931 . S
H497 C485 0.929 . S
H498 C486 0.960 . S
H499 C486 0.962 . S
H500 C486 0.960 . S
H501 C487 0.961 . S
H502 C487 0.961 . S
H503 C487 0.961 . S
H504 C488 0.931 . S
H505 C493 0.930 . S
H506 C494 0.956 . S
H507 C494 0.961 . S
H508 C494 0.961 . S
H509 C495 0.958 . S
H510 C495 0.961 . S
H511 C495 0.960 . S
C512 C513 1.391 . S
C512 C514 1.394 . S
C512 H528 0.931 . S
C513 C512 1.391 . S
C513 C517 1.376 . S
C514 C512 1.394 . S
C514 C515 1.369 . S
C514 C518 1.531 . S
C515 C514 1.369 . S
C515 C516 1.410 . S
C515 C523 1.503 . S
C516 C515 1.410 . S
C516 C517 1.392 . S
C516 C519 1.511 . S
C517 C513 1.376 . S
C517 C516 1.392 . S
C517 H529 0.929 . S
C518 C514 1.531 . S
C518 H530 0.960 . S
C518 H531 0.962 . S
C518 H532 0.960 . S
C519 C516 1.511 . S
C519 H533 0.961 . S
C519 H534 0.961 . S
C519 H535 0.961 . S
C520 C521 1.370 . S
C520 C522 1.363 . S
C520 H536 0.931 . S
C521 C520 1.370 . S
C521 C525 1.408 . S
C522 C520 1.363 . S
C522 C523 1.370 . S
C522 C526 1.524 . S
C523 C515 1.503 . S
C523 C522 1.370 . S
C523 C524 1.403 . S
C524 C523 1.403 . S
C524 C525 1.404 . S
C524 C527 1.539 . S
C525 C521 1.408 . S
C525 C524 1.404 . S
C525 H537 0.930 . S
C526 C522 1.524 . S
C526 H538 0.956 . S
C526 H539 0.961 . S
C526 H540 0.961 . S
C527 C524 1.539 . S
C527 H541 0.958 . S
C527 H542 0.961 . S
C527 H543 0.960 . S
H528 C512 0.931 . S
H529 C517 0.929 . S
H530 C518 0.960 . S
H531 C518 0.962 . S
H532 C518 0.960 . S
H533 C519 0.961 . S
H534 C519 0.961 . S
H535 C519 0.961 . S
H536 C520 0.931 . S
H537 C525 0.930 . S
H538 C526 0.956 . S
H539 C526 0.961 . S
H540 C526 0.961 . S
H541 C527 0.958 . S
H542 C527 0.961 . S
H543 C527 0.960 . S
C544 C545 1.391 . S
C544 C546 1.394 . S
C544 H560 0.931 . S
C545 C544 1.391 . S
C545 C549 1.376 . S
C546 C544 1.394 . S
C546 C547 1.369 . S
C546 C550 1.531 . S
C547 C546 1.369 . S
C547 C548 1.410 . S
C547 C555 1.503 1_455 S
C548 C547 1.410 . S
C548 C549 1.392 . S
C548 C551 1.511 . S
C549 C545 1.376 . S
C549 C548 1.392 . S
C549 H561 0.929 . S
C550 C546 1.531 . S
C550 H562 0.960 1_455 S
C550 H563 0.962 . S
C550 H564 0.960 . S
C551 C548 1.511 . S
C551 H565 0.961 . S
C551 H566 0.969 . S
C551 H567 0.961 . S
C552 C553 1.370 . S
C552 C554 1.363 . S
C552 H568 0.931 . S
C553 C552 1.370 . S
C553 C557 1.408 . S
C554 C552 1.363 . S
C554 C555 1.370 . S
C554 C558 1.533 . S
C555 C547 1.503 1_655 S
C555 C554 1.370 . S
C555 C556 1.403 . S
C556 C555 1.403 . S
C556 C557 1.404 . S
C556 C559 1.539 . S
C557 C553 1.408 . S
C557 C556 1.404 . S
C557 H569 0.930 . S
C558 C554 1.533 . S
C558 H570 0.950 1_655 S
C558 H571 0.952 1_655 S
C558 H572 0.966 . S
C559 C556 1.539 . S
C559 H573 0.958 . S
C559 H574 0.961 . S
C559 H575 0.960 . S
H560 C544 0.931 . S
H561 C549 0.929 . S
H562 C550 0.960 1_655 S
H563 C550 0.962 . S
H564 C550 0.960 . S
H565 C551 0.961 . S
H566 C551 0.969 . S
H567 C551 0.961 . S
H568 C552 0.931 . S
H569 C557 0.930 . S
H570 C558 0.950 1_455 S
H571 C558 0.952 1_455 S
H572 C558 0.966 . S
H573 C559 0.958 . S
H574 C559 0.961 . S
H575 C559 0.960 . S
C576 C577 1.391 . S
C576 C578 1.394 . S
C576 H592 0.931 . S
C577 C576 1.391 . S
C577 C581 1.376 . S
C578 C576 1.394 . S
C578 C579 1.369 . S
C578 C582 1.531 . S
C579 C578 1.369 . S
C579 C580 1.410 . S
C579 C587 1.503 . S
C580 C579 1.410 . S
C580 C581 1.392 . S
C580 C583 1.511 . S
C581 C577 1.376 . S
C581 C580 1.392 . S
C581 H593 0.929 . S
C582 C578 1.531 . S
C582 H594 0.960 . S
C582 H595 0.962 . S
C582 H596 0.960 . S
C583 C580 1.511 . S
C583 H597 0.961 . S
C583 H598 0.961 . S
C583 H599 0.961 . S
C584 C585 1.370 . S
C584 C586 1.363 . S
C584 H600 0.931 . S
C585 C584 1.370 . S
C585 C589 1.408 . S
C586 C584 1.363 . S
C586 C587 1.370 . S
C586 C590 1.524 . S
C587 C579 1.503 . S
C587 C586 1.370 . S
C587 C588 1.403 . S
C588 C587 1.403 . S
C588 C589 1.404 . S
C588 C591 1.539 . S
C589 C585 1.408 . S
C589 C588 1.404 . S
C589 H601 0.930 . S
C590 C586 1.524 . S
C590 H602 0.956 . S
C590 H603 0.961 . S
C590 H604 0.961 . S
C591 C588 1.539 . S
C591 H605 0.958 . S
C591 H606 0.961 . S
C591 H607 0.960 . S
H592 C576 0.931 . S
H593 C581 0.929 . S
H594 C582 0.960 . S
H595 C582 0.962 . S
H596 C582 0.960 . S
H597 C583 0.961 . S
H598 C583 0.961 . S
H599 C583 0.961 . S
H600 C584 0.931 . S
H601 C589 0.930 . S
H602 C590 0.956 . S
H603 C590 0.961 . S
H604 C590 0.961 . S
H605 C591 0.958 . S
H606 C591 0.961 . S
H607 C591 0.960 . S
C608 C609 1.391 . S
C608 C610 1.394 . S
C608 H624 0.931 . S
C609 C608 1.391 . S
C609 C613 1.376 . S
C610 C608 1.394 . S
C610 C611 1.369 . S
C610 C614 1.531 . S
C611 C610 1.369 . S
C611 C612 1.410 . S
C611 C619 1.503 . S
C612 C611 1.410 . S
C612 C613 1.392 . S
C612 C615 1.511 . S
C613 C609 1.376 . S
C613 C612 1.392 . S
C613 H625 0.929 . S
C614 C610 1.531 . S
C614 H626 0.960 1_554 S
C614 H627 0.962 . S
C614 H628 0.960 1_554 S
C615 C612 1.511 . S
C615 H629 0.961 . S
C615 H630 0.961 . S
C615 H631 0.961 . S
C616 C617 1.370 . S
C616 C618 1.363 . S
C616 H632 0.931 . S
C617 C616 1.370 . S
C617 C621 1.408 . S
C618 C616 1.363 . S
C618 C619 1.370 . S
C618 C622 1.524 . S
C619 C611 1.503 . S
C619 C618 1.370 . S
C619 C620 1.403 . S
C620 C619 1.403 . S
C620 C621 1.404 . S
C620 C623 1.539 1_554 S
C621 C617 1.408 . S
C621 C620 1.404 . S
C621 H633 0.930 1_554 S
C622 C618 1.524 . S
C622 H634 0.956 . S
C622 H635 0.961 . S
C622 H636 0.961 . S
C623 C620 1.539 1_556 S
C623 H637 0.958 . S
C623 H638 0.961 . S
C623 H639 0.960 . S
H624 C608 0.931 . S
H625 C613 0.929 . S
H626 C614 0.960 1_556 S
H627 C614 0.962 . S
H628 C614 0.960 1_556 S
H629 C615 0.961 . S
H630 C615 0.961 . S
H631 C615 0.961 . S
H632 C616 0.931 . S
H633 C621 0.930 1_556 S
H634 C622 0.956 . S
H635 C622 0.961 . S
H636 C622 0.961 . S
H637 C623 0.958 . S
H638 C623 0.961 . S
H639 C623 0.960 . S
C640 C641 1.391 . S
C640 C642 1.394 . S
C640 H656 0.931 . S
C641 C640 1.391 . S
C641 C645 1.376 . S
C642 C640 1.394 . S
C642 C643 1.369 . S
C642 C646 1.531 . S
C643 C642 1.369 . S
C643 C644 1.410 . S
C643 C651 1.503 . S
C644 C643 1.410 . S
C644 C645 1.392 . S
C644 C647 1.511 . S
C645 C641 1.376 . S
C645 C644 1.392 . S
C645 H657 0.929 . S
C646 C642 1.531 . S
C646 H658 0.960 . S
C646 H659 0.962 . S
C646 H660 0.960 . S
C647 C644 1.511 . S
C647 H661 0.961 . S
C647 H662 0.961 . S
C647 H663 0.961 . S
C648 C649 1.370 . S
C648 C650 1.363 . S
C648 H664 0.931 . S
C649 C648 1.370 . S
C649 C653 1.408 . S
C650 C648 1.363 . S
C650 C651 1.370 . S
C650 C654 1.524 . S
C651 C643 1.503 . S
C651 C650 1.370 . S
C651 C652 1.403 . S
C652 C651 1.403 . S
C652 C653 1.404 . S
C652 C655 1.539 . S
C653 C649 1.408 . S
C653 C652 1.404 . S
C653 H665 0.930 . S
C654 C650 1.524 . S
C654 H666 0.956 . S
C654 H667 0.961 . S
C654 H668 0.961 . S
C655 C652 1.539 . S
C655 H669 0.958 . S
C655 H670 0.961 . S
C655 H671 0.960 . S
H656 C640 0.931 . S
H657 C645 0.929 . S
H658 C646 0.960 . S
H659 C646 0.962 . S
H660 C646 0.960 . S
H661 C647 0.961 . S
H662 C647 0.961 . S
H663 C647 0.961 . S
H664 C648 0.931 . S
H665 C653 0.930 . S
H666 C654 0.956 . S
H667 C654 0.961 . S
H668 C654 0.961 . S
H669 C655 0.958 . S
H670 C655 0.961 . S
H671 C655 0.960 . S
C672 C673 1.391 . S
C672 C674 1.394 . S
C672 H688 0.931 . S
C673 C672 1.391 . S
C673 C677 1.376 . S
C674 C672 1.394 . S
C674 C675 1.369 . S
C674 C678 1.531 . S
C675 C674 1.369 . S
C675 C676 1.410 . S
C675 C683 1.503 . S
C676 C675 1.410 . S
C676 C677 1.392 . S
C676 C679 1.511 . S
C677 C673 1.376 . S
C677 C676 1.392 . S
C677 H689 0.929 . S
C678 C674 1.531 . S
C678 H690 0.960 . S
C678 H691 0.962 . S
C678 H692 0.960 . S
C679 C676 1.511 . S
C679 H693 0.961 . S
C679 H694 0.961 . S
C679 H695 0.961 . S
C680 C681 1.370 . S
C680 C682 1.363 . S
C680 H696 0.931 . S
C681 C680 1.370 . S
C681 C685 1.408 . S
C682 C680 1.363 . S
C682 C683 1.370 . S
C682 C686 1.524 . S
C683 C675 1.503 . S
C683 C682 1.370 . S
C683 C684 1.403 . S
C684 C683 1.403 . S
C684 C685 1.404 . S
C684 C687 1.539 . S
C685 C681 1.408 . S
C685 C684 1.404 . S
C685 H697 0.930 . S
C686 C682 1.524 . S
C686 H698 0.956 . S
C686 H699 0.961 . S
C686 H700 0.961 . S
C687 C684 1.539 . S
C687 H701 0.958 . S
C687 H702 0.961 . S
C687 H703 0.960 . S
H688 C672 0.931 . S
H689 C677 0.929 . S
H690 C678 0.960 . S
H691 C678 0.962 . S
H692 C678 0.960 . S
H693 C679 0.961 . S
H694 C679 0.961 . S
H695 C679 0.961 . S
H696 C680 0.931 . S
H697 C685 0.930 . S
H698 C686 0.956 . S
H699 C686 0.961 . S
H700 C686 0.961 . S
H701 C687 0.958 . S
H702 C687 0.961 . S
H703 C687 0.960 . S
C704 C705 1.391 . S
C704 C706 1.394 . S
C704 H720 0.931 . S
C705 C704 1.391 . S
C705 C709 1.376 . S
C706 C704 1.394 . S
C706 C707 1.369 . S
C706 C710 1.531 . S
C707 C706 1.369 . S
C707 C708 1.410 . S
C707 C715 1.503 . S
C708 C707 1.410 . S
C708 C709 1.392 . S
C708 C711 1.511 . S
C709 C705 1.376 . S
C709 C708 1.392 . S
C709 H721 0.929 . S
C710 C706 1.531 . S
C710 H722 0.960 . S
C710 H723 0.962 . S
C710 H724 0.960 . S
C711 C708 1.511 . S
C711 H725 0.961 . S
C711 H726 0.961 . S
C711 H727 0.961 . S
C712 C713 1.370 . S
C712 C714 1.363 . S
C712 H728 0.931 . S
C713 C712 1.370 . S
C713 C717 1.408 . S
C714 C712 1.363 . S
C714 C715 1.370 . S
C714 C718 1.524 . S
C715 C707 1.503 . S
C715 C714 1.370 . S
C715 C716 1.403 . S
C716 C715 1.403 . S
C716 C717 1.404 . S
C716 C719 1.539 . S
C717 C713 1.408 . S
C717 C716 1.404 . S
C717 H729 0.930 . S
C718 C714 1.524 . S
C718 H730 0.956 . S
C718 H731 0.961 . S
C718 H732 0.961 . S
C719 C716 1.539 . S
C719 H733 0.958 . S
C719 H734 0.961 . S
C719 H735 0.960 . S
H720 C704 0.931 . S
H721 C709 0.929 . S
H722 C710 0.960 . S
H723 C710 0.962 . S
H724 C710 0.960 . S
H725 C711 0.961 . S
H726 C711 0.961 . S
H727 C711 0.961 . S
H728 C712 0.931 . S
H729 C717 0.930 . S
H730 C718 0.956 . S
H731 C718 0.961 . S
H732 C718 0.961 . S
H733 C719 0.958 . S
H734 C719 0.961 . S
H735 C719 0.960 . S
C736 C737 1.391 . S
C736 C738 1.394 . S
C736 H752 0.931 . S
C737 C736 1.391 . S
C737 C741 1.376 . S
C738 C736 1.394 . S
C738 C739 1.369 . S
C738 C742 1.531 . S
C739 C738 1.369 . S
C739 C740 1.410 . S
C739 C747 1.503 . S
C740 C739 1.410 . S
C740 C741 1.392 . S
C740 C743 1.511 . S
C741 C737 1.376 . S
C741 C740 1.392 . S
C741 H753 0.929 . S
C742 C738 1.531 . S
C742 H754 0.960 . S
C742 H755 0.962 . S
C742 H756 0.960 . S
C743 C740 1.511 . S
C743 H757 0.961 . S
C743 H758 0.961 . S
C743 H759 0.961 . S
C744 C745 1.370 . S
C744 C746 1.363 . S
C744 H760 0.931 . S
C745 C744 1.370 . S
C745 C749 1.408 . S
C746 C744 1.363 . S
C746 C747 1.370 . S
C746 C750 1.524 . S
C747 C739 1.503 . S
C747 C746 1.370 . S
C747 C748 1.403 . S
C748 C747 1.403 . S
C748 C749 1.404 . S
C748 C751 1.539 . S
C749 C745 1.408 . S
C749 C748 1.404 . S
C749 H761 0.930 . S
C750 C746 1.524 . S
C750 H762 0.956 . S
C750 H763 0.961 . S
C750 H764 0.961 . S
C751 C748 1.539 . S
C751 H765 0.958 . S
C751 H766 0.961 . S
C751 H767 0.960 . S
H752 C736 0.931 . S
H753 C741 0.929 . S
H754 C742 0.960 . S
H755 C742 0.962 . S
H756 C742 0.960 . S
H757 C743 0.961 . S
H758 C743 0.961 . S
H759 C743 0.961 . S
H760 C744 0.931 . S
H761 C749 0.930 . S
H762 C750 0.956 . S
H763 C750 0.961 . S
H764 C750 0.961 . S
H765 C751 0.958 . S
H766 C751 0.961 . S
H767 C751 0.960 . S
C768 C769 1.391 . S
C768 C770 1.394 . S
C768 H784 0.931 . S
C769 C768 1.391 . S
C769 C773 1.376 . S
C770 C768 1.394 . S
C770 C771 1.369 . S
C770 C774 1.531 . S
C771 C770 1.369 . S
C771 C772 1.410 . S
C771 C779 1.503 . S
C772 C771 1.410 . S
C772 C773 1.392 . S
C772 C775 1.511 . S
C773 C769 1.376 . S
C773 C772 1.392 . S
C773 H785 0.929 . S
C774 C770 1.531 . S
C774 H786 0.960 . S
C774 H787 0.962 . S
C774 H788 0.960 . S
C775 C772 1.511 . S
C775 H789 0.961 . S
C775 H790 0.961 . S
C775 H791 0.961 . S
C776 C777 1.370 . S
C776 C778 1.363 . S
C776 H792 0.931 . S
C777 C776 1.370 . S
C777 C781 1.408 . S
C778 C776 1.363 . S
C778 C779 1.370 . S
C778 C782 1.524 . S
C779 C771 1.503 . S
C779 C778 1.370 . S
C779 C780 1.403 . S
C780 C779 1.403 . S
C780 C781 1.404 . S
C780 C783 1.539 . S
C781 C777 1.408 . S
C781 C780 1.404 . S
C781 H793 0.930 . S
C782 C778 1.524 . S
C782 H794 0.956 . S
C782 H795 0.961 . S
C782 H796 0.961 . S
C783 C780 1.539 . S
C783 H797 0.958 . S
C783 H798 0.961 . S
C783 H799 0.960 . S
H784 C768 0.931 . S
H785 C773 0.929 . S
H786 C774 0.960 . S
H787 C774 0.962 . S
H788 C774 0.960 . S
H789 C775 0.961 . S
H790 C775 0.961 . S
H791 C775 0.961 . S
H792 C776 0.931 . S
H793 C781 0.930 . S
H794 C782 0.956 . S
H795 C782 0.961 . S
H796 C782 0.961 . S
H797 C783 0.958 . S
H798 C783 0.961 . S
H799 C783 0.960 . S
C800 C801 1.391 . S
C800 C802 1.394 . S
C800 H816 0.931 . S
C801 C800 1.391 . S
C801 C805 1.376 . S
C802 C800 1.394 . S
C802 C803 1.369 1_545 S
C802 C806 1.531 . S
C803 C802 1.369 1_565 S
C803 C804 1.410 . S
C803 C811 1.503 . S
C804 C803 1.410 . S
C804 C805 1.392 1_565 S
C804 C807 1.511 . S
C805 C801 1.376 . S
C805 C804 1.392 1_545 S
C805 H817 0.929 . S
C806 C802 1.531 . S
C806 H818 0.960 1_545 S
C806 H819 0.962 . S
C806 H820 0.960 . S
C807 C804 1.511 . S
C807 H821 0.961 . S
C807 H822 0.961 . S
C807 H823 0.961 . S
C808 C809 1.370 1_545 S
C808 C810 1.363 . S
C808 H824 0.931 . S
C809 C808 1.370 1_565 S
C809 C813 1.408 . S
C810 C808 1.363 . S
C810 C811 1.370 1_545 S
C810 C814 1.524 . S
C811 C803 1.503 . S
C811 C810 1.370 1_565 S
C811 C812 1.403 . S
C812 C811 1.403 . S
C812 C813 1.404 . S
C812 C815 1.539 . S
C813 C809 1.408 . S
C813 C812 1.404 . S
C813 H825 0.930 . S
C814 C810 1.524 . S
C814 H826 0.956 . S
C814 H827 0.961 . S
C814 H828 0.961 . S
C815 C812 1.539 . S
C815 H829 0.958 . S
C815 H830 0.961 . S
C815 H831 0.960 . S
H816 C800 0.931 . S
H817 C805 0.929 . S
H818 C806 0.960 1_565 S
H819 C806 0.962 . S
H820 C806 0.960 . S
H821 C807 0.961 . S
H822 C807 0.961 . S
H823 C807 0.961 . S
H824 C808 0.931 . S
H825 C813 0.930 . S
H826 C814 0.956 . S
H827 C814 0.961 . S
H828 C814 0.961 . S
H829 C815 0.958 . S
H830 C815 0.961 . S
H831 C815 0.960 . S
C832 C833 1.391 1_565 S
C832 C834 1.394 . S
C832 H848 0.931 . S
C833 C832 1.391 1_545 S
C833 C837 1.376 . S
C834 C832 1.394 . S
C834 C835 1.371 . S
C834 C838 1.531 . S
C835 C834 1.371 . S
C835 C836 1.407 1_565 S
C835 C843 1.504 1_655 S
C836 C835 1.407 1_545 S
C836 C837 1.392 . S
C836 C839 1.511 1_554 S
C837 C833 1.376 . S
C837 C836 1.392 . S
C837 H849 0.929 . S
C838 C834 1.531 . S
C838 H850 0.960 . S
C838 H851 0.962 . S
C838 H852 0.960 . S
C839 C836 1.511 1_556 S
C839 H853 0.961 . S
C839 H854 0.961 1_656 S
C839 H855 0.961 . S
C840 C841 1.406 . S
C840 C842 1.351 1_565 S
C840 H856 0.910 1_565 S
C841 C840 1.406 . S
C841 C845 1.408 . S
C842 C840 1.351 1_545 S
C842 C843 1.370 1_545 S
C842 C846 1.524 . S
C843 C835 1.504 1_455 S
C843 C842 1.370 1_565 S
C843 C844 1.403 . S
C844 C843 1.403 . S
C844 C845 1.404 . S
C844 C847 1.539 1_554 S
C845 C841 1.408 . S
C845 C844 1.404 . S
C845 H857 0.930 1_554 S
C846 C842 1.524 . S
C846 H858 0.956 . S
C846 H859 0.961 . S
C846 H860 0.961 . S
C847 C844 1.539 1_556 S
C847 H861 0.958 . S
C847 H862 0.961 . S
C847 H863 0.960 1_455 S
H848 C832 0.931 . S
H849 C837 0.929 . S
H850 C838 0.960 . S
H851 C838 0.962 . S
H852 C838 0.960 . S
H853 C839 0.961 . S
H854 C839 0.961 1_454 S
H855 C839 0.961 . S
H856 C840 0.910 1_545 S
H857 C845 0.930 1_556 S
H858 C846 0.956 . S
H859 C846 0.961 . S
H860 C846 0.961 . S
H861 C847 0.958 . S
H862 C847 0.961 . S
H863 C847 0.960 1_655 S
C864 C865 1.391 1_565 S
C864 C866 1.394 . S
C864 H880 0.931 . S
C865 C864 1.391 1_545 S
C865 C869 1.376 . S
C866 C864 1.394 . S
C866 C867 1.369 1_565 S
C866 C870 1.531 . S
C867 C866 1.369 1_545 S
C867 C868 1.410 . S
C867 C875 1.503 1_545 S
C868 C867 1.410 . S
C868 C869 1.392 . S
C868 C871 1.511 . S
C869 C865 1.376 . S
C869 C868 1.392 . S
C869 H881 0.929 . S
C870 C866 1.531 . S
C870 H882 0.960 . S
C870 H883 0.962 . S
C870 H884 0.960 . S
C871 C868 1.511 . S
C871 H885 0.961 . S
C871 H886 0.961 . S
C871 H887 0.961 . S
C872 C873 1.370 . S
C872 C874 1.363 . S
C872 H888 0.931 1_554 S
C873 C872 1.370 . S
C873 C877 1.408 . S
C874 C872 1.363 . S
C874 C875 1.370 . S
C874 C878 1.524 1_554 S
C875 C867 1.503 1_565 S
C875 C874 1.370 . S
C875 C876 1.403 . S
C876 C875 1.403 . S
C876 C877 1.404 . S
C876 C879 1.539 1_565 S
C877 C873 1.408 . S
C877 C876 1.404 . S
C877 H889 0.930 . S
C878 C874 1.524 1_556 S
C878 H890 0.956 . S
C878 H891 0.961 1_565 S
C878 H892 0.961 . S
C879 C876 1.539 1_545 S
C879 H893 0.958 1_545 S
C879 H894 0.961 . S
C879 H895 0.960 . S
H880 C864 0.931 . S
H881 C869 0.929 . S
H882 C870 0.960 . S
H883 C870 0.962 . S
H884 C870 0.960 . S
H885 C871 0.961 . S
H886 C871 0.961 . S
H887 C871 0.961 . S
H888 C872 0.931 1_556 S
H889 C877 0.930 . S
H890 C878 0.956 . S
H891 C878 0.961 1_545 S
H892 C878 0.961 . S
H893 C879 0.958 1_565 S
H894 C879 0.961 . S
H895 C879 0.960 . S
C896 C897 1.391 1_565 S
C896 C898 1.394 . S
C896 H912 0.931 . S
C897 C896 1.391 1_545 S
C897 C901 1.376 . S
C898 C896 1.394 . S
C898 C899 1.369 1_565 S
C898 C902 1.531 . S
C899 C898 1.369 1_545 S
C899 C900 1.410 . S
C899 C907 1.503 1_445 S
C900 C899 1.410 . S
C900 C901 1.392 . S
C900 C903 1.511 . S
C901 C897 1.376 . S
C901 C900 1.392 . S
C901 H913 0.929 . S
C902 C898 1.531 . S
C902 H914 0.960 . S
C902 H915 0.962 . S
C902 H916 0.960 . S
C903 C900 1.511 . S
C903 H917 0.961 . S
C903 H918 0.961 1_455 S
C903 H919 0.961 1_455 S
C904 C905 1.370 . S
C904 C906 1.363 . S
C904 H920 0.931 . S
C905 C904 1.370 . S
C905 C909 1.408 . S
C906 C904 1.363 . S
C906 C907 1.370 . S
C906 C910 1.524 . S
C907 C899 1.503 1_665 S
C907 C906 1.370 . S
C907 C908 1.403 . S
C908 C907 1.403 . S
C908 C909 1.404 . S
C908 C911 1.539 1_565 S
C909 C905 1.408 . S
C909 C908 1.404 . S
C909 H921 0.930 . S
C910 C906 1.524 . S
C910 H922 0.956 1_655 S
C910 H923 0.966 1_565 S
C910 H924 0.961 . S
C911 C908 1.539 1_545 S
C911 H925 0.958 1_545 S
C911 H926 0.961 . S
C911 H927 0.960 . S
H912 C896 0.931 . S
H913 C901 0.929 . S
H914 C902 0.960 . S
H915 C902 0.962 . S
H916 C902 0.960 . S
H917 C903 0.961 . S
H918 C903 0.961 1_655 S
H919 C903 0.961 1_655 S
H920 C904 0.931 . S
H921 C909 0.930 . S
H922 C910 0.956 1_455 S
H923 C910 0.966 1_545 S
H924 C910 0.961 . S
H925 C911 0.958 1_565 S
H926 C911 0.961 . S
H927 C911 0.960 . S
C928 C929 1.391 . S
C928 C930 1.394 . S
C928 H944 0.931 . S
C929 C928 1.391 . S
C929 C933 1.376 . S
C930 C928 1.394 . S
C930 C931 1.369 . S
C930 C934 1.531 . S
C931 C930 1.369 . S
C931 C932 1.410 . S
C931 C939 1.503 . S
C932 C931 1.410 . S
C932 C933 1.392 . S
C932 C935 1.511 . S
C933 C929 1.376 . S
C933 C932 1.392 . S
C933 H945 0.929 . S
C934 C930 1.531 . S
C934 H946 0.960 . S
C934 H947 0.962 . S
C934 H948 0.960 . S
C935 C932 1.511 . S
C935 H949 0.961 . S
C935 H950 0.961 . S
C935 H951 0.961 . S
C936 C937 1.370 . S
C936 C938 1.363 . S
C936 H952 0.931 . S
C937 C936 1.370 . S
C937 C941 1.408 . S
C938 C936 1.363 . S
C938 C939 1.370 . S
C938 C942 1.524 . S
C939 C931 1.503 . S
C939 C938 1.370 . S
C939 C940 1.403 . S
C940 C939 1.403 . S
C940 C941 1.404 . S
C940 C943 1.539 . S
C941 C937 1.408 . S
C941 C940 1.404 . S
C941 H953 0.930 . S
C942 C938 1.524 . S
C942 H954 0.956 . S
C942 H955 0.961 . S
C942 H956 0.961 . S
C943 C940 1.539 . S
C943 H957 0.958 . S
C943 H958 0.961 . S
C943 H959 0.960 . S
H944 C928 0.931 . S
H945 C933 0.929 . S
H946 C934 0.960 . S
H947 C934 0.962 . S
H948 C934 0.960 . S
H949 C935 0.961 . S
H950 C935 0.961 . S
H951 C935 0.961 . S
H952 C936 0.931 . S
H953 C941 0.930 . S
H954 C942 0.956 . S
H955 C942 0.961 . S
H956 C942 0.961 . S
H957 C943 0.958 . S
H958 C943 0.961 . S
H959 C943 0.960 . S
C960 C961 1.391 . S
C960 C962 1.394 1_556 S
C960 H976 0.931 . S
C961 C960 1.391 . S
C961 C965 1.376 . S
C962 C960 1.394 1_554 S
C962 C963 1.369 . S
C962 C966 1.531 . S
C963 C962 1.369 . S
C963 C964 1.410 . S
C963 C971 1.503 . S
C964 C963 1.410 . S
C964 C965 1.392 1_554 S
C964 C967 1.511 . S
C965 C961 1.376 . S
C965 C964 1.392 1_556 S
C965 H977 0.929 . S
C966 C962 1.531 . S
C966 H978 0.960 . S
C966 H979 0.962 . S
C966 H980 0.960 . S
C967 C964 1.511 . S
C967 H981 0.961 . S
C967 H982 0.961 . S
C967 H983 0.961 . S
C968 C969 1.370 . S
C968 C970 1.363 . S
C968 H984 0.931 . S
C969 C968 1.370 . S
C969 C973 1.408 . S
C970 C968 1.363 . S
C970 C971 1.370 . S
C970 C974 1.524 . S
C971 C963 1.503 . S
C971 C970 1.370 . S
C971 C972 1.403 . S
C972 C971 1.403 . S
C972 C973 1.404 . S
C972 C975 1.539 . S
C973 C969 1.408 . S
C973 C972 1.404 . S
C973 H985 0.930 . S
C974 C970 1.524 . S
C974 H986 0.956 . S
C974 H987 0.961 . S
C974 H988 0.961 . S
C975 C972 1.539 . S
C975 H989 0.958 . S
C975 H990 0.961 . S
C975 H991 0.960 . S
H976 C960 0.931 . S
H977 C965 0.929 . S
H978 C966 0.960 . S
H979 C966 0.962 . S
H980 C966 0.960 . S
H981 C967 0.961 . S
H982 C967 0.961 . S
H983 C967 0.961 . S
H984 C968 0.931 . S
H985 C973 0.930 . S
H986 C974 0.956 . S
H987 C974 0.961 . S
H988 C974 0.961 . S
H989 C975 0.958 . S
H990 C975 0.961 . S
H991 C975 0.960 . S
C992 C993 1.391 . S
C992 C994 1.394 . S
C992 H1008 0.931 . S
C993 C992 1.391 . S
C993 C997 1.376 . S
C994 C992 1.394 . S
C994 C995 1.369 . S
C994 C998 1.531 . S
C995 C994 1.369 . S
C995 C996 1.410 . S
C995 C1003 1.503 . S
C996 C995 1.410 . S
C996 C997 1.392 . S
C996 C999 1.511 . S
C997 C993 1.376 . S
C997 C996 1.392 . S
C997 H1009 0.929 . S
C998 C994 1.531 . S
C998 H1010 0.960 . S
C998 H1011 0.962 . S
C998 H1012 0.960 . S
C999 C996 1.511 . S
C999 H1013 0.961 . S
C999 H1014 0.961 . S
C999 H1015 0.961 . S
C1000 C1001 1.370 . S
C1000 C1002 1.363 . S
C1000 H1016 0.931 . S
C1001 C1000 1.370 . S
C1001 C1005 1.408 . S
C1002 C1000 1.363 . S
C1002 C1003 1.370 . S
C1002 C1006 1.524 . S
C1003 C995 1.503 . S
C1003 C1002 1.370 . S
C1003 C1004 1.403 . S
C1004 C1003 1.403 . S
C1004 C1005 1.404 . S
C1004 C1007 1.539 . S
C1005 C1001 1.408 . S
C1005 C1004 1.404 . S
C1005 H1017 0.930 . S
C1006 C1002 1.524 . S
C1006 H1018 0.956 . S
C1006 H1019 0.961 . S
C1006 H1020 0.961 . S
C1007 C1004 1.539 . S
C1007 H1021 0.958 . S
C1007 H1022 0.961 . S
C1007 H1023 0.960 . S
H1008 C992 0.931 . S
H1009 C997 0.929 . S
H1010 C998 0.960 . S
H1011 C998 0.962 . S
H1012 C998 0.960 . S
H1013 C999 0.961 . S
H1014 C999 0.961 . S
H1015 C999 0.961 . S
H1016 C1000 0.931 . S
H1017 C1005 0.930 . S
H1018 C1006 0.956 . S
H1019 C1006 0.961 . S
H1020 C1006 0.961 . S
H1021 C1007 0.958 . S
H1022 C1007 0.961 . S
H1023 C1007 0.960 . S
C1024 C1025 1.391 . S
C1024 C1026 1.394 . S
C1024 H1040 0.931 . S
C1025 C1024 1.391 . S
C1025 C1029 1.376 . S
C1026 C1024 1.394 . S
C1026 C1027 1.369 . S
C1026 C1030 1.531 . S
C1027 C1026 1.369 . S
C1027 C1028 1.410 . S
C1027 C1035 1.503 . S
C1028 C1027 1.410 . S
C1028 C1029 1.392 . S
C1028 C1031 1.511 . S
C1029 C1025 1.376 . S
C1029 C1028 1.392 . S
C1029 H1041 0.929 . S
C1030 C1026 1.531 . S
C1030 H1042 0.960 . S
C1030 H1043 0.962 . S
C1030 H1044 0.960 . S
C1031 C1028 1.511 . S
C1031 H1045 0.961 . S
C1031 H1046 0.961 . S
C1031 H1047 0.961 . S
C1032 C1033 1.370 . S
C1032 C1034 1.363 . S
C1032 H1048 0.931 . S
C1033 C1032 1.370 . S
C1033 C1037 1.408 . S
C1034 C1032 1.363 . S
C1034 C1035 1.370 . S
C1034 C1038 1.524 . S
C1035 C1027 1.503 . S
C1035 C1034 1.370 . S
C1035 C1036 1.403 . S
C1036 C1035 1.403 . S
C1036 C1037 1.404 . S
C1036 C1039 1.539 . S
C1037 C1033 1.408 . S
C1037 C1036 1.404 . S
C1037 H1049 0.930 . S
C1038 C1034 1.524 . S
C1038 H1050 0.956 . S
C1038 H1051 0.961 . S
C1038 H1052 0.961 . S
C1039 C1036 1.539 . S
C1039 H1053 0.958 . S
C1039 H1054 0.961 . S
C1039 H1055 0.960 . S
H1040 C1024 0.931 . S
H1041 C1029 0.929 . S
H1042 C1030 0.960 . S
H1043 C1030 0.962 . S
H1044 C1030 0.960 . S
H1045 C1031 0.961 . S
H1046 C1031 0.961 . S
H1047 C1031 0.961 . S
H1048 C1032 0.931 . S
H1049 C1037 0.930 . S
H1050 C1038 0.956 . S
H1051 C1038 0.961 . S
H1052 C1038 0.961 . S
H1053 C1039 0.958 . S
H1054 C1039 0.961 . S
H1055 C1039 0.960 . S
C1056 C1057 1.391 . S
C1056 C1058 1.394 . S
C1056 H1072 0.931 . S
C1057 C1056 1.391 . S
C1057 C1061 1.376 . S
C1058 C1056 1.394 . S
C1058 C1059 1.369 . S
C1058 C1062 1.531 . S
C1059 C1058 1.369 . S
C1059 C1060 1.410 . S
C1059 C1067 1.503 . S
C1060 C1059 1.410 . S
C1060 C1061 1.392 . S
C1060 C1063 1.511 . S
C1061 C1057 1.376 . S
C1061 C1060 1.392 . S
C1061 H1073 0.929 . S
C1062 C1058 1.531 . S
C1062 H1074 0.960 . S
C1062 H1075 0.962 . S
C1062 H1076 0.960 . S
C1063 C1060 1.511 . S
C1063 H1077 0.961 . S
C1063 H1078 0.961 . S
C1063 H1079 0.961 . S
C1064 C1065 1.370 . S
C1064 C1066 1.363 . S
C1064 H1080 0.931 . S
C1065 C1064 1.370 . S
C1065 C1069 1.408 . S
C1066 C1064 1.363 . S
C1066 C1067 1.370 . S
C1066 C1070 1.524 . S
C1067 C1059 1.503 . S
C1067 C1066 1.370 . S
C1067 C1068 1.403 . S
C1068 C1067 1.403 . S
C1068 C1069 1.404 . S
C1068 C1071 1.539 . S
C1069 C1065 1.408 . S
C1069 C1068 1.404 . S
C1069 H1081 0.930 . S
C1070 C1066 1.524 . S
C1070 H1082 0.956 . S
C1070 H1083 0.961 . S
C1070 H1084 0.961 . S
C1071 C1068 1.539 . S
C1071 H1085 0.958 . S
C1071 H1086 0.961 . S
C1071 H1087 0.960 . S
H1072 C1056 0.931 . S
H1073 C1061 0.929 . S
H1074 C1062 0.960 . S
H1075 C1062 0.962 . S
H1076 C1062 0.960 . S
H1077 C1063 0.961 . S
H1078 C1063 0.961 . S
H1079 C1063 0.961 . S
H1080 C1064 0.931 . S
H1081 C1069 0.930 . S
H1082 C1070 0.956 . S
H1083 C1070 0.961 . S
H1084 C1070 0.961 . S
H1085 C1071 0.958 . S
H1086 C1071 0.961 . S
H1087 C1071 0.960 . S
C1088 C1089 1.391 . S
C1088 C1090 1.394 1_556 S
C1088 H1104 0.931 . S
C1089 C1088 1.391 . S
C1089 C1093 1.376 . S
C1090 C1088 1.394 1_554 S
C1090 C1091 1.369 . S
C1090 C1094 1.531 . S
C1091 C1090 1.369 . S
C1091 C1092 1.410 . S
C1091 C1099 1.503 . S
C1092 C1091 1.410 . S
C1092 C1093 1.392 1_554 S
C1092 C1095 1.511 . S
C1093 C1089 1.376 . S
C1093 C1092 1.392 1_556 S
C1093 H1105 0.929 . S
C1094 C1090 1.531 . S
C1094 H1106 0.960 . S
C1094 H1107 0.962 . S
C1094 H1108 0.960 . S
C1095 C1092 1.511 . S
C1095 H1109 0.961 . S
C1095 H1110 0.961 . S
C1095 H1111 0.961 . S
C1096 C1097 1.370 . S
C1096 C1098 1.363 . S
C1096 H1112 0.931 . S
C1097 C1096 1.370 . S
C1097 C1101 1.408 . S
C1098 C1096 1.363 . S
C1098 C1099 1.370 . S
C1098 C1102 1.524 . S
C1099 C1091 1.503 . S
C1099 C1098 1.370 . S
C1099 C1100 1.403 . S
C1100 C1099 1.403 . S
C1100 C1101 1.404 . S
C1100 C1103 1.539 . S
C1101 C1097 1.408 . S
C1101 C1100 1.404 . S
C1101 H1113 0.930 . S
C1102 C1098 1.524 . S
C1102 H1114 0.956 . S
C1102 H1115 0.961 . S
C1102 H1116 0.961 . S
C1103 C1100 1.539 . S
C1103 H1117 0.958 . S
C1103 H1118 0.961 . S
C1103 H1119 0.960 . S
H1104 C1088 0.931 . S
H1105 C1093 0.929 . S
H1106 C1094 0.960 . S
H1107 C1094 0.962 . S
H1108 C1094 0.960 . S
H1109 C1095 0.961 . S
H1110 C1095 0.961 . S
H1111 C1095 0.961 . S
H1112 C1096 0.931 . S
H1113 C1101 0.930 . S
H1114 C1102 0.956 . S
H1115 C1102 0.961 . S
H1116 C1102 0.961 . S
H1117 C1103 0.958 . S
H1118 C1103 0.961 . S
H1119 C1103 0.960 . S
C1120 C1121 1.391 . S
C1120 C1122 1.394 . S
C1120 H1136 0.931 . S
C1121 C1120 1.391 . S
C1121 C1125 1.376 . S
C1122 C1120 1.394 . S
C1122 C1123 1.369 . S
C1122 C1126 1.531 . S
C1123 C1122 1.369 . S
C1123 C1124 1.410 . S
C1123 C1131 1.503 . S
C1124 C1123 1.410 . S
C1124 C1125 1.392 . S
C1124 C1127 1.511 . S
C1125 C1121 1.376 . S
C1125 C1124 1.392 . S
C1125 H1137 0.929 . S
C1126 C1122 1.531 . S
C1126 H1138 0.960 . S
C1126 H1139 0.962 . S
C1126 H1140 0.960 . S
C1127 C1124 1.511 . S
C1127 H1141 0.961 . S
C1127 H1142 0.961 . S
C1127 H1143 0.961 . S
C1128 C1129 1.370 . S
C1128 C1130 1.363 . S
C1128 H1144 0.931 . S
C1129 C1128 1.370 . S
C1129 C1133 1.408 . S
C1130 C1128 1.363 . S
C1130 C1131 1.370 . S
C1130 C1134 1.524 . S
C1131 C1123 1.503 . S
C1131 C1130 1.370 . S
C1131 C1132 1.403 . S
C1132 C1131 1.403 . S
C1132 C1133 1.404 . S
C1132 C1135 1.539 . S
C1133 C1129 1.408 . S
C1133 C1132 1.404 . S
C1133 H1145 0.930 . S
C1134 C1130 1.524 . S
C1134 H1146 0.956 . S
C1134 H1147 0.961 . S
C1134 H1148 0.961 . S
C1135 C1132 1.539 . S
C1135 H1149 0.958 . S
C1135 H1150 0.961 . S
C1135 H1151 0.960 . S
H1136 C1120 0.931 . S
H1137 C1125 0.929 . S
H1138 C1126 0.960 . S
H1139 C1126 0.962 . S
H1140 C1126 0.960 . S
H1141 C1127 0.961 . S
H1142 C1127 0.961 . S
H1143 C1127 0.961 . S
H1144 C1128 0.931 . S
H1145 C1133 0.930 . S
H1146 C1134 0.956 . S
H1147 C1134 0.961 . S
H1148 C1134 0.961 . S
H1149 C1135 0.958 . S
H1150 C1135 0.961 . S
H1151 C1135 0.960 . S
C1152 C1153 1.391 . S
C1152 C1154 1.394 . S
C1152 H1168 0.931 . S
C1153 C1152 1.391 . S
C1153 C1157 1.376 . S
C1154 C1152 1.394 . S
C1154 C1155 1.369 . S
C1154 C1158 1.531 . S
C1155 C1154 1.369 . S
C1155 C1156 1.410 . S
C1155 C1163 1.503 . S
C1156 C1155 1.410 . S
C1156 C1157 1.392 . S
C1156 C1159 1.511 . S
C1157 C1153 1.376 . S
C1157 C1156 1.392 . S
C1157 H1169 0.929 . S
C1158 C1154 1.531 . S
C1158 H1170 0.960 . S
C1158 H1171 0.962 . S
C1158 H1172 0.960 . S
C1159 C1156 1.511 . S
C1159 H1173 0.961 . S
C1159 H1174 0.961 . S
C1159 H1175 0.961 . S
C1160 C1161 1.370 . S
C1160 C1162 1.363 . S
C1160 H1176 0.931 . S
C1161 C1160 1.370 . S
C1161 C1165 1.408 . S
C1162 C1160 1.363 . S
C1162 C1163 1.370 . S
C1162 C1166 1.524 . S
C1163 C1155 1.503 . S
C1163 C1162 1.370 . S
C1163 C1164 1.403 . S
C1164 C1163 1.403 . S
C1164 C1165 1.404 . S
C1164 C1167 1.539 . S
C1165 C1161 1.408 . S
C1165 C1164 1.404 . S
C1165 H1177 0.930 . S
C1166 C1162 1.524 . S
C1166 H1178 0.956 . S
C1166 H1179 0.961 . S
C1166 H1180 0.961 . S
C1167 C1164 1.539 . S
C1167 H1181 0.958 . S
C1167 H1182 0.961 . S
C1167 H1183 0.960 . S
H1168 C1152 0.931 . S
H1169 C1157 0.929 . S
H1170 C1158 0.960 . S
H1171 C1158 0.962 . S
H1172 C1158 0.960 . S
H1173 C1159 0.961 . S
H1174 C1159 0.961 . S
H1175 C1159 0.961 . S
H1176 C1160 0.931 . S
H1177 C1165 0.930 . S
H1178 C1166 0.956 . S
H1179 C1166 0.961 . S
H1180 C1166 0.961 . S
H1181 C1167 0.958 . S
H1182 C1167 0.961 . S
H1183 C1167 0.960 . S
C1184 C1185 1.391 . S
C1184 C1186 1.394 . S
C1184 H1200 0.931 . S
C1185 C1184 1.391 . S
C1185 C1189 1.376 1_545 S
C1186 C1184 1.394 . S
C1186 C1187 1.369 . S
C1186 C1190 1.531 . S
C1187 C1186 1.369 . S
C1187 C1188 1.410 1_545 S
C1187 C1195 1.503 . S
C1188 C1187 1.410 1_565 S
C1188 C1189 1.392 . S
C1188 C1191 1.511 . S
C1189 C1185 1.376 1_565 S
C1189 C1188 1.392 . S
C1189 H1201 0.929 . S
C1190 C1186 1.531 . S
C1190 H1202 0.960 . S
C1190 H1203 0.962 . S
C1190 H1204 0.960 . S
C1191 C1188 1.511 . S
C1191 H1205 0.961 . S
C1191 H1206 0.961 . S
C1191 H1207 0.961 . S
C1192 C1193 1.370 . S
C1192 C1194 1.363 . S
C1192 H1208 0.931 . S
C1193 C1192 1.370 . S
C1193 C1197 1.408 1_565 S
C1194 C1192 1.363 . S
C1194 C1195 1.370 1_565 S
C1194 C1198 1.524 . S
C1195 C1187 1.503 . S
C1195 C1194 1.370 1_545 S
C1195 C1196 1.403 . S
C1196 C1195 1.403 . S
C1196 C1197 1.404 . S
C1196 C1199 1.539 . S
C1197 C1193 1.408 1_545 S
C1197 C1196 1.404 . S
C1197 H1209 0.930 . S
C1198 C1194 1.524 . S
C1198 H1210 0.956 . S
C1198 H1211 0.961 . S
C1198 H1212 0.961 . S
C1199 C1196 1.539 . S
C1199 H1213 0.958 . S
C1199 H1214 0.961 . S
C1199 H1215 0.960 . S
H1200 C1184 0.931 . S
H1201 C1189 0.929 . S
H1202 C1190 0.960 . S
H1203 C1190 0.962 . S
H1204 C1190 0.960 . S
H1205 C1191 0.961 . S
H1206 C1191 0.961 . S
H1207 C1191 0.961 . S
H1208 C1192 0.931 . S
H1209 C1197 0.930 . S
H1210 C1198 0.956 . S
H1211 C1198 0.961 . S
H1212 C1198 0.961 . S
H1213 C1199 0.958 . S
H1214 C1199 0.961 . S
H1215 C1199 0.960 . S
C1216 C1217 1.391 . S
C1216 C1218 1.394 . S
C1216 H1232 0.931 . S
C1217 C1216 1.391 . S
C1217 C1221 1.376 . S
C1218 C1216 1.394 . S
C1218 C1219 1.369 . S
C1218 C1222 1.531 . S
C1219 C1218 1.369 . S
C1219 C1220 1.410 . S
C1219 C1227 1.503 . S
C1220 C1219 1.410 . S
C1220 C1221 1.392 . S
C1220 C1223 1.511 . S
C1221 C1217 1.376 . S
C1221 C1220 1.392 . S
C1221 H1233 0.929 . S
C1222 C1218 1.531 . S
C1222 H1234 0.960 . S
C1222 H1235 0.962 . S
C1222 H1236 0.960 . S
C1223 C1220 1.511 . S
C1223 H1237 0.961 . S
C1223 H1238 0.961 . S
C1223 H1239 0.961 . S
C1224 C1225 1.370 . S
C1224 C1226 1.363 . S
C1224 H1240 0.931 . S
C1225 C1224 1.370 . S
C1225 C1229 1.408 . S
C1226 C1224 1.363 . S
C1226 C1227 1.370 . S
C1226 C1230 1.524 . S
C1227 C1219 1.503 . S
C1227 C1226 1.370 . S
C1227 C1228 1.403 . S
C1228 C1227 1.403 . S
C1228 C1229 1.404 . S
C1228 C1231 1.539 . S
C1229 C1225 1.408 . S
C1229 C1228 1.404 . S
C1229 H1241 0.930 . S
C1230 C1226 1.524 . S
C1230 H1242 0.956 . S
C1230 H1243 0.961 . S
C1230 H1244 0.961 . S
C1231 C1228 1.539 . S
C1231 H1245 0.958 . S
C1231 H1246 0.961 . S
C1231 H1247 0.960 . S
H1232 C1216 0.931 . S
H1233 C1221 0.929 . S
H1234 C1222 0.960 . S
H1235 C1222 0.962 . S
H1236 C1222 0.960 . S
H1237 C1223 0.961 . S
H1238 C1223 0.961 . S
H1239 C1223 0.961 . S
H1240 C1224 0.931 . S
H1241 C1229 0.930 . S
H1242 C1230 0.956 . S
H1243 C1230 0.961 . S
H1244 C1230 0.961 . S
H1245 C1231 0.958 . S
H1246 C1231 0.961 . S
H1247 C1231 0.960 . S
C1248 C1249 1.391 1_565 S
C1248 C1250 1.394 . S
C1248 H1264 0.931 . S
C1249 C1248 1.391 1_545 S
C1249 C1253 1.376 . S
C1250 C1248 1.394 . S
C1250 C1251 1.369 . S
C1250 C1254 1.531 . S
C1251 C1250 1.369 . S
C1251 C1252 1.410 1_565 S
C1251 C1259 1.503 . S
C1252 C1251 1.410 1_545 S
C1252 C1253 1.392 . S
C1252 C1255 1.511 . S
C1253 C1249 1.376 . S
C1253 C1252 1.392 . S
C1253 H1265 0.929 . S
C1254 C1250 1.531 . S
C1254 H1266 0.960 . S
C1254 H1267 0.962 . S
C1254 H1268 0.960 . S
C1255 C1252 1.511 . S
C1255 H1269 0.961 . S
C1255 H1270 0.961 . S
C1255 H1271 0.961 1_545 S
C1256 C1257 1.370 1_545 S
C1256 C1258 1.363 . S
C1256 H1272 0.931 . S
C1257 C1256 1.370 1_565 S
C1257 C1261 1.408 . S
C1258 C1256 1.363 . S
C1258 C1259 1.370 1_545 S
C1258 C1262 1.524 . S
C1259 C1251 1.503 . S
C1259 C1258 1.370 1_565 S
C1259 C1260 1.403 . S
C1260 C1259 1.403 . S
C1260 C1261 1.404 . S
C1260 C1263 1.539 . S
C1261 C1257 1.408 . S
C1261 C1260 1.404 . S
C1261 H1273 0.930 . S
C1262 C1258 1.524 . S
C1262 H1274 0.956 . S
C1262 H1275 0.961 . S
C1262 H1276 0.961 . S
C1263 C1260 1.539 . S
C1263 H1277 0.958 . S
C1263 H1278 0.961 . S
C1263 H1279 0.960 . S
H1264 C1248 0.931 . S
H1265 C1253 0.929 . S
H1266 C1254 0.960 . S
H1267 C1254 0.962 . S
H1268 C1254 0.960 . S
H1269 C1255 0.961 . S
H1270 C1255 0.961 . S
H1271 C1255 0.961 1_565 S
H1272 C1256 0.931 . S
H1273 C1261 0.930 . S
H1274 C1262 0.956 . S
H1275 C1262 0.961 . S
H1276 C1262 0.961 . S
H1277 C1263 0.958 . S
H1278 C1263 0.961 . S
H1279 C1263 0.960 . S
C1280 C1281 1.391 . S
C1280 C1282 1.394 1_556 S
C1280 H1296 0.931 . S
C1281 C1280 1.391 . S
C1281 C1285 1.376 . S
C1282 C1280 1.394 1_554 S
C1282 C1283 1.369 . S
C1282 C1286 1.531 . S
C1283 C1282 1.369 . S
C1283 C1284 1.410 . S
C1283 C1291 1.503 . S
C1284 C1283 1.410 . S
C1284 C1285 1.392 1_554 S
C1284 C1287 1.511 . S
C1285 C1281 1.376 . S
C1285 C1284 1.392 1_556 S
C1285 H1297 0.929 . S
C1286 C1282 1.531 . S
C1286 H1298 0.960 . S
C1286 H1299 0.962 . S
C1286 H1300 0.960 . S
C1287 C1284 1.511 . S
C1287 H1301 0.961 . S
C1287 H1302 0.961 . S
C1287 H1303 0.961 . S
C1288 C1289 1.370 . S
C1288 C1290 1.363 . S
C1288 H1304 0.931 . S
C1289 C1288 1.370 . S
C1289 C1293 1.408 . S
C1290 C1288 1.363 . S
C1290 C1291 1.370 . S
C1290 C1294 1.524 . S
C1291 C1283 1.503 . S
C1291 C1290 1.370 . S
C1291 C1292 1.403 . S
C1292 C1291 1.403 . S
C1292 C1293 1.404 . S
C1292 C1295 1.539 . S
C1293 C1289 1.408 . S
C1293 C1292 1.404 . S
C1293 H1305 0.930 . S
C1294 C1290 1.524 . S
C1294 H1306 0.956 . S
C1294 H1307 0.961 . S
C1294 H1308 0.961 . S
C1295 C1292 1.539 . S
C1295 H1309 0.958 . S
C1295 H1310 0.961 . S
C1295 H1311 0.960 . S
H1296 C1280 0.931 . S
H1297 C1285 0.929 . S
H1298 C1286 0.960 . S
H1299 C1286 0.962 . S
H1300 C1286 0.960 . S
H1301 C1287 0.961 . S
H1302 C1287 0.961 . S
H1303 C1287 0.961 . S
H1304 C1288 0.931 . S
H1305 C1293 0.930 . S
H1306 C1294 0.956 . S
H1307 C1294 0.961 . S
H1308 C1294 0.961 . S
H1309 C1295 0.958 . S
H1310 C1295 0.961 . S
H1311 C1295 0.960 . S
C1312 C1313 1.391 1_545 S
C1312 C1314 1.394 . S
C1312 H1328 0.931 . S
C1313 C1312 1.391 1_565 S
C1313 C1317 1.376 . S
C1314 C1312 1.394 . S
C1314 C1315 1.369 . S
C1314 C1318 1.531 . S
C1315 C1314 1.369 . S
C1315 C1316 1.410 1_545 S
C1315 C1323 1.503 . S
C1316 C1315 1.410 1_565 S
C1316 C1317 1.392 . S
C1316 C1319 1.511 . S
C1317 C1313 1.376 . S
C1317 C1316 1.392 . S
C1317 H1329 0.929 . S
C1318 C1314 1.531 . S
C1318 H1330 0.960 . S
C1318 H1331 0.962 . S
C1318 H1332 0.960 . S
C1319 C1316 1.511 . S
C1319 H1333 0.961 . S
C1319 H1334 0.961 . S
C1319 H1335 0.961 1_565 S
C1320 C1321 1.370 1_565 S
C1320 C1322 1.363 . S
C1320 H1336 0.931 . S
C1321 C1320 1.370 1_545 S
C1321 C1325 1.408 . S
C1322 C1320 1.363 . S
C1322 C1323 1.370 1_565 S
C1322 C1326 1.524 . S
C1323 C1315 1.503 . S
C1323 C1322 1.370 1_545 S
C1323 C1324 1.403 . S
C1324 C1323 1.403 . S
C1324 C1325 1.404 . S
C1324 C1327 1.539 . S
C1325 C1321 1.408 . S
C1325 C1324 1.404 . S
C1325 H1337 0.930 . S
C1326 C1322 1.524 . S
C1326 H1338 0.956 . S
C1326 H1339 0.961 . S
C1326 H1340 0.961 . S
C1327 C1324 1.539 . S
C1327 H1341 0.958 . S
C1327 H1342 0.961 . S
C1327 H1343 0.960 . S
H1328 C1312 0.931 . S
H1329 C1317 0.929 . S
H1330 C1318 0.960 . S
H1331 C1318 0.962 . S
H1332 C1318 0.960 . S
H1333 C1319 0.961 . S
H1334 C1319 0.961 . S
H1335 C1319 0.961 1_545 S
H1336 C1320 0.931 . S
H1337 C1325 0.930 . S
H1338 C1326 0.956 . S
H1339 C1326 0.961 . S
H1340 C1326 0.961 . S
H1341 C1327 0.958 . S
H1342 C1327 0.961 . S
H1343 C1327 0.960 . S
C1344 C1345 1.391 . S
C1344 C1346 1.394 . S
C1344 H1360 0.931 . S
C1345 C1344 1.391 . S
C1345 C1349 1.376 . S
C1346 C1344 1.394 . S
C1346 C1347 1.369 . S
C1346 C1350 1.531 . S
C1347 C1346 1.369 . S
C1347 C1348 1.410 . S
C1347 C1355 1.503 . S
C1348 C1347 1.410 . S
C1348 C1349 1.392 . S
C1348 C1351 1.511 . S
C1349 C1345 1.376 . S
C1349 C1348 1.392 . S
C1349 H1361 0.929 . S
C1350 C1346 1.531 . S
C1350 H1362 0.960 . S
C1350 H1363 0.962 . S
C1350 H1364 0.960 . S
C1351 C1348 1.511 . S
C1351 H1365 0.961 . S
C1351 H1366 0.961 . S
C1351 H1367 0.961 . S
C1352 C1353 1.370 . S
C1352 C1354 1.363 . S
C1352 H1368 0.931 . S
C1353 C1352 1.370 . S
C1353 C1357 1.408 . S
C1354 C1352 1.363 . S
C1354 C1355 1.370 . S
C1354 C1358 1.524 . S
C1355 C1347 1.503 . S
C1355 C1354 1.370 . S
C1355 C1356 1.403 . S
C1356 C1355 1.403 . S
C1356 C1357 1.404 . S
C1356 C1359 1.539 . S
C1357 C1353 1.408 . S
C1357 C1356 1.404 . S
C1357 H1369 0.930 . S
C1358 C1354 1.524 . S
C1358 H1370 0.956 . S
C1358 H1371 0.961 . S
C1358 H1372 0.961 . S
C1359 C1356 1.539 . S
C1359 H1373 0.958 . S
C1359 H1374 0.961 . S
C1359 H1375 0.960 . S
H1360 C1344 0.931 . S
H1361 C1349 0.929 . S
H1362 C1350 0.960 . S
H1363 C1350 0.962 . S
H1364 C1350 0.960 . S
H1365 C1351 0.961 . S
H1366 C1351 0.961 . S
H1367 C1351 0.961 . S
H1368 C1352 0.931 . S
H1369 C1357 0.930 . S
H1370 C1358 0.956 . S
H1371 C1358 0.961 . S
H1372 C1358 0.961 . S
H1373 C1359 0.958 . S
H1374 C1359 0.961 . S
H1375 C1359 0.960 . S
C1376 C1377 1.391 1_565 S
C1376 C1378 1.394 . S
C1376 H1392 0.931 . S
C1377 C1376 1.391 1_545 S
C1377 C1381 1.376 . S
C1378 C1376 1.394 . S
C1378 C1379 1.369 . S
C1378 C1382 1.531 . S
C1379 C1378 1.369 . S
C1379 C1380 1.410 1_565 S
C1379 C1387 1.503 . S
C1380 C1379 1.410 1_545 S
C1380 C1381 1.392 . S
C1380 C1383 1.511 . S
C1381 C1377 1.376 . S
C1381 C1380 1.392 . S
C1381 H1393 0.929 . S
C1382 C1378 1.531 . S
C1382 H1394 0.960 . S
C1382 H1395 0.962 . S
C1382 H1396 0.960 . S
C1383 C1380 1.511 . S
C1383 H1397 0.961 . S
C1383 H1398 0.961 . S
C1383 H1399 0.961 . S
C1384 C1385 1.370 1_545 S
C1384 C1386 1.363 . S
C1384 H1400 0.931 . S
C1385 C1384 1.370 1_565 S
C1385 C1389 1.408 . S
C1386 C1384 1.363 . S
C1386 C1387 1.370 1_545 S
C1386 C1390 1.524 . S
C1387 C1379 1.503 . S
C1387 C1386 1.370 1_565 S
C1387 C1388 1.403 . S
C1388 C1387 1.403 . S
C1388 C1389 1.404 . S
C1388 C1391 1.539 . S
C1389 C1385 1.408 . S
C1389 C1388 1.404 . S
C1389 H1401 0.930 . S
C1390 C1386 1.524 . S
C1390 H1402 0.956 . S
C1390 H1403 0.961 . S
C1390 H1404 0.961 . S
C1391 C1388 1.539 . S
C1391 H1405 0.958 . S
C1391 H1406 0.961 . S
C1391 H1407 0.960 . S
H1392 C1376 0.931 . S
H1393 C1381 0.929 . S
H1394 C1382 0.960 . S
H1395 C1382 0.962 . S
H1396 C1382 0.960 . S
H1397 C1383 0.961 . S
H1398 C1383 0.961 . S
H1399 C1383 0.961 . S
H1400 C1384 0.931 . S
H1401 C1389 0.930 . S
H1402 C1390 0.956 . S
H1403 C1390 0.961 . S
H1404 C1390 0.961 . S
H1405 C1391 0.958 . S
H1406 C1391 0.961 . S
H1407 C1391 0.960 . S
C1408 C1409 1.391 . S
C1408 C1410 1.394 . S
C1408 H1424 0.931 . S
C1409 C1408 1.391 . S
C1409 C1413 1.376 . S
C1410 C1408 1.394 . S
C1410 C1411 1.369 . S
C1410 C1414 1.531 . S
C1411 C1410 1.369 . S
C1411 C1412 1.410 . S
C1411 C1419 1.503 . S
C1412 C1411 1.410 . S
C1412 C1413 1.392 . S
C1412 C1415 1.511 . S
C1413 C1409 1.376 . S
C1413 C1412 1.392 . S
C1413 H1425 0.929 . S
C1414 C1410 1.531 . S
C1414 H1426 0.960 . S
C1414 H1427 0.962 . S
C1414 H1428 0.960 . S
C1415 C1412 1.511 . S
C1415 H1429 0.961 . S
C1415 H1430 0.961 . S
C1415 H1431 0.961 . S
C1416 C1417 1.370 . S
C1416 C1418 1.363 1_556 S
C1416 H1432 0.931 . S
C1417 C1416 1.370 . S
C1417 C1421 1.408 . S
C1418 C1416 1.363 1_554 S
C1418 C1419 1.370 . S
C1418 C1422 1.524 . S
C1419 C1411 1.503 . S
C1419 C1418 1.370 . S
C1419 C1420 1.403 . S
C1420 C1419 1.403 . S
C1420 C1421 1.404 1_554 S
C1420 C1423 1.539 . S
C1421 C1417 1.408 . S
C1421 C1420 1.404 1_556 S
C1421 H1433 0.930 . S
C1422 C1418 1.524 . S
C1422 H1434 0.956 . S
C1422 H1435 0.961 . S
C1422 H1436 0.961 . S
C1423 C1420 1.539 . S
C1423 H1437 0.958 . S
C1423 H1438 0.961 . S
C1423 H1439 0.960 . S
H1424 C1408 0.931 . S
H1425 C1413 0.929 . S
H1426 C1414 0.960 . S
H1427 C1414 0.962 . S
H1428 C1414 0.960 . S
H1429 C1415 0.961 . S
H1430 C1415 0.961 . S
H1431 C1415 0.961 . S
H1432 C1416 0.931 . S
H1433 C1421 0.930 . S
H1434 C1422 0.956 . S
H1435 C1422 0.961 . S
H1436 C1422 0.961 . S
H1437 C1423 0.958 . S
H1438 C1423 0.961 . S
H1439 C1423 0.960 . S
C1440 C1441 1.391 . S
C1440 C1442 1.394 . S
C1440 H1456 0.931 . S
C1441 C1440 1.391 . S
C1441 C1445 1.376 . S
C1442 C1440 1.394 . S
C1442 C1443 1.369 . S
C1442 C1446 1.531 . S
C1443 C1442 1.369 . S
C1443 C1444 1.410 . S
C1443 C1451 1.503 . S
C1444 C1443 1.410 . S
C1444 C1445 1.392 . S
C1444 C1447 1.511 . S
C1445 C1441 1.376 . S
C1445 C1444 1.392 . S
C1445 H1457 0.929 . S
C1446 C1442 1.531 . S
C1446 H1458 0.960 . S
C1446 H1459 0.962 . S
C1446 H1460 0.960 . S
C1447 C1444 1.511 . S
C1447 H1461 0.961 . S
C1447 H1462 0.961 . S
C1447 H1463 0.961 . S
C1448 C1449 1.370 . S
C1448 C1450 1.363 . S
C1448 H1464 0.931 . S
C1449 C1448 1.370 . S
C1449 C1453 1.408 . S
C1450 C1448 1.363 . S
C1450 C1451 1.370 . S
C1450 C1454 1.524 . S
C1451 C1443 1.503 . S
C1451 C1450 1.370 . S
C1451 C1452 1.403 . S
C1452 C1451 1.403 . S
C1452 C1453 1.404 . S
C1452 C1455 1.539 . S
C1453 C1449 1.408 . S
C1453 C1452 1.404 . S
C1453 H1465 0.930 . S
C1454 C1450 1.524 . S
C1454 H1466 0.956 . S
C1454 H1467 0.961 . S
C1454 H1468 0.961 . S
C1455 C1452 1.539 . S
C1455 H1469 0.958 . S
C1455 H1470 0.961 . S
C1455 H1471 0.960 . S
H1456 C1440 0.931 . S
H1457 C1445 0.929 . S
H1458 C1446 0.960 . S
H1459 C1446 0.962 . S
H1460 C1446 0.960 . S
H1461 C1447 0.961 . S
H1462 C1447 0.961 . S
H1463 C1447 0.961 . S
H1464 C1448 0.931 . S
H1465 C1453 0.930 . S
H1466 C1454 0.956 . S
H1467 C1454 0.961 . S
H1468 C1454 0.961 . S
H1469 C1455 0.958 . S
H1470 C1455 0.961 . S
H1471 C1455 0.960 . S
C1472 C1473 1.391 . S
C1472 C1474 1.394 . S
C1472 H1488 0.931 . S
C1473 C1472 1.391 . S
C1473 C1477 1.376 . S
C1474 C1472 1.394 . S
C1474 C1475 1.369 . S
C1474 C1478 1.531 . S
C1475 C1474 1.369 . S
C1475 C1476 1.410 . S
C1475 C1483 1.503 . S
C1476 C1475 1.410 . S
C1476 C1477 1.392 . S
C1476 C1479 1.511 . S
C1477 C1473 1.376 . S
C1477 C1476 1.392 . S
C1477 H1489 0.929 . S
C1478 C1474 1.531 . S
C1478 H1490 0.960 . S
C1478 H1491 0.962 . S
C1478 H1492 0.960 . S
C1479 C1476 1.511 . S
C1479 H1493 0.961 . S
C1479 H1494 0.961 . S
C1479 H1495 0.961 . S
C1480 C1481 1.370 . S
C1480 C1482 1.363 . S
C1480 H1496 0.931 . S
C1481 C1480 1.370 . S
C1481 C1485 1.408 . S
C1482 C1480 1.363 . S
C1482 C1483 1.370 . S
C1482 C1486 1.524 . S
C1483 C1475 1.503 . S
C1483 C1482 1.370 . S
C1483 C1484 1.403 . S
C1484 C1483 1.403 . S
C1484 C1485 1.404 . S
C1484 C1487 1.539 . S
C1485 C1481 1.408 . S
C1485 C1484 1.404 . S
C1485 H1497 0.930 . S
C1486 C1482 1.524 . S
C1486 H1498 0.956 . S
C1486 H1499 0.961 . S
C1486 H1500 0.961 . S
C1487 C1484 1.539 . S
C1487 H1501 0.958 . S
C1487 H1502 0.961 . S
C1487 H1503 0.960 . S
H1488 C1472 0.931 . S
H1489 C1477 0.929 . S
H1490 C1478 0.960 . S
H1491 C1478 0.962 . S
H1492 C1478 0.960 . S
H1493 C1479 0.961 . S
H1494 C1479 0.961 . S
H1495 C1479 0.961 . S
H1496 C1480 0.931 . S
H1497 C1485 0.930 . S
H1498 C1486 0.956 . S
H1499 C1486 0.961 . S
H1500 C1486 0.961 . S
H1501 C1487 0.958 . S
H1502 C1487 0.961 . S
H1503 C1487 0.960 . S
C1504 C1505 1.391 . S
C1504 C1506 1.394 . S
C1504 H1520 0.931 . S
C1505 C1504 1.391 . S
C1505 C1509 1.376 . S
C1506 C1504 1.394 . S
C1506 C1507 1.369 . S
C1506 C1510 1.531 . S
C1507 C1506 1.369 . S
C1507 C1508 1.410 . S
C1507 C1515 1.503 . S
C1508 C1507 1.410 . S
C1508 C1509 1.392 . S
C1508 C1511 1.511 . S
C1509 C1505 1.376 . S
C1509 C1508 1.392 . S
C1509 H1521 0.929 . S
C1510 C1506 1.531 . S
C1510 H1522 0.960 . S
C1510 H1523 0.962 . S
C1510 H1524 0.960 . S
C1511 C1508 1.511 . S
C1511 H1525 0.961 . S
C1511 H1526 0.961 . S
C1511 H1527 0.961 . S
C1512 C1513 1.370 . S
C1512 C1514 1.363 . S
C1512 H1528 0.931 . S
C1513 C1512 1.370 . S
C1513 C1517 1.408 . S
C1514 C1512 1.363 . S
C1514 C1515 1.370 . S
C1514 C1518 1.524 . S
C1515 C1507 1.503 . S
C1515 C1514 1.370 . S
C1515 C1516 1.403 . S
C1516 C1515 1.403 . S
C1516 C1517 1.404 . S
C1516 C1519 1.539 . S
C1517 C1513 1.408 . S
C1517 C1516 1.404 . S
C1517 H1529 0.930 . S
C1518 C1514 1.524 . S
C1518 H1530 0.956 . S
C1518 H1531 0.961 . S
C1518 H1532 0.961 . S
C1519 C1516 1.539 . S
C1519 H1533 0.958 . S
C1519 H1534 0.961 . S
C1519 H1535 0.960 . S
H1520 C1504 0.931 . S
H1521 C1509 0.929 . S
H1522 C1510 0.960 . S
H1523 C1510 0.962 . S
H1524 C1510 0.960 . S
H1525 C1511 0.961 . S
H1526 C1511 0.961 . S
H1527 C1511 0.961 . S
H1528 C1512 0.931 . S
H1529 C1517 0.930 . S
H1530 C1518 0.956 . S
H1531 C1518 0.961 . S
H1532 C1518 0.961 . S
H1533 C1519 0.958 . S
H1534 C1519 0.961 . S
H1535 C1519 0.960 . S
C1536 C1537 1.391 . S
C1536 C1538 1.394 . S
C1536 H1552 0.931 . S
C1537 C1536 1.391 . S
C1537 C1541 1.376 . S
C1538 C1536 1.394 . S
C1538 C1539 1.369 . S
C1538 C1542 1.531 . S
C1539 C1538 1.369 . S
C1539 C1540 1.410 . S
C1539 C1547 1.503 . S
C1540 C1539 1.410 . S
C1540 C1541 1.392 . S
C1540 C1543 1.511 . S
C1541 C1537 1.376 . S
C1541 C1540 1.392 . S
C1541 H1553 0.929 . S
C1542 C1538 1.531 . S
C1542 H1554 0.960 . S
C1542 H1555 0.962 . S
C1542 H1556 0.960 . S
C1543 C1540 1.511 . S
C1543 H1557 0.961 . S
C1543 H1558 0.961 . S
C1543 H1559 0.961 . S
C1544 C1545 1.370 . S
C1544 C1546 1.363 1_556 S
C1544 H1560 0.931 . S
C1545 C1544 1.370 . S
C1545 C1549 1.408 . S
C1546 C1544 1.363 1_554 S
C1546 C1547 1.370 . S
C1546 C1550 1.524 . S
C1547 C1539 1.503 . S
C1547 C1546 1.370 . S
C1547 C1548 1.403 . S
C1548 C1547 1.403 . S
C1548 C1549 1.404 1_554 S
C1548 C1551 1.539 . S
C1549 C1545 1.408 . S
C1549 C1548 1.404 1_556 S
C1549 H1561 0.930 . S
C1550 C1546 1.524 . S
C1550 H1562 0.956 . S
C1550 H1563 0.961 . S
C1550 H1564 0.961 . S
C1551 C1548 1.539 . S
C1551 H1565 0.958 . S
C1551 H1566 0.961 . S
C1551 H1567 0.960 . S
H1552 C1536 0.931 . S
H1553 C1541 0.929 . S
H1554 C1542 0.960 . S
H1555 C1542 0.962 . S
H1556 C1542 0.960 . S
H1557 C1543 0.961 . S
H1558 C1543 0.961 . S
H1559 C1543 0.961 . S
H1560 C1544 0.931 . S
H1561 C1549 0.930 . S
H1562 C1550 0.956 . S
H1563 C1550 0.961 . S
H1564 C1550 0.961 . S
H1565 C1551 0.958 . S
H1566 C1551 0.961 . S
H1567 C1551 0.960 . S
C1568 C1569 1.391 . S
C1568 C1570 1.394 . S
C1568 H1584 0.931 . S
C1569 C1568 1.391 . S
C1569 C1573 1.376 . S
C1570 C1568 1.394 . S
C1570 C1571 1.369 . S
C1570 C1574 1.531 . S
C1571 C1570 1.369 . S
C1571 C1572 1.410 . S
C1571 C1579 1.503 . S
C1572 C1571 1.410 . S
C1572 C1573 1.392 . S
C1572 C1575 1.511 . S
C1573 C1569 1.376 . S
C1573 C1572 1.392 . S
C1573 H1585 0.929 . S
C1574 C1570 1.531 . S
C1574 H1586 0.960 . S
C1574 H1587 0.962 . S
C1574 H1588 0.960 . S
C1575 C1572 1.511 . S
C1575 H1589 0.961 . S
C1575 H1590 0.961 . S
C1575 H1591 0.961 . S
C1576 C1577 1.370 . S
C1576 C1578 1.363 . S
C1576 H1592 0.931 . S
C1577 C1576 1.370 . S
C1577 C1581 1.408 . S
C1578 C1576 1.363 . S
C1578 C1579 1.370 . S
C1578 C1582 1.524 . S
C1579 C1571 1.503 . S
C1579 C1578 1.370 . S
C1579 C1580 1.403 . S
C1580 C1579 1.403 . S
C1580 C1581 1.404 . S
C1580 C1583 1.539 . S
C1581 C1577 1.408 . S
C1581 C1580 1.404 . S
C1581 H1593 0.930 . S
C1582 C1578 1.524 . S
C1582 H1594 0.956 . S
C1582 H1595 0.961 . S
C1582 H1596 0.961 . S
C1583 C1580 1.539 . S
C1583 H1597 0.958 . S
C1583 H1598 0.961 . S
C1583 H1599 0.960 . S
H1584 C1568 0.931 . S
H1585 C1573 0.929 . S
H1586 C1574 0.960 . S
H1587 C1574 0.962 . S
H1588 C1574 0.960 . S
H1589 C1575 0.961 . S
H1590 C1575 0.961 . S
H1591 C1575 0.961 . S
H1592 C1576 0.931 . S
H1593 C1581 0.930 . S
H1594 C1582 0.956 . S
H1595 C1582 0.961 . S
H1596 C1582 0.961 . S
H1597 C1583 0.958 . S
H1598 C1583 0.961 . S
H1599 C1583 0.960 . S
C1600 C1601 1.391 . S
C1600 C1602 1.394 . S
C1600 H1616 0.931 . S
C1601 C1600 1.391 . S
C1601 C1605 1.376 . S
C1602 C1600 1.394 . S
C1602 C1603 1.369 . S
C1602 C1606 1.531 . S
C1603 C1602 1.369 . S
C1603 C1604 1.410 . S
C1603 C1611 1.503 . S
C1604 C1603 1.410 . S
C1604 C1605 1.392 . S
C1604 C1607 1.511 . S
C1605 C1601 1.376 . S
C1605 C1604 1.392 . S
C1605 H1617 0.929 . S
C1606 C1602 1.531 . S
C1606 H1618 0.960 . S
C1606 H1619 0.962 . S
C1606 H1620 0.960 . S
C1607 C1604 1.511 . S
C1607 H1621 0.961 . S
C1607 H1622 0.961 . S
C1607 H1623 0.961 . S
C1608 C1609 1.370 . S
C1608 C1610 1.363 . S
C1608 H1624 0.931 . S
C1609 C1608 1.370 . S
C1609 C1613 1.408 . S
C1610 C1608 1.363 . S
C1610 C1611 1.370 . S
C1610 C1614 1.524 . S
C1611 C1603 1.503 . S
C1611 C1610 1.370 . S
C1611 C1612 1.403 . S
C1612 C1611 1.403 . S
C1612 C1613 1.404 . S
C1612 C1615 1.539 . S
C1613 C1609 1.408 . S
C1613 C1612 1.404 . S
C1613 H1625 0.930 . S
C1614 C1610 1.524 . S
C1614 H1626 0.956 . S
C1614 H1627 0.961 . S
C1614 H1628 0.961 . S
C1615 C1612 1.539 . S
C1615 H1629 0.958 . S
C1615 H1630 0.961 . S
C1615 H1631 0.960 . S
H1616 C1600 0.931 . S
H1617 C1605 0.929 . S
H1618 C1606 0.960 . S
H1619 C1606 0.962 . S
H1620 C1606 0.960 . S
H1621 C1607 0.961 . S
H1622 C1607 0.961 . S
H1623 C1607 0.961 . S
H1624 C1608 0.931 . S
H1625 C1613 0.930 . S
H1626 C1614 0.956 . S
H1627 C1614 0.961 . S
H1628 C1614 0.961 . S
H1629 C1615 0.958 . S
H1630 C1615 0.961 . S
H1631 C1615 0.960 . S
C1632 C1633 1.391 . S
C1632 C1634 1.394 . S
C1632 H1648 0.931 . S
C1633 C1632 1.391 . S
C1633 C1637 1.376 . S
C1634 C1632 1.394 . S
C1634 C1635 1.369 . S
C1634 C1638 1.531 . S
C1635 C1634 1.369 . S
C1635 C1636 1.410 . S
C1635 C1643 1.503 . S
C1636 C1635 1.410 . S
C1636 C1637 1.392 . S
C1636 C1639 1.511 . S
C1637 C1633 1.376 . S
C1637 C1636 1.392 . S
C1637 H1649 0.929 . S
C1638 C1634 1.531 . S
C1638 H1650 0.960 . S
C1638 H1651 0.962 . S
C1638 H1652 0.960 . S
C1639 C1636 1.511 . S
C1639 H1653 0.961 . S
C1639 H1654 0.961 . S
C1639 H1655 0.961 . S
C1640 C1641 1.370 . S
C1640 C1642 1.363 . S
C1640 H1656 0.931 . S
C1641 C1640 1.370 . S
C1641 C1645 1.408 . S
C1642 C1640 1.363 . S
C1642 C1643 1.370 . S
C1642 C1646 1.524 . S
C1643 C1635 1.503 . S
C1643 C1642 1.370 . S
C1643 C1644 1.403 . S
C1644 C1643 1.403 . S
C1644 C1645 1.404 . S
C1644 C1647 1.539 . S
C1645 C1641 1.408 . S
C1645 C1644 1.404 . S
C1645 H1657 0.930 . S
C1646 C1642 1.524 . S
C1646 H1658 0.956 . S
C1646 H1659 0.961 . S
C1646 H1660 0.961 . S
C1647 C1644 1.539 . S
C1647 H1661 0.958 . S
C1647 H1662 0.961 . S
C1647 H1663 0.960 . S
H1648 C1632 0.931 . S
H1649 C1637 0.929 . S
H1650 C1638 0.960 . S
H1651 C1638 0.962 . S
H1652 C1638 0.960 . S
H1653 C1639 0.961 . S
H1654 C1639 0.961 . S
H1655 C1639 0.961 . S
H1656 C1640 0.931 . S
H1657 C1645 0.930 . S
H1658 C1646 0.956 . S
H1659 C1646 0.961 . S
H1660 C1646 0.961 . S
H1661 C1647 0.958 . S
H1662 C1647 0.961 . S
H1663 C1647 0.960 . S
C1664 C1665 1.391 . S
C1664 C1666 1.394 1_556 S
C1664 H1680 0.931 . S
C1665 C1664 1.391 . S
C1665 C1669 1.376 . S
C1666 C1664 1.394 1_554 S
C1666 C1667 1.369 . S
C1666 C1670 1.531 . S
C1667 C1666 1.369 . S
C1667 C1668 1.410 . S
C1667 C1675 1.503 . S
C1668 C1667 1.410 . S
C1668 C1669 1.392 1_554 S
C1668 C1671 1.511 . S
C1669 C1665 1.376 . S
C1669 C1668 1.392 1_556 S
C1669 H1681 0.929 . S
C1670 C1666 1.531 . S
C1670 H1682 0.960 . S
C1670 H1683 0.962 . S
C1670 H1684 0.960 . S
C1671 C1668 1.511 . S
C1671 H1685 0.961 . S
C1671 H1686 0.961 . S
C1671 H1687 0.961 . S
C1672 C1673 1.370 . S
C1672 C1674 1.363 . S
C1672 H1688 0.931 . S
C1673 C1672 1.370 . S
C1673 C1677 1.408 . S
C1674 C1672 1.363 . S
C1674 C1675 1.370 . S
C1674 C1678 1.524 . S
C1675 C1667 1.503 . S
C1675 C1674 1.370 . S
C1675 C1676 1.403 . S
C1676 C1675 1.403 . S
C1676 C1677 1.404 . S
C1676 C1679 1.539 . S
C1677 C1673 1.408 . S
C1677 C1676 1.404 . S
C1677 H1689 0.930 . S
C1678 C1674 1.524 . S
C1678 H1690 0.956 . S
C1678 H1691 0.961 . S
C1678 H1692 0.961 . S
C1679 C1676 1.539 . S
C1679 H1693 0.958 . S
C1679 H1694 0.961 . S
C1679 H1695 0.960 . S
H1680 C1664 0.931 . S
H1681 C1669 0.929 . S
H1682 C1670 0.960 . S
H1683 C1670 0.962 . S
H1684 C1670 0.960 . S
H1685 C1671 0.961 . S
H1686 C1671 0.961 . S
H1687 C1671 0.961 . S
H1688 C1672 0.931 . S
H1689 C1677 0.930 . S
H1690 C1678 0.956 . S
H1691 C1678 0.961 . S
H1692 C1678 0.961 . S
H1693 C1679 0.958 . S
H1694 C1679 0.961 . S
H1695 C1679 0.960 . S
C1696 C1697 1.391 . S
C1696 C1698 1.394 . S
C1696 H1712 0.931 . S
C1697 C1696 1.391 . S
C1697 C1701 1.376 1_545 S
C1698 C1696 1.394 . S
C1698 C1699 1.369 . S
C1698 C1702 1.531 . S
C1699 C1698 1.369 . S
C1699 C1700 1.410 1_545 S
C1699 C1707 1.503 . S
C1700 C1699 1.410 1_565 S
C1700 C1701 1.392 . S
C1700 C1703 1.511 . S
C1701 C1697 1.376 1_565 S
C1701 C1700 1.392 . S
C1701 H1713 0.929 . S
C1702 C1698 1.531 . S
C1702 H1714 0.960 . S
C1702 H1715 0.962 . S
C1702 H1716 0.960 . S
C1703 C1700 1.511 . S
C1703 H1717 0.961 . S
C1703 H1718 0.961 . S
C1703 H1719 0.961 . S
C1704 C1705 1.370 . S
C1704 C1706 1.363 . S
C1704 H1720 0.931 . S
C1705 C1704 1.370 . S
C1705 C1709 1.408 1_565 S
C1706 C1704 1.363 . S
C1706 C1707 1.370 1_565 S
C1706 C1710 1.524 . S
C1707 C1699 1.503 . S
C1707 C1706 1.370 1_545 S
C1707 C1708 1.403 . S
C1708 C1707 1.403 . S
C1708 C1709 1.404 . S
C1708 C1711 1.539 . S
C1709 C1705 1.408 1_545 S
C1709 C1708 1.404 . S
C1709 H1721 0.930 . S
C1710 C1706 1.524 . S
C1710 H1722 0.956 . S
C1710 H1723 0.961 . S
C1710 H1724 0.961 . S
C1711 C1708 1.539 . S
C1711 H1725 0.958 . S
C1711 H1726 0.961 . S
C1711 H1727 0.960 . S
H1712 C1696 0.931 . S
H1713 C1701 0.929 . S
H1714 C1702 0.960 . S
H1715 C1702 0.962 . S
H1716 C1702 0.960 . S
H1717 C1703 0.961 . S
H1718 C1703 0.961 . S
H1719 C1703 0.961 . S
H1720 C1704 0.931 . S
H1721 C1709 0.930 . S
H1722 C1710 0.956 . S
H1723 C1710 0.961 . S
H1724 C1710 0.961 . S
H1725 C1711 0.958 . S
H1726 C1711 0.961 . S
H1727 C1711 0.960 . S
C1728 C1729 1.391 . S
C1728 C1730 1.394 . S
C1728 H1744 0.931 . S
C1729 C1728 1.391 . S
C1729 C1733 1.376 . S
C1730 C1728 1.394 . S
C1730 C1731 1.369 . S
C1730 C1734 1.531 . S
C1731 C1730 1.369 . S
C1731 C1732 1.410 . S
C1731 C1739 1.503 . S
C1732 C1731 1.410 . S
C1732 C1733 1.392 . S
C1732 C1735 1.511 . S
C1733 C1729 1.376 . S
C1733 C1732 1.392 . S
C1733 H1745 0.929 . S
C1734 C1730 1.531 . S
C1734 H1746 0.960 . S
C1734 H1747 0.962 . S
C1734 H1748 0.960 . S
C1735 C1732 1.511 . S
C1735 H1749 0.961 . S
C1735 H1750 0.961 . S
C1735 H1751 0.961 . S
C1736 C1737 1.370 . S
C1736 C1738 1.363 1_556 S
C1736 H1752 0.931 . S
C1737 C1736 1.370 . S
C1737 C1741 1.408 . S
C1738 C1736 1.363 1_554 S
C1738 C1739 1.370 . S
C1738 C1742 1.524 . S
C1739 C1731 1.503 . S
C1739 C1738 1.370 . S
C1739 C1740 1.403 . S
C1740 C1739 1.403 . S
C1740 C1741 1.404 1_554 S
C1740 C1743 1.539 . S
C1741 C1737 1.408 . S
C1741 C1740 1.404 1_556 S
C1741 H1753 0.930 . S
C1742 C1738 1.524 . S
C1742 H1754 0.956 . S
C1742 H1755 0.961 . S
C1742 H1756 0.961 . S
C1743 C1740 1.539 . S
C1743 H1757 0.958 . S
C1743 H1758 0.970 . S
C1743 H1759 0.960 . S
H1744 C1728 0.931 . S
H1745 C1733 0.929 . S
H1746 C1734 0.960 . S
H1747 C1734 0.962 . S
H1748 C1734 0.960 . S
H1749 C1735 0.961 . S
H1750 C1735 0.961 . S
H1751 C1735 0.961 . S
H1752 C1736 0.931 . S
H1753 C1741 0.930 . S
H1754 C1742 0.956 . S
H1755 C1742 0.961 . S
H1756 C1742 0.961 . S
H1757 C1743 0.958 . S
H1758 C1743 0.970 . S
H1759 C1743 0.960 . S
C1760 C1761 1.391 . S
C1760 C1762 1.394 . S
C1760 H1776 0.931 . S
C1761 C1760 1.391 . S
C1761 C1765 1.376 1_545 S
C1762 C1760 1.394 . S
C1762 C1763 1.369 . S
C1762 C1766 1.531 . S
C1763 C1762 1.369 . S
C1763 C1764 1.410 1_545 S
C1763 C1771 1.508 . S
C1764 C1763 1.410 1_565 S
C1764 C1765 1.392 . S
C1764 C1767 1.511 . S
C1765 C1761 1.376 1_565 S
C1765 C1764 1.392 . S
C1765 H1777 0.929 . S
C1766 C1762 1.531 . S
C1766 H1778 0.960 . S
C1766 H1779 0.962 . S
C1766 H1780 0.960 . S
C1767 C1764 1.511 . S
C1767 H1781 0.961 . S
C1767 H1782 0.961 . S
C1767 H1783 0.961 . S
C1768 C1769 1.370 . S
C1768 C1770 1.363 . S
C1768 H1784 0.931 . S
C1769 C1768 1.370 . S
C1769 C1773 1.408 1_565 S
C1770 C1768 1.363 . S
C1770 C1771 1.352 1_565 S
C1770 C1774 1.524 . S
C1771 C1763 1.508 . S
C1771 C1770 1.352 1_545 S
C1771 C1772 1.419 . S
C1772 C1771 1.419 . S
C1772 C1773 1.404 . S
C1772 C1775 1.539 . S
C1773 C1769 1.408 1_545 S
C1773 C1772 1.404 . S
C1773 H1785 0.930 . S
C1774 C1770 1.524 . S
C1774 H1786 0.956 . S
C1774 H1787 0.961 . S
C1774 H1788 0.961 . S
C1775 C1772 1.539 . S
C1775 H1789 0.958 . S
C1775 H1790 0.961 . S
C1775 H1791 0.960 . S
H1776 C1760 0.931 . S
H1777 C1765 0.929 . S
H1778 C1766 0.960 . S
H1779 C1766 0.962 . S
H1780 C1766 0.960 . S
H1781 C1767 0.961 . S
H1782 C1767 0.961 . S
H1783 C1767 0.961 . S
H1784 C1768 0.931 . S
H1785 C1773 0.930 . S
H1786 C1774 0.956 . S
H1787 C1774 0.961 . S
H1788 C1774 0.961 . S
H1789 C1775 0.958 . S
H1790 C1775 0.961 . S
H1791 C1775 0.960 . S
C1792 C1793 1.391 . S
C1792 C1794 1.394 . S
C1792 H1808 0.931 . S
C1793 C1792 1.391 . S
C1793 C1797 1.376 . S
C1794 C1792 1.394 . S
C1794 C1795 1.369 . S
C1794 C1798 1.531 . S
C1795 C1794 1.369 . S
C1795 C1796 1.410 . S
C1795 C1803 1.503 . S
C1796 C1795 1.410 . S
C1796 C1797 1.392 . S
C1796 C1799 1.511 . S
C1797 C1793 1.376 . S
C1797 C1796 1.392 . S
C1797 H1809 0.929 . S
C1798 C1794 1.531 . S
C1798 H1810 0.960 . S
C1798 H1811 0.962 . S
C1798 H1812 0.960 . S
C1799 C1796 1.511 . S
C1799 H1813 0.961 . S
C1799 H1814 0.961 . S
C1799 H1815 0.961 . S
C1800 C1801 1.370 . S
C1800 C1802 1.363 . S
C1800 H1816 0.931 . S
C1801 C1800 1.370 . S
C1801 C1805 1.408 . S
C1802 C1800 1.363 . S
C1802 C1803 1.370 . S
C1802 C1806 1.524 . S
C1803 C1795 1.503 . S
C1803 C1802 1.370 . S
C1803 C1804 1.403 . S
C1804 C1803 1.403 . S
C1804 C1805 1.404 . S
C1804 C1807 1.539 . S
C1805 C1801 1.408 . S
C1805 C1804 1.404 . S
C1805 H1817 0.930 . S
C1806 C1802 1.524 . S
C1806 H1818 0.956 . S
C1806 H1819 0.961 . S
C1806 H1820 0.961 . S
C1807 C1804 1.539 . S
C1807 H1821 0.958 . S
C1807 H1822 0.961 . S
C1807 H1823 0.960 . S
H1808 C1792 0.931 . S
H1809 C1797 0.929 . S
H1810 C1798 0.960 . S
H1811 C1798 0.962 . S
H1812 C1798 0.960 . S
H1813 C1799 0.961 . S
H1814 C1799 0.961 . S
H1815 C1799 0.961 . S
H1816 C1800 0.931 . S
H1817 C1805 0.930 . S
H1818 C1806 0.956 . S
H1819 C1806 0.961 . S
H1820 C1806 0.961 . S
H1821 C1807 0.958 . S
H1822 C1807 0.961 . S
H1823 C1807 0.960 . S
C1824 C1825 1.362 1_565 S
C1824 C1826 1.394 . S
C1824 H1840 0.931 . S
C1825 C1824 1.362 1_545 S
C1825 C1829 1.398 . S
C1826 C1824 1.394 . S
C1826 C1827 1.369 . S
C1826 C1830 1.531 . S
C1827 C1826 1.369 . S
C1827 C1828 1.410 1_565 S
C1827 C1835 1.503 . S
C1828 C1827 1.410 1_545 S
C1828 C1829 1.392 . S
C1828 C1831 1.511 . S
C1829 C1825 1.398 . S
C1829 C1828 1.392 . S
C1829 H1841 0.929 . S
C1830 C1826 1.531 . S
C1830 H1842 0.960 . S
C1830 H1843 0.962 . S
C1830 H1844 0.960 . S
C1831 C1828 1.511 . S
C1831 H1845 0.961 . S
C1831 H1846 0.961 . S
C1831 H1847 0.961 . S
C1832 C1833 1.370 1_545 S
C1832 C1834 1.363 . S
C1832 H1848 0.931 . S
C1833 C1832 1.370 1_565 S
C1833 C1837 1.408 . S
C1834 C1832 1.363 . S
C1834 C1835 1.370 1_545 S
C1834 C1838 1.524 . S
C1835 C1827 1.503 . S
C1835 C1834 1.370 1_565 S
C1835 C1836 1.403 . S
C1836 C1835 1.403 . S
C1836 C1837 1.404 . S
C1836 C1839 1.539 . S
C1837 C1833 1.408 . S
C1837 C1836 1.404 . S
C1837 H1849 0.930 . S
C1838 C1834 1.524 . S
C1838 H1850 0.956 . S
C1838 H1851 0.961 . S
C1838 H1852 0.961 . S
C1839 C1836 1.539 . S
C1839 H1853 0.958 . S
C1839 H1854 0.961 . S
C1839 H1855 0.960 . S
H1840 C1824 0.931 . S
H1841 C1829 0.929 . S
H1842 C1830 0.960 . S
H1843 C1830 0.962 . S
H1844 C1830 0.960 . S
H1845 C1831 0.961 . S
H1846 C1831 0.961 . S
H1847 C1831 0.961 . S
H1848 C1832 0.931 . S
H1849 C1837 0.930 . S
H1850 C1838 0.956 . S
H1851 C1838 0.961 . S
H1852 C1838 0.961 . S
H1853 C1839 0.958 . S
H1854 C1839 0.961 . S
H1855 C1839 0.960 . S
C1856 C1857 1.391 . S
C1856 C1858 1.394 . S
C1856 H1872 0.931 . S
C1857 C1856 1.391 . S
C1857 C1861 1.376 . S
C1858 C1856 1.394 . S
C1858 C1859 1.369 . S
C1858 C1862 1.531 . S
C1859 C1858 1.369 . S
C1859 C1860 1.410 . S
C1859 C1867 1.503 . S
C1860 C1859 1.410 . S
C1860 C1861 1.392 . S
C1860 C1863 1.511 . S
C1861 C1857 1.376 . S
C1861 C1860 1.392 . S
C1861 H1873 0.929 . S
C1862 C1858 1.531 . S
C1862 H1874 0.960 . S
C1862 H1875 0.962 . S
C1862 H1876 0.960 . S
C1863 C1860 1.511 . S
C1863 H1877 0.961 . S
C1863 H1878 0.961 . S
C1863 H1879 0.961 . S
C1864 C1865 1.370 . S
C1864 C1866 1.363 1_556 S
C1864 H1880 0.931 . S
C1865 C1864 1.370 . S
C1865 C1869 1.408 . S
C1866 C1864 1.363 1_554 S
C1866 C1867 1.370 . S
C1866 C1870 1.524 . S
C1867 C1859 1.503 . S
C1867 C1866 1.370 . S
C1867 C1868 1.403 . S
C1868 C1867 1.403 . S
C1868 C1869 1.404 1_554 S
C1868 C1871 1.539 . S
C1869 C1865 1.408 . S
C1869 C1868 1.404 1_556 S
C1869 H1881 0.930 . S
C1870 C1866 1.524 . S
C1870 H1882 0.956 . S
C1870 H1883 0.961 . S
C1870 H1884 0.961 . S
C1871 C1868 1.539 . S
C1871 H1885 0.958 . S
C1871 H1886 0.961 . S
C1871 H1887 0.960 . S
H1872 C1856 0.931 . S
H1873 C1861 0.929 . S
H1874 C1862 0.960 . S
H1875 C1862 0.962 . S
H1876 C1862 0.960 . S
H1877 C1863 0.961 . S
H1878 C1863 0.961 . S
H1879 C1863 0.961 . S
H1880 C1864 0.931 . S
H1881 C1869 0.930 . S
H1882 C1870 0.956 . S
H1883 C1870 0.961 . S
H1884 C1870 0.961 . S
H1885 C1871 0.958 . S
H1886 C1871 0.961 . S
H1887 C1871 0.960 . S
C1888 C1889 1.377 1_565 S
C1888 C1890 1.394 . S
C1888 H1904 0.931 . S
C1889 C1888 1.377 1_545 S
C1889 C1893 1.384 . S
C1890 C1888 1.394 . S
C1890 C1891 1.369 . S
C1890 C1894 1.531 . S
C1891 C1890 1.369 . S
C1891 C1892 1.410 1_565 S
C1891 C1899 1.503 . S
C1892 C1891 1.410 1_545 S
C1892 C1893 1.392 . S
C1892 C1895 1.511 . S
C1893 C1889 1.384 . S
C1893 C1892 1.392 . S
C1893 H1905 0.929 . S
C1894 C1890 1.531 . S
C1894 H1906 0.960 . S
C1894 H1907 0.962 . S
C1894 H1908 0.960 . S
C1895 C1892 1.511 . S
C1895 H1909 0.961 . S
C1895 H1910 0.961 . S
C1895 H1911 0.961 1_545 S
C1896 C1897 1.370 1_545 S
C1896 C1898 1.363 . S
C1896 H1912 0.931 . S
C1897 C1896 1.370 1_565 S
C1897 C1901 1.408 . S
C1898 C1896 1.363 . S
C1898 C1899 1.370 1_545 S
C1898 C1902 1.524 . S
C1899 C1891 1.503 . S
C1899 C1898 1.370 1_565 S
C1899 C1900 1.403 . S
C1900 C1899 1.403 . S
C1900 C1901 1.404 . S
C1900 C1903 1.539 . S
C1901 C1897 1.408 . S
C1901 C1900 1.404 . S
C1901 H1913 0.930 . S
C1902 C1898 1.524 . S
C1902 H1914 0.956 . S
C1902 H1915 0.961 . S
C1902 H1916 0.961 . S
C1903 C1900 1.539 . S
C1903 H1917 0.958 . S
C1903 H1918 0.961 . S
C1903 H1919 0.960 . S
H1904 C1888 0.931 . S
H1905 C1893 0.929 . S
H1906 C1894 0.960 . S
H1907 C1894 0.962 . S
H1908 C1894 0.960 . S
H1909 C1895 0.961 . S
H1910 C1895 0.961 . S
H1911 C1895 0.961 1_565 S
H1912 C1896 0.931 . S
H1913 C1901 0.930 . S
H1914 C1902 0.956 . S
H1915 C1902 0.961 . S
H1916 C1902 0.961 . S
H1917 C1903 0.958 . S
H1918 C1903 0.961 . S
H1919 C1903 0.960 . S
C1920 C1921 1.391 . S
C1920 C1922 1.394 . S
C1920 H1936 0.931 . S
C1921 C1920 1.391 . S
C1921 C1925 1.376 . S
C1922 C1920 1.394 . S
C1922 C1923 1.369 . S
C1922 C1926 1.531 . S
C1923 C1922 1.369 . S
C1923 C1924 1.410 . S
C1923 C1931 1.503 . S
C1924 C1923 1.410 . S
C1924 C1925 1.392 . S
C1924 C1927 1.511 . S
C1925 C1921 1.376 . S
C1925 C1924 1.392 . S
C1925 H1937 0.929 . S
C1926 C1922 1.531 . S
C1926 H1938 0.960 . S
C1926 H1939 0.962 . S
C1926 H1940 0.960 . S
C1927 C1924 1.511 . S
C1927 H1941 0.961 . S
C1927 H1942 0.961 . S
C1927 H1943 0.961 . S
C1928 C1929 1.370 . S
C1928 C1930 1.363 . S
C1928 H1944 0.931 . S
C1929 C1928 1.370 . S
C1929 C1933 1.408 . S
C1930 C1928 1.363 . S
C1930 C1931 1.370 . S
C1930 C1934 1.524 . S
C1931 C1923 1.503 . S
C1931 C1930 1.370 . S
C1931 C1932 1.403 . S
C1932 C1931 1.403 . S
C1932 C1933 1.404 . S
C1932 C1935 1.539 . S
C1933 C1929 1.408 . S
C1933 C1932 1.404 . S
C1933 H1945 0.930 . S
C1934 C1930 1.524 . S
C1934 H1946 0.956 . S
C1934 H1947 0.961 . S
C1934 H1948 0.961 . S
C1935 C1932 1.539 . S
C1935 H1949 0.958 . S
C1935 H1950 0.961 . S
C1935 H1951 0.960 . S
H1936 C1920 0.931 . S
H1937 C1925 0.929 . S
H1938 C1926 0.960 . S
H1939 C1926 0.962 . S
H1940 C1926 0.960 . S
H1941 C1927 0.961 . S
H1942 C1927 0.961 . S
H1943 C1927 0.961 . S
H1944 C1928 0.931 . S
H1945 C1933 0.930 . S
H1946 C1934 0.956 . S
H1947 C1934 0.961 . S
H1948 C1934 0.961 . S
H1949 C1935 0.958 . S
H1950 C1935 0.961 . S
H1951 C1935 0.960 . S
C1952 C1953 1.391 . S
C1952 C1954 1.394 . S
C1952 H1968 0.931 . S
C1953 C1952 1.391 . S
C1953 C1957 1.376 . S
C1954 C1952 1.394 . S
C1954 C1955 1.369 . S
C1954 C1958 1.531 . S
C1955 C1954 1.369 . S
C1955 C1956 1.410 . S
C1955 C1963 1.503 . S
C1956 C1955 1.410 . S
C1956 C1957 1.392 . S
C1956 C1959 1.511 . S
C1957 C1953 1.376 . S
C1957 C1956 1.392 . S
C1957 H1969 0.929 . S
C1958 C1954 1.531 . S
C1958 H1970 0.960 . S
C1958 H1971 0.962 . S
C1958 H1972 0.960 . S
C1959 C1956 1.511 . S
C1959 H1973 0.961 . S
C1959 H1974 0.961 . S
C1959 H1975 0.961 . S
C1960 C1961 1.370 . S
C1960 C1962 1.363 . S
C1960 H1976 0.931 . S
C1961 C1960 1.370 . S
C1961 C1965 1.408 . S
C1962 C1960 1.363 . S
C1962 C1963 1.370 . S
C1962 C1966 1.524 . S
C1963 C1955 1.503 . S
C1963 C1962 1.370 . S
C1963 C1964 1.403 . S
C1964 C1963 1.403 . S
C1964 C1965 1.404 . S
C1964 C1967 1.539 . S
C1965 C1961 1.408 . S
C1965 C1964 1.404 . S
C1965 H1977 0.930 . S
C1966 C1962 1.524 . S
C1966 H1978 0.956 . S
C1966 H1979 0.961 . S
C1966 H1980 0.961 . S
C1967 C1964 1.539 . S
C1967 H1981 0.958 . S
C1967 H1982 0.961 . S
C1967 H1983 0.960 . S
H1968 C1952 0.931 . S
H1969 C1957 0.929 . S
H1970 C1958 0.960 . S
H1971 C1958 0.962 . S
H1972 C1958 0.960 . S
H1973 C1959 0.961 . S
H1974 C1959 0.961 . S
H1975 C1959 0.961 . S
H1976 C1960 0.931 . S
H1977 C1965 0.930 . S
H1978 C1966 0.956 . S
H1979 C1966 0.961 . S
H1980 C1966 0.961 . S
H1981 C1967 0.958 . S
H1982 C1967 0.961 . S
H1983 C1967 0.960 . S
C1984 C1985 1.391 . S
C1984 C1986 1.394 . S
C1984 H2000 0.931 . S
C1985 C1984 1.391 . S
C1985 C1989 1.376 . S
C1986 C1984 1.394 . S
C1986 C1987 1.369 . S
C1986 C1990 1.531 . S
C1987 C1986 1.369 . S
C1987 C1988 1.410 . S
C1987 C1995 1.503 . S
C1988 C1987 1.410 . S
C1988 C1989 1.392 . S
C1988 C1991 1.511 . S
C1989 C1985 1.376 . S
C1989 C1988 1.392 . S
C1989 H2001 0.929 . S
C1990 C1986 1.531 . S
C1990 H2002 0.960 . S
C1990 H2003 0.962 . S
C1990 H2004 0.960 . S
C1991 C1988 1.511 . S
C1991 H2005 0.961 . S
C1991 H2006 0.961 . S
C1991 H2007 0.961 . S
C1992 C1993 1.370 . S
C1992 C1994 1.363 . S
C1992 H2008 0.931 . S
C1993 C1992 1.370 . S
C1993 C1997 1.408 . S
C1994 C1992 1.363 . S
C1994 C1995 1.370 . S
C1994 C1998 1.524 . S
C1995 C1987 1.503 . S
C1995 C1994 1.370 . S
C1995 C1996 1.403 . S
C1996 C1995 1.403 . S
C1996 C1997 1.404 . S
C1996 C1999 1.539 . S
C1997 C1993 1.408 . S
C1997 C1996 1.404 . S
C1997 H2009 0.930 . S
C1998 C1994 1.524 . S
C1998 H2010 0.956 . S
C1998 H2011 0.961 . S
C1998 H2012 0.961 . S
C1999 C1996 1.539 . S
C1999 H2013 0.958 . S
C1999 H2014 0.961 . S
C1999 H2015 0.960 . S
H2000 C1984 0.931 . S
H2001 C1989 0.929 . S
H2002 C1990 0.960 . S
H2003 C1990 0.962 . S
H2004 C1990 0.960 . S
H2005 C1991 0.961 . S
H2006 C1991 0.961 . S
H2007 C1991 0.961 . S
H2008 C1992 0.931 . S
H2009 C1997 0.930 . S
H2010 C1998 0.956 . S
H2011 C1998 0.961 . S
H2012 C1998 0.961 . S
H2013 C1999 0.958 . S
H2014 C1999 0.961 . S
H2015 C1999 0.960 . S
C2016 C2017 1.391 . S
C2016 C2018 1.394 . S
C2016 H2032 0.931 . S
C2017 C2016 1.391 . S
C2017 C2021 1.376 . S
C2018 C2016 1.394 . S
C2018 C2019 1.369 . S
C2018 C2022 1.531 . S
C2019 C2018 1.369 . S
C2019 C2020 1.410 . S
C2019 C2027 1.503 . S
C2020 C2019 1.410 . S
C2020 C2021 1.392 . S
C2020 C2023 1.511 . S
C2021 C2017 1.376 . S
C2021 C2020 1.392 . S
C2021 H2033 0.929 . S
C2022 C2018 1.531 . S
C2022 H2034 0.960 . S
C2022 H2035 0.962 . S
C2022 H2036 0.960 . S
C2023 C2020 1.511 . S
C2023 H2037 0.961 . S
C2023 H2038 0.961 . S
C2023 H2039 0.961 . S
C2024 C2025 1.370 . S
C2024 C2026 1.363 . S
C2024 H2040 0.931 . S
C2025 C2024 1.370 . S
C2025 C2029 1.408 . S
C2026 C2024 1.363 . S
C2026 C2027 1.370 . S
C2026 C2030 1.524 . S
C2027 C2019 1.503 . S
C2027 C2026 1.370 . S
C2027 C2028 1.403 . S
C2028 C2027 1.403 . S
C2028 C2029 1.404 . S
C2028 C2031 1.539 . S
C2029 C2025 1.408 . S
C2029 C2028 1.404 . S
C2029 H2041 0.930 . S
C2030 C2026 1.524 . S
C2030 H2042 0.956 . S
C2030 H2043 0.961 . S
C2030 H2044 0.961 . S
C2031 C2028 1.539 . S
C2031 H2045 0.958 . S
C2031 H2046 0.961 . S
C2031 H2047 0.960 . S
H2032 C2016 0.931 . S
H2033 C2021 0.929 . S
H2034 C2022 0.960 . S
H2035 C2022 0.962 . S
H2036 C2022 0.960 . S
H2037 C2023 0.961 . S
H2038 C2023 0.961 . S
H2039 C2023 0.961 . S
H2040 C2024 0.931 . S
H2041 C2029 0.930 . S
H2042 C2030 0.956 . S
H2043 C2030 0.961 . S
H2044 C2030 0.961 . S
H2045 C2031 0.958 . S
H2046 C2031 0.961 . S
H2047 C2031 0.960 . S
C2048 C2049 1.391 . S
C2048 C2050 1.394 . S
C2048 H2064 0.931 . S
C2049 C2048 1.391 . S
C2049 C2053 1.376 . S
C2050 C2048 1.394 . S
C2050 C2051 1.369 . S
C2050 C2054 1.531 . S
C2051 C2050 1.369 . S
C2051 C2052 1.410 . S
C2051 C2059 1.503 . S
C2052 C2051 1.410 . S
C2052 C2053 1.392 . S
C2052 C2055 1.511 . S
C2053 C2049 1.376 . S
C2053 C2052 1.392 . S
C2053 H2065 0.929 . S
C2054 C2050 1.531 . S
C2054 H2066 0.960 . S
C2054 H2067 0.962 . S
C2054 H2068 0.960 . S
C2055 C2052 1.511 . S
C2055 H2069 0.961 . S
C2055 H2070 0.961 . S
C2055 H2071 0.961 . S
C2056 C2057 1.370 . S
C2056 C2058 1.363 . S
C2056 H2072 0.931 . S
C2057 C2056 1.370 . S
C2057 C2061 1.408 1_556 S
C2058 C2056 1.363 . S
C2058 C2059 1.370 . S
C2058 C2062 1.524 . S
C2059 C2051 1.503 . S
C2059 C2058 1.370 . S
C2059 C2060 1.402 . S
C2060 C2059 1.402 . S
C2060 C2061 1.404 1_556 S
C2060 C2063 1.540 1_556 S
C2061 C2057 1.408 1_554 S
C2061 C2060 1.404 1_554 S
C2061 H2073 0.930 . S
C2062 C2058 1.524 . S
C2062 H2074 0.956 . S
C2062 H2075 0.961 . S
C2062 H2076 0.961 . S
C2063 C2060 1.540 1_554 S
C2063 H2077 0.958 . S
C2063 H2078 0.961 . S
C2063 H2079 0.960 . S
H2064 C2048 0.931 . S
H2065 C2053 0.929 . S
H2066 C2054 0.960 . S
H2067 C2054 0.962 . S
H2068 C2054 0.960 . S
H2069 C2055 0.961 . S
H2070 C2055 0.961 . S
H2071 C2055 0.961 . S
H2072 C2056 0.931 . S
H2073 C2061 0.930 . S
H2074 C2062 0.956 . S
H2075 C2062 0.961 . S
H2076 C2062 0.961 . S
H2077 C2063 0.958 . S
H2078 C2063 0.961 . S
H2079 C2063 0.960 . S
C2080 C2081 1.391 . S
C2080 C2082 1.394 . S
C2080 H2096 0.931 . S
C2081 C2080 1.391 . S
C2081 C2085 1.376 . S
C2082 C2080 1.394 . S
C2082 C2083 1.369 . S
C2082 C2086 1.531 . S
C2083 C2082 1.369 . S
C2083 C2084 1.410 . S
C2083 C2091 1.503 . S
C2084 C2083 1.410 . S
C2084 C2085 1.392 . S
C2084 C2087 1.511 . S
C2085 C2081 1.376 . S
C2085 C2084 1.392 . S
C2085 H2097 0.929 . S
C2086 C2082 1.531 . S
C2086 H2098 0.960 . S
C2086 H2099 0.962 . S
C2086 H2100 0.960 . S
C2087 C2084 1.511 . S
C2087 H2101 0.961 . S
C2087 H2102 0.961 . S
C2087 H2103 0.961 . S
C2088 C2089 1.370 . S
C2088 C2090 1.363 . S
C2088 H2104 0.931 . S
C2089 C2088 1.370 . S
C2089 C2093 1.408 . S
C2090 C2088 1.363 . S
C2090 C2091 1.370 . S
C2090 C2094 1.524 . S
C2091 C2083 1.503 . S
C2091 C2090 1.370 . S
C2091 C2092 1.403 . S
C2092 C2091 1.403 . S
C2092 C2093 1.404 . S
C2092 C2095 1.539 . S
C2093 C2089 1.408 . S
C2093 C2092 1.404 . S
C2093 H2105 0.930 . S
C2094 C2090 1.524 . S
C2094 H2106 0.956 . S
C2094 H2107 0.961 . S
C2094 H2108 0.961 . S
C2095 C2092 1.539 . S
C2095 H2109 0.958 . S
C2095 H2110 0.961 . S
C2095 H2111 0.960 . S
H2096 C2080 0.931 . S
H2097 C2085 0.929 . S
H2098 C2086 0.960 . S
H2099 C2086 0.962 . S
H2100 C2086 0.960 . S
H2101 C2087 0.961 . S
H2102 C2087 0.961 . S
H2103 C2087 0.961 . S
H2104 C2088 0.931 . S
H2105 C2093 0.930 . S
H2106 C2094 0.956 . S
H2107 C2094 0.961 . S
H2108 C2094 0.961 . S
H2109 C2095 0.958 . S
H2110 C2095 0.961 . S
H2111 C2095 0.960 . S
C2112 C2113 1.391 . S
C2112 C2114 1.394 . S
C2112 H2128 0.931 . S
C2113 C2112 1.391 . S
C2113 C2117 1.376 . S
C2114 C2112 1.394 . S
C2114 C2115 1.369 . S
C2114 C2118 1.531 . S
C2115 C2114 1.369 . S
C2115 C2116 1.410 . S
C2115 C2123 1.503 . S
C2116 C2115 1.410 . S
C2116 C2117 1.392 . S
C2116 C2119 1.511 . S
C2117 C2113 1.376 . S
C2117 C2116 1.392 . S
C2117 H2129 0.929 . S
C2118 C2114 1.531 . S
C2118 H2130 0.960 . S
C2118 H2131 0.962 . S
C2118 H2132 0.960 . S
C2119 C2116 1.511 . S
C2119 H2133 0.961 . S
C2119 H2134 0.961 . S
C2119 H2135 0.961 . S
C2120 C2121 1.370 . S
C2120 C2122 1.363 . S
C2120 H2136 0.931 . S
C2121 C2120 1.370 . S
C2121 C2125 1.408 . S
C2122 C2120 1.363 . S
C2122 C2123 1.370 . S
C2122 C2126 1.524 . S
C2123 C2115 1.503 . S
C2123 C2122 1.370 . S
C2123 C2124 1.403 . S
C2124 C2123 1.403 . S
C2124 C2125 1.404 . S
C2124 C2127 1.539 . S
C2125 C2121 1.408 . S
C2125 C2124 1.404 . S
C2125 H2137 0.930 . S
C2126 C2122 1.524 . S
C2126 H2138 0.956 . S
C2126 H2139 0.961 . S
C2126 H2140 0.961 . S
C2127 C2124 1.539 . S
C2127 H2141 0.958 . S
C2127 H2142 0.961 . S
C2127 H2143 0.960 . S
H2128 C2112 0.931 . S
H2129 C2117 0.929 . S
H2130 C2118 0.960 . S
H2131 C2118 0.962 . S
H2132 C2118 0.960 . S
H2133 C2119 0.961 . S
H2134 C2119 0.961 . S
H2135 C2119 0.961 . S
H2136 C2120 0.931 . S
H2137 C2125 0.930 . S
H2138 C2126 0.956 . S
H2139 C2126 0.961 . S
H2140 C2126 0.961 . S
H2141 C2127 0.958 . S
H2142 C2127 0.961 . S
H2143 C2127 0.960 . S
C2144 C2145 1.391 . S
C2144 C2146 1.394 . S
C2144 H2160 0.931 . S
C2145 C2144 1.391 . S
C2145 C2149 1.376 . S
C2146 C2144 1.394 . S
C2146 C2147 1.369 . S
C2146 C2150 1.531 . S
C2147 C2146 1.369 . S
C2147 C2148 1.410 . S
C2147 C2155 1.503 . S
C2148 C2147 1.410 . S
C2148 C2149 1.392 . S
C2148 C2151 1.511 . S
C2149 C2145 1.376 . S
C2149 C2148 1.392 . S
C2149 H2161 0.929 . S
C2150 C2146 1.531 . S
C2150 H2162 0.960 1_556 S
C2150 H2163 0.962 1_556 S
C2150 H2164 0.960 1_556 S
C2151 C2148 1.511 . S
C2151 H2165 0.961 . S
C2151 H2166 0.961 . S
C2151 H2167 0.961 . S
C2152 C2153 1.370 . S
C2152 C2154 1.363 . S
C2152 H2168 0.931 . S
C2153 C2152 1.370 . S
C2153 C2157 1.408 . S
C2154 C2152 1.363 . S
C2154 C2155 1.370 . S
C2154 C2158 1.524 . S
C2155 C2147 1.503 . S
C2155 C2154 1.370 . S
C2155 C2156 1.403 . S
C2156 C2155 1.403 . S
C2156 C2157 1.404 . S
C2156 C2159 1.539 . S
C2157 C2153 1.408 . S
C2157 C2156 1.404 . S
C2157 H2169 0.925 1_556 S
C2158 C2154 1.524 . S
C2158 H2170 0.956 . S
C2158 H2171 0.961 . S
C2158 H2172 0.961 . S
C2159 C2156 1.539 . S
C2159 H2173 0.958 . S
C2159 H2174 0.961 . S
C2159 H2175 0.960 . S
H2160 C2144 0.931 . S
H2161 C2149 0.929 . S
H2162 C2150 0.960 1_554 S
H2163 C2150 0.962 1_554 S
H2164 C2150 0.960 1_554 S
H2165 C2151 0.961 . S
H2166 C2151 0.961 . S
H2167 C2151 0.961 . S
H2168 C2152 0.931 . S
H2169 C2157 0.925 1_554 S
H2170 C2158 0.956 . S
H2171 C2158 0.961 . S
H2172 C2158 0.961 . S
H2173 C2159 0.958 . S
H2174 C2159 0.961 . S
H2175 C2159 0.960 . S
C2176 C2177 1.391 . S
C2176 C2178 1.394 . S
C2176 H2192 0.931 . S
C2177 C2176 1.391 . S
C2177 C2181 1.376 . S
C2178 C2176 1.394 . S
C2178 C2179 1.369 . S
C2178 C2182 1.531 . S
C2179 C2178 1.369 . S
C2179 C2180 1.410 . S
C2179 C2187 1.503 . S
C2180 C2179 1.410 . S
C2180 C2181 1.392 . S
C2180 C2183 1.511 . S
C2181 C2177 1.376 . S
C2181 C2180 1.392 . S
C2181 H2193 0.929 . S
C2182 C2178 1.531 . S
C2182 H2194 0.960 . S
C2182 H2195 0.962 . S
C2182 H2196 0.960 . S
C2183 C2180 1.511 . S
C2183 H2197 0.961 . S
C2183 H2198 0.961 . S
C2183 H2199 0.961 . S
C2184 C2185 1.370 . S
C2184 C2186 1.363 . S
C2184 H2200 0.931 . S
C2185 C2184 1.370 . S
C2185 C2189 1.408 . S
C2186 C2184 1.363 . S
C2186 C2187 1.370 . S
C2186 C2190 1.524 . S
C2187 C2179 1.503 . S
C2187 C2186 1.370 . S
C2187 C2188 1.403 . S
C2188 C2187 1.403 . S
C2188 C2189 1.404 . S
C2188 C2191 1.539 . S
C2189 C2185 1.408 . S
C2189 C2188 1.404 . S
C2189 H2201 0.930 . S
C2190 C2186 1.524 . S
C2190 H2202 0.956 . S
C2190 H2203 0.961 . S
C2190 H2204 0.961 . S
C2191 C2188 1.539 . S
C2191 H2205 0.958 . S
C2191 H2206 0.961 . S
C2191 H2207 0.960 . S
H2192 C2176 0.931 . S
H2193 C2181 0.929 . S
H2194 C2182 0.960 . S
H2195 C2182 0.962 . S
H2196 C2182 0.960 . S
H2197 C2183 0.961 . S
H2198 C2183 0.961 . S
H2199 C2183 0.961 . S
H2200 C2184 0.931 . S
H2201 C2189 0.930 . S
H2202 C2190 0.956 . S
H2203 C2190 0.961 . S
H2204 C2190 0.961 . S
H2205 C2191 0.958 . S
H2206 C2191 0.961 . S
H2207 C2191 0.960 . S
C2208 C2209 1.391 1_554 S
C2208 C2210 1.394 1_554 S
C2208 H2224 0.931 . S
C2209 C2208 1.391 1_556 S
C2209 C2213 1.376 . S
C2210 C2208 1.394 1_556 S
C2210 C2211 1.369 . S
C2210 C2214 1.531 1_556 S
C2211 C2210 1.369 . S
C2211 C2212 1.410 . S
C2211 C2219 1.503 . S
C2212 C2211 1.410 . S
C2212 C2213 1.392 . S
C2212 C2215 1.511 . S
C2213 C2209 1.376 . S
C2213 C2212 1.392 . S
C2213 H2225 0.929 . S
C2214 C2210 1.531 1_554 S
C2214 H2226 0.960 . S
C2214 H2227 0.962 . S
C2214 H2228 0.960 . S
C2215 C2212 1.511 . S
C2215 H2229 0.961 . S
C2215 H2230 0.961 . S
C2215 H2231 0.961 . S
C2216 C2217 1.370 . S
C2216 C2218 1.363 . S
C2216 H2232 0.931 . S
C2217 C2216 1.370 . S
C2217 C2221 1.408 . S
C2218 C2216 1.363 . S
C2218 C2219 1.370 . S
C2218 C2222 1.524 . S
C2219 C2211 1.503 . S
C2219 C2218 1.370 . S
C2219 C2220 1.403 . S
C2220 C2219 1.403 . S
C2220 C2221 1.404 . S
C2220 C2223 1.539 . S
C2221 C2217 1.408 . S
C2221 C2220 1.404 . S
C2221 H2233 0.930 . S
C2222 C2218 1.524 . S
C2222 H2234 0.956 . S
C2222 H2235 0.961 . S
C2222 H2236 0.961 . S
C2223 C2220 1.539 . S
C2223 H2237 0.958 . S
C2223 H2238 0.961 . S
C2223 H2239 0.960 . S
H2224 C2208 0.931 . S
H2225 C2213 0.929 . S
H2226 C2214 0.960 . S
H2227 C2214 0.962 . S
H2228 C2214 0.960 . S
H2229 C2215 0.961 . S
H2230 C2215 0.961 . S
H2231 C2215 0.961 . S
H2232 C2216 0.931 . S
H2233 C2221 0.930 . S
H2234 C2222 0.956 . S
H2235 C2222 0.961 . S
H2236 C2222 0.961 . S
H2237 C2223 0.958 . S
H2238 C2223 0.961 . S
H2239 C2223 0.960 . S
C2240 C2241 1.391 . S
C2240 C2242 1.394 . S
C2240 H2256 0.931 . S
C2241 C2240 1.391 . S
C2241 C2245 1.376 . S
C2242 C2240 1.394 . S
C2242 C2243 1.369 . S
C2242 C2246 1.531 . S
C2243 C2242 1.369 . S
C2243 C2244 1.410 . S
C2243 C2251 1.503 . S
C2244 C2243 1.410 . S
C2244 C2245 1.392 . S
C2244 C2247 1.511 . S
C2245 C2241 1.376 . S
C2245 C2244 1.392 . S
C2245 H2257 0.929 . S
C2246 C2242 1.531 . S
C2246 H2258 0.960 . S
C2246 H2259 0.962 . S
C2246 H2260 0.960 . S
C2247 C2244 1.511 . S
C2247 H2261 0.961 . S
C2247 H2262 0.961 . S
C2247 H2263 0.961 . S
C2248 C2249 1.370 . S
C2248 C2250 1.363 . S
C2248 H2264 0.931 . S
C2249 C2248 1.370 . S
C2249 C2253 1.408 . S
C2250 C2248 1.363 . S
C2250 C2251 1.370 . S
C2250 C2254 1.524 . S
C2251 C2243 1.503 . S
C2251 C2250 1.370 . S
C2251 C2252 1.403 . S
C2252 C2251 1.403 . S
C2252 C2253 1.404 . S
C2252 C2255 1.539 . S
C2253 C2249 1.408 . S
C2253 C2252 1.404 . S
C2253 H2265 0.930 . S
C2254 C2250 1.524 . S
C2254 H2266 0.956 . S
C2254 H2267 0.961 . S
C2254 H2268 0.961 . S
C2255 C2252 1.539 . S
C2255 H2269 0.958 . S
C2255 H2270 0.961 . S
C2255 H2271 0.960 . S
H2256 C2240 0.931 . S
H2257 C2245 0.929 . S
H2258 C2246 0.960 . S
H2259 C2246 0.962 . S
H2260 C2246 0.960 . S
H2261 C2247 0.961 . S
H2262 C2247 0.961 . S
H2263 C2247 0.961 . S
H2264 C2248 0.931 . S
H2265 C2253 0.930 . S
H2266 C2254 0.956 . S
H2267 C2254 0.961 . S
H2268 C2254 0.961 . S
H2269 C2255 0.958 . S
H2270 C2255 0.961 . S
H2271 C2255 0.960 . S
C2272 C2273 1.391 . S
C2272 C2274 1.394 . S
C2272 H2288 0.931 . S
C2273 C2272 1.391 . S
C2273 C2277 1.376 . S
C2274 C2272 1.394 . S
C2274 C2275 1.369 . S
C2274 C2278 1.531 . S
C2275 C2274 1.369 . S
C2275 C2276 1.410 . S
C2275 C2283 1.503 . S
C2276 C2275 1.410 . S
C2276 C2277 1.392 . S
C2276 C2279 1.511 . S
C2277 C2273 1.376 . S
C2277 C2276 1.392 . S
C2277 H2289 0.929 . S
C2278 C2274 1.531 . S
C2278 H2290 0.960 . S
C2278 H2291 0.962 . S
C2278 H2292 0.960 . S
C2279 C2276 1.511 . S
C2279 H2293 0.961 . S
C2279 H2294 0.961 . S
C2279 H2295 0.961 . S
C2280 C2281 1.370 . S
C2280 C2282 1.363 . S
C2280 H2296 0.931 . S
C2281 C2280 1.370 . S
C2281 C2285 1.408 . S
C2282 C2280 1.363 . S
C2282 C2283 1.370 . S
C2282 C2286 1.524 . S
C2283 C2275 1.503 . S
C2283 C2282 1.370 . S
C2283 C2284 1.403 . S
C2284 C2283 1.403 . S
C2284 C2285 1.404 . S
C2284 C2287 1.539 . S
C2285 C2281 1.408 . S
C2285 C2284 1.404 . S
C2285 H2297 0.930 . S
C2286 C2282 1.524 . S
C2286 H2298 0.956 . S
C2286 H2299 0.961 . S
C2286 H2300 0.961 . S
C2287 C2284 1.539 . S
C2287 H2301 0.958 . S
C2287 H2302 0.961 . S
C2287 H2303 0.960 . S
H2288 C2272 0.931 . S
H2289 C2277 0.929 . S
H2290 C2278 0.960 . S
H2291 C2278 0.962 . S
H2292 C2278 0.960 . S
H2293 C2279 0.961 . S
H2294 C2279 0.961 . S
H2295 C2279 0.961 . S
H2296 C2280 0.931 . S
H2297 C2285 0.930 . S
H2298 C2286 0.956 . S
H2299 C2286 0.961 . S
H2300 C2286 0.961 . S
H2301 C2287 0.958 . S
H2302 C2287 0.961 . S
H2303 C2287 0.960 . S
C2304 C2305 1.391 . S
C2304 C2306 1.394 . S
C2304 H2320 0.931 . S
C2305 C2304 1.391 . S
C2305 C2309 1.376 . S
C2306 C2304 1.394 . S
C2306 C2307 1.369 . S
C2306 C2310 1.531 . S
C2307 C2306 1.369 . S
C2307 C2308 1.410 . S
C2307 C2315 1.503 . S
C2308 C2307 1.410 . S
C2308 C2309 1.392 . S
C2308 C2311 1.511 . S
C2309 C2305 1.376 . S
C2309 C2308 1.392 . S
C2309 H2321 0.929 . S
C2310 C2306 1.531 . S
C2310 H2322 0.960 . S
C2310 H2323 0.962 . S
C2310 H2324 0.960 . S
C2311 C2308 1.511 . S
C2311 H2325 0.961 . S
C2311 H2326 0.961 . S
C2311 H2327 0.961 . S
C2312 C2313 1.370 . S
C2312 C2314 1.363 . S
C2312 H2328 0.931 . S
C2313 C2312 1.370 . S
C2313 C2317 1.408 . S
C2314 C2312 1.363 . S
C2314 C2315 1.370 . S
C2314 C2318 1.524 . S
C2315 C2307 1.503 . S
C2315 C2314 1.370 . S
C2315 C2316 1.403 . S
C2316 C2315 1.403 . S
C2316 C2317 1.404 . S
C2316 C2319 1.539 . S
C2317 C2313 1.408 . S
C2317 C2316 1.404 . S
C2317 H2329 0.930 . S
C2318 C2314 1.524 . S
C2318 H2330 0.956 . S
C2318 H2331 0.961 . S
C2318 H2332 0.961 . S
C2319 C2316 1.539 . S
C2319 H2333 0.958 . S
C2319 H2334 0.961 . S
C2319 H2335 0.960 . S
H2320 C2304 0.931 . S
H2321 C2309 0.929 . S
H2322 C2310 0.960 . S
H2323 C2310 0.962 . S
H2324 C2310 0.960 . S
H2325 C2311 0.961 . S
H2326 C2311 0.961 . S
H2327 C2311 0.961 . S
H2328 C2312 0.931 . S
H2329 C2317 0.930 . S
H2330 C2318 0.956 . S
H2331 C2318 0.961 . S
H2332 C2318 0.961 . S
H2333 C2319 0.958 . S
H2334 C2319 0.961 . S
H2335 C2319 0.960 . S
C2336 C2337 1.391 . S
C2336 C2338 1.394 . S
C2336 H2352 0.931 . S
C2337 C2336 1.391 . S
C2337 C2341 1.376 . S
C2338 C2336 1.394 . S
C2338 C2339 1.369 . S
C2338 C2342 1.531 . S
C2339 C2338 1.369 . S
C2339 C2340 1.410 . S
C2339 C2347 1.503 . S
C2340 C2339 1.410 . S
C2340 C2341 1.392 . S
C2340 C2343 1.511 . S
C2341 C2337 1.376 . S
C2341 C2340 1.392 . S
C2341 H2353 0.929 . S
C2342 C2338 1.531 . S
C2342 H2354 0.960 . S
C2342 H2355 0.962 . S
C2342 H2356 0.960 . S
C2343 C2340 1.511 . S
C2343 H2357 0.961 . S
C2343 H2358 0.961 . S
C2343 H2359 0.961 . S
C2344 C2345 1.370 . S
C2344 C2346 1.363 . S
C2344 H2360 0.931 . S
C2345 C2344 1.370 . S
C2345 C2349 1.408 . S
C2346 C2344 1.363 . S
C2346 C2347 1.370 . S
C2346 C2350 1.524 . S
C2347 C2339 1.503 . S
C2347 C2346 1.370 . S
C2347 C2348 1.403 . S
C2348 C2347 1.403 . S
C2348 C2349 1.404 . S
C2348 C2351 1.539 . S
C2349 C2345 1.408 . S
C2349 C2348 1.404 . S
C2349 H2361 0.930 . S
C2350 C2346 1.524 . S
C2350 H2362 0.956 . S
C2350 H2363 0.961 . S
C2350 H2364 0.961 . S
C2351 C2348 1.539 . S
C2351 H2365 0.958 . S
C2351 H2366 0.961 . S
C2351 H2367 0.960 . S
H2352 C2336 0.931 . S
H2353 C2341 0.929 . S
H2354 C2342 0.960 . S
H2355 C2342 0.962 . S
H2356 C2342 0.960 . S
H2357 C2343 0.961 . S
H2358 C2343 0.961 . S
H2359 C2343 0.961 . S
H2360 C2344 0.931 . S
H2361 C2349 0.930 . S
H2362 C2350 0.956 . S
H2363 C2350 0.961 . S
H2364 C2350 0.961 . S
H2365 C2351 0.958 . S
H2366 C2351 0.961 . S
H2367 C2351 0.960 . S
C2368 C2369 1.391 . S
C2368 C2370 1.394 . S
C2368 H2384 0.931 . S
C2369 C2368 1.391 . S
C2369 C2373 1.376 . S
C2370 C2368 1.394 . S
C2370 C2371 1.369 . S
C2370 C2374 1.531 . S
C2371 C2370 1.369 . S
C2371 C2372 1.410 . S
C2371 C2379 1.503 . S
C2372 C2371 1.410 . S
C2372 C2373 1.392 . S
C2372 C2375 1.511 . S
C2373 C2369 1.376 . S
C2373 C2372 1.392 . S
C2373 H2385 0.929 . S
C2374 C2370 1.531 . S
C2374 H2386 0.960 . S
C2374 H2387 0.962 . S
C2374 H2388 0.960 . S
C2375 C2372 1.511 . S
C2375 H2389 0.961 . S
C2375 H2390 0.961 . S
C2375 H2391 0.961 . S
C2376 C2377 1.370 . S
C2376 C2378 1.363 . S
C2376 H2392 0.931 . S
C2377 C2376 1.370 . S
C2377 C2381 1.408 . S
C2378 C2376 1.363 . S
C2378 C2379 1.370 . S
C2378 C2382 1.524 . S
C2379 C2371 1.503 . S
C2379 C2378 1.370 . S
C2379 C2380 1.403 . S
C2380 C2379 1.403 . S
C2380 C2381 1.404 . S
C2380 C2383 1.539 . S
C2381 C2377 1.408 . S
C2381 C2380 1.404 . S
C2381 H2393 0.930 . S
C2382 C2378 1.524 . S
C2382 H2394 0.956 . S
C2382 H2395 0.961 . S
C2382 H2396 0.961 . S
C2383 C2380 1.539 . S
C2383 H2397 0.958 . S
C2383 H2398 0.961 . S
C2383 H2399 0.960 . S
H2384 C2368 0.931 . S
H2385 C2373 0.929 . S
H2386 C2374 0.960 . S
H2387 C2374 0.962 . S
H2388 C2374 0.960 . S
H2389 C2375 0.961 . S
H2390 C2375 0.961 . S
H2391 C2375 0.961 . S
H2392 C2376 0.931 . S
H2393 C2381 0.930 . S
H2394 C2382 0.956 . S
H2395 C2382 0.961 . S
H2396 C2382 0.961 . S
H2397 C2383 0.958 . S
H2398 C2383 0.961 . S
H2399 C2383 0.960 . S
C2400 C2401 1.391 . S
C2400 C2402 1.394 . S
C2400 H2416 0.931 . S
C2401 C2400 1.391 . S
C2401 C2405 1.376 . S
C2402 C2400 1.394 . S
C2402 C2403 1.369 . S
C2402 C2406 1.531 . S
C2403 C2402 1.369 . S
C2403 C2404 1.410 . S
C2403 C2411 1.503 . S
C2404 C2403 1.410 . S
C2404 C2405 1.392 . S
C2404 C2407 1.511 . S
C2405 C2401 1.376 . S
C2405 C2404 1.392 . S
C2405 H2417 0.929 . S
C2406 C2402 1.531 . S
C2406 H2418 0.960 . S
C2406 H2419 0.962 . S
C2406 H2420 0.960 . S
C2407 C2404 1.511 . S
C2407 H2421 0.961 . S
C2407 H2422 0.961 . S
C2407 H2423 0.961 . S
C2408 C2409 1.370 . S
C2408 C2410 1.363 . S
C2408 H2424 0.931 . S
C2409 C2408 1.370 . S
C2409 C2413 1.408 . S
C2410 C2408 1.363 . S
C2410 C2411 1.370 . S
C2410 C2414 1.524 . S
C2411 C2403 1.503 . S
C2411 C2410 1.370 . S
C2411 C2412 1.403 . S
C2412 C2411 1.403 . S
C2412 C2413 1.404 . S
C2412 C2415 1.539 . S
C2413 C2409 1.408 . S
C2413 C2412 1.404 . S
C2413 H2425 0.930 . S
C2414 C2410 1.524 . S
C2414 H2426 0.956 . S
C2414 H2427 0.961 . S
C2414 H2428 0.961 . S
C2415 C2412 1.539 . S
C2415 H2429 0.958 . S
C2415 H2430 0.961 . S
C2415 H2431 0.960 . S
H2416 C2400 0.931 . S
H2417 C2405 0.929 . S
H2418 C2406 0.960 . S
H2419 C2406 0.962 . S
H2420 C2406 0.960 . S
H2421 C2407 0.961 . S
H2422 C2407 0.961 . S
H2423 C2407 0.961 . S
H2424 C2408 0.931 . S
H2425 C2413 0.930 . S
H2426 C2414 0.956 . S
H2427 C2414 0.961 . S
H2428 C2414 0.961 . S
H2429 C2415 0.958 . S
H2430 C2415 0.961 . S
H2431 C2415 0.960 . S
C2432 C2433 1.391 . S
C2432 C2434 1.394 . S
C2432 H2448 0.931 . S
C2433 C2432 1.391 . S
C2433 C2437 1.376 . S
C2434 C2432 1.394 . S
C2434 C2435 1.369 . S
C2434 C2438 1.531 . S
C2435 C2434 1.369 . S
C2435 C2436 1.410 . S
C2435 C2443 1.503 . S
C2436 C2435 1.410 . S
C2436 C2437 1.392 . S
C2436 C2439 1.511 . S
C2437 C2433 1.376 . S
C2437 C2436 1.392 . S
C2437 H2449 0.929 . S
C2438 C2434 1.531 . S
C2438 H2450 0.960 . S
C2438 H2451 0.962 . S
C2438 H2452 0.960 . S
C2439 C2436 1.511 . S
C2439 H2453 0.961 . S
C2439 H2454 0.961 . S
C2439 H2455 0.961 . S
C2440 C2441 1.370 1_554 S
C2440 C2442 1.363 1_554 S
C2440 H2456 0.931 . S
C2441 C2440 1.370 1_556 S
C2441 C2445 1.408 . S
C2442 C2440 1.363 1_556 S
C2442 C2443 1.370 . S
C2442 C2446 1.528 . S
C2443 C2435 1.503 . S
C2443 C2442 1.370 . S
C2443 C2444 1.403 . S
C2444 C2443 1.403 . S
C2444 C2445 1.404 . S
C2444 C2447 1.539 . S
C2445 C2441 1.408 . S
C2445 C2444 1.404 . S
C2445 H2457 0.930 . S
C2446 C2442 1.528 . S
C2446 H2458 0.962 . S
C2446 H2459 0.960 1_556 S
C2446 H2460 0.951 1_556 S
C2447 C2444 1.539 . S
C2447 H2461 0.958 . S
C2447 H2462 0.961 . S
C2447 H2463 0.960 . S
H2448 C2432 0.931 . S
H2449 C2437 0.929 . S
H2450 C2438 0.960 . S
H2451 C2438 0.962 . S
H2452 C2438 0.960 . S
H2453 C2439 0.961 . S
H2454 C2439 0.961 . S
H2455 C2439 0.961 . S
H2456 C2440 0.931 . S
H2457 C2445 0.930 . S
H2458 C2446 0.962 . S
H2459 C2446 0.960 1_554 S
H2460 C2446 0.951 1_554 S
H2461 C2447 0.958 . S
H2462 C2447 0.961 . S
H2463 C2447 0.960 . S
C417 C109 1.477 . S
C425 C3 1.503 . S
C449 C18 1.477 . S
C457 C328 1.503 . S
C481 C31 1.504 . S
C489 C135 1.493 . S
C513 C44 1.478 . S
C521 C356 1.503 . S
C545 C55 1.502 . S
C553 C159 1.494 . S
C577 C382 1.501 . S
C585 C68 1.494 . S
C609 C185 1.498 . S
C617 C81 1.496 . S
C641 C406 1.509 . S
C649 C96 1.490 . S
C673 C224 1.509 . S
C681 C122 1.490 . S
C705 C148 1.485 . S
C713 C252 1.499 . S
C737 C172 1.486 . S
C745 C276 1.498 . S
C769 C302 1.478 . S
C777 C198 1.503 . S
C801 C315 1.483 . S
C809 C211 1.502 . S
C833 C237 1.495 . S
C841 C343 1.495 . S
C865 C265 1.505 . S
C873 C367 1.491 . S
C897 C393 1.485 . S
C905 C289 1.499 . S
C929 C5 1.599 . S
C937 C57 1.594 . S
C961 C70 1.580 . S
C969 C16 1.600 . S
C993 C83 1.613 . S
C1001 C29 1.598 . S
C1025 C42 1.598 . S
C1033 C94 1.608 . S
C1057 C107 1.599 . S
C1065 C161 1.607 . S
C1089 C120 1.613 . S
C1097 C174 1.601 . S
C1121 C187 1.591 . S
C1129 C133 1.608 . S
C1153 C200 1.613 . S
C1161 C146 1.600 . S
C1185 C263 1.580 . S
C1193 C213 1.602 . S
C1217 C278 1.601 . S
C1225 C226 1.608 . S
C1249 C239 1.613 . S
C1257 C291 1.598 . S
C1281 C304 1.591 . S
C1289 C250 1.595 . S
C1313 C369 1.606 . S
C1321 C317 1.594 . S
C1345 C330 1.587 . S
C1353 C380 1.608 . S
C1377 C395 1.603 . S
C1385 C341 1.594 . S
C1409 C408 1.582 . S
C1417 C354 1.601 . S
C1441 C56 0.590 . S
C1449 C4 0.660 . S
C1473 C69 0.623 . S
C1481 C23 0.629 . S
C1505 C36 0.616 . S
C1513 C82 0.652 . S
C1537 C101 0.613 . S
C1545 C49 0.633 . S
C1569 C160 0.693 . S
C1577 C114 0.626 . S
C1601 C127 0.572 . S
C1609 C173 0.662 . S
C1633 C186 0.687 . S
C1641 C140 0.604 . S
C1665 C199 0.609 . S
C1673 C153 0.660 . S
C1697 C212 0.686 1_545 S
C1705 C270 0.606 1_565 S
C1729 C277 0.697 . S
C1737 C225 0.614 . S
C1761 C290 0.645 1_545 S
C1769 C238 0.620 1_565 S
C1793 C303 0.578 . S
C1801 C257 0.650 . S
C1825 C368 0.544 1_545 S
C1833 C316 0.651 1_565 S
C1857 C329 0.674 . S
C1865 C387 0.638 . S
C1889 C348 0.546 1_545 S
C1897 C394 0.656 1_565 S
C1921 C361 0.648 . S
C1929 C407 0.612 . S
C1953 C10 1.475 . S
C1961 C283 1.508 . S
C1985 C296 1.500 . S
C1993 C17 1.501 . S
C2017 C30 1.515 . S
C2025 C309 1.491 . S
C2049 C43 1.478 . S
C2057 C264 1.508 1_556 S
C2081 C251 1.509 . S
C2089 C62 1.496 . S
C2113 C218 1.497 . S
C2121 C75 1.497 . S
C2145 C231 1.499 . S
C2153 C88 1.501 1_556 S
C2177 C95 1.481 . S
C2185 C244 1.508 . S
C2209 C108 1.504 1_556 S
C2217 C381 1.502 . S
C2241 C400 1.517 . S
C2249 C121 1.493 . S
C2273 C413 1.492 . S
C2281 C134 1.506 . S
C2305 C374 1.481 . S
C2313 C147 1.502 . S
C2337 C355 1.475 . S
C2345 C166 1.507 . S
C2369 C322 1.516 . S
C2377 C179 1.494 . S
C2401 C192 1.508 . S
C2409 C335 1.500 . S
C2433 C205 1.516 . S
C2441 C342 1.495 1_556 S
